# Generated by pormake.
# Topology noy, (5)-cn, num edge types: 1
# Building blocks:
#     Node 0, Type 0, BuildingBlock: XOMCOT_clean_sbu_1, # of connection points: 5
#     Node 1, Type 0, BuildingBlock: XOMCOT_clean_sbu_1, # of connection points: 5
#     Node 2, Type 0, BuildingBlock: XOMCOT_clean_sbu_1, # of connection points: 5
#     Node 3, Type 0, BuildingBlock: XOMCOT_clean_sbu_1, # of connection points: 5
#     Node 4, Type 0, BuildingBlock: XOMCOT_clean_sbu_1, # of connection points: 5
#     Node 5, Type 0, BuildingBlock: XOMCOT_clean_sbu_1, # of connection points: 5
#     Node 6, Type 0, BuildingBlock: XOMCOT_clean_sbu_1, # of connection points: 5
#     Node 7, Type 0, BuildingBlock: XOMCOT_clean_sbu_1, # of connection points: 5
#     Edge 8, Type (0, 0), BuildingBlock: ZUJKAS_clean_linker_0, # of connection points: 2
#     Edge 9, Type (0, 0), BuildingBlock: ZUJKAS_clean_linker_0, # of connection points: 2
#     Edge 10, Type (0, 0), BuildingBlock: ZUJKAS_clean_linker_0, # of connection points: 2
#     Edge 11, Type (0, 0), BuildingBlock: ZUJKAS_clean_linker_0, # of connection points: 2
#     Edge 12, Type (0, 0), BuildingBlock: ZUJKAS_clean_linker_0, # of connection points: 2
#     Edge 13, Type (0, 0), BuildingBlock: ZUJKAS_clean_linker_0, # of connection points: 2
#     Edge 14, Type (0, 0), BuildingBlock: ZUJKAS_clean_linker_0, # of connection points: 2
#     Edge 15, Type (0, 0), BuildingBlock: ZUJKAS_clean_linker_0, # of connection points: 2
#     Edge 16, Type (0, 0), BuildingBlock: ZUJKAS_clean_linker_0, # of connection points: 2
#     Edge 17, Type (0, 0), BuildingBlock: ZUJKAS_clean_linker_0, # of connection points: 2
#     Edge 18, Type (0, 0), BuildingBlock: ZUJKAS_clean_linker_0, # of connection points: 2
#     Edge 19, Type (0, 0), BuildingBlock: ZUJKAS_clean_linker_0, # of connection points: 2
#     Edge 20, Type (0, 0), BuildingBlock: ZUJKAS_clean_linker_0, # of connection points: 2
#     Edge 21, Type (0, 0), BuildingBlock: ZUJKAS_clean_linker_0, # of connection points: 2
#     Edge 22, Type (0, 0), BuildingBlock: ZUJKAS_clean_linker_0, # of connection points: 2
#     Edge 23, Type (0, 0), BuildingBlock: ZUJKAS_clean_linker_0, # of connection points: 2
#     Edge 24, Type (0, 0), BuildingBlock: ZUJKAS_clean_linker_0, # of connection points: 2
#     Edge 25, Type (0, 0), BuildingBlock: ZUJKAS_clean_linker_0, # of connection points: 2
#     Edge 26, Type (0, 0), BuildingBlock: ZUJKAS_clean_linker_0, # of connection points: 2
#     Edge 27, Type (0, 0), BuildingBlock: ZUJKAS_clean_linker_0, # of connection points: 2
# Relax obj value: 0.149
# Max RMSD: 0.181
# Mean RMSD: 0.181
data_MOF--net-noy--node1-XOMCOT_clean_sbu_1--edge1-ZUJKAS_clean_linker_0
_symmetry_space_group_name_H-M    P1
_symmetry_Int_Tables_number       1
_symmetry_cell_setting            triclinic
loop_
_symmetry_equiv_pos_as_xyz
'x, y, z'
_cell_length_a     62.314703
_cell_length_b     58.72948
_cell_length_c     25.727697
_cell_angle_alpha  89.995391
_cell_angle_beta   90.027701
_cell_angle_gamma 89.991087
loop_
_atom_site_label
_atom_site_type_symbol
_atom_site_fract_x
_atom_site_fract_y
_atom_site_fract_z
_atom_type_partial_charge
C0 C 0.32448 0.38002 0.20008 0.0
C1 C 0.32463 0.39456 0.15823 0.0
N2 N 0.31588 0.41453 0.17299 0.0
N3 N 0.31564 0.39065 0.24122 0.0
C4 C 0.31044 0.41166 0.22349 0.0
H5 H 0.33102 0.36297 0.20096 0.0
Co6 Co 0.31464 0.37777 0.30744 0.0
C7 C 0.28711 0.40869 0.36708 0.0
O8 O 0.27507 0.39119 0.37976 0.0
N9 N 0.31406 0.36452 0.37471 0.0
C10 C 0.31995 0.35974 0.45945 0.0
C11 C 0.3223 0.37425 0.41795 0.0
C12 C 0.30667 0.34405 0.39129 0.0
N13 N 0.3101 0.34072 0.44266 0.0
O14 O 0.28662 0.36594 0.29149 0.0
H15 H 0.32959 0.39095 0.41928 0.0
H16 H 0.29921 0.33155 0.36642 0.0
O17 O 0.30301 0.40581 0.33654 0.0
C18 C 0.28907 0.3463 0.27113 0.0
O19 O 0.3085 0.33762 0.26917 0.0
N20 N 0.3427 0.38755 0.31855 0.0
C21 C 0.38644 0.39686 0.31205 0.0
C22 C 0.37146 0.41467 0.31569 0.0
C23 C 0.34952 0.40965 0.31856 0.0
C24 C 0.35705 0.37009 0.3175 0.0
C25 C 0.37899 0.37435 0.31461 0.0
H26 H 0.3381 0.42347 0.31774 0.0
H27 H 0.3513 0.35272 0.31641 0.0
H28 H 0.30372 0.42494 0.24763 0.0
H29 H 0.33096 0.39078 0.12004 0.0
H30 H 0.32481 0.36308 0.49911 0.0
H31 H 0.37653 0.43227 0.31327 0.0
H32 H 0.39 0.3601 0.3126 0.0
C33 C 0.6801 0.64892 0.70795 0.0
C34 C 0.68171 0.63469 0.66568 0.0
N35 N 0.68702 0.61376 0.68276 0.0
N36 N 0.68457 0.63714 0.75159 0.0
C37 C 0.68868 0.6157 0.73497 0.0
H38 H 0.67549 0.66666 0.70696 0.0
Co39 Co 0.68353 0.64943 0.81853 0.0
C40 C 0.71094 0.61917 0.88027 0.0
O41 O 0.72195 0.63705 0.89549 0.0
N42 N 0.68221 0.66201 0.88659 0.0
C43 C 0.67461 0.66577 0.97086 0.0
C44 C 0.67277 0.65194 0.92795 0.0
C45 C 0.68984 0.68193 0.90583 0.0
N46 N 0.6854 0.68463 0.95689 0.0
O47 O 0.71134 0.66259 0.80665 0.0
H48 H 0.66517 0.63539 0.9272 0.0
H49 H 0.69843 0.69443 0.88324 0.0
O50 O 0.69563 0.62168 0.84781 0.0
C51 C 0.70877 0.68254 0.78801 0.0
O52 O 0.68926 0.69098 0.78569 0.0
N53 N 0.65567 0.63834 0.82552 0.0
C54 C 0.61239 0.62733 0.81464 0.0
C55 C 0.62797 0.61012 0.81864 0.0
C56 C 0.64964 0.61599 0.82401 0.0
C57 C 0.64073 0.6552 0.82387 0.0
C58 C 0.61901 0.6501 0.81909 0.0
H59 H 0.66154 0.60262 0.82417 0.0
H60 H 0.64585 0.6728 0.82427 0.0
H61 H 0.69262 0.60169 0.76053 0.0
H62 H 0.67848 0.63921 0.62564 0.0
H63 H 0.66889 0.66197 1.00963 0.0
H64 H 0.62364 0.59234 0.81495 0.0
H65 H 0.60756 0.66396 0.81736 0.0
C66 C 0.33079 0.64713 0.82083 0.0
C67 C 0.33087 0.63329 0.86396 0.0
N68 N 0.31954 0.61434 0.85297 0.0
N69 N 0.31948 0.63703 0.78265 0.0
C70 C 0.31266 0.61713 0.80349 0.0
H71 H 0.33903 0.66324 0.81692 0.0
Co72 Co 0.31738 0.64872 0.71537 0.0
C73 C 0.28788 0.61739 0.66241 0.0
O74 O 0.27579 0.63485 0.64962 0.0
N75 N 0.31556 0.66068 0.64702 0.0
C76 C 0.31854 0.66313 0.56099 0.0
C77 C 0.32201 0.64962 0.60373 0.0
C78 C 0.30832 0.68103 0.62932 0.0
N79 N 0.30987 0.68294 0.57697 0.0
O80 O 0.29014 0.66182 0.73366 0.0
H81 H 0.32882 0.63268 0.60323 0.0
H82 H 0.30173 0.69413 0.65403 0.0
O83 O 0.30446 0.62054 0.69061 0.0
C84 C 0.29375 0.68152 0.75272 0.0
O85 O 0.31354 0.68929 0.75203 0.0
N86 N 0.34487 0.63769 0.70157 0.0
C87 C 0.38844 0.62704 0.70462 0.0
C88 C 0.37287 0.60984 0.70901 0.0
C89 C 0.35106 0.61554 0.7074 0.0
C90 C 0.3597 0.65442 0.69467 0.0
C91 C 0.38154 0.64943 0.69525 0.0
H92 H 0.33929 0.60239 0.71439 0.0
H93 H 0.35453 0.67194 0.69124 0.0
H94 H 0.30372 0.60443 0.7821 0.0
H95 H 0.33894 0.63681 0.90034 0.0
H96 H 0.32238 0.65871 0.52125 0.0
H97 H 0.3774 0.59238 0.71685 0.0
H98 H 0.39292 0.66321 0.69052 0.0
C99 C 0.67326 0.37939 0.33473 0.0
C100 C 0.67351 0.39348 0.37737 0.0
N101 N 0.6812 0.414 0.36285 0.0
N102 N 0.68091 0.39075 0.29328 0.0
C103 C 0.68563 0.41178 0.31152 0.0
H104 H 0.66759 0.36201 0.33388 0.0
Co105 Co 0.68265 0.37832 0.22668 0.0
C106 C 0.71158 0.40931 0.17077 0.0
O107 O 0.72368 0.39184 0.15816 0.0
N108 N 0.6841 0.36554 0.15901 0.0
C109 C 0.68051 0.36166 0.07329 0.0
C110 C 0.67701 0.37573 0.11515 0.0
C111 C 0.69181 0.3452 0.14251 0.0
N112 N 0.68986 0.34242 0.0905 0.0
O113 O 0.71024 0.3659 0.24475 0.0
H114 H 0.66996 0.39254 0.11354 0.0
H115 H 0.69866 0.33251 0.16786 0.0
O116 O 0.69522 0.40626 0.19975 0.0
C117 C 0.70757 0.34612 0.26425 0.0
O118 O 0.68819 0.33729 0.26387 0.0
N119 N 0.65497 0.38884 0.21323 0.0
C120 C 0.61141 0.39963 0.21194 0.0
C121 C 0.62701 0.4169 0.21174 0.0
C122 C 0.64879 0.41114 0.21256 0.0
C123 C 0.64012 0.37187 0.21197 0.0
C124 C 0.61826 0.37686 0.21099 0.0
H125 H 0.66054 0.42461 0.21507 0.0
H126 H 0.64533 0.35432 0.21398 0.0
H127 H 0.69163 0.42538 0.28726 0.0
H128 H 0.66836 0.38877 0.41603 0.0
H129 H 0.67693 0.3656 0.03311 0.0
H130 H 0.62243 0.43469 0.21229 0.0
H131 H 0.60686 0.36296 0.21219 0.0
C132 C 0.8125 0.87946 0.20419 0.0
C133 C 0.8109 0.89498 0.16456 0.0
N134 N 0.80883 0.91589 0.18547 0.0
N135 N 0.81136 0.89039 0.25013 0.0
C136 C 0.809 0.91265 0.23757 0.0
H137 H 0.81511 0.86137 0.19978 0.0
Co138 Co 0.81594 0.87507 0.3124 0.0
C139 C 0.80627 0.90702 0.39895 0.0
O140 O 0.82092 0.89662 0.42682 0.0
N141 N 0.82089 0.85809 0.37522 0.0
C142 C 0.83621 0.83972 0.44163 0.0
C143 C 0.83972 0.85357 0.39957 0.0
C144 C 0.80619 0.84654 0.40397 0.0
N145 N 0.81513 0.83516 0.44423 0.0
O146 O 0.78865 0.86018 0.30321 0.0
H147 H 0.85528 0.85995 0.38866 0.0
H148 H 0.78917 0.84644 0.39573 0.0
O149 O 0.80261 0.9005 0.35214 0.0
C150 C 0.79163 0.8401 0.28555 0.0
O151 O 0.81143 0.83253 0.28202 0.0
N152 N 0.8433 0.88815 0.31508 0.0
C153 C 0.88569 0.90236 0.29938 0.0
C154 C 0.87002 0.91761 0.31792 0.0
C155 C 0.84886 0.91019 0.32536 0.0
C156 C 0.85799 0.87348 0.29488 0.0
C157 C 0.8793 0.87991 0.28852 0.0
H158 H 0.83695 0.92249 0.33701 0.0
H159 H 0.85309 0.85639 0.28461 0.0
H160 H 0.80857 0.92629 0.26581 0.0
H161 H 0.81163 0.8912 0.12342 0.0
H162 H 0.84836 0.83304 0.46755 0.0
H163 H 0.87379 0.93531 0.32515 0.0
H164 H 0.89055 0.86716 0.2752 0.0
C165 C 0.1666 0.14476 0.7057 0.0
C166 C 0.16672 0.13133 0.66199 0.0
N167 N 0.18055 0.11402 0.66969 0.0
N168 N 0.18026 0.13601 0.74104 0.0
C169 C 0.18869 0.11734 0.71789 0.0
H170 H 0.15674 0.15966 0.71201 0.0
Co171 Co 0.18322 0.14802 0.80776 0.0
C172 C 0.21356 0.1168 0.85927 0.0
O173 O 0.22592 0.13424 0.87056 0.0
N174 N 0.18581 0.16048 0.87512 0.0
C175 C 0.18455 0.16423 0.96107 0.0
C176 C 0.18133 0.14964 0.92007 0.0
C177 C 0.19146 0.18178 0.88992 0.0
N178 N 0.19092 0.18455 0.94218 0.0
O179 O 0.21022 0.16121 0.78727 0.0
H180 H 0.17605 0.13213 0.92288 0.0
H181 H 0.19557 0.19516 0.86293 0.0
O182 O 0.19661 0.11995 0.83231 0.0
C183 C 0.2061 0.18028 0.76561 0.0
O184 O 0.18601 0.18713 0.76444 0.0
N185 N 0.156 0.13688 0.82417 0.0
C186 C 0.11258 0.12563 0.82459 0.0
C187 C 0.12826 0.10868 0.81837 0.0
C188 C 0.15 0.11466 0.81839 0.0
C189 C 0.14105 0.15339 0.83241 0.0
C190 C 0.11925 0.14811 0.83337 0.0
H191 H 0.16182 0.1017 0.81012 0.0
H192 H 0.14603 0.171 0.83514 0.0
H193 H 0.19989 0.10592 0.7367 0.0
H194 H 0.15718 0.13403 0.62736 0.0
H195 H 0.18264 0.15997 1.00171 0.0
H196 H 0.12374 0.09114 0.81139 0.0
H197 H 0.10769 0.16178 0.83736 0.0
C198 C 0.83701 0.14268 0.82354 0.0
C199 C 0.83726 0.12884 0.86655 0.0
N200 N 0.82241 0.11241 0.86002 0.0
N201 N 0.82211 0.13507 0.7898 0.0
C202 C 0.8133 0.11668 0.81324 0.0
H203 H 0.84743 0.15708 0.81657 0.0
Co204 Co 0.81795 0.14792 0.72416 0.0
C205 C 0.78745 0.11598 0.67453 0.0
O206 O 0.77379 0.13271 0.66704 0.0
N207 N 0.81413 0.16109 0.65825 0.0
C208 C 0.81404 0.16589 0.57262 0.0
C209 C 0.8179 0.1508 0.61228 0.0
C210 C 0.80819 0.18254 0.64549 0.0
N211 N 0.80797 0.18596 0.59339 0.0
O212 O 0.79091 0.16016 0.74754 0.0
H213 H 0.82322 0.13337 0.60785 0.0
H214 H 0.80446 0.19551 0.6739 0.0
O215 O 0.80496 0.11983 0.69876 0.0
C216 C 0.79516 0.17781 0.77459 0.0
O217 O 0.81519 0.18472 0.77715 0.0
N218 N 0.84521 0.13761 0.70482 0.0
C219 C 0.88873 0.12688 0.70071 0.0
C220 C 0.87332 0.10973 0.70769 0.0
C221 C 0.85157 0.11546 0.70968 0.0
C222 C 0.85986 0.15434 0.69572 0.0
C223 C 0.88172 0.14932 0.69297 0.0
H224 H 0.84008 0.10234 0.71908 0.0
H225 H 0.85466 0.1719 0.69378 0.0
H226 H 0.80109 0.10611 0.79556 0.0
H227 H 0.84774 0.13062 0.89986 0.0
H228 H 0.81535 0.16215 0.53157 0.0
H229 H 0.87809 0.09221 0.71389 0.0
H230 H 0.89308 0.16313 0.68838 0.0
C231 C 0.18458 0.88089 0.32837 0.0
C232 C 0.18657 0.89646 0.36777 0.0
N233 N 0.19007 0.9171 0.34663 0.0
N234 N 0.18688 0.8915 0.28232 0.0
C235 C 0.19039 0.91363 0.29458 0.0
H236 H 0.18095 0.86301 0.33294 0.0
Co237 Co 0.18226 0.87578 0.22054 0.0
C238 C 0.18884 0.90824 0.1343 0.0
O239 O 0.17223 0.89869 0.11187 0.0
N240 N 0.17732 0.8583 0.15787 0.0
C241 C 0.16174 0.83933 0.0927 0.0
C242 C 0.15853 0.8542 0.13294 0.0
C243 C 0.19174 0.84558 0.13074 0.0
N244 N 0.18261 0.83359 0.09151 0.0
O245 O 0.20981 0.86145 0.22972 0.0
H246 H 0.14324 0.8618 0.14176 0.0
H247 H 0.20858 0.84457 0.14041 0.0
O248 O 0.19493 0.90116 0.17918 0.0
C249 C 0.20695 0.84159 0.24879 0.0
O250 O 0.18721 0.83383 0.25231 0.0
N251 N 0.15458 0.88832 0.21869 0.0
C252 C 0.11212 0.90197 0.23632 0.0
C253 C 0.12786 0.91782 0.221 0.0
C254 C 0.14904 0.91068 0.21271 0.0
C255 C 0.13988 0.87305 0.2364 0.0
C256 C 0.11853 0.87923 0.2434 0.0
H257 H 0.16101 0.92337 0.20392 0.0
H258 H 0.14479 0.85571 0.24413 0.0
H259 H 0.19206 0.92707 0.26608 0.0
H260 H 0.18517 0.89289 0.40891 0.0
H261 H 0.1495 0.83338 0.06613 0.0
H262 H 0.12414 0.93573 0.2171 0.0
H263 H 0.10726 0.86607 0.25435 0.0
H264 H 0.41266 0.42895 0.35711 0.0
H265 H 0.45082 0.43589 0.33862 0.0
H266 H 0.45012 0.38197 0.22488 0.0
H267 H 0.41219 0.37525 0.24229 0.0
H268 H 0.48495 0.40351 0.34777 0.0
H269 H 0.47738 0.43574 0.1462 0.0
H270 H 0.45502 0.43486 0.19083 0.0
H271 H 0.46329 0.40951 0.15711 0.0
C272 C 0.42064 0.41876 0.32783 0.0
C273 C 0.40946 0.40147 0.30139 0.0
C274 C 0.4424 0.42269 0.31742 0.0
C275 C 0.45318 0.40965 0.27985 0.0
C276 C 0.44202 0.39249 0.25336 0.0
H277 H 0.57748 0.37922 0.16279 0.0
H278 H 0.53926 0.38476 0.1802 0.0
C279 C 0.4204 0.38848 0.26388 0.0
C280 C 0.47637 0.41299 0.26972 0.0
H281 H 0.5123 0.42296 0.17217 0.0
C282 C 0.49099 0.40816 0.30969 0.0
C283 C 0.48413 0.41899 0.21991 0.0
C284 C 0.46914 0.42529 0.17615 0.0
C285 C 0.5132 0.408 0.30045 0.0
C286 C 0.52095 0.41327 0.25013 0.0
C287 C 0.50633 0.41889 0.21066 0.0
C288 C 0.54404 0.4115 0.23688 0.0
C289 C 0.52811 0.40105 0.34391 0.0
C290 C 0.55937 0.42517 0.26183 0.0
C291 C 0.58126 0.42193 0.25224 0.0
C292 C 0.58819 0.40502 0.21728 0.0
C293 C 0.5727 0.39213 0.19054 0.0
C294 C 0.55085 0.39536 0.20021 0.0
H295 H 0.51936 0.39292 0.37663 0.0
H296 H 0.54052 0.38901 0.32962 0.0
H297 H 0.53641 0.41637 0.35918 0.0
H298 H 0.55443 0.438 0.28959 0.0
H299 H 0.59274 0.43205 0.27379 0.0
H300 H 0.58556 0.65022 0.74903 0.0
H301 H 0.54786 0.64283 0.73142 0.0
H302 H 0.54993 0.58388 0.83128 0.0
H303 H 0.58767 0.59186 0.85139 0.0
H304 H 0.52759 0.60662 0.68805 0.0
H305 H 0.50004 0.61946 0.89167 0.0
H306 H 0.52673 0.62692 0.87069 0.0
H307 H 0.51989 0.59765 0.88247 0.0
C308 C 0.57799 0.63587 0.76805 0.0
C309 C 0.58958 0.62193 0.80257 0.0
C310 C 0.55646 0.6315 0.75735 0.0
C311 C 0.54596 0.613 0.78057 0.0
C312 C 0.55759 0.59851 0.8137 0.0
H313 H 0.41217 0.58938 0.67584 0.0
H314 H 0.45006 0.58174 0.69511 0.0
C315 C 0.57921 0.60298 0.82476 0.0
C316 C 0.52272 0.6096 0.77059 0.0
H317 H 0.47359 0.61233 0.8289 0.0
C318 C 0.51575 0.60758 0.71885 0.0
C319 C 0.50733 0.61099 0.81089 0.0
C320 C 0.51377 0.61405 0.86703 0.0
C321 C 0.49384 0.60796 0.70605 0.0
C322 C 0.47847 0.60986 0.74627 0.0
C323 C 0.48542 0.6108 0.79817 0.0
C324 C 0.45535 0.61362 0.73533 0.0
C325 C 0.48741 0.60765 0.64948 0.0
C326 C 0.44562 0.63376 0.75267 0.0
C327 C 0.42402 0.63799 0.74253 0.0
C328 C 0.41157 0.62224 0.7144 0.0
C329 C 0.42127 0.60189 0.69752 0.0
C330 C 0.44298 0.59759 0.70806 0.0
H331 H 0.5013 0.61073 0.62333 0.0
H332 H 0.48055 0.59075 0.63977 0.0
H333 H 0.47499 0.62075 0.6415 0.0
H334 H 0.45481 0.64633 0.77401 0.0
H335 H 0.41703 0.65354 0.7575 0.0
H336 H 0.08307 0.88303 0.30456 0.0
H337 H 0.04523 0.89099 0.3125 0.0
H338 H 0.05157 0.94715 0.20548 0.0
H339 H 0.08908 0.9373 0.19151 0.0
H340 H 0.02273 0.92236 0.34655 0.0
H341 H 0.00363 0.91731 0.13611 0.0
H342 H 0.02978 0.91033 0.16102 0.0
H343 H 0.02213 0.93965 0.15152 0.0
C344 C 0.07649 0.89664 0.28115 0.0
C345 C 0.08933 0.90889 0.24581 0.0
C346 C 0.05472 0.90152 0.28667 0.0
C347 C 0.04519 0.91931 0.2585 0.0
C348 C 0.05822 0.93273 0.22611 0.0
H349 H 0.90908 0.93577 0.35036 0.0
H350 H 0.9467 0.94565 0.33797 0.0
C351 C 0.07992 0.92731 0.219 0.0
C352 C 0.02158 0.9231 0.2629 0.0
H353 H 0.97522 0.92589 0.19239 0.0
C354 C 0.01234 0.92307 0.31275 0.0
C355 C 0.00792 0.92412 0.21888 0.0
C356 C 0.01632 0.92264 0.16392 0.0
C357 C 0.99001 0.92237 0.31989 0.0
C358 C 0.97634 0.92337 0.27586 0.0
C359 C 0.9856 0.92506 0.22618 0.0
C360 C 0.95268 0.91986 0.27953 0.0
C361 C 0.98156 0.91896 0.37436 0.0
C362 C 0.94289 0.90338 0.24796 0.0
C363 C 0.92108 0.89858 0.25277 0.0
C364 C 0.90846 0.90954 0.29068 0.0
C365 C 0.91809 0.92678 0.32086 0.0
C366 C 0.93985 0.93218 0.31459 0.0
H367 H 0.99415 0.91237 0.401 0.0
H368 H 0.97601 0.93554 0.39007 0.0
H369 H 0.96791 0.90683 0.37481 0.0
H370 H 0.95221 0.89376 0.22002 0.0
H371 H 0.9143 0.88599 0.22685 0.0
H372 H 0.09474 0.10058 0.74642 0.0
H373 H 0.05668 0.09737 0.72428 0.0
H374 H 0.04018 0.13638 0.86056 0.0
H375 H 0.07829 0.13998 0.88245 0.0
H376 H 0.02089 0.08064 0.7721 0.0
H377 H 0.01387 0.174 0.74491 0.0
H378 H 0.03938 0.15995 0.75314 0.0
H379 H 0.02286 0.16619 0.80872 0.0
C380 C 0.08298 0.10809 0.77224 0.0
C381 C 0.08949 0.12067 0.816 0.0
C382 C 0.06124 0.10633 0.75939 0.0
C383 C 0.04563 0.11709 0.79007 0.0
C384 C 0.052 0.12848 0.83554 0.0
H385 H 0.90762 0.10134 0.77647 0.0
H386 H 0.94589 0.09721 0.79448 0.0
C387 C 0.07374 0.13042 0.84816 0.0
C388 C 0.02283 0.11724 0.77325 0.0
H389 H 0.98145 0.15285 0.74237 0.0
C390 C 0.01226 0.09641 0.76542 0.0
C391 C 0.01174 0.13783 0.76337 0.0
C392 C 0.02258 0.16076 0.76742 0.0
C393 C 0.99073 0.09562 0.74917 0.0
C394 C 0.97936 0.11624 0.74164 0.0
C395 C 0.9901 0.13704 0.74846 0.0
C396 C 0.95622 0.11682 0.72777 0.0
C397 C 0.98052 0.07273 0.73943 0.0
C398 C 0.9492 0.12941 0.68453 0.0
C399 C 0.92727 0.132 0.67445 0.0
C400 C 0.91195 0.12198 0.70735 0.0
C401 C 0.91903 0.10885 0.74976 0.0
C402 C 0.94093 0.10645 0.76007 0.0
H403 H 0.99278 0.05954 0.73063 0.0
H404 H 0.97177 0.06727 0.77486 0.0
H405 H 0.96894 0.07349 0.70667 0.0
H406 H 0.9607 0.13764 0.65915 0.0
H407 H 0.92229 0.14216 0.64144 0.0
H408 H 0.34689 0.59948 0.9276 0.0
H409 H 0.34305 0.5658 0.98224 0.0
H410 H 0.28265 0.55038 0.90835 0.0
H411 H 0.28654 0.58409 0.8529 0.0
H412 H 0.31298 0.55405 0.05292 0.0
H413 H 0.31424 0.49065 0.89289 0.0
H414 H 0.32116 0.52015 0.88297 0.0
H415 H 0.29348 0.51168 0.88709 0.0
C416 C 0.33269 0.58906 0.92311 0.0
C417 C 0.31702 0.59452 0.88573 0.0
C418 C 0.33056 0.56972 0.95435 0.0
C419 C 0.31271 0.55533 0.94906 0.0
C420 C 0.29682 0.5609 0.91238 0.0
H421 H 0.28621 0.44827 0.18137 0.0
H422 H 0.2836 0.48274 0.12784 0.0
C423 C 0.29903 0.58021 0.88076 0.0
C424 C 0.31095 0.5346 0.98217 0.0
H425 H 0.30827 0.47651 0.97758 0.0
C426 C 0.31186 0.53709 0.03646 0.0
C427 C 0.30972 0.51244 0.9607 0.0
C428 C 0.30979 0.50846 0.90274 0.0
C429 C 0.31187 0.5181 0.06978 0.0
C430 C 0.31042 0.49595 0.04833 0.0
C431 C 0.30922 0.49348 0.99407 0.0
C432 C 0.31155 0.47505 0.08104 0.0
C433 C 0.31426 0.52194 0.1275 0.0
C434 C 0.32778 0.45897 0.07192 0.0
C435 C 0.32916 0.43923 0.10204 0.0
C436 C 0.31433 0.43503 0.14214 0.0
C437 C 0.29803 0.45113 0.15127 0.0
C438 C 0.29656 0.47086 0.12075 0.0
H439 H 0.32053 0.53923 0.13632 0.0
H440 H 0.29834 0.52024 0.14637 0.0
H441 H 0.32523 0.50916 0.145 0.0
H442 H 0.33958 0.4618 0.04167 0.0
H443 H 0.3421 0.42741 0.09437 0.0
H444 H 0.70423 0.45257 0.34197 0.0
H445 H 0.70718 0.48659 0.39623 0.0
H446 H 0.66674 0.45548 0.51185 0.0
H447 H 0.66303 0.42177 0.45774 0.0
H448 H 0.66929 0.51359 0.43837 0.0
H449 H 0.72332 0.47765 0.58974 0.0
H450 H 0.72167 0.46598 0.52485 0.0
H451 H 0.70065 0.46055 0.57084 0.0
C452 C 0.6958 0.45288 0.37867 0.0
C453 C 0.68341 0.43412 0.3951 0.0
C454 C 0.69764 0.47236 0.40981 0.0
C455 C 0.68738 0.47341 0.45826 0.0
C456 C 0.67506 0.45485 0.4749 0.0
H457 H 0.67658 0.57064 0.71071 0.0
H458 H 0.67733 0.5367 0.6553 0.0
C459 C 0.67304 0.43548 0.44373 0.0
C460 C 0.68889 0.49415 0.49092 0.0
H461 H 0.70886 0.51421 0.60578 0.0
C462 C 0.67807 0.51385 0.47479 0.0
C463 C 0.70015 0.49426 0.53861 0.0
C464 C 0.71226 0.47357 0.55717 0.0
C465 C 0.67778 0.53358 0.50572 0.0
C466 C 0.68921 0.53382 0.5534 0.0
C467 C 0.70016 0.51408 0.56927 0.0
C468 C 0.68972 0.55426 0.58766 0.0
C469 C 0.66456 0.55364 0.48778 0.0
C470 C 0.69696 0.57532 0.56867 0.0
C471 C 0.69636 0.59473 0.60013 0.0
C472 C 0.68891 0.59343 0.65162 0.0
C473 C 0.68252 0.57215 0.67133 0.0
C474 C 0.68287 0.55277 0.63961 0.0
H475 H 0.652 0.54842 0.45953 0.0
H476 H 0.65666 0.56227 0.52106 0.0
H477 H 0.67519 0.56611 0.4681 0.0
H478 H 0.70298 0.5768 0.52934 0.0
H479 H 0.70177 0.61079 0.58421 0.0
H480 H 0.73354 0.61048 0.9692 0.0
H481 H 0.73571 0.57474 0.01726 0.0
H482 H 0.69785 0.54151 0.89912 0.0
H483 H 0.69497 0.5775 0.85166 0.0
H484 H 0.68314 0.53102 0.99154 0.0
H485 H 0.77113 0.51905 0.99549 0.0
H486 H 0.76344 0.54601 0.02228 0.0
H487 H 0.75839 0.54005 0.95468 0.0
C488 C 0.72594 0.5955 0.95295 0.0
C489 C 0.71414 0.59687 0.90641 0.0
C490 C 0.7273 0.57498 0.98044 0.0
C491 C 0.71727 0.55522 0.96153 0.0
C492 C 0.7058 0.55646 0.91453 0.0
H493 H 0.73627 0.41852 0.0854 0.0
H494 H 0.73776 0.45392 0.03557 0.0
C495 C 0.70421 0.57706 0.88732 0.0
C496 C 0.71761 0.53367 0.99229 0.0
H497 H 0.75079 0.49611 0.05446 0.0
C498 C 0.69796 0.52332 1.00495 0.0
C499 C 0.73693 0.52337 1.00941 0.0
C500 C 0.75866 0.53256 0.9943 0.0
C501 C 0.69706 0.50327 0.03469 0.0
C502 C 0.71632 0.49358 0.05393 0.0
C503 C 0.73599 0.50369 0.04054 0.0
C504 C 0.71641 0.47255 0.08647 0.0
C505 C 0.67544 0.4924 0.04403 0.0
C506 C 0.70446 0.47134 0.13274 0.0
C507 C 0.7034 0.45101 0.16108 0.0
C508 C 0.7146 0.43156 0.14431 0.0
C509 C 0.72745 0.43316 0.0995 0.0
C510 C 0.72829 0.45341 0.07086 0.0
H511 H 0.66349 0.49782 1.01446 0.0
H512 H 0.67657 0.47354 0.04335 0.0
H513 H 0.66936 0.49771 0.08269 0.0
H514 H 0.69569 0.48605 0.14661 0.0
H515 H 0.69356 0.45045 0.19574 0.0
H516 H 0.30469 0.45012 0.3424 0.0
H517 H 0.30271 0.48546 0.39263 0.0
H518 H 0.26248 0.45214 0.50585 0.0
H519 H 0.2637 0.41709 0.45486 0.0
H520 H 0.24845 0.49365 0.48988 0.0
H521 H 0.33621 0.49811 0.52166 0.0
H522 H 0.32935 0.49829 0.45398 0.0
H523 H 0.32345 0.4736 0.49298 0.0
C524 C 0.29529 0.45038 0.3778 0.0
C525 C 0.28446 0.43072 0.39473 0.0
C526 C 0.29433 0.47056 0.4068 0.0
C527 C 0.28293 0.47138 0.45393 0.0
C528 C 0.27152 0.45197 0.46989 0.0
H529 H 0.30566 0.57624 0.68836 0.0
H530 H 0.30293 0.5403 0.64061 0.0
C531 C 0.27221 0.43191 0.44057 0.0
C532 C 0.28296 0.4923 0.48691 0.0
H533 H 0.31599 0.53061 0.54696 0.0
C534 C 0.26323 0.50166 0.50253 0.0
C535 C 0.30222 0.50257 0.50452 0.0
C536 C 0.32399 0.4925 0.49291 0.0
C537 C 0.26222 0.52112 0.53437 0.0
C538 C 0.28147 0.53203 0.54982 0.0
C539 C 0.3012 0.52245 0.53485 0.0
C540 C 0.28166 0.55344 0.58113 0.0
C541 C 0.24048 0.52938 0.55206 0.0
C542 C 0.27051 0.57286 0.56411 0.0
C543 C 0.27175 0.59332 0.59188 0.0
C544 C 0.28458 0.595 0.63674 0.0
C545 C 0.2956 0.57552 0.65404 0.0
C546 C 0.2941 0.55497 0.62663 0.0
H547 H 0.22851 0.51536 0.55202 0.0
H548 H 0.24122 0.53676 0.59175 0.0
H549 H 0.23467 0.54268 0.52487 0.0
H550 H 0.26131 0.57244 0.52841 0.0
H551 H 0.26331 0.60806 0.57697 0.0
H552 H 0.85122 0.09163 0.92264 0.0
H553 H 0.8449 0.05968 0.98114 0.0
H554 H 0.77833 0.05821 0.93512 0.0
H555 H 0.78474 0.09015 0.8755 0.0
H556 H 0.81912 0.05525 0.06432 0.0
H557 H 0.79553 0.99278 0.91256 0.0
H558 H 0.80712 0.02005 0.89684 0.0
H559 H 0.77927 0.01799 0.91446 0.0
C560 C 0.8352 0.08462 0.9251 0.0
C561 C 0.81847 0.09344 0.89438 0.0
C562 C 0.8316 0.06629 0.95855 0.0
C563 C 0.8112 0.05633 0.96227 0.0
C564 C 0.79434 0.06527 0.93215 0.0
H565 H 0.78757 0.95472 0.2108 0.0
H566 H 0.78584 0.98994 0.15922 0.0
C567 C 0.79799 0.08353 0.89815 0.0
C568 C 0.80792 0.03656 0.9976 0.0
H569 H 0.79459 0.98016 0.9994 0.0
C570 C 0.81363 0.03884 0.05022 0.0
C571 C 0.80092 0.01512 0.97911 0.0
C572 C 0.79553 1.01118 0.9226 0.0
C573 C 0.81309 0.02019 0.08448 0.0
C574 C 0.80613 0.99874 0.06593 0.0
C575 C 0.79983 0.99663 1.01368 0.0
C576 C 0.807 0.97778 0.09845 0.0
C577 C 0.82094 0.02342 0.13949 0.0
C578 C 0.81916 0.95914 0.08127 0.0
C579 C 0.81991 0.93906 0.11018 0.0
C580 C 0.80856 0.9371 0.15719 0.0
C581 C 0.79662 0.95585 0.17497 0.0
C582 C 0.79567 0.97597 0.14558 0.0
H583 H 0.83041 0.03933 0.14389 0.0
H584 H 0.80693 0.02449 0.16599 0.0
H585 H 0.83104 1.00883 0.15199 0.0
H586 H 0.82816 0.96012 0.04531 0.0
H587 H 0.82954 0.92508 0.09583 0.0
H588 H 0.21724 0.0894 0.65949 0.0
H589 H 0.22366 0.05777 0.59903 0.0
H590 H 0.15883 0.06398 0.54196 0.0
H591 H 0.15252 0.0956 0.6013 0.0
H592 H 0.20541 0.0172 0.59161 0.0
H593 H 0.19088 0.06263 0.40718 0.0
H594 H 0.19413 0.07741 0.46818 0.0
H595 H 0.16844 0.06571 0.45014 0.0
C596 C 0.20442 0.08403 0.6339 0.0
C597 C 0.18446 0.09521 0.63477 0.0
C598 C 0.20811 0.06602 0.59921 0.0
C599 C 0.19192 0.05884 0.56482 0.0
C600 C 0.17186 0.0697 0.56657 0.0
H601 H 0.16912 0.92783 0.43506 0.0
H602 H 0.17223 0.96269 0.48569 0.0
C603 C 0.16823 0.08776 0.60078 0.0
C604 C 0.19538 0.0392 0.52915 0.0
H605 H 0.18786 0.02162 0.40374 0.0
C606 C 0.20188 0.01828 0.55039 0.0
C607 C 0.19127 0.04059 0.47504 0.0
C608 C 0.18603 0.06287 0.44874 0.0
C609 C 0.2032 0.99854 0.51972 0.0
C610 C 0.19729 0.99955 0.46657 0.0
C611 C 0.19201 0.0207 0.44464 0.0
C612 C 0.19522 0.97864 0.43422 0.0
C613 C 0.21082 0.97676 0.54482 0.0
C614 C 0.20627 0.97634 0.38683 0.0
C615 C 0.2043 0.95635 0.35724 0.0
C616 C 0.19129 0.93834 0.37471 0.0
C617 C 0.17974 0.94109 0.42124 0.0
C618 C 0.18156 0.96103 0.45038 0.0
H619 H 0.22151 0.98031 0.57843 0.0
H620 H 0.19675 0.96716 0.55959 0.0
H621 H 0.21958 0.96583 0.51673 0.0
H622 H 0.21669 0.98984 0.37319 0.0
H623 H 0.21334 0.95472 0.32152 0.0
H624 H 0.24007 0.10744 0.94158 0.0
H625 H 0.24251 0.07194 0.9913 0.0
H626 H 0.19695 0.04047 0.88776 0.0
H627 H 0.19425 0.07592 0.83802 0.0
H628 H 0.20493 0.04915 0.03978 0.0
H629 H 0.2487 0.99439 0.89953 0.0
H630 H 0.24971 0.02513 0.89718 0.0
H631 H 0.2266 1.01028 0.87291 0.0
C632 C 0.23081 0.09287 0.9288 0.0
C633 C 0.21698 0.09455 0.88566 0.0
C634 C 0.23217 0.07262 0.95747 0.0
C635 C 0.22002 0.05352 0.94309 0.0
C636 C 0.20665 0.05493 0.89924 0.0
H637 H 0.18291 0.92176 0.03473 0.0
H638 H 0.19382 0.95711 0.99385 0.0
C639 C 0.20509 0.07524 0.8709 0.0
C640 C 0.2203 0.0325 0.97536 0.0
H641 H 0.23183 0.9757 0.97061 0.0
C642 C 0.21109 0.03311 0.02513 0.0
C643 C 0.2284 1.01166 0.95614 0.0
C644 C 0.23909 1.01022 0.90368 0.0
C645 C 0.20859 1.01317 0.05496 0.0
C646 C 0.21603 0.99211 0.03499 0.0
C647 C 0.22615 0.99178 0.98611 0.0
C648 C 0.21107 0.96993 0.0607 0.0
C649 C 0.19686 0.01466 0.10616 0.0
C650 C 0.21754 0.96487 0.11193 0.0
C651 C 0.21112 0.94443 0.13596 0.0
C652 C 0.19821 0.92872 0.10897 0.0
C653 C 0.19266 0.9335 0.05705 0.0
C654 C 0.19897 0.95376 0.03336 0.0
H655 H 0.18845 0.03121 0.11093 0.0
H656 H 0.18489 1.00075 0.10971 0.0
H657 H 0.20855 1.01289 0.13844 0.0
H658 H 0.22729 0.97683 0.13355 0.0
H659 H 0.2157 0.94126 0.17592 0.0
H660 H 0.75469 0.10331 0.60899 0.0
H661 H 0.75222 0.06858 0.55648 0.0
H662 H 0.81115 0.04411 0.62413 0.0
H663 H 0.81376 0.07859 0.67669 0.0
H664 H 0.80972 0.04326 0.51236 0.0
H665 H 0.73833 1.00206 0.60198 0.0
H666 H 0.73559 0.03142 0.58309 0.0
H667 H 0.75356 0.02392 0.63483 0.0
C668 C 0.76697 0.0904 0.61333 0.0
C669 C 0.78447 0.09386 0.64713 0.0
C670 C 0.76551 0.07053 0.58325 0.0
C671 C 0.78147 0.05371 0.58643 0.0
C672 C 0.79866 0.05687 0.62095 0.0
H673 H 0.79997 0.91649 0.50061 0.0
H674 H 0.79062 0.95298 0.53965 0.0
C675 C 0.8001 0.07663 0.65113 0.0
C676 C 0.78095 0.03321 0.55241 0.0
H677 H 0.75462 0.98293 0.53182 0.0
C678 C 0.79754 0.03017 0.51614 0.0
C679 C 0.76506 0.01615 0.55751 0.0
C680 C 0.74716 0.01833 0.59662 0.0
C681 C 0.79901 1.0103 0.48584 0.0
C682 C 0.78335 0.99303 0.49157 0.0
C683 C 0.76645 0.9963 0.52698 0.0
C684 C 0.78592 0.97035 0.46643 0.0
C685 C 0.81791 1.00745 0.44974 0.0
C686 C 0.78562 0.96768 0.41205 0.0
C687 C 0.79086 0.9466 0.3894 0.0
C688 C 0.79664 0.92801 0.42091 0.0
C689 C 0.79574 0.93052 0.47524 0.0
C690 C 0.79034 0.95138 0.49769 0.0
H691 H 0.83024 0.02088 0.45556 0.0
H692 H 0.82555 0.99055 0.45561 0.0
H693 H 0.81227 1.00834 0.40888 0.0
H694 H 0.782 0.98205 0.38716 0.0
H695 H 0.7915 0.94522 0.34745 0.0
H696 H 0.28191 0.30126 0.27888 0.0
H697 H 0.2599 0.2779 0.22119 0.0
H698 H 0.23585 0.33849 0.14653 0.0
H699 H 0.25768 0.36212 0.20554 0.0
H700 H 0.2047 0.30137 0.1564 0.0
H701 H 0.28176 0.27374 0.06959 0.0
H702 H 0.28062 0.26935 0.13858 0.0
H703 H 0.27977 0.29783 0.11286 0.0
C704 C 0.2714 0.30963 0.25127 0.0
C705 C 0.27147 0.33344 0.24652 0.0
C706 C 0.25896 0.29627 0.21809 0.0
C707 C 0.24667 0.30643 0.17873 0.0
C708 C 0.24534 0.33032 0.17648 0.0
H709 H 0.21561 0.22043 0.91132 0.0
H710 H 0.22663 0.25304 0.96371 0.0
C711 C 0.25766 0.3438 0.21037 0.0
C712 C 0.23713 0.2919 0.13748 0.0
H713 H 0.25088 0.25194 0.04706 0.0
C714 C 0.21475 0.29073 0.13204 0.0
C715 C 0.25027 0.27841 0.1048 0.0
C716 C 0.27444 0.28002 0.10626 0.0
C717 C 0.20516 0.27555 0.09653 0.0
C718 C 0.21833 0.26089 0.0665 0.0
C719 C 0.24072 0.26294 0.07031 0.0
C720 C 0.20947 0.24251 0.03277 0.0
C721 C 0.18105 0.27543 0.09156 0.0
C722 C 0.19602 0.22571 0.05381 0.0
C723 C 0.18948 0.20712 0.02372 0.0
C724 C 0.19648 0.20464 0.97196 0.0
C725 C 0.20966 0.22175 0.95069 0.0
C726 C 0.21609 0.24042 0.98077 0.0
H727 H 0.17412 0.29222 0.10225 0.0
H728 H 0.17593 0.27112 0.0514 0.0
H729 H 0.1743 0.26254 0.11852 0.0
H730 H 0.19109 0.22654 0.09411 0.0
H731 H 0.17912 0.19457 0.04147 0.0
H732 H 0.73867 0.66853 0.71728 0.0
H733 H 0.76004 0.69357 0.661 0.0
H734 H 0.73878 0.75188 0.74913 0.0
H735 H 0.71689 0.72702 0.80371 0.0
H736 H 0.73044 0.75734 0.64932 0.0
H737 H 0.81502 0.72945 0.66999 0.0
H738 H 0.79697 0.70679 0.65327 0.0
H739 H 0.79432 0.72089 0.715 0.0
C740 C 0.73931 0.68659 0.72576 0.0
C741 C 0.72635 0.6959 0.76499 0.0
C742 C 0.75147 0.70092 0.69351 0.0
C743 C 0.75109 0.72468 0.7008 0.0
C744 C 0.7393 0.73367 0.74253 0.0
H745 H 0.82643 0.828 0.54434 0.0
H746 H 0.8105 0.80085 0.60515 0.0
C747 C 0.72694 0.71945 0.774 0.0
C748 C 0.76072 0.74048 0.66197 0.0
H749 H 0.80736 0.75507 0.60065 0.0
C750 C 0.7473 0.75688 0.6389 0.0
C751 C 0.78271 0.73997 0.64835 0.0
C752 C 0.79816 0.72348 0.67327 0.0
C753 C 0.75521 0.77283 0.60307 0.0
C754 C 0.77709 0.77201 0.58854 0.0
C755 C 0.79054 0.75559 0.61145 0.0
C756 C 0.78651 0.78858 0.55116 0.0
C757 C 0.74014 0.7908 0.58238 0.0
C758 C 0.77835 0.7908 0.50043 0.0
C759 C 0.78731 0.80654 0.46573 0.0
C760 C 0.80485 0.82006 0.48079 0.0
C761 C 0.81302 0.81772 0.53149 0.0
C762 C 0.80394 0.80219 0.56626 0.0
H763 H 0.7259 0.793 0.60789 0.0
H764 H 0.74835 0.80749 0.57855 0.0
H765 H 0.73431 0.78558 0.5434 0.0
H766 H 0.76523 0.78014 0.4874 0.0
H767 H 0.78094 0.80764 0.42665 0.0
H768 H 0.22497 0.82986 0.06577 0.0
H769 H 0.24111 0.80211 1.00624 0.0
H770 H 0.17897 0.77219 0.97931 0.0
H771 H 0.16281 0.79926 0.03923 0.0
H772 H 0.23856 0.75164 1.01017 0.0
H773 H 0.2026 0.78905 0.83157 0.0
H774 H 0.20494 0.80476 0.89165 0.0
H775 H 0.18443 0.78354 0.8844 0.0
C776 C 0.21473 0.8173 0.04758 0.0
C777 C 0.19248 0.81712 0.05707 0.0
C778 C 0.22399 0.80149 1.0134 0.0
C779 C 0.21117 0.78532 0.98781 0.0
C780 C 0.1891 0.78479 0.99789 0.0
H781 H 0.25891 0.66715 0.80965 0.0
H782 H 0.23622 0.69109 0.86604 0.0
C783 C 0.17986 0.80045 0.0321 0.0
C784 C 0.22077 0.76897 0.9504 0.0
H785 H 0.22218 0.7549 0.82151 0.0
C786 C 0.23493 0.75226 0.96896 0.0
C787 C 0.21599 0.76987 0.89666 0.0
C788 C 0.20129 0.78784 0.87455 0.0
C789 C 0.24452 0.73646 0.93508 0.0
C790 C 0.23975 0.73736 0.88134 0.0
C791 C 0.22554 0.75403 0.86283 0.0
C792 C 0.25122 0.7228 0.84322 0.0
C793 C 0.26023 0.71934 0.95665 0.0
C794 C 0.26649 0.73278 0.81041 0.0
C795 C 0.27936 0.71924 0.77861 0.0
C796 C 0.27707 0.69544 0.77836 0.0
C797 C 0.26086 0.68547 0.80875 0.0
C798 C 0.24807 0.69909 0.84127 0.0
H799 H 0.26425 0.72275 0.998 0.0
H800 H 0.25321 0.70202 0.95388 0.0
H801 H 0.27528 0.71945 0.93354 0.0
H802 H 0.26912 0.75102 0.81114 0.0
H803 H 0.29171 0.72738 0.75551 0.0
H804 H 0.71402 0.30079 0.26192 0.0
H805 H 0.73591 0.27832 0.32165 0.0
H806 H 0.76066 0.33999 0.39007 0.0
H807 H 0.73895 0.36273 0.32897 0.0
H808 H 0.79154 0.3035 0.38307 0.0
H809 H 0.71543 0.2755 0.47356 0.0
H810 H 0.71613 0.27007 0.40495 0.0
H811 H 0.71677 0.29895 0.42834 0.0
C812 C 0.72458 0.30958 0.28875 0.0
C813 C 0.72477 0.33346 0.29104 0.0
C814 C 0.73694 0.29673 0.32312 0.0
C815 C 0.74944 0.30747 0.36125 0.0
C816 C 0.75098 0.33137 0.36117 0.0
H817 H 0.78322 0.22123 0.62741 0.0
H818 H 0.77143 0.25427 0.57707 0.0
C819 C 0.73872 0.34433 0.32609 0.0
C820 C 0.75936 0.29355 0.40312 0.0
H821 H 0.74667 0.25378 0.49489 0.0
C822 C 0.78177 0.29282 0.40802 0.0
C823 C 0.74659 0.28008 0.43668 0.0
C824 C 0.72239 0.28133 0.4361 0.0
C825 C 0.79176 0.27797 0.44357 0.0
C826 C 0.77898 0.26314 0.47415 0.0
C827 C 0.75655 0.26488 0.47117 0.0
C828 C 0.78831 0.24467 0.50688 0.0
C829 C 0.8159 0.27832 0.44784 0.0
C830 C 0.80185 0.22828 0.48454 0.0
C831 C 0.8088 0.20951 0.5134 0.0
C832 C 0.80211 0.20638 0.5652 0.0
C833 C 0.78888 0.22308 0.5879 0.0
C834 C 0.78203 0.24198 0.55901 0.0
H835 H 0.82243 0.29534 0.43762 0.0
H836 H 0.82132 0.27382 0.48765 0.0
H837 H 0.82276 0.26582 0.42009 0.0
H838 H 0.80652 0.22956 0.44411 0.0
H839 H 0.81921 0.1973 0.49462 0.0
H840 H 0.66354 0.70102 0.03977 0.0
H841 H 0.67481 0.73138 0.09898 0.0
H842 H 0.73294 0.7402 1.01019 0.0
H843 H 0.72143 0.71029 0.95028 0.0
H844 H 0.70748 0.73283 0.16173 0.0
H845 H 0.71577 0.80518 0.02645 0.0
H846 H 0.7026 0.77903 1.00797 0.0
H847 H 0.73141 0.78143 1.00466 0.0
C848 C 0.67864 0.70958 0.03269 0.0
C849 C 0.69157 0.70329 0.99025 0.0
C850 C 0.68505 0.72699 0.06646 0.0
C851 C 0.70457 0.73846 0.05871 0.0
C852 C 0.71748 0.73221 1.01621 0.0
H853 H 0.79199 0.79448 0.27202 0.0
H854 H 0.76694 0.77148 0.2222 0.0
C855 C 0.71095 0.71499 0.98206 0.0
C856 C 0.71221 0.75567 0.09714 0.0
H857 H 0.73537 0.80824 0.10743 0.0
C858 C 0.71322 0.74946 0.14985 0.0
C859 C 0.71928 0.77766 0.08227 0.0
C860 C 0.71698 0.7863 0.02732 0.0
C861 C 0.72227 0.76399 0.18729 0.0
C862 C 0.73109 0.7851 0.17157 0.0
C863 C 0.72888 0.79194 0.11953 0.0
C864 C 0.74473 0.79902 0.20691 0.0
C865 C 0.72256 0.75637 0.24329 0.0
C866 C 0.74072 0.82233 0.21511 0.0
C867 C 0.75522 0.8357 0.24377 0.0
C868 C 0.77409 0.82596 0.26391 0.0
C869 C 0.77759 0.8025 0.25713 0.0
C870 C 0.76316 0.78924 0.22887 0.0
H871 H 0.70879 0.74495 0.25186 0.0
H872 H 0.7375 0.74661 0.2508 0.0
H873 H 0.72201 0.77108 0.27035 0.0
H874 H 0.72668 0.8303 0.19818 0.0
H875 H 0.75224 0.85378 0.24784 0.0
H876 H 0.24636 0.16812 0.72973 0.0
H877 H 0.27109 0.19218 0.6788 0.0
H878 H 0.22708 0.24853 0.69255 0.0
H879 H 0.20281 0.22506 0.74323 0.0
H880 H 0.26232 0.21359 0.58373 0.0
H881 H 0.28371 0.278 0.73104 0.0
H882 H 0.27188 0.25095 0.74809 0.0
H883 H 0.2552 0.27429 0.72727 0.0
C884 C 0.24227 0.18578 0.72272 0.0
C885 C 0.22265 0.19469 0.74055 0.0
C886 C 0.25631 0.19945 0.69342 0.0
C887 C 0.25107 0.22227 0.68241 0.0
C888 C 0.23173 0.23117 0.70136 0.0
H889 H 0.27541 0.31341 0.43017 0.0
H890 H 0.26402 0.28234 0.48723 0.0
C891 C 0.21777 0.21762 0.73013 0.0
C892 C 0.26474 0.23673 0.64839 0.0
H893 H 0.28646 0.28999 0.64139 0.0
C894 C 0.268 0.23012 0.59653 0.0
C895 C 0.27246 0.25817 0.66514 0.0
C896 C 0.27084 0.26566 0.7211 0.0
C897 C 0.2776 0.24493 0.56033 0.0
C898 C 0.28365 0.26714 0.57614 0.0
C899 C 0.28155 0.27316 0.62877 0.0
C900 C 0.29141 0.28477 0.53886 0.0
C901 C 0.28102 0.23661 0.50549 0.0
C902 C 0.31037 0.29691 0.54913 0.0
C903 C 0.31667 0.31494 0.51704 0.0
C904 C 0.30422 0.32123 0.47375 0.0
C905 C 0.2855 0.30877 0.46275 0.0
C906 C 0.27905 0.29089 0.49526 0.0
H907 H 0.2828 0.21779 0.50434 0.0
H908 H 0.26683 0.24113 0.48156 0.0
H909 H 0.29548 0.24444 0.48769 0.0
H910 H 0.32019 0.29262 0.58249 0.0
H911 H 0.33129 0.32404 0.52623 0.0
H912 H 0.80086 0.19105 0.87327 0.0
H913 H 0.77819 0.21612 0.92495 0.0
H914 H 0.73133 0.21749 0.80146 0.0
H915 H 0.75403 0.19156 0.74972 0.0
H916 H 0.76892 0.25916 0.89321 0.0
H917 H 0.69348 0.21136 0.93112 0.0
H918 H 0.71783 0.19747 0.91001 0.0
H919 H 0.70178 0.21309 0.8643 0.0
C920 C 0.78548 0.19626 0.85758 0.0
C921 C 0.77917 0.18942 0.80757 0.0
C922 C 0.77255 0.21062 0.88713 0.0
C923 C 0.75305 0.21876 0.86724 0.0
C924 C 0.74615 0.21116 0.81804 0.0
H925 H 0.67401 0.32857 0.99729 0.0
H926 H 0.68811 0.29824 0.94157 0.0
C927 C 0.75909 0.19638 0.78848 0.0
C928 C 0.74148 0.23689 0.89642 0.0
H929 H 0.69514 0.24934 0.96178 0.0
C930 C 0.75276 0.25697 0.90808 0.0
C931 C 0.72033 0.23418 0.91548 0.0
C932 C 0.70762 0.21282 0.90505 0.0
C933 C 0.74373 0.27415 0.93899 0.0
C934 C 0.72287 0.27116 0.9594 0.0
C935 C 0.71122 0.25147 0.94643 0.0
C936 C 0.71323 0.28829 0.99491 0.0
C937 C 0.75662 0.2954 0.94959 0.0
C938 C 0.7224 0.29246 0.04385 0.0
C939 C 0.71446 0.30985 0.07571 0.0
C940 C 0.69715 0.32346 0.05926 0.0
C941 C 0.68757 0.31871 1.01084 0.0
C942 C 0.69549 0.30124 0.97908 0.0
H943 H 0.77001 0.29747 0.92146 0.0
H944 H 0.74628 0.31079 0.94787 0.0
H945 H 0.76362 0.29435 0.98919 0.0
H946 H 0.736 0.28251 0.05701 0.0
H947 H 0.72233 0.31305 0.11248 0.0
H948 H 0.20841 0.79587 0.25881 0.0
H949 H 0.23206 0.77368 0.31495 0.0
H950 H 0.26795 0.83424 0.35213 0.0
H951 H 0.24411 0.85681 0.29542 0.0
H952 H 0.2903 0.78276 0.32777 0.0
H953 H 0.22927 0.79249 0.48409 0.0
H954 H 0.21961 0.78744 0.41907 0.0
H955 H 0.23308 0.81364 0.43385 0.0
C956 C 0.22165 0.80443 0.27788 0.0
C957 C 0.22439 0.82809 0.27283 0.0
C958 C 0.23512 0.79171 0.31 0.0
C959 C 0.25158 0.80236 0.33795 0.0
C960 C 0.2553 0.82575 0.33072 0.0
H961 H 0.30518 0.72749 0.60496 0.0
H962 H 0.29378 0.75909 0.54922 0.0
C963 C 0.24179 0.83857 0.29812 0.0
C964 C 0.26332 0.78906 0.37784 0.0
H965 H 0.25579 0.76412 0.49635 0.0
C966 C 0.28301 0.77898 0.36505 0.0
C967 C 0.25381 0.78429 0.42652 0.0
C968 C 0.23282 0.79508 0.44219 0.0
C969 C 0.29296 0.76337 0.3989 0.0
C970 C 0.28272 0.75743 0.44619 0.0
C971 C 0.2636 0.76852 0.46006 0.0
C972 C 0.2906 0.73856 0.47982 0.0
C973 C 0.31421 0.75315 0.38334 0.0
C974 C 0.29222 0.71642 0.45973 0.0
C975 C 0.29854 0.69832 0.4915 0.0
C976 C 0.30331 0.70183 0.54441 0.0
C977 C 0.30151 0.72404 0.56462 0.0
C978 C 0.29513 0.74219 0.53268 0.0
H979 H 0.32306 0.76452 0.35627 0.0
H980 H 0.32446 0.74979 0.41783 0.0
H981 H 0.31134 0.73678 0.36301 0.0
H982 H 0.28815 0.71302 0.41954 0.0
H983 H 0.29923 0.68147 0.47464 0.0
loop_
_geom_bond_atom_site_label_1
_geom_bond_atom_site_label_2
_geom_bond_distance
_geom_bond_site_symmetry_2
_ccdc_geom_bond_type
C0 C1 1.351 . S
C0 N3 1.368 . S
C0 H5 0.931 . S
C1 C0 1.351 . S
C1 N2 1.373 . S
C1 H29 0.930 . S
N2 C1 1.373 . S
N2 C4 1.340 . S
N3 C0 1.368 . S
N3 C4 1.321 . S
N3 Co6 2.135 . S
C4 N2 1.340 . S
C4 N3 1.321 . S
C4 H28 0.930 . S
H5 C0 0.931 . S
Co6 N3 2.135 . S
Co6 N9 2.121 . S
Co6 O14 2.055 . S
Co6 O17 2.039 . S
Co6 N20 2.140 . S
C7 O8 1.227 . S
C7 O17 1.265 . S
O8 C7 1.227 . S
N9 Co6 2.121 . S
N9 C11 1.375 . S
N9 C12 1.313 . S
C10 C11 1.338 . S
C10 N13 1.377 . S
C10 H30 0.930 . S
C11 N9 1.375 . S
C11 C10 1.338 . S
C11 H15 0.931 . S
C12 N9 1.313 . S
C12 N13 1.344 . S
C12 H16 0.930 . S
N13 C10 1.377 . S
N13 C12 1.344 . S
O14 Co6 2.055 . S
O14 C18 1.253 . S
H15 C11 0.931 . S
H16 C12 0.930 . S
O17 Co6 2.039 . S
O17 C7 1.265 . S
C18 O14 1.253 . S
C18 O19 1.227 . S
O19 C18 1.227 . S
N20 Co6 2.140 . S
N20 C23 1.346 . S
N20 C24 1.345 . S
C21 C22 1.387 . S
C21 C25 1.391 . S
C22 C21 1.387 . S
C22 C23 1.369 . S
C22 H31 0.929 . S
C23 N20 1.346 . S
C23 C22 1.369 . S
C23 H26 0.928 . S
C24 N20 1.345 . S
C24 C25 1.371 . S
C24 H27 0.931 . S
C25 C21 1.391 . S
C25 C24 1.371 . S
C25 H32 0.930 . S
H26 C23 0.928 . S
H27 C24 0.931 . S
H28 C4 0.930 . S
H29 C1 0.930 . S
H30 C10 0.930 . S
H31 C22 0.929 . S
H32 C25 0.930 . S
C33 C34 1.351 . S
C33 N36 1.368 . S
C33 H38 0.931 . S
C34 C33 1.351 . S
C34 N35 1.373 . S
C34 H62 0.930 . S
N35 C34 1.373 . S
N35 C37 1.340 . S
N36 C33 1.368 . S
N36 C37 1.321 . S
N36 Co39 2.135 . S
C37 N35 1.340 . S
C37 N36 1.321 . S
C37 H61 0.930 . S
H38 C33 0.931 . S
Co39 N36 2.135 . S
Co39 N42 2.121 . S
Co39 O47 2.055 . S
Co39 O50 2.039 . S
Co39 N53 2.140 . S
C40 O41 1.227 . S
C40 O50 1.265 . S
O41 C40 1.227 . S
N42 Co39 2.121 . S
N42 C44 1.375 . S
N42 C45 1.313 . S
C43 C44 1.338 . S
C43 N46 1.377 . S
C43 H63 0.930 . S
C44 N42 1.375 . S
C44 C43 1.338 . S
C44 H48 0.931 . S
C45 N42 1.313 . S
C45 N46 1.344 . S
C45 H49 0.930 . S
N46 C43 1.377 . S
N46 C45 1.344 . S
O47 Co39 2.055 . S
O47 C51 1.253 . S
H48 C44 0.931 . S
H49 C45 0.930 . S
O50 Co39 2.039 . S
O50 C40 1.265 . S
C51 O47 1.253 . S
C51 O52 1.227 . S
O52 C51 1.227 . S
N53 Co39 2.140 . S
N53 C56 1.346 . S
N53 C57 1.345 . S
C54 C55 1.387 . S
C54 C58 1.391 . S
C55 C54 1.387 . S
C55 C56 1.369 . S
C55 H64 0.929 . S
C56 N53 1.346 . S
C56 C55 1.369 . S
C56 H59 0.928 . S
C57 N53 1.345 . S
C57 C58 1.371 . S
C57 H60 0.931 . S
C58 C54 1.391 . S
C58 C57 1.371 . S
C58 H65 0.930 . S
H59 C56 0.928 . S
H60 C57 0.931 . S
H61 C37 0.930 . S
H62 C34 0.930 . S
H63 C43 0.930 . S
H64 C55 0.929 . S
H65 C58 0.930 . S
C66 C67 1.351 . S
C66 N69 1.368 . S
C66 H71 0.931 . S
C67 C66 1.351 . S
C67 N68 1.373 . S
C67 H95 0.930 . S
N68 C67 1.373 . S
N68 C70 1.340 . S
N69 C66 1.368 . S
N69 C70 1.321 . S
N69 Co72 2.135 . S
C70 N68 1.340 . S
C70 N69 1.321 . S
C70 H94 0.930 . S
H71 C66 0.931 . S
Co72 N69 2.135 . S
Co72 N75 2.121 . S
Co72 O80 2.055 . S
Co72 O83 2.039 . S
Co72 N86 2.140 . S
C73 O74 1.227 . S
C73 O83 1.265 . S
O74 C73 1.227 . S
N75 Co72 2.121 . S
N75 C77 1.375 . S
N75 C78 1.313 . S
C76 C77 1.338 . S
C76 N79 1.377 . S
C76 H96 0.930 . S
C77 N75 1.375 . S
C77 C76 1.338 . S
C77 H81 0.931 . S
C78 N75 1.313 . S
C78 N79 1.344 . S
C78 H82 0.930 . S
N79 C76 1.377 . S
N79 C78 1.344 . S
O80 Co72 2.055 . S
O80 C84 1.253 . S
H81 C77 0.931 . S
H82 C78 0.930 . S
O83 Co72 2.039 . S
O83 C73 1.265 . S
C84 O80 1.253 . S
C84 O85 1.227 . S
O85 C84 1.227 . S
N86 Co72 2.140 . S
N86 C89 1.346 . S
N86 C90 1.345 . S
C87 C88 1.387 . S
C87 C91 1.391 . S
C88 C87 1.387 . S
C88 C89 1.369 . S
C88 H97 0.929 . S
C89 N86 1.346 . S
C89 C88 1.369 . S
C89 H92 0.928 . S
C90 N86 1.345 . S
C90 C91 1.371 . S
C90 H93 0.931 . S
C91 C87 1.391 . S
C91 C90 1.371 . S
C91 H98 0.930 . S
H92 C89 0.928 . S
H93 C90 0.931 . S
H94 C70 0.930 . S
H95 C67 0.930 . S
H96 C76 0.930 . S
H97 C88 0.929 . S
H98 C91 0.930 . S
C99 C100 1.351 . S
C99 N102 1.368 . S
C99 H104 0.931 . S
C100 C99 1.351 . S
C100 N101 1.373 . S
C100 H128 0.930 . S
N101 C100 1.373 . S
N101 C103 1.340 . S
N102 C99 1.368 . S
N102 C103 1.321 . S
N102 Co105 2.135 . S
C103 N101 1.340 . S
C103 N102 1.321 . S
C103 H127 0.930 . S
H104 C99 0.931 . S
Co105 N102 2.135 . S
Co105 N108 2.121 . S
Co105 O113 2.055 . S
Co105 O116 2.039 . S
Co105 N119 2.140 . S
C106 O107 1.227 . S
C106 O116 1.265 . S
O107 C106 1.227 . S
N108 Co105 2.121 . S
N108 C110 1.375 . S
N108 C111 1.313 . S
C109 C110 1.338 . S
C109 N112 1.377 . S
C109 H129 0.930 . S
C110 N108 1.375 . S
C110 C109 1.338 . S
C110 H114 0.931 . S
C111 N108 1.313 . S
C111 N112 1.344 . S
C111 H115 0.930 . S
N112 C109 1.377 . S
N112 C111 1.344 . S
O113 Co105 2.055 . S
O113 C117 1.253 . S
H114 C110 0.931 . S
H115 C111 0.930 . S
O116 Co105 2.039 . S
O116 C106 1.265 . S
C117 O113 1.253 . S
C117 O118 1.227 . S
O118 C117 1.227 . S
N119 Co105 2.140 . S
N119 C122 1.346 . S
N119 C123 1.345 . S
C120 C121 1.387 . S
C120 C124 1.391 . S
C121 C120 1.387 . S
C121 C122 1.369 . S
C121 H130 0.929 . S
C122 N119 1.346 . S
C122 C121 1.369 . S
C122 H125 0.928 . S
C123 N119 1.345 . S
C123 C124 1.371 . S
C123 H126 0.931 . S
C124 C120 1.391 . S
C124 C123 1.371 . S
C124 H131 0.930 . S
H125 C122 0.928 . S
H126 C123 0.931 . S
H127 C103 0.930 . S
H128 C100 0.930 . S
H129 C109 0.930 . S
H130 C121 0.929 . S
H131 C124 0.930 . S
C132 C133 1.351 . S
C132 N135 1.368 . S
C132 H137 0.931 . S
C133 C132 1.351 . S
C133 N134 1.373 . S
C133 H161 0.930 . S
N134 C133 1.373 . S
N134 C136 1.340 . S
N135 C132 1.368 . S
N135 C136 1.321 . S
N135 Co138 2.135 . S
C136 N134 1.340 . S
C136 N135 1.321 . S
C136 H160 0.930 . S
H137 C132 0.931 . S
Co138 N135 2.135 . S
Co138 N141 2.121 . S
Co138 O146 2.055 . S
Co138 O149 2.039 . S
Co138 N152 2.140 . S
C139 O140 1.227 . S
C139 O149 1.265 . S
O140 C139 1.227 . S
N141 Co138 2.121 . S
N141 C143 1.375 . S
N141 C144 1.313 . S
C142 C143 1.338 . S
C142 N145 1.377 . S
C142 H162 0.930 . S
C143 N141 1.375 . S
C143 C142 1.338 . S
C143 H147 0.931 . S
C144 N141 1.313 . S
C144 N145 1.344 . S
C144 H148 0.930 . S
N145 C142 1.377 . S
N145 C144 1.344 . S
O146 Co138 2.055 . S
O146 C150 1.253 . S
H147 C143 0.931 . S
H148 C144 0.930 . S
O149 Co138 2.039 . S
O149 C139 1.265 . S
C150 O146 1.253 . S
C150 O151 1.227 . S
O151 C150 1.227 . S
N152 Co138 2.140 . S
N152 C155 1.346 . S
N152 C156 1.345 . S
C153 C154 1.387 . S
C153 C157 1.391 . S
C154 C153 1.387 . S
C154 C155 1.369 . S
C154 H163 0.929 . S
C155 N152 1.346 . S
C155 C154 1.369 . S
C155 H158 0.928 . S
C156 N152 1.345 . S
C156 C157 1.371 . S
C156 H159 0.931 . S
C157 C153 1.391 . S
C157 C156 1.371 . S
C157 H164 0.930 . S
H158 C155 0.928 . S
H159 C156 0.931 . S
H160 C136 0.930 . S
H161 C133 0.930 . S
H162 C142 0.930 . S
H163 C154 0.929 . S
H164 C157 0.930 . S
C165 C166 1.351 . S
C165 N168 1.368 . S
C165 H170 0.931 . S
C166 C165 1.351 . S
C166 N167 1.373 . S
C166 H194 0.930 . S
N167 C166 1.373 . S
N167 C169 1.340 . S
N168 C165 1.368 . S
N168 C169 1.321 . S
N168 Co171 2.135 . S
C169 N167 1.340 . S
C169 N168 1.321 . S
C169 H193 0.930 . S
H170 C165 0.931 . S
Co171 N168 2.135 . S
Co171 N174 2.121 . S
Co171 O179 2.055 . S
Co171 O182 2.039 . S
Co171 N185 2.140 . S
C172 O173 1.227 . S
C172 O182 1.265 . S
O173 C172 1.227 . S
N174 Co171 2.121 . S
N174 C176 1.375 . S
N174 C177 1.313 . S
C175 C176 1.338 . S
C175 N178 1.377 . S
C175 H195 0.930 . S
C176 N174 1.375 . S
C176 C175 1.338 . S
C176 H180 0.931 . S
C177 N174 1.313 . S
C177 N178 1.344 . S
C177 H181 0.930 . S
N178 C175 1.377 . S
N178 C177 1.344 . S
O179 Co171 2.055 . S
O179 C183 1.253 . S
H180 C176 0.931 . S
H181 C177 0.930 . S
O182 Co171 2.039 . S
O182 C172 1.265 . S
C183 O179 1.253 . S
C183 O184 1.227 . S
O184 C183 1.227 . S
N185 Co171 2.140 . S
N185 C188 1.346 . S
N185 C189 1.345 . S
C186 C187 1.387 . S
C186 C190 1.391 . S
C187 C186 1.387 . S
C187 C188 1.369 . S
C187 H196 0.929 . S
C188 N185 1.346 . S
C188 C187 1.369 . S
C188 H191 0.928 . S
C189 N185 1.345 . S
C189 C190 1.371 . S
C189 H192 0.931 . S
C190 C186 1.391 . S
C190 C189 1.371 . S
C190 H197 0.930 . S
H191 C188 0.928 . S
H192 C189 0.931 . S
H193 C169 0.930 . S
H194 C166 0.930 . S
H195 C175 0.930 . S
H196 C187 0.929 . S
H197 C190 0.930 . S
C198 C199 1.351 . S
C198 N201 1.368 . S
C198 H203 0.931 . S
C199 C198 1.351 . S
C199 N200 1.373 . S
C199 H227 0.930 . S
N200 C199 1.373 . S
N200 C202 1.340 . S
N201 C198 1.368 . S
N201 C202 1.321 . S
N201 Co204 2.135 . S
C202 N200 1.340 . S
C202 N201 1.321 . S
C202 H226 0.930 . S
H203 C198 0.931 . S
Co204 N201 2.135 . S
Co204 N207 2.121 . S
Co204 O212 2.055 . S
Co204 O215 2.039 . S
Co204 N218 2.140 . S
C205 O206 1.227 . S
C205 O215 1.265 . S
O206 C205 1.227 . S
N207 Co204 2.121 . S
N207 C209 1.375 . S
N207 C210 1.313 . S
C208 C209 1.338 . S
C208 N211 1.377 . S
C208 H228 0.930 . S
C209 N207 1.375 . S
C209 C208 1.338 . S
C209 H213 0.931 . S
C210 N207 1.313 . S
C210 N211 1.344 . S
C210 H214 0.930 . S
N211 C208 1.377 . S
N211 C210 1.344 . S
O212 Co204 2.055 . S
O212 C216 1.253 . S
H213 C209 0.931 . S
H214 C210 0.930 . S
O215 Co204 2.039 . S
O215 C205 1.265 . S
C216 O212 1.253 . S
C216 O217 1.227 . S
O217 C216 1.227 . S
N218 Co204 2.140 . S
N218 C221 1.346 . S
N218 C222 1.345 . S
C219 C220 1.387 . S
C219 C223 1.391 . S
C220 C219 1.387 . S
C220 C221 1.369 . S
C220 H229 0.929 . S
C221 N218 1.346 . S
C221 C220 1.369 . S
C221 H224 0.928 . S
C222 N218 1.345 . S
C222 C223 1.371 . S
C222 H225 0.931 . S
C223 C219 1.391 . S
C223 C222 1.371 . S
C223 H230 0.930 . S
H224 C221 0.928 . S
H225 C222 0.931 . S
H226 C202 0.930 . S
H227 C199 0.930 . S
H228 C208 0.930 . S
H229 C220 0.929 . S
H230 C223 0.930 . S
C231 C232 1.351 . S
C231 N234 1.368 . S
C231 H236 0.931 . S
C232 C231 1.351 . S
C232 N233 1.373 . S
C232 H260 0.930 . S
N233 C232 1.373 . S
N233 C235 1.340 . S
N234 C231 1.368 . S
N234 C235 1.321 . S
N234 Co237 2.135 . S
C235 N233 1.340 . S
C235 N234 1.321 . S
C235 H259 0.930 . S
H236 C231 0.931 . S
Co237 N234 2.135 . S
Co237 N240 2.121 . S
Co237 O245 2.055 . S
Co237 O248 2.039 . S
Co237 N251 2.140 . S
C238 O239 1.227 . S
C238 O248 1.265 . S
O239 C238 1.227 . S
N240 Co237 2.121 . S
N240 C242 1.375 . S
N240 C243 1.313 . S
C241 C242 1.338 . S
C241 N244 1.377 . S
C241 H261 0.930 . S
C242 N240 1.375 . S
C242 C241 1.338 . S
C242 H246 0.931 . S
C243 N240 1.313 . S
C243 N244 1.344 . S
C243 H247 0.930 . S
N244 C241 1.377 . S
N244 C243 1.344 . S
O245 Co237 2.055 . S
O245 C249 1.253 . S
H246 C242 0.931 . S
H247 C243 0.930 . S
O248 Co237 2.039 . S
O248 C238 1.265 . S
C249 O245 1.253 . S
C249 O250 1.227 . S
O250 C249 1.227 . S
N251 Co237 2.140 . S
N251 C254 1.346 . S
N251 C255 1.345 . S
C252 C253 1.387 . S
C252 C256 1.391 . S
C253 C252 1.387 . S
C253 C254 1.369 . S
C253 H262 0.929 . S
C254 N251 1.346 . S
C254 C253 1.369 . S
C254 H257 0.928 . S
C255 N251 1.345 . S
C255 C256 1.371 . S
C255 H258 0.931 . S
C256 C252 1.391 . S
C256 C255 1.371 . S
C256 H263 0.930 . S
H257 C254 0.928 . S
H258 C255 0.931 . S
H259 C235 0.930 . S
H260 C232 0.930 . S
H261 C241 0.930 . S
H262 C253 0.929 . S
H263 C256 0.930 . S
H264 C272 0.929 . S
H265 C274 0.930 . S
H266 C276 0.930 . S
H267 C279 0.929 . S
H268 C282 0.930 . S
H269 C284 0.960 . S
H270 C284 0.960 . S
H271 C284 0.960 . S
C272 H264 0.929 . S
C272 C273 1.377 . S
C272 C274 1.384 . S
C273 C272 1.377 . S
C273 C279 1.390 . S
C274 H265 0.930 . S
C274 C272 1.384 . S
C274 C275 1.372 . S
C275 C274 1.372 . S
C275 C276 1.400 . S
C275 C280 1.490 . S
C276 H266 0.930 . S
C276 C275 1.400 . S
C276 C279 1.386 . S
H277 C293 0.930 . S
H278 C294 0.931 . S
C279 H267 0.929 . S
C279 C273 1.390 . S
C279 C276 1.386 . S
C280 C275 1.490 . S
C280 C282 1.395 . S
C280 C283 1.403 . S
H281 C287 0.930 . S
C282 H268 0.930 . S
C282 C280 1.395 . S
C282 C285 1.403 . S
C283 C280 1.403 . S
C283 C284 1.524 . S
C283 C287 1.400 . S
C284 H269 0.960 . S
C284 H270 0.960 . S
C284 H271 0.960 . S
C284 C283 1.524 . S
C285 C282 1.403 . S
C285 C286 1.392 . S
C285 C289 1.495 . S
C286 C285 1.392 . S
C286 C287 1.385 . S
C286 C288 1.478 . S
C287 H281 0.930 . S
C287 C283 1.400 . S
C287 C286 1.385 . S
C288 C286 1.478 . S
C288 C290 1.381 . S
C288 C294 1.383 . S
C289 C285 1.495 . S
C289 H295 0.959 . S
C289 H296 0.961 . S
C289 H297 0.960 . S
C290 C288 1.381 . S
C290 C291 1.394 . S
C290 H298 0.930 . S
C291 C290 1.394 . S
C291 C292 1.383 . S
C291 H299 0.929 . S
C292 C291 1.383 . S
C292 C293 1.377 . S
C293 H277 0.930 . S
C293 C292 1.377 . S
C293 C294 1.379 . S
C294 H278 0.931 . S
C294 C288 1.383 . S
C294 C293 1.379 . S
H295 C289 0.959 . S
H296 C289 0.961 . S
H297 C289 0.960 . S
H298 C290 0.930 . S
H299 C291 0.929 . S
H300 C308 0.929 . S
H301 C310 0.930 . S
H302 C312 0.930 . S
H303 C315 0.929 . S
H304 C318 0.930 . S
H305 C320 0.960 . S
H306 C320 0.960 . S
H307 C320 0.960 . S
C308 H300 0.929 . S
C308 C309 1.377 . S
C308 C310 1.384 . S
C309 C308 1.377 . S
C309 C315 1.390 . S
C310 H301 0.930 . S
C310 C308 1.384 . S
C310 C311 1.372 . S
C311 C310 1.372 . S
C311 C312 1.400 . S
C311 C316 1.490 . S
C312 H302 0.930 . S
C312 C311 1.400 . S
C312 C315 1.386 . S
H313 C329 0.930 . S
H314 C330 0.931 . S
C315 H303 0.929 . S
C315 C309 1.390 . S
C315 C312 1.386 . S
C316 C311 1.490 . S
C316 C318 1.395 . S
C316 C319 1.403 . S
H317 C323 0.930 . S
C318 H304 0.930 . S
C318 C316 1.395 . S
C318 C321 1.403 . S
C319 C316 1.403 . S
C319 C320 1.524 . S
C319 C323 1.400 . S
C320 H305 0.960 . S
C320 H306 0.960 . S
C320 H307 0.960 . S
C320 C319 1.524 . S
C321 C318 1.403 . S
C321 C322 1.392 . S
C321 C325 1.495 . S
C322 C321 1.392 . S
C322 C323 1.385 . S
C322 C324 1.478 . S
C323 H317 0.930 . S
C323 C319 1.400 . S
C323 C322 1.385 . S
C324 C322 1.478 . S
C324 C326 1.381 . S
C324 C330 1.383 . S
C325 C321 1.495 . S
C325 H331 0.959 . S
C325 H332 0.961 . S
C325 H333 0.960 . S
C326 C324 1.381 . S
C326 C327 1.394 . S
C326 H334 0.930 . S
C327 C326 1.394 . S
C327 C328 1.383 . S
C327 H335 0.929 . S
C328 C327 1.383 . S
C328 C329 1.377 . S
C329 H313 0.930 . S
C329 C328 1.377 . S
C329 C330 1.379 . S
C330 H314 0.931 . S
C330 C324 1.383 . S
C330 C329 1.379 . S
H331 C325 0.959 . S
H332 C325 0.961 . S
H333 C325 0.960 . S
H334 C326 0.930 . S
H335 C327 0.929 . S
H336 C344 0.929 . S
H337 C346 0.930 . S
H338 C348 0.930 . S
H339 C351 0.929 . S
H340 C354 0.930 . S
H341 C356 0.960 . S
H342 C356 0.960 . S
H343 C356 0.960 . S
C344 H336 0.929 . S
C344 C345 1.377 . S
C344 C346 1.384 . S
C345 C344 1.377 . S
C345 C351 1.390 . S
C346 H337 0.930 . S
C346 C344 1.384 . S
C346 C347 1.372 . S
C347 C346 1.372 . S
C347 C348 1.400 . S
C347 C352 1.490 . S
C348 H338 0.930 . S
C348 C347 1.400 . S
C348 C351 1.386 . S
H349 C365 0.930 . S
H350 C366 0.931 . S
C351 H339 0.929 . S
C351 C345 1.390 . S
C351 C348 1.386 . S
C352 C347 1.490 . S
C352 C354 1.395 . S
C352 C355 1.403 . S
H353 C359 0.930 . S
C354 H340 0.930 . S
C354 C352 1.395 . S
C354 C357 1.403 1_455 S
C355 C352 1.403 . S
C355 C356 1.524 . S
C355 C359 1.400 1_455 S
C356 H341 0.960 . S
C356 H342 0.960 . S
C356 H343 0.960 . S
C356 C355 1.524 . S
C357 C354 1.403 1_655 S
C357 C358 1.392 . S
C357 C361 1.495 . S
C358 C357 1.392 . S
C358 C359 1.385 . S
C358 C360 1.478 . S
C359 H353 0.930 . S
C359 C355 1.400 1_655 S
C359 C358 1.385 . S
C360 C358 1.478 . S
C360 C362 1.381 . S
C360 C366 1.383 . S
C361 C357 1.495 . S
C361 H367 0.959 . S
C361 H368 0.961 . S
C361 H369 0.960 . S
C362 C360 1.381 . S
C362 C363 1.394 . S
C362 H370 0.930 . S
C363 C362 1.394 . S
C363 C364 1.383 . S
C363 H371 0.929 . S
C364 C363 1.383 . S
C364 C365 1.377 . S
C365 H349 0.930 . S
C365 C364 1.377 . S
C365 C366 1.379 . S
C366 H350 0.931 . S
C366 C360 1.383 . S
C366 C365 1.379 . S
H367 C361 0.959 . S
H368 C361 0.961 . S
H369 C361 0.960 . S
H370 C362 0.930 . S
H371 C363 0.929 . S
H372 C380 0.929 . S
H373 C382 0.930 . S
H374 C384 0.930 . S
H375 C387 0.929 . S
H376 C390 0.930 . S
H377 C392 0.960 . S
H378 C392 0.960 . S
H379 C392 0.960 . S
C380 H372 0.929 . S
C380 C381 1.377 . S
C380 C382 1.384 . S
C381 C380 1.377 . S
C381 C387 1.390 . S
C382 H373 0.930 . S
C382 C380 1.384 . S
C382 C383 1.372 . S
C383 C382 1.372 . S
C383 C384 1.400 . S
C383 C388 1.490 . S
C384 H374 0.930 . S
C384 C383 1.400 . S
C384 C387 1.386 . S
H385 C401 0.930 . S
H386 C402 0.931 . S
C387 H375 0.929 . S
C387 C381 1.390 . S
C387 C384 1.386 . S
C388 C383 1.490 . S
C388 C390 1.395 . S
C388 C391 1.403 . S
H389 C395 0.930 . S
C390 H376 0.930 . S
C390 C388 1.395 . S
C390 C393 1.403 1_455 S
C391 C388 1.403 . S
C391 C392 1.524 . S
C391 C395 1.400 1_455 S
C392 H377 0.960 . S
C392 H378 0.960 . S
C392 H379 0.960 . S
C392 C391 1.524 . S
C393 C390 1.403 1_655 S
C393 C394 1.392 . S
C393 C397 1.495 . S
C394 C393 1.392 . S
C394 C395 1.385 . S
C394 C396 1.478 . S
C395 H389 0.930 . S
C395 C391 1.400 1_655 S
C395 C394 1.385 . S
C396 C394 1.478 . S
C396 C398 1.381 . S
C396 C402 1.383 . S
C397 C393 1.495 . S
C397 H403 0.959 . S
C397 H404 0.961 . S
C397 H405 0.960 . S
C398 C396 1.381 . S
C398 C399 1.394 . S
C398 H406 0.930 . S
C399 C398 1.394 . S
C399 C400 1.383 . S
C399 H407 0.929 . S
C400 C399 1.383 . S
C400 C401 1.377 . S
C401 H385 0.930 . S
C401 C400 1.377 . S
C401 C402 1.379 . S
C402 H386 0.931 . S
C402 C396 1.383 . S
C402 C401 1.379 . S
H403 C397 0.959 . S
H404 C397 0.961 . S
H405 C397 0.960 . S
H406 C398 0.930 . S
H407 C399 0.929 . S
H408 C416 0.929 . S
H409 C418 0.930 . S
H410 C420 0.930 . S
H411 C423 0.929 . S
H412 C426 0.930 . S
H413 C428 0.960 . S
H414 C428 0.960 . S
H415 C428 0.960 . S
C416 H408 0.929 . S
C416 C417 1.377 . S
C416 C418 1.384 . S
C417 C416 1.377 . S
C417 C423 1.390 . S
C418 H409 0.930 . S
C418 C416 1.384 . S
C418 C419 1.372 . S
C419 C418 1.372 . S
C419 C420 1.400 . S
C419 C424 1.490 . S
C420 H410 0.930 . S
C420 C419 1.400 . S
C420 C423 1.386 . S
H421 C437 0.930 . S
H422 C438 0.931 . S
C423 H411 0.929 . S
C423 C417 1.390 . S
C423 C420 1.386 . S
C424 C419 1.490 . S
C424 C426 1.395 1_556 S
C424 C427 1.403 . S
H425 C431 0.930 . S
C426 H412 0.930 . S
C426 C424 1.395 1_554 S
C426 C429 1.403 . S
C427 C424 1.403 . S
C427 C428 1.524 . S
C427 C431 1.400 . S
C428 H413 0.960 . S
C428 H414 0.960 . S
C428 H415 0.960 . S
C428 C427 1.524 . S
C429 C426 1.403 . S
C429 C430 1.392 . S
C429 C433 1.495 . S
C430 C429 1.392 . S
C430 C431 1.385 1_554 S
C430 C432 1.478 . S
C431 H425 0.930 . S
C431 C427 1.400 . S
C431 C430 1.385 1_556 S
C432 C430 1.478 . S
C432 C434 1.381 . S
C432 C438 1.383 . S
C433 C429 1.495 . S
C433 H439 0.959 . S
C433 H440 0.961 . S
C433 H441 0.960 . S
C434 C432 1.381 . S
C434 C435 1.394 . S
C434 H442 0.930 . S
C435 C434 1.394 . S
C435 C436 1.383 . S
C435 H443 0.929 . S
C436 C435 1.383 . S
C436 C437 1.377 . S
C437 H421 0.930 . S
C437 C436 1.377 . S
C437 C438 1.379 . S
C438 H422 0.931 . S
C438 C432 1.383 . S
C438 C437 1.379 . S
H439 C433 0.959 . S
H440 C433 0.961 . S
H441 C433 0.960 . S
H442 C434 0.930 . S
H443 C435 0.929 . S
H444 C452 0.929 . S
H445 C454 0.930 . S
H446 C456 0.930 . S
H447 C459 0.929 . S
H448 C462 0.930 . S
H449 C464 0.960 . S
H450 C464 0.960 . S
H451 C464 0.960 . S
C452 H444 0.929 . S
C452 C453 1.377 . S
C452 C454 1.384 . S
C453 C452 1.377 . S
C453 C459 1.390 . S
C454 H445 0.930 . S
C454 C452 1.384 . S
C454 C455 1.372 . S
C455 C454 1.372 . S
C455 C456 1.400 . S
C455 C460 1.490 . S
C456 H446 0.930 . S
C456 C455 1.400 . S
C456 C459 1.386 . S
H457 C473 0.930 . S
H458 C474 0.931 . S
C459 H447 0.929 . S
C459 C453 1.390 . S
C459 C456 1.386 . S
C460 C455 1.490 . S
C460 C462 1.395 . S
C460 C463 1.403 . S
H461 C467 0.930 . S
C462 H448 0.930 . S
C462 C460 1.395 . S
C462 C465 1.403 . S
C463 C460 1.403 . S
C463 C464 1.524 . S
C463 C467 1.400 . S
C464 H449 0.960 . S
C464 H450 0.960 . S
C464 H451 0.960 . S
C464 C463 1.524 . S
C465 C462 1.403 . S
C465 C466 1.392 . S
C465 C469 1.495 . S
C466 C465 1.392 . S
C466 C467 1.385 . S
C466 C468 1.478 . S
C467 H461 0.930 . S
C467 C463 1.400 . S
C467 C466 1.385 . S
C468 C466 1.478 . S
C468 C470 1.381 . S
C468 C474 1.383 . S
C469 C465 1.495 . S
C469 H475 0.959 . S
C469 H476 0.961 . S
C469 H477 0.960 . S
C470 C468 1.381 . S
C470 C471 1.394 . S
C470 H478 0.930 . S
C471 C470 1.394 . S
C471 C472 1.383 . S
C471 H479 0.929 . S
C472 C471 1.383 . S
C472 C473 1.377 . S
C473 H457 0.930 . S
C473 C472 1.377 . S
C473 C474 1.379 . S
C474 H458 0.931 . S
C474 C468 1.383 . S
C474 C473 1.379 . S
H475 C469 0.959 . S
H476 C469 0.961 . S
H477 C469 0.960 . S
H478 C470 0.930 . S
H479 C471 0.929 . S
H480 C488 0.929 . S
H481 C490 0.930 . S
H482 C492 0.930 . S
H483 C495 0.929 . S
H484 C498 0.930 . S
H485 C500 0.960 1_554 S
H486 C500 0.960 1_554 S
H487 C500 0.960 . S
C488 H480 0.929 . S
C488 C489 1.377 . S
C488 C490 1.384 . S
C489 C488 1.377 . S
C489 C495 1.390 . S
C490 H481 0.930 . S
C490 C488 1.384 . S
C490 C491 1.372 . S
C491 C490 1.372 . S
C491 C492 1.400 . S
C491 C496 1.490 . S
C492 H482 0.930 . S
C492 C491 1.400 . S
C492 C495 1.386 . S
H493 C509 0.930 . S
H494 C510 0.931 . S
C495 H483 0.929 . S
C495 C489 1.390 . S
C495 C492 1.386 . S
C496 C491 1.490 . S
C496 C498 1.395 . S
C496 C499 1.403 . S
H497 C503 0.930 . S
C498 H484 0.930 . S
C498 C496 1.395 . S
C498 C501 1.403 1_556 S
C499 C496 1.403 . S
C499 C500 1.524 . S
C499 C503 1.400 1_556 S
C500 H485 0.960 1_556 S
C500 H486 0.960 1_556 S
C500 H487 0.960 . S
C500 C499 1.524 . S
C501 C498 1.403 1_554 S
C501 C502 1.392 . S
C501 C505 1.495 . S
C502 C501 1.392 . S
C502 C503 1.385 . S
C502 C504 1.478 . S
C503 H497 0.930 . S
C503 C499 1.400 1_554 S
C503 C502 1.385 . S
C504 C502 1.478 . S
C504 C506 1.381 . S
C504 C510 1.383 . S
C505 C501 1.495 . S
C505 H511 0.966 . S
C505 H512 0.961 . S
C505 H513 0.960 . S
C506 C504 1.381 . S
C506 C507 1.394 . S
C506 H514 0.930 . S
C507 C506 1.394 . S
C507 C508 1.383 . S
C507 H515 0.929 . S
C508 C507 1.383 . S
C508 C509 1.377 . S
C509 H493 0.930 . S
C509 C508 1.377 . S
C509 C510 1.379 . S
C510 H494 0.931 . S
C510 C504 1.383 . S
C510 C509 1.379 . S
H511 C505 0.966 . S
H512 C505 0.961 . S
H513 C505 0.960 . S
H514 C506 0.930 . S
H515 C507 0.929 . S
H516 C524 0.929 . S
H517 C526 0.930 . S
H518 C528 0.930 . S
H519 C531 0.929 . S
H520 C534 0.930 . S
H521 C536 0.960 . S
H522 C536 0.960 . S
H523 C536 0.960 . S
C524 H516 0.929 . S
C524 C525 1.377 . S
C524 C526 1.384 . S
C525 C524 1.377 . S
C525 C531 1.390 . S
C526 H517 0.930 . S
C526 C524 1.384 . S
C526 C527 1.372 . S
C527 C526 1.372 . S
C527 C528 1.400 . S
C527 C532 1.490 . S
C528 H518 0.930 . S
C528 C527 1.400 . S
C528 C531 1.386 . S
H529 C545 0.930 . S
H530 C546 0.931 . S
C531 H519 0.929 . S
C531 C525 1.390 . S
C531 C528 1.386 . S
C532 C527 1.490 . S
C532 C534 1.395 . S
C532 C535 1.403 . S
H533 C539 0.930 . S
C534 H520 0.930 . S
C534 C532 1.395 . S
C534 C537 1.403 . S
C535 C532 1.403 . S
C535 C536 1.524 . S
C535 C539 1.400 . S
C536 H521 0.960 . S
C536 H522 0.960 . S
C536 H523 0.960 . S
C536 C535 1.524 . S
C537 C534 1.403 . S
C537 C538 1.392 . S
C537 C541 1.495 . S
C538 C537 1.392 . S
C538 C539 1.385 . S
C538 C540 1.478 . S
C539 H533 0.930 . S
C539 C535 1.400 . S
C539 C538 1.385 . S
C540 C538 1.478 . S
C540 C542 1.381 . S
C540 C546 1.383 . S
C541 C537 1.495 . S
C541 H547 0.959 . S
C541 H548 0.961 . S
C541 H549 0.960 . S
C542 C540 1.381 . S
C542 C543 1.394 . S
C542 H550 0.930 . S
C543 C542 1.394 . S
C543 C544 1.383 . S
C543 H551 0.929 . S
C544 C543 1.383 . S
C544 C545 1.377 . S
C545 H529 0.930 . S
C545 C544 1.377 . S
C545 C546 1.379 . S
C546 H530 0.931 . S
C546 C540 1.383 . S
C546 C545 1.379 . S
H547 C541 0.959 . S
H548 C541 0.961 . S
H549 C541 0.960 . S
H550 C542 0.930 . S
H551 C543 0.929 . S
H552 C560 0.929 . S
H553 C562 0.930 . S
H554 C564 0.930 . S
H555 C567 0.929 . S
H556 C570 0.930 . S
H557 C572 0.960 . S
H558 C572 0.960 . S
H559 C572 0.960 . S
C560 H552 0.929 . S
C560 C561 1.377 . S
C560 C562 1.384 . S
C561 C560 1.377 . S
C561 C567 1.390 . S
C562 H553 0.930 . S
C562 C560 1.384 . S
C562 C563 1.372 . S
C563 C562 1.372 . S
C563 C564 1.400 . S
C563 C568 1.490 . S
C564 H554 0.930 . S
C564 C563 1.400 . S
C564 C567 1.386 . S
H565 C581 0.930 . S
H566 C582 0.931 . S
C567 H555 0.929 . S
C567 C561 1.390 . S
C567 C564 1.386 . S
C568 C563 1.490 . S
C568 C570 1.395 1_556 S
C568 C571 1.403 1_545 S
H569 C575 0.930 . S
C570 H556 0.930 . S
C570 C568 1.395 1_554 S
C570 C573 1.403 . S
C571 C568 1.403 1_565 S
C571 C572 1.524 . S
C571 C575 1.400 . S
C572 H557 0.960 . S
C572 H558 0.960 . S
C572 H559 0.960 . S
C572 C571 1.524 . S
C573 C570 1.403 . S
C573 C574 1.392 1_545 S
C573 C577 1.495 . S
C574 C573 1.392 1_565 S
C574 C575 1.385 1_554 S
C574 C576 1.478 . S
C575 H569 0.930 . S
C575 C571 1.400 . S
C575 C574 1.385 1_556 S
C576 C574 1.478 . S
C576 C578 1.381 . S
C576 C582 1.383 . S
C577 C573 1.495 . S
C577 H583 0.959 . S
C577 H584 0.961 . S
C577 H585 0.960 . S
C578 C576 1.381 . S
C578 C579 1.394 . S
C578 H586 0.930 . S
C579 C578 1.394 . S
C579 C580 1.383 . S
C579 H587 0.929 . S
C580 C579 1.383 . S
C580 C581 1.377 . S
C581 H565 0.930 . S
C581 C580 1.377 . S
C581 C582 1.379 . S
C582 H566 0.931 . S
C582 C576 1.383 . S
C582 C581 1.379 . S
H583 C577 0.959 . S
H584 C577 0.961 . S
H585 C577 0.960 . S
H586 C578 0.930 . S
H587 C579 0.929 . S
H588 C596 0.929 . S
H589 C598 0.930 . S
H590 C600 0.930 . S
H591 C603 0.929 . S
H592 C606 0.930 . S
H593 C608 0.960 . S
H594 C608 0.960 . S
H595 C608 0.960 . S
C596 H588 0.929 . S
C596 C597 1.377 . S
C596 C598 1.384 . S
C597 C596 1.377 . S
C597 C603 1.390 . S
C598 H589 0.930 . S
C598 C596 1.384 . S
C598 C599 1.372 . S
C599 C598 1.372 . S
C599 C600 1.400 . S
C599 C604 1.490 . S
C600 H590 0.930 . S
C600 C599 1.400 . S
C600 C603 1.386 . S
H601 C617 0.930 . S
H602 C618 0.931 . S
C603 H591 0.929 . S
C603 C597 1.390 . S
C603 C600 1.386 . S
C604 C599 1.490 . S
C604 C606 1.395 1_545 S
C604 C607 1.403 . S
H605 C611 0.930 . S
C606 H592 0.930 . S
C606 C604 1.395 1_565 S
C606 C609 1.403 . S
C607 C604 1.403 . S
C607 C608 1.524 . S
C607 C611 1.400 . S
C608 H593 0.960 . S
C608 H594 0.960 . S
C608 H595 0.960 . S
C608 C607 1.524 . S
C609 C606 1.403 . S
C609 C610 1.392 . S
C609 C613 1.495 . S
C610 C609 1.392 . S
C610 C611 1.385 1_565 S
C610 C612 1.478 . S
C611 H605 0.930 . S
C611 C607 1.400 . S
C611 C610 1.385 1_545 S
C612 C610 1.478 . S
C612 C614 1.381 . S
C612 C618 1.383 . S
C613 C609 1.495 . S
C613 H619 0.959 . S
C613 H620 0.961 . S
C613 H621 0.960 . S
C614 C612 1.381 . S
C614 C615 1.394 . S
C614 H622 0.930 . S
C615 C614 1.394 . S
C615 C616 1.383 . S
C615 H623 0.929 . S
C616 C615 1.383 . S
C616 C617 1.377 . S
C617 H601 0.930 . S
C617 C616 1.377 . S
C617 C618 1.379 . S
C618 H602 0.931 . S
C618 C612 1.383 . S
C618 C617 1.379 . S
H619 C613 0.959 . S
H620 C613 0.961 . S
H621 C613 0.960 . S
H622 C614 0.930 . S
H623 C615 0.929 . S
H624 C632 0.929 . S
H625 C634 0.930 . S
H626 C636 0.930 . S
H627 C639 0.929 . S
H628 C642 0.930 . S
H629 C644 0.960 1_565 S
H630 C644 0.960 . S
H631 C644 0.960 . S
C632 H624 0.929 . S
C632 C633 1.377 . S
C632 C634 1.384 . S
C633 C632 1.377 . S
C633 C639 1.390 . S
C634 H625 0.930 . S
C634 C632 1.384 . S
C634 C635 1.372 . S
C635 C634 1.372 . S
C635 C636 1.400 . S
C635 C640 1.490 . S
C636 H626 0.930 . S
C636 C635 1.400 . S
C636 C639 1.386 . S
H637 C653 0.930 . S
H638 C654 0.931 . S
C639 H627 0.929 . S
C639 C633 1.390 . S
C639 C636 1.386 . S
C640 C635 1.490 . S
C640 C642 1.395 1_556 S
C640 C643 1.403 . S
H641 C647 0.930 . S
C642 H628 0.930 . S
C642 C640 1.395 1_554 S
C642 C645 1.439 . S
C643 C640 1.403 . S
C643 C644 1.524 . S
C643 C647 1.400 1_545 S
C644 H629 0.960 1_545 S
C644 H630 0.960 . S
C644 H631 0.960 . S
C644 C643 1.524 . S
C645 C642 1.439 . S
C645 C646 1.358 1_545 S
C645 C649 1.496 . S
C646 C645 1.358 1_565 S
C646 C647 1.385 1_554 S
C646 C648 1.478 . S
C647 H641 0.930 . S
C647 C643 1.400 1_565 S
C647 C646 1.385 1_556 S
C648 C646 1.478 . S
C648 C650 1.381 . S
C648 C654 1.383 . S
C649 C645 1.496 . S
C649 H655 0.959 . S
C649 H656 0.961 1_545 S
C649 H657 0.957 1_545 S
C650 C648 1.381 . S
C650 C651 1.394 . S
C650 H658 0.930 . S
C651 C650 1.394 . S
C651 C652 1.383 . S
C651 H659 0.929 . S
C652 C651 1.383 . S
C652 C653 1.377 . S
C653 H637 0.930 . S
C653 C652 1.377 . S
C653 C654 1.379 . S
C654 H638 0.931 . S
C654 C648 1.383 . S
C654 C653 1.379 . S
H655 C649 0.959 . S
H656 C649 0.961 1_565 S
H657 C649 0.957 1_565 S
H658 C650 0.930 . S
H659 C651 0.929 . S
H660 C668 0.929 . S
H661 C670 0.930 . S
H662 C672 0.930 . S
H663 C675 0.929 . S
H664 C678 0.930 . S
H665 C680 0.960 . S
H666 C680 0.960 . S
H667 C680 0.960 . S
C668 H660 0.929 . S
C668 C669 1.377 . S
C668 C670 1.384 . S
C669 C668 1.377 . S
C669 C675 1.390 . S
C670 H661 0.930 . S
C670 C668 1.384 . S
C670 C671 1.372 . S
C671 C670 1.372 . S
C671 C672 1.400 . S
C671 C676 1.490 . S
C672 H662 0.930 . S
C672 C671 1.400 . S
C672 C675 1.386 . S
H673 C689 0.930 . S
H674 C690 0.931 . S
C675 H663 0.929 . S
C675 C669 1.390 . S
C675 C672 1.386 . S
C676 C671 1.490 . S
C676 C678 1.395 . S
C676 C679 1.403 . S
H677 C683 0.930 . S
C678 H664 0.930 . S
C678 C676 1.395 . S
C678 C681 1.403 1_545 S
C679 C676 1.403 . S
C679 C680 1.524 . S
C679 C683 1.400 1_545 S
C680 H665 0.960 . S
C680 H666 0.960 . S
C680 H667 0.960 . S
C680 C679 1.524 . S
C681 C678 1.403 1_565 S
C681 C682 1.392 . S
C681 C685 1.495 . S
C682 C681 1.392 . S
C682 C683 1.385 . S
C682 C684 1.478 . S
C683 H677 0.930 . S
C683 C679 1.400 1_565 S
C683 C682 1.385 . S
C684 C682 1.478 . S
C684 C686 1.381 . S
C684 C690 1.383 . S
C685 C681 1.495 . S
C685 H691 0.959 . S
C685 H692 0.961 . S
C685 H693 0.960 . S
C686 C684 1.381 . S
C686 C687 1.394 . S
C686 H694 0.930 . S
C687 C686 1.394 . S
C687 C688 1.383 . S
C687 H695 0.929 . S
C688 C687 1.383 . S
C688 C689 1.377 . S
C689 H673 0.930 . S
C689 C688 1.377 . S
C689 C690 1.379 . S
C690 H674 0.931 . S
C690 C684 1.383 . S
C690 C689 1.379 . S
H691 C685 0.959 . S
H692 C685 0.961 . S
H693 C685 0.960 . S
H694 C686 0.930 . S
H695 C687 0.929 . S
H696 C704 0.929 . S
H697 C706 0.930 . S
H698 C708 0.930 . S
H699 C711 0.929 . S
H700 C714 0.930 . S
H701 C716 0.960 . S
H702 C716 0.960 . S
H703 C716 0.960 . S
C704 H696 0.929 . S
C704 C705 1.377 . S
C704 C706 1.384 . S
C705 C704 1.377 . S
C705 C711 1.390 . S
C706 H697 0.930 . S
C706 C704 1.384 . S
C706 C707 1.372 . S
C707 C706 1.372 . S
C707 C708 1.400 . S
C707 C712 1.490 . S
C708 H698 0.930 . S
C708 C707 1.400 . S
C708 C711 1.386 . S
H709 C725 0.930 . S
H710 C726 0.931 . S
C711 H699 0.929 . S
C711 C705 1.390 . S
C711 C708 1.386 . S
C712 C707 1.490 . S
C712 C714 1.395 . S
C712 C715 1.403 . S
H713 C719 0.930 . S
C714 H700 0.930 . S
C714 C712 1.395 . S
C714 C717 1.403 . S
C715 C712 1.403 . S
C715 C716 1.524 . S
C715 C719 1.400 . S
C716 H701 0.960 . S
C716 H702 0.960 . S
C716 H703 0.960 . S
C716 C715 1.524 . S
C717 C714 1.403 . S
C717 C718 1.392 . S
C717 C721 1.495 . S
C718 C717 1.392 . S
C718 C719 1.385 . S
C718 C720 1.478 1_554 S
C719 H713 0.930 . S
C719 C715 1.400 . S
C719 C718 1.385 . S
C720 C718 1.478 1_556 S
C720 C722 1.381 1_556 S
C720 C726 1.383 . S
C721 C717 1.495 . S
C721 H727 0.959 . S
C721 H728 0.961 1_554 S
C721 H729 0.960 . S
C722 C720 1.381 1_554 S
C722 C723 1.393 1_554 S
C722 H730 0.932 . S
C723 C722 1.393 1_556 S
C723 C724 1.383 . S
C723 H731 0.929 . S
C724 C723 1.383 . S
C724 C725 1.377 . S
C725 H709 0.930 . S
C725 C724 1.377 . S
C725 C726 1.379 . S
C726 H710 0.931 . S
C726 C720 1.383 . S
C726 C725 1.379 . S
H727 C721 0.959 . S
H728 C721 0.961 1_556 S
H729 C721 0.960 . S
H730 C722 0.932 . S
H731 C723 0.929 . S
H732 C740 0.929 . S
H733 C742 0.930 . S
H734 C744 0.930 . S
H735 C747 0.929 . S
H736 C750 0.930 . S
H737 C752 0.960 . S
H738 C752 0.960 . S
H739 C752 0.960 . S
C740 H732 0.929 . S
C740 C741 1.377 . S
C740 C742 1.384 . S
C741 C740 1.377 . S
C741 C747 1.390 . S
C742 H733 0.930 . S
C742 C740 1.384 . S
C742 C743 1.372 . S
C743 C742 1.372 . S
C743 C744 1.400 . S
C743 C748 1.490 . S
C744 H734 0.930 . S
C744 C743 1.400 . S
C744 C747 1.386 . S
H745 C761 0.930 . S
H746 C762 0.931 . S
C747 H735 0.929 . S
C747 C741 1.390 . S
C747 C744 1.386 . S
C748 C743 1.490 . S
C748 C750 1.395 . S
C748 C751 1.403 . S
H749 C755 0.930 . S
C750 H736 0.930 . S
C750 C748 1.395 . S
C750 C753 1.403 . S
C751 C748 1.403 . S
C751 C752 1.524 . S
C751 C755 1.400 . S
C752 H737 0.960 . S
C752 H738 0.960 . S
C752 H739 0.960 . S
C752 C751 1.524 . S
C753 C750 1.403 . S
C753 C754 1.392 . S
C753 C757 1.495 . S
C754 C753 1.392 . S
C754 C755 1.385 . S
C754 C756 1.478 . S
C755 H749 0.930 . S
C755 C751 1.400 . S
C755 C754 1.385 . S
C756 C754 1.478 . S
C756 C758 1.381 . S
C756 C762 1.383 . S
C757 C753 1.495 . S
C757 H763 0.959 . S
C757 H764 0.961 . S
C757 H765 0.960 . S
C758 C756 1.381 . S
C758 C759 1.394 . S
C758 H766 0.930 . S
C759 C758 1.394 . S
C759 C760 1.383 . S
C759 H767 0.929 . S
C760 C759 1.383 . S
C760 C761 1.377 . S
C761 H745 0.930 . S
C761 C760 1.377 . S
C761 C762 1.379 . S
C762 H746 0.931 . S
C762 C756 1.383 . S
C762 C761 1.379 . S
H763 C757 0.959 . S
H764 C757 0.961 . S
H765 C757 0.960 . S
H766 C758 0.930 . S
H767 C759 0.929 . S
H768 C776 0.929 . S
H769 C778 0.930 . S
H770 C780 0.930 1_556 S
H771 C783 0.929 . S
H772 C786 0.930 1_554 S
H773 C788 0.960 . S
H774 C788 0.960 . S
H775 C788 0.960 . S
C776 H768 0.929 . S
C776 C777 1.377 . S
C776 C778 1.384 . S
C777 C776 1.377 . S
C777 C783 1.390 . S
C778 H769 0.930 . S
C778 C776 1.384 . S
C778 C779 1.372 . S
C779 C778 1.372 . S
C779 C780 1.400 . S
C779 C784 1.490 1_554 S
C780 H770 0.930 1_554 S
C780 C779 1.400 . S
C780 C783 1.386 . S
H781 C797 0.930 . S
H782 C798 0.931 . S
C783 H771 0.929 . S
C783 C777 1.390 . S
C783 C780 1.386 . S
C784 C779 1.490 1_556 S
C784 C786 1.395 . S
C784 C787 1.403 . S
H785 C791 0.930 . S
C786 H772 0.930 1_556 S
C786 C784 1.395 . S
C786 C789 1.403 . S
C787 C784 1.403 . S
C787 C788 1.524 . S
C787 C791 1.400 . S
C788 H773 0.960 . S
C788 H774 0.960 . S
C788 H775 0.960 . S
C788 C787 1.524 . S
C789 C786 1.403 . S
C789 C790 1.392 . S
C789 C793 1.495 . S
C790 C789 1.392 . S
C790 C791 1.385 . S
C790 C792 1.478 . S
C791 H785 0.930 . S
C791 C787 1.400 . S
C791 C790 1.385 . S
C792 C790 1.478 . S
C792 C794 1.381 . S
C792 C798 1.383 . S
C793 C789 1.495 . S
C793 H799 0.959 1_556 S
C793 H800 0.961 . S
C793 H801 0.960 . S
C794 C792 1.381 . S
C794 C795 1.394 . S
C794 H802 0.930 . S
C795 C794 1.394 . S
C795 C796 1.383 . S
C795 H803 0.929 . S
C796 C795 1.383 . S
C796 C797 1.377 . S
C797 H781 0.930 . S
C797 C796 1.377 . S
C797 C798 1.379 . S
C798 H782 0.931 . S
C798 C792 1.383 . S
C798 C797 1.379 . S
H799 C793 0.959 1_554 S
H800 C793 0.961 . S
H801 C793 0.960 . S
H802 C794 0.930 . S
H803 C795 0.929 . S
H804 C812 0.929 . S
H805 C814 0.930 . S
H806 C816 0.930 . S
H807 C819 0.929 . S
H808 C822 0.930 . S
H809 C824 0.960 . S
H810 C824 0.960 . S
H811 C824 0.960 . S
C812 H804 0.929 . S
C812 C813 1.377 . S
C812 C814 1.384 . S
C813 C812 1.377 . S
C813 C819 1.390 . S
C814 H805 0.930 . S
C814 C812 1.384 . S
C814 C815 1.372 . S
C815 C814 1.372 . S
C815 C816 1.400 . S
C815 C820 1.490 . S
C816 H806 0.930 . S
C816 C815 1.400 . S
C816 C819 1.386 . S
H817 C833 0.930 . S
H818 C834 0.931 . S
C819 H807 0.929 . S
C819 C813 1.390 . S
C819 C816 1.386 . S
C820 C815 1.490 . S
C820 C822 1.395 . S
C820 C823 1.403 . S
H821 C827 0.930 . S
C822 H808 0.930 . S
C822 C820 1.395 . S
C822 C825 1.403 . S
C823 C820 1.403 . S
C823 C824 1.524 . S
C823 C827 1.400 . S
C824 H809 0.960 . S
C824 H810 0.960 . S
C824 H811 0.960 . S
C824 C823 1.524 . S
C825 C822 1.403 . S
C825 C826 1.392 . S
C825 C829 1.495 . S
C826 C825 1.392 . S
C826 C827 1.385 . S
C826 C828 1.478 . S
C827 H821 0.930 . S
C827 C823 1.400 . S
C827 C826 1.385 . S
C828 C826 1.478 . S
C828 C830 1.381 . S
C828 C834 1.383 . S
C829 C825 1.495 . S
C829 H835 0.959 . S
C829 H836 0.961 . S
C829 H837 0.960 . S
C830 C828 1.381 . S
C830 C831 1.394 . S
C830 H838 0.930 . S
C831 C830 1.394 . S
C831 C832 1.383 . S
C831 H839 0.929 . S
C832 C831 1.383 . S
C832 C833 1.377 . S
C833 H817 0.930 . S
C833 C832 1.377 . S
C833 C834 1.379 . S
C834 H818 0.931 . S
C834 C828 1.383 . S
C834 C833 1.379 . S
H835 C829 0.959 . S
H836 C829 0.961 . S
H837 C829 0.960 . S
H838 C830 0.930 . S
H839 C831 0.929 . S
H840 C848 0.929 . S
H841 C850 0.930 . S
H842 C852 0.930 . S
H843 C855 0.929 . S
H844 C858 0.930 . S
H845 C860 0.960 . S
H846 C860 0.960 . S
H847 C860 0.960 . S
C848 H840 0.929 . S
C848 C849 1.377 . S
C848 C850 1.384 . S
C849 C848 1.377 . S
C849 C855 1.390 . S
C850 H841 0.930 . S
C850 C848 1.384 . S
C850 C851 1.372 . S
C851 C850 1.372 . S
C851 C852 1.400 . S
C851 C856 1.490 1_556 S
C852 H842 0.930 . S
C852 C851 1.400 . S
C852 C855 1.386 . S
H853 C869 0.930 . S
H854 C870 0.931 . S
C855 H843 0.929 . S
C855 C849 1.390 . S
C855 C852 1.386 . S
C856 C851 1.490 1_554 S
C856 C858 1.395 . S
C856 C859 1.403 . S
H857 C863 0.930 . S
C858 H844 0.930 . S
C858 C856 1.395 . S
C858 C861 1.403 . S
C859 C856 1.403 . S
C859 C860 1.524 1_554 S
C859 C863 1.400 . S
C860 H845 0.960 . S
C860 H846 0.960 . S
C860 H847 0.960 . S
C860 C859 1.524 1_556 S
C861 C858 1.403 . S
C861 C862 1.392 . S
C861 C865 1.495 . S
C862 C861 1.392 . S
C862 C863 1.385 . S
C862 C864 1.478 . S
C863 H857 0.930 . S
C863 C859 1.400 . S
C863 C862 1.385 . S
C864 C862 1.478 . S
C864 C866 1.381 . S
C864 C870 1.383 . S
C865 C861 1.495 . S
C865 H871 0.959 . S
C865 H872 0.961 . S
C865 H873 0.960 . S
C866 C864 1.381 . S
C866 C867 1.394 . S
C866 H874 0.930 . S
C867 C866 1.394 . S
C867 C868 1.383 . S
C867 H875 0.929 . S
C868 C867 1.383 . S
C868 C869 1.377 . S
C869 H853 0.930 . S
C869 C868 1.377 . S
C869 C870 1.379 . S
C870 H854 0.931 . S
C870 C864 1.383 . S
C870 C869 1.379 . S
H871 C865 0.959 . S
H872 C865 0.961 . S
H873 C865 0.960 . S
H874 C866 0.930 . S
H875 C867 0.929 . S
H876 C884 0.929 . S
H877 C886 0.930 . S
H878 C888 0.930 . S
H879 C891 0.929 . S
H880 C894 0.930 . S
H881 C896 0.960 . S
H882 C896 0.960 . S
H883 C896 0.960 . S
C884 H876 0.929 . S
C884 C885 1.377 . S
C884 C886 1.384 . S
C885 C884 1.377 . S
C885 C891 1.390 . S
C886 H877 0.930 . S
C886 C884 1.384 . S
C886 C887 1.372 . S
C887 C886 1.372 . S
C887 C888 1.400 . S
C887 C892 1.490 . S
C888 H878 0.930 . S
C888 C887 1.400 . S
C888 C891 1.386 . S
H889 C905 0.930 . S
H890 C906 0.931 . S
C891 H879 0.929 . S
C891 C885 1.390 . S
C891 C888 1.386 . S
C892 C887 1.490 . S
C892 C894 1.395 . S
C892 C895 1.403 . S
H893 C899 0.930 . S
C894 H880 0.930 . S
C894 C892 1.395 . S
C894 C897 1.403 . S
C895 C892 1.403 . S
C895 C896 1.524 . S
C895 C899 1.400 . S
C896 H881 0.960 . S
C896 H882 0.960 . S
C896 H883 0.960 . S
C896 C895 1.524 . S
C897 C894 1.403 . S
C897 C898 1.392 . S
C897 C901 1.495 . S
C898 C897 1.392 . S
C898 C899 1.385 . S
C898 C900 1.478 . S
C899 H893 0.930 . S
C899 C895 1.400 . S
C899 C898 1.385 . S
C900 C898 1.478 . S
C900 C902 1.381 . S
C900 C906 1.383 . S
C901 C897 1.495 . S
C901 H907 0.959 . S
C901 H908 0.961 . S
C901 H909 0.960 . S
C902 C900 1.381 . S
C902 C903 1.394 . S
C902 H910 0.930 . S
C903 C902 1.394 . S
C903 C904 1.383 . S
C903 H911 0.929 . S
C904 C903 1.383 . S
C904 C905 1.377 . S
C905 H889 0.930 . S
C905 C904 1.377 . S
C905 C906 1.379 . S
C906 H890 0.931 . S
C906 C900 1.383 . S
C906 C905 1.379 . S
H907 C901 0.959 . S
H908 C901 0.961 . S
H909 C901 0.960 . S
H910 C902 0.930 . S
H911 C903 0.929 . S
H912 C920 0.929 . S
H913 C922 0.930 . S
H914 C924 0.930 . S
H915 C927 0.929 . S
H916 C930 0.930 . S
H917 C932 0.960 . S
H918 C932 0.960 . S
H919 C932 0.960 . S
C920 H912 0.929 . S
C920 C921 1.377 . S
C920 C922 1.384 . S
C921 C920 1.377 . S
C921 C927 1.390 . S
C922 H913 0.930 . S
C922 C920 1.384 . S
C922 C923 1.372 . S
C923 C922 1.372 . S
C923 C924 1.400 . S
C923 C928 1.490 . S
C924 H914 0.930 . S
C924 C923 1.400 . S
C924 C927 1.386 . S
H925 C941 0.930 . S
H926 C942 0.931 1_556 S
C927 H915 0.929 . S
C927 C921 1.390 . S
C927 C924 1.386 . S
C928 C923 1.490 . S
C928 C930 1.395 . S
C928 C931 1.403 . S
H929 C935 0.930 . S
C930 H916 0.930 . S
C930 C928 1.395 . S
C930 C933 1.403 . S
C931 C928 1.403 . S
C931 C932 1.524 . S
C931 C935 1.400 . S
C932 H917 0.960 . S
C932 H918 0.960 . S
C932 H919 0.960 . S
C932 C931 1.524 . S
C933 C930 1.403 . S
C933 C934 1.392 . S
C933 C937 1.495 . S
C934 C933 1.392 . S
C934 C935 1.385 . S
C934 C936 1.478 1_556 S
C935 H929 0.930 . S
C935 C931 1.400 . S
C935 C934 1.385 . S
C936 C934 1.478 1_554 S
C936 C938 1.381 . S
C936 C942 1.383 . S
C937 C933 1.495 . S
C937 H943 0.959 . S
C937 H944 0.961 . S
C937 H945 0.960 . S
C938 C936 1.381 . S
C938 C939 1.394 . S
C938 H946 0.930 . S
C939 C938 1.394 . S
C939 C940 1.383 . S
C939 H947 0.929 . S
C940 C939 1.383 . S
C940 C941 1.377 . S
C941 H925 0.930 . S
C941 C940 1.377 . S
C941 C942 1.379 . S
C942 H926 0.931 1_554 S
C942 C936 1.383 . S
C942 C941 1.379 . S
H943 C937 0.959 . S
H944 C937 0.961 . S
H945 C937 0.960 . S
H946 C938 0.930 . S
H947 C939 0.929 . S
H948 C956 0.929 . S
H949 C958 0.930 . S
H950 C960 0.930 . S
H951 C963 0.929 . S
H952 C966 0.930 . S
H953 C968 0.960 . S
H954 C968 0.960 . S
H955 C968 0.960 . S
C956 H948 0.929 . S
C956 C957 1.377 . S
C956 C958 1.384 . S
C957 C956 1.377 . S
C957 C963 1.390 . S
C958 H949 0.930 . S
C958 C956 1.384 . S
C958 C959 1.372 . S
C959 C958 1.372 . S
C959 C960 1.400 . S
C959 C964 1.490 . S
C960 H950 0.930 . S
C960 C959 1.400 . S
C960 C963 1.386 . S
H961 C977 0.930 . S
H962 C978 0.931 . S
C963 H951 0.929 . S
C963 C957 1.390 . S
C963 C960 1.386 . S
C964 C959 1.490 . S
C964 C966 1.395 . S
C964 C967 1.403 . S
H965 C971 0.930 . S
C966 H952 0.930 . S
C966 C964 1.395 . S
C966 C969 1.403 . S
C967 C964 1.403 . S
C967 C968 1.524 . S
C967 C971 1.400 . S
C968 H953 0.960 . S
C968 H954 0.960 . S
C968 H955 0.960 . S
C968 C967 1.524 . S
C969 C966 1.403 . S
C969 C970 1.392 . S
C969 C973 1.495 . S
C970 C969 1.392 . S
C970 C971 1.385 . S
C970 C972 1.478 . S
C971 H965 0.930 . S
C971 C967 1.400 . S
C971 C970 1.385 . S
C972 C970 1.478 . S
C972 C974 1.381 . S
C972 C978 1.383 . S
C973 C969 1.495 . S
C973 H979 0.959 . S
C973 H980 0.961 . S
C973 H981 0.960 . S
C974 C972 1.381 . S
C974 C975 1.394 . S
C974 H982 0.930 . S
C975 C974 1.394 . S
C975 C976 1.383 . S
C975 H983 0.929 . S
C976 C975 1.383 . S
C976 C977 1.377 . S
C977 H961 0.930 . S
C977 C976 1.377 . S
C977 C978 1.379 . S
C978 H962 0.931 . S
C978 C972 1.383 . S
C978 C977 1.379 . S
H979 C973 0.959 . S
H980 C973 0.961 . S
H981 C973 0.960 . S
H982 C974 0.930 . S
H983 C975 0.929 . S
C273 C21 1.464 . S
C292 C120 1.458 . S
C309 C54 1.468 . S
C328 C87 1.473 . S
C345 C252 1.469 . S
C364 C153 1.472 . S
C381 C186 1.467 . S
C400 C219 1.457 . S
C417 N68 1.099 . S
C436 N2 1.122 . S
C453 N101 1.088 . S
C472 N35 1.071 . S
C489 C40 1.447 . S
C508 C106 1.422 . S
C525 C7 1.441 . S
C544 C73 1.459 . S
C561 N200 1.098 . S
C580 N134 1.117 . S
C597 N167 1.086 . S
C616 N233 1.060 . S
C633 C172 1.448 . S
C652 C238 1.418 . S
C669 C205 1.448 . S
C688 C139 1.418 . S
C705 C18 1.339 . S
C724 N178 1.333 . S
C741 C51 1.342 . S
C760 N145 1.329 . S
C777 N244 1.313 . S
C796 C84 1.330 . S
C813 C117 1.338 . S
C832 N211 1.327 . S
C849 N46 1.323 . S
C868 C150 1.345 . S
C885 C183 1.341 . S
C904 N13 1.340 . S
C921 C216 1.338 . S
C940 N112 1.292 . S
C957 C249 1.337 . S
C976 N79 1.317 . S
