# Generated by pormake.
# Topology zfj, (5)-cn, num edge types: 1
# Building blocks:
#     Node 0, Type 0, BuildingBlock: XOMCOT_clean_sbu_0, # of connection points: 5
#     Node 1, Type 0, BuildingBlock: XOMCOT_clean_sbu_0, # of connection points: 5
#     Node 2, Type 0, BuildingBlock: XOMCOT_clean_sbu_0, # of connection points: 5
#     Node 3, Type 0, BuildingBlock: XOMCOT_clean_sbu_0, # of connection points: 5
#     Node 4, Type 0, BuildingBlock: XOMCOT_clean_sbu_0, # of connection points: 5
#     Node 5, Type 0, BuildingBlock: XOMCOT_clean_sbu_0, # of connection points: 5
#     Node 6, Type 0, BuildingBlock: XOMCOT_clean_sbu_0, # of connection points: 5
#     Node 7, Type 0, BuildingBlock: XOMCOT_clean_sbu_0, # of connection points: 5
#     Node 8, Type 0, BuildingBlock: XOMCOT_clean_sbu_0, # of connection points: 5
#     Node 9, Type 0, BuildingBlock: XOMCOT_clean_sbu_0, # of connection points: 5
#     Node 10, Type 0, BuildingBlock: XOMCOT_clean_sbu_0, # of connection points: 5
#     Node 11, Type 0, BuildingBlock: XOMCOT_clean_sbu_0, # of connection points: 5
#     Node 12, Type 0, BuildingBlock: XOMCOT_clean_sbu_0, # of connection points: 5
#     Node 13, Type 0, BuildingBlock: XOMCOT_clean_sbu_0, # of connection points: 5
#     Node 14, Type 0, BuildingBlock: XOMCOT_clean_sbu_0, # of connection points: 5
#     Node 15, Type 0, BuildingBlock: XOMCOT_clean_sbu_0, # of connection points: 5
#     Edge 16, Type (0, 0), BuildingBlock: XUDNAN_clean_linker_2, # of connection points: 2
#     Edge 17, Type (0, 0), BuildingBlock: XUDNAN_clean_linker_2, # of connection points: 2
#     Edge 18, Type (0, 0), BuildingBlock: XUDNAN_clean_linker_2, # of connection points: 2
#     Edge 19, Type (0, 0), BuildingBlock: XUDNAN_clean_linker_2, # of connection points: 2
#     Edge 20, Type (0, 0), BuildingBlock: XUDNAN_clean_linker_2, # of connection points: 2
#     Edge 21, Type (0, 0), BuildingBlock: XUDNAN_clean_linker_2, # of connection points: 2
#     Edge 22, Type (0, 0), BuildingBlock: XUDNAN_clean_linker_2, # of connection points: 2
#     Edge 23, Type (0, 0), BuildingBlock: XUDNAN_clean_linker_2, # of connection points: 2
#     Edge 24, Type (0, 0), BuildingBlock: XUDNAN_clean_linker_2, # of connection points: 2
#     Edge 25, Type (0, 0), BuildingBlock: XUDNAN_clean_linker_2, # of connection points: 2
#     Edge 26, Type (0, 0), BuildingBlock: XUDNAN_clean_linker_2, # of connection points: 2
#     Edge 27, Type (0, 0), BuildingBlock: XUDNAN_clean_linker_2, # of connection points: 2
#     Edge 28, Type (0, 0), BuildingBlock: XUDNAN_clean_linker_2, # of connection points: 2
#     Edge 29, Type (0, 0), BuildingBlock: XUDNAN_clean_linker_2, # of connection points: 2
#     Edge 30, Type (0, 0), BuildingBlock: XUDNAN_clean_linker_2, # of connection points: 2
#     Edge 31, Type (0, 0), BuildingBlock: XUDNAN_clean_linker_2, # of connection points: 2
#     Edge 32, Type (0, 0), BuildingBlock: XUDNAN_clean_linker_2, # of connection points: 2
#     Edge 33, Type (0, 0), BuildingBlock: XUDNAN_clean_linker_2, # of connection points: 2
#     Edge 34, Type (0, 0), BuildingBlock: XUDNAN_clean_linker_2, # of connection points: 2
#     Edge 35, Type (0, 0), BuildingBlock: XUDNAN_clean_linker_2, # of connection points: 2
#     Edge 36, Type (0, 0), BuildingBlock: XUDNAN_clean_linker_2, # of connection points: 2
#     Edge 37, Type (0, 0), BuildingBlock: XUDNAN_clean_linker_2, # of connection points: 2
#     Edge 38, Type (0, 0), BuildingBlock: XUDNAN_clean_linker_2, # of connection points: 2
#     Edge 39, Type (0, 0), BuildingBlock: XUDNAN_clean_linker_2, # of connection points: 2
#     Edge 40, Type (0, 0), BuildingBlock: XUDNAN_clean_linker_2, # of connection points: 2
#     Edge 41, Type (0, 0), BuildingBlock: XUDNAN_clean_linker_2, # of connection points: 2
#     Edge 42, Type (0, 0), BuildingBlock: XUDNAN_clean_linker_2, # of connection points: 2
#     Edge 43, Type (0, 0), BuildingBlock: XUDNAN_clean_linker_2, # of connection points: 2
#     Edge 44, Type (0, 0), BuildingBlock: XUDNAN_clean_linker_2, # of connection points: 2
#     Edge 45, Type (0, 0), BuildingBlock: XUDNAN_clean_linker_2, # of connection points: 2
#     Edge 46, Type (0, 0), BuildingBlock: XUDNAN_clean_linker_2, # of connection points: 2
#     Edge 47, Type (0, 0), BuildingBlock: XUDNAN_clean_linker_2, # of connection points: 2
#     Edge 48, Type (0, 0), BuildingBlock: XUDNAN_clean_linker_2, # of connection points: 2
#     Edge 49, Type (0, 0), BuildingBlock: XUDNAN_clean_linker_2, # of connection points: 2
#     Edge 50, Type (0, 0), BuildingBlock: XUDNAN_clean_linker_2, # of connection points: 2
#     Edge 51, Type (0, 0), BuildingBlock: XUDNAN_clean_linker_2, # of connection points: 2
#     Edge 52, Type (0, 0), BuildingBlock: XUDNAN_clean_linker_2, # of connection points: 2
#     Edge 53, Type (0, 0), BuildingBlock: XUDNAN_clean_linker_2, # of connection points: 2
#     Edge 54, Type (0, 0), BuildingBlock: XUDNAN_clean_linker_2, # of connection points: 2
#     Edge 55, Type (0, 0), BuildingBlock: XUDNAN_clean_linker_2, # of connection points: 2
# Relax obj value: 0.189
# Max RMSD: 0.167
# Mean RMSD: 0.167
data_MOF--net-zfj--node1-XOMCOT_clean_sbu_0--edge1-XUDNAN_clean_linker_2
_symmetry_space_group_name_H-M    P1
_symmetry_Int_Tables_number       1
_symmetry_cell_setting            triclinic
loop_
_symmetry_equiv_pos_as_xyz
'x, y, z'
_cell_length_a     35.069905
_cell_length_b     35.309983
_cell_length_c     49.411898
_cell_angle_alpha  89.996102
_cell_angle_beta   90.160057
_cell_angle_gamma 89.981738
loop_
_atom_site_label
_atom_site_type_symbol
_atom_site_fract_x
_atom_site_fract_y
_atom_site_fract_z
_atom_type_partial_charge
Co0 Co 0.51601 0.1711 0.12288 0.0
C1 C 0.51384 0.25551 0.12766 0.0
C2 C 0.46186 0.22975 0.14075 0.0
C3 C 0.45763 0.26849 0.14196 0.0
N4 N 0.49746 0.22145 0.13238 0.0
N5 N 0.49039 0.28472 0.13368 0.0
H6 H 0.54124 0.25917 0.11828 0.0
H7 H 0.43984 0.20909 0.14476 0.0
C8 C 0.48009 0.15834 0.17765 0.0
O9 O 0.4975 0.18793 0.18803 0.0
N10 N 0.53374 0.12107 0.11316 0.0
C11 C 0.56664 0.11248 0.10062 0.0
C12 C 0.57021 0.07364 0.09954 0.0
C13 C 0.51766 0.0875 0.11945 0.0
N14 N 0.53944 0.05791 0.1115 0.0
C15 C 0.58919 0.20188 0.13544 0.0
C16 C 0.60395 0.15917 0.18113 0.0
C17 C 0.63086 0.18616 0.17287 0.0
C18 C 0.6233 0.20707 0.14937 0.0
C19 C 0.56997 0.15483 0.16643 0.0
N20 N 0.56203 0.17751 0.14467 0.0
H21 H 0.58546 0.21661 0.11656 0.0
H22 H 0.55066 0.13252 0.17225 0.0
H23 H 0.58704 0.13304 0.09333 0.0
H24 H 0.49119 0.08482 0.13044 0.0
O25 O 0.53421 0.19057 0.08875 0.0
O26 O 0.47618 0.16784 0.09602 0.0
O27 O 0.48615 0.14827 0.15328 0.0
C28 C 0.50034 0.18309 0.07936 0.0
H29 H 0.43209 0.2834 0.14802 0.0
H30 H 0.59384 0.05829 0.09076 0.0
H31 H 0.60912 0.14143 0.19863 0.0
H32 H 0.64414 0.22654 0.14116 0.0
Co33 Co 0.27514 0.51707 0.63423 0.0
C34 C 0.19578 0.48797 0.62411 0.0
C35 C 0.21164 0.48566 0.66596 0.0
C36 C 0.17311 0.47884 0.66387 0.0
N37 N 0.22607 0.49206 0.64109 0.0
N38 N 0.16286 0.48106 0.6376 0.0
H39 H 0.19683 0.49443 0.60273 0.0
H40 H 0.2271 0.48912 0.68474 0.0
C41 C 0.32228 0.50558 0.6857 0.0
O42 O 0.34339 0.53536 0.68064 0.0
N43 N 0.32402 0.54166 0.62714 0.0
C44 C 0.33016 0.57842 0.62117 0.0
C45 C 0.36882 0.58427 0.6183 0.0
C46 C 0.35897 0.52529 0.6263 0.0
N47 N 0.38696 0.55091 0.62169 0.0
C48 C 0.22037 0.575 0.63678 0.0
C49 C 0.25548 0.62426 0.67207 0.0
C50 C 0.22276 0.63629 0.65794 0.0
C51 C 0.20387 0.60983 0.64178 0.0
C52 C 0.2699 0.58749 0.6678 0.0
N53 N 0.25333 0.56383 0.64922 0.0
H54 H 0.20741 0.5581 0.62126 0.0
H55 H 0.29572 0.57991 0.67792 0.0
H56 H 0.30815 0.59967 0.61908 0.0
H57 H 0.36392 0.49555 0.63034 0.0
O58 O 0.26153 0.52703 0.59734 0.0
O59 O 0.29084 0.47491 0.6114 0.0
O60 O 0.29435 0.49641 0.67027 0.0
C61 C 0.27699 0.49473 0.59137 0.0
H62 H 0.1538 0.47488 0.68067 0.0
H63 H 0.38253 0.61102 0.61388 0.0
H64 H 0.2711 0.64357 0.685 0.0
H65 H 0.17762 0.61676 0.63129 0.0
Co66 Co 1.00302 0.29136 0.14575 0.0
C67 C 1.00089 0.20762 0.14353 0.0
C68 C 0.04717 0.22747 0.16825 0.0
C69 C 0.04867 0.18854 0.16722 0.0
N70 N 0.0171 0.23941 0.15349 0.0
N71 N 0.01972 0.17614 0.15154 0.0
H72 H 0.97625 0.20755 0.13029 0.0
H73 H 0.06747 0.24566 0.17836 0.0
C74 C 0.02539 0.33131 0.19705 0.0
O75 O 0.99172 0.34759 0.19777 0.0
N76 N 0.9899 0.34399 0.1371 0.0
C77 C 0.96273 0.35607 0.11964 0.0
C78 C 0.96406 0.39479 0.11776 0.0
C79 C 0.00917 0.37592 0.14388 0.0
N80 N 0.99307 0.40731 0.13319 0.0
C81 C 0.9581 0.26895 0.19266 0.0
C82 C 0.88882 0.27818 0.1667 0.0
C83 C 0.8892 0.26237 0.19262 0.0
C84 C 0.92441 0.2577 0.20576 0.0
C85 C 0.9228 0.28808 0.15427 0.0
N86 N 0.95696 0.28432 0.16722 0.0
H87 H 0.98515 0.26355 0.20245 0.0
H88 H 0.9214 0.29608 0.13341 0.0
H89 H 0.94439 0.33832 0.10755 0.0
H90 H 0.03482 0.37642 0.156 0.0
O91 O 0.98267 0.27584 0.11144 0.0
O92 O 0.04259 0.2936 0.11845 0.0
O93 O 0.0339 0.30837 0.17803 0.0
C94 C 0.01636 0.28204 0.10161 0.0
H95 H 0.07049 0.17084 0.17622 0.0
H96 H 0.94586 0.41232 0.10521 0.0
H97 H 0.86253 0.28058 0.15524 0.0
H98 H 0.92596 0.24465 0.22557 0.0
Co99 Co 0.21164 0.03599 0.63646 0.0
C100 C 0.29649 0.0297 0.63429 0.0
C101 C 0.27951 0.06807 0.66541 0.0
C102 C 0.31882 0.06796 0.66401 0.0
N103 N 0.26522 0.04299 0.64735 0.0
N104 N 0.32936 0.04391 0.64429 0.0
H105 H 0.29546 0.01143 0.61678 0.0
H106 H 0.26289 0.08724 0.67763 0.0
C107 C 0.20058 0.05331 0.69503 0.0
O108 O 0.22521 0.02651 0.70103 0.0
N109 N 0.15872 0.0297 0.62491 0.0
C110 C 0.1463 0.00619 0.60526 0.0
C111 C 0.10704 1.0051 0.6057 0.0
C112 C 0.12661 0.04265 0.63697 0.0
N113 N 0.09464 0.02773 0.62583 0.0
C114 C 0.23492 0.95921 0.64444 0.0
C115 C 0.17203 0.93677 0.67402 0.0
C116 C 0.1974 0.90947 0.66437 0.0
C117 C 0.22978 0.92106 0.65029 0.0
C118 C 0.17861 0.97497 0.66811 0.0
N119 N 0.20936 0.98579 0.65289 0.0
H120 H 0.25773 0.96657 0.63107 0.0
H121 H 0.15754 0.99544 0.67433 0.0
H122 H 0.16445 0.98917 0.59246 0.0
H123 H 0.1265 0.06115 0.65438 0.0
O124 O 0.22845 0.02094 0.60132 0.0
O125 O 0.21634 0.08031 0.61342 0.0
O126 O 0.19332 0.06135 0.67038 0.0
C127 C 0.2279 0.05662 0.59493 0.0
H128 H 0.33799 0.08607 0.67533 0.0
H129 H 0.08917 0.987 0.59336 0.0
H130 H 0.14615 0.9285 0.68438 0.0
H131 H 0.24928 0.9004 0.64183 0.0
Co132 Co 0.49334 0.29074 0.8494 0.0
C133 C 0.49865 0.20787 0.83897 0.0
C134 C 0.442 0.22908 0.83306 0.0
C135 C 0.44088 0.19013 0.83223 0.0
N136 N 0.47828 0.24046 0.83686 0.0
N137 N 0.47644 0.17656 0.83626 0.0
H138 H 0.52847 0.20715 0.84466 0.0
H139 H 0.41753 0.24773 0.83294 0.0
C140 C 0.44426 0.31242 0.79903 0.0
O141 O 0.44439 0.2791 0.78728 0.0
N142 N 0.50736 0.34134 0.86259 0.0
C143 C 0.5113 0.35325 0.88844 0.0
C144 C 0.51818 0.39164 0.88859 0.0
C145 C 0.51243 0.37298 0.84744 0.0
N146 N 0.51874 0.40417 0.86282 0.0
C147 C 0.57199 0.29948 0.83917 0.0
C148 C 0.57341 0.26877 0.78773 0.0
C149 C 0.60794 0.27816 0.80047 0.0
C150 C 0.60678 0.29442 0.82628 0.0
C151 C 0.53885 0.27513 0.80123 0.0
N152 N 0.53855 0.28984 0.82681 0.0
H153 H 0.57209 0.30949 0.85983 0.0
H154 H 0.51275 0.26613 0.79173 0.0
H155 H 0.50916 0.33572 0.90626 0.0
H156 H 0.51073 0.37328 0.82558 0.0
O157 O 0.51542 0.26716 0.88068 0.0
O158 O 0.45527 0.28656 0.87759 0.0
O159 O 0.4618 0.31803 0.82135 0.0
C160 C 0.48197 0.27005 0.89176 0.0
H161 H 0.41536 0.17319 0.83004 0.0
H162 H 0.52269 0.40894 0.90639 0.0
H163 H 0.57321 0.25568 0.7679 0.0
H164 H 0.63275 0.30109 0.83721 0.0
Co165 Co 0.25365 0.49406 0.35009 0.0
C166 C 0.33736 0.47874 0.35706 0.0
C167 C 0.32024 0.47176 0.31577 0.0
C168 C 0.35945 0.46812 0.3174 0.0
N169 N 0.30611 0.47873 0.34067 0.0
N170 N 0.37029 0.47272 0.34341 0.0
H171 H 0.33656 0.48564 0.37832 0.0
H172 H 0.30372 0.47109 0.29734 0.0
C173 C 0.22573 0.46935 0.29415 0.0
O174 O 0.23681 0.50067 0.28229 0.0
N175 N 0.20143 0.50864 0.36014 0.0
C176 C 0.19199 0.53525 0.37858 0.0
C177 C 0.15298 0.53956 0.37895 0.0
C178 C 0.16754 0.49718 0.34953 0.0
N179 N 0.13756 0.51592 0.36054 0.0
C180 C 0.29292 0.56004 0.33173 0.0
C181 C 0.22949 0.59845 0.31307 0.0
C182 C 0.26322 0.61839 0.31796 0.0
C183 C 0.29577 0.59834 0.32558 0.0
C184 C 0.22811 0.5596 0.31863 0.0
N185 N 0.25908 0.54108 0.32929 0.0
H186 H 0.31721 0.54723 0.34138 0.0
H187 H 0.20118 0.54531 0.31614 0.0
H188 H 0.21207 0.5517 0.39033 0.0
H189 H 0.16474 0.47657 0.33347 0.0
O190 O 0.27146 0.51362 0.38413 0.0
O191 O 0.25197 0.45455 0.3773 0.0
O192 O 0.23251 0.46313 0.31915 0.0
C193 C 0.26436 0.48024 0.3941 0.0
H194 H 0.3785 0.46324 0.30057 0.0
H195 H 0.1373 0.56009 0.3908 0.0
H196 H 0.20355 0.61331 0.30763 0.0
H197 H 0.32203 0.61317 0.33032 0.0
Co198 Co 0.98801 0.21742 0.86369 0.0
C199 C 0.99238 0.301 0.85553 0.0
C200 C 0.04566 0.27366 0.84756 0.0
C201 C 0.05069 0.31224 0.84522 0.0
N202 N 1.00887 0.26649 0.85354 0.0
N203 N 0.0171 0.32942 0.85026 0.0
H204 H 0.96369 0.3057 0.8624 0.0
H205 H 0.06771 0.25237 0.84593 0.0
C206 C 0.02855 0.20048 0.81094 0.0
O207 O 0.01515 0.23104 0.7991 0.0
N208 N 0.96774 0.16865 0.87404 0.0
C209 C 0.93187 0.1613 0.88219 0.0
C210 C 0.92735 0.12263 0.88422 0.0
C211 C 0.98476 0.13454 0.8716 0.0
N212 N 0.96061 0.10593 0.87753 0.0
C213 C 0.9156 0.24869 0.84933 0.0
C214 C 0.90272 0.2055 0.80361 0.0
C215 C 0.87448 0.2311 0.81194 0.0
C216 C 0.88139 0.25269 0.83525 0.0
C217 C 0.93664 0.20222 0.81847 0.0
N218 N 0.94339 0.22465 0.84055 0.0
H219 H 0.91871 0.2637 0.86817 0.0
H220 H 0.95643 0.18031 0.81277 0.0
H221 H 0.91015 0.18251 0.88558 0.0
H222 H 0.01369 0.13063 0.86456 0.0
O223 O 0.96924 0.23903 0.89714 0.0
O224 O 0.02646 0.21357 0.89139 0.0
O225 O 0.01846 0.19168 0.83486 0.0
C226 C 1.00239 0.2303 0.90733 0.0
H227 H 0.07723 0.32645 0.84064 0.0
H228 H 0.90151 0.10791 0.8899 0.0
H229 H 0.89838 0.1875 0.78613 0.0
H230 H 0.8598 0.27132 0.84348 0.0
Co231 Co 0.30384 0.02173 0.36711 0.0
C232 C 0.2193 0.02329 0.35634 0.0
C233 C 0.24596 0.07718 0.35075 0.0
C234 C 0.20738 0.0812 0.34614 0.0
N235 N 0.25352 0.04081 0.35727 0.0
N236 N 0.19083 0.04714 0.34958 0.0
H237 H 0.21431 0.9941 0.36104 0.0
H238 H 0.26711 0.09941 0.34963 0.0
C239 C 0.30865 0.03679 0.30801 0.0
O240 O 0.27557 0.01989 0.30483 0.0
N241 N 0.35405 1.00403 0.37674 0.0
C242 C 0.36282 0.97306 0.39142 0.0
C243 C 0.40184 0.96847 0.39129 0.0
C244 C 0.38758 0.01816 0.36819 0.0
N245 N 0.41725 0.99684 0.37666 0.0
C246 C 0.26839 0.94974 0.36969 0.0
C247 C 0.31001 0.9142 0.32971 0.0
C248 C 0.28507 0.89273 0.3457 0.0
C249 C 0.26309 0.91146 0.3651 0.0
C250 C 0.31356 0.9533 0.33444 0.0
N251 N 0.29243 0.97078 0.35411 0.0
H252 H 0.25376 0.96215 0.38667 0.0
H253 H 0.33526 0.96872 0.3236 0.0
H254 H 0.34224 0.9546 0.40094 0.0
H255 H 0.39014 0.04276 0.35526 0.0
O256 O 0.28802 0.01501 0.40384 0.0
O257 O 0.31277 0.06812 0.38754 0.0
O258 O 0.32401 0.03894 0.33134 0.0
C259 C 0.29908 0.04952 0.40809 0.0
H260 H 0.19269 0.1071 0.34073 0.0
H261 H 0.41763 0.94593 0.40107 0.0
H262 H 0.32824 0.90063 0.31495 0.0
H263 H 0.24324 0.89622 0.37785 0.0
Co264 Co 0.51966 0.78924 0.85984 0.0
C265 C 0.52876 0.70333 0.85212 0.0
C266 C 0.57454 0.73651 0.83625 0.0
C267 C 0.58196 0.69901 0.83097 0.0
N268 N 0.5406 0.7398 0.84885 0.0
N269 N 0.55313 0.67809 0.84089 0.0
H270 H 0.50336 0.69455 0.86242 0.0
H271 H 0.59294 0.76003 0.83119 0.0
C272 C 0.53587 0.80157 0.80111 0.0
O273 O 0.51747 0.77019 0.79527 0.0
N274 N 0.50115 0.83921 0.87024 0.0
C275 C 0.46975 0.84768 0.88463 0.0
C276 C 0.46522 0.88658 0.88494 0.0
C277 C 0.51545 0.87304 0.86227 0.0
N278 N 0.49391 0.90263 0.87074 0.0
C279 C 0.44983 0.74985 0.85706 0.0
C280 C 0.41132 0.79817 0.82266 0.0
C281 C 0.39117 0.7695 0.83616 0.0
C282 C 0.41147 0.74408 0.85228 0.0
C283 C 0.45083 0.80204 0.82721 0.0
N284 N 0.46959 0.77803 0.84452 0.0
H285 H 0.46224 0.73385 0.87325 0.0
H286 H 0.46547 0.82611 0.81862 0.0
H287 H 0.45088 0.82701 0.89363 0.0
H288 H 0.54049 0.87584 0.84975 0.0
O289 O 0.50953 0.77072 0.89534 0.0
O290 O 0.56448 0.79633 0.8829 0.0
O291 O 0.53914 0.81243 0.82558 0.0
C292 C 0.54372 0.78101 0.90185 0.0
H293 H 0.60698 0.68793 0.82093 0.0
H294 H 0.44229 0.90172 0.89477 0.0
H295 H 0.3964 0.81884 0.81038 0.0
H296 H 0.39706 0.72171 0.86326 0.0
Co297 Co 0.75297 0.52266 0.36276 0.0
C298 C 0.83738 0.5359 0.35377 0.0
C299 C 0.80293 0.56645 0.32547 0.0
C300 C 0.84072 0.57136 0.31867 0.0
N301 N 0.80042 0.54258 0.34675 0.0
N302 N 0.86237 0.55191 0.33642 0.0
H303 H 0.8465 0.52002 0.3712 0.0
H304 H 0.77899 0.57938 0.31523 0.0
C305 C 0.73176 0.52193 0.30373 0.0
O306 O 0.76262 0.50233 0.29815 0.0
N307 N 0.70589 0.50357 0.37859 0.0
C308 C 0.70381 0.47856 0.39908 0.0
C309 C 0.6661 0.47033 0.40392 0.0
C310 C 0.66915 0.51009 0.37111 0.0
N311 N 0.64412 0.49008 0.38639 0.0
C312 C 0.79841 0.45622 0.36544 0.0
C313 C 0.75241 0.40877 0.33553 0.0
C314 C 0.78649 0.39433 0.34661 0.0
C315 C 0.80981 0.41921 0.36118 0.0
C316 C 0.74291 0.44709 0.3393 0.0
N317 N 0.76666 0.47073 0.35339 0.0
H318 H 0.81434 0.47232 0.37989 0.0
H319 H 0.71585 0.4573 0.33176 0.0
H320 H 0.72816 0.46654 0.40946 0.0
H321 H 0.66086 0.52909 0.35495 0.0
O322 O 0.77641 0.5241 0.3978 0.0
O323 O 0.74387 0.57159 0.37954 0.0
O324 O 0.72442 0.53158 0.32803 0.0
C325 C 0.76343 0.55836 0.39993 0.0
H326 H 0.85145 0.58784 0.30186 0.0
H327 H 0.65574 0.45049 0.41889 0.0
H328 H 0.7326 0.39056 0.32488 0.0
H329 H 0.83648 0.41023 0.37017 0.0
Co330 Co 0.9929 0.71866 0.85716 0.0
C331 C 0.98001 0.80184 0.86158 0.0
C332 C 0.9503 0.77946 0.82727 0.0
C333 C 0.94437 0.8181 0.82824 0.0
N334 N 0.97348 0.7692 0.8479 0.0
N335 N 0.96355 0.83208 0.84966 0.0
H336 H 0.99785 0.80389 0.8794 0.0
H337 H 0.93846 0.76073 0.81223 0.0
C338 C 0.96574 0.69269 0.80179 0.0
O339 O 0.99341 0.71077 0.7895 0.0
N340 N 0.01064 0.6684 0.86724 0.0
C341 C 0.04273 0.65984 0.88101 0.0
C342 C 0.04578 0.62102 0.88288 0.0
C343 C 0.99436 0.63473 0.86128 0.0
N344 N 0.01543 0.6052 0.87036 0.0
C345 C 0.05674 0.75967 0.83559 0.0
C346 C 0.09545 0.69713 0.81648 0.0
C347 C 0.11516 0.73115 0.82036 0.0
C348 C 0.09477 0.76318 0.82816 0.0
C349 C 0.05664 0.69515 0.82312 0.0
N350 N 0.03829 0.72559 0.83441 0.0
H351 H 0.04415 0.78381 0.84506 0.0
H352 H 0.04244 0.66811 0.82141 0.0
H353 H 0.06298 0.68036 0.88863 0.0
H354 H 0.96819 0.63186 0.84986 0.0
O355 O 0.01442 0.73793 0.89021 0.0
O356 O 0.95543 0.71588 0.88586 0.0
O357 O 0.96138 0.6951 0.82738 0.0
C358 C 0.98188 0.73008 0.90145 0.0
H359 H 0.92839 0.83476 0.81373 0.0
H360 H 0.06871 0.60575 0.8927 0.0
H361 H 0.11056 0.67159 0.81079 0.0
H362 H 0.10937 0.78974 0.83193 0.0
Co363 Co 0.80367 1.00248 0.35712 0.0
C364 C 0.71946 1.00214 0.35145 0.0
C365 C 0.74434 0.95693 0.32879 0.0
C366 C 0.70518 0.95442 0.32655 0.0
N367 N 0.75343 0.98765 0.34381 0.0
N368 N 0.68982 0.98321 0.34063 0.0
H369 H 0.71595 0.02454 0.36611 0.0
H370 H 0.76441 0.93659 0.32088 0.0
C371 C 0.82664 0.97303 0.30241 0.0
O372 O 0.80434 0.99763 0.29026 0.0
N373 N 0.85334 0.01669 0.37106 0.0
C374 C 0.86079 0.04709 0.3867 0.0
C375 C 0.89963 0.05125 0.38894 0.0
C376 C 0.88774 1.00259 0.36419 0.0
N377 N 0.91658 0.02351 0.37453 0.0
C378 C 0.77602 0.07472 0.3388 0.0
C379 C 0.84295 0.09614 0.31373 0.0
C380 C 0.81505 0.12339 0.31897 0.0
C381 C 0.78048 0.112 0.33024 0.0
C382 C 0.83676 0.05868 0.32171 0.0
N383 N 0.80421 0.04855 0.33519 0.0
H384 H 0.75161 0.06854 0.35093 0.0
H385 H 0.85982 0.03875 0.31929 0.0
H386 H 0.83952 0.06613 0.39478 0.0
H387 H 0.89163 0.97914 0.35042 0.0
O388 O 0.78098 0.0228 0.38953 0.0
O389 O 0.80032 0.96338 0.38426 0.0
O390 O 0.8288 0.97141 0.32813 0.0
C391 C 0.78584 0.98927 0.39993 0.0
H392 H 0.68927 0.93294 0.31571 0.0
H393 H 0.9141 0.07375 0.3997 0.0
H394 H 0.87044 0.10428 0.30567 0.0
H395 H 0.75888 0.13271 0.33547 0.0
Co396 Co 0.51647 0.67197 0.12818 0.0
C397 C 0.51956 0.75522 0.13644 0.0
C398 C 0.57278 0.72872 0.14611 0.0
C399 C 0.57733 0.76744 0.14786 0.0
N400 N 0.53631 0.72098 0.13938 0.0
N401 N 0.54376 0.78406 0.14172 0.0
H402 H 0.4912 0.75935 0.12859 0.0
H403 H 0.59502 0.70773 0.14837 0.0
C404 C 0.55436 0.65463 0.18215 0.0
O405 O 0.54146 0.68585 0.19333 0.0
N406 N 0.49725 0.62323 0.11673 0.0
C407 C 0.46305 0.6158 0.10549 0.0
C408 C 0.45928 0.57709 0.10275 0.0
C409 C 0.51392 0.58918 0.12046 0.0
N410 N 0.49128 0.56036 0.11225 0.0
C411 C 0.44301 0.70282 0.13901 0.0
C412 C 0.42833 0.66602 0.18713 0.0
C413 C 0.40145 0.69214 0.17723 0.0
C414 C 0.40903 0.70985 0.15247 0.0
C415 C 0.46226 0.65955 0.17273 0.0
N416 N 0.47012 0.67932 0.14957 0.0
H417 H 0.44691 0.71613 0.11962 0.0
H418 H 0.48146 0.63801 0.18004 0.0
H419 H 0.442 0.63696 0.10023 0.0
H420 H 0.54156 0.58551 0.12983 0.0
O421 O 0.49977 0.69439 0.09461 0.0
O422 O 0.55671 0.66905 0.10139 0.0
O423 O 0.54501 0.64577 0.15803 0.0
C424 C 0.53351 0.68687 0.08525 0.0
H425 H 0.60359 0.78213 0.15257 0.0
H426 H 0.43473 0.56249 0.09452 0.0
H427 H 0.42321 0.65061 0.20571 0.0
H428 H 0.38838 0.72844 0.14298 0.0
Co429 Co 0.77895 0.52716 0.62506 0.0
C430 C 0.69563 0.54257 0.62304 0.0
C431 C 0.72067 0.56745 0.65835 0.0
C432 C 0.68153 0.57227 0.65949 0.0
N433 N 0.72955 0.5483 0.63558 0.0
N434 N 0.66584 0.5561 0.63739 0.0
H435 H 0.69239 0.52834 0.60386 0.0
H436 H 0.74084 0.57614 0.67371 0.0
C437 C 0.82929 0.52688 0.67537 0.0
O438 O 0.85092 0.49957 0.66601 0.0
N439 N 0.82749 0.50557 0.61335 0.0
C440 C 0.83107 0.47253 0.5999 0.0
C441 C 0.86866 0.46714 0.59319 0.0
C442 C 0.86322 0.52049 0.61382 0.0
N443 N 0.88897 0.49698 0.60217 0.0
C444 C 0.73389 0.46169 0.6154 0.0
C445 C 0.75637 0.41833 0.65889 0.0
C446 C 0.72989 0.40285 0.64043 0.0
C447 C 0.7178 0.42623 0.6191 0.0
C448 C 0.76997 0.45541 0.65538 0.0
N449 N 0.75936 0.47651 0.63342 0.0
H450 H 0.72574 0.47693 0.59749 0.0
H451 H 0.78933 0.46627 0.67025 0.0
H452 H 0.80789 0.45359 0.59499 0.0
H453 H 0.8703 0.5475 0.62289 0.0
O454 O 0.76426 0.52953 0.58757 0.0
O455 O 0.79368 0.57571 0.6098 0.0
O456 O 0.79873 0.53691 0.66308 0.0
C457 C 0.77887 0.56324 0.58736 0.0
H458 H 0.66575 0.58483 0.676 0.0
H459 H 0.88038 0.44267 0.58295 0.0
H460 H 0.76726 0.40218 0.6758 0.0
H461 H 0.69616 0.4177 0.60477 0.0
Co462 Co 0.02408 0.79359 0.13851 0.0
C463 C 0.02495 0.71025 0.14606 0.0
C464 C 0.97411 0.73606 0.16179 0.0
C465 C 0.97124 0.6975 0.16494 0.0
N466 N 1.00772 0.74399 0.15 0.0
N467 N 1.00312 0.6813 0.15499 0.0
H468 H 0.05211 0.70692 0.13598 0.0
H469 H 0.95269 0.7568 0.16708 0.0
C470 C 0.01035 0.83898 0.18897 0.0
O471 O 0.04434 0.85433 0.18693 0.0
N472 N 0.03902 0.84418 0.12613 0.0
C473 C 0.06196 0.85237 0.10491 0.0
C474 C 0.06007 0.89049 0.09938 0.0
C475 C 0.02231 0.87772 0.13229 0.0
N476 N 0.0354 0.90626 0.11678 0.0
C477 C 0.10538 0.7889 0.14422 0.0
C478 C 0.10629 0.76312 0.19707 0.0
C479 C 0.14087 0.76657 0.18314 0.0
C480 C 0.14006 0.7799 0.15645 0.0
C481 C 0.07209 0.7731 0.18415 0.0
N482 N 0.07193 0.78624 0.15807 0.0
H483 H 0.10551 0.7961 0.12312 0.0
H484 H 0.04557 0.76888 0.19482 0.0
H485 H 0.07729 0.83196 0.09285 0.0
H486 H 0.99921 0.88117 0.14648 0.0
O487 O 0.03875 0.77277 0.10402 0.0
O488 O 0.98137 0.79551 0.11367 0.0
O489 O 0.9984 0.81535 0.17137 0.0
C490 C 1.00415 0.78014 0.09602 0.0
H491 H 0.94728 0.68249 0.17358 0.0
H492 H 0.07488 0.90537 0.08339 0.0
H493 H 0.10561 0.75228 0.21757 0.0
H494 H 0.16592 0.78157 0.14456 0.0
Co495 Co 0.71148 0.01097 0.63529 0.0
C496 C 0.79543 0.01088 0.64618 0.0
C497 C 0.76642 0.97427 0.67381 0.0
C498 C 0.80479 0.97376 0.6799 0.0
N499 N 0.76007 0.99862 0.65317 0.0
N500 N 0.82294 0.99678 0.66249 0.0
H501 H 0.80121 0.03003 0.62961 0.0
H502 H 0.74529 0.95683 0.68349 0.0
C503 C 0.67642 0.98218 0.68778 0.0
O504 O 0.69411 0.0076 0.70262 0.0
N505 N 0.66364 0.02302 0.61681 0.0
C506 C 0.65926 0.04888 0.5969 0.0
C507 C 0.62129 0.05128 0.59008 0.0
C508 C 0.62788 0.01036 0.62199 0.0
N509 N 0.60164 0.02733 0.60599 0.0
C510 C 0.73545 0.08376 0.65432 0.0
C511 C 0.66448 0.10641 0.67239 0.0
C512 C 0.6932 0.13343 0.66913 0.0
C513 C 0.72956 0.12151 0.66141 0.0
C514 C 0.6719 0.06863 0.66588 0.0
N515 N 0.70656 0.05795 0.65573 0.0
H516 H 0.76216 0.07652 0.64512 0.0
H517 H 0.64859 0.04875 0.66677 0.0
H518 H 0.68189 0.06585 0.58838 0.0
H519 H 0.62084 0.98994 0.63749 0.0
O520 O 0.73904 0.03 0.60436 0.0
O521 O 0.72015 0.9705 0.60995 0.0
O522 O 0.68187 0.98049 0.66232 0.0
C523 C 0.73659 0.99572 0.59475 0.0
H524 H 0.81846 0.95702 0.69551 0.0
H525 H 0.60883 0.07033 0.57534 0.0
H526 H 0.63578 0.11491 0.67772 0.0
H527 H 0.75205 0.14195 0.65785 0.0
H528 H 0.54754 0.20255 0.03788 0.0
H529 H 0.4283 0.18675 0.05814 0.0
H530 H 0.40987 0.20722 0.01202 0.0
H531 H 0.53617 0.28512 -0.00231 0.0
H532 H 0.57183 0.27171 0.9733 0.0
H533 H 0.57541 0.25517 0.00768 0.0
H534 H 0.57774 0.18569 0.99074 0.0
H535 H 0.57438 0.20203 0.95629 0.0
H536 H 0.54028 0.16829 0.96899 0.0
H537 H 0.40472 0.23274 0.96405 0.0
H538 H 0.41378 0.2568 0.91733 0.0
H539 H 0.5364 0.25303 0.92894 0.0
C540 C 0.51756 0.20322 0.03258 0.0
C541 C 0.48932 0.19317 0.0515 0.0
C542 C 0.45039 0.19422 0.04382 0.0
C543 C 0.43965 0.20591 0.01775 0.0
C544 C 0.46824 0.21602 -0.00039 0.0
C545 C 0.50641 0.21437 0.00663 0.0
C546 C 0.53166 0.22641 0.98347 0.0
C547 C 0.55514 0.2617 0.991 0.0
C548 C 0.55753 0.19365 0.97434 0.0
C549 C 0.50177 0.23547 0.96237 0.0
C550 C 0.46532 0.22956 0.97201 0.0
C551 C 0.43315 0.23717 0.95622 0.0
C552 C 0.43852 0.25092 0.92981 0.0
C553 C 0.47573 0.25649 0.91957 0.0
C554 C 0.50759 0.24866 0.93614 0.0
H555 H 0.2713 0.53264 0.4338 0.0
H556 H 0.26773 0.41136 0.42031 0.0
H557 H 0.27451 0.40063 0.46977 0.0
H558 H 0.33905 0.53298 0.48909 0.0
H559 H 0.31469 0.57058 0.50665 0.0
H560 H 0.31242 0.5679 0.47028 0.0
H561 H 0.23851 0.5675 0.47235 0.0
H562 H 0.24054 0.57023 0.50868 0.0
H563 H 0.21468 0.53227 0.49258 0.0
H564 H 0.28115 0.40435 0.52183 0.0
H565 H 0.28185 0.42225 0.57055 0.0
H566 H 0.27752 0.54077 0.54789 0.0
C567 C 0.27244 0.50376 0.44114 0.0
C568 C 0.26939 0.47281 0.42328 0.0
C569 C 0.27019 0.43547 0.43374 0.0
C570 C 0.27415 0.42915 0.46175 0.0
C571 C 0.27693 0.46049 0.47888 0.0
C572 C 0.27582 0.49704 0.46884 0.0
C573 C 0.27693 0.5261 0.49121 0.0
C574 C 0.31292 0.55083 0.48918 0.0
C575 C 0.2405 0.55044 0.4912 0.0
C576 C 0.27859 0.50035 0.51554 0.0
C577 C 0.27913 0.46257 0.50824 0.0
C578 C 0.28069 0.43387 0.5277 0.0
C579 C 0.28118 0.44421 0.55526 0.0
C580 C 0.27943 0.4828 0.56285 0.0
C581 C 0.2785 0.51098 0.54266 0.0
H582 H 0.95432 0.24865 0.94876 0.0
H583 H 0.07374 0.23176 0.92949 0.0
H584 H 0.09121 0.24605 0.97689 0.0
H585 H 0.96707 0.32522 -0.00323 0.0
H586 H 0.93004 0.30841 0.01896 0.0
H587 H 0.92732 0.29894 0.98319 0.0
H588 H 0.92192 0.22698 0.99299 0.0
H589 H 0.92457 0.23624 0.02876 0.0
H590 H 0.958 0.20413 0.01329 0.0
H591 H 0.09541 0.26194 0.02685 0.0
H592 H 0.08525 0.27416 0.07576 0.0
H593 H 0.96308 0.27773 0.06188 0.0
C594 C 0.98415 0.2483 0.95448 0.0
C595 C 0.0127 0.2393 0.93552 0.0
C596 C 0.05141 0.23857 0.94379 0.0
C597 C 0.06163 0.24679 0.97061 0.0
C598 C 0.03276 0.25539 0.98889 0.0
C599 C 0.99479 0.25593 0.9812 0.0
C600 C 0.96909 0.26418 0.00497 0.0
C601 C 0.94709 0.3014 0.00071 0.0
C602 C 0.9418 0.23089 0.01031 0.0
C603 C 0.99847 0.26796 0.02725 0.0
C604 C 0.03509 0.26326 0.01761 0.0
C605 C 0.06684 0.26563 0.03464 0.0
C606 C 0.06087 0.27264 0.0623 0.0
C607 C 0.02345 0.27663 0.07251 0.0
C608 C 0.99204 0.27449 0.05466 0.0
H609 H 0.31802 0.01324 0.45359 0.0
H610 H 0.27312 0.11962 0.42392 0.0
H611 H 0.25679 0.13831 0.47104 0.0
H612 H 0.24881 0.99403 0.49759 0.0
H613 H 0.27827 0.97322 0.52358 0.0
H614 H 0.29373 0.97231 0.48901 0.0
H615 H 0.35676 0.00611 0.50227 0.0
H616 H 0.34174 0.00656 0.53713 0.0
H617 H 0.355 0.05014 0.52069 0.0
H618 H 0.23556 0.13934 0.52087 0.0
H619 H 0.2143 0.12363 0.56753 0.0
H620 H 0.27416 0.01646 0.56246 0.0
C621 C 0.30599 0.04105 0.4572 0.0
C622 C 0.29693 0.06519 0.4355 0.0
C623 C 0.28075 0.10114 0.44058 0.0
C624 C 0.27134 0.11183 0.4672 0.0
C625 C 0.27919 0.08647 0.48824 0.0
C626 C 0.29696 0.05211 0.48343 0.0
C627 C 0.29902 0.02797 0.50856 0.0
C628 C 0.27873 0.98966 0.50442 0.0
C629 C 0.3406 0.02238 0.5177 0.0
C630 C 0.27763 0.05297 0.528 0.0
C631 C 0.26696 0.08696 0.51633 0.0
C632 C 0.24444 0.11311 0.5303 0.0
C633 C 0.23239 0.10397 0.55669 0.0
C634 C 0.24239 0.06875 0.56838 0.0
C635 C 0.26587 0.04353 0.55397 0.0
H636 H 0.50165 0.79213 0.94608 0.0
H637 H 0.61288 0.7537 0.92005 0.0
H638 H 0.6255 0.72874 0.96633 0.0
H639 H 0.528 0.81623 0.01755 0.0
H640 H 0.48248 0.79963 0.02953 0.0
H641 H 0.48634 0.82023 -0.00372 0.0
H642 H 0.45612 0.75966 0.97576 0.0
H643 H 0.45307 0.73843 0.00872 0.0
H644 H 0.47819 0.71435 0.982 0.0
H645 H 0.62076 0.6998 0.01409 0.0
H646 H 0.60148 0.67432 0.05881 0.0
H647 H 0.49251 0.73154 0.05125 0.0
C648 C 0.52926 0.77969 0.95042 0.0
C649 C 0.55653 0.77507 0.92984 0.0
C650 C 0.59205 0.75811 0.93588 0.0
C651 C 0.59922 0.74365 0.962 0.0
C652 C 0.5707 0.74699 0.98161 0.0
C653 C 0.53671 0.76534 0.97612 0.0
C654 C 0.50913 0.76264 -0.00056 0.0
C655 C 0.50103 0.80202 0.01141 0.0
C656 C 0.47196 0.74257 0.99096 0.0
C657 C 0.53217 0.73867 0.0187 0.0
C658 C 0.56778 0.73016 0.00838 0.0
C659 C 0.59315 0.70681 0.02243 0.0
C660 C 0.58188 0.69227 0.04771 0.0
C661 C 0.54545 0.70084 0.05841 0.0
C662 C 0.52052 0.72437 0.04362 0.0
H663 H 0.82069 0.54864 0.43568 0.0
H664 H 0.71734 0.61303 0.42206 0.0
H665 H 0.71928 0.63517 0.46962 0.0
H666 H 0.79647 0.5117 0.49388 0.0
H667 H 0.84256 0.5129 0.51012 0.0
H668 H 0.83948 0.51176 0.47395 0.0
H669 H 0.87969 0.57318 0.47094 0.0
H670 H 0.8831 0.5744 0.50737 0.0
H671 H 0.86483 0.61482 0.4892 0.0
H672 H 0.72315 0.63593 0.52027 0.0
H673 H 0.7294 0.61629 0.56826 0.0
H674 H 0.8307 0.5524 0.54864 0.0
C675 C 0.79938 0.56869 0.44245 0.0
C676 C 0.76895 0.5793 0.42539 0.0
C677 C 0.74118 0.60507 0.43483 0.0
C678 C 0.74213 0.61775 0.4618 0.0
C679 C 0.7715 0.605 0.47868 0.0
C680 C 0.8001 0.58156 0.46913 0.0
C681 C 0.8251 0.56698 0.49183 0.0
C682 C 0.82588 0.52329 0.49247 0.0
C683 C 0.86558 0.58334 0.4897 0.0
C684 C 0.80432 0.5832 0.51592 0.0
C685 C 0.77411 0.606 0.50802 0.0
C686 C 0.74755 0.61944 0.52673 0.0
C687 C 0.75129 0.60831 0.55391 0.0
C688 C 0.78125 0.58403 0.56188 0.0
C689 C 0.8086 0.57234 0.54293 0.0
H690 H 0.04995 0.76799 0.05253 0.0
H691 H 0.93115 0.77532 0.0761 0.0
H692 H 0.91165 0.76212 0.02875 0.0
H693 H 0.03879 0.81484 0.98878 0.0
H694 H 0.07368 0.78578 0.97192 0.0
H695 H 0.07772 0.79444 0.00772 0.0
H696 H 0.07862 0.72209 0.01672 0.0
H697 H 0.07455 0.7132 0.98095 0.0
H698 H 0.04029 0.69307 0.00395 0.0
H699 H 0.90578 0.74652 0.97834 0.0
H700 H 0.91416 0.73415 0.92927 0.0
H701 H 0.03685 0.74058 0.93954 0.0
C702 C 0.01981 0.76658 0.04779 0.0
C703 C 0.99201 0.77235 0.06795 0.0
C704 C 0.95287 0.77091 0.06089 0.0
C705 C 0.94157 0.76335 0.0341 0.0
C706 C 0.9698 0.75776 0.01466 0.0
C707 C 1.00812 0.75965 0.02121 0.0
C708 C 0.03297 0.75394 -0.00339 0.0
C709 C 0.05721 0.78936 0.99093 0.0
C710 C 0.05808 0.71846 -0.00025 0.0
C711 C 1.00274 0.74835 0.97513 0.0
C712 C 0.96644 0.75029 0.98585 0.0
C713 C 0.93409 0.74516 0.96974 0.0
C714 C 0.93908 0.73808 0.94195 0.0
C715 C 0.9761 0.7367 0.93065 0.0
C716 C 1.00816 0.74187 0.94755 0.0
H717 H 0.77344 0.04154 0.43957 0.0
H718 H 0.78197 0.92054 0.42542 0.0
H719 H 0.77258 0.9088 0.47434 0.0
H720 H 0.82483 0.04198 0.50239 0.0
H721 H 0.79557 0.07821 0.51747 0.0
H722 H 0.80195 0.07698 0.48132 0.0
H723 H 0.72867 0.07444 0.47441 0.0
H724 H 0.72207 0.07604 0.51051 0.0
H725 H 0.70144 0.03799 0.49107 0.0
H726 H 0.76093 0.91054 0.52472 0.0
H727 H 0.74774 0.92561 0.57269 0.0
H728 H 0.7501 0.04556 0.55371 0.0
C729 C 0.77298 0.01254 0.44671 0.0
C730 C 0.77812 0.98189 0.42876 0.0
C731 C 0.77793 0.9444 0.4389 0.0
C732 C 0.77271 0.93748 0.46661 0.0
C733 C 0.76816 0.9684 0.48384 0.0
C734 C 0.76831 1.00518 0.47428 0.0
C735 C 0.76331 0.03346 0.49699 0.0
C736 C 0.79852 0.05917 0.4997 0.0
C737 C 0.72669 0.05685 0.493 0.0
C738 C 0.75994 0.00686 0.52084 0.0
C739 C 0.76275 0.96944 0.51286 0.0
C740 C 0.75898 0.93974 0.53124 0.0
C741 C 0.75155 0.94855 0.5584 0.0
C742 C 0.74831 0.98671 0.56688 0.0
C743 C 0.75311 0.01614 0.54788 0.0
H744 H 0.59456 0.84058 0.13052 0.0
H745 H 0.47489 0.81866 0.14636 0.0
H746 H 0.46061 0.88643 0.13971 0.0
H747 H 0.59887 0.93088 0.16501 0.0
H748 H 0.63113 0.95145 0.14079 0.0
H749 H 0.63182 0.90115 0.14682 0.0
H750 H 0.6211 0.88904 0.09563 0.0
H751 H 0.62011 0.9393 0.08947 0.0
H752 H 0.58059 0.91015 0.0789 0.0
H753 H 0.4592 0.95668 0.1308 0.0
H754 H 0.47094 0.02417 0.12124 0.0
H755 H 0.59187 1.00057 0.11268 0.0
C756 C 0.56541 0.84998 0.13291 0.0
C757 C 0.53584 0.82404 0.13888 0.0
C758 C 0.49799 0.83773 0.14141 0.0
C759 C 0.4896 0.87627 0.1378 0.0
C760 C 0.51935 0.90092 0.13171 0.0
C761 C 0.55652 0.88837 0.12939 0.0
C762 C 0.58322 0.92074 0.12262 0.0
C763 C 0.61302 0.92639 0.14516 0.0
C764 C 0.60238 0.91442 0.09501 0.0
C765 C 0.55527 0.95345 0.12153 0.0
C766 C 0.51857 0.94141 0.12679 0.0
C767 C 0.48788 0.96647 0.1268 0.0
C768 C 0.4949 1.00489 0.12148 0.0
C769 C 0.53238 0.01808 0.11626 0.0
C770 C 0.56282 0.99169 0.11625 0.0
H771 H 0.60577 0.6025 0.64924 0.0
H772 H 0.6348 0.49368 0.61425 0.0
H773 H 0.56651 0.48036 0.60659 0.0
H774 H 0.52017 0.57268 0.68332 0.0
H775 H 0.49432 0.61569 0.67621 0.0
H776 H 0.54552 0.61668 0.67908 0.0
H777 H 0.55023 0.64672 0.63138 0.0
H778 H 0.49903 0.64585 0.62838 0.0
H779 H 0.52803 0.62329 0.603 0.0
H780 H 0.49437 0.47766 0.60434 0.0
H781 H 0.42452 0.48809 0.60467 0.0
H782 H 0.44206 0.59951 0.63933 0.0
C783 C 0.59767 0.5759 0.63997 0.0
C784 C 0.62576 0.54922 0.63223 0.0
C785 C 0.61397 0.51482 0.61998 0.0
C786 C 0.57516 0.50686 0.61572 0.0
C787 C 0.54822 0.5337 0.62358 0.0
C788 C 0.55896 0.56771 0.6352 0.0
C789 C 0.52427 0.59202 0.64125 0.0
C790 C 0.52088 0.59971 0.67178 0.0
C791 C 0.52547 0.62917 0.62503 0.0
C792 C 0.49242 0.56632 0.63134 0.0
C793 C 0.50682 0.53265 0.62145 0.0
C794 C 0.48283 0.50405 0.61187 0.0
C795 C 0.44318 0.5101 0.61224 0.0
C796 C 0.42776 0.54467 0.62178 0.0
C797 C 0.45294 0.57303 0.63147 0.0
H798 H 0.94494 0.46692 0.13416 0.0
H799 H 0.0639 0.43607 0.1434 0.0
H800 H 0.0804 0.50371 0.15035 0.0
H801 H 0.95888 0.55259 0.09762 0.0
H802 H 0.92038 0.57708 0.11422 0.0
H803 H 0.91862 0.52642 0.11038 0.0
H804 H 0.91009 0.51883 0.16222 0.0
H805 H 0.91181 0.56949 0.16623 0.0
H806 H 0.94448 0.53986 0.18486 0.0
H807 H 0.08334 0.57636 0.15411 0.0
H808 H 0.07181 0.64559 0.15756 0.0
H809 H 0.95071 0.62642 0.14658 0.0
C810 C 0.97454 0.47436 0.1374 0.0
C811 C 1.00321 0.44632 0.13786 0.0
C812 C 0.04148 0.45713 0.14293 0.0
C813 C 0.05109 0.49546 0.14679 0.0
C814 C 0.02201 0.52245 0.14583 0.0
C815 C 0.98446 0.51217 0.14151 0.0
C816 C 0.95822 0.5461 0.14178 0.0
C817 C 0.93784 0.55082 0.11437 0.0
C818 C 0.92946 0.5434 0.16517 0.0
C819 C 0.98682 0.57735 0.14657 0.0
C820 C 0.02353 0.56339 0.14877 0.0
C821 C 0.05466 0.58747 0.15258 0.0
C822 C 0.04792 0.6267 0.15437 0.0
C823 C 0.01036 0.64129 0.15258 0.0
C824 C 0.97964 0.6161 0.14855 0.0
H825 H 0.86869 1.00292 0.61828 0.0
H826 H 0.8683 0.00905 0.70581 0.0
H827 H 0.93756 0.02259 0.70572 0.0
H828 H 0.95747 0.9541 0.61344 0.0
H829 H 0.97251 0.97783 0.58298 0.0
H830 H 0.92248 0.9719 0.58985 0.0
H831 H 0.91242 0.04432 0.58541 0.0
H832 H 0.96249 0.05048 0.57859 0.0
H833 H 0.94046 0.07605 0.60598 0.0
H834 H 1.00716 0.03476 0.69607 0.0
H835 H 0.07267 0.03803 0.67809 0.0
H836 H 0.0288 0.021 0.59681 0.0
C837 C 0.88322 0.00764 0.63734 0.0
C838 C 0.86319 1.00526 0.66208 0.0
C839 C 0.88321 0.0107 0.6867 0.0
C840 C 0.92245 0.01863 0.68681 0.0
C841 C 0.94147 0.0206 0.66211 0.0
C842 C 0.92262 0.01486 0.63782 0.0
C843 C 0.95029 0.01581 0.61427 0.0
C844 C 0.95071 0.97764 0.59926 0.0
C845 C 0.94084 0.04862 0.59492 0.0
C846 C 0.98762 0.02273 0.6291 0.0
C847 C 0.98181 0.02604 0.65664 0.0
C848 C 0.01201 0.03225 0.67452 0.0
C849 C 0.04918 0.03433 0.66408 0.0
C850 C 0.05604 0.02976 0.636 0.0
C851 C 0.02459 0.02437 0.61836 0.0
H852 H 0.52111 0.62979 0.87772 0.0
H853 H 0.57629 0.63379 0.79938 0.0
H854 H 0.5715 0.56422 0.79575 0.0
H855 H 0.56728 0.54533 0.90067 0.0
H856 H 0.52621 0.52711 0.91823 0.0
H857 H 0.53213 0.57744 0.91412 0.0
H858 H 0.46572 0.58175 0.89125 0.0
H859 H 0.45957 0.53141 0.89535 0.0
H860 H 0.45538 0.55248 0.86224 0.0
H861 H 0.56123 0.49369 0.80074 0.0
H862 H 0.54908 0.4277 0.81507 0.0
H863 H 0.50162 0.46895 0.89051 0.0
C864 C 0.53175 0.61603 0.85969 0.0
C865 C 0.5491 0.63737 0.83881 0.0
C866 C 0.56326 0.61811 0.81574 0.0
C867 C 0.56045 0.57857 0.81342 0.0
C868 C 0.54354 0.55835 0.83442 0.0
C869 C 0.52956 0.57637 0.85718 0.0
C870 C 0.51409 0.54775 0.87729 0.0
C871 C 0.53626 0.54952 0.90417 0.0
C872 C 0.47114 0.55371 0.88179 0.0
C873 C 0.52179 0.51092 0.86237 0.0
C874 C 0.53844 0.51768 0.83755 0.0
C875 C 0.54815 0.48809 0.82014 0.0
C876 C 0.54097 0.45064 0.82839 0.0
C877 C 0.52454 0.44288 0.85397 0.0
C878 C 0.51468 0.4737 0.871 0.0
H879 H 0.91304 0.54665 0.37844 0.0
H880 H 0.90409 0.5422 0.29102 0.0
H881 H 0.97313 0.52883 0.28785 0.0
H882 H 1.00391 0.5945 0.37991 0.0
H883 H 0.02109 0.56948 0.40932 0.0
H884 H 0.97069 0.57697 0.40472 0.0
H885 H 0.95914 0.50477 0.40869 0.0
H886 H 0.00956 0.49702 0.41312 0.0
H887 H 0.98417 0.47289 0.38645 0.0
H888 H 0.04334 0.51465 0.29424 0.0
H889 H 0.11041 0.50766 0.30937 0.0
H890 H 0.07496 0.52477 0.39243 0.0
C891 C 0.92567 0.54271 0.35868 0.0
C892 C 0.9031 0.54545 0.33494 0.0
C893 C 0.92082 0.5406 0.30942 0.0
C894 C 0.95999 0.53269 0.30745 0.0
C895 C 0.98143 0.53009 0.33118 0.0
C896 C 0.96502 0.53548 0.35631 0.0
C897 C 0.99493 0.53306 0.37856 0.0
C898 C 0.99782 0.57075 0.39403 0.0
C899 C 0.98643 0.49996 0.39784 0.0
C900 C 0.03063 0.52556 0.36202 0.0
C901 C 0.02212 0.52335 0.33476 0.0
C902 C 0.05035 0.51631 0.31553 0.0
C903 C 0.08835 0.51213 0.32431 0.0
C904 C 0.098 0.51565 0.35206 0.0
C905 C 0.06851 0.52209 0.37108 0.0
H906 H 0.91132 0.05123 0.86096 0.0
H907 H 0.02686 0.07012 0.88924 0.0
H908 H 0.03982 1.00135 0.88597 0.0
H909 H 0.89522 0.96215 0.89481 0.0
H910 H 0.86879 0.9418 0.86705 0.0
H911 H 0.8684 0.99229 0.87227 0.0
H912 H 0.89222 1.00258 0.82322 0.0
H913 H 0.89267 0.95213 0.81785 0.0
H914 H 0.93532 0.97946 0.81222 0.0
H915 H 0.03963 0.93054 0.88046 0.0
H916 H 0.02802 0.86314 0.87019 0.0
H917 H 0.91313 0.89025 0.84389 0.0
C918 C 0.93921 0.04078 0.86671 0.0
C919 C 0.96806 0.06589 0.87559 0.0
C920 C 1.00447 0.05133 0.88233 0.0
C921 C 0.01199 0.01235 0.88065 0.0
C922 C 0.98289 0.98836 0.87187 0.0
C923 C 0.94734 1.00203 0.86475 0.0
C924 C 0.92149 0.97037 0.85501 0.0
C925 C 0.8864 0.96643 0.87339 0.0
C926 C 0.90975 0.97651 0.82531 0.0
C927 C 0.94799 0.93669 0.85793 0.0
C928 C 0.98316 0.94769 0.86789 0.0
C929 C 0.01221 0.92161 0.87265 0.0
C930 C 1.00524 0.88333 0.86694 0.0
C931 C 0.9696 0.87139 0.85637 0.0
C932 C 0.94068 0.89858 0.8518 0.0
H933 H 0.47082 0.94222 0.36946 0.0
H934 H 0.45328 0.0638 0.36915 0.0
H935 H 0.52139 0.0734 0.35842 0.0
H936 H 0.56314 0.94241 0.40022 0.0
H937 H 0.58133 0.90417 0.37982 0.0
H938 H 0.53111 0.90695 0.38704 0.0
H939 H 0.51608 0.90567 0.33566 0.0
H940 H 0.56628 0.90298 0.32827 0.0
H941 H 0.53774 0.9403 0.31374 0.0
H942 H 0.59173 0.06979 0.35021 0.0
H943 H 0.65936 0.05319 0.3427 0.0
H944 H 0.63094 0.93388 0.34667 0.0
C945 C 0.4814 0.97084 0.36729 0.0
C946 C 0.45688 1.00232 0.37029 0.0
C947 C 0.47157 0.03934 0.36679 0.0
C948 C 0.51019 0.04504 0.36079 0.0
C949 C 0.53361 0.01339 0.35807 0.0
C950 C 0.51976 0.977 0.36099 0.0
C951 C 0.55093 0.94786 0.35682 0.0
C952 C 0.55698 0.92395 0.38251 0.0
C953 C 0.54223 0.92273 0.33215 0.0
C954 C 0.58464 0.97358 0.35154 0.0
C955 C 0.574 0.01127 0.35244 0.0
C956 C 0.60035 0.04039 0.34925 0.0
C957 C 0.63864 0.03073 0.34513 0.0
C958 C 0.65017 0.99233 0.34403 0.0
C959 C 0.62271 0.96343 0.34704 0.0
H960 H 0.43041 0.11824 0.85252 0.0
H961 H 0.54661 0.14458 0.82924 0.0
H962 H 0.56426 0.07723 0.83571 0.0
H963 H 0.45325 0.05048 0.90395 0.0
H964 H 0.41342 0.02009 0.89617 0.0
H965 H 0.41025 0.07017 0.88965 0.0
H966 H 0.39345 0.05664 0.83948 0.0
H967 H 0.39645 0.00651 0.84586 0.0
H968 H 0.42488 0.02754 0.81951 0.0
H969 H 0.56859 0.00553 0.84432 0.0
H970 H 0.55978 0.93791 0.85527 0.0
H971 H 0.44026 0.95914 0.87217 0.0
C972 C 0.45953 0.11004 0.84845 0.0
C973 C 0.48705 0.13711 0.84015 0.0
C974 C 0.52501 0.12472 0.83575 0.0
C975 C 0.53525 0.08639 0.83927 0.0
C976 C 0.50731 0.06056 0.84734 0.0
C977 C 0.47023 0.07202 0.85193 0.0
C978 C 0.44549 0.03895 0.86066 0.0
C979 C 0.42968 0.04532 0.88931 0.0
C980 C 0.41316 0.03201 0.84015 0.0
C981 C 0.47434 0.00693 0.86027 0.0
C982 C 0.50984 0.01987 0.85247 0.0
C983 C 0.54085 0.99526 0.85046 0.0
C984 C 0.53547 0.95666 0.85661 0.0
C985 C 0.49929 0.94263 0.86471 0.0
C986 C 0.46846 0.96853 0.86648 0.0
H987 H 0.43698 0.48894 0.31639 0.0
H988 H 0.39201 0.45909 0.39536 0.0
H989 H 0.45666 0.46291 0.41466 0.0
H990 H 0.52481 0.4355 0.32219 0.0
H991 H 0.55328 0.47039 0.30489 0.0
H992 H 0.50327 0.46589 0.29712 0.0
H993 H 0.49399 0.53694 0.30765 0.0
H994 H 0.54374 0.54162 0.31624 0.0
H995 H 0.50781 0.55517 0.34033 0.0
H996 H 0.5259 0.46956 0.42577 0.0
H997 H 0.5956 0.47657 0.42781 0.0
H998 H 0.59805 0.50103 0.34175 0.0
C999 C 0.44066 0.48289 0.33769 0.0
C1000 C 0.40886 0.47388 0.35431 0.0
C1001 C 0.41538 0.46663 0.38218 0.0
C1002 C 0.45219 0.46857 0.39336 0.0
C1003 C 0.48264 0.47779 0.37653 0.0
C1004 C 0.47743 0.48472 0.34927 0.0
C1005 C 0.51537 0.49386 0.33578 0.0
C1006 C 0.52473 0.46466 0.31369 0.0
C1007 C 0.51517 0.53431 0.32432 0.0
C1008 C 0.54272 0.49053 0.35966 0.0
C1009 C 0.523 0.48141 0.38295 0.0
C1010 C 0.54162 0.47651 0.40762 0.0
C1011 C 0.58141 0.48038 0.40853 0.0
C1012 C 0.60273 0.489 0.38494 0.0
C1013 C 0.58279 0.49466 0.3602 0.0
H1014 H 0.0682 0.38625 0.86011 0.0
H1015 H 0.94864 0.36438 0.84333 0.0
H1016 H 0.93509 0.43275 0.84682 0.0
H1017 H 0.05419 0.45998 0.9084 0.0
H1018 H 0.09427 0.48775 0.89719 0.0
H1019 H 0.09472 0.43708 0.8931 0.0
H1020 H 0.10654 0.44499 0.84166 0.0
H1021 H 0.10633 0.4957 0.84562 0.0
H1022 H 0.07428 0.47356 0.82183 0.0
H1023 H 0.93444 0.50381 0.85267 0.0
H1024 H 0.94682 0.57175 0.86009 0.0
H1025 H 0.06715 0.5473 0.87163 0.0
C1026 C 0.03922 0.39574 0.85686 0.0
C1027 C 0.00948 0.36965 0.85154 0.0
C1028 C 0.97187 0.38355 0.84783 0.0
C1029 C 0.9639 0.42243 0.84961 0.0
C1030 C 0.99383 0.44724 0.85507 0.0
C1031 C 0.03076 0.43446 0.85855 0.0
C1032 C 0.05774 0.46701 0.86436 0.0
C1033 C 0.07631 0.46269 0.89243 0.0
C1034 C 0.088 0.47052 0.84203 0.0
C1035 C 0.03018 0.50008 0.86371 0.0
C1036 C 0.99347 0.4881 0.85829 0.0
C1037 C 0.96313 0.51352 0.85681 0.0
C1038 C 0.97052 0.55219 0.86093 0.0
C1039 C 1.008 0.56525 0.86645 0.0
C1040 C 0.03809 0.53853 0.86782 0.0
H1041 H 0.97075 0.07886 0.37728 0.0
H1042 H 0.95387 0.96003 0.3579 0.0
H1043 H 0.02195 0.9545 0.34623 0.0
H1044 H 0.03936 0.09925 0.32524 0.0
H1045 H 0.0673 0.13029 0.34639 0.0
H1046 H 0.01682 0.12545 0.35211 0.0
H1047 H 0.02967 0.10643 0.40199 0.0
H1048 H 0.08012 0.11156 0.39649 0.0
H1049 H 0.06139 0.06749 0.40919 0.0
H1050 H 0.09213 0.96147 0.33789 0.0
H1051 H 0.15993 0.97966 0.33532 0.0
H1052 H 0.13118 0.09336 0.36155 0.0
C1053 C 0.98121 0.05152 0.37084 0.0
C1054 C 0.95666 0.01988 0.36852 0.0
C1055 C 0.97181 0.98484 0.35954 0.0
C1056 C 0.01051 0.98138 0.35292 0.0
C1057 C 0.03374 0.0132 0.35538 0.0
C1058 C 0.01971 0.04754 0.36425 0.0
C1059 C 0.05089 0.07711 0.36593 0.0
C1060 C 0.04311 0.10996 0.34624 0.0
C1061 C 0.05581 0.09147 0.39513 0.0
C1062 C 0.08484 0.05386 0.35699 0.0
C1063 C 0.07426 0.01715 0.35079 0.0
C1064 C 0.10076 0.99012 0.34271 0.0
C1065 C 0.13921 1.00067 0.34145 0.0
C1066 C 0.15088 0.03788 0.34838 0.0
C1067 C 0.12311 0.0649 0.35579 0.0
H1068 H 0.43856 0.34211 0.12778 0.0
H1069 H 0.55999 0.31885 0.13255 0.0
H1070 H 0.57344 0.38686 0.12662 0.0
H1071 H 0.44326 0.41522 0.07772 0.0
H1072 H 0.40628 0.44357 0.09288 0.0
H1073 H 0.40611 0.39292 0.09719 0.0
H1074 H 0.40517 0.4013 0.14929 0.0
H1075 H 0.40514 0.45197 0.14514 0.0
H1076 H 0.44151 0.42956 0.16541 0.0
H1077 H 0.57371 0.45783 0.12042 0.0
H1078 H 0.56072 0.52603 0.11478 0.0
H1079 H 0.43911 0.50311 0.11549 0.0
C1080 C 0.468 0.35116 0.12781 0.0
C1081 C 0.49818 0.32474 0.13052 0.0
C1082 C 0.53631 0.33818 0.13008 0.0
C1083 C 0.54427 0.37689 0.12688 0.0
C1084 C 0.51385 0.402 0.1242 0.0
C1085 C 0.47648 0.3897 0.12471 0.0
C1086 C 0.44897 0.42256 0.12163 0.0
C1087 C 0.42473 0.4183 0.09582 0.0
C1088 C 0.42372 0.42658 0.14687 0.0
C1089 C 0.47671 0.45528 0.11924 0.0
C1090 C 0.514 0.44283 0.12079 0.0
C1091 C 0.5446 0.46789 0.11926 0.0
C1092 C 0.5369 0.50668 0.11619 0.0
C1093 C 0.49887 0.52023 0.11469 0.0
C1094 C 0.4685 0.49389 0.11617 0.0
H1095 H 0.09823 0.50289 0.66458 0.0
H1096 H 0.13939 0.46489 0.5864 0.0
H1097 H 0.074 0.47007 0.56793 0.0
H1098 H 0.00947 0.45298 0.66309 0.0
H1099 H 0.98301 0.49021 0.6795 0.0
H1100 H 0.03319 0.48475 0.68621 0.0
H1101 H 0.04426 0.55442 0.67219 0.0
H1102 H 0.99419 0.55993 0.66496 0.0
H1103 H 0.02894 0.57031 0.63922 0.0
H1104 H 1.0036 0.47628 0.55854 0.0
H1105 H 0.93328 0.48163 0.55918 0.0
H1106 H 0.93739 0.51671 0.64309 0.0
C1107 C 0.09362 0.4953 0.64363 0.0
C1108 C 0.12429 0.48324 0.62698 0.0
C1109 C 0.11667 0.47439 0.59953 0.0
C1110 C 0.07954 0.47724 0.58887 0.0
C1111 C 0.05015 0.48928 0.60581 0.0
C1112 C 0.05675 0.49817 0.63263 0.0
C1113 C 0.01998 0.50973 0.64666 0.0
C1114 C 0.01088 0.4828 0.67026 0.0
C1115 C 0.022 0.55106 0.65632 0.0
C1116 C 0.99149 0.50526 0.62368 0.0
C1117 C 0.00961 0.49362 0.60026 0.0
C1118 C 0.98923 0.48573 0.57668 0.0
C1119 C 0.94934 0.48888 0.57719 0.0
C1120 C 0.93 0.50005 0.60102 0.0
C1121 C 0.95152 0.50907 0.62442 0.0
H1122 H 0.0401 0.95225 0.16021 0.0
H1123 H 1.00872 0.94861 0.07554 0.0
H1124 H 0.99514 0.01757 0.07638 0.0
H1125 H 0.97349 0.0273 0.18246 0.0
H1126 H 1.00857 0.04825 0.20456 0.0
H1127 H 0.01002 0.99817 0.19765 0.0
H1128 H 0.08006 1.00515 0.18191 0.0
H1129 H 0.07824 0.05534 0.1881 0.0
H1130 H 0.09112 0.03792 0.15507 0.0
H1131 H 0.98797 0.08731 0.08611 0.0
H1132 H 0.99299 0.1532 0.10263 0.0
H1133 H 0.03333 0.11202 0.18026 0.0
C1134 C 0.02948 0.96605 0.14213 0.0
C1135 C 0.02469 0.94544 0.11791 0.0
C1136 C 0.01207 0.96421 0.09426 0.0
C1137 C 1.00424 1.00319 0.09462 0.0
C1138 C 0.00981 0.02299 0.11873 0.0
C1139 C 0.0225 1.00513 0.142 0.0
C1140 C 0.03013 0.0335 0.16438 0.0
C1141 C 1.00395 0.02639 0.18871 0.0
C1142 C 0.07239 0.03294 0.17285 0.0
C1143 C 0.01986 0.07006 0.15008 0.0
C1144 C 1.00763 0.06336 0.12391 0.0
C1145 C 0.99728 0.09286 0.10662 0.0
C1146 C 1.00001 0.13018 0.11623 0.0
C1147 C 0.01348 0.13772 0.14274 0.0
C1148 C 0.0231 0.10711 0.15988 0.0
H1149 H 0.39577 0.04185 0.67297 0.0
H1150 H 0.3491 0.03306 0.59184 0.0
H1151 H 0.4139 0.02405 0.57361 0.0
H1152 H 0.47967 0.09345 0.65558 0.0
H1153 H 0.51022 0.06926 0.67935 0.0
H1154 H 0.46001 0.07375 0.68618 0.0
H1155 H 0.45477 1.00091 0.69119 0.0
H1156 H 0.50497 0.9962 0.68426 0.0
H1157 H 0.47066 0.9708 0.664 0.0
H1158 H 0.48393 0.02065 0.56376 0.0
H1159 H 0.55453 0.0206 0.56321 0.0
H1160 H 0.55654 0.02818 0.65065 0.0
C1161 C 0.3993 0.03795 0.65139 0.0
C1162 C 0.36733 0.038 0.63384 0.0
C1163 C 0.37303 0.03257 0.60572 0.0
C1164 C 0.40979 0.02759 0.59516 0.0
C1165 C 0.44066 0.02763 0.61299 0.0
C1166 C 0.43586 0.03237 0.64054 0.0
C1167 C 0.47399 0.03158 0.65519 0.0
C1168 C 0.4814 0.06925 0.66994 0.0
C1169 C 0.47622 0.99786 0.67482 0.0
C1170 C 0.501 0.02637 0.63153 0.0
C1171 C 0.48111 0.02425 0.60737 0.0
C1172 C 0.49977 0.02172 0.58257 0.0
C1173 C 0.53977 0.02175 0.58241 0.0
C1174 C 0.56076 0.02379 0.60686 0.0
C1175 C 0.54106 0.02564 0.63175 0.0
H1176 H 0.82079 0.2984 0.1947 0.0
H1177 H 0.87561 0.19153 0.21316 0.0
H1178 H 0.81232 0.16148 0.21859 0.0
H1179 H 0.73188 0.28371 0.23853 0.0
H1180 H 0.7036 0.30753 0.2133 0.0
H1181 H 0.7526 0.32119 0.21862 0.0
H1182 H 0.7645 0.31002 0.16716 0.0
H1183 H 0.7161 0.29484 0.16251 0.0
H1184 H 0.75473 0.26399 0.15292 0.0
H1185 H 0.74401 0.14048 0.2114 0.0
H1186 H 0.67803 0.13158 0.19481 0.0
H1187 H 0.66794 0.25277 0.18242 0.0
C1188 C 0.81939 0.26902 0.20093 0.0
C1189 C 0.85296 0.24728 0.20364 0.0
C1190 C 0.85021 0.20882 0.21146 0.0
C1191 C 0.81435 0.19149 0.21438 0.0
C1192 C 0.78168 0.21322 0.20979 0.0
C1193 C 0.78397 0.25143 0.20378 0.0
C1194 C 0.74532 0.26773 0.19677 0.0
C1195 C 0.73263 0.29677 0.21808 0.0
C1196 C 0.74519 0.28513 0.16815 0.0
C1197 C 0.72122 0.23234 0.19809 0.0
C1198 C 0.74237 0.20125 0.20614 0.0
C1199 C 0.72693 0.16481 0.20583 0.0
C1200 C 0.68935 0.16001 0.19643 0.0
C1201 C 0.66778 0.19148 0.18728 0.0
C1202 C 0.68369 0.22812 0.18917 0.0
H1203 H 0.22631 0.69177 0.6982 0.0
H1204 H 0.19362 0.67376 0.61417 0.0
H1205 H 0.17219 0.73916 0.61091 0.0
H1206 H 0.15022 0.76173 0.71332 0.0
H1207 H 0.17983 0.79252 0.7332 0.0
H1208 H 0.18882 0.74209 0.73285 0.0
H1209 H 0.25833 0.7509 0.71663 0.0
H1210 H 0.25192 0.80137 0.71872 0.0
H1211 H 0.26764 0.78015 0.68754 0.0
H1212 H 0.15884 0.80647 0.61431 0.0
H1213 H 0.16371 0.87518 0.62247 0.0
H1214 H 0.20994 0.85389 0.70244 0.0
C1215 C 0.21426 0.70145 0.67924 0.0
C1216 C 0.21034 0.67668 0.65686 0.0
C1217 C 0.19519 0.69108 0.6322 0.0
C1218 C 0.18302 0.72851 0.62998 0.0
C1219 C 0.18669 0.75186 0.65238 0.0
C1220 C 0.20248 0.7393 0.67642 0.0
C1221 C 0.20693 0.77189 0.6962 0.0
C1222 C 0.17994 0.76672 0.72037 0.0
C1223 C 0.24867 0.77633 0.70532 0.0
C1224 C 0.19401 0.80483 0.6787 0.0
C1225 C 0.18081 0.79215 0.65394 0.0
C1226 C 0.16865 0.81683 0.63373 0.0
C1227 C 0.17139 0.85568 0.63853 0.0
C1228 C 0.18671 0.86934 0.66312 0.0
C1229 C 0.19738 0.84379 0.68375 0.0
H1230 H 0.82988 0.29394 0.80405 0.0
H1231 H 0.83236 0.1726 0.79025 0.0
H1232 H 0.76517 0.17467 0.77559 0.0
H1233 H 0.74538 0.29372 0.83644 0.0
H1234 H 0.72857 0.33866 0.82386 0.0
H1235 H 0.77884 0.32961 0.82605 0.0
H1236 H 0.7859 0.34518 0.77523 0.0
H1237 H 0.73534 0.35378 0.77244 0.0
H1238 H 0.758 0.31972 0.75062 0.0
H1239 H 0.69503 0.18739 0.77168 0.0
H1240 H 0.62911 0.20953 0.77968 0.0
H1241 H 0.67177 0.32199 0.79737 0.0
C1242 C 0.81662 0.26789 0.79732 0.0
C1243 C 0.83658 0.23314 0.79831 0.0
C1244 C 0.81808 0.19975 0.78926 0.0
C1245 C 0.77976 0.20062 0.78094 0.0
C1246 C 0.76037 0.2351 0.78161 0.0
C1247 C 0.77836 0.26822 0.78937 0.0
C1248 C 0.7502 0.30043 0.79239 0.0
C1249 C 0.75079 0.3165 0.82139 0.0
C1250 C 0.75781 0.33162 0.77141 0.0
C1251 C 0.7133 0.27987 0.78643 0.0
C1252 C 0.71972 0.24238 0.77971 0.0
C1253 C 0.68969 0.21687 0.77631 0.0
C1254 C 0.6523 0.22972 0.78071 0.0
C1255 C 0.64542 0.26753 0.78891 0.0
C1256 C 0.67626 0.29308 0.79076 0.0
H1257 H 0.28486 0.84412 0.30118 0.0
H1258 H 0.28523 0.84608 0.38916 0.0
H1259 H 0.27583 0.7775 0.39016 0.0
H1260 H 0.21551 0.77145 0.29184 0.0
H1261 H 0.2396 0.74763 0.26457 0.0
H1262 H 0.24655 0.79767 0.26969 0.0
H1263 H 0.32051 0.78799 0.27392 0.0
H1264 H 0.31244 0.73857 0.26671 0.0
H1265 H 0.33821 0.75236 0.29675 0.0
H1266 H 0.26191 0.71142 0.383 0.0
H1267 H 0.25545 0.64549 0.36766 0.0
H1268 H 0.26915 0.68142 0.28425 0.0
C1269 C 0.28338 0.82993 0.32057 0.0
C1270 C 0.28441 0.85071 0.3451 0.0
C1271 C 0.28298 0.83107 0.3701 0.0
C1272 C 0.27782 0.79203 0.37094 0.0
C1273 C 0.27513 0.77264 0.3466 0.0
C1274 C 0.2789 0.79037 0.32184 0.0
C1275 C 0.27646 0.76159 0.29895 0.0
C1276 C 0.24252 0.77012 0.28015 0.0
C1277 C 0.31412 0.76002 0.28313 0.0
C1278 C 0.27006 0.72534 0.31494 0.0
C1279 C 0.26902 0.7329 0.34237 0.0
C1280 C 0.26303 0.7049 0.36162 0.0
C1281 C 0.25919 0.6677 0.35274 0.0
C1282 C 0.26178 0.65878 0.32494 0.0
C1283 C 0.2668 0.68785 0.30561 0.0
H1284 H 0.17468 0.74377 0.78438 0.0
H1285 H 0.14777 0.72092 0.86841 0.0
H1286 H 0.21476 0.73213 0.88116 0.0
H1287 H 0.27003 0.69723 0.78641 0.0
H1288 H 0.29069 0.73133 0.76361 0.0
H1289 H 0.24066 0.72011 0.76137 0.0
H1290 H 0.22538 0.79264 0.76721 0.0
H1291 H 0.27568 0.80226 0.76961 0.0
H1292 H 0.24397 0.81722 0.79621 0.0
H1293 H 0.28089 0.75214 0.88587 0.0
H1294 H 0.3491 0.76618 0.8817 0.0
H1295 H 0.338 0.77033 0.79419 0.0
C1296 C 0.18338 0.7403 0.80526 0.0
C1297 C 0.15649 0.73123 0.82551 0.0
C1298 C 0.16832 0.72746 0.85274 0.0
C1299 C 0.2061 0.7341 0.86017 0.0
C1300 C 0.23183 0.744 0.84003 0.0
C1301 C 0.22155 0.74612 0.81306 0.0
C1302 C 0.25587 0.75627 0.79574 0.0
C1303 C 0.26485 0.72436 0.77558 0.0
C1304 C 0.24987 0.79436 0.78132 0.0
C1305 C 0.28667 0.7596 0.81726 0.0
C1306 C 0.27161 0.75322 0.84266 0.0
C1307 C 0.29332 0.7563 0.86606 0.0
C1308 C 0.33201 0.76433 0.86345 0.0
C1309 C 0.349 0.76828 0.83759 0.0
C1310 C 0.3258 0.7671 0.81416 0.0
H1311 H 0.78749 0.18264 0.28837 0.0
H1312 H 0.86263 0.15423 0.35515 0.0
H1313 H 0.86627 0.22161 0.36796 0.0
H1314 H 0.83811 0.27835 0.27439 0.0
H1315 H 0.79346 0.29894 0.26381 0.0
H1316 H 0.80268 0.24921 0.25838 0.0
H1317 H 0.73949 0.23442 0.28304 0.0
H1318 H 0.73167 0.28356 0.29086 0.0
H1319 H 0.73397 0.24919 0.31777 0.0
H1320 H 0.84926 0.28703 0.37969 0.0
H1321 H 0.8261 0.35184 0.38405 0.0
H1322 H 0.76973 0.34262 0.30572 0.0
C1323 C 0.80597 0.19106 0.30491 0.0
C1324 C 0.82519 0.16369 0.32067 0.0
C1325 C 0.84843 0.17514 0.3426 0.0
C1326 C 0.85039 0.2132 0.35014 0.0
C1327 C 0.82978 0.23943 0.33501 0.0
C1328 C 0.80927 0.22929 0.31223 0.0
C1329 C 0.78939 0.26346 0.30002 0.0
C1330 C 0.80693 0.27317 0.27249 0.0
C1331 C 0.74606 0.25725 0.29781 0.0
C1332 C 0.7992 0.29344 0.32081 0.0
C1333 C 0.82265 0.27881 0.34072 0.0
C1334 C 0.83254 0.29949 0.36354 0.0
C1335 C 0.81934 0.33664 0.36565 0.0
C1336 C 0.79739 0.35355 0.34462 0.0
C1337 C 0.78684 0.33117 0.32203 0.0
H1338 H 0.36372 0.75971 0.18078 0.0
H1339 H 0.35455 0.64158 0.2039 0.0
H1340 H 0.28787 0.65244 0.21793 0.0
H1341 H 0.2928 0.80135 0.23032 0.0
H1342 H 0.27555 0.83326 0.20469 0.0
H1343 H 0.32488 0.81878 0.20479 0.0
H1344 H 0.31696 0.79591 0.1551 0.0
H1345 H 0.26767 0.80952 0.15536 0.0
H1346 H 0.28064 0.76147 0.14721 0.0
H1347 H 0.2189 0.67286 0.22039 0.0
H1348 H 0.15549 0.69973 0.20954 0.0
H1349 H 0.20929 0.80319 0.18208 0.0
C1350 C 0.34805 0.73625 0.18942 0.0
C1351 C 0.36446 0.69973 0.19108 0.0
C1352 C 0.34294 0.66995 0.2027 0.0
C1353 C 0.30491 0.67587 0.21069 0.0
C1354 C 0.28889 0.71174 0.20705 0.0
C1355 C 0.31003 0.74152 0.19686 0.0
C1356 C 0.28512 0.77539 0.19043 0.0
C1357 C 0.29521 0.80919 0.20865 0.0
C1358 C 0.28775 0.78616 0.16025 0.0
C1359 C 0.24634 0.75953 0.19736 0.0
C1360 C 0.24904 0.72315 0.20759 0.0
C1361 C 0.21656 0.70158 0.21293 0.0
C1362 C 0.18062 0.71711 0.2068 0.0
C1363 C 0.17756 0.75357 0.19504 0.0
C1364 C 0.21083 0.77535 0.19121 0.0
H1365 H 0.71123 0.19398 0.70213 0.0
H1366 H 0.65608 0.16267 0.62679 0.0
H1367 H 0.6539 0.22972 0.61311 0.0
H1368 H 0.65571 0.29015 0.70804 0.0
H1369 H 0.6968 0.31103 0.72414 0.0
H1370 H 0.68609 0.26155 0.72901 0.0
H1371 H 0.75525 0.24744 0.7137 0.0
H1372 H 0.76483 0.29602 0.70514 0.0
H1373 H 0.76945 0.25982 0.67975 0.0
H1374 H 0.67302 0.29461 0.60288 0.0
H1375 H 0.69845 0.35808 0.59976 0.0
H1376 H 0.73109 0.35329 0.68499 0.0
C1377 C 0.69716 0.2017 0.68338 0.0
C1378 C 0.68337 0.17359 0.66554 0.0
C1379 C 0.66607 0.18412 0.64081 0.0
C1380 C 0.66488 0.22203 0.63285 0.0
C1381 C 0.68009 0.24907 0.65027 0.0
C1382 C 0.69447 0.23981 0.67549 0.0
C1383 C 0.71035 0.27468 0.68955 0.0
C1384 C 0.68582 0.28503 0.71416 0.0
C1385 C 0.75245 0.26912 0.69751 0.0
C1386 C 0.70576 0.30395 0.66731 0.0
C1387 C 0.68805 0.28841 0.64498 0.0
C1388 C 0.68492 0.30792 0.62074 0.0
C1389 C 0.69931 0.3447 0.61938 0.0
C1390 C 0.71557 0.36278 0.64248 0.0
C1391 C 0.71868 0.34153 0.66682 0.0
H1392 H 0.37103 0.0832 0.30872 0.0
H1393 H 0.29346 0.02474 0.25426 0.0
H1394 H 0.32968 0.04917 0.21513 0.0
H1395 H 0.38206 0.16681 0.26819 0.0
H1396 H 0.43175 0.17284 0.27658 0.0
H1397 H 0.40014 0.15022 0.30027 0.0
H1398 H 0.44437 0.09143 0.30164 0.0
H1399 H 0.47613 0.11383 0.27794 0.0
H1400 H 0.45652 0.06781 0.2705 0.0
H1401 H 0.37498 0.07823 0.18234 0.0
H1402 H 0.42411 0.11333 0.15731 0.0
H1403 H 0.47101 0.15528 0.23304 0.0
C1404 C 0.36163 0.07546 0.28857 0.0
C1405 C 0.32948 0.05194 0.28449 0.0
C1406 C 0.31795 0.04275 0.25782 0.0
C1407 C 0.3384 0.05639 0.23552 0.0
C1408 C 0.37003 0.07936 0.2403 0.0
C1409 C 0.38145 0.08908 0.26613 0.0
C1410 C 0.41605 0.11477 0.2657 0.0
C1411 C 0.40693 0.15346 0.27843 0.0
C1412 C 0.45029 0.09582 0.27978 0.0
C1413 C 0.42228 0.1181 0.23549 0.0
C1414 C 0.39561 0.0971 0.22129 0.0
C1415 C 0.39588 0.09492 0.19321 0.0
C1416 C 0.42402 0.11491 0.17921 0.0
C1417 C 0.45131 0.13716 0.19326 0.0
C1418 C 0.45034 0.13877 0.22179 0.0
H1419 H 0.40328 0.31493 0.75085 0.0
H1420 H 0.43792 0.38394 0.81949 0.0
H1421 H 0.40567 0.43886 0.79955 0.0
H1422 H 0.41594 0.38588 0.70071 0.0
H1423 H 0.37485 0.37268 0.68086 0.0
H1424 H 0.399 0.33768 0.70111 0.0
H1425 H 0.33551 0.32204 0.72535 0.0
H1426 H 0.31121 0.35721 0.70525 0.0
H1427 H 0.30918 0.35945 0.74166 0.0
H1428 H 0.37476 0.48772 0.77112 0.0
H1429 H 0.346 0.52762 0.73543 0.0
H1430 H 0.32742 0.42801 0.68583 0.0
C1431 C 0.40378 0.34149 0.76178 0.0
C1432 C 0.42343 0.34489 0.78675 0.0
C1433 C 0.42342 0.38035 0.8003 0.0
C1434 C 0.40494 0.41185 0.7892 0.0
C1435 C 0.38608 0.40764 0.76461 0.0
C1436 C 0.38513 0.37342 0.75104 0.0
C1437 C 0.36381 0.37729 0.72437 0.0
C1438 C 0.38997 0.36783 0.70035 0.0
C1439 C 0.32778 0.35252 0.72416 0.0
C1440 C 0.35369 0.41913 0.72494 0.0
C1441 C 0.36682 0.43596 0.74843 0.0
C1442 C 0.36369 0.47481 0.75286 0.0
C1443 C 0.34732 0.49723 0.73253 0.0
C1444 C 0.33383 0.48073 0.70826 0.0
C1445 C 0.33643 0.44109 0.70462 0.0
H1446 H 0.16507 0.48544 0.26137 0.0
H1447 H 0.23002 0.39249 0.29553 0.0
H1448 H 0.18532 0.34668 0.27463 0.0
H1449 H 0.07438 0.44463 0.27413 0.0
H1450 H 0.05206 0.46206 0.24367 0.0
H1451 H 0.09098 0.48786 0.25872 0.0
H1452 H 0.1288 0.48501 0.21399 0.0
H1453 H 0.08971 0.46003 0.19844 0.0
H1454 H 0.13691 0.43984 0.19798 0.0
H1455 H 0.13434 0.31119 0.2492 0.0
H1456 H 0.07853 0.28847 0.22298 0.0
H1457 H 0.04302 0.40453 0.20946 0.0
C1458 C 0.17027 0.45539 0.26386 0.0
C1459 C 0.20137 0.44225 0.27946 0.0
C1460 C 0.20659 0.40289 0.28327 0.0
C1461 C 0.18135 0.37677 0.27155 0.0
C1462 C 0.15059 0.39058 0.25659 0.0
C1463 C 0.14477 0.42897 0.25285 0.0
C1464 C 0.10818 0.43637 0.2373 0.0
C1465 C 0.07971 0.45905 0.25449 0.0
C1466 C 0.11642 0.45649 0.21033 0.0
C1467 C 0.09448 0.39617 0.23274 0.0
C1468 C 0.11962 0.37017 0.24374 0.0
C1469 C 0.11419 0.33126 0.24082 0.0
C1470 C 0.08248 0.31861 0.226 0.0
C1471 C 0.05624 0.34476 0.21487 0.0
C1472 C 0.06212 0.38398 0.21853 0.0
H1473 H 0.04589 0.19553 0.75648 0.0
H1474 H 0.07585 0.15013 0.83546 0.0
H1475 H 0.12387 0.10899 0.8145 0.0
H1476 H 0.05536 0.10635 0.72078 0.0
H1477 H 0.07484 0.1275 0.69067 0.0
H1478 H 0.04285 0.15426 0.71178 0.0
H1479 H 0.09359 0.20736 0.71632 0.0
H1480 H 0.12571 0.18069 0.69526 0.0
H1481 H 0.14066 0.1957 0.7285 0.0
H1482 H 0.16871 0.07278 0.78561 0.0
H1483 H 0.20618 0.04176 0.74969 0.0
H1484 H 0.14721 0.10957 0.68928 0.0
C1485 C 0.06268 0.17703 0.7693 0.0
C1486 C 0.0571 0.17611 0.79758 0.0
C1487 C 0.0794 0.15123 0.81371 0.0
C1488 C 0.10691 0.12779 0.80204 0.0
C1489 C 0.11171 0.12927 0.77417 0.0
C1490 C 0.09013 0.15297 0.75792 0.0
C1491 C 0.10055 0.14805 0.72839 0.0
C1492 C 0.06637 0.13316 0.71194 0.0
C1493 C 0.11606 0.18516 0.71642 0.0
C1494 C 0.13157 0.11834 0.73077 0.0
C1495 C 0.13752 0.10792 0.75736 0.0
C1496 C 0.16439 0.08067 0.76466 0.0
C1497 C 0.18557 0.06326 0.74413 0.0
C1498 C 0.17968 0.07319 0.71669 0.0
C1499 C 0.15246 0.10132 0.71006 0.0
H1500 H 0.65899 0.97255 0.74186 0.0
H1501 H 0.63753 0.92583 0.66189 0.0
H1502 H 0.59789 0.87592 0.68196 0.0
H1503 H 0.66697 0.8845 0.77617 0.0
H1504 H 0.64311 0.9002 0.80643 0.0
H1505 H 0.6685 0.93374 0.78579 0.0
H1506 H 0.60734 0.9746 0.78153 0.0
H1507 H 0.58181 0.94112 0.80217 0.0
H1508 H 0.56402 0.95329 0.76904 0.0
H1509 H 0.56267 0.82919 0.71055 0.0
H1510 H 0.53335 0.78969 0.74619 0.0
H1511 H 0.57751 0.86658 0.80733 0.0
C1512 C 0.64574 0.952 0.72856 0.0
C1513 C 0.65152 0.95321 0.70029 0.0
C1514 C 0.63367 0.92564 0.68362 0.0
C1515 C 0.61098 0.89709 0.6948 0.0
C1516 C 0.60619 0.89645 0.7227 0.0
C1517 C 0.62285 0.92323 0.73939 0.0
C1518 C 0.6137 0.91548 0.76881 0.0
C1519 C 0.65025 0.90803 0.78526 0.0
C1520 C 0.59032 0.94806 0.7811 0.0
C1521 C 0.58991 0.87989 0.76595 0.0
C1522 C 0.58573 0.86947 0.7392 0.0
C1523 C 0.56552 0.83714 0.7316 0.0
C1524 C 0.54904 0.81484 0.75197 0.0
C1525 C 0.553 0.82501 0.77954 0.0
C1526 C 0.57371 0.85804 0.78646 0.0
H1527 H 0.57257 0.65416 0.23663 0.0
H1528 H 0.5976 0.59831 0.16037 0.0
H1529 H 0.64398 0.55716 0.18333 0.0
H1530 H 0.66739 0.654 0.26276 0.0
H1531 H 0.65355 0.64404 0.29714 0.0
H1532 H 0.62127 0.66871 0.2749 0.0
H1533 H 0.56942 0.61817 0.28413 0.0
H1534 H 0.60155 0.59289 0.3062 0.0
H1535 H 0.57985 0.56897 0.27783 0.0
H1536 H 0.69021 0.5241 0.21377 0.0
H1537 H 0.73142 0.49976 0.25055 0.0
H1538 H 0.67519 0.57517 0.30728 0.0
C1539 C 0.58771 0.63319 0.22481 0.0
C1540 C 0.58129 0.6295 0.1967 0.0
C1541 C 0.60167 0.60158 0.18197 0.0
C1542 C 0.62824 0.57805 0.1948 0.0
C1543 C 0.63403 0.58247 0.22245 0.0
C1544 C 0.61421 0.60911 0.23737 0.0
C1545 C 0.62596 0.60784 0.26687 0.0
C1546 C 0.64307 0.64591 0.27594 0.0
C1547 C 0.59219 0.59629 0.28483 0.0
C1548 C 0.65598 0.57698 0.26599 0.0
C1549 C 0.66017 0.56269 0.24018 0.0
C1550 C 0.68702 0.53481 0.23416 0.0
C1551 C 0.71034 0.52122 0.25514 0.0
C1552 C 0.70646 0.5354 0.28177 0.0
C1553 C 0.67867 0.56347 0.28718 0.0
H1554 H 0.90194 0.54943 0.68528 0.0
H1555 H 0.7868 0.55692 0.71649 0.0
H1556 H 0.80962 0.599 0.75333 0.0
H1557 H 0.95368 0.55297 0.74905 0.0
H1558 H 0.99083 0.58269 0.73556 0.0
H1559 H 0.9657 0.5504 0.71365 0.0
H1560 H 0.94735 0.60656 0.68189 0.0
H1561 H 0.97302 0.63833 0.70387 0.0
H1562 H 0.92359 0.64721 0.69599 0.0
H1563 H 0.84554 0.6399 0.78678 0.0
H1564 H 0.89048 0.68051 0.81233 0.0
H1565 H 0.9807 0.65122 0.75624 0.0
C1566 C 0.88173 0.5593 0.70025 0.0
C1567 C 0.8428 0.5494 0.69857 0.0
C1568 C 0.81682 0.56392 0.71779 0.0
C1569 C 0.82954 0.58776 0.7387 0.0
C1570 C 0.86813 0.59739 0.73963 0.0
C1571 C 0.89374 0.58394 0.72072 0.0
C1572 C 0.933 0.6009 0.72486 0.0
C1573 C 0.96254 0.56989 0.73116 0.0
C1574 C 0.94494 0.62465 0.70019 0.0
C1575 C 0.92564 0.62574 0.74927 0.0
C1576 C 0.88816 0.62296 0.75768 0.0
C1577 C 0.87486 0.64252 0.78025 0.0
C1578 C 0.90053 0.66548 0.79461 0.0
C1579 C 0.93882 0.6693 0.786 0.0
C1580 C 0.95139 0.64929 0.76296 0.0
H1581 H 0.99492 0.91198 0.2034 0.0
H1582 H 0.96382 0.7954 0.2196 0.0
H1583 H 0.91374 0.81713 0.25123 0.0
H1584 H 0.97514 0.95125 0.27134 0.0
H1585 H 0.95632 0.99439 0.25709 0.0
H1586 H 0.99243 0.96808 0.23928 0.0
H1587 H 0.9461 0.96492 0.1968 0.0
H1588 H 0.91163 0.99157 0.21596 0.0
H1589 H 0.89883 0.94642 0.20153 0.0
H1590 H 0.86753 0.85154 0.28107 0.0
H1591 H 0.82529 0.89654 0.30509 0.0
H1592 H 0.88157 0.99065 0.2656 0.0
C1593 C 0.97811 0.89116 0.21418 0.0
C1594 C 0.98351 0.85208 0.20971 0.0
C1595 C 0.96022 0.82546 0.22321 0.0
C1596 C 0.93179 0.83753 0.24113 0.0
C1597 C 0.92662 0.87631 0.2448 0.0
C1598 C 0.94891 0.90276 0.23159 0.0
C1599 C 0.93547 0.94269 0.23748 0.0
C1600 C 0.96668 0.96546 0.25215 0.0
C1601 C 0.92223 0.96261 0.21141 0.0
C1602 C 0.90219 0.93459 0.25604 0.0
C1603 C 0.89797 0.89611 0.26033 0.0
C1604 C 0.87025 0.88168 0.27764 0.0
C1605 C 0.84639 0.90731 0.29109 0.0
C1606 C 0.84986 0.94667 0.28656 0.0
C1607 C 0.87788 0.9605 0.26873 0.0
loop_
_geom_bond_atom_site_label_1
_geom_bond_atom_site_label_2
_geom_bond_distance
_geom_bond_site_symmetry_2
_ccdc_geom_bond_type
Co0 N4 2.148 . S
Co0 N10 2.128 . S
Co0 N20 2.194 . S
Co0 O25 2.351 . S
Co0 O26 2.155 . S
Co0 O27 2.096 . S
C1 N4 1.301 . S
C1 N5 1.328 . S
C1 H6 0.930 . S
C2 C3 1.333 . S
C2 N4 1.317 . S
C2 H7 0.930 . S
C3 C2 1.333 . S
C3 N5 1.350 . S
C3 H29 0.931 . S
N4 Co0 2.148 . S
N4 C1 1.301 . S
N4 C2 1.317 . S
N5 C1 1.328 . S
N5 C3 1.350 . S
H6 C1 0.930 . S
H7 C2 0.930 . S
C8 O9 1.224 . S
C8 O27 1.247 . S
O9 C8 1.224 . S
N10 Co0 2.128 . S
N10 C11 1.355 . S
N10 C13 1.311 . S
C11 N10 1.355 . S
C11 C12 1.363 . S
C11 H23 0.929 . S
C12 C11 1.363 . S
C12 N14 1.375 . S
C12 H30 0.931 . S
C13 N10 1.311 . S
C13 N14 1.347 . S
C13 H24 0.929 . S
N14 C12 1.375 . S
N14 C13 1.347 . S
C15 C18 1.365 . S
C15 N20 1.328 . S
C15 H21 0.929 . S
C16 C17 1.362 . S
C16 C19 1.378 . S
C16 H31 0.929 . S
C17 C16 1.362 . S
C17 C18 1.366 . S
C18 C15 1.365 . S
C18 C17 1.366 . S
C18 H32 0.930 . S
C19 C16 1.378 . S
C19 N20 1.315 . S
C19 H22 0.930 . S
N20 Co0 2.194 . S
N20 C15 1.328 . S
N20 C19 1.315 . S
H21 C15 0.929 . S
H22 C19 0.930 . S
H23 C11 0.929 . S
H24 C13 0.929 . S
O25 Co0 2.351 . S
O25 C28 1.244 . S
O26 Co0 2.155 . S
O26 C28 1.240 . S
O27 Co0 2.096 . S
O27 C8 1.247 . S
C28 O25 1.244 . S
C28 O26 1.240 . S
H29 C3 0.931 . S
H30 C12 0.931 . S
H31 C16 0.929 . S
H32 C18 0.930 . S
Co33 N37 2.148 . S
Co33 N43 2.128 . S
Co33 N53 2.194 . S
Co33 O58 2.351 . S
Co33 O59 2.155 . S
Co33 O60 2.096 . S
C34 N37 1.301 . S
C34 N38 1.328 . S
C34 H39 0.930 . S
C35 C36 1.333 . S
C35 N37 1.317 . S
C35 H40 0.930 . S
C36 C35 1.333 . S
C36 N38 1.350 . S
C36 H62 0.931 . S
N37 Co33 2.148 . S
N37 C34 1.301 . S
N37 C35 1.317 . S
N38 C34 1.328 . S
N38 C36 1.350 . S
H39 C34 0.930 . S
H40 C35 0.930 . S
C41 O42 1.224 . S
C41 O60 1.247 . S
O42 C41 1.224 . S
N43 Co33 2.128 . S
N43 C44 1.355 . S
N43 C46 1.311 . S
C44 N43 1.355 . S
C44 C45 1.363 . S
C44 H56 0.929 . S
C45 C44 1.363 . S
C45 N47 1.375 . S
C45 H63 0.931 . S
C46 N43 1.311 . S
C46 N47 1.347 . S
C46 H57 0.929 . S
N47 C45 1.375 . S
N47 C46 1.347 . S
C48 C51 1.365 . S
C48 N53 1.328 . S
C48 H54 0.929 . S
C49 C50 1.362 . S
C49 C52 1.378 . S
C49 H64 0.929 . S
C50 C49 1.362 . S
C50 C51 1.366 . S
C51 C48 1.365 . S
C51 C50 1.366 . S
C51 H65 0.930 . S
C52 C49 1.378 . S
C52 N53 1.315 . S
C52 H55 0.930 . S
N53 Co33 2.194 . S
N53 C48 1.328 . S
N53 C52 1.315 . S
H54 C48 0.929 . S
H55 C52 0.930 . S
H56 C44 0.929 . S
H57 C46 0.929 . S
O58 Co33 2.351 . S
O58 C61 1.244 . S
O59 Co33 2.155 . S
O59 C61 1.240 . S
O60 Co33 2.096 . S
O60 C41 1.247 . S
C61 O58 1.244 . S
C61 O59 1.240 . S
H62 C36 0.931 . S
H63 C45 0.931 . S
H64 C49 0.929 . S
H65 C51 0.930 . S
Co66 N70 2.148 . S
Co66 N76 2.128 . S
Co66 N86 2.194 1_455 S
Co66 O91 2.351 1_455 S
Co66 O92 2.155 . S
Co66 O93 2.096 . S
C67 N70 1.301 . S
C67 N71 1.328 . S
C67 H72 0.930 1_455 S
C68 C69 1.333 . S
C68 N70 1.317 . S
C68 H73 0.930 . S
C69 C68 1.333 . S
C69 N71 1.350 . S
C69 H95 0.931 . S
N70 Co66 2.148 . S
N70 C67 1.301 . S
N70 C68 1.317 . S
N71 C67 1.328 . S
N71 C69 1.350 . S
H72 C67 0.930 1_655 S
H73 C68 0.930 . S
C74 O75 1.224 . S
C74 O93 1.247 . S
O75 C74 1.224 . S
N76 Co66 2.128 . S
N76 C77 1.355 1_455 S
N76 C79 1.311 . S
C77 N76 1.355 1_655 S
C77 C78 1.363 . S
C77 H89 0.929 . S
C78 C77 1.363 . S
C78 N80 1.366 1_655 S
C78 H96 0.931 . S
C79 N76 1.311 . S
C79 N80 1.353 . S
C79 H90 0.929 . S
N80 C78 1.366 1_455 S
N80 C79 1.353 . S
C81 C84 1.365 . S
C81 N86 1.328 . S
C81 H87 0.929 . S
C82 C83 1.362 . S
C82 C85 1.378 . S
C82 H97 0.929 . S
C83 C82 1.362 . S
C83 C84 1.366 . S
C84 C81 1.365 . S
C84 C83 1.366 . S
C84 H98 0.930 . S
C85 C82 1.378 . S
C85 N86 1.315 . S
C85 H88 0.930 . S
N86 Co66 2.194 1_655 S
N86 C81 1.328 . S
N86 C85 1.315 . S
H87 C81 0.929 . S
H88 C85 0.930 . S
H89 C77 0.929 . S
H90 C79 0.929 . S
O91 Co66 2.351 1_655 S
O91 C94 1.244 1_655 S
O92 Co66 2.155 . S
O92 C94 1.240 . S
O93 Co66 2.096 . S
O93 C74 1.247 . S
C94 O91 1.244 1_455 S
C94 O92 1.240 . S
H95 C69 0.931 . S
H96 C78 0.931 . S
H97 C82 0.929 . S
H98 C84 0.930 . S
Co99 N103 2.148 . S
Co99 N109 2.128 . S
Co99 N119 2.194 1_545 S
Co99 O124 2.351 1_545 S
Co99 O125 2.155 . S
Co99 O126 2.096 . S
C100 N103 1.301 . S
C100 N104 1.328 . S
C100 H105 0.930 1_545 S
C101 C102 1.333 . S
C101 N103 1.317 . S
C101 H106 0.930 . S
C102 C101 1.333 . S
C102 N104 1.350 . S
C102 H128 0.931 . S
N103 Co99 2.148 . S
N103 C100 1.301 . S
N103 C101 1.317 . S
N104 C100 1.328 . S
N104 C102 1.350 . S
H105 C100 0.930 1_565 S
H106 C101 0.930 . S
C107 O108 1.224 . S
C107 O126 1.247 . S
O108 C107 1.224 . S
N109 Co99 2.128 . S
N109 C110 1.355 1_545 S
N109 C112 1.311 . S
C110 N109 1.355 1_565 S
C110 C111 1.363 . S
C110 H122 0.929 . S
C111 C110 1.363 . S
C111 N113 1.366 1_565 S
C111 H129 0.931 . S
C112 N109 1.311 . S
C112 N113 1.353 . S
C112 H123 0.929 . S
N113 C111 1.366 1_545 S
N113 C112 1.353 . S
C114 C117 1.365 . S
C114 N119 1.328 . S
C114 H120 0.929 . S
C115 C116 1.362 . S
C115 C118 1.378 . S
C115 H130 0.929 . S
C116 C115 1.362 . S
C116 C117 1.366 . S
C117 C114 1.365 . S
C117 C116 1.366 . S
C117 H131 0.930 . S
C118 C115 1.378 . S
C118 N119 1.315 . S
C118 H121 0.930 . S
N119 Co99 2.194 1_565 S
N119 C114 1.328 . S
N119 C118 1.315 . S
H120 C114 0.929 . S
H121 C118 0.930 . S
H122 C110 0.929 . S
H123 C112 0.929 . S
O124 Co99 2.351 1_565 S
O124 C127 1.244 1_565 S
O125 Co99 2.155 . S
O125 C127 1.240 . S
O126 Co99 2.096 . S
O126 C107 1.247 . S
C127 O124 1.244 1_545 S
C127 O125 1.240 . S
H128 C102 0.931 . S
H129 C111 0.931 . S
H130 C115 0.929 . S
H131 C117 0.930 . S
Co132 N136 2.148 . S
Co132 N142 2.128 . S
Co132 N152 2.194 . S
Co132 O157 2.351 . S
Co132 O158 2.155 . S
Co132 O159 2.096 . S
C133 N136 1.301 . S
C133 N137 1.328 . S
C133 H138 0.930 . S
C134 C135 1.333 . S
C134 N136 1.317 . S
C134 H139 0.930 . S
C135 C134 1.333 . S
C135 N137 1.350 . S
C135 H161 0.931 . S
N136 Co132 2.148 . S
N136 C133 1.301 . S
N136 C134 1.317 . S
N137 C133 1.328 . S
N137 C135 1.350 . S
H138 C133 0.930 . S
H139 C134 0.930 . S
C140 O141 1.224 . S
C140 O159 1.247 . S
O141 C140 1.224 . S
N142 Co132 2.128 . S
N142 C143 1.355 . S
N142 C145 1.311 . S
C143 N142 1.355 . S
C143 C144 1.363 . S
C143 H155 0.929 . S
C144 C143 1.363 . S
C144 N146 1.375 . S
C144 H162 0.931 . S
C145 N142 1.311 . S
C145 N146 1.347 . S
C145 H156 0.929 . S
N146 C144 1.375 . S
N146 C145 1.347 . S
C147 C150 1.365 . S
C147 N152 1.328 . S
C147 H153 0.929 . S
C148 C149 1.362 . S
C148 C151 1.378 . S
C148 H163 0.929 . S
C149 C148 1.362 . S
C149 C150 1.366 . S
C150 C147 1.365 . S
C150 C149 1.366 . S
C150 H164 0.930 . S
C151 C148 1.378 . S
C151 N152 1.315 . S
C151 H154 0.930 . S
N152 Co132 2.194 . S
N152 C147 1.328 . S
N152 C151 1.315 . S
H153 C147 0.929 . S
H154 C151 0.930 . S
H155 C143 0.929 . S
H156 C145 0.929 . S
O157 Co132 2.351 . S
O157 C160 1.244 . S
O158 Co132 2.155 . S
O158 C160 1.240 . S
O159 Co132 2.096 . S
O159 C140 1.247 . S
C160 O157 1.244 . S
C160 O158 1.240 . S
H161 C135 0.931 . S
H162 C144 0.931 . S
H163 C148 0.929 . S
H164 C150 0.930 . S
Co165 N169 2.148 . S
Co165 N175 2.128 . S
Co165 N185 2.194 . S
Co165 O190 2.351 . S
Co165 O191 2.155 . S
Co165 O192 2.096 . S
C166 N169 1.301 . S
C166 N170 1.328 . S
C166 H171 0.930 . S
C167 C168 1.333 . S
C167 N169 1.317 . S
C167 H172 0.930 . S
C168 C167 1.333 . S
C168 N170 1.350 . S
C168 H194 0.931 . S
N169 Co165 2.148 . S
N169 C166 1.301 . S
N169 C167 1.317 . S
N170 C166 1.328 . S
N170 C168 1.350 . S
H171 C166 0.930 . S
H172 C167 0.930 . S
C173 O174 1.224 . S
C173 O192 1.247 . S
O174 C173 1.224 . S
N175 Co165 2.128 . S
N175 C176 1.355 . S
N175 C178 1.311 . S
C176 N175 1.355 . S
C176 C177 1.363 . S
C176 H188 0.929 . S
C177 C176 1.363 . S
C177 N179 1.375 . S
C177 H195 0.931 . S
C178 N175 1.311 . S
C178 N179 1.347 . S
C178 H189 0.929 . S
N179 C177 1.375 . S
N179 C178 1.347 . S
C180 C183 1.365 . S
C180 N185 1.328 . S
C180 H186 0.929 . S
C181 C182 1.362 . S
C181 C184 1.378 . S
C181 H196 0.929 . S
C182 C181 1.362 . S
C182 C183 1.366 . S
C183 C180 1.365 . S
C183 C182 1.366 . S
C183 H197 0.930 . S
C184 C181 1.378 . S
C184 N185 1.315 . S
C184 H187 0.930 . S
N185 Co165 2.194 . S
N185 C180 1.328 . S
N185 C184 1.315 . S
H186 C180 0.929 . S
H187 C184 0.930 . S
H188 C176 0.929 . S
H189 C178 0.929 . S
O190 Co165 2.351 . S
O190 C193 1.244 . S
O191 Co165 2.155 . S
O191 C193 1.240 . S
O192 Co165 2.096 . S
O192 C173 1.247 . S
C193 O190 1.244 . S
C193 O191 1.240 . S
H194 C168 0.931 . S
H195 C177 0.931 . S
H196 C181 0.929 . S
H197 C183 0.930 . S
Co198 N202 2.148 . S
Co198 N208 2.128 . S
Co198 N218 2.194 1_455 S
Co198 O223 2.351 1_455 S
Co198 O224 2.155 . S
Co198 O225 2.096 . S
C199 N202 1.301 . S
C199 N203 1.328 . S
C199 H204 0.930 1_455 S
C200 C201 1.333 . S
C200 N202 1.317 . S
C200 H205 0.930 . S
C201 C200 1.333 . S
C201 N203 1.350 . S
C201 H227 0.931 . S
N202 Co198 2.148 . S
N202 C199 1.301 . S
N202 C200 1.317 . S
N203 C199 1.328 . S
N203 C201 1.350 . S
H204 C199 0.930 1_655 S
H205 C200 0.930 . S
C206 O207 1.224 . S
C206 O225 1.247 . S
O207 C206 1.224 . S
N208 Co198 2.128 . S
N208 C209 1.355 1_455 S
N208 C211 1.311 . S
C209 N208 1.355 1_655 S
C209 C210 1.363 . S
C209 H221 0.929 . S
C210 C209 1.363 . S
C210 N212 1.366 1_655 S
C210 H228 0.931 . S
C211 N208 1.311 . S
C211 N212 1.353 . S
C211 H222 0.929 . S
N212 C210 1.366 1_455 S
N212 C211 1.353 . S
C213 C216 1.365 . S
C213 N218 1.328 . S
C213 H219 0.929 . S
C214 C215 1.362 . S
C214 C217 1.378 . S
C214 H229 0.929 . S
C215 C214 1.362 . S
C215 C216 1.366 . S
C216 C213 1.365 . S
C216 C215 1.366 . S
C216 H230 0.930 . S
C217 C214 1.378 . S
C217 N218 1.315 . S
C217 H220 0.930 . S
N218 Co198 2.194 1_655 S
N218 C213 1.328 . S
N218 C217 1.315 . S
H219 C213 0.929 . S
H220 C217 0.930 . S
H221 C209 0.929 . S
H222 C211 0.929 . S
O223 Co198 2.351 1_655 S
O223 C226 1.244 1_655 S
O224 Co198 2.155 . S
O224 C226 1.240 . S
O225 Co198 2.096 . S
O225 C206 1.247 . S
C226 O223 1.244 1_455 S
C226 O224 1.240 . S
H227 C201 0.931 . S
H228 C210 0.931 . S
H229 C214 0.929 . S
H230 C216 0.930 . S
Co231 N235 2.148 . S
Co231 N241 2.128 . S
Co231 N251 2.194 1_545 S
Co231 O256 2.351 1_545 S
Co231 O257 2.155 . S
Co231 O258 2.096 . S
C232 N235 1.301 . S
C232 N236 1.328 . S
C232 H237 0.930 1_545 S
C233 C234 1.333 . S
C233 N235 1.317 . S
C233 H238 0.930 . S
C234 C233 1.333 . S
C234 N236 1.350 . S
C234 H260 0.931 . S
N235 Co231 2.148 . S
N235 C232 1.301 . S
N235 C233 1.317 . S
N236 C232 1.328 . S
N236 C234 1.350 . S
H237 C232 0.930 1_565 S
H238 C233 0.930 . S
C239 O240 1.224 . S
C239 O258 1.247 . S
O240 C239 1.224 . S
N241 Co231 2.128 . S
N241 C242 1.355 1_545 S
N241 C244 1.311 . S
C242 N241 1.355 1_565 S
C242 C243 1.363 . S
C242 H254 0.929 . S
C243 C242 1.363 . S
C243 N245 1.366 1_565 S
C243 H261 0.931 . S
C244 N241 1.311 . S
C244 N245 1.353 . S
C244 H255 0.929 . S
N245 C243 1.366 1_545 S
N245 C244 1.353 . S
C246 C249 1.365 . S
C246 N251 1.328 . S
C246 H252 0.929 . S
C247 C248 1.362 . S
C247 C250 1.378 . S
C247 H262 0.929 . S
C248 C247 1.362 . S
C248 C249 1.366 . S
C249 C246 1.365 . S
C249 C248 1.366 . S
C249 H263 0.930 . S
C250 C247 1.378 . S
C250 N251 1.315 . S
C250 H253 0.930 . S
N251 Co231 2.194 1_565 S
N251 C246 1.328 . S
N251 C250 1.315 . S
H252 C246 0.929 . S
H253 C250 0.930 . S
H254 C242 0.929 . S
H255 C244 0.929 . S
O256 Co231 2.351 1_565 S
O256 C259 1.244 1_565 S
O257 Co231 2.155 . S
O257 C259 1.240 . S
O258 Co231 2.096 . S
O258 C239 1.247 . S
C259 O256 1.244 1_545 S
C259 O257 1.240 . S
H260 C234 0.931 . S
H261 C243 0.931 . S
H262 C247 0.929 . S
H263 C249 0.930 . S
Co264 N268 2.148 . S
Co264 N274 2.128 . S
Co264 N284 2.194 . S
Co264 O289 2.351 . S
Co264 O290 2.155 . S
Co264 O291 2.096 . S
C265 N268 1.301 . S
C265 N269 1.328 . S
C265 H270 0.930 . S
C266 C267 1.333 . S
C266 N268 1.317 . S
C266 H271 0.930 . S
C267 C266 1.333 . S
C267 N269 1.350 . S
C267 H293 0.931 . S
N268 Co264 2.148 . S
N268 C265 1.301 . S
N268 C266 1.317 . S
N269 C265 1.328 . S
N269 C267 1.350 . S
H270 C265 0.930 . S
H271 C266 0.930 . S
C272 O273 1.224 . S
C272 O291 1.247 . S
O273 C272 1.224 . S
N274 Co264 2.128 . S
N274 C275 1.355 . S
N274 C277 1.311 . S
C275 N274 1.355 . S
C275 C276 1.363 . S
C275 H287 0.929 . S
C276 C275 1.363 . S
C276 N278 1.375 . S
C276 H294 0.931 . S
C277 N274 1.311 . S
C277 N278 1.347 . S
C277 H288 0.929 . S
N278 C276 1.375 . S
N278 C277 1.347 . S
C279 C282 1.365 . S
C279 N284 1.328 . S
C279 H285 0.929 . S
C280 C281 1.362 . S
C280 C283 1.378 . S
C280 H295 0.929 . S
C281 C280 1.362 . S
C281 C282 1.366 . S
C282 C279 1.365 . S
C282 C281 1.366 . S
C282 H296 0.930 . S
C283 C280 1.378 . S
C283 N284 1.315 . S
C283 H286 0.930 . S
N284 Co264 2.194 . S
N284 C279 1.328 . S
N284 C283 1.315 . S
H285 C279 0.929 . S
H286 C283 0.930 . S
H287 C275 0.929 . S
H288 C277 0.929 . S
O289 Co264 2.351 . S
O289 C292 1.244 . S
O290 Co264 2.155 . S
O290 C292 1.240 . S
O291 Co264 2.096 . S
O291 C272 1.247 . S
C292 O289 1.244 . S
C292 O290 1.240 . S
H293 C267 0.931 . S
H294 C276 0.931 . S
H295 C280 0.929 . S
H296 C282 0.930 . S
Co297 N301 2.148 . S
Co297 N307 2.128 . S
Co297 N317 2.194 . S
Co297 O322 2.351 . S
Co297 O323 2.155 . S
Co297 O324 2.096 . S
C298 N301 1.301 . S
C298 N302 1.328 . S
C298 H303 0.930 . S
C299 C300 1.333 . S
C299 N301 1.317 . S
C299 H304 0.930 . S
C300 C299 1.333 . S
C300 N302 1.350 . S
C300 H326 0.931 . S
N301 Co297 2.148 . S
N301 C298 1.301 . S
N301 C299 1.317 . S
N302 C298 1.328 . S
N302 C300 1.350 . S
H303 C298 0.930 . S
H304 C299 0.930 . S
C305 O306 1.224 . S
C305 O324 1.247 . S
O306 C305 1.224 . S
N307 Co297 2.128 . S
N307 C308 1.355 . S
N307 C310 1.311 . S
C308 N307 1.355 . S
C308 C309 1.363 . S
C308 H320 0.929 . S
C309 C308 1.363 . S
C309 N311 1.375 . S
C309 H327 0.931 . S
C310 N307 1.311 . S
C310 N311 1.347 . S
C310 H321 0.929 . S
N311 C309 1.375 . S
N311 C310 1.347 . S
C312 C315 1.365 . S
C312 N317 1.328 . S
C312 H318 0.929 . S
C313 C314 1.362 . S
C313 C316 1.378 . S
C313 H328 0.929 . S
C314 C313 1.362 . S
C314 C315 1.366 . S
C315 C312 1.365 . S
C315 C314 1.366 . S
C315 H329 0.930 . S
C316 C313 1.378 . S
C316 N317 1.315 . S
C316 H319 0.930 . S
N317 Co297 2.194 . S
N317 C312 1.328 . S
N317 C316 1.315 . S
H318 C312 0.929 . S
H319 C316 0.930 . S
H320 C308 0.929 . S
H321 C310 0.929 . S
O322 Co297 2.351 . S
O322 C325 1.244 . S
O323 Co297 2.155 . S
O323 C325 1.240 . S
O324 Co297 2.096 . S
O324 C305 1.247 . S
C325 O322 1.244 . S
C325 O323 1.240 . S
H326 C300 0.931 . S
H327 C309 0.931 . S
H328 C313 0.929 . S
H329 C315 0.930 . S
Co330 N334 2.148 . S
Co330 N340 2.128 . S
Co330 N350 2.194 1_655 S
Co330 O355 2.351 1_655 S
Co330 O356 2.155 . S
Co330 O357 2.096 . S
C331 N334 1.301 . S
C331 N335 1.328 . S
C331 H336 0.930 1_655 S
C332 C333 1.333 . S
C332 N334 1.317 . S
C332 H337 0.930 . S
C333 C332 1.333 . S
C333 N335 1.350 . S
C333 H359 0.931 . S
N334 Co330 2.148 . S
N334 C331 1.301 . S
N334 C332 1.317 . S
N335 C331 1.328 . S
N335 C333 1.350 . S
H336 C331 0.930 1_455 S
H337 C332 0.930 . S
C338 O339 1.224 . S
C338 O357 1.247 . S
O339 C338 1.224 . S
N340 Co330 2.128 . S
N340 C341 1.355 1_655 S
N340 C343 1.311 . S
C341 N340 1.355 1_455 S
C341 C342 1.363 . S
C341 H353 0.929 . S
C342 C341 1.363 . S
C342 N344 1.366 1_455 S
C342 H360 0.931 . S
C343 N340 1.311 . S
C343 N344 1.353 . S
C343 H354 0.929 . S
N344 C342 1.366 1_655 S
N344 C343 1.353 . S
C345 C348 1.365 . S
C345 N350 1.328 . S
C345 H351 0.929 . S
C346 C347 1.362 . S
C346 C349 1.378 . S
C346 H361 0.929 . S
C347 C346 1.362 . S
C347 C348 1.366 . S
C348 C345 1.365 . S
C348 C347 1.366 . S
C348 H362 0.930 . S
C349 C346 1.378 . S
C349 N350 1.315 . S
C349 H352 0.930 . S
N350 Co330 2.194 1_455 S
N350 C345 1.328 . S
N350 C349 1.315 . S
H351 C345 0.929 . S
H352 C349 0.930 . S
H353 C341 0.929 . S
H354 C343 0.929 . S
O355 Co330 2.351 1_455 S
O355 C358 1.244 1_455 S
O356 Co330 2.155 . S
O356 C358 1.240 . S
O357 Co330 2.096 . S
O357 C338 1.247 . S
C358 O355 1.244 1_655 S
C358 O356 1.240 . S
H359 C333 0.931 . S
H360 C342 0.931 . S
H361 C346 0.929 . S
H362 C348 0.930 . S
Co363 N367 2.148 . S
Co363 N373 2.128 . S
Co363 N383 2.194 1_565 S
Co363 O388 2.351 1_565 S
Co363 O389 2.155 . S
Co363 O390 2.096 . S
C364 N367 1.301 . S
C364 N368 1.328 . S
C364 H369 0.930 1_565 S
C365 C366 1.333 . S
C365 N367 1.317 . S
C365 H370 0.930 . S
C366 C365 1.333 . S
C366 N368 1.350 . S
C366 H392 0.931 . S
N367 Co363 2.148 . S
N367 C364 1.301 . S
N367 C365 1.317 . S
N368 C364 1.328 . S
N368 C366 1.350 . S
H369 C364 0.930 1_545 S
H370 C365 0.930 . S
C371 O372 1.224 . S
C371 O390 1.247 . S
O372 C371 1.224 . S
N373 Co363 2.128 . S
N373 C374 1.355 1_565 S
N373 C376 1.311 . S
C374 N373 1.355 1_545 S
C374 C375 1.363 . S
C374 H386 0.929 . S
C375 C374 1.363 . S
C375 N377 1.366 1_545 S
C375 H393 0.931 . S
C376 N373 1.311 . S
C376 N377 1.353 . S
C376 H387 0.929 . S
N377 C375 1.366 1_565 S
N377 C376 1.353 . S
C378 C381 1.365 . S
C378 N383 1.328 . S
C378 H384 0.929 . S
C379 C380 1.362 . S
C379 C382 1.378 . S
C379 H394 0.929 . S
C380 C379 1.362 . S
C380 C381 1.366 . S
C381 C378 1.365 . S
C381 C380 1.366 . S
C381 H395 0.930 . S
C382 C379 1.378 . S
C382 N383 1.315 . S
C382 H385 0.930 . S
N383 Co363 2.194 1_545 S
N383 C378 1.328 . S
N383 C382 1.315 . S
H384 C378 0.929 . S
H385 C382 0.930 . S
H386 C374 0.929 . S
H387 C376 0.929 . S
O388 Co363 2.351 1_545 S
O388 C391 1.244 1_545 S
O389 Co363 2.155 . S
O389 C391 1.240 . S
O390 Co363 2.096 . S
O390 C371 1.247 . S
C391 O388 1.244 1_565 S
C391 O389 1.240 . S
H392 C366 0.931 . S
H393 C375 0.931 . S
H394 C379 0.929 . S
H395 C381 0.930 . S
Co396 N400 2.148 . S
Co396 N406 2.128 . S
Co396 N416 2.194 . S
Co396 O421 2.351 . S
Co396 O422 2.155 . S
Co396 O423 2.096 . S
C397 N400 1.301 . S
C397 N401 1.328 . S
C397 H402 0.930 . S
C398 C399 1.333 . S
C398 N400 1.317 . S
C398 H403 0.930 . S
C399 C398 1.333 . S
C399 N401 1.350 . S
C399 H425 0.931 . S
N400 Co396 2.148 . S
N400 C397 1.301 . S
N400 C398 1.317 . S
N401 C397 1.328 . S
N401 C399 1.350 . S
H402 C397 0.930 . S
H403 C398 0.930 . S
C404 O405 1.224 . S
C404 O423 1.247 . S
O405 C404 1.224 . S
N406 Co396 2.128 . S
N406 C407 1.355 . S
N406 C409 1.311 . S
C407 N406 1.355 . S
C407 C408 1.363 . S
C407 H419 0.929 . S
C408 C407 1.363 . S
C408 N410 1.375 . S
C408 H426 0.931 . S
C409 N406 1.311 . S
C409 N410 1.347 . S
C409 H420 0.929 . S
N410 C408 1.375 . S
N410 C409 1.347 . S
C411 C414 1.365 . S
C411 N416 1.328 . S
C411 H417 0.929 . S
C412 C413 1.362 . S
C412 C415 1.378 . S
C412 H427 0.929 . S
C413 C412 1.362 . S
C413 C414 1.366 . S
C414 C411 1.365 . S
C414 C413 1.366 . S
C414 H428 0.930 . S
C415 C412 1.378 . S
C415 N416 1.315 . S
C415 H418 0.930 . S
N416 Co396 2.194 . S
N416 C411 1.328 . S
N416 C415 1.315 . S
H417 C411 0.929 . S
H418 C415 0.930 . S
H419 C407 0.929 . S
H420 C409 0.929 . S
O421 Co396 2.351 . S
O421 C424 1.244 . S
O422 Co396 2.155 . S
O422 C424 1.240 . S
O423 Co396 2.096 . S
O423 C404 1.247 . S
C424 O421 1.244 . S
C424 O422 1.240 . S
H425 C399 0.931 . S
H426 C408 0.931 . S
H427 C412 0.929 . S
H428 C414 0.930 . S
Co429 N433 2.148 . S
Co429 N439 2.128 . S
Co429 N449 2.194 . S
Co429 O454 2.351 . S
Co429 O455 2.155 . S
Co429 O456 2.096 . S
C430 N433 1.301 . S
C430 N434 1.328 . S
C430 H435 0.930 . S
C431 C432 1.333 . S
C431 N433 1.317 . S
C431 H436 0.930 . S
C432 C431 1.333 . S
C432 N434 1.350 . S
C432 H458 0.931 . S
N433 Co429 2.148 . S
N433 C430 1.301 . S
N433 C431 1.317 . S
N434 C430 1.328 . S
N434 C432 1.350 . S
H435 C430 0.930 . S
H436 C431 0.930 . S
C437 O438 1.224 . S
C437 O456 1.247 . S
O438 C437 1.224 . S
N439 Co429 2.128 . S
N439 C440 1.355 . S
N439 C442 1.311 . S
C440 N439 1.355 . S
C440 C441 1.363 . S
C440 H452 0.929 . S
C441 C440 1.363 . S
C441 N443 1.375 . S
C441 H459 0.931 . S
C442 N439 1.311 . S
C442 N443 1.347 . S
C442 H453 0.929 . S
N443 C441 1.375 . S
N443 C442 1.347 . S
C444 C447 1.365 . S
C444 N449 1.328 . S
C444 H450 0.929 . S
C445 C446 1.362 . S
C445 C448 1.378 . S
C445 H460 0.929 . S
C446 C445 1.362 . S
C446 C447 1.366 . S
C447 C444 1.365 . S
C447 C446 1.366 . S
C447 H461 0.930 . S
C448 C445 1.378 . S
C448 N449 1.315 . S
C448 H451 0.930 . S
N449 Co429 2.194 . S
N449 C444 1.328 . S
N449 C448 1.315 . S
H450 C444 0.929 . S
H451 C448 0.930 . S
H452 C440 0.929 . S
H453 C442 0.929 . S
O454 Co429 2.351 . S
O454 C457 1.244 . S
O455 Co429 2.155 . S
O455 C457 1.240 . S
O456 Co429 2.096 . S
O456 C437 1.247 . S
C457 O454 1.244 . S
C457 O455 1.240 . S
H458 C432 0.931 . S
H459 C441 0.931 . S
H460 C445 0.929 . S
H461 C447 0.930 . S
Co462 N466 2.148 . S
Co462 N472 2.128 . S
Co462 N482 2.194 1_655 S
Co462 O487 2.351 1_655 S
Co462 O488 2.155 . S
Co462 O489 2.096 . S
C463 N466 1.301 . S
C463 N467 1.328 . S
C463 H468 0.930 1_655 S
C464 C465 1.333 . S
C464 N466 1.317 . S
C464 H469 0.930 . S
C465 C464 1.333 . S
C465 N467 1.350 . S
C465 H491 0.931 . S
N466 Co462 2.148 . S
N466 C463 1.301 . S
N466 C464 1.317 . S
N467 C463 1.328 . S
N467 C465 1.350 . S
H468 C463 0.930 1_455 S
H469 C464 0.930 . S
C470 O471 1.224 . S
C470 O489 1.247 . S
O471 C470 1.224 . S
N472 Co462 2.128 . S
N472 C473 1.355 1_655 S
N472 C475 1.311 . S
C473 N472 1.355 1_455 S
C473 C474 1.363 . S
C473 H485 0.929 . S
C474 C473 1.363 . S
C474 N476 1.366 1_455 S
C474 H492 0.931 . S
C475 N472 1.311 . S
C475 N476 1.353 . S
C475 H486 0.929 . S
N476 C474 1.366 1_655 S
N476 C475 1.353 . S
C477 C480 1.365 . S
C477 N482 1.328 . S
C477 H483 0.929 . S
C478 C479 1.362 . S
C478 C481 1.378 . S
C478 H493 0.929 . S
C479 C478 1.362 . S
C479 C480 1.366 . S
C480 C477 1.365 . S
C480 C479 1.366 . S
C480 H494 0.930 . S
C481 C478 1.378 . S
C481 N482 1.315 . S
C481 H484 0.930 . S
N482 Co462 2.194 1_455 S
N482 C477 1.328 . S
N482 C481 1.315 . S
H483 C477 0.929 . S
H484 C481 0.930 . S
H485 C473 0.929 . S
H486 C475 0.929 . S
O487 Co462 2.351 1_455 S
O487 C490 1.244 1_455 S
O488 Co462 2.155 . S
O488 C490 1.240 . S
O489 Co462 2.096 . S
O489 C470 1.247 . S
C490 O487 1.244 1_655 S
C490 O488 1.240 . S
H491 C465 0.931 . S
H492 C474 0.931 . S
H493 C478 0.929 . S
H494 C480 0.930 . S
Co495 N499 2.148 . S
Co495 N505 2.128 . S
Co495 N515 2.194 1_565 S
Co495 O520 2.351 1_565 S
Co495 O521 2.155 . S
Co495 O522 2.096 . S
C496 N499 1.301 . S
C496 N500 1.328 . S
C496 H501 0.930 1_565 S
C497 C498 1.333 . S
C497 N499 1.317 . S
C497 H502 0.930 . S
C498 C497 1.333 . S
C498 N500 1.350 . S
C498 H524 0.931 . S
N499 Co495 2.148 . S
N499 C496 1.301 . S
N499 C497 1.317 . S
N500 C496 1.328 . S
N500 C498 1.350 . S
H501 C496 0.930 1_545 S
H502 C497 0.930 . S
C503 O504 1.224 . S
C503 O522 1.247 . S
O504 C503 1.224 . S
N505 Co495 2.128 . S
N505 C506 1.355 1_565 S
N505 C508 1.311 . S
C506 N505 1.355 1_545 S
C506 C507 1.363 . S
C506 H518 0.929 . S
C507 C506 1.363 . S
C507 N509 1.366 1_545 S
C507 H525 0.931 . S
C508 N505 1.311 . S
C508 N509 1.353 . S
C508 H519 0.929 . S
N509 C507 1.366 1_565 S
N509 C508 1.353 . S
C510 C513 1.365 . S
C510 N515 1.328 . S
C510 H516 0.929 . S
C511 C512 1.362 . S
C511 C514 1.378 . S
C511 H526 0.929 . S
C512 C511 1.362 . S
C512 C513 1.366 . S
C513 C510 1.365 . S
C513 C512 1.366 . S
C513 H527 0.930 . S
C514 C511 1.378 . S
C514 N515 1.315 . S
C514 H517 0.930 . S
N515 Co495 2.194 1_545 S
N515 C510 1.328 . S
N515 C514 1.315 . S
H516 C510 0.929 . S
H517 C514 0.930 . S
H518 C506 0.929 . S
H519 C508 0.929 . S
O520 Co495 2.351 1_545 S
O520 C523 1.244 1_545 S
O521 Co495 2.155 . S
O521 C523 1.240 . S
O522 Co495 2.096 . S
O522 C503 1.247 . S
C523 O520 1.244 1_565 S
C523 O521 1.240 . S
H524 C498 0.931 . S
H525 C507 0.931 . S
H526 C511 0.929 . S
H527 C513 0.930 . S
H528 C540 0.930 . S
H529 C542 0.930 . S
H530 C543 0.930 . S
H531 C547 0.959 . S
H532 C547 0.959 . S
H533 C547 0.961 1_554 S
H534 C548 0.960 1_554 S
H535 C548 0.961 . S
H536 C548 0.959 . S
H537 C551 0.929 . S
H538 C552 0.931 . S
H539 C554 0.930 . S
C540 H528 0.930 . S
C540 C541 1.399 . S
C540 C545 1.399 . S
C541 C540 1.399 . S
C541 C542 1.376 . S
C542 H529 0.930 . S
C542 C541 1.376 . S
C542 C543 1.388 . S
C543 H530 0.930 . S
C543 C542 1.388 . S
C543 C544 1.390 . S
C544 C543 1.390 . S
C544 C545 1.394 . S
C544 C550 1.465 1_554 S
C545 C540 1.399 . S
C545 C544 1.394 . S
C545 C546 1.516 1_554 S
C546 C545 1.516 1_556 S
C546 C547 1.502 . S
C546 C548 1.561 . S
C546 C549 1.526 . S
C547 H531 0.959 . S
C547 H532 0.959 . S
C547 H533 0.961 1_556 S
C547 C546 1.502 . S
C548 H534 0.960 1_556 S
C548 H535 0.961 . S
C548 H536 0.959 . S
C548 C546 1.561 . S
C549 C546 1.526 . S
C549 C550 1.396 . S
C549 C554 1.390 . S
C550 C544 1.465 1_556 S
C550 C549 1.396 . S
C550 C551 1.399 . S
C551 H537 0.929 . S
C551 C550 1.399 . S
C551 C552 1.385 . S
C552 H538 0.931 . S
C552 C551 1.385 . S
C552 C553 1.389 . S
C553 C552 1.389 . S
C553 C554 1.387 . S
C554 H539 0.930 . S
C554 C549 1.390 . S
C554 C553 1.387 . S
H555 C567 0.930 . S
H556 C569 0.930 . S
H557 C570 0.930 . S
H558 C574 0.959 . S
H559 C574 0.959 . S
H560 C574 0.961 . S
H561 C575 0.960 . S
H562 C575 0.961 . S
H563 C575 0.959 . S
H564 C578 0.929 . S
H565 C579 0.931 . S
H566 C581 0.930 . S
C567 H555 0.930 . S
C567 C568 1.399 . S
C567 C572 1.399 . S
C568 C567 1.399 . S
C568 C569 1.376 . S
C569 H556 0.930 . S
C569 C568 1.376 . S
C569 C570 1.388 . S
C570 H557 0.930 . S
C570 C569 1.388 . S
C570 C571 1.390 . S
C571 C570 1.390 . S
C571 C572 1.394 . S
C571 C577 1.465 . S
C572 C567 1.399 . S
C572 C571 1.394 . S
C572 C573 1.516 . S
C573 C572 1.516 . S
C573 C574 1.502 . S
C573 C575 1.561 . S
C573 C576 1.526 . S
C574 H558 0.959 . S
C574 H559 0.959 . S
C574 H560 0.961 . S
C574 C573 1.502 . S
C575 H561 0.960 . S
C575 H562 0.961 . S
C575 H563 0.959 . S
C575 C573 1.561 . S
C576 C573 1.526 . S
C576 C577 1.396 . S
C576 C581 1.390 . S
C577 C571 1.465 . S
C577 C576 1.396 . S
C577 C578 1.399 . S
C578 H564 0.929 . S
C578 C577 1.399 . S
C578 C579 1.385 . S
C579 H565 0.931 . S
C579 C578 1.385 . S
C579 C580 1.389 . S
C580 C579 1.389 . S
C580 C581 1.387 . S
C581 H566 0.930 . S
C581 C576 1.390 . S
C581 C580 1.387 . S
H582 C594 0.930 . S
H583 C596 0.930 . S
H584 C597 0.930 . S
H585 C601 0.959 . S
H586 C601 0.959 . S
H587 C601 0.961 1_556 S
H588 C602 0.960 1_556 S
H589 C602 0.961 . S
H590 C602 0.959 . S
H591 C605 0.929 . S
H592 C606 0.931 . S
H593 C608 0.930 . S
C594 H582 0.930 . S
C594 C595 1.399 . S
C594 C599 1.399 . S
C595 C594 1.399 . S
C595 C596 1.376 . S
C596 H583 0.930 . S
C596 C595 1.376 . S
C596 C597 1.388 . S
C597 H584 0.930 . S
C597 C596 1.388 . S
C597 C598 1.390 . S
C598 C597 1.390 . S
C598 C599 1.394 . S
C598 C604 1.465 1_556 S
C599 C594 1.399 . S
C599 C598 1.394 . S
C599 C600 1.516 1_556 S
C600 C599 1.516 1_554 S
C600 C601 1.502 1_455 S
C600 C602 1.561 . S
C600 C603 1.526 . S
C601 H585 0.959 . S
C601 H586 0.959 . S
C601 H587 0.961 1_554 S
C601 C600 1.502 1_655 S
C602 H588 0.960 1_554 S
C602 H589 0.961 . S
C602 H590 0.959 . S
C602 C600 1.561 . S
C603 C600 1.526 . S
C603 C604 1.396 . S
C603 C608 1.390 . S
C604 C598 1.465 1_554 S
C604 C603 1.396 . S
C604 C605 1.399 . S
C605 H591 0.929 . S
C605 C604 1.399 . S
C605 C606 1.385 . S
C606 H592 0.931 . S
C606 C605 1.385 . S
C606 C607 1.389 . S
C607 C606 1.389 . S
C607 C608 1.387 . S
C608 H593 0.930 . S
C608 C603 1.390 . S
C608 C607 1.387 . S
H609 C621 0.930 . S
H610 C623 0.927 1_565 S
H611 C624 0.930 . S
H612 C628 0.959 . S
H613 C628 0.959 . S
H614 C628 0.961 . S
H615 C629 0.960 . S
H616 C629 0.961 . S
H617 C629 0.959 . S
H618 C632 0.929 . S
H619 C633 0.931 . S
H620 C635 0.930 . S
C621 H609 0.930 . S
C621 C622 1.399 . S
C621 C626 1.399 . S
C622 C621 1.399 . S
C622 C623 1.380 . S
C623 H610 0.927 1_545 S
C623 C622 1.380 . S
C623 C624 1.388 1_545 S
C624 H611 0.930 . S
C624 C623 1.388 1_565 S
C624 C625 1.390 1_565 S
C625 C624 1.390 1_545 S
C625 C626 1.394 . S
C625 C631 1.465 . S
C626 C621 1.399 . S
C626 C625 1.394 . S
C626 C627 1.516 . S
C627 C626 1.516 . S
C627 C628 1.502 . S
C627 C629 1.561 . S
C627 C630 1.526 . S
C628 H612 0.959 . S
C628 H613 0.959 . S
C628 H614 0.961 . S
C628 C627 1.502 . S
C629 H615 0.960 . S
C629 H616 0.961 . S
C629 H617 0.959 . S
C629 C627 1.561 . S
C630 C627 1.526 . S
C630 C631 1.396 . S
C630 C635 1.390 . S
C631 C625 1.465 . S
C631 C630 1.396 . S
C631 C632 1.399 1_545 S
C632 H618 0.929 . S
C632 C631 1.399 1_565 S
C632 C633 1.385 . S
C633 H619 0.931 . S
C633 C632 1.385 . S
C633 C634 1.389 1_565 S
C634 C633 1.389 1_545 S
C634 C635 1.387 . S
C635 H620 0.930 . S
C635 C630 1.390 . S
C635 C634 1.387 . S
H636 C648 0.930 . S
H637 C650 0.930 . S
H638 C651 0.930 . S
H639 C655 0.956 1_554 S
H640 C655 0.959 1_554 S
H641 C655 0.961 . S
H642 C656 0.960 . S
H643 C656 0.961 1_554 S
H644 C656 0.961 . S
H645 C659 0.929 . S
H646 C660 0.931 . S
H647 C662 0.930 . S
C648 H636 0.930 . S
C648 C649 1.399 . S
C648 C653 1.399 . S
C649 C648 1.399 . S
C649 C650 1.376 . S
C650 H637 0.930 . S
C650 C649 1.376 . S
C650 C651 1.388 . S
C651 H638 0.930 . S
C651 C650 1.388 . S
C651 C652 1.390 . S
C652 C651 1.390 . S
C652 C653 1.394 . S
C652 C658 1.465 1_556 S
C653 C648 1.399 . S
C653 C652 1.394 . S
C653 C654 1.516 . S
C654 C653 1.516 . S
C654 C655 1.502 . S
C654 C656 1.561 . S
C654 C657 1.526 1_556 S
C655 H639 0.956 1_556 S
C655 H640 0.959 1_556 S
C655 H641 0.961 . S
C655 C654 1.502 . S
C656 H642 0.960 . S
C656 H643 0.961 1_556 S
C656 H644 0.961 . S
C656 C654 1.561 . S
C657 C654 1.526 1_554 S
C657 C658 1.396 . S
C657 C662 1.390 . S
C658 C652 1.465 1_554 S
C658 C657 1.396 . S
C658 C659 1.399 . S
C659 H645 0.929 . S
C659 C658 1.399 . S
C659 C660 1.385 . S
C660 H646 0.931 . S
C660 C659 1.385 . S
C660 C661 1.389 . S
C661 C660 1.389 . S
C661 C662 1.387 . S
C662 H647 0.930 . S
C662 C657 1.390 . S
C662 C661 1.387 . S
H663 C675 0.930 . S
H664 C677 0.930 . S
H665 C678 0.930 . S
H666 C682 0.959 . S
H667 C682 0.959 . S
H668 C682 0.961 . S
H669 C683 0.960 . S
H670 C683 0.961 . S
H671 C683 0.959 . S
H672 C686 0.929 . S
H673 C687 0.931 . S
H674 C689 0.930 . S
C675 H663 0.930 . S
C675 C676 1.399 . S
C675 C680 1.399 . S
C676 C675 1.399 . S
C676 C677 1.376 . S
C677 H664 0.930 . S
C677 C676 1.376 . S
C677 C678 1.388 . S
C678 H665 0.930 . S
C678 C677 1.388 . S
C678 C679 1.390 . S
C679 C678 1.390 . S
C679 C680 1.394 . S
C679 C685 1.465 . S
C680 C675 1.399 . S
C680 C679 1.394 . S
C680 C681 1.516 . S
C681 C680 1.516 . S
C681 C682 1.502 . S
C681 C683 1.561 . S
C681 C684 1.526 . S
C682 H666 0.959 . S
C682 H667 0.959 . S
C682 H668 0.961 . S
C682 C681 1.502 . S
C683 H669 0.960 . S
C683 H670 0.961 . S
C683 H671 0.959 . S
C683 C681 1.561 . S
C684 C681 1.526 . S
C684 C685 1.396 . S
C684 C689 1.390 . S
C685 C679 1.465 . S
C685 C684 1.396 . S
C685 C686 1.399 . S
C686 H672 0.929 . S
C686 C685 1.399 . S
C686 C687 1.385 . S
C687 H673 0.931 . S
C687 C686 1.385 . S
C687 C688 1.389 . S
C688 C687 1.389 . S
C688 C689 1.387 . S
C689 H674 0.930 . S
C689 C684 1.390 . S
C689 C688 1.387 . S
H690 C702 0.930 . S
H691 C704 0.930 . S
H692 C705 0.930 1_455 S
H693 C709 0.959 . S
H694 C709 0.959 . S
H695 C709 0.961 1_554 S
H696 C710 0.960 1_554 S
H697 C710 0.961 . S
H698 C710 0.959 . S
H699 C713 0.929 1_455 S
H700 C714 0.931 . S
H701 C716 0.930 . S
C702 H690 0.930 . S
C702 C703 1.399 . S
C702 C707 1.399 . S
C703 C702 1.399 . S
C703 C704 1.376 . S
C704 H691 0.930 . S
C704 C703 1.376 . S
C704 C705 1.388 . S
C705 H692 0.930 1_655 S
C705 C704 1.388 . S
C705 C706 1.390 . S
C706 C705 1.390 . S
C706 C707 1.394 . S
C706 C712 1.465 1_554 S
C707 C702 1.399 . S
C707 C706 1.394 . S
C707 C708 1.516 1_554 S
C708 C707 1.516 1_556 S
C708 C709 1.502 . S
C708 C710 1.561 . S
C708 C711 1.526 . S
C709 H693 0.959 . S
C709 H694 0.959 . S
C709 H695 0.961 1_556 S
C709 C708 1.502 . S
C710 H696 0.960 1_556 S
C710 H697 0.961 . S
C710 H698 0.959 . S
C710 C708 1.561 . S
C711 C708 1.526 . S
C711 C712 1.396 . S
C711 C716 1.390 . S
C712 C706 1.465 1_556 S
C712 C711 1.396 . S
C712 C713 1.399 . S
C713 H699 0.929 1_655 S
C713 C712 1.399 . S
C713 C714 1.385 . S
C714 H700 0.931 . S
C714 C713 1.385 . S
C714 C715 1.389 . S
C715 C714 1.389 . S
C715 C716 1.387 . S
C716 H701 0.930 . S
C716 C711 1.390 . S
C716 C715 1.387 . S
H717 C729 0.930 1_545 S
H718 C731 0.930 . S
H719 C732 0.930 . S
H720 C736 0.959 . S
H721 C736 0.959 . S
H722 C736 0.961 . S
H723 C737 0.960 . S
H724 C737 0.961 . S
H725 C737 0.959 . S
H726 C740 0.929 . S
H727 C741 0.931 . S
H728 C743 0.930 1_545 S
C729 H717 0.930 1_565 S
C729 C730 1.399 . S
C729 C734 1.399 . S
C730 C729 1.399 . S
C730 C731 1.376 . S
C731 H718 0.930 . S
C731 C730 1.376 . S
C731 C732 1.388 . S
C732 H719 0.930 . S
C732 C731 1.388 . S
C732 C733 1.390 . S
C733 C732 1.390 . S
C733 C734 1.394 . S
C733 C739 1.465 . S
C734 C729 1.399 . S
C734 C733 1.394 . S
C734 C735 1.516 1_565 S
C735 C734 1.516 1_545 S
C735 C736 1.502 . S
C735 C737 1.561 . S
C735 C738 1.526 1_545 S
C736 H720 0.959 . S
C736 H721 0.959 . S
C736 H722 0.961 . S
C736 C735 1.502 . S
C737 H723 0.960 . S
C737 H724 0.961 . S
C737 H725 0.959 . S
C737 C735 1.561 . S
C738 C735 1.526 1_565 S
C738 C739 1.396 . S
C738 C743 1.390 . S
C739 C733 1.465 . S
C739 C738 1.396 . S
C739 C740 1.399 . S
C740 H726 0.929 . S
C740 C739 1.399 . S
C740 C741 1.385 . S
C741 H727 0.931 . S
C741 C740 1.385 . S
C741 C742 1.389 . S
C742 C741 1.389 . S
C742 C743 1.387 . S
C743 H728 0.930 1_565 S
C743 C738 1.390 . S
C743 C742 1.387 . S
H744 C756 0.930 . S
H745 C758 0.930 . S
H746 C759 0.930 . S
H747 C763 0.959 . S
H748 C763 0.959 . S
H749 C763 0.961 . S
H750 C764 0.960 . S
H751 C764 0.948 1_545 S
H752 C764 0.959 . S
H753 C767 0.929 . S
H754 C768 0.931 . S
H755 C770 0.930 . S
C756 H744 0.930 . S
C756 C757 1.399 . S
C756 C761 1.399 . S
C757 C756 1.399 . S
C757 C758 1.376 . S
C758 H745 0.930 . S
C758 C757 1.376 . S
C758 C759 1.388 . S
C759 H746 0.930 . S
C759 C758 1.388 . S
C759 C760 1.390 . S
C760 C759 1.390 . S
C760 C761 1.394 . S
C760 C766 1.465 . S
C761 C756 1.399 . S
C761 C760 1.394 . S
C761 C762 1.516 . S
C762 C761 1.516 . S
C762 C763 1.502 . S
C762 C764 1.561 . S
C762 C765 1.526 1_565 S
C763 H747 0.959 . S
C763 H748 0.959 . S
C763 H749 0.961 . S
C763 C762 1.502 . S
C764 H750 0.960 . S
C764 H751 0.948 1_565 S
C764 H752 0.959 . S
C764 C762 1.561 . S
C765 C762 1.526 1_545 S
C765 C766 1.396 1_545 S
C765 C770 1.390 . S
C766 C760 1.465 . S
C766 C765 1.396 1_565 S
C766 C767 1.399 1_565 S
C767 H753 0.929 . S
C767 C766 1.399 1_545 S
C767 C768 1.385 . S
C768 H754 0.931 . S
C768 C767 1.385 . S
C768 C769 1.389 . S
C769 C768 1.389 . S
C769 C770 1.387 . S
C770 H755 0.930 . S
C770 C765 1.390 . S
C770 C769 1.387 . S
H771 C783 0.930 . S
H772 C785 0.930 . S
H773 C786 0.930 . S
H774 C790 0.959 . S
H775 C790 0.959 . S
H776 C790 0.961 . S
H777 C791 0.960 . S
H778 C791 0.961 . S
H779 C791 0.959 . S
H780 C794 0.929 . S
H781 C795 0.931 . S
H782 C797 0.930 . S
C783 H771 0.930 . S
C783 C784 1.399 . S
C783 C788 1.399 . S
C784 C783 1.399 . S
C784 C785 1.376 . S
C785 H772 0.930 . S
C785 C784 1.376 . S
C785 C786 1.388 . S
C786 H773 0.930 . S
C786 C785 1.388 . S
C786 C787 1.390 . S
C787 C786 1.390 . S
C787 C788 1.394 . S
C787 C793 1.465 . S
C788 C783 1.399 . S
C788 C787 1.394 . S
C788 C789 1.516 . S
C789 C788 1.516 . S
C789 C790 1.502 . S
C789 C791 1.561 . S
C789 C792 1.526 . S
C790 H774 0.959 . S
C790 H775 0.959 . S
C790 H776 0.961 . S
C790 C789 1.502 . S
C791 H777 0.960 . S
C791 H778 0.961 . S
C791 H779 0.959 . S
C791 C789 1.561 . S
C792 C789 1.526 . S
C792 C793 1.396 . S
C792 C797 1.390 . S
C793 C787 1.465 . S
C793 C792 1.396 . S
C793 C794 1.399 . S
C794 H780 0.929 . S
C794 C793 1.399 . S
C794 C795 1.385 . S
C795 H781 0.931 . S
C795 C794 1.385 . S
C795 C796 1.389 . S
C796 C795 1.389 . S
C796 C797 1.387 . S
C797 H782 0.930 . S
C797 C792 1.390 . S
C797 C796 1.387 . S
H798 C810 0.930 . S
H799 C812 0.930 . S
H800 C813 0.930 . S
H801 C817 0.959 . S
H802 C817 0.959 . S
H803 C817 0.961 . S
H804 C818 0.960 . S
H805 C818 0.961 . S
H806 C818 0.959 . S
H807 C821 0.929 . S
H808 C822 0.931 . S
H809 C824 0.930 . S
C810 H798 0.930 . S
C810 C811 1.399 1_655 S
C810 C815 1.399 . S
C811 C810 1.399 1_455 S
C811 C812 1.376 . S
C812 H799 0.930 . S
C812 C811 1.376 . S
C812 C813 1.388 . S
C813 H800 0.930 . S
C813 C812 1.388 . S
C813 C814 1.390 . S
C814 C813 1.390 . S
C814 C815 1.394 1_455 S
C814 C820 1.465 1_455 S
C815 C810 1.399 . S
C815 C814 1.394 1_655 S
C815 C816 1.516 . S
C816 C815 1.516 . S
C816 C817 1.502 . S
C816 C818 1.561 1_655 S
C816 C819 1.526 . S
C817 H801 0.959 . S
C817 H802 0.959 . S
C817 H803 0.961 . S
C817 C816 1.502 . S
C818 H804 0.960 . S
C818 H805 0.961 . S
C818 H806 0.959 . S
C818 C816 1.561 1_455 S
C819 C816 1.526 . S
C819 C820 1.396 . S
C819 C824 1.390 . S
C820 C814 1.465 1_655 S
C820 C819 1.396 . S
C820 C821 1.399 1_655 S
C821 H807 0.929 . S
C821 C820 1.399 1_455 S
C821 C822 1.385 1_455 S
C822 H808 0.931 . S
C822 C821 1.385 1_655 S
C822 C823 1.389 . S
C823 C822 1.389 . S
C823 C824 1.387 . S
C824 H809 0.930 . S
C824 C819 1.390 . S
C824 C823 1.387 . S
H825 C837 0.930 . S
H826 C839 0.930 . S
H827 C840 0.930 . S
H828 C844 0.959 . S
H829 C844 0.959 . S
H830 C844 0.961 . S
H831 C845 0.960 . S
H832 C845 0.961 . S
H833 C845 0.959 . S
H834 C848 0.929 . S
H835 C849 0.931 . S
H836 C851 0.930 . S
C837 H825 0.930 . S
C837 C838 1.399 1_545 S
C837 C842 1.399 . S
C838 C837 1.399 1_565 S
C838 C839 1.376 . S
C839 H826 0.930 . S
C839 C838 1.376 . S
C839 C840 1.388 . S
C840 H827 0.930 . S
C840 C839 1.388 . S
C840 C841 1.390 . S
C841 C840 1.390 . S
C841 C842 1.394 1_565 S
C841 C847 1.465 . S
C842 C837 1.399 . S
C842 C841 1.394 1_545 S
C842 C843 1.516 . S
C843 C842 1.516 . S
C843 C844 1.502 . S
C843 C845 1.561 . S
C843 C846 1.526 1_655 S
C844 H828 0.959 . S
C844 H829 0.959 . S
C844 H830 0.961 . S
C844 C843 1.502 . S
C845 H831 0.960 . S
C845 H832 0.961 . S
C845 H833 0.959 . S
C845 C843 1.561 . S
C846 C843 1.526 1_455 S
C846 C847 1.396 1_445 S
C846 C851 1.390 . S
C847 C841 1.465 . S
C847 C846 1.396 1_665 S
C847 C848 1.399 1_655 S
C848 H834 0.929 . S
C848 C847 1.399 1_455 S
C848 C849 1.385 . S
C849 H835 0.931 . S
C849 C848 1.385 . S
C849 C850 1.416 . S
C850 C849 1.416 . S
C850 C851 1.369 1_565 S
C851 H836 0.930 . S
C851 C846 1.390 . S
C851 C850 1.369 1_545 S
H852 C864 0.930 . S
H853 C866 0.930 . S
H854 C867 0.930 . S
H855 C871 0.959 . S
H856 C871 0.959 . S
H857 C871 0.961 . S
H858 C872 0.960 . S
H859 C872 0.961 . S
H860 C872 0.959 . S
H861 C875 0.929 . S
H862 C876 0.931 . S
H863 C878 0.930 . S
C864 H852 0.930 . S
C864 C865 1.399 . S
C864 C869 1.399 . S
C865 C864 1.399 . S
C865 C866 1.376 . S
C866 H853 0.930 . S
C866 C865 1.376 . S
C866 C867 1.388 . S
C867 H854 0.930 . S
C867 C866 1.388 . S
C867 C868 1.390 . S
C868 C867 1.390 . S
C868 C869 1.394 . S
C868 C874 1.465 . S
C869 C864 1.399 . S
C869 C868 1.394 . S
C869 C870 1.516 . S
C870 C869 1.516 . S
C870 C871 1.502 . S
C870 C872 1.561 . S
C870 C873 1.526 . S
C871 H855 0.959 . S
C871 H856 0.959 . S
C871 H857 0.961 . S
C871 C870 1.502 . S
C872 H858 0.960 . S
C872 H859 0.961 . S
C872 H860 0.959 . S
C872 C870 1.561 . S
C873 C870 1.526 . S
C873 C874 1.396 . S
C873 C878 1.390 . S
C874 C868 1.465 . S
C874 C873 1.396 . S
C874 C875 1.399 . S
C875 H861 0.929 . S
C875 C874 1.399 . S
C875 C876 1.385 . S
C876 H862 0.931 . S
C876 C875 1.385 . S
C876 C877 1.389 . S
C877 C876 1.389 . S
C877 C878 1.387 . S
C878 H863 0.930 . S
C878 C873 1.390 . S
C878 C877 1.387 . S
H879 C891 0.930 . S
H880 C893 0.930 . S
H881 C894 0.930 . S
H882 C898 0.959 . S
H883 C898 0.959 . S
H884 C898 0.961 . S
H885 C899 0.960 . S
H886 C899 0.961 . S
H887 C899 0.959 . S
H888 C902 0.929 . S
H889 C903 0.931 . S
H890 C905 0.930 . S
C891 H879 0.930 . S
C891 C892 1.399 . S
C891 C896 1.399 . S
C892 C891 1.399 . S
C892 C893 1.376 . S
C893 H880 0.930 . S
C893 C892 1.376 . S
C893 C894 1.388 . S
C894 H881 0.930 . S
C894 C893 1.388 . S
C894 C895 1.390 . S
C895 C894 1.390 . S
C895 C896 1.394 . S
C895 C901 1.465 . S
C896 C891 1.399 . S
C896 C895 1.394 . S
C896 C897 1.516 . S
C897 C896 1.516 . S
C897 C898 1.502 . S
C897 C899 1.561 . S
C897 C900 1.526 1_655 S
C898 H882 0.959 . S
C898 H883 0.959 . S
C898 H884 0.961 . S
C898 C897 1.502 . S
C899 H885 0.960 . S
C899 H886 0.961 . S
C899 H887 0.959 . S
C899 C897 1.561 . S
C900 C897 1.526 1_455 S
C900 C901 1.396 1_455 S
C900 C905 1.390 . S
C901 C895 1.465 . S
C901 C900 1.396 1_655 S
C901 C902 1.399 1_655 S
C902 H888 0.929 . S
C902 C901 1.399 1_455 S
C902 C903 1.385 . S
C903 H889 0.931 . S
C903 C902 1.385 . S
C903 C904 1.389 . S
C904 C903 1.389 . S
C904 C905 1.387 . S
C905 H890 0.930 . S
C905 C900 1.390 . S
C905 C904 1.387 . S
H906 C918 0.930 . S
H907 C920 0.930 . S
H908 C921 0.930 . S
H909 C925 0.959 . S
H910 C925 0.959 . S
H911 C925 0.961 1_545 S
H912 C926 0.960 1_545 S
H913 C926 0.961 . S
H914 C926 0.959 . S
H915 C929 0.929 . S
H916 C930 0.931 . S
H917 C932 0.930 . S
C918 H906 0.930 . S
C918 C919 1.399 1_655 S
C918 C923 1.399 . S
C919 C918 1.399 1_455 S
C919 C920 1.376 . S
C920 H907 0.930 . S
C920 C919 1.376 . S
C920 C921 1.388 . S
C921 H908 0.930 . S
C921 C920 1.388 . S
C921 C922 1.390 1_545 S
C922 C921 1.390 1_565 S
C922 C923 1.394 1_465 S
C922 C928 1.465 . S
C923 C918 1.399 . S
C923 C922 1.394 1_645 S
C923 C924 1.516 1_545 S
C924 C923 1.516 1_565 S
C924 C925 1.502 . S
C924 C926 1.561 . S
C924 C927 1.526 . S
C925 H909 0.959 . S
C925 H910 0.959 . S
C925 H911 0.961 1_565 S
C925 C924 1.502 . S
C926 H912 0.960 1_565 S
C926 H913 0.961 . S
C926 H914 0.959 . S
C926 C924 1.561 . S
C927 C924 1.526 . S
C927 C928 1.396 1_655 S
C927 C932 1.390 . S
C928 C922 1.465 . S
C928 C927 1.396 1_455 S
C928 C929 1.399 . S
C929 H915 0.929 . S
C929 C928 1.399 . S
C929 C930 1.385 . S
C930 H916 0.931 . S
C930 C929 1.385 . S
C930 C931 1.389 1_455 S
C931 C930 1.389 1_655 S
C931 C932 1.387 . S
C932 H917 0.930 . S
C932 C927 1.390 . S
C932 C931 1.387 . S
H933 C945 0.930 . S
H934 C947 0.930 . S
H935 C948 0.930 . S
H936 C952 0.959 . S
H937 C952 0.959 . S
H938 C952 0.961 . S
H939 C953 0.960 . S
H940 C953 0.961 . S
H941 C953 0.959 . S
H942 C956 0.929 . S
H943 C957 0.931 . S
H944 C959 0.930 . S
C945 H933 0.930 . S
C945 C946 1.399 1_565 S
C945 C950 1.399 . S
C946 C945 1.399 1_545 S
C946 C947 1.376 . S
C947 H934 0.930 . S
C947 C946 1.376 . S
C947 C948 1.388 . S
C948 H935 0.930 . S
C948 C947 1.388 . S
C948 C949 1.390 . S
C949 C948 1.390 . S
C949 C950 1.394 1_545 S
C949 C955 1.465 . S
C950 C945 1.399 . S
C950 C949 1.394 1_565 S
C950 C951 1.516 . S
C951 C950 1.516 . S
C951 C952 1.502 . S
C951 C953 1.561 . S
C951 C954 1.526 . S
C952 H936 0.959 . S
C952 H937 0.959 . S
C952 H938 0.961 . S
C952 C951 1.502 . S
C953 H939 0.960 . S
C953 H940 0.961 . S
C953 H941 0.959 . S
C953 C951 1.561 . S
C954 C951 1.526 . S
C954 C955 1.396 1_565 S
C954 C959 1.390 . S
C955 C949 1.465 . S
C955 C954 1.396 1_545 S
C955 C956 1.399 . S
C956 H942 0.929 . S
C956 C955 1.399 . S
C956 C957 1.385 . S
C957 H943 0.931 . S
C957 C956 1.385 . S
C957 C958 1.389 1_545 S
C958 C957 1.389 1_565 S
C958 C959 1.387 . S
C959 H944 0.930 . S
C959 C954 1.390 . S
C959 C958 1.387 . S
H960 C972 0.930 . S
H961 C974 0.930 . S
H962 C975 0.930 . S
H963 C979 0.959 . S
H964 C979 0.959 1_565 S
H965 C979 0.961 . S
H966 C980 0.960 . S
H967 C980 0.961 1_565 S
H968 C980 0.959 . S
H969 C983 0.929 . S
H970 C984 0.931 . S
H971 C986 0.930 . S
C972 H960 0.930 . S
C972 C973 1.399 . S
C972 C977 1.399 . S
C973 C972 1.399 . S
C973 C974 1.376 . S
C974 H961 0.930 . S
C974 C973 1.376 . S
C974 C975 1.388 . S
C975 H962 0.930 . S
C975 C974 1.388 . S
C975 C976 1.390 . S
C976 C975 1.390 . S
C976 C977 1.394 . S
C976 C982 1.465 . S
C977 C972 1.399 . S
C977 C976 1.394 . S
C977 C978 1.516 . S
C978 C977 1.516 . S
C978 C979 1.502 . S
C978 C980 1.561 . S
C978 C981 1.526 1_545 S
C979 H963 0.959 . S
C979 H964 0.959 1_545 S
C979 H965 0.961 . S
C979 C978 1.502 . S
C980 H966 0.960 . S
C980 H967 0.961 1_545 S
C980 H968 0.959 . S
C980 C978 1.561 . S
C981 C978 1.526 1_565 S
C981 C982 1.396 1_565 S
C981 C986 1.390 . S
C982 C976 1.465 . S
C982 C981 1.396 1_545 S
C982 C983 1.399 1_545 S
C983 H969 0.929 . S
C983 C982 1.399 1_565 S
C983 C984 1.385 . S
C984 H970 0.931 . S
C984 C983 1.385 . S
C984 C985 1.389 . S
C985 C984 1.389 . S
C985 C986 1.387 . S
C986 H971 0.930 . S
C986 C981 1.390 . S
C986 C985 1.387 . S
H987 C999 0.930 . S
H988 C1001 0.930 . S
H989 C1002 0.930 . S
H990 C1006 0.959 . S
H991 C1006 0.959 . S
H992 C1006 0.961 . S
H993 C1007 0.960 . S
H994 C1007 0.961 . S
H995 C1007 0.959 . S
H996 C1010 0.929 . S
H997 C1011 0.931 . S
H998 C1013 0.930 . S
C999 H987 0.930 . S
C999 C1000 1.399 . S
C999 C1004 1.399 . S
C1000 C999 1.399 . S
C1000 C1001 1.376 . S
C1001 H988 0.930 . S
C1001 C1000 1.376 . S
C1001 C1002 1.388 . S
C1002 H989 0.930 . S
C1002 C1001 1.388 . S
C1002 C1003 1.390 . S
C1003 C1002 1.390 . S
C1003 C1004 1.394 . S
C1003 C1009 1.465 . S
C1004 C999 1.399 . S
C1004 C1003 1.394 . S
C1004 C1005 1.516 . S
C1005 C1004 1.516 . S
C1005 C1006 1.502 . S
C1005 C1007 1.561 . S
C1005 C1008 1.526 . S
C1006 H990 0.959 . S
C1006 H991 0.959 . S
C1006 H992 0.961 . S
C1006 C1005 1.502 . S
C1007 H993 0.960 . S
C1007 H994 0.961 . S
C1007 H995 0.959 . S
C1007 C1005 1.561 . S
C1008 C1005 1.526 . S
C1008 C1009 1.396 . S
C1008 C1013 1.390 . S
C1009 C1003 1.465 . S
C1009 C1008 1.396 . S
C1009 C1010 1.399 . S
C1010 H996 0.929 . S
C1010 C1009 1.399 . S
C1010 C1011 1.385 . S
C1011 H997 0.931 . S
C1011 C1010 1.385 . S
C1011 C1012 1.389 . S
C1012 C1011 1.389 . S
C1012 C1013 1.387 . S
C1013 H998 0.930 . S
C1013 C1008 1.390 . S
C1013 C1012 1.387 . S
H1014 C1026 0.930 . S
H1015 C1028 0.930 . S
H1016 C1029 0.929 1_655 S
H1017 C1033 0.959 . S
H1018 C1033 0.959 . S
H1019 C1033 0.961 . S
H1020 C1034 0.960 . S
H1021 C1034 0.961 . S
H1022 C1034 0.959 . S
H1023 C1037 0.929 . S
H1024 C1038 0.931 . S
H1025 C1040 0.930 . S
C1026 H1014 0.930 . S
C1026 C1027 1.399 . S
C1026 C1031 1.399 . S
C1027 C1026 1.399 . S
C1027 C1028 1.376 . S
C1028 H1015 0.930 . S
C1028 C1027 1.376 . S
C1028 C1029 1.389 . S
C1029 H1016 0.929 1_455 S
C1029 C1028 1.389 . S
C1029 C1030 1.390 . S
C1030 C1029 1.390 . S
C1030 C1031 1.394 . S
C1030 C1036 1.462 1_455 S
C1031 C1026 1.399 . S
C1031 C1030 1.394 . S
C1031 C1032 1.516 . S
C1032 C1031 1.516 . S
C1032 C1033 1.502 . S
C1032 C1034 1.561 1_455 S
C1032 C1035 1.526 . S
C1033 H1017 0.959 . S
C1033 H1018 0.959 . S
C1033 H1019 0.961 . S
C1033 C1032 1.502 . S
C1034 H1020 0.960 . S
C1034 H1021 0.961 . S
C1034 H1022 0.959 . S
C1034 C1032 1.561 1_655 S
C1035 C1032 1.526 . S
C1035 C1036 1.392 1_455 S
C1035 C1040 1.390 . S
C1036 C1030 1.462 1_655 S
C1036 C1035 1.392 1_655 S
C1036 C1037 1.405 . S
C1037 H1023 0.929 . S
C1037 C1036 1.405 . S
C1037 C1038 1.385 . S
C1038 H1024 0.931 . S
C1038 C1037 1.385 . S
C1038 C1039 1.389 . S
C1039 C1038 1.389 . S
C1039 C1040 1.387 1_655 S
C1040 H1025 0.930 . S
C1040 C1035 1.390 . S
C1040 C1039 1.387 1_455 S
H1041 C1053 0.930 . S
H1042 C1055 0.930 . S
H1043 C1056 0.930 . S
H1044 C1060 0.959 . S
H1045 C1060 0.959 . S
H1046 C1060 0.961 1_655 S
H1047 C1061 0.953 1_655 S
H1048 C1061 0.961 . S
H1049 C1061 0.959 . S
H1050 C1064 0.929 . S
H1051 C1065 0.931 . S
H1052 C1067 0.930 . S
C1053 H1041 0.930 . S
C1053 C1054 1.399 1_545 S
C1053 C1058 1.399 . S
C1054 C1053 1.399 1_565 S
C1054 C1055 1.376 . S
C1055 H1042 0.930 . S
C1055 C1054 1.376 . S
C1055 C1056 1.388 . S
C1056 H1043 0.930 . S
C1056 C1055 1.388 . S
C1056 C1057 1.390 1_655 S
C1057 C1056 1.390 1_455 S
C1057 C1058 1.394 1_465 S
C1057 C1063 1.465 . S
C1058 C1053 1.399 . S
C1058 C1057 1.394 1_645 S
C1058 C1059 1.516 1_655 S
C1059 C1058 1.516 1_455 S
C1059 C1060 1.502 . S
C1059 C1061 1.561 . S
C1059 C1062 1.526 . S
C1060 H1044 0.959 . S
C1060 H1045 0.959 . S
C1060 H1046 0.961 1_455 S
C1060 C1059 1.502 . S
C1061 H1047 0.953 1_455 S
C1061 H1048 0.961 . S
C1061 H1049 0.959 . S
C1061 C1059 1.561 . S
C1062 C1059 1.526 . S
C1062 C1063 1.396 1_545 S
C1062 C1067 1.390 . S
C1063 C1057 1.465 . S
C1063 C1062 1.396 1_565 S
C1063 C1064 1.399 . S
C1064 H1050 0.929 . S
C1064 C1063 1.399 . S
C1064 C1065 1.385 . S
C1065 H1051 0.931 . S
C1065 C1064 1.385 . S
C1065 C1066 1.389 1_565 S
C1066 C1065 1.389 1_545 S
C1066 C1067 1.387 . S
C1067 H1052 0.930 . S
C1067 C1062 1.390 . S
C1067 C1066 1.387 . S
H1068 C1080 0.930 . S
H1069 C1082 0.930 . S
H1070 C1083 0.930 . S
H1071 C1087 0.959 . S
H1072 C1087 0.959 . S
H1073 C1087 0.961 . S
H1074 C1088 0.960 . S
H1075 C1088 0.961 . S
H1076 C1088 0.959 . S
H1077 C1091 0.929 . S
H1078 C1092 0.931 . S
H1079 C1094 0.930 . S
C1080 H1068 0.930 . S
C1080 C1081 1.399 . S
C1080 C1085 1.399 . S
C1081 C1080 1.399 . S
C1081 C1082 1.376 . S
C1082 H1069 0.930 . S
C1082 C1081 1.376 . S
C1082 C1083 1.388 . S
C1083 H1070 0.930 . S
C1083 C1082 1.388 . S
C1083 C1084 1.390 . S
C1084 C1083 1.390 . S
C1084 C1085 1.394 . S
C1084 C1090 1.465 . S
C1085 C1080 1.399 . S
C1085 C1084 1.394 . S
C1085 C1086 1.516 . S
C1086 C1085 1.516 . S
C1086 C1087 1.502 . S
C1086 C1088 1.561 . S
C1086 C1089 1.526 . S
C1087 H1071 0.959 . S
C1087 H1072 0.959 . S
C1087 H1073 0.961 . S
C1087 C1086 1.502 . S
C1088 H1074 0.960 . S
C1088 H1075 0.961 . S
C1088 H1076 0.959 . S
C1088 C1086 1.561 . S
C1089 C1086 1.526 . S
C1089 C1090 1.396 . S
C1089 C1094 1.390 . S
C1090 C1084 1.465 . S
C1090 C1089 1.396 . S
C1090 C1091 1.399 . S
C1091 H1077 0.929 . S
C1091 C1090 1.399 . S
C1091 C1092 1.385 . S
C1092 H1078 0.931 . S
C1092 C1091 1.385 . S
C1092 C1093 1.389 . S
C1093 C1092 1.389 . S
C1093 C1094 1.387 . S
C1094 H1079 0.930 . S
C1094 C1089 1.390 . S
C1094 C1093 1.387 . S
H1095 C1107 0.930 . S
H1096 C1109 0.930 . S
H1097 C1110 0.930 . S
H1098 C1114 0.959 . S
H1099 C1114 0.959 . S
H1100 C1114 0.961 . S
H1101 C1115 0.960 . S
H1102 C1115 0.961 . S
H1103 C1115 0.959 . S
H1104 C1118 0.929 . S
H1105 C1119 0.931 . S
H1106 C1121 0.930 . S
C1107 H1095 0.930 . S
C1107 C1108 1.399 . S
C1107 C1112 1.399 . S
C1108 C1107 1.399 . S
C1108 C1109 1.376 . S
C1109 H1096 0.930 . S
C1109 C1108 1.376 . S
C1109 C1110 1.388 . S
C1110 H1097 0.930 . S
C1110 C1109 1.388 . S
C1110 C1111 1.390 . S
C1111 C1110 1.390 . S
C1111 C1112 1.394 . S
C1111 C1117 1.465 . S
C1112 C1107 1.399 . S
C1112 C1111 1.394 . S
C1112 C1113 1.516 . S
C1113 C1112 1.516 . S
C1113 C1114 1.502 . S
C1113 C1115 1.561 . S
C1113 C1116 1.526 1_455 S
C1114 H1098 0.959 . S
C1114 H1099 0.959 . S
C1114 H1100 0.961 . S
C1114 C1113 1.502 . S
C1115 H1101 0.960 . S
C1115 H1102 0.961 . S
C1115 H1103 0.959 . S
C1115 C1113 1.561 . S
C1116 C1113 1.526 1_655 S
C1116 C1117 1.396 1_655 S
C1116 C1121 1.390 . S
C1117 C1111 1.465 . S
C1117 C1116 1.396 1_455 S
C1117 C1118 1.399 1_455 S
C1118 H1104 0.929 . S
C1118 C1117 1.399 1_655 S
C1118 C1119 1.385 . S
C1119 H1105 0.931 . S
C1119 C1118 1.385 . S
C1119 C1120 1.389 . S
C1120 C1119 1.389 . S
C1120 C1121 1.387 . S
C1121 H1106 0.930 . S
C1121 C1116 1.390 . S
C1121 C1120 1.387 . S
H1122 C1134 0.930 1_655 S
H1123 C1136 0.930 . S
H1124 C1137 0.930 . S
H1125 C1141 0.959 . S
H1126 C1141 0.959 . S
H1127 C1141 0.961 . S
H1128 C1142 0.960 1_565 S
H1129 C1142 0.961 . S
H1130 C1142 0.959 . S
H1131 C1145 0.929 . S
H1132 C1146 0.931 . S
H1133 C1148 0.930 . S
C1134 H1122 0.930 1_455 S
C1134 C1135 1.399 1_455 S
C1134 C1139 1.399 . S
C1135 C1134 1.399 1_655 S
C1135 C1136 1.376 1_655 S
C1136 H1123 0.930 . S
C1136 C1135 1.376 1_455 S
C1136 C1137 1.388 . S
C1137 H1124 0.930 . S
C1137 C1136 1.388 . S
C1137 C1138 1.390 1_565 S
C1138 C1137 1.390 1_545 S
C1138 C1139 1.394 1_545 S
C1138 C1144 1.465 . S
C1139 C1134 1.399 . S
C1139 C1138 1.394 1_565 S
C1139 C1140 1.516 1_565 S
C1140 C1139 1.516 1_545 S
C1140 C1141 1.502 1_455 S
C1140 C1142 1.561 . S
C1140 C1143 1.526 . S
C1141 H1125 0.959 . S
C1141 H1126 0.959 . S
C1141 H1127 0.961 . S
C1141 C1140 1.502 1_655 S
C1142 H1128 0.960 1_545 S
C1142 H1129 0.961 . S
C1142 H1130 0.959 . S
C1142 C1140 1.561 . S
C1143 C1140 1.526 . S
C1143 C1144 1.396 . S
C1143 C1148 1.390 . S
C1144 C1138 1.465 . S
C1144 C1143 1.396 . S
C1144 C1145 1.399 . S
C1145 H1131 0.929 . S
C1145 C1144 1.399 . S
C1145 C1146 1.385 . S
C1146 H1132 0.931 . S
C1146 C1145 1.385 . S
C1146 C1147 1.389 . S
C1147 C1146 1.389 . S
C1147 C1148 1.387 . S
C1148 H1133 0.930 . S
C1148 C1143 1.390 . S
C1148 C1147 1.387 . S
H1149 C1161 0.930 . S
H1150 C1163 0.930 . S
H1151 C1164 0.930 . S
H1152 C1168 0.959 . S
H1153 C1168 0.959 . S
H1154 C1168 0.961 . S
H1155 C1169 0.960 . S
H1156 C1169 0.961 . S
H1157 C1169 0.959 . S
H1158 C1172 0.929 . S
H1159 C1173 0.931 . S
H1160 C1175 0.930 . S
C1161 H1149 0.930 . S
C1161 C1162 1.399 . S
C1161 C1166 1.399 . S
C1162 C1161 1.399 . S
C1162 C1163 1.376 . S
C1163 H1150 0.930 . S
C1163 C1162 1.376 . S
C1163 C1164 1.388 . S
C1164 H1151 0.930 . S
C1164 C1163 1.388 . S
C1164 C1165 1.390 . S
C1165 C1164 1.390 . S
C1165 C1166 1.394 . S
C1165 C1171 1.465 . S
C1166 C1161 1.399 . S
C1166 C1165 1.394 . S
C1166 C1167 1.516 . S
C1167 C1166 1.516 . S
C1167 C1168 1.502 . S
C1167 C1169 1.561 1_545 S
C1167 C1170 1.526 . S
C1168 H1152 0.959 . S
C1168 H1153 0.959 . S
C1168 H1154 0.961 . S
C1168 C1167 1.502 . S
C1169 H1155 0.960 . S
C1169 H1156 0.961 . S
C1169 H1157 0.959 . S
C1169 C1167 1.561 1_565 S
C1170 C1167 1.526 . S
C1170 C1171 1.396 . S
C1170 C1175 1.390 1_545 S
C1171 C1165 1.465 . S
C1171 C1170 1.396 . S
C1171 C1172 1.399 . S
C1172 H1158 0.929 . S
C1172 C1171 1.399 . S
C1172 C1173 1.384 1_545 S
C1173 H1159 0.931 . S
C1173 C1172 1.384 1_565 S
C1173 C1174 1.391 . S
C1174 C1173 1.391 . S
C1174 C1175 1.387 . S
C1175 H1160 0.930 . S
C1175 C1170 1.390 1_565 S
C1175 C1174 1.387 . S
H1176 C1188 0.930 . S
H1177 C1190 0.930 . S
H1178 C1191 0.930 . S
H1179 C1195 0.959 . S
H1180 C1195 0.959 . S
H1181 C1195 0.961 . S
H1182 C1196 0.960 . S
H1183 C1196 0.961 . S
H1184 C1196 0.959 . S
H1185 C1199 0.929 . S
H1186 C1200 0.931 . S
H1187 C1202 0.930 . S
C1188 H1176 0.930 . S
C1188 C1189 1.399 . S
C1188 C1193 1.399 . S
C1189 C1188 1.399 . S
C1189 C1190 1.376 . S
C1190 H1177 0.930 . S
C1190 C1189 1.376 . S
C1190 C1191 1.388 . S
C1191 H1178 0.930 . S
C1191 C1190 1.388 . S
C1191 C1192 1.390 . S
C1192 C1191 1.390 . S
C1192 C1193 1.394 . S
C1192 C1198 1.465 . S
C1193 C1188 1.399 . S
C1193 C1192 1.394 . S
C1193 C1194 1.516 . S
C1194 C1193 1.516 . S
C1194 C1195 1.502 . S
C1194 C1196 1.561 . S
C1194 C1197 1.526 . S
C1195 H1179 0.959 . S
C1195 H1180 0.959 . S
C1195 H1181 0.961 . S
C1195 C1194 1.502 . S
C1196 H1182 0.960 . S
C1196 H1183 0.961 . S
C1196 H1184 0.959 . S
C1196 C1194 1.561 . S
C1197 C1194 1.526 . S
C1197 C1198 1.396 . S
C1197 C1202 1.390 . S
C1198 C1192 1.465 . S
C1198 C1197 1.396 . S
C1198 C1199 1.399 . S
C1199 H1185 0.929 . S
C1199 C1198 1.399 . S
C1199 C1200 1.385 . S
C1200 H1186 0.931 . S
C1200 C1199 1.385 . S
C1200 C1201 1.389 . S
C1201 C1200 1.389 . S
C1201 C1202 1.387 . S
C1202 H1187 0.930 . S
C1202 C1197 1.390 . S
C1202 C1201 1.387 . S
H1203 C1215 0.930 . S
H1204 C1217 0.930 . S
H1205 C1218 0.930 . S
H1206 C1222 0.959 . S
H1207 C1222 0.959 . S
H1208 C1222 0.961 . S
H1209 C1223 0.960 . S
H1210 C1223 0.961 . S
H1211 C1223 0.959 . S
H1212 C1226 0.929 . S
H1213 C1227 0.931 . S
H1214 C1229 0.930 . S
C1215 H1203 0.930 . S
C1215 C1216 1.399 . S
C1215 C1220 1.399 . S
C1216 C1215 1.399 . S
C1216 C1217 1.376 . S
C1217 H1204 0.930 . S
C1217 C1216 1.376 . S
C1217 C1218 1.388 . S
C1218 H1205 0.930 . S
C1218 C1217 1.388 . S
C1218 C1219 1.390 . S
C1219 C1218 1.390 . S
C1219 C1220 1.394 . S
C1219 C1225 1.465 . S
C1220 C1215 1.399 . S
C1220 C1219 1.394 . S
C1220 C1221 1.516 . S
C1221 C1220 1.516 . S
C1221 C1222 1.502 . S
C1221 C1223 1.561 . S
C1221 C1224 1.526 . S
C1222 H1206 0.959 . S
C1222 H1207 0.959 . S
C1222 H1208 0.961 . S
C1222 C1221 1.502 . S
C1223 H1209 0.960 . S
C1223 H1210 0.961 . S
C1223 H1211 0.959 . S
C1223 C1221 1.561 . S
C1224 C1221 1.526 . S
C1224 C1225 1.396 . S
C1224 C1229 1.390 . S
C1225 C1219 1.465 . S
C1225 C1224 1.396 . S
C1225 C1226 1.399 . S
C1226 H1212 0.929 . S
C1226 C1225 1.399 . S
C1226 C1227 1.385 . S
C1227 H1213 0.931 . S
C1227 C1226 1.385 . S
C1227 C1228 1.389 . S
C1228 C1227 1.389 . S
C1228 C1229 1.387 . S
C1229 H1214 0.930 . S
C1229 C1224 1.390 . S
C1229 C1228 1.387 . S
H1230 C1242 0.930 . S
H1231 C1244 0.930 . S
H1232 C1245 0.930 . S
H1233 C1249 0.959 . S
H1234 C1249 0.959 . S
H1235 C1249 0.961 . S
H1236 C1250 0.960 . S
H1237 C1250 0.961 . S
H1238 C1250 0.959 . S
H1239 C1253 0.929 . S
H1240 C1254 0.931 . S
H1241 C1256 0.930 . S
C1242 H1230 0.930 . S
C1242 C1243 1.399 . S
C1242 C1247 1.399 . S
C1243 C1242 1.399 . S
C1243 C1244 1.376 . S
C1244 H1231 0.930 . S
C1244 C1243 1.376 . S
C1244 C1245 1.388 . S
C1245 H1232 0.930 . S
C1245 C1244 1.388 . S
C1245 C1246 1.390 . S
C1246 C1245 1.390 . S
C1246 C1247 1.394 . S
C1246 C1252 1.465 . S
C1247 C1242 1.399 . S
C1247 C1246 1.394 . S
C1247 C1248 1.516 . S
C1248 C1247 1.516 . S
C1248 C1249 1.502 . S
C1248 C1250 1.561 . S
C1248 C1251 1.526 . S
C1249 H1233 0.959 . S
C1249 H1234 0.959 . S
C1249 H1235 0.961 . S
C1249 C1248 1.502 . S
C1250 H1236 0.960 . S
C1250 H1237 0.961 . S
C1250 H1238 0.959 . S
C1250 C1248 1.561 . S
C1251 C1248 1.526 . S
C1251 C1252 1.396 . S
C1251 C1256 1.390 . S
C1252 C1246 1.465 . S
C1252 C1251 1.396 . S
C1252 C1253 1.399 . S
C1253 H1239 0.929 . S
C1253 C1252 1.399 . S
C1253 C1254 1.385 . S
C1254 H1240 0.931 . S
C1254 C1253 1.385 . S
C1254 C1255 1.389 . S
C1255 C1254 1.389 . S
C1255 C1256 1.387 . S
C1256 H1241 0.930 . S
C1256 C1251 1.390 . S
C1256 C1255 1.387 . S
H1257 C1269 0.930 . S
H1258 C1271 0.930 . S
H1259 C1272 0.930 . S
H1260 C1276 0.959 . S
H1261 C1276 0.959 . S
H1262 C1276 0.961 . S
H1263 C1277 0.960 . S
H1264 C1277 0.961 . S
H1265 C1277 0.959 . S
H1266 C1280 0.929 . S
H1267 C1281 0.931 . S
H1268 C1283 0.930 . S
C1269 H1257 0.930 . S
C1269 C1270 1.399 . S
C1269 C1274 1.399 . S
C1270 C1269 1.399 . S
C1270 C1271 1.376 . S
C1271 H1258 0.930 . S
C1271 C1270 1.376 . S
C1271 C1272 1.388 . S
C1272 H1259 0.930 . S
C1272 C1271 1.388 . S
C1272 C1273 1.390 . S
C1273 C1272 1.390 . S
C1273 C1274 1.394 . S
C1273 C1279 1.465 . S
C1274 C1269 1.399 . S
C1274 C1273 1.394 . S
C1274 C1275 1.516 . S
C1275 C1274 1.516 . S
C1275 C1276 1.502 . S
C1275 C1277 1.561 . S
C1275 C1278 1.526 . S
C1276 H1260 0.959 . S
C1276 H1261 0.959 . S
C1276 H1262 0.961 . S
C1276 C1275 1.502 . S
C1277 H1263 0.960 . S
C1277 H1264 0.961 . S
C1277 H1265 0.959 . S
C1277 C1275 1.561 . S
C1278 C1275 1.526 . S
C1278 C1279 1.396 . S
C1278 C1283 1.390 . S
C1279 C1273 1.465 . S
C1279 C1278 1.396 . S
C1279 C1280 1.399 . S
C1280 H1266 0.929 . S
C1280 C1279 1.399 . S
C1280 C1281 1.385 . S
C1281 H1267 0.931 . S
C1281 C1280 1.385 . S
C1281 C1282 1.389 . S
C1282 C1281 1.389 . S
C1282 C1283 1.387 . S
C1283 H1268 0.930 . S
C1283 C1278 1.390 . S
C1283 C1282 1.387 . S
H1284 C1296 0.930 . S
H1285 C1298 0.930 . S
H1286 C1299 0.930 . S
H1287 C1303 0.959 . S
H1288 C1303 0.959 . S
H1289 C1303 0.961 . S
H1290 C1304 0.960 . S
H1291 C1304 0.961 . S
H1292 C1304 0.959 . S
H1293 C1307 0.929 . S
H1294 C1308 0.931 . S
H1295 C1310 0.930 . S
C1296 H1284 0.930 . S
C1296 C1297 1.399 . S
C1296 C1301 1.399 . S
C1297 C1296 1.399 . S
C1297 C1298 1.376 . S
C1298 H1285 0.930 . S
C1298 C1297 1.376 . S
C1298 C1299 1.388 . S
C1299 H1286 0.930 . S
C1299 C1298 1.388 . S
C1299 C1300 1.390 . S
C1300 C1299 1.390 . S
C1300 C1301 1.394 . S
C1300 C1306 1.465 . S
C1301 C1296 1.399 . S
C1301 C1300 1.394 . S
C1301 C1302 1.516 . S
C1302 C1301 1.516 . S
C1302 C1303 1.502 . S
C1302 C1304 1.561 . S
C1302 C1305 1.526 . S
C1303 H1287 0.959 . S
C1303 H1288 0.959 . S
C1303 H1289 0.961 . S
C1303 C1302 1.502 . S
C1304 H1290 0.960 . S
C1304 H1291 0.961 . S
C1304 H1292 0.959 . S
C1304 C1302 1.561 . S
C1305 C1302 1.526 . S
C1305 C1306 1.396 . S
C1305 C1310 1.390 . S
C1306 C1300 1.465 . S
C1306 C1305 1.396 . S
C1306 C1307 1.399 . S
C1307 H1293 0.929 . S
C1307 C1306 1.399 . S
C1307 C1308 1.385 . S
C1308 H1294 0.931 . S
C1308 C1307 1.385 . S
C1308 C1309 1.389 . S
C1309 C1308 1.389 . S
C1309 C1310 1.387 . S
C1310 H1295 0.930 . S
C1310 C1305 1.390 . S
C1310 C1309 1.387 . S
H1311 C1323 0.930 . S
H1312 C1325 0.930 . S
H1313 C1326 0.930 . S
H1314 C1330 0.959 . S
H1315 C1330 0.959 . S
H1316 C1330 0.961 . S
H1317 C1331 0.960 . S
H1318 C1331 0.961 . S
H1319 C1331 0.959 . S
H1320 C1334 0.929 . S
H1321 C1335 0.931 . S
H1322 C1337 0.930 . S
C1323 H1311 0.930 . S
C1323 C1324 1.399 . S
C1323 C1328 1.399 . S
C1324 C1323 1.399 . S
C1324 C1325 1.376 . S
C1325 H1312 0.930 . S
C1325 C1324 1.376 . S
C1325 C1326 1.388 . S
C1326 H1313 0.930 . S
C1326 C1325 1.388 . S
C1326 C1327 1.390 . S
C1327 C1326 1.390 . S
C1327 C1328 1.394 . S
C1327 C1333 1.465 . S
C1328 C1323 1.399 . S
C1328 C1327 1.394 . S
C1328 C1329 1.516 . S
C1329 C1328 1.516 . S
C1329 C1330 1.502 . S
C1329 C1331 1.561 . S
C1329 C1332 1.526 . S
C1330 H1314 0.959 . S
C1330 H1315 0.959 . S
C1330 H1316 0.961 . S
C1330 C1329 1.502 . S
C1331 H1317 0.960 . S
C1331 H1318 0.961 . S
C1331 H1319 0.959 . S
C1331 C1329 1.561 . S
C1332 C1329 1.526 . S
C1332 C1333 1.396 . S
C1332 C1337 1.390 . S
C1333 C1327 1.465 . S
C1333 C1332 1.396 . S
C1333 C1334 1.399 . S
C1334 H1320 0.929 . S
C1334 C1333 1.399 . S
C1334 C1335 1.385 . S
C1335 H1321 0.931 . S
C1335 C1334 1.385 . S
C1335 C1336 1.389 . S
C1336 C1335 1.389 . S
C1336 C1337 1.387 . S
C1337 H1322 0.930 . S
C1337 C1332 1.390 . S
C1337 C1336 1.387 . S
H1338 C1350 0.930 . S
H1339 C1352 0.930 . S
H1340 C1353 0.930 . S
H1341 C1357 0.959 . S
H1342 C1357 0.959 . S
H1343 C1357 0.961 . S
H1344 C1358 0.960 . S
H1345 C1358 0.961 . S
H1346 C1358 0.959 . S
H1347 C1361 0.929 . S
H1348 C1362 0.931 . S
H1349 C1364 0.930 . S
C1350 H1338 0.930 . S
C1350 C1351 1.399 . S
C1350 C1355 1.399 . S
C1351 C1350 1.399 . S
C1351 C1352 1.376 . S
C1352 H1339 0.930 . S
C1352 C1351 1.376 . S
C1352 C1353 1.388 . S
C1353 H1340 0.930 . S
C1353 C1352 1.388 . S
C1353 C1354 1.390 . S
C1354 C1353 1.390 . S
C1354 C1355 1.394 . S
C1354 C1360 1.465 . S
C1355 C1350 1.399 . S
C1355 C1354 1.394 . S
C1355 C1356 1.516 . S
C1356 C1355 1.516 . S
C1356 C1357 1.502 . S
C1356 C1358 1.561 . S
C1356 C1359 1.526 . S
C1357 H1341 0.959 . S
C1357 H1342 0.959 . S
C1357 H1343 0.961 . S
C1357 C1356 1.502 . S
C1358 H1344 0.960 . S
C1358 H1345 0.961 . S
C1358 H1346 0.959 . S
C1358 C1356 1.561 . S
C1359 C1356 1.526 . S
C1359 C1360 1.396 . S
C1359 C1364 1.390 . S
C1360 C1354 1.465 . S
C1360 C1359 1.396 . S
C1360 C1361 1.399 . S
C1361 H1347 0.929 . S
C1361 C1360 1.399 . S
C1361 C1362 1.385 . S
C1362 H1348 0.931 . S
C1362 C1361 1.385 . S
C1362 C1363 1.389 . S
C1363 C1362 1.389 . S
C1363 C1364 1.387 . S
C1364 H1349 0.930 . S
C1364 C1359 1.390 . S
C1364 C1363 1.387 . S
H1365 C1377 0.930 . S
H1366 C1379 0.930 . S
H1367 C1380 0.930 . S
H1368 C1384 0.959 . S
H1369 C1384 0.959 . S
H1370 C1384 0.961 . S
H1371 C1385 0.960 . S
H1372 C1385 0.961 . S
H1373 C1385 0.959 . S
H1374 C1388 0.929 . S
H1375 C1389 0.931 . S
H1376 C1391 0.930 . S
C1377 H1365 0.930 . S
C1377 C1378 1.399 . S
C1377 C1382 1.399 . S
C1378 C1377 1.399 . S
C1378 C1379 1.376 . S
C1379 H1366 0.930 . S
C1379 C1378 1.376 . S
C1379 C1380 1.388 . S
C1380 H1367 0.930 . S
C1380 C1379 1.388 . S
C1380 C1381 1.390 . S
C1381 C1380 1.390 . S
C1381 C1382 1.394 . S
C1381 C1387 1.465 . S
C1382 C1377 1.399 . S
C1382 C1381 1.394 . S
C1382 C1383 1.516 . S
C1383 C1382 1.516 . S
C1383 C1384 1.502 . S
C1383 C1385 1.561 . S
C1383 C1386 1.526 . S
C1384 H1368 0.959 . S
C1384 H1369 0.959 . S
C1384 H1370 0.961 . S
C1384 C1383 1.502 . S
C1385 H1371 0.960 . S
C1385 H1372 0.961 . S
C1385 H1373 0.959 . S
C1385 C1383 1.561 . S
C1386 C1383 1.526 . S
C1386 C1387 1.396 . S
C1386 C1391 1.390 . S
C1387 C1381 1.465 . S
C1387 C1386 1.396 . S
C1387 C1388 1.399 . S
C1388 H1374 0.929 . S
C1388 C1387 1.399 . S
C1388 C1389 1.385 . S
C1389 H1375 0.931 . S
C1389 C1388 1.385 . S
C1389 C1390 1.389 . S
C1390 C1389 1.389 . S
C1390 C1391 1.387 . S
C1391 H1376 0.930 . S
C1391 C1386 1.390 . S
C1391 C1390 1.387 . S
H1392 C1404 0.930 . S
H1393 C1406 0.930 . S
H1394 C1407 0.930 . S
H1395 C1411 0.959 . S
H1396 C1411 0.959 . S
H1397 C1411 0.961 . S
H1398 C1412 0.960 . S
H1399 C1412 0.961 . S
H1400 C1412 0.959 . S
H1401 C1415 0.929 . S
H1402 C1416 0.931 . S
H1403 C1418 0.930 . S
C1404 H1392 0.930 . S
C1404 C1405 1.399 . S
C1404 C1409 1.399 . S
C1405 C1404 1.399 . S
C1405 C1406 1.376 . S
C1406 H1393 0.930 . S
C1406 C1405 1.376 . S
C1406 C1407 1.388 . S
C1407 H1394 0.930 . S
C1407 C1406 1.388 . S
C1407 C1408 1.390 . S
C1408 C1407 1.390 . S
C1408 C1409 1.394 . S
C1408 C1414 1.465 . S
C1409 C1404 1.399 . S
C1409 C1408 1.394 . S
C1409 C1410 1.516 . S
C1410 C1409 1.516 . S
C1410 C1411 1.502 . S
C1410 C1412 1.561 . S
C1410 C1413 1.526 . S
C1411 H1395 0.959 . S
C1411 H1396 0.959 . S
C1411 H1397 0.961 . S
C1411 C1410 1.502 . S
C1412 H1398 0.960 . S
C1412 H1399 0.961 . S
C1412 H1400 0.959 . S
C1412 C1410 1.561 . S
C1413 C1410 1.526 . S
C1413 C1414 1.396 . S
C1413 C1418 1.390 . S
C1414 C1408 1.465 . S
C1414 C1413 1.396 . S
C1414 C1415 1.399 . S
C1415 H1401 0.929 . S
C1415 C1414 1.399 . S
C1415 C1416 1.385 . S
C1416 H1402 0.931 . S
C1416 C1415 1.385 . S
C1416 C1417 1.389 . S
C1417 C1416 1.389 . S
C1417 C1418 1.387 . S
C1418 H1403 0.930 . S
C1418 C1413 1.390 . S
C1418 C1417 1.387 . S
H1419 C1431 0.930 . S
H1420 C1433 0.930 . S
H1421 C1434 0.930 . S
H1422 C1438 0.959 . S
H1423 C1438 0.959 . S
H1424 C1438 0.961 . S
H1425 C1439 0.960 . S
H1426 C1439 0.961 . S
H1427 C1439 0.959 . S
H1428 C1442 0.929 . S
H1429 C1443 0.931 . S
H1430 C1445 0.930 . S
C1431 H1419 0.930 . S
C1431 C1432 1.399 . S
C1431 C1436 1.399 . S
C1432 C1431 1.399 . S
C1432 C1433 1.376 . S
C1433 H1420 0.930 . S
C1433 C1432 1.376 . S
C1433 C1434 1.388 . S
C1434 H1421 0.930 . S
C1434 C1433 1.388 . S
C1434 C1435 1.390 . S
C1435 C1434 1.390 . S
C1435 C1436 1.394 . S
C1435 C1441 1.465 . S
C1436 C1431 1.399 . S
C1436 C1435 1.394 . S
C1436 C1437 1.516 . S
C1437 C1436 1.516 . S
C1437 C1438 1.502 . S
C1437 C1439 1.561 . S
C1437 C1440 1.526 . S
C1438 H1422 0.959 . S
C1438 H1423 0.959 . S
C1438 H1424 0.961 . S
C1438 C1437 1.502 . S
C1439 H1425 0.960 . S
C1439 H1426 0.961 . S
C1439 H1427 0.959 . S
C1439 C1437 1.561 . S
C1440 C1437 1.526 . S
C1440 C1441 1.396 . S
C1440 C1445 1.390 . S
C1441 C1435 1.465 . S
C1441 C1440 1.396 . S
C1441 C1442 1.399 . S
C1442 H1428 0.929 . S
C1442 C1441 1.399 . S
C1442 C1443 1.385 . S
C1443 H1429 0.931 . S
C1443 C1442 1.385 . S
C1443 C1444 1.389 . S
C1444 C1443 1.389 . S
C1444 C1445 1.387 . S
C1445 H1430 0.930 . S
C1445 C1440 1.390 . S
C1445 C1444 1.387 . S
H1446 C1458 0.930 . S
H1447 C1460 0.930 . S
H1448 C1461 0.930 . S
H1449 C1465 0.959 . S
H1450 C1465 0.959 . S
H1451 C1465 0.961 . S
H1452 C1466 0.960 . S
H1453 C1466 0.961 . S
H1454 C1466 0.959 . S
H1455 C1469 0.929 . S
H1456 C1470 0.931 . S
H1457 C1472 0.930 . S
C1458 H1446 0.930 . S
C1458 C1459 1.399 . S
C1458 C1463 1.399 . S
C1459 C1458 1.399 . S
C1459 C1460 1.376 . S
C1460 H1447 0.930 . S
C1460 C1459 1.376 . S
C1460 C1461 1.388 . S
C1461 H1448 0.930 . S
C1461 C1460 1.388 . S
C1461 C1462 1.390 . S
C1462 C1461 1.390 . S
C1462 C1463 1.394 . S
C1462 C1468 1.465 . S
C1463 C1458 1.399 . S
C1463 C1462 1.394 . S
C1463 C1464 1.516 . S
C1464 C1463 1.516 . S
C1464 C1465 1.502 . S
C1464 C1466 1.561 . S
C1464 C1467 1.526 . S
C1465 H1449 0.959 . S
C1465 H1450 0.959 . S
C1465 H1451 0.961 . S
C1465 C1464 1.502 . S
C1466 H1452 0.960 . S
C1466 H1453 0.961 . S
C1466 H1454 0.959 . S
C1466 C1464 1.561 . S
C1467 C1464 1.526 . S
C1467 C1468 1.396 . S
C1467 C1472 1.390 . S
C1468 C1462 1.465 . S
C1468 C1467 1.396 . S
C1468 C1469 1.399 . S
C1469 H1455 0.929 . S
C1469 C1468 1.399 . S
C1469 C1470 1.385 . S
C1470 H1456 0.931 . S
C1470 C1469 1.385 . S
C1470 C1471 1.389 . S
C1471 C1470 1.389 . S
C1471 C1472 1.387 . S
C1472 H1457 0.930 . S
C1472 C1467 1.390 . S
C1472 C1471 1.387 . S
H1473 C1485 0.930 . S
H1474 C1487 0.930 . S
H1475 C1488 0.930 . S
H1476 C1492 0.959 . S
H1477 C1492 0.959 . S
H1478 C1492 0.961 . S
H1479 C1493 0.960 . S
H1480 C1493 0.961 . S
H1481 C1493 0.959 . S
H1482 C1496 0.929 . S
H1483 C1497 0.931 . S
H1484 C1499 0.930 . S
C1485 H1473 0.930 . S
C1485 C1486 1.399 . S
C1485 C1490 1.399 . S
C1486 C1485 1.399 . S
C1486 C1487 1.376 . S
C1487 H1474 0.930 . S
C1487 C1486 1.376 . S
C1487 C1488 1.388 . S
C1488 H1475 0.930 . S
C1488 C1487 1.388 . S
C1488 C1489 1.390 . S
C1489 C1488 1.390 . S
C1489 C1490 1.394 . S
C1489 C1495 1.465 . S
C1490 C1485 1.399 . S
C1490 C1489 1.394 . S
C1490 C1491 1.516 . S
C1491 C1490 1.516 . S
C1491 C1492 1.502 . S
C1491 C1493 1.561 . S
C1491 C1494 1.526 . S
C1492 H1476 0.959 . S
C1492 H1477 0.959 . S
C1492 H1478 0.961 . S
C1492 C1491 1.502 . S
C1493 H1479 0.960 . S
C1493 H1480 0.961 . S
C1493 H1481 0.959 . S
C1493 C1491 1.561 . S
C1494 C1491 1.526 . S
C1494 C1495 1.396 . S
C1494 C1499 1.390 . S
C1495 C1489 1.465 . S
C1495 C1494 1.396 . S
C1495 C1496 1.399 . S
C1496 H1482 0.929 . S
C1496 C1495 1.399 . S
C1496 C1497 1.385 . S
C1497 H1483 0.931 . S
C1497 C1496 1.385 . S
C1497 C1498 1.389 . S
C1498 C1497 1.389 . S
C1498 C1499 1.387 . S
C1499 H1484 0.930 . S
C1499 C1494 1.390 . S
C1499 C1498 1.387 . S
H1500 C1512 0.930 . S
H1501 C1514 0.930 . S
H1502 C1515 0.930 . S
H1503 C1519 0.959 . S
H1504 C1519 0.959 . S
H1505 C1519 0.961 . S
H1506 C1520 0.960 . S
H1507 C1520 0.961 . S
H1508 C1520 0.959 . S
H1509 C1523 0.929 . S
H1510 C1524 0.931 . S
H1511 C1526 0.930 . S
C1512 H1500 0.930 . S
C1512 C1513 1.399 . S
C1512 C1517 1.399 . S
C1513 C1512 1.399 . S
C1513 C1514 1.376 . S
C1514 H1501 0.930 . S
C1514 C1513 1.376 . S
C1514 C1515 1.388 . S
C1515 H1502 0.930 . S
C1515 C1514 1.388 . S
C1515 C1516 1.390 . S
C1516 C1515 1.390 . S
C1516 C1517 1.394 . S
C1516 C1522 1.465 . S
C1517 C1512 1.399 . S
C1517 C1516 1.394 . S
C1517 C1518 1.516 . S
C1518 C1517 1.516 . S
C1518 C1519 1.502 . S
C1518 C1520 1.561 . S
C1518 C1521 1.526 . S
C1519 H1503 0.959 . S
C1519 H1504 0.959 . S
C1519 H1505 0.961 . S
C1519 C1518 1.502 . S
C1520 H1506 0.960 . S
C1520 H1507 0.961 . S
C1520 H1508 0.959 . S
C1520 C1518 1.561 . S
C1521 C1518 1.526 . S
C1521 C1522 1.396 . S
C1521 C1526 1.390 . S
C1522 C1516 1.465 . S
C1522 C1521 1.396 . S
C1522 C1523 1.399 . S
C1523 H1509 0.929 . S
C1523 C1522 1.399 . S
C1523 C1524 1.385 . S
C1524 H1510 0.931 . S
C1524 C1523 1.385 . S
C1524 C1525 1.389 . S
C1525 C1524 1.389 . S
C1525 C1526 1.387 . S
C1526 H1511 0.930 . S
C1526 C1521 1.390 . S
C1526 C1525 1.387 . S
H1527 C1539 0.930 . S
H1528 C1541 0.930 . S
H1529 C1542 0.930 . S
H1530 C1546 0.959 . S
H1531 C1546 0.959 . S
H1532 C1546 0.961 . S
H1533 C1547 0.960 . S
H1534 C1547 0.961 . S
H1535 C1547 0.959 . S
H1536 C1550 0.929 . S
H1537 C1551 0.931 . S
H1538 C1553 0.930 . S
C1539 H1527 0.930 . S
C1539 C1540 1.399 . S
C1539 C1544 1.399 . S
C1540 C1539 1.399 . S
C1540 C1541 1.376 . S
C1541 H1528 0.930 . S
C1541 C1540 1.376 . S
C1541 C1542 1.388 . S
C1542 H1529 0.930 . S
C1542 C1541 1.388 . S
C1542 C1543 1.390 . S
C1543 C1542 1.390 . S
C1543 C1544 1.394 . S
C1543 C1549 1.465 . S
C1544 C1539 1.399 . S
C1544 C1543 1.394 . S
C1544 C1545 1.516 . S
C1545 C1544 1.516 . S
C1545 C1546 1.502 . S
C1545 C1547 1.561 . S
C1545 C1548 1.526 . S
C1546 H1530 0.959 . S
C1546 H1531 0.959 . S
C1546 H1532 0.961 . S
C1546 C1545 1.502 . S
C1547 H1533 0.960 . S
C1547 H1534 0.961 . S
C1547 H1535 0.959 . S
C1547 C1545 1.561 . S
C1548 C1545 1.526 . S
C1548 C1549 1.396 . S
C1548 C1553 1.390 . S
C1549 C1543 1.465 . S
C1549 C1548 1.396 . S
C1549 C1550 1.399 . S
C1550 H1536 0.929 . S
C1550 C1549 1.399 . S
C1550 C1551 1.385 . S
C1551 H1537 0.931 . S
C1551 C1550 1.385 . S
C1551 C1552 1.389 . S
C1552 C1551 1.389 . S
C1552 C1553 1.387 . S
C1553 H1538 0.930 . S
C1553 C1548 1.390 . S
C1553 C1552 1.387 . S
H1554 C1566 0.930 . S
H1555 C1568 0.930 . S
H1556 C1569 0.930 . S
H1557 C1573 0.959 . S
H1558 C1573 0.959 . S
H1559 C1573 0.961 . S
H1560 C1574 0.960 . S
H1561 C1574 0.961 . S
H1562 C1574 0.959 . S
H1563 C1577 0.929 . S
H1564 C1578 0.931 . S
H1565 C1580 0.930 . S
C1566 H1554 0.930 . S
C1566 C1567 1.399 . S
C1566 C1571 1.399 . S
C1567 C1566 1.399 . S
C1567 C1568 1.376 . S
C1568 H1555 0.930 . S
C1568 C1567 1.376 . S
C1568 C1569 1.388 . S
C1569 H1556 0.930 . S
C1569 C1568 1.388 . S
C1569 C1570 1.390 . S
C1570 C1569 1.390 . S
C1570 C1571 1.394 . S
C1570 C1576 1.465 . S
C1571 C1566 1.399 . S
C1571 C1570 1.394 . S
C1571 C1572 1.516 . S
C1572 C1571 1.516 . S
C1572 C1573 1.502 . S
C1572 C1574 1.561 . S
C1572 C1575 1.526 . S
C1573 H1557 0.959 . S
C1573 H1558 0.959 . S
C1573 H1559 0.961 . S
C1573 C1572 1.502 . S
C1574 H1560 0.960 . S
C1574 H1561 0.961 . S
C1574 H1562 0.959 . S
C1574 C1572 1.561 . S
C1575 C1572 1.526 . S
C1575 C1576 1.396 . S
C1575 C1580 1.390 . S
C1576 C1570 1.465 . S
C1576 C1575 1.396 . S
C1576 C1577 1.399 . S
C1577 H1563 0.929 . S
C1577 C1576 1.399 . S
C1577 C1578 1.385 . S
C1578 H1564 0.931 . S
C1578 C1577 1.385 . S
C1578 C1579 1.389 . S
C1579 C1578 1.389 . S
C1579 C1580 1.387 . S
C1580 H1565 0.930 . S
C1580 C1575 1.390 . S
C1580 C1579 1.387 . S
H1581 C1593 0.930 . S
H1582 C1595 0.930 . S
H1583 C1596 0.930 . S
H1584 C1600 0.959 . S
H1585 C1600 0.959 . S
H1586 C1600 0.961 . S
H1587 C1601 0.960 . S
H1588 C1601 0.961 . S
H1589 C1601 0.959 . S
H1590 C1604 0.929 . S
H1591 C1605 0.931 . S
H1592 C1607 0.930 . S
C1593 H1581 0.930 . S
C1593 C1594 1.399 . S
C1593 C1598 1.399 . S
C1594 C1593 1.399 . S
C1594 C1595 1.376 . S
C1595 H1582 0.930 . S
C1595 C1594 1.376 . S
C1595 C1596 1.388 . S
C1596 H1583 0.930 . S
C1596 C1595 1.388 . S
C1596 C1597 1.390 . S
C1597 C1596 1.390 . S
C1597 C1598 1.394 . S
C1597 C1603 1.465 . S
C1598 C1593 1.399 . S
C1598 C1597 1.394 . S
C1598 C1599 1.516 . S
C1599 C1598 1.516 . S
C1599 C1600 1.502 . S
C1599 C1601 1.561 . S
C1599 C1602 1.526 . S
C1600 H1584 0.959 . S
C1600 H1585 0.959 . S
C1600 H1586 0.961 . S
C1600 C1599 1.502 . S
C1601 H1587 0.960 . S
C1601 H1588 0.961 . S
C1601 H1589 0.959 . S
C1601 C1599 1.561 . S
C1602 C1599 1.526 . S
C1602 C1603 1.396 . S
C1602 C1607 1.390 . S
C1603 C1597 1.465 . S
C1603 C1602 1.396 . S
C1603 C1604 1.399 . S
C1604 H1590 0.929 . S
C1604 C1603 1.399 . S
C1604 C1605 1.385 . S
C1605 H1591 0.931 . S
C1605 C1604 1.385 . S
C1605 C1606 1.389 . S
C1606 C1605 1.389 . S
C1606 C1607 1.387 . S
C1607 H1592 0.930 . S
C1607 C1602 1.390 . S
C1607 C1606 1.387 . S
C541 C28 1.537 . S
C553 C160 1.512 . S
C568 C193 1.520 . S
C580 C61 1.492 . S
C595 C226 1.536 . S
C607 C94 1.506 . S
C622 C259 1.513 . S
C634 C127 1.492 . S
C649 C292 1.517 . S
C661 C424 1.535 . S
C676 C325 1.491 . S
C688 C457 1.503 . S
C703 C490 1.508 . S
C715 C358 1.492 . S
C730 C391 1.537 . S
C742 C523 1.523 . S
C757 N401 1.327 . S
C769 N14 1.266 . S
C784 N434 1.336 . S
C796 N47 1.309 . S
C811 N80 1.307 . S
C823 N467 1.335 . S
C838 N500 1.307 . S
C850 N113 1.271 1_565 S
C865 N269 1.310 . S
C877 N146 1.328 . S
C892 N302 1.307 . S
C904 N179 1.273 . S
C919 N212 1.332 . S
C931 N335 1.323 . S
C946 N245 1.334 . S
C958 N368 1.317 . S
C973 N137 1.329 . S
C985 N278 1.308 . S
C1000 N170 1.337 . S
C1012 N311 1.280 . S
C1027 N203 1.335 . S
C1039 N344 1.294 . S
C1054 N377 1.331 . S
C1066 N236 1.314 . S
C1081 N5 1.333 . S
C1093 N410 1.298 . S
C1108 N38 1.336 . S
C1120 N443 1.270 . S
C1135 N476 1.268 . S
C1147 N71 1.335 . S
C1162 N104 1.336 . S
C1174 N509 1.283 . S
C1189 C83 1.351 . S
C1201 C17 1.345 . S
C1216 C50 1.359 . S
C1228 C116 1.343 . S
C1243 C215 1.361 . S
C1255 C149 1.343 . S
C1270 C248 1.357 . S
C1282 C182 1.343 . S
C1297 C347 1.344 . S
C1309 C281 1.349 . S
C1324 C380 1.344 . S
C1336 C314 1.348 . S
C1351 C413 1.374 . S
C1363 C479 1.360 . S
C1378 C512 1.345 . S
C1390 C446 1.353 . S
C1405 C239 1.032 . S
C1417 C8 1.037 . S
C1432 C140 1.055 . S
C1444 C41 1.086 . S
C1459 C173 1.075 . S
C1471 C74 1.101 . S
C1486 C206 1.035 . S
C1498 C107 1.063 . S
C1513 C503 1.051 . S
C1525 C272 1.100 . S
C1540 C404 1.031 . S
C1552 C305 1.055 . S
C1567 C437 1.106 . S
C1579 C338 1.069 . S
C1594 C470 1.106 . S
C1606 C371 1.069 . S
