# Generated by pormake.
# Topology gie, (4)-cn, num edge types: 1
# Building blocks:
#     Node 0, Type 0, BuildingBlock: QUQFOY_clean_sbu_1, # of connection points: 4
#     Node 1, Type 0, BuildingBlock: QUQFOY_clean_sbu_1, # of connection points: 4
#     Node 2, Type 0, BuildingBlock: QUQFOY_clean_sbu_1, # of connection points: 4
#     Node 3, Type 0, BuildingBlock: QUQFOY_clean_sbu_1, # of connection points: 4
#     Node 4, Type 0, BuildingBlock: QUQFOY_clean_sbu_1, # of connection points: 4
#     Node 5, Type 0, BuildingBlock: QUQFOY_clean_sbu_1, # of connection points: 4
#     Node 6, Type 0, BuildingBlock: QUQFOY_clean_sbu_1, # of connection points: 4
#     Node 7, Type 0, BuildingBlock: QUQFOY_clean_sbu_1, # of connection points: 4
#     Node 8, Type 0, BuildingBlock: QUQFOY_clean_sbu_1, # of connection points: 4
#     Node 9, Type 0, BuildingBlock: QUQFOY_clean_sbu_1, # of connection points: 4
#     Node 10, Type 0, BuildingBlock: QUQFOY_clean_sbu_1, # of connection points: 4
#     Node 11, Type 0, BuildingBlock: QUQFOY_clean_sbu_1, # of connection points: 4
#     Node 12, Type 0, BuildingBlock: QUQFOY_clean_sbu_1, # of connection points: 4
#     Node 13, Type 0, BuildingBlock: QUQFOY_clean_sbu_1, # of connection points: 4
#     Node 14, Type 0, BuildingBlock: QUQFOY_clean_sbu_1, # of connection points: 4
#     Node 15, Type 0, BuildingBlock: QUQFOY_clean_sbu_1, # of connection points: 4
#     Node 16, Type 0, BuildingBlock: QUQFOY_clean_sbu_1, # of connection points: 4
#     Node 17, Type 0, BuildingBlock: QUQFOY_clean_sbu_1, # of connection points: 4
#     Node 18, Type 0, BuildingBlock: QUQFOY_clean_sbu_1, # of connection points: 4
#     Node 19, Type 0, BuildingBlock: QUQFOY_clean_sbu_1, # of connection points: 4
#     Node 20, Type 0, BuildingBlock: QUQFOY_clean_sbu_1, # of connection points: 4
#     Node 21, Type 0, BuildingBlock: QUQFOY_clean_sbu_1, # of connection points: 4
#     Node 22, Type 0, BuildingBlock: QUQFOY_clean_sbu_1, # of connection points: 4
#     Node 23, Type 0, BuildingBlock: QUQFOY_clean_sbu_1, # of connection points: 4
#     Node 24, Type 0, BuildingBlock: QUQFOY_clean_sbu_1, # of connection points: 4
#     Node 25, Type 0, BuildingBlock: QUQFOY_clean_sbu_1, # of connection points: 4
#     Node 26, Type 0, BuildingBlock: QUQFOY_clean_sbu_1, # of connection points: 4
#     Node 27, Type 0, BuildingBlock: QUQFOY_clean_sbu_1, # of connection points: 4
#     Node 28, Type 0, BuildingBlock: QUQFOY_clean_sbu_1, # of connection points: 4
#     Node 29, Type 0, BuildingBlock: QUQFOY_clean_sbu_1, # of connection points: 4
#     Node 30, Type 0, BuildingBlock: QUQFOY_clean_sbu_1, # of connection points: 4
#     Node 31, Type 0, BuildingBlock: QUQFOY_clean_sbu_1, # of connection points: 4
#     Node 32, Type 0, BuildingBlock: QUQFOY_clean_sbu_1, # of connection points: 4
#     Node 33, Type 0, BuildingBlock: QUQFOY_clean_sbu_1, # of connection points: 4
#     Node 34, Type 0, BuildingBlock: QUQFOY_clean_sbu_1, # of connection points: 4
#     Node 35, Type 0, BuildingBlock: QUQFOY_clean_sbu_1, # of connection points: 4
#     Node 36, Type 0, BuildingBlock: QUQFOY_clean_sbu_1, # of connection points: 4
#     Node 37, Type 0, BuildingBlock: QUQFOY_clean_sbu_1, # of connection points: 4
#     Node 38, Type 0, BuildingBlock: QUQFOY_clean_sbu_1, # of connection points: 4
#     Node 39, Type 0, BuildingBlock: QUQFOY_clean_sbu_1, # of connection points: 4
#     Node 40, Type 0, BuildingBlock: QUQFOY_clean_sbu_1, # of connection points: 4
#     Node 41, Type 0, BuildingBlock: QUQFOY_clean_sbu_1, # of connection points: 4
#     Node 42, Type 0, BuildingBlock: QUQFOY_clean_sbu_1, # of connection points: 4
#     Node 43, Type 0, BuildingBlock: QUQFOY_clean_sbu_1, # of connection points: 4
#     Node 44, Type 0, BuildingBlock: QUQFOY_clean_sbu_1, # of connection points: 4
#     Node 45, Type 0, BuildingBlock: QUQFOY_clean_sbu_1, # of connection points: 4
#     Node 46, Type 0, BuildingBlock: QUQFOY_clean_sbu_1, # of connection points: 4
#     Node 47, Type 0, BuildingBlock: QUQFOY_clean_sbu_1, # of connection points: 4
#     Node 48, Type 0, BuildingBlock: QUQFOY_clean_sbu_1, # of connection points: 4
#     Node 49, Type 0, BuildingBlock: QUQFOY_clean_sbu_1, # of connection points: 4
#     Node 50, Type 0, BuildingBlock: QUQFOY_clean_sbu_1, # of connection points: 4
#     Node 51, Type 0, BuildingBlock: QUQFOY_clean_sbu_1, # of connection points: 4
#     Node 52, Type 0, BuildingBlock: QUQFOY_clean_sbu_1, # of connection points: 4
#     Node 53, Type 0, BuildingBlock: QUQFOY_clean_sbu_1, # of connection points: 4
#     Node 54, Type 0, BuildingBlock: QUQFOY_clean_sbu_1, # of connection points: 4
#     Node 55, Type 0, BuildingBlock: QUQFOY_clean_sbu_1, # of connection points: 4
#     Node 56, Type 0, BuildingBlock: QUQFOY_clean_sbu_1, # of connection points: 4
#     Node 57, Type 0, BuildingBlock: QUQFOY_clean_sbu_1, # of connection points: 4
#     Node 58, Type 0, BuildingBlock: QUQFOY_clean_sbu_1, # of connection points: 4
#     Node 59, Type 0, BuildingBlock: QUQFOY_clean_sbu_1, # of connection points: 4
#     Node 60, Type 0, BuildingBlock: QUQFOY_clean_sbu_1, # of connection points: 4
#     Node 61, Type 0, BuildingBlock: QUQFOY_clean_sbu_1, # of connection points: 4
#     Node 62, Type 0, BuildingBlock: QUQFOY_clean_sbu_1, # of connection points: 4
#     Node 63, Type 0, BuildingBlock: QUQFOY_clean_sbu_1, # of connection points: 4
#     Node 64, Type 0, BuildingBlock: QUQFOY_clean_sbu_1, # of connection points: 4
#     Node 65, Type 0, BuildingBlock: QUQFOY_clean_sbu_1, # of connection points: 4
#     Node 66, Type 0, BuildingBlock: QUQFOY_clean_sbu_1, # of connection points: 4
#     Node 67, Type 0, BuildingBlock: QUQFOY_clean_sbu_1, # of connection points: 4
#     Node 68, Type 0, BuildingBlock: QUQFOY_clean_sbu_1, # of connection points: 4
#     Node 69, Type 0, BuildingBlock: QUQFOY_clean_sbu_1, # of connection points: 4
#     Node 70, Type 0, BuildingBlock: QUQFOY_clean_sbu_1, # of connection points: 4
#     Node 71, Type 0, BuildingBlock: QUQFOY_clean_sbu_1, # of connection points: 4
#     Node 72, Type 0, BuildingBlock: QUQFOY_clean_sbu_1, # of connection points: 4
#     Node 73, Type 0, BuildingBlock: QUQFOY_clean_sbu_1, # of connection points: 4
#     Node 74, Type 0, BuildingBlock: QUQFOY_clean_sbu_1, # of connection points: 4
#     Node 75, Type 0, BuildingBlock: QUQFOY_clean_sbu_1, # of connection points: 4
#     Node 76, Type 0, BuildingBlock: QUQFOY_clean_sbu_1, # of connection points: 4
#     Node 77, Type 0, BuildingBlock: QUQFOY_clean_sbu_1, # of connection points: 4
#     Node 78, Type 0, BuildingBlock: QUQFOY_clean_sbu_1, # of connection points: 4
#     Node 79, Type 0, BuildingBlock: QUQFOY_clean_sbu_1, # of connection points: 4
#     Node 80, Type 0, BuildingBlock: QUQFOY_clean_sbu_1, # of connection points: 4
#     Node 81, Type 0, BuildingBlock: QUQFOY_clean_sbu_1, # of connection points: 4
#     Node 82, Type 0, BuildingBlock: QUQFOY_clean_sbu_1, # of connection points: 4
#     Node 83, Type 0, BuildingBlock: QUQFOY_clean_sbu_1, # of connection points: 4
#     Node 84, Type 0, BuildingBlock: QUQFOY_clean_sbu_1, # of connection points: 4
#     Node 85, Type 0, BuildingBlock: QUQFOY_clean_sbu_1, # of connection points: 4
#     Node 86, Type 0, BuildingBlock: QUQFOY_clean_sbu_1, # of connection points: 4
#     Node 87, Type 0, BuildingBlock: QUQFOY_clean_sbu_1, # of connection points: 4
#     Node 88, Type 0, BuildingBlock: QUQFOY_clean_sbu_1, # of connection points: 4
#     Node 89, Type 0, BuildingBlock: QUQFOY_clean_sbu_1, # of connection points: 4
#     Node 90, Type 0, BuildingBlock: QUQFOY_clean_sbu_1, # of connection points: 4
#     Node 91, Type 0, BuildingBlock: QUQFOY_clean_sbu_1, # of connection points: 4
#     Node 92, Type 0, BuildingBlock: QUQFOY_clean_sbu_1, # of connection points: 4
#     Node 93, Type 0, BuildingBlock: QUQFOY_clean_sbu_1, # of connection points: 4
#     Node 94, Type 0, BuildingBlock: QUQFOY_clean_sbu_1, # of connection points: 4
#     Node 95, Type 0, BuildingBlock: QUQFOY_clean_sbu_1, # of connection points: 4
#     Edge 96, Type (0, 0), BuildingBlock: KIFKEQ_clean_linker_1, # of connection points: 2
#     Edge 97, Type (0, 0), BuildingBlock: KIFKEQ_clean_linker_1, # of connection points: 2
#     Edge 98, Type (0, 0), BuildingBlock: KIFKEQ_clean_linker_1, # of connection points: 2
#     Edge 99, Type (0, 0), BuildingBlock: KIFKEQ_clean_linker_1, # of connection points: 2
#     Edge 100, Type (0, 0), BuildingBlock: KIFKEQ_clean_linker_1, # of connection points: 2
#     Edge 101, Type (0, 0), BuildingBlock: KIFKEQ_clean_linker_1, # of connection points: 2
#     Edge 102, Type (0, 0), BuildingBlock: KIFKEQ_clean_linker_1, # of connection points: 2
#     Edge 103, Type (0, 0), BuildingBlock: KIFKEQ_clean_linker_1, # of connection points: 2
#     Edge 104, Type (0, 0), BuildingBlock: KIFKEQ_clean_linker_1, # of connection points: 2
#     Edge 105, Type (0, 0), BuildingBlock: KIFKEQ_clean_linker_1, # of connection points: 2
#     Edge 106, Type (0, 0), BuildingBlock: KIFKEQ_clean_linker_1, # of connection points: 2
#     Edge 107, Type (0, 0), BuildingBlock: KIFKEQ_clean_linker_1, # of connection points: 2
#     Edge 108, Type (0, 0), BuildingBlock: KIFKEQ_clean_linker_1, # of connection points: 2
#     Edge 109, Type (0, 0), BuildingBlock: KIFKEQ_clean_linker_1, # of connection points: 2
#     Edge 110, Type (0, 0), BuildingBlock: KIFKEQ_clean_linker_1, # of connection points: 2
#     Edge 111, Type (0, 0), BuildingBlock: KIFKEQ_clean_linker_1, # of connection points: 2
#     Edge 112, Type (0, 0), BuildingBlock: KIFKEQ_clean_linker_1, # of connection points: 2
#     Edge 113, Type (0, 0), BuildingBlock: KIFKEQ_clean_linker_1, # of connection points: 2
#     Edge 114, Type (0, 0), BuildingBlock: KIFKEQ_clean_linker_1, # of connection points: 2
#     Edge 115, Type (0, 0), BuildingBlock: KIFKEQ_clean_linker_1, # of connection points: 2
#     Edge 116, Type (0, 0), BuildingBlock: KIFKEQ_clean_linker_1, # of connection points: 2
#     Edge 117, Type (0, 0), BuildingBlock: KIFKEQ_clean_linker_1, # of connection points: 2
#     Edge 118, Type (0, 0), BuildingBlock: KIFKEQ_clean_linker_1, # of connection points: 2
#     Edge 119, Type (0, 0), BuildingBlock: KIFKEQ_clean_linker_1, # of connection points: 2
#     Edge 120, Type (0, 0), BuildingBlock: KIFKEQ_clean_linker_1, # of connection points: 2
#     Edge 121, Type (0, 0), BuildingBlock: KIFKEQ_clean_linker_1, # of connection points: 2
#     Edge 122, Type (0, 0), BuildingBlock: KIFKEQ_clean_linker_1, # of connection points: 2
#     Edge 123, Type (0, 0), BuildingBlock: KIFKEQ_clean_linker_1, # of connection points: 2
#     Edge 124, Type (0, 0), BuildingBlock: KIFKEQ_clean_linker_1, # of connection points: 2
#     Edge 125, Type (0, 0), BuildingBlock: KIFKEQ_clean_linker_1, # of connection points: 2
#     Edge 126, Type (0, 0), BuildingBlock: KIFKEQ_clean_linker_1, # of connection points: 2
#     Edge 127, Type (0, 0), BuildingBlock: KIFKEQ_clean_linker_1, # of connection points: 2
#     Edge 128, Type (0, 0), BuildingBlock: KIFKEQ_clean_linker_1, # of connection points: 2
#     Edge 129, Type (0, 0), BuildingBlock: KIFKEQ_clean_linker_1, # of connection points: 2
#     Edge 130, Type (0, 0), BuildingBlock: KIFKEQ_clean_linker_1, # of connection points: 2
#     Edge 131, Type (0, 0), BuildingBlock: KIFKEQ_clean_linker_1, # of connection points: 2
#     Edge 132, Type (0, 0), BuildingBlock: KIFKEQ_clean_linker_1, # of connection points: 2
#     Edge 133, Type (0, 0), BuildingBlock: KIFKEQ_clean_linker_1, # of connection points: 2
#     Edge 134, Type (0, 0), BuildingBlock: KIFKEQ_clean_linker_1, # of connection points: 2
#     Edge 135, Type (0, 0), BuildingBlock: KIFKEQ_clean_linker_1, # of connection points: 2
#     Edge 136, Type (0, 0), BuildingBlock: KIFKEQ_clean_linker_1, # of connection points: 2
#     Edge 137, Type (0, 0), BuildingBlock: KIFKEQ_clean_linker_1, # of connection points: 2
#     Edge 138, Type (0, 0), BuildingBlock: KIFKEQ_clean_linker_1, # of connection points: 2
#     Edge 139, Type (0, 0), BuildingBlock: KIFKEQ_clean_linker_1, # of connection points: 2
#     Edge 140, Type (0, 0), BuildingBlock: KIFKEQ_clean_linker_1, # of connection points: 2
#     Edge 141, Type (0, 0), BuildingBlock: KIFKEQ_clean_linker_1, # of connection points: 2
#     Edge 142, Type (0, 0), BuildingBlock: KIFKEQ_clean_linker_1, # of connection points: 2
#     Edge 143, Type (0, 0), BuildingBlock: KIFKEQ_clean_linker_1, # of connection points: 2
#     Edge 144, Type (0, 0), BuildingBlock: KIFKEQ_clean_linker_1, # of connection points: 2
#     Edge 145, Type (0, 0), BuildingBlock: KIFKEQ_clean_linker_1, # of connection points: 2
#     Edge 146, Type (0, 0), BuildingBlock: KIFKEQ_clean_linker_1, # of connection points: 2
#     Edge 147, Type (0, 0), BuildingBlock: KIFKEQ_clean_linker_1, # of connection points: 2
#     Edge 148, Type (0, 0), BuildingBlock: KIFKEQ_clean_linker_1, # of connection points: 2
#     Edge 149, Type (0, 0), BuildingBlock: KIFKEQ_clean_linker_1, # of connection points: 2
#     Edge 150, Type (0, 0), BuildingBlock: KIFKEQ_clean_linker_1, # of connection points: 2
#     Edge 151, Type (0, 0), BuildingBlock: KIFKEQ_clean_linker_1, # of connection points: 2
#     Edge 152, Type (0, 0), BuildingBlock: KIFKEQ_clean_linker_1, # of connection points: 2
#     Edge 153, Type (0, 0), BuildingBlock: KIFKEQ_clean_linker_1, # of connection points: 2
#     Edge 154, Type (0, 0), BuildingBlock: KIFKEQ_clean_linker_1, # of connection points: 2
#     Edge 155, Type (0, 0), BuildingBlock: KIFKEQ_clean_linker_1, # of connection points: 2
#     Edge 156, Type (0, 0), BuildingBlock: KIFKEQ_clean_linker_1, # of connection points: 2
#     Edge 157, Type (0, 0), BuildingBlock: KIFKEQ_clean_linker_1, # of connection points: 2
#     Edge 158, Type (0, 0), BuildingBlock: KIFKEQ_clean_linker_1, # of connection points: 2
#     Edge 159, Type (0, 0), BuildingBlock: KIFKEQ_clean_linker_1, # of connection points: 2
#     Edge 160, Type (0, 0), BuildingBlock: KIFKEQ_clean_linker_1, # of connection points: 2
#     Edge 161, Type (0, 0), BuildingBlock: KIFKEQ_clean_linker_1, # of connection points: 2
#     Edge 162, Type (0, 0), BuildingBlock: KIFKEQ_clean_linker_1, # of connection points: 2
#     Edge 163, Type (0, 0), BuildingBlock: KIFKEQ_clean_linker_1, # of connection points: 2
#     Edge 164, Type (0, 0), BuildingBlock: KIFKEQ_clean_linker_1, # of connection points: 2
#     Edge 165, Type (0, 0), BuildingBlock: KIFKEQ_clean_linker_1, # of connection points: 2
#     Edge 166, Type (0, 0), BuildingBlock: KIFKEQ_clean_linker_1, # of connection points: 2
#     Edge 167, Type (0, 0), BuildingBlock: KIFKEQ_clean_linker_1, # of connection points: 2
#     Edge 168, Type (0, 0), BuildingBlock: KIFKEQ_clean_linker_1, # of connection points: 2
#     Edge 169, Type (0, 0), BuildingBlock: KIFKEQ_clean_linker_1, # of connection points: 2
#     Edge 170, Type (0, 0), BuildingBlock: KIFKEQ_clean_linker_1, # of connection points: 2
#     Edge 171, Type (0, 0), BuildingBlock: KIFKEQ_clean_linker_1, # of connection points: 2
#     Edge 172, Type (0, 0), BuildingBlock: KIFKEQ_clean_linker_1, # of connection points: 2
#     Edge 173, Type (0, 0), BuildingBlock: KIFKEQ_clean_linker_1, # of connection points: 2
#     Edge 174, Type (0, 0), BuildingBlock: KIFKEQ_clean_linker_1, # of connection points: 2
#     Edge 175, Type (0, 0), BuildingBlock: KIFKEQ_clean_linker_1, # of connection points: 2
#     Edge 176, Type (0, 0), BuildingBlock: KIFKEQ_clean_linker_1, # of connection points: 2
#     Edge 177, Type (0, 0), BuildingBlock: KIFKEQ_clean_linker_1, # of connection points: 2
#     Edge 178, Type (0, 0), BuildingBlock: KIFKEQ_clean_linker_1, # of connection points: 2
#     Edge 179, Type (0, 0), BuildingBlock: KIFKEQ_clean_linker_1, # of connection points: 2
#     Edge 180, Type (0, 0), BuildingBlock: KIFKEQ_clean_linker_1, # of connection points: 2
#     Edge 181, Type (0, 0), BuildingBlock: KIFKEQ_clean_linker_1, # of connection points: 2
#     Edge 182, Type (0, 0), BuildingBlock: KIFKEQ_clean_linker_1, # of connection points: 2
#     Edge 183, Type (0, 0), BuildingBlock: KIFKEQ_clean_linker_1, # of connection points: 2
#     Edge 184, Type (0, 0), BuildingBlock: KIFKEQ_clean_linker_1, # of connection points: 2
#     Edge 185, Type (0, 0), BuildingBlock: KIFKEQ_clean_linker_1, # of connection points: 2
#     Edge 186, Type (0, 0), BuildingBlock: KIFKEQ_clean_linker_1, # of connection points: 2
#     Edge 187, Type (0, 0), BuildingBlock: KIFKEQ_clean_linker_1, # of connection points: 2
#     Edge 188, Type (0, 0), BuildingBlock: KIFKEQ_clean_linker_1, # of connection points: 2
#     Edge 189, Type (0, 0), BuildingBlock: KIFKEQ_clean_linker_1, # of connection points: 2
#     Edge 190, Type (0, 0), BuildingBlock: KIFKEQ_clean_linker_1, # of connection points: 2
#     Edge 191, Type (0, 0), BuildingBlock: KIFKEQ_clean_linker_1, # of connection points: 2
#     Edge 192, Type (0, 0), BuildingBlock: KIFKEQ_clean_linker_1, # of connection points: 2
#     Edge 193, Type (0, 0), BuildingBlock: KIFKEQ_clean_linker_1, # of connection points: 2
#     Edge 194, Type (0, 0), BuildingBlock: KIFKEQ_clean_linker_1, # of connection points: 2
#     Edge 195, Type (0, 0), BuildingBlock: KIFKEQ_clean_linker_1, # of connection points: 2
#     Edge 196, Type (0, 0), BuildingBlock: KIFKEQ_clean_linker_1, # of connection points: 2
#     Edge 197, Type (0, 0), BuildingBlock: KIFKEQ_clean_linker_1, # of connection points: 2
#     Edge 198, Type (0, 0), BuildingBlock: KIFKEQ_clean_linker_1, # of connection points: 2
#     Edge 199, Type (0, 0), BuildingBlock: KIFKEQ_clean_linker_1, # of connection points: 2
#     Edge 200, Type (0, 0), BuildingBlock: KIFKEQ_clean_linker_1, # of connection points: 2
#     Edge 201, Type (0, 0), BuildingBlock: KIFKEQ_clean_linker_1, # of connection points: 2
#     Edge 202, Type (0, 0), BuildingBlock: KIFKEQ_clean_linker_1, # of connection points: 2
#     Edge 203, Type (0, 0), BuildingBlock: KIFKEQ_clean_linker_1, # of connection points: 2
#     Edge 204, Type (0, 0), BuildingBlock: KIFKEQ_clean_linker_1, # of connection points: 2
#     Edge 205, Type (0, 0), BuildingBlock: KIFKEQ_clean_linker_1, # of connection points: 2
#     Edge 206, Type (0, 0), BuildingBlock: KIFKEQ_clean_linker_1, # of connection points: 2
#     Edge 207, Type (0, 0), BuildingBlock: KIFKEQ_clean_linker_1, # of connection points: 2
#     Edge 208, Type (0, 0), BuildingBlock: KIFKEQ_clean_linker_1, # of connection points: 2
#     Edge 209, Type (0, 0), BuildingBlock: KIFKEQ_clean_linker_1, # of connection points: 2
#     Edge 210, Type (0, 0), BuildingBlock: KIFKEQ_clean_linker_1, # of connection points: 2
#     Edge 211, Type (0, 0), BuildingBlock: KIFKEQ_clean_linker_1, # of connection points: 2
#     Edge 212, Type (0, 0), BuildingBlock: KIFKEQ_clean_linker_1, # of connection points: 2
#     Edge 213, Type (0, 0), BuildingBlock: KIFKEQ_clean_linker_1, # of connection points: 2
#     Edge 214, Type (0, 0), BuildingBlock: KIFKEQ_clean_linker_1, # of connection points: 2
#     Edge 215, Type (0, 0), BuildingBlock: KIFKEQ_clean_linker_1, # of connection points: 2
#     Edge 216, Type (0, 0), BuildingBlock: KIFKEQ_clean_linker_1, # of connection points: 2
#     Edge 217, Type (0, 0), BuildingBlock: KIFKEQ_clean_linker_1, # of connection points: 2
#     Edge 218, Type (0, 0), BuildingBlock: KIFKEQ_clean_linker_1, # of connection points: 2
#     Edge 219, Type (0, 0), BuildingBlock: KIFKEQ_clean_linker_1, # of connection points: 2
#     Edge 220, Type (0, 0), BuildingBlock: KIFKEQ_clean_linker_1, # of connection points: 2
#     Edge 221, Type (0, 0), BuildingBlock: KIFKEQ_clean_linker_1, # of connection points: 2
#     Edge 222, Type (0, 0), BuildingBlock: KIFKEQ_clean_linker_1, # of connection points: 2
#     Edge 223, Type (0, 0), BuildingBlock: KIFKEQ_clean_linker_1, # of connection points: 2
#     Edge 224, Type (0, 0), BuildingBlock: KIFKEQ_clean_linker_1, # of connection points: 2
#     Edge 225, Type (0, 0), BuildingBlock: KIFKEQ_clean_linker_1, # of connection points: 2
#     Edge 226, Type (0, 0), BuildingBlock: KIFKEQ_clean_linker_1, # of connection points: 2
#     Edge 227, Type (0, 0), BuildingBlock: KIFKEQ_clean_linker_1, # of connection points: 2
#     Edge 228, Type (0, 0), BuildingBlock: KIFKEQ_clean_linker_1, # of connection points: 2
#     Edge 229, Type (0, 0), BuildingBlock: KIFKEQ_clean_linker_1, # of connection points: 2
#     Edge 230, Type (0, 0), BuildingBlock: KIFKEQ_clean_linker_1, # of connection points: 2
#     Edge 231, Type (0, 0), BuildingBlock: KIFKEQ_clean_linker_1, # of connection points: 2
#     Edge 232, Type (0, 0), BuildingBlock: KIFKEQ_clean_linker_1, # of connection points: 2
#     Edge 233, Type (0, 0), BuildingBlock: KIFKEQ_clean_linker_1, # of connection points: 2
#     Edge 234, Type (0, 0), BuildingBlock: KIFKEQ_clean_linker_1, # of connection points: 2
#     Edge 235, Type (0, 0), BuildingBlock: KIFKEQ_clean_linker_1, # of connection points: 2
#     Edge 236, Type (0, 0), BuildingBlock: KIFKEQ_clean_linker_1, # of connection points: 2
#     Edge 237, Type (0, 0), BuildingBlock: KIFKEQ_clean_linker_1, # of connection points: 2
#     Edge 238, Type (0, 0), BuildingBlock: KIFKEQ_clean_linker_1, # of connection points: 2
#     Edge 239, Type (0, 0), BuildingBlock: KIFKEQ_clean_linker_1, # of connection points: 2
#     Edge 240, Type (0, 0), BuildingBlock: KIFKEQ_clean_linker_1, # of connection points: 2
#     Edge 241, Type (0, 0), BuildingBlock: KIFKEQ_clean_linker_1, # of connection points: 2
#     Edge 242, Type (0, 0), BuildingBlock: KIFKEQ_clean_linker_1, # of connection points: 2
#     Edge 243, Type (0, 0), BuildingBlock: KIFKEQ_clean_linker_1, # of connection points: 2
#     Edge 244, Type (0, 0), BuildingBlock: KIFKEQ_clean_linker_1, # of connection points: 2
#     Edge 245, Type (0, 0), BuildingBlock: KIFKEQ_clean_linker_1, # of connection points: 2
#     Edge 246, Type (0, 0), BuildingBlock: KIFKEQ_clean_linker_1, # of connection points: 2
#     Edge 247, Type (0, 0), BuildingBlock: KIFKEQ_clean_linker_1, # of connection points: 2
#     Edge 248, Type (0, 0), BuildingBlock: KIFKEQ_clean_linker_1, # of connection points: 2
#     Edge 249, Type (0, 0), BuildingBlock: KIFKEQ_clean_linker_1, # of connection points: 2
#     Edge 250, Type (0, 0), BuildingBlock: KIFKEQ_clean_linker_1, # of connection points: 2
#     Edge 251, Type (0, 0), BuildingBlock: KIFKEQ_clean_linker_1, # of connection points: 2
#     Edge 252, Type (0, 0), BuildingBlock: KIFKEQ_clean_linker_1, # of connection points: 2
#     Edge 253, Type (0, 0), BuildingBlock: KIFKEQ_clean_linker_1, # of connection points: 2
#     Edge 254, Type (0, 0), BuildingBlock: KIFKEQ_clean_linker_1, # of connection points: 2
#     Edge 255, Type (0, 0), BuildingBlock: KIFKEQ_clean_linker_1, # of connection points: 2
#     Edge 256, Type (0, 0), BuildingBlock: KIFKEQ_clean_linker_1, # of connection points: 2
#     Edge 257, Type (0, 0), BuildingBlock: KIFKEQ_clean_linker_1, # of connection points: 2
#     Edge 258, Type (0, 0), BuildingBlock: KIFKEQ_clean_linker_1, # of connection points: 2
#     Edge 259, Type (0, 0), BuildingBlock: KIFKEQ_clean_linker_1, # of connection points: 2
#     Edge 260, Type (0, 0), BuildingBlock: KIFKEQ_clean_linker_1, # of connection points: 2
#     Edge 261, Type (0, 0), BuildingBlock: KIFKEQ_clean_linker_1, # of connection points: 2
#     Edge 262, Type (0, 0), BuildingBlock: KIFKEQ_clean_linker_1, # of connection points: 2
#     Edge 263, Type (0, 0), BuildingBlock: KIFKEQ_clean_linker_1, # of connection points: 2
#     Edge 264, Type (0, 0), BuildingBlock: KIFKEQ_clean_linker_1, # of connection points: 2
#     Edge 265, Type (0, 0), BuildingBlock: KIFKEQ_clean_linker_1, # of connection points: 2
#     Edge 266, Type (0, 0), BuildingBlock: KIFKEQ_clean_linker_1, # of connection points: 2
#     Edge 267, Type (0, 0), BuildingBlock: KIFKEQ_clean_linker_1, # of connection points: 2
#     Edge 268, Type (0, 0), BuildingBlock: KIFKEQ_clean_linker_1, # of connection points: 2
#     Edge 269, Type (0, 0), BuildingBlock: KIFKEQ_clean_linker_1, # of connection points: 2
#     Edge 270, Type (0, 0), BuildingBlock: KIFKEQ_clean_linker_1, # of connection points: 2
#     Edge 271, Type (0, 0), BuildingBlock: KIFKEQ_clean_linker_1, # of connection points: 2
#     Edge 272, Type (0, 0), BuildingBlock: KIFKEQ_clean_linker_1, # of connection points: 2
#     Edge 273, Type (0, 0), BuildingBlock: KIFKEQ_clean_linker_1, # of connection points: 2
#     Edge 274, Type (0, 0), BuildingBlock: KIFKEQ_clean_linker_1, # of connection points: 2
#     Edge 275, Type (0, 0), BuildingBlock: KIFKEQ_clean_linker_1, # of connection points: 2
#     Edge 276, Type (0, 0), BuildingBlock: KIFKEQ_clean_linker_1, # of connection points: 2
#     Edge 277, Type (0, 0), BuildingBlock: KIFKEQ_clean_linker_1, # of connection points: 2
#     Edge 278, Type (0, 0), BuildingBlock: KIFKEQ_clean_linker_1, # of connection points: 2
#     Edge 279, Type (0, 0), BuildingBlock: KIFKEQ_clean_linker_1, # of connection points: 2
#     Edge 280, Type (0, 0), BuildingBlock: KIFKEQ_clean_linker_1, # of connection points: 2
#     Edge 281, Type (0, 0), BuildingBlock: KIFKEQ_clean_linker_1, # of connection points: 2
#     Edge 282, Type (0, 0), BuildingBlock: KIFKEQ_clean_linker_1, # of connection points: 2
#     Edge 283, Type (0, 0), BuildingBlock: KIFKEQ_clean_linker_1, # of connection points: 2
#     Edge 284, Type (0, 0), BuildingBlock: KIFKEQ_clean_linker_1, # of connection points: 2
#     Edge 285, Type (0, 0), BuildingBlock: KIFKEQ_clean_linker_1, # of connection points: 2
#     Edge 286, Type (0, 0), BuildingBlock: KIFKEQ_clean_linker_1, # of connection points: 2
#     Edge 287, Type (0, 0), BuildingBlock: KIFKEQ_clean_linker_1, # of connection points: 2
# Relax obj value: 0.031
# Max RMSD: 0.137
# Mean RMSD: 0.137
data_MOF--net-gie--node1-QUQFOY_clean_sbu_1--edge1-KIFKEQ_clean_linker_1
_symmetry_space_group_name_H-M    P1
_symmetry_Int_Tables_number       1
_symmetry_cell_setting            triclinic
loop_
_symmetry_equiv_pos_as_xyz
'x, y, z'
_cell_length_a     91.180271
_cell_length_b     91.167084
_cell_length_c     91.168766
_cell_angle_alpha  89.997144
_cell_angle_beta   89.972247
_cell_angle_gamma 90.003413
loop_
_atom_site_label
_atom_site_type_symbol
_atom_site_fract_x
_atom_site_fract_y
_atom_site_fract_z
_atom_type_partial_charge
O0 O 0.03214 0.16245 0.40696 0.0
Cd1 Cd 0.01731 0.15295 0.42101 0.0
Cd2 Cd 0.00938 0.13969 0.3949 0.0
O3 O 0.0281 0.14993 0.38665 0.0
O4 O 0.02554 0.15797 0.44071 0.0
O5 O 0.02448 0.13527 0.43235 0.0
C6 C 0.02878 0.14432 0.44238 0.0
C7 C 1.00342 0.11514 0.39001 0.0
C8 C 0.03533 0.15957 0.3937 0.0
C9 C 0.98767 0.16053 0.40923 0.0
O10 O 0.99126 0.15286 0.39815 0.0
O11 O 0.99617 0.16146 0.42027 0.0
O12 O 1.00269 0.12511 0.38 0.0
O13 O 0.00839 0.11895 0.40273 0.0
O14 O 0.10401 0.78287 0.65558 0.0
Cd15 Cd 0.11228 0.76755 0.67 0.0
Cd16 Cd 0.12753 0.7598 0.64488 0.0
O17 O 0.11748 0.77822 0.63594 0.0
O18 O 0.10696 0.77563 0.68967 0.0
O19 O 0.12983 0.77414 0.68178 0.0
C20 C 0.12065 0.77853 0.69167 0.0
C21 C 0.15234 0.75425 0.64097 0.0
C22 C 0.10772 0.78576 0.64247 0.0
C23 C 0.10612 0.73769 0.65774 0.0
O24 O 0.11465 0.74145 0.64737 0.0
O25 O 0.10397 0.74625 0.66858 0.0
O26 O 0.1428 0.75339 0.63057 0.0
O27 O 0.14794 0.75911 0.65355 0.0
O28 O 0.48906 0.8466 0.90483 0.0
Cd29 Cd 0.50172 0.85832 0.91935 0.0
Cd30 Cd 0.50623 0.8745 0.89563 0.0
O31 O 0.48739 0.86389 0.88802 0.0
O32 O 0.49349 0.85423 0.93927 0.0
O33 O 0.49249 0.87607 0.92871 0.0
C34 C 0.48892 0.86764 0.93955 0.0
C35 C 0.5106 0.89967 0.89268 0.0
C36 C 0.48354 0.85142 0.89299 0.0
C37 C 0.531 0.8551 0.90658 0.0
O38 O 0.52537 0.86223 0.89597 0.0
O39 O 0.52385 0.8534 0.91845 0.0
O40 O 0.51031 0.89089 0.8816 0.0
O41 O 0.50754 0.89434 0.90545 0.0
O42 O 0.41507 0.23619 0.15578 0.0
Cd43 Cd 0.40502 0.2511 0.16945 0.0
Cd44 Cd 0.39101 0.25751 0.14343 0.0
O45 O 0.40174 0.23881 0.13575 0.0
O46 O 0.40953 0.24352 0.18952 0.0
O47 O 0.38712 0.24384 0.18031 0.0
C48 C 0.39587 0.24005 0.1908 0.0
C49 C 0.36636 0.26294 0.1383 0.0
C50 C 0.41192 0.23232 0.14277 0.0
C51 C 0.41114 0.28057 0.15683 0.0
O52 O 0.40364 0.27609 0.14596 0.0
O53 O 0.41251 0.27261 0.16822 0.0
O54 O 0.37632 0.26342 0.12827 0.0
O55 O 0.37022 0.25843 0.15118 0.0
O56 O 0.03079 0.85272 0.11104 0.0
Cd57 Cd 0.01573 0.86131 0.09659 0.0
Cd58 Cd 1.0071 0.87537 0.12244 0.0
O59 O 0.02543 0.86498 0.13128 0.0
O60 O 0.02428 0.85636 0.07702 0.0
O61 O 0.02244 0.8791 0.08521 0.0
C62 C 0.02711 0.87011 0.07528 0.0
C63 C 1.00105 0.89989 0.12745 0.0
C64 C 0.03328 0.85571 0.12442 0.0
C65 C 0.98566 0.85432 0.10784 0.0
O66 O 0.98898 0.86246 0.11866 0.0
O67 O 0.99456 0.85266 0.0972 0.0
O68 O 1.00005 0.88982 0.13733 0.0
O69 O 1.00636 0.89621 0.11483 0.0
O70 O 0.41911 0.77707 0.36169 0.0
Cd71 Cd 0.40787 0.76394 0.34709 0.0
Cd72 Cd 0.39196 0.75936 0.37097 0.0
O73 O 0.40155 0.77879 0.37823 0.0
O74 O 0.41248 0.77198 0.32723 0.0
O75 O 0.3903 0.77282 0.33706 0.0
C76 C 0.39904 0.77636 0.32645 0.0
C77 C 0.36714 0.75354 0.37482 0.0
C78 C 0.41397 0.78283 0.3733 0.0
C79 C 0.41231 0.73519 0.3602 0.0
O80 O 0.40537 0.741 0.37083 0.0
O81 O 0.41319 0.74189 0.348 0.0
O82 O 0.37642 0.75398 0.38547 0.0
O83 O 0.37175 0.75732 0.36196 0.0
O84 O 0.48422 0.16431 0.60878 0.0
Cd85 Cd 0.49908 0.15443 0.59494 0.0
Cd86 Cd 0.5056 0.14009 0.62085 0.0
O87 O 0.48688 0.15071 0.62864 0.0
O88 O 0.49145 0.1591 0.5749 0.0
O89 O 0.49179 0.13661 0.58395 0.0
C90 C 0.48798 0.14545 0.57353 0.0
C91 C 0.51119 0.11547 0.62601 0.0
C92 C 0.48038 0.16099 0.62178 0.0
C93 C 0.52856 0.16048 0.60761 0.0
O94 O 0.52411 0.15281 0.61838 0.0
O95 O 0.52059 0.16198 0.59624 0.0
O96 O 0.51159 0.12544 0.63603 0.0
O97 O 0.50665 0.11928 0.61314 0.0
O98 O 0.10501 0.23242 0.8629 0.0
Cd99 Cd 0.11391 0.24769 0.8488 0.0
Cd100 Cd 0.12823 0.25501 0.87482 0.0
O101 O 0.11774 0.23653 0.88314 0.0
O102 O 0.10831 0.23993 0.82908 0.0
O103 O 0.13124 0.24074 0.83683 0.0
C104 C 0.12191 0.2367 0.82695 0.0
C105 C 0.15285 0.26084 0.87947 0.0
C106 C 0.10812 0.22926 0.87611 0.0
C107 C 0.10753 0.27739 0.86129 0.0
O108 O 0.11542 0.27333 0.87204 0.0
O109 O 0.10593 0.26909 0.85016 0.0
O110 O 0.14303 0.26143 0.88963 0.0
O111 O 0.14889 0.25596 0.86676 0.0
O112 O 0.39343 0.99208 0.15465 0.0
Cd113 Cd 0.39235 0.01001 0.14095 0.0
Cd114 Cd 0.41811 0.01547 0.15468 0.0
O115 O 0.41639 0.99389 0.162 0.0
O116 O 0.37778 1.00414 0.12568 0.0
O117 O 0.4012 0.00789 0.12072 0.0
C118 C 0.38837 1.00379 0.1163 0.0
C119 C 0.43965 0.02627 0.14572 0.0
C120 C 0.40431 0.98689 0.16167 0.0
C121 C 0.39217 0.03539 0.16114 0.0
O122 O 0.40477 0.03067 0.16483 0.0
O123 O 0.38527 0.02942 0.15057 0.0
O124 O 0.4383 0.02263 0.15932 0.0
O125 O 0.42915 0.02272 0.13688 0.0
O126 O 0.23573 0.15294 0.41632 0.0
Cd127 Cd 0.24807 0.16894 0.4063 0.0
Cd128 Cd 0.25622 0.1452 0.38999 0.0
O129 O 0.23799 0.13535 0.39984 0.0
O130 O 0.2381 0.18746 0.41248 0.0
O131 O 0.23964 0.18048 0.38932 0.0
C132 C 0.2347 0.18966 0.39893 0.0
C133 C 0.26202 0.14141 0.36514 0.0
C134 C 0.2323 0.14031 0.41159 0.0
C135 C 0.27834 0.15879 0.41125 0.0
O136 O 0.27463 0.14808 0.40309 0.0
O137 O 0.26963 0.16952 0.4132 0.0
O138 O 0.26319 0.13109 0.37473 0.0
O139 O 0.25678 0.15384 0.3695 0.0
O140 O 0.11415 0.02572 0.65374 0.0
Cd141 Cd 0.11598 1.0069 0.64106 0.0
Cd142 Cd 0.09215 1.00067 0.65774 0.0
O143 O 0.09233 0.02254 0.66371 0.0
O144 O 0.13097 0.01278 0.62616 0.0
O145 O 0.10803 0.0079 0.62029 0.0
C146 C 0.12089 0.0123 0.61628 0.0
C147 C 0.07178 0.98776 0.64888 0.0
C148 C 0.10362 0.03046 0.66159 0.0
C149 C 0.11954 0.98338 0.66346 0.0
O150 O 0.10737 0.98797 0.66848 0.0
O151 O 0.12445 0.98821 0.6513 0.0
O152 O 0.07263 0.99183 0.66242 0.0
O153 O 0.08216 0.99182 0.6401 0.0
O154 O 0.27676 0.86212 0.91843 0.0
Cd155 Cd 0.26391 0.84683 0.90798 0.0
Cd156 Cd 0.25768 0.87054 0.89121 0.0
O157 O 0.27669 0.87887 0.90094 0.0
O158 O 0.27266 0.82743 0.91313 0.0
O159 O 0.27263 0.83635 0.89056 0.0
C160 C 0.27668 0.8262 0.89961 0.0
C161 C 0.25171 0.87528 0.86656 0.0
C162 C 0.28153 0.8741 0.91315 0.0
C163 C 0.23432 0.85847 0.91212 0.0
O164 O 0.23911 0.86899 0.90428 0.0
O165 O 0.24212 0.84708 0.91408 0.0
O166 O 0.25159 0.88547 0.87635 0.0
O167 O 0.25612 0.86242 0.87055 0.0
O168 O 0.39483 0.02679 0.3621 0.0
Cd169 Cd 0.39275 0.00823 0.37482 0.0
Cd170 Cd 0.41844 1.00201 0.36054 0.0
O171 O 0.41706 0.02353 0.35307 0.0
O172 O 0.37817 0.01403 0.39013 0.0
O173 O 0.40135 0.00919 0.39524 0.0
C174 C 0.38863 0.01364 0.39965 0.0
C175 C 0.43978 0.99091 0.36955 0.0
C176 C 0.4056 0.03137 0.35451 0.0
C177 C 0.39185 0.98304 0.35401 0.0
O178 O 0.40476 0.98705 0.35063 0.0
O179 O 0.38495 0.98945 0.36433 0.0
O180 O 0.43848 0.99443 0.35591 0.0
O181 O 0.42937 0.99474 0.37837 0.0
O182 O 0.28395 0.15594 0.60287 0.0
Cd183 Cd 0.26806 0.16971 0.61115 0.0
Cd184 Cd 0.26101 0.14449 0.62619 0.0
O185 O 0.27994 0.13628 0.61647 0.0
O186 O 0.27546 0.1897 0.60602 0.0
O187 O 0.27413 0.18159 0.62883 0.0
C188 C 0.27824 0.19169 0.61975 0.0
C189 C 0.25556 0.14147 0.6511 0.0
C190 C 0.2873 0.14297 0.60669 0.0
C191 C 0.23877 0.15623 0.60448 0.0
O192 O 0.24278 0.14591 0.61297 0.0
O193 O 0.24691 0.16745 0.60265 0.0
O194 O 0.25562 0.1305 0.64218 0.0
O195 O 0.25933 0.15417 0.64606 0.0
O196 O 0.11411 0.99036 0.86141 0.0
Cd197 Cd 0.11752 0.00866 0.87454 0.0
Cd198 Cd 0.09356 0.01724 0.85852 0.0
O199 O 0.09269 0.99575 0.85145 0.0
O200 O 0.13203 1.00145 0.8893 0.0
O201 O 0.10958 0.00818 0.89534 0.0
C202 C 0.12209 1.0028 0.89926 0.0
C203 C 0.07303 0.03088 0.86599 0.0
C204 C 0.10331 0.98687 0.85328 0.0
C205 C 0.12238 0.0326 0.85292 0.0
O206 O 0.1096 0.02943 0.84841 0.0
O207 O 0.12745 0.02675 0.86454 0.0
O208 O 0.07513 0.02744 0.85244 0.0
O209 O 0.08218 0.02583 0.87556 0.0
O210 O 0.23764 0.86384 0.09782 0.0
Cd211 Cd 0.25004 0.84775 0.1076 0.0
Cd212 Cd 0.25898 0.87161 0.12358 0.0
O213 O 0.2406 0.88153 0.11409 0.0
O214 O 0.23985 0.82939 0.10136 0.0
O215 O 0.24166 0.83612 0.12457 0.0
C216 C 0.23656 0.82708 0.11492 0.0
C217 C 0.2653 0.87582 0.14825 0.0
C218 C 0.23449 0.87654 0.10257 0.0
C219 C 0.28038 0.85738 0.10194 0.0
O220 O 0.27705 0.86823 0.11009 0.0
O221 O 0.27142 0.84681 0.10027 0.0
O222 O 0.26649 0.8859 0.13841 0.0
O223 O 0.2598 0.86339 0.14425 0.0
O224 O 0.16228 0.40523 0.03052 0.0
Cd225 Cd 0.15347 0.41964 0.01562 0.0
Cd226 Cd 0.13999 0.39396 1.00688 0.0
O227 O 0.14958 0.38519 0.02573 0.0
O228 O 0.15873 0.43912 0.02423 0.0
O229 O 0.13588 0.43128 0.02253 0.0
C230 C 0.14504 0.44105 0.02718 0.0
C231 C 0.11531 0.39018 1.00058 0.0
C232 C 0.15909 0.39197 0.03339 0.0
C233 C 0.16169 0.40814 0.98596 0.0
O234 O 0.15369 0.39715 0.98911 0.0
O235 O 0.16255 0.41901 0.9947 0.0
O236 O 0.12487 0.37978 0.99977 0.0
O237 O 0.11961 0.40267 1.00574 0.0
O238 O 0.66793 0.10887 0.98974 0.0
Cd239 Cd 0.65689 0.09353 1.00204 0.0
Cd240 Cd 0.64148 0.11775 0.0097 0.0
O241 O 0.65175 0.12682 0.99131 0.0
O242 O 0.66177 0.0743 0.99266 0.0
O243 O 0.63935 0.08353 0.9929 0.0
C244 C 0.64826 0.07337 0.98858 0.0
C245 C 0.6167 0.12234 0.01516 0.0
C246 C 0.66351 0.12152 0.98594 0.0
C247 C 0.66191 0.10382 0.03224 0.0
O248 O 0.6544 0.11488 0.02823 0.0
O249 O 0.66326 0.0928 0.02377 0.0
O250 O 0.62655 0.13242 0.01623 0.0
O251 O 0.62076 0.10969 0.01022 0.0
O252 O 0.14822 0.40314 0.2755 0.0
Cd253 Cd 0.14555 0.39 0.2571 0.0
Cd254 Cd 0.16979 0.40534 0.24943 0.0
O255 O 0.17031 0.412 0.27109 0.0
O256 O 0.13093 0.37506 0.26372 0.0
O257 O 0.15375 0.36936 0.25801 0.0
C258 C 0.1411 0.36528 0.26293 0.0
C259 C 0.19002 0.39642 0.23626 0.0
C260 C 0.15924 0.41072 0.27949 0.0
C261 C 0.14191 0.41176 0.23308 0.0
O262 O 0.15453 0.41623 0.23691 0.0
O263 O 0.13659 0.40005 0.23853 0.0
O264 O 0.18912 0.41 0.24015 0.0
O265 O 0.17977 0.38763 0.2406 0.0
O266 O 0.8531 0.90504 0.48495 0.0
Cd267 Cd 0.86202 0.91936 0.4999 0.0
Cd268 Cd 0.87523 0.89324 0.50859 0.0
O269 O 0.8655 0.88479 0.48966 0.0
O270 O 0.85656 0.93888 0.4915 0.0
O271 O 0.87947 0.93122 0.49294 0.0
C272 C 0.8702 0.94098 0.4885 0.0
C273 C 0.89967 0.88859 0.51521 0.0
C274 C 0.85608 0.89174 0.48203 0.0
C275 C 0.85379 0.90781 0.52954 0.0
O276 O 0.86158 0.8967 0.52632 0.0
O277 O 0.85305 0.91872 0.52085 0.0
O278 O 0.88977 0.8785 0.5158 0.0
O279 O 0.89588 0.90123 0.51002 0.0
O280 O 0.87152 0.11335 0.2731 0.0
Cd281 Cd 0.87236 0.1274 0.25544 0.0
Cd282 Cd 0.84651 0.11373 0.2502 0.0
O283 O 0.84848 0.10616 0.27169 0.0
O284 O 0.88717 0.14245 0.26134 0.0
O285 O 0.86374 0.14767 0.25813 0.0
C286 C 0.87668 0.1519 0.26208 0.0
C287 C 0.82504 0.12289 0.23943 0.0
C288 C 0.86072 0.10629 0.27842 0.0
C289 C 0.87217 0.10747 0.22989 0.0
O290 O 0.85969 0.10366 0.23483 0.0
O291 O 0.87911 0.11806 0.23576 0.0
O292 O 0.82626 0.10928 0.24308 0.0
O293 O 0.8356 0.13164 0.24304 0.0
O294 O 0.34766 0.60919 0.52724 0.0
Cd295 Cd 0.35903 0.5946 0.51424 0.0
Cd296 Cd 0.37503 0.61844 0.50999 0.0
O297 O 0.36525 0.62564 0.52935 0.0
O298 O 0.3544 0.57473 0.52225 0.0
O299 O 0.37654 0.58461 0.52329 0.0
C300 C 0.3678 0.57399 0.52677 0.0
C301 C 0.39986 0.62246 0.50434 0.0
C302 C 0.35274 0.62076 0.53314 0.0
C303 C 0.35484 0.60791 0.48558 0.0
O304 O 0.36176 0.61845 0.49156 0.0
O305 O 0.3539 0.59562 0.49214 0.0
O306 O 0.39052 0.63306 0.50481 0.0
O307 O 0.39531 0.60954 0.50801 0.0
O308 O 0.14661 0.61344 0.23905 0.0
Cd309 Cd 0.14399 0.62674 0.25712 0.0
Cd310 Cd 0.16921 0.61169 0.26531 0.0
O311 O 0.16771 0.60277 0.2443 0.0
O312 O 0.12981 0.64201 0.25039 0.0
O313 O 0.15276 0.64712 0.25621 0.0
C314 C 0.14024 0.65152 0.25124 0.0
C315 C 0.19111 0.61969 0.27611 0.0
C316 C 0.15695 0.60474 0.23562 0.0
C317 C 0.14162 0.60757 0.2836 0.0
O318 O 0.15479 0.60393 0.28086 0.0
O319 O 0.13503 0.61703 0.27574 0.0
O320 O 0.18873 0.60601 0.27345 0.0
O321 O 0.18148 0.62906 0.27156 0.0
O322 O 0.37027 0.40296 0.74326 0.0
Cd323 Cd 0.37022 0.38937 0.76146 0.0
Cd324 Cd 0.34628 0.4052 0.76592 0.0
O325 O 0.3474 0.41068 0.74387 0.0
O326 O 0.38477 0.37385 0.75609 0.0
O327 O 0.36121 0.36918 0.75912 0.0
C328 C 0.37411 0.36459 0.75544 0.0
C329 C 0.32571 0.39612 0.77835 0.0
C330 C 0.35972 0.40993 0.73735 0.0
C331 C 0.37241 0.41132 0.78495 0.0
O332 O 0.36082 0.41642 0.77912 0.0
O333 O 0.37736 0.39889 0.78098 0.0
O334 O 0.32636 0.40958 0.77398 0.0
O335 O 0.33639 0.3875 0.77474 0.0
O336 O 0.98784 0.84727 0.61275 0.0
Cd337 Cd 1.00054 0.8591 0.59825 0.0
Cd338 Cd 1.00472 0.87463 0.62251 0.0
O339 O 0.98563 0.86435 0.62973 0.0
O340 O 0.99253 0.85447 0.57837 0.0
O341 O 0.99111 0.87652 0.58839 0.0
C342 C 0.98775 0.86778 0.57773 0.0
C343 C 0.01016 0.89945 0.62687 0.0
C344 C 0.98202 0.8519 0.62454 0.0
C345 C 0.02932 0.85502 0.61136 0.0
O346 O 0.0233 0.86162 0.62208 0.0
O347 O 0.02273 0.85427 0.59908 0.0
O348 O 0.00983 0.88995 0.63734 0.0
O349 O 1.00643 0.89506 0.61392 0.0
O350 O 0.91879 0.23781 0.36155 0.0
Cd351 Cd 0.90734 0.25087 0.34704 0.0
Cd352 Cd 0.89152 0.25516 0.37106 0.0
O353 O 0.90141 0.23587 0.37827 0.0
O354 O 0.91182 0.24297 0.32707 0.0
O355 O 0.88976 0.24186 0.33711 0.0
C356 C 0.89841 0.23847 0.32639 0.0
C357 C 0.8667 0.26077 0.37515 0.0
C358 C 0.91385 0.23201 0.37323 0.0
C359 C 0.91158 0.27959 0.36035 0.0
O360 O 0.90474 0.27362 0.37096 0.0
O361 O 0.91245 0.273 0.34808 0.0
O362 O 0.87606 0.26033 0.38573 0.0
O363 O 0.87123 0.25709 0.36223 0.0
O364 O 0.5319 0.16122 0.1103 0.0
Cd365 Cd 0.51641 0.15288 0.09616 0.0
Cd366 Cd 0.50854 0.13846 0.12172 0.0
O367 O 0.52725 0.14832 0.13032 0.0
O368 O 0.52458 0.15782 0.07642 0.0
O369 O 0.52279 0.13508 0.0846 0.0
C370 C 0.52735 0.14407 0.07462 0.0
C371 C 0.50247 0.11377 0.1258 0.0
C372 C 0.53487 0.15781 0.12348 0.0
C373 C 0.48686 0.16012 0.10853 0.0
O374 O 0.49052 0.15179 0.11909 0.0
O375 O 0.49533 0.16171 0.09752 0.0
O376 O 0.50184 0.12338 0.13615 0.0
O377 O 0.50739 0.11799 0.11318 0.0
O378 O 0.60376 0.7809 0.85823 0.0
Cd379 Cd 0.61368 0.76572 0.84482 0.0
Cd380 Cd 0.62792 0.76007 0.87067 0.0
O381 O 0.61789 0.77935 0.87781 0.0
O382 O 0.60901 0.773 0.82467 0.0
O383 O 0.63148 0.77291 0.83375 0.0
C384 C 0.62262 0.7766 0.82331 0.0
C385 C 0.65249 0.75403 0.8754 0.0
C386 C 0.6074 0.78545 0.8709 0.0
C387 C 0.60722 0.73688 0.85848 0.0
O388 O 0.61469 0.74179 0.86917 0.0
O389 O 0.60613 0.74426 0.84667 0.0
O390 O 0.64279 0.7543 0.8857 0.0
O391 O 0.64846 0.75818 0.86246 0.0
O392 O 0.98343 0.16611 0.90656 0.0
Cd393 Cd 0.99856 0.15497 0.91915 0.0
Cd394 Cd 1.0027 0.14169 0.89333 0.0
O395 O 0.98308 0.15157 0.88725 0.0
O396 O 0.99194 0.15878 0.93972 0.0
O397 O 0.99093 0.13687 0.92938 0.0
C398 C 0.98781 0.14526 0.94039 0.0
C399 C 0.0085 0.1169 0.89006 0.0
C400 C 0.97793 0.16249 0.89427 0.0
C401 C 0.0267 0.1616 0.90434 0.0
O402 O 0.02075 0.15525 0.89344 0.0
O403 O 0.02038 0.16148 0.91681 0.0
O404 O 1.00723 0.12568 0.87903 0.0
O405 O 1.00556 0.12198 0.90297 0.0
O406 O 0.60094 0.23466 0.6559 0.0
Cd407 Cd 0.61071 0.24942 0.66988 0.0
Cd408 Cd 0.62527 0.25589 0.64409 0.0
O409 O 0.61481 0.23714 0.6362 0.0
O410 O 0.60556 0.24167 0.68973 0.0
O411 O 0.62823 0.24191 0.68118 0.0
C412 C 0.61913 0.23804 0.69134 0.0
C413 C 0.64991 0.26162 0.63926 0.0
C414 C 0.60442 0.23072 0.64298 0.0
C415 C 0.60483 0.27888 0.65719 0.0
O416 O 0.61248 0.27437 0.64644 0.0
O417 O 0.6033 0.27096 0.66859 0.0
O418 O 0.64008 0.26196 0.6291 0.0
O419 O 0.64595 0.25704 0.65208 0.0
O420 O 0.53049 0.85577 0.40673 0.0
Cd421 Cd 0.51525 0.86493 0.42056 0.0
Cd422 Cd 0.50738 0.87806 0.39456 0.0
O423 O 0.52642 0.8683 0.38644 0.0
O424 O 0.52325 0.85991 0.44034 0.0
O425 O 0.52199 0.88265 0.4321 0.0
C426 C 0.52628 0.8736 0.44213 0.0
C427 C 0.50132 0.90269 0.3903 0.0
C428 C 0.53379 0.8588 0.39354 0.0
C429 C 0.48593 0.85672 0.40843 0.0
O430 O 0.48946 0.86449 0.39739 0.0
O431 O 0.49433 0.856 0.41956 0.0
O432 O 0.50074 0.893 0.38 0.0
O433 O 0.50612 0.89853 0.40298 0.0
O434 O 0.91196 0.78131 0.15472 0.0
Cd435 Cd 0.9026 0.76661 0.16903 0.0
Cd436 Cd 0.88963 0.75795 0.14276 0.0
O437 O 0.89996 0.77651 0.13425 0.0
O438 O 0.90783 0.77511 0.18857 0.0
O439 O 0.88503 0.77388 0.18053 0.0
C440 C 0.89418 0.77829 0.19041 0.0
C441 C 0.8652 0.7518 0.13758 0.0
C442 C 0.90932 0.78408 0.14132 0.0
C443 C 0.91031 0.73667 0.15789 0.0
O444 O 0.90274 0.73995 0.14665 0.0
O445 O 0.91117 0.74548 0.1687 0.0
O446 O 0.87534 0.7509 0.12775 0.0
O447 O 0.86876 0.75705 0.15025 0.0
O448 O 0.60907 0.98372 0.85196 0.0
Cd449 Cd 0.59443 0.9984 0.86087 0.0
Cd450 Cd 0.62041 1.00632 0.87528 0.0
O451 O 0.62908 0.98783 0.86493 0.0
O452 O 0.57533 0.98951 0.85491 0.0
O453 O 0.58215 0.99147 0.87806 0.0
C454 C 0.57286 0.98662 0.86852 0.0
C455 C 0.62564 0.01239 0.89977 0.0
C456 C 0.62228 0.98061 0.8551 0.0
C457 C 0.60604 0.02826 0.85432 0.0
O458 O 0.61683 0.02454 0.86234 0.0
O459 O 0.59516 0.01967 0.85262 0.0
O460 O 0.63546 0.01325 0.88963 0.0
O461 O 0.61295 1.00721 0.89619 0.0
O462 O 0.77622 0.86057 0.59719 0.0
Cd463 Cd 0.76364 0.84531 0.60803 0.0
Cd464 Cd 0.75802 0.86896 0.625 0.0
O465 O 0.77667 0.87736 0.61461 0.0
O466 O 0.77221 0.82587 0.60268 0.0
O467 O 0.77279 0.83482 0.62522 0.0
C468 C 0.77658 0.82465 0.61609 0.0
C469 C 0.75299 0.87333 0.64994 0.0
C470 C 0.78111 0.87258 0.60226 0.0
C471 C 0.73399 0.85712 0.60479 0.0
O472 O 0.73904 0.86757 0.61254 0.0
O473 O 0.74168 0.84569 0.60256 0.0
O474 O 0.75251 0.88366 0.64031 0.0
O475 O 0.75722 0.86052 0.64558 0.0
O476 O 0.90408 0.03245 0.35231 0.0
Cd477 Cd 0.91867 0.01719 0.36036 0.0
Cd478 Cd 0.89337 0.00879 0.3754 0.0
O479 O 0.88425 0.02712 0.36527 0.0
O480 O 0.93822 0.02548 0.35491 0.0
O481 O 0.93065 0.02361 0.37786 0.0
C482 C 0.94041 0.02815 0.36862 0.0
C483 C 0.88921 1.00296 0.40015 0.0
C484 C 0.89082 0.03498 0.35577 0.0
C485 C 0.90693 0.98718 0.35384 0.0
O486 O 0.8965 0.99057 0.36245 0.0
O487 O 0.91752 0.99604 0.35171 0.0
O488 O 0.87899 1.00194 0.39045 0.0
O489 O 0.90173 0.00816 0.39597 0.0
O490 O 0.73777 0.15288 0.09896 0.0
Cd491 Cd 0.75046 0.16894 0.10841 0.0
Cd492 Cd 0.7573 0.14591 0.12611 0.0
O493 O 0.73846 0.13663 0.11689 0.0
O494 O 0.74083 0.18754 0.10201 0.0
O495 O 0.74214 0.18071 0.12525 0.0
C496 C 0.73732 0.18985 0.11553 0.0
C497 C 0.7634 0.14237 0.15097 0.0
C498 C 0.73338 0.14093 0.10462 0.0
C499 C 0.78015 0.15749 0.1042 0.0
O500 O 0.77568 0.14735 0.11271 0.0
O501 O 0.77214 0.16866 0.10178 0.0
O502 O 0.76383 0.1318 0.1416 0.0
O503 O 0.7587 0.15494 0.14642 0.0
O504 O 0.60846 0.02744 0.66879 0.0
Cd505 Cd 0.59342 0.01469 0.65785 0.0
Cd506 Cd 0.61707 0.00938 0.64105 0.0
O507 O 0.62531 0.02809 0.65141 0.0
O508 O 0.57376 0.02324 0.6625 0.0
O509 O 0.58344 0.02359 0.64024 0.0
C510 C 0.57297 0.02746 0.649 0.0
C511 C 0.62147 1.00434 0.61612 0.0
C512 C 0.62045 0.03245 0.66376 0.0
C513 C 0.60563 0.98523 0.66135 0.0
O514 O 0.616 0.99044 0.65359 0.0
O515 O 0.59404 0.99271 0.66347 0.0
O516 O 0.63182 1.00401 0.62573 0.0
O517 O 0.60862 0.00843 0.62049 0.0
O518 O 0.73759 0.85997 0.41995 0.0
Cd519 Cd 0.75 0.84457 0.40908 0.0
Cd520 Cd 0.75652 0.86838 0.39247 0.0
O521 O 0.73804 0.87715 0.40289 0.0
O522 O 0.74086 0.82518 0.41375 0.0
O523 O 0.74095 0.83473 0.39145 0.0
C524 C 0.73675 0.82441 0.40023 0.0
C525 C 0.76193 0.87314 0.36766 0.0
C526 C 0.7332 0.87224 0.41505 0.0
C527 C 0.77999 0.85555 0.4128 0.0
O528 O 0.77537 0.86619 0.40503 0.0
O529 O 0.77191 0.84438 0.41493 0.0
O530 O 0.76262 0.88324 0.37751 0.0
O531 O 0.75727 0.86038 0.3717 0.0
O532 O 0.90315 0.98847 0.16839 0.0
Cd533 Cd 0.91831 1.00092 0.1572 0.0
Cd534 Cd 0.8946 1.00636 0.14053 0.0
O535 O 0.88616 0.98788 0.15116 0.0
O536 O 0.93786 0.99236 0.16218 0.0
O537 O 0.92841 0.99165 0.13985 0.0
C538 C 0.93879 0.98793 0.14877 0.0
C539 C 0.89055 0.01115 0.11551 0.0
C540 C 0.89105 0.98357 0.16352 0.0
C541 C 0.90654 0.03064 0.16028 0.0
O542 O 0.89597 0.02546 0.15278 0.0
O543 O 0.91802 0.02299 0.16238 0.0
O544 O 0.88009 0.01172 0.125 0.0
O545 O 0.90329 1.00692 0.12006 0.0
O546 O 0.78161 0.15446 0.91354 0.0
Cd547 Cd 0.7664 0.16919 0.90578 0.0
Cd548 Cd 0.75714 0.14327 0.89217 0.0
O549 O 0.77584 0.13416 0.9017 0.0
O550 O 0.77544 0.18804 0.91232 0.0
O551 O 0.77242 0.1825 0.88896 0.0
C552 C 0.7776 0.19133 0.89876 0.0
C553 C 0.75067 0.13911 0.8676 0.0
C554 C 0.78404 0.14104 0.91067 0.0
C555 C 0.73673 0.15774 0.91427 0.0
O556 O 0.73949 0.14694 0.90589 0.0
O557 O 0.74578 0.16832 0.91546 0.0
O558 O 0.74966 0.12894 0.87738 0.0
O559 O 0.75609 0.15158 0.87161 0.0
O560 O 0.85512 0.61126 0.98268 0.0
Cd561 Cd 0.86245 0.59638 0.99799 0.0
Cd562 Cd 0.87543 0.62212 0.00865 0.0
O563 O 0.86591 0.63164 0.9902 0.0
O564 O 0.85694 0.57721 0.98889 0.0
O565 O 0.87995 0.58406 0.99199 0.0
C566 C 0.87068 0.57469 0.98679 0.0
C567 C 0.89982 0.62649 0.01555 0.0
C568 C 0.8577 0.62486 0.98117 0.0
C569 C 0.85312 0.60686 0.02798 0.0
O570 O 0.86159 0.61774 0.02595 0.0
O571 O 0.85214 0.59673 0.01841 0.0
O572 O 0.88988 0.63648 0.0167 0.0
O573 O 0.89609 0.61411 0.00974 0.0
O574 O 0.34983 0.90546 0.02716 0.0
Cd575 Cd 0.36049 0.92086 0.01463 0.0
Cd576 Cd 0.37579 0.8964 1.00657 0.0
O577 O 0.36602 0.88753 0.02534 0.0
O578 O 0.3552 0.94004 0.02388 0.0
O579 O 0.37783 0.93137 0.0236 0.0
C580 C 0.3687 0.94135 0.02788 0.0
C581 C 0.40029 0.89134 1.00023 0.0
C582 C 0.35438 0.89285 0.03094 0.0
C583 C 0.35475 0.9104 0.98461 0.0
O584 O 0.36232 0.89932 0.98844 0.0
O585 O 0.35366 0.92146 0.99305 0.0
O586 O 0.39024 0.88143 0.99962 0.0
O587 O 0.39662 0.90409 1.00522 0.0
O588 O 0.85846 0.59706 0.77759 0.0
Cd589 Cd 0.8432 0.60783 0.76495 0.0
Cd590 Cd 0.86686 0.62459 0.75907 0.0
O591 O 0.87527 0.61448 0.77782 0.0
O592 O 0.82367 0.60333 0.77385 0.0
O593 O 0.83341 0.62555 0.77385 0.0
C594 C 0.82298 0.61686 0.77797 0.0
C595 C 0.87166 0.64927 0.75328 0.0
C596 C 0.8705 0.60217 0.7824 0.0
C597 C 0.85495 0.60405 0.73534 0.0
O598 O 0.86542 0.61181 0.74034 0.0
O599 O 0.84348 0.60199 0.74301 0.0
O600 O 0.88182 0.63946 0.75313 0.0
O601 O 0.8588 0.64529 0.75771 0.0
O602 O 0.16538 0.10705 0.53094 0.0
Cd603 Cd 0.15523 0.09322 0.5163 0.0
Cd604 Cd 0.14248 0.11925 0.50837 0.0
O605 O 0.15315 0.12753 0.52687 0.0
O606 O 0.15914 0.07332 0.52467 0.0
O607 O 0.13695 0.08295 0.52356 0.0
C608 C 0.14541 0.07243 0.52789 0.0
C609 C 0.11775 0.12383 0.50296 0.0
C610 C 0.16279 0.12039 0.53403 0.0
C611 C 0.16264 0.10447 0.4864 0.0
O612 O 0.15526 0.11574 0.49001 0.0
O613 O 0.16346 0.0935 0.49502 0.0
O614 O 0.12758 0.13395 0.50191 0.0
O615 O 0.12182 0.1112 0.50795 0.0
O616 O 0.15381 0.91788 0.77908 0.0
Cd617 Cd 0.16896 0.90719 0.76625 0.0
Cd618 Cd 0.14486 0.89164 0.75892 0.0
O619 O 0.13598 0.90158 0.77758 0.0
O620 O 0.18841 0.91184 0.77524 0.0
O621 O 0.17911 0.88945 0.77479 0.0
C622 C 0.1894 0.89824 0.77902 0.0
C623 C 0.14068 0.86685 0.75319 0.0
C624 C 0.14127 0.9133 0.78304 0.0
C625 C 0.15801 0.91253 0.73636 0.0
O626 O 0.14715 0.90478 0.74047 0.0
O627 O 0.16915 0.91396 0.74463 0.0
O628 O 0.13038 0.87651 0.75247 0.0
O629 O 0.15332 0.8711 0.75799 0.0
O630 O 0.66387 0.405 0.48321 0.0
Cd631 Cd 0.65437 0.41929 0.49784 0.0
Cd632 Cd 0.64105 0.39337 0.50629 0.0
O633 O 0.65157 0.38467 0.4879 0.0
O634 O 0.65929 0.43892 0.48936 0.0
O635 O 0.63663 0.43048 0.49056 0.0
C636 C 0.64561 0.44052 0.48616 0.0
C637 C 0.61633 0.38894 0.51197 0.0
C638 C 0.66113 0.39161 0.48044 0.0
C639 C 0.66175 0.40807 0.52782 0.0
O640 O 0.654 0.39697 0.52449 0.0
O641 O 0.66284 0.41887 0.51902 0.0
O642 O 0.62614 0.37881 0.51308 0.0
O643 O 0.62041 0.4015 0.50679 0.0
O644 O 0.85794 0.41457 0.73394 0.0
Cd645 Cd 0.84381 0.40507 0.74876 0.0
Cd646 Cd 0.86966 0.39182 0.75702 0.0
O647 O 0.87821 0.40214 0.73844 0.0
O648 O 0.82403 0.40972 0.74051 0.0
O649 O 0.83273 0.38715 0.74179 0.0
C650 C 0.82251 0.39599 0.7375 0.0
C651 C 0.87392 0.36709 0.76275 0.0
C652 C 0.87127 0.41172 0.73102 0.0
C653 C 0.85518 0.41257 0.77863 0.0
O654 O 0.86629 0.40486 0.77521 0.0
O655 O 0.84432 0.41357 0.76991 0.0
O656 O 0.88415 0.37681 0.76372 0.0
O657 O 0.86136 0.37125 0.75767 0.0
O658 O 0.65361 0.60621 0.23285 0.0
Cd659 Cd 0.6688 0.6132 0.24801 0.0
Cd660 Cd 0.64299 0.62627 0.25925 0.0
O661 O 0.63333 0.6169 0.2408 0.0
O662 O 0.68771 0.60732 0.23856 0.0
O663 O 0.6814 0.63045 0.24186 0.0
C664 C 0.69049 0.62101 0.23645 0.0
C665 C 0.63794 0.65044 0.26656 0.0
C666 C 0.63999 0.60883 0.23157 0.0
C667 C 0.65856 0.60364 0.27806 0.0
O668 O 0.64772 0.61223 0.27629 0.0
O669 O 0.66856 0.60269 0.26833 0.0
O670 O 0.6283 0.64016 0.26769 0.0
O671 O 0.65038 0.64717 0.2606 0.0
O672 O 0.53054 0.665 0.90558 0.0
Cd673 Cd 0.51543 0.65438 0.91867 0.0
Cd674 Cd 0.51016 0.6411 0.89279 0.0
O675 O 0.5295 0.651 0.88588 0.0
O676 O 0.52258 0.65832 0.93902 0.0
O677 O 0.52273 0.63623 0.92904 0.0
C678 C 0.52625 0.64469 0.93987 0.0
C679 C 0.5041 0.61646 0.88857 0.0
C680 C 0.53533 0.66155 0.89293 0.0
C681 C 0.48682 0.66136 0.90505 0.0
O682 O 0.49211 0.65462 0.89404 0.0
O683 O 0.49379 0.66153 0.91715 0.0
O684 O 0.50443 0.62593 0.87806 0.0
O685 O 0.50817 0.62079 0.90145 0.0
O686 O 0.60184 0.2797 0.15449 0.0
Cd687 Cd 0.61247 0.26427 0.16714 0.0
Cd688 Cd 0.62596 0.25991 0.14141 0.0
O689 O 0.61651 0.27972 0.13527 0.0
O690 O 0.60816 0.27079 0.18763 0.0
O691 O 0.63036 0.27157 0.17793 0.0
C692 C 0.6217 0.27474 0.18871 0.0
C693 C 0.65074 0.25393 0.13843 0.0
C694 C 0.60569 0.28513 0.14224 0.0
C695 C 0.60548 0.23627 0.15224 0.0
O696 O 0.61212 0.24204 0.1414 0.0
O697 O 0.60554 0.24263 0.16468 0.0
O698 O 0.6421 0.25523 0.1273 0.0
O699 O 0.64552 0.25688 0.15128 0.0
O700 O 0.98296 0.35525 0.40458 0.0
Cd701 Cd 0.9984 0.36321 0.41903 0.0
Cd702 Cd 1.00656 0.37815 0.39345 0.0
O703 O 0.98792 0.36829 0.38472 0.0
O704 O 0.99034 0.35755 0.43864 0.0
O705 O 0.99201 0.38057 0.43126 0.0
C706 C 0.98761 0.37123 0.44098 0.0
C707 C 0.01294 0.40269 0.3889 0.0
C708 C 0.98018 0.35879 0.39139 0.0
C709 C 0.02809 0.3563 0.40665 0.0
O710 O 0.02452 0.36482 0.39621 0.0
O711 O 0.01952 0.35446 0.41753 0.0
O712 O 0.01346 0.39287 0.37875 0.0
O713 O 0.00791 0.39878 0.40157 0.0
O714 O 0.91058 0.73092 0.65182 0.0
Cd715 Cd 0.90246 0.74588 0.66671 0.0
Cd716 Cd 0.88953 0.75633 0.64083 0.0
O717 O 0.89998 0.73838 0.63131 0.0
O718 O 0.90773 0.73694 0.68604 0.0
O719 O 0.88483 0.73951 0.67865 0.0
C720 C 0.89398 0.73463 0.68831 0.0
C721 C 0.86506 0.76262 0.63597 0.0
C722 C 0.90837 0.72955 0.63813 0.0
C723 C 0.91082 0.77629 0.65664 0.0
O724 O 0.9026 0.77407 0.64562 0.0
O725 O 0.91204 0.76664 0.66667 0.0
O726 O 0.8752 0.7641 0.62621 0.0
O727 O 0.86866 0.75675 0.64836 0.0
O728 O 0.53079 0.35089 0.6084 0.0
Cd729 Cd 0.516 0.36062 0.59443 0.0
Cd730 Cd 0.50975 0.37547 0.61996 0.0
O731 O 0.52845 0.36502 0.62791 0.0
O732 O 0.52376 0.35559 0.57454 0.0
O733 O 0.52348 0.37822 0.58322 0.0
C734 C 0.52739 0.36918 0.57301 0.0
C735 C 0.50431 0.4002 0.62459 0.0
C736 C 0.53479 0.35451 0.62124 0.0
C737 C 0.4866 0.35493 0.60732 0.0
O738 O 0.49119 0.36274 0.61792 0.0
O739 O 0.49445 0.35323 0.59589 0.0
O740 O 0.50389 0.39045 0.63482 0.0
O741 O 0.50878 0.39609 0.61178 0.0
O742 O 0.91043 0.28457 0.86069 0.0
Cd743 Cd 0.90128 0.26889 0.84725 0.0
Cd744 Cd 0.88659 0.26289 0.87276 0.0
O745 O 0.89669 0.28182 0.88047 0.0
O746 O 0.90652 0.27591 0.82715 0.0
O747 O 0.88376 0.2756 0.83549 0.0
C748 C 0.89291 0.27929 0.82529 0.0
C749 C 0.86165 0.25763 0.87565 0.0
C750 C 0.90679 0.2885 0.87355 0.0
C751 C 0.90743 0.2398 0.86125 0.0
O752 O 0.89954 0.24446 0.87176 0.0
O753 O 0.90897 0.24744 0.84964 0.0
O754 O 0.87043 0.25795 0.88673 0.0
O755 O 0.86683 0.26118 0.86294 0.0
O756 O 0.98768 0.66627 0.11317 0.0
Cd757 Cd 1.00054 0.65447 0.09875 0.0
Cd758 Cd 1.00423 0.63883 0.12267 0.0
O759 O 0.98491 0.64881 0.12965 0.0
O760 O 0.99285 0.65927 0.07881 0.0
O761 O 0.99116 0.63717 0.0887 0.0
C762 C 0.988 0.64599 0.07804 0.0
C763 C 0.00963 0.61389 0.12613 0.0
C764 C 0.9815 0.66139 0.12468 0.0
C765 C 0.02903 0.65844 0.11233 0.0
O766 O 0.02273 0.65197 0.12297 0.0
O767 O 0.02275 0.65906 0.09989 0.0
O768 O 0.00908 0.62295 0.13697 0.0
O769 O 1.00615 0.6188 0.11329 0.0
O770 O 0.59564 0.73995 0.36338 0.0
Cd771 Cd 0.60683 0.75227 0.34815 0.0
Cd772 Cd 0.62304 0.75867 0.37226 0.0
O773 O 0.61243 0.7402 0.38082 0.0
O774 O 0.60204 0.74326 0.32877 0.0
O775 O 0.62435 0.74304 0.33829 0.0
C776 C 0.61551 0.73898 0.32797 0.0
C777 C 0.64778 0.76401 0.37731 0.0
C778 C 0.60032 0.73546 0.37571 0.0
C779 C 0.60318 0.78228 0.35904 0.0
O780 O 0.61063 0.77758 0.36986 0.0
O781 O 0.60123 0.77422 0.34782 0.0
O782 O 0.63782 0.76469 0.38731 0.0
O783 O 0.64388 0.75936 0.3645 0.0
O784 O 0.8978 0.49123 0.65261 0.0
Cd785 Cd 0.89563 0.5096 0.63958 0.0
Cd786 Cd 0.92095 0.51652 0.65466 0.0
O787 O 0.91956 0.4951 0.6625 0.0
O788 O 0.88106 0.50337 0.62443 0.0
O789 O 0.90412 0.50848 0.61907 0.0
C790 C 0.89142 0.50384 0.61481 0.0
C791 C 0.94244 0.52788 0.6462 0.0
C792 C 0.90832 0.487 0.66073 0.0
C793 C 0.89378 0.53504 0.66012 0.0
O794 O 0.90668 0.53135 0.66391 0.0
O795 O 0.88731 0.52836 0.6497 0.0
O796 O 0.94071 0.52451 0.65984 0.0
O797 O 0.93238 0.52375 0.6371 0.0
O798 O 0.73721 0.65414 0.91784 0.0
Cd799 Cd 0.75059 0.66861 0.9067 0.0
Cd800 Cd 0.75547 0.64429 0.89109 0.0
O801 O 0.73597 0.63714 0.90067 0.0
O802 O 0.74271 0.68856 0.91126 0.0
O803 O 0.74199 0.67881 0.88906 0.0
C804 C 0.7385 0.68945 0.89777 0.0
C805 C 0.76155 0.63978 0.86642 0.0
C806 C 0.73165 0.64235 0.91289 0.0
C807 C 0.77935 0.65544 0.91161 0.0
O808 O 0.77368 0.64474 0.90466 0.0
O809 O 0.77258 0.66762 0.91235 0.0
O810 O 0.76101 0.62937 0.87597 0.0
O811 O 0.75775 0.65276 0.87066 0.0
O812 O 0.6201 0.52471 0.15553 0.0
Cd813 Cd 0.62053 0.50635 0.14216 0.0
Cd814 Cd 0.59642 0.50153 0.15788 0.0
O815 O 0.59725 0.52357 0.16327 0.0
O816 O 0.63516 0.51181 0.12676 0.0
O817 O 0.61171 0.50837 0.12187 0.0
C818 C 0.62459 0.51221 0.11738 0.0
C819 C 0.57572 0.48927 0.14896 0.0
C820 C 0.60938 0.53041 0.16242 0.0
C821 C 0.62273 0.48277 0.16416 0.0
O822 O 0.61097 0.48835 0.16914 0.0
O823 O 0.62783 0.48696 0.15185 0.0
O824 O 0.57652 0.49358 0.16242 0.0
O825 O 0.58637 0.49274 0.14026 0.0
O826 O 0.78341 0.35989 0.41331 0.0
Cd827 Cd 0.76835 0.34524 0.40498 0.0
Cd828 Cd 0.75989 0.37047 0.39006 0.0
O829 O 0.77802 0.37973 0.40043 0.0
O830 O 0.77674 0.32563 0.4101 0.0
O831 O 0.77499 0.33364 0.38729 0.0
C832 C 0.77951 0.32373 0.39636 0.0
C833 C 0.75432 0.37455 0.36524 0.0
C834 C 0.78584 0.3732 0.40996 0.0
C835 C 0.7382 0.35673 0.41138 0.0
O836 O 0.74158 0.36722 0.40284 0.0
O837 O 0.74711 0.34618 0.41351 0.0
O838 O 0.7531 0.38479 0.37492 0.0
O839 O 0.75956 0.36208 0.36949 0.0
O840 O 0.89899 0.5253 0.86071 0.0
Cd841 Cd 0.8961 0.50703 0.874 0.0
Cd842 Cd 0.91999 0.49884 0.85776 0.0
O843 O 0.92044 0.52031 0.8506 0.0
O844 O 0.88159 0.51416 0.8888 0.0
O845 O 0.9042 0.5079 0.89471 0.0
C846 C 0.89164 0.51315 0.89867 0.0
C847 C 0.94084 0.48568 0.86514 0.0
C848 C 0.90966 0.52898 0.85248 0.0
C849 C 0.89144 0.48288 0.85262 0.0
O850 O 0.90408 0.4863 0.84789 0.0
O851 O 0.88641 0.48867 0.86428 0.0
O852 O 0.93856 0.489 0.85158 0.0
O853 O 0.93165 0.49059 0.87476 0.0
O854 O 0.77619 0.65432 0.09589 0.0
Cd855 Cd 0.76382 0.66964 0.10689 0.0
Cd856 Cd 0.75632 0.64547 0.12243 0.0
O857 O 0.77468 0.6364 0.1121 0.0
O858 O 0.77301 0.6889 0.10189 0.0
O859 O 0.77287 0.6798 0.12436 0.0
C860 C 0.77706 0.68996 0.1154 0.0
C861 C 0.75087 0.64103 0.14725 0.0
C862 C 0.78002 0.64168 0.10032 0.0
C863 C 0.73363 0.65929 0.10212 0.0
O864 O 0.73769 0.64827 0.10966 0.0
O865 O 0.74209 0.67028 0.1006 0.0
O866 O 0.74982 0.63089 0.13745 0.0
O867 O 0.75586 0.65364 0.14311 0.0
O868 O 0.61829 0.48741 0.36018 0.0
Cd869 Cd 0.62039 0.50643 0.37249 0.0
Cd870 Cd 0.59664 0.51262 0.35601 0.0
O871 O 0.59638 0.49065 0.35046 0.0
O872 O 0.63504 0.50059 0.38772 0.0
O873 O 0.61207 0.50595 0.39312 0.0
C874 C 0.62477 0.50136 0.39741 0.0
C875 C 0.57659 0.52595 0.36492 0.0
C876 C 0.60759 0.48263 0.35259 0.0
C877 C 0.62416 0.52947 0.34967 0.0
O878 O 0.61191 0.52493 0.34487 0.0
O879 O 0.62911 0.52483 0.36189 0.0
O880 O 0.57725 0.52171 0.35142 0.0
O881 O 0.58698 0.52181 0.37365 0.0
O882 O 0.73729 0.36038 0.59778 0.0
Cd883 Cd 0.74991 0.34546 0.60907 0.0
Cd884 Cd 0.75486 0.36936 0.62563 0.0
O885 O 0.73624 0.37739 0.61497 0.0
O886 O 0.74164 0.32573 0.60427 0.0
O887 O 0.74073 0.33541 0.6265 0.0
C888 C 0.73717 0.32488 0.61768 0.0
C889 C 0.75984 0.37383 0.65053 0.0
C890 C 0.73212 0.3724 0.60259 0.0
C891 C 0.77937 0.35776 0.60596 0.0
O892 O 0.77394 0.36828 0.61335 0.0
O893 O 0.772 0.34609 0.60395 0.0
O894 O 0.76007 0.38418 0.64091 0.0
O895 O 0.75577 0.36096 0.64621 0.0
O896 O 0.66246 0.90842 0.53211 0.0
Cd897 Cd 0.65342 0.92238 0.51691 0.0
Cd898 Cd 0.63981 0.89686 0.50893 0.0
O899 O 0.64947 0.88845 0.52788 0.0
O900 O 0.65788 0.94224 0.52506 0.0
O901 O 0.63536 0.93347 0.52341 0.0
C902 C 0.6441 0.94371 0.52786 0.0
C903 C 0.61509 0.89299 0.50301 0.0
C904 C 0.65914 0.89526 0.5353 0.0
C905 C 0.6614 0.91032 0.48748 0.0
O906 O 0.65333 0.89948 0.49093 0.0
O907 O 0.66244 0.92136 0.49598 0.0
O908 O 0.62461 0.88256 0.50232 0.0
O909 O 0.61945 0.90559 0.50784 0.0
O910 O 0.16822 0.61059 0.48752 0.0
Cd911 Cd 0.15659 0.59597 0.50016 0.0
Cd912 Cd 0.14066 0.62001 0.50523 0.0
O913 O 0.15124 0.62777 0.48637 0.0
O914 O 0.16099 0.57611 0.49192 0.0
O915 O 0.139 0.58628 0.49089 0.0
C916 C 0.1476 0.57557 0.48736 0.0
C917 C 0.11559 0.62322 0.51015 0.0
C918 C 0.16357 0.62263 0.48228 0.0
C919 C 0.16027 0.60844 0.52957 0.0
O920 O 0.15317 0.61919 0.52419 0.0
O921 O 0.16177 0.59665 0.52224 0.0
O922 O 0.1245 0.63419 0.50981 0.0
O923 O 0.12069 0.61044 0.50676 0.0
O924 O 0.64827 0.90279 0.77499 0.0
Cd925 Cd 0.64624 0.88995 0.75645 0.0
Cd926 Cd 0.67144 0.90479 0.74984 0.0
O927 O 0.67015 0.91249 0.77129 0.0
O928 O 0.6318 0.87455 0.76238 0.0
O929 O 0.65496 0.86955 0.75733 0.0
C930 C 0.64228 0.86507 0.76183 0.0
C931 C 0.6926 0.89549 0.7386 0.0
C932 C 0.65885 0.91077 0.77933 0.0
C933 C 0.64461 0.91066 0.73113 0.0
O934 O 0.65747 0.91441 0.73498 0.0
O935 O 0.63808 0.90019 0.73768 0.0
O936 O 0.69142 0.90919 0.74193 0.0
O937 O 0.68218 0.88678 0.7427 0.0
O938 O 0.35356 0.40748 0.9854 0.0
Cd939 Cd 0.36249 0.42145 1.00065 0.0
Cd940 Cd 0.37597 0.3958 0.0087 0.0
O941 O 0.36643 0.38744 0.98966 0.0
O942 O 0.35767 0.44122 0.99251 0.0
O943 O 0.38035 0.43286 0.99411 0.0
C944 C 0.37141 0.44293 0.98966 0.0
C945 C 0.40068 0.39198 0.01477 0.0
C946 C 0.35683 0.39432 0.9822 0.0
C947 C 0.35428 0.40934 0.03 0.0
O948 O 0.3623 0.39845 0.02659 0.0
O949 O 0.35339 0.42041 0.02153 0.0
O950 O 0.39117 0.38152 0.0154 0.0
O951 O 0.3963 0.40458 0.00993 0.0
O952 O 0.36773 0.61007 0.77627 0.0
Cd953 Cd 0.37133 0.62309 0.75812 0.0
Cd954 Cd 0.34533 0.60994 0.74974 0.0
O955 O 0.34576 0.60138 0.77086 0.0
O956 O 0.38602 0.63782 0.76496 0.0
O957 O 0.36338 0.6438 0.75875 0.0
C958 C 0.37598 0.64772 0.76394 0.0
C959 C 0.324 0.6187 0.7383 0.0
C960 C 0.35659 0.60238 0.77962 0.0
C961 C 0.37287 0.60324 0.7321 0.0
O962 O 0.3595 0.60052 0.73496 0.0
O963 O 0.37989 0.61271 0.73959 0.0
O964 O 0.32566 0.60501 0.74141 0.0
O965 O 0.33406 0.62769 0.74264 0.0
O966 O 0.85134 0.10675 0.02992 0.0
Cd967 Cd 0.86095 0.09271 0.01511 0.0
Cd968 Cd 0.87539 0.11836 0.00803 0.0
O969 O 0.86504 0.12647 0.02679 0.0
O970 O 0.85628 0.07284 0.02313 0.0
O971 O 0.8788 0.08177 0.02236 0.0
C972 C 0.86995 0.07148 0.02649 0.0
C973 C 0.90011 0.12301 1.00237 0.0
C974 C 0.85481 0.11975 0.03355 0.0
C975 C 0.85465 0.10495 0.98549 0.0
O976 O 0.86251 0.11571 0.9896 0.0
O977 O 0.8531 0.09377 0.99371 0.0
O978 O 0.89032 0.13319 1.00181 0.0
O979 O 0.89605 0.11025 1.00703 0.0
O980 O 0.64561 0.11152 0.74061 0.0
Cd981 Cd 0.64224 0.12466 0.75873 0.0
Cd982 Cd 0.66812 0.1113 0.76705 0.0
O983 O 0.66758 0.10276 0.74592 0.0
O984 O 0.62782 0.13969 0.75194 0.0
O985 O 0.65062 0.14519 0.75805 0.0
C986 C 0.63808 0.14938 0.75293 0.0
C987 C 0.68951 0.11967 0.77868 0.0
C988 C 0.6567 0.10376 0.73722 0.0
C989 C 0.64053 0.10483 0.78471 0.0
O990 O 0.65385 0.10196 0.78178 0.0
O991 O 0.63359 0.11441 0.77728 0.0
O992 O 0.68768 0.10603 0.77545 0.0
O993 O 0.67963 0.12884 0.77431 0.0
O994 O 0.86573 0.9045 0.24037 0.0
Cd995 Cd 0.8694 0.89124 0.25832 0.0
Cd996 Cd 0.84358 0.90452 0.26715 0.0
O997 O 0.84392 0.91339 0.24612 0.0
O998 O 0.884 0.87654 0.25119 0.0
O999 O 0.86139 0.87055 0.25752 0.0
C1000 C 0.87395 0.86665 0.25221 0.0
C1001 C 0.82244 0.89558 0.27888 0.0
C1002 C 0.85467 0.91239 0.23724 0.0
C1003 C 0.87138 0.91088 0.28447 0.0
O1004 O 0.858 0.91372 0.28183 0.0
O1005 O 0.87824 0.90142 0.27681 0.0
O1006 O 0.82402 0.90931 0.27589 0.0
O1007 O 0.83243 0.88666 0.27422 0.0
O1008 O 0.48606 0.35342 0.1103 0.0
Cd1009 Cd 0.50098 0.3636 0.09676 0.0
Cd1010 Cd 0.5069 0.3776 0.1226 0.0
O1011 O 0.48795 0.36724 0.13008 0.0
O1012 O 0.49348 0.35897 0.0767 0.0
O1013 O 0.4935 0.3814 0.0859 0.0
C1014 C 0.48976 0.37256 0.07545 0.0
C1015 C 0.51248 0.40228 0.1272 0.0
C1016 C 0.48178 0.35682 0.12312 0.0
C1017 C 0.53014 0.35737 0.10984 0.0
O1018 O 0.52535 0.36471 0.12069 0.0
O1019 O 0.52253 0.35626 0.09818 0.0
O1020 O 0.51263 0.39259 0.1375 0.0
O1021 O 0.5082 0.39815 0.11434 0.0
O1022 O 0.41034 0.73217 0.86304 0.0
Cd1023 Cd 0.403 0.74728 0.84796 0.0
Cd1024 Cd 0.38948 0.75783 0.87375 0.0
O1025 O 0.39926 0.73957 0.88333 0.0
O1026 O 0.40908 0.73818 0.82894 0.0
O1027 O 0.38589 0.74091 0.8353 0.0
C1028 C 0.39544 0.73582 0.82614 0.0
C1029 C 0.3651 0.76453 0.87857 0.0
C1030 C 0.40766 0.73066 0.87663 0.0
C1031 C 0.41159 0.77748 0.8585 0.0
O1032 O 0.40305 0.77531 0.8693 0.0
O1033 O 0.41288 0.7679 0.8484 0.0
O1034 O 0.37523 0.76578 0.88836 0.0
O1035 O 0.36866 0.75873 0.86613 0.0
O1036 O 0.03291 0.66396 0.61013 0.0
Cd1037 Cd 0.01797 0.65461 0.59594 0.0
Cd1038 Cd 0.01156 0.6403 0.62183 0.0
O1039 O 0.0305 0.65014 0.62985 0.0
O1040 O 0.02627 0.66058 0.57652 0.0
O1041 O 0.025 0.63747 0.58364 0.0
C1042 C 0.02945 0.64701 0.57414 0.0
C1043 C 1.0053 0.61565 0.62605 0.0
C1044 C 0.03693 0.66048 0.62302 0.0
C1045 C 0.98896 0.66147 0.60916 0.0
O1046 O 0.99365 0.65392 0.61991 0.0
O1047 O 0.99645 0.66234 0.59738 0.0
O1048 O 1.00512 0.62526 0.63644 0.0
O1049 O 0.00991 0.61985 0.61331 0.0
O1050 O 0.09991 0.28077 0.35901 0.0
Cd1051 Cd 0.11015 0.26591 0.34547 0.0
Cd1052 Cd 0.12439 0.25986 0.37106 0.0
O1053 O 0.11392 0.27874 0.37863 0.0
O1054 O 0.10581 0.2734 0.32532 0.0
O1055 O 0.12811 0.27333 0.33482 0.0
C1056 C 0.11943 0.27706 0.32424 0.0
C1057 C 0.14924 0.25458 0.37473 0.0
C1058 C 0.10341 0.28494 0.37184 0.0
C1059 C 0.10431 0.23654 0.3585 0.0
O1060 O 0.1117 0.24124 0.36935 0.0
O1061 O 0.10297 0.24429 0.34696 0.0
O1062 O 0.14008 0.25479 0.38551 0.0
O1063 O 0.1445 0.25832 0.3619 0.0
O1064 O 0.48296 0.65913 0.40497 0.0
Cd1065 Cd 0.49829 0.6518 0.41982 0.0
Cd1066 Cd 0.50917 0.63908 0.39379 0.0
O1067 O 0.49069 0.64872 0.38446 0.0
O1068 O 0.48919 0.6572 0.43905 0.0
O1069 O 0.49236 0.63423 0.43208 0.0
C1070 C 0.48715 0.64344 0.44152 0.0
C1071 C 0.51619 0.61488 0.38847 0.0
C1072 C 0.48155 0.65674 0.39131 0.0
C1073 C 0.52829 0.66136 0.40942 0.0
O1074 O 0.52638 0.65293 0.39849 0.0
O1075 O 0.51865 0.66224 0.41951 0.0
O1076 O 0.51732 0.62522 0.3789 0.0
O1077 O 0.51039 0.61812 0.401 0.0
O1078 O 0.10388 0.7329 0.15385 0.0
Cd1079 Cd 0.11268 0.74916 0.16692 0.0
Cd1080 Cd 0.12638 0.75523 0.1411 0.0
O1081 O 0.11757 0.73551 0.13402 0.0
O1082 O 0.10769 0.74232 0.18714 0.0
O1083 O 0.13041 0.74306 0.17872 0.0
C1084 C 0.12138 0.7393 0.18899 0.0
C1085 C 0.15099 0.76184 0.13815 0.0
C1086 C 0.10773 0.72867 0.14115 0.0
C1087 C 0.10457 0.77742 0.15238 0.0
O1088 O 0.11206 0.77263 0.14163 0.0
O1089 O 0.10428 0.77035 0.16444 0.0
O1090 O 0.14227 0.7608 0.12707 0.0
O1091 O 0.14595 0.75838 0.15095 0.0
O1092 O 0.03127 0.35124 0.90457 0.0
Cd1093 Cd 0.01612 0.36234 0.91719 0.0
Cd1094 Cd 0.01232 0.37586 0.89151 0.0
O1095 O 0.03194 0.36602 0.88544 0.0
O1096 O 0.02254 0.35802 0.93771 0.0
O1097 O 0.02392 0.38012 0.92783 0.0
C1098 C 0.02687 0.37146 0.93867 0.0
C1099 C 1.00658 0.40068 0.88862 0.0
C1100 C 0.03692 0.35499 0.89238 0.0
C1101 C 0.98811 0.35603 0.9021 0.0
O1102 O 0.99425 0.36235 0.89128 0.0
O1103 O 0.99426 0.3561 0.91464 0.0
O1104 O 0.00794 0.3921 0.87745 0.0
O1105 O 0.00942 0.39539 0.90147 0.0
O1106 O 0.41437 0.28123 0.65704 0.0
Cd1107 Cd 0.40452 0.26635 0.67087 0.0
Cd1108 Cd 0.38988 0.26008 0.64534 0.0
O1109 O 0.40041 0.27877 0.63742 0.0
O1110 O 0.40902 0.274 0.69093 0.0
O1111 O 0.38661 0.27362 0.68172 0.0
C1112 C 0.39537 0.27748 0.69218 0.0
C1113 C 0.3651 0.25474 0.64081 0.0
C1114 C 0.41085 0.28517 0.64414 0.0
C1115 C 0.41039 0.23695 0.65799 0.0
O1116 O 0.40258 0.24149 0.64737 0.0
O1117 O 0.41203 0.24483 0.66941 0.0
O1118 O 0.37481 0.25428 0.63054 0.0
O1119 O 0.36928 0.25917 0.65361 0.0
O1120 O 0.11225 0.48839 0.34826 0.0
Cd1121 Cd 0.09778 0.5017 0.35946 0.0
Cd1122 Cd 0.12198 0.50633 0.37505 0.0
O1123 O 0.12902 0.48672 0.3656 0.0
O1124 O 0.07787 0.49389 0.35468 0.0
O1125 O 0.08743 0.49295 0.37695 0.0
C1126 C 0.07687 0.48954 0.36811 0.0
C1127 C 0.12606 0.51257 0.39973 0.0
C1128 C 0.12391 0.48262 0.35327 0.0
C1129 C 0.11115 0.53028 0.35451 0.0
O1130 O 0.12182 0.52445 0.36135 0.0
O1131 O 0.09886 0.5237 0.35392 0.0
O1132 O 0.13666 0.51184 0.39039 0.0
O1133 O 0.11314 0.50883 0.39529 0.0
O1134 O 0.27684 0.35946 0.09624 0.0
Cd1135 Cd 0.26435 0.34396 0.10686 0.0
Cd1136 Cd 0.2576 0.36782 0.12355 0.0
O1137 O 0.27628 0.3765 0.11344 0.0
O1138 O 0.27353 0.32465 0.10201 0.0
O1139 O 0.27329 0.33392 0.12443 0.0
C1140 C 0.27757 0.32371 0.11555 0.0
C1141 C 0.25167 0.37293 0.14817 0.0
C1142 C 0.28124 0.37167 0.1013 0.0
C1143 C 0.23441 0.35496 0.10289 0.0
O1144 O 0.23896 0.36558 0.11072 0.0
O1145 O 0.24249 0.34378 0.10082 0.0
O1146 O 0.25124 0.3829 0.13817 0.0
O1147 O 0.25637 0.3601 0.14441 0.0
O1148 O 0.40532 0.52792 0.84908 0.0
Cd1149 Cd 0.42063 0.51547 0.85998 0.0
Cd1150 Cd 0.39662 0.5084 0.87588 0.0
O1151 O 0.38767 0.52685 0.86563 0.0
O1152 O 0.43997 0.52443 0.85481 0.0
O1153 O 0.43096 0.52456 0.87733 0.0
C1154 C 0.44112 0.5286 0.86829 0.0
C1155 C 0.3924 0.50311 0.90075 0.0
C1156 C 0.39282 0.53199 0.85371 0.0
C1157 C 0.40972 0.48545 0.85539 0.0
O1158 O 0.39887 0.48972 0.86307 0.0
O1159 O 0.42086 0.49369 0.85377 0.0
O1160 O 0.38212 0.50222 0.8911 0.0
O1161 O 0.40506 0.50781 0.89644 0.0
O1162 O 0.2344 0.65638 0.60266 0.0
Cd1163 Cd 0.24982 0.66967 0.61232 0.0
Cd1164 Cd 0.2566 0.64358 0.6255 0.0
O1165 O 0.23747 0.63606 0.61544 0.0
O1166 O 0.24254 0.68979 0.60761 0.0
O1167 O 0.24318 0.68102 0.63018 0.0
C1168 C 0.2394 0.6914 0.6213 0.0
C1169 C 0.26225 0.63934 0.65022 0.0
C1170 C 0.23058 0.64332 0.60568 0.0
C1171 C 0.27895 0.65681 0.60474 0.0
O1172 O 0.27487 0.64582 0.6123 0.0
O1173 O 0.27092 0.6682 0.60392 0.0
O1174 O 0.26259 0.62894 0.64063 0.0
O1175 O 0.25783 0.65211 0.64593 0.0
O1176 O 0.10814 0.53023 0.16379 0.0
Cd1177 Cd 0.09405 0.51528 0.15449 0.0
Cd1178 Cd 0.12002 0.507 0.1412 0.0
O1179 O 0.12847 0.52564 0.15147 0.0
O1180 O 0.07429 0.52343 0.15942 0.0
O1181 O 0.08269 0.52223 0.13673 0.0
C1182 C 0.07259 0.52648 0.14572 0.0
C1183 C 0.12453 0.50127 0.11651 0.0
C1184 C 0.12147 0.53314 0.16096 0.0
C1185 C 0.1056 0.48549 0.16214 0.0
O1186 O 0.11666 0.48885 0.15432 0.0
O1187 O 0.09473 0.4942 0.16316 0.0
O1188 O 0.13466 0.5003 0.12633 0.0
O1189 O 0.11191 0.5063 0.12056 0.0
O1190 O 0.23975 0.36049 0.91877 0.0
Cd1191 Cd 0.25259 0.34534 0.90805 0.0
Cd1192 Cd 0.25855 0.36933 0.89142 0.0
O1193 O 0.23973 0.37759 0.90163 0.0
O1194 O 0.24413 0.32581 0.91328 0.0
O1195 O 0.24375 0.33477 0.89074 0.0
C1196 C 0.23997 0.32453 0.89981 0.0
C1197 C 0.26411 0.37393 0.86663 0.0
C1198 C 0.235 0.37261 0.9138 0.0
C1199 C 0.28222 0.3572 0.91189 0.0
O1200 O 0.27732 0.36774 0.90417 0.0
O1201 O 0.27447 0.34577 0.91389 0.0
O1202 O 0.26438 0.38418 0.87635 0.0
O1203 O 0.25975 0.3611 0.87078 0.0
O1204 O 0.40472 0.48219 0.66232 0.0
Cd1205 Cd 0.41915 0.49762 0.65428 0.0
Cd1206 Cd 0.39348 0.50614 0.63975 0.0
O1207 O 0.38463 0.48766 0.64987 0.0
O1208 O 0.43878 0.48943 0.6596 0.0
O1209 O 0.43114 0.49138 0.6367 0.0
C1210 C 0.44096 0.48686 0.64587 0.0
C1211 C 0.38883 0.51223 0.61515 0.0
C1212 C 0.3914 0.47968 0.65911 0.0
C1213 C 0.40732 0.52752 0.66134 0.0
O1214 O 0.39676 0.52421 0.65286 0.0
O1215 O 0.41797 0.51868 0.66318 0.0
O1216 O 0.37877 0.51308 0.62506 0.0
O1217 O 0.40145 0.50707 0.61904 0.0
O1218 O 0.28393 0.65396 0.4105 0.0
Cd1219 Cd 0.26861 0.66877 0.40303 0.0
Cd1220 Cd 0.2586 0.64325 0.38924 0.0
O1221 O 0.2769 0.63376 0.39905 0.0
O1222 O 0.2774 0.68809 0.40859 0.0
O1223 O 0.27476 0.68104 0.38557 0.0
C1224 C 0.27972 0.69054 0.39486 0.0
C1225 C 0.25241 0.63899 0.36463 0.0
C1226 C 0.28565 0.64043 0.40763 0.0
C1227 C 0.23848 0.65781 0.41135 0.0
O1228 O 0.24086 0.64716 0.40268 0.0
O1229 O 0.24792 0.66802 0.41283 0.0
O1230 O 0.25108 0.62893 0.37449 0.0
O1231 O 0.25797 0.65141 0.36861 0.0
O1232 O 0.34926 0.11151 0.48695 0.0
Cd1233 Cd 0.36083 0.09713 0.50003 0.0
Cd1234 Cd 0.37663 0.12112 0.50368 0.0
O1235 O 0.36675 0.12799 0.48425 0.0
O1236 O 0.35604 0.07713 0.49244 0.0
O1237 O 0.37817 0.08695 0.49085 0.0
C1238 C 0.36936 0.07629 0.4877 0.0
C1239 C 0.40148 0.12485 0.50939 0.0
C1240 C 0.35419 0.12299 0.48076 0.0
C1241 C 0.35668 0.11103 0.5284 0.0
O1242 O 0.36335 0.12154 0.52208 0.0
O1243 O 0.35597 0.09855 0.52219 0.0
O1244 O 0.39234 0.13561 0.50862 0.0
O1245 O 0.39674 0.11195 0.50592 0.0
O1246 O 0.85204 0.40624 0.53198 0.0
Cd1247 Cd 0.86204 0.41952 0.51664 0.0
Cd1248 Cd 0.87636 0.39407 0.51174 0.0
O1249 O 0.86686 0.38714 0.53127 0.0
O1250 O 0.85743 0.4398 0.52364 0.0
O1251 O 0.87985 0.43059 0.52376 0.0
C1252 C 0.87103 0.44113 0.52729 0.0
C1253 C 0.90106 0.39031 0.50554 0.0
C1254 C 0.85604 0.39385 0.53699 0.0
C1255 C 0.85531 0.40503 0.4884 0.0
O1256 O 0.86258 0.39446 0.49386 0.0
O1257 O 0.85475 0.4173 0.49507 0.0
O1258 O 0.89183 0.37961 0.50611 0.0
O1259 O 0.89647 0.40316 0.50941 0.0
O1260 O 0.35796 0.10381 0.27991 0.0
Cd1261 Cd 0.34432 0.11373 0.26494 0.0
Cd1262 Cd 0.36998 0.1281 0.25896 0.0
O1263 O 0.37762 0.11778 0.27786 0.0
O1264 O 0.3243 0.10891 0.27244 0.0
O1265 O 0.33322 0.13144 0.2723 0.0
C1266 C 0.32287 0.1225 0.27608 0.0
C1267 C 0.37436 0.15287 0.25349 0.0
C1268 C 0.37077 0.10733 0.28412 0.0
C1269 C 0.35752 0.10758 0.23578 0.0
O1270 O 0.36821 0.1152 0.24049 0.0
O1271 O 0.34591 0.10625 0.24345 0.0
O1272 O 0.38473 0.14326 0.25325 0.0
O1273 O 0.36153 0.14859 0.25777 0.0
O1274 O 0.6646 0.6096 0.02821 0.0
Cd1275 Cd 0.65408 0.59421 0.01556 0.0
Cd1276 Cd 0.63828 0.61816 0.00803 0.0
O1277 O 0.64791 0.62708 0.02682 0.0
O1278 O 0.65906 0.57492 0.02474 0.0
O1279 O 0.63654 0.5839 0.02434 0.0
C1280 C 0.64551 0.57379 0.02866 0.0
C1281 C 0.6136 0.62247 1.00195 0.0
C1282 C 0.65974 0.62202 0.03222 0.0
C1283 C 0.6595 0.60513 0.98568 0.0
O1284 O 0.65169 0.61597 0.98975 0.0
O1285 O 0.66088 0.59397 0.99394 0.0
O1286 O 0.6233 0.63273 1.00143 0.0
O1287 O 0.61774 0.60977 1.00672 0.0
O1288 O 0.65684 0.40964 0.28066 0.0
Cd1289 Cd 0.67102 0.40097 0.26546 0.0
Cd1290 Cd 0.64523 0.3873 0.25725 0.0
O1291 O 0.63679 0.39683 0.27627 0.0
O1292 O 0.69059 0.40656 0.27362 0.0
O1293 O 0.68309 0.38359 0.27218 0.0
C1294 C 0.69281 0.39292 0.27657 0.0
C1295 C 0.64134 0.36264 0.25098 0.0
C1296 C 0.64366 0.40638 0.28379 0.0
C1297 C 0.65882 0.40912 0.23608 0.0
O1298 O 0.64796 0.40104 0.23944 0.0
O1299 O 0.66987 0.41006 0.24458 0.0
O1300 O 0.63092 0.37219 0.25041 0.0
O1301 O 0.65393 0.36694 0.25588 0.0
O1302 O 0.16288 0.90893 0.98579 0.0
Cd1303 Cd 0.15355 0.92305 1.00067 0.0
Cd1304 Cd 0.14064 0.89713 0.00925 0.0
O1305 O 0.15049 0.88867 0.99041 0.0
O1306 O 0.1581 0.9427 0.99207 0.0
O1307 O 0.13555 0.934 0.99373 0.0
C1308 C 0.14436 0.94411 0.98909 0.0
C1309 C 0.11609 0.89234 0.0153 0.0
C1310 C 0.15994 0.89564 0.98284 0.0
C1311 C 0.16179 0.91183 0.03037 0.0
O1312 O 0.1541 0.90065 0.02714 0.0
O1313 O 0.16248 0.92272 0.02164 0.0
O1314 O 0.12605 0.88235 0.01622 0.0
O1315 O 0.11993 0.90502 0.01023 0.0
O1316 O 0.36218 0.91162 0.23409 0.0
Cd1317 Cd 0.34735 0.90355 0.24911 0.0
Cd1318 Cd 0.37286 0.88889 0.25803 0.0
O1319 O 0.38204 0.89883 0.23964 0.0
O1320 O 0.32803 0.90916 0.24039 0.0
O1321 O 0.33537 0.88615 0.24232 0.0
C1322 C 0.32582 0.89548 0.23756 0.0
C1323 C 0.37758 0.86437 0.26437 0.0
C1324 C 0.37548 0.90823 0.23169 0.0
C1325 C 0.35875 0.91064 0.27913 0.0
O1326 O 0.36937 0.90219 0.27591 0.0
O1327 O 0.34813 0.91237 0.27022 0.0
O1328 O 0.38756 0.87435 0.26529 0.0
O1329 O 0.365 0.86814 0.25904 0.0
O1330 O 0.155 0.10236 0.73366 0.0
Cd1331 Cd 0.16979 0.11053 0.74859 0.0
Cd1332 Cd 0.14406 0.12427 0.75771 0.0
O1333 O 0.1349 0.11467 0.73907 0.0
O1334 O 0.18865 0.10422 0.7394 0.0
O1335 O 0.18266 0.12751 0.74214 0.0
C1336 C 0.1916 0.11781 0.73696 0.0
C1337 C 0.14004 0.14887 0.76408 0.0
C1338 C 0.14165 0.10541 0.7311 0.0
C1339 C 0.15862 0.10251 0.77843 0.0
O1340 O 0.14773 0.11072 0.77549 0.0
O1341 O 0.16923 0.10129 0.76942 0.0
O1342 O 0.12982 0.13915 0.76514 0.0
O1343 O 0.15247 0.14478 0.75863 0.0
H1344 H 0.05647 0.17544 0.40729 0.0
H1345 H 0.041 0.16336 0.36417 0.0
H1346 H 0.07433 0.19176 0.39645 0.0
H1347 H 0.05932 0.17978 0.35313 0.0
H1348 H 0.11158 0.21365 0.3761 0.0
H1349 H 0.09656 0.19252 0.38239 0.0
H1350 H 0.06364 0.20665 0.3514 0.0
H1351 H 0.07901 0.22766 0.34473 0.0
C1352 C 0.05701 0.17611 0.39544 0.0
C1353 C 0.04723 0.16812 0.38661 0.0
C1354 C 0.0674 0.18542 0.38919 0.0
C1355 C 0.06835 0.18706 0.37389 0.0
C1356 C 0.05882 0.17881 0.36496 0.0
C1357 C 0.04841 0.16934 0.37127 0.0
C1358 C 0.10127 0.2121 0.37041 0.0
C1359 C 0.09637 0.22244 0.36009 0.0
C1360 C 0.09262 0.20002 0.37406 0.0
C1361 C 0.07873 0.19806 0.36766 0.0
C1362 C 0.07429 0.2078 0.35652 0.0
C1363 C 0.08307 0.21986 0.35273 0.0
H1364 H 0.04385 0.852 0.63719 0.0
H1365 H 0.04639 0.83978 0.59148 0.0
H1366 H 0.06472 0.83675 0.64256 0.0
H1367 H 0.06808 0.82488 0.59674 0.0
H1368 H 0.09203 0.78423 0.61709 0.0
H1369 H 0.07486 0.80262 0.6078 0.0
H1370 H 0.08948 0.83286 0.64133 0.0
H1371 H 0.10567 0.81401 0.65114 0.0
C1372 C 0.04909 0.8463 0.62816 0.0
C1373 C 0.04333 0.84709 0.61389 0.0
C1374 C 0.06126 0.83759 0.63124 0.0
C1375 C 0.06829 0.82953 0.6201 0.0
C1376 C 0.06289 0.83074 0.60567 0.0
C1377 C 0.0505 0.83938 0.6026 0.0
C1378 C 0.09171 0.79494 0.62222 0.0
C1379 C 0.10003 0.79774 0.63485 0.0
C1380 C 0.0819 0.80553 0.61689 0.0
C1381 C 0.08046 0.81921 0.62397 0.0
C1382 C 0.08983 0.82232 0.63587 0.0
C1383 C 0.09927 0.81161 0.64141 0.0
H1384 H 0.40603 0.80394 0.87126 0.0
H1385 H 0.43916 0.78029 0.84703 0.0
H1386 H 0.42369 0.82348 0.87636 0.0
H1387 H 0.4569 0.79973 0.85246 0.0
H1388 H 0.48362 0.82177 0.8919 0.0
H1389 H 0.46617 0.80561 0.87972 0.0
H1390 H 0.44231 0.84321 0.86374 0.0
H1391 H 0.4602 0.85959 0.87566 0.0
C1392 C 0.41699 0.8031 0.86673 0.0
C1393 C 0.42124 0.79054 0.85882 0.0
C1394 C 0.42706 0.81431 0.8696 0.0
C1395 C 0.44165 0.81305 0.86487 0.0
C1396 C 0.4457 0.80093 0.85623 0.0
C1397 C 0.43553 0.78985 0.85308 0.0
C1398 C 0.47475 0.82663 0.88566 0.0
C1399 C 0.47321 0.84194 0.8848 0.0
C1400 C 0.46485 0.81736 0.87859 0.0
C1401 C 0.45296 0.82317 0.87073 0.0
C1402 C 0.45144 0.83849 0.86968 0.0
C1403 C 0.46164 0.84783 0.87648 0.0
H1404 H 0.46348 0.15423 0.12605 0.0
H1405 H 0.47943 0.18592 0.09465 0.0
H1406 H 0.4433 0.17048 0.13232 0.0
H1407 H 0.4592 0.20242 0.10117 0.0
H1408 H 0.42834 0.21185 0.15677 0.0
H1409 H 0.44436 0.19347 0.14619 0.0
H1410 H 0.4317 0.20717 0.10265 0.0
H1411 H 0.41547 0.22587 0.11338 0.0
C1412 C 0.46256 0.1646 0.12031 0.0
C1413 C 0.47321 0.16887 0.11001 0.0
C1414 C 0.451 0.17394 0.12395 0.0
C1415 C 0.44981 0.18787 0.11747 0.0
C1416 C 0.4598 0.19174 0.10635 0.0
C1417 C 0.47141 0.18231 0.10263 0.0
C1418 C 0.42882 0.21091 0.14493 0.0
C1419 C 0.42062 0.22036 0.13593 0.0
C1420 C 0.43795 0.20027 0.13885 0.0
C1421 C 0.43926 0.19877 0.12356 0.0
C1422 C 0.43094 0.20808 0.11447 0.0
C1423 C 0.4216 0.21871 0.12061 0.0
H1424 H 0.0616 0.85425 0.11592 0.0
H1425 H 0.03165 0.83882 0.14908 0.0
H1426 H 0.08039 0.83758 0.12494 0.0
H1427 H 0.05008 0.82123 0.15759 0.0
H1428 H 0.08841 0.79292 0.17284 0.0
H1429 H 0.07266 0.81424 0.16843 0.0
H1430 H 0.084 0.81271 0.12239 0.0
H1431 H 0.1 0.79217 0.12689 0.0
C1432 C 0.05915 0.84737 0.1253 0.0
C1433 C 0.04525 0.84777 0.13183 0.0
C1434 C 0.06984 0.83765 0.13038 0.0
C1435 C 0.06669 0.82767 0.14176 0.0
C1436 C 0.05299 0.82873 0.14887 0.0
C1437 C 0.0424 0.83879 0.144 0.0
C1438 C 0.08765 0.79731 0.16184 0.0
C1439 C 0.09552 0.79083 0.15025 0.0
C1440 C 0.07855 0.80949 0.15927 0.0
C1441 C 0.07706 0.81538 0.14505 0.0
C1442 C 0.08508 0.80888 0.13357 0.0
C1443 C 0.09423 0.79691 0.13615 0.0
H1444 H 0.44354 0.7832 0.37549 0.0
H1445 H 0.40485 0.80696 0.38898 0.0
H1446 H 0.45901 0.8015 0.3874 0.0
H1447 H 0.42054 0.8257 0.40054 0.0
H1448 H 0.46114 0.86139 0.39232 0.0
H1449 H 0.44185 0.84356 0.38672 0.0
H1450 H 0.46234 0.81226 0.41565 0.0
H1451 H 0.48143 0.8302 0.42162 0.0
C1452 C 0.43835 0.79234 0.38105 0.0
C1453 C 0.423 0.79371 0.38126 0.0
C1454 C 0.4472 0.80273 0.38795 0.0
C1455 C 0.44094 0.81493 0.39493 0.0
C1456 C 0.42559 0.81632 0.39528 0.0
C1457 C 0.41665 0.80564 0.38869 0.0
C1458 C 0.46129 0.85086 0.39781 0.0
C1459 C 0.47283 0.84717 0.40736 0.0
C1460 C 0.45022 0.8407 0.39465 0.0
C1461 C 0.45068 0.82657 0.40073 0.0
C1462 C 0.46176 0.82312 0.41087 0.0
C1463 C 0.47264 0.8334 0.4143 0.0
H1464 H 0.40376 0.21448 0.63958 0.0
H1465 H 0.43562 0.22795 0.67192 0.0
H1466 H 0.41927 0.19388 0.63276 0.0
H1467 H 0.4514 0.20736 0.66482 0.0
H1468 H 0.46023 0.17814 0.60818 0.0
H1469 H 0.44221 0.19428 0.61915 0.0
H1470 H 0.45547 0.18009 0.66235 0.0
H1471 H 0.47385 0.16379 0.65123 0.0
C1472 C 0.414 0.21292 0.64539 0.0
C1473 C 0.41856 0.22299 0.65613 0.0
C1474 C 0.42293 0.20113 0.64144 0.0
C1475 C 0.43672 0.19915 0.64802 0.0
C1476 C 0.44083 0.20856 0.65955 0.0
C1477 C 0.4318 0.22037 0.6636 0.0
C1478 C 0.45927 0.17831 0.62002 0.0
C1479 C 0.46853 0.16968 0.62881 0.0
C1480 C 0.44882 0.18751 0.62633 0.0
C1481 C 0.44731 0.18844 0.64165 0.0
C1482 C 0.4564 0.17965 0.65052 0.0
C1483 C 0.46684 0.17026 0.64415 0.0
H1484 H 0.10409 0.20175 0.8659 0.0
H1485 H 0.0929 0.23027 0.9019 0.0
H1486 H 0.08669 0.18355 0.87474 0.0
H1487 H 0.07457 0.21253 0.91031 0.0
H1488 H 0.04449 0.17522 0.9248 0.0
H1489 H 0.06659 0.18977 0.92006 0.0
H1490 H 0.06153 0.18182 0.87357 0.0
H1491 H 0.04022 0.16696 0.87833 0.0
C1492 C 0.09798 0.204 0.87585 0.0
C1493 C 0.09977 0.21736 0.88322 0.0
C1494 C 0.08784 0.19367 0.88084 0.0
C1495 C 0.07882 0.19667 0.89303 0.0
C1496 C 0.0813 0.20973 0.90094 0.0
C1497 C 0.09179 0.21994 0.89613 0.0
C1498 C 0.04827 0.17645 0.91361 0.0
C1499 C 0.04057 0.16986 0.90197 0.0
C1500 C 0.0609 0.18487 0.91087 0.0
C1501 C 0.06603 0.18695 0.89642 0.0
C1502 C 0.0583 0.18021 0.88489 0.0
C1503 C 0.04589 0.17173 0.88762 0.0
H1504 H 0.40639 0.05445 0.17902 0.0
H1505 H 0.36315 0.04382 0.16283 0.0
H1506 H 0.39599 0.07315 0.19479 0.0
H1507 H 0.35263 0.06284 0.17878 0.0
H1508 H 0.34253 0.08313 0.22634 0.0
H1509 H 0.34944 0.06689 0.20607 0.0
H1510 H 0.38385 0.09702 0.19374 0.0
H1511 H 0.37718 0.11301 0.21402 0.0
C1512 C 0.39464 0.05621 0.17871 0.0
C1513 C 0.38561 0.0476 0.16967 0.0
C1514 C 0.38868 0.06704 0.1877 0.0
C1515 C 0.37347 0.06956 0.188 0.0
C1516 C 0.36438 0.06112 0.17882 0.0
C1517 C 0.37041 0.05031 0.16963 0.0
C1518 C 0.35134 0.08643 0.21909 0.0
C1519 C 0.35947 0.09923 0.22195 0.0
C1520 C 0.35529 0.07714 0.20745 0.0
C1521 C 0.36738 0.08053 0.19847 0.0
C1522 C 0.3747 0.09392 0.20067 0.0
C1523 C 0.37083 0.10311 0.21228 0.0
H1524 H 0.18875 0.09078 0.48094 0.0
H1525 H 0.15694 0.11994 0.46144 0.0
H1526 H 0.20584 0.09613 0.46088 0.0
H1527 H 0.17388 0.12495 0.44124 0.0
H1528 H 0.20808 0.12446 0.40306 0.0
H1529 H 0.19034 0.11211 0.41937 0.0
H1530 H 0.21709 0.12326 0.45677 0.0
H1531 H 0.23434 0.13595 0.4407 0.0
C1532 C 0.18522 0.09793 0.47213 0.0
C1533 C 0.17155 0.10504 0.47282 0.0
C1534 C 0.195 0.10101 0.46068 0.0
C1535 C 0.19116 0.11096 0.44955 0.0
C1536 C 0.17706 0.11715 0.44962 0.0
C1537 C 0.16741 0.11433 0.46122 0.0
C1538 C 0.21021 0.12402 0.41474 0.0
C1539 C 0.22249 0.13117 0.42068 0.0
C1540 C 0.2001 0.11701 0.42403 0.0
C1541 C 0.20244 0.11666 0.43929 0.0
C1542 C 0.21512 0.1232 0.44505 0.0
C1543 C 0.22493 0.13053 0.43587 0.0
H1544 H 0.13629 0.96 0.65427 0.0
H1545 H 0.12208 0.98332 0.69296 0.0
H1546 H 0.14877 0.94182 0.66996 0.0
H1547 H 0.13492 0.96564 0.70842 0.0
H1548 H 0.17109 0.93878 0.73028 0.0
H1549 H 0.16441 0.95595 0.71073 0.0
H1550 H 0.13496 0.92381 0.69243 0.0
H1551 H 0.14126 0.90674 0.7122 0.0
C1552 C 0.13606 0.96136 0.66607 0.0
C1553 C 0.12816 0.97298 0.67243 0.0
C1554 C 0.14316 0.95101 0.675 0.0
C1555 C 0.14286 0.95246 0.69035 0.0
C1556 C 0.13542 0.96438 0.69661 0.0
C1557 C 0.12801 0.97442 0.68777 0.0
C1558 C 0.16352 0.93521 0.72186 0.0
C1559 C 0.15662 0.92145 0.72283 0.0
C1560 C 0.15969 0.94504 0.71071 0.0
C1561 C 0.1492 0.94115 0.70012 0.0
C1562 C 0.14317 0.92699 0.7004 0.0
C1563 C 0.14674 0.91727 0.71174 0.0
H1564 H 0.30557 0.88953 0.90342 0.0
H1565 H 0.28163 0.87769 0.94252 0.0
H1566 H 0.32438 0.90155 0.91872 0.0
H1567 H 0.29995 0.89007 0.9576 0.0
H1568 H 0.32889 0.92443 0.97902 0.0
H1569 H 0.31117 0.91843 0.95978 0.0
H1570 H 0.3419 0.88789 0.94082 0.0
H1571 H 0.35953 0.89353 0.96028 0.0
C1572 C 0.3042 0.88976 0.91522 0.0
C1573 C 0.29222 0.88264 0.92183 0.0
C1574 C 0.31493 0.89658 0.92394 0.0
C1575 C 0.3135 0.89679 0.93929 0.0
C1576 C 0.30121 0.89018 0.94578 0.0
C1577 C 0.29079 0.88304 0.93716 0.0
C1578 C 0.33205 0.91676 0.97052 0.0
C1579 C 0.34557 0.90937 0.97123 0.0
C1580 C 0.32189 0.91331 0.95954 0.0
C1581 C 0.32521 0.90271 0.94887 0.0
C1582 C 0.33915 0.89619 0.94887 0.0
C1583 C 0.34919 0.89938 0.96003 0.0
H1584 H 0.40588 0.96213 0.33825 0.0
H1585 H 0.36246 0.97686 0.35015 0.0
H1586 H 0.39537 0.94363 0.32232 0.0
H1587 H 0.35179 0.95807 0.33398 0.0
H1588 H 0.34499 0.93666 0.28594 0.0
H1589 H 0.35106 0.95318 0.30629 0.0
H1590 H 0.38099 0.9208 0.32352 0.0
H1591 H 0.37516 0.9045 0.30324 0.0
C1592 C 0.39405 0.96132 0.33757 0.0
C1593 C 0.38501 0.971 0.34546 0.0
C1594 C 0.388 0.95062 0.3285 0.0
C1595 C 0.37273 0.94931 0.32693 0.0
C1596 C 0.3636 0.95883 0.33495 0.0
C1597 C 0.3697 0.96951 0.34426 0.0
C1598 C 0.35258 0.93295 0.29428 0.0
C1599 C 0.35979 0.91938 0.29283 0.0
C1600 C 0.35604 0.9424 0.30595 0.0
C1601 C 0.36672 0.9384 0.31636 0.0
C1602 C 0.37296 0.92433 0.31551 0.0
C1603 C 0.36958 0.91498 0.30389 0.0
H1604 H 0.3149 0.15318 0.60308 0.0
H1605 H 0.28685 0.11664 0.59255 0.0
H1606 H 0.3338 0.14352 0.58688 0.0
H1607 H 0.30522 0.10742 0.57532 0.0
H1608 H 0.34258 0.09147 0.54677 0.0
H1609 H 0.32777 0.09727 0.56841 0.0
H1610 H 0.33711 0.14336 0.56207 0.0
H1611 H 0.35231 0.13752 0.54129 0.0
C1612 C 0.31289 0.14296 0.59735 0.0
C1613 C 0.29948 0.13565 0.59899 0.0
C1614 C 0.32362 0.13749 0.5879 0.0
C1615 C 0.32097 0.12487 0.57937 0.0
C1616 C 0.30779 0.1171 0.5817 0.0
C1617 C 0.2972 0.12238 0.59154 0.0
C1618 C 0.34163 0.1028 0.55021 0.0
C1619 C 0.34866 0.11401 0.54227 0.0
C1620 C 0.33305 0.10616 0.56257 0.0
C1621 C 0.33117 0.12082 0.56715 0.0
C1622 C 0.33849 0.13191 0.55928 0.0
C1623 C 0.34718 0.12855 0.54716 0.0
H1624 H 0.13933 0.0561 0.86138 0.0
H1625 H 0.1257 0.03101 0.82365 0.0
H1626 H 0.15181 0.07369 0.84502 0.0
H1627 H 0.1385 0.04809 0.80751 0.0
H1628 H 0.17121 0.07564 0.78281 0.0
H1629 H 0.16579 0.05836 0.80267 0.0
H1630 H 0.13905 0.09107 0.82396 0.0
H1631 H 0.14414 0.10824 0.80398 0.0
C1632 C 0.13931 0.05419 0.84966 0.0
C1633 C 0.13152 0.04229 0.84372 0.0
C1634 C 0.1464 0.06421 0.84033 0.0
C1635 C 0.14618 0.06216 0.82503 0.0
C1636 C 0.13899 0.04984 0.81925 0.0
C1637 C 0.1316 0.04013 0.82848 0.0
C1638 C 0.16451 0.07928 0.79192 0.0
C1639 C 0.15799 0.09325 0.79178 0.0
C1640 C 0.16139 0.06938 0.80325 0.0
C1641 C 0.15199 0.0734 0.81481 0.0
C1642 C 0.14642 0.08774 0.81525 0.0
C1643 C 0.14927 0.09753 0.80377 0.0
H1644 H 0.21045 0.89217 0.11192 0.0
H1645 H 0.23558 0.88098 0.07341 0.0
H1646 H 0.19202 0.90428 0.09623 0.0
H1647 H 0.21764 0.89343 0.05793 0.0
H1648 H 0.18804 0.92563 0.03483 0.0
H1649 H 0.20591 0.92038 0.05419 0.0
H1650 H 0.17497 0.89126 0.07499 0.0
H1651 H 0.15721 0.89618 0.05549 0.0
C1652 C 0.21219 0.89263 0.10017 0.0
C1653 C 0.22436 0.88564 0.09382 0.0
C1654 C 0.20168 0.8995 0.09123 0.0
C1655 C 0.20349 0.89985 0.0759 0.0
C1656 C 0.21607 0.89348 0.06971 0.0
C1657 C 0.22628 0.8863 0.07856 0.0
C1658 C 0.18489 0.91843 0.04375 0.0
C1659 C 0.17126 0.91122 0.04358 0.0
C1660 C 0.19514 0.9154 0.05479 0.0
C1661 C 0.1918 0.90541 0.06605 0.0
C1662 C 0.17776 0.8991 0.06651 0.0
C1663 C 0.16765 0.90186 0.0553 0.0
H1664 H 0.21136 0.37232 0.11046 0.0
H1665 H 0.22565 0.34164 0.07733 0.0
H1666 H 0.19043 0.379 0.09533 0.0
H1667 H 0.20487 0.3487 0.06189 0.0
H1668 H 0.16244 0.36229 0.03853 0.0
H1669 H 0.17821 0.35071 0.05707 0.0
H1670 H 0.19 0.39358 0.07347 0.0
H1671 H 0.17431 0.40495 0.05538 0.0
C1672 C 0.2099 0.36684 0.10002 0.0
C1673 C 0.22028 0.35662 0.095 0.0
C1674 C 0.19793 0.37072 0.0913 0.0
C1675 C 0.19614 0.36465 0.07723 0.0
C1676 C 0.20589 0.35358 0.07267 0.0
C1677 C 0.21783 0.34955 0.08151 0.0
C1678 C 0.16822 0.36917 0.0463 0.0
C1679 C 0.16716 0.38454 0.04543 0.0
C1680 C 0.17733 0.36256 0.05684 0.0
C1681 C 0.18536 0.3712 0.06681 0.0
C1682 C 0.18382 0.38653 0.06619 0.0
C1683 C 0.17488 0.39308 0.05567 0.0
H1684 H 0.69306 0.1229 0.98584 0.0
H1685 H 0.65491 0.13951 0.96328 0.0
H1686 H 0.70898 0.1355 0.9684 0.0
H1687 H 0.67102 0.15178 0.94532 0.0
H1688 H 0.71092 0.1436 0.90888 0.0
H1689 H 0.69139 0.13822 0.92651 0.0
H1690 H 0.71383 0.1639 0.95927 0.0
H1691 H 0.73321 0.16966 0.94155 0.0
C1692 C 0.68809 0.12934 0.97717 0.0
C1693 C 0.67277 0.1302 0.97585 0.0
C1694 C 0.6972 0.13663 0.96727 0.0
C1695 C 0.69121 0.14465 0.95559 0.0
C1696 C 0.67587 0.14571 0.95431 0.0
C1697 C 0.66669 0.13873 0.96454 0.0
C1698 C 0.71147 0.14845 0.91972 0.0
C1699 C 0.72363 0.15699 0.92387 0.0
C1700 C 0.70025 0.14543 0.92976 0.0
C1701 C 0.70116 0.15063 0.94422 0.0
C1702 C 0.7129 0.15981 0.94815 0.0
C1703 C 0.72394 0.16313 0.938 0.0
H1704 H 0.12437 0.4031 0.21009 0.0
H1705 H 0.14011 0.44128 0.23323 0.0
H1706 H 0.11211 0.41921 0.19213 0.0
H1707 H 0.12749 0.45718 0.2158 0.0
H1708 H 0.0929 0.48092 0.18889 0.0
H1709 H 0.09872 0.4613 0.20632 0.0
H1710 H 0.12602 0.44041 0.17383 0.0
H1711 H 0.1206 0.46021 0.15651 0.0
C1712 C 0.12496 0.41488 0.21148 0.0
C1713 C 0.13324 0.42098 0.22295 0.0
C1714 C 0.11798 0.42406 0.20125 0.0
C1715 C 0.11879 0.4394 0.2027 0.0
C1716 C 0.12657 0.4454 0.21454 0.0
C1717 C 0.13386 0.4363 0.22444 0.0
C1718 C 0.09981 0.47193 0.18533 0.0
C1719 C 0.10638 0.47215 0.17138 0.0
C1720 C 0.10315 0.46074 0.1953 0.0
C1721 C 0.1128 0.44938 0.19137 0.0
C1722 C 0.11845 0.44898 0.17706 0.0
C1723 C 0.11539 0.46034 0.1672 0.0
H1724 H 0.789 0.842 0.43814 0.0
H1725 H 0.80292 0.8731 0.40525 0.0
H1726 H 0.8099 0.8489 0.45347 0.0
H1727 H 0.82399 0.87964 0.42026 0.0
H1728 H 0.84076 0.90503 0.46028 0.0
H1729 H 0.82483 0.89393 0.44223 0.0
H1730 H 0.83651 0.85083 0.45812 0.0
H1731 H 0.85251 0.86213 0.47662 0.0
C1732 C 0.79677 0.84997 0.43399 0.0
C1733 C 0.79417 0.85719 0.4206 0.0
C1734 C 0.80878 0.85391 0.44276 0.0
C1735 C 0.81848 0.86506 0.43824 0.0
C1736 C 0.81653 0.8713 0.42427 0.0
C1737 C 0.80448 0.8675 0.41561 0.0
C1738 C 0.84011 0.89317 0.45988 0.0
C1739 C 0.84787 0.88448 0.46998 0.0
C1740 C 0.83103 0.88676 0.44939 0.0
C1741 C 0.82939 0.87145 0.44863 0.0
C1742 C 0.83747 0.86267 0.45845 0.0
C1743 C 0.8467 0.86913 0.46898 0.0
H1744 H 0.90107 0.10586 0.22109 0.0
H1745 H 0.85777 0.08949 0.21105 0.0
H1746 H 0.91147 0.08961 0.20228 0.0
H1747 H 0.86803 0.07337 0.19259 0.0
H1748 H 0.88661 0.05193 0.15386 0.0
H1749 H 0.87997 0.07301 0.16882 0.0
H1750 H 0.91479 0.06256 0.19915 0.0
H1751 H 0.92169 0.04155 0.18395 0.0
C1752 C 0.89377 0.09897 0.21475 0.0
C1753 C 0.8786 0.09894 0.21761 0.0
C1754 C 0.89972 0.08961 0.20406 0.0
C1755 C 0.89058 0.08021 0.19589 0.0
C1756 C 0.87539 0.0806 0.19848 0.0
C1757 C 0.8695 0.08979 0.20918 0.0
C1758 C 0.89306 0.05427 0.16356 0.0
C1759 C 0.90454 0.04492 0.16783 0.0
C1760 C 0.8892 0.06634 0.17217 0.0
C1761 C 0.89665 0.0693 0.18534 0.0
C1762 C 0.90885 0.06061 0.18906 0.0
C1763 C 0.91278 0.04854 0.18036 0.0
H1764 H 0.30313 0.64001 0.6101 0.0
H1765 H 0.2847 0.67013 0.57853 0.0
H1766 H 0.32295 0.63416 0.59293 0.0
H1767 H 0.30432 0.6639 0.56123 0.0
H1768 H 0.32321 0.62328 0.53266 0.0
H1769 H 0.30735 0.63537 0.55051 0.0
H1770 H 0.34523 0.64801 0.57585 0.0
H1771 H 0.36134 0.63627 0.55755 0.0
C1772 C 0.3035 0.64561 0.59963 0.0
C1773 C 0.29233 0.65547 0.59562 0.0
C1774 C 0.31487 0.64231 0.58986 0.0
C1775 C 0.31509 0.64857 0.5758 0.0
C1776 C 0.30437 0.65899 0.57205 0.0
C1777 C 0.29319 0.66256 0.58196 0.0
C1778 C 0.3282 0.62876 0.54195 0.0
C1779 C 0.3435 0.62879 0.54378 0.0
C1780 C 0.31912 0.63576 0.55209 0.0
C1781 C 0.3251 0.64266 0.56446 0.0
C1782 C 0.34041 0.64281 0.56632 0.0
C1783 C 0.34958 0.63612 0.5559 0.0
H1784 H 0.11612 0.592 0.28261 0.0
H1785 H 0.1506 0.6059 0.31177 0.0
H1786 H 0.10705 0.57504 0.30133 0.0
H1787 H 0.14105 0.5899 0.33091 0.0
H1788 H 0.13707 0.54449 0.35064 0.0
H1789 H 0.14231 0.56511 0.33496 0.0
H1790 H 0.09631 0.56858 0.3239 0.0
H1791 H 0.09117 0.54716 0.33924 0.0
C1792 C 0.12139 0.59179 0.29326 0.0
C1793 C 0.13407 0.60012 0.29579 0.0
C1794 C 0.1162 0.5821 0.30403 0.0
C1795 C 0.12349 0.58077 0.31762 0.0
C1796 C 0.13543 0.59016 0.32045 0.0
C1797 C 0.14082 0.5995 0.30957 0.0
C1798 C 0.12798 0.5497 0.34502 0.0
C1799 C 0.11369 0.54407 0.34619 0.0
C1800 C 0.13099 0.56172 0.33606 0.0
C1801 C 0.11975 0.56871 0.32812 0.0
C1802 C 0.10531 0.56341 0.32967 0.0
C1803 C 0.10231 0.55118 0.33856 0.0
H1804 H 0.42301 0.47876 0.8294 0.0
H1805 H 0.39271 0.46153 0.8615 0.0
H1806 H 0.41633 0.45893 0.81256 0.0
H1807 H 0.3864 0.44148 0.84475 0.0
H1808 H 0.38841 0.40257 0.80902 0.0
H1809 H 0.40041 0.41857 0.82725 0.0
H1810 H 0.38683 0.45664 0.80267 0.0
H1811 H 0.37448 0.44089 0.78492 0.0
C1812 C 0.41532 0.47047 0.83307 0.0
C1813 C 0.4083 0.47176 0.84674 0.0
C1814 C 0.4115 0.45916 0.82341 0.0
C1815 C 0.40088 0.44874 0.82741 0.0
C1816 C 0.39471 0.44933 0.8415 0.0
C1817 C 0.39828 0.46083 0.85103 0.0
C1818 C 0.38809 0.41435 0.80753 0.0
C1819 C 0.38044 0.42051 0.79564 0.0
C1820 C 0.39493 0.42346 0.81791 0.0
C1821 C 0.3946 0.43878 0.81623 0.0
C1822 C 0.38734 0.44485 0.80411 0.0
C1823 C 0.3802 0.43584 0.79403 0.0
H1824 H 0.90505 0.80276 0.64399 0.0
H1825 H 0.93798 0.77958 0.66891 0.0
H1826 H 0.92241 0.82272 0.63956 0.0
H1827 H 0.95544 0.79945 0.66416 0.0
H1828 H 0.98268 0.82227 0.62548 0.0
H1829 H 0.96528 0.80569 0.63717 0.0
H1830 H 0.9403 0.84272 0.65282 0.0
H1831 H 0.95814 0.85952 0.64139 0.0
C1832 C 0.91589 0.8021 0.64881 0.0
C1833 C 0.92019 0.78956 0.65671 0.0
C1834 C 0.92578 0.81356 0.64634 0.0
C1835 C 0.94026 0.81256 0.65145 0.0
C1836 C 0.94432 0.80045 0.6601 0.0
C1837 C 0.93432 0.78912 0.66285 0.0
C1838 C 0.97357 0.82691 0.63154 0.0
C1839 C 0.9717 0.84218 0.63245 0.0
C1840 C 0.96369 0.81741 0.63834 0.0
C1841 C 0.95151 0.82294 0.64596 0.0
C1842 C 0.94966 0.83822 0.64705 0.0
C1843 C 0.95983 0.84779 0.64054 0.0
H1844 H 0.98289 0.18731 0.42179 0.0
H1845 H 0.96262 0.15481 0.39394 0.0
H1846 H 0.96334 0.20469 0.41562 0.0
H1847 H 0.94289 0.17207 0.38815 0.0
H1848 H 0.90536 0.20817 0.38971 0.0
H1849 H 0.92152 0.19006 0.40164 0.0
H1850 H 0.9594 0.21438 0.38707 0.0
H1851 H 0.94347 0.23204 0.37482 0.0
C1852 C 0.97401 0.18371 0.41477 0.0
C1853 C 0.97433 0.16973 0.40827 0.0
C1854 C 0.96287 0.19366 0.41122 0.0
C1855 C 0.95167 0.18968 0.40141 0.0
C1856 C 0.95135 0.17535 0.39582 0.0
C1857 C 0.96266 0.16551 0.3991 0.0
C1858 C 0.91714 0.20965 0.38917 0.0
C1859 C 0.92318 0.22142 0.38125 0.0
C1860 C 0.92634 0.19933 0.39597 0.0
C1861 C 0.94166 0.20095 0.39535 0.0
C1862 C 0.94762 0.21299 0.38785 0.0
C1863 C 0.9385 0.22301 0.38074 0.0
H1864 H 0.53416 0.17328 0.14909 0.0
H1865 H 0.56272 0.16028 0.11375 0.0
H1866 H 0.55265 0.19075 0.15767 0.0
H1867 H 0.58164 0.17681 0.12277 0.0
H1868 H 0.60034 0.22258 0.12626 0.0
H1869 H 0.58472 0.20183 0.12142 0.0
H1870 H 0.57554 0.19764 0.16777 0.0
H1871 H 0.59087 0.21917 0.17257 0.0
C1872 C 0.54464 0.1738 0.14352 0.0
C1873 C 0.54704 0.16556 0.13074 0.0
C1874 C 0.55527 0.18378 0.14842 0.0
C1875 C 0.5686 0.18551 0.14074 0.0
C1876 C 0.57136 0.17623 0.12869 0.0
C1877 C 0.56062 0.16659 0.1236 0.0
C1878 C 0.59514 0.2172 0.13551 0.0
C1879 C 0.59688 0.22262 0.14983 0.0
C1880 C 0.58622 0.20511 0.13272 0.0
C1881 C 0.57887 0.19783 0.14419 0.0
C1882 C 0.58088 0.20302 0.15862 0.0
C1883 C 0.58975 0.21531 0.16141 0.0
H1884 H 0.60602 0.79411 0.8999 0.0
H1885 H 0.58913 0.80424 0.8568 0.0
H1886 H 0.58988 0.8129 0.91051 0.0
H1887 H 0.57309 0.82259 0.86728 0.0
H1888 H 0.55172 0.86125 0.88596 0.0
H1889 H 0.57267 0.84627 0.87898 0.0
H1890 H 0.56313 0.81632 0.91444 0.0
H1891 H 0.54231 0.83161 0.9217 0.0
C1892 C 0.59903 0.80044 0.89269 0.0
C1893 C 0.59884 0.79763 0.87751 0.0
C1894 C 0.58972 0.81113 0.89877 0.0
C1895 C 0.58022 0.81931 0.88975 0.0
C1896 C 0.58042 0.81672 0.87456 0.0
C1897 C 0.58956 0.80605 0.86854 0.0
C1898 C 0.55425 0.85163 0.89246 0.0
C1899 C 0.54521 0.84751 0.90425 0.0
C1900 C 0.56623 0.84299 0.88842 0.0
C1901 C 0.56941 0.82991 0.89595 0.0
C1902 C 0.56102 0.82634 0.90842 0.0
C1903 C 0.54906 0.83509 0.91256 0.0
H1904 H 0.96859 0.16451 0.86557 0.0
H1905 H 0.96023 0.18127 0.90911 0.0
H1906 H 0.95005 0.18137 0.85565 0.0
H1907 H 0.94198 0.19793 0.89929 0.0
H1908 H 0.9021 0.21849 0.88144 0.0
H1909 H 0.91764 0.19781 0.88787 0.0
H1910 H 0.94724 0.20894 0.8526 0.0
H1911 H 0.93147 0.22967 0.84596 0.0
C1912 C 0.96268 0.17163 0.87303 0.0
C1913 C 0.96589 0.17156 0.88813 0.0
C1914 C 0.95216 0.18134 0.86734 0.0
C1915 C 0.9445 0.19095 0.87668 0.0
C1916 C 0.9475 0.19054 0.8918 0.0
C1917 C 0.95806 0.18103 0.89743 0.0
C1918 C 0.9118 0.21644 0.87488 0.0
C1919 C 0.91566 0.22589 0.86332 0.0
C1920 C 0.92073 0.20459 0.87861 0.0
C1921 C 0.93382 0.20189 0.87093 0.0
C1922 C 0.93721 0.21071 0.85872 0.0
C1923 C 0.92819 0.22261 0.85493 0.0
H1924 H 0.55133 0.15381 0.6256 0.0
H1925 H 0.53731 0.18572 0.59353 0.0
H1926 H 0.57201 0.16934 0.6321 0.0
H1927 H 0.55797 0.20153 0.60032 0.0
H1928 H 0.60154 0.22421 0.61353 0.0
H1929 H 0.58531 0.20571 0.60249 0.0
H1930 H 0.57151 0.19226 0.64578 0.0
H1931 H 0.58756 0.2104 0.65666 0.0
C1932 C 0.55279 0.16407 0.61977 0.0
C1933 C 0.54254 0.16864 0.60921 0.0
C1934 C 0.56463 0.173 0.62354 0.0
C1935 C 0.56647 0.18682 0.61696 0.0
C1936 C 0.55688 0.19093 0.60558 0.0
C1937 C 0.54503 0.18189 0.60171 0.0
C1938 C 0.59518 0.21712 0.62064 0.0
C1939 C 0.59583 0.2188 0.63597 0.0
C1940 C 0.58583 0.20661 0.61433 0.0
C1941 C 0.57717 0.19745 0.62325 0.0
C1942 C 0.57819 0.19894 0.63856 0.0
C1943 C 0.58734 0.20946 0.64481 0.0
H1944 H 0.53994 0.85536 0.36407 0.0
H1945 H 0.5551 0.84331 0.40731 0.0
H1946 H 0.55865 0.83932 0.35317 0.0
H1947 H 0.57335 0.82734 0.3966 0.0
H1948 H 0.6106 0.80516 0.37669 0.0
H1949 H 0.59567 0.82643 0.38281 0.0
H1950 H 0.56306 0.81264 0.35135 0.0
H1951 H 0.5783 0.79155 0.34485 0.0
C1952 C 0.54737 0.84948 0.37123 0.0
C1953 C 0.54597 0.85056 0.38656 0.0
C1954 C 0.55801 0.84022 0.365 0.0
C1955 C 0.56755 0.83205 0.374 0.0
C1956 C 0.56641 0.83362 0.38929 0.0
C1957 C 0.5558 0.84272 0.39546 0.0
C1958 C 0.60039 0.80684 0.37084 0.0
C1959 C 0.59552 0.79655 0.36045 0.0
C1960 C 0.59179 0.81899 0.3744 0.0
C1961 C 0.57799 0.82107 0.36783 0.0
C1962 C 0.57363 0.81141 0.3566 0.0
C1963 C 0.58235 0.79929 0.3529 0.0
H1964 H 0.92339 0.8066 0.15464 0.0
H1965 H 0.91474 0.78829 0.11181 0.0
H1966 H 0.93962 0.82459 0.14381 0.0
H1967 H 0.93114 0.80666 0.10078 0.0
H1968 H 0.97907 0.82784 0.09498 0.0
H1969 H 0.95822 0.81193 0.1009 0.0
H1970 H 0.94003 0.84608 0.12823 0.0
H1971 H 0.96092 0.86171 0.12267 0.0
C1972 C 0.9248 0.80654 0.14284 0.0
C1973 C 0.91779 0.79596 0.13411 0.0
C1974 C 0.93406 0.81697 0.13659 0.0
C1975 C 0.93665 0.81714 0.12139 0.0
C1976 C 0.9294 0.80678 0.11253 0.0
C1977 C 0.91994 0.79635 0.11882 0.0
C1978 C 0.97042 0.83205 0.10196 0.0
C1979 C 0.97176 0.84591 0.10858 0.0
C1980 C 0.95846 0.82295 0.10533 0.0
C1981 C 0.94761 0.82763 0.11529 0.0
C1982 C 0.94837 0.842 0.12082 0.0
C1983 C 0.96033 0.85098 0.11759 0.0
H1984 H 0.65192 0.97534 0.85145 0.0
H1985 H 0.60908 0.95913 0.83934 0.0
H1986 H 0.66329 0.95699 0.83528 0.0
H1987 H 0.62026 0.9412 0.8233 0.0
H1988 H 0.64138 0.90368 0.80243 0.0
H1989 H 0.63473 0.9191 0.82316 0.0
H1990 H 0.66513 0.95227 0.80832 0.0
H1991 H 0.67213 0.93655 0.78768 0.0
C1992 C 0.64495 0.96776 0.84552 0.0
C1993 C 0.62959 0.96873 0.84667 0.0
C1994 C 0.65146 0.95733 0.83619 0.0
C1995 C 0.64271 0.94756 0.82802 0.0
C1996 C 0.62739 0.94833 0.82958 0.0
C1997 C 0.62095 0.95875 0.83873 0.0
C1998 C 0.64688 0.91414 0.80373 0.0
C1999 C 0.65712 0.91899 0.79328 0.0
C2000 C 0.64301 0.92301 0.81559 0.0
C2001 C 0.64914 0.93707 0.81724 0.0
C2002 C 0.66021 0.9415 0.8074 0.0
C2003 C 0.6642 0.93251 0.79555 0.0
H2004 H 0.8272 0.92099 0.5338 0.0
H2005 H 0.8587 0.89252 0.55479 0.0
H2006 H 0.80939 0.91543 0.55315 0.0
H2007 H 0.841 0.88732 0.5743 0.0
H2008 H 0.80502 0.88866 0.61122 0.0
H2009 H 0.82338 0.90062 0.59534 0.0
H2010 H 0.79856 0.88784 0.55715 0.0
H2011 H 0.78067 0.87556 0.5728 0.0
C2012 C 0.83049 0.91395 0.54278 0.0
C2013 C 0.8443 0.9071 0.54272 0.0
C2014 C 0.82029 0.91075 0.55382 0.0
C2015 C 0.82385 0.90094 0.56517 0.0
C2016 C 0.83804 0.895 0.56573 0.0
C2017 C 0.84812 0.89793 0.55453 0.0
C2018 C 0.80346 0.88859 0.59944 0.0
C2019 C 0.79151 0.88112 0.59321 0.0
C2020 C 0.81393 0.89539 0.5904 0.0
C2021 C 0.81228 0.89521 0.57506 0.0
C2022 C 0.79999 0.88828 0.56894 0.0
C2023 C 0.78982 0.88117 0.57789 0.0
H2024 H 0.89895 0.06342 0.35449 0.0
H2025 H 0.86589 0.03326 0.33931 0.0
H2026 H 0.88935 0.08233 0.33827 0.0
H2027 H 0.85681 0.0518 0.32215 0.0
H2028 H 0.84064 0.08998 0.29429 0.0
H2029 H 0.84556 0.07425 0.31553 0.0
H2030 H 0.89137 0.08638 0.31348 0.0
H2031 H 0.88636 0.10235 0.29306 0.0
C2032 C 0.88947 0.06095 0.34776 0.0
C2033 C 0.88314 0.04696 0.34811 0.0
C2034 C 0.88406 0.0717 0.3383 0.0
C2035 C 0.87253 0.06855 0.3285 0.0
C2036 C 0.86563 0.05473 0.32952 0.0
C2037 C 0.87084 0.04407 0.33933 0.0
C2038 C 0.85168 0.08942 0.29857 0.0
C2039 C 0.86307 0.09747 0.29194 0.0
C2040 C 0.85455 0.08032 0.3107 0.0
C2041 C 0.86888 0.07902 0.31639 0.0
C2042 C 0.88012 0.08729 0.3098 0.0
C2043 C 0.87725 0.09642 0.29789 0.0
H2044 H 0.68729 0.0893 0.03882 0.0
H2045 H 0.65675 0.12106 0.05622 0.0
H2046 H 0.70452 0.09517 0.05853 0.0
H2047 H 0.67389 0.12664 0.0761 0.0
H2048 H 0.70842 0.12696 0.11423 0.0
H2049 H 0.68994 0.11455 0.09882 0.0
H2050 H 0.71693 0.122 0.06065 0.0
H2051 H 0.73493 0.13474 0.0758 0.0
C2052 C 0.68403 0.09716 0.04711 0.0
C2053 C 0.67071 0.10482 0.04588 0.0
C2054 C 0.69392 0.10053 0.05836 0.0
C2055 C 0.69053 0.11138 0.06878 0.0
C2056 C 0.67672 0.11816 0.06827 0.0
C2057 C 0.66695 0.11501 0.05685 0.0
C2058 C 0.71043 0.1257 0.10258 0.0
C2059 C 0.72302 0.13182 0.09615 0.0
C2060 C 0.69989 0.11867 0.0938 0.0
C2061 C 0.70209 0.11725 0.07859 0.0
C2062 C 0.71504 0.12278 0.07236 0.0
C2063 C 0.72529 0.13014 0.08101 0.0
H2064 H 0.62299 0.03202 0.69326 0.0
H2065 H 0.63698 0.05615 0.65499 0.0
H2066 H 0.63555 0.04959 0.70904 0.0
H2067 H 0.64921 0.0742 0.67099 0.0
H2068 H 0.64157 0.10936 0.71203 0.0
H2069 H 0.63606 0.09202 0.69229 0.0
H2070 H 0.66365 0.05965 0.71296 0.0
H2071 H 0.66953 0.07709 0.73254 0.0
C2072 C 0.62883 0.04107 0.68823 0.0
C2073 C 0.62896 0.04278 0.67291 0.0
C2074 C 0.6361 0.05105 0.69725 0.0
C2075 C 0.6434 0.06317 0.69121 0.0
C2076 C 0.64372 0.06486 0.67587 0.0
C2077 C 0.63675 0.05458 0.66676 0.0
C2078 C 0.64682 0.09869 0.71212 0.0
C2079 C 0.65592 0.09455 0.72387 0.0
C2080 C 0.64371 0.08882 0.70079 0.0
C2081 C 0.6494 0.07452 0.70116 0.0
C2082 C 0.65916 0.07064 0.71244 0.0
C2083 C 0.66255 0.08063 0.7236 0.0
H2084 H 0.7101 0.88946 0.40604 0.0
H2085 H 0.73316 0.87452 0.44458 0.0
H2086 H 0.69203 0.90195 0.42185 0.0
H2087 H 0.71559 0.88734 0.46019 0.0
H2088 H 0.68846 0.92244 0.48312 0.0
H2089 H 0.70612 0.91598 0.4639 0.0
H2090 H 0.67356 0.88878 0.44302 0.0
H2091 H 0.65601 0.89486 0.46242 0.0
C2092 C 0.71144 0.88908 0.41784 0.0
C2093 C 0.72295 0.88096 0.42411 0.0
C2094 C 0.70114 0.89619 0.42685 0.0
C2095 C 0.70253 0.89567 0.4422 0.0
C2096 C 0.71437 0.88804 0.44838 0.0
C2097 C 0.72435 0.88063 0.43946 0.0
C2098 C 0.68494 0.91541 0.47422 0.0
C2099 C 0.67088 0.90908 0.47433 0.0
C2100 C 0.69505 0.91169 0.46326 0.0
C2101 C 0.69116 0.90189 0.45202 0.0
C2102 C 0.67677 0.89645 0.4515 0.0
C2103 C 0.66677 0.89989 0.46264 0.0
H2104 H 0.87389 0.96023 0.15501 0.0
H2105 H 0.88907 0.98391 0.19309 0.0
H2106 H 0.86161 0.94236 0.17118 0.0
H2107 H 0.87648 0.96651 0.20905 0.0
H2108 H 0.84249 0.93947 0.23318 0.0
H2109 H 0.84843 0.957 0.21367 0.0
H2110 H 0.87458 0.9241 0.19195 0.0
H2111 H 0.86901 0.90669 0.21161 0.0
C2112 C 0.87438 0.96174 0.16678 0.0
C2113 C 0.88251 0.97337 0.17282 0.0
C2114 C 0.86738 0.95156 0.17599 0.0
C2115 C 0.86802 0.95317 0.19133 0.0
C2116 C 0.87567 0.96512 0.19727 0.0
C2117 C 0.88297 0.975 0.18814 0.0
C2118 C 0.84915 0.93585 0.22403 0.0
C2119 C 0.85537 0.92175 0.22397 0.0
C2120 C 0.85258 0.94589 0.21291 0.0
C2121 C 0.86197 0.94187 0.20135 0.0
C2122 C 0.86723 0.92742 0.20068 0.0
C2123 C 0.86408 0.9175 0.21196 0.0
H2124 H 0.82846 0.09207 0.978 0.0
H2125 H 0.86195 0.12129 0.96165 0.0
H2126 H 0.81261 0.09878 0.95739 0.0
H2127 H 0.84644 0.12757 0.94088 0.0
H2128 H 0.80696 0.15394 0.92451 0.0
H2129 H 0.8251 0.1427 0.94023 0.0
H2130 H 0.807 0.09991 0.93089 0.0
H2131 H 0.78839 0.11137 0.91512 0.0
C2132 C 0.83261 0.09957 0.96977 0.0
C2133 C 0.84634 0.10635 0.97158 0.0
C2134 C 0.82354 0.1034 0.95792 0.0
C2135 C 0.82812 0.11396 0.94762 0.0
C2136 C 0.84239 0.11971 0.94881 0.0
C2137 C 0.85132 0.11605 0.96069 0.0
C2138 C 0.80689 0.1421 0.92562 0.0
C2139 C 0.79615 0.13357 0.91859 0.0
C2140 C 0.81743 0.13561 0.93457 0.0
C2141 C 0.8176 0.12036 0.93683 0.0
C2142 C 0.80713 0.1117 0.92946 0.0
C2143 C 0.79655 0.11824 0.92034 0.0
H2144 H 0.79423 0.62979 0.91476 0.0
H2145 H 0.79582 0.67546 0.92729 0.0
H2146 H 0.81511 0.62471 0.93013 0.0
H2147 H 0.81748 0.67049 0.94235 0.0
H2148 H 0.84163 0.65006 0.98296 0.0
H2149 H 0.82438 0.65927 0.96461 0.0
H2150 H 0.83995 0.6266 0.93391 0.0
H2151 H 0.85628 0.61688 0.95265 0.0
C2152 C 0.79924 0.63887 0.92057 0.0
C2153 C 0.79325 0.65304 0.91979 0.0
C2154 C 0.81141 0.63596 0.92935 0.0
C2155 C 0.81819 0.64718 0.93751 0.0
C2156 C 0.81249 0.66151 0.93638 0.0
C2157 C 0.80013 0.6644 0.92766 0.0
C2158 C 0.84153 0.64512 0.97216 0.0
C2159 C 0.85015 0.63271 0.96921 0.0
C2160 C 0.83166 0.6504 0.96159 0.0
C2161 C 0.83044 0.64349 0.9478 0.0
C2162 C 0.84013 0.6319 0.94453 0.0
C2163 C 0.84965 0.62642 0.95519 0.0
H2164 H 0.28575 0.84388 0.07573 0.0
H2165 H 0.30531 0.87308 0.1075 0.0
H2166 H 0.30557 0.84944 0.0585 0.0
H2167 H 0.32531 0.8783 0.09034 0.0
H2168 H 0.36318 0.87653 0.05476 0.0
H2169 H 0.34711 0.86454 0.07296 0.0
H2170 H 0.30917 0.87759 0.0479 0.0
H2171 H 0.32502 0.88994 0.03021 0.0
C2172 C 0.29452 0.85109 0.07923 0.0
C2173 C 0.29389 0.85815 0.09293 0.0
C2174 C 0.30583 0.85428 0.06935 0.0
C2175 C 0.31692 0.86429 0.07312 0.0
C2176 C 0.31695 0.87044 0.08723 0.0
C2177 C 0.30547 0.86751 0.097 0.0
C2178 C 0.35142 0.87663 0.05312 0.0
C2179 C 0.34529 0.88418 0.04116 0.0
C2180 C 0.34227 0.86983 0.06349 0.0
C2181 C 0.32694 0.87009 0.06172 0.0
C2182 C 0.32094 0.8771 0.04942 0.0
C2183 C 0.33 0.88423 0.03936 0.0
H2184 H 0.89387 0.55365 0.85878 0.0
H2185 H 0.92195 0.53456 0.82573 0.0
H2186 H 0.88743 0.57347 0.84183 0.0
H2187 H 0.91515 0.55418 0.80871 0.0
H2188 H 0.87294 0.57266 0.78235 0.0
H2189 H 0.88605 0.55711 0.79973 0.0
H2190 H 0.90032 0.59545 0.8235 0.0
H2191 H 0.88754 0.61124 0.80562 0.0
C2192 C 0.89895 0.55389 0.84804 0.0
C2193 C 0.90835 0.5425 0.84356 0.0
C2194 C 0.89531 0.56526 0.83839 0.0
C2195 C 0.90078 0.56528 0.824 0.0
C2196 C 0.91085 0.5544 0.81979 0.0
C2197 C 0.91475 0.54321 0.82955 0.0
C2198 C 0.879 0.57781 0.79118 0.0
C2199 C 0.87918 0.59314 0.79269 0.0
C2200 C 0.88658 0.56891 0.80105 0.0
C2201 C 0.89423 0.57511 0.81286 0.0
C2202 C 0.89454 0.59046 0.81439 0.0
C2203 C 0.88727 0.59944 0.80421 0.0
H2204 H 0.16686 0.14992 0.53956 0.0
H2205 H 0.1789 0.10677 0.55501 0.0
H2206 H 0.18331 0.16093 0.55787 0.0
H2207 H 0.19522 0.11761 0.57291 0.0
H2208 H 0.21574 0.13844 0.61101 0.0
H2209 H 0.19526 0.13182 0.59528 0.0
H2210 H 0.21038 0.16253 0.56252 0.0
H2211 H 0.23082 0.16947 0.57853 0.0
C2212 C 0.17286 0.14281 0.54695 0.0
C2213 C 0.17158 0.12746 0.5458 0.0
C2214 C 0.18234 0.1491 0.55735 0.0
C2215 C 0.19054 0.14016 0.56692 0.0
C2216 C 0.18891 0.12486 0.56593 0.0
C2217 C 0.17961 0.11862 0.55554 0.0
C2218 C 0.21459 0.14399 0.60056 0.0
C2219 C 0.22505 0.15432 0.59593 0.0
C2220 C 0.20286 0.14015 0.59151 0.0
C2221 C 0.20134 0.14641 0.5775 0.0
C2222 C 0.2112 0.15751 0.57326 0.0
C2223 C 0.22294 0.16147 0.58241 0.0
H2224 H 0.1399 0.94284 0.78356 0.0
H2225 H 0.12328 0.90437 0.80562 0.0
H2226 H 0.12697 0.95852 0.80098 0.0
H2227 H 0.11069 0.92027 0.82358 0.0
H2228 H 0.11863 0.96187 0.8595 0.0
H2229 H 0.12465 0.94197 0.84248 0.0
H2230 H 0.09722 0.96184 0.8095 0.0
H2231 H 0.09081 0.98154 0.82659 0.0
C2232 C 0.13342 0.93775 0.79213 0.0
C2233 C 0.13261 0.92241 0.79329 0.0
C2234 C 0.12596 0.94672 0.80202 0.0
C2235 C 0.11781 0.94057 0.81353 0.0
C2236 C 0.11686 0.92522 0.81471 0.0
C2237 C 0.12402 0.91618 0.80448 0.0
C2238 C 0.1135 0.96174 0.84878 0.0
C2239 C 0.10431 0.97331 0.84436 0.0
C2240 C 0.11691 0.95032 0.83909 0.0
C2241 C 0.1114 0.95043 0.82473 0.0
C2242 C 0.10153 0.9615 0.82057 0.0
C2243 C 0.09785 0.97274 0.83037 0.0
H2244 H 0.66644 0.36204 0.47653 0.0
H2245 H 0.67568 0.40468 0.45805 0.0
H2246 H 0.68309 0.35077 0.45854 0.0
H2247 H 0.69216 0.3936 0.44042 0.0
H2248 H 0.71372 0.37183 0.40366 0.0
H2249 H 0.69276 0.37782 0.41904 0.0
H2250 H 0.71028 0.35068 0.45367 0.0
H2251 H 0.73122 0.34434 0.43802 0.0
C2252 C 0.67182 0.36896 0.46851 0.0
C2253 C 0.66976 0.38426 0.46874 0.0
C2254 C 0.68143 0.36253 0.4583 0.0
C2255 C 0.68893 0.37127 0.44799 0.0
C2256 C 0.68642 0.38648 0.448 0.0
C2257 C 0.67702 0.39287 0.45822 0.0
C2258 C 0.71298 0.36689 0.41445 0.0
C2259 C 0.72425 0.35779 0.41971 0.0
C2260 C 0.70098 0.37037 0.42329 0.0
C2261 C 0.69999 0.365 0.43771 0.0
C2262 C 0.71069 0.35499 0.4426 0.0
C2263 C 0.7227 0.35138 0.43366 0.0
H2264 H 0.89082 0.46389 0.65382 0.0
H2265 H 0.92143 0.4789 0.68668 0.0
H2266 H 0.88397 0.44339 0.66946 0.0
H2267 H 0.91425 0.45847 0.70261 0.0
H2268 H 0.85813 0.42758 0.70954 0.0
H2269 H 0.86939 0.44355 0.69157 0.0
H2270 H 0.91235 0.4315 0.70748 0.0
H2271 H 0.90091 0.41541 0.72584 0.0
C2272 C 0.89625 0.46269 0.66433 0.0
C2273 C 0.90651 0.47315 0.6691 0.0
C2274 C 0.89227 0.45096 0.67333 0.0
C2275 C 0.89831 0.44945 0.68743 0.0
C2276 C 0.90939 0.45929 0.6918 0.0
C2277 C 0.91349 0.47101 0.68269 0.0
C2278 C 0.86999 0.42817 0.70918 0.0
C2279 C 0.8786 0.42022 0.71919 0.0
C2280 C 0.87648 0.43728 0.69875 0.0
C2281 C 0.89181 0.43878 0.698 0.0
C2282 C 0.90051 0.43063 0.70781 0.0
C2283 C 0.89397 0.42134 0.71825 0.0
H2284 H 0.64753 0.60781 0.2029 0.0
H2285 H 0.61492 0.59263 0.23359 0.0
H2286 H 0.63768 0.59153 0.18417 0.0
H2287 H 0.60559 0.57545 0.21523 0.0
H2288 H 0.58931 0.54676 0.17815 0.0
H2289 H 0.59417 0.56855 0.19305 0.0
H2290 H 0.63985 0.56669 0.18035 0.0
H2291 H 0.63487 0.54566 0.16514 0.0
C2292 C 0.63808 0.60109 0.20553 0.0
C2293 C 0.63199 0.60141 0.21964 0.0
C2294 C 0.63252 0.5916 0.19487 0.0
C2295 C 0.62108 0.58178 0.19824 0.0
C2296 C 0.61435 0.58284 0.21214 0.0
C2297 C 0.61969 0.59268 0.2227 0.0
C2298 C 0.60032 0.55121 0.17837 0.0
C2299 C 0.61169 0.54441 0.17044 0.0
C2300 C 0.60315 0.56365 0.18701 0.0
C2301 C 0.61742 0.56951 0.18797 0.0
C2302 C 0.62863 0.56285 0.1797 0.0
C2303 C 0.62579 0.55059 0.17102 0.0
H2304 H 0.58303 0.72705 0.84329 0.0
H2305 H 0.61232 0.71558 0.87871 0.0
H2306 H 0.56682 0.70675 0.85025 0.0
H2307 H 0.59637 0.69529 0.88542 0.0
H2308 H 0.55377 0.67998 0.90731 0.0
H2309 H 0.57231 0.69605 0.89708 0.0
H2310 H 0.56303 0.67951 0.85368 0.0
H2311 H 0.54415 0.66328 0.86402 0.0
C2312 C 0.58621 0.71998 0.8523 0.0
C2313 C 0.59883 0.72308 0.8606 0.0
C2314 C 0.57693 0.70834 0.85627 0.0
C2315 C 0.58017 0.69958 0.86857 0.0
C2316 C 0.59338 0.70204 0.87611 0.0
C2317 C 0.60255 0.71365 0.87222 0.0
C2318 C 0.55571 0.67963 0.89559 0.0
C2319 C 0.54743 0.67034 0.88649 0.0
C2320 C 0.56645 0.68879 0.88972 0.0
C2321 C 0.56923 0.68902 0.87456 0.0
C2322 C 0.56111 0.67961 0.8654 0.0
C2323 C 0.55038 0.67027 0.87133 0.0
H2324 H 0.55167 0.36239 0.12983 0.0
H2325 H 0.54 0.33355 0.0941 0.0
H2326 H 0.57216 0.3465 0.13604 0.0
H2327 H 0.56051 0.31741 0.10054 0.0
H2328 H 0.58738 0.30329 0.15708 0.0
H2329 H 0.57135 0.32211 0.1473 0.0
H2330 H 0.58794 0.31385 0.10369 0.0
H2331 H 0.60415 0.29472 0.11359 0.0
C2332 C 0.5536 0.35275 0.12315 0.0
C2333 C 0.54405 0.34912 0.11161 0.0
C2334 C 0.56533 0.34361 0.12675 0.0
C2335 C 0.56779 0.33054 0.11897 0.0
C2336 C 0.55892 0.32742 0.10673 0.0
C2337 C 0.54715 0.33665 0.10306 0.0
C2338 C 0.58776 0.30553 0.14541 0.0
C2339 C 0.59704 0.29747 0.13612 0.0
C2340 C 0.57862 0.31643 0.13981 0.0
C2341 C 0.57841 0.31955 0.12471 0.0
C2342 C 0.58783 0.31166 0.11537 0.0
C2343 C 0.59717 0.30079 0.12104 0.0
H2344 H 0.9521 0.35603 0.4005 0.0
H2345 H 0.98154 0.34356 0.36569 0.0
H2346 H 0.93347 0.33953 0.39084 0.0
H2347 H 0.96339 0.32608 0.35652 0.0
H2348 H 0.92642 0.29703 0.3405 0.0
H2349 H 0.94111 0.31887 0.34581 0.0
H2350 H 0.93012 0.31468 0.39179 0.0
H2351 H 0.91506 0.29367 0.38638 0.0
C2352 C 0.95447 0.34983 0.39064 0.0
C2353 C 0.96819 0.35101 0.38383 0.0
C2354 C 0.94389 0.3402 0.38518 0.0
C2355 C 0.94698 0.33106 0.3731 0.0
C2356 C 0.96048 0.33293 0.36577 0.0
C2357 C 0.97094 0.34293 0.37102 0.0
C2358 C 0.92698 0.30098 0.35168 0.0
C2359 C 0.91954 0.29357 0.36299 0.0
C2360 C 0.9355 0.31345 0.35477 0.0
C2361 C 0.93687 0.31869 0.36926 0.0
C2362 C 0.92914 0.31136 0.38044 0.0
C2363 C 0.92053 0.29911 0.37733 0.0
H2364 H 0.97281 0.66403 0.63406 0.0
H2365 H 0.97387 0.67835 0.5889 0.0
H2366 H 0.95172 0.67922 0.63857 0.0
H2367 H 0.95194 0.69329 0.59327 0.0
H2368 H 0.92585 0.73269 0.61403 0.0
H2369 H 0.94392 0.715 0.60502 0.0
H2370 H 0.927 0.68266 0.63536 0.0
H2371 H 0.90984 0.70073 0.64496 0.0
C2372 C 0.96836 0.67022 0.62495 0.0
C2373 C 0.97513 0.66994 0.61109 0.0
C2374 C 0.95605 0.6789 0.62752 0.0
C2375 C 0.94987 0.68747 0.61627 0.0
C2376 C 0.95642 0.68696 0.60226 0.0
C2377 C 0.96895 0.67832 0.59971 0.0
C2378 C 0.92585 0.72167 0.61849 0.0
C2379 C 0.91657 0.71805 0.63024 0.0
C2380 C 0.93619 0.71149 0.61333 0.0
C2381 C 0.93725 0.69743 0.61968 0.0
C2382 C 0.92696 0.69351 0.63054 0.0
C2383 C 0.91695 0.70378 0.63594 0.0
H2384 H 0.54133 0.35196 0.6507 0.0
H2385 H 0.55505 0.33747 0.60772 0.0
H2386 H 0.55981 0.33583 0.6619 0.0
H2387 H 0.57319 0.32153 0.61876 0.0
H2388 H 0.61162 0.30157 0.63913 0.0
H2389 H 0.59615 0.32225 0.63249 0.0
H2390 H 0.56386 0.30842 0.66428 0.0
H2391 H 0.57961 0.28775 0.67121 0.0
C2392 C 0.54839 0.34551 0.64366 0.0
C2393 C 0.5467 0.34598 0.62832 0.0
C2394 C 0.55889 0.33622 0.65007 0.0
C2395 C 0.56803 0.32745 0.64123 0.0
C2396 C 0.56653 0.32829 0.62591 0.0
C2397 C 0.55602 0.33738 0.61956 0.0
C2398 C 0.60136 0.30308 0.64493 0.0
C2399 C 0.59673 0.29289 0.65553 0.0
C2400 C 0.59247 0.31492 0.64109 0.0
C2401 C 0.57863 0.3168 0.64762 0.0
C2402 C 0.57447 0.30728 0.65905 0.0
C2403 C 0.58347 0.29543 0.663 0.0
H2404 H 0.96952 0.34327 0.92239 0.0
H2405 H 0.97542 0.35002 0.87585 0.0
H2406 H 0.94737 0.32889 0.9174 0.0
H2407 H 0.95408 0.33529 0.87086 0.0
H2408 H 0.91161 0.31552 0.8624 0.0
H2409 H 0.92894 0.33383 0.87117 0.0
H2410 H 0.93934 0.30604 0.90821 0.0
H2411 H 0.92106 0.28826 0.89983 0.0
C2412 C 0.96609 0.34173 0.91112 0.0
C2413 C 0.97424 0.34786 0.89954 0.0
C2414 C 0.95343 0.33341 0.90824 0.0
C2415 C 0.94875 0.33095 0.8937 0.0
C2416 C 0.95695 0.33722 0.88222 0.0
C2417 C 0.96938 0.34562 0.88509 0.0
C2418 C 0.91733 0.31358 0.87263 0.0
C2419 C 0.91507 0.30054 0.88044 0.0
C2420 C 0.92742 0.32396 0.8776 0.0
C2421 C 0.93595 0.32129 0.89021 0.0
C2422 C 0.93299 0.30857 0.89851 0.0
C2423 C 0.92254 0.29835 0.89372 0.0
H2424 H 0.98239 0.69096 0.12663 0.0
H2425 H 0.95696 0.65344 0.14037 0.0
H2426 H 0.96475 0.70731 0.13833 0.0
H2427 H 0.93889 0.67002 0.15175 0.0
H2428 H 0.90468 0.71131 0.14308 0.0
H2429 H 0.92184 0.69127 0.13815 0.0
H2430 H 0.95406 0.71205 0.16584 0.0
H2431 H 0.93677 0.73195 0.17112 0.0
C2432 C 0.97303 0.68621 0.13221 0.0
C2433 C 0.97099 0.67094 0.13253 0.0
C2434 C 0.96302 0.69557 0.13901 0.0
C2435 C 0.95054 0.6899 0.146 0.0
C2436 C 0.94849 0.67462 0.14648 0.0
C2437 C 0.95879 0.66518 0.13999 0.0
C2438 C 0.91527 0.71138 0.14846 0.0
C2439 C 0.91942 0.72324 0.15742 0.0
C2440 C 0.92504 0.69989 0.14568 0.0
C2441 C 0.93925 0.70019 0.15158 0.0
C2442 C 0.94314 0.7116 0.16119 0.0
C2443 C 0.93324 0.72294 0.16424 0.0
H2444 H 0.55494 0.65682 0.39659 0.0
H2445 H 0.53028 0.6888 0.42136 0.0
H2446 H 0.57399 0.67512 0.39189 0.0
H2447 H 0.54922 0.7072 0.41631 0.0
H2448 H 0.57072 0.73501 0.37704 0.0
H2449 H 0.55497 0.71709 0.38912 0.0
H2450 H 0.59314 0.69411 0.40505 0.0
H2451 H 0.60907 0.7125 0.39325 0.0
C2452 C 0.55376 0.66766 0.40132 0.0
C2453 C 0.54108 0.6714 0.40928 0.0
C2454 C 0.5647 0.6781 0.39868 0.0
C2455 C 0.56302 0.69256 0.40368 0.0
C2456 C 0.55076 0.6961 0.41234 0.0
C2457 C 0.53996 0.68556 0.41527 0.0
C2458 C 0.57577 0.72626 0.3833 0.0
C2459 C 0.59111 0.7251 0.38416 0.0
C2460 C 0.56675 0.71608 0.3903 0.0
C2461 C 0.57284 0.70427 0.39807 0.0
C2462 C 0.5882 0.70317 0.39917 0.0
C2463 C 0.59728 0.71366 0.39246 0.0
H2464 H 0.87378 0.61134 0.71337 0.0
H2465 H 0.8414 0.57896 0.72552 0.0
H2466 H 0.88122 0.59623 0.69268 0.0
H2467 H 0.84914 0.56358 0.70489 0.0
H2468 H 0.86421 0.54129 0.66199 0.0
H2469 H 0.85243 0.55964 0.67785 0.0
H2470 H 0.89507 0.57354 0.69309 0.0
H2471 H 0.90668 0.55556 0.67737 0.0
C2472 C 0.86808 0.60108 0.71149 0.0
C2473 C 0.85715 0.59625 0.72123 0.0
C2474 C 0.8724 0.59238 0.69965 0.0
C2475 C 0.86601 0.57854 0.69731 0.0
C2476 C 0.85427 0.57419 0.70636 0.0
C2477 C 0.84985 0.583 0.7182 0.0
C2478 C 0.87102 0.54845 0.66858 0.0
C2479 C 0.88638 0.54693 0.66844 0.0
C2480 C 0.86428 0.55888 0.67772 0.0
C2481 C 0.8728 0.56811 0.6867 0.0
C2482 C 0.88815 0.56681 0.68617 0.0
C2483 C 0.89483 0.55638 0.67721 0.0
H2484 H 0.70821 0.62558 0.90387 0.0
H2485 H 0.73061 0.64128 0.94252 0.0
H2486 H 0.68968 0.61369 0.91961 0.0
H2487 H 0.71256 0.62904 0.95804 0.0
H2488 H 0.68586 0.59216 0.97984 0.0
H2489 H 0.70319 0.59892 0.96045 0.0
H2490 H 0.67119 0.62835 0.94191 0.0
H2491 H 0.65394 0.62199 0.96153 0.0
C2492 C 0.70927 0.62632 0.91568 0.0
C2493 C 0.72077 0.63443 0.92198 0.0
C2494 C 0.69871 0.61955 0.92463 0.0
C2495 C 0.69983 0.6204 0.93999 0.0
C2496 C 0.71156 0.62813 0.94623 0.0
C2497 C 0.72181 0.63521 0.93734 0.0
C2498 C 0.68235 0.59975 0.9714 0.0
C2499 C 0.66856 0.60661 0.97226 0.0
C2500 C 0.69228 0.60363 0.96035 0.0
C2501 C 0.68847 0.61412 0.94974 0.0
C2502 C 0.67431 0.62014 0.94991 0.0
C2503 C 0.66449 0.61653 0.96116 0.0
H2504 H 0.64316 0.40418 0.21105 0.0
H2505 H 0.67122 0.43609 0.23198 0.0
H2506 H 0.63723 0.42201 0.19185 0.0
H2507 H 0.6649 0.45402 0.21297 0.0
H2508 H 0.62416 0.48201 0.19379 0.0
H2509 H 0.63625 0.46387 0.20931 0.0
H2510 H 0.65095 0.44054 0.17087 0.0
H2511 H 0.6392 0.45913 0.15514 0.0
C2512 C 0.64831 0.41489 0.21136 0.0
C2513 C 0.65761 0.41876 0.22305 0.0
C2514 C 0.64496 0.42504 0.20035 0.0
C2515 C 0.65059 0.43935 0.201 0.0
C2516 C 0.66046 0.44302 0.21224 0.0
C2517 C 0.6641 0.43275 0.22307 0.0
C2518 C 0.63008 0.4731 0.18861 0.0
C2519 C 0.63069 0.47194 0.17325 0.0
C2520 C 0.63708 0.4628 0.19751 0.0
C2521 C 0.64457 0.45089 0.19126 0.0
C2522 C 0.64529 0.44969 0.1759 0.0
C2523 C 0.6386 0.46029 0.16694 0.0
H2524 H 0.81422 0.36507 0.41223 0.0
H2525 H 0.78368 0.39843 0.42591 0.0
H2526 H 0.83269 0.37502 0.42874 0.0
H2527 H 0.80173 0.40788 0.44339 0.0
H2528 H 0.83916 0.42471 0.47187 0.0
H2529 H 0.82392 0.41929 0.45041 0.0
H2530 H 0.83621 0.37358 0.4536 0.0
H2531 H 0.85173 0.37908 0.47421 0.0
C2532 C 0.81157 0.37468 0.41871 0.0
C2533 C 0.79759 0.381 0.41786 0.0
C2534 C 0.82206 0.3803 0.42834 0.0
C2535 C 0.81865 0.39204 0.43781 0.0
C2536 C 0.80486 0.3989 0.43629 0.0
C2537 C 0.79448 0.39349 0.4263 0.0
C2538 C 0.83874 0.41357 0.46779 0.0
C2539 C 0.84672 0.40237 0.47479 0.0
C2540 C 0.82992 0.41042 0.45554 0.0
C2541 C 0.82881 0.39598 0.45009 0.0
C2542 C 0.83699 0.38491 0.45707 0.0
C2543 C 0.84586 0.38807 0.4691 0.0
H2544 H 0.8705 0.40697 0.80371 0.0
H2545 H 0.84185 0.43894 0.78371 0.0
H2546 H 0.87566 0.4241 0.82371 0.0
H2547 H 0.84735 0.45619 0.80356 0.0
H2548 H 0.88761 0.48431 0.8234 0.0
H2549 H 0.87485 0.46696 0.80753 0.0
H2550 H 0.86271 0.44117 0.84532 0.0
H2551 H 0.87515 0.45903 0.86142 0.0
C2552 C 0.86503 0.41752 0.80377 0.0
C2553 C 0.85584 0.42165 0.79209 0.0
C2554 C 0.86793 0.42728 0.81526 0.0
C2555 C 0.86193 0.44145 0.81513 0.0
C2556 C 0.85208 0.44529 0.80391 0.0
C2557 C 0.84891 0.43541 0.79258 0.0
C2558 C 0.88199 0.47508 0.82835 0.0
C2559 C 0.88236 0.47296 0.8436 0.0
C2560 C 0.87461 0.46522 0.81929 0.0
C2561 C 0.86775 0.45279 0.82522 0.0
C2562 C 0.86786 0.45074 0.84052 0.0
C2563 C 0.87492 0.46092 0.8497 0.0
H2564 H 0.80241 0.6234 0.10903 0.0
H2565 H 0.78059 0.64067 0.07074 0.0
H2566 H 0.82055 0.61125 0.09305 0.0
H2567 H 0.79822 0.62823 0.05494 0.0
H2568 H 0.82557 0.59523 0.03017 0.0
H2569 H 0.80737 0.60049 0.04924 0.0
H2570 H 0.8399 0.62449 0.0738 0.0
H2571 H 0.85801 0.61958 0.05461 0.0
C2572 C 0.80134 0.62435 0.09724 0.0
C2573 C 0.79019 0.63304 0.0911 0.0
C2574 C 0.81168 0.61744 0.08813 0.0
C2575 C 0.81068 0.61873 0.07278 0.0
C2576 C 0.79914 0.6269 0.06672 0.0
C2577 C 0.78913 0.63411 0.07576 0.0
C2578 C 0.82895 0.60126 0.03983 0.0
C2579 C 0.84318 0.60709 0.04085 0.0
C2580 C 0.81852 0.6043 0.05071 0.0
C2581 C 0.82225 0.61291 0.06295 0.0
C2582 C 0.83678 0.61773 0.06453 0.0
C2583 C 0.84711 0.61498 0.05351 0.0
H2584 H 0.67015 0.57604 0.2798 0.0
H2585 H 0.64599 0.60818 0.30483 0.0
H2586 H 0.66495 0.55758 0.29863 0.0
H2587 H 0.64112 0.58981 0.32376 0.0
H2588 H 0.64187 0.55226 0.35855 0.0
H2589 H 0.65387 0.5706 0.34273 0.0
H2590 H 0.63784 0.54791 0.30441 0.0
H2591 H 0.62557 0.53003 0.32006 0.0
C2592 C 0.66417 0.57929 0.28954 0.0
C2593 C 0.65838 0.59353 0.29078 0.0
C2594 C 0.66115 0.56872 0.30027 0.0
C2595 C 0.6526 0.57228 0.31261 0.0
C2596 C 0.64782 0.58681 0.31442 0.0
C2597 C 0.65056 0.59729 0.30355 0.0
C2598 C 0.64109 0.55115 0.34675 0.0
C2599 C 0.63271 0.53981 0.34052 0.0
C2600 C 0.64793 0.56161 0.33773 0.0
C2601 C 0.64685 0.56058 0.32236 0.0
C2602 C 0.639 0.54887 0.31621 0.0
C2603 C 0.63188 0.53871 0.32517 0.0
H2604 H 0.68855 0.42064 0.5325 0.0
H2605 H 0.65579 0.3934 0.5532 0.0
H2606 H 0.70576 0.41485 0.55231 0.0
H2607 H 0.67288 0.38799 0.57317 0.0
H2608 H 0.7084 0.38919 0.61081 0.0
H2609 H 0.69061 0.40126 0.5944 0.0
H2610 H 0.71553 0.38678 0.55686 0.0
H2611 H 0.73285 0.37439 0.57304 0.0
C2612 C 0.68485 0.41385 0.54152 0.0
C2613 C 0.67086 0.40739 0.54126 0.0
C2614 C 0.69471 0.41051 0.55282 0.0
C2615 C 0.69062 0.40097 0.56422 0.0
C2616 C 0.67625 0.39546 0.56457 0.0
C2617 C 0.66651 0.39851 0.55311 0.0
C2618 C 0.71009 0.38873 0.59905 0.0
C2619 C 0.72191 0.38077 0.59317 0.0
C2620 C 0.69995 0.39561 0.58971 0.0
C2621 C 0.70181 0.39502 0.5744 0.0
C2622 C 0.71394 0.38754 0.56862 0.0
C2623 C 0.72378 0.38036 0.57788 0.0
H2624 H 0.71197 0.87591 0.61212 0.0
H2625 H 0.72414 0.84345 0.57984 0.0
H2626 H 0.69116 0.88314 0.59706 0.0
H2627 H 0.7035 0.85102 0.56449 0.0
H2628 H 0.66133 0.86569 0.54146 0.0
H2629 H 0.67691 0.8541 0.56012 0.0
H2630 H 0.69102 0.89694 0.57465 0.0
H2631 H 0.6755 0.90836 0.55642 0.0
C2632 C 0.71007 0.87016 0.60189 0.0
C2633 C 0.71984 0.85926 0.59707 0.0
C2634 C 0.69818 0.87435 0.59322 0.0
C2635 C 0.69584 0.8679 0.5794 0.0
C2636 C 0.70495 0.8562 0.57508 0.0
C2637 C 0.71681 0.85188 0.58386 0.0
C2638 C 0.6676 0.87259 0.54883 0.0
C2639 C 0.66722 0.88795 0.5474 0.0
C2640 C 0.67658 0.86595 0.55945 0.0
C2641 C 0.6852 0.87457 0.56893 0.0
C2642 C 0.68438 0.88993 0.56775 0.0
C2643 C 0.67554 0.8965 0.55716 0.0
H2644 H 0.21222 0.64476 0.40543 0.0
H2645 H 0.23521 0.66899 0.439 0.0
H2646 H 0.19246 0.63942 0.42279 0.0
H2647 H 0.21556 0.66331 0.45645 0.0
H2648 H 0.19319 0.62364 0.48268 0.0
H2649 H 0.20961 0.63585 0.46548 0.0
H2650 H 0.17236 0.65209 0.44125 0.0
H2651 H 0.15572 0.64015 0.45892 0.0
C2652 C 0.21289 0.64923 0.41642 0.0
C2653 C 0.22531 0.65723 0.42088 0.0
C2654 C 0.20154 0.64622 0.42632 0.0
C2655 C 0.20254 0.6509 0.44095 0.0
C2656 C 0.21455 0.65959 0.44521 0.0
C2657 C 0.22575 0.66288 0.43521 0.0
C2658 C 0.18846 0.62994 0.47378 0.0
C2659 C 0.17317 0.63088 0.47209 0.0
C2660 C 0.19787 0.63703 0.46402 0.0
C2661 C 0.19225 0.64497 0.4521 0.0
C2662 C 0.17694 0.64608 0.45041 0.0
C2663 C 0.16746 0.63927 0.46049 0.0
H2664 H 0.65764 0.92855 0.71121 0.0
H2665 H 0.61518 0.91193 0.72412 0.0
H2666 H 0.64615 0.9441 0.69301 0.0
H2667 H 0.60354 0.92761 0.70555 0.0
H2668 H 0.62537 0.96389 0.65459 0.0
H2669 H 0.63302 0.94342 0.6699 0.0
H2670 H 0.59961 0.95452 0.70159 0.0
H2671 H 0.59169 0.97491 0.68603 0.0
C2672 C 0.64582 0.92809 0.71005 0.0
C2673 C 0.63734 0.91901 0.71918 0.0
C2674 C 0.63922 0.93694 0.69949 0.0
C2675 C 0.62391 0.93706 0.69773 0.0
C2676 C 0.61536 0.9278 0.70666 0.0
C2677 C 0.62203 0.91877 0.71723 0.0
C2678 C 0.61944 0.9618 0.66467 0.0
C2679 C 0.60806 0.97117 0.66919 0.0
C2680 C 0.62387 0.95009 0.67349 0.0
C2681 C 0.61715 0.94752 0.68713 0.0
C2682 C 0.60501 0.95618 0.69114 0.0
C2683 C 0.60049 0.96789 0.68223 0.0
H2684 H 0.34087 0.40764 0.96093 0.0
H2685 H 0.35436 0.36478 0.97596 0.0
H2686 H 0.32538 0.39646 0.94254 0.0
H2687 H 0.33881 0.35341 0.95713 0.0
H2688 H 0.29166 0.34336 0.93691 0.0
H2689 H 0.31225 0.35064 0.95247 0.0
H2690 H 0.32525 0.38274 0.92012 0.0
H2691 H 0.30449 0.3758 0.90486 0.0
C2692 C 0.34069 0.39579 0.96018 0.0
C2693 C 0.34881 0.38712 0.97 0.0
C2694 C 0.33187 0.38934 0.94949 0.0
C2695 C 0.33087 0.37401 0.94827 0.0
C2696 C 0.33929 0.36526 0.95783 0.0
C2697 C 0.34826 0.37176 0.96854 0.0
C2698 C 0.29912 0.35173 0.93298 0.0
C2699 C 0.2963 0.35919 0.91978 0.0
C2700 C 0.31096 0.35588 0.94189 0.0
C2701 C 0.32024 0.36749 0.93769 0.0
C2702 C 0.3181 0.37402 0.92387 0.0
C2703 C 0.30623 0.37 0.91508 0.0
H2704 H 0.42005 0.53416 0.68789 0.0
H2705 H 0.39184 0.55197 0.65429 0.0
H2706 H 0.41378 0.55478 0.70397 0.0
H2707 H 0.38591 0.57262 0.6701 0.0
H2708 H 0.35956 0.58879 0.70981 0.0
H2709 H 0.37048 0.57266 0.69177 0.0
H2710 H 0.41352 0.58191 0.70926 0.0
H2711 H 0.40241 0.5982 0.72766 0.0
C2712 C 0.41286 0.54268 0.68378 0.0
C2713 C 0.40623 0.5413 0.66992 0.0
C2714 C 0.40929 0.55451 0.69298 0.0
C2715 C 0.39911 0.56519 0.68842 0.0
C2716 C 0.3935 0.5644 0.67409 0.0
C2717 C 0.39695 0.55258 0.66499 0.0
C2718 C 0.37138 0.58756 0.70977 0.0
C2719 C 0.3801 0.59477 0.72022 0.0
C2720 C 0.37768 0.57836 0.69931 0.0
C2721 C 0.39291 0.57602 0.69899 0.0
C2722 C 0.40175 0.58345 0.70925 0.0
C2723 C 0.3954 0.59285 0.71971 0.0
H2724 H 0.78934 0.17108 0.07887 0.0
H2725 H 0.80228 0.13853 0.11076 0.0
H2726 H 0.80966 0.16356 0.06302 0.0
H2727 H 0.82266 0.13128 0.09515 0.0
H2728 H 0.83783 0.10644 0.05406 0.0
H2729 H 0.82213 0.11766 0.0723 0.0
H2730 H 0.83666 0.16064 0.05865 0.0
H2731 H 0.8525 0.14926 0.04004 0.0
C2732 C 0.79674 0.16261 0.08269 0.0
C2733 C 0.79403 0.15524 0.09597 0.0
C2734 C 0.80842 0.15832 0.07361 0.0
C2735 C 0.81762 0.14662 0.07769 0.0
C2736 C 0.81557 0.14009 0.09151 0.0
C2737 C 0.80391 0.1443 0.1005 0.0
C2738 C 0.83784 0.11829 0.05498 0.0
C2739 C 0.84641 0.12694 0.04552 0.0
C2740 C 0.82889 0.12474 0.06557 0.0
C2741 C 0.82817 0.14007 0.06703 0.0
C2742 C 0.83693 0.1488 0.05777 0.0
C2743 C 0.84607 0.14229 0.04718 0.0
H2744 H 0.59305 0.03558 0.8281 0.0
H2745 H 0.62168 0.05246 0.86181 0.0
H2746 H 0.5993 0.0565 0.81241 0.0
H2747 H 0.62757 0.07344 0.84642 0.0
H2748 H 0.65379 0.09019 0.80689 0.0
H2749 H 0.64282 0.07393 0.82477 0.0
H2750 H 0.59979 0.08357 0.80748 0.0
H2751 H 0.61095 0.09999 0.7892 0.0
C2752 C 0.60032 0.04397 0.83232 0.0
C2753 C 0.60709 0.04224 0.84608 0.0
C2754 C 0.60388 0.05598 0.82335 0.0
C2755 C 0.61418 0.06649 0.82804 0.0
C2756 C 0.61989 0.06536 0.84232 0.0
C2757 C 0.61647 0.05335 0.85117 0.0
C2758 C 0.64196 0.08902 0.80695 0.0
C2759 C 0.63326 0.09636 0.79657 0.0
C2760 C 0.63564 0.07975 0.81732 0.0
C2761 C 0.6204 0.07747 0.81763 0.0
C2762 C 0.61157 0.08506 0.80748 0.0
C2763 C 0.61794 0.09453 0.7971 0.0
H2764 H 0.89182 0.9627 0.36155 0.0
H2765 H 0.91913 0.98032 0.3271 0.0
H2766 H 0.8857 0.94182 0.34613 0.0
H2767 H 0.91266 0.95948 0.3114 0.0
H2768 H 0.90099 0.916 0.28822 0.0
H2769 H 0.91245 0.93239 0.30632 0.0
H2770 H 0.86979 0.94136 0.3249 0.0
H2771 H 0.85853 0.92513 0.30717 0.0
C2772 C 0.8967 0.962 0.35074 0.0
C2773 C 0.90577 0.97329 0.34546 0.0
C2774 C 0.89314 0.95005 0.34187 0.0
C2775 C 0.89843 0.94913 0.32741 0.0
C2776 C 0.90842 0.95984 0.3225 0.0
C2777 C 0.91211 0.9718 0.33147 0.0
C2778 C 0.89415 0.9213 0.29636 0.0
C2779 C 0.87885 0.91929 0.29623 0.0
C2780 C 0.90069 0.93076 0.30664 0.0
C2781 C 0.89205 0.93816 0.3171 0.0
C2782 C 0.87684 0.93569 0.31719 0.0
C2783 C 0.87034 0.92644 0.30692 0.0
H2784 H 0.462 0.33977 0.10892 0.0
H2785 H 0.47446 0.35397 0.15238 0.0
H2786 H 0.44366 0.32363 0.11934 0.0
H2787 H 0.45576 0.33765 0.16294 0.0
H2788 H 0.43593 0.28953 0.1715 0.0
H2789 H 0.45176 0.31029 0.16507 0.0
H2790 H 0.42036 0.32401 0.13239 0.0
H2791 H 0.40481 0.30323 0.13854 0.0
C2792 C 0.46071 0.33957 0.12074 0.0
C2793 C 0.46974 0.34815 0.12981 0.0
C2794 C 0.45008 0.33037 0.12672 0.0
C2795 C 0.44816 0.32939 0.14199 0.0
C2796 C 0.457 0.33814 0.15114 0.0
C2797 C 0.46763 0.34754 0.14509 0.0
C2798 C 0.43227 0.29719 0.16319 0.0
C2799 C 0.41925 0.29459 0.15534 0.0
C2800 C 0.44132 0.3091 0.15953 0.0
C2801 C 0.43745 0.31863 0.14801 0.0
C2802 C 0.42383 0.31667 0.14107 0.0
C2803 C 0.41489 0.30478 0.14463 0.0
H2804 H 0.42464 0.73297 0.90114 0.0
H2805 H 0.40842 0.70194 0.8694 0.0
H2806 H 0.44217 0.71472 0.91008 0.0
H2807 H 0.42507 0.68333 0.87888 0.0
H2808 H 0.47101 0.66456 0.88 0.0
H2809 H 0.44994 0.67989 0.87571 0.0
H2810 H 0.44946 0.69243 0.92146 0.0
H2811 H 0.4713 0.67735 0.92564 0.0
C2812 C 0.42445 0.72203 0.8965 0.0
C2813 C 0.41531 0.71883 0.88454 0.0
C2814 C 0.43448 0.71153 0.90161 0.0
C2815 C 0.43535 0.69759 0.89498 0.0
C2816 C 0.42513 0.69408 0.88393 0.0
C2817 C 0.41544 0.70466 0.8786 0.0
C2818 C 0.46639 0.67044 0.88925 0.0
C2819 C 0.47295 0.66972 0.90318 0.0
C2820 C 0.45411 0.67919 0.8868 0.0
C2821 C 0.44778 0.68739 0.89824 0.0
C2822 C 0.45408 0.68639 0.91233 0.0
C2823 C 0.46655 0.67767 0.91477 0.0
H2824 H 0.05778 0.67659 0.60926 0.0
H2825 H 0.04271 0.66434 0.65248 0.0
H2826 H 0.07557 0.69313 0.62003 0.0
H2827 H 0.06081 0.68108 0.66341 0.0
H2828 H 0.08019 0.72959 0.671 0.0
H2829 H 0.06465 0.70864 0.66445 0.0
H2830 H 0.09806 0.69331 0.63458 0.0
H2831 H 0.11336 0.71422 0.64086 0.0
C2832 C 0.05839 0.67729 0.62111 0.0
C2833 C 0.04879 0.66915 0.63001 0.0
C2834 C 0.0687 0.68673 0.62731 0.0
C2835 C 0.06967 0.68841 0.6426 0.0
C2836 C 0.06029 0.68006 0.65159 0.0
C2837 C 0.05001 0.6704 0.64534 0.0
C2838 C 0.08433 0.72156 0.66329 0.0
C2839 C 0.09789 0.72372 0.65625 0.0
C2840 C 0.07545 0.70953 0.65956 0.0
C2841 C 0.08001 0.69946 0.64878 0.0
C2842 C 0.09407 0.70104 0.64267 0.0
C2843 C 0.10286 0.71303 0.64631 0.0
H2844 H 0.08677 0.30532 0.35801 0.0
H2845 H 0.10013 0.29132 0.40125 0.0
H2846 H 0.07068 0.32355 0.36879 0.0
H2847 H 0.08381 0.30982 0.41217 0.0
H2848 H 0.03565 0.33039 0.42025 0.0
H2849 H 0.05604 0.31413 0.41362 0.0
H2850 H 0.07184 0.34656 0.38295 0.0
H2851 H 0.05153 0.3626 0.38934 0.0
C2852 C 0.08638 0.30623 0.36985 0.0
C2853 C 0.09474 0.29684 0.37876 0.0
C2854 C 0.07721 0.31678 0.37605 0.0
C2855 C 0.07601 0.3182 0.39135 0.0
C2856 C 0.08449 0.30896 0.40034 0.0
C2857 C 0.09389 0.29845 0.3941 0.0
C2858 C 0.04368 0.33416 0.41236 0.0
C2859 C 0.04182 0.34767 0.40514 0.0
C2860 C 0.05538 0.32486 0.40858 0.0
C2861 C 0.06539 0.32895 0.39755 0.0
C2862 C 0.06413 0.34295 0.39124 0.0
C2863 C 0.05249 0.35217 0.39495 0.0
H2864 H 0.42781 0.71839 0.34031 0.0
H2865 H 0.41537 0.72053 0.38599 0.0
H2866 H 0.44274 0.69669 0.34548 0.0
H2867 H 0.43063 0.69962 0.39126 0.0
H2868 H 0.45308 0.65845 0.39948 0.0
H2869 H 0.43437 0.67476 0.38967 0.0
H2870 H 0.46498 0.68982 0.35666 0.0
H2871 H 0.48329 0.67258 0.36597 0.0
C2872 C 0.42817 0.71419 0.35141 0.0
C2873 C 0.42038 0.72124 0.36272 0.0
C2874 C 0.43683 0.7018 0.35441 0.0
C2875 C 0.43796 0.69626 0.36881 0.0
C2876 C 0.42985 0.7032 0.37997 0.0
C2877 C 0.42113 0.71539 0.37696 0.0
C2878 C 0.45561 0.66497 0.38986 0.0
C2879 C 0.46959 0.66433 0.3835 0.0
C2880 C 0.44497 0.67448 0.38432 0.0
C2881 C 0.44822 0.68402 0.3726 0.0
C2882 C 0.46197 0.68265 0.36564 0.0
C2883 C 0.47252 0.67279 0.37097 0.0
H2884 H 0.04789 0.67111 0.0923 0.0
H2885 H 0.04153 0.66416 0.13873 0.0
H2886 H 0.06965 0.68591 0.09756 0.0
H2887 H 0.06242 0.67942 0.14403 0.0
H2888 H 0.10346 0.7019 0.15319 0.0
H2889 H 0.08717 0.68261 0.14451 0.0
H2890 H 0.07675 0.70884 0.10633 0.0
H2891 H 0.09408 0.72753 0.11461 0.0
C2892 C 0.05116 0.67268 0.10361 0.0
C2893 C 0.04296 0.66642 0.11508 0.0
C2894 C 0.06358 0.68126 0.10666 0.0
C2895 C 0.06794 0.68395 0.12126 0.0
C2896 C 0.0598 0.6774 0.13263 0.0
C2897 C 0.04763 0.66868 0.12958 0.0
C2898 C 0.09795 0.70329 0.14275 0.0
C2899 C 0.09994 0.71614 0.13457 0.0
C2900 C 0.08845 0.69234 0.13783 0.0
C2901 C 0.08021 0.69425 0.12488 0.0
C2902 C 0.08289 0.70684 0.11629 0.0
C2903 C 0.09279 0.71761 0.12103 0.0
H2904 H 0.11335 0.29997 0.87985 0.0
H2905 H 0.08308 0.28645 0.84601 0.0
H2906 H 0.09775 0.3208 0.88559 0.0
H2907 H 0.06727 0.3074 0.85195 0.0
H2908 H 0.05511 0.33693 0.90743 0.0
H2909 H 0.07346 0.32025 0.89776 0.0
H2910 H 0.06442 0.33543 0.85382 0.0
H2911 H 0.04583 0.35235 0.86361 0.0
C2912 C 0.10346 0.30156 0.87347 0.0
C2913 C 0.09933 0.29139 0.86263 0.0
C2914 C 0.0945 0.3135 0.8768 0.0
C2915 C 0.08115 0.31559 0.86942 0.0
C2916 C 0.07751 0.30608 0.85781 0.0
C2917 C 0.08654 0.29407 0.85444 0.0
C2918 C 0.0571 0.33686 0.89571 0.0
C2919 C 0.049 0.34596 0.88629 0.0
C2920 C 0.0677 0.32735 0.89017 0.0
C2921 C 0.07044 0.32655 0.87502 0.0
C2922 C 0.06251 0.33579 0.86554 0.0
C2923 C 0.05196 0.34553 0.87115 0.0
H2924 H 0.47749 0.32968 0.59349 0.0
H2925 H 0.46419 0.36172 0.62575 0.0
H2926 H 0.45689 0.31397 0.60073 0.0
H2927 H 0.44359 0.34628 0.63271 0.0
H2928 H 0.41333 0.29169 0.61467 0.0
H2929 H 0.42954 0.31004 0.60337 0.0
H2930 H 0.44419 0.32331 0.64641 0.0
H2931 H 0.42816 0.3053 0.65756 0.0
C2932 C 0.46995 0.33356 0.60181 0.0
C2933 C 0.47262 0.34682 0.60923 0.0
C2934 C 0.45813 0.32457 0.60594 0.0
C2935 C 0.44877 0.32875 0.6175 0.0
C2936 C 0.45079 0.34257 0.62401 0.0
C2937 C 0.46258 0.35146 0.61998 0.0
C2938 C 0.41988 0.2987 0.62168 0.0
C2939 C 0.41947 0.29701 0.63702 0.0
C2940 C 0.42922 0.30913 0.61521 0.0
C2941 C 0.43811 0.3182 0.62398 0.0
C2942 C 0.43734 0.3167 0.63931 0.0
C2943 C 0.4282 0.30626 0.64572 0.0
H2944 H 0.126 0.48257 0.32372 0.0
H2945 H 0.13952 0.4583 0.36206 0.0
H2946 H 0.1379 0.4645 0.30797 0.0
H2947 H 0.15106 0.43975 0.34607 0.0
H2948 H 0.14249 0.40526 0.30376 0.0
H2949 H 0.13676 0.42239 0.32365 0.0
H2950 H 0.16685 0.45388 0.30523 0.0
H2951 H 0.17295 0.43666 0.28555 0.0
C2952 C 0.13155 0.47336 0.32877 0.0
C2953 C 0.13179 0.4718 0.3441 0.0
C2954 C 0.13843 0.46309 0.31976 0.0
C2955 C 0.14543 0.45082 0.32584 0.0
C2956 C 0.14578 0.4492 0.34118 0.0
C2957 C 0.13921 0.45977 0.35027 0.0
C2958 C 0.14822 0.41566 0.3042 0.0
C2959 C 0.15812 0.41964 0.29305 0.0
C2960 C 0.14497 0.42541 0.31561 0.0
C2961 C 0.15135 0.43942 0.3159 0.0
C2962 C 0.16185 0.4431 0.30524 0.0
C2963 C 0.16535 0.43322 0.29401 0.0
H2964 H 0.3274 0.4219 0.03422 0.0
H2965 H 0.35917 0.39356 0.05497 0.0
H2966 H 0.30946 0.41557 0.05322 0.0
H2967 H 0.34134 0.38761 0.07415 0.0
H2968 H 0.30448 0.38844 0.11074 0.0
H2969 H 0.32289 0.40084 0.09526 0.0
H2970 H 0.29944 0.38712 0.05653 0.0
H2971 H 0.28152 0.37438 0.07181 0.0
C2972 C 0.33072 0.41473 0.04309 0.0
C2973 C 0.34466 0.40815 0.04306 0.0
C2974 C 0.32044 0.41109 0.05392 0.0
C2975 C 0.32405 0.40112 0.06511 0.0
C2976 C 0.33834 0.39542 0.06571 0.0
C2977 C 0.3485 0.39878 0.0547 0.0
C2978 C 0.30323 0.38825 0.09893 0.0
C2979 C 0.29166 0.3804 0.09245 0.0
C2980 C 0.31373 0.3953 0.09011 0.0
C2981 C 0.31247 0.39499 0.07474 0.0
C2982 C 0.30056 0.38765 0.06835 0.0
C2983 C 0.29038 0.38029 0.07709 0.0
H2984 H 0.39068 0.53149 0.82422 0.0
H2985 H 0.37548 0.55515 0.86231 0.0
H2986 H 0.37797 0.54879 0.80827 0.0
H2987 H 0.3631 0.57297 0.84613 0.0
H2988 H 0.37136 0.6082 0.80497 0.0
H2989 H 0.37668 0.59101 0.82489 0.0
H2990 H 0.3495 0.55839 0.80407 0.0
H2991 H 0.34379 0.5757 0.78431 0.0
C2992 C 0.38452 0.54037 0.82917 0.0
C2993 C 0.3841 0.54204 0.84448 0.0
C2994 C 0.37717 0.55019 0.82004 0.0
C2995 C 0.36951 0.56213 0.826 0.0
C2996 C 0.36887 0.56377 0.84133 0.0
C2997 C 0.37592 0.55362 0.85053 0.0
C2998 C 0.36615 0.59751 0.80488 0.0
C2999 C 0.35722 0.59325 0.79304 0.0
C3000 C 0.36915 0.58772 0.81631 0.0
C3001 C 0.36352 0.57341 0.81596 0.0
C3002 C 0.35391 0.56941 0.80458 0.0
C3003 C 0.35063 0.57932 0.79332 0.0
H3004 H 0.22276 0.61413 0.60335 0.0
H3005 H 0.21084 0.65754 0.58854 0.0
H3006 H 0.20387 0.6036 0.58731 0.0
H3007 H 0.19242 0.64715 0.57255 0.0
H3008 H 0.18423 0.59347 0.54001 0.0
H3009 H 0.19975 0.60043 0.56075 0.0
H3010 H 0.16923 0.63491 0.57192 0.0
H3011 H 0.15405 0.62828 0.55101 0.0
C3012 C 0.21602 0.62142 0.59684 0.0
C3013 C 0.21836 0.63667 0.59721 0.0
C3014 C 0.20527 0.61539 0.58758 0.0
C3015 C 0.19656 0.62451 0.57866 0.0
C3016 C 0.19869 0.63977 0.57943 0.0
C3017 C 0.2094 0.64574 0.58854 0.0
C3018 C 0.18069 0.60233 0.5471 0.0
C3019 C 0.16804 0.61049 0.54372 0.0
C3020 C 0.18957 0.6063 0.55902 0.0
C3021 C 0.1859 0.61843 0.56784 0.0
C3022 C 0.1726 0.62576 0.56513 0.0
C3023 C 0.16384 0.62191 0.55317 0.0
H3024 H 0.16974 0.57826 0.22878 0.0
H3025 H 0.14055 0.61138 0.21163 0.0
H3026 H 0.16308 0.56197 0.20846 0.0
H3027 H 0.13421 0.59535 0.19128 0.0
H3028 H 0.10813 0.55523 0.17575 0.0
H3029 H 0.11914 0.57344 0.19162 0.0
H3030 H 0.16223 0.55658 0.18141 0.0
H3031 H 0.15104 0.538 0.16539 0.0
C3032 C 0.16223 0.58222 0.22047 0.0
C3033 C 0.15547 0.59601 0.22196 0.0
C3034 C 0.15844 0.57289 0.20881 0.0
C3035 C 0.14789 0.57725 0.19841 0.0
C3036 C 0.1421 0.59151 0.1993 0.0
C3037 C 0.14578 0.60073 0.21095 0.0
C3038 C 0.11998 0.55544 0.17672 0.0
C3039 C 0.12869 0.54511 0.16932 0.0
C3040 C 0.12632 0.566 0.18577 0.0
C3041 C 0.14159 0.56655 0.18776 0.0
C3042 C 0.15042 0.55641 0.18015 0.0
C3043 C 0.14403 0.54585 0.1709 0.0
H3044 H 0.18846 0.42101 0.98194 0.0
H3045 H 0.15689 0.39282 0.96068 0.0
H3046 H 0.2064 0.41525 0.96277 0.0
H3047 H 0.17473 0.38742 0.94135 0.0
H3048 H 0.21132 0.38896 0.9047 0.0
H3049 H 0.19281 0.40086 0.92045 0.0
H3050 H 0.2169 0.38733 0.95885 0.0
H3051 H 0.23493 0.3751 0.94331 0.0
C3052 C 0.18518 0.41399 0.97293 0.0
C3053 C 0.1713 0.40729 0.97287 0.0
C3054 C 0.19546 0.41067 0.962 0.0
C3055 C 0.19192 0.40089 0.95063 0.0
C3056 C 0.17768 0.39508 0.94994 0.0
C3057 C 0.16751 0.39813 0.96104 0.0
C3058 C 0.21268 0.3887 0.9165 0.0
C3059 C 0.22447 0.38105 0.92281 0.0
C3060 C 0.20213 0.39547 0.92547 0.0
C3061 C 0.20353 0.39507 0.94083 0.0
C3062 C 0.21566 0.38793 0.94705 0.0
C3063 C 0.2259 0.38085 0.93815 0.0
H3064 H 0.36565 0.48095 0.67435 0.0
H3065 H 0.40051 0.45161 0.66181 0.0
H3066 H 0.35639 0.46265 0.69164 0.0
H3067 H 0.39077 0.43285 0.67812 0.0
H3068 H 0.38588 0.41372 0.72358 0.0
H3069 H 0.3915 0.42917 0.70291 0.0
H3070 H 0.34559 0.44028 0.69853 0.0
H3071 H 0.34005 0.42517 0.72003 0.0
C3072 C 0.37099 0.47035 0.67494 0.0
C3073 C 0.38383 0.46768 0.66688 0.0
C3074 C 0.36568 0.45981 0.68483 0.0
C3075 C 0.37299 0.44628 0.68662 0.0
C3076 C 0.38512 0.44328 0.67752 0.0
C3077 C 0.39063 0.45394 0.668 0.0
C3078 C 0.37689 0.4193 0.71817 0.0
C3079 C 0.36249 0.41819 0.72356 0.0
C3080 C 0.38012 0.42814 0.70612 0.0
C3081 C 0.36902 0.43601 0.69882 0.0
C3082 C 0.35449 0.43456 0.70392 0.0
C3083 C 0.35127 0.4258 0.71619 0.0
H3084 H 0.33926 0.58833 0.46849 0.0
H3085 H 0.35193 0.6339 0.47129 0.0
H3086 H 0.32432 0.59391 0.4469 0.0
H3087 H 0.33665 0.63958 0.45052 0.0
H3088 H 0.31408 0.64861 0.4096 0.0
H3089 H 0.33279 0.63849 0.42571 0.0
H3090 H 0.30214 0.60525 0.44019 0.0
H3091 H 0.28385 0.61488 0.42311 0.0
C3092 C 0.33895 0.5995 0.46446 0.0
C3093 C 0.34681 0.61065 0.47166 0.0
C3094 C 0.33028 0.60273 0.45214 0.0
C3095 C 0.3292 0.61722 0.44682 0.0
C3096 C 0.33738 0.62823 0.45391 0.0
C3097 C 0.34612 0.62498 0.46602 0.0
C3098 C 0.31154 0.63889 0.41594 0.0
C3099 C 0.29757 0.63253 0.41518 0.0
C3100 C 0.32218 0.63316 0.42535 0.0
C3101 C 0.31893 0.62127 0.43467 0.0
C3102 C 0.30516 0.61436 0.43319 0.0
C3103 C 0.29463 0.61987 0.42343 0.0
H3104 H 0.36215 0.13875 0.45623 0.0
H3105 H 0.32464 0.12498 0.48167 0.0
H3106 H 0.34556 0.15046 0.43835 0.0
H3107 H 0.30831 0.137 0.46425 0.0
H3108 H 0.28444 0.17161 0.43763 0.0
H3109 H 0.30457 0.1654 0.45426 0.0
H3110 H 0.32323 0.13704 0.42133 0.0
H3111 H 0.30292 0.1429 0.40476 0.0
C3112 C 0.35042 0.13841 0.45809 0.0
C3113 C 0.34466 0.13088 0.47026 0.0
C3114 C 0.34098 0.14507 0.4479 0.0
C3115 C 0.3257 0.1447 0.45004 0.0
C3116 C 0.32005 0.13757 0.46245 0.0
C3117 C 0.32939 0.1306 0.47234 0.0
C3118 C 0.29304 0.16437 0.43377 0.0
C3119 C 0.29203 0.15765 0.41993 0.0
C3120 C 0.30452 0.1608 0.44331 0.0
C3121 C 0.31539 0.15074 0.43905 0.0
C3122 C 0.31503 0.14491 0.42481 0.0
C3123 C 0.30338 0.14822 0.41538 0.0
H3124 H 0.83747 0.40783 0.55558 0.0
H3125 H 0.85497 0.36491 0.54573 0.0
H3126 H 0.82137 0.39718 0.57385 0.0
H3127 H 0.83872 0.35413 0.56434 0.0
H3128 H 0.79069 0.34287 0.58229 0.0
H3129 H 0.81163 0.35024 0.56719 0.0
H3130 H 0.82124 0.38518 0.59768 0.0
H3131 H 0.80024 0.37806 0.61254 0.0
C3132 C 0.83801 0.39611 0.55745 0.0
C3133 C 0.84748 0.38722 0.54914 0.0
C3134 C 0.82883 0.39 0.56804 0.0
C3135 C 0.82878 0.3748 0.57062 0.0
C3136 C 0.83847 0.36588 0.56256 0.0
C3137 C 0.84783 0.37206 0.55199 0.0
C3138 C 0.79748 0.3519 0.58594 0.0
C3139 C 0.79365 0.36004 0.59848 0.0
C3140 C 0.80951 0.35611 0.5773 0.0
C3141 C 0.81793 0.36848 0.58109 0.0
C3142 C 0.81477 0.37582 0.59427 0.0
C3143 C 0.80275 0.37169 0.60282 0.0
H3144 H 0.42001 0.04047 0.3296 0.0
H3145 H 0.38713 0.05385 0.36097 0.0
H3146 H 0.41329 0.06117 0.31382 0.0
H3147 H 0.38069 0.07458 0.34548 0.0
H3148 H 0.35684 0.09019 0.30402 0.0
H3149 H 0.3675 0.07413 0.32227 0.0
H3150 H 0.4109 0.08849 0.30985 0.0
H3151 H 0.40009 0.10473 0.29123 0.0
C3152 C 0.41166 0.04805 0.33332 0.0
C3153 C 0.40392 0.04537 0.3464 0.0
C3154 C 0.40782 0.05992 0.3243 0.0
C3155 C 0.39625 0.06935 0.32827 0.0
C3156 C 0.38941 0.06732 0.34193 0.0
C3157 C 0.39314 0.05546 0.35085 0.0
C3158 C 0.36866 0.09008 0.30522 0.0
C3159 C 0.3776 0.09873 0.29612 0.0
C3160 C 0.37479 0.08093 0.3158 0.0
C3161 C 0.39007 0.08007 0.3176 0.0
C3162 C 0.39909 0.08889 0.3087 0.0
C3163 C 0.3929 0.09824 0.29812 0.0
H3164 H 0.68907 0.62539 0.03147 0.0
H3165 H 0.65068 0.63823 0.05602 0.0
H3166 H 0.70469 0.63818 0.04903 0.0
H3167 H 0.66654 0.65066 0.0741 0.0
H3168 H 0.70942 0.64265 0.10806 0.0
H3169 H 0.68926 0.63693 0.09126 0.0
H3170 H 0.70714 0.66706 0.05949 0.0
H3171 H 0.7271 0.67314 0.07638 0.0
C3172 C 0.68399 0.63105 0.04061 0.0
C3173 C 0.6687 0.63082 0.04244 0.0
C3174 C 0.69291 0.63844 0.05058 0.0
C3175 C 0.68679 0.64544 0.06283 0.0
C3176 C 0.67147 0.6454 0.06465 0.0
C3177 C 0.66244 0.63834 0.05436 0.0
C3178 C 0.70879 0.6484 0.09768 0.0
C3179 C 0.7199 0.65827 0.0935 0.0
C3180 C 0.69722 0.64517 0.08812 0.0
C3181 C 0.69672 0.65155 0.07412 0.0
C3182 C 0.70729 0.66207 0.07027 0.0
C3183 C 0.71868 0.66555 0.07995 0.0
H3184 H 0.5939 0.47327 0.32748 0.0
H3185 H 0.62515 0.4598 0.3604 0.0
H3186 H 0.60074 0.45218 0.31239 0.0
H3187 H 0.63161 0.43853 0.34563 0.0
H3188 H 0.65695 0.42171 0.30552 0.0
H3189 H 0.64583 0.43758 0.32362 0.0
H3190 H 0.60275 0.42556 0.30798 0.0
H3191 H 0.61407 0.40963 0.28942 0.0
C3192 C 0.60189 0.46556 0.3317 0.0
C3193 C 0.60918 0.46834 0.345 0.0
C3194 C 0.60579 0.45344 0.32306 0.0
C3195 C 0.61696 0.44381 0.32765 0.0
C3196 C 0.62325 0.44593 0.34157 0.0
C3197 C 0.6195 0.45809 0.35009 0.0
C3198 C 0.64509 0.42226 0.30599 0.0
C3199 C 0.63641 0.41445 0.29594 0.0
C3200 C 0.63868 0.4313 0.31651 0.0
C3201 C 0.62336 0.43285 0.31733 0.0
C3202 C 0.61459 0.42468 0.30759 0.0
C3203 C 0.62106 0.41548 0.29703 0.0
H3204 H 0.16264 0.86607 0.9768 0.0
H3205 H 0.17596 0.90893 0.96157 0.0
H3206 H 0.17818 0.85469 0.95795 0.0
H3207 H 0.19144 0.89772 0.94318 0.0
H3208 H 0.22519 0.84471 0.9373 0.0
H3209 H 0.20475 0.85199 0.95308 0.0
H3210 H 0.19133 0.88394 0.92076 0.0
H3211 H 0.21195 0.877 0.90529 0.0
C3212 C 0.16871 0.87305 0.96935 0.0
C3213 C 0.1681 0.88841 0.97074 0.0
C3214 C 0.17767 0.86654 0.95862 0.0
C3215 C 0.18602 0.87528 0.94899 0.0
C3216 C 0.18499 0.89062 0.95018 0.0
C3217 C 0.17618 0.89707 0.96087 0.0
C3218 C 0.21767 0.85304 0.93344 0.0
C3219 C 0.22033 0.86046 0.92017 0.0
C3220 C 0.20592 0.8572 0.94246 0.0
C3221 C 0.19657 0.86877 0.93833 0.0
C3222 C 0.19854 0.87525 0.92447 0.0
C3223 C 0.21033 0.87123 0.91556 0.0
H3224 H 0.39998 0.9252 0.2338 0.0
H3225 H 0.36786 0.90917 0.2031 0.0
H3226 H 0.4089 0.94265 0.21545 0.0
H3227 H 0.37731 0.92572 0.18437 0.0
H3228 H 0.37907 0.97139 0.16503 0.0
H3229 H 0.37453 0.95054 0.18059 0.0
H3230 H 0.42026 0.9497 0.19316 0.0
H3231 H 0.42468 0.97134 0.17786 0.0
C3232 C 0.39524 0.92505 0.22291 0.0
C3233 C 0.38322 0.91596 0.21981 0.0
C3234 C 0.40034 0.93503 0.21236 0.0
C3235 C 0.39363 0.9359 0.19845 0.0
C3236 C 0.38244 0.92578 0.19507 0.0
C3237 C 0.37712 0.91614 0.20572 0.0
C3238 C 0.38827 0.96673 0.17097 0.0
C3239 C 0.40226 0.97314 0.17019 0.0
C3240 C 0.38566 0.95458 0.17986 0.0
C3241 C 0.39702 0.94822 0.18814 0.0
C3242 C 0.41118 0.95435 0.18707 0.0
C3243 C 0.41377 0.96671 0.17823 0.0
H3244 H 0.11192 0.10216 0.72615 0.0
H3245 H 0.15442 0.09025 0.70891 0.0
H3246 H 0.10018 0.08651 0.70762 0.0
H3247 H 0.1429 0.07465 0.69086 0.0
H3248 H 0.09049 0.0394 0.68718 0.0
H3249 H 0.09784 0.06006 0.70262 0.0
H3250 H 0.12832 0.0741 0.66915 0.0
H3251 H 0.12135 0.05325 0.65403 0.0
C3252 C 0.11873 0.09639 0.71831 0.0
C3253 C 0.13411 0.09742 0.71907 0.0
C3254 C 0.11202 0.08735 0.70777 0.0
C3255 C 0.12057 0.07932 0.6977 0.0
C3256 C 0.1359 0.08083 0.69822 0.0
C3257 C 0.14256 0.08972 0.70871 0.0
C3258 C 0.09851 0.04711 0.683 0.0
C3259 C 0.10552 0.04455 0.66949 0.0
C3260 C 0.10271 0.05899 0.69184 0.0
C3261 C 0.11391 0.06859 0.68728 0.0
C3262 C 0.11995 0.0667 0.6732 0.0
C3263 C 0.1159 0.05478 0.66448 0.0
H3264 H 0.0432 0.11809 0.44558 0.0
H3265 H 0.03712 0.16023 0.46633 0.0
H3266 H 0.06309 0.11259 0.46264 0.0
H3267 H 0.05669 0.15461 0.48359 0.0
H3268 H 0.09538 0.10388 0.49952 0.0
H3269 H 0.07174 0.10782 0.48741 0.0
H3270 H 0.08278 0.15348 0.48108 0.0
H3271 H 0.10607 0.14961 0.49334 0.0
C3272 C 0.04583 0.12602 0.45403 0.0
C3273 C 0.03867 0.13967 0.45447 0.0
C3274 C 0.05723 0.12285 0.46386 0.0
C3275 C 0.06169 0.13325 0.47437 0.0
C3276 C 0.0538 0.14647 0.47543 0.0
C3277 C 0.04248 0.14966 0.46558 0.0
C3278 C 0.09262 0.1148 0.49578 0.0
C3279 C 0.10265 0.12642 0.49738 0.0
C3280 C 0.07911 0.11704 0.48873 0.0
C3281 C 0.07531 0.13096 0.48321 0.0
C3282 C 0.08516 0.14265 0.48535 0.0
C3283 C 0.09862 0.14041 0.49233 0.0
H3284 H 0.16084 0.84469 0.74945 0.0
H3285 H 0.11499 0.85501 0.74363 0.0
H3286 H 0.15703 0.82109 0.7372 0.0
H3287 H 0.11126 0.8318 0.7312 0.0
H3288 H 0.14689 0.7928 0.69522 0.0
H3289 H 0.15232 0.81247 0.71254 0.0
H3290 H 0.11022 0.80581 0.73327 0.0
H3291 H 0.10464 0.78649 0.71569 0.0
C3292 C 0.14992 0.84186 0.74574 0.0
C3293 C 0.13823 0.85178 0.74749 0.0
C3294 C 0.14775 0.82838 0.73862 0.0
C3295 C 0.13384 0.8245 0.73315 0.0
C3296 C 0.12208 0.83423 0.73544 0.0
C3297 C 0.12425 0.84765 0.74251 0.0
C3298 C 0.13893 0.79532 0.70368 0.0
C3299 C 0.12526 0.78818 0.70395 0.0
C3300 C 0.14206 0.8066 0.71366 0.0
C3301 C 0.13161 0.81094 0.72419 0.0
C3302 C 0.11839 0.80303 0.7251 0.0
C3303 C 0.11523 0.79185 0.71508 0.0
H3304 H 0.41132 0.86507 0.9912 0.0
H3305 H 0.42283 0.91083 0.99541 0.0
H3306 H 0.43431 0.86037 0.97861 0.0
H3307 H 0.44613 0.90605 0.98292 0.0
H3308 H 0.4802 0.85266 0.96402 0.0
H3309 H 0.46056 0.85907 0.98097 0.0
H3310 H 0.45413 0.90003 0.95805 0.0
H3311 H 0.47402 0.89374 0.94125 0.0
C3312 C 0.41888 0.87411 0.98966 0.0
C3313 C 0.41518 0.88834 0.99429 0.0
C3314 C 0.43215 0.87139 0.98249 0.0
C3315 C 0.44213 0.88283 0.9797 0.0
C3316 C 0.43865 0.89701 0.98475 0.0
C3317 C 0.42534 0.89973 0.99201 0.0
C3318 C 0.47478 0.86316 0.96274 0.0
C3319 C 0.47862 0.87262 0.95118 0.0
C3320 C 0.46344 0.86679 0.97241 0.0
C3321 C 0.45558 0.87998 0.97078 0.0
C3322 C 0.45998 0.88983 0.95972 0.0
C3323 C 0.47137 0.88619 0.95004 0.0
H3324 H 0.41097 0.23289 0.21565 0.0
H3325 H 0.36982 0.22525 0.19351 0.0
H3326 H 0.40495 0.21391 0.23346 0.0
H3327 H 0.36396 0.20594 0.21109 0.0
H3328 H 0.40037 0.16485 0.24494 0.0
H3329 H 0.40438 0.18781 0.23211 0.0
H3330 H 0.35826 0.19806 0.23583 0.0
H3331 H 0.35418 0.17474 0.24849 0.0
C3332 C 0.40053 0.2273 0.2147 0.0
C3333 C 0.39094 0.23051 0.20306 0.0
C3334 C 0.39712 0.21632 0.22486 0.0
C3335 C 0.38408 0.20816 0.2236 0.0
C3336 C 0.37406 0.21202 0.2125 0.0
C3337 C 0.37744 0.22309 0.20236 0.0
C3338 C 0.39109 0.17207 0.24325 0.0
C3339 C 0.37694 0.16789 0.2477 0.0
C3340 C 0.39341 0.18534 0.23593 0.0
C3341 C 0.38165 0.19485 0.23286 0.0
C3342 C 0.36755 0.19094 0.23785 0.0
C3343 C 0.36523 0.17762 0.24521 0.0
H3344 H 0.04089 0.89667 0.07214 0.0
H3345 H 0.036 0.85436 0.05142 0.0
H3346 H 0.06082 0.90261 0.05527 0.0
H3347 H 0.05562 0.86042 0.03433 0.0
H3348 H 0.09335 0.91189 0.01864 0.0
H3349 H 0.06968 0.9075 0.03057 0.0
H3350 H 0.08163 0.86212 0.03722 0.0
H3351 H 0.10494 0.86642 0.02513 0.0
C3352 C 0.04378 0.8888 0.06372 0.0
C3353 C 0.03696 0.87497 0.06325 0.0
C3354 C 0.05522 0.89221 0.05401 0.0
C3355 C 0.06003 0.88189 0.04357 0.0
C3356 C 0.05245 0.86849 0.04245 0.0
C3357 C 0.04111 0.86506 0.05219 0.0
C3358 C 0.09079 0.90093 0.02244 0.0
C3359 C 0.10107 0.88952 0.02096 0.0
C3360 C 0.07726 0.89844 0.02937 0.0
C3361 C 0.07371 0.88446 0.0349 0.0
C3362 C 0.08383 0.87298 0.03292 0.0
C3363 C 0.0973 0.87547 0.02605 0.0
H3364 H 0.41455 0.78446 0.30212 0.0
H3365 H 0.37307 0.79137 0.32394 0.0
H3366 H 0.40868 0.80387 0.28473 0.0
H3367 H 0.36732 0.81104 0.3067 0.0
H3368 H 0.40352 0.8531 0.274 0.0
H3369 H 0.40765 0.83016 0.28686 0.0
H3370 H 0.36196 0.81881 0.28157 0.0
H3371 H 0.35775 0.84207 0.26881 0.0
C3372 C 0.40408 0.78999 0.3031 0.0
C3373 C 0.39434 0.78643 0.31453 0.0
C3374 C 0.40075 0.8012 0.29317 0.0
C3375 C 0.38762 0.8092 0.29442 0.0
C3376 C 0.37749 0.80507 0.30533 0.0
C3377 C 0.38081 0.7938 0.31526 0.0
C3378 C 0.39436 0.84565 0.27537 0.0
C3379 C 0.38028 0.84947 0.2704 0.0
C3380 C 0.39676 0.8324 0.2827 0.0
C3381 C 0.38514 0.82259 0.2853 0.0
C3382 C 0.37112 0.82617 0.2799 0.0
C3383 C 0.36873 0.83945 0.27248 0.0
H3384 H 0.42262 0.10422 0.5156 0.0
H3385 H 0.41402 0.15076 0.51743 0.0
H3386 H 0.44573 0.10803 0.5287 0.0
H3387 H 0.43671 0.15452 0.53076 0.0
H3388 H 0.48143 0.16043 0.54844 0.0
H3389 H 0.46266 0.15455 0.53038 0.0
H3390 H 0.45348 0.11402 0.55317 0.0
H3391 H 0.47264 0.11971 0.57095 0.0
C3392 C 0.42574 0.11528 0.51861 0.0
C3393 C 0.41643 0.12718 0.51548 0.0
C3394 C 0.43894 0.11746 0.52624 0.0
C3395 C 0.44313 0.13158 0.5309 0.0
C3396 C 0.43405 0.14351 0.52721 0.0
C3397 C 0.42092 0.14134 0.5196 0.0
C3398 C 0.47561 0.15012 0.54943 0.0
C3399 C 0.47846 0.1406 0.56122 0.0
C3400 C 0.46474 0.14679 0.53913 0.0
C3401 C 0.4563 0.13392 0.54041 0.0
C3402 C 0.45977 0.12398 0.55172 0.0
C3403 C 0.47076 0.12726 0.56198 0.0
H3404 H 0.16033 0.17095 0.76747 0.0
H3405 H 0.11466 0.16059 0.77465 0.0
H3406 H 0.15693 0.19441 0.78011 0.0
H3407 H 0.11135 0.18369 0.78743 0.0
H3408 H 0.10537 0.22907 0.80321 0.0
H3409 H 0.11042 0.20983 0.78539 0.0
H3410 H 0.15286 0.20264 0.80516 0.0
H3411 H 0.14794 0.2222 0.82277 0.0
C3412 C 0.14953 0.17375 0.77156 0.0
C3413 C 0.13778 0.16386 0.77007 0.0
C3414 C 0.14761 0.18715 0.7789 0.0
C3415 C 0.13387 0.19098 0.78484 0.0
C3416 C 0.12203 0.18128 0.78283 0.0
C3417 C 0.12396 0.16793 0.77556 0.0
C3418 C 0.11591 0.2236 0.80357 0.0
C3419 C 0.12619 0.22709 0.81452 0.0
C3420 C 0.11877 0.21247 0.7934 0.0
C3421 C 0.13193 0.20445 0.79398 0.0
C3422 C 0.14262 0.2086 0.80432 0.0
C3423 C 0.13979 0.21982 0.81446 0.0
H3424 H 0.49788 0.09203 0.10538 0.0
H3425 H 0.49317 0.1017 0.15151 0.0
H3426 H 0.48517 0.06865 0.10905 0.0
H3427 H 0.48033 0.07867 0.15511 0.0
H3428 H 0.46433 0.03334 0.16113 0.0
H3429 H 0.48209 0.05248 0.1555 0.0
H3430 H 0.46023 0.06067 0.11428 0.0
H3431 H 0.44265 0.04123 0.11977 0.0
C3432 C 0.49433 0.08909 0.11633 0.0
C3433 C 0.49652 0.09877 0.12814 0.0
C3434 C 0.48694 0.07573 0.11841 0.0
C3435 C 0.48166 0.07174 0.13237 0.0
C3436 C 0.4844 0.08122 0.14425 0.0
C3437 C 0.49171 0.09452 0.14216 0.0
C3438 C 0.46348 0.039 0.15072 0.0
C3439 C 0.45197 0.03583 0.14097 0.0
C3440 C 0.47362 0.05007 0.14754 0.0
C3441 C 0.47247 0.05834 0.13456 0.0
C3442 C 0.46152 0.05451 0.12435 0.0
C3443 C 0.4514 0.04336 0.12751 0.0
H3444 H 0.23009 0.20212 0.37183 0.0
H3445 H 0.21567 0.20388 0.41687 0.0
H3446 H 0.21172 0.22047 0.36525 0.0
H3447 H 0.19675 0.22122 0.41032 0.0
H3448 H 0.16657 0.257 0.39893 0.0
H3449 H 0.18927 0.24396 0.40403 0.0
H3450 H 0.1873 0.22406 0.36096 0.0
H3451 H 0.16529 0.23815 0.3556 0.0
C3452 C 0.22299 0.20645 0.38032 0.0
C3453 C 0.22438 0.20158 0.39488 0.0
C3454 C 0.21233 0.2169 0.37655 0.0
C3455 C 0.20254 0.22247 0.38718 0.0
C3456 C 0.20418 0.21765 0.40178 0.0
C3457 C 0.21503 0.20752 0.40558 0.0
C3458 C 0.17124 0.2501 0.39046 0.0
C3459 C 0.16417 0.24858 0.37689 0.0
C3460 C 0.18418 0.2424 0.39343 0.0
C3461 C 0.19012 0.23252 0.3831 0.0
C3462 C 0.18332 0.23159 0.36923 0.0
C3463 C 0.17061 0.23966 0.36611 0.0
H3464 H 0.01578 0.92124 0.60675 0.0
H3465 H 0.01825 0.91143 0.65303 0.0
H3466 H 0.02842 0.94452 0.61106 0.0
H3467 H 0.03111 0.93433 0.65727 0.0
H3468 H 0.04715 0.97975 0.66396 0.0
H3469 H 0.02984 0.96036 0.65787 0.0
H3470 H 0.05287 0.95262 0.61717 0.0
H3471 H 0.06994 0.97236 0.6231 0.0
C3472 C 0.01883 0.92413 0.61786 0.0
C3473 C 0.01601 0.91443 0.62954 0.0
C3474 C 0.0262 0.93742 0.62032 0.0
C3475 C 0.03088 0.94135 0.63451 0.0
C3476 C 0.02752 0.93186 0.64622 0.0
C3477 C 0.02019 0.91863 0.64377 0.0
C3478 C 0.04838 0.97409 0.65359 0.0
C3479 C 0.06002 0.97755 0.64408 0.0
C3480 C 0.0385 0.96287 0.65013 0.0
C3481 C 0.04005 0.9547 0.63712 0.0
C3482 C 0.05123 0.9587 0.62724 0.0
C3483 C 0.06108 0.97002 0.63066 0.0
H3484 H 0.34244 0.76809 0.859 0.0
H3485 H 0.35427 0.77511 0.90432 0.0
H3486 H 0.31912 0.78076 0.8632 0.0
H3487 H 0.33127 0.78786 0.90844 0.0
H3488 H 0.29124 0.82309 0.87344 0.0
H3489 H 0.31108 0.80598 0.86786 0.0
H3490 H 0.30504 0.78529 0.91006 0.0
H3491 H 0.28548 0.80256 0.91575 0.0
C3492 C 0.33999 0.77215 0.86989 0.0
C3493 C 0.35024 0.77061 0.88131 0.0
C3494 C 0.32668 0.77951 0.87227 0.0
C3495 C 0.32329 0.78537 0.88616 0.0
C3496 C 0.33336 0.78333 0.89766 0.0
C3497 C 0.34664 0.77607 0.89527 0.0
C3498 C 0.29397 0.81472 0.88141 0.0
C3499 C 0.28687 0.81431 0.89511 0.0
C3500 C 0.30533 0.80486 0.87819 0.0
C3501 C 0.30982 0.79437 0.88859 0.0
C3502 C 0.30209 0.79342 0.90192 0.0
C3503 C 0.29079 0.80328 0.90514 0.0
H3504 H 0.49208 0.91455 0.36448 0.0
H3505 H 0.49699 0.92469 0.41049 0.0
H3506 H 0.47957 0.93772 0.36064 0.0
H3507 H 0.48463 0.94821 0.40657 0.0
H3508 H 0.4643 0.98324 0.35414 0.0
H3509 H 0.48175 0.96387 0.35994 0.0
H3510 H 0.45982 0.95652 0.40131 0.0
H3511 H 0.44257 0.97619 0.39564 0.0
C3512 C 0.49073 0.92185 0.37375 0.0
C3513 C 0.4955 0.9177 0.38781 0.0
C3514 C 0.48361 0.93524 0.37153 0.0
C3515 C 0.48104 0.9449 0.38329 0.0
C3516 C 0.48627 0.94098 0.39729 0.0
C3517 C 0.49346 0.92755 0.39951 0.0
C3518 C 0.46338 0.97771 0.36462 0.0
C3519 C 0.45194 0.98119 0.37436 0.0
C3520 C 0.47333 0.96651 0.3679 0.0
C3521 C 0.47206 0.95841 0.38098 0.0
C3522 C 0.46121 0.96254 0.39116 0.0
C3523 C 0.45127 0.97382 0.3879 0.0
H3524 H 0.29224 0.19545 0.64608 0.0
H3525 H 0.28564 0.21604 0.60395 0.0
H3526 H 0.31143 0.21322 0.65174 0.0
H3527 H 0.30447 0.23407 0.60976 0.0
H3528 H 0.35344 0.24555 0.61488 0.0
H3529 H 0.33047 0.23278 0.61089 0.0
H3530 H 0.3195 0.23793 0.65671 0.0
H3531 H 0.34287 0.2505 0.66079 0.0
C3532 C 0.29458 0.20403 0.6382 0.0
C3533 C 0.28752 0.20421 0.6245 0.0
C3534 C 0.30559 0.21427 0.64146 0.0
C3535 C 0.30972 0.22498 0.63111 0.0
C3536 C 0.30186 0.22578 0.61785 0.0
C3537 C 0.29096 0.2155 0.61456 0.0
C3538 C 0.34606 0.24419 0.62409 0.0
C3539 C 0.35007 0.24901 0.63817 0.0
C3540 C 0.33277 0.23691 0.62178 0.0
C3541 C 0.32305 0.23425 0.63348 0.0
C3542 C 0.32678 0.23961 0.64748 0.0
C3543 C 0.34013 0.24693 0.6498 0.0
H3544 H 0.06113 0.03609 0.89325 0.0
H3545 H 0.05857 0.04969 0.84799 0.0
H3546 H 0.04304 0.05472 0.89986 0.0
H3547 H 0.04145 0.06883 0.85456 0.0
H3548 H 1.0057 0.0991 0.86621 0.0
H3549 H 0.01877 0.07638 0.86122 0.0
H3550 H 0.03976 0.07934 0.90369 0.0
H3551 H 0.0257 0.1014 0.90898 0.0
C3552 C 0.05667 0.04305 0.88471 0.0
C3553 C 0.06125 0.04136 0.87009 0.0
C3554 C 0.04638 0.05387 0.8885 0.0
C3555 C 0.04065 0.06349 0.87781 0.0
C3556 C 0.04517 0.06154 0.86315 0.0
C3557 C 0.05516 0.05056 0.85935 0.0
C3558 C 0.01287 0.09466 0.87458 0.0
C3559 C 0.0147 0.10203 0.88796 0.0
C3560 C 0.02057 0.0817 0.87167 0.0
C3561 C 0.03072 0.07601 0.88186 0.0
C3562 C 0.03201 0.08312 0.89555 0.0
C3563 C 0.02396 0.09587 0.89861 0.0
H3564 H 0.2314 0.815 0.14211 0.0
H3565 H 0.21793 0.81257 0.09681 0.0
H3566 H 0.21288 0.79674 0.14858 0.0
H3567 H 0.19892 0.79527 0.10323 0.0
H3568 H 0.16903 0.7592 0.11452 0.0
H3569 H 0.19172 0.77242 0.10978 0.0
H3570 H 0.18817 0.79335 0.15225 0.0
H3571 H 0.16612 0.77913 0.1573 0.0
C3572 C 0.22449 0.81054 0.13354 0.0
C3573 C 0.22618 0.8152 0.11894 0.0
C3574 C 0.21375 0.80014 0.13725 0.0
C3575 C 0.20421 0.79439 0.12649 0.0
C3576 C 0.20616 0.799 0.11186 0.0
C3577 C 0.21706 0.8091 0.10814 0.0
C3578 C 0.17333 0.7664 0.12294 0.0
C3579 C 0.16581 0.76818 0.13624 0.0
C3580 C 0.18627 0.77417 0.12018 0.0
C3581 C 0.19176 0.78436 0.13044 0.0
C3582 C 0.18451 0.78558 0.14406 0.0
C3583 C 0.17179 0.77745 0.14698 0.0
H3584 H 0.1187 0.44446 0.04134 0.0
H3585 H 0.16117 0.4647 0.03594 0.0
H3586 H 0.1132 0.46136 0.06138 0.0
H3587 H 0.15555 0.48183 0.05564 0.0
H3588 H 0.15024 0.49132 0.10497 0.0
H3589 H 0.15414 0.47914 0.08164 0.0
H3590 H 0.10864 0.48603 0.07033 0.0
H3591 H 0.10466 0.49805 0.09402 0.0
C3592 C 0.1267 0.45277 0.04415 0.0
C3593 C 0.14044 0.45311 0.03714 0.0
C3594 C 0.12354 0.46251 0.05564 0.0
C3595 C 0.13403 0.47284 0.06033 0.0
C3596 C 0.14734 0.47381 0.05258 0.0
C3597 C 0.15053 0.46404 0.04118 0.0
C3598 C 0.14108 0.49044 0.09746 0.0
C3599 C 0.12712 0.49563 0.10143 0.0
C3600 C 0.14335 0.48351 0.08398 0.0
C3601 C 0.13171 0.48156 0.07403 0.0
C3602 C 0.11782 0.4872 0.07778 0.0
C3603 C 0.11556 0.49419 0.09131 0.0
H3604 H 0.60629 0.01649 0.92257 0.0
H3605 H 0.65173 0.02227 0.9105 0.0
H3606 H 0.61091 0.02911 0.94582 0.0
H3607 H 0.65626 0.03502 0.93342 0.0
H3608 H 0.62205 0.07089 0.97396 0.0
H3609 H 0.61612 0.05407 0.95397 0.0
H3610 H 0.65803 0.0327 0.95956 0.0
H3611 H 0.66407 0.04969 0.97926 0.0
C3612 C 0.6173 0.02027 0.92495 0.0
C3613 C 0.62863 0.01837 0.91465 0.0
C3614 C 0.61992 0.02761 0.93823 0.0
C3615 C 0.63396 0.03315 0.94153 0.0
C3616 C 0.64537 0.03076 0.93141 0.0
C3617 C 0.64274 0.02349 0.91817 0.0
C3618 C 0.62989 0.06244 0.97109 0.0
C3619 C 0.64359 0.06175 0.97813 0.0
C3620 C 0.62647 0.05274 0.95964 0.0
C3621 C 0.63668 0.04212 0.95499 0.0
C3622 C 0.65003 0.04093 0.96262 0.0
C3623 C 0.65346 0.05063 0.974 0.0
H3624 H 0.19222 0.3702 0.22161 0.0
H3625 H 0.21418 0.41176 0.2274 0.0
H3626 H 0.20923 0.36399 0.20186 0.0
H3627 H 0.23139 0.40543 0.20799 0.0
H3628 H 0.24677 0.35347 0.17073 0.0
H3629 H 0.23401 0.35823 0.19389 0.0
H3630 H 0.22963 0.40387 0.18191 0.0
H3631 H 0.24255 0.39919 0.15912 0.0
C3632 C 0.20088 0.37787 0.2189 0.0
C3633 C 0.20172 0.39155 0.22599 0.0
C3634 C 0.21069 0.37429 0.2076 0.0
C3635 C 0.22161 0.38428 0.20315 0.0
C3636 C 0.22294 0.39759 0.21087 0.0
C3637 C 0.21311 0.40119 0.22209 0.0
C3638 C 0.24331 0.36456 0.1732 0.0
C3639 C 0.24567 0.37594 0.16304 0.0
C3640 C 0.23588 0.36727 0.18642 0.0
C3641 C 0.23071 0.38144 0.18981 0.0
C3642 C 0.2336 0.39287 0.17984 0.0
C3643 C 0.24096 0.39016 0.16667 0.0
H3644 H 0.89632 0.94474 0.47401 0.0
H3645 H 0.85392 0.96479 0.48054 0.0
H3646 H 0.90149 0.96212 0.4543 0.0
H3647 H 0.85922 0.9824 0.46118 0.0
H3648 H 0.90945 0.99946 0.42226 0.0
H3649 H 0.90587 0.987 0.4458 0.0
H3650 H 0.8602 0.98027 0.43513 0.0
H3651 H 0.86369 0.99288 0.41197 0.0
C3652 C 0.88827 0.95311 0.47153 0.0
C3653 C 0.87464 0.95325 0.47874 0.0
C3654 C 0.89125 0.96312 0.46022 0.0
C3655 C 0.88068 0.97355 0.45594 0.0
C3656 C 0.86748 0.97431 0.46392 0.0
C3657 C 0.86448 0.96427 0.47512 0.0
C3658 C 0.8986 0.99554 0.42509 0.0
C3659 C 0.88687 0.99715 0.4152 0.0
C3660 C 0.89657 0.9883 0.43853 0.0
C3661 C 0.88275 0.98257 0.4424 0.0
C3662 C 0.87095 0.9847 0.4327 0.0
C3663 C 0.87298 0.99188 0.41931 0.0
H3664 H 0.82254 0.14872 0.22418 0.0
H3665 H 0.8002 0.10775 0.2323 0.0
H3666 H 0.8053 0.1542 0.20444 0.0
H3667 H 0.78276 0.11338 0.21288 0.0
H3668 H 0.77223 0.11676 0.16356 0.0
H3669 H 0.78479 0.11336 0.18676 0.0
H3670 H 0.78064 0.15967 0.19593 0.0
H3671 H 0.76822 0.16313 0.17236 0.0
C3672 C 0.8137 0.14107 0.22204 0.0
C3673 C 0.81287 0.12772 0.22972 0.0
C3674 C 0.80378 0.14422 0.21072 0.0
C3675 C 0.79275 0.13412 0.20686 0.0
C3676 C 0.79131 0.12126 0.21529 0.0
C3677 C 0.80126 0.11808 0.22652 0.0
C3678 C 0.77379 0.12622 0.17058 0.0
C3679 C 0.76925 0.14024 0.16604 0.0
C3680 C 0.78094 0.12425 0.18399 0.0
C3681 C 0.78377 0.13623 0.1933 0.0
C3682 C 0.77878 0.15021 0.18899 0.0
C3683 C 0.77156 0.15218 0.17553 0.0
H3684 H 0.35224 0.5497 0.5349 0.0
H3685 H 0.39366 0.57156 0.54197 0.0
H3686 H 0.358 0.53239 0.55441 0.0
H3687 H 0.39929 0.55441 0.56175 0.0
H3688 H 0.36291 0.52169 0.60369 0.0
H3689 H 0.35887 0.53449 0.58069 0.0
H3690 H 0.40466 0.52936 0.56963 0.0
H3691 H 0.40878 0.51667 0.59295 0.0
C3692 C 0.36267 0.5507 0.54048 0.0
C3693 C 0.37243 0.56212 0.53694 0.0
C3694 C 0.36594 0.54082 0.55176 0.0
C3695 C 0.37902 0.5421 0.55984 0.0
C3696 C 0.38916 0.553 0.55572 0.0
C3697 C 0.38591 0.56289 0.5444 0.0
C3698 C 0.37211 0.52309 0.59629 0.0
C3699 C 0.38619 0.51818 0.60021 0.0
C3700 C 0.36977 0.53038 0.58301 0.0
C3701 C 0.38144 0.53301 0.57326 0.0
C3702 C 0.39545 0.52766 0.57694 0.0
C3703 C 0.39779 0.52028 0.59026 0.0
H3704 H 0.24174 0.61355 0.35319 0.0
H3705 H 0.24969 0.65892 0.34213 0.0
H3706 H 0.22945 0.60994 0.32989 0.0
H3707 H 0.23755 0.65522 0.31846 0.0
H3708 H 0.19537 0.64606 0.28994 0.0
H3709 H 0.21266 0.65126 0.3097 0.0
H3710 H 0.23213 0.60845 0.30385 0.0
H3711 H 0.2146 0.60313 0.28442 0.0
C3712 C 0.2411 0.62272 0.34566 0.0
C3713 C 0.24666 0.63654 0.34959 0.0
C3714 C 0.23412 0.62061 0.33219 0.0
C3715 C 0.23248 0.63228 0.32222 0.0
C3716 C 0.23848 0.64602 0.32593 0.0
C3717 C 0.24553 0.64812 0.33945 0.0
C3718 C 0.20356 0.63789 0.29265 0.0
C3719 C 0.20348 0.62411 0.28572 0.0
C3720 C 0.21352 0.64088 0.30398 0.0
C3721 C 0.22365 0.63017 0.30858 0.0
C3722 C 0.22425 0.61682 0.30086 0.0
C3723 C 0.21426 0.61381 0.28963 0.0
H3724 H 0.26931 0.35395 0.8446 0.0
H3725 H 0.27255 0.40008 0.85485 0.0
H3726 H 0.28193 0.3583 0.82129 0.0
H3727 H 0.28533 0.40437 0.83189 0.0
H3728 H 0.32372 0.37025 0.7936 0.0
H3729 H 0.30661 0.3643 0.81331 0.0
H3730 H 0.28374 0.4051 0.80574 0.0
H3731 H 0.30106 0.4112 0.78633 0.0
C3732 C 0.27252 0.36504 0.8418 0.0
C3733 C 0.26994 0.37666 0.85163 0.0
C3734 C 0.27986 0.36752 0.82849 0.0
C3735 C 0.28473 0.38169 0.82468 0.0
C3736 C 0.2816 0.39335 0.83429 0.0
C3737 C 0.27431 0.39087 0.84756 0.0
C3738 C 0.31488 0.37783 0.79596 0.0
C3739 C 0.31387 0.39128 0.78847 0.0
C3740 C 0.30501 0.37439 0.80726 0.0
C3741 C 0.29387 0.3843 0.8113 0.0
C3742 C 0.29236 0.39734 0.80317 0.0
C3743 C 0.30224 0.4008 0.79194 0.0
H3744 H 0.9218 0.90853 0.51996 0.0
H3745 H 0.91096 0.86268 0.52498 0.0
H3746 H 0.94494 0.90442 0.53296 0.0
H3747 H 0.9338 0.85865 0.53808 0.0
H3748 H 0.97962 0.8521 0.55352 0.0
H3749 H 0.96011 0.85776 0.53618 0.0
H3750 H 0.9526 0.89909 0.55809 0.0
H3751 H 0.97237 0.89355 0.57529 0.0
C3752 C 0.92443 0.89754 0.52365 0.0
C3753 C 0.9145 0.88594 0.52144 0.0
C3754 C 0.93764 0.89521 0.53121 0.0
C3755 C 0.94126 0.88121 0.53663 0.0
C3756 C 0.93153 0.86954 0.53392 0.0
C3757 C 0.91835 0.87188 0.52645 0.0
C3758 C 0.97399 0.86252 0.5545 0.0
C3759 C 0.9775 0.87231 0.56589 0.0
C3760 C 0.96271 0.86572 0.5446 0.0
C3761 C 0.9546 0.87879 0.54584 0.0
C3762 C 0.95865 0.88896 0.55673 0.0
C3763 C 0.96998 0.88576 0.56664 0.0
H3764 H 0.87279 0.22284 0.3243 0.0
H3765 H 0.91342 0.23128 0.30145 0.0
H3766 H 0.86694 0.20352 0.30672 0.0
H3767 H 0.90741 0.21228 0.28366 0.0
H3768 H 0.8565 0.17339 0.26854 0.0
H3769 H 0.86075 0.19624 0.28196 0.0
H3770 H 0.90698 0.18614 0.28426 0.0
H3771 H 0.90281 0.16365 0.27065 0.0
C3772 C 0.88032 0.22081 0.31533 0.0
C3773 C 0.89364 0.22852 0.31438 0.0
C3774 C 0.87693 0.20975 0.30519 0.0
C3775 C 0.88678 0.20616 0.29383 0.0
C3776 C 0.8997 0.21449 0.29243 0.0
C3777 C 0.90311 0.22548 0.30259 0.0
C3778 C 0.8676 0.1762 0.27169 0.0
C3779 C 0.8793 0.16665 0.26853 0.0
C3780 C 0.87002 0.18925 0.2795 0.0
C3781 C 0.88421 0.19307 0.28428 0.0
C3782 C 0.89594 0.18374 0.28061 0.0
C3783 C 0.89353 0.17074 0.27285 0.0
H3784 H 0.54121 0.11755 0.07147 0.0
H3785 H 0.53606 0.15978 0.05066 0.0
H3786 H 0.56118 0.1117 0.05462 0.0
H3787 H 0.55571 0.15381 0.03358 0.0
H3788 H 0.5941 0.10257 0.01837 0.0
H3789 H 0.57028 0.10679 0.03007 0.0
H3790 H 0.58168 0.15235 0.03646 0.0
H3791 H 0.60513 0.14822 0.0246 0.0
C3792 C 0.54404 0.12542 0.06303 0.0
C3793 C 0.53714 0.1392 0.06253 0.0
C3794 C 0.5555 0.12205 0.05333 0.0
C3795 C 0.56027 0.13238 0.04287 0.0
C3796 C 0.55259 0.14572 0.04171 0.0
C3797 C 0.54122 0.14911 0.05144 0.0
C3798 C 0.59138 0.11353 0.02205 0.0
C3799 C 0.60156 0.12504 0.02058 0.0
C3800 C 0.57777 0.11594 0.02886 0.0
C3801 C 0.57401 0.12991 0.03426 0.0
C3802 C 0.58402 0.14149 0.03226 0.0
C3803 C 0.59758 0.13909 0.02552 0.0
H3804 H 0.64852 0.79166 0.82049 0.0
H3805 H 0.60722 0.78389 0.79868 0.0
H3806 H 0.65394 0.81135 0.80319 0.0
H3807 H 0.61279 0.80327 0.78115 0.0
H3808 H 0.61657 0.85263 0.77064 0.0
H3809 H 0.61303 0.82938 0.78309 0.0
H3810 H 0.65921 0.81979 0.7785 0.0
H3811 H 0.66281 0.8434 0.76621 0.0
C3812 C 0.64078 0.79387 0.81176 0.0
C3813 C 0.62736 0.7863 0.81109 0.0
C3814 C 0.6439 0.80516 0.80179 0.0
C3815 C 0.6337 0.8091 0.79088 0.0
C3816 C 0.62076 0.80079 0.78961 0.0
C3817 C 0.6176 0.78958 0.7996 0.0
C3818 C 0.62596 0.8455 0.77207 0.0
C3819 C 0.63999 0.84994 0.76747 0.0
C3820 C 0.62391 0.83206 0.77916 0.0
C3821 C 0.63584 0.82264 0.78187 0.0
C3822 C 0.64981 0.82683 0.77676 0.0
C3823 C 0.65185 0.84031 0.76961 0.0
H3824 H 0.92213 0.10299 0.99738 0.0
H3825 H 0.91192 0.1491 0.99377 0.0
H3826 H 0.94549 0.10723 0.98481 0.0
H3827 H 0.93497 0.15328 0.98109 0.0
H3828 H 0.97287 0.11922 0.94262 0.0
H3829 H 0.95337 0.11318 0.95995 0.0
H3830 H 0.96123 0.15386 0.98293 0.0
H3831 H 0.98047 0.16003 0.96543 0.0
C3832 C 0.92495 0.11405 0.99411 0.0
C3833 C 0.91512 0.12569 0.99656 0.0
C3834 C 0.93829 0.11647 0.9868 0.0
C3835 C 0.94214 0.1306 0.98187 0.0
C3836 C 0.93253 0.14229 0.98488 0.0
C3837 C 0.91922 0.13987 0.9921 0.0
C3838 C 0.97066 0.12673 0.95156 0.0
C3839 C 0.97815 0.14018 0.95252 0.0
C3840 C 0.95947 0.12325 0.96154 0.0
C3841 C 0.95554 0.13314 0.97274 0.0
C3842 C 0.96373 0.14613 0.97426 0.0
C3843 C 0.97486 0.14962 0.96427 0.0
H3844 H 0.61252 0.16135 0.74312 0.0
H3845 H 0.65839 0.17139 0.74926 0.0
H3846 H 0.60904 0.18458 0.7306 0.0
H3847 H 0.65484 0.19496 0.73689 0.0
H3848 H 0.64508 0.22318 0.6947 0.0
H3849 H 0.65024 0.20338 0.71197 0.0
H3850 H 0.60834 0.21073 0.73286 0.0
H3851 H 0.60306 0.23022 0.71538 0.0
C3852 C 0.62183 0.16864 0.74204 0.0
C3853 C 0.63575 0.16445 0.74716 0.0
C3854 C 0.61982 0.18206 0.73492 0.0
C3855 C 0.63166 0.19171 0.73268 0.0
C3856 C 0.64551 0.18775 0.73827 0.0
C3857 C 0.64752 0.17429 0.74547 0.0
C3858 C 0.63711 0.22078 0.70318 0.0
C3859 C 0.62359 0.22819 0.70354 0.0
C3860 C 0.64008 0.20943 0.71313 0.0
C3861 C 0.6296 0.20526 0.7237 0.0
C3862 C 0.61652 0.21339 0.72466 0.0
C3863 C 0.61353 0.22466 0.7147 0.0
H3864 H 0.53398 0.85789 0.46641 0.0
H3865 H 0.54094 0.89969 0.44524 0.0
H3866 H 0.55348 0.86339 0.48379 0.0
H3867 H 0.56077 0.90505 0.4624 0.0
H3868 H 0.60288 0.86741 0.49358 0.0
H3869 H 0.57954 0.86394 0.48132 0.0
H3870 H 0.56953 0.9099 0.48709 0.0
H3871 H 0.59324 0.91345 0.4992 0.0
C3872 C 0.53952 0.86837 0.4656 0.0
C3873 C 0.53599 0.87828 0.45433 0.0
C3874 C 0.55079 0.87148 0.47551 0.0
C3875 C 0.55893 0.88454 0.47435 0.0
C3876 C 0.55473 0.89491 0.4637 0.0
C3877 C 0.54335 0.89183 0.45382 0.0
C3878 C 0.59565 0.87677 0.49244 0.0
C3879 C 0.59999 0.89073 0.49733 0.0
C3880 C 0.58216 0.87476 0.48547 0.0
C3881 C 0.57258 0.88664 0.48318 0.0
C3882 C 0.57669 0.90054 0.48853 0.0
C3883 C 0.59023 0.90255 0.49556 0.0
H3884 H 0.89962 0.8553 0.24196 0.0
H3885 H 0.85405 0.84423 0.24865 0.0
H3886 H 0.90346 0.8322 0.22932 0.0
H3887 H 0.85797 0.82079 0.23614 0.0
H3888 H 0.91033 0.78666 0.21417 0.0
H3889 H 0.90479 0.8061 0.23162 0.0
H3890 H 0.86251 0.81239 0.21119 0.0
H3891 H 0.86794 0.79262 0.19394 0.0
C3892 C 0.89045 0.84781 0.24097 0.0
C3893 C 0.87651 0.85167 0.24629 0.0
C3894 C 0.89268 0.83446 0.23377 0.0
C3895 C 0.88103 0.82456 0.23166 0.0
C3896 C 0.86716 0.8282 0.23742 0.0
C3897 C 0.86494 0.84159 0.2447 0.0
C3898 C 0.89972 0.79198 0.21357 0.0
C3899 C 0.88963 0.78816 0.20256 0.0
C3900 C 0.89658 0.80322 0.22352 0.0
C3901 C 0.8833 0.81104 0.22268 0.0
C3902 C 0.87282 0.80659 0.21224 0.0
C3903 C 0.87594 0.79525 0.20231 0.0
H3904 H 0.56112 0.98162 0.89593 0.0
H3905 H 0.55748 0.9685 0.8506 0.0
H3906 H 0.54311 0.96299 0.90275 0.0
H3907 H 0.54049 0.94938 0.85733 0.0
H3908 H 0.50632 0.91779 0.86933 0.0
H3909 H 0.51828 0.94115 0.86447 0.0
H3910 H 0.54035 0.93832 0.90642 0.0
H3911 H 0.52732 0.91562 0.91162 0.0
C3912 C 0.55641 0.97481 0.88741 0.0
C3913 C 0.56072 0.97659 0.87272 0.0
C3914 C 0.54617 0.96398 0.89132 0.0
C3915 C 0.54025 0.95443 0.88067 0.0
C3916 C 0.54437 0.95658 0.86592 0.0
C3917 C 0.5543 0.96758 0.86201 0.0
C3918 C 0.51346 0.92241 0.87763 0.0
C3919 C 0.51592 0.91489 0.89082 0.0
C3920 C 0.52053 0.93574 0.87479 0.0
C3921 C 0.53071 0.94164 0.88484 0.0
C3922 C 0.53256 0.93438 0.89839 0.0
C3923 C 0.52511 0.92127 0.9014 0.0
H3924 H 0.85411 0.77334 0.61031 0.0
H3925 H 0.84244 0.76598 0.65564 0.0
H3926 H 0.83111 0.7862 0.60642 0.0
H3927 H 0.81915 0.77875 0.65167 0.0
H3928 H 0.78526 0.80118 0.59961 0.0
H3929 H 0.80484 0.78382 0.60495 0.0
H3930 H 0.81126 0.80407 0.64729 0.0
H3931 H 0.79142 0.82129 0.64206 0.0
C3932 C 0.84651 0.77423 0.61941 0.0
C3933 C 0.85016 0.76865 0.63331 0.0
C3934 C 0.83324 0.78156 0.61715 0.0
C3935 C 0.82323 0.78355 0.62873 0.0
C3936 C 0.82666 0.77754 0.64254 0.0
C3937 C 0.83996 0.77012 0.64479 0.0
C3938 C 0.79067 0.80179 0.61018 0.0
C3939 C 0.78684 0.81273 0.62036 0.0
C3940 C 0.80197 0.79187 0.6132 0.0
C3941 C 0.8098 0.79265 0.62647 0.0
C3942 C 0.80542 0.80307 0.637 0.0
C3943 C 0.79407 0.81299 0.63398 0.0
H3944 H 0.96419 0.03633 0.35238 0.0
H3945 H 0.94451 0.04179 0.39512 0.0
H3946 H 0.98209 0.05529 0.35815 0.0
H3947 H 0.96216 0.06111 0.40076 0.0
H3948 H 0.99972 0.09245 0.40956 0.0
H3949 H 0.98705 0.06916 0.40528 0.0
H3950 H 0.98045 0.08129 0.35994 0.0
H3951 H 0.9933 0.1042 0.36412 0.0
C3952 C 0.96381 0.04143 0.3631 0.0
C3953 C 0.95282 0.03763 0.37323 0.0
C3954 C 0.97402 0.0524 0.36638 0.0
C3955 C 0.97344 0.05997 0.37982 0.0
C3956 C 0.96302 0.0555 0.39032 0.0
C3957 C 0.95285 0.04442 0.38708 0.0
C3958 C 0.99579 0.08999 0.39862 0.0
C3959 C 0.9975 0.10022 0.3872 0.0
C3960 C 0.98842 0.07669 0.39619 0.0
C3961 C 0.98265 0.07331 0.38227 0.0
C3962 C 0.9849 0.08334 0.37075 0.0
C3963 C 0.99222 0.09658 0.37318 0.0
H3964 H 0.6688 0.25688 0.11479 0.0
H3965 H 0.66612 0.23678 0.1575 0.0
H3966 H 0.69171 0.24404 0.11007 0.0
H3967 H 0.68838 0.22295 0.15248 0.0
H3968 H 0.73184 0.2019 0.14265 0.0
H3969 H 0.71307 0.21994 0.14899 0.0
H3970 H 0.69962 0.22146 0.10349 0.0
H3971 H 0.7189 0.2044 0.09721 0.0
C3972 C 0.67319 0.24973 0.1232 0.0
C3973 C 0.66567 0.24781 0.13649 0.0
C3974 C 0.68626 0.24217 0.12045 0.0
C3975 C 0.69192 0.23206 0.13071 0.0
C3976 C 0.68463 0.23067 0.1443 0.0
C3977 C 0.67177 0.23858 0.1472 0.0
C3978 C 0.72501 0.20635 0.13401 0.0
C3979 C 0.72691 0.20175 0.11943 0.0
C3980 C 0.71411 0.2166 0.13764 0.0
C3981 C 0.7046 0.22227 0.12682 0.0
C3982 C 0.7068 0.21778 0.11218 0.0
C3983 C 0.71787 0.20783 0.10854 0.0
H3984 H 0.57064 0.04228 0.6229 0.0
H3985 H 0.54873 0.03601 0.66444 0.0
H3986 H 0.55353 0.06195 0.61686 0.0
H3987 H 0.53142 0.05539 0.65827 0.0
H3988 H 0.52018 0.10437 0.65228 0.0
H3989 H 0.53305 0.08153 0.65687 0.0
H3990 H 0.52871 0.06977 0.61117 0.0
H3991 H 0.516 0.09295 0.6065 0.0
C3992 C 0.56197 0.04486 0.6306 0.0
C3993 C 0.56117 0.03765 0.64422 0.0
C3994 C 0.5521 0.05613 0.62712 0.0
C3995 C 0.54116 0.06043 0.63715 0.0
C3996 C 0.53987 0.05261 0.6504 0.0
C3997 C 0.54976 0.0414 0.6539 0.0
C3998 C 0.52175 0.09685 0.64322 0.0
C3999 C 0.51708 0.10056 0.62901 0.0
C4000 C 0.5291 0.08365 0.64588 0.0
C4001 C 0.532 0.07375 0.6344 0.0
C4002 C 0.52684 0.0772 0.62025 0.0
C4003 C 0.51943 0.09044 0.61759 0.0
H4004 H 0.67031 0.76848 0.35772 0.0
H4005 H 0.65904 0.77286 0.40353 0.0
H4006 H 0.6937 0.78086 0.36235 0.0
H4007 H 0.68208 0.78539 0.40807 0.0
H4008 H 0.7278 0.80029 0.41561 0.0
H4009 H 0.70817 0.78328 0.40942 0.0
H4010 H 0.70196 0.80556 0.36806 0.0
H4011 H 0.7219 0.82236 0.37413 0.0
C4012 C 0.6729 0.77189 0.36881 0.0
C4013 C 0.66277 0.76969 0.38024 0.0
C4014 C 0.68625 0.7791 0.37144 0.0
C4015 C 0.68981 0.7842 0.38558 0.0
C4016 C 0.67988 0.78146 0.39708 0.0
C4017 C 0.66657 0.77432 0.39445 0.0
C4018 C 0.72243 0.80142 0.40508 0.0
C4019 C 0.72636 0.81279 0.39543 0.0
C4020 C 0.71108 0.79171 0.40156 0.0
C4021 C 0.70328 0.79314 0.38832 0.0
C4022 C 0.70775 0.80403 0.37831 0.0
C4023 C 0.71918 0.81372 0.38181 0.0
H4024 H 0.99116 0.91091 0.15341 0.0
H4025 H 0.99689 0.92241 0.10781 0.0
H4026 H 0.97819 0.93379 0.15763 0.0
H4027 H 0.98404 0.9456 0.11211 0.0
H4028 H 0.9627 0.97946 0.1647 0.0
H4029 H 0.98013 0.96004 0.15897 0.0
H4030 H 0.95888 0.95328 0.11717 0.0
H4031 H 0.94162 0.97298 0.12279 0.0
C4032 C 0.98989 0.91846 0.14432 0.0
C4033 C 0.99503 0.91477 0.13026 0.0
C4034 C 0.9825 0.93166 0.14676 0.0
C4035 C 0.98001 0.94158 0.13521 0.0
C4036 C 0.98561 0.93815 0.12122 0.0
C4037 C 0.99309 0.92491 0.11879 0.0
C4038 C 0.96188 0.97401 0.15418 0.0
C4039 C 0.95067 0.97771 0.14426 0.0
C4040 C 0.97184 0.96279 0.15093 0.0
C4041 C 0.97081 0.95492 0.1377 0.0
C4042 C 0.96009 0.95916 0.12743 0.0
C4043 C 0.95014 0.97043 0.13067 0.0
H4044 H 0.84355 0.26062 0.89921 0.0
H4045 H 0.84615 0.24097 0.85628 0.0
H4046 H 0.82073 0.2476 0.90391 0.0
H4047 H 0.82399 0.22693 0.86128 0.0
H4048 H 0.78156 0.20425 0.87171 0.0
H4049 H 0.79936 0.22322 0.86521 0.0
H4050 H 0.81385 0.22465 0.91039 0.0
H4051 H 0.79558 0.20665 0.91685 0.0
C4052 C 0.83913 0.25356 0.89073 0.0
C4053 C 0.84663 0.25176 0.87742 0.0
C4054 C 0.82612 0.2459 0.89347 0.0
C4055 C 0.82055 0.23578 0.88317 0.0
C4056 C 0.82771 0.23463 0.8695 0.0
C4057 C 0.84051 0.24267 0.86661 0.0
C4058 C 0.78838 0.2089 0.88026 0.0
C4059 C 0.78712 0.20394 0.8948 0.0
C4060 C 0.79872 0.21969 0.87653 0.0
C4061 C 0.80826 0.22558 0.88721 0.0
C4062 C 0.80661 0.2208 0.90181 0.0
C4063 C 0.79612 0.21029 0.90556 0.0
H4064 H 0.85446 0.55108 0.97822 0.0
H4065 H 0.89727 0.5707 0.97327 0.0
H4066 H 0.86023 0.53352 0.95895 0.0
H4067 H 0.90291 0.5534 0.95361 0.0
H4068 H 0.86596 0.52342 0.9099 0.0
H4069 H 0.86198 0.53586 0.93304 0.0
H4070 H 0.90731 0.52867 0.94483 0.0
H4071 H 0.9114 0.51641 0.92128 0.0
C4072 C 0.8652 0.55151 0.97315 0.0
C4073 C 0.87535 0.56239 0.97719 0.0
C4074 C 0.86848 0.5415 0.96201 0.0
C4075 C 0.88193 0.54219 0.95447 0.0
C4076 C 0.89247 0.55246 0.95918 0.0
C4077 C 0.88922 0.56242 0.97046 0.0
C4078 C 0.87507 0.52429 0.91747 0.0
C4079 C 0.88902 0.51895 0.91367 0.0
C4080 C 0.87275 0.53137 0.93086 0.0
C4081 C 0.88431 0.53331 0.9409 0.0
C4082 C 0.89819 0.52752 0.93732 0.0
C4083 C 0.90051 0.52039 0.92387 0.0
H4084 H 0.35286 0.96544 0.03597 0.0
H4085 H 0.39434 0.94385 0.04343 0.0
H4086 H 0.35833 0.98282 0.05547 0.0
H4087 H 0.39965 0.96099 0.0633 0.0
H4088 H 0.40877 0.99854 0.09469 0.0
H4089 H 0.40499 0.98562 0.07147 0.0
H4090 H 0.35885 0.98148 0.08149 0.0
H4091 H 0.36256 0.99462 0.10433 0.0
C4092 C 0.36323 0.96449 0.04167 0.0
C4093 C 0.37311 0.95316 0.0382 0.0
C4094 C 0.36633 0.97441 0.05296 0.0
C4095 C 0.37934 0.97321 0.06118 0.0
C4096 C 0.38958 0.96235 0.05718 0.0
C4097 C 0.38651 0.95247 0.04579 0.0
C4098 C 0.39779 0.99509 0.09179 0.0
C4099 C 0.38598 0.99761 0.1014 0.0
C4100 C 0.39563 0.98757 0.07852 0.0
C4101 C 0.38161 0.98242 0.07456 0.0
C4102 C 0.36976 0.98544 0.08399 0.0
C4103 C 0.37191 0.99293 0.09719 0.0
H4104 H 0.7674 0.65971 0.8445 0.0
H4105 H 0.76983 0.61352 0.85476 0.0
H4106 H 0.78009 0.65516 0.82128 0.0
H4107 H 0.78272 0.60905 0.83191 0.0
H4108 H 0.7984 0.60191 0.78636 0.0
H4109 H 0.78129 0.6082 0.80589 0.0
H4110 H 0.8045 0.64889 0.81309 0.0
H4111 H 0.82137 0.64275 0.79323 0.0
C4112 C 0.77047 0.64857 0.84173 0.0
C4113 C 0.7676 0.63699 0.85153 0.0
C4114 C 0.77786 0.64597 0.82847 0.0
C4115 C 0.78252 0.63173 0.82467 0.0
C4116 C 0.77915 0.62012 0.83428 0.0
C4117 C 0.7718 0.62271 0.84749 0.0
C4118 C 0.79971 0.61232 0.79193 0.0
C4119 C 0.81134 0.62177 0.78829 0.0
C4120 C 0.78994 0.61589 0.80323 0.0
C4121 C 0.7916 0.62896 0.81128 0.0
C4122 C 0.80278 0.63878 0.8071 0.0
C4123 C 0.81251 0.63523 0.79572 0.0
H4124 H 0.15988 0.04757 0.53622 0.0
H4125 H 0.11897 0.07068 0.5422 0.0
H4126 H 0.15311 0.0305 0.55561 0.0
H4127 H 0.11234 0.05381 0.56193 0.0
H4128 H 0.14722 0.02048 0.6048 0.0
H4129 H 0.15194 0.03275 0.58167 0.0
H4130 H 0.10605 0.02931 0.57037 0.0
H4131 H 0.10126 0.01718 0.59387 0.0
C4132 C 0.14933 0.04889 0.54153 0.0
C4133 C 0.14003 0.06059 0.53774 0.0
C4134 C 0.14549 0.03915 0.55275 0.0
C4135 C 0.13229 0.0409 0.56056 0.0
C4136 C 0.12256 0.05205 0.55613 0.0
C4137 C 0.12638 0.06177 0.54482 0.0
C4138 C 0.13814 0.02213 0.59732 0.0
C4139 C 0.12385 0.01788 0.60125 0.0
C4140 C 0.14087 0.02911 0.58396 0.0
C4141 C 0.12938 0.03207 0.57408 0.0
C4142 C 0.11514 0.02735 0.57777 0.0
C4143 C 0.11241 0.0203 0.59119 0.0
H4144 H 0.24639 0.85551 0.84437 0.0
H4145 H 0.24296 0.90149 0.85522 0.0
H4146 H 0.23355 0.86007 0.82123 0.0
H4147 H 0.22994 0.90598 0.83246 0.0
H4148 H 0.21389 0.9134 0.78722 0.0
H4149 H 0.23135 0.90711 0.8064 0.0
H4150 H 0.20884 0.866 0.81341 0.0
H4151 H 0.1916 0.87215 0.79387 0.0
C4152 C 0.24309 0.86661 0.84174 0.0
C4153 C 0.24569 0.87812 0.85168 0.0
C4154 C 0.23561 0.86921 0.82853 0.0
C4155 C 0.23063 0.88339 0.82495 0.0
C4156 C 0.23376 0.89495 0.83468 0.0
C4157 C 0.24119 0.89236 0.84783 0.0
C4158 C 0.21281 0.9029 0.79267 0.0
C4159 C 0.20125 0.89334 0.78908 0.0
C4160 C 0.22278 0.89933 0.80376 0.0
C4161 C 0.22141 0.88614 0.81167 0.0
C4162 C 0.21033 0.8762 0.80752 0.0
C4163 C 0.20039 0.87975 0.79633 0.0
H4164 H 0.65064 0.49244 0.40938 0.0
H4165 H 0.60464 0.49731 0.41955 0.0
H4166 H 0.65454 0.48008 0.4326 0.0
H4167 H 0.60861 0.48512 0.44315 0.0
H4168 H 0.61946 0.44339 0.47156 0.0
H4169 H 0.61381 0.46052 0.45177 0.0
H4170 H 0.65542 0.48212 0.45861 0.0
H4171 H 0.66122 0.46476 0.47805 0.0
C4172 C 0.64138 0.49114 0.41671 0.0
C4173 C 0.62731 0.49583 0.41254 0.0
C4174 C 0.64364 0.48409 0.43013 0.0
C4175 C 0.6319 0.48154 0.43982 0.0
C4176 C 0.61789 0.48674 0.4359 0.0
C4177 C 0.61563 0.49384 0.42242 0.0
C4178 C 0.62726 0.45199 0.46904 0.0
C4179 C 0.64086 0.45259 0.47628 0.0
C4180 C 0.62401 0.46186 0.45769 0.0
C4181 C 0.63425 0.4726 0.45338 0.0
C4182 C 0.64741 0.47379 0.46136 0.0
C4183 C 0.65069 0.46389 0.47261 0.0
H4184 H 0.76492 0.35374 0.67249 0.0
H4185 H 0.76809 0.39993 0.66247 0.0
H4186 H 0.77756 0.35799 0.69579 0.0
H4187 H 0.78094 0.40411 0.68537 0.0
H4188 H 0.79771 0.41107 0.73019 0.0
H4189 H 0.77984 0.40488 0.71135 0.0
H4190 H 0.80215 0.36377 0.70372 0.0
H4191 H 0.81977 0.3698 0.72295 0.0
C4192 C 0.7681 0.36483 0.67534 0.0
C4193 C 0.76552 0.37649 0.66558 0.0
C4194 C 0.77547 0.36724 0.68865 0.0
C4195 C 0.78037 0.38139 0.6925 0.0
C4196 C 0.77718 0.3931 0.68296 0.0
C4197 C 0.76986 0.39069 0.66972 0.0
C4198 C 0.79864 0.40057 0.72471 0.0
C4199 C 0.81026 0.39099 0.72799 0.0
C4200 C 0.78844 0.39706 0.7138 0.0
C4201 C 0.78967 0.38393 0.70577 0.0
C4202 C 0.80077 0.37393 0.7097 0.0
C4203 C 0.81092 0.37741 0.72072 0.0
H4204 H 0.74062 0.61542 0.15871 0.0
H4205 H 0.74818 0.66083 0.16989 0.0
H4206 H 0.72849 0.61159 0.18205 0.0
H4207 H 0.73625 0.65689 0.19364 0.0
H4208 H 0.69471 0.64751 0.22284 0.0
H4209 H 0.71175 0.65285 0.20288 0.0
H4210 H 0.73098 0.60981 0.20787 0.0
H4211 H 0.71364 0.60435 0.22743 0.0
C4212 C 0.73995 0.62455 0.16628 0.0
C4213 C 0.74534 0.63845 0.16237 0.0
C4214 C 0.73305 0.62232 0.17978 0.0
C4215 C 0.73135 0.63393 0.18983 0.0
C4216 C 0.73721 0.64774 0.18614 0.0
C4217 C 0.74415 0.64997 0.17256 0.0
C4218 C 0.70279 0.63932 0.21988 0.0
C4219 C 0.70269 0.62544 0.22661 0.0
C4220 C 0.71261 0.64238 0.20843 0.0
C4221 C 0.72261 0.63167 0.20353 0.0
C4222 C 0.72319 0.6182 0.21106 0.0
C4223 C 0.71331 0.6151 0.22238 0.0
H4224 H 0.53333 0.65926 0.96505 0.0
H4225 H 0.54109 0.6186 0.94202 0.0
H4226 H 0.55242 0.65298 0.98264 0.0
H4227 H 0.56048 0.61246 0.95943 0.0
H4228 H 0.60167 0.64847 0.99341 0.0
H4229 H 0.57864 0.65255 0.98074 0.0
H4230 H 0.56839 0.60642 0.98427 0.0
H4231 H 0.59177 0.60227 0.99683 0.0
C4232 C 0.53895 0.64886 0.96387 0.0
C4233 C 0.53577 0.6395 0.95203 0.0
C4234 C 0.54999 0.6453 0.97391 0.0
C4235 C 0.55821 0.63233 0.97233 0.0
C4236 C 0.55435 0.62251 0.96105 0.0
C4237 C 0.54324 0.62604 0.95103 0.0
C4238 C 0.59444 0.6392 0.9917 0.0
C4239 C 0.59862 0.62503 0.9961 0.0
C4240 C 0.58113 0.64156 0.98449 0.0
C4241 C 0.57159 0.62982 0.98144 0.0
C4242 C 0.57552 0.61569 0.9863 0.0
C4243 C 0.58887 0.61333 0.9936 0.0
H4244 H 0.60648 0.28167 0.21357 0.0
H4245 H 0.64754 0.28989 0.19144 0.0
H4246 H 0.61206 0.30095 0.23119 0.0
H4247 H 0.65299 0.30946 0.20888 0.0
H4248 H 0.6619 0.34104 0.24634 0.0
H4249 H 0.65834 0.31756 0.2338 0.0
H4250 H 0.61218 0.32721 0.22916 0.0
H4251 H 0.61568 0.35037 0.24182 0.0
C4252 C 0.61682 0.28742 0.2126 0.0
C4253 C 0.62649 0.28431 0.20099 0.0
C4254 C 0.61998 0.29858 0.22265 0.0
C4255 C 0.63286 0.30698 0.22133 0.0
C4256 C 0.643 0.30319 0.21031 0.0
C4257 C 0.63986 0.29197 0.20027 0.0
C4258 C 0.65096 0.33801 0.24286 0.0
C4259 C 0.63909 0.34762 0.24505 0.0
C4260 C 0.64893 0.32459 0.23558 0.0
C4261 C 0.63498 0.32046 0.23041 0.0
C4262 C 0.62305 0.32987 0.23314 0.0
C4263 C 0.62508 0.34324 0.24034 0.0
H4264 H 0.97304 0.39723 0.44494 0.0
H4265 H 0.98048 0.35507 0.46516 0.0
H4266 H 0.95383 0.40242 0.46283 0.0
H4267 H 0.96169 0.36042 0.48337 0.0
H4268 H 0.91309 0.36463 0.49612 0.0
H4269 H 0.93582 0.3611 0.48279 0.0
H4270 H 0.94579 0.40722 0.4874 0.0
H4271 H 0.92263 0.41082 0.50047 0.0
C4272 C 0.97087 0.38924 0.45346 0.0
C4273 C 0.97819 0.37567 0.45351 0.0
C4274 C 0.95985 0.39223 0.46378 0.0
C4275 C 0.95597 0.38175 0.47446 0.0
C4276 C 0.96407 0.36861 0.4751 0.0
C4277 C 0.97496 0.36558 0.46471 0.0
C4278 C 0.9202 0.37401 0.4945 0.0
C4279 C 0.91596 0.38802 0.49933 0.0
C4280 C 0.93335 0.37197 0.4869 0.0
C4281 C 0.94274 0.38387 0.48394 0.0
C4282 C 0.93878 0.39782 0.48929 0.0
C4283 C 0.92555 0.39987 0.4969 0.0
H4284 H 0.89776 0.66033 0.7439 0.0
H4285 H 0.85198 0.67163 0.74834 0.0
H4286 H 0.9021 0.68282 0.73043 0.0
H4287 H 0.85642 0.69456 0.73509 0.0
H4288 H 0.8675 0.72089 0.69219 0.0
H4289 H 0.86155 0.70206 0.71029 0.0
H4290 H 0.90369 0.70869 0.73092 0.0
H4291 H 0.90979 0.72707 0.71254 0.0
C4292 C 0.88865 0.66778 0.74227 0.0
C4293 C 0.8745 0.66411 0.74716 0.0
C4294 C 0.89117 0.6808 0.73459 0.0
C4295 C 0.87962 0.69059 0.73159 0.0
C4296 C 0.86554 0.68721 0.73702 0.0
C4297 C 0.86302 0.67412 0.74474 0.0
C4298 C 0.87537 0.71852 0.70077 0.0
C4299 C 0.88919 0.72535 0.70081 0.0
C4300 C 0.87194 0.70773 0.7112 0.0
C4301 C 0.88223 0.70363 0.72198 0.0
C4302 C 0.89563 0.71126 0.72259 0.0
C4303 C 0.8991 0.7219 0.71209 0.0
H4304 H 0.53556 0.35316 0.54905 0.0
H4305 H 0.54205 0.39527 0.56974 0.0
H4306 H 0.55516 0.3586 0.53173 0.0
H4307 H 0.56194 0.40059 0.55261 0.0
H4308 H 0.59409 0.40903 0.51547 0.0
H4309 H 0.57049 0.40526 0.52773 0.0
H4310 H 0.5813 0.35957 0.53418 0.0
H4311 H 0.60457 0.36327 0.52179 0.0
C4312 C 0.54102 0.36369 0.54977 0.0
C4313 C 0.53731 0.37372 0.56089 0.0
C4314 C 0.55235 0.36677 0.53989 0.0
C4315 C 0.56035 0.37993 0.5409 0.0
C4316 C 0.556 0.39037 0.55143 0.0
C4317 C 0.54459 0.38731 0.5613 0.0
C4318 C 0.59129 0.39813 0.51928 0.0
C4319 C 0.60126 0.38647 0.51767 0.0
C4320 C 0.5778 0.39599 0.52641 0.0
C4321 C 0.57395 0.38212 0.53201 0.0
C4322 C 0.58373 0.37037 0.52986 0.0
C4323 C 0.59718 0.37251 0.52281 0.0
H4324 H 0.8995 0.35522 0.77265 0.0
H4325 H 0.85369 0.345 0.76636 0.0
H4326 H 0.903 0.33206 0.78528 0.0
H4327 H 0.85727 0.32149 0.77885 0.0
H4328 H 0.86684 0.29378 0.82139 0.0
H4329 H 0.86171 0.31328 0.80379 0.0
H4330 H 0.90384 0.30592 0.78338 0.0
H4331 H 0.9091 0.28672 0.8012 0.0
C4332 C 0.89021 0.3479 0.77371 0.0
C4333 C 0.87629 0.35203 0.76853 0.0
C4334 C 0.89224 0.33451 0.7809 0.0
C4335 C 0.88042 0.32484 0.78314 0.0
C4336 C 0.86659 0.32872 0.77747 0.0
C4337 C 0.86456 0.34215 0.77021 0.0
C4338 C 0.87486 0.2961 0.81294 0.0
C4339 C 0.88845 0.28879 0.81282 0.0
C4340 C 0.87191 0.30728 0.8028 0.0
C4341 C 0.88246 0.31138 0.79228 0.0
C4342 C 0.8956 0.30331 0.79153 0.0
C4343 C 0.89857 0.29221 0.8017 0.0
H4344 H 0.92193 0.6064 0.01965 0.0
H4345 H 0.91121 0.65212 0.02588 0.0
H4346 H 0.94518 0.61015 0.03255 0.0
H4347 H 0.93418 0.65581 0.03885 0.0
H4348 H 0.97261 0.62027 0.07522 0.0
H4349 H 0.95285 0.61502 0.05793 0.0
H4350 H 0.96058 0.65658 0.03652 0.0
H4351 H 0.9801 0.66194 0.05394 0.0
C4352 C 0.92461 0.61728 0.02358 0.0
C4353 C 0.91468 0.62895 0.02176 0.0
C4354 C 0.93789 0.61941 0.03107 0.0
C4355 C 0.94157 0.63328 0.03678 0.0
C4356 C 0.93184 0.64502 0.03445 0.0
C4357 C 0.91859 0.64288 0.02706 0.0
C4358 C 0.97028 0.62817 0.06665 0.0
C4359 C 0.97785 0.6416 0.06608 0.0
C4360 C 0.95897 0.62513 0.05669 0.0
C4361 C 0.95497 0.63546 0.04593 0.0
C4362 C 0.96316 0.6485 0.04484 0.0
C4363 C 0.97443 0.65153 0.05478 0.0
H4364 H 0.61205 0.66079 0.27731 0.0
H4365 H 0.65722 0.67333 0.27043 0.0
H4366 H 0.60758 0.68369 0.29016 0.0
H4367 H 0.65265 0.69652 0.28321 0.0
H4368 H 0.64177 0.72446 0.32536 0.0
H4369 H 0.64768 0.70449 0.3085 0.0
H4370 H 0.60566 0.70996 0.28735 0.0
H4371 H 0.59965 0.72968 0.30434 0.0
C4372 C 0.621 0.66854 0.27834 0.0
C4373 C 0.63501 0.66518 0.27286 0.0
C4374 C 0.6184 0.68176 0.28566 0.0
C4375 C 0.62975 0.692 0.28775 0.0
C4376 C 0.6437 0.68883 0.28192 0.0
C4377 C 0.64629 0.67559 0.2745 0.0
C4378 C 0.6339 0.72158 0.31695 0.0
C4379 C 0.62017 0.72858 0.31631 0.0
C4380 C 0.63731 0.71014 0.30724 0.0
C4381 C 0.62707 0.70546 0.29667 0.0
C4382 C 0.61369 0.71306 0.29553 0.0
C4383 C 0.61028 0.72445 0.30523 0.0
H4384 H 0.94579 0.54254 0.62013 0.0
H4385 H 0.96654 0.53576 0.66214 0.0
H4386 H 0.96319 0.56215 0.6147 0.0
H4387 H 0.98418 0.55502 0.65657 0.0
H4388 H 0.99565 0.60397 0.65183 0.0
H4389 H 0.98267 0.58106 0.65563 0.0
H4390 H 0.98791 0.57038 0.60975 0.0
H4391 H 1.00071 0.59367 0.60587 0.0
C4392 C 0.9543 0.54496 0.62804 0.0
C4393 C 0.95466 0.53767 0.64164 0.0
C4394 C 0.96433 0.5562 0.62492 0.0
C4395 C 0.97499 0.56038 0.63529 0.0
C4396 C 0.97592 0.55238 0.64846 0.0
C4397 C 0.96586 0.54123 0.65161 0.0
C4398 C 0.99424 0.59668 0.64256 0.0
C4399 C 0.99919 0.60073 0.62853 0.0
C4400 C 0.98684 0.58343 0.64476 0.0
C4401 C 0.98418 0.57379 0.633 0.0
C4402 C 0.9896 0.57759 0.61903 0.0
C4403 C 0.99704 0.5909 0.61683 0.0
H4404 H 0.67437 0.74805 0.85551 0.0
H4405 H 0.66392 0.74534 0.90163 0.0
H4406 H 0.6972 0.73464 0.85994 0.0
H4407 H 0.68638 0.73176 0.906 0.0
H4408 H 0.72334 0.69196 0.87191 0.0
H4409 H 0.70426 0.70975 0.86594 0.0
H4410 H 0.71251 0.73228 0.9068 0.0
H4411 H 0.73127 0.71428 0.91292 0.0
C4412 C 0.67703 0.74479 0.86661 0.0
C4413 C 0.66728 0.74775 0.8782 0.0
C4414 C 0.69006 0.73698 0.86914 0.0
C4415 C 0.69365 0.73202 0.88332 0.0
C4416 C 0.68415 0.73554 0.89496 0.0
C4417 C 0.67117 0.7433 0.89244 0.0
C4418 C 0.72126 0.70086 0.8795 0.0
C4419 C 0.72874 0.70159 0.89296 0.0
C4420 C 0.71033 0.71112 0.87605 0.0
C4421 C 0.70667 0.72239 0.88597 0.0
C4422 C 0.71479 0.72358 0.89904 0.0
C4423 C 0.72564 0.7133 0.9025 0.0
H4424 H 0.55089 0.48198 0.16408 0.0
H4425 H 0.5734 0.47394 0.12317 0.0
H4426 H 0.5331 0.46299 0.15807 0.0
H4427 H 0.55581 0.45464 0.11731 0.0
H4428 H 0.52099 0.41405 0.15333 0.0
H4429 H 0.53415 0.4368 0.1575 0.0
H4430 H 0.53093 0.44725 0.11139 0.0
H4431 H 0.51793 0.42415 0.10715 0.0
C4432 C 0.55195 0.47628 0.15371 0.0
C4433 C 0.56366 0.47941 0.14417 0.0
C4434 C 0.54178 0.4653 0.1503 0.0
C4435 C 0.54311 0.45708 0.1373 0.0
C4436 C 0.55435 0.46078 0.12737 0.0
C4437 C 0.56449 0.47184 0.13076 0.0
C4438 C 0.52286 0.42128 0.14408 0.0
C4439 C 0.51845 0.41721 0.12989 0.0
C4440 C 0.53037 0.43442 0.14649 0.0
C4441 C 0.53368 0.44391 0.13478 0.0
C4442 C 0.52873 0.44014 0.12064 0.0
C4443 C 0.52117 0.42695 0.11823 0.0
H4444 H 0.78701 0.29923 0.41186 0.0
H4445 H 0.79402 0.32062 0.3702 0.0
H4446 H 0.80595 0.28137 0.40592 0.0
H4447 H 0.81338 0.30307 0.36444 0.0
H4448 H 0.84492 0.26599 0.3549 0.0
H4449 H 0.82162 0.27867 0.35897 0.0
H4450 H 0.83181 0.28231 0.40511 0.0
H4451 H 0.85468 0.26936 0.40113 0.0
C4452 C 0.79247 0.30001 0.40133 0.0
C4453 C 0.78908 0.31144 0.39156 0.0
C4454 C 0.80344 0.28982 0.39797 0.0
C4455 C 0.81146 0.29089 0.38481 0.0
C4456 C 0.80742 0.3018 0.37463 0.0
C4457 C 0.79632 0.31192 0.37795 0.0
C4458 C 0.84202 0.26926 0.36595 0.0
C4459 C 0.85171 0.26668 0.37768 0.0
C4460 C 0.82871 0.27665 0.36827 0.0
C4461 C 0.82478 0.28161 0.38237 0.0
C4462 C 0.83426 0.27849 0.39414 0.0
C4463 C 0.8475 0.27111 0.39183 0.0
H4464 H 0.95584 0.46738 0.84706 0.0
H4465 H 0.95278 0.48062 0.8924 0.0
H4466 H 0.97337 0.44861 0.85356 0.0
H4467 H 0.97126 0.46236 0.89895 0.0
H4468 H 0.98913 0.41574 0.90767 0.0
H4469 H 0.97486 0.43771 0.90257 0.0
H4470 H 0.99621 0.44154 0.86032 0.0
H4471 H 0.00952 0.41891 0.86512 0.0
C4472 C 0.95922 0.46652 0.85842 0.0
C4473 C 0.95287 0.47549 0.86921 0.0
C4474 C 0.96945 0.45575 0.86219 0.0
C4475 C 0.97394 0.45381 0.87685 0.0
C4476 C 0.96795 0.46323 0.88759 0.0
C4477 C 0.95743 0.47383 0.88383 0.0
C4478 C 0.99091 0.42145 0.8974 0.0
C4479 C 1.00034 0.41555 0.88674 0.0
C4480 C 0.98274 0.43414 0.89445 0.0
C4481 C 0.98406 0.44144 0.88086 0.0
C4482 C 0.9944 0.43605 0.87069 0.0
C4483 C 1.00223 0.42315 0.87349 0.0
H4484 H 0.79168 0.69272 0.14157 0.0
H4485 H 0.78596 0.71374 0.0995 0.0
H4486 H 0.81145 0.70984 0.14739 0.0
H4487 H 0.80543 0.73102 0.10544 0.0
H4488 H 0.85447 0.74182 0.11153 0.0
H4489 H 0.83161 0.72892 0.10711 0.0
H4490 H 0.81928 0.73493 0.15247 0.0
H4491 H 0.84247 0.74771 0.15699 0.0
C4492 C 0.79441 0.70119 0.1337 0.0
C4493 C 0.78734 0.70174 0.12 0.0
C4494 C 0.80572 0.71106 0.13705 0.0
C4495 C 0.81019 0.72172 0.1268 0.0
C4496 C 0.80251 0.72277 0.11347 0.0
C4497 C 0.79126 0.7129 0.1101 0.0
C4498 C 0.84682 0.7406 0.12055 0.0
C4499 C 0.85035 0.74577 0.13463 0.0
C4500 C 0.83362 0.73325 0.11798 0.0
C4501 C 0.82355 0.73083 0.12943 0.0
C4502 C 0.82685 0.73645 0.14344 0.0
C4503 C 0.84008 0.74388 0.146 0.0
H4504 H 0.52663 0.60464 0.36242 0.0
H4505 H 0.51998 0.5918 0.40753 0.0
H4506 H 0.53923 0.58165 0.35766 0.0
H4507 H 0.5325 0.56852 0.40269 0.0
H4508 H 0.55295 0.53559 0.34928 0.0
H4509 H 0.53619 0.55542 0.35554 0.0
H4510 H 0.55765 0.56036 0.39748 0.0
H4511 H 0.57428 0.54028 0.3913 0.0
C4512 C 0.52766 0.5968 0.37129 0.0
C4513 C 0.52232 0.6001 0.38537 0.0
C4514 C 0.53482 0.58354 0.36853 0.0
C4515 C 0.5369 0.57318 0.37978 0.0
C4516 C 0.53121 0.5763 0.3938 0.0
C4517 C 0.52394 0.58959 0.39655 0.0
C4518 C 0.55396 0.54072 0.35994 0.0
C4519 C 0.56506 0.53641 0.36973 0.0
C4520 C 0.54439 0.55218 0.3635 0.0
C4521 C 0.54569 0.55966 0.37693 0.0
C4522 C 0.55627 0.5548 0.38707 0.0
C4523 C 0.56585 0.54331 0.38351 0.0
H4524 H 0.67202 0.26675 0.65913 0.0
H4525 H 0.66133 0.27068 0.61315 0.0
H4526 H 0.69506 0.27985 0.65482 0.0
H4527 H 0.68403 0.28393 0.60892 0.0
H4528 H 0.72935 0.30048 0.60213 0.0
H4529 H 0.71021 0.28279 0.60799 0.0
H4530 H 0.70246 0.30482 0.64922 0.0
H4531 H 0.7219 0.32232 0.6435 0.0
C4532 C 0.67467 0.2702 0.64807 0.0
C4533 C 0.66479 0.26768 0.63649 0.0
C4534 C 0.68782 0.27783 0.64562 0.0
C4535 C 0.69142 0.28304 0.63153 0.0
C4536 C 0.68178 0.27995 0.61988 0.0
C4537 C 0.66867 0.27239 0.62233 0.0
C4538 C 0.72375 0.30142 0.61256 0.0
C4539 C 0.7271 0.31291 0.62229 0.0
C4540 C 0.71268 0.29131 0.61589 0.0
C4541 C 0.7046 0.29246 0.62899 0.0
C4542 C 0.7085 0.3035 0.63908 0.0
C4543 C 0.71963 0.31359 0.63577 0.0
H4544 H 0.61776 0.94612 0.54219 0.0
H4545 H 0.65898 0.96849 0.53566 0.0
H4546 H 0.61157 0.96325 0.5618 0.0
H4547 H 0.65263 0.98589 0.5549 0.0
H4548 H 0.60141 0.99968 0.59404 0.0
H4549 H 0.60572 0.98763 0.57042 0.0
H4550 H 0.65179 0.98397 0.58086 0.0
H4551 H 0.64757 0.99622 0.60408 0.0
C4552 C 0.62531 0.95495 0.54464 0.0
C4553 C 0.63894 0.95581 0.53747 0.0
C4554 C 0.62175 0.96482 0.55589 0.0
C4555 C 0.6317 0.97585 0.56015 0.0
C4556 C 0.64485 0.97733 0.55219 0.0
C4557 C 0.64845 0.96741 0.54106 0.0
C4558 C 0.6125 0.99655 0.59113 0.0
C4559 C 0.62413 0.99889 0.60099 0.0
C4560 C 0.61495 0.98953 0.57764 0.0
C4561 C 0.6291 0.98475 0.57369 0.0
C4562 C 0.64078 0.98766 0.58334 0.0
C4563 C 0.63834 0.99463 0.59677 0.0
H4564 H 0.12211 0.57393 0.47147 0.0
H4565 H 0.16244 0.5506 0.47993 0.0
H4566 H 0.11626 0.55667 0.45186 0.0
H4567 H 0.15642 0.53312 0.46065 0.0
H4568 H 0.10572 0.51902 0.42109 0.0
H4569 H 0.10987 0.53213 0.44415 0.0
H4570 H 0.15625 0.53398 0.43456 0.0
H4571 H 0.15215 0.52068 0.41187 0.0
C4572 C 0.12957 0.56492 0.46938 0.0
C4573 C 0.14282 0.56375 0.47719 0.0
C4574 C 0.12619 0.55496 0.45815 0.0
C4575 C 0.13595 0.54356 0.45449 0.0
C4576 C 0.14879 0.54193 0.46291 0.0
C4577 C 0.15219 0.55192 0.47406 0.0
C4578 C 0.11683 0.522 0.42406 0.0
C4579 C 0.12859 0.51881 0.41459 0.0
C4580 C 0.1192 0.52963 0.43722 0.0
C4581 C 0.1334 0.5342 0.44125 0.0
C4582 C 0.14519 0.53049 0.432 0.0
C4583 C 0.14282 0.52291 0.41889 0.0
H4584 H 0.71734 0.91044 0.73073 0.0
H4585 H 0.69488 0.8693 0.72397 0.0
H4586 H 0.73463 0.90423 0.71134 0.0
H4587 H 0.71192 0.86325 0.70423 0.0
H4588 H 0.74841 0.85321 0.67198 0.0
H4589 H 0.73637 0.85743 0.69563 0.0
H4590 H 0.7326 0.90353 0.68531 0.0
H4591 H 0.74481 0.89939 0.66204 0.0
C4592 C 0.71622 0.89996 0.72525 0.0
C4593 C 0.70463 0.89043 0.72883 0.0
C4594 C 0.72608 0.89644 0.71403 0.0
C4595 C 0.72455 0.88335 0.70598 0.0
C4596 C 0.71353 0.87339 0.71021 0.0
C4597 C 0.7037 0.87688 0.72153 0.0
C4598 C 0.74525 0.86428 0.67492 0.0
C4599 C 0.74754 0.87595 0.66508 0.0
C4600 C 0.73824 0.86668 0.68843 0.0
C4601 C 0.73343 0.88082 0.69242 0.0
C4602 C 0.7363 0.89253 0.68278 0.0
C4603 C 0.74325 0.89013 0.66933 0.0
H4604 H 0.36658 0.49419 0.91284 0.0
H4605 H 0.41258 0.49934 0.92288 0.0
H4606 H 0.36273 0.48214 0.93623 0.0
H4607 H 0.40864 0.48746 0.94665 0.0
H4608 H 0.3977 0.44582 0.97532 0.0
H4609 H 0.40346 0.4629 0.95552 0.0
H4610 H 0.36189 0.48462 0.96224 0.0
H4611 H 0.35599 0.46731 0.9817 0.0
C4612 C 0.37585 0.493 0.92017 0.0
C4613 C 0.38991 0.49768 0.91592 0.0
C4614 C 0.37361 0.48615 0.93369 0.0
C4615 C 0.38537 0.48378 0.9434 0.0
C4616 C 0.39937 0.48895 0.9394 0.0
C4617 C 0.4016 0.49587 0.92582 0.0
C4618 C 0.38994 0.45445 0.97279 0.0
C4619 C 0.37631 0.45508 0.97998 0.0
C4620 C 0.39326 0.46429 0.96143 0.0
C4621 C 0.38304 0.47501 0.95706 0.0
C4622 C 0.36988 0.47629 0.96504 0.0
C4623 C 0.36653 0.46642 0.9763 0.0
H4624 H 0.29962 0.60315 0.73058 0.0
H4625 H 0.32105 0.64482 0.72365 0.0
H4626 H 0.28208 0.60892 0.71131 0.0
H4627 H 0.30374 0.65044 0.70402 0.0
H4628 H 0.26666 0.65956 0.67218 0.0
H4629 H 0.27908 0.65565 0.69566 0.0
H4630 H 0.28392 0.60966 0.68527 0.0
H4631 H 0.27132 0.61349 0.66216 0.0
C4632 C 0.30047 0.61365 0.72508 0.0
C4633 C 0.31184 0.62346 0.72857 0.0
C4634 C 0.29046 0.61692 0.71393 0.0
C4635 C 0.29162 0.63003 0.70587 0.0
C4636 C 0.30243 0.64027 0.71001 0.0
C4637 C 0.3124 0.63703 0.72126 0.0
C4638 C 0.27014 0.64857 0.67506 0.0
C4639 C 0.26802 0.63685 0.66526 0.0
C4640 C 0.27737 0.64635 0.68847 0.0
C4641 C 0.28257 0.63235 0.6924 0.0
C4642 C 0.2799 0.62056 0.68279 0.0
C4643 C 0.27273 0.62278 0.66944 0.0
H4644 H 0.89594 0.06904 0.04143 0.0
H4645 H 0.85474 0.04686 0.0342 0.0
H4646 H 0.90162 0.05197 0.06125 0.0
H4647 H 0.86057 0.02955 0.05368 0.0
H4648 H 0.91098 0.01552 0.09371 0.0
H4649 H 0.90716 0.02752 0.06999 0.0
H4650 H 0.86095 0.0316 0.07969 0.0
H4651 H 0.8647 0.01941 0.10303 0.0
C4652 C 0.88828 0.06027 0.04379 0.0
C4653 C 0.87481 0.05943 0.03633 0.0
C4654 C 0.89155 0.05044 0.05516 0.0
C4655 C 0.88145 0.03949 0.05928 0.0
C4656 C 0.86846 0.03804 0.05108 0.0
C4657 C 0.86515 0.04792 0.03981 0.0
C4658 C 0.89997 0.01873 0.09062 0.0
C4659 C 0.88816 0.01653 0.10031 0.0
C4660 C 0.89779 0.02572 0.07707 0.0
C4661 C 0.88375 0.03061 0.07288 0.0
C4662 C 0.87189 0.02783 0.08237 0.0
C4663 C 0.87406 0.02089 0.09586 0.0
H4664 H 0.74726 0.15923 0.84536 0.0
H4665 H 0.7403 0.1136 0.85602 0.0
H4666 H 0.73493 0.15554 0.82178 0.0
H4667 H 0.72784 0.10999 0.83279 0.0
H4668 H 0.71324 0.10347 0.78705 0.0
H4669 H 0.73051 0.10887 0.80668 0.0
H4670 H 0.71003 0.15111 0.8131 0.0
H4671 H 0.69296 0.14584 0.79315 0.0
C4672 C 0.74327 0.14838 0.84261 0.0
C4673 C 0.74475 0.13672 0.8526 0.0
C4674 C 0.73611 0.14629 0.82914 0.0
C4675 C 0.73035 0.13247 0.82534 0.0
C4676 C 0.73231 0.12074 0.83517 0.0
C4677 C 0.73939 0.12283 0.84859 0.0
C4678 C 0.7126 0.11405 0.79244 0.0
C4679 C 0.70161 0.12417 0.78861 0.0
C4680 C 0.72245 0.1171 0.80379 0.0
C4681 C 0.72152 0.13032 0.8117 0.0
C4682 C 0.71114 0.14085 0.80723 0.0
C4683 C 0.70131 0.13781 0.79579 0.0
H4684 H 0.79835 0.91109 0.28758 0.0
H4685 H 0.81965 0.86915 0.29302 0.0
H4686 H 0.78117 0.90495 0.30708 0.0
H4687 H 0.8027 0.86314 0.31288 0.0
H4688 H 0.76598 0.85342 0.34515 0.0
H4689 H 0.77815 0.85783 0.3216 0.0
H4690 H 0.7834 0.90351 0.33305 0.0
H4691 H 0.77106 0.89919 0.35622 0.0
C4692 C 0.79924 0.90045 0.2928 0.0
C4693 C 0.81047 0.89067 0.28881 0.0
C4694 C 0.78944 0.89697 0.30409 0.0
C4695 C 0.79067 0.88365 0.3118 0.0
C4696 C 0.80134 0.87347 0.30718 0.0
C4697 C 0.81111 0.87692 0.29579 0.0
C4698 C 0.7695 0.86445 0.34249 0.0
C4699 C 0.76755 0.87594 0.3526 0.0
C4700 C 0.77659 0.86696 0.32904 0.0
C4701 C 0.78183 0.88103 0.32537 0.0
C4702 C 0.77935 0.89258 0.33531 0.0
C4703 C 0.77232 0.89007 0.3487 0.0
H4704 H 0.47464 0.39845 0.07286 0.0
H4705 H 0.48215 0.35713 0.05095 0.0
H4706 H 0.45471 0.40383 0.05583 0.0
H4707 H 0.46251 0.36265 0.03372 0.0
H4708 H 0.42237 0.41254 0.01893 0.0
H4709 H 0.44605 0.409 0.03108 0.0
H4710 H 0.43636 0.36291 0.03626 0.0
H4711 H 0.41301 0.36637 0.02398 0.0
C4712 C 0.47232 0.39069 0.06416 0.0
C4713 C 0.47989 0.37728 0.06338 0.0
C4714 C 0.46088 0.3938 0.05435 0.0
C4715 C 0.45681 0.38357 0.04352 0.0
C4716 C 0.46511 0.37063 0.04213 0.0
C4717 C 0.47647 0.36751 0.05195 0.0
C4718 C 0.42543 0.40161 0.02245 0.0
C4719 C 0.41576 0.38975 0.02051 0.0
C4720 C 0.43896 0.39961 0.02951 0.0
C4721 C 0.44315 0.38567 0.0347 0.0
C4722 C 0.43366 0.37375 0.03224 0.0
C4723 C 0.42018 0.37576 0.02526 0.0
H4724 H 0.35631 0.67045 0.76674 0.0
H4725 H 0.40152 0.65882 0.77475 0.0
H4726 H 0.3602 0.69393 0.77917 0.0
H4727 H 0.4053 0.68191 0.78739 0.0
H4728 H 0.41244 0.7271 0.80311 0.0
H4729 H 0.40721 0.70782 0.7854 0.0
H4730 H 0.36392 0.70255 0.80397 0.0
H4731 H 0.36903 0.72221 0.82141 0.0
C4732 C 0.36712 0.67297 0.77097 0.0
C4733 C 0.37859 0.66272 0.76977 0.0
C4734 C 0.36932 0.68639 0.77821 0.0
C4735 C 0.38305 0.68987 0.78435 0.0
C4736 C 0.39463 0.6798 0.78263 0.0
C4737 C 0.39243 0.66645 0.77543 0.0
C4738 C 0.40169 0.72204 0.80323 0.0
C4739 C 0.3912 0.72611 0.81377 0.0
C4740 C 0.39872 0.71088 0.79313 0.0
C4741 C 0.38523 0.70338 0.79339 0.0
C4742 C 0.3744 0.7081 0.80335 0.0
C4743 C 0.37733 0.71938 0.8134 0.0
H4744 H 0.09981 0.60419 0.52697 0.0
H4745 H 0.09762 0.64686 0.50674 0.0
H4746 H 0.07743 0.60936 0.54056 0.0
H4747 H 0.07456 0.65171 0.51925 0.0
H4748 H 0.04738 0.6651 0.55871 0.0
H4749 H 0.06637 0.65856 0.54149 0.0
H4750 H 0.05295 0.61307 0.54396 0.0
H4751 H 0.0345 0.6197 0.56222 0.0
C4752 C 0.09422 0.6145 0.52505 0.0
C4753 C 0.10051 0.62517 0.51589 0.0
C4754 C 0.08129 0.6175 0.53283 0.0
C4755 C 0.0741 0.63114 0.53135 0.0
C4756 C 0.07992 0.64131 0.52123 0.0
C4757 C 0.09308 0.63848 0.51384 0.0
C4758 C 0.04832 0.65371 0.55544 0.0
C4759 C 0.03941 0.64293 0.5619 0.0
C4760 C 0.05925 0.64991 0.54538 0.0
C4761 C 0.06143 0.6352 0.54113 0.0
C4762 C 0.05197 0.62448 0.5471 0.0
C4763 C 0.04122 0.62827 0.55749 0.0
H4764 H 0.14558 0.29175 0.32172 0.0
H4765 H 0.1043 0.2848 0.29959 0.0
H4766 H 0.15148 0.3114 0.30451 0.0
H4767 H 0.11033 0.30416 0.28219 0.0
H4768 H 0.11515 0.3535 0.27193 0.0
H4769 H 0.11111 0.33034 0.2844 0.0
H4770 H 0.15703 0.31965 0.27969 0.0
H4771 H 0.16115 0.34316 0.26734 0.0
C4772 C 0.13794 0.29414 0.31295 0.0
C4773 C 0.12439 0.2868 0.31215 0.0
C4774 C 0.14134 0.30541 0.30303 0.0
C4775 C 0.13128 0.30956 0.29207 0.0
C4776 C 0.11819 0.3015 0.29069 0.0
C4777 C 0.11478 0.29031 0.30061 0.0
C4778 C 0.12438 0.34615 0.27334 0.0
C4779 C 0.13849 0.35024 0.26867 0.0
C4780 C 0.12204 0.33277 0.28044 0.0
C4781 C 0.13374 0.32307 0.2831 0.0
C4782 C 0.14779 0.32692 0.27796 0.0
C4783 C 0.15013 0.34034 0.27078 0.0
H4784 H 0.4794 0.65921 0.46573 0.0
H4785 H 0.47306 0.6171 0.44503 0.0
H4786 H 0.46046 0.65333 0.48361 0.0
H4787 H 0.45366 0.6114 0.46257 0.0
H4788 H 0.42175 0.60223 0.49946 0.0
H4789 H 0.44512 0.60625 0.48687 0.0
H4790 H 0.4347 0.6523 0.4826 0.0
H4791 H 0.4118 0.64837 0.49547 0.0
C4792 C 0.47408 0.6486 0.46511 0.0
C4793 C 0.47766 0.63868 0.45387 0.0
C4794 C 0.46311 0.64526 0.47531 0.0
C4795 C 0.45525 0.632 0.47441 0.0
C4796 C 0.45948 0.62169 0.46371 0.0
C4797 C 0.47061 0.62496 0.45359 0.0
C4798 C 0.42462 0.61325 0.49607 0.0
C4799 C 0.41486 0.62496 0.49846 0.0
C4800 C 0.43797 0.61554 0.48873 0.0
C4801 C 0.44187 0.6296 0.48362 0.0
C4802 C 0.43229 0.64136 0.48654 0.0
C4803 C 0.41903 0.63908 0.49388 0.0
H4804 H 0.10567 0.73238 0.21353 0.0
H4805 H 0.14744 0.72473 0.19255 0.0
H4806 H 0.11108 0.71325 0.23137 0.0
H4807 H 0.1527 0.70527 0.21016 0.0
H4808 H 0.11474 0.66387 0.2418 0.0
H4809 H 0.11143 0.68713 0.22933 0.0
H4810 H 0.15746 0.69687 0.23499 0.0
H4811 H 0.16084 0.67324 0.24732 0.0
C4812 C 0.11613 0.72679 0.21287 0.0
C4813 C 0.12606 0.72999 0.20151 0.0
C4814 C 0.11919 0.71572 0.22305 0.0
C4815 C 0.1322 0.70747 0.22206 0.0
C4816 C 0.1426 0.71141 0.21133 0.0
C4817 C 0.13957 0.72257 0.20119 0.0
C4818 C 0.12415 0.67103 0.2406 0.0
C4819 C 0.13807 0.66663 0.24551 0.0
C4820 C 0.12223 0.68448 0.2335 0.0
C4821 C 0.13418 0.69395 0.23111 0.0
C4822 C 0.14804 0.68979 0.23651 0.0
C4823 C 0.14996 0.6763 0.24367 0.0
H4824 H 0.10294 0.36465 0.99116 0.0
H4825 H 0.09378 0.41085 0.99621 0.0
H4826 H 0.07971 0.36135 0.97857 0.0
H4827 H 0.07025 0.40749 0.98371 0.0
H4828 H 0.04232 0.39715 0.9414 0.0
H4829 H 0.06205 0.40235 0.95871 0.0
H4830 H 0.05341 0.36136 0.98085 0.0
H4831 H 0.03392 0.35603 0.96338 0.0
C4832 C 0.09584 0.37408 0.98981 0.0
C4833 C 0.10028 0.38803 0.99466 0.0
C4834 C 0.08243 0.37217 0.98264 0.0
C4835 C 0.07305 0.38415 0.98008 0.0
C4836 C 0.07725 0.39805 0.98537 0.0
C4837 C 0.0907 0.39995 0.99263 0.0
C4838 C 0.0444 0.3894 0.95016 0.0
C4839 C 0.03662 0.37609 0.95088 0.0
C4840 C 0.05573 0.3924 0.96013 0.0
C4841 C 0.05951 0.38217 0.97106 0.0
C4842 C 0.05103 0.36934 0.97238 0.0
C4843 C 0.03975 0.36633 0.96241 0.0
H4844 H 0.36949 0.29264 0.69458 0.0
H4845 H 0.41027 0.28449 0.7172 0.0
H4846 H 0.36364 0.31201 0.71209 0.0
H4847 H 0.40425 0.30349 0.73498 0.0
H4848 H 0.40008 0.35229 0.74722 0.0
H4849 H 0.404 0.32948 0.73411 0.0
H4850 H 0.35762 0.32 0.73655 0.0
H4851 H 0.35365 0.34322 0.74945 0.0
C4852 C 0.37703 0.2947 0.70352 0.0
C4853 C 0.39043 0.28711 0.70438 0.0
C4854 C 0.37366 0.30581 0.71362 0.0
C4855 C 0.38357 0.30953 0.72487 0.0
C4856 C 0.3965 0.30121 0.72627 0.0
C4857 C 0.39991 0.29021 0.71613 0.0
C4858 C 0.39071 0.34527 0.74517 0.0
C4859 C 0.37653 0.34965 0.74935 0.0
C4860 C 0.39298 0.33208 0.7377 0.0
C4861 C 0.38113 0.32282 0.7342 0.0
C4862 C 0.36699 0.32692 0.73888 0.0
C4863 C 0.36472 0.34018 0.74639 0.0
H4864 H 0.07401 0.47435 0.39394 0.0
H4865 H 0.05241 0.4821 0.35251 0.0
H4866 H 0.05633 0.45502 0.39953 0.0
H4867 H 0.03456 0.46306 0.35823 0.0
H4868 H 0.02249 0.41412 0.36299 0.0
H4869 H 0.03584 0.43681 0.35901 0.0
H4870 H 0.03119 0.4477 0.40489 0.0
H4871 H 0.01796 0.42468 0.40894 0.0
C4872 C 0.06529 0.47218 0.38618 0.0
C4873 C 0.06474 0.47968 0.37271 0.0
C4874 C 0.0551 0.46111 0.3894 0.0
C4875 C 0.04411 0.45731 0.37924 0.0
C4876 C 0.04306 0.46546 0.36618 0.0
C4877 C 0.05325 0.47646 0.36294 0.0
C4878 C 0.0241 0.42143 0.37222 0.0
C4879 C 0.01918 0.41752 0.3863 0.0
C4880 C 0.03171 0.43453 0.36991 0.0
C4881 C 0.03465 0.44413 0.38163 0.0
C4882 C 0.02927 0.44049 0.39565 0.0
C4883 C 0.02158 0.42735 0.39795 0.0
H4884 H 0.28659 0.29977 0.09995 0.0
H4885 H 0.29232 0.32143 0.14168 0.0
H4886 H 0.3062 0.28271 0.10606 0.0
H4887 H 0.31225 0.30457 0.14766 0.0
H4888 H 0.35524 0.27203 0.11209 0.0
H4889 H 0.33227 0.28468 0.10754 0.0
H4890 H 0.32046 0.27987 0.15319 0.0
H4891 H 0.34377 0.26739 0.15782 0.0
C4892 C 0.29192 0.3008 0.11052 0.0
C4893 C 0.28794 0.31206 0.12027 0.0
C4894 C 0.30326 0.29106 0.11398 0.0
C4895 C 0.31101 0.29236 0.12727 0.0
C4896 C 0.30649 0.30314 0.13737 0.0
C4897 C 0.29508 0.31286 0.13392 0.0
C4898 C 0.34768 0.27346 0.12115 0.0
C4899 C 0.35141 0.26872 0.13534 0.0
C4900 C 0.33441 0.28067 0.11851 0.0
C4901 C 0.32445 0.28336 0.13 0.0
C4902 C 0.32793 0.27815 0.14412 0.0
C4903 C 0.34125 0.27088 0.14675 0.0
H4904 H 0.46539 0.53646 0.85259 0.0
H4905 H 0.4436 0.54415 0.89394 0.0
H4906 H 0.48295 0.55579 0.85819 0.0
H4907 H 0.46091 0.56383 0.89938 0.0
H4908 H 0.49867 0.59478 0.90885 0.0
H4909 H 0.48562 0.57167 0.90489 0.0
H4910 H 0.48187 0.58185 0.85876 0.0
H4911 H 0.49513 0.60459 0.86264 0.0
C4912 C 0.46443 0.54218 0.86296 0.0
C4913 C 0.453 0.53882 0.87276 0.0
C4914 C 0.47445 0.55336 0.86614 0.0
C4915 C 0.47326 0.56158 0.87915 0.0
C4916 C 0.46228 0.55769 0.88931 0.0
C4917 C 0.45229 0.54642 0.88616 0.0
C4918 C 0.49528 0.59193 0.89782 0.0
C4919 C 0.49793 0.60158 0.88607 0.0
C4920 C 0.48769 0.57873 0.89557 0.0
C4921 C 0.4826 0.57486 0.88151 0.0
C4922 C 0.48577 0.58429 0.86971 0.0
C4923 C 0.49333 0.59744 0.87195 0.0
H4924 H 0.23288 0.7163 0.60603 0.0
H4925 H 0.22459 0.69455 0.64729 0.0
H4926 H 0.21401 0.73433 0.6117 0.0
H4927 H 0.20538 0.71237 0.6528 0.0
H4928 H 0.17394 0.74984 0.66156 0.0
H4929 H 0.19743 0.7373 0.65804 0.0
H4930 H 0.18786 0.73266 0.61186 0.0
H4931 H 0.16475 0.74534 0.61531 0.0
C4932 C 0.22719 0.7155 0.61643 0.0
C4933 C 0.23014 0.70388 0.62613 0.0
C4934 C 0.21628 0.72579 0.61964 0.0
C4935 C 0.20794 0.72467 0.63258 0.0
C4936 C 0.2116 0.71364 0.64277 0.0
C4937 C 0.22261 0.70338 0.63959 0.0
C4938 C 0.17702 0.74639 0.65062 0.0
C4939 C 0.16743 0.74855 0.63873 0.0
C4940 C 0.19043 0.7391 0.64862 0.0
C4941 C 0.19457 0.7339 0.63467 0.0
C4942 C 0.18521 0.73666 0.62272 0.0
C4943 C 0.17185 0.74388 0.62472 0.0
H4944 H 0.06989 0.54175 0.11996 0.0
H4945 H 0.04768 0.5332 0.1609 0.0
H4946 H 0.05229 0.56114 0.11446 0.0
H4947 H 0.02978 0.55217 0.15522 0.0
H4948 H 0.0177 0.60103 0.15186 0.0
H4949 H 0.03064 0.57808 0.15532 0.0
H4950 H 0.02791 0.56939 0.1088 0.0
H4951 H 0.01523 0.59278 0.10528 0.0
C4952 C 0.061 0.54372 0.12759 0.0
C4953 C 0.0603 0.53604 0.14094 0.0
C4954 C 0.05085 0.55484 0.12443 0.0
C4955 C 0.0397 0.55845 0.1345 0.0
C4956 C 0.03842 0.54999 0.14736 0.0
C4957 C 0.04863 0.53901 0.15058 0.0
C4958 C 0.01964 0.59416 0.14236 0.0
C4959 C 0.01547 0.59882 0.12828 0.0
C4960 C 0.02701 0.58088 0.14437 0.0
C4961 C 0.0304 0.5718 0.13234 0.0
C4962 C 0.02568 0.57617 0.11829 0.0
C4963 C 0.01829 0.58953 0.11629 0.0
H4964 H 0.22485 0.32141 0.87398 0.0
H4965 H 0.23222 0.30041 0.91579 0.0
H4966 H 0.20546 0.30376 0.86856 0.0
H4967 H 0.21315 0.28256 0.91024 0.0
H4968 H 0.16428 0.27042 0.90537 0.0
H4969 H 0.18698 0.28373 0.9093 0.0
H4970 H 0.19802 0.27868 0.86348 0.0
H4971 H 0.17496 0.26552 0.85947 0.0
C4972 C 0.22258 0.31282 0.88187 0.0
C4973 C 0.22999 0.31243 0.89539 0.0
C4974 C 0.21148 0.30265 0.87874 0.0
C4975 C 0.20757 0.29181 0.88904 0.0
C4976 C 0.21562 0.29093 0.90218 0.0
C4977 C 0.22664 0.30112 0.90532 0.0
C4978 C 0.17162 0.27193 0.89615 0.0
C4979 C 0.16774 0.26694 0.88209 0.0
C4980 C 0.18474 0.27952 0.89842 0.0
C4981 C 0.19438 0.28236 0.88671 0.0
C4982 C 0.19078 0.27686 0.87273 0.0
C4983 C 0.17762 0.2692 0.87045 0.0
H4984 H 0.44484 0.47296 0.61948 0.0
H4985 H 0.46512 0.47924 0.6618 0.0
H4986 H 0.46264 0.4538 0.61379 0.0
H4987 H 0.48319 0.46047 0.65597 0.0
H4988 H 0.49494 0.41165 0.65055 0.0
H4989 H 0.48202 0.43452 0.65463 0.0
H4990 H 0.48738 0.44582 0.6089 0.0
H4991 H 0.50008 0.42253 0.60473 0.0
C4992 C 0.45335 0.47055 0.62741 0.0
C4993 C 0.45344 0.47751 0.64117 0.0
C4994 C 0.46361 0.45957 0.62413 0.0
C4995 C 0.47426 0.45537 0.63451 0.0
C4996 C 0.47495 0.46313 0.64784 0.0
C4997 C 0.46464 0.47399 0.65115 0.0
C4998 C 0.49358 0.41908 0.64138 0.0
C4999 C 0.4985 0.41519 0.62729 0.0
C5000 C 0.48622 0.43231 0.64374 0.0
C5001 C 0.48358 0.44209 0.6321 0.0
C5002 C 0.48904 0.43849 0.6181 0.0
C5003 C 0.49644 0.42519 0.61572 0.0
H5004 H 0.28737 0.71465 0.41084 0.0
H5005 H 0.29403 0.69419 0.36866 0.0
H5006 H 0.30638 0.73254 0.40521 0.0
H5007 H 0.31348 0.71174 0.3632 0.0
H5008 H 0.35508 0.74445 0.4006 0.0
H5009 H 0.33216 0.73153 0.40432 0.0
H5010 H 0.32201 0.7361 0.35825 0.0
H5011 H 0.34538 0.74874 0.35444 0.0
C5012 C 0.29277 0.71409 0.40027 0.0
C5013 C 0.28926 0.70291 0.39025 0.0
C5014 C 0.30378 0.72429 0.39708 0.0
C5015 C 0.31174 0.72347 0.38386 0.0
C5016 C 0.30758 0.71282 0.37346 0.0
C5017 C 0.29642 0.7027 0.37659 0.0
C5018 C 0.3479 0.74291 0.39127 0.0
C5019 C 0.35214 0.74759 0.37721 0.0
C5020 C 0.33463 0.73554 0.39342 0.0
C5021 C 0.32513 0.73269 0.38159 0.0
C5022 C 0.32911 0.7379 0.36759 0.0
C5023 C 0.34246 0.74527 0.36542 0.0
H5024 H 0.39481 0.07376 0.47183 0.0
H5025 H 0.35379 0.05171 0.48049 0.0
H5026 H 0.40004 0.05631 0.45223 0.0
H5027 H 0.35917 0.03406 0.46117 0.0
H5028 H 0.36284 0.02241 0.41198 0.0
H5029 H 0.35926 0.03539 0.43496 0.0
H5030 H 0.4055 0.03141 0.4445 0.0
H5031 H 0.40914 0.01859 0.42119 0.0
C5032 C 0.38707 0.06498 0.4698 0.0
C5033 C 0.37381 0.06425 0.47765 0.0
C5034 C 0.39009 0.05492 0.45857 0.0
C5035 C 0.37995 0.04385 0.45495 0.0
C5036 C 0.3671 0.04261 0.46343 0.0
C5037 C 0.36406 0.05269 0.47459 0.0
C5038 C 0.37223 0.02408 0.41906 0.0
C5039 C 0.38629 0.0195 0.41468 0.0
C5040 C 0.37017 0.03148 0.43233 0.0
C5041 C 0.3821 0.03453 0.44163 0.0
C5042 C 0.39609 0.02942 0.43753 0.0
C5043 C 0.39816 0.02196 0.42423 0.0
H5044 H 0.89702 0.44413 0.54214 0.0
H5045 H 0.85561 0.46579 0.5345 0.0
H5046 H 0.90258 0.46167 0.56158 0.0
H5047 H 0.86131 0.48354 0.55363 0.0
H5048 H 0.91173 0.49915 0.59297 0.0
H5049 H 0.9079 0.48648 0.5696 0.0
H5050 H 0.86184 0.48197 0.57978 0.0
H5051 H 0.86559 0.49479 0.60279 0.0
C5052 C 0.88928 0.45287 0.54432 0.0
C5053 C 0.8758 0.45344 0.53686 0.0
C5054 C 0.89248 0.46298 0.55547 0.0
C5055 C 0.8823 0.47392 0.55938 0.0
C5056 C 0.86927 0.47507 0.55118 0.0
C5057 C 0.86605 0.46494 0.54011 0.0
C5058 C 0.90074 0.49569 0.59006 0.0
C5059 C 0.88898 0.49796 0.59979 0.0
C5060 C 0.89857 0.48832 0.57671 0.0
C5061 C 0.88456 0.48313 0.57276 0.0
C5062 C 0.87274 0.48596 0.58228 0.0
C5063 C 0.87491 0.49326 0.59558 0.0
H5064 H 0.31993 0.14842 0.2911 0.0
H5065 H 0.2985 0.10684 0.28366 0.0
H5066 H 0.30277 0.15368 0.31098 0.0
H5067 H 0.28115 0.11224 0.30324 0.0
H5068 H 0.27145 0.11591 0.35277 0.0
H5069 H 0.28371 0.11257 0.3294 0.0
H5070 H 0.27792 0.15858 0.31964 0.0
H5071 H 0.26577 0.16199 0.34337 0.0
C5072 C 0.31131 0.14058 0.29342 0.0
C5073 C 0.31071 0.12713 0.28589 0.0
C5074 C 0.30143 0.14361 0.30482 0.0
C5075 C 0.2907 0.13328 0.30891 0.0
C5076 C 0.28947 0.12031 0.30064 0.0
C5077 C 0.29937 0.11725 0.28931 0.0
C5078 C 0.27258 0.1253 0.34559 0.0
C5079 C 0.26766 0.13923 0.35 0.0
C5080 C 0.27956 0.12336 0.33208 0.0
C5081 C 0.28185 0.1353 0.32256 0.0
C5082 C 0.27648 0.14917 0.32674 0.0
C5083 C 0.26941 0.15111 0.3403 0.0
H5084 H 0.66091 0.54944 0.03683 0.0
H5085 H 0.61976 0.57172 0.04411 0.0
H5086 H 0.65509 0.53221 0.05637 0.0
H5087 H 0.6141 0.55474 0.06402 0.0
H5088 H 0.65057 0.52074 0.10529 0.0
H5089 H 0.65454 0.53362 0.08235 0.0
H5090 H 0.60833 0.53031 0.07239 0.0
H5091 H 0.60429 0.51765 0.09572 0.0
C5092 C 0.65053 0.55057 0.0425 0.0
C5093 C 0.64086 0.56205 0.03897 0.0
C5094 C 0.64723 0.54074 0.05381 0.0
C5095 C 0.63422 0.54217 0.062 0.0
C5096 C 0.62417 0.55318 0.05793 0.0
C5097 C 0.62744 0.56298 0.04652 0.0
C5098 C 0.64125 0.52256 0.09814 0.0
C5099 C 0.62709 0.51819 0.10241 0.0
C5100 C 0.64355 0.5299 0.08488 0.0
C5101 C 0.63176 0.53308 0.07544 0.0
C5102 C 0.61765 0.52823 0.07945 0.0
C5103 C 0.61534 0.52086 0.09278 0.0
H5104 H 0.71651 0.40937 0.28451 0.0
H5105 H 0.69676 0.36682 0.29103 0.0
H5106 H 0.73408 0.40424 0.30395 0.0
H5107 H 0.7141 0.36182 0.31081 0.0
H5108 H 0.75119 0.35423 0.34314 0.0
H5109 H 0.73893 0.35766 0.31949 0.0
H5110 H 0.73177 0.40332 0.32999 0.0
H5111 H 0.74419 0.39998 0.35327 0.0
C5112 C 0.71606 0.39881 0.28994 0.0
C5113 C 0.70513 0.38856 0.2863 0.0
C5114 C 0.72607 0.39591 0.30119 0.0
C5115 C 0.72536 0.38272 0.30918 0.0
C5116 C 0.71505 0.37206 0.30487 0.0
C5117 C 0.70506 0.37494 0.29352 0.0
C5118 C 0.74723 0.36505 0.34025 0.0
C5119 C 0.74865 0.37682 0.35013 0.0
C5120 C 0.7401 0.36699 0.32674 0.0
C5121 C 0.7343 0.38076 0.32279 0.0
C5122 C 0.73626 0.39261 0.33249 0.0
C5123 C 0.74333 0.39067 0.34594 0.0
H5124 H 0.10235 0.99954 0.92188 0.0
H5125 H 0.14795 0.99324 0.91071 0.0
H5126 H 0.10664 0.98786 0.94571 0.0
H5127 H 0.15215 0.98146 0.93419 0.0
H5128 H 0.15972 0.96818 0.9801 0.0
H5129 H 0.15355 0.98492 0.96023 0.0
H5130 H 0.1118 0.96318 0.95487 0.0
H5131 H 0.11785 0.94662 0.97505 0.0
C5132 C 0.11331 0.99585 0.92457 0.0
C5133 C 0.1248 0.9973 0.91436 0.0
C5134 C 0.11575 0.98906 0.93819 0.0
C5135 C 0.12974 0.98369 0.94192 0.0
C5136 C 0.14128 0.98564 0.93185 0.0
C5137 C 0.13884 0.99233 0.91829 0.0
C5138 C 0.14908 0.96715 0.9749 0.0
C5139 C 0.13934 0.95595 0.97908 0.0
C5140 C 0.14559 0.97669 0.96342 0.0
C5141 C 0.13229 0.97524 0.95573 0.0
C5142 C 0.12212 0.96467 0.96056 0.0
C5143 C 0.12559 0.95515 0.97214 0.0
H5144 H 0.3025 0.91199 0.22866 0.0
H5145 H 0.32196 0.86912 0.22356 0.0
H5146 H 0.28533 0.90658 0.20894 0.0
H5147 H 0.30502 0.86383 0.20351 0.0
H5148 H 0.26819 0.8559 0.17077 0.0
H5149 H 0.28028 0.8597 0.19445 0.0
H5150 H 0.28817 0.905 0.18297 0.0
H5151 H 0.27593 0.9013 0.15965 0.0
C5152 C 0.30297 0.90131 0.22347 0.0
C5153 C 0.31371 0.89104 0.22761 0.0
C5154 C 0.29319 0.89825 0.21207 0.0
C5155 C 0.29394 0.88487 0.2044 0.0
C5156 C 0.30405 0.87422 0.20918 0.0
C5157 C 0.3138 0.87726 0.22068 0.0
C5158 C 0.2723 0.86672 0.17344 0.0
C5159 C 0.27111 0.87828 0.16328 0.0
C5160 C 0.27933 0.86888 0.18697 0.0
C5161 C 0.28524 0.88266 0.19068 0.0
C5162 C 0.28357 0.8943 0.18067 0.0
C5163 C 0.27661 0.89214 0.16719 0.0
H5164 H 0.20404 0.145 0.73248 0.0
H5165 H 0.20666 0.0998 0.71867 0.0
H5166 H 0.2224 0.15164 0.71411 0.0
H5167 H 0.22401 0.10639 0.69982 0.0
H5168 H 0.259 0.11789 0.66903 0.0
H5169 H 0.24659 0.11308 0.69216 0.0
H5170 H 0.22548 0.15553 0.68943 0.0
H5171 H 0.23896 0.16065 0.66694 0.0
C5172 C 0.20861 0.13648 0.72558 0.0
C5173 C 0.2039 0.12187 0.72708 0.0
C5174 C 0.21905 0.14028 0.7149 0.0
C5175 C 0.2248 0.12962 0.70525 0.0
C5176 C 0.22027 0.11496 0.70712 0.0
C5177 C 0.21014 0.11114 0.71795 0.0
C5178 C 0.25197 0.1263 0.67362 0.0
C5179 C 0.2499 0.1396 0.66619 0.0
C5180 C 0.24465 0.1235 0.68681 0.0
C5181 C 0.2346 0.13371 0.69265 0.0
C5182 C 0.23315 0.14737 0.68551 0.0
C5183 C 0.24085 0.15033 0.67252 0.0
loop_
_geom_bond_atom_site_label_1
_geom_bond_atom_site_label_2
_geom_bond_distance
_geom_bond_site_symmetry_2
_ccdc_geom_bond_type
O0 Cd1 2.223 . S
O0 C8 1.315 . S
Cd1 O0 2.223 . S
Cd1 O4 2.297 . S
Cd1 O5 2.439 . S
Cd1 O11 2.240 1_455 S
Cd2 O3 2.240 . S
Cd2 O10 2.223 1_455 S
Cd2 O12 2.297 1_455 S
Cd2 O13 2.439 1_455 S
O3 Cd2 2.240 . S
O3 C8 1.279 . S
O4 Cd1 2.297 . S
O4 C6 1.247 . S
O5 Cd1 2.439 . S
O5 C6 1.208 . S
C6 O4 1.247 . S
C6 O5 1.208 . S
C7 O12 1.247 . S
C7 O13 1.208 . S
C8 O0 1.315 . S
C8 O3 1.279 . S
C9 O10 1.315 . S
C9 O11 1.279 . S
O10 Cd2 2.223 1_655 S
O10 C9 1.315 . S
O11 Cd1 2.240 1_655 S
O11 C9 1.279 . S
O12 Cd2 2.297 1_655 S
O12 C7 1.247 . S
O13 Cd2 2.439 1_655 S
O13 C7 1.208 . S
O14 Cd15 2.223 . S
O14 C22 1.315 . S
Cd15 O14 2.223 . S
Cd15 O18 2.297 . S
Cd15 O19 2.439 . S
Cd15 O25 2.240 . S
Cd16 O17 2.240 . S
Cd16 O24 2.223 . S
Cd16 O26 2.297 . S
Cd16 O27 2.439 . S
O17 Cd16 2.240 . S
O17 C22 1.279 . S
O18 Cd15 2.297 . S
O18 C20 1.247 . S
O19 Cd15 2.439 . S
O19 C20 1.208 . S
C20 O18 1.247 . S
C20 O19 1.208 . S
C21 O26 1.247 . S
C21 O27 1.208 . S
C22 O14 1.315 . S
C22 O17 1.279 . S
C23 O24 1.315 . S
C23 O25 1.279 . S
O24 Cd16 2.223 . S
O24 C23 1.315 . S
O25 Cd15 2.240 . S
O25 C23 1.279 . S
O26 Cd16 2.297 . S
O26 C21 1.247 . S
O27 Cd16 2.439 . S
O27 C21 1.208 . S
O28 Cd29 2.223 . S
O28 C36 1.315 . S
Cd29 O28 2.223 . S
Cd29 O32 2.297 . S
Cd29 O33 2.439 . S
Cd29 O39 2.240 . S
Cd30 O31 2.240 . S
Cd30 O38 2.223 . S
Cd30 O40 2.297 . S
Cd30 O41 2.439 . S
O31 Cd30 2.240 . S
O31 C36 1.279 . S
O32 Cd29 2.297 . S
O32 C34 1.247 . S
O33 Cd29 2.439 . S
O33 C34 1.208 . S
C34 O32 1.247 . S
C34 O33 1.208 . S
C35 O40 1.247 . S
C35 O41 1.208 . S
C36 O28 1.315 . S
C36 O31 1.279 . S
C37 O38 1.315 . S
C37 O39 1.279 . S
O38 Cd30 2.223 . S
O38 C37 1.315 . S
O39 Cd29 2.240 . S
O39 C37 1.279 . S
O40 Cd30 2.297 . S
O40 C35 1.247 . S
O41 Cd30 2.439 . S
O41 C35 1.208 . S
O42 Cd43 2.223 . S
O42 C50 1.315 . S
Cd43 O42 2.223 . S
Cd43 O46 2.297 . S
Cd43 O47 2.439 . S
Cd43 O53 2.240 . S
Cd44 O45 2.240 . S
Cd44 O52 2.223 . S
Cd44 O54 2.297 . S
Cd44 O55 2.439 . S
O45 Cd44 2.240 . S
O45 C50 1.279 . S
O46 Cd43 2.297 . S
O46 C48 1.247 . S
O47 Cd43 2.439 . S
O47 C48 1.208 . S
C48 O46 1.247 . S
C48 O47 1.208 . S
C49 O54 1.247 . S
C49 O55 1.208 . S
C50 O42 1.315 . S
C50 O45 1.279 . S
C51 O52 1.315 . S
C51 O53 1.279 . S
O52 Cd44 2.223 . S
O52 C51 1.315 . S
O53 Cd43 2.240 . S
O53 C51 1.279 . S
O54 Cd44 2.297 . S
O54 C49 1.247 . S
O55 Cd44 2.439 . S
O55 C49 1.208 . S
O56 Cd57 2.223 . S
O56 C64 1.315 . S
Cd57 O56 2.223 . S
Cd57 O60 2.297 . S
Cd57 O61 2.439 . S
Cd57 O67 2.240 1_455 S
Cd58 O59 2.240 . S
Cd58 O66 2.223 1_455 S
Cd58 O68 2.297 1_455 S
Cd58 O69 2.439 1_455 S
O59 Cd58 2.240 . S
O59 C64 1.279 . S
O60 Cd57 2.297 . S
O60 C62 1.247 . S
O61 Cd57 2.439 . S
O61 C62 1.208 . S
C62 O60 1.247 . S
C62 O61 1.208 . S
C63 O68 1.247 . S
C63 O69 1.208 . S
C64 O56 1.315 . S
C64 O59 1.279 . S
C65 O66 1.315 . S
C65 O67 1.279 . S
O66 Cd58 2.223 1_655 S
O66 C65 1.315 . S
O67 Cd57 2.240 1_655 S
O67 C65 1.279 . S
O68 Cd58 2.297 1_655 S
O68 C63 1.247 . S
O69 Cd58 2.439 1_655 S
O69 C63 1.208 . S
O70 Cd71 2.223 . S
O70 C78 1.315 . S
Cd71 O70 2.223 . S
Cd71 O74 2.297 . S
Cd71 O75 2.439 . S
Cd71 O81 2.240 . S
Cd72 O73 2.240 . S
Cd72 O80 2.223 . S
Cd72 O82 2.297 . S
Cd72 O83 2.439 . S
O73 Cd72 2.240 . S
O73 C78 1.279 . S
O74 Cd71 2.297 . S
O74 C76 1.247 . S
O75 Cd71 2.439 . S
O75 C76 1.208 . S
C76 O74 1.247 . S
C76 O75 1.208 . S
C77 O82 1.247 . S
C77 O83 1.208 . S
C78 O70 1.315 . S
C78 O73 1.279 . S
C79 O80 1.315 . S
C79 O81 1.279 . S
O80 Cd72 2.223 . S
O80 C79 1.315 . S
O81 Cd71 2.240 . S
O81 C79 1.279 . S
O82 Cd72 2.297 . S
O82 C77 1.247 . S
O83 Cd72 2.439 . S
O83 C77 1.208 . S
O84 Cd85 2.223 . S
O84 C92 1.315 . S
Cd85 O84 2.223 . S
Cd85 O88 2.297 . S
Cd85 O89 2.439 . S
Cd85 O95 2.240 . S
Cd86 O87 2.240 . S
Cd86 O94 2.223 . S
Cd86 O96 2.297 . S
Cd86 O97 2.439 . S
O87 Cd86 2.240 . S
O87 C92 1.279 . S
O88 Cd85 2.297 . S
O88 C90 1.247 . S
O89 Cd85 2.439 . S
O89 C90 1.208 . S
C90 O88 1.247 . S
C90 O89 1.208 . S
C91 O96 1.247 . S
C91 O97 1.208 . S
C92 O84 1.315 . S
C92 O87 1.279 . S
C93 O94 1.315 . S
C93 O95 1.279 . S
O94 Cd86 2.223 . S
O94 C93 1.315 . S
O95 Cd85 2.240 . S
O95 C93 1.279 . S
O96 Cd86 2.297 . S
O96 C91 1.247 . S
O97 Cd86 2.439 . S
O97 C91 1.208 . S
O98 Cd99 2.223 . S
O98 C106 1.315 . S
Cd99 O98 2.223 . S
Cd99 O102 2.297 . S
Cd99 O103 2.439 . S
Cd99 O109 2.240 . S
Cd100 O101 2.240 . S
Cd100 O108 2.223 . S
Cd100 O110 2.297 . S
Cd100 O111 2.439 . S
O101 Cd100 2.240 . S
O101 C106 1.279 . S
O102 Cd99 2.297 . S
O102 C104 1.247 . S
O103 Cd99 2.439 . S
O103 C104 1.208 . S
C104 O102 1.247 . S
C104 O103 1.208 . S
C105 O110 1.247 . S
C105 O111 1.208 . S
C106 O98 1.315 . S
C106 O101 1.279 . S
C107 O108 1.315 . S
C107 O109 1.279 . S
O108 Cd100 2.223 . S
O108 C107 1.315 . S
O109 Cd99 2.240 . S
O109 C107 1.279 . S
O110 Cd100 2.297 . S
O110 C105 1.247 . S
O111 Cd100 2.439 . S
O111 C105 1.208 . S
O112 Cd113 2.223 1_565 S
O112 C120 1.315 . S
Cd113 O112 2.223 1_545 S
Cd113 O116 2.297 1_545 S
Cd113 O117 2.439 1_545 S
Cd113 O123 2.240 . S
Cd114 O115 2.240 1_545 S
Cd114 O122 2.223 . S
Cd114 O124 2.297 . S
Cd114 O125 2.439 . S
O115 Cd114 2.240 1_565 S
O115 C120 1.279 . S
O116 Cd113 2.297 1_565 S
O116 C118 1.247 . S
O117 Cd113 2.439 1_565 S
O117 C118 1.208 . S
C118 O116 1.247 . S
C118 O117 1.208 . S
C119 O124 1.247 . S
C119 O125 1.208 . S
C120 O112 1.315 . S
C120 O115 1.279 . S
C121 O122 1.315 . S
C121 O123 1.279 . S
O122 Cd114 2.223 . S
O122 C121 1.315 . S
O123 Cd113 2.240 . S
O123 C121 1.279 . S
O124 Cd114 2.297 . S
O124 C119 1.247 . S
O125 Cd114 2.439 . S
O125 C119 1.208 . S
O126 Cd127 2.223 . S
O126 C134 1.315 . S
Cd127 O126 2.223 . S
Cd127 O130 2.297 . S
Cd127 O131 2.439 . S
Cd127 O137 2.240 . S
Cd128 O129 2.240 . S
Cd128 O136 2.223 . S
Cd128 O138 2.297 . S
Cd128 O139 2.439 . S
O129 Cd128 2.240 . S
O129 C134 1.279 . S
O130 Cd127 2.297 . S
O130 C132 1.247 . S
O131 Cd127 2.439 . S
O131 C132 1.208 . S
C132 O130 1.247 . S
C132 O131 1.208 . S
C133 O138 1.247 . S
C133 O139 1.208 . S
C134 O126 1.315 . S
C134 O129 1.279 . S
C135 O136 1.315 . S
C135 O137 1.279 . S
O136 Cd128 2.223 . S
O136 C135 1.315 . S
O137 Cd127 2.240 . S
O137 C135 1.279 . S
O138 Cd128 2.297 . S
O138 C133 1.247 . S
O139 Cd128 2.439 . S
O139 C133 1.208 . S
O140 Cd141 2.223 1_545 S
O140 C148 1.315 . S
Cd141 O140 2.223 1_565 S
Cd141 O144 2.297 1_565 S
Cd141 O145 2.439 1_565 S
Cd141 O151 2.240 . S
Cd142 O143 2.240 1_565 S
Cd142 O150 2.223 . S
Cd142 O152 2.297 . S
Cd142 O153 2.439 . S
O143 Cd142 2.240 1_545 S
O143 C148 1.279 . S
O144 Cd141 2.297 1_545 S
O144 C146 1.247 . S
O145 Cd141 2.439 1_545 S
O145 C146 1.208 . S
C146 O144 1.247 . S
C146 O145 1.208 . S
C147 O152 1.247 . S
C147 O153 1.208 . S
C148 O140 1.315 . S
C148 O143 1.279 . S
C149 O150 1.315 . S
C149 O151 1.279 . S
O150 Cd142 2.223 . S
O150 C149 1.315 . S
O151 Cd141 2.240 . S
O151 C149 1.279 . S
O152 Cd142 2.297 . S
O152 C147 1.247 . S
O153 Cd142 2.439 . S
O153 C147 1.208 . S
O154 Cd155 2.223 . S
O154 C162 1.315 . S
Cd155 O154 2.223 . S
Cd155 O158 2.297 . S
Cd155 O159 2.439 . S
Cd155 O165 2.240 . S
Cd156 O157 2.240 . S
Cd156 O164 2.223 . S
Cd156 O166 2.297 . S
Cd156 O167 2.439 . S
O157 Cd156 2.240 . S
O157 C162 1.279 . S
O158 Cd155 2.297 . S
O158 C160 1.247 . S
O159 Cd155 2.439 . S
O159 C160 1.208 . S
C160 O158 1.247 . S
C160 O159 1.208 . S
C161 O166 1.247 . S
C161 O167 1.208 . S
C162 O154 1.315 . S
C162 O157 1.279 . S
C163 O164 1.315 . S
C163 O165 1.279 . S
O164 Cd156 2.223 . S
O164 C163 1.315 . S
O165 Cd155 2.240 . S
O165 C163 1.279 . S
O166 Cd156 2.297 . S
O166 C161 1.247 . S
O167 Cd156 2.439 . S
O167 C161 1.208 . S
O168 Cd169 2.223 1_545 S
O168 C176 1.315 . S
Cd169 O168 2.223 1_565 S
Cd169 O172 2.297 1_565 S
Cd169 O173 2.439 1_565 S
Cd169 O179 2.240 . S
Cd170 O171 2.240 1_565 S
Cd170 O178 2.223 . S
Cd170 O180 2.297 . S
Cd170 O181 2.439 . S
O171 Cd170 2.240 1_545 S
O171 C176 1.279 . S
O172 Cd169 2.297 1_545 S
O172 C174 1.247 . S
O173 Cd169 2.439 1_545 S
O173 C174 1.208 . S
C174 O172 1.247 . S
C174 O173 1.208 . S
C175 O180 1.247 . S
C175 O181 1.208 . S
C176 O168 1.315 . S
C176 O171 1.279 . S
C177 O178 1.315 . S
C177 O179 1.279 . S
O178 Cd170 2.223 . S
O178 C177 1.315 . S
O179 Cd169 2.240 . S
O179 C177 1.279 . S
O180 Cd170 2.297 . S
O180 C175 1.247 . S
O181 Cd170 2.439 . S
O181 C175 1.208 . S
O182 Cd183 2.223 . S
O182 C190 1.315 . S
Cd183 O182 2.223 . S
Cd183 O186 2.297 . S
Cd183 O187 2.439 . S
Cd183 O193 2.240 . S
Cd184 O185 2.240 . S
Cd184 O192 2.223 . S
Cd184 O194 2.297 . S
Cd184 O195 2.439 . S
O185 Cd184 2.240 . S
O185 C190 1.279 . S
O186 Cd183 2.297 . S
O186 C188 1.247 . S
O187 Cd183 2.439 . S
O187 C188 1.208 . S
C188 O186 1.247 . S
C188 O187 1.208 . S
C189 O194 1.247 . S
C189 O195 1.208 . S
C190 O182 1.315 . S
C190 O185 1.279 . S
C191 O192 1.315 . S
C191 O193 1.279 . S
O192 Cd184 2.223 . S
O192 C191 1.315 . S
O193 Cd183 2.240 . S
O193 C191 1.279 . S
O194 Cd184 2.297 . S
O194 C189 1.247 . S
O195 Cd184 2.439 . S
O195 C189 1.208 . S
O196 Cd197 2.223 1_565 S
O196 C204 1.315 . S
Cd197 O196 2.223 1_545 S
Cd197 O200 2.297 1_545 S
Cd197 O201 2.439 1_545 S
Cd197 O207 2.240 . S
Cd198 O199 2.240 1_545 S
Cd198 O206 2.223 . S
Cd198 O208 2.297 . S
Cd198 O209 2.439 . S
O199 Cd198 2.240 1_565 S
O199 C204 1.279 . S
O200 Cd197 2.297 1_565 S
O200 C202 1.247 . S
O201 Cd197 2.439 1_565 S
O201 C202 1.208 . S
C202 O200 1.247 . S
C202 O201 1.208 . S
C203 O208 1.247 . S
C203 O209 1.208 . S
C204 O196 1.315 . S
C204 O199 1.279 . S
C205 O206 1.315 . S
C205 O207 1.279 . S
O206 Cd198 2.223 . S
O206 C205 1.315 . S
O207 Cd197 2.240 . S
O207 C205 1.279 . S
O208 Cd198 2.297 . S
O208 C203 1.247 . S
O209 Cd198 2.439 . S
O209 C203 1.208 . S
O210 Cd211 2.223 . S
O210 C218 1.315 . S
Cd211 O210 2.223 . S
Cd211 O214 2.297 . S
Cd211 O215 2.439 . S
Cd211 O221 2.240 . S
Cd212 O213 2.240 . S
Cd212 O220 2.223 . S
Cd212 O222 2.297 . S
Cd212 O223 2.439 . S
O213 Cd212 2.240 . S
O213 C218 1.279 . S
O214 Cd211 2.297 . S
O214 C216 1.247 . S
O215 Cd211 2.439 . S
O215 C216 1.208 . S
C216 O214 1.247 . S
C216 O215 1.208 . S
C217 O222 1.247 . S
C217 O223 1.208 . S
C218 O210 1.315 . S
C218 O213 1.279 . S
C219 O220 1.315 . S
C219 O221 1.279 . S
O220 Cd212 2.223 . S
O220 C219 1.315 . S
O221 Cd211 2.240 . S
O221 C219 1.279 . S
O222 Cd212 2.297 . S
O222 C217 1.247 . S
O223 Cd212 2.439 . S
O223 C217 1.208 . S
O224 Cd225 2.223 . S
O224 C232 1.315 . S
Cd225 O224 2.223 . S
Cd225 O228 2.297 . S
Cd225 O229 2.439 . S
Cd225 O235 2.240 1_554 S
Cd226 O227 2.240 . S
Cd226 O234 2.223 1_554 S
Cd226 O236 2.297 1_554 S
Cd226 O237 2.439 1_554 S
O227 Cd226 2.240 . S
O227 C232 1.279 . S
O228 Cd225 2.297 . S
O228 C230 1.247 . S
O229 Cd225 2.439 . S
O229 C230 1.208 . S
C230 O228 1.247 . S
C230 O229 1.208 . S
C231 O236 1.247 . S
C231 O237 1.208 . S
C232 O224 1.315 . S
C232 O227 1.279 . S
C233 O234 1.315 . S
C233 O235 1.279 . S
O234 Cd226 2.223 1_556 S
O234 C233 1.315 . S
O235 Cd225 2.240 1_556 S
O235 C233 1.279 . S
O236 Cd226 2.297 1_556 S
O236 C231 1.247 . S
O237 Cd226 2.439 1_556 S
O237 C231 1.208 . S
O238 Cd239 2.223 . S
O238 C246 1.315 . S
Cd239 O238 2.223 . S
Cd239 O242 2.297 . S
Cd239 O243 2.439 . S
Cd239 O249 2.240 1_556 S
Cd240 O241 2.240 . S
Cd240 O248 2.223 1_556 S
Cd240 O250 2.297 1_556 S
Cd240 O251 2.439 1_556 S
O241 Cd240 2.240 . S
O241 C246 1.279 . S
O242 Cd239 2.297 . S
O242 C244 1.247 . S
O243 Cd239 2.439 . S
O243 C244 1.208 . S
C244 O242 1.247 . S
C244 O243 1.208 . S
C245 O250 1.247 . S
C245 O251 1.208 . S
C246 O238 1.315 . S
C246 O241 1.279 . S
C247 O248 1.315 . S
C247 O249 1.279 . S
O248 Cd240 2.223 1_554 S
O248 C247 1.315 . S
O249 Cd239 2.240 1_554 S
O249 C247 1.279 . S
O250 Cd240 2.297 1_554 S
O250 C245 1.247 . S
O251 Cd240 2.439 1_554 S
O251 C245 1.208 . S
O252 Cd253 2.223 . S
O252 C260 1.315 . S
Cd253 O252 2.223 . S
Cd253 O256 2.297 . S
Cd253 O257 2.439 . S
Cd253 O263 2.240 . S
Cd254 O255 2.240 . S
Cd254 O262 2.223 . S
Cd254 O264 2.297 . S
Cd254 O265 2.439 . S
O255 Cd254 2.240 . S
O255 C260 1.279 . S
O256 Cd253 2.297 . S
O256 C258 1.247 . S
O257 Cd253 2.439 . S
O257 C258 1.208 . S
C258 O256 1.247 . S
C258 O257 1.208 . S
C259 O264 1.247 . S
C259 O265 1.208 . S
C260 O252 1.315 . S
C260 O255 1.279 . S
C261 O262 1.315 . S
C261 O263 1.279 . S
O262 Cd254 2.223 . S
O262 C261 1.315 . S
O263 Cd253 2.240 . S
O263 C261 1.279 . S
O264 Cd254 2.297 . S
O264 C259 1.247 . S
O265 Cd254 2.439 . S
O265 C259 1.208 . S
O266 Cd267 2.223 . S
O266 C274 1.315 . S
Cd267 O266 2.223 . S
Cd267 O270 2.297 . S
Cd267 O271 2.439 . S
Cd267 O277 2.240 . S
Cd268 O269 2.240 . S
Cd268 O276 2.223 . S
Cd268 O278 2.297 . S
Cd268 O279 2.439 . S
O269 Cd268 2.240 . S
O269 C274 1.279 . S
O270 Cd267 2.297 . S
O270 C272 1.247 . S
O271 Cd267 2.439 . S
O271 C272 1.208 . S
C272 O270 1.247 . S
C272 O271 1.208 . S
C273 O278 1.247 . S
C273 O279 1.208 . S
C274 O266 1.315 . S
C274 O269 1.279 . S
C275 O276 1.315 . S
C275 O277 1.279 . S
O276 Cd268 2.223 . S
O276 C275 1.315 . S
O277 Cd267 2.240 . S
O277 C275 1.279 . S
O278 Cd268 2.297 . S
O278 C273 1.247 . S
O279 Cd268 2.439 . S
O279 C273 1.208 . S
O280 Cd281 2.223 . S
O280 C288 1.315 . S
Cd281 O280 2.223 . S
Cd281 O284 2.297 . S
Cd281 O285 2.439 . S
Cd281 O291 2.240 . S
Cd282 O283 2.240 . S
Cd282 O290 2.223 . S
Cd282 O292 2.297 . S
Cd282 O293 2.439 . S
O283 Cd282 2.240 . S
O283 C288 1.279 . S
O284 Cd281 2.297 . S
O284 C286 1.247 . S
O285 Cd281 2.439 . S
O285 C286 1.208 . S
C286 O284 1.247 . S
C286 O285 1.208 . S
C287 O292 1.247 . S
C287 O293 1.208 . S
C288 O280 1.315 . S
C288 O283 1.279 . S
C289 O290 1.315 . S
C289 O291 1.279 . S
O290 Cd282 2.223 . S
O290 C289 1.315 . S
O291 Cd281 2.240 . S
O291 C289 1.279 . S
O292 Cd282 2.297 . S
O292 C287 1.247 . S
O293 Cd282 2.439 . S
O293 C287 1.208 . S
O294 Cd295 2.223 . S
O294 C302 1.315 . S
Cd295 O294 2.223 . S
Cd295 O298 2.297 . S
Cd295 O299 2.439 . S
Cd295 O305 2.240 . S
Cd296 O297 2.240 . S
Cd296 O304 2.223 . S
Cd296 O306 2.297 . S
Cd296 O307 2.439 . S
O297 Cd296 2.240 . S
O297 C302 1.279 . S
O298 Cd295 2.297 . S
O298 C300 1.247 . S
O299 Cd295 2.439 . S
O299 C300 1.208 . S
C300 O298 1.247 . S
C300 O299 1.208 . S
C301 O306 1.247 . S
C301 O307 1.208 . S
C302 O294 1.315 . S
C302 O297 1.279 . S
C303 O304 1.315 . S
C303 O305 1.279 . S
O304 Cd296 2.223 . S
O304 C303 1.315 . S
O305 Cd295 2.240 . S
O305 C303 1.279 . S
O306 Cd296 2.297 . S
O306 C301 1.247 . S
O307 Cd296 2.439 . S
O307 C301 1.208 . S
O308 Cd309 2.223 . S
O308 C316 1.315 . S
Cd309 O308 2.223 . S
Cd309 O312 2.297 . S
Cd309 O313 2.439 . S
Cd309 O319 2.240 . S
Cd310 O311 2.240 . S
Cd310 O318 2.223 . S
Cd310 O320 2.297 . S
Cd310 O321 2.439 . S
O311 Cd310 2.240 . S
O311 C316 1.279 . S
O312 Cd309 2.297 . S
O312 C314 1.247 . S
O313 Cd309 2.439 . S
O313 C314 1.208 . S
C314 O312 1.247 . S
C314 O313 1.208 . S
C315 O320 1.247 . S
C315 O321 1.208 . S
C316 O308 1.315 . S
C316 O311 1.279 . S
C317 O318 1.315 . S
C317 O319 1.279 . S
O318 Cd310 2.223 . S
O318 C317 1.315 . S
O319 Cd309 2.240 . S
O319 C317 1.279 . S
O320 Cd310 2.297 . S
O320 C315 1.247 . S
O321 Cd310 2.439 . S
O321 C315 1.208 . S
O322 Cd323 2.223 . S
O322 C330 1.315 . S
Cd323 O322 2.223 . S
Cd323 O326 2.297 . S
Cd323 O327 2.439 . S
Cd323 O333 2.240 . S
Cd324 O325 2.240 . S
Cd324 O332 2.223 . S
Cd324 O334 2.297 . S
Cd324 O335 2.439 . S
O325 Cd324 2.240 . S
O325 C330 1.279 . S
O326 Cd323 2.297 . S
O326 C328 1.247 . S
O327 Cd323 2.439 . S
O327 C328 1.208 . S
C328 O326 1.247 . S
C328 O327 1.208 . S
C329 O334 1.247 . S
C329 O335 1.208 . S
C330 O322 1.315 . S
C330 O325 1.279 . S
C331 O332 1.315 . S
C331 O333 1.279 . S
O332 Cd324 2.223 . S
O332 C331 1.315 . S
O333 Cd323 2.240 . S
O333 C331 1.279 . S
O334 Cd324 2.297 . S
O334 C329 1.247 . S
O335 Cd324 2.439 . S
O335 C329 1.208 . S
O336 Cd337 2.223 . S
O336 C344 1.315 . S
Cd337 O336 2.223 . S
Cd337 O340 2.297 . S
Cd337 O341 2.439 . S
Cd337 O347 2.240 1_655 S
Cd338 O339 2.240 . S
Cd338 O346 2.223 1_655 S
Cd338 O348 2.297 1_655 S
Cd338 O349 2.439 1_655 S
O339 Cd338 2.240 . S
O339 C344 1.279 . S
O340 Cd337 2.297 . S
O340 C342 1.247 . S
O341 Cd337 2.439 . S
O341 C342 1.208 . S
C342 O340 1.247 . S
C342 O341 1.208 . S
C343 O348 1.247 . S
C343 O349 1.208 . S
C344 O336 1.315 . S
C344 O339 1.279 . S
C345 O346 1.315 . S
C345 O347 1.279 . S
O346 Cd338 2.223 1_455 S
O346 C345 1.315 . S
O347 Cd337 2.240 1_455 S
O347 C345 1.279 . S
O348 Cd338 2.297 1_455 S
O348 C343 1.247 . S
O349 Cd338 2.439 1_455 S
O349 C343 1.208 . S
O350 Cd351 2.223 . S
O350 C358 1.315 . S
Cd351 O350 2.223 . S
Cd351 O354 2.297 . S
Cd351 O355 2.439 . S
Cd351 O361 2.240 . S
Cd352 O353 2.240 . S
Cd352 O360 2.223 . S
Cd352 O362 2.297 . S
Cd352 O363 2.439 . S
O353 Cd352 2.240 . S
O353 C358 1.279 . S
O354 Cd351 2.297 . S
O354 C356 1.247 . S
O355 Cd351 2.439 . S
O355 C356 1.208 . S
C356 O354 1.247 . S
C356 O355 1.208 . S
C357 O362 1.247 . S
C357 O363 1.208 . S
C358 O350 1.315 . S
C358 O353 1.279 . S
C359 O360 1.315 . S
C359 O361 1.279 . S
O360 Cd352 2.223 . S
O360 C359 1.315 . S
O361 Cd351 2.240 . S
O361 C359 1.279 . S
O362 Cd352 2.297 . S
O362 C357 1.247 . S
O363 Cd352 2.439 . S
O363 C357 1.208 . S
O364 Cd365 2.223 . S
O364 C372 1.315 . S
Cd365 O364 2.223 . S
Cd365 O368 2.297 . S
Cd365 O369 2.439 . S
Cd365 O375 2.240 . S
Cd366 O367 2.240 . S
Cd366 O374 2.223 . S
Cd366 O376 2.297 . S
Cd366 O377 2.439 . S
O367 Cd366 2.240 . S
O367 C372 1.279 . S
O368 Cd365 2.297 . S
O368 C370 1.247 . S
O369 Cd365 2.439 . S
O369 C370 1.208 . S
C370 O368 1.247 . S
C370 O369 1.208 . S
C371 O376 1.247 . S
C371 O377 1.208 . S
C372 O364 1.315 . S
C372 O367 1.279 . S
C373 O374 1.315 . S
C373 O375 1.279 . S
O374 Cd366 2.223 . S
O374 C373 1.315 . S
O375 Cd365 2.240 . S
O375 C373 1.279 . S
O376 Cd366 2.297 . S
O376 C371 1.247 . S
O377 Cd366 2.439 . S
O377 C371 1.208 . S
O378 Cd379 2.223 . S
O378 C386 1.315 . S
Cd379 O378 2.223 . S
Cd379 O382 2.297 . S
Cd379 O383 2.439 . S
Cd379 O389 2.240 . S
Cd380 O381 2.240 . S
Cd380 O388 2.223 . S
Cd380 O390 2.297 . S
Cd380 O391 2.439 . S
O381 Cd380 2.240 . S
O381 C386 1.279 . S
O382 Cd379 2.297 . S
O382 C384 1.247 . S
O383 Cd379 2.439 . S
O383 C384 1.208 . S
C384 O382 1.247 . S
C384 O383 1.208 . S
C385 O390 1.247 . S
C385 O391 1.208 . S
C386 O378 1.315 . S
C386 O381 1.279 . S
C387 O388 1.315 . S
C387 O389 1.279 . S
O388 Cd380 2.223 . S
O388 C387 1.315 . S
O389 Cd379 2.240 . S
O389 C387 1.279 . S
O390 Cd380 2.297 . S
O390 C385 1.247 . S
O391 Cd380 2.439 . S
O391 C385 1.208 . S
O392 Cd393 2.223 . S
O392 C400 1.315 . S
Cd393 O392 2.223 . S
Cd393 O396 2.297 . S
Cd393 O397 2.439 . S
Cd393 O403 2.240 1_655 S
Cd394 O395 2.240 . S
Cd394 O402 2.223 1_655 S
Cd394 O404 2.297 1_655 S
Cd394 O405 2.439 1_655 S
O395 Cd394 2.240 . S
O395 C400 1.279 . S
O396 Cd393 2.297 . S
O396 C398 1.247 . S
O397 Cd393 2.439 . S
O397 C398 1.208 . S
C398 O396 1.247 . S
C398 O397 1.208 . S
C399 O404 1.247 . S
C399 O405 1.208 . S
C400 O392 1.315 . S
C400 O395 1.279 . S
C401 O402 1.315 . S
C401 O403 1.279 . S
O402 Cd394 2.223 1_455 S
O402 C401 1.315 . S
O403 Cd393 2.240 1_455 S
O403 C401 1.279 . S
O404 Cd394 2.297 1_455 S
O404 C399 1.247 . S
O405 Cd394 2.439 1_455 S
O405 C399 1.208 . S
O406 Cd407 2.223 . S
O406 C414 1.315 . S
Cd407 O406 2.223 . S
Cd407 O410 2.297 . S
Cd407 O411 2.439 . S
Cd407 O417 2.240 . S
Cd408 O409 2.240 . S
Cd408 O416 2.223 . S
Cd408 O418 2.297 . S
Cd408 O419 2.439 . S
O409 Cd408 2.240 . S
O409 C414 1.279 . S
O410 Cd407 2.297 . S
O410 C412 1.247 . S
O411 Cd407 2.439 . S
O411 C412 1.208 . S
C412 O410 1.247 . S
C412 O411 1.208 . S
C413 O418 1.247 . S
C413 O419 1.208 . S
C414 O406 1.315 . S
C414 O409 1.279 . S
C415 O416 1.315 . S
C415 O417 1.279 . S
O416 Cd408 2.223 . S
O416 C415 1.315 . S
O417 Cd407 2.240 . S
O417 C415 1.279 . S
O418 Cd408 2.297 . S
O418 C413 1.247 . S
O419 Cd408 2.439 . S
O419 C413 1.208 . S
O420 Cd421 2.223 . S
O420 C428 1.315 . S
Cd421 O420 2.223 . S
Cd421 O424 2.297 . S
Cd421 O425 2.439 . S
Cd421 O431 2.240 . S
Cd422 O423 2.240 . S
Cd422 O430 2.223 . S
Cd422 O432 2.297 . S
Cd422 O433 2.439 . S
O423 Cd422 2.240 . S
O423 C428 1.279 . S
O424 Cd421 2.297 . S
O424 C426 1.247 . S
O425 Cd421 2.439 . S
O425 C426 1.208 . S
C426 O424 1.247 . S
C426 O425 1.208 . S
C427 O432 1.247 . S
C427 O433 1.208 . S
C428 O420 1.315 . S
C428 O423 1.279 . S
C429 O430 1.315 . S
C429 O431 1.279 . S
O430 Cd422 2.223 . S
O430 C429 1.315 . S
O431 Cd421 2.240 . S
O431 C429 1.279 . S
O432 Cd422 2.297 . S
O432 C427 1.247 . S
O433 Cd422 2.439 . S
O433 C427 1.208 . S
O434 Cd435 2.223 . S
O434 C442 1.315 . S
Cd435 O434 2.223 . S
Cd435 O438 2.297 . S
Cd435 O439 2.439 . S
Cd435 O445 2.240 . S
Cd436 O437 2.240 . S
Cd436 O444 2.223 . S
Cd436 O446 2.297 . S
Cd436 O447 2.439 . S
O437 Cd436 2.240 . S
O437 C442 1.279 . S
O438 Cd435 2.297 . S
O438 C440 1.247 . S
O439 Cd435 2.439 . S
O439 C440 1.208 . S
C440 O438 1.247 . S
C440 O439 1.208 . S
C441 O446 1.247 . S
C441 O447 1.208 . S
C442 O434 1.315 . S
C442 O437 1.279 . S
C443 O444 1.315 . S
C443 O445 1.279 . S
O444 Cd436 2.223 . S
O444 C443 1.315 . S
O445 Cd435 2.240 . S
O445 C443 1.279 . S
O446 Cd436 2.297 . S
O446 C441 1.247 . S
O447 Cd436 2.439 . S
O447 C441 1.208 . S
O448 Cd449 2.223 . S
O448 C456 1.315 . S
Cd449 O448 2.223 . S
Cd449 O452 2.297 . S
Cd449 O453 2.439 . S
Cd449 O459 2.240 1_565 S
Cd450 O451 2.240 . S
Cd450 O458 2.223 1_565 S
Cd450 O460 2.297 1_565 S
Cd450 O461 2.439 1_565 S
O451 Cd450 2.240 . S
O451 C456 1.279 . S
O452 Cd449 2.297 . S
O452 C454 1.247 . S
O453 Cd449 2.439 . S
O453 C454 1.208 . S
C454 O452 1.247 . S
C454 O453 1.208 . S
C455 O460 1.247 . S
C455 O461 1.208 . S
C456 O448 1.315 . S
C456 O451 1.279 . S
C457 O458 1.315 . S
C457 O459 1.279 . S
O458 Cd450 2.223 1_545 S
O458 C457 1.315 . S
O459 Cd449 2.240 1_545 S
O459 C457 1.279 . S
O460 Cd450 2.297 1_545 S
O460 C455 1.247 . S
O461 Cd450 2.439 1_545 S
O461 C455 1.208 . S
O462 Cd463 2.223 . S
O462 C470 1.315 . S
Cd463 O462 2.223 . S
Cd463 O466 2.297 . S
Cd463 O467 2.439 . S
Cd463 O473 2.240 . S
Cd464 O465 2.240 . S
Cd464 O472 2.223 . S
Cd464 O474 2.297 . S
Cd464 O475 2.439 . S
O465 Cd464 2.240 . S
O465 C470 1.279 . S
O466 Cd463 2.297 . S
O466 C468 1.247 . S
O467 Cd463 2.439 . S
O467 C468 1.208 . S
C468 O466 1.247 . S
C468 O467 1.208 . S
C469 O474 1.247 . S
C469 O475 1.208 . S
C470 O462 1.315 . S
C470 O465 1.279 . S
C471 O472 1.315 . S
C471 O473 1.279 . S
O472 Cd464 2.223 . S
O472 C471 1.315 . S
O473 Cd463 2.240 . S
O473 C471 1.279 . S
O474 Cd464 2.297 . S
O474 C469 1.247 . S
O475 Cd464 2.439 . S
O475 C469 1.208 . S
O476 Cd477 2.223 . S
O476 C484 1.315 . S
Cd477 O476 2.223 . S
Cd477 O480 2.297 . S
Cd477 O481 2.439 . S
Cd477 O487 2.240 1_545 S
Cd478 O479 2.240 . S
Cd478 O486 2.223 1_545 S
Cd478 O488 2.297 1_545 S
Cd478 O489 2.439 1_545 S
O479 Cd478 2.240 . S
O479 C484 1.279 . S
O480 Cd477 2.297 . S
O480 C482 1.247 . S
O481 Cd477 2.439 . S
O481 C482 1.208 . S
C482 O480 1.247 . S
C482 O481 1.208 . S
C483 O488 1.247 . S
C483 O489 1.208 . S
C484 O476 1.315 . S
C484 O479 1.279 . S
C485 O486 1.315 . S
C485 O487 1.279 . S
O486 Cd478 2.223 1_565 S
O486 C485 1.315 . S
O487 Cd477 2.240 1_565 S
O487 C485 1.279 . S
O488 Cd478 2.297 1_565 S
O488 C483 1.247 . S
O489 Cd478 2.439 1_565 S
O489 C483 1.208 . S
O490 Cd491 2.223 . S
O490 C498 1.315 . S
Cd491 O490 2.223 . S
Cd491 O494 2.297 . S
Cd491 O495 2.439 . S
Cd491 O501 2.240 . S
Cd492 O493 2.240 . S
Cd492 O500 2.223 . S
Cd492 O502 2.297 . S
Cd492 O503 2.439 . S
O493 Cd492 2.240 . S
O493 C498 1.279 . S
O494 Cd491 2.297 . S
O494 C496 1.247 . S
O495 Cd491 2.439 . S
O495 C496 1.208 . S
C496 O494 1.247 . S
C496 O495 1.208 . S
C497 O502 1.247 . S
C497 O503 1.208 . S
C498 O490 1.315 . S
C498 O493 1.279 . S
C499 O500 1.315 . S
C499 O501 1.279 . S
O500 Cd492 2.223 . S
O500 C499 1.315 . S
O501 Cd491 2.240 . S
O501 C499 1.279 . S
O502 Cd492 2.297 . S
O502 C497 1.247 . S
O503 Cd492 2.439 . S
O503 C497 1.208 . S
O504 Cd505 2.223 . S
O504 C512 1.315 . S
Cd505 O504 2.223 . S
Cd505 O508 2.297 . S
Cd505 O509 2.439 . S
Cd505 O515 2.240 1_545 S
Cd506 O507 2.240 . S
Cd506 O514 2.223 1_545 S
Cd506 O516 2.297 1_545 S
Cd506 O517 2.439 1_545 S
O507 Cd506 2.240 . S
O507 C512 1.279 . S
O508 Cd505 2.297 . S
O508 C510 1.247 . S
O509 Cd505 2.439 . S
O509 C510 1.208 . S
C510 O508 1.247 . S
C510 O509 1.208 . S
C511 O516 1.247 . S
C511 O517 1.208 . S
C512 O504 1.315 . S
C512 O507 1.279 . S
C513 O514 1.315 . S
C513 O515 1.279 . S
O514 Cd506 2.223 1_565 S
O514 C513 1.315 . S
O515 Cd505 2.240 1_565 S
O515 C513 1.279 . S
O516 Cd506 2.297 1_565 S
O516 C511 1.247 . S
O517 Cd506 2.439 1_565 S
O517 C511 1.208 . S
O518 Cd519 2.223 . S
O518 C526 1.315 . S
Cd519 O518 2.223 . S
Cd519 O522 2.297 . S
Cd519 O523 2.439 . S
Cd519 O529 2.240 . S
Cd520 O521 2.240 . S
Cd520 O528 2.223 . S
Cd520 O530 2.297 . S
Cd520 O531 2.439 . S
O521 Cd520 2.240 . S
O521 C526 1.279 . S
O522 Cd519 2.297 . S
O522 C524 1.247 . S
O523 Cd519 2.439 . S
O523 C524 1.208 . S
C524 O522 1.247 . S
C524 O523 1.208 . S
C525 O530 1.247 . S
C525 O531 1.208 . S
C526 O518 1.315 . S
C526 O521 1.279 . S
C527 O528 1.315 . S
C527 O529 1.279 . S
O528 Cd520 2.223 . S
O528 C527 1.315 . S
O529 Cd519 2.240 . S
O529 C527 1.279 . S
O530 Cd520 2.297 . S
O530 C525 1.247 . S
O531 Cd520 2.439 . S
O531 C525 1.208 . S
O532 Cd533 2.223 . S
O532 C540 1.315 . S
Cd533 O532 2.223 . S
Cd533 O536 2.297 . S
Cd533 O537 2.439 . S
Cd533 O543 2.240 1_565 S
Cd534 O535 2.240 . S
Cd534 O542 2.223 1_565 S
Cd534 O544 2.297 1_565 S
Cd534 O545 2.439 1_565 S
O535 Cd534 2.240 . S
O535 C540 1.279 . S
O536 Cd533 2.297 . S
O536 C538 1.247 . S
O537 Cd533 2.439 . S
O537 C538 1.208 . S
C538 O536 1.247 . S
C538 O537 1.208 . S
C539 O544 1.247 . S
C539 O545 1.208 . S
C540 O532 1.315 . S
C540 O535 1.279 . S
C541 O542 1.315 . S
C541 O543 1.279 . S
O542 Cd534 2.223 1_545 S
O542 C541 1.315 . S
O543 Cd533 2.240 1_545 S
O543 C541 1.279 . S
O544 Cd534 2.297 1_545 S
O544 C539 1.247 . S
O545 Cd534 2.439 1_545 S
O545 C539 1.208 . S
O546 Cd547 2.223 . S
O546 C554 1.315 . S
Cd547 O546 2.223 . S
Cd547 O550 2.297 . S
Cd547 O551 2.439 . S
Cd547 O557 2.240 . S
Cd548 O549 2.240 . S
Cd548 O556 2.223 . S
Cd548 O558 2.297 . S
Cd548 O559 2.439 . S
O549 Cd548 2.240 . S
O549 C554 1.279 . S
O550 Cd547 2.297 . S
O550 C552 1.247 . S
O551 Cd547 2.439 . S
O551 C552 1.208 . S
C552 O550 1.247 . S
C552 O551 1.208 . S
C553 O558 1.247 . S
C553 O559 1.208 . S
C554 O546 1.315 . S
C554 O549 1.279 . S
C555 O556 1.315 . S
C555 O557 1.279 . S
O556 Cd548 2.223 . S
O556 C555 1.315 . S
O557 Cd547 2.240 . S
O557 C555 1.279 . S
O558 Cd548 2.297 . S
O558 C553 1.247 . S
O559 Cd548 2.439 . S
O559 C553 1.208 . S
O560 Cd561 2.223 . S
O560 C568 1.315 . S
Cd561 O560 2.223 . S
Cd561 O564 2.297 . S
Cd561 O565 2.439 . S
Cd561 O571 2.240 1_556 S
Cd562 O563 2.240 . S
Cd562 O570 2.223 1_556 S
Cd562 O572 2.297 1_556 S
Cd562 O573 2.439 1_556 S
O563 Cd562 2.240 . S
O563 C568 1.279 . S
O564 Cd561 2.297 . S
O564 C566 1.247 . S
O565 Cd561 2.439 . S
O565 C566 1.208 . S
C566 O564 1.247 . S
C566 O565 1.208 . S
C567 O572 1.247 . S
C567 O573 1.208 . S
C568 O560 1.315 . S
C568 O563 1.279 . S
C569 O570 1.315 . S
C569 O571 1.279 . S
O570 Cd562 2.223 1_554 S
O570 C569 1.315 . S
O571 Cd561 2.240 1_554 S
O571 C569 1.279 . S
O572 Cd562 2.297 1_554 S
O572 C567 1.247 . S
O573 Cd562 2.439 1_554 S
O573 C567 1.208 . S
O574 Cd575 2.223 . S
O574 C582 1.315 . S
Cd575 O574 2.223 . S
Cd575 O578 2.297 . S
Cd575 O579 2.439 . S
Cd575 O585 2.240 1_554 S
Cd576 O577 2.240 . S
Cd576 O584 2.223 1_554 S
Cd576 O586 2.297 1_554 S
Cd576 O587 2.439 1_554 S
O577 Cd576 2.240 . S
O577 C582 1.279 . S
O578 Cd575 2.297 . S
O578 C580 1.247 . S
O579 Cd575 2.439 . S
O579 C580 1.208 . S
C580 O578 1.247 . S
C580 O579 1.208 . S
C581 O586 1.247 . S
C581 O587 1.208 . S
C582 O574 1.315 . S
C582 O577 1.279 . S
C583 O584 1.315 . S
C583 O585 1.279 . S
O584 Cd576 2.223 1_556 S
O584 C583 1.315 . S
O585 Cd575 2.240 1_556 S
O585 C583 1.279 . S
O586 Cd576 2.297 1_556 S
O586 C581 1.247 . S
O587 Cd576 2.439 1_556 S
O587 C581 1.208 . S
O588 Cd589 2.223 . S
O588 C596 1.315 . S
Cd589 O588 2.223 . S
Cd589 O592 2.297 . S
Cd589 O593 2.439 . S
Cd589 O599 2.240 . S
Cd590 O591 2.240 . S
Cd590 O598 2.223 . S
Cd590 O600 2.297 . S
Cd590 O601 2.439 . S
O591 Cd590 2.240 . S
O591 C596 1.279 . S
O592 Cd589 2.297 . S
O592 C594 1.247 . S
O593 Cd589 2.439 . S
O593 C594 1.208 . S
C594 O592 1.247 . S
C594 O593 1.208 . S
C595 O600 1.247 . S
C595 O601 1.208 . S
C596 O588 1.315 . S
C596 O591 1.279 . S
C597 O598 1.315 . S
C597 O599 1.279 . S
O598 Cd590 2.223 . S
O598 C597 1.315 . S
O599 Cd589 2.240 . S
O599 C597 1.279 . S
O600 Cd590 2.297 . S
O600 C595 1.247 . S
O601 Cd590 2.439 . S
O601 C595 1.208 . S
O602 Cd603 2.223 . S
O602 C610 1.315 . S
Cd603 O602 2.223 . S
Cd603 O606 2.297 . S
Cd603 O607 2.439 . S
Cd603 O613 2.240 . S
Cd604 O605 2.240 . S
Cd604 O612 2.223 . S
Cd604 O614 2.297 . S
Cd604 O615 2.439 . S
O605 Cd604 2.240 . S
O605 C610 1.279 . S
O606 Cd603 2.297 . S
O606 C608 1.247 . S
O607 Cd603 2.439 . S
O607 C608 1.208 . S
C608 O606 1.247 . S
C608 O607 1.208 . S
C609 O614 1.247 . S
C609 O615 1.208 . S
C610 O602 1.315 . S
C610 O605 1.279 . S
C611 O612 1.315 . S
C611 O613 1.279 . S
O612 Cd604 2.223 . S
O612 C611 1.315 . S
O613 Cd603 2.240 . S
O613 C611 1.279 . S
O614 Cd604 2.297 . S
O614 C609 1.247 . S
O615 Cd604 2.439 . S
O615 C609 1.208 . S
O616 Cd617 2.223 . S
O616 C624 1.315 . S
Cd617 O616 2.223 . S
Cd617 O620 2.297 . S
Cd617 O621 2.439 . S
Cd617 O627 2.240 . S
Cd618 O619 2.240 . S
Cd618 O626 2.223 . S
Cd618 O628 2.297 . S
Cd618 O629 2.439 . S
O619 Cd618 2.240 . S
O619 C624 1.279 . S
O620 Cd617 2.297 . S
O620 C622 1.247 . S
O621 Cd617 2.439 . S
O621 C622 1.208 . S
C622 O620 1.247 . S
C622 O621 1.208 . S
C623 O628 1.247 . S
C623 O629 1.208 . S
C624 O616 1.315 . S
C624 O619 1.279 . S
C625 O626 1.315 . S
C625 O627 1.279 . S
O626 Cd618 2.223 . S
O626 C625 1.315 . S
O627 Cd617 2.240 . S
O627 C625 1.279 . S
O628 Cd618 2.297 . S
O628 C623 1.247 . S
O629 Cd618 2.439 . S
O629 C623 1.208 . S
O630 Cd631 2.223 . S
O630 C638 1.315 . S
Cd631 O630 2.223 . S
Cd631 O634 2.297 . S
Cd631 O635 2.439 . S
Cd631 O641 2.240 . S
Cd632 O633 2.240 . S
Cd632 O640 2.223 . S
Cd632 O642 2.297 . S
Cd632 O643 2.439 . S
O633 Cd632 2.240 . S
O633 C638 1.279 . S
O634 Cd631 2.297 . S
O634 C636 1.247 . S
O635 Cd631 2.439 . S
O635 C636 1.208 . S
C636 O634 1.247 . S
C636 O635 1.208 . S
C637 O642 1.247 . S
C637 O643 1.208 . S
C638 O630 1.315 . S
C638 O633 1.279 . S
C639 O640 1.315 . S
C639 O641 1.279 . S
O640 Cd632 2.223 . S
O640 C639 1.315 . S
O641 Cd631 2.240 . S
O641 C639 1.279 . S
O642 Cd632 2.297 . S
O642 C637 1.247 . S
O643 Cd632 2.439 . S
O643 C637 1.208 . S
O644 Cd645 2.223 . S
O644 C652 1.315 . S
Cd645 O644 2.223 . S
Cd645 O648 2.297 . S
Cd645 O649 2.439 . S
Cd645 O655 2.240 . S
Cd646 O647 2.240 . S
Cd646 O654 2.223 . S
Cd646 O656 2.297 . S
Cd646 O657 2.439 . S
O647 Cd646 2.240 . S
O647 C652 1.279 . S
O648 Cd645 2.297 . S
O648 C650 1.247 . S
O649 Cd645 2.439 . S
O649 C650 1.208 . S
C650 O648 1.247 . S
C650 O649 1.208 . S
C651 O656 1.247 . S
C651 O657 1.208 . S
C652 O644 1.315 . S
C652 O647 1.279 . S
C653 O654 1.315 . S
C653 O655 1.279 . S
O654 Cd646 2.223 . S
O654 C653 1.315 . S
O655 Cd645 2.240 . S
O655 C653 1.279 . S
O656 Cd646 2.297 . S
O656 C651 1.247 . S
O657 Cd646 2.439 . S
O657 C651 1.208 . S
O658 Cd659 2.223 . S
O658 C666 1.315 . S
Cd659 O658 2.223 . S
Cd659 O662 2.297 . S
Cd659 O663 2.439 . S
Cd659 O669 2.240 . S
Cd660 O661 2.240 . S
Cd660 O668 2.223 . S
Cd660 O670 2.297 . S
Cd660 O671 2.439 . S
O661 Cd660 2.240 . S
O661 C666 1.279 . S
O662 Cd659 2.297 . S
O662 C664 1.247 . S
O663 Cd659 2.439 . S
O663 C664 1.208 . S
C664 O662 1.247 . S
C664 O663 1.208 . S
C665 O670 1.247 . S
C665 O671 1.208 . S
C666 O658 1.315 . S
C666 O661 1.279 . S
C667 O668 1.315 . S
C667 O669 1.279 . S
O668 Cd660 2.223 . S
O668 C667 1.315 . S
O669 Cd659 2.240 . S
O669 C667 1.279 . S
O670 Cd660 2.297 . S
O670 C665 1.247 . S
O671 Cd660 2.439 . S
O671 C665 1.208 . S
O672 Cd673 2.223 . S
O672 C680 1.315 . S
Cd673 O672 2.223 . S
Cd673 O676 2.297 . S
Cd673 O677 2.439 . S
Cd673 O683 2.240 . S
Cd674 O675 2.240 . S
Cd674 O682 2.223 . S
Cd674 O684 2.297 . S
Cd674 O685 2.439 . S
O675 Cd674 2.240 . S
O675 C680 1.279 . S
O676 Cd673 2.297 . S
O676 C678 1.247 . S
O677 Cd673 2.439 . S
O677 C678 1.208 . S
C678 O676 1.247 . S
C678 O677 1.208 . S
C679 O684 1.247 . S
C679 O685 1.208 . S
C680 O672 1.315 . S
C680 O675 1.279 . S
C681 O682 1.315 . S
C681 O683 1.279 . S
O682 Cd674 2.223 . S
O682 C681 1.315 . S
O683 Cd673 2.240 . S
O683 C681 1.279 . S
O684 Cd674 2.297 . S
O684 C679 1.247 . S
O685 Cd674 2.439 . S
O685 C679 1.208 . S
O686 Cd687 2.223 . S
O686 C694 1.315 . S
Cd687 O686 2.223 . S
Cd687 O690 2.297 . S
Cd687 O691 2.439 . S
Cd687 O697 2.240 . S
Cd688 O689 2.240 . S
Cd688 O696 2.223 . S
Cd688 O698 2.297 . S
Cd688 O699 2.439 . S
O689 Cd688 2.240 . S
O689 C694 1.279 . S
O690 Cd687 2.297 . S
O690 C692 1.247 . S
O691 Cd687 2.439 . S
O691 C692 1.208 . S
C692 O690 1.247 . S
C692 O691 1.208 . S
C693 O698 1.247 . S
C693 O699 1.208 . S
C694 O686 1.315 . S
C694 O689 1.279 . S
C695 O696 1.315 . S
C695 O697 1.279 . S
O696 Cd688 2.223 . S
O696 C695 1.315 . S
O697 Cd687 2.240 . S
O697 C695 1.279 . S
O698 Cd688 2.297 . S
O698 C693 1.247 . S
O699 Cd688 2.439 . S
O699 C693 1.208 . S
O700 Cd701 2.223 . S
O700 C708 1.315 . S
Cd701 O700 2.223 . S
Cd701 O704 2.297 . S
Cd701 O705 2.439 . S
Cd701 O711 2.240 1_655 S
Cd702 O703 2.240 . S
Cd702 O710 2.223 1_655 S
Cd702 O712 2.297 1_655 S
Cd702 O713 2.439 1_655 S
O703 Cd702 2.240 . S
O703 C708 1.279 . S
O704 Cd701 2.297 . S
O704 C706 1.247 . S
O705 Cd701 2.439 . S
O705 C706 1.208 . S
C706 O704 1.247 . S
C706 O705 1.208 . S
C707 O712 1.247 . S
C707 O713 1.208 . S
C708 O700 1.315 . S
C708 O703 1.279 . S
C709 O710 1.315 . S
C709 O711 1.279 . S
O710 Cd702 2.223 1_455 S
O710 C709 1.315 . S
O711 Cd701 2.240 1_455 S
O711 C709 1.279 . S
O712 Cd702 2.297 1_455 S
O712 C707 1.247 . S
O713 Cd702 2.439 1_455 S
O713 C707 1.208 . S
O714 Cd715 2.223 . S
O714 C722 1.315 . S
Cd715 O714 2.223 . S
Cd715 O718 2.297 . S
Cd715 O719 2.439 . S
Cd715 O725 2.240 . S
Cd716 O717 2.240 . S
Cd716 O724 2.223 . S
Cd716 O726 2.297 . S
Cd716 O727 2.439 . S
O717 Cd716 2.240 . S
O717 C722 1.279 . S
O718 Cd715 2.297 . S
O718 C720 1.247 . S
O719 Cd715 2.439 . S
O719 C720 1.208 . S
C720 O718 1.247 . S
C720 O719 1.208 . S
C721 O726 1.247 . S
C721 O727 1.208 . S
C722 O714 1.315 . S
C722 O717 1.279 . S
C723 O724 1.315 . S
C723 O725 1.279 . S
O724 Cd716 2.223 . S
O724 C723 1.315 . S
O725 Cd715 2.240 . S
O725 C723 1.279 . S
O726 Cd716 2.297 . S
O726 C721 1.247 . S
O727 Cd716 2.439 . S
O727 C721 1.208 . S
O728 Cd729 2.223 . S
O728 C736 1.315 . S
Cd729 O728 2.223 . S
Cd729 O732 2.297 . S
Cd729 O733 2.439 . S
Cd729 O739 2.240 . S
Cd730 O731 2.240 . S
Cd730 O738 2.223 . S
Cd730 O740 2.297 . S
Cd730 O741 2.439 . S
O731 Cd730 2.240 . S
O731 C736 1.279 . S
O732 Cd729 2.297 . S
O732 C734 1.247 . S
O733 Cd729 2.439 . S
O733 C734 1.208 . S
C734 O732 1.247 . S
C734 O733 1.208 . S
C735 O740 1.247 . S
C735 O741 1.208 . S
C736 O728 1.315 . S
C736 O731 1.279 . S
C737 O738 1.315 . S
C737 O739 1.279 . S
O738 Cd730 2.223 . S
O738 C737 1.315 . S
O739 Cd729 2.240 . S
O739 C737 1.279 . S
O740 Cd730 2.297 . S
O740 C735 1.247 . S
O741 Cd730 2.439 . S
O741 C735 1.208 . S
O742 Cd743 2.223 . S
O742 C750 1.315 . S
Cd743 O742 2.223 . S
Cd743 O746 2.297 . S
Cd743 O747 2.439 . S
Cd743 O753 2.240 . S
Cd744 O745 2.240 . S
Cd744 O752 2.223 . S
Cd744 O754 2.297 . S
Cd744 O755 2.439 . S
O745 Cd744 2.240 . S
O745 C750 1.279 . S
O746 Cd743 2.297 . S
O746 C748 1.247 . S
O747 Cd743 2.439 . S
O747 C748 1.208 . S
C748 O746 1.247 . S
C748 O747 1.208 . S
C749 O754 1.247 . S
C749 O755 1.208 . S
C750 O742 1.315 . S
C750 O745 1.279 . S
C751 O752 1.315 . S
C751 O753 1.279 . S
O752 Cd744 2.223 . S
O752 C751 1.315 . S
O753 Cd743 2.240 . S
O753 C751 1.279 . S
O754 Cd744 2.297 . S
O754 C749 1.247 . S
O755 Cd744 2.439 . S
O755 C749 1.208 . S
O756 Cd757 2.223 . S
O756 C764 1.315 . S
Cd757 O756 2.223 . S
Cd757 O760 2.297 . S
Cd757 O761 2.439 . S
Cd757 O767 2.240 1_655 S
Cd758 O759 2.240 . S
Cd758 O766 2.223 1_655 S
Cd758 O768 2.297 1_655 S
Cd758 O769 2.439 1_655 S
O759 Cd758 2.240 . S
O759 C764 1.279 . S
O760 Cd757 2.297 . S
O760 C762 1.247 . S
O761 Cd757 2.439 . S
O761 C762 1.208 . S
C762 O760 1.247 . S
C762 O761 1.208 . S
C763 O768 1.247 . S
C763 O769 1.208 . S
C764 O756 1.315 . S
C764 O759 1.279 . S
C765 O766 1.315 . S
C765 O767 1.279 . S
O766 Cd758 2.223 1_455 S
O766 C765 1.315 . S
O767 Cd757 2.240 1_455 S
O767 C765 1.279 . S
O768 Cd758 2.297 1_455 S
O768 C763 1.247 . S
O769 Cd758 2.439 1_455 S
O769 C763 1.208 . S
O770 Cd771 2.223 . S
O770 C778 1.315 . S
Cd771 O770 2.223 . S
Cd771 O774 2.297 . S
Cd771 O775 2.439 . S
Cd771 O781 2.240 . S
Cd772 O773 2.240 . S
Cd772 O780 2.223 . S
Cd772 O782 2.297 . S
Cd772 O783 2.439 . S
O773 Cd772 2.240 . S
O773 C778 1.279 . S
O774 Cd771 2.297 . S
O774 C776 1.247 . S
O775 Cd771 2.439 . S
O775 C776 1.208 . S
C776 O774 1.247 . S
C776 O775 1.208 . S
C777 O782 1.247 . S
C777 O783 1.208 . S
C778 O770 1.315 . S
C778 O773 1.279 . S
C779 O780 1.315 . S
C779 O781 1.279 . S
O780 Cd772 2.223 . S
O780 C779 1.315 . S
O781 Cd771 2.240 . S
O781 C779 1.279 . S
O782 Cd772 2.297 . S
O782 C777 1.247 . S
O783 Cd772 2.439 . S
O783 C777 1.208 . S
O784 Cd785 2.223 . S
O784 C792 1.315 . S
Cd785 O784 2.223 . S
Cd785 O788 2.297 . S
Cd785 O789 2.439 . S
Cd785 O795 2.240 . S
Cd786 O787 2.240 . S
Cd786 O794 2.223 . S
Cd786 O796 2.297 . S
Cd786 O797 2.439 . S
O787 Cd786 2.240 . S
O787 C792 1.279 . S
O788 Cd785 2.297 . S
O788 C790 1.247 . S
O789 Cd785 2.439 . S
O789 C790 1.208 . S
C790 O788 1.247 . S
C790 O789 1.208 . S
C791 O796 1.247 . S
C791 O797 1.208 . S
C792 O784 1.315 . S
C792 O787 1.279 . S
C793 O794 1.315 . S
C793 O795 1.279 . S
O794 Cd786 2.223 . S
O794 C793 1.315 . S
O795 Cd785 2.240 . S
O795 C793 1.279 . S
O796 Cd786 2.297 . S
O796 C791 1.247 . S
O797 Cd786 2.439 . S
O797 C791 1.208 . S
O798 Cd799 2.223 . S
O798 C806 1.315 . S
Cd799 O798 2.223 . S
Cd799 O802 2.297 . S
Cd799 O803 2.439 . S
Cd799 O809 2.240 . S
Cd800 O801 2.240 . S
Cd800 O808 2.223 . S
Cd800 O810 2.297 . S
Cd800 O811 2.439 . S
O801 Cd800 2.240 . S
O801 C806 1.279 . S
O802 Cd799 2.297 . S
O802 C804 1.247 . S
O803 Cd799 2.439 . S
O803 C804 1.208 . S
C804 O802 1.247 . S
C804 O803 1.208 . S
C805 O810 1.247 . S
C805 O811 1.208 . S
C806 O798 1.315 . S
C806 O801 1.279 . S
C807 O808 1.315 . S
C807 O809 1.279 . S
O808 Cd800 2.223 . S
O808 C807 1.315 . S
O809 Cd799 2.240 . S
O809 C807 1.279 . S
O810 Cd800 2.297 . S
O810 C805 1.247 . S
O811 Cd800 2.439 . S
O811 C805 1.208 . S
O812 Cd813 2.223 . S
O812 C820 1.315 . S
Cd813 O812 2.223 . S
Cd813 O816 2.297 . S
Cd813 O817 2.439 . S
Cd813 O823 2.240 . S
Cd814 O815 2.240 . S
Cd814 O822 2.223 . S
Cd814 O824 2.297 . S
Cd814 O825 2.439 . S
O815 Cd814 2.240 . S
O815 C820 1.279 . S
O816 Cd813 2.297 . S
O816 C818 1.247 . S
O817 Cd813 2.439 . S
O817 C818 1.208 . S
C818 O816 1.247 . S
C818 O817 1.208 . S
C819 O824 1.247 . S
C819 O825 1.208 . S
C820 O812 1.315 . S
C820 O815 1.279 . S
C821 O822 1.315 . S
C821 O823 1.279 . S
O822 Cd814 2.223 . S
O822 C821 1.315 . S
O823 Cd813 2.240 . S
O823 C821 1.279 . S
O824 Cd814 2.297 . S
O824 C819 1.247 . S
O825 Cd814 2.439 . S
O825 C819 1.208 . S
O826 Cd827 2.223 . S
O826 C834 1.315 . S
Cd827 O826 2.223 . S
Cd827 O830 2.297 . S
Cd827 O831 2.439 . S
Cd827 O837 2.240 . S
Cd828 O829 2.240 . S
Cd828 O836 2.223 . S
Cd828 O838 2.297 . S
Cd828 O839 2.439 . S
O829 Cd828 2.240 . S
O829 C834 1.279 . S
O830 Cd827 2.297 . S
O830 C832 1.247 . S
O831 Cd827 2.439 . S
O831 C832 1.208 . S
C832 O830 1.247 . S
C832 O831 1.208 . S
C833 O838 1.247 . S
C833 O839 1.208 . S
C834 O826 1.315 . S
C834 O829 1.279 . S
C835 O836 1.315 . S
C835 O837 1.279 . S
O836 Cd828 2.223 . S
O836 C835 1.315 . S
O837 Cd827 2.240 . S
O837 C835 1.279 . S
O838 Cd828 2.297 . S
O838 C833 1.247 . S
O839 Cd828 2.439 . S
O839 C833 1.208 . S
O840 Cd841 2.223 . S
O840 C848 1.315 . S
Cd841 O840 2.223 . S
Cd841 O844 2.297 . S
Cd841 O845 2.439 . S
Cd841 O851 2.240 . S
Cd842 O843 2.240 . S
Cd842 O850 2.223 . S
Cd842 O852 2.297 . S
Cd842 O853 2.439 . S
O843 Cd842 2.240 . S
O843 C848 1.279 . S
O844 Cd841 2.297 . S
O844 C846 1.247 . S
O845 Cd841 2.439 . S
O845 C846 1.208 . S
C846 O844 1.247 . S
C846 O845 1.208 . S
C847 O852 1.247 . S
C847 O853 1.208 . S
C848 O840 1.315 . S
C848 O843 1.279 . S
C849 O850 1.315 . S
C849 O851 1.279 . S
O850 Cd842 2.223 . S
O850 C849 1.315 . S
O851 Cd841 2.240 . S
O851 C849 1.279 . S
O852 Cd842 2.297 . S
O852 C847 1.247 . S
O853 Cd842 2.439 . S
O853 C847 1.208 . S
O854 Cd855 2.223 . S
O854 C862 1.315 . S
Cd855 O854 2.223 . S
Cd855 O858 2.297 . S
Cd855 O859 2.439 . S
Cd855 O865 2.240 . S
Cd856 O857 2.240 . S
Cd856 O864 2.223 . S
Cd856 O866 2.297 . S
Cd856 O867 2.439 . S
O857 Cd856 2.240 . S
O857 C862 1.279 . S
O858 Cd855 2.297 . S
O858 C860 1.247 . S
O859 Cd855 2.439 . S
O859 C860 1.208 . S
C860 O858 1.247 . S
C860 O859 1.208 . S
C861 O866 1.247 . S
C861 O867 1.208 . S
C862 O854 1.315 . S
C862 O857 1.279 . S
C863 O864 1.315 . S
C863 O865 1.279 . S
O864 Cd856 2.223 . S
O864 C863 1.315 . S
O865 Cd855 2.240 . S
O865 C863 1.279 . S
O866 Cd856 2.297 . S
O866 C861 1.247 . S
O867 Cd856 2.439 . S
O867 C861 1.208 . S
O868 Cd869 2.223 . S
O868 C876 1.315 . S
Cd869 O868 2.223 . S
Cd869 O872 2.297 . S
Cd869 O873 2.439 . S
Cd869 O879 2.240 . S
Cd870 O871 2.240 . S
Cd870 O878 2.223 . S
Cd870 O880 2.297 . S
Cd870 O881 2.439 . S
O871 Cd870 2.240 . S
O871 C876 1.279 . S
O872 Cd869 2.297 . S
O872 C874 1.247 . S
O873 Cd869 2.439 . S
O873 C874 1.208 . S
C874 O872 1.247 . S
C874 O873 1.208 . S
C875 O880 1.247 . S
C875 O881 1.208 . S
C876 O868 1.315 . S
C876 O871 1.279 . S
C877 O878 1.315 . S
C877 O879 1.279 . S
O878 Cd870 2.223 . S
O878 C877 1.315 . S
O879 Cd869 2.240 . S
O879 C877 1.279 . S
O880 Cd870 2.297 . S
O880 C875 1.247 . S
O881 Cd870 2.439 . S
O881 C875 1.208 . S
O882 Cd883 2.223 . S
O882 C890 1.315 . S
Cd883 O882 2.223 . S
Cd883 O886 2.297 . S
Cd883 O887 2.439 . S
Cd883 O893 2.240 . S
Cd884 O885 2.240 . S
Cd884 O892 2.223 . S
Cd884 O894 2.297 . S
Cd884 O895 2.439 . S
O885 Cd884 2.240 . S
O885 C890 1.279 . S
O886 Cd883 2.297 . S
O886 C888 1.247 . S
O887 Cd883 2.439 . S
O887 C888 1.208 . S
C888 O886 1.247 . S
C888 O887 1.208 . S
C889 O894 1.247 . S
C889 O895 1.208 . S
C890 O882 1.315 . S
C890 O885 1.279 . S
C891 O892 1.315 . S
C891 O893 1.279 . S
O892 Cd884 2.223 . S
O892 C891 1.315 . S
O893 Cd883 2.240 . S
O893 C891 1.279 . S
O894 Cd884 2.297 . S
O894 C889 1.247 . S
O895 Cd884 2.439 . S
O895 C889 1.208 . S
O896 Cd897 2.223 . S
O896 C904 1.315 . S
Cd897 O896 2.223 . S
Cd897 O900 2.297 . S
Cd897 O901 2.439 . S
Cd897 O907 2.240 . S
Cd898 O899 2.240 . S
Cd898 O906 2.223 . S
Cd898 O908 2.297 . S
Cd898 O909 2.439 . S
O899 Cd898 2.240 . S
O899 C904 1.279 . S
O900 Cd897 2.297 . S
O900 C902 1.247 . S
O901 Cd897 2.439 . S
O901 C902 1.208 . S
C902 O900 1.247 . S
C902 O901 1.208 . S
C903 O908 1.247 . S
C903 O909 1.208 . S
C904 O896 1.315 . S
C904 O899 1.279 . S
C905 O906 1.315 . S
C905 O907 1.279 . S
O906 Cd898 2.223 . S
O906 C905 1.315 . S
O907 Cd897 2.240 . S
O907 C905 1.279 . S
O908 Cd898 2.297 . S
O908 C903 1.247 . S
O909 Cd898 2.439 . S
O909 C903 1.208 . S
O910 Cd911 2.223 . S
O910 C918 1.315 . S
Cd911 O910 2.223 . S
Cd911 O914 2.297 . S
Cd911 O915 2.439 . S
Cd911 O921 2.240 . S
Cd912 O913 2.240 . S
Cd912 O920 2.223 . S
Cd912 O922 2.297 . S
Cd912 O923 2.439 . S
O913 Cd912 2.240 . S
O913 C918 1.279 . S
O914 Cd911 2.297 . S
O914 C916 1.247 . S
O915 Cd911 2.439 . S
O915 C916 1.208 . S
C916 O914 1.247 . S
C916 O915 1.208 . S
C917 O922 1.247 . S
C917 O923 1.208 . S
C918 O910 1.315 . S
C918 O913 1.279 . S
C919 O920 1.315 . S
C919 O921 1.279 . S
O920 Cd912 2.223 . S
O920 C919 1.315 . S
O921 Cd911 2.240 . S
O921 C919 1.279 . S
O922 Cd912 2.297 . S
O922 C917 1.247 . S
O923 Cd912 2.439 . S
O923 C917 1.208 . S
O924 Cd925 2.223 . S
O924 C932 1.315 . S
Cd925 O924 2.223 . S
Cd925 O928 2.297 . S
Cd925 O929 2.439 . S
Cd925 O935 2.240 . S
Cd926 O927 2.240 . S
Cd926 O934 2.223 . S
Cd926 O936 2.297 . S
Cd926 O937 2.439 . S
O927 Cd926 2.240 . S
O927 C932 1.279 . S
O928 Cd925 2.297 . S
O928 C930 1.247 . S
O929 Cd925 2.439 . S
O929 C930 1.208 . S
C930 O928 1.247 . S
C930 O929 1.208 . S
C931 O936 1.247 . S
C931 O937 1.208 . S
C932 O924 1.315 . S
C932 O927 1.279 . S
C933 O934 1.315 . S
C933 O935 1.279 . S
O934 Cd926 2.223 . S
O934 C933 1.315 . S
O935 Cd925 2.240 . S
O935 C933 1.279 . S
O936 Cd926 2.297 . S
O936 C931 1.247 . S
O937 Cd926 2.439 . S
O937 C931 1.208 . S
O938 Cd939 2.223 . S
O938 C946 1.315 . S
Cd939 O938 2.223 . S
Cd939 O942 2.297 . S
Cd939 O943 2.439 . S
Cd939 O949 2.240 1_556 S
Cd940 O941 2.240 . S
Cd940 O948 2.223 1_556 S
Cd940 O950 2.297 1_556 S
Cd940 O951 2.439 1_556 S
O941 Cd940 2.240 . S
O941 C946 1.279 . S
O942 Cd939 2.297 . S
O942 C944 1.247 . S
O943 Cd939 2.439 . S
O943 C944 1.208 . S
C944 O942 1.247 . S
C944 O943 1.208 . S
C945 O950 1.247 . S
C945 O951 1.208 . S
C946 O938 1.315 . S
C946 O941 1.279 . S
C947 O948 1.315 . S
C947 O949 1.279 . S
O948 Cd940 2.223 1_554 S
O948 C947 1.315 . S
O949 Cd939 2.240 1_554 S
O949 C947 1.279 . S
O950 Cd940 2.297 1_554 S
O950 C945 1.247 . S
O951 Cd940 2.439 1_554 S
O951 C945 1.208 . S
O952 Cd953 2.223 . S
O952 C960 1.315 . S
Cd953 O952 2.223 . S
Cd953 O956 2.297 . S
Cd953 O957 2.439 . S
Cd953 O963 2.240 . S
Cd954 O955 2.240 . S
Cd954 O962 2.223 . S
Cd954 O964 2.297 . S
Cd954 O965 2.439 . S
O955 Cd954 2.240 . S
O955 C960 1.279 . S
O956 Cd953 2.297 . S
O956 C958 1.247 . S
O957 Cd953 2.439 . S
O957 C958 1.208 . S
C958 O956 1.247 . S
C958 O957 1.208 . S
C959 O964 1.247 . S
C959 O965 1.208 . S
C960 O952 1.315 . S
C960 O955 1.279 . S
C961 O962 1.315 . S
C961 O963 1.279 . S
O962 Cd954 2.223 . S
O962 C961 1.315 . S
O963 Cd953 2.240 . S
O963 C961 1.279 . S
O964 Cd954 2.297 . S
O964 C959 1.247 . S
O965 Cd954 2.439 . S
O965 C959 1.208 . S
O966 Cd967 2.223 . S
O966 C974 1.315 . S
Cd967 O966 2.223 . S
Cd967 O970 2.297 . S
Cd967 O971 2.439 . S
Cd967 O977 2.240 1_554 S
Cd968 O969 2.240 . S
Cd968 O976 2.223 1_554 S
Cd968 O978 2.297 1_554 S
Cd968 O979 2.439 1_554 S
O969 Cd968 2.240 . S
O969 C974 1.279 . S
O970 Cd967 2.297 . S
O970 C972 1.247 . S
O971 Cd967 2.439 . S
O971 C972 1.208 . S
C972 O970 1.247 . S
C972 O971 1.208 . S
C973 O978 1.247 . S
C973 O979 1.208 . S
C974 O966 1.315 . S
C974 O969 1.279 . S
C975 O976 1.315 . S
C975 O977 1.279 . S
O976 Cd968 2.223 1_556 S
O976 C975 1.315 . S
O977 Cd967 2.240 1_556 S
O977 C975 1.279 . S
O978 Cd968 2.297 1_556 S
O978 C973 1.247 . S
O979 Cd968 2.439 1_556 S
O979 C973 1.208 . S
O980 Cd981 2.223 . S
O980 C988 1.315 . S
Cd981 O980 2.223 . S
Cd981 O984 2.297 . S
Cd981 O985 2.439 . S
Cd981 O991 2.240 . S
Cd982 O983 2.240 . S
Cd982 O990 2.223 . S
Cd982 O992 2.297 . S
Cd982 O993 2.439 . S
O983 Cd982 2.240 . S
O983 C988 1.279 . S
O984 Cd981 2.297 . S
O984 C986 1.247 . S
O985 Cd981 2.439 . S
O985 C986 1.208 . S
C986 O984 1.247 . S
C986 O985 1.208 . S
C987 O992 1.247 . S
C987 O993 1.208 . S
C988 O980 1.315 . S
C988 O983 1.279 . S
C989 O990 1.315 . S
C989 O991 1.279 . S
O990 Cd982 2.223 . S
O990 C989 1.315 . S
O991 Cd981 2.240 . S
O991 C989 1.279 . S
O992 Cd982 2.297 . S
O992 C987 1.247 . S
O993 Cd982 2.439 . S
O993 C987 1.208 . S
O994 Cd995 2.223 . S
O994 C1002 1.315 . S
Cd995 O994 2.223 . S
Cd995 O998 2.297 . S
Cd995 O999 2.439 . S
Cd995 O1005 2.240 . S
Cd996 O997 2.240 . S
Cd996 O1004 2.223 . S
Cd996 O1006 2.297 . S
Cd996 O1007 2.439 . S
O997 Cd996 2.240 . S
O997 C1002 1.279 . S
O998 Cd995 2.297 . S
O998 C1000 1.247 . S
O999 Cd995 2.439 . S
O999 C1000 1.208 . S
C1000 O998 1.247 . S
C1000 O999 1.208 . S
C1001 O1006 1.247 . S
C1001 O1007 1.208 . S
C1002 O994 1.315 . S
C1002 O997 1.279 . S
C1003 O1004 1.315 . S
C1003 O1005 1.279 . S
O1004 Cd996 2.223 . S
O1004 C1003 1.315 . S
O1005 Cd995 2.240 . S
O1005 C1003 1.279 . S
O1006 Cd996 2.297 . S
O1006 C1001 1.247 . S
O1007 Cd996 2.439 . S
O1007 C1001 1.208 . S
O1008 Cd1009 2.223 . S
O1008 C1016 1.315 . S
Cd1009 O1008 2.223 . S
Cd1009 O1012 2.297 . S
Cd1009 O1013 2.439 . S
Cd1009 O1019 2.240 . S
Cd1010 O1011 2.240 . S
Cd1010 O1018 2.223 . S
Cd1010 O1020 2.297 . S
Cd1010 O1021 2.439 . S
O1011 Cd1010 2.240 . S
O1011 C1016 1.279 . S
O1012 Cd1009 2.297 . S
O1012 C1014 1.247 . S
O1013 Cd1009 2.439 . S
O1013 C1014 1.208 . S
C1014 O1012 1.247 . S
C1014 O1013 1.208 . S
C1015 O1020 1.247 . S
C1015 O1021 1.208 . S
C1016 O1008 1.315 . S
C1016 O1011 1.279 . S
C1017 O1018 1.315 . S
C1017 O1019 1.279 . S
O1018 Cd1010 2.223 . S
O1018 C1017 1.315 . S
O1019 Cd1009 2.240 . S
O1019 C1017 1.279 . S
O1020 Cd1010 2.297 . S
O1020 C1015 1.247 . S
O1021 Cd1010 2.439 . S
O1021 C1015 1.208 . S
O1022 Cd1023 2.223 . S
O1022 C1030 1.315 . S
Cd1023 O1022 2.223 . S
Cd1023 O1026 2.297 . S
Cd1023 O1027 2.439 . S
Cd1023 O1033 2.240 . S
Cd1024 O1025 2.240 . S
Cd1024 O1032 2.223 . S
Cd1024 O1034 2.297 . S
Cd1024 O1035 2.439 . S
O1025 Cd1024 2.240 . S
O1025 C1030 1.279 . S
O1026 Cd1023 2.297 . S
O1026 C1028 1.247 . S
O1027 Cd1023 2.439 . S
O1027 C1028 1.208 . S
C1028 O1026 1.247 . S
C1028 O1027 1.208 . S
C1029 O1034 1.247 . S
C1029 O1035 1.208 . S
C1030 O1022 1.315 . S
C1030 O1025 1.279 . S
C1031 O1032 1.315 . S
C1031 O1033 1.279 . S
O1032 Cd1024 2.223 . S
O1032 C1031 1.315 . S
O1033 Cd1023 2.240 . S
O1033 C1031 1.279 . S
O1034 Cd1024 2.297 . S
O1034 C1029 1.247 . S
O1035 Cd1024 2.439 . S
O1035 C1029 1.208 . S
O1036 Cd1037 2.223 . S
O1036 C1044 1.315 . S
Cd1037 O1036 2.223 . S
Cd1037 O1040 2.297 . S
Cd1037 O1041 2.439 . S
Cd1037 O1047 2.240 1_455 S
Cd1038 O1039 2.240 . S
Cd1038 O1046 2.223 1_455 S
Cd1038 O1048 2.297 1_455 S
Cd1038 O1049 2.439 1_455 S
O1039 Cd1038 2.240 . S
O1039 C1044 1.279 . S
O1040 Cd1037 2.297 . S
O1040 C1042 1.247 . S
O1041 Cd1037 2.439 . S
O1041 C1042 1.208 . S
C1042 O1040 1.247 . S
C1042 O1041 1.208 . S
C1043 O1048 1.247 . S
C1043 O1049 1.208 . S
C1044 O1036 1.315 . S
C1044 O1039 1.279 . S
C1045 O1046 1.315 . S
C1045 O1047 1.279 . S
O1046 Cd1038 2.223 1_655 S
O1046 C1045 1.315 . S
O1047 Cd1037 2.240 1_655 S
O1047 C1045 1.279 . S
O1048 Cd1038 2.297 1_655 S
O1048 C1043 1.247 . S
O1049 Cd1038 2.439 1_655 S
O1049 C1043 1.208 . S
O1050 Cd1051 2.223 . S
O1050 C1058 1.315 . S
Cd1051 O1050 2.223 . S
Cd1051 O1054 2.297 . S
Cd1051 O1055 2.439 . S
Cd1051 O1061 2.240 . S
Cd1052 O1053 2.240 . S
Cd1052 O1060 2.223 . S
Cd1052 O1062 2.297 . S
Cd1052 O1063 2.439 . S
O1053 Cd1052 2.240 . S
O1053 C1058 1.279 . S
O1054 Cd1051 2.297 . S
O1054 C1056 1.247 . S
O1055 Cd1051 2.439 . S
O1055 C1056 1.208 . S
C1056 O1054 1.247 . S
C1056 O1055 1.208 . S
C1057 O1062 1.247 . S
C1057 O1063 1.208 . S
C1058 O1050 1.315 . S
C1058 O1053 1.279 . S
C1059 O1060 1.315 . S
C1059 O1061 1.279 . S
O1060 Cd1052 2.223 . S
O1060 C1059 1.315 . S
O1061 Cd1051 2.240 . S
O1061 C1059 1.279 . S
O1062 Cd1052 2.297 . S
O1062 C1057 1.247 . S
O1063 Cd1052 2.439 . S
O1063 C1057 1.208 . S
O1064 Cd1065 2.223 . S
O1064 C1072 1.315 . S
Cd1065 O1064 2.223 . S
Cd1065 O1068 2.297 . S
Cd1065 O1069 2.439 . S
Cd1065 O1075 2.240 . S
Cd1066 O1067 2.240 . S
Cd1066 O1074 2.223 . S
Cd1066 O1076 2.297 . S
Cd1066 O1077 2.439 . S
O1067 Cd1066 2.240 . S
O1067 C1072 1.279 . S
O1068 Cd1065 2.297 . S
O1068 C1070 1.247 . S
O1069 Cd1065 2.439 . S
O1069 C1070 1.208 . S
C1070 O1068 1.247 . S
C1070 O1069 1.208 . S
C1071 O1076 1.247 . S
C1071 O1077 1.208 . S
C1072 O1064 1.315 . S
C1072 O1067 1.279 . S
C1073 O1074 1.315 . S
C1073 O1075 1.279 . S
O1074 Cd1066 2.223 . S
O1074 C1073 1.315 . S
O1075 Cd1065 2.240 . S
O1075 C1073 1.279 . S
O1076 Cd1066 2.297 . S
O1076 C1071 1.247 . S
O1077 Cd1066 2.439 . S
O1077 C1071 1.208 . S
O1078 Cd1079 2.223 . S
O1078 C1086 1.315 . S
Cd1079 O1078 2.223 . S
Cd1079 O1082 2.297 . S
Cd1079 O1083 2.439 . S
Cd1079 O1089 2.240 . S
Cd1080 O1081 2.240 . S
Cd1080 O1088 2.223 . S
Cd1080 O1090 2.297 . S
Cd1080 O1091 2.439 . S
O1081 Cd1080 2.240 . S
O1081 C1086 1.279 . S
O1082 Cd1079 2.297 . S
O1082 C1084 1.247 . S
O1083 Cd1079 2.439 . S
O1083 C1084 1.208 . S
C1084 O1082 1.247 . S
C1084 O1083 1.208 . S
C1085 O1090 1.247 . S
C1085 O1091 1.208 . S
C1086 O1078 1.315 . S
C1086 O1081 1.279 . S
C1087 O1088 1.315 . S
C1087 O1089 1.279 . S
O1088 Cd1080 2.223 . S
O1088 C1087 1.315 . S
O1089 Cd1079 2.240 . S
O1089 C1087 1.279 . S
O1090 Cd1080 2.297 . S
O1090 C1085 1.247 . S
O1091 Cd1080 2.439 . S
O1091 C1085 1.208 . S
O1092 Cd1093 2.223 . S
O1092 C1100 1.315 . S
Cd1093 O1092 2.223 . S
Cd1093 O1096 2.297 . S
Cd1093 O1097 2.439 . S
Cd1093 O1103 2.240 1_455 S
Cd1094 O1095 2.240 . S
Cd1094 O1102 2.223 1_455 S
Cd1094 O1104 2.297 1_455 S
Cd1094 O1105 2.439 1_455 S
O1095 Cd1094 2.240 . S
O1095 C1100 1.279 . S
O1096 Cd1093 2.297 . S
O1096 C1098 1.247 . S
O1097 Cd1093 2.439 . S
O1097 C1098 1.208 . S
C1098 O1096 1.247 . S
C1098 O1097 1.208 . S
C1099 O1104 1.247 . S
C1099 O1105 1.208 . S
C1100 O1092 1.315 . S
C1100 O1095 1.279 . S
C1101 O1102 1.315 . S
C1101 O1103 1.279 . S
O1102 Cd1094 2.223 1_655 S
O1102 C1101 1.315 . S
O1103 Cd1093 2.240 1_655 S
O1103 C1101 1.279 . S
O1104 Cd1094 2.297 1_655 S
O1104 C1099 1.247 . S
O1105 Cd1094 2.439 1_655 S
O1105 C1099 1.208 . S
O1106 Cd1107 2.223 . S
O1106 C1114 1.315 . S
Cd1107 O1106 2.223 . S
Cd1107 O1110 2.297 . S
Cd1107 O1111 2.439 . S
Cd1107 O1117 2.240 . S
Cd1108 O1109 2.240 . S
Cd1108 O1116 2.223 . S
Cd1108 O1118 2.297 . S
Cd1108 O1119 2.439 . S
O1109 Cd1108 2.240 . S
O1109 C1114 1.279 . S
O1110 Cd1107 2.297 . S
O1110 C1112 1.247 . S
O1111 Cd1107 2.439 . S
O1111 C1112 1.208 . S
C1112 O1110 1.247 . S
C1112 O1111 1.208 . S
C1113 O1118 1.247 . S
C1113 O1119 1.208 . S
C1114 O1106 1.315 . S
C1114 O1109 1.279 . S
C1115 O1116 1.315 . S
C1115 O1117 1.279 . S
O1116 Cd1108 2.223 . S
O1116 C1115 1.315 . S
O1117 Cd1107 2.240 . S
O1117 C1115 1.279 . S
O1118 Cd1108 2.297 . S
O1118 C1113 1.247 . S
O1119 Cd1108 2.439 . S
O1119 C1113 1.208 . S
O1120 Cd1121 2.223 . S
O1120 C1128 1.315 . S
Cd1121 O1120 2.223 . S
Cd1121 O1124 2.297 . S
Cd1121 O1125 2.439 . S
Cd1121 O1131 2.240 . S
Cd1122 O1123 2.240 . S
Cd1122 O1130 2.223 . S
Cd1122 O1132 2.297 . S
Cd1122 O1133 2.439 . S
O1123 Cd1122 2.240 . S
O1123 C1128 1.279 . S
O1124 Cd1121 2.297 . S
O1124 C1126 1.247 . S
O1125 Cd1121 2.439 . S
O1125 C1126 1.208 . S
C1126 O1124 1.247 . S
C1126 O1125 1.208 . S
C1127 O1132 1.247 . S
C1127 O1133 1.208 . S
C1128 O1120 1.315 . S
C1128 O1123 1.279 . S
C1129 O1130 1.315 . S
C1129 O1131 1.279 . S
O1130 Cd1122 2.223 . S
O1130 C1129 1.315 . S
O1131 Cd1121 2.240 . S
O1131 C1129 1.279 . S
O1132 Cd1122 2.297 . S
O1132 C1127 1.247 . S
O1133 Cd1122 2.439 . S
O1133 C1127 1.208 . S
O1134 Cd1135 2.223 . S
O1134 C1142 1.315 . S
Cd1135 O1134 2.223 . S
Cd1135 O1138 2.297 . S
Cd1135 O1139 2.439 . S
Cd1135 O1145 2.240 . S
Cd1136 O1137 2.240 . S
Cd1136 O1144 2.223 . S
Cd1136 O1146 2.297 . S
Cd1136 O1147 2.439 . S
O1137 Cd1136 2.240 . S
O1137 C1142 1.279 . S
O1138 Cd1135 2.297 . S
O1138 C1140 1.247 . S
O1139 Cd1135 2.439 . S
O1139 C1140 1.208 . S
C1140 O1138 1.247 . S
C1140 O1139 1.208 . S
C1141 O1146 1.247 . S
C1141 O1147 1.208 . S
C1142 O1134 1.315 . S
C1142 O1137 1.279 . S
C1143 O1144 1.315 . S
C1143 O1145 1.279 . S
O1144 Cd1136 2.223 . S
O1144 C1143 1.315 . S
O1145 Cd1135 2.240 . S
O1145 C1143 1.279 . S
O1146 Cd1136 2.297 . S
O1146 C1141 1.247 . S
O1147 Cd1136 2.439 . S
O1147 C1141 1.208 . S
O1148 Cd1149 2.223 . S
O1148 C1156 1.315 . S
Cd1149 O1148 2.223 . S
Cd1149 O1152 2.297 . S
Cd1149 O1153 2.439 . S
Cd1149 O1159 2.240 . S
Cd1150 O1151 2.240 . S
Cd1150 O1158 2.223 . S
Cd1150 O1160 2.297 . S
Cd1150 O1161 2.439 . S
O1151 Cd1150 2.240 . S
O1151 C1156 1.279 . S
O1152 Cd1149 2.297 . S
O1152 C1154 1.247 . S
O1153 Cd1149 2.439 . S
O1153 C1154 1.208 . S
C1154 O1152 1.247 . S
C1154 O1153 1.208 . S
C1155 O1160 1.247 . S
C1155 O1161 1.208 . S
C1156 O1148 1.315 . S
C1156 O1151 1.279 . S
C1157 O1158 1.315 . S
C1157 O1159 1.279 . S
O1158 Cd1150 2.223 . S
O1158 C1157 1.315 . S
O1159 Cd1149 2.240 . S
O1159 C1157 1.279 . S
O1160 Cd1150 2.297 . S
O1160 C1155 1.247 . S
O1161 Cd1150 2.439 . S
O1161 C1155 1.208 . S
O1162 Cd1163 2.223 . S
O1162 C1170 1.315 . S
Cd1163 O1162 2.223 . S
Cd1163 O1166 2.297 . S
Cd1163 O1167 2.439 . S
Cd1163 O1173 2.240 . S
Cd1164 O1165 2.240 . S
Cd1164 O1172 2.223 . S
Cd1164 O1174 2.297 . S
Cd1164 O1175 2.439 . S
O1165 Cd1164 2.240 . S
O1165 C1170 1.279 . S
O1166 Cd1163 2.297 . S
O1166 C1168 1.247 . S
O1167 Cd1163 2.439 . S
O1167 C1168 1.208 . S
C1168 O1166 1.247 . S
C1168 O1167 1.208 . S
C1169 O1174 1.247 . S
C1169 O1175 1.208 . S
C1170 O1162 1.315 . S
C1170 O1165 1.279 . S
C1171 O1172 1.315 . S
C1171 O1173 1.279 . S
O1172 Cd1164 2.223 . S
O1172 C1171 1.315 . S
O1173 Cd1163 2.240 . S
O1173 C1171 1.279 . S
O1174 Cd1164 2.297 . S
O1174 C1169 1.247 . S
O1175 Cd1164 2.439 . S
O1175 C1169 1.208 . S
O1176 Cd1177 2.223 . S
O1176 C1184 1.315 . S
Cd1177 O1176 2.223 . S
Cd1177 O1180 2.297 . S
Cd1177 O1181 2.439 . S
Cd1177 O1187 2.240 . S
Cd1178 O1179 2.240 . S
Cd1178 O1186 2.223 . S
Cd1178 O1188 2.297 . S
Cd1178 O1189 2.439 . S
O1179 Cd1178 2.240 . S
O1179 C1184 1.279 . S
O1180 Cd1177 2.297 . S
O1180 C1182 1.247 . S
O1181 Cd1177 2.439 . S
O1181 C1182 1.208 . S
C1182 O1180 1.247 . S
C1182 O1181 1.208 . S
C1183 O1188 1.247 . S
C1183 O1189 1.208 . S
C1184 O1176 1.315 . S
C1184 O1179 1.279 . S
C1185 O1186 1.315 . S
C1185 O1187 1.279 . S
O1186 Cd1178 2.223 . S
O1186 C1185 1.315 . S
O1187 Cd1177 2.240 . S
O1187 C1185 1.279 . S
O1188 Cd1178 2.297 . S
O1188 C1183 1.247 . S
O1189 Cd1178 2.439 . S
O1189 C1183 1.208 . S
O1190 Cd1191 2.223 . S
O1190 C1198 1.315 . S
Cd1191 O1190 2.223 . S
Cd1191 O1194 2.297 . S
Cd1191 O1195 2.439 . S
Cd1191 O1201 2.240 . S
Cd1192 O1193 2.240 . S
Cd1192 O1200 2.223 . S
Cd1192 O1202 2.297 . S
Cd1192 O1203 2.439 . S
O1193 Cd1192 2.240 . S
O1193 C1198 1.279 . S
O1194 Cd1191 2.297 . S
O1194 C1196 1.247 . S
O1195 Cd1191 2.439 . S
O1195 C1196 1.208 . S
C1196 O1194 1.247 . S
C1196 O1195 1.208 . S
C1197 O1202 1.247 . S
C1197 O1203 1.208 . S
C1198 O1190 1.315 . S
C1198 O1193 1.279 . S
C1199 O1200 1.315 . S
C1199 O1201 1.279 . S
O1200 Cd1192 2.223 . S
O1200 C1199 1.315 . S
O1201 Cd1191 2.240 . S
O1201 C1199 1.279 . S
O1202 Cd1192 2.297 . S
O1202 C1197 1.247 . S
O1203 Cd1192 2.439 . S
O1203 C1197 1.208 . S
O1204 Cd1205 2.223 . S
O1204 C1212 1.315 . S
Cd1205 O1204 2.223 . S
Cd1205 O1208 2.297 . S
Cd1205 O1209 2.439 . S
Cd1205 O1215 2.240 . S
Cd1206 O1207 2.240 . S
Cd1206 O1214 2.223 . S
Cd1206 O1216 2.297 . S
Cd1206 O1217 2.439 . S
O1207 Cd1206 2.240 . S
O1207 C1212 1.279 . S
O1208 Cd1205 2.297 . S
O1208 C1210 1.247 . S
O1209 Cd1205 2.439 . S
O1209 C1210 1.208 . S
C1210 O1208 1.247 . S
C1210 O1209 1.208 . S
C1211 O1216 1.247 . S
C1211 O1217 1.208 . S
C1212 O1204 1.315 . S
C1212 O1207 1.279 . S
C1213 O1214 1.315 . S
C1213 O1215 1.279 . S
O1214 Cd1206 2.223 . S
O1214 C1213 1.315 . S
O1215 Cd1205 2.240 . S
O1215 C1213 1.279 . S
O1216 Cd1206 2.297 . S
O1216 C1211 1.247 . S
O1217 Cd1206 2.439 . S
O1217 C1211 1.208 . S
O1218 Cd1219 2.223 . S
O1218 C1226 1.315 . S
Cd1219 O1218 2.223 . S
Cd1219 O1222 2.297 . S
Cd1219 O1223 2.439 . S
Cd1219 O1229 2.240 . S
Cd1220 O1221 2.240 . S
Cd1220 O1228 2.223 . S
Cd1220 O1230 2.297 . S
Cd1220 O1231 2.439 . S
O1221 Cd1220 2.240 . S
O1221 C1226 1.279 . S
O1222 Cd1219 2.297 . S
O1222 C1224 1.247 . S
O1223 Cd1219 2.439 . S
O1223 C1224 1.208 . S
C1224 O1222 1.247 . S
C1224 O1223 1.208 . S
C1225 O1230 1.247 . S
C1225 O1231 1.208 . S
C1226 O1218 1.315 . S
C1226 O1221 1.279 . S
C1227 O1228 1.315 . S
C1227 O1229 1.279 . S
O1228 Cd1220 2.223 . S
O1228 C1227 1.315 . S
O1229 Cd1219 2.240 . S
O1229 C1227 1.279 . S
O1230 Cd1220 2.297 . S
O1230 C1225 1.247 . S
O1231 Cd1220 2.439 . S
O1231 C1225 1.208 . S
O1232 Cd1233 2.223 . S
O1232 C1240 1.315 . S
Cd1233 O1232 2.223 . S
Cd1233 O1236 2.297 . S
Cd1233 O1237 2.439 . S
Cd1233 O1243 2.240 . S
Cd1234 O1235 2.240 . S
Cd1234 O1242 2.223 . S
Cd1234 O1244 2.297 . S
Cd1234 O1245 2.439 . S
O1235 Cd1234 2.240 . S
O1235 C1240 1.279 . S
O1236 Cd1233 2.297 . S
O1236 C1238 1.247 . S
O1237 Cd1233 2.439 . S
O1237 C1238 1.208 . S
C1238 O1236 1.247 . S
C1238 O1237 1.208 . S
C1239 O1244 1.247 . S
C1239 O1245 1.208 . S
C1240 O1232 1.315 . S
C1240 O1235 1.279 . S
C1241 O1242 1.315 . S
C1241 O1243 1.279 . S
O1242 Cd1234 2.223 . S
O1242 C1241 1.315 . S
O1243 Cd1233 2.240 . S
O1243 C1241 1.279 . S
O1244 Cd1234 2.297 . S
O1244 C1239 1.247 . S
O1245 Cd1234 2.439 . S
O1245 C1239 1.208 . S
O1246 Cd1247 2.223 . S
O1246 C1254 1.315 . S
Cd1247 O1246 2.223 . S
Cd1247 O1250 2.297 . S
Cd1247 O1251 2.439 . S
Cd1247 O1257 2.240 . S
Cd1248 O1249 2.240 . S
Cd1248 O1256 2.223 . S
Cd1248 O1258 2.297 . S
Cd1248 O1259 2.439 . S
O1249 Cd1248 2.240 . S
O1249 C1254 1.279 . S
O1250 Cd1247 2.297 . S
O1250 C1252 1.247 . S
O1251 Cd1247 2.439 . S
O1251 C1252 1.208 . S
C1252 O1250 1.247 . S
C1252 O1251 1.208 . S
C1253 O1258 1.247 . S
C1253 O1259 1.208 . S
C1254 O1246 1.315 . S
C1254 O1249 1.279 . S
C1255 O1256 1.315 . S
C1255 O1257 1.279 . S
O1256 Cd1248 2.223 . S
O1256 C1255 1.315 . S
O1257 Cd1247 2.240 . S
O1257 C1255 1.279 . S
O1258 Cd1248 2.297 . S
O1258 C1253 1.247 . S
O1259 Cd1248 2.439 . S
O1259 C1253 1.208 . S
O1260 Cd1261 2.223 . S
O1260 C1268 1.315 . S
Cd1261 O1260 2.223 . S
Cd1261 O1264 2.297 . S
Cd1261 O1265 2.439 . S
Cd1261 O1271 2.240 . S
Cd1262 O1263 2.240 . S
Cd1262 O1270 2.223 . S
Cd1262 O1272 2.297 . S
Cd1262 O1273 2.439 . S
O1263 Cd1262 2.240 . S
O1263 C1268 1.279 . S
O1264 Cd1261 2.297 . S
O1264 C1266 1.247 . S
O1265 Cd1261 2.439 . S
O1265 C1266 1.208 . S
C1266 O1264 1.247 . S
C1266 O1265 1.208 . S
C1267 O1272 1.247 . S
C1267 O1273 1.208 . S
C1268 O1260 1.315 . S
C1268 O1263 1.279 . S
C1269 O1270 1.315 . S
C1269 O1271 1.279 . S
O1270 Cd1262 2.223 . S
O1270 C1269 1.315 . S
O1271 Cd1261 2.240 . S
O1271 C1269 1.279 . S
O1272 Cd1262 2.297 . S
O1272 C1267 1.247 . S
O1273 Cd1262 2.439 . S
O1273 C1267 1.208 . S
O1274 Cd1275 2.223 . S
O1274 C1282 1.315 . S
Cd1275 O1274 2.223 . S
Cd1275 O1278 2.297 . S
Cd1275 O1279 2.439 . S
Cd1275 O1285 2.240 1_554 S
Cd1276 O1277 2.240 . S
Cd1276 O1284 2.223 1_554 S
Cd1276 O1286 2.297 1_554 S
Cd1276 O1287 2.439 1_554 S
O1277 Cd1276 2.240 . S
O1277 C1282 1.279 . S
O1278 Cd1275 2.297 . S
O1278 C1280 1.247 . S
O1279 Cd1275 2.439 . S
O1279 C1280 1.208 . S
C1280 O1278 1.247 . S
C1280 O1279 1.208 . S
C1281 O1286 1.247 . S
C1281 O1287 1.208 . S
C1282 O1274 1.315 . S
C1282 O1277 1.279 . S
C1283 O1284 1.315 . S
C1283 O1285 1.279 . S
O1284 Cd1276 2.223 1_556 S
O1284 C1283 1.315 . S
O1285 Cd1275 2.240 1_556 S
O1285 C1283 1.279 . S
O1286 Cd1276 2.297 1_556 S
O1286 C1281 1.247 . S
O1287 Cd1276 2.439 1_556 S
O1287 C1281 1.208 . S
O1288 Cd1289 2.223 . S
O1288 C1296 1.315 . S
Cd1289 O1288 2.223 . S
Cd1289 O1292 2.297 . S
Cd1289 O1293 2.439 . S
Cd1289 O1299 2.240 . S
Cd1290 O1291 2.240 . S
Cd1290 O1298 2.223 . S
Cd1290 O1300 2.297 . S
Cd1290 O1301 2.439 . S
O1291 Cd1290 2.240 . S
O1291 C1296 1.279 . S
O1292 Cd1289 2.297 . S
O1292 C1294 1.247 . S
O1293 Cd1289 2.439 . S
O1293 C1294 1.208 . S
C1294 O1292 1.247 . S
C1294 O1293 1.208 . S
C1295 O1300 1.247 . S
C1295 O1301 1.208 . S
C1296 O1288 1.315 . S
C1296 O1291 1.279 . S
C1297 O1298 1.315 . S
C1297 O1299 1.279 . S
O1298 Cd1290 2.223 . S
O1298 C1297 1.315 . S
O1299 Cd1289 2.240 . S
O1299 C1297 1.279 . S
O1300 Cd1290 2.297 . S
O1300 C1295 1.247 . S
O1301 Cd1290 2.439 . S
O1301 C1295 1.208 . S
O1302 Cd1303 2.223 . S
O1302 C1310 1.315 . S
Cd1303 O1302 2.223 . S
Cd1303 O1306 2.297 . S
Cd1303 O1307 2.439 . S
Cd1303 O1313 2.240 1_556 S
Cd1304 O1305 2.240 . S
Cd1304 O1312 2.223 1_556 S
Cd1304 O1314 2.297 1_556 S
Cd1304 O1315 2.439 1_556 S
O1305 Cd1304 2.240 . S
O1305 C1310 1.279 . S
O1306 Cd1303 2.297 . S
O1306 C1308 1.247 . S
O1307 Cd1303 2.439 . S
O1307 C1308 1.208 . S
C1308 O1306 1.247 . S
C1308 O1307 1.208 . S
C1309 O1314 1.247 . S
C1309 O1315 1.208 . S
C1310 O1302 1.315 . S
C1310 O1305 1.279 . S
C1311 O1312 1.315 . S
C1311 O1313 1.279 . S
O1312 Cd1304 2.223 1_554 S
O1312 C1311 1.315 . S
O1313 Cd1303 2.240 1_554 S
O1313 C1311 1.279 . S
O1314 Cd1304 2.297 1_554 S
O1314 C1309 1.247 . S
O1315 Cd1304 2.439 1_554 S
O1315 C1309 1.208 . S
O1316 Cd1317 2.223 . S
O1316 C1324 1.315 . S
Cd1317 O1316 2.223 . S
Cd1317 O1320 2.297 . S
Cd1317 O1321 2.439 . S
Cd1317 O1327 2.240 . S
Cd1318 O1319 2.240 . S
Cd1318 O1326 2.223 . S
Cd1318 O1328 2.297 . S
Cd1318 O1329 2.439 . S
O1319 Cd1318 2.240 . S
O1319 C1324 1.279 . S
O1320 Cd1317 2.297 . S
O1320 C1322 1.247 . S
O1321 Cd1317 2.439 . S
O1321 C1322 1.208 . S
C1322 O1320 1.247 . S
C1322 O1321 1.208 . S
C1323 O1328 1.247 . S
C1323 O1329 1.208 . S
C1324 O1316 1.315 . S
C1324 O1319 1.279 . S
C1325 O1326 1.315 . S
C1325 O1327 1.279 . S
O1326 Cd1318 2.223 . S
O1326 C1325 1.315 . S
O1327 Cd1317 2.240 . S
O1327 C1325 1.279 . S
O1328 Cd1318 2.297 . S
O1328 C1323 1.247 . S
O1329 Cd1318 2.439 . S
O1329 C1323 1.208 . S
O1330 Cd1331 2.223 . S
O1330 C1338 1.315 . S
Cd1331 O1330 2.223 . S
Cd1331 O1334 2.297 . S
Cd1331 O1335 2.439 . S
Cd1331 O1341 2.240 . S
Cd1332 O1333 2.240 . S
Cd1332 O1340 2.223 . S
Cd1332 O1342 2.297 . S
Cd1332 O1343 2.439 . S
O1333 Cd1332 2.240 . S
O1333 C1338 1.279 . S
O1334 Cd1331 2.297 . S
O1334 C1336 1.247 . S
O1335 Cd1331 2.439 . S
O1335 C1336 1.208 . S
C1336 O1334 1.247 . S
C1336 O1335 1.208 . S
C1337 O1342 1.247 . S
C1337 O1343 1.208 . S
C1338 O1330 1.315 . S
C1338 O1333 1.279 . S
C1339 O1340 1.315 . S
C1339 O1341 1.279 . S
O1340 Cd1332 2.223 . S
O1340 C1339 1.315 . S
O1341 Cd1331 2.240 . S
O1341 C1339 1.279 . S
O1342 Cd1332 2.297 . S
O1342 C1337 1.247 . S
O1343 Cd1332 2.439 . S
O1343 C1337 1.208 . S
H1344 C1352 0.950 . S
H1345 C1357 0.950 . S
H1346 C1354 0.950 . S
H1347 C1356 0.950 . S
H1348 C1358 0.950 . S
H1349 C1360 0.950 . S
H1350 C1362 0.950 . S
H1351 C1363 0.950 . S
C1352 H1344 0.950 . S
C1352 C1353 1.386 . S
C1352 C1354 1.391 . S
C1353 C1352 1.386 . S
C1353 C1357 1.393 . S
C1354 H1346 0.950 . S
C1354 C1352 1.391 . S
C1354 C1355 1.400 . S
C1355 C1354 1.400 . S
C1355 C1356 1.398 . S
C1355 C1361 1.491 . S
C1356 H1347 0.950 . S
C1356 C1355 1.398 . S
C1356 C1357 1.391 . S
C1357 H1345 0.950 . S
C1357 C1353 1.393 . S
C1357 C1356 1.391 . S
C1358 H1348 0.950 . S
C1358 C1359 1.386 . S
C1358 C1360 1.391 . S
C1359 C1358 1.386 . S
C1359 C1363 1.393 . S
C1360 H1349 0.950 . S
C1360 C1358 1.391 . S
C1360 C1361 1.400 . S
C1361 C1355 1.491 . S
C1361 C1360 1.400 . S
C1361 C1362 1.398 . S
C1362 H1350 0.950 . S
C1362 C1361 1.398 . S
C1362 C1363 1.391 . S
C1363 H1351 0.950 . S
C1363 C1359 1.393 . S
C1363 C1362 1.391 . S
H1364 C1372 0.950 . S
H1365 C1377 0.950 . S
H1366 C1374 0.950 . S
H1367 C1376 0.950 . S
H1368 C1378 0.950 . S
H1369 C1380 0.950 . S
H1370 C1382 0.950 . S
H1371 C1383 0.950 . S
C1372 H1364 0.950 . S
C1372 C1373 1.386 . S
C1372 C1374 1.391 . S
C1373 C1372 1.386 . S
C1373 C1377 1.393 . S
C1374 H1366 0.950 . S
C1374 C1372 1.391 . S
C1374 C1375 1.400 . S
C1375 C1374 1.400 . S
C1375 C1376 1.398 . S
C1375 C1381 1.491 . S
C1376 H1367 0.950 . S
C1376 C1375 1.398 . S
C1376 C1377 1.391 . S
C1377 H1365 0.950 . S
C1377 C1373 1.393 . S
C1377 C1376 1.391 . S
C1378 H1368 0.950 . S
C1378 C1379 1.386 . S
C1378 C1380 1.391 . S
C1379 C1378 1.386 . S
C1379 C1383 1.393 . S
C1380 H1369 0.950 . S
C1380 C1378 1.391 . S
C1380 C1381 1.400 . S
C1381 C1375 1.491 . S
C1381 C1380 1.400 . S
C1381 C1382 1.398 . S
C1382 H1370 0.950 . S
C1382 C1381 1.398 . S
C1382 C1383 1.391 . S
C1383 H1371 0.950 . S
C1383 C1379 1.393 . S
C1383 C1382 1.391 . S
H1384 C1392 0.950 . S
H1385 C1397 0.950 . S
H1386 C1394 0.950 . S
H1387 C1396 0.950 . S
H1388 C1398 0.950 . S
H1389 C1400 0.950 . S
H1390 C1402 0.950 . S
H1391 C1403 0.950 . S
C1392 H1384 0.950 . S
C1392 C1393 1.386 . S
C1392 C1394 1.391 . S
C1393 C1392 1.386 . S
C1393 C1397 1.393 . S
C1394 H1386 0.950 . S
C1394 C1392 1.391 . S
C1394 C1395 1.400 . S
C1395 C1394 1.400 . S
C1395 C1396 1.398 . S
C1395 C1401 1.491 . S
C1396 H1387 0.950 . S
C1396 C1395 1.398 . S
C1396 C1397 1.391 . S
C1397 H1385 0.950 . S
C1397 C1393 1.393 . S
C1397 C1396 1.391 . S
C1398 H1388 0.950 . S
C1398 C1399 1.386 . S
C1398 C1400 1.391 . S
C1399 C1398 1.386 . S
C1399 C1403 1.393 . S
C1400 H1389 0.950 . S
C1400 C1398 1.391 . S
C1400 C1401 1.400 . S
C1401 C1395 1.491 . S
C1401 C1400 1.400 . S
C1401 C1402 1.398 . S
C1402 H1390 0.950 . S
C1402 C1401 1.398 . S
C1402 C1403 1.391 . S
C1403 H1391 0.950 . S
C1403 C1399 1.393 . S
C1403 C1402 1.391 . S
H1404 C1412 0.950 . S
H1405 C1417 0.950 . S
H1406 C1414 0.950 . S
H1407 C1416 0.950 . S
H1408 C1418 0.950 . S
H1409 C1420 0.950 . S
H1410 C1422 0.950 . S
H1411 C1423 0.950 . S
C1412 H1404 0.950 . S
C1412 C1413 1.386 . S
C1412 C1414 1.391 . S
C1413 C1412 1.386 . S
C1413 C1417 1.393 . S
C1414 H1406 0.950 . S
C1414 C1412 1.391 . S
C1414 C1415 1.400 . S
C1415 C1414 1.400 . S
C1415 C1416 1.398 . S
C1415 C1421 1.491 . S
C1416 H1407 0.950 . S
C1416 C1415 1.398 . S
C1416 C1417 1.391 . S
C1417 H1405 0.950 . S
C1417 C1413 1.393 . S
C1417 C1416 1.391 . S
C1418 H1408 0.950 . S
C1418 C1419 1.386 . S
C1418 C1420 1.391 . S
C1419 C1418 1.386 . S
C1419 C1423 1.393 . S
C1420 H1409 0.950 . S
C1420 C1418 1.391 . S
C1420 C1421 1.400 . S
C1421 C1415 1.491 . S
C1421 C1420 1.400 . S
C1421 C1422 1.398 . S
C1422 H1410 0.950 . S
C1422 C1421 1.398 . S
C1422 C1423 1.391 . S
C1423 H1411 0.950 . S
C1423 C1419 1.393 . S
C1423 C1422 1.391 . S
H1424 C1432 0.950 . S
H1425 C1437 0.950 . S
H1426 C1434 0.950 . S
H1427 C1436 0.950 . S
H1428 C1438 0.950 . S
H1429 C1440 0.950 . S
H1430 C1442 0.950 . S
H1431 C1443 0.950 . S
C1432 H1424 0.950 . S
C1432 C1433 1.386 . S
C1432 C1434 1.391 . S
C1433 C1432 1.386 . S
C1433 C1437 1.393 . S
C1434 H1426 0.950 . S
C1434 C1432 1.391 . S
C1434 C1435 1.400 . S
C1435 C1434 1.400 . S
C1435 C1436 1.398 . S
C1435 C1441 1.491 . S
C1436 H1427 0.950 . S
C1436 C1435 1.398 . S
C1436 C1437 1.391 . S
C1437 H1425 0.950 . S
C1437 C1433 1.393 . S
C1437 C1436 1.391 . S
C1438 H1428 0.950 . S
C1438 C1439 1.386 . S
C1438 C1440 1.391 . S
C1439 C1438 1.386 . S
C1439 C1443 1.393 . S
C1440 H1429 0.950 . S
C1440 C1438 1.391 . S
C1440 C1441 1.400 . S
C1441 C1435 1.491 . S
C1441 C1440 1.400 . S
C1441 C1442 1.398 . S
C1442 H1430 0.950 . S
C1442 C1441 1.398 . S
C1442 C1443 1.391 . S
C1443 H1431 0.950 . S
C1443 C1439 1.393 . S
C1443 C1442 1.391 . S
H1444 C1452 0.950 . S
H1445 C1457 0.950 . S
H1446 C1454 0.950 . S
H1447 C1456 0.950 . S
H1448 C1458 0.950 . S
H1449 C1460 0.950 . S
H1450 C1462 0.950 . S
H1451 C1463 0.950 . S
C1452 H1444 0.950 . S
C1452 C1453 1.386 . S
C1452 C1454 1.391 . S
C1453 C1452 1.386 . S
C1453 C1457 1.393 . S
C1454 H1446 0.950 . S
C1454 C1452 1.391 . S
C1454 C1455 1.400 . S
C1455 C1454 1.400 . S
C1455 C1456 1.398 . S
C1455 C1461 1.491 . S
C1456 H1447 0.950 . S
C1456 C1455 1.398 . S
C1456 C1457 1.391 . S
C1457 H1445 0.950 . S
C1457 C1453 1.393 . S
C1457 C1456 1.391 . S
C1458 H1448 0.950 . S
C1458 C1459 1.386 . S
C1458 C1460 1.391 . S
C1459 C1458 1.386 . S
C1459 C1463 1.393 . S
C1460 H1449 0.950 . S
C1460 C1458 1.391 . S
C1460 C1461 1.400 . S
C1461 C1455 1.491 . S
C1461 C1460 1.400 . S
C1461 C1462 1.398 . S
C1462 H1450 0.950 . S
C1462 C1461 1.398 . S
C1462 C1463 1.391 . S
C1463 H1451 0.950 . S
C1463 C1459 1.393 . S
C1463 C1462 1.391 . S
H1464 C1472 0.950 . S
H1465 C1477 0.950 . S
H1466 C1474 0.950 . S
H1467 C1476 0.950 . S
H1468 C1478 0.950 . S
H1469 C1480 0.950 . S
H1470 C1482 0.950 . S
H1471 C1483 0.950 . S
C1472 H1464 0.950 . S
C1472 C1473 1.386 . S
C1472 C1474 1.391 . S
C1473 C1472 1.386 . S
C1473 C1477 1.393 . S
C1474 H1466 0.950 . S
C1474 C1472 1.391 . S
C1474 C1475 1.400 . S
C1475 C1474 1.400 . S
C1475 C1476 1.398 . S
C1475 C1481 1.491 . S
C1476 H1467 0.950 . S
C1476 C1475 1.398 . S
C1476 C1477 1.391 . S
C1477 H1465 0.950 . S
C1477 C1473 1.393 . S
C1477 C1476 1.391 . S
C1478 H1468 0.950 . S
C1478 C1479 1.386 . S
C1478 C1480 1.391 . S
C1479 C1478 1.386 . S
C1479 C1483 1.393 . S
C1480 H1469 0.950 . S
C1480 C1478 1.391 . S
C1480 C1481 1.400 . S
C1481 C1475 1.491 . S
C1481 C1480 1.400 . S
C1481 C1482 1.398 . S
C1482 H1470 0.950 . S
C1482 C1481 1.398 . S
C1482 C1483 1.391 . S
C1483 H1471 0.950 . S
C1483 C1479 1.393 . S
C1483 C1482 1.391 . S
H1484 C1492 0.950 . S
H1485 C1497 0.950 . S
H1486 C1494 0.950 . S
H1487 C1496 0.950 . S
H1488 C1498 0.950 . S
H1489 C1500 0.950 . S
H1490 C1502 0.950 . S
H1491 C1503 0.950 . S
C1492 H1484 0.950 . S
C1492 C1493 1.386 . S
C1492 C1494 1.391 . S
C1493 C1492 1.386 . S
C1493 C1497 1.393 . S
C1494 H1486 0.950 . S
C1494 C1492 1.391 . S
C1494 C1495 1.400 . S
C1495 C1494 1.400 . S
C1495 C1496 1.398 . S
C1495 C1501 1.491 . S
C1496 H1487 0.950 . S
C1496 C1495 1.398 . S
C1496 C1497 1.391 . S
C1497 H1485 0.950 . S
C1497 C1493 1.393 . S
C1497 C1496 1.391 . S
C1498 H1488 0.950 . S
C1498 C1499 1.386 . S
C1498 C1500 1.391 . S
C1499 C1498 1.386 . S
C1499 C1503 1.393 . S
C1500 H1489 0.950 . S
C1500 C1498 1.391 . S
C1500 C1501 1.400 . S
C1501 C1495 1.491 . S
C1501 C1500 1.400 . S
C1501 C1502 1.398 . S
C1502 H1490 0.950 . S
C1502 C1501 1.398 . S
C1502 C1503 1.391 . S
C1503 H1491 0.950 . S
C1503 C1499 1.393 . S
C1503 C1502 1.391 . S
H1504 C1512 0.950 . S
H1505 C1517 0.950 . S
H1506 C1514 0.950 . S
H1507 C1516 0.950 . S
H1508 C1518 0.950 . S
H1509 C1520 0.950 . S
H1510 C1522 0.950 . S
H1511 C1523 0.950 . S
C1512 H1504 0.950 . S
C1512 C1513 1.386 . S
C1512 C1514 1.391 . S
C1513 C1512 1.386 . S
C1513 C1517 1.393 . S
C1514 H1506 0.950 . S
C1514 C1512 1.391 . S
C1514 C1515 1.400 . S
C1515 C1514 1.400 . S
C1515 C1516 1.398 . S
C1515 C1521 1.491 . S
C1516 H1507 0.950 . S
C1516 C1515 1.398 . S
C1516 C1517 1.391 . S
C1517 H1505 0.950 . S
C1517 C1513 1.393 . S
C1517 C1516 1.391 . S
C1518 H1508 0.950 . S
C1518 C1519 1.386 . S
C1518 C1520 1.391 . S
C1519 C1518 1.386 . S
C1519 C1523 1.393 . S
C1520 H1509 0.950 . S
C1520 C1518 1.391 . S
C1520 C1521 1.400 . S
C1521 C1515 1.491 . S
C1521 C1520 1.400 . S
C1521 C1522 1.398 . S
C1522 H1510 0.950 . S
C1522 C1521 1.398 . S
C1522 C1523 1.391 . S
C1523 H1511 0.950 . S
C1523 C1519 1.393 . S
C1523 C1522 1.391 . S
H1524 C1532 0.950 . S
H1525 C1537 0.950 . S
H1526 C1534 0.950 . S
H1527 C1536 0.950 . S
H1528 C1538 0.950 . S
H1529 C1540 0.950 . S
H1530 C1542 0.950 . S
H1531 C1543 0.950 . S
C1532 H1524 0.950 . S
C1532 C1533 1.386 . S
C1532 C1534 1.391 . S
C1533 C1532 1.386 . S
C1533 C1537 1.393 . S
C1534 H1526 0.950 . S
C1534 C1532 1.391 . S
C1534 C1535 1.400 . S
C1535 C1534 1.400 . S
C1535 C1536 1.398 . S
C1535 C1541 1.491 . S
C1536 H1527 0.950 . S
C1536 C1535 1.398 . S
C1536 C1537 1.391 . S
C1537 H1525 0.950 . S
C1537 C1533 1.393 . S
C1537 C1536 1.391 . S
C1538 H1528 0.950 . S
C1538 C1539 1.386 . S
C1538 C1540 1.391 . S
C1539 C1538 1.386 . S
C1539 C1543 1.393 . S
C1540 H1529 0.950 . S
C1540 C1538 1.391 . S
C1540 C1541 1.400 . S
C1541 C1535 1.491 . S
C1541 C1540 1.400 . S
C1541 C1542 1.398 . S
C1542 H1530 0.950 . S
C1542 C1541 1.398 . S
C1542 C1543 1.391 . S
C1543 H1531 0.950 . S
C1543 C1539 1.393 . S
C1543 C1542 1.391 . S
H1544 C1552 0.950 . S
H1545 C1557 0.950 . S
H1546 C1554 0.950 . S
H1547 C1556 0.950 . S
H1548 C1558 0.950 . S
H1549 C1560 0.950 . S
H1550 C1562 0.950 . S
H1551 C1563 0.950 . S
C1552 H1544 0.950 . S
C1552 C1553 1.386 . S
C1552 C1554 1.391 . S
C1553 C1552 1.386 . S
C1553 C1557 1.393 . S
C1554 H1546 0.950 . S
C1554 C1552 1.391 . S
C1554 C1555 1.400 . S
C1555 C1554 1.400 . S
C1555 C1556 1.398 . S
C1555 C1561 1.491 . S
C1556 H1547 0.950 . S
C1556 C1555 1.398 . S
C1556 C1557 1.391 . S
C1557 H1545 0.950 . S
C1557 C1553 1.393 . S
C1557 C1556 1.391 . S
C1558 H1548 0.950 . S
C1558 C1559 1.386 . S
C1558 C1560 1.391 . S
C1559 C1558 1.386 . S
C1559 C1563 1.393 . S
C1560 H1549 0.950 . S
C1560 C1558 1.391 . S
C1560 C1561 1.400 . S
C1561 C1555 1.491 . S
C1561 C1560 1.400 . S
C1561 C1562 1.398 . S
C1562 H1550 0.950 . S
C1562 C1561 1.398 . S
C1562 C1563 1.391 . S
C1563 H1551 0.950 . S
C1563 C1559 1.393 . S
C1563 C1562 1.391 . S
H1564 C1572 0.950 . S
H1565 C1577 0.950 . S
H1566 C1574 0.950 . S
H1567 C1576 0.950 . S
H1568 C1578 0.950 . S
H1569 C1580 0.950 . S
H1570 C1582 0.950 . S
H1571 C1583 0.950 . S
C1572 H1564 0.950 . S
C1572 C1573 1.386 . S
C1572 C1574 1.391 . S
C1573 C1572 1.386 . S
C1573 C1577 1.393 . S
C1574 H1566 0.950 . S
C1574 C1572 1.391 . S
C1574 C1575 1.400 . S
C1575 C1574 1.400 . S
C1575 C1576 1.398 . S
C1575 C1581 1.491 . S
C1576 H1567 0.950 . S
C1576 C1575 1.398 . S
C1576 C1577 1.391 . S
C1577 H1565 0.950 . S
C1577 C1573 1.393 . S
C1577 C1576 1.391 . S
C1578 H1568 0.950 . S
C1578 C1579 1.386 . S
C1578 C1580 1.391 . S
C1579 C1578 1.386 . S
C1579 C1583 1.393 . S
C1580 H1569 0.950 . S
C1580 C1578 1.391 . S
C1580 C1581 1.400 . S
C1581 C1575 1.491 . S
C1581 C1580 1.400 . S
C1581 C1582 1.398 . S
C1582 H1570 0.950 . S
C1582 C1581 1.398 . S
C1582 C1583 1.391 . S
C1583 H1571 0.950 . S
C1583 C1579 1.393 . S
C1583 C1582 1.391 . S
H1584 C1592 0.950 . S
H1585 C1597 0.950 . S
H1586 C1594 0.950 . S
H1587 C1596 0.950 . S
H1588 C1598 0.950 . S
H1589 C1600 0.950 . S
H1590 C1602 0.950 . S
H1591 C1603 0.950 . S
C1592 H1584 0.950 . S
C1592 C1593 1.386 . S
C1592 C1594 1.391 . S
C1593 C1592 1.386 . S
C1593 C1597 1.393 . S
C1594 H1586 0.950 . S
C1594 C1592 1.391 . S
C1594 C1595 1.400 . S
C1595 C1594 1.400 . S
C1595 C1596 1.398 . S
C1595 C1601 1.491 . S
C1596 H1587 0.950 . S
C1596 C1595 1.398 . S
C1596 C1597 1.391 . S
C1597 H1585 0.950 . S
C1597 C1593 1.393 . S
C1597 C1596 1.391 . S
C1598 H1588 0.950 . S
C1598 C1599 1.386 . S
C1598 C1600 1.391 . S
C1599 C1598 1.386 . S
C1599 C1603 1.393 . S
C1600 H1589 0.950 . S
C1600 C1598 1.391 . S
C1600 C1601 1.400 . S
C1601 C1595 1.491 . S
C1601 C1600 1.400 . S
C1601 C1602 1.398 . S
C1602 H1590 0.950 . S
C1602 C1601 1.398 . S
C1602 C1603 1.391 . S
C1603 H1591 0.950 . S
C1603 C1599 1.393 . S
C1603 C1602 1.391 . S
H1604 C1612 0.950 . S
H1605 C1617 0.950 . S
H1606 C1614 0.950 . S
H1607 C1616 0.950 . S
H1608 C1618 0.950 . S
H1609 C1620 0.950 . S
H1610 C1622 0.950 . S
H1611 C1623 0.950 . S
C1612 H1604 0.950 . S
C1612 C1613 1.386 . S
C1612 C1614 1.391 . S
C1613 C1612 1.386 . S
C1613 C1617 1.393 . S
C1614 H1606 0.950 . S
C1614 C1612 1.391 . S
C1614 C1615 1.400 . S
C1615 C1614 1.400 . S
C1615 C1616 1.398 . S
C1615 C1621 1.491 . S
C1616 H1607 0.950 . S
C1616 C1615 1.398 . S
C1616 C1617 1.391 . S
C1617 H1605 0.950 . S
C1617 C1613 1.393 . S
C1617 C1616 1.391 . S
C1618 H1608 0.950 . S
C1618 C1619 1.386 . S
C1618 C1620 1.391 . S
C1619 C1618 1.386 . S
C1619 C1623 1.393 . S
C1620 H1609 0.950 . S
C1620 C1618 1.391 . S
C1620 C1621 1.400 . S
C1621 C1615 1.491 . S
C1621 C1620 1.400 . S
C1621 C1622 1.398 . S
C1622 H1610 0.950 . S
C1622 C1621 1.398 . S
C1622 C1623 1.391 . S
C1623 H1611 0.950 . S
C1623 C1619 1.393 . S
C1623 C1622 1.391 . S
H1624 C1632 0.950 . S
H1625 C1637 0.950 . S
H1626 C1634 0.950 . S
H1627 C1636 0.950 . S
H1628 C1638 0.950 . S
H1629 C1640 0.950 . S
H1630 C1642 0.950 . S
H1631 C1643 0.950 . S
C1632 H1624 0.950 . S
C1632 C1633 1.386 . S
C1632 C1634 1.391 . S
C1633 C1632 1.386 . S
C1633 C1637 1.393 . S
C1634 H1626 0.950 . S
C1634 C1632 1.391 . S
C1634 C1635 1.400 . S
C1635 C1634 1.400 . S
C1635 C1636 1.398 . S
C1635 C1641 1.491 . S
C1636 H1627 0.950 . S
C1636 C1635 1.398 . S
C1636 C1637 1.391 . S
C1637 H1625 0.950 . S
C1637 C1633 1.393 . S
C1637 C1636 1.391 . S
C1638 H1628 0.950 . S
C1638 C1639 1.386 . S
C1638 C1640 1.391 . S
C1639 C1638 1.386 . S
C1639 C1643 1.393 . S
C1640 H1629 0.950 . S
C1640 C1638 1.391 . S
C1640 C1641 1.400 . S
C1641 C1635 1.491 . S
C1641 C1640 1.400 . S
C1641 C1642 1.398 . S
C1642 H1630 0.950 . S
C1642 C1641 1.398 . S
C1642 C1643 1.391 . S
C1643 H1631 0.950 . S
C1643 C1639 1.393 . S
C1643 C1642 1.391 . S
H1644 C1652 0.950 . S
H1645 C1657 0.950 . S
H1646 C1654 0.950 . S
H1647 C1656 0.950 . S
H1648 C1658 0.950 . S
H1649 C1660 0.950 . S
H1650 C1662 0.950 . S
H1651 C1663 0.950 . S
C1652 H1644 0.950 . S
C1652 C1653 1.386 . S
C1652 C1654 1.391 . S
C1653 C1652 1.386 . S
C1653 C1657 1.393 . S
C1654 H1646 0.950 . S
C1654 C1652 1.391 . S
C1654 C1655 1.400 . S
C1655 C1654 1.400 . S
C1655 C1656 1.398 . S
C1655 C1661 1.491 . S
C1656 H1647 0.950 . S
C1656 C1655 1.398 . S
C1656 C1657 1.391 . S
C1657 H1645 0.950 . S
C1657 C1653 1.393 . S
C1657 C1656 1.391 . S
C1658 H1648 0.950 . S
C1658 C1659 1.386 . S
C1658 C1660 1.391 . S
C1659 C1658 1.386 . S
C1659 C1663 1.393 . S
C1660 H1649 0.950 . S
C1660 C1658 1.391 . S
C1660 C1661 1.400 . S
C1661 C1655 1.491 . S
C1661 C1660 1.400 . S
C1661 C1662 1.398 . S
C1662 H1650 0.950 . S
C1662 C1661 1.398 . S
C1662 C1663 1.391 . S
C1663 H1651 0.950 . S
C1663 C1659 1.393 . S
C1663 C1662 1.391 . S
H1664 C1672 0.950 . S
H1665 C1677 0.950 . S
H1666 C1674 0.950 . S
H1667 C1676 0.950 . S
H1668 C1678 0.950 . S
H1669 C1680 0.950 . S
H1670 C1682 0.950 . S
H1671 C1683 0.950 . S
C1672 H1664 0.950 . S
C1672 C1673 1.386 . S
C1672 C1674 1.391 . S
C1673 C1672 1.386 . S
C1673 C1677 1.393 . S
C1674 H1666 0.950 . S
C1674 C1672 1.391 . S
C1674 C1675 1.400 . S
C1675 C1674 1.400 . S
C1675 C1676 1.398 . S
C1675 C1681 1.491 . S
C1676 H1667 0.950 . S
C1676 C1675 1.398 . S
C1676 C1677 1.391 . S
C1677 H1665 0.950 . S
C1677 C1673 1.393 . S
C1677 C1676 1.391 . S
C1678 H1668 0.950 . S
C1678 C1679 1.386 . S
C1678 C1680 1.391 . S
C1679 C1678 1.386 . S
C1679 C1683 1.393 . S
C1680 H1669 0.950 . S
C1680 C1678 1.391 . S
C1680 C1681 1.400 . S
C1681 C1675 1.491 . S
C1681 C1680 1.400 . S
C1681 C1682 1.398 . S
C1682 H1670 0.950 . S
C1682 C1681 1.398 . S
C1682 C1683 1.391 . S
C1683 H1671 0.950 . S
C1683 C1679 1.393 . S
C1683 C1682 1.391 . S
H1684 C1692 0.950 . S
H1685 C1697 0.950 . S
H1686 C1694 0.950 . S
H1687 C1696 0.950 . S
H1688 C1698 0.950 . S
H1689 C1700 0.950 . S
H1690 C1702 0.950 . S
H1691 C1703 0.950 . S
C1692 H1684 0.950 . S
C1692 C1693 1.386 . S
C1692 C1694 1.391 . S
C1693 C1692 1.386 . S
C1693 C1697 1.393 . S
C1694 H1686 0.950 . S
C1694 C1692 1.391 . S
C1694 C1695 1.400 . S
C1695 C1694 1.400 . S
C1695 C1696 1.398 . S
C1695 C1701 1.491 . S
C1696 H1687 0.950 . S
C1696 C1695 1.398 . S
C1696 C1697 1.391 . S
C1697 H1685 0.950 . S
C1697 C1693 1.393 . S
C1697 C1696 1.391 . S
C1698 H1688 0.950 . S
C1698 C1699 1.386 . S
C1698 C1700 1.391 . S
C1699 C1698 1.386 . S
C1699 C1703 1.393 . S
C1700 H1689 0.950 . S
C1700 C1698 1.391 . S
C1700 C1701 1.400 . S
C1701 C1695 1.491 . S
C1701 C1700 1.400 . S
C1701 C1702 1.398 . S
C1702 H1690 0.950 . S
C1702 C1701 1.398 . S
C1702 C1703 1.391 . S
C1703 H1691 0.950 . S
C1703 C1699 1.393 . S
C1703 C1702 1.391 . S
H1704 C1712 0.950 . S
H1705 C1717 0.950 . S
H1706 C1714 0.950 . S
H1707 C1716 0.950 . S
H1708 C1718 0.950 . S
H1709 C1720 0.950 . S
H1710 C1722 0.950 . S
H1711 C1723 0.950 . S
C1712 H1704 0.950 . S
C1712 C1713 1.386 . S
C1712 C1714 1.391 . S
C1713 C1712 1.386 . S
C1713 C1717 1.393 . S
C1714 H1706 0.950 . S
C1714 C1712 1.391 . S
C1714 C1715 1.400 . S
C1715 C1714 1.400 . S
C1715 C1716 1.398 . S
C1715 C1721 1.491 . S
C1716 H1707 0.950 . S
C1716 C1715 1.398 . S
C1716 C1717 1.391 . S
C1717 H1705 0.950 . S
C1717 C1713 1.393 . S
C1717 C1716 1.391 . S
C1718 H1708 0.950 . S
C1718 C1719 1.386 . S
C1718 C1720 1.391 . S
C1719 C1718 1.386 . S
C1719 C1723 1.393 . S
C1720 H1709 0.950 . S
C1720 C1718 1.391 . S
C1720 C1721 1.400 . S
C1721 C1715 1.491 . S
C1721 C1720 1.400 . S
C1721 C1722 1.398 . S
C1722 H1710 0.950 . S
C1722 C1721 1.398 . S
C1722 C1723 1.391 . S
C1723 H1711 0.950 . S
C1723 C1719 1.393 . S
C1723 C1722 1.391 . S
H1724 C1732 0.950 . S
H1725 C1737 0.950 . S
H1726 C1734 0.950 . S
H1727 C1736 0.950 . S
H1728 C1738 0.950 . S
H1729 C1740 0.950 . S
H1730 C1742 0.950 . S
H1731 C1743 0.950 . S
C1732 H1724 0.950 . S
C1732 C1733 1.386 . S
C1732 C1734 1.391 . S
C1733 C1732 1.386 . S
C1733 C1737 1.393 . S
C1734 H1726 0.950 . S
C1734 C1732 1.391 . S
C1734 C1735 1.400 . S
C1735 C1734 1.400 . S
C1735 C1736 1.398 . S
C1735 C1741 1.491 . S
C1736 H1727 0.950 . S
C1736 C1735 1.398 . S
C1736 C1737 1.391 . S
C1737 H1725 0.950 . S
C1737 C1733 1.393 . S
C1737 C1736 1.391 . S
C1738 H1728 0.950 . S
C1738 C1739 1.386 . S
C1738 C1740 1.391 . S
C1739 C1738 1.386 . S
C1739 C1743 1.393 . S
C1740 H1729 0.950 . S
C1740 C1738 1.391 . S
C1740 C1741 1.400 . S
C1741 C1735 1.491 . S
C1741 C1740 1.400 . S
C1741 C1742 1.398 . S
C1742 H1730 0.950 . S
C1742 C1741 1.398 . S
C1742 C1743 1.391 . S
C1743 H1731 0.950 . S
C1743 C1739 1.393 . S
C1743 C1742 1.391 . S
H1744 C1752 0.950 . S
H1745 C1757 0.950 . S
H1746 C1754 0.950 . S
H1747 C1756 0.950 . S
H1748 C1758 0.950 . S
H1749 C1760 0.950 . S
H1750 C1762 0.950 . S
H1751 C1763 0.950 . S
C1752 H1744 0.950 . S
C1752 C1753 1.386 . S
C1752 C1754 1.391 . S
C1753 C1752 1.386 . S
C1753 C1757 1.393 . S
C1754 H1746 0.950 . S
C1754 C1752 1.391 . S
C1754 C1755 1.400 . S
C1755 C1754 1.400 . S
C1755 C1756 1.398 . S
C1755 C1761 1.491 . S
C1756 H1747 0.950 . S
C1756 C1755 1.398 . S
C1756 C1757 1.391 . S
C1757 H1745 0.950 . S
C1757 C1753 1.393 . S
C1757 C1756 1.391 . S
C1758 H1748 0.950 . S
C1758 C1759 1.386 . S
C1758 C1760 1.391 . S
C1759 C1758 1.386 . S
C1759 C1763 1.393 . S
C1760 H1749 0.950 . S
C1760 C1758 1.391 . S
C1760 C1761 1.400 . S
C1761 C1755 1.491 . S
C1761 C1760 1.400 . S
C1761 C1762 1.398 . S
C1762 H1750 0.950 . S
C1762 C1761 1.398 . S
C1762 C1763 1.391 . S
C1763 H1751 0.950 . S
C1763 C1759 1.393 . S
C1763 C1762 1.391 . S
H1764 C1772 0.950 . S
H1765 C1777 0.950 . S
H1766 C1774 0.950 . S
H1767 C1776 0.950 . S
H1768 C1778 0.950 . S
H1769 C1780 0.950 . S
H1770 C1782 0.950 . S
H1771 C1783 0.950 . S
C1772 H1764 0.950 . S
C1772 C1773 1.386 . S
C1772 C1774 1.391 . S
C1773 C1772 1.386 . S
C1773 C1777 1.393 . S
C1774 H1766 0.950 . S
C1774 C1772 1.391 . S
C1774 C1775 1.400 . S
C1775 C1774 1.400 . S
C1775 C1776 1.398 . S
C1775 C1781 1.491 . S
C1776 H1767 0.950 . S
C1776 C1775 1.398 . S
C1776 C1777 1.391 . S
C1777 H1765 0.950 . S
C1777 C1773 1.393 . S
C1777 C1776 1.391 . S
C1778 H1768 0.950 . S
C1778 C1779 1.386 . S
C1778 C1780 1.391 . S
C1779 C1778 1.386 . S
C1779 C1783 1.393 . S
C1780 H1769 0.950 . S
C1780 C1778 1.391 . S
C1780 C1781 1.400 . S
C1781 C1775 1.491 . S
C1781 C1780 1.400 . S
C1781 C1782 1.398 . S
C1782 H1770 0.950 . S
C1782 C1781 1.398 . S
C1782 C1783 1.391 . S
C1783 H1771 0.950 . S
C1783 C1779 1.393 . S
C1783 C1782 1.391 . S
H1784 C1792 0.950 . S
H1785 C1797 0.950 . S
H1786 C1794 0.950 . S
H1787 C1796 0.950 . S
H1788 C1798 0.950 . S
H1789 C1800 0.950 . S
H1790 C1802 0.950 . S
H1791 C1803 0.950 . S
C1792 H1784 0.950 . S
C1792 C1793 1.386 . S
C1792 C1794 1.391 . S
C1793 C1792 1.386 . S
C1793 C1797 1.393 . S
C1794 H1786 0.950 . S
C1794 C1792 1.391 . S
C1794 C1795 1.400 . S
C1795 C1794 1.400 . S
C1795 C1796 1.398 . S
C1795 C1801 1.491 . S
C1796 H1787 0.950 . S
C1796 C1795 1.398 . S
C1796 C1797 1.391 . S
C1797 H1785 0.950 . S
C1797 C1793 1.393 . S
C1797 C1796 1.391 . S
C1798 H1788 0.950 . S
C1798 C1799 1.386 . S
C1798 C1800 1.391 . S
C1799 C1798 1.386 . S
C1799 C1803 1.393 . S
C1800 H1789 0.950 . S
C1800 C1798 1.391 . S
C1800 C1801 1.400 . S
C1801 C1795 1.491 . S
C1801 C1800 1.400 . S
C1801 C1802 1.398 . S
C1802 H1790 0.950 . S
C1802 C1801 1.398 . S
C1802 C1803 1.391 . S
C1803 H1791 0.950 . S
C1803 C1799 1.393 . S
C1803 C1802 1.391 . S
H1804 C1812 0.950 . S
H1805 C1817 0.950 . S
H1806 C1814 0.950 . S
H1807 C1816 0.950 . S
H1808 C1818 0.950 . S
H1809 C1820 0.950 . S
H1810 C1822 0.950 . S
H1811 C1823 0.950 . S
C1812 H1804 0.950 . S
C1812 C1813 1.386 . S
C1812 C1814 1.391 . S
C1813 C1812 1.386 . S
C1813 C1817 1.393 . S
C1814 H1806 0.950 . S
C1814 C1812 1.391 . S
C1814 C1815 1.400 . S
C1815 C1814 1.400 . S
C1815 C1816 1.398 . S
C1815 C1821 1.491 . S
C1816 H1807 0.950 . S
C1816 C1815 1.398 . S
C1816 C1817 1.391 . S
C1817 H1805 0.950 . S
C1817 C1813 1.393 . S
C1817 C1816 1.391 . S
C1818 H1808 0.950 . S
C1818 C1819 1.386 . S
C1818 C1820 1.391 . S
C1819 C1818 1.386 . S
C1819 C1823 1.393 . S
C1820 H1809 0.950 . S
C1820 C1818 1.391 . S
C1820 C1821 1.400 . S
C1821 C1815 1.491 . S
C1821 C1820 1.400 . S
C1821 C1822 1.398 . S
C1822 H1810 0.950 . S
C1822 C1821 1.398 . S
C1822 C1823 1.391 . S
C1823 H1811 0.950 . S
C1823 C1819 1.393 . S
C1823 C1822 1.391 . S
H1824 C1832 0.950 . S
H1825 C1837 0.950 . S
H1826 C1834 0.950 . S
H1827 C1836 0.950 . S
H1828 C1838 0.950 . S
H1829 C1840 0.950 . S
H1830 C1842 0.950 . S
H1831 C1843 0.950 . S
C1832 H1824 0.950 . S
C1832 C1833 1.386 . S
C1832 C1834 1.391 . S
C1833 C1832 1.386 . S
C1833 C1837 1.393 . S
C1834 H1826 0.950 . S
C1834 C1832 1.391 . S
C1834 C1835 1.400 . S
C1835 C1834 1.400 . S
C1835 C1836 1.398 . S
C1835 C1841 1.491 . S
C1836 H1827 0.950 . S
C1836 C1835 1.398 . S
C1836 C1837 1.391 . S
C1837 H1825 0.950 . S
C1837 C1833 1.393 . S
C1837 C1836 1.391 . S
C1838 H1828 0.950 . S
C1838 C1839 1.386 . S
C1838 C1840 1.391 . S
C1839 C1838 1.386 . S
C1839 C1843 1.393 . S
C1840 H1829 0.950 . S
C1840 C1838 1.391 . S
C1840 C1841 1.400 . S
C1841 C1835 1.491 . S
C1841 C1840 1.400 . S
C1841 C1842 1.398 . S
C1842 H1830 0.950 . S
C1842 C1841 1.398 . S
C1842 C1843 1.391 . S
C1843 H1831 0.950 . S
C1843 C1839 1.393 . S
C1843 C1842 1.391 . S
H1844 C1852 0.950 . S
H1845 C1857 0.950 . S
H1846 C1854 0.950 . S
H1847 C1856 0.950 . S
H1848 C1858 0.950 . S
H1849 C1860 0.950 . S
H1850 C1862 0.950 . S
H1851 C1863 0.950 . S
C1852 H1844 0.950 . S
C1852 C1853 1.386 . S
C1852 C1854 1.391 . S
C1853 C1852 1.386 . S
C1853 C1857 1.393 . S
C1854 H1846 0.950 . S
C1854 C1852 1.391 . S
C1854 C1855 1.400 . S
C1855 C1854 1.400 . S
C1855 C1856 1.398 . S
C1855 C1861 1.491 . S
C1856 H1847 0.950 . S
C1856 C1855 1.398 . S
C1856 C1857 1.391 . S
C1857 H1845 0.950 . S
C1857 C1853 1.393 . S
C1857 C1856 1.391 . S
C1858 H1848 0.950 . S
C1858 C1859 1.386 . S
C1858 C1860 1.391 . S
C1859 C1858 1.386 . S
C1859 C1863 1.393 . S
C1860 H1849 0.950 . S
C1860 C1858 1.391 . S
C1860 C1861 1.400 . S
C1861 C1855 1.491 . S
C1861 C1860 1.400 . S
C1861 C1862 1.398 . S
C1862 H1850 0.950 . S
C1862 C1861 1.398 . S
C1862 C1863 1.391 . S
C1863 H1851 0.950 . S
C1863 C1859 1.393 . S
C1863 C1862 1.391 . S
H1864 C1872 0.950 . S
H1865 C1877 0.950 . S
H1866 C1874 0.950 . S
H1867 C1876 0.950 . S
H1868 C1878 0.950 . S
H1869 C1880 0.950 . S
H1870 C1882 0.950 . S
H1871 C1883 0.950 . S
C1872 H1864 0.950 . S
C1872 C1873 1.386 . S
C1872 C1874 1.391 . S
C1873 C1872 1.386 . S
C1873 C1877 1.393 . S
C1874 H1866 0.950 . S
C1874 C1872 1.391 . S
C1874 C1875 1.400 . S
C1875 C1874 1.400 . S
C1875 C1876 1.398 . S
C1875 C1881 1.491 . S
C1876 H1867 0.950 . S
C1876 C1875 1.398 . S
C1876 C1877 1.391 . S
C1877 H1865 0.950 . S
C1877 C1873 1.393 . S
C1877 C1876 1.391 . S
C1878 H1868 0.950 . S
C1878 C1879 1.386 . S
C1878 C1880 1.391 . S
C1879 C1878 1.386 . S
C1879 C1883 1.393 . S
C1880 H1869 0.950 . S
C1880 C1878 1.391 . S
C1880 C1881 1.400 . S
C1881 C1875 1.491 . S
C1881 C1880 1.400 . S
C1881 C1882 1.398 . S
C1882 H1870 0.950 . S
C1882 C1881 1.398 . S
C1882 C1883 1.391 . S
C1883 H1871 0.950 . S
C1883 C1879 1.393 . S
C1883 C1882 1.391 . S
H1884 C1892 0.950 . S
H1885 C1897 0.950 . S
H1886 C1894 0.950 . S
H1887 C1896 0.950 . S
H1888 C1898 0.950 . S
H1889 C1900 0.950 . S
H1890 C1902 0.950 . S
H1891 C1903 0.950 . S
C1892 H1884 0.950 . S
C1892 C1893 1.386 . S
C1892 C1894 1.391 . S
C1893 C1892 1.386 . S
C1893 C1897 1.393 . S
C1894 H1886 0.950 . S
C1894 C1892 1.391 . S
C1894 C1895 1.400 . S
C1895 C1894 1.400 . S
C1895 C1896 1.398 . S
C1895 C1901 1.491 . S
C1896 H1887 0.950 . S
C1896 C1895 1.398 . S
C1896 C1897 1.391 . S
C1897 H1885 0.950 . S
C1897 C1893 1.393 . S
C1897 C1896 1.391 . S
C1898 H1888 0.950 . S
C1898 C1899 1.386 . S
C1898 C1900 1.391 . S
C1899 C1898 1.386 . S
C1899 C1903 1.393 . S
C1900 H1889 0.950 . S
C1900 C1898 1.391 . S
C1900 C1901 1.400 . S
C1901 C1895 1.491 . S
C1901 C1900 1.400 . S
C1901 C1902 1.398 . S
C1902 H1890 0.950 . S
C1902 C1901 1.398 . S
C1902 C1903 1.391 . S
C1903 H1891 0.950 . S
C1903 C1899 1.393 . S
C1903 C1902 1.391 . S
H1904 C1912 0.950 . S
H1905 C1917 0.950 . S
H1906 C1914 0.950 . S
H1907 C1916 0.950 . S
H1908 C1918 0.950 . S
H1909 C1920 0.950 . S
H1910 C1922 0.950 . S
H1911 C1923 0.950 . S
C1912 H1904 0.950 . S
C1912 C1913 1.386 . S
C1912 C1914 1.391 . S
C1913 C1912 1.386 . S
C1913 C1917 1.393 . S
C1914 H1906 0.950 . S
C1914 C1912 1.391 . S
C1914 C1915 1.400 . S
C1915 C1914 1.400 . S
C1915 C1916 1.398 . S
C1915 C1921 1.491 . S
C1916 H1907 0.950 . S
C1916 C1915 1.398 . S
C1916 C1917 1.391 . S
C1917 H1905 0.950 . S
C1917 C1913 1.393 . S
C1917 C1916 1.391 . S
C1918 H1908 0.950 . S
C1918 C1919 1.386 . S
C1918 C1920 1.391 . S
C1919 C1918 1.386 . S
C1919 C1923 1.393 . S
C1920 H1909 0.950 . S
C1920 C1918 1.391 . S
C1920 C1921 1.400 . S
C1921 C1915 1.491 . S
C1921 C1920 1.400 . S
C1921 C1922 1.398 . S
C1922 H1910 0.950 . S
C1922 C1921 1.398 . S
C1922 C1923 1.391 . S
C1923 H1911 0.950 . S
C1923 C1919 1.393 . S
C1923 C1922 1.391 . S
H1924 C1932 0.950 . S
H1925 C1937 0.950 . S
H1926 C1934 0.950 . S
H1927 C1936 0.950 . S
H1928 C1938 0.950 . S
H1929 C1940 0.950 . S
H1930 C1942 0.950 . S
H1931 C1943 0.950 . S
C1932 H1924 0.950 . S
C1932 C1933 1.386 . S
C1932 C1934 1.391 . S
C1933 C1932 1.386 . S
C1933 C1937 1.393 . S
C1934 H1926 0.950 . S
C1934 C1932 1.391 . S
C1934 C1935 1.400 . S
C1935 C1934 1.400 . S
C1935 C1936 1.398 . S
C1935 C1941 1.491 . S
C1936 H1927 0.950 . S
C1936 C1935 1.398 . S
C1936 C1937 1.391 . S
C1937 H1925 0.950 . S
C1937 C1933 1.393 . S
C1937 C1936 1.391 . S
C1938 H1928 0.950 . S
C1938 C1939 1.386 . S
C1938 C1940 1.391 . S
C1939 C1938 1.386 . S
C1939 C1943 1.393 . S
C1940 H1929 0.950 . S
C1940 C1938 1.391 . S
C1940 C1941 1.400 . S
C1941 C1935 1.491 . S
C1941 C1940 1.400 . S
C1941 C1942 1.398 . S
C1942 H1930 0.950 . S
C1942 C1941 1.398 . S
C1942 C1943 1.391 . S
C1943 H1931 0.950 . S
C1943 C1939 1.393 . S
C1943 C1942 1.391 . S
H1944 C1952 0.950 . S
H1945 C1957 0.950 . S
H1946 C1954 0.950 . S
H1947 C1956 0.950 . S
H1948 C1958 0.950 . S
H1949 C1960 0.950 . S
H1950 C1962 0.950 . S
H1951 C1963 0.950 . S
C1952 H1944 0.950 . S
C1952 C1953 1.386 . S
C1952 C1954 1.391 . S
C1953 C1952 1.386 . S
C1953 C1957 1.393 . S
C1954 H1946 0.950 . S
C1954 C1952 1.391 . S
C1954 C1955 1.400 . S
C1955 C1954 1.400 . S
C1955 C1956 1.398 . S
C1955 C1961 1.491 . S
C1956 H1947 0.950 . S
C1956 C1955 1.398 . S
C1956 C1957 1.391 . S
C1957 H1945 0.950 . S
C1957 C1953 1.393 . S
C1957 C1956 1.391 . S
C1958 H1948 0.950 . S
C1958 C1959 1.386 . S
C1958 C1960 1.391 . S
C1959 C1958 1.386 . S
C1959 C1963 1.393 . S
C1960 H1949 0.950 . S
C1960 C1958 1.391 . S
C1960 C1961 1.400 . S
C1961 C1955 1.491 . S
C1961 C1960 1.400 . S
C1961 C1962 1.398 . S
C1962 H1950 0.950 . S
C1962 C1961 1.398 . S
C1962 C1963 1.391 . S
C1963 H1951 0.950 . S
C1963 C1959 1.393 . S
C1963 C1962 1.391 . S
H1964 C1972 0.950 . S
H1965 C1977 0.950 . S
H1966 C1974 0.950 . S
H1967 C1976 0.950 . S
H1968 C1978 0.950 . S
H1969 C1980 0.950 . S
H1970 C1982 0.950 . S
H1971 C1983 0.950 . S
C1972 H1964 0.950 . S
C1972 C1973 1.386 . S
C1972 C1974 1.391 . S
C1973 C1972 1.386 . S
C1973 C1977 1.393 . S
C1974 H1966 0.950 . S
C1974 C1972 1.391 . S
C1974 C1975 1.400 . S
C1975 C1974 1.400 . S
C1975 C1976 1.398 . S
C1975 C1981 1.491 . S
C1976 H1967 0.950 . S
C1976 C1975 1.398 . S
C1976 C1977 1.391 . S
C1977 H1965 0.950 . S
C1977 C1973 1.393 . S
C1977 C1976 1.391 . S
C1978 H1968 0.950 . S
C1978 C1979 1.386 . S
C1978 C1980 1.391 . S
C1979 C1978 1.386 . S
C1979 C1983 1.393 . S
C1980 H1969 0.950 . S
C1980 C1978 1.391 . S
C1980 C1981 1.400 . S
C1981 C1975 1.491 . S
C1981 C1980 1.400 . S
C1981 C1982 1.398 . S
C1982 H1970 0.950 . S
C1982 C1981 1.398 . S
C1982 C1983 1.391 . S
C1983 H1971 0.950 . S
C1983 C1979 1.393 . S
C1983 C1982 1.391 . S
H1984 C1992 0.950 . S
H1985 C1997 0.950 . S
H1986 C1994 0.950 . S
H1987 C1996 0.950 . S
H1988 C1998 0.950 . S
H1989 C2000 0.950 . S
H1990 C2002 0.950 . S
H1991 C2003 0.950 . S
C1992 H1984 0.950 . S
C1992 C1993 1.386 . S
C1992 C1994 1.391 . S
C1993 C1992 1.386 . S
C1993 C1997 1.393 . S
C1994 H1986 0.950 . S
C1994 C1992 1.391 . S
C1994 C1995 1.400 . S
C1995 C1994 1.400 . S
C1995 C1996 1.398 . S
C1995 C2001 1.491 . S
C1996 H1987 0.950 . S
C1996 C1995 1.398 . S
C1996 C1997 1.391 . S
C1997 H1985 0.950 . S
C1997 C1993 1.393 . S
C1997 C1996 1.391 . S
C1998 H1988 0.950 . S
C1998 C1999 1.386 . S
C1998 C2000 1.391 . S
C1999 C1998 1.386 . S
C1999 C2003 1.393 . S
C2000 H1989 0.950 . S
C2000 C1998 1.391 . S
C2000 C2001 1.400 . S
C2001 C1995 1.491 . S
C2001 C2000 1.400 . S
C2001 C2002 1.398 . S
C2002 H1990 0.950 . S
C2002 C2001 1.398 . S
C2002 C2003 1.391 . S
C2003 H1991 0.950 . S
C2003 C1999 1.393 . S
C2003 C2002 1.391 . S
H2004 C2012 0.950 . S
H2005 C2017 0.950 . S
H2006 C2014 0.950 . S
H2007 C2016 0.950 . S
H2008 C2018 0.950 . S
H2009 C2020 0.950 . S
H2010 C2022 0.950 . S
H2011 C2023 0.950 . S
C2012 H2004 0.950 . S
C2012 C2013 1.386 . S
C2012 C2014 1.391 . S
C2013 C2012 1.386 . S
C2013 C2017 1.393 . S
C2014 H2006 0.950 . S
C2014 C2012 1.391 . S
C2014 C2015 1.400 . S
C2015 C2014 1.400 . S
C2015 C2016 1.398 . S
C2015 C2021 1.491 . S
C2016 H2007 0.950 . S
C2016 C2015 1.398 . S
C2016 C2017 1.391 . S
C2017 H2005 0.950 . S
C2017 C2013 1.393 . S
C2017 C2016 1.391 . S
C2018 H2008 0.950 . S
C2018 C2019 1.386 . S
C2018 C2020 1.391 . S
C2019 C2018 1.386 . S
C2019 C2023 1.393 . S
C2020 H2009 0.950 . S
C2020 C2018 1.391 . S
C2020 C2021 1.400 . S
C2021 C2015 1.491 . S
C2021 C2020 1.400 . S
C2021 C2022 1.398 . S
C2022 H2010 0.950 . S
C2022 C2021 1.398 . S
C2022 C2023 1.391 . S
C2023 H2011 0.950 . S
C2023 C2019 1.393 . S
C2023 C2022 1.391 . S
H2024 C2032 0.950 . S
H2025 C2037 0.950 . S
H2026 C2034 0.950 . S
H2027 C2036 0.950 . S
H2028 C2038 0.950 . S
H2029 C2040 0.950 . S
H2030 C2042 0.950 . S
H2031 C2043 0.950 . S
C2032 H2024 0.950 . S
C2032 C2033 1.386 . S
C2032 C2034 1.391 . S
C2033 C2032 1.386 . S
C2033 C2037 1.393 . S
C2034 H2026 0.950 . S
C2034 C2032 1.391 . S
C2034 C2035 1.400 . S
C2035 C2034 1.400 . S
C2035 C2036 1.398 . S
C2035 C2041 1.491 . S
C2036 H2027 0.950 . S
C2036 C2035 1.398 . S
C2036 C2037 1.391 . S
C2037 H2025 0.950 . S
C2037 C2033 1.393 . S
C2037 C2036 1.391 . S
C2038 H2028 0.950 . S
C2038 C2039 1.386 . S
C2038 C2040 1.391 . S
C2039 C2038 1.386 . S
C2039 C2043 1.393 . S
C2040 H2029 0.950 . S
C2040 C2038 1.391 . S
C2040 C2041 1.400 . S
C2041 C2035 1.491 . S
C2041 C2040 1.400 . S
C2041 C2042 1.398 . S
C2042 H2030 0.950 . S
C2042 C2041 1.398 . S
C2042 C2043 1.391 . S
C2043 H2031 0.950 . S
C2043 C2039 1.393 . S
C2043 C2042 1.391 . S
H2044 C2052 0.950 . S
H2045 C2057 0.950 . S
H2046 C2054 0.950 . S
H2047 C2056 0.950 . S
H2048 C2058 0.950 . S
H2049 C2060 0.950 . S
H2050 C2062 0.950 . S
H2051 C2063 0.950 . S
C2052 H2044 0.950 . S
C2052 C2053 1.386 . S
C2052 C2054 1.391 . S
C2053 C2052 1.386 . S
C2053 C2057 1.393 . S
C2054 H2046 0.950 . S
C2054 C2052 1.391 . S
C2054 C2055 1.400 . S
C2055 C2054 1.400 . S
C2055 C2056 1.398 . S
C2055 C2061 1.491 . S
C2056 H2047 0.950 . S
C2056 C2055 1.398 . S
C2056 C2057 1.391 . S
C2057 H2045 0.950 . S
C2057 C2053 1.393 . S
C2057 C2056 1.391 . S
C2058 H2048 0.950 . S
C2058 C2059 1.386 . S
C2058 C2060 1.391 . S
C2059 C2058 1.386 . S
C2059 C2063 1.393 . S
C2060 H2049 0.950 . S
C2060 C2058 1.391 . S
C2060 C2061 1.400 . S
C2061 C2055 1.491 . S
C2061 C2060 1.400 . S
C2061 C2062 1.398 . S
C2062 H2050 0.950 . S
C2062 C2061 1.398 . S
C2062 C2063 1.391 . S
C2063 H2051 0.950 . S
C2063 C2059 1.393 . S
C2063 C2062 1.391 . S
H2064 C2072 0.950 . S
H2065 C2077 0.950 . S
H2066 C2074 0.950 . S
H2067 C2076 0.950 . S
H2068 C2078 0.950 . S
H2069 C2080 0.950 . S
H2070 C2082 0.950 . S
H2071 C2083 0.950 . S
C2072 H2064 0.950 . S
C2072 C2073 1.386 . S
C2072 C2074 1.391 . S
C2073 C2072 1.386 . S
C2073 C2077 1.393 . S
C2074 H2066 0.950 . S
C2074 C2072 1.391 . S
C2074 C2075 1.400 . S
C2075 C2074 1.400 . S
C2075 C2076 1.398 . S
C2075 C2081 1.491 . S
C2076 H2067 0.950 . S
C2076 C2075 1.398 . S
C2076 C2077 1.391 . S
C2077 H2065 0.950 . S
C2077 C2073 1.393 . S
C2077 C2076 1.391 . S
C2078 H2068 0.950 . S
C2078 C2079 1.386 . S
C2078 C2080 1.391 . S
C2079 C2078 1.386 . S
C2079 C2083 1.393 . S
C2080 H2069 0.950 . S
C2080 C2078 1.391 . S
C2080 C2081 1.400 . S
C2081 C2075 1.491 . S
C2081 C2080 1.400 . S
C2081 C2082 1.398 . S
C2082 H2070 0.950 . S
C2082 C2081 1.398 . S
C2082 C2083 1.391 . S
C2083 H2071 0.950 . S
C2083 C2079 1.393 . S
C2083 C2082 1.391 . S
H2084 C2092 0.950 . S
H2085 C2097 0.950 . S
H2086 C2094 0.950 . S
H2087 C2096 0.950 . S
H2088 C2098 0.950 . S
H2089 C2100 0.950 . S
H2090 C2102 0.950 . S
H2091 C2103 0.950 . S
C2092 H2084 0.950 . S
C2092 C2093 1.386 . S
C2092 C2094 1.391 . S
C2093 C2092 1.386 . S
C2093 C2097 1.393 . S
C2094 H2086 0.950 . S
C2094 C2092 1.391 . S
C2094 C2095 1.400 . S
C2095 C2094 1.400 . S
C2095 C2096 1.398 . S
C2095 C2101 1.491 . S
C2096 H2087 0.950 . S
C2096 C2095 1.398 . S
C2096 C2097 1.391 . S
C2097 H2085 0.950 . S
C2097 C2093 1.393 . S
C2097 C2096 1.391 . S
C2098 H2088 0.950 . S
C2098 C2099 1.386 . S
C2098 C2100 1.391 . S
C2099 C2098 1.386 . S
C2099 C2103 1.393 . S
C2100 H2089 0.950 . S
C2100 C2098 1.391 . S
C2100 C2101 1.400 . S
C2101 C2095 1.491 . S
C2101 C2100 1.400 . S
C2101 C2102 1.398 . S
C2102 H2090 0.950 . S
C2102 C2101 1.398 . S
C2102 C2103 1.391 . S
C2103 H2091 0.950 . S
C2103 C2099 1.393 . S
C2103 C2102 1.391 . S
H2104 C2112 0.950 . S
H2105 C2117 0.950 . S
H2106 C2114 0.950 . S
H2107 C2116 0.950 . S
H2108 C2118 0.950 . S
H2109 C2120 0.950 . S
H2110 C2122 0.950 . S
H2111 C2123 0.950 . S
C2112 H2104 0.950 . S
C2112 C2113 1.386 . S
C2112 C2114 1.391 . S
C2113 C2112 1.386 . S
C2113 C2117 1.393 . S
C2114 H2106 0.950 . S
C2114 C2112 1.391 . S
C2114 C2115 1.400 . S
C2115 C2114 1.400 . S
C2115 C2116 1.398 . S
C2115 C2121 1.491 . S
C2116 H2107 0.950 . S
C2116 C2115 1.398 . S
C2116 C2117 1.391 . S
C2117 H2105 0.950 . S
C2117 C2113 1.393 . S
C2117 C2116 1.391 . S
C2118 H2108 0.950 . S
C2118 C2119 1.386 . S
C2118 C2120 1.391 . S
C2119 C2118 1.386 . S
C2119 C2123 1.393 . S
C2120 H2109 0.950 . S
C2120 C2118 1.391 . S
C2120 C2121 1.400 . S
C2121 C2115 1.491 . S
C2121 C2120 1.400 . S
C2121 C2122 1.398 . S
C2122 H2110 0.950 . S
C2122 C2121 1.398 . S
C2122 C2123 1.391 . S
C2123 H2111 0.950 . S
C2123 C2119 1.393 . S
C2123 C2122 1.391 . S
H2124 C2132 0.950 . S
H2125 C2137 0.950 . S
H2126 C2134 0.950 . S
H2127 C2136 0.950 . S
H2128 C2138 0.950 . S
H2129 C2140 0.950 . S
H2130 C2142 0.950 . S
H2131 C2143 0.950 . S
C2132 H2124 0.950 . S
C2132 C2133 1.386 . S
C2132 C2134 1.391 . S
C2133 C2132 1.386 . S
C2133 C2137 1.393 . S
C2134 H2126 0.950 . S
C2134 C2132 1.391 . S
C2134 C2135 1.400 . S
C2135 C2134 1.400 . S
C2135 C2136 1.398 . S
C2135 C2141 1.491 . S
C2136 H2127 0.950 . S
C2136 C2135 1.398 . S
C2136 C2137 1.391 . S
C2137 H2125 0.950 . S
C2137 C2133 1.393 . S
C2137 C2136 1.391 . S
C2138 H2128 0.950 . S
C2138 C2139 1.386 . S
C2138 C2140 1.391 . S
C2139 C2138 1.386 . S
C2139 C2143 1.393 . S
C2140 H2129 0.950 . S
C2140 C2138 1.391 . S
C2140 C2141 1.400 . S
C2141 C2135 1.491 . S
C2141 C2140 1.400 . S
C2141 C2142 1.398 . S
C2142 H2130 0.950 . S
C2142 C2141 1.398 . S
C2142 C2143 1.391 . S
C2143 H2131 0.950 . S
C2143 C2139 1.393 . S
C2143 C2142 1.391 . S
H2144 C2152 0.950 . S
H2145 C2157 0.950 . S
H2146 C2154 0.950 . S
H2147 C2156 0.950 . S
H2148 C2158 0.950 . S
H2149 C2160 0.950 . S
H2150 C2162 0.950 . S
H2151 C2163 0.950 . S
C2152 H2144 0.950 . S
C2152 C2153 1.386 . S
C2152 C2154 1.391 . S
C2153 C2152 1.386 . S
C2153 C2157 1.393 . S
C2154 H2146 0.950 . S
C2154 C2152 1.391 . S
C2154 C2155 1.400 . S
C2155 C2154 1.400 . S
C2155 C2156 1.398 . S
C2155 C2161 1.491 . S
C2156 H2147 0.950 . S
C2156 C2155 1.398 . S
C2156 C2157 1.391 . S
C2157 H2145 0.950 . S
C2157 C2153 1.393 . S
C2157 C2156 1.391 . S
C2158 H2148 0.950 . S
C2158 C2159 1.386 . S
C2158 C2160 1.391 . S
C2159 C2158 1.386 . S
C2159 C2163 1.393 . S
C2160 H2149 0.950 . S
C2160 C2158 1.391 . S
C2160 C2161 1.400 . S
C2161 C2155 1.491 . S
C2161 C2160 1.400 . S
C2161 C2162 1.398 . S
C2162 H2150 0.950 . S
C2162 C2161 1.398 . S
C2162 C2163 1.391 . S
C2163 H2151 0.950 . S
C2163 C2159 1.393 . S
C2163 C2162 1.391 . S
H2164 C2172 0.950 . S
H2165 C2177 0.950 . S
H2166 C2174 0.950 . S
H2167 C2176 0.950 . S
H2168 C2178 0.950 . S
H2169 C2180 0.950 . S
H2170 C2182 0.950 . S
H2171 C2183 0.950 . S
C2172 H2164 0.950 . S
C2172 C2173 1.386 . S
C2172 C2174 1.391 . S
C2173 C2172 1.386 . S
C2173 C2177 1.393 . S
C2174 H2166 0.950 . S
C2174 C2172 1.391 . S
C2174 C2175 1.400 . S
C2175 C2174 1.400 . S
C2175 C2176 1.398 . S
C2175 C2181 1.491 . S
C2176 H2167 0.950 . S
C2176 C2175 1.398 . S
C2176 C2177 1.391 . S
C2177 H2165 0.950 . S
C2177 C2173 1.393 . S
C2177 C2176 1.391 . S
C2178 H2168 0.950 . S
C2178 C2179 1.386 . S
C2178 C2180 1.391 . S
C2179 C2178 1.386 . S
C2179 C2183 1.393 . S
C2180 H2169 0.950 . S
C2180 C2178 1.391 . S
C2180 C2181 1.400 . S
C2181 C2175 1.491 . S
C2181 C2180 1.400 . S
C2181 C2182 1.398 . S
C2182 H2170 0.950 . S
C2182 C2181 1.398 . S
C2182 C2183 1.391 . S
C2183 H2171 0.950 . S
C2183 C2179 1.393 . S
C2183 C2182 1.391 . S
H2184 C2192 0.950 . S
H2185 C2197 0.950 . S
H2186 C2194 0.950 . S
H2187 C2196 0.950 . S
H2188 C2198 0.950 . S
H2189 C2200 0.950 . S
H2190 C2202 0.950 . S
H2191 C2203 0.950 . S
C2192 H2184 0.950 . S
C2192 C2193 1.386 . S
C2192 C2194 1.391 . S
C2193 C2192 1.386 . S
C2193 C2197 1.393 . S
C2194 H2186 0.950 . S
C2194 C2192 1.391 . S
C2194 C2195 1.400 . S
C2195 C2194 1.400 . S
C2195 C2196 1.398 . S
C2195 C2201 1.491 . S
C2196 H2187 0.950 . S
C2196 C2195 1.398 . S
C2196 C2197 1.391 . S
C2197 H2185 0.950 . S
C2197 C2193 1.393 . S
C2197 C2196 1.391 . S
C2198 H2188 0.950 . S
C2198 C2199 1.386 . S
C2198 C2200 1.391 . S
C2199 C2198 1.386 . S
C2199 C2203 1.393 . S
C2200 H2189 0.950 . S
C2200 C2198 1.391 . S
C2200 C2201 1.400 . S
C2201 C2195 1.491 . S
C2201 C2200 1.400 . S
C2201 C2202 1.398 . S
C2202 H2190 0.950 . S
C2202 C2201 1.398 . S
C2202 C2203 1.391 . S
C2203 H2191 0.950 . S
C2203 C2199 1.393 . S
C2203 C2202 1.391 . S
H2204 C2212 0.950 . S
H2205 C2217 0.950 . S
H2206 C2214 0.950 . S
H2207 C2216 0.950 . S
H2208 C2218 0.950 . S
H2209 C2220 0.950 . S
H2210 C2222 0.950 . S
H2211 C2223 0.950 . S
C2212 H2204 0.950 . S
C2212 C2213 1.386 . S
C2212 C2214 1.391 . S
C2213 C2212 1.386 . S
C2213 C2217 1.393 . S
C2214 H2206 0.950 . S
C2214 C2212 1.391 . S
C2214 C2215 1.400 . S
C2215 C2214 1.400 . S
C2215 C2216 1.398 . S
C2215 C2221 1.491 . S
C2216 H2207 0.950 . S
C2216 C2215 1.398 . S
C2216 C2217 1.391 . S
C2217 H2205 0.950 . S
C2217 C2213 1.393 . S
C2217 C2216 1.391 . S
C2218 H2208 0.950 . S
C2218 C2219 1.386 . S
C2218 C2220 1.391 . S
C2219 C2218 1.386 . S
C2219 C2223 1.393 . S
C2220 H2209 0.950 . S
C2220 C2218 1.391 . S
C2220 C2221 1.400 . S
C2221 C2215 1.491 . S
C2221 C2220 1.400 . S
C2221 C2222 1.398 . S
C2222 H2210 0.950 . S
C2222 C2221 1.398 . S
C2222 C2223 1.391 . S
C2223 H2211 0.950 . S
C2223 C2219 1.393 . S
C2223 C2222 1.391 . S
H2224 C2232 0.950 . S
H2225 C2237 0.950 . S
H2226 C2234 0.950 . S
H2227 C2236 0.950 . S
H2228 C2238 0.950 . S
H2229 C2240 0.950 . S
H2230 C2242 0.950 . S
H2231 C2243 0.950 . S
C2232 H2224 0.950 . S
C2232 C2233 1.386 . S
C2232 C2234 1.391 . S
C2233 C2232 1.386 . S
C2233 C2237 1.393 . S
C2234 H2226 0.950 . S
C2234 C2232 1.391 . S
C2234 C2235 1.400 . S
C2235 C2234 1.400 . S
C2235 C2236 1.398 . S
C2235 C2241 1.491 . S
C2236 H2227 0.950 . S
C2236 C2235 1.398 . S
C2236 C2237 1.391 . S
C2237 H2225 0.950 . S
C2237 C2233 1.393 . S
C2237 C2236 1.391 . S
C2238 H2228 0.950 . S
C2238 C2239 1.386 . S
C2238 C2240 1.391 . S
C2239 C2238 1.386 . S
C2239 C2243 1.393 . S
C2240 H2229 0.950 . S
C2240 C2238 1.391 . S
C2240 C2241 1.400 . S
C2241 C2235 1.491 . S
C2241 C2240 1.400 . S
C2241 C2242 1.398 . S
C2242 H2230 0.950 . S
C2242 C2241 1.398 . S
C2242 C2243 1.391 . S
C2243 H2231 0.950 . S
C2243 C2239 1.393 . S
C2243 C2242 1.391 . S
H2244 C2252 0.950 . S
H2245 C2257 0.950 . S
H2246 C2254 0.950 . S
H2247 C2256 0.950 . S
H2248 C2258 0.950 . S
H2249 C2260 0.950 . S
H2250 C2262 0.950 . S
H2251 C2263 0.950 . S
C2252 H2244 0.950 . S
C2252 C2253 1.386 . S
C2252 C2254 1.391 . S
C2253 C2252 1.386 . S
C2253 C2257 1.393 . S
C2254 H2246 0.950 . S
C2254 C2252 1.391 . S
C2254 C2255 1.400 . S
C2255 C2254 1.400 . S
C2255 C2256 1.398 . S
C2255 C2261 1.491 . S
C2256 H2247 0.950 . S
C2256 C2255 1.398 . S
C2256 C2257 1.391 . S
C2257 H2245 0.950 . S
C2257 C2253 1.393 . S
C2257 C2256 1.391 . S
C2258 H2248 0.950 . S
C2258 C2259 1.386 . S
C2258 C2260 1.391 . S
C2259 C2258 1.386 . S
C2259 C2263 1.393 . S
C2260 H2249 0.950 . S
C2260 C2258 1.391 . S
C2260 C2261 1.400 . S
C2261 C2255 1.491 . S
C2261 C2260 1.400 . S
C2261 C2262 1.398 . S
C2262 H2250 0.950 . S
C2262 C2261 1.398 . S
C2262 C2263 1.391 . S
C2263 H2251 0.950 . S
C2263 C2259 1.393 . S
C2263 C2262 1.391 . S
H2264 C2272 0.950 . S
H2265 C2277 0.950 . S
H2266 C2274 0.950 . S
H2267 C2276 0.950 . S
H2268 C2278 0.950 . S
H2269 C2280 0.950 . S
H2270 C2282 0.950 . S
H2271 C2283 0.950 . S
C2272 H2264 0.950 . S
C2272 C2273 1.386 . S
C2272 C2274 1.391 . S
C2273 C2272 1.386 . S
C2273 C2277 1.393 . S
C2274 H2266 0.950 . S
C2274 C2272 1.391 . S
C2274 C2275 1.400 . S
C2275 C2274 1.400 . S
C2275 C2276 1.398 . S
C2275 C2281 1.491 . S
C2276 H2267 0.950 . S
C2276 C2275 1.398 . S
C2276 C2277 1.391 . S
C2277 H2265 0.950 . S
C2277 C2273 1.393 . S
C2277 C2276 1.391 . S
C2278 H2268 0.950 . S
C2278 C2279 1.386 . S
C2278 C2280 1.391 . S
C2279 C2278 1.386 . S
C2279 C2283 1.393 . S
C2280 H2269 0.950 . S
C2280 C2278 1.391 . S
C2280 C2281 1.400 . S
C2281 C2275 1.491 . S
C2281 C2280 1.400 . S
C2281 C2282 1.398 . S
C2282 H2270 0.950 . S
C2282 C2281 1.398 . S
C2282 C2283 1.391 . S
C2283 H2271 0.950 . S
C2283 C2279 1.393 . S
C2283 C2282 1.391 . S
H2284 C2292 0.950 . S
H2285 C2297 0.950 . S
H2286 C2294 0.950 . S
H2287 C2296 0.950 . S
H2288 C2298 0.950 . S
H2289 C2300 0.950 . S
H2290 C2302 0.950 . S
H2291 C2303 0.950 . S
C2292 H2284 0.950 . S
C2292 C2293 1.386 . S
C2292 C2294 1.391 . S
C2293 C2292 1.386 . S
C2293 C2297 1.393 . S
C2294 H2286 0.950 . S
C2294 C2292 1.391 . S
C2294 C2295 1.400 . S
C2295 C2294 1.400 . S
C2295 C2296 1.398 . S
C2295 C2301 1.491 . S
C2296 H2287 0.950 . S
C2296 C2295 1.398 . S
C2296 C2297 1.391 . S
C2297 H2285 0.950 . S
C2297 C2293 1.393 . S
C2297 C2296 1.391 . S
C2298 H2288 0.950 . S
C2298 C2299 1.386 . S
C2298 C2300 1.391 . S
C2299 C2298 1.386 . S
C2299 C2303 1.393 . S
C2300 H2289 0.950 . S
C2300 C2298 1.391 . S
C2300 C2301 1.400 . S
C2301 C2295 1.491 . S
C2301 C2300 1.400 . S
C2301 C2302 1.398 . S
C2302 H2290 0.950 . S
C2302 C2301 1.398 . S
C2302 C2303 1.391 . S
C2303 H2291 0.950 . S
C2303 C2299 1.393 . S
C2303 C2302 1.391 . S
H2304 C2312 0.950 . S
H2305 C2317 0.950 . S
H2306 C2314 0.950 . S
H2307 C2316 0.950 . S
H2308 C2318 0.950 . S
H2309 C2320 0.950 . S
H2310 C2322 0.950 . S
H2311 C2323 0.950 . S
C2312 H2304 0.950 . S
C2312 C2313 1.386 . S
C2312 C2314 1.391 . S
C2313 C2312 1.386 . S
C2313 C2317 1.393 . S
C2314 H2306 0.950 . S
C2314 C2312 1.391 . S
C2314 C2315 1.400 . S
C2315 C2314 1.400 . S
C2315 C2316 1.398 . S
C2315 C2321 1.491 . S
C2316 H2307 0.950 . S
C2316 C2315 1.398 . S
C2316 C2317 1.391 . S
C2317 H2305 0.950 . S
C2317 C2313 1.393 . S
C2317 C2316 1.391 . S
C2318 H2308 0.950 . S
C2318 C2319 1.386 . S
C2318 C2320 1.391 . S
C2319 C2318 1.386 . S
C2319 C2323 1.393 . S
C2320 H2309 0.950 . S
C2320 C2318 1.391 . S
C2320 C2321 1.400 . S
C2321 C2315 1.491 . S
C2321 C2320 1.400 . S
C2321 C2322 1.398 . S
C2322 H2310 0.950 . S
C2322 C2321 1.398 . S
C2322 C2323 1.391 . S
C2323 H2311 0.950 . S
C2323 C2319 1.393 . S
C2323 C2322 1.391 . S
H2324 C2332 0.950 . S
H2325 C2337 0.950 . S
H2326 C2334 0.950 . S
H2327 C2336 0.950 . S
H2328 C2338 0.950 . S
H2329 C2340 0.950 . S
H2330 C2342 0.950 . S
H2331 C2343 0.950 . S
C2332 H2324 0.950 . S
C2332 C2333 1.386 . S
C2332 C2334 1.391 . S
C2333 C2332 1.386 . S
C2333 C2337 1.393 . S
C2334 H2326 0.950 . S
C2334 C2332 1.391 . S
C2334 C2335 1.400 . S
C2335 C2334 1.400 . S
C2335 C2336 1.398 . S
C2335 C2341 1.491 . S
C2336 H2327 0.950 . S
C2336 C2335 1.398 . S
C2336 C2337 1.391 . S
C2337 H2325 0.950 . S
C2337 C2333 1.393 . S
C2337 C2336 1.391 . S
C2338 H2328 0.950 . S
C2338 C2339 1.386 . S
C2338 C2340 1.391 . S
C2339 C2338 1.386 . S
C2339 C2343 1.393 . S
C2340 H2329 0.950 . S
C2340 C2338 1.391 . S
C2340 C2341 1.400 . S
C2341 C2335 1.491 . S
C2341 C2340 1.400 . S
C2341 C2342 1.398 . S
C2342 H2330 0.950 . S
C2342 C2341 1.398 . S
C2342 C2343 1.391 . S
C2343 H2331 0.950 . S
C2343 C2339 1.393 . S
C2343 C2342 1.391 . S
H2344 C2352 0.950 . S
H2345 C2357 0.950 . S
H2346 C2354 0.950 . S
H2347 C2356 0.950 . S
H2348 C2358 0.950 . S
H2349 C2360 0.950 . S
H2350 C2362 0.950 . S
H2351 C2363 0.950 . S
C2352 H2344 0.950 . S
C2352 C2353 1.386 . S
C2352 C2354 1.391 . S
C2353 C2352 1.386 . S
C2353 C2357 1.393 . S
C2354 H2346 0.950 . S
C2354 C2352 1.391 . S
C2354 C2355 1.400 . S
C2355 C2354 1.400 . S
C2355 C2356 1.398 . S
C2355 C2361 1.491 . S
C2356 H2347 0.950 . S
C2356 C2355 1.398 . S
C2356 C2357 1.391 . S
C2357 H2345 0.950 . S
C2357 C2353 1.393 . S
C2357 C2356 1.391 . S
C2358 H2348 0.950 . S
C2358 C2359 1.386 . S
C2358 C2360 1.391 . S
C2359 C2358 1.386 . S
C2359 C2363 1.393 . S
C2360 H2349 0.950 . S
C2360 C2358 1.391 . S
C2360 C2361 1.400 . S
C2361 C2355 1.491 . S
C2361 C2360 1.400 . S
C2361 C2362 1.398 . S
C2362 H2350 0.950 . S
C2362 C2361 1.398 . S
C2362 C2363 1.391 . S
C2363 H2351 0.950 . S
C2363 C2359 1.393 . S
C2363 C2362 1.391 . S
H2364 C2372 0.950 . S
H2365 C2377 0.950 . S
H2366 C2374 0.950 . S
H2367 C2376 0.950 . S
H2368 C2378 0.950 . S
H2369 C2380 0.950 . S
H2370 C2382 0.950 . S
H2371 C2383 0.950 . S
C2372 H2364 0.950 . S
C2372 C2373 1.386 . S
C2372 C2374 1.391 . S
C2373 C2372 1.386 . S
C2373 C2377 1.393 . S
C2374 H2366 0.950 . S
C2374 C2372 1.391 . S
C2374 C2375 1.400 . S
C2375 C2374 1.400 . S
C2375 C2376 1.398 . S
C2375 C2381 1.491 . S
C2376 H2367 0.950 . S
C2376 C2375 1.398 . S
C2376 C2377 1.391 . S
C2377 H2365 0.950 . S
C2377 C2373 1.393 . S
C2377 C2376 1.391 . S
C2378 H2368 0.950 . S
C2378 C2379 1.386 . S
C2378 C2380 1.391 . S
C2379 C2378 1.386 . S
C2379 C2383 1.393 . S
C2380 H2369 0.950 . S
C2380 C2378 1.391 . S
C2380 C2381 1.400 . S
C2381 C2375 1.491 . S
C2381 C2380 1.400 . S
C2381 C2382 1.398 . S
C2382 H2370 0.950 . S
C2382 C2381 1.398 . S
C2382 C2383 1.391 . S
C2383 H2371 0.950 . S
C2383 C2379 1.393 . S
C2383 C2382 1.391 . S
H2384 C2392 0.950 . S
H2385 C2397 0.950 . S
H2386 C2394 0.950 . S
H2387 C2396 0.950 . S
H2388 C2398 0.950 . S
H2389 C2400 0.950 . S
H2390 C2402 0.950 . S
H2391 C2403 0.950 . S
C2392 H2384 0.950 . S
C2392 C2393 1.386 . S
C2392 C2394 1.391 . S
C2393 C2392 1.386 . S
C2393 C2397 1.393 . S
C2394 H2386 0.950 . S
C2394 C2392 1.391 . S
C2394 C2395 1.400 . S
C2395 C2394 1.400 . S
C2395 C2396 1.398 . S
C2395 C2401 1.491 . S
C2396 H2387 0.950 . S
C2396 C2395 1.398 . S
C2396 C2397 1.391 . S
C2397 H2385 0.950 . S
C2397 C2393 1.393 . S
C2397 C2396 1.391 . S
C2398 H2388 0.950 . S
C2398 C2399 1.386 . S
C2398 C2400 1.391 . S
C2399 C2398 1.386 . S
C2399 C2403 1.393 . S
C2400 H2389 0.950 . S
C2400 C2398 1.391 . S
C2400 C2401 1.400 . S
C2401 C2395 1.491 . S
C2401 C2400 1.400 . S
C2401 C2402 1.398 . S
C2402 H2390 0.950 . S
C2402 C2401 1.398 . S
C2402 C2403 1.391 . S
C2403 H2391 0.950 . S
C2403 C2399 1.393 . S
C2403 C2402 1.391 . S
H2404 C2412 0.950 . S
H2405 C2417 0.950 . S
H2406 C2414 0.950 . S
H2407 C2416 0.950 . S
H2408 C2418 0.950 . S
H2409 C2420 0.950 . S
H2410 C2422 0.950 . S
H2411 C2423 0.950 . S
C2412 H2404 0.950 . S
C2412 C2413 1.386 . S
C2412 C2414 1.391 . S
C2413 C2412 1.386 . S
C2413 C2417 1.393 . S
C2414 H2406 0.950 . S
C2414 C2412 1.391 . S
C2414 C2415 1.400 . S
C2415 C2414 1.400 . S
C2415 C2416 1.398 . S
C2415 C2421 1.491 . S
C2416 H2407 0.950 . S
C2416 C2415 1.398 . S
C2416 C2417 1.391 . S
C2417 H2405 0.950 . S
C2417 C2413 1.393 . S
C2417 C2416 1.391 . S
C2418 H2408 0.950 . S
C2418 C2419 1.386 . S
C2418 C2420 1.391 . S
C2419 C2418 1.386 . S
C2419 C2423 1.393 . S
C2420 H2409 0.950 . S
C2420 C2418 1.391 . S
C2420 C2421 1.400 . S
C2421 C2415 1.491 . S
C2421 C2420 1.400 . S
C2421 C2422 1.398 . S
C2422 H2410 0.950 . S
C2422 C2421 1.398 . S
C2422 C2423 1.391 . S
C2423 H2411 0.950 . S
C2423 C2419 1.393 . S
C2423 C2422 1.391 . S
H2424 C2432 0.950 . S
H2425 C2437 0.950 . S
H2426 C2434 0.950 . S
H2427 C2436 0.950 . S
H2428 C2438 0.950 . S
H2429 C2440 0.950 . S
H2430 C2442 0.950 . S
H2431 C2443 0.950 . S
C2432 H2424 0.950 . S
C2432 C2433 1.386 . S
C2432 C2434 1.391 . S
C2433 C2432 1.386 . S
C2433 C2437 1.393 . S
C2434 H2426 0.950 . S
C2434 C2432 1.391 . S
C2434 C2435 1.400 . S
C2435 C2434 1.400 . S
C2435 C2436 1.398 . S
C2435 C2441 1.491 . S
C2436 H2427 0.950 . S
C2436 C2435 1.398 . S
C2436 C2437 1.391 . S
C2437 H2425 0.950 . S
C2437 C2433 1.393 . S
C2437 C2436 1.391 . S
C2438 H2428 0.950 . S
C2438 C2439 1.386 . S
C2438 C2440 1.391 . S
C2439 C2438 1.386 . S
C2439 C2443 1.393 . S
C2440 H2429 0.950 . S
C2440 C2438 1.391 . S
C2440 C2441 1.400 . S
C2441 C2435 1.491 . S
C2441 C2440 1.400 . S
C2441 C2442 1.398 . S
C2442 H2430 0.950 . S
C2442 C2441 1.398 . S
C2442 C2443 1.391 . S
C2443 H2431 0.950 . S
C2443 C2439 1.393 . S
C2443 C2442 1.391 . S
H2444 C2452 0.950 . S
H2445 C2457 0.950 . S
H2446 C2454 0.950 . S
H2447 C2456 0.950 . S
H2448 C2458 0.950 . S
H2449 C2460 0.950 . S
H2450 C2462 0.950 . S
H2451 C2463 0.950 . S
C2452 H2444 0.950 . S
C2452 C2453 1.386 . S
C2452 C2454 1.391 . S
C2453 C2452 1.386 . S
C2453 C2457 1.393 . S
C2454 H2446 0.950 . S
C2454 C2452 1.391 . S
C2454 C2455 1.400 . S
C2455 C2454 1.400 . S
C2455 C2456 1.398 . S
C2455 C2461 1.491 . S
C2456 H2447 0.950 . S
C2456 C2455 1.398 . S
C2456 C2457 1.391 . S
C2457 H2445 0.950 . S
C2457 C2453 1.393 . S
C2457 C2456 1.391 . S
C2458 H2448 0.950 . S
C2458 C2459 1.386 . S
C2458 C2460 1.391 . S
C2459 C2458 1.386 . S
C2459 C2463 1.393 . S
C2460 H2449 0.950 . S
C2460 C2458 1.391 . S
C2460 C2461 1.400 . S
C2461 C2455 1.491 . S
C2461 C2460 1.400 . S
C2461 C2462 1.398 . S
C2462 H2450 0.950 . S
C2462 C2461 1.398 . S
C2462 C2463 1.391 . S
C2463 H2451 0.950 . S
C2463 C2459 1.393 . S
C2463 C2462 1.391 . S
H2464 C2472 0.950 . S
H2465 C2477 0.950 . S
H2466 C2474 0.950 . S
H2467 C2476 0.950 . S
H2468 C2478 0.950 . S
H2469 C2480 0.950 . S
H2470 C2482 0.950 . S
H2471 C2483 0.950 . S
C2472 H2464 0.950 . S
C2472 C2473 1.386 . S
C2472 C2474 1.391 . S
C2473 C2472 1.386 . S
C2473 C2477 1.393 . S
C2474 H2466 0.950 . S
C2474 C2472 1.391 . S
C2474 C2475 1.400 . S
C2475 C2474 1.400 . S
C2475 C2476 1.398 . S
C2475 C2481 1.491 . S
C2476 H2467 0.950 . S
C2476 C2475 1.398 . S
C2476 C2477 1.391 . S
C2477 H2465 0.950 . S
C2477 C2473 1.393 . S
C2477 C2476 1.391 . S
C2478 H2468 0.950 . S
C2478 C2479 1.386 . S
C2478 C2480 1.391 . S
C2479 C2478 1.386 . S
C2479 C2483 1.393 . S
C2480 H2469 0.950 . S
C2480 C2478 1.391 . S
C2480 C2481 1.400 . S
C2481 C2475 1.491 . S
C2481 C2480 1.400 . S
C2481 C2482 1.398 . S
C2482 H2470 0.950 . S
C2482 C2481 1.398 . S
C2482 C2483 1.391 . S
C2483 H2471 0.950 . S
C2483 C2479 1.393 . S
C2483 C2482 1.391 . S
H2484 C2492 0.950 . S
H2485 C2497 0.950 . S
H2486 C2494 0.950 . S
H2487 C2496 0.950 . S
H2488 C2498 0.950 . S
H2489 C2500 0.950 . S
H2490 C2502 0.950 . S
H2491 C2503 0.950 . S
C2492 H2484 0.950 . S
C2492 C2493 1.386 . S
C2492 C2494 1.391 . S
C2493 C2492 1.386 . S
C2493 C2497 1.393 . S
C2494 H2486 0.950 . S
C2494 C2492 1.391 . S
C2494 C2495 1.400 . S
C2495 C2494 1.400 . S
C2495 C2496 1.398 . S
C2495 C2501 1.491 . S
C2496 H2487 0.950 . S
C2496 C2495 1.398 . S
C2496 C2497 1.391 . S
C2497 H2485 0.950 . S
C2497 C2493 1.393 . S
C2497 C2496 1.391 . S
C2498 H2488 0.950 . S
C2498 C2499 1.386 . S
C2498 C2500 1.391 . S
C2499 C2498 1.386 . S
C2499 C2503 1.393 . S
C2500 H2489 0.950 . S
C2500 C2498 1.391 . S
C2500 C2501 1.400 . S
C2501 C2495 1.491 . S
C2501 C2500 1.400 . S
C2501 C2502 1.398 . S
C2502 H2490 0.950 . S
C2502 C2501 1.398 . S
C2502 C2503 1.391 . S
C2503 H2491 0.950 . S
C2503 C2499 1.393 . S
C2503 C2502 1.391 . S
H2504 C2512 0.950 . S
H2505 C2517 0.950 . S
H2506 C2514 0.950 . S
H2507 C2516 0.950 . S
H2508 C2518 0.950 . S
H2509 C2520 0.950 . S
H2510 C2522 0.950 . S
H2511 C2523 0.950 . S
C2512 H2504 0.950 . S
C2512 C2513 1.386 . S
C2512 C2514 1.391 . S
C2513 C2512 1.386 . S
C2513 C2517 1.393 . S
C2514 H2506 0.950 . S
C2514 C2512 1.391 . S
C2514 C2515 1.400 . S
C2515 C2514 1.400 . S
C2515 C2516 1.398 . S
C2515 C2521 1.491 . S
C2516 H2507 0.950 . S
C2516 C2515 1.398 . S
C2516 C2517 1.391 . S
C2517 H2505 0.950 . S
C2517 C2513 1.393 . S
C2517 C2516 1.391 . S
C2518 H2508 0.950 . S
C2518 C2519 1.386 . S
C2518 C2520 1.391 . S
C2519 C2518 1.386 . S
C2519 C2523 1.393 . S
C2520 H2509 0.950 . S
C2520 C2518 1.391 . S
C2520 C2521 1.400 . S
C2521 C2515 1.491 . S
C2521 C2520 1.400 . S
C2521 C2522 1.398 . S
C2522 H2510 0.950 . S
C2522 C2521 1.398 . S
C2522 C2523 1.391 . S
C2523 H2511 0.950 . S
C2523 C2519 1.393 . S
C2523 C2522 1.391 . S
H2524 C2532 0.950 . S
H2525 C2537 0.950 . S
H2526 C2534 0.950 . S
H2527 C2536 0.950 . S
H2528 C2538 0.950 . S
H2529 C2540 0.950 . S
H2530 C2542 0.950 . S
H2531 C2543 0.950 . S
C2532 H2524 0.950 . S
C2532 C2533 1.386 . S
C2532 C2534 1.391 . S
C2533 C2532 1.386 . S
C2533 C2537 1.393 . S
C2534 H2526 0.950 . S
C2534 C2532 1.391 . S
C2534 C2535 1.400 . S
C2535 C2534 1.400 . S
C2535 C2536 1.398 . S
C2535 C2541 1.491 . S
C2536 H2527 0.950 . S
C2536 C2535 1.398 . S
C2536 C2537 1.391 . S
C2537 H2525 0.950 . S
C2537 C2533 1.393 . S
C2537 C2536 1.391 . S
C2538 H2528 0.950 . S
C2538 C2539 1.386 . S
C2538 C2540 1.391 . S
C2539 C2538 1.386 . S
C2539 C2543 1.393 . S
C2540 H2529 0.950 . S
C2540 C2538 1.391 . S
C2540 C2541 1.400 . S
C2541 C2535 1.491 . S
C2541 C2540 1.400 . S
C2541 C2542 1.398 . S
C2542 H2530 0.950 . S
C2542 C2541 1.398 . S
C2542 C2543 1.391 . S
C2543 H2531 0.950 . S
C2543 C2539 1.393 . S
C2543 C2542 1.391 . S
H2544 C2552 0.950 . S
H2545 C2557 0.950 . S
H2546 C2554 0.950 . S
H2547 C2556 0.950 . S
H2548 C2558 0.950 . S
H2549 C2560 0.950 . S
H2550 C2562 0.950 . S
H2551 C2563 0.950 . S
C2552 H2544 0.950 . S
C2552 C2553 1.386 . S
C2552 C2554 1.391 . S
C2553 C2552 1.386 . S
C2553 C2557 1.393 . S
C2554 H2546 0.950 . S
C2554 C2552 1.391 . S
C2554 C2555 1.400 . S
C2555 C2554 1.400 . S
C2555 C2556 1.398 . S
C2555 C2561 1.491 . S
C2556 H2547 0.950 . S
C2556 C2555 1.398 . S
C2556 C2557 1.391 . S
C2557 H2545 0.950 . S
C2557 C2553 1.393 . S
C2557 C2556 1.391 . S
C2558 H2548 0.950 . S
C2558 C2559 1.386 . S
C2558 C2560 1.391 . S
C2559 C2558 1.386 . S
C2559 C2563 1.393 . S
C2560 H2549 0.950 . S
C2560 C2558 1.391 . S
C2560 C2561 1.400 . S
C2561 C2555 1.491 . S
C2561 C2560 1.400 . S
C2561 C2562 1.398 . S
C2562 H2550 0.950 . S
C2562 C2561 1.398 . S
C2562 C2563 1.391 . S
C2563 H2551 0.950 . S
C2563 C2559 1.393 . S
C2563 C2562 1.391 . S
H2564 C2572 0.950 . S
H2565 C2577 0.950 . S
H2566 C2574 0.950 . S
H2567 C2576 0.950 . S
H2568 C2578 0.950 . S
H2569 C2580 0.950 . S
H2570 C2582 0.950 . S
H2571 C2583 0.950 . S
C2572 H2564 0.950 . S
C2572 C2573 1.386 . S
C2572 C2574 1.391 . S
C2573 C2572 1.386 . S
C2573 C2577 1.393 . S
C2574 H2566 0.950 . S
C2574 C2572 1.391 . S
C2574 C2575 1.400 . S
C2575 C2574 1.400 . S
C2575 C2576 1.398 . S
C2575 C2581 1.491 . S
C2576 H2567 0.950 . S
C2576 C2575 1.398 . S
C2576 C2577 1.391 . S
C2577 H2565 0.950 . S
C2577 C2573 1.393 . S
C2577 C2576 1.391 . S
C2578 H2568 0.950 . S
C2578 C2579 1.386 . S
C2578 C2580 1.391 . S
C2579 C2578 1.386 . S
C2579 C2583 1.393 . S
C2580 H2569 0.950 . S
C2580 C2578 1.391 . S
C2580 C2581 1.400 . S
C2581 C2575 1.491 . S
C2581 C2580 1.400 . S
C2581 C2582 1.398 . S
C2582 H2570 0.950 . S
C2582 C2581 1.398 . S
C2582 C2583 1.391 . S
C2583 H2571 0.950 . S
C2583 C2579 1.393 . S
C2583 C2582 1.391 . S
H2584 C2592 0.950 . S
H2585 C2597 0.950 . S
H2586 C2594 0.950 . S
H2587 C2596 0.950 . S
H2588 C2598 0.950 . S
H2589 C2600 0.950 . S
H2590 C2602 0.950 . S
H2591 C2603 0.950 . S
C2592 H2584 0.950 . S
C2592 C2593 1.386 . S
C2592 C2594 1.391 . S
C2593 C2592 1.386 . S
C2593 C2597 1.393 . S
C2594 H2586 0.950 . S
C2594 C2592 1.391 . S
C2594 C2595 1.400 . S
C2595 C2594 1.400 . S
C2595 C2596 1.398 . S
C2595 C2601 1.491 . S
C2596 H2587 0.950 . S
C2596 C2595 1.398 . S
C2596 C2597 1.391 . S
C2597 H2585 0.950 . S
C2597 C2593 1.393 . S
C2597 C2596 1.391 . S
C2598 H2588 0.950 . S
C2598 C2599 1.386 . S
C2598 C2600 1.391 . S
C2599 C2598 1.386 . S
C2599 C2603 1.393 . S
C2600 H2589 0.950 . S
C2600 C2598 1.391 . S
C2600 C2601 1.400 . S
C2601 C2595 1.491 . S
C2601 C2600 1.400 . S
C2601 C2602 1.398 . S
C2602 H2590 0.950 . S
C2602 C2601 1.398 . S
C2602 C2603 1.391 . S
C2603 H2591 0.950 . S
C2603 C2599 1.393 . S
C2603 C2602 1.391 . S
H2604 C2612 0.950 . S
H2605 C2617 0.950 . S
H2606 C2614 0.950 . S
H2607 C2616 0.950 . S
H2608 C2618 0.950 . S
H2609 C2620 0.950 . S
H2610 C2622 0.950 . S
H2611 C2623 0.950 . S
C2612 H2604 0.950 . S
C2612 C2613 1.386 . S
C2612 C2614 1.391 . S
C2613 C2612 1.386 . S
C2613 C2617 1.393 . S
C2614 H2606 0.950 . S
C2614 C2612 1.391 . S
C2614 C2615 1.400 . S
C2615 C2614 1.400 . S
C2615 C2616 1.398 . S
C2615 C2621 1.491 . S
C2616 H2607 0.950 . S
C2616 C2615 1.398 . S
C2616 C2617 1.391 . S
C2617 H2605 0.950 . S
C2617 C2613 1.393 . S
C2617 C2616 1.391 . S
C2618 H2608 0.950 . S
C2618 C2619 1.386 . S
C2618 C2620 1.391 . S
C2619 C2618 1.386 . S
C2619 C2623 1.393 . S
C2620 H2609 0.950 . S
C2620 C2618 1.391 . S
C2620 C2621 1.400 . S
C2621 C2615 1.491 . S
C2621 C2620 1.400 . S
C2621 C2622 1.398 . S
C2622 H2610 0.950 . S
C2622 C2621 1.398 . S
C2622 C2623 1.391 . S
C2623 H2611 0.950 . S
C2623 C2619 1.393 . S
C2623 C2622 1.391 . S
H2624 C2632 0.950 . S
H2625 C2637 0.950 . S
H2626 C2634 0.950 . S
H2627 C2636 0.950 . S
H2628 C2638 0.950 . S
H2629 C2640 0.950 . S
H2630 C2642 0.950 . S
H2631 C2643 0.950 . S
C2632 H2624 0.950 . S
C2632 C2633 1.386 . S
C2632 C2634 1.391 . S
C2633 C2632 1.386 . S
C2633 C2637 1.393 . S
C2634 H2626 0.950 . S
C2634 C2632 1.391 . S
C2634 C2635 1.400 . S
C2635 C2634 1.400 . S
C2635 C2636 1.398 . S
C2635 C2641 1.491 . S
C2636 H2627 0.950 . S
C2636 C2635 1.398 . S
C2636 C2637 1.391 . S
C2637 H2625 0.950 . S
C2637 C2633 1.393 . S
C2637 C2636 1.391 . S
C2638 H2628 0.950 . S
C2638 C2639 1.386 . S
C2638 C2640 1.391 . S
C2639 C2638 1.386 . S
C2639 C2643 1.393 . S
C2640 H2629 0.950 . S
C2640 C2638 1.391 . S
C2640 C2641 1.400 . S
C2641 C2635 1.491 . S
C2641 C2640 1.400 . S
C2641 C2642 1.398 . S
C2642 H2630 0.950 . S
C2642 C2641 1.398 . S
C2642 C2643 1.391 . S
C2643 H2631 0.950 . S
C2643 C2639 1.393 . S
C2643 C2642 1.391 . S
H2644 C2652 0.950 . S
H2645 C2657 0.950 . S
H2646 C2654 0.950 . S
H2647 C2656 0.950 . S
H2648 C2658 0.950 . S
H2649 C2660 0.950 . S
H2650 C2662 0.950 . S
H2651 C2663 0.950 . S
C2652 H2644 0.950 . S
C2652 C2653 1.386 . S
C2652 C2654 1.391 . S
C2653 C2652 1.386 . S
C2653 C2657 1.393 . S
C2654 H2646 0.950 . S
C2654 C2652 1.391 . S
C2654 C2655 1.400 . S
C2655 C2654 1.400 . S
C2655 C2656 1.398 . S
C2655 C2661 1.491 . S
C2656 H2647 0.950 . S
C2656 C2655 1.398 . S
C2656 C2657 1.391 . S
C2657 H2645 0.950 . S
C2657 C2653 1.393 . S
C2657 C2656 1.391 . S
C2658 H2648 0.950 . S
C2658 C2659 1.386 . S
C2658 C2660 1.391 . S
C2659 C2658 1.386 . S
C2659 C2663 1.393 . S
C2660 H2649 0.950 . S
C2660 C2658 1.391 . S
C2660 C2661 1.400 . S
C2661 C2655 1.491 . S
C2661 C2660 1.400 . S
C2661 C2662 1.398 . S
C2662 H2650 0.950 . S
C2662 C2661 1.398 . S
C2662 C2663 1.391 . S
C2663 H2651 0.950 . S
C2663 C2659 1.393 . S
C2663 C2662 1.391 . S
H2664 C2672 0.950 . S
H2665 C2677 0.950 . S
H2666 C2674 0.950 . S
H2667 C2676 0.950 . S
H2668 C2678 0.950 . S
H2669 C2680 0.950 . S
H2670 C2682 0.950 . S
H2671 C2683 0.950 . S
C2672 H2664 0.950 . S
C2672 C2673 1.386 . S
C2672 C2674 1.391 . S
C2673 C2672 1.386 . S
C2673 C2677 1.393 . S
C2674 H2666 0.950 . S
C2674 C2672 1.391 . S
C2674 C2675 1.400 . S
C2675 C2674 1.400 . S
C2675 C2676 1.398 . S
C2675 C2681 1.491 . S
C2676 H2667 0.950 . S
C2676 C2675 1.398 . S
C2676 C2677 1.391 . S
C2677 H2665 0.950 . S
C2677 C2673 1.393 . S
C2677 C2676 1.391 . S
C2678 H2668 0.950 . S
C2678 C2679 1.386 . S
C2678 C2680 1.391 . S
C2679 C2678 1.386 . S
C2679 C2683 1.393 . S
C2680 H2669 0.950 . S
C2680 C2678 1.391 . S
C2680 C2681 1.400 . S
C2681 C2675 1.491 . S
C2681 C2680 1.400 . S
C2681 C2682 1.398 . S
C2682 H2670 0.950 . S
C2682 C2681 1.398 . S
C2682 C2683 1.391 . S
C2683 H2671 0.950 . S
C2683 C2679 1.393 . S
C2683 C2682 1.391 . S
H2684 C2692 0.950 . S
H2685 C2697 0.950 . S
H2686 C2694 0.950 . S
H2687 C2696 0.950 . S
H2688 C2698 0.950 . S
H2689 C2700 0.950 . S
H2690 C2702 0.950 . S
H2691 C2703 0.950 . S
C2692 H2684 0.950 . S
C2692 C2693 1.386 . S
C2692 C2694 1.391 . S
C2693 C2692 1.386 . S
C2693 C2697 1.393 . S
C2694 H2686 0.950 . S
C2694 C2692 1.391 . S
C2694 C2695 1.400 . S
C2695 C2694 1.400 . S
C2695 C2696 1.398 . S
C2695 C2701 1.491 . S
C2696 H2687 0.950 . S
C2696 C2695 1.398 . S
C2696 C2697 1.391 . S
C2697 H2685 0.950 . S
C2697 C2693 1.393 . S
C2697 C2696 1.391 . S
C2698 H2688 0.950 . S
C2698 C2699 1.386 . S
C2698 C2700 1.391 . S
C2699 C2698 1.386 . S
C2699 C2703 1.393 . S
C2700 H2689 0.950 . S
C2700 C2698 1.391 . S
C2700 C2701 1.400 . S
C2701 C2695 1.491 . S
C2701 C2700 1.400 . S
C2701 C2702 1.398 . S
C2702 H2690 0.950 . S
C2702 C2701 1.398 . S
C2702 C2703 1.391 . S
C2703 H2691 0.950 . S
C2703 C2699 1.393 . S
C2703 C2702 1.391 . S
H2704 C2712 0.950 . S
H2705 C2717 0.950 . S
H2706 C2714 0.950 . S
H2707 C2716 0.950 . S
H2708 C2718 0.950 . S
H2709 C2720 0.950 . S
H2710 C2722 0.950 . S
H2711 C2723 0.950 . S
C2712 H2704 0.950 . S
C2712 C2713 1.386 . S
C2712 C2714 1.391 . S
C2713 C2712 1.386 . S
C2713 C2717 1.393 . S
C2714 H2706 0.950 . S
C2714 C2712 1.391 . S
C2714 C2715 1.400 . S
C2715 C2714 1.400 . S
C2715 C2716 1.398 . S
C2715 C2721 1.491 . S
C2716 H2707 0.950 . S
C2716 C2715 1.398 . S
C2716 C2717 1.391 . S
C2717 H2705 0.950 . S
C2717 C2713 1.393 . S
C2717 C2716 1.391 . S
C2718 H2708 0.950 . S
C2718 C2719 1.386 . S
C2718 C2720 1.391 . S
C2719 C2718 1.386 . S
C2719 C2723 1.393 . S
C2720 H2709 0.950 . S
C2720 C2718 1.391 . S
C2720 C2721 1.400 . S
C2721 C2715 1.491 . S
C2721 C2720 1.400 . S
C2721 C2722 1.398 . S
C2722 H2710 0.950 . S
C2722 C2721 1.398 . S
C2722 C2723 1.391 . S
C2723 H2711 0.950 . S
C2723 C2719 1.393 . S
C2723 C2722 1.391 . S
H2724 C2732 0.950 . S
H2725 C2737 0.950 . S
H2726 C2734 0.950 . S
H2727 C2736 0.950 . S
H2728 C2738 0.950 . S
H2729 C2740 0.950 . S
H2730 C2742 0.950 . S
H2731 C2743 0.950 . S
C2732 H2724 0.950 . S
C2732 C2733 1.386 . S
C2732 C2734 1.391 . S
C2733 C2732 1.386 . S
C2733 C2737 1.393 . S
C2734 H2726 0.950 . S
C2734 C2732 1.391 . S
C2734 C2735 1.400 . S
C2735 C2734 1.400 . S
C2735 C2736 1.398 . S
C2735 C2741 1.491 . S
C2736 H2727 0.950 . S
C2736 C2735 1.398 . S
C2736 C2737 1.391 . S
C2737 H2725 0.950 . S
C2737 C2733 1.393 . S
C2737 C2736 1.391 . S
C2738 H2728 0.950 . S
C2738 C2739 1.386 . S
C2738 C2740 1.391 . S
C2739 C2738 1.386 . S
C2739 C2743 1.393 . S
C2740 H2729 0.950 . S
C2740 C2738 1.391 . S
C2740 C2741 1.400 . S
C2741 C2735 1.491 . S
C2741 C2740 1.400 . S
C2741 C2742 1.398 . S
C2742 H2730 0.950 . S
C2742 C2741 1.398 . S
C2742 C2743 1.391 . S
C2743 H2731 0.950 . S
C2743 C2739 1.393 . S
C2743 C2742 1.391 . S
H2744 C2752 0.950 . S
H2745 C2757 0.950 . S
H2746 C2754 0.950 . S
H2747 C2756 0.950 . S
H2748 C2758 0.950 . S
H2749 C2760 0.950 . S
H2750 C2762 0.950 . S
H2751 C2763 0.950 . S
C2752 H2744 0.950 . S
C2752 C2753 1.386 . S
C2752 C2754 1.391 . S
C2753 C2752 1.386 . S
C2753 C2757 1.393 . S
C2754 H2746 0.950 . S
C2754 C2752 1.391 . S
C2754 C2755 1.400 . S
C2755 C2754 1.400 . S
C2755 C2756 1.398 . S
C2755 C2761 1.491 . S
C2756 H2747 0.950 . S
C2756 C2755 1.398 . S
C2756 C2757 1.391 . S
C2757 H2745 0.950 . S
C2757 C2753 1.393 . S
C2757 C2756 1.391 . S
C2758 H2748 0.950 . S
C2758 C2759 1.386 . S
C2758 C2760 1.391 . S
C2759 C2758 1.386 . S
C2759 C2763 1.393 . S
C2760 H2749 0.950 . S
C2760 C2758 1.391 . S
C2760 C2761 1.400 . S
C2761 C2755 1.491 . S
C2761 C2760 1.400 . S
C2761 C2762 1.398 . S
C2762 H2750 0.950 . S
C2762 C2761 1.398 . S
C2762 C2763 1.391 . S
C2763 H2751 0.950 . S
C2763 C2759 1.393 . S
C2763 C2762 1.391 . S
H2764 C2772 0.950 . S
H2765 C2777 0.950 . S
H2766 C2774 0.950 . S
H2767 C2776 0.950 . S
H2768 C2778 0.950 . S
H2769 C2780 0.950 . S
H2770 C2782 0.950 . S
H2771 C2783 0.950 . S
C2772 H2764 0.950 . S
C2772 C2773 1.386 . S
C2772 C2774 1.391 . S
C2773 C2772 1.386 . S
C2773 C2777 1.393 . S
C2774 H2766 0.950 . S
C2774 C2772 1.391 . S
C2774 C2775 1.400 . S
C2775 C2774 1.400 . S
C2775 C2776 1.398 . S
C2775 C2781 1.491 . S
C2776 H2767 0.950 . S
C2776 C2775 1.398 . S
C2776 C2777 1.391 . S
C2777 H2765 0.950 . S
C2777 C2773 1.393 . S
C2777 C2776 1.391 . S
C2778 H2768 0.950 . S
C2778 C2779 1.386 . S
C2778 C2780 1.391 . S
C2779 C2778 1.386 . S
C2779 C2783 1.393 . S
C2780 H2769 0.950 . S
C2780 C2778 1.391 . S
C2780 C2781 1.400 . S
C2781 C2775 1.491 . S
C2781 C2780 1.400 . S
C2781 C2782 1.398 . S
C2782 H2770 0.950 . S
C2782 C2781 1.398 . S
C2782 C2783 1.391 . S
C2783 H2771 0.950 . S
C2783 C2779 1.393 . S
C2783 C2782 1.391 . S
H2784 C2792 0.950 . S
H2785 C2797 0.950 . S
H2786 C2794 0.950 . S
H2787 C2796 0.950 . S
H2788 C2798 0.950 . S
H2789 C2800 0.950 . S
H2790 C2802 0.950 . S
H2791 C2803 0.950 . S
C2792 H2784 0.950 . S
C2792 C2793 1.386 . S
C2792 C2794 1.391 . S
C2793 C2792 1.386 . S
C2793 C2797 1.393 . S
C2794 H2786 0.950 . S
C2794 C2792 1.391 . S
C2794 C2795 1.400 . S
C2795 C2794 1.400 . S
C2795 C2796 1.398 . S
C2795 C2801 1.491 . S
C2796 H2787 0.950 . S
C2796 C2795 1.398 . S
C2796 C2797 1.391 . S
C2797 H2785 0.950 . S
C2797 C2793 1.393 . S
C2797 C2796 1.391 . S
C2798 H2788 0.950 . S
C2798 C2799 1.386 . S
C2798 C2800 1.391 . S
C2799 C2798 1.386 . S
C2799 C2803 1.393 . S
C2800 H2789 0.950 . S
C2800 C2798 1.391 . S
C2800 C2801 1.400 . S
C2801 C2795 1.491 . S
C2801 C2800 1.400 . S
C2801 C2802 1.398 . S
C2802 H2790 0.950 . S
C2802 C2801 1.398 . S
C2802 C2803 1.391 . S
C2803 H2791 0.950 . S
C2803 C2799 1.393 . S
C2803 C2802 1.391 . S
H2804 C2812 0.950 . S
H2805 C2817 0.950 . S
H2806 C2814 0.950 . S
H2807 C2816 0.950 . S
H2808 C2818 0.950 . S
H2809 C2820 0.950 . S
H2810 C2822 0.950 . S
H2811 C2823 0.950 . S
C2812 H2804 0.950 . S
C2812 C2813 1.386 . S
C2812 C2814 1.391 . S
C2813 C2812 1.386 . S
C2813 C2817 1.393 . S
C2814 H2806 0.950 . S
C2814 C2812 1.391 . S
C2814 C2815 1.400 . S
C2815 C2814 1.400 . S
C2815 C2816 1.398 . S
C2815 C2821 1.491 . S
C2816 H2807 0.950 . S
C2816 C2815 1.398 . S
C2816 C2817 1.391 . S
C2817 H2805 0.950 . S
C2817 C2813 1.393 . S
C2817 C2816 1.391 . S
C2818 H2808 0.950 . S
C2818 C2819 1.386 . S
C2818 C2820 1.391 . S
C2819 C2818 1.386 . S
C2819 C2823 1.393 . S
C2820 H2809 0.950 . S
C2820 C2818 1.391 . S
C2820 C2821 1.400 . S
C2821 C2815 1.491 . S
C2821 C2820 1.400 . S
C2821 C2822 1.398 . S
C2822 H2810 0.950 . S
C2822 C2821 1.398 . S
C2822 C2823 1.391 . S
C2823 H2811 0.950 . S
C2823 C2819 1.393 . S
C2823 C2822 1.391 . S
H2824 C2832 0.950 . S
H2825 C2837 0.950 . S
H2826 C2834 0.950 . S
H2827 C2836 0.950 . S
H2828 C2838 0.950 . S
H2829 C2840 0.950 . S
H2830 C2842 0.950 . S
H2831 C2843 0.950 . S
C2832 H2824 0.950 . S
C2832 C2833 1.386 . S
C2832 C2834 1.391 . S
C2833 C2832 1.386 . S
C2833 C2837 1.393 . S
C2834 H2826 0.950 . S
C2834 C2832 1.391 . S
C2834 C2835 1.400 . S
C2835 C2834 1.400 . S
C2835 C2836 1.398 . S
C2835 C2841 1.491 . S
C2836 H2827 0.950 . S
C2836 C2835 1.398 . S
C2836 C2837 1.391 . S
C2837 H2825 0.950 . S
C2837 C2833 1.393 . S
C2837 C2836 1.391 . S
C2838 H2828 0.950 . S
C2838 C2839 1.386 . S
C2838 C2840 1.391 . S
C2839 C2838 1.386 . S
C2839 C2843 1.393 . S
C2840 H2829 0.950 . S
C2840 C2838 1.391 . S
C2840 C2841 1.400 . S
C2841 C2835 1.491 . S
C2841 C2840 1.400 . S
C2841 C2842 1.398 . S
C2842 H2830 0.950 . S
C2842 C2841 1.398 . S
C2842 C2843 1.391 . S
C2843 H2831 0.950 . S
C2843 C2839 1.393 . S
C2843 C2842 1.391 . S
H2844 C2852 0.950 . S
H2845 C2857 0.950 . S
H2846 C2854 0.950 . S
H2847 C2856 0.950 . S
H2848 C2858 0.950 . S
H2849 C2860 0.950 . S
H2850 C2862 0.950 . S
H2851 C2863 0.950 . S
C2852 H2844 0.950 . S
C2852 C2853 1.386 . S
C2852 C2854 1.391 . S
C2853 C2852 1.386 . S
C2853 C2857 1.393 . S
C2854 H2846 0.950 . S
C2854 C2852 1.391 . S
C2854 C2855 1.400 . S
C2855 C2854 1.400 . S
C2855 C2856 1.398 . S
C2855 C2861 1.491 . S
C2856 H2847 0.950 . S
C2856 C2855 1.398 . S
C2856 C2857 1.391 . S
C2857 H2845 0.950 . S
C2857 C2853 1.393 . S
C2857 C2856 1.391 . S
C2858 H2848 0.950 . S
C2858 C2859 1.386 . S
C2858 C2860 1.391 . S
C2859 C2858 1.386 . S
C2859 C2863 1.393 . S
C2860 H2849 0.950 . S
C2860 C2858 1.391 . S
C2860 C2861 1.400 . S
C2861 C2855 1.491 . S
C2861 C2860 1.400 . S
C2861 C2862 1.398 . S
C2862 H2850 0.950 . S
C2862 C2861 1.398 . S
C2862 C2863 1.391 . S
C2863 H2851 0.950 . S
C2863 C2859 1.393 . S
C2863 C2862 1.391 . S
H2864 C2872 0.950 . S
H2865 C2877 0.950 . S
H2866 C2874 0.950 . S
H2867 C2876 0.950 . S
H2868 C2878 0.950 . S
H2869 C2880 0.950 . S
H2870 C2882 0.950 . S
H2871 C2883 0.950 . S
C2872 H2864 0.950 . S
C2872 C2873 1.386 . S
C2872 C2874 1.391 . S
C2873 C2872 1.386 . S
C2873 C2877 1.393 . S
C2874 H2866 0.950 . S
C2874 C2872 1.391 . S
C2874 C2875 1.400 . S
C2875 C2874 1.400 . S
C2875 C2876 1.398 . S
C2875 C2881 1.491 . S
C2876 H2867 0.950 . S
C2876 C2875 1.398 . S
C2876 C2877 1.391 . S
C2877 H2865 0.950 . S
C2877 C2873 1.393 . S
C2877 C2876 1.391 . S
C2878 H2868 0.950 . S
C2878 C2879 1.386 . S
C2878 C2880 1.391 . S
C2879 C2878 1.386 . S
C2879 C2883 1.393 . S
C2880 H2869 0.950 . S
C2880 C2878 1.391 . S
C2880 C2881 1.400 . S
C2881 C2875 1.491 . S
C2881 C2880 1.400 . S
C2881 C2882 1.398 . S
C2882 H2870 0.950 . S
C2882 C2881 1.398 . S
C2882 C2883 1.391 . S
C2883 H2871 0.950 . S
C2883 C2879 1.393 . S
C2883 C2882 1.391 . S
H2884 C2892 0.950 . S
H2885 C2897 0.950 . S
H2886 C2894 0.950 . S
H2887 C2896 0.950 . S
H2888 C2898 0.950 . S
H2889 C2900 0.950 . S
H2890 C2902 0.950 . S
H2891 C2903 0.950 . S
C2892 H2884 0.950 . S
C2892 C2893 1.386 . S
C2892 C2894 1.391 . S
C2893 C2892 1.386 . S
C2893 C2897 1.393 . S
C2894 H2886 0.950 . S
C2894 C2892 1.391 . S
C2894 C2895 1.400 . S
C2895 C2894 1.400 . S
C2895 C2896 1.398 . S
C2895 C2901 1.491 . S
C2896 H2887 0.950 . S
C2896 C2895 1.398 . S
C2896 C2897 1.391 . S
C2897 H2885 0.950 . S
C2897 C2893 1.393 . S
C2897 C2896 1.391 . S
C2898 H2888 0.950 . S
C2898 C2899 1.386 . S
C2898 C2900 1.391 . S
C2899 C2898 1.386 . S
C2899 C2903 1.393 . S
C2900 H2889 0.950 . S
C2900 C2898 1.391 . S
C2900 C2901 1.400 . S
C2901 C2895 1.491 . S
C2901 C2900 1.400 . S
C2901 C2902 1.398 . S
C2902 H2890 0.950 . S
C2902 C2901 1.398 . S
C2902 C2903 1.391 . S
C2903 H2891 0.950 . S
C2903 C2899 1.393 . S
C2903 C2902 1.391 . S
H2904 C2912 0.950 . S
H2905 C2917 0.950 . S
H2906 C2914 0.950 . S
H2907 C2916 0.950 . S
H2908 C2918 0.950 . S
H2909 C2920 0.950 . S
H2910 C2922 0.950 . S
H2911 C2923 0.950 . S
C2912 H2904 0.950 . S
C2912 C2913 1.386 . S
C2912 C2914 1.391 . S
C2913 C2912 1.386 . S
C2913 C2917 1.393 . S
C2914 H2906 0.950 . S
C2914 C2912 1.391 . S
C2914 C2915 1.400 . S
C2915 C2914 1.400 . S
C2915 C2916 1.398 . S
C2915 C2921 1.491 . S
C2916 H2907 0.950 . S
C2916 C2915 1.398 . S
C2916 C2917 1.391 . S
C2917 H2905 0.950 . S
C2917 C2913 1.393 . S
C2917 C2916 1.391 . S
C2918 H2908 0.950 . S
C2918 C2919 1.386 . S
C2918 C2920 1.391 . S
C2919 C2918 1.386 . S
C2919 C2923 1.393 . S
C2920 H2909 0.950 . S
C2920 C2918 1.391 . S
C2920 C2921 1.400 . S
C2921 C2915 1.491 . S
C2921 C2920 1.400 . S
C2921 C2922 1.398 . S
C2922 H2910 0.950 . S
C2922 C2921 1.398 . S
C2922 C2923 1.391 . S
C2923 H2911 0.950 . S
C2923 C2919 1.393 . S
C2923 C2922 1.391 . S
H2924 C2932 0.950 . S
H2925 C2937 0.950 . S
H2926 C2934 0.950 . S
H2927 C2936 0.950 . S
H2928 C2938 0.950 . S
H2929 C2940 0.950 . S
H2930 C2942 0.950 . S
H2931 C2943 0.950 . S
C2932 H2924 0.950 . S
C2932 C2933 1.386 . S
C2932 C2934 1.391 . S
C2933 C2932 1.386 . S
C2933 C2937 1.393 . S
C2934 H2926 0.950 . S
C2934 C2932 1.391 . S
C2934 C2935 1.400 . S
C2935 C2934 1.400 . S
C2935 C2936 1.398 . S
C2935 C2941 1.491 . S
C2936 H2927 0.950 . S
C2936 C2935 1.398 . S
C2936 C2937 1.391 . S
C2937 H2925 0.950 . S
C2937 C2933 1.393 . S
C2937 C2936 1.391 . S
C2938 H2928 0.950 . S
C2938 C2939 1.386 . S
C2938 C2940 1.391 . S
C2939 C2938 1.386 . S
C2939 C2943 1.393 . S
C2940 H2929 0.950 . S
C2940 C2938 1.391 . S
C2940 C2941 1.400 . S
C2941 C2935 1.491 . S
C2941 C2940 1.400 . S
C2941 C2942 1.398 . S
C2942 H2930 0.950 . S
C2942 C2941 1.398 . S
C2942 C2943 1.391 . S
C2943 H2931 0.950 . S
C2943 C2939 1.393 . S
C2943 C2942 1.391 . S
H2944 C2952 0.950 . S
H2945 C2957 0.950 . S
H2946 C2954 0.950 . S
H2947 C2956 0.950 . S
H2948 C2958 0.950 . S
H2949 C2960 0.950 . S
H2950 C2962 0.950 . S
H2951 C2963 0.950 . S
C2952 H2944 0.950 . S
C2952 C2953 1.386 . S
C2952 C2954 1.391 . S
C2953 C2952 1.386 . S
C2953 C2957 1.393 . S
C2954 H2946 0.950 . S
C2954 C2952 1.391 . S
C2954 C2955 1.400 . S
C2955 C2954 1.400 . S
C2955 C2956 1.398 . S
C2955 C2961 1.491 . S
C2956 H2947 0.950 . S
C2956 C2955 1.398 . S
C2956 C2957 1.391 . S
C2957 H2945 0.950 . S
C2957 C2953 1.393 . S
C2957 C2956 1.391 . S
C2958 H2948 0.950 . S
C2958 C2959 1.386 . S
C2958 C2960 1.391 . S
C2959 C2958 1.386 . S
C2959 C2963 1.393 . S
C2960 H2949 0.950 . S
C2960 C2958 1.391 . S
C2960 C2961 1.400 . S
C2961 C2955 1.491 . S
C2961 C2960 1.400 . S
C2961 C2962 1.398 . S
C2962 H2950 0.950 . S
C2962 C2961 1.398 . S
C2962 C2963 1.391 . S
C2963 H2951 0.950 . S
C2963 C2959 1.393 . S
C2963 C2962 1.391 . S
H2964 C2972 0.950 . S
H2965 C2977 0.950 . S
H2966 C2974 0.950 . S
H2967 C2976 0.950 . S
H2968 C2978 0.950 . S
H2969 C2980 0.950 . S
H2970 C2982 0.950 . S
H2971 C2983 0.950 . S
C2972 H2964 0.950 . S
C2972 C2973 1.386 . S
C2972 C2974 1.391 . S
C2973 C2972 1.386 . S
C2973 C2977 1.393 . S
C2974 H2966 0.950 . S
C2974 C2972 1.391 . S
C2974 C2975 1.400 . S
C2975 C2974 1.400 . S
C2975 C2976 1.398 . S
C2975 C2981 1.491 . S
C2976 H2967 0.950 . S
C2976 C2975 1.398 . S
C2976 C2977 1.391 . S
C2977 H2965 0.950 . S
C2977 C2973 1.393 . S
C2977 C2976 1.391 . S
C2978 H2968 0.950 . S
C2978 C2979 1.386 . S
C2978 C2980 1.391 . S
C2979 C2978 1.386 . S
C2979 C2983 1.393 . S
C2980 H2969 0.950 . S
C2980 C2978 1.391 . S
C2980 C2981 1.400 . S
C2981 C2975 1.491 . S
C2981 C2980 1.400 . S
C2981 C2982 1.398 . S
C2982 H2970 0.950 . S
C2982 C2981 1.398 . S
C2982 C2983 1.391 . S
C2983 H2971 0.950 . S
C2983 C2979 1.393 . S
C2983 C2982 1.391 . S
H2984 C2992 0.950 . S
H2985 C2997 0.950 . S
H2986 C2994 0.950 . S
H2987 C2996 0.950 . S
H2988 C2998 0.950 . S
H2989 C3000 0.950 . S
H2990 C3002 0.950 . S
H2991 C3003 0.950 . S
C2992 H2984 0.950 . S
C2992 C2993 1.386 . S
C2992 C2994 1.391 . S
C2993 C2992 1.386 . S
C2993 C2997 1.393 . S
C2994 H2986 0.950 . S
C2994 C2992 1.391 . S
C2994 C2995 1.400 . S
C2995 C2994 1.400 . S
C2995 C2996 1.398 . S
C2995 C3001 1.491 . S
C2996 H2987 0.950 . S
C2996 C2995 1.398 . S
C2996 C2997 1.391 . S
C2997 H2985 0.950 . S
C2997 C2993 1.393 . S
C2997 C2996 1.391 . S
C2998 H2988 0.950 . S
C2998 C2999 1.386 . S
C2998 C3000 1.391 . S
C2999 C2998 1.386 . S
C2999 C3003 1.393 . S
C3000 H2989 0.950 . S
C3000 C2998 1.391 . S
C3000 C3001 1.400 . S
C3001 C2995 1.491 . S
C3001 C3000 1.400 . S
C3001 C3002 1.398 . S
C3002 H2990 0.950 . S
C3002 C3001 1.398 . S
C3002 C3003 1.391 . S
C3003 H2991 0.950 . S
C3003 C2999 1.393 . S
C3003 C3002 1.391 . S
H3004 C3012 0.950 . S
H3005 C3017 0.950 . S
H3006 C3014 0.950 . S
H3007 C3016 0.950 . S
H3008 C3018 0.950 . S
H3009 C3020 0.950 . S
H3010 C3022 0.950 . S
H3011 C3023 0.950 . S
C3012 H3004 0.950 . S
C3012 C3013 1.386 . S
C3012 C3014 1.391 . S
C3013 C3012 1.386 . S
C3013 C3017 1.393 . S
C3014 H3006 0.950 . S
C3014 C3012 1.391 . S
C3014 C3015 1.400 . S
C3015 C3014 1.400 . S
C3015 C3016 1.398 . S
C3015 C3021 1.491 . S
C3016 H3007 0.950 . S
C3016 C3015 1.398 . S
C3016 C3017 1.391 . S
C3017 H3005 0.950 . S
C3017 C3013 1.393 . S
C3017 C3016 1.391 . S
C3018 H3008 0.950 . S
C3018 C3019 1.386 . S
C3018 C3020 1.391 . S
C3019 C3018 1.386 . S
C3019 C3023 1.393 . S
C3020 H3009 0.950 . S
C3020 C3018 1.391 . S
C3020 C3021 1.400 . S
C3021 C3015 1.491 . S
C3021 C3020 1.400 . S
C3021 C3022 1.398 . S
C3022 H3010 0.950 . S
C3022 C3021 1.398 . S
C3022 C3023 1.391 . S
C3023 H3011 0.950 . S
C3023 C3019 1.393 . S
C3023 C3022 1.391 . S
H3024 C3032 0.950 . S
H3025 C3037 0.950 . S
H3026 C3034 0.950 . S
H3027 C3036 0.950 . S
H3028 C3038 0.950 . S
H3029 C3040 0.950 . S
H3030 C3042 0.950 . S
H3031 C3043 0.950 . S
C3032 H3024 0.950 . S
C3032 C3033 1.386 . S
C3032 C3034 1.391 . S
C3033 C3032 1.386 . S
C3033 C3037 1.393 . S
C3034 H3026 0.950 . S
C3034 C3032 1.391 . S
C3034 C3035 1.400 . S
C3035 C3034 1.400 . S
C3035 C3036 1.398 . S
C3035 C3041 1.491 . S
C3036 H3027 0.950 . S
C3036 C3035 1.398 . S
C3036 C3037 1.391 . S
C3037 H3025 0.950 . S
C3037 C3033 1.393 . S
C3037 C3036 1.391 . S
C3038 H3028 0.950 . S
C3038 C3039 1.386 . S
C3038 C3040 1.391 . S
C3039 C3038 1.386 . S
C3039 C3043 1.393 . S
C3040 H3029 0.950 . S
C3040 C3038 1.391 . S
C3040 C3041 1.400 . S
C3041 C3035 1.491 . S
C3041 C3040 1.400 . S
C3041 C3042 1.398 . S
C3042 H3030 0.950 . S
C3042 C3041 1.398 . S
C3042 C3043 1.391 . S
C3043 H3031 0.950 . S
C3043 C3039 1.393 . S
C3043 C3042 1.391 . S
H3044 C3052 0.950 . S
H3045 C3057 0.950 . S
H3046 C3054 0.950 . S
H3047 C3056 0.950 . S
H3048 C3058 0.950 . S
H3049 C3060 0.950 . S
H3050 C3062 0.950 . S
H3051 C3063 0.950 . S
C3052 H3044 0.950 . S
C3052 C3053 1.386 . S
C3052 C3054 1.391 . S
C3053 C3052 1.386 . S
C3053 C3057 1.393 . S
C3054 H3046 0.950 . S
C3054 C3052 1.391 . S
C3054 C3055 1.400 . S
C3055 C3054 1.400 . S
C3055 C3056 1.398 . S
C3055 C3061 1.491 . S
C3056 H3047 0.950 . S
C3056 C3055 1.398 . S
C3056 C3057 1.391 . S
C3057 H3045 0.950 . S
C3057 C3053 1.393 . S
C3057 C3056 1.391 . S
C3058 H3048 0.950 . S
C3058 C3059 1.386 . S
C3058 C3060 1.391 . S
C3059 C3058 1.386 . S
C3059 C3063 1.393 . S
C3060 H3049 0.950 . S
C3060 C3058 1.391 . S
C3060 C3061 1.400 . S
C3061 C3055 1.491 . S
C3061 C3060 1.400 . S
C3061 C3062 1.398 . S
C3062 H3050 0.950 . S
C3062 C3061 1.398 . S
C3062 C3063 1.391 . S
C3063 H3051 0.950 . S
C3063 C3059 1.393 . S
C3063 C3062 1.391 . S
H3064 C3072 0.950 . S
H3065 C3077 0.950 . S
H3066 C3074 0.950 . S
H3067 C3076 0.950 . S
H3068 C3078 0.950 . S
H3069 C3080 0.950 . S
H3070 C3082 0.950 . S
H3071 C3083 0.950 . S
C3072 H3064 0.950 . S
C3072 C3073 1.386 . S
C3072 C3074 1.391 . S
C3073 C3072 1.386 . S
C3073 C3077 1.393 . S
C3074 H3066 0.950 . S
C3074 C3072 1.391 . S
C3074 C3075 1.400 . S
C3075 C3074 1.400 . S
C3075 C3076 1.398 . S
C3075 C3081 1.491 . S
C3076 H3067 0.950 . S
C3076 C3075 1.398 . S
C3076 C3077 1.391 . S
C3077 H3065 0.950 . S
C3077 C3073 1.393 . S
C3077 C3076 1.391 . S
C3078 H3068 0.950 . S
C3078 C3079 1.386 . S
C3078 C3080 1.391 . S
C3079 C3078 1.386 . S
C3079 C3083 1.393 . S
C3080 H3069 0.950 . S
C3080 C3078 1.391 . S
C3080 C3081 1.400 . S
C3081 C3075 1.491 . S
C3081 C3080 1.400 . S
C3081 C3082 1.398 . S
C3082 H3070 0.950 . S
C3082 C3081 1.398 . S
C3082 C3083 1.391 . S
C3083 H3071 0.950 . S
C3083 C3079 1.393 . S
C3083 C3082 1.391 . S
H3084 C3092 0.950 . S
H3085 C3097 0.950 . S
H3086 C3094 0.950 . S
H3087 C3096 0.950 . S
H3088 C3098 0.950 . S
H3089 C3100 0.950 . S
H3090 C3102 0.950 . S
H3091 C3103 0.950 . S
C3092 H3084 0.950 . S
C3092 C3093 1.386 . S
C3092 C3094 1.391 . S
C3093 C3092 1.386 . S
C3093 C3097 1.393 . S
C3094 H3086 0.950 . S
C3094 C3092 1.391 . S
C3094 C3095 1.400 . S
C3095 C3094 1.400 . S
C3095 C3096 1.398 . S
C3095 C3101 1.491 . S
C3096 H3087 0.950 . S
C3096 C3095 1.398 . S
C3096 C3097 1.391 . S
C3097 H3085 0.950 . S
C3097 C3093 1.393 . S
C3097 C3096 1.391 . S
C3098 H3088 0.950 . S
C3098 C3099 1.386 . S
C3098 C3100 1.391 . S
C3099 C3098 1.386 . S
C3099 C3103 1.393 . S
C3100 H3089 0.950 . S
C3100 C3098 1.391 . S
C3100 C3101 1.400 . S
C3101 C3095 1.491 . S
C3101 C3100 1.400 . S
C3101 C3102 1.398 . S
C3102 H3090 0.950 . S
C3102 C3101 1.398 . S
C3102 C3103 1.391 . S
C3103 H3091 0.950 . S
C3103 C3099 1.393 . S
C3103 C3102 1.391 . S
H3104 C3112 0.950 . S
H3105 C3117 0.950 . S
H3106 C3114 0.950 . S
H3107 C3116 0.950 . S
H3108 C3118 0.950 . S
H3109 C3120 0.950 . S
H3110 C3122 0.950 . S
H3111 C3123 0.950 . S
C3112 H3104 0.950 . S
C3112 C3113 1.386 . S
C3112 C3114 1.391 . S
C3113 C3112 1.386 . S
C3113 C3117 1.393 . S
C3114 H3106 0.950 . S
C3114 C3112 1.391 . S
C3114 C3115 1.400 . S
C3115 C3114 1.400 . S
C3115 C3116 1.398 . S
C3115 C3121 1.491 . S
C3116 H3107 0.950 . S
C3116 C3115 1.398 . S
C3116 C3117 1.391 . S
C3117 H3105 0.950 . S
C3117 C3113 1.393 . S
C3117 C3116 1.391 . S
C3118 H3108 0.950 . S
C3118 C3119 1.386 . S
C3118 C3120 1.391 . S
C3119 C3118 1.386 . S
C3119 C3123 1.393 . S
C3120 H3109 0.950 . S
C3120 C3118 1.391 . S
C3120 C3121 1.400 . S
C3121 C3115 1.491 . S
C3121 C3120 1.400 . S
C3121 C3122 1.398 . S
C3122 H3110 0.950 . S
C3122 C3121 1.398 . S
C3122 C3123 1.391 . S
C3123 H3111 0.950 . S
C3123 C3119 1.393 . S
C3123 C3122 1.391 . S
H3124 C3132 0.950 . S
H3125 C3137 0.950 . S
H3126 C3134 0.950 . S
H3127 C3136 0.950 . S
H3128 C3138 0.950 . S
H3129 C3140 0.950 . S
H3130 C3142 0.950 . S
H3131 C3143 0.950 . S
C3132 H3124 0.950 . S
C3132 C3133 1.386 . S
C3132 C3134 1.391 . S
C3133 C3132 1.386 . S
C3133 C3137 1.393 . S
C3134 H3126 0.950 . S
C3134 C3132 1.391 . S
C3134 C3135 1.400 . S
C3135 C3134 1.400 . S
C3135 C3136 1.398 . S
C3135 C3141 1.491 . S
C3136 H3127 0.950 . S
C3136 C3135 1.398 . S
C3136 C3137 1.391 . S
C3137 H3125 0.950 . S
C3137 C3133 1.393 . S
C3137 C3136 1.391 . S
C3138 H3128 0.950 . S
C3138 C3139 1.386 . S
C3138 C3140 1.391 . S
C3139 C3138 1.386 . S
C3139 C3143 1.393 . S
C3140 H3129 0.950 . S
C3140 C3138 1.391 . S
C3140 C3141 1.400 . S
C3141 C3135 1.491 . S
C3141 C3140 1.400 . S
C3141 C3142 1.398 . S
C3142 H3130 0.950 . S
C3142 C3141 1.398 . S
C3142 C3143 1.391 . S
C3143 H3131 0.950 . S
C3143 C3139 1.393 . S
C3143 C3142 1.391 . S
H3144 C3152 0.950 . S
H3145 C3157 0.950 . S
H3146 C3154 0.950 . S
H3147 C3156 0.950 . S
H3148 C3158 0.950 . S
H3149 C3160 0.950 . S
H3150 C3162 0.950 . S
H3151 C3163 0.950 . S
C3152 H3144 0.950 . S
C3152 C3153 1.386 . S
C3152 C3154 1.391 . S
C3153 C3152 1.386 . S
C3153 C3157 1.393 . S
C3154 H3146 0.950 . S
C3154 C3152 1.391 . S
C3154 C3155 1.400 . S
C3155 C3154 1.400 . S
C3155 C3156 1.398 . S
C3155 C3161 1.491 . S
C3156 H3147 0.950 . S
C3156 C3155 1.398 . S
C3156 C3157 1.391 . S
C3157 H3145 0.950 . S
C3157 C3153 1.393 . S
C3157 C3156 1.391 . S
C3158 H3148 0.950 . S
C3158 C3159 1.386 . S
C3158 C3160 1.391 . S
C3159 C3158 1.386 . S
C3159 C3163 1.393 . S
C3160 H3149 0.950 . S
C3160 C3158 1.391 . S
C3160 C3161 1.400 . S
C3161 C3155 1.491 . S
C3161 C3160 1.400 . S
C3161 C3162 1.398 . S
C3162 H3150 0.950 . S
C3162 C3161 1.398 . S
C3162 C3163 1.391 . S
C3163 H3151 0.950 . S
C3163 C3159 1.393 . S
C3163 C3162 1.391 . S
H3164 C3172 0.950 . S
H3165 C3177 0.950 . S
H3166 C3174 0.950 . S
H3167 C3176 0.950 . S
H3168 C3178 0.950 . S
H3169 C3180 0.950 . S
H3170 C3182 0.950 . S
H3171 C3183 0.950 . S
C3172 H3164 0.950 . S
C3172 C3173 1.386 . S
C3172 C3174 1.391 . S
C3173 C3172 1.386 . S
C3173 C3177 1.393 . S
C3174 H3166 0.950 . S
C3174 C3172 1.391 . S
C3174 C3175 1.400 . S
C3175 C3174 1.400 . S
C3175 C3176 1.398 . S
C3175 C3181 1.491 . S
C3176 H3167 0.950 . S
C3176 C3175 1.398 . S
C3176 C3177 1.391 . S
C3177 H3165 0.950 . S
C3177 C3173 1.393 . S
C3177 C3176 1.391 . S
C3178 H3168 0.950 . S
C3178 C3179 1.386 . S
C3178 C3180 1.391 . S
C3179 C3178 1.386 . S
C3179 C3183 1.393 . S
C3180 H3169 0.950 . S
C3180 C3178 1.391 . S
C3180 C3181 1.400 . S
C3181 C3175 1.491 . S
C3181 C3180 1.400 . S
C3181 C3182 1.398 . S
C3182 H3170 0.950 . S
C3182 C3181 1.398 . S
C3182 C3183 1.391 . S
C3183 H3171 0.950 . S
C3183 C3179 1.393 . S
C3183 C3182 1.391 . S
H3184 C3192 0.950 . S
H3185 C3197 0.950 . S
H3186 C3194 0.950 . S
H3187 C3196 0.950 . S
H3188 C3198 0.950 . S
H3189 C3200 0.950 . S
H3190 C3202 0.950 . S
H3191 C3203 0.950 . S
C3192 H3184 0.950 . S
C3192 C3193 1.386 . S
C3192 C3194 1.391 . S
C3193 C3192 1.386 . S
C3193 C3197 1.393 . S
C3194 H3186 0.950 . S
C3194 C3192 1.391 . S
C3194 C3195 1.400 . S
C3195 C3194 1.400 . S
C3195 C3196 1.398 . S
C3195 C3201 1.491 . S
C3196 H3187 0.950 . S
C3196 C3195 1.398 . S
C3196 C3197 1.391 . S
C3197 H3185 0.950 . S
C3197 C3193 1.393 . S
C3197 C3196 1.391 . S
C3198 H3188 0.950 . S
C3198 C3199 1.386 . S
C3198 C3200 1.391 . S
C3199 C3198 1.386 . S
C3199 C3203 1.393 . S
C3200 H3189 0.950 . S
C3200 C3198 1.391 . S
C3200 C3201 1.400 . S
C3201 C3195 1.491 . S
C3201 C3200 1.400 . S
C3201 C3202 1.398 . S
C3202 H3190 0.950 . S
C3202 C3201 1.398 . S
C3202 C3203 1.391 . S
C3203 H3191 0.950 . S
C3203 C3199 1.393 . S
C3203 C3202 1.391 . S
H3204 C3212 0.950 . S
H3205 C3217 0.950 . S
H3206 C3214 0.950 . S
H3207 C3216 0.950 . S
H3208 C3218 0.950 . S
H3209 C3220 0.950 . S
H3210 C3222 0.950 . S
H3211 C3223 0.950 . S
C3212 H3204 0.950 . S
C3212 C3213 1.386 . S
C3212 C3214 1.391 . S
C3213 C3212 1.386 . S
C3213 C3217 1.393 . S
C3214 H3206 0.950 . S
C3214 C3212 1.391 . S
C3214 C3215 1.400 . S
C3215 C3214 1.400 . S
C3215 C3216 1.398 . S
C3215 C3221 1.491 . S
C3216 H3207 0.950 . S
C3216 C3215 1.398 . S
C3216 C3217 1.391 . S
C3217 H3205 0.950 . S
C3217 C3213 1.393 . S
C3217 C3216 1.391 . S
C3218 H3208 0.950 . S
C3218 C3219 1.386 . S
C3218 C3220 1.391 . S
C3219 C3218 1.386 . S
C3219 C3223 1.393 . S
C3220 H3209 0.950 . S
C3220 C3218 1.391 . S
C3220 C3221 1.400 . S
C3221 C3215 1.491 . S
C3221 C3220 1.400 . S
C3221 C3222 1.398 . S
C3222 H3210 0.950 . S
C3222 C3221 1.398 . S
C3222 C3223 1.391 . S
C3223 H3211 0.950 . S
C3223 C3219 1.393 . S
C3223 C3222 1.391 . S
H3224 C3232 0.950 . S
H3225 C3237 0.950 . S
H3226 C3234 0.950 . S
H3227 C3236 0.950 . S
H3228 C3238 0.950 . S
H3229 C3240 0.950 . S
H3230 C3242 0.950 . S
H3231 C3243 0.950 . S
C3232 H3224 0.950 . S
C3232 C3233 1.386 . S
C3232 C3234 1.391 . S
C3233 C3232 1.386 . S
C3233 C3237 1.393 . S
C3234 H3226 0.950 . S
C3234 C3232 1.391 . S
C3234 C3235 1.400 . S
C3235 C3234 1.400 . S
C3235 C3236 1.398 . S
C3235 C3241 1.491 . S
C3236 H3227 0.950 . S
C3236 C3235 1.398 . S
C3236 C3237 1.391 . S
C3237 H3225 0.950 . S
C3237 C3233 1.393 . S
C3237 C3236 1.391 . S
C3238 H3228 0.950 . S
C3238 C3239 1.386 . S
C3238 C3240 1.391 . S
C3239 C3238 1.386 . S
C3239 C3243 1.393 . S
C3240 H3229 0.950 . S
C3240 C3238 1.391 . S
C3240 C3241 1.400 . S
C3241 C3235 1.491 . S
C3241 C3240 1.400 . S
C3241 C3242 1.398 . S
C3242 H3230 0.950 . S
C3242 C3241 1.398 . S
C3242 C3243 1.391 . S
C3243 H3231 0.950 . S
C3243 C3239 1.393 . S
C3243 C3242 1.391 . S
H3244 C3252 0.950 . S
H3245 C3257 0.950 . S
H3246 C3254 0.950 . S
H3247 C3256 0.950 . S
H3248 C3258 0.950 . S
H3249 C3260 0.950 . S
H3250 C3262 0.950 . S
H3251 C3263 0.950 . S
C3252 H3244 0.950 . S
C3252 C3253 1.386 . S
C3252 C3254 1.391 . S
C3253 C3252 1.386 . S
C3253 C3257 1.393 . S
C3254 H3246 0.950 . S
C3254 C3252 1.391 . S
C3254 C3255 1.400 . S
C3255 C3254 1.400 . S
C3255 C3256 1.398 . S
C3255 C3261 1.491 . S
C3256 H3247 0.950 . S
C3256 C3255 1.398 . S
C3256 C3257 1.391 . S
C3257 H3245 0.950 . S
C3257 C3253 1.393 . S
C3257 C3256 1.391 . S
C3258 H3248 0.950 . S
C3258 C3259 1.386 . S
C3258 C3260 1.391 . S
C3259 C3258 1.386 . S
C3259 C3263 1.393 . S
C3260 H3249 0.950 . S
C3260 C3258 1.391 . S
C3260 C3261 1.400 . S
C3261 C3255 1.491 . S
C3261 C3260 1.400 . S
C3261 C3262 1.398 . S
C3262 H3250 0.950 . S
C3262 C3261 1.398 . S
C3262 C3263 1.391 . S
C3263 H3251 0.950 . S
C3263 C3259 1.393 . S
C3263 C3262 1.391 . S
H3264 C3272 0.950 . S
H3265 C3277 0.950 . S
H3266 C3274 0.950 . S
H3267 C3276 0.950 . S
H3268 C3278 0.950 . S
H3269 C3280 0.950 . S
H3270 C3282 0.950 . S
H3271 C3283 0.950 . S
C3272 H3264 0.950 . S
C3272 C3273 1.386 . S
C3272 C3274 1.391 . S
C3273 C3272 1.386 . S
C3273 C3277 1.393 . S
C3274 H3266 0.950 . S
C3274 C3272 1.391 . S
C3274 C3275 1.400 . S
C3275 C3274 1.400 . S
C3275 C3276 1.398 . S
C3275 C3281 1.491 . S
C3276 H3267 0.950 . S
C3276 C3275 1.398 . S
C3276 C3277 1.391 . S
C3277 H3265 0.950 . S
C3277 C3273 1.393 . S
C3277 C3276 1.391 . S
C3278 H3268 0.950 . S
C3278 C3279 1.386 . S
C3278 C3280 1.391 . S
C3279 C3278 1.386 . S
C3279 C3283 1.393 . S
C3280 H3269 0.950 . S
C3280 C3278 1.391 . S
C3280 C3281 1.400 . S
C3281 C3275 1.491 . S
C3281 C3280 1.400 . S
C3281 C3282 1.398 . S
C3282 H3270 0.950 . S
C3282 C3281 1.398 . S
C3282 C3283 1.391 . S
C3283 H3271 0.950 . S
C3283 C3279 1.393 . S
C3283 C3282 1.391 . S
H3284 C3292 0.950 . S
H3285 C3297 0.950 . S
H3286 C3294 0.950 . S
H3287 C3296 0.950 . S
H3288 C3298 0.950 . S
H3289 C3300 0.950 . S
H3290 C3302 0.950 . S
H3291 C3303 0.950 . S
C3292 H3284 0.950 . S
C3292 C3293 1.386 . S
C3292 C3294 1.391 . S
C3293 C3292 1.386 . S
C3293 C3297 1.393 . S
C3294 H3286 0.950 . S
C3294 C3292 1.391 . S
C3294 C3295 1.400 . S
C3295 C3294 1.400 . S
C3295 C3296 1.398 . S
C3295 C3301 1.491 . S
C3296 H3287 0.950 . S
C3296 C3295 1.398 . S
C3296 C3297 1.391 . S
C3297 H3285 0.950 . S
C3297 C3293 1.393 . S
C3297 C3296 1.391 . S
C3298 H3288 0.950 . S
C3298 C3299 1.386 . S
C3298 C3300 1.391 . S
C3299 C3298 1.386 . S
C3299 C3303 1.393 . S
C3300 H3289 0.950 . S
C3300 C3298 1.391 . S
C3300 C3301 1.400 . S
C3301 C3295 1.491 . S
C3301 C3300 1.400 . S
C3301 C3302 1.398 . S
C3302 H3290 0.950 . S
C3302 C3301 1.398 . S
C3302 C3303 1.391 . S
C3303 H3291 0.950 . S
C3303 C3299 1.393 . S
C3303 C3302 1.391 . S
H3304 C3312 0.950 . S
H3305 C3317 0.950 . S
H3306 C3314 0.950 . S
H3307 C3316 0.950 . S
H3308 C3318 0.950 . S
H3309 C3320 0.950 . S
H3310 C3322 0.950 . S
H3311 C3323 0.950 . S
C3312 H3304 0.950 . S
C3312 C3313 1.386 . S
C3312 C3314 1.391 . S
C3313 C3312 1.386 . S
C3313 C3317 1.393 . S
C3314 H3306 0.950 . S
C3314 C3312 1.391 . S
C3314 C3315 1.400 . S
C3315 C3314 1.400 . S
C3315 C3316 1.398 . S
C3315 C3321 1.491 . S
C3316 H3307 0.950 . S
C3316 C3315 1.398 . S
C3316 C3317 1.391 . S
C3317 H3305 0.950 . S
C3317 C3313 1.393 . S
C3317 C3316 1.391 . S
C3318 H3308 0.950 . S
C3318 C3319 1.386 . S
C3318 C3320 1.391 . S
C3319 C3318 1.386 . S
C3319 C3323 1.393 . S
C3320 H3309 0.950 . S
C3320 C3318 1.391 . S
C3320 C3321 1.400 . S
C3321 C3315 1.491 . S
C3321 C3320 1.400 . S
C3321 C3322 1.398 . S
C3322 H3310 0.950 . S
C3322 C3321 1.398 . S
C3322 C3323 1.391 . S
C3323 H3311 0.950 . S
C3323 C3319 1.393 . S
C3323 C3322 1.391 . S
H3324 C3332 0.950 . S
H3325 C3337 0.950 . S
H3326 C3334 0.950 . S
H3327 C3336 0.950 . S
H3328 C3338 0.950 . S
H3329 C3340 0.950 . S
H3330 C3342 0.950 . S
H3331 C3343 0.950 . S
C3332 H3324 0.950 . S
C3332 C3333 1.386 . S
C3332 C3334 1.391 . S
C3333 C3332 1.386 . S
C3333 C3337 1.393 . S
C3334 H3326 0.950 . S
C3334 C3332 1.391 . S
C3334 C3335 1.400 . S
C3335 C3334 1.400 . S
C3335 C3336 1.398 . S
C3335 C3341 1.491 . S
C3336 H3327 0.950 . S
C3336 C3335 1.398 . S
C3336 C3337 1.391 . S
C3337 H3325 0.950 . S
C3337 C3333 1.393 . S
C3337 C3336 1.391 . S
C3338 H3328 0.950 . S
C3338 C3339 1.386 . S
C3338 C3340 1.391 . S
C3339 C3338 1.386 . S
C3339 C3343 1.393 . S
C3340 H3329 0.950 . S
C3340 C3338 1.391 . S
C3340 C3341 1.400 . S
C3341 C3335 1.491 . S
C3341 C3340 1.400 . S
C3341 C3342 1.398 . S
C3342 H3330 0.950 . S
C3342 C3341 1.398 . S
C3342 C3343 1.391 . S
C3343 H3331 0.950 . S
C3343 C3339 1.393 . S
C3343 C3342 1.391 . S
H3344 C3352 0.950 . S
H3345 C3357 0.950 . S
H3346 C3354 0.950 . S
H3347 C3356 0.950 . S
H3348 C3358 0.950 . S
H3349 C3360 0.950 . S
H3350 C3362 0.950 . S
H3351 C3363 0.950 . S
C3352 H3344 0.950 . S
C3352 C3353 1.386 . S
C3352 C3354 1.391 . S
C3353 C3352 1.386 . S
C3353 C3357 1.393 . S
C3354 H3346 0.950 . S
C3354 C3352 1.391 . S
C3354 C3355 1.400 . S
C3355 C3354 1.400 . S
C3355 C3356 1.398 . S
C3355 C3361 1.491 . S
C3356 H3347 0.950 . S
C3356 C3355 1.398 . S
C3356 C3357 1.391 . S
C3357 H3345 0.950 . S
C3357 C3353 1.393 . S
C3357 C3356 1.391 . S
C3358 H3348 0.950 . S
C3358 C3359 1.386 . S
C3358 C3360 1.391 . S
C3359 C3358 1.386 . S
C3359 C3363 1.393 . S
C3360 H3349 0.950 . S
C3360 C3358 1.391 . S
C3360 C3361 1.400 . S
C3361 C3355 1.491 . S
C3361 C3360 1.400 . S
C3361 C3362 1.398 . S
C3362 H3350 0.950 . S
C3362 C3361 1.398 . S
C3362 C3363 1.391 . S
C3363 H3351 0.950 . S
C3363 C3359 1.393 . S
C3363 C3362 1.391 . S
H3364 C3372 0.950 . S
H3365 C3377 0.950 . S
H3366 C3374 0.950 . S
H3367 C3376 0.950 . S
H3368 C3378 0.950 . S
H3369 C3380 0.950 . S
H3370 C3382 0.950 . S
H3371 C3383 0.950 . S
C3372 H3364 0.950 . S
C3372 C3373 1.386 . S
C3372 C3374 1.391 . S
C3373 C3372 1.386 . S
C3373 C3377 1.393 . S
C3374 H3366 0.950 . S
C3374 C3372 1.391 . S
C3374 C3375 1.400 . S
C3375 C3374 1.400 . S
C3375 C3376 1.398 . S
C3375 C3381 1.491 . S
C3376 H3367 0.950 . S
C3376 C3375 1.398 . S
C3376 C3377 1.391 . S
C3377 H3365 0.950 . S
C3377 C3373 1.393 . S
C3377 C3376 1.391 . S
C3378 H3368 0.950 . S
C3378 C3379 1.386 . S
C3378 C3380 1.391 . S
C3379 C3378 1.386 . S
C3379 C3383 1.393 . S
C3380 H3369 0.950 . S
C3380 C3378 1.391 . S
C3380 C3381 1.400 . S
C3381 C3375 1.491 . S
C3381 C3380 1.400 . S
C3381 C3382 1.398 . S
C3382 H3370 0.950 . S
C3382 C3381 1.398 . S
C3382 C3383 1.391 . S
C3383 H3371 0.950 . S
C3383 C3379 1.393 . S
C3383 C3382 1.391 . S
H3384 C3392 0.950 . S
H3385 C3397 0.950 . S
H3386 C3394 0.950 . S
H3387 C3396 0.950 . S
H3388 C3398 0.950 . S
H3389 C3400 0.950 . S
H3390 C3402 0.950 . S
H3391 C3403 0.950 . S
C3392 H3384 0.950 . S
C3392 C3393 1.386 . S
C3392 C3394 1.391 . S
C3393 C3392 1.386 . S
C3393 C3397 1.393 . S
C3394 H3386 0.950 . S
C3394 C3392 1.391 . S
C3394 C3395 1.400 . S
C3395 C3394 1.400 . S
C3395 C3396 1.398 . S
C3395 C3401 1.491 . S
C3396 H3387 0.950 . S
C3396 C3395 1.398 . S
C3396 C3397 1.391 . S
C3397 H3385 0.950 . S
C3397 C3393 1.393 . S
C3397 C3396 1.391 . S
C3398 H3388 0.950 . S
C3398 C3399 1.386 . S
C3398 C3400 1.391 . S
C3399 C3398 1.386 . S
C3399 C3403 1.393 . S
C3400 H3389 0.950 . S
C3400 C3398 1.391 . S
C3400 C3401 1.400 . S
C3401 C3395 1.491 . S
C3401 C3400 1.400 . S
C3401 C3402 1.398 . S
C3402 H3390 0.950 . S
C3402 C3401 1.398 . S
C3402 C3403 1.391 . S
C3403 H3391 0.950 . S
C3403 C3399 1.393 . S
C3403 C3402 1.391 . S
H3404 C3412 0.950 . S
H3405 C3417 0.950 . S
H3406 C3414 0.950 . S
H3407 C3416 0.950 . S
H3408 C3418 0.950 . S
H3409 C3420 0.950 . S
H3410 C3422 0.950 . S
H3411 C3423 0.950 . S
C3412 H3404 0.950 . S
C3412 C3413 1.386 . S
C3412 C3414 1.391 . S
C3413 C3412 1.386 . S
C3413 C3417 1.393 . S
C3414 H3406 0.950 . S
C3414 C3412 1.391 . S
C3414 C3415 1.400 . S
C3415 C3414 1.400 . S
C3415 C3416 1.398 . S
C3415 C3421 1.491 . S
C3416 H3407 0.950 . S
C3416 C3415 1.398 . S
C3416 C3417 1.391 . S
C3417 H3405 0.950 . S
C3417 C3413 1.393 . S
C3417 C3416 1.391 . S
C3418 H3408 0.950 . S
C3418 C3419 1.386 . S
C3418 C3420 1.391 . S
C3419 C3418 1.386 . S
C3419 C3423 1.393 . S
C3420 H3409 0.950 . S
C3420 C3418 1.391 . S
C3420 C3421 1.400 . S
C3421 C3415 1.491 . S
C3421 C3420 1.400 . S
C3421 C3422 1.398 . S
C3422 H3410 0.950 . S
C3422 C3421 1.398 . S
C3422 C3423 1.391 . S
C3423 H3411 0.950 . S
C3423 C3419 1.393 . S
C3423 C3422 1.391 . S
H3424 C3432 0.950 . S
H3425 C3437 0.950 . S
H3426 C3434 0.950 . S
H3427 C3436 0.950 . S
H3428 C3438 0.950 . S
H3429 C3440 0.950 . S
H3430 C3442 0.950 . S
H3431 C3443 0.950 . S
C3432 H3424 0.950 . S
C3432 C3433 1.386 . S
C3432 C3434 1.391 . S
C3433 C3432 1.386 . S
C3433 C3437 1.393 . S
C3434 H3426 0.950 . S
C3434 C3432 1.391 . S
C3434 C3435 1.400 . S
C3435 C3434 1.400 . S
C3435 C3436 1.398 . S
C3435 C3441 1.491 . S
C3436 H3427 0.950 . S
C3436 C3435 1.398 . S
C3436 C3437 1.391 . S
C3437 H3425 0.950 . S
C3437 C3433 1.393 . S
C3437 C3436 1.391 . S
C3438 H3428 0.950 . S
C3438 C3439 1.386 . S
C3438 C3440 1.391 . S
C3439 C3438 1.386 . S
C3439 C3443 1.393 . S
C3440 H3429 0.950 . S
C3440 C3438 1.391 . S
C3440 C3441 1.400 . S
C3441 C3435 1.491 . S
C3441 C3440 1.400 . S
C3441 C3442 1.398 . S
C3442 H3430 0.950 . S
C3442 C3441 1.398 . S
C3442 C3443 1.391 . S
C3443 H3431 0.950 . S
C3443 C3439 1.393 . S
C3443 C3442 1.391 . S
H3444 C3452 0.950 . S
H3445 C3457 0.950 . S
H3446 C3454 0.950 . S
H3447 C3456 0.950 . S
H3448 C3458 0.950 . S
H3449 C3460 0.950 . S
H3450 C3462 0.950 . S
H3451 C3463 0.950 . S
C3452 H3444 0.950 . S
C3452 C3453 1.386 . S
C3452 C3454 1.391 . S
C3453 C3452 1.386 . S
C3453 C3457 1.393 . S
C3454 H3446 0.950 . S
C3454 C3452 1.391 . S
C3454 C3455 1.400 . S
C3455 C3454 1.400 . S
C3455 C3456 1.398 . S
C3455 C3461 1.491 . S
C3456 H3447 0.950 . S
C3456 C3455 1.398 . S
C3456 C3457 1.391 . S
C3457 H3445 0.950 . S
C3457 C3453 1.393 . S
C3457 C3456 1.391 . S
C3458 H3448 0.950 . S
C3458 C3459 1.386 . S
C3458 C3460 1.391 . S
C3459 C3458 1.386 . S
C3459 C3463 1.393 . S
C3460 H3449 0.950 . S
C3460 C3458 1.391 . S
C3460 C3461 1.400 . S
C3461 C3455 1.491 . S
C3461 C3460 1.400 . S
C3461 C3462 1.398 . S
C3462 H3450 0.950 . S
C3462 C3461 1.398 . S
C3462 C3463 1.391 . S
C3463 H3451 0.950 . S
C3463 C3459 1.393 . S
C3463 C3462 1.391 . S
H3464 C3472 0.950 . S
H3465 C3477 0.950 . S
H3466 C3474 0.950 . S
H3467 C3476 0.950 . S
H3468 C3478 0.950 . S
H3469 C3480 0.950 . S
H3470 C3482 0.950 . S
H3471 C3483 0.950 . S
C3472 H3464 0.950 . S
C3472 C3473 1.386 . S
C3472 C3474 1.391 . S
C3473 C3472 1.386 . S
C3473 C3477 1.393 . S
C3474 H3466 0.950 . S
C3474 C3472 1.391 . S
C3474 C3475 1.400 . S
C3475 C3474 1.400 . S
C3475 C3476 1.398 . S
C3475 C3481 1.491 . S
C3476 H3467 0.950 . S
C3476 C3475 1.398 . S
C3476 C3477 1.391 . S
C3477 H3465 0.950 . S
C3477 C3473 1.393 . S
C3477 C3476 1.391 . S
C3478 H3468 0.950 . S
C3478 C3479 1.386 . S
C3478 C3480 1.391 . S
C3479 C3478 1.386 . S
C3479 C3483 1.393 . S
C3480 H3469 0.950 . S
C3480 C3478 1.391 . S
C3480 C3481 1.400 . S
C3481 C3475 1.491 . S
C3481 C3480 1.400 . S
C3481 C3482 1.398 . S
C3482 H3470 0.950 . S
C3482 C3481 1.398 . S
C3482 C3483 1.391 . S
C3483 H3471 0.950 . S
C3483 C3479 1.393 . S
C3483 C3482 1.391 . S
H3484 C3492 0.950 . S
H3485 C3497 0.950 . S
H3486 C3494 0.950 . S
H3487 C3496 0.950 . S
H3488 C3498 0.950 . S
H3489 C3500 0.950 . S
H3490 C3502 0.950 . S
H3491 C3503 0.950 . S
C3492 H3484 0.950 . S
C3492 C3493 1.386 . S
C3492 C3494 1.391 . S
C3493 C3492 1.386 . S
C3493 C3497 1.393 . S
C3494 H3486 0.950 . S
C3494 C3492 1.391 . S
C3494 C3495 1.400 . S
C3495 C3494 1.400 . S
C3495 C3496 1.398 . S
C3495 C3501 1.491 . S
C3496 H3487 0.950 . S
C3496 C3495 1.398 . S
C3496 C3497 1.391 . S
C3497 H3485 0.950 . S
C3497 C3493 1.393 . S
C3497 C3496 1.391 . S
C3498 H3488 0.950 . S
C3498 C3499 1.386 . S
C3498 C3500 1.391 . S
C3499 C3498 1.386 . S
C3499 C3503 1.393 . S
C3500 H3489 0.950 . S
C3500 C3498 1.391 . S
C3500 C3501 1.400 . S
C3501 C3495 1.491 . S
C3501 C3500 1.400 . S
C3501 C3502 1.398 . S
C3502 H3490 0.950 . S
C3502 C3501 1.398 . S
C3502 C3503 1.391 . S
C3503 H3491 0.950 . S
C3503 C3499 1.393 . S
C3503 C3502 1.391 . S
H3504 C3512 0.950 . S
H3505 C3517 0.950 . S
H3506 C3514 0.950 . S
H3507 C3516 0.950 . S
H3508 C3518 0.950 . S
H3509 C3520 0.950 . S
H3510 C3522 0.950 . S
H3511 C3523 0.950 . S
C3512 H3504 0.950 . S
C3512 C3513 1.386 . S
C3512 C3514 1.391 . S
C3513 C3512 1.386 . S
C3513 C3517 1.393 . S
C3514 H3506 0.950 . S
C3514 C3512 1.391 . S
C3514 C3515 1.400 . S
C3515 C3514 1.400 . S
C3515 C3516 1.398 . S
C3515 C3521 1.491 . S
C3516 H3507 0.950 . S
C3516 C3515 1.398 . S
C3516 C3517 1.391 . S
C3517 H3505 0.950 . S
C3517 C3513 1.393 . S
C3517 C3516 1.391 . S
C3518 H3508 0.950 . S
C3518 C3519 1.386 . S
C3518 C3520 1.391 . S
C3519 C3518 1.386 . S
C3519 C3523 1.393 . S
C3520 H3509 0.950 . S
C3520 C3518 1.391 . S
C3520 C3521 1.400 . S
C3521 C3515 1.491 . S
C3521 C3520 1.400 . S
C3521 C3522 1.398 . S
C3522 H3510 0.950 . S
C3522 C3521 1.398 . S
C3522 C3523 1.391 . S
C3523 H3511 0.950 . S
C3523 C3519 1.393 . S
C3523 C3522 1.391 . S
H3524 C3532 0.950 . S
H3525 C3537 0.950 . S
H3526 C3534 0.950 . S
H3527 C3536 0.950 . S
H3528 C3538 0.950 . S
H3529 C3540 0.950 . S
H3530 C3542 0.950 . S
H3531 C3543 0.950 . S
C3532 H3524 0.950 . S
C3532 C3533 1.386 . S
C3532 C3534 1.391 . S
C3533 C3532 1.386 . S
C3533 C3537 1.393 . S
C3534 H3526 0.950 . S
C3534 C3532 1.391 . S
C3534 C3535 1.400 . S
C3535 C3534 1.400 . S
C3535 C3536 1.398 . S
C3535 C3541 1.491 . S
C3536 H3527 0.950 . S
C3536 C3535 1.398 . S
C3536 C3537 1.391 . S
C3537 H3525 0.950 . S
C3537 C3533 1.393 . S
C3537 C3536 1.391 . S
C3538 H3528 0.950 . S
C3538 C3539 1.386 . S
C3538 C3540 1.391 . S
C3539 C3538 1.386 . S
C3539 C3543 1.393 . S
C3540 H3529 0.950 . S
C3540 C3538 1.391 . S
C3540 C3541 1.400 . S
C3541 C3535 1.491 . S
C3541 C3540 1.400 . S
C3541 C3542 1.398 . S
C3542 H3530 0.950 . S
C3542 C3541 1.398 . S
C3542 C3543 1.391 . S
C3543 H3531 0.950 . S
C3543 C3539 1.393 . S
C3543 C3542 1.391 . S
H3544 C3552 0.950 . S
H3545 C3557 0.950 . S
H3546 C3554 0.950 . S
H3547 C3556 0.950 . S
H3548 C3558 0.950 . S
H3549 C3560 0.950 . S
H3550 C3562 0.950 . S
H3551 C3563 0.950 . S
C3552 H3544 0.950 . S
C3552 C3553 1.386 . S
C3552 C3554 1.391 . S
C3553 C3552 1.386 . S
C3553 C3557 1.393 . S
C3554 H3546 0.950 . S
C3554 C3552 1.391 . S
C3554 C3555 1.400 . S
C3555 C3554 1.400 . S
C3555 C3556 1.398 . S
C3555 C3561 1.491 . S
C3556 H3547 0.950 . S
C3556 C3555 1.398 . S
C3556 C3557 1.391 . S
C3557 H3545 0.950 . S
C3557 C3553 1.393 . S
C3557 C3556 1.391 . S
C3558 H3548 0.950 . S
C3558 C3559 1.386 . S
C3558 C3560 1.391 . S
C3559 C3558 1.386 . S
C3559 C3563 1.393 . S
C3560 H3549 0.950 . S
C3560 C3558 1.391 . S
C3560 C3561 1.400 . S
C3561 C3555 1.491 . S
C3561 C3560 1.400 . S
C3561 C3562 1.398 . S
C3562 H3550 0.950 . S
C3562 C3561 1.398 . S
C3562 C3563 1.391 . S
C3563 H3551 0.950 . S
C3563 C3559 1.393 . S
C3563 C3562 1.391 . S
H3564 C3572 0.950 . S
H3565 C3577 0.950 . S
H3566 C3574 0.950 . S
H3567 C3576 0.950 . S
H3568 C3578 0.950 . S
H3569 C3580 0.950 . S
H3570 C3582 0.950 . S
H3571 C3583 0.950 . S
C3572 H3564 0.950 . S
C3572 C3573 1.386 . S
C3572 C3574 1.391 . S
C3573 C3572 1.386 . S
C3573 C3577 1.393 . S
C3574 H3566 0.950 . S
C3574 C3572 1.391 . S
C3574 C3575 1.400 . S
C3575 C3574 1.400 . S
C3575 C3576 1.398 . S
C3575 C3581 1.491 . S
C3576 H3567 0.950 . S
C3576 C3575 1.398 . S
C3576 C3577 1.391 . S
C3577 H3565 0.950 . S
C3577 C3573 1.393 . S
C3577 C3576 1.391 . S
C3578 H3568 0.950 . S
C3578 C3579 1.386 . S
C3578 C3580 1.391 . S
C3579 C3578 1.386 . S
C3579 C3583 1.393 . S
C3580 H3569 0.950 . S
C3580 C3578 1.391 . S
C3580 C3581 1.400 . S
C3581 C3575 1.491 . S
C3581 C3580 1.400 . S
C3581 C3582 1.398 . S
C3582 H3570 0.950 . S
C3582 C3581 1.398 . S
C3582 C3583 1.391 . S
C3583 H3571 0.950 . S
C3583 C3579 1.393 . S
C3583 C3582 1.391 . S
H3584 C3592 0.950 . S
H3585 C3597 0.950 . S
H3586 C3594 0.950 . S
H3587 C3596 0.950 . S
H3588 C3598 0.950 . S
H3589 C3600 0.950 . S
H3590 C3602 0.950 . S
H3591 C3603 0.950 . S
C3592 H3584 0.950 . S
C3592 C3593 1.386 . S
C3592 C3594 1.391 . S
C3593 C3592 1.386 . S
C3593 C3597 1.393 . S
C3594 H3586 0.950 . S
C3594 C3592 1.391 . S
C3594 C3595 1.400 . S
C3595 C3594 1.400 . S
C3595 C3596 1.398 . S
C3595 C3601 1.491 . S
C3596 H3587 0.950 . S
C3596 C3595 1.398 . S
C3596 C3597 1.391 . S
C3597 H3585 0.950 . S
C3597 C3593 1.393 . S
C3597 C3596 1.391 . S
C3598 H3588 0.950 . S
C3598 C3599 1.386 . S
C3598 C3600 1.391 . S
C3599 C3598 1.386 . S
C3599 C3603 1.393 . S
C3600 H3589 0.950 . S
C3600 C3598 1.391 . S
C3600 C3601 1.400 . S
C3601 C3595 1.491 . S
C3601 C3600 1.400 . S
C3601 C3602 1.398 . S
C3602 H3590 0.950 . S
C3602 C3601 1.398 . S
C3602 C3603 1.391 . S
C3603 H3591 0.950 . S
C3603 C3599 1.393 . S
C3603 C3602 1.391 . S
H3604 C3612 0.950 . S
H3605 C3617 0.950 . S
H3606 C3614 0.950 . S
H3607 C3616 0.950 . S
H3608 C3618 0.950 . S
H3609 C3620 0.950 . S
H3610 C3622 0.950 . S
H3611 C3623 0.950 . S
C3612 H3604 0.950 . S
C3612 C3613 1.386 . S
C3612 C3614 1.391 . S
C3613 C3612 1.386 . S
C3613 C3617 1.393 . S
C3614 H3606 0.950 . S
C3614 C3612 1.391 . S
C3614 C3615 1.400 . S
C3615 C3614 1.400 . S
C3615 C3616 1.398 . S
C3615 C3621 1.491 . S
C3616 H3607 0.950 . S
C3616 C3615 1.398 . S
C3616 C3617 1.391 . S
C3617 H3605 0.950 . S
C3617 C3613 1.393 . S
C3617 C3616 1.391 . S
C3618 H3608 0.950 . S
C3618 C3619 1.386 . S
C3618 C3620 1.391 . S
C3619 C3618 1.386 . S
C3619 C3623 1.393 . S
C3620 H3609 0.950 . S
C3620 C3618 1.391 . S
C3620 C3621 1.400 . S
C3621 C3615 1.491 . S
C3621 C3620 1.400 . S
C3621 C3622 1.398 . S
C3622 H3610 0.950 . S
C3622 C3621 1.398 . S
C3622 C3623 1.391 . S
C3623 H3611 0.950 . S
C3623 C3619 1.393 . S
C3623 C3622 1.391 . S
H3624 C3632 0.950 . S
H3625 C3637 0.950 . S
H3626 C3634 0.950 . S
H3627 C3636 0.950 . S
H3628 C3638 0.950 . S
H3629 C3640 0.950 . S
H3630 C3642 0.950 . S
H3631 C3643 0.950 . S
C3632 H3624 0.950 . S
C3632 C3633 1.386 . S
C3632 C3634 1.391 . S
C3633 C3632 1.386 . S
C3633 C3637 1.393 . S
C3634 H3626 0.950 . S
C3634 C3632 1.391 . S
C3634 C3635 1.400 . S
C3635 C3634 1.400 . S
C3635 C3636 1.398 . S
C3635 C3641 1.491 . S
C3636 H3627 0.950 . S
C3636 C3635 1.398 . S
C3636 C3637 1.391 . S
C3637 H3625 0.950 . S
C3637 C3633 1.393 . S
C3637 C3636 1.391 . S
C3638 H3628 0.950 . S
C3638 C3639 1.386 . S
C3638 C3640 1.391 . S
C3639 C3638 1.386 . S
C3639 C3643 1.393 . S
C3640 H3629 0.950 . S
C3640 C3638 1.391 . S
C3640 C3641 1.400 . S
C3641 C3635 1.491 . S
C3641 C3640 1.400 . S
C3641 C3642 1.398 . S
C3642 H3630 0.950 . S
C3642 C3641 1.398 . S
C3642 C3643 1.391 . S
C3643 H3631 0.950 . S
C3643 C3639 1.393 . S
C3643 C3642 1.391 . S
H3644 C3652 0.950 . S
H3645 C3657 0.950 . S
H3646 C3654 0.950 . S
H3647 C3656 0.950 . S
H3648 C3658 0.950 . S
H3649 C3660 0.950 . S
H3650 C3662 0.950 . S
H3651 C3663 0.950 . S
C3652 H3644 0.950 . S
C3652 C3653 1.386 . S
C3652 C3654 1.391 . S
C3653 C3652 1.386 . S
C3653 C3657 1.393 . S
C3654 H3646 0.950 . S
C3654 C3652 1.391 . S
C3654 C3655 1.400 . S
C3655 C3654 1.400 . S
C3655 C3656 1.398 . S
C3655 C3661 1.491 . S
C3656 H3647 0.950 . S
C3656 C3655 1.398 . S
C3656 C3657 1.391 . S
C3657 H3645 0.950 . S
C3657 C3653 1.393 . S
C3657 C3656 1.391 . S
C3658 H3648 0.950 . S
C3658 C3659 1.386 . S
C3658 C3660 1.391 . S
C3659 C3658 1.386 . S
C3659 C3663 1.393 . S
C3660 H3649 0.950 . S
C3660 C3658 1.391 . S
C3660 C3661 1.400 . S
C3661 C3655 1.491 . S
C3661 C3660 1.400 . S
C3661 C3662 1.398 . S
C3662 H3650 0.950 . S
C3662 C3661 1.398 . S
C3662 C3663 1.391 . S
C3663 H3651 0.950 . S
C3663 C3659 1.393 . S
C3663 C3662 1.391 . S
H3664 C3672 0.950 . S
H3665 C3677 0.950 . S
H3666 C3674 0.950 . S
H3667 C3676 0.950 . S
H3668 C3678 0.950 . S
H3669 C3680 0.950 . S
H3670 C3682 0.950 . S
H3671 C3683 0.950 . S
C3672 H3664 0.950 . S
C3672 C3673 1.386 . S
C3672 C3674 1.391 . S
C3673 C3672 1.386 . S
C3673 C3677 1.393 . S
C3674 H3666 0.950 . S
C3674 C3672 1.391 . S
C3674 C3675 1.400 . S
C3675 C3674 1.400 . S
C3675 C3676 1.398 . S
C3675 C3681 1.491 . S
C3676 H3667 0.950 . S
C3676 C3675 1.398 . S
C3676 C3677 1.391 . S
C3677 H3665 0.950 . S
C3677 C3673 1.393 . S
C3677 C3676 1.391 . S
C3678 H3668 0.950 . S
C3678 C3679 1.386 . S
C3678 C3680 1.391 . S
C3679 C3678 1.386 . S
C3679 C3683 1.393 . S
C3680 H3669 0.950 . S
C3680 C3678 1.391 . S
C3680 C3681 1.400 . S
C3681 C3675 1.491 . S
C3681 C3680 1.400 . S
C3681 C3682 1.398 . S
C3682 H3670 0.950 . S
C3682 C3681 1.398 . S
C3682 C3683 1.391 . S
C3683 H3671 0.950 . S
C3683 C3679 1.393 . S
C3683 C3682 1.391 . S
H3684 C3692 0.950 . S
H3685 C3697 0.950 . S
H3686 C3694 0.950 . S
H3687 C3696 0.950 . S
H3688 C3698 0.950 . S
H3689 C3700 0.950 . S
H3690 C3702 0.950 . S
H3691 C3703 0.950 . S
C3692 H3684 0.950 . S
C3692 C3693 1.386 . S
C3692 C3694 1.391 . S
C3693 C3692 1.386 . S
C3693 C3697 1.393 . S
C3694 H3686 0.950 . S
C3694 C3692 1.391 . S
C3694 C3695 1.400 . S
C3695 C3694 1.400 . S
C3695 C3696 1.398 . S
C3695 C3701 1.491 . S
C3696 H3687 0.950 . S
C3696 C3695 1.398 . S
C3696 C3697 1.391 . S
C3697 H3685 0.950 . S
C3697 C3693 1.393 . S
C3697 C3696 1.391 . S
C3698 H3688 0.950 . S
C3698 C3699 1.386 . S
C3698 C3700 1.391 . S
C3699 C3698 1.386 . S
C3699 C3703 1.393 . S
C3700 H3689 0.950 . S
C3700 C3698 1.391 . S
C3700 C3701 1.400 . S
C3701 C3695 1.491 . S
C3701 C3700 1.400 . S
C3701 C3702 1.398 . S
C3702 H3690 0.950 . S
C3702 C3701 1.398 . S
C3702 C3703 1.391 . S
C3703 H3691 0.950 . S
C3703 C3699 1.393 . S
C3703 C3702 1.391 . S
H3704 C3712 0.950 . S
H3705 C3717 0.950 . S
H3706 C3714 0.950 . S
H3707 C3716 0.950 . S
H3708 C3718 0.950 . S
H3709 C3720 0.950 . S
H3710 C3722 0.950 . S
H3711 C3723 0.950 . S
C3712 H3704 0.950 . S
C3712 C3713 1.386 . S
C3712 C3714 1.391 . S
C3713 C3712 1.386 . S
C3713 C3717 1.393 . S
C3714 H3706 0.950 . S
C3714 C3712 1.391 . S
C3714 C3715 1.400 . S
C3715 C3714 1.400 . S
C3715 C3716 1.398 . S
C3715 C3721 1.491 . S
C3716 H3707 0.950 . S
C3716 C3715 1.398 . S
C3716 C3717 1.391 . S
C3717 H3705 0.950 . S
C3717 C3713 1.393 . S
C3717 C3716 1.391 . S
C3718 H3708 0.950 . S
C3718 C3719 1.386 . S
C3718 C3720 1.391 . S
C3719 C3718 1.386 . S
C3719 C3723 1.393 . S
C3720 H3709 0.950 . S
C3720 C3718 1.391 . S
C3720 C3721 1.400 . S
C3721 C3715 1.491 . S
C3721 C3720 1.400 . S
C3721 C3722 1.398 . S
C3722 H3710 0.950 . S
C3722 C3721 1.398 . S
C3722 C3723 1.391 . S
C3723 H3711 0.950 . S
C3723 C3719 1.393 . S
C3723 C3722 1.391 . S
H3724 C3732 0.950 . S
H3725 C3737 0.950 . S
H3726 C3734 0.950 . S
H3727 C3736 0.950 . S
H3728 C3738 0.950 . S
H3729 C3740 0.950 . S
H3730 C3742 0.950 . S
H3731 C3743 0.950 . S
C3732 H3724 0.950 . S
C3732 C3733 1.386 . S
C3732 C3734 1.391 . S
C3733 C3732 1.386 . S
C3733 C3737 1.393 . S
C3734 H3726 0.950 . S
C3734 C3732 1.391 . S
C3734 C3735 1.400 . S
C3735 C3734 1.400 . S
C3735 C3736 1.398 . S
C3735 C3741 1.491 . S
C3736 H3727 0.950 . S
C3736 C3735 1.398 . S
C3736 C3737 1.391 . S
C3737 H3725 0.950 . S
C3737 C3733 1.393 . S
C3737 C3736 1.391 . S
C3738 H3728 0.950 . S
C3738 C3739 1.386 . S
C3738 C3740 1.391 . S
C3739 C3738 1.386 . S
C3739 C3743 1.393 . S
C3740 H3729 0.950 . S
C3740 C3738 1.391 . S
C3740 C3741 1.400 . S
C3741 C3735 1.491 . S
C3741 C3740 1.400 . S
C3741 C3742 1.398 . S
C3742 H3730 0.950 . S
C3742 C3741 1.398 . S
C3742 C3743 1.391 . S
C3743 H3731 0.950 . S
C3743 C3739 1.393 . S
C3743 C3742 1.391 . S
H3744 C3752 0.950 . S
H3745 C3757 0.950 . S
H3746 C3754 0.950 . S
H3747 C3756 0.950 . S
H3748 C3758 0.950 . S
H3749 C3760 0.950 . S
H3750 C3762 0.950 . S
H3751 C3763 0.950 . S
C3752 H3744 0.950 . S
C3752 C3753 1.386 . S
C3752 C3754 1.391 . S
C3753 C3752 1.386 . S
C3753 C3757 1.393 . S
C3754 H3746 0.950 . S
C3754 C3752 1.391 . S
C3754 C3755 1.400 . S
C3755 C3754 1.400 . S
C3755 C3756 1.398 . S
C3755 C3761 1.491 . S
C3756 H3747 0.950 . S
C3756 C3755 1.398 . S
C3756 C3757 1.391 . S
C3757 H3745 0.950 . S
C3757 C3753 1.393 . S
C3757 C3756 1.391 . S
C3758 H3748 0.950 . S
C3758 C3759 1.386 . S
C3758 C3760 1.391 . S
C3759 C3758 1.386 . S
C3759 C3763 1.393 . S
C3760 H3749 0.950 . S
C3760 C3758 1.391 . S
C3760 C3761 1.400 . S
C3761 C3755 1.491 . S
C3761 C3760 1.400 . S
C3761 C3762 1.398 . S
C3762 H3750 0.950 . S
C3762 C3761 1.398 . S
C3762 C3763 1.391 . S
C3763 H3751 0.950 . S
C3763 C3759 1.393 . S
C3763 C3762 1.391 . S
H3764 C3772 0.950 . S
H3765 C3777 0.950 . S
H3766 C3774 0.950 . S
H3767 C3776 0.950 . S
H3768 C3778 0.950 . S
H3769 C3780 0.950 . S
H3770 C3782 0.950 . S
H3771 C3783 0.950 . S
C3772 H3764 0.950 . S
C3772 C3773 1.386 . S
C3772 C3774 1.391 . S
C3773 C3772 1.386 . S
C3773 C3777 1.393 . S
C3774 H3766 0.950 . S
C3774 C3772 1.391 . S
C3774 C3775 1.400 . S
C3775 C3774 1.400 . S
C3775 C3776 1.398 . S
C3775 C3781 1.491 . S
C3776 H3767 0.950 . S
C3776 C3775 1.398 . S
C3776 C3777 1.391 . S
C3777 H3765 0.950 . S
C3777 C3773 1.393 . S
C3777 C3776 1.391 . S
C3778 H3768 0.950 . S
C3778 C3779 1.386 . S
C3778 C3780 1.391 . S
C3779 C3778 1.386 . S
C3779 C3783 1.393 . S
C3780 H3769 0.950 . S
C3780 C3778 1.391 . S
C3780 C3781 1.400 . S
C3781 C3775 1.491 . S
C3781 C3780 1.400 . S
C3781 C3782 1.398 . S
C3782 H3770 0.950 . S
C3782 C3781 1.398 . S
C3782 C3783 1.391 . S
C3783 H3771 0.950 . S
C3783 C3779 1.393 . S
C3783 C3782 1.391 . S
H3784 C3792 0.950 . S
H3785 C3797 0.950 . S
H3786 C3794 0.950 . S
H3787 C3796 0.950 . S
H3788 C3798 0.950 . S
H3789 C3800 0.950 . S
H3790 C3802 0.950 . S
H3791 C3803 0.950 . S
C3792 H3784 0.950 . S
C3792 C3793 1.386 . S
C3792 C3794 1.391 . S
C3793 C3792 1.386 . S
C3793 C3797 1.393 . S
C3794 H3786 0.950 . S
C3794 C3792 1.391 . S
C3794 C3795 1.400 . S
C3795 C3794 1.400 . S
C3795 C3796 1.398 . S
C3795 C3801 1.491 . S
C3796 H3787 0.950 . S
C3796 C3795 1.398 . S
C3796 C3797 1.391 . S
C3797 H3785 0.950 . S
C3797 C3793 1.393 . S
C3797 C3796 1.391 . S
C3798 H3788 0.950 . S
C3798 C3799 1.386 . S
C3798 C3800 1.391 . S
C3799 C3798 1.386 . S
C3799 C3803 1.393 . S
C3800 H3789 0.950 . S
C3800 C3798 1.391 . S
C3800 C3801 1.400 . S
C3801 C3795 1.491 . S
C3801 C3800 1.400 . S
C3801 C3802 1.398 . S
C3802 H3790 0.950 . S
C3802 C3801 1.398 . S
C3802 C3803 1.391 . S
C3803 H3791 0.950 . S
C3803 C3799 1.393 . S
C3803 C3802 1.391 . S
H3804 C3812 0.950 . S
H3805 C3817 0.950 . S
H3806 C3814 0.950 . S
H3807 C3816 0.950 . S
H3808 C3818 0.950 . S
H3809 C3820 0.950 . S
H3810 C3822 0.950 . S
H3811 C3823 0.950 . S
C3812 H3804 0.950 . S
C3812 C3813 1.386 . S
C3812 C3814 1.391 . S
C3813 C3812 1.386 . S
C3813 C3817 1.393 . S
C3814 H3806 0.950 . S
C3814 C3812 1.391 . S
C3814 C3815 1.400 . S
C3815 C3814 1.400 . S
C3815 C3816 1.398 . S
C3815 C3821 1.491 . S
C3816 H3807 0.950 . S
C3816 C3815 1.398 . S
C3816 C3817 1.391 . S
C3817 H3805 0.950 . S
C3817 C3813 1.393 . S
C3817 C3816 1.391 . S
C3818 H3808 0.950 . S
C3818 C3819 1.386 . S
C3818 C3820 1.391 . S
C3819 C3818 1.386 . S
C3819 C3823 1.393 . S
C3820 H3809 0.950 . S
C3820 C3818 1.391 . S
C3820 C3821 1.400 . S
C3821 C3815 1.491 . S
C3821 C3820 1.400 . S
C3821 C3822 1.398 . S
C3822 H3810 0.950 . S
C3822 C3821 1.398 . S
C3822 C3823 1.391 . S
C3823 H3811 0.950 . S
C3823 C3819 1.393 . S
C3823 C3822 1.391 . S
H3824 C3832 0.950 . S
H3825 C3837 0.950 . S
H3826 C3834 0.950 . S
H3827 C3836 0.950 . S
H3828 C3838 0.950 . S
H3829 C3840 0.950 . S
H3830 C3842 0.950 . S
H3831 C3843 0.950 . S
C3832 H3824 0.950 . S
C3832 C3833 1.386 . S
C3832 C3834 1.391 . S
C3833 C3832 1.386 . S
C3833 C3837 1.393 . S
C3834 H3826 0.950 . S
C3834 C3832 1.391 . S
C3834 C3835 1.400 . S
C3835 C3834 1.400 . S
C3835 C3836 1.398 . S
C3835 C3841 1.491 . S
C3836 H3827 0.950 . S
C3836 C3835 1.398 . S
C3836 C3837 1.391 . S
C3837 H3825 0.950 . S
C3837 C3833 1.393 . S
C3837 C3836 1.391 . S
C3838 H3828 0.950 . S
C3838 C3839 1.386 . S
C3838 C3840 1.391 . S
C3839 C3838 1.386 . S
C3839 C3843 1.393 . S
C3840 H3829 0.950 . S
C3840 C3838 1.391 . S
C3840 C3841 1.400 . S
C3841 C3835 1.491 . S
C3841 C3840 1.400 . S
C3841 C3842 1.398 . S
C3842 H3830 0.950 . S
C3842 C3841 1.398 . S
C3842 C3843 1.391 . S
C3843 H3831 0.950 . S
C3843 C3839 1.393 . S
C3843 C3842 1.391 . S
H3844 C3852 0.950 . S
H3845 C3857 0.950 . S
H3846 C3854 0.950 . S
H3847 C3856 0.950 . S
H3848 C3858 0.950 . S
H3849 C3860 0.950 . S
H3850 C3862 0.950 . S
H3851 C3863 0.950 . S
C3852 H3844 0.950 . S
C3852 C3853 1.386 . S
C3852 C3854 1.391 . S
C3853 C3852 1.386 . S
C3853 C3857 1.393 . S
C3854 H3846 0.950 . S
C3854 C3852 1.391 . S
C3854 C3855 1.400 . S
C3855 C3854 1.400 . S
C3855 C3856 1.398 . S
C3855 C3861 1.491 . S
C3856 H3847 0.950 . S
C3856 C3855 1.398 . S
C3856 C3857 1.391 . S
C3857 H3845 0.950 . S
C3857 C3853 1.393 . S
C3857 C3856 1.391 . S
C3858 H3848 0.950 . S
C3858 C3859 1.386 . S
C3858 C3860 1.391 . S
C3859 C3858 1.386 . S
C3859 C3863 1.393 . S
C3860 H3849 0.950 . S
C3860 C3858 1.391 . S
C3860 C3861 1.400 . S
C3861 C3855 1.491 . S
C3861 C3860 1.400 . S
C3861 C3862 1.398 . S
C3862 H3850 0.950 . S
C3862 C3861 1.398 . S
C3862 C3863 1.391 . S
C3863 H3851 0.950 . S
C3863 C3859 1.393 . S
C3863 C3862 1.391 . S
H3864 C3872 0.950 . S
H3865 C3877 0.950 . S
H3866 C3874 0.950 . S
H3867 C3876 0.950 . S
H3868 C3878 0.950 . S
H3869 C3880 0.950 . S
H3870 C3882 0.950 . S
H3871 C3883 0.950 . S
C3872 H3864 0.950 . S
C3872 C3873 1.386 . S
C3872 C3874 1.391 . S
C3873 C3872 1.386 . S
C3873 C3877 1.393 . S
C3874 H3866 0.950 . S
C3874 C3872 1.391 . S
C3874 C3875 1.400 . S
C3875 C3874 1.400 . S
C3875 C3876 1.398 . S
C3875 C3881 1.491 . S
C3876 H3867 0.950 . S
C3876 C3875 1.398 . S
C3876 C3877 1.391 . S
C3877 H3865 0.950 . S
C3877 C3873 1.393 . S
C3877 C3876 1.391 . S
C3878 H3868 0.950 . S
C3878 C3879 1.386 . S
C3878 C3880 1.391 . S
C3879 C3878 1.386 . S
C3879 C3883 1.393 . S
C3880 H3869 0.950 . S
C3880 C3878 1.391 . S
C3880 C3881 1.400 . S
C3881 C3875 1.491 . S
C3881 C3880 1.400 . S
C3881 C3882 1.398 . S
C3882 H3870 0.950 . S
C3882 C3881 1.398 . S
C3882 C3883 1.391 . S
C3883 H3871 0.950 . S
C3883 C3879 1.393 . S
C3883 C3882 1.391 . S
H3884 C3892 0.950 . S
H3885 C3897 0.950 . S
H3886 C3894 0.950 . S
H3887 C3896 0.950 . S
H3888 C3898 0.950 . S
H3889 C3900 0.950 . S
H3890 C3902 0.950 . S
H3891 C3903 0.950 . S
C3892 H3884 0.950 . S
C3892 C3893 1.386 . S
C3892 C3894 1.391 . S
C3893 C3892 1.386 . S
C3893 C3897 1.393 . S
C3894 H3886 0.950 . S
C3894 C3892 1.391 . S
C3894 C3895 1.400 . S
C3895 C3894 1.400 . S
C3895 C3896 1.398 . S
C3895 C3901 1.491 . S
C3896 H3887 0.950 . S
C3896 C3895 1.398 . S
C3896 C3897 1.391 . S
C3897 H3885 0.950 . S
C3897 C3893 1.393 . S
C3897 C3896 1.391 . S
C3898 H3888 0.950 . S
C3898 C3899 1.386 . S
C3898 C3900 1.391 . S
C3899 C3898 1.386 . S
C3899 C3903 1.393 . S
C3900 H3889 0.950 . S
C3900 C3898 1.391 . S
C3900 C3901 1.400 . S
C3901 C3895 1.491 . S
C3901 C3900 1.400 . S
C3901 C3902 1.398 . S
C3902 H3890 0.950 . S
C3902 C3901 1.398 . S
C3902 C3903 1.391 . S
C3903 H3891 0.950 . S
C3903 C3899 1.393 . S
C3903 C3902 1.391 . S
H3904 C3912 0.950 . S
H3905 C3917 0.950 . S
H3906 C3914 0.950 . S
H3907 C3916 0.950 . S
H3908 C3918 0.950 . S
H3909 C3920 0.950 . S
H3910 C3922 0.950 . S
H3911 C3923 0.950 . S
C3912 H3904 0.950 . S
C3912 C3913 1.386 . S
C3912 C3914 1.391 . S
C3913 C3912 1.386 . S
C3913 C3917 1.393 . S
C3914 H3906 0.950 . S
C3914 C3912 1.391 . S
C3914 C3915 1.400 . S
C3915 C3914 1.400 . S
C3915 C3916 1.398 . S
C3915 C3921 1.491 . S
C3916 H3907 0.950 . S
C3916 C3915 1.398 . S
C3916 C3917 1.391 . S
C3917 H3905 0.950 . S
C3917 C3913 1.393 . S
C3917 C3916 1.391 . S
C3918 H3908 0.950 . S
C3918 C3919 1.386 . S
C3918 C3920 1.391 . S
C3919 C3918 1.386 . S
C3919 C3923 1.393 . S
C3920 H3909 0.950 . S
C3920 C3918 1.391 . S
C3920 C3921 1.400 . S
C3921 C3915 1.491 . S
C3921 C3920 1.400 . S
C3921 C3922 1.398 . S
C3922 H3910 0.950 . S
C3922 C3921 1.398 . S
C3922 C3923 1.391 . S
C3923 H3911 0.950 . S
C3923 C3919 1.393 . S
C3923 C3922 1.391 . S
H3924 C3932 0.950 . S
H3925 C3937 0.950 . S
H3926 C3934 0.950 . S
H3927 C3936 0.950 . S
H3928 C3938 0.950 . S
H3929 C3940 0.950 . S
H3930 C3942 0.950 . S
H3931 C3943 0.950 . S
C3932 H3924 0.950 . S
C3932 C3933 1.386 . S
C3932 C3934 1.391 . S
C3933 C3932 1.386 . S
C3933 C3937 1.393 . S
C3934 H3926 0.950 . S
C3934 C3932 1.391 . S
C3934 C3935 1.400 . S
C3935 C3934 1.400 . S
C3935 C3936 1.398 . S
C3935 C3941 1.491 . S
C3936 H3927 0.950 . S
C3936 C3935 1.398 . S
C3936 C3937 1.391 . S
C3937 H3925 0.950 . S
C3937 C3933 1.393 . S
C3937 C3936 1.391 . S
C3938 H3928 0.950 . S
C3938 C3939 1.386 . S
C3938 C3940 1.391 . S
C3939 C3938 1.386 . S
C3939 C3943 1.393 . S
C3940 H3929 0.950 . S
C3940 C3938 1.391 . S
C3940 C3941 1.400 . S
C3941 C3935 1.491 . S
C3941 C3940 1.400 . S
C3941 C3942 1.398 . S
C3942 H3930 0.950 . S
C3942 C3941 1.398 . S
C3942 C3943 1.391 . S
C3943 H3931 0.950 . S
C3943 C3939 1.393 . S
C3943 C3942 1.391 . S
H3944 C3952 0.950 . S
H3945 C3957 0.950 . S
H3946 C3954 0.950 . S
H3947 C3956 0.950 . S
H3948 C3958 0.950 . S
H3949 C3960 0.950 . S
H3950 C3962 0.950 . S
H3951 C3963 0.950 . S
C3952 H3944 0.950 . S
C3952 C3953 1.386 . S
C3952 C3954 1.391 . S
C3953 C3952 1.386 . S
C3953 C3957 1.393 . S
C3954 H3946 0.950 . S
C3954 C3952 1.391 . S
C3954 C3955 1.400 . S
C3955 C3954 1.400 . S
C3955 C3956 1.398 . S
C3955 C3961 1.491 . S
C3956 H3947 0.950 . S
C3956 C3955 1.398 . S
C3956 C3957 1.391 . S
C3957 H3945 0.950 . S
C3957 C3953 1.393 . S
C3957 C3956 1.391 . S
C3958 H3948 0.950 . S
C3958 C3959 1.386 . S
C3958 C3960 1.391 . S
C3959 C3958 1.386 . S
C3959 C3963 1.393 . S
C3960 H3949 0.950 . S
C3960 C3958 1.391 . S
C3960 C3961 1.400 . S
C3961 C3955 1.491 . S
C3961 C3960 1.400 . S
C3961 C3962 1.398 . S
C3962 H3950 0.950 . S
C3962 C3961 1.398 . S
C3962 C3963 1.391 . S
C3963 H3951 0.950 . S
C3963 C3959 1.393 . S
C3963 C3962 1.391 . S
H3964 C3972 0.950 . S
H3965 C3977 0.950 . S
H3966 C3974 0.950 . S
H3967 C3976 0.950 . S
H3968 C3978 0.950 . S
H3969 C3980 0.950 . S
H3970 C3982 0.950 . S
H3971 C3983 0.950 . S
C3972 H3964 0.950 . S
C3972 C3973 1.386 . S
C3972 C3974 1.391 . S
C3973 C3972 1.386 . S
C3973 C3977 1.393 . S
C3974 H3966 0.950 . S
C3974 C3972 1.391 . S
C3974 C3975 1.400 . S
C3975 C3974 1.400 . S
C3975 C3976 1.398 . S
C3975 C3981 1.491 . S
C3976 H3967 0.950 . S
C3976 C3975 1.398 . S
C3976 C3977 1.391 . S
C3977 H3965 0.950 . S
C3977 C3973 1.393 . S
C3977 C3976 1.391 . S
C3978 H3968 0.950 . S
C3978 C3979 1.386 . S
C3978 C3980 1.391 . S
C3979 C3978 1.386 . S
C3979 C3983 1.393 . S
C3980 H3969 0.950 . S
C3980 C3978 1.391 . S
C3980 C3981 1.400 . S
C3981 C3975 1.491 . S
C3981 C3980 1.400 . S
C3981 C3982 1.398 . S
C3982 H3970 0.950 . S
C3982 C3981 1.398 . S
C3982 C3983 1.391 . S
C3983 H3971 0.950 . S
C3983 C3979 1.393 . S
C3983 C3982 1.391 . S
H3984 C3992 0.950 . S
H3985 C3997 0.950 . S
H3986 C3994 0.950 . S
H3987 C3996 0.950 . S
H3988 C3998 0.950 . S
H3989 C4000 0.950 . S
H3990 C4002 0.950 . S
H3991 C4003 0.950 . S
C3992 H3984 0.950 . S
C3992 C3993 1.386 . S
C3992 C3994 1.391 . S
C3993 C3992 1.386 . S
C3993 C3997 1.393 . S
C3994 H3986 0.950 . S
C3994 C3992 1.391 . S
C3994 C3995 1.400 . S
C3995 C3994 1.400 . S
C3995 C3996 1.398 . S
C3995 C4001 1.491 . S
C3996 H3987 0.950 . S
C3996 C3995 1.398 . S
C3996 C3997 1.391 . S
C3997 H3985 0.950 . S
C3997 C3993 1.393 . S
C3997 C3996 1.391 . S
C3998 H3988 0.950 . S
C3998 C3999 1.386 . S
C3998 C4000 1.391 . S
C3999 C3998 1.386 . S
C3999 C4003 1.393 . S
C4000 H3989 0.950 . S
C4000 C3998 1.391 . S
C4000 C4001 1.400 . S
C4001 C3995 1.491 . S
C4001 C4000 1.400 . S
C4001 C4002 1.398 . S
C4002 H3990 0.950 . S
C4002 C4001 1.398 . S
C4002 C4003 1.391 . S
C4003 H3991 0.950 . S
C4003 C3999 1.393 . S
C4003 C4002 1.391 . S
H4004 C4012 0.950 . S
H4005 C4017 0.950 . S
H4006 C4014 0.950 . S
H4007 C4016 0.950 . S
H4008 C4018 0.950 . S
H4009 C4020 0.950 . S
H4010 C4022 0.950 . S
H4011 C4023 0.950 . S
C4012 H4004 0.950 . S
C4012 C4013 1.386 . S
C4012 C4014 1.391 . S
C4013 C4012 1.386 . S
C4013 C4017 1.393 . S
C4014 H4006 0.950 . S
C4014 C4012 1.391 . S
C4014 C4015 1.400 . S
C4015 C4014 1.400 . S
C4015 C4016 1.398 . S
C4015 C4021 1.491 . S
C4016 H4007 0.950 . S
C4016 C4015 1.398 . S
C4016 C4017 1.391 . S
C4017 H4005 0.950 . S
C4017 C4013 1.393 . S
C4017 C4016 1.391 . S
C4018 H4008 0.950 . S
C4018 C4019 1.386 . S
C4018 C4020 1.391 . S
C4019 C4018 1.386 . S
C4019 C4023 1.393 . S
C4020 H4009 0.950 . S
C4020 C4018 1.391 . S
C4020 C4021 1.400 . S
C4021 C4015 1.491 . S
C4021 C4020 1.400 . S
C4021 C4022 1.398 . S
C4022 H4010 0.950 . S
C4022 C4021 1.398 . S
C4022 C4023 1.391 . S
C4023 H4011 0.950 . S
C4023 C4019 1.393 . S
C4023 C4022 1.391 . S
H4024 C4032 0.950 . S
H4025 C4037 0.950 . S
H4026 C4034 0.950 . S
H4027 C4036 0.950 . S
H4028 C4038 0.950 . S
H4029 C4040 0.950 . S
H4030 C4042 0.950 . S
H4031 C4043 0.950 . S
C4032 H4024 0.950 . S
C4032 C4033 1.386 . S
C4032 C4034 1.391 . S
C4033 C4032 1.386 . S
C4033 C4037 1.393 . S
C4034 H4026 0.950 . S
C4034 C4032 1.391 . S
C4034 C4035 1.400 . S
C4035 C4034 1.400 . S
C4035 C4036 1.398 . S
C4035 C4041 1.491 . S
C4036 H4027 0.950 . S
C4036 C4035 1.398 . S
C4036 C4037 1.391 . S
C4037 H4025 0.950 . S
C4037 C4033 1.393 . S
C4037 C4036 1.391 . S
C4038 H4028 0.950 . S
C4038 C4039 1.386 . S
C4038 C4040 1.391 . S
C4039 C4038 1.386 . S
C4039 C4043 1.393 . S
C4040 H4029 0.950 . S
C4040 C4038 1.391 . S
C4040 C4041 1.400 . S
C4041 C4035 1.491 . S
C4041 C4040 1.400 . S
C4041 C4042 1.398 . S
C4042 H4030 0.950 . S
C4042 C4041 1.398 . S
C4042 C4043 1.391 . S
C4043 H4031 0.950 . S
C4043 C4039 1.393 . S
C4043 C4042 1.391 . S
H4044 C4052 0.950 . S
H4045 C4057 0.950 . S
H4046 C4054 0.950 . S
H4047 C4056 0.950 . S
H4048 C4058 0.950 . S
H4049 C4060 0.950 . S
H4050 C4062 0.950 . S
H4051 C4063 0.950 . S
C4052 H4044 0.950 . S
C4052 C4053 1.386 . S
C4052 C4054 1.391 . S
C4053 C4052 1.386 . S
C4053 C4057 1.393 . S
C4054 H4046 0.950 . S
C4054 C4052 1.391 . S
C4054 C4055 1.400 . S
C4055 C4054 1.400 . S
C4055 C4056 1.398 . S
C4055 C4061 1.491 . S
C4056 H4047 0.950 . S
C4056 C4055 1.398 . S
C4056 C4057 1.391 . S
C4057 H4045 0.950 . S
C4057 C4053 1.393 . S
C4057 C4056 1.391 . S
C4058 H4048 0.950 . S
C4058 C4059 1.386 . S
C4058 C4060 1.391 . S
C4059 C4058 1.386 . S
C4059 C4063 1.393 . S
C4060 H4049 0.950 . S
C4060 C4058 1.391 . S
C4060 C4061 1.400 . S
C4061 C4055 1.491 . S
C4061 C4060 1.400 . S
C4061 C4062 1.398 . S
C4062 H4050 0.950 . S
C4062 C4061 1.398 . S
C4062 C4063 1.391 . S
C4063 H4051 0.950 . S
C4063 C4059 1.393 . S
C4063 C4062 1.391 . S
H4064 C4072 0.950 . S
H4065 C4077 0.950 . S
H4066 C4074 0.950 . S
H4067 C4076 0.950 . S
H4068 C4078 0.950 . S
H4069 C4080 0.950 . S
H4070 C4082 0.950 . S
H4071 C4083 0.950 . S
C4072 H4064 0.950 . S
C4072 C4073 1.386 . S
C4072 C4074 1.391 . S
C4073 C4072 1.386 . S
C4073 C4077 1.393 . S
C4074 H4066 0.950 . S
C4074 C4072 1.391 . S
C4074 C4075 1.400 . S
C4075 C4074 1.400 . S
C4075 C4076 1.398 . S
C4075 C4081 1.491 . S
C4076 H4067 0.950 . S
C4076 C4075 1.398 . S
C4076 C4077 1.391 . S
C4077 H4065 0.950 . S
C4077 C4073 1.393 . S
C4077 C4076 1.391 . S
C4078 H4068 0.950 . S
C4078 C4079 1.386 . S
C4078 C4080 1.391 . S
C4079 C4078 1.386 . S
C4079 C4083 1.393 . S
C4080 H4069 0.950 . S
C4080 C4078 1.391 . S
C4080 C4081 1.400 . S
C4081 C4075 1.491 . S
C4081 C4080 1.400 . S
C4081 C4082 1.398 . S
C4082 H4070 0.950 . S
C4082 C4081 1.398 . S
C4082 C4083 1.391 . S
C4083 H4071 0.950 . S
C4083 C4079 1.393 . S
C4083 C4082 1.391 . S
H4084 C4092 0.950 . S
H4085 C4097 0.950 . S
H4086 C4094 0.950 . S
H4087 C4096 0.950 . S
H4088 C4098 0.950 . S
H4089 C4100 0.950 . S
H4090 C4102 0.950 . S
H4091 C4103 0.950 . S
C4092 H4084 0.950 . S
C4092 C4093 1.386 . S
C4092 C4094 1.391 . S
C4093 C4092 1.386 . S
C4093 C4097 1.393 . S
C4094 H4086 0.950 . S
C4094 C4092 1.391 . S
C4094 C4095 1.400 . S
C4095 C4094 1.400 . S
C4095 C4096 1.398 . S
C4095 C4101 1.491 . S
C4096 H4087 0.950 . S
C4096 C4095 1.398 . S
C4096 C4097 1.391 . S
C4097 H4085 0.950 . S
C4097 C4093 1.393 . S
C4097 C4096 1.391 . S
C4098 H4088 0.950 . S
C4098 C4099 1.386 . S
C4098 C4100 1.391 . S
C4099 C4098 1.386 . S
C4099 C4103 1.393 . S
C4100 H4089 0.950 . S
C4100 C4098 1.391 . S
C4100 C4101 1.400 . S
C4101 C4095 1.491 . S
C4101 C4100 1.400 . S
C4101 C4102 1.398 . S
C4102 H4090 0.950 . S
C4102 C4101 1.398 . S
C4102 C4103 1.391 . S
C4103 H4091 0.950 . S
C4103 C4099 1.393 . S
C4103 C4102 1.391 . S
H4104 C4112 0.950 . S
H4105 C4117 0.950 . S
H4106 C4114 0.950 . S
H4107 C4116 0.950 . S
H4108 C4118 0.950 . S
H4109 C4120 0.950 . S
H4110 C4122 0.950 . S
H4111 C4123 0.950 . S
C4112 H4104 0.950 . S
C4112 C4113 1.386 . S
C4112 C4114 1.391 . S
C4113 C4112 1.386 . S
C4113 C4117 1.393 . S
C4114 H4106 0.950 . S
C4114 C4112 1.391 . S
C4114 C4115 1.400 . S
C4115 C4114 1.400 . S
C4115 C4116 1.398 . S
C4115 C4121 1.491 . S
C4116 H4107 0.950 . S
C4116 C4115 1.398 . S
C4116 C4117 1.391 . S
C4117 H4105 0.950 . S
C4117 C4113 1.393 . S
C4117 C4116 1.391 . S
C4118 H4108 0.950 . S
C4118 C4119 1.386 . S
C4118 C4120 1.391 . S
C4119 C4118 1.386 . S
C4119 C4123 1.393 . S
C4120 H4109 0.950 . S
C4120 C4118 1.391 . S
C4120 C4121 1.400 . S
C4121 C4115 1.491 . S
C4121 C4120 1.400 . S
C4121 C4122 1.398 . S
C4122 H4110 0.950 . S
C4122 C4121 1.398 . S
C4122 C4123 1.391 . S
C4123 H4111 0.950 . S
C4123 C4119 1.393 . S
C4123 C4122 1.391 . S
H4124 C4132 0.950 . S
H4125 C4137 0.950 . S
H4126 C4134 0.950 . S
H4127 C4136 0.950 . S
H4128 C4138 0.950 . S
H4129 C4140 0.950 . S
H4130 C4142 0.950 . S
H4131 C4143 0.950 . S
C4132 H4124 0.950 . S
C4132 C4133 1.386 . S
C4132 C4134 1.391 . S
C4133 C4132 1.386 . S
C4133 C4137 1.393 . S
C4134 H4126 0.950 . S
C4134 C4132 1.391 . S
C4134 C4135 1.400 . S
C4135 C4134 1.400 . S
C4135 C4136 1.398 . S
C4135 C4141 1.491 . S
C4136 H4127 0.950 . S
C4136 C4135 1.398 . S
C4136 C4137 1.391 . S
C4137 H4125 0.950 . S
C4137 C4133 1.393 . S
C4137 C4136 1.391 . S
C4138 H4128 0.950 . S
C4138 C4139 1.386 . S
C4138 C4140 1.391 . S
C4139 C4138 1.386 . S
C4139 C4143 1.393 . S
C4140 H4129 0.950 . S
C4140 C4138 1.391 . S
C4140 C4141 1.400 . S
C4141 C4135 1.491 . S
C4141 C4140 1.400 . S
C4141 C4142 1.398 . S
C4142 H4130 0.950 . S
C4142 C4141 1.398 . S
C4142 C4143 1.391 . S
C4143 H4131 0.950 . S
C4143 C4139 1.393 . S
C4143 C4142 1.391 . S
H4144 C4152 0.950 . S
H4145 C4157 0.950 . S
H4146 C4154 0.950 . S
H4147 C4156 0.950 . S
H4148 C4158 0.950 . S
H4149 C4160 0.950 . S
H4150 C4162 0.950 . S
H4151 C4163 0.950 . S
C4152 H4144 0.950 . S
C4152 C4153 1.386 . S
C4152 C4154 1.391 . S
C4153 C4152 1.386 . S
C4153 C4157 1.393 . S
C4154 H4146 0.950 . S
C4154 C4152 1.391 . S
C4154 C4155 1.400 . S
C4155 C4154 1.400 . S
C4155 C4156 1.398 . S
C4155 C4161 1.491 . S
C4156 H4147 0.950 . S
C4156 C4155 1.398 . S
C4156 C4157 1.391 . S
C4157 H4145 0.950 . S
C4157 C4153 1.393 . S
C4157 C4156 1.391 . S
C4158 H4148 0.950 . S
C4158 C4159 1.386 . S
C4158 C4160 1.391 . S
C4159 C4158 1.386 . S
C4159 C4163 1.393 . S
C4160 H4149 0.950 . S
C4160 C4158 1.391 . S
C4160 C4161 1.400 . S
C4161 C4155 1.491 . S
C4161 C4160 1.400 . S
C4161 C4162 1.398 . S
C4162 H4150 0.950 . S
C4162 C4161 1.398 . S
C4162 C4163 1.391 . S
C4163 H4151 0.950 . S
C4163 C4159 1.393 . S
C4163 C4162 1.391 . S
H4164 C4172 0.950 . S
H4165 C4177 0.950 . S
H4166 C4174 0.950 . S
H4167 C4176 0.950 . S
H4168 C4178 0.950 . S
H4169 C4180 0.950 . S
H4170 C4182 0.950 . S
H4171 C4183 0.950 . S
C4172 H4164 0.950 . S
C4172 C4173 1.386 . S
C4172 C4174 1.391 . S
C4173 C4172 1.386 . S
C4173 C4177 1.393 . S
C4174 H4166 0.950 . S
C4174 C4172 1.391 . S
C4174 C4175 1.400 . S
C4175 C4174 1.400 . S
C4175 C4176 1.398 . S
C4175 C4181 1.491 . S
C4176 H4167 0.950 . S
C4176 C4175 1.398 . S
C4176 C4177 1.391 . S
C4177 H4165 0.950 . S
C4177 C4173 1.393 . S
C4177 C4176 1.391 . S
C4178 H4168 0.950 . S
C4178 C4179 1.386 . S
C4178 C4180 1.391 . S
C4179 C4178 1.386 . S
C4179 C4183 1.393 . S
C4180 H4169 0.950 . S
C4180 C4178 1.391 . S
C4180 C4181 1.400 . S
C4181 C4175 1.491 . S
C4181 C4180 1.400 . S
C4181 C4182 1.398 . S
C4182 H4170 0.950 . S
C4182 C4181 1.398 . S
C4182 C4183 1.391 . S
C4183 H4171 0.950 . S
C4183 C4179 1.393 . S
C4183 C4182 1.391 . S
H4184 C4192 0.950 . S
H4185 C4197 0.950 . S
H4186 C4194 0.950 . S
H4187 C4196 0.950 . S
H4188 C4198 0.950 . S
H4189 C4200 0.950 . S
H4190 C4202 0.950 . S
H4191 C4203 0.950 . S
C4192 H4184 0.950 . S
C4192 C4193 1.386 . S
C4192 C4194 1.391 . S
C4193 C4192 1.386 . S
C4193 C4197 1.393 . S
C4194 H4186 0.950 . S
C4194 C4192 1.391 . S
C4194 C4195 1.400 . S
C4195 C4194 1.400 . S
C4195 C4196 1.398 . S
C4195 C4201 1.491 . S
C4196 H4187 0.950 . S
C4196 C4195 1.398 . S
C4196 C4197 1.391 . S
C4197 H4185 0.950 . S
C4197 C4193 1.393 . S
C4197 C4196 1.391 . S
C4198 H4188 0.950 . S
C4198 C4199 1.386 . S
C4198 C4200 1.391 . S
C4199 C4198 1.386 . S
C4199 C4203 1.393 . S
C4200 H4189 0.950 . S
C4200 C4198 1.391 . S
C4200 C4201 1.400 . S
C4201 C4195 1.491 . S
C4201 C4200 1.400 . S
C4201 C4202 1.398 . S
C4202 H4190 0.950 . S
C4202 C4201 1.398 . S
C4202 C4203 1.391 . S
C4203 H4191 0.950 . S
C4203 C4199 1.393 . S
C4203 C4202 1.391 . S
H4204 C4212 0.950 . S
H4205 C4217 0.950 . S
H4206 C4214 0.950 . S
H4207 C4216 0.950 . S
H4208 C4218 0.950 . S
H4209 C4220 0.950 . S
H4210 C4222 0.950 . S
H4211 C4223 0.950 . S
C4212 H4204 0.950 . S
C4212 C4213 1.386 . S
C4212 C4214 1.391 . S
C4213 C4212 1.386 . S
C4213 C4217 1.393 . S
C4214 H4206 0.950 . S
C4214 C4212 1.391 . S
C4214 C4215 1.400 . S
C4215 C4214 1.400 . S
C4215 C4216 1.398 . S
C4215 C4221 1.491 . S
C4216 H4207 0.950 . S
C4216 C4215 1.398 . S
C4216 C4217 1.391 . S
C4217 H4205 0.950 . S
C4217 C4213 1.393 . S
C4217 C4216 1.391 . S
C4218 H4208 0.950 . S
C4218 C4219 1.386 . S
C4218 C4220 1.391 . S
C4219 C4218 1.386 . S
C4219 C4223 1.393 . S
C4220 H4209 0.950 . S
C4220 C4218 1.391 . S
C4220 C4221 1.400 . S
C4221 C4215 1.491 . S
C4221 C4220 1.400 . S
C4221 C4222 1.398 . S
C4222 H4210 0.950 . S
C4222 C4221 1.398 . S
C4222 C4223 1.391 . S
C4223 H4211 0.950 . S
C4223 C4219 1.393 . S
C4223 C4222 1.391 . S
H4224 C4232 0.950 . S
H4225 C4237 0.950 . S
H4226 C4234 0.950 . S
H4227 C4236 0.950 . S
H4228 C4238 0.950 . S
H4229 C4240 0.950 . S
H4230 C4242 0.950 . S
H4231 C4243 0.950 . S
C4232 H4224 0.950 . S
C4232 C4233 1.386 . S
C4232 C4234 1.391 . S
C4233 C4232 1.386 . S
C4233 C4237 1.393 . S
C4234 H4226 0.950 . S
C4234 C4232 1.391 . S
C4234 C4235 1.400 . S
C4235 C4234 1.400 . S
C4235 C4236 1.398 . S
C4235 C4241 1.491 . S
C4236 H4227 0.950 . S
C4236 C4235 1.398 . S
C4236 C4237 1.391 . S
C4237 H4225 0.950 . S
C4237 C4233 1.393 . S
C4237 C4236 1.391 . S
C4238 H4228 0.950 . S
C4238 C4239 1.386 . S
C4238 C4240 1.391 . S
C4239 C4238 1.386 . S
C4239 C4243 1.393 . S
C4240 H4229 0.950 . S
C4240 C4238 1.391 . S
C4240 C4241 1.400 . S
C4241 C4235 1.491 . S
C4241 C4240 1.400 . S
C4241 C4242 1.398 . S
C4242 H4230 0.950 . S
C4242 C4241 1.398 . S
C4242 C4243 1.391 . S
C4243 H4231 0.950 . S
C4243 C4239 1.393 . S
C4243 C4242 1.391 . S
H4244 C4252 0.950 . S
H4245 C4257 0.950 . S
H4246 C4254 0.950 . S
H4247 C4256 0.950 . S
H4248 C4258 0.950 . S
H4249 C4260 0.950 . S
H4250 C4262 0.950 . S
H4251 C4263 0.950 . S
C4252 H4244 0.950 . S
C4252 C4253 1.386 . S
C4252 C4254 1.391 . S
C4253 C4252 1.386 . S
C4253 C4257 1.393 . S
C4254 H4246 0.950 . S
C4254 C4252 1.391 . S
C4254 C4255 1.400 . S
C4255 C4254 1.400 . S
C4255 C4256 1.398 . S
C4255 C4261 1.491 . S
C4256 H4247 0.950 . S
C4256 C4255 1.398 . S
C4256 C4257 1.391 . S
C4257 H4245 0.950 . S
C4257 C4253 1.393 . S
C4257 C4256 1.391 . S
C4258 H4248 0.950 . S
C4258 C4259 1.386 . S
C4258 C4260 1.391 . S
C4259 C4258 1.386 . S
C4259 C4263 1.393 . S
C4260 H4249 0.950 . S
C4260 C4258 1.391 . S
C4260 C4261 1.400 . S
C4261 C4255 1.491 . S
C4261 C4260 1.400 . S
C4261 C4262 1.398 . S
C4262 H4250 0.950 . S
C4262 C4261 1.398 . S
C4262 C4263 1.391 . S
C4263 H4251 0.950 . S
C4263 C4259 1.393 . S
C4263 C4262 1.391 . S
H4264 C4272 0.950 . S
H4265 C4277 0.950 . S
H4266 C4274 0.950 . S
H4267 C4276 0.950 . S
H4268 C4278 0.950 . S
H4269 C4280 0.950 . S
H4270 C4282 0.950 . S
H4271 C4283 0.950 . S
C4272 H4264 0.950 . S
C4272 C4273 1.386 . S
C4272 C4274 1.391 . S
C4273 C4272 1.386 . S
C4273 C4277 1.393 . S
C4274 H4266 0.950 . S
C4274 C4272 1.391 . S
C4274 C4275 1.400 . S
C4275 C4274 1.400 . S
C4275 C4276 1.398 . S
C4275 C4281 1.491 . S
C4276 H4267 0.950 . S
C4276 C4275 1.398 . S
C4276 C4277 1.391 . S
C4277 H4265 0.950 . S
C4277 C4273 1.393 . S
C4277 C4276 1.391 . S
C4278 H4268 0.950 . S
C4278 C4279 1.386 . S
C4278 C4280 1.391 . S
C4279 C4278 1.386 . S
C4279 C4283 1.393 . S
C4280 H4269 0.950 . S
C4280 C4278 1.391 . S
C4280 C4281 1.400 . S
C4281 C4275 1.491 . S
C4281 C4280 1.400 . S
C4281 C4282 1.398 . S
C4282 H4270 0.950 . S
C4282 C4281 1.398 . S
C4282 C4283 1.391 . S
C4283 H4271 0.950 . S
C4283 C4279 1.393 . S
C4283 C4282 1.391 . S
H4284 C4292 0.950 . S
H4285 C4297 0.950 . S
H4286 C4294 0.950 . S
H4287 C4296 0.950 . S
H4288 C4298 0.950 . S
H4289 C4300 0.950 . S
H4290 C4302 0.950 . S
H4291 C4303 0.950 . S
C4292 H4284 0.950 . S
C4292 C4293 1.386 . S
C4292 C4294 1.391 . S
C4293 C4292 1.386 . S
C4293 C4297 1.393 . S
C4294 H4286 0.950 . S
C4294 C4292 1.391 . S
C4294 C4295 1.400 . S
C4295 C4294 1.400 . S
C4295 C4296 1.398 . S
C4295 C4301 1.491 . S
C4296 H4287 0.950 . S
C4296 C4295 1.398 . S
C4296 C4297 1.391 . S
C4297 H4285 0.950 . S
C4297 C4293 1.393 . S
C4297 C4296 1.391 . S
C4298 H4288 0.950 . S
C4298 C4299 1.386 . S
C4298 C4300 1.391 . S
C4299 C4298 1.386 . S
C4299 C4303 1.393 . S
C4300 H4289 0.950 . S
C4300 C4298 1.391 . S
C4300 C4301 1.400 . S
C4301 C4295 1.491 . S
C4301 C4300 1.400 . S
C4301 C4302 1.398 . S
C4302 H4290 0.950 . S
C4302 C4301 1.398 . S
C4302 C4303 1.391 . S
C4303 H4291 0.950 . S
C4303 C4299 1.393 . S
C4303 C4302 1.391 . S
H4304 C4312 0.950 . S
H4305 C4317 0.950 . S
H4306 C4314 0.950 . S
H4307 C4316 0.950 . S
H4308 C4318 0.950 . S
H4309 C4320 0.950 . S
H4310 C4322 0.950 . S
H4311 C4323 0.950 . S
C4312 H4304 0.950 . S
C4312 C4313 1.386 . S
C4312 C4314 1.391 . S
C4313 C4312 1.386 . S
C4313 C4317 1.393 . S
C4314 H4306 0.950 . S
C4314 C4312 1.391 . S
C4314 C4315 1.400 . S
C4315 C4314 1.400 . S
C4315 C4316 1.398 . S
C4315 C4321 1.491 . S
C4316 H4307 0.950 . S
C4316 C4315 1.398 . S
C4316 C4317 1.391 . S
C4317 H4305 0.950 . S
C4317 C4313 1.393 . S
C4317 C4316 1.391 . S
C4318 H4308 0.950 . S
C4318 C4319 1.386 . S
C4318 C4320 1.391 . S
C4319 C4318 1.386 . S
C4319 C4323 1.393 . S
C4320 H4309 0.950 . S
C4320 C4318 1.391 . S
C4320 C4321 1.400 . S
C4321 C4315 1.491 . S
C4321 C4320 1.400 . S
C4321 C4322 1.398 . S
C4322 H4310 0.950 . S
C4322 C4321 1.398 . S
C4322 C4323 1.391 . S
C4323 H4311 0.950 . S
C4323 C4319 1.393 . S
C4323 C4322 1.391 . S
H4324 C4332 0.950 . S
H4325 C4337 0.950 . S
H4326 C4334 0.950 . S
H4327 C4336 0.950 . S
H4328 C4338 0.950 . S
H4329 C4340 0.950 . S
H4330 C4342 0.950 . S
H4331 C4343 0.950 . S
C4332 H4324 0.950 . S
C4332 C4333 1.386 . S
C4332 C4334 1.391 . S
C4333 C4332 1.386 . S
C4333 C4337 1.393 . S
C4334 H4326 0.950 . S
C4334 C4332 1.391 . S
C4334 C4335 1.400 . S
C4335 C4334 1.400 . S
C4335 C4336 1.398 . S
C4335 C4341 1.491 . S
C4336 H4327 0.950 . S
C4336 C4335 1.398 . S
C4336 C4337 1.391 . S
C4337 H4325 0.950 . S
C4337 C4333 1.393 . S
C4337 C4336 1.391 . S
C4338 H4328 0.950 . S
C4338 C4339 1.386 . S
C4338 C4340 1.391 . S
C4339 C4338 1.386 . S
C4339 C4343 1.393 . S
C4340 H4329 0.950 . S
C4340 C4338 1.391 . S
C4340 C4341 1.400 . S
C4341 C4335 1.491 . S
C4341 C4340 1.400 . S
C4341 C4342 1.398 . S
C4342 H4330 0.950 . S
C4342 C4341 1.398 . S
C4342 C4343 1.391 . S
C4343 H4331 0.950 . S
C4343 C4339 1.393 . S
C4343 C4342 1.391 . S
H4344 C4352 0.950 . S
H4345 C4357 0.950 . S
H4346 C4354 0.950 . S
H4347 C4356 0.950 . S
H4348 C4358 0.950 . S
H4349 C4360 0.950 . S
H4350 C4362 0.950 . S
H4351 C4363 0.950 . S
C4352 H4344 0.950 . S
C4352 C4353 1.386 . S
C4352 C4354 1.391 . S
C4353 C4352 1.386 . S
C4353 C4357 1.393 . S
C4354 H4346 0.950 . S
C4354 C4352 1.391 . S
C4354 C4355 1.400 . S
C4355 C4354 1.400 . S
C4355 C4356 1.398 . S
C4355 C4361 1.491 . S
C4356 H4347 0.950 . S
C4356 C4355 1.398 . S
C4356 C4357 1.391 . S
C4357 H4345 0.950 . S
C4357 C4353 1.393 . S
C4357 C4356 1.391 . S
C4358 H4348 0.950 . S
C4358 C4359 1.386 . S
C4358 C4360 1.391 . S
C4359 C4358 1.386 . S
C4359 C4363 1.393 . S
C4360 H4349 0.950 . S
C4360 C4358 1.391 . S
C4360 C4361 1.400 . S
C4361 C4355 1.491 . S
C4361 C4360 1.400 . S
C4361 C4362 1.398 . S
C4362 H4350 0.950 . S
C4362 C4361 1.398 . S
C4362 C4363 1.391 . S
C4363 H4351 0.950 . S
C4363 C4359 1.393 . S
C4363 C4362 1.391 . S
H4364 C4372 0.950 . S
H4365 C4377 0.950 . S
H4366 C4374 0.950 . S
H4367 C4376 0.950 . S
H4368 C4378 0.950 . S
H4369 C4380 0.950 . S
H4370 C4382 0.950 . S
H4371 C4383 0.950 . S
C4372 H4364 0.950 . S
C4372 C4373 1.386 . S
C4372 C4374 1.391 . S
C4373 C4372 1.386 . S
C4373 C4377 1.393 . S
C4374 H4366 0.950 . S
C4374 C4372 1.391 . S
C4374 C4375 1.400 . S
C4375 C4374 1.400 . S
C4375 C4376 1.398 . S
C4375 C4381 1.491 . S
C4376 H4367 0.950 . S
C4376 C4375 1.398 . S
C4376 C4377 1.391 . S
C4377 H4365 0.950 . S
C4377 C4373 1.393 . S
C4377 C4376 1.391 . S
C4378 H4368 0.950 . S
C4378 C4379 1.386 . S
C4378 C4380 1.391 . S
C4379 C4378 1.386 . S
C4379 C4383 1.393 . S
C4380 H4369 0.950 . S
C4380 C4378 1.391 . S
C4380 C4381 1.400 . S
C4381 C4375 1.491 . S
C4381 C4380 1.400 . S
C4381 C4382 1.398 . S
C4382 H4370 0.950 . S
C4382 C4381 1.398 . S
C4382 C4383 1.391 . S
C4383 H4371 0.950 . S
C4383 C4379 1.393 . S
C4383 C4382 1.391 . S
H4384 C4392 0.950 . S
H4385 C4397 0.950 . S
H4386 C4394 0.950 . S
H4387 C4396 0.950 . S
H4388 C4398 0.950 . S
H4389 C4400 0.950 . S
H4390 C4402 0.950 . S
H4391 C4403 0.950 . S
C4392 H4384 0.950 . S
C4392 C4393 1.386 . S
C4392 C4394 1.391 . S
C4393 C4392 1.386 . S
C4393 C4397 1.393 . S
C4394 H4386 0.950 . S
C4394 C4392 1.391 . S
C4394 C4395 1.400 . S
C4395 C4394 1.400 . S
C4395 C4396 1.398 . S
C4395 C4401 1.491 . S
C4396 H4387 0.950 . S
C4396 C4395 1.398 . S
C4396 C4397 1.391 . S
C4397 H4385 0.950 . S
C4397 C4393 1.393 . S
C4397 C4396 1.391 . S
C4398 H4388 0.950 . S
C4398 C4399 1.386 . S
C4398 C4400 1.391 . S
C4399 C4398 1.386 . S
C4399 C4403 1.393 . S
C4400 H4389 0.950 . S
C4400 C4398 1.391 . S
C4400 C4401 1.400 . S
C4401 C4395 1.491 . S
C4401 C4400 1.400 . S
C4401 C4402 1.398 . S
C4402 H4390 0.950 . S
C4402 C4401 1.398 . S
C4402 C4403 1.391 . S
C4403 H4391 0.950 . S
C4403 C4399 1.393 . S
C4403 C4402 1.391 . S
H4404 C4412 0.950 . S
H4405 C4417 0.950 . S
H4406 C4414 0.950 . S
H4407 C4416 0.950 . S
H4408 C4418 0.950 . S
H4409 C4420 0.950 . S
H4410 C4422 0.950 . S
H4411 C4423 0.950 . S
C4412 H4404 0.950 . S
C4412 C4413 1.386 . S
C4412 C4414 1.391 . S
C4413 C4412 1.386 . S
C4413 C4417 1.393 . S
C4414 H4406 0.950 . S
C4414 C4412 1.391 . S
C4414 C4415 1.400 . S
C4415 C4414 1.400 . S
C4415 C4416 1.398 . S
C4415 C4421 1.491 . S
C4416 H4407 0.950 . S
C4416 C4415 1.398 . S
C4416 C4417 1.391 . S
C4417 H4405 0.950 . S
C4417 C4413 1.393 . S
C4417 C4416 1.391 . S
C4418 H4408 0.950 . S
C4418 C4419 1.386 . S
C4418 C4420 1.391 . S
C4419 C4418 1.386 . S
C4419 C4423 1.393 . S
C4420 H4409 0.950 . S
C4420 C4418 1.391 . S
C4420 C4421 1.400 . S
C4421 C4415 1.491 . S
C4421 C4420 1.400 . S
C4421 C4422 1.398 . S
C4422 H4410 0.950 . S
C4422 C4421 1.398 . S
C4422 C4423 1.391 . S
C4423 H4411 0.950 . S
C4423 C4419 1.393 . S
C4423 C4422 1.391 . S
H4424 C4432 0.950 . S
H4425 C4437 0.950 . S
H4426 C4434 0.950 . S
H4427 C4436 0.950 . S
H4428 C4438 0.950 . S
H4429 C4440 0.950 . S
H4430 C4442 0.950 . S
H4431 C4443 0.950 . S
C4432 H4424 0.950 . S
C4432 C4433 1.386 . S
C4432 C4434 1.391 . S
C4433 C4432 1.386 . S
C4433 C4437 1.393 . S
C4434 H4426 0.950 . S
C4434 C4432 1.391 . S
C4434 C4435 1.400 . S
C4435 C4434 1.400 . S
C4435 C4436 1.398 . S
C4435 C4441 1.491 . S
C4436 H4427 0.950 . S
C4436 C4435 1.398 . S
C4436 C4437 1.391 . S
C4437 H4425 0.950 . S
C4437 C4433 1.393 . S
C4437 C4436 1.391 . S
C4438 H4428 0.950 . S
C4438 C4439 1.386 . S
C4438 C4440 1.391 . S
C4439 C4438 1.386 . S
C4439 C4443 1.393 . S
C4440 H4429 0.950 . S
C4440 C4438 1.391 . S
C4440 C4441 1.400 . S
C4441 C4435 1.491 . S
C4441 C4440 1.400 . S
C4441 C4442 1.398 . S
C4442 H4430 0.950 . S
C4442 C4441 1.398 . S
C4442 C4443 1.391 . S
C4443 H4431 0.950 . S
C4443 C4439 1.393 . S
C4443 C4442 1.391 . S
H4444 C4452 0.950 . S
H4445 C4457 0.950 . S
H4446 C4454 0.950 . S
H4447 C4456 0.950 . S
H4448 C4458 0.950 . S
H4449 C4460 0.950 . S
H4450 C4462 0.950 . S
H4451 C4463 0.950 . S
C4452 H4444 0.950 . S
C4452 C4453 1.386 . S
C4452 C4454 1.391 . S
C4453 C4452 1.386 . S
C4453 C4457 1.393 . S
C4454 H4446 0.950 . S
C4454 C4452 1.391 . S
C4454 C4455 1.400 . S
C4455 C4454 1.400 . S
C4455 C4456 1.398 . S
C4455 C4461 1.491 . S
C4456 H4447 0.950 . S
C4456 C4455 1.398 . S
C4456 C4457 1.391 . S
C4457 H4445 0.950 . S
C4457 C4453 1.393 . S
C4457 C4456 1.391 . S
C4458 H4448 0.950 . S
C4458 C4459 1.386 . S
C4458 C4460 1.391 . S
C4459 C4458 1.386 . S
C4459 C4463 1.393 . S
C4460 H4449 0.950 . S
C4460 C4458 1.391 . S
C4460 C4461 1.400 . S
C4461 C4455 1.491 . S
C4461 C4460 1.400 . S
C4461 C4462 1.398 . S
C4462 H4450 0.950 . S
C4462 C4461 1.398 . S
C4462 C4463 1.391 . S
C4463 H4451 0.950 . S
C4463 C4459 1.393 . S
C4463 C4462 1.391 . S
H4464 C4472 0.950 . S
H4465 C4477 0.950 . S
H4466 C4474 0.950 . S
H4467 C4476 0.950 . S
H4468 C4478 0.950 . S
H4469 C4480 0.950 . S
H4470 C4482 0.950 . S
H4471 C4483 0.950 . S
C4472 H4464 0.950 . S
C4472 C4473 1.386 . S
C4472 C4474 1.391 . S
C4473 C4472 1.386 . S
C4473 C4477 1.393 . S
C4474 H4466 0.950 . S
C4474 C4472 1.391 . S
C4474 C4475 1.400 . S
C4475 C4474 1.400 . S
C4475 C4476 1.398 . S
C4475 C4481 1.491 . S
C4476 H4467 0.950 . S
C4476 C4475 1.398 . S
C4476 C4477 1.391 . S
C4477 H4465 0.950 . S
C4477 C4473 1.393 . S
C4477 C4476 1.391 . S
C4478 H4468 0.950 . S
C4478 C4479 1.386 . S
C4478 C4480 1.391 . S
C4479 C4478 1.386 . S
C4479 C4483 1.393 . S
C4480 H4469 0.950 . S
C4480 C4478 1.391 . S
C4480 C4481 1.400 . S
C4481 C4475 1.491 . S
C4481 C4480 1.400 . S
C4481 C4482 1.398 . S
C4482 H4470 0.950 . S
C4482 C4481 1.398 . S
C4482 C4483 1.391 . S
C4483 H4471 0.950 . S
C4483 C4479 1.393 . S
C4483 C4482 1.391 . S
H4484 C4492 0.950 . S
H4485 C4497 0.950 . S
H4486 C4494 0.950 . S
H4487 C4496 0.950 . S
H4488 C4498 0.950 . S
H4489 C4500 0.950 . S
H4490 C4502 0.950 . S
H4491 C4503 0.950 . S
C4492 H4484 0.950 . S
C4492 C4493 1.386 . S
C4492 C4494 1.391 . S
C4493 C4492 1.386 . S
C4493 C4497 1.393 . S
C4494 H4486 0.950 . S
C4494 C4492 1.391 . S
C4494 C4495 1.400 . S
C4495 C4494 1.400 . S
C4495 C4496 1.398 . S
C4495 C4501 1.491 . S
C4496 H4487 0.950 . S
C4496 C4495 1.398 . S
C4496 C4497 1.391 . S
C4497 H4485 0.950 . S
C4497 C4493 1.393 . S
C4497 C4496 1.391 . S
C4498 H4488 0.950 . S
C4498 C4499 1.386 . S
C4498 C4500 1.391 . S
C4499 C4498 1.386 . S
C4499 C4503 1.393 . S
C4500 H4489 0.950 . S
C4500 C4498 1.391 . S
C4500 C4501 1.400 . S
C4501 C4495 1.491 . S
C4501 C4500 1.400 . S
C4501 C4502 1.398 . S
C4502 H4490 0.950 . S
C4502 C4501 1.398 . S
C4502 C4503 1.391 . S
C4503 H4491 0.950 . S
C4503 C4499 1.393 . S
C4503 C4502 1.391 . S
H4504 C4512 0.950 . S
H4505 C4517 0.950 . S
H4506 C4514 0.950 . S
H4507 C4516 0.950 . S
H4508 C4518 0.950 . S
H4509 C4520 0.950 . S
H4510 C4522 0.950 . S
H4511 C4523 0.950 . S
C4512 H4504 0.950 . S
C4512 C4513 1.386 . S
C4512 C4514 1.391 . S
C4513 C4512 1.386 . S
C4513 C4517 1.393 . S
C4514 H4506 0.950 . S
C4514 C4512 1.391 . S
C4514 C4515 1.400 . S
C4515 C4514 1.400 . S
C4515 C4516 1.398 . S
C4515 C4521 1.491 . S
C4516 H4507 0.950 . S
C4516 C4515 1.398 . S
C4516 C4517 1.391 . S
C4517 H4505 0.950 . S
C4517 C4513 1.393 . S
C4517 C4516 1.391 . S
C4518 H4508 0.950 . S
C4518 C4519 1.386 . S
C4518 C4520 1.391 . S
C4519 C4518 1.386 . S
C4519 C4523 1.393 . S
C4520 H4509 0.950 . S
C4520 C4518 1.391 . S
C4520 C4521 1.400 . S
C4521 C4515 1.491 . S
C4521 C4520 1.400 . S
C4521 C4522 1.398 . S
C4522 H4510 0.950 . S
C4522 C4521 1.398 . S
C4522 C4523 1.391 . S
C4523 H4511 0.950 . S
C4523 C4519 1.393 . S
C4523 C4522 1.391 . S
H4524 C4532 0.950 . S
H4525 C4537 0.950 . S
H4526 C4534 0.950 . S
H4527 C4536 0.950 . S
H4528 C4538 0.950 . S
H4529 C4540 0.950 . S
H4530 C4542 0.950 . S
H4531 C4543 0.950 . S
C4532 H4524 0.950 . S
C4532 C4533 1.386 . S
C4532 C4534 1.391 . S
C4533 C4532 1.386 . S
C4533 C4537 1.393 . S
C4534 H4526 0.950 . S
C4534 C4532 1.391 . S
C4534 C4535 1.400 . S
C4535 C4534 1.400 . S
C4535 C4536 1.398 . S
C4535 C4541 1.491 . S
C4536 H4527 0.950 . S
C4536 C4535 1.398 . S
C4536 C4537 1.391 . S
C4537 H4525 0.950 . S
C4537 C4533 1.393 . S
C4537 C4536 1.391 . S
C4538 H4528 0.950 . S
C4538 C4539 1.386 . S
C4538 C4540 1.391 . S
C4539 C4538 1.386 . S
C4539 C4543 1.393 . S
C4540 H4529 0.950 . S
C4540 C4538 1.391 . S
C4540 C4541 1.400 . S
C4541 C4535 1.491 . S
C4541 C4540 1.400 . S
C4541 C4542 1.398 . S
C4542 H4530 0.950 . S
C4542 C4541 1.398 . S
C4542 C4543 1.391 . S
C4543 H4531 0.950 . S
C4543 C4539 1.393 . S
C4543 C4542 1.391 . S
H4544 C4552 0.950 . S
H4545 C4557 0.950 . S
H4546 C4554 0.950 . S
H4547 C4556 0.950 . S
H4548 C4558 0.950 . S
H4549 C4560 0.950 . S
H4550 C4562 0.950 . S
H4551 C4563 0.950 . S
C4552 H4544 0.950 . S
C4552 C4553 1.386 . S
C4552 C4554 1.391 . S
C4553 C4552 1.386 . S
C4553 C4557 1.393 . S
C4554 H4546 0.950 . S
C4554 C4552 1.391 . S
C4554 C4555 1.400 . S
C4555 C4554 1.400 . S
C4555 C4556 1.398 . S
C4555 C4561 1.491 . S
C4556 H4547 0.950 . S
C4556 C4555 1.398 . S
C4556 C4557 1.391 . S
C4557 H4545 0.950 . S
C4557 C4553 1.393 . S
C4557 C4556 1.391 . S
C4558 H4548 0.950 . S
C4558 C4559 1.386 . S
C4558 C4560 1.391 . S
C4559 C4558 1.386 . S
C4559 C4563 1.393 . S
C4560 H4549 0.950 . S
C4560 C4558 1.391 . S
C4560 C4561 1.400 . S
C4561 C4555 1.491 . S
C4561 C4560 1.400 . S
C4561 C4562 1.398 . S
C4562 H4550 0.950 . S
C4562 C4561 1.398 . S
C4562 C4563 1.391 . S
C4563 H4551 0.950 . S
C4563 C4559 1.393 . S
C4563 C4562 1.391 . S
H4564 C4572 0.950 . S
H4565 C4577 0.950 . S
H4566 C4574 0.950 . S
H4567 C4576 0.950 . S
H4568 C4578 0.950 . S
H4569 C4580 0.950 . S
H4570 C4582 0.950 . S
H4571 C4583 0.950 . S
C4572 H4564 0.950 . S
C4572 C4573 1.386 . S
C4572 C4574 1.391 . S
C4573 C4572 1.386 . S
C4573 C4577 1.393 . S
C4574 H4566 0.950 . S
C4574 C4572 1.391 . S
C4574 C4575 1.400 . S
C4575 C4574 1.400 . S
C4575 C4576 1.398 . S
C4575 C4581 1.491 . S
C4576 H4567 0.950 . S
C4576 C4575 1.398 . S
C4576 C4577 1.391 . S
C4577 H4565 0.950 . S
C4577 C4573 1.393 . S
C4577 C4576 1.391 . S
C4578 H4568 0.950 . S
C4578 C4579 1.386 . S
C4578 C4580 1.391 . S
C4579 C4578 1.386 . S
C4579 C4583 1.393 . S
C4580 H4569 0.950 . S
C4580 C4578 1.391 . S
C4580 C4581 1.400 . S
C4581 C4575 1.491 . S
C4581 C4580 1.400 . S
C4581 C4582 1.398 . S
C4582 H4570 0.950 . S
C4582 C4581 1.398 . S
C4582 C4583 1.391 . S
C4583 H4571 0.950 . S
C4583 C4579 1.393 . S
C4583 C4582 1.391 . S
H4584 C4592 0.950 . S
H4585 C4597 0.950 . S
H4586 C4594 0.950 . S
H4587 C4596 0.950 . S
H4588 C4598 0.950 . S
H4589 C4600 0.950 . S
H4590 C4602 0.950 . S
H4591 C4603 0.950 . S
C4592 H4584 0.950 . S
C4592 C4593 1.386 . S
C4592 C4594 1.391 . S
C4593 C4592 1.386 . S
C4593 C4597 1.393 . S
C4594 H4586 0.950 . S
C4594 C4592 1.391 . S
C4594 C4595 1.400 . S
C4595 C4594 1.400 . S
C4595 C4596 1.398 . S
C4595 C4601 1.491 . S
C4596 H4587 0.950 . S
C4596 C4595 1.398 . S
C4596 C4597 1.391 . S
C4597 H4585 0.950 . S
C4597 C4593 1.393 . S
C4597 C4596 1.391 . S
C4598 H4588 0.950 . S
C4598 C4599 1.386 . S
C4598 C4600 1.391 . S
C4599 C4598 1.386 . S
C4599 C4603 1.393 . S
C4600 H4589 0.950 . S
C4600 C4598 1.391 . S
C4600 C4601 1.400 . S
C4601 C4595 1.491 . S
C4601 C4600 1.400 . S
C4601 C4602 1.398 . S
C4602 H4590 0.950 . S
C4602 C4601 1.398 . S
C4602 C4603 1.391 . S
C4603 H4591 0.950 . S
C4603 C4599 1.393 . S
C4603 C4602 1.391 . S
H4604 C4612 0.950 . S
H4605 C4617 0.950 . S
H4606 C4614 0.950 . S
H4607 C4616 0.950 . S
H4608 C4618 0.950 . S
H4609 C4620 0.950 . S
H4610 C4622 0.950 . S
H4611 C4623 0.950 . S
C4612 H4604 0.950 . S
C4612 C4613 1.386 . S
C4612 C4614 1.391 . S
C4613 C4612 1.386 . S
C4613 C4617 1.393 . S
C4614 H4606 0.950 . S
C4614 C4612 1.391 . S
C4614 C4615 1.400 . S
C4615 C4614 1.400 . S
C4615 C4616 1.398 . S
C4615 C4621 1.491 . S
C4616 H4607 0.950 . S
C4616 C4615 1.398 . S
C4616 C4617 1.391 . S
C4617 H4605 0.950 . S
C4617 C4613 1.393 . S
C4617 C4616 1.391 . S
C4618 H4608 0.950 . S
C4618 C4619 1.386 . S
C4618 C4620 1.391 . S
C4619 C4618 1.386 . S
C4619 C4623 1.393 . S
C4620 H4609 0.950 . S
C4620 C4618 1.391 . S
C4620 C4621 1.400 . S
C4621 C4615 1.491 . S
C4621 C4620 1.400 . S
C4621 C4622 1.398 . S
C4622 H4610 0.950 . S
C4622 C4621 1.398 . S
C4622 C4623 1.391 . S
C4623 H4611 0.950 . S
C4623 C4619 1.393 . S
C4623 C4622 1.391 . S
H4624 C4632 0.950 . S
H4625 C4637 0.950 . S
H4626 C4634 0.950 . S
H4627 C4636 0.950 . S
H4628 C4638 0.950 . S
H4629 C4640 0.950 . S
H4630 C4642 0.950 . S
H4631 C4643 0.950 . S
C4632 H4624 0.950 . S
C4632 C4633 1.386 . S
C4632 C4634 1.391 . S
C4633 C4632 1.386 . S
C4633 C4637 1.393 . S
C4634 H4626 0.950 . S
C4634 C4632 1.391 . S
C4634 C4635 1.400 . S
C4635 C4634 1.400 . S
C4635 C4636 1.398 . S
C4635 C4641 1.491 . S
C4636 H4627 0.950 . S
C4636 C4635 1.398 . S
C4636 C4637 1.391 . S
C4637 H4625 0.950 . S
C4637 C4633 1.393 . S
C4637 C4636 1.391 . S
C4638 H4628 0.950 . S
C4638 C4639 1.386 . S
C4638 C4640 1.391 . S
C4639 C4638 1.386 . S
C4639 C4643 1.393 . S
C4640 H4629 0.950 . S
C4640 C4638 1.391 . S
C4640 C4641 1.400 . S
C4641 C4635 1.491 . S
C4641 C4640 1.400 . S
C4641 C4642 1.398 . S
C4642 H4630 0.950 . S
C4642 C4641 1.398 . S
C4642 C4643 1.391 . S
C4643 H4631 0.950 . S
C4643 C4639 1.393 . S
C4643 C4642 1.391 . S
H4644 C4652 0.950 . S
H4645 C4657 0.950 . S
H4646 C4654 0.950 . S
H4647 C4656 0.950 . S
H4648 C4658 0.950 . S
H4649 C4660 0.950 . S
H4650 C4662 0.950 . S
H4651 C4663 0.950 . S
C4652 H4644 0.950 . S
C4652 C4653 1.386 . S
C4652 C4654 1.391 . S
C4653 C4652 1.386 . S
C4653 C4657 1.393 . S
C4654 H4646 0.950 . S
C4654 C4652 1.391 . S
C4654 C4655 1.400 . S
C4655 C4654 1.400 . S
C4655 C4656 1.398 . S
C4655 C4661 1.491 . S
C4656 H4647 0.950 . S
C4656 C4655 1.398 . S
C4656 C4657 1.391 . S
C4657 H4645 0.950 . S
C4657 C4653 1.393 . S
C4657 C4656 1.391 . S
C4658 H4648 0.950 . S
C4658 C4659 1.386 . S
C4658 C4660 1.391 . S
C4659 C4658 1.386 . S
C4659 C4663 1.393 . S
C4660 H4649 0.950 . S
C4660 C4658 1.391 . S
C4660 C4661 1.400 . S
C4661 C4655 1.491 . S
C4661 C4660 1.400 . S
C4661 C4662 1.398 . S
C4662 H4650 0.950 . S
C4662 C4661 1.398 . S
C4662 C4663 1.391 . S
C4663 H4651 0.950 . S
C4663 C4659 1.393 . S
C4663 C4662 1.391 . S
H4664 C4672 0.950 . S
H4665 C4677 0.950 . S
H4666 C4674 0.950 . S
H4667 C4676 0.950 . S
H4668 C4678 0.950 . S
H4669 C4680 0.950 . S
H4670 C4682 0.950 . S
H4671 C4683 0.950 . S
C4672 H4664 0.950 . S
C4672 C4673 1.386 . S
C4672 C4674 1.391 . S
C4673 C4672 1.386 . S
C4673 C4677 1.393 . S
C4674 H4666 0.950 . S
C4674 C4672 1.391 . S
C4674 C4675 1.400 . S
C4675 C4674 1.400 . S
C4675 C4676 1.398 . S
C4675 C4681 1.491 . S
C4676 H4667 0.950 . S
C4676 C4675 1.398 . S
C4676 C4677 1.391 . S
C4677 H4665 0.950 . S
C4677 C4673 1.393 . S
C4677 C4676 1.391 . S
C4678 H4668 0.950 . S
C4678 C4679 1.386 . S
C4678 C4680 1.391 . S
C4679 C4678 1.386 . S
C4679 C4683 1.393 . S
C4680 H4669 0.950 . S
C4680 C4678 1.391 . S
C4680 C4681 1.400 . S
C4681 C4675 1.491 . S
C4681 C4680 1.400 . S
C4681 C4682 1.398 . S
C4682 H4670 0.950 . S
C4682 C4681 1.398 . S
C4682 C4683 1.391 . S
C4683 H4671 0.950 . S
C4683 C4679 1.393 . S
C4683 C4682 1.391 . S
H4684 C4692 0.950 . S
H4685 C4697 0.950 . S
H4686 C4694 0.950 . S
H4687 C4696 0.950 . S
H4688 C4698 0.950 . S
H4689 C4700 0.950 . S
H4690 C4702 0.950 . S
H4691 C4703 0.950 . S
C4692 H4684 0.950 . S
C4692 C4693 1.386 . S
C4692 C4694 1.391 . S
C4693 C4692 1.386 . S
C4693 C4697 1.393 . S
C4694 H4686 0.950 . S
C4694 C4692 1.391 . S
C4694 C4695 1.400 . S
C4695 C4694 1.400 . S
C4695 C4696 1.398 . S
C4695 C4701 1.491 . S
C4696 H4687 0.950 . S
C4696 C4695 1.398 . S
C4696 C4697 1.391 . S
C4697 H4685 0.950 . S
C4697 C4693 1.393 . S
C4697 C4696 1.391 . S
C4698 H4688 0.950 . S
C4698 C4699 1.386 . S
C4698 C4700 1.391 . S
C4699 C4698 1.386 . S
C4699 C4703 1.393 . S
C4700 H4689 0.950 . S
C4700 C4698 1.391 . S
C4700 C4701 1.400 . S
C4701 C4695 1.491 . S
C4701 C4700 1.400 . S
C4701 C4702 1.398 . S
C4702 H4690 0.950 . S
C4702 C4701 1.398 . S
C4702 C4703 1.391 . S
C4703 H4691 0.950 . S
C4703 C4699 1.393 . S
C4703 C4702 1.391 . S
H4704 C4712 0.950 . S
H4705 C4717 0.950 . S
H4706 C4714 0.950 . S
H4707 C4716 0.950 . S
H4708 C4718 0.950 . S
H4709 C4720 0.950 . S
H4710 C4722 0.950 . S
H4711 C4723 0.950 . S
C4712 H4704 0.950 . S
C4712 C4713 1.386 . S
C4712 C4714 1.391 . S
C4713 C4712 1.386 . S
C4713 C4717 1.393 . S
C4714 H4706 0.950 . S
C4714 C4712 1.391 . S
C4714 C4715 1.400 . S
C4715 C4714 1.400 . S
C4715 C4716 1.398 . S
C4715 C4721 1.491 . S
C4716 H4707 0.950 . S
C4716 C4715 1.398 . S
C4716 C4717 1.391 . S
C4717 H4705 0.950 . S
C4717 C4713 1.393 . S
C4717 C4716 1.391 . S
C4718 H4708 0.950 . S
C4718 C4719 1.386 . S
C4718 C4720 1.391 . S
C4719 C4718 1.386 . S
C4719 C4723 1.393 . S
C4720 H4709 0.950 . S
C4720 C4718 1.391 . S
C4720 C4721 1.400 . S
C4721 C4715 1.491 . S
C4721 C4720 1.400 . S
C4721 C4722 1.398 . S
C4722 H4710 0.950 . S
C4722 C4721 1.398 . S
C4722 C4723 1.391 . S
C4723 H4711 0.950 . S
C4723 C4719 1.393 . S
C4723 C4722 1.391 . S
H4724 C4732 0.950 . S
H4725 C4737 0.950 . S
H4726 C4734 0.950 . S
H4727 C4736 0.950 . S
H4728 C4738 0.950 . S
H4729 C4740 0.950 . S
H4730 C4742 0.950 . S
H4731 C4743 0.950 . S
C4732 H4724 0.950 . S
C4732 C4733 1.386 . S
C4732 C4734 1.391 . S
C4733 C4732 1.386 . S
C4733 C4737 1.393 . S
C4734 H4726 0.950 . S
C4734 C4732 1.391 . S
C4734 C4735 1.400 . S
C4735 C4734 1.400 . S
C4735 C4736 1.398 . S
C4735 C4741 1.491 . S
C4736 H4727 0.950 . S
C4736 C4735 1.398 . S
C4736 C4737 1.391 . S
C4737 H4725 0.950 . S
C4737 C4733 1.393 . S
C4737 C4736 1.391 . S
C4738 H4728 0.950 . S
C4738 C4739 1.386 . S
C4738 C4740 1.391 . S
C4739 C4738 1.386 . S
C4739 C4743 1.393 . S
C4740 H4729 0.950 . S
C4740 C4738 1.391 . S
C4740 C4741 1.400 . S
C4741 C4735 1.491 . S
C4741 C4740 1.400 . S
C4741 C4742 1.398 . S
C4742 H4730 0.950 . S
C4742 C4741 1.398 . S
C4742 C4743 1.391 . S
C4743 H4731 0.950 . S
C4743 C4739 1.393 . S
C4743 C4742 1.391 . S
H4744 C4752 0.950 . S
H4745 C4757 0.950 . S
H4746 C4754 0.950 . S
H4747 C4756 0.950 . S
H4748 C4758 0.950 . S
H4749 C4760 0.950 . S
H4750 C4762 0.950 . S
H4751 C4763 0.950 . S
C4752 H4744 0.950 . S
C4752 C4753 1.386 . S
C4752 C4754 1.391 . S
C4753 C4752 1.386 . S
C4753 C4757 1.393 . S
C4754 H4746 0.950 . S
C4754 C4752 1.391 . S
C4754 C4755 1.400 . S
C4755 C4754 1.400 . S
C4755 C4756 1.398 . S
C4755 C4761 1.491 . S
C4756 H4747 0.950 . S
C4756 C4755 1.398 . S
C4756 C4757 1.391 . S
C4757 H4745 0.950 . S
C4757 C4753 1.393 . S
C4757 C4756 1.391 . S
C4758 H4748 0.950 . S
C4758 C4759 1.386 . S
C4758 C4760 1.391 . S
C4759 C4758 1.386 . S
C4759 C4763 1.393 . S
C4760 H4749 0.950 . S
C4760 C4758 1.391 . S
C4760 C4761 1.400 . S
C4761 C4755 1.491 . S
C4761 C4760 1.400 . S
C4761 C4762 1.398 . S
C4762 H4750 0.950 . S
C4762 C4761 1.398 . S
C4762 C4763 1.391 . S
C4763 H4751 0.950 . S
C4763 C4759 1.393 . S
C4763 C4762 1.391 . S
H4764 C4772 0.950 . S
H4765 C4777 0.950 . S
H4766 C4774 0.950 . S
H4767 C4776 0.950 . S
H4768 C4778 0.950 . S
H4769 C4780 0.950 . S
H4770 C4782 0.950 . S
H4771 C4783 0.950 . S
C4772 H4764 0.950 . S
C4772 C4773 1.386 . S
C4772 C4774 1.391 . S
C4773 C4772 1.386 . S
C4773 C4777 1.393 . S
C4774 H4766 0.950 . S
C4774 C4772 1.391 . S
C4774 C4775 1.400 . S
C4775 C4774 1.400 . S
C4775 C4776 1.398 . S
C4775 C4781 1.491 . S
C4776 H4767 0.950 . S
C4776 C4775 1.398 . S
C4776 C4777 1.391 . S
C4777 H4765 0.950 . S
C4777 C4773 1.393 . S
C4777 C4776 1.391 . S
C4778 H4768 0.950 . S
C4778 C4779 1.386 . S
C4778 C4780 1.391 . S
C4779 C4778 1.386 . S
C4779 C4783 1.393 . S
C4780 H4769 0.950 . S
C4780 C4778 1.391 . S
C4780 C4781 1.400 . S
C4781 C4775 1.491 . S
C4781 C4780 1.400 . S
C4781 C4782 1.398 . S
C4782 H4770 0.950 . S
C4782 C4781 1.398 . S
C4782 C4783 1.391 . S
C4783 H4771 0.950 . S
C4783 C4779 1.393 . S
C4783 C4782 1.391 . S
H4784 C4792 0.950 . S
H4785 C4797 0.950 . S
H4786 C4794 0.950 . S
H4787 C4796 0.950 . S
H4788 C4798 0.950 . S
H4789 C4800 0.950 . S
H4790 C4802 0.950 . S
H4791 C4803 0.950 . S
C4792 H4784 0.950 . S
C4792 C4793 1.386 . S
C4792 C4794 1.391 . S
C4793 C4792 1.386 . S
C4793 C4797 1.393 . S
C4794 H4786 0.950 . S
C4794 C4792 1.391 . S
C4794 C4795 1.400 . S
C4795 C4794 1.400 . S
C4795 C4796 1.398 . S
C4795 C4801 1.491 . S
C4796 H4787 0.950 . S
C4796 C4795 1.398 . S
C4796 C4797 1.391 . S
C4797 H4785 0.950 . S
C4797 C4793 1.393 . S
C4797 C4796 1.391 . S
C4798 H4788 0.950 . S
C4798 C4799 1.386 . S
C4798 C4800 1.391 . S
C4799 C4798 1.386 . S
C4799 C4803 1.393 . S
C4800 H4789 0.950 . S
C4800 C4798 1.391 . S
C4800 C4801 1.400 . S
C4801 C4795 1.491 . S
C4801 C4800 1.400 . S
C4801 C4802 1.398 . S
C4802 H4790 0.950 . S
C4802 C4801 1.398 . S
C4802 C4803 1.391 . S
C4803 H4791 0.950 . S
C4803 C4799 1.393 . S
C4803 C4802 1.391 . S
H4804 C4812 0.950 . S
H4805 C4817 0.950 . S
H4806 C4814 0.950 . S
H4807 C4816 0.950 . S
H4808 C4818 0.950 . S
H4809 C4820 0.950 . S
H4810 C4822 0.950 . S
H4811 C4823 0.950 . S
C4812 H4804 0.950 . S
C4812 C4813 1.386 . S
C4812 C4814 1.391 . S
C4813 C4812 1.386 . S
C4813 C4817 1.393 . S
C4814 H4806 0.950 . S
C4814 C4812 1.391 . S
C4814 C4815 1.400 . S
C4815 C4814 1.400 . S
C4815 C4816 1.398 . S
C4815 C4821 1.491 . S
C4816 H4807 0.950 . S
C4816 C4815 1.398 . S
C4816 C4817 1.391 . S
C4817 H4805 0.950 . S
C4817 C4813 1.393 . S
C4817 C4816 1.391 . S
C4818 H4808 0.950 . S
C4818 C4819 1.386 . S
C4818 C4820 1.391 . S
C4819 C4818 1.386 . S
C4819 C4823 1.393 . S
C4820 H4809 0.950 . S
C4820 C4818 1.391 . S
C4820 C4821 1.400 . S
C4821 C4815 1.491 . S
C4821 C4820 1.400 . S
C4821 C4822 1.398 . S
C4822 H4810 0.950 . S
C4822 C4821 1.398 . S
C4822 C4823 1.391 . S
C4823 H4811 0.950 . S
C4823 C4819 1.393 . S
C4823 C4822 1.391 . S
H4824 C4832 0.950 . S
H4825 C4837 0.950 . S
H4826 C4834 0.950 . S
H4827 C4836 0.950 . S
H4828 C4838 0.950 . S
H4829 C4840 0.950 . S
H4830 C4842 0.950 . S
H4831 C4843 0.950 . S
C4832 H4824 0.950 . S
C4832 C4833 1.386 . S
C4832 C4834 1.391 . S
C4833 C4832 1.386 . S
C4833 C4837 1.393 . S
C4834 H4826 0.950 . S
C4834 C4832 1.391 . S
C4834 C4835 1.400 . S
C4835 C4834 1.400 . S
C4835 C4836 1.398 . S
C4835 C4841 1.491 . S
C4836 H4827 0.950 . S
C4836 C4835 1.398 . S
C4836 C4837 1.391 . S
C4837 H4825 0.950 . S
C4837 C4833 1.393 . S
C4837 C4836 1.391 . S
C4838 H4828 0.950 . S
C4838 C4839 1.386 . S
C4838 C4840 1.391 . S
C4839 C4838 1.386 . S
C4839 C4843 1.393 . S
C4840 H4829 0.950 . S
C4840 C4838 1.391 . S
C4840 C4841 1.400 . S
C4841 C4835 1.491 . S
C4841 C4840 1.400 . S
C4841 C4842 1.398 . S
C4842 H4830 0.950 . S
C4842 C4841 1.398 . S
C4842 C4843 1.391 . S
C4843 H4831 0.950 . S
C4843 C4839 1.393 . S
C4843 C4842 1.391 . S
H4844 C4852 0.950 . S
H4845 C4857 0.950 . S
H4846 C4854 0.950 . S
H4847 C4856 0.950 . S
H4848 C4858 0.950 . S
H4849 C4860 0.950 . S
H4850 C4862 0.950 . S
H4851 C4863 0.950 . S
C4852 H4844 0.950 . S
C4852 C4853 1.386 . S
C4852 C4854 1.391 . S
C4853 C4852 1.386 . S
C4853 C4857 1.393 . S
C4854 H4846 0.950 . S
C4854 C4852 1.391 . S
C4854 C4855 1.400 . S
C4855 C4854 1.400 . S
C4855 C4856 1.398 . S
C4855 C4861 1.491 . S
C4856 H4847 0.950 . S
C4856 C4855 1.398 . S
C4856 C4857 1.391 . S
C4857 H4845 0.950 . S
C4857 C4853 1.393 . S
C4857 C4856 1.391 . S
C4858 H4848 0.950 . S
C4858 C4859 1.386 . S
C4858 C4860 1.391 . S
C4859 C4858 1.386 . S
C4859 C4863 1.393 . S
C4860 H4849 0.950 . S
C4860 C4858 1.391 . S
C4860 C4861 1.400 . S
C4861 C4855 1.491 . S
C4861 C4860 1.400 . S
C4861 C4862 1.398 . S
C4862 H4850 0.950 . S
C4862 C4861 1.398 . S
C4862 C4863 1.391 . S
C4863 H4851 0.950 . S
C4863 C4859 1.393 . S
C4863 C4862 1.391 . S
H4864 C4872 0.950 . S
H4865 C4877 0.950 . S
H4866 C4874 0.950 . S
H4867 C4876 0.950 . S
H4868 C4878 0.950 . S
H4869 C4880 0.950 . S
H4870 C4882 0.950 . S
H4871 C4883 0.950 . S
C4872 H4864 0.950 . S
C4872 C4873 1.386 . S
C4872 C4874 1.391 . S
C4873 C4872 1.386 . S
C4873 C4877 1.393 . S
C4874 H4866 0.950 . S
C4874 C4872 1.391 . S
C4874 C4875 1.400 . S
C4875 C4874 1.400 . S
C4875 C4876 1.398 . S
C4875 C4881 1.491 . S
C4876 H4867 0.950 . S
C4876 C4875 1.398 . S
C4876 C4877 1.391 . S
C4877 H4865 0.950 . S
C4877 C4873 1.393 . S
C4877 C4876 1.391 . S
C4878 H4868 0.950 . S
C4878 C4879 1.386 . S
C4878 C4880 1.391 . S
C4879 C4878 1.386 . S
C4879 C4883 1.393 . S
C4880 H4869 0.950 . S
C4880 C4878 1.391 . S
C4880 C4881 1.400 . S
C4881 C4875 1.491 . S
C4881 C4880 1.400 . S
C4881 C4882 1.398 . S
C4882 H4870 0.950 . S
C4882 C4881 1.398 . S
C4882 C4883 1.391 . S
C4883 H4871 0.950 . S
C4883 C4879 1.393 . S
C4883 C4882 1.391 . S
H4884 C4892 0.950 . S
H4885 C4897 0.950 . S
H4886 C4894 0.950 . S
H4887 C4896 0.950 . S
H4888 C4898 0.950 . S
H4889 C4900 0.950 . S
H4890 C4902 0.950 . S
H4891 C4903 0.950 . S
C4892 H4884 0.950 . S
C4892 C4893 1.386 . S
C4892 C4894 1.391 . S
C4893 C4892 1.386 . S
C4893 C4897 1.393 . S
C4894 H4886 0.950 . S
C4894 C4892 1.391 . S
C4894 C4895 1.400 . S
C4895 C4894 1.400 . S
C4895 C4896 1.398 . S
C4895 C4901 1.491 . S
C4896 H4887 0.950 . S
C4896 C4895 1.398 . S
C4896 C4897 1.391 . S
C4897 H4885 0.950 . S
C4897 C4893 1.393 . S
C4897 C4896 1.391 . S
C4898 H4888 0.950 . S
C4898 C4899 1.386 . S
C4898 C4900 1.391 . S
C4899 C4898 1.386 . S
C4899 C4903 1.393 . S
C4900 H4889 0.950 . S
C4900 C4898 1.391 . S
C4900 C4901 1.400 . S
C4901 C4895 1.491 . S
C4901 C4900 1.400 . S
C4901 C4902 1.398 . S
C4902 H4890 0.950 . S
C4902 C4901 1.398 . S
C4902 C4903 1.391 . S
C4903 H4891 0.950 . S
C4903 C4899 1.393 . S
C4903 C4902 1.391 . S
H4904 C4912 0.950 . S
H4905 C4917 0.950 . S
H4906 C4914 0.950 . S
H4907 C4916 0.950 . S
H4908 C4918 0.950 . S
H4909 C4920 0.950 . S
H4910 C4922 0.950 . S
H4911 C4923 0.950 . S
C4912 H4904 0.950 . S
C4912 C4913 1.386 . S
C4912 C4914 1.391 . S
C4913 C4912 1.386 . S
C4913 C4917 1.393 . S
C4914 H4906 0.950 . S
C4914 C4912 1.391 . S
C4914 C4915 1.400 . S
C4915 C4914 1.400 . S
C4915 C4916 1.398 . S
C4915 C4921 1.491 . S
C4916 H4907 0.950 . S
C4916 C4915 1.398 . S
C4916 C4917 1.391 . S
C4917 H4905 0.950 . S
C4917 C4913 1.393 . S
C4917 C4916 1.391 . S
C4918 H4908 0.950 . S
C4918 C4919 1.386 . S
C4918 C4920 1.391 . S
C4919 C4918 1.386 . S
C4919 C4923 1.393 . S
C4920 H4909 0.950 . S
C4920 C4918 1.391 . S
C4920 C4921 1.400 . S
C4921 C4915 1.491 . S
C4921 C4920 1.400 . S
C4921 C4922 1.398 . S
C4922 H4910 0.950 . S
C4922 C4921 1.398 . S
C4922 C4923 1.391 . S
C4923 H4911 0.950 . S
C4923 C4919 1.393 . S
C4923 C4922 1.391 . S
H4924 C4932 0.950 . S
H4925 C4937 0.950 . S
H4926 C4934 0.950 . S
H4927 C4936 0.950 . S
H4928 C4938 0.950 . S
H4929 C4940 0.950 . S
H4930 C4942 0.950 . S
H4931 C4943 0.950 . S
C4932 H4924 0.950 . S
C4932 C4933 1.386 . S
C4932 C4934 1.391 . S
C4933 C4932 1.386 . S
C4933 C4937 1.393 . S
C4934 H4926 0.950 . S
C4934 C4932 1.391 . S
C4934 C4935 1.400 . S
C4935 C4934 1.400 . S
C4935 C4936 1.398 . S
C4935 C4941 1.491 . S
C4936 H4927 0.950 . S
C4936 C4935 1.398 . S
C4936 C4937 1.391 . S
C4937 H4925 0.950 . S
C4937 C4933 1.393 . S
C4937 C4936 1.391 . S
C4938 H4928 0.950 . S
C4938 C4939 1.386 . S
C4938 C4940 1.391 . S
C4939 C4938 1.386 . S
C4939 C4943 1.393 . S
C4940 H4929 0.950 . S
C4940 C4938 1.391 . S
C4940 C4941 1.400 . S
C4941 C4935 1.491 . S
C4941 C4940 1.400 . S
C4941 C4942 1.398 . S
C4942 H4930 0.950 . S
C4942 C4941 1.398 . S
C4942 C4943 1.391 . S
C4943 H4931 0.950 . S
C4943 C4939 1.393 . S
C4943 C4942 1.391 . S
H4944 C4952 0.950 . S
H4945 C4957 0.950 . S
H4946 C4954 0.950 . S
H4947 C4956 0.950 . S
H4948 C4958 0.950 . S
H4949 C4960 0.950 . S
H4950 C4962 0.950 . S
H4951 C4963 0.950 . S
C4952 H4944 0.950 . S
C4952 C4953 1.386 . S
C4952 C4954 1.391 . S
C4953 C4952 1.386 . S
C4953 C4957 1.393 . S
C4954 H4946 0.950 . S
C4954 C4952 1.391 . S
C4954 C4955 1.400 . S
C4955 C4954 1.400 . S
C4955 C4956 1.398 . S
C4955 C4961 1.491 . S
C4956 H4947 0.950 . S
C4956 C4955 1.398 . S
C4956 C4957 1.391 . S
C4957 H4945 0.950 . S
C4957 C4953 1.393 . S
C4957 C4956 1.391 . S
C4958 H4948 0.950 . S
C4958 C4959 1.386 . S
C4958 C4960 1.391 . S
C4959 C4958 1.386 . S
C4959 C4963 1.393 . S
C4960 H4949 0.950 . S
C4960 C4958 1.391 . S
C4960 C4961 1.400 . S
C4961 C4955 1.491 . S
C4961 C4960 1.400 . S
C4961 C4962 1.398 . S
C4962 H4950 0.950 . S
C4962 C4961 1.398 . S
C4962 C4963 1.391 . S
C4963 H4951 0.950 . S
C4963 C4959 1.393 . S
C4963 C4962 1.391 . S
H4964 C4972 0.950 . S
H4965 C4977 0.950 . S
H4966 C4974 0.950 . S
H4967 C4976 0.950 . S
H4968 C4978 0.950 . S
H4969 C4980 0.950 . S
H4970 C4982 0.950 . S
H4971 C4983 0.950 . S
C4972 H4964 0.950 . S
C4972 C4973 1.386 . S
C4972 C4974 1.391 . S
C4973 C4972 1.386 . S
C4973 C4977 1.393 . S
C4974 H4966 0.950 . S
C4974 C4972 1.391 . S
C4974 C4975 1.400 . S
C4975 C4974 1.400 . S
C4975 C4976 1.398 . S
C4975 C4981 1.491 . S
C4976 H4967 0.950 . S
C4976 C4975 1.398 . S
C4976 C4977 1.391 . S
C4977 H4965 0.950 . S
C4977 C4973 1.393 . S
C4977 C4976 1.391 . S
C4978 H4968 0.950 . S
C4978 C4979 1.386 . S
C4978 C4980 1.391 . S
C4979 C4978 1.386 . S
C4979 C4983 1.393 . S
C4980 H4969 0.950 . S
C4980 C4978 1.391 . S
C4980 C4981 1.400 . S
C4981 C4975 1.491 . S
C4981 C4980 1.400 . S
C4981 C4982 1.398 . S
C4982 H4970 0.950 . S
C4982 C4981 1.398 . S
C4982 C4983 1.391 . S
C4983 H4971 0.950 . S
C4983 C4979 1.393 . S
C4983 C4982 1.391 . S
H4984 C4992 0.950 . S
H4985 C4997 0.950 . S
H4986 C4994 0.950 . S
H4987 C4996 0.950 . S
H4988 C4998 0.950 . S
H4989 C5000 0.950 . S
H4990 C5002 0.950 . S
H4991 C5003 0.950 . S
C4992 H4984 0.950 . S
C4992 C4993 1.386 . S
C4992 C4994 1.391 . S
C4993 C4992 1.386 . S
C4993 C4997 1.393 . S
C4994 H4986 0.950 . S
C4994 C4992 1.391 . S
C4994 C4995 1.400 . S
C4995 C4994 1.400 . S
C4995 C4996 1.398 . S
C4995 C5001 1.491 . S
C4996 H4987 0.950 . S
C4996 C4995 1.398 . S
C4996 C4997 1.391 . S
C4997 H4985 0.950 . S
C4997 C4993 1.393 . S
C4997 C4996 1.391 . S
C4998 H4988 0.950 . S
C4998 C4999 1.386 . S
C4998 C5000 1.391 . S
C4999 C4998 1.386 . S
C4999 C5003 1.393 . S
C5000 H4989 0.950 . S
C5000 C4998 1.391 . S
C5000 C5001 1.400 . S
C5001 C4995 1.491 . S
C5001 C5000 1.400 . S
C5001 C5002 1.398 . S
C5002 H4990 0.950 . S
C5002 C5001 1.398 . S
C5002 C5003 1.391 . S
C5003 H4991 0.950 . S
C5003 C4999 1.393 . S
C5003 C5002 1.391 . S
H5004 C5012 0.950 . S
H5005 C5017 0.950 . S
H5006 C5014 0.950 . S
H5007 C5016 0.950 . S
H5008 C5018 0.950 . S
H5009 C5020 0.950 . S
H5010 C5022 0.950 . S
H5011 C5023 0.950 . S
C5012 H5004 0.950 . S
C5012 C5013 1.386 . S
C5012 C5014 1.391 . S
C5013 C5012 1.386 . S
C5013 C5017 1.393 . S
C5014 H5006 0.950 . S
C5014 C5012 1.391 . S
C5014 C5015 1.400 . S
C5015 C5014 1.400 . S
C5015 C5016 1.398 . S
C5015 C5021 1.491 . S
C5016 H5007 0.950 . S
C5016 C5015 1.398 . S
C5016 C5017 1.391 . S
C5017 H5005 0.950 . S
C5017 C5013 1.393 . S
C5017 C5016 1.391 . S
C5018 H5008 0.950 . S
C5018 C5019 1.386 . S
C5018 C5020 1.391 . S
C5019 C5018 1.386 . S
C5019 C5023 1.393 . S
C5020 H5009 0.950 . S
C5020 C5018 1.391 . S
C5020 C5021 1.400 . S
C5021 C5015 1.491 . S
C5021 C5020 1.400 . S
C5021 C5022 1.398 . S
C5022 H5010 0.950 . S
C5022 C5021 1.398 . S
C5022 C5023 1.391 . S
C5023 H5011 0.950 . S
C5023 C5019 1.393 . S
C5023 C5022 1.391 . S
H5024 C5032 0.950 . S
H5025 C5037 0.950 . S
H5026 C5034 0.950 . S
H5027 C5036 0.950 . S
H5028 C5038 0.950 . S
H5029 C5040 0.950 . S
H5030 C5042 0.950 . S
H5031 C5043 0.950 . S
C5032 H5024 0.950 . S
C5032 C5033 1.386 . S
C5032 C5034 1.391 . S
C5033 C5032 1.386 . S
C5033 C5037 1.393 . S
C5034 H5026 0.950 . S
C5034 C5032 1.391 . S
C5034 C5035 1.400 . S
C5035 C5034 1.400 . S
C5035 C5036 1.398 . S
C5035 C5041 1.491 . S
C5036 H5027 0.950 . S
C5036 C5035 1.398 . S
C5036 C5037 1.391 . S
C5037 H5025 0.950 . S
C5037 C5033 1.393 . S
C5037 C5036 1.391 . S
C5038 H5028 0.950 . S
C5038 C5039 1.386 . S
C5038 C5040 1.391 . S
C5039 C5038 1.386 . S
C5039 C5043 1.393 . S
C5040 H5029 0.950 . S
C5040 C5038 1.391 . S
C5040 C5041 1.400 . S
C5041 C5035 1.491 . S
C5041 C5040 1.400 . S
C5041 C5042 1.398 . S
C5042 H5030 0.950 . S
C5042 C5041 1.398 . S
C5042 C5043 1.391 . S
C5043 H5031 0.950 . S
C5043 C5039 1.393 . S
C5043 C5042 1.391 . S
H5044 C5052 0.950 . S
H5045 C5057 0.950 . S
H5046 C5054 0.950 . S
H5047 C5056 0.950 . S
H5048 C5058 0.950 . S
H5049 C5060 0.950 . S
H5050 C5062 0.950 . S
H5051 C5063 0.950 . S
C5052 H5044 0.950 . S
C5052 C5053 1.386 . S
C5052 C5054 1.391 . S
C5053 C5052 1.386 . S
C5053 C5057 1.393 . S
C5054 H5046 0.950 . S
C5054 C5052 1.391 . S
C5054 C5055 1.400 . S
C5055 C5054 1.400 . S
C5055 C5056 1.398 . S
C5055 C5061 1.491 . S
C5056 H5047 0.950 . S
C5056 C5055 1.398 . S
C5056 C5057 1.391 . S
C5057 H5045 0.950 . S
C5057 C5053 1.393 . S
C5057 C5056 1.391 . S
C5058 H5048 0.950 . S
C5058 C5059 1.386 . S
C5058 C5060 1.391 . S
C5059 C5058 1.386 . S
C5059 C5063 1.393 . S
C5060 H5049 0.950 . S
C5060 C5058 1.391 . S
C5060 C5061 1.400 . S
C5061 C5055 1.491 . S
C5061 C5060 1.400 . S
C5061 C5062 1.398 . S
C5062 H5050 0.950 . S
C5062 C5061 1.398 . S
C5062 C5063 1.391 . S
C5063 H5051 0.950 . S
C5063 C5059 1.393 . S
C5063 C5062 1.391 . S
H5064 C5072 0.950 . S
H5065 C5077 0.950 . S
H5066 C5074 0.950 . S
H5067 C5076 0.950 . S
H5068 C5078 0.950 . S
H5069 C5080 0.950 . S
H5070 C5082 0.950 . S
H5071 C5083 0.950 . S
C5072 H5064 0.950 . S
C5072 C5073 1.386 . S
C5072 C5074 1.391 . S
C5073 C5072 1.386 . S
C5073 C5077 1.393 . S
C5074 H5066 0.950 . S
C5074 C5072 1.391 . S
C5074 C5075 1.400 . S
C5075 C5074 1.400 . S
C5075 C5076 1.398 . S
C5075 C5081 1.491 . S
C5076 H5067 0.950 . S
C5076 C5075 1.398 . S
C5076 C5077 1.391 . S
C5077 H5065 0.950 . S
C5077 C5073 1.393 . S
C5077 C5076 1.391 . S
C5078 H5068 0.950 . S
C5078 C5079 1.386 . S
C5078 C5080 1.391 . S
C5079 C5078 1.386 . S
C5079 C5083 1.393 . S
C5080 H5069 0.950 . S
C5080 C5078 1.391 . S
C5080 C5081 1.400 . S
C5081 C5075 1.491 . S
C5081 C5080 1.400 . S
C5081 C5082 1.398 . S
C5082 H5070 0.950 . S
C5082 C5081 1.398 . S
C5082 C5083 1.391 . S
C5083 H5071 0.950 . S
C5083 C5079 1.393 . S
C5083 C5082 1.391 . S
H5084 C5092 0.950 . S
H5085 C5097 0.950 . S
H5086 C5094 0.950 . S
H5087 C5096 0.950 . S
H5088 C5098 0.950 . S
H5089 C5100 0.950 . S
H5090 C5102 0.950 . S
H5091 C5103 0.950 . S
C5092 H5084 0.950 . S
C5092 C5093 1.386 . S
C5092 C5094 1.391 . S
C5093 C5092 1.386 . S
C5093 C5097 1.393 . S
C5094 H5086 0.950 . S
C5094 C5092 1.391 . S
C5094 C5095 1.400 . S
C5095 C5094 1.400 . S
C5095 C5096 1.398 . S
C5095 C5101 1.491 . S
C5096 H5087 0.950 . S
C5096 C5095 1.398 . S
C5096 C5097 1.391 . S
C5097 H5085 0.950 . S
C5097 C5093 1.393 . S
C5097 C5096 1.391 . S
C5098 H5088 0.950 . S
C5098 C5099 1.386 . S
C5098 C5100 1.391 . S
C5099 C5098 1.386 . S
C5099 C5103 1.393 . S
C5100 H5089 0.950 . S
C5100 C5098 1.391 . S
C5100 C5101 1.400 . S
C5101 C5095 1.491 . S
C5101 C5100 1.400 . S
C5101 C5102 1.398 . S
C5102 H5090 0.950 . S
C5102 C5101 1.398 . S
C5102 C5103 1.391 . S
C5103 H5091 0.950 . S
C5103 C5099 1.393 . S
C5103 C5102 1.391 . S
H5104 C5112 0.950 . S
H5105 C5117 0.950 . S
H5106 C5114 0.950 . S
H5107 C5116 0.950 . S
H5108 C5118 0.950 . S
H5109 C5120 0.950 . S
H5110 C5122 0.950 . S
H5111 C5123 0.950 . S
C5112 H5104 0.950 . S
C5112 C5113 1.386 . S
C5112 C5114 1.391 . S
C5113 C5112 1.386 . S
C5113 C5117 1.393 . S
C5114 H5106 0.950 . S
C5114 C5112 1.391 . S
C5114 C5115 1.400 . S
C5115 C5114 1.400 . S
C5115 C5116 1.398 . S
C5115 C5121 1.491 . S
C5116 H5107 0.950 . S
C5116 C5115 1.398 . S
C5116 C5117 1.391 . S
C5117 H5105 0.950 . S
C5117 C5113 1.393 . S
C5117 C5116 1.391 . S
C5118 H5108 0.950 . S
C5118 C5119 1.386 . S
C5118 C5120 1.391 . S
C5119 C5118 1.386 . S
C5119 C5123 1.393 . S
C5120 H5109 0.950 . S
C5120 C5118 1.391 . S
C5120 C5121 1.400 . S
C5121 C5115 1.491 . S
C5121 C5120 1.400 . S
C5121 C5122 1.398 . S
C5122 H5110 0.950 . S
C5122 C5121 1.398 . S
C5122 C5123 1.391 . S
C5123 H5111 0.950 . S
C5123 C5119 1.393 . S
C5123 C5122 1.391 . S
H5124 C5132 0.950 . S
H5125 C5137 0.950 . S
H5126 C5134 0.950 . S
H5127 C5136 0.950 . S
H5128 C5138 0.950 . S
H5129 C5140 0.950 . S
H5130 C5142 0.950 . S
H5131 C5143 0.950 . S
C5132 H5124 0.950 . S
C5132 C5133 1.386 . S
C5132 C5134 1.391 . S
C5133 C5132 1.386 . S
C5133 C5137 1.393 . S
C5134 H5126 0.950 . S
C5134 C5132 1.391 . S
C5134 C5135 1.400 . S
C5135 C5134 1.400 . S
C5135 C5136 1.398 . S
C5135 C5141 1.491 . S
C5136 H5127 0.950 . S
C5136 C5135 1.398 . S
C5136 C5137 1.391 . S
C5137 H5125 0.950 . S
C5137 C5133 1.393 . S
C5137 C5136 1.391 . S
C5138 H5128 0.950 . S
C5138 C5139 1.386 . S
C5138 C5140 1.391 . S
C5139 C5138 1.386 . S
C5139 C5143 1.393 . S
C5140 H5129 0.950 . S
C5140 C5138 1.391 . S
C5140 C5141 1.400 . S
C5141 C5135 1.491 . S
C5141 C5140 1.400 . S
C5141 C5142 1.398 . S
C5142 H5130 0.950 . S
C5142 C5141 1.398 . S
C5142 C5143 1.391 . S
C5143 H5131 0.950 . S
C5143 C5139 1.393 . S
C5143 C5142 1.391 . S
H5144 C5152 0.950 . S
H5145 C5157 0.950 . S
H5146 C5154 0.950 . S
H5147 C5156 0.950 . S
H5148 C5158 0.950 . S
H5149 C5160 0.950 . S
H5150 C5162 0.950 . S
H5151 C5163 0.950 . S
C5152 H5144 0.950 . S
C5152 C5153 1.386 . S
C5152 C5154 1.391 . S
C5153 C5152 1.386 . S
C5153 C5157 1.393 . S
C5154 H5146 0.950 . S
C5154 C5152 1.391 . S
C5154 C5155 1.400 . S
C5155 C5154 1.400 . S
C5155 C5156 1.398 . S
C5155 C5161 1.491 . S
C5156 H5147 0.950 . S
C5156 C5155 1.398 . S
C5156 C5157 1.391 . S
C5157 H5145 0.950 . S
C5157 C5153 1.393 . S
C5157 C5156 1.391 . S
C5158 H5148 0.950 . S
C5158 C5159 1.386 . S
C5158 C5160 1.391 . S
C5159 C5158 1.386 . S
C5159 C5163 1.393 . S
C5160 H5149 0.950 . S
C5160 C5158 1.391 . S
C5160 C5161 1.400 . S
C5161 C5155 1.491 . S
C5161 C5160 1.400 . S
C5161 C5162 1.398 . S
C5162 H5150 0.950 . S
C5162 C5161 1.398 . S
C5162 C5163 1.391 . S
C5163 H5151 0.950 . S
C5163 C5159 1.393 . S
C5163 C5162 1.391 . S
H5164 C5172 0.950 . S
H5165 C5177 0.950 . S
H5166 C5174 0.950 . S
H5167 C5176 0.950 . S
H5168 C5178 0.950 . S
H5169 C5180 0.950 . S
H5170 C5182 0.950 . S
H5171 C5183 0.950 . S
C5172 H5164 0.950 . S
C5172 C5173 1.386 . S
C5172 C5174 1.391 . S
C5173 C5172 1.386 . S
C5173 C5177 1.393 . S
C5174 H5166 0.950 . S
C5174 C5172 1.391 . S
C5174 C5175 1.400 . S
C5175 C5174 1.400 . S
C5175 C5176 1.398 . S
C5175 C5181 1.491 . S
C5176 H5167 0.950 . S
C5176 C5175 1.398 . S
C5176 C5177 1.391 . S
C5177 H5165 0.950 . S
C5177 C5173 1.393 . S
C5177 C5176 1.391 . S
C5178 H5168 0.950 . S
C5178 C5179 1.386 . S
C5178 C5180 1.391 . S
C5179 C5178 1.386 . S
C5179 C5183 1.393 . S
C5180 H5169 0.950 . S
C5180 C5178 1.391 . S
C5180 C5181 1.400 . S
C5181 C5175 1.491 . S
C5181 C5180 1.400 . S
C5181 C5182 1.398 . S
C5182 H5170 0.950 . S
C5182 C5181 1.398 . S
C5182 C5183 1.391 . S
C5183 H5171 0.950 . S
C5183 C5179 1.393 . S
C5183 C5182 1.391 . S
C1353 C8 1.311 . S
C1359 C1059 1.280 . S
C1373 C345 1.273 . S
C1379 C22 1.316 . S
C1393 C1031 1.254 . S
C1399 C36 1.320 . S
C1413 C373 1.254 . S
C1419 C50 1.320 . S
C1433 C64 1.316 . S
C1439 C1087 1.274 . S
C1453 C78 1.307 . S
C1459 C429 1.284 . S
C1473 C1115 1.252 . S
C1479 C92 1.322 . S
C1493 C106 1.319 . S
C1499 C401 1.267 . S
C1513 C121 1.325 . S
C1519 C1269 1.254 . S
C1533 C611 1.284 . S
C1539 C134 1.307 . S
C1553 C149 1.325 . S
C1559 C625 1.249 . S
C1573 C162 1.326 . S
C1579 C583 1.251 . S
C1593 C177 1.325 . S
C1599 C1325 1.254 . S
C1613 C190 1.316 . S
C1619 C1241 1.274 . S
C1633 C205 1.325 . S
C1639 C1339 1.249 . S
C1653 C218 1.325 . S
C1659 C1311 1.249 . S
C1673 C1143 1.258 . S
C1679 C232 1.324 . S
C1693 C246 1.309 . S
C1699 C555 1.283 . S
C1713 C261 1.325 . S
C1719 C1185 1.249 . S
C1733 C527 1.269 . S
C1739 C274 1.311 . S
C1753 C289 1.308 . S
C1759 C541 1.277 . S
C1773 C1171 1.250 . S
C1779 C302 1.324 . S
C1793 C317 1.316 . S
C1799 C1129 1.260 . S
C1813 C1157 1.283 . S
C1819 C331 1.306 . S
C1833 C723 1.283 . S
C1839 C344 1.309 . S
C1853 C9 1.251 . S
C1859 C358 1.322 . S
C1873 C372 1.315 . S
C1879 C695 1.275 . S
C1893 C386 1.323 . S
C1899 C37 1.259 . S
C1913 C400 1.324 . S
C1919 C751 1.256 . S
C1933 C93 1.264 . S
C1939 C414 1.314 . S
C1953 C428 1.323 . S
C1959 C779 1.260 . S
C1973 C442 1.307 . S
C1979 C65 1.281 . S
C1993 C456 1.324 . S
C1999 C932 1.257 . S
C2013 C275 1.251 . S
C2019 C470 1.322 . S
C2033 C484 1.318 . S
C2039 C288 1.257 . S
C2053 C247 1.250 . S
C2059 C498 1.326 . S
C2073 C512 1.326 . S
C2079 C988 1.250 . S
C2093 C526 1.309 . S
C2099 C905 1.283 . S
C2113 C540 1.312 . S
C2119 C1002 1.280 . S
C2133 C975 1.255 . S
C2139 C554 1.325 . S
C2153 C807 1.256 . S
C2159 C568 1.319 . S
C2173 C219 1.249 . S
C2179 C582 1.326 . S
C2193 C848 1.284 . S
C2199 C596 1.306 . S
C2213 C610 1.320 . S
C2219 C191 1.266 . S
C2233 C624 1.326 . S
C2239 C204 1.250 . S
C2253 C638 1.325 . S
C2259 C835 1.255 . S
C2273 C792 1.277 . S
C2279 C652 1.314 . S
C2293 C666 1.318 . S
C2299 C820 1.257 . S
C2313 C387 1.261 . S
C2319 C680 1.316 . S
C2333 C1017 1.254 . S
C2339 C694 1.320 . S
C2353 C708 1.319 . S
C2359 C359 1.268 . S
C2373 C1045 1.272 . S
C2379 C722 1.317 . S
C2393 C736 1.311 . S
C2399 C415 1.269 . S
C2413 C1101 1.259 . S
C2419 C750 1.317 . S
C2433 C764 1.307 . S
C2439 C443 1.284 . S
C2453 C1073 1.253 . S
C2459 C778 1.325 . S
C2473 C597 1.260 . S
C2479 C793 1.323 . S
C2493 C806 1.325 . S
C2499 C1283 1.249 . S
C2513 C1297 1.249 . S
C2519 C821 1.326 . S
C2533 C834 1.320 . S
C2539 C1255 1.267 . S
C2553 C653 1.250 . S
C2559 C849 1.326 . S
C2573 C862 1.322 . S
C2579 C569 1.251 . S
C2593 C667 1.284 . S
C2599 C877 1.307 . S
C2613 C639 1.284 . S
C2619 C890 1.308 . S
C2633 C471 1.264 . S
C2639 C904 1.321 . S
C2653 C1227 1.250 . S
C2659 C918 1.326 . S
C2673 C933 1.313 . S
C2679 C513 1.277 . S
C2693 C946 1.324 . S
C2699 C1199 1.256 . S
C2713 C1213 1.272 . S
C2719 C961 1.310 . S
C2733 C499 1.267 . S
C2739 C974 1.312 . S
C2753 C457 1.266 . S
C2759 C989 1.313 . S
C2773 C485 1.254 . S
C2779 C1003 1.325 . S
C2793 C1016 1.309 . S
C2799 C51 1.273 . S
C2813 C1030 1.312 . S
C2819 C681 1.279 . S
C2833 C1044 1.308 . S
C2839 C23 1.276 . S
C2853 C1058 1.307 . S
C2859 C709 1.280 . S
C2873 C79 1.276 . S
C2879 C1072 1.314 . S
C2893 C765 1.276 . S
C2899 C1086 1.315 . S
C2913 C107 1.278 . S
C2919 C1100 1.313 . S
C2933 C737 1.256 . S
C2939 C1114 1.319 . S
C2953 C1128 1.325 . S
C2959 C260 1.252 . S
C2973 C947 1.249 . S
C2979 C1142 1.324 . S
C2993 C1156 1.326 . S
C2999 C960 1.250 . S
C3013 C1170 1.310 . S
C3019 C919 1.282 . S
C3033 C316 1.263 . S
C3039 C1184 1.322 . S
C3053 C233 1.249 . S
C3059 C1198 1.324 . S
C3073 C1212 1.312 . S
C3079 C330 1.279 . S
C3093 C303 1.276 . S
C3099 C1226 1.314 . S
C3113 C1240 1.308 . S
C3119 C135 1.284 . S
C3133 C1254 1.311 . S
C3139 C891 1.269 . S
C3153 C176 1.258 . S
C3159 C1268 1.324 . S
C3173 C1282 1.325 . S
C3179 C863 1.249 . S
C3193 C876 1.254 . S
C3199 C1296 1.325 . S
C3213 C1310 1.309 . S
C3219 C163 1.283 . S
C3233 C1324 1.317 . S
C3239 C120 1.273 . S
C3253 C1338 1.309 . S
C3259 C148 1.283 . S
C3273 C6 1.415 . S
C3279 C609 1.422 . S
C3293 C623 1.404 . S
C3299 C20 1.430 . S
C3313 C581 1.422 . S
C3319 C34 1.416 . S
C3333 C48 1.428 . S
C3339 C1267 1.404 . S
C3353 C62 1.418 . S
C3359 C1309 1.422 . S
C3373 C76 1.429 . S
C3379 C1323 1.404 . S
C3393 C1239 1.408 . S
C3399 C90 1.424 . S
C3413 C1337 1.419 . S
C3419 C104 1.416 . S
C3433 C371 1.413 . S
C3439 C119 1.420 . S
C3453 C132 1.415 . S
C3459 C1057 1.422 . S
C3473 C343 1.407 . S
C3479 C147 1.424 . S
C3493 C1029 1.404 . S
C3499 C160 1.430 . S
C3513 C427 1.422 . S
C3519 C175 1.415 . S
C3533 C188 1.415 . S
C3539 C1113 1.421 . S
C3553 C203 1.426 . S
C3559 C399 1.406 . S
C3573 C216 1.425 . S
C3579 C1085 1.407 . S
C3593 C230 1.417 . S
C3599 C1183 1.417 . S
C3613 C455 1.404 . S
C3619 C244 1.428 . S
C3633 C259 1.417 . S
C3639 C1141 1.422 . S
C3653 C272 1.415 . S
C3659 C483 1.423 . S
C3673 C287 1.420 . S
C3679 C497 1.412 . S
C3693 C300 1.427 . S
C3699 C1211 1.405 . S
C3713 C1225 1.421 . S
C3719 C315 1.418 . S
C3733 C1197 1.404 . S
C3739 C329 1.428 . S
C3753 C273 1.409 . S
C3759 C342 1.428 . S
C3773 C356 1.429 . S
C3779 C286 1.404 . S
C3793 C370 1.430 . S
C3799 C245 1.404 . S
C3813 C384 1.430 . S
C3819 C930 1.406 . S
C3833 C973 1.422 . S
C3839 C398 1.416 . S
C3853 C986 1.416 . S
C3859 C412 1.418 . S
C3873 C426 1.415 . S
C3879 C903 1.422 . S
C3893 C1000 1.404 . S
C3899 C440 1.429 . S
C3913 C454 1.430 . S
C3919 C35 1.405 . S
C3933 C721 1.406 . S
C3939 C468 1.427 . S
C3953 C482 1.416 . S
C3959 C7 1.419 . S
C3973 C693 1.407 . S
C3979 C496 1.425 . S
C3993 C510 1.427 . S
C3999 C91 1.411 . S
C4013 C777 1.408 . S
C4019 C524 1.428 . S
C4033 C63 1.404 . S
C4039 C538 1.430 . S
C4053 C749 1.407 . S
C4059 C552 1.425 . S
C4073 C566 1.416 . S
C4079 C846 1.423 . S
C4093 C580 1.426 . S
C4099 C118 1.406 . S
C4113 C805 1.411 . S
C4119 C594 1.427 . S
C4133 C608 1.415 . S
C4139 C146 1.423 . S
C4153 C161 1.419 . S
C4159 C622 1.421 . S
C4173 C874 1.411 . S
C4179 C636 1.422 . S
C4193 C889 1.416 . S
C4199 C650 1.423 . S
C4213 C861 1.412 . S
C4219 C664 1.421 . S
C4233 C678 1.430 . S
C4239 C1281 1.404 . S
C4253 C692 1.423 . S
C4259 C1295 1.417 . S
C4273 C706 1.424 . S
C4279 C1253 1.408 . S
C4293 C595 1.408 . S
C4299 C720 1.429 . S
C4313 C734 1.428 . S
C4319 C637 1.409 . S
C4333 C651 1.406 . S
C4339 C748 1.430 . S
C4353 C567 1.405 . S
C4359 C762 1.430 . S
C4373 C665 1.410 . S
C4379 C776 1.427 . S
C4393 C791 1.424 . S
C4399 C1043 1.408 . S
C4413 C385 1.404 . S
C4419 C804 1.429 . S
C4433 C819 1.428 . S
C4439 C1015 1.404 . S
C4453 C832 1.422 . S
C4459 C357 1.417 . S
C4473 C847 1.430 . S
C4479 C1099 1.404 . S
C4493 C860 1.417 . S
C4499 C441 1.416 . S
C4513 C1071 1.423 . S
C4519 C875 1.416 . S
C4533 C413 1.413 . S
C4539 C888 1.419 . S
C4553 C902 1.415 . S
C4559 C511 1.423 . S
C4573 C916 1.415 . S
C4579 C1127 1.423 . S
C4593 C931 1.429 . S
C4599 C469 1.407 . S
C4613 C1155 1.407 . S
C4619 C944 1.429 . S
C4633 C959 1.422 . S
C4639 C1169 1.418 . S
C4653 C972 1.415 . S
C4659 C539 1.423 . S
C4673 C553 1.411 . S
C4679 C987 1.421 . S
C4693 C1001 1.430 . S
C4699 C525 1.406 . S
C4713 C1014 1.430 . S
C4719 C945 1.405 . S
C4733 C958 1.420 . S
C4739 C1028 1.420 . S
C4753 C917 1.421 . S
C4759 C1042 1.418 . S
C4773 C1056 1.428 . S
C4779 C258 1.409 . S
C4793 C1070 1.416 . S
C4799 C301 1.419 . S
C4813 C1084 1.417 . S
C4819 C314 1.422 . S
C4833 C231 1.413 . S
C4839 C1098 1.420 . S
C4853 C1112 1.423 . S
C4859 C328 1.416 . S
C4873 C1126 1.426 . S
C4879 C707 1.412 . S
C4893 C1140 1.415 . S
C4899 C49 1.423 . S
C4913 C1154 1.416 . S
C4919 C679 1.419 . S
C4933 C1168 1.417 . S
C4939 C21 1.416 . S
C4953 C1182 1.420 . S
C4959 C763 1.420 . S
C4973 C1196 1.429 . S
C4979 C105 1.407 . S
C4993 C1210 1.429 . S
C4999 C735 1.407 . S
C5013 C1224 1.415 . S
C5019 C77 1.422 . S
C5033 C1238 1.429 . S
C5039 C174 1.407 . S
C5053 C1252 1.429 . S
C5059 C790 1.404 . S
C5073 C1266 1.427 . S
C5079 C133 1.411 . S
C5093 C1280 1.415 . S
C5099 C818 1.423 . S
C5113 C1294 1.415 . S
C5119 C833 1.420 . S
C5133 C202 1.418 . S
C5139 C1308 1.422 . S
C5153 C1322 1.419 . S
C5159 C217 1.414 . S
C5173 C1336 1.430 . S
C5179 C189 1.405 . S
