# Generated by pormake.
# Topology zfa, (5)-cn, num edge types: 1
# Building blocks:
#     Node 0, Type 0, BuildingBlock: XOMCOT_clean_sbu_0, # of connection points: 5
#     Node 1, Type 0, BuildingBlock: XOMCOT_clean_sbu_0, # of connection points: 5
#     Node 2, Type 0, BuildingBlock: XOMCOT_clean_sbu_0, # of connection points: 5
#     Node 3, Type 0, BuildingBlock: XOMCOT_clean_sbu_0, # of connection points: 5
#     Node 4, Type 0, BuildingBlock: XOMCOT_clean_sbu_0, # of connection points: 5
#     Node 5, Type 0, BuildingBlock: XOMCOT_clean_sbu_0, # of connection points: 5
#     Node 6, Type 0, BuildingBlock: XOMCOT_clean_sbu_0, # of connection points: 5
#     Node 7, Type 0, BuildingBlock: XOMCOT_clean_sbu_0, # of connection points: 5
#     Edge 8, Type (0, 0), BuildingBlock: AJUNOK_clean_linker_0, # of connection points: 2
#     Edge 9, Type (0, 0), BuildingBlock: AJUNOK_clean_linker_0, # of connection points: 2
#     Edge 10, Type (0, 0), BuildingBlock: AJUNOK_clean_linker_0, # of connection points: 2
#     Edge 11, Type (0, 0), BuildingBlock: AJUNOK_clean_linker_0, # of connection points: 2
#     Edge 12, Type (0, 0), BuildingBlock: AJUNOK_clean_linker_0, # of connection points: 2
#     Edge 13, Type (0, 0), BuildingBlock: AJUNOK_clean_linker_0, # of connection points: 2
#     Edge 14, Type (0, 0), BuildingBlock: AJUNOK_clean_linker_0, # of connection points: 2
#     Edge 15, Type (0, 0), BuildingBlock: AJUNOK_clean_linker_0, # of connection points: 2
#     Edge 16, Type (0, 0), BuildingBlock: AJUNOK_clean_linker_0, # of connection points: 2
#     Edge 17, Type (0, 0), BuildingBlock: AJUNOK_clean_linker_0, # of connection points: 2
#     Edge 18, Type (0, 0), BuildingBlock: AJUNOK_clean_linker_0, # of connection points: 2
#     Edge 19, Type (0, 0), BuildingBlock: AJUNOK_clean_linker_0, # of connection points: 2
#     Edge 20, Type (0, 0), BuildingBlock: AJUNOK_clean_linker_0, # of connection points: 2
#     Edge 21, Type (0, 0), BuildingBlock: AJUNOK_clean_linker_0, # of connection points: 2
#     Edge 22, Type (0, 0), BuildingBlock: AJUNOK_clean_linker_0, # of connection points: 2
#     Edge 23, Type (0, 0), BuildingBlock: AJUNOK_clean_linker_0, # of connection points: 2
#     Edge 24, Type (0, 0), BuildingBlock: AJUNOK_clean_linker_0, # of connection points: 2
#     Edge 25, Type (0, 0), BuildingBlock: AJUNOK_clean_linker_0, # of connection points: 2
#     Edge 26, Type (0, 0), BuildingBlock: AJUNOK_clean_linker_0, # of connection points: 2
#     Edge 27, Type (0, 0), BuildingBlock: AJUNOK_clean_linker_0, # of connection points: 2
# Relax obj value: 0.223
# Max RMSD: 0.196
# Mean RMSD: 0.196
data_MOF--net-zfa--node1-XOMCOT_clean_sbu_0--edge1-AJUNOK_clean_linker_0
_symmetry_space_group_name_H-M    P1
_symmetry_Int_Tables_number       1
_symmetry_cell_setting            triclinic
loop_
_symmetry_equiv_pos_as_xyz
'x, y, z'
_cell_length_a     23.988951
_cell_length_b     23.935438
_cell_length_c     30.207852
_cell_angle_alpha  89.893687
_cell_angle_beta   89.341084
_cell_angle_gamma 90.077253
loop_
_atom_site_label
_atom_site_type_symbol
_atom_site_fract_x
_atom_site_fract_y
_atom_site_fract_z
_atom_type_partial_charge
Co0 Co 0.14632 0.28215 0.3829 0.0
C1 C 0.12376 0.40328 0.37845 0.0
C2 C 0.1335 0.37515 0.44505 0.0
C3 C 0.11025 0.4274 0.44607 0.0
N4 N 0.14292 0.35968 0.40259 0.0
N5 N 0.10283 0.44459 0.40419 0.0
H6 H 0.11983 0.40246 0.34285 0.0
H7 H 0.13545 0.3479 0.47347 0.0
C8 C 0.2178 0.2774 0.46265 0.0
O9 O 0.24469 0.32057 0.44593 0.0
N10 N 0.14564 0.2054 0.36429 0.0
C11 C 0.16071 0.18521 0.32429 0.0
C12 C 0.13889 0.13226 0.32006 0.0
C13 C 0.11477 0.16507 0.38362 0.0
N14 N 0.10968 0.12012 0.35727 0.0
C15 C 0.23835 0.33337 0.33309 0.0
C16 C 0.31584 0.2521 0.35407 0.0
C17 C 0.33327 0.29749 0.32811 0.0
C18 C 0.29344 0.33809 0.31699 0.0
C19 C 0.26077 0.24883 0.36921 0.0
N20 N 0.22283 0.28975 0.35975 0.0
H21 H 0.20826 0.36459 0.32388 0.0
H22 H 0.24865 0.21312 0.38906 0.0
H23 H 0.18166 0.20909 0.29861 0.0
H24 H 0.09215 0.17063 0.41451 0.0
O25 O 0.10405 0.30044 0.33038 0.0
O26 O 0.06699 0.27701 0.39526 0.0
O27 O 0.17554 0.25756 0.4425 0.0
C28 C 0.0593 0.29044 0.35402 0.0
H29 H 0.09347 0.44796 0.47521 0.0
H30 H 0.13967 0.10708 0.29032 0.0
H31 H 0.3444 0.2187 0.36218 0.0
H32 H 0.30487 0.37338 0.29629 0.0
Co33 Co 0.26273 0.62676 0.87685 0.0
C34 C 0.14136 0.60503 0.87155 0.0
C35 C 0.1675 0.61917 0.93795 0.0
C36 C 0.11478 0.59741 0.93938 0.0
N37 N 0.1845 0.62527 0.89535 0.0
N38 N 0.09873 0.58721 0.89773 0.0
H39 H 0.14334 0.59799 0.83623 0.0
H40 H 0.1938 0.62209 0.96656 0.0
C41 C 0.26352 0.70312 0.95431 0.0
O42 O 0.22173 0.72937 0.9357 0.0
N43 N 0.34023 0.62431 0.8599 0.0
C44 C 0.36322 0.63819 0.82046 0.0
C45 C 0.41652 0.61684 0.81851 0.0
C46 C 0.37922 0.59456 0.88113 0.0
N47 N 0.42605 0.5891 0.85657 0.0
C48 C 0.21579 0.71562 0.8224 0.0
C49 C 0.29534 0.79471 0.84427 0.0
C50 C 0.25262 0.81014 0.81574 0.0
C51 C 0.21271 0.76974 0.80433 0.0
C52 C 0.29745 0.74038 0.86086 0.0
N53 N 0.25723 0.7018 0.85103 0.0
H54 H 0.18515 0.68487 0.81317 0.0
H55 H 0.33157 0.72944 0.88224 0.0
H56 H 0.3413 0.65831 0.79371 0.0
H57 H 0.37165 0.57305 0.91219 0.0
O58 O 0.2463 0.5809 0.8256 0.0
O59 O 0.26625 0.54836 0.89224 0.0
O60 O 0.28454 0.65997 0.93562 0.0
C61 C 0.25416 0.53778 0.85123 0.0
H62 H 0.09304 0.58317 0.96894 0.0
H63 H 0.44394 0.61692 0.7898 0.0
H64 H 0.32755 0.82428 0.85318 0.0
H65 H 0.1793 0.78003 0.78193 0.0
Co66 Co 0.90466 0.78662 0.36246 0.0
C67 C 0.95276 0.67382 0.37567 0.0
C68 C 0.86736 0.66624 0.35732 0.0
C69 C 0.88977 0.61347 0.36069 0.0
N70 N 0.90693 0.70467 0.36669 0.0
N71 N 0.94381 0.61842 0.3716 0.0
H72 H 0.99287 0.69115 0.38392 0.0
H73 H 0.82454 0.67491 0.34929 0.0
C74 C 0.83814 0.76465 0.44591 0.0
O75 O 0.81252 0.72406 0.42532 0.0
N76 N 0.90471 0.86713 0.35776 0.0
C77 C 0.88288 0.89778 0.32467 0.0
C78 C 0.90483 0.95084 0.32632 0.0
C79 C 0.93979 0.90186 0.37882 0.0
N80 N 0.94091 0.95292 0.36004 0.0
C81 C 0.81873 0.7616 0.2984 0.0
C82 C 0.73397 0.81748 0.34261 0.0
C83 C 0.72119 0.78907 0.30352 0.0
C84 C 0.76476 0.76178 0.28078 0.0
C85 C 0.78794 0.8157 0.35923 0.0
N86 N 0.82914 0.78592 0.33835 0.0
H87 H 0.85199 0.74065 0.2806 0.0
H88 H 0.79687 0.83989 0.38842 0.0
H89 H 0.85718 0.8815 0.2985 0.0
H90 H 0.96826 0.8886 0.40431 0.0
O91 O 0.94973 0.78323 0.30818 0.0
O92 O 0.98294 0.78974 0.37585 0.0
O93 O 0.8755 0.79325 0.42552 0.0
C94 C 0.99322 0.78734 0.33362 0.0
H95 H 0.86746 0.57464 0.35615 0.0
H96 H 0.89949 0.98337 0.30177 0.0
H97 H 0.70269 0.8419 0.35996 0.0
H98 H 0.75713 0.74022 0.24994 0.0
Co99 Co 0.75755 0.38411 0.87173 0.0
C100 C 0.87001 0.43398 0.88154 0.0
C101 C 0.87759 0.34656 0.86891 0.0
C102 C 0.93024 0.36953 0.86999 0.0
N103 N 0.83923 0.38705 0.87613 0.0
N104 N 0.92526 0.42481 0.87721 0.0
H105 H 0.85274 0.47497 0.88713 0.0
H106 H 0.86887 0.3029 0.86344 0.0
C107 C 0.77772 0.32403 0.95818 0.0
O108 O 0.81829 0.29645 0.9388 0.0
N109 N 0.67741 0.38332 0.86665 0.0
C110 C 0.64766 0.35909 0.83424 0.0
C111 C 0.59486 0.38146 0.83453 0.0
C112 C 0.64237 0.42008 0.88604 0.0
N113 N 0.59211 0.42023 0.86668 0.0
C114 C 0.78479 0.29596 0.80966 0.0
C115 C 0.73069 0.21086 0.85507 0.0
C116 C 0.75935 0.19761 0.81572 0.0
C117 C 0.78598 0.24142 0.79262 0.0
C118 C 0.73105 0.26565 0.87115 0.0
N119 N 0.75962 0.30716 0.84945 0.0
H120 H 0.80526 0.3292 0.79141 0.0
H121 H 0.70677 0.27491 0.90053 0.0
H122 H 0.66449 0.33136 0.80926 0.0
H123 H 0.65497 0.45017 0.9107 0.0
O124 O 0.76215 0.42656 0.81623 0.0
O125 O 0.75399 0.46336 0.88291 0.0
O126 O 0.74913 0.35894 0.93581 0.0
C127 C 0.75774 0.4715 0.84048 0.0
H128 H 0.96896 0.34687 0.86624 0.0
H129 H 0.56307 0.37433 0.81 0.0
H130 H 0.70687 0.17943 0.87288 0.0
H131 H 0.80798 0.23362 0.76175 0.0
Co132 Co 0.64881 0.29208 0.22564 0.0
C133 C 0.59747 0.18003 0.21514 0.0
C134 C 0.68398 0.17118 0.22954 0.0
C135 C 0.66049 0.11878 0.22746 0.0
N136 N 0.64447 0.2102 0.22177 0.0
N137 N 0.6058 0.1245 0.21907 0.0
H138 H 0.55712 0.19798 0.20865 0.0
H139 H 0.72743 0.17918 0.23579 0.0
C140 C 0.71306 0.26973 0.14119 0.0
O141 O 0.73924 0.22989 0.16219 0.0
N142 N 0.65101 0.37239 0.23026 0.0
C143 C 0.67314 0.4021 0.26366 0.0
C144 C 0.65233 0.45554 0.26218 0.0
C145 C 0.61697 0.40801 0.20912 0.0
N146 N 0.61658 0.45885 0.22821 0.0
C147 C 0.73559 0.26454 0.28784 0.0
C148 C 0.82054 0.3207 0.24382 0.0
C149 C 0.83331 0.29158 0.28272 0.0
C150 C 0.7896 0.26399 0.30522 0.0
C151 C 0.76642 0.3194 0.22727 0.0
N152 N 0.72508 0.28965 0.24816 0.0
H153 H 0.70226 0.24363 0.30571 0.0
H154 H 0.75744 0.34398 0.19821 0.0
H155 H 0.69813 0.38489 0.28991 0.0
H156 H 0.58884 0.3955 0.18318 0.0
O157 O 0.60652 0.28948 0.28117 0.0
O158 O 0.56954 0.29712 0.21482 0.0
O159 O 0.67564 0.29821 0.16155 0.0
C160 C 0.56173 0.29486 0.25746 0.0
H161 H 0.68249 0.07966 0.23105 0.0
H162 H 0.65817 0.48745 0.28707 0.0
H163 H 0.85183 0.34544 0.22663 0.0
H164 H 0.79707 0.24174 0.33582 0.0
Co165 Co 0.25663 0.12746 0.71885 0.0
C166 C 0.36899 0.08116 0.70063 0.0
C167 C 0.37661 0.1651 0.72379 0.0
C168 C 0.42921 0.14371 0.71695 0.0
N169 N 0.33828 0.12586 0.71344 0.0
N170 N 0.42434 0.09077 0.70247 0.0
H171 H 0.35147 0.04118 0.69212 0.0
H172 H 0.368 0.20705 0.73482 0.0
C173 C 0.27997 0.19357 0.63629 0.0
O174 O 0.31965 0.21944 0.65753 0.0
N175 N 0.17641 0.12681 0.72423 0.0
C176 C 0.14555 0.14747 0.75804 0.0
C177 C 0.09291 0.12471 0.75628 0.0
C178 C 0.14224 0.09184 0.70253 0.0
N179 N 0.09141 0.08922 0.72179 0.0
C180 C 0.28034 0.21203 0.78446 0.0
C181 C 0.22579 0.29836 0.74208 0.0
C182 C 0.25237 0.30967 0.78214 0.0
C183 C 0.27967 0.26543 0.80356 0.0
C184 C 0.22794 0.24474 0.72399 0.0
N185 N 0.25693 0.20278 0.74412 0.0
H186 H 0.30107 0.17825 0.80143 0.0
H187 H 0.2048 0.23676 0.69423 0.0
H188 H 0.16145 0.17291 0.78461 0.0
H189 H 0.15582 0.0646 0.67597 0.0
O190 O 0.26066 0.08209 0.77254 0.0
O191 O 0.25405 0.04896 0.70463 0.0
O192 O 0.24995 0.15704 0.65629 0.0
C193 C 0.257 0.03858 0.74673 0.0
H194 H 0.46806 0.16543 0.72265 0.0
H195 H 0.06031 0.12915 0.78111 0.0
H196 H 0.20258 0.33056 0.7251 0.0
H197 H 0.30107 0.27205 0.83447 0.0
Co198 Co 0.40732 0.78532 0.20589 0.0
C199 C 0.42803 0.90683 0.2131 0.0
C200 C 0.41937 0.8809 0.14591 0.0
C201 C 0.44081 0.93393 0.14599 0.0
N202 N 0.41014 0.86362 0.18801 0.0
N203 N 0.4475 0.94983 0.18822 0.0
H204 H 0.43221 0.90469 0.24865 0.0
H205 H 0.41855 0.85465 0.11694 0.0
C206 C 0.33654 0.78419 0.12577 0.0
O207 O 0.30921 0.82643 0.14332 0.0
N208 N 0.4083 0.70777 0.22264 0.0
C209 C 0.39253 0.68564 0.26191 0.0
C210 C 0.41503 0.63289 0.26528 0.0
C211 C 0.44007 0.6687 0.20284 0.0
N212 N 0.44517 0.62285 0.22826 0.0
C213 C 0.31597 0.8324 0.25844 0.0
C214 C 0.23816 0.75272 0.23423 0.0
C215 C 0.22165 0.79492 0.26344 0.0
C216 C 0.26137 0.83511 0.27574 0.0
C217 C 0.2929 0.75114 0.21821 0.0
N218 N 0.33099 0.79125 0.22943 0.0
H219 H 0.34621 0.8629 0.26882 0.0
H220 H 0.30475 0.71715 0.19658 0.0
H221 H 0.37086 0.70815 0.2879 0.0
H222 H 0.46399 0.67605 0.17276 0.0
O223 O 0.45007 0.80166 0.25853 0.0
O224 O 0.48641 0.78128 0.19281 0.0
O225 O 0.37805 0.76321 0.14607 0.0
C226 C 0.49454 0.79292 0.23427 0.0
H227 H 0.45708 0.95607 0.11733 0.0
H228 H 0.41436 0.60655 0.29446 0.0
H229 H 0.20924 0.72027 0.22457 0.0
H230 H 0.25031 0.86833 0.29849 0.0
Co231 Co 0.76164 0.88439 0.70962 0.0
C232 C 0.6517 0.93478 0.69144 0.0
C233 C 0.64203 0.84689 0.70157 0.0
C234 C 0.58996 0.87014 0.69634 0.0
N235 N 0.68124 0.88757 0.69869 0.0
N236 N 0.59645 0.92542 0.6903 0.0
H237 H 0.66942 0.97611 0.68841 0.0
H238 H 0.64974 0.80322 0.70793 0.0
C239 C 0.75354 0.82423 0.62212 0.0
O240 O 0.71117 0.79546 0.63782 0.0
N241 N 0.84046 0.8833 0.72029 0.0
C242 C 0.86646 0.86257 0.75605 0.0
C243 C 0.91984 0.88378 0.75678 0.0
C244 C 0.87798 0.91661 0.69989 0.0
N245 N 0.92657 0.91811 0.72167 0.0
C246 C 0.72642 0.79572 0.76859 0.0
C247 C 0.78802 0.71143 0.72898 0.0
C248 C 0.75563 0.69841 0.76652 0.0
C249 C 0.72434 0.74151 0.78625 0.0
C250 C 0.78875 0.76606 0.71229 0.0
N251 N 0.75685 0.80717 0.73116 0.0
H252 H 0.70288 0.82862 0.7846 0.0
H253 H 0.8165 0.77554 0.6849 0.0
H254 H 0.84659 0.83806 0.78188 0.0
H255 H 0.86821 0.94331 0.67207 0.0
O256 O 0.75082 0.92501 0.7651 0.0
O257 O 0.76703 0.96428 0.69996 0.0
O258 O 0.77755 0.8603 0.64652 0.0
C259 C 0.75885 0.9707 0.74226 0.0
H260 H 0.55035 0.84863 0.6992 0.0
H261 H 0.94926 0.87895 0.78342 0.0
H262 H 0.81405 0.68 0.7134 0.0
H263 H 0.69842 0.73351 0.81515 0.0
C264 C 0.02788 0.58186 0.40816 0.0
C265 C 0.98462 0.57473 0.37754 0.0
C266 C 0.06762 0.54005 0.41516 0.0
C267 C 0.06606 0.48942 0.39176 0.0
H268 H 0.03031 0.61951 0.42781 0.0
H269 H 0.09934 0.54682 0.43981 0.0
S270 S 0.96233 0.44983 0.30701 0.0
N271 N 0.94404 0.5135 0.32224 0.0
N272 N 1.01755 0.43421 0.33666 0.0
C273 C 0.02365 0.48186 0.36048 0.0
C274 C 0.98315 0.52459 0.35319 0.0
C275 C 0.96106 0.51416 0.90624 0.0
C276 C 0.96867 0.46666 0.8794 0.0
C277 C 1.00264 0.55489 0.9099 0.0
C278 C 0.05362 0.55006 0.88691 0.0
H279 H 0.92332 0.51922 0.92576 0.0
H280 H 0.99564 0.58979 0.93204 0.0
S281 S 0.09422 0.4353 0.81067 0.0
N282 N 0.03047 0.4189 0.82736 0.0
N283 N 0.10943 0.49449 0.83578 0.0
C284 C 0.06152 0.50364 0.85904 0.0
C285 C 0.01896 0.4621 0.85507 0.0
C286 C 0.47976 0.04664 0.17906 0.0
C287 C 0.48313 0.99522 0.20136 0.0
C288 C 0.51936 0.08876 0.18559 0.0
C289 C 0.56424 0.08115 0.2146 0.0
H290 H 0.44698 0.05361 0.15533 0.0
H291 H 0.51575 0.12688 0.16653 0.0
S292 S 0.59079 0.95457 0.28258 0.0
N293 N 0.53445 0.93908 0.25424 0.0
N294 N 0.60775 1.01894 0.26791 0.0
C295 C 0.56715 0.03044 0.23827 0.0
C296 C 0.52681 0.98739 0.23144 0.0
C297 C 0.55926 1.01412 0.71895 0.0
C298 C 0.55375 0.96744 0.6912 0.0
C299 C 0.51739 0.05467 0.72174 0.0
C300 C 0.46859 0.05048 0.69648 0.0
H301 H 0.5956 1.01846 0.73962 0.0
H302 H 0.52273 0.08866 0.74487 0.0
S303 S 0.43781 0.93907 0.61469 0.0
N304 N 0.49817 0.92064 0.636 0.0
N305 N 0.42006 0.99793 0.63955 0.0
C306 C 0.4637 1.00483 0.66726 0.0
C307 C 0.5061 0.96305 0.66507 0.0
C308 C 0.45846 0.30808 0.24944 0.0
C309 C 0.50439 0.29781 0.27707 0.0
C310 C 0.40361 0.30965 0.26632 0.0
C311 C 0.39219 0.30064 0.31154 0.0
H312 H 0.46472 0.31451 0.21423 0.0
H313 H 0.36975 0.31642 0.24352 0.0
S314 S 0.49731 0.27612 0.39873 0.0
N315 N 0.53451 0.28129 0.35255 0.0
N316 N 0.43169 0.28441 0.38419 0.0
C317 C 0.43774 0.29175 0.33977 0.0
C318 C 0.49366 0.29035 0.3226 0.0
C319 C 0.25331 0.96931 0.80957 0.0
C320 C 0.25587 0.98006 0.76376 0.0
C321 C 0.25144 0.91432 0.82609 0.0
C322 C 0.25142 0.86793 0.79745 0.0
H323 H 0.25273 1.00358 0.83294 0.0
H324 H 0.24991 0.90799 0.8616 0.0
S325 S 0.26002 0.87255 0.67499 0.0
N326 N 0.26006 0.93881 0.69005 0.0
N327 N 0.25595 0.83611 0.72136 0.0
C328 C 0.25419 0.87792 0.75172 0.0
C329 C 0.25662 0.93376 0.73483 0.0
C330 C 0.5982 0.80165 0.2249 0.0
C331 C 0.55157 0.79335 0.25291 0.0
C332 C 0.65278 0.79994 0.24133 0.0
C333 C 0.66296 0.78937 0.28639 0.0
H334 H 0.59253 0.80984 0.18997 0.0
H335 H 0.68722 0.80755 0.21861 0.0
S336 S 0.55534 0.75979 0.37274 0.0
N337 N 0.51928 0.77164 0.32747 0.0
N338 N 0.6215 0.76695 0.35814 0.0
C339 C 0.6166 0.78002 0.31456 0.0
C340 C 0.56107 0.7824 0.2979 0.0
C341 C 0.75128 0.12923 0.75262 0.0
C342 C 0.75959 0.13903 0.79804 0.0
C343 C 0.75082 0.07482 0.7352 0.0
C344 C 0.75821 0.02756 0.76239 0.0
H345 H 0.74439 0.16391 0.73027 0.0
H346 H 0.74416 0.06983 0.70002 0.0
S347 S 0.7851 0.0298 0.88305 0.0
N348 N 0.77837 0.09631 0.86951 0.0
N349 N 0.77604 0.99427 0.83687 0.0
C350 C 0.76674 0.03653 0.8078 0.0
C351 C 0.76777 0.09207 0.82556 0.0
C352 C 0.95549 0.2986 0.36273 0.0
C353 C 1.00249 0.29205 0.33489 0.0
C354 C 0.90119 0.29852 0.34571 0.0
C355 C 0.89152 0.29128 0.30015 0.0
H356 H 0.96066 0.30428 0.39802 0.0
H357 H 0.86654 0.30475 0.36846 0.0
S358 S 1.00038 0.26792 0.21365 0.0
N359 N 0.03576 0.27613 0.25973 0.0
N360 N 0.93404 0.27412 0.22791 0.0
C361 C 0.93829 0.28387 0.27206 0.0
C362 C 0.99359 0.2847 0.28935 0.0
C363 C 0.26101 0.46872 0.78918 0.0
C364 C 0.2515 0.47962 0.83435 0.0
C365 C 0.26135 0.41383 0.77278 0.0
C366 C 0.25165 0.36753 0.80078 0.0
H367 H 0.26945 0.50277 0.76639 0.0
H368 H 0.27011 0.40762 0.73788 0.0
S369 S 0.21824 0.3742 0.92095 0.0
N370 N 0.22867 0.43995 0.90642 0.0
N371 N 0.22781 0.33709 0.87547 0.0
C372 C 0.24055 0.37808 0.84586 0.0
C373 C 0.24078 0.43397 0.86263 0.0
C374 C 0.06265 0.789 0.27031 0.0
C375 C 0.05165 0.78938 0.31619 0.0
C376 C 0.11758 0.79148 0.25351 0.0
C377 C 0.1637 0.79502 0.28188 0.0
H378 H 0.02862 0.78672 0.24712 0.0
H379 H 0.12405 0.79081 0.21797 0.0
S380 S 0.15829 0.79604 0.40453 0.0
N381 N 0.09237 0.79261 0.38973 0.0
N382 N 0.19488 0.79736 0.35794 0.0
C383 C 0.1534 0.79531 0.3277 0.0
C384 C 0.09765 0.79242 0.34488 0.0
C385 C 0.75051 0.59334 0.75851 0.0
C386 C 0.75635 0.64073 0.7858 0.0
C387 C 0.75139 0.53875 0.77614 0.0
C388 C 0.75823 0.52932 0.82178 0.0
H389 H 0.74453 0.5985 0.72326 0.0
H390 H 0.7461 0.50378 0.75388 0.0
S391 S 0.77972 0.63898 0.90701 0.0
N392 N 0.77255 0.67415 0.86041 0.0
N393 N 0.77348 0.5725 0.89359 0.0
C394 C 0.76499 0.57642 0.84927 0.0
C395 C 0.76419 0.63177 0.83132 0.0
C396 C 0.19812 0.22109 0.53128 0.0
C397 C 0.23545 0.25336 0.50554 0.0
C398 C 0.2132 0.20063 0.57307 0.0
C399 C 0.26621 0.21161 0.59066 0.0
H400 H 0.15643 0.21266 0.51958 0.0
H401 H 0.18254 0.17729 0.59216 0.0
S402 S 0.38172 0.28778 0.53395 0.0
N403 N 0.32946 0.29095 0.499 0.0
N404 N 0.35774 0.25266 0.57722 0.0
C405 C 0.30464 0.2419 0.56444 0.0
C406 C 0.28929 0.26272 0.52199 0.0
C407 C 0.27549 0.78784 0.05959 0.0
C408 C 0.31973 0.76226 0.08204 0.0
C409 C 0.25807 0.76845 1.01839 0.0
C410 C 0.28399 0.72251 0.99778 0.0
H411 H 0.25384 0.82331 0.07384 0.0
H412 H 0.22371 0.78981 1.00275 0.0
S413 S 0.40223 0.64057 1.0424 0.0
N414 N 0.38947 0.68839 0.08048 0.0
N415 N 0.35668 0.65193 1.00286 0.0
C416 C 0.32849 0.69646 1.0197 0.0
C417 C 0.34634 0.71631 0.06184 0.0
C418 C 0.75239 0.76735 0.55262 0.0
C419 C 0.77642 0.81085 0.57727 0.0
C420 C 0.77313 0.75261 0.51071 0.0
C421 C 0.81884 0.78074 0.49122 0.0
H422 H 0.71713 0.74407 0.56573 0.0
H423 H 0.75265 0.71887 0.49341 0.0
S424 S 0.89744 0.89785 0.54175 0.0
N425 N 0.84903 0.882 0.57899 0.0
N426 N 0.88786 0.8544 0.50013 0.0
C427 C 0.84351 0.82438 0.51543 0.0
C428 C 0.82237 0.83938 0.55836 0.0
C429 C 0.69645 0.31767 0.06793 0.0
C430 C 0.73051 0.28429 0.09494 0.0
C431 C 0.7121 0.33084 1.02402 0.0
C432 C 0.76259 0.31136 1.0053 0.0
H433 H 0.65699 0.33321 0.08057 0.0
H434 H 0.684 0.35596 1.00449 0.0
S435 S 0.86917 0.2266 0.06325 0.0
N436 N 0.8188 0.23483 0.10027 0.0
N437 N 0.84803 0.25954 1.01848 0.0
C438 C 0.79758 0.27906 1.03236 0.0
C439 C 0.78163 0.26556 0.07689 0.0
C440 C 0.97237 0.04829 0.37588 0.0
C441 C 0.98473 0.99314 0.36385 0.0
C442 C 1.01407 0.08934 0.37546 0.0
C443 C 0.06902 0.07648 0.36208 0.0
H444 H 0.93006 0.0597 0.38483 0.0
H445 H 1.00281 0.13185 0.38385 0.0
S446 S 0.12177 0.93826 0.32684 0.0
N447 N 0.05508 0.92752 0.33828 0.0
N448 N 0.13345 1.00501 0.33695 0.0
C449 C 0.08177 0.02135 0.35036 0.0
C450 C 0.03959 0.97951 0.3514 0.0
C451 C 0.45468 0.49313 0.87449 0.0
C452 C 0.469 0.5485 0.86334 0.0
C453 C 0.49545 0.45144 0.87672 0.0
C454 C 0.55175 0.46417 0.86887 0.0
H455 H 0.41141 0.48163 0.8797 0.0
H456 H 0.48302 0.40881 0.88381 0.0
S457 S 0.61069 0.60274 0.83936 0.0
N458 N 0.54299 0.61392 0.84484 0.0
N459 N 0.62004 0.53565 0.84988 0.0
C460 C 0.56677 0.51957 0.85882 0.0
C461 C 0.52519 0.56175 0.8558 0.0
C462 C 0.47551 0.52531 0.22187 0.0
C463 C 0.48859 0.58225 0.22442 0.0
C464 C 0.51784 0.48504 0.22096 0.0
C465 C 0.57436 0.50073 0.22339 0.0
H466 H 0.43234 0.51206 0.22122 0.0
H467 H 0.50624 0.44131 0.22025 0.0
S468 S 0.62953 0.64487 0.23113 0.0
N469 N 0.56117 0.65269 0.22935 0.0
N470 N 0.6409 0.57689 0.22819 0.0
C471 C 0.58773 0.55767 0.22559 0.0
C472 C 0.54476 0.59854 0.22595 0.0
C473 C 0.99478 0.05856 0.7115 0.0
C474 C 0.05128 0.04543 0.71662 0.0
C475 C 0.95426 1.01638 0.71111 0.0
C476 C 0.96907 0.95992 0.71677 0.0
H477 H 0.98198 0.10178 0.7087 0.0
H478 H 0.91086 0.02815 0.70836 0.0
S479 S 0.11122 0.90413 0.73194 0.0
N480 N 0.12014 0.97237 0.72733 0.0
N481 N 0.04361 0.89311 0.72709 0.0
C482 C 0.02543 0.94632 0.72138 0.0
C483 C 0.06672 0.98909 0.72115 0.0
loop_
_geom_bond_atom_site_label_1
_geom_bond_atom_site_label_2
_geom_bond_distance
_geom_bond_site_symmetry_2
_ccdc_geom_bond_type
Co0 N4 2.148 . S
Co0 N10 2.128 . S
Co0 N20 2.194 . S
Co0 O25 2.351 1_455 S
Co0 O26 2.155 1_455 S
Co0 O27 2.096 . S
C1 N4 1.301 . S
C1 N5 1.328 . S
C1 H6 0.930 . S
C2 C3 1.333 . S
C2 N4 1.317 . S
C2 H7 0.930 . S
C3 C2 1.333 . S
C3 N5 1.350 . S
C3 H29 0.931 . S
N4 Co0 2.148 . S
N4 C1 1.301 . S
N4 C2 1.317 . S
N5 C1 1.328 . S
N5 C3 1.350 . S
H6 C1 0.930 . S
H7 C2 0.930 . S
C8 O9 1.224 . S
C8 O27 1.247 . S
O9 C8 1.224 . S
N10 Co0 2.128 . S
N10 C11 1.355 . S
N10 C13 1.311 . S
C11 N10 1.355 . S
C11 C12 1.363 . S
C11 H23 0.929 . S
C12 C11 1.363 . S
C12 N14 1.375 . S
C12 H30 0.931 . S
C13 N10 1.311 . S
C13 N14 1.347 . S
C13 H24 0.929 . S
N14 C12 1.375 . S
N14 C13 1.347 . S
C15 C18 1.365 . S
C15 N20 1.328 . S
C15 H21 0.929 . S
C16 C17 1.362 . S
C16 C19 1.378 . S
C16 H31 0.929 . S
C17 C16 1.362 . S
C17 C18 1.366 . S
C18 C15 1.365 . S
C18 C17 1.366 . S
C18 H32 0.930 . S
C19 C16 1.378 . S
C19 N20 1.315 . S
C19 H22 0.930 . S
N20 Co0 2.194 . S
N20 C15 1.328 . S
N20 C19 1.315 . S
H21 C15 0.929 . S
H22 C19 0.930 . S
H23 C11 0.929 . S
H24 C13 0.929 . S
O25 Co0 2.351 1_655 S
O25 C28 1.244 . S
O26 Co0 2.155 1_655 S
O26 C28 1.240 . S
O27 Co0 2.096 . S
O27 C8 1.247 . S
C28 O25 1.244 . S
C28 O26 1.240 . S
H29 C3 0.931 . S
H30 C12 0.931 . S
H31 C16 0.929 . S
H32 C18 0.930 . S
Co33 N37 2.148 . S
Co33 N43 2.128 . S
Co33 N53 2.194 . S
Co33 O58 2.351 . S
Co33 O59 2.155 . S
Co33 O60 2.096 . S
C34 N37 1.301 . S
C34 N38 1.328 . S
C34 H39 0.930 . S
C35 C36 1.333 . S
C35 N37 1.317 . S
C35 H40 0.930 . S
C36 C35 1.333 . S
C36 N38 1.350 . S
C36 H62 0.931 . S
N37 Co33 2.148 . S
N37 C34 1.301 . S
N37 C35 1.317 . S
N38 C34 1.328 . S
N38 C36 1.350 . S
H39 C34 0.930 . S
H40 C35 0.930 . S
C41 O42 1.224 . S
C41 O60 1.247 . S
O42 C41 1.224 . S
N43 Co33 2.128 . S
N43 C44 1.355 . S
N43 C46 1.311 . S
C44 N43 1.355 . S
C44 C45 1.363 . S
C44 H56 0.929 . S
C45 C44 1.363 . S
C45 N47 1.375 . S
C45 H63 0.931 . S
C46 N43 1.311 . S
C46 N47 1.347 . S
C46 H57 0.929 . S
N47 C45 1.375 . S
N47 C46 1.347 . S
C48 C51 1.365 . S
C48 N53 1.328 . S
C48 H54 0.929 . S
C49 C50 1.362 . S
C49 C52 1.378 . S
C49 H64 0.929 . S
C50 C49 1.362 . S
C50 C51 1.366 . S
C51 C48 1.365 . S
C51 C50 1.366 . S
C51 H65 0.930 . S
C52 C49 1.378 . S
C52 N53 1.315 . S
C52 H55 0.930 . S
N53 Co33 2.194 . S
N53 C48 1.328 . S
N53 C52 1.315 . S
H54 C48 0.929 . S
H55 C52 0.930 . S
H56 C44 0.929 . S
H57 C46 0.929 . S
O58 Co33 2.351 . S
O58 C61 1.244 . S
O59 Co33 2.155 . S
O59 C61 1.240 . S
O60 Co33 2.096 . S
O60 C41 1.247 . S
C61 O58 1.244 . S
C61 O59 1.240 . S
H62 C36 0.931 . S
H63 C45 0.931 . S
H64 C49 0.929 . S
H65 C51 0.930 . S
Co66 N70 2.148 . S
Co66 N76 2.128 . S
Co66 N86 2.194 . S
Co66 O91 2.351 1_655 S
Co66 O92 2.155 1_655 S
Co66 O93 2.096 . S
C67 N70 1.301 . S
C67 N71 1.328 . S
C67 H72 0.930 . S
C68 C69 1.333 . S
C68 N70 1.317 . S
C68 H73 0.930 . S
C69 C68 1.333 . S
C69 N71 1.350 . S
C69 H95 0.931 . S
N70 Co66 2.148 . S
N70 C67 1.301 . S
N70 C68 1.317 . S
N71 C67 1.328 . S
N71 C69 1.350 . S
H72 C67 0.930 . S
H73 C68 0.930 . S
C74 O75 1.224 . S
C74 O93 1.247 . S
O75 C74 1.224 . S
N76 Co66 2.128 . S
N76 C77 1.355 . S
N76 C79 1.311 . S
C77 N76 1.355 . S
C77 C78 1.363 . S
C77 H89 0.929 . S
C78 C77 1.363 . S
C78 N80 1.375 . S
C78 H96 0.931 . S
C79 N76 1.311 . S
C79 N80 1.347 . S
C79 H90 0.929 . S
N80 C78 1.375 . S
N80 C79 1.347 . S
C81 C84 1.365 . S
C81 N86 1.328 . S
C81 H87 0.929 . S
C82 C83 1.362 . S
C82 C85 1.378 . S
C82 H97 0.929 . S
C83 C82 1.362 . S
C83 C84 1.366 . S
C84 C81 1.365 . S
C84 C83 1.366 . S
C84 H98 0.930 . S
C85 C82 1.378 . S
C85 N86 1.315 . S
C85 H88 0.930 . S
N86 Co66 2.194 . S
N86 C81 1.328 . S
N86 C85 1.315 . S
H87 C81 0.929 . S
H88 C85 0.930 . S
H89 C77 0.929 . S
H90 C79 0.929 . S
O91 Co66 2.351 1_455 S
O91 C94 1.244 . S
O92 Co66 2.155 1_455 S
O92 C94 1.240 . S
O93 Co66 2.096 . S
O93 C74 1.247 . S
C94 O91 1.244 . S
C94 O92 1.240 . S
H95 C69 0.931 . S
H96 C78 0.931 . S
H97 C82 0.929 . S
H98 C84 0.930 . S
Co99 N103 2.148 . S
Co99 N109 2.128 . S
Co99 N119 2.194 . S
Co99 O124 2.351 . S
Co99 O125 2.155 . S
Co99 O126 2.096 . S
C100 N103 1.301 . S
C100 N104 1.328 . S
C100 H105 0.930 . S
C101 C102 1.333 . S
C101 N103 1.317 . S
C101 H106 0.930 . S
C102 C101 1.333 . S
C102 N104 1.350 . S
C102 H128 0.931 . S
N103 Co99 2.148 . S
N103 C100 1.301 . S
N103 C101 1.317 . S
N104 C100 1.328 . S
N104 C102 1.350 . S
H105 C100 0.930 . S
H106 C101 0.930 . S
C107 O108 1.224 . S
C107 O126 1.247 . S
O108 C107 1.224 . S
N109 Co99 2.128 . S
N109 C110 1.355 . S
N109 C112 1.311 . S
C110 N109 1.355 . S
C110 C111 1.363 . S
C110 H122 0.929 . S
C111 C110 1.363 . S
C111 N113 1.375 . S
C111 H129 0.931 . S
C112 N109 1.311 . S
C112 N113 1.347 . S
C112 H123 0.929 . S
N113 C111 1.375 . S
N113 C112 1.347 . S
C114 C117 1.365 . S
C114 N119 1.328 . S
C114 H120 0.929 . S
C115 C116 1.362 . S
C115 C118 1.378 . S
C115 H130 0.929 . S
C116 C115 1.362 . S
C116 C117 1.366 . S
C117 C114 1.365 . S
C117 C116 1.366 . S
C117 H131 0.930 . S
C118 C115 1.378 . S
C118 N119 1.315 . S
C118 H121 0.930 . S
N119 Co99 2.194 . S
N119 C114 1.328 . S
N119 C118 1.315 . S
H120 C114 0.929 . S
H121 C118 0.930 . S
H122 C110 0.929 . S
H123 C112 0.929 . S
O124 Co99 2.351 . S
O124 C127 1.244 . S
O125 Co99 2.155 . S
O125 C127 1.240 . S
O126 Co99 2.096 . S
O126 C107 1.247 . S
C127 O124 1.244 . S
C127 O125 1.240 . S
H128 C102 0.931 . S
H129 C111 0.931 . S
H130 C115 0.929 . S
H131 C117 0.930 . S
Co132 N136 2.148 . S
Co132 N142 2.128 . S
Co132 N152 2.194 . S
Co132 O157 2.351 . S
Co132 O158 2.155 . S
Co132 O159 2.096 . S
C133 N136 1.301 . S
C133 N137 1.328 . S
C133 H138 0.930 . S
C134 C135 1.333 . S
C134 N136 1.317 . S
C134 H139 0.930 . S
C135 C134 1.333 . S
C135 N137 1.350 . S
C135 H161 0.931 . S
N136 Co132 2.148 . S
N136 C133 1.301 . S
N136 C134 1.317 . S
N137 C133 1.328 . S
N137 C135 1.350 . S
H138 C133 0.930 . S
H139 C134 0.930 . S
C140 O141 1.224 . S
C140 O159 1.247 . S
O141 C140 1.224 . S
N142 Co132 2.128 . S
N142 C143 1.355 . S
N142 C145 1.311 . S
C143 N142 1.355 . S
C143 C144 1.363 . S
C143 H155 0.929 . S
C144 C143 1.363 . S
C144 N146 1.375 . S
C144 H162 0.931 . S
C145 N142 1.311 . S
C145 N146 1.347 . S
C145 H156 0.929 . S
N146 C144 1.375 . S
N146 C145 1.347 . S
C147 C150 1.365 . S
C147 N152 1.328 . S
C147 H153 0.929 . S
C148 C149 1.362 . S
C148 C151 1.378 . S
C148 H163 0.929 . S
C149 C148 1.362 . S
C149 C150 1.366 . S
C150 C147 1.365 . S
C150 C149 1.366 . S
C150 H164 0.930 . S
C151 C148 1.378 . S
C151 N152 1.315 . S
C151 H154 0.930 . S
N152 Co132 2.194 . S
N152 C147 1.328 . S
N152 C151 1.315 . S
H153 C147 0.929 . S
H154 C151 0.930 . S
H155 C143 0.929 . S
H156 C145 0.929 . S
O157 Co132 2.351 . S
O157 C160 1.244 . S
O158 Co132 2.155 . S
O158 C160 1.240 . S
O159 Co132 2.096 . S
O159 C140 1.247 . S
C160 O157 1.244 . S
C160 O158 1.240 . S
H161 C135 0.931 . S
H162 C144 0.931 . S
H163 C148 0.929 . S
H164 C150 0.930 . S
Co165 N169 2.148 . S
Co165 N175 2.128 . S
Co165 N185 2.194 . S
Co165 O190 2.351 1_545 S
Co165 O191 2.155 1_545 S
Co165 O192 2.096 . S
C166 N169 1.301 . S
C166 N170 1.328 . S
C166 H171 0.930 . S
C167 C168 1.333 . S
C167 N169 1.317 . S
C167 H172 0.930 . S
C168 C167 1.333 . S
C168 N170 1.350 . S
C168 H194 0.931 . S
N169 Co165 2.148 . S
N169 C166 1.301 . S
N169 C167 1.317 . S
N170 C166 1.328 . S
N170 C168 1.350 . S
H171 C166 0.930 . S
H172 C167 0.930 . S
C173 O174 1.224 . S
C173 O192 1.247 . S
O174 C173 1.224 . S
N175 Co165 2.128 . S
N175 C176 1.355 . S
N175 C178 1.311 . S
C176 N175 1.355 . S
C176 C177 1.363 . S
C176 H188 0.929 . S
C177 C176 1.363 . S
C177 N179 1.375 . S
C177 H195 0.931 . S
C178 N175 1.311 . S
C178 N179 1.347 . S
C178 H189 0.929 . S
N179 C177 1.375 . S
N179 C178 1.347 . S
C180 C183 1.365 . S
C180 N185 1.328 . S
C180 H186 0.929 . S
C181 C182 1.362 . S
C181 C184 1.378 . S
C181 H196 0.929 . S
C182 C181 1.362 . S
C182 C183 1.366 . S
C183 C180 1.365 . S
C183 C182 1.366 . S
C183 H197 0.930 . S
C184 C181 1.378 . S
C184 N185 1.315 . S
C184 H187 0.930 . S
N185 Co165 2.194 . S
N185 C180 1.328 . S
N185 C184 1.315 . S
H186 C180 0.929 . S
H187 C184 0.930 . S
H188 C176 0.929 . S
H189 C178 0.929 . S
O190 Co165 2.351 1_565 S
O190 C193 1.244 . S
O191 Co165 2.155 1_565 S
O191 C193 1.240 . S
O192 Co165 2.096 . S
O192 C173 1.247 . S
C193 O190 1.244 . S
C193 O191 1.240 . S
H194 C168 0.931 . S
H195 C177 0.931 . S
H196 C181 0.929 . S
H197 C183 0.930 . S
Co198 N202 2.148 . S
Co198 N208 2.128 . S
Co198 N218 2.194 . S
Co198 O223 2.351 . S
Co198 O224 2.155 . S
Co198 O225 2.096 . S
C199 N202 1.301 . S
C199 N203 1.328 . S
C199 H204 0.930 . S
C200 C201 1.333 . S
C200 N202 1.317 . S
C200 H205 0.930 . S
C201 C200 1.333 . S
C201 N203 1.350 . S
C201 H227 0.931 . S
N202 Co198 2.148 . S
N202 C199 1.301 . S
N202 C200 1.317 . S
N203 C199 1.328 . S
N203 C201 1.350 . S
H204 C199 0.930 . S
H205 C200 0.930 . S
C206 O207 1.224 . S
C206 O225 1.247 . S
O207 C206 1.224 . S
N208 Co198 2.128 . S
N208 C209 1.355 . S
N208 C211 1.311 . S
C209 N208 1.355 . S
C209 C210 1.363 . S
C209 H221 0.929 . S
C210 C209 1.363 . S
C210 N212 1.375 . S
C210 H228 0.931 . S
C211 N208 1.311 . S
C211 N212 1.347 . S
C211 H222 0.929 . S
N212 C210 1.375 . S
N212 C211 1.347 . S
C213 C216 1.365 . S
C213 N218 1.328 . S
C213 H219 0.929 . S
C214 C215 1.362 . S
C214 C217 1.378 . S
C214 H229 0.929 . S
C215 C214 1.362 . S
C215 C216 1.366 . S
C216 C213 1.365 . S
C216 C215 1.366 . S
C216 H230 0.930 . S
C217 C214 1.378 . S
C217 N218 1.315 . S
C217 H220 0.930 . S
N218 Co198 2.194 . S
N218 C213 1.328 . S
N218 C217 1.315 . S
H219 C213 0.929 . S
H220 C217 0.930 . S
H221 C209 0.929 . S
H222 C211 0.929 . S
O223 Co198 2.351 . S
O223 C226 1.244 . S
O224 Co198 2.155 . S
O224 C226 1.240 . S
O225 Co198 2.096 . S
O225 C206 1.247 . S
C226 O223 1.244 . S
C226 O224 1.240 . S
H227 C201 0.931 . S
H228 C210 0.931 . S
H229 C214 0.929 . S
H230 C216 0.930 . S
Co231 N235 2.148 . S
Co231 N241 2.128 . S
Co231 N251 2.194 . S
Co231 O256 2.351 1_565 S
Co231 O257 2.155 1_565 S
Co231 O258 2.096 . S
C232 N235 1.301 . S
C232 N236 1.328 . S
C232 H237 0.930 . S
C233 C234 1.333 . S
C233 N235 1.317 . S
C233 H238 0.930 . S
C234 C233 1.333 . S
C234 N236 1.350 . S
C234 H260 0.931 . S
N235 Co231 2.148 . S
N235 C232 1.301 . S
N235 C233 1.317 . S
N236 C232 1.328 . S
N236 C234 1.350 . S
H237 C232 0.930 . S
H238 C233 0.930 . S
C239 O240 1.224 . S
C239 O258 1.247 . S
O240 C239 1.224 . S
N241 Co231 2.128 . S
N241 C242 1.355 . S
N241 C244 1.311 . S
C242 N241 1.355 . S
C242 C243 1.363 . S
C242 H254 0.929 . S
C243 C242 1.363 . S
C243 N245 1.375 . S
C243 H261 0.931 . S
C244 N241 1.311 . S
C244 N245 1.347 . S
C244 H255 0.929 . S
N245 C243 1.375 . S
N245 C244 1.347 . S
C246 C249 1.365 . S
C246 N251 1.328 . S
C246 H252 0.929 . S
C247 C248 1.362 . S
C247 C250 1.378 . S
C247 H262 0.929 . S
C248 C247 1.362 . S
C248 C249 1.366 . S
C249 C246 1.365 . S
C249 C248 1.366 . S
C249 H263 0.930 . S
C250 C247 1.378 . S
C250 N251 1.315 . S
C250 H253 0.930 . S
N251 Co231 2.194 . S
N251 C246 1.328 . S
N251 C250 1.315 . S
H252 C246 0.929 . S
H253 C250 0.930 . S
H254 C242 0.929 . S
H255 C244 0.929 . S
O256 Co231 2.351 1_545 S
O256 C259 1.244 . S
O257 Co231 2.155 1_545 S
O257 C259 1.240 . S
O258 Co231 2.096 . S
O258 C239 1.247 . S
C259 O256 1.244 . S
C259 O257 1.240 . S
H260 C234 0.931 . S
H261 C243 0.931 . S
H262 C247 0.929 . S
H263 C249 0.930 . S
C264 C265 1.369 1_455 S
C264 C266 1.419 . S
C264 H268 0.930 . S
C265 C264 1.369 1_655 S
C265 C274 1.429 . S
C266 C264 1.419 . S
C266 C267 1.363 . S
C266 H269 0.929 . S
C267 C266 1.363 . S
C267 C273 1.428 1_455 S
H268 C264 0.930 . S
H269 C266 0.929 . S
S270 N271 1.613 . S
S270 N272 1.610 . S
N271 S270 1.613 . S
N271 C274 1.350 . S
N272 S270 1.610 . S
N272 C273 1.351 . S
C273 C267 1.428 1_655 S
C273 N272 1.351 . S
C273 C274 1.434 . S
C274 C265 1.429 . S
C274 N271 1.350 . S
C274 C273 1.434 . S
C275 C276 1.369 . S
C275 C277 1.419 1_655 S
C275 H279 0.930 . S
C276 C275 1.369 . S
C276 C285 1.429 . S
C277 C275 1.419 1_455 S
C277 C278 1.363 . S
C277 H280 0.929 . S
C278 C277 1.363 . S
C278 C284 1.428 . S
H279 C275 0.930 . S
H280 C277 0.929 . S
S281 N282 1.613 1_455 S
S281 N283 1.610 . S
N282 S281 1.613 1_655 S
N282 C285 1.350 . S
N283 S281 1.610 . S
N283 C284 1.351 . S
C284 C278 1.428 . S
C284 N283 1.351 . S
C284 C285 1.434 1_455 S
C285 C276 1.429 . S
C285 N282 1.350 . S
C285 C284 1.434 1_655 S
C286 C287 1.369 . S
C286 C288 1.419 1_565 S
C286 H290 0.930 . S
C287 C286 1.369 . S
C287 C296 1.429 . S
C288 C286 1.419 1_545 S
C288 C289 1.363 . S
C288 H291 0.929 . S
C289 C288 1.363 . S
C289 C295 1.428 . S
H290 C286 0.930 . S
H291 C288 0.929 . S
S292 N293 1.613 . S
S292 N294 1.610 1_565 S
N293 S292 1.613 . S
N293 C296 1.350 . S
N294 S292 1.610 1_545 S
N294 C295 1.351 . S
C295 C289 1.428 . S
C295 N294 1.351 . S
C295 C296 1.434 1_545 S
C296 C287 1.429 . S
C296 N293 1.350 . S
C296 C295 1.434 1_565 S
C297 C298 1.369 1_545 S
C297 C299 1.419 . S
C297 H301 0.930 . S
C298 C297 1.369 1_565 S
C298 C307 1.429 . S
C299 C297 1.419 . S
C299 C300 1.363 . S
C299 H302 0.929 . S
C300 C299 1.363 . S
C300 C306 1.428 1_545 S
H301 C297 0.930 . S
H302 C299 0.929 . S
S303 N304 1.613 . S
S303 N305 1.610 . S
N304 S303 1.613 . S
N304 C307 1.350 . S
N305 S303 1.610 . S
N305 C306 1.351 . S
C306 C300 1.428 1_565 S
C306 N305 1.351 . S
C306 C307 1.434 . S
C307 C298 1.429 . S
C307 N304 1.350 . S
C307 C306 1.434 . S
C308 C309 1.369 . S
C308 C310 1.419 . S
C308 H312 0.930 . S
C309 C308 1.369 . S
C309 C318 1.429 . S
C310 C308 1.419 . S
C310 C311 1.363 . S
C310 H313 0.929 . S
C311 C310 1.363 . S
C311 C317 1.428 . S
H312 C308 0.930 . S
H313 C310 0.929 . S
S314 N315 1.613 . S
S314 N316 1.610 . S
N315 S314 1.613 . S
N315 C318 1.350 . S
N316 S314 1.610 . S
N316 C317 1.351 . S
C317 C311 1.428 . S
C317 N316 1.351 . S
C317 C318 1.434 . S
C318 C309 1.429 . S
C318 N315 1.350 . S
C318 C317 1.434 . S
C319 C320 1.369 . S
C319 C321 1.419 . S
C319 H323 0.930 . S
C320 C319 1.369 . S
C320 C329 1.429 . S
C321 C319 1.419 . S
C321 C322 1.363 . S
C321 H324 0.929 . S
C322 C321 1.363 . S
C322 C328 1.428 . S
H323 C319 0.930 . S
H324 C321 0.929 . S
S325 N326 1.613 . S
S325 N327 1.610 . S
N326 S325 1.613 . S
N326 C329 1.350 . S
N327 S325 1.610 . S
N327 C328 1.351 . S
C328 C322 1.428 . S
C328 N327 1.351 . S
C328 C329 1.434 . S
C329 C320 1.429 . S
C329 N326 1.350 . S
C329 C328 1.434 . S
C330 C331 1.369 . S
C330 C332 1.419 . S
C330 H334 0.930 . S
C331 C330 1.369 . S
C331 C340 1.429 . S
C332 C330 1.419 . S
C332 C333 1.363 . S
C332 H335 0.929 . S
C333 C332 1.363 . S
C333 C339 1.428 . S
H334 C330 0.930 . S
H335 C332 0.929 . S
S336 N337 1.613 . S
S336 N338 1.610 . S
N337 S336 1.613 . S
N337 C340 1.350 . S
N338 S336 1.610 . S
N338 C339 1.351 . S
C339 C333 1.428 . S
C339 N338 1.351 . S
C339 C340 1.434 . S
C340 C331 1.429 . S
C340 N337 1.350 . S
C340 C339 1.434 . S
C341 C342 1.369 . S
C341 C343 1.419 . S
C341 H345 0.930 . S
C342 C341 1.369 . S
C342 C351 1.429 . S
C343 C341 1.419 . S
C343 C344 1.363 . S
C343 H346 0.929 . S
C344 C343 1.363 . S
C344 C350 1.428 . S
H345 C341 0.930 . S
H346 C343 0.929 . S
S347 N348 1.613 . S
S347 N349 1.610 . S
N348 S347 1.613 . S
N348 C351 1.350 . S
N349 S347 1.610 . S
N349 C350 1.351 . S
C350 C344 1.428 . S
C350 N349 1.351 . S
C350 C351 1.434 . S
C351 C342 1.429 . S
C351 N348 1.350 . S
C351 C350 1.434 . S
C352 C353 1.369 . S
C352 C354 1.419 . S
C352 H356 0.930 . S
C353 C352 1.369 . S
C353 C362 1.429 . S
C354 C352 1.419 . S
C354 C355 1.363 . S
C354 H357 0.929 . S
C355 C354 1.363 . S
C355 C361 1.428 . S
H356 C352 0.930 . S
H357 C354 0.929 . S
S358 N359 1.613 . S
S358 N360 1.610 . S
N359 S358 1.613 . S
N359 C362 1.350 . S
N360 S358 1.610 . S
N360 C361 1.351 . S
C361 C355 1.428 . S
C361 N360 1.351 . S
C361 C362 1.434 . S
C362 C353 1.429 . S
C362 N359 1.350 . S
C362 C361 1.434 . S
C363 C364 1.369 . S
C363 C365 1.419 . S
C363 H367 0.930 . S
C364 C363 1.369 . S
C364 C373 1.429 . S
C365 C363 1.419 . S
C365 C366 1.363 . S
C365 H368 0.929 . S
C366 C365 1.363 . S
C366 C372 1.428 . S
H367 C363 0.930 . S
H368 C365 0.929 . S
S369 N370 1.613 . S
S369 N371 1.610 . S
N370 S369 1.613 . S
N370 C373 1.350 . S
N371 S369 1.610 . S
N371 C372 1.351 . S
C372 C366 1.428 . S
C372 N371 1.351 . S
C372 C373 1.434 . S
C373 C364 1.429 . S
C373 N370 1.350 . S
C373 C372 1.434 . S
C374 C375 1.369 . S
C374 C376 1.419 . S
C374 H378 0.930 . S
C375 C374 1.369 . S
C375 C384 1.429 . S
C376 C374 1.419 . S
C376 C377 1.363 . S
C376 H379 0.929 . S
C377 C376 1.363 . S
C377 C383 1.428 . S
H378 C374 0.930 . S
H379 C376 0.929 . S
S380 N381 1.613 . S
S380 N382 1.610 . S
N381 S380 1.613 . S
N381 C384 1.350 . S
N382 S380 1.610 . S
N382 C383 1.351 . S
C383 C377 1.428 . S
C383 N382 1.351 . S
C383 C384 1.434 . S
C384 C375 1.429 . S
C384 N381 1.350 . S
C384 C383 1.434 . S
C385 C386 1.369 . S
C385 C387 1.419 . S
C385 H389 0.930 . S
C386 C385 1.369 . S
C386 C395 1.429 . S
C387 C385 1.419 . S
C387 C388 1.363 . S
C387 H390 0.929 . S
C388 C387 1.363 . S
C388 C394 1.428 . S
H389 C385 0.930 . S
H390 C387 0.929 . S
S391 N392 1.613 . S
S391 N393 1.610 . S
N392 S391 1.613 . S
N392 C395 1.350 . S
N393 S391 1.610 . S
N393 C394 1.351 . S
C394 C388 1.428 . S
C394 N393 1.351 . S
C394 C395 1.434 . S
C395 C386 1.429 . S
C395 N392 1.350 . S
C395 C394 1.434 . S
C396 C397 1.369 . S
C396 C398 1.419 . S
C396 H400 0.930 . S
C397 C396 1.369 . S
C397 C406 1.429 . S
C398 C396 1.419 . S
C398 C399 1.363 . S
C398 H401 0.929 . S
C399 C398 1.363 . S
C399 C405 1.428 . S
H400 C396 0.930 . S
H401 C398 0.929 . S
S402 N403 1.613 . S
S402 N404 1.610 . S
N403 S402 1.613 . S
N403 C406 1.350 . S
N404 S402 1.610 . S
N404 C405 1.351 . S
C405 C399 1.428 . S
C405 N404 1.351 . S
C405 C406 1.434 . S
C406 C397 1.429 . S
C406 N403 1.350 . S
C406 C405 1.434 . S
C407 C408 1.369 . S
C407 C409 1.419 . S
C407 H411 0.930 . S
C408 C407 1.369 . S
C408 C417 1.429 1_554 S
C409 C407 1.419 . S
C409 C410 1.363 1_554 S
C409 H412 0.929 . S
C410 C409 1.363 1_556 S
C410 C416 1.428 . S
H411 C407 0.930 . S
H412 C409 0.929 . S
S413 N414 1.613 . S
S413 N415 1.610 . S
N414 S413 1.613 . S
N414 C417 1.350 . S
N415 S413 1.610 . S
N415 C416 1.351 . S
C416 C410 1.428 . S
C416 N415 1.351 . S
C416 C417 1.434 . S
C417 C408 1.429 1_556 S
C417 N414 1.350 . S
C417 C416 1.434 . S
C418 C419 1.369 . S
C418 C420 1.419 . S
C418 H422 0.930 . S
C419 C418 1.369 . S
C419 C428 1.429 . S
C420 C418 1.419 . S
C420 C421 1.363 . S
C420 H423 0.929 . S
C421 C420 1.363 . S
C421 C427 1.428 . S
H422 C418 0.930 . S
H423 C420 0.929 . S
S424 N425 1.613 . S
S424 N426 1.610 . S
N425 S424 1.613 . S
N425 C428 1.350 . S
N426 S424 1.610 . S
N426 C427 1.351 . S
C427 C421 1.428 . S
C427 N426 1.351 . S
C427 C428 1.434 . S
C428 C419 1.429 . S
C428 N425 1.350 . S
C428 C427 1.434 . S
C429 C430 1.369 1_556 S
C429 C431 1.419 . S
C429 H433 0.930 . S
C430 C429 1.369 1_554 S
C430 C439 1.429 . S
C431 C429 1.419 . S
C431 C432 1.363 . S
C431 H434 0.929 . S
C432 C431 1.363 . S
C432 C438 1.428 1_556 S
H433 C429 0.930 . S
H434 C431 0.929 . S
S435 N436 1.613 . S
S435 N437 1.610 . S
N436 S435 1.613 . S
N436 C439 1.350 . S
N437 S435 1.610 . S
N437 C438 1.351 . S
C438 C432 1.428 1_554 S
C438 N437 1.351 . S
C438 C439 1.434 . S
C439 C430 1.429 . S
C439 N436 1.350 . S
C439 C438 1.434 . S
C440 C441 1.369 1_545 S
C440 C442 1.400 1_655 S
C440 H444 0.930 . S
C441 C440 1.369 1_565 S
C441 C450 1.429 1_655 S
C442 C440 1.400 1_455 S
C442 C443 1.382 . S
C442 H445 0.928 1_455 S
C443 C442 1.382 . S
C443 C449 1.428 1_545 S
H444 C440 0.930 . S
H445 C442 0.928 1_655 S
S446 N447 1.613 . S
S446 N448 1.610 . S
N447 S446 1.613 . S
N447 C450 1.350 . S
N448 S446 1.610 . S
N448 C449 1.351 . S
C449 C443 1.428 1_565 S
C449 N448 1.351 . S
C449 C450 1.434 . S
C450 C441 1.429 1_455 S
C450 N447 1.350 . S
C450 C449 1.434 . S
C451 C452 1.369 . S
C451 C453 1.419 . S
C451 H455 0.930 . S
C452 C451 1.369 . S
C452 C461 1.429 . S
C453 C451 1.419 . S
C453 C454 1.363 . S
C453 H456 0.929 . S
C454 C453 1.363 . S
C454 C460 1.428 . S
H455 C451 0.930 . S
H456 C453 0.929 . S
S457 N458 1.613 . S
S457 N459 1.610 . S
N458 S457 1.613 . S
N458 C461 1.350 . S
N459 S457 1.610 . S
N459 C460 1.351 . S
C460 C454 1.428 . S
C460 N459 1.351 . S
C460 C461 1.434 . S
C461 C452 1.429 . S
C461 N458 1.350 . S
C461 C460 1.434 . S
C462 C463 1.369 . S
C462 C464 1.419 . S
C462 H466 0.930 . S
C463 C462 1.369 . S
C463 C472 1.429 . S
C464 C462 1.419 . S
C464 C465 1.363 . S
C464 H467 0.929 . S
C465 C464 1.363 . S
C465 C471 1.428 . S
H466 C462 0.930 . S
H467 C464 0.929 . S
S468 N469 1.613 . S
S468 N470 1.610 . S
N469 S468 1.613 . S
N469 C472 1.350 . S
N470 S468 1.610 . S
N470 C471 1.351 . S
C471 C465 1.428 . S
C471 N470 1.351 . S
C471 C472 1.434 . S
C472 C463 1.429 . S
C472 N469 1.350 . S
C472 C471 1.434 . S
C473 C474 1.369 1_655 S
C473 C475 1.401 1_545 S
C473 H477 0.930 . S
C474 C473 1.369 1_455 S
C474 C483 1.413 1_545 S
C475 C473 1.401 1_565 S
C475 C476 1.382 . S
C475 H478 0.928 1_565 S
C476 C475 1.382 . S
C476 C482 1.428 1_655 S
H477 C473 0.930 . S
H478 C475 0.928 1_545 S
S479 N480 1.613 . S
S479 N481 1.610 . S
N480 S479 1.613 . S
N480 C483 1.352 . S
N481 S479 1.610 . S
N481 C482 1.351 . S
C482 C476 1.428 1_455 S
C482 N481 1.351 . S
C482 C483 1.449 . S
C483 C474 1.413 1_565 S
C483 N480 1.352 . S
C483 C482 1.449 . S
C265 N71 1.234 . S
C267 N5 1.230 . S
C276 N104 1.233 . S
C278 N38 1.228 . S
C287 N203 1.231 . S
C289 N137 1.233 . S
C298 N236 1.226 . S
C300 N170 1.226 . S
C309 C160 1.889 . S
C311 C17 1.884 . S
C320 C193 1.888 . S
C322 C50 1.886 . S
C331 C226 1.889 . S
C333 C83 1.884 . S
C342 C116 1.883 . S
C344 C259 1.888 . S
C353 C28 1.889 . S
C355 C149 1.884 . S
C364 C61 1.887 . S
C366 C182 1.886 . S
C375 C94 1.887 . S
C377 C215 1.886 . S
C386 C248 1.886 . S
C388 C127 1.887 . S
C397 C8 1.861 . S
C399 C173 1.869 . S
C408 C206 1.869 . S
C410 C41 1.863 . S
C419 C239 1.865 . S
C421 C74 1.868 . S
C430 C140 1.861 . S
C432 C107 1.870 . S
C441 N80 0.728 . S
C443 N14 0.753 . S
C452 N47 0.740 . S
C454 N113 0.733 . S
C463 N212 0.727 . S
C465 N146 0.744 . S
C474 N179 0.735 . S
C476 N245 0.754 . S
