# Generated by pormake.
# Topology smu, (6)-cn, num edge types: 1
# Building blocks:
#     Node 0, Type 0, BuildingBlock: CUWYAW_clean_sbu_0, # of connection points: 6
#     Node 1, Type 0, BuildingBlock: CUWYAW_clean_sbu_0, # of connection points: 6
#     Node 2, Type 0, BuildingBlock: CUWYAW_clean_sbu_0, # of connection points: 6
#     Node 3, Type 0, BuildingBlock: CUWYAW_clean_sbu_0, # of connection points: 6
#     Node 4, Type 0, BuildingBlock: CUWYAW_clean_sbu_0, # of connection points: 6
#     Node 5, Type 0, BuildingBlock: CUWYAW_clean_sbu_0, # of connection points: 6
#     Edge 6, Type (0, 0), BuildingBlock: CIFDUS_clean_linker_0, # of connection points: 2
#     Edge 7, Type (0, 0), BuildingBlock: CIFDUS_clean_linker_0, # of connection points: 2
#     Edge 8, Type (0, 0), BuildingBlock: CIFDUS_clean_linker_0, # of connection points: 2
#     Edge 9, Type (0, 0), BuildingBlock: CIFDUS_clean_linker_0, # of connection points: 2
#     Edge 10, Type (0, 0), BuildingBlock: CIFDUS_clean_linker_0, # of connection points: 2
#     Edge 11, Type (0, 0), BuildingBlock: CIFDUS_clean_linker_0, # of connection points: 2
#     Edge 12, Type (0, 0), BuildingBlock: CIFDUS_clean_linker_0, # of connection points: 2
#     Edge 13, Type (0, 0), BuildingBlock: CIFDUS_clean_linker_0, # of connection points: 2
#     Edge 14, Type (0, 0), BuildingBlock: CIFDUS_clean_linker_0, # of connection points: 2
#     Edge 15, Type (0, 0), BuildingBlock: CIFDUS_clean_linker_0, # of connection points: 2
#     Edge 16, Type (0, 0), BuildingBlock: CIFDUS_clean_linker_0, # of connection points: 2
#     Edge 17, Type (0, 0), BuildingBlock: CIFDUS_clean_linker_0, # of connection points: 2
#     Edge 18, Type (0, 0), BuildingBlock: CIFDUS_clean_linker_0, # of connection points: 2
#     Edge 19, Type (0, 0), BuildingBlock: CIFDUS_clean_linker_0, # of connection points: 2
#     Edge 20, Type (0, 0), BuildingBlock: CIFDUS_clean_linker_0, # of connection points: 2
#     Edge 21, Type (0, 0), BuildingBlock: CIFDUS_clean_linker_0, # of connection points: 2
#     Edge 22, Type (0, 0), BuildingBlock: CIFDUS_clean_linker_0, # of connection points: 2
#     Edge 23, Type (0, 0), BuildingBlock: CIFDUS_clean_linker_0, # of connection points: 2
# Relax obj value: 0.226
# Max RMSD: 0.323
# Mean RMSD: 0.323
data_MOF--net-smu--node1-CUWYAW_clean_sbu_0--edge1-CIFDUS_clean_linker_0
_symmetry_space_group_name_H-M    P1
_symmetry_Int_Tables_number       1
_symmetry_cell_setting            triclinic
loop_
_symmetry_equiv_pos_as_xyz
'x, y, z'
_cell_length_a     35.610689
_cell_length_b     35.50229
_cell_length_c     22.838884
_cell_angle_alpha  89.475496
_cell_angle_beta   90.421925
_cell_angle_gamma 120.15008
loop_
_atom_site_label
_atom_site_type_symbol
_atom_site_fract_x
_atom_site_fract_y
_atom_site_fract_z
_atom_type_partial_charge
C0 C 0.26933 0.97871 0.29522 0.0
Eu1 Eu 0.3298 0.06011 0.29199 0.0
C2 C 0.22113 0.95713 0.29181 0.0
C3 C 0.19474 0.93149 0.33826 0.0
C4 C 0.14923 0.90954 0.33304 0.0
C5 C 0.12935 0.91256 0.28102 0.0
C6 C 0.15582 0.93908 0.23534 0.0
C7 C 0.20094 0.96113 0.24065 0.0
C8 C 0.36047 0.10785 0.41163 0.0
C9 C 0.28282 0.11727 0.27687 0.0
C10 C 0.43361 0.2349 0.27219 0.0
Eu11 Eu 0.38183 0.15029 0.27613 0.0
C12 C 0.47337 0.27864 0.2758 0.0
C13 C 0.49801 0.29874 0.22541 0.0
C14 C 0.52901 0.34329 0.22506 0.0
C15 C 0.53575 0.36926 0.2748 0.0
C16 C 0.51305 0.34833 0.32637 0.0
C17 C 0.48233 0.30368 0.32682 0.0
C18 C 0.35803 0.09971 0.17481 0.0
C19 C 0.43158 0.09897 0.3108 0.0
O20 O 0.28987 0.99914 0.24751 0.0
O21 O 0.289 1.00021 0.34274 0.0
O22 O 0.34721 0.11032 0.35987 0.0
O23 O 0.34691 0.10985 0.3591 0.0
O24 O 0.27908 0.07922 0.26325 0.0
O25 O 0.32069 0.15058 0.28951 0.0
O26 O 0.41387 0.21358 0.31967 0.0
O27 O 0.42622 0.20961 0.22722 0.0
O28 O 0.3515 0.13224 0.18206 0.0
O29 O 0.3739 0.09456 0.22078 0.0
O30 O 0.43334 0.1368 0.30824 0.0
O31 O 0.39467 0.06177 0.30191 0.0
H32 H 0.2093 0.92789 0.37818 0.0
H33 H 0.12965 0.88916 0.36894 0.0
H34 H 0.14157 0.94263 0.19508 0.0
H35 H 0.21991 0.98089 0.20393 0.0
H36 H 0.49192 0.28055 0.18524 0.0
H37 H 0.54669 0.35756 0.18496 0.0
H38 H 0.51691 0.36674 0.36568 0.0
H39 H 0.46375 0.28939 0.36635 0.0
C40 C 0.74073 0.78278 0.26795 0.0
Eu41 Eu 0.76754 0.72791 0.28619 0.0
C42 C 0.76543 0.83113 0.27268 0.0
C43 C 0.77746 0.85201 0.3273 0.0
C44 C 0.80568 0.89717 0.3307 0.0
C45 C 0.82268 0.92267 0.27957 0.0
C46 C 0.80955 0.90176 0.22503 0.0
C47 C 0.78136 0.85675 0.22166 0.0
C48 C 0.78997 0.71742 0.39615 0.0
C49 C 0.87154 0.7713 0.28995 0.0
C50 C 0.83598 0.62026 0.27497 0.0
Eu51 Eu 0.80585 0.67376 0.28007 0.0
C52 C 0.84159 0.5821 0.2857 0.0
C53 C 0.84876 0.56231 0.23758 0.0
C54 C 0.86204 0.53159 0.24549 0.0
C55 C 0.86806 0.51916 0.30207 0.0
C56 C 0.85796 0.53713 0.35037 0.0
C57 C 0.84544 0.56861 0.3423 0.0
C58 C 0.79219 0.70463 0.17419 0.0
C59 C 0.70436 0.62269 0.30044 0.0
O60 O 0.75378 0.76723 0.2261 0.0
O61 O 0.73211 0.75974 0.31637 0.0
O62 O 0.80275 0.75455 0.37082 0.0
O63 O 0.77369 0.68774 0.35745 0.0
O64 O 0.83972 0.77502 0.26573 0.0
O65 O 0.86376 0.73396 0.3115 0.0
O66 O 0.84773 0.6504 0.3149 0.0
O67 O 0.80627 0.61813 0.23897 0.0
O68 O 0.82904 0.70836 0.18917 0.0
O69 O 0.76674 0.68732 0.21575 0.0
O70 O 0.7403 0.62126 0.30587 0.0
O71 O 0.70501 0.66001 0.28936 0.0
H72 H 0.7661 0.83338 0.36758 0.0
H73 H 0.81504 0.9118 0.3736 0.0
H74 H 0.82091 0.92015 0.18459 0.0
H75 H 0.77283 0.84176 0.17884 0.0
H76 H 0.84631 0.57234 0.19342 0.0
H77 H 0.8697 0.51954 0.20674 0.0
H78 H 0.86056 0.52775 0.39474 0.0
H79 H 0.84 0.58323 0.38033 0.0
C80 C 0.07305 0.30283 0.27524 0.0
Eu81 Eu 0.99403 0.28638 0.29463 0.0
C82 C 0.0948 0.27643 0.27514 0.0
C83 C 0.09559 0.25305 0.3248 0.0
C84 C 0.114 0.22618 0.3218 0.0
C85 C 0.13186 0.22192 0.26904 0.0
C86 C 0.13167 0.24615 0.21998 0.0
C87 C 0.11336 0.27289 0.22301 0.0
C88 C 0.96505 0.28303 0.40314 0.0
C89 C 0.92931 0.17906 0.30668 0.0
C90 C 0.82082 0.22354 0.2865 0.0
Eu91 Eu 0.90319 0.24802 0.28723 0.0
C92 C 0.77401 0.20963 0.286 0.0
C93 C 0.75333 0.2099 0.23363 0.0
C94 C 0.70873 0.1952 0.23252 0.0
C95 C 0.68324 0.17866 0.28353 0.0
C96 C 0.70457 0.17969 0.33634 0.0
C97 C 0.74942 0.19533 0.33759 0.0
C98 C 0.94941 0.27213 0.18164 0.0
C99 C 0.95401 0.34999 0.29833 0.0
O100 O 0.04416 0.29353 0.234 0.0
O101 O 0.06054 0.3102 0.32545 0.0
O102 O 0.99658 0.31727 0.37863 0.0
O103 O 0.94624 0.25185 0.36595 0.0
O104 O 0.96777 0.21115 0.28897 0.0
O105 O 0.89827 0.18716 0.31748 0.0
O106 O 0.84603 0.24247 0.33143 0.0
O107 O 0.84013 0.21759 0.24212 0.0
O108 O 0.91715 0.23319 0.19164 0.0
O109 O 0.95548 0.29307 0.22712 0.0
O110 O 0.91922 0.31453 0.31554 0.0
O111 O 0.98767 0.34743 0.27815 0.0
H112 H 0.0814 0.25489 0.36569 0.0
H113 H 0.11329 0.20801 0.36052 0.0
H114 H 0.14599 0.24479 0.17898 0.0
H115 H 0.11328 0.29058 0.18412 0.0
H116 H 0.7717 0.22152 0.19338 0.0
H117 H 0.69432 0.19664 0.1913 0.0
H118 H 0.6866 0.16707 0.37663 0.0
H119 H 0.76462 0.19493 0.37867 0.0
C120 C 0.08075 0.43982 0.75329 0.0
Eu121 Eu 0.10527 0.38375 0.77949 0.0
C122 C 0.10168 0.48761 0.76349 0.0
C123 C 0.10729 0.50439 0.82049 0.0
C124 C 0.12765 0.54935 0.82975 0.0
C125 C 0.14318 0.5789 0.7824 0.0
C126 C 0.13824 0.56223 0.72544 0.0
C127 C 0.11758 0.51711 0.71611 0.0
C128 C 0.10231 0.35416 0.89304 0.0
C129 C 0.20896 0.42458 0.79526 0.0
C130 C 0.17351 0.27634 0.82222 0.0
Eu131 Eu 0.13958 0.32272 0.79062 0.0
C132 C 0.16734 0.23262 0.81612 0.0
C133 C 0.1715 0.21708 0.76156 0.0
C134 C 0.17602 0.18037 0.75889 0.0
C135 C 0.17632 0.15893 0.81064 0.0
C136 C 0.16774 0.17205 0.86435 0.0
C137 C 0.16337 0.20872 0.86702 0.0
C138 C 0.11473 0.32581 0.67998 0.0
C139 C 0.03899 0.27913 0.77009 0.0
O140 O 0.09991 0.42737 0.71596 0.0
O141 O 0.06677 0.41425 0.79922 0.0
O142 O 0.11506 0.39441 0.87911 0.0
O143 O 0.0958 0.33393 0.84605 0.0
O144 O 0.17838 0.43196 0.77519 0.0
O145 O 0.19882 0.38581 0.81455 0.0
O146 O 0.14562 0.2804 0.85482 0.0
O147 O 0.18564 0.30125 0.77544 0.0
O148 O 0.11645 0.29314 0.70248 0.0
O149 O 0.13322 0.35893 0.71363 0.0
O150 O 0.06985 0.27371 0.79355 0.0
O151 O 0.04465 0.31823 0.75673 0.0
H152 H 0.09601 0.48286 0.85822 0.0
H153 H 0.13132 0.56102 0.87426 0.0
H154 H 0.14939 0.58401 0.68796 0.0
H155 H 0.11393 0.50524 0.67171 0.0
H156 H 0.17386 0.23461 0.72141 0.0
H157 H 0.18154 0.17013 0.71684 0.0
H158 H 0.1678 0.15616 0.90503 0.0
H159 H 0.15991 0.22009 0.90942 0.0
C160 C 0.40078 0.97124 0.77177 0.0
Eu161 Eu 0.3186 0.94424 0.7883 0.0
C162 C 0.42736 0.94975 0.77835 0.0
C163 C 0.4537 0.95749 0.82796 0.0
C164 C 0.47927 0.93793 0.83382 0.0
C165 C 0.47948 0.91028 0.79006 0.0
C166 C 0.45235 0.9017 0.74103 0.0
C167 C 0.42671 0.92125 0.73516 0.0
C168 C 0.28404 0.93639 0.89863 0.0
C169 C 0.25767 0.83912 0.79224 0.0
C170 C 0.14003 0.86761 0.80949 0.0
Eu171 Eu 0.22199 0.90554 0.78547 0.0
C172 C 0.10372 0.87568 0.81468 0.0
C173 C 0.0892 0.88976 0.76649 0.0
C174 C 0.04947 0.88837 0.76912 0.0
C175 C 1.02388 0.87267 0.81972 0.0
C176 C 0.04018 0.86229 0.8695 0.0
C177 C 0.08 0.8639 0.86699 0.0
C178 C 0.25928 0.93753 0.67947 0.0
C179 C 0.27724 1.00819 0.78716 0.0
O180 O 0.37178 0.95657 0.7301 0.0
O181 O 0.38601 0.97927 0.81947 0.0
O182 O 0.3136 0.92665 0.88562 0.0
O183 O 0.27215 0.94572 0.85146 0.0
O184 O 0.29661 0.8719 0.77956 0.0
O185 O 0.22559 0.84573 0.80367 0.0
O186 O 0.17039 0.88483 0.84956 0.0
O187 O 0.15492 0.86833 0.75693 0.0
O188 O 0.22356 0.9352 0.69675 0.0
O189 O 0.27062 0.91757 0.71599 0.0
O190 O 0.24023 0.9732 0.80066 0.0
O191 O 0.3126 1.00601 0.77375 0.0
H192 H 0.45483 0.97897 0.86217 0.0
H193 H 0.49924 0.9448 0.87267 0.0
H194 H 0.45196 0.881 0.70622 0.0
H195 H 0.40677 0.91438 0.69628 0.0
H196 H 0.10716 0.89941 0.7258 0.0
H197 H 0.03732 0.89644 0.73018 0.0
H198 H 1.02104 0.85067 0.90914 0.0
H199 H 0.091 0.85338 0.90479 0.0
C200 C 0.61134 0.65053 0.77154 0.0
Eu201 Eu 0.66642 0.73293 0.78979 0.0
C202 C 0.563 0.62323 0.7779 0.0
C203 C 0.54465 0.59862 0.82912 0.0
C204 C 0.49948 0.57245 0.83507 0.0
C205 C 0.47101 0.56976 0.78989 0.0
C206 C 0.48929 0.59505 0.73906 0.0
C207 C 0.53461 0.62129 0.73308 0.0
C208 C 0.68609 0.76505 0.90254 0.0
C209 C 0.62426 0.7946 0.7936 0.0
C210 C 0.77083 0.91126 0.80733 0.0
Eu211 Eu 0.72495 0.82791 0.792 0.0
C212 C 0.81481 0.94787 0.79749 0.0
C213 C 0.83227 0.95994 0.74088 0.0
C214 C 0.86975 1.00008 0.73162 0.0
C215 C 0.88989 0.0284 0.77878 0.0
C216 C 0.87503 1.01418 0.83594 0.0
C217 C 0.83761 0.97418 0.84517 0.0
C218 C 0.72784 0.79326 0.68711 0.0
C219 C 0.7711 0.77374 0.80186 0.0
O220 O 0.62607 0.67993 0.72988 0.0
O221 O 0.63435 0.66498 0.81951 0.0
O222 O 0.64736 0.73746 0.88392 0.0
O223 O 0.71074 0.77692 0.85908 0.0
O224 O 0.61815 0.75692 0.77465 0.0
O225 O 0.66221 0.82367 0.81373 0.0
O226 O 0.76645 0.88294 0.84759 0.0
O227 O 0.7462 0.89356 0.76129 0.0
O228 O 0.7595 0.82737 0.71107 0.0
O229 O 0.69323 0.78105 0.71681 0.0
O230 O 0.77096 0.80804 0.8225 0.0
O231 O 0.73477 0.73976 0.7811 0.0
H232 H 0.56526 0.59935 0.86473 0.0
H233 H 0.48684 0.55414 0.87534 0.0
H234 H 0.46866 0.59364 0.70308 0.0
H235 H 0.54737 0.63973 0.69292 0.0
H236 H 0.81562 0.93979 0.70342 0.0
H237 H 0.8808 1.01036 0.68717 0.0
H238 H 0.89067 0.03527 0.87303 0.0
H239 H 0.82495 0.96508 0.88923 0.0
H240 H 0.34759 0.96648 0.98345 0.0
H241 H 0.23181 0.96826 0.9326 0.0
H242 H 0.2451 0.02152 1.00929 0.0
H243 H 0.29092 0.0691 0.09185 0.0
H244 H 0.40546 0.06434 0.14193 0.0
H245 H 0.3917 1.01186 0.06513 0.0
C246 C 0.32473 0.97779 0.9897 0.0
C247 C 0.28847 0.96278 0.95215 0.0
C248 C 0.33285 1.00887 1.03369 0.0
C249 C 0.25987 0.97885 0.96082 0.0
C250 C 0.26763 1.00965 1.0046 0.0
C251 C 0.31311 0.05702 0.08524 0.0
C252 C 0.34965 0.07138 0.12244 0.0
C253 C 0.30437 0.02543 0.04116 0.0
C254 C 0.37735 0.05433 0.11391 0.0
C255 C 0.36938 0.02397 0.07005 0.0
H256 H 0.67912 0.74139 0.59118 0.0
H257 H 0.80176 0.79164 0.68114 0.0
H258 H 0.82938 0.76585 0.60513 0.0
H259 H 0.82438 0.73972 0.50524 0.0
H260 H 0.70408 0.68972 0.41057 0.0
H261 H 0.67068 0.70465 0.49404 0.0
C262 C 0.71135 0.74556 0.59479 0.0
C263 C 0.73798 0.7684 0.64306 0.0
C264 C 0.72817 0.73131 0.54877 0.0
C265 C 0.78003 0.77394 0.6457 0.0
C266 C 0.79631 0.75945 0.60153 0.0
C267 C 0.79031 0.73033 0.50386 0.0
C268 C 0.76667 0.71268 0.45216 0.0
C269 C 0.77142 0.73947 0.55188 0.0
C270 C 0.72281 0.70215 0.45049 0.0
C271 C 0.7038 0.71132 0.49809 0.0
H272 H 0.94893 0.23655 0.07162 0.0
H273 H 1.02217 0.35076 0.17819 0.0
H274 H 0.07626 0.38478 0.10278 0.0
H275 H 0.10321 0.3851 1.00378 0.0
H276 H 0.03121 0.272 0.89546 0.0
H277 H 0.97719 0.23638 0.97172 0.0
C278 C 0.97667 0.26881 0.07825 0.0
C279 C 0.98093 0.29051 0.13147 0.0
C280 C 1.00839 0.28929 1.03338 0.0
C281 C 1.01734 0.33267 0.13834 0.0
C282 C 0.04878 0.35257 0.09488 0.0
C283 C 0.076 0.35251 0.9971 0.0
C284 C 0.07195 0.33169 0.94346 0.0
C285 C 0.04469 0.33155 0.04189 0.0
C286 C 0.03597 0.28925 0.93605 0.0
C287 C 1.00461 0.26857 0.97993 0.0
H288 H 0.39144 0.08415 0.50446 0.0
H289 H 0.27234 0.04826 0.41218 0.0
H290 H 0.23165 0.98973 0.48316 0.0
H291 H 0.22908 0.95153 0.57614 0.0
H292 H 0.34696 0.9943 0.67373 0.0
H293 H 0.38872 0.04632 0.59713 0.0
C294 C 0.35667 0.06294 0.49931 0.0
C295 C 0.33545 0.06944 0.45127 0.0
C296 C 0.33315 0.03025 0.54178 0.0
C297 C 0.29001 0.04285 0.44693 0.0
C298 C 0.26656 1.00962 0.4881 0.0
C299 C 0.26408 0.97158 0.57996 0.0
C300 C 0.28523 0.96665 0.62963 0.0
C301 C 0.28769 1.00323 0.53619 0.0
C302 C 0.33028 0.99432 0.63453 0.0
C303 C 0.35406 0.02522 0.59105 0.0
H304 H 0.76786 0.78019 0.93184 0.0
H305 H 0.63991 0.73254 1.00355 0.0
H306 H 0.66197 0.71057 0.09335 0.0
H307 H 0.7154 0.69982 0.14856 0.0
H308 H 0.84344 0.7469 0.0781 0.0
H309 H 0.82313 0.77293 0.98987 0.0
C310 C 0.7448 0.76551 0.96724 0.0
C311 C 0.70189 0.75801 0.96047 0.0
C312 C 0.75752 0.75197 1.01848 0.0
C313 C 0.67288 0.73877 1.00725 0.0
C314 C 0.68548 0.72592 0.05852 0.0
C315 C 0.73915 0.71615 0.1142 0.0
C316 C 0.78108 0.72142 0.12025 0.0
C317 C 0.72733 0.73148 0.06413 0.0
C318 C 0.81108 0.74238 0.07484 0.0
C319 C 0.79942 0.75738 1.02444 0.0
H320 H 1.02189 0.25864 0.43643 0.0
H321 H 0.9378 0.30214 0.50396 0.0
H322 H 0.97989 0.32449 0.59544 0.0
H323 H 0.04598 0.33894 0.65188 0.0
H324 H 0.13036 0.29643 0.58124 0.0
H325 H 0.08479 0.26927 0.49399 0.0
C326 C 1.01161 0.27118 0.47232 0.0
C327 C 0.97572 0.27726 0.46411 0.0
C328 C 0.03785 0.28679 0.52285 0.0
C329 C 0.96416 0.29553 0.50994 0.0
C330 C 0.98906 0.30947 0.56163 0.0
C331 C 0.05475 0.3243 0.61718 0.0
C332 C 0.09249 0.32088 0.62271 0.0
C333 C 1.02709 0.30689 0.56768 0.0
C334 C 0.10243 0.30081 0.5774 0.0
C335 C 0.07586 0.28443 0.52794 0.0
H336 H 0.48021 0.08622 0.23128 0.0
H337 H 0.47948 0.1248 0.40912 0.0
H338 H 0.55796 0.15483 0.41634 0.0
H339 H 0.62752 0.17582 0.36931 0.0
H340 H 0.62816 0.13518 0.19164 0.0
H341 H 0.54976 0.10206 0.18662 0.0
C342 C 0.49704 0.09932 0.2724 0.0
C343 C 0.47382 0.1016 0.32049 0.0
C344 C 0.54256 0.11781 0.27558 0.0
C345 C 0.49641 0.12102 0.37242 0.0
C346 C 0.54144 0.13898 0.37614 0.0
C347 C 0.61074 0.15901 0.32974 0.0
C348 C 0.63466 0.15858 0.28092 0.0
C349 C 0.56504 0.13844 0.32756 0.0
C350 C 0.61151 0.13739 0.22974 0.0
C351 C 0.56624 0.11764 0.22695 0.0
H352 H 0.6444 0.57261 0.21872 0.0
H353 H 0.68008 0.57603 0.39984 0.0
H354 H 0.6324 0.49726 0.4081 0.0
H355 H 0.58576 0.42661 0.36154 0.0
H356 H 0.54792 0.42301 0.18058 0.0
H357 H 0.59183 0.50191 0.17436 0.0
C358 C 0.63994 0.5563 0.26064 0.0
C359 C 0.66433 0.5804 0.30929 0.0
C360 C 0.61327 0.51055 0.2646 0.0
C361 C 0.6602 0.55843 0.3625 0.0
C362 C 0.63361 0.51322 0.36691 0.0
C363 C 0.58635 0.44287 0.32088 0.0
C364 C 0.56354 0.41806 0.2715 0.0
C365 C 0.61075 0.48876 0.31786 0.0
C366 C 0.56585 0.44049 0.2191 0.0
C367 C 0.59056 0.48597 0.2156 0.0
H368 H 0.96645 0.41612 0.37018 0.0
H369 H 0.91877 0.36057 0.20025 0.0
H370 H 0.88402 0.40458 0.1882 0.0
H371 H 0.86385 0.45563 0.22822 0.0
H372 H 0.91763 0.51708 0.3946 0.0
H373 H 0.95174 0.47305 0.40638 0.0
C374 C 0.95017 0.41529 0.32949 0.0
C375 C 0.94697 0.38672 0.28499 0.0
C376 C 0.93003 0.44071 0.32295 0.0
C377 C 0.92355 0.38398 0.23384 0.0
C378 C 0.90292 0.4085 0.22745 0.0
C379 C 0.88374 0.4605 0.26665 0.0
C380 C 0.88757 0.49026 0.31029 0.0
C381 C 0.90551 0.43665 0.27204 0.0
C382 C 0.91262 0.49409 0.36049 0.0
C383 C 0.93299 0.46928 0.36704 0.0
H384 H 0.21607 0.6477 0.73288 0.0
H385 H 0.11263 0.6175 0.85508 0.0
H386 H 0.14119 0.69477 0.87213 0.0
H387 H 0.19301 0.77075 0.84958 0.0
H388 H 0.29733 0.80333 0.72831 0.0
H389 H 0.27131 0.72548 0.71415 0.0
C390 C 0.19983 0.6581 0.76318 0.0
C391 C 0.16215 0.62659 0.79268 0.0
C392 C 0.21666 0.70303 0.77314 0.0
C393 C 0.14184 0.64077 0.83227 0.0
C394 C 0.15807 0.68506 0.84191 0.0
C395 C 0.21048 0.76097 0.82047 0.0
C396 C 0.24713 0.79294 0.79002 0.0
C397 C 0.1952 0.71642 0.81236 0.0
C398 C 0.26936 0.7795 0.75277 0.0
C399 C 0.25419 0.73495 0.74427 0.0
H400 H 0.46555 0.82851 0.76164 0.0
H401 H 0.56351 0.95429 0.82598 0.0
H402 H 0.6151 0.92882 0.83406 0.0
H403 H 0.63327 0.87229 0.82276 0.0
H404 H 0.53849 0.74607 0.75641 0.0
H405 H 0.4849 0.77036 0.74915 0.0
C406 C 0.49823 0.85032 0.77727 0.0
C407 C 0.51025 0.89324 0.79404 0.0
C408 C 0.52832 0.83543 0.78156 0.0
C409 C 0.55281 0.92092 0.81417 0.0
C410 C 0.58257 0.90646 0.81842 0.0
C411 C 0.60086 0.84964 0.80691 0.0
C412 C 0.59002 0.80711 0.7905 0.0
C413 C 0.57068 0.86388 0.80248 0.0
C414 C 0.5478 0.77884 0.76967 0.0
C415 C 0.51719 0.79282 0.7654 0.0
H416 H 0.27778 0.41709 0.83254 0.0
H417 H 0.2473 0.50841 0.75028 0.0
H418 H 0.32513 0.5612 0.74044 0.0
H419 H 0.40255 0.58122 0.75472 0.0
H420 H 0.43051 0.48759 0.83575 0.0
H421 H 0.3533 0.43641 0.84649 0.0
C422 C 0.28785 0.44865 0.81283 0.0
C423 C 0.25621 0.45864 0.79272 0.0
C424 C 0.33258 0.47865 0.80693 0.0
C425 C 0.27057 0.49975 0.76681 0.0
C426 C 0.31522 0.52994 0.7609 0.0
C427 C 0.39177 0.54957 0.77454 0.0
C428 C 0.4229 0.53882 0.79504 0.0
C429 C 0.34666 0.51972 0.7806 0.0
C430 C 0.40784 0.4975 0.82072 0.0
C431 C 0.36346 0.46791 0.82659 0.0
H432 H 0.21953 0.11067 0.20046 0.0
H433 H 0.26605 0.14254 0.37794 0.0
H434 H 0.22221 0.17659 0.39299 0.0
H435 H 0.17798 0.20549 0.35217 0.0
H436 H 0.12829 0.1717 0.17591 0.0
H437 H 0.16573 0.13063 0.16415 0.0
C438 C 0.21852 0.12344 0.24299 0.0
C439 C 0.24553 0.12357 0.28821 0.0
C440 C 0.19352 0.14382 0.25125 0.0
C441 C 0.24495 0.14147 0.34271 0.0
C442 C 0.22028 0.16146 0.35121 0.0
C443 C 0.17442 0.18843 0.31154 0.0
C444 C 0.15096 0.1928 0.26463 0.0
C445 C 0.19553 0.16413 0.30521 0.0
C446 C 0.14724 0.17037 0.2123 0.0
C447 C 0.16836 0.14639 0.2056 0.0
H448 H 0.93257 0.79119 0.20768 0.0
H449 H 0.91197 0.82805 0.37814 0.0
H450 H 0.99054 0.87569 0.39121 0.0
H451 H 0.06556 0.90284 0.35647 0.0
H452 H 0.08542 0.86446 0.18608 0.0
H453 H 1.00713 0.82168 0.1705 0.0
C454 C 0.9454 0.81084 0.24677 0.0
C455 C 0.91679 0.80737 0.2912 0.0
C456 C 0.99058 0.83725 0.25439 0.0
C457 C 0.93356 0.83145 0.34272 0.0
C458 C 0.97844 0.85816 0.35046 0.0
C459 C 0.05266 0.88507 0.31601 0.0
C460 C 0.08137 0.88682 0.27259 0.0
C461 C 1.00736 0.8606 0.3071 0.0
C462 C 0.06412 0.86397 0.22007 0.0
C463 C 1.0193 0.83941 0.21111 0.0
H464 H 0.94997 0.126 0.24177 0.0
H465 H 0.88219 0.12889 0.39595 0.0
H466 H 0.84433 0.05008 0.40288 0.0
H467 H 0.82284 0.98017 0.35846 0.0
H468 H 0.89229 0.97433 0.20805 0.0
H469 H 0.93669 0.05374 0.20657 0.0
C470 C 0.92811 0.10938 0.27792 0.0
C471 C 0.91866 0.13346 0.31787 0.0
C472 C 0.90573 0.06325 0.28168 0.0
C473 C 0.88986 0.11122 0.36426 0.0
C474 C 0.86785 0.06599 0.36817 0.0
C475 C 0.84829 0.99592 0.32605 0.0
C476 C 0.8532 0.97089 0.28265 0.0
C477 C 0.87427 0.04158 0.32595 0.0
C478 C 0.88647 0.99257 0.24093 0.0
C479 C 0.91229 0.03815 0.2403 0.0
H480 H 0.24391 0.16345 0.74965 0.0
H481 H 0.14215 0.08314 0.87207 0.0
H482 H 0.17371 0.03678 0.88575 0.0
H483 H 0.22887 1.01968 0.86391 0.0
H484 H 0.32041 0.08619 0.72451 0.0
H485 H 0.29684 0.14083 0.72023 0.0
C486 C 0.2282 0.13528 0.77839 0.0
C487 C 0.19105 0.12692 0.81049 0.0
C488 C 0.24587 0.108 0.78485 0.0
C489 C 0.17116 0.09059 0.84786 0.0
C490 C 0.1893 0.06432 0.85593 0.0
C491 C 0.24402 0.04612 0.8323 0.0
C492 C 0.27599 0.04868 0.79391 0.0
C493 C 0.22681 0.07322 0.82524 0.0
C494 C 0.29599 0.08379 0.75471 0.0
C495 C 0.28171 0.11418 0.75139 0.0
H496 H 0.95435 0.79476 0.84656 0.0
H497 H 0.9917 0.92415 0.78469 0.0
H498 H 0.91554 0.90149 0.76647 0.0
H499 H 0.84014 0.84543 0.76638 0.0
H500 H 0.79966 0.71677 0.83368 0.0
H501 H 0.87648 0.73795 0.84898 0.0
C502 C 0.94556 0.81804 0.82998 0.0
C503 C 0.97814 0.86104 0.81701 0.0
C504 C 0.90191 0.80452 0.81877 0.0
C505 C 0.96689 0.89096 0.7948 0.0
C506 C 0.92361 0.87793 0.784 0.0
C507 C 0.84806 0.82163 0.78369 0.0
C508 C 0.81464 0.77937 0.79822 0.0
C509 C 0.89121 0.83472 0.79497 0.0
C510 C 0.82506 0.74899 0.82077 0.0
C511 C 0.86874 0.76146 0.83052 0.0
H512 H 0.03109 0.21683 0.70057 0.0
H513 H 0.96081 0.25051 0.82186 0.0
H514 H 0.9075 0.17309 0.83634 0.0
H515 H 0.88655 0.0966 0.82261 0.0
H516 H 0.96118 0.06337 0.70792 0.0
H517 H 1.00872 0.14054 0.68387 0.0
C518 C 1.00289 0.20705 0.72811 0.0
C519 C 0.99878 0.23879 0.759 0.0
C520 C 0.97469 0.16292 0.73921 0.0
C521 C 0.96334 0.2264 0.79612 0.0
C522 C 0.93374 0.18225 0.80553 0.0
C523 C 0.91351 0.10635 0.79279 0.0
C524 C 0.92089 0.07472 0.76746 0.0
C525 C 0.94018 0.15039 0.77899 0.0
C526 C 0.95521 0.08741 0.72795 0.0
C527 C 0.98204 0.13131 0.71395 0.0
loop_
_geom_bond_atom_site_label_1
_geom_bond_atom_site_label_2
_geom_bond_distance
_geom_bond_site_symmetry_2
_ccdc_geom_bond_type
C0 Eu1 2.835 1_565 S
C0 C2 1.500 . S
C0 O20 1.259 . S
C0 O21 1.260 . S
Eu1 C0 2.835 1_545 S
Eu1 O20 2.472 1_545 S
Eu1 O21 2.480 1_545 S
Eu1 O22 2.430 . S
Eu1 O23 2.670 . S
Eu1 O24 2.394 . S
Eu1 O29 2.355 . S
Eu1 O31 2.374 . S
C2 C0 1.500 . S
C2 C3 1.377 . S
C2 C7 1.377 . S
C3 C2 1.377 . S
C3 C4 1.395 . S
C3 H32 0.931 . S
C4 C3 1.395 . S
C4 C5 1.383 . S
C4 H33 0.931 . S
C5 C4 1.383 . S
C5 C6 1.394 . S
C6 C5 1.394 . S
C6 C7 1.378 . S
C6 H34 0.931 . S
C7 C2 1.377 . S
C7 C6 1.378 . S
C7 H35 0.931 . S
C8 O22 1.259 . S
C8 O23 1.270 . S
C9 O24 1.251 . S
C9 O25 1.251 . S
C10 Eu11 2.835 . S
C10 C12 1.500 . S
C10 O26 1.257 . S
C10 O27 1.260 . S
Eu11 C10 2.835 . S
Eu11 O23 2.355 . S
Eu11 O25 2.374 . S
Eu11 O26 2.473 . S
Eu11 O27 2.480 . S
Eu11 O28 2.430 . S
Eu11 O29 2.670 . S
Eu11 O30 2.394 . S
C12 C10 1.500 . S
C12 C13 1.377 . S
C12 C17 1.377 . S
C13 C12 1.377 . S
C13 C14 1.395 . S
C13 H36 0.931 . S
C14 C13 1.395 . S
C14 C15 1.383 . S
C14 H37 0.931 . S
C15 C14 1.383 . S
C15 C16 1.394 . S
C16 C15 1.394 . S
C16 C17 1.378 . S
C16 H38 0.931 . S
C17 C12 1.377 . S
C17 C16 1.378 . S
C17 H39 0.931 . S
C18 O28 1.259 . S
C18 O29 1.270 . S
C19 O30 1.251 . S
C19 O31 1.251 . S
O20 C0 1.259 . S
O20 Eu1 2.472 1_565 S
O21 C0 1.260 . S
O21 Eu1 2.480 1_565 S
O22 Eu1 2.430 . S
O22 C8 1.259 . S
O23 Eu1 2.670 . S
O23 C8 1.270 . S
O23 Eu11 2.355 . S
O24 Eu1 2.394 . S
O24 C9 1.251 . S
O25 C9 1.251 . S
O25 Eu11 2.374 . S
O26 C10 1.257 . S
O26 Eu11 2.473 . S
O27 C10 1.260 . S
O27 Eu11 2.480 . S
O28 Eu11 2.430 . S
O28 C18 1.259 . S
O29 Eu1 2.355 . S
O29 Eu11 2.670 . S
O29 C18 1.270 . S
O30 Eu11 2.394 . S
O30 C19 1.251 . S
O31 Eu1 2.374 . S
O31 C19 1.251 . S
H32 C3 0.931 . S
H33 C4 0.931 . S
H34 C6 0.931 . S
H35 C7 0.931 . S
H36 C13 0.931 . S
H37 C14 0.931 . S
H38 C16 0.931 . S
H39 C17 0.931 . S
C40 Eu41 2.835 . S
C40 C42 1.500 . S
C40 O60 1.257 . S
C40 O61 1.260 . S
Eu41 C40 2.835 . S
Eu41 O60 2.473 . S
Eu41 O61 2.480 . S
Eu41 O62 2.430 . S
Eu41 O63 2.670 . S
Eu41 O64 2.394 . S
Eu41 O69 2.355 . S
Eu41 O71 2.374 . S
C42 C40 1.500 . S
C42 C43 1.377 . S
C42 C47 1.377 . S
C43 C42 1.377 . S
C43 C44 1.395 . S
C43 H72 0.931 . S
C44 C43 1.395 . S
C44 C45 1.383 . S
C44 H73 0.931 . S
C45 C44 1.383 . S
C45 C46 1.394 . S
C46 C45 1.394 . S
C46 C47 1.378 . S
C46 H74 0.931 . S
C47 C42 1.377 . S
C47 C46 1.378 . S
C47 H75 0.931 . S
C48 O62 1.259 . S
C48 O63 1.270 . S
C49 O64 1.251 . S
C49 O65 1.251 . S
C50 Eu51 2.835 . S
C50 C52 1.500 . S
C50 O66 1.257 . S
C50 O67 1.260 . S
Eu51 C50 2.835 . S
Eu51 O63 2.355 . S
Eu51 O65 2.374 . S
Eu51 O66 2.473 . S
Eu51 O67 2.480 . S
Eu51 O68 2.430 . S
Eu51 O69 2.670 . S
Eu51 O70 2.394 . S
C52 C50 1.500 . S
C52 C53 1.377 . S
C52 C57 1.377 . S
C53 C52 1.377 . S
C53 C54 1.395 . S
C53 H76 0.931 . S
C54 C53 1.395 . S
C54 C55 1.383 . S
C54 H77 0.931 . S
C55 C54 1.383 . S
C55 C56 1.394 . S
C56 C55 1.394 . S
C56 C57 1.378 . S
C56 H78 0.931 . S
C57 C52 1.377 . S
C57 C56 1.378 . S
C57 H79 0.931 . S
C58 O68 1.259 . S
C58 O69 1.270 . S
C59 O70 1.251 . S
C59 O71 1.251 . S
O60 C40 1.257 . S
O60 Eu41 2.473 . S
O61 C40 1.260 . S
O61 Eu41 2.480 . S
O62 Eu41 2.430 . S
O62 C48 1.259 . S
O63 Eu41 2.670 . S
O63 C48 1.270 . S
O63 Eu51 2.355 . S
O64 Eu41 2.394 . S
O64 C49 1.251 . S
O65 C49 1.251 . S
O65 Eu51 2.374 . S
O66 C50 1.257 . S
O66 Eu51 2.473 . S
O67 C50 1.260 . S
O67 Eu51 2.480 . S
O68 Eu51 2.430 . S
O68 C58 1.259 . S
O69 Eu41 2.355 . S
O69 Eu51 2.670 . S
O69 C58 1.270 . S
O70 Eu51 2.394 . S
O70 C59 1.251 . S
O71 Eu41 2.374 . S
O71 C59 1.251 . S
H72 C43 0.931 . S
H73 C44 0.931 . S
H74 C46 0.931 . S
H75 C47 0.931 . S
H76 C53 0.931 . S
H77 C54 0.931 . S
H78 C56 0.931 . S
H79 C57 0.931 . S
C80 Eu81 2.835 1_455 S
C80 C82 1.500 . S
C80 O100 1.259 . S
C80 O101 1.260 . S
Eu81 C80 2.835 1_655 S
Eu81 O100 2.470 1_655 S
Eu81 O101 2.480 1_655 S
Eu81 O102 2.430 . S
Eu81 O103 2.670 . S
Eu81 O104 2.394 . S
Eu81 O109 2.355 . S
Eu81 O111 2.374 . S
C82 C80 1.500 . S
C82 C83 1.377 . S
C82 C87 1.377 . S
C83 C82 1.377 . S
C83 C84 1.395 . S
C83 H112 0.931 . S
C84 C83 1.395 . S
C84 C85 1.383 . S
C84 H113 0.931 . S
C85 C84 1.383 . S
C85 C86 1.394 . S
C86 C85 1.394 . S
C86 C87 1.378 . S
C86 H114 0.931 . S
C87 C82 1.377 . S
C87 C86 1.378 . S
C87 H115 0.931 . S
C88 O102 1.259 . S
C88 O103 1.270 . S
C89 O104 1.251 . S
C89 O105 1.251 . S
C90 Eu91 2.835 . S
C90 C92 1.500 . S
C90 O106 1.257 . S
C90 O107 1.260 . S
Eu91 C90 2.835 . S
Eu91 O103 2.355 . S
Eu91 O105 2.374 . S
Eu91 O106 2.473 . S
Eu91 O107 2.480 . S
Eu91 O108 2.430 . S
Eu91 O109 2.670 . S
Eu91 O110 2.394 . S
C92 C90 1.500 . S
C92 C93 1.377 . S
C92 C97 1.377 . S
C93 C92 1.377 . S
C93 C94 1.395 . S
C93 H116 0.931 . S
C94 C93 1.395 . S
C94 C95 1.383 . S
C94 H117 0.931 . S
C95 C94 1.383 . S
C95 C96 1.394 . S
C96 C95 1.394 . S
C96 C97 1.378 . S
C96 H118 0.931 . S
C97 C92 1.377 . S
C97 C96 1.378 . S
C97 H119 0.931 . S
C98 O108 1.259 . S
C98 O109 1.270 . S
C99 O110 1.251 . S
C99 O111 1.251 . S
O100 C80 1.259 . S
O100 Eu81 2.470 1_455 S
O101 C80 1.260 . S
O101 Eu81 2.480 1_455 S
O102 Eu81 2.430 . S
O102 C88 1.259 . S
O103 Eu81 2.670 . S
O103 C88 1.270 . S
O103 Eu91 2.355 . S
O104 Eu81 2.394 . S
O104 C89 1.251 . S
O105 C89 1.251 . S
O105 Eu91 2.374 . S
O106 C90 1.257 . S
O106 Eu91 2.473 . S
O107 C90 1.260 . S
O107 Eu91 2.480 . S
O108 Eu91 2.430 . S
O108 C98 1.259 . S
O109 Eu81 2.355 . S
O109 Eu91 2.670 . S
O109 C98 1.270 . S
O110 Eu91 2.394 . S
O110 C99 1.251 . S
O111 Eu81 2.374 . S
O111 C99 1.251 . S
H112 C83 0.931 . S
H113 C84 0.931 . S
H114 C86 0.931 . S
H115 C87 0.931 . S
H116 C93 0.931 . S
H117 C94 0.931 . S
H118 C96 0.931 . S
H119 C97 0.931 . S
C120 Eu121 2.835 . S
C120 C122 1.500 . S
C120 O140 1.257 . S
C120 O141 1.260 . S
Eu121 C120 2.835 . S
Eu121 O140 2.473 . S
Eu121 O141 2.480 . S
Eu121 O142 2.430 . S
Eu121 O143 2.670 . S
Eu121 O144 2.394 . S
Eu121 O149 2.355 . S
Eu121 O151 2.374 . S
C122 C120 1.500 . S
C122 C123 1.377 . S
C122 C127 1.377 . S
C123 C122 1.377 . S
C123 C124 1.395 . S
C123 H152 0.931 . S
C124 C123 1.395 . S
C124 C125 1.383 . S
C124 H153 0.931 . S
C125 C124 1.383 . S
C125 C126 1.394 . S
C126 C125 1.394 . S
C126 C127 1.378 . S
C126 H154 0.931 . S
C127 C122 1.377 . S
C127 C126 1.378 . S
C127 H155 0.931 . S
C128 O142 1.259 . S
C128 O143 1.270 . S
C129 O144 1.251 . S
C129 O145 1.251 . S
C130 Eu131 2.835 . S
C130 C132 1.500 . S
C130 O146 1.257 . S
C130 O147 1.260 . S
Eu131 C130 2.835 . S
Eu131 O143 2.355 . S
Eu131 O145 2.374 . S
Eu131 O146 2.473 . S
Eu131 O147 2.480 . S
Eu131 O148 2.430 . S
Eu131 O149 2.670 . S
Eu131 O150 2.394 . S
C132 C130 1.500 . S
C132 C133 1.377 . S
C132 C137 1.377 . S
C133 C132 1.377 . S
C133 C134 1.395 . S
C133 H156 0.931 . S
C134 C133 1.395 . S
C134 C135 1.383 . S
C134 H157 0.931 . S
C135 C134 1.383 . S
C135 C136 1.394 . S
C136 C135 1.394 . S
C136 C137 1.378 . S
C136 H158 0.931 . S
C137 C132 1.377 . S
C137 C136 1.378 . S
C137 H159 0.931 . S
C138 O148 1.259 . S
C138 O149 1.270 . S
C139 O150 1.251 . S
C139 O151 1.251 . S
O140 C120 1.257 . S
O140 Eu121 2.473 . S
O141 C120 1.260 . S
O141 Eu121 2.480 . S
O142 Eu121 2.430 . S
O142 C128 1.259 . S
O143 Eu121 2.670 . S
O143 C128 1.270 . S
O143 Eu131 2.355 . S
O144 Eu121 2.394 . S
O144 C129 1.251 . S
O145 C129 1.251 . S
O145 Eu131 2.374 . S
O146 C130 1.257 . S
O146 Eu131 2.473 . S
O147 C130 1.260 . S
O147 Eu131 2.480 . S
O148 Eu131 2.430 . S
O148 C138 1.259 . S
O149 Eu121 2.355 . S
O149 Eu131 2.670 . S
O149 C138 1.270 . S
O150 Eu131 2.394 . S
O150 C139 1.251 . S
O151 Eu121 2.374 . S
O151 C139 1.251 . S
H152 C123 0.931 . S
H153 C124 0.931 . S
H154 C126 0.931 . S
H155 C127 0.931 . S
H156 C133 0.931 . S
H157 C134 0.931 . S
H158 C136 0.931 . S
H159 C137 0.931 . S
C160 Eu161 2.835 . S
C160 C162 1.500 . S
C160 O180 1.257 . S
C160 O181 1.260 . S
Eu161 C160 2.835 . S
Eu161 O180 2.473 . S
Eu161 O181 2.480 . S
Eu161 O182 2.430 . S
Eu161 O183 2.670 . S
Eu161 O184 2.394 . S
Eu161 O189 2.355 . S
Eu161 O191 2.374 . S
C162 C160 1.500 . S
C162 C163 1.377 . S
C162 C167 1.377 . S
C163 C162 1.377 . S
C163 C164 1.395 . S
C163 H192 0.931 . S
C164 C163 1.395 . S
C164 C165 1.383 . S
C164 H193 0.931 . S
C165 C164 1.383 . S
C165 C166 1.394 . S
C166 C165 1.394 . S
C166 C167 1.378 . S
C166 H194 0.931 . S
C167 C162 1.377 . S
C167 C166 1.378 . S
C167 H195 0.931 . S
C168 O182 1.259 . S
C168 O183 1.270 . S
C169 O184 1.251 . S
C169 O185 1.251 . S
C170 Eu171 2.835 . S
C170 C172 1.500 . S
C170 O186 1.257 . S
C170 O187 1.260 . S
Eu171 C170 2.835 . S
Eu171 O183 2.355 . S
Eu171 O185 2.374 . S
Eu171 O186 2.473 . S
Eu171 O187 2.480 . S
Eu171 O188 2.430 . S
Eu171 O189 2.670 . S
Eu171 O190 2.394 . S
C172 C170 1.500 . S
C172 C173 1.377 . S
C172 C177 1.377 . S
C173 C172 1.377 . S
C173 C174 1.395 1_455 S
C173 H196 0.931 . S
C174 C173 1.395 1_655 S
C174 C175 1.383 . S
C174 H197 0.931 . S
C175 C174 1.383 . S
C175 C176 1.394 1_655 S
C176 C175 1.394 1_455 S
C176 C177 1.378 . S
C176 H198 0.931 . S
C177 C172 1.377 . S
C177 C176 1.378 . S
C177 H199 0.931 . S
C178 O188 1.259 . S
C178 O189 1.270 . S
C179 O190 1.251 . S
C179 O191 1.251 . S
O180 C160 1.257 . S
O180 Eu161 2.473 . S
O181 C160 1.260 . S
O181 Eu161 2.480 . S
O182 Eu161 2.430 . S
O182 C168 1.259 . S
O183 Eu161 2.670 . S
O183 C168 1.270 . S
O183 Eu171 2.355 . S
O184 Eu161 2.394 . S
O184 C169 1.251 . S
O185 C169 1.251 . S
O185 Eu171 2.374 . S
O186 C170 1.257 . S
O186 Eu171 2.473 . S
O187 C170 1.260 . S
O187 Eu171 2.480 . S
O188 Eu171 2.430 . S
O188 C178 1.259 . S
O189 Eu161 2.355 . S
O189 Eu171 2.670 . S
O189 C178 1.270 . S
O190 Eu171 2.394 . S
O190 C179 1.251 . S
O191 Eu161 2.374 . S
O191 C179 1.251 . S
H192 C163 0.931 . S
H193 C164 0.931 . S
H194 C166 0.931 . S
H195 C167 0.931 . S
H196 C173 0.931 . S
H197 C174 0.931 . S
H198 C176 0.931 . S
H199 C177 0.931 . S
C200 Eu201 2.835 . S
C200 C202 1.500 . S
C200 O220 1.257 . S
C200 O221 1.260 . S
Eu201 C200 2.835 . S
Eu201 O220 2.473 . S
Eu201 O221 2.480 . S
Eu201 O222 2.430 . S
Eu201 O223 2.670 . S
Eu201 O224 2.394 . S
Eu201 O229 2.355 . S
Eu201 O231 2.374 . S
C202 C200 1.500 . S
C202 C203 1.377 . S
C202 C207 1.377 . S
C203 C202 1.377 . S
C203 C204 1.395 . S
C203 H232 0.931 . S
C204 C203 1.395 . S
C204 C205 1.383 . S
C204 H233 0.931 . S
C205 C204 1.383 . S
C205 C206 1.394 . S
C206 C205 1.394 . S
C206 C207 1.378 . S
C206 H234 0.931 . S
C207 C202 1.377 . S
C207 C206 1.378 . S
C207 H235 0.931 . S
C208 O222 1.259 . S
C208 O223 1.270 . S
C209 O224 1.251 . S
C209 O225 1.251 . S
C210 Eu211 2.835 . S
C210 C212 1.500 . S
C210 O226 1.257 . S
C210 O227 1.260 . S
Eu211 C210 2.835 . S
Eu211 O223 2.355 . S
Eu211 O225 2.374 . S
Eu211 O226 2.473 . S
Eu211 O227 2.480 . S
Eu211 O228 2.430 . S
Eu211 O229 2.670 . S
Eu211 O230 2.394 . S
C212 C210 1.500 . S
C212 C213 1.377 . S
C212 C217 1.377 . S
C213 C212 1.377 . S
C213 C214 1.395 1_565 S
C213 H236 0.931 . S
C214 C213 1.395 1_545 S
C214 C215 1.383 . S
C214 H237 0.931 . S
C215 C214 1.383 . S
C215 C216 1.394 1_545 S
C216 C215 1.394 1_565 S
C216 C217 1.378 . S
C216 H238 0.931 . S
C217 C212 1.377 . S
C217 C216 1.378 . S
C217 H239 0.931 . S
C218 O228 1.259 . S
C218 O229 1.270 . S
C219 O230 1.251 . S
C219 O231 1.251 . S
O220 C200 1.257 . S
O220 Eu201 2.473 . S
O221 C200 1.260 . S
O221 Eu201 2.480 . S
O222 Eu201 2.430 . S
O222 C208 1.259 . S
O223 Eu201 2.670 . S
O223 C208 1.270 . S
O223 Eu211 2.355 . S
O224 Eu201 2.394 . S
O224 C209 1.251 . S
O225 C209 1.251 . S
O225 Eu211 2.374 . S
O226 C210 1.257 . S
O226 Eu211 2.473 . S
O227 C210 1.260 . S
O227 Eu211 2.480 . S
O228 Eu211 2.430 . S
O228 C218 1.259 . S
O229 Eu201 2.355 . S
O229 Eu211 2.670 . S
O229 C218 1.270 . S
O230 Eu211 2.394 . S
O230 C219 1.251 . S
O231 Eu201 2.374 . S
O231 C219 1.251 . S
H232 C203 0.931 . S
H233 C204 0.931 . S
H234 C206 0.931 . S
H235 C207 0.931 . S
H236 C213 0.931 . S
H237 C214 0.931 . S
H238 C216 0.931 . S
H239 C217 0.931 . S
H240 C246 0.930 . S
H241 C249 0.930 . S
H242 C250 0.930 . S
H243 C251 0.930 . S
H244 C254 0.930 . S
H245 C255 0.930 . S
C246 H240 0.930 . S
C246 C247 1.355 . S
C246 C248 1.415 . S
C247 C246 1.355 . S
C247 C249 1.419 . S
C248 C246 1.415 . S
C248 C253 1.414 1_566 S
C248 C255 1.409 1_566 S
C249 H241 0.930 . S
C249 C247 1.419 . S
C249 C250 1.362 . S
C250 H242 0.930 . S
C250 C249 1.362 . S
C250 C253 1.408 1_566 S
C251 H243 0.930 . S
C251 C252 1.355 . S
C251 C253 1.426 . S
C252 C251 1.355 . S
C252 C254 1.419 . S
C253 C248 1.414 1_544 S
C253 C250 1.408 1_544 S
C253 C251 1.426 . S
C254 H244 0.930 . S
C254 C252 1.419 . S
C254 C255 1.362 . S
C255 H245 0.930 . S
C255 C248 1.409 1_544 S
C255 C254 1.362 . S
H256 C262 0.930 . S
H257 C265 0.930 . S
H258 C266 0.930 . S
H259 C267 0.930 . S
H260 C270 0.930 . S
H261 C271 0.930 . S
C262 H256 0.930 . S
C262 C263 1.355 . S
C262 C264 1.415 . S
C263 C262 1.355 . S
C263 C265 1.419 . S
C264 C262 1.415 . S
C264 C269 1.425 . S
C264 C271 1.409 . S
C265 H257 0.930 . S
C265 C263 1.419 . S
C265 C266 1.362 . S
C266 H258 0.930 . S
C266 C265 1.362 . S
C266 C269 1.409 . S
C267 H259 0.930 . S
C267 C268 1.355 . S
C267 C269 1.415 . S
C268 C267 1.355 . S
C268 C270 1.419 . S
C269 C264 1.425 . S
C269 C266 1.409 . S
C269 C267 1.415 . S
C270 H260 0.930 . S
C270 C268 1.419 . S
C270 C271 1.362 . S
C271 H261 0.930 . S
C271 C264 1.409 . S
C271 C270 1.362 . S
H272 C278 0.930 . S
H273 C281 0.930 . S
H274 C282 0.930 . S
H275 C283 0.930 . S
H276 C286 0.930 . S
H277 C287 0.930 . S
C278 H272 0.930 . S
C278 C279 1.355 . S
C278 C280 1.415 1_554 S
C279 C278 1.355 . S
C279 C281 1.419 . S
C280 C278 1.415 1_556 S
C280 C285 1.425 1_656 S
C280 C287 1.409 . S
C281 H273 0.930 . S
C281 C279 1.419 . S
C281 C282 1.362 1_655 S
C282 H274 0.930 . S
C282 C281 1.362 1_455 S
C282 C285 1.409 . S
C283 H275 0.930 . S
C283 C284 1.355 . S
C283 C285 1.415 1_556 S
C284 C283 1.355 . S
C284 C286 1.419 . S
C285 C280 1.425 1_454 S
C285 C282 1.409 . S
C285 C283 1.415 1_554 S
C286 H276 0.930 . S
C286 C284 1.419 . S
C286 C287 1.362 1_455 S
C287 H277 0.930 . S
C287 C280 1.409 . S
C287 C286 1.362 1_655 S
H288 C294 0.930 . S
H289 C297 0.930 . S
H290 C298 0.930 . S
H291 C299 0.930 . S
H292 C302 0.930 . S
H293 C303 0.930 . S
C294 H288 0.930 . S
C294 C295 1.355 . S
C294 C296 1.415 . S
C295 C294 1.355 . S
C295 C297 1.419 . S
C296 C294 1.415 . S
C296 C301 1.425 1_545 S
C296 C303 1.409 . S
C297 H289 0.930 . S
C297 C295 1.419 . S
C297 C298 1.362 1_545 S
C298 H290 0.930 . S
C298 C297 1.362 1_565 S
C298 C301 1.409 . S
C299 H291 0.930 . S
C299 C300 1.355 . S
C299 C301 1.415 . S
C300 C299 1.355 . S
C300 C302 1.419 . S
C301 C296 1.425 1_565 S
C301 C298 1.409 . S
C301 C299 1.415 . S
C302 H292 0.930 . S
C302 C300 1.419 . S
C302 C303 1.362 1_565 S
C303 H293 0.930 . S
C303 C296 1.409 . S
C303 C302 1.362 1_545 S
H304 C310 0.930 . S
H305 C313 0.930 . S
H306 C314 0.930 . S
H307 C315 0.930 . S
H308 C318 0.930 . S
H309 C319 0.930 . S
C310 H304 0.930 . S
C310 C311 1.355 . S
C310 C312 1.415 . S
C311 C310 1.355 . S
C311 C313 1.419 . S
C312 C310 1.415 . S
C312 C317 1.425 1_556 S
C312 C319 1.409 . S
C313 H305 0.930 . S
C313 C311 1.419 . S
C313 C314 1.362 1_556 S
C314 H306 0.930 . S
C314 C313 1.362 1_554 S
C314 C317 1.409 . S
C315 H307 0.930 . S
C315 C316 1.355 . S
C315 C317 1.415 . S
C316 C315 1.355 . S
C316 C318 1.419 . S
C317 C312 1.425 1_554 S
C317 C314 1.409 . S
C317 C315 1.415 . S
C318 H308 0.930 . S
C318 C316 1.419 . S
C318 C319 1.362 1_554 S
C319 H309 0.930 . S
C319 C312 1.409 . S
C319 C318 1.362 1_556 S
H320 C326 0.930 . S
H321 C329 0.930 . S
H322 C330 0.930 . S
H323 C331 0.930 . S
H324 C334 0.930 . S
H325 C335 0.930 . S
C326 H320 0.930 . S
C326 C327 1.355 . S
C326 C328 1.415 1_655 S
C327 C326 1.355 . S
C327 C329 1.419 . S
C328 C326 1.415 1_455 S
C328 C333 1.425 1_455 S
C328 C335 1.409 . S
C329 H321 0.930 . S
C329 C327 1.419 . S
C329 C330 1.362 . S
C330 H322 0.930 . S
C330 C329 1.362 . S
C330 C333 1.409 . S
C331 H323 0.930 . S
C331 C332 1.355 . S
C331 C333 1.415 1_455 S
C332 C331 1.355 . S
C332 C334 1.419 . S
C333 C328 1.425 1_655 S
C333 C330 1.409 . S
C333 C331 1.415 1_655 S
C334 H324 0.930 . S
C334 C332 1.419 . S
C334 C335 1.362 . S
C335 H325 0.930 . S
C335 C328 1.409 . S
C335 C334 1.362 . S
H336 C342 0.930 . S
H337 C345 0.930 . S
H338 C346 0.930 . S
H339 C347 0.930 . S
H340 C350 0.930 . S
H341 C351 0.930 . S
C342 H336 0.930 . S
C342 C343 1.355 . S
C342 C344 1.415 . S
C343 C342 1.355 . S
C343 C345 1.419 . S
C344 C342 1.415 . S
C344 C349 1.425 . S
C344 C351 1.409 . S
C345 H337 0.930 . S
C345 C343 1.419 . S
C345 C346 1.362 . S
C346 H338 0.930 . S
C346 C345 1.362 . S
C346 C349 1.409 . S
C347 H339 0.930 . S
C347 C348 1.355 . S
C347 C349 1.415 . S
C348 C347 1.355 . S
C348 C350 1.419 . S
C349 C344 1.425 . S
C349 C346 1.409 . S
C349 C347 1.415 . S
C350 H340 0.930 . S
C350 C348 1.419 . S
C350 C351 1.362 . S
C351 H341 0.930 . S
C351 C344 1.409 . S
C351 C350 1.362 . S
H352 C358 0.930 . S
H353 C361 0.930 . S
H354 C362 0.930 . S
H355 C363 0.930 . S
H356 C366 0.930 . S
H357 C367 0.930 . S
C358 H352 0.930 . S
C358 C359 1.355 . S
C358 C360 1.415 . S
C359 C358 1.355 . S
C359 C361 1.419 . S
C360 C358 1.415 . S
C360 C365 1.425 . S
C360 C367 1.409 . S
C361 H353 0.930 . S
C361 C359 1.419 . S
C361 C362 1.362 . S
C362 H354 0.930 . S
C362 C361 1.362 . S
C362 C365 1.409 . S
C363 H355 0.930 . S
C363 C364 1.355 . S
C363 C365 1.415 . S
C364 C363 1.355 . S
C364 C366 1.419 . S
C365 C360 1.425 . S
C365 C362 1.409 . S
C365 C363 1.415 . S
C366 H356 0.930 . S
C366 C364 1.419 . S
C366 C367 1.362 . S
C367 H357 0.930 . S
C367 C360 1.409 . S
C367 C366 1.362 . S
H368 C374 0.930 . S
H369 C377 0.930 . S
H370 C378 0.930 . S
H371 C379 0.930 . S
H372 C382 0.930 . S
H373 C383 0.930 . S
C374 H368 0.930 . S
C374 C375 1.355 . S
C374 C376 1.415 . S
C375 C374 1.355 . S
C375 C377 1.419 . S
C376 C374 1.415 . S
C376 C381 1.425 . S
C376 C383 1.409 . S
C377 H369 0.930 . S
C377 C375 1.419 . S
C377 C378 1.362 . S
C378 H370 0.930 . S
C378 C377 1.362 . S
C378 C381 1.409 . S
C379 H371 0.930 . S
C379 C380 1.355 . S
C379 C381 1.415 . S
C380 C379 1.355 . S
C380 C382 1.419 . S
C381 C376 1.425 . S
C381 C378 1.409 . S
C381 C379 1.415 . S
C382 H372 0.930 . S
C382 C380 1.419 . S
C382 C383 1.362 . S
C383 H373 0.930 . S
C383 C376 1.409 . S
C383 C382 1.362 . S
H384 C390 0.930 . S
H385 C393 0.930 . S
H386 C394 0.930 . S
H387 C395 0.930 . S
H388 C398 0.930 . S
H389 C399 0.930 . S
C390 H384 0.930 . S
C390 C391 1.355 . S
C390 C392 1.415 . S
C391 C390 1.355 . S
C391 C393 1.419 . S
C392 C390 1.415 . S
C392 C397 1.425 . S
C392 C399 1.409 . S
C393 H385 0.930 . S
C393 C391 1.419 . S
C393 C394 1.362 . S
C394 H386 0.930 . S
C394 C393 1.362 . S
C394 C397 1.409 . S
C395 H387 0.930 . S
C395 C396 1.355 . S
C395 C397 1.415 . S
C396 C395 1.355 . S
C396 C398 1.419 . S
C397 C392 1.425 . S
C397 C394 1.409 . S
C397 C395 1.415 . S
C398 H388 0.930 . S
C398 C396 1.419 . S
C398 C399 1.362 . S
C399 H389 0.930 . S
C399 C392 1.409 . S
C399 C398 1.362 . S
H400 C406 0.930 . S
H401 C409 0.930 . S
H402 C410 0.930 . S
H403 C411 0.930 . S
H404 C414 0.930 . S
H405 C415 0.930 . S
C406 H400 0.930 . S
C406 C407 1.355 . S
C406 C408 1.415 . S
C407 C406 1.355 . S
C407 C409 1.419 . S
C408 C406 1.415 . S
C408 C413 1.425 . S
C408 C415 1.409 . S
C409 H401 0.930 . S
C409 C407 1.419 . S
C409 C410 1.362 . S
C410 H402 0.930 . S
C410 C409 1.362 . S
C410 C413 1.409 . S
C411 H403 0.930 . S
C411 C412 1.355 . S
C411 C413 1.415 . S
C412 C411 1.355 . S
C412 C414 1.419 . S
C413 C408 1.425 . S
C413 C410 1.409 . S
C413 C411 1.415 . S
C414 H404 0.930 . S
C414 C412 1.419 . S
C414 C415 1.362 . S
C415 H405 0.930 . S
C415 C408 1.409 . S
C415 C414 1.362 . S
H416 C422 0.930 . S
H417 C425 0.930 . S
H418 C426 0.930 . S
H419 C427 0.930 . S
H420 C430 0.930 . S
H421 C431 0.930 . S
C422 H416 0.930 . S
C422 C423 1.355 . S
C422 C424 1.415 . S
C423 C422 1.355 . S
C423 C425 1.419 . S
C424 C422 1.415 . S
C424 C429 1.425 . S
C424 C431 1.409 . S
C425 H417 0.930 . S
C425 C423 1.419 . S
C425 C426 1.362 . S
C426 H418 0.930 . S
C426 C425 1.362 . S
C426 C429 1.409 . S
C427 H419 0.930 . S
C427 C428 1.355 . S
C427 C429 1.415 . S
C428 C427 1.355 . S
C428 C430 1.419 . S
C429 C424 1.425 . S
C429 C426 1.409 . S
C429 C427 1.415 . S
C430 H420 0.930 . S
C430 C428 1.419 . S
C430 C431 1.362 . S
C431 H421 0.930 . S
C431 C424 1.409 . S
C431 C430 1.362 . S
H432 C438 0.930 . S
H433 C441 0.930 . S
H434 C442 0.930 . S
H435 C443 0.930 . S
H436 C446 0.930 . S
H437 C447 0.930 . S
C438 H432 0.930 . S
C438 C439 1.355 . S
C438 C440 1.415 . S
C439 C438 1.355 . S
C439 C441 1.419 . S
C440 C438 1.415 . S
C440 C445 1.425 . S
C440 C447 1.409 . S
C441 H433 0.930 . S
C441 C439 1.419 . S
C441 C442 1.362 . S
C442 H434 0.930 . S
C442 C441 1.362 . S
C442 C445 1.409 . S
C443 H435 0.930 . S
C443 C444 1.355 . S
C443 C445 1.415 . S
C444 C443 1.355 . S
C444 C446 1.419 . S
C445 C440 1.425 . S
C445 C442 1.409 . S
C445 C443 1.415 . S
C446 H436 0.930 . S
C446 C444 1.419 . S
C446 C447 1.362 . S
C447 H437 0.930 . S
C447 C440 1.409 . S
C447 C446 1.362 . S
H448 C454 0.930 . S
H449 C457 0.930 . S
H450 C458 0.930 . S
H451 C459 0.930 . S
H452 C462 0.930 . S
H453 C463 0.930 . S
C454 H448 0.930 . S
C454 C455 1.355 . S
C454 C456 1.415 . S
C455 C454 1.355 . S
C455 C457 1.419 . S
C456 C454 1.415 . S
C456 C461 1.425 . S
C456 C463 1.409 . S
C457 H449 0.930 . S
C457 C455 1.419 . S
C457 C458 1.362 . S
C458 H450 0.930 . S
C458 C457 1.362 . S
C458 C461 1.409 . S
C459 H451 0.930 . S
C459 C460 1.355 . S
C459 C461 1.415 1_455 S
C460 C459 1.355 . S
C460 C462 1.419 . S
C461 C456 1.425 . S
C461 C458 1.409 . S
C461 C459 1.415 1_655 S
C462 H452 0.930 . S
C462 C460 1.419 . S
C462 C463 1.362 1_455 S
C463 H453 0.930 . S
C463 C456 1.409 . S
C463 C462 1.362 1_655 S
H464 C470 0.930 . S
H465 C473 0.930 . S
H466 C474 0.930 . S
H467 C475 0.930 . S
H468 C478 0.930 . S
H469 C479 0.930 . S
C470 H464 0.930 . S
C470 C471 1.355 . S
C470 C472 1.415 . S
C471 C470 1.355 . S
C471 C473 1.419 . S
C472 C470 1.415 . S
C472 C477 1.425 . S
C472 C479 1.409 . S
C473 H465 0.930 . S
C473 C471 1.419 . S
C473 C474 1.362 . S
C474 H466 0.930 . S
C474 C473 1.362 . S
C474 C477 1.409 . S
C475 H467 0.930 . S
C475 C476 1.355 . S
C475 C477 1.415 1_565 S
C476 C475 1.355 . S
C476 C478 1.419 . S
C477 C472 1.425 . S
C477 C474 1.409 . S
C477 C475 1.415 1_545 S
C478 H468 0.930 . S
C478 C476 1.419 . S
C478 C479 1.362 1_565 S
C479 H469 0.930 . S
C479 C472 1.409 . S
C479 C478 1.362 1_545 S
H480 C486 0.930 . S
H481 C489 0.930 1_565 S
H482 C490 0.930 . S
H483 C491 0.930 . S
H484 C494 0.930 . S
H485 C495 0.930 . S
C486 H480 0.930 . S
C486 C487 1.355 . S
C486 C488 1.415 . S
C487 C486 1.355 . S
C487 C489 1.419 . S
C488 C486 1.415 . S
C488 C493 1.425 . S
C488 C495 1.409 . S
C489 H481 0.930 1_545 S
C489 C487 1.419 . S
C489 C490 1.362 1_545 S
C490 H482 0.930 . S
C490 C489 1.362 1_565 S
C490 C493 1.409 1_565 S
C491 H483 0.930 . S
C491 C492 1.354 . S
C491 C493 1.415 1_565 S
C492 C491 1.354 . S
C492 C494 1.410 1_565 S
C493 C488 1.425 . S
C493 C490 1.409 1_545 S
C493 C491 1.415 1_545 S
C494 H484 0.930 . S
C494 C492 1.410 1_545 S
C494 C495 1.362 . S
C495 H485 0.930 . S
C495 C488 1.409 . S
C495 C494 1.362 . S
H496 C502 0.930 . S
H497 C505 0.930 . S
H498 C506 0.930 . S
H499 C507 0.930 . S
H500 C510 0.930 . S
H501 C511 0.930 . S
C502 H496 0.930 . S
C502 C503 1.355 . S
C502 C504 1.415 . S
C503 C502 1.355 . S
C503 C505 1.419 . S
C504 C502 1.415 . S
C504 C509 1.425 . S
C504 C511 1.409 . S
C505 H497 0.930 . S
C505 C503 1.419 . S
C505 C506 1.362 . S
C506 H498 0.930 . S
C506 C505 1.362 . S
C506 C509 1.409 . S
C507 H499 0.930 . S
C507 C508 1.355 . S
C507 C509 1.415 . S
C508 C507 1.355 . S
C508 C510 1.419 . S
C509 C504 1.425 . S
C509 C506 1.409 . S
C509 C507 1.415 . S
C510 H500 0.930 . S
C510 C508 1.419 . S
C510 C511 1.362 . S
C511 H501 0.930 . S
C511 C504 1.409 . S
C511 C510 1.362 . S
H512 C518 0.927 1_455 S
H513 C521 0.930 . S
H514 C522 0.930 . S
H515 C523 0.930 . S
H516 C526 0.930 . S
H517 C527 0.930 . S
C518 H512 0.927 1_655 S
C518 C519 1.358 1_655 S
C518 C520 1.414 . S
C519 C518 1.358 1_455 S
C519 C521 1.419 1_455 S
C520 C518 1.414 . S
C520 C525 1.425 . S
C520 C527 1.409 . S
C521 H513 0.930 . S
C521 C519 1.419 1_655 S
C521 C522 1.362 . S
C522 H514 0.930 . S
C522 C521 1.362 . S
C522 C525 1.409 . S
C523 H515 0.930 . S
C523 C524 1.355 . S
C523 C525 1.415 . S
C524 C523 1.355 . S
C524 C526 1.419 . S
C525 C520 1.425 . S
C525 C522 1.409 . S
C525 C523 1.415 . S
C526 H516 0.930 . S
C526 C524 1.419 . S
C526 C527 1.362 . S
C527 H517 0.930 . S
C527 C520 1.409 . S
C527 C526 1.362 . S
C247 C168 2.242 . S
C252 C18 2.599 . S
C263 C218 2.592 . S
C268 C48 2.161 . S
C279 C98 2.581 . S
C284 C128 2.168 . S
C295 C8 2.160 . S
C300 C178 2.588 . S
C311 C208 2.234 . S
C316 C58 2.598 . S
C327 C88 2.248 . S
C332 C138 2.614 . S
C343 C19 2.005 . S
C348 C95 1.931 . S
C359 C59 2.003 . S
C364 C15 1.929 . S
C375 C99 1.989 . S
C380 C55 1.928 . S
C391 C125 1.873 . S
C396 C169 1.858 . S
C407 C165 1.894 . S
C412 C209 1.879 . S
C423 C129 1.885 . S
C428 C205 1.905 . S
C439 C9 1.111 . S
C444 C85 1.157 . S
C455 C49 1.156 . S
C460 C5 1.206 . S
C471 C89 1.108 . S
C476 C45 1.143 . S
C487 C135 1.309 . S
C492 C179 1.360 . S
C503 C175 1.295 . S
C508 C219 1.346 . S
C519 C139 1.342 . S
C524 C215 1.287 . S
