# Generated by pormake.
# Topology vbm, (6)-cn, num edge types: 1
# Building blocks:
#     Node 0, Type 0, BuildingBlock: VOLQOD_clean_sbu_1, # of connection points: 6
#     Node 1, Type 0, BuildingBlock: VOLQOD_clean_sbu_1, # of connection points: 6
#     Node 2, Type 0, BuildingBlock: VOLQOD_clean_sbu_1, # of connection points: 6
#     Node 3, Type 0, BuildingBlock: VOLQOD_clean_sbu_1, # of connection points: 6
#     Node 4, Type 0, BuildingBlock: VOLQOD_clean_sbu_1, # of connection points: 6
#     Node 5, Type 0, BuildingBlock: VOLQOD_clean_sbu_1, # of connection points: 6
#     Node 6, Type 0, BuildingBlock: VOLQOD_clean_sbu_1, # of connection points: 6
#     Node 7, Type 0, BuildingBlock: VOLQOD_clean_sbu_1, # of connection points: 6
#     Node 8, Type 0, BuildingBlock: VOLQOD_clean_sbu_1, # of connection points: 6
#     Node 9, Type 0, BuildingBlock: VOLQOD_clean_sbu_1, # of connection points: 6
#     Node 10, Type 0, BuildingBlock: VOLQOD_clean_sbu_1, # of connection points: 6
#     Node 11, Type 0, BuildingBlock: VOLQOD_clean_sbu_1, # of connection points: 6
#     Node 12, Type 0, BuildingBlock: VOLQOD_clean_sbu_1, # of connection points: 6
#     Node 13, Type 0, BuildingBlock: VOLQOD_clean_sbu_1, # of connection points: 6
#     Node 14, Type 0, BuildingBlock: VOLQOD_clean_sbu_1, # of connection points: 6
#     Node 15, Type 0, BuildingBlock: VOLQOD_clean_sbu_1, # of connection points: 6
#     Edge 16, Type (0, 0), BuildingBlock: UVAHIK_clean_linker_0, # of connection points: 2
#     Edge 17, Type (0, 0), BuildingBlock: UVAHIK_clean_linker_0, # of connection points: 2
#     Edge 18, Type (0, 0), BuildingBlock: UVAHIK_clean_linker_0, # of connection points: 2
#     Edge 19, Type (0, 0), BuildingBlock: UVAHIK_clean_linker_0, # of connection points: 2
#     Edge 20, Type (0, 0), BuildingBlock: UVAHIK_clean_linker_0, # of connection points: 2
#     Edge 21, Type (0, 0), BuildingBlock: UVAHIK_clean_linker_0, # of connection points: 2
#     Edge 22, Type (0, 0), BuildingBlock: UVAHIK_clean_linker_0, # of connection points: 2
#     Edge 23, Type (0, 0), BuildingBlock: UVAHIK_clean_linker_0, # of connection points: 2
#     Edge 24, Type (0, 0), BuildingBlock: UVAHIK_clean_linker_0, # of connection points: 2
#     Edge 25, Type (0, 0), BuildingBlock: UVAHIK_clean_linker_0, # of connection points: 2
#     Edge 26, Type (0, 0), BuildingBlock: UVAHIK_clean_linker_0, # of connection points: 2
#     Edge 27, Type (0, 0), BuildingBlock: UVAHIK_clean_linker_0, # of connection points: 2
#     Edge 28, Type (0, 0), BuildingBlock: UVAHIK_clean_linker_0, # of connection points: 2
#     Edge 29, Type (0, 0), BuildingBlock: UVAHIK_clean_linker_0, # of connection points: 2
#     Edge 30, Type (0, 0), BuildingBlock: UVAHIK_clean_linker_0, # of connection points: 2
#     Edge 31, Type (0, 0), BuildingBlock: UVAHIK_clean_linker_0, # of connection points: 2
#     Edge 32, Type (0, 0), BuildingBlock: UVAHIK_clean_linker_0, # of connection points: 2
#     Edge 33, Type (0, 0), BuildingBlock: UVAHIK_clean_linker_0, # of connection points: 2
#     Edge 34, Type (0, 0), BuildingBlock: UVAHIK_clean_linker_0, # of connection points: 2
#     Edge 35, Type (0, 0), BuildingBlock: UVAHIK_clean_linker_0, # of connection points: 2
#     Edge 36, Type (0, 0), BuildingBlock: UVAHIK_clean_linker_0, # of connection points: 2
#     Edge 37, Type (0, 0), BuildingBlock: UVAHIK_clean_linker_0, # of connection points: 2
#     Edge 38, Type (0, 0), BuildingBlock: UVAHIK_clean_linker_0, # of connection points: 2
#     Edge 39, Type (0, 0), BuildingBlock: UVAHIK_clean_linker_0, # of connection points: 2
#     Edge 40, Type (0, 0), BuildingBlock: UVAHIK_clean_linker_0, # of connection points: 2
#     Edge 41, Type (0, 0), BuildingBlock: UVAHIK_clean_linker_0, # of connection points: 2
#     Edge 42, Type (0, 0), BuildingBlock: UVAHIK_clean_linker_0, # of connection points: 2
#     Edge 43, Type (0, 0), BuildingBlock: UVAHIK_clean_linker_0, # of connection points: 2
#     Edge 44, Type (0, 0), BuildingBlock: UVAHIK_clean_linker_0, # of connection points: 2
#     Edge 45, Type (0, 0), BuildingBlock: UVAHIK_clean_linker_0, # of connection points: 2
#     Edge 46, Type (0, 0), BuildingBlock: UVAHIK_clean_linker_0, # of connection points: 2
#     Edge 47, Type (0, 0), BuildingBlock: UVAHIK_clean_linker_0, # of connection points: 2
#     Edge 48, Type (0, 0), BuildingBlock: UVAHIK_clean_linker_0, # of connection points: 2
#     Edge 49, Type (0, 0), BuildingBlock: UVAHIK_clean_linker_0, # of connection points: 2
#     Edge 50, Type (0, 0), BuildingBlock: UVAHIK_clean_linker_0, # of connection points: 2
#     Edge 51, Type (0, 0), BuildingBlock: UVAHIK_clean_linker_0, # of connection points: 2
#     Edge 52, Type (0, 0), BuildingBlock: UVAHIK_clean_linker_0, # of connection points: 2
#     Edge 53, Type (0, 0), BuildingBlock: UVAHIK_clean_linker_0, # of connection points: 2
#     Edge 54, Type (0, 0), BuildingBlock: UVAHIK_clean_linker_0, # of connection points: 2
#     Edge 55, Type (0, 0), BuildingBlock: UVAHIK_clean_linker_0, # of connection points: 2
#     Edge 56, Type (0, 0), BuildingBlock: UVAHIK_clean_linker_0, # of connection points: 2
#     Edge 57, Type (0, 0), BuildingBlock: UVAHIK_clean_linker_0, # of connection points: 2
#     Edge 58, Type (0, 0), BuildingBlock: UVAHIK_clean_linker_0, # of connection points: 2
#     Edge 59, Type (0, 0), BuildingBlock: UVAHIK_clean_linker_0, # of connection points: 2
#     Edge 60, Type (0, 0), BuildingBlock: UVAHIK_clean_linker_0, # of connection points: 2
#     Edge 61, Type (0, 0), BuildingBlock: UVAHIK_clean_linker_0, # of connection points: 2
#     Edge 62, Type (0, 0), BuildingBlock: UVAHIK_clean_linker_0, # of connection points: 2
#     Edge 63, Type (0, 0), BuildingBlock: UVAHIK_clean_linker_0, # of connection points: 2
# Relax obj value: 0.097
# Max RMSD: 0.118
# Mean RMSD: 0.118
data_MOF--net-vbm--node1-VOLQOD_clean_sbu_1--edge1-UVAHIK_clean_linker_0
_symmetry_space_group_name_H-M    P1
_symmetry_Int_Tables_number       1
_symmetry_cell_setting            triclinic
loop_
_symmetry_equiv_pos_as_xyz
'x, y, z'
_cell_length_a     81.332205
_cell_length_b     21.053085
_cell_length_c     85.164759
_cell_angle_alpha  89.906959
_cell_angle_beta   90.010349
_cell_angle_gamma 90.015888
loop_
_atom_site_label
_atom_site_type_symbol
_atom_site_fract_x
_atom_site_fract_y
_atom_site_fract_z
_atom_type_partial_charge
O0 O 0.11423 0.12637 0.09967 0.0
Zn1 Zn 0.11284 0.03151 0.10025 0.0
O2 O 0.12785 -0.0037 0.11547 0.0
Zn3 Zn 0.14597 0.95433 0.10465 0.0
Zn4 Zn 0.13563 0.06488 0.1283 0.0
Zn5 Zn 0.11635 0.93787 0.12889 0.0
O6 O 0.14718 0.86215 0.11081 0.0
O7 O 0.12405 0.8505 0.12455 0.0
O8 O 0.1174 -0.00156 0.07894 0.0
O9 O 0.14172 0.95173 0.08138 0.0
O10 O 0.16735 0.00153 0.10807 0.0
O11 O 0.15882 0.08246 0.12274 0.0
O12 O 0.13448 0.04588 0.15135 0.0
O13 O 0.08974 0.00973 0.10574 0.0
O14 O 0.12085 0.95478 0.1514 0.0
O15 O 0.09197 0.94419 0.12607 0.0
C16 C 0.1172 0.16421 0.11094 0.0
C17 C 0.13676 0.82741 0.11798 0.0
C18 C 0.17001 0.05411 0.11504 0.0
C19 C 0.12952 0.96889 0.07302 0.0
C20 C 0.12808 -0.00062 0.15867 0.0
C21 C 0.08326 0.9751 0.11629 0.0
O22 O 0.1235 0.14501 0.12376 0.0
O23 O 0.88195 0.82794 0.09992 0.0
Zn24 Zn 0.88088 0.92379 0.10088 0.0
O25 O 0.86461 0.95395 0.11576 0.0
Zn26 Zn 0.84691 -0.00142 0.10479 0.0
Zn27 Zn 0.85626 0.88141 0.12685 0.0
Zn28 Zn 0.87454 0.00973 0.13103 0.0
O29 O 0.84653 0.09146 0.11052 0.0
O30 O 0.86757 0.09888 0.12708 0.0
O31 O 0.87602 0.9556 0.07942 0.0
O32 O 0.8513 -0.00063 0.08159 0.0
O33 O 0.82497 0.95516 0.10818 0.0
O34 O 0.83318 0.86714 0.12043 0.0
O35 O 0.85669 0.89186 0.15012 0.0
O36 O 0.90314 0.95471 0.10707 0.0
O37 O 0.86822 0.9866 0.15296 0.0
O38 O 0.89908 0.00665 0.12946 0.0
C39 C 0.87728 0.78725 0.11003 0.0
C40 C 0.85618 0.12445 0.11901 0.0
C41 C 0.82209 0.90005 0.11376 0.0
C42 C 0.86365 0.98314 0.07334 0.0
C43 C 0.86155 0.93723 0.15876 0.0
C44 C 0.90859 0.98504 0.11889 0.0
O45 O 0.86844 0.80275 0.12169 0.0
O46 O 0.1149 0.85421 0.3878 0.0
Zn47 Zn 0.11478 0.95003 0.38694 0.0
O48 O 0.12822 0.98074 0.36976 0.0
Zn49 Zn 0.14802 0.02241 0.37773 0.0
Zn50 Zn 0.13413 0.90995 0.35687 0.0
Zn51 Zn 0.11552 0.03822 0.35702 0.0
O52 O 0.14718 0.11671 0.37315 0.0
O53 O 0.12305 0.12631 0.36101 0.0
O54 O 0.12336 0.9826 0.40727 0.0
O55 O 0.14842 0.01757 0.40129 0.0
O56 O 0.16888 0.97952 0.36991 0.0
O57 O 0.15797 0.89315 0.35912 0.0
O58 O 0.13038 0.92677 0.3341 0.0
O59 O 0.09124 0.97722 0.38444 0.0
O60 O 0.1183 0.02108 0.33413 0.0
O61 O 0.09155 0.03203 0.36213 0.0
C62 C 0.117 0.8143 0.37676 0.0
C63 C 0.13589 0.15076 0.36705 0.0
C64 C 0.1704 0.9248 0.36366 0.0
C65 C 0.13727 0.00496 0.41129 0.0
C66 C 0.12429 0.97392 0.32681 0.0
C67 C 0.08381 0.00781 0.37366 0.0
O68 O 0.12263 0.83089 0.36345 0.0
O69 O 0.87521 0.18009 0.37359 0.0
Zn70 Zn 0.87617 0.08856 0.37949 0.0
O71 O 0.863 0.03858 0.36518 0.0
Zn72 Zn 0.84376 0.00392 0.37583 0.0
Zn73 Zn 0.85595 0.09052 0.34789 0.0
Zn74 Zn 0.87633 0.97052 0.35706 0.0
O75 O 0.84325 0.90917 0.37402 0.0
O76 O 0.86914 0.88973 0.36692 0.0
O77 O 0.86784 0.07977 0.40139 0.0
O78 O 0.84525 0.0211 0.39893 0.0
O79 O 0.82257 0.04173 0.36775 0.0
O80 O 0.83162 0.10011 0.34788 0.0
O81 O 0.86206 0.05311 0.3274 0.0
O82 O 0.89987 0.06237 0.3791 0.0
O83 O 0.87372 0.96126 0.33367 0.0
O84 O 0.90025 0.98392 0.36171 0.0
C85 C 0.8708 0.20835 0.36107 0.0
C86 C 0.85524 0.87124 0.37201 0.0
C87 C 0.81991 0.07947 0.35633 0.0
C88 C 0.85547 0.05167 0.40734 0.0
C89 C 0.86832 0.0002 0.32345 0.0
C90 C 0.90765 0.02121 0.37109 0.0
O91 O 0.86435 0.17852 0.34967 0.0
O92 O 0.88071 0.84768 0.84977 0.0
Zn93 Zn 0.87886 0.94211 0.84731 0.0
O94 O 0.86503 0.978 0.86359 0.0
Zn95 Zn 0.84513 0.01528 0.85432 0.0
Zn96 Zn 0.85924 0.91208 0.8783 0.0
Zn97 Zn 0.87742 0.04088 0.87498 0.0
O98 O 0.84489 0.11078 0.85725 0.0
O99 O 0.86831 0.12573 0.87032 0.0
O100 O 0.8691 0.95641 0.82622 0.0
O101 O 0.84478 8e-05 0.83103 0.0
O102 O 0.8245 0.97269 0.8627 0.0
O103 O 0.83544 0.89364 0.87648 0.0
O104 O 0.86314 0.93715 0.90057 0.0
O105 O 0.90174 0.97765 0.84798 0.0
O106 O 0.87556 0.03024 0.89817 0.0
O107 O 0.90129 0.03943 0.8691 0.0
C108 C 0.87769 0.81081 0.86126 0.0
C109 C 0.85544 0.14712 0.86371 0.0
C110 C 0.82301 0.92153 0.87062 0.0
C111 C 0.85531 0.97752 0.8215 0.0
C112 C 0.86955 0.98635 0.90666 0.0
C113 C 0.90898 0.01381 0.85774 0.0
O114 O 0.87067 0.83067 0.87364 0.0
O115 O 0.11961 0.14908 0.84905 0.0
Zn116 Zn 0.11735 0.05498 0.84794 0.0
O117 O 0.12908 0.01786 0.86522 0.0
Zn118 Zn 0.14939 0.97907 0.85794 0.0
Zn119 Zn 0.13364 0.08169 0.88056 0.0
Zn120 Zn 0.11518 0.95599 0.87475 0.0
O121 O 0.14855 0.88428 0.86109 0.0
O122 O 0.12213 0.87152 0.86722 0.0
O123 O 0.12675 0.02594 0.8276 0.0
O124 O 0.15127 0.9886 0.83457 0.0
O125 O 0.16949 0.02089 0.86738 0.0
O126 O 0.15766 0.09845 0.8809 0.0
O127 O 0.12762 0.05355 0.90227 0.0
O128 O 0.09327 0.03483 0.84873 0.0
O129 O 0.11754 0.95718 0.89803 0.0
O130 O 0.09148 0.97068 0.86937 0.0
C131 C 0.12089 0.18601 0.8608 0.0
C132 C 0.13598 0.84892 0.86309 0.0
C133 C 0.17046 0.07101 0.87571 0.0
C134 C 0.14083 0.00381 0.82409 0.0
C135 C 0.12218 0.00068 0.90737 0.0
C136 C 0.08477 0.00216 0.85833 0.0
O137 O 0.12371 0.16476 0.87455 0.0
O138 O 0.87638 0.13535 0.63583 0.0
Zn139 Zn 0.87675 0.03947 0.63445 0.0
O140 O 0.86414 0.00962 0.61666 0.0
Zn141 Zn 0.84407 0.96821 0.62384 0.0
Zn142 Zn 0.85935 0.08139 0.6036 0.0
Zn143 Zn 0.87691 0.95172 0.60418 0.0
O144 O 0.84461 0.87394 0.61904 0.0
O145 O 0.86941 0.86364 0.6083 0.0
O146 O 0.86759 0.00511 0.65448 0.0
O147 O 0.84281 0.97124 0.64732 0.0
O148 O 0.82387 0.01395 0.6158 0.0
O149 O 0.83537 0.09779 0.60432 0.0
O150 O 0.86499 0.06708 0.58117 0.0
O151 O 0.90034 0.01344 0.63219 0.0
O152 O 0.87427 0.96806 0.58111 0.0
O153 O 0.90076 0.95927 0.60978 0.0
C154 C 0.8749 0.17602 0.62485 0.0
C155 C 0.85621 0.8395 0.61366 0.0
C156 C 0.8227 0.06765 0.60891 0.0
C157 C 0.85347 0.98291 0.65785 0.0
C158 C 0.87002 0.01828 0.57386 0.0
C159 C 0.90813 0.9837 0.62151 0.0
O160 O 0.87018 0.16019 0.61118 0.0
O161 O 0.1126 0.83639 0.63302 0.0
Zn162 Zn 0.11453 0.93109 0.63484 0.0
O163 O 0.12846 0.96468 0.61848 0.0
Zn164 Zn 0.14759 0.00765 0.62725 0.0
Zn165 Zn 0.1358 0.89616 0.60565 0.0
Zn166 Zn 0.11593 0.02065 0.60533 0.0
O167 O 0.14617 0.1021 0.62336 0.0
O168 O 0.12287 0.10898 0.60969 0.0
O169 O 0.12399 0.94906 0.65594 0.0
O170 O 0.14776 -0.0036 0.65062 0.0
O171 O 0.16895 0.9678 0.61981 0.0
O172 O 0.15881 0.87619 0.61115 0.0
O173 O 0.1359 0.91943 0.58295 0.0
O174 O 0.09161 0.96547 0.63311 0.0
O175 O 0.12041 0.00604 0.58256 0.0
O176 O 0.09182 0.01335 0.60982 0.0
C177 C 0.11538 0.79891 0.62162 0.0
C178 C 0.13509 0.13474 0.61649 0.0
C179 C 0.17087 0.91041 0.61541 0.0
C180 C 0.13754 0.97337 0.66039 0.0
C181 C 0.12907 0.96466 0.57552 0.0
C182 C 0.08417 -0.00652 0.62191 0.0
O183 O 0.12281 0.81738 0.6093 0.0
O184 O 0.61632 0.63464 0.10101 0.0
Zn185 Zn 0.61526 0.53929 0.10228 0.0
O186 O 0.62897 0.50712 0.11908 0.0
Zn187 Zn 0.64839 0.46701 0.10999 0.0
Zn188 Zn 0.63476 0.57675 0.1326 0.0
Zn189 Zn 0.61677 0.44721 0.13156 0.0
O190 O 0.64853 0.37287 0.11465 0.0
O191 O 0.62503 0.36009 0.12766 0.0
O192 O 0.62229 0.50473 0.08168 0.0
O193 O 0.64776 0.47155 0.08636 0.0
O194 O 0.66908 0.51148 0.11711 0.0
O195 O 0.65891 0.58953 0.13173 0.0
O196 O 0.62842 0.56306 0.15505 0.0
O197 O 0.59178 0.51585 0.10578 0.0
O198 O 0.61837 0.46532 0.15446 0.0
O199 O 0.59284 0.45162 0.12647 0.0
C200 C 0.61924 0.67465 0.11184 0.0
C201 C 0.63785 0.33737 0.12122 0.0
C202 C 0.67104 0.56122 0.12543 0.0
C203 C 0.63597 0.48283 0.07694 0.0
C204 C 0.62249 0.51482 0.16202 0.0
C205 C 0.58473 0.48097 0.11595 0.0
O206 O 0.62489 0.65773 0.12512 0.0
O207 O 0.38176 0.31624 0.10292 0.0
Zn208 Zn 0.38095 0.41181 0.10268 0.0
O209 O 0.36541 0.44533 0.11784 0.0
Zn210 Zn 0.34699 0.48588 0.1068 0.0
Zn211 Zn 0.35803 0.3758 0.13076 0.0
Zn212 Zn 0.3761 0.50539 0.13157 0.0
O213 O 0.34566 0.57942 0.11201 0.0
O214 O 0.36742 0.5918 0.12755 0.0
O215 O 0.37519 0.4387 0.08106 0.0
O216 O 0.35074 0.48426 0.08341 0.0
O217 O 0.32569 0.4388 0.111 0.0
O218 O 0.33462 0.35947 0.12605 0.0
O219 O 0.36034 0.3915 0.15381 0.0
O220 O 0.4035 0.44406 0.10716 0.0
O221 O 0.37232 0.48597 0.15422 0.0
O222 O 0.40041 0.50633 0.12801 0.0
C223 C 0.37762 0.27749 0.11368 0.0
C224 C 0.35527 0.61456 0.12002 0.0
C225 C 0.32321 0.38705 0.11844 0.0
C226 C 0.36275 0.46577 0.07501 0.0
C227 C 0.36617 0.43845 0.16132 0.0
C228 C 0.40943 0.48042 0.11764 0.0
O229 O 0.36967 0.2955 0.12571 0.0
O230 O 0.61546 0.31209 0.37883 0.0
Zn231 Zn 0.61417 0.40396 0.38435 0.0
O232 O 0.62615 0.45514 0.36921 0.0
Zn233 Zn 0.64627 0.48804 0.37861 0.0
Zn234 Zn 0.63201 0.40394 0.35135 0.0
Zn235 Zn 0.61217 0.52399 0.36223 0.0
O236 O 0.6469 0.58267 0.37743 0.0
O237 O 0.62137 0.60568 0.36983 0.0
O238 O 0.6241 0.41284 0.40562 0.0
O239 O 0.64715 0.46688 0.40153 0.0
O240 O 0.66649 0.45218 0.36849 0.0
O241 O 0.65634 0.4009 0.34796 0.0
O242 O 0.62121 0.4344 0.33192 0.0
O243 O 0.59045 0.42911 0.38576 0.0
O244 O 0.61026 0.52723 0.33859 0.0
O245 O 0.58929 0.51511 0.37073 0.0
C246 C 0.6204 0.28374 0.36654 0.0
C247 C 0.63545 0.62238 0.37484 0.0
C248 C 0.66853 0.41937 0.35611 0.0
C249 C 0.63733 0.43775 0.41066 0.0
C250 C 0.61364 0.4852 0.32836 0.0
C251 C 0.58241 0.47504 0.37981 0.0
O252 O 0.62622 0.314 0.3549 0.0
O253 O 0.37465 0.66897 0.38163 0.0
Zn254 Zn 0.37541 0.57523 0.38568 0.0
O255 O 0.36407 0.52977 0.36928 0.0
Zn256 Zn 0.34348 0.49417 0.3768 0.0
Zn257 Zn 0.35978 0.58788 0.35256 0.0
Zn258 Zn 0.37761 0.46204 0.3616 0.0
O259 O 0.34176 0.40136 0.37174 0.0
O260 O 0.36851 0.38044 0.3694 0.0
O261 O 0.36503 0.55617 0.4064 0.0
O262 O 0.34321 0.49733 0.40033 0.0
O263 O 0.32395 0.54339 0.36869 0.0
O264 O 0.33597 0.61001 0.35204 0.0
O265 O 0.36614 0.55191 0.33197 0.0
O266 O 0.39916 0.54925 0.38664 0.0
O267 O 0.37757 0.45913 0.3379 0.0
O268 O 0.40079 0.47096 0.36927 0.0
C269 C 0.37403 0.6988 0.36863 0.0
C270 C 0.35373 0.36251 0.37145 0.0
C271 C 0.3232 0.58935 0.35897 0.0
C272 C 0.35247 0.52388 0.41041 0.0
C273 C 0.3728 0.49996 0.32783 0.0
C274 C 0.40747 0.50735 0.37935 0.0
O275 O 0.3709 0.67033 0.35583 0.0
O276 O 0.37469 0.35502 0.84655 0.0
Zn277 Zn 0.37565 0.4506 0.84724 0.0
O278 O 0.36276 0.48266 0.86454 0.0
Zn279 Zn 0.34263 0.52258 0.85683 0.0
Zn280 Zn 0.35784 0.41249 0.87806 0.0
Zn281 Zn 0.37558 0.54169 0.87655 0.0
O282 O 0.34261 0.61659 0.86197 0.0
O283 O 0.36761 0.62876 0.87227 0.0
O284 O 0.36712 0.4844 0.82695 0.0
O285 O 0.34233 0.52097 0.83323 0.0
O286 O 0.32229 0.47503 0.86435 0.0
O287 O 0.33417 0.39241 0.87605 0.0
O288 O 0.36177 0.43198 0.90072 0.0
O289 O 0.39939 0.47496 0.84965 0.0
O290 O 0.37307 0.52759 0.8996 0.0
O291 O 0.39949 0.53459 0.87116 0.0
C292 C 0.37379 0.31602 0.85796 0.0
C293 C 0.35414 0.65178 0.86722 0.0
C294 C 0.32142 0.42084 0.87104 0.0
C295 C 0.35332 0.50826 0.82308 0.0
C296 C 0.36753 0.48097 0.90748 0.0
C297 C 0.40704 0.50722 0.85996 0.0
O298 O 0.36971 0.33392 0.87167 0.0
O299 O 0.61446 0.65336 0.85172 0.0
Zn300 Zn 0.61447 0.55779 0.85158 0.0
O301 O 0.62761 0.52508 0.86865 0.0
Zn302 Zn 0.64729 0.48282 0.86078 0.0
Zn303 Zn 0.63392 0.59489 0.88159 0.0
Zn304 Zn 0.61458 0.46883 0.88137 0.0
O305 O 0.64674 0.38942 0.86627 0.0
O306 O 0.62209 0.38065 0.87752 0.0
O307 O 0.62322 0.52804 0.83102 0.0
O308 O 0.64724 0.48441 0.83726 0.0
O309 O 0.66818 0.52851 0.86738 0.0
O310 O 0.65719 0.61633 0.87731 0.0
O311 O 0.63262 0.57343 0.90438 0.0
O312 O 0.591 0.52986 0.85365 0.0
O313 O 0.61792 0.48472 0.90428 0.0
O314 O 0.59058 0.47565 0.87607 0.0
C315 C 0.61578 0.69127 0.86328 0.0
C316 C 0.6352 0.35588 0.87214 0.0
C317 C 0.66958 0.5851 0.87255 0.0
C318 C 0.63665 0.50149 0.82711 0.0
C319 C 0.62575 0.52771 0.91161 0.0
C320 C 0.58322 0.49961 0.86426 0.0
O321 O 0.62099 0.67264 0.8766 0.0
O322 O 0.37973 0.66098 0.62694 0.0
Zn323 Zn 0.37918 0.56736 0.63135 0.0
O324 O 0.36519 0.52416 0.61637 0.0
Zn325 Zn 0.34566 0.49011 0.62663 0.0
Zn326 Zn 0.35892 0.5824 0.60021 0.0
Zn327 Zn 0.37737 0.45676 0.60655 0.0
O328 O 0.3456 0.39457 0.626 0.0
O329 O 0.37062 0.3755 0.61639 0.0
O330 O 0.37049 0.55737 0.65314 0.0
O331 O 0.34596 0.51337 0.64946 0.0
O332 O 0.3248 0.52723 0.61775 0.0
O333 O 0.33486 0.5974 0.60085 0.0
O334 O 0.36407 0.54988 0.57905 0.0
O335 O 0.4024 0.53628 0.62996 0.0
O336 O 0.37312 0.45186 0.58317 0.0
O337 O 0.40156 0.46819 0.61005 0.0
C338 C 0.37575 0.69301 0.61485 0.0
C339 C 0.35739 0.35691 0.62289 0.0
C340 C 0.32275 0.57222 0.60793 0.0
C341 C 0.35675 0.53783 0.65843 0.0
C342 C 0.36867 0.49615 0.57391 0.0
C343 C 0.40957 0.49938 0.62031 0.0
O344 O 0.36883 0.66709 0.60313 0.0
O345 O 0.61222 0.33973 0.63391 0.0
Zn346 Zn 0.61467 0.43482 0.63514 0.0
O347 O 0.6299 0.46635 0.61957 0.0
Zn348 Zn 0.64818 0.51087 0.62944 0.0
Zn349 Zn 0.6384 0.39578 0.60825 0.0
Zn350 Zn 0.61858 0.52043 0.60484 0.0
O351 O 0.64649 0.60503 0.62525 0.0
O352 O 0.62495 0.60989 0.60913 0.0
O353 O 0.62254 0.45449 0.65669 0.0
O354 O 0.64679 0.50036 0.65281 0.0
O355 O 0.67023 0.47258 0.62344 0.0
O356 O 0.6611 0.37862 0.6153 0.0
O357 O 0.63959 0.41342 0.58539 0.0
O358 O 0.5923 0.47135 0.63162 0.0
O359 O 0.62488 0.50129 0.58253 0.0
O360 O 0.59406 0.51381 0.60773 0.0
C361 C 0.61638 0.30062 0.62326 0.0
C362 C 0.63615 0.63679 0.61716 0.0
C363 C 0.67271 0.41462 0.61981 0.0
C364 C 0.63579 0.47847 0.66195 0.0
C365 C 0.63364 0.457 0.57677 0.0
C366 C 0.58566 0.49725 0.61968 0.0
O367 O 0.62544 0.3172 0.61182 0.0
C368 C 0.20051 0.05109 0.11096 0.0
C369 C 0.18603 0.08582 0.11353 0.0
C370 C 0.21564 0.08247 0.11012 0.0
C371 C 0.2349 0.23475 0.10166 0.0
H372 H 0.26782 0.18545 0.13223 0.0
C373 C 0.29274 0.38697 0.11372 0.0
C374 C 0.3073 0.35417 0.11722 0.0
C375 C 0.27786 0.35394 0.11252 0.0
C376 C 0.25892 0.19922 0.12341 0.0
H377 H 0.17584 0.18039 0.11652 0.0
H378 H 0.20217 0.23485 0.11473 0.0
H379 H 0.24242 0.12499 0.13026 0.0
H380 H 0.3179 0.2611 0.12155 0.0
H381 H 0.29233 0.20379 0.11886 0.0
H382 H 0.25145 0.30831 0.09455 0.0
C383 C 0.20185 0.18362 0.11355 0.0
C384 C 0.24439 0.16455 0.12233 0.0
C385 C 0.18684 0.15234 0.11472 0.0
C386 C 0.30681 0.28795 0.11917 0.0
C387 C 0.2921 0.25501 0.11769 0.0
C388 C 0.24959 0.26888 0.10253 0.0
C389 C 0.21636 0.14893 0.11144 0.0
C390 C 0.23224 0.18234 0.11154 0.0
C391 C 0.2774 0.28751 0.11453 0.0
C392 C 0.26174 0.25168 0.11349 0.0
H393 H 0.20018 -0.00019 0.10998 0.0
H394 H 0.22676 0.05499 0.10847 0.0
H395 H 0.22562 0.24916 0.09325 0.0
H396 H 0.29282 0.43804 0.11214 0.0
H397 H 0.26672 0.38055 0.11025 0.0
C398 C 0.79142 0.9069 0.11476 0.0
C399 C 0.80576 0.87139 0.11221 0.0
C400 C 0.77616 0.87632 0.11526 0.0
C401 C 0.75405 0.73329 0.10353 0.0
H402 H 0.73109 0.74768 0.14327 0.0
C403 C 0.70112 0.56445 0.11906 0.0
C404 C 0.68731 0.59205 0.12622 0.0
C405 C 0.71577 0.59865 0.11776 0.0
C406 C 0.7372 0.74376 0.13201 0.0
H407 H 0.81554 0.77777 0.10721 0.0
H408 H 0.78889 0.72494 0.10763 0.0
H409 H 0.75518 0.81363 0.13825 0.0
H410 H 0.67831 0.67603 0.13831 0.0
H411 H 0.70353 0.73574 0.13563 0.0
H412 H 0.73605 0.66425 0.0971 0.0
C413 C 0.78941 0.77584 0.10944 0.0
C414 C 0.75093 0.78166 0.12916 0.0
C415 C 0.80461 0.80596 0.10929 0.0
C416 C 0.6887 0.65317 0.13272 0.0
C417 C 0.70324 0.68751 0.13125 0.0
C418 C 0.74017 0.69605 0.10628 0.0
C419 C 0.77513 0.81044 0.11281 0.0
C420 C 0.75954 0.77618 0.11497 0.0
C421 C 0.71682 0.66125 0.12345 0.0
C422 C 0.73169 0.70035 0.12062 0.0
H423 H 0.79211 0.9574 0.11708 0.0
H424 H 0.76522 0.90372 0.11786 0.0
H425 H 0.76057 0.72843 0.0925 0.0
H426 H 0.70047 0.51728 0.11404 0.0
H427 H 0.72616 0.57649 0.11201 0.0
C428 C 0.30778 0.68712 0.35147 0.0
C429 C 0.30757 0.62374 0.35674 0.0
C430 C 0.29329 0.72231 0.35074 0.0
C431 C 0.24919 0.71132 0.34679 0.0
H432 H 0.24719 0.86587 0.37149 0.0
C433 C 0.18777 0.82857 0.36098 0.0
C434 C 0.18672 0.895 0.36205 0.0
C435 C 0.20292 0.7988 0.35928 0.0
C436 C 0.24761 0.82363 0.36427 0.0
H437 H 0.29197 0.54687 0.36484 0.0
H438 H 0.26643 0.60826 0.36307 0.0
H439 H 0.27293 0.80655 0.36986 0.0
H440 H 0.20072 0.98254 0.3622 0.0
H441 H 0.22738 0.93043 0.35866 0.0
H442 H 0.2241 0.72848 0.34084 0.0
C443 C 0.27792 0.63052 0.35971 0.0
C444 C 0.26231 0.78955 0.36343 0.0
C445 C 0.29248 0.59558 0.36075 0.0
C446 C 0.2012 0.93123 0.36144 0.0
C447 C 0.21645 0.9013 0.35947 0.0
C448 C 0.23458 0.74592 0.34738 0.0
C449 C 0.27828 0.69442 0.35495 0.0
C450 C 0.26309 0.73257 0.35493 0.0
C451 C 0.21745 0.83464 0.35831 0.0
C452 C 0.23349 0.80172 0.35643 0.0
H453 H 0.31923 0.71033 0.3484 0.0
H454 H 0.2938 0.77146 0.34697 0.0
H455 H 0.24962 0.66791 0.33999 0.0
H456 H 0.17686 0.79918 0.36167 0.0
H457 H 0.2032 0.7474 0.35894 0.0
C458 C 0.80051 0.14845 0.34128 0.0
C459 C 0.80322 0.10496 0.35357 0.0
C460 C 0.78549 0.17972 0.33986 0.0
C461 C 0.75032 0.22425 0.33589 0.0
H462 H 0.73219 0.28671 0.37502 0.0
C463 C 0.68695 0.34663 0.34101 0.0
C464 C 0.68506 0.39437 0.35241 0.0
C465 C 0.70179 0.31391 0.33961 0.0
C466 C 0.73721 0.27031 0.36397 0.0
H467 H 0.79189 0.05725 0.37341 0.0
H468 H 0.76548 0.11126 0.37074 0.0
H469 H 0.75639 0.21914 0.37552 0.0
H470 H 0.69772 0.4489 0.37032 0.0
H471 H 0.72374 0.39275 0.3676 0.0
H472 H 0.73133 0.27701 0.32434 0.0
C473 C 0.77516 0.12207 0.36243 0.0
C474 C 0.7509 0.23057 0.36427 0.0
C475 C 0.79024 0.0908 0.36388 0.0
C476 C 0.69871 0.4119 0.36155 0.0
C477 C 0.71357 0.37937 0.36008 0.0
C478 C 0.73662 0.26421 0.33558 0.0
C479 C 0.77279 0.16808 0.35065 0.0
C480 C 0.75764 0.20717 0.35024 0.0
C481 C 0.71508 0.32853 0.3495 0.0
C482 C 0.72996 0.28787 0.34962 0.0
H483 H 0.81021 0.16034 0.33307 0.0
H484 H 0.78412 0.21521 0.33073 0.0
H485 H 0.75517 0.20666 0.32488 0.0
H486 H 0.6767 0.33195 0.33375 0.0
H487 H 0.70253 0.27487 0.33138 0.0
C488 C 0.68608 0.68435 0.87201 0.0
C489 C 0.68564 0.61759 0.87235 0.0
C490 C 0.70102 0.7165 0.87169 0.0
C491 C 0.74319 0.70631 0.88376 0.0
H492 H 0.75125 0.83468 0.85194 0.0
C493 C 0.80609 0.82649 0.87704 0.0
C494 C 0.80684 0.8902 0.87211 0.0
C495 C 0.79117 0.79418 0.8774 0.0
C496 C 0.74909 0.79986 0.86108 0.0
H497 H 0.70046 0.53206 0.87265 0.0
H498 H 0.72685 0.58901 0.87253 0.0
H499 H 0.72568 0.77414 0.85147 0.0
H500 H 0.79242 0.97059 0.86415 0.0
H501 H 0.76611 0.91467 0.86536 0.0
H502 H 0.76622 0.73316 0.89379 0.0
C503 C 0.71551 0.61593 0.87237 0.0
C504 C 0.73454 0.76482 0.86069 0.0
C505 C 0.70048 0.5835 0.87239 0.0
C506 C 0.79223 0.92146 0.86794 0.0
C507 C 0.77719 0.88921 0.86852 0.0
C508 C 0.75763 0.74202 0.88432 0.0
C509 C 0.71583 0.68266 0.87194 0.0
C510 C 0.73152 0.71767 0.87199 0.0
C511 C 0.77653 0.82491 0.87308 0.0
C512 C 0.76081 0.78902 0.87292 0.0
H513 H 0.67485 0.712 0.87184 0.0
H514 H 0.701 0.76797 0.87148 0.0
H515 H 0.74096 0.67082 0.89274 0.0
H516 H 0.81712 0.80063 0.88019 0.0
H517 H 0.79124 0.74445 0.88066 0.0
C518 C 0.29051 0.41968 0.87206 0.0
C519 C 0.30558 0.38712 0.87227 0.0
C520 C 0.27572 0.38593 0.87329 0.0
C521 C 0.2575 0.23335 0.86468 0.0
H522 H 0.22668 0.26664 0.89838 0.0
C523 C 0.20129 0.07228 0.87408 0.0
C524 C 0.18649 0.10265 0.87801 0.0
C525 C 0.21615 0.10564 0.87465 0.0
C526 C 0.23502 0.25722 0.88876 0.0
H527 H 0.31701 0.29393 0.87362 0.0
H528 H 0.29128 0.23565 0.87537 0.0
H529 H 0.25135 0.33198 0.89583 0.0
H530 H 0.17574 0.19137 0.88602 0.0
H531 H 0.20132 0.24958 0.88642 0.0
H532 H 0.24113 0.16022 0.85718 0.0
C533 C 0.2909 0.28698 0.87446 0.0
C534 C 0.24912 0.29466 0.88734 0.0
C535 C 0.3056 0.3205 0.87355 0.0
C536 C 0.18692 0.16627 0.883 0.0
C537 C 0.20167 0.19975 0.88332 0.0
C538 C 0.24328 0.19666 0.8659 0.0
C539 C 0.27587 0.31932 0.87436 0.0
C540 C 0.26047 0.28271 0.87534 0.0
C541 C 0.21645 0.17026 0.87892 0.0
C542 C 0.23188 0.20791 0.878 0.0
H543 H 0.29017 0.47097 0.87111 0.0
H544 H 0.26418 0.41163 0.87317 0.0
H545 H 0.26612 0.22358 0.85529 0.0
H546 H 0.20136 0.02319 0.8703 0.0
H547 H 0.22735 0.08097 0.87152 0.0
C548 C 0.70335 0.42113 0.61707 0.0
C549 C 0.68918 0.38657 0.62102 0.0
C550 C 0.71861 0.39049 0.61644 0.0
C551 C 0.74091 0.24887 0.62979 0.0
H552 H 0.7636 0.25778 0.5898 0.0
C553 C 0.79253 0.07377 0.61481 0.0
C554 C 0.80662 0.09994 0.6078 0.0
C555 C 0.7781 0.10949 0.6159 0.0
C556 C 0.75754 0.25534 0.60111 0.0
H557 H 0.67982 0.29468 0.62834 0.0
H558 H 0.70638 0.24189 0.62755 0.0
H559 H 0.73971 0.32529 0.59447 0.0
H560 H 0.81631 0.1827 0.59561 0.0
H561 H 0.7914 0.24487 0.59782 0.0
H562 H 0.75869 0.17934 0.63654 0.0
C563 C 0.70577 0.2921 0.62479 0.0
C564 C 0.74393 0.2942 0.60378 0.0
C565 C 0.69058 0.32221 0.62514 0.0
C566 C 0.8057 0.16105 0.60115 0.0
C567 C 0.79136 0.19676 0.60234 0.0
C568 C 0.7546 0.21048 0.62719 0.0
C569 C 0.71984 0.32551 0.62011 0.0
C570 C 0.7354 0.29063 0.61807 0.0
C571 C 0.77754 0.17204 0.61008 0.0
C572 C 0.76294 0.21269 0.61275 0.0
H573 H 0.70251 0.47079 0.61382 0.0
H574 H 0.72937 0.41711 0.61284 0.0
H575 H 0.73454 0.24559 0.64093 0.0
H576 H 0.7928 0.02672 0.61996 0.0
H577 H 0.7675 0.0886 0.62162 0.0
C578 C 0.2015 0.91528 0.61224 0.0
C579 C 0.18719 0.88067 0.6157 0.0
C580 C 0.21667 0.88412 0.61137 0.0
C581 C 0.23873 0.74425 0.62494 0.0
H582 H 0.26237 0.75031 0.58543 0.0
C583 C 0.29249 0.57518 0.61338 0.0
C584 C 0.3064 0.60169 0.60614 0.0
C585 C 0.27766 0.60857 0.61364 0.0
C586 C 0.25605 0.74871 0.59661 0.0
H587 H 0.17749 0.78769 0.62169 0.0
H588 H 0.20395 0.73406 0.62058 0.0
H589 H 0.23798 0.81629 0.58906 0.0
H590 H 0.31544 0.68261 0.5928 0.0
H591 H 0.28988 0.74118 0.59368 0.0
H592 H 0.25681 0.67787 0.63272 0.0
C593 C 0.20345 0.78471 0.61833 0.0
C594 C 0.24214 0.78659 0.59867 0.0
C595 C 0.18834 0.81535 0.61887 0.0
C596 C 0.30496 0.66067 0.59848 0.0
C597 C 0.29024 0.69431 0.59892 0.0
C598 C 0.25275 0.7071 0.62299 0.0
C599 C 0.21768 0.81857 0.61437 0.0
C600 C 0.23331 0.78406 0.61279 0.0
C601 C 0.27653 0.66939 0.60683 0.0
C602 C 0.26148 0.70835 0.60874 0.0
H603 H 0.20086 0.96567 0.60972 0.0
H604 H 0.22758 0.91097 0.60832 0.0
H605 H 0.23208 0.74183 0.63595 0.0
H606 H 0.29318 0.52958 0.61925 0.0
H607 H 0.26719 0.58731 0.61949 0.0
C608 C 0.13481 0.93184 0.30136 0.0
C609 C 0.12487 0.97518 0.30954 0.0
C610 C 0.13601 0.93486 0.28506 0.0
C611 C 0.129 0.04278 0.25152 0.0
H612 H 0.12996 0.88635 0.22757 0.0
C613 C 0.13866 0.03963 0.18441 0.0
C614 C 0.12877 -0.00297 0.17595 0.0
C615 C 0.13914 0.03696 0.20079 0.0
C616 C 0.12961 0.93046 0.23409 0.0
H617 H 0.10816 0.05491 0.30706 0.0
H618 H 0.10987 0.05896 0.27854 0.0
H619 H 0.12822 0.88166 0.25604 0.0
H620 H 0.11149 0.91875 0.17797 0.0
H621 H 0.11204 0.91518 0.20642 0.0
H622 H 0.12969 0.09154 0.22949 0.0
C623 C 0.11707 0.0237 0.28476 0.0
C624 C 0.12881 0.92777 0.25041 0.0
C625 C 0.11598 0.02106 0.30108 0.0
C626 C 0.11935 0.95193 0.18414 0.0
C627 C 0.11974 0.94959 0.20046 0.0
C628 C 0.12967 0.04547 0.23517 0.0
C629 C 0.12717 0.98088 0.2766 0.0
C630 C 0.1284 0.98389 0.25929 0.0
C631 C 0.12966 -0.00809 0.20895 0.0
C632 C 0.12984 0.98932 0.2263 0.0
H633 H 0.14193 0.89628 0.30757 0.0
H634 H 0.14407 0.90177 0.27913 0.0
H635 H 0.12895 0.08685 0.25806 0.0
H636 H 0.14611 0.07473 0.17841 0.0
H637 H 0.14704 0.06975 0.20703 0.0
C638 C 0.86992 0.91922 0.30194 0.0
C639 C 0.8681 0.98273 0.30673 0.0
C640 C 0.8677 0.90267 0.28619 0.0
C641 C 0.84743 0.96272 0.25049 0.0
H642 H 0.87838 0.85752 0.22766 0.0
C643 C 0.85947 0.9873 0.18509 0.0
C644 C 0.8597 0.93217 0.17587 0.0
C645 C 0.85825 0.98282 0.20134 0.0
C646 C 0.86948 0.8859 0.234 0.0
H647 H 0.86354 0.07907 0.29869 0.0
H648 H 0.86002 0.05047 0.27137 0.0
H649 H 0.88125 0.86938 0.25615 0.0
H650 H 0.85881 0.82912 0.17631 0.0
H651 H 0.8571 0.82147 0.205 0.0
H652 H 0.83625 0.98211 0.22827 0.0
C653 C 0.86263 0.01316 0.27978 0.0
C654 C 0.87111 0.89268 0.25024 0.0
C655 C 0.86478 0.02959 0.29543 0.0
C656 C 0.85858 0.87237 0.18318 0.0
C657 C 0.85766 0.86788 0.19952 0.0
C658 C 0.8459 0.95637 0.23431 0.0
C659 C 0.86366 0.94945 0.27506 0.0
C660 C 0.86046 0.93312 0.2585 0.0
C661 C 0.85748 0.92315 0.20867 0.0
C662 C 0.85724 0.91969 0.2259 0.0
H663 H 0.87246 0.8821 0.31043 0.0
H664 H 0.86864 0.85324 0.2828 0.0
H665 H 0.8388 -0.00714 0.25666 0.0
H666 H 0.86026 0.03395 0.17975 0.0
H667 H 0.85831 0.02604 0.20824 0.0
C668 C 0.86211 0.95744 0.68511 0.0
C669 C 0.84945 0.97004 0.67437 0.0
C670 C 0.85848 0.94654 0.70084 0.0
C671 C 0.83125 -0.00676 0.73114 0.0
H672 H 0.85168 0.85489 0.75409 0.0
C673 C 0.83538 0.98706 0.79912 0.0
C674 C 0.85121 0.97215 0.80469 0.0
C675 C 0.83145 0.97832 0.78329 0.0
C676 C 0.84583 0.89363 0.74784 0.0
H677 H 0.82308 0.9808 0.67151 0.0
H678 H 0.8168 0.9638 0.69939 0.0
H679 H 0.85137 0.85299 0.72544 0.0
H680 H 0.87536 0.93751 0.79798 0.0
H681 H 0.86861 0.92358 0.77053 0.0
H682 H 0.82677 0.03625 0.75349 0.0
C683 C 0.82945 0.96137 0.69546 0.0
C684 C 0.84558 0.89228 0.73151 0.0
C685 C 0.83305 0.971 0.67959 0.0
C686 C 0.86303 0.94912 0.79413 0.0
C687 C 0.8591 0.94045 0.7784 0.0
C688 C 0.83164 -0.00507 0.74753 0.0
C689 C 0.84216 0.94908 0.70615 0.0
C690 C 0.83889 0.94328 0.72306 0.0
C691 C 0.84326 0.95437 0.77283 0.0
C692 C 0.8396 0.94645 0.75596 0.0
H693 H 0.87483 0.95604 0.68136 0.0
H694 H 0.86849 0.93796 0.70897 0.0
H695 H 0.8261 0.03319 0.7248 0.0
H696 H 0.82599 0.00471 0.807 0.0
H697 H 0.81915 0.98957 0.77928 0.0
C698 C 0.13208 0.98234 0.79671 0.0
C699 C 0.14482 -0.00688 0.80749 0.0
C700 C 0.13566 0.97098 0.78101 0.0
C701 C 0.16217 0.01187 0.75014 0.0
H702 H 0.14304 0.86547 0.72941 0.0
C703 C 0.15742 0.99076 0.68246 0.0
C704 C 0.14178 0.97166 0.67722 0.0
C705 C 0.16156 0.98601 0.69834 0.0
C706 C 0.14852 0.90647 0.73503 0.0
H707 H 0.17124 0.00111 0.8104 0.0
H708 H 0.17745 0.98344 0.78249 0.0
H709 H 0.1437 0.86989 0.75803 0.0
H710 H 0.11817 0.93356 0.68453 0.0
H711 H 0.12525 0.92663 0.7121 0.0
H712 H 0.16585 0.0508 0.72718 0.0
C713 C 0.16478 0.98269 0.78642 0.0
C714 C 0.14899 0.90867 0.75135 0.0
C715 C 0.16123 -0.00728 0.80228 0.0
C716 C 0.13035 0.94837 0.68815 0.0
C717 C 0.13447 0.94373 0.70394 0.0
C718 C 0.16154 0.01001 0.73376 0.0
C719 C 0.15199 0.97128 0.77577 0.0
C720 C 0.15523 0.96244 0.75897 0.0
C721 C 0.15015 0.96199 0.70919 0.0
C722 C 0.15403 0.95848 0.72611 0.0
H723 H 0.11935 0.98196 0.80044 0.0
H724 H 0.12562 0.96301 0.77288 0.0
H725 H 0.16695 0.05391 0.75588 0.0
H726 H 0.16652 0.0087 0.67431 0.0
H727 H 0.17372 0.00046 0.70209 0.0
C728 C 0.61071 0.55604 0.30496 0.0
C729 C 0.60946 0.49554 0.3118 0.0
C730 C 0.6098 0.56281 0.28864 0.0
C731 C 0.61832 0.46603 0.25396 0.0
H732 H 0.59918 0.60533 0.23039 0.0
C733 C 0.61469 0.4617 0.18712 0.0
C734 C 0.62 0.51647 0.17916 0.0
C735 C 0.61228 0.46282 0.20329 0.0
C736 C 0.60466 0.56648 0.2369 0.0
H737 H 0.60462 0.39593 0.3074 0.0
H738 H 0.60242 0.40794 0.27908 0.0
H739 H 0.59571 0.601 0.25899 0.0
H740 H 0.62665 0.61578 0.18188 0.0
H741 H 0.62247 0.61739 0.2103 0.0
H742 H 0.62725 0.43133 0.23203 0.0
C743 C 0.60475 0.44977 0.28614 0.0
C744 C 0.60267 0.56398 0.2532 0.0
C745 C 0.60592 0.44291 0.30232 0.0
C746 C 0.62263 0.57269 0.1877 0.0
C747 C 0.62013 0.57386 0.20392 0.0
C748 C 0.62022 0.46836 0.23776 0.0
C749 C 0.60744 0.50918 0.27907 0.0
C750 C 0.60935 0.51326 0.26184 0.0
C751 C 0.61508 0.51872 0.21184 0.0
C752 C 0.61331 0.51822 0.22907 0.0
H753 H 0.61345 0.59727 0.3121 0.0
H754 H 0.61191 0.60918 0.2835 0.0
H755 H 0.62406 0.42737 0.26034 0.0
H756 H 0.61246 0.41771 0.1809 0.0
H757 H 0.6082 0.41985 0.20913 0.0
C758 C 0.37475 0.42372 0.30534 0.0
C759 C 0.3741 0.48643 0.31094 0.0
C760 C 0.37376 0.4117 0.28922 0.0
C761 C 0.35836 0.48805 0.2532 0.0
H762 H 0.38501 0.36422 0.23116 0.0
C763 C 0.36812 0.49472 0.18694 0.0
C764 C 0.366 0.43783 0.1786 0.0
C765 C 0.36819 0.49451 0.20328 0.0
C766 C 0.37736 0.3983 0.23726 0.0
H767 H 0.37315 0.58572 0.30412 0.0
H768 H 0.3719 0.56491 0.27615 0.0
H769 H 0.38776 0.37533 0.25969 0.0
H770 H 0.36243 0.336 0.18079 0.0
H771 H 0.36282 0.33578 0.20956 0.0
H772 H 0.34837 0.51253 0.23078 0.0
C773 C 0.37256 0.52491 0.28414 0.0
C774 C 0.37892 0.40465 0.25353 0.0
C775 C 0.37339 0.53684 0.30016 0.0
C776 C 0.36401 0.3806 0.18693 0.0
C777 C 0.36432 0.38033 0.20333 0.0
C778 C 0.35692 0.48207 0.23701 0.0
C779 C 0.37222 0.46227 0.27852 0.0
C780 C 0.3697 0.45073 0.26158 0.0
C781 C 0.36633 0.43738 0.21159 0.0
C782 C 0.36664 0.43815 0.22887 0.0
H783 H 0.37528 0.384 0.31343 0.0
H784 H 0.37355 0.36293 0.2852 0.0
H785 H 0.35075 0.52271 0.25915 0.0
H786 H 0.36966 0.53954 0.18085 0.0
H787 H 0.36992 0.53902 0.20943 0.0
C788 C 0.33414 0.52688 0.80055 0.0
C789 C 0.35026 0.52306 0.80645 0.0
C790 C 0.33146 0.53942 0.78463 0.0
C791 C 0.35044 0.60942 0.7499 0.0
H792 H 0.32861 0.47772 0.72588 0.0
C793 C 0.36551 0.56517 0.68566 0.0
C794 C 0.35315 0.54496 0.67531 0.0
C795 C 0.3622 0.57212 0.7016 0.0
C796 C 0.33438 0.51579 0.7324 0.0
H797 H 0.37613 0.53134 0.80057 0.0
H798 H 0.3714 0.5543 0.77291 0.0
H799 H 0.32768 0.47459 0.75452 0.0
H800 H 0.3275 0.51725 0.67351 0.0
H801 H 0.32168 0.53007 0.70143 0.0
H802 H 0.35749 0.65003 0.72792 0.0
C803 C 0.36089 0.54727 0.78054 0.0
C804 C 0.33385 0.51388 0.74878 0.0
C805 C 0.36359 0.53354 0.79631 0.0
C806 C 0.33733 0.53246 0.68122 0.0
C807 C 0.33399 0.53976 0.6972 0.0
C808 C 0.35082 0.61177 0.73357 0.0
C809 C 0.34484 0.54979 0.77456 0.0
C810 C 0.34241 0.55931 0.7576 0.0
C811 C 0.34641 0.55948 0.70755 0.0
C812 C 0.34338 0.56351 0.72466 0.0
H813 H 0.32366 0.51889 0.80815 0.0
H814 H 0.31898 0.54096 0.78018 0.0
H815 H 0.35696 0.64533 0.75654 0.0
H816 H 0.37785 0.57496 0.68151 0.0
H817 H 0.37216 0.58595 0.70932 0.0
C818 C 0.62659 0.48282 0.79999 0.0
C819 C 0.63984 0.48927 0.81042 0.0
C820 C 0.62944 0.47169 0.78413 0.0
C821 C 0.65694 0.50672 0.75302 0.0
H822 H 0.63324 0.3739 0.73105 0.0
C823 C 0.65449 0.48997 0.68514 0.0
C824 C 0.63877 0.4773 0.67901 0.0
C825 C 0.65745 0.48435 0.70123 0.0
C826 C 0.63993 0.41125 0.73702 0.0
H827 H 0.66642 0.48923 0.81257 0.0
H828 H 0.67139 0.47175 0.78447 0.0
H829 H 0.63347 0.37509 0.75969 0.0
H830 H 0.61374 0.45069 0.68496 0.0
H831 H 0.61879 0.44255 0.71294 0.0
H832 H 0.66251 0.54539 0.73039 0.0
C833 C 0.65886 0.47436 0.78875 0.0
C834 C 0.64015 0.41157 0.75335 0.0
C835 C 0.65601 0.48423 0.80473 0.0
C836 C 0.62602 0.46025 0.68929 0.0
C837 C 0.62895 0.45495 0.70532 0.0
C838 C 0.65657 0.50685 0.73663 0.0
C839 C 0.64557 0.46786 0.77839 0.0
C840 C 0.64819 0.46045 0.76144 0.0
C841 C 0.64473 0.46612 0.71144 0.0
C842 C 0.64754 0.46039 0.72852 0.0
H843 H 0.61401 0.4861 0.80409 0.0
H844 H 0.61902 0.46754 0.77627 0.0
H845 H 0.66314 0.54505 0.7591 0.0
H846 H 0.66459 0.50294 0.67749 0.0
H847 H 0.66973 0.4932 0.70565 0.0
C848 C 0.11767 0.92797 0.93021 0.0
C849 C 0.12248 0.98769 0.92438 0.0
C850 C 0.11925 0.91394 0.94615 0.0
C851 C 0.1416 0.96427 0.98156 0.0
H852 H 0.10525 0.88713 0.00407 0.0
C853 C 0.11508 0.96709 0.04725 0.0
C854 C 0.12931 0.95471 0.05609 0.0
C855 C 0.11494 0.9569 0.03113 0.0
C856 C 0.11554 0.90827 -0.0021 0.0
H857 H 0.13235 0.07998 0.93075 0.0
H858 H 0.13483 0.05574 0.95857 0.0
H859 H 0.10359 0.8998 0.97563 0.0
H860 H 0.15439 0.91964 0.05504 0.0
H861 H 0.15414 0.90216 0.02667 0.0
H862 H 0.15319 0.97572 0.00389 0.0
C863 C 0.13016 0.0194 0.95076 0.0
C864 C 0.11464 0.91513 0.98164 0.0
C865 C 0.12858 0.03348 0.93485 0.0
C866 C 0.14327 0.92999 0.04853 0.0
C867 C 0.14314 0.92005 0.03232 0.0
C868 C 0.1425 0.95739 -0.00219 0.0
C869 C 0.12568 0.95931 0.95652 0.0
C870 C 0.12745 0.94491 0.9734 0.0
C871 C 0.12903 0.93421 0.02347 0.0
C872 C 0.12927 0.93106 0.00616 0.0
H873 H 0.11297 0.89156 0.92244 0.0
H874 H 0.11573 0.86721 0.9503 0.0
H875 H 0.15178 0.98635 0.97543 0.0
H876 H 0.10408 0.98576 0.05272 0.0
H877 H 0.10397 0.96918 0.02457 0.0
C878 C 0.86216 0.94706 0.93341 0.0
C879 C 0.86909 -0.00558 0.92384 0.0
C880 C 0.86082 0.95616 0.94955 0.0
C881 C 0.87841 0.04558 0.98217 0.0
H882 H 0.83921 0.98744 0.00381 0.0
C883 C 0.85004 0.02425 0.04897 0.0
C884 C 0.86376 -0.00329 0.05636 0.0
C885 C 0.85015 0.03534 0.03281 0.0
C886 C 0.85012 0.00491 -0.00208 0.0
H887 H 0.88018 0.08831 0.92372 0.0
H888 H 0.8778 0.10404 0.95198 0.0
H889 H 0.84016 0.98513 0.97522 0.0
H890 H 0.8885 0.96073 0.05265 0.0
H891 H 0.88855 0.97925 0.02454 0.0
H892 H 0.88842 0.06477 0.0049 0.0
C893 C 0.87349 0.05983 0.94695 0.0
C894 C 0.85074 0.00282 0.98158 0.0
C895 C 0.87484 0.05076 0.93078 0.0
C896 C 0.8777 0.98182 0.04734 0.0
C897 C 0.87781 -0.00697 0.03124 0.0
C898 C 0.87779 0.04767 -0.00149 0.0
C899 C 0.86636 0.01277 0.95645 0.0
C900 C 0.86505 0.02161 0.97359 0.0
C901 C 0.86399 0.01934 0.0238 0.0
C902 C 0.86379 0.02583 0.00654 0.0
H903 H 0.85764 0.90306 0.92844 0.0
H904 H 0.85557 0.91854 0.95665 0.0
H905 H 0.88961 0.06023 0.97631 0.0
H906 H 0.83915 0.0366 0.05562 0.0
H907 H 0.83938 0.05607 0.02734 0.0
C908 C 0.15619 0.00675 0.43435 0.0
C909 C 0.14042 0.01593 0.42801 0.0
C910 C 0.15864 0.01109 0.45055 0.0
C911 C 0.14183 0.07357 0.48697 0.0
H912 H 0.15292 0.91124 0.50577 0.0
C913 C 0.12217 0.01106 0.54941 0.0
C914 C 0.13238 0.97254 0.55866 0.0
C915 C 0.12595 0.02204 0.53368 0.0
C916 C 0.1502 0.95742 0.5008 0.0
H917 H 0.11514 0.04061 0.43325 0.0
H918 H 0.11954 0.04983 0.46149 0.0
H919 H 0.15581 0.92579 0.47753 0.0
H920 H 0.15464 0.91574 0.55884 0.0
H921 H 0.16149 0.93623 0.53148 0.0
H922 H 0.13604 0.10536 0.51011 0.0
C923 C 0.12991 0.03866 0.454 0.0
C924 C 0.15187 0.96563 0.48464 0.0
C925 C 0.12737 0.03284 0.43792 0.0
C926 C 0.14642 0.94499 0.55191 0.0
C927 C 0.15035 0.95678 0.53624 0.0
C928 C 0.14042 0.06579 0.50316 0.0
C929 C 0.14545 0.02642 0.46045 0.0
C930 C 0.14716 0.023 0.47759 0.0
C931 C 0.14018 -0.00441 0.52696 0.0
C932 C 0.14399 0.00683 0.51018 0.0
H933 H 0.16642 -0.00645 0.42689 0.0
H934 H 0.1707 0.0012 0.45538 0.0
H935 H 0.13821 0.1183 0.48169 0.0
H936 H 0.11123 0.03267 0.55431 0.0
H937 H 0.1176 0.05078 0.52678 0.0
C938 C 0.87071 0.07686 0.54853 0.0
C939 C 0.8696 0.01899 0.55663 0.0
C940 C 0.86849 0.0789 0.53233 0.0
C941 C 0.86634 0.97778 0.49676 0.0
H942 H 0.84364 0.12497 0.47986 0.0
C943 C 0.84613 -0.00086 0.43202 0.0
C944 C 0.85367 0.05096 0.4245 0.0
C945 C 0.8463 -0.00538 0.44836 0.0
C946 C 0.84993 0.0836 0.48449 0.0
H947 H 0.86562 0.91766 0.55426 0.0
H948 H 0.86112 0.92134 0.52598 0.0
H949 H 0.84812 0.11652 0.5081 0.0
H950 H 0.86645 0.14023 0.42802 0.0
H951 H 0.8663 0.13309 0.45666 0.0
H952 H 0.86775 0.94463 0.47303 0.0
C953 C 0.86413 0.96501 0.53203 0.0
C954 C 0.85266 0.07893 0.5006 0.0
C955 C 0.86668 0.96284 0.54823 0.0
C956 C 0.86062 0.0997 0.43356 0.0
C957 C 0.86048 0.0958 0.44988 0.0
C958 C 0.86332 0.98199 0.48067 0.0
C959 C 0.86475 0.02327 0.52394 0.0
C960 C 0.86117 0.02652 0.50689 0.0
C961 C 0.85367 0.04255 0.45735 0.0
C962 C 0.85532 0.03536 0.47444 0.0
H963 H 0.87312 0.12076 0.55475 0.0
H964 H 0.86954 0.1243 0.52642 0.0
H965 H 0.87309 0.93719 0.50115 0.0
H966 H 0.84076 0.96079 0.42527 0.0
H967 H 0.84095 0.95328 0.45397 0.0
C968 C 0.62451 0.45516 0.05085 0.0
C969 C 0.63813 0.47198 0.06006 0.0
C970 C 0.62598 0.45095 0.03461 0.0
C971 C 0.64617 0.52795 0.00321 0.0
H972 H 0.62958 0.39019 0.97751 0.0
C973 C 0.64182 0.54942 0.93591 0.0
C974 C 0.62817 0.52116 0.92865 0.0
C975 C 0.64504 0.53842 0.95176 0.0
C976 C 0.6341 0.42934 0.98452 0.0
H977 H 0.66408 0.49549 0.05975 0.0
H978 H 0.66649 0.49043 0.03104 0.0
H979 H 0.63228 0.37548 0.00583 0.0
H980 H 0.60689 0.46092 0.93227 0.0
H981 H 0.61199 0.4443 0.96013 0.0
H982 H 0.64698 0.58354 0.98226 0.0
C983 C 0.65481 0.47954 0.03652 0.0
C984 C 0.63582 0.42053 0.00067 0.0
C985 C 0.65343 0.48231 0.05285 0.0
C986 C 0.61755 0.48304 0.93758 0.0
C987 C 0.6206 0.47295 0.9535 0.0
C988 C 0.64418 0.53721 0.98711 0.0
C989 C 0.64101 0.46472 0.02732 0.0
C990 C 0.64162 0.47012 0.01012 0.0
C991 C 0.63451 0.49983 0.96073 0.0
C992 C 0.63783 0.48839 0.97762 0.0
H993 H 0.61262 0.44653 0.05619 0.0
H994 H 0.61516 0.44001 0.0277 0.0
H995 H 0.65043 0.56712 0.01037 0.0
H996 H 0.65035 0.57837 0.92924 0.0
H997 H 0.65598 0.55918 0.95687 0.0
C998 C 0.36051 0.43499 0.9337 0.0
C999 C 0.36702 0.48517 0.92476 0.0
C1000 C 0.35928 0.4402 0.94997 0.0
C1001 C 0.37661 0.52476 0.98361 0.0
H1002 H 0.33791 0.46022 0.00497 0.0
C1003 C 0.34855 0.5016 0.0504 0.0
C1004 C 0.3625 0.4763 0.05788 0.0
C1005 C 0.34846 0.51055 0.03414 0.0
C1006 C 0.34869 0.47926 -0.00084 0.0
H1007 H 0.37743 0.58009 0.92589 0.0
H1008 H 0.37523 0.58906 0.95432 0.0
H1009 H 0.3388 0.46091 0.97633 0.0
H1010 H 0.38735 0.44145 0.05422 0.0
H1011 H 0.38708 0.45654 0.02599 0.0
H1012 H 0.38653 0.5428 0.00642 0.0
C1013 C 0.37119 0.5456 0.94872 0.0
C1014 C 0.34928 0.47893 0.9828 0.0
C1015 C 0.37242 0.54044 0.93244 0.0
C1016 C 0.37639 0.46094 0.04884 0.0
C1017 C 0.37631 0.47011 0.03266 0.0
C1018 C 0.37602 0.52501 -4e-05 0.0
C1019 C 0.36453 0.49565 0.95762 0.0
C1020 C 0.36337 0.5006 0.97489 0.0
C1021 C 0.36234 0.49474 0.02515 0.0
C1022 C 0.36219 0.50112 0.00788 0.0
H1023 H 0.35627 0.39172 0.92816 0.0
H1024 H 0.35438 0.40049 0.95658 0.0
H1025 H 0.38766 0.54149 0.97782 0.0
H1026 H 0.33768 0.51408 0.05705 0.0
H1027 H 0.33756 0.52995 0.02861 0.0
C1028 C 0.65386 0.47066 0.43408 0.0
C1029 C 0.64102 0.43448 0.42759 0.0
C1030 C 0.65648 0.47086 0.45028 0.0
C1031 C 0.64936 0.49815 0.48476 0.0
H1032 H 0.64444 0.34528 0.50979 0.0
C1033 C 0.63011 0.50096 0.54965 0.0
C1034 C 0.63731 0.45632 0.55981 0.0
C1035 C 0.63347 0.49923 0.5336 0.0
C1036 C 0.64609 0.3883 0.50298 0.0
H1037 H 0.6213 0.36827 0.43289 0.0
H1038 H 0.62583 0.36901 0.46106 0.0
H1039 H 0.64593 0.33721 0.48131 0.0
H1040 H 0.65409 0.37618 0.56119 0.0
H1041 H 0.65997 0.37361 0.53322 0.0
H1042 H 0.6493 0.54931 0.50645 0.0
C1043 C 0.63393 0.39685 0.45366 0.0
C1044 C 0.6468 0.38369 0.48669 0.0
C1045 C 0.63125 0.39687 0.43752 0.0
C1046 C 0.64819 0.41085 0.55366 0.0
C1047 C 0.65157 0.40927 0.53764 0.0
C1048 C 0.64864 0.50279 0.50107 0.0
C1049 C 0.6464 0.43451 0.4602 0.0
C1050 C 0.64804 0.43866 0.47742 0.0
C1051 C 0.64411 0.45298 0.52743 0.0
C1052 C 0.64663 0.448 0.51031 0.0
H1053 H 0.66163 0.50001 0.42672 0.0
H1054 H 0.66626 0.49996 0.45506 0.0
H1055 H 0.6502 0.54133 0.47787 0.0
H1056 H 0.6217 0.53665 0.55404 0.0
H1057 H 0.62737 0.533 0.52596 0.0
C1058 C 0.36367 0.42501 0.55081 0.0
C1059 C 0.36746 0.48525 0.55691 0.0
C1060 C 0.35953 0.41842 0.53493 0.0
C1061 C 0.34291 0.5158 0.50284 0.0
H1062 H 0.36164 0.39155 0.47446 0.0
C1063 C 0.35419 0.56001 0.43808 0.0
C1064 C 0.34929 0.51388 0.4272 0.0
C1065 C 0.3527 0.54836 0.4541 0.0
C1066 C 0.35603 0.42553 0.48236 0.0
H1067 H 0.37132 0.5845 0.55112 0.0
H1068 H 0.36454 0.5728 0.52355 0.0
H1069 H 0.36741 0.38418 0.50268 0.0
H1070 H 0.33879 0.41985 0.42435 0.0
H1071 H 0.33665 0.39873 0.45265 0.0
H1072 H 0.33243 0.55949 0.48248 0.0
C1073 C 0.36415 0.53111 0.53102 0.0
C1074 C 0.35935 0.42139 0.49844 0.0
C1075 C 0.36817 0.5377 0.54677 0.0
C1076 C 0.34253 0.45634 0.43257 0.0
C1077 C 0.34137 0.4441 0.44866 0.0
C1078 C 0.33973 0.52018 0.48684 0.0
C1079 C 0.3592 0.47201 0.52507 0.0
C1080 C 0.35338 0.4682 0.50868 0.0
C1081 C 0.34657 0.48996 0.4595 0.0
C1082 C 0.34678 0.47655 0.47644 0.0
H1083 H 0.36302 0.38388 0.55845 0.0
H1084 H 0.3559 0.37224 0.53054 0.0
H1085 H 0.3378 0.55152 0.51058 0.0
H1086 H 0.35943 0.6047 0.43422 0.0
H1087 H 0.35693 0.58413 0.4623 0.0
C1088 C 0.93373 -4e-05 0.13528 0.0
C1089 C 0.92641 -0.00582 0.12041 0.0
C1090 C 0.9508 0.00413 0.13664 0.0
C1091 C 0.98786 0.0488 0.11584 0.0
H1092 H 0.00966 0.91212 0.13826 0.0
C1093 C 0.05544 -0.0072 0.10502 0.0
C1094 C 0.06526 0.9746 0.11779 0.0
C1095 C 0.03848 -0.00201 0.10674 0.0
C1096 C 0.0038 0.95133 0.13221 0.0
H1097 H 0.93094 0.99085 0.09532 0.0
H1098 H 0.96075 -0.00021 0.09773 0.0
H1099 H 0.97975 0.92145 0.1394 0.0
H1100 H 0.06513 0.94661 0.14232 0.0
H1101 H 0.03546 0.95727 0.14545 0.0
H1102 H 0.01173 0.07921 0.10866 0.0
C1103 C 0.9533 0.00039 0.10828 0.0
C1104 C 0.98672 0.95655 0.13287 0.0
C1105 C 0.93632 -0.00511 0.10692 0.0
C1106 C 0.0578 0.96028 0.13224 0.0
C1107 C 0.04082 0.96637 0.13403 0.0
C1108 C 0.00493 0.04424 0.11537 0.0
C1109 C 0.96065 0.00411 0.12314 0.0
C1110 C 0.97866 0.00435 0.12436 0.0
C1111 C 0.03101 0.98608 0.12133 0.0
C1112 C 0.01305 -0.00562 0.12318 0.0
H1113 H 0.92632 -0.00071 0.14585 0.0
H1114 H 0.95631 0.00695 0.1482 0.0
H1115 H 0.98182 0.08632 0.1093 0.0
H1116 H 0.06086 0.00349 0.09371 0.0
H1117 H 0.03123 0.01148 0.0966 0.0
C1118 C 0.9351 -0.00415 0.35967 0.0
C1119 C 0.92569 0.01813 0.37234 0.0
C1120 C 0.95223 -0.00381 0.3605 0.0
C1121 C 0.98679 0.98371 0.38599 0.0
H1122 H 0.01044 0.08785 0.35593 0.0
C1123 C 0.05734 0.00897 0.38856 0.0
C1124 C 0.06577 0.01327 0.37422 0.0
C1125 C 0.0402 0.01258 0.38895 0.0
C1126 C 0.00409 0.05768 0.36426 0.0
H1127 H 0.92669 0.0563 0.39597 0.0
H1128 H 0.95679 0.05475 0.39756 0.0
H1129 H 0.98049 0.08482 0.35528 0.0
H1130 H 0.06298 0.02382 0.34904 0.0
H1131 H 0.03316 0.02701 0.34957 0.0
H1132 H 0.01022 0.95381 0.39456 0.0
C1133 C 0.95082 0.0381 0.38697 0.0
C1134 C 0.98696 0.05644 0.36393 0.0
C1135 C 0.93368 0.03915 0.38602 0.0
C1136 C 0.05679 0.02113 0.36028 0.0
C1137 C 0.03967 0.02338 0.36063 0.0
C1138 C 0.00396 0.98379 0.38613 0.0
C1139 C 0.96017 0.01742 0.37413 0.0
C1140 C 0.97823 0.01937 0.37476 0.0
C1141 C 0.03112 0.01922 0.37496 0.0
C1142 C 0.01284 0.02064 0.37522 0.0
H1143 H 0.92925 0.97965 0.34898 0.0
H1144 H 0.9593 0.97988 0.3505 0.0
H1145 H 0.9802 0.95457 0.39439 0.0
H1146 H 0.06399 0.00337 0.39949 0.0
H1147 H 0.0341 0.01046 0.40023 0.0
C1148 C 0.05697 -0.00718 0.87047 0.0
C1149 C 0.06671 0.00342 0.8571 0.0
C1150 C 0.0399 -0.00184 0.86957 0.0
C1151 C 0.00512 0.98089 0.8443 0.0
H1152 H 0.9833 0.10286 0.87127 0.0
C1153 C 0.93495 0.01327 0.84206 0.0
C1154 C 0.9269 0.02282 0.85644 0.0
C1155 C 0.95206 0.01715 0.84115 0.0
C1156 C 0.98914 0.06796 0.8638 0.0
H1157 H 0.06629 0.02597 0.83223 0.0
H1158 H 0.03626 0.03308 0.8306 0.0
H1159 H 0.01319 0.09373 0.87189 0.0
H1160 H 0.93033 0.04458 0.8811 0.0
H1161 H 0.96012 0.04848 0.87971 0.0
H1162 H 0.98122 0.95231 0.83675 0.0
C1163 C 0.04195 0.02172 0.84176 0.0
C1164 C 0.00624 0.06314 0.86411 0.0
C1165 C 0.05906 0.01778 0.84272 0.0
C1166 C 0.93621 0.03755 0.86982 0.0
C1167 C 0.95332 0.04015 0.86898 0.0
C1168 C 0.98799 0.9847 0.84421 0.0
C1169 C 0.0323 0.0128 0.85523 0.0
C1170 C 0.01431 0.01935 0.85443 0.0
C1171 C 0.96149 0.02935 0.85466 0.0
C1172 C 0.97976 0.028 0.85405 0.0
H1173 H 0.06255 0.98203 0.88171 0.0
H1174 H 0.03261 0.99075 0.88006 0.0
H1175 H 0.01117 0.94653 0.83681 0.0
H1176 H 0.92803 0.00245 0.83153 0.0
H1177 H 0.95787 0.01003 0.82985 0.0
C1178 C 0.93545 0.97069 0.60862 0.0
C1179 C 0.9262 0.98082 0.62232 0.0
C1180 C 0.95258 0.97328 0.60911 0.0
C1181 C 0.988 0.95398 0.63431 0.0
H1182 H 0.00975 0.06979 0.60556 0.0
C1183 C 0.05784 -0.00574 0.63699 0.0
C1184 C 0.06614 -0.00027 0.6226 0.0
C1185 C 0.0407 -0.00409 0.63748 0.0
C1186 C 0.00391 0.0366 0.61353 0.0
H1187 H 0.92756 -0.00079 0.64735 0.0
H1188 H 0.95761 0.00211 0.64822 0.0
H1189 H 0.97987 0.0607 0.60518 0.0
H1190 H 0.0631 0.01185 0.59747 0.0
H1191 H 0.03325 0.01237 0.59824 0.0
H1192 H 0.01194 0.92783 0.64232 0.0
C1193 C 0.95154 -0.00706 0.63713 0.0
C1194 C 0.98682 0.03166 0.61333 0.0
C1195 C 0.93439 0.99147 0.6366 0.0
C1196 C 0.05703 0.00802 0.60875 0.0
C1197 C 0.03989 0.00864 0.60922 0.0
C1198 C 0.00512 0.95809 0.63435 0.0
C1199 C 0.96072 0.9849 0.62334 0.0
C1200 C 0.97876 0.99022 0.62368 0.0
C1201 C 0.03151 0.00202 0.62357 0.0
C1202 C 0.01329 -0.00064 0.62393 0.0
H1203 H 0.92947 0.96262 0.59743 0.0
H1204 H 0.95947 0.96645 0.59836 0.0
H1205 H 0.98199 0.92142 0.64234 0.0
H1206 H 0.06457 0.98842 0.64787 0.0
H1207 H 0.03466 -0.00792 0.64878 0.0
C1208 C 0.43531 0.50335 0.13224 0.0
C1209 C 0.42726 0.49093 0.11798 0.0
C1210 C 0.45242 0.50763 0.13269 0.0
C1211 C 0.48872 0.5414 0.10979 0.0
H1212 H 0.51074 0.414 0.13515 0.0
C1213 C 0.55758 0.49261 0.10274 0.0
C1214 C 0.56669 0.4786 0.11629 0.0
C1215 C 0.54048 0.49535 0.10338 0.0
C1216 C 0.50484 0.45067 0.12823 0.0
H1217 H 0.43051 0.47638 0.09296 0.0
H1218 H 0.46045 0.48567 0.09375 0.0
H1219 H 0.48087 0.42289 0.13608 0.0
H1220 H 0.5652 0.4562 0.14111 0.0
H1221 H 0.5354 0.46328 0.1424 0.0
H1222 H 0.51254 0.57046 0.10213 0.0
C1223 C 0.45352 0.49123 0.10452 0.0
C1224 C 0.48776 0.45555 0.12876 0.0
C1225 C 0.43647 0.48558 0.10411 0.0
C1226 C 0.55844 0.46642 0.13044 0.0
C1227 C 0.54135 0.47035 0.13116 0.0
C1228 C 0.50582 0.5374 0.10947 0.0
C1229 C 0.46159 0.50106 0.11885 0.0
C1230 C 0.47962 0.50033 0.11938 0.0
C1231 C 0.53218 0.48537 0.11766 0.0
C1232 C 0.51406 0.49129 0.11849 0.0
H1233 H 0.42846 0.50745 0.14309 0.0
H1234 H 0.45851 0.51531 0.14385 0.0
H1235 H 0.48259 0.57645 0.10253 0.0
H1236 H 0.56368 0.50172 0.09165 0.0
H1237 H 0.53379 0.50542 0.09267 0.0
C1238 C 0.43299 0.54032 0.39369 0.0
C1239 C 0.42528 0.50155 0.38245 0.0
C1240 C 0.44993 0.53635 0.39616 0.0
C1241 C 0.48662 0.54874 0.39033 0.0
H1242 H 0.50945 0.38729 0.38822 0.0
C1243 C 0.55531 0.52866 0.37574 0.0
C1244 C 0.56465 0.48104 0.38311 0.0
C1245 C 0.53838 0.53232 0.37816 0.0
C1246 C 0.50326 0.4327 0.38908 0.0
H1247 H 0.42932 0.42736 0.36519 0.0
H1248 H 0.45883 0.42123 0.36932 0.0
H1249 H 0.47951 0.38925 0.3883 0.0
H1250 H 0.5636 0.40125 0.39927 0.0
H1251 H 0.53403 0.40813 0.4036 0.0
H1252 H 0.51038 0.59219 0.39111 0.0
C1253 C 0.45176 0.45402 0.3764 0.0
C1254 C 0.48611 0.43385 0.38893 0.0
C1255 C 0.43484 0.45791 0.37395 0.0
C1256 C 0.55675 0.43823 0.39331 0.0
C1257 C 0.5398 0.44199 0.39576 0.0
C1258 C 0.50377 0.54759 0.39051 0.0
C1259 C 0.45951 0.49354 0.38744 0.0
C1260 C 0.47762 0.49193 0.38924 0.0
C1261 C 0.53041 0.48859 0.38805 0.0
C1262 C 0.51227 0.48963 0.38957 0.0
H1263 H 0.42597 0.5742 0.40051 0.0
H1264 H 0.45553 0.56691 0.40487 0.0
H1265 H 0.48043 0.59429 0.39048 0.0
H1266 H 0.56099 0.56242 0.36781 0.0
H1267 H 0.53146 0.56822 0.37188 0.0
C1268 C 0.43411 0.52186 0.87325 0.0
C1269 C 0.42515 0.50965 0.85947 0.0
C1270 C 0.45124 0.51923 0.87313 0.0
C1271 C 0.48722 0.53723 0.8489 0.0
H1272 H 0.50839 0.42309 0.87843 0.0
C1273 C 0.55734 0.50105 0.8485 0.0
C1274 C 0.5652 0.49441 0.86309 0.0
C1275 C 0.54022 0.4992 0.84748 0.0
C1276 C 0.50273 0.4559 0.87026 0.0
H1277 H 0.42704 0.48731 0.83468 0.0
H1278 H 0.45715 0.48462 0.83444 0.0
H1279 H 0.47849 0.43073 0.87791 0.0
H1280 H 0.56138 0.48044 0.88804 0.0
H1281 H 0.53155 0.47989 0.88641 0.0
H1282 H 0.51132 0.56475 0.84164 0.0
C1283 C 0.45082 0.49533 0.84531 0.0
C1284 C 0.48561 0.45991 0.86993 0.0
C1285 C 0.43365 0.49672 0.84547 0.0
C1286 C 0.55565 0.48516 0.87662 0.0
C1287 C 0.53852 0.48449 0.87565 0.0
C1288 C 0.50436 0.53416 0.84942 0.0
C1289 C 0.4597 0.50557 0.85919 0.0
C1290 C 0.47776 0.50071 0.85928 0.0
C1291 C 0.53058 0.49185 0.86107 0.0
C1292 C 0.51234 0.49357 0.86015 0.0
H1293 H 0.42789 0.53167 0.88423 0.0
H1294 H 0.4579 0.52772 0.88395 0.0
H1295 H 0.48137 0.56931 0.84066 0.0
H1296 H 0.56442 0.50761 0.83784 0.0
H1297 H 0.53457 0.50358 0.83601 0.0
C1298 C 0.43626 0.47581 0.60709 0.0
C1299 C 0.42764 0.49533 0.62054 0.0
C1300 C 0.45341 0.47654 0.60692 0.0
C1301 C 0.48945 0.46806 0.63174 0.0
H1302 H 0.51148 0.56313 0.59884 0.0
C1303 C 0.55901 0.50863 0.63374 0.0
C1304 C 0.56769 0.50508 0.61954 0.0
C1305 C 0.54189 0.51076 0.63376 0.0
C1306 C 0.50555 0.53561 0.60798 0.0
H1307 H 0.43014 0.5289 0.64451 0.0
H1308 H 0.46018 0.52855 0.64429 0.0
H1309 H 0.48153 0.556 0.59895 0.0
H1310 H 0.5654 0.50215 0.5942 0.0
H1311 H 0.53545 0.50337 0.59419 0.0
H1312 H 0.5133 0.44564 0.64056 0.0
C1313 C 0.45362 0.51344 0.63387 0.0
C1314 C 0.48843 0.53177 0.60805 0.0
C1315 C 0.43647 0.51381 0.63396 0.0
C1316 C 0.55898 0.50529 0.60532 0.0
C1317 C 0.54182 0.50623 0.60533 0.0
C1318 C 0.50657 0.47096 0.63154 0.0
C1319 C 0.46219 0.49565 0.62028 0.0
C1320 C 0.48027 0.49826 0.61998 0.0
C1321 C 0.53306 0.50809 0.61958 0.0
C1322 C 0.51484 0.50514 0.61972 0.0
H1323 H 0.42977 0.46159 0.59656 0.0
H1324 H 0.45983 0.46222 0.59636 0.0
H1325 H 0.48337 0.44145 0.64097 0.0
H1326 H 0.56545 0.50934 0.64488 0.0
H1327 H 0.53558 0.51397 0.64493 0.0
C1328 C 0.13072 0.72084 0.12882 0.0
C1329 C 0.13805 0.75809 0.11709 0.0
C1330 C 0.12839 0.65616 0.12647 0.0
C1331 C 0.13921 0.51927 0.10168 0.0
H1332 H 0.09643 0.46016 0.11573 0.0
C1333 C 0.11775 0.26053 0.09397 0.0
C1334 C 0.11494 0.23266 0.10872 0.0
C1335 C 0.11862 0.32649 0.09254 0.0
C1336 C 0.10833 0.47633 0.11163 0.0
H1337 H 0.14972 0.75693 0.09421 0.0
H1338 H 0.14538 0.64339 0.08996 0.0
H1339 H 0.10369 0.57184 0.11864 0.0
H1340 H 0.10961 0.2508 0.13324 0.0
H1341 H 0.11067 0.36606 0.13065 0.0
H1342 H 0.14379 0.42307 0.0948 0.0
C1343 C 0.14157 0.66411 0.10101 0.0
C1344 C 0.11258 0.53987 0.11344 0.0
C1345 C 0.14412 0.72894 0.10346 0.0
C1346 C 0.11186 0.27138 0.12176 0.0
C1347 C 0.11238 0.33712 0.12027 0.0
C1348 C 0.13487 0.45565 0.09972 0.0
C1349 C 0.1331 0.62778 0.11225 0.0
C1350 C 0.12825 0.56153 0.10896 0.0
C1351 C 0.11629 0.36502 0.10577 0.0
C1352 C 0.11958 0.43356 0.10509 0.0
H1353 H 0.12612 0.74227 0.13951 0.0
H1354 H 0.12232 0.62883 0.13557 0.0
H1355 H 0.15135 0.53467 0.09812 0.0
H1356 H 0.12025 0.23143 0.08376 0.0
H1357 H 0.12162 0.34735 0.08126 0.0
C1358 C 0.8636 0.23096 0.12943 0.0
C1359 C 0.85597 0.19422 0.11778 0.0
C1360 C 0.86663 0.29527 0.12689 0.0
C1361 C 0.85686 0.43251 0.10138 0.0
H1362 H 0.89921 0.49139 0.11655 0.0
C1363 C 0.87831 0.691 0.0931 0.0
C1364 C 0.88073 0.71956 0.1078 0.0
C1365 C 0.87773 0.6248 0.09189 0.0
C1366 C 0.88743 0.47532 0.11212 0.0
H1367 H 0.84466 0.19655 0.09472 0.0
H1368 H 0.85018 0.30896 0.09018 0.0
H1369 H 0.89159 0.38017 0.11983 0.0
H1370 H 0.88576 0.70272 0.13243 0.0
H1371 H 0.88533 0.58733 0.13023 0.0
H1372 H 0.85275 0.52827 0.0938 0.0
C1373 C 0.85369 0.28822 0.10133 0.0
C1374 C 0.88295 0.41195 0.11416 0.0
C1375 C 0.85047 0.22387 0.10395 0.0
C1376 C 0.8839 0.68149 0.12098 0.0
C1377 C 0.88369 0.61562 0.1197 0.0
C1378 C 0.86143 0.49587 0.0992 0.0
C1379 C 0.8623 0.32402 0.11257 0.0
C1380 C 0.86743 0.39025 0.10923 0.0
C1381 C 0.87998 0.58679 0.10529 0.0
C1382 C 0.87657 0.51803 0.10492 0.0
H1383 H 0.86781 0.20944 0.14027 0.0
H1384 H 0.8728 0.32205 0.13601 0.0
H1385 H 0.84481 0.41736 0.09749 0.0
H1386 H 0.87568 0.71967 0.08283 0.0
H1387 H 0.87488 0.60336 0.08066 0.0
C1388 C 0.14395 0.24885 0.38162 0.0
C1389 C 0.13643 0.22031 0.36857 0.0
C1390 C 0.14133 0.31321 0.3848 0.0
C1391 C 0.11084 0.43842 0.37616 0.0
H1392 H 0.14435 0.5545 0.39111 0.0
C1393 C 0.10964 0.70677 0.3673 0.0
C1394 C 0.11455 0.74625 0.37968 0.0
C1395 C 0.11014 0.64105 0.36899 0.0
C1396 C 0.1348 0.52218 0.38725 0.0
H1397 H 0.12149 0.23723 0.3479 0.0
H1398 H 0.11747 0.34964 0.35306 0.0
H1399 H 0.1512 0.44261 0.38711 0.0
H1400 H 0.12318 0.7488 0.40376 0.0
H1401 H 0.12449 0.63284 0.40659 0.0
H1402 H 0.0947 0.5187 0.37554 0.0
C1403 C 0.12482 0.32213 0.36121 0.0
C1404 C 0.13873 0.45829 0.38491 0.0
C1405 C 0.12727 0.25795 0.35815 0.0
C1406 C 0.1192 0.71913 0.39409 0.0
C1407 C 0.12006 0.6531 0.39568 0.0
C1408 C 0.10698 0.50222 0.37835 0.0
C1409 C 0.13126 0.34989 0.37488 0.0
C1410 C 0.1269 0.4162 0.3789 0.0
C1411 C 0.11587 0.61374 0.38301 0.0
C1412 C 0.11903 0.54486 0.38354 0.0
H1413 H 0.15097 0.22069 0.3899 0.0
H1414 H 0.14649 0.33334 0.3954 0.0
H1415 H 0.10131 0.40673 0.37198 0.0
H1416 H 0.10601 0.72674 0.35609 0.0
H1417 H 0.10698 0.61161 0.35901 0.0
C1418 C 0.85946 0.30974 0.35093 0.0
C1419 C 0.87058 0.27799 0.36081 0.0
C1420 C 0.85654 0.3743 0.35288 0.0
C1421 C 0.8602 0.4984 0.38316 0.0
H1422 H 0.85019 0.61109 0.34839 0.0
C1423 C 0.86605 0.76915 0.38178 0.0
C1424 C 0.85307 0.80363 0.3751 0.0
C1425 C 0.86529 0.7033 0.38248 0.0
C1426 C 0.85264 0.57962 0.3582 0.0
H1427 H 0.88843 0.28938 0.37951 0.0
H1428 H 0.88396 0.4032 0.38237 0.0
H1429 H 0.85696 0.50052 0.34315 0.0
H1430 H 0.82877 0.79813 0.36476 0.0
H1431 H 0.82775 0.68155 0.36538 0.0
H1432 H 0.85688 0.57939 0.39805 0.0
C1433 C 0.87695 0.37763 0.37361 0.0
C1434 C 0.85658 0.5165 0.35523 0.0
C1435 C 0.87966 0.31273 0.37186 0.0
C1436 C 0.83887 0.77204 0.36998 0.0
C1437 C 0.83829 0.70585 0.37032 0.0
C1438 C 0.85655 0.56189 0.38609 0.0
C1439 C 0.86492 0.40853 0.36453 0.0
C1440 C 0.86058 0.4754 0.36766 0.0
C1441 C 0.85171 0.67131 0.3762 0.0
C1442 C 0.8529 0.60281 0.3736 0.0
H1443 H 0.8522 0.28408 0.34237 0.0
H1444 H 0.84712 0.39649 0.34576 0.0
H1445 H 0.86281 0.46753 0.39303 0.0
H1446 H 0.87704 0.79301 0.38588 0.0
H1447 H 0.87581 0.67725 0.38692 0.0
C1448 C 0.85031 0.24625 0.8485 0.0
C1449 C 0.85372 0.21622 0.86285 0.0
C1450 C 0.8531 0.31148 0.84682 0.0
C1451 C 0.8793 0.43404 0.86468 0.0
H1452 H 0.85271 0.55363 0.84114 0.0
C1453 C 0.88119 0.70323 0.87284 0.0
C1454 C 0.88019 0.74208 0.85947 0.0
C1455 C 0.8803 0.63747 0.87138 0.0
C1456 C 0.86038 0.52032 0.8475 0.0
H1457 H 0.86105 0.2303 0.88703 0.0
H1458 H 0.86515 0.34424 0.88436 0.0
H1459 H 0.84421 0.44231 0.84277 0.0
H1460 H 0.8784 0.74295 0.83405 0.0
H1461 H 0.87658 0.62738 0.83156 0.0
H1462 H 0.89511 0.51243 0.86991 0.0
C1463 C 0.86103 0.3176 0.87422 0.0
C1464 C 0.85549 0.45684 0.84848 0.0
C1465 C 0.85849 0.25266 0.87582 0.0
C1466 C 0.87927 0.71398 0.84454 0.0
C1467 C 0.8781 0.6481 0.8431 0.0
C1468 C 0.88409 0.49738 0.8638 0.0
C1469 C 0.85916 0.3471 0.85953 0.0
C1470 C 0.8647 0.41348 0.85742 0.0
C1471 C 0.87818 0.60959 0.85656 0.0
C1472 C 0.8745 0.54125 0.85548 0.0
H1473 H 0.84676 0.21866 0.83832 0.0
H1474 H 0.8515 0.33307 0.83537 0.0
H1475 H 0.88693 0.40128 0.87125 0.0
H1476 H 0.88194 0.72376 0.88448 0.0
H1477 H 0.8803 0.60867 0.88194 0.0
C1478 C 0.12174 0.27952 0.84276 0.0
C1479 C 0.12165 0.25499 0.85813 0.0
C1480 C 0.12531 0.3434 0.84011 0.0
C1481 C 0.14609 0.4783 0.85882 0.0
H1482 H 0.11829 0.58264 0.83229 0.0
C1483 C 0.15208 0.75116 0.85626 0.0
C1484 C 0.13696 0.78068 0.85953 0.0
C1485 C 0.15258 0.68659 0.85251 0.0
C1486 C 0.1263 0.55378 0.83955 0.0
H1487 H 0.12427 0.27889 0.88281 0.0
H1488 H 0.13016 0.39044 0.87816 0.0
H1489 H 0.11393 0.46801 0.83317 0.0
H1490 H 0.11054 0.76612 0.86116 0.0
H1491 H 0.1115 0.65436 0.85483 0.0
H1492 H 0.15776 0.56452 0.86596 0.0
C1493 C 0.12794 0.35984 0.86816 0.0
C1494 C 0.12384 0.48836 0.84 0.0
C1495 C 0.12436 0.29616 0.87082 0.0
C1496 C 0.12241 0.74487 0.85879 0.0
C1497 C 0.12291 0.68095 0.85494 0.0
C1498 C 0.14854 0.54371 0.85836 0.0
C1499 C 0.12885 0.38359 0.85278 0.0
C1500 C 0.13326 0.45057 0.85016 0.0
C1501 C 0.13796 0.65119 0.8518 0.0
C1502 C 0.13818 0.58213 0.84925 0.0
H1503 H 0.11971 0.24896 0.83272 0.0
H1504 H 0.12584 0.36085 0.82814 0.0
H1505 H 0.15374 0.44973 0.86649 0.0
H1506 H 0.16347 0.77772 0.85667 0.0
H1507 H 0.16434 0.66431 0.85021 0.0
C1508 C 0.86532 0.73204 0.6055 0.0
C1509 C 0.8555 0.76992 0.61527 0.0
C1510 C 0.86753 0.66788 0.60881 0.0
C1511 C 0.85201 0.53171 0.63165 0.0
H1512 H 0.8967 0.47201 0.62546 0.0
C1513 C 0.87099 0.27057 0.64206 0.0
C1514 C 0.87702 0.24398 0.62809 0.0
C1515 C 0.86985 0.33656 0.64361 0.0
C1516 C 0.88422 0.48825 0.62738 0.0
H1517 H 0.83952 0.76986 0.63564 0.0
H1518 H 0.84352 0.65713 0.64156 0.0
H1519 H 0.89027 0.58387 0.62137 0.0
H1520 H 0.88765 0.26441 0.60532 0.0
H1521 H 0.88619 0.37939 0.60822 0.0
H1522 H 0.84601 0.43532 0.63744 0.0
C1523 C 0.84943 0.67715 0.63128 0.0
C1524 C 0.88048 0.55202 0.62489 0.0
C1525 C 0.84708 0.74155 0.62786 0.0
C1526 C 0.88297 0.28397 0.6162 0.0
C1527 C 0.88217 0.34963 0.61788 0.0
C1528 C 0.8558 0.46781 0.63427 0.0
C1529 C 0.86014 0.64029 0.62208 0.0
C1530 C 0.86423 0.57401 0.62647 0.0
C1531 C 0.87511 0.37644 0.63137 0.0
C1532 C 0.87184 0.44533 0.63169 0.0
H1533 H 0.8718 0.75257 0.5956 0.0
H1534 H 0.87541 0.64023 0.60118 0.0
H1535 H 0.83939 0.54725 0.63296 0.0
H1536 H 0.86619 0.24049 0.65132 0.0
H1537 H 0.8644 0.35639 0.65412 0.0
C1538 C 0.12816 0.24 0.60539 0.0
C1539 C 0.13524 0.20423 0.61752 0.0
C1540 C 0.12519 0.30448 0.6074 0.0
C1541 C 0.13423 0.44336 0.63238 0.0
H1542 H 0.09312 0.50322 0.6145 0.0
C1543 C 0.11294 0.70224 0.63831 0.0
C1544 C 0.11194 0.73085 0.62343 0.0
C1545 C 0.11321 0.6362 0.63967 0.0
C1546 C 0.10454 0.48684 0.61966 0.0
H1547 H 0.14553 0.20763 0.64097 0.0
H1548 H 0.13997 0.32073 0.6447 0.0
H1549 H 0.10031 0.39107 0.6126 0.0
H1550 H 0.10901 0.71378 0.59849 0.0
H1551 H 0.10899 0.59829 0.60093 0.0
H1552 H 0.13836 0.53967 0.6394 0.0
C1553 C 0.13693 0.29916 0.63353 0.0
C1554 C 0.10878 0.42297 0.61844 0.0
C1555 C 0.14017 0.23456 0.6314 0.0
C1556 C 0.10986 0.69272 0.61008 0.0
C1557 C 0.10979 0.62683 0.61148 0.0
C1558 C 0.12987 0.50717 0.63379 0.0
C1559 C 0.12893 0.33423 0.62172 0.0
C1560 C 0.1239 0.40091 0.62435 0.0
C1561 C 0.11208 0.59821 0.62621 0.0
C1562 C 0.1152 0.52953 0.62708 0.0
H1563 H 0.12442 0.21759 0.59451 0.0
H1564 H 0.11954 0.33065 0.59786 0.0
H1565 H 0.14598 0.42794 0.637 0.0
H1566 H 0.11464 0.7307 0.64878 0.0
H1567 H 0.11493 0.61481 0.65114 0.0
C1568 C 0.6127 0.783 0.12114 0.0
C1569 C 0.61733 0.7428 0.10881 0.0
C1570 C 0.61339 0.84856 0.11926 0.0
C1571 C 0.61006 0.98643 0.10946 0.0
H1572 H 0.65428 0.04619 0.10074 0.0
C1573 C 0.63034 0.22917 0.13025 0.0
C1574 C 0.63896 0.26796 0.11967 0.0
C1575 C 0.62814 0.16497 0.12708 0.0
C1576 C 0.64182 0.03038 0.10293 0.0
H1577 H 0.62571 0.73868 0.08468 0.0
H1578 H 0.62738 0.85455 0.08152 0.0
H1579 H 0.64744 0.93413 0.09676 0.0
H1580 H 0.653 0.26953 0.09803 0.0
H1581 H 0.64902 0.15665 0.0924 0.0
H1582 H 0.60441 0.08184 0.1159 0.0
C1583 C 0.62302 0.83492 0.09252 0.0
C1584 C 0.6379 0.96648 0.10059 0.0
C1585 C 0.62197 0.76901 0.0943 0.0
C1586 C 0.64636 0.24049 0.10641 0.0
C1587 C 0.64402 0.17604 0.10316 0.0
C1588 C 0.61392 0.05016 0.11168 0.0
C1589 C 0.61901 0.87499 0.10511 0.0
C1590 C 0.62213 0.94379 0.10433 0.0
C1591 C 0.63435 0.13835 0.11318 0.0
C1592 C 0.62999 0.07231 0.10899 0.0
H1593 H 0.60908 0.76369 0.13243 0.0
H1594 H 0.61038 0.87858 0.12918 0.0
H1595 H 0.59779 0.96992 0.11228 0.0
H1596 H 0.62468 0.24905 0.14066 0.0
H1597 H 0.6211 0.13655 0.13529 0.0
C1598 C 0.3494 0.71346 0.10488 0.0
C1599 C 0.35397 0.68405 0.11903 0.0
C1600 C 0.35234 0.77829 0.10263 0.0
C1601 C 0.38037 0.90143 0.11762 0.0
H1602 H 0.35194 0.01958 0.09563 0.0
C1603 C 0.38237 0.17049 0.12492 0.0
C1604 C 0.3803 0.20911 0.11164 0.0
C1605 C 0.38163 0.10471 0.12357 0.0
C1606 C 0.36013 0.98665 0.10152 0.0
H1607 H 0.36357 0.69966 0.14244 0.0
H1608 H 0.36802 0.81297 0.1388 0.0
H1609 H 0.34351 0.90864 0.09852 0.0
H1610 H 0.37666 0.20994 0.08643 0.0
H1611 H 0.37501 0.09394 0.0841 0.0
H1612 H 0.39663 0.98001 0.12118 0.0
C1613 C 0.36284 0.78586 0.12919 0.0
C1614 C 0.35528 0.92335 0.10323 0.0
C1615 C 0.36011 0.72121 0.13136 0.0
C1616 C 0.37841 0.18094 0.09681 0.0
C1617 C 0.37734 0.1149 0.0955 0.0
C1618 C 0.38513 0.96461 0.11601 0.0
C1619 C 0.35972 0.81445 0.11458 0.0
C1620 C 0.36516 0.88054 0.11167 0.0
C1621 C 0.37854 0.0765 0.10894 0.0
C1622 C 0.37489 0.008 0.10826 0.0
H1623 H 0.34476 0.68561 0.09515 0.0
H1624 H 0.34975 0.79909 0.09126 0.0
H1625 H 0.38851 0.8691 0.12375 0.0
H1626 H 0.38385 0.19128 0.13647 0.0
H1627 H 0.38248 0.07609 0.13412 0.0
C1628 C 0.63377 0.18529 0.35703 0.0
C1629 C 0.62206 0.2144 0.36678 0.0
C1630 C 0.63775 0.12167 0.3591 0.0
C1631 C 0.63503 -0.00641 0.38873 0.0
H1632 H 0.64464 0.88558 0.35305 0.0
C1633 C 0.62567 0.72618 0.38438 0.0
C1634 C 0.63832 0.68961 0.37785 0.0
C1635 C 0.62746 0.79153 0.3857 0.0
C1636 C 0.64237 0.91574 0.36312 0.0
H1637 H 0.60459 0.19925 0.38563 0.0
H1638 H 0.61086 0.0867 0.38866 0.0
H1639 H 0.63842 -0.0028 0.34874 0.0
H1640 H 0.663 0.69072 0.36827 0.0
H1641 H 0.66581 0.8068 0.36985 0.0
H1642 H 0.63775 0.91002 0.4029 0.0
C1643 C 0.61749 0.11381 0.3799 0.0
C1644 C 0.63875 0.97952 0.36068 0.0
C1645 C 0.61372 0.17792 0.37802 0.0
C1646 C 0.65312 0.7185 0.37334 0.0
C1647 C 0.65475 0.78434 0.37427 0.0
C1648 C 0.63835 0.92943 0.39112 0.0
C1649 C 0.62987 0.08554 0.37074 0.0
C1650 C 0.63471 0.01882 0.37343 0.0
C1651 C 0.64177 0.82109 0.38017 0.0
C1652 C 0.64174 0.8901 0.37829 0.0
H1653 H 0.64055 0.21242 0.34836 0.0
H1654 H 0.64745 0.1016 0.35196 0.0
H1655 H 0.6324 0.02305 0.39884 0.0
H1656 H 0.61422 0.70441 0.38806 0.0
H1657 H 0.61725 0.81937 0.3901 0.0
C1658 C 0.37798 0.80275 0.38223 0.0
C1659 C 0.37403 0.76863 0.3686 0.0
C1660 C 0.37496 0.8679 0.38297 0.0
C1661 C 0.36411 0.00769 0.3584 0.0
H1662 H 0.34678 0.07192 0.39775 0.0
C1663 C 0.34007 0.26141 0.36415 0.0
C1664 C 0.35079 0.29507 0.37395 0.0
C1665 C 0.33992 0.19514 0.36464 0.0
C1666 C 0.35142 0.05404 0.38668 0.0
H1667 H 0.36464 0.77638 0.34477 0.0
H1668 H 0.35892 0.88864 0.34625 0.0
H1669 H 0.35459 0.96015 0.39569 0.0
H1670 H 0.36862 0.28842 0.39276 0.0
H1671 H 0.36795 0.17253 0.394 0.0
H1672 H 0.36068 0.10162 0.34941 0.0
C1673 C 0.36463 0.86595 0.35628 0.0
C1674 C 0.35615 0.9906 0.38554 0.0
C1675 C 0.36789 0.80129 0.35545 0.0
C1676 C 0.36031 0.26276 0.3851 0.0
C1677 C 0.35986 0.19688 0.38587 0.0
C1678 C 0.35908 0.07065 0.35947 0.0
C1679 C 0.36775 0.89969 0.37017 0.0
C1680 C 0.36276 0.96699 0.37144 0.0
C1681 C 0.35016 0.16271 0.37523 0.0
C1682 C 0.35289 0.09429 0.37365 0.0
H1683 H 0.38285 0.77883 0.3925 0.0
H1684 H 0.37791 0.89299 0.3937 0.0
H1685 H 0.36939 0.99141 0.34746 0.0
H1686 H 0.33272 0.28597 0.35544 0.0
H1687 H 0.33243 0.16917 0.35631 0.0
C1688 C 0.36189 0.75889 0.87658 0.0
C1689 C 0.35294 0.72125 0.86605 0.0
C1690 C 0.36399 0.82342 0.87374 0.0
C1691 C 0.34982 0.96051 0.85054 0.0
H1692 H 0.39421 0.01922 0.85897 0.0
C1693 C 0.37001 0.22078 0.84096 0.0
C1694 C 0.37553 0.24758 0.85511 0.0
C1695 C 0.36864 0.15488 0.8395 0.0
C1696 C 0.38182 0.00327 0.85645 0.0
H1697 H 0.33825 0.72176 0.84481 0.0
H1698 H 0.34209 0.83533 0.83968 0.0
H1699 H 0.38744 0.90739 0.86254 0.0
H1700 H 0.38504 0.22732 0.87836 0.0
H1701 H 0.38311 0.11235 0.87565 0.0
H1702 H 0.34426 0.05717 0.84464 0.0
C1703 C 0.34739 0.81483 0.8502 0.0
C1704 C 0.37788 0.93954 0.85863 0.0
C1705 C 0.34513 0.75002 0.85316 0.0
C1706 C 0.38073 0.20769 0.86734 0.0
C1707 C 0.37967 0.14203 0.86577 0.0
C1708 C 0.35382 0.02441 0.84824 0.0
C1709 C 0.35738 0.8515 0.86017 0.0
C1710 C 0.36172 0.91789 0.85621 0.0
C1711 C 0.37315 0.11519 0.85204 0.0
C1712 C 0.36973 0.04648 0.85162 0.0
H1713 H 0.36787 0.73787 0.88671 0.0
H1714 H 0.37129 0.85093 0.88192 0.0
H1715 H 0.33728 0.94515 0.84857 0.0
H1716 H 0.36582 0.25071 0.83141 0.0
H1717 H 0.36363 0.13501 0.8288 0.0
C1718 C 0.64319 0.2564 0.85823 0.0
C1719 C 0.6359 0.28631 0.8712 0.0
C1720 C 0.64058 0.19167 0.85559 0.0
C1721 C 0.61031 0.06749 0.86573 0.0
H1722 H 0.64313 0.95077 0.84976 0.0
C1723 C 0.60879 0.79798 0.87366 0.0
C1724 C 0.61327 0.75963 0.86091 0.0
C1725 C 0.60938 0.86384 0.87234 0.0
C1726 C 0.63378 0.98328 0.85394 0.0
H1727 H 0.62147 0.27179 0.89229 0.0
H1728 H 0.61754 0.15861 0.8881 0.0
H1729 H 0.65029 0.06244 0.85356 0.0
H1730 H 0.6211 0.75938 0.83656 0.0
H1731 H 0.62251 0.87535 0.83439 0.0
H1732 H 0.59408 0.98753 0.86682 0.0
C1733 C 0.62465 0.18526 0.87959 0.0
C1734 C 0.63788 0.04703 0.85616 0.0
C1735 C 0.62706 0.24984 0.8821 0.0
C1736 C 0.61749 0.78809 0.84653 0.0
C1737 C 0.6184 0.85414 0.8453 0.0
C1738 C 0.60629 0.00376 0.86368 0.0
C1739 C 0.63079 0.15603 0.86598 0.0
C1740 C 0.62629 0.08943 0.86245 0.0
C1741 C 0.61474 0.8923 0.85833 0.0
C1742 C 0.61809 0.96099 0.85807 0.0
H1743 H 0.64996 0.28375 0.8496 0.0
H1744 H 0.64549 0.17045 0.84501 0.0
H1745 H 0.60095 0.09939 0.87014 0.0
H1746 H 0.60548 0.77701 0.88485 0.0
H1747 H 0.6066 0.89242 0.88257 0.0
C1748 C 0.36805 0.79839 0.60403 0.0
C1749 C 0.3767 0.76277 0.61527 0.0
C1750 C 0.36603 0.86341 0.60591 0.0
C1751 C 0.36639 0.98535 0.63693 0.0
H1752 H 0.36209 0.0989 0.60126 0.0
C1753 C 0.36909 0.26022 0.63473 0.0
C1754 C 0.35604 0.28975 0.62682 0.0
C1755 C 0.36967 0.19439 0.6359 0.0
C1756 C 0.36304 0.06726 0.61127 0.0
H1757 H 0.39117 0.768 0.63663 0.0
H1758 H 0.38831 0.88274 0.63952 0.0
H1759 H 0.36999 0.98888 0.59695 0.0
H1760 H 0.33296 0.27562 0.61468 0.0
H1761 H 0.33434 0.15908 0.61612 0.0
H1762 H 0.36035 0.06597 0.65122 0.0
C1763 C 0.38251 0.85975 0.62959 0.0
C1764 C 0.36759 0.0044 0.60885 0.0
C1765 C 0.38432 0.79422 0.62785 0.0
C1766 C 0.34304 0.25331 0.62092 0.0
C1767 C 0.34383 0.18717 0.62172 0.0
C1768 C 0.3622 0.04882 0.63936 0.0
C1769 C 0.3729 0.89465 0.6189 0.0
C1770 C 0.36918 0.96252 0.62163 0.0
C1771 C 0.35741 0.15761 0.62882 0.0
C1772 C 0.36036 0.08974 0.62651 0.0
H1773 H 0.36197 0.77567 0.5942 0.0
H1774 H 0.35837 0.88844 0.59754 0.0
H1775 H 0.36722 0.95413 0.64702 0.0
H1776 H 0.37921 0.28799 0.63935 0.0
H1777 H 0.38029 0.17215 0.64127 0.0
C1778 C 0.62869 0.74227 0.60623 0.0
C1779 C 0.6357 0.70638 0.61839 0.0
C1780 C 0.62536 0.80652 0.60836 0.0
C1781 C 0.63362 0.94466 0.63398 0.0
H1782 H 0.59325 0.00597 0.61494 0.0
C1783 C 0.61269 0.20413 0.63982 0.0
C1784 C 0.61239 0.233 0.62495 0.0
C1785 C 0.61264 0.13798 0.6411 0.0
C1786 C 0.60445 0.98917 0.62044 0.0
H1787 H 0.64537 0.70965 0.64209 0.0
H1788 H 0.63921 0.82197 0.646 0.0
H1789 H 0.60043 0.89383 0.6129 0.0
H1790 H 0.61038 0.2166 0.59991 0.0
H1791 H 0.60974 0.1011 0.60219 0.0
H1792 H 0.63755 0.04052 0.64148 0.0
C1793 C 0.63652 0.80077 0.63471 0.0
C1794 C 0.6087 0.92528 0.61913 0.0
C1795 C 0.64009 0.73651 0.63247 0.0
C1796 C 0.61066 0.19524 0.6115 0.0
C1797 C 0.61024 0.12934 0.6128 0.0
C1798 C 0.62924 0.00844 0.63549 0.0
C1799 C 0.62869 0.83599 0.62281 0.0
C1800 C 0.62358 0.90269 0.62548 0.0
C1801 C 0.61187 0.10025 0.62755 0.0
C1802 C 0.61484 0.03137 0.62838 0.0
H1803 H 0.62533 0.72019 0.5952 0.0
H1804 H 0.61985 0.83275 0.59876 0.0
H1805 H 0.6452 0.92897 0.63893 0.0
H1806 H 0.61414 0.2324 0.65035 0.0
H1807 H 0.61388 0.11627 0.65258 0.0
loop_
_geom_bond_atom_site_label_1
_geom_bond_atom_site_label_2
_geom_bond_distance
_geom_bond_site_symmetry_2
_ccdc_geom_bond_type
O0 Zn1 1.953 . S
O0 C16 1.225 . S
Zn1 O0 1.953 . S
Zn1 O2 1.949 . S
Zn1 O8 1.919 . S
Zn1 O13 1.924 . S
O2 Zn1 1.949 . S
O2 Zn3 1.923 . S
O2 Zn4 1.950 . S
O2 Zn5 1.945 1_545 S
Zn3 O2 1.923 . S
Zn3 O6 1.933 1_545 S
Zn3 O9 1.941 . S
Zn3 O10 1.965 . S
Zn4 O2 1.950 . S
Zn4 O11 1.938 . S
Zn4 O12 1.906 . S
Zn4 O22 1.953 . S
Zn5 O2 1.945 1_565 S
Zn5 O7 1.932 . S
Zn5 O14 1.977 . S
Zn5 O15 1.910 1_565 S
O6 Zn3 1.933 1_565 S
O6 C17 1.226 . S
O7 Zn5 1.932 . S
O7 C17 1.307 . S
O8 Zn1 1.919 . S
O8 C19 1.253 . S
O9 Zn3 1.941 . S
O9 C19 1.283 . S
O10 Zn3 1.965 . S
O10 C18 1.303 . S
O11 Zn4 1.938 . S
O11 C18 1.247 . S
O12 Zn4 1.906 . S
O12 C20 1.304 . S
O13 Zn1 1.924 . S
O13 C21 1.311 . S
O14 Zn5 1.977 . S
O14 C20 1.272 1_565 S
O15 Zn5 1.910 1_545 S
O15 C21 1.231 . S
C16 O0 1.225 . S
C16 O22 1.298 . S
C17 O6 1.226 . S
C17 O7 1.307 . S
C18 O10 1.303 . S
C18 O11 1.247 . S
C19 O8 1.253 . S
C19 O9 1.283 . S
C20 O12 1.304 . S
C20 O14 1.272 1_545 S
C21 O13 1.311 . S
C21 O15 1.231 . S
O22 Zn4 1.953 . S
O22 C16 1.298 . S
O23 Zn24 1.953 . S
O23 C39 1.225 . S
Zn24 O23 1.953 . S
Zn24 O25 1.949 . S
Zn24 O31 1.919 . S
Zn24 O36 1.924 . S
O25 Zn24 1.949 . S
O25 Zn26 1.923 . S
O25 Zn27 1.950 . S
O25 Zn28 1.945 1_565 S
Zn26 O25 1.923 . S
Zn26 O29 1.933 1_565 S
Zn26 O32 1.941 . S
Zn26 O33 1.965 . S
Zn27 O25 1.950 . S
Zn27 O34 1.938 . S
Zn27 O35 1.906 . S
Zn27 O45 1.953 . S
Zn28 O25 1.945 1_545 S
Zn28 O30 1.932 . S
Zn28 O37 1.977 . S
Zn28 O38 1.910 1_545 S
O29 Zn26 1.933 1_545 S
O29 C40 1.226 . S
O30 Zn28 1.932 . S
O30 C40 1.307 . S
O31 Zn24 1.919 . S
O31 C42 1.253 . S
O32 Zn26 1.941 . S
O32 C42 1.283 . S
O33 Zn26 1.965 . S
O33 C41 1.303 . S
O34 Zn27 1.938 . S
O34 C41 1.247 . S
O35 Zn27 1.906 . S
O35 C43 1.304 . S
O36 Zn24 1.924 . S
O36 C44 1.311 . S
O37 Zn28 1.977 . S
O37 C43 1.272 1_545 S
O38 Zn28 1.910 1_565 S
O38 C44 1.231 . S
C39 O23 1.225 . S
C39 O45 1.298 . S
C40 O29 1.226 . S
C40 O30 1.307 . S
C41 O33 1.303 . S
C41 O34 1.247 . S
C42 O31 1.253 . S
C42 O32 1.283 . S
C43 O35 1.304 . S
C43 O37 1.272 1_565 S
C44 O36 1.311 . S
C44 O38 1.231 . S
O45 Zn27 1.953 . S
O45 C39 1.298 . S
O46 Zn47 1.953 . S
O46 C62 1.225 . S
Zn47 O46 1.953 . S
Zn47 O48 1.949 . S
Zn47 O54 1.919 . S
Zn47 O59 1.924 . S
O48 Zn47 1.949 . S
O48 Zn49 1.923 . S
O48 Zn50 1.950 . S
O48 Zn51 1.945 1_565 S
Zn49 O48 1.923 . S
Zn49 O52 1.933 1_565 S
Zn49 O55 1.941 . S
Zn49 O56 1.965 . S
Zn50 O48 1.950 . S
Zn50 O57 1.938 . S
Zn50 O58 1.906 . S
Zn50 O68 1.953 . S
Zn51 O48 1.945 1_545 S
Zn51 O53 1.932 . S
Zn51 O60 1.977 . S
Zn51 O61 1.910 1_545 S
O52 Zn49 1.933 1_545 S
O52 C63 1.226 . S
O53 Zn51 1.932 . S
O53 C63 1.307 . S
O54 Zn47 1.919 . S
O54 C65 1.253 . S
O55 Zn49 1.941 . S
O55 C65 1.283 . S
O56 Zn49 1.965 . S
O56 C64 1.303 . S
O57 Zn50 1.938 . S
O57 C64 1.247 . S
O58 Zn50 1.906 . S
O58 C66 1.304 . S
O59 Zn47 1.924 . S
O59 C67 1.311 . S
O60 Zn51 1.977 . S
O60 C66 1.272 1_545 S
O61 Zn51 1.910 1_565 S
O61 C67 1.231 . S
C62 O46 1.225 . S
C62 O68 1.298 . S
C63 O52 1.226 . S
C63 O53 1.307 . S
C64 O56 1.303 . S
C64 O57 1.247 . S
C65 O54 1.253 . S
C65 O55 1.283 . S
C66 O58 1.304 . S
C66 O60 1.272 1_565 S
C67 O59 1.311 . S
C67 O61 1.231 . S
O68 Zn50 1.953 . S
O68 C62 1.298 . S
O69 Zn70 1.953 . S
O69 C85 1.225 . S
Zn70 O69 1.953 . S
Zn70 O71 1.949 . S
Zn70 O77 1.919 . S
Zn70 O82 1.924 . S
O71 Zn70 1.949 . S
O71 Zn72 1.923 . S
O71 Zn73 1.950 . S
O71 Zn74 1.945 1_545 S
Zn72 O71 1.923 . S
Zn72 O75 1.933 1_545 S
Zn72 O78 1.941 . S
Zn72 O79 1.965 . S
Zn73 O71 1.950 . S
Zn73 O80 1.938 . S
Zn73 O81 1.906 . S
Zn73 O91 1.953 . S
Zn74 O71 1.945 1_565 S
Zn74 O76 1.932 . S
Zn74 O83 1.977 . S
Zn74 O84 1.910 1_565 S
O75 Zn72 1.933 1_565 S
O75 C86 1.226 . S
O76 Zn74 1.932 . S
O76 C86 1.307 . S
O77 Zn70 1.919 . S
O77 C88 1.253 . S
O78 Zn72 1.941 . S
O78 C88 1.283 . S
O79 Zn72 1.965 . S
O79 C87 1.303 . S
O80 Zn73 1.938 . S
O80 C87 1.247 . S
O81 Zn73 1.906 . S
O81 C89 1.304 . S
O82 Zn70 1.924 . S
O82 C90 1.311 . S
O83 Zn74 1.977 . S
O83 C89 1.272 1_565 S
O84 Zn74 1.910 1_545 S
O84 C90 1.231 . S
C85 O69 1.225 . S
C85 O91 1.298 . S
C86 O75 1.226 . S
C86 O76 1.307 . S
C87 O79 1.303 . S
C87 O80 1.247 . S
C88 O77 1.253 . S
C88 O78 1.283 . S
C89 O81 1.304 . S
C89 O83 1.272 1_545 S
C90 O82 1.311 . S
C90 O84 1.231 . S
O91 Zn73 1.953 . S
O91 C85 1.298 . S
O92 Zn93 1.953 . S
O92 C108 1.225 . S
Zn93 O92 1.953 . S
Zn93 O94 1.949 . S
Zn93 O100 1.919 . S
Zn93 O105 1.924 . S
O94 Zn93 1.949 . S
O94 Zn95 1.915 1_565 S
O94 Zn96 1.950 . S
O94 Zn97 1.945 1_565 S
Zn95 O94 1.915 1_545 S
Zn95 O98 1.948 . S
Zn95 O101 1.939 1_545 S
Zn95 O102 1.960 1_545 S
Zn96 O94 1.950 . S
Zn96 O103 1.938 . S
Zn96 O104 1.906 . S
Zn96 O114 1.953 . S
Zn97 O94 1.945 1_545 S
Zn97 O99 1.932 . S
Zn97 O106 1.975 1_545 S
Zn97 O107 1.910 1_545 S
O98 Zn95 1.948 . S
O98 C109 1.226 . S
O99 Zn97 1.932 . S
O99 C109 1.307 . S
O100 Zn93 1.919 . S
O100 C111 1.253 . S
O101 Zn95 1.939 1_565 S
O101 C111 1.283 . S
O102 Zn95 1.960 1_565 S
O102 C110 1.303 . S
O103 Zn96 1.938 . S
O103 C110 1.247 . S
O104 Zn96 1.906 . S
O104 C112 1.304 . S
O105 Zn93 1.924 . S
O105 C113 1.311 . S
O106 Zn97 1.975 1_565 S
O106 C112 1.276 . S
O107 Zn97 1.910 1_565 S
O107 C113 1.231 . S
C108 O92 1.225 . S
C108 O114 1.298 . S
C109 O98 1.226 . S
C109 O99 1.307 . S
C110 O102 1.303 . S
C110 O103 1.247 . S
C111 O100 1.253 . S
C111 O101 1.283 . S
C112 O104 1.304 . S
C112 O106 1.276 . S
C113 O105 1.311 . S
C113 O107 1.231 . S
O114 Zn96 1.953 . S
O114 C108 1.298 . S
O115 Zn116 1.953 . S
O115 C131 1.225 . S
Zn116 O115 1.953 . S
Zn116 O117 1.949 . S
Zn116 O123 1.919 . S
Zn116 O128 1.924 . S
O117 Zn116 1.949 . S
O117 Zn118 1.915 1_545 S
O117 Zn119 1.950 . S
O117 Zn120 1.945 1_545 S
Zn118 O117 1.915 1_565 S
Zn118 O121 1.948 . S
Zn118 O124 1.939 1_565 S
Zn118 O125 1.960 1_565 S
Zn119 O117 1.950 . S
Zn119 O126 1.938 . S
Zn119 O127 1.906 . S
Zn119 O137 1.953 . S
Zn120 O117 1.945 1_565 S
Zn120 O122 1.932 . S
Zn120 O129 1.975 1_565 S
Zn120 O130 1.910 1_565 S
O121 Zn118 1.948 . S
O121 C132 1.226 . S
O122 Zn120 1.932 . S
O122 C132 1.307 . S
O123 Zn116 1.919 . S
O123 C134 1.253 . S
O124 Zn118 1.939 1_545 S
O124 C134 1.283 . S
O125 Zn118 1.960 1_545 S
O125 C133 1.303 . S
O126 Zn119 1.938 . S
O126 C133 1.247 . S
O127 Zn119 1.906 . S
O127 C135 1.304 . S
O128 Zn116 1.924 . S
O128 C136 1.311 . S
O129 Zn120 1.975 1_545 S
O129 C135 1.276 . S
O130 Zn120 1.910 1_545 S
O130 C136 1.231 . S
C131 O115 1.225 . S
C131 O137 1.298 . S
C132 O121 1.226 . S
C132 O122 1.307 . S
C133 O125 1.303 . S
C133 O126 1.247 . S
C134 O123 1.253 . S
C134 O124 1.283 . S
C135 O127 1.304 . S
C135 O129 1.276 . S
C136 O128 1.311 . S
C136 O130 1.231 . S
O137 Zn119 1.953 . S
O137 C131 1.298 . S
O138 Zn139 1.953 . S
O138 C154 1.225 . S
Zn139 O138 1.953 . S
Zn139 O140 1.949 . S
Zn139 O146 1.919 . S
Zn139 O151 1.924 . S
O140 Zn139 1.949 . S
O140 Zn141 1.915 1_545 S
O140 Zn142 1.950 . S
O140 Zn143 1.945 1_545 S
Zn141 O140 1.915 1_565 S
Zn141 O144 1.948 . S
Zn141 O147 1.939 1_565 S
Zn141 O148 1.960 1_565 S
Zn142 O140 1.950 . S
Zn142 O149 1.938 . S
Zn142 O150 1.906 . S
Zn142 O160 1.953 . S
Zn143 O140 1.945 1_565 S
Zn143 O145 1.932 . S
Zn143 O152 1.975 1_565 S
Zn143 O153 1.910 1_565 S
O144 Zn141 1.948 . S
O144 C155 1.226 . S
O145 Zn143 1.932 . S
O145 C155 1.307 . S
O146 Zn139 1.919 . S
O146 C157 1.253 . S
O147 Zn141 1.939 1_545 S
O147 C157 1.283 . S
O148 Zn141 1.960 1_545 S
O148 C156 1.303 . S
O149 Zn142 1.938 . S
O149 C156 1.247 . S
O150 Zn142 1.906 . S
O150 C158 1.304 . S
O151 Zn139 1.924 . S
O151 C159 1.311 . S
O152 Zn143 1.975 1_545 S
O152 C158 1.276 . S
O153 Zn143 1.910 1_545 S
O153 C159 1.231 . S
C154 O138 1.225 . S
C154 O160 1.298 . S
C155 O144 1.226 . S
C155 O145 1.307 . S
C156 O148 1.303 . S
C156 O149 1.247 . S
C157 O146 1.253 . S
C157 O147 1.283 . S
C158 O150 1.304 . S
C158 O152 1.276 . S
C159 O151 1.311 . S
C159 O153 1.231 . S
O160 Zn142 1.953 . S
O160 C154 1.298 . S
O161 Zn162 1.953 . S
O161 C177 1.225 . S
Zn162 O161 1.953 . S
Zn162 O163 1.949 . S
Zn162 O169 1.919 . S
Zn162 O174 1.924 . S
O163 Zn162 1.949 . S
O163 Zn164 1.915 1_565 S
O163 Zn165 1.950 . S
O163 Zn166 1.945 1_565 S
Zn164 O163 1.915 1_545 S
Zn164 O167 1.948 . S
Zn164 O170 1.939 1_545 S
Zn164 O171 1.960 1_545 S
Zn165 O163 1.950 . S
Zn165 O172 1.938 . S
Zn165 O173 1.906 . S
Zn165 O183 1.953 . S
Zn166 O163 1.945 1_545 S
Zn166 O168 1.932 . S
Zn166 O175 1.975 1_545 S
Zn166 O176 1.910 1_545 S
O167 Zn164 1.948 . S
O167 C178 1.226 . S
O168 Zn166 1.932 . S
O168 C178 1.307 . S
O169 Zn162 1.919 . S
O169 C180 1.253 . S
O170 Zn164 1.939 1_565 S
O170 C180 1.283 . S
O171 Zn164 1.960 1_565 S
O171 C179 1.303 . S
O172 Zn165 1.938 . S
O172 C179 1.247 . S
O173 Zn165 1.906 . S
O173 C181 1.304 . S
O174 Zn162 1.924 . S
O174 C182 1.311 . S
O175 Zn166 1.975 1_565 S
O175 C181 1.276 . S
O176 Zn166 1.910 1_565 S
O176 C182 1.231 . S
C177 O161 1.225 . S
C177 O183 1.298 . S
C178 O167 1.226 . S
C178 O168 1.307 . S
C179 O171 1.303 . S
C179 O172 1.247 . S
C180 O169 1.253 . S
C180 O170 1.283 . S
C181 O173 1.304 . S
C181 O175 1.276 . S
C182 O174 1.311 . S
C182 O176 1.231 . S
O183 Zn165 1.953 . S
O183 C177 1.298 . S
O184 Zn185 1.953 . S
O184 C200 1.225 . S
Zn185 O184 1.953 . S
Zn185 O186 1.949 . S
Zn185 O192 1.919 . S
Zn185 O197 1.924 . S
O186 Zn185 1.949 . S
O186 Zn187 1.923 . S
O186 Zn188 1.950 . S
O186 Zn189 1.945 . S
Zn187 O186 1.923 . S
Zn187 O190 1.933 . S
Zn187 O193 1.941 . S
Zn187 O194 1.965 . S
Zn188 O186 1.950 . S
Zn188 O195 1.938 . S
Zn188 O196 1.906 . S
Zn188 O206 1.953 . S
Zn189 O186 1.945 . S
Zn189 O191 1.932 . S
Zn189 O198 1.977 . S
Zn189 O199 1.910 . S
O190 Zn187 1.933 . S
O190 C201 1.226 . S
O191 Zn189 1.932 . S
O191 C201 1.307 . S
O192 Zn185 1.919 . S
O192 C203 1.253 . S
O193 Zn187 1.941 . S
O193 C203 1.283 . S
O194 Zn187 1.965 . S
O194 C202 1.303 . S
O195 Zn188 1.938 . S
O195 C202 1.247 . S
O196 Zn188 1.906 . S
O196 C204 1.304 . S
O197 Zn185 1.924 . S
O197 C205 1.311 . S
O198 Zn189 1.977 . S
O198 C204 1.272 . S
O199 Zn189 1.910 . S
O199 C205 1.231 . S
C200 O184 1.225 . S
C200 O206 1.298 . S
C201 O190 1.226 . S
C201 O191 1.307 . S
C202 O194 1.303 . S
C202 O195 1.247 . S
C203 O192 1.253 . S
C203 O193 1.283 . S
C204 O196 1.304 . S
C204 O198 1.272 . S
C205 O197 1.311 . S
C205 O199 1.231 . S
O206 Zn188 1.953 . S
O206 C200 1.298 . S
O207 Zn208 1.953 . S
O207 C223 1.225 . S
Zn208 O207 1.953 . S
Zn208 O209 1.949 . S
Zn208 O215 1.919 . S
Zn208 O220 1.924 . S
O209 Zn208 1.949 . S
O209 Zn210 1.923 . S
O209 Zn211 1.950 . S
O209 Zn212 1.945 . S
Zn210 O209 1.923 . S
Zn210 O213 1.933 . S
Zn210 O216 1.941 . S
Zn210 O217 1.965 . S
Zn211 O209 1.950 . S
Zn211 O218 1.938 . S
Zn211 O219 1.906 . S
Zn211 O229 1.953 . S
Zn212 O209 1.945 . S
Zn212 O214 1.932 . S
Zn212 O221 1.977 . S
Zn212 O222 1.910 . S
O213 Zn210 1.933 . S
O213 C224 1.226 . S
O214 Zn212 1.932 . S
O214 C224 1.307 . S
O215 Zn208 1.919 . S
O215 C226 1.253 . S
O216 Zn210 1.941 . S
O216 C226 1.283 . S
O217 Zn210 1.965 . S
O217 C225 1.303 . S
O218 Zn211 1.938 . S
O218 C225 1.247 . S
O219 Zn211 1.906 . S
O219 C227 1.304 . S
O220 Zn208 1.924 . S
O220 C228 1.311 . S
O221 Zn212 1.977 . S
O221 C227 1.272 . S
O222 Zn212 1.910 . S
O222 C228 1.231 . S
C223 O207 1.225 . S
C223 O229 1.298 . S
C224 O213 1.226 . S
C224 O214 1.307 . S
C225 O217 1.303 . S
C225 O218 1.247 . S
C226 O215 1.253 . S
C226 O216 1.283 . S
C227 O219 1.304 . S
C227 O221 1.272 . S
C228 O220 1.311 . S
C228 O222 1.231 . S
O229 Zn211 1.953 . S
O229 C223 1.298 . S
O230 Zn231 1.953 . S
O230 C246 1.225 . S
Zn231 O230 1.953 . S
Zn231 O232 1.949 . S
Zn231 O238 1.919 . S
Zn231 O243 1.924 . S
O232 Zn231 1.949 . S
O232 Zn233 1.923 . S
O232 Zn234 1.950 . S
O232 Zn235 1.945 . S
Zn233 O232 1.923 . S
Zn233 O236 1.933 . S
Zn233 O239 1.941 . S
Zn233 O240 1.965 . S
Zn234 O232 1.950 . S
Zn234 O241 1.938 . S
Zn234 O242 1.906 . S
Zn234 O252 1.953 . S
Zn235 O232 1.945 . S
Zn235 O237 1.932 . S
Zn235 O244 1.977 . S
Zn235 O245 1.910 . S
O236 Zn233 1.933 . S
O236 C247 1.226 . S
O237 Zn235 1.932 . S
O237 C247 1.307 . S
O238 Zn231 1.919 . S
O238 C249 1.253 . S
O239 Zn233 1.941 . S
O239 C249 1.283 . S
O240 Zn233 1.965 . S
O240 C248 1.303 . S
O241 Zn234 1.938 . S
O241 C248 1.247 . S
O242 Zn234 1.906 . S
O242 C250 1.304 . S
O243 Zn231 1.924 . S
O243 C251 1.311 . S
O244 Zn235 1.977 . S
O244 C250 1.272 . S
O245 Zn235 1.910 . S
O245 C251 1.231 . S
C246 O230 1.225 . S
C246 O252 1.298 . S
C247 O236 1.226 . S
C247 O237 1.307 . S
C248 O240 1.303 . S
C248 O241 1.247 . S
C249 O238 1.253 . S
C249 O239 1.283 . S
C250 O242 1.304 . S
C250 O244 1.272 . S
C251 O243 1.311 . S
C251 O245 1.231 . S
O252 Zn234 1.953 . S
O252 C246 1.298 . S
O253 Zn254 1.953 . S
O253 C269 1.225 . S
Zn254 O253 1.953 . S
Zn254 O255 1.949 . S
Zn254 O261 1.919 . S
Zn254 O266 1.924 . S
O255 Zn254 1.949 . S
O255 Zn256 1.923 . S
O255 Zn257 1.950 . S
O255 Zn258 1.945 . S
Zn256 O255 1.923 . S
Zn256 O259 1.933 . S
Zn256 O262 1.941 . S
Zn256 O263 1.965 . S
Zn257 O255 1.950 . S
Zn257 O264 1.938 . S
Zn257 O265 1.906 . S
Zn257 O275 1.953 . S
Zn258 O255 1.945 . S
Zn258 O260 1.932 . S
Zn258 O267 1.977 . S
Zn258 O268 1.910 . S
O259 Zn256 1.933 . S
O259 C270 1.226 . S
O260 Zn258 1.932 . S
O260 C270 1.307 . S
O261 Zn254 1.919 . S
O261 C272 1.253 . S
O262 Zn256 1.941 . S
O262 C272 1.283 . S
O263 Zn256 1.965 . S
O263 C271 1.303 . S
O264 Zn257 1.938 . S
O264 C271 1.247 . S
O265 Zn257 1.906 . S
O265 C273 1.304 . S
O266 Zn254 1.924 . S
O266 C274 1.311 . S
O267 Zn258 1.977 . S
O267 C273 1.272 . S
O268 Zn258 1.910 . S
O268 C274 1.231 . S
C269 O253 1.225 . S
C269 O275 1.298 . S
C270 O259 1.226 . S
C270 O260 1.307 . S
C271 O263 1.303 . S
C271 O264 1.247 . S
C272 O261 1.253 . S
C272 O262 1.283 . S
C273 O265 1.304 . S
C273 O267 1.272 . S
C274 O266 1.311 . S
C274 O268 1.231 . S
O275 Zn257 1.953 . S
O275 C269 1.298 . S
O276 Zn277 1.953 . S
O276 C292 1.225 . S
Zn277 O276 1.953 . S
Zn277 O278 1.949 . S
Zn277 O284 1.919 . S
Zn277 O289 1.924 . S
O278 Zn277 1.949 . S
O278 Zn279 1.923 . S
O278 Zn280 1.950 . S
O278 Zn281 1.945 . S
Zn279 O278 1.923 . S
Zn279 O282 1.933 . S
Zn279 O285 1.941 . S
Zn279 O286 1.965 . S
Zn280 O278 1.950 . S
Zn280 O287 1.938 . S
Zn280 O288 1.906 . S
Zn280 O298 1.953 . S
Zn281 O278 1.945 . S
Zn281 O283 1.932 . S
Zn281 O290 1.977 . S
Zn281 O291 1.910 . S
O282 Zn279 1.933 . S
O282 C293 1.226 . S
O283 Zn281 1.932 . S
O283 C293 1.307 . S
O284 Zn277 1.919 . S
O284 C295 1.253 . S
O285 Zn279 1.941 . S
O285 C295 1.283 . S
O286 Zn279 1.965 . S
O286 C294 1.303 . S
O287 Zn280 1.938 . S
O287 C294 1.247 . S
O288 Zn280 1.906 . S
O288 C296 1.304 . S
O289 Zn277 1.924 . S
O289 C297 1.311 . S
O290 Zn281 1.977 . S
O290 C296 1.272 . S
O291 Zn281 1.910 . S
O291 C297 1.231 . S
C292 O276 1.225 . S
C292 O298 1.298 . S
C293 O282 1.226 . S
C293 O283 1.307 . S
C294 O286 1.303 . S
C294 O287 1.247 . S
C295 O284 1.253 . S
C295 O285 1.283 . S
C296 O288 1.304 . S
C296 O290 1.272 . S
C297 O289 1.311 . S
C297 O291 1.231 . S
O298 Zn280 1.953 . S
O298 C292 1.298 . S
O299 Zn300 1.953 . S
O299 C315 1.225 . S
Zn300 O299 1.953 . S
Zn300 O301 1.949 . S
Zn300 O307 1.919 . S
Zn300 O312 1.924 . S
O301 Zn300 1.949 . S
O301 Zn302 1.923 . S
O301 Zn303 1.950 . S
O301 Zn304 1.945 . S
Zn302 O301 1.923 . S
Zn302 O305 1.933 . S
Zn302 O308 1.941 . S
Zn302 O309 1.965 . S
Zn303 O301 1.950 . S
Zn303 O310 1.938 . S
Zn303 O311 1.906 . S
Zn303 O321 1.953 . S
Zn304 O301 1.945 . S
Zn304 O306 1.932 . S
Zn304 O313 1.977 . S
Zn304 O314 1.910 . S
O305 Zn302 1.933 . S
O305 C316 1.226 . S
O306 Zn304 1.932 . S
O306 C316 1.307 . S
O307 Zn300 1.919 . S
O307 C318 1.253 . S
O308 Zn302 1.941 . S
O308 C318 1.283 . S
O309 Zn302 1.965 . S
O309 C317 1.303 . S
O310 Zn303 1.938 . S
O310 C317 1.247 . S
O311 Zn303 1.906 . S
O311 C319 1.304 . S
O312 Zn300 1.924 . S
O312 C320 1.311 . S
O313 Zn304 1.977 . S
O313 C319 1.272 . S
O314 Zn304 1.910 . S
O314 C320 1.231 . S
C315 O299 1.225 . S
C315 O321 1.298 . S
C316 O305 1.226 . S
C316 O306 1.307 . S
C317 O309 1.303 . S
C317 O310 1.247 . S
C318 O307 1.253 . S
C318 O308 1.283 . S
C319 O311 1.304 . S
C319 O313 1.272 . S
C320 O312 1.311 . S
C320 O314 1.231 . S
O321 Zn303 1.953 . S
O321 C315 1.298 . S
O322 Zn323 1.953 . S
O322 C338 1.225 . S
Zn323 O322 1.953 . S
Zn323 O324 1.949 . S
Zn323 O330 1.919 . S
Zn323 O335 1.924 . S
O324 Zn323 1.949 . S
O324 Zn325 1.923 . S
O324 Zn326 1.950 . S
O324 Zn327 1.945 . S
Zn325 O324 1.923 . S
Zn325 O328 1.933 . S
Zn325 O331 1.941 . S
Zn325 O332 1.965 . S
Zn326 O324 1.950 . S
Zn326 O333 1.938 . S
Zn326 O334 1.906 . S
Zn326 O344 1.953 . S
Zn327 O324 1.945 . S
Zn327 O329 1.932 . S
Zn327 O336 1.977 . S
Zn327 O337 1.910 . S
O328 Zn325 1.933 . S
O328 C339 1.226 . S
O329 Zn327 1.932 . S
O329 C339 1.307 . S
O330 Zn323 1.919 . S
O330 C341 1.253 . S
O331 Zn325 1.941 . S
O331 C341 1.283 . S
O332 Zn325 1.965 . S
O332 C340 1.303 . S
O333 Zn326 1.938 . S
O333 C340 1.247 . S
O334 Zn326 1.906 . S
O334 C342 1.304 . S
O335 Zn323 1.924 . S
O335 C343 1.311 . S
O336 Zn327 1.977 . S
O336 C342 1.272 . S
O337 Zn327 1.910 . S
O337 C343 1.231 . S
C338 O322 1.225 . S
C338 O344 1.298 . S
C339 O328 1.226 . S
C339 O329 1.307 . S
C340 O332 1.303 . S
C340 O333 1.247 . S
C341 O330 1.253 . S
C341 O331 1.283 . S
C342 O334 1.304 . S
C342 O336 1.272 . S
C343 O335 1.311 . S
C343 O337 1.231 . S
O344 Zn326 1.953 . S
O344 C338 1.298 . S
O345 Zn346 1.953 . S
O345 C361 1.225 . S
Zn346 O345 1.953 . S
Zn346 O347 1.949 . S
Zn346 O353 1.919 . S
Zn346 O358 1.924 . S
O347 Zn346 1.949 . S
O347 Zn348 1.923 . S
O347 Zn349 1.950 . S
O347 Zn350 1.945 . S
Zn348 O347 1.923 . S
Zn348 O351 1.933 . S
Zn348 O354 1.941 . S
Zn348 O355 1.965 . S
Zn349 O347 1.950 . S
Zn349 O356 1.938 . S
Zn349 O357 1.906 . S
Zn349 O367 1.953 . S
Zn350 O347 1.945 . S
Zn350 O352 1.932 . S
Zn350 O359 1.977 . S
Zn350 O360 1.910 . S
O351 Zn348 1.933 . S
O351 C362 1.226 . S
O352 Zn350 1.932 . S
O352 C362 1.307 . S
O353 Zn346 1.919 . S
O353 C364 1.253 . S
O354 Zn348 1.941 . S
O354 C364 1.283 . S
O355 Zn348 1.965 . S
O355 C363 1.303 . S
O356 Zn349 1.938 . S
O356 C363 1.247 . S
O357 Zn349 1.906 . S
O357 C365 1.304 . S
O358 Zn346 1.924 . S
O358 C366 1.311 . S
O359 Zn350 1.977 . S
O359 C365 1.272 . S
O360 Zn350 1.910 . S
O360 C366 1.231 . S
C361 O345 1.225 . S
C361 O367 1.298 . S
C362 O351 1.226 . S
C362 O352 1.307 . S
C363 O355 1.303 . S
C363 O356 1.247 . S
C364 O353 1.253 . S
C364 O354 1.283 . S
C365 O357 1.304 . S
C365 O359 1.272 . S
C366 O358 1.311 . S
C366 O360 1.231 . S
O367 Zn349 1.953 . S
O367 C361 1.298 . S
C368 C369 1.349 . S
C368 C370 1.327 . S
C368 H393 0.950 . S
C369 C368 1.349 . S
C369 C385 1.349 . S
C370 C368 1.327 . S
C370 C389 1.429 . S
C370 H394 0.950 . S
C371 C388 1.574 . S
C371 C390 1.368 . S
C371 H395 0.949 . S
H372 C376 0.949 . S
C373 C374 1.349 . S
C373 C375 1.327 . S
C373 H396 0.950 . S
C374 C373 1.349 . S
C374 C386 1.349 . S
C375 C373 1.327 . S
C375 C391 1.429 . S
C375 H397 0.950 . S
C376 H372 0.949 . S
C376 C384 1.574 . S
C376 C392 1.368 . S
H377 C385 0.950 . S
H378 C383 0.950 . S
H379 C384 0.949 . S
H380 C386 0.950 . S
H381 C387 0.950 . S
H382 C388 0.949 . S
C383 H378 0.950 . S
C383 C385 1.327 . S
C383 C389 1.429 . S
C384 C376 1.574 . S
C384 H379 0.949 . S
C384 C390 1.368 . S
C385 C369 1.349 . S
C385 H377 0.950 . S
C385 C383 1.327 . S
C386 C374 1.349 . S
C386 H380 0.950 . S
C386 C387 1.327 . S
C387 H381 0.950 . S
C387 C386 1.327 . S
C387 C391 1.429 . S
C388 C371 1.574 . S
C388 H382 0.949 . S
C388 C392 1.368 . S
C389 C370 1.429 . S
C389 C383 1.429 . S
C389 C390 1.523 . S
C390 C371 1.368 . S
C390 C384 1.368 . S
C390 C389 1.523 . S
C391 C375 1.429 . S
C391 C387 1.429 . S
C391 C392 1.523 . S
C392 C376 1.368 . S
C392 C388 1.368 . S
C392 C391 1.523 . S
H393 C368 0.950 . S
H394 C370 0.950 . S
H395 C371 0.949 . S
H396 C373 0.950 . S
H397 C375 0.950 . S
C398 C399 1.349 . S
C398 C400 1.327 . S
C398 H423 0.950 . S
C399 C398 1.349 . S
C399 C415 1.349 . S
C400 C398 1.327 . S
C400 C419 1.429 . S
C400 H424 0.950 . S
C401 C418 1.574 . S
C401 C420 1.368 . S
C401 H425 0.949 . S
H402 C406 0.949 . S
C403 C404 1.349 . S
C403 C405 1.327 . S
C403 H426 0.950 . S
C404 C403 1.349 . S
C404 C416 1.349 . S
C405 C403 1.327 . S
C405 C421 1.429 . S
C405 H427 0.950 . S
C406 H402 0.949 . S
C406 C414 1.574 . S
C406 C422 1.368 . S
H407 C415 0.950 . S
H408 C413 0.950 . S
H409 C414 0.949 . S
H410 C416 0.950 . S
H411 C417 0.950 . S
H412 C418 0.949 . S
C413 H408 0.950 . S
C413 C415 1.327 . S
C413 C419 1.429 . S
C414 C406 1.574 . S
C414 H409 0.949 . S
C414 C420 1.368 . S
C415 C399 1.349 . S
C415 H407 0.950 . S
C415 C413 1.327 . S
C416 C404 1.349 . S
C416 H410 0.950 . S
C416 C417 1.327 . S
C417 H411 0.950 . S
C417 C416 1.327 . S
C417 C421 1.429 . S
C418 C401 1.574 . S
C418 H412 0.949 . S
C418 C422 1.368 . S
C419 C400 1.429 . S
C419 C413 1.429 . S
C419 C420 1.523 . S
C420 C401 1.368 . S
C420 C414 1.368 . S
C420 C419 1.523 . S
C421 C405 1.429 . S
C421 C417 1.429 . S
C421 C422 1.523 . S
C422 C406 1.368 . S
C422 C418 1.368 . S
C422 C421 1.523 . S
H423 C398 0.950 . S
H424 C400 0.950 . S
H425 C401 0.949 . S
H426 C403 0.950 . S
H427 C405 0.950 . S
C428 C429 1.349 . S
C428 C430 1.327 . S
C428 H453 0.950 . S
C429 C428 1.349 . S
C429 C445 1.349 . S
C430 C428 1.327 . S
C430 C449 1.429 . S
C430 H454 0.950 . S
C431 C448 1.574 . S
C431 C450 1.368 . S
C431 H455 0.949 . S
H432 C436 0.949 . S
C433 C434 1.349 . S
C433 C435 1.327 . S
C433 H456 0.950 . S
C434 C433 1.349 . S
C434 C446 1.349 . S
C435 C433 1.327 . S
C435 C451 1.429 . S
C435 H457 0.950 . S
C436 H432 0.949 . S
C436 C444 1.574 . S
C436 C452 1.368 . S
H437 C445 0.950 . S
H438 C443 0.950 . S
H439 C444 0.949 . S
H440 C446 0.950 . S
H441 C447 0.950 . S
H442 C448 0.949 . S
C443 H438 0.950 . S
C443 C445 1.327 . S
C443 C449 1.429 . S
C444 C436 1.574 . S
C444 H439 0.949 . S
C444 C450 1.368 . S
C445 C429 1.349 . S
C445 H437 0.950 . S
C445 C443 1.327 . S
C446 C434 1.349 . S
C446 H440 0.950 . S
C446 C447 1.327 . S
C447 H441 0.950 . S
C447 C446 1.327 . S
C447 C451 1.429 . S
C448 C431 1.574 . S
C448 H442 0.949 . S
C448 C452 1.368 . S
C449 C430 1.429 . S
C449 C443 1.429 . S
C449 C450 1.523 . S
C450 C431 1.368 . S
C450 C444 1.368 . S
C450 C449 1.523 . S
C451 C435 1.429 . S
C451 C447 1.429 . S
C451 C452 1.523 . S
C452 C436 1.368 . S
C452 C448 1.368 . S
C452 C451 1.523 . S
H453 C428 0.950 . S
H454 C430 0.950 . S
H455 C431 0.949 . S
H456 C433 0.950 . S
H457 C435 0.950 . S
C458 C459 1.349 . S
C458 C460 1.327 . S
C458 H483 0.950 . S
C459 C458 1.349 . S
C459 C475 1.349 . S
C460 C458 1.327 . S
C460 C479 1.429 . S
C460 H484 0.950 . S
C461 C478 1.574 . S
C461 C480 1.368 . S
C461 H485 0.949 . S
H462 C466 0.949 . S
C463 C464 1.349 . S
C463 C465 1.327 . S
C463 H486 0.950 . S
C464 C463 1.349 . S
C464 C476 1.349 . S
C465 C463 1.327 . S
C465 C481 1.429 . S
C465 H487 0.950 . S
C466 H462 0.949 . S
C466 C474 1.574 . S
C466 C482 1.368 . S
H467 C475 0.950 . S
H468 C473 0.950 . S
H469 C474 0.949 . S
H470 C476 0.950 . S
H471 C477 0.950 . S
H472 C478 0.949 . S
C473 H468 0.950 . S
C473 C475 1.327 . S
C473 C479 1.429 . S
C474 C466 1.574 . S
C474 H469 0.949 . S
C474 C480 1.368 . S
C475 C459 1.349 . S
C475 H467 0.950 . S
C475 C473 1.327 . S
C476 C464 1.349 . S
C476 H470 0.950 . S
C476 C477 1.327 . S
C477 H471 0.950 . S
C477 C476 1.327 . S
C477 C481 1.429 . S
C478 C461 1.574 . S
C478 H472 0.949 . S
C478 C482 1.368 . S
C479 C460 1.429 . S
C479 C473 1.429 . S
C479 C480 1.523 . S
C480 C461 1.368 . S
C480 C474 1.368 . S
C480 C479 1.523 . S
C481 C465 1.429 . S
C481 C477 1.429 . S
C481 C482 1.523 . S
C482 C466 1.368 . S
C482 C478 1.368 . S
C482 C481 1.523 . S
H483 C458 0.950 . S
H484 C460 0.950 . S
H485 C461 0.949 . S
H486 C463 0.950 . S
H487 C465 0.950 . S
C488 C489 1.349 . S
C488 C490 1.327 . S
C488 H513 0.950 . S
C489 C488 1.349 . S
C489 C505 1.349 . S
C490 C488 1.327 . S
C490 C509 1.429 . S
C490 H514 0.950 . S
C491 C508 1.574 . S
C491 C510 1.368 . S
C491 H515 0.949 . S
H492 C496 0.949 . S
C493 C494 1.349 . S
C493 C495 1.327 . S
C493 H516 0.950 . S
C494 C493 1.349 . S
C494 C506 1.349 . S
C495 C493 1.327 . S
C495 C511 1.429 . S
C495 H517 0.950 . S
C496 H492 0.949 . S
C496 C504 1.574 . S
C496 C512 1.368 . S
H497 C505 0.950 . S
H498 C503 0.950 . S
H499 C504 0.949 . S
H500 C506 0.950 . S
H501 C507 0.950 . S
H502 C508 0.949 . S
C503 H498 0.950 . S
C503 C505 1.327 . S
C503 C509 1.429 . S
C504 C496 1.574 . S
C504 H499 0.949 . S
C504 C510 1.368 . S
C505 C489 1.349 . S
C505 H497 0.950 . S
C505 C503 1.327 . S
C506 C494 1.349 . S
C506 H500 0.950 . S
C506 C507 1.327 . S
C507 H501 0.950 . S
C507 C506 1.327 . S
C507 C511 1.429 . S
C508 C491 1.574 . S
C508 H502 0.949 . S
C508 C512 1.368 . S
C509 C490 1.429 . S
C509 C503 1.429 . S
C509 C510 1.523 . S
C510 C491 1.368 . S
C510 C504 1.368 . S
C510 C509 1.523 . S
C511 C495 1.429 . S
C511 C507 1.429 . S
C511 C512 1.523 . S
C512 C496 1.368 . S
C512 C508 1.368 . S
C512 C511 1.523 . S
H513 C488 0.950 . S
H514 C490 0.950 . S
H515 C491 0.949 . S
H516 C493 0.950 . S
H517 C495 0.950 . S
C518 C519 1.349 . S
C518 C520 1.327 . S
C518 H543 0.950 . S
C519 C518 1.349 . S
C519 C535 1.349 . S
C520 C518 1.327 . S
C520 C539 1.429 . S
C520 H544 0.950 . S
C521 C538 1.574 . S
C521 C540 1.368 . S
C521 H545 0.949 . S
H522 C526 0.949 . S
C523 C524 1.349 . S
C523 C525 1.327 . S
C523 H546 0.950 . S
C524 C523 1.349 . S
C524 C536 1.349 . S
C525 C523 1.327 . S
C525 C541 1.429 . S
C525 H547 0.950 . S
C526 H522 0.949 . S
C526 C534 1.574 . S
C526 C542 1.368 . S
H527 C535 0.950 . S
H528 C533 0.950 . S
H529 C534 0.949 . S
H530 C536 0.950 . S
H531 C537 0.950 . S
H532 C538 0.949 . S
C533 H528 0.950 . S
C533 C535 1.327 . S
C533 C539 1.429 . S
C534 C526 1.574 . S
C534 H529 0.949 . S
C534 C540 1.368 . S
C535 C519 1.349 . S
C535 H527 0.950 . S
C535 C533 1.327 . S
C536 C524 1.349 . S
C536 H530 0.950 . S
C536 C537 1.327 . S
C537 H531 0.950 . S
C537 C536 1.327 . S
C537 C541 1.429 . S
C538 C521 1.574 . S
C538 H532 0.949 . S
C538 C542 1.368 . S
C539 C520 1.429 . S
C539 C533 1.429 . S
C539 C540 1.523 . S
C540 C521 1.368 . S
C540 C534 1.368 . S
C540 C539 1.523 . S
C541 C525 1.429 . S
C541 C537 1.429 . S
C541 C542 1.523 . S
C542 C526 1.368 . S
C542 C538 1.368 . S
C542 C541 1.523 . S
H543 C518 0.950 . S
H544 C520 0.950 . S
H545 C521 0.949 . S
H546 C523 0.950 . S
H547 C525 0.950 . S
C548 C549 1.349 . S
C548 C550 1.327 . S
C548 H573 0.950 . S
C549 C548 1.349 . S
C549 C565 1.349 . S
C550 C548 1.327 . S
C550 C569 1.429 . S
C550 H574 0.950 . S
C551 C568 1.574 . S
C551 C570 1.368 . S
C551 H575 0.949 . S
H552 C556 0.949 . S
C553 C554 1.349 . S
C553 C555 1.327 . S
C553 H576 0.950 . S
C554 C553 1.349 . S
C554 C566 1.349 . S
C555 C553 1.327 . S
C555 C571 1.429 . S
C555 H577 0.950 . S
C556 H552 0.949 . S
C556 C564 1.574 . S
C556 C572 1.368 . S
H557 C565 0.950 . S
H558 C563 0.950 . S
H559 C564 0.949 . S
H560 C566 0.950 . S
H561 C567 0.950 . S
H562 C568 0.949 . S
C563 H558 0.950 . S
C563 C565 1.327 . S
C563 C569 1.429 . S
C564 C556 1.574 . S
C564 H559 0.949 . S
C564 C570 1.368 . S
C565 C549 1.349 . S
C565 H557 0.950 . S
C565 C563 1.327 . S
C566 C554 1.349 . S
C566 H560 0.950 . S
C566 C567 1.327 . S
C567 H561 0.950 . S
C567 C566 1.327 . S
C567 C571 1.429 . S
C568 C551 1.574 . S
C568 H562 0.949 . S
C568 C572 1.368 . S
C569 C550 1.429 . S
C569 C563 1.429 . S
C569 C570 1.523 . S
C570 C551 1.368 . S
C570 C564 1.368 . S
C570 C569 1.523 . S
C571 C555 1.429 . S
C571 C567 1.429 . S
C571 C572 1.523 . S
C572 C556 1.368 . S
C572 C568 1.368 . S
C572 C571 1.523 . S
H573 C548 0.950 . S
H574 C550 0.950 . S
H575 C551 0.949 . S
H576 C553 0.950 . S
H577 C555 0.950 . S
C578 C579 1.349 . S
C578 C580 1.327 . S
C578 H603 0.950 . S
C579 C578 1.349 . S
C579 C595 1.349 . S
C580 C578 1.327 . S
C580 C599 1.429 . S
C580 H604 0.950 . S
C581 C598 1.574 . S
C581 C600 1.368 . S
C581 H605 0.949 . S
H582 C586 0.949 . S
C583 C584 1.349 . S
C583 C585 1.327 . S
C583 H606 0.950 . S
C584 C583 1.349 . S
C584 C596 1.349 . S
C585 C583 1.327 . S
C585 C601 1.429 . S
C585 H607 0.950 . S
C586 H582 0.949 . S
C586 C594 1.574 . S
C586 C602 1.368 . S
H587 C595 0.950 . S
H588 C593 0.950 . S
H589 C594 0.949 . S
H590 C596 0.950 . S
H591 C597 0.950 . S
H592 C598 0.949 . S
C593 H588 0.950 . S
C593 C595 1.327 . S
C593 C599 1.429 . S
C594 C586 1.574 . S
C594 H589 0.949 . S
C594 C600 1.368 . S
C595 C579 1.349 . S
C595 H587 0.950 . S
C595 C593 1.327 . S
C596 C584 1.349 . S
C596 H590 0.950 . S
C596 C597 1.327 . S
C597 H591 0.950 . S
C597 C596 1.327 . S
C597 C601 1.429 . S
C598 C581 1.574 . S
C598 H592 0.949 . S
C598 C602 1.368 . S
C599 C580 1.429 . S
C599 C593 1.429 . S
C599 C600 1.523 . S
C600 C581 1.368 . S
C600 C594 1.368 . S
C600 C599 1.523 . S
C601 C585 1.429 . S
C601 C597 1.429 . S
C601 C602 1.523 . S
C602 C586 1.368 . S
C602 C598 1.368 . S
C602 C601 1.523 . S
H603 C578 0.950 . S
H604 C580 0.950 . S
H605 C581 0.949 . S
H606 C583 0.950 . S
H607 C585 0.950 . S
C608 C609 1.349 . S
C608 C610 1.327 . S
C608 H633 0.950 . S
C609 C608 1.349 . S
C609 C625 1.349 1_565 S
C610 C608 1.327 . S
C610 C629 1.429 . S
C610 H634 0.950 . S
C611 C628 1.574 . S
C611 C630 1.368 1_545 S
C611 H635 0.949 . S
H612 C616 0.949 . S
C613 C614 1.349 . S
C613 C615 1.327 . S
C613 H636 0.950 . S
C614 C613 1.349 . S
C614 C626 1.349 1_545 S
C615 C613 1.327 . S
C615 C631 1.429 . S
C615 H637 0.950 . S
C616 H612 0.949 . S
C616 C624 1.574 . S
C616 C632 1.368 1_565 S
H617 C625 0.950 . S
H618 C623 0.950 . S
H619 C624 0.949 . S
H620 C626 0.950 . S
H621 C627 0.950 . S
H622 C628 0.949 . S
C623 H618 0.950 . S
C623 C625 1.327 . S
C623 C629 1.429 1_545 S
C624 C616 1.574 . S
C624 H619 0.949 . S
C624 C630 1.368 . S
C625 C609 1.349 1_545 S
C625 H617 0.950 . S
C625 C623 1.327 . S
C626 C614 1.349 1_565 S
C626 H620 0.950 . S
C626 C627 1.327 . S
C627 H621 0.950 . S
C627 C626 1.327 . S
C627 C631 1.429 1_565 S
C628 C611 1.574 . S
C628 H622 0.949 . S
C628 C632 1.368 . S
C629 C610 1.429 . S
C629 C623 1.429 1_565 S
C629 C630 1.523 . S
C630 C611 1.368 1_565 S
C630 C624 1.368 . S
C630 C629 1.523 . S
C631 C615 1.429 . S
C631 C627 1.429 1_545 S
C631 C632 1.523 . S
C632 C616 1.368 1_545 S
C632 C628 1.368 . S
C632 C631 1.523 . S
H633 C608 0.950 . S
H634 C610 0.950 . S
H635 C611 0.949 . S
H636 C613 0.950 . S
H637 C615 0.950 . S
C638 C639 1.349 1_565 S
C638 C640 1.327 . S
C638 H663 0.950 . S
C639 C638 1.349 1_545 S
C639 C655 1.349 . S
C640 C638 1.327 . S
C640 C659 1.429 1_565 S
C640 H664 0.950 . S
C641 C658 1.574 . S
C641 C660 1.368 . S
C641 H665 0.949 . S
H642 C646 0.949 . S
C643 C644 1.349 1_545 S
C643 C645 1.327 . S
C643 H666 0.950 . S
C644 C643 1.349 1_565 S
C644 C656 1.349 . S
C645 C643 1.327 . S
C645 C661 1.429 1_545 S
C645 H667 0.950 . S
C646 H642 0.949 . S
C646 C654 1.574 . S
C646 C662 1.368 . S
H647 C655 0.950 . S
H648 C653 0.950 . S
H649 C654 0.949 . S
H650 C656 0.950 . S
H651 C657 0.950 . S
H652 C658 0.949 . S
C653 H648 0.950 . S
C653 C655 1.327 . S
C653 C659 1.429 . S
C654 C646 1.574 . S
C654 H649 0.949 . S
C654 C660 1.368 1_565 S
C655 C639 1.349 . S
C655 H647 0.950 . S
C655 C653 1.327 . S
C656 C644 1.349 . S
C656 H650 0.950 . S
C656 C657 1.327 . S
C657 H651 0.950 . S
C657 C656 1.327 . S
C657 C661 1.429 . S
C658 C641 1.574 . S
C658 H652 0.949 . S
C658 C662 1.368 1_545 S
C659 C640 1.429 1_545 S
C659 C653 1.429 . S
C659 C660 1.523 . S
C660 C641 1.368 . S
C660 C654 1.368 1_545 S
C660 C659 1.523 . S
C661 C645 1.429 1_565 S
C661 C657 1.429 . S
C661 C662 1.523 . S
C662 C646 1.368 . S
C662 C658 1.368 1_565 S
C662 C661 1.523 . S
H663 C638 0.950 . S
H664 C640 0.950 . S
H665 C641 0.949 . S
H666 C643 0.950 . S
H667 C645 0.950 . S
C668 C669 1.349 1_565 S
C668 C670 1.327 . S
C668 H693 0.950 . S
C669 C668 1.349 1_545 S
C669 C685 1.349 . S
C670 C668 1.327 . S
C670 C689 1.429 1_565 S
C670 H694 0.950 . S
C671 C688 1.574 . S
C671 C690 1.368 . S
C671 H695 0.949 . S
H672 C676 0.949 . S
C673 C674 1.349 1_545 S
C673 C675 1.327 . S
C673 H696 0.950 . S
C674 C673 1.349 1_565 S
C674 C686 1.349 . S
C675 C673 1.327 . S
C675 C691 1.429 1_545 S
C675 H697 0.950 . S
C676 H672 0.949 . S
C676 C684 1.574 . S
C676 C692 1.368 . S
H677 C685 0.950 . S
H678 C683 0.950 . S
H679 C684 0.949 . S
H680 C686 0.950 . S
H681 C687 0.950 . S
H682 C688 0.949 . S
C683 H678 0.950 . S
C683 C685 1.327 . S
C683 C689 1.429 . S
C684 C676 1.574 . S
C684 H679 0.949 . S
C684 C690 1.368 1_565 S
C685 C669 1.349 . S
C685 H677 0.950 . S
C685 C683 1.327 . S
C686 C674 1.349 . S
C686 H680 0.950 . S
C686 C687 1.327 . S
C687 H681 0.950 . S
C687 C686 1.327 . S
C687 C691 1.429 . S
C688 C671 1.574 . S
C688 H682 0.949 . S
C688 C692 1.368 1_545 S
C689 C670 1.429 1_545 S
C689 C683 1.429 . S
C689 C690 1.523 . S
C690 C671 1.368 . S
C690 C684 1.368 1_545 S
C690 C689 1.523 . S
C691 C675 1.429 1_565 S
C691 C687 1.429 . S
C691 C692 1.523 . S
C692 C676 1.368 . S
C692 C688 1.368 1_565 S
C692 C691 1.523 . S
H693 C668 0.950 . S
H694 C670 0.950 . S
H695 C671 0.949 . S
H696 C673 0.950 . S
H697 C675 0.950 . S
C698 C699 1.349 1_565 S
C698 C700 1.327 . S
C698 H723 0.950 . S
C699 C698 1.349 1_545 S
C699 C715 1.349 . S
C700 C698 1.327 . S
C700 C719 1.429 1_565 S
C700 H724 0.950 . S
C701 C718 1.574 . S
C701 C720 1.368 . S
C701 H725 0.949 . S
H702 C706 0.949 . S
C703 C704 1.349 1_545 S
C703 C705 1.327 . S
C703 H726 0.950 . S
C704 C703 1.349 1_565 S
C704 C716 1.349 . S
C705 C703 1.327 . S
C705 C721 1.429 1_545 S
C705 H727 0.950 . S
C706 H702 0.949 . S
C706 C714 1.574 . S
C706 C722 1.368 . S
H707 C715 0.950 . S
H708 C713 0.950 . S
H709 C714 0.949 . S
H710 C716 0.950 . S
H711 C717 0.950 . S
H712 C718 0.949 . S
C713 H708 0.950 . S
C713 C715 1.327 . S
C713 C719 1.429 . S
C714 C706 1.574 . S
C714 H709 0.949 . S
C714 C720 1.368 1_565 S
C715 C699 1.349 . S
C715 H707 0.950 . S
C715 C713 1.327 . S
C716 C704 1.349 . S
C716 H710 0.950 . S
C716 C717 1.327 . S
C717 H711 0.950 . S
C717 C716 1.327 . S
C717 C721 1.429 . S
C718 C701 1.574 . S
C718 H712 0.949 . S
C718 C722 1.368 1_545 S
C719 C700 1.429 1_545 S
C719 C713 1.429 . S
C719 C720 1.523 . S
C720 C701 1.368 . S
C720 C714 1.368 1_545 S
C720 C719 1.523 . S
C721 C705 1.429 1_565 S
C721 C717 1.429 . S
C721 C722 1.523 . S
C722 C706 1.368 . S
C722 C718 1.368 1_565 S
C722 C721 1.523 . S
H723 C698 0.950 . S
H724 C700 0.950 . S
H725 C701 0.949 . S
H726 C703 0.950 . S
H727 C705 0.950 . S
C728 C729 1.349 . S
C728 C730 1.327 . S
C728 H753 0.950 . S
C729 C728 1.349 . S
C729 C745 1.349 . S
C730 C728 1.327 . S
C730 C749 1.429 . S
C730 H754 0.950 . S
C731 C748 1.574 . S
C731 C750 1.368 . S
C731 H755 0.949 . S
H732 C736 0.949 . S
C733 C734 1.349 . S
C733 C735 1.327 . S
C733 H756 0.950 . S
C734 C733 1.349 . S
C734 C746 1.349 . S
C735 C733 1.327 . S
C735 C751 1.429 . S
C735 H757 0.950 . S
C736 H732 0.949 . S
C736 C744 1.574 . S
C736 C752 1.368 . S
H737 C745 0.950 . S
H738 C743 0.950 . S
H739 C744 0.949 . S
H740 C746 0.950 . S
H741 C747 0.950 . S
H742 C748 0.949 . S
C743 H738 0.950 . S
C743 C745 1.327 . S
C743 C749 1.429 . S
C744 C736 1.574 . S
C744 H739 0.949 . S
C744 C750 1.368 . S
C745 C729 1.349 . S
C745 H737 0.950 . S
C745 C743 1.327 . S
C746 C734 1.349 . S
C746 H740 0.950 . S
C746 C747 1.327 . S
C747 H741 0.950 . S
C747 C746 1.327 . S
C747 C751 1.429 . S
C748 C731 1.574 . S
C748 H742 0.949 . S
C748 C752 1.368 . S
C749 C730 1.429 . S
C749 C743 1.429 . S
C749 C750 1.523 . S
C750 C731 1.368 . S
C750 C744 1.368 . S
C750 C749 1.523 . S
C751 C735 1.429 . S
C751 C747 1.429 . S
C751 C752 1.523 . S
C752 C736 1.368 . S
C752 C748 1.368 . S
C752 C751 1.523 . S
H753 C728 0.950 . S
H754 C730 0.950 . S
H755 C731 0.949 . S
H756 C733 0.950 . S
H757 C735 0.950 . S
C758 C759 1.349 . S
C758 C760 1.327 . S
C758 H783 0.950 . S
C759 C758 1.349 . S
C759 C775 1.349 . S
C760 C758 1.327 . S
C760 C779 1.429 . S
C760 H784 0.950 . S
C761 C778 1.574 . S
C761 C780 1.368 . S
C761 H785 0.949 . S
H762 C766 0.949 . S
C763 C764 1.349 . S
C763 C765 1.327 . S
C763 H786 0.950 . S
C764 C763 1.349 . S
C764 C776 1.349 . S
C765 C763 1.327 . S
C765 C781 1.429 . S
C765 H787 0.950 . S
C766 H762 0.949 . S
C766 C774 1.574 . S
C766 C782 1.368 . S
H767 C775 0.950 . S
H768 C773 0.950 . S
H769 C774 0.949 . S
H770 C776 0.950 . S
H771 C777 0.950 . S
H772 C778 0.949 . S
C773 H768 0.950 . S
C773 C775 1.327 . S
C773 C779 1.429 . S
C774 C766 1.574 . S
C774 H769 0.949 . S
C774 C780 1.368 . S
C775 C759 1.349 . S
C775 H767 0.950 . S
C775 C773 1.327 . S
C776 C764 1.349 . S
C776 H770 0.950 . S
C776 C777 1.327 . S
C777 H771 0.950 . S
C777 C776 1.327 . S
C777 C781 1.429 . S
C778 C761 1.574 . S
C778 H772 0.949 . S
C778 C782 1.368 . S
C779 C760 1.429 . S
C779 C773 1.429 . S
C779 C780 1.523 . S
C780 C761 1.368 . S
C780 C774 1.368 . S
C780 C779 1.523 . S
C781 C765 1.429 . S
C781 C777 1.429 . S
C781 C782 1.523 . S
C782 C766 1.368 . S
C782 C778 1.368 . S
C782 C781 1.523 . S
H783 C758 0.950 . S
H784 C760 0.950 . S
H785 C761 0.949 . S
H786 C763 0.950 . S
H787 C765 0.950 . S
C788 C789 1.349 . S
C788 C790 1.327 . S
C788 H813 0.950 . S
C789 C788 1.349 . S
C789 C805 1.349 . S
C790 C788 1.327 . S
C790 C809 1.429 . S
C790 H814 0.950 . S
C791 C808 1.574 . S
C791 C810 1.368 . S
C791 H815 0.949 . S
H792 C796 0.949 . S
C793 C794 1.349 . S
C793 C795 1.327 . S
C793 H816 0.950 . S
C794 C793 1.349 . S
C794 C806 1.349 . S
C795 C793 1.327 . S
C795 C811 1.429 . S
C795 H817 0.950 . S
C796 H792 0.949 . S
C796 C804 1.574 . S
C796 C812 1.368 . S
H797 C805 0.950 . S
H798 C803 0.950 . S
H799 C804 0.949 . S
H800 C806 0.950 . S
H801 C807 0.950 . S
H802 C808 0.949 . S
C803 H798 0.950 . S
C803 C805 1.327 . S
C803 C809 1.429 . S
C804 C796 1.574 . S
C804 H799 0.949 . S
C804 C810 1.368 . S
C805 C789 1.349 . S
C805 H797 0.950 . S
C805 C803 1.327 . S
C806 C794 1.349 . S
C806 H800 0.950 . S
C806 C807 1.327 . S
C807 H801 0.950 . S
C807 C806 1.327 . S
C807 C811 1.429 . S
C808 C791 1.574 . S
C808 H802 0.949 . S
C808 C812 1.368 . S
C809 C790 1.429 . S
C809 C803 1.429 . S
C809 C810 1.523 . S
C810 C791 1.368 . S
C810 C804 1.368 . S
C810 C809 1.523 . S
C811 C795 1.429 . S
C811 C807 1.429 . S
C811 C812 1.523 . S
C812 C796 1.368 . S
C812 C808 1.368 . S
C812 C811 1.523 . S
H813 C788 0.950 . S
H814 C790 0.950 . S
H815 C791 0.949 . S
H816 C793 0.950 . S
H817 C795 0.950 . S
C818 C819 1.349 . S
C818 C820 1.327 . S
C818 H843 0.950 . S
C819 C818 1.349 . S
C819 C835 1.349 . S
C820 C818 1.327 . S
C820 C839 1.429 . S
C820 H844 0.950 . S
C821 C838 1.574 . S
C821 C840 1.368 . S
C821 H845 0.949 . S
H822 C826 0.949 . S
C823 C824 1.349 . S
C823 C825 1.327 . S
C823 H846 0.950 . S
C824 C823 1.349 . S
C824 C836 1.349 . S
C825 C823 1.327 . S
C825 C841 1.429 . S
C825 H847 0.950 . S
C826 H822 0.949 . S
C826 C834 1.574 . S
C826 C842 1.368 . S
H827 C835 0.950 . S
H828 C833 0.950 . S
H829 C834 0.949 . S
H830 C836 0.950 . S
H831 C837 0.950 . S
H832 C838 0.949 . S
C833 H828 0.950 . S
C833 C835 1.327 . S
C833 C839 1.429 . S
C834 C826 1.574 . S
C834 H829 0.949 . S
C834 C840 1.368 . S
C835 C819 1.349 . S
C835 H827 0.950 . S
C835 C833 1.327 . S
C836 C824 1.349 . S
C836 H830 0.950 . S
C836 C837 1.327 . S
C837 H831 0.950 . S
C837 C836 1.327 . S
C837 C841 1.429 . S
C838 C821 1.574 . S
C838 H832 0.949 . S
C838 C842 1.368 . S
C839 C820 1.429 . S
C839 C833 1.429 . S
C839 C840 1.523 . S
C840 C821 1.368 . S
C840 C834 1.368 . S
C840 C839 1.523 . S
C841 C825 1.429 . S
C841 C837 1.429 . S
C841 C842 1.523 . S
C842 C826 1.368 . S
C842 C838 1.368 . S
C842 C841 1.523 . S
H843 C818 0.950 . S
H844 C820 0.950 . S
H845 C821 0.949 . S
H846 C823 0.950 . S
H847 C825 0.950 . S
C848 C849 1.349 1_565 S
C848 C850 1.327 . S
C848 H873 0.950 . S
C849 C848 1.349 1_545 S
C849 C865 1.349 . S
C850 C848 1.327 . S
C850 C869 1.429 1_565 S
C850 H874 0.950 . S
C851 C868 1.574 1_556 S
C851 C870 1.368 . S
C851 H875 0.949 . S
H852 C856 0.949 . S
C853 C854 1.349 . S
C853 C855 1.327 . S
C853 H876 0.950 . S
C854 C853 1.349 . S
C854 C866 1.349 1_545 S
C855 C853 1.327 . S
C855 C871 1.429 . S
C855 H877 0.950 . S
C856 H852 0.949 . S
C856 C864 1.574 1_554 S
C856 C872 1.368 1_565 S
H857 C865 0.950 . S
H858 C863 0.950 . S
H859 C864 0.949 . S
H860 C866 0.950 . S
H861 C867 0.950 . S
H862 C868 0.949 . S
C863 H858 0.950 . S
C863 C865 1.327 . S
C863 C869 1.429 . S
C864 C856 1.574 1_556 S
C864 H859 0.949 . S
C864 C870 1.368 1_565 S
C865 C849 1.349 . S
C865 H857 0.950 . S
C865 C863 1.327 . S
C866 C854 1.349 1_565 S
C866 H860 0.950 . S
C866 C867 1.327 . S
C867 H861 0.950 . S
C867 C866 1.327 . S
C867 C871 1.429 1_565 S
C868 C851 1.574 1_554 S
C868 H862 0.949 . S
C868 C872 1.368 . S
C869 C850 1.429 1_545 S
C869 C863 1.429 . S
C869 C870 1.523 . S
C870 C851 1.368 . S
C870 C864 1.368 1_545 S
C870 C869 1.523 . S
C871 C855 1.429 . S
C871 C867 1.429 1_545 S
C871 C872 1.523 . S
C872 C856 1.368 1_545 S
C872 C868 1.368 . S
C872 C871 1.523 . S
H873 C848 0.950 . S
H874 C850 0.950 . S
H875 C851 0.949 . S
H876 C853 0.950 . S
H877 C855 0.950 . S
C878 C879 1.349 . S
C878 C880 1.327 . S
C878 H903 0.950 . S
C879 C878 1.349 . S
C879 C895 1.349 1_565 S
C880 C878 1.327 . S
C880 C899 1.429 . S
C880 H904 0.950 . S
C881 C898 1.574 1_556 S
C881 C900 1.368 1_545 S
C881 H905 0.949 . S
H882 C886 0.949 . S
C883 C884 1.349 1_545 S
C883 C885 1.327 . S
C883 H906 0.950 . S
C884 C883 1.349 1_565 S
C884 C896 1.349 . S
C885 C883 1.327 . S
C885 C901 1.429 1_545 S
C885 H907 0.950 . S
C886 H882 0.949 . S
C886 C894 1.574 1_554 S
C886 C902 1.368 . S
H887 C895 0.950 . S
H888 C893 0.950 . S
H889 C894 0.949 . S
H890 C896 0.950 . S
H891 C897 0.950 . S
H892 C898 0.949 . S
C893 H888 0.950 . S
C893 C895 1.327 . S
C893 C899 1.429 1_545 S
C894 C886 1.574 1_556 S
C894 H889 0.949 . S
C894 C900 1.368 . S
C895 C879 1.349 1_545 S
C895 H887 0.950 . S
C895 C893 1.327 . S
C896 C884 1.349 . S
C896 H890 0.950 . S
C896 C897 1.327 . S
C897 H891 0.950 . S
C897 C896 1.327 . S
C897 C901 1.429 . S
C898 C881 1.574 1_554 S
C898 H892 0.949 . S
C898 C902 1.368 1_545 S
C899 C880 1.429 . S
C899 C893 1.429 1_565 S
C899 C900 1.523 . S
C900 C881 1.368 1_565 S
C900 C894 1.368 . S
C900 C899 1.523 . S
C901 C885 1.429 1_565 S
C901 C897 1.429 . S
C901 C902 1.523 . S
C902 C886 1.368 . S
C902 C898 1.368 1_565 S
C902 C901 1.523 . S
H903 C878 0.950 . S
H904 C880 0.950 . S
H905 C881 0.949 . S
H906 C883 0.950 . S
H907 C885 0.950 . S
C908 C909 1.349 . S
C908 C910 1.327 . S
C908 H933 0.950 . S
C909 C908 1.349 . S
C909 C925 1.349 1_565 S
C910 C908 1.327 . S
C910 C929 1.429 . S
C910 H934 0.950 . S
C911 C928 1.574 . S
C911 C930 1.368 1_545 S
C911 H935 0.949 . S
H912 C916 0.949 . S
C913 C914 1.349 1_545 S
C913 C915 1.327 . S
C913 H936 0.950 . S
C914 C913 1.349 1_565 S
C914 C926 1.349 . S
C915 C913 1.327 . S
C915 C931 1.429 1_545 S
C915 H937 0.950 . S
C916 H912 0.949 . S
C916 C924 1.574 . S
C916 C932 1.368 . S
H917 C925 0.950 . S
H918 C923 0.950 . S
H919 C924 0.949 . S
H920 C926 0.950 . S
H921 C927 0.950 . S
H922 C928 0.949 . S
C923 H918 0.950 . S
C923 C925 1.327 . S
C923 C929 1.429 1_545 S
C924 C916 1.574 . S
C924 H919 0.949 . S
C924 C930 1.368 . S
C925 C909 1.349 1_545 S
C925 H917 0.950 . S
C925 C923 1.327 . S
C926 C914 1.349 . S
C926 H920 0.950 . S
C926 C927 1.327 . S
C927 H921 0.950 . S
C927 C926 1.327 . S
C927 C931 1.429 . S
C928 C911 1.574 . S
C928 H922 0.949 . S
C928 C932 1.368 1_545 S
C929 C910 1.429 . S
C929 C923 1.429 1_565 S
C929 C930 1.523 . S
C930 C911 1.368 1_565 S
C930 C924 1.368 . S
C930 C929 1.523 . S
C931 C915 1.429 1_565 S
C931 C927 1.429 . S
C931 C932 1.523 . S
C932 C916 1.368 . S
C932 C928 1.368 1_565 S
C932 C931 1.523 . S
H933 C908 0.950 . S
H934 C910 0.950 . S
H935 C911 0.949 . S
H936 C913 0.950 . S
H937 C915 0.950 . S
C938 C939 1.349 . S
C938 C940 1.327 . S
C938 H963 0.950 . S
C939 C938 1.349 . S
C939 C955 1.349 1_545 S
C940 C938 1.327 . S
C940 C959 1.429 . S
C940 H964 0.950 . S
C941 C958 1.574 . S
C941 C960 1.368 1_565 S
C941 H965 0.949 . S
H942 C946 0.949 . S
C943 C944 1.349 1_565 S
C943 C945 1.327 . S
C943 H966 0.950 . S
C944 C943 1.349 1_545 S
C944 C956 1.349 . S
C945 C943 1.327 . S
C945 C961 1.429 1_565 S
C945 H967 0.950 . S
C946 H942 0.949 . S
C946 C954 1.574 . S
C946 C962 1.368 . S
H947 C955 0.950 . S
H948 C953 0.950 . S
H949 C954 0.949 . S
H950 C956 0.950 . S
H951 C957 0.950 . S
H952 C958 0.949 . S
C953 H948 0.950 . S
C953 C955 1.327 . S
C953 C959 1.429 1_565 S
C954 C946 1.574 . S
C954 H949 0.949 . S
C954 C960 1.368 . S
C955 C939 1.349 1_565 S
C955 H947 0.950 . S
C955 C953 1.327 . S
C956 C944 1.349 . S
C956 H950 0.950 . S
C956 C957 1.327 . S
C957 H951 0.950 . S
C957 C956 1.327 . S
C957 C961 1.429 . S
C958 C941 1.574 . S
C958 H952 0.949 . S
C958 C962 1.368 1_565 S
C959 C940 1.429 . S
C959 C953 1.429 1_545 S
C959 C960 1.523 . S
C960 C941 1.368 1_545 S
C960 C954 1.368 . S
C960 C959 1.523 . S
C961 C945 1.429 1_545 S
C961 C957 1.429 . S
C961 C962 1.523 . S
C962 C946 1.368 . S
C962 C958 1.368 1_545 S
C962 C961 1.523 . S
H963 C938 0.950 . S
H964 C940 0.950 . S
H965 C941 0.949 . S
H966 C943 0.950 . S
H967 C945 0.950 . S
C968 C969 1.349 . S
C968 C970 1.327 . S
C968 H993 0.950 . S
C969 C968 1.349 . S
C969 C985 1.349 . S
C970 C968 1.327 . S
C970 C989 1.429 . S
C970 H994 0.950 . S
C971 C988 1.574 1_554 S
C971 C990 1.368 . S
C971 H995 0.949 . S
H972 C976 0.949 . S
C973 C974 1.349 . S
C973 C975 1.327 . S
C973 H996 0.950 . S
C974 C973 1.349 . S
C974 C986 1.349 . S
C975 C973 1.327 . S
C975 C991 1.429 . S
C975 H997 0.950 . S
C976 H972 0.949 . S
C976 C984 1.574 1_556 S
C976 C992 1.368 . S
H977 C985 0.950 . S
H978 C983 0.950 . S
H979 C984 0.949 . S
H980 C986 0.950 . S
H981 C987 0.950 . S
H982 C988 0.949 . S
C983 H978 0.950 . S
C983 C985 1.327 . S
C983 C989 1.429 . S
C984 C976 1.574 1_554 S
C984 H979 0.949 . S
C984 C990 1.368 . S
C985 C969 1.349 . S
C985 H977 0.950 . S
C985 C983 1.327 . S
C986 C974 1.349 . S
C986 H980 0.950 . S
C986 C987 1.327 . S
C987 H981 0.950 . S
C987 C986 1.327 . S
C987 C991 1.429 . S
C988 C971 1.574 1_556 S
C988 H982 0.949 . S
C988 C992 1.368 . S
C989 C970 1.429 . S
C989 C983 1.429 . S
C989 C990 1.523 . S
C990 C971 1.368 . S
C990 C984 1.368 . S
C990 C989 1.523 . S
C991 C975 1.429 . S
C991 C987 1.429 . S
C991 C992 1.523 . S
C992 C976 1.368 . S
C992 C988 1.368 . S
C992 C991 1.523 . S
H993 C968 0.950 . S
H994 C970 0.950 . S
H995 C971 0.949 . S
H996 C973 0.950 . S
H997 C975 0.950 . S
C998 C999 1.349 . S
C998 C1000 1.327 . S
C998 H1023 0.950 . S
C999 C998 1.349 . S
C999 C1015 1.349 . S
C1000 C998 1.327 . S
C1000 C1019 1.429 . S
C1000 H1024 0.950 . S
C1001 C1018 1.574 1_556 S
C1001 C1020 1.368 . S
C1001 H1025 0.949 . S
H1002 C1006 0.949 . S
C1003 C1004 1.349 . S
C1003 C1005 1.327 . S
C1003 H1026 0.950 . S
C1004 C1003 1.349 . S
C1004 C1016 1.349 . S
C1005 C1003 1.327 . S
C1005 C1021 1.429 . S
C1005 H1027 0.950 . S
C1006 H1002 0.949 . S
C1006 C1014 1.574 1_554 S
C1006 C1022 1.368 . S
H1007 C1015 0.950 . S
H1008 C1013 0.950 . S
H1009 C1014 0.949 . S
H1010 C1016 0.950 . S
H1011 C1017 0.950 . S
H1012 C1018 0.949 . S
C1013 H1008 0.950 . S
C1013 C1015 1.327 . S
C1013 C1019 1.429 . S
C1014 C1006 1.574 1_556 S
C1014 H1009 0.949 . S
C1014 C1020 1.368 . S
C1015 C999 1.349 . S
C1015 H1007 0.950 . S
C1015 C1013 1.327 . S
C1016 C1004 1.349 . S
C1016 H1010 0.950 . S
C1016 C1017 1.327 . S
C1017 H1011 0.950 . S
C1017 C1016 1.327 . S
C1017 C1021 1.429 . S
C1018 C1001 1.574 1_554 S
C1018 H1012 0.949 . S
C1018 C1022 1.368 . S
C1019 C1000 1.429 . S
C1019 C1013 1.429 . S
C1019 C1020 1.523 . S
C1020 C1001 1.368 . S
C1020 C1014 1.368 . S
C1020 C1019 1.523 . S
C1021 C1005 1.429 . S
C1021 C1017 1.429 . S
C1021 C1022 1.523 . S
C1022 C1006 1.368 . S
C1022 C1018 1.368 . S
C1022 C1021 1.523 . S
H1023 C998 0.950 . S
H1024 C1000 0.950 . S
H1025 C1001 0.949 . S
H1026 C1003 0.950 . S
H1027 C1005 0.950 . S
C1028 C1029 1.349 . S
C1028 C1030 1.327 . S
C1028 H1053 0.950 . S
C1029 C1028 1.349 . S
C1029 C1045 1.349 . S
C1030 C1028 1.327 . S
C1030 C1049 1.429 . S
C1030 H1054 0.950 . S
C1031 C1048 1.574 . S
C1031 C1050 1.368 . S
C1031 H1055 0.949 . S
H1032 C1036 0.949 . S
C1033 C1034 1.349 . S
C1033 C1035 1.327 . S
C1033 H1056 0.950 . S
C1034 C1033 1.349 . S
C1034 C1046 1.349 . S
C1035 C1033 1.327 . S
C1035 C1051 1.429 . S
C1035 H1057 0.950 . S
C1036 H1032 0.949 . S
C1036 C1044 1.574 . S
C1036 C1052 1.368 . S
H1037 C1045 0.950 . S
H1038 C1043 0.950 . S
H1039 C1044 0.949 . S
H1040 C1046 0.950 . S
H1041 C1047 0.950 . S
H1042 C1048 0.949 . S
C1043 H1038 0.950 . S
C1043 C1045 1.327 . S
C1043 C1049 1.429 . S
C1044 C1036 1.574 . S
C1044 H1039 0.949 . S
C1044 C1050 1.368 . S
C1045 C1029 1.349 . S
C1045 H1037 0.950 . S
C1045 C1043 1.327 . S
C1046 C1034 1.349 . S
C1046 H1040 0.950 . S
C1046 C1047 1.327 . S
C1047 H1041 0.950 . S
C1047 C1046 1.327 . S
C1047 C1051 1.429 . S
C1048 C1031 1.574 . S
C1048 H1042 0.949 . S
C1048 C1052 1.368 . S
C1049 C1030 1.429 . S
C1049 C1043 1.429 . S
C1049 C1050 1.523 . S
C1050 C1031 1.368 . S
C1050 C1044 1.368 . S
C1050 C1049 1.523 . S
C1051 C1035 1.429 . S
C1051 C1047 1.429 . S
C1051 C1052 1.523 . S
C1052 C1036 1.368 . S
C1052 C1048 1.368 . S
C1052 C1051 1.523 . S
H1053 C1028 0.950 . S
H1054 C1030 0.950 . S
H1055 C1031 0.949 . S
H1056 C1033 0.950 . S
H1057 C1035 0.950 . S
C1058 C1059 1.349 . S
C1058 C1060 1.327 . S
C1058 H1083 0.950 . S
C1059 C1058 1.349 . S
C1059 C1075 1.349 . S
C1060 C1058 1.327 . S
C1060 C1079 1.429 . S
C1060 H1084 0.950 . S
C1061 C1078 1.574 . S
C1061 C1080 1.368 . S
C1061 H1085 0.949 . S
H1062 C1066 0.949 . S
C1063 C1064 1.349 . S
C1063 C1065 1.327 . S
C1063 H1086 0.950 . S
C1064 C1063 1.349 . S
C1064 C1076 1.349 . S
C1065 C1063 1.327 . S
C1065 C1081 1.429 . S
C1065 H1087 0.950 . S
C1066 H1062 0.949 . S
C1066 C1074 1.574 . S
C1066 C1082 1.368 . S
H1067 C1075 0.950 . S
H1068 C1073 0.950 . S
H1069 C1074 0.949 . S
H1070 C1076 0.950 . S
H1071 C1077 0.950 . S
H1072 C1078 0.949 . S
C1073 H1068 0.950 . S
C1073 C1075 1.327 . S
C1073 C1079 1.429 . S
C1074 C1066 1.574 . S
C1074 H1069 0.949 . S
C1074 C1080 1.368 . S
C1075 C1059 1.349 . S
C1075 H1067 0.950 . S
C1075 C1073 1.327 . S
C1076 C1064 1.349 . S
C1076 H1070 0.950 . S
C1076 C1077 1.327 . S
C1077 H1071 0.950 . S
C1077 C1076 1.327 . S
C1077 C1081 1.429 . S
C1078 C1061 1.574 . S
C1078 H1072 0.949 . S
C1078 C1082 1.368 . S
C1079 C1060 1.429 . S
C1079 C1073 1.429 . S
C1079 C1080 1.523 . S
C1080 C1061 1.368 . S
C1080 C1074 1.368 . S
C1080 C1079 1.523 . S
C1081 C1065 1.429 . S
C1081 C1077 1.429 . S
C1081 C1082 1.523 . S
C1082 C1066 1.368 . S
C1082 C1078 1.368 . S
C1082 C1081 1.523 . S
H1083 C1058 0.950 . S
H1084 C1060 0.950 . S
H1085 C1061 0.949 . S
H1086 C1063 0.950 . S
H1087 C1065 0.950 . S
C1088 C1089 1.349 . S
C1088 C1090 1.327 . S
C1088 H1113 0.950 . S
C1089 C1088 1.349 . S
C1089 C1105 1.349 . S
C1090 C1088 1.327 . S
C1090 C1109 1.429 . S
C1090 H1114 0.950 . S
C1091 C1108 1.574 1_655 S
C1091 C1110 1.368 1_545 S
C1091 H1115 0.949 . S
H1092 C1096 0.949 . S
C1093 C1094 1.349 . S
C1093 C1095 1.327 . S
C1093 H1116 0.950 . S
C1094 C1093 1.349 . S
C1094 C1106 1.349 . S
C1095 C1093 1.327 . S
C1095 C1111 1.429 . S
C1095 H1117 0.950 . S
C1096 H1092 0.949 . S
C1096 C1104 1.574 1_455 S
C1096 C1112 1.368 1_565 S
H1097 C1105 0.950 1_545 S
H1098 C1103 0.950 1_545 S
H1099 C1104 0.949 . S
H1100 C1106 0.950 1_565 S
H1101 C1107 0.950 1_565 S
H1102 C1108 0.949 . S
C1103 H1098 0.950 1_565 S
C1103 C1105 1.327 . S
C1103 C1109 1.429 . S
C1104 C1096 1.574 1_655 S
C1104 H1099 0.949 . S
C1104 C1110 1.368 . S
C1105 C1089 1.349 . S
C1105 H1097 0.950 1_565 S
C1105 C1103 1.327 . S
C1106 C1094 1.349 . S
C1106 H1100 0.950 1_545 S
C1106 C1107 1.327 . S
C1107 H1101 0.950 1_545 S
C1107 C1106 1.327 . S
C1107 C1111 1.429 . S
C1108 C1091 1.574 1_455 S
C1108 H1102 0.949 . S
C1108 C1112 1.368 . S
C1109 C1090 1.429 . S
C1109 C1103 1.429 . S
C1109 C1110 1.523 . S
C1110 C1091 1.368 1_565 S
C1110 C1104 1.368 . S
C1110 C1109 1.523 . S
C1111 C1095 1.429 . S
C1111 C1107 1.429 . S
C1111 C1112 1.523 . S
C1112 C1096 1.368 1_545 S
C1112 C1108 1.368 . S
C1112 C1111 1.523 . S
H1113 C1088 0.950 . S
H1114 C1090 0.950 . S
H1115 C1091 0.949 . S
H1116 C1093 0.950 . S
H1117 C1095 0.950 . S
C1118 C1119 1.349 . S
C1118 C1120 1.327 . S
C1118 H1143 0.950 . S
C1119 C1118 1.349 . S
C1119 C1135 1.349 . S
C1120 C1118 1.327 . S
C1120 C1139 1.429 . S
C1120 H1144 0.950 . S
C1121 C1138 1.574 1_655 S
C1121 C1140 1.368 1_565 S
C1121 H1145 0.949 . S
H1122 C1126 0.949 . S
C1123 C1124 1.349 . S
C1123 C1125 1.327 . S
C1123 H1146 0.950 . S
C1124 C1123 1.349 . S
C1124 C1136 1.349 . S
C1125 C1123 1.327 . S
C1125 C1141 1.429 . S
C1125 H1147 0.950 . S
C1126 H1122 0.949 . S
C1126 C1134 1.574 1_455 S
C1126 C1142 1.368 1_545 S
H1127 C1135 0.950 1_565 S
H1128 C1133 0.950 1_565 S
H1129 C1134 0.949 . S
H1130 C1136 0.950 1_545 S
H1131 C1137 0.950 1_545 S
H1132 C1138 0.949 . S
C1133 H1128 0.950 1_545 S
C1133 C1135 1.327 . S
C1133 C1139 1.429 . S
C1134 C1126 1.574 1_655 S
C1134 H1129 0.949 . S
C1134 C1140 1.368 . S
C1135 C1119 1.349 . S
C1135 H1127 0.950 1_545 S
C1135 C1133 1.327 . S
C1136 C1124 1.349 . S
C1136 H1130 0.950 1_565 S
C1136 C1137 1.327 . S
C1137 H1131 0.950 1_565 S
C1137 C1136 1.327 . S
C1137 C1141 1.429 . S
C1138 C1121 1.574 1_455 S
C1138 H1132 0.949 . S
C1138 C1142 1.368 . S
C1139 C1120 1.429 . S
C1139 C1133 1.429 . S
C1139 C1140 1.523 . S
C1140 C1121 1.368 1_545 S
C1140 C1134 1.368 . S
C1140 C1139 1.523 . S
C1141 C1125 1.429 . S
C1141 C1137 1.429 . S
C1141 C1142 1.523 . S
C1142 C1126 1.368 1_565 S
C1142 C1138 1.368 . S
C1142 C1141 1.523 . S
H1143 C1118 0.950 . S
H1144 C1120 0.950 . S
H1145 C1121 0.949 . S
H1146 C1123 0.950 . S
H1147 C1125 0.950 . S
C1148 C1149 1.349 . S
C1148 C1150 1.327 . S
C1148 H1173 0.950 . S
C1149 C1148 1.349 . S
C1149 C1165 1.349 . S
C1150 C1148 1.327 . S
C1150 C1169 1.429 . S
C1150 H1174 0.950 . S
C1151 C1168 1.574 1_455 S
C1151 C1170 1.368 1_565 S
C1151 H1175 0.949 . S
H1152 C1156 0.949 . S
C1153 C1154 1.349 . S
C1153 C1155 1.327 . S
C1153 H1176 0.950 . S
C1154 C1153 1.349 . S
C1154 C1166 1.349 . S
C1155 C1153 1.327 . S
C1155 C1171 1.429 . S
C1155 H1177 0.950 . S
C1156 H1152 0.949 . S
C1156 C1164 1.574 1_655 S
C1156 C1172 1.368 1_545 S
H1157 C1165 0.950 1_565 S
H1158 C1163 0.957 . S
H1159 C1164 0.949 . S
H1160 C1166 0.950 1_545 S
H1161 C1167 0.957 . S
H1162 C1168 0.949 . S
C1163 H1158 0.957 . S
C1163 C1165 1.325 1_565 S
C1163 C1169 1.424 1_565 S
C1164 C1156 1.574 1_455 S
C1164 H1159 0.949 . S
C1164 C1170 1.368 . S
C1165 C1149 1.349 . S
C1165 H1157 0.950 1_545 S
C1165 C1163 1.325 1_545 S
C1166 C1154 1.349 . S
C1166 H1160 0.950 1_565 S
C1166 C1167 1.325 1_565 S
C1167 H1161 0.957 . S
C1167 C1166 1.325 1_545 S
C1167 C1171 1.424 1_545 S
C1168 C1151 1.574 1_655 S
C1168 H1162 0.949 . S
C1168 C1172 1.368 . S
C1169 C1150 1.429 . S
C1169 C1163 1.424 1_545 S
C1169 C1170 1.523 . S
C1170 C1151 1.368 1_545 S
C1170 C1164 1.368 . S
C1170 C1169 1.523 . S
C1171 C1155 1.429 . S
C1171 C1167 1.424 1_565 S
C1171 C1172 1.523 . S
C1172 C1156 1.368 1_565 S
C1172 C1168 1.368 . S
C1172 C1171 1.523 . S
H1173 C1148 0.950 . S
H1174 C1150 0.950 . S
H1175 C1151 0.949 . S
H1176 C1153 0.950 . S
H1177 C1155 0.950 . S
C1178 C1179 1.349 . S
C1178 C1180 1.327 . S
C1178 H1203 0.950 . S
C1179 C1178 1.349 . S
C1179 C1195 1.349 . S
C1180 C1178 1.327 . S
C1180 C1199 1.429 . S
C1180 H1204 0.950 . S
C1181 C1198 1.574 1_655 S
C1181 C1200 1.368 1_565 S
C1181 H1205 0.949 . S
H1182 C1186 0.949 . S
C1183 C1184 1.349 . S
C1183 C1185 1.327 . S
C1183 H1206 0.950 . S
C1184 C1183 1.349 . S
C1184 C1196 1.349 . S
C1185 C1183 1.327 . S
C1185 C1201 1.429 . S
C1185 H1207 0.950 . S
C1186 H1182 0.949 . S
C1186 C1194 1.574 1_455 S
C1186 C1202 1.368 1_545 S
H1187 C1195 0.950 1_565 S
H1188 C1193 0.957 . S
H1189 C1194 0.949 . S
H1190 C1196 0.950 1_545 S
H1191 C1197 0.957 . S
H1192 C1198 0.949 . S
C1193 H1188 0.957 . S
C1193 C1195 1.325 1_565 S
C1193 C1199 1.424 1_565 S
C1194 C1186 1.574 1_655 S
C1194 H1189 0.949 . S
C1194 C1200 1.368 . S
C1195 C1179 1.349 . S
C1195 H1187 0.950 1_545 S
C1195 C1193 1.325 1_545 S
C1196 C1184 1.349 . S
C1196 H1190 0.950 1_565 S
C1196 C1197 1.325 1_565 S
C1197 H1191 0.957 . S
C1197 C1196 1.325 1_545 S
C1197 C1201 1.424 1_545 S
C1198 C1181 1.574 1_455 S
C1198 H1192 0.949 . S
C1198 C1202 1.368 . S
C1199 C1180 1.429 . S
C1199 C1193 1.424 1_545 S
C1199 C1200 1.523 . S
C1200 C1181 1.368 1_545 S
C1200 C1194 1.368 . S
C1200 C1199 1.523 . S
C1201 C1185 1.429 . S
C1201 C1197 1.424 1_565 S
C1201 C1202 1.523 . S
C1202 C1186 1.368 1_565 S
C1202 C1198 1.368 . S
C1202 C1201 1.523 . S
H1203 C1178 0.950 . S
H1204 C1180 0.950 . S
H1205 C1181 0.949 . S
H1206 C1183 0.950 . S
H1207 C1185 0.950 . S
C1208 C1209 1.349 . S
C1208 C1210 1.327 . S
C1208 H1233 0.950 . S
C1209 C1208 1.349 . S
C1209 C1225 1.349 . S
C1210 C1208 1.327 . S
C1210 C1229 1.429 . S
C1210 H1234 0.950 . S
C1211 C1228 1.574 . S
C1211 C1230 1.368 . S
C1211 H1235 0.949 . S
H1212 C1216 0.949 . S
C1213 C1214 1.349 . S
C1213 C1215 1.327 . S
C1213 H1236 0.950 . S
C1214 C1213 1.349 . S
C1214 C1226 1.349 . S
C1215 C1213 1.327 . S
C1215 C1231 1.429 . S
C1215 H1237 0.950 . S
C1216 H1212 0.949 . S
C1216 C1224 1.574 . S
C1216 C1232 1.368 . S
H1217 C1225 0.950 . S
H1218 C1223 0.950 . S
H1219 C1224 0.949 . S
H1220 C1226 0.950 . S
H1221 C1227 0.950 . S
H1222 C1228 0.949 . S
C1223 H1218 0.950 . S
C1223 C1225 1.327 . S
C1223 C1229 1.429 . S
C1224 C1216 1.574 . S
C1224 H1219 0.949 . S
C1224 C1230 1.368 . S
C1225 C1209 1.349 . S
C1225 H1217 0.950 . S
C1225 C1223 1.327 . S
C1226 C1214 1.349 . S
C1226 H1220 0.950 . S
C1226 C1227 1.327 . S
C1227 H1221 0.950 . S
C1227 C1226 1.327 . S
C1227 C1231 1.429 . S
C1228 C1211 1.574 . S
C1228 H1222 0.949 . S
C1228 C1232 1.368 . S
C1229 C1210 1.429 . S
C1229 C1223 1.429 . S
C1229 C1230 1.523 . S
C1230 C1211 1.368 . S
C1230 C1224 1.368 . S
C1230 C1229 1.523 . S
C1231 C1215 1.429 . S
C1231 C1227 1.429 . S
C1231 C1232 1.523 . S
C1232 C1216 1.368 . S
C1232 C1228 1.368 . S
C1232 C1231 1.523 . S
H1233 C1208 0.950 . S
H1234 C1210 0.950 . S
H1235 C1211 0.949 . S
H1236 C1213 0.950 . S
H1237 C1215 0.950 . S
C1238 C1239 1.349 . S
C1238 C1240 1.327 . S
C1238 H1263 0.950 . S
C1239 C1238 1.349 . S
C1239 C1255 1.349 . S
C1240 C1238 1.327 . S
C1240 C1259 1.429 . S
C1240 H1264 0.950 . S
C1241 C1258 1.574 . S
C1241 C1260 1.368 . S
C1241 H1265 0.949 . S
H1242 C1246 0.949 . S
C1243 C1244 1.349 . S
C1243 C1245 1.327 . S
C1243 H1266 0.950 . S
C1244 C1243 1.349 . S
C1244 C1256 1.349 . S
C1245 C1243 1.327 . S
C1245 C1261 1.429 . S
C1245 H1267 0.950 . S
C1246 H1242 0.949 . S
C1246 C1254 1.574 . S
C1246 C1262 1.368 . S
H1247 C1255 0.950 . S
H1248 C1253 0.950 . S
H1249 C1254 0.949 . S
H1250 C1256 0.950 . S
H1251 C1257 0.950 . S
H1252 C1258 0.949 . S
C1253 H1248 0.950 . S
C1253 C1255 1.327 . S
C1253 C1259 1.429 . S
C1254 C1246 1.574 . S
C1254 H1249 0.949 . S
C1254 C1260 1.368 . S
C1255 C1239 1.349 . S
C1255 H1247 0.950 . S
C1255 C1253 1.327 . S
C1256 C1244 1.349 . S
C1256 H1250 0.950 . S
C1256 C1257 1.327 . S
C1257 H1251 0.950 . S
C1257 C1256 1.327 . S
C1257 C1261 1.429 . S
C1258 C1241 1.574 . S
C1258 H1252 0.949 . S
C1258 C1262 1.368 . S
C1259 C1240 1.429 . S
C1259 C1253 1.429 . S
C1259 C1260 1.523 . S
C1260 C1241 1.368 . S
C1260 C1254 1.368 . S
C1260 C1259 1.523 . S
C1261 C1245 1.429 . S
C1261 C1257 1.429 . S
C1261 C1262 1.523 . S
C1262 C1246 1.368 . S
C1262 C1258 1.368 . S
C1262 C1261 1.523 . S
H1263 C1238 0.950 . S
H1264 C1240 0.950 . S
H1265 C1241 0.949 . S
H1266 C1243 0.950 . S
H1267 C1245 0.950 . S
C1268 C1269 1.349 . S
C1268 C1270 1.327 . S
C1268 H1293 0.950 . S
C1269 C1268 1.349 . S
C1269 C1285 1.349 . S
C1270 C1268 1.327 . S
C1270 C1289 1.429 . S
C1270 H1294 0.950 . S
C1271 C1288 1.574 . S
C1271 C1290 1.368 . S
C1271 H1295 0.949 . S
H1272 C1276 0.949 . S
C1273 C1274 1.349 . S
C1273 C1275 1.327 . S
C1273 H1296 0.950 . S
C1274 C1273 1.349 . S
C1274 C1286 1.349 . S
C1275 C1273 1.327 . S
C1275 C1291 1.429 . S
C1275 H1297 0.950 . S
C1276 H1272 0.949 . S
C1276 C1284 1.574 . S
C1276 C1292 1.368 . S
H1277 C1285 0.950 . S
H1278 C1283 0.950 . S
H1279 C1284 0.949 . S
H1280 C1286 0.950 . S
H1281 C1287 0.950 . S
H1282 C1288 0.949 . S
C1283 H1278 0.950 . S
C1283 C1285 1.327 . S
C1283 C1289 1.429 . S
C1284 C1276 1.574 . S
C1284 H1279 0.949 . S
C1284 C1290 1.368 . S
C1285 C1269 1.349 . S
C1285 H1277 0.950 . S
C1285 C1283 1.327 . S
C1286 C1274 1.349 . S
C1286 H1280 0.950 . S
C1286 C1287 1.327 . S
C1287 H1281 0.950 . S
C1287 C1286 1.327 . S
C1287 C1291 1.429 . S
C1288 C1271 1.574 . S
C1288 H1282 0.949 . S
C1288 C1292 1.368 . S
C1289 C1270 1.429 . S
C1289 C1283 1.429 . S
C1289 C1290 1.523 . S
C1290 C1271 1.368 . S
C1290 C1284 1.368 . S
C1290 C1289 1.523 . S
C1291 C1275 1.429 . S
C1291 C1287 1.429 . S
C1291 C1292 1.523 . S
C1292 C1276 1.368 . S
C1292 C1288 1.368 . S
C1292 C1291 1.523 . S
H1293 C1268 0.950 . S
H1294 C1270 0.950 . S
H1295 C1271 0.949 . S
H1296 C1273 0.950 . S
H1297 C1275 0.950 . S
C1298 C1299 1.349 . S
C1298 C1300 1.327 . S
C1298 H1323 0.950 . S
C1299 C1298 1.349 . S
C1299 C1315 1.349 . S
C1300 C1298 1.327 . S
C1300 C1319 1.429 . S
C1300 H1324 0.950 . S
C1301 C1318 1.574 . S
C1301 C1320 1.368 . S
C1301 H1325 0.949 . S
H1302 C1306 0.949 . S
C1303 C1304 1.349 . S
C1303 C1305 1.327 . S
C1303 H1326 0.950 . S
C1304 C1303 1.349 . S
C1304 C1316 1.349 . S
C1305 C1303 1.327 . S
C1305 C1321 1.429 . S
C1305 H1327 0.950 . S
C1306 H1302 0.949 . S
C1306 C1314 1.574 . S
C1306 C1322 1.368 . S
H1307 C1315 0.950 . S
H1308 C1313 0.950 . S
H1309 C1314 0.949 . S
H1310 C1316 0.950 . S
H1311 C1317 0.950 . S
H1312 C1318 0.949 . S
C1313 H1308 0.950 . S
C1313 C1315 1.327 . S
C1313 C1319 1.429 . S
C1314 C1306 1.574 . S
C1314 H1309 0.949 . S
C1314 C1320 1.368 . S
C1315 C1299 1.349 . S
C1315 H1307 0.950 . S
C1315 C1313 1.327 . S
C1316 C1304 1.349 . S
C1316 H1310 0.950 . S
C1316 C1317 1.327 . S
C1317 H1311 0.950 . S
C1317 C1316 1.327 . S
C1317 C1321 1.429 . S
C1318 C1301 1.574 . S
C1318 H1312 0.949 . S
C1318 C1322 1.368 . S
C1319 C1300 1.429 . S
C1319 C1313 1.429 . S
C1319 C1320 1.523 . S
C1320 C1301 1.368 . S
C1320 C1314 1.368 . S
C1320 C1319 1.523 . S
C1321 C1305 1.429 . S
C1321 C1317 1.429 . S
C1321 C1322 1.523 . S
C1322 C1306 1.368 . S
C1322 C1318 1.368 . S
C1322 C1321 1.523 . S
H1323 C1298 0.950 . S
H1324 C1300 0.950 . S
H1325 C1301 0.949 . S
H1326 C1303 0.950 . S
H1327 C1305 0.950 . S
C1328 C1329 1.349 . S
C1328 C1330 1.327 . S
C1328 H1353 0.950 . S
C1329 C1328 1.349 . S
C1329 C1345 1.349 . S
C1330 C1328 1.327 . S
C1330 C1349 1.429 . S
C1330 H1354 0.950 . S
C1331 C1348 1.574 . S
C1331 C1350 1.368 . S
C1331 H1355 0.949 . S
H1332 C1336 0.949 . S
C1333 C1334 1.349 . S
C1333 C1335 1.327 . S
C1333 H1356 0.950 . S
C1334 C1333 1.349 . S
C1334 C1346 1.349 . S
C1335 C1333 1.327 . S
C1335 C1351 1.429 . S
C1335 H1357 0.950 . S
C1336 H1332 0.949 . S
C1336 C1344 1.574 . S
C1336 C1352 1.368 . S
H1337 C1345 0.950 . S
H1338 C1343 0.950 . S
H1339 C1344 0.949 . S
H1340 C1346 0.950 . S
H1341 C1347 0.950 . S
H1342 C1348 0.949 . S
C1343 H1338 0.950 . S
C1343 C1345 1.327 . S
C1343 C1349 1.429 . S
C1344 C1336 1.574 . S
C1344 H1339 0.949 . S
C1344 C1350 1.368 . S
C1345 C1329 1.349 . S
C1345 H1337 0.950 . S
C1345 C1343 1.327 . S
C1346 C1334 1.349 . S
C1346 H1340 0.950 . S
C1346 C1347 1.327 . S
C1347 H1341 0.950 . S
C1347 C1346 1.327 . S
C1347 C1351 1.429 . S
C1348 C1331 1.574 . S
C1348 H1342 0.949 . S
C1348 C1352 1.368 . S
C1349 C1330 1.429 . S
C1349 C1343 1.429 . S
C1349 C1350 1.523 . S
C1350 C1331 1.368 . S
C1350 C1344 1.368 . S
C1350 C1349 1.523 . S
C1351 C1335 1.429 . S
C1351 C1347 1.429 . S
C1351 C1352 1.523 . S
C1352 C1336 1.368 . S
C1352 C1348 1.368 . S
C1352 C1351 1.523 . S
H1353 C1328 0.950 . S
H1354 C1330 0.950 . S
H1355 C1331 0.949 . S
H1356 C1333 0.950 . S
H1357 C1335 0.950 . S
C1358 C1359 1.349 . S
C1358 C1360 1.327 . S
C1358 H1383 0.950 . S
C1359 C1358 1.349 . S
C1359 C1375 1.349 . S
C1360 C1358 1.327 . S
C1360 C1379 1.429 . S
C1360 H1384 0.950 . S
C1361 C1378 1.574 . S
C1361 C1380 1.368 . S
C1361 H1385 0.949 . S
H1362 C1366 0.949 . S
C1363 C1364 1.349 . S
C1363 C1365 1.327 . S
C1363 H1386 0.950 . S
C1364 C1363 1.349 . S
C1364 C1376 1.349 . S
C1365 C1363 1.327 . S
C1365 C1381 1.429 . S
C1365 H1387 0.950 . S
C1366 H1362 0.949 . S
C1366 C1374 1.574 . S
C1366 C1382 1.368 . S
H1367 C1375 0.950 . S
H1368 C1373 0.950 . S
H1369 C1374 0.949 . S
H1370 C1376 0.950 . S
H1371 C1377 0.950 . S
H1372 C1378 0.949 . S
C1373 H1368 0.950 . S
C1373 C1375 1.327 . S
C1373 C1379 1.429 . S
C1374 C1366 1.574 . S
C1374 H1369 0.949 . S
C1374 C1380 1.368 . S
C1375 C1359 1.349 . S
C1375 H1367 0.950 . S
C1375 C1373 1.327 . S
C1376 C1364 1.349 . S
C1376 H1370 0.950 . S
C1376 C1377 1.327 . S
C1377 H1371 0.950 . S
C1377 C1376 1.327 . S
C1377 C1381 1.429 . S
C1378 C1361 1.574 . S
C1378 H1372 0.949 . S
C1378 C1382 1.368 . S
C1379 C1360 1.429 . S
C1379 C1373 1.429 . S
C1379 C1380 1.523 . S
C1380 C1361 1.368 . S
C1380 C1374 1.368 . S
C1380 C1379 1.523 . S
C1381 C1365 1.429 . S
C1381 C1377 1.429 . S
C1381 C1382 1.523 . S
C1382 C1366 1.368 . S
C1382 C1378 1.368 . S
C1382 C1381 1.523 . S
H1383 C1358 0.950 . S
H1384 C1360 0.950 . S
H1385 C1361 0.949 . S
H1386 C1363 0.950 . S
H1387 C1365 0.950 . S
C1388 C1389 1.349 . S
C1388 C1390 1.327 . S
C1388 H1413 0.950 . S
C1389 C1388 1.349 . S
C1389 C1405 1.349 . S
C1390 C1388 1.327 . S
C1390 C1409 1.429 . S
C1390 H1414 0.950 . S
C1391 C1408 1.574 . S
C1391 C1410 1.368 . S
C1391 H1415 0.949 . S
H1392 C1396 0.949 . S
C1393 C1394 1.349 . S
C1393 C1395 1.327 . S
C1393 H1416 0.950 . S
C1394 C1393 1.349 . S
C1394 C1406 1.349 . S
C1395 C1393 1.327 . S
C1395 C1411 1.429 . S
C1395 H1417 0.950 . S
C1396 H1392 0.949 . S
C1396 C1404 1.574 . S
C1396 C1412 1.368 . S
H1397 C1405 0.950 . S
H1398 C1403 0.950 . S
H1399 C1404 0.949 . S
H1400 C1406 0.950 . S
H1401 C1407 0.950 . S
H1402 C1408 0.949 . S
C1403 H1398 0.950 . S
C1403 C1405 1.327 . S
C1403 C1409 1.429 . S
C1404 C1396 1.574 . S
C1404 H1399 0.949 . S
C1404 C1410 1.368 . S
C1405 C1389 1.349 . S
C1405 H1397 0.950 . S
C1405 C1403 1.327 . S
C1406 C1394 1.349 . S
C1406 H1400 0.950 . S
C1406 C1407 1.327 . S
C1407 H1401 0.950 . S
C1407 C1406 1.327 . S
C1407 C1411 1.429 . S
C1408 C1391 1.574 . S
C1408 H1402 0.949 . S
C1408 C1412 1.368 . S
C1409 C1390 1.429 . S
C1409 C1403 1.429 . S
C1409 C1410 1.523 . S
C1410 C1391 1.368 . S
C1410 C1404 1.368 . S
C1410 C1409 1.523 . S
C1411 C1395 1.429 . S
C1411 C1407 1.429 . S
C1411 C1412 1.523 . S
C1412 C1396 1.368 . S
C1412 C1408 1.368 . S
C1412 C1411 1.523 . S
H1413 C1388 0.950 . S
H1414 C1390 0.950 . S
H1415 C1391 0.949 . S
H1416 C1393 0.950 . S
H1417 C1395 0.950 . S
C1418 C1419 1.349 . S
C1418 C1420 1.327 . S
C1418 H1443 0.950 . S
C1419 C1418 1.349 . S
C1419 C1435 1.349 . S
C1420 C1418 1.327 . S
C1420 C1439 1.429 . S
C1420 H1444 0.950 . S
C1421 C1438 1.574 . S
C1421 C1440 1.368 . S
C1421 H1445 0.949 . S
H1422 C1426 0.949 . S
C1423 C1424 1.349 . S
C1423 C1425 1.327 . S
C1423 H1446 0.950 . S
C1424 C1423 1.349 . S
C1424 C1436 1.349 . S
C1425 C1423 1.327 . S
C1425 C1441 1.429 . S
C1425 H1447 0.950 . S
C1426 H1422 0.949 . S
C1426 C1434 1.574 . S
C1426 C1442 1.368 . S
H1427 C1435 0.950 . S
H1428 C1433 0.950 . S
H1429 C1434 0.949 . S
H1430 C1436 0.950 . S
H1431 C1437 0.950 . S
H1432 C1438 0.949 . S
C1433 H1428 0.950 . S
C1433 C1435 1.327 . S
C1433 C1439 1.429 . S
C1434 C1426 1.574 . S
C1434 H1429 0.949 . S
C1434 C1440 1.368 . S
C1435 C1419 1.349 . S
C1435 H1427 0.950 . S
C1435 C1433 1.327 . S
C1436 C1424 1.349 . S
C1436 H1430 0.950 . S
C1436 C1437 1.327 . S
C1437 H1431 0.950 . S
C1437 C1436 1.327 . S
C1437 C1441 1.429 . S
C1438 C1421 1.574 . S
C1438 H1432 0.949 . S
C1438 C1442 1.368 . S
C1439 C1420 1.429 . S
C1439 C1433 1.429 . S
C1439 C1440 1.523 . S
C1440 C1421 1.368 . S
C1440 C1434 1.368 . S
C1440 C1439 1.523 . S
C1441 C1425 1.429 . S
C1441 C1437 1.429 . S
C1441 C1442 1.523 . S
C1442 C1426 1.368 . S
C1442 C1438 1.368 . S
C1442 C1441 1.523 . S
H1443 C1418 0.950 . S
H1444 C1420 0.950 . S
H1445 C1421 0.949 . S
H1446 C1423 0.950 . S
H1447 C1425 0.950 . S
C1448 C1449 1.349 . S
C1448 C1450 1.327 . S
C1448 H1473 0.950 . S
C1449 C1448 1.349 . S
C1449 C1465 1.349 . S
C1450 C1448 1.327 . S
C1450 C1469 1.429 . S
C1450 H1474 0.950 . S
C1451 C1468 1.574 . S
C1451 C1470 1.368 . S
C1451 H1475 0.949 . S
H1452 C1456 0.949 . S
C1453 C1454 1.349 . S
C1453 C1455 1.327 . S
C1453 H1476 0.950 . S
C1454 C1453 1.349 . S
C1454 C1466 1.349 . S
C1455 C1453 1.327 . S
C1455 C1471 1.429 . S
C1455 H1477 0.950 . S
C1456 H1452 0.949 . S
C1456 C1464 1.574 . S
C1456 C1472 1.368 . S
H1457 C1465 0.950 . S
H1458 C1463 0.950 . S
H1459 C1464 0.949 . S
H1460 C1466 0.950 . S
H1461 C1467 0.950 . S
H1462 C1468 0.949 . S
C1463 H1458 0.950 . S
C1463 C1465 1.327 . S
C1463 C1469 1.429 . S
C1464 C1456 1.574 . S
C1464 H1459 0.949 . S
C1464 C1470 1.368 . S
C1465 C1449 1.349 . S
C1465 H1457 0.950 . S
C1465 C1463 1.327 . S
C1466 C1454 1.349 . S
C1466 H1460 0.950 . S
C1466 C1467 1.327 . S
C1467 H1461 0.950 . S
C1467 C1466 1.327 . S
C1467 C1471 1.429 . S
C1468 C1451 1.574 . S
C1468 H1462 0.949 . S
C1468 C1472 1.368 . S
C1469 C1450 1.429 . S
C1469 C1463 1.429 . S
C1469 C1470 1.523 . S
C1470 C1451 1.368 . S
C1470 C1464 1.368 . S
C1470 C1469 1.523 . S
C1471 C1455 1.429 . S
C1471 C1467 1.429 . S
C1471 C1472 1.523 . S
C1472 C1456 1.368 . S
C1472 C1468 1.368 . S
C1472 C1471 1.523 . S
H1473 C1448 0.950 . S
H1474 C1450 0.950 . S
H1475 C1451 0.949 . S
H1476 C1453 0.950 . S
H1477 C1455 0.950 . S
C1478 C1479 1.349 . S
C1478 C1480 1.327 . S
C1478 H1503 0.950 . S
C1479 C1478 1.349 . S
C1479 C1495 1.349 . S
C1480 C1478 1.327 . S
C1480 C1499 1.429 . S
C1480 H1504 0.950 . S
C1481 C1498 1.574 . S
C1481 C1500 1.368 . S
C1481 H1505 0.949 . S
H1482 C1486 0.949 . S
C1483 C1484 1.349 . S
C1483 C1485 1.327 . S
C1483 H1506 0.950 . S
C1484 C1483 1.349 . S
C1484 C1496 1.349 . S
C1485 C1483 1.327 . S
C1485 C1501 1.429 . S
C1485 H1507 0.950 . S
C1486 H1482 0.949 . S
C1486 C1494 1.574 . S
C1486 C1502 1.368 . S
H1487 C1495 0.950 . S
H1488 C1493 0.950 . S
H1489 C1494 0.949 . S
H1490 C1496 0.950 . S
H1491 C1497 0.950 . S
H1492 C1498 0.949 . S
C1493 H1488 0.950 . S
C1493 C1495 1.327 . S
C1493 C1499 1.429 . S
C1494 C1486 1.574 . S
C1494 H1489 0.949 . S
C1494 C1500 1.368 . S
C1495 C1479 1.349 . S
C1495 H1487 0.950 . S
C1495 C1493 1.327 . S
C1496 C1484 1.349 . S
C1496 H1490 0.950 . S
C1496 C1497 1.327 . S
C1497 H1491 0.950 . S
C1497 C1496 1.327 . S
C1497 C1501 1.429 . S
C1498 C1481 1.574 . S
C1498 H1492 0.949 . S
C1498 C1502 1.368 . S
C1499 C1480 1.429 . S
C1499 C1493 1.429 . S
C1499 C1500 1.523 . S
C1500 C1481 1.368 . S
C1500 C1494 1.368 . S
C1500 C1499 1.523 . S
C1501 C1485 1.429 . S
C1501 C1497 1.429 . S
C1501 C1502 1.523 . S
C1502 C1486 1.368 . S
C1502 C1498 1.368 . S
C1502 C1501 1.523 . S
H1503 C1478 0.950 . S
H1504 C1480 0.950 . S
H1505 C1481 0.949 . S
H1506 C1483 0.950 . S
H1507 C1485 0.950 . S
C1508 C1509 1.349 . S
C1508 C1510 1.327 . S
C1508 H1533 0.950 . S
C1509 C1508 1.349 . S
C1509 C1525 1.349 . S
C1510 C1508 1.327 . S
C1510 C1529 1.429 . S
C1510 H1534 0.950 . S
C1511 C1528 1.574 . S
C1511 C1530 1.368 . S
C1511 H1535 0.949 . S
H1512 C1516 0.949 . S
C1513 C1514 1.349 . S
C1513 C1515 1.327 . S
C1513 H1536 0.950 . S
C1514 C1513 1.349 . S
C1514 C1526 1.349 . S
C1515 C1513 1.327 . S
C1515 C1531 1.429 . S
C1515 H1537 0.950 . S
C1516 H1512 0.949 . S
C1516 C1524 1.574 . S
C1516 C1532 1.368 . S
H1517 C1525 0.950 . S
H1518 C1523 0.950 . S
H1519 C1524 0.949 . S
H1520 C1526 0.950 . S
H1521 C1527 0.950 . S
H1522 C1528 0.949 . S
C1523 H1518 0.950 . S
C1523 C1525 1.327 . S
C1523 C1529 1.429 . S
C1524 C1516 1.574 . S
C1524 H1519 0.949 . S
C1524 C1530 1.368 . S
C1525 C1509 1.349 . S
C1525 H1517 0.950 . S
C1525 C1523 1.327 . S
C1526 C1514 1.349 . S
C1526 H1520 0.950 . S
C1526 C1527 1.327 . S
C1527 H1521 0.950 . S
C1527 C1526 1.327 . S
C1527 C1531 1.429 . S
C1528 C1511 1.574 . S
C1528 H1522 0.949 . S
C1528 C1532 1.368 . S
C1529 C1510 1.429 . S
C1529 C1523 1.429 . S
C1529 C1530 1.523 . S
C1530 C1511 1.368 . S
C1530 C1524 1.368 . S
C1530 C1529 1.523 . S
C1531 C1515 1.429 . S
C1531 C1527 1.429 . S
C1531 C1532 1.523 . S
C1532 C1516 1.368 . S
C1532 C1528 1.368 . S
C1532 C1531 1.523 . S
H1533 C1508 0.950 . S
H1534 C1510 0.950 . S
H1535 C1511 0.949 . S
H1536 C1513 0.950 . S
H1537 C1515 0.950 . S
C1538 C1539 1.349 . S
C1538 C1540 1.327 . S
C1538 H1563 0.950 . S
C1539 C1538 1.349 . S
C1539 C1555 1.349 . S
C1540 C1538 1.327 . S
C1540 C1559 1.429 . S
C1540 H1564 0.950 . S
C1541 C1558 1.574 . S
C1541 C1560 1.368 . S
C1541 H1565 0.949 . S
H1542 C1546 0.949 . S
C1543 C1544 1.349 . S
C1543 C1545 1.327 . S
C1543 H1566 0.950 . S
C1544 C1543 1.349 . S
C1544 C1556 1.349 . S
C1545 C1543 1.327 . S
C1545 C1561 1.429 . S
C1545 H1567 0.950 . S
C1546 H1542 0.949 . S
C1546 C1554 1.574 . S
C1546 C1562 1.368 . S
H1547 C1555 0.950 . S
H1548 C1553 0.950 . S
H1549 C1554 0.949 . S
H1550 C1556 0.950 . S
H1551 C1557 0.950 . S
H1552 C1558 0.949 . S
C1553 H1548 0.950 . S
C1553 C1555 1.327 . S
C1553 C1559 1.429 . S
C1554 C1546 1.574 . S
C1554 H1549 0.949 . S
C1554 C1560 1.368 . S
C1555 C1539 1.349 . S
C1555 H1547 0.950 . S
C1555 C1553 1.327 . S
C1556 C1544 1.349 . S
C1556 H1550 0.950 . S
C1556 C1557 1.327 . S
C1557 H1551 0.950 . S
C1557 C1556 1.327 . S
C1557 C1561 1.429 . S
C1558 C1541 1.574 . S
C1558 H1552 0.949 . S
C1558 C1562 1.368 . S
C1559 C1540 1.429 . S
C1559 C1553 1.429 . S
C1559 C1560 1.523 . S
C1560 C1541 1.368 . S
C1560 C1554 1.368 . S
C1560 C1559 1.523 . S
C1561 C1545 1.429 . S
C1561 C1557 1.429 . S
C1561 C1562 1.523 . S
C1562 C1546 1.368 . S
C1562 C1558 1.368 . S
C1562 C1561 1.523 . S
H1563 C1538 0.950 . S
H1564 C1540 0.950 . S
H1565 C1541 0.949 . S
H1566 C1543 0.950 . S
H1567 C1545 0.950 . S
C1568 C1569 1.349 . S
C1568 C1570 1.327 . S
C1568 H1593 0.950 . S
C1569 C1568 1.349 . S
C1569 C1585 1.349 . S
C1570 C1568 1.327 . S
C1570 C1589 1.429 . S
C1570 H1594 0.950 . S
C1571 C1588 1.574 . S
C1571 C1590 1.368 1_545 S
C1571 H1595 0.949 1_545 S
H1572 C1576 0.949 . S
C1573 C1574 1.349 . S
C1573 C1575 1.327 . S
C1573 H1596 0.950 . S
C1574 C1573 1.349 . S
C1574 C1586 1.349 . S
C1575 C1573 1.327 . S
C1575 C1591 1.429 . S
C1575 H1597 0.950 . S
C1576 H1572 0.949 . S
C1576 C1584 1.574 . S
C1576 C1592 1.368 . S
H1577 C1585 0.950 . S
H1578 C1583 0.950 . S
H1579 C1584 0.949 1_565 S
H1580 C1586 0.950 . S
H1581 C1587 0.950 . S
H1582 C1588 0.949 . S
C1583 H1578 0.950 . S
C1583 C1585 1.327 . S
C1583 C1589 1.429 . S
C1584 C1576 1.574 . S
C1584 H1579 0.949 1_545 S
C1584 C1590 1.368 1_545 S
C1585 C1569 1.349 . S
C1585 H1577 0.950 . S
C1585 C1583 1.327 . S
C1586 C1574 1.349 . S
C1586 H1580 0.950 . S
C1586 C1587 1.327 . S
C1587 H1581 0.950 . S
C1587 C1586 1.327 . S
C1587 C1591 1.429 . S
C1588 C1571 1.574 . S
C1588 H1582 0.949 . S
C1588 C1592 1.368 . S
C1589 C1570 1.429 . S
C1589 C1583 1.429 . S
C1589 C1590 1.523 . S
C1590 C1571 1.368 1_565 S
C1590 C1584 1.368 1_565 S
C1590 C1589 1.523 . S
C1591 C1575 1.429 . S
C1591 C1587 1.429 . S
C1591 C1592 1.523 . S
C1592 C1576 1.368 . S
C1592 C1588 1.368 . S
C1592 C1591 1.523 . S
H1593 C1568 0.950 . S
H1594 C1570 0.950 . S
H1595 C1571 0.949 1_565 S
H1596 C1573 0.950 . S
H1597 C1575 0.950 . S
C1598 C1599 1.349 . S
C1598 C1600 1.327 . S
C1598 H1623 0.950 . S
C1599 C1598 1.349 . S
C1599 C1615 1.349 . S
C1600 C1598 1.327 . S
C1600 C1619 1.429 . S
C1600 H1624 0.950 . S
C1601 C1618 1.574 . S
C1601 C1620 1.368 . S
C1601 H1625 0.949 . S
H1602 C1606 0.949 1_545 S
C1603 C1604 1.349 . S
C1603 C1605 1.327 . S
C1603 H1626 0.950 . S
C1604 C1603 1.349 . S
C1604 C1616 1.349 . S
C1605 C1603 1.327 . S
C1605 C1621 1.429 . S
C1605 H1627 0.950 . S
C1606 H1602 0.949 1_565 S
C1606 C1614 1.574 . S
C1606 C1622 1.368 1_565 S
H1607 C1615 0.950 . S
H1608 C1613 0.950 . S
H1609 C1614 0.949 . S
H1610 C1616 0.950 . S
H1611 C1617 0.950 . S
H1612 C1618 0.949 1_545 S
C1613 H1608 0.950 . S
C1613 C1615 1.327 . S
C1613 C1619 1.429 . S
C1614 C1606 1.574 . S
C1614 H1609 0.949 . S
C1614 C1620 1.368 . S
C1615 C1599 1.349 . S
C1615 H1607 0.950 . S
C1615 C1613 1.327 . S
C1616 C1604 1.349 . S
C1616 H1610 0.950 . S
C1616 C1617 1.327 . S
C1617 H1611 0.950 . S
C1617 C1616 1.327 . S
C1617 C1621 1.429 . S
C1618 C1601 1.574 . S
C1618 H1612 0.949 1_565 S
C1618 C1622 1.368 1_565 S
C1619 C1600 1.429 . S
C1619 C1613 1.429 . S
C1619 C1620 1.523 . S
C1620 C1601 1.368 . S
C1620 C1614 1.368 . S
C1620 C1619 1.523 . S
C1621 C1605 1.429 . S
C1621 C1617 1.429 . S
C1621 C1622 1.523 . S
C1622 C1606 1.368 1_545 S
C1622 C1618 1.368 1_545 S
C1622 C1621 1.523 . S
H1623 C1598 0.950 . S
H1624 C1600 0.950 . S
H1625 C1601 0.949 . S
H1626 C1603 0.950 . S
H1627 C1605 0.950 . S
C1628 C1629 1.349 . S
C1628 C1630 1.327 . S
C1628 H1653 0.950 . S
C1629 C1628 1.349 . S
C1629 C1645 1.349 . S
C1630 C1628 1.327 . S
C1630 C1649 1.429 . S
C1630 H1654 0.950 . S
C1631 C1648 1.574 . S
C1631 C1650 1.368 1_565 S
C1631 H1655 0.949 1_565 S
H1632 C1636 0.949 . S
C1633 C1634 1.349 . S
C1633 C1635 1.327 . S
C1633 H1656 0.950 . S
C1634 C1633 1.349 . S
C1634 C1646 1.349 . S
C1635 C1633 1.327 . S
C1635 C1651 1.429 . S
C1635 H1657 0.950 . S
C1636 H1632 0.949 . S
C1636 C1644 1.574 . S
C1636 C1652 1.368 . S
H1637 C1645 0.950 . S
H1638 C1643 0.950 . S
H1639 C1644 0.949 1_545 S
H1640 C1646 0.950 . S
H1641 C1647 0.950 . S
H1642 C1648 0.949 . S
C1643 H1638 0.950 . S
C1643 C1645 1.327 . S
C1643 C1649 1.429 . S
C1644 C1636 1.574 . S
C1644 H1639 0.949 1_565 S
C1644 C1650 1.368 1_565 S
C1645 C1629 1.349 . S
C1645 H1637 0.950 . S
C1645 C1643 1.327 . S
C1646 C1634 1.349 . S
C1646 H1640 0.950 . S
C1646 C1647 1.327 . S
C1647 H1641 0.950 . S
C1647 C1646 1.327 . S
C1647 C1651 1.429 . S
C1648 C1631 1.574 . S
C1648 H1642 0.949 . S
C1648 C1652 1.368 . S
C1649 C1630 1.429 . S
C1649 C1643 1.429 . S
C1649 C1650 1.523 . S
C1650 C1631 1.368 1_545 S
C1650 C1644 1.368 1_545 S
C1650 C1649 1.523 . S
C1651 C1635 1.429 . S
C1651 C1647 1.429 . S
C1651 C1652 1.523 . S
C1652 C1636 1.368 . S
C1652 C1648 1.368 . S
C1652 C1651 1.523 . S
H1653 C1628 0.950 . S
H1654 C1630 0.950 . S
H1655 C1631 0.949 1_545 S
H1656 C1633 0.950 . S
H1657 C1635 0.950 . S
C1658 C1659 1.349 . S
C1658 C1660 1.327 . S
C1658 H1683 0.950 . S
C1659 C1658 1.349 . S
C1659 C1675 1.349 . S
C1660 C1658 1.327 . S
C1660 C1679 1.429 . S
C1660 H1684 0.950 . S
C1661 C1678 1.574 . S
C1661 C1680 1.368 1_545 S
C1661 H1685 0.949 1_545 S
H1662 C1666 0.949 . S
C1663 C1664 1.349 . S
C1663 C1665 1.327 . S
C1663 H1686 0.950 . S
C1664 C1663 1.349 . S
C1664 C1676 1.349 . S
C1665 C1663 1.327 . S
C1665 C1681 1.429 . S
C1665 H1687 0.950 . S
C1666 H1662 0.949 . S
C1666 C1674 1.574 . S
C1666 C1682 1.368 . S
H1667 C1675 0.950 . S
H1668 C1673 0.950 . S
H1669 C1674 0.949 1_565 S
H1670 C1676 0.950 . S
H1671 C1677 0.950 . S
H1672 C1678 0.949 . S
C1673 H1668 0.950 . S
C1673 C1675 1.327 . S
C1673 C1679 1.429 . S
C1674 C1666 1.574 . S
C1674 H1669 0.949 1_545 S
C1674 C1680 1.368 1_545 S
C1675 C1659 1.349 . S
C1675 H1667 0.950 . S
C1675 C1673 1.327 . S
C1676 C1664 1.349 . S
C1676 H1670 0.950 . S
C1676 C1677 1.327 . S
C1677 H1671 0.950 . S
C1677 C1676 1.327 . S
C1677 C1681 1.429 . S
C1678 C1661 1.574 . S
C1678 H1672 0.949 . S
C1678 C1682 1.368 . S
C1679 C1660 1.429 . S
C1679 C1673 1.429 . S
C1679 C1680 1.523 . S
C1680 C1661 1.368 1_565 S
C1680 C1674 1.368 1_565 S
C1680 C1679 1.523 . S
C1681 C1665 1.429 . S
C1681 C1677 1.429 . S
C1681 C1682 1.523 . S
C1682 C1666 1.368 . S
C1682 C1678 1.368 . S
C1682 C1681 1.523 . S
H1683 C1658 0.950 . S
H1684 C1660 0.950 . S
H1685 C1661 0.949 1_565 S
H1686 C1663 0.950 . S
H1687 C1665 0.950 . S
C1688 C1689 1.349 . S
C1688 C1690 1.327 . S
C1688 H1713 0.950 . S
C1689 C1688 1.349 . S
C1689 C1705 1.349 . S
C1690 C1688 1.327 . S
C1690 C1709 1.429 . S
C1690 H1714 0.950 . S
C1691 C1708 1.574 . S
C1691 C1710 1.368 . S
C1691 H1715 0.949 . S
H1692 C1696 0.949 1_545 S
C1693 C1694 1.349 . S
C1693 C1695 1.327 . S
C1693 H1716 0.950 . S
C1694 C1693 1.349 . S
C1694 C1706 1.349 . S
C1695 C1693 1.327 . S
C1695 C1711 1.429 . S
C1695 H1717 0.950 . S
C1696 H1692 0.949 1_565 S
C1696 C1704 1.574 . S
C1696 C1712 1.368 1_565 S
H1697 C1705 0.950 . S
H1698 C1703 0.950 . S
H1699 C1704 0.949 . S
H1700 C1706 0.950 . S
H1701 C1707 0.950 . S
H1702 C1708 0.949 1_545 S
C1703 H1698 0.950 . S
C1703 C1705 1.327 . S
C1703 C1709 1.429 . S
C1704 C1696 1.574 . S
C1704 H1699 0.949 . S
C1704 C1710 1.368 . S
C1705 C1689 1.349 . S
C1705 H1697 0.950 . S
C1705 C1703 1.327 . S
C1706 C1694 1.349 . S
C1706 H1700 0.950 . S
C1706 C1707 1.327 . S
C1707 H1701 0.950 . S
C1707 C1706 1.327 . S
C1707 C1711 1.429 . S
C1708 C1691 1.574 . S
C1708 H1702 0.949 1_565 S
C1708 C1712 1.368 1_565 S
C1709 C1690 1.429 . S
C1709 C1703 1.429 . S
C1709 C1710 1.523 . S
C1710 C1691 1.368 . S
C1710 C1704 1.368 . S
C1710 C1709 1.523 . S
C1711 C1695 1.429 . S
C1711 C1707 1.429 . S
C1711 C1712 1.523 . S
C1712 C1696 1.368 1_545 S
C1712 C1708 1.368 1_545 S
C1712 C1711 1.523 . S
H1713 C1688 0.950 . S
H1714 C1690 0.950 . S
H1715 C1691 0.949 . S
H1716 C1693 0.950 . S
H1717 C1695 0.950 . S
C1718 C1719 1.349 . S
C1718 C1720 1.327 . S
C1718 H1743 0.950 . S
C1719 C1718 1.349 . S
C1719 C1735 1.349 . S
C1720 C1718 1.327 . S
C1720 C1739 1.429 . S
C1720 H1744 0.950 . S
C1721 C1738 1.574 . S
C1721 C1740 1.368 . S
C1721 H1745 0.949 . S
H1722 C1726 0.949 1_565 S
C1723 C1724 1.349 . S
C1723 C1725 1.327 . S
C1723 H1746 0.950 . S
C1724 C1723 1.349 . S
C1724 C1736 1.349 . S
C1725 C1723 1.327 . S
C1725 C1741 1.429 . S
C1725 H1747 0.950 . S
C1726 H1722 0.949 1_545 S
C1726 C1734 1.574 . S
C1726 C1742 1.368 1_545 S
H1727 C1735 0.950 . S
H1728 C1733 0.950 . S
H1729 C1734 0.949 . S
H1730 C1736 0.950 . S
H1731 C1737 0.950 . S
H1732 C1738 0.949 1_565 S
C1733 H1728 0.950 . S
C1733 C1735 1.327 . S
C1733 C1739 1.429 . S
C1734 C1726 1.574 . S
C1734 H1729 0.949 . S
C1734 C1740 1.368 . S
C1735 C1719 1.349 . S
C1735 H1727 0.950 . S
C1735 C1733 1.327 . S
C1736 C1724 1.349 . S
C1736 H1730 0.950 . S
C1736 C1737 1.327 . S
C1737 H1731 0.950 . S
C1737 C1736 1.327 . S
C1737 C1741 1.429 . S
C1738 C1721 1.574 . S
C1738 H1732 0.949 1_545 S
C1738 C1742 1.368 1_545 S
C1739 C1720 1.429 . S
C1739 C1733 1.429 . S
C1739 C1740 1.523 . S
C1740 C1721 1.368 . S
C1740 C1734 1.368 . S
C1740 C1739 1.523 . S
C1741 C1725 1.429 . S
C1741 C1737 1.429 . S
C1741 C1742 1.523 . S
C1742 C1726 1.368 1_565 S
C1742 C1738 1.368 1_565 S
C1742 C1741 1.523 . S
H1743 C1718 0.950 . S
H1744 C1720 0.950 . S
H1745 C1721 0.949 . S
H1746 C1723 0.950 . S
H1747 C1725 0.950 . S
C1748 C1749 1.349 . S
C1748 C1750 1.327 . S
C1748 H1773 0.950 . S
C1749 C1748 1.349 . S
C1749 C1765 1.349 . S
C1750 C1748 1.327 . S
C1750 C1769 1.429 . S
C1750 H1774 0.950 . S
C1751 C1768 1.574 . S
C1751 C1770 1.368 1_545 S
C1751 H1775 0.949 1_545 S
H1752 C1756 0.949 . S
C1753 C1754 1.349 . S
C1753 C1755 1.327 . S
C1753 H1776 0.950 . S
C1754 C1753 1.349 . S
C1754 C1766 1.349 . S
C1755 C1753 1.327 . S
C1755 C1771 1.429 . S
C1755 H1777 0.950 . S
C1756 H1752 0.949 . S
C1756 C1764 1.574 . S
C1756 C1772 1.368 . S
H1757 C1765 0.950 . S
H1758 C1763 0.950 . S
H1759 C1764 0.949 1_565 S
H1760 C1766 0.950 . S
H1761 C1767 0.950 . S
H1762 C1768 0.949 . S
C1763 H1758 0.950 . S
C1763 C1765 1.327 . S
C1763 C1769 1.429 . S
C1764 C1756 1.574 . S
C1764 H1759 0.949 1_545 S
C1764 C1770 1.368 1_545 S
C1765 C1749 1.349 . S
C1765 H1757 0.950 . S
C1765 C1763 1.327 . S
C1766 C1754 1.349 . S
C1766 H1760 0.950 . S
C1766 C1767 1.327 . S
C1767 H1761 0.950 . S
C1767 C1766 1.327 . S
C1767 C1771 1.429 . S
C1768 C1751 1.574 . S
C1768 H1762 0.949 . S
C1768 C1772 1.368 . S
C1769 C1750 1.429 . S
C1769 C1763 1.429 . S
C1769 C1770 1.523 . S
C1770 C1751 1.368 1_565 S
C1770 C1764 1.368 1_565 S
C1770 C1769 1.523 . S
C1771 C1755 1.429 . S
C1771 C1767 1.429 . S
C1771 C1772 1.523 . S
C1772 C1756 1.368 . S
C1772 C1768 1.368 . S
C1772 C1771 1.523 . S
H1773 C1748 0.950 . S
H1774 C1750 0.950 . S
H1775 C1751 0.949 1_565 S
H1776 C1753 0.950 . S
H1777 C1755 0.950 . S
C1778 C1779 1.349 . S
C1778 C1780 1.327 . S
C1778 H1803 0.950 . S
C1779 C1778 1.349 . S
C1779 C1795 1.349 . S
C1780 C1778 1.327 . S
C1780 C1799 1.429 . S
C1780 H1804 0.950 . S
C1781 C1798 1.574 . S
C1781 C1800 1.368 . S
C1781 H1805 0.949 . S
H1782 C1786 0.949 1_545 S
C1783 C1784 1.349 . S
C1783 C1785 1.327 . S
C1783 H1806 0.950 . S
C1784 C1783 1.349 . S
C1784 C1796 1.349 . S
C1785 C1783 1.327 . S
C1785 C1801 1.429 . S
C1785 H1807 0.950 . S
C1786 H1782 0.949 1_565 S
C1786 C1794 1.574 . S
C1786 C1802 1.368 1_565 S
H1787 C1795 0.950 . S
H1788 C1793 0.950 . S
H1789 C1794 0.949 . S
H1790 C1796 0.950 . S
H1791 C1797 0.950 . S
H1792 C1798 0.949 1_545 S
C1793 H1788 0.950 . S
C1793 C1795 1.327 . S
C1793 C1799 1.429 . S
C1794 C1786 1.574 . S
C1794 H1789 0.949 . S
C1794 C1800 1.368 . S
C1795 C1779 1.349 . S
C1795 H1787 0.950 . S
C1795 C1793 1.327 . S
C1796 C1784 1.349 . S
C1796 H1790 0.950 . S
C1796 C1797 1.327 . S
C1797 H1791 0.950 . S
C1797 C1796 1.327 . S
C1797 C1801 1.429 . S
C1798 C1781 1.574 . S
C1798 H1792 0.949 1_565 S
C1798 C1802 1.368 1_565 S
C1799 C1780 1.429 . S
C1799 C1793 1.429 . S
C1799 C1800 1.523 . S
C1800 C1781 1.368 . S
C1800 C1794 1.368 . S
C1800 C1799 1.523 . S
C1801 C1785 1.429 . S
C1801 C1797 1.429 . S
C1801 C1802 1.523 . S
C1802 C1786 1.368 1_545 S
C1802 C1798 1.368 1_545 S
C1802 C1801 1.523 . S
H1803 C1778 0.950 . S
H1804 C1780 0.950 . S
H1805 C1781 0.949 . S
H1806 C1783 0.950 . S
H1807 C1785 0.950 . S
C369 C18 1.540 . S
C374 C225 1.540 . S
C399 C41 1.540 . S
C404 C202 1.540 . S
C429 C271 1.540 . S
C434 C64 1.540 . S
C459 C87 1.540 . S
C464 C248 1.540 . S
C489 C317 1.429 . S
C494 C110 1.429 . S
C519 C294 1.429 . S
C524 C133 1.429 . S
C549 C363 1.429 . S
C554 C156 1.429 . S
C579 C179 1.429 . S
C584 C340 1.429 . S
C609 C66 1.410 . S
C614 C20 1.410 . S
C639 C89 1.410 . S
C644 C43 1.410 . S
C669 C157 1.401 . S
C674 C111 1.401 . S
C699 C134 1.401 . S
C704 C180 1.401 . S
C729 C250 1.410 . S
C734 C204 1.410 . S
C759 C273 1.410 . S
C764 C227 1.410 . S
C789 C295 1.401 . S
C794 C341 1.401 . S
C819 C318 1.402 . S
C824 C364 1.402 . S
C849 C135 1.424 . S
C854 C19 1.416 . S
C879 C112 1.424 . S
C884 C42 1.416 . S
C909 C65 1.416 . S
C914 C181 1.424 . S
C939 C158 1.424 . S
C944 C88 1.416 . S
C969 C203 1.416 . S
C974 C319 1.424 . S
C999 C296 1.424 . S
C1004 C226 1.416 . S
C1029 C249 1.416 . S
C1034 C365 1.424 . S
C1059 C342 1.424 . S
C1064 C272 1.416 . S
C1089 C44 1.430 . S
C1094 C21 1.430 . S
C1119 C90 1.430 . S
C1124 C67 1.430 . S
C1149 C136 1.564 . S
C1154 C113 1.564 . S
C1179 C159 1.564 . S
C1184 C182 1.564 . S
C1209 C228 1.430 . S
C1214 C205 1.430 . S
C1239 C274 1.430 . S
C1244 C251 1.430 . S
C1269 C297 1.564 . S
C1274 C320 1.564 . S
C1299 C343 1.564 . S
C1304 C366 1.564 . S
C1329 C17 1.211 . S
C1334 C16 1.209 . S
C1359 C40 1.211 . S
C1364 C39 1.209 . S
C1389 C63 1.211 . S
C1394 C62 1.209 . S
C1419 C85 1.209 . S
C1424 C86 1.211 . S
C1449 C109 1.211 . S
C1454 C108 1.209 . S
C1479 C131 1.209 . S
C1484 C132 1.211 . S
C1509 C155 1.211 . S
C1514 C154 1.209 . S
C1539 C178 1.211 . S
C1544 C177 1.209 . S
C1569 C200 1.209 . S
C1574 C201 1.211 . S
C1599 C224 1.211 . S
C1604 C223 1.209 . S
C1629 C246 1.209 . S
C1634 C247 1.211 . S
C1659 C269 1.209 . S
C1664 C270 1.211 . S
C1689 C293 1.211 . S
C1694 C292 1.209 . S
C1719 C316 1.211 . S
C1724 C315 1.209 . S
C1749 C338 1.209 . S
C1754 C339 1.211 . S
C1779 C362 1.211 . S
C1784 C361 1.209 . S
