# Generated by pormake.
# Topology can, (4)-cn, num edge types: 1
# Building blocks:
#     Node 0, Type 0, BuildingBlock: GALJAG_clean_sbu_0, # of connection points: 4
#     Node 1, Type 0, BuildingBlock: GALJAG_clean_sbu_0, # of connection points: 4
#     Node 2, Type 0, BuildingBlock: GALJAG_clean_sbu_0, # of connection points: 4
#     Node 3, Type 0, BuildingBlock: GALJAG_clean_sbu_0, # of connection points: 4
#     Node 4, Type 0, BuildingBlock: GALJAG_clean_sbu_0, # of connection points: 4
#     Node 5, Type 0, BuildingBlock: GALJAG_clean_sbu_0, # of connection points: 4
#     Node 6, Type 0, BuildingBlock: GALJAG_clean_sbu_0, # of connection points: 4
#     Node 7, Type 0, BuildingBlock: GALJAG_clean_sbu_0, # of connection points: 4
#     Node 8, Type 0, BuildingBlock: GALJAG_clean_sbu_0, # of connection points: 4
#     Node 9, Type 0, BuildingBlock: GALJAG_clean_sbu_0, # of connection points: 4
#     Node 10, Type 0, BuildingBlock: GALJAG_clean_sbu_0, # of connection points: 4
#     Node 11, Type 0, BuildingBlock: GALJAG_clean_sbu_0, # of connection points: 4
#     Edge 12, Type (0, 0), BuildingBlock: MIFKUJ_clean_linker_0, # of connection points: 2
#     Edge 13, Type (0, 0), BuildingBlock: MIFKUJ_clean_linker_0, # of connection points: 2
#     Edge 14, Type (0, 0), BuildingBlock: MIFKUJ_clean_linker_0, # of connection points: 2
#     Edge 15, Type (0, 0), BuildingBlock: MIFKUJ_clean_linker_0, # of connection points: 2
#     Edge 16, Type (0, 0), BuildingBlock: MIFKUJ_clean_linker_0, # of connection points: 2
#     Edge 17, Type (0, 0), BuildingBlock: MIFKUJ_clean_linker_0, # of connection points: 2
#     Edge 18, Type (0, 0), BuildingBlock: MIFKUJ_clean_linker_0, # of connection points: 2
#     Edge 19, Type (0, 0), BuildingBlock: MIFKUJ_clean_linker_0, # of connection points: 2
#     Edge 20, Type (0, 0), BuildingBlock: MIFKUJ_clean_linker_0, # of connection points: 2
#     Edge 21, Type (0, 0), BuildingBlock: MIFKUJ_clean_linker_0, # of connection points: 2
#     Edge 22, Type (0, 0), BuildingBlock: MIFKUJ_clean_linker_0, # of connection points: 2
#     Edge 23, Type (0, 0), BuildingBlock: MIFKUJ_clean_linker_0, # of connection points: 2
#     Edge 24, Type (0, 0), BuildingBlock: MIFKUJ_clean_linker_0, # of connection points: 2
#     Edge 25, Type (0, 0), BuildingBlock: MIFKUJ_clean_linker_0, # of connection points: 2
#     Edge 26, Type (0, 0), BuildingBlock: MIFKUJ_clean_linker_0, # of connection points: 2
#     Edge 27, Type (0, 0), BuildingBlock: MIFKUJ_clean_linker_0, # of connection points: 2
#     Edge 28, Type (0, 0), BuildingBlock: MIFKUJ_clean_linker_0, # of connection points: 2
#     Edge 29, Type (0, 0), BuildingBlock: MIFKUJ_clean_linker_0, # of connection points: 2
#     Edge 30, Type (0, 0), BuildingBlock: MIFKUJ_clean_linker_0, # of connection points: 2
#     Edge 31, Type (0, 0), BuildingBlock: MIFKUJ_clean_linker_0, # of connection points: 2
#     Edge 32, Type (0, 0), BuildingBlock: MIFKUJ_clean_linker_0, # of connection points: 2
#     Edge 33, Type (0, 0), BuildingBlock: MIFKUJ_clean_linker_0, # of connection points: 2
#     Edge 34, Type (0, 0), BuildingBlock: MIFKUJ_clean_linker_0, # of connection points: 2
#     Edge 35, Type (0, 0), BuildingBlock: MIFKUJ_clean_linker_0, # of connection points: 2
# Relax obj value: 0.108
# Max RMSD: 0.101
# Mean RMSD: 0.101
data_MOF--net-can--node1-GALJAG_clean_sbu_0--edge1-MIFKUJ_clean_linker_0
_symmetry_space_group_name_H-M    P1
_symmetry_Int_Tables_number       1
_symmetry_cell_setting            triclinic
loop_
_symmetry_equiv_pos_as_xyz
'x, y, z'
_cell_length_a     68.268145
_cell_length_b     68.281822
_cell_length_c     37.201823
_cell_angle_alpha  90.034931
_cell_angle_beta   90.000515
_cell_angle_gamma 119.99482
loop_
_atom_site_label
_atom_site_type_symbol
_atom_site_fract_x
_atom_site_fract_y
_atom_site_fract_z
_atom_type_partial_charge
In0 In 0.05061 0.38159 0.2621 0.0
O1 O 0.0886 0.39959 0.26972 0.0
O2 O 0.07059 0.3635 0.27016 0.0
C3 C 0.04801 0.41887 0.24779 0.0
C4 C 0.03589 0.36026 0.19844 0.0
C5 C 0.03429 0.36936 0.32935 0.0
O6 O 0.06656 0.41905 0.24904 0.0
O7 O 0.03076 0.39988 0.2537 0.0
O8 O 0.02607 0.35572 0.30327 0.0
O9 O 0.05004 0.38878 0.32108 0.0
C10 C 0.08941 0.38158 0.27275 0.0
O11 O 0.02252 0.35667 0.22434 0.0
O12 O 0.05637 0.37401 0.20511 0.0
In13 In 0.66687 0.04996 0.74897 0.0
O14 O 0.68954 0.08791 0.74712 0.0
O15 O 0.70528 0.06773 0.75099 0.0
C16 C 0.62652 0.04815 0.75071 0.0
C17 C 0.66724 0.03439 0.68248 0.0
C18 C 0.66827 0.03471 0.81517 0.0
O19 O 0.64506 0.06652 0.75148 0.0
O20 O 0.62832 0.03069 0.74869 0.0
O21 O 0.66635 0.02327 0.78728 0.0
O22 O 0.66943 0.05342 0.80936 0.0
C23 C 0.7077 0.08732 0.74932 0.0
O24 O 0.66284 0.02204 0.71001 0.0
O25 O 0.67149 0.05427 0.68872 0.0
In26 In 0.61509 0.66224 0.24444 0.0
O27 O 0.59982 0.68495 0.24245 0.0
O28 O 0.63574 0.70057 0.24686 0.0
C29 C 0.57671 0.62167 0.24425 0.0
C30 C 0.6319 0.66476 0.17799 0.0
C31 C 0.63146 0.66306 0.31069 0.0
O32 O 0.57673 0.64006 0.24743 0.0
O33 O 0.59604 0.62372 0.24108 0.0
O34 O 0.6399 0.6594 0.28299 0.0
O35 O 0.61505 0.66615 0.30471 0.0
C36 C 0.61864 0.70308 0.24469 0.0
O37 O 0.64057 0.661 0.2053 0.0
O38 O 0.61501 0.66699 0.18444 0.0
In39 In 0.96013 0.62856 0.73586 0.0
O40 O 0.92182 0.6103 0.73214 0.0
O41 O 0.93967 0.64634 0.73097 0.0
C42 C 0.96185 0.59048 0.74634 0.0
C43 C 0.97489 0.64185 0.66814 0.0
C44 C 0.97759 0.64906 0.79924 0.0
O45 O 0.94358 0.59091 0.74736 0.0
O46 O 0.97931 0.60933 0.74024 0.0
O47 O 0.99001 0.65213 0.77219 0.0
O48 O 0.95677 0.6362 0.79386 0.0
C49 C 0.92081 0.62825 0.73026 0.0
O50 O 0.98056 0.65593 0.69359 0.0
O51 O 0.9625 0.62152 0.67724 0.0
In52 In 0.32673 0.95441 0.24879 0.0
O53 O 0.32443 0.97829 0.20764 0.0
O54 O 0.32115 0.94741 0.18902 0.0
C55 C 0.32881 0.97856 0.3081 0.0
C56 C 0.29071 0.91358 0.2618 0.0
C57 C 0.36579 0.95375 0.24618 0.0
O58 O 0.34608 0.98159 0.29127 0.0
O59 O 0.31042 0.96423 0.29399 0.0
O60 O 0.34759 0.93722 0.25755 0.0
O61 O 0.36423 0.97054 0.23596 0.0
C62 C 0.32149 0.9655 0.18119 0.0
O63 O 0.3106 0.91829 0.26964 0.0
O64 O 0.28911 0.92944 0.24731 0.0
In65 In 0.37021 0.32905 0.74124 0.0
O66 O 0.34214 0.32277 0.70081 0.0
O67 O 0.37585 0.33664 0.68188 0.0
C68 C 0.35016 0.32649 0.80497 0.0
C69 C 0.37033 0.28999 0.73498 0.0
C70 C 0.40933 0.36822 0.74984 0.0
O71 O 0.34853 0.33733 0.77874 0.0
O72 O 0.36132 0.31678 0.79861 0.0
O73 O 0.4081 0.34917 0.75099 0.0
O74 O 0.39074 0.36755 0.74447 0.0
C75 C 0.35542 0.32956 0.67421 0.0
O76 O 0.3882 0.30874 0.73959 0.0
O77 O 0.35234 0.29096 0.73367 0.0
In78 In 0.6128 0.94857 0.24764 0.0
O79 O 0.59825 0.91069 0.24533 0.0
O80 O 0.63399 0.93146 0.25146 0.0
C81 C 0.57421 0.95019 0.24537 0.0
C82 C 0.62739 0.96381 0.31469 0.0
C83 C 0.62975 0.96323 0.18144 0.0
O84 O 0.57446 0.93198 0.24946 0.0
O85 O 0.59345 0.96761 0.24229 0.0
O86 O 0.63789 0.97579 0.20881 0.0
O87 O 0.61339 0.94375 0.18779 0.0
C88 C 0.61718 0.91172 0.24858 0.0
O89 O 0.63779 0.97533 0.28733 0.0
O90 O 0.61001 0.94513 0.30789 0.0
In91 In 0.66425 0.61176 0.74621 0.0
O92 O 0.68732 0.59684 0.74397 0.0
O93 O 0.70254 0.63279 0.74399 0.0
C94 C 0.62379 0.57362 0.75105 0.0
C95 C 0.66691 0.6299 0.8116 0.0
C96 C 0.66352 0.62555 0.67864 0.0
O97 O 0.64225 0.57359 0.75195 0.0
O98 O 0.62574 0.59289 0.74767 0.0
O99 O 0.66249 0.63627 0.70565 0.0
O100 O 0.66465 0.60813 0.68601 0.0
C101 C 0.7053 0.61582 0.74309 0.0
O102 O 0.66287 0.63784 0.78365 0.0
O103 O 0.66956 0.61315 0.80624 0.0
In104 In 0.04739 0.66679 0.23827 0.0
O105 O 0.08319 0.68379 0.26133 0.0
O106 O 0.07047 0.7047 0.24258 0.0
C107 C 0.04602 0.62704 0.23076 0.0
C108 C 0.02295 0.66399 0.29724 0.0
C109 C 0.03794 0.67181 0.1696 0.0
O110 O 0.06421 0.64534 0.23653 0.0
O111 O 0.02848 0.62882 0.22882 0.0
O112 O 0.02336 0.66602 0.19429 0.0
O113 O 0.05698 0.6752 0.1798 0.0
C114 C 0.08671 0.70359 0.25655 0.0
O115 O 0.02756 0.6787 0.27326 0.0
O116 O 0.02987 0.65039 0.29073 0.0
In117 In 0.37595 0.04439 0.74995 0.0
O118 O 0.39306 0.08264 0.74692 0.0
O119 O 0.3574 0.06354 0.73865 0.0
C120 C 0.4141 0.04297 0.76203 0.0
C121 C 0.35431 0.02877 0.81317 0.0
C122 C 0.36401 0.02867 0.68239 0.0
O123 O 0.4136 0.0612 0.76166 0.0
O124 O 0.39525 0.02536 0.75672 0.0
O125 O 0.34993 0.02116 0.70795 0.0
O126 O 0.38378 0.0434 0.69134 0.0
C127 C 0.37499 0.0828 0.74032 0.0
O128 O 0.35134 0.01562 0.78718 0.0
O129 O 0.3678 0.04934 0.80689 0.0
In130 In 0.32991 0.36949 0.24811 0.0
O131 O 0.31347 0.38865 0.27154 0.0
O132 O 0.29226 0.35659 0.24723 0.0
C133 C 0.36947 0.40855 0.25007 0.0
C134 C 0.3288 0.34364 0.30418 0.0
C135 C 0.32733 0.35791 0.17814 0.0
O136 O 0.35088 0.4073 0.25803 0.0
O137 O 0.36808 0.39002 0.24124 0.0
O138 O 0.33065 0.34705 0.20256 0.0
O139 O 0.32533 0.37424 0.18917 0.0
C140 C 0.29365 0.37355 0.26319 0.0
O141 O 0.34641 0.36142 0.29481 0.0
O142 O 0.31198 0.33819 0.28422 0.0
In143 In 0.95463 0.33763 0.76537 0.0
O144 O 0.98003 0.33553 0.80357 0.0
O145 O 0.95306 0.33865 0.82594 0.0
C146 C 0.97 0.33542 0.69955 0.0
C147 C 0.91676 0.29721 0.76701 0.0
C148 C 0.9567 0.37812 0.76284 0.0
O149 O 0.98309 0.34333 0.7263 0.0
O150 O 0.94951 0.32868 0.70619 0.0
O151 O 0.93829 0.35974 0.76594 0.0
O152 O 0.97402 0.37606 0.76083 0.0
C153 C 0.9702 0.33671 0.83162 0.0
O154 O 0.9165 0.31551 0.76372 0.0
O155 O 0.9362 0.29935 0.7695 0.0
H156 H 0.06158 0.35845 0.14423 0.0
H157 H 0.05077 0.34901 0.08131 0.0
H158 H 0.98272 0.33314 0.10677 0.0
H159 H 0.99332 0.34188 0.17017 0.0
H160 H 0.98204 0.30524 0.05609 0.0
H161 H 0.02204 0.38562 0.07499 0.0
H162 H 0.05369 0.42225 0.0952 0.0
H163 H 0.09873 0.41451 0.02367 0.0
H164 H 0.06738 0.37768 0.00334 0.0
H165 H 0.94732 0.33206 0.89355 0.0
H166 H 0.95931 0.33085 0.95485 0.0
H167 H 0.02172 0.33769 0.91478 0.0
H168 H 0.00969 0.33878 0.85286 0.0
H169 H 0.02725 0.36776 0.97088 0.0
H170 H 0.98372 0.28833 0.94687 0.0
H171 H 0.95026 0.25316 0.92639 0.0
H172 H 0.90974 0.26068 0.00748 0.0
H173 H 0.94288 0.29609 0.02813 0.0
C174 C 0.0442 0.35255 0.13652 0.0
C175 C 0.02832 0.35112 0.16195 0.0
C176 C 0.03807 0.34725 0.10054 0.0
C177 C 0.01609 0.34091 0.08917 0.0
C178 C -0.00018 0.33811 0.11491 0.0
C179 C 0.00587 0.34312 0.1511 0.0
C180 C 0.01055 0.33886 0.05027 0.0
C181 C 0.99184 0.31894 0.0375 0.0
C182 C 0.02356 0.35663 0.02586 0.0
C183 C 0.04243 0.37879 0.03795 0.0
C184 C 0.03873 0.39166 0.06377 0.0
C185 C 0.0566 0.41247 0.07521 0.0
C186 C 0.07822 0.42067 0.06081 0.0
C187 C 0.08199 0.40811 0.03485 0.0
C188 C 0.06417 0.38728 0.02334 0.0
C189 C 0.96357 0.3332 0.89769 0.0
C190 C 0.97761 0.33556 0.86844 0.0
C191 C 0.97032 0.33237 0.93274 0.0
C192 C 0.99128 0.33394 0.93929 0.0
C193 C 0.00542 0.33633 0.91018 0.0
C194 C -0.00146 0.33694 0.87493 0.0
C195 C -0.00132 0.33422 0.97678 0.0
C196 C 0.01769 0.35389 0.98935 0.0
C197 C 0.98572 0.31639 0.00103 0.0
C198 C 0.96578 0.29496 0.9889 0.0
C199 C 0.96764 0.28258 0.96019 0.0
C200 C 0.94873 0.26258 0.94857 0.0
C201 C 0.92788 0.25472 0.96558 0.0
C202 C 0.9259 0.2668 0.99432 0.0
C203 C 0.94476 0.28682 0.00603 0.0
H204 H 0.91325 0.23924 0.95654 0.0
H205 H 0.09204 0.43678 0.0697 0.0
H206 H 0.61104 0.93848 0.37494 0.0
H207 H 0.62064 0.95052 0.43717 0.0
H208 H 0.66885 0.01796 0.40185 0.0
H209 H 0.65962 0.00576 0.33892 0.0
H210 H 0.6852 0.00532 0.45788 0.0
H211 H 0.61716 0.00597 0.43169 0.0
H212 H 0.5782 0.99081 0.4094 0.0
H213 H 0.55397 0.93769 0.4879 0.0
H214 H 0.59286 0.95233 0.51032 0.0
H215 H 0.68615 0.05997 0.62299 0.0
H216 H 0.68227 0.04712 0.56068 0.0
H217 H 0.64222 0.9779 0.59569 0.0
H218 H 0.64638 0.99067 0.65844 0.0
H219 H 0.62237 0.9918 0.54006 0.0
H220 H 0.69188 0.99312 0.56668 0.0
H221 H 0.73115 0.01011 0.58843 0.0
H222 H 0.75276 0.0623 0.50868 0.0
H223 H 0.71354 0.04581 0.48677 0.0
C224 C 0.62377 0.95587 0.38032 0.0
C225 C 0.63443 0.97126 0.35208 0.0
C226 C 0.62919 0.96274 0.41595 0.0
C227 C 0.64512 0.98524 0.42419 0.0
C228 C 0.65641 0.00053 0.39606 0.0
C229 C 0.6511 0.99358 0.36019 0.0
C230 C 0.64938 0.99271 0.46225 0.0
C231 C 0.67151 0.00265 0.47574 0.0
C232 C 0.63145 0.98891 0.48567 0.0
C233 C 0.60798 0.98014 0.47247 0.0
C234 C 0.60355 0.99096 0.44403 0.0
C235 C 0.58148 0.98247 0.43139 0.0
C236 C 0.56363 0.96327 0.44716 0.0
C237 C 0.56782 0.95255 0.47568 0.0
C238 C 0.58987 0.96095 0.48839 0.0
C239 C 0.67676 0.04199 0.61747 0.0
C240 C 0.66652 0.02629 0.64547 0.0
C241 C 0.67462 0.03469 0.5819 0.0
C242 C 0.66201 0.01159 0.57368 0.0
C243 C 0.65207 0.99581 0.60161 0.0
C244 C 0.65452 0.00309 0.63735 0.0
C245 C 0.6581 0.00417 0.5357 0.0
C246 C 0.63602 0.99437 0.52219 0.0
C247 C 0.67611 0.00842 0.51224 0.0
C248 C 0.69972 0.01835 0.52532 0.0
C249 C 0.70497 0.00834 0.55399 0.0
C250 C 0.72723 0.01785 0.5663 0.0
C251 C 0.74443 0.0373 0.55001 0.0
C252 C 0.73942 0.04725 0.5213 0.0
C253 C 0.71717 0.03781 0.50891 0.0
H254 H 0.76166 0.04464 0.55957 0.0
H255 H 0.54655 0.95672 0.43734 0.0
H256 H 0.62373 0.68383 0.12037 0.0
H257 H 0.63413 0.68311 0.05789 0.0
H258 H 0.66832 0.64699 0.08896 0.0
H259 H 0.65861 0.64845 0.15212 0.0
H260 H 0.69119 0.67638 0.03679 0.0
H261 H 0.61394 0.61909 0.0555 0.0
H262 H 0.57437 0.60375 0.07483 0.0
H263 H 0.56655 0.64718 -9e-05 0.0
H264 H 0.60619 0.66301 0.98048 0.0
H265 H 0.68154 0.61926 0.87237 0.0
H266 H 0.67997 0.63083 0.93384 0.0
H267 H 0.6523 0.67158 0.89547 0.0
H268 H 0.65383 0.66 0.83348 0.0
H269 H 0.62734 0.64248 0.95021 0.0
H270 H 0.70507 0.69698 0.92803 0.0
H271 H 0.74416 0.70985 0.9085 0.0
H272 H 0.75055 0.66867 0.98961 0.0
H273 H 0.71137 0.6553 0.00932 0.0
C274 C 0.63366 0.67592 0.11396 0.0
C275 C 0.64014 0.66593 0.14097 0.0
C276 C 0.63954 0.67547 0.07822 0.0
C277 C 0.65152 0.66451 0.06861 0.0
C278 C 0.65894 0.65543 0.09576 0.0
C279 C 0.65336 0.65621 0.13176 0.0
C280 C 0.65518 0.66155 0.03011 0.0
C281 C 0.67722 0.66879 0.01791 0.0
C282 C 0.63698 0.65197 0.00532 0.0
C283 C 0.6131 0.64239 0.01681 0.0
C284 C 0.60383 0.62548 0.04334 0.0
C285 C 0.58138 0.61668 0.05428 0.0
C286 C 0.56798 0.62453 0.03868 0.0
C287 C 0.57697 0.64114 0.01201 0.0
C288 C 0.59942 0.65002 0.00101 0.0
C289 C 0.67536 0.6309 0.87692 0.0
C290 C 0.66771 0.63868 0.84816 0.0
C291 C 0.67461 0.6376 0.91207 0.0
C292 C 0.66619 0.65219 0.91918 0.0
C293 C 0.65895 0.66037 0.89046 0.0
C294 C 0.65986 0.6538 0.85513 0.0
C295 C 0.66332 0.65733 0.95685 0.0
C296 C 0.64136 0.65035 0.96897 0.0
C297 C 0.68154 0.66682 0.98154 0.0
C298 C 0.7052 0.675 0.96998 0.0
C299 C 0.71474 0.69054 0.94155 0.0
C300 C 0.73693 0.69795 0.93047 0.0
C301 C 0.74981 0.69004 0.94775 0.0
C302 C 0.74055 0.67477 0.97623 0.0
C303 C 0.71836 0.6673 0.9874 0.0
H304 H 0.76698 0.69578 0.93912 0.0
H305 H 0.5506 0.6177 0.04718 0.0
H306 H 0.00326 0.62943 0.34487 0.0
H307 H 0.99161 0.63092 0.40636 0.0
H308 H 0.00889 0.70034 0.39081 0.0
H309 H 0.0204 0.69886 0.32872 0.0
H310 H 0.02896 0.69328 0.45193 0.0
H311 H 0.95553 0.66367 0.40203 0.0
H312 H 0.92262 0.63862 0.3645 0.0
H313 H 0.91367 0.58094 0.42428 0.0
H314 H 0.94673 0.60559 0.46185 0.0
H315 H 0.99228 0.68388 0.6374 0.0
H316 H 0.99805 0.69289 0.57295 0.0
H317 H 0.9765 0.62311 0.54928 0.0
H318 H 0.97026 0.61401 0.61298 0.0
H319 H 0.95567 0.63774 0.50663 0.0
H320 H 0.03297 0.66599 0.54734 0.0
H321 H 0.06675 0.69019 0.58388 0.0
H322 H 0.06887 0.74954 0.54075 0.0
H323 H 0.03491 0.72565 0.50426 0.0
C324 C 0.00413 0.64487 0.35428 0.0
C325 C 0.01269 0.66402 0.33209 0.0
C326 C 0.99743 0.64569 0.38938 0.0
C327 C -0.00067 0.66572 0.40306 0.0
C328 C 0.00724 0.68472 0.38065 0.0
C329 C 0.01366 0.6838 0.34521 0.0
C330 C 0.99471 0.66697 0.44162 0.0
C331 C 0.01277 0.68155 0.46391 0.0
C332 C 0.97369 0.65145 0.45713 0.0
C333 C 0.95371 0.63651 0.43467 0.0
C334 C 0.94665 0.64563 0.40702 0.0
C335 C 0.92795 0.6315 0.38576 0.0
C336 C 0.91608 0.6082 0.39198 0.0
C337 C 0.92287 0.59899 0.41951 0.0
C338 C 0.94158 0.61305 0.44084 0.0
C339 C 0.98903 0.67058 0.61837 0.0
C340 C 0.98079 0.64825 0.63013 0.0
C341 C 0.9923 0.67572 0.58161 0.0
C342 C 0.98763 0.65864 0.55627 0.0
C343 C 0.97998 0.63651 0.56826 0.0
C344 C 0.97655 0.63136 0.60473 0.0
C345 C 0.99022 0.6633 0.51708 0.0
C346 C 0.97172 0.64986 0.49466 0.0
C347 C 0.01088 0.67973 0.50151 0.0
C348 C 0.03124 0.69405 0.52347 0.0
C349 C 0.04053 0.6842 0.5459 0.0
C350 C 0.05973 0.69785 0.56655 0.0
C351 C 0.0699 0.72138 0.56474 0.0
C352 C 0.06093 0.73131 0.54219 0.0
C353 C 0.04172 0.71773 0.52152 0.0
H354 H 0.08477 0.73193 0.58074 0.0
H355 H 0.9016 0.59729 0.37548 0.0
H356 H 0.33362 0.98569 0.84025 0.0
H357 H 0.32227 0.97442 0.9028 0.0
H358 H 0.34117 0.04318 0.92946 0.0
H359 H 0.35296 0.05455 0.86748 0.0
H360 H 0.36048 0.02815 0.97371 0.0
H361 H 0.28531 4e-05 0.92911 0.0
H362 H 0.25265 0.97813 0.88918 0.0
H363 H 0.24959 0.9165 0.92275 0.0
H364 H 0.28245 0.93807 0.96253 0.0
H365 H 0.32632 0.00529 0.15562 0.0
H366 H 0.32627 0.01567 0.09253 0.0
H367 H 0.31252 0.94944 0.05931 0.0
H368 H 0.31236 0.93892 0.12206 0.0
H369 H 0.28863 0.9641 0.01914 0.0
H370 H 0.36548 0.99226 0.05861 0.0
H371 H 0.39853 0.01376 0.09805 0.0
H372 H 0.39849 0.07513 0.07301 0.0
H373 H 0.36524 0.05392 0.03377 0.0
C374 C 0.33494 0.99826 0.85937 0.0
C375 C 0.34433 0.021 0.84914 0.0
C376 C 0.32839 0.99182 0.89506 0.0
C377 C 0.33085 0.00797 0.92083 0.0
C378 C 0.33922 0.03046 0.91011 0.0
C379 C 0.34593 0.03692 0.87466 0.0
C380 C 0.32677 0.00203 0.95952 0.0
C381 C 0.34458 0.01443 0.98367 0.0
C382 C 0.30627 0.98374 0.97244 0.0
C383 C 0.28648 0.97071 0.94858 0.0
C384 C 0.2778 0.98183 0.92777 0.0
C385 C 0.25922 0.96947 0.9052 0.0
C386 C 0.24909 0.94594 0.90336 0.0
C387 C 0.25747 0.93473 0.92417 0.0
C388 C 0.27606 0.94701 0.94677 0.0
C389 C 0.32302 0.99288 0.13486 0.0
C390 C 0.31957 0.97138 0.14369 0.0
C391 C 0.32302 -0.00117 0.09888 0.0
C392 C 0.31961 0.98337 0.07127 0.0
C393 C 0.31516 0.96159 0.08019 0.0
C394 C 0.31521 0.95567 0.11605 0.0
C395 C 0.32229 0.99032 0.03306 0.0
C396 C 0.30435 0.97803 0.00907 0.0
C397 C 0.34269 0.00869 0.02013 0.0
C398 C 0.36273 0.02147 0.04361 0.0
C399 C 0.37241 0.01031 0.06175 0.0
C400 C 0.3912 0.02245 0.08402 0.0
C401 C 0.40056 0.04578 0.08812 0.0
C402 C 0.39119 0.05704 0.06987 0.0
C403 C 0.37239 0.04498 0.0476 0.0
H404 H 0.41511 0.05515 0.10537 0.0
H405 H 0.23471 0.9364 0.88587 0.0
H406 H 0.29048 0.31353 0.33981 0.0
H407 H 0.28787 0.30191 0.40277 0.0
H408 H 0.36068 0.33767 0.41007 0.0
H409 H 0.36341 0.3494 0.34739 0.0
H410 H 0.33994 0.29686 0.44879 0.0
H411 H 0.33329 0.36446 0.43191 0.0
H412 H 0.31492 0.38446 0.40592 0.0
H413 H 0.25196 0.33666 0.45504 0.0
H414 H 0.26995 0.31622 0.48097 0.0
H415 H 0.38188 0.34377 0.61482 0.0
H416 H 0.36999 0.33763 0.55221 0.0
H417 H 0.30007 0.30461 0.58509 0.0
H418 H 0.31196 0.31082 0.6485 0.0
H419 H 0.30969 0.33434 0.52748 0.0
H420 H 0.31938 0.27223 0.55622 0.0
H421 H 0.3379 0.25224 0.58155 0.0
H422 H 0.39418 0.28827 0.51014 0.0
H423 H 0.37621 0.30879 0.48476 0.0
C424 C 0.30592 0.31836 0.35457 0.0
C425 C 0.32716 0.33253 0.33889 0.0
C426 C 0.30439 0.31179 0.39052 0.0
C427 C 0.32408 0.3192 0.41109 0.0
C428 C 0.34529 0.33181 0.39461 0.0
C429 C 0.34683 0.33854 0.35884 0.0
C430 C 0.32295 0.3162 0.45055 0.0
C431 C 0.33327 0.30495 0.46608 0.0
C432 C 0.31356 0.32617 0.47297 0.0
C433 C 0.30288 0.33869 0.45803 0.0
C434 C 0.3155 0.35816 0.43699 0.0
C435 C 0.30517 0.36957 0.4223 0.0
C436 C 0.28228 0.3618 0.42875 0.0
C437 C 0.26969 0.34264 0.45003 0.0
C438 C 0.27994 0.33114 0.46474 0.0
C439 C 0.36396 0.33533 0.60886 0.0
C440 C 0.34783 0.32765 0.63657 0.0
C441 C 0.35719 0.33171 0.57303 0.0
C442 C 0.33415 0.32024 0.56407 0.0
C443 C 0.31793 0.31332 0.59155 0.0
C444 C 0.32473 0.31691 0.62765 0.0
C445 C 0.32749 0.31572 0.52576 0.0
C446 C 0.31575 0.3256 0.5104 0.0
C447 C 0.33549 0.30439 0.50348 0.0
C448 C 0.34645 0.29212 0.51867 0.0
C449 C 0.33579 0.27603 0.54609 0.0
C450 C 0.34618 0.26458 0.56044 0.0
C451 C 0.3672 0.26899 0.54745 0.0
C452 C 0.37789 0.28487 0.52013 0.0
C453 C 0.36759 0.29639 0.50572 0.0
H454 H 0.37518 0.26005 0.55848 0.0
H455 H 0.27432 0.37067 0.41734 0.0
H456 H 0.02103 0.66691 0.82375 0.0
H457 H 0.03382 0.67589 0.88635 0.0
H458 H 0.96667 0.65964 0.91873 0.0
H459 H 0.95383 0.65064 0.85652 0.0
H460 H -0.00014 0.6967 0.95528 0.0
H461 H 0.98043 0.62051 0.92629 0.0
H462 H 0.98207 0.59067 0.89131 0.0
H463 H 0.05297 0.62079 0.91443 0.0
H464 H 0.0518 0.65102 0.94915 0.0
H465 H -0.00138 0.66592 0.13981 0.0
H466 H 0.99064 0.66695 0.07574 0.0
H467 H 0.05848 0.68256 0.04944 0.0
H468 H 0.06654 0.68152 0.1131 0.0
H469 H 0.02669 0.64782 0.00915 0.0
H470 H 0.0444 0.7228 0.04319 0.0
H471 H 0.0409 0.7512 0.07928 0.0
H472 H 0.97125 0.7218 0.04809 0.0
H473 H 0.97424 0.69301 0.01219 0.0
C474 C 0.00915 0.66571 0.84414 0.0
C475 C 0.98642 0.6579 0.83541 0.0
C476 C 0.01643 0.67075 0.87984 0.0
C477 C 0.00109 0.66817 0.90714 0.0
C478 C 0.97875 0.66173 0.89806 0.0
C479 C 0.97144 0.65651 0.86254 0.0
C480 C 0.00767 0.67026 0.94546 0.0
C481 C 0.00564 0.68597 0.96716 0.0
C482 C 0.01532 0.65632 0.96079 0.0
C483 C 0.01609 0.63818 0.93993 0.0
C484 C 0.99642 0.62089 0.92363 0.0
C485 C 0.99725 0.60389 0.90391 0.0
C486 C 0.01762 0.60388 0.90055 0.0
C487 C 0.0372 0.62085 0.91699 0.0
C488 C 0.03647 0.63792 0.9367 0.0
C489 C 0.01186 0.66975 0.12035 0.0
C490 C 0.03317 0.6736 0.13142 0.0
C491 C 0.00732 0.67041 0.08382 0.0
C492 C 0.02403 0.67493 0.0579 0.0
C493 C 0.04537 0.67904 0.06901 0.0
C494 C 0.04994 0.67848 0.10541 0.0
C495 C 0.01903 0.67437 0.01906 0.0
C496 C 0.02121 0.6588 0.99725 0.0
C497 C 0.01132 0.68828 0.0038 0.0
C498 C 0.00949 0.70562 0.02526 0.0
C499 C 0.02828 0.72228 0.04426 0.0
C500 C 0.0264 0.73847 0.06464 0.0
C501 C 0.00585 0.73827 0.06605 0.0
C502 C 0.98715 0.72191 0.047 0.0
C503 C 0.98894 0.70567 0.0266 0.0
H504 H 0.00443 0.75082 0.08184 0.0
H505 H 0.01823 0.59068 0.8853 0.0
H506 H 0.29411 0.96834 0.35475 0.0
H507 H 0.29736 0.97778 0.41872 0.0
H508 H 0.36975 0.01904 0.40742 0.0
H509 H 0.36665 0.00938 0.34365 0.0
H510 H 0.35858 0.98808 0.45912 0.0
H511 H 0.33633 0.04224 0.42545 0.0
H512 H 0.31189 0.05495 0.39734 0.0
H513 H 0.25661 0.00981 0.4649 0.0
H514 H 0.28065 0.9966 0.49309 0.0
H515 H 0.39258 0.04208 0.62548 0.0
H516 H 0.38322 0.03306 0.56229 0.0
H517 H 0.31271 0.99134 0.58961 0.0
H518 H 0.32201 0.0006 0.65352 0.0
H519 H 0.3194 0.01931 0.53129 0.0
H520 H 0.34197 0.96633 0.56665 0.0
H521 H 0.36636 0.95364 0.59502 0.0
H522 H 0.4207 0.99614 0.52388 0.0
H523 H 0.39675 0.00935 0.4954 0.0
C524 C 0.31065 0.97989 0.36572 0.0
C525 C 0.33015 0.988 0.3443 0.0
C526 C 0.31248 0.98528 0.40229 0.0
C527 C 0.33382 -0.00097 0.41787 0.0
C528 C 0.35314 0.00828 0.39597 0.0
C529 C 0.35134 0.00284 0.3595 0.0
C530 C 0.33634 0.00194 0.4574 0.0
C531 C 0.35024 0.9952 0.4748 0.0
C532 C 0.32469 0.01032 0.47803 0.0
C533 C 0.31023 0.01825 0.46111 0.0
C534 C 0.31891 0.03487 0.43409 0.0
C535 C 0.30514 0.0422 0.41819 0.0
C536 C 0.28269 0.03315 0.42925 0.0
C537 C 0.27399 0.01678 0.45631 0.0
C538 C 0.28769 0.00939 0.47229 0.0
C539 C 0.37507 0.03087 0.61819 0.0
C540 C 0.35802 0.02193 0.64448 0.0
C541 C 0.36976 0.02571 0.58202 0.0
C542 C 0.34731 0.01135 0.57131 0.0
C543 C 0.33015 0.00241 0.59741 0.0
C544 C 0.33549 0.00759 0.63383 0.0
C545 C 0.3421 0.00599 0.53269 0.0
C546 C 0.32762 0.0121 0.51553 0.0
C547 C 0.35316 0.99696 0.51214 0.0
C548 C 0.3676 0.98895 0.52906 0.0
C549 C 0.35917 0.9731 0.55722 0.0
C550 C 0.37291 0.96579 0.5733 0.0
C551 C 0.39508 0.97411 0.56131 0.0
C552 C 0.40353 0.98972 0.53315 0.0
C553 C 0.38987 0.9971 0.517 0.0
H554 H 0.40569 0.96844 0.57379 0.0
H555 H 0.27206 0.03884 0.41691 0.0
H556 H 0.3465 0.29947 0.86104 0.0
H557 H 0.33758 0.30289 0.9234 0.0
H558 H 0.32628 0.35757 0.894 0.0
H559 H 0.33526 0.35423 0.83118 0.0
H560 H 0.35604 0.36836 0.95018 0.0
H561 H 0.28243 0.30811 0.91955 0.0
H562 H 0.25443 0.27107 0.89456 0.0
H563 H 0.27563 0.23765 0.96974 0.0
H564 H 0.304 0.27451 0.99487 0.0
H565 H 0.32041 0.37961 0.12276 0.0
H566 H 0.32033 0.37224 0.05861 0.0
H567 H 0.33212 0.31707 0.08167 0.0
H568 H 0.33202 0.32425 0.14634 0.0
H569 H 0.30025 0.30664 0.02809 0.0
H570 H 0.37513 0.36643 0.05619 0.0
H571 H 0.40358 0.40325 0.08132 0.0
H572 H 0.38062 0.43728 0.01056 0.0
H573 H 0.35178 0.40062 0.98538 0.0
C574 C 0.34173 0.31198 0.86771 0.0
C575 C 0.34163 0.32664 0.84133 0.0
C576 C 0.33655 0.31384 0.90334 0.0
C577 C 0.33119 0.33042 0.91328 0.0
C578 C 0.33034 0.34463 0.88679 0.0
C579 C 0.33536 0.34265 0.85097 0.0
C580 C 0.32838 0.33402 0.95175 0.0
C581 C 0.34353 0.35501 0.96709 0.0
C582 C 0.31254 0.31634 0.97392 0.0
C583 C 0.29548 0.29411 0.9589 0.0
C584 C 0.28126 0.29288 0.93057 0.0
C585 C 0.26529 0.27191 0.91641 0.0
C586 C 0.26329 0.25202 0.9305 0.0
C587 C 0.27721 0.25307 0.95883 0.0
C588 C 0.29322 0.274 0.97307 0.0
C589 C 0.32289 0.36583 0.11425 0.0
C590 C 0.32638 0.35258 0.13953 0.0
C591 C 0.32288 0.36168 0.07757 0.0
C592 C 0.3265 0.3443 0.06543 0.0
C593 C 0.32935 0.3306 0.09058 0.0
C594 C 0.32937 0.33475 0.12742 0.0
C595 C 0.32791 0.34096 0.02641 0.0
C596 C 0.3126 0.32002 0.01106 0.0
C597 C 0.34369 0.35865 0.00419 0.0
C598 C 0.36112 0.38075 0.01915 0.0
C599 C 0.37601 0.38175 0.04619 0.0
C600 C 0.39223 0.40259 0.06042 0.0
C601 C 0.39386 0.42259 0.04762 0.0
C602 C 0.37931 0.42178 0.02049 0.0
C603 C 0.36304 0.40097 0.00621 0.0
H604 H 0.40642 0.43871 0.05865 0.0
H605 H 0.25091 0.2358 0.91951 0.0
H606 H 0.94517 0.30848 0.64424 0.0
H607 H 0.95662 0.31101 0.58124 0.0
H608 H 0.0234 0.36508 0.60828 0.0
H609 H 0.01221 0.36224 0.67169 0.0
H610 H 0.99765 0.37356 0.55143 0.0
H611 H 0.02158 0.32062 0.58636 0.0
H612 H 0.01624 0.28522 0.61296 0.0
H613 H 0.96327 0.24656 0.53719 0.0
H614 H 0.96807 0.28176 0.51045 0.0
H615 H 0.0546 0.39445 0.38852 0.0
H616 H 0.04298 0.3855 0.45092 0.0
H617 H 0.98546 0.3221 0.4184 0.0
H618 H 0.99751 0.33077 0.3553 0.0
H619 H 0.00424 0.31652 0.47769 0.0
H620 H 0.97889 0.36678 0.44192 0.0
H621 H 0.98111 0.40078 0.41489 0.0
H622 H 0.03199 0.44271 0.49151 0.0
H623 H 0.03033 0.40897 0.51869 0.0
C624 C 0.96242 0.32064 0.63684 0.0
C625 C 0.97783 0.33523 0.66271 0.0
C626 C 0.96892 0.32201 0.60093 0.0
C627 C 0.99081 0.33821 0.59027 0.0
C628 C 0.00644 0.35242 0.61617 0.0
C629 C 7e-05 0.35074 0.65228 0.0
C630 C 0.9967 0.34159 0.5517 0.0
C631 C -0.00053 0.36129 0.53535 0.0
C632 C 0.99791 0.325 0.53063 0.0
C633 C 0.99501 0.30383 0.54667 0.0
C634 C 0.00863 0.30457 0.57561 0.0
C635 C 0.00574 0.28454 0.59065 0.0
C636 C 0.98938 0.26365 0.57684 0.0
C637 C 0.97591 0.26275 0.54789 0.0
C638 C 0.97872 0.28274 0.53276 0.0
C639 C 0.03944 0.37859 0.39453 0.0
C640 C 0.02682 0.36339 0.36699 0.0
C641 C 0.03279 0.37353 0.43027 0.0
C642 C 0.0131 0.35334 0.43931 0.0
C643 C 0.00064 0.33784 0.41198 0.0
C644 C 0.00747 0.34282 0.376 0.0
C645 C 0.00572 0.3488 0.47741 0.0
C646 C 0.00246 0.32883 0.49367 0.0
C647 C 0.00356 0.36495 0.49837 0.0
C648 C 0.00462 0.38534 0.48215 0.0
C649 C 0.99069 0.38326 0.45284 0.0
C650 C 0.99182 0.40249 0.43751 0.0
C651 C 0.00672 0.4239 0.45142 0.0
C652 C 0.02048 0.42612 0.48074 0.0
C653 C 0.01943 0.40694 0.49614 0.0
H654 H 0.00757 0.43876 0.43952 0.0
H655 H 0.98717 0.24816 0.58852 0.0
H656 H 0.65568 0.99179 0.83769 0.0
H657 H 0.65274 0.97881 0.90008 0.0
H658 H 0.67828 0.04707 0.93784 0.0
H659 H 0.68108 0.06006 0.87592 0.0
H660 H 0.69655 0.02398 0.97484 0.0
H661 H 0.62406 0.01368 0.93852 0.0
H662 H 0.59043 -0.00062 0.89952 0.0
H663 H 0.57495 0.93114 0.91914 0.0
H664 H 0.60867 0.94507 0.95792 0.0
H665 H 0.6569 0.00636 0.15637 0.0
H666 H 0.66708 0.01794 0.09359 0.0
H667 H 0.6315 0.94793 0.06071 0.0
H668 H 0.62074 0.9364 0.12293 0.0
H669 H 0.61946 0.97082 0.02003 0.0
H670 H 0.69069 0.98103 0.06045 0.0
H671 H 0.72428 0.99559 0.09955 0.0
H672 H 0.74245 0.06375 0.07258 0.0
H673 H 0.70879 0.0496 0.03368 0.0
C674 C 0.66091 0.00402 0.85932 0.0
C675 C 0.66842 0.02688 0.85206 0.0
C676 C 0.6592 0.99661 0.89485 0.0
C677 C 0.66518 0.012 0.92348 0.0
C678 C 0.67363 0.03496 0.91612 0.0
C679 C 0.67509 0.04231 0.88075 0.0
C680 C 0.66126 0.00411 0.96122 0.0
C681 C 0.67971 0.01244 0.98489 0.0
C682 C 0.63932 0.98883 0.97402 0.0
C683 C 0.61902 0.98043 0.95077 0.0
C684 C 0.61359 0.99563 0.93426 0.0
C685 C 0.59449 0.9876 0.91225 0.0
C686 C 0.5806 0.96437 0.90676 0.0
C687 C 0.58575 0.94913 0.92336 0.0
C688 C 0.60484 0.95708 0.94537 0.0
C689 C 0.6515 0.99349 0.13573 0.0
C690 C 0.63794 0.97052 0.14444 0.0
C691 C 0.6574 9e-05 0.09989 0.0
C692 C 0.65016 0.98378 0.07238 0.0
C693 C 0.63719 0.96082 0.08137 0.0
C694 C 0.63109 0.95426 0.11698 0.0
C695 C 0.6548 0.99054 0.034 0.0
C696 C 0.6364 0.98211 0.01011 0.0
C697 C 0.67681 0.0057 0.02109 0.0
C698 C 0.6971 0.01425 0.0444 0.0
C699 C 0.70175 -0.00087 0.06307 0.0
C700 C 0.72082 0.00731 0.08516 0.0
C701 C 0.73546 0.03058 0.08862 0.0
C702 C 0.73108 0.04572 0.06991 0.0
C703 C 0.71203 0.03763 0.0478 0.0
H704 H 0.75021 0.03688 0.10573 0.0
H705 H 0.56582 0.95818 0.88973 0.0
H706 H 0.6571 0.6451 0.33444 0.0
H707 H 0.66642 0.64181 0.39713 0.0
H708 H 0.63291 0.67776 0.43245 0.0
H709 H 0.6233 0.68082 0.3702 0.0
H710 H 0.67477 0.6907 0.46875 0.0
H711 H 0.60408 0.62428 0.43693 0.0
H712 H 0.57951 0.59107 0.39955 0.0
H713 H 0.62279 0.5634 0.41969 0.0
H714 H 0.64781 0.59664 0.45679 0.0
H715 H 0.65317 0.65704 0.65328 0.0
H716 H 0.65118 0.66639 0.5902 0.0
H717 H 0.67232 0.61927 0.55661 0.0
H718 H 0.67361 0.60942 0.61914 0.0
H719 H 0.63807 0.6129 0.5184 0.0
H720 H 0.70796 0.6781 0.55303 0.0
H721 H 0.73304 0.71146 0.58975 0.0
H722 H 0.69267 0.74167 0.56421 0.0
H723 H 0.66716 0.70834 0.52772 0.0
C724 C 0.65202 0.65255 0.35557 0.0
C725 C 0.63933 0.66303 0.34759 0.0
C726 C 0.65731 0.65065 0.39127 0.0
C727 C 0.65023 0.65946 0.41931 0.0
C728 C 0.63855 0.67091 0.41117 0.0
C729 C 0.63298 0.67251 0.37564 0.0
C730 C 0.65339 0.65528 0.4573 0.0
C731 C 0.66668 0.67374 0.4798 0.0
C732 C 0.64304 0.63311 0.47137 0.0
C733 C 0.62795 0.61306 0.44928 0.0
C734 C 0.60846 0.61121 0.43312 0.0
C735 C 0.59443 0.59236 0.41204 0.0
C736 C 0.59962 0.57517 0.40715 0.0
C737 C 0.61882 0.57676 0.42344 0.0
C738 C 0.63292 0.59558 0.44451 0.0
C739 C 0.65751 0.64883 0.63237 0.0
C740 C 0.66343 0.63244 0.64107 0.0
C741 C 0.65649 0.65425 0.59637 0.0
C742 C 0.66177 0.64365 0.5686 0.0
C743 C 0.66809 0.62761 0.57747 0.0
C744 C 0.66884 0.62202 0.61327 0.0
C745 C 0.65973 0.64833 0.53021 0.0
C746 C 0.64644 0.62992 0.50753 0.0
C747 C 0.67021 0.67055 0.51603 0.0
C748 C 0.68553 0.69062 0.53793 0.0
C749 C 0.70433 0.69178 0.55548 0.0
C750 C 0.71864 0.71069 0.57621 0.0
C751 C 0.71441 0.72864 0.57939 0.0
C752 C 0.6959 0.72774 0.56177 0.0
C753 C 0.68153 0.70885 0.54103 0.0
H754 H 0.72551 0.74327 0.59545 0.0
H755 H 0.58874 0.56059 0.39083 0.0
H756 H 0.00869 0.58519 0.22381 0.0
H757 H 0.00745 0.54876 0.22128 0.0
H758 H 0.08025 0.58302 0.22801 0.0
H759 H 0.08164 0.6195 0.23042 0.0
H760 H 0.0629 0.5484 0.17762 0.0
H761 H 0.04984 0.56013 0.3014 0.0
H762 H 0.03033 0.5678 0.3505 0.0
H763 H 0.96791 0.50832 0.32236 0.0
H764 H 0.98701 0.50048 0.27274 0.0
H765 H 0.08295 0.46186 0.23849 0.0
H766 H 0.0807 0.49616 0.22999 0.0
H767 H 0.00782 0.4566 0.23273 0.0
H768 H 0.00997 0.42224 0.24195 0.0
H769 H 0.02274 0.49267 0.2747 0.0
H770 H 0.03603 0.4789 0.15401 0.0
H771 H 0.05531 0.47081 0.10506 0.0
H772 H 0.11645 0.53332 0.12616 0.0
H773 H 0.09765 0.54162 0.17566 0.0
C774 C 0.02443 0.58495 0.22453 0.0
C775 C 0.04525 0.60514 0.22754 0.0
C776 C 0.02369 0.56416 0.22313 0.0
C777 C 0.04375 0.56324 0.22475 0.0
C778 C 0.06459 0.58341 0.2267 0.0
C779 C 0.06534 0.6042 0.22824 0.0
C780 C 0.04303 0.54123 0.22585 0.0
C781 C 0.05429 0.53625 0.19896 0.0
C782 C 0.03127 0.52521 0.25321 0.0
C783 C 0.0198 0.52986 0.28311 0.0
C784 C 0.03192 0.54879 0.30549 0.0
C785 C 0.02094 0.55315 0.33345 0.0
C786 C 0.99788 0.53859 0.33948 0.0
C787 C 0.98576 0.5196 0.31762 0.0
C788 C 0.99665 0.51519 0.28959 0.0
C789 C 0.06644 0.46046 0.23704 0.0
C790 C 0.04663 0.43941 0.24091 0.0
C791 C 0.06518 0.48005 0.23199 0.0
C792 C 0.04408 0.47889 0.23032 0.0
C793 C 0.02426 0.45785 0.23387 0.0
C794 C 0.02552 0.43825 0.23907 0.0
C795 C 0.04278 0.49981 0.2266 0.0
C796 C 0.03116 0.50464 0.25307 0.0
C797 C 0.05413 0.51562 0.19875 0.0
C798 C 0.06547 0.51079 0.16877 0.0
C799 C 0.05364 0.49085 0.1484 0.0
C800 C 0.06447 0.48624 0.12052 0.0
C801 C 0.0871 0.50152 0.11255 0.0
C802 C 0.09892 0.52148 0.13239 0.0
C803 C 0.08818 0.52616 0.16034 0.0
H804 H 0.09546 0.49792 0.09096 0.0
H805 H 0.98941 0.54199 0.36114 0.0
H806 H 0.45611 0.07857 0.77562 0.0
H807 H 0.49182 0.07842 0.7771 0.0
H808 H 0.45599 0.00642 0.75833 0.0
H809 H 0.42008 0.00637 0.7574 0.0
H810 H 0.49015 0.01888 0.80728 0.0
H811 H 0.4809 0.0419 0.68942 0.0
H812 H 0.47386 0.06483 0.64571 0.0
H813 H 0.53266 0.12489 0.6835 0.0
H814 H 0.53986 0.10234 0.7278 0.0
H815 H 0.58455 0.01076 0.74602 0.0
H816 H 0.54802 0.00916 0.75042 0.0
H817 H 0.58223 0.08149 0.76544 0.0
H818 H 0.61879 0.08327 0.7603 0.0
H819 H 0.54843 0.06808 0.71863 0.0
H820 H 0.55808 0.04481 0.83612 0.0
H821 H 0.56538 0.02161 0.87888 0.0
H822 H 0.50615 0.96184 0.84148 0.0
H823 H 0.49868 0.98465 0.79808 0.0
C824 C 0.4558 0.06266 0.77218 0.0
C825 C 0.43536 0.04251 0.76608 0.0
C826 C 0.47621 0.06262 0.77294 0.0
C827 C 0.47655 0.04247 0.76724 0.0
C828 C 0.45607 0.02215 0.76268 0.0
C829 C 0.43561 0.02217 0.76205 0.0
C830 C 0.49837 0.04285 0.76425 0.0
C831 C 0.50282 0.02943 0.78766 0.0
C832 C 0.51498 0.05688 0.73897 0.0
C833 C 0.51079 0.07046 0.71215 0.0
C834 C 0.49223 0.06002 0.68858 0.0
C835 C 0.48823 0.07294 0.66368 0.0
C836 C 0.50277 0.09631 0.66189 0.0
C837 C 0.52139 0.10679 0.68494 0.0
C838 C 0.52545 0.09394 0.70994 0.0
C839 C 0.58426 0.02632 0.75023 0.0
C840 C 0.60448 0.04714 0.75288 0.0
C841 C 0.5634 0.02536 0.75292 0.0
C842 C 0.56243 0.04517 0.75875 0.0
C843 C 0.58261 0.066 0.76103 0.0
C844 C 0.60347 0.06699 0.75813 0.0
C845 C 0.54037 0.0443 0.76189 0.0
C846 C 0.53582 0.05757 0.73837 0.0
C847 C 0.52372 0.03012 0.78704 0.0
C848 C 0.52794 0.01642 0.81361 0.0
C849 C 0.54668 0.0267 0.83686 0.0
C850 C 0.55085 0.01362 0.86122 0.0
C851 C 0.53628 0.99026 0.86283 0.0
C852 C 0.51745 0.97994 0.84017 0.0
C853 C 0.51323 0.99293 0.8157 0.0
H854 H 0.53955 0.98016 0.88167 0.0
H855 H 0.49964 0.10629 0.6426 0.0
H856 H 0.53365 0.61316 0.25495 0.0
H857 H 0.49896 0.57632 0.25648 0.0
H858 H 0.53767 0.54328 0.23596 0.0
H859 H 0.57247 0.58012 0.23424 0.0
H860 H 0.49906 0.52602 0.19463 0.0
H861 H 0.5196 0.54299 0.31866 0.0
H862 H 0.53051 0.56638 0.37353 0.0
H863 H 0.46784 0.5668 0.37072 0.0
H864 H 0.4567 0.54368 0.31549 0.0
H865 H 0.41169 0.41507 0.23744 0.0
H866 H 0.44747 0.45094 0.23741 0.0
H867 H 0.41188 0.48648 0.26343 0.0
H868 H 0.3761 0.45062 0.26422 0.0
H869 H 0.44973 0.50202 0.30255 0.0
H870 H 0.42952 0.48573 0.17774 0.0
H871 H 0.41852 0.46218 0.12302 0.0
H872 H 0.48052 0.46049 0.12716 0.0
H873 H 0.49174 0.48376 0.18225 0.0
C874 C 0.53477 0.59805 0.25072 0.0
C875 C 0.55575 0.59948 0.2446 0.0
C876 C 0.51496 0.57704 0.25171 0.0
C877 C 0.51581 0.5571 0.24667 0.0
C878 C 0.53669 0.55849 0.23996 0.0
C879 C 0.55653 0.57951 0.2391 0.0
C880 C 0.49488 0.5348 0.24858 0.0
C881 C 0.48841 0.5206 0.21838 0.0
C882 C 0.48083 0.528 0.27936 0.0
C883 C 0.48741 0.54177 0.31274 0.0
C884 C 0.50822 0.54821 0.32958 0.0
C885 C 0.51443 0.5614 0.36078 0.0
C886 C 0.49989 0.56812 0.37555 0.0
C887 C 0.47909 0.56161 0.35922 0.0
C888 C 0.47281 0.54844 0.32798 0.0
C889 C 0.41151 0.43053 0.24322 0.0
C890 C 0.39112 0.43009 0.25066 0.0
C891 C 0.43194 0.451 0.24307 0.0
C892 C 0.43229 0.4714 0.24995 0.0
C893 C 0.41198 0.47093 0.258 0.0
C894 C 0.39156 0.45046 0.25833 0.0
C895 C 0.45379 0.49326 0.24849 0.0
C896 C 0.46038 0.50739 0.2788 0.0
C897 C 0.46792 0.5 0.21778 0.0
C898 C 0.46137 0.48631 0.18432 0.0
C899 C 0.44074 0.48021 0.16712 0.0
C900 C 0.43448 0.46693 0.13601 0.0
C901 C 0.44879 0.45979 0.12167 0.0
C902 C 0.46944 0.466 0.13833 0.0
C903 C 0.47577 0.47925 0.16947 0.0
H904 H 0.4439 0.44948 0.09762 0.0
H905 H 0.50473 0.57833 0.3997 0.0
H906 H 0.92697 0.54871 0.7635 0.0
H907 H 0.9279 0.51349 0.76865 0.0
H908 H -0.00078 0.54933 0.7442 0.0
H909 H -0.00159 0.58467 0.7389 0.0
H910 H 0.97597 0.51041 0.70491 0.0
H911 H 0.9829 0.53271 0.82779 0.0
H912 H 0.97292 0.54553 0.88322 0.0
H913 H 0.90809 0.48479 0.88501 0.0
H914 H 0.91755 0.47176 0.82923 0.0
H915 H 0.99396 0.41939 0.75111 0.0
H916 H 0.99601 0.4562 0.74999 0.0
H917 H 0.92446 0.42384 0.77172 0.0
H918 H 0.92227 0.38694 0.77294 0.0
H919 H 0.94969 0.46195 0.81371 0.0
H920 H 0.94282 0.44073 0.68886 0.0
H921 H 0.95333 0.42844 0.63337 0.0
H922 H 0.01914 0.48789 0.63591 0.0
H923 H 0.00913 0.50038 0.69175 0.0
C924 C 0.94287 0.54911 0.75942 0.0
C925 C 0.96262 0.56942 0.75082 0.0
C926 C 0.9434 0.52901 0.76248 0.0
C927 C 0.96367 0.52886 0.75704 0.0
C928 C 0.98342 0.54912 0.74851 0.0
C929 C 0.98294 0.56927 0.74562 0.0
C930 C 0.96401 0.5074 0.75933 0.0
C931 C 0.97059 0.49997 0.72889 0.0
C932 C 0.95658 0.49366 0.79042 0.0
C933 C 0.95086 0.50135 0.82412 0.0
C934 C 0.96644 0.52216 0.83983 0.0
C935 C 0.96089 0.52946 0.87134 0.0
C936 C 0.93986 0.516 0.88758 0.0
C937 C 0.92436 0.4952 0.87238 0.0
C938 C 0.92982 0.48784 0.84083 0.0
C939 C 0.97867 0.42012 0.75563 0.0
C940 C 0.95794 0.40031 0.762 0.0
C941 C 0.97986 0.44114 0.75491 0.0
C942 C 0.96036 0.44269 0.76055 0.0
C943 C 0.93969 0.42297 0.76733 0.0
C944 C 0.93846 0.40192 0.76786 0.0
C945 C 0.96148 0.46489 0.75919 0.0
C946 C 0.95518 0.47245 0.78981 0.0
C947 C 0.96928 0.47882 0.72832 0.0
C948 C 0.97531 0.47136 0.6947 0.0
C949 C 0.9596 0.45108 0.67776 0.0
C950 C 0.96546 0.4441 0.64621 0.0
C951 C 0.98691 0.45734 0.63118 0.0
C952 C 0.00254 0.47763 0.64762 0.0
C953 C 0.99678 0.48468 0.67921 0.0
H954 H 0.99141 0.45191 0.60675 0.0
H955 H 0.93559 0.52168 0.91198 0.0
H956 H 0.40721 0.98792 0.22553 0.0
H957 H 0.44299 0.98786 0.22526 0.0
H958 H 0.40878 0.91924 0.26464 0.0
H959 H 0.37299 0.91933 0.26557 0.0
H960 H 0.44766 0.94477 0.3002 0.0
H961 H 0.42414 0.93079 0.17664 0.0
H962 H 0.41145 0.93829 0.11885 0.0
H963 H 0.47274 0.0024 0.11124 0.0
H964 H 0.48567 0.99541 0.16927 0.0
H965 H 0.53163 0.91594 0.25998 0.0
H966 H 0.49663 0.91754 0.26007 0.0
H967 H 0.53396 0.98783 0.22938 0.0
H968 H 0.56911 0.98638 0.22935 0.0
H969 H 0.49424 0.9625 0.1897 0.0
H970 H 0.51809 0.97593 0.31277 0.0
H971 H 0.53085 0.96807 0.37021 0.0
H972 H 0.46888 0.90462 0.37844 0.0
H973 H 0.4559 0.91194 0.32072 0.0
C974 C 0.40731 0.97281 0.23406 0.0
C975 C 0.38732 0.9536 0.24546 0.0
C976 C 0.42774 0.97278 0.23379 0.0
C977 C 0.42849 0.95346 0.24458 0.0
C978 C 0.40856 0.93431 0.2562 0.0
C979 C 0.38813 0.93436 0.25659 0.0
C980 C 0.45009 0.95326 0.24397 0.0
C981 C 0.4577 0.94836 0.27593 0.0
C982 C 0.46344 0.9585 0.21249 0.0
C983 C 0.45577 0.96267 0.17748 0.0
C984 C 0.43483 0.94656 0.16278 0.0
C985 C 0.42761 0.95071 0.12996 0.0
C986 C 0.44125 0.97083 0.11143 0.0
C987 C 0.46218 0.98683 0.12564 0.0
C988 C 0.46947 0.98278 0.15848 0.0
C989 C 0.53238 0.93172 0.2532 0.0
C990 C 0.55307 0.95106 0.24476 0.0
C991 C 0.5124 0.93263 0.25337 0.0
C992 C 0.5128 0.95285 0.24501 0.0
C993 C 0.53337 0.97209 0.23596 0.0
C994 C 0.5534 0.97125 0.23606 0.0
C995 C 0.49168 0.95387 0.24583 0.0
C996 C 0.48419 0.95895 0.21395 0.0
C997 C 0.47843 0.94876 0.27735 0.0
C998 C 0.48611 0.94439 0.31222 0.0
C999 C 0.50726 0.96021 0.32667 0.0
C1000 C 0.51452 0.95587 0.35931 0.0
C1001 C 0.50071 0.93583 0.37791 0.0
C1002 C 0.47958 0.92012 0.36397 0.0
C1003 C 0.47225 0.92437 0.3313 0.0
H1004 H 0.50635 0.9325 0.40317 0.0
H1005 H 0.43562 0.97402 0.08603 0.0
H1006 H 0.58199 0.56952 0.74747 0.0
H1007 H 0.54529 0.53472 0.75003 0.0
H1008 H 0.57886 0.49581 0.76287 0.0
H1009 H 0.61562 0.53053 0.75974 0.0
H1010 H 0.54611 0.4773 0.71352 0.0
H1011 H 0.55302 0.50542 0.83381 0.0
H1012 H 0.55921 0.53366 0.8804 0.0
H1013 H 0.50138 0.53672 0.84254 0.0
H1014 H 0.49503 0.50872 0.79537 0.0
H1015 H 0.451 0.37334 0.76164 0.0
H1016 H 0.48718 0.40865 0.76452 0.0
H1017 H 0.45292 0.4466 0.7483 0.0
H1018 H 0.41654 0.41128 0.74586 0.0
H1019 H 0.48576 0.4657 0.79975 0.0
H1020 H 0.47921 0.43795 0.67914 0.0
H1021 H 0.473 0.40968 0.63259 0.0
H1022 H 0.53036 0.40605 0.67126 0.0
H1023 H 0.53673 0.43408 0.71838 0.0
C1024 C 0.58153 0.55355 0.75096 0.0
C1025 C 0.60164 0.55271 0.75342 0.0
C1026 C 0.56057 0.5337 0.75259 0.0
C1027 C 0.55936 0.51271 0.75702 0.0
C1028 C 0.57943 0.51185 0.75949 0.0
C1029 C 0.60039 0.53168 0.75777 0.0
C1030 C 0.53718 0.49156 0.75796 0.0
C1031 C 0.53304 0.47463 0.73273 0.0
C1032 C 0.51994 0.48835 0.78242 0.0
C1033 C 0.52368 0.50514 0.81083 0.0
C1034 C 0.54173 0.51225 0.83523 0.0
C1035 C 0.54525 0.52819 0.86178 0.0
C1036 C 0.53073 0.53702 0.86437 0.0
C1037 C 0.51263 0.52989 0.84047 0.0
C1038 C 0.50905 0.51397 0.81385 0.0
C1039 C 0.45115 0.38921 0.75887 0.0
C1040 C 0.43099 0.38958 0.75328 0.0
C1041 C 0.47183 0.40935 0.76042 0.0
C1042 C 0.47273 0.4302 0.75612 0.0
C1043 C 0.45256 0.43066 0.75158 0.0
C1044 C 0.43184 0.4105 0.75009 0.0
C1045 C 0.4948 0.45146 0.75547 0.0
C1046 C 0.49888 0.46839 0.78063 0.0
C1047 C 0.51202 0.45471 0.73096 0.0
C1048 C 0.50831 0.43795 0.7025 0.0
C1049 C 0.4904 0.431 0.67789 0.0
C1050 C 0.48687 0.41504 0.65137 0.0
C1051 C 0.50124 0.40604 0.64903 0.0
C1052 C 0.51922 0.41302 0.67314 0.0
C1053 C 0.52281 0.42896 0.69973 0.0
H1054 H 0.49848 0.39368 0.62848 0.0
H1055 H 0.53348 0.54936 0.88494 0.0
H1056 H 0.13051 0.41762 0.28964 0.0
H1057 H 0.16637 0.4181 0.29632 0.0
H1058 H 0.1326 0.34653 0.27372 0.0
H1059 H 0.09657 0.34583 0.2682 0.0
H1060 H 0.16247 0.35659 0.32576 0.0
H1061 H 0.16258 0.38686 0.20852 0.0
H1062 H 0.1597 0.41291 0.16578 0.0
H1063 H 0.21596 0.46945 0.2169 0.0
H1064 H 0.21898 0.44374 0.26026 0.0
H1065 H 0.24962 0.34121 0.25459 0.0
H1066 H 0.21622 0.34477 0.26488 0.0
H1067 H 0.25878 0.41386 0.29917 0.0
H1068 H 0.29244 0.41041 0.28895 0.0
H1069 H 0.22666 0.40835 0.24781 0.0
H1070 H 0.2289 0.37613 0.36065 0.0
H1071 H 0.23177 0.34887 0.40059 0.0
H1072 H 0.17105 0.29465 0.35489 0.0
H1073 H 0.16794 0.32154 0.31434 0.0
C1074 C 0.13074 0.40198 0.2863 0.0
C1075 C 0.11084 0.38171 0.27812 0.0
C1076 C 0.15123 0.40228 0.29004 0.0
C1077 C 0.15221 0.38242 0.28496 0.0
C1078 C 0.13222 0.36205 0.27774 0.0
C1079 C 0.11168 0.36168 0.27444 0.0
C1080 C 0.17414 0.38293 0.28583 0.0
C1081 C 0.17646 0.36781 0.30857 0.0
C1082 C 0.19258 0.39795 0.264 0.0
C1083 C 0.19084 0.41341 0.23787 0.0
C1084 C 0.17423 0.40486 0.2108 0.0
C1085 C 0.17259 0.41956 0.18644 0.0
C1086 C 0.18759 0.44283 0.18869 0.0
C1087 C 0.20432 0.45143 0.21524 0.0
C1088 C 0.20601 0.43681 0.23969 0.0
C1089 C 0.25188 0.35712 0.26455 0.0
C1090 C 0.27359 0.37556 0.27092 0.0
C1091 C 0.23279 0.35908 0.2706 0.0
C1092 C 0.23509 0.37951 0.28308 0.0
C1093 C 0.25673 0.39794 0.28967 0.0
C1094 C 0.27588 0.39593 0.28388 0.0
C1095 C 0.21481 0.38178 0.28728 0.0
C1096 C 0.2128 0.3974 0.26543 0.0
C1097 C 0.19661 0.36706 0.30963 0.0
C1098 C 0.19827 0.35085 0.33428 0.0
C1099 C 0.21624 0.35837 0.35894 0.0
C1100 C 0.2179 0.34299 0.38172 0.0
C1101 C 0.20164 0.32004 0.38022 0.0
C1102 C 0.18364 0.31243 0.35601 0.0
C1103 C 0.18189 0.32775 0.33317 0.0
H1104 H 0.20298 0.30816 0.39786 0.0
H1105 H 0.1863 0.45418 0.16981 0.0
H1106 H 0.91308 0.25567 0.77282 0.0
H1107 H 0.87838 0.21878 0.77161 0.0
H1108 H 0.83886 0.25176 0.75973 0.0
H1109 H 0.87341 0.28865 0.76136 0.0
H1110 H 0.82066 0.21808 0.80889 0.0
H1111 H 0.84988 0.2283 0.68804 0.0
H1112 H 0.87876 0.23551 0.6421 0.0
H1113 H 0.88086 0.17654 0.67634 0.0
H1114 H 0.85221 0.16916 0.72285 0.0
H1115 H 0.71655 0.13077 0.7456 0.0
H1116 H 0.75326 0.16525 0.75039 0.0
H1117 H 0.78588 0.12537 0.76177 0.0
H1118 H 0.7491 0.09065 0.75653 0.0
H1119 H 0.80883 0.16091 0.71612 0.0
H1120 H 0.7779 0.14933 0.83456 0.0
H1121 H 0.7489 0.14201 0.88031 0.0
H1122 H 0.75004 0.20338 0.85097 0.0
H1123 H 0.77883 0.21091 0.80465 0.0
C1124 C 0.89698 0.25503 0.77004 0.0
C1125 C 0.89591 0.27499 0.76707 0.0
C1126 C 0.87721 0.23398 0.76923 0.0
C1127 C 0.85611 0.23258 0.76522 0.0
C1128 C 0.855 0.2525 0.76282 0.0
C1129 C 0.87474 0.27354 0.76366 0.0
C1130 C 0.83511 0.21038 0.76334 0.0
C1131 C 0.81797 0.20566 0.78841 0.0
C1132 C 0.83194 0.19397 0.73724 0.0
C1133 C 0.84909 0.19833 0.70918 0.0
C1134 C 0.85664 0.21698 0.68597 0.0
C1135 C 0.87294 0.22107 0.65979 0.0
C1136 C 0.88169 0.20653 0.65637 0.0
C1137 C 0.8741 0.18782 0.67906 0.0
C1138 C 0.85782 0.18366 0.70532 0.0
C1139 C 0.73154 0.12932 0.74902 0.0
C1140 C 0.72999 0.10805 0.75088 0.0
C1141 C 0.75248 0.14903 0.7519 0.0
C1142 C 0.7722 0.14782 0.75698 0.0
C1143 C 0.7708 0.12661 0.75801 0.0
C1144 C 0.74982 0.10684 0.75508 0.0
C1145 C 0.79424 0.16879 0.7613 0.0
C1146 C 0.81158 0.17326 0.73677 0.0
C1147 C 0.79762 0.18499 0.78793 0.0
C1148 C 0.7804 0.18059 0.81593 0.0
C1149 C 0.77185 0.16119 0.83768 0.0
C1150 C 0.75547 0.15701 0.86374 0.0
C1151 C 0.7476 0.1722 0.86849 0.0
C1152 C 0.75614 0.19163 0.84724 0.0
C1153 C 0.77251 0.19587 0.8211 0.0
H1154 H 0.73491 0.16894 0.88868 0.0
H1155 H 0.89431 0.20973 0.63609 0.0
H1156 H 0.65674 0.74427 0.25302 0.0
H1157 H 0.65943 0.78142 0.25279 0.0
H1158 H 0.58737 0.74948 0.23602 0.0
H1159 H 0.58456 0.71238 0.23603 0.0
H1160 H 0.61126 0.78565 0.19134 0.0
H1161 H 0.60914 0.76826 0.31766 0.0
H1162 H 0.62222 0.75805 0.37258 0.0
H1163 H 0.68725 0.818 0.36243 0.0
H1164 H 0.67465 0.8284 0.30712 0.0
H1165 H 0.58366 0.86816 0.23951 0.0
H1166 H 0.58728 0.83438 0.23771 0.0
H1167 H 0.65921 0.87534 0.25505 0.0
H1168 H 0.65569 0.90935 0.25713 0.0
H1169 H 0.6397 0.83692 0.29691 0.0
H1170 H 0.641 0.85597 0.17336 0.0
H1171 H 0.62798 0.86641 0.11864 0.0
H1172 H 0.56503 0.80369 0.12306 0.0
H1173 H 0.57753 0.79302 0.17817 0.0
C1174 C 0.64149 0.7452 0.24929 0.0
C1175 C 0.62043 0.72548 0.24461 0.0
C1176 C 0.64305 0.76639 0.24926 0.0
C1177 C 0.62357 0.76812 0.2446 0.0
C1178 C 0.60258 0.74846 0.23961 0.0
C1179 C 0.601 0.7273 0.23975 0.0
C1180 C 0.62491 0.79039 0.24488 0.0
C1181 C 0.6173 0.7968 0.21451 0.0
C1182 C 0.63347 0.80516 0.27473 0.0
C1183 C 0.64104 0.79896 0.30802 0.0
C1184 C 0.6263 0.77916 0.32696 0.0
C1185 C 0.63361 0.77336 0.35819 0.0
C1186 C 0.65558 0.78733 0.37092 0.0
C1187 C 0.67025 0.80717 0.3525 0.0
C1188 C 0.66303 0.81303 0.32122 0.0
C1189 C 0.60024 0.87 0.24298 0.0
C1190 C 0.61941 0.89137 0.2483 0.0
C1191 C 0.6023 0.8507 0.24181 0.0
C1192 C 0.62355 0.85245 0.24578 0.0
C1193 C 0.64268 0.87371 0.2518 0.0
C1194 C 0.64065 0.89307 0.25289 0.0
C1195 C 0.62559 0.83194 0.24365 0.0
C1196 C 0.63388 0.82589 0.27359 0.0
C1197 C 0.61771 0.81749 0.21336 0.0
C1198 C 0.61015 0.82378 0.18008 0.0
C1199 C 0.62431 0.84448 0.16283 0.0
C1200 C 0.61703 0.85042 0.13172 0.0
C1201 C 0.59567 0.83574 0.11742 0.0
C1202 C 0.58156 0.81505 0.13418 0.0
C1203 C 0.58875 0.80903 0.16534 0.0
H1204 H 0.59007 0.84038 0.09333 0.0
H1205 H 0.6612 0.78281 0.39511 0.0
H1206 H 0.87849 0.59158 0.72506 0.0
H1207 H 0.84252 0.59127 0.72456 0.0
H1208 H 0.87828 0.66411 0.73139 0.0
H1209 H 0.91437 0.66455 0.73207 0.0
H1210 H 0.84331 0.64433 0.77943 0.0
H1211 H 0.85491 0.63957 0.65383 0.0
H1212 H 0.86316 0.62455 0.59918 0.0
H1213 H 0.80404 0.55985 0.61732 0.0
H1214 H 0.79562 0.5744 0.67242 0.0
H1215 H 0.74629 0.65463 0.74392 0.0
H1216 H 0.78367 0.65808 0.73978 0.0
H1217 H 0.75252 0.58549 0.73295 0.0
H1218 H 0.7151 0.5819 0.73684 0.0
H1219 H 0.7861 0.60723 0.68303 0.0
H1220 H 0.77561 0.61165 0.81011 0.0
H1221 H 0.76739 0.62672 0.86475 0.0
H1222 H 0.82459 0.69228 0.84355 0.0
H1223 H 0.83296 0.67767 0.78846 0.0
C1224 C 0.87869 0.60753 0.72626 0.0
C1225 C 0.89918 0.62809 0.72856 0.0
C1226 C 0.85816 0.60734 0.72585 0.0
C1227 C 0.85781 0.62769 0.72766 0.0
C1228 C 0.87825 0.64825 0.72992 0.0
C1229 C 0.89881 0.64846 0.73019 0.0
C1230 C 0.83602 0.62738 0.72819 0.0
C1231 C 0.83093 0.63656 0.75809 0.0
C1232 C 0.81978 0.61683 0.70063 0.0
C1233 C 0.82475 0.60803 0.66745 0.0
C1234 C 0.84377 0.62209 0.64634 0.0
C1235 C 0.84846 0.61367 0.61525 0.0
C1236 C 0.83416 0.59125 0.60483 0.0
C1237 C 0.81511 0.57721 0.62544 0.0
C1238 C 0.81036 0.58554 0.6566 0.0
C1239 C 0.74743 0.63941 0.74156 0.0
C1240 C 0.72784 0.61799 0.74081 0.0
C1241 C 0.76876 0.64141 0.73928 0.0
C1242 C 0.7708 0.62202 0.73632 0.0
C1243 C 0.75125 0.60063 0.73521 0.0
C1244 C 0.72993 0.59862 0.73758 0.0
C1245 C 0.79332 0.62398 0.73442 0.0
C1246 C 0.79854 0.61511 0.70426 0.0
C1247 C 0.80969 0.63483 0.76173 0.0
C1248 C 0.80476 0.64362 0.79495 0.0
C1249 C 0.78632 0.62933 0.81693 0.0
C1250 C 0.78166 0.63778 0.84801 0.0
C1251 C 0.79542 0.66046 0.85755 0.0
C1252 C 0.81392 0.67473 0.83609 0.0
C1253 C 0.81864 0.66636 0.80494 0.0
H1254 H 0.79177 0.66698 0.88162 0.0
H1255 H 0.83782 0.58476 0.58073 0.0
H1256 H 0.28977 0.87642 0.29116 0.0
H1257 H 0.25646 0.8391 0.30116 0.0
H1258 H 0.21365 0.86319 0.25808 0.0
H1259 H 0.2467 0.90045 0.2484 0.0
H1260 H 0.19567 0.8378 0.31841 0.0
H1261 H 0.23004 0.833 0.20654 0.0
H1262 H 0.26128 0.83553 0.16973 0.0
H1263 H 0.26428 0.78579 0.23644 0.0
H1264 H 0.23322 0.78319 0.27392 0.0
H1265 H 0.09747 0.74731 0.24768 0.0
H1266 H 0.13355 0.78121 0.26 0.0
H1267 H 0.16075 0.74008 0.29868 0.0
H1268 H 0.12456 0.70585 0.2858 0.0
H1269 H 0.18907 0.77158 0.25245 0.0
H1270 H 0.1497 0.77145 0.35759 0.0
H1271 H 0.118 0.76861 0.39341 0.0
H1272 H 0.12401 0.82715 0.34019 0.0
H1273 H 0.15554 0.83017 0.30365 0.0
C1274 C 0.27322 0.87374 0.28399 0.0
C1275 C 0.27079 0.89126 0.26882 0.0
C1276 C 0.25426 0.85245 0.28969 0.0
C1277 C 0.23265 0.8484 0.28015 0.0
C1278 C 0.23019 0.86602 0.26573 0.0
C1279 C 0.24909 0.88725 0.26003 0.0
C1280 C 0.21253 0.82564 0.28372 0.0
C1281 C 0.19415 0.8233 0.30398 0.0
C1282 C 0.21094 0.8066 0.26587 0.0
C1283 C 0.22953 0.80812 0.24328 0.0
C1284 C 0.23749 0.82275 0.21352 0.0
C1285 C 0.25513 0.82416 0.19251 0.0
C1286 C 0.26481 0.81088 0.20081 0.0
C1287 C 0.2568 0.7961 0.23008 0.0
C1288 C 0.23918 0.79464 0.25121 0.0
C1289 C 0.11105 0.74546 0.25908 0.0
C1290 C 0.10824 0.72397 0.26576 0.0
C1291 C 0.13162 0.76485 0.26635 0.0
C1292 C 0.14971 0.76316 0.28076 0.0
C1293 C 0.14693 0.74172 0.28775 0.0
C1294 C 0.12629 0.72223 0.28041 0.0
C1295 C 0.17186 0.78388 0.28617 0.0
C1296 C 0.19067 0.78588 0.26764 0.0
C1297 C 0.17384 0.8026 0.30565 0.0
C1298 C 0.15495 0.80096 0.32774 0.0
C1299 C 0.14418 0.78364 0.35335 0.0
C1300 C 0.12624 0.78201 0.37381 0.0
C1301 C 0.11898 0.79767 0.36905 0.0
C1302 C 0.12966 0.81503 0.34386 0.0
C1303 C 0.1476 0.81673 0.32331 0.0
H1304 H 0.10508 0.79637 0.3849 0.0
H1305 H 0.27846 0.812 0.18451 0.0
H1306 H 0.40667 0.28377 0.73944 0.0
H1307 H 0.40671 0.24805 0.73618 0.0
H1308 H 0.33441 0.21216 0.72017 0.0
H1309 H 0.33421 0.24785 0.72397 0.0
H1310 H 0.34678 0.19208 0.77016 0.0
H1311 H 0.37008 0.22059 0.65082 0.0
H1312 H 0.39329 0.2488 0.60506 0.0
H1313 H 0.45262 0.24914 0.64414 0.0
H1314 H 0.42984 0.22119 0.6906 0.0
H1315 H 0.33817 0.08718 0.72647 0.0
H1316 H 0.33692 0.12226 0.72154 0.0
H1317 H 0.40896 0.161 0.73954 0.0
H1318 H 0.41038 0.12599 0.74405 0.0
H1319 H 0.39561 0.17902 0.68619 0.0
H1320 H 0.3731 0.15247 0.80716 0.0
H1321 H 0.3504 0.12467 0.85381 0.0
H1322 H 0.29004 0.1211 0.81211 0.0
H1323 H 0.31236 0.14866 0.76485 0.0
C1324 C 0.3908 0.26828 0.73507 0.0
C1325 C 0.37043 0.26855 0.73196 0.0
C1326 C 0.39086 0.24791 0.73303 0.0
C1327 C 0.37059 0.22752 0.72754 0.0
C1328 C 0.35023 0.22775 0.72435 0.0
C1329 C 0.35015 0.24812 0.72646 0.0
C1330 C 0.37055 0.20585 0.72641 0.0
C1331 C 0.35716 0.18906 0.75138 0.0
C1332 C 0.38454 0.20221 0.70249 0.0
C1333 C 0.39827 0.21892 0.67441 0.0
C1334 C 0.38811 0.2268 0.64985 0.0
C1335 C 0.40118 0.24273 0.62375 0.0
C1336 C 0.42442 0.25079 0.62172 0.0
C1337 C 0.43462 0.2429 0.64576 0.0
C1338 C 0.42163 0.22699 0.67198 0.0
C1339 C 0.35375 0.10318 0.7292 0.0
C1340 C 0.37435 0.1039 0.73588 0.0
C1341 C 0.353 0.12317 0.72647 0.0
C1342 C 0.37281 0.14417 0.73061 0.0
C1343 C 0.39349 0.14494 0.73631 0.0
C1344 C 0.39426 0.12495 0.73901 0.0
C1345 C 0.37188 0.16533 0.72997 0.0
C1346 C 0.38512 0.18202 0.70476 0.0
C1347 C 0.35781 0.16893 0.75374 0.0
C1348 C 0.34437 0.15244 0.78224 0.0
C1349 C 0.35496 0.14562 0.80776 0.0
C1350 C 0.34217 0.12993 0.83434 0.0
C1351 C 0.31879 0.12108 0.83586 0.0
C1352 C 0.30816 0.12795 0.81086 0.0
C1353 C 0.32087 0.14361 0.78419 0.0
H1354 H 0.30891 0.10893 0.85647 0.0
H1355 H 0.4345 0.26312 0.60147 0.0
loop_
_geom_bond_atom_site_label_1
_geom_bond_atom_site_label_2
_geom_bond_distance
_geom_bond_site_symmetry_2
_ccdc_geom_bond_type
In0 O1 2.294 . S
In0 O2 2.326 . S
In0 O6 2.266 . S
In0 O7 2.326 . S
In0 O8 2.266 . S
In0 O9 2.326 . S
In0 O11 2.294 . S
In0 O12 2.326 . S
O1 In0 2.294 . S
O1 C10 1.240 . S
O2 In0 2.326 . S
O2 C10 1.252 . S
C3 O6 1.252 . S
C3 O7 1.260 . S
C4 O11 1.240 . S
C4 O12 1.252 . S
C5 O8 1.252 . S
C5 O9 1.260 . S
O6 In0 2.266 . S
O6 C3 1.252 . S
O7 In0 2.326 . S
O7 C3 1.260 . S
O8 In0 2.266 . S
O8 C5 1.252 . S
O9 In0 2.326 . S
O9 C5 1.260 . S
C10 O1 1.240 . S
C10 O2 1.252 . S
O11 In0 2.294 . S
O11 C4 1.240 . S
O12 In0 2.326 . S
O12 C4 1.252 . S
In13 O14 2.294 . S
In13 O15 2.326 . S
In13 O19 2.266 . S
In13 O20 2.326 . S
In13 O21 2.266 . S
In13 O22 2.326 . S
In13 O24 2.294 . S
In13 O25 2.326 . S
O14 In13 2.294 . S
O14 C23 1.240 . S
O15 In13 2.326 . S
O15 C23 1.252 . S
C16 O19 1.252 . S
C16 O20 1.260 . S
C17 O24 1.240 . S
C17 O25 1.252 . S
C18 O21 1.252 . S
C18 O22 1.260 . S
O19 In13 2.266 . S
O19 C16 1.252 . S
O20 In13 2.326 . S
O20 C16 1.260 . S
O21 In13 2.266 . S
O21 C18 1.252 . S
O22 In13 2.326 . S
O22 C18 1.260 . S
C23 O14 1.240 . S
C23 O15 1.252 . S
O24 In13 2.294 . S
O24 C17 1.240 . S
O25 In13 2.326 . S
O25 C17 1.252 . S
In26 O27 2.294 . S
In26 O28 2.326 . S
In26 O32 2.266 . S
In26 O33 2.326 . S
In26 O34 2.266 . S
In26 O35 2.326 . S
In26 O37 2.294 . S
In26 O38 2.326 . S
O27 In26 2.294 . S
O27 C36 1.240 . S
O28 In26 2.326 . S
O28 C36 1.252 . S
C29 O32 1.252 . S
C29 O33 1.260 . S
C30 O37 1.240 . S
C30 O38 1.252 . S
C31 O34 1.252 . S
C31 O35 1.260 . S
O32 In26 2.266 . S
O32 C29 1.252 . S
O33 In26 2.326 . S
O33 C29 1.260 . S
O34 In26 2.266 . S
O34 C31 1.252 . S
O35 In26 2.326 . S
O35 C31 1.260 . S
C36 O27 1.240 . S
C36 O28 1.252 . S
O37 In26 2.294 . S
O37 C30 1.240 . S
O38 In26 2.326 . S
O38 C30 1.252 . S
In39 O40 2.294 . S
In39 O41 2.326 . S
In39 O45 2.266 . S
In39 O46 2.326 . S
In39 O47 2.266 . S
In39 O48 2.326 . S
In39 O50 2.294 . S
In39 O51 2.326 . S
O40 In39 2.294 . S
O40 C49 1.240 . S
O41 In39 2.326 . S
O41 C49 1.252 . S
C42 O45 1.252 . S
C42 O46 1.260 . S
C43 O50 1.240 . S
C43 O51 1.252 . S
C44 O47 1.252 . S
C44 O48 1.260 . S
O45 In39 2.266 . S
O45 C42 1.252 . S
O46 In39 2.326 . S
O46 C42 1.260 . S
O47 In39 2.266 . S
O47 C44 1.252 . S
O48 In39 2.326 . S
O48 C44 1.260 . S
C49 O40 1.240 . S
C49 O41 1.252 . S
O50 In39 2.294 . S
O50 C43 1.240 . S
O51 In39 2.326 . S
O51 C43 1.252 . S
In52 O53 2.294 . S
In52 O54 2.326 . S
In52 O58 2.266 . S
In52 O59 2.326 . S
In52 O60 2.266 . S
In52 O61 2.326 . S
In52 O63 2.294 . S
In52 O64 2.326 . S
O53 In52 2.294 . S
O53 C62 1.240 . S
O54 In52 2.326 . S
O54 C62 1.252 . S
C55 O58 1.252 . S
C55 O59 1.260 . S
C56 O63 1.240 . S
C56 O64 1.252 . S
C57 O60 1.252 . S
C57 O61 1.260 . S
O58 In52 2.266 . S
O58 C55 1.252 . S
O59 In52 2.326 . S
O59 C55 1.260 . S
O60 In52 2.266 . S
O60 C57 1.252 . S
O61 In52 2.326 . S
O61 C57 1.260 . S
C62 O53 1.240 . S
C62 O54 1.252 . S
O63 In52 2.294 . S
O63 C56 1.240 . S
O64 In52 2.326 . S
O64 C56 1.252 . S
In65 O66 2.294 . S
In65 O67 2.326 . S
In65 O71 2.266 . S
In65 O72 2.326 . S
In65 O73 2.266 . S
In65 O74 2.326 . S
In65 O76 2.294 . S
In65 O77 2.326 . S
O66 In65 2.294 . S
O66 C75 1.240 . S
O67 In65 2.326 . S
O67 C75 1.252 . S
C68 O71 1.252 . S
C68 O72 1.260 . S
C69 O76 1.240 . S
C69 O77 1.252 . S
C70 O73 1.252 . S
C70 O74 1.260 . S
O71 In65 2.266 . S
O71 C68 1.252 . S
O72 In65 2.326 . S
O72 C68 1.260 . S
O73 In65 2.266 . S
O73 C70 1.252 . S
O74 In65 2.326 . S
O74 C70 1.260 . S
C75 O66 1.240 . S
C75 O67 1.252 . S
O76 In65 2.294 . S
O76 C69 1.240 . S
O77 In65 2.326 . S
O77 C69 1.252 . S
In78 O79 2.294 . S
In78 O80 2.326 . S
In78 O84 2.266 . S
In78 O85 2.326 . S
In78 O86 2.266 . S
In78 O87 2.326 . S
In78 O89 2.294 . S
In78 O90 2.326 . S
O79 In78 2.294 . S
O79 C88 1.240 . S
O80 In78 2.326 . S
O80 C88 1.252 . S
C81 O84 1.252 . S
C81 O85 1.260 . S
C82 O89 1.240 . S
C82 O90 1.252 . S
C83 O86 1.252 . S
C83 O87 1.260 . S
O84 In78 2.266 . S
O84 C81 1.252 . S
O85 In78 2.326 . S
O85 C81 1.260 . S
O86 In78 2.266 . S
O86 C83 1.252 . S
O87 In78 2.326 . S
O87 C83 1.260 . S
C88 O79 1.240 . S
C88 O80 1.252 . S
O89 In78 2.294 . S
O89 C82 1.240 . S
O90 In78 2.326 . S
O90 C82 1.252 . S
In91 O92 2.294 . S
In91 O93 2.326 . S
In91 O97 2.266 . S
In91 O98 2.326 . S
In91 O99 2.266 . S
In91 O100 2.326 . S
In91 O102 2.294 . S
In91 O103 2.326 . S
O92 In91 2.294 . S
O92 C101 1.240 . S
O93 In91 2.326 . S
O93 C101 1.252 . S
C94 O97 1.252 . S
C94 O98 1.260 . S
C95 O102 1.240 . S
C95 O103 1.252 . S
C96 O99 1.252 . S
C96 O100 1.260 . S
O97 In91 2.266 . S
O97 C94 1.252 . S
O98 In91 2.326 . S
O98 C94 1.260 . S
O99 In91 2.266 . S
O99 C96 1.252 . S
O100 In91 2.326 . S
O100 C96 1.260 . S
C101 O92 1.240 . S
C101 O93 1.252 . S
O102 In91 2.294 . S
O102 C95 1.240 . S
O103 In91 2.326 . S
O103 C95 1.252 . S
In104 O105 2.294 . S
In104 O106 2.326 . S
In104 O110 2.266 . S
In104 O111 2.326 . S
In104 O112 2.266 . S
In104 O113 2.326 . S
In104 O115 2.294 . S
In104 O116 2.326 . S
O105 In104 2.294 . S
O105 C114 1.240 . S
O106 In104 2.326 . S
O106 C114 1.252 . S
C107 O110 1.252 . S
C107 O111 1.260 . S
C108 O115 1.240 . S
C108 O116 1.252 . S
C109 O112 1.252 . S
C109 O113 1.260 . S
O110 In104 2.266 . S
O110 C107 1.252 . S
O111 In104 2.326 . S
O111 C107 1.260 . S
O112 In104 2.266 . S
O112 C109 1.252 . S
O113 In104 2.326 . S
O113 C109 1.260 . S
C114 O105 1.240 . S
C114 O106 1.252 . S
O115 In104 2.294 . S
O115 C108 1.240 . S
O116 In104 2.326 . S
O116 C108 1.252 . S
In117 O118 2.294 . S
In117 O119 2.326 . S
In117 O123 2.266 . S
In117 O124 2.326 . S
In117 O125 2.266 . S
In117 O126 2.326 . S
In117 O128 2.294 . S
In117 O129 2.326 . S
O118 In117 2.294 . S
O118 C127 1.240 . S
O119 In117 2.326 . S
O119 C127 1.252 . S
C120 O123 1.252 . S
C120 O124 1.260 . S
C121 O128 1.240 . S
C121 O129 1.252 . S
C122 O125 1.252 . S
C122 O126 1.260 . S
O123 In117 2.266 . S
O123 C120 1.252 . S
O124 In117 2.326 . S
O124 C120 1.260 . S
O125 In117 2.266 . S
O125 C122 1.252 . S
O126 In117 2.326 . S
O126 C122 1.260 . S
C127 O118 1.240 . S
C127 O119 1.252 . S
O128 In117 2.294 . S
O128 C121 1.240 . S
O129 In117 2.326 . S
O129 C121 1.252 . S
In130 O131 2.294 . S
In130 O132 2.326 . S
In130 O136 2.266 . S
In130 O137 2.326 . S
In130 O138 2.266 . S
In130 O139 2.326 . S
In130 O141 2.294 . S
In130 O142 2.326 . S
O131 In130 2.294 . S
O131 C140 1.240 . S
O132 In130 2.326 . S
O132 C140 1.252 . S
C133 O136 1.252 . S
C133 O137 1.260 . S
C134 O141 1.240 . S
C134 O142 1.252 . S
C135 O138 1.252 . S
C135 O139 1.260 . S
O136 In130 2.266 . S
O136 C133 1.252 . S
O137 In130 2.326 . S
O137 C133 1.260 . S
O138 In130 2.266 . S
O138 C135 1.252 . S
O139 In130 2.326 . S
O139 C135 1.260 . S
C140 O131 1.240 . S
C140 O132 1.252 . S
O141 In130 2.294 . S
O141 C134 1.240 . S
O142 In130 2.326 . S
O142 C134 1.252 . S
In143 O144 2.294 . S
In143 O145 2.326 . S
In143 O149 2.266 . S
In143 O150 2.326 . S
In143 O151 2.266 . S
In143 O152 2.326 . S
In143 O154 2.294 . S
In143 O155 2.326 . S
O144 In143 2.294 . S
O144 C153 1.240 . S
O145 In143 2.326 . S
O145 C153 1.252 . S
C146 O149 1.252 . S
C146 O150 1.260 . S
C147 O154 1.240 . S
C147 O155 1.252 . S
C148 O151 1.252 . S
C148 O152 1.260 . S
O149 In143 2.266 . S
O149 C146 1.252 . S
O150 In143 2.326 . S
O150 C146 1.260 . S
O151 In143 2.266 . S
O151 C148 1.252 . S
O152 In143 2.326 . S
O152 C148 1.260 . S
C153 O144 1.240 . S
C153 O145 1.252 . S
O154 In143 2.294 . S
O154 C147 1.240 . S
O155 In143 2.326 . S
O155 C147 1.252 . S
H156 C174 0.951 . S
H157 C176 0.951 . S
H158 C178 1.003 . S
H159 C179 0.950 1_655 S
H160 C181 0.950 . S
H161 C184 0.950 . S
H162 C185 0.950 . S
H163 C187 0.950 . S
H164 C188 0.950 1_556 S
H165 C189 0.951 . S
H166 C191 0.951 . S
H167 C193 1.003 . S
H168 C194 0.950 1_455 S
H169 C196 0.950 . S
H170 C199 0.950 . S
H171 C200 0.950 . S
H172 C202 0.950 . S
H173 C203 0.950 1_554 S
C174 H156 0.951 . S
C174 C175 1.366 . S
C174 C176 1.388 . S
C175 C174 1.366 . S
C175 C179 1.385 . S
C176 H157 0.951 . S
C176 C174 1.388 . S
C176 C177 1.366 . S
C177 C176 1.366 . S
C177 C178 1.373 1_455 S
C177 C180 1.499 . S
C178 H158 1.003 . S
C178 C177 1.373 1_655 S
C178 C179 1.364 1_655 S
C179 H159 0.950 1_455 S
C179 C175 1.385 . S
C179 C178 1.364 1_455 S
C180 C177 1.499 . S
C180 C181 1.373 1_455 S
C180 C182 1.389 . S
C181 H160 0.950 . S
C181 C180 1.373 1_655 S
C181 C197 1.377 1_554 S
C182 C180 1.389 . S
C182 C183 1.524 . S
C182 C196 1.377 1_554 S
C183 C182 1.524 . S
C183 C184 1.397 . S
C183 C188 1.363 . S
C184 H161 0.950 . S
C184 C183 1.397 . S
C184 C185 1.334 . S
C185 H162 0.950 . S
C185 C184 1.334 . S
C185 C186 1.287 . S
C186 C185 1.287 . S
C186 C187 1.524 . S
C186 H205 0.913 . S
C187 H163 0.950 . S
C187 C186 1.524 . S
C187 C188 1.415 . S
C188 H164 0.950 1_554 S
C188 C183 1.363 . S
C188 C187 1.415 . S
C189 H165 0.951 . S
C189 C190 1.366 . S
C189 C191 1.388 . S
C190 C189 1.366 . S
C190 C194 1.385 . S
C191 H166 0.951 . S
C191 C189 1.388 . S
C191 C192 1.366 . S
C192 C191 1.366 . S
C192 C193 1.373 1_655 S
C192 C195 1.499 . S
C193 H167 1.003 . S
C193 C192 1.373 1_455 S
C193 C194 1.364 1_455 S
C194 H168 0.950 1_655 S
C194 C190 1.385 . S
C194 C193 1.364 1_655 S
C195 C192 1.499 . S
C195 C196 1.373 1_655 S
C195 C197 1.389 . S
C196 H169 0.950 . S
C196 C182 1.377 1_556 S
C196 C195 1.373 1_455 S
C197 C181 1.377 1_556 S
C197 C195 1.389 . S
C197 C198 1.524 . S
C198 C197 1.524 . S
C198 C199 1.397 . S
C198 C203 1.363 . S
C199 H170 0.950 . S
C199 C198 1.397 . S
C199 C200 1.334 . S
C200 H171 0.950 . S
C200 C199 1.334 . S
C200 C201 1.287 . S
C201 C200 1.287 . S
C201 C202 1.524 . S
C201 H204 0.999 . S
C202 H172 0.950 . S
C202 C201 1.524 . S
C202 C203 1.415 . S
C203 H173 0.950 1_556 S
C203 C198 1.363 . S
C203 C202 1.415 . S
H204 C201 0.999 . S
H205 C186 0.913 . S
H206 C224 0.951 . S
H207 C226 0.951 . S
H208 C228 0.950 . S
H209 C229 0.941 1_545 S
H210 C231 0.939 . S
H211 C234 0.950 . S
H212 C235 0.950 . S
H213 C237 0.950 . S
H214 C238 0.950 . S
H215 C239 0.951 . S
H216 C241 0.951 . S
H217 C243 0.950 . S
H218 C244 0.941 1_565 S
H219 C246 0.939 . S
H220 C249 0.950 . S
H221 C250 0.950 . S
H222 C252 0.950 . S
H223 C253 0.950 . S
C224 H206 0.951 . S
C224 C225 1.366 . S
C224 C226 1.388 . S
C225 C224 1.366 . S
C225 C229 1.402 . S
C226 H207 0.951 . S
C226 C224 1.388 . S
C226 C227 1.366 . S
C227 C226 1.366 . S
C227 C228 1.414 1_565 S
C227 C230 1.499 . S
C228 H208 0.950 . S
C228 C227 1.414 1_545 S
C228 C229 1.367 1_545 S
C229 H209 0.941 1_565 S
C229 C225 1.402 . S
C229 C228 1.367 1_565 S
C230 C227 1.499 . S
C230 C231 1.382 1_565 S
C230 C232 1.389 . S
C231 H210 0.939 . S
C231 C230 1.382 1_545 S
C231 C247 1.380 . S
C232 C230 1.389 . S
C232 C233 1.524 . S
C232 C246 1.380 . S
C233 C232 1.524 . S
C233 C234 1.397 1_565 S
C233 C238 1.363 . S
C234 H211 0.950 . S
C234 C233 1.397 1_545 S
C234 C235 1.334 . S
C235 H212 0.950 . S
C235 C234 1.334 . S
C235 C236 1.287 1_545 S
C236 C235 1.287 1_565 S
C236 C237 1.524 . S
C236 H255 0.913 . S
C237 H213 0.950 . S
C237 C236 1.524 . S
C237 C238 1.415 . S
C238 H214 0.950 . S
C238 C233 1.363 . S
C238 C237 1.415 . S
C239 H215 0.951 . S
C239 C240 1.366 . S
C239 C241 1.388 . S
C240 C239 1.366 . S
C240 C244 1.402 . S
C241 H216 0.951 . S
C241 C239 1.388 . S
C241 C242 1.366 . S
C242 C241 1.366 . S
C242 C243 1.414 1_545 S
C242 C245 1.499 . S
C243 H217 0.950 . S
C243 C242 1.414 1_565 S
C243 C244 1.367 1_565 S
C244 H218 0.941 1_545 S
C244 C240 1.402 . S
C244 C243 1.367 1_545 S
C245 C242 1.499 . S
C245 C246 1.382 1_545 S
C245 C247 1.389 . S
C246 H219 0.939 . S
C246 C232 1.380 . S
C246 C245 1.382 1_565 S
C247 C231 1.380 . S
C247 C245 1.389 . S
C247 C248 1.524 . S
C248 C247 1.524 . S
C248 C249 1.397 1_545 S
C248 C253 1.363 . S
C249 H220 0.950 . S
C249 C248 1.397 1_565 S
C249 C250 1.334 . S
C250 H221 0.950 . S
C250 C249 1.334 . S
C250 C251 1.287 1_565 S
C251 C250 1.287 1_545 S
C251 C252 1.524 . S
C251 H254 0.999 . S
C252 H222 0.950 . S
C252 C251 1.524 . S
C252 C253 1.415 . S
C253 H223 0.950 . S
C253 C248 1.363 . S
C253 C252 1.415 . S
H254 C251 0.999 . S
H255 C236 0.913 . S
H256 C274 0.951 . S
H257 C276 0.951 . S
H258 C278 0.950 . S
H259 C279 0.950 . S
H260 C281 0.950 . S
H261 C284 0.950 . S
H262 C285 0.950 . S
H263 C287 0.950 . S
H264 C288 0.950 1_556 S
H265 C289 0.951 . S
H266 C291 0.951 . S
H267 C293 0.950 . S
H268 C294 0.950 . S
H269 C296 0.950 . S
H270 C299 0.950 . S
H271 C300 0.950 . S
H272 C302 0.950 . S
H273 C303 0.950 1_554 S
C274 H256 0.951 . S
C274 C275 1.366 . S
C274 C276 1.388 . S
C275 C274 1.366 . S
C275 C279 1.385 . S
C276 H257 0.951 . S
C276 C274 1.388 . S
C276 C277 1.366 . S
C277 C276 1.366 . S
C277 C278 1.414 . S
C277 C280 1.499 . S
C278 H258 0.950 . S
C278 C277 1.414 . S
C278 C279 1.374 . S
C279 H259 0.950 . S
C279 C275 1.385 . S
C279 C278 1.374 . S
C280 C277 1.499 . S
C280 C281 1.373 . S
C280 C282 1.389 . S
C281 H260 0.950 . S
C281 C280 1.373 . S
C281 C297 1.377 1_554 S
C282 C280 1.389 . S
C282 C283 1.524 . S
C282 C296 1.377 1_554 S
C283 C282 1.524 . S
C283 C284 1.397 . S
C283 C288 1.363 . S
C284 H261 0.950 . S
C284 C283 1.397 . S
C284 C285 1.334 . S
C285 H262 0.950 . S
C285 C284 1.334 . S
C285 C286 1.287 . S
C286 C285 1.287 . S
C286 C287 1.524 . S
C286 H305 0.913 . S
C287 H263 0.950 . S
C287 C286 1.524 . S
C287 C288 1.415 . S
C288 H264 0.950 1_554 S
C288 C283 1.363 . S
C288 C287 1.415 . S
C289 H265 0.951 . S
C289 C290 1.366 . S
C289 C291 1.388 . S
C290 C289 1.366 . S
C290 C294 1.385 . S
C291 H266 0.951 . S
C291 C289 1.388 . S
C291 C292 1.366 . S
C292 C291 1.366 . S
C292 C293 1.414 . S
C292 C295 1.499 . S
C293 H267 0.950 . S
C293 C292 1.414 . S
C293 C294 1.374 . S
C294 H268 0.950 . S
C294 C290 1.385 . S
C294 C293 1.374 . S
C295 C292 1.499 . S
C295 C296 1.373 . S
C295 C297 1.389 . S
C296 H269 0.950 . S
C296 C282 1.377 1_556 S
C296 C295 1.373 . S
C297 C281 1.377 1_556 S
C297 C295 1.389 . S
C297 C298 1.524 . S
C298 C297 1.524 . S
C298 C299 1.397 . S
C298 C303 1.363 . S
C299 H270 0.950 . S
C299 C298 1.397 . S
C299 C300 1.334 . S
C300 H271 0.950 . S
C300 C299 1.334 . S
C300 C301 1.287 . S
C301 C300 1.287 . S
C301 C302 1.524 . S
C301 H304 0.999 . S
C302 H272 0.950 . S
C302 C301 1.524 . S
C302 C303 1.415 . S
C303 H273 0.950 1_556 S
C303 C298 1.363 . S
C303 C302 1.415 . S
H304 C301 0.999 . S
H305 C286 0.913 . S
H306 C324 0.951 . S
H307 C326 0.951 . S
H308 C328 0.950 . S
H309 C329 0.950 . S
H310 C331 0.950 . S
H311 C334 0.950 . S
H312 C335 0.950 . S
H313 C337 0.950 . S
H314 C338 0.950 . S
H315 C339 0.951 . S
H316 C341 0.951 . S
H317 C343 0.950 . S
H318 C344 0.950 . S
H319 C346 0.950 . S
H320 C349 0.950 . S
H321 C350 0.950 . S
H322 C352 0.950 . S
H323 C353 0.950 . S
C324 H306 0.951 . S
C324 C325 1.366 . S
C324 C326 1.388 . S
C325 C324 1.366 . S
C325 C329 1.385 . S
C326 H307 0.951 . S
C326 C324 1.388 . S
C326 C327 1.366 . S
C327 C326 1.366 . S
C327 C328 1.414 . S
C327 C330 1.499 . S
C328 H308 0.950 . S
C328 C327 1.414 . S
C328 C329 1.374 . S
C329 H309 0.950 . S
C329 C325 1.385 . S
C329 C328 1.374 . S
C330 C327 1.499 . S
C330 C331 1.373 . S
C330 C332 1.389 1_455 S
C331 H310 0.950 . S
C331 C330 1.373 . S
C331 C347 1.377 . S
C332 C330 1.389 1_655 S
C332 C333 1.524 . S
C332 C346 1.377 . S
C333 C332 1.524 . S
C333 C334 1.397 . S
C333 C338 1.363 . S
C334 H311 0.950 . S
C334 C333 1.397 . S
C334 C335 1.334 . S
C335 H312 0.950 . S
C335 C334 1.334 . S
C335 C336 1.287 . S
C336 C335 1.287 . S
C336 C337 1.524 . S
C336 H355 0.913 . S
C337 H313 0.950 . S
C337 C336 1.524 . S
C337 C338 1.415 . S
C338 H314 0.950 . S
C338 C333 1.363 . S
C338 C337 1.415 . S
C339 H315 0.951 . S
C339 C340 1.366 . S
C339 C341 1.388 . S
C340 C339 1.366 . S
C340 C344 1.385 . S
C341 H316 0.951 . S
C341 C339 1.388 . S
C341 C342 1.366 . S
C342 C341 1.366 . S
C342 C343 1.414 . S
C342 C345 1.499 . S
C343 H317 0.950 . S
C343 C342 1.414 . S
C343 C344 1.374 . S
C344 H318 0.950 . S
C344 C340 1.385 . S
C344 C343 1.374 . S
C345 C342 1.499 . S
C345 C346 1.373 . S
C345 C347 1.389 1_655 S
C346 H319 0.950 . S
C346 C332 1.377 . S
C346 C345 1.373 . S
C347 C331 1.377 . S
C347 C345 1.389 1_455 S
C347 C348 1.524 . S
C348 C347 1.524 . S
C348 C349 1.397 . S
C348 C353 1.363 . S
C349 H320 0.950 . S
C349 C348 1.397 . S
C349 C350 1.334 . S
C350 H321 0.950 . S
C350 C349 1.334 . S
C350 C351 1.287 . S
C351 C350 1.287 . S
C351 C352 1.524 . S
C351 H354 0.999 . S
C352 H322 0.950 . S
C352 C351 1.524 . S
C352 C353 1.415 . S
C353 H323 0.950 . S
C353 C348 1.363 . S
C353 C352 1.415 . S
H354 C351 0.999 . S
H355 C336 0.913 . S
H356 C374 0.951 . S
H357 C376 0.951 . S
H358 C378 0.950 . S
H359 C379 0.950 . S
H360 C381 0.950 . S
H361 C384 0.950 1_545 S
H362 C385 0.950 . S
H363 C387 0.950 . S
H364 C388 0.950 . S
H365 C389 0.951 . S
H366 C391 0.951 . S
H367 C393 0.950 . S
H368 C394 0.950 . S
H369 C396 0.950 . S
H370 C399 0.950 1_565 S
H371 C400 0.950 . S
H372 C402 0.950 . S
H373 C403 0.950 . S
C374 H356 0.951 . S
C374 C375 1.366 1_565 S
C374 C376 1.388 . S
C375 C374 1.366 1_545 S
C375 C379 1.385 . S
C376 H357 0.951 . S
C376 C374 1.388 . S
C376 C377 1.366 1_565 S
C377 C376 1.366 1_545 S
C377 C378 1.414 . S
C377 C380 1.499 . S
C378 H358 0.950 . S
C378 C377 1.414 . S
C378 C379 1.374 . S
C379 H359 0.950 . S
C379 C375 1.385 . S
C379 C378 1.374 . S
C380 C377 1.499 . S
C380 C381 1.373 . S
C380 C382 1.389 1_545 S
C381 H360 0.950 . S
C381 C380 1.373 . S
C381 C397 1.377 1_556 S
C382 C380 1.389 1_565 S
C382 C383 1.524 . S
C382 C396 1.377 1_556 S
C383 C382 1.524 . S
C383 C384 1.397 . S
C383 C388 1.363 . S
C384 H361 0.950 1_565 S
C384 C383 1.397 . S
C384 C385 1.334 . S
C385 H362 0.950 . S
C385 C384 1.334 . S
C385 C386 1.287 . S
C386 C385 1.287 . S
C386 C387 1.524 . S
C386 H405 0.913 . S
C387 H363 0.950 . S
C387 C386 1.524 . S
C387 C388 1.415 . S
C388 H364 0.950 . S
C388 C383 1.363 . S
C388 C387 1.415 . S
C389 H365 0.951 . S
C389 C390 1.366 1_545 S
C389 C391 1.388 . S
C390 C389 1.366 1_565 S
C390 C394 1.385 . S
C391 H366 0.951 . S
C391 C389 1.388 . S
C391 C392 1.366 1_545 S
C392 C391 1.366 1_565 S
C392 C393 1.414 . S
C392 C395 1.499 . S
C393 H367 0.950 . S
C393 C392 1.414 . S
C393 C394 1.374 . S
C394 H368 0.950 . S
C394 C390 1.385 . S
C394 C393 1.374 . S
C395 C392 1.499 . S
C395 C396 1.373 . S
C395 C397 1.389 1_565 S
C396 H369 0.950 . S
C396 C382 1.377 1_554 S
C396 C395 1.373 . S
C397 C381 1.377 1_554 S
C397 C395 1.389 1_545 S
C397 C398 1.524 . S
C398 C397 1.524 . S
C398 C399 1.397 . S
C398 C403 1.363 . S
C399 H370 0.950 1_545 S
C399 C398 1.397 . S
C399 C400 1.334 . S
C400 H371 0.950 . S
C400 C399 1.334 . S
C400 C401 1.287 . S
C401 C400 1.287 . S
C401 C402 1.524 . S
C401 H404 0.999 . S
C402 H372 0.950 . S
C402 C401 1.524 . S
C402 C403 1.415 . S
C403 H373 0.950 . S
C403 C398 1.363 . S
C403 C402 1.415 . S
H404 C401 0.999 . S
H405 C386 0.913 . S
H406 C424 0.951 . S
H407 C426 0.951 . S
H408 C428 0.950 . S
H409 C429 0.950 . S
H410 C431 0.950 . S
H411 C434 0.950 . S
H412 C435 0.950 . S
H413 C437 0.950 . S
H414 C438 0.950 . S
H415 C439 0.951 . S
H416 C441 0.951 . S
H417 C443 0.950 . S
H418 C444 0.950 . S
H419 C446 0.950 . S
H420 C449 0.950 . S
H421 C450 0.950 . S
H422 C452 0.950 . S
H423 C453 0.950 . S
C424 H406 0.951 . S
C424 C425 1.366 . S
C424 C426 1.388 . S
C425 C424 1.366 . S
C425 C429 1.385 . S
C426 H407 0.951 . S
C426 C424 1.388 . S
C426 C427 1.366 . S
C427 C426 1.366 . S
C427 C428 1.414 . S
C427 C430 1.499 . S
C428 H408 0.950 . S
C428 C427 1.414 . S
C428 C429 1.374 . S
C429 H409 0.950 . S
C429 C425 1.385 . S
C429 C428 1.374 . S
C430 C427 1.499 . S
C430 C431 1.373 . S
C430 C432 1.389 . S
C431 H410 0.950 . S
C431 C430 1.373 . S
C431 C447 1.377 . S
C432 C430 1.389 . S
C432 C433 1.524 . S
C432 C446 1.377 . S
C433 C432 1.524 . S
C433 C434 1.397 . S
C433 C438 1.363 . S
C434 H411 0.950 . S
C434 C433 1.397 . S
C434 C435 1.334 . S
C435 H412 0.950 . S
C435 C434 1.334 . S
C435 C436 1.287 . S
C436 C435 1.287 . S
C436 C437 1.524 . S
C436 H455 0.913 . S
C437 H413 0.950 . S
C437 C436 1.524 . S
C437 C438 1.415 . S
C438 H414 0.950 . S
C438 C433 1.363 . S
C438 C437 1.415 . S
C439 H415 0.951 . S
C439 C440 1.366 . S
C439 C441 1.388 . S
C440 C439 1.366 . S
C440 C444 1.385 . S
C441 H416 0.951 . S
C441 C439 1.388 . S
C441 C442 1.366 . S
C442 C441 1.366 . S
C442 C443 1.414 . S
C442 C445 1.499 . S
C443 H417 0.950 . S
C443 C442 1.414 . S
C443 C444 1.374 . S
C444 H418 0.950 . S
C444 C440 1.385 . S
C444 C443 1.374 . S
C445 C442 1.499 . S
C445 C446 1.373 . S
C445 C447 1.389 . S
C446 H419 0.950 . S
C446 C432 1.377 . S
C446 C445 1.373 . S
C447 C431 1.377 . S
C447 C445 1.389 . S
C447 C448 1.524 . S
C448 C447 1.524 . S
C448 C449 1.397 . S
C448 C453 1.363 . S
C449 H420 0.950 . S
C449 C448 1.397 . S
C449 C450 1.334 . S
C450 H421 0.950 . S
C450 C449 1.334 . S
C450 C451 1.287 . S
C451 C450 1.287 . S
C451 C452 1.524 . S
C451 H454 0.999 . S
C452 H422 0.950 . S
C452 C451 1.524 . S
C452 C453 1.415 . S
C453 H423 0.950 . S
C453 C448 1.363 . S
C453 C452 1.415 . S
H454 C451 0.999 . S
H455 C436 0.913 . S
H456 C474 0.956 1_455 S
H457 C476 0.951 . S
H458 C478 0.950 . S
H459 C479 0.950 . S
H460 C481 0.969 . S
H461 C484 0.950 . S
H462 C485 0.950 . S
H463 C487 0.950 1_455 S
H464 C488 0.950 . S
H465 C489 0.956 1_655 S
H466 C491 0.951 . S
H467 C493 0.950 . S
H468 C494 0.950 . S
H469 C496 0.969 . S
H470 C499 0.950 . S
H471 C500 0.950 . S
H472 C502 0.950 1_655 S
H473 C503 0.950 . S
C474 H456 0.956 1_655 S
C474 C475 1.360 . S
C474 C476 1.389 1_655 S
C475 C474 1.360 . S
C475 C479 1.385 . S
C476 H457 0.951 . S
C476 C474 1.389 1_455 S
C476 C477 1.366 1_455 S
C477 C476 1.366 1_655 S
C477 C478 1.414 . S
C477 C480 1.499 . S
C478 H458 0.950 . S
C478 C477 1.414 . S
C478 C479 1.374 . S
C479 H459 0.950 . S
C479 C475 1.385 . S
C479 C478 1.374 . S
C480 C477 1.499 . S
C480 C481 1.363 . S
C480 C482 1.389 . S
C481 H460 0.969 . S
C481 C480 1.363 . S
C481 C497 1.370 1_656 S
C482 C480 1.389 . S
C482 C483 1.524 . S
C482 C496 1.370 1_656 S
C483 C482 1.524 . S
C483 C484 1.397 . S
C483 C488 1.363 1_655 S
C484 H461 0.950 . S
C484 C483 1.397 . S
C484 C485 1.334 . S
C485 H462 0.950 . S
C485 C484 1.334 . S
C485 C486 1.287 . S
C486 C485 1.287 . S
C486 C487 1.524 . S
C486 H505 0.913 . S
C487 H463 0.950 1_655 S
C487 C486 1.524 . S
C487 C488 1.415 1_655 S
C488 H464 0.950 . S
C488 C483 1.363 1_455 S
C488 C487 1.415 1_455 S
C489 H465 0.956 1_455 S
C489 C490 1.360 . S
C489 C491 1.389 1_455 S
C490 C489 1.360 . S
C490 C494 1.385 . S
C491 H466 0.951 . S
C491 C489 1.389 1_655 S
C491 C492 1.366 1_655 S
C492 C491 1.366 1_455 S
C492 C493 1.414 . S
C492 C495 1.499 . S
C493 H467 0.950 . S
C493 C492 1.414 . S
C493 C494 1.374 . S
C494 H468 0.950 . S
C494 C490 1.385 . S
C494 C493 1.374 . S
C495 C492 1.499 . S
C495 C496 1.363 . S
C495 C497 1.389 . S
C496 H469 0.969 . S
C496 C482 1.370 1_454 S
C496 C495 1.363 . S
C497 C481 1.370 1_454 S
C497 C495 1.389 . S
C497 C498 1.524 . S
C498 C497 1.524 . S
C498 C499 1.397 . S
C498 C503 1.363 1_455 S
C499 H470 0.950 . S
C499 C498 1.397 . S
C499 C500 1.334 . S
C500 H471 0.950 . S
C500 C499 1.334 . S
C500 C501 1.287 . S
C501 C500 1.287 . S
C501 C502 1.524 . S
C501 H504 0.999 . S
C502 H472 0.950 1_455 S
C502 C501 1.524 . S
C502 C503 1.415 1_455 S
C503 H473 0.950 . S
C503 C498 1.363 1_655 S
C503 C502 1.415 1_655 S
H504 C501 0.999 . S
H505 C486 0.913 . S
H506 C524 0.951 . S
H507 C526 0.951 . S
H508 C528 0.951 1_545 S
H509 C529 0.954 1_545 S
H510 C531 0.950 . S
H511 C534 0.950 . S
H512 C535 0.950 . S
H513 C537 0.950 . S
H514 C538 0.957 . S
H515 C539 0.951 . S
H516 C541 0.951 . S
H517 C543 0.951 1_565 S
H518 C544 0.954 1_565 S
H519 C546 0.950 . S
H520 C549 0.950 . S
H521 C550 0.950 . S
H522 C552 0.950 . S
H523 C553 0.958 . S
C524 H506 0.951 . S
C524 C525 1.366 . S
C524 C526 1.388 . S
C525 C524 1.366 . S
C525 C529 1.385 . S
C526 H507 0.951 . S
C526 C524 1.388 . S
C526 C527 1.366 . S
C527 C526 1.366 . S
C527 C528 1.413 . S
C527 C530 1.499 . S
C528 H508 0.951 1_565 S
C528 C527 1.413 . S
C528 C529 1.375 . S
C529 H509 0.954 1_565 S
C529 C525 1.385 . S
C529 C528 1.375 . S
C530 C527 1.499 . S
C530 C531 1.373 . S
C530 C532 1.389 1_565 S
C531 H510 0.950 . S
C531 C530 1.373 . S
C531 C547 1.377 . S
C532 C530 1.389 1_545 S
C532 C533 1.524 . S
C532 C546 1.377 . S
C533 C532 1.524 . S
C533 C534 1.397 . S
C533 C538 1.363 . S
C534 H511 0.950 . S
C534 C533 1.397 . S
C534 C535 1.334 . S
C535 H512 0.950 . S
C535 C534 1.334 . S
C535 C536 1.287 . S
C536 C535 1.287 . S
C536 C537 1.524 . S
C536 H555 0.913 . S
C537 H513 0.950 . S
C537 C536 1.524 . S
C537 C538 1.415 . S
C538 H514 0.957 . S
C538 C533 1.363 . S
C538 C537 1.415 . S
C539 H515 0.951 . S
C539 C540 1.366 . S
C539 C541 1.388 . S
C540 C539 1.366 . S
C540 C544 1.385 . S
C541 H516 0.951 . S
C541 C539 1.388 . S
C541 C542 1.366 . S
C542 C541 1.366 . S
C542 C543 1.413 . S
C542 C545 1.499 . S
C543 H517 0.951 1_545 S
C543 C542 1.413 . S
C543 C544 1.375 . S
C544 H518 0.954 1_545 S
C544 C540 1.385 . S
C544 C543 1.375 . S
C545 C542 1.499 . S
C545 C546 1.373 . S
C545 C547 1.389 1_545 S
C546 H519 0.950 . S
C546 C532 1.377 . S
C546 C545 1.373 . S
C547 C531 1.377 . S
C547 C545 1.389 1_565 S
C547 C548 1.524 . S
C548 C547 1.524 . S
C548 C549 1.397 . S
C548 C553 1.363 . S
C549 H520 0.950 . S
C549 C548 1.397 . S
C549 C550 1.334 . S
C550 H521 0.950 . S
C550 C549 1.334 . S
C550 C551 1.287 . S
C551 C550 1.287 . S
C551 C552 1.524 . S
C551 H554 0.999 . S
C552 H522 0.950 . S
C552 C551 1.524 . S
C552 C553 1.415 . S
C553 H523 0.958 . S
C553 C548 1.363 . S
C553 C552 1.415 . S
H554 C551 0.999 . S
H555 C536 0.913 . S
H556 C574 0.951 . S
H557 C576 0.951 . S
H558 C578 0.950 . S
H559 C579 0.950 . S
H560 C581 0.950 . S
H561 C584 0.950 . S
H562 C585 0.950 . S
H563 C587 0.950 . S
H564 C588 0.950 . S
H565 C589 0.951 . S
H566 C591 0.951 . S
H567 C593 0.950 . S
H568 C594 0.950 . S
H569 C596 0.950 . S
H570 C599 0.950 . S
H571 C600 0.950 . S
H572 C602 0.950 . S
H573 C603 0.950 . S
C574 H556 0.951 . S
C574 C575 1.366 . S
C574 C576 1.388 . S
C575 C574 1.366 . S
C575 C579 1.385 . S
C576 H557 0.951 . S
C576 C574 1.388 . S
C576 C577 1.366 . S
C577 C576 1.366 . S
C577 C578 1.414 . S
C577 C580 1.499 . S
C578 H558 0.950 . S
C578 C577 1.414 . S
C578 C579 1.374 . S
C579 H559 0.950 . S
C579 C575 1.385 . S
C579 C578 1.374 . S
C580 C577 1.499 . S
C580 C581 1.373 . S
C580 C582 1.389 . S
C581 H560 0.950 . S
C581 C580 1.373 . S
C581 C597 1.377 1_556 S
C582 C580 1.389 . S
C582 C583 1.524 . S
C582 C596 1.377 1_556 S
C583 C582 1.524 . S
C583 C584 1.397 . S
C583 C588 1.363 . S
C584 H561 0.950 . S
C584 C583 1.397 . S
C584 C585 1.334 . S
C585 H562 0.950 . S
C585 C584 1.334 . S
C585 C586 1.287 . S
C586 C585 1.287 . S
C586 C587 1.524 . S
C586 H605 0.913 . S
C587 H563 0.950 . S
C587 C586 1.524 . S
C587 C588 1.415 . S
C588 H564 0.950 . S
C588 C583 1.363 . S
C588 C587 1.415 . S
C589 H565 0.951 . S
C589 C590 1.366 . S
C589 C591 1.388 . S
C590 C589 1.366 . S
C590 C594 1.385 . S
C591 H566 0.951 . S
C591 C589 1.388 . S
C591 C592 1.366 . S
C592 C591 1.366 . S
C592 C593 1.414 . S
C592 C595 1.499 . S
C593 H567 0.950 . S
C593 C592 1.414 . S
C593 C594 1.374 . S
C594 H568 0.950 . S
C594 C590 1.385 . S
C594 C593 1.374 . S
C595 C592 1.499 . S
C595 C596 1.373 . S
C595 C597 1.389 . S
C596 H569 0.950 . S
C596 C582 1.377 1_554 S
C596 C595 1.373 . S
C597 C581 1.377 1_554 S
C597 C595 1.389 . S
C597 C598 1.524 . S
C598 C597 1.524 . S
C598 C599 1.397 . S
C598 C603 1.363 . S
C599 H570 0.950 . S
C599 C598 1.397 . S
C599 C600 1.334 . S
C600 H571 0.950 . S
C600 C599 1.334 . S
C600 C601 1.287 . S
C601 C600 1.287 . S
C601 C602 1.524 . S
C601 H604 0.999 . S
C602 H572 0.950 . S
C602 C601 1.524 . S
C602 C603 1.415 . S
C603 H573 0.950 . S
C603 C598 1.363 . S
C603 C602 1.415 . S
H604 C601 0.999 . S
H605 C586 0.913 . S
H606 C624 0.951 . S
H607 C626 0.951 . S
H608 C628 0.951 1_455 S
H609 C629 0.950 1_455 S
H610 C631 0.950 . S
H611 C634 0.950 . S
H612 C635 0.950 . S
H613 C637 0.950 . S
H614 C638 0.950 . S
H615 C639 0.951 . S
H616 C641 0.951 . S
H617 C643 0.951 1_655 S
H618 C644 0.950 1_655 S
H619 C646 0.950 . S
H620 C649 0.950 . S
H621 C650 0.950 . S
H622 C652 0.950 . S
H623 C653 0.950 . S
C624 H606 0.951 . S
C624 C625 1.366 . S
C624 C626 1.388 . S
C625 C624 1.366 . S
C625 C629 1.385 . S
C626 H607 0.951 . S
C626 C624 1.388 . S
C626 C627 1.366 . S
C627 C626 1.366 . S
C627 C628 1.410 . S
C627 C630 1.499 . S
C628 H608 0.951 1_655 S
C628 C627 1.410 . S
C628 C629 1.377 . S
C629 H609 0.950 1_655 S
C629 C625 1.385 . S
C629 C628 1.377 . S
C630 C627 1.499 . S
C630 C631 1.373 . S
C630 C632 1.389 1_655 S
C631 H610 0.950 . S
C631 C630 1.373 . S
C631 C647 1.377 . S
C632 C630 1.389 1_455 S
C632 C633 1.524 . S
C632 C646 1.377 . S
C633 C632 1.524 . S
C633 C634 1.397 . S
C633 C638 1.363 . S
C634 H611 0.950 . S
C634 C633 1.397 . S
C634 C635 1.334 . S
C635 H612 0.950 . S
C635 C634 1.334 . S
C635 C636 1.287 . S
C636 C635 1.287 . S
C636 C637 1.524 . S
C636 H655 0.913 . S
C637 H613 0.950 . S
C637 C636 1.524 . S
C637 C638 1.415 . S
C638 H614 0.950 . S
C638 C633 1.363 . S
C638 C637 1.415 . S
C639 H615 0.951 . S
C639 C640 1.366 . S
C639 C641 1.388 . S
C640 C639 1.366 . S
C640 C644 1.385 . S
C641 H616 0.951 . S
C641 C639 1.388 . S
C641 C642 1.366 . S
C642 C641 1.366 . S
C642 C643 1.410 . S
C642 C645 1.499 . S
C643 H617 0.951 1_455 S
C643 C642 1.410 . S
C643 C644 1.377 . S
C644 H618 0.950 1_455 S
C644 C640 1.385 . S
C644 C643 1.377 . S
C645 C642 1.499 . S
C645 C646 1.373 . S
C645 C647 1.389 1_455 S
C646 H619 0.950 . S
C646 C632 1.377 . S
C646 C645 1.373 . S
C647 C631 1.377 . S
C647 C645 1.389 1_655 S
C647 C648 1.524 . S
C648 C647 1.524 . S
C648 C649 1.397 . S
C648 C653 1.363 . S
C649 H620 0.950 . S
C649 C648 1.397 . S
C649 C650 1.334 . S
C650 H621 0.950 . S
C650 C649 1.334 . S
C650 C651 1.287 . S
C651 C650 1.287 . S
C651 C652 1.524 . S
C651 H654 0.999 . S
C652 H622 0.950 . S
C652 C651 1.524 . S
C652 C653 1.415 . S
C653 H623 0.950 . S
C653 C648 1.363 . S
C653 C652 1.415 . S
H654 C651 0.999 . S
H655 C636 0.913 . S
H656 C674 0.951 . S
H657 C676 0.951 . S
H658 C678 0.950 . S
H659 C679 0.950 . S
H660 C681 0.950 . S
H661 C684 0.950 . S
H662 C685 0.950 . S
H663 C687 0.950 . S
H664 C688 0.950 . S
H665 C689 0.951 . S
H666 C691 0.951 . S
H667 C693 0.950 . S
H668 C694 0.950 . S
H669 C696 0.950 . S
H670 C699 0.950 . S
H671 C700 0.950 . S
H672 C702 0.950 . S
H673 C703 0.950 . S
C674 H656 0.951 . S
C674 C675 1.366 1_565 S
C674 C676 1.388 . S
C675 C674 1.366 1_545 S
C675 C679 1.385 . S
C676 H657 0.951 . S
C676 C674 1.388 . S
C676 C677 1.366 1_565 S
C677 C676 1.366 1_545 S
C677 C678 1.414 . S
C677 C680 1.499 . S
C678 H658 0.950 . S
C678 C677 1.414 . S
C678 C679 1.374 . S
C679 H659 0.950 . S
C679 C675 1.385 . S
C679 C678 1.374 . S
C680 C677 1.499 . S
C680 C681 1.373 . S
C680 C682 1.389 1_545 S
C681 H660 0.950 . S
C681 C680 1.373 . S
C681 C697 1.377 1_556 S
C682 C680 1.389 1_565 S
C682 C683 1.524 . S
C682 C696 1.377 1_556 S
C683 C682 1.524 . S
C683 C684 1.397 . S
C683 C688 1.363 . S
C684 H661 0.950 . S
C684 C683 1.397 . S
C684 C685 1.334 . S
C685 H662 0.950 . S
C685 C684 1.334 . S
C685 C686 1.287 . S
C686 C685 1.287 . S
C686 C687 1.524 . S
C686 H705 0.913 . S
C687 H663 0.950 . S
C687 C686 1.524 . S
C687 C688 1.415 . S
C688 H664 0.950 . S
C688 C683 1.363 . S
C688 C687 1.415 . S
C689 H665 0.951 . S
C689 C690 1.366 1_545 S
C689 C691 1.388 . S
C690 C689 1.366 1_565 S
C690 C694 1.385 . S
C691 H666 0.951 . S
C691 C689 1.388 . S
C691 C692 1.366 1_545 S
C692 C691 1.366 1_565 S
C692 C693 1.414 . S
C692 C695 1.499 . S
C693 H667 0.950 . S
C693 C692 1.414 . S
C693 C694 1.374 . S
C694 H668 0.950 . S
C694 C690 1.385 . S
C694 C693 1.374 . S
C695 C692 1.499 . S
C695 C696 1.373 . S
C695 C697 1.389 1_565 S
C696 H669 0.950 . S
C696 C682 1.377 1_554 S
C696 C695 1.373 . S
C697 C681 1.377 1_554 S
C697 C695 1.389 1_545 S
C697 C698 1.524 . S
C698 C697 1.524 . S
C698 C699 1.397 . S
C698 C703 1.363 . S
C699 H670 0.950 . S
C699 C698 1.397 . S
C699 C700 1.334 . S
C700 H671 0.950 . S
C700 C699 1.334 . S
C700 C701 1.287 . S
C701 C700 1.287 . S
C701 C702 1.524 . S
C701 H704 0.999 . S
C702 H672 0.950 . S
C702 C701 1.524 . S
C702 C703 1.415 . S
C703 H673 0.950 . S
C703 C698 1.363 . S
C703 C702 1.415 . S
H704 C701 0.999 . S
H705 C686 0.913 . S
H706 C724 0.951 . S
H707 C726 0.951 . S
H708 C728 0.950 . S
H709 C729 0.950 . S
H710 C731 0.950 . S
H711 C734 0.950 . S
H712 C735 0.950 . S
H713 C737 0.950 . S
H714 C738 0.950 . S
H715 C739 0.951 . S
H716 C741 0.951 . S
H717 C743 0.950 . S
H718 C744 0.950 . S
H719 C746 0.950 . S
H720 C749 0.950 . S
H721 C750 0.950 . S
H722 C752 0.950 . S
H723 C753 0.950 . S
C724 H706 0.951 . S
C724 C725 1.366 . S
C724 C726 1.388 . S
C725 C724 1.366 . S
C725 C729 1.385 . S
C726 H707 0.951 . S
C726 C724 1.388 . S
C726 C727 1.366 . S
C727 C726 1.366 . S
C727 C728 1.414 . S
C727 C730 1.499 . S
C728 H708 0.950 . S
C728 C727 1.414 . S
C728 C729 1.374 . S
C729 H709 0.950 . S
C729 C725 1.385 . S
C729 C728 1.374 . S
C730 C727 1.499 . S
C730 C731 1.373 . S
C730 C732 1.389 . S
C731 H710 0.950 . S
C731 C730 1.373 . S
C731 C747 1.377 . S
C732 C730 1.389 . S
C732 C733 1.524 . S
C732 C746 1.377 . S
C733 C732 1.524 . S
C733 C734 1.397 . S
C733 C738 1.363 . S
C734 H711 0.950 . S
C734 C733 1.397 . S
C734 C735 1.334 . S
C735 H712 0.950 . S
C735 C734 1.334 . S
C735 C736 1.287 . S
C736 C735 1.287 . S
C736 C737 1.524 . S
C736 H755 0.913 . S
C737 H713 0.950 . S
C737 C736 1.524 . S
C737 C738 1.415 . S
C738 H714 0.950 . S
C738 C733 1.363 . S
C738 C737 1.415 . S
C739 H715 0.951 . S
C739 C740 1.366 . S
C739 C741 1.388 . S
C740 C739 1.366 . S
C740 C744 1.385 . S
C741 H716 0.951 . S
C741 C739 1.388 . S
C741 C742 1.366 . S
C742 C741 1.366 . S
C742 C743 1.414 . S
C742 C745 1.499 . S
C743 H717 0.950 . S
C743 C742 1.414 . S
C743 C744 1.374 . S
C744 H718 0.950 . S
C744 C740 1.385 . S
C744 C743 1.374 . S
C745 C742 1.499 . S
C745 C746 1.373 . S
C745 C747 1.389 . S
C746 H719 0.950 . S
C746 C732 1.377 . S
C746 C745 1.373 . S
C747 C731 1.377 . S
C747 C745 1.389 . S
C747 C748 1.524 . S
C748 C747 1.524 . S
C748 C749 1.397 . S
C748 C753 1.363 . S
C749 H720 0.950 . S
C749 C748 1.397 . S
C749 C750 1.334 . S
C750 H721 0.950 . S
C750 C749 1.334 . S
C750 C751 1.287 . S
C751 C750 1.287 . S
C751 C752 1.524 . S
C751 H754 0.999 . S
C752 H722 0.950 . S
C752 C751 1.524 . S
C752 C753 1.415 . S
C753 H723 0.950 . S
C753 C748 1.363 . S
C753 C752 1.415 . S
H754 C751 0.999 . S
H755 C736 0.913 . S
H756 C774 0.951 1_655 S
H757 C776 0.951 1_655 S
H758 C778 0.950 . S
H759 C779 0.950 . S
H760 C781 0.950 . S
H761 C784 0.950 . S
H762 C785 0.950 . S
H763 C787 0.950 . S
H764 C788 0.950 . S
H765 C789 0.951 . S
H766 C791 0.951 . S
H767 C793 0.950 1_655 S
H768 C794 0.950 1_655 S
H769 C796 0.950 . S
H770 C799 0.950 . S
H771 C800 0.950 . S
H772 C802 0.950 . S
H773 C803 0.950 . S
C774 H756 0.951 1_455 S
C774 C775 1.366 . S
C774 C776 1.388 . S
C775 C774 1.366 . S
C775 C779 1.385 . S
C776 H757 0.951 1_455 S
C776 C774 1.388 . S
C776 C777 1.366 . S
C777 C776 1.366 . S
C777 C778 1.414 . S
C777 C780 1.499 . S
C778 H758 0.950 . S
C778 C777 1.414 . S
C778 C779 1.374 . S
C779 H759 0.950 . S
C779 C775 1.385 . S
C779 C778 1.374 . S
C780 C777 1.499 . S
C780 C781 1.373 . S
C780 C782 1.389 . S
C781 H760 0.950 . S
C781 C780 1.373 . S
C781 C797 1.377 . S
C782 C780 1.389 . S
C782 C783 1.524 . S
C782 C796 1.377 . S
C783 C782 1.524 . S
C783 C784 1.397 . S
C783 C788 1.363 1_455 S
C784 H761 0.950 . S
C784 C783 1.397 . S
C784 C785 1.334 . S
C785 H762 0.950 . S
C785 C784 1.334 . S
C785 C786 1.287 1_455 S
C786 C785 1.287 1_655 S
C786 C787 1.524 . S
C786 H805 0.913 . S
C787 H763 0.950 . S
C787 C786 1.524 . S
C787 C788 1.415 . S
C788 H764 0.950 . S
C788 C783 1.363 1_655 S
C788 C787 1.415 . S
C789 H765 0.951 . S
C789 C790 1.366 . S
C789 C791 1.388 . S
C790 C789 1.366 . S
C790 C794 1.385 . S
C791 H766 0.951 . S
C791 C789 1.388 . S
C791 C792 1.366 . S
C792 C791 1.366 . S
C792 C793 1.414 . S
C792 C795 1.499 . S
C793 H767 0.950 1_455 S
C793 C792 1.414 . S
C793 C794 1.374 . S
C794 H768 0.950 1_455 S
C794 C790 1.385 . S
C794 C793 1.374 . S
C795 C792 1.499 . S
C795 C796 1.373 . S
C795 C797 1.389 . S
C796 H769 0.950 . S
C796 C782 1.377 . S
C796 C795 1.373 . S
C797 C781 1.377 . S
C797 C795 1.389 . S
C797 C798 1.524 . S
C798 C797 1.524 . S
C798 C799 1.397 . S
C798 C803 1.363 . S
C799 H770 0.950 . S
C799 C798 1.397 . S
C799 C800 1.334 . S
C800 H771 0.950 . S
C800 C799 1.334 . S
C800 C801 1.287 . S
C801 C800 1.287 . S
C801 C802 1.524 . S
C801 H804 0.999 . S
C802 H772 0.950 . S
C802 C801 1.524 . S
C802 C803 1.415 . S
C803 H773 0.950 . S
C803 C798 1.363 . S
C803 C802 1.415 . S
H804 C801 0.999 . S
H805 C786 0.913 . S
H806 C824 0.951 . S
H807 C826 0.951 . S
H808 C828 0.950 . S
H809 C829 0.950 . S
H810 C831 0.950 . S
H811 C834 0.950 . S
H812 C835 0.950 . S
H813 C837 0.950 . S
H814 C838 0.950 . S
H815 C839 0.951 . S
H816 C841 0.951 . S
H817 C843 0.950 . S
H818 C844 0.950 . S
H819 C846 0.950 . S
H820 C849 0.950 . S
H821 C850 0.950 . S
H822 C852 0.950 . S
H823 C853 0.950 . S
C824 H806 0.951 . S
C824 C825 1.366 . S
C824 C826 1.388 . S
C825 C824 1.366 . S
C825 C829 1.385 . S
C826 H807 0.951 . S
C826 C824 1.388 . S
C826 C827 1.366 . S
C827 C826 1.366 . S
C827 C828 1.414 . S
C827 C830 1.499 . S
C828 H808 0.950 . S
C828 C827 1.414 . S
C828 C829 1.374 . S
C829 H809 0.950 . S
C829 C825 1.385 . S
C829 C828 1.374 . S
C830 C827 1.499 . S
C830 C831 1.373 . S
C830 C832 1.389 . S
C831 H810 0.950 . S
C831 C830 1.373 . S
C831 C847 1.377 . S
C832 C830 1.389 . S
C832 C833 1.524 . S
C832 C846 1.377 . S
C833 C832 1.524 . S
C833 C834 1.397 . S
C833 C838 1.363 . S
C834 H811 0.950 . S
C834 C833 1.397 . S
C834 C835 1.334 . S
C835 H812 0.950 . S
C835 C834 1.334 . S
C835 C836 1.287 . S
C836 C835 1.287 . S
C836 C837 1.524 . S
C836 H855 0.913 . S
C837 H813 0.950 . S
C837 C836 1.524 . S
C837 C838 1.415 . S
C838 H814 0.950 . S
C838 C833 1.363 . S
C838 C837 1.415 . S
C839 H815 0.951 . S
C839 C840 1.366 . S
C839 C841 1.388 . S
C840 C839 1.366 . S
C840 C844 1.385 . S
C841 H816 0.951 . S
C841 C839 1.388 . S
C841 C842 1.366 . S
C842 C841 1.366 . S
C842 C843 1.414 . S
C842 C845 1.499 . S
C843 H817 0.950 . S
C843 C842 1.414 . S
C843 C844 1.374 . S
C844 H818 0.950 . S
C844 C840 1.385 . S
C844 C843 1.374 . S
C845 C842 1.499 . S
C845 C846 1.373 . S
C845 C847 1.389 . S
C846 H819 0.950 . S
C846 C832 1.377 . S
C846 C845 1.373 . S
C847 C831 1.377 . S
C847 C845 1.389 . S
C847 C848 1.524 1_545 S
C848 C847 1.524 1_565 S
C848 C849 1.397 . S
C848 C853 1.363 . S
C849 H820 0.950 . S
C849 C848 1.397 . S
C849 C850 1.334 . S
C850 H821 0.950 . S
C850 C849 1.334 . S
C850 C851 1.287 . S
C851 C850 1.287 . S
C851 C852 1.524 . S
C851 H854 0.999 . S
C852 H822 0.950 . S
C852 C851 1.524 . S
C852 C853 1.415 . S
C853 H823 0.950 . S
C853 C848 1.363 . S
C853 C852 1.415 . S
H854 C851 0.999 . S
H855 C836 0.913 . S
H856 C874 0.951 . S
H857 C876 0.951 . S
H858 C878 0.950 . S
H859 C879 0.950 . S
H860 C881 0.950 . S
H861 C884 0.950 . S
H862 C885 0.950 . S
H863 C887 0.950 . S
H864 C888 0.950 . S
H865 C889 0.951 . S
H866 C891 0.951 . S
H867 C893 0.950 . S
H868 C894 0.950 . S
H869 C896 0.950 . S
H870 C899 0.950 . S
H871 C900 0.950 . S
H872 C902 0.950 . S
H873 C903 0.950 . S
C874 H856 0.951 . S
C874 C875 1.366 . S
C874 C876 1.388 . S
C875 C874 1.366 . S
C875 C879 1.385 . S
C876 H857 0.951 . S
C876 C874 1.388 . S
C876 C877 1.366 . S
C877 C876 1.366 . S
C877 C878 1.414 . S
C877 C880 1.499 . S
C878 H858 0.950 . S
C878 C877 1.414 . S
C878 C879 1.374 . S
C879 H859 0.950 . S
C879 C875 1.385 . S
C879 C878 1.374 . S
C880 C877 1.499 . S
C880 C881 1.373 . S
C880 C882 1.389 . S
C881 H860 0.950 . S
C881 C880 1.373 . S
C881 C897 1.377 . S
C882 C880 1.389 . S
C882 C883 1.524 . S
C882 C896 1.377 . S
C883 C882 1.524 . S
C883 C884 1.397 . S
C883 C888 1.363 . S
C884 H861 0.950 . S
C884 C883 1.397 . S
C884 C885 1.334 . S
C885 H862 0.950 . S
C885 C884 1.334 . S
C885 C886 1.287 . S
C886 C885 1.287 . S
C886 C887 1.524 . S
C886 H905 0.913 . S
C887 H863 0.950 . S
C887 C886 1.524 . S
C887 C888 1.415 . S
C888 H864 0.950 . S
C888 C883 1.363 . S
C888 C887 1.415 . S
C889 H865 0.951 . S
C889 C890 1.366 . S
C889 C891 1.388 . S
C890 C889 1.366 . S
C890 C894 1.385 . S
C891 H866 0.951 . S
C891 C889 1.388 . S
C891 C892 1.366 . S
C892 C891 1.366 . S
C892 C893 1.414 . S
C892 C895 1.499 . S
C893 H867 0.950 . S
C893 C892 1.414 . S
C893 C894 1.374 . S
C894 H868 0.950 . S
C894 C890 1.385 . S
C894 C893 1.374 . S
C895 C892 1.499 . S
C895 C896 1.373 . S
C895 C897 1.389 . S
C896 H869 0.950 . S
C896 C882 1.377 . S
C896 C895 1.373 . S
C897 C881 1.377 . S
C897 C895 1.389 . S
C897 C898 1.524 . S
C898 C897 1.524 . S
C898 C899 1.397 . S
C898 C903 1.363 . S
C899 H870 0.950 . S
C899 C898 1.397 . S
C899 C900 1.334 . S
C900 H871 0.950 . S
C900 C899 1.334 . S
C900 C901 1.287 . S
C901 C900 1.287 . S
C901 C902 1.524 . S
C901 H904 0.999 . S
C902 H872 0.950 . S
C902 C901 1.524 . S
C902 C903 1.415 . S
C903 H873 0.950 . S
C903 C898 1.363 . S
C903 C902 1.415 . S
H904 C901 0.999 . S
H905 C886 0.913 . S
H906 C924 0.951 . S
H907 C926 0.951 . S
H908 C928 0.950 . S
H909 C929 0.950 . S
H910 C931 0.950 . S
H911 C934 0.950 . S
H912 C935 0.950 . S
H913 C937 0.950 . S
H914 C938 0.950 . S
H915 C939 0.951 . S
H916 C941 0.951 . S
H917 C943 0.950 . S
H918 C944 0.950 . S
H919 C946 0.950 . S
H920 C949 0.950 . S
H921 C950 0.950 . S
H922 C952 0.950 . S
H923 C953 0.950 . S
C924 H906 0.951 . S
C924 C925 1.366 . S
C924 C926 1.388 . S
C925 C924 1.366 . S
C925 C929 1.385 . S
C926 H907 0.951 . S
C926 C924 1.388 . S
C926 C927 1.366 . S
C927 C926 1.366 . S
C927 C928 1.414 . S
C927 C930 1.499 . S
C928 H908 0.950 . S
C928 C927 1.414 . S
C928 C929 1.374 . S
C929 H909 0.950 . S
C929 C925 1.385 . S
C929 C928 1.374 . S
C930 C927 1.499 . S
C930 C931 1.373 . S
C930 C932 1.389 . S
C931 H910 0.950 . S
C931 C930 1.373 . S
C931 C947 1.377 . S
C932 C930 1.389 . S
C932 C933 1.524 . S
C932 C946 1.377 . S
C933 C932 1.524 . S
C933 C934 1.397 . S
C933 C938 1.363 . S
C934 H911 0.950 . S
C934 C933 1.397 . S
C934 C935 1.334 . S
C935 H912 0.950 . S
C935 C934 1.334 . S
C935 C936 1.287 . S
C936 C935 1.287 . S
C936 C937 1.524 . S
C936 H955 0.913 . S
C937 H913 0.950 . S
C937 C936 1.524 . S
C937 C938 1.415 . S
C938 H914 0.950 . S
C938 C933 1.363 . S
C938 C937 1.415 . S
C939 H915 0.951 . S
C939 C940 1.366 . S
C939 C941 1.388 . S
C940 C939 1.366 . S
C940 C944 1.385 . S
C941 H916 0.951 . S
C941 C939 1.388 . S
C941 C942 1.366 . S
C942 C941 1.366 . S
C942 C943 1.414 . S
C942 C945 1.499 . S
C943 H917 0.950 . S
C943 C942 1.414 . S
C943 C944 1.374 . S
C944 H918 0.950 . S
C944 C940 1.385 . S
C944 C943 1.374 . S
C945 C942 1.499 . S
C945 C946 1.373 . S
C945 C947 1.389 . S
C946 H919 0.950 . S
C946 C932 1.377 . S
C946 C945 1.373 . S
C947 C931 1.377 . S
C947 C945 1.389 . S
C947 C948 1.524 . S
C948 C947 1.524 . S
C948 C949 1.397 . S
C948 C953 1.363 . S
C949 H920 0.950 . S
C949 C948 1.397 . S
C949 C950 1.334 . S
C950 H921 0.950 . S
C950 C949 1.334 . S
C950 C951 1.287 . S
C951 C950 1.287 . S
C951 C952 1.524 . S
C951 H954 0.999 . S
C952 H922 0.950 . S
C952 C951 1.524 . S
C952 C953 1.415 . S
C953 H923 0.950 . S
C953 C948 1.363 . S
C953 C952 1.415 . S
H954 C951 0.999 . S
H955 C936 0.913 . S
H956 C974 0.951 . S
H957 C976 0.951 . S
H958 C978 0.950 . S
H959 C979 0.950 . S
H960 C981 0.950 . S
H961 C984 0.950 . S
H962 C985 0.950 . S
H963 C987 0.950 . S
H964 C988 0.950 . S
H965 C989 0.951 . S
H966 C991 0.951 . S
H967 C993 0.950 . S
H968 C994 0.950 . S
H969 C996 0.950 . S
H970 C999 0.950 1_545 S
H971 C1000 0.950 1_545 S
H972 C1002 0.950 . S
H973 C1003 0.950 . S
C974 H956 0.951 . S
C974 C975 1.366 . S
C974 C976 1.388 . S
C975 C974 1.366 . S
C975 C979 1.385 . S
C976 H957 0.951 . S
C976 C974 1.388 . S
C976 C977 1.366 . S
C977 C976 1.366 . S
C977 C978 1.414 . S
C977 C980 1.499 . S
C978 H958 0.950 . S
C978 C977 1.414 . S
C978 C979 1.374 . S
C979 H959 0.950 . S
C979 C975 1.385 . S
C979 C978 1.374 . S
C980 C977 1.499 . S
C980 C981 1.373 . S
C980 C982 1.389 . S
C981 H960 0.950 . S
C981 C980 1.373 . S
C981 C997 1.377 . S
C982 C980 1.389 . S
C982 C983 1.524 . S
C982 C996 1.377 . S
C983 C982 1.524 . S
C983 C984 1.397 . S
C983 C988 1.363 . S
C984 H961 0.950 . S
C984 C983 1.397 . S
C984 C985 1.334 . S
C985 H962 0.950 . S
C985 C984 1.334 . S
C985 C986 1.287 . S
C986 C985 1.287 . S
C986 C987 1.524 . S
C986 H1005 0.913 . S
C987 H963 0.950 . S
C987 C986 1.524 . S
C987 C988 1.415 . S
C988 H964 0.950 . S
C988 C983 1.363 . S
C988 C987 1.415 . S
C989 H965 0.951 . S
C989 C990 1.366 . S
C989 C991 1.388 . S
C990 C989 1.366 . S
C990 C994 1.385 . S
C991 H966 0.951 . S
C991 C989 1.388 . S
C991 C992 1.366 . S
C992 C991 1.366 . S
C992 C993 1.414 . S
C992 C995 1.499 . S
C993 H967 0.950 . S
C993 C992 1.414 . S
C993 C994 1.374 . S
C994 H968 0.950 . S
C994 C990 1.385 . S
C994 C993 1.374 . S
C995 C992 1.499 . S
C995 C996 1.373 . S
C995 C997 1.389 . S
C996 H969 0.950 . S
C996 C982 1.377 . S
C996 C995 1.373 . S
C997 C981 1.377 . S
C997 C995 1.389 . S
C997 C998 1.524 . S
C998 C997 1.524 . S
C998 C999 1.397 . S
C998 C1003 1.363 . S
C999 H970 0.950 1_565 S
C999 C998 1.397 . S
C999 C1000 1.334 . S
C1000 H971 0.950 1_565 S
C1000 C999 1.334 . S
C1000 C1001 1.287 . S
C1001 C1000 1.287 . S
C1001 C1002 1.524 . S
C1001 H1004 0.999 . S
C1002 H972 0.950 . S
C1002 C1001 1.524 . S
C1002 C1003 1.415 . S
C1003 H973 0.950 . S
C1003 C998 1.363 . S
C1003 C1002 1.415 . S
H1004 C1001 0.999 . S
H1005 C986 0.913 . S
H1006 C1024 0.951 . S
H1007 C1026 0.951 . S
H1008 C1028 0.950 . S
H1009 C1029 0.950 . S
H1010 C1031 0.950 . S
H1011 C1034 0.950 . S
H1012 C1035 0.950 . S
H1013 C1037 0.950 . S
H1014 C1038 0.950 . S
H1015 C1039 0.951 . S
H1016 C1041 0.951 . S
H1017 C1043 0.950 . S
H1018 C1044 0.950 . S
H1019 C1046 0.950 . S
H1020 C1049 0.950 . S
H1021 C1050 0.950 . S
H1022 C1052 0.950 . S
H1023 C1053 0.950 . S
C1024 H1006 0.951 . S
C1024 C1025 1.366 . S
C1024 C1026 1.388 . S
C1025 C1024 1.366 . S
C1025 C1029 1.385 . S
C1026 H1007 0.951 . S
C1026 C1024 1.388 . S
C1026 C1027 1.366 . S
C1027 C1026 1.366 . S
C1027 C1028 1.414 . S
C1027 C1030 1.499 . S
C1028 H1008 0.950 . S
C1028 C1027 1.414 . S
C1028 C1029 1.374 . S
C1029 H1009 0.950 . S
C1029 C1025 1.385 . S
C1029 C1028 1.374 . S
C1030 C1027 1.499 . S
C1030 C1031 1.373 . S
C1030 C1032 1.389 . S
C1031 H1010 0.950 . S
C1031 C1030 1.373 . S
C1031 C1047 1.377 . S
C1032 C1030 1.389 . S
C1032 C1033 1.524 . S
C1032 C1046 1.377 . S
C1033 C1032 1.524 . S
C1033 C1034 1.397 . S
C1033 C1038 1.363 . S
C1034 H1011 0.950 . S
C1034 C1033 1.397 . S
C1034 C1035 1.334 . S
C1035 H1012 0.950 . S
C1035 C1034 1.334 . S
C1035 C1036 1.287 . S
C1036 C1035 1.287 . S
C1036 C1037 1.524 . S
C1036 H1055 0.913 . S
C1037 H1013 0.950 . S
C1037 C1036 1.524 . S
C1037 C1038 1.415 . S
C1038 H1014 0.950 . S
C1038 C1033 1.363 . S
C1038 C1037 1.415 . S
C1039 H1015 0.951 . S
C1039 C1040 1.366 . S
C1039 C1041 1.388 . S
C1040 C1039 1.366 . S
C1040 C1044 1.385 . S
C1041 H1016 0.951 . S
C1041 C1039 1.388 . S
C1041 C1042 1.366 . S
C1042 C1041 1.366 . S
C1042 C1043 1.414 . S
C1042 C1045 1.499 . S
C1043 H1017 0.950 . S
C1043 C1042 1.414 . S
C1043 C1044 1.374 . S
C1044 H1018 0.950 . S
C1044 C1040 1.385 . S
C1044 C1043 1.374 . S
C1045 C1042 1.499 . S
C1045 C1046 1.373 . S
C1045 C1047 1.389 . S
C1046 H1019 0.950 . S
C1046 C1032 1.377 . S
C1046 C1045 1.373 . S
C1047 C1031 1.377 . S
C1047 C1045 1.389 . S
C1047 C1048 1.524 . S
C1048 C1047 1.524 . S
C1048 C1049 1.397 . S
C1048 C1053 1.363 . S
C1049 H1020 0.950 . S
C1049 C1048 1.397 . S
C1049 C1050 1.334 . S
C1050 H1021 0.950 . S
C1050 C1049 1.334 . S
C1050 C1051 1.287 . S
C1051 C1050 1.287 . S
C1051 C1052 1.524 . S
C1051 H1054 0.999 . S
C1052 H1022 0.950 . S
C1052 C1051 1.524 . S
C1052 C1053 1.415 . S
C1053 H1023 0.950 . S
C1053 C1048 1.363 . S
C1053 C1052 1.415 . S
H1054 C1051 0.999 . S
H1055 C1036 0.913 . S
H1056 C1074 0.951 . S
H1057 C1076 0.951 . S
H1058 C1078 0.950 . S
H1059 C1079 0.950 . S
H1060 C1081 0.950 . S
H1061 C1084 0.950 . S
H1062 C1085 0.950 . S
H1063 C1087 0.950 . S
H1064 C1088 0.950 . S
H1065 C1089 0.951 . S
H1066 C1091 0.951 . S
H1067 C1093 0.950 . S
H1068 C1094 0.950 . S
H1069 C1096 0.950 . S
H1070 C1099 0.950 . S
H1071 C1100 0.950 . S
H1072 C1102 0.950 . S
H1073 C1103 0.950 . S
C1074 H1056 0.951 . S
C1074 C1075 1.366 . S
C1074 C1076 1.388 . S
C1075 C1074 1.366 . S
C1075 C1079 1.385 . S
C1076 H1057 0.951 . S
C1076 C1074 1.388 . S
C1076 C1077 1.366 . S
C1077 C1076 1.366 . S
C1077 C1078 1.414 . S
C1077 C1080 1.499 . S
C1078 H1058 0.950 . S
C1078 C1077 1.414 . S
C1078 C1079 1.374 . S
C1079 H1059 0.950 . S
C1079 C1075 1.385 . S
C1079 C1078 1.374 . S
C1080 C1077 1.499 . S
C1080 C1081 1.373 . S
C1080 C1082 1.389 . S
C1081 H1060 0.950 . S
C1081 C1080 1.373 . S
C1081 C1097 1.377 . S
C1082 C1080 1.389 . S
C1082 C1083 1.524 . S
C1082 C1096 1.377 . S
C1083 C1082 1.524 . S
C1083 C1084 1.397 . S
C1083 C1088 1.363 . S
C1084 H1061 0.950 . S
C1084 C1083 1.397 . S
C1084 C1085 1.334 . S
C1085 H1062 0.950 . S
C1085 C1084 1.334 . S
C1085 C1086 1.287 . S
C1086 C1085 1.287 . S
C1086 C1087 1.524 . S
C1086 H1105 0.913 . S
C1087 H1063 0.950 . S
C1087 C1086 1.524 . S
C1087 C1088 1.415 . S
C1088 H1064 0.950 . S
C1088 C1083 1.363 . S
C1088 C1087 1.415 . S
C1089 H1065 0.951 . S
C1089 C1090 1.366 . S
C1089 C1091 1.388 . S
C1090 C1089 1.366 . S
C1090 C1094 1.385 . S
C1091 H1066 0.951 . S
C1091 C1089 1.388 . S
C1091 C1092 1.366 . S
C1092 C1091 1.366 . S
C1092 C1093 1.414 . S
C1092 C1095 1.499 . S
C1093 H1067 0.950 . S
C1093 C1092 1.414 . S
C1093 C1094 1.374 . S
C1094 H1068 0.950 . S
C1094 C1090 1.385 . S
C1094 C1093 1.374 . S
C1095 C1092 1.499 . S
C1095 C1096 1.373 . S
C1095 C1097 1.389 . S
C1096 H1069 0.950 . S
C1096 C1082 1.377 . S
C1096 C1095 1.373 . S
C1097 C1081 1.377 . S
C1097 C1095 1.389 . S
C1097 C1098 1.524 . S
C1098 C1097 1.524 . S
C1098 C1099 1.397 . S
C1098 C1103 1.363 . S
C1099 H1070 0.950 . S
C1099 C1098 1.397 . S
C1099 C1100 1.334 . S
C1100 H1071 0.950 . S
C1100 C1099 1.334 . S
C1100 C1101 1.287 . S
C1101 C1100 1.287 . S
C1101 C1102 1.524 . S
C1101 H1104 0.999 . S
C1102 H1072 0.950 . S
C1102 C1101 1.524 . S
C1102 C1103 1.415 . S
C1103 H1073 0.950 . S
C1103 C1098 1.363 . S
C1103 C1102 1.415 . S
H1104 C1101 0.999 . S
H1105 C1086 0.913 . S
H1106 C1124 0.951 . S
H1107 C1126 0.951 . S
H1108 C1128 0.950 . S
H1109 C1129 0.950 . S
H1110 C1131 0.950 . S
H1111 C1134 0.950 . S
H1112 C1135 0.950 . S
H1113 C1137 0.950 . S
H1114 C1138 0.950 . S
H1115 C1139 0.951 . S
H1116 C1141 0.951 . S
H1117 C1143 0.950 . S
H1118 C1144 0.950 . S
H1119 C1146 0.950 . S
H1120 C1149 0.950 . S
H1121 C1150 0.950 . S
H1122 C1152 0.950 . S
H1123 C1153 0.950 . S
C1124 H1106 0.951 . S
C1124 C1125 1.366 . S
C1124 C1126 1.388 . S
C1125 C1124 1.366 . S
C1125 C1129 1.385 . S
C1126 H1107 0.951 . S
C1126 C1124 1.388 . S
C1126 C1127 1.366 . S
C1127 C1126 1.366 . S
C1127 C1128 1.414 . S
C1127 C1130 1.499 . S
C1128 H1108 0.950 . S
C1128 C1127 1.414 . S
C1128 C1129 1.374 . S
C1129 H1109 0.950 . S
C1129 C1125 1.385 . S
C1129 C1128 1.374 . S
C1130 C1127 1.499 . S
C1130 C1131 1.373 . S
C1130 C1132 1.389 . S
C1131 H1110 0.950 . S
C1131 C1130 1.373 . S
C1131 C1147 1.377 . S
C1132 C1130 1.389 . S
C1132 C1133 1.524 . S
C1132 C1146 1.377 . S
C1133 C1132 1.524 . S
C1133 C1134 1.397 . S
C1133 C1138 1.363 . S
C1134 H1111 0.950 . S
C1134 C1133 1.397 . S
C1134 C1135 1.334 . S
C1135 H1112 0.950 . S
C1135 C1134 1.334 . S
C1135 C1136 1.287 . S
C1136 C1135 1.287 . S
C1136 C1137 1.524 . S
C1136 H1155 0.913 . S
C1137 H1113 0.950 . S
C1137 C1136 1.524 . S
C1137 C1138 1.415 . S
C1138 H1114 0.950 . S
C1138 C1133 1.363 . S
C1138 C1137 1.415 . S
C1139 H1115 0.951 . S
C1139 C1140 1.366 . S
C1139 C1141 1.388 . S
C1140 C1139 1.366 . S
C1140 C1144 1.385 . S
C1141 H1116 0.951 . S
C1141 C1139 1.388 . S
C1141 C1142 1.366 . S
C1142 C1141 1.366 . S
C1142 C1143 1.414 . S
C1142 C1145 1.499 . S
C1143 H1117 0.950 . S
C1143 C1142 1.414 . S
C1143 C1144 1.374 . S
C1144 H1118 0.950 . S
C1144 C1140 1.385 . S
C1144 C1143 1.374 . S
C1145 C1142 1.499 . S
C1145 C1146 1.373 . S
C1145 C1147 1.389 . S
C1146 H1119 0.950 . S
C1146 C1132 1.377 . S
C1146 C1145 1.373 . S
C1147 C1131 1.377 . S
C1147 C1145 1.389 . S
C1147 C1148 1.524 . S
C1148 C1147 1.524 . S
C1148 C1149 1.397 . S
C1148 C1153 1.363 . S
C1149 H1120 0.950 . S
C1149 C1148 1.397 . S
C1149 C1150 1.334 . S
C1150 H1121 0.950 . S
C1150 C1149 1.334 . S
C1150 C1151 1.287 . S
C1151 C1150 1.287 . S
C1151 C1152 1.524 . S
C1151 H1154 0.999 . S
C1152 H1122 0.950 . S
C1152 C1151 1.524 . S
C1152 C1153 1.415 . S
C1153 H1123 0.950 . S
C1153 C1148 1.363 . S
C1153 C1152 1.415 . S
H1154 C1151 0.999 . S
H1155 C1136 0.913 . S
H1156 C1174 0.951 . S
H1157 C1176 0.951 . S
H1158 C1178 0.950 . S
H1159 C1179 0.950 . S
H1160 C1181 0.950 . S
H1161 C1184 0.950 . S
H1162 C1185 0.950 . S
H1163 C1187 0.950 . S
H1164 C1188 0.950 . S
H1165 C1189 0.951 . S
H1166 C1191 0.951 . S
H1167 C1193 0.950 . S
H1168 C1194 0.950 . S
H1169 C1196 0.950 . S
H1170 C1199 0.950 . S
H1171 C1200 0.950 . S
H1172 C1202 0.950 . S
H1173 C1203 0.950 . S
C1174 H1156 0.951 . S
C1174 C1175 1.366 . S
C1174 C1176 1.388 . S
C1175 C1174 1.366 . S
C1175 C1179 1.385 . S
C1176 H1157 0.951 . S
C1176 C1174 1.388 . S
C1176 C1177 1.366 . S
C1177 C1176 1.366 . S
C1177 C1178 1.414 . S
C1177 C1180 1.499 . S
C1178 H1158 0.950 . S
C1178 C1177 1.414 . S
C1178 C1179 1.374 . S
C1179 H1159 0.950 . S
C1179 C1175 1.385 . S
C1179 C1178 1.374 . S
C1180 C1177 1.499 . S
C1180 C1181 1.373 . S
C1180 C1182 1.389 . S
C1181 H1160 0.950 . S
C1181 C1180 1.373 . S
C1181 C1197 1.377 . S
C1182 C1180 1.389 . S
C1182 C1183 1.524 . S
C1182 C1196 1.377 . S
C1183 C1182 1.524 . S
C1183 C1184 1.397 . S
C1183 C1188 1.363 . S
C1184 H1161 0.950 . S
C1184 C1183 1.397 . S
C1184 C1185 1.334 . S
C1185 H1162 0.950 . S
C1185 C1184 1.334 . S
C1185 C1186 1.287 . S
C1186 C1185 1.287 . S
C1186 C1187 1.524 . S
C1186 H1205 0.913 . S
C1187 H1163 0.950 . S
C1187 C1186 1.524 . S
C1187 C1188 1.415 . S
C1188 H1164 0.950 . S
C1188 C1183 1.363 . S
C1188 C1187 1.415 . S
C1189 H1165 0.951 . S
C1189 C1190 1.366 . S
C1189 C1191 1.388 . S
C1190 C1189 1.366 . S
C1190 C1194 1.385 . S
C1191 H1166 0.951 . S
C1191 C1189 1.388 . S
C1191 C1192 1.366 . S
C1192 C1191 1.366 . S
C1192 C1193 1.414 . S
C1192 C1195 1.499 . S
C1193 H1167 0.950 . S
C1193 C1192 1.414 . S
C1193 C1194 1.374 . S
C1194 H1168 0.950 . S
C1194 C1190 1.385 . S
C1194 C1193 1.374 . S
C1195 C1192 1.499 . S
C1195 C1196 1.373 . S
C1195 C1197 1.389 . S
C1196 H1169 0.950 . S
C1196 C1182 1.377 . S
C1196 C1195 1.373 . S
C1197 C1181 1.377 . S
C1197 C1195 1.389 . S
C1197 C1198 1.524 . S
C1198 C1197 1.524 . S
C1198 C1199 1.397 . S
C1198 C1203 1.363 . S
C1199 H1170 0.950 . S
C1199 C1198 1.397 . S
C1199 C1200 1.334 . S
C1200 H1171 0.950 . S
C1200 C1199 1.334 . S
C1200 C1201 1.287 . S
C1201 C1200 1.287 . S
C1201 C1202 1.524 . S
C1201 H1204 0.999 . S
C1202 H1172 0.950 . S
C1202 C1201 1.524 . S
C1202 C1203 1.415 . S
C1203 H1173 0.950 . S
C1203 C1198 1.363 . S
C1203 C1202 1.415 . S
H1204 C1201 0.999 . S
H1205 C1186 0.913 . S
H1206 C1224 0.951 . S
H1207 C1226 0.951 . S
H1208 C1228 0.950 . S
H1209 C1229 0.950 . S
H1210 C1231 0.950 . S
H1211 C1234 0.950 . S
H1212 C1235 0.950 . S
H1213 C1237 0.950 . S
H1214 C1238 0.950 . S
H1215 C1239 0.951 . S
H1216 C1241 0.951 . S
H1217 C1243 0.950 . S
H1218 C1244 0.950 . S
H1219 C1246 0.950 . S
H1220 C1249 0.950 . S
H1221 C1250 0.950 . S
H1222 C1252 0.950 . S
H1223 C1253 0.950 . S
C1224 H1206 0.951 . S
C1224 C1225 1.366 . S
C1224 C1226 1.388 . S
C1225 C1224 1.366 . S
C1225 C1229 1.385 . S
C1226 H1207 0.951 . S
C1226 C1224 1.388 . S
C1226 C1227 1.366 . S
C1227 C1226 1.366 . S
C1227 C1228 1.414 . S
C1227 C1230 1.499 . S
C1228 H1208 0.950 . S
C1228 C1227 1.414 . S
C1228 C1229 1.374 . S
C1229 H1209 0.950 . S
C1229 C1225 1.385 . S
C1229 C1228 1.374 . S
C1230 C1227 1.499 . S
C1230 C1231 1.373 . S
C1230 C1232 1.389 . S
C1231 H1210 0.950 . S
C1231 C1230 1.373 . S
C1231 C1247 1.377 . S
C1232 C1230 1.389 . S
C1232 C1233 1.524 . S
C1232 C1246 1.377 . S
C1233 C1232 1.524 . S
C1233 C1234 1.397 . S
C1233 C1238 1.363 . S
C1234 H1211 0.950 . S
C1234 C1233 1.397 . S
C1234 C1235 1.334 . S
C1235 H1212 0.950 . S
C1235 C1234 1.334 . S
C1235 C1236 1.287 . S
C1236 C1235 1.287 . S
C1236 C1237 1.524 . S
C1236 H1255 0.913 . S
C1237 H1213 0.950 . S
C1237 C1236 1.524 . S
C1237 C1238 1.415 . S
C1238 H1214 0.950 . S
C1238 C1233 1.363 . S
C1238 C1237 1.415 . S
C1239 H1215 0.951 . S
C1239 C1240 1.366 . S
C1239 C1241 1.388 . S
C1240 C1239 1.366 . S
C1240 C1244 1.385 . S
C1241 H1216 0.951 . S
C1241 C1239 1.388 . S
C1241 C1242 1.366 . S
C1242 C1241 1.366 . S
C1242 C1243 1.414 . S
C1242 C1245 1.499 . S
C1243 H1217 0.950 . S
C1243 C1242 1.414 . S
C1243 C1244 1.374 . S
C1244 H1218 0.950 . S
C1244 C1240 1.385 . S
C1244 C1243 1.374 . S
C1245 C1242 1.499 . S
C1245 C1246 1.373 . S
C1245 C1247 1.389 . S
C1246 H1219 0.950 . S
C1246 C1232 1.377 . S
C1246 C1245 1.373 . S
C1247 C1231 1.377 . S
C1247 C1245 1.389 . S
C1247 C1248 1.524 . S
C1248 C1247 1.524 . S
C1248 C1249 1.397 . S
C1248 C1253 1.363 . S
C1249 H1220 0.950 . S
C1249 C1248 1.397 . S
C1249 C1250 1.334 . S
C1250 H1221 0.950 . S
C1250 C1249 1.334 . S
C1250 C1251 1.287 . S
C1251 C1250 1.287 . S
C1251 C1252 1.524 . S
C1251 H1254 0.999 . S
C1252 H1222 0.950 . S
C1252 C1251 1.524 . S
C1252 C1253 1.415 . S
C1253 H1223 0.950 . S
C1253 C1248 1.363 . S
C1253 C1252 1.415 . S
H1254 C1251 0.999 . S
H1255 C1236 0.913 . S
H1256 C1274 0.951 . S
H1257 C1276 0.951 . S
H1258 C1278 0.950 . S
H1259 C1279 0.950 . S
H1260 C1281 0.950 . S
H1261 C1284 0.950 . S
H1262 C1285 0.950 . S
H1263 C1287 0.950 . S
H1264 C1288 0.950 . S
H1265 C1289 0.951 . S
H1266 C1291 0.951 . S
H1267 C1293 0.950 . S
H1268 C1294 0.950 . S
H1269 C1296 0.950 . S
H1270 C1299 0.950 . S
H1271 C1300 0.950 . S
H1272 C1302 0.950 . S
H1273 C1303 0.950 . S
C1274 H1256 0.951 . S
C1274 C1275 1.366 . S
C1274 C1276 1.388 . S
C1275 C1274 1.366 . S
C1275 C1279 1.385 . S
C1276 H1257 0.951 . S
C1276 C1274 1.388 . S
C1276 C1277 1.366 . S
C1277 C1276 1.366 . S
C1277 C1278 1.414 . S
C1277 C1280 1.499 . S
C1278 H1258 0.950 . S
C1278 C1277 1.414 . S
C1278 C1279 1.374 . S
C1279 H1259 0.950 . S
C1279 C1275 1.385 . S
C1279 C1278 1.374 . S
C1280 C1277 1.499 . S
C1280 C1281 1.373 . S
C1280 C1282 1.389 . S
C1281 H1260 0.950 . S
C1281 C1280 1.373 . S
C1281 C1297 1.377 . S
C1282 C1280 1.389 . S
C1282 C1283 1.524 . S
C1282 C1296 1.377 . S
C1283 C1282 1.524 . S
C1283 C1284 1.397 . S
C1283 C1288 1.363 . S
C1284 H1261 0.950 . S
C1284 C1283 1.397 . S
C1284 C1285 1.334 . S
C1285 H1262 0.950 . S
C1285 C1284 1.334 . S
C1285 C1286 1.287 . S
C1286 C1285 1.287 . S
C1286 C1287 1.524 . S
C1286 H1305 0.913 . S
C1287 H1263 0.950 . S
C1287 C1286 1.524 . S
C1287 C1288 1.415 . S
C1288 H1264 0.950 . S
C1288 C1283 1.363 . S
C1288 C1287 1.415 . S
C1289 H1265 0.951 . S
C1289 C1290 1.366 . S
C1289 C1291 1.388 . S
C1290 C1289 1.366 . S
C1290 C1294 1.385 . S
C1291 H1266 0.951 . S
C1291 C1289 1.388 . S
C1291 C1292 1.366 . S
C1292 C1291 1.366 . S
C1292 C1293 1.414 . S
C1292 C1295 1.499 . S
C1293 H1267 0.950 . S
C1293 C1292 1.414 . S
C1293 C1294 1.374 . S
C1294 H1268 0.950 . S
C1294 C1290 1.385 . S
C1294 C1293 1.374 . S
C1295 C1292 1.499 . S
C1295 C1296 1.373 . S
C1295 C1297 1.389 . S
C1296 H1269 0.950 . S
C1296 C1282 1.377 . S
C1296 C1295 1.373 . S
C1297 C1281 1.377 . S
C1297 C1295 1.389 . S
C1297 C1298 1.524 . S
C1298 C1297 1.524 . S
C1298 C1299 1.397 . S
C1298 C1303 1.363 . S
C1299 H1270 0.950 . S
C1299 C1298 1.397 . S
C1299 C1300 1.334 . S
C1300 H1271 0.950 . S
C1300 C1299 1.334 . S
C1300 C1301 1.287 . S
C1301 C1300 1.287 . S
C1301 C1302 1.524 . S
C1301 H1304 0.999 . S
C1302 H1272 0.950 . S
C1302 C1301 1.524 . S
C1302 C1303 1.415 . S
C1303 H1273 0.950 . S
C1303 C1298 1.363 . S
C1303 C1302 1.415 . S
H1304 C1301 0.999 . S
H1305 C1286 0.913 . S
H1306 C1324 0.951 . S
H1307 C1326 0.951 . S
H1308 C1328 0.950 . S
H1309 C1329 0.950 . S
H1310 C1331 0.950 . S
H1311 C1334 0.950 . S
H1312 C1335 0.950 . S
H1313 C1337 0.950 . S
H1314 C1338 0.950 . S
H1315 C1339 0.951 . S
H1316 C1341 0.951 . S
H1317 C1343 0.950 . S
H1318 C1344 0.950 . S
H1319 C1346 0.950 . S
H1320 C1349 0.950 . S
H1321 C1350 0.950 . S
H1322 C1352 0.950 . S
H1323 C1353 0.950 . S
C1324 H1306 0.951 . S
C1324 C1325 1.366 . S
C1324 C1326 1.388 . S
C1325 C1324 1.366 . S
C1325 C1329 1.385 . S
C1326 H1307 0.951 . S
C1326 C1324 1.388 . S
C1326 C1327 1.366 . S
C1327 C1326 1.366 . S
C1327 C1328 1.414 . S
C1327 C1330 1.499 . S
C1328 H1308 0.950 . S
C1328 C1327 1.414 . S
C1328 C1329 1.374 . S
C1329 H1309 0.950 . S
C1329 C1325 1.385 . S
C1329 C1328 1.374 . S
C1330 C1327 1.499 . S
C1330 C1331 1.373 . S
C1330 C1332 1.389 . S
C1331 H1310 0.950 . S
C1331 C1330 1.373 . S
C1331 C1347 1.377 . S
C1332 C1330 1.389 . S
C1332 C1333 1.524 . S
C1332 C1346 1.377 . S
C1333 C1332 1.524 . S
C1333 C1334 1.397 . S
C1333 C1338 1.363 . S
C1334 H1311 0.950 . S
C1334 C1333 1.397 . S
C1334 C1335 1.334 . S
C1335 H1312 0.950 . S
C1335 C1334 1.334 . S
C1335 C1336 1.287 . S
C1336 C1335 1.287 . S
C1336 C1337 1.524 . S
C1336 H1355 0.913 . S
C1337 H1313 0.950 . S
C1337 C1336 1.524 . S
C1337 C1338 1.415 . S
C1338 H1314 0.950 . S
C1338 C1333 1.363 . S
C1338 C1337 1.415 . S
C1339 H1315 0.951 . S
C1339 C1340 1.366 . S
C1339 C1341 1.388 . S
C1340 C1339 1.366 . S
C1340 C1344 1.385 . S
C1341 H1316 0.951 . S
C1341 C1339 1.388 . S
C1341 C1342 1.366 . S
C1342 C1341 1.366 . S
C1342 C1343 1.414 . S
C1342 C1345 1.499 . S
C1343 H1317 0.950 . S
C1343 C1342 1.414 . S
C1343 C1344 1.374 . S
C1344 H1318 0.950 . S
C1344 C1340 1.385 . S
C1344 C1343 1.374 . S
C1345 C1342 1.499 . S
C1345 C1346 1.373 . S
C1345 C1347 1.389 . S
C1346 H1319 0.950 . S
C1346 C1332 1.377 . S
C1346 C1345 1.373 . S
C1347 C1331 1.377 . S
C1347 C1345 1.389 . S
C1347 C1348 1.524 . S
C1348 C1347 1.524 . S
C1348 C1349 1.397 . S
C1348 C1353 1.363 . S
C1349 H1320 0.950 . S
C1349 C1348 1.397 . S
C1349 C1350 1.334 . S
C1350 H1321 0.950 . S
C1350 C1349 1.334 . S
C1350 C1351 1.287 . S
C1351 C1350 1.287 . S
C1351 C1352 1.524 . S
C1351 H1354 0.999 . S
C1352 H1322 0.950 . S
C1352 C1351 1.524 . S
C1352 C1353 1.415 . S
C1353 H1323 0.950 . S
C1353 C1348 1.363 . S
C1353 C1352 1.415 . S
H1354 C1351 0.999 . S
H1355 C1336 0.913 . S
C175 C4 1.311 . S
C190 C153 1.311 . S
C225 C82 1.311 . S
C240 C17 1.310 . S
C275 C30 1.311 . S
C290 C95 1.311 . S
C325 C108 1.311 . S
C340 C43 1.310 . S
C375 C121 1.310 . S
C390 C62 1.311 . S
C425 C134 1.311 . S
C440 C75 1.311 . S
C475 C44 1.282 . S
C490 C109 1.282 . S
C525 C55 1.282 . S
C540 C122 1.282 . S
C575 C68 1.281 . S
C590 C135 1.282 . S
C625 C146 1.282 . S
C640 C5 1.282 . S
C675 C18 1.282 . S
C690 C83 1.282 . S
C725 C31 1.282 . S
C740 C96 1.282 . S
C775 C107 1.779 . S
C790 C3 1.779 . S
C825 C120 1.779 . S
C840 C16 1.778 . S
C875 C29 1.778 . S
C890 C133 1.778 . S
C925 C42 1.778 . S
C940 C148 1.778 . S
C975 C57 1.779 . S
C990 C81 1.779 . S
C1025 C94 1.779 . S
C1040 C70 1.779 . S
C1075 C10 1.754 . S
C1090 C140 1.754 . S
C1125 C147 1.754 . S
C1140 C23 1.754 . S
C1175 C36 1.754 . S
C1190 C88 1.754 . S
C1225 C49 1.754 . S
C1240 C101 1.754 . S
C1275 C56 1.754 . S
C1290 C114 1.754 . S
C1325 C69 1.754 . S
C1340 C127 1.754 . S
