# Generated by pormake.
# Topology zfg, (5)-cn, num edge types: 1
# Building blocks:
#     Node 0, Type 0, BuildingBlock: XOMCOT_clean_sbu_0, # of connection points: 5
#     Node 1, Type 0, BuildingBlock: XOMCOT_clean_sbu_0, # of connection points: 5
#     Node 2, Type 0, BuildingBlock: XOMCOT_clean_sbu_0, # of connection points: 5
#     Node 3, Type 0, BuildingBlock: XOMCOT_clean_sbu_0, # of connection points: 5
#     Node 4, Type 0, BuildingBlock: XOMCOT_clean_sbu_0, # of connection points: 5
#     Node 5, Type 0, BuildingBlock: XOMCOT_clean_sbu_0, # of connection points: 5
#     Node 6, Type 0, BuildingBlock: XOMCOT_clean_sbu_0, # of connection points: 5
#     Node 7, Type 0, BuildingBlock: XOMCOT_clean_sbu_0, # of connection points: 5
#     Node 8, Type 0, BuildingBlock: XOMCOT_clean_sbu_0, # of connection points: 5
#     Node 9, Type 0, BuildingBlock: XOMCOT_clean_sbu_0, # of connection points: 5
#     Node 10, Type 0, BuildingBlock: XOMCOT_clean_sbu_0, # of connection points: 5
#     Node 11, Type 0, BuildingBlock: XOMCOT_clean_sbu_0, # of connection points: 5
#     Node 12, Type 0, BuildingBlock: XOMCOT_clean_sbu_0, # of connection points: 5
#     Node 13, Type 0, BuildingBlock: XOMCOT_clean_sbu_0, # of connection points: 5
#     Node 14, Type 0, BuildingBlock: XOMCOT_clean_sbu_0, # of connection points: 5
#     Node 15, Type 0, BuildingBlock: XOMCOT_clean_sbu_0, # of connection points: 5
#     Edge 16, Type (0, 0), None
#     Edge 17, Type (0, 0), None
#     Edge 18, Type (0, 0), None
#     Edge 19, Type (0, 0), None
#     Edge 20, Type (0, 0), None
#     Edge 21, Type (0, 0), None
#     Edge 22, Type (0, 0), None
#     Edge 23, Type (0, 0), None
#     Edge 24, Type (0, 0), None
#     Edge 25, Type (0, 0), None
#     Edge 26, Type (0, 0), None
#     Edge 27, Type (0, 0), None
#     Edge 28, Type (0, 0), None
#     Edge 29, Type (0, 0), None
#     Edge 30, Type (0, 0), None
#     Edge 31, Type (0, 0), None
#     Edge 32, Type (0, 0), None
#     Edge 33, Type (0, 0), None
#     Edge 34, Type (0, 0), None
#     Edge 35, Type (0, 0), None
#     Edge 36, Type (0, 0), None
#     Edge 37, Type (0, 0), None
#     Edge 38, Type (0, 0), None
#     Edge 39, Type (0, 0), None
#     Edge 40, Type (0, 0), None
#     Edge 41, Type (0, 0), None
#     Edge 42, Type (0, 0), None
#     Edge 43, Type (0, 0), None
#     Edge 44, Type (0, 0), None
#     Edge 45, Type (0, 0), None
#     Edge 46, Type (0, 0), None
#     Edge 47, Type (0, 0), None
#     Edge 48, Type (0, 0), None
#     Edge 49, Type (0, 0), None
#     Edge 50, Type (0, 0), None
#     Edge 51, Type (0, 0), None
#     Edge 52, Type (0, 0), None
#     Edge 53, Type (0, 0), None
#     Edge 54, Type (0, 0), None
#     Edge 55, Type (0, 0), None
# Relax obj value: 0.127
# Max RMSD: 0.158
# Mean RMSD: 0.158
data_MOF--net-zfg--node1-XOMCOT_clean_sbu_0--edge1-none
_symmetry_space_group_name_H-M    P1
_symmetry_Int_Tables_number       1
_symmetry_cell_setting            triclinic
loop_
_symmetry_equiv_pos_as_xyz
'x, y, z'
_cell_length_a     21.829754
_cell_length_b     21.828854
_cell_length_c     23.32321
_cell_angle_alpha  89.999504
_cell_angle_beta   90.00054
_cell_angle_gamma 89.999632
loop_
_atom_site_label
_atom_site_type_symbol
_atom_site_fract_x
_atom_site_fract_y
_atom_site_fract_z
_atom_type_partial_charge
Co0 Co 0.11542 0.33948 0.1604 0.0
C1 C 0.17292 0.21789 0.19103 0.0
C2 C 0.23069 0.29509 0.20742 0.0
C3 C 0.26249 0.24267 0.22128 0.0
N4 N 0.1745 0.27975 0.1882 0.0
N5 N 0.22604 0.19408 0.21125 0.0
H6 H 0.13485 0.19022 0.17753 0.0
H7 H 0.24817 0.34141 0.20937 0.0
C8 C 0.10547 0.43196 0.25832 0.0
O9 O 0.05459 0.45511 0.2377 0.0
N10 N 0.06026 0.40265 0.13226 0.0
C11 C 0.99941 0.40127 0.12218 0.0
C12 C 0.98024 0.45989 0.10829 0.0
C13 C 0.07765 0.46106 0.12167 0.0
N14 N 0.02965 0.49709 0.10821 0.0
C15 C 1.02718 0.24341 0.16515 0.0
C16 C 0.9502 0.29193 0.24656 0.0
C17 C 0.92856 0.24435 0.21136 0.0
C18 C 0.96933 0.21822 0.17251 0.0
C19 C 1.0097 0.31531 0.23853 0.0
N20 N 0.04644 0.29381 0.19535 0.0
H21 H 0.0543 0.22365 0.13147 0.0
H22 H 1.02376 0.35208 0.26568 0.0
H23 H 0.97045 0.36142 0.12673 0.0
H24 H 0.12363 0.4778 0.12898 0.0
O25 O 0.10999 0.29909 0.08949 0.0
O26 O 0.17712 0.37198 0.10373 0.0
O27 O 0.1335 0.38821 0.23281 0.0
C28 C 0.15165 0.33339 0.06801 0.0
H29 H 0.31002 0.24035 0.23425 0.0
H30 H 0.93347 0.47434 0.10106 0.0
H31 H 0.9208 0.31228 0.27873 0.0
H32 H 0.95545 0.18133 0.14441 0.0
Co33 Co 0.71949 0.11543 0.16043 0.0
C34 C 0.8411 0.17299 0.19088 0.0
C35 C 0.76389 0.23065 0.20759 0.0
C36 C 0.81632 0.26247 0.22138 0.0
N37 N 0.77923 0.17451 0.18823 0.0
N38 N 0.86492 0.2261 0.2111 0.0
H39 H 0.86876 0.13497 0.17725 0.0
H40 H 0.71756 0.24807 0.2097 0.0
C41 C 0.62702 0.10549 0.25836 0.0
O42 O 0.60386 0.05462 0.23774 0.0
N43 N 0.65632 0.06028 0.1323 0.0
C44 C 0.6577 0.99943 0.12221 0.0
C45 C 0.59909 0.98026 0.10831 0.0
C46 C 0.59793 0.07767 0.12169 0.0
N47 N 0.56189 0.02967 0.10823 0.0
C48 C 0.81556 1.02718 0.1652 0.0
C49 C 0.76704 0.95021 0.24661 0.0
C50 C 0.81463 0.92857 0.21142 0.0
C51 C 0.84076 0.96934 0.17257 0.0
C52 C 0.74366 1.00971 0.23857 0.0
N53 N 0.76517 0.04645 0.19539 0.0
H54 H 0.83532 0.05429 0.1315 0.0
H55 H 0.70689 1.02377 0.26571 0.0
H56 H 0.69755 0.97046 0.12676 0.0
H57 H 0.58119 0.12365 0.129 0.0
O58 O 0.75988 0.10999 0.08952 0.0
O59 O 0.68701 0.17713 0.10376 0.0
O60 O 0.67078 0.13352 0.23284 0.0
C61 C 0.7256 0.15166 0.06804 0.0
H62 H 0.81863 0.30997 0.23446 0.0
H63 H 0.58464 0.93349 0.10106 0.0
H64 H 0.74669 0.92081 0.27877 0.0
H65 H 0.87765 0.95546 0.14447 0.0
Co66 Co 0.94356 0.71952 0.16048 0.0
C67 C 0.886 0.84112 0.19095 0.0
C68 C 0.82833 0.7639 0.2076 0.0
C69 C 0.7965 0.81633 0.22139 0.0
N70 N 0.88447 0.77925 0.18827 0.0
N71 N 0.83288 0.86493 0.21116 0.0
H72 H 0.92403 0.86878 0.17736 0.0
H73 H 0.8109 0.71757 0.20968 0.0
C74 C 0.95352 0.62706 0.25842 0.0
O75 O 1.00441 0.60392 0.23781 0.0
N76 N 0.99872 0.65635 0.13235 0.0
C77 C 0.05957 0.65776 0.12222 0.0
C78 C 0.07876 0.59915 0.10833 0.0
C79 C 0.98135 0.59794 0.12179 0.0
N80 N 1.02937 0.56192 0.10837 0.0
C81 C 0.03179 0.81561 0.16522 0.0
C82 C 0.10879 0.7671 0.24662 0.0
C83 C 0.13041 0.81468 0.21142 0.0
C84 C 0.08964 0.8408 0.17257 0.0
C85 C 0.04929 0.74372 0.2386 0.0
N86 N 1.01253 0.76521 0.19542 0.0
H87 H 1.00468 0.83536 0.13153 0.0
H88 H 0.03523 0.70695 0.26575 0.0
H89 H 0.0885 0.69764 0.1267 0.0
H90 H 0.93537 0.58119 0.12908 0.0
O91 O 0.94899 0.7599 0.08956 0.0
O92 O 0.88186 0.68702 0.10381 0.0
O93 O 0.92548 0.6708 0.23289 0.0
C94 C 0.90732 0.72561 0.06809 0.0
H95 H 0.749 0.81863 0.23445 0.0
H96 H 0.12552 0.58473 0.10099 0.0
H97 H 0.13819 0.74675 0.27878 0.0
H98 H 0.10351 0.87769 0.14446 0.0
Co99 Co 0.33947 0.9436 0.16044 0.0
C100 C 0.21787 0.88604 0.19091 0.0
C101 C 0.29508 0.82837 0.20759 0.0
C102 C 0.24265 0.79655 0.22138 0.0
N103 N 0.27973 0.88451 0.18824 0.0
N104 N 0.19406 0.83292 0.21113 0.0
H105 H 0.19021 0.92407 0.17731 0.0
H106 H 0.34141 0.81094 0.20968 0.0
C107 C 0.43193 0.95354 0.25838 0.0
O108 O 0.45506 1.00444 0.23777 0.0
N109 N 0.40263 0.99876 0.13232 0.0
C110 C 0.40123 0.05961 0.1222 0.0
C111 C 0.45985 0.0788 0.10833 0.0
C112 C 0.46104 0.98138 0.12176 0.0
N113 N 0.49707 1.02941 0.10836 0.0
C114 C 0.24339 0.03185 0.1652 0.0
C115 C 0.29189 0.10879 0.24665 0.0
C116 C 0.24431 0.13044 0.21146 0.0
C117 C 0.21819 0.08969 0.17258 0.0
C118 C 0.31527 0.0493 0.23859 0.0
N119 N 0.29378 1.01257 0.1954 0.0
H120 H 0.22365 1.00475 0.13149 0.0
H121 H 0.35203 0.03522 0.26575 0.0
H122 H 0.36136 0.08855 0.12669 0.0
H123 H 0.47778 0.9354 0.12903 0.0
O124 O 0.29908 0.94903 0.08953 0.0
O125 O 0.37196 0.8819 0.10378 0.0
O126 O 0.38819 0.92551 0.23285 0.0
C127 C 0.33337 0.90736 0.06805 0.0
H128 H 0.24035 0.74905 0.23446 0.0
H129 H 0.47427 0.12556 0.10101 0.0
H130 H 0.31222 0.13819 0.27883 0.0
H131 H 0.1813 0.10359 0.14449 0.0
Co132 Co 0.6154 0.21953 0.41228 0.0
C133 C 0.67292 0.34112 0.38166 0.0
C134 C 0.73068 0.26392 0.36526 0.0
C135 C 0.76248 0.31634 0.35141 0.0
N136 N 0.67449 0.27926 0.38448 0.0
N137 N 0.72604 0.36493 0.36145 0.0
H138 H 0.63485 0.36879 0.39517 0.0
H139 H 0.74815 0.21759 0.36331 0.0
C140 C 0.60547 0.12705 0.31435 0.0
O141 O 0.55459 0.1039 0.33497 0.0
N142 N 0.56025 0.15635 0.44041 0.0
C143 C 0.4994 0.15773 0.4505 0.0
C144 C 0.48024 0.09911 0.4644 0.0
C145 C 0.57765 0.09795 0.45101 0.0
N146 N 0.52965 0.06191 0.46448 0.0
C147 C 0.52717 0.31561 0.40751 0.0
C148 C 0.45019 0.26708 0.32611 0.0
C149 C 0.42856 0.31467 0.3613 0.0
C150 C 0.46933 0.3408 0.40015 0.0
C151 C 0.50968 0.2437 0.33415 0.0
N152 N 0.54643 0.2652 0.37732 0.0
H153 H 0.55429 0.33537 0.4412 0.0
H154 H 0.52374 0.20692 0.307 0.0
H155 H 0.47044 0.19758 0.44595 0.0
H156 H 0.62363 0.08122 0.4437 0.0
O157 O 0.60996 0.25992 0.48318 0.0
O158 O 0.6771 0.18704 0.46895 0.0
O159 O 0.63349 0.17081 0.33986 0.0
C160 C 0.65163 0.22563 0.50467 0.0
H161 H 0.81002 0.31865 0.33845 0.0
H162 H 0.43348 0.08467 0.47164 0.0
H163 H 0.42078 0.24673 0.29395 0.0
H164 H 0.45545 0.3777 0.42825 0.0
Co165 Co 0.83946 0.61541 0.41231 0.0
C166 C 0.71786 0.67292 0.3817 0.0
C167 C 0.79506 0.73067 0.36527 0.0
C168 C 0.74264 0.76248 0.35142 0.0
N169 N 0.77972 0.67449 0.38451 0.0
N170 N 0.69405 0.72603 0.36147 0.0
H171 H 0.6902 0.63485 0.39522 0.0
H172 H 0.84138 0.74815 0.36331 0.0
C173 C 0.93194 0.60549 0.31439 0.0
O174 O 0.95509 0.5546 0.33501 0.0
N175 N 0.90263 0.56026 0.44045 0.0
C176 C 0.90126 0.4994 0.45052 0.0
C177 C 0.95988 0.48025 0.4644 0.0
C178 C 0.96103 0.57766 0.45105 0.0
N179 N 0.99707 0.52966 0.46449 0.0
C180 C 0.7434 0.52715 0.40753 0.0
C181 C 0.7919 0.45022 0.32608 0.0
C182 C 0.74432 0.42857 0.36126 0.0
C183 C 0.71819 0.46931 0.40014 0.0
C184 C 0.81529 0.50971 0.33415 0.0
N185 N 0.79379 0.54643 0.37734 0.0
H186 H 0.72364 0.55426 0.44123 0.0
H187 H 0.85207 0.52378 0.30701 0.0
H188 H 0.86142 0.47043 0.44596 0.0
H189 H 0.97776 0.62364 0.44374 0.0
O190 O 0.79906 0.60997 0.48322 0.0
O191 O 0.87194 0.67711 0.46898 0.0
O192 O 0.88818 0.63351 0.3399 0.0
C193 C 0.83335 0.65164 0.5047 0.0
H194 H 0.74032 0.81 0.33844 0.0
H195 H 0.97434 0.43348 0.47163 0.0
H196 H 0.81225 0.42083 0.2939 0.0
H197 H 0.68129 0.45542 0.42822 0.0
Co198 Co 0.44358 0.83948 0.41227 0.0
C199 C 0.38607 0.71789 0.38163 0.0
C200 C 0.3283 0.7951 0.36527 0.0
C201 C 0.29649 0.74268 0.3514 0.0
N202 N 0.38449 0.77975 0.38447 0.0
N203 N 0.33295 0.69408 0.36141 0.0
H204 H 0.42414 0.69022 0.39511 0.0
H205 H 0.31082 0.84142 0.36333 0.0
C206 C 0.45352 0.93195 0.31433 0.0
O207 O 0.50442 0.95507 0.33493 0.0
N208 N 0.49874 0.90265 0.44039 0.0
C209 C 0.55959 0.90125 0.45051 0.0
C210 C 0.57877 0.95986 0.46438 0.0
C211 C 0.48136 0.96106 0.45095 0.0
N212 N 0.52939 0.99709 0.46435 0.0
C213 C 0.53182 0.74339 0.40751 0.0
C214 C 0.60877 0.79189 0.32607 0.0
C215 C 0.63041 0.74431 0.36126 0.0
C216 C 0.58966 0.71819 0.40013 0.0
C217 C 0.54928 0.81528 0.33412 0.0
N218 N 0.51255 0.79379 0.37731 0.0
H219 H 0.5047 0.72364 0.4412 0.0
H220 H 0.53521 0.85205 0.30697 0.0
H221 H 0.58853 0.86137 0.44602 0.0
H222 H 0.43538 0.9778 0.44367 0.0
O223 O 0.44901 0.79909 0.48318 0.0
O224 O 0.38188 0.87198 0.46893 0.0
O225 O 0.42549 0.8882 0.33986 0.0
C226 C 0.40734 0.83338 0.50465 0.0
H227 H 0.24896 0.74037 0.33845 0.0
H228 H 0.62554 0.97429 0.4717 0.0
H229 H 0.63817 0.81222 0.29389 0.0
H230 H 0.60354 0.68129 0.42823 0.0
Co231 Co 0.2195 0.44361 0.41223 0.0
C232 C 0.3411 0.38604 0.38178 0.0
C233 C 0.26389 0.32838 0.36509 0.0
C234 C 0.31632 0.29655 0.35131 0.0
N235 N 0.27924 0.38452 0.38444 0.0
N236 N 0.36492 0.33292 0.36157 0.0
H237 H 0.36877 0.42407 0.39539 0.0
H238 H 0.21756 0.31096 0.363 0.0
C239 C 0.12704 0.45354 0.31429 0.0
O240 O 0.1039 0.50443 0.3349 0.0
N241 N 0.15633 0.49877 0.44035 0.0
C242 C 0.15773 0.55962 0.45048 0.0
C243 C 0.09911 0.5788 0.46437 0.0
C244 C 0.09792 0.48139 0.45092 0.0
N245 N 0.0619 0.5294 0.46433 0.0
C246 C 0.31558 0.53186 0.40747 0.0
C247 C 0.26708 0.60881 0.32602 0.0
C248 C 0.31467 0.63045 0.3612 0.0
C249 C 0.34079 0.58969 0.40008 0.0
C250 C 0.24369 0.54932 0.33408 0.0
N251 N 0.26518 0.51258 0.37727 0.0
H252 H 0.33533 0.50476 0.44117 0.0
H253 H 0.20691 0.53525 0.30694 0.0
H254 H 0.1976 0.58856 0.44599 0.0
H255 H 0.08119 0.4354 0.44364 0.0
O256 O 0.25989 0.44906 0.48314 0.0
O257 O 0.18702 0.38191 0.4689 0.0
O258 O 0.17079 0.42552 0.33982 0.0
C259 C 0.22561 0.40738 0.50462 0.0
H260 H 0.31862 0.24906 0.33824 0.0
H261 H 0.08469 0.62556 0.4717 0.0
H262 H 0.24674 0.63821 0.29385 0.0
H263 H 0.37769 0.60358 0.42817 0.0
Co264 Co 0.94356 0.71952 0.91231 0.0
C265 C 0.88605 0.84112 0.88168 0.0
C266 C 0.82829 0.76392 0.8653 0.0
C267 C 0.79648 0.81634 0.85143 0.0
N268 N 0.88447 0.77926 0.88452 0.0
N269 N 0.83294 0.86493 0.86146 0.0
H270 H 0.92412 0.86879 0.89518 0.0
H271 H 0.81081 0.71759 0.86336 0.0
C272 C 0.95349 0.62706 0.81438 0.0
O273 O 1.00437 0.60391 0.83501 0.0
N274 N 0.99871 0.65635 0.94044 0.0
C275 C 0.05956 0.65773 0.95053 0.0
C276 C 0.07873 0.59912 0.96442 0.0
C277 C 0.98133 0.59795 0.95104 0.0
N278 N 1.02932 0.56192 0.9645 0.0
C279 C 0.03179 0.8156 0.90755 0.0
C280 C 0.10878 0.76708 0.82615 0.0
C281 C 0.13041 0.81466 0.86134 0.0
C282 C 0.08964 0.84079 0.9002 0.0
C283 C 0.04928 0.7437 0.83418 0.0
N284 N 1.01253 0.7652 0.87736 0.0
H285 H 1.00467 0.83537 0.94124 0.0
H286 H 0.03522 0.70692 0.80704 0.0
H287 H 0.08853 0.69758 0.94597 0.0
H288 H 0.93534 0.58122 0.94373 0.0
O289 O 0.94901 0.75991 0.98323 0.0
O290 O 0.88185 0.68703 0.96898 0.0
O291 O 0.92547 0.67081 0.8399 0.0
C292 C 0.90736 0.72559 1.0047 0.0
H293 H 0.74896 0.81865 0.83846 0.0
H294 H 0.1255 0.58467 0.97165 0.0
H295 H 0.13818 0.74673 0.79399 0.0
H296 H 0.10351 0.87769 0.9283 0.0
Co297 Co 0.33948 0.94359 0.91228 0.0
C298 C 0.21787 0.88602 0.88184 0.0
C299 C 0.29507 0.82837 0.86513 0.0
C300 C 0.24265 0.79654 0.85134 0.0
N301 N 0.27973 0.8845 0.88449 0.0
N302 N 0.19405 0.83291 0.86161 0.0
H303 H 0.19021 0.92405 0.89546 0.0
H304 H 0.34141 0.81094 0.86302 0.0
C305 C 0.43194 0.95351 0.81434 0.0
O306 O 0.4551 1.00438 0.83497 0.0
N307 N 0.40265 0.99874 0.9404 0.0
C308 C 0.40127 0.05959 0.9505 0.0
C309 C 0.45988 0.07875 0.9644 0.0
C310 C 0.46104 0.98134 0.95101 0.0
N311 N 0.49708 1.02934 0.96449 0.0
C312 C 0.2434 0.03183 0.90751 0.0
C313 C 0.29193 0.10881 0.8261 0.0
C314 C 0.24434 0.13044 0.86128 0.0
C315 C 0.2182 0.08967 0.90014 0.0
C316 C 0.31531 0.04931 0.83414 0.0
N317 N 0.2938 1.01256 0.87732 0.0
H318 H 0.22365 1.00472 0.94121 0.0
H319 H 0.35209 0.03525 0.807 0.0
H320 H 0.36142 0.08856 0.94595 0.0
H321 H 0.47778 0.93536 0.94371 0.0
O322 O 0.29909 0.94905 0.98319 0.0
O323 O 0.37196 0.88188 0.96895 0.0
O324 O 0.38819 0.92549 0.83986 0.0
C325 C 0.3334 0.90739 1.00467 0.0
H326 H 0.24034 0.74905 0.83825 0.0
H327 H 0.47433 0.12552 0.97165 0.0
H328 H 0.31228 0.13821 0.79394 0.0
H329 H 0.18131 0.10355 0.92823 0.0
Co330 Co 0.1154 0.33949 0.91224 0.0
C331 C 0.17297 0.21789 0.88176 0.0
C332 C 0.23063 0.29511 0.86512 0.0
C333 C 0.26247 0.24269 0.85133 0.0
N334 N 0.17449 0.27976 0.88445 0.0
N335 N 0.22609 0.19408 0.86156 0.0
H336 H 0.13493 0.19022 0.89534 0.0
H337 H 0.24806 0.34144 0.86305 0.0
C338 C 0.10545 0.43194 0.81428 0.0
O339 O 0.05457 0.45509 0.8349 0.0
N340 N 0.06024 0.40266 0.94035 0.0
C341 C 0.99939 0.40125 0.95049 0.0
C342 C 0.98021 0.45987 0.96438 0.0
C343 C 0.07761 0.46107 0.95092 0.0
N344 N 0.02959 0.49709 0.96434 0.0
C345 C 1.02718 0.2434 0.90748 0.0
C346 C 0.95018 0.29191 0.82609 0.0
C347 C 0.92855 0.24433 0.86129 0.0
C348 C 0.96933 0.2182 0.90013 0.0
C349 C 1.00967 0.3153 0.83411 0.0
N350 N 0.04643 0.2938 0.87728 0.0
H351 H 0.05429 0.22365 0.94118 0.0
H352 H 1.02373 0.35207 0.80696 0.0
H353 H 0.97046 0.36138 0.94601 0.0
H354 H 0.12359 0.47782 0.94363 0.0
O355 O 0.10994 0.29912 0.98315 0.0
O356 O 0.1771 0.372 0.9689 0.0
O357 O 0.13349 0.3882 0.83982 0.0
C358 C 0.1516 0.33343 1.00462 0.0
H359 H 0.30996 0.24038 0.83826 0.0
H360 H 0.93345 0.47428 0.97172 0.0
H361 H 0.92076 0.31226 0.79393 0.0
H362 H 0.95546 0.18131 0.92824 0.0
Co363 Co 0.7195 0.11541 0.91227 0.0
C364 C 0.8411 0.17297 0.8818 0.0
C365 C 0.76389 0.23064 0.86514 0.0
C366 C 0.81631 0.26246 0.85133 0.0
N367 N 0.77924 0.1745 0.88448 0.0
N368 N 0.86491 0.22608 0.86158 0.0
H369 H 0.86876 0.13493 0.8954 0.0
H370 H 0.71756 0.24807 0.86305 0.0
C371 C 0.62704 0.10548 0.81433 0.0
O372 O 0.60391 0.05458 0.83493 0.0
N373 N 0.65633 0.06025 0.94038 0.0
C374 C 0.65773 0.9994 0.9505 0.0
C375 C 0.59912 0.98021 0.96438 0.0
C376 C 0.59792 0.07762 0.95095 0.0
N377 N 0.5619 0.0296 0.96435 0.0
C378 C 0.81558 1.02716 0.90751 0.0
C379 C 0.76708 0.95021 0.82606 0.0
C380 C 0.81466 0.92857 0.86125 0.0
C381 C 0.84078 0.96932 0.90012 0.0
C382 C 0.74369 1.0097 0.83412 0.0
N383 N 0.76518 0.04644 0.87731 0.0
H384 H 0.83533 0.05426 0.94121 0.0
H385 H 0.70692 1.02378 0.80697 0.0
H386 H 0.6976 0.97045 0.94601 0.0
H387 H 0.58118 0.12361 0.94367 0.0
O388 O 0.75988 0.10995 0.98319 0.0
O389 O 0.687 0.17711 0.96893 0.0
O390 O 0.67079 0.13351 0.83986 0.0
C391 C 0.72557 0.15161 1.00465 0.0
H392 H 0.81862 0.30996 0.83825 0.0
H393 H 0.5847 0.93345 0.9717 0.0
H394 H 0.74674 0.92082 0.79388 0.0
H395 H 0.87768 0.95543 0.92821 0.0
Co396 Co 0.44357 0.83949 0.66043 0.0
C397 C 0.38605 0.71789 0.69104 0.0
C398 C 0.3283 0.79509 0.70744 0.0
C399 C 0.29649 0.74268 0.72129 0.0
N400 N 0.38448 0.77975 0.68822 0.0
N401 N 0.33293 0.69408 0.71126 0.0
H402 H 0.42412 0.69021 0.67754 0.0
H403 H 0.31082 0.84142 0.70938 0.0
C404 C 0.4535 0.93195 0.75836 0.0
O405 O 0.50437 0.95511 0.73774 0.0
N406 N 0.49872 0.90266 0.6323 0.0
C407 C 0.55957 0.90128 0.62221 0.0
C408 C 0.57873 0.9599 0.60831 0.0
C409 C 0.48133 0.96106 0.6217 0.0
N410 N 0.52932 0.9971 0.60823 0.0
C411 C 0.5318 0.7434 0.6652 0.0
C412 C 0.60879 0.79193 0.7466 0.0
C413 C 0.63041 0.74434 0.71141 0.0
C414 C 0.58964 0.7182 0.67256 0.0
C415 C 0.54929 0.81532 0.73856 0.0
N416 N 0.51254 0.79381 0.69539 0.0
H417 H 0.50467 0.72364 0.63152 0.0
H418 H 0.53524 0.8521 0.7657 0.0
H419 H 0.58854 0.86144 0.62676 0.0
H420 H 0.43534 0.97779 0.62901 0.0
O421 O 0.44903 0.7991 0.58952 0.0
O422 O 0.38187 0.87198 0.60376 0.0
O423 O 0.42547 0.8882 0.73284 0.0
C424 C 0.40738 0.83341 0.56804 0.0
H425 H 0.24896 0.74036 0.73425 0.0
H426 H 0.62549 0.97435 0.60106 0.0
H427 H 0.63819 0.81228 0.77875 0.0
H428 H 0.60351 0.6813 0.64447 0.0
Co429 Co 0.21951 0.44361 0.6604 0.0
C430 C 0.34111 0.3861 0.691 0.0
C431 C 0.26391 0.32834 0.70742 0.0
C432 C 0.31633 0.29654 0.72128 0.0
N433 N 0.27925 0.38452 0.68819 0.0
N434 N 0.36492 0.33298 0.71123 0.0
H435 H 0.36877 0.42416 0.67748 0.0
H436 H 0.21759 0.31087 0.70938 0.0
C437 C 0.12703 0.45352 0.75832 0.0
O438 O 0.10388 0.5044 0.7377 0.0
N439 N 0.15633 0.49876 0.63227 0.0
C440 C 0.1577 0.55961 0.62219 0.0
C441 C 0.09908 0.57877 0.6083 0.0
C442 C 0.09794 0.48136 0.62166 0.0
N443 N 0.06189 0.52935 0.60821 0.0
C444 C 0.31558 0.53186 0.66518 0.0
C445 C 0.26706 0.6088 0.74663 0.0
C446 C 0.31465 0.63044 0.71145 0.0
C447 C 0.34078 0.5897 0.67258 0.0
C448 C 0.24367 0.54931 0.73856 0.0
N449 N 0.26518 0.51258 0.69536 0.0
H450 H 0.33534 0.50475 0.63148 0.0
H451 H 0.20689 0.53524 0.76569 0.0
H452 H 0.19754 0.58859 0.62676 0.0
H453 H 0.08121 0.43537 0.62897 0.0
O454 O 0.25989 0.44908 0.58948 0.0
O455 O 0.18703 0.3819 0.60373 0.0
O456 O 0.17079 0.4255 0.7328 0.0
C457 C 0.22559 0.40741 0.56801 0.0
H458 H 0.31864 0.24901 0.73427 0.0
H459 H 0.08463 0.62554 0.60108 0.0
H460 H 0.24672 0.63819 0.7788 0.0
H461 H 0.37768 0.60359 0.64449 0.0
Co462 Co 0.61538 0.21953 0.66044 0.0
C463 C 0.6729 0.34112 0.69107 0.0
C464 C 0.73067 0.26391 0.70743 0.0
C465 C 0.76247 0.31633 0.7213 0.0
N466 N 0.67448 0.27927 0.68823 0.0
N467 N 0.72602 0.36493 0.71129 0.0
H468 H 0.63482 0.3688 0.67759 0.0
H469 H 0.74814 0.21759 0.70936 0.0
C470 C 0.60545 0.12707 0.75837 0.0
O471 O 0.55455 0.10394 0.73778 0.0
N472 N 0.56022 0.15636 0.63232 0.0
C473 C 0.49938 0.15776 0.6222 0.0
C474 C 0.48019 0.09914 0.60833 0.0
C475 C 0.5776 0.09795 0.62176 0.0
N476 N 0.52958 0.06192 0.60836 0.0
C477 C 0.52715 0.31562 0.6652 0.0
C478 C 0.45019 0.26712 0.74664 0.0
C479 C 0.42855 0.3147 0.71145 0.0
C480 C 0.46931 0.34083 0.67258 0.0
C481 C 0.50968 0.24373 0.73858 0.0
N482 N 0.54642 0.26522 0.6954 0.0
H483 H 0.55427 0.33538 0.63151 0.0
H484 H 0.52375 0.20696 0.76573 0.0
H485 H 0.47043 0.19763 0.6267 0.0
H486 H 0.62359 0.08121 0.62904 0.0
O487 O 0.60992 0.25991 0.58952 0.0
O488 O 0.67708 0.18703 0.60377 0.0
O489 O 0.63348 0.17082 0.73285 0.0
C490 C 0.65158 0.2256 0.56805 0.0
H491 H 0.81 0.31864 0.73425 0.0
H492 H 0.43343 0.08472 0.60101 0.0
H493 H 0.42079 0.24678 0.77881 0.0
H494 H 0.45543 0.37773 0.64449 0.0
Co495 Co 0.83946 0.61539 0.66047 0.0
C496 C 0.71786 0.67296 0.69092 0.0
C497 C 0.79507 0.73062 0.7076 0.0
C498 C 0.74265 0.76245 0.72139 0.0
N499 N 0.77973 0.67448 0.68825 0.0
N500 N 0.69405 0.72608 0.71114 0.0
H501 H 0.6902 0.63493 0.67732 0.0
H502 H 0.84141 0.74805 0.7097 0.0
C503 C 0.93193 0.60547 0.75841 0.0
O504 O 0.95507 0.55458 0.73781 0.0
N505 N 0.90264 0.56024 0.63236 0.0
C506 C 0.90124 0.49939 0.62223 0.0
C507 C 0.95986 0.48021 0.60834 0.0
C508 C 0.96104 0.57762 0.62179 0.0
N509 N 0.99707 0.52961 0.60837 0.0
C510 C 0.74338 0.52715 0.66525 0.0
C511 C 0.79189 0.45019 0.74668 0.0
C512 C 0.7443 0.42856 0.7115 0.0
C513 C 0.71817 0.46932 0.67264 0.0
C514 C 0.81528 0.50968 0.73862 0.0
N515 N 0.79379 0.54642 0.69544 0.0
H516 H 0.72364 0.55425 0.63154 0.0
H517 H 0.85206 0.52375 0.76576 0.0
H518 H 0.86137 0.47044 0.62672 0.0
H519 H 0.97778 0.62361 0.62907 0.0
O520 O 0.79909 0.60992 0.58956 0.0
O521 O 0.87195 0.6771 0.6038 0.0
O522 O 0.88818 0.6335 0.73289 0.0
C523 C 0.83339 0.65159 0.56808 0.0
H524 H 0.74035 0.80995 0.73447 0.0
H525 H 0.97428 0.43345 0.601 0.0
H526 H 0.81223 0.42079 0.77885 0.0
H527 H 0.68127 0.45543 0.64455 0.0
loop_
_geom_bond_atom_site_label_1
_geom_bond_atom_site_label_2
_geom_bond_distance
_geom_bond_site_symmetry_2
_ccdc_geom_bond_type
Co0 N4 2.148 . S
Co0 N10 2.128 . S
Co0 N20 2.194 . S
Co0 O25 2.351 . S
Co0 O26 2.155 . S
Co0 O27 2.096 . S
C1 N4 1.301 . S
C1 N5 1.328 . S
C1 H6 0.930 . S
C2 C3 1.333 . S
C2 N4 1.317 . S
C2 H7 0.930 . S
C3 C2 1.333 . S
C3 N5 1.350 . S
C3 H29 0.931 . S
N4 Co0 2.148 . S
N4 C1 1.301 . S
N4 C2 1.317 . S
N5 C1 1.328 . S
N5 C3 1.350 . S
H6 C1 0.930 . S
H7 C2 0.930 . S
C8 O9 1.224 . S
C8 O27 1.247 . S
O9 C8 1.224 . S
N10 Co0 2.128 . S
N10 C11 1.355 1_455 S
N10 C13 1.311 . S
C11 N10 1.355 1_655 S
C11 C12 1.363 . S
C11 H23 0.929 . S
C12 C11 1.363 . S
C12 N14 1.375 1_655 S
C12 H30 0.931 . S
C13 N10 1.311 . S
C13 N14 1.347 . S
C13 H24 0.929 . S
N14 C12 1.375 1_455 S
N14 C13 1.347 . S
C15 C18 1.365 . S
C15 N20 1.328 1_655 S
C15 H21 0.929 1_655 S
C16 C17 1.362 . S
C16 C19 1.378 1_655 S
C16 H31 0.929 . S
C17 C16 1.362 . S
C17 C18 1.366 . S
C18 C15 1.365 . S
C18 C17 1.366 . S
C18 H32 0.930 . S
C19 C16 1.378 1_455 S
C19 N20 1.315 . S
C19 H22 0.930 . S
N20 Co0 2.194 . S
N20 C15 1.328 1_455 S
N20 C19 1.315 . S
H21 C15 0.929 1_455 S
H22 C19 0.930 . S
H23 C11 0.929 . S
H24 C13 0.929 . S
O25 Co0 2.351 . S
O25 C28 1.244 . S
O26 Co0 2.155 . S
O26 C28 1.240 . S
O27 Co0 2.096 . S
O27 C8 1.247 . S
C28 O25 1.244 . S
C28 O26 1.240 . S
H29 C3 0.931 . S
H30 C12 0.931 . S
H31 C16 0.929 . S
H32 C18 0.930 . S
Co33 N37 2.148 . S
Co33 N43 2.128 . S
Co33 N53 2.194 . S
Co33 O58 2.351 . S
Co33 O59 2.155 . S
Co33 O60 2.096 . S
C34 N37 1.301 . S
C34 N38 1.328 . S
C34 H39 0.930 . S
C35 C36 1.333 . S
C35 N37 1.317 . S
C35 H40 0.930 . S
C36 C35 1.333 . S
C36 N38 1.350 . S
C36 H62 0.931 . S
N37 Co33 2.148 . S
N37 C34 1.301 . S
N37 C35 1.317 . S
N38 C34 1.328 . S
N38 C36 1.350 . S
H39 C34 0.930 . S
H40 C35 0.930 . S
C41 O42 1.224 . S
C41 O60 1.247 . S
O42 C41 1.224 . S
N43 Co33 2.128 . S
N43 C44 1.355 1_545 S
N43 C46 1.311 . S
C44 N43 1.355 1_565 S
C44 C45 1.363 . S
C44 H56 0.929 . S
C45 C44 1.363 . S
C45 N47 1.375 1_565 S
C45 H63 0.931 . S
C46 N43 1.311 . S
C46 N47 1.347 . S
C46 H57 0.929 . S
N47 C45 1.375 1_545 S
N47 C46 1.347 . S
C48 C51 1.365 . S
C48 N53 1.328 1_565 S
C48 H54 0.929 1_565 S
C49 C50 1.362 . S
C49 C52 1.378 1_565 S
C49 H64 0.929 . S
C50 C49 1.362 . S
C50 C51 1.366 . S
C51 C48 1.365 . S
C51 C50 1.366 . S
C51 H65 0.930 . S
C52 C49 1.378 1_545 S
C52 N53 1.315 . S
C52 H55 0.930 . S
N53 Co33 2.194 . S
N53 C48 1.328 1_545 S
N53 C52 1.315 . S
H54 C48 0.929 1_545 S
H55 C52 0.930 . S
H56 C44 0.929 . S
H57 C46 0.929 . S
O58 Co33 2.351 . S
O58 C61 1.244 . S
O59 Co33 2.155 . S
O59 C61 1.240 . S
O60 Co33 2.096 . S
O60 C41 1.247 . S
C61 O58 1.244 . S
C61 O59 1.240 . S
H62 C36 0.931 . S
H63 C45 0.931 . S
H64 C49 0.929 . S
H65 C51 0.930 . S
Co66 N70 2.148 . S
Co66 N76 2.128 . S
Co66 N86 2.194 . S
Co66 O91 2.351 . S
Co66 O92 2.155 . S
Co66 O93 2.096 . S
C67 N70 1.301 . S
C67 N71 1.328 . S
C67 H72 0.930 . S
C68 C69 1.333 . S
C68 N70 1.317 . S
C68 H73 0.930 . S
C69 C68 1.333 . S
C69 N71 1.350 . S
C69 H95 0.931 . S
N70 Co66 2.148 . S
N70 C67 1.301 . S
N70 C68 1.317 . S
N71 C67 1.328 . S
N71 C69 1.350 . S
H72 C67 0.930 . S
H73 C68 0.930 . S
C74 O75 1.224 . S
C74 O93 1.247 . S
O75 C74 1.224 . S
N76 Co66 2.128 . S
N76 C77 1.355 1_655 S
N76 C79 1.311 . S
C77 N76 1.355 1_455 S
C77 C78 1.363 . S
C77 H89 0.929 . S
C78 C77 1.363 . S
C78 N80 1.375 1_455 S
C78 H96 0.931 . S
C79 N76 1.311 . S
C79 N80 1.347 . S
C79 H90 0.929 . S
N80 C78 1.375 1_655 S
N80 C79 1.347 . S
C81 C84 1.365 . S
C81 N86 1.328 1_455 S
C81 H87 0.929 1_455 S
C82 C83 1.362 . S
C82 C85 1.378 1_455 S
C82 H97 0.929 . S
C83 C82 1.362 . S
C83 C84 1.366 . S
C84 C81 1.365 . S
C84 C83 1.366 . S
C84 H98 0.930 . S
C85 C82 1.378 1_655 S
C85 N86 1.315 . S
C85 H88 0.930 . S
N86 Co66 2.194 . S
N86 C81 1.328 1_655 S
N86 C85 1.315 . S
H87 C81 0.929 1_655 S
H88 C85 0.930 . S
H89 C77 0.929 . S
H90 C79 0.929 . S
O91 Co66 2.351 . S
O91 C94 1.244 . S
O92 Co66 2.155 . S
O92 C94 1.240 . S
O93 Co66 2.096 . S
O93 C74 1.247 . S
C94 O91 1.244 . S
C94 O92 1.240 . S
H95 C69 0.931 . S
H96 C78 0.931 . S
H97 C82 0.929 . S
H98 C84 0.930 . S
Co99 N103 2.148 . S
Co99 N109 2.128 . S
Co99 N119 2.194 . S
Co99 O124 2.351 . S
Co99 O125 2.155 . S
Co99 O126 2.096 . S
C100 N103 1.301 . S
C100 N104 1.328 . S
C100 H105 0.930 . S
C101 C102 1.333 . S
C101 N103 1.317 . S
C101 H106 0.930 . S
C102 C101 1.333 . S
C102 N104 1.350 . S
C102 H128 0.931 . S
N103 Co99 2.148 . S
N103 C100 1.301 . S
N103 C101 1.317 . S
N104 C100 1.328 . S
N104 C102 1.350 . S
H105 C100 0.930 . S
H106 C101 0.930 . S
C107 O108 1.224 . S
C107 O126 1.247 . S
O108 C107 1.224 . S
N109 Co99 2.128 . S
N109 C110 1.355 1_565 S
N109 C112 1.311 . S
C110 N109 1.355 1_545 S
C110 C111 1.363 . S
C110 H122 0.929 . S
C111 C110 1.363 . S
C111 N113 1.375 1_545 S
C111 H129 0.931 . S
C112 N109 1.311 . S
C112 N113 1.347 . S
C112 H123 0.929 . S
N113 C111 1.375 1_565 S
N113 C112 1.347 . S
C114 C117 1.365 . S
C114 N119 1.328 1_545 S
C114 H120 0.929 1_545 S
C115 C116 1.362 . S
C115 C118 1.378 1_545 S
C115 H130 0.929 . S
C116 C115 1.362 . S
C116 C117 1.366 . S
C117 C114 1.365 . S
C117 C116 1.366 . S
C117 H131 0.930 . S
C118 C115 1.378 1_565 S
C118 N119 1.315 . S
C118 H121 0.930 . S
N119 Co99 2.194 . S
N119 C114 1.328 1_565 S
N119 C118 1.315 . S
H120 C114 0.929 1_565 S
H121 C118 0.930 . S
H122 C110 0.929 . S
H123 C112 0.929 . S
O124 Co99 2.351 . S
O124 C127 1.244 . S
O125 Co99 2.155 . S
O125 C127 1.240 . S
O126 Co99 2.096 . S
O126 C107 1.247 . S
C127 O124 1.244 . S
C127 O125 1.240 . S
H128 C102 0.931 . S
H129 C111 0.931 . S
H130 C115 0.929 . S
H131 C117 0.930 . S
Co132 N136 2.148 . S
Co132 N142 2.128 . S
Co132 N152 2.194 . S
Co132 O157 2.351 . S
Co132 O158 2.155 . S
Co132 O159 2.096 . S
C133 N136 1.301 . S
C133 N137 1.328 . S
C133 H138 0.930 . S
C134 C135 1.333 . S
C134 N136 1.317 . S
C134 H139 0.930 . S
C135 C134 1.333 . S
C135 N137 1.350 . S
C135 H161 0.931 . S
N136 Co132 2.148 . S
N136 C133 1.301 . S
N136 C134 1.317 . S
N137 C133 1.328 . S
N137 C135 1.350 . S
H138 C133 0.930 . S
H139 C134 0.930 . S
C140 O141 1.224 . S
C140 O159 1.247 . S
O141 C140 1.224 . S
N142 Co132 2.128 . S
N142 C143 1.355 . S
N142 C145 1.311 . S
C143 N142 1.355 . S
C143 C144 1.363 . S
C143 H155 0.929 . S
C144 C143 1.363 . S
C144 N146 1.375 . S
C144 H162 0.931 . S
C145 N142 1.311 . S
C145 N146 1.347 . S
C145 H156 0.929 . S
N146 C144 1.375 . S
N146 C145 1.347 . S
C147 C150 1.365 . S
C147 N152 1.328 . S
C147 H153 0.929 . S
C148 C149 1.362 . S
C148 C151 1.378 . S
C148 H163 0.929 . S
C149 C148 1.362 . S
C149 C150 1.366 . S
C150 C147 1.365 . S
C150 C149 1.366 . S
C150 H164 0.930 . S
C151 C148 1.378 . S
C151 N152 1.315 . S
C151 H154 0.930 . S
N152 Co132 2.194 . S
N152 C147 1.328 . S
N152 C151 1.315 . S
H153 C147 0.929 . S
H154 C151 0.930 . S
H155 C143 0.929 . S
H156 C145 0.929 . S
O157 Co132 2.351 . S
O157 C160 1.244 . S
O158 Co132 2.155 . S
O158 C160 1.240 . S
O159 Co132 2.096 . S
O159 C140 1.247 . S
C160 O157 1.244 . S
C160 O158 1.240 . S
H161 C135 0.931 . S
H162 C144 0.931 . S
H163 C148 0.929 . S
H164 C150 0.930 . S
Co165 N169 2.148 . S
Co165 N175 2.128 . S
Co165 N185 2.194 . S
Co165 O190 2.351 . S
Co165 O191 2.155 . S
Co165 O192 2.096 . S
C166 N169 1.301 . S
C166 N170 1.328 . S
C166 H171 0.930 . S
C167 C168 1.333 . S
C167 N169 1.317 . S
C167 H172 0.930 . S
C168 C167 1.333 . S
C168 N170 1.350 . S
C168 H194 0.931 . S
N169 Co165 2.148 . S
N169 C166 1.301 . S
N169 C167 1.317 . S
N170 C166 1.328 . S
N170 C168 1.350 . S
H171 C166 0.930 . S
H172 C167 0.930 . S
C173 O174 1.224 . S
C173 O192 1.247 . S
O174 C173 1.224 . S
N175 Co165 2.128 . S
N175 C176 1.355 . S
N175 C178 1.311 . S
C176 N175 1.355 . S
C176 C177 1.363 . S
C176 H188 0.929 . S
C177 C176 1.363 . S
C177 N179 1.375 . S
C177 H195 0.931 . S
C178 N175 1.311 . S
C178 N179 1.347 . S
C178 H189 0.929 . S
N179 C177 1.375 . S
N179 C178 1.347 . S
C180 C183 1.365 . S
C180 N185 1.328 . S
C180 H186 0.929 . S
C181 C182 1.362 . S
C181 C184 1.378 . S
C181 H196 0.929 . S
C182 C181 1.362 . S
C182 C183 1.366 . S
C183 C180 1.365 . S
C183 C182 1.366 . S
C183 H197 0.930 . S
C184 C181 1.378 . S
C184 N185 1.315 . S
C184 H187 0.930 . S
N185 Co165 2.194 . S
N185 C180 1.328 . S
N185 C184 1.315 . S
H186 C180 0.929 . S
H187 C184 0.930 . S
H188 C176 0.929 . S
H189 C178 0.929 . S
O190 Co165 2.351 . S
O190 C193 1.244 . S
O191 Co165 2.155 . S
O191 C193 1.240 . S
O192 Co165 2.096 . S
O192 C173 1.247 . S
C193 O190 1.244 . S
C193 O191 1.240 . S
H194 C168 0.931 . S
H195 C177 0.931 . S
H196 C181 0.929 . S
H197 C183 0.930 . S
Co198 N202 2.148 . S
Co198 N208 2.128 . S
Co198 N218 2.194 . S
Co198 O223 2.351 . S
Co198 O224 2.155 . S
Co198 O225 2.096 . S
C199 N202 1.301 . S
C199 N203 1.328 . S
C199 H204 0.930 . S
C200 C201 1.333 . S
C200 N202 1.317 . S
C200 H205 0.930 . S
C201 C200 1.333 . S
C201 N203 1.350 . S
C201 H227 0.931 . S
N202 Co198 2.148 . S
N202 C199 1.301 . S
N202 C200 1.317 . S
N203 C199 1.328 . S
N203 C201 1.350 . S
H204 C199 0.930 . S
H205 C200 0.930 . S
C206 O207 1.224 . S
C206 O225 1.247 . S
O207 C206 1.224 . S
N208 Co198 2.128 . S
N208 C209 1.355 . S
N208 C211 1.311 . S
C209 N208 1.355 . S
C209 C210 1.363 . S
C209 H221 0.929 . S
C210 C209 1.363 . S
C210 N212 1.375 . S
C210 H228 0.931 . S
C211 N208 1.311 . S
C211 N212 1.347 . S
C211 H222 0.929 . S
N212 C210 1.375 . S
N212 C211 1.347 . S
C213 C216 1.365 . S
C213 N218 1.328 . S
C213 H219 0.929 . S
C214 C215 1.362 . S
C214 C217 1.378 . S
C214 H229 0.929 . S
C215 C214 1.362 . S
C215 C216 1.366 . S
C216 C213 1.365 . S
C216 C215 1.366 . S
C216 H230 0.930 . S
C217 C214 1.378 . S
C217 N218 1.315 . S
C217 H220 0.930 . S
N218 Co198 2.194 . S
N218 C213 1.328 . S
N218 C217 1.315 . S
H219 C213 0.929 . S
H220 C217 0.930 . S
H221 C209 0.929 . S
H222 C211 0.929 . S
O223 Co198 2.351 . S
O223 C226 1.244 . S
O224 Co198 2.155 . S
O224 C226 1.240 . S
O225 Co198 2.096 . S
O225 C206 1.247 . S
C226 O223 1.244 . S
C226 O224 1.240 . S
H227 C201 0.931 . S
H228 C210 0.931 . S
H229 C214 0.929 . S
H230 C216 0.930 . S
Co231 N235 2.148 . S
Co231 N241 2.128 . S
Co231 N251 2.194 . S
Co231 O256 2.351 . S
Co231 O257 2.155 . S
Co231 O258 2.096 . S
C232 N235 1.301 . S
C232 N236 1.328 . S
C232 H237 0.930 . S
C233 C234 1.333 . S
C233 N235 1.317 . S
C233 H238 0.930 . S
C234 C233 1.333 . S
C234 N236 1.350 . S
C234 H260 0.931 . S
N235 Co231 2.148 . S
N235 C232 1.301 . S
N235 C233 1.317 . S
N236 C232 1.328 . S
N236 C234 1.350 . S
H237 C232 0.930 . S
H238 C233 0.930 . S
C239 O240 1.224 . S
C239 O258 1.247 . S
O240 C239 1.224 . S
N241 Co231 2.128 . S
N241 C242 1.355 . S
N241 C244 1.311 . S
C242 N241 1.355 . S
C242 C243 1.363 . S
C242 H254 0.929 . S
C243 C242 1.363 . S
C243 N245 1.375 . S
C243 H261 0.931 . S
C244 N241 1.311 . S
C244 N245 1.347 . S
C244 H255 0.929 . S
N245 C243 1.375 . S
N245 C244 1.347 . S
C246 C249 1.365 . S
C246 N251 1.328 . S
C246 H252 0.929 . S
C247 C248 1.362 . S
C247 C250 1.378 . S
C247 H262 0.929 . S
C248 C247 1.362 . S
C248 C249 1.366 . S
C249 C246 1.365 . S
C249 C248 1.366 . S
C249 H263 0.930 . S
C250 C247 1.378 . S
C250 N251 1.315 . S
C250 H253 0.930 . S
N251 Co231 2.194 . S
N251 C246 1.328 . S
N251 C250 1.315 . S
H252 C246 0.929 . S
H253 C250 0.930 . S
H254 C242 0.929 . S
H255 C244 0.929 . S
O256 Co231 2.351 . S
O256 C259 1.244 . S
O257 Co231 2.155 . S
O257 C259 1.240 . S
O258 Co231 2.096 . S
O258 C239 1.247 . S
C259 O256 1.244 . S
C259 O257 1.240 . S
H260 C234 0.931 . S
H261 C243 0.931 . S
H262 C247 0.929 . S
H263 C249 0.930 . S
Co264 N268 2.148 . S
Co264 N274 2.128 . S
Co264 N284 2.194 . S
Co264 O289 2.351 . S
Co264 O290 2.155 . S
Co264 O291 2.096 . S
C265 N268 1.301 . S
C265 N269 1.328 . S
C265 H270 0.930 . S
C266 C267 1.333 . S
C266 N268 1.317 . S
C266 H271 0.930 . S
C267 C266 1.333 . S
C267 N269 1.350 . S
C267 H293 0.931 . S
N268 Co264 2.148 . S
N268 C265 1.301 . S
N268 C266 1.317 . S
N269 C265 1.328 . S
N269 C267 1.350 . S
H270 C265 0.930 . S
H271 C266 0.930 . S
C272 O273 1.224 . S
C272 O291 1.247 . S
O273 C272 1.224 . S
N274 Co264 2.128 . S
N274 C275 1.355 1_655 S
N274 C277 1.311 . S
C275 N274 1.355 1_455 S
C275 C276 1.363 . S
C275 H287 0.929 . S
C276 C275 1.363 . S
C276 N278 1.375 1_455 S
C276 H294 0.931 . S
C277 N274 1.311 . S
C277 N278 1.347 . S
C277 H288 0.929 . S
N278 C276 1.375 1_655 S
N278 C277 1.347 . S
C279 C282 1.365 . S
C279 N284 1.328 1_455 S
C279 H285 0.929 1_455 S
C280 C281 1.362 . S
C280 C283 1.378 1_455 S
C280 H295 0.929 . S
C281 C280 1.362 . S
C281 C282 1.366 . S
C282 C279 1.365 . S
C282 C281 1.366 . S
C282 H296 0.930 . S
C283 C280 1.378 1_655 S
C283 N284 1.315 . S
C283 H286 0.930 . S
N284 Co264 2.194 . S
N284 C279 1.328 1_655 S
N284 C283 1.315 . S
H285 C279 0.929 1_655 S
H286 C283 0.930 . S
H287 C275 0.929 . S
H288 C277 0.929 . S
O289 Co264 2.351 . S
O289 C292 1.244 . S
O290 Co264 2.155 . S
O290 C292 1.240 . S
O291 Co264 2.096 . S
O291 C272 1.247 . S
C292 O289 1.244 . S
C292 O290 1.240 . S
H293 C267 0.931 . S
H294 C276 0.931 . S
H295 C280 0.929 . S
H296 C282 0.930 . S
Co297 N301 2.148 . S
Co297 N307 2.128 . S
Co297 N317 2.194 . S
Co297 O322 2.351 . S
Co297 O323 2.155 . S
Co297 O324 2.096 . S
C298 N301 1.301 . S
C298 N302 1.328 . S
C298 H303 0.930 . S
C299 C300 1.333 . S
C299 N301 1.317 . S
C299 H304 0.930 . S
C300 C299 1.333 . S
C300 N302 1.350 . S
C300 H326 0.931 . S
N301 Co297 2.148 . S
N301 C298 1.301 . S
N301 C299 1.317 . S
N302 C298 1.328 . S
N302 C300 1.350 . S
H303 C298 0.930 . S
H304 C299 0.930 . S
C305 O306 1.224 . S
C305 O324 1.247 . S
O306 C305 1.224 . S
N307 Co297 2.128 . S
N307 C308 1.355 1_565 S
N307 C310 1.311 . S
C308 N307 1.355 1_545 S
C308 C309 1.363 . S
C308 H320 0.929 . S
C309 C308 1.363 . S
C309 N311 1.375 1_545 S
C309 H327 0.931 . S
C310 N307 1.311 . S
C310 N311 1.347 . S
C310 H321 0.929 . S
N311 C309 1.375 1_565 S
N311 C310 1.347 . S
C312 C315 1.365 . S
C312 N317 1.328 1_545 S
C312 H318 0.929 1_545 S
C313 C314 1.362 . S
C313 C316 1.378 1_545 S
C313 H328 0.929 . S
C314 C313 1.362 . S
C314 C315 1.366 . S
C315 C312 1.365 . S
C315 C314 1.366 . S
C315 H329 0.930 . S
C316 C313 1.378 1_565 S
C316 N317 1.315 . S
C316 H319 0.930 . S
N317 Co297 2.194 . S
N317 C312 1.328 1_565 S
N317 C316 1.315 . S
H318 C312 0.929 1_565 S
H319 C316 0.930 . S
H320 C308 0.929 . S
H321 C310 0.929 . S
O322 Co297 2.351 . S
O322 C325 1.244 . S
O323 Co297 2.155 . S
O323 C325 1.240 . S
O324 Co297 2.096 . S
O324 C305 1.247 . S
C325 O322 1.244 . S
C325 O323 1.240 . S
H326 C300 0.931 . S
H327 C309 0.931 . S
H328 C313 0.929 . S
H329 C315 0.930 . S
Co330 N334 2.148 . S
Co330 N340 2.128 . S
Co330 N350 2.194 . S
Co330 O355 2.351 . S
Co330 O356 2.155 . S
Co330 O357 2.096 . S
C331 N334 1.301 . S
C331 N335 1.328 . S
C331 H336 0.930 . S
C332 C333 1.333 . S
C332 N334 1.317 . S
C332 H337 0.930 . S
C333 C332 1.333 . S
C333 N335 1.350 . S
C333 H359 0.931 . S
N334 Co330 2.148 . S
N334 C331 1.301 . S
N334 C332 1.317 . S
N335 C331 1.328 . S
N335 C333 1.350 . S
H336 C331 0.930 . S
H337 C332 0.930 . S
C338 O339 1.224 . S
C338 O357 1.247 . S
O339 C338 1.224 . S
N340 Co330 2.128 . S
N340 C341 1.355 1_455 S
N340 C343 1.311 . S
C341 N340 1.355 1_655 S
C341 C342 1.363 . S
C341 H353 0.929 . S
C342 C341 1.363 . S
C342 N344 1.375 1_655 S
C342 H360 0.931 . S
C343 N340 1.311 . S
C343 N344 1.347 . S
C343 H354 0.929 . S
N344 C342 1.375 1_455 S
N344 C343 1.347 . S
C345 C348 1.365 . S
C345 N350 1.328 1_655 S
C345 H351 0.929 1_655 S
C346 C347 1.362 . S
C346 C349 1.378 1_655 S
C346 H361 0.929 . S
C347 C346 1.362 . S
C347 C348 1.366 . S
C348 C345 1.365 . S
C348 C347 1.366 . S
C348 H362 0.930 . S
C349 C346 1.378 1_455 S
C349 N350 1.315 . S
C349 H352 0.930 . S
N350 Co330 2.194 . S
N350 C345 1.328 1_455 S
N350 C349 1.315 . S
H351 C345 0.929 1_455 S
H352 C349 0.930 . S
H353 C341 0.929 . S
H354 C343 0.929 . S
O355 Co330 2.351 . S
O355 C358 1.244 . S
O356 Co330 2.155 . S
O356 C358 1.240 . S
O357 Co330 2.096 . S
O357 C338 1.247 . S
C358 O355 1.244 . S
C358 O356 1.240 . S
H359 C333 0.931 . S
H360 C342 0.931 . S
H361 C346 0.929 . S
H362 C348 0.930 . S
Co363 N367 2.148 . S
Co363 N373 2.128 . S
Co363 N383 2.194 . S
Co363 O388 2.351 . S
Co363 O389 2.155 . S
Co363 O390 2.096 . S
C364 N367 1.301 . S
C364 N368 1.328 . S
C364 H369 0.930 . S
C365 C366 1.333 . S
C365 N367 1.317 . S
C365 H370 0.930 . S
C366 C365 1.333 . S
C366 N368 1.350 . S
C366 H392 0.931 . S
N367 Co363 2.148 . S
N367 C364 1.301 . S
N367 C365 1.317 . S
N368 C364 1.328 . S
N368 C366 1.350 . S
H369 C364 0.930 . S
H370 C365 0.930 . S
C371 O372 1.224 . S
C371 O390 1.247 . S
O372 C371 1.224 . S
N373 Co363 2.128 . S
N373 C374 1.355 1_545 S
N373 C376 1.311 . S
C374 N373 1.355 1_565 S
C374 C375 1.363 . S
C374 H386 0.929 . S
C375 C374 1.363 . S
C375 N377 1.375 1_565 S
C375 H393 0.931 . S
C376 N373 1.311 . S
C376 N377 1.347 . S
C376 H387 0.929 . S
N377 C375 1.375 1_545 S
N377 C376 1.347 . S
C378 C381 1.365 . S
C378 N383 1.328 1_565 S
C378 H384 0.929 1_565 S
C379 C380 1.362 . S
C379 C382 1.378 1_565 S
C379 H394 0.929 . S
C380 C379 1.362 . S
C380 C381 1.366 . S
C381 C378 1.365 . S
C381 C380 1.366 . S
C381 H395 0.930 . S
C382 C379 1.378 1_545 S
C382 N383 1.315 . S
C382 H385 0.930 . S
N383 Co363 2.194 . S
N383 C378 1.328 1_545 S
N383 C382 1.315 . S
H384 C378 0.929 1_545 S
H385 C382 0.930 . S
H386 C374 0.929 . S
H387 C376 0.929 . S
O388 Co363 2.351 . S
O388 C391 1.244 . S
O389 Co363 2.155 . S
O389 C391 1.240 . S
O390 Co363 2.096 . S
O390 C371 1.247 . S
C391 O388 1.244 . S
C391 O389 1.240 . S
H392 C366 0.931 . S
H393 C375 0.931 . S
H394 C379 0.929 . S
H395 C381 0.930 . S
Co396 N400 2.148 . S
Co396 N406 2.128 . S
Co396 N416 2.194 . S
Co396 O421 2.351 . S
Co396 O422 2.155 . S
Co396 O423 2.096 . S
C397 N400 1.301 . S
C397 N401 1.328 . S
C397 H402 0.930 . S
C398 C399 1.333 . S
C398 N400 1.317 . S
C398 H403 0.930 . S
C399 C398 1.333 . S
C399 N401 1.350 . S
C399 H425 0.931 . S
N400 Co396 2.148 . S
N400 C397 1.301 . S
N400 C398 1.317 . S
N401 C397 1.328 . S
N401 C399 1.350 . S
H402 C397 0.930 . S
H403 C398 0.930 . S
C404 O405 1.224 . S
C404 O423 1.247 . S
O405 C404 1.224 . S
N406 Co396 2.128 . S
N406 C407 1.355 . S
N406 C409 1.311 . S
C407 N406 1.355 . S
C407 C408 1.363 . S
C407 H419 0.929 . S
C408 C407 1.363 . S
C408 N410 1.375 . S
C408 H426 0.931 . S
C409 N406 1.311 . S
C409 N410 1.347 . S
C409 H420 0.929 . S
N410 C408 1.375 . S
N410 C409 1.347 . S
C411 C414 1.365 . S
C411 N416 1.328 . S
C411 H417 0.929 . S
C412 C413 1.362 . S
C412 C415 1.378 . S
C412 H427 0.929 . S
C413 C412 1.362 . S
C413 C414 1.366 . S
C414 C411 1.365 . S
C414 C413 1.366 . S
C414 H428 0.930 . S
C415 C412 1.378 . S
C415 N416 1.315 . S
C415 H418 0.930 . S
N416 Co396 2.194 . S
N416 C411 1.328 . S
N416 C415 1.315 . S
H417 C411 0.929 . S
H418 C415 0.930 . S
H419 C407 0.929 . S
H420 C409 0.929 . S
O421 Co396 2.351 . S
O421 C424 1.244 . S
O422 Co396 2.155 . S
O422 C424 1.240 . S
O423 Co396 2.096 . S
O423 C404 1.247 . S
C424 O421 1.244 . S
C424 O422 1.240 . S
H425 C399 0.931 . S
H426 C408 0.931 . S
H427 C412 0.929 . S
H428 C414 0.930 . S
Co429 N433 2.148 . S
Co429 N439 2.128 . S
Co429 N449 2.194 . S
Co429 O454 2.351 . S
Co429 O455 2.155 . S
Co429 O456 2.096 . S
C430 N433 1.301 . S
C430 N434 1.328 . S
C430 H435 0.930 . S
C431 C432 1.333 . S
C431 N433 1.317 . S
C431 H436 0.930 . S
C432 C431 1.333 . S
C432 N434 1.350 . S
C432 H458 0.931 . S
N433 Co429 2.148 . S
N433 C430 1.301 . S
N433 C431 1.317 . S
N434 C430 1.328 . S
N434 C432 1.350 . S
H435 C430 0.930 . S
H436 C431 0.930 . S
C437 O438 1.224 . S
C437 O456 1.247 . S
O438 C437 1.224 . S
N439 Co429 2.128 . S
N439 C440 1.355 . S
N439 C442 1.311 . S
C440 N439 1.355 . S
C440 C441 1.363 . S
C440 H452 0.929 . S
C441 C440 1.363 . S
C441 N443 1.375 . S
C441 H459 0.931 . S
C442 N439 1.311 . S
C442 N443 1.347 . S
C442 H453 0.929 . S
N443 C441 1.375 . S
N443 C442 1.347 . S
C444 C447 1.365 . S
C444 N449 1.328 . S
C444 H450 0.929 . S
C445 C446 1.362 . S
C445 C448 1.378 . S
C445 H460 0.929 . S
C446 C445 1.362 . S
C446 C447 1.366 . S
C447 C444 1.365 . S
C447 C446 1.366 . S
C447 H461 0.930 . S
C448 C445 1.378 . S
C448 N449 1.315 . S
C448 H451 0.930 . S
N449 Co429 2.194 . S
N449 C444 1.328 . S
N449 C448 1.315 . S
H450 C444 0.929 . S
H451 C448 0.930 . S
H452 C440 0.929 . S
H453 C442 0.929 . S
O454 Co429 2.351 . S
O454 C457 1.244 . S
O455 Co429 2.155 . S
O455 C457 1.240 . S
O456 Co429 2.096 . S
O456 C437 1.247 . S
C457 O454 1.244 . S
C457 O455 1.240 . S
H458 C432 0.931 . S
H459 C441 0.931 . S
H460 C445 0.929 . S
H461 C447 0.930 . S
Co462 N466 2.148 . S
Co462 N472 2.128 . S
Co462 N482 2.194 . S
Co462 O487 2.351 . S
Co462 O488 2.155 . S
Co462 O489 2.096 . S
C463 N466 1.301 . S
C463 N467 1.328 . S
C463 H468 0.930 . S
C464 C465 1.333 . S
C464 N466 1.317 . S
C464 H469 0.930 . S
C465 C464 1.333 . S
C465 N467 1.350 . S
C465 H491 0.931 . S
N466 Co462 2.148 . S
N466 C463 1.301 . S
N466 C464 1.317 . S
N467 C463 1.328 . S
N467 C465 1.350 . S
H468 C463 0.930 . S
H469 C464 0.930 . S
C470 O471 1.224 . S
C470 O489 1.247 . S
O471 C470 1.224 . S
N472 Co462 2.128 . S
N472 C473 1.355 . S
N472 C475 1.311 . S
C473 N472 1.355 . S
C473 C474 1.363 . S
C473 H485 0.929 . S
C474 C473 1.363 . S
C474 N476 1.375 . S
C474 H492 0.931 . S
C475 N472 1.311 . S
C475 N476 1.347 . S
C475 H486 0.929 . S
N476 C474 1.375 . S
N476 C475 1.347 . S
C477 C480 1.365 . S
C477 N482 1.328 . S
C477 H483 0.929 . S
C478 C479 1.362 . S
C478 C481 1.378 . S
C478 H493 0.929 . S
C479 C478 1.362 . S
C479 C480 1.366 . S
C480 C477 1.365 . S
C480 C479 1.366 . S
C480 H494 0.930 . S
C481 C478 1.378 . S
C481 N482 1.315 . S
C481 H484 0.930 . S
N482 Co462 2.194 . S
N482 C477 1.328 . S
N482 C481 1.315 . S
H483 C477 0.929 . S
H484 C481 0.930 . S
H485 C473 0.929 . S
H486 C475 0.929 . S
O487 Co462 2.351 . S
O487 C490 1.244 . S
O488 Co462 2.155 . S
O488 C490 1.240 . S
O489 Co462 2.096 . S
O489 C470 1.247 . S
C490 O487 1.244 . S
C490 O488 1.240 . S
H491 C465 0.931 . S
H492 C474 0.931 . S
H493 C478 0.929 . S
H494 C480 0.930 . S
Co495 N499 2.148 . S
Co495 N505 2.128 . S
Co495 N515 2.194 . S
Co495 O520 2.351 . S
Co495 O521 2.155 . S
Co495 O522 2.096 . S
C496 N499 1.301 . S
C496 N500 1.328 . S
C496 H501 0.930 . S
C497 C498 1.333 . S
C497 N499 1.317 . S
C497 H502 0.930 . S
C498 C497 1.333 . S
C498 N500 1.350 . S
C498 H524 0.931 . S
N499 Co495 2.148 . S
N499 C496 1.301 . S
N499 C497 1.317 . S
N500 C496 1.328 . S
N500 C498 1.350 . S
H501 C496 0.930 . S
H502 C497 0.930 . S
C503 O504 1.224 . S
C503 O522 1.247 . S
O504 C503 1.224 . S
N505 Co495 2.128 . S
N505 C506 1.355 . S
N505 C508 1.311 . S
C506 N505 1.355 . S
C506 C507 1.363 . S
C506 H518 0.929 . S
C507 C506 1.363 . S
C507 N509 1.375 . S
C507 H525 0.931 . S
C508 N505 1.311 . S
C508 N509 1.347 . S
C508 H519 0.929 . S
N509 C507 1.375 . S
N509 C508 1.347 . S
C510 C513 1.365 . S
C510 N515 1.328 . S
C510 H516 0.929 . S
C511 C512 1.362 . S
C511 C514 1.378 . S
C511 H526 0.929 . S
C512 C511 1.362 . S
C512 C513 1.366 . S
C513 C510 1.365 . S
C513 C512 1.366 . S
C513 H527 0.930 . S
C514 C511 1.378 . S
C514 N515 1.315 . S
C514 H517 0.930 . S
N515 Co495 2.194 . S
N515 C510 1.328 . S
N515 C514 1.315 . S
H516 C510 0.929 . S
H517 C514 0.930 . S
H518 C506 0.929 . S
H519 C508 0.929 . S
O520 Co495 2.351 . S
O520 C523 1.244 . S
O521 Co495 2.155 . S
O521 C523 1.240 . S
O522 Co495 2.096 . S
O522 C503 1.247 . S
C523 O520 1.244 . S
C523 O521 1.240 . S
H524 C498 0.931 . S
H525 C507 0.931 . S
H526 C511 0.929 . S
H527 C513 0.930 . S
C358 C28 1.623 1_556 S
C391 C61 1.623 1_556 S
C292 C94 1.623 1_556 S
C325 C127 1.623 1_556 S
C160 C490 1.623 . S
C193 C523 1.623 . S
C424 C226 1.623 . S
C457 C259 1.623 . S
C116 N5 1.869 . S
N38 C17 1.869 . S
C50 N71 1.869 . S
N104 C83 1.869 . S
C182 N137 1.869 . S
C215 N170 1.869 . S
C248 N203 1.869 . S
N236 C149 1.869 . S
N269 C380 1.869 . S
N302 C281 1.869 . S
C314 N335 1.869 . S
N368 C347 1.869 . S
N401 C446 1.869 . S
N434 C479 1.869 . S
N467 C512 1.869 . S
C413 N500 1.869 . S
C239 C8 1.080 . S
C41 C140 1.080 . S
C173 C74 1.080 . S
C206 C107 1.080 . S
C272 C503 1.080 . S
C404 C305 1.080 . S
C338 C437 1.080 . S
C470 C371 1.080 . S
N80 N14 1.487 1_655 S
N113 N47 1.487 1_565 S
N146 N212 1.487 1_545 S
N179 N245 1.487 1_655 S
N278 N344 1.487 1_655 S
N377 N311 1.487 1_545 S
N410 N476 1.487 1_565 S
N509 N443 1.487 1_655 S
