# Generated by pormake.
# Topology umd, (4)-cn, num edge types: 1
# Building blocks:
#     Node 0, Type 0, BuildingBlock: ICAMEG_clean_sbu_1, # of connection points: 4
#     Node 1, Type 0, BuildingBlock: ICAMEG_clean_sbu_1, # of connection points: 4
#     Node 2, Type 0, BuildingBlock: ICAMEG_clean_sbu_1, # of connection points: 4
#     Node 3, Type 0, BuildingBlock: ICAMEG_clean_sbu_1, # of connection points: 4
#     Node 4, Type 0, BuildingBlock: ICAMEG_clean_sbu_1, # of connection points: 4
#     Node 5, Type 0, BuildingBlock: ICAMEG_clean_sbu_1, # of connection points: 4
#     Node 6, Type 0, BuildingBlock: ICAMEG_clean_sbu_1, # of connection points: 4
#     Node 7, Type 0, BuildingBlock: ICAMEG_clean_sbu_1, # of connection points: 4
#     Node 8, Type 0, BuildingBlock: ICAMEG_clean_sbu_1, # of connection points: 4
#     Node 9, Type 0, BuildingBlock: ICAMEG_clean_sbu_1, # of connection points: 4
#     Node 10, Type 0, BuildingBlock: ICAMEG_clean_sbu_1, # of connection points: 4
#     Node 11, Type 0, BuildingBlock: ICAMEG_clean_sbu_1, # of connection points: 4
#     Node 12, Type 0, BuildingBlock: ICAMEG_clean_sbu_1, # of connection points: 4
#     Node 13, Type 0, BuildingBlock: ICAMEG_clean_sbu_1, # of connection points: 4
#     Node 14, Type 0, BuildingBlock: ICAMEG_clean_sbu_1, # of connection points: 4
#     Node 15, Type 0, BuildingBlock: ICAMEG_clean_sbu_1, # of connection points: 4
#     Edge 16, Type (0, 0), BuildingBlock: ZUJKAS_clean_linker_0, # of connection points: 2
#     Edge 17, Type (0, 0), BuildingBlock: ZUJKAS_clean_linker_0, # of connection points: 2
#     Edge 18, Type (0, 0), BuildingBlock: ZUJKAS_clean_linker_0, # of connection points: 2
#     Edge 19, Type (0, 0), BuildingBlock: ZUJKAS_clean_linker_0, # of connection points: 2
#     Edge 20, Type (0, 0), BuildingBlock: ZUJKAS_clean_linker_0, # of connection points: 2
#     Edge 21, Type (0, 0), BuildingBlock: ZUJKAS_clean_linker_0, # of connection points: 2
#     Edge 22, Type (0, 0), BuildingBlock: ZUJKAS_clean_linker_0, # of connection points: 2
#     Edge 23, Type (0, 0), BuildingBlock: ZUJKAS_clean_linker_0, # of connection points: 2
#     Edge 24, Type (0, 0), BuildingBlock: ZUJKAS_clean_linker_0, # of connection points: 2
#     Edge 25, Type (0, 0), BuildingBlock: ZUJKAS_clean_linker_0, # of connection points: 2
#     Edge 26, Type (0, 0), BuildingBlock: ZUJKAS_clean_linker_0, # of connection points: 2
#     Edge 27, Type (0, 0), BuildingBlock: ZUJKAS_clean_linker_0, # of connection points: 2
#     Edge 28, Type (0, 0), BuildingBlock: ZUJKAS_clean_linker_0, # of connection points: 2
#     Edge 29, Type (0, 0), BuildingBlock: ZUJKAS_clean_linker_0, # of connection points: 2
#     Edge 30, Type (0, 0), BuildingBlock: ZUJKAS_clean_linker_0, # of connection points: 2
#     Edge 31, Type (0, 0), BuildingBlock: ZUJKAS_clean_linker_0, # of connection points: 2
#     Edge 32, Type (0, 0), BuildingBlock: ZUJKAS_clean_linker_0, # of connection points: 2
#     Edge 33, Type (0, 0), BuildingBlock: ZUJKAS_clean_linker_0, # of connection points: 2
#     Edge 34, Type (0, 0), BuildingBlock: ZUJKAS_clean_linker_0, # of connection points: 2
#     Edge 35, Type (0, 0), BuildingBlock: ZUJKAS_clean_linker_0, # of connection points: 2
#     Edge 36, Type (0, 0), BuildingBlock: ZUJKAS_clean_linker_0, # of connection points: 2
#     Edge 37, Type (0, 0), BuildingBlock: ZUJKAS_clean_linker_0, # of connection points: 2
#     Edge 38, Type (0, 0), BuildingBlock: ZUJKAS_clean_linker_0, # of connection points: 2
#     Edge 39, Type (0, 0), BuildingBlock: ZUJKAS_clean_linker_0, # of connection points: 2
#     Edge 40, Type (0, 0), BuildingBlock: ZUJKAS_clean_linker_0, # of connection points: 2
#     Edge 41, Type (0, 0), BuildingBlock: ZUJKAS_clean_linker_0, # of connection points: 2
#     Edge 42, Type (0, 0), BuildingBlock: ZUJKAS_clean_linker_0, # of connection points: 2
#     Edge 43, Type (0, 0), BuildingBlock: ZUJKAS_clean_linker_0, # of connection points: 2
#     Edge 44, Type (0, 0), BuildingBlock: ZUJKAS_clean_linker_0, # of connection points: 2
#     Edge 45, Type (0, 0), BuildingBlock: ZUJKAS_clean_linker_0, # of connection points: 2
#     Edge 46, Type (0, 0), BuildingBlock: ZUJKAS_clean_linker_0, # of connection points: 2
#     Edge 47, Type (0, 0), BuildingBlock: ZUJKAS_clean_linker_0, # of connection points: 2
# Relax obj value: 0.054
# Max RMSD: 0.158
# Mean RMSD: 0.158
data_MOF--net-umd--node1-ICAMEG_clean_sbu_1--edge1-ZUJKAS_clean_linker_0
_symmetry_space_group_name_H-M    P1
_symmetry_Int_Tables_number       1
_symmetry_cell_setting            triclinic
loop_
_symmetry_equiv_pos_as_xyz
'x, y, z'
_cell_length_a     53.359451
_cell_length_b     53.367182
_cell_length_c     78.484812
_cell_angle_alpha  89.997027
_cell_angle_beta   90.003584
_cell_angle_gamma 89.98264
loop_
_atom_site_label
_atom_site_type_symbol
_atom_site_fract_x
_atom_site_fract_y
_atom_site_fract_z
_atom_type_partial_charge
Co0 Co 0.18345 0.48339 0.12282 0.0
Co1 Co 0.1685 0.42398 0.13696 0.0
O2 O 0.18528 0.44697 0.12143 0.0
C3 C 0.16502 0.47089 0.08869 0.0
O4 O 0.15062 0.45447 0.09637 0.0
C5 C 0.22184 0.41055 0.13905 0.0
O6 O 0.22627 0.43459 0.14088 0.0
O7 O 0.18101 0.44273 0.15702 0.0
O8 O 0.187 0.48241 0.14822 0.0
H9 H 0.11584 0.40041 0.18754 0.0
H10 H 0.22007 0.45951 0.09948 0.0
O11 O 0.17967 0.48473 0.09742 0.0
H12 H 0.27066 0.50987 0.13937 0.0
H13 H 0.20259 0.57089 0.10278 0.0
H14 H 0.15794 0.51984 0.14546 0.0
H15 H 0.22455 0.50937 0.14155 0.0
H16 H 0.20487 0.52472 0.10189 0.0
O17 O 0.19942 0.40271 0.13737 0.0
H18 H 0.13643 0.42957 0.16757 0.0
H19 H 0.16639 0.36833 0.13966 0.0
H20 H 0.15532 0.56595 0.14693 0.0
H21 H 0.26612 0.45962 0.09677 0.0
H22 H 0.17776 0.59179 0.12547 0.0
H23 H 0.29174 0.48487 0.11685 0.0
O24 O 0.14638 0.48237 0.12517 0.0
H25 H 0.1764 0.38243 0.07976 0.0
H26 H 0.11847 0.40454 0.12636 0.0
H27 H 0.10224 0.38262 0.10098 0.0
H28 H 0.1313 0.37143 0.07746 0.0
H29 H 0.1918 0.4045 0.10531 0.0
H30 H 0.14628 0.33848 0.1594 0.0
H31 H 0.12072 0.35449 0.18351 0.0
O32 O 0.13741 0.44492 0.13687 0.0
C33 C 0.18645 0.46563 0.15982 0.0
C34 C 0.12684 0.3932 0.17704 0.0
C35 C 0.14396 0.35844 0.16126 0.0
N36 N 0.15235 0.40064 0.15237 0.0
C37 C 0.13847 0.40962 0.16566 0.0
C38 C 0.15532 0.37542 0.15014 0.0
C39 C 0.12961 0.36744 0.17478 0.0
C40 C 0.23108 0.47075 0.10815 0.0
N41 N 0.21963 0.48452 0.1206 0.0
C42 C 0.25715 0.47065 0.1066 0.0
C43 C 0.27151 0.48479 0.11789 0.0
C44 C 0.2597 0.49881 0.13054 0.0
C45 C 0.23359 0.49842 0.13173 0.0
C46 C 0.19278 0.55984 0.11222 0.0
C47 C 0.16789 0.53098 0.13616 0.0
C48 C 0.19397 0.5337 0.11177 0.0
N49 N 0.18174 0.51964 0.12371 0.0
C50 C 0.16628 0.55707 0.13702 0.0
C51 C 0.17885 0.57155 0.12496 0.0
C52 C 0.13105 0.46659 0.13151 0.0
C53 C 0.16357 0.38713 0.08995 0.0
C54 C 0.13123 0.39973 0.11617 0.0
C55 C 0.12194 0.38729 0.10185 0.0
C56 C 0.13826 0.381 0.08866 0.0
N57 N 0.15609 0.40567 0.11735 0.0
C58 C 0.17221 0.39953 0.10448 0.0
Co59 Co 0.51447 0.1836 0.62291 0.0
Co60 Co 0.57508 0.16771 0.63412 0.0
O61 O 0.55071 0.18522 0.61998 0.0
C62 C 0.52373 0.16499 0.58832 0.0
O63 O 0.54104 0.15081 0.59526 0.0
C64 C 0.58821 0.22106 0.63727 0.0
O65 O 0.56424 0.22531 0.63968 0.0
O66 O 0.55778 0.17846 0.65536 0.0
O67 O 0.51798 0.18742 0.6481 0.0
H68 H 0.60313 0.11125 0.68168 0.0
H69 H 0.5364 0.21973 0.59836 0.0
O70 O 0.51064 0.17955 0.59763 0.0
H71 H 0.49025 0.27122 0.64004 0.0
H72 H 0.42534 0.20313 0.60667 0.0
H73 H 0.4801 0.15881 0.64735 0.0
H74 H 0.49061 0.22514 0.64247 0.0
H75 H 0.47134 0.20504 0.60371 0.0
O76 O 0.59605 0.19878 0.63487 0.0
H77 H 0.57222 0.13299 0.66356 0.0
H78 H 0.6309 0.16629 0.63487 0.0
H79 H 0.43422 0.15657 0.65088 0.0
H80 H 0.53638 0.26574 0.59538 0.0
H81 H 0.40651 0.17884 0.63044 0.0
H82 H 0.51325 0.29181 0.61636 0.0
O83 O 0.51532 0.14652 0.62554 0.0
H84 H 0.61167 0.18047 0.57578 0.0
H85 H 0.59462 0.11891 0.62117 0.0
H86 H 0.61465 0.10493 0.59449 0.0
H87 H 0.62329 0.13582 0.57156 0.0
H88 H 0.5915 0.19359 0.60261 0.0
H89 H 0.66246 0.14507 0.65276 0.0
H90 H 0.64862 0.11724 0.67632 0.0
O91 O 0.55449 0.13649 0.63365 0.0
C92 C 0.53547 0.18509 0.6591 0.0
C93 C 0.60939 0.12326 0.67141 0.0
C94 C 0.64269 0.14227 0.6552 0.0
N95 N 0.59976 0.15071 0.64809 0.0
C96 C 0.59198 0.13555 0.66108 0.0
C97 C 0.62475 0.15427 0.64513 0.0
C98 C 0.63491 0.12665 0.66841 0.0
C99 C 0.52608 0.23093 0.60744 0.0
N100 N 0.5134 0.21976 0.62051 0.0
C101 C 0.52623 0.25698 0.60573 0.0
C102 C 0.51327 0.2716 0.61752 0.0
C103 C 0.50038 0.26006 0.63081 0.0
C104 C 0.50068 0.23397 0.63214 0.0
C105 C 0.43722 0.19339 0.61568 0.0
C106 C 0.46816 0.16869 0.63848 0.0
C107 C 0.46326 0.19437 0.61404 0.0
N108 N 0.47836 0.18222 0.62543 0.0
C109 C 0.4422 0.16728 0.6405 0.0
C110 C 0.42666 0.17976 0.62902 0.0
C111 C 0.53188 0.13063 0.63012 0.0
C112 C 0.60806 0.16684 0.58569 0.0
C113 C 0.59829 0.13245 0.61125 0.0
C114 C 0.60968 0.12444 0.59618 0.0
C115 C 0.61454 0.14178 0.58332 0.0
N116 N 0.59198 0.15706 0.61347 0.0
C117 C 0.59674 0.17418 0.60094 0.0
Co118 Co 0.81664 0.51584 0.12257 0.0
Co119 Co 0.83261 0.57447 0.13768 0.0
O120 O 0.81548 0.55231 0.12176 0.0
C121 C 0.83543 0.52906 0.08863 0.0
O122 O 0.85011 0.54501 0.09654 0.0
C123 C 0.77952 0.58872 0.14 0.0
O124 O 0.7747 0.5647 0.14143 0.0
O125 O 0.8198 0.55523 0.15747 0.0
O126 O 0.81295 0.51606 0.14796 0.0
H127 H 0.88572 0.59545 0.18858 0.0
H128 H 0.7806 0.54118 0.09953 0.0
O129 O 0.82052 0.51525 0.09716 0.0
H130 H 0.72885 0.49046 0.13851 0.0
H131 H 0.79597 0.42938 0.10119 0.0
H132 H 0.84126 0.47819 0.14476 0.0
H133 H 0.77495 0.49001 0.1408 0.0
H134 H 0.7946 0.4756 0.10096 0.0
O135 O 0.80207 0.59624 0.13843 0.0
H136 H 0.86458 0.56731 0.1682 0.0
H137 H 0.83567 0.62996 0.14124 0.0
H138 H 0.84296 0.432 0.14557 0.0
H139 H 0.73457 0.54203 0.09671 0.0
H140 H 0.8202 0.40729 0.12367 0.0
H141 H 0.70837 0.51661 0.11633 0.0
O142 O 0.85373 0.51608 0.12503 0.0
H143 H 0.82546 0.6181 0.08115 0.0
H144 H 0.88299 0.59337 0.12738 0.0
H145 H 0.8996 0.61584 0.10235 0.0
H146 H 0.87075 0.62835 0.07901 0.0
H147 H 0.80966 0.59545 0.10635 0.0
H148 H 0.85633 0.65881 0.1614 0.0
H149 H 0.88166 0.64156 0.18524 0.0
O150 O 0.86331 0.553 0.13726 0.0
C151 C 0.81387 0.53235 0.15987 0.0
C152 C 0.87483 0.60319 0.17821 0.0
C153 C 0.8583 0.63875 0.16296 0.0
N154 N 0.84916 0.597 0.15345 0.0
C155 C 0.86289 0.58735 0.1666 0.0
C156 C 0.84662 0.62234 0.15161 0.0
C157 C 0.87251 0.62906 0.17633 0.0
C158 C 0.76934 0.52986 0.108 0.0
N159 N 0.78045 0.51546 0.12025 0.0
C160 C 0.74328 0.53051 0.10639 0.0
C161 C 0.72859 0.51627 0.11742 0.0
C162 C 0.74007 0.5016 0.12988 0.0
C163 C 0.76618 0.50146 0.13113 0.0
C164 C 0.80592 0.43994 0.11083 0.0
C165 C 0.83118 0.46755 0.13526 0.0
C166 C 0.80525 0.4661 0.11074 0.0
N167 N 0.81766 0.47954 0.12293 0.0
C168 C 0.83227 0.44141 0.13575 0.0
C169 C 0.81951 0.42756 0.12344 0.0
C170 C 0.86931 0.53138 0.13163 0.0
C171 C 0.8382 0.61282 0.09126 0.0
C172 C 0.87031 0.59876 0.11727 0.0
C173 C 0.87983 0.6115 0.10314 0.0
C174 C 0.86362 0.61853 0.09006 0.0
N175 N 0.84535 0.59323 0.11836 0.0
C176 C 0.82935 0.6001 0.1056 0.0
Co177 Co 0.48257 0.81717 0.6229 0.0
Co178 Co 0.42233 0.83219 0.63567 0.0
O179 O 0.44616 0.81489 0.62093 0.0
C180 C 0.47032 0.83433 0.58845 0.0
O181 O 0.45191 0.8469 0.59547 0.0
C182 C 0.40986 0.77866 0.63905 0.0
O183 O 0.43392 0.77452 0.64108 0.0
O184 O 0.44094 0.82161 0.6564 0.0
O185 O 0.48048 0.81337 0.64816 0.0
H186 H 0.39646 0.88836 0.68393 0.0
H187 H 0.45989 0.78057 0.59903 0.0
O188 O 0.48514 0.82129 0.59757 0.0
H189 H 0.5092 0.73005 0.63958 0.0
H190 H 0.57114 0.79907 0.60459 0.0
H191 H 0.51775 0.84274 0.64642 0.0
H192 H 0.50823 0.77613 0.64192 0.0
H193 H 0.52506 0.79633 0.60274 0.0
O194 O 0.40179 0.80091 0.63693 0.0
H195 H 0.42651 0.86695 0.66498 0.0
H196 H 0.36656 0.83294 0.63793 0.0
H197 H 0.56375 0.84582 0.64883 0.0
H198 H 0.46047 0.73455 0.59615 0.0
H199 H 0.59077 0.82388 0.62781 0.0
H200 H 0.4852 0.70897 0.61656 0.0
O201 O 0.4812 0.85421 0.62537 0.0
H202 H 0.38153 0.81869 0.57869 0.0
H203 H 0.40155 0.88076 0.62319 0.0
H204 H 0.37928 0.89433 0.59725 0.0
H205 H 0.36909 0.86317 0.57478 0.0
H206 H 0.40405 0.80599 0.60474 0.0
H207 H 0.33585 0.85382 0.65666 0.0
H208 H 0.35076 0.88184 0.67982 0.0
O209 O 0.44247 0.86371 0.63461 0.0
C210 C 0.46353 0.81529 0.65956 0.0
C211 C 0.38973 0.87627 0.67385 0.0
C212 C 0.35571 0.85685 0.65856 0.0
N213 N 0.39828 0.84891 0.65028 0.0
C214 C 0.40665 0.86416 0.66305 0.0
C215 C 0.37318 0.84505 0.64802 0.0
C216 C 0.36409 0.87258 0.67154 0.0
C217 C 0.4709 0.76958 0.60785 0.0
N218 N 0.48414 0.78103 0.62055 0.0
C219 C 0.47107 0.74353 0.6062 0.0
C220 C 0.48492 0.72918 0.61767 0.0
C221 C 0.49838 0.74099 0.6306 0.0
C222 C 0.49773 0.76709 0.63187 0.0
C223 C 0.55957 0.80867 0.61385 0.0
C224 C 0.5294 0.83301 0.63729 0.0
C225 C 0.53348 0.80723 0.61284 0.0
N226 N 0.51876 0.8192 0.62455 0.0
C227 C 0.55542 0.83488 0.63869 0.0
C228 C 0.57057 0.82259 0.62688 0.0
C229 C 0.46471 0.86987 0.63036 0.0
C230 C 0.3858 0.83243 0.58841 0.0
C231 C 0.39729 0.86711 0.61344 0.0
C232 C 0.3846 0.87489 0.5988 0.0
C233 C 0.37886 0.8574 0.58621 0.0
N234 N 0.40404 0.84259 0.6155 0.0
C235 C 0.39845 0.82532 0.60322 0.0
Co236 Co 0.18352 0.51564 0.37188 0.0
Co237 Co 0.16761 0.57565 0.35939 0.0
O238 O 0.18474 0.55196 0.37425 0.0
C239 C 0.16381 0.526 0.40599 0.0
O240 O 0.1494 0.54259 0.39848 0.0
C241 C 0.22083 0.5895 0.35727 0.0
O242 O 0.22548 0.56556 0.35507 0.0
O243 O 0.1798 0.55796 0.33871 0.0
O244 O 0.18794 0.51826 0.34666 0.0
H245 H 0.11346 0.60152 0.31005 0.0
H246 H 0.21886 0.53876 0.39646 0.0
O247 O 0.17888 0.51276 0.39716 0.0
H248 H 0.27177 0.49158 0.35614 0.0
H249 H 0.20346 0.42734 0.38986 0.0
H250 H 0.15965 0.48015 0.34776 0.0
H251 H 0.22574 0.49146 0.35319 0.0
H252 H 0.20485 0.47345 0.39206 0.0
O253 O 0.19836 0.59708 0.35918 0.0
H254 H 0.1347 0.57145 0.32907 0.0
H255 H 0.16525 0.63138 0.35797 0.0
H256 H 0.15794 0.43413 0.34498 0.0
H257 H 0.2648 0.53924 0.39996 0.0
H258 H 0.17996 0.40741 0.36614 0.0
H259 H 0.29158 0.51559 0.37967 0.0
O260 O 0.1465 0.51608 0.36885 0.0
H261 H 0.17643 0.61395 0.41756 0.0
H262 H 0.11772 0.59439 0.37089 0.0
H263 H 0.10189 0.61474 0.39697 0.0
H264 H 0.13133 0.62463 0.42054 0.0
H265 H 0.19144 0.59347 0.3913 0.0
H266 H 0.14451 0.66212 0.33918 0.0
H267 H 0.11831 0.64722 0.31506 0.0
O268 O 0.13672 0.55457 0.3593 0.0
C269 C 0.18637 0.53548 0.33541 0.0
C270 C 0.12475 0.60824 0.32055 0.0
C271 C 0.14221 0.64226 0.33689 0.0
N272 N 0.151 0.59966 0.34469 0.0
C273 C 0.13676 0.59131 0.33139 0.0
C274 C 0.15394 0.62477 0.34746 0.0
C275 C 0.12751 0.63388 0.32336 0.0
C276 C 0.23038 0.52821 0.38769 0.0
N277 N 0.21963 0.51498 0.3747 0.0
C278 C 0.25638 0.52864 0.38969 0.0
C279 C 0.2714 0.5154 0.37828 0.0
C280 C 0.2603 0.50194 0.36507 0.0
C281 C 0.23423 0.50197 0.36345 0.0
C282 C 0.19383 0.43878 0.38055 0.0
C283 C 0.16941 0.46864 0.35695 0.0
C284 C 0.19451 0.46489 0.38175 0.0
N285 N 0.18252 0.47944 0.36997 0.0
C286 C 0.16831 0.4426 0.35534 0.0
C287 C 0.18065 0.42761 0.36723 0.0
C288 C 0.13078 0.53222 0.3634 0.0
C289 C 0.16343 0.60981 0.40735 0.0
C290 C 0.13065 0.59866 0.38108 0.0
C291 C 0.12158 0.61021 0.39581 0.0
C292 C 0.13812 0.61576 0.40903 0.0
N293 N 0.15551 0.59288 0.37954 0.0
C294 C 0.17184 0.59832 0.39242 0.0
Co295 Co 0.48365 0.18201 0.8722 0.0
Co296 Co 0.42446 0.1674 0.85752 0.0
O297 O 0.44722 0.1838 0.87337 0.0
C298 C 0.47069 0.16309 0.90616 0.0
O299 O 0.4544 0.14873 0.8983 0.0
C300 C 0.41088 0.22071 0.85605 0.0
O301 O 0.4349 0.22527 0.85421 0.0
O302 O 0.44342 0.18048 0.8377 0.0
O303 O 0.48303 0.18596 0.84681 0.0
H304 H 0.40153 0.11614 0.80614 0.0
H305 H 0.45941 0.21824 0.89565 0.0
O306 O 0.48464 0.17783 0.89759 0.0
H307 H 0.51031 0.26948 0.85646 0.0
H308 H 0.57087 0.20083 0.89294 0.0
H309 H 0.52042 0.15689 0.8496 0.0
H310 H 0.50987 0.22341 0.85394 0.0
H311 H 0.52469 0.2031 0.89355 0.0
O312 O 0.40311 0.19823 0.85744 0.0
H313 H 0.43044 0.13626 0.82649 0.0
H314 H 0.36884 0.16518 0.85454 0.0
H315 H 0.56656 0.1543 0.84841 0.0
H316 H 0.45945 0.26424 0.8987 0.0
H317 H 0.5921 0.17638 0.8702 0.0
H318 H 0.48497 0.29018 0.87897 0.0
O319 O 0.48267 0.14499 0.86955 0.0
H320 H 0.38222 0.17357 0.91459 0.0
H321 H 0.40508 0.11702 0.86738 0.0
H322 H 0.38291 0.10003 0.89241 0.0
H323 H 0.37133 0.12839 0.91624 0.0
H324 H 0.40455 0.18974 0.88937 0.0
H325 H 0.33923 0.14554 0.83442 0.0
H326 H 0.35555 0.12073 0.81005 0.0
O327 O 0.44551 0.13641 0.85728 0.0
C328 C 0.46641 0.18576 0.83509 0.0
C329 C 0.39418 0.12681 0.81675 0.0
C330 C 0.35922 0.14334 0.83261 0.0
N331 N 0.40132 0.15162 0.84179 0.0
C332 C 0.41046 0.13816 0.82835 0.0
C333 C 0.37606 0.15444 0.84395 0.0
C334 C 0.36839 0.12942 0.81894 0.0
C335 C 0.47077 0.22938 0.88713 0.0
N336 N 0.48473 0.21815 0.8747 0.0
C337 C 0.47063 0.25543 0.88887 0.0
C338 C 0.48492 0.26998 0.87778 0.0
C339 C 0.49913 0.25837 0.86514 0.0
C340 C 0.49878 0.23228 0.86376 0.0
C341 C 0.55995 0.19118 0.88335 0.0
C342 C 0.53143 0.16669 0.85905 0.0
C343 C 0.53381 0.19235 0.88365 0.0
N344 N 0.51992 0.18032 0.87153 0.0
C345 C 0.55753 0.16509 0.85834 0.0
C346 C 0.57185 0.17746 0.87059 0.0
C347 C 0.46705 0.12988 0.86278 0.0
C348 C 0.38709 0.16104 0.90426 0.0
C349 C 0.40011 0.12948 0.8777 0.0
C350 C 0.38752 0.11975 0.89183 0.0
C351 C 0.38102 0.13568 0.90519 0.0
N352 N 0.40598 0.15438 0.87687 0.0
C353 C 0.39963 0.17011 0.88991 0.0
Co354 Co 0.81701 0.48486 0.37163 0.0
Co355 Co 0.83235 0.42419 0.36031 0.0
O356 O 0.81532 0.44863 0.37465 0.0
C357 C 0.83614 0.47564 0.40608 0.0
O358 O 0.85035 0.45847 0.39901 0.0
C359 C 0.77898 0.41095 0.358 0.0
O360 O 0.77468 0.43488 0.35549 0.0
O361 O 0.82064 0.44124 0.33928 0.0
O362 O 0.81291 0.48135 0.3464 0.0
H363 H 0.88674 0.39591 0.31172 0.0
H364 H 0.78105 0.46317 0.3964 0.0
O365 O 0.82136 0.48868 0.3969 0.0
H366 H 0.7293 0.50938 0.35488 0.0
H367 H 0.79792 0.57405 0.38791 0.0
H368 H 0.84179 0.51912 0.34711 0.0
H369 H 0.77536 0.50879 0.35222 0.0
H370 H 0.79587 0.52806 0.39089 0.0
O371 O 0.80132 0.40314 0.36023 0.0
H372 H 0.86569 0.4269 0.33015 0.0
H373 H 0.83401 0.36838 0.35982 0.0
H374 H 0.84417 0.56499 0.34356 0.0
H375 H 0.73507 0.46343 0.39961 0.0
H376 H 0.82212 0.59278 0.36406 0.0
H377 H 0.70887 0.48659 0.37872 0.0
O378 O 0.85405 0.48383 0.36886 0.0
H379 H 0.82224 0.38785 0.41897 0.0
H380 H 0.88184 0.40526 0.37243 0.0
H381 H 0.89705 0.38549 0.39889 0.0
H382 H 0.86715 0.37667 0.4224 0.0
H383 H 0.80786 0.40775 0.39233 0.0
H384 H 0.85456 0.33674 0.34164 0.0
H385 H 0.88122 0.35046 0.31743 0.0
O386 O 0.86352 0.44487 0.36007 0.0
C387 C 0.8144 0.46364 0.33551 0.0
C388 C 0.87525 0.3897 0.32227 0.0
C389 C 0.85716 0.35648 0.33905 0.0
N390 N 0.84884 0.39945 0.34612 0.0
C391 C 0.86335 0.40716 0.33277 0.0
C392 C 0.84554 0.37448 0.34927 0.0
C393 C 0.87212 0.3642 0.32547 0.0
C394 C 0.76979 0.4735 0.38736 0.0
N395 N 0.78088 0.48607 0.37419 0.0
C396 C 0.74376 0.47349 0.3892 0.0
C397 C 0.72907 0.48646 0.37746 0.0
C398 C 0.74052 0.49924 0.36407 0.0
C399 C 0.7666 0.49881 0.36261 0.0
C400 C 0.80755 0.56213 0.37887 0.0
C401 C 0.83201 0.5311 0.35601 0.0
C402 C 0.8065 0.53609 0.38051 0.0
N403 N 0.81851 0.52095 0.36909 0.0
C404 C 0.83349 0.55705 0.35397 0.0
C405 C 0.82113 0.57263 0.36549 0.0
C406 C 0.86965 0.46731 0.3638 0.0
C407 C 0.83543 0.39153 0.4088 0.0
C408 C 0.86872 0.40148 0.3826 0.0
C409 C 0.87743 0.39025 0.39755 0.0
C410 C 0.86064 0.3853 0.41072 0.0
N411 N 0.84396 0.40753 0.38081 0.0
C412 C 0.82738 0.40269 0.39366 0.0
Co413 Co 0.51421 0.81601 0.87192 0.0
Co414 Co 0.57387 0.83145 0.85851 0.0
O415 O 0.5506 0.81468 0.87384 0.0
C416 C 0.52545 0.83534 0.90599 0.0
O417 O 0.54176 0.84991 0.89835 0.0
C418 C 0.58818 0.77832 0.85705 0.0
O419 O 0.56425 0.77345 0.85503 0.0
O420 O 0.55593 0.81829 0.83828 0.0
O421 O 0.51606 0.81197 0.84658 0.0
H422 H 0.59841 0.88332 0.80776 0.0
H423 H 0.53781 0.78021 0.89597 0.0
O424 O 0.51206 0.8203 0.89725 0.0
H425 H 0.4894 0.72813 0.85585 0.0
H426 H 0.42635 0.7961 0.89087 0.0
H427 H 0.47814 0.84052 0.84849 0.0
H428 H 0.4894 0.77419 0.85321 0.0
H429 H 0.47252 0.79449 0.89246 0.0
O430 O 0.59559 0.80089 0.85869 0.0
H431 H 0.56886 0.86269 0.82745 0.0
H432 H 0.62956 0.83442 0.8567 0.0
H433 H 0.43205 0.84247 0.84632 0.0
H434 H 0.53818 0.73423 0.89916 0.0
H435 H 0.40584 0.82014 0.86762 0.0
H436 H 0.51391 0.70787 0.87896 0.0
O437 O 0.51478 0.85304 0.86918 0.0
H438 H 0.61351 0.82528 0.91643 0.0
H439 H 0.59221 0.88197 0.86895 0.0
H440 H 0.61296 0.89901 0.89454 0.0
H441 H 0.62373 0.87058 0.91851 0.0
H442 H 0.59261 0.80906 0.89066 0.0
H443 H 0.6598 0.85458 0.83726 0.0
H444 H 0.64424 0.87932 0.81262 0.0
O445 O 0.55249 0.86219 0.85795 0.0
C446 C 0.53318 0.81255 0.83521 0.0
C447 C 0.60542 0.87268 0.81849 0.0
C448 C 0.63987 0.85652 0.83504 0.0
N449 N 0.59749 0.84763 0.84331 0.0
C450 C 0.58878 0.86104 0.82972 0.0
C451 C 0.62267 0.84513 0.84599 0.0
C452 C 0.63113 0.87041 0.82122 0.0
C453 C 0.527 0.76888 0.88724 0.0
N454 N 0.51349 0.77987 0.87448 0.0
C455 C 0.52737 0.74285 0.88906 0.0
C456 C 0.51378 0.72806 0.87771 0.0
C457 C 0.50003 0.73942 0.86474 0.0
C458 C 0.50014 0.7655 0.86329 0.0
C459 C 0.43757 0.80586 0.88149 0.0
C460 C 0.46684 0.83062 0.85773 0.0
C461 C 0.4637 0.80505 0.88234 0.0
N462 N 0.47797 0.81721 0.87048 0.0
C463 C 0.44076 0.83186 0.85647 0.0
C464 C 0.42607 0.81934 0.86844 0.0
C465 C 0.53055 0.86839 0.86285 0.0
C466 C 0.60898 0.83784 0.90605 0.0
C467 C 0.59685 0.86948 0.87933 0.0
C468 C 0.60863 0.87923 0.89377 0.0
C469 C 0.61468 0.86327 0.90721 0.0
N470 N 0.59133 0.84452 0.87828 0.0
C471 C 0.59726 0.82874 0.89139 0.0
Co472 Co 0.81694 0.51661 0.87179 0.0
Co473 Co 0.8326 0.57537 0.85679 0.0
O474 O 0.81575 0.55306 0.87274 0.0
C475 C 0.83606 0.5296 0.90568 0.0
O476 O 0.85077 0.5455 0.89777 0.0
C477 C 0.77949 0.58958 0.85494 0.0
O478 O 0.77467 0.56557 0.85342 0.0
O479 O 0.81947 0.5563 0.83701 0.0
O480 O 0.81296 0.51702 0.84642 0.0
H481 H 0.88477 0.59689 0.80555 0.0
H482 H 0.78113 0.54174 0.8951 0.0
O483 O 0.82107 0.51584 0.89717 0.0
H484 H 0.729 0.49125 0.85621 0.0
H485 H 0.79663 0.42996 0.89297 0.0
H486 H 0.84134 0.47917 0.84933 0.0
H487 H 0.77507 0.49086 0.85369 0.0
H488 H 0.79519 0.47617 0.89337 0.0
O489 O 0.80205 0.59712 0.85638 0.0
H490 H 0.86399 0.56853 0.82596 0.0
H491 H 0.83561 0.63089 0.85348 0.0
H492 H 0.84311 0.43299 0.84836 0.0
H493 H 0.73513 0.54253 0.89815 0.0
H494 H 0.82063 0.40807 0.87029 0.0
H495 H 0.70874 0.51722 0.87858 0.0
O496 O 0.854 0.51691 0.86912 0.0
H497 H 0.82638 0.61838 0.91358 0.0
H498 H 0.88314 0.59419 0.86679 0.0
H499 H 0.90016 0.6164 0.8918 0.0
H500 H 0.8717 0.62864 0.91543 0.0
H501 H 0.81017 0.59601 0.88839 0.0
H502 H 0.85591 0.65995 0.83329 0.0
H503 H 0.88079 0.64297 0.80916 0.0
O504 O 0.86329 0.5539 0.85685 0.0
C505 C 0.81363 0.53341 0.83457 0.0
C506 C 0.87407 0.60452 0.81605 0.0
C507 C 0.85785 0.63992 0.83161 0.0
N508 N 0.84886 0.59806 0.84099 0.0
C509 C 0.86235 0.58856 0.82768 0.0
C510 C 0.84637 0.62338 0.84298 0.0
C511 C 0.87181 0.63037 0.81808 0.0
C512 C 0.76978 0.53047 0.88665 0.0
N513 N 0.78078 0.51617 0.8743 0.0
C514 C 0.74374 0.53108 0.88839 0.0
C515 C 0.72894 0.5169 0.87739 0.0
C516 C 0.7403 0.50234 0.86483 0.0
C517 C 0.76639 0.50223 0.86344 0.0
C518 C 0.80645 0.4406 0.88332 0.0
C519 C 0.83139 0.46844 0.85885 0.0
C520 C 0.80575 0.46677 0.8835 0.0
N521 N 0.818 0.48031 0.8713 0.0
C522 C 0.83252 0.44231 0.85827 0.0
C523 C 0.81992 0.42834 0.87059 0.0
C524 C 0.86941 0.53226 0.86238 0.0
C525 C 0.83896 0.61322 0.90335 0.0
C526 C 0.87063 0.59946 0.87702 0.0
C527 C 0.88038 0.61206 0.89114 0.0
C528 C 0.86439 0.61894 0.90438 0.0
N529 N 0.84566 0.59393 0.87609 0.0
C530 C 0.82986 0.60066 0.88901 0.0
Co531 Co 0.48535 0.81569 0.37142 0.0
Co532 Co 0.42511 0.83253 0.36012 0.0
O533 O 0.44916 0.81508 0.37448 0.0
C534 C 0.47805 0.83642 0.40574 0.0
O535 O 0.46314 0.85295 0.39866 0.0
C536 C 0.41081 0.77946 0.3578 0.0
O537 O 0.43466 0.77471 0.35529 0.0
O538 O 0.44196 0.82052 0.33906 0.0
O539 O 0.4818 0.81154 0.34624 0.0
H540 H 0.39799 0.88768 0.31162 0.0
H541 H 0.46238 0.78048 0.39618 0.0
O542 O 0.48904 0.8199 0.3967 0.0
H543 H 0.50754 0.72724 0.35502 0.0
H544 H 0.57392 0.79419 0.38792 0.0
H545 H 0.52041 0.83926 0.34685 0.0
H546 H 0.50826 0.77327 0.35222 0.0
H547 H 0.52787 0.7935 0.39082 0.0
O548 O 0.40343 0.80194 0.36002 0.0
H549 H 0.42854 0.86597 0.33004 0.0
H550 H 0.36934 0.83523 0.35955 0.0
H551 H 0.56634 0.8403 0.34338 0.0
H552 H 0.46136 0.73455 0.39953 0.0
H553 H 0.59343 0.81764 0.36401 0.0
H554 H 0.48398 0.70759 0.37882 0.0
O555 O 0.48539 0.85276 0.36834 0.0
H556 H 0.38897 0.82304 0.41888 0.0
H557 H 0.40674 0.88226 0.37219 0.0
H558 H 0.38725 0.89778 0.39866 0.0
H559 H 0.37823 0.86806 0.42224 0.0
H560 H 0.40858 0.80837 0.39222 0.0
H561 H 0.33813 0.85644 0.34137 0.0
H562 H 0.35242 0.88296 0.31724 0.0
O563 O 0.44645 0.86321 0.35994 0.0
C564 C 0.46419 0.81361 0.33532 0.0
C565 C 0.39153 0.87624 0.32213 0.0
C566 C 0.35794 0.85868 0.33881 0.0
N567 N 0.40072 0.84954 0.34593 0.0
C568 C 0.40874 0.86397 0.33263 0.0
C569 C 0.37568 0.84668 0.34904 0.0
C570 C 0.36597 0.87357 0.32528 0.0
C571 C 0.47252 0.7689 0.38723 0.0
N572 N 0.48552 0.77956 0.3741 0.0
C573 C 0.47176 0.74289 0.38914 0.0
C574 C 0.48443 0.72778 0.3775 0.0
C575 C 0.49764 0.73879 0.36414 0.0
C576 C 0.49795 0.76486 0.36261 0.0
C577 C 0.56232 0.80409 0.37882 0.0
C578 C 0.53207 0.82922 0.35581 0.0
C579 C 0.53625 0.8038 0.38042 0.0
N580 N 0.52149 0.81614 0.36893 0.0
C581 C 0.55807 0.82994 0.35381 0.0
C582 C 0.57325 0.81725 0.3654 0.0
C583 C 0.46915 0.86877 0.3634 0.0
C584 C 0.39274 0.83616 0.40868 0.0
C585 C 0.4029 0.86923 0.3824 0.0
C586 C 0.39182 0.87811 0.39735 0.0
C587 C 0.38676 0.86143 0.41057 0.0
N588 N 0.4087 0.84442 0.38064 0.0
C589 C 0.40377 0.82794 0.39354 0.0
Co590 Co 0.18302 0.48418 0.87186 0.0
Co591 Co 0.16815 0.42469 0.85786 0.0
O592 O 0.1847 0.44778 0.87343 0.0
C593 C 0.16402 0.47196 0.90588 0.0
O594 O 0.1495 0.45573 0.89812 0.0
C595 C 0.22144 0.41102 0.85636 0.0
O596 O 0.226 0.43501 0.85443 0.0
O597 O 0.18119 0.44317 0.83783 0.0
O598 O 0.18697 0.48296 0.84649 0.0
H599 H 0.1166 0.40077 0.80683 0.0
H600 H 0.21919 0.46036 0.89557 0.0
O601 O 0.17886 0.4857 0.89723 0.0
H602 H 0.27058 0.51021 0.85586 0.0
H603 H 0.20213 0.57177 0.89171 0.0
H604 H 0.15801 0.52052 0.84888 0.0
H605 H 0.2245 0.50985 0.85334 0.0
H606 H 0.20424 0.5256 0.89279 0.0
O607 O 0.19896 0.40329 0.85789 0.0
H608 H 0.13686 0.43008 0.82686 0.0
H609 H 0.16579 0.36902 0.85546 0.0
H610 H 0.15557 0.56663 0.84722 0.0
H611 H 0.26519 0.46034 0.89863 0.0
H612 H 0.17775 0.59257 0.86875 0.0
H613 H 0.29121 0.48533 0.87864 0.0
O614 O 0.14598 0.48328 0.86921 0.0
H615 H 0.17457 0.38389 0.9154 0.0
H616 H 0.1178 0.40561 0.86805 0.0
H617 H 0.1009 0.38412 0.8934 0.0
H618 H 0.12938 0.37313 0.9173 0.0
H619 H 0.19065 0.40551 0.88986 0.0
H620 H 0.146 0.33903 0.83567 0.0
H621 H 0.12111 0.35489 0.81119 0.0
O622 O 0.13719 0.44579 0.8575 0.0
C623 C 0.18666 0.46604 0.83497 0.0
C624 C 0.1273 0.39363 0.81749 0.0
C625 C 0.14383 0.35898 0.83367 0.0
N626 N 0.15223 0.40125 0.84241 0.0
C627 C 0.13873 0.41013 0.82891 0.0
C628 C 0.15501 0.37604 0.84482 0.0
C629 C 0.12986 0.36789 0.81994 0.0
C630 C 0.23037 0.47149 0.88694 0.0
N631 N 0.21917 0.4852 0.87435 0.0
C632 C 0.25641 0.47132 0.88868 0.0
C633 C 0.27101 0.48531 0.87745 0.0
C634 C 0.25944 0.49926 0.86466 0.0
C635 C 0.23335 0.49895 0.86327 0.0
C636 C 0.19244 0.56067 0.88223 0.0
C637 C 0.16785 0.5317 0.85822 0.0
C638 C 0.19353 0.53454 0.8828 0.0
N639 N 0.18145 0.52043 0.87082 0.0
C640 C 0.16633 0.55779 0.85725 0.0
C641 C 0.17876 0.57233 0.86935 0.0
C642 C 0.13078 0.46752 0.8627 0.0
C643 C 0.162 0.3885 0.90504 0.0
C644 C 0.13031 0.40087 0.8784 0.0
C645 C 0.12064 0.38868 0.89271 0.0
C646 C 0.13663 0.38251 0.90611 0.0
N647 N 0.15522 0.40668 0.87744 0.0
C648 C 0.17102 0.40064 0.89052 0.0
Co649 Co 0.51517 0.18243 0.37162 0.0
Co650 Co 0.57636 0.16789 0.36108 0.0
O651 O 0.55129 0.18474 0.37501 0.0
C652 C 0.52386 0.16358 0.40622 0.0
O653 O 0.54147 0.14966 0.39938 0.0
C654 C 0.58887 0.22146 0.35843 0.0
O655 O 0.56494 0.2255 0.3557 0.0
O656 O 0.5595 0.17878 0.33972 0.0
O657 O 0.51925 0.18654 0.34648 0.0
H658 H 0.60666 0.11277 0.31344 0.0
H659 H 0.53572 0.21876 0.39658 0.0
O660 O 0.51079 0.17807 0.39684 0.0
H661 H 0.48968 0.2697 0.35452 0.0
H662 H 0.42528 0.20012 0.38687 0.0
H663 H 0.48191 0.15717 0.34669 0.0
H664 H 0.49103 0.22366 0.35191 0.0
H665 H 0.47116 0.20287 0.39038 0.0
O666 O 0.59686 0.19925 0.36086 0.0
H667 H 0.5749 0.13372 0.3313 0.0
H668 H 0.63222 0.1673 0.3611 0.0
H669 H 0.43617 0.15408 0.34261 0.0
H670 H 0.53468 0.26474 0.39974 0.0
H671 H 0.40752 0.17566 0.36279 0.0
H672 H 0.5116 0.29053 0.37857 0.0
O673 O 0.51681 0.14538 0.36885 0.0
H674 H 0.61097 0.18014 0.42003 0.0
H675 H 0.59634 0.11917 0.37389 0.0
H676 H 0.61577 0.10502 0.40073 0.0
H677 H 0.62319 0.13562 0.42404 0.0
H678 H 0.59141 0.19344 0.39302 0.0
H679 H 0.66461 0.14687 0.34348 0.0
H680 H 0.65189 0.1193 0.3195 0.0
O681 O 0.55632 0.13635 0.36101 0.0
C682 C 0.53713 0.1849 0.33572 0.0
C683 C 0.61244 0.12467 0.32389 0.0
C684 C 0.64497 0.14384 0.34074 0.0
N685 N 0.60171 0.15153 0.34731 0.0
C686 C 0.59454 0.13652 0.33408 0.0
C687 C 0.62655 0.15539 0.35065 0.0
C688 C 0.63781 0.12836 0.32729 0.0
C689 C 0.52542 0.22984 0.38742 0.0
N690 N 0.51333 0.21853 0.37414 0.0
C691 C 0.52499 0.25587 0.38923 0.0
C692 C 0.51207 0.27034 0.37734 0.0
C693 C 0.49978 0.25866 0.36383 0.0
C694 C 0.50064 0.23259 0.36241 0.0
C695 C 0.43757 0.19067 0.37797 0.0
C696 C 0.46956 0.16674 0.35546 0.0
C697 C 0.46355 0.19212 0.37992 0.0
N698 N 0.47916 0.18036 0.36867 0.0
C699 C 0.44368 0.16486 0.35312 0.0
C700 C 0.42762 0.17696 0.36446 0.0
C701 C 0.5338 0.12994 0.36429 0.0
C702 C 0.60789 0.16664 0.40995 0.0
C703 C 0.59948 0.13258 0.38397 0.0
C704 C 0.61053 0.12447 0.39913 0.0
C705 C 0.61471 0.14165 0.4122 0.0
N706 N 0.59283 0.15712 0.38187 0.0
C707 C 0.59692 0.17409 0.39461 0.0
Co708 Co 0.8164 0.48459 0.62286 0.0
Co709 Co 0.83161 0.424 0.63446 0.0
O710 O 0.81457 0.44833 0.62003 0.0
C711 C 0.83514 0.47497 0.58836 0.0
O712 O 0.84934 0.45778 0.59542 0.0
C713 C 0.77822 0.41077 0.63688 0.0
O714 O 0.77388 0.43473 0.63921 0.0
O715 O 0.81996 0.44127 0.65542 0.0
O716 O 0.8125 0.48137 0.64812 0.0
H717 H 0.88608 0.39616 0.68314 0.0
H718 H 0.78015 0.46277 0.59835 0.0
O719 O 0.82053 0.48815 0.59757 0.0
H720 H 0.72892 0.50962 0.63983 0.0
H721 H 0.79748 0.57368 0.60622 0.0
H722 H 0.84154 0.51902 0.6471 0.0
H723 H 0.775 0.50887 0.64232 0.0
H724 H 0.79521 0.52767 0.60349 0.0
O725 O 0.80056 0.40296 0.63469 0.0
H726 H 0.86503 0.42699 0.66458 0.0
H727 H 0.83323 0.36819 0.63522 0.0
H728 H 0.84415 0.56492 0.6504 0.0
H729 H 0.73414 0.46318 0.5953 0.0
H730 H 0.822 0.59257 0.62986 0.0
H731 H 0.7082 0.48666 0.61617 0.0
O732 O 0.85346 0.48347 0.62548 0.0
H733 H 0.82127 0.38708 0.576 0.0
H734 H 0.88104 0.40487 0.62237 0.0
H735 H 0.89613 0.38479 0.59599 0.0
H736 H 0.86614 0.37578 0.57257 0.0
H737 H 0.80701 0.40728 0.60256 0.0
H738 H 0.85377 0.33672 0.65354 0.0
H739 H 0.88049 0.35066 0.67766 0.0
O740 O 0.86282 0.44464 0.63457 0.0
C741 C 0.81388 0.46375 0.65909 0.0
C742 C 0.87455 0.38986 0.67263 0.0
C743 C 0.85639 0.35649 0.65603 0.0
N744 N 0.84812 0.39939 0.64875 0.0
C745 C 0.86266 0.40722 0.66205 0.0
C746 C 0.84478 0.37439 0.64572 0.0
C747 C 0.87139 0.36433 0.66956 0.0
C748 C 0.769 0.47324 0.60738 0.0
N749 N 0.78025 0.4859 0.62044 0.0
C750 C 0.74296 0.47332 0.60563 0.0
C751 C 0.72841 0.48647 0.61736 0.0
C752 C 0.74002 0.49934 0.63064 0.0
C753 C 0.76612 0.49881 0.63201 0.0
C754 C 0.80716 0.56183 0.61528 0.0
C755 C 0.83171 0.53094 0.63819 0.0
C756 C 0.80598 0.53578 0.61378 0.0
N757 N 0.81804 0.52071 0.62522 0.0
C758 C 0.83332 0.55691 0.64008 0.0
C759 C 0.82092 0.57242 0.62854 0.0
C760 C 0.86903 0.46699 0.63064 0.0
C761 C 0.8345 0.39084 0.58613 0.0
C762 C 0.86788 0.401 0.61224 0.0
C763 C 0.87653 0.3896 0.59734 0.0
C764 C 0.85969 0.38454 0.58421 0.0
N765 N 0.84314 0.40712 0.61403 0.0
C766 C 0.82651 0.40217 0.60123 0.0
Co767 Co 0.51463 0.81458 0.12267 0.0
Co768 Co 0.57389 0.83067 0.13663 0.0
O769 O 0.55108 0.81344 0.1212 0.0
C770 C 0.52661 0.83396 0.08871 0.0
O771 O 0.54287 0.84845 0.09646 0.0
C772 C 0.58809 0.77752 0.13905 0.0
O773 O 0.5641 0.77265 0.14073 0.0
O774 O 0.55521 0.81831 0.15686 0.0
O775 O 0.51591 0.81043 0.14795 0.0
H776 H 0.59683 0.88486 0.18659 0.0
H777 H 0.53913 0.77906 0.09884 0.0
O778 O 0.51303 0.81896 0.09734 0.0
H779 H 0.49003 0.72645 0.13825 0.0
H780 H 0.42737 0.7942 0.10269 0.0
H781 H 0.47783 0.83871 0.14576 0.0
H782 H 0.48961 0.7725 0.14098 0.0
H783 H 0.47357 0.79288 0.10162 0.0
O784 O 0.59553 0.80006 0.13731 0.0
H785 H 0.56791 0.86348 0.16684 0.0
H786 H 0.62952 0.83335 0.13939 0.0
H787 H 0.43169 0.84037 0.1474 0.0
H788 H 0.53993 0.7331 0.09558 0.0
H789 H 0.40614 0.818 0.12575 0.0
H790 H 0.51532 0.70647 0.11541 0.0
O791 O 0.51482 0.85163 0.12554 0.0
H792 H 0.61531 0.82219 0.07942 0.0
H793 H 0.59294 0.88068 0.12563 0.0
H794 H 0.61459 0.89667 0.10009 0.0
H795 H 0.62591 0.86733 0.07675 0.0
H796 H 0.59351 0.80702 0.10514 0.0
H797 H 0.65913 0.85425 0.15891 0.0
H798 H 0.64281 0.88031 0.18267 0.0
O799 O 0.55264 0.86145 0.13623 0.0
C800 C 0.53253 0.81189 0.15961 0.0
C801 C 0.60417 0.87363 0.17625 0.0
C802 C 0.63914 0.85642 0.16073 0.0
N803 N 0.59703 0.84738 0.1519 0.0
C804 C 0.58789 0.86154 0.165 0.0
C805 C 0.62229 0.8446 0.14973 0.0
C806 C 0.62997 0.87105 0.17405 0.0
C807 C 0.52816 0.76761 0.10741 0.0
N808 N 0.51423 0.77845 0.12002 0.0
C809 C 0.52878 0.74159 0.10555 0.0
C810 C 0.515 0.72666 0.1167 0.0
C811 C 0.50081 0.73786 0.12952 0.0
C812 C 0.50068 0.76394 0.13102 0.0
C813 C 0.43829 0.80398 0.11221 0.0
C814 C 0.46683 0.8288 0.13636 0.0
C815 C 0.46445 0.80334 0.11165 0.0
N816 N 0.47835 0.81553 0.1237 0.0
C817 C 0.44072 0.82987 0.13732 0.0
C818 C 0.4264 0.81733 0.12516 0.0
C819 C 0.53056 0.86737 0.13147 0.0
C820 C 0.61055 0.83514 0.08953 0.0
C821 C 0.59781 0.86779 0.11554 0.0
C822 C 0.6101 0.87695 0.10111 0.0
C823 C 0.61646 0.86048 0.08803 0.0
N824 N 0.59208 0.84291 0.11691 0.0
C825 C 0.59831 0.82664 0.10415 0.0
Co826 Co 0.18297 0.51493 0.62276 0.0
Co827 Co 0.16734 0.57502 0.63526 0.0
O828 O 0.18436 0.55126 0.6204 0.0
C829 C 0.16336 0.52539 0.58862 0.0
O830 O 0.14909 0.54214 0.59609 0.0
C831 C 0.22067 0.58833 0.63752 0.0
O832 O 0.22501 0.56433 0.63968 0.0
O833 O 0.17928 0.55719 0.65595 0.0
O834 O 0.18742 0.51751 0.64798 0.0
H835 H 0.11307 0.60114 0.68447 0.0
H836 H 0.21842 0.53791 0.59819 0.0
O837 O 0.17832 0.51207 0.59748 0.0
H838 H 0.27112 0.4905 0.63851 0.0
H839 H 0.20252 0.42655 0.60478 0.0
H840 H 0.15891 0.47955 0.64686 0.0
H841 H 0.22509 0.49055 0.64145 0.0
H842 H 0.20412 0.47266 0.60258 0.0
O843 O 0.1983 0.5962 0.63558 0.0
H844 H 0.13419 0.57097 0.66546 0.0
H845 H 0.16545 0.63077 0.63678 0.0
H846 H 0.15699 0.43354 0.64964 0.0
H847 H 0.26435 0.53821 0.59471 0.0
H848 H 0.1789 0.40672 0.62849 0.0
H849 H 0.29103 0.51446 0.615 0.0
O850 O 0.14595 0.51557 0.62579 0.0
H851 H 0.17677 0.6136 0.57721 0.0
H852 H 0.11765 0.59416 0.62366 0.0
H853 H 0.10212 0.61479 0.5976 0.0
H854 H 0.13177 0.62463 0.57414 0.0
H855 H 0.19148 0.59282 0.60345 0.0
H856 H 0.14483 0.66161 0.65555 0.0
H857 H 0.11834 0.64683 0.67955 0.0
O858 O 0.13628 0.55416 0.63523 0.0
C859 C 0.18582 0.53471 0.65924 0.0
C860 C 0.1245 0.60782 0.67401 0.0
C861 C 0.14235 0.64175 0.6578 0.0
N862 N 0.15084 0.59912 0.64995 0.0
C863 C 0.13643 0.59082 0.66318 0.0
C864 C 0.15401 0.62421 0.64723 0.0
C865 C 0.12748 0.63344 0.67126 0.0
C866 C 0.22988 0.52731 0.60696 0.0
N867 N 0.21908 0.51411 0.61994 0.0
C868 C 0.25589 0.52764 0.60497 0.0
C869 C 0.27085 0.51434 0.61638 0.0
C870 C 0.25969 0.5009 0.62958 0.0
C871 C 0.23362 0.50103 0.63119 0.0
C872 C 0.19293 0.43804 0.61409 0.0
C873 C 0.16862 0.468 0.63768 0.0
C874 C 0.19373 0.46414 0.61289 0.0
N875 N 0.18179 0.47875 0.62467 0.0
C876 C 0.1674 0.44196 0.63928 0.0
C877 C 0.17969 0.42692 0.6274 0.0
C878 C 0.13027 0.53181 0.63115 0.0
C879 C 0.16368 0.60948 0.58737 0.0
C880 C 0.13068 0.59839 0.61352 0.0
C881 C 0.12177 0.6101 0.5988 0.0
C882 C 0.13842 0.61563 0.58564 0.0
N883 N 0.15548 0.59242 0.61511 0.0
C884 C 0.17192 0.59782 0.60228 0.0
Co885 Co 0.48327 0.18114 0.12299 0.0
Co886 Co 0.42415 0.16664 0.13795 0.0
O887 O 0.44682 0.18323 0.1221 0.0
C888 C 0.46976 0.16241 0.08905 0.0
O889 O 0.45323 0.14834 0.09691 0.0
C890 C 0.41126 0.22014 0.14031 0.0
O891 O 0.43536 0.22448 0.14186 0.0
O892 O 0.44379 0.17867 0.15785 0.0
O893 O 0.48302 0.18511 0.14831 0.0
H894 H 0.40166 0.11339 0.18847 0.0
H895 H 0.45888 0.21749 0.09971 0.0
O896 O 0.48393 0.17694 0.09761 0.0
H897 H 0.51074 0.26846 0.13848 0.0
H898 H 0.57034 0.19936 0.10169 0.0
H899 H 0.52019 0.15581 0.14538 0.0
H900 H 0.51006 0.22239 0.14102 0.0
H901 H 0.52416 0.20195 0.10138 0.0
O902 O 0.40327 0.19776 0.1388 0.0
H903 H 0.43039 0.13389 0.16817 0.0
H904 H 0.36857 0.16534 0.14161 0.0
H905 H 0.56632 0.15289 0.14627 0.0
H906 H 0.45914 0.26349 0.09664 0.0
H907 H 0.5917 0.17478 0.12431 0.0
H908 H 0.48515 0.2893 0.11615 0.0
O909 O 0.48215 0.14409 0.1257 0.0
H910 H 0.38076 0.17569 0.08145 0.0
H911 H 0.40356 0.11702 0.12746 0.0
H912 H 0.3805 0.10137 0.10239 0.0
H913 H 0.36895 0.1308 0.07916 0.0
H914 H 0.40397 0.19051 0.10669 0.0
H915 H 0.33917 0.14534 0.1617 0.0
H916 H 0.35569 0.11907 0.1853 0.0
O917 O 0.44464 0.13535 0.13732 0.0
C918 C 0.46677 0.18426 0.16024 0.0
C919 C 0.39423 0.12472 0.17821 0.0
C920 C 0.35916 0.14268 0.1632 0.0
N921 N 0.40115 0.1506 0.15364 0.0
C922 C 0.4104 0.13631 0.16665 0.0
C923 C 0.37589 0.15399 0.15188 0.0
C924 C 0.36844 0.12794 0.17643 0.0
C925 C 0.47044 0.22858 0.10813 0.0
N926 N 0.48454 0.21727 0.12046 0.0
C927 C 0.47043 0.25462 0.10638 0.0
C928 C 0.485 0.26909 0.11735 0.0
C929 C 0.49935 0.25741 0.12989 0.0
C930 C 0.49886 0.23133 0.13128 0.0
C931 C 0.55948 0.18979 0.11135 0.0
C932 C 0.53113 0.16552 0.13585 0.0
C933 C 0.53334 0.19115 0.11122 0.0
N934 N 0.51954 0.17922 0.12344 0.0
C935 C 0.55723 0.16373 0.13639 0.0
C936 C 0.57146 0.176 0.12405 0.0
C937 C 0.46628 0.12881 0.13201 0.0
C938 C 0.38562 0.1627 0.09151 0.0
C939 C 0.39861 0.12994 0.1174 0.0
C940 C 0.38552 0.12097 0.10325 0.0
C941 C 0.37903 0.1375 0.09022 0.0
N942 N 0.405 0.15468 0.11857 0.0
C943 C 0.39867 0.171 0.10587 0.0
H944 H 0.09551 0.44978 0.15376 0.0
H945 H 0.05107 0.46086 0.15445 0.0
H946 H 0.06148 0.50876 0.1107 0.0
H947 H 0.10617 0.4988 0.11055 0.0
H948 H 0.03302 0.53112 0.13237 0.0
H949 H 0.99702 0.43454 0.12486 0.0
H950 H 0.01624 0.43753 0.14347 0.0
H951 H 0.0298 0.44201 0.12265 0.0
C952 C 0.08828 0.46267 0.1443 0.0
C953 C 0.10426 0.47338 0.13207 0.0
C954 C 0.06283 0.46882 0.1446 0.0
C955 C 0.05274 0.48516 0.13236 0.0
C956 C 0.06877 0.49603 0.12024 0.0
H957 H 0.89377 0.49879 0.11066 0.0
H958 H 0.93836 0.48829 0.1108 0.0
C959 C 0.09431 0.49034 0.12017 0.0
C960 C 0.02561 0.49143 0.13234 0.0
H961 H 0.96704 0.46571 0.13246 0.0
C962 C 0.0186 0.5168 0.13228 0.0
C963 C 0.00675 0.47277 0.13193 0.0
C964 C 0.01282 0.44522 0.13054 0.0
C965 C 0.99333 0.52404 0.13191 0.0
C966 C 0.97446 0.50539 0.13239 0.0
C967 C 0.98147 0.48002 0.13233 0.0
C968 C 0.94736 0.51172 0.1325 0.0
C969 C 0.98725 0.5516 0.13049 0.0
C970 C 0.93744 0.52806 0.1448 0.0
C971 C 0.91207 0.53451 0.14451 0.0
C972 C 0.89598 0.52411 0.13223 0.0
C973 C 0.90572 0.50705 0.12031 0.0
C974 C 0.9312 0.50105 0.12038 0.0
H975 H 0.00303 0.56226 0.12475 0.0
H976 H 0.97025 0.55479 0.12263 0.0
H977 H 0.9839 0.55934 0.14341 0.0
H978 H 0.9493 0.53587 0.15465 0.0
H979 H 0.90501 0.54745 0.154 0.0
H980 H 0.43385 0.91022 0.63564 0.0
H981 H 0.44527 0.95452 0.63568 0.0
H982 H 0.52266 0.93476 0.62722 0.0
H983 H 0.51139 0.89046 0.62665 0.0
H984 H 0.47662 0.98073 0.65621 0.0
H985 H 0.51075 0.98483 0.58952 0.0
H986 H 0.49335 0.95847 0.59772 0.0
H987 H 0.52634 0.96142 0.60205 0.0
C988 C 0.45329 0.91524 0.63369 0.0
C989 C 0.47164 0.89674 0.63092 0.0
C990 C 0.45978 0.9406 0.63375 0.0
C991 C 0.48472 0.94796 0.6311 0.0
C992 C 0.50319 0.92954 0.62881 0.0
H993 H 0.5626 0.09003 0.63474 0.0
H994 H 0.55068 0.04582 0.63543 0.0
C995 C 0.4967 0.90419 0.62859 0.0
C996 C 0.49145 0.97489 0.63099 0.0
H997 H 0.51903 0.02048 0.60687 0.0
C998 C 0.48575 0.98945 0.64539 0.0
C999 C 0.50328 0.98626 0.6168 0.0
C1000 C 0.50857 0.97201 0.60058 0.0
C1001 C 0.49199 0.01497 0.64609 0.0
C1002 C 0.50417 0.02612 0.63205 0.0
C1003 C 0.50981 0.01169 0.61764 0.0
C1004 C 0.51111 0.05288 0.63203 0.0
C1005 C 0.48587 0.02987 0.66188 0.0
C1006 C 0.49271 0.07134 0.62982 0.0
C1007 C 0.49942 0.09663 0.62927 0.0
C1008 C 0.52467 0.10386 0.63098 0.0
C1009 C 0.543 0.08519 0.63336 0.0
C1010 C 0.53626 0.05991 0.63376 0.0
H1011 H 0.47928 0.01776 0.67249 0.0
H1012 H 0.50261 0.0405 0.66619 0.0
H1013 H 0.47094 0.04367 0.65889 0.0
H1014 H 0.4732 0.06614 0.62837 0.0
H1015 H 0.48481 0.11048 0.62748 0.0
H1016 H 0.0917 0.55986 0.35077 0.0
H1017 H 0.04737 0.54848 0.35014 0.0
H1018 H 0.06471 0.47705 0.37292 0.0
H1019 H 0.10915 0.48815 0.37368 0.0
H1020 H 0.02394 0.5048 0.33438 0.0
H1021 H 0.01071 0.50978 0.40461 0.0
H1022 H 0.03703 0.52412 0.39393 0.0
H1023 H 0.03651 0.49087 0.39738 0.0
C1024 C 0.08617 0.54169 0.35564 0.0
C1025 C 0.10403 0.52498 0.36239 0.0
C1026 C 0.06082 0.53524 0.35523 0.0
C1027 C 0.05284 0.51209 0.36166 0.0
C1028 C 0.07056 0.49515 0.3681 0.0
H1029 H 0.90858 0.43895 0.35167 0.0
H1030 H 0.95292 0.45024 0.35055 0.0
C1031 C 0.09594 0.50152 0.36846 0.0
C1032 C 0.02589 0.50577 0.36177 0.0
H1033 H 0.97641 0.49508 0.38833 0.0
C1034 C 0.0135 0.50266 0.34615 0.0
C1035 C 0.01239 0.5033 0.37717 0.0
C1036 C 0.0247 0.50736 0.39426 0.0
C1037 C 0.98788 0.49676 0.34554 0.0
C1038 C 0.9745 0.4938 0.36095 0.0
C1039 C 0.98683 0.49724 0.37656 0.0
C1040 C 0.94761 0.48725 0.36118 0.0
C1041 C 0.97522 0.49407 0.32845 0.0
C1042 C 0.93005 0.50427 0.3677 0.0
C1043 C 0.90468 0.49793 0.36838 0.0
C1044 C 0.89646 0.47431 0.36269 0.0
C1045 C 0.9142 0.4573 0.35615 0.0
C1046 C 0.93955 0.46374 0.35542 0.0
H1047 H 0.98672 0.50207 0.31798 0.0
H1048 H 0.97216 0.4739 0.32573 0.0
H1049 H 0.95664 0.50347 0.3285 0.0
H1050 H 0.936 0.52248 0.37227 0.0
H1051 H 0.89158 0.51147 0.37352 0.0
H1052 H 0.49688 0.89373 0.88249 0.0
H1053 H 0.4861 0.93815 0.88098 0.0
H1054 H 0.53639 0.94732 0.83835 0.0
H1055 H 0.54823 0.90319 0.84042 0.0
H1056 H 0.54251 0.98398 0.8591 0.0
H1057 H 0.44057 0.97341 0.84919 0.0
H1058 H 0.45021 0.95822 0.86846 0.0
H1059 H 0.46176 0.94713 0.84822 0.0
C1060 C 0.50548 0.9052 0.87272 0.0
C1061 C 0.5233 0.89499 0.86152 0.0
C1062 C 0.49916 0.93055 0.87178 0.0
C1063 C 0.50995 0.94601 0.85928 0.0
C1064 C 0.52771 0.93577 0.84805 0.0
H1065 H 0.45059 0.09552 0.83962 0.0
H1066 H 0.46225 0.05132 0.83764 0.0
C1067 C 0.53445 0.91055 0.84923 0.0
C1068 C 0.50363 0.97307 0.85842 0.0
H1069 H 0.45464 0.01417 0.85779 0.0
C1070 C 0.52328 0.99056 0.85862 0.0
C1071 C 0.47858 0.98173 0.85745 0.0
C1072 C 0.45663 0.96411 0.85562 0.0
C1073 C 0.51861 0.01642 0.85828 0.0
C1074 C 0.49353 0.02508 0.85851 0.0
C1075 C 0.47388 0.00759 0.85788 0.0
C1076 C 0.48717 0.05213 0.85942 0.0
C1077 C 0.54067 0.03407 0.85734 0.0
C1078 C 0.49711 0.0673 0.87239 0.0
C1079 C 0.49092 0.09269 0.8733 0.0
C1080 C 0.47405 0.1032 0.86157 0.0
C1081 C 0.46364 0.08791 0.84883 0.0
C1082 C 0.47028 0.06265 0.8477 0.0
H1083 H 0.55717 0.02489 0.85136 0.0
H1084 H 0.53608 0.0512 0.84995 0.0
H1085 H 0.54617 0.03968 0.87043 0.0
H1086 H 0.50945 0.05947 0.88196 0.0
H1087 H 0.49891 0.10395 0.88342 0.0
H1088 H 0.90429 0.54858 0.83953 0.0
H1089 H 0.94836 0.53642 0.83773 0.0
H1090 H 0.93904 0.4885 0.88158 0.0
H1091 H 0.89465 0.49957 0.88286 0.0
H1092 H 0.98513 0.54344 0.85827 0.0
H1093 H 0.97392 0.4411 0.85088 0.0
H1094 H 0.94776 0.46238 0.84944 0.0
H1095 H 0.95892 0.4519 0.86993 0.0
C1096 C 0.9116 0.53525 0.84868 0.0
C1097 C 0.896 0.52484 0.86124 0.0
C1098 C 0.93679 0.52833 0.84765 0.0
C1099 C 0.94697 0.51113 0.8593 0.0
C1100 C 0.93149 0.5011 0.87207 0.0
H1101 H 0.10525 0.50039 0.88284 0.0
H1102 H 0.06079 0.51105 0.88147 0.0
C1103 C 0.90615 0.50759 0.87288 0.0
C1104 C 0.974 0.50461 0.85854 0.0
H1105 H 0.01485 0.45541 0.85884 0.0
C1106 C 0.99161 0.52417 0.85821 0.0
C1107 C 0.98253 0.47949 0.85813 0.0
C1108 C 0.96476 0.45756 0.85692 0.0
C1109 C 0.01744 0.51933 0.85785 0.0
C1110 C 0.02597 0.49423 0.85859 0.0
C1111 C 0.00837 0.47467 0.85853 0.0
C1112 C 0.05301 0.48778 0.85947 0.0
C1113 C 0.0352 0.54124 0.85632 0.0
C1114 C 0.06329 0.47033 0.84803 0.0
C1115 C 0.08855 0.46365 0.84912 0.0
C1116 C 0.10409 0.47456 0.86152 0.0
C1117 C 0.09381 0.492 0.87297 0.0
C1118 C 0.06842 0.49824 0.87211 0.0
H1119 H 0.02602 0.5575 0.85004 0.0
H1120 H 0.04104 0.54731 0.86924 0.0
H1121 H 0.0522 0.5362 0.84891 0.0
H1122 H 0.05177 0.46189 0.83823 0.0
H1123 H 0.09597 0.45015 0.84013 0.0
H1124 H 0.56559 0.0903 0.35934 0.0
H1125 H 0.5549 0.04582 0.35825 0.0
H1126 H 0.47688 0.06386 0.36542 0.0
H1127 H 0.48726 0.10849 0.36672 0.0
H1128 H 0.52387 0.01906 0.38656 0.0
H1129 H 0.48462 0.0166 0.32079 0.0
H1130 H 0.50727 0.03983 0.3274 0.0
H1131 H 0.47546 0.042 0.33458 0.0
C1132 C 0.54612 0.08491 0.36067 0.0
C1133 C 0.52729 0.10302 0.36319 0.0
C1134 C 0.5401 0.05947 0.36004 0.0
C1135 C 0.51515 0.05173 0.36168 0.0
C1136 C 0.49624 0.06962 0.36403 0.0
H1137 H 0.43899 0.90943 0.35772 0.0
H1138 H 0.45097 0.95349 0.35744 0.0
C1139 C 0.50225 0.09508 0.36482 0.0
C1140 C 0.50896 0.02481 0.3614 0.0
H1141 H 0.48243 0.97929 0.33683 0.0
C1142 C 0.51489 0.01025 0.3757 0.0
C1143 C 0.49715 0.01364 0.34722 0.0
C1144 C 0.49079 0.02867 0.33153 0.0
C1145 C 0.50886 0.98468 0.37633 0.0
C1146 C 0.49724 0.97335 0.36206 0.0
C1147 C 0.49142 0.988 0.34772 0.0
C1148 C 0.49036 0.94647 0.36191 0.0
C1149 C 0.51429 0.97028 0.39247 0.0
C1150 C 0.50863 0.92784 0.36421 0.0
C1151 C 0.50182 0.90257 0.36458 0.0
C1152 C 0.47663 0.89545 0.3624 0.0
C1153 C 0.45853 0.91417 0.35956 0.0
C1154 C 0.46533 0.93941 0.35935 0.0
H1155 H 0.51666 0.98297 0.40358 0.0
H1156 H 0.49904 0.95678 0.39536 0.0
H1157 H 0.53198 0.9596 0.39086 0.0
H1158 H 0.52816 0.93285 0.36575 0.0
H1159 H 0.5163 0.88865 0.36659 0.0
H1160 H 0.90798 0.43862 0.64275 0.0
H1161 H 0.95233 0.44989 0.64384 0.0
H1162 H 0.93542 0.52207 0.62201 0.0
H1163 H 0.891 0.51108 0.62079 0.0
H1164 H 0.97586 0.49485 0.60603 0.0
H1165 H 0.9861 0.50164 0.6764 0.0
H1166 H 0.97167 0.47342 0.66862 0.0
H1167 H 0.95602 0.50292 0.66587 0.0
C1168 C 0.91361 0.45695 0.63824 0.0
C1169 C 0.89586 0.47395 0.63169 0.0
C1170 C 0.93896 0.46338 0.63896 0.0
C1171 C 0.94703 0.48688 0.63317 0.0
C1172 C 0.92947 0.50387 0.62661 0.0
H1173 H 0.09119 0.55955 0.6437 0.0
H1174 H 0.04682 0.54825 0.64427 0.0
C1175 C 0.90409 0.49754 0.62594 0.0
C1176 C 0.97393 0.49345 0.63341 0.0
H1177 H 0.02333 0.50445 0.66002 0.0
C1178 C 0.98626 0.49698 0.61782 0.0
C1179 C 0.9873 0.49639 0.64883 0.0
C1180 C 0.97463 0.49361 0.66592 0.0
C1181 C 0.01181 0.50309 0.61723 0.0
C1182 C 0.0253 0.50553 0.63263 0.0
C1183 C 0.0129 0.50234 0.64824 0.0
C1184 C 0.05226 0.51184 0.63276 0.0
C1185 C 0.02413 0.50723 0.60015 0.0
C1186 C 0.06997 0.49489 0.62634 0.0
C1187 C 0.09536 0.50121 0.62601 0.0
C1188 C 0.10348 0.52466 0.6321 0.0
C1189 C 0.08564 0.5414 0.63882 0.0
C1190 C 0.06027 0.53498 0.6392 0.0
H1191 H 0.01015 0.50965 0.58979 0.0
H1192 H 0.03644 0.524 0.60051 0.0
H1193 H 0.03597 0.49077 0.59701 0.0
H1194 H 0.06411 0.47679 0.62152 0.0
H1195 H 0.10856 0.48781 0.62082 0.0
H1196 H 0.50899 0.10614 0.12018 0.0
H1197 H 0.51921 0.0615 0.1207 0.0
H1198 H 0.44915 0.0458 0.14589 0.0
H1199 H 0.43871 0.09036 0.14556 0.0
H1200 H 0.49212 0.0216 0.16043 0.0
H1201 H 0.48492 0.00763 0.09042 0.0
H1202 H 0.50497 0.03291 0.09699 0.0
H1203 H 0.47191 0.03464 0.1011 0.0
C1204 C 0.49572 0.09324 0.12585 0.0
C1205 C 0.47293 0.10187 0.13273 0.0
C1206 C 0.50157 0.06773 0.12606 0.0
C1207 C 0.48476 0.0504 0.13312 0.0
C1208 C 0.46228 0.05893 0.1403 0.0
H1209 H 0.48644 0.88872 0.12097 0.0
H1210 H 0.47474 0.93299 0.12209 0.0
C1211 C 0.45636 0.08441 0.14007 0.0
C1212 C 0.49065 0.02333 0.13304 0.0
H1213 H 0.50068 0.97357 0.1066 0.0
C1214 C 0.49395 0.01104 0.14869 0.0
C1215 C 0.49268 0.00964 0.11768 0.0
C1216 C 0.48824 0.02176 0.10057 0.0
C1217 C 0.49974 0.98541 0.14936 0.0
C1218 C 0.50248 0.97189 0.13398 0.0
C1219 C 0.49871 0.98408 0.11836 0.0
C1220 C 0.50938 0.94505 0.1338 0.0
C1221 C 0.50259 0.97293 0.1665 0.0
C1222 C 0.53281 0.93728 0.13994 0.0
C1223 C 0.53961 0.91203 0.13931 0.0
C1224 C 0.52311 0.89407 0.13246 0.0
C1225 C 0.4996 0.90199 0.12635 0.0
C1226 C 0.49287 0.92728 0.12695 0.0
H1227 H 0.49403 0.98424 0.17686 0.0
H1228 H 0.49384 0.95404 0.16647 0.0
H1229 H 0.52282 0.97063 0.16939 0.0
H1230 H 0.54597 0.95081 0.14501 0.0
H1231 H 0.55787 0.90667 0.1441 0.0
H1232 H 0.19796 0.48926 0.3224 0.0
H1233 H 0.20336 0.4779 0.29248 0.0
H1234 H 0.19201 0.55491 0.27779 0.0
H1235 H 0.18665 0.56661 0.30764 0.0
H1236 H 0.16507 0.48658 0.26756 0.0
H1237 H 0.25489 0.53281 0.25032 0.0
H1238 H 0.24622 0.52611 0.27211 0.0
H1239 H 0.23246 0.55226 0.26116 0.0
C1240 C 0.19694 0.5039 0.31286 0.0
C1241 C 0.19176 0.52886 0.31746 0.0
C1242 C 0.20006 0.49734 0.29577 0.0
C1243 C 0.19834 0.51562 0.28299 0.0
C1244 C 0.19385 0.54062 0.28751 0.0
H1245 H 0.18983 0.51319 0.17288 0.0
H1246 H 0.19423 0.52509 0.20284 0.0
C1247 C 0.19062 0.54722 0.30459 0.0
C1248 C 0.1989 0.50816 0.26487 0.0
H1249 H 0.23091 0.51582 0.22758 0.0
C1250 C 0.17956 0.49278 0.25883 0.0
C1251 C 0.21769 0.51657 0.25356 0.0
C1252 C 0.23914 0.5327 0.25958 0.0
C1253 C 0.17822 0.48588 0.24163 0.0
C1254 C 0.19713 0.49409 0.23029 0.0
C1255 C 0.21652 0.50949 0.23634 0.0
C1256 C 0.19681 0.48697 0.21208 0.0
C1257 C 0.15616 0.47046 0.23569 0.0
C1258 C 0.19761 0.46166 0.20734 0.0
C1259 C 0.19486 0.45477 0.19031 0.0
C1260 C 0.1916 0.47313 0.17763 0.0
C1261 C 0.19216 0.49858 0.18232 0.0
C1262 C 0.19471 0.50542 0.19942 0.0
H1263 H 0.14022 0.47154 0.24477 0.0
H1264 H 0.14957 0.47673 0.22297 0.0
H1265 H 0.1619 0.45053 0.2347 0.0
H1266 H 0.19984 0.44717 0.21689 0.0
H1267 H 0.1949 0.43502 0.18713 0.0
H1268 H 0.56709 0.18309 0.68663 0.0
H1269 H 0.55601 0.18747 0.71672 0.0
H1270 H 0.47916 0.20178 0.70287 0.0
H1271 H 0.48986 0.19743 0.67277 0.0
H1272 H 0.52982 0.2293 0.73493 0.0
H1273 H 0.47876 0.13841 0.73486 0.0
H1274 H 0.50121 0.14669 0.71859 0.0
H1275 H 0.47036 0.16011 0.71829 0.0
C1276 C 0.54785 0.18737 0.68993 0.0
C1277 C 0.52932 0.18967 0.67724 0.0
C1278 C 0.54161 0.18993 0.70713 0.0
C1279 C 0.51677 0.19468 0.71194 0.0
C1280 C 0.4984 0.19786 0.69935 0.0
H1281 H 0.43639 0.19201 0.80718 0.0
H1282 H 0.4493 0.1969 0.77758 0.0
C1283 C 0.5046 0.19539 0.68216 0.0
C1284 C 0.50974 0.19505 0.73014 0.0
H1285 H 0.47672 0.16248 0.76 0.0
C1286 C 0.51825 0.21472 0.74048 0.0
C1287 C 0.49471 0.17593 0.73724 0.0
C1288 C 0.48583 0.15394 0.72676 0.0
C1289 C 0.5116 0.21605 0.75779 0.0
C1290 C 0.49651 0.19692 0.76488 0.0
C1291 C 0.48819 0.17719 0.7545 0.0
C1292 C 0.48903 0.19672 0.78306 0.0
C1293 C 0.52029 0.23817 0.76819 0.0
C1294 C 0.50713 0.19527 0.796 0.0
C1295 C 0.49982 0.19259 0.81301 0.0
C1296 C 0.47427 0.19099 0.81734 0.0
C1297 C 0.45623 0.19307 0.80434 0.0
C1298 C 0.46355 0.19588 0.78739 0.0
H1299 H 0.52569 0.25424 0.75997 0.0
H1300 H 0.50546 0.24442 0.77717 0.0
H1301 H 0.53696 0.23264 0.77576 0.0
H1302 H 0.5269 0.19535 0.7929 0.0
H1303 H 0.51422 0.19096 0.82268 0.0
H1304 H 0.80528 0.4846 0.17142 0.0
H1305 H 0.79957 0.47111 0.20095 0.0
H1306 H 0.8048 0.54782 0.2178 0.0
H1307 H 0.81046 0.56159 0.18842 0.0
H1308 H 0.83569 0.48066 0.22707 0.0
H1309 H 0.74247 0.52033 0.24317 0.0
H1310 H 0.75271 0.51548 0.22147 0.0
H1311 H 0.76378 0.54203 0.23336 0.0
C1312 C 0.80489 0.49867 0.18136 0.0
C1313 C 0.80843 0.52419 0.17752 0.0
C1314 C 0.80161 0.4909 0.19822 0.0
C1315 C 0.80147 0.50851 0.21148 0.0
C1316 C 0.80438 0.534 0.20769 0.0
H1317 H 0.80798 0.50981 0.32083 0.0
H1318 H 0.80314 0.51927 0.29054 0.0
C1319 C 0.8078 0.5418 0.19087 0.0
C1320 C 0.80055 0.50014 0.22942 0.0
H1321 H 0.76741 0.50595 0.26641 0.0
C1322 C 0.82063 0.48589 0.23566 0.0
C1323 C 0.78096 0.50724 0.24054 0.0
C1324 C 0.75862 0.52194 0.23431 0.0
C1325 C 0.82211 0.47921 0.2529 0.0
C1326 C 0.80261 0.48647 0.26409 0.0
C1327 C 0.7823 0.50039 0.25778 0.0
C1328 C 0.80351 0.48049 0.2825 0.0
C1329 C 0.84502 0.4653 0.25908 0.0
C1330 C 0.80461 0.45553 0.28803 0.0
C1331 C 0.80763 0.45004 0.30529 0.0
C1332 C 0.80926 0.46944 0.31739 0.0
C1333 C 0.80694 0.49442 0.31187 0.0
C1334 C 0.80412 0.49987 0.29457 0.0
H1335 H 0.86086 0.46683 0.24995 0.0
H1336 H 0.85129 0.47252 0.27165 0.0
H1337 H 0.8404 0.44515 0.26053 0.0
H1338 H 0.80356 0.44029 0.27895 0.0
H1339 H 0.80901 0.43058 0.30911 0.0
H1340 H 0.56452 0.80528 0.8081 0.0
H1341 H 0.55301 0.80075 0.77818 0.0
H1342 H 0.47473 0.80397 0.79166 0.0
H1343 H 0.48598 0.80793 0.82174 0.0
H1344 H 0.48531 0.76835 0.76651 0.0
H1345 H 0.52758 0.86068 0.751 0.0
H1346 H 0.5489 0.83908 0.76086 0.0
H1347 H 0.52232 0.85048 0.77262 0.0
C1348 C 0.54483 0.80483 0.80476 0.0
C1349 C 0.52617 0.80733 0.81732 0.0
C1350 C 0.53831 0.80233 0.78764 0.0
C1351 C 0.51305 0.80262 0.78271 0.0
C1352 C 0.49434 0.80389 0.79523 0.0
H1353 H 0.43286 0.81452 0.68756 0.0
H1354 H 0.44507 0.80881 0.71731 0.0
C1355 C 0.50083 0.8062 0.81241 0.0
C1356 C 0.5062 0.80274 0.76445 0.0
H1357 H 0.51285 0.83653 0.72781 0.0
C1358 C 0.49128 0.78324 0.75803 0.0
C1359 C 0.51396 0.8223 0.75347 0.0
C1360 C 0.52887 0.84445 0.75983 0.0
C1361 C 0.48418 0.78263 0.74081 0.0
C1362 C 0.49205 0.80213 0.72987 0.0
C1363 C 0.50703 0.82154 0.73627 0.0
C1364 C 0.4844 0.80331 0.7118 0.0
C1365 C 0.46855 0.76107 0.73438 0.0
C1366 C 0.50256 0.80226 0.69892 0.0
C1367 C 0.49571 0.80556 0.6819 0.0
C1368 C 0.47057 0.81027 0.67749 0.0
C1369 C 0.45238 0.81093 0.69047 0.0
C1370 C 0.45926 0.8075 0.70748 0.0
H1371 H 0.46881 0.74495 0.74333 0.0
H1372 H 0.44884 0.76735 0.7329 0.0
H1373 H 0.47531 0.75468 0.72172 0.0
H1374 H 0.52209 0.79922 0.70207 0.0
H1375 H 0.51023 0.80493 0.67226 0.0
H1376 H 0.81092 0.56264 0.80597 0.0
H1377 H 0.80517 0.5489 0.77659 0.0
H1378 H 0.79827 0.47236 0.79354 0.0
H1379 H 0.8041 0.48582 0.82306 0.0
H1380 H 0.83456 0.48075 0.76762 0.0
H1381 H 0.74269 0.52293 0.75092 0.0
H1382 H 0.76451 0.54421 0.76065 0.0
H1383 H 0.75264 0.51815 0.77269 0.0
C1384 C 0.80785 0.5429 0.80353 0.0
C1385 C 0.80806 0.52533 0.81691 0.0
C1386 C 0.80439 0.53512 0.78672 0.0
C1387 C 0.80099 0.50968 0.78295 0.0
C1388 C 0.80069 0.49212 0.79625 0.0
H1389 H 0.80752 0.43098 0.68556 0.0
H1390 H 0.80205 0.44099 0.71567 0.0
C1391 C 0.80405 0.49987 0.8131 0.0
C1392 C 0.80005 0.50126 0.76502 0.0
H1393 H 0.76752 0.50779 0.72784 0.0
C1394 C 0.81976 0.48637 0.75894 0.0
C1395 C 0.7808 0.50885 0.75378 0.0
C1396 C 0.75882 0.52424 0.75983 0.0
C1397 C 0.82124 0.47953 0.74173 0.0
C1398 C 0.8021 0.48729 0.73041 0.0
C1399 C 0.78213 0.50185 0.73656 0.0
C1400 C 0.80303 0.48117 0.71202 0.0
C1401 C 0.8438 0.46491 0.73572 0.0
C1402 C 0.80421 0.50046 0.6999 0.0
C1403 C 0.80703 0.49483 0.68262 0.0
C1404 C 0.80878 0.46977 0.67717 0.0
C1405 C 0.8066 0.45049 0.68932 0.0
C1406 C 0.80356 0.45616 0.70656 0.0
H1407 H 0.85958 0.46607 0.74492 0.0
H1408 H 0.83862 0.44488 0.73435 0.0
H1409 H 0.85041 0.47181 0.72315 0.0
H1410 H 0.80368 0.5199 0.70386 0.0
H1411 H 0.80852 0.51014 0.67362 0.0
H1412 H 0.5103 0.80582 0.32093 0.0
H1413 H 0.52005 0.80097 0.29071 0.0
H1414 H 0.44128 0.80397 0.27857 0.0
H1415 H 0.43129 0.8095 0.3087 0.0
H1416 H 0.50642 0.76614 0.2664 0.0
H1417 H 0.46979 0.86055 0.24997 0.0
H1418 H 0.47472 0.85064 0.27168 0.0
H1419 H 0.44731 0.8406 0.26023 0.0
C1420 C 0.495 0.80534 0.31187 0.0
C1421 C 0.47002 0.80842 0.31723 0.0
C1422 C 0.50063 0.80251 0.2946 0.0
C1423 C 0.48142 0.80263 0.2824 0.0
C1424 C 0.45641 0.80446 0.28776 0.0
H1425 H 0.48523 0.80265 0.17164 0.0
H1426 H 0.47234 0.79739 0.20129 0.0
C1427 C 0.45075 0.80752 0.305 0.0
C1428 C 0.48768 0.80173 0.26404 0.0
H1429 H 0.48303 0.83508 0.22706 0.0
C1430 C 0.5013 0.78118 0.25778 0.0
C1431 C 0.48105 0.82147 0.25287 0.0
C1432 C 0.46762 0.84468 0.25902 0.0
C1433 C 0.50836 0.7798 0.24058 0.0
C1434 C 0.50174 0.79954 0.22947 0.0
C1435 C 0.48789 0.81991 0.23566 0.0
C1436 C 0.50988 0.80011 0.2115 0.0
C1437 C 0.52276 0.75726 0.23436 0.0
C1438 C 0.53528 0.80329 0.20749 0.0
C1439 C 0.54275 0.80648 0.19058 0.0
C1440 C 0.5249 0.80657 0.17738 0.0
C1441 C 0.4995 0.80269 0.18145 0.0
C1442 C 0.49206 0.79966 0.19838 0.0
H1443 H 0.52156 0.74134 0.24345 0.0
H1444 H 0.51566 0.75104 0.22175 0.0
H1445 H 0.54279 0.76237 0.23286 0.0
H1446 H 0.54924 0.80409 0.2175 0.0
H1447 H 0.56245 0.80941 0.18793 0.0
H1448 H 0.18999 0.51347 0.82169 0.0
H1449 H 0.19446 0.52503 0.79167 0.0
H1450 H 0.20062 0.44699 0.77806 0.0
H1451 H 0.19562 0.43516 0.80788 0.0
H1452 H 0.23121 0.51564 0.76692 0.0
H1453 H 0.14066 0.47068 0.75016 0.0
H1454 H 0.15006 0.47623 0.77191 0.0
H1455 H 0.16253 0.44995 0.76033 0.0
C1456 C 0.19248 0.49876 0.81233 0.0
C1457 C 0.19203 0.47337 0.81716 0.0
C1458 C 0.19506 0.50542 0.7952 0.0
C1459 C 0.19732 0.48683 0.78265 0.0
C1460 C 0.19828 0.46158 0.78753 0.0
H1461 H 0.19743 0.48849 0.67225 0.0
H1462 H 0.20312 0.47719 0.70217 0.0
C1463 C 0.19549 0.45488 0.8046 0.0
C1464 C 0.19753 0.49372 0.7644 0.0
H1465 H 0.16523 0.48576 0.72727 0.0
C1466 C 0.21679 0.50917 0.75823 0.0
C1467 C 0.17858 0.48532 0.75315 0.0
C1468 C 0.15665 0.46983 0.75922 0.0
C1469 C 0.21781 0.51611 0.74098 0.0
C1470 C 0.19897 0.50753 0.72976 0.0
C1471 C 0.17976 0.49209 0.73593 0.0
C1472 C 0.19817 0.51493 0.71163 0.0
C1473 C 0.23914 0.5323 0.73484 0.0
C1474 C 0.1936 0.53992 0.70711 0.0
C1475 C 0.19021 0.54648 0.69004 0.0
C1476 C 0.19126 0.52809 0.67719 0.0
C1477 C 0.19648 0.50314 0.68178 0.0
C1478 C 0.19977 0.49662 0.69887 0.0
H1479 H 0.25501 0.53244 0.744 0.0
H1480 H 0.24607 0.52574 0.72226 0.0
H1481 H 0.2324 0.55184 0.7333 0.0
H1482 H 0.19186 0.55423 0.71682 0.0
H1483 H 0.18621 0.56586 0.68699 0.0
H1484 H 0.57004 0.18647 0.30893 0.0
H1485 H 0.56022 0.19206 0.27878 0.0
H1486 H 0.48176 0.19914 0.29105 0.0
H1487 H 0.49134 0.19413 0.32123 0.0
H1488 H 0.53118 0.16144 0.25968 0.0
H1489 H 0.49152 0.25735 0.2587 0.0
H1490 H 0.50909 0.24533 0.27659 0.0
H1491 H 0.47651 0.23747 0.27405 0.0
C1492 C 0.55071 0.18955 0.30527 0.0
C1493 C 0.53148 0.18984 0.31755 0.0
C1494 C 0.54515 0.19275 0.28802 0.0
C1495 C 0.52032 0.19638 0.28269 0.0
C1496 C 0.50113 0.197 0.2949 0.0
H1497 H 0.43814 0.18615 0.1892 0.0
H1498 H 0.45263 0.19117 0.21853 0.0
C1499 C 0.50665 0.19392 0.31217 0.0
C1500 C 0.51422 0.19745 0.26429 0.0
H1501 H 0.48343 0.23184 0.23413 0.0
C1502 C 0.52104 0.17699 0.25404 0.0
C1503 C 0.50097 0.21775 0.25697 0.0
C1504 C 0.49431 0.24083 0.26711 0.0
C1505 C 0.51422 0.17589 0.23681 0.0
C1506 C 0.50043 0.19587 0.22963 0.0
C1507 C 0.49397 0.21655 0.23974 0.0
C1508 C 0.49172 0.19501 0.21177 0.0
C1509 C 0.52108 0.15299 0.22652 0.0
C1510 C 0.50892 0.19607 0.1983 0.0
C1511 C 0.50075 0.19324 0.1815 0.0
C1512 C 0.47521 0.18926 0.1779 0.0
C1513 C 0.45795 0.18905 0.19147 0.0
C1514 C 0.46615 0.19198 0.20825 0.0
H1515 H 0.52798 0.13744 0.23468 0.0
H1516 H 0.50467 0.14626 0.21912 0.0
H1517 H 0.53609 0.15793 0.21733 0.0
H1518 H 0.52871 0.19865 0.20081 0.0
H1519 H 0.51457 0.19364 0.17139 0.0
H1520 H 0.19124 0.50346 0.92628 0.0
H1521 H 0.19201 0.50448 0.95747 0.0
H1522 H 0.13736 0.44502 0.9591 0.0
H1523 H 0.13661 0.44363 0.92801 0.0
H1524 H 0.15178 0.5125 0.98076 0.0
H1525 H 0.19534 0.41874 0.9888 0.0
H1526 H 0.19543 0.43529 0.96873 0.0
H1527 H 0.16781 0.41891 0.97564 0.0
C1528 C 0.17937 0.49061 0.93328 0.0
C1529 C 0.16394 0.47339 0.92468 0.0
C1530 C 0.17983 0.49125 0.95108 0.0
C1531 C 0.16503 0.47457 0.96053 0.0
C1532 C 0.14926 0.45772 0.952 0.0
H1533 H 0.13778 0.44266 0.06641 0.0
H1534 H 0.13791 0.44498 0.03533 0.0
C1535 C 0.14876 0.45707 0.93423 0.0
C1536 C 0.16595 0.47479 0.97935 0.0
H1537 H 0.17958 0.43824 0.0138 0.0
C1538 C 0.15801 0.49637 0.98802 0.0
C1539 C 0.17414 0.45368 0.98871 0.0
C1540 C 0.18389 0.4304 0.98003 0.0
C1541 C 0.15736 0.49714 0.00589 0.0
C1542 C 0.16524 0.4759 0.01524 0.0
C1543 C 0.17347 0.45445 0.00656 0.0
C1544 C 0.16474 0.47531 0.03407 0.0
C1545 C 0.14759 0.52036 0.01462 0.0
C1546 C 0.17992 0.49152 0.04363 0.0
C1547 C 0.17989 0.49029 0.06141 0.0
C1548 C 0.16474 0.47271 0.06991 0.0
C1549 C 0.14958 0.45649 0.06027 0.0
C1550 C 0.14965 0.45775 0.04251 0.0
H1551 H 0.13696 0.53258 0.00571 0.0
H1552 H 0.13523 0.51535 0.02548 0.0
H1553 H 0.16361 0.5313 0.01969 0.0
H1554 H 0.19206 0.50489 0.03732 0.0
H1555 H 0.19187 0.50295 0.06848 0.0
H1556 H 0.54918 0.13562 0.42967 0.0
H1557 H 0.54393 0.13578 0.46055 0.0
H1558 H 0.48481 0.19049 0.45599 0.0
H1559 H 0.49003 0.19064 0.42497 0.0
H1560 H 0.5216 0.20255 0.48032 0.0
H1561 H 0.48717 0.10544 0.48915 0.0
H1562 H 0.51538 0.10729 0.47675 0.0
H1563 H 0.48694 0.12101 0.46872 0.0
C1564 C 0.53488 0.14754 0.43518 0.0
C1565 C 0.51994 0.16305 0.42485 0.0
C1566 C 0.53182 0.14748 0.45284 0.0
C1567 C 0.5137 0.16282 0.4605 0.0
C1568 C 0.49875 0.17836 0.45027 0.0
H1569 H 0.48937 0.19128 0.5695 0.0
H1570 H 0.48444 0.19124 0.53847 0.0
C1571 C 0.50176 0.17841 0.43257 0.0
C1572 C 0.51145 0.16355 0.47928 0.0
H1573 H 0.50203 0.12645 0.51412 0.0
C1574 C 0.51697 0.18604 0.48774 0.0
C1575 C 0.50539 0.14195 0.48886 0.0
C1576 C 0.49814 0.11761 0.48042 0.0
C1577 C 0.51772 0.18722 0.5056 0.0
C1578 C 0.51241 0.1654 0.51517 0.0
C1579 C 0.50616 0.14311 0.50671 0.0
C1580 C 0.51461 0.16497 0.53395 0.0
C1581 C 0.52523 0.21147 0.51406 0.0
C1582 C 0.5328 0.14976 0.54166 0.0
C1583 C 0.5356 0.14964 0.55933 0.0
C1584 C 0.52015 0.16466 0.56965 0.0
C1585 C 0.50164 0.17959 0.5619 0.0
C1586 C 0.49886 0.17968 0.54419 0.0
H1587 H 0.53353 0.22495 0.50487 0.0
H1588 H 0.50842 0.22033 0.51981 0.0
H1589 H 0.53898 0.20797 0.52442 0.0
H1590 H 0.54511 0.13825 0.53395 0.0
H1591 H 0.55005 0.13793 0.56488 0.0
H1592 H 0.80782 0.49825 0.06801 0.0
H1593 H 0.80781 0.49697 0.03684 0.0
H1594 H 0.86364 0.55536 0.03559 0.0
H1595 H 0.86358 0.55705 0.0667 0.0
H1596 H 0.82267 0.56371 0.01387 0.0
H1597 H 0.86214 0.46815 0.00527 0.0
H1598 H 0.83533 0.46993 0.01908 0.0
H1599 H 0.8641 0.48492 0.02521 0.0
C1600 C 0.82021 0.51073 0.06111 0.0
C1601 C 0.83578 0.52768 0.06983 0.0
C1602 C 0.82027 0.50986 0.04331 0.0
C1603 C 0.83599 0.52582 0.03396 0.0
C1604 C 0.85148 0.54279 0.04261 0.0
H1605 H 0.86429 0.5575 0.92763 0.0
H1606 H 0.8639 0.55622 0.95873 0.0
C1607 C 0.85144 0.54369 0.06039 0.0
C1608 C 0.83565 0.52555 0.01511 0.0
H1609 H 0.84775 0.48888 0.98043 0.0
C1610 C 0.82821 0.54739 0.00654 0.0
C1611 C 0.8428 0.50417 0.00564 0.0
C1612 C 0.85175 0.4805 0.01422 0.0
C1613 C 0.82753 0.54838 0.98869 0.0
C1614 C 0.8349 0.52708 0.97921 0.0
C1615 C 0.84213 0.50516 0.98777 0.0
C1616 C 0.83553 0.52735 0.96037 0.0
C1617 C 0.81854 0.57207 0.98014 0.0
C1618 C 0.82021 0.51103 0.95102 0.0
C1619 C 0.82049 0.51159 0.93321 0.0
C1620 C 0.83623 0.52839 0.92449 0.0
C1621 C 0.85188 0.5444 0.93394 0.0
C1622 C 0.85159 0.54381 0.95172 0.0
H1623 H 0.80755 0.58403 0.989 0.0
H1624 H 0.83498 0.58304 0.97577 0.0
H1625 H 0.80677 0.56771 0.96886 0.0
H1626 H 0.8078 0.4981 0.9575 0.0
H1627 H 0.80824 0.49898 0.92631 0.0
H1628 H 0.43294 0.82845 0.5656 0.0
H1629 H 0.43642 0.8268 0.53458 0.0
H1630 H 0.51612 0.83993 0.53849 0.0
H1631 H 0.51282 0.8393 0.56963 0.0
H1632 H 0.44738 0.85882 0.51299 0.0
H1633 H 0.51885 0.78459 0.50597 0.0
H1634 H 0.50464 0.79169 0.52622 0.0
H1635 H 0.53071 0.80999 0.5185 0.0
C1636 C 0.4512 0.83069 0.55976 0.0
C1637 C 0.47264 0.83385 0.56984 0.0
C1638 C 0.45322 0.82979 0.54206 0.0
C1639 C 0.47663 0.83276 0.53408 0.0
C1640 C 0.49801 0.8366 0.54425 0.0
H1641 H 0.4797 0.87641 0.42702 0.0
H1642 H 0.48143 0.87586 0.45816 0.0
C1643 C 0.4961 0.83655 0.56202 0.0
C1644 C 0.47825 0.83294 0.51516 0.0
H1645 H 0.51062 0.80936 0.48123 0.0
C1646 C 0.46107 0.84776 0.50608 0.0
C1647 C 0.49585 0.81827 0.50602 0.0
C1648 C 0.51333 0.80004 0.51469 0.0
C1649 C 0.46087 0.84829 0.48823 0.0
C1650 C 0.47945 0.83486 0.47913 0.0
C1651 C 0.49663 0.81999 0.48818 0.0
C1652 C 0.48088 0.83536 0.46023 0.0
C1653 C 0.44009 0.86252 0.47944 0.0
C1654 C 0.48184 0.81284 0.45095 0.0
C1655 C 0.48198 0.81318 0.43315 0.0
C1656 C 0.48061 0.83604 0.42437 0.0
C1657 C 0.48038 0.85855 0.43358 0.0
C1658 C 0.48109 0.85823 0.45135 0.0
H1659 H 0.42327 0.86413 0.48772 0.0
H1660 H 0.44657 0.88182 0.47656 0.0
H1661 H 0.43441 0.85331 0.46736 0.0
H1662 H 0.48187 0.79494 0.45747 0.0
H1663 H 0.48214 0.79558 0.42628 0.0
H1664 H 0.1358 0.55313 0.42845 0.0
H1665 H 0.13628 0.55063 0.4595 0.0
H1666 H 0.19141 0.49164 0.45715 0.0
H1667 H 0.19092 0.49377 0.42596 0.0
H1668 H 0.15093 0.48294 0.48052 0.0
H1669 H 0.19461 0.57647 0.48923 0.0
H1670 H 0.16715 0.57658 0.476 0.0
H1671 H 0.19476 0.56019 0.46906 0.0
C1672 C 0.14798 0.53953 0.43449 0.0
C1673 C 0.16342 0.52371 0.42474 0.0
C1674 C 0.14831 0.53824 0.45224 0.0
C1675 C 0.16416 0.52124 0.46057 0.0
C1676 C 0.17916 0.50498 0.45091 0.0
H1677 H 0.19016 0.49278 0.56876 0.0
H1678 H 0.19052 0.49031 0.53761 0.0
C1679 C 0.17887 0.50625 0.43312 0.0
C1680 C 0.16513 0.52065 0.47938 0.0
H1681 H 0.17845 0.5568 0.51406 0.0
C1682 C 0.15712 0.49897 0.4879 0.0
C1683 C 0.1733 0.54162 0.48888 0.0
C1684 C 0.18317 0.56497 0.48036 0.0
C1685 C 0.15628 0.49801 0.50577 0.0
C1686 C 0.16401 0.51917 0.51525 0.0
C1687 C 0.17242 0.54067 0.50671 0.0
C1688 C 0.16308 0.51971 0.53407 0.0
C1689 C 0.14643 0.47471 0.51435 0.0
C1690 C 0.14777 0.53727 0.54233 0.0
C1691 C 0.14759 0.53883 0.56007 0.0
C1692 C 0.16286 0.52292 0.56988 0.0
C1693 C 0.1781 0.50522 0.56156 0.0
C1694 C 0.17824 0.50368 0.54378 0.0
H1695 H 0.13618 0.46241 0.5053 0.0
H1696 H 0.16239 0.4639 0.51966 0.0
H1697 H 0.13372 0.47965 0.52504 0.0
H1698 H 0.13604 0.54989 0.53502 0.0
H1699 H 0.13571 0.55273 0.56606 0.0
H1700 H 0.44156 0.13633 0.92822 0.0
H1701 H 0.44336 0.1364 0.95933 0.0
H1702 H 0.50501 0.18859 0.95779 0.0
H1703 H 0.50322 0.18889 0.92663 0.0
H1704 H 0.4837 0.12359 0.98087 0.0
H1705 H 0.45418 0.22265 0.98963 0.0
H1706 H 0.45032 0.20619 0.96971 0.0
H1707 H 0.48052 0.21818 0.9757 0.0
C1708 C 0.45554 0.14783 0.93447 0.0
C1709 C 0.4722 0.16268 0.92496 0.0
C1710 C 0.45652 0.14783 0.95225 0.0
C1711 C 0.47409 0.16275 0.96083 0.0
C1712 C 0.49101 0.1773 0.95139 0.0
H1713 H 0.50226 0.18831 0.06863 0.0
H1714 H 0.50451 0.18763 0.03749 0.0
C1715 C 0.49003 0.17735 0.9336 0.0
C1716 C 0.47472 0.16288 0.97967 0.0
H1717 H 0.46632 0.20049 0.01438 0.0
C1718 C 0.47989 0.14038 0.98822 0.0
C1719 C 0.46977 0.18485 0.98918 0.0
C1720 C 0.46317 0.20932 0.98064 0.0
C1721 C 0.48042 0.13928 0.00608 0.0
C1722 C 0.47525 0.16119 0.01558 0.0
C1723 C 0.47032 0.18375 0.00703 0.0
C1724 C 0.47428 0.16101 0.03442 0.0
C1725 C 0.48684 0.11477 0.01462 0.0
C1726 C 0.45636 0.14645 0.04295 0.0
C1727 C 0.45502 0.14677 0.06072 0.0
C1728 C 0.47149 0.1618 0.07026 0.0
C1729 C 0.48935 0.17648 0.06166 0.0
C1730 C 0.49067 0.17613 0.04388 0.0
H1731 H 0.49669 0.1018 0.0058 0.0
H1732 H 0.49882 0.11786 0.026 0.0
H1733 H 0.4693 0.1055 0.01886 0.0
H1734 H 0.44319 0.13507 0.03585 0.0
H1735 H 0.4409 0.1354 0.06694 0.0
H1736 H 0.80912 0.509 0.42524 0.0
H1737 H 0.80946 0.51357 0.4563 0.0
H1738 H 0.8642 0.45437 0.46014 0.0
H1739 H 0.86419 0.44978 0.42922 0.0
H1740 H 0.79754 0.47648 0.48034 0.0
H1741 H 0.89486 0.51044 0.48912 0.0
H1742 H 0.87918 0.51097 0.46873 0.0
H1743 H 0.89279 0.48238 0.47658 0.0
C1744 C 0.8214 0.49711 0.43269 0.0
C1745 C 0.83673 0.47911 0.42476 0.0
C1746 C 0.82155 0.49975 0.45042 0.0
C1747 C 0.83715 0.4846 0.46046 0.0
C1748 C 0.85245 0.46664 0.45258 0.0
H1749 H 0.8622 0.44832 0.56508 0.0
H1750 H 0.86192 0.45289 0.53412 0.0
C1751 C 0.8523 0.46396 0.4349 0.0
C1752 C 0.83657 0.48652 0.47926 0.0
H1753 H 0.87382 0.49565 0.51406 0.0
C1754 C 0.8141 0.481 0.48775 0.0
C1755 C 0.85824 0.49242 0.48882 0.0
C1756 C 0.88258 0.49963 0.48036 0.0
C1757 C 0.81297 0.48018 0.5056 0.0
C1758 C 0.83482 0.48542 0.51515 0.0
C1759 C 0.85713 0.49157 0.50667 0.0
C1760 C 0.83523 0.4834 0.53394 0.0
C1761 C 0.78871 0.47272 0.51408 0.0
C1762 C 0.82054 0.49931 0.54408 0.0
C1763 C 0.82061 0.49675 0.56181 0.0
C1764 C 0.83551 0.47831 0.56967 0.0
C1765 C 0.85052 0.46272 0.55945 0.0
C1766 C 0.85041 0.46529 0.54176 0.0
H1767 H 0.77526 0.46432 0.50491 0.0
H1768 H 0.79221 0.45907 0.5245 0.0
H1769 H 0.77982 0.48957 0.51975 0.0
H1770 H 0.80901 0.51367 0.53828 0.0
H1771 H 0.80893 0.50913 0.56933 0.0
H1772 H 0.49483 0.80697 0.06838 0.0
H1773 H 0.49319 0.80674 0.0372 0.0
H1774 H 0.55243 0.86163 0.03547 0.0
H1775 H 0.55446 0.86183 0.06655 0.0
H1776 H 0.48458 0.84729 0.01426 0.0
H1777 H 0.57835 0.80417 0.00517 0.0
H1778 H 0.56215 0.80374 0.02537 0.0
H1779 H 0.57835 0.8315 0.01853 0.0
C1780 C 0.50751 0.819 0.06136 0.0
C1781 C 0.52486 0.83434 0.06993 0.0
C1782 C 0.50651 0.81886 0.04357 0.0
C1783 C 0.52294 0.83389 0.03409 0.0
C1784 C 0.53991 0.84957 0.04259 0.0
H1785 H 0.5532 0.86298 0.92831 0.0
H1786 H 0.55098 0.8626 0.95938 0.0
C1787 C 0.54093 0.84974 0.06036 0.0
C1788 C 0.52239 0.83326 0.01527 0.0
H1789 H 0.5584 0.82034 0.98045 0.0
C1790 C 0.50062 0.84124 0.00683 0.0
C1791 C 0.54336 0.82529 0.00569 0.0
C1792 C 0.56681 0.81546 0.01412 0.0
C1793 C 0.49954 0.84217 0.98897 0.0
C1794 C 0.52067 0.83456 0.97941 0.0
C1795 C 0.54229 0.82626 0.98786 0.0
C1796 C 0.52098 0.8354 0.96059 0.0
C1797 C 0.47612 0.85194 0.98049 0.0
C1798 C 0.50486 0.82015 0.95101 0.0
C1799 C 0.50605 0.82032 0.93322 0.0
C1800 C 0.52346 0.83569 0.92475 0.0
C1801 C 0.5395 0.85101 0.93442 0.0
C1802 C 0.5383 0.8508 0.95218 0.0
H1803 H 0.4639 0.86221 0.98957 0.0
H1804 H 0.4809 0.8646 0.96974 0.0
H1805 H 0.46528 0.83594 0.97528 0.0
H1806 H 0.49168 0.8078 0.9573 0.0
H1807 H 0.49352 0.80821 0.92613 0.0
H1808 H 0.21914 0.35956 0.13681 0.0
H1809 H 0.25383 0.3297 0.13656 0.0
H1810 H 0.30669 0.39058 0.14014 0.0
H1811 H 0.27208 0.4207 0.14059 0.0
H1812 H 0.29392 0.32689 0.11312 0.0
H1813 H 0.32735 0.34352 0.17933 0.0
H1814 H 0.29698 0.35384 0.17199 0.0
H1815 H 0.32467 0.37087 0.16609 0.0
C1816 C 0.23813 0.36665 0.1376 0.0
C1817 C 0.24285 0.3925 0.13884 0.0
C1818 C 0.25791 0.34955 0.13744 0.0
C1819 C 0.28276 0.35794 0.13855 0.0
C1820 C 0.2876 0.38373 0.13959 0.0
H1821 H 0.42146 0.2704 0.14185 0.0
H1822 H 0.39139 0.30508 0.14059 0.0
C1823 C 0.2678 0.40089 0.13978 0.0
C1824 C 0.3035 0.33956 0.13834 0.0
H1825 H 0.35042 0.31482 0.16267 0.0
C1826 C 0.30633 0.32428 0.12393 0.0
C1827 C 0.31972 0.33636 0.15243 0.0
C1828 C 0.31702 0.35185 0.16842 0.0
C1829 C 0.32485 0.30567 0.12327 0.0
C1830 C 0.34062 0.30201 0.13754 0.0
C1831 C 0.33824 0.31771 0.15178 0.0
C1832 C 0.35885 0.28116 0.13823 0.0
C1833 C 0.32742 0.29012 0.10731 0.0
C1834 C 0.35041 0.2563 0.13758 0.0
C1835 C 0.36745 0.23651 0.13831 0.0
C1836 C 0.39328 0.24121 0.13983 0.0
C1837 C 0.40168 0.26616 0.14069 0.0
C1838 C 0.38457 0.28598 0.13996 0.0
H1839 H 0.31908 0.2997 0.09609 0.0
H1840 H 0.3474 0.28594 0.10454 0.0
H1841 H 0.31742 0.27208 0.1091 0.0
H1842 H 0.33058 0.25221 0.1366 0.0
H1843 H 0.36033 0.21752 0.1377 0.0
H1844 H 0.72803 0.42075 0.63954 0.0
H1845 H 0.69358 0.39041 0.64041 0.0
H1846 H 0.74651 0.32982 0.63515 0.0
H1847 H 0.78101 0.35983 0.63441 0.0
H1848 H 0.68033 0.35337 0.61567 0.0
H1849 H 0.7056 0.31114 0.67794 0.0
H1850 H 0.71783 0.34095 0.67091 0.0
H1851 H 0.73104 0.31224 0.66298 0.0
C1852 C 0.73234 0.40096 0.63862 0.0
C1853 C 0.75727 0.39267 0.63704 0.0
C1854 C 0.71265 0.38369 0.6391 0.0
C1855 C 0.7176 0.35792 0.63813 0.0
C1856 C 0.74238 0.34964 0.63625 0.0
H1857 H 0.63912 0.21849 0.63442 0.0
H1858 H 0.66898 0.25315 0.63466 0.0
C1859 C 0.76205 0.36683 0.63574 0.0
C1860 C 0.69691 0.33954 0.63884 0.0
H1861 H 0.67565 0.28901 0.66119 0.0
C1862 C 0.67907 0.33945 0.6257 0.0
C1863 C 0.69538 0.32151 0.652 0.0
C1864 C 0.71333 0.32153 0.66686 0.0
C1865 C 0.66028 0.32107 0.62501 0.0
C1866 C 0.6592 0.30263 0.63792 0.0
C1867 C 0.67665 0.30314 0.65128 0.0
C1868 C 0.64077 0.28197 0.63748 0.0
C1869 C 0.64231 0.32095 0.61016 0.0
C1870 C 0.61503 0.28676 0.63909 0.0
C1871 C 0.59786 0.26697 0.63897 0.0
C1872 C 0.60622 0.24209 0.6373 0.0
C1873 C 0.63205 0.23742 0.63571 0.0
C1874 C 0.64915 0.25719 0.63586 0.0
H1875 H 0.64874 0.3333 0.59964 0.0
H1876 H 0.6399 0.30165 0.60512 0.0
H1877 H 0.62371 0.32772 0.6145 0.0
H1878 H 0.60825 0.30576 0.64061 0.0
H1879 H 0.57809 0.27118 0.64023 0.0
H1880 H 0.78302 0.63969 0.13799 0.0
H1881 H 0.74884 0.67012 0.13838 0.0
H1882 H 0.6951 0.61012 0.14275 0.0
H1883 H 0.72919 0.5794 0.14217 0.0
H1884 H 0.68268 0.64665 0.11811 0.0
H1885 H 0.70706 0.69001 0.18018 0.0
H1886 H 0.73267 0.68889 0.16536 0.0
H1887 H 0.7196 0.66019 0.17342 0.0
C1888 C 0.76395 0.63292 0.13909 0.0
C1889 C 0.75883 0.60712 0.14018 0.0
C1890 C 0.74446 0.65035 0.13939 0.0
C1891 C 0.71952 0.64235 0.14089 0.0
C1892 C 0.71427 0.61663 0.14172 0.0
H1893 H 0.57908 0.72715 0.14167 0.0
H1894 H 0.61002 0.69327 0.14218 0.0
C1895 C 0.73377 0.59914 0.14141 0.0
C1896 C 0.69895 0.66092 0.14126 0.0
H1897 H 0.67709 0.71163 0.16317 0.0
C1898 C 0.68126 0.66073 0.12803 0.0
C1899 C 0.6972 0.67918 0.15426 0.0
C1900 C 0.71499 0.67951 0.16921 0.0
C1901 C 0.66233 0.67895 0.12713 0.0
C1902 C 0.66093 0.69753 0.13994 0.0
C1903 C 0.67832 0.6974 0.15334 0.0
C1904 C 0.64205 0.7178 0.13943 0.0
C1905 C 0.64451 0.6787 0.1122 0.0
C1906 C 0.64989 0.74279 0.13802 0.0
C1907 C 0.63233 0.76217 0.13782 0.0
C1908 C 0.60658 0.7569 0.13914 0.0
C1909 C 0.59877 0.73182 0.1406 0.0
C1910 C 0.61639 0.71243 0.14079 0.0
H1911 H 0.65143 0.66664 0.10166 0.0
H1912 H 0.6261 0.67129 0.11642 0.0
H1913 H 0.64153 0.69795 0.10722 0.0
H1914 H 0.66963 0.74729 0.13701 0.0
H1915 H 0.63899 0.78127 0.13669 0.0
H1916 H 0.2708 0.57808 0.63995 0.0
H1917 H 0.30551 0.60806 0.63959 0.0
H1918 H 0.25298 0.66897 0.63418 0.0
H1919 H 0.2182 0.63923 0.63436 0.0
H1920 H 0.29414 0.67069 0.61136 0.0
H1921 H 0.32456 0.65649 0.6785 0.0
H1922 H 0.32222 0.62867 0.66568 0.0
H1923 H 0.29443 0.64613 0.67076 0.0
C1924 C 0.26662 0.59786 0.63875 0.0
C1925 C 0.24173 0.6063 0.63729 0.0
C1926 C 0.28647 0.61495 0.63861 0.0
C1927 C 0.28174 0.6407 0.6371 0.0
C1928 C 0.25697 0.64914 0.63544 0.0
H1929 H 0.35906 0.78096 0.63545 0.0
H1930 H 0.32952 0.74613 0.63435 0.0
C1931 C 0.23713 0.63212 0.63556 0.0
C1932 C 0.30253 0.659 0.63699 0.0
H1933 H 0.34832 0.68461 0.66187 0.0
C1934 C 0.30606 0.6737 0.62237 0.0
C1935 C 0.31809 0.6627 0.65135 0.0
C1936 C 0.31462 0.64784 0.66754 0.0
C1937 C 0.32463 0.69225 0.62178 0.0
C1938 C 0.33972 0.69645 0.63631 0.0
C1939 C 0.33666 0.68131 0.65077 0.0
C1940 C 0.35783 0.71737 0.63705 0.0
C1941 C 0.32795 0.70719 0.60561 0.0
C1942 C 0.38348 0.71271 0.63939 0.0
C1943 C 0.40048 0.73262 0.64012 0.0
C1944 C 0.39201 0.7575 0.63865 0.0
C1945 C 0.36623 0.76203 0.63655 0.0
C1946 C 0.34932 0.74215 0.63581 0.0
H1947 H 0.32016 0.69717 0.59439 0.0
H1948 H 0.31785 0.72528 0.60686 0.0
H1949 H 0.34804 0.71129 0.60322 0.0
H1950 H 0.39034 0.69367 0.64049 0.0
H1951 H 0.42021 0.72851 0.64175 0.0
H1952 H 0.41992 0.72922 0.35455 0.0
H1953 H 0.38906 0.69526 0.35393 0.0
H1954 H 0.32948 0.74892 0.36082 0.0
H1955 H 0.36002 0.78297 0.36128 0.0
H1956 H 0.35304 0.68187 0.37911 0.0
H1957 H 0.30836 0.7094 0.31806 0.0
H1958 H 0.33854 0.7212 0.32468 0.0
H1959 H 0.31027 0.7343 0.3334 0.0
C1960 C 0.40024 0.7338 0.35588 0.0
C1961 C 0.39239 0.75881 0.35781 0.0
C1962 C 0.38268 0.71438 0.35555 0.0
C1963 C 0.35703 0.71968 0.35704 0.0
C1964 C 0.34918 0.74454 0.3593 0.0
H1965 H 0.2176 0.64027 0.36085 0.0
H1966 H 0.25188 0.67057 0.36096 0.0
C1967 C 0.36668 0.76394 0.35965 0.0
C1968 C 0.33836 0.69925 0.35646 0.0
H1969 H 0.287 0.67878 0.33464 0.0
C1970 C 0.33872 0.68099 0.36932 0.0
C1971 C 0.31981 0.69822 0.34362 0.0
C1972 C 0.31928 0.71668 0.32905 0.0
C1973 C 0.32037 0.66218 0.37003 0.0
C1974 C 0.30149 0.66151 0.3574 0.0
C1975 C 0.30147 0.67946 0.34435 0.0
C1976 C 0.28106 0.64282 0.35773 0.0
C1977 C 0.32081 0.64372 0.38459 0.0
C1978 C 0.28617 0.61719 0.35579 0.0
C1979 C 0.26661 0.59978 0.35574 0.0
C1980 C 0.24162 0.60777 0.35752 0.0
C1981 C 0.23662 0.63348 0.35945 0.0
C1982 C 0.25617 0.65084 0.3595 0.0
H1983 H 0.33315 0.65008 0.39514 0.0
H1984 H 0.30164 0.64068 0.3897 0.0
H1985 H 0.32798 0.62545 0.37992 0.0
H1986 H 0.30524 0.6107 0.35412 0.0
H1987 H 0.27107 0.5801 0.3542 0.0
H1988 H 0.42076 0.271 0.85458 0.0
H1989 H 0.39051 0.30547 0.85589 0.0
H1990 H 0.33004 0.25226 0.86024 0.0
H1991 H 0.36 0.21774 0.85909 0.0
H1992 H 0.34972 0.31466 0.83377 0.0
H1993 H 0.318 0.30024 0.90034 0.0
H1994 H 0.3464 0.28643 0.89205 0.0
H1995 H 0.31647 0.27248 0.88746 0.0
C1996 C 0.40102 0.26663 0.85586 0.0
C1997 C 0.39278 0.24163 0.85677 0.0
C1998 C 0.3838 0.28634 0.85661 0.0
C1999 C 0.35813 0.28137 0.85842 0.0
C2000 C 0.34984 0.25647 0.85919 0.0
H2001 H 0.21846 0.36008 0.85892 0.0
H2002 H 0.25301 0.33007 0.85952 0.0
C2003 C 0.36699 0.23677 0.85844 0.0
C2004 C 0.3398 0.30213 0.85895 0.0
H2005 H 0.29299 0.3273 0.88312 0.0
C2006 C 0.33749 0.31766 0.84461 0.0
C2007 C 0.32395 0.30593 0.87315 0.0
C2008 C 0.32643 0.29055 0.8892 0.0
C2009 C 0.31899 0.33632 0.84383 0.0
C2010 C 0.30273 0.3397 0.85787 0.0
C2011 C 0.30546 0.32456 0.87236 0.0
C2012 C 0.28208 0.35816 0.85753 0.0
C2013 C 0.31638 0.35164 0.82776 0.0
C2014 C 0.28706 0.38391 0.85639 0.0
C2015 C 0.26735 0.40116 0.85601 0.0
C2016 C 0.24235 0.39289 0.85685 0.0
C2017 C 0.23749 0.36707 0.8582 0.0
C2018 C 0.25719 0.34989 0.85856 0.0
H2019 H 0.32672 0.34316 0.81691 0.0
H2020 H 0.29636 0.35365 0.82414 0.0
H2021 H 0.32408 0.37067 0.82999 0.0
H2022 H 0.30619 0.39067 0.8559 0.0
H2023 H 0.27172 0.42093 0.85511 0.0
H2024 H 0.63955 0.21925 0.36271 0.0
H2025 H 0.66931 0.25395 0.36241 0.0
H2026 H 0.60883 0.30607 0.35386 0.0
H2027 H 0.57872 0.27143 0.35432 0.0
H2028 H 0.67716 0.28808 0.33514 0.0
H2029 H 0.64748 0.3362 0.39475 0.0
H2030 H 0.63878 0.30425 0.38998 0.0
H2031 H 0.62317 0.32976 0.3795 0.0
C2032 C 0.6325 0.23809 0.36085 0.0
C2033 C 0.60675 0.24259 0.35854 0.0
C2034 C 0.64955 0.25788 0.36067 0.0
C2035 C 0.64121 0.28253 0.35827 0.0
C2036 C 0.61555 0.28718 0.35599 0.0
H2037 H 0.72892 0.42089 0.35438 0.0
H2038 H 0.69444 0.39061 0.3537 0.0
C2039 C 0.59842 0.26735 0.35616 0.0
C2040 C 0.65966 0.30315 0.35764 0.0
H2041 H 0.67993 0.35515 0.37888 0.0
C2042 C 0.67774 0.3028 0.34466 0.0
C2043 C 0.66019 0.32237 0.37003 0.0
C2044 C 0.64151 0.32321 0.38445 0.0
C2045 C 0.69657 0.32105 0.34384 0.0
C2046 C 0.69756 0.33985 0.35651 0.0
C2047 C 0.6791 0.34063 0.36923 0.0
C2048 C 0.71827 0.35821 0.35715 0.0
C2049 C 0.7152 0.3201 0.32939 0.0
C2050 C 0.74296 0.34997 0.35963 0.0
C2051 C 0.76266 0.36714 0.36001 0.0
C2052 C 0.75799 0.3929 0.358 0.0
C2053 C 0.73315 0.40115 0.35586 0.0
C2054 C 0.71343 0.38392 0.35549 0.0
H2055 H 0.70788 0.30918 0.31841 0.0
H2056 H 0.72009 0.33924 0.32495 0.0
H2057 H 0.73262 0.31084 0.33388 0.0
H2058 H 0.74699 0.33023 0.36129 0.0
H2059 H 0.78155 0.36017 0.36181 0.0
H2060 H 0.72913 0.58022 0.85327 0.0
H2061 H 0.69502 0.61093 0.8531 0.0
H2062 H 0.74882 0.67094 0.85703 0.0
H2063 H 0.78301 0.64053 0.85702 0.0
H2064 H 0.68317 0.6475 0.87795 0.0
H2065 H 0.70612 0.69075 0.81558 0.0
H2066 H 0.71875 0.6609 0.82221 0.0
H2067 H 0.73208 0.68957 0.83012 0.0
C2068 C 0.73371 0.59996 0.85402 0.0
C2069 C 0.75879 0.60796 0.85502 0.0
C2070 C 0.71421 0.61745 0.85395 0.0
C2071 C 0.71947 0.64316 0.85477 0.0
C2072 C 0.74443 0.65118 0.85603 0.0
H2073 H 0.63906 0.7821 0.8596 0.0
H2074 H 0.66971 0.74811 0.85932 0.0
C2075 C 0.76392 0.63375 0.85611 0.0
C2076 C 0.6989 0.66172 0.85461 0.0
H2077 H 0.67659 0.71242 0.83291 0.0
C2078 C 0.68153 0.66157 0.86804 0.0
C2079 C 0.69687 0.67996 0.84162 0.0
C2080 C 0.71429 0.68024 0.82647 0.0
C2081 C 0.66264 0.67981 0.86913 0.0
C2082 C 0.66098 0.69837 0.85633 0.0
C2083 C 0.67804 0.6982 0.84274 0.0
C2084 C 0.64211 0.71862 0.857 0.0
C2085 C 0.64515 0.67959 0.88423 0.0
C2086 C 0.61646 0.71323 0.85571 0.0
C2087 C 0.59884 0.73262 0.85587 0.0
C2088 C 0.60666 0.75771 0.85723 0.0
C2089 C 0.6324 0.76298 0.85855 0.0
C2090 C 0.64996 0.74361 0.85837 0.0
H2091 H 0.65224 0.66746 0.89469 0.0
H2092 H 0.64238 0.69884 0.88926 0.0
H2093 H 0.62661 0.67229 0.88018 0.0
H2094 H 0.61009 0.69406 0.85437 0.0
H2095 H 0.57915 0.72794 0.85482 0.0
loop_
_geom_bond_atom_site_label_1
_geom_bond_atom_site_label_2
_geom_bond_distance
_geom_bond_site_symmetry_2
_ccdc_geom_bond_type
Co0 O2 2.143 . S
Co0 O8 2.074 . S
Co0 O11 2.093 . S
Co0 O24 2.097 . S
Co0 N41 2.151 . S
Co0 N49 2.214 . S
Co1 O2 2.160 . S
Co1 O7 2.058 . S
Co1 O17 2.057 . S
Co1 O32 2.037 . S
Co1 N36 2.145 . S
Co1 N57 2.257 . S
O2 Co0 2.143 . S
O2 Co1 2.160 . S
C3 O4 1.278 . S
C3 O11 1.224 . S
O4 C3 1.278 . S
C5 O6 1.245 . S
C5 O17 1.232 . S
O6 C5 1.245 . S
O7 Co1 2.058 . S
O7 C33 1.269 . S
O8 Co0 2.074 . S
O8 C33 1.257 . S
H9 C34 0.930 . S
H10 C40 0.930 . S
O11 Co0 2.093 . S
O11 C3 1.224 . S
H12 C44 0.929 . S
H13 C46 0.930 . S
H14 C47 0.930 . S
H15 C45 0.929 . S
H16 C48 0.928 . S
O17 Co1 2.057 . S
O17 C5 1.232 . S
H18 C37 0.929 . S
H19 C38 0.929 . S
H20 C50 0.931 . S
H21 C42 0.929 . S
H22 C51 0.930 . S
H23 C43 0.931 . S
O24 Co0 2.097 . S
O24 C52 1.214 . S
H25 C53 0.929 . S
H26 C54 0.929 . S
H27 C55 0.930 . S
H28 C56 0.929 . S
H29 C58 0.930 . S
H30 C35 0.930 . S
H31 C39 0.930 . S
O32 Co1 2.037 . S
O32 C52 1.234 . S
C33 O7 1.269 . S
C33 O8 1.257 . S
C34 H9 0.930 . S
C34 C37 1.388 . S
C34 C39 1.418 . S
C35 H30 0.930 . S
C35 C38 1.404 . S
C35 C39 1.353 . S
N36 Co1 2.145 . S
N36 C37 1.397 . S
N36 C38 1.334 . S
C37 H18 0.929 . S
C37 C34 1.388 . S
C37 N36 1.397 . S
C38 H19 0.929 . S
C38 C35 1.404 . S
C38 N36 1.334 . S
C39 H31 0.930 . S
C39 C34 1.418 . S
C39 C35 1.353 . S
C40 H10 0.930 . S
C40 N41 1.330 . S
C40 C42 1.446 . S
N41 Co0 2.151 . S
N41 C40 1.330 . S
N41 C45 1.418 . S
C42 H21 0.929 . S
C42 C40 1.446 . S
C42 C43 1.332 . S
C43 H23 0.931 . S
C43 C42 1.332 . S
C43 C44 1.267 . S
C44 H12 0.929 . S
C44 C43 1.267 . S
C44 C45 1.251 . S
C45 H15 0.929 . S
C45 N41 1.418 . S
C45 C44 1.251 . S
C46 H13 0.930 . S
C46 C48 1.406 . S
C46 C51 1.261 . S
C47 H14 0.930 . S
C47 N49 1.325 . S
C47 C50 1.357 . S
C48 H16 0.928 . S
C48 C46 1.406 . S
C48 N49 1.261 . S
N49 Co0 2.214 . S
N49 C47 1.325 . S
N49 C48 1.261 . S
C50 H20 0.931 . S
C50 C47 1.357 . S
C50 C51 1.312 . S
C51 H22 0.930 . S
C51 C46 1.261 . S
C51 C50 1.312 . S
C52 O24 1.214 . S
C52 O32 1.234 . S
C53 H25 0.929 . S
C53 C56 1.391 . S
C53 C58 1.391 . S
C54 H26 0.929 . S
C54 C55 1.390 . S
C54 N57 1.391 . S
C55 H27 0.930 . S
C55 C54 1.390 . S
C55 C56 1.392 . S
C56 H28 0.929 . S
C56 C53 1.391 . S
C56 C55 1.392 . S
N57 Co1 2.257 . S
N57 C54 1.391 . S
N57 C58 1.388 . S
C58 H29 0.930 . S
C58 C53 1.391 . S
C58 N57 1.388 . S
Co59 O61 2.143 . S
Co59 O67 2.074 . S
Co59 O70 2.093 . S
Co59 O83 2.097 . S
Co59 N100 2.151 . S
Co59 N108 2.214 . S
Co60 O61 2.160 . S
Co60 O66 2.058 . S
Co60 O76 2.057 . S
Co60 O91 2.037 . S
Co60 N95 2.145 . S
Co60 N116 2.257 . S
O61 Co59 2.143 . S
O61 Co60 2.160 . S
C62 O63 1.278 . S
C62 O70 1.224 . S
O63 C62 1.278 . S
C64 O65 1.245 . S
C64 O76 1.232 . S
O65 C64 1.245 . S
O66 Co60 2.058 . S
O66 C92 1.269 . S
O67 Co59 2.074 . S
O67 C92 1.257 . S
H68 C93 0.930 . S
H69 C99 0.930 . S
O70 Co59 2.093 . S
O70 C62 1.224 . S
H71 C103 0.929 . S
H72 C105 0.930 . S
H73 C106 0.930 . S
H74 C104 0.929 . S
H75 C107 0.928 . S
O76 Co60 2.057 . S
O76 C64 1.232 . S
H77 C96 0.929 . S
H78 C97 0.929 . S
H79 C109 0.931 . S
H80 C101 0.929 . S
H81 C110 0.930 . S
H82 C102 0.931 . S
O83 Co59 2.097 . S
O83 C111 1.214 . S
H84 C112 0.929 . S
H85 C113 0.929 . S
H86 C114 0.930 . S
H87 C115 0.929 . S
H88 C117 0.930 . S
H89 C94 0.930 . S
H90 C98 0.930 . S
O91 Co60 2.037 . S
O91 C111 1.234 . S
C92 O66 1.269 . S
C92 O67 1.257 . S
C93 H68 0.930 . S
C93 C96 1.388 . S
C93 C98 1.418 . S
C94 H89 0.930 . S
C94 C97 1.404 . S
C94 C98 1.353 . S
N95 Co60 2.145 . S
N95 C96 1.397 . S
N95 C97 1.334 . S
C96 H77 0.929 . S
C96 C93 1.388 . S
C96 N95 1.397 . S
C97 H78 0.929 . S
C97 C94 1.404 . S
C97 N95 1.334 . S
C98 H90 0.930 . S
C98 C93 1.418 . S
C98 C94 1.353 . S
C99 H69 0.930 . S
C99 N100 1.330 . S
C99 C101 1.446 . S
N100 Co59 2.151 . S
N100 C99 1.330 . S
N100 C104 1.418 . S
C101 H80 0.929 . S
C101 C99 1.446 . S
C101 C102 1.332 . S
C102 H82 0.931 . S
C102 C101 1.332 . S
C102 C103 1.267 . S
C103 H71 0.929 . S
C103 C102 1.267 . S
C103 C104 1.251 . S
C104 H74 0.929 . S
C104 N100 1.418 . S
C104 C103 1.251 . S
C105 H72 0.930 . S
C105 C107 1.406 . S
C105 C110 1.261 . S
C106 H73 0.930 . S
C106 N108 1.325 . S
C106 C109 1.357 . S
C107 H75 0.928 . S
C107 C105 1.406 . S
C107 N108 1.261 . S
N108 Co59 2.214 . S
N108 C106 1.325 . S
N108 C107 1.261 . S
C109 H79 0.931 . S
C109 C106 1.357 . S
C109 C110 1.312 . S
C110 H81 0.930 . S
C110 C105 1.261 . S
C110 C109 1.312 . S
C111 O83 1.214 . S
C111 O91 1.234 . S
C112 H84 0.929 . S
C112 C115 1.391 . S
C112 C117 1.391 . S
C113 H85 0.929 . S
C113 C114 1.390 . S
C113 N116 1.391 . S
C114 H86 0.930 . S
C114 C113 1.390 . S
C114 C115 1.392 . S
C115 H87 0.929 . S
C115 C112 1.391 . S
C115 C114 1.392 . S
N116 Co60 2.257 . S
N116 C113 1.391 . S
N116 C117 1.388 . S
C117 H88 0.930 . S
C117 C112 1.391 . S
C117 N116 1.388 . S
Co118 O120 2.143 . S
Co118 O126 2.074 . S
Co118 O129 2.093 . S
Co118 O142 2.097 . S
Co118 N159 2.151 . S
Co118 N167 2.214 . S
Co119 O120 2.160 . S
Co119 O125 2.058 . S
Co119 O135 2.057 . S
Co119 O150 2.037 . S
Co119 N154 2.145 . S
Co119 N175 2.257 . S
O120 Co118 2.143 . S
O120 Co119 2.160 . S
C121 O122 1.278 . S
C121 O129 1.224 . S
O122 C121 1.278 . S
C123 O124 1.245 . S
C123 O135 1.232 . S
O124 C123 1.245 . S
O125 Co119 2.058 . S
O125 C151 1.269 . S
O126 Co118 2.074 . S
O126 C151 1.257 . S
H127 C152 0.930 . S
H128 C158 0.930 . S
O129 Co118 2.093 . S
O129 C121 1.224 . S
H130 C162 0.929 . S
H131 C164 0.930 . S
H132 C165 0.930 . S
H133 C163 0.929 . S
H134 C166 0.928 . S
O135 Co119 2.057 . S
O135 C123 1.232 . S
H136 C155 0.929 . S
H137 C156 0.929 . S
H138 C168 0.931 . S
H139 C160 0.929 . S
H140 C169 0.930 . S
H141 C161 0.931 . S
O142 Co118 2.097 . S
O142 C170 1.214 . S
H143 C171 0.929 . S
H144 C172 0.929 . S
H145 C173 0.930 . S
H146 C174 0.929 . S
H147 C176 0.930 . S
H148 C153 0.930 . S
H149 C157 0.930 . S
O150 Co119 2.037 . S
O150 C170 1.234 . S
C151 O125 1.269 . S
C151 O126 1.257 . S
C152 H127 0.930 . S
C152 C155 1.388 . S
C152 C157 1.418 . S
C153 H148 0.930 . S
C153 C156 1.404 . S
C153 C157 1.353 . S
N154 Co119 2.145 . S
N154 C155 1.397 . S
N154 C156 1.334 . S
C155 H136 0.929 . S
C155 C152 1.388 . S
C155 N154 1.397 . S
C156 H137 0.929 . S
C156 C153 1.404 . S
C156 N154 1.334 . S
C157 H149 0.930 . S
C157 C152 1.418 . S
C157 C153 1.353 . S
C158 H128 0.930 . S
C158 N159 1.330 . S
C158 C160 1.446 . S
N159 Co118 2.151 . S
N159 C158 1.330 . S
N159 C163 1.418 . S
C160 H139 0.929 . S
C160 C158 1.446 . S
C160 C161 1.332 . S
C161 H141 0.931 . S
C161 C160 1.332 . S
C161 C162 1.267 . S
C162 H130 0.929 . S
C162 C161 1.267 . S
C162 C163 1.251 . S
C163 H133 0.929 . S
C163 N159 1.418 . S
C163 C162 1.251 . S
C164 H131 0.930 . S
C164 C166 1.406 . S
C164 C169 1.261 . S
C165 H132 0.930 . S
C165 N167 1.325 . S
C165 C168 1.357 . S
C166 H134 0.928 . S
C166 C164 1.406 . S
C166 N167 1.261 . S
N167 Co118 2.214 . S
N167 C165 1.325 . S
N167 C166 1.261 . S
C168 H138 0.931 . S
C168 C165 1.357 . S
C168 C169 1.312 . S
C169 H140 0.930 . S
C169 C164 1.261 . S
C169 C168 1.312 . S
C170 O142 1.214 . S
C170 O150 1.234 . S
C171 H143 0.929 . S
C171 C174 1.391 . S
C171 C176 1.391 . S
C172 H144 0.929 . S
C172 C173 1.390 . S
C172 N175 1.391 . S
C173 H145 0.930 . S
C173 C172 1.390 . S
C173 C174 1.392 . S
C174 H146 0.929 . S
C174 C171 1.391 . S
C174 C173 1.392 . S
N175 Co119 2.257 . S
N175 C172 1.391 . S
N175 C176 1.388 . S
C176 H147 0.930 . S
C176 C171 1.391 . S
C176 N175 1.388 . S
Co177 O179 2.143 . S
Co177 O185 2.074 . S
Co177 O188 2.093 . S
Co177 O201 2.097 . S
Co177 N218 2.151 . S
Co177 N226 2.214 . S
Co178 O179 2.160 . S
Co178 O184 2.058 . S
Co178 O194 2.057 . S
Co178 O209 2.037 . S
Co178 N213 2.145 . S
Co178 N234 2.257 . S
O179 Co177 2.143 . S
O179 Co178 2.160 . S
C180 O181 1.278 . S
C180 O188 1.224 . S
O181 C180 1.278 . S
C182 O183 1.245 . S
C182 O194 1.232 . S
O183 C182 1.245 . S
O184 Co178 2.058 . S
O184 C210 1.269 . S
O185 Co177 2.074 . S
O185 C210 1.257 . S
H186 C211 0.930 . S
H187 C217 0.930 . S
O188 Co177 2.093 . S
O188 C180 1.224 . S
H189 C221 0.929 . S
H190 C223 0.930 . S
H191 C224 0.930 . S
H192 C222 0.929 . S
H193 C225 0.928 . S
O194 Co178 2.057 . S
O194 C182 1.232 . S
H195 C214 0.929 . S
H196 C215 0.929 . S
H197 C227 0.931 . S
H198 C219 0.929 . S
H199 C228 0.930 . S
H200 C220 0.931 . S
O201 Co177 2.097 . S
O201 C229 1.214 . S
H202 C230 0.929 . S
H203 C231 0.929 . S
H204 C232 0.930 . S
H205 C233 0.929 . S
H206 C235 0.930 . S
H207 C212 0.930 . S
H208 C216 0.930 . S
O209 Co178 2.037 . S
O209 C229 1.234 . S
C210 O184 1.269 . S
C210 O185 1.257 . S
C211 H186 0.930 . S
C211 C214 1.388 . S
C211 C216 1.418 . S
C212 H207 0.930 . S
C212 C215 1.404 . S
C212 C216 1.353 . S
N213 Co178 2.145 . S
N213 C214 1.397 . S
N213 C215 1.334 . S
C214 H195 0.929 . S
C214 C211 1.388 . S
C214 N213 1.397 . S
C215 H196 0.929 . S
C215 C212 1.404 . S
C215 N213 1.334 . S
C216 H208 0.930 . S
C216 C211 1.418 . S
C216 C212 1.353 . S
C217 H187 0.930 . S
C217 N218 1.330 . S
C217 C219 1.446 . S
N218 Co177 2.151 . S
N218 C217 1.330 . S
N218 C222 1.418 . S
C219 H198 0.929 . S
C219 C217 1.446 . S
C219 C220 1.332 . S
C220 H200 0.931 . S
C220 C219 1.332 . S
C220 C221 1.267 . S
C221 H189 0.929 . S
C221 C220 1.267 . S
C221 C222 1.251 . S
C222 H192 0.929 . S
C222 N218 1.418 . S
C222 C221 1.251 . S
C223 H190 0.930 . S
C223 C225 1.406 . S
C223 C228 1.261 . S
C224 H191 0.930 . S
C224 N226 1.325 . S
C224 C227 1.357 . S
C225 H193 0.928 . S
C225 C223 1.406 . S
C225 N226 1.261 . S
N226 Co177 2.214 . S
N226 C224 1.325 . S
N226 C225 1.261 . S
C227 H197 0.931 . S
C227 C224 1.357 . S
C227 C228 1.312 . S
C228 H199 0.930 . S
C228 C223 1.261 . S
C228 C227 1.312 . S
C229 O201 1.214 . S
C229 O209 1.234 . S
C230 H202 0.929 . S
C230 C233 1.391 . S
C230 C235 1.391 . S
C231 H203 0.929 . S
C231 C232 1.390 . S
C231 N234 1.391 . S
C232 H204 0.930 . S
C232 C231 1.390 . S
C232 C233 1.392 . S
C233 H205 0.929 . S
C233 C230 1.391 . S
C233 C232 1.392 . S
N234 Co178 2.257 . S
N234 C231 1.391 . S
N234 C235 1.388 . S
C235 H206 0.930 . S
C235 C230 1.391 . S
C235 N234 1.388 . S
Co236 O238 2.143 . S
Co236 O244 2.074 . S
Co236 O247 2.093 . S
Co236 O260 2.097 . S
Co236 N277 2.151 . S
Co236 N285 2.214 . S
Co237 O238 2.160 . S
Co237 O243 2.058 . S
Co237 O253 2.057 . S
Co237 O268 2.037 . S
Co237 N272 2.145 . S
Co237 N293 2.257 . S
O238 Co236 2.143 . S
O238 Co237 2.160 . S
C239 O240 1.278 . S
C239 O247 1.224 . S
O240 C239 1.278 . S
C241 O242 1.245 . S
C241 O253 1.232 . S
O242 C241 1.245 . S
O243 Co237 2.058 . S
O243 C269 1.269 . S
O244 Co236 2.074 . S
O244 C269 1.257 . S
H245 C270 0.930 . S
H246 C276 0.930 . S
O247 Co236 2.093 . S
O247 C239 1.224 . S
H248 C280 0.929 . S
H249 C282 0.930 . S
H250 C283 0.930 . S
H251 C281 0.929 . S
H252 C284 0.928 . S
O253 Co237 2.057 . S
O253 C241 1.232 . S
H254 C273 0.929 . S
H255 C274 0.929 . S
H256 C286 0.931 . S
H257 C278 0.929 . S
H258 C287 0.930 . S
H259 C279 0.931 . S
O260 Co236 2.097 . S
O260 C288 1.214 . S
H261 C289 0.929 . S
H262 C290 0.929 . S
H263 C291 0.930 . S
H264 C292 0.929 . S
H265 C294 0.930 . S
H266 C271 0.930 . S
H267 C275 0.930 . S
O268 Co237 2.037 . S
O268 C288 1.234 . S
C269 O243 1.269 . S
C269 O244 1.257 . S
C270 H245 0.930 . S
C270 C273 1.388 . S
C270 C275 1.418 . S
C271 H266 0.930 . S
C271 C274 1.404 . S
C271 C275 1.353 . S
N272 Co237 2.145 . S
N272 C273 1.397 . S
N272 C274 1.334 . S
C273 H254 0.929 . S
C273 C270 1.388 . S
C273 N272 1.397 . S
C274 H255 0.929 . S
C274 C271 1.404 . S
C274 N272 1.334 . S
C275 H267 0.930 . S
C275 C270 1.418 . S
C275 C271 1.353 . S
C276 H246 0.930 . S
C276 N277 1.330 . S
C276 C278 1.446 . S
N277 Co236 2.151 . S
N277 C276 1.330 . S
N277 C281 1.418 . S
C278 H257 0.929 . S
C278 C276 1.446 . S
C278 C279 1.332 . S
C279 H259 0.931 . S
C279 C278 1.332 . S
C279 C280 1.267 . S
C280 H248 0.929 . S
C280 C279 1.267 . S
C280 C281 1.251 . S
C281 H251 0.929 . S
C281 N277 1.418 . S
C281 C280 1.251 . S
C282 H249 0.930 . S
C282 C284 1.406 . S
C282 C287 1.261 . S
C283 H250 0.930 . S
C283 N285 1.325 . S
C283 C286 1.357 . S
C284 H252 0.928 . S
C284 C282 1.406 . S
C284 N285 1.261 . S
N285 Co236 2.214 . S
N285 C283 1.325 . S
N285 C284 1.261 . S
C286 H256 0.931 . S
C286 C283 1.357 . S
C286 C287 1.312 . S
C287 H258 0.930 . S
C287 C282 1.261 . S
C287 C286 1.312 . S
C288 O260 1.214 . S
C288 O268 1.234 . S
C289 H261 0.929 . S
C289 C292 1.391 . S
C289 C294 1.391 . S
C290 H262 0.929 . S
C290 C291 1.390 . S
C290 N293 1.391 . S
C291 H263 0.930 . S
C291 C290 1.390 . S
C291 C292 1.392 . S
C292 H264 0.929 . S
C292 C289 1.391 . S
C292 C291 1.392 . S
N293 Co237 2.257 . S
N293 C290 1.391 . S
N293 C294 1.388 . S
C294 H265 0.930 . S
C294 C289 1.391 . S
C294 N293 1.388 . S
Co295 O297 2.143 . S
Co295 O303 2.074 . S
Co295 O306 2.093 . S
Co295 O319 2.097 . S
Co295 N336 2.151 . S
Co295 N344 2.214 . S
Co296 O297 2.160 . S
Co296 O302 2.058 . S
Co296 O312 2.057 . S
Co296 O327 2.037 . S
Co296 N331 2.145 . S
Co296 N352 2.257 . S
O297 Co295 2.143 . S
O297 Co296 2.160 . S
C298 O299 1.278 . S
C298 O306 1.224 . S
O299 C298 1.278 . S
C300 O301 1.245 . S
C300 O312 1.232 . S
O301 C300 1.245 . S
O302 Co296 2.058 . S
O302 C328 1.269 . S
O303 Co295 2.074 . S
O303 C328 1.257 . S
H304 C329 0.930 . S
H305 C335 0.930 . S
O306 Co295 2.093 . S
O306 C298 1.224 . S
H307 C339 0.929 . S
H308 C341 0.930 . S
H309 C342 0.930 . S
H310 C340 0.929 . S
H311 C343 0.928 . S
O312 Co296 2.057 . S
O312 C300 1.232 . S
H313 C332 0.929 . S
H314 C333 0.929 . S
H315 C345 0.931 . S
H316 C337 0.929 . S
H317 C346 0.930 . S
H318 C338 0.931 . S
O319 Co295 2.097 . S
O319 C347 1.214 . S
H320 C348 0.929 . S
H321 C349 0.929 . S
H322 C350 0.930 . S
H323 C351 0.929 . S
H324 C353 0.930 . S
H325 C330 0.930 . S
H326 C334 0.930 . S
O327 Co296 2.037 . S
O327 C347 1.234 . S
C328 O302 1.269 . S
C328 O303 1.257 . S
C329 H304 0.930 . S
C329 C332 1.388 . S
C329 C334 1.418 . S
C330 H325 0.930 . S
C330 C333 1.404 . S
C330 C334 1.353 . S
N331 Co296 2.145 . S
N331 C332 1.397 . S
N331 C333 1.334 . S
C332 H313 0.929 . S
C332 C329 1.388 . S
C332 N331 1.397 . S
C333 H314 0.929 . S
C333 C330 1.404 . S
C333 N331 1.334 . S
C334 H326 0.930 . S
C334 C329 1.418 . S
C334 C330 1.353 . S
C335 H305 0.930 . S
C335 N336 1.330 . S
C335 C337 1.446 . S
N336 Co295 2.151 . S
N336 C335 1.330 . S
N336 C340 1.418 . S
C337 H316 0.929 . S
C337 C335 1.446 . S
C337 C338 1.332 . S
C338 H318 0.931 . S
C338 C337 1.332 . S
C338 C339 1.267 . S
C339 H307 0.929 . S
C339 C338 1.267 . S
C339 C340 1.251 . S
C340 H310 0.929 . S
C340 N336 1.418 . S
C340 C339 1.251 . S
C341 H308 0.930 . S
C341 C343 1.406 . S
C341 C346 1.261 . S
C342 H309 0.930 . S
C342 N344 1.325 . S
C342 C345 1.357 . S
C343 H311 0.928 . S
C343 C341 1.406 . S
C343 N344 1.261 . S
N344 Co295 2.214 . S
N344 C342 1.325 . S
N344 C343 1.261 . S
C345 H315 0.931 . S
C345 C342 1.357 . S
C345 C346 1.312 . S
C346 H317 0.930 . S
C346 C341 1.261 . S
C346 C345 1.312 . S
C347 O319 1.214 . S
C347 O327 1.234 . S
C348 H320 0.929 . S
C348 C351 1.391 . S
C348 C353 1.391 . S
C349 H321 0.929 . S
C349 C350 1.390 . S
C349 N352 1.391 . S
C350 H322 0.930 . S
C350 C349 1.390 . S
C350 C351 1.392 . S
C351 H323 0.929 . S
C351 C348 1.391 . S
C351 C350 1.392 . S
N352 Co296 2.257 . S
N352 C349 1.391 . S
N352 C353 1.388 . S
C353 H324 0.930 . S
C353 C348 1.391 . S
C353 N352 1.388 . S
Co354 O356 2.143 . S
Co354 O362 2.074 . S
Co354 O365 2.093 . S
Co354 O378 2.097 . S
Co354 N395 2.151 . S
Co354 N403 2.214 . S
Co355 O356 2.160 . S
Co355 O361 2.058 . S
Co355 O371 2.057 . S
Co355 O386 2.037 . S
Co355 N390 2.145 . S
Co355 N411 2.257 . S
O356 Co354 2.143 . S
O356 Co355 2.160 . S
C357 O358 1.278 . S
C357 O365 1.224 . S
O358 C357 1.278 . S
C359 O360 1.245 . S
C359 O371 1.232 . S
O360 C359 1.245 . S
O361 Co355 2.058 . S
O361 C387 1.269 . S
O362 Co354 2.074 . S
O362 C387 1.257 . S
H363 C388 0.930 . S
H364 C394 0.930 . S
O365 Co354 2.093 . S
O365 C357 1.224 . S
H366 C398 0.929 . S
H367 C400 0.930 . S
H368 C401 0.930 . S
H369 C399 0.929 . S
H370 C402 0.928 . S
O371 Co355 2.057 . S
O371 C359 1.232 . S
H372 C391 0.929 . S
H373 C392 0.929 . S
H374 C404 0.931 . S
H375 C396 0.929 . S
H376 C405 0.930 . S
H377 C397 0.931 . S
O378 Co354 2.097 . S
O378 C406 1.214 . S
H379 C407 0.929 . S
H380 C408 0.929 . S
H381 C409 0.930 . S
H382 C410 0.929 . S
H383 C412 0.930 . S
H384 C389 0.930 . S
H385 C393 0.930 . S
O386 Co355 2.037 . S
O386 C406 1.234 . S
C387 O361 1.269 . S
C387 O362 1.257 . S
C388 H363 0.930 . S
C388 C391 1.388 . S
C388 C393 1.418 . S
C389 H384 0.930 . S
C389 C392 1.404 . S
C389 C393 1.353 . S
N390 Co355 2.145 . S
N390 C391 1.397 . S
N390 C392 1.334 . S
C391 H372 0.929 . S
C391 C388 1.388 . S
C391 N390 1.397 . S
C392 H373 0.929 . S
C392 C389 1.404 . S
C392 N390 1.334 . S
C393 H385 0.930 . S
C393 C388 1.418 . S
C393 C389 1.353 . S
C394 H364 0.930 . S
C394 N395 1.330 . S
C394 C396 1.446 . S
N395 Co354 2.151 . S
N395 C394 1.330 . S
N395 C399 1.418 . S
C396 H375 0.929 . S
C396 C394 1.446 . S
C396 C397 1.332 . S
C397 H377 0.931 . S
C397 C396 1.332 . S
C397 C398 1.267 . S
C398 H366 0.929 . S
C398 C397 1.267 . S
C398 C399 1.251 . S
C399 H369 0.929 . S
C399 N395 1.418 . S
C399 C398 1.251 . S
C400 H367 0.930 . S
C400 C402 1.406 . S
C400 C405 1.261 . S
C401 H368 0.930 . S
C401 N403 1.325 . S
C401 C404 1.357 . S
C402 H370 0.928 . S
C402 C400 1.406 . S
C402 N403 1.261 . S
N403 Co354 2.214 . S
N403 C401 1.325 . S
N403 C402 1.261 . S
C404 H374 0.931 . S
C404 C401 1.357 . S
C404 C405 1.312 . S
C405 H376 0.930 . S
C405 C400 1.261 . S
C405 C404 1.312 . S
C406 O378 1.214 . S
C406 O386 1.234 . S
C407 H379 0.929 . S
C407 C410 1.391 . S
C407 C412 1.391 . S
C408 H380 0.929 . S
C408 C409 1.390 . S
C408 N411 1.391 . S
C409 H381 0.930 . S
C409 C408 1.390 . S
C409 C410 1.392 . S
C410 H382 0.929 . S
C410 C407 1.391 . S
C410 C409 1.392 . S
N411 Co355 2.257 . S
N411 C408 1.391 . S
N411 C412 1.388 . S
C412 H383 0.930 . S
C412 C407 1.391 . S
C412 N411 1.388 . S
Co413 O415 2.143 . S
Co413 O421 2.074 . S
Co413 O424 2.093 . S
Co413 O437 2.097 . S
Co413 N454 2.151 . S
Co413 N462 2.214 . S
Co414 O415 2.160 . S
Co414 O420 2.058 . S
Co414 O430 2.057 . S
Co414 O445 2.037 . S
Co414 N449 2.145 . S
Co414 N470 2.257 . S
O415 Co413 2.143 . S
O415 Co414 2.160 . S
C416 O417 1.278 . S
C416 O424 1.224 . S
O417 C416 1.278 . S
C418 O419 1.245 . S
C418 O430 1.232 . S
O419 C418 1.245 . S
O420 Co414 2.058 . S
O420 C446 1.269 . S
O421 Co413 2.074 . S
O421 C446 1.257 . S
H422 C447 0.930 . S
H423 C453 0.930 . S
O424 Co413 2.093 . S
O424 C416 1.224 . S
H425 C457 0.929 . S
H426 C459 0.930 . S
H427 C460 0.930 . S
H428 C458 0.929 . S
H429 C461 0.928 . S
O430 Co414 2.057 . S
O430 C418 1.232 . S
H431 C450 0.929 . S
H432 C451 0.929 . S
H433 C463 0.931 . S
H434 C455 0.929 . S
H435 C464 0.930 . S
H436 C456 0.931 . S
O437 Co413 2.097 . S
O437 C465 1.214 . S
H438 C466 0.929 . S
H439 C467 0.929 . S
H440 C468 0.930 . S
H441 C469 0.929 . S
H442 C471 0.930 . S
H443 C448 0.930 . S
H444 C452 0.930 . S
O445 Co414 2.037 . S
O445 C465 1.234 . S
C446 O420 1.269 . S
C446 O421 1.257 . S
C447 H422 0.930 . S
C447 C450 1.388 . S
C447 C452 1.418 . S
C448 H443 0.930 . S
C448 C451 1.404 . S
C448 C452 1.353 . S
N449 Co414 2.145 . S
N449 C450 1.397 . S
N449 C451 1.334 . S
C450 H431 0.929 . S
C450 C447 1.388 . S
C450 N449 1.397 . S
C451 H432 0.929 . S
C451 C448 1.404 . S
C451 N449 1.334 . S
C452 H444 0.930 . S
C452 C447 1.418 . S
C452 C448 1.353 . S
C453 H423 0.930 . S
C453 N454 1.330 . S
C453 C455 1.446 . S
N454 Co413 2.151 . S
N454 C453 1.330 . S
N454 C458 1.418 . S
C455 H434 0.929 . S
C455 C453 1.446 . S
C455 C456 1.332 . S
C456 H436 0.931 . S
C456 C455 1.332 . S
C456 C457 1.267 . S
C457 H425 0.929 . S
C457 C456 1.267 . S
C457 C458 1.251 . S
C458 H428 0.929 . S
C458 N454 1.418 . S
C458 C457 1.251 . S
C459 H426 0.930 . S
C459 C461 1.406 . S
C459 C464 1.261 . S
C460 H427 0.930 . S
C460 N462 1.325 . S
C460 C463 1.357 . S
C461 H429 0.928 . S
C461 C459 1.406 . S
C461 N462 1.261 . S
N462 Co413 2.214 . S
N462 C460 1.325 . S
N462 C461 1.261 . S
C463 H433 0.931 . S
C463 C460 1.357 . S
C463 C464 1.312 . S
C464 H435 0.930 . S
C464 C459 1.261 . S
C464 C463 1.312 . S
C465 O437 1.214 . S
C465 O445 1.234 . S
C466 H438 0.929 . S
C466 C469 1.391 . S
C466 C471 1.391 . S
C467 H439 0.929 . S
C467 C468 1.390 . S
C467 N470 1.391 . S
C468 H440 0.930 . S
C468 C467 1.390 . S
C468 C469 1.392 . S
C469 H441 0.929 . S
C469 C466 1.391 . S
C469 C468 1.392 . S
N470 Co414 2.257 . S
N470 C467 1.391 . S
N470 C471 1.388 . S
C471 H442 0.930 . S
C471 C466 1.391 . S
C471 N470 1.388 . S
Co472 O474 2.143 . S
Co472 O480 2.074 . S
Co472 O483 2.093 . S
Co472 O496 2.097 . S
Co472 N513 2.151 . S
Co472 N521 2.214 . S
Co473 O474 2.160 . S
Co473 O479 2.058 . S
Co473 O489 2.057 . S
Co473 O504 2.037 . S
Co473 N508 2.145 . S
Co473 N529 2.257 . S
O474 Co472 2.143 . S
O474 Co473 2.160 . S
C475 O476 1.278 . S
C475 O483 1.224 . S
O476 C475 1.278 . S
C477 O478 1.245 . S
C477 O489 1.232 . S
O478 C477 1.245 . S
O479 Co473 2.058 . S
O479 C505 1.269 . S
O480 Co472 2.074 . S
O480 C505 1.257 . S
H481 C506 0.930 . S
H482 C512 0.930 . S
O483 Co472 2.093 . S
O483 C475 1.224 . S
H484 C516 0.929 . S
H485 C518 0.930 . S
H486 C519 0.930 . S
H487 C517 0.929 . S
H488 C520 0.928 . S
O489 Co473 2.057 . S
O489 C477 1.232 . S
H490 C509 0.929 . S
H491 C510 0.929 . S
H492 C522 0.931 . S
H493 C514 0.929 . S
H494 C523 0.930 . S
H495 C515 0.931 . S
O496 Co472 2.097 . S
O496 C524 1.214 . S
H497 C525 0.929 . S
H498 C526 0.929 . S
H499 C527 0.930 . S
H500 C528 0.929 . S
H501 C530 0.930 . S
H502 C507 0.930 . S
H503 C511 0.930 . S
O504 Co473 2.037 . S
O504 C524 1.234 . S
C505 O479 1.269 . S
C505 O480 1.257 . S
C506 H481 0.930 . S
C506 C509 1.388 . S
C506 C511 1.418 . S
C507 H502 0.930 . S
C507 C510 1.404 . S
C507 C511 1.353 . S
N508 Co473 2.145 . S
N508 C509 1.397 . S
N508 C510 1.334 . S
C509 H490 0.929 . S
C509 C506 1.388 . S
C509 N508 1.397 . S
C510 H491 0.929 . S
C510 C507 1.404 . S
C510 N508 1.334 . S
C511 H503 0.930 . S
C511 C506 1.418 . S
C511 C507 1.353 . S
C512 H482 0.930 . S
C512 N513 1.330 . S
C512 C514 1.446 . S
N513 Co472 2.151 . S
N513 C512 1.330 . S
N513 C517 1.418 . S
C514 H493 0.929 . S
C514 C512 1.446 . S
C514 C515 1.332 . S
C515 H495 0.931 . S
C515 C514 1.332 . S
C515 C516 1.267 . S
C516 H484 0.929 . S
C516 C515 1.267 . S
C516 C517 1.251 . S
C517 H487 0.929 . S
C517 N513 1.418 . S
C517 C516 1.251 . S
C518 H485 0.930 . S
C518 C520 1.406 . S
C518 C523 1.261 . S
C519 H486 0.930 . S
C519 N521 1.325 . S
C519 C522 1.357 . S
C520 H488 0.928 . S
C520 C518 1.406 . S
C520 N521 1.261 . S
N521 Co472 2.214 . S
N521 C519 1.325 . S
N521 C520 1.261 . S
C522 H492 0.931 . S
C522 C519 1.357 . S
C522 C523 1.312 . S
C523 H494 0.930 . S
C523 C518 1.261 . S
C523 C522 1.312 . S
C524 O496 1.214 . S
C524 O504 1.234 . S
C525 H497 0.929 . S
C525 C528 1.391 . S
C525 C530 1.391 . S
C526 H498 0.929 . S
C526 C527 1.390 . S
C526 N529 1.391 . S
C527 H499 0.930 . S
C527 C526 1.390 . S
C527 C528 1.392 . S
C528 H500 0.929 . S
C528 C525 1.391 . S
C528 C527 1.392 . S
N529 Co473 2.257 . S
N529 C526 1.391 . S
N529 C530 1.388 . S
C530 H501 0.930 . S
C530 C525 1.391 . S
C530 N529 1.388 . S
Co531 O533 2.143 . S
Co531 O539 2.074 . S
Co531 O542 2.093 . S
Co531 O555 2.097 . S
Co531 N572 2.151 . S
Co531 N580 2.214 . S
Co532 O533 2.160 . S
Co532 O538 2.058 . S
Co532 O548 2.057 . S
Co532 O563 2.037 . S
Co532 N567 2.145 . S
Co532 N588 2.257 . S
O533 Co531 2.143 . S
O533 Co532 2.160 . S
C534 O535 1.278 . S
C534 O542 1.224 . S
O535 C534 1.278 . S
C536 O537 1.245 . S
C536 O548 1.232 . S
O537 C536 1.245 . S
O538 Co532 2.058 . S
O538 C564 1.269 . S
O539 Co531 2.074 . S
O539 C564 1.257 . S
H540 C565 0.930 . S
H541 C571 0.930 . S
O542 Co531 2.093 . S
O542 C534 1.224 . S
H543 C575 0.929 . S
H544 C577 0.930 . S
H545 C578 0.930 . S
H546 C576 0.929 . S
H547 C579 0.928 . S
O548 Co532 2.057 . S
O548 C536 1.232 . S
H549 C568 0.929 . S
H550 C569 0.929 . S
H551 C581 0.931 . S
H552 C573 0.929 . S
H553 C582 0.930 . S
H554 C574 0.931 . S
O555 Co531 2.097 . S
O555 C583 1.214 . S
H556 C584 0.929 . S
H557 C585 0.929 . S
H558 C586 0.930 . S
H559 C587 0.929 . S
H560 C589 0.930 . S
H561 C566 0.930 . S
H562 C570 0.930 . S
O563 Co532 2.037 . S
O563 C583 1.234 . S
C564 O538 1.269 . S
C564 O539 1.257 . S
C565 H540 0.930 . S
C565 C568 1.388 . S
C565 C570 1.418 . S
C566 H561 0.930 . S
C566 C569 1.404 . S
C566 C570 1.353 . S
N567 Co532 2.145 . S
N567 C568 1.397 . S
N567 C569 1.334 . S
C568 H549 0.929 . S
C568 C565 1.388 . S
C568 N567 1.397 . S
C569 H550 0.929 . S
C569 C566 1.404 . S
C569 N567 1.334 . S
C570 H562 0.930 . S
C570 C565 1.418 . S
C570 C566 1.353 . S
C571 H541 0.930 . S
C571 N572 1.330 . S
C571 C573 1.446 . S
N572 Co531 2.151 . S
N572 C571 1.330 . S
N572 C576 1.418 . S
C573 H552 0.929 . S
C573 C571 1.446 . S
C573 C574 1.332 . S
C574 H554 0.931 . S
C574 C573 1.332 . S
C574 C575 1.267 . S
C575 H543 0.929 . S
C575 C574 1.267 . S
C575 C576 1.251 . S
C576 H546 0.929 . S
C576 N572 1.418 . S
C576 C575 1.251 . S
C577 H544 0.930 . S
C577 C579 1.406 . S
C577 C582 1.261 . S
C578 H545 0.930 . S
C578 N580 1.325 . S
C578 C581 1.357 . S
C579 H547 0.928 . S
C579 C577 1.406 . S
C579 N580 1.261 . S
N580 Co531 2.214 . S
N580 C578 1.325 . S
N580 C579 1.261 . S
C581 H551 0.931 . S
C581 C578 1.357 . S
C581 C582 1.312 . S
C582 H553 0.930 . S
C582 C577 1.261 . S
C582 C581 1.312 . S
C583 O555 1.214 . S
C583 O563 1.234 . S
C584 H556 0.929 . S
C584 C587 1.391 . S
C584 C589 1.391 . S
C585 H557 0.929 . S
C585 C586 1.390 . S
C585 N588 1.391 . S
C586 H558 0.930 . S
C586 C585 1.390 . S
C586 C587 1.392 . S
C587 H559 0.929 . S
C587 C584 1.391 . S
C587 C586 1.392 . S
N588 Co532 2.257 . S
N588 C585 1.391 . S
N588 C589 1.388 . S
C589 H560 0.930 . S
C589 C584 1.391 . S
C589 N588 1.388 . S
Co590 O592 2.143 . S
Co590 O598 2.074 . S
Co590 O601 2.093 . S
Co590 O614 2.097 . S
Co590 N631 2.151 . S
Co590 N639 2.214 . S
Co591 O592 2.160 . S
Co591 O597 2.058 . S
Co591 O607 2.057 . S
Co591 O622 2.037 . S
Co591 N626 2.145 . S
Co591 N647 2.257 . S
O592 Co590 2.143 . S
O592 Co591 2.160 . S
C593 O594 1.278 . S
C593 O601 1.224 . S
O594 C593 1.278 . S
C595 O596 1.245 . S
C595 O607 1.232 . S
O596 C595 1.245 . S
O597 Co591 2.058 . S
O597 C623 1.269 . S
O598 Co590 2.074 . S
O598 C623 1.257 . S
H599 C624 0.930 . S
H600 C630 0.930 . S
O601 Co590 2.093 . S
O601 C593 1.224 . S
H602 C634 0.929 . S
H603 C636 0.930 . S
H604 C637 0.930 . S
H605 C635 0.929 . S
H606 C638 0.928 . S
O607 Co591 2.057 . S
O607 C595 1.232 . S
H608 C627 0.929 . S
H609 C628 0.929 . S
H610 C640 0.931 . S
H611 C632 0.929 . S
H612 C641 0.930 . S
H613 C633 0.931 . S
O614 Co590 2.097 . S
O614 C642 1.214 . S
H615 C643 0.929 . S
H616 C644 0.929 . S
H617 C645 0.930 . S
H618 C646 0.929 . S
H619 C648 0.930 . S
H620 C625 0.930 . S
H621 C629 0.930 . S
O622 Co591 2.037 . S
O622 C642 1.234 . S
C623 O597 1.269 . S
C623 O598 1.257 . S
C624 H599 0.930 . S
C624 C627 1.388 . S
C624 C629 1.418 . S
C625 H620 0.930 . S
C625 C628 1.404 . S
C625 C629 1.353 . S
N626 Co591 2.145 . S
N626 C627 1.397 . S
N626 C628 1.334 . S
C627 H608 0.929 . S
C627 C624 1.388 . S
C627 N626 1.397 . S
C628 H609 0.929 . S
C628 C625 1.404 . S
C628 N626 1.334 . S
C629 H621 0.930 . S
C629 C624 1.418 . S
C629 C625 1.353 . S
C630 H600 0.930 . S
C630 N631 1.330 . S
C630 C632 1.446 . S
N631 Co590 2.151 . S
N631 C630 1.330 . S
N631 C635 1.418 . S
C632 H611 0.929 . S
C632 C630 1.446 . S
C632 C633 1.332 . S
C633 H613 0.931 . S
C633 C632 1.332 . S
C633 C634 1.267 . S
C634 H602 0.929 . S
C634 C633 1.267 . S
C634 C635 1.251 . S
C635 H605 0.929 . S
C635 N631 1.418 . S
C635 C634 1.251 . S
C636 H603 0.930 . S
C636 C638 1.406 . S
C636 C641 1.261 . S
C637 H604 0.930 . S
C637 N639 1.325 . S
C637 C640 1.357 . S
C638 H606 0.928 . S
C638 C636 1.406 . S
C638 N639 1.261 . S
N639 Co590 2.214 . S
N639 C637 1.325 . S
N639 C638 1.261 . S
C640 H610 0.931 . S
C640 C637 1.357 . S
C640 C641 1.312 . S
C641 H612 0.930 . S
C641 C636 1.261 . S
C641 C640 1.312 . S
C642 O614 1.214 . S
C642 O622 1.234 . S
C643 H615 0.929 . S
C643 C646 1.391 . S
C643 C648 1.391 . S
C644 H616 0.929 . S
C644 C645 1.390 . S
C644 N647 1.391 . S
C645 H617 0.930 . S
C645 C644 1.390 . S
C645 C646 1.392 . S
C646 H618 0.929 . S
C646 C643 1.391 . S
C646 C645 1.392 . S
N647 Co591 2.257 . S
N647 C644 1.391 . S
N647 C648 1.388 . S
C648 H619 0.930 . S
C648 C643 1.391 . S
C648 N647 1.388 . S
Co649 O651 2.143 . S
Co649 O657 2.074 . S
Co649 O660 2.093 . S
Co649 O673 2.097 . S
Co649 N690 2.151 . S
Co649 N698 2.214 . S
Co650 O651 2.160 . S
Co650 O656 2.058 . S
Co650 O666 2.057 . S
Co650 O681 2.037 . S
Co650 N685 2.145 . S
Co650 N706 2.257 . S
O651 Co649 2.143 . S
O651 Co650 2.160 . S
C652 O653 1.278 . S
C652 O660 1.224 . S
O653 C652 1.278 . S
C654 O655 1.245 . S
C654 O666 1.232 . S
O655 C654 1.245 . S
O656 Co650 2.058 . S
O656 C682 1.269 . S
O657 Co649 2.074 . S
O657 C682 1.257 . S
H658 C683 0.930 . S
H659 C689 0.930 . S
O660 Co649 2.093 . S
O660 C652 1.224 . S
H661 C693 0.929 . S
H662 C695 0.930 . S
H663 C696 0.930 . S
H664 C694 0.929 . S
H665 C697 0.928 . S
O666 Co650 2.057 . S
O666 C654 1.232 . S
H667 C686 0.929 . S
H668 C687 0.929 . S
H669 C699 0.931 . S
H670 C691 0.929 . S
H671 C700 0.930 . S
H672 C692 0.931 . S
O673 Co649 2.097 . S
O673 C701 1.214 . S
H674 C702 0.929 . S
H675 C703 0.929 . S
H676 C704 0.930 . S
H677 C705 0.929 . S
H678 C707 0.930 . S
H679 C684 0.930 . S
H680 C688 0.930 . S
O681 Co650 2.037 . S
O681 C701 1.234 . S
C682 O656 1.269 . S
C682 O657 1.257 . S
C683 H658 0.930 . S
C683 C686 1.388 . S
C683 C688 1.418 . S
C684 H679 0.930 . S
C684 C687 1.404 . S
C684 C688 1.353 . S
N685 Co650 2.145 . S
N685 C686 1.397 . S
N685 C687 1.334 . S
C686 H667 0.929 . S
C686 C683 1.388 . S
C686 N685 1.397 . S
C687 H668 0.929 . S
C687 C684 1.404 . S
C687 N685 1.334 . S
C688 H680 0.930 . S
C688 C683 1.418 . S
C688 C684 1.353 . S
C689 H659 0.930 . S
C689 N690 1.330 . S
C689 C691 1.446 . S
N690 Co649 2.151 . S
N690 C689 1.330 . S
N690 C694 1.418 . S
C691 H670 0.929 . S
C691 C689 1.446 . S
C691 C692 1.332 . S
C692 H672 0.931 . S
C692 C691 1.332 . S
C692 C693 1.267 . S
C693 H661 0.929 . S
C693 C692 1.267 . S
C693 C694 1.251 . S
C694 H664 0.929 . S
C694 N690 1.418 . S
C694 C693 1.251 . S
C695 H662 0.930 . S
C695 C697 1.406 . S
C695 C700 1.261 . S
C696 H663 0.930 . S
C696 N698 1.325 . S
C696 C699 1.357 . S
C697 H665 0.928 . S
C697 C695 1.406 . S
C697 N698 1.261 . S
N698 Co649 2.214 . S
N698 C696 1.325 . S
N698 C697 1.261 . S
C699 H669 0.931 . S
C699 C696 1.357 . S
C699 C700 1.312 . S
C700 H671 0.930 . S
C700 C695 1.261 . S
C700 C699 1.312 . S
C701 O673 1.214 . S
C701 O681 1.234 . S
C702 H674 0.929 . S
C702 C705 1.391 . S
C702 C707 1.391 . S
C703 H675 0.929 . S
C703 C704 1.390 . S
C703 N706 1.391 . S
C704 H676 0.930 . S
C704 C703 1.390 . S
C704 C705 1.392 . S
C705 H677 0.929 . S
C705 C702 1.391 . S
C705 C704 1.392 . S
N706 Co650 2.257 . S
N706 C703 1.391 . S
N706 C707 1.388 . S
C707 H678 0.930 . S
C707 C702 1.391 . S
C707 N706 1.388 . S
Co708 O710 2.143 . S
Co708 O716 2.074 . S
Co708 O719 2.093 . S
Co708 O732 2.097 . S
Co708 N749 2.151 . S
Co708 N757 2.214 . S
Co709 O710 2.160 . S
Co709 O715 2.058 . S
Co709 O725 2.057 . S
Co709 O740 2.037 . S
Co709 N744 2.145 . S
Co709 N765 2.257 . S
O710 Co708 2.143 . S
O710 Co709 2.160 . S
C711 O712 1.278 . S
C711 O719 1.224 . S
O712 C711 1.278 . S
C713 O714 1.245 . S
C713 O725 1.232 . S
O714 C713 1.245 . S
O715 Co709 2.058 . S
O715 C741 1.269 . S
O716 Co708 2.074 . S
O716 C741 1.257 . S
H717 C742 0.930 . S
H718 C748 0.930 . S
O719 Co708 2.093 . S
O719 C711 1.224 . S
H720 C752 0.929 . S
H721 C754 0.930 . S
H722 C755 0.930 . S
H723 C753 0.929 . S
H724 C756 0.928 . S
O725 Co709 2.057 . S
O725 C713 1.232 . S
H726 C745 0.929 . S
H727 C746 0.929 . S
H728 C758 0.931 . S
H729 C750 0.929 . S
H730 C759 0.930 . S
H731 C751 0.931 . S
O732 Co708 2.097 . S
O732 C760 1.214 . S
H733 C761 0.929 . S
H734 C762 0.929 . S
H735 C763 0.930 . S
H736 C764 0.929 . S
H737 C766 0.930 . S
H738 C743 0.930 . S
H739 C747 0.930 . S
O740 Co709 2.037 . S
O740 C760 1.234 . S
C741 O715 1.269 . S
C741 O716 1.257 . S
C742 H717 0.930 . S
C742 C745 1.388 . S
C742 C747 1.418 . S
C743 H738 0.930 . S
C743 C746 1.404 . S
C743 C747 1.353 . S
N744 Co709 2.145 . S
N744 C745 1.397 . S
N744 C746 1.334 . S
C745 H726 0.929 . S
C745 C742 1.388 . S
C745 N744 1.397 . S
C746 H727 0.929 . S
C746 C743 1.404 . S
C746 N744 1.334 . S
C747 H739 0.930 . S
C747 C742 1.418 . S
C747 C743 1.353 . S
C748 H718 0.930 . S
C748 N749 1.330 . S
C748 C750 1.446 . S
N749 Co708 2.151 . S
N749 C748 1.330 . S
N749 C753 1.418 . S
C750 H729 0.929 . S
C750 C748 1.446 . S
C750 C751 1.332 . S
C751 H731 0.931 . S
C751 C750 1.332 . S
C751 C752 1.267 . S
C752 H720 0.929 . S
C752 C751 1.267 . S
C752 C753 1.251 . S
C753 H723 0.929 . S
C753 N749 1.418 . S
C753 C752 1.251 . S
C754 H721 0.930 . S
C754 C756 1.406 . S
C754 C759 1.261 . S
C755 H722 0.930 . S
C755 N757 1.325 . S
C755 C758 1.357 . S
C756 H724 0.928 . S
C756 C754 1.406 . S
C756 N757 1.261 . S
N757 Co708 2.214 . S
N757 C755 1.325 . S
N757 C756 1.261 . S
C758 H728 0.931 . S
C758 C755 1.357 . S
C758 C759 1.312 . S
C759 H730 0.930 . S
C759 C754 1.261 . S
C759 C758 1.312 . S
C760 O732 1.214 . S
C760 O740 1.234 . S
C761 H733 0.929 . S
C761 C764 1.391 . S
C761 C766 1.391 . S
C762 H734 0.929 . S
C762 C763 1.390 . S
C762 N765 1.391 . S
C763 H735 0.930 . S
C763 C762 1.390 . S
C763 C764 1.392 . S
C764 H736 0.929 . S
C764 C761 1.391 . S
C764 C763 1.392 . S
N765 Co709 2.257 . S
N765 C762 1.391 . S
N765 C766 1.388 . S
C766 H737 0.930 . S
C766 C761 1.391 . S
C766 N765 1.388 . S
Co767 O769 2.143 . S
Co767 O775 2.074 . S
Co767 O778 2.093 . S
Co767 O791 2.097 . S
Co767 N808 2.151 . S
Co767 N816 2.214 . S
Co768 O769 2.160 . S
Co768 O774 2.058 . S
Co768 O784 2.057 . S
Co768 O799 2.037 . S
Co768 N803 2.145 . S
Co768 N824 2.257 . S
O769 Co767 2.143 . S
O769 Co768 2.160 . S
C770 O771 1.278 . S
C770 O778 1.224 . S
O771 C770 1.278 . S
C772 O773 1.245 . S
C772 O784 1.232 . S
O773 C772 1.245 . S
O774 Co768 2.058 . S
O774 C800 1.269 . S
O775 Co767 2.074 . S
O775 C800 1.257 . S
H776 C801 0.930 . S
H777 C807 0.930 . S
O778 Co767 2.093 . S
O778 C770 1.224 . S
H779 C811 0.929 . S
H780 C813 0.930 . S
H781 C814 0.930 . S
H782 C812 0.929 . S
H783 C815 0.928 . S
O784 Co768 2.057 . S
O784 C772 1.232 . S
H785 C804 0.929 . S
H786 C805 0.929 . S
H787 C817 0.931 . S
H788 C809 0.929 . S
H789 C818 0.930 . S
H790 C810 0.931 . S
O791 Co767 2.097 . S
O791 C819 1.214 . S
H792 C820 0.929 . S
H793 C821 0.929 . S
H794 C822 0.930 . S
H795 C823 0.929 . S
H796 C825 0.930 . S
H797 C802 0.930 . S
H798 C806 0.930 . S
O799 Co768 2.037 . S
O799 C819 1.234 . S
C800 O774 1.269 . S
C800 O775 1.257 . S
C801 H776 0.930 . S
C801 C804 1.388 . S
C801 C806 1.418 . S
C802 H797 0.930 . S
C802 C805 1.404 . S
C802 C806 1.353 . S
N803 Co768 2.145 . S
N803 C804 1.397 . S
N803 C805 1.334 . S
C804 H785 0.929 . S
C804 C801 1.388 . S
C804 N803 1.397 . S
C805 H786 0.929 . S
C805 C802 1.404 . S
C805 N803 1.334 . S
C806 H798 0.930 . S
C806 C801 1.418 . S
C806 C802 1.353 . S
C807 H777 0.930 . S
C807 N808 1.330 . S
C807 C809 1.446 . S
N808 Co767 2.151 . S
N808 C807 1.330 . S
N808 C812 1.418 . S
C809 H788 0.929 . S
C809 C807 1.446 . S
C809 C810 1.332 . S
C810 H790 0.931 . S
C810 C809 1.332 . S
C810 C811 1.267 . S
C811 H779 0.929 . S
C811 C810 1.267 . S
C811 C812 1.251 . S
C812 H782 0.929 . S
C812 N808 1.418 . S
C812 C811 1.251 . S
C813 H780 0.930 . S
C813 C815 1.406 . S
C813 C818 1.261 . S
C814 H781 0.930 . S
C814 N816 1.325 . S
C814 C817 1.357 . S
C815 H783 0.928 . S
C815 C813 1.406 . S
C815 N816 1.261 . S
N816 Co767 2.214 . S
N816 C814 1.325 . S
N816 C815 1.261 . S
C817 H787 0.931 . S
C817 C814 1.357 . S
C817 C818 1.312 . S
C818 H789 0.930 . S
C818 C813 1.261 . S
C818 C817 1.312 . S
C819 O791 1.214 . S
C819 O799 1.234 . S
C820 H792 0.929 . S
C820 C823 1.391 . S
C820 C825 1.391 . S
C821 H793 0.929 . S
C821 C822 1.390 . S
C821 N824 1.391 . S
C822 H794 0.930 . S
C822 C821 1.390 . S
C822 C823 1.392 . S
C823 H795 0.929 . S
C823 C820 1.391 . S
C823 C822 1.392 . S
N824 Co768 2.257 . S
N824 C821 1.391 . S
N824 C825 1.388 . S
C825 H796 0.930 . S
C825 C820 1.391 . S
C825 N824 1.388 . S
Co826 O828 2.143 . S
Co826 O834 2.074 . S
Co826 O837 2.093 . S
Co826 O850 2.097 . S
Co826 N867 2.151 . S
Co826 N875 2.214 . S
Co827 O828 2.160 . S
Co827 O833 2.058 . S
Co827 O843 2.057 . S
Co827 O858 2.037 . S
Co827 N862 2.145 . S
Co827 N883 2.257 . S
O828 Co826 2.143 . S
O828 Co827 2.160 . S
C829 O830 1.278 . S
C829 O837 1.224 . S
O830 C829 1.278 . S
C831 O832 1.245 . S
C831 O843 1.232 . S
O832 C831 1.245 . S
O833 Co827 2.058 . S
O833 C859 1.269 . S
O834 Co826 2.074 . S
O834 C859 1.257 . S
H835 C860 0.930 . S
H836 C866 0.930 . S
O837 Co826 2.093 . S
O837 C829 1.224 . S
H838 C870 0.929 . S
H839 C872 0.930 . S
H840 C873 0.930 . S
H841 C871 0.929 . S
H842 C874 0.928 . S
O843 Co827 2.057 . S
O843 C831 1.232 . S
H844 C863 0.929 . S
H845 C864 0.929 . S
H846 C876 0.931 . S
H847 C868 0.929 . S
H848 C877 0.930 . S
H849 C869 0.931 . S
O850 Co826 2.097 . S
O850 C878 1.214 . S
H851 C879 0.929 . S
H852 C880 0.929 . S
H853 C881 0.930 . S
H854 C882 0.929 . S
H855 C884 0.930 . S
H856 C861 0.930 . S
H857 C865 0.930 . S
O858 Co827 2.037 . S
O858 C878 1.234 . S
C859 O833 1.269 . S
C859 O834 1.257 . S
C860 H835 0.930 . S
C860 C863 1.388 . S
C860 C865 1.418 . S
C861 H856 0.930 . S
C861 C864 1.404 . S
C861 C865 1.353 . S
N862 Co827 2.145 . S
N862 C863 1.397 . S
N862 C864 1.334 . S
C863 H844 0.929 . S
C863 C860 1.388 . S
C863 N862 1.397 . S
C864 H845 0.929 . S
C864 C861 1.404 . S
C864 N862 1.334 . S
C865 H857 0.930 . S
C865 C860 1.418 . S
C865 C861 1.353 . S
C866 H836 0.930 . S
C866 N867 1.330 . S
C866 C868 1.446 . S
N867 Co826 2.151 . S
N867 C866 1.330 . S
N867 C871 1.418 . S
C868 H847 0.929 . S
C868 C866 1.446 . S
C868 C869 1.332 . S
C869 H849 0.931 . S
C869 C868 1.332 . S
C869 C870 1.267 . S
C870 H838 0.929 . S
C870 C869 1.267 . S
C870 C871 1.251 . S
C871 H841 0.929 . S
C871 N867 1.418 . S
C871 C870 1.251 . S
C872 H839 0.930 . S
C872 C874 1.406 . S
C872 C877 1.261 . S
C873 H840 0.930 . S
C873 N875 1.325 . S
C873 C876 1.357 . S
C874 H842 0.928 . S
C874 C872 1.406 . S
C874 N875 1.261 . S
N875 Co826 2.214 . S
N875 C873 1.325 . S
N875 C874 1.261 . S
C876 H846 0.931 . S
C876 C873 1.357 . S
C876 C877 1.312 . S
C877 H848 0.930 . S
C877 C872 1.261 . S
C877 C876 1.312 . S
C878 O850 1.214 . S
C878 O858 1.234 . S
C879 H851 0.929 . S
C879 C882 1.391 . S
C879 C884 1.391 . S
C880 H852 0.929 . S
C880 C881 1.390 . S
C880 N883 1.391 . S
C881 H853 0.930 . S
C881 C880 1.390 . S
C881 C882 1.392 . S
C882 H854 0.929 . S
C882 C879 1.391 . S
C882 C881 1.392 . S
N883 Co827 2.257 . S
N883 C880 1.391 . S
N883 C884 1.388 . S
C884 H855 0.930 . S
C884 C879 1.391 . S
C884 N883 1.388 . S
Co885 O887 2.143 . S
Co885 O893 2.074 . S
Co885 O896 2.093 . S
Co885 O909 2.097 . S
Co885 N926 2.151 . S
Co885 N934 2.214 . S
Co886 O887 2.160 . S
Co886 O892 2.058 . S
Co886 O902 2.057 . S
Co886 O917 2.037 . S
Co886 N921 2.145 . S
Co886 N942 2.257 . S
O887 Co885 2.143 . S
O887 Co886 2.160 . S
C888 O889 1.278 . S
C888 O896 1.224 . S
O889 C888 1.278 . S
C890 O891 1.245 . S
C890 O902 1.232 . S
O891 C890 1.245 . S
O892 Co886 2.058 . S
O892 C918 1.269 . S
O893 Co885 2.074 . S
O893 C918 1.257 . S
H894 C919 0.930 . S
H895 C925 0.930 . S
O896 Co885 2.093 . S
O896 C888 1.224 . S
H897 C929 0.929 . S
H898 C931 0.930 . S
H899 C932 0.930 . S
H900 C930 0.929 . S
H901 C933 0.928 . S
O902 Co886 2.057 . S
O902 C890 1.232 . S
H903 C922 0.929 . S
H904 C923 0.929 . S
H905 C935 0.931 . S
H906 C927 0.929 . S
H907 C936 0.930 . S
H908 C928 0.931 . S
O909 Co885 2.097 . S
O909 C937 1.214 . S
H910 C938 0.929 . S
H911 C939 0.929 . S
H912 C940 0.930 . S
H913 C941 0.929 . S
H914 C943 0.930 . S
H915 C920 0.930 . S
H916 C924 0.930 . S
O917 Co886 2.037 . S
O917 C937 1.234 . S
C918 O892 1.269 . S
C918 O893 1.257 . S
C919 H894 0.930 . S
C919 C922 1.388 . S
C919 C924 1.418 . S
C920 H915 0.930 . S
C920 C923 1.404 . S
C920 C924 1.353 . S
N921 Co886 2.145 . S
N921 C922 1.397 . S
N921 C923 1.334 . S
C922 H903 0.929 . S
C922 C919 1.388 . S
C922 N921 1.397 . S
C923 H904 0.929 . S
C923 C920 1.404 . S
C923 N921 1.334 . S
C924 H916 0.930 . S
C924 C919 1.418 . S
C924 C920 1.353 . S
C925 H895 0.930 . S
C925 N926 1.330 . S
C925 C927 1.446 . S
N926 Co885 2.151 . S
N926 C925 1.330 . S
N926 C930 1.418 . S
C927 H906 0.929 . S
C927 C925 1.446 . S
C927 C928 1.332 . S
C928 H908 0.931 . S
C928 C927 1.332 . S
C928 C929 1.267 . S
C929 H897 0.929 . S
C929 C928 1.267 . S
C929 C930 1.251 . S
C930 H900 0.929 . S
C930 N926 1.418 . S
C930 C929 1.251 . S
C931 H898 0.930 . S
C931 C933 1.406 . S
C931 C936 1.261 . S
C932 H899 0.930 . S
C932 N934 1.325 . S
C932 C935 1.357 . S
C933 H901 0.928 . S
C933 C931 1.406 . S
C933 N934 1.261 . S
N934 Co885 2.214 . S
N934 C932 1.325 . S
N934 C933 1.261 . S
C935 H905 0.931 . S
C935 C932 1.357 . S
C935 C936 1.312 . S
C936 H907 0.930 . S
C936 C931 1.261 . S
C936 C935 1.312 . S
C937 O909 1.214 . S
C937 O917 1.234 . S
C938 H910 0.929 . S
C938 C941 1.391 . S
C938 C943 1.391 . S
C939 H911 0.929 . S
C939 C940 1.390 . S
C939 N942 1.391 . S
C940 H912 0.930 . S
C940 C939 1.390 . S
C940 C941 1.392 . S
C941 H913 0.929 . S
C941 C938 1.391 . S
C941 C940 1.392 . S
N942 Co886 2.257 . S
N942 C939 1.391 . S
N942 C943 1.388 . S
C943 H914 0.930 . S
C943 C938 1.391 . S
C943 N942 1.388 . S
H944 C952 0.929 . S
H945 C954 0.930 . S
H946 C956 0.930 . S
H947 C959 0.929 . S
H948 C962 0.930 . S
H949 C964 0.960 1_655 S
H950 C964 0.960 . S
H951 C964 0.960 . S
C952 H944 0.929 . S
C952 C953 1.377 . S
C952 C954 1.384 . S
C953 C952 1.377 . S
C953 C959 1.390 . S
C954 H945 0.930 . S
C954 C952 1.384 . S
C954 C955 1.372 . S
C955 C954 1.372 . S
C955 C956 1.400 . S
C955 C960 1.490 . S
C956 H946 0.930 . S
C956 C955 1.400 . S
C956 C959 1.386 . S
H957 C973 0.930 . S
H958 C974 0.931 . S
C959 H947 0.929 . S
C959 C953 1.390 . S
C959 C956 1.386 . S
C960 C955 1.490 . S
C960 C962 1.395 . S
C960 C963 1.403 . S
H961 C967 0.930 . S
C962 H948 0.930 . S
C962 C960 1.395 . S
C962 C965 1.403 1_455 S
C963 C960 1.403 . S
C963 C964 1.524 . S
C963 C967 1.400 1_455 S
C964 H949 0.960 1_455 S
C964 H950 0.960 . S
C964 H951 0.960 . S
C964 C963 1.524 . S
C965 C962 1.403 1_655 S
C965 C966 1.392 . S
C965 C969 1.495 . S
C966 C965 1.392 . S
C966 C967 1.385 . S
C966 C968 1.478 . S
C967 H961 0.930 . S
C967 C963 1.400 1_655 S
C967 C966 1.385 . S
C968 C966 1.478 . S
C968 C970 1.381 . S
C968 C974 1.383 . S
C969 C965 1.495 . S
C969 H975 0.959 1_655 S
C969 H976 0.961 . S
C969 H977 0.960 . S
C970 C968 1.381 . S
C970 C971 1.394 . S
C970 H978 0.930 . S
C971 C970 1.394 . S
C971 C972 1.383 . S
C971 H979 0.929 . S
C972 C971 1.383 . S
C972 C973 1.377 . S
C973 H957 0.930 . S
C973 C972 1.377 . S
C973 C974 1.379 . S
C974 H958 0.931 . S
C974 C968 1.383 . S
C974 C973 1.379 . S
H975 C969 0.959 1_455 S
H976 C969 0.961 . S
H977 C969 0.960 . S
H978 C970 0.930 . S
H979 C971 0.929 . S
H980 C988 0.929 . S
H981 C990 0.930 . S
H982 C992 0.930 . S
H983 C995 0.929 . S
H984 C998 0.930 . S
H985 C1000 0.960 . S
H986 C1000 0.960 . S
H987 C1000 0.960 . S
C988 H980 0.929 . S
C988 C989 1.377 . S
C988 C990 1.384 . S
C989 C988 1.377 . S
C989 C995 1.390 . S
C990 H981 0.930 . S
C990 C988 1.384 . S
C990 C991 1.372 . S
C991 C990 1.372 . S
C991 C992 1.400 . S
C991 C996 1.490 . S
C992 H982 0.930 . S
C992 C991 1.400 . S
C992 C995 1.386 . S
H993 C1009 0.930 . S
H994 C1010 0.931 . S
C995 H983 0.929 . S
C995 C989 1.390 . S
C995 C992 1.386 . S
C996 C991 1.490 . S
C996 C998 1.395 . S
C996 C999 1.403 . S
H997 C1003 0.930 . S
C998 H984 0.930 . S
C998 C996 1.395 . S
C998 C1001 1.403 1_565 S
C999 C996 1.403 . S
C999 C1000 1.524 . S
C999 C1003 1.400 1_565 S
C1000 H985 0.960 . S
C1000 H986 0.960 . S
C1000 H987 0.960 . S
C1000 C999 1.524 . S
C1001 C998 1.403 1_545 S
C1001 C1002 1.392 . S
C1001 C1005 1.495 . S
C1002 C1001 1.392 . S
C1002 C1003 1.385 . S
C1002 C1004 1.478 . S
C1003 H997 0.930 . S
C1003 C999 1.400 1_545 S
C1003 C1002 1.385 . S
C1004 C1002 1.478 . S
C1004 C1006 1.381 . S
C1004 C1010 1.383 . S
C1005 C1001 1.495 . S
C1005 H1011 0.959 . S
C1005 H1012 0.961 . S
C1005 H1013 0.960 . S
C1006 C1004 1.381 . S
C1006 C1007 1.394 . S
C1006 H1014 0.930 . S
C1007 C1006 1.394 . S
C1007 C1008 1.383 . S
C1007 H1015 0.929 . S
C1008 C1007 1.383 . S
C1008 C1009 1.377 . S
C1009 H993 0.930 . S
C1009 C1008 1.377 . S
C1009 C1010 1.379 . S
C1010 H994 0.931 . S
C1010 C1004 1.383 . S
C1010 C1009 1.379 . S
H1011 C1005 0.959 . S
H1012 C1005 0.961 . S
H1013 C1005 0.960 . S
H1014 C1006 0.930 . S
H1015 C1007 0.929 . S
H1016 C1024 0.929 . S
H1017 C1026 0.930 . S
H1018 C1028 0.930 . S
H1019 C1031 0.929 . S
H1020 C1034 0.930 . S
H1021 C1036 0.960 . S
H1022 C1036 0.960 . S
H1023 C1036 0.960 . S
C1024 H1016 0.929 . S
C1024 C1025 1.377 . S
C1024 C1026 1.384 . S
C1025 C1024 1.377 . S
C1025 C1031 1.390 . S
C1026 H1017 0.930 . S
C1026 C1024 1.384 . S
C1026 C1027 1.372 . S
C1027 C1026 1.372 . S
C1027 C1028 1.400 . S
C1027 C1032 1.490 . S
C1028 H1018 0.930 . S
C1028 C1027 1.400 . S
C1028 C1031 1.386 . S
H1029 C1045 0.930 . S
H1030 C1046 0.931 . S
C1031 H1019 0.929 . S
C1031 C1025 1.390 . S
C1031 C1028 1.386 . S
C1032 C1027 1.490 . S
C1032 C1034 1.395 . S
C1032 C1035 1.403 . S
H1033 C1039 0.930 . S
C1034 H1020 0.930 . S
C1034 C1032 1.395 . S
C1034 C1037 1.403 1_455 S
C1035 C1032 1.403 . S
C1035 C1036 1.524 . S
C1035 C1039 1.400 1_455 S
C1036 H1021 0.960 . S
C1036 H1022 0.960 . S
C1036 H1023 0.960 . S
C1036 C1035 1.524 . S
C1037 C1034 1.403 1_655 S
C1037 C1038 1.392 . S
C1037 C1041 1.495 . S
C1038 C1037 1.392 . S
C1038 C1039 1.385 . S
C1038 C1040 1.478 . S
C1039 H1033 0.930 . S
C1039 C1035 1.400 1_655 S
C1039 C1038 1.385 . S
C1040 C1038 1.478 . S
C1040 C1042 1.381 . S
C1040 C1046 1.383 . S
C1041 C1037 1.495 . S
C1041 H1047 0.959 . S
C1041 H1048 0.961 . S
C1041 H1049 0.960 . S
C1042 C1040 1.381 . S
C1042 C1043 1.394 . S
C1042 H1050 0.930 . S
C1043 C1042 1.394 . S
C1043 C1044 1.383 . S
C1043 H1051 0.929 . S
C1044 C1043 1.383 . S
C1044 C1045 1.377 . S
C1045 H1029 0.930 . S
C1045 C1044 1.377 . S
C1045 C1046 1.379 . S
C1046 H1030 0.931 . S
C1046 C1040 1.383 . S
C1046 C1045 1.379 . S
H1047 C1041 0.959 . S
H1048 C1041 0.961 . S
H1049 C1041 0.960 . S
H1050 C1042 0.930 . S
H1051 C1043 0.929 . S
H1052 C1060 0.929 . S
H1053 C1062 0.930 . S
H1054 C1064 0.930 . S
H1055 C1067 0.929 . S
H1056 C1070 0.930 . S
H1057 C1072 0.960 . S
H1058 C1072 0.960 . S
H1059 C1072 0.960 . S
C1060 H1052 0.929 . S
C1060 C1061 1.377 . S
C1060 C1062 1.384 . S
C1061 C1060 1.377 . S
C1061 C1067 1.390 . S
C1062 H1053 0.930 . S
C1062 C1060 1.384 . S
C1062 C1063 1.372 . S
C1063 C1062 1.372 . S
C1063 C1064 1.400 . S
C1063 C1068 1.490 . S
C1064 H1054 0.930 . S
C1064 C1063 1.400 . S
C1064 C1067 1.386 . S
H1065 C1081 0.930 . S
H1066 C1082 0.931 . S
C1067 H1055 0.929 . S
C1067 C1061 1.390 . S
C1067 C1064 1.386 . S
C1068 C1063 1.490 . S
C1068 C1070 1.395 . S
C1068 C1071 1.403 . S
H1069 C1075 0.930 . S
C1070 H1056 0.930 . S
C1070 C1068 1.395 . S
C1070 C1073 1.403 1_565 S
C1071 C1068 1.403 . S
C1071 C1072 1.524 . S
C1071 C1075 1.400 1_565 S
C1072 H1057 0.960 . S
C1072 H1058 0.960 . S
C1072 H1059 0.960 . S
C1072 C1071 1.524 . S
C1073 C1070 1.403 1_545 S
C1073 C1074 1.392 . S
C1073 C1077 1.495 . S
C1074 C1073 1.392 . S
C1074 C1075 1.385 . S
C1074 C1076 1.478 . S
C1075 H1069 0.930 . S
C1075 C1071 1.400 1_545 S
C1075 C1074 1.385 . S
C1076 C1074 1.478 . S
C1076 C1078 1.381 . S
C1076 C1082 1.383 . S
C1077 C1073 1.495 . S
C1077 H1083 0.959 . S
C1077 H1084 0.961 . S
C1077 H1085 0.960 . S
C1078 C1076 1.381 . S
C1078 C1079 1.394 . S
C1078 H1086 0.930 . S
C1079 C1078 1.394 . S
C1079 C1080 1.383 . S
C1079 H1087 0.929 . S
C1080 C1079 1.383 . S
C1080 C1081 1.377 . S
C1081 H1065 0.930 . S
C1081 C1080 1.377 . S
C1081 C1082 1.379 . S
C1082 H1066 0.931 . S
C1082 C1076 1.383 . S
C1082 C1081 1.379 . S
H1083 C1077 0.959 . S
H1084 C1077 0.961 . S
H1085 C1077 0.960 . S
H1086 C1078 0.930 . S
H1087 C1079 0.929 . S
H1088 C1096 0.929 . S
H1089 C1098 0.930 . S
H1090 C1100 0.930 . S
H1091 C1103 0.929 . S
H1092 C1106 0.930 . S
H1093 C1108 0.960 . S
H1094 C1108 0.960 . S
H1095 C1108 0.960 . S
C1096 H1088 0.929 . S
C1096 C1097 1.377 . S
C1096 C1098 1.384 . S
C1097 C1096 1.377 . S
C1097 C1103 1.390 . S
C1098 H1089 0.930 . S
C1098 C1096 1.384 . S
C1098 C1099 1.372 . S
C1099 C1098 1.372 . S
C1099 C1100 1.400 . S
C1099 C1104 1.490 . S
C1100 H1090 0.930 . S
C1100 C1099 1.400 . S
C1100 C1103 1.386 . S
H1101 C1117 0.930 . S
H1102 C1118 0.931 . S
C1103 H1091 0.929 . S
C1103 C1097 1.390 . S
C1103 C1100 1.386 . S
C1104 C1099 1.490 . S
C1104 C1106 1.395 . S
C1104 C1107 1.403 . S
H1105 C1111 0.930 . S
C1106 H1092 0.930 . S
C1106 C1104 1.395 . S
C1106 C1109 1.403 1_655 S
C1107 C1104 1.403 . S
C1107 C1108 1.524 . S
C1107 C1111 1.400 1_655 S
C1108 H1093 0.960 . S
C1108 H1094 0.960 . S
C1108 H1095 0.960 . S
C1108 C1107 1.524 . S
C1109 C1106 1.403 1_455 S
C1109 C1110 1.392 . S
C1109 C1113 1.495 . S
C1110 C1109 1.392 . S
C1110 C1111 1.385 . S
C1110 C1112 1.478 . S
C1111 H1105 0.930 . S
C1111 C1107 1.400 1_455 S
C1111 C1110 1.385 . S
C1112 C1110 1.478 . S
C1112 C1114 1.381 . S
C1112 C1118 1.383 . S
C1113 C1109 1.495 . S
C1113 H1119 0.959 . S
C1113 H1120 0.961 . S
C1113 H1121 0.960 . S
C1114 C1112 1.381 . S
C1114 C1115 1.394 . S
C1114 H1122 0.930 . S
C1115 C1114 1.394 . S
C1115 C1116 1.383 . S
C1115 H1123 0.929 . S
C1116 C1115 1.383 . S
C1116 C1117 1.377 . S
C1117 H1101 0.930 . S
C1117 C1116 1.377 . S
C1117 C1118 1.379 . S
C1118 H1102 0.931 . S
C1118 C1112 1.383 . S
C1118 C1117 1.379 . S
H1119 C1113 0.959 . S
H1120 C1113 0.961 . S
H1121 C1113 0.960 . S
H1122 C1114 0.930 . S
H1123 C1115 0.929 . S
H1124 C1132 0.929 . S
H1125 C1134 0.930 . S
H1126 C1136 0.930 . S
H1127 C1139 0.929 . S
H1128 C1142 0.930 . S
H1129 C1144 0.960 . S
H1130 C1144 0.960 . S
H1131 C1144 0.960 . S
C1132 H1124 0.929 . S
C1132 C1133 1.377 . S
C1132 C1134 1.384 . S
C1133 C1132 1.377 . S
C1133 C1139 1.390 . S
C1134 H1125 0.930 . S
C1134 C1132 1.384 . S
C1134 C1135 1.372 . S
C1135 C1134 1.372 . S
C1135 C1136 1.400 . S
C1135 C1140 1.490 . S
C1136 H1126 0.930 . S
C1136 C1135 1.400 . S
C1136 C1139 1.386 . S
H1137 C1153 0.930 . S
H1138 C1154 0.931 . S
C1139 H1127 0.929 . S
C1139 C1133 1.390 . S
C1139 C1136 1.386 . S
C1140 C1135 1.490 . S
C1140 C1142 1.395 . S
C1140 C1143 1.403 . S
H1141 C1147 0.930 . S
C1142 H1128 0.930 . S
C1142 C1140 1.395 . S
C1142 C1145 1.403 1_545 S
C1143 C1140 1.403 . S
C1143 C1144 1.524 . S
C1143 C1147 1.400 1_545 S
C1144 H1129 0.960 . S
C1144 H1130 0.960 . S
C1144 H1131 0.960 . S
C1144 C1143 1.524 . S
C1145 C1142 1.403 1_565 S
C1145 C1146 1.392 . S
C1145 C1149 1.495 . S
C1146 C1145 1.392 . S
C1146 C1147 1.385 . S
C1146 C1148 1.478 . S
C1147 H1141 0.930 . S
C1147 C1143 1.400 1_565 S
C1147 C1146 1.385 . S
C1148 C1146 1.478 . S
C1148 C1150 1.381 . S
C1148 C1154 1.383 . S
C1149 C1145 1.495 . S
C1149 H1155 0.959 . S
C1149 H1156 0.961 . S
C1149 H1157 0.960 . S
C1150 C1148 1.381 . S
C1150 C1151 1.394 . S
C1150 H1158 0.930 . S
C1151 C1150 1.394 . S
C1151 C1152 1.383 . S
C1151 H1159 0.929 . S
C1152 C1151 1.383 . S
C1152 C1153 1.377 . S
C1153 H1137 0.930 . S
C1153 C1152 1.377 . S
C1153 C1154 1.379 . S
C1154 H1138 0.931 . S
C1154 C1148 1.383 . S
C1154 C1153 1.379 . S
H1155 C1149 0.959 . S
H1156 C1149 0.961 . S
H1157 C1149 0.960 . S
H1158 C1150 0.930 . S
H1159 C1151 0.929 . S
H1160 C1168 0.929 . S
H1161 C1170 0.930 . S
H1162 C1172 0.930 . S
H1163 C1175 0.929 . S
H1164 C1178 0.930 . S
H1165 C1180 0.960 . S
H1166 C1180 0.960 . S
H1167 C1180 0.960 . S
C1168 H1160 0.929 . S
C1168 C1169 1.377 . S
C1168 C1170 1.384 . S
C1169 C1168 1.377 . S
C1169 C1175 1.390 . S
C1170 H1161 0.930 . S
C1170 C1168 1.384 . S
C1170 C1171 1.372 . S
C1171 C1170 1.372 . S
C1171 C1172 1.400 . S
C1171 C1176 1.490 . S
C1172 H1162 0.930 . S
C1172 C1171 1.400 . S
C1172 C1175 1.386 . S
H1173 C1189 0.930 . S
H1174 C1190 0.931 . S
C1175 H1163 0.929 . S
C1175 C1169 1.390 . S
C1175 C1172 1.386 . S
C1176 C1171 1.490 . S
C1176 C1178 1.395 . S
C1176 C1179 1.403 . S
H1177 C1183 0.930 . S
C1178 H1164 0.930 . S
C1178 C1176 1.395 . S
C1178 C1181 1.403 1_655 S
C1179 C1176 1.403 . S
C1179 C1180 1.524 . S
C1179 C1183 1.400 1_655 S
C1180 H1165 0.960 . S
C1180 H1166 0.960 . S
C1180 H1167 0.960 . S
C1180 C1179 1.524 . S
C1181 C1178 1.403 1_455 S
C1181 C1182 1.392 . S
C1181 C1185 1.495 . S
C1182 C1181 1.392 . S
C1182 C1183 1.385 . S
C1182 C1184 1.478 . S
C1183 H1177 0.930 . S
C1183 C1179 1.400 1_455 S
C1183 C1182 1.385 . S
C1184 C1182 1.478 . S
C1184 C1186 1.381 . S
C1184 C1190 1.383 . S
C1185 C1181 1.495 . S
C1185 H1191 0.959 . S
C1185 H1192 0.961 . S
C1185 H1193 0.960 . S
C1186 C1184 1.381 . S
C1186 C1187 1.394 . S
C1186 H1194 0.930 . S
C1187 C1186 1.394 . S
C1187 C1188 1.383 . S
C1187 H1195 0.929 . S
C1188 C1187 1.383 . S
C1188 C1189 1.377 . S
C1189 H1173 0.930 . S
C1189 C1188 1.377 . S
C1189 C1190 1.379 . S
C1190 H1174 0.931 . S
C1190 C1184 1.383 . S
C1190 C1189 1.379 . S
H1191 C1185 0.959 . S
H1192 C1185 0.961 . S
H1193 C1185 0.960 . S
H1194 C1186 0.930 . S
H1195 C1187 0.929 . S
H1196 C1204 0.929 . S
H1197 C1206 0.930 . S
H1198 C1208 0.930 . S
H1199 C1211 0.929 . S
H1200 C1214 0.930 . S
H1201 C1216 0.960 . S
H1202 C1216 0.960 . S
H1203 C1216 0.960 . S
C1204 H1196 0.929 . S
C1204 C1205 1.377 . S
C1204 C1206 1.384 . S
C1205 C1204 1.377 . S
C1205 C1211 1.390 . S
C1206 H1197 0.930 . S
C1206 C1204 1.384 . S
C1206 C1207 1.372 . S
C1207 C1206 1.372 . S
C1207 C1208 1.400 . S
C1207 C1212 1.490 . S
C1208 H1198 0.930 . S
C1208 C1207 1.400 . S
C1208 C1211 1.386 . S
H1209 C1225 0.930 . S
H1210 C1226 0.931 . S
C1211 H1199 0.929 . S
C1211 C1205 1.390 . S
C1211 C1208 1.386 . S
C1212 C1207 1.490 . S
C1212 C1214 1.395 . S
C1212 C1215 1.403 . S
H1213 C1219 0.930 . S
C1214 H1200 0.930 . S
C1214 C1212 1.395 . S
C1214 C1217 1.403 1_545 S
C1215 C1212 1.403 . S
C1215 C1216 1.524 . S
C1215 C1219 1.400 1_545 S
C1216 H1201 0.960 . S
C1216 H1202 0.960 . S
C1216 H1203 0.960 . S
C1216 C1215 1.524 . S
C1217 C1214 1.403 1_565 S
C1217 C1218 1.392 . S
C1217 C1221 1.495 . S
C1218 C1217 1.392 . S
C1218 C1219 1.385 . S
C1218 C1220 1.478 . S
C1219 H1213 0.930 . S
C1219 C1215 1.400 1_565 S
C1219 C1218 1.385 . S
C1220 C1218 1.478 . S
C1220 C1222 1.381 . S
C1220 C1226 1.383 . S
C1221 C1217 1.495 . S
C1221 H1227 0.959 . S
C1221 H1228 0.961 . S
C1221 H1229 0.960 . S
C1222 C1220 1.381 . S
C1222 C1223 1.394 . S
C1222 H1230 0.930 . S
C1223 C1222 1.394 . S
C1223 C1224 1.383 . S
C1223 H1231 0.929 . S
C1224 C1223 1.383 . S
C1224 C1225 1.377 . S
C1225 H1209 0.930 . S
C1225 C1224 1.377 . S
C1225 C1226 1.379 . S
C1226 H1210 0.931 . S
C1226 C1220 1.383 . S
C1226 C1225 1.379 . S
H1227 C1221 0.959 . S
H1228 C1221 0.961 . S
H1229 C1221 0.960 . S
H1230 C1222 0.930 . S
H1231 C1223 0.929 . S
H1232 C1240 0.929 . S
H1233 C1242 0.930 . S
H1234 C1244 0.930 . S
H1235 C1247 0.929 . S
H1236 C1250 0.930 . S
H1237 C1252 0.960 . S
H1238 C1252 0.960 . S
H1239 C1252 0.960 . S
C1240 H1232 0.929 . S
C1240 C1241 1.377 . S
C1240 C1242 1.384 . S
C1241 C1240 1.377 . S
C1241 C1247 1.390 . S
C1242 H1233 0.930 . S
C1242 C1240 1.384 . S
C1242 C1243 1.372 . S
C1243 C1242 1.372 . S
C1243 C1244 1.400 . S
C1243 C1248 1.490 . S
C1244 H1234 0.930 . S
C1244 C1243 1.400 . S
C1244 C1247 1.386 . S
H1245 C1261 0.930 . S
H1246 C1262 0.931 . S
C1247 H1235 0.929 . S
C1247 C1241 1.390 . S
C1247 C1244 1.386 . S
C1248 C1243 1.490 . S
C1248 C1250 1.395 . S
C1248 C1251 1.403 . S
H1249 C1255 0.930 . S
C1250 H1236 0.930 . S
C1250 C1248 1.395 . S
C1250 C1253 1.403 . S
C1251 C1248 1.403 . S
C1251 C1252 1.524 . S
C1251 C1255 1.400 . S
C1252 H1237 0.960 . S
C1252 H1238 0.960 . S
C1252 H1239 0.960 . S
C1252 C1251 1.524 . S
C1253 C1250 1.403 . S
C1253 C1254 1.392 . S
C1253 C1257 1.495 . S
C1254 C1253 1.392 . S
C1254 C1255 1.385 . S
C1254 C1256 1.478 . S
C1255 H1249 0.930 . S
C1255 C1251 1.400 . S
C1255 C1254 1.385 . S
C1256 C1254 1.478 . S
C1256 C1258 1.381 . S
C1256 C1262 1.383 . S
C1257 C1253 1.495 . S
C1257 H1263 0.959 . S
C1257 H1264 0.961 . S
C1257 H1265 0.960 . S
C1258 C1256 1.381 . S
C1258 C1259 1.394 . S
C1258 H1266 0.930 . S
C1259 C1258 1.394 . S
C1259 C1260 1.383 . S
C1259 H1267 0.929 . S
C1260 C1259 1.383 . S
C1260 C1261 1.377 . S
C1261 H1245 0.930 . S
C1261 C1260 1.377 . S
C1261 C1262 1.379 . S
C1262 H1246 0.931 . S
C1262 C1256 1.383 . S
C1262 C1261 1.379 . S
H1263 C1257 0.959 . S
H1264 C1257 0.961 . S
H1265 C1257 0.960 . S
H1266 C1258 0.930 . S
H1267 C1259 0.929 . S
H1268 C1276 0.929 . S
H1269 C1278 0.930 . S
H1270 C1280 0.930 . S
H1271 C1283 0.929 . S
H1272 C1286 0.930 . S
H1273 C1288 0.960 . S
H1274 C1288 0.960 . S
H1275 C1288 0.960 . S
C1276 H1268 0.929 . S
C1276 C1277 1.377 . S
C1276 C1278 1.384 . S
C1277 C1276 1.377 . S
C1277 C1283 1.390 . S
C1278 H1269 0.930 . S
C1278 C1276 1.384 . S
C1278 C1279 1.372 . S
C1279 C1278 1.372 . S
C1279 C1280 1.400 . S
C1279 C1284 1.490 . S
C1280 H1270 0.930 . S
C1280 C1279 1.400 . S
C1280 C1283 1.386 . S
H1281 C1297 0.930 . S
H1282 C1298 0.931 . S
C1283 H1271 0.929 . S
C1283 C1277 1.390 . S
C1283 C1280 1.386 . S
C1284 C1279 1.490 . S
C1284 C1286 1.395 . S
C1284 C1287 1.403 . S
H1285 C1291 0.930 . S
C1286 H1272 0.930 . S
C1286 C1284 1.395 . S
C1286 C1289 1.403 . S
C1287 C1284 1.403 . S
C1287 C1288 1.524 . S
C1287 C1291 1.400 . S
C1288 H1273 0.960 . S
C1288 H1274 0.960 . S
C1288 H1275 0.960 . S
C1288 C1287 1.524 . S
C1289 C1286 1.403 . S
C1289 C1290 1.392 . S
C1289 C1293 1.495 . S
C1290 C1289 1.392 . S
C1290 C1291 1.385 . S
C1290 C1292 1.478 . S
C1291 H1285 0.930 . S
C1291 C1287 1.400 . S
C1291 C1290 1.385 . S
C1292 C1290 1.478 . S
C1292 C1294 1.381 . S
C1292 C1298 1.383 . S
C1293 C1289 1.495 . S
C1293 H1299 0.959 . S
C1293 H1300 0.961 . S
C1293 H1301 0.960 . S
C1294 C1292 1.381 . S
C1294 C1295 1.394 . S
C1294 H1302 0.930 . S
C1295 C1294 1.394 . S
C1295 C1296 1.383 . S
C1295 H1303 0.929 . S
C1296 C1295 1.383 . S
C1296 C1297 1.377 . S
C1297 H1281 0.930 . S
C1297 C1296 1.377 . S
C1297 C1298 1.379 . S
C1298 H1282 0.931 . S
C1298 C1292 1.383 . S
C1298 C1297 1.379 . S
H1299 C1293 0.959 . S
H1300 C1293 0.961 . S
H1301 C1293 0.960 . S
H1302 C1294 0.930 . S
H1303 C1295 0.929 . S
H1304 C1312 0.929 . S
H1305 C1314 0.930 . S
H1306 C1316 0.930 . S
H1307 C1319 0.929 . S
H1308 C1322 0.930 . S
H1309 C1324 0.960 . S
H1310 C1324 0.960 . S
H1311 C1324 0.960 . S
C1312 H1304 0.929 . S
C1312 C1313 1.377 . S
C1312 C1314 1.384 . S
C1313 C1312 1.377 . S
C1313 C1319 1.390 . S
C1314 H1305 0.930 . S
C1314 C1312 1.384 . S
C1314 C1315 1.372 . S
C1315 C1314 1.372 . S
C1315 C1316 1.400 . S
C1315 C1320 1.490 . S
C1316 H1306 0.930 . S
C1316 C1315 1.400 . S
C1316 C1319 1.386 . S
H1317 C1333 0.930 . S
H1318 C1334 0.931 . S
C1319 H1307 0.929 . S
C1319 C1313 1.390 . S
C1319 C1316 1.386 . S
C1320 C1315 1.490 . S
C1320 C1322 1.395 . S
C1320 C1323 1.403 . S
H1321 C1327 0.930 . S
C1322 H1308 0.930 . S
C1322 C1320 1.395 . S
C1322 C1325 1.403 . S
C1323 C1320 1.403 . S
C1323 C1324 1.524 . S
C1323 C1327 1.400 . S
C1324 H1309 0.960 . S
C1324 H1310 0.960 . S
C1324 H1311 0.960 . S
C1324 C1323 1.524 . S
C1325 C1322 1.403 . S
C1325 C1326 1.392 . S
C1325 C1329 1.495 . S
C1326 C1325 1.392 . S
C1326 C1327 1.385 . S
C1326 C1328 1.478 . S
C1327 H1321 0.930 . S
C1327 C1323 1.400 . S
C1327 C1326 1.385 . S
C1328 C1326 1.478 . S
C1328 C1330 1.381 . S
C1328 C1334 1.383 . S
C1329 C1325 1.495 . S
C1329 H1335 0.959 . S
C1329 H1336 0.961 . S
C1329 H1337 0.960 . S
C1330 C1328 1.381 . S
C1330 C1331 1.394 . S
C1330 H1338 0.930 . S
C1331 C1330 1.394 . S
C1331 C1332 1.383 . S
C1331 H1339 0.929 . S
C1332 C1331 1.383 . S
C1332 C1333 1.377 . S
C1333 H1317 0.930 . S
C1333 C1332 1.377 . S
C1333 C1334 1.379 . S
C1334 H1318 0.931 . S
C1334 C1328 1.383 . S
C1334 C1333 1.379 . S
H1335 C1329 0.959 . S
H1336 C1329 0.961 . S
H1337 C1329 0.960 . S
H1338 C1330 0.930 . S
H1339 C1331 0.929 . S
H1340 C1348 0.929 . S
H1341 C1350 0.930 . S
H1342 C1352 0.930 . S
H1343 C1355 0.929 . S
H1344 C1358 0.930 . S
H1345 C1360 0.960 . S
H1346 C1360 0.960 . S
H1347 C1360 0.960 . S
C1348 H1340 0.929 . S
C1348 C1349 1.377 . S
C1348 C1350 1.384 . S
C1349 C1348 1.377 . S
C1349 C1355 1.390 . S
C1350 H1341 0.930 . S
C1350 C1348 1.384 . S
C1350 C1351 1.372 . S
C1351 C1350 1.372 . S
C1351 C1352 1.400 . S
C1351 C1356 1.490 . S
C1352 H1342 0.930 . S
C1352 C1351 1.400 . S
C1352 C1355 1.386 . S
H1353 C1369 0.930 . S
H1354 C1370 0.931 . S
C1355 H1343 0.929 . S
C1355 C1349 1.390 . S
C1355 C1352 1.386 . S
C1356 C1351 1.490 . S
C1356 C1358 1.395 . S
C1356 C1359 1.403 . S
H1357 C1363 0.930 . S
C1358 H1344 0.930 . S
C1358 C1356 1.395 . S
C1358 C1361 1.403 . S
C1359 C1356 1.403 . S
C1359 C1360 1.524 . S
C1359 C1363 1.400 . S
C1360 H1345 0.960 . S
C1360 H1346 0.960 . S
C1360 H1347 0.960 . S
C1360 C1359 1.524 . S
C1361 C1358 1.403 . S
C1361 C1362 1.392 . S
C1361 C1365 1.495 . S
C1362 C1361 1.392 . S
C1362 C1363 1.385 . S
C1362 C1364 1.478 . S
C1363 H1357 0.930 . S
C1363 C1359 1.400 . S
C1363 C1362 1.385 . S
C1364 C1362 1.478 . S
C1364 C1366 1.381 . S
C1364 C1370 1.383 . S
C1365 C1361 1.495 . S
C1365 H1371 0.959 . S
C1365 H1372 0.961 . S
C1365 H1373 0.960 . S
C1366 C1364 1.381 . S
C1366 C1367 1.394 . S
C1366 H1374 0.930 . S
C1367 C1366 1.394 . S
C1367 C1368 1.383 . S
C1367 H1375 0.929 . S
C1368 C1367 1.383 . S
C1368 C1369 1.377 . S
C1369 H1353 0.930 . S
C1369 C1368 1.377 . S
C1369 C1370 1.379 . S
C1370 H1354 0.931 . S
C1370 C1364 1.383 . S
C1370 C1369 1.379 . S
H1371 C1365 0.959 . S
H1372 C1365 0.961 . S
H1373 C1365 0.960 . S
H1374 C1366 0.930 . S
H1375 C1367 0.929 . S
H1376 C1384 0.929 . S
H1377 C1386 0.930 . S
H1378 C1388 0.930 . S
H1379 C1391 0.929 . S
H1380 C1394 0.930 . S
H1381 C1396 0.960 . S
H1382 C1396 0.960 . S
H1383 C1396 0.960 . S
C1384 H1376 0.929 . S
C1384 C1385 1.377 . S
C1384 C1386 1.384 . S
C1385 C1384 1.377 . S
C1385 C1391 1.390 . S
C1386 H1377 0.930 . S
C1386 C1384 1.384 . S
C1386 C1387 1.372 . S
C1387 C1386 1.372 . S
C1387 C1388 1.400 . S
C1387 C1392 1.490 . S
C1388 H1378 0.930 . S
C1388 C1387 1.400 . S
C1388 C1391 1.386 . S
H1389 C1405 0.930 . S
H1390 C1406 0.931 . S
C1391 H1379 0.929 . S
C1391 C1385 1.390 . S
C1391 C1388 1.386 . S
C1392 C1387 1.490 . S
C1392 C1394 1.395 . S
C1392 C1395 1.403 . S
H1393 C1399 0.930 . S
C1394 H1380 0.930 . S
C1394 C1392 1.395 . S
C1394 C1397 1.403 . S
C1395 C1392 1.403 . S
C1395 C1396 1.524 . S
C1395 C1399 1.400 . S
C1396 H1381 0.960 . S
C1396 H1382 0.960 . S
C1396 H1383 0.960 . S
C1396 C1395 1.524 . S
C1397 C1394 1.403 . S
C1397 C1398 1.392 . S
C1397 C1401 1.495 . S
C1398 C1397 1.392 . S
C1398 C1399 1.385 . S
C1398 C1400 1.478 . S
C1399 H1393 0.930 . S
C1399 C1395 1.400 . S
C1399 C1398 1.385 . S
C1400 C1398 1.478 . S
C1400 C1402 1.381 . S
C1400 C1406 1.383 . S
C1401 C1397 1.495 . S
C1401 H1407 0.959 . S
C1401 H1408 0.961 . S
C1401 H1409 0.960 . S
C1402 C1400 1.381 . S
C1402 C1403 1.394 . S
C1402 H1410 0.930 . S
C1403 C1402 1.394 . S
C1403 C1404 1.383 . S
C1403 H1411 0.929 . S
C1404 C1403 1.383 . S
C1404 C1405 1.377 . S
C1405 H1389 0.930 . S
C1405 C1404 1.377 . S
C1405 C1406 1.379 . S
C1406 H1390 0.931 . S
C1406 C1400 1.383 . S
C1406 C1405 1.379 . S
H1407 C1401 0.959 . S
H1408 C1401 0.961 . S
H1409 C1401 0.960 . S
H1410 C1402 0.930 . S
H1411 C1403 0.929 . S
H1412 C1420 0.929 . S
H1413 C1422 0.930 . S
H1414 C1424 0.930 . S
H1415 C1427 0.929 . S
H1416 C1430 0.930 . S
H1417 C1432 0.960 . S
H1418 C1432 0.960 . S
H1419 C1432 0.960 . S
C1420 H1412 0.929 . S
C1420 C1421 1.377 . S
C1420 C1422 1.384 . S
C1421 C1420 1.377 . S
C1421 C1427 1.390 . S
C1422 H1413 0.930 . S
C1422 C1420 1.384 . S
C1422 C1423 1.372 . S
C1423 C1422 1.372 . S
C1423 C1424 1.400 . S
C1423 C1428 1.490 . S
C1424 H1414 0.930 . S
C1424 C1423 1.400 . S
C1424 C1427 1.386 . S
H1425 C1441 0.930 . S
H1426 C1442 0.931 . S
C1427 H1415 0.929 . S
C1427 C1421 1.390 . S
C1427 C1424 1.386 . S
C1428 C1423 1.490 . S
C1428 C1430 1.395 . S
C1428 C1431 1.403 . S
H1429 C1435 0.930 . S
C1430 H1416 0.930 . S
C1430 C1428 1.395 . S
C1430 C1433 1.403 . S
C1431 C1428 1.403 . S
C1431 C1432 1.524 . S
C1431 C1435 1.400 . S
C1432 H1417 0.960 . S
C1432 H1418 0.960 . S
C1432 H1419 0.960 . S
C1432 C1431 1.524 . S
C1433 C1430 1.403 . S
C1433 C1434 1.392 . S
C1433 C1437 1.495 . S
C1434 C1433 1.392 . S
C1434 C1435 1.385 . S
C1434 C1436 1.478 . S
C1435 H1429 0.930 . S
C1435 C1431 1.400 . S
C1435 C1434 1.385 . S
C1436 C1434 1.478 . S
C1436 C1438 1.381 . S
C1436 C1442 1.383 . S
C1437 C1433 1.495 . S
C1437 H1443 0.959 . S
C1437 H1444 0.961 . S
C1437 H1445 0.960 . S
C1438 C1436 1.381 . S
C1438 C1439 1.394 . S
C1438 H1446 0.930 . S
C1439 C1438 1.394 . S
C1439 C1440 1.383 . S
C1439 H1447 0.929 . S
C1440 C1439 1.383 . S
C1440 C1441 1.377 . S
C1441 H1425 0.930 . S
C1441 C1440 1.377 . S
C1441 C1442 1.379 . S
C1442 H1426 0.931 . S
C1442 C1436 1.383 . S
C1442 C1441 1.379 . S
H1443 C1437 0.959 . S
H1444 C1437 0.961 . S
H1445 C1437 0.960 . S
H1446 C1438 0.930 . S
H1447 C1439 0.929 . S
H1448 C1456 0.929 . S
H1449 C1458 0.930 . S
H1450 C1460 0.930 . S
H1451 C1463 0.929 . S
H1452 C1466 0.930 . S
H1453 C1468 0.960 . S
H1454 C1468 0.960 . S
H1455 C1468 0.960 . S
C1456 H1448 0.929 . S
C1456 C1457 1.377 . S
C1456 C1458 1.384 . S
C1457 C1456 1.377 . S
C1457 C1463 1.390 . S
C1458 H1449 0.930 . S
C1458 C1456 1.384 . S
C1458 C1459 1.372 . S
C1459 C1458 1.372 . S
C1459 C1460 1.400 . S
C1459 C1464 1.490 . S
C1460 H1450 0.930 . S
C1460 C1459 1.400 . S
C1460 C1463 1.386 . S
H1461 C1477 0.930 . S
H1462 C1478 0.931 . S
C1463 H1451 0.929 . S
C1463 C1457 1.390 . S
C1463 C1460 1.386 . S
C1464 C1459 1.490 . S
C1464 C1466 1.395 . S
C1464 C1467 1.403 . S
H1465 C1471 0.930 . S
C1466 H1452 0.930 . S
C1466 C1464 1.395 . S
C1466 C1469 1.403 . S
C1467 C1464 1.403 . S
C1467 C1468 1.524 . S
C1467 C1471 1.400 . S
C1468 H1453 0.960 . S
C1468 H1454 0.960 . S
C1468 H1455 0.960 . S
C1468 C1467 1.524 . S
C1469 C1466 1.403 . S
C1469 C1470 1.392 . S
C1469 C1473 1.495 . S
C1470 C1469 1.392 . S
C1470 C1471 1.385 . S
C1470 C1472 1.478 . S
C1471 H1465 0.930 . S
C1471 C1467 1.400 . S
C1471 C1470 1.385 . S
C1472 C1470 1.478 . S
C1472 C1474 1.381 . S
C1472 C1478 1.383 . S
C1473 C1469 1.495 . S
C1473 H1479 0.959 . S
C1473 H1480 0.961 . S
C1473 H1481 0.960 . S
C1474 C1472 1.381 . S
C1474 C1475 1.394 . S
C1474 H1482 0.930 . S
C1475 C1474 1.394 . S
C1475 C1476 1.383 . S
C1475 H1483 0.929 . S
C1476 C1475 1.383 . S
C1476 C1477 1.377 . S
C1477 H1461 0.930 . S
C1477 C1476 1.377 . S
C1477 C1478 1.379 . S
C1478 H1462 0.931 . S
C1478 C1472 1.383 . S
C1478 C1477 1.379 . S
H1479 C1473 0.959 . S
H1480 C1473 0.961 . S
H1481 C1473 0.960 . S
H1482 C1474 0.930 . S
H1483 C1475 0.929 . S
H1484 C1492 0.929 . S
H1485 C1494 0.930 . S
H1486 C1496 0.930 . S
H1487 C1499 0.929 . S
H1488 C1502 0.930 . S
H1489 C1504 0.960 . S
H1490 C1504 0.960 . S
H1491 C1504 0.960 . S
C1492 H1484 0.929 . S
C1492 C1493 1.377 . S
C1492 C1494 1.384 . S
C1493 C1492 1.377 . S
C1493 C1499 1.390 . S
C1494 H1485 0.930 . S
C1494 C1492 1.384 . S
C1494 C1495 1.372 . S
C1495 C1494 1.372 . S
C1495 C1496 1.400 . S
C1495 C1500 1.490 . S
C1496 H1486 0.930 . S
C1496 C1495 1.400 . S
C1496 C1499 1.386 . S
H1497 C1513 0.930 . S
H1498 C1514 0.931 . S
C1499 H1487 0.929 . S
C1499 C1493 1.390 . S
C1499 C1496 1.386 . S
C1500 C1495 1.490 . S
C1500 C1502 1.395 . S
C1500 C1503 1.403 . S
H1501 C1507 0.930 . S
C1502 H1488 0.930 . S
C1502 C1500 1.395 . S
C1502 C1505 1.403 . S
C1503 C1500 1.403 . S
C1503 C1504 1.524 . S
C1503 C1507 1.400 . S
C1504 H1489 0.960 . S
C1504 H1490 0.960 . S
C1504 H1491 0.960 . S
C1504 C1503 1.524 . S
C1505 C1502 1.403 . S
C1505 C1506 1.392 . S
C1505 C1509 1.495 . S
C1506 C1505 1.392 . S
C1506 C1507 1.385 . S
C1506 C1508 1.478 . S
C1507 H1501 0.930 . S
C1507 C1503 1.400 . S
C1507 C1506 1.385 . S
C1508 C1506 1.478 . S
C1508 C1510 1.381 . S
C1508 C1514 1.383 . S
C1509 C1505 1.495 . S
C1509 H1515 0.959 . S
C1509 H1516 0.961 . S
C1509 H1517 0.960 . S
C1510 C1508 1.381 . S
C1510 C1511 1.394 . S
C1510 H1518 0.930 . S
C1511 C1510 1.394 . S
C1511 C1512 1.383 . S
C1511 H1519 0.929 . S
C1512 C1511 1.383 . S
C1512 C1513 1.377 . S
C1513 H1497 0.930 . S
C1513 C1512 1.377 . S
C1513 C1514 1.379 . S
C1514 H1498 0.931 . S
C1514 C1508 1.383 . S
C1514 C1513 1.379 . S
H1515 C1509 0.959 . S
H1516 C1509 0.961 . S
H1517 C1509 0.960 . S
H1518 C1510 0.930 . S
H1519 C1511 0.929 . S
H1520 C1528 0.929 . S
H1521 C1530 0.930 . S
H1522 C1532 0.930 . S
H1523 C1535 0.929 . S
H1524 C1538 0.930 . S
H1525 C1540 0.960 . S
H1526 C1540 0.960 . S
H1527 C1540 0.960 . S
C1528 H1520 0.929 . S
C1528 C1529 1.377 . S
C1528 C1530 1.384 . S
C1529 C1528 1.377 . S
C1529 C1535 1.390 . S
C1530 H1521 0.930 . S
C1530 C1528 1.384 . S
C1530 C1531 1.372 . S
C1531 C1530 1.372 . S
C1531 C1532 1.400 . S
C1531 C1536 1.490 . S
C1532 H1522 0.930 . S
C1532 C1531 1.400 . S
C1532 C1535 1.386 . S
H1533 C1549 0.930 . S
H1534 C1550 0.931 . S
C1535 H1523 0.929 . S
C1535 C1529 1.390 . S
C1535 C1532 1.386 . S
C1536 C1531 1.490 . S
C1536 C1538 1.395 . S
C1536 C1539 1.403 . S
H1537 C1543 0.930 . S
C1538 H1524 0.930 . S
C1538 C1536 1.395 . S
C1538 C1541 1.403 1_556 S
C1539 C1536 1.403 . S
C1539 C1540 1.524 . S
C1539 C1543 1.400 1_556 S
C1540 H1525 0.960 . S
C1540 H1526 0.960 . S
C1540 H1527 0.960 . S
C1540 C1539 1.524 . S
C1541 C1538 1.403 1_554 S
C1541 C1542 1.392 . S
C1541 C1545 1.495 . S
C1542 C1541 1.392 . S
C1542 C1543 1.385 . S
C1542 C1544 1.478 . S
C1543 H1537 0.930 . S
C1543 C1539 1.400 1_554 S
C1543 C1542 1.385 . S
C1544 C1542 1.478 . S
C1544 C1546 1.381 . S
C1544 C1550 1.383 . S
C1545 C1541 1.495 . S
C1545 H1551 0.959 . S
C1545 H1552 0.961 . S
C1545 H1553 0.960 . S
C1546 C1544 1.381 . S
C1546 C1547 1.394 . S
C1546 H1554 0.930 . S
C1547 C1546 1.394 . S
C1547 C1548 1.383 . S
C1547 H1555 0.929 . S
C1548 C1547 1.383 . S
C1548 C1549 1.377 . S
C1549 H1533 0.930 . S
C1549 C1548 1.377 . S
C1549 C1550 1.379 . S
C1550 H1534 0.931 . S
C1550 C1544 1.383 . S
C1550 C1549 1.379 . S
H1551 C1545 0.959 . S
H1552 C1545 0.961 . S
H1553 C1545 0.960 . S
H1554 C1546 0.930 . S
H1555 C1547 0.929 . S
H1556 C1564 0.929 . S
H1557 C1566 0.930 . S
H1558 C1568 0.930 . S
H1559 C1571 0.929 . S
H1560 C1574 0.930 . S
H1561 C1576 0.960 . S
H1562 C1576 0.960 . S
H1563 C1576 0.960 . S
C1564 H1556 0.929 . S
C1564 C1565 1.377 . S
C1564 C1566 1.384 . S
C1565 C1564 1.377 . S
C1565 C1571 1.390 . S
C1566 H1557 0.930 . S
C1566 C1564 1.384 . S
C1566 C1567 1.372 . S
C1567 C1566 1.372 . S
C1567 C1568 1.400 . S
C1567 C1572 1.490 . S
C1568 H1558 0.930 . S
C1568 C1567 1.400 . S
C1568 C1571 1.386 . S
H1569 C1585 0.930 . S
H1570 C1586 0.931 . S
C1571 H1559 0.929 . S
C1571 C1565 1.390 . S
C1571 C1568 1.386 . S
C1572 C1567 1.490 . S
C1572 C1574 1.395 . S
C1572 C1575 1.403 . S
H1573 C1579 0.930 . S
C1574 H1560 0.930 . S
C1574 C1572 1.395 . S
C1574 C1577 1.403 . S
C1575 C1572 1.403 . S
C1575 C1576 1.524 . S
C1575 C1579 1.400 . S
C1576 H1561 0.960 . S
C1576 H1562 0.960 . S
C1576 H1563 0.960 . S
C1576 C1575 1.524 . S
C1577 C1574 1.403 . S
C1577 C1578 1.392 . S
C1577 C1581 1.495 . S
C1578 C1577 1.392 . S
C1578 C1579 1.385 . S
C1578 C1580 1.478 . S
C1579 H1573 0.930 . S
C1579 C1575 1.400 . S
C1579 C1578 1.385 . S
C1580 C1578 1.478 . S
C1580 C1582 1.381 . S
C1580 C1586 1.383 . S
C1581 C1577 1.495 . S
C1581 H1587 0.959 . S
C1581 H1588 0.961 . S
C1581 H1589 0.960 . S
C1582 C1580 1.381 . S
C1582 C1583 1.394 . S
C1582 H1590 0.930 . S
C1583 C1582 1.394 . S
C1583 C1584 1.383 . S
C1583 H1591 0.929 . S
C1584 C1583 1.383 . S
C1584 C1585 1.377 . S
C1585 H1569 0.930 . S
C1585 C1584 1.377 . S
C1585 C1586 1.379 . S
C1586 H1570 0.931 . S
C1586 C1580 1.383 . S
C1586 C1585 1.379 . S
H1587 C1581 0.959 . S
H1588 C1581 0.961 . S
H1589 C1581 0.960 . S
H1590 C1582 0.930 . S
H1591 C1583 0.929 . S
H1592 C1600 0.929 . S
H1593 C1602 0.930 . S
H1594 C1604 0.930 . S
H1595 C1607 0.929 . S
H1596 C1610 0.930 . S
H1597 C1612 0.960 . S
H1598 C1612 0.960 . S
H1599 C1612 0.960 . S
C1600 H1592 0.929 . S
C1600 C1601 1.377 . S
C1600 C1602 1.384 . S
C1601 C1600 1.377 . S
C1601 C1607 1.390 . S
C1602 H1593 0.930 . S
C1602 C1600 1.384 . S
C1602 C1603 1.372 . S
C1603 C1602 1.372 . S
C1603 C1604 1.400 . S
C1603 C1608 1.490 . S
C1604 H1594 0.930 . S
C1604 C1603 1.400 . S
C1604 C1607 1.386 . S
H1605 C1621 0.930 . S
H1606 C1622 0.931 . S
C1607 H1595 0.929 . S
C1607 C1601 1.390 . S
C1607 C1604 1.386 . S
C1608 C1603 1.490 . S
C1608 C1610 1.395 . S
C1608 C1611 1.403 . S
H1609 C1615 0.930 . S
C1610 H1596 0.930 . S
C1610 C1608 1.395 . S
C1610 C1613 1.403 1_554 S
C1611 C1608 1.403 . S
C1611 C1612 1.524 . S
C1611 C1615 1.400 1_554 S
C1612 H1597 0.960 . S
C1612 H1598 0.960 . S
C1612 H1599 0.960 . S
C1612 C1611 1.524 . S
C1613 C1610 1.403 1_556 S
C1613 C1614 1.392 . S
C1613 C1617 1.495 . S
C1614 C1613 1.392 . S
C1614 C1615 1.385 . S
C1614 C1616 1.478 . S
C1615 H1609 0.930 . S
C1615 C1611 1.400 1_556 S
C1615 C1614 1.385 . S
C1616 C1614 1.478 . S
C1616 C1618 1.381 . S
C1616 C1622 1.383 . S
C1617 C1613 1.495 . S
C1617 H1623 0.959 . S
C1617 H1624 0.961 . S
C1617 H1625 0.960 . S
C1618 C1616 1.381 . S
C1618 C1619 1.394 . S
C1618 H1626 0.930 . S
C1619 C1618 1.394 . S
C1619 C1620 1.383 . S
C1619 H1627 0.929 . S
C1620 C1619 1.383 . S
C1620 C1621 1.377 . S
C1621 H1605 0.930 . S
C1621 C1620 1.377 . S
C1621 C1622 1.379 . S
C1622 H1606 0.931 . S
C1622 C1616 1.383 . S
C1622 C1621 1.379 . S
H1623 C1617 0.959 . S
H1624 C1617 0.961 . S
H1625 C1617 0.960 . S
H1626 C1618 0.930 . S
H1627 C1619 0.929 . S
H1628 C1636 0.929 . S
H1629 C1638 0.930 . S
H1630 C1640 0.930 . S
H1631 C1643 0.929 . S
H1632 C1646 0.930 . S
H1633 C1648 0.960 . S
H1634 C1648 0.960 . S
H1635 C1648 0.960 . S
C1636 H1628 0.929 . S
C1636 C1637 1.377 . S
C1636 C1638 1.384 . S
C1637 C1636 1.377 . S
C1637 C1643 1.390 . S
C1638 H1629 0.930 . S
C1638 C1636 1.384 . S
C1638 C1639 1.372 . S
C1639 C1638 1.372 . S
C1639 C1640 1.400 . S
C1639 C1644 1.490 . S
C1640 H1630 0.930 . S
C1640 C1639 1.400 . S
C1640 C1643 1.386 . S
H1641 C1657 0.930 . S
H1642 C1658 0.931 . S
C1643 H1631 0.929 . S
C1643 C1637 1.390 . S
C1643 C1640 1.386 . S
C1644 C1639 1.490 . S
C1644 C1646 1.395 . S
C1644 C1647 1.403 . S
H1645 C1651 0.930 . S
C1646 H1632 0.930 . S
C1646 C1644 1.395 . S
C1646 C1649 1.403 . S
C1647 C1644 1.403 . S
C1647 C1648 1.524 . S
C1647 C1651 1.400 . S
C1648 H1633 0.960 . S
C1648 H1634 0.960 . S
C1648 H1635 0.960 . S
C1648 C1647 1.524 . S
C1649 C1646 1.403 . S
C1649 C1650 1.392 . S
C1649 C1653 1.495 . S
C1650 C1649 1.392 . S
C1650 C1651 1.385 . S
C1650 C1652 1.478 . S
C1651 H1645 0.930 . S
C1651 C1647 1.400 . S
C1651 C1650 1.385 . S
C1652 C1650 1.478 . S
C1652 C1654 1.381 . S
C1652 C1658 1.383 . S
C1653 C1649 1.495 . S
C1653 H1659 0.959 . S
C1653 H1660 0.961 . S
C1653 H1661 0.960 . S
C1654 C1652 1.381 . S
C1654 C1655 1.394 . S
C1654 H1662 0.930 . S
C1655 C1654 1.394 . S
C1655 C1656 1.383 . S
C1655 H1663 0.929 . S
C1656 C1655 1.383 . S
C1656 C1657 1.377 . S
C1657 H1641 0.930 . S
C1657 C1656 1.377 . S
C1657 C1658 1.379 . S
C1658 H1642 0.931 . S
C1658 C1652 1.383 . S
C1658 C1657 1.379 . S
H1659 C1653 0.959 . S
H1660 C1653 0.961 . S
H1661 C1653 0.960 . S
H1662 C1654 0.930 . S
H1663 C1655 0.929 . S
H1664 C1672 0.929 . S
H1665 C1674 0.930 . S
H1666 C1676 0.930 . S
H1667 C1679 0.929 . S
H1668 C1682 0.930 . S
H1669 C1684 0.960 . S
H1670 C1684 0.960 . S
H1671 C1684 0.960 . S
C1672 H1664 0.929 . S
C1672 C1673 1.377 . S
C1672 C1674 1.384 . S
C1673 C1672 1.377 . S
C1673 C1679 1.390 . S
C1674 H1665 0.930 . S
C1674 C1672 1.384 . S
C1674 C1675 1.372 . S
C1675 C1674 1.372 . S
C1675 C1676 1.400 . S
C1675 C1680 1.490 . S
C1676 H1666 0.930 . S
C1676 C1675 1.400 . S
C1676 C1679 1.386 . S
H1677 C1693 0.930 . S
H1678 C1694 0.931 . S
C1679 H1667 0.929 . S
C1679 C1673 1.390 . S
C1679 C1676 1.386 . S
C1680 C1675 1.490 . S
C1680 C1682 1.395 . S
C1680 C1683 1.403 . S
H1681 C1687 0.930 . S
C1682 H1668 0.930 . S
C1682 C1680 1.395 . S
C1682 C1685 1.403 . S
C1683 C1680 1.403 . S
C1683 C1684 1.524 . S
C1683 C1687 1.400 . S
C1684 H1669 0.960 . S
C1684 H1670 0.960 . S
C1684 H1671 0.960 . S
C1684 C1683 1.524 . S
C1685 C1682 1.403 . S
C1685 C1686 1.392 . S
C1685 C1689 1.495 . S
C1686 C1685 1.392 . S
C1686 C1687 1.385 . S
C1686 C1688 1.478 . S
C1687 H1681 0.930 . S
C1687 C1683 1.400 . S
C1687 C1686 1.385 . S
C1688 C1686 1.478 . S
C1688 C1690 1.381 . S
C1688 C1694 1.383 . S
C1689 C1685 1.495 . S
C1689 H1695 0.959 . S
C1689 H1696 0.961 . S
C1689 H1697 0.960 . S
C1690 C1688 1.381 . S
C1690 C1691 1.394 . S
C1690 H1698 0.930 . S
C1691 C1690 1.394 . S
C1691 C1692 1.383 . S
C1691 H1699 0.929 . S
C1692 C1691 1.383 . S
C1692 C1693 1.377 . S
C1693 H1677 0.930 . S
C1693 C1692 1.377 . S
C1693 C1694 1.379 . S
C1694 H1678 0.931 . S
C1694 C1688 1.383 . S
C1694 C1693 1.379 . S
H1695 C1689 0.959 . S
H1696 C1689 0.961 . S
H1697 C1689 0.960 . S
H1698 C1690 0.930 . S
H1699 C1691 0.929 . S
H1700 C1708 0.929 . S
H1701 C1710 0.930 . S
H1702 C1712 0.930 . S
H1703 C1715 0.929 . S
H1704 C1718 0.930 . S
H1705 C1720 0.960 . S
H1706 C1720 0.960 . S
H1707 C1720 0.960 . S
C1708 H1700 0.929 . S
C1708 C1709 1.377 . S
C1708 C1710 1.384 . S
C1709 C1708 1.377 . S
C1709 C1715 1.390 . S
C1710 H1701 0.930 . S
C1710 C1708 1.384 . S
C1710 C1711 1.372 . S
C1711 C1710 1.372 . S
C1711 C1712 1.400 . S
C1711 C1716 1.490 . S
C1712 H1702 0.930 . S
C1712 C1711 1.400 . S
C1712 C1715 1.386 . S
H1713 C1729 0.930 . S
H1714 C1730 0.931 . S
C1715 H1703 0.929 . S
C1715 C1709 1.390 . S
C1715 C1712 1.386 . S
C1716 C1711 1.490 . S
C1716 C1718 1.395 . S
C1716 C1719 1.403 . S
H1717 C1723 0.930 . S
C1718 H1704 0.930 . S
C1718 C1716 1.395 . S
C1718 C1721 1.403 1_556 S
C1719 C1716 1.403 . S
C1719 C1720 1.524 . S
C1719 C1723 1.400 1_556 S
C1720 H1705 0.960 . S
C1720 H1706 0.960 . S
C1720 H1707 0.960 . S
C1720 C1719 1.524 . S
C1721 C1718 1.403 1_554 S
C1721 C1722 1.392 . S
C1721 C1725 1.495 . S
C1722 C1721 1.392 . S
C1722 C1723 1.385 . S
C1722 C1724 1.478 . S
C1723 H1717 0.930 . S
C1723 C1719 1.400 1_554 S
C1723 C1722 1.385 . S
C1724 C1722 1.478 . S
C1724 C1726 1.381 . S
C1724 C1730 1.383 . S
C1725 C1721 1.495 . S
C1725 H1731 0.959 . S
C1725 H1732 0.961 . S
C1725 H1733 0.960 . S
C1726 C1724 1.381 . S
C1726 C1727 1.394 . S
C1726 H1734 0.930 . S
C1727 C1726 1.394 . S
C1727 C1728 1.383 . S
C1727 H1735 0.929 . S
C1728 C1727 1.383 . S
C1728 C1729 1.377 . S
C1729 H1713 0.930 . S
C1729 C1728 1.377 . S
C1729 C1730 1.379 . S
C1730 H1714 0.931 . S
C1730 C1724 1.383 . S
C1730 C1729 1.379 . S
H1731 C1725 0.959 . S
H1732 C1725 0.961 . S
H1733 C1725 0.960 . S
H1734 C1726 0.930 . S
H1735 C1727 0.929 . S
H1736 C1744 0.929 . S
H1737 C1746 0.930 . S
H1738 C1748 0.930 . S
H1739 C1751 0.929 . S
H1740 C1754 0.930 . S
H1741 C1756 0.960 . S
H1742 C1756 0.960 . S
H1743 C1756 0.960 . S
C1744 H1736 0.929 . S
C1744 C1745 1.377 . S
C1744 C1746 1.384 . S
C1745 C1744 1.377 . S
C1745 C1751 1.390 . S
C1746 H1737 0.930 . S
C1746 C1744 1.384 . S
C1746 C1747 1.372 . S
C1747 C1746 1.372 . S
C1747 C1748 1.400 . S
C1747 C1752 1.490 . S
C1748 H1738 0.930 . S
C1748 C1747 1.400 . S
C1748 C1751 1.386 . S
H1749 C1765 0.930 . S
H1750 C1766 0.931 . S
C1751 H1739 0.929 . S
C1751 C1745 1.390 . S
C1751 C1748 1.386 . S
C1752 C1747 1.490 . S
C1752 C1754 1.395 . S
C1752 C1755 1.403 . S
H1753 C1759 0.930 . S
C1754 H1740 0.930 . S
C1754 C1752 1.395 . S
C1754 C1757 1.403 . S
C1755 C1752 1.403 . S
C1755 C1756 1.524 . S
C1755 C1759 1.400 . S
C1756 H1741 0.960 . S
C1756 H1742 0.960 . S
C1756 H1743 0.960 . S
C1756 C1755 1.524 . S
C1757 C1754 1.403 . S
C1757 C1758 1.392 . S
C1757 C1761 1.495 . S
C1758 C1757 1.392 . S
C1758 C1759 1.385 . S
C1758 C1760 1.478 . S
C1759 H1753 0.930 . S
C1759 C1755 1.400 . S
C1759 C1758 1.385 . S
C1760 C1758 1.478 . S
C1760 C1762 1.381 . S
C1760 C1766 1.383 . S
C1761 C1757 1.495 . S
C1761 H1767 0.959 . S
C1761 H1768 0.961 . S
C1761 H1769 0.960 . S
C1762 C1760 1.381 . S
C1762 C1763 1.394 . S
C1762 H1770 0.930 . S
C1763 C1762 1.394 . S
C1763 C1764 1.383 . S
C1763 H1771 0.929 . S
C1764 C1763 1.383 . S
C1764 C1765 1.377 . S
C1765 H1749 0.930 . S
C1765 C1764 1.377 . S
C1765 C1766 1.379 . S
C1766 H1750 0.931 . S
C1766 C1760 1.383 . S
C1766 C1765 1.379 . S
H1767 C1761 0.959 . S
H1768 C1761 0.961 . S
H1769 C1761 0.960 . S
H1770 C1762 0.930 . S
H1771 C1763 0.929 . S
H1772 C1780 0.929 . S
H1773 C1782 0.930 . S
H1774 C1784 0.930 . S
H1775 C1787 0.929 . S
H1776 C1790 0.930 . S
H1777 C1792 0.960 . S
H1778 C1792 0.960 . S
H1779 C1792 0.960 . S
C1780 H1772 0.929 . S
C1780 C1781 1.377 . S
C1780 C1782 1.384 . S
C1781 C1780 1.377 . S
C1781 C1787 1.390 . S
C1782 H1773 0.930 . S
C1782 C1780 1.384 . S
C1782 C1783 1.372 . S
C1783 C1782 1.372 . S
C1783 C1784 1.400 . S
C1783 C1788 1.490 . S
C1784 H1774 0.930 . S
C1784 C1783 1.400 . S
C1784 C1787 1.386 . S
H1785 C1801 0.930 . S
H1786 C1802 0.931 . S
C1787 H1775 0.929 . S
C1787 C1781 1.390 . S
C1787 C1784 1.386 . S
C1788 C1783 1.490 . S
C1788 C1790 1.395 . S
C1788 C1791 1.403 . S
H1789 C1795 0.930 . S
C1790 H1776 0.930 . S
C1790 C1788 1.395 . S
C1790 C1793 1.403 1_554 S
C1791 C1788 1.403 . S
C1791 C1792 1.524 . S
C1791 C1795 1.400 1_554 S
C1792 H1777 0.960 . S
C1792 H1778 0.960 . S
C1792 H1779 0.960 . S
C1792 C1791 1.524 . S
C1793 C1790 1.403 1_556 S
C1793 C1794 1.392 . S
C1793 C1797 1.495 . S
C1794 C1793 1.392 . S
C1794 C1795 1.385 . S
C1794 C1796 1.478 . S
C1795 H1789 0.930 . S
C1795 C1791 1.400 1_556 S
C1795 C1794 1.385 . S
C1796 C1794 1.478 . S
C1796 C1798 1.381 . S
C1796 C1802 1.383 . S
C1797 C1793 1.495 . S
C1797 H1803 0.959 . S
C1797 H1804 0.961 . S
C1797 H1805 0.960 . S
C1798 C1796 1.381 . S
C1798 C1799 1.394 . S
C1798 H1806 0.930 . S
C1799 C1798 1.394 . S
C1799 C1800 1.383 . S
C1799 H1807 0.929 . S
C1800 C1799 1.383 . S
C1800 C1801 1.377 . S
C1801 H1785 0.930 . S
C1801 C1800 1.377 . S
C1801 C1802 1.379 . S
C1802 H1786 0.931 . S
C1802 C1796 1.383 . S
C1802 C1801 1.379 . S
H1803 C1797 0.959 . S
H1804 C1797 0.961 . S
H1805 C1797 0.960 . S
H1806 C1798 0.930 . S
H1807 C1799 0.929 . S
H1808 C1816 0.929 . S
H1809 C1818 0.930 . S
H1810 C1820 0.930 . S
H1811 C1823 0.929 . S
H1812 C1826 0.930 . S
H1813 C1828 0.960 . S
H1814 C1828 0.960 . S
H1815 C1828 0.960 . S
C1816 H1808 0.929 . S
C1816 C1817 1.377 . S
C1816 C1818 1.384 . S
C1817 C1816 1.377 . S
C1817 C1823 1.390 . S
C1818 H1809 0.930 . S
C1818 C1816 1.384 . S
C1818 C1819 1.372 . S
C1819 C1818 1.372 . S
C1819 C1820 1.400 . S
C1819 C1824 1.490 . S
C1820 H1810 0.930 . S
C1820 C1819 1.400 . S
C1820 C1823 1.386 . S
H1821 C1837 0.930 . S
H1822 C1838 0.931 . S
C1823 H1811 0.929 . S
C1823 C1817 1.390 . S
C1823 C1820 1.386 . S
C1824 C1819 1.490 . S
C1824 C1826 1.395 . S
C1824 C1827 1.403 . S
H1825 C1831 0.930 . S
C1826 H1812 0.930 . S
C1826 C1824 1.395 . S
C1826 C1829 1.403 . S
C1827 C1824 1.403 . S
C1827 C1828 1.524 . S
C1827 C1831 1.400 . S
C1828 H1813 0.960 . S
C1828 H1814 0.960 . S
C1828 H1815 0.960 . S
C1828 C1827 1.524 . S
C1829 C1826 1.403 . S
C1829 C1830 1.392 . S
C1829 C1833 1.495 . S
C1830 C1829 1.392 . S
C1830 C1831 1.385 . S
C1830 C1832 1.478 . S
C1831 H1825 0.930 . S
C1831 C1827 1.400 . S
C1831 C1830 1.385 . S
C1832 C1830 1.478 . S
C1832 C1834 1.381 . S
C1832 C1838 1.383 . S
C1833 C1829 1.495 . S
C1833 H1839 0.959 . S
C1833 H1840 0.961 . S
C1833 H1841 0.960 . S
C1834 C1832 1.381 . S
C1834 C1835 1.394 . S
C1834 H1842 0.930 . S
C1835 C1834 1.394 . S
C1835 C1836 1.383 . S
C1835 H1843 0.929 . S
C1836 C1835 1.383 . S
C1836 C1837 1.377 . S
C1837 H1821 0.930 . S
C1837 C1836 1.377 . S
C1837 C1838 1.379 . S
C1838 H1822 0.931 . S
C1838 C1832 1.383 . S
C1838 C1837 1.379 . S
H1839 C1833 0.959 . S
H1840 C1833 0.961 . S
H1841 C1833 0.960 . S
H1842 C1834 0.930 . S
H1843 C1835 0.929 . S
H1844 C1852 0.929 . S
H1845 C1854 0.930 . S
H1846 C1856 0.930 . S
H1847 C1859 0.929 . S
H1848 C1862 0.930 . S
H1849 C1864 0.960 . S
H1850 C1864 0.960 . S
H1851 C1864 0.960 . S
C1852 H1844 0.929 . S
C1852 C1853 1.377 . S
C1852 C1854 1.384 . S
C1853 C1852 1.377 . S
C1853 C1859 1.390 . S
C1854 H1845 0.930 . S
C1854 C1852 1.384 . S
C1854 C1855 1.372 . S
C1855 C1854 1.372 . S
C1855 C1856 1.400 . S
C1855 C1860 1.490 . S
C1856 H1846 0.930 . S
C1856 C1855 1.400 . S
C1856 C1859 1.386 . S
H1857 C1873 0.930 . S
H1858 C1874 0.931 . S
C1859 H1847 0.929 . S
C1859 C1853 1.390 . S
C1859 C1856 1.386 . S
C1860 C1855 1.490 . S
C1860 C1862 1.395 . S
C1860 C1863 1.403 . S
H1861 C1867 0.930 . S
C1862 H1848 0.930 . S
C1862 C1860 1.395 . S
C1862 C1865 1.403 . S
C1863 C1860 1.403 . S
C1863 C1864 1.524 . S
C1863 C1867 1.400 . S
C1864 H1849 0.960 . S
C1864 H1850 0.960 . S
C1864 H1851 0.960 . S
C1864 C1863 1.524 . S
C1865 C1862 1.403 . S
C1865 C1866 1.392 . S
C1865 C1869 1.495 . S
C1866 C1865 1.392 . S
C1866 C1867 1.385 . S
C1866 C1868 1.478 . S
C1867 H1861 0.930 . S
C1867 C1863 1.400 . S
C1867 C1866 1.385 . S
C1868 C1866 1.478 . S
C1868 C1870 1.381 . S
C1868 C1874 1.383 . S
C1869 C1865 1.495 . S
C1869 H1875 0.959 . S
C1869 H1876 0.961 . S
C1869 H1877 0.960 . S
C1870 C1868 1.381 . S
C1870 C1871 1.394 . S
C1870 H1878 0.930 . S
C1871 C1870 1.394 . S
C1871 C1872 1.383 . S
C1871 H1879 0.929 . S
C1872 C1871 1.383 . S
C1872 C1873 1.377 . S
C1873 H1857 0.930 . S
C1873 C1872 1.377 . S
C1873 C1874 1.379 . S
C1874 H1858 0.931 . S
C1874 C1868 1.383 . S
C1874 C1873 1.379 . S
H1875 C1869 0.959 . S
H1876 C1869 0.961 . S
H1877 C1869 0.960 . S
H1878 C1870 0.930 . S
H1879 C1871 0.929 . S
H1880 C1888 0.929 . S
H1881 C1890 0.930 . S
H1882 C1892 0.930 . S
H1883 C1895 0.929 . S
H1884 C1898 0.930 . S
H1885 C1900 0.960 . S
H1886 C1900 0.960 . S
H1887 C1900 0.960 . S
C1888 H1880 0.929 . S
C1888 C1889 1.377 . S
C1888 C1890 1.384 . S
C1889 C1888 1.377 . S
C1889 C1895 1.390 . S
C1890 H1881 0.930 . S
C1890 C1888 1.384 . S
C1890 C1891 1.372 . S
C1891 C1890 1.372 . S
C1891 C1892 1.400 . S
C1891 C1896 1.490 . S
C1892 H1882 0.930 . S
C1892 C1891 1.400 . S
C1892 C1895 1.386 . S
H1893 C1909 0.930 . S
H1894 C1910 0.931 . S
C1895 H1883 0.929 . S
C1895 C1889 1.390 . S
C1895 C1892 1.386 . S
C1896 C1891 1.490 . S
C1896 C1898 1.395 . S
C1896 C1899 1.403 . S
H1897 C1903 0.930 . S
C1898 H1884 0.930 . S
C1898 C1896 1.395 . S
C1898 C1901 1.403 . S
C1899 C1896 1.403 . S
C1899 C1900 1.524 . S
C1899 C1903 1.400 . S
C1900 H1885 0.960 . S
C1900 H1886 0.960 . S
C1900 H1887 0.960 . S
C1900 C1899 1.524 . S
C1901 C1898 1.403 . S
C1901 C1902 1.392 . S
C1901 C1905 1.495 . S
C1902 C1901 1.392 . S
C1902 C1903 1.385 . S
C1902 C1904 1.478 . S
C1903 H1897 0.930 . S
C1903 C1899 1.400 . S
C1903 C1902 1.385 . S
C1904 C1902 1.478 . S
C1904 C1906 1.381 . S
C1904 C1910 1.383 . S
C1905 C1901 1.495 . S
C1905 H1911 0.959 . S
C1905 H1912 0.961 . S
C1905 H1913 0.960 . S
C1906 C1904 1.381 . S
C1906 C1907 1.394 . S
C1906 H1914 0.930 . S
C1907 C1906 1.394 . S
C1907 C1908 1.383 . S
C1907 H1915 0.929 . S
C1908 C1907 1.383 . S
C1908 C1909 1.377 . S
C1909 H1893 0.930 . S
C1909 C1908 1.377 . S
C1909 C1910 1.379 . S
C1910 H1894 0.931 . S
C1910 C1904 1.383 . S
C1910 C1909 1.379 . S
H1911 C1905 0.959 . S
H1912 C1905 0.961 . S
H1913 C1905 0.960 . S
H1914 C1906 0.930 . S
H1915 C1907 0.929 . S
H1916 C1924 0.929 . S
H1917 C1926 0.930 . S
H1918 C1928 0.930 . S
H1919 C1931 0.929 . S
H1920 C1934 0.930 . S
H1921 C1936 0.960 . S
H1922 C1936 0.960 . S
H1923 C1936 0.960 . S
C1924 H1916 0.929 . S
C1924 C1925 1.377 . S
C1924 C1926 1.384 . S
C1925 C1924 1.377 . S
C1925 C1931 1.390 . S
C1926 H1917 0.930 . S
C1926 C1924 1.384 . S
C1926 C1927 1.372 . S
C1927 C1926 1.372 . S
C1927 C1928 1.400 . S
C1927 C1932 1.490 . S
C1928 H1918 0.930 . S
C1928 C1927 1.400 . S
C1928 C1931 1.386 . S
H1929 C1945 0.930 . S
H1930 C1946 0.931 . S
C1931 H1919 0.929 . S
C1931 C1925 1.390 . S
C1931 C1928 1.386 . S
C1932 C1927 1.490 . S
C1932 C1934 1.395 . S
C1932 C1935 1.403 . S
H1933 C1939 0.930 . S
C1934 H1920 0.930 . S
C1934 C1932 1.395 . S
C1934 C1937 1.403 . S
C1935 C1932 1.403 . S
C1935 C1936 1.524 . S
C1935 C1939 1.400 . S
C1936 H1921 0.960 . S
C1936 H1922 0.960 . S
C1936 H1923 0.960 . S
C1936 C1935 1.524 . S
C1937 C1934 1.403 . S
C1937 C1938 1.392 . S
C1937 C1941 1.495 . S
C1938 C1937 1.392 . S
C1938 C1939 1.385 . S
C1938 C1940 1.478 . S
C1939 H1933 0.930 . S
C1939 C1935 1.400 . S
C1939 C1938 1.385 . S
C1940 C1938 1.478 . S
C1940 C1942 1.381 . S
C1940 C1946 1.383 . S
C1941 C1937 1.495 . S
C1941 H1947 0.959 . S
C1941 H1948 0.961 . S
C1941 H1949 0.960 . S
C1942 C1940 1.381 . S
C1942 C1943 1.394 . S
C1942 H1950 0.930 . S
C1943 C1942 1.394 . S
C1943 C1944 1.383 . S
C1943 H1951 0.929 . S
C1944 C1943 1.383 . S
C1944 C1945 1.377 . S
C1945 H1929 0.930 . S
C1945 C1944 1.377 . S
C1945 C1946 1.379 . S
C1946 H1930 0.931 . S
C1946 C1940 1.383 . S
C1946 C1945 1.379 . S
H1947 C1941 0.959 . S
H1948 C1941 0.961 . S
H1949 C1941 0.960 . S
H1950 C1942 0.930 . S
H1951 C1943 0.929 . S
H1952 C1960 0.929 . S
H1953 C1962 0.930 . S
H1954 C1964 0.930 . S
H1955 C1967 0.929 . S
H1956 C1970 0.930 . S
H1957 C1972 0.960 . S
H1958 C1972 0.960 . S
H1959 C1972 0.960 . S
C1960 H1952 0.929 . S
C1960 C1961 1.377 . S
C1960 C1962 1.384 . S
C1961 C1960 1.377 . S
C1961 C1967 1.390 . S
C1962 H1953 0.930 . S
C1962 C1960 1.384 . S
C1962 C1963 1.372 . S
C1963 C1962 1.372 . S
C1963 C1964 1.400 . S
C1963 C1968 1.490 . S
C1964 H1954 0.930 . S
C1964 C1963 1.400 . S
C1964 C1967 1.386 . S
H1965 C1981 0.930 . S
H1966 C1982 0.931 . S
C1967 H1955 0.929 . S
C1967 C1961 1.390 . S
C1967 C1964 1.386 . S
C1968 C1963 1.490 . S
C1968 C1970 1.395 . S
C1968 C1971 1.403 . S
H1969 C1975 0.930 . S
C1970 H1956 0.930 . S
C1970 C1968 1.395 . S
C1970 C1973 1.403 . S
C1971 C1968 1.403 . S
C1971 C1972 1.524 . S
C1971 C1975 1.400 . S
C1972 H1957 0.960 . S
C1972 H1958 0.960 . S
C1972 H1959 0.960 . S
C1972 C1971 1.524 . S
C1973 C1970 1.403 . S
C1973 C1974 1.392 . S
C1973 C1977 1.495 . S
C1974 C1973 1.392 . S
C1974 C1975 1.385 . S
C1974 C1976 1.478 . S
C1975 H1969 0.930 . S
C1975 C1971 1.400 . S
C1975 C1974 1.385 . S
C1976 C1974 1.478 . S
C1976 C1978 1.381 . S
C1976 C1982 1.383 . S
C1977 C1973 1.495 . S
C1977 H1983 0.959 . S
C1977 H1984 0.961 . S
C1977 H1985 0.960 . S
C1978 C1976 1.381 . S
C1978 C1979 1.394 . S
C1978 H1986 0.930 . S
C1979 C1978 1.394 . S
C1979 C1980 1.383 . S
C1979 H1987 0.929 . S
C1980 C1979 1.383 . S
C1980 C1981 1.377 . S
C1981 H1965 0.930 . S
C1981 C1980 1.377 . S
C1981 C1982 1.379 . S
C1982 H1966 0.931 . S
C1982 C1976 1.383 . S
C1982 C1981 1.379 . S
H1983 C1977 0.959 . S
H1984 C1977 0.961 . S
H1985 C1977 0.960 . S
H1986 C1978 0.930 . S
H1987 C1979 0.929 . S
H1988 C1996 0.929 . S
H1989 C1998 0.930 . S
H1990 C2000 0.930 . S
H1991 C2003 0.929 . S
H1992 C2006 0.930 . S
H1993 C2008 0.960 . S
H1994 C2008 0.960 . S
H1995 C2008 0.960 . S
C1996 H1988 0.929 . S
C1996 C1997 1.377 . S
C1996 C1998 1.384 . S
C1997 C1996 1.377 . S
C1997 C2003 1.390 . S
C1998 H1989 0.930 . S
C1998 C1996 1.384 . S
C1998 C1999 1.372 . S
C1999 C1998 1.372 . S
C1999 C2000 1.400 . S
C1999 C2004 1.490 . S
C2000 H1990 0.930 . S
C2000 C1999 1.400 . S
C2000 C2003 1.386 . S
H2001 C2017 0.930 . S
H2002 C2018 0.931 . S
C2003 H1991 0.929 . S
C2003 C1997 1.390 . S
C2003 C2000 1.386 . S
C2004 C1999 1.490 . S
C2004 C2006 1.395 . S
C2004 C2007 1.403 . S
H2005 C2011 0.930 . S
C2006 H1992 0.930 . S
C2006 C2004 1.395 . S
C2006 C2009 1.403 . S
C2007 C2004 1.403 . S
C2007 C2008 1.524 . S
C2007 C2011 1.400 . S
C2008 H1993 0.960 . S
C2008 H1994 0.960 . S
C2008 H1995 0.960 . S
C2008 C2007 1.524 . S
C2009 C2006 1.403 . S
C2009 C2010 1.392 . S
C2009 C2013 1.495 . S
C2010 C2009 1.392 . S
C2010 C2011 1.385 . S
C2010 C2012 1.478 . S
C2011 H2005 0.930 . S
C2011 C2007 1.400 . S
C2011 C2010 1.385 . S
C2012 C2010 1.478 . S
C2012 C2014 1.381 . S
C2012 C2018 1.383 . S
C2013 C2009 1.495 . S
C2013 H2019 0.959 . S
C2013 H2020 0.961 . S
C2013 H2021 0.960 . S
C2014 C2012 1.381 . S
C2014 C2015 1.394 . S
C2014 H2022 0.930 . S
C2015 C2014 1.394 . S
C2015 C2016 1.383 . S
C2015 H2023 0.929 . S
C2016 C2015 1.383 . S
C2016 C2017 1.377 . S
C2017 H2001 0.930 . S
C2017 C2016 1.377 . S
C2017 C2018 1.379 . S
C2018 H2002 0.931 . S
C2018 C2012 1.383 . S
C2018 C2017 1.379 . S
H2019 C2013 0.959 . S
H2020 C2013 0.961 . S
H2021 C2013 0.960 . S
H2022 C2014 0.930 . S
H2023 C2015 0.929 . S
H2024 C2032 0.929 . S
H2025 C2034 0.930 . S
H2026 C2036 0.930 . S
H2027 C2039 0.929 . S
H2028 C2042 0.930 . S
H2029 C2044 0.960 . S
H2030 C2044 0.960 . S
H2031 C2044 0.960 . S
C2032 H2024 0.929 . S
C2032 C2033 1.377 . S
C2032 C2034 1.384 . S
C2033 C2032 1.377 . S
C2033 C2039 1.390 . S
C2034 H2025 0.930 . S
C2034 C2032 1.384 . S
C2034 C2035 1.372 . S
C2035 C2034 1.372 . S
C2035 C2036 1.400 . S
C2035 C2040 1.490 . S
C2036 H2026 0.930 . S
C2036 C2035 1.400 . S
C2036 C2039 1.386 . S
H2037 C2053 0.930 . S
H2038 C2054 0.931 . S
C2039 H2027 0.929 . S
C2039 C2033 1.390 . S
C2039 C2036 1.386 . S
C2040 C2035 1.490 . S
C2040 C2042 1.395 . S
C2040 C2043 1.403 . S
H2041 C2047 0.930 . S
C2042 H2028 0.930 . S
C2042 C2040 1.395 . S
C2042 C2045 1.403 . S
C2043 C2040 1.403 . S
C2043 C2044 1.524 . S
C2043 C2047 1.400 . S
C2044 H2029 0.960 . S
C2044 H2030 0.960 . S
C2044 H2031 0.960 . S
C2044 C2043 1.524 . S
C2045 C2042 1.403 . S
C2045 C2046 1.392 . S
C2045 C2049 1.495 . S
C2046 C2045 1.392 . S
C2046 C2047 1.385 . S
C2046 C2048 1.478 . S
C2047 H2041 0.930 . S
C2047 C2043 1.400 . S
C2047 C2046 1.385 . S
C2048 C2046 1.478 . S
C2048 C2050 1.381 . S
C2048 C2054 1.383 . S
C2049 C2045 1.495 . S
C2049 H2055 0.959 . S
C2049 H2056 0.961 . S
C2049 H2057 0.960 . S
C2050 C2048 1.381 . S
C2050 C2051 1.394 . S
C2050 H2058 0.930 . S
C2051 C2050 1.394 . S
C2051 C2052 1.383 . S
C2051 H2059 0.929 . S
C2052 C2051 1.383 . S
C2052 C2053 1.377 . S
C2053 H2037 0.930 . S
C2053 C2052 1.377 . S
C2053 C2054 1.379 . S
C2054 H2038 0.931 . S
C2054 C2048 1.383 . S
C2054 C2053 1.379 . S
H2055 C2049 0.959 . S
H2056 C2049 0.961 . S
H2057 C2049 0.960 . S
H2058 C2050 0.930 . S
H2059 C2051 0.929 . S
H2060 C2068 0.929 . S
H2061 C2070 0.930 . S
H2062 C2072 0.930 . S
H2063 C2075 0.929 . S
H2064 C2078 0.930 . S
H2065 C2080 0.960 . S
H2066 C2080 0.960 . S
H2067 C2080 0.960 . S
C2068 H2060 0.929 . S
C2068 C2069 1.377 . S
C2068 C2070 1.384 . S
C2069 C2068 1.377 . S
C2069 C2075 1.390 . S
C2070 H2061 0.930 . S
C2070 C2068 1.384 . S
C2070 C2071 1.372 . S
C2071 C2070 1.372 . S
C2071 C2072 1.400 . S
C2071 C2076 1.490 . S
C2072 H2062 0.930 . S
C2072 C2071 1.400 . S
C2072 C2075 1.386 . S
H2073 C2089 0.930 . S
H2074 C2090 0.931 . S
C2075 H2063 0.929 . S
C2075 C2069 1.390 . S
C2075 C2072 1.386 . S
C2076 C2071 1.490 . S
C2076 C2078 1.395 . S
C2076 C2079 1.403 . S
H2077 C2083 0.930 . S
C2078 H2064 0.930 . S
C2078 C2076 1.395 . S
C2078 C2081 1.403 . S
C2079 C2076 1.403 . S
C2079 C2080 1.524 . S
C2079 C2083 1.400 . S
C2080 H2065 0.960 . S
C2080 H2066 0.960 . S
C2080 H2067 0.960 . S
C2080 C2079 1.524 . S
C2081 C2078 1.403 . S
C2081 C2082 1.392 . S
C2081 C2085 1.495 . S
C2082 C2081 1.392 . S
C2082 C2083 1.385 . S
C2082 C2084 1.478 . S
C2083 H2077 0.930 . S
C2083 C2079 1.400 . S
C2083 C2082 1.385 . S
C2084 C2082 1.478 . S
C2084 C2086 1.381 . S
C2084 C2090 1.383 . S
C2085 C2081 1.495 . S
C2085 H2091 0.959 . S
C2085 H2092 0.961 . S
C2085 H2093 0.960 . S
C2086 C2084 1.381 . S
C2086 C2087 1.394 . S
C2086 H2094 0.930 . S
C2087 C2086 1.394 . S
C2087 C2088 1.383 . S
C2087 H2095 0.929 . S
C2088 C2087 1.383 . S
C2088 C2089 1.377 . S
C2089 H2073 0.930 . S
C2089 C2088 1.377 . S
C2089 C2090 1.379 . S
C2090 H2074 0.931 . S
C2090 C2084 1.383 . S
C2090 C2089 1.379 . S
H2091 C2085 0.959 . S
H2092 C2085 0.961 . S
H2093 C2085 0.960 . S
H2094 C2086 0.930 . S
H2095 C2087 0.929 . S
C953 C52 1.392 . S
C972 C170 1.391 . S
C989 C229 1.389 . S
C1008 C111 1.392 . S
C1025 C288 1.390 . S
C1044 C406 1.395 . S
C1061 C465 1.389 . S
C1080 C347 1.379 . S
C1097 C524 1.392 . S
C1116 C642 1.383 . S
C1133 C701 1.392 . S
C1152 C583 1.378 . S
C1169 C760 1.392 . S
C1188 C878 1.380 . S
C1205 C937 1.389 . S
C1224 C819 1.395 . S
C1241 C269 1.188 . S
C1260 C33 1.165 . S
C1277 C92 1.184 . S
C1296 C328 1.202 . S
C1313 C151 1.190 . S
C1332 C387 1.163 . S
C1349 C446 1.184 . S
C1368 C210 1.180 . S
C1385 C505 1.184 . S
C1404 C741 1.163 . S
C1421 C564 1.189 . S
C1440 C800 1.186 . S
C1457 C623 1.185 . S
C1476 C859 1.165 . S
C1493 C682 1.185 . S
C1512 C918 1.175 . S
C1529 C593 1.306 . S
C1548 C3 1.310 . S
C1565 C652 1.300 . S
C1584 C62 1.316 . S
C1601 C121 1.308 . S
C1620 C475 1.290 . S
C1637 C180 1.308 . S
C1656 C534 1.289 . S
C1673 C239 1.301 . S
C1692 C829 1.299 . S
C1709 C298 1.307 . S
C1728 C888 1.283 . S
C1745 C357 1.305 . S
C1764 C711 1.315 . S
C1781 C770 1.307 . S
C1800 C416 1.304 . S
C1817 C5 1.402 . S
C1836 C890 1.405 . S
C1853 C713 1.402 . S
C1872 C64 1.399 . S
C1889 C123 1.403 . S
C1908 C772 1.394 . S
C1925 C831 1.401 . S
C1944 C182 1.404 . S
C1961 C536 1.403 . S
C1980 C241 1.394 . S
C1997 C300 1.403 . S
C2016 C595 1.394 . S
C2033 C654 1.402 . S
C2052 C359 1.406 . S
C2069 C477 1.402 . S
C2088 C418 1.396 . S
