# Generated by pormake.
# Topology cbo, (4)-cn, num edge types: 1
# Building blocks:
#     Node 0, Type 0, BuildingBlock: CEKHIL_clean_sbu_0, # of connection points: 4
#     Node 1, Type 0, BuildingBlock: CEKHIL_clean_sbu_0, # of connection points: 4
#     Node 2, Type 0, BuildingBlock: CEKHIL_clean_sbu_0, # of connection points: 4
#     Node 3, Type 0, BuildingBlock: CEKHIL_clean_sbu_0, # of connection points: 4
#     Node 4, Type 0, BuildingBlock: CEKHIL_clean_sbu_0, # of connection points: 4
#     Node 5, Type 0, BuildingBlock: CEKHIL_clean_sbu_0, # of connection points: 4
#     Node 6, Type 0, BuildingBlock: CEKHIL_clean_sbu_0, # of connection points: 4
#     Node 7, Type 0, BuildingBlock: CEKHIL_clean_sbu_0, # of connection points: 4
#     Node 8, Type 0, BuildingBlock: CEKHIL_clean_sbu_0, # of connection points: 4
#     Node 9, Type 0, BuildingBlock: CEKHIL_clean_sbu_0, # of connection points: 4
#     Node 10, Type 0, BuildingBlock: CEKHIL_clean_sbu_0, # of connection points: 4
#     Node 11, Type 0, BuildingBlock: CEKHIL_clean_sbu_0, # of connection points: 4
#     Node 12, Type 0, BuildingBlock: CEKHIL_clean_sbu_0, # of connection points: 4
#     Node 13, Type 0, BuildingBlock: CEKHIL_clean_sbu_0, # of connection points: 4
#     Node 14, Type 0, BuildingBlock: CEKHIL_clean_sbu_0, # of connection points: 4
#     Node 15, Type 0, BuildingBlock: CEKHIL_clean_sbu_0, # of connection points: 4
#     Node 16, Type 0, BuildingBlock: CEKHIL_clean_sbu_0, # of connection points: 4
#     Node 17, Type 0, BuildingBlock: CEKHIL_clean_sbu_0, # of connection points: 4
#     Node 18, Type 0, BuildingBlock: CEKHIL_clean_sbu_0, # of connection points: 4
#     Node 19, Type 0, BuildingBlock: CEKHIL_clean_sbu_0, # of connection points: 4
#     Node 20, Type 0, BuildingBlock: CEKHIL_clean_sbu_0, # of connection points: 4
#     Node 21, Type 0, BuildingBlock: CEKHIL_clean_sbu_0, # of connection points: 4
#     Node 22, Type 0, BuildingBlock: CEKHIL_clean_sbu_0, # of connection points: 4
#     Node 23, Type 0, BuildingBlock: CEKHIL_clean_sbu_0, # of connection points: 4
#     Edge 24, Type (0, 0), BuildingBlock: MIFKUJ_clean_linker_0, # of connection points: 2
#     Edge 25, Type (0, 0), BuildingBlock: MIFKUJ_clean_linker_0, # of connection points: 2
#     Edge 26, Type (0, 0), BuildingBlock: MIFKUJ_clean_linker_0, # of connection points: 2
#     Edge 27, Type (0, 0), BuildingBlock: MIFKUJ_clean_linker_0, # of connection points: 2
#     Edge 28, Type (0, 0), BuildingBlock: MIFKUJ_clean_linker_0, # of connection points: 2
#     Edge 29, Type (0, 0), BuildingBlock: MIFKUJ_clean_linker_0, # of connection points: 2
#     Edge 30, Type (0, 0), BuildingBlock: MIFKUJ_clean_linker_0, # of connection points: 2
#     Edge 31, Type (0, 0), BuildingBlock: MIFKUJ_clean_linker_0, # of connection points: 2
#     Edge 32, Type (0, 0), BuildingBlock: MIFKUJ_clean_linker_0, # of connection points: 2
#     Edge 33, Type (0, 0), BuildingBlock: MIFKUJ_clean_linker_0, # of connection points: 2
#     Edge 34, Type (0, 0), BuildingBlock: MIFKUJ_clean_linker_0, # of connection points: 2
#     Edge 35, Type (0, 0), BuildingBlock: MIFKUJ_clean_linker_0, # of connection points: 2
#     Edge 36, Type (0, 0), BuildingBlock: MIFKUJ_clean_linker_0, # of connection points: 2
#     Edge 37, Type (0, 0), BuildingBlock: MIFKUJ_clean_linker_0, # of connection points: 2
#     Edge 38, Type (0, 0), BuildingBlock: MIFKUJ_clean_linker_0, # of connection points: 2
#     Edge 39, Type (0, 0), BuildingBlock: MIFKUJ_clean_linker_0, # of connection points: 2
#     Edge 40, Type (0, 0), BuildingBlock: MIFKUJ_clean_linker_0, # of connection points: 2
#     Edge 41, Type (0, 0), BuildingBlock: MIFKUJ_clean_linker_0, # of connection points: 2
#     Edge 42, Type (0, 0), BuildingBlock: MIFKUJ_clean_linker_0, # of connection points: 2
#     Edge 43, Type (0, 0), BuildingBlock: MIFKUJ_clean_linker_0, # of connection points: 2
#     Edge 44, Type (0, 0), BuildingBlock: MIFKUJ_clean_linker_0, # of connection points: 2
#     Edge 45, Type (0, 0), BuildingBlock: MIFKUJ_clean_linker_0, # of connection points: 2
#     Edge 46, Type (0, 0), BuildingBlock: MIFKUJ_clean_linker_0, # of connection points: 2
#     Edge 47, Type (0, 0), BuildingBlock: MIFKUJ_clean_linker_0, # of connection points: 2
#     Edge 48, Type (0, 0), BuildingBlock: MIFKUJ_clean_linker_0, # of connection points: 2
#     Edge 49, Type (0, 0), BuildingBlock: MIFKUJ_clean_linker_0, # of connection points: 2
#     Edge 50, Type (0, 0), BuildingBlock: MIFKUJ_clean_linker_0, # of connection points: 2
#     Edge 51, Type (0, 0), BuildingBlock: MIFKUJ_clean_linker_0, # of connection points: 2
#     Edge 52, Type (0, 0), BuildingBlock: MIFKUJ_clean_linker_0, # of connection points: 2
#     Edge 53, Type (0, 0), BuildingBlock: MIFKUJ_clean_linker_0, # of connection points: 2
#     Edge 54, Type (0, 0), BuildingBlock: MIFKUJ_clean_linker_0, # of connection points: 2
#     Edge 55, Type (0, 0), BuildingBlock: MIFKUJ_clean_linker_0, # of connection points: 2
#     Edge 56, Type (0, 0), BuildingBlock: MIFKUJ_clean_linker_0, # of connection points: 2
#     Edge 57, Type (0, 0), BuildingBlock: MIFKUJ_clean_linker_0, # of connection points: 2
#     Edge 58, Type (0, 0), BuildingBlock: MIFKUJ_clean_linker_0, # of connection points: 2
#     Edge 59, Type (0, 0), BuildingBlock: MIFKUJ_clean_linker_0, # of connection points: 2
#     Edge 60, Type (0, 0), BuildingBlock: MIFKUJ_clean_linker_0, # of connection points: 2
#     Edge 61, Type (0, 0), BuildingBlock: MIFKUJ_clean_linker_0, # of connection points: 2
#     Edge 62, Type (0, 0), BuildingBlock: MIFKUJ_clean_linker_0, # of connection points: 2
#     Edge 63, Type (0, 0), BuildingBlock: MIFKUJ_clean_linker_0, # of connection points: 2
#     Edge 64, Type (0, 0), BuildingBlock: MIFKUJ_clean_linker_0, # of connection points: 2
#     Edge 65, Type (0, 0), BuildingBlock: MIFKUJ_clean_linker_0, # of connection points: 2
#     Edge 66, Type (0, 0), BuildingBlock: MIFKUJ_clean_linker_0, # of connection points: 2
#     Edge 67, Type (0, 0), BuildingBlock: MIFKUJ_clean_linker_0, # of connection points: 2
#     Edge 68, Type (0, 0), BuildingBlock: MIFKUJ_clean_linker_0, # of connection points: 2
#     Edge 69, Type (0, 0), BuildingBlock: MIFKUJ_clean_linker_0, # of connection points: 2
#     Edge 70, Type (0, 0), BuildingBlock: MIFKUJ_clean_linker_0, # of connection points: 2
#     Edge 71, Type (0, 0), BuildingBlock: MIFKUJ_clean_linker_0, # of connection points: 2
# Relax obj value: 0.197
# Max RMSD: 0.201
# Mean RMSD: 0.196
data_MOF--net-cbo--node1-CEKHIL_clean_sbu_0--edge1-MIFKUJ_clean_linker_0
_symmetry_space_group_name_H-M    P1
_symmetry_Int_Tables_number       1
_symmetry_cell_setting            triclinic
loop_
_symmetry_equiv_pos_as_xyz
'x, y, z'
_cell_length_a     67.299038
_cell_length_b     66.618277
_cell_length_c     65.86856
_cell_angle_alpha  89.991921
_cell_angle_beta   89.952826
_cell_angle_gamma 89.992064
loop_
_atom_site_label
_atom_site_type_symbol
_atom_site_fract_x
_atom_site_fract_y
_atom_site_fract_z
_atom_type_partial_charge
Co0 Co 0.09452 0.1874 0.32044 0.0
O1 O 0.06653 0.18758 0.32571 0.0
O2 O 0.08433 0.16025 0.31947 0.0
C3 C 0.09505 0.21263 0.2978 0.0
O4 O 0.12349 0.18176 0.31358 0.0
Co5 Co 0.12003 0.22473 0.33205 0.0
O6 O 0.14135 0.21013 0.31741 0.0
C7 C 0.10577 0.19748 0.36395 0.0
C8 C 0.06708 0.16826 0.32327 0.0
C9 C 0.1398 0.1918 0.31206 0.0
O10 O 0.10015 0.18482 0.35038 0.0
O11 O 0.11215 0.21509 0.35974 0.0
O12 O 0.08992 0.19467 0.2922 0.0
O13 O 0.09719 0.21516 0.31712 0.0
Co14 Co 0.39767 0.80503 0.82044 0.0
O15 O 0.4252 0.80238 0.82765 0.0
O16 O 0.40979 0.83123 0.82175 0.0
C17 C 0.39726 0.78091 0.79662 0.0
O18 O 0.36997 0.81388 0.81198 0.0
Co19 Co 0.36719 0.77041 0.82601 0.0
O20 O 0.35117 0.78649 0.80665 0.0
C21 C 0.37822 0.79595 0.86103 0.0
C22 C 0.42613 0.82181 0.8262 0.0
C23 C 0.35427 0.80528 0.80511 0.0
O24 O 0.38993 0.80649 0.84988 0.0
O25 O 0.36837 0.78079 0.85458 0.0
O26 O 0.40371 0.79877 0.79223 0.0
O27 O 0.39306 0.77771 0.81548 0.0
Co28 Co 0.59723 0.30778 0.67671 0.0
O29 O 0.56923 0.30579 0.67158 0.0
O30 O 0.58592 0.33434 0.67441 0.0
C31 C 0.59844 0.28535 0.70218 0.0
O32 O 0.62573 0.31587 0.68279 0.0
Co33 Co 0.62534 0.27106 0.67096 0.0
O34 O 0.6454 0.28859 0.68397 0.0
C35 C 0.61294 0.29492 0.6353 0.0
C36 C 0.56899 0.32529 0.67183 0.0
C37 C 0.6426 0.3074 0.68611 0.0
O38 O 0.60316 0.30712 0.6467 0.0
O39 O 0.62175 0.2792 0.64194 0.0
O40 O 0.59283 0.30368 0.70564 0.0
O41 O 0.60107 0.28067 0.68335 0.0
Co42 Co 0.90325 0.69398 0.17045 0.0
O43 O 0.93072 0.69559 0.16283 0.0
O44 O 0.91439 0.66733 0.16898 0.0
C45 C 0.9037 0.71805 0.19438 0.0
O46 O 0.87533 0.68648 0.17948 0.0
Co47 Co 0.87482 0.73026 0.16383 0.0
O48 O 0.85646 0.71431 0.18103 0.0
C49 C 0.88594 0.70471 0.1291 0.0
C50 C 0.93101 0.67615 0.16431 0.0
C51 C 0.85914 0.69563 0.18425 0.0
O52 O 0.89501 0.69254 0.1411 0.0
O53 O 0.87836 0.72135 0.13498 0.0
O54 O 0.91001 0.70009 0.19853 0.0
O55 O 0.89968 0.72141 0.17551 0.0
Co56 Co 0.33123 0.0996 0.19518 0.0
O57 O 0.33714 0.07141 0.19575 0.0
O58 O 0.33139 0.08921 0.1679 0.0
C59 C 0.30832 0.0996 0.21998 0.0
O60 O 0.32344 0.12841 0.18855 0.0
Co61 Co 0.34047 0.12706 0.23196 0.0
O62 O 0.3238 0.14675 0.21719 0.0
C63 C 0.3731 0.11435 0.20509 0.0
C64 C 0.33512 0.07188 0.17613 0.0
C65 C 0.31962 0.14463 0.19845 0.0
O66 O 0.36039 0.10609 0.19317 0.0
O67 O 0.36833 0.1225 0.22201 0.0
O68 O 0.30372 0.09398 0.20171 0.0
O69 O 0.32705 0.10276 0.22324 0.0
Co70 Co 0.16528 0.89486 0.68175 0.0
O71 O 0.16175 0.92339 0.68157 0.0
O72 O 0.1628 0.90416 0.6541 0.0
C73 C 0.1908 0.89371 0.70349 0.0
O74 O 0.16981 0.86523 0.67605 0.0
Co75 Co 0.15753 0.87067 0.72105 0.0
O76 O 0.16977 0.84823 0.70558 0.0
C77 C 0.12366 0.88611 0.69788 0.0
C78 C 0.16128 0.92203 0.66191 0.0
C79 C 0.1726 0.84912 0.68646 0.0
O80 O 0.1357 0.89097 0.68356 0.0
O81 O 0.1295 0.87936 0.71507 0.0
O82 O 0.19372 0.89796 0.68449 0.0
O83 O 0.17242 0.89282 0.70928 0.0
Co84 Co 0.83356 0.39643 0.80278 0.0
O85 O 0.83997 0.42455 0.80203 0.0
O86 O 0.83483 0.40676 0.83001 0.0
C87 C 0.80994 0.39698 0.77873 0.0
O88 O 0.82556 0.36781 0.80988 0.0
Co89 Co 0.84079 0.36844 0.76588 0.0
O90 O 0.82603 0.34828 0.78204 0.0
C91 C 0.87471 0.381 0.79106 0.0
C92 C 0.83865 0.42403 0.82172 0.0
C93 C 0.8222 0.35106 0.80077 0.0
O94 O 0.86269 0.38946 0.80361 0.0
O95 O 0.86906 0.37284 0.77445 0.0
O96 O 0.80592 0.40256 0.79717 0.0
O97 O 0.82844 0.39327 0.77488 0.0
Co98 Co 0.66616 0.60375 0.30306 0.0
O99 O 0.66187 0.57536 0.30093 0.0
O100 O 0.66202 0.59254 0.32975 0.0
C101 C 0.69277 0.60523 0.28259 0.0
O102 O 0.67117 0.63278 0.31138 0.0
Co103 Co 0.6625 0.63179 0.26574 0.0
O104 O 0.6778 0.65049 0.28316 0.0
C105 C 0.62622 0.61873 0.28718 0.0
C106 C 0.6606 0.5753 0.3206 0.0
C107 C 0.6777 0.64863 0.3024 0.0
O108 O 0.63681 0.60892 0.30003 0.0
O109 O 0.63351 0.62836 0.27209 0.0
O110 O 0.69466 0.59982 0.30142 0.0
O111 O 0.67475 0.60751 0.27613 0.0
Co112 Co 0.19962 0.3335 0.10012 0.0
O113 O 0.2014 0.34088 0.07191 0.0
O114 O 0.17346 0.33436 0.08856 0.0
C115 C 0.22385 0.31034 0.10091 0.0
O116 O 0.19168 0.3246 0.12839 0.0
Co117 Co 0.23405 0.34212 0.13019 0.0
O118 O 0.21759 0.32682 0.14982 0.0
C119 C 0.20828 0.37523 0.11722 0.0
C120 C 0.18213 0.33933 0.07167 0.0
C121 C 0.19973 0.32187 0.14586 0.0
O122 O 0.19714 0.36251 0.10802 0.0
O123 O 0.22468 0.37038 0.12574 0.0
O124 O 0.20644 0.3059 0.09368 0.0
O125 O 0.22682 0.32917 0.10478 0.0
Co126 Co 0.70189 0.16088 0.89916 0.0
O127 O 0.70454 0.154 0.92746 0.0
O128 O 0.67602 0.15792 0.91109 0.0
C129 C 0.72415 0.18603 0.89815 0.0
O130 O 0.6928 0.16892 0.87094 0.0
Co131 Co 0.73653 0.15595 0.86836 0.0
O132 O 0.71885 0.17081 0.84965 0.0
C133 C 0.71268 0.12068 0.87976 0.0
C134 C 0.68522 0.1541 0.92797 0.0
C135 C 0.70049 0.17329 0.85362 0.0
O136 O 0.70184 0.13166 0.89136 0.0
O137 O 0.72763 0.12728 0.86978 0.0
O138 O 0.70643 0.18903 0.90536 0.0
O139 O 0.72862 0.16753 0.8942 0.0
Co140 Co 0.80202 0.83436 0.397 0.0
O141 O 0.80115 0.84169 0.42523 0.0
O142 O 0.82864 0.8363 0.40739 0.0
C143 C 0.77892 0.81008 0.39766 0.0
O144 O 0.80904 0.82577 0.36839 0.0
Co145 Co 0.76586 0.8407 0.36862 0.0
O146 O 0.78195 0.82559 0.34845 0.0
C147 C 0.78969 0.87546 0.38127 0.0
C148 C 0.82044 0.84079 0.42466 0.0
C149 C 0.80029 0.82193 0.35151 0.0
O150 O 0.80254 0.86348 0.38909 0.0
O151 O 0.77311 0.8695 0.37392 0.0
O152 O 0.79696 0.80643 0.40362 0.0
O153 O 0.77483 0.82871 0.39392 0.0
Co154 Co 0.29856 0.65787 0.5987 0.0
O155 O 0.29756 0.65208 0.57012 0.0
O156 O 0.32512 0.65665 0.58796 0.0
C157 C 0.27514 0.68188 0.59955 0.0
O158 O 0.30565 0.66505 0.62769 0.0
Co159 Co 0.26258 0.64943 0.62695 0.0
O160 O 0.27846 0.66414 0.64754 0.0
C161 C 0.28676 0.6158 0.61214 0.0
C162 C 0.31685 0.65309 0.57051 0.0
C163 C 0.29678 0.66813 0.6447 0.0
O164 O 0.29947 0.62838 0.60507 0.0
O165 O 0.2701 0.6211 0.61983 0.0
O166 O 0.29305 0.68603 0.59348 0.0
O167 O 0.27137 0.66304 0.60244 0.0
Co168 Co 0.89713 0.81987 0.66748 0.0
O169 O 0.92431 0.82271 0.65921 0.0
O170 O 0.90504 0.84771 0.66973 0.0
C171 C 0.90151 0.79325 0.68786 0.0
O172 O 0.86869 0.82227 0.67797 0.0
Co173 Co 0.87368 0.78132 0.6558 0.0
O174 O 0.85255 0.793 0.67322 0.0
C175 C 0.88481 0.81072 0.62462 0.0
C176 C 0.92237 0.84162 0.66348 0.0
C177 C 0.85337 0.81085 0.68016 0.0
O178 O 0.8884 0.82374 0.63853 0.0
O179 O 0.88098 0.79227 0.62838 0.0
O180 O 0.90541 0.81123 0.69434 0.0
O181 O 0.89728 0.79181 0.66879 0.0
Co182 Co 0.6025 0.17846 0.16655 0.0
O183 O 0.57479 0.18317 0.16204 0.0
O184 O 0.58846 0.15308 0.1653 0.0
C185 C 0.60669 0.20126 0.19126 0.0
O186 O 0.63047 0.1683 0.1725 0.0
Co187 Co 0.63237 0.21275 0.15671 0.0
O188 O 0.65163 0.19444 0.16989 0.0
C189 C 0.61496 0.18959 0.12335 0.0
C190 C 0.5725 0.16385 0.1628 0.0
C191 C 0.64787 0.17619 0.1743 0.0
O192 O 0.60737 0.17745 0.13639 0.0
O193 O 0.62401 0.20573 0.12838 0.0
O194 O 0.59919 0.18377 0.19535 0.0
O195 O 0.60901 0.20525 0.17218 0.0
Co196 Co 0.39652 0.68302 0.33049 0.0
O197 O 0.42408 0.687 0.33675 0.0
O198 O 0.41009 0.65742 0.33122 0.0
C199 C 0.39454 0.70717 0.3067 0.0
O200 O 0.36888 0.67319 0.32251 0.0
Co201 Co 0.36559 0.71697 0.33816 0.0
O202 O 0.34791 0.6995 0.32194 0.0
C203 C 0.38012 0.69255 0.3725 0.0
C204 C 0.42612 0.66772 0.33484 0.0
C205 C 0.35185 0.68111 0.31846 0.0
O206 O 0.38988 0.68112 0.3603 0.0
O207 O 0.37067 0.70823 0.36676 0.0
O208 O 0.40167 0.68963 0.30217 0.0
O209 O 0.3907 0.71015 0.32568 0.0
Co210 Co 0.10487 0.31778 0.83061 0.0
O211 O 0.07709 0.3138 0.83595 0.0
O212 O 0.09136 0.34339 0.83116 0.0
C213 C 0.10802 0.29384 0.80679 0.0
O214 O 0.13276 0.32758 0.82357 0.0
Co215 Co 0.13524 0.28375 0.83999 0.0
O216 O 0.15445 0.30194 0.82657 0.0
C217 C 0.11788 0.3071 0.87348 0.0
C218 C 0.07522 0.33313 0.83444 0.0
C219 C 0.15029 0.32 0.82179 0.0
O220 O 0.11034 0.31951 0.86065 0.0
O221 O 0.12672 0.29091 0.86819 0.0
O222 O 0.10081 0.31131 0.80209 0.0
O223 O 0.11096 0.29073 0.82591 0.0
Co224 Co 0.66003 0.87399 0.83605 0.0
O225 O 0.63488 0.87553 0.84964 0.0
O226 O 0.63952 0.881 0.81677 0.0
C227 C 0.6702 0.84473 0.84955 0.0
O228 O 0.68382 0.87287 0.81685 0.0
Co229 Co 0.69863 0.87604 0.862 0.0
O230 O 0.71179 0.87083 0.83557 0.0
C231 C 0.67477 0.91228 0.85608 0.0
C232 C 0.62731 0.87992 0.83207 0.0
C233 C 0.70282 0.87097 0.81852 0.0
O234 O 0.66496 0.90326 0.84204 0.0
O235 O 0.68737 0.90336 0.86749 0.0
O236 O 0.65791 0.8448 0.83436 0.0
O237 O 0.67382 0.86207 0.85751 0.0
Co238 Co 0.83641 0.12157 0.33478 0.0
O239 O 0.86245 0.12002 0.34647 0.0
O240 O 0.85484 0.11054 0.31517 0.0
C241 C 0.82914 0.15306 0.34469 0.0
O242 O 0.81136 0.12175 0.31734 0.0
Co243 Co 0.79947 0.12675 0.36291 0.0
O244 O 0.78548 0.13114 0.33686 0.0
C245 C 0.81823 0.08701 0.35896 0.0
C246 C 0.86827 0.11273 0.32919 0.0
C247 C 0.793 0.12676 0.31965 0.0
O248 O 0.83016 0.09384 0.34534 0.0
O249 O 0.80575 0.09794 0.36859 0.0
O250 O 0.83999 0.15004 0.32865 0.0
O251 O 0.8252 0.13728 0.35534 0.0
Co252 Co 0.16288 0.61962 0.16569 0.0
O253 O 0.13803 0.62045 0.15147 0.0
O254 O 0.14175 0.61128 0.18367 0.0
C255 C 0.17447 0.6498 0.156 0.0
O256 O 0.18613 0.61749 0.18538 0.0
Co257 Co 0.20218 0.61911 0.14065 0.0
O258 O 0.21489 0.61915 0.16776 0.0
C259 C 0.17723 0.5831 0.14207 0.0
C260 C 0.13003 0.61425 0.16827 0.0
C261 C 0.20524 0.61777 0.18436 0.0
O262 O 0.16686 0.59111 0.15633 0.0
O263 O 0.19077 0.5926 0.13238 0.0
O264 O 0.16177 0.64846 0.1708 0.0
O265 O 0.17768 0.63339 0.14608 0.0
Co266 Co 0.33726 0.37239 0.65981 0.0
O267 O 0.36282 0.37286 0.647 0.0
O268 O 0.35657 0.38443 0.67788 0.0
C269 C 0.32983 0.34044 0.65199 0.0
O270 O 0.31291 0.37359 0.67825 0.0
Co271 Co 0.29924 0.36569 0.63389 0.0
O272 O 0.28591 0.36384 0.66065 0.0
C273 C 0.31847 0.40541 0.63409 0.0
C274 C 0.36944 0.3811 0.6635 0.0
C275 C 0.29433 0.36907 0.67715 0.0
O276 O 0.33082 0.39943 0.64772 0.0
O277 O 0.30562 0.39392 0.62575 0.0
O278 O 0.34086 0.34438 0.66767 0.0
O279 O 0.32536 0.35554 0.64059 0.0
Co280 Co 0.83706 0.65438 0.88025 0.0
O281 O 0.85083 0.6295 0.8843 0.0
O282 O 0.81823 0.63366 0.8874 0.0
C283 C 0.85189 0.66295 0.85089 0.0
O284 O 0.81771 0.67769 0.8766 0.0
Co285 Co 0.8605 0.69469 0.88003 0.0
O286 O 0.83522 0.70555 0.86938 0.0
C287 C 0.85163 0.67469 0.91893 0.0
C288 C 0.83353 0.62174 0.88807 0.0
C289 C 0.81877 0.69623 0.8711 0.0
O290 O 0.84118 0.66135 0.90971 0.0
O291 O 0.86134 0.6885 0.90977 0.0
O292 O 0.83716 0.65036 0.85091 0.0
O293 O 0.85847 0.66806 0.86857 0.0
Co294 Co 0.33297 0.84424 0.11071 0.0
O295 O 0.34464 0.87018 0.10715 0.0
O296 O 0.31264 0.86321 0.10285 0.0
C297 C 0.34722 0.83661 0.14054 0.0
O298 O 0.31577 0.8193 0.11378 0.0
Co299 Co 0.36046 0.80663 0.111 0.0
O300 O 0.33576 0.79284 0.11975 0.0
C301 C 0.35305 0.82816 0.0729 0.0
C302 C 0.32691 0.87638 0.10265 0.0
C303 C 0.31853 0.80074 0.1185 0.0
O304 O 0.33879 0.83782 0.08146 0.0
O305 O 0.36485 0.81652 0.08257 0.0
O306 O 0.33157 0.84802 0.14004 0.0
O307 O 0.35501 0.83249 0.12311 0.0
Co308 Co 0.16375 0.15297 0.61044 0.0
O309 O 0.14835 0.12878 0.60824 0.0
O310 O 0.18041 0.13143 0.60093 0.0
C311 C 0.15274 0.16249 0.64123 0.0
O312 O 0.18489 0.17477 0.61175 0.0
Co313 Co 0.14419 0.1951 0.61361 0.0
O314 O 0.17056 0.20223 0.62512 0.0
C315 C 0.14541 0.17412 0.57409 0.0
C316 C 0.16467 0.1202 0.60221 0.0
C317 C 0.18588 0.19196 0.62054 0.0
O318 O 0.15655 0.16035 0.58172 0.0
O319 O 0.13806 0.18853 0.58457 0.0
O320 O 0.16665 0.14903 0.63972 0.0
O321 O 0.14475 0.16804 0.62432 0.0
Co322 Co 0.66526 0.34354 0.38625 0.0
O323 O 0.65077 0.36826 0.38792 0.0
O324 O 0.68319 0.36511 0.39323 0.0
C325 C 0.65267 0.33252 0.35673 0.0
O326 O 0.68516 0.32058 0.38494 0.0
Co327 Co 0.642 0.30311 0.38795 0.0
O328 O 0.66852 0.29126 0.38243 0.0
C329 C 0.64555 0.32801 0.4244 0.0
C330 C 0.66763 0.37667 0.39225 0.0
C331 C 0.68459 0.3014 0.38262 0.0
O332 O 0.65944 0.3382 0.41582 0.0
O333 O 0.6351 0.31491 0.41504 0.0
O334 O 0.66692 0.34567 0.35675 0.0
O335 O 0.64496 0.32862 0.37425 0.0
H336 H 0.20396 0.3264 0.18676 0.0
H337 H 0.18382 0.31113 0.21349 0.0
H338 H 0.14861 0.28077 0.16813 0.0
H339 H 0.16813 0.29676 0.14135 0.0
H340 H 0.12536 0.29378 0.19662 0.0
H341 H 0.18665 0.25658 0.19548 0.0
H342 H 0.22316 0.25336 0.19597 0.0
H343 H 0.22494 0.27981 0.25539 0.0
H344 H 0.18844 0.2834 0.25514 0.0
H345 H 0.09109 0.21117 0.2567 0.0
H346 H 0.10639 0.23357 0.23178 0.0
H347 H 0.13019 0.26989 0.2802 0.0
H348 H 0.11467 0.24774 0.30525 0.0
H349 H 0.15868 0.25571 0.25168 0.0
H350 H 0.09558 0.28953 0.25275 0.0
H351 H 0.05908 0.29186 0.25068 0.0
H352 H 0.06065 0.26903 0.18974 0.0
H353 H 0.09716 0.26629 0.19154 0.0
C354 C 0.19192 0.31647 0.18252 0.0
C355 C 0.18766 0.31265 0.16201 0.0
C356 C 0.18045 0.30772 0.19778 0.0
C357 C 0.16492 0.29452 0.19282 0.0
C358 C 0.16051 0.2909 0.17232 0.0
C359 C 0.1717 0.29998 0.15704 0.0
C360 C 0.15348 0.28419 0.20894 0.0
C361 C 0.13264 0.28529 0.20854 0.0
C362 C 0.16299 0.27337 0.22468 0.0
C363 C 0.18485 0.27048 0.22519 0.0
C364 C 0.19484 0.26177 0.20862 0.0
C365 C 0.21553 0.25989 0.20885 0.0
C366 C 0.22637 0.26653 0.22564 0.0
C367 C 0.21652 0.27477 0.24236 0.0
C368 C 0.19584 0.2767 0.2422 0.0
C369 C 0.09928 0.22413 0.26204 0.0
C370 C 0.10186 0.22761 0.2829 0.0
C371 C 0.10796 0.23692 0.24779 0.0
C372 C 0.11941 0.2533 0.25422 0.0
C373 C 0.1214 0.25726 0.27502 0.0
C374 C 0.11252 0.24462 0.28927 0.0
C375 C 0.13063 0.26524 0.23924 0.0
C376 C 0.15144 0.26434 0.23983 0.0
C377 C 0.12107 0.27588 0.22347 0.0
C378 C 0.09911 0.27754 0.22235 0.0
C379 C 0.08814 0.28483 0.23897 0.0
C380 C 0.06744 0.28627 0.23783 0.0
C381 C 0.05755 0.28055 0.22011 0.0
C382 C 0.06834 0.27343 0.20347 0.0
C383 C 0.08903 0.27196 0.20453 0.0
H384 H 0.04153 0.28168 0.21926 0.0
H385 H 0.24239 0.26529 0.22572 0.0
H386 H 0.38413 0.79014 0.75873 0.0
H387 H 0.36835 0.76729 0.73445 0.0
H388 H 0.37938 0.71742 0.77463 0.0
H389 H 0.39458 0.74034 0.79935 0.0
H390 H 0.38756 0.71147 0.72973 0.0
H391 H 0.33872 0.72974 0.77836 0.0
H392 H 0.3189 0.75217 0.80014 0.0
H393 H 0.29525 0.78147 0.74739 0.0
H394 H 0.31544 0.7596 0.72524 0.0
H395 H 0.28765 0.66802 0.68518 0.0
H396 H 0.3067 0.68314 0.71283 0.0
H397 H 0.3505 0.70388 0.66978 0.0
H398 H 0.33193 0.68829 0.64222 0.0
H399 H 0.31492 0.72032 0.72005 0.0
H400 H 0.39572 0.70679 0.69111 0.0
H401 H 0.41445 0.68107 0.67214 0.0
H402 H 0.37234 0.63614 0.69042 0.0
H403 H 0.35352 0.66151 0.70973 0.0
C404 C 0.38353 0.77425 0.76219 0.0
C405 C 0.39057 0.76691 0.78082 0.0
C406 C 0.37446 0.76128 0.7484 0.0
C407 C 0.37271 0.74077 0.75288 0.0
C408 C 0.38067 0.73323 0.77098 0.0
C409 C 0.38929 0.74628 0.78503 0.0
C410 C 0.36141 0.72754 0.73917 0.0
C411 C 0.37168 0.71332 0.72755 0.0
C412 C 0.34064 0.72964 0.73695 0.0
C413 C 0.32885 0.74322 0.75015 0.0
C414 C 0.32957 0.74118 0.77139 0.0
C415 C 0.31819 0.75373 0.7838 0.0
C416 C 0.30582 0.76819 0.77514 0.0
C417 C 0.30483 0.77021 0.75405 0.0
C418 C 0.3163 0.7578 0.74156 0.0
C419 C 0.30143 0.67565 0.68164 0.0
C420 C 0.30834 0.67689 0.66154 0.0
C421 C 0.31229 0.68428 0.69744 0.0
C422 C 0.33015 0.69441 0.6934 0.0
C423 C 0.33701 0.69573 0.67333 0.0
C424 C 0.32631 0.6869 0.65757 0.0
C425 C 0.34111 0.70452 0.70999 0.0
C426 C 0.33078 0.71828 0.72219 0.0
C427 C 0.36173 0.70155 0.7131 0.0
C428 C 0.37312 0.68612 0.70174 0.0
C429 C 0.39052 0.6914 0.69117 0.0
C430 C 0.40114 0.67688 0.68034 0.0
C431 C 0.39456 0.65699 0.68003 0.0
C432 C 0.37738 0.65156 0.69061 0.0
C433 C 0.36672 0.66602 0.70148 0.0
H434 H 0.4028 0.64578 0.67162 0.0
H435 H 0.29714 0.77793 0.78479 0.0
H436 H 0.60978 0.29596 0.74038 0.0
H437 H 0.62472 0.2742 0.76618 0.0
H438 H 0.61704 0.223 0.72689 0.0
H439 H 0.60254 0.24477 0.70079 0.0
H440 H 0.60723 0.21652 0.76991 0.0
H441 H 0.65821 0.24129 0.72563 0.0
H442 H 0.67903 0.26582 0.70747 0.0
H443 H 0.69717 0.29166 0.76423 0.0
H444 H 0.6759 0.26772 0.78272 0.0
H445 H 0.7074 0.17397 0.81287 0.0
H446 H 0.68692 0.18948 0.78663 0.0
H447 H 0.64399 0.20704 0.83194 0.0
H448 H 0.66425 0.19124 0.8583 0.0
H449 H 0.67863 0.2284 0.78434 0.0
H450 H 0.59787 0.2099 0.80866 0.0
H451 H 0.57939 0.18252 0.8254 0.0
H452 H 0.62337 0.14005 0.80573 0.0
H453 H 0.64196 0.16711 0.78864 0.0
C454 C 0.61098 0.28002 0.73739 0.0
C455 C 0.60509 0.272 0.71862 0.0
C456 C 0.61954 0.26765 0.75208 0.0
C457 C 0.62199 0.24708 0.74832 0.0
C458 C 0.61519 0.23886 0.73002 0.0
C459 C 0.60701 0.25129 0.71514 0.0
C460 C 0.63295 0.23444 0.76288 0.0
C461 C 0.62282 0.2191 0.77317 0.0
C462 C 0.65336 0.23767 0.76673 0.0
C463 C 0.66519 0.25289 0.75556 0.0
C464 C 0.66626 0.25249 0.73423 0.0
C465 C 0.6782 0.26627 0.72387 0.0
C466 C 0.68934 0.28036 0.73468 0.0
C467 C 0.68844 0.28081 0.75586 0.0
C468 C 0.6764 0.26719 0.76628 0.0
C469 C 0.69352 0.18099 0.81724 0.0
C470 C 0.68752 0.18157 0.83766 0.0
C471 C 0.68183 0.18979 0.80223 0.0
C472 C 0.66397 0.19937 0.80736 0.0
C473 C 0.65763 0.1995 0.82765 0.0
C474 C 0.66926 0.19056 0.84269 0.0
C475 C 0.65289 0.21062 0.79169 0.0
C476 C 0.66301 0.2258 0.7812 0.0
C477 C 0.63258 0.20703 0.78752 0.0
C478 C 0.6214 0.19059 0.79755 0.0
C479 C 0.60355 0.19471 0.80785 0.0
C480 C 0.59307 0.17924 0.8174 0.0
C481 C 0.60024 0.15957 0.81669 0.0
C482 C 0.61788 0.15531 0.80635 0.0
C483 C 0.62841 0.17071 0.79675 0.0
H484 H 0.59211 0.14762 0.82411 0.0
H485 H 0.69883 0.2908 0.72666 0.0
H486 H 0.88243 0.75272 0.19041 0.0
H487 H 0.86743 0.77246 0.21753 0.0
H488 H 0.89603 0.73484 0.26218 0.0
H489 H 0.91038 0.71446 0.23502 0.0
H490 H 0.85891 0.73803 0.27098 0.0
H491 H 0.9095 0.78526 0.254 0.0
H492 H 0.92991 0.80687 0.23189 0.0
H493 H 0.87793 0.83992 0.21426 0.0
H494 H 0.85715 0.81833 0.23607 0.0
H495 H 0.83428 0.80013 0.35539 0.0
H496 H 0.85372 0.78434 0.32841 0.0
H497 H 0.81287 0.80725 0.28366 0.0
H498 H 0.79301 0.82286 0.31064 0.0
H499 H 0.85683 0.81233 0.27572 0.0
H500 H 0.80663 0.76304 0.29262 0.0
H501 H 0.78751 0.74184 0.31632 0.0
H502 H 0.84131 0.71301 0.33574 0.0
H503 H 0.86079 0.73429 0.31239 0.0
C504 C 0.88574 0.7488 0.20599 0.0
C505 C 0.89738 0.7319 0.21061 0.0
C506 C 0.87726 0.7602 0.22151 0.0
C507 C 0.88066 0.7552 0.24193 0.0
C508 C 0.89312 0.73892 0.24654 0.0
C509 C 0.90137 0.72734 0.23102 0.0
C510 C 0.86987 0.76582 0.25836 0.0
C511 C 0.85879 0.75427 0.27218 0.0
C512 C 0.86929 0.78703 0.25971 0.0
C513 C 0.88174 0.80004 0.24654 0.0
C514 C 0.90239 0.79703 0.24528 0.0
C515 C 0.91403 0.8093 0.23283 0.0
C516 C 0.90522 0.82473 0.22164 0.0
C517 C 0.88474 0.82795 0.22292 0.0
C518 C 0.87302 0.81571 0.23534 0.0
C519 C 0.82945 0.8019 0.33981 0.0
C520 C 0.81211 0.81271 0.3351 0.0
C521 C 0.84057 0.79286 0.32445 0.0
C522 C 0.83467 0.79471 0.30415 0.0
C523 C 0.81761 0.80577 0.2993 0.0
C524 C 0.80626 0.81454 0.3147 0.0
C525 C 0.84608 0.78449 0.28809 0.0
C526 C 0.85716 0.7961 0.27443 0.0
C527 C 0.8469 0.76334 0.28701 0.0
C528 C 0.83519 0.75042 0.30093 0.0
C529 C 0.81441 0.75232 0.30209 0.0
C530 C 0.8035 0.74026 0.31543 0.0
C531 C 0.8132 0.72613 0.32757 0.0
C532 C 0.83382 0.72399 0.32635 0.0
C533 C 0.8448 0.73603 0.31306 0.0
H534 H 0.80472 0.71682 0.33789 0.0
H535 H 0.91426 0.83421 0.21201 0.0
H536 H 0.26988 0.08781 0.21948 0.0
H537 H 0.24239 0.10222 0.2387 0.0
H538 H 0.28346 0.13991 0.27148 0.0
H539 H 0.31125 0.12492 0.25272 0.0
H540 H 0.25234 0.12834 0.29546 0.0
H541 H 0.26172 0.15759 0.23055 0.0
H542 H 0.26676 0.15769 0.19355 0.0
H543 H 0.20922 0.13132 0.18488 0.0
H544 H 0.20396 0.1306 0.22195 0.0
H545 H 0.17846 0.2035 0.31634 0.0
H546 H 0.20813 0.1868 0.30318 0.0
H547 H 0.17156 0.14079 0.27633 0.0
H548 H 0.14171 0.15725 0.28963 0.0
H549 H 0.20173 0.15869 0.25 0.0
H550 H 0.19429 0.12912 0.31706 0.0
H551 H 0.19078 0.13085 0.35428 0.0
H552 H 0.24651 0.16194 0.35857 0.0
H553 H 0.2502 0.16065 0.32132 0.0
C554 C 0.27312 0.09886 0.23109 0.0
C555 C 0.29262 0.10557 0.23434 0.0
C556 C 0.2574 0.1071 0.24202 0.0
C557 C 0.26086 0.12252 0.25608 0.0
C558 C 0.28049 0.12814 0.26055 0.0
C559 C 0.29632 0.11962 0.24979 0.0
C560 C 0.24387 0.13394 0.26445 0.0
C561 C 0.24139 0.13516 0.28555 0.0
C562 C 0.22966 0.14296 0.25145 0.0
C563 C 0.23253 0.14382 0.22909 0.0
C564 C 0.25022 0.15158 0.2208 0.0
C565 C 0.25316 0.15169 0.1998 0.0
C566 C 0.23841 0.14438 0.18687 0.0
C567 C 0.22066 0.13694 0.19492 0.0
C568 C 0.21769 0.13666 0.21594 0.0
C569 C 0.17668 0.18983 0.30763 0.0
C570 C 0.15771 0.18166 0.30405 0.0
C571 C 0.19366 0.1803 0.3002 0.0
C572 C 0.19197 0.16257 0.28891 0.0
C573 C 0.1731 0.15448 0.28507 0.0
C574 C 0.1561 0.16385 0.29274 0.0
C575 C 0.20991 0.15251 0.28096 0.0
C576 C 0.21267 0.15179 0.25989 0.0
C577 C 0.22455 0.14438 0.29399 0.0
C578 C 0.22242 0.14496 0.31639 0.0
C579 C 0.20571 0.13647 0.32592 0.0
C580 C 0.20371 0.13734 0.34703 0.0
C581 C 0.21839 0.14655 0.35878 0.0
C582 C 0.23514 0.15484 0.34945 0.0
C583 C 0.2372 0.15402 0.32834 0.0
H584 H 0.2168 0.14722 0.37512 0.0
H585 H 0.24068 0.14461 0.1706 0.0
H586 H 0.33804 0.83906 0.82114 0.0
H587 H 0.30991 0.85846 0.80751 0.0
H588 H 0.30738 0.81899 0.7557 0.0
H589 H 0.33534 0.79947 0.76939 0.0
H590 H 0.30803 0.86994 0.75408 0.0
H591 H 0.27205 0.80592 0.77599 0.0
H592 H 0.26475 0.78129 0.8031 0.0
H593 H 0.25108 0.82932 0.84428 0.0
H594 H 0.25821 0.85415 0.81737 0.0
H595 H 0.2265 0.87965 0.69135 0.0
H596 H 0.25425 0.86916 0.71236 0.0
H597 H 0.22107 0.88456 0.76631 0.0
H598 H 0.19256 0.8941 0.74508 0.0
H599 H 0.23893 0.85168 0.77297 0.0
H600 H 0.26175 0.91394 0.74838 0.0
H601 H 0.26871 0.94087 0.72371 0.0
H602 H 0.30901 0.90215 0.69175 0.0
H603 H 0.30209 0.87486 0.71604 0.0
C604 C 0.33151 0.83469 0.80678 0.0
C605 C 0.33854 0.81776 0.79631 0.0
C606 C 0.31549 0.84567 0.79911 0.0
C607 C 0.30662 0.83997 0.78075 0.0
C608 C 0.31403 0.82343 0.76999 0.0
C609 C 0.32984 0.8123 0.7778 0.0
C610 C 0.28951 0.85115 0.77266 0.0
C611 C 0.29288 0.86604 0.75808 0.0
C612 C 0.26994 0.84664 0.77874 0.0
C613 C 0.2658 0.83179 0.79482 0.0
C614 C 0.26759 0.81116 0.79088 0.0
C615 C 0.26345 0.7972 0.80617 0.0
C616 C 0.25757 0.80374 0.82542 0.0
C617 C 0.25569 0.82427 0.82939 0.0
C618 C 0.25973 0.83828 0.81413 0.0
C619 C 0.22514 0.88094 0.70769 0.0
C620 C 0.20749 0.88786 0.71663 0.0
C621 C 0.2411 0.87509 0.71971 0.0
C622 C 0.24005 0.87664 0.74094 0.0
C623 C 0.22232 0.88342 0.74996 0.0
C624 C 0.20608 0.88887 0.73787 0.0
C625 C 0.25721 0.8701 0.75346 0.0
C626 C 0.25397 0.85607 0.76903 0.0
C627 C 0.27695 0.8759 0.74864 0.0
C628 C 0.28132 0.8923 0.73401 0.0
C629 C 0.27201 0.91111 0.73602 0.0
C630 C 0.27596 0.92645 0.72211 0.0
C631 C 0.28928 0.92321 0.70616 0.0
C632 C 0.29871 0.90464 0.70412 0.0
C633 C 0.2948 0.88924 0.71798 0.0
H634 H 0.29231 0.93511 0.6954 0.0
H635 H 0.2544 0.79291 0.83723 0.0
H636 H 0.80948 0.36917 0.74828 0.0
H637 H 0.78076 0.35879 0.72826 0.0
H638 H 0.74571 0.40584 0.75577 0.0
H639 H 0.77408 0.41526 0.77682 0.0
H640 H 0.72622 0.37423 0.75825 0.0
H641 H 0.76032 0.4046 0.70272 0.0
H642 H 0.78829 0.41182 0.67964 0.0
H643 H 0.78986 0.35 0.66126 0.0
H644 H 0.76208 0.34235 0.68443 0.0
H645 H 0.64187 0.34609 0.70016 0.0
H646 H 0.67014 0.36637 0.71133 0.0
H647 H 0.70997 0.31765 0.69698 0.0
H648 H 0.68194 0.29742 0.68553 0.0
H649 H 0.72528 0.35422 0.68575 0.0
H650 H 0.6932 0.32448 0.7445 0.0
H651 H 0.66464 0.31797 0.76712 0.0
H652 H 0.65902 0.38115 0.77868 0.0
H653 H 0.68733 0.38799 0.75584 0.0
C654 C 0.79573 0.37747 0.74979 0.0
C655 C 0.79388 0.39287 0.76419 0.0
C656 C 0.77932 0.37165 0.7382 0.0
C657 C 0.761 0.38162 0.74033 0.0
C658 C 0.75959 0.39781 0.75391 0.0
C659 C 0.77581 0.40323 0.76589 0.0
C660 C 0.74284 0.37384 0.73019 0.0
C661 C 0.72595 0.37037 0.74225 0.0
C662 C 0.74246 0.36833 0.70941 0.0
C663 C 0.75919 0.37288 0.69544 0.0
C664 C 0.76672 0.39252 0.69387 0.0
C665 C 0.78252 0.39669 0.68075 0.0
C666 C 0.79087 0.38137 0.66902 0.0
C667 C 0.78339 0.36185 0.67036 0.0
C668 C 0.76759 0.35759 0.68346 0.0
C669 C 0.65666 0.33974 0.69925 0.0
C670 C 0.65963 0.32002 0.69227 0.0
C671 C 0.67278 0.35135 0.70563 0.0
C672 C 0.69209 0.34341 0.70516 0.0
C673 C 0.69517 0.32405 0.69747 0.0
C674 C 0.67909 0.31242 0.69115 0.0
C675 C 0.70902 0.35464 0.71389 0.0
C676 C 0.72561 0.35859 0.70161 0.0
C677 C 0.70909 0.36084 0.73441 0.0
C678 C 0.69222 0.35672 0.74831 0.0
C679 C 0.68577 0.33695 0.75177 0.0
C680 C 0.66965 0.33321 0.76463 0.0
C681 C 0.66 0.34914 0.7743 0.0
C682 C 0.66649 0.36883 0.77115 0.0
C683 C 0.68256 0.37264 0.75825 0.0
H684 H 0.64753 0.34623 0.78425 0.0
H685 H 0.80311 0.38464 0.65887 0.0
H686 H 0.85587 0.65474 0.18754 0.0
H687 H 0.82775 0.63562 0.20093 0.0
H688 H 0.79722 0.69088 0.21492 0.0
H689 H 0.82497 0.71006 0.20124 0.0
H690 H 0.81149 0.63304 0.23682 0.0
H691 H 0.74827 0.68616 0.20803 0.0
H692 H 0.74152 0.7078 0.17844 0.0
H693 H 0.78226 0.67325 0.14241 0.0
H694 H 0.78902 0.65121 0.17166 0.0
H695 H 0.72715 0.62078 0.29689 0.0
H696 H 0.75553 0.63272 0.27737 0.0
H697 H 0.72621 0.61532 0.22177 0.0
H698 H 0.69709 0.60457 0.24141 0.0
H699 H 0.74246 0.64847 0.21547 0.0
H700 H 0.76719 0.58794 0.24362 0.0
H701 H 0.7743 0.56282 0.27014 0.0
H702 H 0.81111 0.60534 0.30149 0.0
H703 H 0.80401 0.63081 0.27531 0.0
C704 C 0.84318 0.66283 0.19348 0.0
C705 C 0.84261 0.68394 0.19318 0.0
C706 C 0.82712 0.65187 0.20112 0.0
C707 C 0.81025 0.66182 0.20859 0.0
C708 C 0.80988 0.68288 0.20878 0.0
C709 C 0.82583 0.69383 0.20104 0.0
C710 C 0.7931 0.65032 0.21659 0.0
C711 C 0.79639 0.63629 0.23208 0.0
C712 C 0.77347 0.65405 0.20988 0.0
C713 C 0.76927 0.66712 0.19212 0.0
C714 C 0.75571 0.68311 0.19377 0.0
C715 C 0.7519 0.69546 0.17705 0.0
C716 C 0.7615 0.69193 0.15857 0.0
C717 C 0.77488 0.67601 0.15675 0.0
C718 C 0.77873 0.66359 0.1734 0.0
C719 C 0.72684 0.61937 0.28051 0.0
C720 C 0.71009 0.61159 0.2706 0.0
C721 C 0.74313 0.62607 0.26934 0.0
C722 C 0.74332 0.62443 0.24808 0.0
C723 C 0.7265 0.61665 0.23816 0.0
C724 C 0.70992 0.61046 0.24934 0.0
C725 C 0.76075 0.63168 0.23631 0.0
C726 C 0.75754 0.64494 0.22006 0.0
C727 C 0.7805 0.62665 0.24182 0.0
C728 C 0.78498 0.61132 0.25753 0.0
C729 C 0.77672 0.59197 0.25622 0.0
C730 C 0.78076 0.57766 0.27119 0.0
C731 C 0.79313 0.58249 0.2875 0.0
C732 C 0.80153 0.60162 0.28885 0.0
C733 C 0.79753 0.61598 0.27392 0.0
H734 H 0.79622 0.5714 0.29909 0.0
H735 H 0.75854 0.70152 0.14566 0.0
H736 H 0.3148 0.183 0.21219 0.0
H737 H 0.2995 0.21113 0.19464 0.0
H738 H 0.2868 0.1731 0.14327 0.0
H739 H 0.30291 0.14488 0.16045 0.0
H740 H 0.30141 0.20769 0.13091 0.0
H741 H 0.23979 0.19432 0.17118 0.0
H742 H 0.22214 0.18536 0.20282 0.0
H743 H 0.25574 0.22954 0.23552 0.0
H744 H 0.27272 0.23955 0.20379 0.0
H745 H 0.22426 0.27125 0.08917 0.0
H746 H 0.243 0.24367 0.10458 0.0
H747 H 0.27149 0.28544 0.14518 0.0
H748 H 0.25334 0.31323 0.12938 0.0
H749 H 0.2489 0.24943 0.16285 0.0
H750 H 0.30017 0.26848 0.11507 0.0
H751 H 0.31328 0.2763 0.08101 0.0
H752 H 0.29704 0.21744 0.0603 0.0
H753 H 0.28355 0.20937 0.09418 0.0
C754 C 0.3087 0.18052 0.19719 0.0
C755 C 0.3101 0.16164 0.18774 0.0
C756 C 0.29971 0.19662 0.18726 0.0
C757 C 0.29152 0.19413 0.16785 0.0
C758 C 0.29291 0.17533 0.15831 0.0
C759 C 0.30216 0.15923 0.16814 0.0
C760 C 0.28256 0.21149 0.15713 0.0
C761 C 0.28978 0.21667 0.13781 0.0
C762 C 0.26757 0.2234 0.16616 0.0
C763 C 0.25768 0.21744 0.18527 0.0
C764 C 0.24336 0.20212 0.18514 0.0
C765 C 0.23336 0.19699 0.20302 0.0
C766 C 0.23794 0.20675 0.2212 0.0
C767 C 0.25226 0.22194 0.22144 0.0
C768 C 0.26188 0.22753 0.20348 0.0
C769 C 0.23481 0.27461 0.10111 0.0
C770 C 0.23725 0.29437 0.10818 0.0
C771 C 0.24547 0.25887 0.10988 0.0
C772 C 0.25848 0.2626 0.12603 0.0
C773 C 0.26144 0.28235 0.13272 0.0
C774 C 0.25112 0.29819 0.12364 0.0
C775 C 0.26789 0.24565 0.13678 0.0
C776 C 0.26064 0.24051 0.15604 0.0
C777 C 0.28255 0.23359 0.12747 0.0
C778 C 0.29065 0.23841 0.1071 0.0
C779 C 0.2992 0.25728 0.1032 0.0
C780 C 0.30675 0.26174 0.08394 0.0
C781 C 0.30594 0.24739 0.06848 0.0
C782 C 0.29763 0.22854 0.07228 0.0
C783 C 0.29005 0.22402 0.09151 0.0
H784 H 0.3118 0.25087 0.05359 0.0
H785 H 0.23035 0.20258 0.23507 0.0
H786 H 0.79967 0.35315 0.83525 0.0
H787 H 0.78417 0.32536 0.85361 0.0
H788 H 0.81027 0.28329 0.81146 0.0
H789 H 0.82501 0.31106 0.79256 0.0
H790 H 0.77398 0.27366 0.81717 0.0
H791 H 0.82757 0.29073 0.86224 0.0
H792 H 0.84782 0.31326 0.88355 0.0
H793 H 0.79691 0.32622 0.92064 0.0
H794 H 0.7763 0.30395 0.8994 0.0
H795 H 0.75689 0.18468 0.87356 0.0
H796 H 0.77465 0.21319 0.8587 0.0
H797 H 0.73729 0.25414 0.89208 0.0
H798 H 0.71919 0.22573 0.90674 0.0
H799 H 0.77893 0.26438 0.89172 0.0
H800 H 0.7256 0.24756 0.84589 0.0
H801 H 0.70537 0.226 0.82356 0.0
H802 H 0.75694 0.21235 0.7877 0.0
H803 H 0.77751 0.2337 0.80993 0.0
C804 C 0.80219 0.33796 0.83 0.0
C805 C 0.81354 0.33428 0.81247 0.0
C806 C 0.79341 0.32206 0.84057 0.0
C807 C 0.79627 0.30216 0.83412 0.0
C808 C 0.80781 0.29849 0.81673 0.0
C809 C 0.81625 0.31438 0.80595 0.0
C810 C 0.78663 0.28515 0.84489 0.0
C811 C 0.77539 0.27149 0.83343 0.0
C812 C 0.78794 0.28257 0.86621 0.0
C813 C 0.80036 0.29581 0.87912 0.0
C814 C 0.82067 0.29848 0.87487 0.0
C815 C 0.83221 0.31119 0.88694 0.0
C816 C 0.82365 0.3212 0.90341 0.0
C817 C 0.80353 0.31847 0.90787 0.0
C818 C 0.79191 0.30579 0.89583 0.0
C819 C 0.75257 0.19973 0.8779 0.0
C820 C 0.73653 0.20299 0.89117 0.0
C821 C 0.7627 0.21599 0.86937 0.0
C822 C 0.75711 0.23571 0.87418 0.0
C823 C 0.74176 0.239 0.88818 0.0
C824 C 0.73144 0.22277 0.89649 0.0
C825 C 0.7667 0.25289 0.86388 0.0
C826 C 0.77775 0.26658 0.87545 0.0
C827 C 0.76537 0.25546 0.84263 0.0
C828 C 0.75313 0.24207 0.82969 0.0
C829 C 0.73267 0.23976 0.8334 0.0
C830 C 0.72113 0.22764 0.82072 0.0
C831 C 0.72988 0.2178 0.80424 0.0
C832 C 0.75019 0.21998 0.80047 0.0
C833 C 0.76179 0.2321 0.81309 0.0
H834 H 0.72094 0.20858 0.7943 0.0
H835 H 0.83261 0.33104 0.91273 0.0
H836 H 0.73897 0.81237 0.39062 0.0
H837 H 0.71692 0.78522 0.37954 0.0
H838 H 0.76653 0.7441 0.37993 0.0
H839 H 0.78823 0.77081 0.39191 0.0
H840 H 0.71624 0.76563 0.34679 0.0
H841 H 0.75352 0.6969 0.38672 0.0
H842 H 0.76936 0.68895 0.41949 0.0
H843 H 0.73767 0.73733 0.44791 0.0
H844 H 0.72142 0.74541 0.41538 0.0
H845 H 0.70243 0.67862 0.29021 0.0
H846 H 0.71514 0.70646 0.31031 0.0
H847 H 0.68257 0.68509 0.36249 0.0
H848 H 0.6703 0.65664 0.34254 0.0
H849 H 0.71738 0.6962 0.37403 0.0
H850 H 0.66703 0.72717 0.33499 0.0
H851 H 0.64783 0.73587 0.30437 0.0
H852 H 0.69914 0.76454 0.27864 0.0
H853 H 0.71875 0.75577 0.30899 0.0
C854 C 0.74503 0.79743 0.38866 0.0
C855 C 0.76525 0.79365 0.39224 0.0
C856 C 0.73246 0.78194 0.38229 0.0
C857 C 0.73996 0.76249 0.37917 0.0
C858 C 0.76019 0.75877 0.3828 0.0
C859 C 0.77264 0.77412 0.38953 0.0
C860 C 0.72714 0.74641 0.37064 0.0
C861 C 0.71635 0.7505 0.35289 0.0
C862 C 0.72678 0.72675 0.37885 0.0
C863 C 0.73634 0.72184 0.39855 0.0
C864 C 0.74984 0.70578 0.39998 0.0
C865 C 0.75891 0.70126 0.41851 0.0
C866 C 0.75456 0.71265 0.43576 0.0
C867 C 0.74107 0.72856 0.43452 0.0
C868 C 0.73195 0.73313 0.41603 0.0
C869 C 0.69786 0.67988 0.30593 0.0
C870 C 0.68523 0.66552 0.31475 0.0
C871 C 0.70507 0.69588 0.3174 0.0
C872 C 0.69946 0.69815 0.3378 0.0
C873 C 0.68701 0.68371 0.34674 0.0
C874 C 0.68 0.66748 0.33533 0.0
C875 C 0.70718 0.71532 0.34981 0.0
C876 C 0.71701 0.71142 0.36817 0.0
C877 C 0.70613 0.7353 0.34253 0.0
C878 C 0.69439 0.74071 0.32425 0.0
C879 C 0.67426 0.73523 0.32275 0.0
C880 C 0.6633 0.74018 0.30545 0.0
C881 C 0.67227 0.75073 0.28956 0.0
C882 C 0.69221 0.75638 0.29096 0.0
C883 C 0.70325 0.75144 0.30823 0.0
H884 H 0.66376 0.75455 0.27617 0.0
H885 H 0.76161 0.70914 0.45009 0.0
H886 H 0.1939 0.84753 0.65127 0.0
H887 H 0.2086 0.818 0.63531 0.0
H888 H 0.18281 0.7803 0.68168 0.0
H889 H 0.16883 0.80997 0.69823 0.0
H890 H 0.21885 0.76947 0.67614 0.0
H891 H 0.16488 0.78247 0.63071 0.0
H892 H 0.14379 0.80281 0.60804 0.0
H893 H 0.19375 0.81382 0.56902 0.0
H894 H 0.21521 0.79375 0.59159 0.0
H895 H 0.24216 0.67863 0.62367 0.0
H896 H 0.22193 0.70613 0.63724 0.0
H897 H 0.25679 0.74882 0.60325 0.0
H898 H 0.27732 0.7215 0.58996 0.0
H899 H 0.21431 0.75544 0.60231 0.0
H900 H 0.26821 0.74336 0.64932 0.0
H901 H 0.28883 0.72293 0.67237 0.0
H902 H 0.2375 0.70947 0.70864 0.0
H903 H 0.21649 0.72953 0.6856 0.0
C904 C 0.19117 0.83292 0.65793 0.0
C905 C 0.18015 0.83105 0.67596 0.0
C906 C 0.19952 0.81601 0.64874 0.0
C907 C 0.19656 0.79682 0.65707 0.0
C908 C 0.1853 0.79492 0.67494 0.0
C909 C 0.17727 0.81188 0.68436 0.0
C910 C 0.20597 0.77888 0.6477 0.0
C911 C 0.21749 0.76623 0.66006 0.0
C912 C 0.20459 0.77478 0.62663 0.0
C913 C 0.19168 0.78672 0.61293 0.0
C914 C 0.1714 0.78932 0.61736 0.0
C915 C 0.15937 0.80079 0.60452 0.0
C916 C 0.16743 0.80963 0.58712 0.0
C917 C 0.18753 0.80697 0.5825 0.0
C918 C 0.19962 0.79553 0.5953 0.0
C919 C 0.24538 0.69384 0.61893 0.0
C920 C 0.26141 0.69796 0.60589 0.0
C921 C 0.23384 0.70951 0.62671 0.0
C922 C 0.238 0.72945 0.62133 0.0
C923 C 0.25339 0.7335 0.60757 0.0
C924 C 0.26511 0.7179 0.60005 0.0
C925 C 0.22702 0.74623 0.63079 0.0
C926 C 0.21534 0.75864 0.61843 0.0
C927 C 0.2281 0.75001 0.65187 0.0
C928 C 0.24073 0.73776 0.66559 0.0
C929 C 0.26127 0.73585 0.66207 0.0
C930 C 0.27304 0.72438 0.67516 0.0
C931 C 0.26446 0.71489 0.69194 0.0
C932 C 0.24411 0.71681 0.69563 0.0
C933 C 0.23226 0.72823 0.68256 0.0
H934 H 0.27359 0.70613 0.70214 0.0
H935 H 0.1581 0.81852 0.57721 0.0
H936 H 0.84113 0.6546 0.81178 0.0
H937 H 0.85 0.67362 0.78118 0.0
H938 H 0.88552 0.71381 0.81743 0.0
H939 H 0.8771 0.69477 0.84791 0.0
H940 H 0.85661 0.73265 0.79095 0.0
H941 H 0.9087 0.68181 0.79034 0.0
H942 H 0.92091 0.64692 0.78976 0.0
H943 H 0.88991 0.6364 0.73381 0.0
H944 H 0.87728 0.67118 0.73421 0.0
H945 H 0.9122 0.79232 0.72752 0.0
H946 H 0.90454 0.76631 0.75236 0.0
H947 H 0.87771 0.73018 0.70544 0.0
H948 H 0.88571 0.75611 0.68028 0.0
H949 H 0.89829 0.70726 0.73426 0.0
H950 H 0.84929 0.75804 0.73178 0.0
H951 H 0.83721 0.79288 0.73066 0.0
H952 H 0.859 0.80288 0.79105 0.0
H953 H 0.87199 0.76827 0.79225 0.0
C954 C 0.85099 0.66737 0.81317 0.0
C955 C 0.85835 0.67327 0.83223 0.0
C956 C 0.85602 0.67818 0.79572 0.0
C957 C 0.86832 0.69511 0.79716 0.0
C958 C 0.87592 0.70081 0.8161 0.0
C959 C 0.87113 0.68989 0.83347 0.0
C960 C 0.87288 0.70739 0.77912 0.0
C961 C 0.86582 0.72718 0.77861 0.0
C962 C 0.88419 0.69987 0.7627 0.0
C963 C 0.89185 0.67901 0.76244 0.0
C964 C 0.90433 0.672 0.77801 0.0
C965 C 0.91136 0.65226 0.77769 0.0
C966 C 0.90613 0.63943 0.76179 0.0
C967 C 0.89391 0.64634 0.74614 0.0
C968 C 0.88682 0.66607 0.7464 0.0
C969 C 0.90495 0.77871 0.72241 0.0
C970 C 0.89924 0.77636 0.70207 0.0
C971 C 0.9006 0.76387 0.7366 0.0
C972 C 0.89024 0.74655 0.73075 0.0
C973 C 0.88565 0.74352 0.71021 0.0
C974 C 0.89014 0.75836 0.69592 0.0
C975 C 0.88265 0.73275 0.74649 0.0
C976 C 0.88892 0.71269 0.74649 0.0
C977 C 0.87027 0.7399 0.76231 0.0
C978 C 0.86182 0.76055 0.76202 0.0
C979 C 0.85172 0.7677 0.74476 0.0
C980 C 0.84476 0.78745 0.74408 0.0
C981 C 0.84737 0.80012 0.76076 0.0
C982 C 0.857 0.79305 0.77814 0.0
C983 C 0.86423 0.77337 0.7788 0.0
H984 H 0.84187 0.81538 0.76023 0.0
H985 H 0.9116 0.62414 0.76157 0.0
H986 H 0.63123 0.23397 0.18849 0.0
H987 H 0.64103 0.25668 0.21612 0.0
H988 H 0.60555 0.22237 0.25819 0.0
H989 H 0.59604 0.19948 0.23091 0.0
H990 H 0.59813 0.2647 0.25789 0.0
H991 H 0.65093 0.21723 0.26458 0.0
H992 H 0.6794 0.19622 0.2545 0.0
H993 H 0.71192 0.24887 0.23685 0.0
H994 H 0.68349 0.27021 0.24668 0.0
H995 H 0.62587 0.30205 0.35383 0.0
H996 H 0.61933 0.28076 0.32446 0.0
H997 H 0.66198 0.31439 0.28928 0.0
H998 H 0.66893 0.33558 0.31884 0.0
H999 H 0.66649 0.27389 0.28448 0.0
H1000 H 0.61248 0.32134 0.28189 0.0
H1001 H 0.58418 0.34031 0.29598 0.0
H1002 H 0.5535 0.28517 0.30854 0.0
H1003 H 0.58174 0.26586 0.29477 0.0
C1004 C 0.6256 0.23127 0.20365 0.0
C1005 C 0.6128 0.21506 0.20757 0.0
C1006 C 0.63129 0.24414 0.21939 0.0
C1007 C 0.62402 0.24109 0.23912 0.0
C1008 C 0.61131 0.2249 0.24304 0.0
C1009 C 0.6059 0.21187 0.22744 0.0
C1010 C 0.62869 0.2554 0.25554 0.0
C1011 C 0.61305 0.26665 0.26381 0.0
C1012 C 0.64821 0.25805 0.26295 0.0
C1013 C 0.66496 0.24528 0.25605 0.0
C1014 C 0.66402 0.22431 0.25824 0.0
C1015 C 0.6802 0.21234 0.25267 0.0
C1016 C 0.69744 0.22118 0.24495 0.0
C1017 C 0.69852 0.24202 0.24275 0.0
C1018 C 0.68238 0.25407 0.24832 0.0
C1019 C 0.63378 0.30501 0.33982 0.0
C1020 C 0.64785 0.32053 0.33859 0.0
C1021 C 0.62999 0.29286 0.32304 0.0
C1022 C 0.64001 0.29615 0.30464 0.0
C1023 C 0.65407 0.31165 0.30335 0.0
C1024 C 0.65793 0.32379 0.32018 0.0
C1025 C 0.63591 0.28319 0.28689 0.0
C1026 C 0.65163 0.27218 0.27836 0.0
C1027 C 0.6164 0.28055 0.27938 0.0
C1028 C 0.59928 0.29216 0.28741 0.0
C1029 C 0.59975 0.31326 0.28776 0.0
C1030 C 0.58371 0.32407 0.29568 0.0
C1031 C 0.56707 0.31395 0.30318 0.0
C1032 C 0.5664 0.29299 0.30273 0.0
C1033 C 0.5824 0.28211 0.29484 0.0
H1034 H 0.55468 0.32235 0.30932 0.0
H1035 H 0.70998 0.21189 0.24074 0.0
H1036 H 0.40732 0.70744 0.26754 0.0
H1037 H 0.39952 0.73212 0.2412 0.0
H1038 H 0.36332 0.76509 0.28373 0.0
H1039 H 0.37135 0.74064 0.31033 0.0
H1040 H 0.34542 0.75632 0.24389 0.0
H1041 H 0.40425 0.78486 0.27398 0.0
H1042 H 0.43883 0.78414 0.28628 0.0
H1043 H 0.4593 0.7689 0.22647 0.0
H1044 H 0.42478 0.76924 0.21388 0.0
H1045 H 0.33041 0.83921 0.17819 0.0
H1046 H 0.33872 0.81932 0.20823 0.0
H1047 H 0.38564 0.78995 0.17484 0.0
H1048 H 0.37766 0.81002 0.14491 0.0
H1049 H 0.39761 0.79861 0.21214 0.0
H1050 H 0.34118 0.76685 0.18193 0.0
H1051 H 0.30729 0.76413 0.16809 0.0
H1052 H 0.28293 0.78204 0.22553 0.0
H1053 H 0.31674 0.78498 0.23974 0.0
C1054 C 0.39774 0.71997 0.27129 0.0
C1055 C 0.38995 0.72216 0.29096 0.0
C1056 C 0.39335 0.73404 0.25627 0.0
C1057 C 0.38093 0.75039 0.26062 0.0
C1058 C 0.37295 0.75254 0.28017 0.0
C1059 C 0.3776 0.73862 0.29531 0.0
C1060 C 0.37619 0.76509 0.24459 0.0
C1061 C 0.3567 0.76589 0.23717 0.0
C1062 C 0.39113 0.777 0.23551 0.0
C1063 C 0.41191 0.7769 0.24303 0.0
C1064 C 0.4161 0.78119 0.26349 0.0
C1065 C 0.4357 0.78088 0.27051 0.0
C1066 C 0.45125 0.77643 0.25718 0.0
C1067 C 0.44723 0.77233 0.23679 0.0
C1068 C 0.42766 0.7726 0.2297 0.0
C1069 C 0.34263 0.82867 0.17733 0.0
C1070 C 0.35333 0.82607 0.15919 0.0
C1071 C 0.34728 0.81724 0.19445 0.0
C1072 C 0.36259 0.80295 0.19365 0.0
C1073 C 0.37373 0.80086 0.17576 0.0
C1074 C 0.36913 0.81231 0.15867 0.0
C1075 C 0.3668 0.78985 0.21128 0.0
C1076 C 0.38622 0.78927 0.21898 0.0
C1077 C 0.35186 0.77785 0.22037 0.0
C1078 C 0.33151 0.77639 0.21182 0.0
C1079 C 0.32861 0.77041 0.19156 0.0
C1080 C 0.30941 0.76879 0.18365 0.0
C1081 C 0.29296 0.77302 0.19586 0.0
C1082 C 0.29568 0.77882 0.21606 0.0
C1083 C 0.31487 0.78044 0.22406 0.0
H1084 H 0.27811 0.77172 0.18969 0.0
H1085 H 0.46641 0.7762 0.26264 0.0
H1086 H 0.12531 0.19175 0.64711 0.0
H1087 H 0.12111 0.21309 0.67682 0.0
H1088 H 0.16785 0.18097 0.70764 0.0
H1089 H 0.17227 0.15941 0.67769 0.0
H1090 H 0.1335 0.18798 0.73163 0.0
H1091 H 0.17964 0.22774 0.69127 0.0
H1092 H 0.19207 0.24498 0.66055 0.0
H1093 H 0.13715 0.27722 0.65534 0.0
H1094 H 0.12456 0.26065 0.6863 0.0
H1095 H 0.13232 0.26122 0.81097 0.0
H1096 H 0.14268 0.23776 0.78442 0.0
H1097 H 0.10641 0.26958 0.74098 0.0
H1098 H 0.09677 0.29353 0.76723 0.0
H1099 H 0.14012 0.26184 0.72469 0.0
H1100 H 0.09283 0.22296 0.76289 0.0
H1101 H 0.07865 0.20723 0.79354 0.0
H1102 H 0.13197 0.17273 0.80156 0.0
H1103 H 0.14657 0.18845 0.77107 0.0
C1104 C 0.13468 0.18913 0.66021 0.0
C1105 C 0.14918 0.17395 0.66005 0.0
C1106 C 0.13234 0.20143 0.67712 0.0
C1107 C 0.14443 0.19883 0.69423 0.0
C1108 C 0.1585 0.18328 0.69447 0.0
C1109 C 0.16094 0.17096 0.67742 0.0
C1110 C 0.1419 0.21229 0.71188 0.0
C1111 C 0.13533 0.20411 0.73032 0.0
C1112 C 0.14377 0.23333 0.7099 0.0
C1113 C 0.15112 0.24286 0.69099 0.0
C1114 C 0.17017 0.2384 0.68348 0.0
C1115 C 0.17726 0.24807 0.66607 0.0
C1116 C 0.16534 0.26198 0.6559 0.0
C1117 C 0.14635 0.2664 0.6632 0.0
C1118 C 0.13928 0.25699 0.68075 0.0
C1119 C 0.12654 0.26315 0.79576 0.0
C1120 C 0.11374 0.27916 0.79112 0.0
C1121 C 0.13239 0.24968 0.78062 0.0
C1122 C 0.12515 0.25175 0.76073 0.0
C1123 C 0.11225 0.2677 0.75619 0.0
C1124 C 0.10669 0.28134 0.77121 0.0
C1125 C 0.1312 0.23764 0.74443 0.0
C1126 C 0.1385 0.2457 0.72622 0.0
C1127 C 0.12963 0.21653 0.74654 0.0
C1128 C 0.12088 0.20705 0.76485 0.0
C1129 C 0.10159 0.21214 0.77128 0.0
C1130 C 0.09346 0.2032 0.78861 0.0
C1131 C 0.10442 0.18904 0.79953 0.0
C1132 C 0.12351 0.18373 0.79311 0.0
C1133 C 0.13172 0.19264 0.7758 0.0
H1134 H 0.0981 0.18213 0.81293 0.0
H1135 H 0.17088 0.26942 0.64243 0.0
H1136 H 0.74164 0.88097 0.81369 0.0
H1137 H 0.7632 0.87347 0.78494 0.0
H1138 H 0.71374 0.8471 0.753 0.0
H1139 H 0.69186 0.85476 0.78189 0.0
H1140 H 0.74664 0.82219 0.7552 0.0
H1141 H 0.73295 0.88895 0.73463 0.0
H1142 H 0.72887 0.92554 0.73828 0.0
H1143 H 0.79043 0.93135 0.75427 0.0
H1144 H 0.79484 0.89474 0.75103 0.0
H1145 H 0.81464 0.79964 0.67572 0.0
H1146 H 0.78583 0.81178 0.69461 0.0
H1147 H 0.82392 0.85075 0.72961 0.0
H1148 H 0.85265 0.83938 0.70997 0.0
H1149 H 0.79208 0.87004 0.72091 0.0
H1150 H 0.80298 0.80313 0.7496 0.0
H1151 H 0.80678 0.76622 0.74829 0.0
H1152 H 0.75052 0.76109 0.7181 0.0
H1153 H 0.74637 0.7979 0.71936 0.0
C1154 C 0.73525 0.87383 0.80044 0.0
C1155 C 0.71507 0.86837 0.80007 0.0
C1156 C 0.74757 0.86968 0.78396 0.0
C1157 C 0.74004 0.85987 0.76678 0.0
C1158 C 0.71979 0.85481 0.76609 0.0
C1159 C 0.70732 0.85923 0.78254 0.0
C1160 C 0.75393 0.85332 0.75061 0.0
C1161 C 0.75629 0.83267 0.74731 0.0
C1162 C 0.76675 0.86699 0.74068 0.0
C1163 C 0.76419 0.88904 0.74271 0.0
C1164 C 0.74559 0.89799 0.7391 0.0
C1165 C 0.74322 0.91875 0.74106 0.0
C1166 C 0.75937 0.93076 0.74654 0.0
C1167 C 0.77793 0.92203 0.75003 0.0
C1168 C 0.78038 0.90127 0.74811 0.0
C1169 C 0.81685 0.81084 0.68742 0.0
C1170 C 0.83591 0.81856 0.69137 0.0
C1171 C 0.80037 0.81767 0.69833 0.0
C1172 C 0.80267 0.83193 0.71386 0.0
C1173 C 0.8217 0.83977 0.7177 0.0
C1174 C 0.83813 0.83327 0.70647 0.0
C1175 C 0.78532 0.83883 0.72606 0.0
C1176 C 0.78228 0.85955 0.72855 0.0
C1177 C 0.77191 0.82524 0.73539 0.0
C1178 C 0.77454 0.8032 0.7343 0.0
C1179 C 0.79156 0.79409 0.74251 0.0
C1180 C 0.79374 0.77323 0.74183 0.0
C1181 C 0.77899 0.76136 0.73296 0.0
C1182 C 0.76196 0.77031 0.72489 0.0
C1183 C 0.75966 0.79115 0.72564 0.0
H1184 H 0.78072 0.74521 0.73243 0.0
H1185 H 0.75751 0.94683 0.74804 0.0
H1186 H 0.68754 0.17956 0.16704 0.0
H1187 H 0.71451 0.16549 0.18754 0.0
H1188 H 0.67173 0.13337 0.22384 0.0
H1189 H 0.64466 0.14697 0.20309 0.0
H1190 H 0.70073 0.16853 0.24085 0.0
H1191 H 0.69557 0.10429 0.20549 0.0
H1192 H 0.69611 0.08328 0.17468 0.0
H1193 H 0.75552 0.10293 0.16161 0.0
H1194 H 0.75521 0.12431 0.1922 0.0
H1195 H 0.75268 0.12499 0.3195 0.0
H1196 H 0.73039 0.12928 0.2908 0.0
H1197 H 0.78062 0.1351 0.25051 0.0
H1198 H 0.80328 0.13034 0.27936 0.0
H1199 H 0.75036 0.11403 0.23264 0.0
H1200 H 0.75796 0.17616 0.26663 0.0
H1201 H 0.75955 0.19896 0.29605 0.0
H1202 H 0.69801 0.18774 0.30893 0.0
H1203 H 0.69613 0.16449 0.27984 0.0
C1204 C 0.68394 0.16899 0.17898 0.0
C1205 C 0.66403 0.1644 0.18357 0.0
C1206 C 0.69934 0.16093 0.19059 0.0
C1207 C 0.69502 0.14838 0.20705 0.0
C1208 C 0.67527 0.14286 0.21098 0.0
C1209 C 0.65986 0.1506 0.19912 0.0
C1210 C 0.71057 0.14403 0.22216 0.0
C1211 C 0.71141 0.15644 0.23927 0.0
C1212 C 0.72508 0.12898 0.21933 0.0
C1213 C 0.72526 0.1161 0.20099 0.0
C1214 C 0.70866 0.10432 0.19592 0.0
C1215 C 0.70895 0.09229 0.17853 0.0
C1216 C 0.72581 0.09182 0.16615 0.0
C1217 C 0.74245 0.10333 0.17119 0.0
C1218 C 0.74223 0.11539 0.18856 0.0
C1219 C 0.75907 0.12706 0.30454 0.0
C1220 C 0.77977 0.12764 0.30175 0.0
C1221 C 0.74628 0.12949 0.28814 0.0
C1222 C 0.75385 0.13293 0.26861 0.0
C1223 C 0.7745 0.13257 0.26551 0.0
C1224 C 0.7874 0.1299 0.28199 0.0
C1225 C 0.74 0.13803 0.25191 0.0
C1226 C 0.73965 0.12608 0.23433 0.0
C1227 C 0.72613 0.1539 0.25402 0.0
C1228 C 0.727 0.16832 0.27121 0.0
C1229 C 0.7448 0.17842 0.27582 0.0
C1230 C 0.74575 0.19143 0.29243 0.0
C1231 C 0.72894 0.19462 0.30444 0.0
C1232 C 0.71105 0.18511 0.29967 0.0
C1233 C 0.71004 0.17201 0.28313 0.0
H1234 H 0.7298 0.20441 0.31747 0.0
H1235 H 0.72601 0.0825 0.1527 0.0
H1236 H 0.31288 0.69098 0.31312 0.0
H1237 H 0.28742 0.67197 0.29546 0.0
H1238 H 0.32912 0.6239 0.28494 0.0
H1239 H 0.35502 0.64306 0.30254 0.0
H1240 H 0.31063 0.63489 0.25071 0.0
H1241 H 0.28998 0.61657 0.3168 0.0
H1242 H 0.28126 0.62143 0.35282 0.0
H1243 H 0.23239 0.65922 0.33565 0.0
H1244 H 0.24098 0.65484 0.29953 0.0
H1245 H 0.23426 0.59124 0.1936 0.0
H1246 H 0.25778 0.59331 0.22188 0.0
H1247 H 0.22706 0.64568 0.24443 0.0
H1248 H 0.20285 0.64283 0.21677 0.0
H1249 H 0.24164 0.6247 0.27523 0.0
H1250 H 0.26563 0.6463 0.20958 0.0
H1251 H 0.27539 0.64271 0.17372 0.0
H1252 H 0.31893 0.59854 0.19037 0.0
H1253 H 0.3093 0.60189 0.22637 0.0
C1254 C 0.31669 0.67628 0.30727 0.0
C1255 C 0.33608 0.66861 0.30916 0.0
C1256 C 0.302 0.66533 0.29732 0.0
C1257 C 0.30628 0.6464 0.2891 0.0
C1258 C 0.32548 0.63844 0.2913 0.0
C1259 C 0.34025 0.6494 0.30136 0.0
C1260 C 0.29111 0.63607 0.27657 0.0
C1261 C 0.29568 0.63211 0.2562 0.0
C1262 C 0.27153 0.6328 0.28369 0.0
C1263 C 0.2662 0.63544 0.30542 0.0
C1264 C 0.27745 0.62603 0.3207 0.0
C1265 C 0.27252 0.62868 0.34114 0.0
C1266 C 0.25629 0.64064 0.34652 0.0
C1267 C 0.24495 0.64995 0.33146 0.0
C1268 C 0.24983 0.64736 0.31099 0.0
C1269 C 0.23226 0.6028 0.20498 0.0
C1270 C 0.21691 0.61693 0.20313 0.0
C1271 C 0.24571 0.60403 0.22106 0.0
C1272 C 0.24448 0.61993 0.23499 0.0
C1273 C 0.22832 0.63329 0.23385 0.0
C1274 C 0.21453 0.63171 0.21807 0.0
C1275 C 0.26105 0.62411 0.24924 0.0
C1276 C 0.25672 0.62696 0.26989 0.0
C1277 C 0.28092 0.62637 0.24236 0.0
C1278 C 0.28663 0.62429 0.22067 0.0
C1279 C 0.27727 0.63584 0.2056 0.0
C1280 C 0.28276 0.63382 0.18524 0.0
C1281 C 0.29776 0.62037 0.17976 0.0
C1282 C 0.30729 0.60894 0.19464 0.0
C1283 C 0.30182 0.61091 0.21503 0.0
H1284 H 0.302 0.61881 0.16398 0.0
H1285 H 0.2525 0.64268 0.36236 0.0
H1286 H 0.25439 0.37484 0.67941 0.0
H1287 H 0.23329 0.37321 0.70948 0.0
H1288 H 0.28483 0.36288 0.74692 0.0
H1289 H 0.30624 0.36478 0.71673 0.0
H1290 H 0.25402 0.33404 0.75099 0.0
H1291 H 0.26175 0.40516 0.75331 0.0
H1292 H 0.26221 0.43956 0.73951 0.0
H1293 H 0.20036 0.43479 0.7243 0.0
H1294 H 0.19959 0.40025 0.73774 0.0
H1295 H 0.18925 0.32069 0.83252 0.0
H1296 H 0.21668 0.33595 0.81366 0.0
H1297 H 0.1749 0.36045 0.77056 0.0
H1298 H 0.14736 0.34616 0.79013 0.0
H1299 H 0.20496 0.38496 0.77369 0.0
H1300 H 0.19825 0.31348 0.76375 0.0
H1301 H 0.19636 0.27812 0.77471 0.0
H1302 H 0.25469 0.28251 0.80074 0.0
H1303 H 0.2568 0.31799 0.79014 0.0
C1304 C 0.2613 0.37246 0.69406 0.0
C1305 C 0.28197 0.36981 0.69571 0.0
C1306 C 0.24922 0.3717 0.71125 0.0
C1307 C 0.25752 0.36808 0.73042 0.0
C1308 C 0.27819 0.36584 0.73224 0.0
C1309 C 0.29037 0.36694 0.71502 0.0
C1310 C 0.24423 0.36465 0.748 0.0
C1311 C 0.24364 0.34533 0.75637 0.0
C1312 C 0.2303 0.37921 0.75446 0.0
C1313 C 0.23065 0.40004 0.74644 0.0
C1314 C 0.24828 0.41138 0.74689 0.0
C1315 C 0.24859 0.43092 0.73915 0.0
C1316 C 0.23133 0.43934 0.73101 0.0
C1317 C 0.21372 0.42825 0.73062 0.0
C1318 C 0.21333 0.4087 0.73832 0.0
C1319 C 0.18594 0.32976 0.81929 0.0
C1320 C 0.16627 0.3321 0.8126 0.0
C1321 C 0.2016 0.33838 0.80846 0.0
C1322 C 0.19792 0.34882 0.79032 0.0
C1323 C 0.17815 0.35237 0.78444 0.0
C1324 C 0.16241 0.34419 0.7956 0.0
C1325 C 0.21453 0.35422 0.77646 0.0
C1326 C 0.21566 0.37382 0.76869 0.0
C1327 C 0.22875 0.33979 0.77016 0.0
C1328 C 0.22759 0.31842 0.77637 0.0
C1329 C 0.21062 0.30692 0.77191 0.0
C1330 C 0.20951 0.28686 0.77805 0.0
C1331 C 0.22537 0.27809 0.78846 0.0
C1332 C 0.2424 0.28934 0.79271 0.0
C1333 C 0.24356 0.30942 0.78663 0.0
H1334 H 0.22449 0.26256 0.79321 0.0
H1335 H 0.2316 0.45447 0.72502 0.0
H1336 H 0.81556 0.73619 0.86285 0.0
H1337 H 0.78548 0.75628 0.86087 0.0
H1338 H 0.74974 0.70338 0.87001 0.0
H1339 H 0.78001 0.68284 0.87233 0.0
H1340 H 0.73844 0.73537 0.83615 0.0
H1341 H 0.75139 0.72633 0.9082 0.0
H1342 H 0.77372 0.72577 0.93788 0.0
H1343 H 0.7889 0.78754 0.92754 0.0
H1344 H 0.76691 0.78837 0.89762 0.0
H1345 H 0.65936 0.80569 0.84406 0.0
H1346 H 0.67952 0.77574 0.85048 0.0
H1347 H 0.72736 0.8134 0.87193 0.0
H1348 H 0.70671 0.84294 0.86716 0.0
H1349 H 0.72779 0.78282 0.89321 0.0
H1350 H 0.72296 0.79228 0.82031 0.0
H1351 H 0.70526 0.79551 0.78768 0.0
H1352 H 0.67957 0.73707 0.796 0.0
H1353 H 0.697 0.73359 0.82878 0.0
C1354 C 0.80137 0.72865 0.86429 0.0
C1355 C 0.80025 0.70786 0.86796 0.0
C1356 C 0.78419 0.74021 0.86313 0.0
C1357 C 0.76551 0.73128 0.86545 0.0
C1358 C 0.76412 0.71046 0.86821 0.0
C1359 C 0.7814 0.69881 0.86958 0.0
C1360 C 0.74775 0.74425 0.86604 0.0
C1361 C 0.73569 0.74545 0.84878 0.0
C1362 C 0.74473 0.75772 0.88231 0.0
C1363 C 0.75756 0.75737 0.90062 0.0
C1364 C 0.75957 0.73976 0.9122 0.0
C1365 C 0.77216 0.7394 0.92907 0.0
C1366 C 0.78274 0.7566 0.93458 0.0
C1367 C 0.78069 0.77423 0.92327 0.0
C1368 C 0.76814 0.77466 0.90637 0.0
C1369 C 0.67409 0.80745 0.85043 0.0
C1370 C 0.68157 0.82661 0.85495 0.0
C1371 C 0.68567 0.79036 0.85393 0.0
C1372 C 0.70522 0.79225 0.86121 0.0
C1373 C 0.71237 0.81143 0.86631 0.0
C1374 C 0.70057 0.82839 0.86347 0.0
C1375 C 0.71866 0.7746 0.86293 0.0
C1376 C 0.73002 0.77248 0.88069 0.0
C1377 C 0.72145 0.76075 0.8468 0.0
C1378 C 0.71109 0.76278 0.82707 0.0
C1379 C 0.71345 0.78017 0.81521 0.0
C1380 C 0.70349 0.78204 0.7967 0.0
C1381 C 0.69125 0.76653 0.7898 0.0
C1382 C 0.68902 0.74908 0.80138 0.0
C1383 C 0.69895 0.74715 0.81991 0.0
H1384 H 0.68353 0.768 0.77547 0.0
H1385 H 0.7925 0.75629 0.94763 0.0
H1386 H 0.2108 0.65276 0.13802 0.0
H1387 H 0.23147 0.68276 0.1348 0.0
H1388 H 0.18538 0.7184 0.16252 0.0
H1389 H 0.16482 0.68815 0.16662 0.0
H1390 H 0.20758 0.7314 0.12055 0.0
H1391 H 0.21372 0.71586 0.19115 0.0
H1392 H 0.2192 0.69474 0.22132 0.0
H1393 H 0.2782 0.68108 0.20068 0.0
H1394 H 0.27271 0.70124 0.16986 0.0
H1395 H 0.27974 0.81224 0.12468 0.0
H1396 H 0.25148 0.79056 0.13322 0.0
H1397 H 0.28974 0.73867 0.13063 0.0
H1398 H 0.3179 0.76001 0.12228 0.0
H1399 H 0.26679 0.739 0.16472 0.0
H1400 H 0.2586 0.74948 0.09214 0.0
H1401 H 0.25378 0.77011 0.06144 0.0
H1402 H 0.19958 0.79376 0.08621 0.0
H1403 H 0.20423 0.77345 0.11719 0.0
C1404 C 0.20501 0.66696 0.14338 0.0
C1405 C 0.18626 0.66814 0.15264 0.0
C1406 C 0.21685 0.68405 0.14158 0.0
C1407 C 0.20994 0.70265 0.14858 0.0
C1408 C 0.19093 0.70408 0.15716 0.0
C1409 C 0.17927 0.68685 0.15948 0.0
C1410 C 0.22294 0.72038 0.14694 0.0
C1411 C 0.22029 0.73342 0.13046 0.0
C1412 C 0.23959 0.7227 0.15979 0.0
C1413 C 0.24265 0.70983 0.17796 0.0
C1414 C 0.22768 0.70795 0.19276 0.0
C1415 C 0.2308 0.69617 0.21003 0.0
C1416 C 0.24898 0.68647 0.21288 0.0
C1417 C 0.26404 0.68845 0.1984 0.0
C1418 C 0.2609 0.69999 0.18097 0.0
C1419 C 0.28209 0.7962 0.12582 0.0
C1420 C 0.30111 0.78787 0.12284 0.0
C1421 C 0.26595 0.78386 0.13071 0.0
C1422 C 0.26856 0.76304 0.13258 0.0
C1423 C 0.28744 0.75473 0.12939 0.0
C1424 C 0.30352 0.76698 0.12456 0.0
C1425 C 0.25184 0.74961 0.1379 0.0
C1426 C 0.25383 0.73732 0.15508 0.0
C1427 C 0.23465 0.74795 0.12566 0.0
C1428 C 0.2319 0.76017 0.10708 0.0
C1429 C 0.24576 0.75923 0.09112 0.0
C1430 C 0.24303 0.77083 0.07365 0.0
C1431 C 0.22642 0.78329 0.07191 0.0
C1432 C 0.21246 0.78414 0.0876 0.0
C1433 C 0.21513 0.77259 0.10512 0.0
H1434 H 0.22433 0.79225 0.05836 0.0
H1435 H 0.25143 0.6775 0.22636 0.0
H1436 H 0.31664 0.31439 0.68079 0.0
H1437 H 0.29715 0.2839 0.67524 0.0
H1438 H 0.30383 0.29124 0.6104 0.0
H1439 H 0.32201 0.3225 0.61604 0.0
H1440 H 0.26822 0.28508 0.61712 0.0
H1441 H 0.3264 0.25117 0.64052 0.0
H1442 H 0.3544 0.24369 0.66343 0.0
H1443 H 0.31352 0.22929 0.71135 0.0
H1444 H 0.28527 0.23694 0.68881 0.0
H1445 H 0.2171 0.19561 0.59454 0.0
H1446 H 0.24746 0.21534 0.60014 0.0
H1447 H 0.22889 0.22744 0.66163 0.0
H1448 H 0.19842 0.20799 0.65594 0.0
H1449 H 0.27266 0.22082 0.65493 0.0
H1450 H 0.21547 0.25981 0.63146 0.0
H1451 H 0.18793 0.26628 0.60764 0.0
H1452 H 0.22936 0.26993 0.55817 0.0
H1453 H 0.25712 0.26312 0.58167 0.0
C1454 C 0.31418 0.30923 0.6654 0.0
C1455 C 0.3207 0.32068 0.64881 0.0
C1456 C 0.30318 0.29172 0.66221 0.0
C1457 C 0.29915 0.28503 0.64237 0.0
C1458 C 0.30662 0.29607 0.62584 0.0
C1459 C 0.31704 0.31388 0.62904 0.0
C1460 C 0.28539 0.26793 0.63873 0.0
C1461 C 0.26962 0.2709 0.62509 0.0
C1462 C 0.28674 0.24948 0.64941 0.0
C1463 C 0.30371 0.24478 0.663 0.0
C1464 C 0.32337 0.24654 0.65598 0.0
C1465 C 0.3393 0.24225 0.6689 0.0
C1466 C 0.33574 0.23606 0.68884 0.0
C1467 C 0.31625 0.2341 0.69589 0.0
C1468 C 0.30028 0.23838 0.68305 0.0
C1469 C 0.21979 0.20212 0.60935 0.0
C1470 C 0.20543 0.20075 0.62473 0.0
C1471 C 0.23708 0.2133 0.61255 0.0
C1472 C 0.24028 0.22288 0.63126 0.0
C1473 C 0.22667 0.2201 0.64713 0.0
C1474 C 0.20924 0.20924 0.64381 0.0
C1475 C 0.25601 0.23818 0.63331 0.0
C1476 C 0.27182 0.23492 0.64674 0.0
C1477 C 0.25496 0.25632 0.62229 0.0
C1478 C 0.23831 0.26072 0.60825 0.0
C1479 C 0.21868 0.26182 0.61548 0.0
C1480 C 0.20304 0.26558 0.60205 0.0
C1481 C 0.20689 0.26847 0.5814 0.0
C1482 C 0.2264 0.26766 0.57415 0.0
C1483 C 0.24208 0.26385 0.58752 0.0
H1484 H 0.19476 0.27137 0.57103 0.0
H1485 H 0.34809 0.23275 0.69882 0.0
H1486 H 0.71513 0.31128 0.35736 0.0
H1487 H 0.74443 0.29058 0.3493 0.0
H1488 H 0.72531 0.24645 0.39306 0.0
H1489 H 0.6957 0.26658 0.40048 0.0
H1490 H 0.769 0.25955 0.39284 0.0
H1491 H 0.71367 0.23627 0.35172 0.0
H1492 H 0.68725 0.23907 0.32604 0.0
H1493 H 0.73045 0.25518 0.28092 0.0
H1494 H 0.75714 0.25304 0.30653 0.0
H1495 H 0.80721 0.16328 0.37774 0.0
H1496 H 0.78768 0.19369 0.3828 0.0
H1497 H 0.80814 0.21675 0.32525 0.0
H1498 H 0.82772 0.18611 0.32 0.0
H1499 H 0.7682 0.2199 0.32906 0.0
H1500 H 0.82413 0.23853 0.36827 0.0
H1501 H 0.85102 0.23451 0.39332 0.0
H1502 H 0.80797 0.22703 0.44086 0.0
H1503 H 0.78079 0.23071 0.41605 0.0
C1504 C 0.7174 0.29728 0.3654 0.0
C1505 C 0.70329 0.29043 0.37951 0.0
C1506 C 0.73402 0.2855 0.36076 0.0
C1507 C 0.73689 0.26705 0.37059 0.0
C1508 C 0.72328 0.26069 0.38537 0.0
C1509 C 0.70642 0.27213 0.38955 0.0
C1510 C 0.75348 0.2537 0.36493 0.0
C1511 C 0.76892 0.25088 0.3789 0.0
C1512 C 0.75353 0.24294 0.34642 0.0
C1513 C 0.73738 0.24502 0.33122 0.0
C1514 C 0.71751 0.24094 0.33649 0.0
C1515 C 0.7025 0.24227 0.3219 0.0
C1516 C 0.70716 0.24744 0.30191 0.0
C1517 C 0.72686 0.2513 0.29645 0.0
C1518 C 0.74193 0.25008 0.31101 0.0
C1519 C 0.80777 0.17492 0.36627 0.0
C1520 C 0.819 0.17234 0.34849 0.0
C1521 C 0.79667 0.19234 0.36922 0.0
C1522 C 0.79662 0.20758 0.3545 0.0
C1523 C 0.80806 0.2052 0.33684 0.0
C1524 C 0.81928 0.18776 0.33391 0.0
C1525 C 0.78357 0.2253 0.35723 0.0
C1526 C 0.7687 0.22894 0.34275 0.0
C1527 C 0.78412 0.23694 0.37519 0.0
C1528 C 0.8004 0.2348 0.39025 0.0
C1529 C 0.82038 0.23589 0.38404 0.0
C1530 C 0.83568 0.23369 0.39821 0.0
C1531 C 0.8312 0.23049 0.41867 0.0
C1532 C 0.81141 0.22952 0.42501 0.0
C1533 C 0.79605 0.2317 0.4109 0.0
H1534 H 0.84307 0.22879 0.42961 0.0
H1535 H 0.69553 0.24831 0.29064 0.0
H1536 H 0.15172 0.14304 0.54748 0.0
H1537 H 0.14277 0.14172 0.51149 0.0
H1538 H 0.11967 0.20204 0.5152 0.0
H1539 H 0.12812 0.20335 0.55108 0.0
H1540 H 0.09477 0.17892 0.49504 0.0
H1541 H 0.16562 0.19129 0.49416 0.0
H1542 H 0.20071 0.18403 0.50202 0.0
H1543 H 0.19635 0.1276 0.47085 0.0
H1544 H 0.16113 0.13443 0.46301 0.0
H1545 H 0.10292 0.22129 0.39736 0.0
H1546 H 0.10676 0.21135 0.43284 0.0
H1547 H 0.11408 0.14962 0.41461 0.0
H1548 H 0.10986 0.15941 0.37892 0.0
H1549 H 0.14492 0.16637 0.44126 0.0
H1550 H 0.07467 0.15785 0.43767 0.0
H1551 H 0.04029 0.16727 0.42898 0.0
H1552 H 0.04422 0.21866 0.4681 0.0
H1553 H 0.07875 0.20973 0.47679 0.0
C1554 C 0.14479 0.15604 0.54061 0.0
C1555 C 0.14064 0.17331 0.55218 0.0
C1556 C 0.1397 0.15526 0.52004 0.0
C1557 C 0.13062 0.17182 0.51065 0.0
C1558 C 0.12654 0.18904 0.52216 0.0
C1559 C 0.13146 0.18978 0.54269 0.0
C1560 C 0.12535 0.17148 0.48882 0.0
C1561 C 0.10576 0.17623 0.48329 0.0
C1562 C 0.13954 0.16737 0.47349 0.0
C1563 C 0.16068 0.16324 0.47824 0.0
C1564 C 0.1721 0.17725 0.48914 0.0
C1565 C 0.19202 0.17324 0.49356 0.0
C1566 C 0.20074 0.15533 0.487 0.0
C1567 C 0.18957 0.14144 0.47596 0.0
C1568 C 0.16963 0.14537 0.47152 0.0
C1569 C 0.10509 0.20556 0.40091 0.0
C1570 C 0.10611 0.19112 0.3854 0.0
C1571 C 0.10723 0.19991 0.42115 0.0
C1572 C 0.11066 0.17977 0.42625 0.0
C1573 C 0.11139 0.16522 0.41089 0.0
C1574 C 0.10887 0.17083 0.39059 0.0
C1575 C 0.11455 0.1744 0.44761 0.0
C1576 C 0.13386 0.16861 0.45305 0.0
C1577 C 0.10018 0.17778 0.46286 0.0
C1578 C 0.07936 0.18318 0.45778 0.0
C1579 C 0.06827 0.17125 0.4443 0.0
C1580 C 0.04874 0.17649 0.4394 0.0
C1581 C 0.04009 0.19357 0.44796 0.0
C1582 C 0.05094 0.20543 0.46148 0.0
C1583 C 0.07049 0.20027 0.46642 0.0
H1584 H 0.02496 0.1976 0.44415 0.0
H1585 H 0.21617 0.15226 0.49043 0.0
H1586 H 0.32478 0.83813 0.04494 0.0
H1587 H 0.32809 0.83741 0.00789 0.0
H1588 H 0.38992 0.82151 0.01378 0.0
H1589 H 0.3867 0.82179 0.05078 0.0
H1590 H 0.37863 0.85246 0.98162 0.0
H1591 H 0.36294 0.7851 0.00791 0.0
H1592 H 0.34197 0.76195 0.02781 0.0
H1593 H 0.29121 0.77825 0.99196 0.0
H1594 H 0.31186 0.80174 0.97205 0.0
H1595 H 0.40603 0.809 0.888 0.0
H1596 H 0.40064 0.81843 0.92349 0.0
H1597 H 0.33766 0.8079 0.91633 0.0
H1598 H 0.34334 0.79704 0.88141 0.0
H1599 H 0.34702 0.7933 0.94922 0.0
H1600 H 0.3605 0.85708 0.9201 0.0
H1601 H 0.37859 0.88242 0.90001 0.0
H1602 H 0.42891 0.87699 0.93966 0.0
H1603 H 0.41123 0.85141 0.95984 0.0
C1604 C 0.33915 0.83477 0.03834 0.0
C1605 C 0.35544 0.8298 0.05071 0.0
C1606 C 0.341 0.83441 0.01723 0.0
C1607 C 0.35924 0.8294 0.00826 0.0
C1608 C 0.37578 0.82549 0.02053 0.0
C1609 C 0.37385 0.82549 0.04162 0.0
C1610 C 0.36065 0.82617 0.98619 0.0
C1611 C 0.37184 0.83953 0.97441 0.0
C1612 C 0.35117 0.80967 0.9769 0.0
C1613 C 0.33888 0.79531 0.98866 0.0
C1614 C 0.34728 0.78386 0.00439 0.0
C1615 C 0.33546 0.77066 0.01565 0.0
C1616 C 0.31526 0.76867 0.01119 0.0
C1617 C 0.30685 0.77983 0.99542 0.0
C1618 C 0.3186 0.79307 0.98414 0.0
C1619 C 0.39108 0.80873 0.89411 0.0
C1620 C 0.37511 0.80219 0.88217 0.0
C1621 C 0.38795 0.81432 0.9143 0.0
C1622 C 0.36866 0.81425 0.92257 0.0
C1623 C 0.35268 0.80804 0.9104 0.0
C1624 C 0.35591 0.80183 0.89046 0.0
C1625 C 0.36523 0.81955 0.9442 0.0
C1626 C 0.35366 0.80649 0.95608 0.0
C1627 C 0.37392 0.83669 0.95339 0.0
C1628 C 0.38458 0.85219 0.94139 0.0
C1629 C 0.37547 0.86119 0.92446 0.0
C1630 C 0.38565 0.87561 0.91307 0.0
C1631 C 0.40491 0.88127 0.91852 0.0
C1632 C 0.414 0.87258 0.93544 0.0
C1633 C 0.4039 0.85813 0.94688 0.0
H1634 H 0.41277 0.89243 0.90967 0.0
H1635 H 0.30613 0.75846 0.01993 0.0
H1636 H 0.61052 0.32455 0.44457 0.0
H1637 H 0.60549 0.32384 0.48138 0.0
H1638 H 0.66797 0.33471 0.49059 0.0
H1639 H 0.67304 0.33619 0.4537 0.0
H1640 H 0.63954 0.2939 0.50585 0.0
H1641 H 0.65594 0.36571 0.50961 0.0
H1642 H 0.65149 0.40092 0.49898 0.0
H1643 H 0.58966 0.39794 0.51485 0.0
H1644 H 0.59371 0.36256 0.52524 0.0
H1645 H 0.64441 0.28541 0.61153 0.0
H1646 H 0.65016 0.29471 0.57632 0.0
H1647 H 0.59341 0.32492 0.57467 0.0
H1648 H 0.58806 0.3165 0.61055 0.0
H1649 H 0.6191 0.34637 0.55509 0.0
H1650 H 0.60143 0.27679 0.55302 0.0
H1651 H 0.60313 0.24095 0.56226 0.0
H1652 H 0.6636 0.23833 0.54158 0.0
H1653 H 0.66234 0.27422 0.53244 0.0
C1654 C 0.62309 0.32726 0.45445 0.0
C1655 C 0.64217 0.33037 0.44636 0.0
C1656 C 0.62018 0.32694 0.47541 0.0
C1657 C 0.63633 0.32944 0.48855 0.0
C1658 C 0.6553 0.33313 0.48059 0.0
C1659 C 0.65816 0.33393 0.45957 0.0
C1660 C 0.63367 0.32531 0.51034 0.0
C1661 C 0.63542 0.30537 0.51677 0.0
C1662 C 0.62751 0.34023 0.52416 0.0
C1663 C 0.62506 0.36142 0.51787 0.0
C1664 C 0.64134 0.37247 0.51054 0.0
C1665 C 0.63891 0.39248 0.50464 0.0
C1666 C 0.62029 0.40163 0.50615 0.0
C1667 C 0.60407 0.39081 0.51363 0.0
C1668 C 0.60642 0.37079 0.51953 0.0
C1669 C 0.63306 0.2939 0.60365 0.0
C1670 C 0.61564 0.29998 0.61368 0.0
C1671 C 0.63636 0.29919 0.58348 0.0
C1672 C 0.62201 0.3101 0.57266 0.0
C1673 C 0.60465 0.3164 0.58269 0.0
C1674 C 0.60155 0.31151 0.60312 0.0
C1675 C 0.62528 0.31484 0.5509 0.0
C1676 C 0.62341 0.33483 0.54433 0.0
C1677 C 0.63106 0.29986 0.53679 0.0
C1678 C 0.63183 0.27824 0.54221 0.0
C1679 C 0.61513 0.2686 0.55056 0.0
C1680 C 0.61601 0.24827 0.55576 0.0
C1681 C 0.63348 0.23738 0.55255 0.0
C1682 C 0.65009 0.24678 0.54408 0.0
C1683 C 0.64929 0.26711 0.53886 0.0
H1684 H 0.63413 0.22165 0.55659 0.0
H1685 H 0.61844 0.41713 0.5016 0.0
H1686 H 0.87293 0.72807 0.09777 0.0
H1687 H 0.8649 0.71753 0.06338 0.0
H1688 H 0.88312 0.65704 0.07754 0.0
H1689 H 0.89165 0.66757 0.11206 0.0
H1690 H 0.89573 0.6671 0.04097 0.0
H1691 H 0.83403 0.66839 0.07454 0.0
H1692 H 0.80711 0.68123 0.09637 0.0
H1693 H 0.79799 0.73058 0.0555 0.0
H1694 H 0.82508 0.71823 0.03357 0.0
H1695 H 0.84991 0.64201 0.94403 0.0
H1696 H 0.8533 0.64182 0.98122 0.0
H1697 H 0.85773 0.7064 0.98112 0.0
H1698 H 0.85495 0.70668 0.94413 0.0
H1699 H 0.83033 0.68647 0.01215 0.0
H1700 H 0.89802 0.68598 0.98317 0.0
H1701 H 0.92395 0.67077 0.96161 0.0
H1702 H 0.91925 0.6156 0.99501 0.0
H1703 H 0.89306 0.63045 0.01659 0.0
C1704 C 0.87535 0.71253 0.0936 0.0
C1705 C 0.88281 0.69864 0.10773 0.0
C1706 C 0.8706 0.7065 0.07395 0.0
C1707 C 0.87293 0.68639 0.06806 0.0
C1708 C 0.88104 0.67259 0.08185 0.0
C1709 C 0.88595 0.67866 0.10154 0.0
C1710 C 0.86703 0.68008 0.04737 0.0
C1711 C 0.88127 0.67093 0.03483 0.0
C1712 C 0.84808 0.68489 0.03936 0.0
C1713 C 0.83171 0.69243 0.05246 0.0
C1714 C 0.82639 0.68206 0.07027 0.0
C1715 C 0.81109 0.68924 0.08266 0.0
C1716 C 0.80087 0.70672 0.07734 0.0
C1717 C 0.80592 0.71704 0.0596 0.0
C1718 C 0.82124 0.70994 0.04717 0.0
C1719 C 0.85146 0.65614 0.95201 0.0
C1720 C 0.85234 0.67436 0.94127 0.0
C1721 C 0.85338 0.656 0.97316 0.0
C1722 C 0.85573 0.6741 0.98375 0.0
C1723 C 0.85586 0.69231 0.97312 0.0
C1724 C 0.85441 0.69243 0.95203 0.0
C1725 C 0.85928 0.67431 0.00582 0.0
C1726 C 0.84458 0.68226 0.01855 0.0
C1727 C 0.87759 0.66801 0.01411 0.0
C1728 C 0.89345 0.65922 0.0013 0.0
C1729 C 0.9024 0.67055 0.98579 0.0
C1730 C 0.91716 0.66201 0.9736 0.0
C1731 C 0.9232 0.64221 0.9769 0.0
C1732 C 0.91453 0.63092 0.99245 0.0
C1733 C 0.89974 0.63939 0.00466 0.0
H1734 H 0.93463 0.63562 0.96744 0.0
H1735 H 0.78902 0.71226 0.08695 0.0
H1736 H 0.39185 0.09078 0.17683 0.0
H1737 H 0.42638 0.09352 0.16502 0.0
H1738 H 0.43601 0.14295 0.20603 0.0
H1739 H 0.40183 0.14013 0.21825 0.0
H1740 H 0.44481 0.14174 0.15413 0.0
H1741 H 0.45798 0.11602 0.2252 0.0
H1742 H 0.45262 0.08969 0.251 0.0
H1743 H 0.47118 0.04463 0.20838 0.0
H1744 H 0.47636 0.07073 0.18226 0.0
H1745 H 0.53755 0.1837 0.16594 0.0
H1746 H 0.50435 0.16975 0.16771 0.0
H1747 H 0.52818 0.1101 0.15964 0.0
H1748 H 0.56197 0.12412 0.15878 0.0
H1749 H 0.50209 0.10883 0.18795 0.0
H1750 H 0.49985 0.13441 0.12142 0.0
H1751 H 0.50472 0.1583 0.09328 0.0
H1752 H 0.46479 0.19995 0.12177 0.0
H1753 H 0.45988 0.17645 0.15025 0.0
C1754 C 0.40138 0.10214 0.18344 0.0
C1755 C 0.39412 0.11522 0.19852 0.0
C1756 C 0.42105 0.10363 0.17669 0.0
C1757 C 0.43362 0.11835 0.18477 0.0
C1758 C 0.42648 0.13139 0.19978 0.0
C1759 C 0.40697 0.12972 0.20676 0.0
C1760 C 0.45406 0.12088 0.17714 0.0
C1761 C 0.45742 0.13461 0.16142 0.0
C1762 C 0.47026 0.11078 0.18605 0.0
C1763 C 0.4673 0.09523 0.20177 0.0
C1764 C 0.46071 0.10047 0.2213 0.0
C1765 C 0.45776 0.08561 0.23599 0.0
C1766 C 0.46149 0.06549 0.23131 0.0
C1767 C 0.46825 0.06021 0.21196 0.0
C1768 C 0.47119 0.07502 0.19723 0.0
C1769 C 0.5358 0.16762 0.16429 0.0
C1770 C 0.55239 0.155 0.16215 0.0
C1771 C 0.51671 0.15964 0.16513 0.0
C1772 C 0.51362 0.13888 0.16333 0.0
C1773 C 0.53016 0.12618 0.16092 0.0
C1774 C 0.54943 0.13419 0.1604 0.0
C1775 C 0.49317 0.1307 0.1655 0.0
C1776 C 0.48967 0.11578 0.18017 0.0
C1777 C 0.4768 0.13944 0.15522 0.0
C1778 C 0.47955 0.15364 0.13803 0.0
C1779 C 0.49218 0.1487 0.12175 0.0
C1780 C 0.49494 0.16218 0.10573 0.0
C1781 C 0.48508 0.18063 0.10575 0.0
C1782 C 0.4724 0.18563 0.12177 0.0
C1783 C 0.46959 0.17222 0.13784 0.0
H1784 H 0.48725 0.19106 0.09333 0.0
H1785 H 0.4592 0.054 0.2427 0.0
H1786 H 0.95049 0.84435 0.63424 0.0
H1787 H 0.98351 0.85924 0.63784 0.0
H1788 H 0.96757 0.88106 0.69739 0.0
H1789 H 0.93402 0.86737 0.6931 0.0
H1790 H 0.99412 0.90512 0.68216 0.0
H1791 H 0.98926 0.83401 0.69011 0.0
H1792 H 0.98036 0.79938 0.68051 0.0
H1793 H 0.01886 0.80299 0.62862 0.0
H1794 H 0.02777 0.83778 0.63775 0.0
H1795 H 0.09293 0.88668 0.72532 0.0
H1796 H 0.05722 0.88582 0.71783 0.0
H1797 H 0.06999 0.88653 0.65371 0.0
H1798 H 0.10555 0.88784 0.66092 0.0
H1799 H 0.04536 0.85255 0.67153 0.0
H1800 H 0.05135 0.92496 0.6676 0.0
H1801 H 0.06035 0.95824 0.68113 0.0
H1802 H 0.02002 0.94993 0.73098 0.0
H1803 H 0.011 0.91644 0.7179 0.0
C1804 C 0.95387 0.85299 0.64775 0.0
C1805 C 0.93991 0.85468 0.66345 0.0
C1806 C 0.97275 0.86134 0.64989 0.0
C1807 C 0.97827 0.87061 0.66821 0.0
C1808 C 0.96373 0.87383 0.6832 0.0
C1809 C 0.94458 0.86603 0.68074 0.0
C1810 C -0.00046 0.87464 0.67263 0.0
C1811 C 0.00529 0.89359 0.67994 0.0
C1812 C 0.01418 0.85954 0.66993 0.0
C1813 C 0.00903 0.83856 0.6645 0.0
C1814 C 0.99574 0.82745 0.67659 0.0
C1815 C 0.9907 0.8078 0.67124 0.0
C1816 C 0.999 0.79901 0.65394 0.0
C1817 C 0.01241 0.80984 0.64199 0.0
C1818 C 0.01747 0.82952 0.64725 0.0
C1819 C 0.08812 0.88692 0.70963 0.0
C1820 C 0.10208 0.88722 0.69372 0.0
C1821 C 0.06775 0.88654 0.70541 0.0
C1822 C 0.0611 0.8862 0.68524 0.0
C1823 C 0.07493 0.88692 0.66936 0.0
C1824 C 0.09523 0.88766 0.67354 0.0
C1825 C 0.03987 0.88304 0.68063 0.0
C1826 C 0.03416 0.86412 0.67352 0.0
C1827 C 0.02532 0.89794 0.68408 0.0
C1828 C 0.03067 0.9181 0.69189 0.0
C1829 C 0.04455 0.93014 0.68156 0.0
C1830 C 0.04962 0.94906 0.68912 0.0
C1831 C 0.0408 0.95617 0.70694 0.0
C1832 C 0.02685 0.94439 0.71719 0.0
C1833 C 0.02175 0.92545 0.7097 0.0
H1834 H 0.04475 0.97083 0.71276 0.0
H1835 H 0.99507 0.78379 0.64982 0.0
H1836 H 0.03951 0.3145 0.83872 0.0
H1837 H 0.00656 0.3291 0.8342 0.0
H1838 H 0.03267 0.38762 0.82615 0.0
H1839 H 0.06597 0.37307 0.83032 0.0
H1840 H 0.98826 0.37113 0.85491 0.0
H1841 H 0.02281 0.38844 0.78865 0.0
H1842 H 0.04638 0.37813 0.76185 0.0
H1843 H 0.01483 0.32259 0.75438 0.0
H1844 H 0.99125 0.33252 0.78133 0.0
H1845 H 0.89591 0.40684 0.81502 0.0
H1846 H 0.93113 0.40462 0.82408 0.0
H1847 H 0.93632 0.35006 0.78908 0.0
H1848 H 0.90156 0.35284 0.77916 0.0
H1849 H 0.96722 0.37052 0.78272 0.0
H1850 H 0.93138 0.35209 0.84372 0.0
H1851 H 0.90754 0.35738 0.8717 0.0
H1852 H 0.94019 0.40932 0.89111 0.0
H1853 H 0.9641 0.40444 0.8631 0.0
C1854 C 0.03831 0.33054 0.83632 0.0
C1855 C 0.05537 0.34261 0.83467 0.0
C1856 C 0.01945 0.33884 0.83381 0.0
C1857 C 0.01729 0.35935 0.82977 0.0
C1858 C 0.03414 0.37172 0.82923 0.0
C1859 C 0.05311 0.36339 0.8316 0.0
C1860 C 0.99755 0.36706 0.82394 0.0
C1861 C 0.98367 0.37156 0.83913 0.0
C1862 C 0.99155 0.3669 0.80344 0.0
C1863 C 0.00543 0.36114 0.78703 0.0
C1864 C 0.02101 0.37399 0.78135 0.0
C1865 C 0.03434 0.36823 0.76613 0.0
C1866 C 0.03213 0.3497 0.75644 0.0
C1867 C 0.01654 0.33692 0.76191 0.0
C1868 C 0.00319 0.34261 0.77713 0.0
C1869 C 0.90464 0.39443 0.80922 0.0
C1870 C 0.89601 0.37999 0.7964 0.0
C1871 C 0.92474 0.39312 0.81448 0.0
C1872 C 0.93639 0.377 0.80753 0.0
C1873 C 0.92774 0.36269 0.79459 0.0
C1874 C 0.90783 0.36426 0.78896 0.0
C1875 C 0.95752 0.3747 0.8137 0.0
C1876 C 0.97172 0.37087 0.79853 0.0
C1877 C 0.96365 0.3752 0.8343 0.0
C1878 C 0.94938 0.37803 0.85121 0.0
C1879 C 0.93339 0.3647 0.85389 0.0
C1880 C 0.91989 0.36761 0.86976 0.0
C1881 C 0.92231 0.38371 0.88314 0.0
C1882 C 0.9383 0.39688 0.88072 0.0
C1883 C 0.95184 0.39404 0.86486 0.0
H1884 H 0.91184 0.38594 0.8954 0.0
H1885 H 0.04247 0.34525 0.74468 0.0
H1886 H 0.436 0.62812 0.32879 0.0
H1887 H 0.46936 0.6147 0.32182 0.0
H1888 H 0.49446 0.67344 0.33151 0.0
H1889 H 0.46154 0.68685 0.3388 0.0
H1890 H 0.50088 0.65288 0.29103 0.0
H1891 H 0.50456 0.64311 0.36474 0.0
H1892 H 0.49299 0.62811 0.39688 0.0
H1893 H 0.5014 0.56905 0.37221 0.0
H1894 H 0.51276 0.58372 0.33982 0.0
H1895 H 0.60375 0.6522 0.28462 0.0
H1896 H 0.56881 0.65602 0.29336 0.0
H1897 H 0.56495 0.59252 0.30616 0.0
H1898 H 0.60061 0.5891 0.29902 0.0
H1899 H 0.54495 0.60971 0.33266 0.0
H1900 H 0.54402 0.6167 0.26102 0.0
H1901 H 0.55405 0.62911 0.22726 0.0
H1902 H 0.53795 0.68912 0.24445 0.0
H1903 H 0.52807 0.67713 0.2784 0.0
C1904 C 0.4487 0.63804 0.3299 0.0
C1905 C 0.44613 0.65858 0.33418 0.0
C1906 C 0.46769 0.63036 0.3259 0.0
C1907 C 0.48424 0.64317 0.32603 0.0
C1908 C 0.4818 0.66338 0.33129 0.0
C1909 C 0.46296 0.67099 0.33549 0.0
C1910 C 0.50387 0.63626 0.31883 0.0
C1911 C 0.51062 0.6435 0.3001 0.0
C1912 C 0.51603 0.62325 0.33029 0.0
C1913 C 0.50926 0.61451 0.34978 0.0
C1914 C 0.50374 0.62693 0.3661 0.0
C1915 C 0.49727 0.61849 0.38438 0.0
C1916 C 0.49639 0.59764 0.38656 0.0
C1917 C 0.50205 0.58519 0.37049 0.0
C1918 C 0.50851 0.59356 0.35218 0.0
C1919 C 0.59537 0.63903 0.28911 0.0
C1920 C 0.60472 0.62032 0.29093 0.0
C1921 C 0.57532 0.64117 0.29396 0.0
C1922 C 0.56392 0.62445 0.29984 0.0
C1923 C 0.57331 0.60565 0.30156 0.0
C1924 C 0.59362 0.60366 0.29738 0.0
C1925 C 0.5425 0.62696 0.30499 0.0
C1926 C 0.53526 0.61882 0.32328 0.0
C1927 C 0.52961 0.63873 0.29281 0.0
C1928 C 0.53539 0.64601 0.27231 0.0
C1929 C 0.54271 0.63256 0.25764 0.0
C1930 C 0.54836 0.63952 0.23846 0.0
C1931 C 0.54666 0.65989 0.23372 0.0
C1932 C 0.53925 0.67334 0.24813 0.0
C1933 C 0.53359 0.66646 0.26733 0.0
H1934 H 0.55107 0.66526 0.21887 0.0
H1935 H 0.49139 0.59113 0.40073 0.0
H1936 H 0.22663 0.4068 0.13614 0.0
H1937 H 0.21428 0.44103 0.1398 0.0
H1938 H 0.16161 0.42547 0.106 0.0
H1939 H 0.17394 0.39125 0.10194 0.0
H1940 H 0.17556 0.46041 0.09372 0.0
H1941 H 0.15863 0.43143 0.15672 0.0
H1942 H 0.16326 0.41207 0.18826 0.0
H1943 H 0.20725 0.45428 0.20838 0.0
H1944 H 0.20312 0.47373 0.17681 0.0
H1945 H 0.15006 0.55716 0.15879 0.0
H1946 H 0.14747 0.52097 0.15307 0.0
H1947 H 0.19543 0.52415 0.10967 0.0
H1948 H 0.19789 0.56015 0.11493 0.0
H1949 H 0.17406 0.49351 0.16118 0.0
H1950 H 0.19184 0.48919 0.07423 0.0
H1951 H 0.18359 0.50787 0.04304 0.0
H1952 H 0.13085 0.53099 0.07134 0.0
H1953 H 0.1386 0.51223 0.1026 0.0
C1954 C 0.21245 0.41062 0.12942 0.0
C1955 C 0.20128 0.39623 0.11879 0.0
C1956 C 0.20534 0.43017 0.13166 0.0
C1957 C 0.18687 0.43567 0.12346 0.0
C1958 C 0.17584 0.42149 0.11253 0.0
C1959 C 0.18294 0.40193 0.11024 0.0
C1960 C 0.17945 0.45643 0.12592 0.0
C1961 C 0.17508 0.46764 0.10846 0.0
C1962 C 0.17807 0.46561 0.14524 0.0
C1963 C 0.18064 0.45398 0.16431 0.0
C1964 C 0.1694 0.43651 0.16779 0.0
C1965 C 0.17192 0.42553 0.18569 0.0
C1966 C 0.18556 0.43192 0.2003 0.0
C1967 C 0.19669 0.44934 0.19705 0.0
C1968 C 0.19425 0.46037 0.17916 0.0
C1969 C 0.15987 0.5502 0.14781 0.0
C1970 C 0.17427 0.56157 0.13741 0.0
C1971 C 0.15836 0.52952 0.14458 0.0
C1972 C 0.17113 0.5199 0.13082 0.0
C1973 C 0.18514 0.5313 0.12006 0.0
C1974 C 0.18662 0.55192 0.12321 0.0
C1975 C 0.17121 0.49776 0.12888 0.0
C1976 C 0.17418 0.48624 0.14645 0.0
C1977 C 0.17075 0.4882 0.1097 0.0
C1978 C 0.16588 0.49937 0.09083 0.0
C1979 C 0.17841 0.49815 0.07377 0.0
C1980 C 0.17384 0.50879 0.05608 0.0
C1981 C 0.15673 0.52064 0.05522 0.0
C1982 C 0.14413 0.52185 0.07204 0.0
C1983 C 0.14863 0.51124 0.08977 0.0
H1984 H 0.15323 0.52886 0.04151 0.0
H1985 H 0.18749 0.4234 0.21415 0.0
H1986 H 0.6813 0.9348 0.88995 0.0
H1987 H 0.68202 0.97143 0.89235 0.0
H1988 H 0.66505 0.976 0.82941 0.0
H1989 H 0.66387 0.93929 0.82695 0.0
H1990 H 0.70193 0.99585 0.84149 0.0
H1991 H 0.63326 0.99191 0.85988 0.0
H1992 H 0.60432 0.97954 0.87913 0.0
H1993 H 0.63006 0.00128 0.93455 0.0
H1994 H 0.65931 0.01352 0.91567 0.0
H1995 H 0.70876 0.10143 0.8439 0.0
H1996 H 0.69723 0.06714 0.83819 0.0
H1997 H 0.69251 0.05826 0.90301 0.0
H1998 H 0.70245 0.09324 0.90855 0.0
H1999 H 0.66349 0.04076 0.88696 0.0
H2000 H 0.73352 0.04028 0.87099 0.0
H2001 H 0.76403 0.05127 0.85342 0.0
H2002 H 0.73806 0.03614 0.79589 0.0
H2003 H 0.70732 0.02526 0.81312 0.0
C2004 C 0.67737 0.9436 0.87671 0.0
C2005 C 0.67266 0.93422 0.85823 0.0
C2006 C 0.67769 0.96449 0.87815 0.0
C2007 C 0.67356 0.97631 0.86106 0.0
C2008 C 0.66819 0.96704 0.84276 0.0
C2009 C 0.66749 0.94612 0.84141 0.0
C2010 C 0.67706 -0.00184 0.86188 0.0
C2011 C 0.69332 0.00582 0.8511 0.0
C2012 C 0.66615 0.01084 0.87494 0.0
C2013 C 0.64857 0.00348 0.88636 0.0
C2014 C 0.63285 0.99388 0.87619 0.0
C2015 C 0.61636 0.98693 0.88704 0.0
C2016 C 0.61537 0.98958 0.90805 0.0
C2017 C 0.63085 -0.00077 0.91827 0.0
C2018 C 0.64738 0.0062 0.90749 0.0
C2019 C 0.70531 0.09206 0.85688 0.0
C2020 C 0.70673 0.09972 0.87666 0.0
C2021 C 0.69881 0.07245 0.85364 0.0
C2022 C 0.69449 0.05983 0.87017 0.0
C2023 C 0.69579 0.06762 0.88998 0.0
C2024 C 0.7016 0.08751 0.89318 0.0
C2025 C 0.68874 0.03854 0.86688 0.0
C2026 C 0.67206 0.03092 0.87718 0.0
C2027 C 0.69955 0.02572 0.85368 0.0
C2028 C 0.71807 0.03215 0.84333 0.0
C2029 C 0.73429 0.03941 0.85459 0.0
C2030 C 0.75162 0.0456 0.84469 0.0
C2031 C 0.75296 0.04446 0.82355 0.0
C2032 C 0.73699 0.03705 0.81226 0.0
C2033 C 0.71962 0.03085 0.82209 0.0
H2034 H 0.76639 0.04927 0.81592 0.0
H2035 H 0.60259 0.9842 0.91642 0.0
H2036 H 0.84939 0.06059 0.35813 0.0
H2037 H 0.84811 0.02432 0.36441 0.0
H2038 H 0.78462 0.02828 0.37333 0.0
H2039 H 0.78612 0.06445 0.36843 0.0
H2040 H 0.79779 0.00457 0.39949 0.0
H2041 H 0.80924 0.01103 0.3271 0.0
H2042 H 0.82747 0.02194 0.29651 0.0
H2043 H 0.87891 0.9891 0.31611 0.0
H2044 H 0.86104 0.97819 0.34694 0.0
H2045 H 0.7643 0.90686 0.37475 0.0
H2046 H 0.77258 0.94256 0.37301 0.0
H2047 H 0.83431 0.92872 0.3835 0.0
H2048 H 0.8262 0.89296 0.3855 0.0
H2049 H 0.82631 0.95623 0.35016 0.0
H2050 H 0.81149 0.94689 0.42103 0.0
H2051 H 0.79114 0.93528 0.44988 0.0
H2052 H 0.74322 0.97339 0.43073 0.0
H2053 H 0.76319 0.98501 0.40159 0.0
C2054 C 0.83523 0.05363 0.36156 0.0
C2055 C 0.81787 0.06525 0.36286 0.0
C2056 C 0.83447 0.03291 0.36501 0.0
C2057 C 0.8162 0.02344 0.36905 0.0
C2058 C 0.79891 0.03517 0.37037 0.0
C2059 C 0.79977 0.05586 0.36752 0.0
C2060 C 0.81476 0.00135 0.37186 0.0
C2061 C 0.80392 0.99408 0.38856 0.0
C2062 C 0.82318 0.98749 0.35797 0.0
C2063 C 0.83389 0.99399 0.33942 0.0
C2064 C 0.82448 0.00625 0.32494 0.0
C2065 C 0.83474 0.01241 0.30756 0.0
C2066 C 0.85436 0.00626 0.3044 0.0
C2067 C 0.86373 0.99388 0.3186 0.0
C2068 C 0.85354 0.9877 0.33601 0.0
C2069 C 0.77964 0.91138 0.3767 0.0
C2070 C 0.79458 0.89708 0.38033 0.0
C2071 C 0.78432 0.93176 0.37574 0.0
C2072 C 0.80402 0.93817 0.37821 0.0
C2073 C 0.81902 0.92399 0.38158 0.0
C2074 C 0.81432 0.90361 0.38281 0.0
C2075 C 0.80883 0.95977 0.37729 0.0
C2076 C 0.82038 0.96685 0.36109 0.0
C2077 C 0.80074 0.97349 0.39138 0.0
C2078 C 0.7888 0.96671 0.40904 0.0
C2079 C 0.79657 0.95268 0.42289 0.0
C2080 C 0.78511 0.94612 0.43931 0.0
C2081 C 0.76589 0.95357 0.44212 0.0
C2082 C 0.75811 0.96763 0.42854 0.0
C2083 C 0.7695 0.97423 0.41208 0.0
H2084 H 0.75703 0.94846 0.45483 0.0
H2085 H 0.86228 0.01105 0.29094 0.0
H2086 H 0.28676 0.42693 0.62102 0.0
H2087 H 0.28506 0.46275 0.61434 0.0
H2088 H 0.34764 0.46841 0.62765 0.0
H2089 H 0.34912 0.43246 0.63555 0.0
H2090 H 0.32978 0.49731 0.64456 0.0
H2091 H 0.32764 0.47224 0.57736 0.0
H2092 H 0.31699 0.45084 0.54884 0.0
H2093 H 0.25779 0.47445 0.55338 0.0
H2094 H 0.268 0.4958 0.58211 0.0
H2095 H 0.32367 0.59914 0.60813 0.0
H2096 H 0.33239 0.56348 0.60901 0.0
H2097 H 0.27056 0.54811 0.61627 0.0
H2098 H 0.26167 0.58372 0.6157 0.0
H2099 H 0.29289 0.52514 0.58574 0.0
H2100 H 0.29676 0.54764 0.65623 0.0
H2101 H 0.30954 0.56957 0.68342 0.0
H2102 H 0.36922 0.55118 0.66972 0.0
H2103 H 0.35679 0.52934 0.64225 0.0
C2104 C 0.30023 0.43574 0.6223 0.0
C2105 C 0.31811 0.42689 0.62868 0.0
C2106 C 0.29928 0.45624 0.61833 0.0
C2107 C 0.31633 0.46829 0.61998 0.0
C2108 C 0.3343 0.45943 0.62616 0.0
C2109 C 0.33515 0.43891 0.63063 0.0
C2110 C 0.3149 0.49026 0.61643 0.0
C2111 C 0.3221 0.50335 0.63143 0.0
C2112 C 0.3048 0.49828 0.59937 0.0
C2113 C 0.29858 0.48555 0.58199 0.0
C2114 C 0.31232 0.47279 0.57236 0.0
C2115 C 0.30636 0.46067 0.55614 0.0
C2116 C 0.28672 0.46127 0.54932 0.0
C2117 C 0.273 0.47401 0.55868 0.0
C2118 C 0.27888 0.48615 0.57491 0.0
C2119 C 0.3119 0.58818 0.60981 0.0
C2120 C 0.29197 0.59424 0.61191 0.0
C2121 C 0.31693 0.56785 0.61035 0.0
C2122 C 0.3021 0.55328 0.61275 0.0
C2123 C 0.28217 0.55921 0.61438 0.0
C2124 C 0.27715 0.57954 0.61415 0.0
C2125 C 0.30731 0.53181 0.61406 0.0
C2126 C 0.30084 0.51894 0.59861 0.0
C2127 C 0.31846 0.52404 0.63043 0.0
C2128 C 0.32587 0.53705 0.64704 0.0
C2129 C 0.31262 0.54841 0.6589 0.0
C2130 C 0.31979 0.56079 0.67438 0.0
C2131 C 0.34018 0.56182 0.67825 0.0
C2132 C 0.35343 0.5504 0.66668 0.0
C2133 C 0.34633 0.53801 0.65117 0.0
H2134 H 0.34571 0.57141 0.69024 0.0
H2135 H 0.28213 0.45187 0.53677 0.0
H2136 H 0.80977 0.85974 0.45966 0.0
H2137 H 0.82774 0.85936 0.49202 0.0
H2138 H 0.8754 0.82604 0.46412 0.0
H2139 H 0.85785 0.82688 0.43156 0.0
H2140 H 0.84951 0.80894 0.50056 0.0
H2141 H 0.89173 0.86278 0.47726 0.0
H2142 H 0.89832 0.8963 0.46291 0.0
H2143 H 0.86737 0.92371 0.51275 0.0
H2144 H 0.86031 0.8903 0.52723 0.0
H2145 H 0.89801 0.79028 0.59168 0.0
H2146 H 0.89384 0.79939 0.55601 0.0
H2147 H 0.86496 0.85451 0.57393 0.0
H2148 H 0.8703 0.84596 0.6097 0.0
H2149 H 0.88443 0.86114 0.54071 0.0
H2150 H 0.83841 0.81048 0.56223 0.0
H2151 H 0.82779 0.77822 0.57708 0.0
H2152 H 0.86059 0.7463 0.53139 0.0
H2153 H 0.87161 0.77839 0.51643 0.0
C2154 C 0.8243 0.85277 0.46033 0.0
C2155 C 0.83238 0.84321 0.44321 0.0
C2156 C 0.83457 0.85268 0.47873 0.0
C2157 C 0.85288 0.84278 0.48029 0.0
C2158 C 0.86137 0.83394 0.46304 0.0
C2159 C 0.85132 0.83441 0.44452 0.0
C2160 C 0.86139 0.8389 0.50049 0.0
C2161 C 0.85754 0.82016 0.50924 0.0
C2162 C 0.87108 0.85392 0.51188 0.0
C2163 C 0.87529 0.87401 0.5032 0.0
C2164 C 0.88612 0.87593 0.48504 0.0
C2165 C 0.89 0.89492 0.47691 0.0
C2166 C 0.88322 0.91212 0.48688 0.0
C2167 C 0.87259 0.91037 0.50502 0.0
C2168 C 0.86866 0.89141 0.51321 0.0
C2169 C 0.89105 0.80448 0.58795 0.0
C2170 C 0.88418 0.8173 0.60332 0.0
C2171 C 0.88862 0.80965 0.5676 0.0
C2172 C 0.87854 0.82735 0.56228 0.0
C2173 C 0.87268 0.84072 0.57765 0.0
C2174 C 0.87565 0.83581 0.59806 0.0
C2175 C 0.87264 0.83102 0.5409 0.0
C2176 C 0.87672 0.84975 0.53198 0.0
C2177 C 0.86263 0.81615 0.52941 0.0
C2178 C 0.85601 0.79682 0.53836 0.0
C2179 C 0.84346 0.79657 0.55544 0.0
C2180 C 0.83736 0.77833 0.56387 0.0
C2181 C 0.84357 0.76022 0.55522 0.0
C2182 C 0.85584 0.76033 0.5381 0.0
C2183 C 0.86201 0.77854 0.52963 0.0
H2184 H 0.83882 0.74611 0.56176 0.0
H2185 H 0.88624 0.92681 0.48057 0.0
H2186 H 0.70015 0.1531 0.96643 0.0
H2187 H 0.68142 0.15305 -0.00186 0.0
H2188 H 0.62654 0.14877 0.96455 0.0
H2189 H 0.64521 0.14942 0.9327 0.0
H2190 H 0.62357 0.17723 0.9908 0.0
H2191 H 0.64346 0.10927 0.99469 0.0
H2192 H 0.66613 0.08023 0.99321 0.0
H2193 H 0.70007 0.10436 0.04267 0.0
H2194 H 0.67779 0.13369 0.04428 0.0
H2195 H 0.60236 0.15406 0.10673 0.0
H2196 H 0.60639 0.14294 0.07161 0.0
H2197 H 0.63146 0.20048 0.05589 0.0
H2198 H 0.62738 0.21179 0.09078 0.0
H2199 H 0.64104 0.13858 0.05262 0.0
H2200 H 0.6223 0.21175 0.00738 0.0
H2201 H 0.59758 0.23904 0.00845 0.0
H2202 H 0.55703 0.20083 0.04072 0.0
H2203 H 0.58137 0.1732 0.03959 0.0
C2204 C 0.68412 0.1518 0.9658 0.0
C2205 C 0.67414 0.15138 0.9471 0.0
C2206 C 0.67341 0.15165 0.98396 0.0
C2207 C 0.65255 0.15072 0.98375 0.0
C2208 C 0.64261 0.1495 0.96508 0.0
C2209 C 0.65331 0.14985 0.9469 0.0
C2210 C 0.64121 0.15302 0.00293 0.0
C2211 C 0.62723 0.16862 0.00427 0.0
C2212 C 0.64553 0.14141 0.02038 0.0
C2213 C 0.65897 0.12374 0.01954 0.0
C2214 C 0.65583 0.10845 0.00518 0.0
C2215 C 0.6686 0.09192 0.00432 0.0
C2216 C 0.68454 0.09046 0.01782 0.0
C2217 C 0.68771 0.10551 0.03223 0.0
C2218 C 0.67499 0.12207 0.03314 0.0
C2219 C 0.60839 0.16451 0.09573 0.0
C2220 C 0.61473 0.18378 0.10165 0.0
C2221 C 0.6107 0.15808 0.07567 0.0
C2222 C 0.61916 0.17089 0.06114 0.0
C2223 C 0.62465 0.19043 0.06679 0.0
C2224 C 0.62241 0.19684 0.08681 0.0
C2225 C 0.62422 0.16339 0.04062 0.0
C2226 C 0.63705 0.14686 0.03904 0.0
C2227 C 0.61854 0.17387 0.02289 0.0
C2228 C 0.60375 0.19042 0.02349 0.0
C2229 C 0.60807 0.20911 0.0146 0.0
C2230 C 0.59413 0.22466 0.01525 0.0
C2231 C 0.57577 0.22169 0.02469 0.0
C2232 C 0.57129 0.20314 0.03347 0.0
C2233 C 0.58517 0.18754 0.03286 0.0
H2234 H 0.565 0.23374 0.02517 0.0
H2235 H 0.69442 0.07765 0.01713 0.0
H2236 H 0.35043 0.70192 0.39859 0.0
H2237 H 0.3472 0.69255 0.43403 0.0
H2238 H 0.40341 0.66145 0.43128 0.0
H2239 H 0.40631 0.67012 0.39511 0.0
H2240 H 0.37824 0.64001 0.45227 0.0
H2241 H 0.39877 0.70788 0.45612 0.0
H2242 H 0.3994 0.74395 0.44772 0.0
H2243 H 0.33928 0.75015 0.46865 0.0
H2244 H 0.33817 0.71408 0.47691 0.0
H2245 H 0.35711 0.65719 0.56635 0.0
H2246 H 0.37584 0.65993 0.5345 0.0
H2247 H 0.32212 0.64938 0.50058 0.0
H2248 H 0.30332 0.64647 0.53215 0.0
H2249 H 0.35639 0.69148 0.50198 0.0
H2250 H 0.33698 0.61856 0.48418 0.0
H2251 H 0.33891 0.58284 0.49403 0.0
H2252 H 0.40192 0.58837 0.50267 0.0
H2253 H 0.40025 0.62419 0.4931 0.0
C2254 C 0.36222 0.69322 0.40551 0.0
C2255 C 0.37875 0.68696 0.39414 0.0
C2256 C 0.3604 0.68795 0.42585 0.0
C2257 C 0.37534 0.67679 0.43552 0.0
C2258 C 0.3918 0.67024 0.42418 0.0
C2259 C 0.39345 0.67521 0.40357 0.0
C2260 C 0.37309 0.67164 0.45731 0.0
C2261 C 0.37382 0.65137 0.46318 0.0
C2262 C 0.36774 0.68641 0.47181 0.0
C2263 C 0.36839 0.70823 0.4671 0.0
C2264 C 0.38565 0.71691 0.45886 0.0
C2265 C 0.38609 0.73736 0.45412 0.0
C2266 C 0.36939 0.74933 0.45764 0.0
C2267 C 0.35222 0.74087 0.46595 0.0
C2268 C 0.35169 0.72043 0.47071 0.0
C2269 C 0.34938 0.65498 0.55211 0.0
C2270 C 0.32871 0.65177 0.55171 0.0
C2271 C 0.36012 0.65647 0.53399 0.0
C2272 C 0.35035 0.65457 0.51533 0.0
C2273 C 0.32994 0.65047 0.51491 0.0
C2274 C 0.3192 0.64896 0.53296 0.0
C2275 C 0.36045 0.65999 0.49627 0.0
C2276 C 0.36129 0.68033 0.49107 0.0
C2277 C 0.36753 0.64542 0.48257 0.0
C2278 C 0.36845 0.62399 0.48817 0.0
C2279 C 0.35119 0.61216 0.48835 0.0
C2280 C 0.35224 0.59191 0.49384 0.0
C2281 C 0.37052 0.58335 0.49903 0.0
C2282 C 0.38777 0.59502 0.4987 0.0
C2283 C 0.38678 0.61528 0.49326 0.0
H2284 H 0.37131 0.56767 0.50326 0.0
H2285 H 0.36975 0.76515 0.45394 0.0
H2286 H 0.14183 0.33797 0.06712 0.0
H2287 H 0.12316 0.33837 0.03528 0.0
H2288 H 0.17772 0.3469 0.00194 0.0
H2289 H 0.19642 0.34687 0.03368 0.0
H2290 H 0.14751 0.3674 0.98447 0.0
H2291 H 0.15985 0.30014 0.01044 0.0
H2292 H 0.15774 0.27328 0.03614 0.0
H2293 H 0.09402 0.27656 0.03468 0.0
H2294 H 0.0958 0.30365 0.00913 0.0
H2295 H 0.13614 0.28703 0.90431 0.0
H2296 H 0.13889 0.29705 0.93955 0.0
H2297 H 0.10139 0.34838 0.92812 0.0
H2298 H 0.09899 0.33872 0.89229 0.0
H2299 H 0.11497 0.30208 0.97015 0.0
H2300 H 0.11802 0.38675 0.95892 0.0
H2301 H 0.1242 0.4118 0.932 0.0
H2302 H 0.16345 0.37064 0.90179 0.0
H2303 H 0.15765 0.34547 0.92864 0.0
C2304 C 0.1498 0.34026 0.05302 0.0
C2305 C 0.17062 0.34207 0.05283 0.0
C2306 C 0.13911 0.34053 0.03487 0.0
C2307 C 0.14909 0.34241 0.01626 0.0
C2308 C 0.16973 0.34547 0.01615 0.0
C2309 C 0.18042 0.3453 0.03429 0.0
C2310 C 0.13866 0.33883 0.99684 0.0
C2311 C 0.1401 0.35326 0.98139 0.0
C2312 C 0.12905 0.32036 0.99284 0.0
C2313 C 0.12796 0.30406 0.00811 0.0
C2314 C 0.1454 0.29522 0.01572 0.0
C2315 C 0.14427 0.27995 0.03024 0.0
C2316 C 0.12576 0.27327 0.03709 0.0
C2317 C 0.10835 0.2818 0.0294 0.0
C2318 C 0.10941 0.2971 0.0149 0.0
C2319 C 0.12827 0.30037 0.9092 0.0
C2320 C 0.11755 0.31221 0.89535 0.0
C2321 C 0.12978 0.30603 0.92946 0.0
C2322 C 0.12051 0.32357 0.93645 0.0
C2323 C 0.1089 0.33493 0.92297 0.0
C2324 C 0.10753 0.32937 0.90252 0.0
C2325 C 0.12448 0.33033 0.95749 0.0
C2326 C 0.12173 0.31653 0.97334 0.0
C2327 C 0.13337 0.34914 0.96169 0.0
C2328 C 0.1372 0.36419 0.94562 0.0
C2329 C 0.128 0.38309 0.94654 0.0
C2330 C 0.13143 0.3973 0.9313 0.0
C2331 C 0.14415 0.39278 0.91515 0.0
C2332 C 0.15354 0.37409 0.91426 0.0
C2333 C 0.15018 0.35985 0.92947 0.0
H2334 H 0.14676 0.40379 0.90336 0.0
H2335 H 0.12491 0.26144 0.04832 0.0
H2336 H 0.59978 0.8836 0.86203 0.0
H2337 H 0.56382 0.88075 0.85875 0.0
H2338 H 0.56962 0.87802 0.79358 0.0
H2339 H 0.60583 0.88073 0.79676 0.0
H2340 H 0.53233 0.89917 0.83976 0.0
H2341 H 0.54032 0.83883 0.77818 0.0
H2342 H 0.56551 0.81544 0.7646 0.0
H2343 H 0.59407 0.81332 0.82285 0.0
H2344 H 0.56889 0.83643 0.8368 0.0
H2345 H 0.43523 0.85999 0.81403 0.0
H2346 H 0.46816 0.87571 0.81365 0.0
H2347 H 0.49289 0.82329 0.84272 0.0
H2348 H 0.46028 0.80736 0.84256 0.0
H2349 H 0.51416 0.83276 0.81118 0.0
H2350 H 0.48585 0.86908 0.8678 0.0
H2351 H 0.4612 0.89077 0.88475 0.0
H2352 H 0.4737 0.93813 0.84239 0.0
H2353 H 0.49825 0.91661 0.82503 0.0
C2354 C 0.5934 0.8828 0.84696 0.0
C2355 C 0.60562 0.882 0.82966 0.0
C2356 C 0.57282 0.88135 0.84511 0.0
C2357 C 0.5641 0.87892 0.82596 0.0
C2358 C 0.57612 0.87973 0.80852 0.0
C2359 C 0.59678 0.88126 0.81036 0.0
C2360 C 0.54305 0.8726 0.82467 0.0
C2361 C 0.52825 0.88477 0.83329 0.0
C2362 C 0.53784 0.85366 0.81658 0.0
C2363 C 0.5529 0.83956 0.80842 0.0
C2364 C 0.55196 0.83333 0.78807 0.0
C2365 C 0.56622 0.82012 0.78032 0.0
C2366 C 0.58143 0.81297 0.79283 0.0
C2367 C 0.58234 0.81893 0.81315 0.0
C2368 C 0.56808 0.83209 0.82098 0.0
C2369 C 0.44767 0.85197 0.82058 0.0
C2370 C 0.44526 0.83241 0.82821 0.0
C2371 C 0.46646 0.86097 0.82038 0.0
C2372 C 0.483 0.85066 0.82812 0.0
C2373 C 0.48038 0.83146 0.83649 0.0
C2374 C 0.46172 0.82239 0.83646 0.0
C2375 C 0.50332 0.85915 0.82658 0.0
C2376 C 0.51804 0.84736 0.81732 0.0
C2377 C 0.50843 0.87821 0.83452 0.0
C2378 C 0.49372 0.89116 0.84498 0.0
C2379 C 0.48323 0.88406 0.862 0.0
C2380 C 0.4693 0.89634 0.87171 0.0
C2381 C 0.46584 0.9158 0.86461 0.0
C2382 C 0.47636 0.92304 0.84784 0.0
C2383 C 0.49029 0.91082 0.83808 0.0
H2384 H 0.45505 0.92528 0.87214 0.0
H2385 H 0.59247 0.80276 0.7868 0.0
H2386 H 0.89716 0.10756 0.35744 0.0
H2387 H 0.93297 0.10779 0.35181 0.0
H2388 H 0.92343 0.10931 0.28708 0.0
H2389 H 0.88737 0.10904 0.29264 0.0
H2390 H 0.96286 0.08728 0.33027 0.0
H2391 H 0.95296 0.14803 0.27018 0.0
H2392 H 0.92765 0.17197 0.25788 0.0
H2393 H 0.9024 0.17527 0.31769 0.0
H2394 H 0.92773 0.15161 0.33036 0.0
H2395 H 0.06034 0.13069 0.30752 0.0
H2396 H 0.0281 0.11354 0.30469 0.0
H2397 H 0.00017 0.16213 0.33732 0.0
H2398 H 0.03194 0.17938 0.33974 0.0
H2399 H 0.98077 0.15446 0.30335 0.0
H2400 H 0.00917 0.11527 0.35887 0.0
H2401 H 0.03414 0.09276 0.37414 0.0
H2402 H 0.0224 0.0485 0.32829 0.0
H2403 H 0.99752 0.07087 0.31263 0.0
C2404 C 0.90267 0.10744 0.34199 0.0
C2405 C 0.88952 0.10867 0.32548 0.0
C2406 C 0.92315 0.10736 0.33879 0.0
C2407 C 0.93083 0.10876 0.31906 0.0
C2408 C 0.91775 0.10827 0.30244 0.0
C2409 C 0.89718 0.10817 0.30564 0.0
C2410 C 0.95194 0.11441 0.31638 0.0
C2411 C 0.96689 0.10181 0.32407 0.0
C2412 C 0.95714 0.13343 0.30849 0.0
C2413 C 0.94202 0.14786 0.30111 0.0
C2414 C 0.94201 0.15391 0.28068 0.0
C2415 C 0.92768 0.16743 0.27366 0.0
C2416 C 0.91337 0.17506 0.28698 0.0
C2417 C 0.91343 0.16928 0.30737 0.0
C2418 C 0.92776 0.15582 0.31448 0.0
C2419 C 0.04732 0.13751 0.31432 0.0
C2420 C 0.04857 0.15643 0.32371 0.0
C2421 C 0.02895 0.12772 0.31268 0.0
C2422 C 0.01171 0.13664 0.32066 0.0
C2423 C 0.01322 0.15509 0.33082 0.0
C2424 C 0.03141 0.16491 0.33226 0.0
C2425 C 0.99176 0.12763 0.31782 0.0
C2426 C 0.97697 0.13963 0.30899 0.0
C2427 C 0.98677 0.10824 0.32498 0.0
C2428 C 0.00167 0.09483 0.33445 0.0
C2429 C 0.01204 0.10081 0.35196 0.0
C2430 C 0.02615 0.08806 0.3607 0.0
C2431 C 0.0299 0.06924 0.35215 0.0
C2432 C 0.01951 0.0631 0.33488 0.0
C2433 C 0.0054 0.0758 0.32607 0.0
H2434 H 0.04083 0.05939 0.35894 0.0
H2435 H 0.90227 0.1855 0.28151 0.0
H2436 H 0.10562 0.59662 0.14091 0.0
H2437 H 0.06928 0.59808 0.14031 0.0
H2438 H 0.06972 0.62978 0.1975 0.0
H2439 H 0.10597 0.62688 0.1988 0.0
H2440 H 0.03719 0.60984 0.1955 0.0
H2441 H 0.07178 0.65434 0.14901 0.0
H2442 H 0.09457 0.66209 0.1207 0.0
H2443 H 0.0593 0.62596 0.08052 0.0
H2444 H 0.03643 0.61782 0.10868 0.0
H2445 H 0.96735 0.69125 0.15488 0.0
H2446 H 0.99903 0.67366 0.15469 0.0
H2447 H 0.96911 0.61799 0.16846 0.0
H2448 H 0.93716 0.63571 0.16908 0.0
H2449 H 0.01438 0.64464 0.13311 0.0
H2450 H 0.00055 0.59035 0.19964 0.0
H2451 H 0.97931 0.58749 0.23008 0.0
H2452 H 0.97509 0.65172 0.23357 0.0
H2453 H 0.9965 0.65494 0.20333 0.0
C2454 C 0.09783 0.60337 0.15359 0.0
C2455 C 0.10841 0.61187 0.16978 0.0
C2456 C 0.07712 0.60429 0.15321 0.0
C2457 C 0.06678 0.61466 0.16851 0.0
C2458 C 0.07733 0.62181 0.18545 0.0
C2459 C 0.09803 0.62023 0.18618 0.0
C2460 C 0.04559 0.6203 0.16574 0.0
C2461 C 0.03215 0.61724 0.18177 0.0
C2462 C 0.03898 0.63022 0.14793 0.0
C2463 C 0.05255 0.63531 0.13096 0.0
C2464 C 0.06895 0.648 0.13414 0.0
C2465 C 0.08187 0.65245 0.11814 0.0
C2466 C 0.07841 0.64448 0.09884 0.0
C2467 C 0.06198 0.63209 0.09549 0.0
C2468 C 0.04903 0.62756 0.11145 0.0
C2469 C 0.96744 0.67523 0.1577 0.0
C2470 C 0.94978 0.66489 0.16213 0.0
C2471 C 0.98557 0.66517 0.15752 0.0
C2472 C 0.98647 0.64455 0.16175 0.0
C2473 C 0.96878 0.63396 0.16542 0.0
C2474 C 0.95055 0.64408 0.16567 0.0
C2475 C 0.00614 0.63462 0.16303 0.0
C2476 C 0.01928 0.63681 0.14666 0.0
C2477 C 0.01262 0.6246 0.1808 0.0
C2478 C -0.00012 0.62285 0.19908 0.0
C2479 C 0.9951 0.60384 0.20693 0.0
C2480 C 0.98304 0.60217 0.22415 0.0
C2481 C 0.97578 0.61941 0.2337 0.0
C2482 C 0.98064 0.63837 0.22611 0.0
C2483 C 0.99272 0.64013 0.20892 0.0
H2484 H 0.96644 0.61808 0.24701 0.0
H2485 H 0.08844 0.64793 0.08647 0.0
H2486 H 0.39784 0.37952 0.63432 0.0
H2487 H 0.43366 0.37912 0.6391 0.0
H2488 H 0.42578 0.39094 0.70301 0.0
H2489 H 0.3896 0.39098 0.69835 0.0
H2490 H 0.46361 0.40183 0.65286 0.0
H2491 H 0.45819 0.36012 0.72818 0.0
H2492 H 0.434 0.34091 0.74864 0.0
H2493 H 0.40444 0.32172 0.69424 0.0
H2494 H 0.42859 0.34062 0.6735 0.0
H2495 H 0.56248 0.36541 0.67858 0.0
H2496 H 0.53025 0.38263 0.68006 0.0
H2497 H 0.50073 0.32737 0.66405 0.0
H2498 H 0.53261 0.31012 0.66286 0.0
H2499 H 0.4835 0.34433 0.69618 0.0
H2500 H 0.50717 0.36579 0.62977 0.0
H2501 H 0.53068 0.38239 0.60644 0.0
H2502 H 0.52302 0.43804 0.6384 0.0
H2503 H 0.49961 0.42168 0.66207 0.0
C2504 C 0.40369 0.38241 0.64935 0.0
C2505 C 0.39091 0.38487 0.66605 0.0
C2506 C 0.42422 0.38236 0.65203 0.0
C2507 C 0.4324 0.3847 0.67145 0.0
C2508 C 0.41974 0.38888 0.68792 0.0
C2509 C 0.3991 0.38891 0.68524 0.0
C2510 C 0.45367 0.37975 0.67452 0.0
C2511 C 0.46806 0.3895 0.66262 0.0
C2512 C 0.45947 0.36355 0.68709 0.0
C2513 C 0.445 0.35198 0.69936 0.0
C2514 C 0.44653 0.35177 0.72062 0.0
C2515 C 0.43284 0.34094 0.73225 0.0
C2516 C 0.41764 0.33017 0.72275 0.0
C2517 C 0.41617 0.33013 0.70159 0.0
C2518 C 0.42984 0.34089 0.68989 0.0
C2519 C 0.5491 0.35703 0.67516 0.0
C2520 C 0.55004 0.3364 0.67068 0.0
C2521 C 0.53073 0.36687 0.67604 0.0
C2522 C 0.51309 0.35624 0.67228 0.0
C2523 C 0.51413 0.33581 0.66722 0.0
C2524 C 0.53239 0.32599 0.66645 0.0
C2525 C 0.49334 0.36593 0.67398 0.0
C2526 C 0.47925 0.3571 0.68691 0.0
C2527 C 0.4878 0.38267 0.66203 0.0
C2528 C 0.50186 0.39246 0.64783 0.0
C2529 C 0.51063 0.38152 0.63192 0.0
C2530 C 0.52391 0.3909 0.61862 0.0
C2531 C 0.5284 0.41124 0.62098 0.0
C2532 C 0.51956 0.42227 0.63662 0.0
C2533 C 0.50629 0.41296 0.64997 0.0
H2534 H 0.53867 0.41848 0.61066 0.0
H2535 H 0.40705 0.32182 0.73178 0.0
H2536 H 0.80362 0.5976 0.87496 0.0
H2537 H 0.80446 0.56102 0.87277 0.0
H2538 H 0.85961 0.56034 0.90629 0.0
H2539 H 0.85938 0.59701 0.90724 0.0
H2540 H 0.86506 0.54083 0.87484 0.0
H2541 H 0.81392 0.53787 0.92421 0.0
H2542 H 0.78222 0.54624 0.94099 0.0
H2543 H 0.75 0.52525 0.88892 0.0
H2544 H 0.78149 0.51701 0.8717 0.0
H2545 H 0.83298 0.42807 0.86263 0.0
H2546 H 0.83302 0.45925 0.88236 0.0
H2547 H 0.84703 0.49273 0.82814 0.0
H2548 H 0.8472 0.46175 0.80842 0.0
H2549 H 0.80951 0.49207 0.87857 0.0
H2550 H 0.87698 0.53084 0.83918 0.0
H2551 H 0.90951 0.52127 0.82488 0.0
H2552 H 0.9108 0.46892 0.86289 0.0
H2553 H 0.87844 0.47833 0.87765 0.0
C2554 C 0.8156 0.58956 0.88233 0.0
C2555 C 0.83152 0.59999 0.8911 0.0
C2556 C 0.81604 0.56861 0.88121 0.0
C2557 C 0.83211 0.5578 0.88941 0.0
C2558 C 0.84715 0.56829 0.89969 0.0
C2559 C 0.84699 0.58922 0.90029 0.0
C2560 C 0.83475 0.53616 0.88457 0.0
C2561 C 0.85294 0.53016 0.87598 0.0
C2562 C 0.81914 0.522 0.88631 0.0
C2563 C 0.80011 0.5269 0.89662 0.0
C2564 C 0.80008 0.53515 0.91628 0.0
C2565 C 0.78214 0.53986 0.92588 0.0
C2566 C 0.76411 0.5363 0.91602 0.0
C2567 C 0.76398 0.52799 0.89655 0.0
C2568 C 0.78187 0.52326 0.88687 0.0
C2569 C 0.8363 0.44206 0.85498 0.0
C2570 C 0.84014 0.44249 0.83399 0.0
C2571 C 0.83621 0.45984 0.86625 0.0
C2572 C 0.84015 0.47825 0.85674 0.0
C2573 C 0.84422 0.47864 0.83583 0.0
C2574 C 0.84428 0.46093 0.82457 0.0
C2575 C 0.83945 0.49728 0.8683 0.0
C2576 C 0.82168 0.50274 0.878 0.0
C2577 C 0.85556 0.51085 0.86805 0.0
C2578 C 0.8752 0.50525 0.85943 0.0
C2579 C 0.88426 0.51735 0.84458 0.0
C2580 C 0.90266 0.51194 0.83638 0.0
C2581 C 0.9122 0.49448 0.84294 0.0
C2582 C 0.90338 0.48242 0.85777 0.0
C2583 C 0.88499 0.48777 0.86605 0.0
H2584 H 0.92643 0.49031 0.83655 0.0
H2585 H 0.75024 0.53996 0.92348 0.0
H2586 H 0.35077 0.90278 0.08316 0.0
H2587 H 0.34989 0.93929 0.08663 0.0
H2588 H 0.29499 0.93482 0.12022 0.0
H2589 H 0.29533 0.89831 0.11584 0.0
H2590 H 0.29775 0.97111 0.10152 0.0
H2591 H 0.33829 0.92941 0.14484 0.0
H2592 H 0.36378 0.90363 0.15151 0.0
H2593 H 0.40757 0.9397 0.12115 0.0
H2594 H 0.38221 0.96556 0.11402 0.0
H2595 H 0.34008 0.03379 0.19001 0.0
H2596 H 0.33745 0.00271 0.17075 0.0
H2597 H 0.32847 0.03657 0.11565 0.0
H2598 H 0.33064 0.06791 0.13501 0.0
H2599 H 0.35825 0.98703 0.14151 0.0
H2600 H 0.29657 0.00914 0.08483 0.0
H2601 H 0.2685 0.03288 0.08229 0.0
H2602 H 0.26311 0.03371 0.14725 0.0
H2603 H 0.29094 0.00979 0.15014 0.0
C2604 C 0.33811 0.90971 0.09054 0.0
C2605 C 0.32328 0.89788 0.09955 0.0
C2606 C 0.33761 0.93053 0.09252 0.0
C2607 C 0.3227 0.93966 0.10421 0.0
C2608 C 0.30669 0.92804 0.11123 0.0
C2609 C 0.30691 0.9072 0.10878 0.0
C2610 C 0.32584 0.96008 0.11247 0.0
C2611 C 0.31106 0.97473 0.11004 0.0
C2612 C 0.34299 0.96459 0.12408 0.0
C2613 C 0.35834 0.94929 0.12872 0.0
C2614 C 0.35334 0.93179 0.13951 0.0
C2615 C 0.36775 0.91717 0.14337 0.0
C2616 C 0.38727 0.92001 0.13672 0.0
C2617 C 0.39243 0.93751 0.12626 0.0
C2618 C 0.37805 0.95215 0.1223 0.0
C2619 C 0.3377 0.03467 0.17377 0.0
C2620 C 0.33549 0.05327 0.16403 0.0
C2621 C 0.33622 0.01688 0.16277 0.0
C2622 C 0.33255 0.01732 0.1418 0.0
C2623 C 0.33099 0.0359 0.13187 0.0
C2624 C 0.33237 0.05376 0.14292 0.0
C2625 C 0.33015 -0.00182 0.13064 0.0
C2626 C 0.34511 0.98368 0.13258 0.0
C2627 C 0.31286 0.99367 0.11925 0.0
C2628 C 0.296 0.0079 0.11769 0.0
C2629 C 0.28935 0.01437 0.09855 0.0
C2630 C 0.27349 0.02785 0.09706 0.0
C2631 C 0.26408 0.03486 0.1146 0.0
C2632 C 0.27046 0.02834 0.13368 0.0
C2633 C 0.28629 0.01484 0.13525 0.0
H2634 H 0.25182 0.0453 0.11341 0.0
H2635 H 0.39841 0.90867 0.1397 0.0
H2636 H 0.16758 0.92536 0.62088 0.0
H2637 H 0.17066 0.95663 0.60129 0.0
H2638 H 0.15623 0.99081 0.65493 0.0
H2639 H 0.15337 0.95994 0.6745 0.0
H2640 H 0.14556 0.98992 0.59357 0.0
H2641 H 0.18878 0.02783 0.65965 0.0
H2642 H 0.21161 0.01787 0.68713 0.0
H2643 H 0.23024 0.96661 0.65248 0.0
H2644 H 0.20777 0.97644 0.62465 0.0
H2645 H 0.13419 0.0934 0.60434 0.0
H2646 H 0.1365 0.05694 0.6036 0.0
H2647 H 0.19926 0.06103 0.59076 0.0
H2648 H 0.19711 0.09769 0.59183 0.0
H2649 H 0.19339 0.03885 0.6225 0.0
H2650 H 0.16755 0.03877 0.5564 0.0
H2651 H 0.14577 0.04809 0.52786 0.0
H2652 H 0.09553 0.02302 0.55906 0.0
H2653 H 0.11693 0.01382 0.58795 0.0
C2654 C 0.16479 0.93956 0.62837 0.0
C2655 C 0.16049 0.94027 0.64926 0.0
C2656 C 0.16654 0.95735 0.61718 0.0
C2657 C 0.16405 0.97596 0.6268 0.0
C2658 C 0.15858 0.97657 0.64734 0.0
C2659 C 0.15692 0.95891 0.65849 0.0
C2660 C 0.16817 0.99499 0.61607 0.0
C2661 C 0.15613 0.00062 0.59967 0.0
C2662 C 0.18253 0.00856 0.62361 0.0
C2663 C 0.19651 0.00285 0.64008 0.0
C2664 C 0.19787 0.01453 0.65781 0.0
C2665 C 0.21072 0.00888 0.67347 0.0
C2666 C 0.22234 0.9916 0.67156 0.0
C2667 C 0.22119 0.97997 0.65396 0.0
C2668 C 0.20839 0.98557 0.63824 0.0
C2669 C 0.14841 0.08657 0.60094 0.0
C2670 C 0.16552 0.09839 0.59843 0.0
C2671 C 0.14968 0.06569 0.60031 0.0
C2672 C 0.16804 0.05622 0.59701 0.0
C2673 C 0.18494 0.06803 0.5933 0.0
C2674 C 0.18369 0.08896 0.59395 0.0
C2675 C 0.16994 0.03436 0.60069 0.0
C2676 C 0.18316 0.02811 0.61588 0.0
C2677 C 0.15691 0.02021 0.59175 0.0
C2678 C 0.14388 0.02566 0.57441 0.0
C2679 C 0.15184 0.03536 0.55725 0.0
C2680 C 0.13955 0.04061 0.54099 0.0
C2681 C 0.11928 0.03616 0.54165 0.0
C2682 C 0.11125 0.02644 0.55856 0.0
C2683 C 0.12346 0.02116 0.57487 0.0
H2684 H 0.10979 0.04024 0.52904 0.0
H2685 H 0.23225 0.98724 0.68372 0.0
H2686 H 0.6393 0.40207 0.40625 0.0
H2687 H 0.63842 0.4385 0.40195 0.0
H2688 H 0.6975 0.43702 0.37646 0.0
H2689 H 0.69879 0.40064 0.38172 0.0
H2690 H 0.69147 0.47214 0.39487 0.0
H2691 H 0.65672 0.43128 0.3461 0.0
H2692 H 0.63258 0.40551 0.33538 0.0
H2693 H 0.58498 0.44007 0.3612 0.0
H2694 H 0.60891 0.46591 0.37233 0.0
H2695 H 0.65785 0.53774 0.30484 0.0
H2696 H 0.6588 0.50595 0.32302 0.0
H2697 H 0.66096 0.53765 0.38011 0.0
H2698 H 0.6604 0.56975 0.36187 0.0
H2699 H 0.63523 0.48866 0.34909 0.0
H2700 H 0.69018 0.50946 0.41307 0.0
H2701 H 0.71739 0.53347 0.41955 0.0
H2702 H 0.72945 0.53697 0.35563 0.0
H2703 H 0.70252 0.5128 0.3488 0.0
C2704 C 0.65232 0.40964 0.40032 0.0
C2705 C 0.66899 0.39862 0.39399 0.0
C2706 C 0.6518 0.43042 0.39785 0.0
C2707 C 0.66766 0.44038 0.38833 0.0
C2708 C 0.68505 0.42963 0.38374 0.0
C2709 C 0.68576 0.40885 0.38669 0.0
C2710 C 0.66497 0.46103 0.3804 0.0
C2711 C 0.67906 0.47585 0.38505 0.0
C2712 C 0.64905 0.46574 0.36717 0.0
C2713 C 0.6346 0.4504 0.36022 0.0
C2714 C 0.64111 0.43332 0.34957 0.0
C2715 C 0.62748 0.41871 0.34343 0.0
C2716 C 0.60727 0.42113 0.34765 0.0
C2717 C 0.60065 0.4382 0.35797 0.0
C2718 C 0.61423 0.45283 0.3642 0.0
C2719 C 0.65837 0.538 0.32127 0.0
C2720 C 0.65914 0.55624 0.33192 0.0
C2721 C 0.65888 0.5198 0.33165 0.0
C2722 C 0.66015 0.51942 0.35291 0.0
C2723 C 0.66025 0.53761 0.36369 0.0
C2724 C 0.65981 0.55591 0.35326 0.0
C2725 C 0.66175 0.49984 0.36348 0.0
C2726 C 0.64741 0.48516 0.35928 0.0
C2727 C 0.67783 0.49513 0.37649 0.0
C2728 C 0.69416 0.50954 0.38043 0.0
C2729 C 0.69867 0.51534 0.40041 0.0
C2730 C 0.71404 0.52897 0.40414 0.0
C2731 C 0.72508 0.5368 0.38801 0.0
C2732 C 0.72083 0.53096 0.36811 0.0
C2733 C 0.7055 0.51732 0.3643 0.0
H2734 H 0.73697 0.54736 0.39093 0.0
H2735 H 0.59673 0.4098 0.34289 0.0
loop_
_geom_bond_atom_site_label_1
_geom_bond_atom_site_label_2
_geom_bond_distance
_geom_bond_site_symmetry_2
_ccdc_geom_bond_type
Co0 O1 2.216 . S
Co0 O2 2.091 . S
Co0 O4 2.004 . S
Co0 O10 2.021 . S
Co0 O12 2.137 . S
Co0 O13 2.244 . S
O1 Co0 2.216 . S
O1 C8 1.247 . S
O2 Co0 2.091 . S
O2 C8 1.261 . S
C3 O12 1.247 . S
C3 O13 1.272 . S
O4 Co0 2.004 . S
O4 C9 1.259 . S
Co5 O6 2.061 . S
Co5 O11 2.052 . S
Co5 O13 2.135 . S
O6 Co5 2.061 . S
O6 C9 1.235 . S
C7 O10 1.238 . S
C7 O11 1.241 . S
C8 O1 1.247 . S
C8 O2 1.261 . S
C9 O4 1.259 . S
C9 O6 1.235 . S
O10 Co0 2.021 . S
O10 C7 1.238 . S
O11 Co5 2.052 . S
O11 C7 1.241 . S
O12 Co0 2.137 . S
O12 C3 1.247 . S
O13 Co0 2.244 . S
O13 C3 1.272 . S
O13 Co5 2.135 . S
Co14 O15 2.216 . S
Co14 O16 2.091 . S
Co14 O18 2.004 . S
Co14 O24 2.021 . S
Co14 O26 2.137 . S
Co14 O27 2.244 . S
O15 Co14 2.216 . S
O15 C22 1.247 . S
O16 Co14 2.091 . S
O16 C22 1.261 . S
C17 O26 1.247 . S
C17 O27 1.272 . S
O18 Co14 2.004 . S
O18 C23 1.259 . S
Co19 O20 2.061 . S
Co19 O25 2.052 . S
Co19 O27 2.135 . S
O20 Co19 2.061 . S
O20 C23 1.235 . S
C21 O24 1.238 . S
C21 O25 1.241 . S
C22 O15 1.247 . S
C22 O16 1.261 . S
C23 O18 1.259 . S
C23 O20 1.235 . S
O24 Co14 2.021 . S
O24 C21 1.238 . S
O25 Co19 2.052 . S
O25 C21 1.241 . S
O26 Co14 2.137 . S
O26 C17 1.247 . S
O27 Co14 2.244 . S
O27 C17 1.272 . S
O27 Co19 2.135 . S
Co28 O29 2.216 . S
Co28 O30 2.091 . S
Co28 O32 2.004 . S
Co28 O38 2.021 . S
Co28 O40 2.137 . S
Co28 O41 2.244 . S
O29 Co28 2.216 . S
O29 C36 1.247 . S
O30 Co28 2.091 . S
O30 C36 1.261 . S
C31 O40 1.247 . S
C31 O41 1.272 . S
O32 Co28 2.004 . S
O32 C37 1.259 . S
Co33 O34 2.061 . S
Co33 O39 2.052 . S
Co33 O41 2.135 . S
O34 Co33 2.061 . S
O34 C37 1.235 . S
C35 O38 1.238 . S
C35 O39 1.241 . S
C36 O29 1.247 . S
C36 O30 1.261 . S
C37 O32 1.259 . S
C37 O34 1.235 . S
O38 Co28 2.021 . S
O38 C35 1.238 . S
O39 Co33 2.052 . S
O39 C35 1.241 . S
O40 Co28 2.137 . S
O40 C31 1.247 . S
O41 Co28 2.244 . S
O41 C31 1.272 . S
O41 Co33 2.135 . S
Co42 O43 2.216 . S
Co42 O44 2.091 . S
Co42 O46 2.004 . S
Co42 O52 2.021 . S
Co42 O54 2.137 . S
Co42 O55 2.244 . S
O43 Co42 2.216 . S
O43 C50 1.247 . S
O44 Co42 2.091 . S
O44 C50 1.261 . S
C45 O54 1.247 . S
C45 O55 1.272 . S
O46 Co42 2.004 . S
O46 C51 1.259 . S
Co47 O48 2.061 . S
Co47 O53 2.052 . S
Co47 O55 2.135 . S
O48 Co47 2.061 . S
O48 C51 1.235 . S
C49 O52 1.238 . S
C49 O53 1.241 . S
C50 O43 1.247 . S
C50 O44 1.261 . S
C51 O46 1.259 . S
C51 O48 1.235 . S
O52 Co42 2.021 . S
O52 C49 1.238 . S
O53 Co47 2.052 . S
O53 C49 1.241 . S
O54 Co42 2.137 . S
O54 C45 1.247 . S
O55 Co42 2.244 . S
O55 C45 1.272 . S
O55 Co47 2.135 . S
Co56 O57 2.216 . S
Co56 O58 2.091 . S
Co56 O60 2.004 . S
Co56 O66 2.021 . S
Co56 O68 2.137 . S
Co56 O69 2.244 . S
O57 Co56 2.216 . S
O57 C64 1.247 . S
O58 Co56 2.091 . S
O58 C64 1.261 . S
C59 O68 1.247 . S
C59 O69 1.272 . S
O60 Co56 2.004 . S
O60 C65 1.259 . S
Co61 O62 2.061 . S
Co61 O67 2.052 . S
Co61 O69 2.135 . S
O62 Co61 2.061 . S
O62 C65 1.235 . S
C63 O66 1.238 . S
C63 O67 1.241 . S
C64 O57 1.247 . S
C64 O58 1.261 . S
C65 O60 1.259 . S
C65 O62 1.235 . S
O66 Co56 2.021 . S
O66 C63 1.238 . S
O67 Co61 2.052 . S
O67 C63 1.241 . S
O68 Co56 2.137 . S
O68 C59 1.247 . S
O69 Co56 2.244 . S
O69 C59 1.272 . S
O69 Co61 2.135 . S
Co70 O71 2.216 . S
Co70 O72 2.091 . S
Co70 O74 2.004 . S
Co70 O80 2.021 . S
Co70 O82 2.137 . S
Co70 O83 2.244 . S
O71 Co70 2.216 . S
O71 C78 1.247 . S
O72 Co70 2.091 . S
O72 C78 1.261 . S
C73 O82 1.247 . S
C73 O83 1.272 . S
O74 Co70 2.004 . S
O74 C79 1.259 . S
Co75 O76 2.061 . S
Co75 O81 2.052 . S
Co75 O83 2.135 . S
O76 Co75 2.061 . S
O76 C79 1.235 . S
C77 O80 1.238 . S
C77 O81 1.241 . S
C78 O71 1.247 . S
C78 O72 1.261 . S
C79 O74 1.259 . S
C79 O76 1.235 . S
O80 Co70 2.021 . S
O80 C77 1.238 . S
O81 Co75 2.052 . S
O81 C77 1.241 . S
O82 Co70 2.137 . S
O82 C73 1.247 . S
O83 Co70 2.244 . S
O83 C73 1.272 . S
O83 Co75 2.135 . S
Co84 O85 2.216 . S
Co84 O86 2.091 . S
Co84 O88 2.004 . S
Co84 O94 2.021 . S
Co84 O96 2.137 . S
Co84 O97 2.244 . S
O85 Co84 2.216 . S
O85 C92 1.247 . S
O86 Co84 2.091 . S
O86 C92 1.261 . S
C87 O96 1.247 . S
C87 O97 1.272 . S
O88 Co84 2.004 . S
O88 C93 1.259 . S
Co89 O90 2.061 . S
Co89 O95 2.052 . S
Co89 O97 2.135 . S
O90 Co89 2.061 . S
O90 C93 1.235 . S
C91 O94 1.238 . S
C91 O95 1.241 . S
C92 O85 1.247 . S
C92 O86 1.261 . S
C93 O88 1.259 . S
C93 O90 1.235 . S
O94 Co84 2.021 . S
O94 C91 1.238 . S
O95 Co89 2.052 . S
O95 C91 1.241 . S
O96 Co84 2.137 . S
O96 C87 1.247 . S
O97 Co84 2.244 . S
O97 C87 1.272 . S
O97 Co89 2.135 . S
Co98 O99 2.216 . S
Co98 O100 2.091 . S
Co98 O102 2.004 . S
Co98 O108 2.021 . S
Co98 O110 2.137 . S
Co98 O111 2.244 . S
O99 Co98 2.216 . S
O99 C106 1.247 . S
O100 Co98 2.091 . S
O100 C106 1.261 . S
C101 O110 1.247 . S
C101 O111 1.272 . S
O102 Co98 2.004 . S
O102 C107 1.259 . S
Co103 O104 2.061 . S
Co103 O109 2.052 . S
Co103 O111 2.135 . S
O104 Co103 2.061 . S
O104 C107 1.235 . S
C105 O108 1.238 . S
C105 O109 1.241 . S
C106 O99 1.247 . S
C106 O100 1.261 . S
C107 O102 1.259 . S
C107 O104 1.235 . S
O108 Co98 2.021 . S
O108 C105 1.238 . S
O109 Co103 2.052 . S
O109 C105 1.241 . S
O110 Co98 2.137 . S
O110 C101 1.247 . S
O111 Co98 2.244 . S
O111 C101 1.272 . S
O111 Co103 2.135 . S
Co112 O113 2.216 . S
Co112 O114 2.091 . S
Co112 O116 2.004 . S
Co112 O122 2.021 . S
Co112 O124 2.137 . S
Co112 O125 2.244 . S
O113 Co112 2.216 . S
O113 C120 1.247 . S
O114 Co112 2.091 . S
O114 C120 1.261 . S
C115 O124 1.247 . S
C115 O125 1.272 . S
O116 Co112 2.004 . S
O116 C121 1.259 . S
Co117 O118 2.061 . S
Co117 O123 2.052 . S
Co117 O125 2.135 . S
O118 Co117 2.061 . S
O118 C121 1.235 . S
C119 O122 1.238 . S
C119 O123 1.241 . S
C120 O113 1.247 . S
C120 O114 1.261 . S
C121 O116 1.259 . S
C121 O118 1.235 . S
O122 Co112 2.021 . S
O122 C119 1.238 . S
O123 Co117 2.052 . S
O123 C119 1.241 . S
O124 Co112 2.137 . S
O124 C115 1.247 . S
O125 Co112 2.244 . S
O125 C115 1.272 . S
O125 Co117 2.135 . S
Co126 O127 2.216 . S
Co126 O128 2.091 . S
Co126 O130 2.004 . S
Co126 O136 2.021 . S
Co126 O138 2.137 . S
Co126 O139 2.244 . S
O127 Co126 2.216 . S
O127 C134 1.247 . S
O128 Co126 2.091 . S
O128 C134 1.261 . S
C129 O138 1.247 . S
C129 O139 1.272 . S
O130 Co126 2.004 . S
O130 C135 1.259 . S
Co131 O132 2.061 . S
Co131 O137 2.052 . S
Co131 O139 2.135 . S
O132 Co131 2.061 . S
O132 C135 1.235 . S
C133 O136 1.238 . S
C133 O137 1.241 . S
C134 O127 1.247 . S
C134 O128 1.261 . S
C135 O130 1.259 . S
C135 O132 1.235 . S
O136 Co126 2.021 . S
O136 C133 1.238 . S
O137 Co131 2.052 . S
O137 C133 1.241 . S
O138 Co126 2.137 . S
O138 C129 1.247 . S
O139 Co126 2.244 . S
O139 C129 1.272 . S
O139 Co131 2.135 . S
Co140 O141 2.216 . S
Co140 O142 2.091 . S
Co140 O144 2.004 . S
Co140 O150 2.021 . S
Co140 O152 2.137 . S
Co140 O153 2.244 . S
O141 Co140 2.216 . S
O141 C148 1.247 . S
O142 Co140 2.091 . S
O142 C148 1.261 . S
C143 O152 1.247 . S
C143 O153 1.272 . S
O144 Co140 2.004 . S
O144 C149 1.259 . S
Co145 O146 2.061 . S
Co145 O151 2.052 . S
Co145 O153 2.135 . S
O146 Co145 2.061 . S
O146 C149 1.235 . S
C147 O150 1.238 . S
C147 O151 1.241 . S
C148 O141 1.247 . S
C148 O142 1.261 . S
C149 O144 1.259 . S
C149 O146 1.235 . S
O150 Co140 2.021 . S
O150 C147 1.238 . S
O151 Co145 2.052 . S
O151 C147 1.241 . S
O152 Co140 2.137 . S
O152 C143 1.247 . S
O153 Co140 2.244 . S
O153 C143 1.272 . S
O153 Co145 2.135 . S
Co154 O155 2.216 . S
Co154 O156 2.091 . S
Co154 O158 2.004 . S
Co154 O164 2.021 . S
Co154 O166 2.137 . S
Co154 O167 2.244 . S
O155 Co154 2.216 . S
O155 C162 1.247 . S
O156 Co154 2.091 . S
O156 C162 1.261 . S
C157 O166 1.247 . S
C157 O167 1.272 . S
O158 Co154 2.004 . S
O158 C163 1.259 . S
Co159 O160 2.061 . S
Co159 O165 2.052 . S
Co159 O167 2.135 . S
O160 Co159 2.061 . S
O160 C163 1.235 . S
C161 O164 1.238 . S
C161 O165 1.241 . S
C162 O155 1.247 . S
C162 O156 1.261 . S
C163 O158 1.259 . S
C163 O160 1.235 . S
O164 Co154 2.021 . S
O164 C161 1.238 . S
O165 Co159 2.052 . S
O165 C161 1.241 . S
O166 Co154 2.137 . S
O166 C157 1.247 . S
O167 Co154 2.244 . S
O167 C157 1.272 . S
O167 Co159 2.135 . S
Co168 O169 2.216 . S
Co168 O170 2.091 . S
Co168 O172 2.004 . S
Co168 O178 2.021 . S
Co168 O180 2.137 . S
Co168 O181 2.244 . S
O169 Co168 2.216 . S
O169 C176 1.247 . S
O170 Co168 2.091 . S
O170 C176 1.261 . S
C171 O180 1.247 . S
C171 O181 1.272 . S
O172 Co168 2.004 . S
O172 C177 1.259 . S
Co173 O174 2.061 . S
Co173 O179 2.052 . S
Co173 O181 2.135 . S
O174 Co173 2.061 . S
O174 C177 1.235 . S
C175 O178 1.238 . S
C175 O179 1.241 . S
C176 O169 1.247 . S
C176 O170 1.261 . S
C177 O172 1.259 . S
C177 O174 1.235 . S
O178 Co168 2.021 . S
O178 C175 1.238 . S
O179 Co173 2.052 . S
O179 C175 1.241 . S
O180 Co168 2.137 . S
O180 C171 1.247 . S
O181 Co168 2.244 . S
O181 C171 1.272 . S
O181 Co173 2.135 . S
Co182 O183 2.216 . S
Co182 O184 2.091 . S
Co182 O186 2.004 . S
Co182 O192 2.021 . S
Co182 O194 2.137 . S
Co182 O195 2.244 . S
O183 Co182 2.216 . S
O183 C190 1.247 . S
O184 Co182 2.091 . S
O184 C190 1.261 . S
C185 O194 1.247 . S
C185 O195 1.272 . S
O186 Co182 2.004 . S
O186 C191 1.259 . S
Co187 O188 2.061 . S
Co187 O193 2.052 . S
Co187 O195 2.135 . S
O188 Co187 2.061 . S
O188 C191 1.235 . S
C189 O192 1.238 . S
C189 O193 1.241 . S
C190 O183 1.247 . S
C190 O184 1.261 . S
C191 O186 1.259 . S
C191 O188 1.235 . S
O192 Co182 2.021 . S
O192 C189 1.238 . S
O193 Co187 2.052 . S
O193 C189 1.241 . S
O194 Co182 2.137 . S
O194 C185 1.247 . S
O195 Co182 2.244 . S
O195 C185 1.272 . S
O195 Co187 2.135 . S
Co196 O197 2.216 . S
Co196 O198 2.091 . S
Co196 O200 2.004 . S
Co196 O206 2.021 . S
Co196 O208 2.137 . S
Co196 O209 2.244 . S
O197 Co196 2.216 . S
O197 C204 1.247 . S
O198 Co196 2.091 . S
O198 C204 1.261 . S
C199 O208 1.247 . S
C199 O209 1.272 . S
O200 Co196 2.004 . S
O200 C205 1.259 . S
Co201 O202 2.061 . S
Co201 O207 2.052 . S
Co201 O209 2.135 . S
O202 Co201 2.061 . S
O202 C205 1.235 . S
C203 O206 1.238 . S
C203 O207 1.241 . S
C204 O197 1.247 . S
C204 O198 1.261 . S
C205 O200 1.259 . S
C205 O202 1.235 . S
O206 Co196 2.021 . S
O206 C203 1.238 . S
O207 Co201 2.052 . S
O207 C203 1.241 . S
O208 Co196 2.137 . S
O208 C199 1.247 . S
O209 Co196 2.244 . S
O209 C199 1.272 . S
O209 Co201 2.135 . S
Co210 O211 2.216 . S
Co210 O212 2.091 . S
Co210 O214 2.004 . S
Co210 O220 2.021 . S
Co210 O222 2.137 . S
Co210 O223 2.244 . S
O211 Co210 2.216 . S
O211 C218 1.247 . S
O212 Co210 2.091 . S
O212 C218 1.261 . S
C213 O222 1.247 . S
C213 O223 1.272 . S
O214 Co210 2.004 . S
O214 C219 1.259 . S
Co215 O216 2.061 . S
Co215 O221 2.052 . S
Co215 O223 2.135 . S
O216 Co215 2.061 . S
O216 C219 1.235 . S
C217 O220 1.238 . S
C217 O221 1.241 . S
C218 O211 1.247 . S
C218 O212 1.261 . S
C219 O214 1.259 . S
C219 O216 1.235 . S
O220 Co210 2.021 . S
O220 C217 1.238 . S
O221 Co215 2.052 . S
O221 C217 1.241 . S
O222 Co210 2.137 . S
O222 C213 1.247 . S
O223 Co210 2.244 . S
O223 C213 1.272 . S
O223 Co215 2.135 . S
Co224 O225 2.216 . S
Co224 O226 2.091 . S
Co224 O228 2.004 . S
Co224 O234 2.021 . S
Co224 O236 2.137 . S
Co224 O237 2.244 . S
O225 Co224 2.216 . S
O225 C232 1.247 . S
O226 Co224 2.091 . S
O226 C232 1.261 . S
C227 O236 1.247 . S
C227 O237 1.272 . S
O228 Co224 2.004 . S
O228 C233 1.259 . S
Co229 O230 2.061 . S
Co229 O235 2.052 . S
Co229 O237 2.135 . S
O230 Co229 2.061 . S
O230 C233 1.235 . S
C231 O234 1.238 . S
C231 O235 1.241 . S
C232 O225 1.247 . S
C232 O226 1.261 . S
C233 O228 1.259 . S
C233 O230 1.235 . S
O234 Co224 2.021 . S
O234 C231 1.238 . S
O235 Co229 2.052 . S
O235 C231 1.241 . S
O236 Co224 2.137 . S
O236 C227 1.247 . S
O237 Co224 2.244 . S
O237 C227 1.272 . S
O237 Co229 2.135 . S
Co238 O239 2.216 . S
Co238 O240 2.091 . S
Co238 O242 2.004 . S
Co238 O248 2.021 . S
Co238 O250 2.137 . S
Co238 O251 2.244 . S
O239 Co238 2.216 . S
O239 C246 1.247 . S
O240 Co238 2.091 . S
O240 C246 1.261 . S
C241 O250 1.247 . S
C241 O251 1.272 . S
O242 Co238 2.004 . S
O242 C247 1.259 . S
Co243 O244 2.061 . S
Co243 O249 2.052 . S
Co243 O251 2.135 . S
O244 Co243 2.061 . S
O244 C247 1.235 . S
C245 O248 1.238 . S
C245 O249 1.241 . S
C246 O239 1.247 . S
C246 O240 1.261 . S
C247 O242 1.259 . S
C247 O244 1.235 . S
O248 Co238 2.021 . S
O248 C245 1.238 . S
O249 Co243 2.052 . S
O249 C245 1.241 . S
O250 Co238 2.137 . S
O250 C241 1.247 . S
O251 Co238 2.244 . S
O251 C241 1.272 . S
O251 Co243 2.135 . S
Co252 O253 2.216 . S
Co252 O254 2.091 . S
Co252 O256 2.004 . S
Co252 O262 2.021 . S
Co252 O264 2.137 . S
Co252 O265 2.244 . S
O253 Co252 2.216 . S
O253 C260 1.247 . S
O254 Co252 2.091 . S
O254 C260 1.261 . S
C255 O264 1.247 . S
C255 O265 1.272 . S
O256 Co252 2.004 . S
O256 C261 1.259 . S
Co257 O258 2.061 . S
Co257 O263 2.052 . S
Co257 O265 2.135 . S
O258 Co257 2.061 . S
O258 C261 1.235 . S
C259 O262 1.238 . S
C259 O263 1.241 . S
C260 O253 1.247 . S
C260 O254 1.261 . S
C261 O256 1.259 . S
C261 O258 1.235 . S
O262 Co252 2.021 . S
O262 C259 1.238 . S
O263 Co257 2.052 . S
O263 C259 1.241 . S
O264 Co252 2.137 . S
O264 C255 1.247 . S
O265 Co252 2.244 . S
O265 C255 1.272 . S
O265 Co257 2.135 . S
Co266 O267 2.216 . S
Co266 O268 2.091 . S
Co266 O270 2.004 . S
Co266 O276 2.021 . S
Co266 O278 2.137 . S
Co266 O279 2.244 . S
O267 Co266 2.216 . S
O267 C274 1.247 . S
O268 Co266 2.091 . S
O268 C274 1.261 . S
C269 O278 1.247 . S
C269 O279 1.272 . S
O270 Co266 2.004 . S
O270 C275 1.259 . S
Co271 O272 2.061 . S
Co271 O277 2.052 . S
Co271 O279 2.135 . S
O272 Co271 2.061 . S
O272 C275 1.235 . S
C273 O276 1.238 . S
C273 O277 1.241 . S
C274 O267 1.247 . S
C274 O268 1.261 . S
C275 O270 1.259 . S
C275 O272 1.235 . S
O276 Co266 2.021 . S
O276 C273 1.238 . S
O277 Co271 2.052 . S
O277 C273 1.241 . S
O278 Co266 2.137 . S
O278 C269 1.247 . S
O279 Co266 2.244 . S
O279 C269 1.272 . S
O279 Co271 2.135 . S
Co280 O281 2.216 . S
Co280 O282 2.091 . S
Co280 O284 2.004 . S
Co280 O290 2.021 . S
Co280 O292 2.137 . S
Co280 O293 2.244 . S
O281 Co280 2.216 . S
O281 C288 1.247 . S
O282 Co280 2.091 . S
O282 C288 1.261 . S
C283 O292 1.247 . S
C283 O293 1.272 . S
O284 Co280 2.004 . S
O284 C289 1.259 . S
Co285 O286 2.061 . S
Co285 O291 2.052 . S
Co285 O293 2.135 . S
O286 Co285 2.061 . S
O286 C289 1.235 . S
C287 O290 1.238 . S
C287 O291 1.241 . S
C288 O281 1.247 . S
C288 O282 1.261 . S
C289 O284 1.259 . S
C289 O286 1.235 . S
O290 Co280 2.021 . S
O290 C287 1.238 . S
O291 Co285 2.052 . S
O291 C287 1.241 . S
O292 Co280 2.137 . S
O292 C283 1.247 . S
O293 Co280 2.244 . S
O293 C283 1.272 . S
O293 Co285 2.135 . S
Co294 O295 2.216 . S
Co294 O296 2.091 . S
Co294 O298 2.004 . S
Co294 O304 2.021 . S
Co294 O306 2.137 . S
Co294 O307 2.244 . S
O295 Co294 2.216 . S
O295 C302 1.247 . S
O296 Co294 2.091 . S
O296 C302 1.261 . S
C297 O306 1.247 . S
C297 O307 1.272 . S
O298 Co294 2.004 . S
O298 C303 1.259 . S
Co299 O300 2.061 . S
Co299 O305 2.052 . S
Co299 O307 2.135 . S
O300 Co299 2.061 . S
O300 C303 1.235 . S
C301 O304 1.238 . S
C301 O305 1.241 . S
C302 O295 1.247 . S
C302 O296 1.261 . S
C303 O298 1.259 . S
C303 O300 1.235 . S
O304 Co294 2.021 . S
O304 C301 1.238 . S
O305 Co299 2.052 . S
O305 C301 1.241 . S
O306 Co294 2.137 . S
O306 C297 1.247 . S
O307 Co294 2.244 . S
O307 C297 1.272 . S
O307 Co299 2.135 . S
Co308 O309 2.216 . S
Co308 O310 2.091 . S
Co308 O312 2.004 . S
Co308 O318 2.021 . S
Co308 O320 2.137 . S
Co308 O321 2.244 . S
O309 Co308 2.216 . S
O309 C316 1.247 . S
O310 Co308 2.091 . S
O310 C316 1.261 . S
C311 O320 1.247 . S
C311 O321 1.272 . S
O312 Co308 2.004 . S
O312 C317 1.259 . S
Co313 O314 2.061 . S
Co313 O319 2.052 . S
Co313 O321 2.135 . S
O314 Co313 2.061 . S
O314 C317 1.235 . S
C315 O318 1.238 . S
C315 O319 1.241 . S
C316 O309 1.247 . S
C316 O310 1.261 . S
C317 O312 1.259 . S
C317 O314 1.235 . S
O318 Co308 2.021 . S
O318 C315 1.238 . S
O319 Co313 2.052 . S
O319 C315 1.241 . S
O320 Co308 2.137 . S
O320 C311 1.247 . S
O321 Co308 2.244 . S
O321 C311 1.272 . S
O321 Co313 2.135 . S
Co322 O323 2.216 . S
Co322 O324 2.091 . S
Co322 O326 2.004 . S
Co322 O332 2.021 . S
Co322 O334 2.137 . S
Co322 O335 2.244 . S
O323 Co322 2.216 . S
O323 C330 1.247 . S
O324 Co322 2.091 . S
O324 C330 1.261 . S
C325 O334 1.247 . S
C325 O335 1.272 . S
O326 Co322 2.004 . S
O326 C331 1.259 . S
Co327 O328 2.061 . S
Co327 O333 2.052 . S
Co327 O335 2.135 . S
O328 Co327 2.061 . S
O328 C331 1.235 . S
C329 O332 1.238 . S
C329 O333 1.241 . S
C330 O323 1.247 . S
C330 O324 1.261 . S
C331 O326 1.259 . S
C331 O328 1.235 . S
O332 Co322 2.021 . S
O332 C329 1.238 . S
O333 Co327 2.052 . S
O333 C329 1.241 . S
O334 Co322 2.137 . S
O334 C325 1.247 . S
O335 Co322 2.244 . S
O335 C325 1.272 . S
O335 Co327 2.135 . S
H336 C354 0.951 . S
H337 C356 0.951 . S
H338 C358 0.950 . S
H339 C359 0.950 . S
H340 C361 0.950 . S
H341 C364 0.950 . S
H342 C365 0.950 . S
H343 C367 0.950 . S
H344 C368 0.950 . S
H345 C369 0.951 . S
H346 C371 0.951 . S
H347 C373 0.950 . S
H348 C374 0.950 . S
H349 C376 0.950 . S
H350 C379 0.950 . S
H351 C380 0.950 . S
H352 C382 0.950 . S
H353 C383 0.950 . S
C354 H336 0.951 . S
C354 C355 1.366 . S
C354 C356 1.388 . S
C355 C354 1.366 . S
C355 C359 1.385 . S
C356 H337 0.951 . S
C356 C354 1.388 . S
C356 C357 1.366 . S
C357 C356 1.366 . S
C357 C358 1.414 . S
C357 C360 1.499 . S
C358 H338 0.950 . S
C358 C357 1.414 . S
C358 C359 1.374 . S
C359 H339 0.950 . S
C359 C355 1.385 . S
C359 C358 1.374 . S
C360 C357 1.499 . S
C360 C361 1.373 . S
C360 C362 1.389 . S
C361 H340 0.950 . S
C361 C360 1.373 . S
C361 C377 1.377 . S
C362 C360 1.389 . S
C362 C363 1.524 . S
C362 C376 1.377 . S
C363 C362 1.524 . S
C363 C364 1.397 . S
C363 C368 1.363 . S
C364 H341 0.950 . S
C364 C363 1.397 . S
C364 C365 1.334 . S
C365 H342 0.950 . S
C365 C364 1.334 . S
C365 C366 1.287 . S
C366 C365 1.287 . S
C366 C367 1.524 . S
C366 H385 0.913 . S
C367 H343 0.950 . S
C367 C366 1.524 . S
C367 C368 1.415 . S
C368 H344 0.950 . S
C368 C363 1.363 . S
C368 C367 1.415 . S
C369 H345 0.951 . S
C369 C370 1.366 . S
C369 C371 1.388 . S
C370 C369 1.366 . S
C370 C374 1.385 . S
C371 H346 0.951 . S
C371 C369 1.388 . S
C371 C372 1.366 . S
C372 C371 1.366 . S
C372 C373 1.414 . S
C372 C375 1.499 . S
C373 H347 0.950 . S
C373 C372 1.414 . S
C373 C374 1.374 . S
C374 H348 0.950 . S
C374 C370 1.385 . S
C374 C373 1.374 . S
C375 C372 1.499 . S
C375 C376 1.373 . S
C375 C377 1.389 . S
C376 H349 0.950 . S
C376 C362 1.377 . S
C376 C375 1.373 . S
C377 C361 1.377 . S
C377 C375 1.389 . S
C377 C378 1.524 . S
C378 C377 1.524 . S
C378 C379 1.397 . S
C378 C383 1.363 . S
C379 H350 0.950 . S
C379 C378 1.397 . S
C379 C380 1.334 . S
C380 H351 0.950 . S
C380 C379 1.334 . S
C380 C381 1.287 . S
C381 C380 1.287 . S
C381 C382 1.524 . S
C381 H384 0.999 . S
C382 H352 0.950 . S
C382 C381 1.524 . S
C382 C383 1.415 . S
C383 H353 0.950 . S
C383 C378 1.363 . S
C383 C382 1.415 . S
H384 C381 0.999 . S
H385 C366 0.913 . S
H386 C404 0.951 . S
H387 C406 0.951 . S
H388 C408 0.950 . S
H389 C409 0.950 . S
H390 C411 0.950 . S
H391 C414 0.950 . S
H392 C415 0.950 . S
H393 C417 0.950 . S
H394 C418 0.950 . S
H395 C419 0.951 . S
H396 C421 0.951 . S
H397 C423 0.950 . S
H398 C424 0.950 . S
H399 C426 0.950 . S
H400 C429 0.950 . S
H401 C430 0.950 . S
H402 C432 0.950 . S
H403 C433 0.950 . S
C404 H386 0.951 . S
C404 C405 1.366 . S
C404 C406 1.388 . S
C405 C404 1.366 . S
C405 C409 1.385 . S
C406 H387 0.951 . S
C406 C404 1.388 . S
C406 C407 1.366 . S
C407 C406 1.366 . S
C407 C408 1.414 . S
C407 C410 1.499 . S
C408 H388 0.950 . S
C408 C407 1.414 . S
C408 C409 1.374 . S
C409 H389 0.950 . S
C409 C405 1.385 . S
C409 C408 1.374 . S
C410 C407 1.499 . S
C410 C411 1.373 . S
C410 C412 1.389 . S
C411 H390 0.950 . S
C411 C410 1.373 . S
C411 C427 1.377 . S
C412 C410 1.389 . S
C412 C413 1.524 . S
C412 C426 1.377 . S
C413 C412 1.524 . S
C413 C414 1.397 . S
C413 C418 1.363 . S
C414 H391 0.950 . S
C414 C413 1.397 . S
C414 C415 1.334 . S
C415 H392 0.950 . S
C415 C414 1.334 . S
C415 C416 1.287 . S
C416 C415 1.287 . S
C416 C417 1.524 . S
C416 H435 0.913 . S
C417 H393 0.950 . S
C417 C416 1.524 . S
C417 C418 1.415 . S
C418 H394 0.950 . S
C418 C413 1.363 . S
C418 C417 1.415 . S
C419 H395 0.951 . S
C419 C420 1.366 . S
C419 C421 1.388 . S
C420 C419 1.366 . S
C420 C424 1.385 . S
C421 H396 0.951 . S
C421 C419 1.388 . S
C421 C422 1.366 . S
C422 C421 1.366 . S
C422 C423 1.414 . S
C422 C425 1.499 . S
C423 H397 0.950 . S
C423 C422 1.414 . S
C423 C424 1.374 . S
C424 H398 0.950 . S
C424 C420 1.385 . S
C424 C423 1.374 . S
C425 C422 1.499 . S
C425 C426 1.373 . S
C425 C427 1.389 . S
C426 H399 0.950 . S
C426 C412 1.377 . S
C426 C425 1.373 . S
C427 C411 1.377 . S
C427 C425 1.389 . S
C427 C428 1.524 . S
C428 C427 1.524 . S
C428 C429 1.397 . S
C428 C433 1.363 . S
C429 H400 0.950 . S
C429 C428 1.397 . S
C429 C430 1.334 . S
C430 H401 0.950 . S
C430 C429 1.334 . S
C430 C431 1.287 . S
C431 C430 1.287 . S
C431 C432 1.524 . S
C431 H434 0.999 . S
C432 H402 0.950 . S
C432 C431 1.524 . S
C432 C433 1.415 . S
C433 H403 0.950 . S
C433 C428 1.363 . S
C433 C432 1.415 . S
H434 C431 0.999 . S
H435 C416 0.913 . S
H436 C454 0.951 . S
H437 C456 0.951 . S
H438 C458 0.950 . S
H439 C459 0.950 . S
H440 C461 0.950 . S
H441 C464 0.950 . S
H442 C465 0.950 . S
H443 C467 0.950 . S
H444 C468 0.950 . S
H445 C469 0.951 . S
H446 C471 0.951 . S
H447 C473 0.950 . S
H448 C474 0.950 . S
H449 C476 0.950 . S
H450 C479 0.950 . S
H451 C480 0.950 . S
H452 C482 0.950 . S
H453 C483 0.950 . S
C454 H436 0.951 . S
C454 C455 1.366 . S
C454 C456 1.388 . S
C455 C454 1.366 . S
C455 C459 1.385 . S
C456 H437 0.951 . S
C456 C454 1.388 . S
C456 C457 1.366 . S
C457 C456 1.366 . S
C457 C458 1.414 . S
C457 C460 1.499 . S
C458 H438 0.950 . S
C458 C457 1.414 . S
C458 C459 1.374 . S
C459 H439 0.950 . S
C459 C455 1.385 . S
C459 C458 1.374 . S
C460 C457 1.499 . S
C460 C461 1.373 . S
C460 C462 1.389 . S
C461 H440 0.950 . S
C461 C460 1.373 . S
C461 C477 1.377 . S
C462 C460 1.389 . S
C462 C463 1.524 . S
C462 C476 1.377 . S
C463 C462 1.524 . S
C463 C464 1.397 . S
C463 C468 1.363 . S
C464 H441 0.950 . S
C464 C463 1.397 . S
C464 C465 1.334 . S
C465 H442 0.950 . S
C465 C464 1.334 . S
C465 C466 1.287 . S
C466 C465 1.287 . S
C466 C467 1.524 . S
C466 H485 0.913 . S
C467 H443 0.950 . S
C467 C466 1.524 . S
C467 C468 1.415 . S
C468 H444 0.950 . S
C468 C463 1.363 . S
C468 C467 1.415 . S
C469 H445 0.951 . S
C469 C470 1.366 . S
C469 C471 1.388 . S
C470 C469 1.366 . S
C470 C474 1.385 . S
C471 H446 0.951 . S
C471 C469 1.388 . S
C471 C472 1.366 . S
C472 C471 1.366 . S
C472 C473 1.414 . S
C472 C475 1.499 . S
C473 H447 0.950 . S
C473 C472 1.414 . S
C473 C474 1.374 . S
C474 H448 0.950 . S
C474 C470 1.385 . S
C474 C473 1.374 . S
C475 C472 1.499 . S
C475 C476 1.373 . S
C475 C477 1.389 . S
C476 H449 0.950 . S
C476 C462 1.377 . S
C476 C475 1.373 . S
C477 C461 1.377 . S
C477 C475 1.389 . S
C477 C478 1.524 . S
C478 C477 1.524 . S
C478 C479 1.397 . S
C478 C483 1.363 . S
C479 H450 0.950 . S
C479 C478 1.397 . S
C479 C480 1.334 . S
C480 H451 0.950 . S
C480 C479 1.334 . S
C480 C481 1.287 . S
C481 C480 1.287 . S
C481 C482 1.524 . S
C481 H484 0.999 . S
C482 H452 0.950 . S
C482 C481 1.524 . S
C482 C483 1.415 . S
C483 H453 0.950 . S
C483 C478 1.363 . S
C483 C482 1.415 . S
H484 C481 0.999 . S
H485 C466 0.913 . S
H486 C504 0.951 . S
H487 C506 0.951 . S
H488 C508 0.950 . S
H489 C509 0.950 . S
H490 C511 0.950 . S
H491 C514 0.950 . S
H492 C515 0.950 . S
H493 C517 0.950 . S
H494 C518 0.950 . S
H495 C519 0.951 . S
H496 C521 0.951 . S
H497 C523 0.950 . S
H498 C524 0.950 . S
H499 C526 0.950 . S
H500 C529 0.950 . S
H501 C530 0.950 . S
H502 C532 0.950 . S
H503 C533 0.950 . S
C504 H486 0.951 . S
C504 C505 1.366 . S
C504 C506 1.388 . S
C505 C504 1.366 . S
C505 C509 1.385 . S
C506 H487 0.951 . S
C506 C504 1.388 . S
C506 C507 1.366 . S
C507 C506 1.366 . S
C507 C508 1.414 . S
C507 C510 1.499 . S
C508 H488 0.950 . S
C508 C507 1.414 . S
C508 C509 1.374 . S
C509 H489 0.950 . S
C509 C505 1.385 . S
C509 C508 1.374 . S
C510 C507 1.499 . S
C510 C511 1.373 . S
C510 C512 1.389 . S
C511 H490 0.950 . S
C511 C510 1.373 . S
C511 C527 1.377 . S
C512 C510 1.389 . S
C512 C513 1.524 . S
C512 C526 1.377 . S
C513 C512 1.524 . S
C513 C514 1.397 . S
C513 C518 1.363 . S
C514 H491 0.950 . S
C514 C513 1.397 . S
C514 C515 1.334 . S
C515 H492 0.950 . S
C515 C514 1.334 . S
C515 C516 1.287 . S
C516 C515 1.287 . S
C516 C517 1.524 . S
C516 H535 0.913 . S
C517 H493 0.950 . S
C517 C516 1.524 . S
C517 C518 1.415 . S
C518 H494 0.950 . S
C518 C513 1.363 . S
C518 C517 1.415 . S
C519 H495 0.951 . S
C519 C520 1.366 . S
C519 C521 1.388 . S
C520 C519 1.366 . S
C520 C524 1.385 . S
C521 H496 0.951 . S
C521 C519 1.388 . S
C521 C522 1.366 . S
C522 C521 1.366 . S
C522 C523 1.414 . S
C522 C525 1.499 . S
C523 H497 0.950 . S
C523 C522 1.414 . S
C523 C524 1.374 . S
C524 H498 0.950 . S
C524 C520 1.385 . S
C524 C523 1.374 . S
C525 C522 1.499 . S
C525 C526 1.373 . S
C525 C527 1.389 . S
C526 H499 0.950 . S
C526 C512 1.377 . S
C526 C525 1.373 . S
C527 C511 1.377 . S
C527 C525 1.389 . S
C527 C528 1.524 . S
C528 C527 1.524 . S
C528 C529 1.397 . S
C528 C533 1.363 . S
C529 H500 0.950 . S
C529 C528 1.397 . S
C529 C530 1.334 . S
C530 H501 0.950 . S
C530 C529 1.334 . S
C530 C531 1.287 . S
C531 C530 1.287 . S
C531 C532 1.524 . S
C531 H534 0.999 . S
C532 H502 0.950 . S
C532 C531 1.524 . S
C532 C533 1.415 . S
C533 H503 0.950 . S
C533 C528 1.363 . S
C533 C532 1.415 . S
H534 C531 0.999 . S
H535 C516 0.913 . S
H536 C554 0.951 . S
H537 C556 0.951 . S
H538 C558 0.950 . S
H539 C559 0.950 . S
H540 C561 0.950 . S
H541 C564 0.950 . S
H542 C565 0.950 . S
H543 C567 0.950 . S
H544 C568 0.950 . S
H545 C569 0.951 . S
H546 C571 0.951 . S
H547 C573 0.950 . S
H548 C574 0.950 . S
H549 C576 0.950 . S
H550 C579 0.950 . S
H551 C580 0.950 . S
H552 C582 0.950 . S
H553 C583 0.950 . S
C554 H536 0.951 . S
C554 C555 1.366 . S
C554 C556 1.388 . S
C555 C554 1.366 . S
C555 C559 1.385 . S
C556 H537 0.951 . S
C556 C554 1.388 . S
C556 C557 1.366 . S
C557 C556 1.366 . S
C557 C558 1.414 . S
C557 C560 1.499 . S
C558 H538 0.950 . S
C558 C557 1.414 . S
C558 C559 1.374 . S
C559 H539 0.950 . S
C559 C555 1.385 . S
C559 C558 1.374 . S
C560 C557 1.499 . S
C560 C561 1.373 . S
C560 C562 1.389 . S
C561 H540 0.950 . S
C561 C560 1.373 . S
C561 C577 1.377 . S
C562 C560 1.389 . S
C562 C563 1.524 . S
C562 C576 1.377 . S
C563 C562 1.524 . S
C563 C564 1.397 . S
C563 C568 1.363 . S
C564 H541 0.950 . S
C564 C563 1.397 . S
C564 C565 1.334 . S
C565 H542 0.950 . S
C565 C564 1.334 . S
C565 C566 1.287 . S
C566 C565 1.287 . S
C566 C567 1.524 . S
C566 H585 0.913 . S
C567 H543 0.950 . S
C567 C566 1.524 . S
C567 C568 1.415 . S
C568 H544 0.950 . S
C568 C563 1.363 . S
C568 C567 1.415 . S
C569 H545 0.951 . S
C569 C570 1.366 . S
C569 C571 1.388 . S
C570 C569 1.366 . S
C570 C574 1.385 . S
C571 H546 0.951 . S
C571 C569 1.388 . S
C571 C572 1.366 . S
C572 C571 1.366 . S
C572 C573 1.414 . S
C572 C575 1.499 . S
C573 H547 0.950 . S
C573 C572 1.414 . S
C573 C574 1.374 . S
C574 H548 0.950 . S
C574 C570 1.385 . S
C574 C573 1.374 . S
C575 C572 1.499 . S
C575 C576 1.373 . S
C575 C577 1.389 . S
C576 H549 0.950 . S
C576 C562 1.377 . S
C576 C575 1.373 . S
C577 C561 1.377 . S
C577 C575 1.389 . S
C577 C578 1.524 . S
C578 C577 1.524 . S
C578 C579 1.397 . S
C578 C583 1.363 . S
C579 H550 0.950 . S
C579 C578 1.397 . S
C579 C580 1.334 . S
C580 H551 0.950 . S
C580 C579 1.334 . S
C580 C581 1.287 . S
C581 C580 1.287 . S
C581 C582 1.524 . S
C581 H584 0.999 . S
C582 H552 0.950 . S
C582 C581 1.524 . S
C582 C583 1.415 . S
C583 H553 0.950 . S
C583 C578 1.363 . S
C583 C582 1.415 . S
H584 C581 0.999 . S
H585 C566 0.913 . S
H586 C604 0.951 . S
H587 C606 0.951 . S
H588 C608 0.950 . S
H589 C609 0.950 . S
H590 C611 0.950 . S
H591 C614 0.950 . S
H592 C615 0.950 . S
H593 C617 0.950 . S
H594 C618 0.950 . S
H595 C619 0.951 . S
H596 C621 0.951 . S
H597 C623 0.950 . S
H598 C624 0.950 . S
H599 C626 0.950 . S
H600 C629 0.950 . S
H601 C630 0.950 . S
H602 C632 0.950 . S
H603 C633 0.950 . S
C604 H586 0.951 . S
C604 C605 1.366 . S
C604 C606 1.388 . S
C605 C604 1.366 . S
C605 C609 1.385 . S
C606 H587 0.951 . S
C606 C604 1.388 . S
C606 C607 1.366 . S
C607 C606 1.366 . S
C607 C608 1.414 . S
C607 C610 1.499 . S
C608 H588 0.950 . S
C608 C607 1.414 . S
C608 C609 1.374 . S
C609 H589 0.950 . S
C609 C605 1.385 . S
C609 C608 1.374 . S
C610 C607 1.499 . S
C610 C611 1.373 . S
C610 C612 1.389 . S
C611 H590 0.950 . S
C611 C610 1.373 . S
C611 C627 1.377 . S
C612 C610 1.389 . S
C612 C613 1.524 . S
C612 C626 1.377 . S
C613 C612 1.524 . S
C613 C614 1.397 . S
C613 C618 1.363 . S
C614 H591 0.950 . S
C614 C613 1.397 . S
C614 C615 1.334 . S
C615 H592 0.950 . S
C615 C614 1.334 . S
C615 C616 1.287 . S
C616 C615 1.287 . S
C616 C617 1.524 . S
C616 H635 0.913 . S
C617 H593 0.950 . S
C617 C616 1.524 . S
C617 C618 1.415 . S
C618 H594 0.950 . S
C618 C613 1.363 . S
C618 C617 1.415 . S
C619 H595 0.951 . S
C619 C620 1.366 . S
C619 C621 1.388 . S
C620 C619 1.366 . S
C620 C624 1.385 . S
C621 H596 0.951 . S
C621 C619 1.388 . S
C621 C622 1.366 . S
C622 C621 1.366 . S
C622 C623 1.414 . S
C622 C625 1.499 . S
C623 H597 0.950 . S
C623 C622 1.414 . S
C623 C624 1.374 . S
C624 H598 0.950 . S
C624 C620 1.385 . S
C624 C623 1.374 . S
C625 C622 1.499 . S
C625 C626 1.373 . S
C625 C627 1.389 . S
C626 H599 0.950 . S
C626 C612 1.377 . S
C626 C625 1.373 . S
C627 C611 1.377 . S
C627 C625 1.389 . S
C627 C628 1.524 . S
C628 C627 1.524 . S
C628 C629 1.397 . S
C628 C633 1.363 . S
C629 H600 0.950 . S
C629 C628 1.397 . S
C629 C630 1.334 . S
C630 H601 0.950 . S
C630 C629 1.334 . S
C630 C631 1.287 . S
C631 C630 1.287 . S
C631 C632 1.524 . S
C631 H634 0.999 . S
C632 H602 0.950 . S
C632 C631 1.524 . S
C632 C633 1.415 . S
C633 H603 0.950 . S
C633 C628 1.363 . S
C633 C632 1.415 . S
H634 C631 0.999 . S
H635 C616 0.913 . S
H636 C654 0.951 . S
H637 C656 0.951 . S
H638 C658 0.950 . S
H639 C659 0.950 . S
H640 C661 0.950 . S
H641 C664 0.950 . S
H642 C665 0.950 . S
H643 C667 0.950 . S
H644 C668 0.950 . S
H645 C669 0.951 . S
H646 C671 0.951 . S
H647 C673 0.950 . S
H648 C674 0.950 . S
H649 C676 0.950 . S
H650 C679 0.950 . S
H651 C680 0.950 . S
H652 C682 0.950 . S
H653 C683 0.950 . S
C654 H636 0.951 . S
C654 C655 1.366 . S
C654 C656 1.388 . S
C655 C654 1.366 . S
C655 C659 1.385 . S
C656 H637 0.951 . S
C656 C654 1.388 . S
C656 C657 1.366 . S
C657 C656 1.366 . S
C657 C658 1.414 . S
C657 C660 1.499 . S
C658 H638 0.950 . S
C658 C657 1.414 . S
C658 C659 1.374 . S
C659 H639 0.950 . S
C659 C655 1.385 . S
C659 C658 1.374 . S
C660 C657 1.499 . S
C660 C661 1.373 . S
C660 C662 1.389 . S
C661 H640 0.950 . S
C661 C660 1.373 . S
C661 C677 1.377 . S
C662 C660 1.389 . S
C662 C663 1.524 . S
C662 C676 1.377 . S
C663 C662 1.524 . S
C663 C664 1.397 . S
C663 C668 1.363 . S
C664 H641 0.950 . S
C664 C663 1.397 . S
C664 C665 1.334 . S
C665 H642 0.950 . S
C665 C664 1.334 . S
C665 C666 1.287 . S
C666 C665 1.287 . S
C666 C667 1.524 . S
C666 H685 0.913 . S
C667 H643 0.950 . S
C667 C666 1.524 . S
C667 C668 1.415 . S
C668 H644 0.950 . S
C668 C663 1.363 . S
C668 C667 1.415 . S
C669 H645 0.951 . S
C669 C670 1.366 . S
C669 C671 1.388 . S
C670 C669 1.366 . S
C670 C674 1.385 . S
C671 H646 0.951 . S
C671 C669 1.388 . S
C671 C672 1.366 . S
C672 C671 1.366 . S
C672 C673 1.414 . S
C672 C675 1.499 . S
C673 H647 0.950 . S
C673 C672 1.414 . S
C673 C674 1.374 . S
C674 H648 0.950 . S
C674 C670 1.385 . S
C674 C673 1.374 . S
C675 C672 1.499 . S
C675 C676 1.373 . S
C675 C677 1.389 . S
C676 H649 0.950 . S
C676 C662 1.377 . S
C676 C675 1.373 . S
C677 C661 1.377 . S
C677 C675 1.389 . S
C677 C678 1.524 . S
C678 C677 1.524 . S
C678 C679 1.397 . S
C678 C683 1.363 . S
C679 H650 0.950 . S
C679 C678 1.397 . S
C679 C680 1.334 . S
C680 H651 0.950 . S
C680 C679 1.334 . S
C680 C681 1.287 . S
C681 C680 1.287 . S
C681 C682 1.524 . S
C681 H684 0.999 . S
C682 H652 0.950 . S
C682 C681 1.524 . S
C682 C683 1.415 . S
C683 H653 0.950 . S
C683 C678 1.363 . S
C683 C682 1.415 . S
H684 C681 0.999 . S
H685 C666 0.913 . S
H686 C704 0.951 . S
H687 C706 0.951 . S
H688 C708 0.950 . S
H689 C709 0.950 . S
H690 C711 0.950 . S
H691 C714 0.950 . S
H692 C715 0.950 . S
H693 C717 0.950 . S
H694 C718 0.950 . S
H695 C719 0.951 . S
H696 C721 0.951 . S
H697 C723 0.950 . S
H698 C724 0.950 . S
H699 C726 0.950 . S
H700 C729 0.950 . S
H701 C730 0.950 . S
H702 C732 0.950 . S
H703 C733 0.950 . S
C704 H686 0.951 . S
C704 C705 1.366 . S
C704 C706 1.388 . S
C705 C704 1.366 . S
C705 C709 1.385 . S
C706 H687 0.951 . S
C706 C704 1.388 . S
C706 C707 1.366 . S
C707 C706 1.366 . S
C707 C708 1.414 . S
C707 C710 1.499 . S
C708 H688 0.950 . S
C708 C707 1.414 . S
C708 C709 1.374 . S
C709 H689 0.950 . S
C709 C705 1.385 . S
C709 C708 1.374 . S
C710 C707 1.499 . S
C710 C711 1.373 . S
C710 C712 1.389 . S
C711 H690 0.950 . S
C711 C710 1.373 . S
C711 C727 1.377 . S
C712 C710 1.389 . S
C712 C713 1.524 . S
C712 C726 1.377 . S
C713 C712 1.524 . S
C713 C714 1.397 . S
C713 C718 1.363 . S
C714 H691 0.950 . S
C714 C713 1.397 . S
C714 C715 1.334 . S
C715 H692 0.950 . S
C715 C714 1.334 . S
C715 C716 1.287 . S
C716 C715 1.287 . S
C716 C717 1.524 . S
C716 H735 0.913 . S
C717 H693 0.950 . S
C717 C716 1.524 . S
C717 C718 1.415 . S
C718 H694 0.950 . S
C718 C713 1.363 . S
C718 C717 1.415 . S
C719 H695 0.951 . S
C719 C720 1.366 . S
C719 C721 1.388 . S
C720 C719 1.366 . S
C720 C724 1.385 . S
C721 H696 0.951 . S
C721 C719 1.388 . S
C721 C722 1.366 . S
C722 C721 1.366 . S
C722 C723 1.414 . S
C722 C725 1.499 . S
C723 H697 0.950 . S
C723 C722 1.414 . S
C723 C724 1.374 . S
C724 H698 0.950 . S
C724 C720 1.385 . S
C724 C723 1.374 . S
C725 C722 1.499 . S
C725 C726 1.373 . S
C725 C727 1.389 . S
C726 H699 0.950 . S
C726 C712 1.377 . S
C726 C725 1.373 . S
C727 C711 1.377 . S
C727 C725 1.389 . S
C727 C728 1.524 . S
C728 C727 1.524 . S
C728 C729 1.397 . S
C728 C733 1.363 . S
C729 H700 0.950 . S
C729 C728 1.397 . S
C729 C730 1.334 . S
C730 H701 0.950 . S
C730 C729 1.334 . S
C730 C731 1.287 . S
C731 C730 1.287 . S
C731 C732 1.524 . S
C731 H734 0.999 . S
C732 H702 0.950 . S
C732 C731 1.524 . S
C732 C733 1.415 . S
C733 H703 0.950 . S
C733 C728 1.363 . S
C733 C732 1.415 . S
H734 C731 0.999 . S
H735 C716 0.913 . S
H736 C754 0.951 . S
H737 C756 0.951 . S
H738 C758 0.950 . S
H739 C759 0.950 . S
H740 C761 0.950 . S
H741 C764 0.950 . S
H742 C765 0.950 . S
H743 C767 0.950 . S
H744 C768 0.950 . S
H745 C769 0.951 . S
H746 C771 0.951 . S
H747 C773 0.950 . S
H748 C774 0.950 . S
H749 C776 0.950 . S
H750 C779 0.950 . S
H751 C780 0.950 . S
H752 C782 0.950 . S
H753 C783 0.950 . S
C754 H736 0.951 . S
C754 C755 1.366 . S
C754 C756 1.388 . S
C755 C754 1.366 . S
C755 C759 1.385 . S
C756 H737 0.951 . S
C756 C754 1.388 . S
C756 C757 1.366 . S
C757 C756 1.366 . S
C757 C758 1.414 . S
C757 C760 1.499 . S
C758 H738 0.950 . S
C758 C757 1.414 . S
C758 C759 1.374 . S
C759 H739 0.950 . S
C759 C755 1.385 . S
C759 C758 1.374 . S
C760 C757 1.499 . S
C760 C761 1.373 . S
C760 C762 1.389 . S
C761 H740 0.950 . S
C761 C760 1.373 . S
C761 C777 1.377 . S
C762 C760 1.389 . S
C762 C763 1.524 . S
C762 C776 1.377 . S
C763 C762 1.524 . S
C763 C764 1.397 . S
C763 C768 1.363 . S
C764 H741 0.950 . S
C764 C763 1.397 . S
C764 C765 1.334 . S
C765 H742 0.950 . S
C765 C764 1.334 . S
C765 C766 1.287 . S
C766 C765 1.287 . S
C766 C767 1.524 . S
C766 H785 0.913 . S
C767 H743 0.950 . S
C767 C766 1.524 . S
C767 C768 1.415 . S
C768 H744 0.950 . S
C768 C763 1.363 . S
C768 C767 1.415 . S
C769 H745 0.951 . S
C769 C770 1.366 . S
C769 C771 1.388 . S
C770 C769 1.366 . S
C770 C774 1.385 . S
C771 H746 0.951 . S
C771 C769 1.388 . S
C771 C772 1.366 . S
C772 C771 1.366 . S
C772 C773 1.414 . S
C772 C775 1.499 . S
C773 H747 0.950 . S
C773 C772 1.414 . S
C773 C774 1.374 . S
C774 H748 0.950 . S
C774 C770 1.385 . S
C774 C773 1.374 . S
C775 C772 1.499 . S
C775 C776 1.373 . S
C775 C777 1.389 . S
C776 H749 0.950 . S
C776 C762 1.377 . S
C776 C775 1.373 . S
C777 C761 1.377 . S
C777 C775 1.389 . S
C777 C778 1.524 . S
C778 C777 1.524 . S
C778 C779 1.397 . S
C778 C783 1.363 . S
C779 H750 0.950 . S
C779 C778 1.397 . S
C779 C780 1.334 . S
C780 H751 0.950 . S
C780 C779 1.334 . S
C780 C781 1.287 . S
C781 C780 1.287 . S
C781 C782 1.524 . S
C781 H784 0.999 . S
C782 H752 0.950 . S
C782 C781 1.524 . S
C782 C783 1.415 . S
C783 H753 0.950 . S
C783 C778 1.363 . S
C783 C782 1.415 . S
H784 C781 0.999 . S
H785 C766 0.913 . S
H786 C804 0.951 . S
H787 C806 0.951 . S
H788 C808 0.950 . S
H789 C809 0.950 . S
H790 C811 0.950 . S
H791 C814 0.950 . S
H792 C815 0.950 . S
H793 C817 0.950 . S
H794 C818 0.950 . S
H795 C819 0.951 . S
H796 C821 0.951 . S
H797 C823 0.950 . S
H798 C824 0.950 . S
H799 C826 0.950 . S
H800 C829 0.950 . S
H801 C830 0.950 . S
H802 C832 0.950 . S
H803 C833 0.950 . S
C804 H786 0.951 . S
C804 C805 1.366 . S
C804 C806 1.388 . S
C805 C804 1.366 . S
C805 C809 1.385 . S
C806 H787 0.951 . S
C806 C804 1.388 . S
C806 C807 1.366 . S
C807 C806 1.366 . S
C807 C808 1.414 . S
C807 C810 1.499 . S
C808 H788 0.950 . S
C808 C807 1.414 . S
C808 C809 1.374 . S
C809 H789 0.950 . S
C809 C805 1.385 . S
C809 C808 1.374 . S
C810 C807 1.499 . S
C810 C811 1.373 . S
C810 C812 1.389 . S
C811 H790 0.950 . S
C811 C810 1.373 . S
C811 C827 1.377 . S
C812 C810 1.389 . S
C812 C813 1.524 . S
C812 C826 1.377 . S
C813 C812 1.524 . S
C813 C814 1.397 . S
C813 C818 1.363 . S
C814 H791 0.950 . S
C814 C813 1.397 . S
C814 C815 1.334 . S
C815 H792 0.950 . S
C815 C814 1.334 . S
C815 C816 1.287 . S
C816 C815 1.287 . S
C816 C817 1.524 . S
C816 H835 0.913 . S
C817 H793 0.950 . S
C817 C816 1.524 . S
C817 C818 1.415 . S
C818 H794 0.950 . S
C818 C813 1.363 . S
C818 C817 1.415 . S
C819 H795 0.951 . S
C819 C820 1.366 . S
C819 C821 1.388 . S
C820 C819 1.366 . S
C820 C824 1.385 . S
C821 H796 0.951 . S
C821 C819 1.388 . S
C821 C822 1.366 . S
C822 C821 1.366 . S
C822 C823 1.414 . S
C822 C825 1.499 . S
C823 H797 0.950 . S
C823 C822 1.414 . S
C823 C824 1.374 . S
C824 H798 0.950 . S
C824 C820 1.385 . S
C824 C823 1.374 . S
C825 C822 1.499 . S
C825 C826 1.373 . S
C825 C827 1.389 . S
C826 H799 0.950 . S
C826 C812 1.377 . S
C826 C825 1.373 . S
C827 C811 1.377 . S
C827 C825 1.389 . S
C827 C828 1.524 . S
C828 C827 1.524 . S
C828 C829 1.397 . S
C828 C833 1.363 . S
C829 H800 0.950 . S
C829 C828 1.397 . S
C829 C830 1.334 . S
C830 H801 0.950 . S
C830 C829 1.334 . S
C830 C831 1.287 . S
C831 C830 1.287 . S
C831 C832 1.524 . S
C831 H834 0.999 . S
C832 H802 0.950 . S
C832 C831 1.524 . S
C832 C833 1.415 . S
C833 H803 0.950 . S
C833 C828 1.363 . S
C833 C832 1.415 . S
H834 C831 0.999 . S
H835 C816 0.913 . S
H836 C854 0.951 . S
H837 C856 0.951 . S
H838 C858 0.950 . S
H839 C859 0.950 . S
H840 C861 0.950 . S
H841 C864 0.950 . S
H842 C865 0.950 . S
H843 C867 0.950 . S
H844 C868 0.950 . S
H845 C869 0.951 . S
H846 C871 0.951 . S
H847 C873 0.950 . S
H848 C874 0.950 . S
H849 C876 0.950 . S
H850 C879 0.950 . S
H851 C880 0.950 . S
H852 C882 0.950 . S
H853 C883 0.950 . S
C854 H836 0.951 . S
C854 C855 1.366 . S
C854 C856 1.388 . S
C855 C854 1.366 . S
C855 C859 1.385 . S
C856 H837 0.951 . S
C856 C854 1.388 . S
C856 C857 1.366 . S
C857 C856 1.366 . S
C857 C858 1.414 . S
C857 C860 1.499 . S
C858 H838 0.950 . S
C858 C857 1.414 . S
C858 C859 1.374 . S
C859 H839 0.950 . S
C859 C855 1.385 . S
C859 C858 1.374 . S
C860 C857 1.499 . S
C860 C861 1.373 . S
C860 C862 1.389 . S
C861 H840 0.950 . S
C861 C860 1.373 . S
C861 C877 1.377 . S
C862 C860 1.389 . S
C862 C863 1.524 . S
C862 C876 1.377 . S
C863 C862 1.524 . S
C863 C864 1.397 . S
C863 C868 1.363 . S
C864 H841 0.950 . S
C864 C863 1.397 . S
C864 C865 1.334 . S
C865 H842 0.950 . S
C865 C864 1.334 . S
C865 C866 1.287 . S
C866 C865 1.287 . S
C866 C867 1.524 . S
C866 H885 0.913 . S
C867 H843 0.950 . S
C867 C866 1.524 . S
C867 C868 1.415 . S
C868 H844 0.950 . S
C868 C863 1.363 . S
C868 C867 1.415 . S
C869 H845 0.951 . S
C869 C870 1.366 . S
C869 C871 1.388 . S
C870 C869 1.366 . S
C870 C874 1.385 . S
C871 H846 0.951 . S
C871 C869 1.388 . S
C871 C872 1.366 . S
C872 C871 1.366 . S
C872 C873 1.414 . S
C872 C875 1.499 . S
C873 H847 0.950 . S
C873 C872 1.414 . S
C873 C874 1.374 . S
C874 H848 0.950 . S
C874 C870 1.385 . S
C874 C873 1.374 . S
C875 C872 1.499 . S
C875 C876 1.373 . S
C875 C877 1.389 . S
C876 H849 0.950 . S
C876 C862 1.377 . S
C876 C875 1.373 . S
C877 C861 1.377 . S
C877 C875 1.389 . S
C877 C878 1.524 . S
C878 C877 1.524 . S
C878 C879 1.397 . S
C878 C883 1.363 . S
C879 H850 0.950 . S
C879 C878 1.397 . S
C879 C880 1.334 . S
C880 H851 0.950 . S
C880 C879 1.334 . S
C880 C881 1.287 . S
C881 C880 1.287 . S
C881 C882 1.524 . S
C881 H884 0.999 . S
C882 H852 0.950 . S
C882 C881 1.524 . S
C882 C883 1.415 . S
C883 H853 0.950 . S
C883 C878 1.363 . S
C883 C882 1.415 . S
H884 C881 0.999 . S
H885 C866 0.913 . S
H886 C904 0.951 . S
H887 C906 0.951 . S
H888 C908 0.950 . S
H889 C909 0.950 . S
H890 C911 0.950 . S
H891 C914 0.950 . S
H892 C915 0.950 . S
H893 C917 0.950 . S
H894 C918 0.950 . S
H895 C919 0.951 . S
H896 C921 0.951 . S
H897 C923 0.950 . S
H898 C924 0.950 . S
H899 C926 0.950 . S
H900 C929 0.950 . S
H901 C930 0.950 . S
H902 C932 0.950 . S
H903 C933 0.950 . S
C904 H886 0.951 . S
C904 C905 1.366 . S
C904 C906 1.388 . S
C905 C904 1.366 . S
C905 C909 1.385 . S
C906 H887 0.951 . S
C906 C904 1.388 . S
C906 C907 1.366 . S
C907 C906 1.366 . S
C907 C908 1.414 . S
C907 C910 1.499 . S
C908 H888 0.950 . S
C908 C907 1.414 . S
C908 C909 1.374 . S
C909 H889 0.950 . S
C909 C905 1.385 . S
C909 C908 1.374 . S
C910 C907 1.499 . S
C910 C911 1.373 . S
C910 C912 1.389 . S
C911 H890 0.950 . S
C911 C910 1.373 . S
C911 C927 1.377 . S
C912 C910 1.389 . S
C912 C913 1.524 . S
C912 C926 1.377 . S
C913 C912 1.524 . S
C913 C914 1.397 . S
C913 C918 1.363 . S
C914 H891 0.950 . S
C914 C913 1.397 . S
C914 C915 1.334 . S
C915 H892 0.950 . S
C915 C914 1.334 . S
C915 C916 1.287 . S
C916 C915 1.287 . S
C916 C917 1.524 . S
C916 H935 0.913 . S
C917 H893 0.950 . S
C917 C916 1.524 . S
C917 C918 1.415 . S
C918 H894 0.950 . S
C918 C913 1.363 . S
C918 C917 1.415 . S
C919 H895 0.951 . S
C919 C920 1.366 . S
C919 C921 1.388 . S
C920 C919 1.366 . S
C920 C924 1.385 . S
C921 H896 0.951 . S
C921 C919 1.388 . S
C921 C922 1.366 . S
C922 C921 1.366 . S
C922 C923 1.414 . S
C922 C925 1.499 . S
C923 H897 0.950 . S
C923 C922 1.414 . S
C923 C924 1.374 . S
C924 H898 0.950 . S
C924 C920 1.385 . S
C924 C923 1.374 . S
C925 C922 1.499 . S
C925 C926 1.373 . S
C925 C927 1.389 . S
C926 H899 0.950 . S
C926 C912 1.377 . S
C926 C925 1.373 . S
C927 C911 1.377 . S
C927 C925 1.389 . S
C927 C928 1.524 . S
C928 C927 1.524 . S
C928 C929 1.397 . S
C928 C933 1.363 . S
C929 H900 0.950 . S
C929 C928 1.397 . S
C929 C930 1.334 . S
C930 H901 0.950 . S
C930 C929 1.334 . S
C930 C931 1.287 . S
C931 C930 1.287 . S
C931 C932 1.524 . S
C931 H934 0.999 . S
C932 H902 0.950 . S
C932 C931 1.524 . S
C932 C933 1.415 . S
C933 H903 0.950 . S
C933 C928 1.363 . S
C933 C932 1.415 . S
H934 C931 0.999 . S
H935 C916 0.913 . S
H936 C954 0.951 . S
H937 C956 0.951 . S
H938 C958 0.950 . S
H939 C959 0.950 . S
H940 C961 0.950 . S
H941 C964 0.950 . S
H942 C965 0.950 . S
H943 C967 0.950 . S
H944 C968 0.950 . S
H945 C969 0.951 . S
H946 C971 0.951 . S
H947 C973 0.950 . S
H948 C974 0.950 . S
H949 C976 0.950 . S
H950 C979 0.950 . S
H951 C980 0.950 . S
H952 C982 0.950 . S
H953 C983 0.950 . S
C954 H936 0.951 . S
C954 C955 1.366 . S
C954 C956 1.388 . S
C955 C954 1.366 . S
C955 C959 1.385 . S
C956 H937 0.951 . S
C956 C954 1.388 . S
C956 C957 1.366 . S
C957 C956 1.366 . S
C957 C958 1.414 . S
C957 C960 1.499 . S
C958 H938 0.950 . S
C958 C957 1.414 . S
C958 C959 1.374 . S
C959 H939 0.950 . S
C959 C955 1.385 . S
C959 C958 1.374 . S
C960 C957 1.499 . S
C960 C961 1.373 . S
C960 C962 1.389 . S
C961 H940 0.950 . S
C961 C960 1.373 . S
C961 C977 1.377 . S
C962 C960 1.389 . S
C962 C963 1.524 . S
C962 C976 1.377 . S
C963 C962 1.524 . S
C963 C964 1.397 . S
C963 C968 1.363 . S
C964 H941 0.950 . S
C964 C963 1.397 . S
C964 C965 1.334 . S
C965 H942 0.950 . S
C965 C964 1.334 . S
C965 C966 1.287 . S
C966 C965 1.287 . S
C966 C967 1.524 . S
C966 H985 0.913 . S
C967 H943 0.950 . S
C967 C966 1.524 . S
C967 C968 1.415 . S
C968 H944 0.950 . S
C968 C963 1.363 . S
C968 C967 1.415 . S
C969 H945 0.951 . S
C969 C970 1.366 . S
C969 C971 1.388 . S
C970 C969 1.366 . S
C970 C974 1.385 . S
C971 H946 0.951 . S
C971 C969 1.388 . S
C971 C972 1.366 . S
C972 C971 1.366 . S
C972 C973 1.414 . S
C972 C975 1.499 . S
C973 H947 0.950 . S
C973 C972 1.414 . S
C973 C974 1.374 . S
C974 H948 0.950 . S
C974 C970 1.385 . S
C974 C973 1.374 . S
C975 C972 1.499 . S
C975 C976 1.373 . S
C975 C977 1.389 . S
C976 H949 0.950 . S
C976 C962 1.377 . S
C976 C975 1.373 . S
C977 C961 1.377 . S
C977 C975 1.389 . S
C977 C978 1.524 . S
C978 C977 1.524 . S
C978 C979 1.397 . S
C978 C983 1.363 . S
C979 H950 0.950 . S
C979 C978 1.397 . S
C979 C980 1.334 . S
C980 H951 0.950 . S
C980 C979 1.334 . S
C980 C981 1.287 . S
C981 C980 1.287 . S
C981 C982 1.524 . S
C981 H984 0.999 . S
C982 H952 0.950 . S
C982 C981 1.524 . S
C982 C983 1.415 . S
C983 H953 0.950 . S
C983 C978 1.363 . S
C983 C982 1.415 . S
H984 C981 0.999 . S
H985 C966 0.913 . S
H986 C1004 0.951 . S
H987 C1006 0.951 . S
H988 C1008 0.950 . S
H989 C1009 0.950 . S
H990 C1011 0.950 . S
H991 C1014 0.950 . S
H992 C1015 0.950 . S
H993 C1017 0.950 . S
H994 C1018 0.950 . S
H995 C1019 0.951 . S
H996 C1021 0.951 . S
H997 C1023 0.950 . S
H998 C1024 0.950 . S
H999 C1026 0.950 . S
H1000 C1029 0.950 . S
H1001 C1030 0.950 . S
H1002 C1032 0.950 . S
H1003 C1033 0.950 . S
C1004 H986 0.951 . S
C1004 C1005 1.366 . S
C1004 C1006 1.388 . S
C1005 C1004 1.366 . S
C1005 C1009 1.385 . S
C1006 H987 0.951 . S
C1006 C1004 1.388 . S
C1006 C1007 1.366 . S
C1007 C1006 1.366 . S
C1007 C1008 1.414 . S
C1007 C1010 1.499 . S
C1008 H988 0.950 . S
C1008 C1007 1.414 . S
C1008 C1009 1.374 . S
C1009 H989 0.950 . S
C1009 C1005 1.385 . S
C1009 C1008 1.374 . S
C1010 C1007 1.499 . S
C1010 C1011 1.373 . S
C1010 C1012 1.389 . S
C1011 H990 0.950 . S
C1011 C1010 1.373 . S
C1011 C1027 1.377 . S
C1012 C1010 1.389 . S
C1012 C1013 1.524 . S
C1012 C1026 1.377 . S
C1013 C1012 1.524 . S
C1013 C1014 1.397 . S
C1013 C1018 1.363 . S
C1014 H991 0.950 . S
C1014 C1013 1.397 . S
C1014 C1015 1.334 . S
C1015 H992 0.950 . S
C1015 C1014 1.334 . S
C1015 C1016 1.287 . S
C1016 C1015 1.287 . S
C1016 C1017 1.524 . S
C1016 H1035 0.913 . S
C1017 H993 0.950 . S
C1017 C1016 1.524 . S
C1017 C1018 1.415 . S
C1018 H994 0.950 . S
C1018 C1013 1.363 . S
C1018 C1017 1.415 . S
C1019 H995 0.951 . S
C1019 C1020 1.366 . S
C1019 C1021 1.388 . S
C1020 C1019 1.366 . S
C1020 C1024 1.385 . S
C1021 H996 0.951 . S
C1021 C1019 1.388 . S
C1021 C1022 1.366 . S
C1022 C1021 1.366 . S
C1022 C1023 1.414 . S
C1022 C1025 1.499 . S
C1023 H997 0.950 . S
C1023 C1022 1.414 . S
C1023 C1024 1.374 . S
C1024 H998 0.950 . S
C1024 C1020 1.385 . S
C1024 C1023 1.374 . S
C1025 C1022 1.499 . S
C1025 C1026 1.373 . S
C1025 C1027 1.389 . S
C1026 H999 0.950 . S
C1026 C1012 1.377 . S
C1026 C1025 1.373 . S
C1027 C1011 1.377 . S
C1027 C1025 1.389 . S
C1027 C1028 1.524 . S
C1028 C1027 1.524 . S
C1028 C1029 1.397 . S
C1028 C1033 1.363 . S
C1029 H1000 0.950 . S
C1029 C1028 1.397 . S
C1029 C1030 1.334 . S
C1030 H1001 0.950 . S
C1030 C1029 1.334 . S
C1030 C1031 1.287 . S
C1031 C1030 1.287 . S
C1031 C1032 1.524 . S
C1031 H1034 0.999 . S
C1032 H1002 0.950 . S
C1032 C1031 1.524 . S
C1032 C1033 1.415 . S
C1033 H1003 0.950 . S
C1033 C1028 1.363 . S
C1033 C1032 1.415 . S
H1034 C1031 0.999 . S
H1035 C1016 0.913 . S
H1036 C1054 0.951 . S
H1037 C1056 0.951 . S
H1038 C1058 0.950 . S
H1039 C1059 0.950 . S
H1040 C1061 0.950 . S
H1041 C1064 0.950 . S
H1042 C1065 0.950 . S
H1043 C1067 0.950 . S
H1044 C1068 0.950 . S
H1045 C1069 0.951 . S
H1046 C1071 0.951 . S
H1047 C1073 0.950 . S
H1048 C1074 0.950 . S
H1049 C1076 0.950 . S
H1050 C1079 0.950 . S
H1051 C1080 0.950 . S
H1052 C1082 0.950 . S
H1053 C1083 0.950 . S
C1054 H1036 0.951 . S
C1054 C1055 1.366 . S
C1054 C1056 1.388 . S
C1055 C1054 1.366 . S
C1055 C1059 1.385 . S
C1056 H1037 0.951 . S
C1056 C1054 1.388 . S
C1056 C1057 1.366 . S
C1057 C1056 1.366 . S
C1057 C1058 1.414 . S
C1057 C1060 1.499 . S
C1058 H1038 0.950 . S
C1058 C1057 1.414 . S
C1058 C1059 1.374 . S
C1059 H1039 0.950 . S
C1059 C1055 1.385 . S
C1059 C1058 1.374 . S
C1060 C1057 1.499 . S
C1060 C1061 1.373 . S
C1060 C1062 1.389 . S
C1061 H1040 0.950 . S
C1061 C1060 1.373 . S
C1061 C1077 1.377 . S
C1062 C1060 1.389 . S
C1062 C1063 1.524 . S
C1062 C1076 1.377 . S
C1063 C1062 1.524 . S
C1063 C1064 1.397 . S
C1063 C1068 1.363 . S
C1064 H1041 0.950 . S
C1064 C1063 1.397 . S
C1064 C1065 1.334 . S
C1065 H1042 0.950 . S
C1065 C1064 1.334 . S
C1065 C1066 1.287 . S
C1066 C1065 1.287 . S
C1066 C1067 1.524 . S
C1066 H1085 0.913 . S
C1067 H1043 0.950 . S
C1067 C1066 1.524 . S
C1067 C1068 1.415 . S
C1068 H1044 0.950 . S
C1068 C1063 1.363 . S
C1068 C1067 1.415 . S
C1069 H1045 0.951 . S
C1069 C1070 1.366 . S
C1069 C1071 1.388 . S
C1070 C1069 1.366 . S
C1070 C1074 1.385 . S
C1071 H1046 0.951 . S
C1071 C1069 1.388 . S
C1071 C1072 1.366 . S
C1072 C1071 1.366 . S
C1072 C1073 1.414 . S
C1072 C1075 1.499 . S
C1073 H1047 0.950 . S
C1073 C1072 1.414 . S
C1073 C1074 1.374 . S
C1074 H1048 0.950 . S
C1074 C1070 1.385 . S
C1074 C1073 1.374 . S
C1075 C1072 1.499 . S
C1075 C1076 1.373 . S
C1075 C1077 1.389 . S
C1076 H1049 0.950 . S
C1076 C1062 1.377 . S
C1076 C1075 1.373 . S
C1077 C1061 1.377 . S
C1077 C1075 1.389 . S
C1077 C1078 1.524 . S
C1078 C1077 1.524 . S
C1078 C1079 1.397 . S
C1078 C1083 1.363 . S
C1079 H1050 0.950 . S
C1079 C1078 1.397 . S
C1079 C1080 1.334 . S
C1080 H1051 0.950 . S
C1080 C1079 1.334 . S
C1080 C1081 1.287 . S
C1081 C1080 1.287 . S
C1081 C1082 1.524 . S
C1081 H1084 0.999 . S
C1082 H1052 0.950 . S
C1082 C1081 1.524 . S
C1082 C1083 1.415 . S
C1083 H1053 0.950 . S
C1083 C1078 1.363 . S
C1083 C1082 1.415 . S
H1084 C1081 0.999 . S
H1085 C1066 0.913 . S
H1086 C1104 0.951 . S
H1087 C1106 0.951 . S
H1088 C1108 0.950 . S
H1089 C1109 0.950 . S
H1090 C1111 0.950 . S
H1091 C1114 0.950 . S
H1092 C1115 0.950 . S
H1093 C1117 0.950 . S
H1094 C1118 0.950 . S
H1095 C1119 0.951 . S
H1096 C1121 0.951 . S
H1097 C1123 0.950 . S
H1098 C1124 0.950 . S
H1099 C1126 0.950 . S
H1100 C1129 0.950 . S
H1101 C1130 0.950 . S
H1102 C1132 0.950 . S
H1103 C1133 0.950 . S
C1104 H1086 0.951 . S
C1104 C1105 1.366 . S
C1104 C1106 1.388 . S
C1105 C1104 1.366 . S
C1105 C1109 1.385 . S
C1106 H1087 0.951 . S
C1106 C1104 1.388 . S
C1106 C1107 1.366 . S
C1107 C1106 1.366 . S
C1107 C1108 1.414 . S
C1107 C1110 1.499 . S
C1108 H1088 0.950 . S
C1108 C1107 1.414 . S
C1108 C1109 1.374 . S
C1109 H1089 0.950 . S
C1109 C1105 1.385 . S
C1109 C1108 1.374 . S
C1110 C1107 1.499 . S
C1110 C1111 1.373 . S
C1110 C1112 1.389 . S
C1111 H1090 0.950 . S
C1111 C1110 1.373 . S
C1111 C1127 1.377 . S
C1112 C1110 1.389 . S
C1112 C1113 1.524 . S
C1112 C1126 1.377 . S
C1113 C1112 1.524 . S
C1113 C1114 1.397 . S
C1113 C1118 1.363 . S
C1114 H1091 0.950 . S
C1114 C1113 1.397 . S
C1114 C1115 1.334 . S
C1115 H1092 0.950 . S
C1115 C1114 1.334 . S
C1115 C1116 1.287 . S
C1116 C1115 1.287 . S
C1116 C1117 1.524 . S
C1116 H1135 0.913 . S
C1117 H1093 0.950 . S
C1117 C1116 1.524 . S
C1117 C1118 1.415 . S
C1118 H1094 0.950 . S
C1118 C1113 1.363 . S
C1118 C1117 1.415 . S
C1119 H1095 0.951 . S
C1119 C1120 1.366 . S
C1119 C1121 1.388 . S
C1120 C1119 1.366 . S
C1120 C1124 1.385 . S
C1121 H1096 0.951 . S
C1121 C1119 1.388 . S
C1121 C1122 1.366 . S
C1122 C1121 1.366 . S
C1122 C1123 1.414 . S
C1122 C1125 1.499 . S
C1123 H1097 0.950 . S
C1123 C1122 1.414 . S
C1123 C1124 1.374 . S
C1124 H1098 0.950 . S
C1124 C1120 1.385 . S
C1124 C1123 1.374 . S
C1125 C1122 1.499 . S
C1125 C1126 1.373 . S
C1125 C1127 1.389 . S
C1126 H1099 0.950 . S
C1126 C1112 1.377 . S
C1126 C1125 1.373 . S
C1127 C1111 1.377 . S
C1127 C1125 1.389 . S
C1127 C1128 1.524 . S
C1128 C1127 1.524 . S
C1128 C1129 1.397 . S
C1128 C1133 1.363 . S
C1129 H1100 0.950 . S
C1129 C1128 1.397 . S
C1129 C1130 1.334 . S
C1130 H1101 0.950 . S
C1130 C1129 1.334 . S
C1130 C1131 1.287 . S
C1131 C1130 1.287 . S
C1131 C1132 1.524 . S
C1131 H1134 0.999 . S
C1132 H1102 0.950 . S
C1132 C1131 1.524 . S
C1132 C1133 1.415 . S
C1133 H1103 0.950 . S
C1133 C1128 1.363 . S
C1133 C1132 1.415 . S
H1134 C1131 0.999 . S
H1135 C1116 0.913 . S
H1136 C1154 0.951 . S
H1137 C1156 0.951 . S
H1138 C1158 0.950 . S
H1139 C1159 0.950 . S
H1140 C1161 0.950 . S
H1141 C1164 0.950 . S
H1142 C1165 0.950 . S
H1143 C1167 0.950 . S
H1144 C1168 0.950 . S
H1145 C1169 0.951 . S
H1146 C1171 0.951 . S
H1147 C1173 0.950 . S
H1148 C1174 0.950 . S
H1149 C1176 0.950 . S
H1150 C1179 0.950 . S
H1151 C1180 0.950 . S
H1152 C1182 0.950 . S
H1153 C1183 0.950 . S
C1154 H1136 0.951 . S
C1154 C1155 1.366 . S
C1154 C1156 1.388 . S
C1155 C1154 1.366 . S
C1155 C1159 1.385 . S
C1156 H1137 0.951 . S
C1156 C1154 1.388 . S
C1156 C1157 1.366 . S
C1157 C1156 1.366 . S
C1157 C1158 1.414 . S
C1157 C1160 1.499 . S
C1158 H1138 0.950 . S
C1158 C1157 1.414 . S
C1158 C1159 1.374 . S
C1159 H1139 0.950 . S
C1159 C1155 1.385 . S
C1159 C1158 1.374 . S
C1160 C1157 1.499 . S
C1160 C1161 1.373 . S
C1160 C1162 1.389 . S
C1161 H1140 0.950 . S
C1161 C1160 1.373 . S
C1161 C1177 1.377 . S
C1162 C1160 1.389 . S
C1162 C1163 1.524 . S
C1162 C1176 1.377 . S
C1163 C1162 1.524 . S
C1163 C1164 1.397 . S
C1163 C1168 1.363 . S
C1164 H1141 0.950 . S
C1164 C1163 1.397 . S
C1164 C1165 1.334 . S
C1165 H1142 0.950 . S
C1165 C1164 1.334 . S
C1165 C1166 1.287 . S
C1166 C1165 1.287 . S
C1166 C1167 1.524 . S
C1166 H1185 0.913 . S
C1167 H1143 0.950 . S
C1167 C1166 1.524 . S
C1167 C1168 1.415 . S
C1168 H1144 0.950 . S
C1168 C1163 1.363 . S
C1168 C1167 1.415 . S
C1169 H1145 0.951 . S
C1169 C1170 1.366 . S
C1169 C1171 1.388 . S
C1170 C1169 1.366 . S
C1170 C1174 1.385 . S
C1171 H1146 0.951 . S
C1171 C1169 1.388 . S
C1171 C1172 1.366 . S
C1172 C1171 1.366 . S
C1172 C1173 1.414 . S
C1172 C1175 1.499 . S
C1173 H1147 0.950 . S
C1173 C1172 1.414 . S
C1173 C1174 1.374 . S
C1174 H1148 0.950 . S
C1174 C1170 1.385 . S
C1174 C1173 1.374 . S
C1175 C1172 1.499 . S
C1175 C1176 1.373 . S
C1175 C1177 1.389 . S
C1176 H1149 0.950 . S
C1176 C1162 1.377 . S
C1176 C1175 1.373 . S
C1177 C1161 1.377 . S
C1177 C1175 1.389 . S
C1177 C1178 1.524 . S
C1178 C1177 1.524 . S
C1178 C1179 1.397 . S
C1178 C1183 1.363 . S
C1179 H1150 0.950 . S
C1179 C1178 1.397 . S
C1179 C1180 1.334 . S
C1180 H1151 0.950 . S
C1180 C1179 1.334 . S
C1180 C1181 1.287 . S
C1181 C1180 1.287 . S
C1181 C1182 1.524 . S
C1181 H1184 0.999 . S
C1182 H1152 0.950 . S
C1182 C1181 1.524 . S
C1182 C1183 1.415 . S
C1183 H1153 0.950 . S
C1183 C1178 1.363 . S
C1183 C1182 1.415 . S
H1184 C1181 0.999 . S
H1185 C1166 0.913 . S
H1186 C1204 0.951 . S
H1187 C1206 0.951 . S
H1188 C1208 0.950 . S
H1189 C1209 0.950 . S
H1190 C1211 0.950 . S
H1191 C1214 0.950 . S
H1192 C1215 0.950 . S
H1193 C1217 0.950 . S
H1194 C1218 0.950 . S
H1195 C1219 0.951 . S
H1196 C1221 0.951 . S
H1197 C1223 0.950 . S
H1198 C1224 0.950 . S
H1199 C1226 0.950 . S
H1200 C1229 0.950 . S
H1201 C1230 0.950 . S
H1202 C1232 0.950 . S
H1203 C1233 0.950 . S
C1204 H1186 0.951 . S
C1204 C1205 1.366 . S
C1204 C1206 1.388 . S
C1205 C1204 1.366 . S
C1205 C1209 1.385 . S
C1206 H1187 0.951 . S
C1206 C1204 1.388 . S
C1206 C1207 1.366 . S
C1207 C1206 1.366 . S
C1207 C1208 1.414 . S
C1207 C1210 1.499 . S
C1208 H1188 0.950 . S
C1208 C1207 1.414 . S
C1208 C1209 1.374 . S
C1209 H1189 0.950 . S
C1209 C1205 1.385 . S
C1209 C1208 1.374 . S
C1210 C1207 1.499 . S
C1210 C1211 1.373 . S
C1210 C1212 1.389 . S
C1211 H1190 0.950 . S
C1211 C1210 1.373 . S
C1211 C1227 1.377 . S
C1212 C1210 1.389 . S
C1212 C1213 1.524 . S
C1212 C1226 1.377 . S
C1213 C1212 1.524 . S
C1213 C1214 1.397 . S
C1213 C1218 1.363 . S
C1214 H1191 0.950 . S
C1214 C1213 1.397 . S
C1214 C1215 1.334 . S
C1215 H1192 0.950 . S
C1215 C1214 1.334 . S
C1215 C1216 1.287 . S
C1216 C1215 1.287 . S
C1216 C1217 1.524 . S
C1216 H1235 0.913 . S
C1217 H1193 0.950 . S
C1217 C1216 1.524 . S
C1217 C1218 1.415 . S
C1218 H1194 0.950 . S
C1218 C1213 1.363 . S
C1218 C1217 1.415 . S
C1219 H1195 0.951 . S
C1219 C1220 1.366 . S
C1219 C1221 1.388 . S
C1220 C1219 1.366 . S
C1220 C1224 1.385 . S
C1221 H1196 0.951 . S
C1221 C1219 1.388 . S
C1221 C1222 1.366 . S
C1222 C1221 1.366 . S
C1222 C1223 1.414 . S
C1222 C1225 1.499 . S
C1223 H1197 0.950 . S
C1223 C1222 1.414 . S
C1223 C1224 1.374 . S
C1224 H1198 0.950 . S
C1224 C1220 1.385 . S
C1224 C1223 1.374 . S
C1225 C1222 1.499 . S
C1225 C1226 1.373 . S
C1225 C1227 1.389 . S
C1226 H1199 0.950 . S
C1226 C1212 1.377 . S
C1226 C1225 1.373 . S
C1227 C1211 1.377 . S
C1227 C1225 1.389 . S
C1227 C1228 1.524 . S
C1228 C1227 1.524 . S
C1228 C1229 1.397 . S
C1228 C1233 1.363 . S
C1229 H1200 0.950 . S
C1229 C1228 1.397 . S
C1229 C1230 1.334 . S
C1230 H1201 0.950 . S
C1230 C1229 1.334 . S
C1230 C1231 1.287 . S
C1231 C1230 1.287 . S
C1231 C1232 1.524 . S
C1231 H1234 0.999 . S
C1232 H1202 0.950 . S
C1232 C1231 1.524 . S
C1232 C1233 1.415 . S
C1233 H1203 0.950 . S
C1233 C1228 1.363 . S
C1233 C1232 1.415 . S
H1234 C1231 0.999 . S
H1235 C1216 0.913 . S
H1236 C1254 0.951 . S
H1237 C1256 0.951 . S
H1238 C1258 0.950 . S
H1239 C1259 0.950 . S
H1240 C1261 0.950 . S
H1241 C1264 0.950 . S
H1242 C1265 0.950 . S
H1243 C1267 0.950 . S
H1244 C1268 0.950 . S
H1245 C1269 0.951 . S
H1246 C1271 0.951 . S
H1247 C1273 0.950 . S
H1248 C1274 0.950 . S
H1249 C1276 0.950 . S
H1250 C1279 0.950 . S
H1251 C1280 0.950 . S
H1252 C1282 0.950 . S
H1253 C1283 0.950 . S
C1254 H1236 0.951 . S
C1254 C1255 1.366 . S
C1254 C1256 1.388 . S
C1255 C1254 1.366 . S
C1255 C1259 1.385 . S
C1256 H1237 0.951 . S
C1256 C1254 1.388 . S
C1256 C1257 1.366 . S
C1257 C1256 1.366 . S
C1257 C1258 1.414 . S
C1257 C1260 1.499 . S
C1258 H1238 0.950 . S
C1258 C1257 1.414 . S
C1258 C1259 1.374 . S
C1259 H1239 0.950 . S
C1259 C1255 1.385 . S
C1259 C1258 1.374 . S
C1260 C1257 1.499 . S
C1260 C1261 1.373 . S
C1260 C1262 1.389 . S
C1261 H1240 0.950 . S
C1261 C1260 1.373 . S
C1261 C1277 1.377 . S
C1262 C1260 1.389 . S
C1262 C1263 1.524 . S
C1262 C1276 1.377 . S
C1263 C1262 1.524 . S
C1263 C1264 1.397 . S
C1263 C1268 1.363 . S
C1264 H1241 0.950 . S
C1264 C1263 1.397 . S
C1264 C1265 1.334 . S
C1265 H1242 0.950 . S
C1265 C1264 1.334 . S
C1265 C1266 1.287 . S
C1266 C1265 1.287 . S
C1266 C1267 1.524 . S
C1266 H1285 0.913 . S
C1267 H1243 0.950 . S
C1267 C1266 1.524 . S
C1267 C1268 1.415 . S
C1268 H1244 0.950 . S
C1268 C1263 1.363 . S
C1268 C1267 1.415 . S
C1269 H1245 0.951 . S
C1269 C1270 1.366 . S
C1269 C1271 1.388 . S
C1270 C1269 1.366 . S
C1270 C1274 1.385 . S
C1271 H1246 0.951 . S
C1271 C1269 1.388 . S
C1271 C1272 1.366 . S
C1272 C1271 1.366 . S
C1272 C1273 1.414 . S
C1272 C1275 1.499 . S
C1273 H1247 0.950 . S
C1273 C1272 1.414 . S
C1273 C1274 1.374 . S
C1274 H1248 0.950 . S
C1274 C1270 1.385 . S
C1274 C1273 1.374 . S
C1275 C1272 1.499 . S
C1275 C1276 1.373 . S
C1275 C1277 1.389 . S
C1276 H1249 0.950 . S
C1276 C1262 1.377 . S
C1276 C1275 1.373 . S
C1277 C1261 1.377 . S
C1277 C1275 1.389 . S
C1277 C1278 1.524 . S
C1278 C1277 1.524 . S
C1278 C1279 1.397 . S
C1278 C1283 1.363 . S
C1279 H1250 0.950 . S
C1279 C1278 1.397 . S
C1279 C1280 1.334 . S
C1280 H1251 0.950 . S
C1280 C1279 1.334 . S
C1280 C1281 1.287 . S
C1281 C1280 1.287 . S
C1281 C1282 1.524 . S
C1281 H1284 0.999 . S
C1282 H1252 0.950 . S
C1282 C1281 1.524 . S
C1282 C1283 1.415 . S
C1283 H1253 0.950 . S
C1283 C1278 1.363 . S
C1283 C1282 1.415 . S
H1284 C1281 0.999 . S
H1285 C1266 0.913 . S
H1286 C1304 0.951 . S
H1287 C1306 0.951 . S
H1288 C1308 0.950 . S
H1289 C1309 0.950 . S
H1290 C1311 0.950 . S
H1291 C1314 0.950 . S
H1292 C1315 0.950 . S
H1293 C1317 0.950 . S
H1294 C1318 0.950 . S
H1295 C1319 0.951 . S
H1296 C1321 0.951 . S
H1297 C1323 0.950 . S
H1298 C1324 0.950 . S
H1299 C1326 0.950 . S
H1300 C1329 0.950 . S
H1301 C1330 0.950 . S
H1302 C1332 0.950 . S
H1303 C1333 0.950 . S
C1304 H1286 0.951 . S
C1304 C1305 1.366 . S
C1304 C1306 1.388 . S
C1305 C1304 1.366 . S
C1305 C1309 1.385 . S
C1306 H1287 0.951 . S
C1306 C1304 1.388 . S
C1306 C1307 1.366 . S
C1307 C1306 1.366 . S
C1307 C1308 1.414 . S
C1307 C1310 1.499 . S
C1308 H1288 0.950 . S
C1308 C1307 1.414 . S
C1308 C1309 1.374 . S
C1309 H1289 0.950 . S
C1309 C1305 1.385 . S
C1309 C1308 1.374 . S
C1310 C1307 1.499 . S
C1310 C1311 1.373 . S
C1310 C1312 1.389 . S
C1311 H1290 0.950 . S
C1311 C1310 1.373 . S
C1311 C1327 1.377 . S
C1312 C1310 1.389 . S
C1312 C1313 1.524 . S
C1312 C1326 1.377 . S
C1313 C1312 1.524 . S
C1313 C1314 1.397 . S
C1313 C1318 1.363 . S
C1314 H1291 0.950 . S
C1314 C1313 1.397 . S
C1314 C1315 1.334 . S
C1315 H1292 0.950 . S
C1315 C1314 1.334 . S
C1315 C1316 1.287 . S
C1316 C1315 1.287 . S
C1316 C1317 1.524 . S
C1316 H1335 0.913 . S
C1317 H1293 0.950 . S
C1317 C1316 1.524 . S
C1317 C1318 1.415 . S
C1318 H1294 0.950 . S
C1318 C1313 1.363 . S
C1318 C1317 1.415 . S
C1319 H1295 0.951 . S
C1319 C1320 1.366 . S
C1319 C1321 1.388 . S
C1320 C1319 1.366 . S
C1320 C1324 1.385 . S
C1321 H1296 0.951 . S
C1321 C1319 1.388 . S
C1321 C1322 1.366 . S
C1322 C1321 1.366 . S
C1322 C1323 1.414 . S
C1322 C1325 1.499 . S
C1323 H1297 0.950 . S
C1323 C1322 1.414 . S
C1323 C1324 1.374 . S
C1324 H1298 0.950 . S
C1324 C1320 1.385 . S
C1324 C1323 1.374 . S
C1325 C1322 1.499 . S
C1325 C1326 1.373 . S
C1325 C1327 1.389 . S
C1326 H1299 0.950 . S
C1326 C1312 1.377 . S
C1326 C1325 1.373 . S
C1327 C1311 1.377 . S
C1327 C1325 1.389 . S
C1327 C1328 1.524 . S
C1328 C1327 1.524 . S
C1328 C1329 1.397 . S
C1328 C1333 1.363 . S
C1329 H1300 0.950 . S
C1329 C1328 1.397 . S
C1329 C1330 1.334 . S
C1330 H1301 0.950 . S
C1330 C1329 1.334 . S
C1330 C1331 1.287 . S
C1331 C1330 1.287 . S
C1331 C1332 1.524 . S
C1331 H1334 0.999 . S
C1332 H1302 0.950 . S
C1332 C1331 1.524 . S
C1332 C1333 1.415 . S
C1333 H1303 0.950 . S
C1333 C1328 1.363 . S
C1333 C1332 1.415 . S
H1334 C1331 0.999 . S
H1335 C1316 0.913 . S
H1336 C1354 0.951 . S
H1337 C1356 0.951 . S
H1338 C1358 0.950 . S
H1339 C1359 0.950 . S
H1340 C1361 0.950 . S
H1341 C1364 0.950 . S
H1342 C1365 0.950 . S
H1343 C1367 0.950 . S
H1344 C1368 0.950 . S
H1345 C1369 0.951 . S
H1346 C1371 0.951 . S
H1347 C1373 0.950 . S
H1348 C1374 0.950 . S
H1349 C1376 0.950 . S
H1350 C1379 0.950 . S
H1351 C1380 0.950 . S
H1352 C1382 0.950 . S
H1353 C1383 0.950 . S
C1354 H1336 0.951 . S
C1354 C1355 1.366 . S
C1354 C1356 1.388 . S
C1355 C1354 1.366 . S
C1355 C1359 1.385 . S
C1356 H1337 0.951 . S
C1356 C1354 1.388 . S
C1356 C1357 1.366 . S
C1357 C1356 1.366 . S
C1357 C1358 1.414 . S
C1357 C1360 1.499 . S
C1358 H1338 0.950 . S
C1358 C1357 1.414 . S
C1358 C1359 1.374 . S
C1359 H1339 0.950 . S
C1359 C1355 1.385 . S
C1359 C1358 1.374 . S
C1360 C1357 1.499 . S
C1360 C1361 1.373 . S
C1360 C1362 1.389 . S
C1361 H1340 0.950 . S
C1361 C1360 1.373 . S
C1361 C1377 1.377 . S
C1362 C1360 1.389 . S
C1362 C1363 1.524 . S
C1362 C1376 1.377 . S
C1363 C1362 1.524 . S
C1363 C1364 1.397 . S
C1363 C1368 1.363 . S
C1364 H1341 0.950 . S
C1364 C1363 1.397 . S
C1364 C1365 1.334 . S
C1365 H1342 0.950 . S
C1365 C1364 1.334 . S
C1365 C1366 1.287 . S
C1366 C1365 1.287 . S
C1366 C1367 1.524 . S
C1366 H1385 0.913 . S
C1367 H1343 0.950 . S
C1367 C1366 1.524 . S
C1367 C1368 1.415 . S
C1368 H1344 0.950 . S
C1368 C1363 1.363 . S
C1368 C1367 1.415 . S
C1369 H1345 0.951 . S
C1369 C1370 1.366 . S
C1369 C1371 1.388 . S
C1370 C1369 1.366 . S
C1370 C1374 1.385 . S
C1371 H1346 0.951 . S
C1371 C1369 1.388 . S
C1371 C1372 1.366 . S
C1372 C1371 1.366 . S
C1372 C1373 1.414 . S
C1372 C1375 1.499 . S
C1373 H1347 0.950 . S
C1373 C1372 1.414 . S
C1373 C1374 1.374 . S
C1374 H1348 0.950 . S
C1374 C1370 1.385 . S
C1374 C1373 1.374 . S
C1375 C1372 1.499 . S
C1375 C1376 1.373 . S
C1375 C1377 1.389 . S
C1376 H1349 0.950 . S
C1376 C1362 1.377 . S
C1376 C1375 1.373 . S
C1377 C1361 1.377 . S
C1377 C1375 1.389 . S
C1377 C1378 1.524 . S
C1378 C1377 1.524 . S
C1378 C1379 1.397 . S
C1378 C1383 1.363 . S
C1379 H1350 0.950 . S
C1379 C1378 1.397 . S
C1379 C1380 1.334 . S
C1380 H1351 0.950 . S
C1380 C1379 1.334 . S
C1380 C1381 1.287 . S
C1381 C1380 1.287 . S
C1381 C1382 1.524 . S
C1381 H1384 0.999 . S
C1382 H1352 0.950 . S
C1382 C1381 1.524 . S
C1382 C1383 1.415 . S
C1383 H1353 0.950 . S
C1383 C1378 1.363 . S
C1383 C1382 1.415 . S
H1384 C1381 0.999 . S
H1385 C1366 0.913 . S
H1386 C1404 0.951 . S
H1387 C1406 0.951 . S
H1388 C1408 0.950 . S
H1389 C1409 0.950 . S
H1390 C1411 0.950 . S
H1391 C1414 0.950 . S
H1392 C1415 0.950 . S
H1393 C1417 0.950 . S
H1394 C1418 0.950 . S
H1395 C1419 0.951 . S
H1396 C1421 0.951 . S
H1397 C1423 0.950 . S
H1398 C1424 0.950 . S
H1399 C1426 0.950 . S
H1400 C1429 0.950 . S
H1401 C1430 0.950 . S
H1402 C1432 0.950 . S
H1403 C1433 0.950 . S
C1404 H1386 0.951 . S
C1404 C1405 1.366 . S
C1404 C1406 1.388 . S
C1405 C1404 1.366 . S
C1405 C1409 1.385 . S
C1406 H1387 0.951 . S
C1406 C1404 1.388 . S
C1406 C1407 1.366 . S
C1407 C1406 1.366 . S
C1407 C1408 1.414 . S
C1407 C1410 1.499 . S
C1408 H1388 0.950 . S
C1408 C1407 1.414 . S
C1408 C1409 1.374 . S
C1409 H1389 0.950 . S
C1409 C1405 1.385 . S
C1409 C1408 1.374 . S
C1410 C1407 1.499 . S
C1410 C1411 1.373 . S
C1410 C1412 1.389 . S
C1411 H1390 0.950 . S
C1411 C1410 1.373 . S
C1411 C1427 1.377 . S
C1412 C1410 1.389 . S
C1412 C1413 1.524 . S
C1412 C1426 1.377 . S
C1413 C1412 1.524 . S
C1413 C1414 1.397 . S
C1413 C1418 1.363 . S
C1414 H1391 0.950 . S
C1414 C1413 1.397 . S
C1414 C1415 1.334 . S
C1415 H1392 0.950 . S
C1415 C1414 1.334 . S
C1415 C1416 1.287 . S
C1416 C1415 1.287 . S
C1416 C1417 1.524 . S
C1416 H1435 0.913 . S
C1417 H1393 0.950 . S
C1417 C1416 1.524 . S
C1417 C1418 1.415 . S
C1418 H1394 0.950 . S
C1418 C1413 1.363 . S
C1418 C1417 1.415 . S
C1419 H1395 0.951 . S
C1419 C1420 1.366 . S
C1419 C1421 1.388 . S
C1420 C1419 1.366 . S
C1420 C1424 1.385 . S
C1421 H1396 0.951 . S
C1421 C1419 1.388 . S
C1421 C1422 1.366 . S
C1422 C1421 1.366 . S
C1422 C1423 1.414 . S
C1422 C1425 1.499 . S
C1423 H1397 0.950 . S
C1423 C1422 1.414 . S
C1423 C1424 1.374 . S
C1424 H1398 0.950 . S
C1424 C1420 1.385 . S
C1424 C1423 1.374 . S
C1425 C1422 1.499 . S
C1425 C1426 1.373 . S
C1425 C1427 1.389 . S
C1426 H1399 0.950 . S
C1426 C1412 1.377 . S
C1426 C1425 1.373 . S
C1427 C1411 1.377 . S
C1427 C1425 1.389 . S
C1427 C1428 1.524 . S
C1428 C1427 1.524 . S
C1428 C1429 1.397 . S
C1428 C1433 1.363 . S
C1429 H1400 0.950 . S
C1429 C1428 1.397 . S
C1429 C1430 1.334 . S
C1430 H1401 0.950 . S
C1430 C1429 1.334 . S
C1430 C1431 1.287 . S
C1431 C1430 1.287 . S
C1431 C1432 1.524 . S
C1431 H1434 0.999 . S
C1432 H1402 0.950 . S
C1432 C1431 1.524 . S
C1432 C1433 1.415 . S
C1433 H1403 0.950 . S
C1433 C1428 1.363 . S
C1433 C1432 1.415 . S
H1434 C1431 0.999 . S
H1435 C1416 0.913 . S
H1436 C1454 0.951 . S
H1437 C1456 0.951 . S
H1438 C1458 0.950 . S
H1439 C1459 0.950 . S
H1440 C1461 0.950 . S
H1441 C1464 0.950 . S
H1442 C1465 0.950 . S
H1443 C1467 0.950 . S
H1444 C1468 0.950 . S
H1445 C1469 0.951 . S
H1446 C1471 0.951 . S
H1447 C1473 0.950 . S
H1448 C1474 0.950 . S
H1449 C1476 0.950 . S
H1450 C1479 0.950 . S
H1451 C1480 0.950 . S
H1452 C1482 0.950 . S
H1453 C1483 0.950 . S
C1454 H1436 0.951 . S
C1454 C1455 1.366 . S
C1454 C1456 1.388 . S
C1455 C1454 1.366 . S
C1455 C1459 1.385 . S
C1456 H1437 0.951 . S
C1456 C1454 1.388 . S
C1456 C1457 1.366 . S
C1457 C1456 1.366 . S
C1457 C1458 1.414 . S
C1457 C1460 1.499 . S
C1458 H1438 0.950 . S
C1458 C1457 1.414 . S
C1458 C1459 1.374 . S
C1459 H1439 0.950 . S
C1459 C1455 1.385 . S
C1459 C1458 1.374 . S
C1460 C1457 1.499 . S
C1460 C1461 1.373 . S
C1460 C1462 1.389 . S
C1461 H1440 0.950 . S
C1461 C1460 1.373 . S
C1461 C1477 1.377 . S
C1462 C1460 1.389 . S
C1462 C1463 1.524 . S
C1462 C1476 1.377 . S
C1463 C1462 1.524 . S
C1463 C1464 1.397 . S
C1463 C1468 1.363 . S
C1464 H1441 0.950 . S
C1464 C1463 1.397 . S
C1464 C1465 1.334 . S
C1465 H1442 0.950 . S
C1465 C1464 1.334 . S
C1465 C1466 1.287 . S
C1466 C1465 1.287 . S
C1466 C1467 1.524 . S
C1466 H1485 0.913 . S
C1467 H1443 0.950 . S
C1467 C1466 1.524 . S
C1467 C1468 1.415 . S
C1468 H1444 0.950 . S
C1468 C1463 1.363 . S
C1468 C1467 1.415 . S
C1469 H1445 0.951 . S
C1469 C1470 1.366 . S
C1469 C1471 1.388 . S
C1470 C1469 1.366 . S
C1470 C1474 1.385 . S
C1471 H1446 0.951 . S
C1471 C1469 1.388 . S
C1471 C1472 1.366 . S
C1472 C1471 1.366 . S
C1472 C1473 1.414 . S
C1472 C1475 1.499 . S
C1473 H1447 0.950 . S
C1473 C1472 1.414 . S
C1473 C1474 1.374 . S
C1474 H1448 0.950 . S
C1474 C1470 1.385 . S
C1474 C1473 1.374 . S
C1475 C1472 1.499 . S
C1475 C1476 1.373 . S
C1475 C1477 1.389 . S
C1476 H1449 0.950 . S
C1476 C1462 1.377 . S
C1476 C1475 1.373 . S
C1477 C1461 1.377 . S
C1477 C1475 1.389 . S
C1477 C1478 1.524 . S
C1478 C1477 1.524 . S
C1478 C1479 1.397 . S
C1478 C1483 1.363 . S
C1479 H1450 0.950 . S
C1479 C1478 1.397 . S
C1479 C1480 1.334 . S
C1480 H1451 0.950 . S
C1480 C1479 1.334 . S
C1480 C1481 1.287 . S
C1481 C1480 1.287 . S
C1481 C1482 1.524 . S
C1481 H1484 0.999 . S
C1482 H1452 0.950 . S
C1482 C1481 1.524 . S
C1482 C1483 1.415 . S
C1483 H1453 0.950 . S
C1483 C1478 1.363 . S
C1483 C1482 1.415 . S
H1484 C1481 0.999 . S
H1485 C1466 0.913 . S
H1486 C1504 0.951 . S
H1487 C1506 0.951 . S
H1488 C1508 0.950 . S
H1489 C1509 0.950 . S
H1490 C1511 0.950 . S
H1491 C1514 0.950 . S
H1492 C1515 0.950 . S
H1493 C1517 0.950 . S
H1494 C1518 0.950 . S
H1495 C1519 0.951 . S
H1496 C1521 0.951 . S
H1497 C1523 0.950 . S
H1498 C1524 0.950 . S
H1499 C1526 0.950 . S
H1500 C1529 0.950 . S
H1501 C1530 0.950 . S
H1502 C1532 0.950 . S
H1503 C1533 0.950 . S
C1504 H1486 0.951 . S
C1504 C1505 1.366 . S
C1504 C1506 1.388 . S
C1505 C1504 1.366 . S
C1505 C1509 1.385 . S
C1506 H1487 0.951 . S
C1506 C1504 1.388 . S
C1506 C1507 1.366 . S
C1507 C1506 1.366 . S
C1507 C1508 1.414 . S
C1507 C1510 1.499 . S
C1508 H1488 0.950 . S
C1508 C1507 1.414 . S
C1508 C1509 1.374 . S
C1509 H1489 0.950 . S
C1509 C1505 1.385 . S
C1509 C1508 1.374 . S
C1510 C1507 1.499 . S
C1510 C1511 1.373 . S
C1510 C1512 1.389 . S
C1511 H1490 0.950 . S
C1511 C1510 1.373 . S
C1511 C1527 1.377 . S
C1512 C1510 1.389 . S
C1512 C1513 1.524 . S
C1512 C1526 1.377 . S
C1513 C1512 1.524 . S
C1513 C1514 1.397 . S
C1513 C1518 1.363 . S
C1514 H1491 0.950 . S
C1514 C1513 1.397 . S
C1514 C1515 1.334 . S
C1515 H1492 0.950 . S
C1515 C1514 1.334 . S
C1515 C1516 1.287 . S
C1516 C1515 1.287 . S
C1516 C1517 1.524 . S
C1516 H1535 0.913 . S
C1517 H1493 0.950 . S
C1517 C1516 1.524 . S
C1517 C1518 1.415 . S
C1518 H1494 0.950 . S
C1518 C1513 1.363 . S
C1518 C1517 1.415 . S
C1519 H1495 0.951 . S
C1519 C1520 1.366 . S
C1519 C1521 1.388 . S
C1520 C1519 1.366 . S
C1520 C1524 1.385 . S
C1521 H1496 0.951 . S
C1521 C1519 1.388 . S
C1521 C1522 1.366 . S
C1522 C1521 1.366 . S
C1522 C1523 1.414 . S
C1522 C1525 1.499 . S
C1523 H1497 0.950 . S
C1523 C1522 1.414 . S
C1523 C1524 1.374 . S
C1524 H1498 0.950 . S
C1524 C1520 1.385 . S
C1524 C1523 1.374 . S
C1525 C1522 1.499 . S
C1525 C1526 1.373 . S
C1525 C1527 1.389 . S
C1526 H1499 0.950 . S
C1526 C1512 1.377 . S
C1526 C1525 1.373 . S
C1527 C1511 1.377 . S
C1527 C1525 1.389 . S
C1527 C1528 1.524 . S
C1528 C1527 1.524 . S
C1528 C1529 1.397 . S
C1528 C1533 1.363 . S
C1529 H1500 0.950 . S
C1529 C1528 1.397 . S
C1529 C1530 1.334 . S
C1530 H1501 0.950 . S
C1530 C1529 1.334 . S
C1530 C1531 1.287 . S
C1531 C1530 1.287 . S
C1531 C1532 1.524 . S
C1531 H1534 0.999 . S
C1532 H1502 0.950 . S
C1532 C1531 1.524 . S
C1532 C1533 1.415 . S
C1533 H1503 0.950 . S
C1533 C1528 1.363 . S
C1533 C1532 1.415 . S
H1534 C1531 0.999 . S
H1535 C1516 0.913 . S
H1536 C1554 0.951 . S
H1537 C1556 0.951 . S
H1538 C1558 0.950 . S
H1539 C1559 0.950 . S
H1540 C1561 0.950 . S
H1541 C1564 0.950 . S
H1542 C1565 0.950 . S
H1543 C1567 0.950 . S
H1544 C1568 0.950 . S
H1545 C1569 0.951 . S
H1546 C1571 0.951 . S
H1547 C1573 0.950 . S
H1548 C1574 0.950 . S
H1549 C1576 0.950 . S
H1550 C1579 0.950 . S
H1551 C1580 0.950 . S
H1552 C1582 0.950 . S
H1553 C1583 0.950 . S
C1554 H1536 0.951 . S
C1554 C1555 1.366 . S
C1554 C1556 1.388 . S
C1555 C1554 1.366 . S
C1555 C1559 1.385 . S
C1556 H1537 0.951 . S
C1556 C1554 1.388 . S
C1556 C1557 1.366 . S
C1557 C1556 1.366 . S
C1557 C1558 1.414 . S
C1557 C1560 1.499 . S
C1558 H1538 0.950 . S
C1558 C1557 1.414 . S
C1558 C1559 1.374 . S
C1559 H1539 0.950 . S
C1559 C1555 1.385 . S
C1559 C1558 1.374 . S
C1560 C1557 1.499 . S
C1560 C1561 1.373 . S
C1560 C1562 1.389 . S
C1561 H1540 0.950 . S
C1561 C1560 1.373 . S
C1561 C1577 1.377 . S
C1562 C1560 1.389 . S
C1562 C1563 1.524 . S
C1562 C1576 1.377 . S
C1563 C1562 1.524 . S
C1563 C1564 1.397 . S
C1563 C1568 1.363 . S
C1564 H1541 0.950 . S
C1564 C1563 1.397 . S
C1564 C1565 1.334 . S
C1565 H1542 0.950 . S
C1565 C1564 1.334 . S
C1565 C1566 1.287 . S
C1566 C1565 1.287 . S
C1566 C1567 1.524 . S
C1566 H1585 0.913 . S
C1567 H1543 0.950 . S
C1567 C1566 1.524 . S
C1567 C1568 1.415 . S
C1568 H1544 0.950 . S
C1568 C1563 1.363 . S
C1568 C1567 1.415 . S
C1569 H1545 0.951 . S
C1569 C1570 1.366 . S
C1569 C1571 1.388 . S
C1570 C1569 1.366 . S
C1570 C1574 1.385 . S
C1571 H1546 0.951 . S
C1571 C1569 1.388 . S
C1571 C1572 1.366 . S
C1572 C1571 1.366 . S
C1572 C1573 1.414 . S
C1572 C1575 1.499 . S
C1573 H1547 0.950 . S
C1573 C1572 1.414 . S
C1573 C1574 1.374 . S
C1574 H1548 0.950 . S
C1574 C1570 1.385 . S
C1574 C1573 1.374 . S
C1575 C1572 1.499 . S
C1575 C1576 1.373 . S
C1575 C1577 1.389 . S
C1576 H1549 0.950 . S
C1576 C1562 1.377 . S
C1576 C1575 1.373 . S
C1577 C1561 1.377 . S
C1577 C1575 1.389 . S
C1577 C1578 1.524 . S
C1578 C1577 1.524 . S
C1578 C1579 1.397 . S
C1578 C1583 1.363 . S
C1579 H1550 0.950 . S
C1579 C1578 1.397 . S
C1579 C1580 1.334 . S
C1580 H1551 0.950 . S
C1580 C1579 1.334 . S
C1580 C1581 1.287 . S
C1581 C1580 1.287 . S
C1581 C1582 1.524 . S
C1581 H1584 0.999 . S
C1582 H1552 0.950 . S
C1582 C1581 1.524 . S
C1582 C1583 1.415 . S
C1583 H1553 0.950 . S
C1583 C1578 1.363 . S
C1583 C1582 1.415 . S
H1584 C1581 0.999 . S
H1585 C1566 0.913 . S
H1586 C1604 0.951 . S
H1587 C1606 0.951 . S
H1588 C1608 0.950 . S
H1589 C1609 0.950 . S
H1590 C1611 0.950 . S
H1591 C1614 0.950 . S
H1592 C1615 0.950 . S
H1593 C1617 0.950 . S
H1594 C1618 0.950 . S
H1595 C1619 0.951 . S
H1596 C1621 0.951 . S
H1597 C1623 0.950 . S
H1598 C1624 0.950 . S
H1599 C1626 0.950 . S
H1600 C1629 0.950 . S
H1601 C1630 0.950 . S
H1602 C1632 0.950 . S
H1603 C1633 0.950 . S
C1604 H1586 0.951 . S
C1604 C1605 1.366 . S
C1604 C1606 1.388 . S
C1605 C1604 1.366 . S
C1605 C1609 1.385 . S
C1606 H1587 0.951 . S
C1606 C1604 1.388 . S
C1606 C1607 1.366 . S
C1607 C1606 1.366 . S
C1607 C1608 1.414 . S
C1607 C1610 1.499 1_554 S
C1608 H1588 0.950 . S
C1608 C1607 1.414 . S
C1608 C1609 1.374 . S
C1609 H1589 0.950 . S
C1609 C1605 1.385 . S
C1609 C1608 1.374 . S
C1610 C1607 1.499 1_556 S
C1610 C1611 1.373 . S
C1610 C1612 1.389 . S
C1611 H1590 0.950 . S
C1611 C1610 1.373 . S
C1611 C1627 1.377 . S
C1612 C1610 1.389 . S
C1612 C1613 1.524 . S
C1612 C1626 1.377 . S
C1613 C1612 1.524 . S
C1613 C1614 1.397 1_556 S
C1613 C1618 1.363 . S
C1614 H1591 0.950 . S
C1614 C1613 1.397 1_554 S
C1614 C1615 1.334 . S
C1615 H1592 0.950 . S
C1615 C1614 1.334 . S
C1615 C1616 1.315 . S
C1616 C1615 1.315 . S
C1616 C1617 1.483 1_554 S
C1616 H1635 0.935 . S
C1617 H1593 0.950 . S
C1617 C1616 1.483 1_556 S
C1617 C1618 1.415 . S
C1618 H1594 0.950 . S
C1618 C1613 1.363 . S
C1618 C1617 1.415 . S
C1619 H1595 0.951 . S
C1619 C1620 1.366 . S
C1619 C1621 1.388 . S
C1620 C1619 1.366 . S
C1620 C1624 1.385 . S
C1621 H1596 0.951 . S
C1621 C1619 1.388 . S
C1621 C1622 1.366 . S
C1622 C1621 1.366 . S
C1622 C1623 1.414 . S
C1622 C1625 1.499 . S
C1623 H1597 0.950 . S
C1623 C1622 1.414 . S
C1623 C1624 1.374 . S
C1624 H1598 0.950 . S
C1624 C1620 1.385 . S
C1624 C1623 1.374 . S
C1625 C1622 1.499 . S
C1625 C1626 1.373 . S
C1625 C1627 1.389 . S
C1626 H1599 0.950 . S
C1626 C1612 1.377 . S
C1626 C1625 1.373 . S
C1627 C1611 1.377 . S
C1627 C1625 1.389 . S
C1627 C1628 1.524 . S
C1628 C1627 1.524 . S
C1628 C1629 1.397 . S
C1628 C1633 1.363 . S
C1629 H1600 0.950 . S
C1629 C1628 1.397 . S
C1629 C1630 1.334 . S
C1630 H1601 0.950 . S
C1630 C1629 1.334 . S
C1630 C1631 1.287 . S
C1631 C1630 1.287 . S
C1631 C1632 1.524 . S
C1631 H1634 0.999 . S
C1632 H1602 0.950 . S
C1632 C1631 1.524 . S
C1632 C1633 1.415 . S
C1633 H1603 0.950 . S
C1633 C1628 1.363 . S
C1633 C1632 1.415 . S
H1634 C1631 0.999 . S
H1635 C1616 0.935 . S
H1636 C1654 0.951 . S
H1637 C1656 0.951 . S
H1638 C1658 0.950 . S
H1639 C1659 0.950 . S
H1640 C1661 0.950 . S
H1641 C1664 0.950 . S
H1642 C1665 0.950 . S
H1643 C1667 0.950 . S
H1644 C1668 0.950 . S
H1645 C1669 0.951 . S
H1646 C1671 0.951 . S
H1647 C1673 0.950 . S
H1648 C1674 0.950 . S
H1649 C1676 0.950 . S
H1650 C1679 0.950 . S
H1651 C1680 0.950 . S
H1652 C1682 0.950 . S
H1653 C1683 0.950 . S
C1654 H1636 0.951 . S
C1654 C1655 1.366 . S
C1654 C1656 1.388 . S
C1655 C1654 1.366 . S
C1655 C1659 1.385 . S
C1656 H1637 0.951 . S
C1656 C1654 1.388 . S
C1656 C1657 1.366 . S
C1657 C1656 1.366 . S
C1657 C1658 1.414 . S
C1657 C1660 1.499 . S
C1658 H1638 0.950 . S
C1658 C1657 1.414 . S
C1658 C1659 1.374 . S
C1659 H1639 0.950 . S
C1659 C1655 1.385 . S
C1659 C1658 1.374 . S
C1660 C1657 1.499 . S
C1660 C1661 1.373 . S
C1660 C1662 1.389 . S
C1661 H1640 0.950 . S
C1661 C1660 1.373 . S
C1661 C1677 1.377 . S
C1662 C1660 1.389 . S
C1662 C1663 1.524 . S
C1662 C1676 1.377 . S
C1663 C1662 1.524 . S
C1663 C1664 1.397 . S
C1663 C1668 1.363 . S
C1664 H1641 0.950 . S
C1664 C1663 1.397 . S
C1664 C1665 1.334 . S
C1665 H1642 0.950 . S
C1665 C1664 1.334 . S
C1665 C1666 1.287 . S
C1666 C1665 1.287 . S
C1666 C1667 1.524 . S
C1666 H1685 0.913 . S
C1667 H1643 0.950 . S
C1667 C1666 1.524 . S
C1667 C1668 1.415 . S
C1668 H1644 0.950 . S
C1668 C1663 1.363 . S
C1668 C1667 1.415 . S
C1669 H1645 0.951 . S
C1669 C1670 1.366 . S
C1669 C1671 1.388 . S
C1670 C1669 1.366 . S
C1670 C1674 1.385 . S
C1671 H1646 0.951 . S
C1671 C1669 1.388 . S
C1671 C1672 1.366 . S
C1672 C1671 1.366 . S
C1672 C1673 1.414 . S
C1672 C1675 1.499 . S
C1673 H1647 0.950 . S
C1673 C1672 1.414 . S
C1673 C1674 1.374 . S
C1674 H1648 0.950 . S
C1674 C1670 1.385 . S
C1674 C1673 1.374 . S
C1675 C1672 1.499 . S
C1675 C1676 1.373 . S
C1675 C1677 1.389 . S
C1676 H1649 0.950 . S
C1676 C1662 1.377 . S
C1676 C1675 1.373 . S
C1677 C1661 1.377 . S
C1677 C1675 1.389 . S
C1677 C1678 1.524 . S
C1678 C1677 1.524 . S
C1678 C1679 1.397 . S
C1678 C1683 1.363 . S
C1679 H1650 0.950 . S
C1679 C1678 1.397 . S
C1679 C1680 1.334 . S
C1680 H1651 0.950 . S
C1680 C1679 1.334 . S
C1680 C1681 1.287 . S
C1681 C1680 1.287 . S
C1681 C1682 1.524 . S
C1681 H1684 0.999 . S
C1682 H1652 0.950 . S
C1682 C1681 1.524 . S
C1682 C1683 1.415 . S
C1683 H1653 0.950 . S
C1683 C1678 1.363 . S
C1683 C1682 1.415 . S
H1684 C1681 0.999 . S
H1685 C1666 0.913 . S
H1686 C1704 0.951 . S
H1687 C1706 0.951 . S
H1688 C1708 0.950 . S
H1689 C1709 0.950 . S
H1690 C1711 0.950 . S
H1691 C1714 0.950 . S
H1692 C1715 0.950 . S
H1693 C1717 0.950 . S
H1694 C1718 0.950 . S
H1695 C1719 0.951 . S
H1696 C1721 0.951 . S
H1697 C1723 0.950 . S
H1698 C1724 0.950 . S
H1699 C1726 0.950 . S
H1700 C1729 0.950 . S
H1701 C1730 0.950 . S
H1702 C1732 0.950 . S
H1703 C1733 0.950 . S
C1704 H1686 0.951 . S
C1704 C1705 1.366 . S
C1704 C1706 1.388 . S
C1705 C1704 1.366 . S
C1705 C1709 1.385 . S
C1706 H1687 0.951 . S
C1706 C1704 1.388 . S
C1706 C1707 1.366 . S
C1707 C1706 1.366 . S
C1707 C1708 1.414 . S
C1707 C1710 1.499 . S
C1708 H1688 0.950 . S
C1708 C1707 1.414 . S
C1708 C1709 1.374 . S
C1709 H1689 0.950 . S
C1709 C1705 1.385 . S
C1709 C1708 1.374 . S
C1710 C1707 1.499 . S
C1710 C1711 1.373 . S
C1710 C1712 1.389 . S
C1711 H1690 0.950 . S
C1711 C1710 1.373 . S
C1711 C1727 1.377 . S
C1712 C1710 1.389 . S
C1712 C1713 1.524 . S
C1712 C1726 1.377 . S
C1713 C1712 1.524 . S
C1713 C1714 1.397 . S
C1713 C1718 1.363 . S
C1714 H1691 0.950 . S
C1714 C1713 1.397 . S
C1714 C1715 1.334 . S
C1715 H1692 0.950 . S
C1715 C1714 1.334 . S
C1715 C1716 1.287 . S
C1716 C1715 1.287 . S
C1716 C1717 1.524 . S
C1716 H1735 0.913 . S
C1717 H1693 0.950 . S
C1717 C1716 1.524 . S
C1717 C1718 1.415 . S
C1718 H1694 0.950 . S
C1718 C1713 1.363 . S
C1718 C1717 1.415 . S
C1719 H1695 0.951 . S
C1719 C1720 1.366 . S
C1719 C1721 1.388 . S
C1720 C1719 1.366 . S
C1720 C1724 1.385 . S
C1721 H1696 0.951 . S
C1721 C1719 1.388 . S
C1721 C1722 1.366 . S
C1722 C1721 1.366 . S
C1722 C1723 1.414 . S
C1722 C1725 1.499 1_556 S
C1723 H1697 0.950 . S
C1723 C1722 1.414 . S
C1723 C1724 1.374 . S
C1724 H1698 0.950 . S
C1724 C1720 1.385 . S
C1724 C1723 1.374 . S
C1725 C1722 1.499 1_554 S
C1725 C1726 1.373 . S
C1725 C1727 1.389 . S
C1726 H1699 0.950 . S
C1726 C1712 1.377 . S
C1726 C1725 1.373 . S
C1727 C1711 1.377 . S
C1727 C1725 1.389 . S
C1727 C1728 1.524 1_554 S
C1728 C1727 1.524 1_556 S
C1728 C1729 1.397 . S
C1728 C1733 1.363 1_556 S
C1729 H1700 0.950 . S
C1729 C1728 1.397 . S
C1729 C1730 1.334 . S
C1730 H1701 0.950 . S
C1730 C1729 1.334 . S
C1730 C1731 1.287 . S
C1731 C1730 1.287 . S
C1731 C1732 1.524 . S
C1731 H1734 0.999 . S
C1732 H1702 0.950 . S
C1732 C1731 1.524 . S
C1732 C1733 1.415 1_556 S
C1733 H1703 0.950 . S
C1733 C1728 1.363 1_554 S
C1733 C1732 1.415 1_554 S
H1734 C1731 0.999 . S
H1735 C1716 0.913 . S
H1736 C1754 0.951 . S
H1737 C1756 0.951 . S
H1738 C1758 0.950 . S
H1739 C1759 0.950 . S
H1740 C1761 0.950 . S
H1741 C1764 0.950 . S
H1742 C1765 0.950 . S
H1743 C1767 0.950 . S
H1744 C1768 0.950 . S
H1745 C1769 0.951 . S
H1746 C1771 0.951 . S
H1747 C1773 0.950 . S
H1748 C1774 0.950 . S
H1749 C1776 0.950 . S
H1750 C1779 0.950 . S
H1751 C1780 0.950 . S
H1752 C1782 0.950 . S
H1753 C1783 0.950 . S
C1754 H1736 0.951 . S
C1754 C1755 1.366 . S
C1754 C1756 1.388 . S
C1755 C1754 1.366 . S
C1755 C1759 1.385 . S
C1756 H1737 0.951 . S
C1756 C1754 1.388 . S
C1756 C1757 1.366 . S
C1757 C1756 1.366 . S
C1757 C1758 1.414 . S
C1757 C1760 1.499 . S
C1758 H1738 0.950 . S
C1758 C1757 1.414 . S
C1758 C1759 1.374 . S
C1759 H1739 0.950 . S
C1759 C1755 1.385 . S
C1759 C1758 1.374 . S
C1760 C1757 1.499 . S
C1760 C1761 1.373 . S
C1760 C1762 1.389 . S
C1761 H1740 0.950 . S
C1761 C1760 1.373 . S
C1761 C1777 1.377 . S
C1762 C1760 1.389 . S
C1762 C1763 1.524 . S
C1762 C1776 1.377 . S
C1763 C1762 1.524 . S
C1763 C1764 1.397 . S
C1763 C1768 1.363 . S
C1764 H1741 0.950 . S
C1764 C1763 1.397 . S
C1764 C1765 1.334 . S
C1765 H1742 0.950 . S
C1765 C1764 1.334 . S
C1765 C1766 1.287 . S
C1766 C1765 1.287 . S
C1766 C1767 1.524 . S
C1766 H1785 0.913 . S
C1767 H1743 0.950 . S
C1767 C1766 1.524 . S
C1767 C1768 1.415 . S
C1768 H1744 0.950 . S
C1768 C1763 1.363 . S
C1768 C1767 1.415 . S
C1769 H1745 0.951 . S
C1769 C1770 1.366 . S
C1769 C1771 1.388 . S
C1770 C1769 1.366 . S
C1770 C1774 1.385 . S
C1771 H1746 0.951 . S
C1771 C1769 1.388 . S
C1771 C1772 1.366 . S
C1772 C1771 1.366 . S
C1772 C1773 1.414 . S
C1772 C1775 1.499 . S
C1773 H1747 0.950 . S
C1773 C1772 1.414 . S
C1773 C1774 1.374 . S
C1774 H1748 0.950 . S
C1774 C1770 1.385 . S
C1774 C1773 1.374 . S
C1775 C1772 1.499 . S
C1775 C1776 1.373 . S
C1775 C1777 1.389 . S
C1776 H1749 0.950 . S
C1776 C1762 1.377 . S
C1776 C1775 1.373 . S
C1777 C1761 1.377 . S
C1777 C1775 1.389 . S
C1777 C1778 1.524 . S
C1778 C1777 1.524 . S
C1778 C1779 1.397 . S
C1778 C1783 1.363 . S
C1779 H1750 0.950 . S
C1779 C1778 1.397 . S
C1779 C1780 1.334 . S
C1780 H1751 0.950 . S
C1780 C1779 1.334 . S
C1780 C1781 1.287 . S
C1781 C1780 1.287 . S
C1781 C1782 1.524 . S
C1781 H1784 0.999 . S
C1782 H1752 0.950 . S
C1782 C1781 1.524 . S
C1782 C1783 1.415 . S
C1783 H1753 0.950 . S
C1783 C1778 1.363 . S
C1783 C1782 1.415 . S
H1784 C1781 0.999 . S
H1785 C1766 0.913 . S
H1786 C1804 0.951 . S
H1787 C1806 0.951 . S
H1788 C1808 0.950 . S
H1789 C1809 0.950 . S
H1790 C1811 0.950 . S
H1791 C1814 0.950 . S
H1792 C1815 0.950 1_655 S
H1793 C1817 0.950 . S
H1794 C1818 0.950 . S
H1795 C1819 0.951 . S
H1796 C1821 0.951 . S
H1797 C1823 0.950 . S
H1798 C1824 0.950 . S
H1799 C1826 0.950 . S
H1800 C1829 0.950 . S
H1801 C1830 0.950 . S
H1802 C1832 0.950 . S
H1803 C1833 0.950 . S
C1804 H1786 0.951 . S
C1804 C1805 1.366 . S
C1804 C1806 1.388 . S
C1805 C1804 1.366 . S
C1805 C1809 1.385 . S
C1806 H1787 0.951 . S
C1806 C1804 1.388 . S
C1806 C1807 1.366 . S
C1807 C1806 1.366 . S
C1807 C1808 1.414 . S
C1807 C1810 1.499 1_655 S
C1808 H1788 0.950 . S
C1808 C1807 1.414 . S
C1808 C1809 1.374 . S
C1809 H1789 0.950 . S
C1809 C1805 1.385 . S
C1809 C1808 1.374 . S
C1810 C1807 1.499 1_455 S
C1810 C1811 1.373 . S
C1810 C1812 1.389 . S
C1811 H1790 0.950 . S
C1811 C1810 1.373 . S
C1811 C1827 1.377 . S
C1812 C1810 1.389 . S
C1812 C1813 1.524 . S
C1812 C1826 1.377 . S
C1813 C1812 1.524 . S
C1813 C1814 1.397 . S
C1813 C1818 1.363 . S
C1814 H1791 0.950 . S
C1814 C1813 1.397 . S
C1814 C1815 1.334 . S
C1815 H1792 0.950 1_455 S
C1815 C1814 1.334 . S
C1815 C1816 1.287 . S
C1816 C1815 1.287 . S
C1816 C1817 1.524 . S
C1816 H1835 0.913 . S
C1817 H1793 0.950 . S
C1817 C1816 1.524 . S
C1817 C1818 1.415 . S
C1818 H1794 0.950 . S
C1818 C1813 1.363 . S
C1818 C1817 1.415 . S
C1819 H1795 0.951 . S
C1819 C1820 1.366 . S
C1819 C1821 1.388 . S
C1820 C1819 1.366 . S
C1820 C1824 1.385 . S
C1821 H1796 0.951 . S
C1821 C1819 1.388 . S
C1821 C1822 1.366 . S
C1822 C1821 1.366 . S
C1822 C1823 1.414 . S
C1822 C1825 1.499 . S
C1823 H1797 0.950 . S
C1823 C1822 1.414 . S
C1823 C1824 1.374 . S
C1824 H1798 0.950 . S
C1824 C1820 1.385 . S
C1824 C1823 1.374 . S
C1825 C1822 1.499 . S
C1825 C1826 1.373 . S
C1825 C1827 1.389 . S
C1826 H1799 0.950 . S
C1826 C1812 1.377 . S
C1826 C1825 1.373 . S
C1827 C1811 1.377 . S
C1827 C1825 1.389 . S
C1827 C1828 1.524 . S
C1828 C1827 1.524 . S
C1828 C1829 1.397 . S
C1828 C1833 1.363 . S
C1829 H1800 0.950 . S
C1829 C1828 1.397 . S
C1829 C1830 1.334 . S
C1830 H1801 0.950 . S
C1830 C1829 1.334 . S
C1830 C1831 1.287 . S
C1831 C1830 1.287 . S
C1831 C1832 1.524 . S
C1831 H1834 0.999 . S
C1832 H1802 0.950 . S
C1832 C1831 1.524 . S
C1832 C1833 1.415 . S
C1833 H1803 0.950 . S
C1833 C1828 1.363 . S
C1833 C1832 1.415 . S
H1834 C1831 0.999 . S
H1835 C1816 0.913 . S
H1836 C1854 0.951 . S
H1837 C1856 0.951 . S
H1838 C1858 0.950 . S
H1839 C1859 0.950 . S
H1840 C1861 0.950 . S
H1841 C1864 0.950 . S
H1842 C1865 0.950 . S
H1843 C1867 0.950 . S
H1844 C1868 0.950 . S
H1845 C1869 0.951 . S
H1846 C1871 0.951 . S
H1847 C1873 0.950 . S
H1848 C1874 0.950 . S
H1849 C1876 0.950 . S
H1850 C1879 0.950 . S
H1851 C1880 0.950 . S
H1852 C1882 0.950 . S
H1853 C1883 0.950 . S
C1854 H1836 0.951 . S
C1854 C1855 1.366 . S
C1854 C1856 1.388 . S
C1855 C1854 1.366 . S
C1855 C1859 1.385 . S
C1856 H1837 0.951 . S
C1856 C1854 1.388 . S
C1856 C1857 1.366 . S
C1857 C1856 1.366 . S
C1857 C1858 1.414 . S
C1857 C1860 1.499 1_455 S
C1858 H1838 0.950 . S
C1858 C1857 1.414 . S
C1858 C1859 1.374 . S
C1859 H1839 0.950 . S
C1859 C1855 1.385 . S
C1859 C1858 1.374 . S
C1860 C1857 1.499 1_655 S
C1860 C1861 1.373 . S
C1860 C1862 1.389 . S
C1861 H1840 0.950 . S
C1861 C1860 1.373 . S
C1861 C1877 1.377 . S
C1862 C1860 1.389 . S
C1862 C1863 1.524 . S
C1862 C1876 1.377 . S
C1863 C1862 1.524 . S
C1863 C1864 1.397 1_655 S
C1863 C1868 1.363 . S
C1864 H1841 0.950 . S
C1864 C1863 1.397 1_455 S
C1864 C1865 1.334 . S
C1865 H1842 0.950 . S
C1865 C1864 1.334 . S
C1865 C1866 1.287 . S
C1866 C1865 1.287 . S
C1866 C1867 1.524 1_455 S
C1866 H1885 0.913 . S
C1867 H1843 0.950 . S
C1867 C1866 1.524 1_655 S
C1867 C1868 1.415 . S
C1868 H1844 0.950 . S
C1868 C1863 1.363 . S
C1868 C1867 1.415 . S
C1869 H1845 0.951 . S
C1869 C1870 1.366 . S
C1869 C1871 1.388 . S
C1870 C1869 1.366 . S
C1870 C1874 1.385 . S
C1871 H1846 0.951 . S
C1871 C1869 1.388 . S
C1871 C1872 1.366 . S
C1872 C1871 1.366 . S
C1872 C1873 1.414 . S
C1872 C1875 1.499 . S
C1873 H1847 0.950 . S
C1873 C1872 1.414 . S
C1873 C1874 1.374 . S
C1874 H1848 0.950 . S
C1874 C1870 1.385 . S
C1874 C1873 1.374 . S
C1875 C1872 1.499 . S
C1875 C1876 1.373 . S
C1875 C1877 1.389 . S
C1876 H1849 0.950 . S
C1876 C1862 1.377 . S
C1876 C1875 1.373 . S
C1877 C1861 1.377 . S
C1877 C1875 1.389 . S
C1877 C1878 1.524 . S
C1878 C1877 1.524 . S
C1878 C1879 1.397 . S
C1878 C1883 1.363 . S
C1879 H1850 0.950 . S
C1879 C1878 1.397 . S
C1879 C1880 1.334 . S
C1880 H1851 0.950 . S
C1880 C1879 1.334 . S
C1880 C1881 1.287 . S
C1881 C1880 1.287 . S
C1881 C1882 1.524 . S
C1881 H1884 0.999 . S
C1882 H1852 0.950 . S
C1882 C1881 1.524 . S
C1882 C1883 1.415 . S
C1883 H1853 0.950 . S
C1883 C1878 1.363 . S
C1883 C1882 1.415 . S
H1884 C1881 0.999 . S
H1885 C1866 0.913 . S
H1886 C1904 0.951 . S
H1887 C1906 0.951 . S
H1888 C1908 0.950 . S
H1889 C1909 0.950 . S
H1890 C1911 0.950 . S
H1891 C1914 0.950 . S
H1892 C1915 0.950 . S
H1893 C1917 0.950 . S
H1894 C1918 0.950 . S
H1895 C1919 0.951 . S
H1896 C1921 0.951 . S
H1897 C1923 0.950 . S
H1898 C1924 0.950 . S
H1899 C1926 0.950 . S
H1900 C1929 0.950 . S
H1901 C1930 0.950 . S
H1902 C1932 0.950 . S
H1903 C1933 0.950 . S
C1904 H1886 0.951 . S
C1904 C1905 1.366 . S
C1904 C1906 1.388 . S
C1905 C1904 1.366 . S
C1905 C1909 1.385 . S
C1906 H1887 0.951 . S
C1906 C1904 1.388 . S
C1906 C1907 1.366 . S
C1907 C1906 1.366 . S
C1907 C1908 1.414 . S
C1907 C1910 1.499 . S
C1908 H1888 0.950 . S
C1908 C1907 1.414 . S
C1908 C1909 1.374 . S
C1909 H1889 0.950 . S
C1909 C1905 1.385 . S
C1909 C1908 1.374 . S
C1910 C1907 1.499 . S
C1910 C1911 1.373 . S
C1910 C1912 1.389 . S
C1911 H1890 0.950 . S
C1911 C1910 1.373 . S
C1911 C1927 1.377 . S
C1912 C1910 1.389 . S
C1912 C1913 1.524 . S
C1912 C1926 1.377 . S
C1913 C1912 1.524 . S
C1913 C1914 1.397 . S
C1913 C1918 1.363 . S
C1914 H1891 0.950 . S
C1914 C1913 1.397 . S
C1914 C1915 1.334 . S
C1915 H1892 0.950 . S
C1915 C1914 1.334 . S
C1915 C1916 1.287 . S
C1916 C1915 1.287 . S
C1916 C1917 1.524 . S
C1916 H1935 0.913 . S
C1917 H1893 0.950 . S
C1917 C1916 1.524 . S
C1917 C1918 1.415 . S
C1918 H1894 0.950 . S
C1918 C1913 1.363 . S
C1918 C1917 1.415 . S
C1919 H1895 0.951 . S
C1919 C1920 1.366 . S
C1919 C1921 1.388 . S
C1920 C1919 1.366 . S
C1920 C1924 1.385 . S
C1921 H1896 0.951 . S
C1921 C1919 1.388 . S
C1921 C1922 1.366 . S
C1922 C1921 1.366 . S
C1922 C1923 1.414 . S
C1922 C1925 1.499 . S
C1923 H1897 0.950 . S
C1923 C1922 1.414 . S
C1923 C1924 1.374 . S
C1924 H1898 0.950 . S
C1924 C1920 1.385 . S
C1924 C1923 1.374 . S
C1925 C1922 1.499 . S
C1925 C1926 1.373 . S
C1925 C1927 1.389 . S
C1926 H1899 0.950 . S
C1926 C1912 1.377 . S
C1926 C1925 1.373 . S
C1927 C1911 1.377 . S
C1927 C1925 1.389 . S
C1927 C1928 1.524 . S
C1928 C1927 1.524 . S
C1928 C1929 1.397 . S
C1928 C1933 1.363 . S
C1929 H1900 0.950 . S
C1929 C1928 1.397 . S
C1929 C1930 1.334 . S
C1930 H1901 0.950 . S
C1930 C1929 1.334 . S
C1930 C1931 1.287 . S
C1931 C1930 1.287 . S
C1931 C1932 1.524 . S
C1931 H1934 0.999 . S
C1932 H1902 0.950 . S
C1932 C1931 1.524 . S
C1932 C1933 1.415 . S
C1933 H1903 0.950 . S
C1933 C1928 1.363 . S
C1933 C1932 1.415 . S
H1934 C1931 0.999 . S
H1935 C1916 0.913 . S
H1936 C1954 0.951 . S
H1937 C1956 0.951 . S
H1938 C1958 0.950 . S
H1939 C1959 0.950 . S
H1940 C1961 0.950 . S
H1941 C1964 0.950 . S
H1942 C1965 0.950 . S
H1943 C1967 0.950 . S
H1944 C1968 0.950 . S
H1945 C1969 0.951 . S
H1946 C1971 0.951 . S
H1947 C1973 0.950 . S
H1948 C1974 0.950 . S
H1949 C1976 0.950 . S
H1950 C1979 0.950 . S
H1951 C1980 0.950 . S
H1952 C1982 0.950 . S
H1953 C1983 0.950 . S
C1954 H1936 0.951 . S
C1954 C1955 1.366 . S
C1954 C1956 1.388 . S
C1955 C1954 1.366 . S
C1955 C1959 1.385 . S
C1956 H1937 0.951 . S
C1956 C1954 1.388 . S
C1956 C1957 1.366 . S
C1957 C1956 1.366 . S
C1957 C1958 1.414 . S
C1957 C1960 1.499 . S
C1958 H1938 0.950 . S
C1958 C1957 1.414 . S
C1958 C1959 1.374 . S
C1959 H1939 0.950 . S
C1959 C1955 1.385 . S
C1959 C1958 1.374 . S
C1960 C1957 1.499 . S
C1960 C1961 1.373 . S
C1960 C1962 1.389 . S
C1961 H1940 0.950 . S
C1961 C1960 1.373 . S
C1961 C1977 1.377 . S
C1962 C1960 1.389 . S
C1962 C1963 1.524 . S
C1962 C1976 1.377 . S
C1963 C1962 1.524 . S
C1963 C1964 1.397 . S
C1963 C1968 1.363 . S
C1964 H1941 0.950 . S
C1964 C1963 1.397 . S
C1964 C1965 1.334 . S
C1965 H1942 0.950 . S
C1965 C1964 1.334 . S
C1965 C1966 1.287 . S
C1966 C1965 1.287 . S
C1966 C1967 1.524 . S
C1966 H1985 0.913 . S
C1967 H1943 0.950 . S
C1967 C1966 1.524 . S
C1967 C1968 1.415 . S
C1968 H1944 0.950 . S
C1968 C1963 1.363 . S
C1968 C1967 1.415 . S
C1969 H1945 0.951 . S
C1969 C1970 1.366 . S
C1969 C1971 1.388 . S
C1970 C1969 1.366 . S
C1970 C1974 1.385 . S
C1971 H1946 0.951 . S
C1971 C1969 1.388 . S
C1971 C1972 1.366 . S
C1972 C1971 1.366 . S
C1972 C1973 1.414 . S
C1972 C1975 1.499 . S
C1973 H1947 0.950 . S
C1973 C1972 1.414 . S
C1973 C1974 1.374 . S
C1974 H1948 0.950 . S
C1974 C1970 1.385 . S
C1974 C1973 1.374 . S
C1975 C1972 1.499 . S
C1975 C1976 1.373 . S
C1975 C1977 1.389 . S
C1976 H1949 0.950 . S
C1976 C1962 1.377 . S
C1976 C1975 1.373 . S
C1977 C1961 1.377 . S
C1977 C1975 1.389 . S
C1977 C1978 1.524 . S
C1978 C1977 1.524 . S
C1978 C1979 1.397 . S
C1978 C1983 1.363 . S
C1979 H1950 0.950 . S
C1979 C1978 1.397 . S
C1979 C1980 1.334 . S
C1980 H1951 0.950 . S
C1980 C1979 1.334 . S
C1980 C1981 1.287 . S
C1981 C1980 1.287 . S
C1981 C1982 1.524 . S
C1981 H1984 0.999 . S
C1982 H1952 0.950 . S
C1982 C1981 1.524 . S
C1982 C1983 1.415 . S
C1983 H1953 0.950 . S
C1983 C1978 1.363 . S
C1983 C1982 1.415 . S
H1984 C1981 0.999 . S
H1985 C1966 0.913 . S
H1986 C2004 0.951 . S
H1987 C2006 0.951 . S
H1988 C2008 0.950 . S
H1989 C2009 0.950 . S
H1990 C2011 0.950 . S
H1991 C2014 0.950 . S
H1992 C2015 0.950 . S
H1993 C2017 0.950 . S
H1994 C2018 0.977 . S
H1995 C2019 0.951 . S
H1996 C2021 0.951 . S
H1997 C2023 0.950 . S
H1998 C2024 0.950 . S
H1999 C2026 0.950 . S
H2000 C2029 0.950 . S
H2001 C2030 0.950 . S
H2002 C2032 0.950 . S
H2003 C2033 0.950 . S
C2004 H1986 0.951 . S
C2004 C2005 1.366 . S
C2004 C2006 1.388 . S
C2005 C2004 1.366 . S
C2005 C2009 1.385 . S
C2006 H1987 0.951 . S
C2006 C2004 1.388 . S
C2006 C2007 1.366 . S
C2007 C2006 1.366 . S
C2007 C2008 1.414 . S
C2007 C2010 1.499 1_565 S
C2008 H1988 0.950 . S
C2008 C2007 1.414 . S
C2008 C2009 1.374 . S
C2009 H1989 0.950 . S
C2009 C2005 1.385 . S
C2009 C2008 1.374 . S
C2010 C2007 1.499 1_545 S
C2010 C2011 1.373 . S
C2010 C2012 1.389 . S
C2011 H1990 0.950 . S
C2011 C2010 1.373 . S
C2011 C2027 1.377 . S
C2012 C2010 1.389 . S
C2012 C2013 1.552 . S
C2012 C2026 1.377 . S
C2013 C2012 1.552 . S
C2013 C2014 1.375 1_545 S
C2013 C2018 1.363 . S
C2014 H1991 0.950 . S
C2014 C2013 1.375 1_565 S
C2014 C2015 1.334 . S
C2015 H1992 0.950 . S
C2015 C2014 1.334 . S
C2015 C2016 1.287 . S
C2016 C2015 1.287 . S
C2016 C2017 1.524 . S
C2016 H2035 0.913 . S
C2017 H1993 0.950 . S
C2017 C2016 1.524 . S
C2017 C2018 1.390 1_565 S
C2018 H1994 0.977 . S
C2018 C2013 1.363 . S
C2018 C2017 1.390 1_545 S
C2019 H1995 0.951 . S
C2019 C2020 1.366 . S
C2019 C2021 1.388 . S
C2020 C2019 1.366 . S
C2020 C2024 1.385 . S
C2021 H1996 0.951 . S
C2021 C2019 1.388 . S
C2021 C2022 1.366 . S
C2022 C2021 1.366 . S
C2022 C2023 1.414 . S
C2022 C2025 1.499 . S
C2023 H1997 0.950 . S
C2023 C2022 1.414 . S
C2023 C2024 1.374 . S
C2024 H1998 0.950 . S
C2024 C2020 1.385 . S
C2024 C2023 1.374 . S
C2025 C2022 1.499 . S
C2025 C2026 1.373 . S
C2025 C2027 1.389 . S
C2026 H1999 0.950 . S
C2026 C2012 1.377 . S
C2026 C2025 1.373 . S
C2027 C2011 1.377 . S
C2027 C2025 1.389 . S
C2027 C2028 1.524 . S
C2028 C2027 1.524 . S
C2028 C2029 1.397 . S
C2028 C2033 1.363 . S
C2029 H2000 0.950 . S
C2029 C2028 1.397 . S
C2029 C2030 1.334 . S
C2030 H2001 0.950 . S
C2030 C2029 1.334 . S
C2030 C2031 1.287 . S
C2031 C2030 1.287 . S
C2031 C2032 1.524 . S
C2031 H2034 0.999 . S
C2032 H2002 0.950 . S
C2032 C2031 1.524 . S
C2032 C2033 1.415 . S
C2033 H2003 0.950 . S
C2033 C2028 1.363 . S
C2033 C2032 1.415 . S
H2034 C2031 0.999 . S
H2035 C2016 0.913 . S
H2036 C2054 0.951 . S
H2037 C2056 0.951 . S
H2038 C2058 0.950 . S
H2039 C2059 0.950 . S
H2040 C2061 0.950 . S
H2041 C2064 0.950 . S
H2042 C2065 0.950 1_545 S
H2043 C2067 0.950 . S
H2044 C2068 0.950 . S
H2045 C2069 0.951 . S
H2046 C2071 0.951 . S
H2047 C2073 0.950 . S
H2048 C2074 0.950 . S
H2049 C2076 0.950 . S
H2050 C2079 0.950 . S
H2051 C2080 0.950 . S
H2052 C2082 0.950 . S
H2053 C2083 0.950 . S
C2054 H2036 0.951 . S
C2054 C2055 1.366 . S
C2054 C2056 1.388 . S
C2055 C2054 1.366 . S
C2055 C2059 1.385 . S
C2056 H2037 0.951 . S
C2056 C2054 1.388 . S
C2056 C2057 1.366 . S
C2057 C2056 1.366 . S
C2057 C2058 1.414 . S
C2057 C2060 1.499 1_545 S
C2058 H2038 0.950 . S
C2058 C2057 1.414 . S
C2058 C2059 1.374 . S
C2059 H2039 0.950 . S
C2059 C2055 1.385 . S
C2059 C2058 1.374 . S
C2060 C2057 1.499 1_565 S
C2060 C2061 1.373 . S
C2060 C2062 1.389 . S
C2061 H2040 0.950 . S
C2061 C2060 1.373 . S
C2061 C2077 1.377 . S
C2062 C2060 1.389 . S
C2062 C2063 1.524 . S
C2062 C2076 1.377 . S
C2063 C2062 1.524 . S
C2063 C2064 1.397 . S
C2063 C2068 1.363 . S
C2064 H2041 0.950 . S
C2064 C2063 1.397 . S
C2064 C2065 1.334 . S
C2065 H2042 0.950 1_565 S
C2065 C2064 1.334 . S
C2065 C2066 1.287 . S
C2066 C2065 1.287 . S
C2066 C2067 1.524 . S
C2066 H2085 0.913 . S
C2067 H2043 0.950 . S
C2067 C2066 1.524 . S
C2067 C2068 1.415 . S
C2068 H2044 0.950 . S
C2068 C2063 1.363 . S
C2068 C2067 1.415 . S
C2069 H2045 0.951 . S
C2069 C2070 1.366 . S
C2069 C2071 1.388 . S
C2070 C2069 1.366 . S
C2070 C2074 1.385 . S
C2071 H2046 0.951 . S
C2071 C2069 1.388 . S
C2071 C2072 1.366 . S
C2072 C2071 1.366 . S
C2072 C2073 1.414 . S
C2072 C2075 1.499 . S
C2073 H2047 0.950 . S
C2073 C2072 1.414 . S
C2073 C2074 1.374 . S
C2074 H2048 0.950 . S
C2074 C2070 1.385 . S
C2074 C2073 1.374 . S
C2075 C2072 1.499 . S
C2075 C2076 1.373 . S
C2075 C2077 1.389 . S
C2076 H2049 0.950 . S
C2076 C2062 1.377 . S
C2076 C2075 1.373 . S
C2077 C2061 1.377 . S
C2077 C2075 1.389 . S
C2077 C2078 1.524 . S
C2078 C2077 1.524 . S
C2078 C2079 1.397 . S
C2078 C2083 1.363 . S
C2079 H2050 0.950 . S
C2079 C2078 1.397 . S
C2079 C2080 1.334 . S
C2080 H2051 0.950 . S
C2080 C2079 1.334 . S
C2080 C2081 1.287 . S
C2081 C2080 1.287 . S
C2081 C2082 1.524 . S
C2081 H2084 0.999 . S
C2082 H2052 0.950 . S
C2082 C2081 1.524 . S
C2082 C2083 1.415 . S
C2083 H2053 0.950 . S
C2083 C2078 1.363 . S
C2083 C2082 1.415 . S
H2084 C2081 0.999 . S
H2085 C2066 0.913 . S
H2086 C2104 0.951 . S
H2087 C2106 0.951 . S
H2088 C2108 0.950 . S
H2089 C2109 0.950 . S
H2090 C2111 0.950 . S
H2091 C2114 0.950 . S
H2092 C2115 0.950 . S
H2093 C2117 0.950 . S
H2094 C2118 0.950 . S
H2095 C2119 0.951 . S
H2096 C2121 0.951 . S
H2097 C2123 0.950 . S
H2098 C2124 0.950 . S
H2099 C2126 0.950 . S
H2100 C2129 0.950 . S
H2101 C2130 0.950 . S
H2102 C2132 0.950 . S
H2103 C2133 0.950 . S
C2104 H2086 0.951 . S
C2104 C2105 1.366 . S
C2104 C2106 1.388 . S
C2105 C2104 1.366 . S
C2105 C2109 1.385 . S
C2106 H2087 0.951 . S
C2106 C2104 1.388 . S
C2106 C2107 1.366 . S
C2107 C2106 1.366 . S
C2107 C2108 1.414 . S
C2107 C2110 1.499 . S
C2108 H2088 0.950 . S
C2108 C2107 1.414 . S
C2108 C2109 1.374 . S
C2109 H2089 0.950 . S
C2109 C2105 1.385 . S
C2109 C2108 1.374 . S
C2110 C2107 1.499 . S
C2110 C2111 1.373 . S
C2110 C2112 1.389 . S
C2111 H2090 0.950 . S
C2111 C2110 1.373 . S
C2111 C2127 1.377 . S
C2112 C2110 1.389 . S
C2112 C2113 1.524 . S
C2112 C2126 1.377 . S
C2113 C2112 1.524 . S
C2113 C2114 1.397 . S
C2113 C2118 1.363 . S
C2114 H2091 0.950 . S
C2114 C2113 1.397 . S
C2114 C2115 1.334 . S
C2115 H2092 0.950 . S
C2115 C2114 1.334 . S
C2115 C2116 1.287 . S
C2116 C2115 1.287 . S
C2116 C2117 1.524 . S
C2116 H2135 0.913 . S
C2117 H2093 0.950 . S
C2117 C2116 1.524 . S
C2117 C2118 1.415 . S
C2118 H2094 0.950 . S
C2118 C2113 1.363 . S
C2118 C2117 1.415 . S
C2119 H2095 0.951 . S
C2119 C2120 1.366 . S
C2119 C2121 1.388 . S
C2120 C2119 1.366 . S
C2120 C2124 1.385 . S
C2121 H2096 0.951 . S
C2121 C2119 1.388 . S
C2121 C2122 1.366 . S
C2122 C2121 1.366 . S
C2122 C2123 1.414 . S
C2122 C2125 1.499 . S
C2123 H2097 0.950 . S
C2123 C2122 1.414 . S
C2123 C2124 1.374 . S
C2124 H2098 0.950 . S
C2124 C2120 1.385 . S
C2124 C2123 1.374 . S
C2125 C2122 1.499 . S
C2125 C2126 1.373 . S
C2125 C2127 1.389 . S
C2126 H2099 0.950 . S
C2126 C2112 1.377 . S
C2126 C2125 1.373 . S
C2127 C2111 1.377 . S
C2127 C2125 1.389 . S
C2127 C2128 1.524 . S
C2128 C2127 1.524 . S
C2128 C2129 1.397 . S
C2128 C2133 1.363 . S
C2129 H2100 0.950 . S
C2129 C2128 1.397 . S
C2129 C2130 1.334 . S
C2130 H2101 0.950 . S
C2130 C2129 1.334 . S
C2130 C2131 1.287 . S
C2131 C2130 1.287 . S
C2131 C2132 1.524 . S
C2131 H2134 0.999 . S
C2132 H2102 0.950 . S
C2132 C2131 1.524 . S
C2132 C2133 1.415 . S
C2133 H2103 0.950 . S
C2133 C2128 1.363 . S
C2133 C2132 1.415 . S
H2134 C2131 0.999 . S
H2135 C2116 0.913 . S
H2136 C2154 0.951 . S
H2137 C2156 0.951 . S
H2138 C2158 0.950 . S
H2139 C2159 0.950 . S
H2140 C2161 0.950 . S
H2141 C2164 0.950 . S
H2142 C2165 0.950 . S
H2143 C2167 0.950 . S
H2144 C2168 0.950 . S
H2145 C2169 0.951 . S
H2146 C2171 0.951 . S
H2147 C2173 0.950 . S
H2148 C2174 0.950 . S
H2149 C2176 0.950 . S
H2150 C2179 0.950 . S
H2151 C2180 0.950 . S
H2152 C2182 0.950 . S
H2153 C2183 0.950 . S
C2154 H2136 0.951 . S
C2154 C2155 1.366 . S
C2154 C2156 1.388 . S
C2155 C2154 1.366 . S
C2155 C2159 1.385 . S
C2156 H2137 0.951 . S
C2156 C2154 1.388 . S
C2156 C2157 1.366 . S
C2157 C2156 1.366 . S
C2157 C2158 1.414 . S
C2157 C2160 1.499 . S
C2158 H2138 0.950 . S
C2158 C2157 1.414 . S
C2158 C2159 1.374 . S
C2159 H2139 0.950 . S
C2159 C2155 1.385 . S
C2159 C2158 1.374 . S
C2160 C2157 1.499 . S
C2160 C2161 1.373 . S
C2160 C2162 1.389 . S
C2161 H2140 0.950 . S
C2161 C2160 1.373 . S
C2161 C2177 1.377 . S
C2162 C2160 1.389 . S
C2162 C2163 1.524 . S
C2162 C2176 1.377 . S
C2163 C2162 1.524 . S
C2163 C2164 1.397 . S
C2163 C2168 1.363 . S
C2164 H2141 0.950 . S
C2164 C2163 1.397 . S
C2164 C2165 1.334 . S
C2165 H2142 0.950 . S
C2165 C2164 1.334 . S
C2165 C2166 1.287 . S
C2166 C2165 1.287 . S
C2166 C2167 1.524 . S
C2166 H2185 0.913 . S
C2167 H2143 0.950 . S
C2167 C2166 1.524 . S
C2167 C2168 1.415 . S
C2168 H2144 0.950 . S
C2168 C2163 1.363 . S
C2168 C2167 1.415 . S
C2169 H2145 0.951 . S
C2169 C2170 1.366 . S
C2169 C2171 1.388 . S
C2170 C2169 1.366 . S
C2170 C2174 1.385 . S
C2171 H2146 0.951 . S
C2171 C2169 1.388 . S
C2171 C2172 1.366 . S
C2172 C2171 1.366 . S
C2172 C2173 1.414 . S
C2172 C2175 1.499 . S
C2173 H2147 0.950 . S
C2173 C2172 1.414 . S
C2173 C2174 1.374 . S
C2174 H2148 0.950 . S
C2174 C2170 1.385 . S
C2174 C2173 1.374 . S
C2175 C2172 1.499 . S
C2175 C2176 1.373 . S
C2175 C2177 1.389 . S
C2176 H2149 0.950 . S
C2176 C2162 1.377 . S
C2176 C2175 1.373 . S
C2177 C2161 1.377 . S
C2177 C2175 1.389 . S
C2177 C2178 1.524 . S
C2178 C2177 1.524 . S
C2178 C2179 1.397 . S
C2178 C2183 1.363 . S
C2179 H2150 0.950 . S
C2179 C2178 1.397 . S
C2179 C2180 1.334 . S
C2180 H2151 0.950 . S
C2180 C2179 1.334 . S
C2180 C2181 1.287 . S
C2181 C2180 1.287 . S
C2181 C2182 1.524 . S
C2181 H2184 0.999 . S
C2182 H2152 0.950 . S
C2182 C2181 1.524 . S
C2182 C2183 1.415 . S
C2183 H2153 0.950 . S
C2183 C2178 1.363 . S
C2183 C2182 1.415 . S
H2184 C2181 0.999 . S
H2185 C2166 0.913 . S
H2186 C2204 0.951 . S
H2187 C2206 0.951 . S
H2188 C2208 0.950 . S
H2189 C2209 0.950 . S
H2190 C2211 0.950 . S
H2191 C2214 0.950 . S
H2192 C2215 0.953 . S
H2193 C2217 0.950 . S
H2194 C2218 0.950 . S
H2195 C2219 0.951 . S
H2196 C2221 0.951 . S
H2197 C2223 0.950 . S
H2198 C2224 0.950 . S
H2199 C2226 0.950 . S
H2200 C2229 0.950 . S
H2201 C2230 0.950 . S
H2202 C2232 0.950 . S
H2203 C2233 0.950 . S
C2204 H2186 0.951 . S
C2204 C2205 1.366 . S
C2204 C2206 1.388 . S
C2205 C2204 1.366 . S
C2205 C2209 1.385 . S
C2206 H2187 0.951 . S
C2206 C2204 1.388 . S
C2206 C2207 1.366 . S
C2207 C2206 1.366 . S
C2207 C2208 1.414 . S
C2207 C2210 1.499 1_556 S
C2208 H2188 0.950 . S
C2208 C2207 1.414 . S
C2208 C2209 1.374 . S
C2209 H2189 0.950 . S
C2209 C2205 1.385 . S
C2209 C2208 1.374 . S
C2210 C2207 1.499 1_554 S
C2210 C2211 1.373 . S
C2210 C2212 1.389 . S
C2211 H2190 0.950 . S
C2211 C2210 1.373 . S
C2211 C2227 1.377 . S
C2212 C2210 1.389 . S
C2212 C2213 1.524 . S
C2212 C2226 1.377 . S
C2213 C2212 1.524 . S
C2213 C2214 1.397 . S
C2213 C2218 1.363 . S
C2214 H2191 0.950 . S
C2214 C2213 1.397 . S
C2214 C2215 1.334 . S
C2215 H2192 0.953 . S
C2215 C2214 1.334 . S
C2215 C2216 1.287 . S
C2216 C2215 1.287 . S
C2216 C2217 1.524 . S
C2216 H2235 0.913 . S
C2217 H2193 0.950 . S
C2217 C2216 1.524 . S
C2217 C2218 1.415 . S
C2218 H2194 0.950 . S
C2218 C2213 1.363 . S
C2218 C2217 1.415 . S
C2219 H2195 0.951 . S
C2219 C2220 1.366 . S
C2219 C2221 1.388 . S
C2220 C2219 1.366 . S
C2220 C2224 1.385 . S
C2221 H2196 0.951 . S
C2221 C2219 1.388 . S
C2221 C2222 1.366 . S
C2222 C2221 1.366 . S
C2222 C2223 1.414 . S
C2222 C2225 1.499 . S
C2223 H2197 0.950 . S
C2223 C2222 1.414 . S
C2223 C2224 1.374 . S
C2224 H2198 0.950 . S
C2224 C2220 1.385 . S
C2224 C2223 1.374 . S
C2225 C2222 1.499 . S
C2225 C2226 1.373 . S
C2225 C2227 1.389 . S
C2226 H2199 0.950 . S
C2226 C2212 1.377 . S
C2226 C2225 1.373 . S
C2227 C2211 1.377 . S
C2227 C2225 1.389 . S
C2227 C2228 1.524 . S
C2228 C2227 1.524 . S
C2228 C2229 1.397 . S
C2228 C2233 1.363 . S
C2229 H2200 0.950 . S
C2229 C2228 1.397 . S
C2229 C2230 1.334 . S
C2230 H2201 0.950 . S
C2230 C2229 1.334 . S
C2230 C2231 1.287 . S
C2231 C2230 1.287 . S
C2231 C2232 1.524 . S
C2231 H2234 0.999 . S
C2232 H2202 0.950 . S
C2232 C2231 1.524 . S
C2232 C2233 1.415 . S
C2233 H2203 0.950 . S
C2233 C2228 1.363 . S
C2233 C2232 1.415 . S
H2234 C2231 0.999 . S
H2235 C2216 0.913 . S
H2236 C2254 0.951 . S
H2237 C2256 0.951 . S
H2238 C2258 0.950 . S
H2239 C2259 0.950 . S
H2240 C2261 0.950 . S
H2241 C2264 0.950 . S
H2242 C2265 0.950 . S
H2243 C2267 0.950 . S
H2244 C2268 0.950 . S
H2245 C2269 0.951 . S
H2246 C2271 0.951 . S
H2247 C2273 0.950 . S
H2248 C2274 0.950 . S
H2249 C2276 0.950 . S
H2250 C2279 0.950 . S
H2251 C2280 0.950 . S
H2252 C2282 0.950 . S
H2253 C2283 0.950 . S
C2254 H2236 0.951 . S
C2254 C2255 1.366 . S
C2254 C2256 1.388 . S
C2255 C2254 1.366 . S
C2255 C2259 1.385 . S
C2256 H2237 0.951 . S
C2256 C2254 1.388 . S
C2256 C2257 1.366 . S
C2257 C2256 1.366 . S
C2257 C2258 1.414 . S
C2257 C2260 1.499 . S
C2258 H2238 0.950 . S
C2258 C2257 1.414 . S
C2258 C2259 1.374 . S
C2259 H2239 0.950 . S
C2259 C2255 1.385 . S
C2259 C2258 1.374 . S
C2260 C2257 1.499 . S
C2260 C2261 1.373 . S
C2260 C2262 1.389 . S
C2261 H2240 0.950 . S
C2261 C2260 1.373 . S
C2261 C2277 1.377 . S
C2262 C2260 1.389 . S
C2262 C2263 1.524 . S
C2262 C2276 1.377 . S
C2263 C2262 1.524 . S
C2263 C2264 1.397 . S
C2263 C2268 1.363 . S
C2264 H2241 0.950 . S
C2264 C2263 1.397 . S
C2264 C2265 1.334 . S
C2265 H2242 0.950 . S
C2265 C2264 1.334 . S
C2265 C2266 1.287 . S
C2266 C2265 1.287 . S
C2266 C2267 1.524 . S
C2266 H2285 0.913 . S
C2267 H2243 0.950 . S
C2267 C2266 1.524 . S
C2267 C2268 1.415 . S
C2268 H2244 0.950 . S
C2268 C2263 1.363 . S
C2268 C2267 1.415 . S
C2269 H2245 0.951 . S
C2269 C2270 1.366 . S
C2269 C2271 1.388 . S
C2270 C2269 1.366 . S
C2270 C2274 1.385 . S
C2271 H2246 0.951 . S
C2271 C2269 1.388 . S
C2271 C2272 1.366 . S
C2272 C2271 1.366 . S
C2272 C2273 1.414 . S
C2272 C2275 1.499 . S
C2273 H2247 0.950 . S
C2273 C2272 1.414 . S
C2273 C2274 1.374 . S
C2274 H2248 0.950 . S
C2274 C2270 1.385 . S
C2274 C2273 1.374 . S
C2275 C2272 1.499 . S
C2275 C2276 1.373 . S
C2275 C2277 1.389 . S
C2276 H2249 0.950 . S
C2276 C2262 1.377 . S
C2276 C2275 1.373 . S
C2277 C2261 1.377 . S
C2277 C2275 1.389 . S
C2277 C2278 1.524 . S
C2278 C2277 1.524 . S
C2278 C2279 1.397 . S
C2278 C2283 1.363 . S
C2279 H2250 0.950 . S
C2279 C2278 1.397 . S
C2279 C2280 1.334 . S
C2280 H2251 0.950 . S
C2280 C2279 1.334 . S
C2280 C2281 1.287 . S
C2281 C2280 1.287 . S
C2281 C2282 1.524 . S
C2281 H2284 0.999 . S
C2282 H2252 0.950 . S
C2282 C2281 1.524 . S
C2282 C2283 1.415 . S
C2283 H2253 0.950 . S
C2283 C2278 1.363 . S
C2283 C2282 1.415 . S
H2284 C2281 0.999 . S
H2285 C2266 0.913 . S
H2286 C2304 0.951 . S
H2287 C2306 0.951 . S
H2288 C2308 0.950 . S
H2289 C2309 0.950 . S
H2290 C2311 0.950 . S
H2291 C2314 0.950 . S
H2292 C2315 0.950 . S
H2293 C2317 0.947 1_554 S
H2294 C2318 0.950 . S
H2295 C2319 0.951 . S
H2296 C2321 0.951 . S
H2297 C2323 0.950 . S
H2298 C2324 0.950 . S
H2299 C2326 0.950 . S
H2300 C2329 0.950 . S
H2301 C2330 0.950 . S
H2302 C2332 0.950 . S
H2303 C2333 0.950 . S
C2304 H2286 0.951 . S
C2304 C2305 1.366 . S
C2304 C2306 1.388 . S
C2305 C2304 1.366 . S
C2305 C2309 1.385 . S
C2306 H2287 0.951 . S
C2306 C2304 1.388 . S
C2306 C2307 1.366 . S
C2307 C2306 1.366 . S
C2307 C2308 1.414 . S
C2307 C2310 1.499 1_554 S
C2308 H2288 0.950 . S
C2308 C2307 1.414 . S
C2308 C2309 1.374 . S
C2309 H2289 0.950 . S
C2309 C2305 1.385 . S
C2309 C2308 1.374 . S
C2310 C2307 1.499 1_556 S
C2310 C2311 1.373 . S
C2310 C2312 1.389 . S
C2311 H2290 0.950 . S
C2311 C2310 1.373 . S
C2311 C2327 1.377 . S
C2312 C2310 1.389 . S
C2312 C2313 1.524 . S
C2312 C2326 1.377 . S
C2313 C2312 1.524 . S
C2313 C2314 1.397 . S
C2313 C2318 1.363 . S
C2314 H2291 0.950 . S
C2314 C2313 1.397 . S
C2314 C2315 1.334 1_556 S
C2315 H2292 0.950 . S
C2315 C2314 1.334 1_554 S
C2315 C2316 1.287 . S
C2316 C2315 1.287 . S
C2316 C2317 1.517 1_554 S
C2316 H2335 0.913 . S
C2317 H2293 0.947 1_556 S
C2317 C2316 1.517 1_556 S
C2317 C2318 1.424 . S
C2318 H2294 0.950 . S
C2318 C2313 1.363 . S
C2318 C2317 1.424 . S
C2319 H2295 0.951 . S
C2319 C2320 1.366 . S
C2319 C2321 1.388 . S
C2320 C2319 1.366 . S
C2320 C2324 1.385 . S
C2321 H2296 0.951 . S
C2321 C2319 1.388 . S
C2321 C2322 1.366 . S
C2322 C2321 1.366 . S
C2322 C2323 1.414 . S
C2322 C2325 1.499 . S
C2323 H2297 0.950 . S
C2323 C2322 1.414 . S
C2323 C2324 1.374 . S
C2324 H2298 0.950 . S
C2324 C2320 1.385 . S
C2324 C2323 1.374 . S
C2325 C2322 1.499 . S
C2325 C2326 1.373 . S
C2325 C2327 1.389 . S
C2326 H2299 0.950 . S
C2326 C2312 1.377 . S
C2326 C2325 1.373 . S
C2327 C2311 1.377 . S
C2327 C2325 1.389 . S
C2327 C2328 1.524 . S
C2328 C2327 1.524 . S
C2328 C2329 1.397 . S
C2328 C2333 1.363 . S
C2329 H2300 0.950 . S
C2329 C2328 1.397 . S
C2329 C2330 1.334 . S
C2330 H2301 0.950 . S
C2330 C2329 1.334 . S
C2330 C2331 1.287 . S
C2331 C2330 1.287 . S
C2331 C2332 1.524 . S
C2331 H2334 0.999 . S
C2332 H2302 0.950 . S
C2332 C2331 1.524 . S
C2332 C2333 1.415 . S
C2333 H2303 0.950 . S
C2333 C2328 1.363 . S
C2333 C2332 1.415 . S
H2334 C2331 0.999 . S
H2335 C2316 0.913 . S
H2336 C2354 0.951 . S
H2337 C2356 0.951 . S
H2338 C2358 0.950 . S
H2339 C2359 0.950 . S
H2340 C2361 0.950 . S
H2341 C2364 0.950 . S
H2342 C2365 0.950 . S
H2343 C2367 0.950 . S
H2344 C2368 0.950 . S
H2345 C2369 0.951 . S
H2346 C2371 0.951 . S
H2347 C2373 0.950 . S
H2348 C2374 0.950 . S
H2349 C2376 0.950 . S
H2350 C2379 0.950 . S
H2351 C2380 0.950 . S
H2352 C2382 0.950 . S
H2353 C2383 0.950 . S
C2354 H2336 0.951 . S
C2354 C2355 1.366 . S
C2354 C2356 1.388 . S
C2355 C2354 1.366 . S
C2355 C2359 1.385 . S
C2356 H2337 0.951 . S
C2356 C2354 1.388 . S
C2356 C2357 1.366 . S
C2357 C2356 1.366 . S
C2357 C2358 1.414 . S
C2357 C2360 1.499 . S
C2358 H2338 0.950 . S
C2358 C2357 1.414 . S
C2358 C2359 1.374 . S
C2359 H2339 0.950 . S
C2359 C2355 1.385 . S
C2359 C2358 1.374 . S
C2360 C2357 1.499 . S
C2360 C2361 1.373 . S
C2360 C2362 1.389 . S
C2361 H2340 0.950 . S
C2361 C2360 1.373 . S
C2361 C2377 1.377 . S
C2362 C2360 1.389 . S
C2362 C2363 1.524 . S
C2362 C2376 1.377 . S
C2363 C2362 1.524 . S
C2363 C2364 1.397 . S
C2363 C2368 1.363 . S
C2364 H2341 0.950 . S
C2364 C2363 1.397 . S
C2364 C2365 1.334 . S
C2365 H2342 0.950 . S
C2365 C2364 1.334 . S
C2365 C2366 1.287 . S
C2366 C2365 1.287 . S
C2366 C2367 1.524 . S
C2366 H2385 0.913 . S
C2367 H2343 0.950 . S
C2367 C2366 1.524 . S
C2367 C2368 1.415 . S
C2368 H2344 0.950 . S
C2368 C2363 1.363 . S
C2368 C2367 1.415 . S
C2369 H2345 0.951 . S
C2369 C2370 1.366 . S
C2369 C2371 1.388 . S
C2370 C2369 1.366 . S
C2370 C2374 1.385 . S
C2371 H2346 0.951 . S
C2371 C2369 1.388 . S
C2371 C2372 1.366 . S
C2372 C2371 1.366 . S
C2372 C2373 1.414 . S
C2372 C2375 1.499 . S
C2373 H2347 0.950 . S
C2373 C2372 1.414 . S
C2373 C2374 1.374 . S
C2374 H2348 0.950 . S
C2374 C2370 1.385 . S
C2374 C2373 1.374 . S
C2375 C2372 1.499 . S
C2375 C2376 1.373 . S
C2375 C2377 1.389 . S
C2376 H2349 0.950 . S
C2376 C2362 1.377 . S
C2376 C2375 1.373 . S
C2377 C2361 1.377 . S
C2377 C2375 1.389 . S
C2377 C2378 1.524 . S
C2378 C2377 1.524 . S
C2378 C2379 1.397 . S
C2378 C2383 1.363 . S
C2379 H2350 0.950 . S
C2379 C2378 1.397 . S
C2379 C2380 1.334 . S
C2380 H2351 0.950 . S
C2380 C2379 1.334 . S
C2380 C2381 1.287 . S
C2381 C2380 1.287 . S
C2381 C2382 1.524 . S
C2381 H2384 0.999 . S
C2382 H2352 0.950 . S
C2382 C2381 1.524 . S
C2382 C2383 1.415 . S
C2383 H2353 0.950 . S
C2383 C2378 1.363 . S
C2383 C2382 1.415 . S
H2384 C2381 0.999 . S
H2385 C2366 0.913 . S
H2386 C2404 0.951 . S
H2387 C2406 0.951 . S
H2388 C2408 0.950 . S
H2389 C2409 0.950 . S
H2390 C2411 0.950 . S
H2391 C2414 0.950 . S
H2392 C2415 0.950 . S
H2393 C2417 0.950 . S
H2394 C2418 0.950 . S
H2395 C2419 0.951 . S
H2396 C2421 0.951 . S
H2397 C2423 0.950 . S
H2398 C2424 0.950 . S
H2399 C2426 0.950 . S
H2400 C2429 0.950 . S
H2401 C2430 0.950 . S
H2402 C2432 0.950 . S
H2403 C2433 0.950 1_655 S
C2404 H2386 0.951 . S
C2404 C2405 1.366 . S
C2404 C2406 1.388 . S
C2405 C2404 1.366 . S
C2405 C2409 1.385 . S
C2406 H2387 0.951 . S
C2406 C2404 1.388 . S
C2406 C2407 1.366 . S
C2407 C2406 1.366 . S
C2407 C2408 1.414 . S
C2407 C2410 1.499 . S
C2408 H2388 0.950 . S
C2408 C2407 1.414 . S
C2408 C2409 1.374 . S
C2409 H2389 0.950 . S
C2409 C2405 1.385 . S
C2409 C2408 1.374 . S
C2410 C2407 1.499 . S
C2410 C2411 1.373 . S
C2410 C2412 1.389 . S
C2411 H2390 0.950 . S
C2411 C2410 1.373 . S
C2411 C2427 1.377 . S
C2412 C2410 1.389 . S
C2412 C2413 1.524 . S
C2412 C2426 1.377 . S
C2413 C2412 1.524 . S
C2413 C2414 1.397 . S
C2413 C2418 1.363 . S
C2414 H2391 0.950 . S
C2414 C2413 1.397 . S
C2414 C2415 1.334 . S
C2415 H2392 0.950 . S
C2415 C2414 1.334 . S
C2415 C2416 1.287 . S
C2416 C2415 1.287 . S
C2416 C2417 1.524 . S
C2416 H2435 0.913 . S
C2417 H2393 0.950 . S
C2417 C2416 1.524 . S
C2417 C2418 1.415 . S
C2418 H2394 0.950 . S
C2418 C2413 1.363 . S
C2418 C2417 1.415 . S
C2419 H2395 0.951 . S
C2419 C2420 1.366 . S
C2419 C2421 1.388 . S
C2420 C2419 1.366 . S
C2420 C2424 1.385 . S
C2421 H2396 0.951 . S
C2421 C2419 1.388 . S
C2421 C2422 1.366 . S
C2422 C2421 1.366 . S
C2422 C2423 1.414 . S
C2422 C2425 1.499 1_455 S
C2423 H2397 0.950 . S
C2423 C2422 1.414 . S
C2423 C2424 1.374 . S
C2424 H2398 0.950 . S
C2424 C2420 1.385 . S
C2424 C2423 1.374 . S
C2425 C2422 1.499 1_655 S
C2425 C2426 1.373 . S
C2425 C2427 1.389 . S
C2426 H2399 0.950 . S
C2426 C2412 1.377 . S
C2426 C2425 1.373 . S
C2427 C2411 1.377 . S
C2427 C2425 1.389 . S
C2427 C2428 1.524 1_655 S
C2428 C2427 1.524 1_455 S
C2428 C2429 1.397 . S
C2428 C2433 1.363 . S
C2429 H2400 0.950 . S
C2429 C2428 1.397 . S
C2429 C2430 1.334 . S
C2430 H2401 0.950 . S
C2430 C2429 1.334 . S
C2430 C2431 1.287 . S
C2431 C2430 1.287 . S
C2431 C2432 1.524 . S
C2431 H2434 0.999 . S
C2432 H2402 0.950 . S
C2432 C2431 1.524 . S
C2432 C2433 1.415 . S
C2433 H2403 0.950 1_455 S
C2433 C2428 1.363 . S
C2433 C2432 1.415 . S
H2434 C2431 0.999 . S
H2435 C2416 0.913 . S
H2436 C2454 0.951 . S
H2437 C2456 0.951 . S
H2438 C2458 0.950 . S
H2439 C2459 0.950 . S
H2440 C2461 0.950 . S
H2441 C2464 0.950 . S
H2442 C2465 0.950 . S
H2443 C2467 0.950 . S
H2444 C2468 0.950 . S
H2445 C2469 0.951 . S
H2446 C2471 0.951 . S
H2447 C2473 0.950 . S
H2448 C2474 0.950 . S
H2449 C2476 0.950 . S
H2450 C2479 0.950 . S
H2451 C2480 0.950 . S
H2452 C2482 0.950 . S
H2453 C2483 0.950 . S
C2454 H2436 0.951 . S
C2454 C2455 1.366 . S
C2454 C2456 1.388 . S
C2455 C2454 1.366 . S
C2455 C2459 1.385 . S
C2456 H2437 0.951 . S
C2456 C2454 1.388 . S
C2456 C2457 1.366 . S
C2457 C2456 1.366 . S
C2457 C2458 1.414 . S
C2457 C2460 1.499 . S
C2458 H2438 0.950 . S
C2458 C2457 1.414 . S
C2458 C2459 1.374 . S
C2459 H2439 0.950 . S
C2459 C2455 1.385 . S
C2459 C2458 1.374 . S
C2460 C2457 1.499 . S
C2460 C2461 1.373 . S
C2460 C2462 1.389 . S
C2461 H2440 0.950 . S
C2461 C2460 1.373 . S
C2461 C2477 1.377 . S
C2462 C2460 1.389 . S
C2462 C2463 1.524 . S
C2462 C2476 1.377 . S
C2463 C2462 1.524 . S
C2463 C2464 1.397 . S
C2463 C2468 1.363 . S
C2464 H2441 0.950 . S
C2464 C2463 1.397 . S
C2464 C2465 1.334 . S
C2465 H2442 0.950 . S
C2465 C2464 1.334 . S
C2465 C2466 1.287 . S
C2466 C2465 1.287 . S
C2466 C2467 1.524 . S
C2466 H2485 0.913 . S
C2467 H2443 0.950 . S
C2467 C2466 1.524 . S
C2467 C2468 1.415 . S
C2468 H2444 0.950 . S
C2468 C2463 1.363 . S
C2468 C2467 1.415 . S
C2469 H2445 0.951 . S
C2469 C2470 1.366 . S
C2469 C2471 1.388 . S
C2470 C2469 1.366 . S
C2470 C2474 1.385 . S
C2471 H2446 0.951 . S
C2471 C2469 1.388 . S
C2471 C2472 1.366 . S
C2472 C2471 1.366 . S
C2472 C2473 1.414 . S
C2472 C2475 1.499 1_655 S
C2473 H2447 0.950 . S
C2473 C2472 1.414 . S
C2473 C2474 1.374 . S
C2474 H2448 0.950 . S
C2474 C2470 1.385 . S
C2474 C2473 1.374 . S
C2475 C2472 1.499 1_455 S
C2475 C2476 1.373 . S
C2475 C2477 1.389 . S
C2476 H2449 0.950 . S
C2476 C2462 1.377 . S
C2476 C2475 1.373 . S
C2477 C2461 1.377 . S
C2477 C2475 1.389 . S
C2477 C2478 1.524 . S
C2478 C2477 1.524 . S
C2478 C2479 1.397 1_455 S
C2478 C2483 1.363 . S
C2479 H2450 0.950 . S
C2479 C2478 1.397 1_655 S
C2479 C2480 1.334 . S
C2480 H2451 0.950 . S
C2480 C2479 1.334 . S
C2480 C2481 1.287 . S
C2481 C2480 1.287 . S
C2481 C2482 1.524 1_655 S
C2481 H2484 0.999 . S
C2482 H2452 0.950 . S
C2482 C2481 1.524 1_455 S
C2482 C2483 1.415 . S
C2483 H2453 0.950 . S
C2483 C2478 1.363 . S
C2483 C2482 1.415 . S
H2484 C2481 0.999 . S
H2485 C2466 0.913 . S
H2486 C2504 0.951 . S
H2487 C2506 0.951 . S
H2488 C2508 0.950 . S
H2489 C2509 0.950 . S
H2490 C2511 0.950 . S
H2491 C2514 0.950 . S
H2492 C2515 0.950 . S
H2493 C2517 0.950 . S
H2494 C2518 0.950 . S
H2495 C2519 0.951 . S
H2496 C2521 0.951 . S
H2497 C2523 0.950 . S
H2498 C2524 0.950 . S
H2499 C2526 0.950 . S
H2500 C2529 0.950 . S
H2501 C2530 0.950 . S
H2502 C2532 0.950 . S
H2503 C2533 0.950 . S
C2504 H2486 0.951 . S
C2504 C2505 1.366 . S
C2504 C2506 1.388 . S
C2505 C2504 1.366 . S
C2505 C2509 1.385 . S
C2506 H2487 0.951 . S
C2506 C2504 1.388 . S
C2506 C2507 1.366 . S
C2507 C2506 1.366 . S
C2507 C2508 1.414 . S
C2507 C2510 1.499 . S
C2508 H2488 0.950 . S
C2508 C2507 1.414 . S
C2508 C2509 1.374 . S
C2509 H2489 0.950 . S
C2509 C2505 1.385 . S
C2509 C2508 1.374 . S
C2510 C2507 1.499 . S
C2510 C2511 1.373 . S
C2510 C2512 1.389 . S
C2511 H2490 0.950 . S
C2511 C2510 1.373 . S
C2511 C2527 1.377 . S
C2512 C2510 1.389 . S
C2512 C2513 1.524 . S
C2512 C2526 1.377 . S
C2513 C2512 1.524 . S
C2513 C2514 1.397 . S
C2513 C2518 1.363 . S
C2514 H2491 0.950 . S
C2514 C2513 1.397 . S
C2514 C2515 1.334 . S
C2515 H2492 0.950 . S
C2515 C2514 1.334 . S
C2515 C2516 1.287 . S
C2516 C2515 1.287 . S
C2516 C2517 1.524 . S
C2516 H2535 0.913 . S
C2517 H2493 0.950 . S
C2517 C2516 1.524 . S
C2517 C2518 1.415 . S
C2518 H2494 0.950 . S
C2518 C2513 1.363 . S
C2518 C2517 1.415 . S
C2519 H2495 0.951 . S
C2519 C2520 1.366 . S
C2519 C2521 1.388 . S
C2520 C2519 1.366 . S
C2520 C2524 1.385 . S
C2521 H2496 0.951 . S
C2521 C2519 1.388 . S
C2521 C2522 1.366 . S
C2522 C2521 1.366 . S
C2522 C2523 1.414 . S
C2522 C2525 1.499 . S
C2523 H2497 0.950 . S
C2523 C2522 1.414 . S
C2523 C2524 1.374 . S
C2524 H2498 0.950 . S
C2524 C2520 1.385 . S
C2524 C2523 1.374 . S
C2525 C2522 1.499 . S
C2525 C2526 1.373 . S
C2525 C2527 1.389 . S
C2526 H2499 0.950 . S
C2526 C2512 1.377 . S
C2526 C2525 1.373 . S
C2527 C2511 1.377 . S
C2527 C2525 1.389 . S
C2527 C2528 1.524 . S
C2528 C2527 1.524 . S
C2528 C2529 1.397 . S
C2528 C2533 1.363 . S
C2529 H2500 0.950 . S
C2529 C2528 1.397 . S
C2529 C2530 1.334 . S
C2530 H2501 0.950 . S
C2530 C2529 1.334 . S
C2530 C2531 1.287 . S
C2531 C2530 1.287 . S
C2531 C2532 1.524 . S
C2531 H2534 0.999 . S
C2532 H2502 0.950 . S
C2532 C2531 1.524 . S
C2532 C2533 1.415 . S
C2533 H2503 0.950 . S
C2533 C2528 1.363 . S
C2533 C2532 1.415 . S
H2534 C2531 0.999 . S
H2535 C2516 0.913 . S
H2536 C2554 0.951 . S
H2537 C2556 0.951 . S
H2538 C2558 0.950 . S
H2539 C2559 0.950 . S
H2540 C2561 0.950 . S
H2541 C2564 0.950 . S
H2542 C2565 0.950 . S
H2543 C2567 0.950 . S
H2544 C2568 0.950 . S
H2545 C2569 0.951 . S
H2546 C2571 0.951 . S
H2547 C2573 0.950 . S
H2548 C2574 0.950 . S
H2549 C2576 0.950 . S
H2550 C2579 0.950 . S
H2551 C2580 0.950 . S
H2552 C2582 0.950 . S
H2553 C2583 0.950 . S
C2554 H2536 0.951 . S
C2554 C2555 1.366 . S
C2554 C2556 1.388 . S
C2555 C2554 1.366 . S
C2555 C2559 1.385 . S
C2556 H2537 0.951 . S
C2556 C2554 1.388 . S
C2556 C2557 1.366 . S
C2557 C2556 1.366 . S
C2557 C2558 1.414 . S
C2557 C2560 1.499 . S
C2558 H2538 0.950 . S
C2558 C2557 1.414 . S
C2558 C2559 1.374 . S
C2559 H2539 0.950 . S
C2559 C2555 1.385 . S
C2559 C2558 1.374 . S
C2560 C2557 1.499 . S
C2560 C2561 1.373 . S
C2560 C2562 1.389 . S
C2561 H2540 0.950 . S
C2561 C2560 1.373 . S
C2561 C2577 1.377 . S
C2562 C2560 1.389 . S
C2562 C2563 1.524 . S
C2562 C2576 1.377 . S
C2563 C2562 1.524 . S
C2563 C2564 1.397 . S
C2563 C2568 1.363 . S
C2564 H2541 0.950 . S
C2564 C2563 1.397 . S
C2564 C2565 1.334 . S
C2565 H2542 0.950 . S
C2565 C2564 1.334 . S
C2565 C2566 1.287 . S
C2566 C2565 1.287 . S
C2566 C2567 1.524 . S
C2566 H2585 0.913 . S
C2567 H2543 0.950 . S
C2567 C2566 1.524 . S
C2567 C2568 1.415 . S
C2568 H2544 0.950 . S
C2568 C2563 1.363 . S
C2568 C2567 1.415 . S
C2569 H2545 0.951 . S
C2569 C2570 1.366 . S
C2569 C2571 1.388 . S
C2570 C2569 1.366 . S
C2570 C2574 1.385 . S
C2571 H2546 0.951 . S
C2571 C2569 1.388 . S
C2571 C2572 1.366 . S
C2572 C2571 1.366 . S
C2572 C2573 1.414 . S
C2572 C2575 1.499 . S
C2573 H2547 0.950 . S
C2573 C2572 1.414 . S
C2573 C2574 1.374 . S
C2574 H2548 0.950 . S
C2574 C2570 1.385 . S
C2574 C2573 1.374 . S
C2575 C2572 1.499 . S
C2575 C2576 1.373 . S
C2575 C2577 1.389 . S
C2576 H2549 0.950 . S
C2576 C2562 1.377 . S
C2576 C2575 1.373 . S
C2577 C2561 1.377 . S
C2577 C2575 1.389 . S
C2577 C2578 1.524 . S
C2578 C2577 1.524 . S
C2578 C2579 1.397 . S
C2578 C2583 1.363 . S
C2579 H2550 0.950 . S
C2579 C2578 1.397 . S
C2579 C2580 1.334 . S
C2580 H2551 0.950 . S
C2580 C2579 1.334 . S
C2580 C2581 1.287 . S
C2581 C2580 1.287 . S
C2581 C2582 1.524 . S
C2581 H2584 0.999 . S
C2582 H2552 0.950 . S
C2582 C2581 1.524 . S
C2582 C2583 1.415 . S
C2583 H2553 0.950 . S
C2583 C2578 1.363 . S
C2583 C2582 1.415 . S
H2584 C2581 0.999 . S
H2585 C2566 0.913 . S
H2586 C2604 0.951 . S
H2587 C2606 0.951 . S
H2588 C2608 0.950 . S
H2589 C2609 0.950 . S
H2590 C2611 0.950 . S
H2591 C2614 0.950 . S
H2592 C2615 0.950 . S
H2593 C2617 0.950 . S
H2594 C2618 0.950 . S
H2595 C2619 0.951 . S
H2596 C2621 0.951 . S
H2597 C2623 0.950 . S
H2598 C2624 0.950 . S
H2599 C2626 0.950 . S
H2600 C2629 0.950 . S
H2601 C2630 0.950 . S
H2602 C2632 0.950 . S
H2603 C2633 0.950 . S
C2604 H2586 0.951 . S
C2604 C2605 1.366 . S
C2604 C2606 1.388 . S
C2605 C2604 1.366 . S
C2605 C2609 1.385 . S
C2606 H2587 0.951 . S
C2606 C2604 1.388 . S
C2606 C2607 1.366 . S
C2607 C2606 1.366 . S
C2607 C2608 1.414 . S
C2607 C2610 1.499 . S
C2608 H2588 0.950 . S
C2608 C2607 1.414 . S
C2608 C2609 1.374 . S
C2609 H2589 0.950 . S
C2609 C2605 1.385 . S
C2609 C2608 1.374 . S
C2610 C2607 1.499 . S
C2610 C2611 1.373 . S
C2610 C2612 1.389 . S
C2611 H2590 0.950 . S
C2611 C2610 1.373 . S
C2611 C2627 1.377 . S
C2612 C2610 1.389 . S
C2612 C2613 1.524 . S
C2612 C2626 1.377 . S
C2613 C2612 1.524 . S
C2613 C2614 1.397 . S
C2613 C2618 1.363 . S
C2614 H2591 0.950 . S
C2614 C2613 1.397 . S
C2614 C2615 1.334 . S
C2615 H2592 0.950 . S
C2615 C2614 1.334 . S
C2615 C2616 1.287 . S
C2616 C2615 1.287 . S
C2616 C2617 1.524 . S
C2616 H2635 0.913 . S
C2617 H2593 0.950 . S
C2617 C2616 1.524 . S
C2617 C2618 1.415 . S
C2618 H2594 0.950 . S
C2618 C2613 1.363 . S
C2618 C2617 1.415 . S
C2619 H2595 0.951 . S
C2619 C2620 1.366 . S
C2619 C2621 1.388 . S
C2620 C2619 1.366 . S
C2620 C2624 1.385 . S
C2621 H2596 0.951 . S
C2621 C2619 1.388 . S
C2621 C2622 1.366 . S
C2622 C2621 1.366 . S
C2622 C2623 1.414 . S
C2622 C2625 1.499 1_545 S
C2623 H2597 0.950 . S
C2623 C2622 1.414 . S
C2623 C2624 1.374 . S
C2624 H2598 0.950 . S
C2624 C2620 1.385 . S
C2624 C2623 1.374 . S
C2625 C2622 1.499 1_565 S
C2625 C2626 1.373 . S
C2625 C2627 1.389 . S
C2626 H2599 0.950 . S
C2626 C2612 1.377 . S
C2626 C2625 1.373 . S
C2627 C2611 1.377 . S
C2627 C2625 1.389 . S
C2627 C2628 1.524 . S
C2628 C2627 1.524 . S
C2628 C2629 1.397 1_565 S
C2628 C2633 1.363 . S
C2629 H2600 0.950 . S
C2629 C2628 1.397 1_545 S
C2629 C2630 1.334 . S
C2630 H2601 0.950 . S
C2630 C2629 1.334 . S
C2630 C2631 1.287 . S
C2631 C2630 1.287 . S
C2631 C2632 1.524 . S
C2631 H2634 0.999 . S
C2632 H2602 0.950 . S
C2632 C2631 1.524 . S
C2632 C2633 1.415 1_545 S
C2633 H2603 0.950 . S
C2633 C2628 1.363 . S
C2633 C2632 1.415 1_565 S
H2634 C2631 0.999 . S
H2635 C2616 0.913 . S
H2636 C2654 0.951 . S
H2637 C2656 0.951 . S
H2638 C2658 0.950 . S
H2639 C2659 0.950 . S
H2640 C2661 0.950 . S
H2641 C2664 0.950 . S
H2642 C2665 0.976 . S
H2643 C2667 0.950 . S
H2644 C2668 0.950 . S
H2645 C2669 0.951 . S
H2646 C2671 0.951 . S
H2647 C2673 0.950 . S
H2648 C2674 0.950 . S
H2649 C2676 0.950 . S
H2650 C2679 0.950 . S
H2651 C2680 0.950 . S
H2652 C2682 0.950 . S
H2653 C2683 0.950 . S
C2654 H2636 0.951 . S
C2654 C2655 1.366 . S
C2654 C2656 1.388 . S
C2655 C2654 1.366 . S
C2655 C2659 1.385 . S
C2656 H2637 0.951 . S
C2656 C2654 1.388 . S
C2656 C2657 1.366 . S
C2657 C2656 1.366 . S
C2657 C2658 1.414 . S
C2657 C2660 1.499 1_565 S
C2658 H2638 0.950 . S
C2658 C2657 1.414 . S
C2658 C2659 1.374 . S
C2659 H2639 0.950 . S
C2659 C2655 1.385 . S
C2659 C2658 1.374 . S
C2660 C2657 1.499 1_545 S
C2660 C2661 1.373 . S
C2660 C2662 1.389 . S
C2661 H2640 0.950 . S
C2661 C2660 1.373 . S
C2661 C2677 1.377 . S
C2662 C2660 1.389 . S
C2662 C2663 1.524 . S
C2662 C2676 1.377 . S
C2663 C2662 1.524 . S
C2663 C2664 1.397 . S
C2663 C2668 1.363 . S
C2664 H2641 0.950 . S
C2664 C2663 1.397 . S
C2664 C2665 1.321 1_545 S
C2665 H2642 0.976 . S
C2665 C2664 1.321 1_565 S
C2665 C2666 1.277 1_565 S
C2666 C2665 1.277 1_545 S
C2666 C2667 1.524 . S
C2666 H2685 0.913 1_545 S
C2667 H2643 0.950 . S
C2667 C2666 1.524 . S
C2667 C2668 1.415 . S
C2668 H2644 0.950 . S
C2668 C2663 1.363 . S
C2668 C2667 1.415 . S
C2669 H2645 0.951 . S
C2669 C2670 1.366 . S
C2669 C2671 1.388 . S
C2670 C2669 1.366 . S
C2670 C2674 1.385 . S
C2671 H2646 0.951 . S
C2671 C2669 1.388 . S
C2671 C2672 1.366 . S
C2672 C2671 1.366 . S
C2672 C2673 1.414 . S
C2672 C2675 1.499 . S
C2673 H2647 0.950 . S
C2673 C2672 1.414 . S
C2673 C2674 1.374 . S
C2674 H2648 0.950 . S
C2674 C2670 1.385 . S
C2674 C2673 1.374 . S
C2675 C2672 1.499 . S
C2675 C2676 1.373 . S
C2675 C2677 1.389 . S
C2676 H2649 0.950 . S
C2676 C2662 1.377 . S
C2676 C2675 1.373 . S
C2677 C2661 1.377 . S
C2677 C2675 1.389 . S
C2677 C2678 1.524 . S
C2678 C2677 1.524 . S
C2678 C2679 1.397 . S
C2678 C2683 1.363 . S
C2679 H2650 0.950 . S
C2679 C2678 1.397 . S
C2679 C2680 1.334 . S
C2680 H2651 0.950 . S
C2680 C2679 1.334 . S
C2680 C2681 1.287 . S
C2681 C2680 1.287 . S
C2681 C2682 1.524 . S
C2681 H2684 0.999 . S
C2682 H2652 0.950 . S
C2682 C2681 1.524 . S
C2682 C2683 1.415 . S
C2683 H2653 0.950 . S
C2683 C2678 1.363 . S
C2683 C2682 1.415 . S
H2684 C2681 0.999 . S
H2685 C2666 0.913 1_565 S
H2686 C2704 0.951 . S
H2687 C2706 0.951 . S
H2688 C2708 0.950 . S
H2689 C2709 0.950 . S
H2690 C2711 0.950 . S
H2691 C2714 0.950 . S
H2692 C2715 0.950 . S
H2693 C2717 0.950 . S
H2694 C2718 0.950 . S
H2695 C2719 0.951 . S
H2696 C2721 0.951 . S
H2697 C2723 0.950 . S
H2698 C2724 0.950 . S
H2699 C2726 0.950 . S
H2700 C2729 0.950 . S
H2701 C2730 0.950 . S
H2702 C2732 0.950 . S
H2703 C2733 0.950 . S
C2704 H2686 0.951 . S
C2704 C2705 1.366 . S
C2704 C2706 1.388 . S
C2705 C2704 1.366 . S
C2705 C2709 1.385 . S
C2706 H2687 0.951 . S
C2706 C2704 1.388 . S
C2706 C2707 1.366 . S
C2707 C2706 1.366 . S
C2707 C2708 1.414 . S
C2707 C2710 1.499 . S
C2708 H2688 0.950 . S
C2708 C2707 1.414 . S
C2708 C2709 1.374 . S
C2709 H2689 0.950 . S
C2709 C2705 1.385 . S
C2709 C2708 1.374 . S
C2710 C2707 1.499 . S
C2710 C2711 1.373 . S
C2710 C2712 1.389 . S
C2711 H2690 0.950 . S
C2711 C2710 1.373 . S
C2711 C2727 1.377 . S
C2712 C2710 1.389 . S
C2712 C2713 1.524 . S
C2712 C2726 1.377 . S
C2713 C2712 1.524 . S
C2713 C2714 1.397 . S
C2713 C2718 1.363 . S
C2714 H2691 0.950 . S
C2714 C2713 1.397 . S
C2714 C2715 1.334 . S
C2715 H2692 0.950 . S
C2715 C2714 1.334 . S
C2715 C2716 1.287 . S
C2716 C2715 1.287 . S
C2716 C2717 1.524 . S
C2716 H2735 0.913 . S
C2717 H2693 0.950 . S
C2717 C2716 1.524 . S
C2717 C2718 1.415 . S
C2718 H2694 0.950 . S
C2718 C2713 1.363 . S
C2718 C2717 1.415 . S
C2719 H2695 0.951 . S
C2719 C2720 1.366 . S
C2719 C2721 1.388 . S
C2720 C2719 1.366 . S
C2720 C2724 1.385 . S
C2721 H2696 0.951 . S
C2721 C2719 1.388 . S
C2721 C2722 1.366 . S
C2722 C2721 1.366 . S
C2722 C2723 1.414 . S
C2722 C2725 1.499 . S
C2723 H2697 0.950 . S
C2723 C2722 1.414 . S
C2723 C2724 1.374 . S
C2724 H2698 0.950 . S
C2724 C2720 1.385 . S
C2724 C2723 1.374 . S
C2725 C2722 1.499 . S
C2725 C2726 1.373 . S
C2725 C2727 1.389 . S
C2726 H2699 0.950 . S
C2726 C2712 1.377 . S
C2726 C2725 1.373 . S
C2727 C2711 1.377 . S
C2727 C2725 1.389 . S
C2727 C2728 1.524 . S
C2728 C2727 1.524 . S
C2728 C2729 1.397 . S
C2728 C2733 1.363 . S
C2729 H2700 0.950 . S
C2729 C2728 1.397 . S
C2729 C2730 1.334 . S
C2730 H2701 0.950 . S
C2730 C2729 1.334 . S
C2730 C2731 1.287 . S
C2731 C2730 1.287 . S
C2731 C2732 1.524 . S
C2731 H2734 0.999 . S
C2732 H2702 0.950 . S
C2732 C2731 1.524 . S
C2732 C2733 1.415 . S
C2733 H2703 0.950 . S
C2733 C2728 1.363 . S
C2733 C2732 1.415 . S
H2734 C2731 0.999 . S
H2735 C2716 0.913 . S
C355 C121 0.885 . S
C370 C3 0.890 . S
C405 C17 0.891 . S
C420 C163 0.883 . S
C455 C31 0.891 . S
C470 C135 0.883 . S
C505 C45 0.890 . S
C520 C149 0.885 . S
C555 C59 0.862 . S
C570 C9 0.854 . S
C605 C23 0.856 . S
C620 C73 0.861 . S
C655 C87 0.860 . S
C670 C37 0.855 . S
C705 C51 0.855 . S
C720 C101 0.862 . S
C755 C65 0.879 . S
C770 C115 0.884 . S
C805 C93 0.877 . S
C820 C129 0.885 . S
C855 C143 0.885 . S
C870 C107 0.879 . S
C905 C79 0.877 . S
C920 C157 0.885 . S
C955 C283 0.867 . S
C970 C171 0.866 . S
C1005 C185 0.865 . S
C1020 C325 0.867 . S
C1055 C199 0.864 . S
C1070 C297 0.868 . S
C1105 C311 0.868 . S
C1120 C213 0.864 . S
C1155 C233 0.845 . S
C1170 C177 0.849 . S
C1205 C191 0.847 . S
C1220 C247 0.846 . S
C1255 C205 0.848 . S
C1270 C261 0.846 . S
C1305 C275 0.845 . S
C1320 C219 0.849 . S
C1355 C289 0.845 . S
C1370 C227 0.854 . S
C1405 C255 0.854 . S
C1420 C303 0.844 . S
C1455 C269 0.854 . S
C1470 C317 0.845 . S
C1505 C331 0.846 . S
C1520 C241 0.853 . S
C1555 C315 1.320 . S
C1570 C7 1.328 . S
C1605 C301 1.321 . S
C1620 C21 1.328 . S
C1655 C329 1.320 . S
C1670 C35 1.328 . S
C1705 C49 1.329 . S
C1720 C287 1.320 . S
C1755 C63 1.326 . S
C1770 C190 1.345 . S
C1805 C176 1.345 . S
C1820 C77 1.326 . S
C1855 C218 1.346 . S
C1870 C91 1.326 . S
C1905 C204 1.345 . S
C1920 C105 1.327 . S
C1955 C119 1.346 . S
C1970 C259 1.335 . S
C2005 C231 1.334 . S
C2020 C133 1.346 . S
C2055 C245 1.334 . S
C2070 C147 1.345 . S
C2105 C273 1.335 . S
C2120 C161 1.346 . S
C2155 C148 1.405 . S
C2170 C175 1.381 . S
C2205 C134 1.405 . S
C2220 C189 1.380 . S
C2255 C203 1.381 . S
C2270 C162 1.405 . S
C2305 C120 1.405 . S
C2320 C217 1.380 . S
C2355 C232 1.423 . S
C2370 C22 1.422 . S
C2405 C246 1.423 . S
C2420 C8 1.422 . S
C2455 C260 1.423 . S
C2470 C50 1.422 . S
C2505 C274 1.423 . S
C2520 C36 1.421 . S
C2555 C288 1.391 . S
C2570 C92 1.388 . S
C2605 C302 1.391 . S
C2620 C64 1.389 . S
C2655 C78 1.389 . S
C2670 C316 1.390 . S
C2705 C330 1.391 . S
C2720 C106 1.389 . S
