# Generated by pormake.
# Topology umc, (4)-cn, num edge types: 1
# Building blocks:
#     Node 0, Type 0, BuildingBlock: NAWXER_clean_sbu_0, # of connection points: 4
#     Node 1, Type 0, BuildingBlock: NAWXER_clean_sbu_0, # of connection points: 4
#     Node 2, Type 0, BuildingBlock: NAWXER_clean_sbu_0, # of connection points: 4
#     Node 3, Type 0, BuildingBlock: NAWXER_clean_sbu_0, # of connection points: 4
#     Node 4, Type 0, BuildingBlock: NAWXER_clean_sbu_0, # of connection points: 4
#     Node 5, Type 0, BuildingBlock: NAWXER_clean_sbu_0, # of connection points: 4
#     Node 6, Type 0, BuildingBlock: NAWXER_clean_sbu_0, # of connection points: 4
#     Node 7, Type 0, BuildingBlock: NAWXER_clean_sbu_0, # of connection points: 4
#     Node 8, Type 0, BuildingBlock: NAWXER_clean_sbu_0, # of connection points: 4
#     Node 9, Type 0, BuildingBlock: NAWXER_clean_sbu_0, # of connection points: 4
#     Node 10, Type 0, BuildingBlock: NAWXER_clean_sbu_0, # of connection points: 4
#     Node 11, Type 0, BuildingBlock: NAWXER_clean_sbu_0, # of connection points: 4
#     Node 12, Type 0, BuildingBlock: NAWXER_clean_sbu_0, # of connection points: 4
#     Node 13, Type 0, BuildingBlock: NAWXER_clean_sbu_0, # of connection points: 4
#     Node 14, Type 0, BuildingBlock: NAWXER_clean_sbu_0, # of connection points: 4
#     Node 15, Type 0, BuildingBlock: NAWXER_clean_sbu_0, # of connection points: 4
#     Edge 16, Type (0, 0), BuildingBlock: CIFDUS_clean_linker_0, # of connection points: 2
#     Edge 17, Type (0, 0), BuildingBlock: CIFDUS_clean_linker_0, # of connection points: 2
#     Edge 18, Type (0, 0), BuildingBlock: CIFDUS_clean_linker_0, # of connection points: 2
#     Edge 19, Type (0, 0), BuildingBlock: CIFDUS_clean_linker_0, # of connection points: 2
#     Edge 20, Type (0, 0), BuildingBlock: CIFDUS_clean_linker_0, # of connection points: 2
#     Edge 21, Type (0, 0), BuildingBlock: CIFDUS_clean_linker_0, # of connection points: 2
#     Edge 22, Type (0, 0), BuildingBlock: CIFDUS_clean_linker_0, # of connection points: 2
#     Edge 23, Type (0, 0), BuildingBlock: CIFDUS_clean_linker_0, # of connection points: 2
#     Edge 24, Type (0, 0), BuildingBlock: CIFDUS_clean_linker_0, # of connection points: 2
#     Edge 25, Type (0, 0), BuildingBlock: CIFDUS_clean_linker_0, # of connection points: 2
#     Edge 26, Type (0, 0), BuildingBlock: CIFDUS_clean_linker_0, # of connection points: 2
#     Edge 27, Type (0, 0), BuildingBlock: CIFDUS_clean_linker_0, # of connection points: 2
#     Edge 28, Type (0, 0), BuildingBlock: CIFDUS_clean_linker_0, # of connection points: 2
#     Edge 29, Type (0, 0), BuildingBlock: CIFDUS_clean_linker_0, # of connection points: 2
#     Edge 30, Type (0, 0), BuildingBlock: CIFDUS_clean_linker_0, # of connection points: 2
#     Edge 31, Type (0, 0), BuildingBlock: CIFDUS_clean_linker_0, # of connection points: 2
#     Edge 32, Type (0, 0), BuildingBlock: CIFDUS_clean_linker_0, # of connection points: 2
#     Edge 33, Type (0, 0), BuildingBlock: CIFDUS_clean_linker_0, # of connection points: 2
#     Edge 34, Type (0, 0), BuildingBlock: CIFDUS_clean_linker_0, # of connection points: 2
#     Edge 35, Type (0, 0), BuildingBlock: CIFDUS_clean_linker_0, # of connection points: 2
#     Edge 36, Type (0, 0), BuildingBlock: CIFDUS_clean_linker_0, # of connection points: 2
#     Edge 37, Type (0, 0), BuildingBlock: CIFDUS_clean_linker_0, # of connection points: 2
#     Edge 38, Type (0, 0), BuildingBlock: CIFDUS_clean_linker_0, # of connection points: 2
#     Edge 39, Type (0, 0), BuildingBlock: CIFDUS_clean_linker_0, # of connection points: 2
#     Edge 40, Type (0, 0), BuildingBlock: CIFDUS_clean_linker_0, # of connection points: 2
#     Edge 41, Type (0, 0), BuildingBlock: CIFDUS_clean_linker_0, # of connection points: 2
#     Edge 42, Type (0, 0), BuildingBlock: CIFDUS_clean_linker_0, # of connection points: 2
#     Edge 43, Type (0, 0), BuildingBlock: CIFDUS_clean_linker_0, # of connection points: 2
#     Edge 44, Type (0, 0), BuildingBlock: CIFDUS_clean_linker_0, # of connection points: 2
#     Edge 45, Type (0, 0), BuildingBlock: CIFDUS_clean_linker_0, # of connection points: 2
#     Edge 46, Type (0, 0), BuildingBlock: CIFDUS_clean_linker_0, # of connection points: 2
#     Edge 47, Type (0, 0), BuildingBlock: CIFDUS_clean_linker_0, # of connection points: 2
# Relax obj value: 0.015
# Max RMSD: 0.104
# Mean RMSD: 0.104
data_MOF--net-umc--node1-NAWXER_clean_sbu_0--edge1-CIFDUS_clean_linker_0
_symmetry_space_group_name_H-M    P1
_symmetry_Int_Tables_number       1
_symmetry_cell_setting            triclinic
loop_
_symmetry_equiv_pos_as_xyz
'x, y, z'
_cell_length_a     47.350414
_cell_length_b     19.292597
_cell_length_c     51.192945
_cell_angle_alpha  90.015686
_cell_angle_beta   90.109151
_cell_angle_gamma 89.575551
loop_
_atom_site_label
_atom_site_type_symbol
_atom_site_fract_x
_atom_site_fract_y
_atom_site_fract_z
_atom_type_partial_charge
C0 C 0.37614 0.01067 0.42422 0.0
C1 C 0.36658 0.01992 0.32862 0.0
O2 O 0.38698 0.06411 0.4134 0.0
Zn3 Zn 0.3922 0.10912 0.37572 0.0
O4 O 0.3635 0.96618 0.41014 0.0
Zn5 Zn 0.37055 0.01216 0.37651 0.0
O6 O 0.41575 0.00439 0.37358 0.0
O7 O 0.43262 0.11063 0.3724 0.0
O8 O 0.35843 0.97111 0.34347 0.0
O9 O 0.37906 0.07241 0.33849 0.0
O10 O 0.37177 0.19564 0.37853 0.0
O11 O 0.34429 0.10366 0.37902 0.0
C12 C 0.43686 0.04548 0.37219 0.0
C13 C 0.34718 0.16979 0.37955 0.0
C14 C 0.69668 0.85706 0.38754 0.0
C15 C 0.6018 0.95552 0.3754 0.0
O16 O 0.69575 0.92326 0.38588 0.0
Zn17 Zn 0.66616 0.00529 0.38108 0.0
O18 O 0.67389 0.82254 0.38626 0.0
Zn19 Zn 0.64846 0.90149 0.38159 0.0
O20 O 0.66085 0.93737 0.34432 0.0
O21 O 0.67728 0.04397 0.34734 0.0
O22 O 0.60776 0.89121 0.37729 0.0
O23 O 0.62163 0.00019 0.37659 0.0
O24 O 0.67009 0.05548 0.41431 0.0
O25 O 0.65067 0.95223 0.41824 0.0
C26 C 0.67137 0.99105 0.33351 0.0
C27 C 0.6589 0.00908 0.42856 0.0
C28 C 0.38166 0.96083 0.08018 0.0
C29 C 0.37079 0.94775 0.17544 0.0
O30 O 0.39055 0.90408 0.09042 0.0
Zn31 Zn 0.39363 0.85526 0.12775 0.0
O32 O 0.37045 0.00697 0.09468 0.0
Zn33 Zn 0.37572 0.95698 0.12773 0.0
O34 O 0.42115 0.95263 0.13113 0.0
O35 O 0.43379 0.84236 0.1314 0.0
O36 O 0.36467 -0.00092 0.16082 0.0
O37 O 0.38151 0.89285 0.16532 0.0
O38 O 0.37003 0.77482 0.12386 0.0
O39 O 0.346 0.87325 0.12426 0.0
C40 C 0.44057 0.90595 0.13226 0.0
C41 C 0.34647 0.80677 0.12307 0.0
C42 C 0.66156 0.03269 0.17904 0.0
C43 C 0.65726 0.00873 0.08356 0.0
O44 O 0.6522 0.08641 0.1671 0.0
Zn45 Zn 0.6428 0.11985 0.12862 0.0
O46 O 0.66743 0.97813 0.16605 0.0
Zn47 Zn 0.65852 0.01486 0.13143 0.0
O48 O 0.68987 0.09387 0.1277 0.0
O49 O 0.66889 0.19632 0.12511 0.0
O50 O 0.6647 0.96083 0.09931 0.0
O51 O 0.64895 0.06728 0.09264 0.0
O52 O 0.60232 0.13585 0.12938 0.0
O53 O 0.61356 0.02503 0.13246 0.0
C54 C 0.69144 0.15994 0.12553 0.0
C55 C 0.59471 0.07301 0.13149 0.0
C56 C 0.66709 0.02351 0.5833 0.0
C57 C 0.66626 0.99127 0.67812 0.0
O58 O 0.67657 0.06566 0.60024 0.0
Zn59 Zn 0.66716 0.00961 0.63068 0.0
O60 O 0.65672 0.96552 0.59069 0.0
Zn61 Zn 0.64906 0.90941 0.62601 0.0
O62 O 0.60822 0.89973 0.62511 0.0
O63 O 0.62158 0.00836 0.62939 0.0
O64 O 0.65654 0.93911 0.6656 0.0
O65 O 0.6745 0.04426 0.66555 0.0
O66 O 0.69714 0.92576 0.6276 0.0
O67 O 0.67364 0.82853 0.62244 0.0
C68 C 0.60177 0.96364 0.62724 0.0
C69 C 0.69711 0.85976 0.62456 0.0
C70 C 0.37106 0.96554 0.579 0.0
C71 C 0.36895 0.99628 0.67458 0.0
O72 O 0.36281 0.91969 0.59514 0.0
Zn73 Zn 0.36996 0.97463 0.62694 0.0
O74 O 0.37959 0.0242 0.58751 0.0
Zn75 Zn 0.38558 0.07969 0.6228 0.0
O76 O 0.42663 0.09354 0.62289 0.0
O77 O 0.4149 0.98362 0.62663 0.0
O78 O 0.37755 0.04887 0.66172 0.0
O79 O 0.36276 0.94073 0.66243 0.0
O80 O 0.33824 0.0529 0.62322 0.0
O81 O 0.35803 0.15537 0.6188 0.0
C82 C 0.43401 0.03013 0.62503 0.0
C83 C 0.33583 0.11859 0.62027 0.0
C84 C 0.65298 0.04814 0.92807 0.0
C85 C 0.65876 0.04806 0.83227 0.0
O86 O 0.66122 0.99699 0.91423 0.0
Zn87 Zn 0.65471 0.04206 0.88017 0.0
O88 O 0.64398 0.10328 0.91679 0.0
Zn89 Zn 0.63771 0.14546 0.87901 0.0
O90 O 0.59749 0.15862 0.87689 0.0
O91 O 0.6095 0.04804 0.87822 0.0
O92 O 0.64874 0.10397 0.84212 0.0
O93 O 0.6645 0.99683 0.8471 0.0
O94 O 0.68501 0.12531 0.88145 0.0
O95 O 0.66179 0.22513 0.88043 0.0
C96 C 0.59034 0.09529 0.87706 0.0
C97 C 0.68508 0.19189 0.88144 0.0
C98 C 0.37495 0.0073 0.92587 0.0
C99 C 0.36979 0.9739 0.83052 0.0
O100 O 0.36655 0.05316 0.90965 0.0
Zn101 Zn 0.37225 0.99638 0.87806 0.0
O102 O 0.38273 0.94758 0.91754 0.0
Zn103 Zn 0.38706 0.89063 0.88231 0.0
O104 O 0.4273 0.87147 0.88155 0.0
O105 O 0.41705 0.98274 0.8774 0.0
O106 O 0.3783 0.92083 0.84336 0.0
O107 O 0.36431 0.0301 0.84264 0.0
O108 O 0.3402 0.92061 0.88295 0.0
O109 O 0.35995 0.81714 0.88723 0.0
C110 C 0.43544 0.93378 0.87887 0.0
C111 C 0.33786 0.8551 0.88626 0.0
C112 C 0.88122 0.49921 0.42755 0.0
C113 C 0.87414 0.4974 0.33235 0.0
O114 O 0.88701 0.55747 0.41688 0.0
Zn115 Zn 0.88892 0.60255 0.37888 0.0
O116 O 0.87427 0.44807 0.4133 0.0
Zn117 Zn 0.87759 0.49616 0.38001 0.0
O118 O 0.92224 0.51672 0.37754 0.0
O119 O 0.92788 0.63012 0.37644 0.0
O120 O 0.87045 0.44671 0.34782 0.0
O121 O 0.88093 0.55673 0.3416 0.0
O122 O 0.86046 0.67341 0.38089 0.0
O123 O 0.84264 0.56806 0.38166 0.0
C124 C 0.93855 0.56951 0.37632 0.0
C125 C 0.8391 0.63403 0.38199 0.0
C126 C 0.16167 0.50399 0.42269 0.0
C127 C 0.16581 0.50074 0.32781 0.0
O128 O 0.15267 0.44674 0.4131 0.0
Zn129 Zn 0.14788 0.40078 0.37488 0.0
O130 O 0.1708 0.55066 0.40749 0.0
Zn131 Zn 0.16394 0.50082 0.3754 0.0
O132 O 0.11774 0.49371 0.37418 0.0
O133 O 0.10874 0.3818 0.37337 0.0
O134 O 0.17254 0.54865 0.34358 0.0
O135 O 0.1565 0.44323 0.3368 0.0
O136 O 0.17129 0.32096 0.3765 0.0
O137 O 0.19562 0.41785 0.37693 0.0
C138 C 0.09983 0.4439 0.37345 0.0
C139 C 0.19492 0.35123 0.37731 0.0
C140 C 0.87281 0.51872 0.08147 0.0
C141 C 0.86901 0.51818 0.17684 0.0
O142 O 0.87931 0.46021 0.0918 0.0
Zn143 Zn 0.88299 0.41429 0.12961 0.0
O144 O 0.86605 0.56947 0.0961 0.0
Zn145 Zn 0.87062 0.52045 0.1291 0.0
O146 O 0.91552 0.50119 0.13056 0.0
O147 O 0.92233 0.38793 0.1309 0.0
O148 O 0.86403 0.56893 0.16162 0.0
O149 O 0.87607 0.45924 0.16723 0.0
O150 O 0.85514 0.34261 0.12829 0.0
O151 O 0.83635 0.44759 0.12792 0.0
C152 C 0.93239 0.44881 0.13115 0.0
C153 C 0.83338 0.38154 0.12762 0.0
C154 C 0.09274 0.5758 0.13182 0.0
C155 C 0.18916 0.65898 0.12587 0.0
O156 O 0.11032 0.52543 0.12869 0.0
Zn157 Zn 0.15581 0.51344 0.12476 0.0
O158 O 0.1019 0.63734 0.13334 0.0
Zn159 Zn 0.14112 0.61629 0.12917 0.0
O160 O 0.14293 0.57891 0.08988 0.0
O161 O 0.15939 0.47166 0.09029 0.0
O162 O 0.16631 0.69292 0.12871 0.0
O163 O 0.18836 0.59253 0.12424 0.0
O164 O 0.16546 0.45846 0.15523 0.0
O165 O 0.15167 0.56486 0.16489 0.0
C166 C 0.15009 0.52364 0.07757 0.0
C167 C 0.16055 0.50504 0.17221 0.0
C168 C 0.15074 0.47955 0.57767 0.0
C169 C 0.16258 0.4718 0.67292 0.0
O170 O 0.1605 0.52892 0.59146 0.0
Zn171 Zn 0.15711 0.48162 0.62527 0.0
O172 O 0.1435 0.42289 0.58868 0.0
Zn173 Zn 0.14143 0.37588 0.62586 0.0
O174 O 0.10055 0.36238 0.62967 0.0
O175 O 0.1125 0.4726 0.62914 0.0
O176 O 0.15304 0.41625 0.66265 0.0
O177 O 0.16741 0.52438 0.65859 0.0
O178 O 0.18865 0.4029 0.62175 0.0
O179 O 0.16881 0.29981 0.62229 0.0
C180 C 0.09338 0.42615 0.63055 0.0
C181 C 0.19097 0.33676 0.62085 0.0
C182 C 0.83109 0.60244 0.62707 0.0
C183 C 0.9261 0.49728 0.63223 0.0
O184 O 0.85458 0.63397 0.62825 0.0
Zn185 Zn 0.87902 0.55254 0.63007 0.0
O186 O 0.83097 0.53593 0.62727 0.0
Zn187 Zn 0.86081 0.45135 0.62908 0.0
O188 O 0.85102 0.40625 0.66164 0.0
O189 O 0.86873 0.5107 0.6673 0.0
O190 O 0.90617 0.45272 0.63114 0.0
O191 O 0.91989 0.5616 0.63228 0.0
O192 O 0.87395 0.50803 0.59224 0.0
O193 O 0.8545 0.40485 0.59578 0.0
C194 C 0.85832 0.45513 0.67685 0.0
C195 C 0.86467 0.45257 0.58154 0.0
C196 C 0.15508 0.49374 0.92231 0.0
C197 C 0.16129 0.52244 0.82728 0.0
O198 O 0.16278 0.4469 0.90624 0.0
Zn199 Zn 0.15822 0.50359 0.87474 0.0
O200 O 0.14812 0.55391 0.91378 0.0
Zn201 Zn 0.14457 0.60979 0.87818 0.0
O202 O 0.10467 0.63216 0.87704 0.0
O203 O 0.11349 0.52008 0.87333 0.0
O204 O 0.15312 0.57701 0.83941 0.0
O205 O 0.16632 0.46714 0.8401 0.0
O206 O 0.1912 0.57735 0.87969 0.0
O207 O 0.17218 0.6818 0.88306 0.0
C208 C 0.09573 0.57052 0.87443 0.0
C209 C 0.19399 0.64288 0.88268 0.0
C210 C 0.88 0.47206 0.92658 0.0
C211 C 0.86916 0.47989 0.83162 0.0
O212 O 0.87071 0.52297 0.91322 0.0
Zn213 Zn 0.87502 0.47913 0.87913 0.0
O214 O 0.8879 0.41648 0.9149 0.0
Zn215 Zn 0.89095 0.37603 0.87624 0.0
O216 O 0.93073 0.35948 0.87225 0.0
O217 O 0.9202 0.4707 0.87536 0.0
O218 O 0.879 0.42202 0.84 0.0
O219 O 0.8643 0.52892 0.84764 0.0
O220 O 0.84382 0.39806 0.88064 0.0
O221 O 0.86634 0.29769 0.87778 0.0
C222 C 0.93869 0.42218 0.8729 0.0
C223 C 0.84333 0.33155 0.87993 0.0
H224 H 0.34897 0.92031 0.45784 0.0
H225 H 0.4115 0.0824 0.45528 0.0
H226 H 0.41674 0.07747 0.50221 0.0
H227 H 0.4023 0.03354 0.54409 0.0
H228 H 0.33936 0.87393 0.54941 0.0
H229 H 0.33601 0.87043 0.5014 0.0
C230 C 0.36383 0.95409 0.4676 0.0
C231 C 0.37952 0.00228 0.4529 0.0
C232 C 0.36675 0.95149 0.4951 0.0
C233 C 0.3988 0.04548 0.46592 0.0
C234 C 0.40196 0.04265 0.49286 0.0
C235 C 0.38786 0.99758 0.53485 0.0
C236 C 0.37087 0.95466 0.55031 0.0
C237 C 0.38578 0.99683 0.50762 0.0
C238 C 0.3527 0.90756 0.53793 0.0
C239 C 0.35066 0.90596 0.5105 0.0
H240 H 0.63142 0.97459 0.54726 0.0
H241 H 0.70323 0.10856 0.55604 0.0
H242 H 0.70583 0.12224 0.50833 0.0
H243 H 0.68984 0.08633 0.46375 0.0
H244 H 0.61792 0.95097 0.45715 0.0
H245 H 0.61311 0.94821 0.50428 0.0
C246 C 0.64759 0.00718 0.53879 0.0
C247 C 0.66737 0.03961 0.55505 0.0
C248 C 0.64897 0.01437 0.51165 0.0
C249 C 0.68781 0.08281 0.54384 0.0
C250 C 0.68935 0.09038 0.51658 0.0
C251 C 0.67288 0.05736 0.47271 0.0
C252 C 0.65452 0.01813 0.45696 0.0
C253 C 0.67036 0.05511 0.5002 0.0
C254 C 0.63262 0.98073 0.46881 0.0
C255 C 0.6298 0.97906 0.4958 0.0
H256 H 0.35448 0.05305 0.047 0.0
H257 H 0.41798 0.89102 0.04922 0.0
H258 H 0.42316 0.89709 1.00224 0.0
H259 H 0.40776 0.94077 0.96038 0.0
H260 H 0.34356 0.09981 0.95561 0.0
H261 H 0.34099 0.10369 0.00364 0.0
C262 C 0.3696 0.01969 0.03715 0.0
C263 C 0.3855 0.97094 0.05169 0.0
C264 C 0.37237 0.02278 0.00968 0.0
C265 C 0.40509 0.92821 0.03862 0.0
C266 C 0.4082 0.93171 0.01168 0.0
C267 C 0.39327 0.97678 0.96977 0.0
C268 C 0.37562 0.0193 0.95447 0.0
C269 C 0.39159 0.97761 0.99702 0.0
C270 C 0.35738 0.0665 0.96698 0.0
C271 C 0.35579 0.06829 0.99442 0.0
H272 H 0.66244 0.9381 0.9621 0.0
H273 H 0.64686 0.15927 0.95941 0.0
H274 H 0.6474 0.16499 0.00644 0.0
H275 H 0.65123 0.10983 0.04817 0.0
H276 H 0.6666 0.88973 0.05404 0.0
H277 H 0.66733 0.88121 0.00603 0.0
C278 C 0.65924 0.98736 0.97189 0.0
C279 C 0.65435 0.04796 0.95703 0.0
C280 C 0.65947 0.99073 0.9995 0.0
C281 C 0.65034 0.11149 0.97009 0.0
C282 C 0.6507 0.1151 0.99712 0.0
C283 C 0.65468 0.05957 0.03915 0.0
C284 C 0.65861 0.00043 0.05475 0.0
C285 C 0.65501 0.05525 0.01195 0.0
C286 C 0.66343 0.93617 0.04249 0.0
C287 C 0.66382 0.93134 0.01504 0.0
H288 H 0.89168 0.53818 0.54873 0.0
H289 H 0.84159 0.35227 0.54959 0.0
H290 H 0.84347 0.34738 0.50167 0.0
H291 H 0.85787 0.40005 0.45936 0.0
H292 H 0.90738 0.58731 0.46052 0.0
H293 H 0.90721 0.58714 0.50788 0.0
C294 C 0.88112 0.49634 0.53858 0.0
C295 C 0.8663 0.44602 0.55275 0.0
C296 C 0.88218 0.49415 0.51131 0.0
C297 C 0.85307 0.39186 0.53914 0.0
C298 C 0.85413 0.38912 0.51175 0.0
C299 C 0.86881 0.44032 0.47005 0.0
C300 C 0.88244 0.49386 0.45636 0.0
C301 C 0.86842 0.44049 0.49759 0.0
C302 C 0.89649 0.54582 0.47047 0.0
C303 C 0.89645 0.54585 0.49761 0.0
H304 H 0.17686 0.56848 0.5433 0.0
H305 H 0.11726 0.40032 0.54747 0.0
H306 H 0.11486 0.39507 0.50025 0.0
H307 H 0.13144 0.4322 0.4578 0.0
H308 H 0.19061 0.60023 0.45177 0.0
H309 H 0.19128 0.61176 0.4995 0.0
C310 C 0.16312 0.53144 0.5338 0.0
C311 C 0.14757 0.48435 0.54896 0.0
C312 C 0.1619 0.52812 0.50628 0.0
C313 C 0.12981 0.4366 0.53636 0.0
C314 C 0.12836 0.43343 0.50928 0.0
C315 C 0.14449 0.4715 0.46686 0.0
C316 C 0.1612 0.51465 0.4513 0.0
C317 C 0.1447 0.47785 0.49409 0.0
C318 C 0.17761 0.5661 0.46337 0.0
C319 C 0.17803 0.57264 0.49065 0.0
H320 H 0.86239 0.57611 0.95981 0.0
H321 H 0.90143 0.37282 0.95848 0.0
H322 H 0.90315 0.37121 0.00574 0.0
H323 H 0.89278 0.42442 0.04736 0.0
H324 H 0.85375 0.62701 0.05072 0.0
H325 H 0.85304 0.63207 1.00279 0.0
C326 C 0.87136 0.5317 0.9699 0.0
C327 C 0.88161 0.47459 0.95548 0.0
C328 C 0.87229 0.53077 0.99744 0.0
C329 C 0.89323 0.41746 0.96891 0.0
C330 C 0.89427 0.41633 0.99603 0.0
C331 C 0.88409 0.46993 0.03773 0.0
C332 C 0.87317 0.52504 0.05263 0.0
C333 C 0.88369 0.47229 0.01045 0.0
C334 C 0.86228 0.58376 0.0397 0.0
C335 C 0.86182 0.58658 0.01231 0.0
H336 H 0.17016 0.42607 0.04275 0.0
H337 H 0.12295 0.61832 0.04757 0.0
H338 H 0.11903 0.62238 1.00042 0.0
H339 H 0.1304 0.57583 0.95801 0.0
H340 H 0.17838 0.3858 0.95093 0.0
H341 H 0.18018 0.37584 0.9988 0.0
C342 C 0.1589 0.46852 0.03343 0.0
C343 C 0.1471 0.5221 0.04877 0.0
C344 C 0.15682 0.47105 0.00595 0.0
C345 C 0.13251 0.5767 0.03637 0.0
C346 C 0.13016 0.57912 0.00934 0.0
C347 C 0.14126 0.53191 0.96679 0.0
C348 C 0.15449 0.482 0.9509 0.0
C349 C 0.14251 0.52721 0.99399 0.0
C350 C 0.16805 0.42503 0.96274 0.0
C351 C 0.16918 0.41955 0.99009 0.0
H352 H 0.55277 0.88046 0.37612 0.0
H353 H 0.5846 0.0887 0.36818 0.0
H354 H 0.53677 0.13419 0.36571 0.0
H355 H 0.48587 0.11648 0.36731 0.0
H356 H 0.45317 0.90934 0.37527 0.0
H357 H 0.50118 0.86226 0.37607 0.0
C358 C 0.54922 0.93567 0.37369 0.0
C359 C 0.57234 0.98088 0.3725 0.0
C360 C 0.52144 0.96202 0.37234 0.0
C361 C 0.5673 0.05243 0.36931 0.0
C362 C 0.53988 0.07876 0.36788 0.0
C363 C 0.48919 0.061 0.36911 0.0
C364 C 0.46593 0.01671 0.37134 0.0
C365 C 0.51681 0.03422 0.36964 0.0
C366 C 0.47069 0.94482 0.37355 0.0
C367 C 0.49816 0.91774 0.37405 0.0
H368 H 0.46205 0.03664 0.13094 0.0
H369 H 0.48689 0.82129 0.1366 0.0
H370 H 0.5365 0.85448 0.13739 0.0
H371 H 0.57279 0.94386 0.13553 0.0
H372 H 0.54841 0.15935 0.12938 0.0
H373 H 0.49859 0.12666 0.12977 0.0
C374 C 0.47829 0.9969 0.13247 0.0
C375 C 0.47067 0.92648 0.13369 0.0
C376 C 0.50685 0.01631 0.13276 0.0
C377 C 0.49206 0.87582 0.1356 0.0
C378 C 0.52048 0.89475 0.13604 0.0
C379 C 0.55664 0.9839 0.13434 0.0
C380 C 0.56441 0.05405 0.13239 0.0
C381 C 0.5281 0.96475 0.13447 0.0
C382 C 0.54309 0.10499 0.13088 0.0
C383 C 0.51458 0.08632 0.13109 0.0
H384 H 0.55423 0.8842 0.62608 0.0
H385 H 0.58168 0.09694 0.62778 0.0
H386 H 0.53265 0.13682 0.62708 0.0
H387 H 0.48153 0.11153 0.62597 0.0
H388 H 0.45465 0.89814 0.62481 0.0
H389 H 0.50354 0.85899 0.6253 0.0
C390 C 0.54953 0.9393 0.62629 0.0
C391 C 0.57175 0.98727 0.62698 0.0
C392 C 0.5212 0.9621 0.62598 0.0
C393 C 0.5651 0.05857 0.6273 0.0
C394 C 0.53699 0.08159 0.62687 0.0
C395 C 0.48638 0.05651 0.62581 0.0
C396 C 0.46424 0.00813 0.62536 0.0
C397 C 0.5148 0.03386 0.62621 0.0
C398 C 0.47107 0.9369 0.62522 0.0
C399 C 0.49913 0.9142 0.62547 0.0
H400 H 0.56824 0.96538 0.87924 0.0
H401 H 0.5445 0.18144 0.87327 0.0
H402 H 0.49473 0.14984 0.87282 0.0
H403 H 0.45808 0.0618 0.87475 0.0
H404 H 0.48119 0.84553 0.88118 0.0
H405 H 0.53122 0.87653 0.88075 0.0
C406 C 0.5522 0.00561 0.87777 0.0
C407 C 0.56015 0.07576 0.87631 0.0
C408 C 0.52355 0.98712 0.87762 0.0
C409 C 0.53904 0.12711 0.87445 0.0
C410 C 0.51055 0.1091 0.87419 0.0
C411 C 0.47399 0.02119 0.87599 0.0
C412 C 0.46584 0.95135 0.87801 0.0
C413 C 0.50259 0.03936 0.87586 0.0
C414 C 0.48684 0.89966 0.87962 0.0
C415 C 0.51545 0.91738 0.87939 0.0
H416 H 0.96682 0.44721 0.37399 0.0
H417 H 0.98007 0.66825 0.376 0.0
H418 H 0.03123 0.6494 0.37496 0.0
H419 H 0.0723 0.56942 0.37411 0.0
H420 H 0.05786 0.34859 0.37211 0.0
H421 H 1.00714 0.36841 0.3725 0.0
C422 C 0.98082 0.49145 0.37417 0.0
C423 C 0.96956 0.55902 0.37513 0.0
C424 C 1.01009 0.48029 0.37359 0.0
C425 C 0.98814 0.6156 0.37527 0.0
C426 C 0.01741 0.60487 0.3747 0.0
C427 C 0.05805 0.5257 0.3737 0.0
C428 C 0.06899 0.45764 0.37313 0.0
C429 C 0.02865 0.53735 0.37395 0.0
C430 C 0.05015 0.40158 0.37259 0.0
C431 C 0.02106 0.41276 0.37282 0.0
H432 H 0.06595 0.45107 0.12988 0.0
H433 H 0.05025 0.67123 0.13643 0.0
H434 H 0.99954 0.65094 0.13713 0.0
H435 H 0.95963 0.57157 0.13512 0.0
H436 H 0.97473 0.35127 0.1287 0.0
H437 H 0.02569 0.37093 0.12878 0.0
C438 C 0.05145 0.49462 0.13153 0.0
C439 C 0.06197 0.5626 0.13303 0.0
C440 C 0.02219 0.48266 0.13191 0.0
C441 C 0.04282 0.61836 0.13522 0.0
C442 C 1.01376 0.60686 0.1356 0.0
C443 C 0.97402 0.5277 0.13376 0.0
C444 C 0.96332 0.46004 0.13182 0.0
C445 C 1.00322 0.53933 0.13382 0.0
C446 C 0.98235 0.40392 0.1302 0.0
C447 C 1.01151 0.41512 0.13022 0.0
H448 H 0.974 0.57526 0.6351 0.0
H449 H 0.94553 0.36359 0.63063 0.0
H450 H 0.99432 0.32229 0.63037 0.0
H451 H 0.04552 0.34606 0.63042 0.0
H452 H 0.07349 0.5583 0.6349 0.0
H453 H 0.02482 0.59881 0.63621 0.0
C454 C 0.97843 0.52009 0.63414 0.0
C455 C 0.95599 0.47286 0.63283 0.0
C456 C 1.00663 0.49642 0.63397 0.0
C457 C 0.96228 0.40142 0.63164 0.0
C458 C 0.99025 0.37757 0.63148 0.0
C459 C 0.04096 0.4011 0.63181 0.0
C460 C 0.06332 0.44877 0.63247 0.0
C461 C 1.01267 0.42456 0.6325 0.0
C462 C 0.05687 0.52006 0.63427 0.0
C463 C 0.02894 0.54356 0.63502 0.0
H464 H 0.07128 0.4449 0.86871 0.0
H465 H 0.05129 0.66231 0.87774 0.0
H466 H 1.00085 0.63561 0.87741 0.0
H467 H 0.96259 0.55005 0.87564 0.0
H468 H 0.98319 0.33274 0.86705 0.0
H469 H 0.03336 0.3602 0.8661 0.0
C470 C 0.05596 0.48667 0.87053 0.0
C471 C 0.06511 0.55556 0.87331 0.0
C472 C 0.02711 0.47095 0.87046 0.0
C473 C 0.04486 0.60884 0.87559 0.0
C474 C 0.01602 0.59359 0.87543 0.0
C475 C 0.97803 0.50866 0.87346 0.0
C476 C 0.96908 0.43936 0.87147 0.0
C477 C 1.00692 0.52476 0.87304 0.0
C478 C 0.98942 0.38648 0.86866 0.0
C479 C 0.01815 0.40212 0.86812 0.0
H480 H 0.2497 0.39631 0.37816 0.0
H481 H 0.19912 0.21081 0.37946 0.0
H482 H 0.24157 0.13951 0.38101 0.0
H483 H 0.29273 0.12877 0.38122 0.0
H484 H 0.34433 0.31219 0.37954 0.0
H485 H 0.3018 0.38514 0.37906 0.0
C486 C 0.24799 0.34032 0.37883 0.0
C487 C 0.22119 0.30916 0.37862 0.0
C488 C 0.27265 0.29911 0.37967 0.0
C489 C 0.2194 0.23643 0.37953 0.0
C490 C 0.2437 0.19541 0.38043 0.0
C491 C 0.2948 0.18472 0.38084 0.0
C492 C 0.32172 0.21486 0.38038 0.0
C493 C 0.27038 0.22612 0.38041 0.0
C494 C 0.32387 0.28753 0.37991 0.0
C495 C 0.29954 0.3293 0.37959 0.0
H496 H 0.70978 0.71889 0.38266 0.0
H497 H 0.74677 0.91938 0.39708 0.0
H498 H 0.79371 0.86809 0.39691 0.0
H499 H 0.82466 0.76798 0.391 0.0
H500 H 0.78875 0.56648 0.37685 0.0
H501 H 0.74119 0.61647 0.37862 0.0
C502 C 0.7281 0.75111 0.38602 0.0
C503 C 0.72467 0.82291 0.3897 0.0
C504 C 0.75533 0.72131 0.38576 0.0
C505 C 0.74869 0.864 0.394 0.0
C506 C 0.77565 0.8348 0.39389 0.0
C507 C 0.80646 0.7349 0.38831 0.0
C508 C 0.81028 0.66379 0.38363 0.0
C509 C 0.77925 0.76379 0.38944 0.0
C510 C 0.78641 0.62156 0.38044 0.0
C511 C 0.75919 0.65007 0.38144 0.0
H512 H 0.24225 0.60335 0.12191 0.0
H513 H 0.19738 0.79862 0.12708 0.0
H514 H 0.24189 0.86088 0.12584 0.0
H515 H 0.2934 0.86045 0.12417 0.0
H516 H 0.33892 0.66615 0.11959 0.0
H517 H 0.29428 0.60315 0.11958 0.0
C518 C 0.2422 0.65952 0.1227 0.0
C519 C 0.21643 0.6961 0.12464 0.0
C520 C 0.26798 0.69528 0.12207 0.0
C521 C 0.21683 0.76895 0.12564 0.0
C522 C 0.2423 0.80474 0.12492 0.0
C523 C 0.29365 0.80431 0.12304 0.0
C524 C 0.31953 0.76818 0.12189 0.0
C525 C 0.26798 0.76847 0.12325 0.0
C526 C 0.31933 0.69537 0.12049 0.0
C527 C 0.2938 0.65927 0.12053 0.0
H528 H 0.70444 0.29804 0.12614 0.0
H529 H 0.7422 0.09377 0.12232 0.0
H530 H 0.78909 0.14409 0.12236 0.0
H531 H 0.81967 0.24531 0.12447 0.0
H532 H 0.78261 0.45013 0.12841 0.0
H533 H 0.73536 0.40032 0.12732 0.0
C534 C 0.72292 0.26462 0.12517 0.0
C535 C 0.71969 0.19224 0.12431 0.0
C536 C 0.75005 0.29388 0.12533 0.0
C537 C 0.74394 0.14969 0.1231 0.0
C538 C 0.77086 0.17835 0.12313 0.0
C539 C 0.80129 0.27916 0.12507 0.0
C540 C 0.80474 0.35129 0.1266 0.0
C541 C 0.77419 0.25028 0.12444 0.0
C542 C 0.78062 0.39432 0.12726 0.0
C543 C 0.75355 0.36591 0.12664 0.0
H544 H 0.7058 0.71935 0.62223 0.0
H545 H 0.75018 0.91375 0.62624 0.0
H546 H 0.79528 0.85219 0.62704 0.0
H547 H 0.82246 0.74299 0.62735 0.0
H548 H 0.77808 0.54856 0.62364 0.0
H549 H 0.73302 0.61017 0.62198 0.0
C550 C 0.72533 0.74829 0.62317 0.0
C551 C 0.72444 0.82119 0.62419 0.0
C552 C 0.75137 0.7125 0.62376 0.0
C553 C 0.75007 0.85765 0.62547 0.0
C554 C 0.77598 0.82247 0.62595 0.0
C555 C 0.80296 0.71406 0.62612 0.0
C556 C 0.80383 0.64113 0.62566 0.0
C557 C 0.77692 0.74987 0.62523 0.0
C558 C 0.77821 0.60468 0.62407 0.0
C559 C 0.75232 0.63989 0.62311 0.0
H560 H 0.20598 0.19919 0.62145 0.0
H561 H 0.24092 0.40475 0.61603 0.0
H562 H 0.28848 0.35641 0.61477 0.0
H563 H 0.32073 0.25584 0.61638 0.0
H564 H 0.28572 0.05034 0.62189 0.0
H565 H 0.23814 0.09853 0.62185 0.0
C566 C 0.22397 0.23337 0.61986 0.0
C567 C 0.21969 0.3055 0.61892 0.0
C568 C 0.25152 0.20528 0.61922 0.0
C569 C 0.2434 0.34893 0.61687 0.0
C570 C 0.27075 0.3214 0.61615 0.0
C571 C 0.3027 0.22162 0.61746 0.0
C572 C 0.307 0.14959 0.61921 0.0
C573 C 0.27513 0.24965 0.6175 0.0
C574 C 0.28325 0.10609 0.62059 0.0
C575 C 0.25588 0.13354 0.62058 0.0
H576 H 0.73762 0.13496 0.88165 0.0
H577 H 0.69382 0.33209 0.88263 0.0
H578 H 0.73901 0.39246 0.88278 0.0
H579 H 0.79081 0.38914 0.8819 0.0
H580 H 0.8344 0.19172 0.88042 0.0
H581 H 0.78925 0.13159 0.88124 0.0
C582 C 0.73788 0.19116 0.88197 0.0
C583 C 0.71233 0.22892 0.88211 0.0
C584 C 0.76387 0.22547 0.88193 0.0
C585 C 0.71314 0.30171 0.88249 0.0
C586 C 0.73898 0.33629 0.88257 0.0
C587 C 0.79048 0.33294 0.88184 0.0
C588 C 0.816 0.29503 0.88108 0.0
C589 C 0.76445 0.29866 0.88219 0.0
C590 C 0.81512 0.22223 0.88097 0.0
C591 C 0.7893 0.18777 0.88143 0.0
H592 H 0.20869 0.77862 0.88716 0.0
H593 H 0.24396 0.57179 0.88351 0.0
H594 H 0.29154 0.61856 0.88551 0.0
H595 H 0.32338 0.71845 0.88659 0.0
H596 H 0.28793 0.92518 0.88971 0.0
H597 H 0.24043 0.87807 0.88976 0.0
C598 C 0.22677 0.74376 0.88692 0.0
C599 C 0.2227 0.67193 0.88505 0.0
C600 C 0.25417 0.77092 0.88795 0.0
C601 C 0.24641 0.62746 0.88483 0.0
C602 C 0.2737 0.65408 0.88598 0.0
C603 C 0.30527 0.75311 0.88748 0.0
C604 C 0.30928 0.82514 0.88801 0.0
C605 C 0.27786 0.72577 0.88729 0.0
C606 C 0.28553 0.86941 0.88913 0.0
C607 C 0.25828 0.8426 0.88916 0.0
H608 H 0.36265 0.90543 0.29753 0.0
H609 H 0.36262 0.12891 0.29536 0.0
H610 H 0.36161 0.1269 0.24772 0.0
H611 H 0.36431 0.06179 0.20649 0.0
H612 H 0.36727 0.8383 0.20869 0.0
H613 H 0.36345 0.8402 0.25617 0.0
C614 C 0.36199 0.95356 0.28659 0.0
C615 C 0.36278 0.01711 0.29994 0.0
C616 C 0.3622 0.95211 0.2591 0.0
C617 C 0.36221 0.0792 0.28552 0.0
C618 C 0.36165 0.07817 0.25826 0.0
C619 C 0.3638 0.01357 0.21736 0.0
C620 C 0.36622 0.95013 0.20405 0.0
C621 C 0.36221 0.01496 0.2448 0.0
C622 C 0.36569 0.888 0.21845 0.0
C623 C 0.36346 0.88894 0.24565 0.0
H624 H 0.67398 0.92719 0.21297 0.0
H625 H 0.65852 0.14784 0.2096 0.0
H626 H 0.66316 0.15611 0.25681 0.0
H627 H 0.66857 0.09988 0.29966 0.0
H628 H 0.68187 0.87874 0.30325 0.0
H629 H 0.68157 0.87179 0.25568 0.0
C630 C 0.67181 0.97707 0.22256 0.0
C631 C 0.66566 0.03649 0.20771 0.0
C632 C 0.67419 0.98159 0.2499 0.0
C633 C 0.66296 0.10089 0.2205 0.0
C634 C 0.6657 0.10589 0.24757 0.0
C635 C 0.67192 0.05051 0.28997 0.0
C636 C 0.67519 0.99004 0.3049 0.0
C637 C 0.67093 0.04649 0.26254 0.0
C638 C 0.67916 0.9261 0.29212 0.0
C639 C 0.67892 0.92197 0.26492 0.0
H640 H 0.6594 0.93538 0.79971 0.0
H641 H 0.66952 0.15745 0.801 0.0
H642 H 0.67451 0.15929 0.7537 0.0
H643 H 0.67337 0.09928 0.7116 0.0
H644 H 0.66089 0.87804 0.70959 0.0
H645 H 0.65956 0.87447 0.75723 0.0
C646 C 0.66301 0.9839 0.7896 0.0
C647 C 0.66394 0.0461 0.80382 0.0
C648 C 0.66526 0.98494 0.76217 0.0
C649 C 0.66843 0.10881 0.79047 0.0
C650 C 0.67133 0.11002 0.76339 0.0
C651 C 0.67061 0.05022 0.72158 0.0
C652 C 0.66714 0.98921 0.70703 0.0
C653 C 0.66934 0.04861 0.74899 0.0
C654 C 0.66343 0.92602 0.7203 0.0
C655 C 0.66269 0.92382 0.74759 0.0
H656 H 0.36643 0.07766 0.79417 0.0
H657 H 0.36642 0.85503 0.80227 0.0
H658 H 0.36451 0.84158 0.75501 0.0
H659 H 0.36521 0.89263 0.71094 0.0
H660 H 0.36701 0.11523 0.7029 0.0
H661 H 0.36572 0.12874 0.75014 0.0
C662 C 0.36575 0.02631 0.78558 0.0
C663 C 0.36671 0.96764 0.80178 0.0
C664 C 0.36511 0.01868 0.75822 0.0
C665 C 0.36595 0.9013 0.79028 0.0
C666 C 0.36482 0.89339 0.7632 0.0
C667 C 0.36508 0.94401 0.71955 0.0
C668 C 0.36637 0.00261 0.70335 0.0
C669 C 0.36477 0.95166 0.74691 0.0
C670 C 0.36629 0.06897 0.71487 0.0
C671 C 0.36551 0.07693 0.74195 0.0
H672 H 0.86863 0.41592 0.21317 0.0
H673 H 0.86599 0.63863 0.205 0.0
H674 H 0.86659 0.65135 0.25252 0.0
H675 H 0.86975 0.59936 0.29614 0.0
H676 H 0.87165 0.37666 0.30436 0.0
H677 H 0.86933 0.36382 0.25687 0.0
C678 C 0.8681 0.46732 0.22175 0.0
C679 C 0.8675 0.52631 0.20555 0.0
C680 C 0.86838 0.47421 0.24903 0.0
C681 C 0.86649 0.59242 0.21701 0.0
C682 C 0.8669 0.59972 0.24418 0.0
C683 C 0.8696 0.54793 0.28757 0.0
C684 C 0.87112 0.489 0.30376 0.0
C685 C 0.86817 0.54099 0.26033 0.0
C686 C 0.87054 0.42281 0.29235 0.0
C687 C 0.86928 0.41547 0.2652 0.0
H688 H 0.1647 0.40323 0.28935 0.0
H689 H 0.171 0.62377 0.30225 0.0
H690 H 0.17097 0.64385 0.25521 0.0
H691 H 0.16703 0.59961 0.21061 0.0
H692 H 0.16207 0.37929 0.19708 0.0
H693 H 0.16396 0.35819 0.24424 0.0
C694 C 0.16617 0.45565 0.28185 0.0
C695 C 0.16761 0.51197 0.29929 0.0
C696 C 0.16637 0.46685 0.25472 0.0
C697 C 0.16986 0.57951 0.28928 0.0
C698 C 0.16977 0.59108 0.26238 0.0
C699 C 0.16647 0.54689 0.21796 0.0
C700 C 0.16413 0.49111 0.20042 0.0
C701 C 0.1677 0.53526 0.24496 0.0
C702 C 0.16386 0.4231 0.21021 0.0
C703 C 0.16483 0.41106 0.23715 0.0
H704 H 0.17107 0.41514 0.79371 0.0
H705 H 0.15805 0.63674 0.79613 0.0
H706 H 0.15985 0.64219 0.74864 0.0
H707 H 0.162 0.58306 0.70599 0.0
H708 H 0.1733 0.36102 0.70385 0.0
H709 H 0.17563 0.35703 0.75134 0.0
C710 C 0.16886 0.46465 0.78386 0.0
C711 C 0.16421 0.52516 0.79851 0.0
C712 C 0.16957 0.4675 0.75645 0.0
C713 C 0.16141 0.58903 0.78537 0.0
C714 C 0.16247 0.59237 0.75816 0.0
C715 C 0.16539 0.53409 0.71596 0.0
C716 C 0.16729 0.47253 0.70145 0.0
C717 C 0.16612 0.53182 0.74343 0.0
C718 C 0.1715 0.40922 0.71461 0.0
C719 C 0.17282 0.40676 0.7418 0.0
H720 H 0.85873 0.55867 0.71258 0.0
H721 H 0.85329 0.3362 0.7055 0.0
H722 H 0.85492 0.32493 0.75308 0.0
H723 H 0.86099 0.37785 0.79629 0.0
H724 H 0.86549 0.60036 0.80353 0.0
H725 H 0.86096 0.61218 0.75607 0.0
C726 C 0.85772 0.50768 0.72144 0.0
C727 C 0.85621 0.44823 0.70554 0.0
C728 C 0.85863 0.50169 0.74874 0.0
C729 C 0.85448 0.38269 0.71731 0.0
C730 C 0.85554 0.37624 0.74449 0.0
C731 C 0.86087 0.42901 0.7875 0.0
C732 C 0.86394 0.48818 0.80332 0.0
C733 C 0.85812 0.4353 0.76033 0.0
C734 C 0.86323 0.5541 0.79173 0.0
C735 C 0.86073 0.56081 0.76463 0.0
loop_
_geom_bond_atom_site_label_1
_geom_bond_atom_site_label_2
_geom_bond_distance
_geom_bond_site_symmetry_2
_ccdc_geom_bond_type
C0 O2 1.247 . S
C0 O4 1.258 . S
C1 O8 1.247 . S
C1 O9 1.258 . S
O2 C0 1.247 . S
O2 Zn3 2.028 . S
Zn3 O2 2.028 . S
Zn3 O7 2.035 . S
Zn3 O9 2.035 . S
Zn3 O10 2.028 . S
O4 C0 1.258 . S
O4 Zn5 2.035 . S
Zn5 O4 2.035 . S
Zn5 O6 2.028 . S
Zn5 O8 2.028 . S
Zn5 O11 2.035 . S
O6 Zn5 2.028 . S
O6 C12 1.247 . S
O7 Zn3 2.035 . S
O7 C12 1.258 . S
O8 C1 1.247 . S
O8 Zn5 2.028 . S
O9 C1 1.258 . S
O9 Zn3 2.035 . S
O10 Zn3 2.028 . S
O10 C13 1.247 . S
O11 Zn5 2.035 . S
O11 C13 1.258 . S
C12 O6 1.247 . S
C12 O7 1.258 . S
C13 O10 1.247 . S
C13 O11 1.258 . S
C14 O16 1.247 . S
C14 O18 1.258 . S
C15 O22 1.247 . S
C15 O23 1.258 . S
O16 C14 1.247 . S
O16 Zn17 2.028 . S
Zn17 O16 2.028 . S
Zn17 O21 2.035 . S
Zn17 O23 2.035 . S
Zn17 O24 2.028 . S
O18 C14 1.258 . S
O18 Zn19 2.035 . S
Zn19 O18 2.035 . S
Zn19 O20 2.028 . S
Zn19 O22 2.028 . S
Zn19 O25 2.035 . S
O20 Zn19 2.028 . S
O20 C26 1.247 . S
O21 Zn17 2.035 . S
O21 C26 1.258 . S
O22 C15 1.247 . S
O22 Zn19 2.028 . S
O23 C15 1.258 . S
O23 Zn17 2.035 . S
O24 Zn17 2.028 . S
O24 C27 1.247 . S
O25 Zn19 2.035 . S
O25 C27 1.258 . S
C26 O20 1.247 . S
C26 O21 1.258 . S
C27 O24 1.247 . S
C27 O25 1.258 . S
C28 O30 1.247 . S
C28 O32 1.258 . S
C29 O36 1.247 . S
C29 O37 1.258 . S
O30 C28 1.247 . S
O30 Zn31 2.028 . S
Zn31 O30 2.028 . S
Zn31 O35 2.035 . S
Zn31 O37 2.035 . S
Zn31 O38 2.028 . S
O32 C28 1.258 . S
O32 Zn33 2.035 . S
Zn33 O32 2.035 . S
Zn33 O34 2.028 . S
Zn33 O36 2.028 . S
Zn33 O39 2.035 . S
O34 Zn33 2.028 . S
O34 C40 1.247 . S
O35 Zn31 2.035 . S
O35 C40 1.258 . S
O36 C29 1.247 . S
O36 Zn33 2.028 . S
O37 C29 1.258 . S
O37 Zn31 2.035 . S
O38 Zn31 2.028 . S
O38 C41 1.247 . S
O39 Zn33 2.035 . S
O39 C41 1.258 . S
C40 O34 1.247 . S
C40 O35 1.258 . S
C41 O38 1.247 . S
C41 O39 1.258 . S
C42 O44 1.247 . S
C42 O46 1.258 . S
C43 O50 1.247 . S
C43 O51 1.258 . S
O44 C42 1.247 . S
O44 Zn45 2.028 . S
Zn45 O44 2.028 . S
Zn45 O49 2.035 . S
Zn45 O51 2.035 . S
Zn45 O52 2.028 . S
O46 C42 1.258 . S
O46 Zn47 2.035 . S
Zn47 O46 2.035 . S
Zn47 O48 2.028 . S
Zn47 O50 2.028 . S
Zn47 O53 2.035 . S
O48 Zn47 2.028 . S
O48 C54 1.247 . S
O49 Zn45 2.035 . S
O49 C54 1.258 . S
O50 C43 1.247 . S
O50 Zn47 2.028 . S
O51 C43 1.258 . S
O51 Zn45 2.035 . S
O52 Zn45 2.028 . S
O52 C55 1.247 . S
O53 Zn47 2.035 . S
O53 C55 1.258 . S
C54 O48 1.247 . S
C54 O49 1.258 . S
C55 O52 1.247 . S
C55 O53 1.258 . S
C56 O58 1.247 . S
C56 O60 1.258 . S
C57 O64 1.247 . S
C57 O65 1.258 . S
O58 C56 1.247 . S
O58 Zn59 2.028 . S
Zn59 O58 2.028 . S
Zn59 O63 2.035 . S
Zn59 O65 2.035 . S
Zn59 O66 2.028 . S
O60 C56 1.258 . S
O60 Zn61 2.035 . S
Zn61 O60 2.035 . S
Zn61 O62 2.028 . S
Zn61 O64 2.028 . S
Zn61 O67 2.035 . S
O62 Zn61 2.028 . S
O62 C68 1.247 . S
O63 Zn59 2.035 . S
O63 C68 1.258 . S
O64 C57 1.247 . S
O64 Zn61 2.028 . S
O65 C57 1.258 . S
O65 Zn59 2.035 . S
O66 Zn59 2.028 . S
O66 C69 1.247 . S
O67 Zn61 2.035 . S
O67 C69 1.258 . S
C68 O62 1.247 . S
C68 O63 1.258 . S
C69 O66 1.247 . S
C69 O67 1.258 . S
C70 O72 1.247 . S
C70 O74 1.258 . S
C71 O78 1.247 . S
C71 O79 1.258 . S
O72 C70 1.247 . S
O72 Zn73 2.028 . S
Zn73 O72 2.028 . S
Zn73 O77 2.035 . S
Zn73 O79 2.035 . S
Zn73 O80 2.028 . S
O74 C70 1.258 . S
O74 Zn75 2.035 . S
Zn75 O74 2.035 . S
Zn75 O76 2.028 . S
Zn75 O78 2.028 . S
Zn75 O81 2.035 . S
O76 Zn75 2.028 . S
O76 C82 1.247 . S
O77 Zn73 2.035 . S
O77 C82 1.258 . S
O78 C71 1.247 . S
O78 Zn75 2.028 . S
O79 C71 1.258 . S
O79 Zn73 2.035 . S
O80 Zn73 2.028 . S
O80 C83 1.247 . S
O81 Zn75 2.035 . S
O81 C83 1.258 . S
C82 O76 1.247 . S
C82 O77 1.258 . S
C83 O80 1.247 . S
C83 O81 1.258 . S
C84 O86 1.247 . S
C84 O88 1.258 . S
C85 O92 1.247 . S
C85 O93 1.258 . S
O86 C84 1.247 . S
O86 Zn87 2.028 . S
Zn87 O86 2.028 . S
Zn87 O91 2.035 . S
Zn87 O93 2.035 . S
Zn87 O94 2.028 . S
O88 C84 1.258 . S
O88 Zn89 2.035 . S
Zn89 O88 2.035 . S
Zn89 O90 2.028 . S
Zn89 O92 2.028 . S
Zn89 O95 2.035 . S
O90 Zn89 2.028 . S
O90 C96 1.247 . S
O91 Zn87 2.035 . S
O91 C96 1.258 . S
O92 C85 1.247 . S
O92 Zn89 2.028 . S
O93 C85 1.258 . S
O93 Zn87 2.035 . S
O94 Zn87 2.028 . S
O94 C97 1.247 . S
O95 Zn89 2.035 . S
O95 C97 1.258 . S
C96 O90 1.247 . S
C96 O91 1.258 . S
C97 O94 1.247 . S
C97 O95 1.258 . S
C98 O100 1.247 . S
C98 O102 1.258 . S
C99 O106 1.247 . S
C99 O107 1.258 . S
O100 C98 1.247 . S
O100 Zn101 2.028 . S
Zn101 O100 2.028 . S
Zn101 O105 2.035 . S
Zn101 O107 2.035 . S
Zn101 O108 2.028 . S
O102 C98 1.258 . S
O102 Zn103 2.035 . S
Zn103 O102 2.035 . S
Zn103 O104 2.028 . S
Zn103 O106 2.028 . S
Zn103 O109 2.035 . S
O104 Zn103 2.028 . S
O104 C110 1.247 . S
O105 Zn101 2.035 . S
O105 C110 1.258 . S
O106 C99 1.247 . S
O106 Zn103 2.028 . S
O107 C99 1.258 . S
O107 Zn101 2.035 . S
O108 Zn101 2.028 . S
O108 C111 1.247 . S
O109 Zn103 2.035 . S
O109 C111 1.258 . S
C110 O104 1.247 . S
C110 O105 1.258 . S
C111 O108 1.247 . S
C111 O109 1.258 . S
C112 O114 1.247 . S
C112 O116 1.258 . S
C113 O120 1.247 . S
C113 O121 1.258 . S
O114 C112 1.247 . S
O114 Zn115 2.028 . S
Zn115 O114 2.028 . S
Zn115 O119 2.035 . S
Zn115 O121 2.035 . S
Zn115 O122 2.028 . S
O116 C112 1.258 . S
O116 Zn117 2.035 . S
Zn117 O116 2.035 . S
Zn117 O118 2.028 . S
Zn117 O120 2.028 . S
Zn117 O123 2.035 . S
O118 Zn117 2.028 . S
O118 C124 1.247 . S
O119 Zn115 2.035 . S
O119 C124 1.258 . S
O120 C113 1.247 . S
O120 Zn117 2.028 . S
O121 C113 1.258 . S
O121 Zn115 2.035 . S
O122 Zn115 2.028 . S
O122 C125 1.247 . S
O123 Zn117 2.035 . S
O123 C125 1.258 . S
C124 O118 1.247 . S
C124 O119 1.258 . S
C125 O122 1.247 . S
C125 O123 1.258 . S
C126 O128 1.247 . S
C126 O130 1.258 . S
C127 O134 1.247 . S
C127 O135 1.258 . S
O128 C126 1.247 . S
O128 Zn129 2.028 . S
Zn129 O128 2.028 . S
Zn129 O133 2.035 . S
Zn129 O135 2.035 . S
Zn129 O136 2.028 . S
O130 C126 1.258 . S
O130 Zn131 2.035 . S
Zn131 O130 2.035 . S
Zn131 O132 2.028 . S
Zn131 O134 2.028 . S
Zn131 O137 2.035 . S
O132 Zn131 2.028 . S
O132 C138 1.247 . S
O133 Zn129 2.035 . S
O133 C138 1.258 . S
O134 C127 1.247 . S
O134 Zn131 2.028 . S
O135 C127 1.258 . S
O135 Zn129 2.035 . S
O136 Zn129 2.028 . S
O136 C139 1.247 . S
O137 Zn131 2.035 . S
O137 C139 1.258 . S
C138 O132 1.247 . S
C138 O133 1.258 . S
C139 O136 1.247 . S
C139 O137 1.258 . S
C140 O142 1.247 . S
C140 O144 1.258 . S
C141 O148 1.247 . S
C141 O149 1.258 . S
O142 C140 1.247 . S
O142 Zn143 2.028 . S
Zn143 O142 2.028 . S
Zn143 O147 2.035 . S
Zn143 O149 2.035 . S
Zn143 O150 2.028 . S
O144 C140 1.258 . S
O144 Zn145 2.035 . S
Zn145 O144 2.035 . S
Zn145 O146 2.028 . S
Zn145 O148 2.028 . S
Zn145 O151 2.035 . S
O146 Zn145 2.028 . S
O146 C152 1.247 . S
O147 Zn143 2.035 . S
O147 C152 1.258 . S
O148 C141 1.247 . S
O148 Zn145 2.028 . S
O149 C141 1.258 . S
O149 Zn143 2.035 . S
O150 Zn143 2.028 . S
O150 C153 1.247 . S
O151 Zn145 2.035 . S
O151 C153 1.258 . S
C152 O146 1.247 . S
C152 O147 1.258 . S
C153 O150 1.247 . S
C153 O151 1.258 . S
C154 O156 1.247 . S
C154 O158 1.258 . S
C155 O162 1.247 . S
C155 O163 1.258 . S
O156 C154 1.247 . S
O156 Zn157 2.028 . S
Zn157 O156 2.028 . S
Zn157 O161 2.035 . S
Zn157 O163 2.035 . S
Zn157 O164 2.028 . S
O158 C154 1.258 . S
O158 Zn159 2.035 . S
Zn159 O158 2.035 . S
Zn159 O160 2.028 . S
Zn159 O162 2.028 . S
Zn159 O165 2.035 . S
O160 Zn159 2.028 . S
O160 C166 1.247 . S
O161 Zn157 2.035 . S
O161 C166 1.258 . S
O162 C155 1.247 . S
O162 Zn159 2.028 . S
O163 C155 1.258 . S
O163 Zn157 2.035 . S
O164 Zn157 2.028 . S
O164 C167 1.247 . S
O165 Zn159 2.035 . S
O165 C167 1.258 . S
C166 O160 1.247 . S
C166 O161 1.258 . S
C167 O164 1.247 . S
C167 O165 1.258 . S
C168 O170 1.247 . S
C168 O172 1.258 . S
C169 O176 1.247 . S
C169 O177 1.258 . S
O170 C168 1.247 . S
O170 Zn171 2.028 . S
Zn171 O170 2.028 . S
Zn171 O175 2.035 . S
Zn171 O177 2.035 . S
Zn171 O178 2.028 . S
O172 C168 1.258 . S
O172 Zn173 2.035 . S
Zn173 O172 2.035 . S
Zn173 O174 2.028 . S
Zn173 O176 2.028 . S
Zn173 O179 2.035 . S
O174 Zn173 2.028 . S
O174 C180 1.247 . S
O175 Zn171 2.035 . S
O175 C180 1.258 . S
O176 C169 1.247 . S
O176 Zn173 2.028 . S
O177 C169 1.258 . S
O177 Zn171 2.035 . S
O178 Zn171 2.028 . S
O178 C181 1.247 . S
O179 Zn173 2.035 . S
O179 C181 1.258 . S
C180 O174 1.247 . S
C180 O175 1.258 . S
C181 O178 1.247 . S
C181 O179 1.258 . S
C182 O184 1.247 . S
C182 O186 1.258 . S
C183 O190 1.247 . S
C183 O191 1.258 . S
O184 C182 1.247 . S
O184 Zn185 2.028 . S
Zn185 O184 2.028 . S
Zn185 O189 2.035 . S
Zn185 O191 2.035 . S
Zn185 O192 2.028 . S
O186 C182 1.258 . S
O186 Zn187 2.035 . S
Zn187 O186 2.035 . S
Zn187 O188 2.028 . S
Zn187 O190 2.028 . S
Zn187 O193 2.035 . S
O188 Zn187 2.028 . S
O188 C194 1.247 . S
O189 Zn185 2.035 . S
O189 C194 1.258 . S
O190 C183 1.247 . S
O190 Zn187 2.028 . S
O191 C183 1.258 . S
O191 Zn185 2.035 . S
O192 Zn185 2.028 . S
O192 C195 1.247 . S
O193 Zn187 2.035 . S
O193 C195 1.258 . S
C194 O188 1.247 . S
C194 O189 1.258 . S
C195 O192 1.247 . S
C195 O193 1.258 . S
C196 O198 1.247 . S
C196 O200 1.258 . S
C197 O204 1.247 . S
C197 O205 1.258 . S
O198 C196 1.247 . S
O198 Zn199 2.028 . S
Zn199 O198 2.028 . S
Zn199 O203 2.035 . S
Zn199 O205 2.035 . S
Zn199 O206 2.028 . S
O200 C196 1.258 . S
O200 Zn201 2.035 . S
Zn201 O200 2.035 . S
Zn201 O202 2.028 . S
Zn201 O204 2.028 . S
Zn201 O207 2.035 . S
O202 Zn201 2.028 . S
O202 C208 1.247 . S
O203 Zn199 2.035 . S
O203 C208 1.258 . S
O204 C197 1.247 . S
O204 Zn201 2.028 . S
O205 C197 1.258 . S
O205 Zn199 2.035 . S
O206 Zn199 2.028 . S
O206 C209 1.247 . S
O207 Zn201 2.035 . S
O207 C209 1.258 . S
C208 O202 1.247 . S
C208 O203 1.258 . S
C209 O206 1.247 . S
C209 O207 1.258 . S
C210 O212 1.247 . S
C210 O214 1.258 . S
C211 O218 1.247 . S
C211 O219 1.258 . S
O212 C210 1.247 . S
O212 Zn213 2.028 . S
Zn213 O212 2.028 . S
Zn213 O217 2.035 . S
Zn213 O219 2.035 . S
Zn213 O220 2.028 . S
O214 C210 1.258 . S
O214 Zn215 2.035 . S
Zn215 O214 2.035 . S
Zn215 O216 2.028 . S
Zn215 O218 2.028 . S
Zn215 O221 2.035 . S
O216 Zn215 2.028 . S
O216 C222 1.247 . S
O217 Zn213 2.035 . S
O217 C222 1.258 . S
O218 C211 1.247 . S
O218 Zn215 2.028 . S
O219 C211 1.258 . S
O219 Zn213 2.035 . S
O220 Zn213 2.028 . S
O220 C223 1.247 . S
O221 Zn215 2.035 . S
O221 C223 1.258 . S
C222 O216 1.247 . S
C222 O217 1.258 . S
C223 O220 1.247 . S
C223 O221 1.258 . S
H224 C230 0.930 . S
H225 C233 0.930 . S
H226 C234 0.930 . S
H227 C235 0.930 . S
H228 C238 0.930 . S
H229 C239 0.930 . S
C230 H224 0.930 . S
C230 C231 1.355 . S
C230 C232 1.415 . S
C231 C230 1.355 . S
C231 C233 1.419 . S
C232 C230 1.415 . S
C232 C237 1.425 . S
C232 C239 1.409 . S
C233 H225 0.930 . S
C233 C231 1.419 . S
C233 C234 1.362 . S
C234 H226 0.930 . S
C234 C233 1.362 . S
C234 C237 1.409 . S
C235 H227 0.930 . S
C235 C236 1.355 . S
C235 C237 1.415 . S
C236 C235 1.355 . S
C236 C238 1.419 . S
C237 C232 1.425 . S
C237 C234 1.409 . S
C237 C235 1.415 . S
C238 H228 0.930 . S
C238 C236 1.419 . S
C238 C239 1.362 . S
C239 H229 0.930 . S
C239 C232 1.409 . S
C239 C238 1.362 . S
H240 C246 0.930 . S
H241 C249 0.930 . S
H242 C250 0.930 . S
H243 C251 0.930 . S
H244 C254 0.930 . S
H245 C255 0.930 . S
C246 H240 0.930 . S
C246 C247 1.355 . S
C246 C248 1.415 . S
C247 C246 1.355 . S
C247 C249 1.419 . S
C248 C246 1.415 . S
C248 C253 1.425 . S
C248 C255 1.409 . S
C249 H241 0.930 . S
C249 C247 1.419 . S
C249 C250 1.362 . S
C250 H242 0.930 . S
C250 C249 1.362 . S
C250 C253 1.409 . S
C251 H243 0.930 . S
C251 C252 1.355 . S
C251 C253 1.415 . S
C252 C251 1.355 . S
C252 C254 1.419 . S
C253 C248 1.425 . S
C253 C250 1.409 . S
C253 C251 1.415 . S
C254 H244 0.930 . S
C254 C252 1.419 . S
C254 C255 1.362 . S
C255 H245 0.930 . S
C255 C248 1.409 . S
C255 C254 1.362 . S
H256 C262 0.930 . S
H257 C265 0.930 . S
H258 C266 0.930 . S
H259 C267 0.930 . S
H260 C270 0.930 . S
H261 C271 0.930 . S
C262 H256 0.930 . S
C262 C263 1.355 . S
C262 C264 1.415 . S
C263 C262 1.355 . S
C263 C265 1.419 . S
C264 C262 1.415 . S
C264 C269 1.425 1_554 S
C264 C271 1.409 1_554 S
C265 H257 0.930 . S
C265 C263 1.419 . S
C265 C266 1.362 . S
C266 H258 0.930 . S
C266 C265 1.362 . S
C266 C269 1.409 1_554 S
C267 H259 0.930 . S
C267 C268 1.355 . S
C267 C269 1.415 . S
C268 C267 1.355 . S
C268 C270 1.419 . S
C269 C264 1.425 1_556 S
C269 C266 1.409 1_556 S
C269 C267 1.415 . S
C270 H260 0.930 . S
C270 C268 1.419 . S
C270 C271 1.362 . S
C271 H261 0.930 . S
C271 C264 1.409 1_556 S
C271 C270 1.362 . S
H272 C278 0.930 . S
H273 C281 0.930 . S
H274 C282 0.930 . S
H275 C283 0.930 . S
H276 C286 0.930 . S
H277 C287 0.930 . S
C278 H272 0.930 . S
C278 C279 1.355 . S
C278 C280 1.415 . S
C279 C278 1.355 . S
C279 C281 1.419 . S
C280 C278 1.415 . S
C280 C285 1.425 1_556 S
C280 C287 1.409 1_556 S
C281 H273 0.930 . S
C281 C279 1.419 . S
C281 C282 1.362 . S
C282 H274 0.930 . S
C282 C281 1.362 . S
C282 C285 1.409 1_556 S
C283 H275 0.930 . S
C283 C284 1.355 . S
C283 C285 1.415 . S
C284 C283 1.355 . S
C284 C286 1.419 . S
C285 C280 1.425 1_554 S
C285 C282 1.409 1_554 S
C285 C283 1.415 . S
C286 H276 0.930 . S
C286 C284 1.419 . S
C286 C287 1.362 . S
C287 H277 0.930 . S
C287 C280 1.409 1_554 S
C287 C286 1.362 . S
H288 C294 0.930 . S
H289 C297 0.930 . S
H290 C298 0.930 . S
H291 C299 0.930 . S
H292 C302 0.930 . S
H293 C303 0.930 . S
C294 H288 0.930 . S
C294 C295 1.355 . S
C294 C296 1.415 . S
C295 C294 1.355 . S
C295 C297 1.419 . S
C296 C294 1.415 . S
C296 C301 1.425 . S
C296 C303 1.409 . S
C297 H289 0.930 . S
C297 C295 1.419 . S
C297 C298 1.362 . S
C298 H290 0.930 . S
C298 C297 1.362 . S
C298 C301 1.409 . S
C299 H291 0.930 . S
C299 C300 1.355 . S
C299 C301 1.415 . S
C300 C299 1.355 . S
C300 C302 1.419 . S
C301 C296 1.425 . S
C301 C298 1.409 . S
C301 C299 1.415 . S
C302 H292 0.930 . S
C302 C300 1.419 . S
C302 C303 1.362 . S
C303 H293 0.930 . S
C303 C296 1.409 . S
C303 C302 1.362 . S
H304 C310 0.930 . S
H305 C313 0.930 . S
H306 C314 0.930 . S
H307 C315 0.930 . S
H308 C318 0.930 . S
H309 C319 0.930 . S
C310 H304 0.930 . S
C310 C311 1.355 . S
C310 C312 1.415 . S
C311 C310 1.355 . S
C311 C313 1.419 . S
C312 C310 1.415 . S
C312 C317 1.425 . S
C312 C319 1.409 . S
C313 H305 0.930 . S
C313 C311 1.419 . S
C313 C314 1.362 . S
C314 H306 0.930 . S
C314 C313 1.362 . S
C314 C317 1.409 . S
C315 H307 0.930 . S
C315 C316 1.355 . S
C315 C317 1.415 . S
C316 C315 1.355 . S
C316 C318 1.419 . S
C317 C312 1.425 . S
C317 C314 1.409 . S
C317 C315 1.415 . S
C318 H308 0.930 . S
C318 C316 1.419 . S
C318 C319 1.362 . S
C319 H309 0.930 . S
C319 C312 1.409 . S
C319 C318 1.362 . S
H320 C326 0.930 . S
H321 C329 0.930 . S
H322 C330 0.930 . S
H323 C331 0.930 . S
H324 C334 0.930 . S
H325 C335 0.930 . S
C326 H320 0.930 . S
C326 C327 1.355 . S
C326 C328 1.415 . S
C327 C326 1.355 . S
C327 C329 1.419 . S
C328 C326 1.415 . S
C328 C333 1.425 1_556 S
C328 C335 1.409 1_556 S
C329 H321 0.930 . S
C329 C327 1.419 . S
C329 C330 1.362 . S
C330 H322 0.930 . S
C330 C329 1.362 . S
C330 C333 1.409 1_556 S
C331 H323 0.930 . S
C331 C332 1.355 . S
C331 C333 1.415 . S
C332 C331 1.355 . S
C332 C334 1.419 . S
C333 C328 1.425 1_554 S
C333 C330 1.409 1_554 S
C333 C331 1.415 . S
C334 H324 0.930 . S
C334 C332 1.419 . S
C334 C335 1.362 . S
C335 H325 0.930 . S
C335 C328 1.409 1_554 S
C335 C334 1.362 . S
H336 C342 0.930 . S
H337 C345 0.930 . S
H338 C346 0.930 . S
H339 C347 0.930 . S
H340 C350 0.930 . S
H341 C351 0.930 . S
C342 H336 0.930 . S
C342 C343 1.355 . S
C342 C344 1.415 . S
C343 C342 1.355 . S
C343 C345 1.419 . S
C344 C342 1.415 . S
C344 C349 1.425 1_554 S
C344 C351 1.409 1_554 S
C345 H337 0.930 . S
C345 C343 1.419 . S
C345 C346 1.362 . S
C346 H338 0.930 . S
C346 C345 1.362 . S
C346 C349 1.409 1_554 S
C347 H339 0.930 . S
C347 C348 1.355 . S
C347 C349 1.415 . S
C348 C347 1.355 . S
C348 C350 1.419 . S
C349 C344 1.425 1_556 S
C349 C346 1.409 1_556 S
C349 C347 1.415 . S
C350 H340 0.930 . S
C350 C348 1.419 . S
C350 C351 1.362 . S
C351 H341 0.930 . S
C351 C344 1.409 1_556 S
C351 C350 1.362 . S
H352 C358 0.930 . S
H353 C361 0.930 . S
H354 C362 0.930 . S
H355 C363 0.930 . S
H356 C366 0.930 . S
H357 C367 0.930 . S
C358 H352 0.930 . S
C358 C359 1.355 . S
C358 C360 1.415 . S
C359 C358 1.355 . S
C359 C361 1.419 1_565 S
C360 C358 1.415 . S
C360 C365 1.425 1_565 S
C360 C367 1.409 . S
C361 H353 0.930 . S
C361 C359 1.419 1_545 S
C361 C362 1.362 . S
C362 H354 0.930 . S
C362 C361 1.362 . S
C362 C365 1.409 . S
C363 H355 0.930 . S
C363 C364 1.355 . S
C363 C365 1.415 . S
C364 C363 1.355 . S
C364 C366 1.419 1_545 S
C365 C360 1.425 1_545 S
C365 C362 1.409 . S
C365 C363 1.415 . S
C366 H356 0.930 . S
C366 C364 1.419 1_565 S
C366 C367 1.362 . S
C367 H357 0.930 . S
C367 C360 1.409 . S
C367 C366 1.362 . S
H368 C374 0.930 . S
H369 C377 0.930 . S
H370 C378 0.930 . S
H371 C379 0.930 . S
H372 C382 0.930 . S
H373 C383 0.930 . S
C374 H368 0.930 . S
C374 C375 1.355 1_545 S
C374 C376 1.415 . S
C375 C374 1.355 1_565 S
C375 C377 1.419 . S
C376 C374 1.415 . S
C376 C381 1.425 1_545 S
C376 C383 1.409 . S
C377 H369 0.930 . S
C377 C375 1.419 . S
C377 C378 1.362 . S
C378 H370 0.930 . S
C378 C377 1.362 . S
C378 C381 1.409 . S
C379 H371 0.930 . S
C379 C380 1.355 1_565 S
C379 C381 1.415 . S
C380 C379 1.355 1_545 S
C380 C382 1.419 . S
C381 C376 1.425 1_565 S
C381 C378 1.409 . S
C381 C379 1.415 . S
C382 H372 0.930 . S
C382 C380 1.419 . S
C382 C383 1.362 . S
C383 H373 0.930 . S
C383 C376 1.409 . S
C383 C382 1.362 . S
H384 C390 0.930 . S
H385 C393 0.930 . S
H386 C394 0.930 . S
H387 C395 0.930 . S
H388 C398 0.930 . S
H389 C399 0.930 . S
C390 H384 0.930 . S
C390 C391 1.355 . S
C390 C392 1.415 . S
C391 C390 1.355 . S
C391 C393 1.419 1_565 S
C392 C390 1.415 . S
C392 C397 1.425 1_565 S
C392 C399 1.409 . S
C393 H385 0.930 . S
C393 C391 1.419 1_545 S
C393 C394 1.362 . S
C394 H386 0.930 . S
C394 C393 1.362 . S
C394 C397 1.409 . S
C395 H387 0.930 . S
C395 C396 1.355 . S
C395 C397 1.415 . S
C396 C395 1.355 . S
C396 C398 1.419 1_545 S
C397 C392 1.425 1_545 S
C397 C394 1.409 . S
C397 C395 1.415 . S
C398 H388 0.930 . S
C398 C396 1.419 1_565 S
C398 C399 1.362 . S
C399 H389 0.930 . S
C399 C392 1.409 . S
C399 C398 1.362 . S
H400 C406 0.930 . S
H401 C409 0.930 . S
H402 C410 0.930 . S
H403 C411 0.930 . S
H404 C414 0.930 . S
H405 C415 0.930 . S
C406 H400 0.930 . S
C406 C407 1.355 1_565 S
C406 C408 1.415 . S
C407 C406 1.355 1_545 S
C407 C409 1.419 . S
C408 C406 1.415 . S
C408 C413 1.425 1_565 S
C408 C415 1.409 . S
C409 H401 0.930 . S
C409 C407 1.419 . S
C409 C410 1.362 . S
C410 H402 0.930 . S
C410 C409 1.362 . S
C410 C413 1.409 . S
C411 H403 0.930 . S
C411 C412 1.355 1_545 S
C411 C413 1.415 . S
C412 C411 1.355 1_565 S
C412 C414 1.419 . S
C413 C408 1.425 1_545 S
C413 C410 1.409 . S
C413 C411 1.415 . S
C414 H404 0.930 . S
C414 C412 1.419 . S
C414 C415 1.362 . S
C415 H405 0.930 . S
C415 C408 1.409 . S
C415 C414 1.362 . S
H416 C422 0.930 . S
H417 C425 0.930 . S
H418 C426 0.930 1_455 S
H419 C427 0.930 . S
H420 C430 0.930 . S
H421 C431 0.930 1_655 S
C422 H416 0.930 . S
C422 C423 1.355 . S
C422 C424 1.415 . S
C423 C422 1.355 . S
C423 C425 1.419 . S
C424 C422 1.415 . S
C424 C429 1.425 1_655 S
C424 C431 1.409 1_655 S
C425 H417 0.930 . S
C425 C423 1.419 . S
C425 C426 1.362 . S
C426 H418 0.930 1_655 S
C426 C425 1.362 . S
C426 C429 1.409 1_655 S
C427 H419 0.930 . S
C427 C428 1.355 . S
C427 C429 1.415 . S
C428 C427 1.355 . S
C428 C430 1.419 . S
C429 C424 1.425 1_455 S
C429 C426 1.409 1_455 S
C429 C427 1.415 . S
C430 H420 0.930 . S
C430 C428 1.419 . S
C430 C431 1.362 . S
C431 H421 0.930 1_455 S
C431 C424 1.409 1_455 S
C431 C430 1.362 . S
H432 C438 0.930 . S
H433 C441 0.930 . S
H434 C442 0.930 1_655 S
H435 C443 0.930 . S
H436 C446 0.930 . S
H437 C447 0.930 1_455 S
C438 H432 0.930 . S
C438 C439 1.355 . S
C438 C440 1.415 . S
C439 C438 1.355 . S
C439 C441 1.419 . S
C440 C438 1.415 . S
C440 C445 1.425 1_455 S
C440 C447 1.409 1_455 S
C441 H433 0.930 . S
C441 C439 1.419 . S
C441 C442 1.362 . S
C442 H434 0.930 1_455 S
C442 C441 1.362 . S
C442 C445 1.409 1_455 S
C443 H435 0.930 . S
C443 C444 1.355 . S
C443 C445 1.415 . S
C444 C443 1.355 . S
C444 C446 1.419 . S
C445 C440 1.425 1_655 S
C445 C442 1.409 1_655 S
C445 C443 1.415 . S
C446 H436 0.930 . S
C446 C444 1.419 . S
C446 C447 1.362 . S
C447 H437 0.930 1_655 S
C447 C440 1.409 1_655 S
C447 C446 1.362 . S
H448 C454 0.930 . S
H449 C457 0.930 . S
H450 C458 0.930 . S
H451 C459 0.930 . S
H452 C462 0.930 . S
H453 C463 0.930 . S
C454 H448 0.930 . S
C454 C455 1.355 . S
C454 C456 1.415 . S
C455 C454 1.355 . S
C455 C457 1.419 . S
C456 C454 1.415 . S
C456 C461 1.425 1_655 S
C456 C463 1.409 1_655 S
C457 H449 0.930 . S
C457 C455 1.419 . S
C457 C458 1.362 . S
C458 H450 0.930 . S
C458 C457 1.362 . S
C458 C461 1.409 1_655 S
C459 H451 0.930 . S
C459 C460 1.355 . S
C459 C461 1.415 . S
C460 C459 1.355 . S
C460 C462 1.419 . S
C461 C456 1.425 1_455 S
C461 C458 1.409 1_455 S
C461 C459 1.415 . S
C462 H452 0.930 . S
C462 C460 1.419 . S
C462 C463 1.362 . S
C463 H453 0.930 . S
C463 C456 1.409 1_455 S
C463 C462 1.362 . S
H464 C470 0.930 . S
H465 C473 0.930 . S
H466 C474 0.930 1_655 S
H467 C475 0.930 . S
H468 C478 0.930 . S
H469 C479 0.930 1_455 S
C470 H464 0.930 . S
C470 C471 1.355 . S
C470 C472 1.415 . S
C471 C470 1.355 . S
C471 C473 1.419 . S
C472 C470 1.415 . S
C472 C477 1.425 1_455 S
C472 C479 1.409 1_455 S
C473 H465 0.930 . S
C473 C471 1.419 . S
C473 C474 1.362 . S
C474 H466 0.930 1_455 S
C474 C473 1.362 . S
C474 C477 1.409 1_455 S
C475 H467 0.930 . S
C475 C476 1.355 . S
C475 C477 1.415 . S
C476 C475 1.355 . S
C476 C478 1.419 . S
C477 C472 1.425 1_655 S
C477 C474 1.409 1_655 S
C477 C475 1.415 . S
C478 H468 0.930 . S
C478 C476 1.419 . S
C478 C479 1.362 . S
C479 H469 0.930 1_655 S
C479 C472 1.409 1_655 S
C479 C478 1.362 . S
H480 C486 0.930 . S
H481 C489 0.930 . S
H482 C490 0.930 . S
H483 C491 0.930 . S
H484 C494 0.930 . S
H485 C495 0.930 . S
C486 H480 0.930 . S
C486 C487 1.355 . S
C486 C488 1.415 . S
C487 C486 1.355 . S
C487 C489 1.419 . S
C488 C486 1.415 . S
C488 C493 1.425 . S
C488 C495 1.409 . S
C489 H481 0.930 . S
C489 C487 1.419 . S
C489 C490 1.362 . S
C490 H482 0.930 . S
C490 C489 1.362 . S
C490 C493 1.409 . S
C491 H483 0.930 . S
C491 C492 1.355 . S
C491 C493 1.415 . S
C492 C491 1.355 . S
C492 C494 1.419 . S
C493 C488 1.425 . S
C493 C490 1.409 . S
C493 C491 1.415 . S
C494 H484 0.930 . S
C494 C492 1.419 . S
C494 C495 1.362 . S
C495 H485 0.930 . S
C495 C488 1.409 . S
C495 C494 1.362 . S
H496 C502 0.930 . S
H497 C505 0.930 . S
H498 C506 0.930 . S
H499 C507 0.930 . S
H500 C510 0.930 . S
H501 C511 0.930 . S
C502 H496 0.930 . S
C502 C503 1.355 . S
C502 C504 1.415 . S
C503 C502 1.355 . S
C503 C505 1.419 . S
C504 C502 1.415 . S
C504 C509 1.425 . S
C504 C511 1.409 . S
C505 H497 0.930 . S
C505 C503 1.419 . S
C505 C506 1.362 . S
C506 H498 0.930 . S
C506 C505 1.362 . S
C506 C509 1.409 . S
C507 H499 0.930 . S
C507 C508 1.355 . S
C507 C509 1.415 . S
C508 C507 1.355 . S
C508 C510 1.419 . S
C509 C504 1.425 . S
C509 C506 1.409 . S
C509 C507 1.415 . S
C510 H500 0.930 . S
C510 C508 1.419 . S
C510 C511 1.362 . S
C511 H501 0.930 . S
C511 C504 1.409 . S
C511 C510 1.362 . S
H512 C518 0.930 . S
H513 C521 0.930 . S
H514 C522 0.930 . S
H515 C523 0.930 . S
H516 C526 0.930 . S
H517 C527 0.930 . S
C518 H512 0.930 . S
C518 C519 1.355 . S
C518 C520 1.415 . S
C519 C518 1.355 . S
C519 C521 1.419 . S
C520 C518 1.415 . S
C520 C525 1.425 . S
C520 C527 1.409 . S
C521 H513 0.930 . S
C521 C519 1.419 . S
C521 C522 1.362 . S
C522 H514 0.930 . S
C522 C521 1.362 . S
C522 C525 1.409 . S
C523 H515 0.930 . S
C523 C524 1.355 . S
C523 C525 1.415 . S
C524 C523 1.355 . S
C524 C526 1.419 . S
C525 C520 1.425 . S
C525 C522 1.409 . S
C525 C523 1.415 . S
C526 H516 0.930 . S
C526 C524 1.419 . S
C526 C527 1.362 . S
C527 H517 0.930 . S
C527 C520 1.409 . S
C527 C526 1.362 . S
H528 C534 0.930 . S
H529 C537 0.930 . S
H530 C538 0.930 . S
H531 C539 0.930 . S
H532 C542 0.930 . S
H533 C543 0.930 . S
C534 H528 0.930 . S
C534 C535 1.355 . S
C534 C536 1.415 . S
C535 C534 1.355 . S
C535 C537 1.419 . S
C536 C534 1.415 . S
C536 C541 1.425 . S
C536 C543 1.409 . S
C537 H529 0.930 . S
C537 C535 1.419 . S
C537 C538 1.362 . S
C538 H530 0.930 . S
C538 C537 1.362 . S
C538 C541 1.409 . S
C539 H531 0.930 . S
C539 C540 1.355 . S
C539 C541 1.415 . S
C540 C539 1.355 . S
C540 C542 1.419 . S
C541 C536 1.425 . S
C541 C538 1.409 . S
C541 C539 1.415 . S
C542 H532 0.930 . S
C542 C540 1.419 . S
C542 C543 1.362 . S
C543 H533 0.930 . S
C543 C536 1.409 . S
C543 C542 1.362 . S
H544 C550 0.930 . S
H545 C553 0.930 . S
H546 C554 0.930 . S
H547 C555 0.930 . S
H548 C558 0.930 . S
H549 C559 0.930 . S
C550 H544 0.930 . S
C550 C551 1.355 . S
C550 C552 1.415 . S
C551 C550 1.355 . S
C551 C553 1.419 . S
C552 C550 1.415 . S
C552 C557 1.425 . S
C552 C559 1.409 . S
C553 H545 0.930 . S
C553 C551 1.419 . S
C553 C554 1.362 . S
C554 H546 0.930 . S
C554 C553 1.362 . S
C554 C557 1.409 . S
C555 H547 0.930 . S
C555 C556 1.355 . S
C555 C557 1.415 . S
C556 C555 1.355 . S
C556 C558 1.419 . S
C557 C552 1.425 . S
C557 C554 1.409 . S
C557 C555 1.415 . S
C558 H548 0.930 . S
C558 C556 1.419 . S
C558 C559 1.362 . S
C559 H549 0.930 . S
C559 C552 1.409 . S
C559 C558 1.362 . S
H560 C566 0.930 . S
H561 C569 0.930 . S
H562 C570 0.930 . S
H563 C571 0.930 . S
H564 C574 0.930 . S
H565 C575 0.930 . S
C566 H560 0.930 . S
C566 C567 1.355 . S
C566 C568 1.415 . S
C567 C566 1.355 . S
C567 C569 1.419 . S
C568 C566 1.415 . S
C568 C573 1.425 . S
C568 C575 1.409 . S
C569 H561 0.930 . S
C569 C567 1.419 . S
C569 C570 1.362 . S
C570 H562 0.930 . S
C570 C569 1.362 . S
C570 C573 1.409 . S
C571 H563 0.930 . S
C571 C572 1.355 . S
C571 C573 1.415 . S
C572 C571 1.355 . S
C572 C574 1.419 . S
C573 C568 1.425 . S
C573 C570 1.409 . S
C573 C571 1.415 . S
C574 H564 0.930 . S
C574 C572 1.419 . S
C574 C575 1.362 . S
C575 H565 0.930 . S
C575 C568 1.409 . S
C575 C574 1.362 . S
H576 C582 0.930 . S
H577 C585 0.930 . S
H578 C586 0.930 . S
H579 C587 0.930 . S
H580 C590 0.930 . S
H581 C591 0.930 . S
C582 H576 0.930 . S
C582 C583 1.355 . S
C582 C584 1.415 . S
C583 C582 1.355 . S
C583 C585 1.419 . S
C584 C582 1.415 . S
C584 C589 1.425 . S
C584 C591 1.409 . S
C585 H577 0.930 . S
C585 C583 1.419 . S
C585 C586 1.362 . S
C586 H578 0.930 . S
C586 C585 1.362 . S
C586 C589 1.409 . S
C587 H579 0.930 . S
C587 C588 1.355 . S
C587 C589 1.415 . S
C588 C587 1.355 . S
C588 C590 1.419 . S
C589 C584 1.425 . S
C589 C586 1.409 . S
C589 C587 1.415 . S
C590 H580 0.930 . S
C590 C588 1.419 . S
C590 C591 1.362 . S
C591 H581 0.930 . S
C591 C584 1.409 . S
C591 C590 1.362 . S
H592 C598 0.930 . S
H593 C601 0.930 . S
H594 C602 0.930 . S
H595 C603 0.930 . S
H596 C606 0.930 . S
H597 C607 0.930 . S
C598 H592 0.930 . S
C598 C599 1.355 . S
C598 C600 1.415 . S
C599 C598 1.355 . S
C599 C601 1.419 . S
C600 C598 1.415 . S
C600 C605 1.425 . S
C600 C607 1.409 . S
C601 H593 0.930 . S
C601 C599 1.419 . S
C601 C602 1.362 . S
C602 H594 0.930 . S
C602 C601 1.362 . S
C602 C605 1.409 . S
C603 H595 0.930 . S
C603 C604 1.355 . S
C603 C605 1.415 . S
C604 C603 1.355 . S
C604 C606 1.419 . S
C605 C600 1.425 . S
C605 C602 1.409 . S
C605 C603 1.415 . S
C606 H596 0.930 . S
C606 C604 1.419 . S
C606 C607 1.362 . S
C607 H597 0.930 . S
C607 C600 1.409 . S
C607 C606 1.362 . S
H608 C614 0.930 1_565 S
H609 C617 0.930 . S
H610 C618 0.930 . S
H611 C619 0.930 1_545 S
H612 C622 0.930 . S
H613 C623 0.930 . S
C614 H608 0.930 1_545 S
C614 C615 1.355 . S
C614 C616 1.415 1_545 S
C615 C614 1.355 . S
C615 C617 1.419 . S
C616 C614 1.415 1_565 S
C616 C621 1.425 1_565 S
C616 C623 1.409 . S
C617 H609 0.930 . S
C617 C615 1.419 . S
C617 C618 1.362 . S
C618 H610 0.930 . S
C618 C617 1.362 . S
C618 C621 1.409 . S
C619 H611 0.930 1_565 S
C619 C620 1.355 . S
C619 C621 1.415 1_565 S
C620 C619 1.355 . S
C620 C622 1.419 . S
C621 C616 1.425 1_545 S
C621 C618 1.409 . S
C621 C619 1.415 1_545 S
C622 H612 0.930 . S
C622 C620 1.419 . S
C622 C623 1.362 . S
C623 H613 0.930 . S
C623 C616 1.409 . S
C623 C622 1.362 . S
H624 C630 0.937 . S
H625 C633 0.930 . S
H626 C634 0.930 . S
H627 C635 0.937 . S
H628 C638 0.930 . S
H629 C639 0.930 . S
C630 H624 0.937 . S
C630 C631 1.344 1_565 S
C630 C632 1.418 . S
C631 C630 1.344 1_545 S
C631 C633 1.419 . S
C632 C630 1.418 . S
C632 C637 1.425 1_565 S
C632 C639 1.409 . S
C633 H625 0.930 . S
C633 C631 1.419 . S
C633 C634 1.362 . S
C634 H626 0.930 . S
C634 C633 1.362 . S
C634 C637 1.409 . S
C635 H627 0.937 . S
C635 C636 1.344 1_545 S
C635 C637 1.418 . S
C636 C635 1.344 1_565 S
C636 C638 1.419 . S
C637 C632 1.425 1_545 S
C637 C634 1.409 . S
C637 C635 1.418 . S
C638 H628 0.930 . S
C638 C636 1.419 . S
C638 C639 1.362 . S
C639 H629 0.930 . S
C639 C632 1.409 . S
C639 C638 1.362 . S
H640 C646 0.934 . S
H641 C649 0.930 . S
H642 C650 0.930 . S
H643 C651 0.934 . S
H644 C654 0.930 . S
H645 C655 0.930 . S
C646 H640 0.934 . S
C646 C647 1.349 1_565 S
C646 C648 1.417 . S
C647 C646 1.349 1_545 S
C647 C649 1.419 . S
C648 C646 1.417 . S
C648 C653 1.425 1_565 S
C648 C655 1.409 . S
C649 H641 0.930 . S
C649 C647 1.419 . S
C649 C650 1.362 . S
C650 H642 0.930 . S
C650 C649 1.362 . S
C650 C653 1.409 . S
C651 H643 0.934 . S
C651 C652 1.348 1_545 S
C651 C653 1.417 . S
C652 C651 1.348 1_565 S
C652 C654 1.419 . S
C653 C648 1.425 1_545 S
C653 C650 1.409 . S
C653 C651 1.417 . S
C654 H644 0.930 . S
C654 C652 1.419 . S
C654 C655 1.362 . S
C655 H645 0.930 . S
C655 C648 1.409 . S
C655 C654 1.362 . S
H656 C662 0.929 . S
H657 C665 0.930 . S
H658 C666 0.930 . S
H659 C667 0.930 . S
H660 C670 0.930 . S
H661 C671 0.930 . S
C662 H656 0.929 . S
C662 C663 1.355 1_545 S
C662 C664 1.415 . S
C663 C662 1.355 1_565 S
C663 C665 1.419 . S
C664 C662 1.415 . S
C664 C669 1.425 1_545 S
C664 C671 1.409 . S
C665 H657 0.930 . S
C665 C663 1.419 . S
C665 C666 1.362 . S
C666 H658 0.930 . S
C666 C665 1.362 . S
C666 C669 1.409 . S
C667 H659 0.930 . S
C667 C668 1.354 1_565 S
C667 C669 1.415 . S
C668 C667 1.354 1_545 S
C668 C670 1.419 . S
C669 C664 1.425 1_565 S
C669 C666 1.409 . S
C669 C667 1.415 . S
C670 H660 0.930 . S
C670 C668 1.419 . S
C670 C671 1.362 . S
C671 H661 0.930 . S
C671 C664 1.409 . S
C671 C670 1.362 . S
H672 C678 0.930 . S
H673 C681 0.930 . S
H674 C682 0.930 . S
H675 C683 0.930 . S
H676 C686 0.930 . S
H677 C687 0.930 . S
C678 H672 0.930 . S
C678 C679 1.355 . S
C678 C680 1.415 . S
C679 C678 1.355 . S
C679 C681 1.419 . S
C680 C678 1.415 . S
C680 C685 1.425 . S
C680 C687 1.409 . S
C681 H673 0.930 . S
C681 C679 1.419 . S
C681 C682 1.362 . S
C682 H674 0.930 . S
C682 C681 1.362 . S
C682 C685 1.409 . S
C683 H675 0.930 . S
C683 C684 1.355 . S
C683 C685 1.415 . S
C684 C683 1.355 . S
C684 C686 1.419 . S
C685 C680 1.425 . S
C685 C682 1.409 . S
C685 C683 1.415 . S
C686 H676 0.930 . S
C686 C684 1.419 . S
C686 C687 1.362 . S
C687 H677 0.930 . S
C687 C680 1.409 . S
C687 C686 1.362 . S
H688 C694 0.930 . S
H689 C697 0.930 . S
H690 C698 0.930 . S
H691 C699 0.930 . S
H692 C702 0.930 . S
H693 C703 0.930 . S
C694 H688 0.930 . S
C694 C695 1.355 . S
C694 C696 1.415 . S
C695 C694 1.355 . S
C695 C697 1.419 . S
C696 C694 1.415 . S
C696 C701 1.425 . S
C696 C703 1.409 . S
C697 H689 0.930 . S
C697 C695 1.419 . S
C697 C698 1.362 . S
C698 H690 0.930 . S
C698 C697 1.362 . S
C698 C701 1.409 . S
C699 H691 0.930 . S
C699 C700 1.355 . S
C699 C701 1.415 . S
C700 C699 1.355 . S
C700 C702 1.419 . S
C701 C696 1.425 . S
C701 C698 1.409 . S
C701 C699 1.415 . S
C702 H692 0.930 . S
C702 C700 1.419 . S
C702 C703 1.362 . S
C703 H693 0.930 . S
C703 C696 1.409 . S
C703 C702 1.362 . S
H704 C710 0.930 . S
H705 C713 0.930 . S
H706 C714 0.930 . S
H707 C715 0.930 . S
H708 C718 0.930 . S
H709 C719 0.930 . S
C710 H704 0.930 . S
C710 C711 1.355 . S
C710 C712 1.415 . S
C711 C710 1.355 . S
C711 C713 1.419 . S
C712 C710 1.415 . S
C712 C717 1.425 . S
C712 C719 1.409 . S
C713 H705 0.930 . S
C713 C711 1.419 . S
C713 C714 1.362 . S
C714 H706 0.930 . S
C714 C713 1.362 . S
C714 C717 1.409 . S
C715 H707 0.930 . S
C715 C716 1.355 . S
C715 C717 1.415 . S
C716 C715 1.355 . S
C716 C718 1.419 . S
C717 C712 1.425 . S
C717 C714 1.409 . S
C717 C715 1.415 . S
C718 H708 0.930 . S
C718 C716 1.419 . S
C718 C719 1.362 . S
C719 H709 0.930 . S
C719 C712 1.409 . S
C719 C718 1.362 . S
H720 C726 0.930 . S
H721 C729 0.930 . S
H722 C730 0.930 . S
H723 C731 0.930 . S
H724 C734 0.930 . S
H725 C735 0.930 . S
C726 H720 0.930 . S
C726 C727 1.355 . S
C726 C728 1.415 . S
C727 C726 1.355 . S
C727 C729 1.419 . S
C728 C726 1.415 . S
C728 C733 1.425 . S
C728 C735 1.409 . S
C729 H721 0.930 . S
C729 C727 1.419 . S
C729 C730 1.362 . S
C730 H722 0.930 . S
C730 C729 1.362 . S
C730 C733 1.409 . S
C731 H723 0.930 . S
C731 C732 1.355 . S
C731 C733 1.415 . S
C732 C731 1.355 . S
C732 C734 1.419 . S
C733 C728 1.425 . S
C733 C730 1.409 . S
C733 C731 1.415 . S
C734 H724 0.930 . S
C734 C732 1.419 . S
C734 C735 1.362 . S
C735 H725 0.930 . S
C735 C728 1.409 . S
C735 C734 1.362 . S
C231 C0 1.606 . S
C236 C70 1.589 . S
C247 C56 1.605 . S
C252 C27 1.590 . S
C263 C28 1.597 . S
C268 C98 1.598 . S
C279 C84 1.613 . S
C284 C43 1.582 . S
C295 C195 1.583 . S
C300 C112 1.613 . S
C311 C168 1.583 . S
C316 C126 1.612 . S
C327 C210 1.596 . S
C332 C140 1.601 . S
C343 C166 1.612 . S
C348 C196 1.583 . S
C359 C15 1.502 . S
C364 C12 1.505 . S
C375 C40 1.488 . S
C380 C55 1.502 . S
C391 C68 1.500 . S
C396 C82 1.507 . S
C407 C96 1.500 . S
C412 C110 1.487 . S
C423 C124 1.490 . S
C428 C138 1.496 . S
C439 C154 1.490 . S
C444 C152 1.496 . S
C455 C183 1.507 . S
C460 C180 1.498 . S
C471 C208 1.504 . S
C476 C222 1.488 . S
C487 C139 1.500 . S
C492 C13 1.490 . S
C503 C14 1.504 . S
C508 C125 1.497 . S
C519 C155 1.488 . S
C524 C41 1.504 . S
C535 C54 1.505 . S
C540 C153 1.495 . S
C551 C69 1.499 . S
C556 C182 1.502 . S
C567 C181 1.490 . S
C572 C83 1.507 . S
C583 C97 1.492 . S
C588 C223 1.499 . S
C599 C209 1.501 . S
C604 C111 1.500 . S
C615 C1 1.638 . S
C620 C29 1.624 . S
C631 C42 1.643 . S
C636 C26 1.639 . S
C647 C85 1.640 . S
C652 C57 1.643 . S
C663 C99 1.634 . S
C668 C71 1.642 . S
C679 C141 1.623 . S
C684 C113 1.609 . S
C695 C127 1.612 . S
C700 C167 1.604 . S
C711 C197 1.642 . S
C716 C169 1.632 . S
C727 C194 1.609 . S
C732 C211 1.624 . S
