# Generated by pormake.
# Topology svo, (7)-cn, num edge types: 1
# Building blocks:
#     Node 0, Type 0, BuildingBlock: NUHQUE_clean_sbu_2, # of connection points: 7
#     Node 1, Type 0, BuildingBlock: NUHQUE_clean_sbu_2, # of connection points: 7
#     Node 2, Type 0, BuildingBlock: NUHQUE_clean_sbu_2, # of connection points: 7
#     Node 3, Type 0, BuildingBlock: NUHQUE_clean_sbu_2, # of connection points: 7
#     Node 4, Type 0, BuildingBlock: NUHQUE_clean_sbu_2, # of connection points: 7
#     Node 5, Type 0, BuildingBlock: NUHQUE_clean_sbu_2, # of connection points: 7
#     Node 6, Type 0, BuildingBlock: NUHQUE_clean_sbu_2, # of connection points: 7
#     Node 7, Type 0, BuildingBlock: NUHQUE_clean_sbu_2, # of connection points: 7
#     Node 8, Type 0, BuildingBlock: NUHQUE_clean_sbu_2, # of connection points: 7
#     Node 9, Type 0, BuildingBlock: NUHQUE_clean_sbu_2, # of connection points: 7
#     Node 10, Type 0, BuildingBlock: NUHQUE_clean_sbu_2, # of connection points: 7
#     Node 11, Type 0, BuildingBlock: NUHQUE_clean_sbu_2, # of connection points: 7
#     Node 12, Type 0, BuildingBlock: NUHQUE_clean_sbu_2, # of connection points: 7
#     Node 13, Type 0, BuildingBlock: NUHQUE_clean_sbu_2, # of connection points: 7
#     Node 14, Type 0, BuildingBlock: NUHQUE_clean_sbu_2, # of connection points: 7
#     Node 15, Type 0, BuildingBlock: NUHQUE_clean_sbu_2, # of connection points: 7
#     Edge 16, Type (0, 0), None
#     Edge 17, Type (0, 0), None
#     Edge 18, Type (0, 0), None
#     Edge 19, Type (0, 0), None
#     Edge 20, Type (0, 0), None
#     Edge 21, Type (0, 0), None
#     Edge 22, Type (0, 0), None
#     Edge 23, Type (0, 0), None
#     Edge 24, Type (0, 0), None
#     Edge 25, Type (0, 0), None
#     Edge 26, Type (0, 0), None
#     Edge 27, Type (0, 0), None
#     Edge 28, Type (0, 0), None
#     Edge 29, Type (0, 0), None
#     Edge 30, Type (0, 0), None
#     Edge 31, Type (0, 0), None
#     Edge 32, Type (0, 0), None
#     Edge 33, Type (0, 0), None
#     Edge 34, Type (0, 0), None
#     Edge 35, Type (0, 0), None
#     Edge 36, Type (0, 0), None
#     Edge 37, Type (0, 0), None
#     Edge 38, Type (0, 0), None
#     Edge 39, Type (0, 0), None
#     Edge 40, Type (0, 0), None
#     Edge 41, Type (0, 0), None
#     Edge 42, Type (0, 0), None
#     Edge 43, Type (0, 0), None
#     Edge 44, Type (0, 0), None
#     Edge 45, Type (0, 0), None
#     Edge 46, Type (0, 0), None
#     Edge 47, Type (0, 0), None
#     Edge 48, Type (0, 0), None
#     Edge 49, Type (0, 0), None
#     Edge 50, Type (0, 0), None
#     Edge 51, Type (0, 0), None
#     Edge 52, Type (0, 0), None
#     Edge 53, Type (0, 0), None
#     Edge 54, Type (0, 0), None
#     Edge 55, Type (0, 0), None
#     Edge 56, Type (0, 0), None
#     Edge 57, Type (0, 0), None
#     Edge 58, Type (0, 0), None
#     Edge 59, Type (0, 0), None
#     Edge 60, Type (0, 0), None
#     Edge 61, Type (0, 0), None
#     Edge 62, Type (0, 0), None
#     Edge 63, Type (0, 0), None
#     Edge 64, Type (0, 0), None
#     Edge 65, Type (0, 0), None
#     Edge 66, Type (0, 0), None
#     Edge 67, Type (0, 0), None
#     Edge 68, Type (0, 0), None
#     Edge 69, Type (0, 0), None
#     Edge 70, Type (0, 0), None
#     Edge 71, Type (0, 0), None
# Relax obj value: 0.152
# Max RMSD: 0.272
# Mean RMSD: 0.272
data_MOF--net-svo--node1-NUHQUE_clean_sbu_2--edge1-none
_symmetry_space_group_name_H-M    P1
_symmetry_Int_Tables_number       1
_symmetry_cell_setting            triclinic
loop_
_symmetry_equiv_pos_as_xyz
'x, y, z'
_cell_length_a     22.316695
_cell_length_b     22.316931
_cell_length_c     24.215436
_cell_angle_alpha  89.999867
_cell_angle_beta   90.000165
_cell_angle_gamma 89.999991
loop_
_atom_site_label
_atom_site_type_symbol
_atom_site_fract_x
_atom_site_fract_y
_atom_site_fract_z
_atom_type_partial_charge
O0 O 0.34837 0.1314 0.10559 0.0
Tb1 Tb 0.34157 0.22765 0.11488 0.0
Eu2 Eu 0.21267 0.3499 0.13981 0.0
C3 C 0.32947 0.09398 0.14361 0.0
O4 O 0.28793 0.11082 0.17867 0.0
C5 C 0.29036 0.28106 0.21813 0.0
O6 O 0.22208 0.44153 0.10387 0.0
C7 C 0.11763 0.3481 0.20012 0.0
C8 C 0.26304 0.47741 0.12437 0.0
O9 O 0.30018 0.45746 0.16215 0.0
C10 C 0.23965 0.27015 0.03423 0.0
C11 C 0.05898 0.37585 0.18973 0.0
C12 C 0.0096 0.34002 0.17573 0.0
C13 C 0.95687 0.36643 0.15617 0.0
C14 C 0.95322 0.42927 0.15209 0.0
C15 C 0.00141 0.46575 0.16866 0.0
C16 C 0.05391 0.43852 0.18755 0.0
O17 O 0.30672 0.22914 0.19861 0.0
O18 O 0.29479 0.32719 0.18578 0.0
O19 O 0.43287 0.2145 0.08617 0.0
O20 O 0.41514 0.28459 0.14346 0.0
C21 C 0.45642 0.25731 0.11503 0.0
O22 O 0.1968 0.29376 0.06421 0.0
O23 O 0.29632 0.276 0.04837 0.0
O24 O 0.16227 0.38522 0.209 0.0
O25 O 0.13191 0.30384 0.16691 0.0
H26 H 0.01287 0.29162 0.17832 0.0
H27 H 0.91224 0.44985 0.13733 0.0
H28 H 0.09108 0.46648 0.20036 0.0
O29 O 0.86647 0.34843 0.10557 0.0
Tb30 Tb 0.77021 0.34165 0.11486 0.0
Eu31 Eu 0.64799 0.21262 0.13982 0.0
C32 C 0.90388 0.3295 0.14359 0.0
O33 O 0.88703 0.28797 0.17866 0.0
C34 C 0.71684 0.29037 0.2181 0.0
O35 O 0.55637 0.22204 0.10385 0.0
C36 C 0.6498 0.1176 0.20014 0.0
C37 C 0.52052 0.26303 0.12433 0.0
O38 O 0.54045 0.30014 0.16214 0.0
C39 C 0.72776 0.23964 0.03428 0.0
C40 C 0.62207 0.05894 0.18976 0.0
C41 C 0.6579 0.00957 0.17575 0.0
C42 C 0.6315 0.95683 0.15619 0.0
C43 C 0.56866 0.95318 0.15211 0.0
C44 C 0.53218 0.00136 0.16867 0.0
C45 C 0.5594 0.05387 0.18757 0.0
O46 O 0.76873 0.30684 0.1986 0.0
O47 O 0.67071 0.29477 0.18574 0.0
O48 O 0.78332 0.43293 0.08608 0.0
O49 O 0.71328 0.41522 0.14342 0.0
C50 C 0.74053 0.45649 0.11496 0.0
O51 O 0.70415 0.19677 0.06424 0.0
O52 O 0.72183 0.29631 0.04841 0.0
O53 O 0.61268 0.16223 0.20903 0.0
O54 O 0.69406 0.13187 0.16693 0.0
H55 H 0.7063 0.01284 0.17835 0.0
H56 H 0.54809 0.9122 0.13735 0.0
H57 H 0.53144 0.09103 0.20037 0.0
O58 O 0.6495 0.86644 0.1056 0.0
Tb59 Tb 0.65634 0.77018 0.11485 0.0
Eu60 Eu 0.78524 0.64804 0.13979 0.0
C61 C 0.66844 0.90385 0.14361 0.0
O62 O 0.70999 0.88702 0.17867 0.0
C63 C 0.70752 0.71679 0.21813 0.0
O64 O 0.7758 0.55644 0.10377 0.0
C65 C 0.88026 0.64978 0.20012 0.0
C66 C 0.73481 0.52059 0.12425 0.0
O67 O 0.6977 0.54052 0.16207 0.0
C68 C 0.75831 0.72778 0.03418 0.0
C69 C 0.93892 0.62206 0.18973 0.0
C70 C 0.9883 0.65791 0.17573 0.0
C71 C 0.04105 0.63152 0.15619 0.0
C72 C 0.04472 0.56868 0.15212 0.0
C73 C 0.99653 0.53219 0.16867 0.0
C74 C 0.94402 0.5594 0.18755 0.0
O75 O 0.69119 0.76871 0.19858 0.0
O76 O 0.70311 0.67065 0.18579 0.0
O77 O 0.56503 0.78335 0.08617 0.0
O78 O 0.58278 0.71318 0.14336 0.0
C79 C 0.54149 0.7405 0.11498 0.0
O80 O 0.80114 0.70423 0.06423 0.0
O81 O 0.70161 0.72197 0.04827 0.0
O82 O 0.83563 0.61264 0.20895 0.0
O83 O 0.86599 0.69408 0.16694 0.0
H84 H 0.98501 0.70631 0.17833 0.0
H85 H 0.0857 0.54812 0.13737 0.0
H86 H 0.90686 0.53143 0.20036 0.0
O87 O 0.13144 0.64957 0.10561 0.0
Tb88 Tb 0.2277 0.65637 0.11489 0.0
Eu89 Eu 0.3499 0.78516 0.13979 0.0
C90 C 0.09403 0.66847 0.14363 0.0
O91 O 0.11085 0.71 0.1787 0.0
C92 C 0.28111 0.70752 0.21817 0.0
O93 O 0.44152 0.77573 0.1038 0.0
C94 C 0.34813 0.88021 0.20009 0.0
C95 C 0.47739 0.73475 0.12427 0.0
O96 O 0.45747 0.69761 0.16208 0.0
C97 C 0.2702 0.75822 0.03414 0.0
C98 C 0.37585 0.93887 0.18971 0.0
C99 C 0.34001 0.98825 0.17571 0.0
C100 C 0.36641 0.041 0.15618 0.0
C101 C 0.42925 0.04467 0.15211 0.0
C102 C 0.46574 0.99648 0.16867 0.0
C103 C 0.43852 0.94397 0.18754 0.0
O104 O 0.22918 0.69129 0.1986 0.0
O105 O 0.32726 0.70308 0.18584 0.0
O106 O 0.21442 0.56505 0.08629 0.0
O107 O 0.28465 0.5828 0.14345 0.0
C108 C 0.25723 0.54151 0.11515 0.0
O109 O 0.29375 0.80105 0.06419 0.0
O110 O 0.27593 0.70153 0.04825 0.0
O111 O 0.38527 0.83558 0.20894 0.0
O112 O 0.30385 0.86593 0.16689 0.0
H113 H 0.29161 0.98496 0.1783 0.0
H114 H 0.44982 0.08565 0.13737 0.0
H115 H 0.46649 0.9068 0.20035 0.0
O116 O 0.3484 0.86645 0.38969 0.0
Tb117 Tb 0.34159 0.7702 0.38038 0.0
Eu118 Eu 0.21267 0.64801 0.35541 0.0
C119 C 0.3295 0.90388 0.35168 0.0
O120 O 0.28795 0.88705 0.31661 0.0
C121 C 0.29042 0.71681 0.27709 0.0
O122 O 0.22209 0.55639 0.39137 0.0
C123 C 0.11761 0.64978 0.29514 0.0
C124 C 0.26302 0.52051 0.37083 0.0
O125 O 0.30012 0.54046 0.33301 0.0
C126 C 0.23966 0.72772 0.46102 0.0
C127 C 0.05896 0.62205 0.30556 0.0
C128 C 0.00958 0.65789 0.31956 0.0
C129 C 0.95684 0.6315 0.33912 0.0
C130 C 0.95319 0.56866 0.34322 0.0
C131 C 0.00137 0.53217 0.32668 0.0
C132 C 0.05388 0.55938 0.30778 0.0
O133 O 0.30672 0.76873 0.29666 0.0
O134 O 0.29479 0.67065 0.30942 0.0
O135 O 0.4329 0.78332 0.40909 0.0
O136 O 0.41515 0.71325 0.35179 0.0
C137 C 0.45644 0.74051 0.38022 0.0
O138 O 0.1968 0.70414 0.43102 0.0
O139 O 0.29634 0.72187 0.44689 0.0
O140 O 0.16224 0.61265 0.28626 0.0
O141 O 0.13191 0.69407 0.32831 0.0
H142 H 0.01286 0.70629 0.31693 0.0
H143 H 0.91221 0.5481 0.35798 0.0
H144 H 0.09104 0.53142 0.29498 0.0
O145 O 0.13142 0.34833 0.38968 0.0
Tb146 Tb 0.22768 0.34155 0.38034 0.0
Eu147 Eu 0.34993 0.21273 0.35541 0.0
C148 C 0.09399 0.32945 0.35166 0.0
O149 O 0.11081 0.28792 0.31658 0.0
C150 C 0.28109 0.2904 0.27706 0.0
O151 O 0.44158 0.22214 0.39134 0.0
C152 C 0.34813 0.11765 0.29517 0.0
C153 C 0.47747 0.26307 0.37081 0.0
O154 O 0.45753 0.3002 0.333 0.0
C155 C 0.27025 0.23973 0.46106 0.0
C156 C 0.37586 0.059 0.30559 0.0
C157 C 0.34003 0.00962 0.31958 0.0
C158 C 0.36643 0.95688 0.33913 0.0
C159 C 0.42927 0.95323 0.34323 0.0
C160 C 0.46575 0.00141 0.32668 0.0
C161 C 0.43854 0.05392 0.30779 0.0
O162 O 0.22915 0.30661 0.29664 0.0
O163 O 0.32726 0.29482 0.30937 0.0
O164 O 0.21445 0.43287 0.40897 0.0
O165 O 0.28458 0.41512 0.35171 0.0
C166 C 0.25722 0.45641 0.38005 0.0
O167 O 0.29384 0.19688 0.43105 0.0
O168 O 0.27603 0.29641 0.4469 0.0
O169 O 0.38526 0.16227 0.28627 0.0
O170 O 0.30386 0.13195 0.32837 0.0
H171 H 0.29163 0.01289 0.31696 0.0
H172 H 0.44983 0.91224 0.35798 0.0
H173 H 0.4665 0.09109 0.29499 0.0
O174 O 0.6496 0.13145 0.38965 0.0
Tb175 Tb 0.65644 0.22771 0.38034 0.0
Eu176 Eu 0.78512 0.34987 0.35545 0.0
C177 C 0.66849 0.09401 0.35164 0.0
O178 O 0.71003 0.11082 0.31657 0.0
C179 C 0.70748 0.28113 0.27702 0.0
O180 O 0.77569 0.4415 0.39142 0.0
C181 C 0.8802 0.34814 0.2952 0.0
C182 C 0.73476 0.47739 0.37089 0.0
O183 O 0.69765 0.45746 0.33308 0.0
C184 C 0.75822 0.27022 0.46116 0.0
C185 C 0.93887 0.37586 0.30562 0.0
C186 C 0.98824 0.34001 0.3196 0.0
C187 C 0.041 0.3664 0.33913 0.0
C188 C 0.04467 0.42924 0.34322 0.0
C189 C 0.99648 0.46573 0.32668 0.0
C190 C 0.94396 0.43852 0.30781 0.0
O191 O 0.69141 0.22917 0.29666 0.0
O192 O 0.70306 0.32731 0.30932 0.0
O193 O 0.56509 0.21441 0.40888 0.0
O194 O 0.58288 0.28468 0.35177 0.0
C195 C 0.54157 0.25724 0.38003 0.0
O196 O 0.80103 0.29375 0.43106 0.0
O197 O 0.70152 0.27588 0.44705 0.0
O198 O 0.83558 0.38528 0.28635 0.0
O199 O 0.8659 0.30383 0.32835 0.0
H200 H 0.98496 0.29161 0.31699 0.0
H201 H 0.08566 0.44979 0.35796 0.0
H202 H 0.9068 0.46649 0.295 0.0
O203 O 0.86642 0.64953 0.38967 0.0
Tb204 Tb 0.77016 0.65635 0.38037 0.0
Eu205 Eu 0.64802 0.78516 0.35544 0.0
C206 C 0.90385 0.66845 0.35166 0.0
O207 O 0.88704 0.70998 0.31658 0.0
C208 C 0.71677 0.70747 0.27706 0.0
O209 O 0.55641 0.77572 0.39144 0.0
C210 C 0.64977 0.88023 0.29517 0.0
C211 C 0.52053 0.73477 0.37093 0.0
O212 O 0.54045 0.69767 0.33309 0.0
C213 C 0.72769 0.75822 0.46111 0.0
C214 C 0.62206 0.9389 0.30559 0.0
C215 C 0.65791 0.98827 0.31957 0.0
C216 C 0.63153 0.04103 0.33911 0.0
C217 C 0.56869 0.0447 0.3432 0.0
C218 C 0.53219 0.99652 0.32667 0.0
C219 C 0.55939 0.944 0.30779 0.0
O220 O 0.7687 0.69128 0.29667 0.0
O221 O 0.67059 0.70307 0.30936 0.0
O222 O 0.78341 0.56502 0.40897 0.0
O223 O 0.71319 0.58279 0.3518 0.0
C224 C 0.74059 0.54149 0.38011 0.0
O225 O 0.70417 0.80104 0.43103 0.0
O226 O 0.72195 0.70152 0.447 0.0
O227 O 0.61262 0.83562 0.28632 0.0
O228 O 0.69407 0.86593 0.32833 0.0
H229 H 0.70631 0.98498 0.31696 0.0
H230 H 0.54814 0.08569 0.35794 0.0
H231 H 0.53142 0.90684 0.29499 0.0
O232 O 0.62822 0.84161 0.8823 0.0
Tb233 Tb 0.72374 0.82464 0.88004 0.0
Eu234 Eu 0.86232 0.73612 0.87024 0.0
C235 C 0.58925 0.82577 0.84444 0.0
O236 O 0.60484 0.78909 0.80458 0.0
C237 C 0.79301 0.80184 0.777 0.0
O238 O 0.95952 0.73482 0.89524 0.0
C239 C 0.84927 0.63112 0.82416 0.0
C240 C 0.99832 0.77904 0.89216 0.0
O241 O 0.98137 0.83288 0.87695 0.0
C242 C 0.77164 0.74551 0.97718 0.0
C243 C 0.87619 0.57012 0.82849 0.0
C244 C 0.83864 0.51985 0.83247 0.0
C245 C 0.86337 0.46263 0.83906 0.0
C246 C 0.92582 0.45543 0.84149 0.0
C247 C 0.96526 0.50389 0.83387 0.0
C248 C 0.93908 0.56152 0.82701 0.0
O249 O 0.74011 0.79177 0.79818 0.0
O250 O 0.83955 0.80939 0.80945 0.0
O251 O 0.70721 0.91929 0.89204 0.0
O252 O 0.79772 0.88967 0.89037 0.0
C253 C 0.76257 0.93626 0.89465 0.0
O254 O 0.82744 0.74373 0.95861 0.0
O255 O 0.7255 0.76211 0.9474 0.0
O256 O 0.88433 0.67337 0.80497 0.0
O257 O 0.81489 0.6499 0.86483 0.0
H258 H 0.79038 0.52535 0.83169 0.0
H259 H 0.94292 0.411 0.84926 0.0
H260 H 0.96688 0.60028 0.81994 0.0
O261 O 0.15668 0.62808 0.88236 0.0
Tb262 Tb 0.17347 0.72364 0.87991 0.0
Eu263 Eu 0.26188 0.86224 0.87019 0.0
C264 C 0.17225 0.58918 0.84434 0.0
O265 O 0.20855 0.6049 0.80423 0.0
C266 C 0.1962 0.79299 0.77693 0.0
O267 O 0.26319 0.95944 0.89521 0.0
C268 C 0.36686 0.8492 0.82406 0.0
C269 C 0.21897 0.99824 0.89214 0.0
O270 O 0.16513 0.9813 0.87692 0.0
C271 C 0.25249 0.77155 0.97713 0.0
C272 C 0.42785 0.87613 0.82836 0.0
C273 C 0.47814 0.83859 0.83235 0.0
C274 C 0.53535 0.86334 0.83896 0.0
C275 C 0.54252 0.92579 0.84138 0.0
C276 C 0.49406 0.96521 0.83376 0.0
C277 C 0.43644 0.93902 0.82688 0.0
O278 O 0.20642 0.74011 0.79809 0.0
O279 O 0.18859 0.83948 0.80942 0.0
O280 O 0.07876 0.70701 0.89129 0.0
O281 O 0.10843 0.79754 0.8906 0.0
C282 C 0.0618 0.76236 0.89432 0.0
O283 O 0.25431 0.82735 0.95855 0.0
O284 O 0.23588 0.7254 0.94736 0.0
O285 O 0.32459 0.88426 0.80489 0.0
O286 O 0.3481 0.81482 0.86475 0.0
H287 H 0.47264 0.79032 0.83158 0.0
H288 H 0.58694 0.9429 0.84919 0.0
H289 H 0.39767 0.96682 0.81982 0.0
O290 O 0.36993 0.15662 0.88242 0.0
Tb291 Tb 0.27436 0.17341 0.87999 0.0
Eu292 Eu 0.13574 0.26181 0.87023 0.0
C293 C 0.40882 0.17221 0.84441 0.0
O294 O 0.39308 0.20852 0.80431 0.0
C295 C 0.20504 0.19616 0.77699 0.0
O296 O 0.03854 0.26312 0.89525 0.0
C297 C 0.14876 0.3668 0.82413 0.0
C298 C -0.00026 0.2189 0.89219 0.0
O299 O 0.01667 0.16505 0.877 0.0
C300 C 0.22638 0.25239 0.97722 0.0
C301 C 0.12184 0.42779 0.82845 0.0
C302 C 0.15939 0.47808 0.8324 0.0
C303 C 0.13465 0.5353 0.83898 0.0
C304 C 0.0722 0.54248 0.84144 0.0
C305 C 0.03277 0.49402 0.83386 0.0
C306 C 0.05894 0.43639 0.827 0.0
O307 O 0.2579 0.2064 0.79819 0.0
O308 O 0.15853 0.18853 0.80946 0.0
O309 O 0.29099 0.07869 0.89135 0.0
O310 O 0.20046 0.10835 0.89061 0.0
C311 C 0.23565 0.06172 0.89434 0.0
O312 O 0.1706 0.25424 0.95861 0.0
O313 O 0.27255 0.23574 0.9475 0.0
O314 O 0.11369 0.32454 0.80496 0.0
O315 O 0.18316 0.34802 0.8648 0.0
H316 H 0.20765 0.47257 0.83159 0.0
H317 H 0.05511 0.58692 0.84921 0.0
H318 H 0.03114 0.39762 0.81997 0.0
O319 O 0.84135 0.36988 0.88249 0.0
Tb320 Tb 0.82458 0.27432 0.88006 0.0
Eu321 Eu 0.73619 0.1357 0.8703 0.0
C322 C 0.82577 0.40875 0.84445 0.0
O323 O 0.78952 0.39301 0.80432 0.0
C324 C 0.80183 0.205 0.77706 0.0
O325 O 0.735 0.03855 0.89549 0.0
C326 C 0.63121 0.14864 0.82415 0.0
C327 C 0.77921 -0.00025 0.89224 0.0
O328 O 0.83293 0.01666 0.87663 0.0
C329 C 0.74556 0.22638 0.97729 0.0
C330 C 0.57019 0.12176 0.82845 0.0
C331 C 0.51992 0.15932 0.83245 0.0
C332 C 0.46269 0.1346 0.839 0.0
C333 C 0.45548 0.07215 0.84139 0.0
C334 C 0.50393 0.03271 0.83377 0.0
C335 C 0.56156 0.05888 0.82692 0.0
O336 O 0.79157 0.25785 0.79826 0.0
O337 O 0.80946 0.15849 0.80952 0.0
O338 O 0.9193 0.29093 0.89136 0.0
O339 O 0.88962 0.2004 0.89071 0.0
C340 C 0.93626 0.23559 0.89439 0.0
O341 O 0.74369 0.17061 0.95866 0.0
O342 O 0.76227 0.27255 0.94759 0.0
O343 O 0.67347 0.11353 0.80506 0.0
O344 O 0.64996 0.1831 0.86478 0.0
H345 H 0.52545 0.20758 0.8317 0.0
H346 H 0.41104 0.05506 0.84913 0.0
H347 H 0.60031 0.03107 0.81982 0.0
O348 O 0.62813 0.15639 0.61304 0.0
Tb349 Tb 0.72366 0.17335 0.61528 0.0
Eu350 Eu 0.86225 0.26188 0.62511 0.0
C351 C 0.58917 0.17222 0.65091 0.0
O352 O 0.60478 0.20887 0.69078 0.0
C353 C 0.79295 0.19611 0.71832 0.0
O354 O 0.95945 0.26322 0.60009 0.0
C355 C 0.84921 0.36685 0.67125 0.0
C356 C 0.99825 0.21899 0.60313 0.0
O357 O 0.98132 0.16514 0.6183 0.0
C358 C 0.77157 0.25252 0.51817 0.0
C359 C 0.87614 0.42784 0.66694 0.0
C360 C 0.83859 0.47812 0.66295 0.0
C361 C 0.86334 0.53534 0.65634 0.0
C362 C 0.92579 0.54251 0.65392 0.0
C363 C 0.96521 0.49405 0.66155 0.0
C364 C 0.93903 0.43643 0.66842 0.0
O365 O 0.74005 0.2062 0.69715 0.0
O366 O 0.83948 0.18857 0.68586 0.0
O367 O 0.70712 0.0787 0.60328 0.0
O368 O 0.79763 0.10831 0.60495 0.0
C369 C 0.76248 0.06172 0.60066 0.0
O370 O 0.82737 0.25433 0.53674 0.0
O371 O 0.72543 0.2359 0.54794 0.0
O372 O 0.88427 0.32458 0.69041 0.0
O373 O 0.81482 0.34809 0.63057 0.0
H374 H 0.79033 0.47262 0.66372 0.0
H375 H 0.9429 0.58693 0.64611 0.0
H376 H 0.96683 0.39767 0.67548 0.0
O377 O 0.84158 0.62817 0.61297 0.0
Tb378 Tb 0.82463 0.7237 0.61522 0.0
Eu379 Eu 0.73612 0.86227 0.62504 0.0
C380 C 0.82576 0.58922 0.65086 0.0
O381 O 0.78917 0.60485 0.69078 0.0
C382 C 0.80188 0.79298 0.71825 0.0
O383 O 0.7349 0.95943 0.59984 0.0
C384 C 0.63116 0.84931 0.67123 0.0
C385 C 0.77912 0.99823 0.60308 0.0
O386 O 0.83284 0.98132 0.61867 0.0
C387 C 0.74543 0.77155 0.5181 0.0
C388 C 0.57015 0.8762 0.66694 0.0
C389 C 0.51988 0.83864 0.6629 0.0
C390 C 0.46265 0.86338 0.65632 0.0
C391 C 0.45545 0.92583 0.65397 0.0
C392 C 0.5039 0.96526 0.66164 0.0
C393 C 0.56152 0.93909 0.66851 0.0
O394 O 0.79177 0.74008 0.69708 0.0
O395 O 0.80942 0.83951 0.6858 0.0
O396 O 0.91929 0.70716 0.60328 0.0
O397 O 0.88966 0.79767 0.60485 0.0
C398 C 0.93626 0.76252 0.60062 0.0
O399 O 0.7436 0.82735 0.53668 0.0
O400 O 0.76211 0.72542 0.54785 0.0
O401 O 0.67343 0.88443 0.69031 0.0
O402 O 0.6499 0.81486 0.63059 0.0
H403 H 0.5254 0.79038 0.66361 0.0
H404 H 0.41102 0.94294 0.64619 0.0
H405 H 0.60027 0.9669 0.67562 0.0
O406 O 0.36984 0.84162 0.6129 0.0
Tb407 Tb 0.2743 0.82469 0.61513 0.0
Eu408 Eu 0.13571 0.73618 0.62499 0.0
C409 C 0.40878 0.82579 0.6508 0.0
O410 O 0.39314 0.78919 0.6907 0.0
C411 C 0.20505 0.80191 0.71819 0.0
O412 O 0.03855 0.73497 0.59981 0.0
C413 C 0.14865 0.63121 0.67116 0.0
C414 C -0.00025 0.77918 0.60302 0.0
O415 O 0.01665 0.83291 0.61859 0.0
C416 C 0.22637 0.74552 0.51801 0.0
C417 C 0.12176 0.57019 0.66685 0.0
C418 C 0.15933 0.51993 0.66285 0.0
C419 C 0.13461 0.46269 0.6563 0.0
C420 C 0.07216 0.45548 0.65392 0.0
C421 C 0.03272 0.50392 0.66153 0.0
C422 C 0.05888 0.56156 0.66839 0.0
O423 O 0.25793 0.79177 0.69698 0.0
O424 O 0.1585 0.80947 0.68575 0.0
O425 O 0.29084 0.91935 0.60322 0.0
O426 O 0.20033 0.88973 0.60484 0.0
C427 C 0.23548 0.93633 0.6006 0.0
O428 O 0.1706 0.74366 0.53662 0.0
O429 O 0.27253 0.76224 0.54771 0.0
O430 O 0.11353 0.67347 0.69024 0.0
O431 O 0.18312 0.64996 0.63053 0.0
H432 H 0.20759 0.52545 0.6636 0.0
H433 H 0.05507 0.41104 0.64617 0.0
H434 H 0.03107 0.60031 0.67548 0.0
O435 O 0.15666 0.36996 0.61285 0.0
Tb436 Tb 0.17342 0.2744 0.61527 0.0
Eu437 Eu 0.26182 0.13577 0.62505 0.0
C438 C 0.17223 0.40883 0.65089 0.0
O439 O 0.20846 0.39307 0.69104 0.0
C440 C 0.19614 0.20507 0.71826 0.0
O441 O 0.26304 0.03862 0.59984 0.0
C442 C 0.36677 0.14871 0.67126 0.0
C443 C 0.21883 -0.00018 0.60304 0.0
O444 O 0.1651 0.01671 0.61861 0.0
C445 C 0.25249 0.22646 0.51806 0.0
C446 C 0.42778 0.12181 0.66697 0.0
C447 C 0.47806 0.15937 0.66297 0.0
C448 C 0.53528 0.13464 0.6564 0.0
C449 C 0.54248 0.07219 0.65402 0.0
C450 C 0.49403 0.03276 0.66165 0.0
C451 C 0.4364 0.05893 0.66851 0.0
O452 O 0.20642 0.25792 0.69707 0.0
O453 O 0.18852 0.15855 0.68579 0.0
O454 O 0.07869 0.29102 0.60396 0.0
O455 O 0.10837 0.20049 0.60461 0.0
C456 C 0.06174 0.23568 0.60093 0.0
O457 O 0.25437 0.17068 0.53668 0.0
O458 O 0.23575 0.27262 0.54775 0.0
O459 O 0.32449 0.11359 0.69032 0.0
O460 O 0.34804 0.18317 0.63062 0.0
H461 H 0.47254 0.20763 0.66371 0.0
H462 H 0.5869 0.05508 0.64624 0.0
H463 H 0.39764 0.03112 0.6756 0.0
loop_
_geom_bond_atom_site_label_1
_geom_bond_atom_site_label_2
_geom_bond_distance
_geom_bond_site_symmetry_2
_ccdc_geom_bond_type
O0 Tb1 2.292 . S
O0 C3 1.255 . S
Tb1 O0 2.292 . S
Tb1 O17 2.326 . S
Tb1 O19 2.500 . S
Tb1 O20 2.473 . S
Tb1 O23 2.324 . S
Eu2 O6 2.292 . S
Eu2 C7 2.852 . S
Eu2 O18 2.324 . S
Eu2 O22 2.326 . S
Eu2 O24 2.500 . S
Eu2 O25 2.473 . S
C3 O0 1.255 . S
C3 O4 1.247 . S
O4 C3 1.247 . S
C5 O17 1.242 . S
C5 O18 1.258 . S
O6 Eu2 2.292 . S
O6 C8 1.255 . S
C7 Eu2 2.852 . S
C7 C11 1.503 . S
C7 O24 1.273 . S
C7 O25 1.257 . S
C8 O6 1.255 . S
C8 O9 1.247 . S
O9 C8 1.247 . S
C10 O22 1.242 . S
C10 O23 1.258 . S
C11 C7 1.503 . S
C11 C12 1.379 . S
C11 C16 1.392 . S
C12 C11 1.379 . S
C12 C13 1.404 1_455 S
C12 H26 0.929 . S
C13 C12 1.404 1_655 S
C13 C14 1.389 . S
C14 C13 1.389 . S
C14 C15 1.399 . S
C14 H27 0.931 . S
C15 C14 1.399 . S
C15 C16 1.390 1_655 S
C16 C11 1.392 . S
C16 C15 1.390 1_455 S
C16 H28 0.929 . S
O17 Tb1 2.326 . S
O17 C5 1.242 . S
O18 Eu2 2.324 . S
O18 C5 1.258 . S
O19 Tb1 2.500 . S
O19 C21 1.273 . S
O20 Tb1 2.473 . S
O20 C21 1.257 . S
C21 O19 1.273 . S
C21 O20 1.257 . S
O22 Eu2 2.326 . S
O22 C10 1.242 . S
O23 Tb1 2.324 . S
O23 C10 1.258 . S
O24 Eu2 2.500 . S
O24 C7 1.273 . S
O25 Eu2 2.473 . S
O25 C7 1.257 . S
H26 C12 0.929 . S
H27 C14 0.931 . S
H28 C16 0.929 . S
O29 Tb30 2.292 . S
O29 C32 1.255 . S
Tb30 O29 2.292 . S
Tb30 O46 2.326 . S
Tb30 O48 2.500 . S
Tb30 O49 2.473 . S
Tb30 O52 2.324 . S
Eu31 O35 2.292 . S
Eu31 C36 2.852 . S
Eu31 O47 2.324 . S
Eu31 O51 2.326 . S
Eu31 O53 2.500 . S
Eu31 O54 2.473 . S
C32 O29 1.255 . S
C32 O33 1.247 . S
O33 C32 1.247 . S
C34 O46 1.242 . S
C34 O47 1.258 . S
O35 Eu31 2.292 . S
O35 C37 1.255 . S
C36 Eu31 2.852 . S
C36 C40 1.503 . S
C36 O53 1.273 . S
C36 O54 1.257 . S
C37 O35 1.255 . S
C37 O38 1.247 . S
O38 C37 1.247 . S
C39 O51 1.242 . S
C39 O52 1.258 . S
C40 C36 1.503 . S
C40 C41 1.379 . S
C40 C45 1.392 . S
C41 C40 1.379 . S
C41 C42 1.404 1_545 S
C41 H55 0.929 . S
C42 C41 1.404 1_565 S
C42 C43 1.389 . S
C43 C42 1.389 . S
C43 C44 1.399 . S
C43 H56 0.931 . S
C44 C43 1.399 . S
C44 C45 1.390 1_565 S
C45 C40 1.392 . S
C45 C44 1.390 1_545 S
C45 H57 0.929 . S
O46 Tb30 2.326 . S
O46 C34 1.242 . S
O47 Eu31 2.324 . S
O47 C34 1.258 . S
O48 Tb30 2.500 . S
O48 C50 1.273 . S
O49 Tb30 2.473 . S
O49 C50 1.257 . S
C50 O48 1.273 . S
C50 O49 1.257 . S
O51 Eu31 2.326 . S
O51 C39 1.242 . S
O52 Tb30 2.324 . S
O52 C39 1.258 . S
O53 Eu31 2.500 . S
O53 C36 1.273 . S
O54 Eu31 2.473 . S
O54 C36 1.257 . S
H55 C41 0.929 . S
H56 C43 0.931 . S
H57 C45 0.929 . S
O58 Tb59 2.292 . S
O58 C61 1.255 . S
Tb59 O58 2.292 . S
Tb59 O75 2.326 . S
Tb59 O77 2.500 . S
Tb59 O78 2.473 . S
Tb59 O81 2.324 . S
Eu60 O64 2.292 . S
Eu60 C65 2.852 . S
Eu60 O76 2.324 . S
Eu60 O80 2.326 . S
Eu60 O82 2.500 . S
Eu60 O83 2.473 . S
C61 O58 1.255 . S
C61 O62 1.247 . S
O62 C61 1.247 . S
C63 O75 1.242 . S
C63 O76 1.258 . S
O64 Eu60 2.292 . S
O64 C66 1.255 . S
C65 Eu60 2.852 . S
C65 C69 1.503 . S
C65 O82 1.273 . S
C65 O83 1.257 . S
C66 O64 1.255 . S
C66 O67 1.247 . S
O67 C66 1.247 . S
C68 O80 1.242 . S
C68 O81 1.258 . S
C69 C65 1.503 . S
C69 C70 1.379 . S
C69 C74 1.392 . S
C70 C69 1.379 . S
C70 C71 1.404 1_655 S
C70 H84 0.929 . S
C71 C70 1.404 1_455 S
C71 C72 1.389 . S
C72 C71 1.389 . S
C72 C73 1.399 . S
C72 H85 0.931 . S
C73 C72 1.399 . S
C73 C74 1.390 1_455 S
C74 C69 1.392 . S
C74 C73 1.390 1_655 S
C74 H86 0.929 . S
O75 Tb59 2.326 . S
O75 C63 1.242 . S
O76 Eu60 2.324 . S
O76 C63 1.258 . S
O77 Tb59 2.500 . S
O77 C79 1.273 . S
O78 Tb59 2.473 . S
O78 C79 1.257 . S
C79 O77 1.273 . S
C79 O78 1.257 . S
O80 Eu60 2.326 . S
O80 C68 1.242 . S
O81 Tb59 2.324 . S
O81 C68 1.258 . S
O82 Eu60 2.500 . S
O82 C65 1.273 . S
O83 Eu60 2.473 . S
O83 C65 1.257 . S
H84 C70 0.929 . S
H85 C72 0.931 . S
H86 C74 0.929 . S
O87 Tb88 2.292 . S
O87 C90 1.255 . S
Tb88 O87 2.292 . S
Tb88 O104 2.326 . S
Tb88 O106 2.500 . S
Tb88 O107 2.473 . S
Tb88 O110 2.324 . S
Eu89 O93 2.292 . S
Eu89 C94 2.852 . S
Eu89 O105 2.324 . S
Eu89 O109 2.326 . S
Eu89 O111 2.500 . S
Eu89 O112 2.473 . S
C90 O87 1.255 . S
C90 O91 1.247 . S
O91 C90 1.247 . S
C92 O104 1.242 . S
C92 O105 1.258 . S
O93 Eu89 2.292 . S
O93 C95 1.255 . S
C94 Eu89 2.852 . S
C94 C98 1.503 . S
C94 O111 1.273 . S
C94 O112 1.257 . S
C95 O93 1.255 . S
C95 O96 1.247 . S
O96 C95 1.247 . S
C97 O109 1.242 . S
C97 O110 1.258 . S
C98 C94 1.503 . S
C98 C99 1.379 . S
C98 C103 1.392 . S
C99 C98 1.379 . S
C99 C100 1.404 1_565 S
C99 H113 0.929 . S
C100 C99 1.404 1_545 S
C100 C101 1.389 . S
C101 C100 1.389 . S
C101 C102 1.399 . S
C101 H114 0.931 . S
C102 C101 1.399 . S
C102 C103 1.390 1_545 S
C103 C98 1.392 . S
C103 C102 1.390 1_565 S
C103 H115 0.929 . S
O104 Tb88 2.326 . S
O104 C92 1.242 . S
O105 Eu89 2.324 . S
O105 C92 1.258 . S
O106 Tb88 2.500 . S
O106 C108 1.273 . S
O107 Tb88 2.473 . S
O107 C108 1.257 . S
C108 O106 1.273 . S
C108 O107 1.257 . S
O109 Eu89 2.326 . S
O109 C97 1.242 . S
O110 Tb88 2.324 . S
O110 C97 1.258 . S
O111 Eu89 2.500 . S
O111 C94 1.273 . S
O112 Eu89 2.473 . S
O112 C94 1.257 . S
H113 C99 0.929 . S
H114 C101 0.931 . S
H115 C103 0.929 . S
O116 Tb117 2.292 . S
O116 C119 1.255 . S
Tb117 O116 2.292 . S
Tb117 O133 2.326 . S
Tb117 O135 2.500 . S
Tb117 O136 2.473 . S
Tb117 O139 2.324 . S
Eu118 O122 2.292 . S
Eu118 C123 2.852 . S
Eu118 O134 2.324 . S
Eu118 O138 2.326 . S
Eu118 O140 2.500 . S
Eu118 O141 2.473 . S
C119 O116 1.255 . S
C119 O120 1.247 . S
O120 C119 1.247 . S
C121 O133 1.242 . S
C121 O134 1.258 . S
O122 Eu118 2.292 . S
O122 C124 1.255 . S
C123 Eu118 2.852 . S
C123 C127 1.503 . S
C123 O140 1.273 . S
C123 O141 1.257 . S
C124 O122 1.255 . S
C124 O125 1.247 . S
O125 C124 1.247 . S
C126 O138 1.242 . S
C126 O139 1.258 . S
C127 C123 1.503 . S
C127 C128 1.379 . S
C127 C132 1.392 . S
C128 C127 1.379 . S
C128 C129 1.404 1_455 S
C128 H142 0.929 . S
C129 C128 1.404 1_655 S
C129 C130 1.389 . S
C130 C129 1.389 . S
C130 C131 1.399 . S
C130 H143 0.931 . S
C131 C130 1.399 . S
C131 C132 1.390 1_655 S
C132 C127 1.392 . S
C132 C131 1.390 1_455 S
C132 H144 0.929 . S
O133 Tb117 2.326 . S
O133 C121 1.242 . S
O134 Eu118 2.324 . S
O134 C121 1.258 . S
O135 Tb117 2.500 . S
O135 C137 1.273 . S
O136 Tb117 2.473 . S
O136 C137 1.257 . S
C137 O135 1.273 . S
C137 O136 1.257 . S
O138 Eu118 2.326 . S
O138 C126 1.242 . S
O139 Tb117 2.324 . S
O139 C126 1.258 . S
O140 Eu118 2.500 . S
O140 C123 1.273 . S
O141 Eu118 2.473 . S
O141 C123 1.257 . S
H142 C128 0.929 . S
H143 C130 0.931 . S
H144 C132 0.929 . S
O145 Tb146 2.292 . S
O145 C148 1.255 . S
Tb146 O145 2.292 . S
Tb146 O162 2.326 . S
Tb146 O164 2.500 . S
Tb146 O165 2.473 . S
Tb146 O168 2.324 . S
Eu147 O151 2.292 . S
Eu147 C152 2.852 . S
Eu147 O163 2.324 . S
Eu147 O167 2.326 . S
Eu147 O169 2.500 . S
Eu147 O170 2.473 . S
C148 O145 1.255 . S
C148 O149 1.247 . S
O149 C148 1.247 . S
C150 O162 1.242 . S
C150 O163 1.258 . S
O151 Eu147 2.292 . S
O151 C153 1.255 . S
C152 Eu147 2.852 . S
C152 C156 1.503 . S
C152 O169 1.273 . S
C152 O170 1.257 . S
C153 O151 1.255 . S
C153 O154 1.247 . S
O154 C153 1.247 . S
C155 O167 1.242 . S
C155 O168 1.258 . S
C156 C152 1.503 . S
C156 C157 1.379 . S
C156 C161 1.392 . S
C157 C156 1.379 . S
C157 C158 1.404 1_545 S
C157 H171 0.929 . S
C158 C157 1.404 1_565 S
C158 C159 1.389 . S
C159 C158 1.389 . S
C159 C160 1.399 . S
C159 H172 0.931 . S
C160 C159 1.399 . S
C160 C161 1.390 1_565 S
C161 C156 1.392 . S
C161 C160 1.390 1_545 S
C161 H173 0.929 . S
O162 Tb146 2.326 . S
O162 C150 1.242 . S
O163 Eu147 2.324 . S
O163 C150 1.258 . S
O164 Tb146 2.500 . S
O164 C166 1.273 . S
O165 Tb146 2.473 . S
O165 C166 1.257 . S
C166 O164 1.273 . S
C166 O165 1.257 . S
O167 Eu147 2.326 . S
O167 C155 1.242 . S
O168 Tb146 2.324 . S
O168 C155 1.258 . S
O169 Eu147 2.500 . S
O169 C152 1.273 . S
O170 Eu147 2.473 . S
O170 C152 1.257 . S
H171 C157 0.929 . S
H172 C159 0.931 . S
H173 C161 0.929 . S
O174 Tb175 2.292 . S
O174 C177 1.255 . S
Tb175 O174 2.292 . S
Tb175 O191 2.326 . S
Tb175 O193 2.500 . S
Tb175 O194 2.473 . S
Tb175 O197 2.324 . S
Eu176 O180 2.292 . S
Eu176 C181 2.852 . S
Eu176 O192 2.324 . S
Eu176 O196 2.326 . S
Eu176 O198 2.500 . S
Eu176 O199 2.473 . S
C177 O174 1.255 . S
C177 O178 1.247 . S
O178 C177 1.247 . S
C179 O191 1.242 . S
C179 O192 1.258 . S
O180 Eu176 2.292 . S
O180 C182 1.255 . S
C181 Eu176 2.852 . S
C181 C185 1.503 . S
C181 O198 1.273 . S
C181 O199 1.257 . S
C182 O180 1.255 . S
C182 O183 1.247 . S
O183 C182 1.247 . S
C184 O196 1.242 . S
C184 O197 1.258 . S
C185 C181 1.503 . S
C185 C186 1.379 . S
C185 C190 1.392 . S
C186 C185 1.379 . S
C186 C187 1.404 1_655 S
C186 H200 0.929 . S
C187 C186 1.404 1_455 S
C187 C188 1.389 . S
C188 C187 1.389 . S
C188 C189 1.399 . S
C188 H201 0.931 . S
C189 C188 1.399 . S
C189 C190 1.390 1_455 S
C190 C185 1.392 . S
C190 C189 1.390 1_655 S
C190 H202 0.929 . S
O191 Tb175 2.326 . S
O191 C179 1.242 . S
O192 Eu176 2.324 . S
O192 C179 1.258 . S
O193 Tb175 2.500 . S
O193 C195 1.273 . S
O194 Tb175 2.473 . S
O194 C195 1.257 . S
C195 O193 1.273 . S
C195 O194 1.257 . S
O196 Eu176 2.326 . S
O196 C184 1.242 . S
O197 Tb175 2.324 . S
O197 C184 1.258 . S
O198 Eu176 2.500 . S
O198 C181 1.273 . S
O199 Eu176 2.473 . S
O199 C181 1.257 . S
H200 C186 0.929 . S
H201 C188 0.931 . S
H202 C190 0.929 . S
O203 Tb204 2.292 . S
O203 C206 1.255 . S
Tb204 O203 2.292 . S
Tb204 O220 2.326 . S
Tb204 O222 2.500 . S
Tb204 O223 2.473 . S
Tb204 O226 2.324 . S
Eu205 O209 2.292 . S
Eu205 C210 2.852 . S
Eu205 O221 2.324 . S
Eu205 O225 2.326 . S
Eu205 O227 2.500 . S
Eu205 O228 2.473 . S
C206 O203 1.255 . S
C206 O207 1.247 . S
O207 C206 1.247 . S
C208 O220 1.242 . S
C208 O221 1.258 . S
O209 Eu205 2.292 . S
O209 C211 1.255 . S
C210 Eu205 2.852 . S
C210 C214 1.503 . S
C210 O227 1.273 . S
C210 O228 1.257 . S
C211 O209 1.255 . S
C211 O212 1.247 . S
O212 C211 1.247 . S
C213 O225 1.242 . S
C213 O226 1.258 . S
C214 C210 1.503 . S
C214 C215 1.379 . S
C214 C219 1.392 . S
C215 C214 1.379 . S
C215 C216 1.404 1_565 S
C215 H229 0.929 . S
C216 C215 1.404 1_545 S
C216 C217 1.389 . S
C217 C216 1.389 . S
C217 C218 1.399 . S
C217 H230 0.931 . S
C218 C217 1.399 . S
C218 C219 1.390 1_545 S
C219 C214 1.392 . S
C219 C218 1.390 1_565 S
C219 H231 0.929 . S
O220 Tb204 2.326 . S
O220 C208 1.242 . S
O221 Eu205 2.324 . S
O221 C208 1.258 . S
O222 Tb204 2.500 . S
O222 C224 1.273 . S
O223 Tb204 2.473 . S
O223 C224 1.257 . S
C224 O222 1.273 . S
C224 O223 1.257 . S
O225 Eu205 2.326 . S
O225 C213 1.242 . S
O226 Tb204 2.324 . S
O226 C213 1.258 . S
O227 Eu205 2.500 . S
O227 C210 1.273 . S
O228 Eu205 2.473 . S
O228 C210 1.257 . S
H229 C215 0.929 . S
H230 C217 0.931 . S
H231 C219 0.929 . S
O232 Tb233 2.292 . S
O232 C235 1.255 . S
Tb233 O232 2.292 . S
Tb233 O249 2.326 . S
Tb233 O251 2.500 . S
Tb233 O252 2.473 . S
Tb233 O255 2.324 . S
Eu234 O238 2.292 . S
Eu234 C239 2.852 . S
Eu234 O250 2.324 . S
Eu234 O254 2.326 . S
Eu234 O256 2.500 . S
Eu234 O257 2.473 . S
C235 O232 1.255 . S
C235 O236 1.247 . S
O236 C235 1.247 . S
C237 O249 1.242 . S
C237 O250 1.258 . S
O238 Eu234 2.292 . S
O238 C240 1.255 1_655 S
C239 Eu234 2.852 . S
C239 C243 1.503 . S
C239 O256 1.273 . S
C239 O257 1.257 . S
C240 O238 1.255 1_455 S
C240 O241 1.247 1_455 S
O241 C240 1.247 1_655 S
C242 O254 1.242 . S
C242 O255 1.258 . S
C243 C239 1.503 . S
C243 C244 1.379 . S
C243 C248 1.392 . S
C244 C243 1.379 . S
C244 C245 1.404 . S
C244 H258 0.929 . S
C245 C244 1.404 . S
C245 C246 1.389 . S
C246 C245 1.389 . S
C246 C247 1.399 . S
C246 H259 0.931 . S
C247 C246 1.399 . S
C247 C248 1.390 . S
C248 C243 1.392 . S
C248 C247 1.390 . S
C248 H260 0.929 . S
O249 Tb233 2.326 . S
O249 C237 1.242 . S
O250 Eu234 2.324 . S
O250 C237 1.258 . S
O251 Tb233 2.500 . S
O251 C253 1.273 . S
O252 Tb233 2.473 . S
O252 C253 1.257 . S
C253 O251 1.273 . S
C253 O252 1.257 . S
O254 Eu234 2.326 . S
O254 C242 1.242 . S
O255 Tb233 2.324 . S
O255 C242 1.258 . S
O256 Eu234 2.500 . S
O256 C239 1.273 . S
O257 Eu234 2.473 . S
O257 C239 1.257 . S
H258 C244 0.929 . S
H259 C246 0.931 . S
H260 C248 0.929 . S
O261 Tb262 2.292 . S
O261 C264 1.255 . S
Tb262 O261 2.292 . S
Tb262 O278 2.326 . S
Tb262 O280 2.500 . S
Tb262 O281 2.473 . S
Tb262 O284 2.324 . S
Eu263 O267 2.292 . S
Eu263 C268 2.852 . S
Eu263 O279 2.324 . S
Eu263 O283 2.326 . S
Eu263 O285 2.500 . S
Eu263 O286 2.473 . S
C264 O261 1.255 . S
C264 O265 1.247 . S
O265 C264 1.247 . S
C266 O278 1.242 . S
C266 O279 1.258 . S
O267 Eu263 2.292 . S
O267 C269 1.255 1_565 S
C268 Eu263 2.852 . S
C268 C272 1.503 . S
C268 O285 1.273 . S
C268 O286 1.257 . S
C269 O267 1.255 1_545 S
C269 O270 1.247 1_545 S
O270 C269 1.247 1_565 S
C271 O283 1.242 . S
C271 O284 1.258 . S
C272 C268 1.503 . S
C272 C273 1.379 . S
C272 C277 1.392 . S
C273 C272 1.379 . S
C273 C274 1.404 . S
C273 H287 0.929 . S
C274 C273 1.404 . S
C274 C275 1.389 . S
C275 C274 1.389 . S
C275 C276 1.399 . S
C275 H288 0.931 . S
C276 C275 1.399 . S
C276 C277 1.390 . S
C277 C272 1.392 . S
C277 C276 1.390 . S
C277 H289 0.929 . S
O278 Tb262 2.326 . S
O278 C266 1.242 . S
O279 Eu263 2.324 . S
O279 C266 1.258 . S
O280 Tb262 2.500 . S
O280 C282 1.273 . S
O281 Tb262 2.473 . S
O281 C282 1.257 . S
C282 O280 1.273 . S
C282 O281 1.257 . S
O283 Eu263 2.326 . S
O283 C271 1.242 . S
O284 Tb262 2.324 . S
O284 C271 1.258 . S
O285 Eu263 2.500 . S
O285 C268 1.273 . S
O286 Eu263 2.473 . S
O286 C268 1.257 . S
H287 C273 0.929 . S
H288 C275 0.931 . S
H289 C277 0.929 . S
O290 Tb291 2.292 . S
O290 C293 1.255 . S
Tb291 O290 2.292 . S
Tb291 O307 2.326 . S
Tb291 O309 2.500 . S
Tb291 O310 2.473 . S
Tb291 O313 2.324 . S
Eu292 O296 2.292 . S
Eu292 C297 2.852 . S
Eu292 O308 2.324 . S
Eu292 O312 2.326 . S
Eu292 O314 2.500 . S
Eu292 O315 2.473 . S
C293 O290 1.255 . S
C293 O294 1.247 . S
O294 C293 1.247 . S
C295 O307 1.242 . S
C295 O308 1.258 . S
O296 Eu292 2.292 . S
O296 C298 1.255 1_455 S
C297 Eu292 2.852 . S
C297 C301 1.503 . S
C297 O314 1.273 . S
C297 O315 1.257 . S
C298 O296 1.255 1_655 S
C298 O299 1.247 1_655 S
O299 C298 1.247 1_455 S
C300 O312 1.242 . S
C300 O313 1.258 . S
C301 C297 1.503 . S
C301 C302 1.379 . S
C301 C306 1.392 . S
C302 C301 1.379 . S
C302 C303 1.404 . S
C302 H316 0.929 . S
C303 C302 1.404 . S
C303 C304 1.389 . S
C304 C303 1.389 . S
C304 C305 1.399 . S
C304 H317 0.931 . S
C305 C304 1.399 . S
C305 C306 1.390 . S
C306 C301 1.392 . S
C306 C305 1.390 . S
C306 H318 0.929 . S
O307 Tb291 2.326 . S
O307 C295 1.242 . S
O308 Eu292 2.324 . S
O308 C295 1.258 . S
O309 Tb291 2.500 . S
O309 C311 1.273 . S
O310 Tb291 2.473 . S
O310 C311 1.257 . S
C311 O309 1.273 . S
C311 O310 1.257 . S
O312 Eu292 2.326 . S
O312 C300 1.242 . S
O313 Tb291 2.324 . S
O313 C300 1.258 . S
O314 Eu292 2.500 . S
O314 C297 1.273 . S
O315 Eu292 2.473 . S
O315 C297 1.257 . S
H316 C302 0.929 . S
H317 C304 0.931 . S
H318 C306 0.929 . S
O319 Tb320 2.292 . S
O319 C322 1.255 . S
Tb320 O319 2.292 . S
Tb320 O336 2.326 . S
Tb320 O338 2.500 . S
Tb320 O339 2.473 . S
Tb320 O342 2.324 . S
Eu321 O325 2.292 . S
Eu321 C326 2.852 . S
Eu321 O337 2.324 . S
Eu321 O341 2.326 . S
Eu321 O343 2.500 . S
Eu321 O344 2.473 . S
C322 O319 1.255 . S
C322 O323 1.247 . S
O323 C322 1.247 . S
C324 O336 1.242 . S
C324 O337 1.258 . S
O325 Eu321 2.292 . S
O325 C327 1.255 1_545 S
C326 Eu321 2.852 . S
C326 C330 1.503 . S
C326 O343 1.273 . S
C326 O344 1.257 . S
C327 O325 1.255 1_565 S
C327 O328 1.247 1_565 S
O328 C327 1.247 1_545 S
C329 O341 1.242 . S
C329 O342 1.258 . S
C330 C326 1.503 . S
C330 C331 1.379 . S
C330 C335 1.392 . S
C331 C330 1.379 . S
C331 C332 1.404 . S
C331 H345 0.929 . S
C332 C331 1.404 . S
C332 C333 1.389 . S
C333 C332 1.389 . S
C333 C334 1.399 . S
C333 H346 0.931 . S
C334 C333 1.399 . S
C334 C335 1.390 . S
C335 C330 1.392 . S
C335 C334 1.390 . S
C335 H347 0.929 . S
O336 Tb320 2.326 . S
O336 C324 1.242 . S
O337 Eu321 2.324 . S
O337 C324 1.258 . S
O338 Tb320 2.500 . S
O338 C340 1.273 . S
O339 Tb320 2.473 . S
O339 C340 1.257 . S
C340 O338 1.273 . S
C340 O339 1.257 . S
O341 Eu321 2.326 . S
O341 C329 1.242 . S
O342 Tb320 2.324 . S
O342 C329 1.258 . S
O343 Eu321 2.500 . S
O343 C326 1.273 . S
O344 Eu321 2.473 . S
O344 C326 1.257 . S
H345 C331 0.929 . S
H346 C333 0.931 . S
H347 C335 0.929 . S
O348 Tb349 2.292 . S
O348 C351 1.255 . S
Tb349 O348 2.292 . S
Tb349 O365 2.326 . S
Tb349 O367 2.500 . S
Tb349 O368 2.473 . S
Tb349 O371 2.324 . S
Eu350 O354 2.292 . S
Eu350 C355 2.852 . S
Eu350 O366 2.324 . S
Eu350 O370 2.326 . S
Eu350 O372 2.500 . S
Eu350 O373 2.473 . S
C351 O348 1.255 . S
C351 O352 1.247 . S
O352 C351 1.247 . S
C353 O365 1.242 . S
C353 O366 1.258 . S
O354 Eu350 2.292 . S
O354 C356 1.255 1_655 S
C355 Eu350 2.852 . S
C355 C359 1.503 . S
C355 O372 1.273 . S
C355 O373 1.257 . S
C356 O354 1.255 1_455 S
C356 O357 1.247 1_455 S
O357 C356 1.247 1_655 S
C358 O370 1.242 . S
C358 O371 1.258 . S
C359 C355 1.503 . S
C359 C360 1.379 . S
C359 C364 1.392 . S
C360 C359 1.379 . S
C360 C361 1.404 . S
C360 H374 0.929 . S
C361 C360 1.404 . S
C361 C362 1.389 . S
C362 C361 1.389 . S
C362 C363 1.399 . S
C362 H375 0.931 . S
C363 C362 1.399 . S
C363 C364 1.390 . S
C364 C359 1.392 . S
C364 C363 1.390 . S
C364 H376 0.929 . S
O365 Tb349 2.326 . S
O365 C353 1.242 . S
O366 Eu350 2.324 . S
O366 C353 1.258 . S
O367 Tb349 2.500 . S
O367 C369 1.273 . S
O368 Tb349 2.473 . S
O368 C369 1.257 . S
C369 O367 1.273 . S
C369 O368 1.257 . S
O370 Eu350 2.326 . S
O370 C358 1.242 . S
O371 Tb349 2.324 . S
O371 C358 1.258 . S
O372 Eu350 2.500 . S
O372 C355 1.273 . S
O373 Eu350 2.473 . S
O373 C355 1.257 . S
H374 C360 0.929 . S
H375 C362 0.931 . S
H376 C364 0.929 . S
O377 Tb378 2.292 . S
O377 C380 1.255 . S
Tb378 O377 2.292 . S
Tb378 O394 2.326 . S
Tb378 O396 2.500 . S
Tb378 O397 2.473 . S
Tb378 O400 2.324 . S
Eu379 O383 2.292 . S
Eu379 C384 2.852 . S
Eu379 O395 2.324 . S
Eu379 O399 2.326 . S
Eu379 O401 2.500 . S
Eu379 O402 2.473 . S
C380 O377 1.255 . S
C380 O381 1.247 . S
O381 C380 1.247 . S
C382 O394 1.242 . S
C382 O395 1.258 . S
O383 Eu379 2.292 . S
O383 C385 1.255 1_565 S
C384 Eu379 2.852 . S
C384 C388 1.503 . S
C384 O401 1.273 . S
C384 O402 1.257 . S
C385 O383 1.255 1_545 S
C385 O386 1.247 1_545 S
O386 C385 1.247 1_565 S
C387 O399 1.242 . S
C387 O400 1.258 . S
C388 C384 1.503 . S
C388 C389 1.379 . S
C388 C393 1.392 . S
C389 C388 1.379 . S
C389 C390 1.404 . S
C389 H403 0.929 . S
C390 C389 1.404 . S
C390 C391 1.389 . S
C391 C390 1.389 . S
C391 C392 1.399 . S
C391 H404 0.931 . S
C392 C391 1.399 . S
C392 C393 1.390 . S
C393 C388 1.392 . S
C393 C392 1.390 . S
C393 H405 0.929 . S
O394 Tb378 2.326 . S
O394 C382 1.242 . S
O395 Eu379 2.324 . S
O395 C382 1.258 . S
O396 Tb378 2.500 . S
O396 C398 1.273 . S
O397 Tb378 2.473 . S
O397 C398 1.257 . S
C398 O396 1.273 . S
C398 O397 1.257 . S
O399 Eu379 2.326 . S
O399 C387 1.242 . S
O400 Tb378 2.324 . S
O400 C387 1.258 . S
O401 Eu379 2.500 . S
O401 C384 1.273 . S
O402 Eu379 2.473 . S
O402 C384 1.257 . S
H403 C389 0.929 . S
H404 C391 0.931 . S
H405 C393 0.929 . S
O406 Tb407 2.292 . S
O406 C409 1.255 . S
Tb407 O406 2.292 . S
Tb407 O423 2.326 . S
Tb407 O425 2.500 . S
Tb407 O426 2.473 . S
Tb407 O429 2.324 . S
Eu408 O412 2.292 . S
Eu408 C413 2.852 . S
Eu408 O424 2.324 . S
Eu408 O428 2.326 . S
Eu408 O430 2.500 . S
Eu408 O431 2.473 . S
C409 O406 1.255 . S
C409 O410 1.247 . S
O410 C409 1.247 . S
C411 O423 1.242 . S
C411 O424 1.258 . S
O412 Eu408 2.292 . S
O412 C414 1.255 1_455 S
C413 Eu408 2.852 . S
C413 C417 1.503 . S
C413 O430 1.273 . S
C413 O431 1.257 . S
C414 O412 1.255 1_655 S
C414 O415 1.247 1_655 S
O415 C414 1.247 1_455 S
C416 O428 1.242 . S
C416 O429 1.258 . S
C417 C413 1.503 . S
C417 C418 1.379 . S
C417 C422 1.392 . S
C418 C417 1.379 . S
C418 C419 1.404 . S
C418 H432 0.929 . S
C419 C418 1.404 . S
C419 C420 1.389 . S
C420 C419 1.389 . S
C420 C421 1.399 . S
C420 H433 0.931 . S
C421 C420 1.399 . S
C421 C422 1.390 . S
C422 C417 1.392 . S
C422 C421 1.390 . S
C422 H434 0.929 . S
O423 Tb407 2.326 . S
O423 C411 1.242 . S
O424 Eu408 2.324 . S
O424 C411 1.258 . S
O425 Tb407 2.500 . S
O425 C427 1.273 . S
O426 Tb407 2.473 . S
O426 C427 1.257 . S
C427 O425 1.273 . S
C427 O426 1.257 . S
O428 Eu408 2.326 . S
O428 C416 1.242 . S
O429 Tb407 2.324 . S
O429 C416 1.258 . S
O430 Eu408 2.500 . S
O430 C413 1.273 . S
O431 Eu408 2.473 . S
O431 C413 1.257 . S
H432 C418 0.929 . S
H433 C420 0.931 . S
H434 C422 0.929 . S
O435 Tb436 2.292 . S
O435 C438 1.255 . S
Tb436 O435 2.292 . S
Tb436 O452 2.326 . S
Tb436 O454 2.500 . S
Tb436 O455 2.473 . S
Tb436 O458 2.324 . S
Eu437 O441 2.292 . S
Eu437 C442 2.852 . S
Eu437 O453 2.324 . S
Eu437 O457 2.326 . S
Eu437 O459 2.500 . S
Eu437 O460 2.473 . S
C438 O435 1.255 . S
C438 O439 1.247 . S
O439 C438 1.247 . S
C440 O452 1.242 . S
C440 O453 1.258 . S
O441 Eu437 2.292 . S
O441 C443 1.255 1_545 S
C442 Eu437 2.852 . S
C442 C446 1.503 . S
C442 O459 1.273 . S
C442 O460 1.257 . S
C443 O441 1.255 1_565 S
C443 O444 1.247 1_565 S
O444 C443 1.247 1_545 S
C445 O457 1.242 . S
C445 O458 1.258 . S
C446 C442 1.503 . S
C446 C447 1.379 . S
C446 C451 1.392 . S
C447 C446 1.379 . S
C447 C448 1.404 . S
C447 H461 0.929 . S
C448 C447 1.404 . S
C448 C449 1.389 . S
C449 C448 1.389 . S
C449 C450 1.399 . S
C449 H462 0.931 . S
C450 C449 1.399 . S
C450 C451 1.390 . S
C451 C446 1.392 . S
C451 C450 1.390 . S
C451 H463 0.929 . S
O452 Tb436 2.326 . S
O452 C440 1.242 . S
O453 Eu437 2.324 . S
O453 C440 1.258 . S
O454 Tb436 2.500 . S
O454 C456 1.273 . S
O455 Tb436 2.473 . S
O455 C456 1.257 . S
C456 O454 1.273 . S
C456 O455 1.257 . S
O457 Eu437 2.326 . S
O457 C445 1.242 . S
O458 Tb436 2.324 . S
O458 C445 1.258 . S
O459 Eu437 2.500 . S
O459 C442 1.273 . S
O460 Eu437 2.473 . S
O460 C442 1.257 . S
H461 C447 0.929 . S
H462 C449 0.931 . S
H463 C451 0.929 . S
C10 C300 2.907 1_554 S
C39 C329 2.907 1_554 S
C242 C68 2.908 1_556 S
C271 C97 2.907 1_556 S
C126 C416 2.907 . S
C445 C155 2.908 . S
C358 C184 2.907 . S
C213 C387 2.907 . S
C100 C3 2.632 . S
C13 C32 2.632 . S
C61 C42 2.632 . S
C90 C71 2.632 . S
C158 C119 2.632 . S
C148 C187 2.632 . S
C216 C177 2.632 . S
C129 C206 2.632 . S
C253 C327 2.169 . S
C240 C282 2.169 . S
C311 C269 2.169 . S
C298 C340 2.169 . S
C369 C385 2.169 . S
C414 C398 2.169 . S
C443 C427 2.169 . S
C356 C456 2.169 . S
C380 C361 2.632 . S
C409 C390 2.632 . S
C419 C438 2.632 . S
C448 C351 2.632 . S
C322 C245 2.632 . S
C274 C235 2.632 . S
C303 C264 2.632 . S
C332 C293 2.632 . S
C166 C124 2.169 . S
C153 C195 2.169 . S
C224 C182 2.169 . S
C211 C137 2.169 . S
C108 C8 2.169 . S
C37 C21 2.169 . S
C66 C50 2.169 . S
C95 C79 2.169 . S
C150 C5 1.880 . S
C179 C34 1.880 . S
C208 C63 1.880 . S
C121 C92 1.880 . S
C382 C237 1.880 . S
C266 C411 1.880 . S
C295 C440 1.880 . S
C324 C353 1.880 . S
C15 C73 4.201 1_655 S
C102 C44 4.201 1_545 S
C131 C189 4.201 1_655 S
C218 C160 4.201 1_545 S
C305 C247 4.201 1_455 S
C334 C276 4.201 1_545 S
C421 C363 4.201 1_455 S
C392 C450 4.201 1_565 S
