# Generated by pormake.
# Topology umz, (4)-cn, num edge types: 1
# Building blocks:
#     Node 0, Type 0, BuildingBlock: UXUYUI_clean_sbu_0, # of connection points: 4
#     Node 1, Type 0, BuildingBlock: UXUYUI_clean_sbu_0, # of connection points: 4
#     Node 2, Type 0, BuildingBlock: UXUYUI_clean_sbu_0, # of connection points: 4
#     Node 3, Type 0, BuildingBlock: UXUYUI_clean_sbu_0, # of connection points: 4
#     Node 4, Type 0, BuildingBlock: UXUYUI_clean_sbu_0, # of connection points: 4
#     Node 5, Type 0, BuildingBlock: UXUYUI_clean_sbu_0, # of connection points: 4
#     Node 6, Type 0, BuildingBlock: UXUYUI_clean_sbu_0, # of connection points: 4
#     Node 7, Type 0, BuildingBlock: UXUYUI_clean_sbu_0, # of connection points: 4
#     Node 8, Type 0, BuildingBlock: UXUYUI_clean_sbu_0, # of connection points: 4
#     Node 9, Type 0, BuildingBlock: UXUYUI_clean_sbu_0, # of connection points: 4
#     Node 10, Type 0, BuildingBlock: UXUYUI_clean_sbu_0, # of connection points: 4
#     Node 11, Type 0, BuildingBlock: UXUYUI_clean_sbu_0, # of connection points: 4
#     Node 12, Type 0, BuildingBlock: UXUYUI_clean_sbu_0, # of connection points: 4
#     Node 13, Type 0, BuildingBlock: UXUYUI_clean_sbu_0, # of connection points: 4
#     Node 14, Type 0, BuildingBlock: UXUYUI_clean_sbu_0, # of connection points: 4
#     Node 15, Type 0, BuildingBlock: UXUYUI_clean_sbu_0, # of connection points: 4
#     Edge 16, Type (0, 0), BuildingBlock: AJUNOK_clean_linker_0, # of connection points: 2
#     Edge 17, Type (0, 0), BuildingBlock: AJUNOK_clean_linker_0, # of connection points: 2
#     Edge 18, Type (0, 0), BuildingBlock: AJUNOK_clean_linker_0, # of connection points: 2
#     Edge 19, Type (0, 0), BuildingBlock: AJUNOK_clean_linker_0, # of connection points: 2
#     Edge 20, Type (0, 0), BuildingBlock: AJUNOK_clean_linker_0, # of connection points: 2
#     Edge 21, Type (0, 0), BuildingBlock: AJUNOK_clean_linker_0, # of connection points: 2
#     Edge 22, Type (0, 0), BuildingBlock: AJUNOK_clean_linker_0, # of connection points: 2
#     Edge 23, Type (0, 0), BuildingBlock: AJUNOK_clean_linker_0, # of connection points: 2
#     Edge 24, Type (0, 0), BuildingBlock: AJUNOK_clean_linker_0, # of connection points: 2
#     Edge 25, Type (0, 0), BuildingBlock: AJUNOK_clean_linker_0, # of connection points: 2
#     Edge 26, Type (0, 0), BuildingBlock: AJUNOK_clean_linker_0, # of connection points: 2
#     Edge 27, Type (0, 0), BuildingBlock: AJUNOK_clean_linker_0, # of connection points: 2
#     Edge 28, Type (0, 0), BuildingBlock: AJUNOK_clean_linker_0, # of connection points: 2
#     Edge 29, Type (0, 0), BuildingBlock: AJUNOK_clean_linker_0, # of connection points: 2
#     Edge 30, Type (0, 0), BuildingBlock: AJUNOK_clean_linker_0, # of connection points: 2
#     Edge 31, Type (0, 0), BuildingBlock: AJUNOK_clean_linker_0, # of connection points: 2
#     Edge 32, Type (0, 0), BuildingBlock: AJUNOK_clean_linker_0, # of connection points: 2
#     Edge 33, Type (0, 0), BuildingBlock: AJUNOK_clean_linker_0, # of connection points: 2
#     Edge 34, Type (0, 0), BuildingBlock: AJUNOK_clean_linker_0, # of connection points: 2
#     Edge 35, Type (0, 0), BuildingBlock: AJUNOK_clean_linker_0, # of connection points: 2
#     Edge 36, Type (0, 0), BuildingBlock: AJUNOK_clean_linker_0, # of connection points: 2
#     Edge 37, Type (0, 0), BuildingBlock: AJUNOK_clean_linker_0, # of connection points: 2
#     Edge 38, Type (0, 0), BuildingBlock: AJUNOK_clean_linker_0, # of connection points: 2
#     Edge 39, Type (0, 0), BuildingBlock: AJUNOK_clean_linker_0, # of connection points: 2
#     Edge 40, Type (0, 0), BuildingBlock: AJUNOK_clean_linker_0, # of connection points: 2
#     Edge 41, Type (0, 0), BuildingBlock: AJUNOK_clean_linker_0, # of connection points: 2
#     Edge 42, Type (0, 0), BuildingBlock: AJUNOK_clean_linker_0, # of connection points: 2
#     Edge 43, Type (0, 0), BuildingBlock: AJUNOK_clean_linker_0, # of connection points: 2
#     Edge 44, Type (0, 0), BuildingBlock: AJUNOK_clean_linker_0, # of connection points: 2
#     Edge 45, Type (0, 0), BuildingBlock: AJUNOK_clean_linker_0, # of connection points: 2
#     Edge 46, Type (0, 0), BuildingBlock: AJUNOK_clean_linker_0, # of connection points: 2
#     Edge 47, Type (0, 0), BuildingBlock: AJUNOK_clean_linker_0, # of connection points: 2
# Relax obj value: 0.340
# Max RMSD: 0.205
# Mean RMSD: 0.205
data_MOF--net-umz--node1-UXUYUI_clean_sbu_0--edge1-AJUNOK_clean_linker_0
_symmetry_space_group_name_H-M    P1
_symmetry_Int_Tables_number       1
_symmetry_cell_setting            triclinic
loop_
_symmetry_equiv_pos_as_xyz
'x, y, z'
_cell_length_a     72.07988
_cell_length_b     72.08586
_cell_length_c     26.21974
_cell_angle_alpha  89.973092
_cell_angle_beta   90.025364
_cell_angle_gamma 90.005511
loop_
_atom_site_label
_atom_site_type_symbol
_atom_site_fract_x
_atom_site_fract_y
_atom_site_fract_z
_atom_type_partial_charge
Li0 Li 0.00811 0.63484 0.17486 0.0
Li1 Li 0.03731 0.64015 0.21696 0.0
Li2 Li 0.02598 0.65993 0.14685 0.0
Li3 Li 0.03729 0.62928 0.12846 0.0
C4 C 0.00082 0.65861 0.24915 0.0
N5 N 0.97092 0.66091 0.31492 0.0
C6 C 0.00252 0.65263 0.29967 0.0
C7 C 0.98401 0.66614 0.23248 0.0
C8 C 0.98723 0.65381 0.33223 0.0
C9 C 0.96902 0.66707 0.26617 0.0
C10 C 0.02236 0.59869 0.17938 0.0
C11 C 0.0214 0.56608 0.20002 0.0
N12 N 0.01087 0.56294 0.15785 0.0
C13 C 0.01159 0.59511 0.13607 0.0
C14 C 0.02735 0.58404 0.21155 0.0
C15 C 0.00589 0.57696 0.12595 0.0
C16 C 0.97018 0.62468 0.15509 0.0
N17 N 0.98442 0.62465 0.18911 0.0
C18 C 0.96695 0.60626 0.24754 0.0
C19 C 0.98306 0.6158 0.23471 0.0
C20 C 0.95217 0.60561 0.21278 0.0
C21 C 0.95375 0.61522 0.16635 0.0
H22 H 0.97176 0.63153 0.1187 0.0
H23 H 0.99478 0.61569 0.26046 0.0
C24 C 0.06602 0.64579 0.29265 0.0
N25 N 0.05034 0.63653 0.27888 0.0
C26 C 0.07685 0.63922 0.33316 0.0
C27 C 0.05464 0.61444 0.34547 0.0
C28 C 0.04425 0.62151 0.30529 0.0
C29 C 0.07135 0.62304 0.35878 0.0
H30 H 0.07064 0.65758 0.2705 0.0
H31 H 0.03166 0.61457 0.29362 0.0
C32 C 0.00655 0.65079 0.06416 0.0
N33 N 0.99223 0.67229 0.98611 0.0
C34 C 0.01403 0.64966 0.01508 0.0
C35 C 0.99146 0.66251 0.07311 0.0
C36 C 0.00668 0.66072 0.97623 0.0
C37 C 0.98451 0.67338 0.03333 0.0
C38 C 0.06985 0.64561 0.16119 0.0
C39 C 0.08338 0.65828 0.14567 0.0
C40 C 0.07519 0.62816 0.1793 0.0
C41 C 0.10208 0.65333 0.14884 0.0
C42 C 0.09403 0.62373 0.18188 0.0
N43 N 0.10698 0.6363 0.16672 0.0
C44 C 0.01396 0.69733 0.13067 0.0
C45 C 0.03756 0.68578 0.07623 0.0
C46 C 0.01287 0.71368 0.10214 0.0
N47 N 0.02602 0.68376 0.11677 0.0
C48 C 0.03692 0.70183 0.04668 0.0
C49 C 0.02436 0.71596 0.05931 0.0
H50 H 0.0048 0.69521 0.16279 0.0
H51 H 0.04676 0.67456 0.06572 0.0
C52 C 0.0573 0.59769 0.08917 0.0
N53 N 0.05206 0.61563 0.08161 0.0
C54 C 0.06987 0.58926 0.05594 0.0
C55 C 0.07153 0.61793 0.00827 0.0
C56 C 0.05916 0.62586 0.04271 0.0
C57 C 0.07704 0.59946 0.01493 0.0
H58 H 0.0522 0.59004 0.12162 0.0
H59 H 0.05555 0.64036 0.03928 0.0
O60 O 0.01558 0.65725 0.21646 0.0
O61 O 0.02792 0.6164 0.1907 0.0
O62 O 0.01389 0.64044 0.1031 0.0
O63 O 0.05147 0.65019 0.1573 0.0
H64 H 0.01547 0.64709 0.31365 0.0
H65 H 0.98247 0.67117 0.19395 0.0
H66 H 0.98833 0.64909 0.37128 0.0
H67 H 0.9559 0.67272 0.25357 0.0
H68 H 0.02516 0.55462 0.2246 0.0
H69 H 0.00759 0.60616 0.11053 0.0
H70 H 0.03581 0.58646 0.24497 0.0
H71 H 0.9975 0.57402 0.0927 0.0
H72 H 0.96636 0.59879 0.28336 0.0
H73 H 0.94257 0.61507 0.13872 0.0
H74 H 0.08978 0.64605 0.3426 0.0
H75 H 0.05004 0.60197 0.36478 0.0
H76 H 0.02531 0.64028 0.00686 0.0
H77 H 0.98532 0.66339 0.11053 0.0
H78 H 0.01244 0.66006 0.93819 0.0
H79 H 0.97299 0.68269 0.04001 0.0
H80 H 0.07945 0.6718 0.1312 0.0
H81 H 0.06493 0.6181 0.19114 0.0
H82 H 0.11271 0.66301 0.13698 0.0
H83 H 0.09835 0.61028 0.19584 0.0
H84 H 0.00302 0.72431 0.113 0.0
H85 H 0.04572 0.7029 0.01333 0.0
H86 H 0.07392 0.57496 0.0621 0.0
H87 H 0.07703 0.62624 0.97733 0.0
Li88 Li 0.86591 0.00913 0.66853 0.0
Li89 Li 0.85845 0.03826 0.70901 0.0
Li90 Li 0.8394 0.02545 0.64089 0.0
Li91 Li 0.86883 0.03901 0.61988 0.0
C92 C 0.84077 -0.00063 0.73773 0.0
N93 N 0.83602 0.96713 0.79337 0.0
C94 C 0.84175 -0.00024 0.79096 0.0
C95 C 0.83692 0.98265 0.71293 0.0
C96 C 0.83942 0.9833 0.81839 0.0
C97 C 0.83471 0.96648 0.74166 0.0
C98 C 0.89623 0.04171 0.69947 0.0
C99 C 0.90899 0.07224 0.71322 0.0
N100 N 0.92297 0.06463 0.74113 0.0
C101 C 0.91074 0.03419 0.72817 0.0
C102 C 0.89535 0.06089 0.69183 0.0
C103 C 0.92412 0.04601 0.74893 0.0
C104 C 0.87884 0.97177 0.6519 0.0
N105 N 0.87799 0.98649 0.68422 0.0
C106 C 0.89624 0.97053 0.74619 0.0
C107 C 0.88623 0.98606 0.73077 0.0
C108 C 0.89774 0.9552 0.71344 0.0
C109 C 0.88861 0.9558 0.66602 0.0
H110 H 0.87208 0.97249 0.61514 0.0
H111 H 0.88519 0.99796 0.75569 0.0
C112 C 0.87194 0.04108 0.80656 0.0
N113 N 0.8626 0.05115 0.77106 0.0
C114 C 0.88114 0.04994 0.84638 0.0
C115 C 0.87024 0.07938 0.81388 0.0
C116 C 0.86117 0.06992 0.77458 0.0
C117 C 0.8809 0.06936 0.84928 0.0
H118 H 0.87369 0.02633 0.80132 0.0
H119 H 0.85446 0.07771 0.74462 0.0
C120 C 0.84922 0.00946 0.55467 0.0
N121 N 0.82786 -5e-05 0.47107 0.0
C122 C 0.84792 0.02148 0.51297 0.0
C123 C 0.83991 0.99246 0.55342 0.0
C124 C 0.837 0.01645 0.47115 0.0
C125 C 0.8291 0.98795 0.51096 0.0
C126 C 0.83311 0.06294 0.66603 0.0
C127 C 0.82031 0.05634 0.70178 0.0
C128 C 0.83121 0.08091 0.6467 0.0
C129 C 0.80581 0.06785 0.71749 0.0
C130 C 0.81652 0.09199 0.66341 0.0
N131 N 0.80423 0.08528 0.69815 0.0
C132 C 0.80324 0.00969 0.62532 0.0
C133 C 0.81094 0.03617 0.57598 0.0
C134 C 0.78635 0.00791 0.59954 0.0
N135 N 0.81517 0.02355 0.61271 0.0
C136 C 0.7943 0.03489 0.54925 0.0
C137 C 0.78178 0.02059 0.56082 0.0
H138 H 0.80698 -0.00019 0.65456 0.0
H139 H 0.82084 0.04689 0.56631 0.0
C140 C 0.90088 0.05019 0.56502 0.0
N141 N 0.88247 0.05323 0.57237 0.0
C142 C 0.91086 0.06133 0.53114 0.0
C143 C 0.88269 0.07834 0.51298 0.0
C144 C 0.8733 0.06696 0.54738 0.0
C145 C 0.90174 0.07565 0.50476 0.0
H146 H 0.9078 0.03921 0.58573 0.0
H147 H 0.85862 0.06892 0.55383 0.0
O148 O 0.84325 0.01532 0.71019 0.0
O149 O 0.88254 0.03042 0.68078 0.0
O150 O 0.85944 0.0144 0.59656 0.0
O151 O 0.84743 0.05197 0.6497 0.0
H152 H 0.84408 0.01265 0.81098 0.0
H153 H 0.83593 0.98212 0.67189 0.0
H154 H 0.84023 0.9834 0.85958 0.0
H155 H 0.83197 0.95341 0.72284 0.0
H156 H 0.9084 0.08711 0.70793 0.0
H157 H 0.9116 0.01939 0.73466 0.0
H158 H 0.88404 0.06699 0.6705 0.0
H159 H 0.93538 0.04039 0.77143 0.0
H160 H 0.90316 0.97073 0.78286 0.0
H161 H 0.88911 0.94413 0.64008 0.0
H162 H 0.88929 0.04176 0.87284 0.0
H163 H 0.87009 0.0944 0.81421 0.0
H164 H 0.85507 0.03465 0.51309 0.0
H165 H 0.84088 0.98288 0.58498 0.0
H166 H 0.83575 0.02571 0.43885 0.0
H167 H 0.82168 0.97491 0.50974 0.0
H168 H 0.82147 0.04251 0.71729 0.0
H169 H 0.84102 0.08628 0.61918 0.0
H170 H 0.7958 0.06291 0.74508 0.0
H171 H 0.81491 0.10593 0.64876 0.0
H172 H 0.77701 0.99671 0.60954 0.0
H173 H 0.7915 0.04468 0.51886 0.0
H174 H 0.92554 0.05881 0.52572 0.0
H175 H 0.87504 0.08886 0.49233 0.0
Li176 Li 0.48887 0.86226 0.16079 0.0
Li177 Li 0.4607 0.85407 0.20864 0.0
Li178 Li 0.47201 0.83389 0.14412 0.0
Li179 Li 0.45636 0.86224 0.11824 0.0
C180 C 0.48867 0.82619 0.23766 0.0
N181 N 0.49621 0.79566 0.29793 0.0
C182 C 0.47441 0.81752 0.26478 0.0
C183 C 0.50681 0.81953 0.24184 0.0
C184 C 0.47849 0.80205 0.29487 0.0
C185 C 0.51033 0.80402 0.27231 0.0
C186 C 0.45789 0.89184 0.19934 0.0
C187 C 0.42989 0.90694 0.2276 0.0
N188 N 0.44026 0.91897 0.25564 0.0
C189 C 0.4683 0.90441 0.22813 0.0
C190 C 0.43855 0.89317 0.19869 0.0
C191 C 0.4591 0.91802 0.25641 0.0
C192 C 0.51737 0.8874 0.13245 0.0
N193 N 0.51147 0.87505 0.16808 0.0
C194 C 0.53585 0.8838 0.22479 0.0
C195 C 0.5205 0.87282 0.21316 0.0
C196 C 0.54178 0.8973 0.18985 0.0
C197 C 0.53268 0.89872 0.14257 0.0
H198 H 0.50976 0.88894 0.09713 0.0
H199 H 0.51526 0.86307 0.24101 0.0
C200 C 0.43218 0.8567 0.28546 0.0
N201 N 0.45043 0.85904 0.2742 0.0
C202 C 0.42447 0.86558 0.32767 0.0
C203 C 0.4547 0.87812 0.34769 0.0
C204 C 0.46187 0.86876 0.30554 0.0
C205 C 0.43563 0.87707 0.35815 0.0
H206 H 0.42329 0.84898 0.26028 0.0
H207 H 0.47629 0.87059 0.29515 0.0
C208 C 0.4887 0.842 0.0565 0.0
N209 N 0.50404 0.81859 0.98465 0.0
C210 C 0.47836 0.83662 0.01391 0.0
C211 C 0.50691 0.8357 0.06228 0.0
C212 C 0.48635 0.82471 0.97808 0.0
C213 C 0.5144 0.82382 0.02558 0.0
C214 C 0.43046 0.832 0.17006 0.0
C215 C 0.43159 0.81399 0.18961 0.0
C216 C 0.4131 0.84041 0.16435 0.0
C217 C 0.41535 0.8048 0.20393 0.0
C218 C 0.39717 0.83076 0.17911 0.0
N219 N 0.39862 0.81331 0.19847 0.0
C220 C 0.48972 0.79872 0.12369 0.0
C221 C 0.46027 0.80438 0.08648 0.0
C222 C 0.49162 0.7824 0.09539 0.0
N223 N 0.4743 0.80939 0.11825 0.0
C224 C 0.46166 0.78834 0.05724 0.0
C225 C 0.47764 0.77732 0.06067 0.0
H226 H 0.50094 0.80329 0.1479 0.0
H227 H 0.44844 0.81342 0.0817 0.0
C228 C 0.4418 0.89127 0.0573 0.0
N229 N 0.44039 0.87306 0.06994 0.0
C230 C 0.42961 0.89895 0.02164 0.0
C231 C 0.41458 0.86908 0.01399 0.0
C232 C 0.42725 0.86191 0.04899 0.0
C233 C 0.41584 0.88777 -0.0007 0.0
H234 H 0.45242 0.89977 0.07474 0.0
H235 H 0.42656 0.84745 0.05975 0.0
O236 O 0.48505 0.8414 0.20813 0.0
O237 O 0.46659 0.87801 0.17292 0.0
O238 O 0.48091 0.85309 0.09292 0.0
O239 O 0.44617 0.84118 0.15516 0.0
H240 H 0.46038 0.82273 0.26288 0.0
H241 H 0.51802 0.8262 0.22136 0.0
H242 H 0.46757 0.79516 0.31591 0.0
H243 H 0.52429 0.79863 0.27559 0.0
H244 H 0.41492 0.90802 0.22791 0.0
H245 H 0.48329 0.9035 0.22906 0.0
H246 H 0.43033 0.88347 0.17675 0.0
H247 H 0.46695 0.92777 0.27916 0.0
H248 H 0.5424 0.88242 0.26179 0.0
H249 H 0.53701 0.90886 0.1145 0.0
H250 H 0.40973 0.86426 0.33484 0.0
H251 H 0.46375 0.88712 0.36947 0.0
H252 H 0.46422 0.84138 0.00903 0.0
H253 H 0.51505 0.83973 0.09518 0.0
H254 H 0.47846 0.82027 0.94519 0.0
H255 H 0.52842 0.81868 0.02976 0.0
H256 H 0.44485 0.8071 0.19332 0.0
H257 H 0.41194 0.85434 0.14932 0.0
H258 H 0.41603 0.79088 0.21922 0.0
H259 H 0.38367 0.83715 0.17524 0.0
H260 H 0.50403 0.7741 0.09979 0.0
H261 H 0.45066 0.78505 0.03056 0.0
H262 H 0.43113 0.9134 0.01111 0.0
H263 H 0.40391 0.86007 -0.00122 0.0
Li264 Li 0.63302 0.48717 0.66773 0.0
Li265 Li 0.64279 0.45904 0.70957 0.0
Li266 Li 0.66083 0.47309 0.6413 0.0
Li267 Li 0.63274 0.45728 0.62057 0.0
C268 C 0.65688 0.49974 0.73579 0.0
N269 N 0.65831 0.53311 0.78759 0.0
C270 C 0.65552 0.50009 0.78895 0.0
C271 C 0.6594 0.51634 0.70912 0.0
C272 C 0.65618 0.5171 0.81442 0.0
C273 C 0.65995 0.53307 0.73592 0.0
C274 C 0.60553 0.45155 0.6957 0.0
C275 C 0.59639 0.41954 0.70514 0.0
N276 N 0.58031 0.4251 0.72753 0.0
C277 C 0.58891 0.45695 0.71879 0.0
C278 C 0.60932 0.43269 0.68884 0.0
C279 C 0.57634 0.44336 0.73464 0.0
C280 C 0.61726 0.52374 0.65243 0.0
N281 N 0.61876 0.50853 0.68291 0.0
C282 C 0.59761 0.52142 0.74317 0.0
C283 C 0.60942 0.50724 0.72774 0.0
C284 C 0.59555 0.53716 0.71237 0.0
C285 C 0.6057 0.53844 0.66679 0.0
H286 H 0.62483 0.52434 0.61688 0.0
H287 H 0.611 0.495 0.75117 0.0
C288 C 0.64305 0.4277 0.77658 0.0
N289 N 0.63978 0.44621 0.77207 0.0
C290 C 0.6352 0.41772 0.81681 0.0
C291 C 0.62176 0.44623 0.84837 0.0
C292 C 0.62971 0.4556 0.80743 0.0
C293 C 0.62388 0.42696 0.85214 0.0
H294 H 0.65039 0.42036 0.74693 0.0
H295 H 0.6265 0.47007 0.8014 0.0
C296 C 0.6501 0.48736 0.55405 0.0
N297 N 0.67118 0.49707 0.47013 0.0
C298 C 0.65296 0.47462 0.51465 0.0
C299 C 0.65772 0.50514 0.55035 0.0
C300 C 0.6637 0.47977 0.47262 0.0
C301 C 0.66842 0.50975 0.50775 0.0
C302 C 0.67019 0.43652 0.66918 0.0
C303 C 0.68251 0.4449 0.70338 0.0
C304 C 0.67337 0.41826 0.65342 0.0
C305 C 0.69781 0.43489 0.72107 0.0
C306 C 0.68882 0.40872 0.67203 0.0
N307 N 0.70062 0.41716 0.70517 0.0
C308 C 0.69543 0.49192 0.62299 0.0
C309 C 0.69047 0.46341 0.57994 0.0
C310 C 0.71226 0.49442 0.59744 0.0
N311 N 0.68488 0.47668 0.61336 0.0
C312 C 0.70718 0.46527 0.55395 0.0
C313 C 0.71818 0.48102 0.56217 0.0
H314 H 0.69065 0.50226 0.64972 0.0
H315 H 0.68166 0.45158 0.57244 0.0
C316 C 0.60248 0.44625 0.5588 0.0
N317 N 0.62017 0.4422 0.57284 0.0
C318 C 0.59327 0.43502 0.52355 0.0
C319 C 0.62057 0.41558 0.51877 0.0
C320 C 0.62926 0.42721 0.55389 0.0
C321 C 0.60243 0.41958 0.50272 0.0
H322 H 0.5956 0.45824 0.57482 0.0
H323 H 0.64332 0.4244 0.56582 0.0
O324 O 0.65601 0.48322 0.71011 0.0
O325 O 0.61819 0.46469 0.68121 0.0
O326 O 0.64012 0.48234 0.59627 0.0
O327 O 0.65507 0.44598 0.65101 0.0
H328 H 0.65416 0.48736 0.81043 0.0
H329 H 0.66058 0.51633 0.66808 0.0
H330 H 0.65505 0.51756 0.85554 0.0
H331 H 0.66164 0.54603 0.71562 0.0
H332 H 0.59918 0.40491 0.70025 0.0
H333 H 0.58579 0.47148 0.72458 0.0
H334 H 0.62222 0.42823 0.67172 0.0
H335 H 0.56345 0.44734 0.75266 0.0
H336 H 0.59002 0.52004 0.77864 0.0
H337 H 0.60426 0.55038 0.642 0.0
H338 H 0.63702 0.40282 0.81859 0.0
H339 H 0.61283 0.45372 0.87444 0.0
H340 H 0.6472 0.4608 0.51682 0.0
H341 H 0.65555 0.51525 0.58017 0.0
H342 H 0.66616 0.46999 0.44211 0.0
H343 H 0.67455 0.52341 0.50465 0.0
H344 H 0.68042 0.45897 0.71615 0.0
H345 H 0.66395 0.41148 0.62729 0.0
H346 H 0.70745 0.44122 0.74745 0.0
H347 H 0.69142 0.39459 0.66016 0.0
H348 H 0.72056 0.50663 0.60511 0.0
H349 H 0.71126 0.45472 0.52676 0.0
H350 H 0.57929 0.43856 0.51191 0.0
H351 H 0.62798 0.40362 0.50428 0.0
Li352 Li 0.01866 0.83941 0.85482 0.0
Li353 Li 0.03236 0.86921 0.87696 0.0
Li354 Li 0.00298 0.86701 0.82936 0.0
Li355 Li 0.03253 0.85903 0.78912 0.0
C356 C 0.99382 0.86575 0.92631 0.0
N357 N 0.96384 0.8809 0.97696 0.0
C358 C 0.99624 0.88118 0.95788 0.0
C359 C 0.97618 0.85794 0.92076 0.0
C360 C 0.9809 0.88865 0.98313 0.0
C361 C 0.96118 0.86584 0.94658 0.0
C362 C 0.06067 0.84584 0.87608 0.0
C363 C 0.09069 0.85762 0.90095 0.0
N364 N 0.09184 0.84427 0.93746 0.0
C365 C 0.06216 0.83225 0.91394 0.0
C366 C 0.07508 0.85862 0.86948 0.0
C367 C 0.07803 0.83167 0.9445 0.0
C368 C 0.02691 0.80109 0.86159 0.0
N369 N 0.01598 0.81491 0.88007 0.0
C370 C 0.00495 0.79534 0.94696 0.0
C371 C 0.00483 0.81225 0.92119 0.0
C372 C 0.01685 0.78117 0.9305 0.0
C373 C 0.02753 0.78395 0.88637 0.0
H374 H 0.03587 0.80372 0.82932 0.0
H375 H 0.99653 0.82356 0.93557 0.0
C376 C 0.05305 0.89915 0.91819 0.0
N377 N 0.04609 0.882 0.92793 0.0
C378 C 0.06506 0.90757 0.95291 0.0
C379 C 0.06195 0.88079 0.00787 0.0
C380 C 0.04987 0.87296 0.97227 0.0
C381 C 0.06981 0.89822 0.99803 0.0
H382 H 0.04959 0.90614 0.88306 0.0
H383 H 0.04395 0.85941 0.97918 0.0
C384 C 0.00376 0.82819 0.77035 0.0
N385 N 0.99463 0.79245 0.742 0.0
C386 C 0.01556 0.81811 0.73847 0.0
C387 C 0.98726 0.82017 0.78759 0.0
C388 C 0.0107 0.80004 0.72459 0.0
C389 C 0.98291 0.80205 0.77292 0.0
C390 C 0.02925 0.89573 0.77973 0.0
C391 C 0.01582 0.90211 0.74543 0.0
C392 C 0.04766 0.90153 0.77428 0.0
C393 C 0.02105 0.91415 0.70621 0.0
C394 C 0.05233 0.9136 0.7346 0.0
N395 N 0.03904 0.91959 0.70164 0.0
C396 C 0.97653 0.89555 0.83852 0.0
C397 C 0.96879 0.87209 0.77875 0.0
C398 C 0.96117 0.90603 0.8238 0.0
N399 N 0.98008 0.879 0.81572 0.0
C400 C 0.95342 0.88226 0.76227 0.0
C401 C 0.94971 0.89958 0.7844 0.0
H402 H 0.98609 0.90099 0.86656 0.0
H403 H 0.97219 0.85909 0.7605 0.0
C404 C 0.06441 0.86111 0.7263 0.0
N405 N 0.04557 0.86109 0.72653 0.0
C406 C 0.07401 0.86813 0.68435 0.0
C407 C 0.04466 0.87316 0.64178 0.0
C408 C 0.03563 0.86611 0.68468 0.0
C409 C 0.06405 0.87493 0.64232 0.0
H410 H 0.07195 0.85688 0.75989 0.0
H411 H 0.02063 0.86611 0.68628 0.0
O412 O 0.00863 0.85832 0.90094 0.0
O413 O 0.0451 0.84681 0.84621 0.0
O414 O 0.00842 0.84575 0.7851 0.0
O415 O 0.02446 0.8837 0.81798 0.0
H416 H 0.00979 0.8874 0.96258 0.0
H417 H 0.97405 0.84605 0.89626 0.0
H418 H 0.98255 0.90063 0.00753 0.0
H419 H 0.94743 0.86002 0.94238 0.0
H420 H 0.10184 0.86754 0.89656 0.0
H421 H 0.05111 0.82239 0.92025 0.0
H422 H 0.07402 0.86952 0.84131 0.0
H423 H 0.07932 0.82126 0.97402 0.0
H424 H 0.9966 0.7937 0.98101 0.0
H425 H 0.03672 0.77323 0.87231 0.0
H426 H 0.07092 0.92102 0.94405 0.0
H427 H 0.06516 0.87329 0.04258 0.0
H428 H 0.02841 0.82414 0.72495 0.0
H429 H 0.97801 0.8278 0.81243 0.0
H430 H 0.01974 0.79204 0.7001 0.0
H431 H 0.97024 0.79561 0.78618 0.0
H432 H 0.00155 0.89768 0.74858 0.0
H433 H 0.05832 0.89652 0.79984 0.0
H434 H 0.01081 0.91911 0.67929 0.0
H435 H 0.06653 0.91813 0.72988 0.0
H436 H 0.95883 0.91947 0.84112 0.0
H437 H 0.94484 0.87694 0.73165 0.0
H438 H 0.08899 0.8692 0.68584 0.0
H439 H 0.03651 0.87851 0.61033 0.0
Li440 Li 0.6573 0.01426 0.3597 0.0
Li441 Li 0.62709 0.02751 0.38029 0.0
Li442 Li 0.63011 -0.00051 0.3284 0.0
Li443 Li 0.639 0.02982 0.29413 0.0
C444 C 0.6301 0.98763 0.42237 0.0
N445 N 0.61451 0.95583 0.46261 0.0
C446 C 0.61385 0.98871 0.4513 0.0
C447 C 0.63849 0.97041 0.41418 0.0
C448 C 0.60617 0.97246 0.47127 0.0
C449 C 0.63036 0.95448 0.43474 0.0
C450 C 0.65023 0.05547 0.38853 0.0
C451 C 0.63818 0.08495 0.41685 0.0
N452 N 0.64997 0.08453 0.45733 0.0
C453 C 0.66222 0.05533 0.4305 0.0
C454 C 0.63813 0.07043 0.38161 0.0
C455 C 0.6619 0.07017 0.46476 0.0
C456 C 0.69484 0.02362 0.37121 0.0
N457 N 0.68157 0.01145 0.38657 0.0
C458 C 0.70153 -0.0006 0.45132 0.0
C459 C 0.68467 -0.0008 0.42509 0.0
C460 C 0.71509 0.0125 0.43807 0.0
C461 C 0.71184 0.02437 0.39656 0.0
H462 H 0.69183 0.03341 0.34105 0.0
H463 H 0.67375 0.98992 0.43708 0.0
C464 C 0.59719 0.04877 0.41923 0.0
N465 N 0.61329 0.04005 0.43145 0.0
C466 C 0.58862 0.06049 0.45436 0.0
C467 C 0.61268 0.05295 0.51523 0.0
C468 C 0.62084 0.04147 0.47878 0.0
C469 C 0.59655 0.06291 0.5028 0.0
H470 H 0.59129 0.04712 0.38176 0.0
H471 H 0.6336 0.03423 0.4875 0.0
C472 C 0.66993 0.00153 0.27399 0.0
N473 N 0.70621 0.99352 0.24838 0.0
C474 C 0.68035 0.01422 0.24564 0.0
C475 C 0.67789 0.98472 0.28905 0.0
C476 C 0.69868 0.00992 0.23311 0.0
C477 C 0.69628 0.98095 0.27582 0.0
C478 C 0.60223 0.02698 0.27947 0.0
C479 C 0.59583 0.01424 0.24325 0.0
C480 C 0.59677 0.04556 0.27587 0.0
C481 C 0.58394 0.02025 0.20454 0.0
C482 C 0.58478 0.05099 0.23677 0.0
N483 N 0.57867 0.03834 0.20219 0.0
C484 C 0.59988 0.9757 0.32789 0.0
C485 C 0.62476 0.96522 0.27613 0.0
C486 C 0.58836 0.96183 0.30896 0.0
N487 N 0.61755 0.97736 0.3105 0.0
C488 C 0.61368 0.95103 0.2562 0.0
C489 C 0.59507 0.94968 0.27151 0.0
H490 H 0.59443 0.98584 0.35433 0.0
H491 H 0.63877 0.96711 0.26233 0.0
C492 C 0.63992 0.06332 0.23745 0.0
N493 N 0.63821 0.04458 0.23439 0.0
C494 C 0.6337 0.07448 0.19744 0.0
C495 C 0.62581 0.04675 0.15031 0.0
C496 C 0.63236 0.03614 0.19096 0.0
C497 C 0.62554 0.06617 0.15449 0.0
H498 H 0.64496 0.06963 0.27211 0.0
H499 H 0.63121 0.02119 0.18975 0.0
O500 O 0.63768 0.00334 0.40187 0.0
O501 O 0.65003 0.04087 0.35513 0.0
O502 O 0.6521 0.00565 0.28747 0.0
O503 O 0.61384 0.02134 0.31793 0.0
H504 H 0.60716 0.00192 0.45789 0.0
H505 H 0.65101 0.96933 0.39163 0.0
H506 H 0.59356 0.97306 0.49355 0.0
H507 H 0.63664 0.94104 0.42843 0.0
H508 H 0.62875 0.09651 0.4122 0.0
H509 H 0.67148 0.0438 0.4371 0.0
H510 H 0.62847 0.07062 0.35005 0.0
H511 H 0.67106 0.07019 0.49747 0.0
H512 H 0.70358 0.9901 0.48331 0.0
H513 H 0.72209 0.03453 0.38503 0.0
H514 H 0.57631 0.06806 0.44304 0.0
H515 H 0.61909 0.05429 0.55242 0.0
H516 H 0.67438 0.02732 0.23384 0.0
H517 H 0.67 0.97479 0.31112 0.0
H518 H 0.70695 0.01963 0.21138 0.0
H519 H 0.70267 0.96805 0.28745 0.0
H520 H 0.60014 -9e-05 0.24442 0.0
H521 H 0.60196 0.05577 0.30246 0.0
H522 H 0.57892 0.01052 0.1763 0.0
H523 H 0.58035 0.06528 0.23386 0.0
H524 H 0.57412 0.96103 0.322 0.0
H525 H 0.61925 0.94186 0.2273 0.0
H526 H 0.63425 0.08943 0.20133 0.0
H527 H 0.61967 0.03979 0.11782 0.0
Li528 Li 0.47634 0.65613 0.84917 0.0
Li529 Li 0.46079 0.62737 0.87179 0.0
Li530 Li 0.49 0.62753 0.82342 0.0
Li531 Li 0.46097 0.63753 0.78388 0.0
C532 C 0.4996 0.62806 0.92008 0.0
N533 N 0.5285 0.6106 0.97004 0.0
C534 C 0.49606 0.61309 0.95258 0.0
C535 C 0.51783 0.63421 0.9132 0.0
C536 C 0.51087 0.60445 0.97747 0.0
C537 C 0.53225 0.62517 0.9387 0.0
C538 C 0.43367 0.65193 0.87042 0.0
C539 C 0.40327 0.64084 0.89425 0.0
N540 N 0.40224 0.65425 0.9306 0.0
C541 C 0.43231 0.66555 0.90821 0.0
C542 C 0.41901 0.63946 0.86345 0.0
C543 C 0.4163 0.66652 0.93811 0.0
C544 C 0.46928 0.69441 0.86047 0.0
N545 N 0.48091 0.68041 0.87402 0.0
C546 C 0.49568 0.69961 0.93611 0.0
C547 C 0.49424 0.6828 0.91011 0.0
C548 C 0.48307 0.71386 0.92523 0.0
C549 C 0.47001 0.71135 0.88615 0.0
H550 H 0.45868 0.69201 0.83201 0.0
H551 H 0.50312 0.67137 0.9206 0.0
C552 C 0.43846 0.59897 0.91603 0.0
N553 N 0.44664 0.61571 0.92391 0.0
C554 C 0.42634 0.59168 0.95241 0.0
C555 C 0.4318 0.61871 0.00488 0.0
C556 C 0.44395 0.62537 0.96778 0.0
C557 C 0.42272 0.6017 0.99725 0.0
H558 H 0.44109 0.59144 0.88121 0.0
H559 H 0.45076 0.6386 0.97307 0.0
C560 C 0.49167 0.6665 0.76558 0.0
N561 N 0.50281 0.70195 0.73993 0.0
C562 C 0.48 0.67792 0.73685 0.0
C563 C 0.50902 0.67304 0.78113 0.0
C564 C 0.48589 0.69582 0.72426 0.0
C565 C 0.51439 0.69103 0.76783 0.0
C566 C 0.46194 0.60097 0.77345 0.0
C567 C 0.47479 0.5952 0.7368 0.0
C568 C 0.44341 0.59541 0.76921 0.0
C569 C 0.46887 0.58399 0.69649 0.0
C570 C 0.43805 0.58422 0.72827 0.0
N571 N 0.45078 0.57879 0.69307 0.0
C572 C 0.5139 0.59705 0.83231 0.0
C573 C 0.52409 0.61997 0.77377 0.0
C574 C 0.52856 0.58547 0.81874 0.0
N575 N 0.51193 0.61388 0.8097 0.0
C576 C 0.53884 0.60869 0.75847 0.0
C577 C 0.54108 0.59109 0.78066 0.0
H578 H 0.50372 0.59237 0.85972 0.0
H579 H 0.52186 0.63321 0.75541 0.0
C580 C 0.42937 0.63504 0.71901 0.0
N581 N 0.44816 0.6364 0.72057 0.0
C582 C 0.42058 0.62864 0.67499 0.0
C583 C 0.45047 0.6272 0.63338 0.0
C584 C 0.4587 0.63337 0.67844 0.0
C585 C 0.43125 0.624 0.63198 0.0
H586 H 0.42132 0.63753 0.75294 0.0
H587 H 0.47364 0.6344 0.68101 0.0
O588 O 0.48531 0.63662 0.89505 0.0
O589 O 0.44937 0.65057 0.84117 0.0
O590 O 0.48596 0.64914 0.7794 0.0
O591 O 0.46736 0.61234 0.81259 0.0
H592 H 0.48207 0.60812 0.95832 0.0
H593 H 0.52085 0.64563 0.88774 0.0
H594 H 0.50834 0.59282 0.0026 0.0
H595 H 0.54643 0.62969 0.93343 0.0
H596 H 0.39193 0.63115 0.88955 0.0
H597 H 0.44357 0.6751 0.91508 0.0
H598 H 0.42001 0.62842 0.83573 0.0
H599 H 0.41511 0.67696 0.96755 0.0
H600 H 0.50577 0.70106 0.9665 0.0
H601 H 0.46005 0.7221 0.87706 0.0
H602 H 0.4198 0.57839 0.94544 0.0
H603 H 0.42917 0.62704 0.03847 0.0
H604 H 0.46647 0.67308 0.72484 0.0
H605 H 0.51815 0.6644 0.80372 0.0
H606 H 0.47698 0.70485 0.70221 0.0
H607 H 0.52774 0.69633 0.77983 0.0
H608 H 0.48912 0.59951 0.73893 0.0
H609 H 0.43319 0.59998 0.79661 0.0
H610 H 0.47865 0.57951 0.66774 0.0
H611 H 0.42373 0.57997 0.7243 0.0
H612 H 0.52981 0.57202 0.83688 0.0
H613 H 0.54786 0.61337 0.72805 0.0
H614 H 0.4058 0.62603 0.67613 0.0
H615 H 0.45917 0.6239 0.60097 0.0
Li616 Li 0.84025 0.48056 0.3477 0.0
Li617 Li 0.87065 0.46805 0.3628 0.0
Li618 Li 0.86692 0.49702 0.31446 0.0
Li619 Li 0.85886 0.46741 0.27838 0.0
C620 C 0.85472 0.50826 0.40897 0.0
N621 N 0.8426 0.54077 0.45368 0.0
C622 C 0.86004 0.51265 0.45875 0.0
C623 C 0.84321 0.52039 0.3819 0.0
C624 C 0.85378 0.52916 0.48069 0.0
C625 C 0.83724 0.53676 0.40518 0.0
C626 C 0.84948 0.43824 0.36472 0.0
C627 C 0.86502 0.4093 0.38278 0.0
N628 N 0.8527 0.40592 0.42092 0.0
C629 C 0.83682 0.43432 0.40363 0.0
C630 C 0.86354 0.42549 0.35374 0.0
C631 C 0.83873 0.41796 0.43174 0.0
C632 C 0.80082 0.48858 0.36003 0.0
N633 N 0.81716 0.4835 0.38198 0.0
C634 C 0.80272 0.48118 0.46369 0.0
C635 C 0.8184 0.48015 0.43287 0.0
C636 C 0.78558 0.48587 0.44199 0.0
C637 C 0.78472 0.48979 0.38956 0.0
H638 H 0.80014 0.49154 0.31977 0.0
H639 H 0.83161 0.47634 0.44939 0.0
C640 C 0.90068 0.44628 0.40051 0.0
N641 N 0.88467 0.45522 0.41269 0.0
C642 C 0.90906 0.43443 0.43578 0.0
C643 C 0.88494 0.4422 0.4963 0.0
C644 C 0.87693 0.45371 0.45972 0.0
C645 C 0.90096 0.43211 0.48397 0.0
H646 H 0.90659 0.44785 0.36297 0.0
H647 H 0.86412 0.46092 0.46805 0.0
C648 C 0.82807 0.48846 0.24865 0.0
N649 N 0.7961 0.48379 0.19184 0.0
C650 C 0.81973 0.47098 0.24515 0.0
C651 C 0.82014 0.50354 0.22319 0.0
C652 C 0.80358 0.46891 0.21623 0.0
C653 C 0.80397 0.5009 0.19471 0.0
C654 C 0.89572 0.47218 0.26199 0.0
C655 C 0.90165 0.48638 0.22948 0.0
C656 C 0.90213 0.45409 0.25403 0.0
C657 C 0.91373 0.48224 0.18943 0.0
C658 C 0.91428 0.45053 0.21371 0.0
N659 N 0.91976 0.46455 0.18246 0.0
C660 C 0.8915 0.52647 0.33022 0.0
C661 C 0.87183 0.52991 0.25822 0.0
C662 C 0.90133 0.54239 0.31674 0.0
N663 N 0.87734 0.52042 0.30038 0.0
C664 C 0.88133 0.54588 0.2432 0.0
C665 C 0.89659 0.55196 0.27195 0.0
H666 H 0.89561 0.51848 0.36328 0.0
H667 H 0.8606 0.52461 0.23507 0.0
C668 C 0.85802 0.43505 0.21746 0.0
N669 N 0.85984 0.4538 0.2165 0.0
C670 C 0.86459 0.42444 0.17686 0.0
C671 C 0.87283 0.45278 0.13297 0.0
C672 C 0.86594 0.46284 0.17423 0.0
C673 C 0.87316 0.43333 0.13544 0.0
H674 H 0.85266 0.42826 0.25107 0.0
H675 H 0.86709 0.4778 0.17458 0.0
O676 O 0.86067 0.49206 0.3873 0.0
O677 O 0.84813 0.45446 0.33763 0.0
O678 O 0.84395 0.49095 0.27643 0.0
O679 O 0.88393 0.47602 0.30165 0.0
H680 H 0.8689 0.50337 0.48023 0.0
H681 H 0.83887 0.51722 0.34341 0.0
H682 H 0.85779 0.53274 0.51922 0.0
H683 H 0.82832 0.54626 0.3847 0.0
H684 H 0.87602 0.39948 0.37515 0.0
H685 H 0.82559 0.44374 0.41199 0.0
H686 H 0.87347 0.42824 0.32384 0.0
H687 H 0.82908 0.41483 0.46214 0.0
H688 H 0.80394 0.47817 0.50404 0.0
H689 H 0.77168 0.49325 0.37138 0.0
H690 H 0.92159 0.42705 0.42545 0.0
H691 H 0.87838 0.44071 0.53324 0.0
H692 H 0.82554 0.45912 0.26458 0.0
H693 H 0.82638 0.51717 0.22557 0.0
H694 H 0.79699 0.45548 0.21324 0.0
H695 H 0.79767 0.51247 0.17489 0.0
H696 H 0.89696 0.50046 0.23483 0.0
H697 H 0.89762 0.44284 0.27825 0.0
H698 H 0.91834 0.4931 0.16393 0.0
H699 H 0.91937 0.43662 0.20726 0.0
H700 H 0.91311 0.54662 0.33962 0.0
H701 H 0.8772 0.55304 0.20869 0.0
H702 H 0.86408 0.40945 0.1793 0.0
H703 H 0.87925 0.46014 0.10156 0.0
Li704 Li 0.9613 0.37056 0.8699 0.0
Li705 Li 0.97446 0.34098 0.84372 0.0
Li706 Li 0.98963 0.36991 0.82094 0.0
Li707 Li 0.96053 0.36094 0.78068 0.0
C708 C 0.98489 0.36296 0.94116 0.0
N709 N 0.98135 0.36983 0.04443 0.0
C710 C 0.97982 0.34867 0.97445 0.0
C711 C 0.9882 0.38073 0.96048 0.0
C712 C 0.97812 0.35242 0.02651 0.0
C713 C 0.9863 0.38393 0.01276 0.0
C714 C 0.93167 0.34362 0.82135 0.0
C715 C 0.91335 0.32473 0.76454 0.0
N716 N 0.89774 0.33347 0.78101 0.0
C717 C 0.91544 0.35237 0.83788 0.0
C718 C 0.93063 0.32965 0.78454 0.0
C719 C 0.89843 0.34705 0.81695 0.0
C720 C 0.94318 0.40059 0.91903 0.0
N721 N 0.94652 0.38205 0.92033 0.0
C722 C 0.92582 0.3782 0.99056 0.0
C723 C 0.9381 0.37082 0.95492 0.0
C724 C 0.9222 0.39733 0.99046 0.0
C725 C 0.93104 0.40859 0.95413 0.0
H726 H 0.94963 0.40911 0.89017 0.0
H727 H 0.94059 0.35603 0.9539 0.0
C728 C 0.99504 0.31163 0.88712 0.0
N729 N 0.97809 0.31657 0.86871 0.0
C730 C 0.99694 0.29573 0.91718 0.0
C731 C 0.96409 0.29001 0.90697 0.0
C732 C 0.96284 0.30593 0.87703 0.0
C733 C 0.98118 0.28515 0.92885 0.0
H734 H 0.0068 0.32072 0.8815 0.0
H735 H 0.94946 0.31039 0.8632 0.0
C736 C 0.97465 0.40141 0.79169 0.0
N737 N 0.99142 0.43314 0.75446 0.0
C738 C 0.97568 0.40452 0.73912 0.0
C739 C 0.98207 0.41451 0.82529 0.0
C740 C 0.98422 0.42064 0.72106 0.0
C741 C 0.99052 0.43044 0.80573 0.0
C742 C 0.9947 0.33299 0.7635 0.0
C743 C 0.01334 0.33183 0.77774 0.0
C744 C 0.98637 0.31819 0.7378 0.0
C745 C 0.02333 0.31574 0.76644 0.0
C746 C 0.99683 0.30234 0.72723 0.0
N747 N 0.01493 0.30145 0.74168 0.0
C748 C 0.02207 0.39185 0.84027 0.0
C749 C 0.01655 0.38277 0.75465 0.0
C750 C 0.03655 0.40344 0.82472 0.0
N751 N 0.01214 0.38224 0.80501 0.0
C752 C 0.0309 0.39411 0.73749 0.0
C753 C 0.04069 0.40506 0.77255 0.0
H754 H 0.01821 0.39121 0.88002 0.0
H755 H 0.00832 0.37501 0.72753 0.0
C756 C 0.93122 0.37582 0.72917 0.0
N757 N 0.94637 0.36501 0.72127 0.0
C758 C 0.9224 0.38435 0.68834 0.0
C759 C 0.9447 0.37021 0.63143 0.0
C760 C 0.95296 0.36161 0.67361 0.0
C761 C 0.9296 0.38226 0.639 0.0
H762 H 0.92689 0.37901 0.76761 0.0
H763 H 0.9655 0.35355 0.66881 0.0
O764 O 0.98622 0.3597 0.88986 0.0
O765 O 0.9485 0.34875 0.84101 0.0
O766 O 0.96686 0.38542 0.81012 0.0
O767 O 0.98462 0.3485 0.77481 0.0
H768 H 0.97697 0.33489 0.96033 0.0
H769 H 0.9919 0.39201 0.9353 0.0
H770 H 0.97413 0.34151 0.05264 0.0
H771 H 0.98871 0.39764 0.02814 0.0
H772 H 0.91236 0.31398 0.7359 0.0
H773 H 0.91598 0.36328 0.86614 0.0
H774 H 0.94306 0.32273 0.77143 0.0
H775 H 0.88577 0.35375 0.82921 0.0
H776 H 0.91893 0.369 0.01716 0.0
H777 H 0.92856 0.42341 0.95287 0.0
H778 H 0.01031 0.29241 0.9337 0.0
H779 H 0.95169 0.28201 0.91481 0.0
H780 H 0.9702 0.39452 0.71243 0.0
H781 H 0.98163 0.41226 0.86604 0.0
H782 H 0.98522 0.42315 0.68048 0.0
H783 H 0.99646 0.4406 0.83132 0.0
H784 H 0.01997 0.34315 0.79782 0.0
H785 H 0.972 0.31896 0.72613 0.0
H786 H 0.03775 0.3146 0.77749 0.0
H787 H 0.99055 0.29075 0.7075 0.0
H788 H 0.04382 0.4117 0.85284 0.0
H789 H 0.03395 0.39472 0.69708 0.0
H790 H 0.91077 0.39349 0.6957 0.0
H791 H 0.95088 0.36854 0.59409 0.0
Li792 Li 0.12908 0.9625 0.37772 0.0
Li793 Li 0.15716 0.97604 0.35561 0.0
Li794 Li 0.12872 0.99097 0.3266 0.0
Li795 Li 0.14017 0.96007 0.2889 0.0
C796 C 0.12957 0.99221 0.44225 0.0
N797 N 0.11363 0.00126 0.53474 0.0
C798 C 0.13677 0.98492 0.48754 0.0
C799 C 0.11442 0.00429 0.44403 0.0
C800 C 0.12847 0.9896 0.53391 0.0
C801 C 0.10652 0.00865 0.49117 0.0
C802 C 0.16577 0.9401 0.3692 0.0
C803 C 0.19314 0.92153 0.35595 0.0
N804 N 0.19658 0.92196 0.40697 0.0
C805 C 0.16941 0.94017 0.42154 0.0
C806 C 0.17759 0.93059 0.3361 0.0
C807 C 0.18513 0.931 0.43987 0.0
C808 C 0.11985 0.92897 0.42353 0.0
N809 N 0.11615 0.94745 0.42664 0.0
C810 C 0.09487 0.94214 0.49501 0.0
C811 C 0.10364 0.95413 0.46086 0.0
C812 C 0.09869 0.92309 0.49294 0.0
C813 C 0.11122 0.91647 0.45644 0.0
H814 H 0.12947 0.92389 0.39521 0.0
H815 H 0.10023 0.96869 0.46144 0.0
C816 C 0.18124 0.99354 0.42333 0.0
N817 N 0.18121 0.98166 0.38306 0.0
C818 C 0.19731 0.99627 0.45182 0.0
C819 C 0.21359 0.9757 0.39447 0.0
C820 C 0.19711 0.9733 0.36709 0.0
C821 C 0.21355 0.9868 0.43843 0.0
H822 H 0.16861 0.00045 0.43453 0.0
H823 H 0.19688 0.96417 0.33448 0.0
C824 C 0.09808 0.96045 0.32754 0.0
N825 N 0.06462 0.94549 0.35855 0.0
C826 C 0.09369 0.94205 0.31587 0.0
C827 C 0.08543 0.97124 0.35498 0.0
C828 C 0.07672 0.93473 0.33194 0.0
C829 C 0.06858 0.96344 0.37023 0.0
C830 C 0.16886 0.9902 0.26977 0.0
C831 C 0.17597 0.00756 0.28317 0.0
C832 C 0.17976 0.97786 0.24168 0.0
C833 C 0.19399 0.01226 0.26842 0.0
C834 C 0.1977 0.98309 0.22756 0.0
N835 N 0.20439 3e-05 0.24116 0.0
C836 C 0.12452 0.02989 0.31114 0.0
C837 C 0.09997 0.01083 0.28163 0.0
C838 C 0.11592 0.04564 0.29075 0.0
N839 N 0.11649 0.01293 0.30585 0.0
C840 C 0.09072 0.02617 0.26184 0.0
C841 C 0.09889 0.04382 0.26504 0.0
H842 H 0.13776 0.03112 0.33027 0.0
H843 H 0.09407 0.99717 0.27693 0.0
C844 C 0.13351 0.92793 0.23111 0.0
N845 N 0.13791 0.94623 0.2285 0.0
C846 C 0.12514 0.91922 0.18946 0.0
C847 C 0.12788 0.94787 0.14199 0.0
C848 C 0.13596 0.95609 0.18468 0.0
C849 C 0.12135 0.92955 0.14522 0.0
H850 H 0.13486 0.92062 0.26698 0.0
H851 H 0.13927 0.97072 0.18423 0.0
O852 O 0.13769 0.98802 0.39657 0.0
O853 O 0.15056 0.94912 0.35045 0.0
O854 O 0.11489 0.96769 0.31358 0.0
O855 O 0.15139 0.98519 0.2846 0.0
H856 H 0.14862 0.97571 0.48687 0.0
H857 H 0.10879 0.01022 0.40943 0.0
H858 H 0.13382 0.98398 0.56922 0.0
H859 H 0.09473 0.01791 0.49312 0.0
H860 H 0.20251 0.91421 0.33079 0.0
H861 H 0.16027 0.94734 0.44761 0.0
H862 H 0.17486 0.93035 0.29549 0.0
H863 H 0.18824 0.93107 0.48024 0.0
H864 H 0.08508 0.94765 0.52243 0.0
H865 H 0.11451 0.90184 0.45395 0.0
H866 H 0.19692 0.00525 0.48492 0.0
H867 H 0.22595 0.96827 0.38294 0.0
H868 H 0.10334 0.93343 0.2952 0.0
H869 H 0.08871 0.98541 0.36513 0.0
H870 H 0.07319 0.92048 0.3234 0.0
H871 H 0.05872 0.97161 0.3917 0.0
H872 H 0.16774 0.01721 0.3052 0.0
H873 H 0.17449 0.96431 0.23135 0.0
H874 H 0.19973 0.0256 0.27875 0.0
H875 H 0.20633 0.97366 0.206 0.0
H876 H 0.12265 0.05901 0.29428 0.0
H877 H 0.0773 0.02415 0.24416 0.0
H878 H 0.12028 0.90507 0.19338 0.0
H879 H 0.12557 0.95614 0.10808 0.0
Li880 Li 0.52337 0.15774 0.8558 0.0
Li881 Li 0.53806 0.1276 0.88544 0.0
Li882 Li 0.53629 0.13594 0.79599 0.0
Li883 Li 0.50878 0.1281 0.83883 0.0
C884 C 0.56708 0.15205 0.83172 0.0
N885 N 0.60217 0.1573 0.79156 0.0
C886 C 0.58176 0.14055 0.84658 0.0
C887 C 0.57035 0.16635 0.79684 0.0
C888 C 0.59936 0.14339 0.82575 0.0
C889 C 0.58816 0.16874 0.77685 0.0
C890 C 0.50003 0.13174 0.9345 0.0
C891 C 0.4879 0.10818 0.99064 0.0
N892 N 0.47081 0.1161 0.98741 0.0
C893 C 0.48237 0.13969 0.93187 0.0
C894 C 0.50286 0.11588 0.96419 0.0
C895 C 0.46777 0.13156 0.95883 0.0
C896 C 0.50303 0.18921 0.88847 0.0
N897 N 0.52022 0.18234 0.87868 0.0
C898 C 0.53453 0.20884 0.91626 0.0
C899 C 0.53583 0.19184 0.89133 0.0
C900 C 0.517 0.21598 0.92863 0.0
C901 C 0.50108 0.20613 0.9139 0.0
H902 H 0.49089 0.18124 0.87822 0.0
H903 H 0.5493 0.18584 0.88394 0.0
C904 C 0.55617 0.09845 0.93719 0.0
N905 N 0.55294 0.117 0.93678 0.0
C906 C 0.56846 0.09084 0.97262 0.0
C907 C 0.57366 0.1216 0.00664 0.0
C908 C 0.56124 0.1286 0.97063 0.0
C909 C 0.57741 0.1025 0.00778 0.0
H910 H 0.54936 0.08962 0.90969 0.0
H911 H 0.55854 0.14335 0.96872 0.0
C912 C 0.51027 0.16066 0.75044 0.0
N913 N 0.50674 0.18394 0.66715 0.0
C914 C 0.49876 0.15573 0.70965 0.0
C915 C 0.51976 0.17755 0.74908 0.0
C916 C 0.49722 0.16765 0.66783 0.0
C917 C 0.51787 0.18909 0.70658 0.0
C918 C 0.52669 0.09874 0.79156 0.0
C919 C 0.51597 0.10343 0.749 0.0
C920 C 0.53399 0.08083 0.79559 0.0
C921 C 0.51266 0.09014 0.71135 0.0
C922 C 0.53037 0.06792 0.75712 0.0
N923 N 0.51987 0.0728 0.71615 0.0
C924 C 0.56395 0.11839 0.74409 0.0
C925 C 0.54517 0.13581 0.68731 0.0
C926 C 0.57288 0.10977 0.70354 0.0
N927 N 0.55016 0.13088 0.73551 0.0
C928 C 0.55352 0.1272 0.64543 0.0
C929 C 0.56722 0.11372 0.6537 0.0
H930 H 0.56709 0.11408 0.78261 0.0
H931 H 0.53403 0.14548 0.68109 0.0
C932 C 0.47223 0.12298 0.80196 0.0
N933 N 0.48589 0.11539 0.83099 0.0
C934 C 0.45704 0.11225 0.78701 0.0
C935 C 0.46969 0.0866 0.83529 0.0
C936 C 0.4847 0.09774 0.84882 0.0
C937 C 0.45591 0.09366 0.80267 0.0
H938 H 0.47362 0.13706 0.7883 0.0
H939 H 0.49589 0.09203 0.8714 0.0
O940 O 0.54968 0.14938 0.85149 0.0
O941 O 0.51442 0.13924 0.90747 0.0
O942 O 0.51179 0.14917 0.79181 0.0
O943 O 0.5305 0.11168 0.82844 0.0
H944 H 0.57957 0.12935 0.87326 0.0
H945 H 0.55931 0.17551 0.78514 0.0
H946 H 0.61078 0.1345 0.83665 0.0
H947 H 0.59083 0.17971 0.74964 0.0
H948 H 0.48987 0.09587 0.01363 0.0
H949 H 0.47991 0.15185 0.90867 0.0
H950 H 0.51641 0.1095 0.96647 0.0
H951 H 0.454 0.13749 0.95689 0.0
H952 H 0.5471 0.21591 0.92787 0.0
H953 H 0.48735 0.21127 0.92293 0.0
H954 H 0.5709 0.07602 0.97265 0.0
H955 H 0.58053 0.13106 0.03261 0.0
H956 H 0.49122 0.14276 0.70997 0.0
H957 H 0.52841 0.18179 0.78054 0.0
H958 H 0.48847 0.16394 0.63589 0.0
H959 H 0.5252 0.20217 0.70503 0.0
H960 H 0.51035 0.11722 0.74483 0.0
H961 H 0.54247 0.07695 0.82791 0.0
H962 H 0.50442 0.09363 0.67822 0.0
H963 H 0.53595 0.05402 0.75979 0.0
H964 H 0.58319 0.09918 0.71114 0.0
H965 H 0.54882 0.13043 0.6072 0.0
H966 H 0.44687 0.11814 0.76125 0.0
H967 H 0.46924 0.07237 0.84852 0.0
Li968 Li 0.33691 0.52134 0.35012 0.0
Li969 Li 0.36565 0.53591 0.36895 0.0
Li970 Li 0.35386 0.53738 0.28319 0.0
Li971 Li 0.36602 0.50755 0.31818 0.0
C972 C 0.33367 0.55797 0.3819 0.0
N973 N 0.31518 0.57732 0.45727 0.0
C974 C 0.33445 0.55194 0.43248 0.0
C975 C 0.32351 0.57386 0.36961 0.0
C976 C 0.32501 0.56189 0.47005 0.0
C977 C 0.31424 0.58345 0.40826 0.0
C978 C 0.36589 0.50352 0.43237 0.0
C979 C 0.39154 0.48824 0.47404 0.0
N980 N 0.38232 0.48919 0.51919 0.0
C981 C 0.35659 0.50418 0.47916 0.0
C982 C 0.38345 0.49536 0.42974 0.0
C983 C 0.36516 0.49694 0.52262 0.0
C984 C 0.31291 0.50013 0.40907 0.0
N985 N 0.31353 0.51523 0.37807 0.0
C986 C 0.28244 0.52333 0.39996 0.0
C987 C 0.29862 0.52657 0.37212 0.0
C988 C 0.28181 0.5084 0.4343 0.0
C989 C 0.29712 0.49652 0.43812 0.0
H990 H 0.32497 0.49133 0.41285 0.0
H991 H 0.29957 0.53858 0.34756 0.0
C992 C 0.37871 0.56977 0.40435 0.0
N993 N 0.37896 0.55138 0.41596 0.0
C994 C 0.38754 0.58262 0.43589 0.0
C995 C 0.39672 0.55741 0.4911 0.0
C996 C 0.38791 0.54503 0.45814 0.0
C997 C 0.39648 0.5765 0.48035 0.0
H998 H 0.37165 0.57447 0.37031 0.0
H999 H 0.38821 0.53046 0.46674 0.0
C1000 C 0.32627 0.5122 0.25185 0.0
N1001 N 0.29372 0.51222 0.1962 0.0
C1002 C 0.32009 0.49592 0.22843 0.0
C1003 C 0.31591 0.5285 0.24694 0.0
C1004 C 0.3036 0.49622 0.20044 0.0
C1005 C 0.29949 0.52822 0.21867 0.0
C1006 C 0.39633 0.53845 0.31158 0.0
C1007 C 0.39961 0.55693 0.29819 0.0
C1008 C 0.41075 0.52779 0.33189 0.0
C1009 C 0.4172 0.56454 0.30613 0.0
C1010 C 0.42814 0.53591 0.3393 0.0
N1011 N 0.43098 0.55397 0.32642 0.0
C1012 C 0.35645 0.57025 0.22683 0.0
C1013 C 0.35952 0.5423 0.17968 0.0
C1014 C 0.36429 0.58038 0.1869 0.0
N1015 N 0.35504 0.55151 0.22315 0.0
C1016 C 0.36719 0.55191 0.13863 0.0
C1017 C 0.37053 0.571 0.14327 0.0
H1018 H 0.35328 0.57704 0.26257 0.0
H1019 H 0.35873 0.52732 0.1787 0.0
C1020 C 0.37716 0.46925 0.31887 0.0
N1021 N 0.37883 0.48621 0.29662 0.0
C1022 C 0.38744 0.45424 0.30033 0.0
C1023 C 0.40032 0.47444 0.23566 0.0
C1024 C 0.38992 0.48899 0.25552 0.0
C1025 C 0.39928 0.45684 0.25833 0.0
H1026 H 0.36806 0.46746 0.3513 0.0
H1027 H 0.39072 0.5026 0.23829 0.0
O1028 O 0.34262 0.54836 0.34427 0.0
O1029 O 0.35759 0.51033 0.38926 0.0
O1030 O 0.34233 0.51205 0.27964 0.0
O1031 O 0.37914 0.53079 0.30456 0.0
H1032 H 0.34228 0.53973 0.44257 0.0
H1033 H 0.32274 0.57868 0.33055 0.0
H1034 H 0.3255 0.55736 0.50937 0.0
H1035 H 0.3063 0.59576 0.3993 0.0
H1036 H 0.40516 0.48196 0.47252 0.0
H1037 H 0.34288 0.51018 0.48202 0.0
H1038 H 0.39082 0.49458 0.39401 0.0
H1039 H 0.35815 0.49743 0.55906 0.0
H1040 H 0.27092 0.53291 0.39668 0.0
H1041 H 0.29704 0.48489 0.46433 0.0
H1042 H 0.38745 0.59714 0.42536 0.0
H1043 H 0.40344 0.55211 0.52506 0.0
H1044 H 0.32796 0.48319 0.23194 0.0
H1045 H 0.32043 0.54122 0.2649 0.0
H1046 H 0.29864 0.48372 0.18212 0.0
H1047 H 0.29131 0.54072 0.21465 0.0
H1048 H 0.38867 0.56539 0.28237 0.0
H1049 H 0.40857 0.5134 0.34162 0.0
H1050 H 0.41988 0.57886 0.29623 0.0
H1051 H 0.4394 0.52784 0.35517 0.0
H1052 H 0.36674 0.59511 0.19157 0.0
H1053 H 0.37204 0.54427 0.10565 0.0
H1054 H 0.38648 0.44092 0.31927 0.0
H1055 H 0.40915 0.47694 0.20294 0.0
Li1056 Li 0.96897 0.14055 0.20113 0.0
Li1057 Li 0.99797 0.13587 0.1584 0.0
Li1058 Li 0.97979 0.1641 0.14033 0.0
Li1059 Li 0.96995 0.13363 0.10978 0.0
C1060 C 0.99028 0.16936 0.244 0.0
N1061 N 0.98757 0.19566 0.32022 0.0
C1062 C 0.00338 0.16984 0.28326 0.0
C1063 C 0.97586 0.18229 0.24335 0.0
C1064 C 0.00176 0.18323 0.32151 0.0
C1065 C 0.97471 0.19548 0.28225 0.0
C1066 C 0.98678 0.10208 0.18042 0.0
C1067 C 0.00624 0.076 0.15869 0.0
N1068 N 0.00699 0.07113 0.20876 0.0
C1069 C 0.98771 0.09676 0.23167 0.0
C1070 C 0.99604 0.09154 0.14359 0.0
C1071 C 0.99799 0.08107 0.2452 0.0
C1072 C 0.94443 0.11893 0.25336 0.0
N1073 N 0.95535 0.13404 0.26089 0.0
C1074 C 0.94859 0.1336 0.35022 0.0
C1075 C 0.95746 0.1416 0.30811 0.0
C1076 C 0.93755 0.11773 0.34336 0.0
C1077 C 0.93528 0.11061 0.29403 0.0
H1078 H 0.94351 0.11276 0.21592 0.0
H1079 H 0.96654 0.15332 0.31372 0.0
C1080 C 0.03394 0.12126 0.13351 0.0
N1081 N 0.02186 0.12597 0.17107 0.0
C1082 C 0.04962 0.11064 0.14508 0.0
C1083 C 0.04044 0.11085 0.23376 0.0
C1084 C 0.02525 0.12178 0.22068 0.0
C1085 C 0.05249 0.10453 0.19547 0.0
H1086 H 0.03099 0.12501 0.09442 0.0
H1087 H 0.01538 0.12583 0.24967 0.0
C1088 C 0.93648 0.15224 0.15692 0.0
N1089 N 0.89923 0.15076 0.182 0.0
C1090 C 0.92617 0.13618 0.1474 0.0
C1091 C 0.92775 0.16761 0.17892 0.0
C1092 C 0.90739 0.13569 0.16043 0.0
C1093 C 0.90894 0.16657 0.19141 0.0
C1094 C 0.99266 0.14539 0.03981 0.0
C1095 C 0.98597 0.15969 0.00884 0.0
C1096 C 0.99851 0.12877 0.01757 0.0
C1097 C 0.98507 0.15705 0.95612 0.0
C1098 C 0.99736 0.12665 0.96471 0.0
N1099 N 0.99071 0.14071 0.93533 0.0
C1100 C 0.99741 0.19764 0.1133 0.0
C1101 C 0.96473 0.19697 0.10259 0.0
C1102 C 0.99846 0.21467 0.08796 0.0
N1103 N 0.98074 0.18912 0.11934 0.0
C1104 C 0.96513 0.21395 0.07728 0.0
C1105 C 0.98219 0.22285 0.06893 0.0
H1106 H 0.00994 0.19077 0.12595 0.0
H1107 H 0.95178 0.18953 0.10629 0.0
C1108 C 0.95538 0.10325 0.05397 0.0
N1109 N 0.95648 0.12204 0.05644 0.0
C1110 C 0.94349 0.09482 0.01898 0.0
C1111 C 0.93423 0.12525 0.98949 0.0
C1112 C 0.94633 0.13309 0.02499 0.0
C1113 C 0.9325 0.10588 0.98687 0.0
H1114 H 0.96318 0.09483 0.08041 0.0
H1115 H 0.94722 0.14801 0.02866 0.0
O1116 O 0.99172 0.15632 0.20636 0.0
O1117 O 0.97721 0.11771 0.16652 0.0
O1118 O 0.95494 0.15302 0.14441 0.0
O1119 O 0.99329 0.14755 0.09164 0.0
H1120 H 0.01468 0.15995 0.28421 0.0
H1121 H 0.96567 0.18212 0.21326 0.0
H1122 H 0.01177 0.18374 0.35221 0.0
H1123 H 0.96358 0.20555 0.28225 0.0
H1124 H 0.01362 0.06785 0.13063 0.0
H1125 H 0.9809 0.10483 0.26091 0.0
H1126 H 0.99562 0.09548 0.10385 0.0
H1127 H -0.00108 0.07689 0.28475 0.0
H1128 H 0.95096 0.13929 0.38788 0.0
H1129 H 0.92687 0.09841 0.28713 0.0
H1130 H 0.05895 0.10668 0.11464 0.0
H1131 H 0.04201 0.10647 0.27303 0.0
H1132 H 0.93261 0.12405 0.131 0.0
H1133 H 0.93532 0.18027 0.18617 0.0
H1134 H 0.89932 0.12329 0.15353 0.0
H1135 H 0.90204 0.17836 0.20851 0.0
H1136 H 0.98136 0.17264 0.02525 0.0
H1137 H 0.00373 0.11756 0.04088 0.0
H1138 H 0.97983 0.16797 0.93174 0.0
H1139 H 0.00173 0.11382 0.94704 0.0
H1140 H 0.01187 0.2211 0.08195 0.0
H1141 H 0.95234 0.21957 0.06199 0.0
H1142 H 0.94241 0.07984 0.01825 0.0
H1143 H 0.92616 0.13421 0.96483 0.0
Li1144 Li 0.36611 0.99097 0.67208 0.0
Li1145 Li 0.35666 0.9615 0.70364 0.0
Li1146 Li 0.36691 0.96333 0.61774 0.0
Li1147 Li 0.33646 0.97622 0.64375 0.0
C1148 C 0.39931 0.97246 0.66548 0.0
N1149 N 0.43551 0.98044 0.63847 0.0
C1150 C 0.41404 0.96522 0.69387 0.0
C1151 C 0.403 0.98379 0.62336 0.0
C1152 C 0.43224 0.96941 0.6796 0.0
C1153 C 0.42139 0.98764 0.61032 0.0
C1154 C 0.33571 0.98679 0.75903 0.0
C1155 C 0.30905 0.98519 0.8144 0.0
N1156 N 0.32001 0.9897 0.85479 0.0
C1157 C 0.34667 0.9916 0.80096 0.0
C1158 C 0.31671 0.98373 0.76563 0.0
C1159 C 0.33849 0.99293 0.84911 0.0
C1160 C 0.37827 0.02928 0.66786 0.0
N1161 N 0.37903 0.01262 0.69218 0.0
C1162 C 0.40183 0.02393 0.75027 0.0
C1163 C 0.39029 0.00984 0.73301 0.0
C1164 C 0.40168 0.04115 0.72556 0.0
C1165 C 0.38955 0.04395 0.68431 0.0
H1166 H 0.36924 0.03103 0.63525 0.0
H1167 H 0.39063 0.99642 0.75146 0.0
C1168 C 0.37551 0.93476 0.75338 0.0
N1169 N 0.36025 0.94546 0.76087 0.0
C1170 C 0.38222 0.92348 0.79212 0.0
C1171 C 0.35674 0.93344 0.84536 0.0
C1172 C 0.3505 0.94468 0.80529 0.0
C1173 C 0.37296 0.92286 0.83907 0.0
H1174 H 0.38283 0.93541 0.71751 0.0
H1175 H 0.33811 0.95288 0.81011 0.0
C1176 C 0.3507 0.98944 0.55111 0.0
N1177 N 0.33824 0.99169 0.45162 0.0
C1178 C 0.34141 0.97443 0.52891 0.0
C1179 C 0.35364 0.00557 0.5227 0.0
C1180 C 0.33522 0.97585 0.47858 0.0
C1181 C 0.34726 0.00643 0.47244 0.0
C1182 C 0.33808 0.9341 0.66497 0.0
C1183 C 0.34468 0.91676 0.64955 0.0
C1184 C 0.32468 0.93513 0.7034 0.0
C1185 C 0.3381 0.90078 0.67372 0.0
C1186 C 0.31844 0.91885 0.72664 0.0
N1187 N 0.32525 0.90215 0.71151 0.0
C1188 C 0.38723 0.9334 0.58526 0.0
C1189 C 0.38482 0.95627 0.52064 0.0
C1190 C 0.39709 0.92172 0.5528 0.0
N1191 N 0.38091 0.95006 0.56842 0.0
C1192 C 0.3948 0.94508 0.4869 0.0
C1193 C 0.40091 0.92748 0.50279 0.0
H1194 H 0.38439 0.9291 0.62396 0.0
H1195 H 0.38022 0.96984 0.50857 0.0
C1196 C 0.30779 0.99762 0.59961 0.0
N1197 N 0.31213 0.98064 0.61887 0.0
C1198 C 0.29114 0.00023 0.57317 0.0
C1199 C 0.28348 0.96808 0.58903 0.0
C1200 C 0.30034 0.96603 0.6144 0.0
C1201 C 0.27887 0.98527 0.56743 0.0
H1202 H 0.31762 0.0089 0.60286 0.0
H1203 H 0.30433 0.95256 0.6285 0.0
O1204 O 0.38142 0.96847 0.67933 0.0
O1205 O 0.34335 0.98574 0.71142 0.0
O1206 O 0.35652 0.98862 0.60074 0.0
O1207 O 0.34457 0.94997 0.6424 0.0
H1208 H 0.41145 0.95651 0.72672 0.0
H1209 H 0.39186 0.9896 0.60091 0.0
H1210 H 0.44377 0.9639 0.70126 0.0
H1211 H 0.42443 0.99638 0.57783 0.0
H1212 H 0.29438 0.98278 0.82013 0.0
H1213 H 0.36136 0.99412 0.79652 0.0
H1214 H 0.30797 0.98032 0.73339 0.0
H1215 H 0.34683 0.99651 0.88198 0.0
H1216 H 0.41099 0.02133 0.78227 0.0
H1217 H 0.38925 0.05707 0.66419 0.0
H1218 H 0.39501 0.91591 0.78596 0.0
H1219 H 0.34919 0.93325 0.88105 0.0
H1220 H 0.33898 0.96182 0.55021 0.0
H1221 H 0.36074 0.01733 0.53943 0.0
H1222 H 0.32799 0.96437 0.46096 0.0
H1223 H 0.34943 0.01884 0.45001 0.0
H1224 H 0.35462 0.91557 0.61894 0.0
H1225 H 0.31933 0.9484 0.7156 0.0
H1226 H 0.34316 0.88728 0.66229 0.0
H1227 H 0.30823 0.9195 0.75679 0.0
H1228 H 0.40125 0.90817 0.5664 0.0
H1229 H 0.39768 0.9501 0.44877 0.0
H1230 H 0.28803 0.01365 0.55664 0.0
H1231 H 0.27449 0.95615 0.5844 0.0
Li1232 Li 0.50157 0.36533 0.15425 0.0
Li1233 Li 0.52857 0.36046 0.20206 0.0
Li1234 Li 0.5316 0.36764 0.11174 0.0
Li1235 Li 0.51848 0.33668 0.14324 0.0
C1236 C 0.51389 0.39775 0.19286 0.0
N1237 N 0.49661 0.42609 0.24569 0.0
C1238 C 0.50645 0.3945 0.24128 0.0
C1239 C 0.51252 0.41545 0.17133 0.0
C1240 C 0.49779 0.40899 0.26737 0.0
C1241 C 0.50374 0.42959 0.19864 0.0
C1242 C 0.50499 0.33546 0.24953 0.0
C1243 C 0.51332 0.30838 0.29856 0.0
N1244 N 0.50416 0.31546 0.3395 0.0
C1245 C 0.49554 0.34241 0.29202 0.0
C1246 C 0.51385 0.31825 0.25272 0.0
C1247 C 0.49533 0.33212 0.33718 0.0
C1248 C 0.46559 0.37132 0.19331 0.0
N1249 N 0.47789 0.37676 0.157 0.0
C1250 C 0.46041 0.40413 0.14006 0.0
C1251 C 0.47524 0.39243 0.12915 0.0
C1252 C 0.44828 0.39961 0.18003 0.0
C1253 C 0.45053 0.38265 0.20557 0.0
H1254 H 0.46818 0.35887 0.21512 0.0
H1255 H 0.48547 0.39659 0.10125 0.0
C1256 C 0.55185 0.38264 0.25661 0.0
N1257 N 0.54208 0.36667 0.26276 0.0
C1258 C 0.56249 0.38975 0.2962 0.0
C1259 C 0.55321 0.36372 0.34839 0.0
C1260 C 0.54272 0.35701 0.30738 0.0
C1261 C 0.5633 0.38025 0.34273 0.0
H1262 H 0.55143 0.38991 0.22058 0.0
H1263 H 0.53527 0.34413 0.31131 0.0
C1264 C 0.49515 0.35861 0.05674 0.0
N1265 N 0.46614 0.36863 0.99368 0.0
C1266 C 0.47805 0.3496 0.06071 0.0
C1267 C 0.49757 0.37262 0.0205 0.0
C1268 C 0.46353 0.35491 0.02856 0.0
C1269 C 0.48271 0.37751 0.989 0.0
C1270 C 0.56045 0.34584 0.17457 0.0
C1271 C 0.574 0.35949 0.16763 0.0
C1272 C 0.56386 0.33105 0.20777 0.0
C1273 C 0.59065 0.35825 0.19469 0.0
C1274 C 0.58069 0.33031 0.23411 0.0
N1275 N 0.59362 0.34383 0.22714 0.0
C1276 C 0.55006 0.39681 0.06064 0.0
C1277 C 0.55627 0.3664 0.0306 0.0
C1278 C 0.56282 0.40425 0.02626 0.0
N1279 N 0.54707 0.37822 0.06201 0.0
C1280 C 0.56924 0.37322 0.99586 0.0
C1281 C 0.57262 0.39238 0.99343 0.0
H1282 H 0.54281 0.40579 0.08683 0.0
H1283 H 0.55381 0.35163 0.03349 0.0
C1284 C 0.50072 0.30358 0.11215 0.0
N1285 N 0.51735 0.3119 0.1208 0.0
C1286 C 0.49987 0.28726 0.08352 0.0
C1287 C 0.53333 0.28792 0.07629 0.0
C1288 C 0.53353 0.30423 0.10473 0.0
C1289 C 0.51629 0.27968 0.06364 0.0
H1290 H 0.48809 0.31017 0.12498 0.0
H1291 H 0.5465 0.31133 0.11156 0.0
O1292 O 0.52165 0.38349 0.16568 0.0
O1293 O 0.50515 0.34528 0.20485 0.0
O1294 O 0.50949 0.35376 0.08817 0.0
O1295 O 0.5438 0.34715 0.14976 0.0
H1296 H 0.50714 0.38087 0.25824 0.0
H1297 H 0.51785 0.41818 0.13354 0.0
H1298 H 0.4919 0.40661 0.30476 0.0
H1299 H 0.50249 0.44331 0.18229 0.0
H1300 H 0.52019 0.29508 0.30159 0.0
H1301 H 0.48847 0.35562 0.29027 0.0
H1302 H 0.52113 0.31257 0.22033 0.0
H1303 H 0.48815 0.33737 0.37038 0.0
H1304 H 0.45907 0.41711 0.11958 0.0
H1305 H 0.44159 0.37885 0.23708 0.0
H1306 H 0.56984 0.4027 0.29064 0.0
H1307 H 0.55358 0.35603 0.38388 0.0
H1308 H 0.47594 0.33881 0.08878 0.0
H1309 H 0.51073 0.37972 0.01696 0.0
H1310 H 0.45017 0.34814 0.03141 0.0
H1311 H 0.48434 0.38837 0.96089 0.0
H1312 H 0.57156 0.37108 0.14229 0.0
H1313 H 0.55356 0.32034 0.21345 0.0
H1314 H 0.60118 0.36881 0.19007 0.0
H1315 H 0.58346 0.31902 0.26019 0.0
H1316 H 0.56504 0.41911 0.02542 0.0
H1317 H 0.57681 0.36358 0.972 0.0
H1318 H 0.48649 0.28123 0.07463 0.0
H1319 H 0.5463 0.28222 0.06257 0.0
Li1320 Li 0.14594 0.53754 0.71932 0.0
Li1321 Li 0.13297 0.5112 0.67533 0.0
Li1322 Li 0.16487 0.52237 0.65479 0.0
Li1323 Li 0.13697 0.54005 0.62904 0.0
C1324 C 0.16748 0.50723 0.75804 0.0
N1325 N 0.19209 0.49828 0.83513 0.0
C1326 C 0.16282 0.49376 0.79422 0.0
C1327 C 0.18477 0.5159 0.76063 0.0
C1328 C 0.17541 0.4895 0.83304 0.0
C1329 C 0.197 0.51126 0.79997 0.0
C1330 C 0.10356 0.53056 0.70192 0.0
C1331 C 0.07309 0.51932 0.67957 0.0
N1332 N 0.06833 0.51929 0.72975 0.0
C1333 C 0.0983 0.53056 0.75325 0.0
C1334 C 0.0908 0.52505 0.66473 0.0
C1335 C 0.08045 0.52478 0.76654 0.0
C1336 C 0.13655 0.56811 0.77636 0.0
N1337 N 0.14336 0.55065 0.78172 0.0
C1338 C 0.13517 0.55046 0.87008 0.0
C1339 C 0.14331 0.54191 0.82773 0.0
C1340 C 0.12717 0.56813 0.8647 0.0
C1341 C 0.12876 0.57729 0.81771 0.0
H1342 H 0.13565 0.57434 0.73904 0.0
H1343 H 0.14794 0.52772 0.83068 0.0
C1344 C 0.111 0.47941 0.6487 0.0
N1345 N 0.11774 0.49017 0.68702 0.0
C1346 C 0.09896 0.46474 0.65975 0.0
C1347 C 0.10155 0.47227 0.74936 0.0
C1348 C 0.11342 0.48678 0.73659 0.0
C1349 C 0.094 0.46118 0.71064 0.0
H1350 H 0.11481 0.48231 0.60966 0.0
H1351 H 0.1189 0.49568 0.76615 0.0
C1352 C 0.16551 0.56661 0.67719 0.0
N1353 N 0.17606 0.60161 0.70946 0.0
C1354 C 0.15745 0.58244 0.6556 0.0
C1355 C 0.17907 0.56867 0.71494 0.0
C1356 C 0.16294 0.59998 0.67247 0.0
C1357 C 0.18417 0.58646 0.73082 0.0
C1358 C 0.14177 0.51485 0.55577 0.0
C1359 C 0.1568 0.51752 0.52285 0.0
C1360 C 0.12393 0.51282 0.53554 0.0
C1361 C 0.15371 0.51819 0.47028 0.0
C1362 C 0.12141 0.51363 0.48276 0.0
N1363 N 0.13623 0.51626 0.45148 0.0
C1364 C 0.19063 0.49864 0.60846 0.0
C1365 C 0.20204 0.52864 0.62887 0.0
C1366 C 0.20652 0.49483 0.57991 0.0
N1367 N 0.18852 0.51552 0.63084 0.0
C1368 C 0.21827 0.52528 0.60157 0.0
C1369 C 0.2203 0.50846 0.57536 0.0
H1370 H 0.17943 0.48866 0.60995 0.0
H1371 H 0.19978 0.54205 0.64621 0.0
C1372 C 0.10985 0.56384 0.58836 0.0
N1373 N 0.1268 0.55627 0.57922 0.0
C1374 C 0.10207 0.57626 0.55363 0.0
C1375 C 0.12944 0.57308 0.50102 0.0
C1376 C 0.13679 0.56089 0.53711 0.0
C1377 C 0.11188 0.58091 0.50926 0.0
H1378 H 0.10242 0.56034 0.62281 0.0
H1379 H 0.15055 0.55527 0.53181 0.0
O1380 O 0.15529 0.51153 0.71974 0.0
O1381 O 0.12115 0.5357 0.6882 0.0
O1382 O 0.16028 0.54929 0.66104 0.0
O1383 O 0.14447 0.51424 0.60745 0.0
H1384 H 0.14962 0.48667 0.79248 0.0
H1385 H 0.18881 0.52593 0.73228 0.0
H1386 H 0.17193 0.47918 0.86144 0.0
H1387 H 0.21042 0.51792 0.80242 0.0
H1388 H 0.06314 0.51487 0.65119 0.0
H1389 H 0.10793 0.53478 0.7826 0.0
H1390 H 0.09458 0.52506 0.62485 0.0
H1391 H 0.07625 0.5246 0.80614 0.0
H1392 H 0.13383 0.5427 0.90526 0.0
H1393 H 0.12278 0.59092 0.81196 0.0
H1394 H 0.09358 0.45629 0.62896 0.0
H1395 H 0.09792 0.47003 0.78897 0.0
H1396 H 0.14698 0.58128 0.62638 0.0
H1397 H 0.18552 0.55675 0.73228 0.0
H1398 H 0.15673 0.6123 0.6562 0.0
H1399 H 0.19456 0.5882 0.7602 0.0
H1400 H 0.17066 0.5194 0.5376 0.0
H1401 H 0.11214 0.51077 0.5603 0.0
H1402 H 0.16521 0.52033 0.44443 0.0
H1403 H 0.10767 0.51217 0.46665 0.0
H1404 H 0.20772 0.48173 0.55993 0.0
H1405 H 0.22862 0.53612 0.59834 0.0
H1406 H 0.0884 0.5819 0.56089 0.0
H1407 H 0.1374 0.57646 0.46724 0.0
C1408 C 0.00524 0.73858 0.00944 0.0
C1409 C 0.02277 0.73267 0.02665 0.0
C1410 C 0.00343 0.75411 0.97764 0.0
C1411 C 0.01909 0.76421 0.96177 0.0
H1412 H 0.99286 0.73102 0.02018 0.0
H1413 H 0.9897 0.75823 0.96523 0.0
S1414 S 0.0679 0.75532 -0.00063 0.0
N1415 N 0.05596 0.73869 0.02761 0.0
N1416 N 0.05255 0.76783 0.96768 0.0
C1417 C 0.03666 0.75855 0.97904 0.0
C1418 C 0.03851 0.74279 0.01152 0.0
C1419 C 0.74341 -0.0006 0.48019 0.0
C1420 C 0.73194 0.01471 0.46977 0.0
C1421 C 0.75939 0.00135 0.51031 0.0
C1422 C 0.76433 0.01863 0.53129 0.0
H1423 H 0.74016 0.98592 0.4643 0.0
H1424 H 0.76812 0.98931 0.51641 0.0
S1425 S 0.73767 0.06246 0.51994 0.0
N1426 N 0.72581 0.04735 0.48563 0.0
N1427 N 0.75569 0.05097 0.54263 0.0
C1428 C 0.75265 0.0339 0.52226 0.0
C1429 C 0.73649 0.03195 0.49143 0.0
C1430 C 0.46464 0.74883 0.01978 0.0
C1431 C 0.47972 0.76098 0.02677 0.0
C1432 C 0.4658 0.73382 0.98612 0.0
C1433 C 0.48212 0.73032 0.95855 0.0
H1434 H 0.45184 0.75088 0.04067 0.0
H1435 H 0.45393 0.72471 0.9822 0.0
S1436 S 0.52519 0.7583 0.96073 0.0
N1437 N 0.51121 0.76891 0.00123 0.0
N1438 N 0.51351 0.74022 0.93913 0.0
C1439 C 0.49731 0.74224 0.96504 0.0
C1440 C 0.49609 0.75769 -0.0011 0.0
C1441 C 0.74866 0.46866 0.5331 0.0
C1442 C 0.7357 0.48322 0.53353 0.0
C1443 C 0.76485 0.46981 0.5039 0.0
C1444 C 0.76859 0.48549 0.47368 0.0
H1445 H 0.7462 0.45622 0.55532 0.0
H1446 H 0.77433 0.45815 0.50416 0.0
S1447 S 0.73919 0.52749 0.46217 0.0
N1448 N 0.72767 0.51385 0.50169 0.0
N1449 N 0.75828 0.51609 0.44689 0.0
C1450 C 0.75585 0.50024 0.47414 0.0
C1451 C 0.73938 0.49911 0.50419 0.0
C1452 C 0.99483 0.25532 0.96034 0.0
C1453 C 0.98216 0.26995 0.96667 0.0
C1454 C 0.9952 0.24039 0.99469 0.0
C1455 C 0.98301 0.2397 0.0366 0.0
H1456 H 0.00411 0.25515 0.92786 0.0
H1457 H 0.00466 0.22902 0.98739 0.0
S1458 S 0.9491 0.27592 0.07375 0.0
N1459 N 0.95842 0.28376 0.02042 0.0
N1460 N 0.9592 0.25578 0.08508 0.0
C1461 C 0.97088 0.25468 0.04451 0.0
C1462 C 0.97045 0.26979 0.00953 0.0
C1463 C 0.26311 0.99257 0.48492 0.0
C1464 C 0.26186 0.98707 0.53631 0.0
C1465 C 0.24739 0.99258 0.45331 0.0
C1466 C 0.22992 0.98741 0.47239 0.0
H1467 H 0.27641 0.99632 0.4687 0.0
H1468 H 0.24891 0.99658 0.41369 0.0
S1469 S 0.21932 0.97234 0.60448 0.0
N1470 N 0.24182 0.97667 0.60503 0.0
N1471 N 0.21226 0.97679 0.5458 0.0
C1472 C 0.22847 0.98225 0.52394 0.0
C1473 C 0.24445 0.98205 0.55588 0.0
C1474 C 0.50552 0.23255 0.00617 0.0
C1475 C 0.51554 0.23293 0.96013 0.0
C1476 C 0.50557 0.24782 0.03927 0.0
C1477 C 0.51566 0.26395 0.02738 0.0
H1478 H 0.49811 0.22013 0.01747 0.0
H1479 H 0.49809 0.24683 0.07499 0.0
S1480 S 0.54208 0.27271 0.90831 0.0
N1481 N 0.53442 0.25124 0.90227 0.0
N1482 N 0.53439 0.28004 0.9641 0.0
C1483 C 0.52507 0.26475 0.98042 0.0
C1484 C 0.52505 0.24922 0.9469 0.0
C1485 C 0.26907 0.50715 0.5225 0.0
C1486 C 0.26598 0.50635 0.46956 0.0
C1487 C 0.25421 0.50724 0.55687 0.0
C1488 C 0.23583 0.50614 0.53937 0.0
H1489 H 0.28305 0.50845 0.5373 0.0
H1490 H 0.25705 0.50854 0.59729 0.0
S1491 S 0.22043 0.50294 0.40477 0.0
N1492 N 0.2433 0.50389 0.40136 0.0
N1493 N 0.2153 0.50373 0.46613 0.0
C1494 C 0.23258 0.50469 0.4867 0.0
C1495 C 0.24769 0.5049 0.45169 0.0
C1496 C 0.08531 0.59059 0.92639 0.0
C1497 C 0.08999 0.59091 0.97829 0.0
C1498 C 0.09743 0.58311 0.89033 0.0
C1499 C 0.11486 0.57592 0.90465 0.0
H1500 H 0.07209 0.59605 0.91364 0.0
H1501 H 0.09301 0.58282 0.85084 0.0
S1502 S 0.13383 0.57422 0.03609 0.0
N1503 N 0.11309 0.58368 0.04273 0.0
N1504 N 0.13625 0.56994 0.97454 0.0
C1505 C 0.11969 0.57616 0.95662 0.0
C1506 C 0.10718 0.58362 0.99353 0.0
C1507 C 0.93141 0.08835 0.39076 0.0
C1508 C 0.92928 0.10771 0.3872 0.0
C1509 C 0.92286 0.0782 0.42968 0.0
C1510 C 0.91181 0.08702 0.46656 0.0
H1511 H 0.93964 0.08092 0.36287 0.0
H1512 H 0.9245 0.06326 0.43 0.0
S1513 S 0.90273 0.13757 0.47617 0.0
N1514 N 0.91585 0.13543 0.42487 0.0
N1515 N 0.90005 0.11637 0.49894 0.0
C1516 C 0.91 0.10645 0.46443 0.0
C1517 C 0.91872 0.1168 0.42465 0.0
C1518 C 0.39508 0.91312 0.96725 0.0
C1519 C 0.40318 0.89554 0.96002 0.0
C1520 C 0.38434 0.92143 0.92899 0.0
C1521 C 0.38132 0.91247 0.88209 0.0
H1522 H 0.39737 0.92068 0.0024 0.0
H1523 H 0.37911 0.93533 0.9353 0.0
S1524 S 0.39815 0.86573 0.84537 0.0
N1525 N 0.40676 0.86915 0.90294 0.0
N1526 N 0.38593 0.88448 0.83204 0.0
C1527 C 0.38853 0.89452 0.87534 0.0
C1528 C 0.39961 0.88612 0.91404 0.0
C1529 C 0.56565 0.39184 0.43233 0.0
C1530 C 0.57421 0.38817 0.38526 0.0
C1531 C 0.57499 0.4017 0.47061 0.0
C1532 C 0.59326 0.40807 0.46322 0.0
H1533 H 0.5514 0.38769 0.43885 0.0
H1534 H 0.56779 0.40459 0.50599 0.0
S1535 S 0.6221 0.40103 0.34763 0.0
N1536 N 0.60224 0.3907 0.33427 0.0
N1537 N 0.61971 0.40952 0.40574 0.0
C1538 C 0.60216 0.40392 0.41691 0.0
C1539 C 0.59266 0.39391 0.37803 0.0
C1540 C 0.11118 0.90405 0.08633 0.0
C1541 C 0.10866 0.92207 0.10572 0.0
C1542 C 0.09858 0.89643 0.05134 0.0
C1543 C 0.08304 0.90657 0.03459 0.0
H1544 H 0.12295 0.8958 0.09836 0.0
H1545 H 0.10103 0.88254 0.03709 0.0
S1546 S 0.06927 0.95362 0.07698 0.0
N1547 N 0.08879 0.94937 0.1078 0.0
N1548 N 0.06533 0.93509 0.04163 0.0
C1549 C 0.08029 0.9245 0.05388 0.0
C1550 C 0.09304 0.93224 0.08956 0.0
C1551 C 0.5932 0.1015 0.60079 0.0
C1552 C 0.57415 0.10208 0.61166 0.0
C1553 C 0.60027 0.08893 0.56502 0.0
C1554 C 0.58855 0.07634 0.53952 0.0
H1555 H 0.6027 0.11068 0.62054 0.0
H1556 H 0.61505 0.08902 0.55742 0.0
S1557 S 0.5377 0.07167 0.55757 0.0
N1558 N 0.54373 0.08886 0.59574 0.0
N1559 N 0.55701 0.06488 0.52925 0.0
C1560 C 0.56944 0.07683 0.55023 0.0
C1561 C 0.56224 0.08978 0.58622 0.0
C1562 C 0.37919 0.58037 0.0545 0.0
C1563 C 0.38318 0.58022 0.10691 0.0
C1564 C 0.39197 0.58755 0.01933 0.0
C1565 C 0.40927 0.59457 0.03537 0.0
H1566 H 0.36617 0.57479 0.04066 0.0
H1567 H 0.3883 0.58758 0.97926 0.0
S1568 S 0.42681 0.59576 0.16844 0.0
N1569 N 0.40576 0.5869 0.17319 0.0
N1570 N 0.42996 0.60002 0.10716 0.0
C1571 C 0.41341 0.59434 0.08779 0.0
C1572 C 0.40033 0.58722 0.12353 0.0
C1573 C 0.92053 0.41361 0.60756 0.0
C1574 C 0.92279 0.39453 0.59764 0.0
C1575 C 0.91367 0.42567 0.57033 0.0
C1576 C 0.90904 0.41917 0.52156 0.0
H1577 H 0.92412 0.41931 0.6445 0.0
H1578 H 0.91199 0.44021 0.57975 0.0
S1579 S 0.9121 0.3706 0.476 0.0
N1580 N 0.91965 0.36972 0.53546 0.0
N1581 N 0.90698 0.39258 0.46493 0.0
C1582 C 0.91147 0.40024 0.51063 0.0
C1583 C 0.91834 0.38788 0.54878 0.0
C1584 C 0.8952 0.41784 0.01116 0.0
C1585 C 0.90912 0.40554 0.02771 0.0
C1586 C 0.88314 0.4263 0.046 0.0
C1587 C 0.8845 0.42267 0.09855 0.0
H1588 H 0.89369 0.42102 0.97099 0.0
H1589 H 0.8728 0.43592 0.03179 0.0
S1590 S 0.9191 0.39213 0.1615 0.0
N1591 N 0.92392 0.39055 0.10012 0.0
N1592 N 0.90114 0.40624 0.16555 0.0
C1593 C 0.89822 0.41022 0.11549 0.0
C1594 C 0.91056 0.4017 0.08009 0.0
C1595 C 0.0844 0.90141 0.61826 0.0
C1596 C 0.07353 0.88618 0.60299 0.0
C1597 C 0.0924 0.91332 0.58232 0.0
C1598 C 0.09004 0.91025 0.52984 0.0
H1599 H 0.08639 0.9044 0.65837 0.0
H1600 H 0.10056 0.92498 0.59566 0.0
S1601 S 0.06321 0.87218 0.46999 0.0
N1602 N 0.06098 0.86856 0.53192 0.0
N1603 N 0.07629 0.89088 0.46409 0.0
C1604 C 0.07947 0.89494 0.51394 0.0
C1605 C 0.0711 0.88293 0.5506 0.0
C1606 C 0.61639 0.07378 0.06469 0.0
C1607 C 0.61474 0.0773 0.11725 0.0
C1608 C 0.60453 0.08231 0.02941 0.0
C1609 C 0.59057 0.09463 0.04543 0.0
H1610 H 0.62671 0.06409 0.05082 0.0
H1611 H 0.60616 0.07907 0.98931 0.0
S1612 S 0.58017 0.10823 0.17874 0.0
N1613 N 0.59797 0.09394 0.18353 0.0
N1614 N 0.57565 0.10985 0.11718 0.0
C1615 C 0.589 0.09857 0.0977 0.0
C1616 C 0.60109 0.08994 0.13361 0.0
C1617 C 0.42329 0.58575 0.53528 0.0
C1618 C 0.40559 0.5898 0.51565 0.0
C1619 C 0.43173 0.59731 0.5713 0.0
C1620 C 0.42285 0.61345 0.5891 0.0
H1621 H 0.4306 0.57338 0.52324 0.0
H1622 H 0.44505 0.59316 0.58664 0.0
S1623 S 0.37682 0.6309 0.54765 0.0
N1624 N 0.37961 0.61137 0.5157 0.0
N1625 N 0.39584 0.6335 0.58207 0.0
C1626 C 0.40542 0.61804 0.56848 0.0
C1627 C 0.39674 0.60616 0.53199 0.0
C1628 C 0.91237 0.07372 0.88693 0.0
C1629 C 0.89358 0.07901 0.88495 0.0
C1630 C 0.92486 0.08258 0.9197 0.0
C1631 C 0.91906 0.09713 0.95157 0.0
H1632 H 0.91753 0.06275 0.86251 0.0
H1633 H 0.93921 0.07811 0.91982 0.0
S1634 S 0.8712 0.11565 0.96259 0.0
N1635 N 0.86966 0.09934 0.91857 0.0
N1636 N 0.89318 0.11605 0.98046 0.0
C1637 C 0.90031 0.10256 0.95005 0.0
C1638 C 0.88757 0.09351 0.91663 0.0
C1639 C 0.403 0.91218 0.41756 0.0
C1640 C 0.41041 0.91482 0.46663 0.0
C1641 C 0.41115 0.89979 0.3832 0.0
C1642 C 0.42702 0.88948 0.39655 0.0
H1643 H 0.39064 0.91958 0.40576 0.0
H1644 H 0.40509 0.89845 0.34555 0.0
S1645 S 0.45207 0.89159 0.52002 0.0
N1646 N 0.43488 0.90655 0.52639 0.0
N1647 N 0.44987 0.88275 0.46224 0.0
C1648 C 0.43464 0.89203 0.44542 0.0
C1649 C 0.42639 0.90476 0.48038 0.0
C1650 C 0.59956 0.41316 0.97433 0.0
C1651 C 0.58648 0.40003 0.95735 0.0
C1652 C 0.61217 0.42133 0.94045 0.0
C1653 C 0.61225 0.41651 0.88855 0.0
H1654 H 0.59994 0.41727 0.01405 0.0
H1655 H 0.62174 0.43169 0.95472 0.0
S1656 S 0.58044 0.3835 0.82439 0.0
N1657 N 0.57409 0.383 0.88488 0.0
N1658 N 0.59801 0.39815 0.82142 0.0
C1659 C 0.59947 0.40321 0.87119 0.0
C1660 C 0.58654 0.39501 0.90554 0.0
C1661 C 0.10122 0.58638 0.42024 0.0
C1662 C 0.1033 0.593 0.47032 0.0
C1663 C 0.09138 0.59661 0.38383 0.0
C1664 C 0.08355 0.61389 0.39611 0.0
H1665 H 0.1066 0.57288 0.40972 0.0
H1666 H 0.08946 0.59077 0.34611 0.0
S1667 S 0.0863 0.63798 0.52046 0.0
N1668 N 0.09762 0.61831 0.52957 0.0
N1669 N 0.07923 0.63765 0.46049 0.0
C1670 C 0.08617 0.62104 0.44525 0.0
C1671 C 0.09601 0.61053 0.4826 0.0
C1672 C 0.91395 0.58152 0.28655 0.0
C1673 C 0.90865 0.56715 0.25338 0.0
C1674 C 0.92736 0.59456 0.27208 0.0
C1675 C 0.93597 0.59366 0.22398 0.0
H1676 H 0.90806 0.58236 0.32449 0.0
H1677 H 0.93145 0.60511 0.29929 0.0
S1678 S 0.92705 0.55861 0.1234 0.0
N1679 N 0.91289 0.55283 0.17026 0.0
N1680 N 0.93815 0.57731 0.14313 0.0
C1681 C 0.93034 0.57972 0.18984 0.0
C1682 C 0.91667 0.56646 0.20454 0.0
C1683 C 0.90867 0.93229 0.77879 0.0
C1684 C 0.90951 0.93918 0.72854 0.0
C1685 C 0.92129 0.91892 0.79618 0.0
C1686 C 0.93503 0.91177 0.76374 0.0
H1687 H 0.89846 0.93762 0.80532 0.0
H1688 H 0.92056 0.91443 0.83557 0.0
S1689 S 0.94326 0.92498 0.62904 0.0
N1690 N 0.92535 0.93773 0.64667 0.0
N1691 N 0.94873 0.91224 0.67918 0.0
C1692 C 0.93565 0.91798 0.71301 0.0
C1693 C 0.92295 0.93175 0.6954 0.0
C1694 C 0.573 0.90473 0.22687 0.0
C1695 C 0.55619 0.91085 0.20521 0.0
C1696 C 0.5859 0.91739 0.24678 0.0
C1697 C 0.58225 0.93653 0.2464 0.0
H1698 H 0.57602 0.89003 0.2292 0.0
H1699 H 0.59851 0.91215 0.2641 0.0
S1700 S 0.54076 0.95973 0.19228 0.0
N1701 N 0.53692 0.93739 0.18331 0.0
N1702 N 0.56122 0.96112 0.22034 0.0
C1703 C 0.56578 0.94285 0.22356 0.0
C1704 C 0.55274 0.93003 0.20302 0.0
C1705 C 0.56343 0.54644 0.73535 0.0
C1706 C 0.58197 0.55155 0.72701 0.0
C1707 C 0.55035 0.55939 0.7521 0.0
C1708 C 0.55536 0.57794 0.76172 0.0
H1709 H 0.55899 0.53226 0.7289 0.0
H1710 H 0.53617 0.55481 0.75744 0.0
S1711 S 0.60244 0.59811 0.74704 0.0
N1712 N 0.60487 0.57622 0.72961 0.0
N1713 N 0.58035 0.60066 0.76233 0.0
C1714 C 0.5739 0.58326 0.75317 0.0
C1715 C 0.5872 0.57004 0.73556 0.0
C1716 C 0.08494 0.43341 0.7622 0.0
C1717 C 0.08063 0.44633 0.72373 0.0
C1718 C 0.07206 0.41992 0.77736 0.0
C1719 C 0.05443 0.41889 0.75458 0.0
H1720 H 0.09835 0.43378 0.78083 0.0
H1721 H 0.07591 0.41024 0.80716 0.0
S1722 S 0.03591 0.45035 0.65472 0.0
N1723 N 0.05728 0.45776 0.66471 0.0
N1724 N 0.03303 0.43246 0.69326 0.0
C1725 C 0.04994 0.43177 0.71615 0.0
C1726 C 0.06306 0.44547 0.70069 0.0
C1727 C 0.07673 0.09144 0.25406 0.0
C1728 C 0.06666 0.09023 0.20812 0.0
C1729 C 0.08777 0.0767 0.2712 0.0
C1730 C 0.08929 0.06021 0.24286 0.0
H1731 H 0.07556 0.10365 0.27792 0.0
H1732 H 0.09447 0.07794 0.30803 0.0
S1733 S 0.06761 0.05078 0.11704 0.0
N1734 N 0.05985 0.07149 0.13316 0.0
N1735 N 0.08159 0.04438 0.16369 0.0
C1736 C 0.08034 0.05931 0.19519 0.0
C1737 C 0.06883 0.07417 0.17817 0.0
C1738 C 0.43404 0.05108 0.74317 0.0
C1739 C 0.41508 0.05551 0.74169 0.0
C1740 C 0.44705 0.06362 0.76243 0.0
C1741 C 0.4416 0.08104 0.7814 0.0
H1742 H 0.43884 0.03771 0.72966 0.0
H1743 H 0.46154 0.0596 0.76247 0.0
S1744 S 0.39347 0.0992 0.78628 0.0
N1745 N 0.39136 0.07844 0.76021 0.0
N1746 N 0.41585 0.10208 0.79738 0.0
C1747 C 0.42267 0.08578 0.77936 0.0
C1748 C 0.40939 0.07299 0.75929 0.0
C1749 C 0.44189 0.43157 0.21076 0.0
C1750 C 0.43519 0.41373 0.19945 0.0
C1751 C 0.43018 0.44526 0.23028 0.0
C1752 C 0.41128 0.44168 0.23919 0.0
H1753 H 0.4564 0.43492 0.20512 0.0
H1754 H 0.43602 0.45876 0.23882 0.0
S1755 S 0.38677 0.39733 0.21451 0.0
N1756 N 0.40849 0.39317 0.19792 0.0
N1757 N 0.38628 0.41908 0.23431 0.0
C1758 C 0.40437 0.42387 0.22823 0.0
C1759 C 0.41637 0.40985 0.20842 0.0
loop_
_geom_bond_atom_site_label_1
_geom_bond_atom_site_label_2
_geom_bond_distance
_geom_bond_site_symmetry_2
_ccdc_geom_bond_type
Li0 N17 1.990 1_455 S
Li0 O60 1.956 . S
Li0 O61 1.970 . S
Li0 O62 1.961 . S
Li1 N25 1.990 . S
Li1 O60 1.970 . S
Li1 O61 1.956 . S
Li1 O63 1.961 . S
Li2 N47 1.990 . S
Li2 O60 1.961 . S
Li2 O62 1.956 . S
Li2 O63 1.970 . S
Li3 N53 1.990 . S
Li3 O61 1.961 . S
Li3 O62 1.970 . S
Li3 O63 1.956 . S
C4 C6 1.348 . S
C4 C7 1.356 1_455 S
C4 O60 1.325 . S
N5 C8 1.314 1_655 S
N5 C9 1.279 . S
C6 C4 1.348 . S
C6 C8 1.353 . S
C6 H64 0.929 . S
C7 C4 1.356 1_655 S
C7 C9 1.358 . S
C7 H65 0.930 . S
C8 N5 1.314 1_455 S
C8 C6 1.353 . S
C8 H66 0.930 . S
C9 N5 1.279 . S
C9 C7 1.358 . S
C9 H67 0.930 . S
C10 C13 1.348 . S
C10 C14 1.356 . S
C10 O61 1.325 . S
C11 N12 1.279 . S
C11 C14 1.358 . S
C11 H68 0.930 . S
N12 C11 1.279 . S
N12 C15 1.314 . S
C13 C10 1.348 . S
C13 C15 1.353 . S
C13 H69 0.929 . S
C14 C10 1.356 . S
C14 C11 1.358 . S
C14 H70 0.930 . S
C15 N12 1.314 . S
C15 C13 1.353 . S
C15 H71 0.930 . S
C16 N17 1.314 . S
C16 C21 1.353 . S
C16 H22 0.930 . S
N17 Li0 1.990 1_655 S
N17 C16 1.314 . S
N17 C19 1.279 . S
C18 C19 1.358 . S
C18 C20 1.356 . S
C18 H72 0.930 . S
C19 N17 1.279 . S
C19 C18 1.358 . S
C19 H23 0.930 . S
C20 C18 1.356 . S
C20 C21 1.348 . S
C21 C16 1.353 . S
C21 C20 1.348 . S
C21 H73 0.929 . S
H22 C16 0.930 . S
H23 C19 0.930 . S
C24 N25 1.314 . S
C24 C26 1.353 . S
C24 H30 0.930 . S
N25 Li1 1.990 . S
N25 C24 1.314 . S
N25 C28 1.279 . S
C26 C24 1.353 . S
C26 C29 1.348 . S
C26 H74 0.929 . S
C27 C28 1.358 . S
C27 C29 1.356 . S
C27 H75 0.930 . S
C28 N25 1.279 . S
C28 C27 1.358 . S
C28 H31 0.930 . S
C29 C26 1.348 . S
C29 C27 1.356 . S
H30 C24 0.930 . S
H31 C28 0.930 . S
C32 C34 1.333 1_654 S
C32 C35 1.403 . S
C32 O62 1.295 1_655 S
N33 C36 1.314 . S
N33 C37 1.279 1_556 S
C34 C32 1.333 1_456 S
C34 C36 1.353 1_455 S
C34 H76 0.929 . S
C35 C32 1.403 . S
C35 C37 1.358 . S
C35 H77 0.930 . S
C36 N33 1.314 . S
C36 C34 1.353 1_655 S
C36 H78 0.930 . S
C37 N33 1.279 1_554 S
C37 C35 1.358 . S
C37 H79 0.930 . S
C38 C39 1.348 . S
C38 C40 1.356 . S
C38 O63 1.325 . S
C39 C38 1.348 . S
C39 C41 1.353 . S
C39 H80 0.929 . S
C40 C38 1.356 . S
C40 C42 1.358 . S
C40 H81 0.930 . S
C41 C39 1.353 . S
C41 N43 1.314 . S
C41 H82 0.930 . S
C42 C40 1.358 . S
C42 N43 1.279 . S
C42 H83 0.930 . S
N43 C41 1.314 . S
N43 C42 1.279 . S
C44 C46 1.353 . S
C44 N47 1.314 . S
C44 H50 0.930 . S
C45 N47 1.279 . S
C45 C48 1.358 . S
C45 H51 0.930 . S
C46 C44 1.353 . S
C46 C49 1.348 . S
C46 H84 0.929 . S
N47 Li2 1.990 . S
N47 C44 1.314 . S
N47 C45 1.279 . S
C48 C45 1.358 . S
C48 C49 1.356 . S
C48 H85 0.930 . S
C49 C46 1.348 . S
C49 C48 1.356 . S
H50 C44 0.930 . S
H51 C45 0.930 . S
C52 N53 1.314 . S
C52 C54 1.353 1_554 S
C52 H58 0.930 . S
N53 Li3 1.990 . S
N53 C52 1.314 . S
N53 C56 1.276 1_554 S
C54 C52 1.353 1_556 S
C54 C57 1.348 . S
C54 H86 0.929 . S
C55 C56 1.364 . S
C55 C57 1.356 . S
C55 H87 0.930 . S
C56 N53 1.276 1_556 S
C56 C55 1.364 . S
C56 H59 0.928 1_556 S
C57 C54 1.348 . S
C57 C55 1.356 . S
H58 C52 0.930 . S
H59 C56 0.928 1_554 S
O60 Li0 1.956 . S
O60 Li1 1.970 . S
O60 Li2 1.961 . S
O60 C4 1.325 . S
O61 Li0 1.970 . S
O61 Li1 1.956 . S
O61 Li3 1.961 . S
O61 C10 1.325 . S
O62 Li0 1.961 . S
O62 Li2 1.956 . S
O62 Li3 1.970 . S
O62 C32 1.295 1_455 S
O63 Li1 1.961 . S
O63 Li2 1.970 . S
O63 Li3 1.956 . S
O63 C38 1.325 . S
H64 C6 0.929 . S
H65 C7 0.930 . S
H66 C8 0.930 . S
H67 C9 0.930 . S
H68 C11 0.930 . S
H69 C13 0.929 . S
H70 C14 0.930 . S
H71 C15 0.930 . S
H72 C18 0.930 . S
H73 C21 0.929 . S
H74 C26 0.929 . S
H75 C27 0.930 . S
H76 C34 0.929 . S
H77 C35 0.930 . S
H78 C36 0.930 . S
H79 C37 0.930 . S
H80 C39 0.929 . S
H81 C40 0.930 . S
H82 C41 0.930 . S
H83 C42 0.930 . S
H84 C46 0.929 . S
H85 C48 0.930 . S
H86 C54 0.929 . S
H87 C55 0.930 . S
Li88 N105 1.990 1_545 S
Li88 O148 1.956 . S
Li88 O149 1.970 . S
Li88 O150 1.961 . S
Li89 N113 1.990 . S
Li89 O148 1.970 . S
Li89 O149 1.956 . S
Li89 O151 1.961 . S
Li90 N135 1.990 . S
Li90 O148 1.961 . S
Li90 O150 1.956 . S
Li90 O151 1.970 . S
Li91 N141 1.990 . S
Li91 O149 1.961 . S
Li91 O150 1.970 . S
Li91 O151 1.956 . S
C92 C94 1.348 . S
C92 C95 1.356 1_545 S
C92 O148 1.325 . S
N93 C96 1.314 1_565 S
N93 C97 1.279 . S
C94 C92 1.348 . S
C94 C96 1.353 . S
C94 H152 0.929 . S
C95 C92 1.356 1_565 S
C95 C97 1.358 . S
C95 H153 0.930 . S
C96 N93 1.314 1_545 S
C96 C94 1.353 . S
C96 H154 0.930 . S
C97 N93 1.279 . S
C97 C95 1.358 . S
C97 H155 0.930 . S
C98 C101 1.348 . S
C98 C102 1.356 . S
C98 O149 1.325 . S
C99 N100 1.279 . S
C99 C102 1.358 . S
C99 H156 0.930 . S
N100 C99 1.279 . S
N100 C103 1.314 . S
C101 C98 1.348 . S
C101 C103 1.353 . S
C101 H157 0.929 . S
C102 C98 1.356 . S
C102 C99 1.358 . S
C102 H158 0.930 . S
C103 N100 1.314 . S
C103 C101 1.353 . S
C103 H159 0.930 . S
C104 N105 1.314 . S
C104 C109 1.353 . S
C104 H110 0.930 . S
N105 Li88 1.990 1_565 S
N105 C104 1.314 . S
N105 C107 1.279 . S
C106 C107 1.358 . S
C106 C108 1.356 . S
C106 H160 0.930 . S
C107 N105 1.279 . S
C107 C106 1.358 . S
C107 H111 0.930 . S
C108 C106 1.356 . S
C108 C109 1.348 . S
C109 C104 1.353 . S
C109 C108 1.348 . S
C109 H161 0.929 . S
H110 C104 0.930 . S
H111 C107 0.930 . S
C112 N113 1.314 . S
C112 C114 1.353 . S
C112 H118 0.930 . S
N113 Li89 1.990 . S
N113 C112 1.314 . S
N113 C116 1.279 . S
C114 C112 1.353 . S
C114 C117 1.348 . S
C114 H162 0.929 . S
C115 C116 1.358 . S
C115 C117 1.356 . S
C115 H163 0.930 . S
C116 N113 1.279 . S
C116 C115 1.358 . S
C116 H119 0.930 . S
C117 C114 1.348 . S
C117 C115 1.356 . S
H118 C112 0.930 . S
H119 C116 0.930 . S
C120 C122 1.333 1_565 S
C120 C123 1.401 . S
C120 O150 1.297 1_565 S
N121 C124 1.314 . S
N121 C125 1.279 . S
C122 C120 1.333 1_545 S
C122 C124 1.353 1_545 S
C122 H164 0.929 . S
C123 C120 1.401 . S
C123 C125 1.358 . S
C123 H165 0.930 . S
C124 N121 1.314 . S
C124 C122 1.353 1_565 S
C124 H166 0.930 . S
C125 N121 1.279 . S
C125 C123 1.358 . S
C125 H167 0.930 . S
C126 C127 1.348 . S
C126 C128 1.356 . S
C126 O151 1.325 . S
C127 C126 1.348 . S
C127 C129 1.353 . S
C127 H168 0.929 . S
C128 C126 1.356 . S
C128 C130 1.358 . S
C128 H169 0.930 . S
C129 C127 1.353 . S
C129 N131 1.314 . S
C129 H170 0.930 . S
C130 C128 1.358 . S
C130 N131 1.279 . S
C130 H171 0.930 . S
N131 C129 1.314 . S
N131 C130 1.279 . S
C132 C134 1.353 . S
C132 N135 1.314 . S
C132 H138 0.930 . S
C133 N135 1.279 . S
C133 C136 1.358 . S
C133 H139 0.930 . S
C134 C132 1.353 . S
C134 C137 1.348 . S
C134 H172 0.929 . S
N135 Li90 1.990 . S
N135 C132 1.314 . S
N135 C133 1.279 . S
C136 C133 1.358 . S
C136 C137 1.356 . S
C136 H173 0.930 . S
C137 C134 1.348 . S
C137 C136 1.356 . S
H138 C132 0.930 . S
H139 C133 0.930 . S
C140 N141 1.314 . S
C140 C142 1.353 . S
C140 H146 0.930 . S
N141 Li91 1.990 . S
N141 C140 1.314 . S
N141 C144 1.279 . S
C142 C140 1.353 . S
C142 C145 1.348 . S
C142 H174 0.929 . S
C143 C144 1.358 . S
C143 C145 1.356 . S
C143 H175 0.930 . S
C144 N141 1.279 . S
C144 C143 1.358 . S
C144 H147 0.930 . S
C145 C142 1.348 . S
C145 C143 1.356 . S
H146 C140 0.930 . S
H147 C144 0.930 . S
O148 Li88 1.956 . S
O148 Li89 1.970 . S
O148 Li90 1.961 . S
O148 C92 1.325 . S
O149 Li88 1.970 . S
O149 Li89 1.956 . S
O149 Li91 1.961 . S
O149 C98 1.325 . S
O150 Li88 1.961 . S
O150 Li90 1.956 . S
O150 Li91 1.970 . S
O150 C120 1.297 1_545 S
O151 Li89 1.961 . S
O151 Li90 1.970 . S
O151 Li91 1.956 . S
O151 C126 1.325 . S
H152 C94 0.929 . S
H153 C95 0.930 . S
H154 C96 0.930 . S
H155 C97 0.930 . S
H156 C99 0.930 . S
H157 C101 0.929 . S
H158 C102 0.930 . S
H159 C103 0.930 . S
H160 C106 0.930 . S
H161 C109 0.929 . S
H162 C114 0.929 . S
H163 C115 0.930 . S
H164 C122 0.929 . S
H165 C123 0.930 . S
H166 C124 0.930 . S
H167 C125 0.930 . S
H168 C127 0.929 . S
H169 C128 0.930 . S
H170 C129 0.930 . S
H171 C130 0.930 . S
H172 C134 0.929 . S
H173 C136 0.930 . S
H174 C142 0.929 . S
H175 C143 0.930 . S
Li176 N193 1.990 . S
Li176 O236 1.956 . S
Li176 O237 1.970 . S
Li176 O238 1.961 . S
Li177 N201 1.990 . S
Li177 O236 1.970 . S
Li177 O237 1.956 . S
Li177 O239 1.961 . S
Li178 N223 1.990 . S
Li178 O236 1.961 . S
Li178 O238 1.956 . S
Li178 O239 1.970 . S
Li179 N229 1.990 . S
Li179 O237 1.961 . S
Li179 O238 1.970 . S
Li179 O239 1.956 . S
C180 C182 1.348 . S
C180 C183 1.356 . S
C180 O236 1.325 . S
N181 C184 1.314 . S
N181 C185 1.279 . S
C182 C180 1.348 . S
C182 C184 1.353 . S
C182 H240 0.929 . S
C183 C180 1.356 . S
C183 C185 1.358 . S
C183 H241 0.930 . S
C184 N181 1.314 . S
C184 C182 1.353 . S
C184 H242 0.930 . S
C185 N181 1.279 . S
C185 C183 1.358 . S
C185 H243 0.930 . S
C186 C189 1.348 . S
C186 C190 1.356 . S
C186 O237 1.325 . S
C187 N188 1.279 . S
C187 C190 1.358 . S
C187 H244 0.930 . S
N188 C187 1.279 . S
N188 C191 1.314 . S
C189 C186 1.348 . S
C189 C191 1.353 . S
C189 H245 0.929 . S
C190 C186 1.356 . S
C190 C187 1.358 . S
C190 H246 0.930 . S
C191 N188 1.314 . S
C191 C189 1.353 . S
C191 H247 0.930 . S
C192 N193 1.314 . S
C192 C197 1.353 . S
C192 H198 0.930 . S
N193 Li176 1.990 . S
N193 C192 1.314 . S
N193 C195 1.279 . S
C194 C195 1.358 . S
C194 C196 1.356 . S
C194 H248 0.930 . S
C195 N193 1.279 . S
C195 C194 1.358 . S
C195 H199 0.930 . S
C196 C194 1.356 . S
C196 C197 1.348 . S
C197 C192 1.353 . S
C197 C196 1.348 . S
C197 H249 0.929 . S
H198 C192 0.930 . S
H199 C195 0.930 . S
C200 N201 1.314 . S
C200 C202 1.353 . S
C200 H206 0.930 . S
N201 Li177 1.990 . S
N201 C200 1.314 . S
N201 C204 1.279 . S
C202 C200 1.353 . S
C202 C205 1.348 . S
C202 H250 0.929 . S
C203 C204 1.358 . S
C203 C205 1.356 . S
C203 H251 0.930 . S
C204 N201 1.279 . S
C204 C203 1.358 . S
C204 H207 0.930 . S
C205 C202 1.348 . S
C205 C203 1.356 . S
H206 C200 0.930 . S
H207 C204 0.930 . S
C208 C210 1.348 1_554 S
C208 C211 1.356 . S
C208 O238 1.325 . S
N209 C212 1.314 . S
N209 C213 1.279 1_556 S
C210 C208 1.348 1_556 S
C210 C212 1.353 . S
C210 H252 0.929 . S
C211 C208 1.356 . S
C211 C213 1.358 . S
C211 H253 0.930 . S
C212 N209 1.314 . S
C212 C210 1.353 . S
C212 H254 0.930 . S
C213 N209 1.279 1_554 S
C213 C211 1.358 . S
C213 H255 0.930 . S
C214 C215 1.348 . S
C214 C216 1.356 . S
C214 O239 1.325 . S
C215 C214 1.348 . S
C215 C217 1.353 . S
C215 H256 0.929 . S
C216 C214 1.356 . S
C216 C218 1.358 . S
C216 H257 0.930 . S
C217 C215 1.353 . S
C217 N219 1.314 . S
C217 H258 0.930 . S
C218 C216 1.358 . S
C218 N219 1.279 . S
C218 H259 0.930 . S
N219 C217 1.314 . S
N219 C218 1.279 . S
C220 C222 1.353 . S
C220 N223 1.314 . S
C220 H226 0.930 . S
C221 N223 1.279 . S
C221 C224 1.358 . S
C221 H227 0.930 . S
C222 C220 1.353 . S
C222 C225 1.348 . S
C222 H260 0.929 . S
N223 Li178 1.990 . S
N223 C220 1.314 . S
N223 C221 1.279 . S
C224 C221 1.358 . S
C224 C225 1.356 . S
C224 H261 0.930 . S
C225 C222 1.348 . S
C225 C224 1.356 . S
H226 C220 0.930 . S
H227 C221 0.930 . S
C228 N229 1.314 . S
C228 C230 1.353 1_554 S
C228 H234 0.930 . S
N229 Li179 1.990 . S
N229 C228 1.314 . S
N229 C232 1.277 1_554 S
C230 C228 1.353 1_556 S
C230 C233 1.348 . S
C230 H262 0.929 . S
C231 C232 1.362 . S
C231 C233 1.356 . S
C231 H263 0.930 . S
C232 N229 1.277 1_556 S
C232 C231 1.362 . S
C232 H235 0.929 1_556 S
C233 C230 1.348 . S
C233 C231 1.356 . S
H234 C228 0.930 . S
H235 C232 0.929 1_554 S
O236 Li176 1.956 . S
O236 Li177 1.970 . S
O236 Li178 1.961 . S
O236 C180 1.325 . S
O237 Li176 1.970 . S
O237 Li177 1.956 . S
O237 Li179 1.961 . S
O237 C186 1.325 . S
O238 Li176 1.961 . S
O238 Li178 1.956 . S
O238 Li179 1.970 . S
O238 C208 1.325 . S
O239 Li177 1.961 . S
O239 Li178 1.970 . S
O239 Li179 1.956 . S
O239 C214 1.325 . S
H240 C182 0.929 . S
H241 C183 0.930 . S
H242 C184 0.930 . S
H243 C185 0.930 . S
H244 C187 0.930 . S
H245 C189 0.929 . S
H246 C190 0.930 . S
H247 C191 0.930 . S
H248 C194 0.930 . S
H249 C197 0.929 . S
H250 C202 0.929 . S
H251 C203 0.930 . S
H252 C210 0.929 . S
H253 C211 0.930 . S
H254 C212 0.930 . S
H255 C213 0.930 . S
H256 C215 0.929 . S
H257 C216 0.930 . S
H258 C217 0.930 . S
H259 C218 0.930 . S
H260 C222 0.929 . S
H261 C224 0.930 . S
H262 C230 0.929 . S
H263 C231 0.930 . S
Li264 N281 1.990 . S
Li264 O324 1.956 . S
Li264 O325 1.970 . S
Li264 O326 1.961 . S
Li265 N289 1.990 . S
Li265 O324 1.970 . S
Li265 O325 1.956 . S
Li265 O327 1.961 . S
Li266 N311 1.990 . S
Li266 O324 1.961 . S
Li266 O326 1.956 . S
Li266 O327 1.970 . S
Li267 N317 1.990 . S
Li267 O325 1.961 . S
Li267 O326 1.970 . S
Li267 O327 1.956 . S
C268 C270 1.348 . S
C268 C271 1.356 . S
C268 O324 1.325 . S
N269 C272 1.314 . S
N269 C273 1.279 . S
C270 C268 1.348 . S
C270 C272 1.353 . S
C270 H328 0.929 . S
C271 C268 1.356 . S
C271 C273 1.358 . S
C271 H329 0.930 . S
C272 N269 1.314 . S
C272 C270 1.353 . S
C272 H330 0.930 . S
C273 N269 1.279 . S
C273 C271 1.358 . S
C273 H331 0.930 . S
C274 C277 1.348 . S
C274 C278 1.356 . S
C274 O325 1.325 . S
C275 N276 1.279 . S
C275 C278 1.358 . S
C275 H332 0.930 . S
N276 C275 1.279 . S
N276 C279 1.314 . S
C277 C274 1.348 . S
C277 C279 1.353 . S
C277 H333 0.929 . S
C278 C274 1.356 . S
C278 C275 1.358 . S
C278 H334 0.930 . S
C279 N276 1.314 . S
C279 C277 1.353 . S
C279 H335 0.930 . S
C280 N281 1.314 . S
C280 C285 1.353 . S
C280 H286 0.930 . S
N281 Li264 1.990 . S
N281 C280 1.314 . S
N281 C283 1.279 . S
C282 C283 1.358 . S
C282 C284 1.356 . S
C282 H336 0.930 . S
C283 N281 1.279 . S
C283 C282 1.358 . S
C283 H287 0.930 . S
C284 C282 1.356 . S
C284 C285 1.348 . S
C285 C280 1.353 . S
C285 C284 1.348 . S
C285 H337 0.929 . S
H286 C280 0.930 . S
H287 C283 0.930 . S
C288 N289 1.314 . S
C288 C290 1.353 . S
C288 H294 0.930 . S
N289 Li265 1.990 . S
N289 C288 1.314 . S
N289 C292 1.279 . S
C290 C288 1.353 . S
C290 C293 1.348 . S
C290 H338 0.929 . S
C291 C292 1.358 . S
C291 C293 1.356 . S
C291 H339 0.930 . S
C292 N289 1.279 . S
C292 C291 1.358 . S
C292 H295 0.930 . S
C293 C290 1.348 . S
C293 C291 1.356 . S
H294 C288 0.930 . S
H295 C292 0.930 . S
C296 C298 1.348 . S
C296 C299 1.356 . S
C296 O326 1.325 . S
N297 C300 1.314 . S
N297 C301 1.279 . S
C298 C296 1.348 . S
C298 C300 1.353 . S
C298 H340 0.929 . S
C299 C296 1.356 . S
C299 C301 1.358 . S
C299 H341 0.930 . S
C300 N297 1.314 . S
C300 C298 1.353 . S
C300 H342 0.930 . S
C301 N297 1.279 . S
C301 C299 1.358 . S
C301 H343 0.930 . S
C302 C303 1.348 . S
C302 C304 1.356 . S
C302 O327 1.325 . S
C303 C302 1.348 . S
C303 C305 1.353 . S
C303 H344 0.929 . S
C304 C302 1.356 . S
C304 C306 1.358 . S
C304 H345 0.930 . S
C305 C303 1.353 . S
C305 N307 1.314 . S
C305 H346 0.930 . S
C306 C304 1.358 . S
C306 N307 1.279 . S
C306 H347 0.930 . S
N307 C305 1.314 . S
N307 C306 1.279 . S
C308 C310 1.353 . S
C308 N311 1.314 . S
C308 H314 0.930 . S
C309 N311 1.279 . S
C309 C312 1.358 . S
C309 H315 0.930 . S
C310 C308 1.353 . S
C310 C313 1.348 . S
C310 H348 0.929 . S
N311 Li266 1.990 . S
N311 C308 1.314 . S
N311 C309 1.279 . S
C312 C309 1.358 . S
C312 C313 1.356 . S
C312 H349 0.930 . S
C313 C310 1.348 . S
C313 C312 1.356 . S
H314 C308 0.930 . S
H315 C309 0.930 . S
C316 N317 1.314 . S
C316 C318 1.353 . S
C316 H322 0.930 . S
N317 Li267 1.990 . S
N317 C316 1.314 . S
N317 C320 1.279 . S
C318 C316 1.353 . S
C318 C321 1.348 . S
C318 H350 0.929 . S
C319 C320 1.358 . S
C319 C321 1.356 . S
C319 H351 0.930 . S
C320 N317 1.279 . S
C320 C319 1.358 . S
C320 H323 0.930 . S
C321 C318 1.348 . S
C321 C319 1.356 . S
H322 C316 0.930 . S
H323 C320 0.930 . S
O324 Li264 1.956 . S
O324 Li265 1.970 . S
O324 Li266 1.961 . S
O324 C268 1.325 . S
O325 Li264 1.970 . S
O325 Li265 1.956 . S
O325 Li267 1.961 . S
O325 C274 1.325 . S
O326 Li264 1.961 . S
O326 Li266 1.956 . S
O326 Li267 1.970 . S
O326 C296 1.325 . S
O327 Li265 1.961 . S
O327 Li266 1.970 . S
O327 Li267 1.956 . S
O327 C302 1.325 . S
H328 C270 0.929 . S
H329 C271 0.930 . S
H330 C272 0.930 . S
H331 C273 0.930 . S
H332 C275 0.930 . S
H333 C277 0.929 . S
H334 C278 0.930 . S
H335 C279 0.930 . S
H336 C282 0.930 . S
H337 C285 0.929 . S
H338 C290 0.929 . S
H339 C291 0.930 . S
H340 C298 0.929 . S
H341 C299 0.930 . S
H342 C300 0.930 . S
H343 C301 0.930 . S
H344 C303 0.929 . S
H345 C304 0.930 . S
H346 C305 0.930 . S
H347 C306 0.930 . S
H348 C310 0.929 . S
H349 C312 0.930 . S
H350 C318 0.929 . S
H351 C319 0.930 . S
Li352 N369 1.990 . S
Li352 O412 1.956 . S
Li352 O413 1.970 . S
Li352 O414 1.961 . S
Li353 N377 1.990 . S
Li353 O412 1.970 . S
Li353 O413 1.956 . S
Li353 O415 1.961 . S
Li354 N399 1.990 1_455 S
Li354 O412 1.961 . S
Li354 O414 1.956 . S
Li354 O415 1.970 . S
Li355 N405 1.990 . S
Li355 O413 1.961 . S
Li355 O414 1.970 . S
Li355 O415 1.956 . S
C356 C358 1.333 1_656 S
C356 C359 1.401 . S
C356 O412 1.297 1_655 S
N357 C360 1.314 . S
N357 C361 1.279 1_554 S
C358 C356 1.333 1_454 S
C358 C360 1.353 1_455 S
C358 H416 0.929 . S
C359 C356 1.401 . S
C359 C361 1.358 . S
C359 H417 0.930 . S
C360 N357 1.314 . S
C360 C358 1.353 1_655 S
C360 H418 0.930 . S
C361 N357 1.279 1_556 S
C361 C359 1.358 . S
C361 H419 0.930 . S
C362 C365 1.348 . S
C362 C366 1.356 . S
C362 O413 1.325 . S
C363 N364 1.279 . S
C363 C366 1.358 . S
C363 H420 0.930 . S
N364 C363 1.279 . S
N364 C367 1.314 . S
C365 C362 1.348 . S
C365 C367 1.353 . S
C365 H421 0.929 . S
C366 C362 1.356 . S
C366 C363 1.358 . S
C366 H422 0.930 . S
C367 N364 1.314 . S
C367 C365 1.353 . S
C367 H423 0.930 . S
C368 N369 1.314 . S
C368 C373 1.353 . S
C368 H374 0.930 . S
N369 Li352 1.990 . S
N369 C368 1.314 . S
N369 C371 1.279 . S
C370 C371 1.358 . S
C370 C372 1.356 . S
C370 H424 0.930 . S
C371 N369 1.279 . S
C371 C370 1.358 . S
C371 H375 0.930 . S
C372 C370 1.356 . S
C372 C373 1.348 . S
C373 C368 1.353 . S
C373 C372 1.348 . S
C373 H425 0.929 . S
H374 C368 0.930 . S
H375 C371 0.930 . S
C376 N377 1.314 . S
C376 C378 1.353 1_556 S
C376 H382 0.930 . S
N377 Li353 1.990 . S
N377 C376 1.314 . S
N377 C380 1.276 1_556 S
C378 C376 1.353 1_554 S
C378 C381 1.348 . S
C378 H426 0.929 . S
C379 C380 1.363 . S
C379 C381 1.356 . S
C379 H427 0.930 . S
C380 N377 1.276 1_554 S
C380 C379 1.363 . S
C380 H383 0.928 1_554 S
C381 C378 1.348 . S
C381 C379 1.356 . S
H382 C376 0.930 . S
H383 C380 0.928 1_556 S
C384 C386 1.348 . S
C384 C387 1.356 1_455 S
C384 O414 1.325 . S
N385 C388 1.314 1_655 S
N385 C389 1.279 . S
C386 C384 1.348 . S
C386 C388 1.353 . S
C386 H428 0.929 . S
C387 C384 1.356 1_655 S
C387 C389 1.358 . S
C387 H429 0.930 . S
C388 N385 1.314 1_455 S
C388 C386 1.353 . S
C388 H430 0.930 . S
C389 N385 1.279 . S
C389 C387 1.358 . S
C389 H431 0.930 . S
C390 C391 1.348 . S
C390 C392 1.356 . S
C390 O415 1.325 . S
C391 C390 1.348 . S
C391 C393 1.353 . S
C391 H432 0.929 . S
C392 C390 1.356 . S
C392 C394 1.358 . S
C392 H433 0.930 . S
C393 C391 1.353 . S
C393 N395 1.314 . S
C393 H434 0.930 . S
C394 C392 1.358 . S
C394 N395 1.279 . S
C394 H435 0.930 . S
N395 C393 1.314 . S
N395 C394 1.279 . S
C396 C398 1.353 . S
C396 N399 1.314 . S
C396 H402 0.930 . S
C397 N399 1.279 . S
C397 C400 1.358 . S
C397 H403 0.930 . S
C398 C396 1.353 . S
C398 C401 1.348 . S
C398 H436 0.929 . S
N399 Li354 1.990 1_655 S
N399 C396 1.314 . S
N399 C397 1.279 . S
C400 C397 1.358 . S
C400 C401 1.356 . S
C400 H437 0.930 . S
C401 C398 1.348 . S
C401 C400 1.356 . S
H402 C396 0.930 . S
H403 C397 0.930 . S
C404 N405 1.314 . S
C404 C406 1.353 . S
C404 H410 0.930 . S
N405 Li355 1.990 . S
N405 C404 1.314 . S
N405 C408 1.279 . S
C406 C404 1.353 . S
C406 C409 1.348 . S
C406 H438 0.929 . S
C407 C408 1.358 . S
C407 C409 1.356 . S
C407 H439 0.930 . S
C408 N405 1.279 . S
C408 C407 1.358 . S
C408 H411 0.930 . S
C409 C406 1.348 . S
C409 C407 1.356 . S
H410 C404 0.930 . S
H411 C408 0.930 . S
O412 Li352 1.956 . S
O412 Li353 1.970 . S
O412 Li354 1.961 . S
O412 C356 1.297 1_455 S
O413 Li352 1.970 . S
O413 Li353 1.956 . S
O413 Li355 1.961 . S
O413 C362 1.325 . S
O414 Li352 1.961 . S
O414 Li354 1.956 . S
O414 Li355 1.970 . S
O414 C384 1.325 . S
O415 Li353 1.961 . S
O415 Li354 1.970 . S
O415 Li355 1.956 . S
O415 C390 1.325 . S
H416 C358 0.929 . S
H417 C359 0.930 . S
H418 C360 0.930 . S
H419 C361 0.930 . S
H420 C363 0.930 . S
H421 C365 0.929 . S
H422 C366 0.930 . S
H423 C367 0.930 . S
H424 C370 0.930 . S
H425 C373 0.929 . S
H426 C378 0.929 . S
H427 C379 0.930 . S
H428 C386 0.929 . S
H429 C387 0.930 . S
H430 C388 0.930 . S
H431 C389 0.930 . S
H432 C391 0.929 . S
H433 C392 0.930 . S
H434 C393 0.930 . S
H435 C394 0.930 . S
H436 C398 0.929 . S
H437 C400 0.930 . S
H438 C406 0.929 . S
H439 C407 0.930 . S
Li440 N457 1.990 . S
Li440 O500 1.956 . S
Li440 O501 1.970 . S
Li440 O502 1.961 . S
Li441 N465 1.990 . S
Li441 O500 1.970 . S
Li441 O501 1.956 . S
Li441 O503 1.961 . S
Li442 N487 1.990 1_545 S
Li442 O500 1.961 . S
Li442 O502 1.956 . S
Li442 O503 1.970 . S
Li443 N493 1.990 . S
Li443 O501 1.961 . S
Li443 O502 1.970 . S
Li443 O503 1.956 . S
C444 C446 1.333 1_565 S
C444 C447 1.403 . S
C444 O500 1.295 1_565 S
N445 C448 1.314 . S
N445 C449 1.279 . S
C446 C444 1.333 1_545 S
C446 C448 1.353 1_545 S
C446 H504 0.929 . S
C447 C444 1.403 . S
C447 C449 1.358 . S
C447 H505 0.930 . S
C448 N445 1.314 . S
C448 C446 1.353 1_565 S
C448 H506 0.930 . S
C449 N445 1.279 . S
C449 C447 1.358 . S
C449 H507 0.930 . S
C450 C453 1.348 . S
C450 C454 1.356 . S
C450 O501 1.325 . S
C451 N452 1.279 . S
C451 C454 1.358 . S
C451 H508 0.930 . S
N452 C451 1.279 . S
N452 C455 1.314 . S
C453 C450 1.348 . S
C453 C455 1.353 . S
C453 H509 0.929 . S
C454 C450 1.356 . S
C454 C451 1.358 . S
C454 H510 0.930 . S
C455 N452 1.314 . S
C455 C453 1.353 . S
C455 H511 0.930 . S
C456 N457 1.314 . S
C456 C461 1.353 . S
C456 H462 0.930 . S
N457 Li440 1.990 . S
N457 C456 1.314 . S
N457 C459 1.279 . S
C458 C459 1.358 . S
C458 C460 1.356 . S
C458 H512 0.930 . S
C459 N457 1.279 . S
C459 C458 1.358 . S
C459 H463 0.930 . S
C460 C458 1.356 . S
C460 C461 1.348 . S
C461 C456 1.353 . S
C461 C460 1.348 . S
C461 H513 0.929 . S
H462 C456 0.930 . S
H463 C459 0.930 . S
C464 N465 1.314 . S
C464 C466 1.353 . S
C464 H470 0.930 . S
N465 Li441 1.990 . S
N465 C464 1.314 . S
N465 C468 1.279 . S
C466 C464 1.353 . S
C466 C469 1.348 . S
C466 H514 0.929 . S
C467 C468 1.358 . S
C467 C469 1.356 . S
C467 H515 0.930 . S
C468 N465 1.279 . S
C468 C467 1.358 . S
C468 H471 0.930 . S
C469 C466 1.348 . S
C469 C467 1.356 . S
H470 C464 0.930 . S
H471 C468 0.930 . S
C472 C474 1.348 . S
C472 C475 1.356 1_545 S
C472 O502 1.325 . S
N473 C476 1.314 1_565 S
N473 C477 1.279 . S
C474 C472 1.348 . S
C474 C476 1.353 . S
C474 H516 0.929 . S
C475 C472 1.356 1_565 S
C475 C477 1.358 . S
C475 H517 0.930 . S
C476 N473 1.314 1_545 S
C476 C474 1.353 . S
C476 H518 0.930 . S
C477 N473 1.279 . S
C477 C475 1.358 . S
C477 H519 0.930 . S
C478 C479 1.348 . S
C478 C480 1.356 . S
C478 O503 1.325 . S
C479 C478 1.348 . S
C479 C481 1.353 . S
C479 H520 0.929 . S
C480 C478 1.356 . S
C480 C482 1.358 . S
C480 H521 0.930 . S
C481 C479 1.353 . S
C481 N483 1.314 . S
C481 H522 0.930 . S
C482 C480 1.358 . S
C482 N483 1.279 . S
C482 H523 0.930 . S
N483 C481 1.314 . S
N483 C482 1.279 . S
C484 C486 1.353 . S
C484 N487 1.314 . S
C484 H490 0.930 . S
C485 N487 1.279 . S
C485 C488 1.358 . S
C485 H491 0.930 . S
C486 C484 1.353 . S
C486 C489 1.348 . S
C486 H524 0.929 . S
N487 Li442 1.990 1_565 S
N487 C484 1.314 . S
N487 C485 1.279 . S
C488 C485 1.358 . S
C488 C489 1.356 . S
C488 H525 0.930 . S
C489 C486 1.348 . S
C489 C488 1.356 . S
H490 C484 0.930 . S
H491 C485 0.930 . S
C492 N493 1.314 . S
C492 C494 1.353 . S
C492 H498 0.930 . S
N493 Li443 1.990 . S
N493 C492 1.314 . S
N493 C496 1.279 . S
C494 C492 1.353 . S
C494 C497 1.348 . S
C494 H526 0.929 . S
C495 C496 1.358 . S
C495 C497 1.356 . S
C495 H527 0.930 . S
C496 N493 1.279 . S
C496 C495 1.358 . S
C496 H499 0.930 . S
C497 C494 1.348 . S
C497 C495 1.356 . S
H498 C492 0.930 . S
H499 C496 0.930 . S
O500 Li440 1.956 . S
O500 Li441 1.970 . S
O500 Li442 1.961 . S
O500 C444 1.295 1_545 S
O501 Li440 1.970 . S
O501 Li441 1.956 . S
O501 Li443 1.961 . S
O501 C450 1.325 . S
O502 Li440 1.961 . S
O502 Li442 1.956 . S
O502 Li443 1.970 . S
O502 C472 1.325 . S
O503 Li441 1.961 . S
O503 Li442 1.970 . S
O503 Li443 1.956 . S
O503 C478 1.325 . S
H504 C446 0.929 . S
H505 C447 0.930 . S
H506 C448 0.930 . S
H507 C449 0.930 . S
H508 C451 0.930 . S
H509 C453 0.929 . S
H510 C454 0.930 . S
H511 C455 0.930 . S
H512 C458 0.930 . S
H513 C461 0.929 . S
H514 C466 0.929 . S
H515 C467 0.930 . S
H516 C474 0.929 . S
H517 C475 0.930 . S
H518 C476 0.930 . S
H519 C477 0.930 . S
H520 C479 0.929 . S
H521 C480 0.930 . S
H522 C481 0.930 . S
H523 C482 0.930 . S
H524 C486 0.929 . S
H525 C488 0.930 . S
H526 C494 0.929 . S
H527 C495 0.930 . S
Li528 N545 1.990 . S
Li528 O588 1.956 . S
Li528 O589 1.970 . S
Li528 O590 1.961 . S
Li529 N553 1.990 . S
Li529 O588 1.970 . S
Li529 O589 1.956 . S
Li529 O591 1.961 . S
Li530 N575 1.990 . S
Li530 O588 1.961 . S
Li530 O590 1.956 . S
Li530 O591 1.970 . S
Li531 N581 1.990 . S
Li531 O589 1.961 . S
Li531 O590 1.970 . S
Li531 O591 1.956 . S
C532 C534 1.348 1_556 S
C532 C535 1.356 . S
C532 O588 1.325 . S
N533 C536 1.314 . S
N533 C537 1.279 1_554 S
C534 C532 1.348 1_554 S
C534 C536 1.353 . S
C534 H592 0.929 . S
C535 C532 1.356 . S
C535 C537 1.358 . S
C535 H593 0.930 . S
C536 N533 1.314 . S
C536 C534 1.353 . S
C536 H594 0.930 . S
C537 N533 1.279 1_556 S
C537 C535 1.358 . S
C537 H595 0.930 . S
C538 C541 1.348 . S
C538 C542 1.356 . S
C538 O589 1.325 . S
C539 N540 1.279 . S
C539 C542 1.358 . S
C539 H596 0.930 . S
N540 C539 1.279 . S
N540 C543 1.314 . S
C541 C538 1.348 . S
C541 C543 1.353 . S
C541 H597 0.929 . S
C542 C538 1.356 . S
C542 C539 1.358 . S
C542 H598 0.930 . S
C543 N540 1.314 . S
C543 C541 1.353 . S
C543 H599 0.930 . S
C544 N545 1.314 . S
C544 C549 1.353 . S
C544 H550 0.930 . S
N545 Li528 1.990 . S
N545 C544 1.314 . S
N545 C547 1.279 . S
C546 C547 1.358 . S
C546 C548 1.356 . S
C546 H600 0.930 . S
C547 N545 1.279 . S
C547 C546 1.358 . S
C547 H551 0.930 . S
C548 C546 1.356 . S
C548 C549 1.348 . S
C549 C544 1.353 . S
C549 C548 1.348 . S
C549 H601 0.929 . S
H550 C544 0.930 . S
H551 C547 0.930 . S
C552 N553 1.314 . S
C552 C554 1.353 1_556 S
C552 H558 0.930 . S
N553 Li529 1.990 . S
N553 C552 1.314 . S
N553 C556 1.277 1_556 S
C554 C552 1.353 1_554 S
C554 C557 1.348 . S
C554 H602 0.929 . S
C555 C556 1.362 . S
C555 C557 1.356 . S
C555 H603 0.930 . S
C556 N553 1.277 1_554 S
C556 C555 1.362 . S
C556 H559 0.929 1_554 S
C557 C554 1.348 . S
C557 C555 1.356 . S
H558 C552 0.930 . S
H559 C556 0.929 1_556 S
C560 C562 1.348 . S
C560 C563 1.356 . S
C560 O590 1.325 . S
N561 C564 1.314 . S
N561 C565 1.279 . S
C562 C560 1.348 . S
C562 C564 1.353 . S
C562 H604 0.929 . S
C563 C560 1.356 . S
C563 C565 1.358 . S
C563 H605 0.930 . S
C564 N561 1.314 . S
C564 C562 1.353 . S
C564 H606 0.930 . S
C565 N561 1.279 . S
C565 C563 1.358 . S
C565 H607 0.930 . S
C566 C567 1.348 . S
C566 C568 1.356 . S
C566 O591 1.325 . S
C567 C566 1.348 . S
C567 C569 1.353 . S
C567 H608 0.929 . S
C568 C566 1.356 . S
C568 C570 1.358 . S
C568 H609 0.930 . S
C569 C567 1.353 . S
C569 N571 1.314 . S
C569 H610 0.930 . S
C570 C568 1.358 . S
C570 N571 1.279 . S
C570 H611 0.930 . S
N571 C569 1.314 . S
N571 C570 1.279 . S
C572 C574 1.353 . S
C572 N575 1.314 . S
C572 H578 0.930 . S
C573 N575 1.279 . S
C573 C576 1.358 . S
C573 H579 0.930 . S
C574 C572 1.353 . S
C574 C577 1.348 . S
C574 H612 0.929 . S
N575 Li530 1.990 . S
N575 C572 1.314 . S
N575 C573 1.279 . S
C576 C573 1.358 . S
C576 C577 1.356 . S
C576 H613 0.930 . S
C577 C574 1.348 . S
C577 C576 1.356 . S
H578 C572 0.930 . S
H579 C573 0.930 . S
C580 N581 1.314 . S
C580 C582 1.353 . S
C580 H586 0.930 . S
N581 Li531 1.990 . S
N581 C580 1.314 . S
N581 C584 1.279 . S
C582 C580 1.353 . S
C582 C585 1.348 . S
C582 H614 0.929 . S
C583 C584 1.358 . S
C583 C585 1.356 . S
C583 H615 0.930 . S
C584 N581 1.279 . S
C584 C583 1.358 . S
C584 H587 0.930 . S
C585 C582 1.348 . S
C585 C583 1.356 . S
H586 C580 0.930 . S
H587 C584 0.930 . S
O588 Li528 1.956 . S
O588 Li529 1.970 . S
O588 Li530 1.961 . S
O588 C532 1.325 . S
O589 Li528 1.970 . S
O589 Li529 1.956 . S
O589 Li531 1.961 . S
O589 C538 1.325 . S
O590 Li528 1.961 . S
O590 Li530 1.956 . S
O590 Li531 1.970 . S
O590 C560 1.325 . S
O591 Li529 1.961 . S
O591 Li530 1.970 . S
O591 Li531 1.956 . S
O591 C566 1.325 . S
H592 C534 0.929 . S
H593 C535 0.930 . S
H594 C536 0.930 . S
H595 C537 0.930 . S
H596 C539 0.930 . S
H597 C541 0.929 . S
H598 C542 0.930 . S
H599 C543 0.930 . S
H600 C546 0.930 . S
H601 C549 0.929 . S
H602 C554 0.929 . S
H603 C555 0.930 . S
H604 C562 0.929 . S
H605 C563 0.930 . S
H606 C564 0.930 . S
H607 C565 0.930 . S
H608 C567 0.929 . S
H609 C568 0.930 . S
H610 C569 0.930 . S
H611 C570 0.930 . S
H612 C574 0.929 . S
H613 C576 0.930 . S
H614 C582 0.929 . S
H615 C583 0.930 . S
Li616 N633 1.990 . S
Li616 O676 1.956 . S
Li616 O677 1.970 . S
Li616 O678 1.961 . S
Li617 N641 1.990 . S
Li617 O676 1.970 . S
Li617 O677 1.956 . S
Li617 O679 1.961 . S
Li618 N663 1.990 . S
Li618 O676 1.961 . S
Li618 O678 1.956 . S
Li618 O679 1.970 . S
Li619 N669 1.990 . S
Li619 O677 1.961 . S
Li619 O678 1.970 . S
Li619 O679 1.956 . S
C620 C622 1.348 . S
C620 C623 1.356 . S
C620 O676 1.325 . S
N621 C624 1.314 . S
N621 C625 1.279 . S
C622 C620 1.348 . S
C622 C624 1.353 . S
C622 H680 0.929 . S
C623 C620 1.356 . S
C623 C625 1.358 . S
C623 H681 0.930 . S
C624 N621 1.314 . S
C624 C622 1.353 . S
C624 H682 0.930 . S
C625 N621 1.279 . S
C625 C623 1.358 . S
C625 H683 0.930 . S
C626 C629 1.348 . S
C626 C630 1.356 . S
C626 O677 1.325 . S
C627 N628 1.279 . S
C627 C630 1.358 . S
C627 H684 0.930 . S
N628 C627 1.279 . S
N628 C631 1.314 . S
C629 C626 1.348 . S
C629 C631 1.353 . S
C629 H685 0.929 . S
C630 C626 1.356 . S
C630 C627 1.358 . S
C630 H686 0.930 . S
C631 N628 1.314 . S
C631 C629 1.353 . S
C631 H687 0.930 . S
C632 N633 1.314 . S
C632 C637 1.353 . S
C632 H638 0.930 . S
N633 Li616 1.990 . S
N633 C632 1.314 . S
N633 C635 1.279 . S
C634 C635 1.358 . S
C634 C636 1.356 . S
C634 H688 0.930 . S
C635 N633 1.279 . S
C635 C634 1.358 . S
C635 H639 0.930 . S
C636 C634 1.356 . S
C636 C637 1.348 . S
C637 C632 1.353 . S
C637 C636 1.348 . S
C637 H689 0.929 . S
H638 C632 0.930 . S
H639 C635 0.930 . S
C640 N641 1.314 . S
C640 C642 1.353 . S
C640 H646 0.930 . S
N641 Li617 1.990 . S
N641 C640 1.314 . S
N641 C644 1.279 . S
C642 C640 1.353 . S
C642 C645 1.348 . S
C642 H690 0.929 . S
C643 C644 1.358 . S
C643 C645 1.356 . S
C643 H691 0.930 . S
C644 N641 1.279 . S
C644 C643 1.358 . S
C644 H647 0.930 . S
C645 C642 1.348 . S
C645 C643 1.356 . S
H646 C640 0.930 . S
H647 C644 0.930 . S
C648 C650 1.348 . S
C648 C651 1.356 . S
C648 O678 1.325 . S
N649 C652 1.314 . S
N649 C653 1.279 . S
C650 C648 1.348 . S
C650 C652 1.353 . S
C650 H692 0.929 . S
C651 C648 1.356 . S
C651 C653 1.358 . S
C651 H693 0.930 . S
C652 N649 1.314 . S
C652 C650 1.353 . S
C652 H694 0.930 . S
C653 N649 1.279 . S
C653 C651 1.358 . S
C653 H695 0.930 . S
C654 C655 1.348 . S
C654 C656 1.356 . S
C654 O679 1.325 . S
C655 C654 1.348 . S
C655 C657 1.353 . S
C655 H696 0.929 . S
C656 C654 1.356 . S
C656 C658 1.358 . S
C656 H697 0.930 . S
C657 C655 1.353 . S
C657 N659 1.314 . S
C657 H698 0.930 . S
C658 C656 1.358 . S
C658 N659 1.279 . S
C658 H699 0.930 . S
N659 C657 1.314 . S
N659 C658 1.279 . S
C660 C662 1.353 . S
C660 N663 1.314 . S
C660 H666 0.930 . S
C661 N663 1.279 . S
C661 C664 1.358 . S
C661 H667 0.930 . S
C662 C660 1.353 . S
C662 C665 1.348 . S
C662 H700 0.929 . S
N663 Li618 1.990 . S
N663 C660 1.314 . S
N663 C661 1.279 . S
C664 C661 1.358 . S
C664 C665 1.356 . S
C664 H701 0.930 . S
C665 C662 1.348 . S
C665 C664 1.356 . S
H666 C660 0.930 . S
H667 C661 0.930 . S
C668 N669 1.314 . S
C668 C670 1.353 . S
C668 H674 0.930 . S
N669 Li619 1.990 . S
N669 C668 1.314 . S
N669 C672 1.279 . S
C670 C668 1.353 . S
C670 C673 1.348 . S
C670 H702 0.929 . S
C671 C672 1.358 . S
C671 C673 1.356 . S
C671 H703 0.930 . S
C672 N669 1.279 . S
C672 C671 1.358 . S
C672 H675 0.930 . S
C673 C670 1.348 . S
C673 C671 1.356 . S
H674 C668 0.930 . S
H675 C672 0.930 . S
O676 Li616 1.956 . S
O676 Li617 1.970 . S
O676 Li618 1.961 . S
O676 C620 1.325 . S
O677 Li616 1.970 . S
O677 Li617 1.956 . S
O677 Li619 1.961 . S
O677 C626 1.325 . S
O678 Li616 1.961 . S
O678 Li618 1.956 . S
O678 Li619 1.970 . S
O678 C648 1.325 . S
O679 Li617 1.961 . S
O679 Li618 1.970 . S
O679 Li619 1.956 . S
O679 C654 1.325 . S
H680 C622 0.929 . S
H681 C623 0.930 . S
H682 C624 0.930 . S
H683 C625 0.930 . S
H684 C627 0.930 . S
H685 C629 0.929 . S
H686 C630 0.930 . S
H687 C631 0.930 . S
H688 C634 0.930 . S
H689 C637 0.929 . S
H690 C642 0.929 . S
H691 C643 0.930 . S
H692 C650 0.929 . S
H693 C651 0.930 . S
H694 C652 0.930 . S
H695 C653 0.930 . S
H696 C655 0.929 . S
H697 C656 0.930 . S
H698 C657 0.930 . S
H699 C658 0.930 . S
H700 C662 0.929 . S
H701 C664 0.930 . S
H702 C670 0.929 . S
H703 C671 0.930 . S
Li704 N721 1.990 . S
Li704 O764 1.956 . S
Li704 O765 1.970 . S
Li704 O766 1.961 . S
Li705 N729 1.990 . S
Li705 O764 1.970 . S
Li705 O765 1.956 . S
Li705 O767 1.961 . S
Li706 N751 1.990 1_655 S
Li706 O764 1.961 . S
Li706 O766 1.956 . S
Li706 O767 1.970 . S
Li707 N757 1.990 . S
Li707 O765 1.961 . S
Li707 O766 1.970 . S
Li707 O767 1.956 . S
C708 C710 1.349 . S
C708 C711 1.367 . S
C708 O764 1.313 1_455 S
N709 C712 1.314 . S
N709 C713 1.279 . S
C710 C708 1.349 . S
C710 C712 1.353 1_556 S
C710 H768 0.929 1_455 S
C711 C708 1.367 . S
C711 C713 1.358 1_556 S
C711 H769 0.930 . S
C712 N709 1.314 . S
C712 C710 1.353 1_554 S
C712 H770 0.930 . S
C713 N709 1.279 . S
C713 C711 1.358 1_554 S
C713 H771 0.930 . S
C714 C717 1.348 . S
C714 C718 1.356 . S
C714 O765 1.325 . S
C715 N716 1.279 . S
C715 C718 1.358 . S
C715 H772 0.930 . S
N716 C715 1.279 . S
N716 C719 1.314 . S
C717 C714 1.348 . S
C717 C719 1.353 . S
C717 H773 0.929 . S
C718 C714 1.356 . S
C718 C715 1.358 . S
C718 H774 0.930 . S
C719 N716 1.314 . S
C719 C717 1.353 . S
C719 H775 0.930 . S
C720 N721 1.314 . S
C720 C725 1.353 1_556 S
C720 H726 0.930 . S
N721 Li704 1.990 . S
N721 C720 1.314 . S
N721 C723 1.279 1_556 S
C722 C723 1.358 . S
C722 C724 1.356 . S
C722 H776 0.930 . S
C723 N721 1.279 1_554 S
C723 C722 1.358 . S
C723 H727 0.930 . S
C724 C722 1.356 . S
C724 C725 1.348 . S
C725 C720 1.353 1_554 S
C725 C724 1.348 . S
C725 H777 0.929 . S
H726 C720 0.930 . S
H727 C723 0.930 . S
C728 N729 1.314 . S
C728 C730 1.353 . S
C728 H734 0.930 1_655 S
N729 Li705 1.990 . S
N729 C728 1.314 . S
N729 C732 1.279 . S
C730 C728 1.353 . S
C730 C733 1.348 . S
C730 H778 0.929 1_655 S
C731 C732 1.358 . S
C731 C733 1.356 . S
C731 H779 0.930 . S
C732 N729 1.279 . S
C732 C731 1.358 . S
C732 H735 0.930 . S
C733 C730 1.348 . S
C733 C731 1.356 . S
H734 C728 0.930 1_455 S
H735 C732 0.930 . S
C736 C738 1.348 . S
C736 C739 1.356 . S
C736 O766 1.325 . S
N737 C740 1.314 . S
N737 C741 1.279 . S
C738 C736 1.348 . S
C738 C740 1.353 . S
C738 H780 0.929 . S
C739 C736 1.356 . S
C739 C741 1.358 . S
C739 H781 0.930 . S
C740 N737 1.314 . S
C740 C738 1.353 . S
C740 H782 0.930 . S
C741 N737 1.279 . S
C741 C739 1.358 . S
C741 H783 0.930 . S
C742 C743 1.348 1_655 S
C742 C744 1.356 . S
C742 O767 1.325 . S
C743 C742 1.348 1_455 S
C743 C745 1.353 . S
C743 H784 0.929 . S
C744 C742 1.356 . S
C744 C746 1.358 . S
C744 H785 0.930 . S
C745 C743 1.353 . S
C745 N747 1.314 . S
C745 H786 0.930 . S
C746 C744 1.358 . S
C746 N747 1.279 1_655 S
C746 H787 0.930 . S
N747 C745 1.314 . S
N747 C746 1.279 1_455 S
C748 C750 1.353 . S
C748 N751 1.314 . S
C748 H754 0.930 . S
C749 N751 1.279 . S
C749 C752 1.358 . S
C749 H755 0.930 . S
C750 C748 1.353 . S
C750 C753 1.348 . S
C750 H788 0.929 . S
N751 Li706 1.990 1_455 S
N751 C748 1.314 . S
N751 C749 1.279 . S
C752 C749 1.358 . S
C752 C753 1.356 . S
C752 H789 0.930 . S
C753 C750 1.348 . S
C753 C752 1.356 . S
H754 C748 0.930 . S
H755 C749 0.930 . S
C756 N757 1.314 . S
C756 C758 1.353 . S
C756 H762 0.930 . S
N757 Li707 1.990 . S
N757 C756 1.314 . S
N757 C760 1.279 . S
C758 C756 1.353 . S
C758 C761 1.348 . S
C758 H790 0.929 . S
C759 C760 1.358 . S
C759 C761 1.356 . S
C759 H791 0.930 . S
C760 N757 1.279 . S
C760 C759 1.358 . S
C760 H763 0.930 . S
C761 C758 1.348 . S
C761 C759 1.356 . S
H762 C756 0.930 . S
H763 C760 0.930 . S
O764 Li704 1.956 . S
O764 Li705 1.970 . S
O764 Li706 1.961 . S
O764 C708 1.313 1_655 S
O765 Li704 1.970 . S
O765 Li705 1.956 . S
O765 Li707 1.961 . S
O765 C714 1.325 . S
O766 Li704 1.961 . S
O766 Li706 1.956 . S
O766 Li707 1.970 . S
O766 C736 1.325 . S
O767 Li705 1.961 . S
O767 Li706 1.970 . S
O767 Li707 1.956 . S
O767 C742 1.325 . S
H768 C710 0.929 1_655 S
H769 C711 0.930 . S
H770 C712 0.930 . S
H771 C713 0.930 . S
H772 C715 0.930 . S
H773 C717 0.929 . S
H774 C718 0.930 . S
H775 C719 0.930 . S
H776 C722 0.930 . S
H777 C725 0.929 . S
H778 C730 0.929 1_455 S
H779 C731 0.930 . S
H780 C738 0.929 . S
H781 C739 0.930 . S
H782 C740 0.930 . S
H783 C741 0.930 . S
H784 C743 0.929 . S
H785 C744 0.930 . S
H786 C745 0.930 . S
H787 C746 0.930 . S
H788 C750 0.929 . S
H789 C752 0.930 . S
H790 C758 0.929 . S
H791 C759 0.930 . S
Li792 N809 1.990 . S
Li792 O852 1.956 . S
Li792 O853 1.970 . S
Li792 O854 1.961 . S
Li793 N817 1.990 . S
Li793 O852 1.970 . S
Li793 O853 1.956 . S
Li793 O855 1.961 . S
Li794 N839 1.990 1_565 S
Li794 O852 1.961 . S
Li794 O854 1.956 . S
Li794 O855 1.970 . S
Li795 N845 1.990 . S
Li795 O853 1.961 . S
Li795 O854 1.970 . S
Li795 O855 1.956 . S
C796 C798 1.349 . S
C796 C799 1.367 . S
C796 O852 1.313 1_545 S
N797 C800 1.314 . S
N797 C801 1.279 . S
C798 C796 1.349 . S
C798 C800 1.353 . S
C798 H856 0.929 1_545 S
C799 C796 1.367 . S
C799 C801 1.358 . S
C799 H857 0.930 . S
C800 N797 1.314 . S
C800 C798 1.353 . S
C800 H858 0.930 . S
C801 N797 1.279 . S
C801 C799 1.358 . S
C801 H859 0.930 . S
C802 C805 1.348 . S
C802 C806 1.356 . S
C802 O853 1.325 . S
C803 N804 1.279 . S
C803 C806 1.358 . S
C803 H860 0.930 . S
N804 C803 1.279 . S
N804 C807 1.314 . S
C805 C802 1.348 . S
C805 C807 1.353 . S
C805 H861 0.929 . S
C806 C802 1.356 . S
C806 C803 1.358 . S
C806 H862 0.930 . S
C807 N804 1.314 . S
C807 C805 1.353 . S
C807 H863 0.930 . S
C808 N809 1.314 . S
C808 C813 1.353 . S
C808 H814 0.930 . S
N809 Li792 1.990 . S
N809 C808 1.314 . S
N809 C811 1.279 . S
C810 C811 1.358 . S
C810 C812 1.356 . S
C810 H864 0.930 . S
C811 N809 1.279 . S
C811 C810 1.358 . S
C811 H815 0.930 . S
C812 C810 1.356 . S
C812 C813 1.348 . S
C813 C808 1.353 . S
C813 C812 1.348 . S
C813 H865 0.929 . S
H814 C808 0.930 . S
H815 C811 0.930 . S
C816 N817 1.314 . S
C816 C818 1.353 . S
C816 H822 0.930 1_565 S
N817 Li793 1.990 . S
N817 C816 1.314 . S
N817 C820 1.279 . S
C818 C816 1.353 . S
C818 C821 1.348 . S
C818 H866 0.929 1_565 S
C819 C820 1.358 . S
C819 C821 1.356 . S
C819 H867 0.930 . S
C820 N817 1.279 . S
C820 C819 1.358 . S
C820 H823 0.930 . S
C821 C818 1.348 . S
C821 C819 1.356 . S
H822 C816 0.930 1_545 S
H823 C820 0.930 . S
C824 C826 1.348 . S
C824 C827 1.356 . S
C824 O854 1.325 . S
N825 C828 1.314 . S
N825 C829 1.279 . S
C826 C824 1.348 . S
C826 C828 1.353 . S
C826 H868 0.929 . S
C827 C824 1.356 . S
C827 C829 1.358 . S
C827 H869 0.930 . S
C828 N825 1.314 . S
C828 C826 1.353 . S
C828 H870 0.930 . S
C829 N825 1.279 . S
C829 C827 1.358 . S
C829 H871 0.930 . S
C830 C831 1.348 1_565 S
C830 C832 1.356 . S
C830 O855 1.325 . S
C831 C830 1.348 1_545 S
C831 C833 1.353 . S
C831 H872 0.929 . S
C832 C830 1.356 . S
C832 C834 1.358 . S
C832 H873 0.930 . S
C833 C831 1.353 . S
C833 N835 1.314 . S
C833 H874 0.930 . S
C834 C832 1.358 . S
C834 N835 1.279 1_565 S
C834 H875 0.930 . S
N835 C833 1.314 . S
N835 C834 1.279 1_545 S
C836 C838 1.353 . S
C836 N839 1.314 . S
C836 H842 0.930 . S
C837 N839 1.279 . S
C837 C840 1.358 . S
C837 H843 0.930 . S
C838 C836 1.353 . S
C838 C841 1.348 . S
C838 H876 0.929 . S
N839 Li794 1.990 1_545 S
N839 C836 1.314 . S
N839 C837 1.279 . S
C840 C837 1.358 . S
C840 C841 1.356 . S
C840 H877 0.930 . S
C841 C838 1.348 . S
C841 C840 1.356 . S
H842 C836 0.930 . S
H843 C837 0.930 . S
C844 N845 1.314 . S
C844 C846 1.353 . S
C844 H850 0.930 . S
N845 Li795 1.990 . S
N845 C844 1.314 . S
N845 C848 1.279 . S
C846 C844 1.353 . S
C846 C849 1.348 . S
C846 H878 0.929 . S
C847 C848 1.358 . S
C847 C849 1.356 . S
C847 H879 0.930 . S
C848 N845 1.279 . S
C848 C847 1.358 . S
C848 H851 0.930 . S
C849 C846 1.348 . S
C849 C847 1.356 . S
H850 C844 0.930 . S
H851 C848 0.930 . S
O852 Li792 1.956 . S
O852 Li793 1.970 . S
O852 Li794 1.961 . S
O852 C796 1.313 1_565 S
O853 Li792 1.970 . S
O853 Li793 1.956 . S
O853 Li795 1.961 . S
O853 C802 1.325 . S
O854 Li792 1.961 . S
O854 Li794 1.956 . S
O854 Li795 1.970 . S
O854 C824 1.325 . S
O855 Li793 1.961 . S
O855 Li794 1.970 . S
O855 Li795 1.956 . S
O855 C830 1.325 . S
H856 C798 0.929 1_565 S
H857 C799 0.930 . S
H858 C800 0.930 . S
H859 C801 0.930 . S
H860 C803 0.930 . S
H861 C805 0.929 . S
H862 C806 0.930 . S
H863 C807 0.930 . S
H864 C810 0.930 . S
H865 C813 0.929 . S
H866 C818 0.929 1_545 S
H867 C819 0.930 . S
H868 C826 0.929 . S
H869 C827 0.930 . S
H870 C828 0.930 . S
H871 C829 0.930 . S
H872 C831 0.929 . S
H873 C832 0.930 . S
H874 C833 0.930 . S
H875 C834 0.930 . S
H876 C838 0.929 . S
H877 C840 0.930 . S
H878 C846 0.929 . S
H879 C847 0.930 . S
Li880 N897 1.990 . S
Li880 O940 1.956 . S
Li880 O941 1.970 . S
Li880 O942 1.961 . S
Li881 N905 1.990 . S
Li881 O940 1.970 . S
Li881 O941 1.956 . S
Li881 O943 1.961 . S
Li882 N927 1.990 . S
Li882 O940 1.961 . S
Li882 O942 1.956 . S
Li882 O943 1.970 . S
Li883 N933 1.990 . S
Li883 O941 1.961 . S
Li883 O942 1.970 . S
Li883 O943 1.956 . S
C884 C886 1.348 . S
C884 C887 1.356 . S
C884 O940 1.325 . S
N885 C888 1.314 . S
N885 C889 1.279 . S
C886 C884 1.348 . S
C886 C888 1.353 . S
C886 H944 0.929 . S
C887 C884 1.356 . S
C887 C889 1.358 . S
C887 H945 0.930 . S
C888 N885 1.314 . S
C888 C886 1.353 . S
C888 H946 0.930 . S
C889 N885 1.279 . S
C889 C887 1.358 . S
C889 H947 0.930 . S
C890 C893 1.348 . S
C890 C894 1.356 . S
C890 O941 1.325 . S
C891 N892 1.279 . S
C891 C894 1.358 1_554 S
C891 H948 0.930 . S
N892 C891 1.279 . S
N892 C895 1.314 . S
C893 C890 1.348 . S
C893 C895 1.353 1_556 S
C893 H949 0.929 . S
C894 C890 1.356 . S
C894 C891 1.358 1_556 S
C894 H950 0.930 . S
C895 N892 1.314 . S
C895 C893 1.353 1_554 S
C895 H951 0.930 . S
C896 N897 1.314 . S
C896 C901 1.353 . S
C896 H902 0.930 . S
N897 Li880 1.990 . S
N897 C896 1.314 . S
N897 C899 1.279 . S
C898 C899 1.358 . S
C898 C900 1.356 . S
C898 H952 0.930 . S
C899 N897 1.279 . S
C899 C898 1.358 . S
C899 H903 0.930 . S
C900 C898 1.356 . S
C900 C901 1.348 . S
C901 C896 1.353 . S
C901 C900 1.348 . S
C901 H953 0.929 . S
H902 C896 0.930 . S
H903 C899 0.930 . S
C904 N905 1.314 . S
C904 C906 1.353 1_556 S
C904 H910 0.930 . S
N905 Li881 1.990 . S
N905 C904 1.314 . S
N905 C908 1.279 1_556 S
C906 C904 1.353 1_554 S
C906 C909 1.348 . S
C906 H954 0.929 . S
C907 C908 1.358 . S
C907 C909 1.356 . S
C907 H955 0.930 . S
C908 N905 1.279 1_554 S
C908 C907 1.358 . S
C908 H911 0.930 . S
C909 C906 1.348 . S
C909 C907 1.356 . S
H910 C904 0.930 . S
H911 C908 0.930 . S
C912 C914 1.348 . S
C912 C915 1.356 . S
C912 O942 1.325 . S
N913 C916 1.314 . S
N913 C917 1.279 . S
C914 C912 1.348 . S
C914 C916 1.353 . S
C914 H956 0.929 . S
C915 C912 1.356 . S
C915 C917 1.358 . S
C915 H957 0.930 . S
C916 N913 1.314 . S
C916 C914 1.353 . S
C916 H958 0.930 . S
C917 N913 1.279 . S
C917 C915 1.358 . S
C917 H959 0.930 . S
C918 C919 1.348 . S
C918 C920 1.356 . S
C918 O943 1.325 . S
C919 C918 1.348 . S
C919 C921 1.353 . S
C919 H960 0.929 . S
C920 C918 1.356 . S
C920 C922 1.358 . S
C920 H961 0.930 . S
C921 C919 1.353 . S
C921 N923 1.314 . S
C921 H962 0.930 . S
C922 C920 1.358 . S
C922 N923 1.279 . S
C922 H963 0.930 . S
N923 C921 1.314 . S
N923 C922 1.279 . S
C924 C926 1.353 . S
C924 N927 1.314 . S
C924 H930 0.930 . S
C925 N927 1.279 . S
C925 C928 1.358 . S
C925 H931 0.930 . S
C926 C924 1.353 . S
C926 C929 1.348 . S
C926 H964 0.929 . S
N927 Li882 1.990 . S
N927 C924 1.314 . S
N927 C925 1.279 . S
C928 C925 1.358 . S
C928 C929 1.356 . S
C928 H965 0.930 . S
C929 C926 1.348 . S
C929 C928 1.356 . S
H930 C924 0.930 . S
H931 C925 0.930 . S
C932 N933 1.314 . S
C932 C934 1.353 . S
C932 H938 0.930 . S
N933 Li883 1.990 . S
N933 C932 1.314 . S
N933 C936 1.279 . S
C934 C932 1.353 . S
C934 C937 1.348 . S
C934 H966 0.929 . S
C935 C936 1.358 . S
C935 C937 1.356 . S
C935 H967 0.930 . S
C936 N933 1.279 . S
C936 C935 1.358 . S
C936 H939 0.930 . S
C937 C934 1.348 . S
C937 C935 1.356 . S
H938 C932 0.930 . S
H939 C936 0.930 . S
O940 Li880 1.956 . S
O940 Li881 1.970 . S
O940 Li882 1.961 . S
O940 C884 1.325 . S
O941 Li880 1.970 . S
O941 Li881 1.956 . S
O941 Li883 1.961 . S
O941 C890 1.325 . S
O942 Li880 1.961 . S
O942 Li882 1.956 . S
O942 Li883 1.970 . S
O942 C912 1.325 . S
O943 Li881 1.961 . S
O943 Li882 1.970 . S
O943 Li883 1.956 . S
O943 C918 1.325 . S
H944 C886 0.929 . S
H945 C887 0.930 . S
H946 C888 0.930 . S
H947 C889 0.930 . S
H948 C891 0.930 . S
H949 C893 0.929 . S
H950 C894 0.930 . S
H951 C895 0.930 . S
H952 C898 0.930 . S
H953 C901 0.929 . S
H954 C906 0.929 . S
H955 C907 0.930 . S
H956 C914 0.929 . S
H957 C915 0.930 . S
H958 C916 0.930 . S
H959 C917 0.930 . S
H960 C919 0.929 . S
H961 C920 0.930 . S
H962 C921 0.930 . S
H963 C922 0.930 . S
H964 C926 0.929 . S
H965 C928 0.930 . S
H966 C934 0.929 . S
H967 C935 0.930 . S
Li968 N985 1.990 . S
Li968 O1028 1.956 . S
Li968 O1029 1.970 . S
Li968 O1030 1.961 . S
Li969 N993 1.990 . S
Li969 O1028 1.970 . S
Li969 O1029 1.956 . S
Li969 O1031 1.961 . S
Li970 N1015 1.990 . S
Li970 O1028 1.961 . S
Li970 O1030 1.956 . S
Li970 O1031 1.970 . S
Li971 N1021 1.990 . S
Li971 O1029 1.961 . S
Li971 O1030 1.970 . S
Li971 O1031 1.956 . S
C972 C974 1.348 . S
C972 C975 1.356 . S
C972 O1028 1.325 . S
N973 C976 1.314 . S
N973 C977 1.279 . S
C974 C972 1.348 . S
C974 C976 1.353 . S
C974 H1032 0.929 . S
C975 C972 1.356 . S
C975 C977 1.358 . S
C975 H1033 0.930 . S
C976 N973 1.314 . S
C976 C974 1.353 . S
C976 H1034 0.930 . S
C977 N973 1.279 . S
C977 C975 1.358 . S
C977 H1035 0.930 . S
C978 C981 1.348 . S
C978 C982 1.356 . S
C978 O1029 1.325 . S
C979 N980 1.279 . S
C979 C982 1.358 . S
C979 H1036 0.930 . S
N980 C979 1.279 . S
N980 C983 1.314 . S
C981 C978 1.348 . S
C981 C983 1.353 . S
C981 H1037 0.929 . S
C982 C978 1.356 . S
C982 C979 1.358 . S
C982 H1038 0.930 . S
C983 N980 1.314 . S
C983 C981 1.353 . S
C983 H1039 0.930 . S
C984 N985 1.314 . S
C984 C989 1.353 . S
C984 H990 0.930 . S
N985 Li968 1.990 . S
N985 C984 1.314 . S
N985 C987 1.279 . S
C986 C987 1.358 . S
C986 C988 1.356 . S
C986 H1040 0.930 . S
C987 N985 1.279 . S
C987 C986 1.358 . S
C987 H991 0.930 . S
C988 C986 1.356 . S
C988 C989 1.348 . S
C989 C984 1.353 . S
C989 C988 1.348 . S
C989 H1041 0.929 . S
H990 C984 0.930 . S
H991 C987 0.930 . S
C992 N993 1.314 . S
C992 C994 1.353 . S
C992 H998 0.930 . S
N993 Li969 1.990 . S
N993 C992 1.314 . S
N993 C996 1.279 . S
C994 C992 1.353 . S
C994 C997 1.348 . S
C994 H1042 0.929 . S
C995 C996 1.358 . S
C995 C997 1.356 . S
C995 H1043 0.930 . S
C996 N993 1.279 . S
C996 C995 1.358 . S
C996 H999 0.930 . S
C997 C994 1.348 . S
C997 C995 1.356 . S
H998 C992 0.930 . S
H999 C996 0.930 . S
C1000 C1002 1.348 . S
C1000 C1003 1.356 . S
C1000 O1030 1.325 . S
N1001 C1004 1.314 . S
N1001 C1005 1.279 . S
C1002 C1000 1.348 . S
C1002 C1004 1.353 . S
C1002 H1044 0.929 . S
C1003 C1000 1.356 . S
C1003 C1005 1.358 . S
C1003 H1045 0.930 . S
C1004 N1001 1.314 . S
C1004 C1002 1.353 . S
C1004 H1046 0.930 . S
C1005 N1001 1.279 . S
C1005 C1003 1.358 . S
C1005 H1047 0.930 . S
C1006 C1007 1.348 . S
C1006 C1008 1.356 . S
C1006 O1031 1.325 . S
C1007 C1006 1.348 . S
C1007 C1009 1.353 . S
C1007 H1048 0.929 . S
C1008 C1006 1.356 . S
C1008 C1010 1.358 . S
C1008 H1049 0.930 . S
C1009 C1007 1.353 . S
C1009 N1011 1.314 . S
C1009 H1050 0.930 . S
C1010 C1008 1.358 . S
C1010 N1011 1.279 . S
C1010 H1051 0.930 . S
N1011 C1009 1.314 . S
N1011 C1010 1.279 . S
C1012 C1014 1.353 . S
C1012 N1015 1.314 . S
C1012 H1018 0.930 . S
C1013 N1015 1.279 . S
C1013 C1016 1.358 . S
C1013 H1019 0.930 . S
C1014 C1012 1.353 . S
C1014 C1017 1.348 . S
C1014 H1052 0.929 . S
N1015 Li970 1.990 . S
N1015 C1012 1.314 . S
N1015 C1013 1.279 . S
C1016 C1013 1.358 . S
C1016 C1017 1.356 . S
C1016 H1053 0.930 . S
C1017 C1014 1.348 . S
C1017 C1016 1.356 . S
H1018 C1012 0.930 . S
H1019 C1013 0.930 . S
C1020 N1021 1.314 . S
C1020 C1022 1.353 . S
C1020 H1026 0.930 . S
N1021 Li971 1.990 . S
N1021 C1020 1.314 . S
N1021 C1024 1.279 . S
C1022 C1020 1.353 . S
C1022 C1025 1.348 . S
C1022 H1054 0.929 . S
C1023 C1024 1.358 . S
C1023 C1025 1.356 . S
C1023 H1055 0.930 . S
C1024 N1021 1.279 . S
C1024 C1023 1.358 . S
C1024 H1027 0.930 . S
C1025 C1022 1.348 . S
C1025 C1023 1.356 . S
H1026 C1020 0.930 . S
H1027 C1024 0.930 . S
O1028 Li968 1.956 . S
O1028 Li969 1.970 . S
O1028 Li970 1.961 . S
O1028 C972 1.325 . S
O1029 Li968 1.970 . S
O1029 Li969 1.956 . S
O1029 Li971 1.961 . S
O1029 C978 1.325 . S
O1030 Li968 1.961 . S
O1030 Li970 1.956 . S
O1030 Li971 1.970 . S
O1030 C1000 1.325 . S
O1031 Li969 1.961 . S
O1031 Li970 1.970 . S
O1031 Li971 1.956 . S
O1031 C1006 1.325 . S
H1032 C974 0.929 . S
H1033 C975 0.930 . S
H1034 C976 0.930 . S
H1035 C977 0.930 . S
H1036 C979 0.930 . S
H1037 C981 0.929 . S
H1038 C982 0.930 . S
H1039 C983 0.930 . S
H1040 C986 0.930 . S
H1041 C989 0.929 . S
H1042 C994 0.929 . S
H1043 C995 0.930 . S
H1044 C1002 0.929 . S
H1045 C1003 0.930 . S
H1046 C1004 0.930 . S
H1047 C1005 0.930 . S
H1048 C1007 0.929 . S
H1049 C1008 0.930 . S
H1050 C1009 0.930 . S
H1051 C1010 0.930 . S
H1052 C1014 0.929 . S
H1053 C1016 0.930 . S
H1054 C1022 0.929 . S
H1055 C1023 0.930 . S
Li1056 N1073 1.990 . S
Li1056 O1116 1.956 . S
Li1056 O1117 1.970 . S
Li1056 O1118 1.961 . S
Li1057 N1081 1.990 1_655 S
Li1057 O1116 1.970 . S
Li1057 O1117 1.956 . S
Li1057 O1119 1.961 . S
Li1058 N1103 1.990 . S
Li1058 O1116 1.961 . S
Li1058 O1118 1.956 . S
Li1058 O1119 1.970 . S
Li1059 N1109 1.990 . S
Li1059 O1117 1.961 . S
Li1059 O1118 1.970 . S
Li1059 O1119 1.956 . S
C1060 C1062 1.348 1_655 S
C1060 C1063 1.356 . S
C1060 O1116 1.325 . S
N1061 C1064 1.314 . S
N1061 C1065 1.279 1_455 S
C1062 C1060 1.348 1_455 S
C1062 C1064 1.353 . S
C1062 H1120 0.929 . S
C1063 C1060 1.356 . S
C1063 C1065 1.358 . S
C1063 H1121 0.930 . S
C1064 N1061 1.314 . S
C1064 C1062 1.353 . S
C1064 H1122 0.930 . S
C1065 N1061 1.279 1_655 S
C1065 C1063 1.358 . S
C1065 H1123 0.930 . S
C1066 C1069 1.348 . S
C1066 C1070 1.356 . S
C1066 O1117 1.325 . S
C1067 N1068 1.279 . S
C1067 C1070 1.358 . S
C1067 H1124 0.930 . S
N1068 C1067 1.279 . S
N1068 C1071 1.314 . S
C1069 C1066 1.348 . S
C1069 C1071 1.353 . S
C1069 H1125 0.929 . S
C1070 C1066 1.356 . S
C1070 C1067 1.358 . S
C1070 H1126 0.930 . S
C1071 N1068 1.314 . S
C1071 C1069 1.353 . S
C1071 H1127 0.930 . S
C1072 N1073 1.314 . S
C1072 C1077 1.353 . S
C1072 H1078 0.930 . S
N1073 Li1056 1.990 . S
N1073 C1072 1.314 . S
N1073 C1075 1.279 . S
C1074 C1075 1.358 . S
C1074 C1076 1.356 . S
C1074 H1128 0.930 . S
C1075 N1073 1.279 . S
C1075 C1074 1.358 . S
C1075 H1079 0.930 . S
C1076 C1074 1.356 . S
C1076 C1077 1.348 . S
C1077 C1072 1.353 . S
C1077 C1076 1.348 . S
C1077 H1129 0.929 . S
H1078 C1072 0.930 . S
H1079 C1075 0.930 . S
C1080 N1081 1.314 . S
C1080 C1082 1.353 . S
C1080 H1086 0.930 . S
N1081 Li1057 1.990 1_455 S
N1081 C1080 1.314 . S
N1081 C1084 1.279 . S
C1082 C1080 1.353 . S
C1082 C1085 1.348 . S
C1082 H1130 0.929 . S
C1083 C1084 1.358 . S
C1083 C1085 1.356 . S
C1083 H1131 0.930 . S
C1084 N1081 1.279 . S
C1084 C1083 1.358 . S
C1084 H1087 0.930 . S
C1085 C1082 1.348 . S
C1085 C1083 1.356 . S
H1086 C1080 0.930 . S
H1087 C1084 0.930 . S
C1088 C1090 1.348 . S
C1088 C1091 1.356 . S
C1088 O1118 1.325 . S
N1089 C1092 1.314 . S
N1089 C1093 1.279 . S
C1090 C1088 1.348 . S
C1090 C1092 1.353 . S
C1090 H1132 0.929 . S
C1091 C1088 1.356 . S
C1091 C1093 1.358 . S
C1091 H1133 0.930 . S
C1092 N1089 1.314 . S
C1092 C1090 1.353 . S
C1092 H1134 0.930 . S
C1093 N1089 1.279 . S
C1093 C1091 1.358 . S
C1093 H1135 0.930 . S
C1094 C1095 1.349 . S
C1094 C1096 1.367 . S
C1094 O1119 1.313 1_455 S
C1095 C1094 1.349 . S
C1095 C1097 1.353 1_554 S
C1095 H1136 0.929 1_455 S
C1096 C1094 1.367 . S
C1096 C1098 1.358 1_554 S
C1096 H1137 0.930 . S
C1097 C1095 1.353 1_556 S
C1097 N1099 1.314 . S
C1097 H1138 0.930 . S
C1098 C1096 1.358 1_556 S
C1098 N1099 1.279 . S
C1098 H1139 0.930 . S
N1099 C1097 1.314 . S
N1099 C1098 1.279 . S
C1100 C1102 1.353 . S
C1100 N1103 1.314 . S
C1100 H1106 0.930 1_655 S
C1101 N1103 1.279 . S
C1101 C1104 1.358 . S
C1101 H1107 0.930 . S
C1102 C1100 1.353 . S
C1102 C1105 1.348 . S
C1102 H1140 0.929 1_655 S
N1103 Li1058 1.990 . S
N1103 C1100 1.314 . S
N1103 C1101 1.279 . S
C1104 C1101 1.358 . S
C1104 C1105 1.356 . S
C1104 H1141 0.930 . S
C1105 C1102 1.348 . S
C1105 C1104 1.356 . S
H1106 C1100 0.930 1_455 S
H1107 C1101 0.930 . S
C1108 N1109 1.314 . S
C1108 C1110 1.353 1_554 S
C1108 H1114 0.930 . S
N1109 Li1059 1.990 . S
N1109 C1108 1.314 . S
N1109 C1112 1.279 1_554 S
C1110 C1108 1.353 1_556 S
C1110 C1113 1.348 . S
C1110 H1142 0.929 . S
C1111 C1112 1.358 . S
C1111 C1113 1.356 . S
C1111 H1143 0.930 . S
C1112 N1109 1.279 1_556 S
C1112 C1111 1.358 . S
C1112 H1115 0.930 . S
C1113 C1110 1.348 . S
C1113 C1111 1.356 . S
H1114 C1108 0.930 . S
H1115 C1112 0.930 . S
O1116 Li1056 1.956 . S
O1116 Li1057 1.970 . S
O1116 Li1058 1.961 . S
O1116 C1060 1.325 . S
O1117 Li1056 1.970 . S
O1117 Li1057 1.956 . S
O1117 Li1059 1.961 . S
O1117 C1066 1.325 . S
O1118 Li1056 1.961 . S
O1118 Li1058 1.956 . S
O1118 Li1059 1.970 . S
O1118 C1088 1.325 . S
O1119 Li1057 1.961 . S
O1119 Li1058 1.970 . S
O1119 Li1059 1.956 . S
O1119 C1094 1.313 1_655 S
H1120 C1062 0.929 . S
H1121 C1063 0.930 . S
H1122 C1064 0.930 . S
H1123 C1065 0.930 . S
H1124 C1067 0.930 . S
H1125 C1069 0.929 . S
H1126 C1070 0.930 . S
H1127 C1071 0.930 . S
H1128 C1074 0.930 . S
H1129 C1077 0.929 . S
H1130 C1082 0.929 . S
H1131 C1083 0.930 . S
H1132 C1090 0.929 . S
H1133 C1091 0.930 . S
H1134 C1092 0.930 . S
H1135 C1093 0.930 . S
H1136 C1095 0.929 1_655 S
H1137 C1096 0.930 . S
H1138 C1097 0.930 . S
H1139 C1098 0.930 . S
H1140 C1102 0.929 1_455 S
H1141 C1104 0.930 . S
H1142 C1110 0.929 . S
H1143 C1111 0.930 . S
Li1144 N1161 1.990 1_565 S
Li1144 O1204 1.956 . S
Li1144 O1205 1.970 . S
Li1144 O1206 1.961 . S
Li1145 N1169 1.990 . S
Li1145 O1204 1.970 . S
Li1145 O1205 1.956 . S
Li1145 O1207 1.961 . S
Li1146 N1191 1.990 . S
Li1146 O1204 1.961 . S
Li1146 O1206 1.956 . S
Li1146 O1207 1.970 . S
Li1147 N1197 1.990 . S
Li1147 O1205 1.961 . S
Li1147 O1206 1.970 . S
Li1147 O1207 1.956 . S
C1148 C1150 1.348 . S
C1148 C1151 1.356 . S
C1148 O1204 1.325 . S
N1149 C1152 1.314 . S
N1149 C1153 1.279 . S
C1150 C1148 1.348 . S
C1150 C1152 1.353 . S
C1150 H1208 0.929 . S
C1151 C1148 1.356 . S
C1151 C1153 1.358 . S
C1151 H1209 0.930 . S
C1152 N1149 1.314 . S
C1152 C1150 1.353 . S
C1152 H1210 0.930 . S
C1153 N1149 1.279 . S
C1153 C1151 1.358 . S
C1153 H1211 0.930 . S
C1154 C1157 1.348 1_565 S
C1154 C1158 1.356 . S
C1154 O1205 1.325 . S
C1155 N1156 1.279 1_565 S
C1155 C1158 1.358 . S
C1155 H1212 0.930 . S
N1156 C1155 1.279 1_545 S
N1156 C1159 1.314 . S
C1157 C1154 1.348 1_545 S
C1157 C1159 1.353 . S
C1157 H1213 0.929 . S
C1158 C1154 1.356 . S
C1158 C1155 1.358 . S
C1158 H1214 0.930 . S
C1159 N1156 1.314 . S
C1159 C1157 1.353 . S
C1159 H1215 0.930 . S
C1160 N1161 1.314 . S
C1160 C1165 1.353 . S
C1160 H1166 0.930 . S
N1161 Li1144 1.990 1_545 S
N1161 C1160 1.314 . S
N1161 C1163 1.279 . S
C1162 C1163 1.358 . S
C1162 C1164 1.356 . S
C1162 H1216 0.930 . S
C1163 N1161 1.279 . S
C1163 C1162 1.358 . S
C1163 H1167 0.930 . S
C1164 C1162 1.356 . S
C1164 C1165 1.348 . S
C1165 C1160 1.353 . S
C1165 C1164 1.348 . S
C1165 H1217 0.929 . S
H1166 C1160 0.930 . S
H1167 C1163 0.930 . S
C1168 N1169 1.314 . S
C1168 C1170 1.353 . S
C1168 H1174 0.930 . S
N1169 Li1145 1.990 . S
N1169 C1168 1.314 . S
N1169 C1172 1.279 . S
C1170 C1168 1.353 . S
C1170 C1173 1.348 . S
C1170 H1218 0.929 . S
C1171 C1172 1.358 . S
C1171 C1173 1.356 . S
C1171 H1219 0.930 . S
C1172 N1169 1.279 . S
C1172 C1171 1.358 . S
C1172 H1175 0.930 . S
C1173 C1170 1.348 . S
C1173 C1171 1.356 . S
H1174 C1168 0.930 . S
H1175 C1172 0.930 . S
C1176 C1178 1.349 . S
C1176 C1179 1.367 . S
C1176 O1206 1.313 1_545 S
N1177 C1180 1.314 . S
N1177 C1181 1.279 . S
C1178 C1176 1.349 . S
C1178 C1180 1.353 . S
C1178 H1220 0.929 1_545 S
C1179 C1176 1.367 . S
C1179 C1181 1.358 . S
C1179 H1221 0.930 . S
C1180 N1177 1.314 . S
C1180 C1178 1.353 . S
C1180 H1222 0.930 . S
C1181 N1177 1.279 . S
C1181 C1179 1.358 . S
C1181 H1223 0.930 . S
C1182 C1183 1.348 . S
C1182 C1184 1.356 . S
C1182 O1207 1.325 . S
C1183 C1182 1.348 . S
C1183 C1185 1.353 . S
C1183 H1224 0.929 . S
C1184 C1182 1.356 . S
C1184 C1186 1.358 . S
C1184 H1225 0.930 . S
C1185 C1183 1.353 . S
C1185 N1187 1.314 . S
C1185 H1226 0.930 . S
C1186 C1184 1.358 . S
C1186 N1187 1.279 . S
C1186 H1227 0.930 . S
N1187 C1185 1.314 . S
N1187 C1186 1.279 . S
C1188 C1190 1.353 . S
C1188 N1191 1.314 . S
C1188 H1194 0.930 . S
C1189 N1191 1.279 . S
C1189 C1192 1.358 . S
C1189 H1195 0.930 . S
C1190 C1188 1.353 . S
C1190 C1193 1.348 . S
C1190 H1228 0.929 . S
N1191 Li1146 1.990 . S
N1191 C1188 1.314 . S
N1191 C1189 1.279 . S
C1192 C1189 1.358 . S
C1192 C1193 1.356 . S
C1192 H1229 0.930 . S
C1193 C1190 1.348 . S
C1193 C1192 1.356 . S
H1194 C1188 0.930 . S
H1195 C1189 0.930 . S
C1196 N1197 1.314 . S
C1196 C1198 1.353 . S
C1196 H1202 0.930 1_565 S
N1197 Li1147 1.990 . S
N1197 C1196 1.314 . S
N1197 C1200 1.279 . S
C1198 C1196 1.353 . S
C1198 C1201 1.348 . S
C1198 H1230 0.929 1_565 S
C1199 C1200 1.358 . S
C1199 C1201 1.356 . S
C1199 H1231 0.930 . S
C1200 N1197 1.279 . S
C1200 C1199 1.358 . S
C1200 H1203 0.930 . S
C1201 C1198 1.348 . S
C1201 C1199 1.356 . S
H1202 C1196 0.930 1_545 S
H1203 C1200 0.930 . S
O1204 Li1144 1.956 . S
O1204 Li1145 1.970 . S
O1204 Li1146 1.961 . S
O1204 C1148 1.325 . S
O1205 Li1144 1.970 . S
O1205 Li1145 1.956 . S
O1205 Li1147 1.961 . S
O1205 C1154 1.325 . S
O1206 Li1144 1.961 . S
O1206 Li1146 1.956 . S
O1206 Li1147 1.970 . S
O1206 C1176 1.313 1_565 S
O1207 Li1145 1.961 . S
O1207 Li1146 1.970 . S
O1207 Li1147 1.956 . S
O1207 C1182 1.325 . S
H1208 C1150 0.929 . S
H1209 C1151 0.930 . S
H1210 C1152 0.930 . S
H1211 C1153 0.930 . S
H1212 C1155 0.930 . S
H1213 C1157 0.929 . S
H1214 C1158 0.930 . S
H1215 C1159 0.930 . S
H1216 C1162 0.930 . S
H1217 C1165 0.929 . S
H1218 C1170 0.929 . S
H1219 C1171 0.930 . S
H1220 C1178 0.929 1_565 S
H1221 C1179 0.930 . S
H1222 C1180 0.930 . S
H1223 C1181 0.930 . S
H1224 C1183 0.929 . S
H1225 C1184 0.930 . S
H1226 C1185 0.930 . S
H1227 C1186 0.930 . S
H1228 C1190 0.929 . S
H1229 C1192 0.930 . S
H1230 C1198 0.929 1_545 S
H1231 C1199 0.930 . S
Li1232 N1249 1.990 . S
Li1232 O1292 1.956 . S
Li1232 O1293 1.970 . S
Li1232 O1294 1.961 . S
Li1233 N1257 1.990 . S
Li1233 O1292 1.970 . S
Li1233 O1293 1.956 . S
Li1233 O1295 1.961 . S
Li1234 N1279 1.990 . S
Li1234 O1292 1.961 . S
Li1234 O1294 1.956 . S
Li1234 O1295 1.970 . S
Li1235 N1285 1.990 . S
Li1235 O1293 1.961 . S
Li1235 O1294 1.970 . S
Li1235 O1295 1.956 . S
C1236 C1238 1.348 . S
C1236 C1239 1.356 . S
C1236 O1292 1.325 . S
N1237 C1240 1.314 . S
N1237 C1241 1.279 . S
C1238 C1236 1.348 . S
C1238 C1240 1.353 . S
C1238 H1296 0.929 . S
C1239 C1236 1.356 . S
C1239 C1241 1.358 . S
C1239 H1297 0.930 . S
C1240 N1237 1.314 . S
C1240 C1238 1.353 . S
C1240 H1298 0.930 . S
C1241 N1237 1.279 . S
C1241 C1239 1.358 . S
C1241 H1299 0.930 . S
C1242 C1245 1.348 . S
C1242 C1246 1.356 . S
C1242 O1293 1.325 . S
C1243 N1244 1.279 . S
C1243 C1246 1.358 . S
C1243 H1300 0.930 . S
N1244 C1243 1.279 . S
N1244 C1247 1.314 . S
C1245 C1242 1.348 . S
C1245 C1247 1.353 . S
C1245 H1301 0.929 . S
C1246 C1242 1.356 . S
C1246 C1243 1.358 . S
C1246 H1302 0.930 . S
C1247 N1244 1.314 . S
C1247 C1245 1.353 . S
C1247 H1303 0.930 . S
C1248 N1249 1.314 . S
C1248 C1253 1.353 . S
C1248 H1254 0.930 . S
N1249 Li1232 1.990 . S
N1249 C1248 1.314 . S
N1249 C1251 1.279 . S
C1250 C1251 1.358 . S
C1250 C1252 1.356 . S
C1250 H1304 0.930 . S
C1251 N1249 1.279 . S
C1251 C1250 1.358 . S
C1251 H1255 0.930 . S
C1252 C1250 1.356 . S
C1252 C1253 1.348 . S
C1253 C1248 1.353 . S
C1253 C1252 1.348 . S
C1253 H1305 0.929 . S
H1254 C1248 0.930 . S
H1255 C1251 0.930 . S
C1256 N1257 1.314 . S
C1256 C1258 1.353 . S
C1256 H1262 0.930 . S
N1257 Li1233 1.990 . S
N1257 C1256 1.314 . S
N1257 C1260 1.279 . S
C1258 C1256 1.353 . S
C1258 C1261 1.348 . S
C1258 H1306 0.929 . S
C1259 C1260 1.358 . S
C1259 C1261 1.356 . S
C1259 H1307 0.930 . S
C1260 N1257 1.279 . S
C1260 C1259 1.358 . S
C1260 H1263 0.930 . S
C1261 C1258 1.348 . S
C1261 C1259 1.356 . S
H1262 C1256 0.930 . S
H1263 C1260 0.930 . S
C1264 C1266 1.348 . S
C1264 C1267 1.356 . S
C1264 O1294 1.325 . S
N1265 C1268 1.314 . S
N1265 C1269 1.279 . S
C1266 C1264 1.348 . S
C1266 C1268 1.353 1_554 S
C1266 H1308 0.929 . S
C1267 C1264 1.356 . S
C1267 C1269 1.358 1_554 S
C1267 H1309 0.930 . S
C1268 N1265 1.314 . S
C1268 C1266 1.353 1_556 S
C1268 H1310 0.930 . S
C1269 N1265 1.279 . S
C1269 C1267 1.358 1_556 S
C1269 H1311 0.930 . S
C1270 C1271 1.348 . S
C1270 C1272 1.356 . S
C1270 O1295 1.325 . S
C1271 C1270 1.348 . S
C1271 C1273 1.353 . S
C1271 H1312 0.929 . S
C1272 C1270 1.356 . S
C1272 C1274 1.358 . S
C1272 H1313 0.930 . S
C1273 C1271 1.353 . S
C1273 N1275 1.314 . S
C1273 H1314 0.930 . S
C1274 C1272 1.358 . S
C1274 N1275 1.279 . S
C1274 H1315 0.930 . S
N1275 C1273 1.314 . S
N1275 C1274 1.279 . S
C1276 C1278 1.353 1_554 S
C1276 N1279 1.314 . S
C1276 H1282 0.930 . S
C1277 N1279 1.279 1_556 S
C1277 C1280 1.358 . S
C1277 H1283 0.930 . S
C1278 C1276 1.353 1_556 S
C1278 C1281 1.348 . S
C1278 H1316 0.929 . S
N1279 Li1234 1.990 . S
N1279 C1276 1.314 . S
N1279 C1277 1.279 1_554 S
C1280 C1277 1.358 . S
C1280 C1281 1.356 . S
C1280 H1317 0.930 . S
C1281 C1278 1.348 . S
C1281 C1280 1.356 . S
H1282 C1276 0.930 . S
H1283 C1277 0.930 . S
C1284 N1285 1.314 . S
C1284 C1286 1.353 . S
C1284 H1290 0.930 . S
N1285 Li1235 1.990 . S
N1285 C1284 1.314 . S
N1285 C1288 1.279 . S
C1286 C1284 1.353 . S
C1286 C1289 1.348 . S
C1286 H1318 0.929 . S
C1287 C1288 1.358 . S
C1287 C1289 1.356 . S
C1287 H1319 0.930 . S
C1288 N1285 1.279 . S
C1288 C1287 1.358 . S
C1288 H1291 0.930 . S
C1289 C1286 1.348 . S
C1289 C1287 1.356 . S
H1290 C1284 0.930 . S
H1291 C1288 0.930 . S
O1292 Li1232 1.956 . S
O1292 Li1233 1.970 . S
O1292 Li1234 1.961 . S
O1292 C1236 1.325 . S
O1293 Li1232 1.970 . S
O1293 Li1233 1.956 . S
O1293 Li1235 1.961 . S
O1293 C1242 1.325 . S
O1294 Li1232 1.961 . S
O1294 Li1234 1.956 . S
O1294 Li1235 1.970 . S
O1294 C1264 1.325 . S
O1295 Li1233 1.961 . S
O1295 Li1234 1.970 . S
O1295 Li1235 1.956 . S
O1295 C1270 1.325 . S
H1296 C1238 0.929 . S
H1297 C1239 0.930 . S
H1298 C1240 0.930 . S
H1299 C1241 0.930 . S
H1300 C1243 0.930 . S
H1301 C1245 0.929 . S
H1302 C1246 0.930 . S
H1303 C1247 0.930 . S
H1304 C1250 0.930 . S
H1305 C1253 0.929 . S
H1306 C1258 0.929 . S
H1307 C1259 0.930 . S
H1308 C1266 0.929 . S
H1309 C1267 0.930 . S
H1310 C1268 0.930 . S
H1311 C1269 0.930 . S
H1312 C1271 0.929 . S
H1313 C1272 0.930 . S
H1314 C1273 0.930 . S
H1315 C1274 0.930 . S
H1316 C1278 0.929 . S
H1317 C1280 0.930 . S
H1318 C1286 0.929 . S
H1319 C1287 0.930 . S
Li1320 N1337 1.990 . S
Li1320 O1380 1.956 . S
Li1320 O1381 1.970 . S
Li1320 O1382 1.961 . S
Li1321 N1345 1.990 . S
Li1321 O1380 1.970 . S
Li1321 O1381 1.956 . S
Li1321 O1383 1.961 . S
Li1322 N1367 1.990 . S
Li1322 O1380 1.961 . S
Li1322 O1382 1.956 . S
Li1322 O1383 1.970 . S
Li1323 N1373 1.990 . S
Li1323 O1381 1.961 . S
Li1323 O1382 1.970 . S
Li1323 O1383 1.956 . S
C1324 C1326 1.348 . S
C1324 C1327 1.356 . S
C1324 O1380 1.325 . S
N1325 C1328 1.314 . S
N1325 C1329 1.279 . S
C1326 C1324 1.348 . S
C1326 C1328 1.353 . S
C1326 H1384 0.929 . S
C1327 C1324 1.356 . S
C1327 C1329 1.358 . S
C1327 H1385 0.930 . S
C1328 N1325 1.314 . S
C1328 C1326 1.353 . S
C1328 H1386 0.930 . S
C1329 N1325 1.279 . S
C1329 C1327 1.358 . S
C1329 H1387 0.930 . S
C1330 C1333 1.348 . S
C1330 C1334 1.356 . S
C1330 O1381 1.325 . S
C1331 N1332 1.279 . S
C1331 C1334 1.358 . S
C1331 H1388 0.930 . S
N1332 C1331 1.279 . S
N1332 C1335 1.314 . S
C1333 C1330 1.348 . S
C1333 C1335 1.353 . S
C1333 H1389 0.929 . S
C1334 C1330 1.356 . S
C1334 C1331 1.358 . S
C1334 H1390 0.930 . S
C1335 N1332 1.314 . S
C1335 C1333 1.353 . S
C1335 H1391 0.930 . S
C1336 N1337 1.314 . S
C1336 C1341 1.353 . S
C1336 H1342 0.930 . S
N1337 Li1320 1.990 . S
N1337 C1336 1.314 . S
N1337 C1339 1.279 . S
C1338 C1339 1.358 . S
C1338 C1340 1.356 . S
C1338 H1392 0.930 . S
C1339 N1337 1.279 . S
C1339 C1338 1.358 . S
C1339 H1343 0.930 . S
C1340 C1338 1.356 . S
C1340 C1341 1.348 . S
C1341 C1336 1.353 . S
C1341 C1340 1.348 . S
C1341 H1393 0.929 . S
H1342 C1336 0.930 . S
H1343 C1339 0.930 . S
C1344 N1345 1.314 . S
C1344 C1346 1.353 . S
C1344 H1350 0.930 . S
N1345 Li1321 1.990 . S
N1345 C1344 1.314 . S
N1345 C1348 1.279 . S
C1346 C1344 1.353 . S
C1346 C1349 1.348 . S
C1346 H1394 0.929 . S
C1347 C1348 1.358 . S
C1347 C1349 1.356 . S
C1347 H1395 0.930 . S
C1348 N1345 1.279 . S
C1348 C1347 1.358 . S
C1348 H1351 0.930 . S
C1349 C1346 1.348 . S
C1349 C1347 1.356 . S
H1350 C1344 0.930 . S
H1351 C1348 0.930 . S
C1352 C1354 1.348 . S
C1352 C1355 1.356 . S
C1352 O1382 1.325 . S
N1353 C1356 1.314 . S
N1353 C1357 1.279 . S
C1354 C1352 1.348 . S
C1354 C1356 1.353 . S
C1354 H1396 0.929 . S
C1355 C1352 1.356 . S
C1355 C1357 1.358 . S
C1355 H1397 0.930 . S
C1356 N1353 1.314 . S
C1356 C1354 1.353 . S
C1356 H1398 0.930 . S
C1357 N1353 1.279 . S
C1357 C1355 1.358 . S
C1357 H1399 0.930 . S
C1358 C1359 1.348 . S
C1358 C1360 1.356 . S
C1358 O1383 1.325 . S
C1359 C1358 1.348 . S
C1359 C1361 1.353 . S
C1359 H1400 0.929 . S
C1360 C1358 1.356 . S
C1360 C1362 1.358 . S
C1360 H1401 0.930 . S
C1361 C1359 1.353 . S
C1361 N1363 1.314 . S
C1361 H1402 0.930 . S
C1362 C1360 1.358 . S
C1362 N1363 1.279 . S
C1362 H1403 0.930 . S
N1363 C1361 1.314 . S
N1363 C1362 1.279 . S
C1364 C1366 1.353 . S
C1364 N1367 1.314 . S
C1364 H1370 0.930 . S
C1365 N1367 1.279 . S
C1365 C1368 1.358 . S
C1365 H1371 0.930 . S
C1366 C1364 1.353 . S
C1366 C1369 1.348 . S
C1366 H1404 0.929 . S
N1367 Li1322 1.990 . S
N1367 C1364 1.314 . S
N1367 C1365 1.279 . S
C1368 C1365 1.358 . S
C1368 C1369 1.356 . S
C1368 H1405 0.930 . S
C1369 C1366 1.348 . S
C1369 C1368 1.356 . S
H1370 C1364 0.930 . S
H1371 C1365 0.930 . S
C1372 N1373 1.314 . S
C1372 C1374 1.353 . S
C1372 H1378 0.930 . S
N1373 Li1323 1.990 . S
N1373 C1372 1.314 . S
N1373 C1376 1.279 . S
C1374 C1372 1.353 . S
C1374 C1377 1.348 . S
C1374 H1406 0.929 . S
C1375 C1376 1.358 . S
C1375 C1377 1.356 . S
C1375 H1407 0.930 . S
C1376 N1373 1.279 . S
C1376 C1375 1.358 . S
C1376 H1379 0.930 . S
C1377 C1374 1.348 . S
C1377 C1375 1.356 . S
H1378 C1372 0.930 . S
H1379 C1376 0.930 . S
O1380 Li1320 1.956 . S
O1380 Li1321 1.970 . S
O1380 Li1322 1.961 . S
O1380 C1324 1.325 . S
O1381 Li1320 1.970 . S
O1381 Li1321 1.956 . S
O1381 Li1323 1.961 . S
O1381 C1330 1.325 . S
O1382 Li1320 1.961 . S
O1382 Li1322 1.956 . S
O1382 Li1323 1.970 . S
O1382 C1352 1.325 . S
O1383 Li1321 1.961 . S
O1383 Li1322 1.970 . S
O1383 Li1323 1.956 . S
O1383 C1358 1.325 . S
H1384 C1326 0.929 . S
H1385 C1327 0.930 . S
H1386 C1328 0.930 . S
H1387 C1329 0.930 . S
H1388 C1331 0.930 . S
H1389 C1333 0.929 . S
H1390 C1334 0.930 . S
H1391 C1335 0.930 . S
H1392 C1338 0.930 . S
H1393 C1341 0.929 . S
H1394 C1346 0.929 . S
H1395 C1347 0.930 . S
H1396 C1354 0.929 . S
H1397 C1355 0.930 . S
H1398 C1356 0.930 . S
H1399 C1357 0.930 . S
H1400 C1359 0.929 . S
H1401 C1360 0.930 . S
H1402 C1361 0.930 . S
H1403 C1362 0.930 . S
H1404 C1366 0.929 . S
H1405 C1368 0.930 . S
H1406 C1374 0.929 . S
H1407 C1375 0.930 . S
C1408 C1409 1.325 1_655 S
C1408 C1410 1.419 1_554 S
C1408 H1412 0.978 . S
C1409 C1408 1.325 1_455 S
C1409 C1418 1.429 . S
C1410 C1408 1.419 1_556 S
C1410 C1411 1.317 1_655 S
C1410 H1413 0.979 . S
C1411 C1410 1.317 1_455 S
C1411 C1417 1.428 . S
H1412 C1408 0.978 . S
H1413 C1410 0.979 . S
S1414 N1415 1.613 . S
S1414 N1416 1.610 1_554 S
N1415 S1414 1.613 . S
N1415 C1418 1.350 . S
N1416 S1414 1.610 1_556 S
N1416 C1417 1.351 . S
C1417 C1411 1.428 . S
C1417 N1416 1.351 . S
C1417 C1418 1.434 1_556 S
C1418 C1409 1.429 . S
C1418 N1415 1.350 . S
C1418 C1417 1.434 1_554 S
C1419 C1420 1.338 1_565 S
C1419 C1421 1.419 . S
C1419 H1423 0.963 . S
C1420 C1419 1.338 1_545 S
C1420 C1429 1.429 . S
C1421 C1419 1.419 . S
C1421 C1422 1.338 1_565 S
C1421 H1424 0.956 . S
C1422 C1421 1.338 1_545 S
C1422 C1428 1.428 . S
H1423 C1419 0.963 . S
H1424 C1421 0.956 . S
S1425 N1426 1.613 . S
S1425 N1427 1.610 . S
N1426 S1425 1.613 . S
N1426 C1429 1.350 . S
N1427 S1425 1.610 . S
N1427 C1428 1.351 . S
C1428 C1422 1.428 . S
C1428 N1427 1.351 . S
C1428 C1429 1.434 . S
C1429 C1420 1.429 . S
C1429 N1426 1.350 . S
C1429 C1428 1.434 . S
C1430 C1431 1.369 . S
C1430 C1432 1.419 1_554 S
C1430 H1434 0.930 . S
C1431 C1430 1.369 . S
C1431 C1440 1.429 . S
C1432 C1430 1.419 1_556 S
C1432 C1433 1.363 . S
C1432 H1435 0.929 . S
C1433 C1432 1.363 . S
C1433 C1439 1.428 . S
H1434 C1430 0.930 . S
H1435 C1432 0.929 . S
S1436 N1437 1.613 1_556 S
S1436 N1438 1.610 . S
N1437 S1436 1.613 1_554 S
N1437 C1440 1.350 . S
N1438 S1436 1.610 . S
N1438 C1439 1.351 . S
C1439 C1433 1.428 . S
C1439 N1438 1.351 . S
C1439 C1440 1.434 1_556 S
C1440 C1431 1.429 . S
C1440 N1437 1.350 . S
C1440 C1439 1.434 1_554 S
C1441 C1442 1.369 . S
C1441 C1443 1.419 . S
C1441 H1445 0.930 . S
C1442 C1441 1.369 . S
C1442 C1451 1.429 . S
C1443 C1441 1.419 . S
C1443 C1444 1.363 . S
C1443 H1446 0.929 . S
C1444 C1443 1.363 . S
C1444 C1450 1.428 . S
H1445 C1441 0.930 . S
H1446 C1443 0.929 . S
S1447 N1448 1.613 . S
S1447 N1449 1.610 . S
N1448 S1447 1.613 . S
N1448 C1451 1.350 . S
N1449 S1447 1.610 . S
N1449 C1450 1.351 . S
C1450 C1444 1.428 . S
C1450 N1449 1.351 . S
C1450 C1451 1.434 . S
C1451 C1442 1.429 . S
C1451 N1448 1.350 . S
C1451 C1450 1.434 . S
C1452 C1453 1.372 1_455 S
C1452 C1454 1.419 1_556 S
C1452 H1456 0.927 . S
C1453 C1452 1.372 1_655 S
C1453 C1462 1.429 . S
C1454 C1452 1.419 1_554 S
C1454 C1455 1.363 1_455 S
C1454 H1457 0.929 . S
C1455 C1454 1.363 1_655 S
C1455 C1461 1.428 . S
H1456 C1452 0.927 . S
H1457 C1454 0.929 . S
S1458 N1459 1.613 1_554 S
S1458 N1460 1.610 . S
N1459 S1458 1.613 1_556 S
N1459 C1462 1.350 . S
N1460 S1458 1.610 . S
N1460 C1461 1.351 . S
C1461 C1455 1.428 . S
C1461 N1460 1.351 . S
C1461 C1462 1.434 1_554 S
C1462 C1453 1.429 . S
C1462 N1459 1.350 . S
C1462 C1461 1.434 1_556 S
C1463 C1464 1.367 1_545 S
C1463 C1465 1.419 . S
C1463 H1467 0.933 . S
C1464 C1463 1.367 1_565 S
C1464 C1473 1.429 . S
C1465 C1463 1.419 . S
C1465 C1466 1.366 1_545 S
C1465 H1468 0.926 . S
C1466 C1465 1.366 1_565 S
C1466 C1472 1.428 . S
H1467 C1463 0.933 . S
H1468 C1465 0.926 . S
S1469 N1470 1.613 . S
S1469 N1471 1.610 . S
N1470 S1469 1.613 . S
N1470 C1473 1.350 . S
N1471 S1469 1.610 . S
N1471 C1472 1.351 . S
C1472 C1466 1.428 . S
C1472 N1471 1.351 . S
C1472 C1473 1.434 . S
C1473 C1464 1.429 . S
C1473 N1470 1.350 . S
C1473 C1472 1.434 . S
C1474 C1475 1.369 . S
C1474 C1476 1.419 1_556 S
C1474 H1478 0.930 . S
C1475 C1474 1.369 . S
C1475 C1484 1.429 . S
C1476 C1474 1.419 1_554 S
C1476 C1477 1.363 . S
C1476 H1479 0.929 . S
C1477 C1476 1.363 . S
C1477 C1483 1.428 . S
H1478 C1474 0.930 . S
H1479 C1476 0.929 . S
S1480 N1481 1.613 . S
S1480 N1482 1.610 1_556 S
N1481 S1480 1.613 . S
N1481 C1484 1.350 . S
N1482 S1480 1.610 1_554 S
N1482 C1483 1.351 . S
C1483 C1477 1.428 . S
C1483 N1482 1.351 . S
C1483 C1484 1.434 1_554 S
C1484 C1475 1.429 . S
C1484 N1481 1.350 . S
C1484 C1483 1.434 1_556 S
C1485 C1486 1.369 . S
C1485 C1487 1.419 . S
C1485 H1489 0.930 . S
C1486 C1485 1.369 . S
C1486 C1495 1.429 . S
C1487 C1485 1.419 . S
C1487 C1488 1.363 . S
C1487 H1490 0.929 . S
C1488 C1487 1.363 . S
C1488 C1494 1.428 . S
H1489 C1485 0.930 . S
H1490 C1487 0.929 . S
S1491 N1492 1.613 . S
S1491 N1493 1.610 . S
N1492 S1491 1.613 . S
N1492 C1495 1.350 . S
N1493 S1491 1.610 . S
N1493 C1494 1.351 . S
C1494 C1488 1.428 . S
C1494 N1493 1.351 . S
C1494 C1495 1.434 . S
C1495 C1486 1.429 . S
C1495 N1492 1.350 . S
C1495 C1494 1.434 . S
C1496 C1497 1.369 . S
C1496 C1498 1.419 . S
C1496 H1500 0.930 . S
C1497 C1496 1.369 . S
C1497 C1506 1.429 . S
C1498 C1496 1.419 . S
C1498 C1499 1.363 . S
C1498 H1501 0.929 . S
C1499 C1498 1.363 . S
C1499 C1505 1.428 . S
H1500 C1496 0.930 . S
H1501 C1498 0.929 . S
S1502 N1503 1.613 . S
S1502 N1504 1.610 . S
N1503 S1502 1.613 . S
N1503 C1506 1.350 . S
N1504 S1502 1.610 . S
N1504 C1505 1.351 . S
C1505 C1499 1.428 . S
C1505 N1504 1.351 . S
C1505 C1506 1.434 . S
C1506 C1497 1.429 . S
C1506 N1503 1.350 . S
C1506 C1505 1.434 . S
C1507 C1508 1.369 . S
C1507 C1509 1.419 . S
C1507 H1511 0.930 . S
C1508 C1507 1.369 . S
C1508 C1517 1.429 . S
C1509 C1507 1.419 . S
C1509 C1510 1.363 . S
C1509 H1512 0.929 . S
C1510 C1509 1.363 . S
C1510 C1516 1.428 . S
H1511 C1507 0.930 . S
H1512 C1509 0.929 . S
S1513 N1514 1.613 . S
S1513 N1515 1.610 . S
N1514 S1513 1.613 . S
N1514 C1517 1.350 . S
N1515 S1513 1.610 . S
N1515 C1516 1.351 . S
C1516 C1510 1.428 . S
C1516 N1515 1.351 . S
C1516 C1517 1.434 . S
C1517 C1508 1.429 . S
C1517 N1514 1.350 . S
C1517 C1516 1.434 . S
C1518 C1519 1.369 . S
C1518 C1520 1.419 . S
C1518 H1522 0.930 . S
C1519 C1518 1.369 . S
C1519 C1528 1.429 . S
C1520 C1518 1.419 . S
C1520 C1521 1.363 . S
C1520 H1523 0.929 . S
C1521 C1520 1.363 . S
C1521 C1527 1.428 . S
H1522 C1518 0.930 . S
H1523 C1520 0.929 . S
S1524 N1525 1.613 . S
S1524 N1526 1.610 . S
N1525 S1524 1.613 . S
N1525 C1528 1.350 . S
N1526 S1524 1.610 . S
N1526 C1527 1.351 . S
C1527 C1521 1.428 . S
C1527 N1526 1.351 . S
C1527 C1528 1.434 . S
C1528 C1519 1.429 . S
C1528 N1525 1.350 . S
C1528 C1527 1.434 . S
C1529 C1530 1.369 . S
C1529 C1531 1.419 . S
C1529 H1533 0.930 . S
C1530 C1529 1.369 . S
C1530 C1539 1.429 . S
C1531 C1529 1.419 . S
C1531 C1532 1.363 . S
C1531 H1534 0.929 . S
C1532 C1531 1.363 . S
C1532 C1538 1.428 . S
H1533 C1529 0.930 . S
H1534 C1531 0.929 . S
S1535 N1536 1.613 . S
S1535 N1537 1.610 . S
N1536 S1535 1.613 . S
N1536 C1539 1.350 . S
N1537 S1535 1.610 . S
N1537 C1538 1.351 . S
C1538 C1532 1.428 . S
C1538 N1537 1.351 . S
C1538 C1539 1.434 . S
C1539 C1530 1.429 . S
C1539 N1536 1.350 . S
C1539 C1538 1.434 . S
C1540 C1541 1.369 . S
C1540 C1542 1.419 . S
C1540 H1544 0.930 . S
C1541 C1540 1.369 . S
C1541 C1550 1.429 . S
C1542 C1540 1.419 . S
C1542 C1543 1.363 . S
C1542 H1545 0.929 . S
C1543 C1542 1.363 . S
C1543 C1549 1.428 . S
H1544 C1540 0.930 . S
H1545 C1542 0.929 . S
S1546 N1547 1.613 . S
S1546 N1548 1.610 . S
N1547 S1546 1.613 . S
N1547 C1550 1.350 . S
N1548 S1546 1.610 . S
N1548 C1549 1.351 . S
C1549 C1543 1.428 . S
C1549 N1548 1.351 . S
C1549 C1550 1.434 . S
C1550 C1541 1.429 . S
C1550 N1547 1.350 . S
C1550 C1549 1.434 . S
C1551 C1552 1.369 . S
C1551 C1553 1.419 . S
C1551 H1555 0.930 . S
C1552 C1551 1.369 . S
C1552 C1561 1.429 . S
C1553 C1551 1.419 . S
C1553 C1554 1.363 . S
C1553 H1556 0.929 . S
C1554 C1553 1.363 . S
C1554 C1560 1.428 . S
H1555 C1551 0.930 . S
H1556 C1553 0.929 . S
S1557 N1558 1.613 . S
S1557 N1559 1.610 . S
N1558 S1557 1.613 . S
N1558 C1561 1.350 . S
N1559 S1557 1.610 . S
N1559 C1560 1.351 . S
C1560 C1554 1.428 . S
C1560 N1559 1.351 . S
C1560 C1561 1.434 . S
C1561 C1552 1.429 . S
C1561 N1558 1.350 . S
C1561 C1560 1.434 . S
C1562 C1563 1.369 . S
C1562 C1564 1.419 . S
C1562 H1566 0.930 . S
C1563 C1562 1.369 . S
C1563 C1572 1.429 . S
C1564 C1562 1.419 . S
C1564 C1565 1.363 . S
C1564 H1567 0.929 . S
C1565 C1564 1.363 . S
C1565 C1571 1.428 . S
H1566 C1562 0.930 . S
H1567 C1564 0.929 . S
S1568 N1569 1.613 . S
S1568 N1570 1.610 . S
N1569 S1568 1.613 . S
N1569 C1572 1.350 . S
N1570 S1568 1.610 . S
N1570 C1571 1.351 . S
C1571 C1565 1.428 . S
C1571 N1570 1.351 . S
C1571 C1572 1.434 . S
C1572 C1563 1.429 . S
C1572 N1569 1.350 . S
C1572 C1571 1.434 . S
C1573 C1574 1.369 . S
C1573 C1575 1.419 . S
C1573 H1577 0.930 . S
C1574 C1573 1.369 . S
C1574 C1583 1.429 . S
C1575 C1573 1.419 . S
C1575 C1576 1.363 . S
C1575 H1578 0.929 . S
C1576 C1575 1.363 . S
C1576 C1582 1.428 . S
H1577 C1573 0.930 . S
H1578 C1575 0.929 . S
S1579 N1580 1.613 . S
S1579 N1581 1.610 . S
N1580 S1579 1.613 . S
N1580 C1583 1.350 . S
N1581 S1579 1.610 . S
N1581 C1582 1.351 . S
C1582 C1576 1.428 . S
C1582 N1581 1.351 . S
C1582 C1583 1.434 . S
C1583 C1574 1.429 . S
C1583 N1580 1.350 . S
C1583 C1582 1.434 . S
C1584 C1585 1.369 . S
C1584 C1586 1.419 . S
C1584 H1588 0.930 . S
C1585 C1584 1.369 . S
C1585 C1594 1.429 . S
C1586 C1584 1.419 . S
C1586 C1587 1.363 . S
C1586 H1589 0.929 . S
C1587 C1586 1.363 . S
C1587 C1593 1.428 . S
H1588 C1584 0.930 . S
H1589 C1586 0.929 . S
S1590 N1591 1.613 . S
S1590 N1592 1.610 . S
N1591 S1590 1.613 . S
N1591 C1594 1.350 . S
N1592 S1590 1.610 . S
N1592 C1593 1.351 . S
C1593 C1587 1.428 . S
C1593 N1592 1.351 . S
C1593 C1594 1.434 . S
C1594 C1585 1.429 . S
C1594 N1591 1.350 . S
C1594 C1593 1.434 . S
C1595 C1596 1.369 . S
C1595 C1597 1.419 . S
C1595 H1599 0.930 . S
C1596 C1595 1.369 . S
C1596 C1605 1.429 . S
C1597 C1595 1.419 . S
C1597 C1598 1.363 . S
C1597 H1600 0.929 . S
C1598 C1597 1.363 . S
C1598 C1604 1.428 . S
H1599 C1595 0.930 . S
H1600 C1597 0.929 . S
S1601 N1602 1.613 . S
S1601 N1603 1.610 . S
N1602 S1601 1.613 . S
N1602 C1605 1.350 . S
N1603 S1601 1.610 . S
N1603 C1604 1.351 . S
C1604 C1598 1.428 . S
C1604 N1603 1.351 . S
C1604 C1605 1.434 . S
C1605 C1596 1.429 . S
C1605 N1602 1.350 . S
C1605 C1604 1.434 . S
C1606 C1607 1.369 . S
C1606 C1608 1.419 . S
C1606 H1610 0.930 . S
C1607 C1606 1.369 . S
C1607 C1616 1.429 . S
C1608 C1606 1.419 . S
C1608 C1609 1.363 . S
C1608 H1611 0.929 . S
C1609 C1608 1.363 . S
C1609 C1615 1.428 . S
H1610 C1606 0.930 . S
H1611 C1608 0.929 . S
S1612 N1613 1.613 . S
S1612 N1614 1.610 . S
N1613 S1612 1.613 . S
N1613 C1616 1.350 . S
N1614 S1612 1.610 . S
N1614 C1615 1.351 . S
C1615 C1609 1.428 . S
C1615 N1614 1.351 . S
C1615 C1616 1.434 . S
C1616 C1607 1.429 . S
C1616 N1613 1.350 . S
C1616 C1615 1.434 . S
C1617 C1618 1.369 . S
C1617 C1619 1.419 . S
C1617 H1621 0.930 . S
C1618 C1617 1.369 . S
C1618 C1627 1.429 . S
C1619 C1617 1.419 . S
C1619 C1620 1.363 . S
C1619 H1622 0.929 . S
C1620 C1619 1.363 . S
C1620 C1626 1.428 . S
H1621 C1617 0.930 . S
H1622 C1619 0.929 . S
S1623 N1624 1.613 . S
S1623 N1625 1.610 . S
N1624 S1623 1.613 . S
N1624 C1627 1.350 . S
N1625 S1623 1.610 . S
N1625 C1626 1.351 . S
C1626 C1620 1.428 . S
C1626 N1625 1.351 . S
C1626 C1627 1.434 . S
C1627 C1618 1.429 . S
C1627 N1624 1.350 . S
C1627 C1626 1.434 . S
C1628 C1629 1.369 . S
C1628 C1630 1.419 . S
C1628 H1632 0.930 . S
C1629 C1628 1.369 . S
C1629 C1638 1.429 . S
C1630 C1628 1.419 . S
C1630 C1631 1.363 . S
C1630 H1633 0.929 . S
C1631 C1630 1.363 . S
C1631 C1637 1.428 . S
H1632 C1628 0.930 . S
H1633 C1630 0.929 . S
S1634 N1635 1.613 . S
S1634 N1636 1.610 . S
N1635 S1634 1.613 . S
N1635 C1638 1.350 . S
N1636 S1634 1.610 . S
N1636 C1637 1.351 . S
C1637 C1631 1.428 . S
C1637 N1636 1.351 . S
C1637 C1638 1.434 . S
C1638 C1629 1.429 . S
C1638 N1635 1.350 . S
C1638 C1637 1.434 . S
C1639 C1640 1.369 . S
C1639 C1641 1.419 . S
C1639 H1643 0.930 . S
C1640 C1639 1.369 . S
C1640 C1649 1.429 . S
C1641 C1639 1.419 . S
C1641 C1642 1.363 . S
C1641 H1644 0.929 . S
C1642 C1641 1.363 . S
C1642 C1648 1.428 . S
H1643 C1639 0.930 . S
H1644 C1641 0.929 . S
S1645 N1646 1.613 . S
S1645 N1647 1.610 . S
N1646 S1645 1.613 . S
N1646 C1649 1.350 . S
N1647 S1645 1.610 . S
N1647 C1648 1.351 . S
C1648 C1642 1.428 . S
C1648 N1647 1.351 . S
C1648 C1649 1.434 . S
C1649 C1640 1.429 . S
C1649 N1646 1.350 . S
C1649 C1648 1.434 . S
C1650 C1651 1.369 . S
C1650 C1652 1.419 . S
C1650 H1654 0.930 . S
C1651 C1650 1.369 . S
C1651 C1660 1.429 . S
C1652 C1650 1.419 . S
C1652 C1653 1.363 . S
C1652 H1655 0.929 . S
C1653 C1652 1.363 . S
C1653 C1659 1.428 . S
H1654 C1650 0.930 . S
H1655 C1652 0.929 . S
S1656 N1657 1.613 . S
S1656 N1658 1.610 . S
N1657 S1656 1.613 . S
N1657 C1660 1.350 . S
N1658 S1656 1.610 . S
N1658 C1659 1.351 . S
C1659 C1653 1.428 . S
C1659 N1658 1.351 . S
C1659 C1660 1.434 . S
C1660 C1651 1.429 . S
C1660 N1657 1.350 . S
C1660 C1659 1.434 . S
C1661 C1662 1.369 . S
C1661 C1663 1.419 . S
C1661 H1665 0.930 . S
C1662 C1661 1.369 . S
C1662 C1671 1.429 . S
C1663 C1661 1.419 . S
C1663 C1664 1.363 . S
C1663 H1666 0.929 . S
C1664 C1663 1.363 . S
C1664 C1670 1.428 . S
H1665 C1661 0.930 . S
H1666 C1663 0.929 . S
S1667 N1668 1.613 . S
S1667 N1669 1.610 . S
N1668 S1667 1.613 . S
N1668 C1671 1.350 . S
N1669 S1667 1.610 . S
N1669 C1670 1.351 . S
C1670 C1664 1.428 . S
C1670 N1669 1.351 . S
C1670 C1671 1.434 . S
C1671 C1662 1.429 . S
C1671 N1668 1.350 . S
C1671 C1670 1.434 . S
C1672 C1673 1.369 . S
C1672 C1674 1.419 . S
C1672 H1676 0.930 . S
C1673 C1672 1.369 . S
C1673 C1682 1.429 . S
C1674 C1672 1.419 . S
C1674 C1675 1.363 . S
C1674 H1677 0.929 . S
C1675 C1674 1.363 . S
C1675 C1681 1.428 . S
H1676 C1672 0.930 . S
H1677 C1674 0.929 . S
S1678 N1679 1.613 . S
S1678 N1680 1.610 . S
N1679 S1678 1.613 . S
N1679 C1682 1.350 . S
N1680 S1678 1.610 . S
N1680 C1681 1.351 . S
C1681 C1675 1.428 . S
C1681 N1680 1.351 . S
C1681 C1682 1.434 . S
C1682 C1673 1.429 . S
C1682 N1679 1.350 . S
C1682 C1681 1.434 . S
C1683 C1684 1.369 . S
C1683 C1685 1.419 . S
C1683 H1687 0.930 . S
C1684 C1683 1.369 . S
C1684 C1693 1.429 . S
C1685 C1683 1.419 . S
C1685 C1686 1.363 . S
C1685 H1688 0.929 . S
C1686 C1685 1.363 . S
C1686 C1692 1.428 . S
H1687 C1683 0.930 . S
H1688 C1685 0.929 . S
S1689 N1690 1.613 . S
S1689 N1691 1.610 . S
N1690 S1689 1.613 . S
N1690 C1693 1.350 . S
N1691 S1689 1.610 . S
N1691 C1692 1.351 . S
C1692 C1686 1.428 . S
C1692 N1691 1.351 . S
C1692 C1693 1.434 . S
C1693 C1684 1.429 . S
C1693 N1690 1.350 . S
C1693 C1692 1.434 . S
C1694 C1695 1.369 . S
C1694 C1696 1.419 . S
C1694 H1698 0.930 . S
C1695 C1694 1.369 . S
C1695 C1704 1.429 . S
C1696 C1694 1.419 . S
C1696 C1697 1.363 . S
C1696 H1699 0.929 . S
C1697 C1696 1.363 . S
C1697 C1703 1.428 . S
H1698 C1694 0.930 . S
H1699 C1696 0.929 . S
S1700 N1701 1.613 . S
S1700 N1702 1.610 . S
N1701 S1700 1.613 . S
N1701 C1704 1.350 . S
N1702 S1700 1.610 . S
N1702 C1703 1.351 . S
C1703 C1697 1.428 . S
C1703 N1702 1.351 . S
C1703 C1704 1.434 . S
C1704 C1695 1.429 . S
C1704 N1701 1.350 . S
C1704 C1703 1.434 . S
C1705 C1706 1.369 . S
C1705 C1707 1.419 . S
C1705 H1709 0.930 . S
C1706 C1705 1.369 . S
C1706 C1715 1.429 . S
C1707 C1705 1.419 . S
C1707 C1708 1.363 . S
C1707 H1710 0.929 . S
C1708 C1707 1.363 . S
C1708 C1714 1.428 . S
H1709 C1705 0.930 . S
H1710 C1707 0.929 . S
S1711 N1712 1.613 . S
S1711 N1713 1.610 . S
N1712 S1711 1.613 . S
N1712 C1715 1.350 . S
N1713 S1711 1.610 . S
N1713 C1714 1.351 . S
C1714 C1708 1.428 . S
C1714 N1713 1.351 . S
C1714 C1715 1.434 . S
C1715 C1706 1.429 . S
C1715 N1712 1.350 . S
C1715 C1714 1.434 . S
C1716 C1717 1.369 . S
C1716 C1718 1.419 . S
C1716 H1720 0.930 . S
C1717 C1716 1.369 . S
C1717 C1726 1.429 . S
C1718 C1716 1.419 . S
C1718 C1719 1.363 . S
C1718 H1721 0.929 . S
C1719 C1718 1.363 . S
C1719 C1725 1.428 . S
H1720 C1716 0.930 . S
H1721 C1718 0.929 . S
S1722 N1723 1.613 . S
S1722 N1724 1.610 . S
N1723 S1722 1.613 . S
N1723 C1726 1.350 . S
N1724 S1722 1.610 . S
N1724 C1725 1.351 . S
C1725 C1719 1.428 . S
C1725 N1724 1.351 . S
C1725 C1726 1.434 . S
C1726 C1717 1.429 . S
C1726 N1723 1.350 . S
C1726 C1725 1.434 . S
C1727 C1728 1.369 . S
C1727 C1729 1.419 . S
C1727 H1731 0.930 . S
C1728 C1727 1.369 . S
C1728 C1737 1.429 . S
C1729 C1727 1.419 . S
C1729 C1730 1.363 . S
C1729 H1732 0.929 . S
C1730 C1729 1.363 . S
C1730 C1736 1.428 . S
H1731 C1727 0.930 . S
H1732 C1729 0.929 . S
S1733 N1734 1.613 . S
S1733 N1735 1.610 . S
N1734 S1733 1.613 . S
N1734 C1737 1.350 . S
N1735 S1733 1.610 . S
N1735 C1736 1.351 . S
C1736 C1730 1.428 . S
C1736 N1735 1.351 . S
C1736 C1737 1.434 . S
C1737 C1728 1.429 . S
C1737 N1734 1.350 . S
C1737 C1736 1.434 . S
C1738 C1739 1.369 . S
C1738 C1740 1.419 . S
C1738 H1742 0.930 . S
C1739 C1738 1.369 . S
C1739 C1748 1.429 . S
C1740 C1738 1.419 . S
C1740 C1741 1.363 . S
C1740 H1743 0.929 . S
C1741 C1740 1.363 . S
C1741 C1747 1.428 . S
H1742 C1738 0.930 . S
H1743 C1740 0.929 . S
S1744 N1745 1.613 . S
S1744 N1746 1.610 . S
N1745 S1744 1.613 . S
N1745 C1748 1.350 . S
N1746 S1744 1.610 . S
N1746 C1747 1.351 . S
C1747 C1741 1.428 . S
C1747 N1746 1.351 . S
C1747 C1748 1.434 . S
C1748 C1739 1.429 . S
C1748 N1745 1.350 . S
C1748 C1747 1.434 . S
C1749 C1750 1.369 . S
C1749 C1751 1.419 . S
C1749 H1753 0.930 . S
C1750 C1749 1.369 . S
C1750 C1759 1.429 . S
C1751 C1749 1.419 . S
C1751 C1752 1.363 . S
C1751 H1754 0.929 . S
C1752 C1751 1.363 . S
C1752 C1758 1.428 . S
H1753 C1749 0.930 . S
H1754 C1751 0.929 . S
S1755 N1756 1.613 . S
S1755 N1757 1.610 . S
N1756 S1755 1.613 . S
N1756 C1759 1.350 . S
N1757 S1755 1.610 . S
N1757 C1758 1.351 . S
C1758 C1752 1.428 . S
C1758 N1757 1.351 . S
C1758 C1759 1.434 . S
C1759 C1750 1.429 . S
C1759 N1756 1.350 . S
C1759 C1758 1.434 . S
C1409 C49 1.569 . S
C1411 C372 1.560 . S
C1420 C460 1.563 . S
C1422 C137 1.565 . S
C1431 C225 1.559 . S
C1433 C548 1.570 . S
C1442 C313 1.563 . S
C1444 C636 1.567 . S
C1453 C733 1.553 . S
C1455 C1105 1.563 . S
C1464 C1201 1.559 . S
C1466 C821 1.557 . S
C1475 C900 1.560 . S
C1477 C1289 1.557 . S
C1486 C988 1.566 . S
C1488 C1369 1.556 . S
C1497 C57 1.485 . S
C1499 C1340 1.415 . S
C1508 C1076 1.415 . S
C1510 C145 1.486 . S
C1519 C233 1.492 . S
C1521 C1173 1.411 . S
C1530 C1261 1.416 . S
C1532 C321 1.488 . S
C1541 C849 1.404 . S
C1543 C381 1.494 . S
C1552 C929 1.404 . S
C1554 C469 1.494 . S
C1563 C1017 1.410 . S
C1565 C557 1.491 . S
C1574 C761 1.417 . S
C1576 C645 1.485 . S
C1585 C724 1.525 . S
C1587 C673 1.386 . S
C1596 C409 1.395 . S
C1598 C812 1.518 . S
C1607 C497 1.383 . S
C1609 C909 1.524 . S
C1618 C997 1.516 . S
C1620 C585 1.397 . S
C1629 C117 1.397 . S
C1631 C1113 1.517 . S
C1640 C1193 1.524 . S
C1642 C205 1.387 . S
C1651 C1281 1.525 . S
C1653 C293 1.386 . S
C1662 C1377 1.516 . S
C1664 C29 1.396 . S
C1673 C665 1.618 . S
C1675 C20 1.621 . S
C1684 C108 1.624 . S
C1686 C401 1.617 . S
C1695 C196 1.622 . S
C1697 C489 1.618 . S
C1706 C284 1.624 . S
C1708 C577 1.623 . S
C1717 C1349 1.609 . S
C1719 C753 1.612 . S
C1728 C1085 1.616 . S
C1730 C841 1.610 . S
C1739 C1164 1.616 . S
C1741 C937 1.616 . S
C1750 C1252 1.618 . S
C1752 C1025 1.614 . S
