# Generated by pormake.
# Topology wga, (5)-cn, num edge types: 1
# Building blocks:
#     Node 0, Type 0, BuildingBlock: BEQFEK_clean_sbu_0, # of connection points: 5
#     Node 1, Type 0, BuildingBlock: BEQFEK_clean_sbu_0, # of connection points: 5
#     Node 2, Type 0, BuildingBlock: BEQFEK_clean_sbu_0, # of connection points: 5
#     Node 3, Type 0, BuildingBlock: BEQFEK_clean_sbu_0, # of connection points: 5
#     Node 4, Type 0, BuildingBlock: BEQFEK_clean_sbu_0, # of connection points: 5
#     Node 5, Type 0, BuildingBlock: BEQFEK_clean_sbu_0, # of connection points: 5
#     Node 6, Type 0, BuildingBlock: BEQFEK_clean_sbu_0, # of connection points: 5
#     Node 7, Type 0, BuildingBlock: BEQFEK_clean_sbu_0, # of connection points: 5
#     Node 8, Type 0, BuildingBlock: BEQFEK_clean_sbu_0, # of connection points: 5
#     Node 9, Type 0, BuildingBlock: BEQFEK_clean_sbu_0, # of connection points: 5
#     Node 10, Type 0, BuildingBlock: BEQFEK_clean_sbu_0, # of connection points: 5
#     Node 11, Type 0, BuildingBlock: BEQFEK_clean_sbu_0, # of connection points: 5
#     Node 12, Type 0, BuildingBlock: BEQFEK_clean_sbu_0, # of connection points: 5
#     Node 13, Type 0, BuildingBlock: BEQFEK_clean_sbu_0, # of connection points: 5
#     Node 14, Type 0, BuildingBlock: BEQFEK_clean_sbu_0, # of connection points: 5
#     Node 15, Type 0, BuildingBlock: BEQFEK_clean_sbu_0, # of connection points: 5
#     Node 16, Type 0, BuildingBlock: BEQFEK_clean_sbu_0, # of connection points: 5
#     Node 17, Type 0, BuildingBlock: BEQFEK_clean_sbu_0, # of connection points: 5
#     Node 18, Type 0, BuildingBlock: BEQFEK_clean_sbu_0, # of connection points: 5
#     Node 19, Type 0, BuildingBlock: BEQFEK_clean_sbu_0, # of connection points: 5
#     Node 20, Type 0, BuildingBlock: BEQFEK_clean_sbu_0, # of connection points: 5
#     Node 21, Type 0, BuildingBlock: BEQFEK_clean_sbu_0, # of connection points: 5
#     Node 22, Type 0, BuildingBlock: BEQFEK_clean_sbu_0, # of connection points: 5
#     Node 23, Type 0, BuildingBlock: BEQFEK_clean_sbu_0, # of connection points: 5
#     Node 24, Type 0, BuildingBlock: BEQFEK_clean_sbu_0, # of connection points: 5
#     Node 25, Type 0, BuildingBlock: BEQFEK_clean_sbu_0, # of connection points: 5
#     Node 26, Type 0, BuildingBlock: BEQFEK_clean_sbu_0, # of connection points: 5
#     Node 27, Type 0, BuildingBlock: BEQFEK_clean_sbu_0, # of connection points: 5
#     Node 28, Type 0, BuildingBlock: BEQFEK_clean_sbu_0, # of connection points: 5
#     Node 29, Type 0, BuildingBlock: BEQFEK_clean_sbu_0, # of connection points: 5
#     Node 30, Type 0, BuildingBlock: BEQFEK_clean_sbu_0, # of connection points: 5
#     Node 31, Type 0, BuildingBlock: BEQFEK_clean_sbu_0, # of connection points: 5
#     Edge 32, Type (0, 0), BuildingBlock: XIVTED_clean_linker_0, # of connection points: 2
#     Edge 33, Type (0, 0), BuildingBlock: XIVTED_clean_linker_0, # of connection points: 2
#     Edge 34, Type (0, 0), BuildingBlock: XIVTED_clean_linker_0, # of connection points: 2
#     Edge 35, Type (0, 0), BuildingBlock: XIVTED_clean_linker_0, # of connection points: 2
#     Edge 36, Type (0, 0), BuildingBlock: XIVTED_clean_linker_0, # of connection points: 2
#     Edge 37, Type (0, 0), BuildingBlock: XIVTED_clean_linker_0, # of connection points: 2
#     Edge 38, Type (0, 0), BuildingBlock: XIVTED_clean_linker_0, # of connection points: 2
#     Edge 39, Type (0, 0), BuildingBlock: XIVTED_clean_linker_0, # of connection points: 2
#     Edge 40, Type (0, 0), BuildingBlock: XIVTED_clean_linker_0, # of connection points: 2
#     Edge 41, Type (0, 0), BuildingBlock: XIVTED_clean_linker_0, # of connection points: 2
#     Edge 42, Type (0, 0), BuildingBlock: XIVTED_clean_linker_0, # of connection points: 2
#     Edge 43, Type (0, 0), BuildingBlock: XIVTED_clean_linker_0, # of connection points: 2
#     Edge 44, Type (0, 0), BuildingBlock: XIVTED_clean_linker_0, # of connection points: 2
#     Edge 45, Type (0, 0), BuildingBlock: XIVTED_clean_linker_0, # of connection points: 2
#     Edge 46, Type (0, 0), BuildingBlock: XIVTED_clean_linker_0, # of connection points: 2
#     Edge 47, Type (0, 0), BuildingBlock: XIVTED_clean_linker_0, # of connection points: 2
#     Edge 48, Type (0, 0), BuildingBlock: XIVTED_clean_linker_0, # of connection points: 2
#     Edge 49, Type (0, 0), BuildingBlock: XIVTED_clean_linker_0, # of connection points: 2
#     Edge 50, Type (0, 0), BuildingBlock: XIVTED_clean_linker_0, # of connection points: 2
#     Edge 51, Type (0, 0), BuildingBlock: XIVTED_clean_linker_0, # of connection points: 2
#     Edge 52, Type (0, 0), BuildingBlock: XIVTED_clean_linker_0, # of connection points: 2
#     Edge 53, Type (0, 0), BuildingBlock: XIVTED_clean_linker_0, # of connection points: 2
#     Edge 54, Type (0, 0), BuildingBlock: XIVTED_clean_linker_0, # of connection points: 2
#     Edge 55, Type (0, 0), BuildingBlock: XIVTED_clean_linker_0, # of connection points: 2
#     Edge 56, Type (0, 0), BuildingBlock: XIVTED_clean_linker_0, # of connection points: 2
#     Edge 57, Type (0, 0), BuildingBlock: XIVTED_clean_linker_0, # of connection points: 2
#     Edge 58, Type (0, 0), BuildingBlock: XIVTED_clean_linker_0, # of connection points: 2
#     Edge 59, Type (0, 0), BuildingBlock: XIVTED_clean_linker_0, # of connection points: 2
#     Edge 60, Type (0, 0), BuildingBlock: XIVTED_clean_linker_0, # of connection points: 2
#     Edge 61, Type (0, 0), BuildingBlock: XIVTED_clean_linker_0, # of connection points: 2
#     Edge 62, Type (0, 0), BuildingBlock: XIVTED_clean_linker_0, # of connection points: 2
#     Edge 63, Type (0, 0), BuildingBlock: XIVTED_clean_linker_0, # of connection points: 2
#     Edge 64, Type (0, 0), BuildingBlock: XIVTED_clean_linker_0, # of connection points: 2
#     Edge 65, Type (0, 0), BuildingBlock: XIVTED_clean_linker_0, # of connection points: 2
#     Edge 66, Type (0, 0), BuildingBlock: XIVTED_clean_linker_0, # of connection points: 2
#     Edge 67, Type (0, 0), BuildingBlock: XIVTED_clean_linker_0, # of connection points: 2
#     Edge 68, Type (0, 0), BuildingBlock: XIVTED_clean_linker_0, # of connection points: 2
#     Edge 69, Type (0, 0), BuildingBlock: XIVTED_clean_linker_0, # of connection points: 2
#     Edge 70, Type (0, 0), BuildingBlock: XIVTED_clean_linker_0, # of connection points: 2
#     Edge 71, Type (0, 0), BuildingBlock: XIVTED_clean_linker_0, # of connection points: 2
#     Edge 72, Type (0, 0), BuildingBlock: XIVTED_clean_linker_0, # of connection points: 2
#     Edge 73, Type (0, 0), BuildingBlock: XIVTED_clean_linker_0, # of connection points: 2
#     Edge 74, Type (0, 0), BuildingBlock: XIVTED_clean_linker_0, # of connection points: 2
#     Edge 75, Type (0, 0), BuildingBlock: XIVTED_clean_linker_0, # of connection points: 2
#     Edge 76, Type (0, 0), BuildingBlock: XIVTED_clean_linker_0, # of connection points: 2
#     Edge 77, Type (0, 0), BuildingBlock: XIVTED_clean_linker_0, # of connection points: 2
#     Edge 78, Type (0, 0), BuildingBlock: XIVTED_clean_linker_0, # of connection points: 2
#     Edge 79, Type (0, 0), BuildingBlock: XIVTED_clean_linker_0, # of connection points: 2
#     Edge 80, Type (0, 0), BuildingBlock: XIVTED_clean_linker_0, # of connection points: 2
#     Edge 81, Type (0, 0), BuildingBlock: XIVTED_clean_linker_0, # of connection points: 2
#     Edge 82, Type (0, 0), BuildingBlock: XIVTED_clean_linker_0, # of connection points: 2
#     Edge 83, Type (0, 0), BuildingBlock: XIVTED_clean_linker_0, # of connection points: 2
#     Edge 84, Type (0, 0), BuildingBlock: XIVTED_clean_linker_0, # of connection points: 2
#     Edge 85, Type (0, 0), BuildingBlock: XIVTED_clean_linker_0, # of connection points: 2
#     Edge 86, Type (0, 0), BuildingBlock: XIVTED_clean_linker_0, # of connection points: 2
#     Edge 87, Type (0, 0), BuildingBlock: XIVTED_clean_linker_0, # of connection points: 2
#     Edge 88, Type (0, 0), BuildingBlock: XIVTED_clean_linker_0, # of connection points: 2
#     Edge 89, Type (0, 0), BuildingBlock: XIVTED_clean_linker_0, # of connection points: 2
#     Edge 90, Type (0, 0), BuildingBlock: XIVTED_clean_linker_0, # of connection points: 2
#     Edge 91, Type (0, 0), BuildingBlock: XIVTED_clean_linker_0, # of connection points: 2
#     Edge 92, Type (0, 0), BuildingBlock: XIVTED_clean_linker_0, # of connection points: 2
#     Edge 93, Type (0, 0), BuildingBlock: XIVTED_clean_linker_0, # of connection points: 2
#     Edge 94, Type (0, 0), BuildingBlock: XIVTED_clean_linker_0, # of connection points: 2
#     Edge 95, Type (0, 0), BuildingBlock: XIVTED_clean_linker_0, # of connection points: 2
#     Edge 96, Type (0, 0), BuildingBlock: XIVTED_clean_linker_0, # of connection points: 2
#     Edge 97, Type (0, 0), BuildingBlock: XIVTED_clean_linker_0, # of connection points: 2
#     Edge 98, Type (0, 0), BuildingBlock: XIVTED_clean_linker_0, # of connection points: 2
#     Edge 99, Type (0, 0), BuildingBlock: XIVTED_clean_linker_0, # of connection points: 2
#     Edge 100, Type (0, 0), BuildingBlock: XIVTED_clean_linker_0, # of connection points: 2
#     Edge 101, Type (0, 0), BuildingBlock: XIVTED_clean_linker_0, # of connection points: 2
#     Edge 102, Type (0, 0), BuildingBlock: XIVTED_clean_linker_0, # of connection points: 2
#     Edge 103, Type (0, 0), BuildingBlock: XIVTED_clean_linker_0, # of connection points: 2
#     Edge 104, Type (0, 0), BuildingBlock: XIVTED_clean_linker_0, # of connection points: 2
#     Edge 105, Type (0, 0), BuildingBlock: XIVTED_clean_linker_0, # of connection points: 2
#     Edge 106, Type (0, 0), BuildingBlock: XIVTED_clean_linker_0, # of connection points: 2
#     Edge 107, Type (0, 0), BuildingBlock: XIVTED_clean_linker_0, # of connection points: 2
#     Edge 108, Type (0, 0), BuildingBlock: XIVTED_clean_linker_0, # of connection points: 2
#     Edge 109, Type (0, 0), BuildingBlock: XIVTED_clean_linker_0, # of connection points: 2
#     Edge 110, Type (0, 0), BuildingBlock: XIVTED_clean_linker_0, # of connection points: 2
#     Edge 111, Type (0, 0), BuildingBlock: XIVTED_clean_linker_0, # of connection points: 2
# Relax obj value: 0.052
# Max RMSD: 0.132
# Mean RMSD: 0.132
data_MOF--net-wga--node1-BEQFEK_clean_sbu_0--edge1-XIVTED_clean_linker_0
_symmetry_space_group_name_H-M    P1
_symmetry_Int_Tables_number       1
_symmetry_cell_setting            triclinic
loop_
_symmetry_equiv_pos_as_xyz
'x, y, z'
_cell_length_a     108.14656
_cell_length_b     108.06709
_cell_length_c     19.534864
_cell_angle_alpha  89.971128
_cell_angle_beta   89.991007
_cell_angle_gamma 89.993859
loop_
_atom_site_label
_atom_site_type_symbol
_atom_site_fract_x
_atom_site_fract_y
_atom_site_fract_z
_atom_type_partial_charge
Co0 Co 0.06518 0.5682 0.0114 0.0
Co1 Co 0.0649 0.56161 0.16744 0.0
C2 C 0.04252 0.57181 0.09457 0.0
O3 O 0.04821 0.57276 0.03773 0.0
O4 O 0.04786 0.56754 0.1478 0.0
C5 C 0.06184 0.57914 0.87585 0.0
O6 O 0.05259 0.58552 0.90138 0.0
C7 C 0.06322 0.56567 0.31735 0.0
C8 C 0.07441 0.54991 0.35421 0.0
C9 C 0.06784 0.56016 0.37658 0.0
N10 N 0.06708 0.55903 0.26309 0.0
N11 N 0.07368 0.5496 0.28566 0.0
C12 C 0.05501 0.57678 0.31188 0.0
H13 H 0.06069 0.5853 0.31585 0.0
H14 H 0.04808 0.5768 0.35378 0.0
H15 H 0.05019 0.577 0.26202 0.0
C16 C 0.0856 0.58431 0.05635 0.0
N17 N 0.07678 0.57586 0.06909 0.0
N18 N 0.07688 0.57301 0.13459 0.0
C19 C 0.08592 0.5795 0.16562 0.0
C20 C 0.09169 0.5869 0.11714 0.0
C21 C 0.08753 0.59029 0.98805 0.0
H22 H 0.09162 0.58343 0.95236 0.0
H23 H 0.07848 0.59321 0.96681 0.0
H24 H 0.0937 0.59846 0.99147 0.0
O25 O 0.06703 0.55007 0.01417 0.0
O26 O 0.06718 0.54524 0.12428 0.0
H27 H 0.08984 0.56833 0.25356 0.0
H28 H 0.09846 0.58258 0.25048 0.0
C29 C 0.08937 0.57825 0.2395 0.0
H30 H 0.08222 0.58276 0.27148 0.0
H31 H 0.07785 0.54302 0.25408 0.0
O32 O 0.06821 0.57221 0.91473 0.0
C33 C 0.06777 0.54208 0.06171 0.0
Co34 Co 0.67633 0.81485 0.24794 0.0
Co35 Co 0.68212 0.81534 0.40441 0.0
C36 C 0.67151 0.79287 0.33489 0.0
O37 O 0.67104 0.79819 0.27676 0.0
O38 O 0.67572 0.7984 0.38753 0.0
C39 C 0.66535 0.81165 0.11212 0.0
O40 O 0.6583 0.80289 0.13761 0.0
C41 C 0.67789 0.81437 0.5543 0.0
C42 C 0.69353 0.82587 0.58971 0.0
C43 C 0.68337 0.81927 0.61281 0.0
N44 N 0.68449 0.8181 0.49957 0.0
N45 N 0.69383 0.82492 0.52125 0.0
C46 C 0.66689 0.806 0.55019 0.0
H47 H 0.65832 0.8116 0.5535 0.0
H48 H 0.66697 0.79926 0.59309 0.0
H49 H 0.6667 0.80093 0.50115 0.0
C50 C 0.66043 0.83588 0.28698 0.0
N51 N 0.66876 0.82706 0.30222 0.0
N52 N 0.67123 0.82741 0.36811 0.0
C53 C 0.66461 0.83659 0.39696 0.0
C54 C 0.65752 0.8422 0.34659 0.0
C55 C 0.6547 0.83744 0.21779 0.0
H56 H 0.65119 0.82836 0.19973 0.0
H57 H 0.64696 0.84417 0.21842 0.0
H58 H 0.66186 0.84059 0.18108 0.0
O59 O 0.69452 0.81613 0.25204 0.0
O60 O 0.69865 0.81685 0.36287 0.0
H61 H 0.66061 0.84909 0.48081 0.0
H62 H 0.66069 0.83284 0.50213 0.0
C63 C 0.66524 0.84011 0.47097 0.0
H64 H 0.67503 0.84083 0.48711 0.0
H65 H 0.70036 0.82901 0.48913 0.0
O66 O 0.67268 0.81755 0.15093 0.0
C67 C 0.70222 0.81693 0.30091 0.0
Co68 Co 0.42915 0.42666 0.49431 0.0
Co69 Co 0.42858 0.43295 0.65022 0.0
C70 C 0.45153 0.42346 0.57968 0.0
O71 O 0.44619 0.4224 0.52185 0.0
O72 O 0.44579 0.42754 0.63195 0.0
C73 C 0.4327 0.4159 0.35824 0.0
O74 O 0.44222 0.40976 0.38259 0.0
C75 C 0.43007 0.42842 0.7994 0.0
C76 C 0.41839 0.44372 0.83748 0.0
C77 C 0.42518 0.43355 0.85897 0.0
N78 N 0.42613 0.43518 0.74576 0.0
N79 N 0.41922 0.44434 0.76902 0.0
C80 C 0.43855 0.41753 0.79305 0.0
H81 H 0.44334 0.41752 0.74314 0.0
H82 H 0.4331 0.40886 0.79661 0.0
H83 H 0.44552 0.41761 0.83477 0.0
C84 C 0.40903 0.40981 0.53638 0.0
N85 N 0.41751 0.41856 0.55026 0.0
N86 N 0.41709 0.42129 0.61584 0.0
C87 C 0.40821 0.41442 0.64578 0.0
C88 C 0.40289 0.40689 0.59655 0.0
C89 C 0.4075 0.40387 0.46773 0.0
H90 H 0.41666 0.40088 0.44835 0.0
H91 H 0.40123 0.39575 0.46988 0.0
H92 H 0.40373 0.41078 0.43124 0.0
O93 O 0.42691 0.4448 0.49738 0.0
O94 O 0.42598 0.44929 0.60778 0.0
H95 H 0.39553 0.41076 0.72928 0.0
H96 H 0.4117 0.41096 0.75169 0.0
C97 C 0.40452 0.41538 0.71944 0.0
H98 H 0.40372 0.42524 0.73424 0.0
H99 H 0.41494 0.45093 0.73797 0.0
O100 O 0.42631 0.42267 0.39779 0.0
C101 C 0.42568 0.45263 0.54541 0.0
Co102 Co 0.81739 0.17989 0.74073 0.0
Co103 Co 0.81343 0.17734 0.89991 0.0
C104 C 0.82249 0.20087 0.83676 0.0
O105 O 0.82244 0.19612 0.77711 0.0
O106 O 0.81906 0.19471 0.88903 0.0
C107 C 0.82987 0.18191 0.60653 0.0
O108 O 0.84042 0.18355 0.63854 0.0
C109 C 0.81809 0.17871 0.04873 0.0
C110 C 0.80795 0.16227 0.0859 0.0
C111 C 0.81538 0.17195 0.10714 0.0
N112 N 0.81255 0.17322 0.99505 0.0
N113 N 0.8064 0.16348 0.01783 0.0
C114 C 0.82653 0.18962 0.04307 0.0
H115 H 0.83243 0.18869 0.99686 0.0
H116 H 0.83248 0.19054 0.08908 0.0
H117 H 0.82089 0.19813 0.03748 0.0
C118 C 0.83319 0.15778 0.76573 0.0
N119 N 0.82568 0.16696 0.78699 0.0
N120 N 0.82436 0.16621 0.85399 0.0
C121 C 0.83123 0.15671 0.8774 0.0
C122 C 0.83694 0.15105 0.82229 0.0
C123 C 0.83617 0.15499 0.69259 0.0
H124 H 0.82824 0.15742 0.65928 0.0
H125 H 0.84434 0.16048 0.67689 0.0
H126 H 0.83843 0.14504 0.68589 0.0
O127 O 0.7995 0.17782 0.75161 0.0
O128 O 0.79636 0.17573 0.86317 0.0
H129 H 0.82461 0.14863 0.97022 0.0
H130 H 0.8411 0.14748 0.95932 0.0
C131 C 0.83295 0.15354 0.95139 0.0
H132 H 0.83424 0.1621 0.98164 0.0
H133 H 0.80136 0.1575 0.98657 0.0
O134 O 0.82 0.18004 0.6403 0.0
C135 C 0.79227 0.17618 0.80209 0.0
Co136 Co 0.06447 0.42597 0.98774 0.0
Co137 Co 0.06556 0.43276 0.83197 0.0
C138 C 0.04259 0.42257 0.89635 0.0
O139 O 0.04783 0.4216 0.95444 0.0
O140 O 0.04832 0.42688 0.8446 0.0
C141 C 0.05685 0.42204 0.12414 0.0
O142 O 0.04625 0.42583 0.09893 0.0
C143 C 0.06357 0.42951 0.68343 0.0
C144 C 0.0774 0.44293 0.64553 0.0
C145 C 0.06899 0.43406 0.62418 0.0
N146 N 0.06857 0.43542 0.73723 0.0
N147 N 0.07675 0.4435 0.71424 0.0
C148 C 0.0547 0.41894 0.68978 0.0
H149 H 0.0561 0.41407 0.73918 0.0
H150 H 0.05589 0.41229 0.64699 0.0
H151 H 0.04511 0.42258 0.68851 0.0
C152 C 0.0853 0.40993 0.9476 0.0
N153 N 0.07662 0.41843 0.93296 0.0
N154 N 0.07707 0.42111 0.86731 0.0
C155 C 0.08609 0.41435 0.83787 0.0
C156 C 0.09159 0.40706 0.88783 0.0
C157 C 0.08758 0.40491 0.01788 0.0
H158 H 0.08834 0.41268 0.05471 0.0
H159 H 0.07957 0.39913 0.03354 0.0
H160 H 0.09615 0.39929 0.02012 0.0
O161 O 0.06654 0.44407 0.98775 0.0
O162 O 0.06755 0.44898 0.87769 0.0
H163 H 0.09197 0.42345 0.74627 0.0
H164 H 0.09573 0.40716 0.74863 0.0
C165 C 0.0887 0.41418 0.7626 0.0
H166 H 0.08007 0.41205 0.73451 0.0
H167 H 0.08206 0.44923 0.74561 0.0
O168 O 0.06606 0.42086 0.08431 0.0
C169 C 0.06769 0.45209 0.94053 0.0
Co170 Co 0.81803 0.81299 0.25874 0.0
Co171 Co 0.81422 0.81564 0.09952 0.0
C172 C 0.82384 0.79229 0.16217 0.0
O173 O 0.82359 0.79695 0.22202 0.0
O174 O 0.8203 0.79843 0.11005 0.0
C175 C 0.83047 0.81114 0.39287 0.0
O176 O 0.84104 0.80973 0.36075 0.0
C177 C 0.81896 0.81447 0.95072 0.0
C178 C 0.80854 0.83075 0.91377 0.0
C179 C 0.81613 0.8212 0.89239 0.0
N180 N 0.81334 0.81984 0.00448 0.0
N181 N 0.80702 0.82949 0.98185 0.0
C182 C 0.82757 0.80369 0.95615 0.0
H183 H 0.83345 0.80468 0.00234 0.0
H184 H 0.83352 0.80288 0.9101 0.0
H185 H 0.82205 0.79509 0.9616 0.0
C186 C 0.83327 0.83555 0.23513 0.0
N187 N 0.82601 0.82622 0.21326 0.0
N188 N 0.82477 0.827 0.14624 0.0
C189 C 0.83145 0.83669 0.12342 0.0
C190 C 0.83694 0.84243 0.17896 0.0
C191 C 0.83611 0.8383 0.30847 0.0
H192 H 0.8282 0.83567 0.34144 0.0
H193 H 0.84438 0.83296 0.32423 0.0
H194 H 0.83817 0.84829 0.31562 0.0
O195 O 0.8001 0.81457 0.24728 0.0
O196 O 0.79707 0.81675 0.13568 0.0
H197 H 0.82486 0.84473 0.03044 0.0
H198 H 0.84131 0.84614 0.04219 0.0
C199 C 0.83324 0.83994 0.04958 0.0
H200 H 0.83471 0.83142 0.01921 0.0
H201 H 0.80187 0.83537 0.01319 0.0
O202 O 0.82056 0.81283 0.3592 0.0
C203 C 0.79291 0.81608 0.19654 0.0
Co204 Co 0.43153 0.56834 0.5066 0.0
Co205 Co 0.42888 0.56458 0.34749 0.0
C206 C 0.45267 0.5728 0.41001 0.0
O207 O 0.44795 0.5729 0.46978 0.0
O208 O 0.44638 0.56957 0.35787 0.0
C209 C 0.43352 0.58088 0.64071 0.0
O210 O 0.4349 0.59148 0.60872 0.0
C211 C 0.43033 0.56888 0.19824 0.0
C212 C 0.41311 0.55993 0.16276 0.0
C213 C 0.42325 0.56661 0.14045 0.0
N214 N 0.42458 0.56382 0.25257 0.0
N215 N 0.41437 0.55837 0.2308 0.0
C216 C 0.44178 0.57659 0.20278 0.0
H217 H 0.44134 0.58262 0.24867 0.0
H218 H 0.44301 0.58241 0.15643 0.0
H219 H 0.44989 0.57039 0.20815 0.0
C220 C 0.40971 0.58461 0.48192 0.0
N221 N 0.41881 0.577 0.46059 0.0
N222 N 0.41828 0.576 0.39341 0.0
C223 C 0.4092 0.58338 0.36978 0.0
C224 C 0.40338 0.58893 0.42504 0.0
C225 C 0.40649 0.58691 0.55529 0.0
H226 H 0.40905 0.57881 0.58714 0.0
H227 H 0.41158 0.59516 0.57373 0.0
H228 H 0.39644 0.58875 0.56099 0.0
O229 O 0.42888 0.55054 0.49608 0.0
O230 O 0.42667 0.54753 0.38451 0.0
H231 H 0.40102 0.57832 0.2742 0.0
H232 H 0.40186 0.59478 0.28812 0.0
C233 C 0.40678 0.58587 0.29556 0.0
H234 H 0.41563 0.58629 0.26717 0.0
H235 H 0.4081 0.55384 0.26275 0.0
O236 O 0.43181 0.57099 0.60692 0.0
C237 C 0.42698 0.5434 0.44556 0.0
Co238 Co 0.67597 0.17899 0.745 0.0
Co239 Co 0.68205 0.17888 0.58883 0.0
C240 C 0.67231 0.20153 0.66087 0.0
O241 O 0.67147 0.19599 0.71826 0.0
O242 O 0.67637 0.19602 0.60778 0.0
C243 C 0.66515 0.18233 0.88081 0.0
O244 O 0.65888 0.19174 0.85618 0.0
C245 C 0.67761 0.18042 0.43953 0.0
C246 C 0.69294 0.16874 0.40183 0.0
C247 C 0.68278 0.17552 0.38013 0.0
N248 N 0.68434 0.17651 0.49331 0.0
N249 N 0.69352 0.16961 0.47027 0.0
C250 C 0.66673 0.18893 0.44555 0.0
H251 H 0.66682 0.1939 0.49491 0.0
H252 H 0.65807 0.18345 0.44309 0.0
H253 H 0.66673 0.19575 0.40308 0.0
C254 C 0.65937 0.15873 0.70258 0.0
N255 N 0.66798 0.16736 0.68875 0.0
N256 N 0.6706 0.16712 0.62301 0.0
C257 C 0.66382 0.1582 0.5929 0.0
C258 C 0.65645 0.15265 0.64223 0.0
C259 C 0.65354 0.15701 0.77141 0.0
H260 H 0.65051 0.16613 0.79142 0.0
H261 H 0.64546 0.1507 0.76931 0.0
H262 H 0.66052 0.15322 0.8074 0.0
O263 O 0.69409 0.17695 0.74143 0.0
O264 O 0.69844 0.17647 0.63078 0.0
H265 H 0.67457 0.15395 0.50388 0.0
H266 H 0.66015 0.14568 0.50868 0.0
C267 C 0.66473 0.15467 0.51898 0.0
H268 H 0.66027 0.16191 0.48731 0.0
H269 H 0.70008 0.16534 0.50148 0.0
O270 O 0.67204 0.17602 0.84148 0.0
C271 C 0.70187 0.176 0.69294 0.0
Co272 Co 0.92923 0.42706 0.98165 0.0
Co273 Co 0.92798 0.43228 0.82472 0.0
C274 C 0.95111 0.42285 0.89112 0.0
O275 O 0.94595 0.4225 0.94979 0.0
O276 O 0.94526 0.42652 0.83815 0.0
C277 C 0.93429 0.41727 0.11866 0.0
O278 O 0.94438 0.41211 0.09442 0.0
C279 C 0.93022 0.43048 0.67452 0.0
C280 C 0.91239 0.43866 0.64262 0.0
C281 C 0.92292 0.43294 0.6176 0.0
N282 N 0.92407 0.43426 0.73054 0.0
N283 N 0.91352 0.43931 0.71101 0.0
C284 C 0.94313 0.42553 0.67614 0.0
H285 H 0.94872 0.43112 0.71213 0.0
H286 H 0.94299 0.41583 0.69486 0.0
H287 H 0.9476 0.42594 0.62513 0.0
C288 C 0.90842 0.4106 0.94793 0.0
N289 N 0.91707 0.41894 0.93014 0.0
N290 N 0.9168 0.42065 0.86354 0.0
C291 C 0.90814 0.41314 0.83637 0.0
C292 C 0.90248 0.40663 0.88902 0.0
C293 C 0.90574 0.40689 0.02027 0.0
H294 H 0.90525 0.41525 0.053 0.0
H295 H 0.91339 0.40099 0.03947 0.0
H296 H 0.89688 0.40178 0.02457 0.0
O297 O 0.92703 0.44499 0.97676 0.0
O298 O 0.92591 0.44897 0.86582 0.0
H299 H 0.90008 0.41863 0.74126 0.0
H300 H 0.90182 0.40215 0.7506 0.0
C301 C 0.9062 0.41123 0.76122 0.0
H302 H 0.91517 0.41163 0.73394 0.0
H303 H 0.90695 0.44291 0.74467 0.0
O304 O 0.9272 0.42326 0.07894 0.0
C305 C 0.92578 0.4526 0.92774 0.0
Co306 Co 0.31735 0.17992 0.76926 0.0
Co307 Co 0.31307 0.17798 0.61012 0.0
C308 C 0.32169 0.20144 0.67517 0.0
O309 O 0.32187 0.19646 0.7343 0.0
O310 O 0.3183 0.19541 0.62241 0.0
C311 C 0.32986 0.18235 0.90342 0.0
O312 O 0.34021 0.18502 0.87155 0.0
C313 C 0.31781 0.17962 0.46149 0.0
C314 C 0.30677 0.16391 0.42265 0.0
C315 C 0.31476 0.17322 0.40243 0.0
N316 N 0.31195 0.17427 0.51458 0.0
N317 N 0.30524 0.165 0.4908 0.0
C318 C 0.32679 0.19007 0.46821 0.0
H319 H 0.33232 0.18894 0.51565 0.0
H320 H 0.33305 0.19057 0.42324 0.0
H321 H 0.32158 0.19888 0.47208 0.0
C322 C 0.33424 0.15875 0.73911 0.0
N323 N 0.32597 0.16746 0.7204 0.0
N324 N 0.32452 0.16707 0.6534 0.0
C325 C 0.33207 0.15836 0.62739 0.0
C326 C 0.33845 0.15284 0.68069 0.0
C327 C 0.33844 0.1565 0.81097 0.0
H328 H 0.33069 0.15801 0.84713 0.0
H329 H 0.34601 0.16305 0.82331 0.0
H330 H 0.34206 0.14697 0.81737 0.0
O331 O 0.29945 0.17741 0.76 0.0
O332 O 0.29621 0.17577 0.64836 0.0
H333 H 0.32403 0.1517 0.5347 0.0
H334 H 0.34013 0.14802 0.54301 0.0
C335 C 0.33306 0.15522 0.55294 0.0
H336 H 0.33542 0.16367 0.52348 0.0
H337 H 0.29985 0.15921 0.52143 0.0
O338 O 0.32017 0.17977 0.86957 0.0
C339 C 0.29219 0.17583 0.70961 0.0
Co340 Co 0.56668 0.56784 0.46764 0.0
Co341 Co 0.56636 0.56111 0.3118 0.0
C342 C 0.54407 0.57161 0.38494 0.0
O343 O 0.54978 0.57258 0.44168 0.0
O344 O 0.54936 0.56722 0.33185 0.0
C345 C 0.56375 0.5788 0.60361 0.0
O346 O 0.55438 0.58517 0.57934 0.0
C347 C 0.56455 0.56528 0.16204 0.0
C348 C 0.57645 0.55009 0.12468 0.0
C349 C 0.56955 0.56016 0.10275 0.0
N350 N 0.56856 0.55864 0.21604 0.0
N351 N 0.57556 0.54953 0.19315 0.0
C352 C 0.55591 0.57606 0.16769 0.0
H353 H 0.55059 0.57567 0.21589 0.0
H354 H 0.56133 0.58477 0.16763 0.0
H355 H 0.54938 0.57621 0.12389 0.0
C356 C 0.58722 0.58371 0.42239 0.0
N357 N 0.57831 0.57535 0.40981 0.0
N358 N 0.57851 0.57233 0.34456 0.0
C359 C 0.58779 0.57854 0.31376 0.0
C360 C 0.59353 0.58593 0.36206 0.0
C361 C 0.58963 0.58934 0.49102 0.0
H362 H 0.59213 0.58192 0.52782 0.0
H363 H 0.58106 0.59382 0.50993 0.0
H364 H 0.59722 0.59625 0.48895 0.0
O365 O 0.56833 0.5497 0.46487 0.0
O366 O 0.5685 0.5447 0.35499 0.0
H367 H 0.59226 0.56789 0.22485 0.0
H368 H 0.59942 0.58299 0.22681 0.0
C369 C 0.59091 0.57771 0.2393 0.0
H370 H 0.58315 0.5815 0.20881 0.0
H371 H 0.57994 0.54306 0.22452 0.0
O372 O 0.56993 0.57185 0.56395 0.0
C373 C 0.56902 0.54163 0.41775 0.0
Co374 Co 0.17552 0.81542 0.24098 0.0
Co375 Co 0.18192 0.81685 0.0849 0.0
C376 C 0.17232 0.79358 0.14939 0.0
O377 O 0.17143 0.79875 0.20771 0.0
O378 O 0.17636 0.79944 0.09737 0.0
C379 C 0.17118 0.80771 0.37768 0.0
O380 O 0.17449 0.7969 0.3529 0.0
C381 C 0.17808 0.81511 0.93694 0.0
C382 C 0.19161 0.82871 0.89779 0.0
C383 C 0.18253 0.82046 0.87728 0.0
N384 N 0.18425 0.81999 0.99014 0.0
N385 N 0.19238 0.82804 0.96643 0.0
C386 C 0.16745 0.80634 0.94436 0.0
H387 H 0.16277 0.80778 0.99427 0.0
H388 H 0.16069 0.80759 0.9022 0.0
H389 H 0.17099 0.7967 0.94282 0.0
C390 C 0.15851 0.83547 0.20225 0.0
N391 N 0.16749 0.82732 0.18706 0.0
N392 N 0.1702 0.82813 0.12154 0.0
C393 C 0.16311 0.83702 0.09307 0.0
C394 C 0.15548 0.84189 0.14329 0.0
C395 C 0.15291 0.8369 0.27184 0.0
H396 H 0.16031 0.83906 0.30932 0.0
H397 H 0.14861 0.82801 0.28748 0.0
H398 H 0.14586 0.84436 0.273 0.0
O399 O 0.1936 0.8179 0.23956 0.0
O400 O 0.1982 0.81904 0.12915 0.0
H401 H 0.1725 0.84282 0.0022 0.0
H402 H 0.1566 0.84789 0.00688 0.0
C403 C 0.16304 0.84018 0.01848 0.0
H404 H 0.16018 0.83195 0.98866 0.0
H405 H 0.19831 0.83323 0.99724 0.0
O406 O 0.17054 0.81696 0.33771 0.0
C407 C 0.20146 0.81921 0.1917 0.0
Co408 Co 0.92878 0.56847 0.00079 0.0
Co409 Co 0.92806 0.562 0.15679 0.0
C410 C 0.95097 0.57188 0.08747 0.0
O411 O 0.94568 0.57293 0.0295 0.0
O412 O 0.94523 0.56766 0.13949 0.0
C413 C 0.93235 0.57937 0.86464 0.0
O414 O 0.94153 0.5859 0.8897 0.0
C415 C 0.92927 0.56627 0.30649 0.0
C416 C 0.91787 0.55064 0.34318 0.0
C417 C 0.9245 0.56085 0.36561 0.0
N418 N 0.92546 0.5596 0.25223 0.0
N419 N 0.9187 0.55027 0.27467 0.0
C420 C 0.93757 0.57732 0.30118 0.0
H421 H 0.9423 0.5776 0.2511 0.0
H422 H 0.93196 0.58587 0.30594 0.0
H423 H 0.94456 0.57719 0.34273 0.0
C424 C 0.9082 0.58479 0.042 0.0
N425 N 0.91691 0.57628 0.05633 0.0
N426 N 0.91644 0.5735 0.12185 0.0
C427 C 0.90731 0.58009 0.15132 0.0
C428 C 0.90185 0.58748 0.10178 0.0
C429 C 0.9066 0.59067 0.97322 0.0
H430 H 0.90299 0.58368 0.93677 0.0
H431 H 0.91572 0.59383 0.95396 0.0
H432 H 0.90018 0.59866 0.97511 0.0
O433 O 0.92677 0.55034 0.00368 0.0
O434 O 0.92575 0.54565 0.11383 0.0
H435 H 0.90281 0.56908 0.23902 0.0
H436 H 0.89445 0.58346 0.23439 0.0
C437 C 0.90351 0.57897 0.22475 0.0
H438 H 0.9106 0.5834 0.25755 0.0
H439 H 0.91456 0.54368 0.24305 0.0
O440 O 0.9261 0.57239 0.90384 0.0
C441 C 0.92557 0.54242 0.05129 0.0
Co442 Co 0.17613 0.18017 0.73135 0.0
Co443 Co 0.17957 0.17766 0.89067 0.0
C444 C 0.17142 0.20138 0.82747 0.0
O445 O 0.17151 0.1966 0.76786 0.0
O446 O 0.17452 0.19515 0.8801 0.0
C447 C 0.16362 0.18224 0.59752 0.0
O448 O 0.15307 0.18373 0.62973 0.0
C449 C 0.1753 0.17912 0.0399 0.0
C450 C 0.18399 0.16174 0.07522 0.0
C451 C 0.17747 0.17198 0.09762 0.0
N452 N 0.18027 0.17332 0.98554 0.0
N453 N 0.18556 0.163 0.00721 0.0
C454 C 0.16777 0.1907 0.03545 0.0
H455 H 0.16162 0.19029 0.99008 0.0
H456 H 0.16211 0.1921 0.08218 0.0
H457 H 0.17409 0.19871 0.0291 0.0
C458 C 0.15978 0.1584 0.7557 0.0
N459 N 0.16742 0.16746 0.77719 0.0
N460 N 0.16826 0.16701 0.84444 0.0
C461 C 0.16077 0.158 0.86794 0.0
C462 C 0.15529 0.15216 0.81253 0.0
C463 C 0.15755 0.15516 0.68229 0.0
H464 H 0.1657 0.15764 0.65073 0.0
H465 H 0.14937 0.16032 0.66343 0.0
H466 H 0.15563 0.14512 0.6767 0.0
O467 O 0.19391 0.17759 0.74234 0.0
O468 O 0.19666 0.17554 0.85422 0.0
H469 H 0.16544 0.14985 0.96424 0.0
H470 H 0.14905 0.15098 0.94903 0.0
C471 C 0.15806 0.15573 0.94207 0.0
H472 H 0.15774 0.16463 0.97006 0.0
H473 H 0.18999 0.15667 0.9752 0.0
O474 O 0.17351 0.18044 0.63109 0.0
C475 C 0.20094 0.1758 0.79349 0.0
Co476 Co 0.5661 0.42624 0.50877 0.0
Co477 Co 0.56539 0.43331 0.66444 0.0
C478 C 0.54317 0.42305 0.59015 0.0
O479 O 0.54902 0.4219 0.53393 0.0
O480 O 0.54838 0.42742 0.6435 0.0
C481 C 0.56281 0.41534 0.37325 0.0
O482 O 0.55337 0.40923 0.39867 0.0
C483 C 0.56339 0.42938 0.81444 0.0
C484 C 0.57423 0.44534 0.85171 0.0
C485 C 0.56783 0.43497 0.87391 0.0
N486 N 0.56722 0.43609 0.76029 0.0
N487 N 0.5736 0.44565 0.78312 0.0
C488 C 0.55539 0.41813 0.80851 0.0
H489 H 0.55069 0.41783 0.75829 0.0
H490 H 0.56121 0.40971 0.81294 0.0
H491 H 0.54837 0.418 0.84993 0.0
C492 C 0.58626 0.4101 0.55761 0.0
N493 N 0.57746 0.41866 0.56847 0.0
N494 N 0.57741 0.42178 0.6336 0.0
C495 C 0.58637 0.41541 0.66615 0.0
C496 C 0.59219 0.40775 0.61921 0.0
C497 C 0.58835 0.40384 0.49028 0.0
H498 H 0.57932 0.40127 0.46743 0.0
H499 H 0.59413 0.39542 0.49575 0.0
H500 H 0.59298 0.41041 0.45488 0.0
O501 O 0.56802 0.44437 0.51044 0.0
O502 O 0.56789 0.44954 0.62006 0.0
H503 H 0.59897 0.41306 0.7514 0.0
H504 H 0.58275 0.41249 0.77245 0.0
C505 C 0.58976 0.41709 0.73984 0.0
H506 H 0.58996 0.42707 0.75255 0.0
H507 H 0.57771 0.45229 0.75169 0.0
O508 O 0.56937 0.42205 0.4123 0.0
C509 C 0.56866 0.4525 0.55722 0.0
Co510 Co 0.31759 0.81424 0.2559 0.0
Co511 Co 0.31111 0.81543 0.41238 0.0
C512 C 0.32059 0.79221 0.34696 0.0
O513 O 0.32148 0.79742 0.28869 0.0
O514 O 0.31664 0.79806 0.39921 0.0
C515 C 0.32361 0.80674 0.11927 0.0
O516 O 0.32227 0.79555 0.14447 0.0
C517 C 0.31536 0.81416 0.56045 0.0
C518 C 0.30073 0.82656 0.59966 0.0
C519 C 0.31058 0.81923 0.62013 0.0
N520 N 0.30866 0.81836 0.50735 0.0
N521 N 0.29987 0.82567 0.53115 0.0
C522 C 0.32668 0.80632 0.55276 0.0
H523 H 0.33084 0.80769 0.50136 0.0
H524 H 0.33358 0.80856 0.59293 0.0
H525 H 0.32404 0.79644 0.55786 0.0
C526 C 0.33441 0.83444 0.29594 0.0
N527 N 0.32563 0.82605 0.31083 0.0
N528 N 0.32292 0.82669 0.37642 0.0
C529 C 0.32985 0.83563 0.40535 0.0
C530 C 0.33738 0.84078 0.35539 0.0
C531 C 0.34031 0.83571 0.227 0.0
H532 H 0.34285 0.82642 0.20733 0.0
H533 H 0.3487 0.8416 0.22881 0.0
H534 H 0.33354 0.83982 0.1909 0.0
O535 O 0.29953 0.81686 0.25734 0.0
O536 O 0.2949 0.81779 0.36776 0.0
H537 H 0.33374 0.84845 0.48791 0.0
H538 H 0.33315 0.83232 0.51164 0.0
C539 C 0.32894 0.83954 0.47868 0.0
H540 H 0.3191 0.84059 0.49319 0.0
H541 H 0.29344 0.83025 0.50044 0.0
O542 O 0.32248 0.81603 0.15871 0.0
C543 C 0.29166 0.81813 0.30519 0.0
Co544 Co 0.56419 0.06825 0.47966 0.0
Co545 Co 0.56531 0.0634 0.63683 0.0
C546 C 0.5423 0.07287 0.56984 0.0
O547 O 0.54745 0.07297 0.51112 0.0
O548 O 0.54813 0.06935 0.62316 0.0
C549 C 0.55928 0.07815 0.34299 0.0
O550 O 0.54932 0.08351 0.36755 0.0
C551 C 0.56308 0.06517 0.78701 0.0
C552 C 0.58092 0.05698 0.81871 0.0
C553 C 0.57039 0.06268 0.84385 0.0
N554 N 0.56923 0.06143 0.73092 0.0
N555 N 0.57978 0.05637 0.75032 0.0
C556 C 0.55017 0.0701 0.78553 0.0
H557 H 0.54459 0.06455 0.74924 0.0
H558 H 0.5503 0.07983 0.76726 0.0
H559 H 0.54569 0.06961 0.83652 0.0
C560 C 0.58519 0.0846 0.51297 0.0
N561 N 0.57642 0.07639 0.53091 0.0
N562 N 0.57661 0.07481 0.59762 0.0
C563 C 0.5853 0.08229 0.62468 0.0
C564 C 0.59111 0.08861 0.57188 0.0
C565 C 0.58797 0.0882 0.44058 0.0
H566 H 0.58837 0.07979 0.40814 0.0
H567 H 0.58041 0.09417 0.42101 0.0
H568 H 0.59689 0.0932 0.43636 0.0
O569 O 0.56624 0.05025 0.48508 0.0
O570 O 0.56718 0.04668 0.59648 0.0
H571 H 0.59323 0.07704 0.72057 0.0
H572 H 0.59145 0.09348 0.70998 0.0
C573 C 0.58711 0.08436 0.6998 0.0
H574 H 0.5781 0.08401 0.72669 0.0
H575 H 0.58634 0.05278 0.71657 0.0
O576 O 0.56626 0.07197 0.38243 0.0
C577 C 0.56735 0.04282 0.53501 0.0
Co578 Co 0.17689 0.31453 0.73898 0.0
Co579 Co 0.18073 0.31616 0.89838 0.0
C580 C 0.17205 0.29291 0.83182 0.0
O581 O 0.17212 0.29803 0.77308 0.0
O582 O 0.17535 0.29877 0.88536 0.0
C583 C 0.16444 0.31216 0.60535 0.0
O584 O 0.15413 0.30956 0.63779 0.0
C585 C 0.17589 0.31444 0.04689 0.0
C586 C 0.18653 0.33043 0.08564 0.0
C587 C 0.17874 0.32096 0.10585 0.0
N588 N 0.18166 0.31989 0.99384 0.0
N589 N 0.18813 0.32934 0.01757 0.0
C590 C 0.16717 0.30377 0.04015 0.0
H591 H 0.16143 0.30492 0.99347 0.0
H592 H 0.16109 0.30295 0.08573 0.0
H593 H 0.1726 0.29512 0.03463 0.0
C594 C 0.16023 0.33585 0.76805 0.0
N595 N 0.1683 0.327 0.78734 0.0
N596 N 0.16948 0.32724 0.85451 0.0
C597 C 0.16188 0.33597 0.88005 0.0
C598 C 0.15583 0.34169 0.82622 0.0
C599 C 0.15639 0.33832 0.69578 0.0
H600 H 0.16426 0.33668 0.66054 0.0
H601 H 0.14872 0.33199 0.68208 0.0
H602 H 0.15305 0.34795 0.6895 0.0
O603 O 0.19474 0.31688 0.74972 0.0
O604 O 0.19775 0.31822 0.86167 0.0
H605 H 0.16927 0.34269 0.97421 0.0
H606 H 0.15308 0.34576 0.9641 0.0
C607 C 0.16047 0.33886 0.95459 0.0
H608 H 0.15832 0.33026 0.98314 0.0
H609 H 0.19341 0.33524 0.98693 0.0
O610 O 0.17419 0.31472 0.6387 0.0
C611 C 0.2019 0.31827 0.80069 0.0
Co612 Co 0.92737 0.92592 0.01513 0.0
Co613 Co 0.92781 0.93247 0.17113 0.0
C614 C 0.94997 0.92185 0.09754 0.0
O615 O 0.94424 0.92101 0.04083 0.0
O616 O 0.94475 0.92621 0.15087 0.0
C617 C 0.93015 0.91489 0.87932 0.0
O618 O 0.9394 0.90837 0.90375 0.0
C619 C 0.92964 0.92835 0.32098 0.0
C620 C 0.91766 0.9435 0.35806 0.0
C621 C 0.9246 0.93347 0.38014 0.0
N622 N 0.92562 0.93495 0.26687 0.0
N623 N 0.91857 0.94404 0.28959 0.0
C624 C 0.93834 0.91762 0.31556 0.0
H625 H 0.94376 0.91808 0.26772 0.0
H626 H 0.93296 0.90888 0.31499 0.0
H627 H 0.94478 0.91745 0.35976 0.0
C628 C 0.9067 0.91018 0.0602 0.0
N629 N 0.91568 0.91846 0.07286 0.0
N630 N 0.91555 0.9214 0.13822 0.0
C631 C 0.90626 0.91522 0.16904 0.0
C632 C 0.90042 0.90793 0.12062 0.0
C633 C 0.9042 0.90464 0.99143 0.0
H634 H 0.90187 0.91212 0.95474 0.0
H635 H 0.91269 0.89999 0.97256 0.0
H636 H 0.89648 0.89788 0.99327 0.0
O637 O 0.92588 0.94408 0.01822 0.0
O638 O 0.92584 0.94891 0.12832 0.0
H639 H 0.90184 0.9257 0.25861 0.0
H640 H 0.89484 0.91053 0.25654 0.0
C641 C 0.90326 0.91592 0.24371 0.0
H642 H 0.91112 0.91217 0.27359 0.0
H643 H 0.91417 0.95048 0.25812 0.0
O644 O 0.92408 0.92197 0.91882 0.0
C645 C 0.9253 0.95208 0.06572 0.0
Co646 Co 0.31749 0.67797 0.2563 0.0
Co647 Co 0.3106 0.67761 0.41202 0.0
C648 C 0.32038 0.70046 0.34142 0.0
O649 O 0.32165 0.69501 0.28406 0.0
O650 O 0.31608 0.69483 0.3936 0.0
C651 C 0.32823 0.68173 0.12021 0.0
O652 O 0.33424 0.69128 0.14513 0.0
C653 C 0.31467 0.67918 0.56185 0.0
C654 C 0.29907 0.6678 0.59887 0.0
C655 C 0.30925 0.67448 0.62117 0.0
N656 N 0.30804 0.67527 0.50766 0.0
N657 N 0.2987 0.66854 0.53031 0.0
C658 C 0.32569 0.68751 0.55621 0.0
H659 H 0.32593 0.69222 0.50603 0.0
H660 H 0.33425 0.68193 0.56093 0.0
H661 H 0.32557 0.69454 0.5976 0.0
C662 C 0.33407 0.65783 0.30103 0.0
N663 N 0.32534 0.66638 0.31371 0.0
N664 N 0.32234 0.66603 0.37898 0.0
C665 C 0.32899 0.65707 0.40984 0.0
C666 C 0.33667 0.65165 0.36159 0.0
C667 C 0.34025 0.65622 0.23308 0.0
H668 H 0.33364 0.6519 0.19684 0.0
H669 H 0.34284 0.66542 0.21226 0.0
H670 H 0.34866 0.65038 0.23692 0.0
O671 O 0.29938 0.67575 0.25797 0.0
O672 O 0.29442 0.67496 0.36782 0.0
H673 H 0.31765 0.65274 0.49654 0.0
H674 H 0.33196 0.64424 0.49352 0.0
C675 C 0.32759 0.65334 0.48323 0.0
H676 H 0.33199 0.66041 0.51632 0.0
H677 H 0.29216 0.66432 0.4988 0.0
O678 O 0.32163 0.67512 0.15958 0.0
C679 C 0.29136 0.67458 0.30503 0.0
Co680 Co 0.56477 0.92626 0.50131 0.0
Co681 Co 0.56552 0.93092 0.34398 0.0
C682 C 0.54276 0.92131 0.41246 0.0
O683 O 0.54805 0.92138 0.47074 0.0
O684 O 0.5484 0.92481 0.35849 0.0
C685 C 0.56026 0.91601 0.63751 0.0
O686 O 0.55062 0.91016 0.6125 0.0
C687 C 0.56333 0.92888 0.19375 0.0
C688 C 0.58091 0.93762 0.16198 0.0
C689 C 0.57057 0.93158 0.1369 0.0
N690 N 0.56934 0.93286 0.24979 0.0
N691 N 0.57973 0.93823 0.23033 0.0
C692 C 0.55061 0.92345 0.1953 0.0
H693 H 0.54484 0.92871 0.23195 0.0
H694 H 0.55114 0.91371 0.21306 0.0
H695 H 0.5461 0.92385 0.14439 0.0
C696 C 0.58583 0.91007 0.46758 0.0
N697 N 0.57697 0.91819 0.44976 0.0
N698 N 0.57702 0.91967 0.38299 0.0
C699 C 0.58574 0.91224 0.35577 0.0
C700 C 0.59168 0.90603 0.40854 0.0
C701 C 0.58876 0.9066 0.53997 0.0
H702 H 0.58907 0.91504 0.57215 0.0
H703 H 0.58132 0.90052 0.56002 0.0
H704 H 0.59776 0.90174 0.54397 0.0
O705 O 0.56667 0.94425 0.49532 0.0
O706 O 0.56727 0.94772 0.38376 0.0
H707 H 0.59339 0.91757 0.25932 0.0
H708 H 0.59201 0.9011 0.2705 0.0
C709 C 0.58748 0.91013 0.28064 0.0
H710 H 0.57842 0.91026 0.25424 0.0
H711 H 0.58617 0.94205 0.26403 0.0
O712 O 0.56694 0.9226 0.59851 0.0
C713 C 0.56757 0.95164 0.44509 0.0
Co714 Co 0.31864 0.31482 0.75951 0.0
Co715 Co 0.31283 0.31624 0.6028 0.0
C716 C 0.32224 0.29301 0.66662 0.0
O717 O 0.32289 0.29816 0.72513 0.0
O718 O 0.31839 0.29889 0.61429 0.0
C719 C 0.32249 0.30669 0.89553 0.0
O720 O 0.31886 0.29608 0.8696 0.0
C721 C 0.31603 0.31457 0.45395 0.0
C722 C 0.30346 0.32933 0.41786 0.0
C723 C 0.31179 0.32048 0.39543 0.0
N724 N 0.31045 0.31972 0.5084 0.0
N725 N 0.30288 0.32846 0.48648 0.0
C726 C 0.32606 0.30506 0.45908 0.0
H727 H 0.33115 0.30612 0.50802 0.0
H728 H 0.33264 0.30588 0.41571 0.0
H729 H 0.32184 0.29571 0.45801 0.0
C730 C 0.33482 0.33584 0.72359 0.0
N731 N 0.32656 0.32705 0.70684 0.0
N732 N 0.32444 0.32747 0.64058 0.0
C733 C 0.33143 0.33649 0.61273 0.0
C734 C 0.33819 0.34212 0.66449 0.0
C735 C 0.339 0.33836 0.79529 0.0
H736 H 0.33087 0.33854 0.82991 0.0
H737 H 0.34517 0.33076 0.81235 0.0
H738 H 0.34397 0.34731 0.79928 0.0
O739 O 0.30058 0.31714 0.75786 0.0
O740 O 0.29648 0.3183 0.64686 0.0
H741 H 0.32353 0.3432 0.51956 0.0
H742 H 0.34009 0.34523 0.52472 0.0
C743 C 0.33229 0.33898 0.53748 0.0
H744 H 0.33368 0.33016 0.50981 0.0
H745 H 0.29749 0.33399 0.51854 0.0
O746 O 0.32353 0.31603 0.85644 0.0
C747 C 0.29293 0.31843 0.70897 0.0
Co748 Co 0.92807 0.06773 0.98273 0.0
Co749 Co 0.92793 0.06113 0.82688 0.0
C750 C 0.95044 0.07155 0.8985 0.0
O751 O 0.94493 0.07253 0.95585 0.0
O752 O 0.94496 0.06719 0.84599 0.0
C753 C 0.93103 0.07868 0.11892 0.0
O754 O 0.94029 0.08522 0.09476 0.0
C755 C 0.92953 0.0654 0.6772 0.0
C756 C 0.91761 0.05022 0.63999 0.0
C757 C 0.92449 0.06029 0.61801 0.0
N758 N 0.92556 0.05875 0.73123 0.0
N759 N 0.91853 0.04965 0.70844 0.0
C760 C 0.93816 0.07619 0.6827 0.0
H761 H 0.94346 0.07585 0.73097 0.0
H762 H 0.93274 0.0849 0.68236 0.0
H763 H 0.94471 0.0763 0.63897 0.0
C764 C 0.90739 0.08367 0.93941 0.0
N765 N 0.91627 0.07531 0.92601 0.0
N766 N 0.91589 0.07232 0.86075 0.0
C767 C 0.90653 0.07853 0.83078 0.0
C768 C 0.90092 0.08592 0.87962 0.0
C769 C 0.90513 0.08923 0.00838 0.0
H770 H 0.90281 0.08177 0.04523 0.0
H771 H 0.91372 0.09379 0.02659 0.0
H772 H 0.89748 0.09607 0.00718 0.0
O773 O 0.92643 0.04957 0.97965 0.0
O774 O 0.92588 0.04471 0.86964 0.0
H775 H 0.90181 0.06794 0.74204 0.0
H776 H 0.89478 0.08311 0.74445 0.0
C777 C 0.90326 0.07775 0.75649 0.0
H778 H 0.911 0.08148 0.7256 0.0
H779 H 0.91418 0.04316 0.73986 0.0
O780 O 0.92497 0.07165 0.07921 0.0
C781 C 0.92557 0.04156 0.93232 0.0
Co782 Co 0.17625 0.68086 0.25353 0.0
Co783 Co 0.18019 0.67797 0.09457 0.0
C784 C 0.17226 0.70197 0.1561 0.0
O785 O 0.17197 0.69729 0.21596 0.0
O786 O 0.17549 0.69559 0.10428 0.0
C787 C 0.16376 0.68313 0.388 0.0
O788 O 0.15316 0.68469 0.35637 0.0
C789 C 0.17597 0.67945 0.94531 0.0
C790 C 0.18463 0.66207 0.90987 0.0
C791 C 0.17814 0.67233 0.88752 0.0
N792 N 0.18092 0.67361 -0.00033 0.0
N793 N 0.18619 0.6633 0.97792 0.0
C794 C 0.16845 0.69103 0.94982 0.0
H795 H 0.17476 0.69904 0.95586 0.0
H796 H 0.16233 0.69063 0.99537 0.0
H797 H 0.16274 0.69241 0.90322 0.0
C798 C 0.15971 0.65929 0.22929 0.0
N799 N 0.16747 0.66823 0.20771 0.0
N800 N 0.16854 0.66758 0.14059 0.0
C801 C 0.16106 0.65855 0.11722 0.0
C802 C 0.15534 0.65293 0.17265 0.0
C803 C 0.15732 0.6562 0.30278 0.0
H804 H 0.16544 0.65865 0.33459 0.0
H805 H 0.14916 0.66148 0.32092 0.0
H806 H 0.1553 0.64619 0.3089 0.0
O807 O 0.19396 0.6779 0.24345 0.0
O808 O 0.19718 0.6755 0.13218 0.0
H809 H 0.16618 0.65011 0.02246 0.0
H810 H 0.14972 0.65116 0.03557 0.0
C811 C 0.15866 0.65601 0.04307 0.0
H812 H 0.15839 0.6648 0.01406 0.0
H813 H 0.19061 0.65695 0.00989 0.0
O814 O 0.17358 0.68126 0.35389 0.0
C815 C 0.20117 0.67581 0.1935 0.0
Co816 Co 0.42949 0.92564 0.51103 0.0
Co817 Co 0.4284 0.93039 0.3537 0.0
C818 C 0.45136 0.92088 0.42079 0.0
O819 O 0.44617 0.92084 0.4794 0.0
O820 O 0.44559 0.92441 0.36727 0.0
C821 C 0.43422 0.9154 0.64727 0.0
O822 O 0.44365 0.9093 0.62157 0.0
C823 C 0.43041 0.92856 0.20315 0.0
C824 C 0.41277 0.93731 0.17248 0.0
C825 C 0.42314 0.93141 0.14667 0.0
N826 N 0.42441 0.93235 0.25967 0.0
N827 N 0.41397 0.9377 0.24088 0.0
C828 C 0.44316 0.92321 0.20394 0.0
H829 H 0.44273 0.91346 0.22166 0.0
H830 H 0.44759 0.92365 0.15282 0.0
H831 H 0.44896 0.92849 0.24038 0.0
C832 C 0.40852 0.90925 0.47809 0.0
N833 N 0.41725 0.91749 0.46005 0.0
N834 N 0.41707 0.91903 0.3933 0.0
C835 C 0.40841 0.91151 0.36632 0.0
C836 C 0.40262 0.90518 0.41921 0.0
C837 C 0.40577 0.90566 0.55052 0.0
H838 H 0.40551 0.91405 0.58312 0.0
H839 H 0.41327 0.89957 0.56972 0.0
H840 H 0.39679 0.90077 0.55491 0.0
O841 O 0.4275 0.94363 0.50507 0.0
O842 O 0.42659 0.94717 0.39365 0.0
H843 H 0.40062 0.9168 0.27016 0.0
H844 H 0.40221 0.90033 0.28102 0.0
C845 C 0.40663 0.90941 0.2912 0.0
H846 H 0.41566 0.90966 0.26455 0.0
H847 H 0.40754 0.94141 0.27502 0.0
O848 O 0.42755 0.92206 0.60859 0.0
C849 C 0.42642 0.95106 0.45507 0.0
Co850 Co 0.81775 0.67998 0.25866 0.0
Co851 Co 0.81255 0.6784 0.10161 0.0
C852 C 0.82291 0.70127 0.16445 0.0
O853 O 0.82303 0.69629 0.22353 0.0
O854 O 0.81893 0.69545 0.11224 0.0
C855 C 0.82184 0.6881 0.39479 0.0
O856 O 0.81887 0.69892 0.36883 0.0
C857 C 0.81604 0.67974 0.95297 0.0
C858 C 0.80322 0.66519 0.91704 0.0
C859 C 0.81172 0.67388 0.89456 0.0
N860 N 0.81034 0.67474 0.00743 0.0
N861 N 0.80263 0.66611 0.98563 0.0
C862 C 0.82621 0.6891 0.95797 0.0
H863 H 0.83139 0.68786 0.00647 0.0
H864 H 0.83268 0.68829 0.91414 0.0
H865 H 0.82211 0.69851 0.95784 0.0
C866 C 0.83326 0.6583 0.22654 0.0
N867 N 0.82528 0.66724 0.20814 0.0
N868 N 0.82346 0.66675 0.14165 0.0
C869 C 0.83039 0.65755 0.11525 0.0
C870 C 0.83679 0.65187 0.16827 0.0
C871 C 0.8372 0.65592 0.29882 0.0
H872 H 0.82897 0.65595 0.33272 0.0
H873 H 0.84344 0.66348 0.31575 0.0
H874 H 0.84202 0.64691 0.30404 0.0
O875 O 0.79959 0.67854 0.25519 0.0
O876 O 0.79597 0.67726 0.14375 0.0
H877 H 0.823 0.65093 0.02065 0.0
H878 H 0.8395 0.64876 0.02886 0.0
C879 C 0.83169 0.65507 0.04019 0.0
H880 H 0.8333 0.66389 0.01279 0.0
H881 H 0.79711 0.66072 0.01774 0.0
O882 O 0.82232 0.67872 0.35583 0.0
C883 C 0.79213 0.67748 0.20528 0.0
Co884 Co 0.06439 0.0681 0.97901 0.0
Co885 Co 0.06451 0.06145 0.82312 0.0
C886 C 0.04193 0.07164 0.89433 0.0
O887 O 0.04743 0.07264 0.95171 0.0
O888 O 0.04745 0.06736 0.84176 0.0
C889 C 0.06096 0.07902 0.11481 0.0
O890 O 0.05169 0.08541 0.08952 0.0
C891 C 0.06302 0.06562 0.67334 0.0
C892 C 0.07402 0.04974 0.63638 0.0
C893 C 0.06758 0.06008 0.61407 0.0
N894 N 0.06679 0.0589 0.72754 0.0
N895 N 0.0733 0.0494 0.70493 0.0
C896 C 0.05495 0.07683 0.67892 0.0
H897 H 0.06072 0.08527 0.67413 0.0
H898 H 0.04792 0.07687 0.63753 0.0
H899 H 0.05026 0.07718 0.72912 0.0
C900 C 0.08489 0.08428 0.93479 0.0
N901 N 0.07612 0.07578 0.92183 0.0
N902 N 0.07638 0.07286 0.85646 0.0
C903 C 0.08548 0.07933 0.82578 0.0
C904 C 0.09111 0.08681 0.87428 0.0
C905 C 0.08667 0.09033 0.00296 0.0
H906 H 0.09074 0.08353 0.03907 0.0
H907 H 0.07756 0.0932 0.0237 0.0
H908 H 0.09278 0.09854 -0.00048 0.0
O909 O 0.06624 0.04995 0.97667 0.0
O910 O 0.06674 0.04513 0.86661 0.0
H911 H 0.08952 0.068 0.73864 0.0
H912 H 0.09832 0.08213 0.742 0.0
C913 C 0.08914 0.07794 0.75229 0.0
H914 H 0.08215 0.08252 0.71946 0.0
H915 H 0.07736 0.04276 0.73647 0.0
O916 O 0.06732 0.07212 0.07575 0.0
C917 C 0.06714 0.04196 0.92923 0.0
Co918 Co 0.67676 0.31439 0.76468 0.0
Co919 Co 0.68011 0.31644 0.60521 0.0
C920 C 0.67151 0.29306 0.67037 0.0
O921 O 0.67177 0.298 0.72953 0.0
O922 O 0.67467 0.29908 0.61708 0.0
C923 C 0.66421 0.31266 0.89815 0.0
O924 O 0.65368 0.31129 0.86557 0.0
C925 C 0.67569 0.31489 0.45615 0.0
C926 C 0.68478 0.33203 0.42019 0.0
C927 C 0.67798 0.32194 0.39824 0.0
N928 N 0.68086 0.3206 0.51022 0.0
N929 N 0.68639 0.33076 0.48817 0.0
C930 C 0.66789 0.3035 0.46113 0.0
H931 H 0.66174 0.30414 0.50645 0.0
H932 H 0.66221 0.30215 0.41442 0.0
H933 H 0.67401 0.29535 0.46804 0.0
C934 C 0.66088 0.33645 0.73944 0.0
N935 N 0.66828 0.32717 0.71831 0.0
N936 N 0.6691 0.32748 0.65103 0.0
C937 C 0.66184 0.33664 0.62717 0.0
C938 C 0.65654 0.34271 0.68235 0.0
C939 C 0.65873 0.33984 0.81271 0.0
H940 H 0.66684 0.33725 0.84431 0.0
H941 H 0.65047 0.33486 0.83189 0.0
H942 H 0.657 0.34993 0.81786 0.0
O943 O 0.69457 0.31659 0.75293 0.0
O944 O 0.69728 0.31822 0.64081 0.0
H945 H 0.66668 0.34452 0.53044 0.0
H946 H 0.65028 0.34386 0.54593 0.0
C947 C 0.65916 0.33887 0.55298 0.0
H948 H 0.65858 0.32994 0.5254 0.0
H949 H 0.691 0.337 0.51991 0.0
O950 O 0.67417 0.31432 0.86492 0.0
C951 C 0.7016 0.31806 0.70145 0.0
Co952 Co 0.42822 0.06737 0.50609 0.0
Co953 Co 0.42866 0.06205 0.66321 0.0
C954 C 0.45089 0.07194 0.59049 0.0
O955 O 0.44517 0.07208 0.53345 0.0
O956 O 0.44564 0.06827 0.64534 0.0
C957 C 0.43206 0.07796 0.37042 0.0
O958 O 0.44171 0.0838 0.39545 0.0
C959 C 0.43117 0.06426 0.81375 0.0
C960 C 0.41475 0.0536 0.84658 0.0
C961 C 0.4244 0.06077 0.87111 0.0
N962 N 0.42552 0.05963 0.75802 0.0
N963 N 0.41584 0.05313 0.77816 0.0
C964 C 0.44305 0.07132 0.81141 0.0
H965 H 0.44114 0.08105 0.79664 0.0
H966 H 0.44789 0.0711 0.86143 0.0
H967 H 0.44922 0.06721 0.7724 0.0
C968 C 0.40762 0.08364 0.5474 0.0
N969 N 0.41646 0.07528 0.56168 0.0
N970 N 0.41682 0.07335 0.62811 0.0
C971 C 0.4083 0.08061 0.65852 0.0
C972 C 0.40214 0.08728 0.60835 0.0
C973 C 0.40447 0.08789 0.47658 0.0
H974 H 0.4036 0.07976 0.44231 0.0
H975 H 0.4121 0.09376 0.45682 0.0
H976 H 0.39571 0.09322 0.47552 0.0
O977 O 0.42639 0.04931 0.5105 0.0
O978 O 0.42671 0.04544 0.6217 0.0
H979 H 0.40204 0.07402 0.75567 0.0
H980 H 0.4018 0.09064 0.74772 0.0
C981 C 0.407 0.08213 0.73437 0.0
H982 H 0.41627 0.08267 0.75824 0.0
H983 H 0.40977 0.04864 0.74487 0.0
O984 O 0.42544 0.07131 0.40945 0.0
C985 C 0.42594 0.04173 0.56011 0.0
Co986 Co 0.67607 0.68106 0.23122 0.0
Co987 Co 0.67928 0.6785 0.39071 0.0
C988 C 0.66985 0.70179 0.327 0.0
O989 O 0.67036 0.6971 0.2673 0.0
O990 O 0.67319 0.6957 0.37968 0.0
C991 C 0.66371 0.68297 0.09764 0.0
O992 O 0.6532 0.68438 0.13036 0.0
C993 C 0.67443 0.6797 0.53939 0.0
C994 C 0.68449 0.66318 0.57621 0.0
C995 C 0.67709 0.67288 0.59763 0.0
N996 N 0.67997 0.67424 0.48563 0.0
N997 N 0.68606 0.66444 0.50819 0.0
C998 C 0.66609 0.6907 0.53401 0.0
H999 H 0.66007 0.68977 0.48831 0.0
H1000 H 0.66027 0.69174 0.58042 0.0
H1001 H 0.67182 0.69914 0.5276 0.0
C1002 C 0.66083 0.65846 0.25332 0.0
N1003 N 0.66796 0.66784 0.27592 0.0
N1004 N 0.66891 0.66711 0.3431 0.0
C1005 C 0.66214 0.65744 0.36529 0.0
C1006 C 0.65692 0.65163 0.30918 0.0
C1007 C 0.65837 0.65561 0.17967 0.0
H1008 H 0.6664 0.6583 0.14775 0.0
H1009 H 0.65011 0.66084 0.16256 0.0
H1010 H 0.65646 0.6456 0.17254 0.0
O1011 O 0.69398 0.67952 0.2441 0.0
O1012 O 0.69653 0.67746 0.35614 0.0
H1013 H 0.66817 0.64929 0.45913 0.0
H1014 H 0.65174 0.6483 0.44543 0.0
C1015 C 0.65999 0.65429 0.43896 0.0
H1016 H 0.65862 0.66286 0.46908 0.0
H1017 H 0.69111 0.65848 0.47683 0.0
O1018 O 0.67367 0.68124 0.13079 0.0
C1019 C 0.70095 0.67808 0.29584 0.0
Co1020 Co 0.06287 0.92602 0.99055 0.0
Co1021 Co 0.06485 0.93147 0.14708 0.0
C1022 C 0.04138 0.92193 0.08288 0.0
O1023 O 0.04624 0.92151 0.02347 0.0
O1024 O 0.0475 0.92565 0.13482 0.0
C1025 C 0.05772 0.91649 0.85281 0.0
O1026 O 0.04758 0.91134 0.87642 0.0
C1027 C 0.06281 0.92949 0.29718 0.0
C1028 C 0.08051 0.9379 0.32922 0.0
C1029 C 0.07006 0.93201 0.35414 0.0
N1030 N 0.06889 0.93338 0.24121 0.0
N1031 N 0.07937 0.93858 0.26082 0.0
C1032 C 0.0499 0.92453 0.29555 0.0
H1033 H 0.04425 0.93039 0.26115 0.0
H1034 H 0.04999 0.91498 0.27473 0.0
H1035 H 0.04552 0.9246 0.34683 0.0
C1036 C 0.08328 0.90901 0.0229 0.0
N1037 N 0.07506 0.91775 0.04111 0.0
N1038 N 0.07594 0.91986 0.10724 0.0
C1039 C 0.08474 0.91239 0.13343 0.0
C1040 C 0.0897 0.90538 0.08075 0.0
C1041 C 0.08488 0.90433 0.95136 0.0
H1042 H 0.08654 0.91226 0.91646 0.0
H1043 H 0.07625 0.89969 0.93471 0.0
H1044 H 0.09273 0.89777 0.94725 0.0
O1045 O 0.06514 0.944 0.99537 0.0
O1046 O 0.0668 0.94813 0.10589 0.0
H1047 H 0.09338 0.91896 0.2247 0.0
H1048 H 0.09265 0.90236 0.2189 0.0
C1049 C 0.08757 0.91106 0.20809 0.0
H1050 H 0.07888 0.91108 0.23808 0.0
H1051 H 0.08587 0.94233 0.22723 0.0
O1052 O 0.06481 0.92235 0.89309 0.0
C1053 C 0.06664 0.95167 0.04382 0.0
Co1054 Co 0.81857 0.31401 0.74179 0.0
Co1055 Co 0.81237 0.31532 0.89812 0.0
C1056 C 0.82232 0.29224 0.8337 0.0
O1057 O 0.82301 0.29735 0.77509 0.0
O1058 O 0.81825 0.29808 0.88564 0.0
C1059 C 0.82384 0.30652 0.60493 0.0
O1060 O 0.82164 0.29541 0.62945 0.0
C1061 C 0.8167 0.31395 0.04563 0.0
C1062 C 0.80208 0.32626 0.08591 0.0
C1063 C 0.81191 0.31885 0.10568 0.0
N1064 N 0.80999 0.31828 0.99295 0.0
N1065 N 0.80122 0.32556 0.01732 0.0
C1066 C 0.82799 0.30609 0.0373 0.0
H1067 H 0.83228 0.30777 0.98652 0.0
H1068 H 0.83481 0.30805 0.07835 0.0
H1069 H 0.8253 0.2962 0.04025 0.0
C1070 C 0.83504 0.33462 0.77996 0.0
N1071 N 0.82642 0.32612 0.79563 0.0
N1072 N 0.82386 0.32676 0.86138 0.0
C1073 C 0.83074 0.3358 0.8897 0.0
C1074 C 0.83806 0.34103 0.8391 0.0
C1075 C 0.84083 0.33588 0.71069 0.0
H1076 H 0.83388 0.33962 0.67439 0.0
H1077 H 0.84367 0.32662 0.69191 0.0
H1078 H 0.84901 0.34206 0.71158 0.0
O1079 O 0.80042 0.31618 0.74327 0.0
O1080 O 0.7961 0.3173 0.85402 0.0
H1081 H 0.82023 0.3407 0.9785 0.0
H1082 H 0.83489 0.34852 0.97238 0.0
C1083 C 0.83003 0.33963 0.96322 0.0
H1084 H 0.83428 0.33236 0.99562 0.0
H1085 H 0.79477 0.3302 0.987 0.0
O1086 O 0.82343 0.31577 0.64492 0.0
C1087 C 0.79266 0.31742 0.79175 0.0
H1088 H 0.05103 0.59298 0.77344 0.0
H1089 H 0.0696 0.54512 0.48706 0.0
H1090 H 0.07674 0.56301 0.80789 0.0
H1091 H 0.0639 0.58351 0.43368 0.0
H1092 H 0.0688 0.55077 0.60747 0.0
H1093 H 0.0526 0.5892 0.64946 0.0
C1094 C 0.05708 0.58572 0.75504 0.0
C1095 C 0.06369 0.57824 0.8011 0.0
C1096 C 0.06763 0.55793 0.56918 0.0
C1097 C 0.06528 0.57376 0.66069 0.0
C1098 C 0.06806 0.55473 0.50035 0.0
C1099 C 0.06656 0.56378 0.44949 0.0
C1100 C 0.06558 0.57028 0.58779 0.0
C1101 C 0.06461 0.57609 0.47035 0.0
C1102 C 0.05796 0.58358 0.68455 0.0
C1103 C 0.07142 0.56898 0.77451 0.0
N1104 N 0.06409 0.57898 0.53809 0.0
N1105 N 0.07186 0.5669 0.70621 0.0
H1106 H 0.69866 0.82065 0.72217 0.0
H1107 H 0.65106 0.80158 0.00928 0.0
H1108 H 0.66013 0.81559 0.6709 0.0
H1109 H 0.6818 0.82629 0.04508 0.0
H1110 H 0.65461 0.80365 0.88528 0.0
H1111 H 0.69328 0.81941 0.84285 0.0
C1112 C 0.68908 0.81917 0.73603 0.0
C1113 C 0.6799 0.81794 0.68577 0.0
C1114 C 0.66045 0.80867 0.92072 0.0
C1115 C 0.67371 0.81647 0.82421 0.0
C1116 C 0.65845 0.80751 0.9912 0.0
C1117 C 0.66621 0.81368 0.03758 0.0
C1118 C 0.6704 0.81586 0.89723 0.0
C1119 C 0.67562 0.82128 0.01144 0.0
C1120 C 0.68603 0.81849 0.80498 0.0
C1121 C 0.66762 0.81607 0.7072 0.0
N1122 N 0.67755 0.82202 0.94313 0.0
N1123 N 0.66488 0.8153 0.77503 0.0
H1124 H 0.43 0.41012 0.91359 0.0
H1125 H 0.4161 0.43069 0.29306 0.0
H1126 H 0.42251 0.44801 0.97121 0.0
H1127 H 0.44396 0.4029 0.25395 0.0
H1128 H 0.41404 0.43399 0.17056 0.0
H1129 H 0.43166 0.40471 0.03448 0.0
C1130 C 0.429 0.4174 0.95091 0.0
C1131 C 0.42649 0.42968 0.93146 0.0
C1132 C 0.42055 0.42711 0.18885 0.0
C1133 C 0.42761 0.42327 0.06987 0.0
C1134 C 0.4217 0.42516 0.25877 0.0
C1135 C 0.43036 0.41661 0.28391 0.0
C1136 C 0.42795 0.42038 0.14345 0.0
C1137 C 0.43727 0.40967 0.23668 0.0
C1138 C 0.42978 0.41421 0.0201 0.0
C1139 C 0.42453 0.43844 0.98336 0.0
N1140 N 0.43594 0.41173 0.1683 0.0
N1141 N 0.42507 0.43506 0.05005 0.0
H1142 H 0.8267 0.15586 0.19393 0.0
H1143 H 0.81216 0.19238 0.52734 0.0
H1144 H 0.81281 0.19317 0.18108 0.0
H1145 H 0.84596 0.17133 0.5156 0.0
H1146 H 0.81016 0.19108 0.40253 0.0
H1147 H 0.83199 0.15942 0.31482 0.0
C1148 C 0.82487 0.16482 0.21664 0.0
C1149 C 0.81939 0.17427 0.17802 0.0
C1150 C 0.81808 0.18687 0.42728 0.0
C1151 C 0.82509 0.17828 0.3154 0.0
C1152 C 0.8192 0.18756 0.49822 0.0
C1153 C 0.82925 0.18197 0.5313 0.0
C1154 C 0.82686 0.1802 0.38955 0.0
C1155 C 0.83814 0.17583 0.4916 0.0
C1156 C 0.82794 0.16686 0.28514 0.0
C1157 C 0.81713 0.18571 0.20935 0.0
N1158 N 0.83662 0.1749 0.42259 0.0
N1159 N 0.81981 0.18735 0.27674 0.0
H1160 H 0.04702 0.4284 0.56145 0.0
H1161 H 0.07837 0.41818 0.19484 0.0
H1162 H 0.0862 0.43147 0.52392 0.0
H1163 H 0.03915 0.42357 0.22388 0.0
H1164 H 0.08125 0.41922 0.3187 0.0
H1165 H 0.0439 0.42304 0.44099 0.0
C1166 C 0.05498 0.42773 0.52811 0.0
C1167 C 0.0669 0.43024 0.55264 0.0
C1168 C 0.07201 0.42007 0.29796 0.0
C1169 C 0.0634 0.42433 0.41489 0.0
C1170 C 0.07034 0.41943 0.22727 0.0
C1171 C 0.05851 0.42095 0.19893 0.0
C1172 C 0.06177 0.4222 0.3406 0.0
C1173 C 0.04845 0.42248 0.2435 0.0
C1174 C 0.05319 0.42477 0.4593 0.0
C1175 C 0.07686 0.4296 0.50685 0.0
N1176 N 0.05032 0.42315 0.31215 0.0
N1177 N 0.07489 0.4267 0.44014 0.0
H1178 H 0.82708 0.83744 0.80497 0.0
H1179 H 0.81299 0.80041 0.47258 0.0
H1180 H 0.81384 0.79991 0.81886 0.0
H1181 H 0.84641 0.82207 0.48327 0.0
H1182 H 0.81102 0.80179 0.59739 0.0
H1183 H 0.83234 0.83389 0.684 0.0
C1184 C 0.82538 0.82844 0.78247 0.0
C1185 C 0.8201 0.81892 0.82141 0.0
C1186 C 0.81885 0.80611 0.57242 0.0
C1187 C 0.82576 0.81493 0.68396 0.0
C1188 C 0.81995 0.80538 0.50147 0.0
C1189 C 0.82989 0.81112 0.4681 0.0
C1190 C 0.82752 0.81298 0.60984 0.0
C1191 C 0.83868 0.81746 0.50751 0.0
C1192 C 0.82843 0.82641 0.71393 0.0
C1193 C 0.81801 0.80743 0.79034 0.0
N1194 N 0.83717 0.81842 0.57651 0.0
N1195 N 0.82067 0.80579 0.72292 0.0
H1196 H 0.44372 0.56298 0.71976 0.0
H1197 H 0.4076 0.57864 0.05417 0.0
H1198 H 0.42319 0.59712 0.73187 0.0
H1199 H 0.44419 0.56295 0.06542 0.0
H1200 H 0.41127 0.5838 0.9332 0.0
H1201 H 0.44235 0.56092 0.84446 0.0
C1202 C 0.439 0.57008 0.74893 0.0
C1203 C 0.43357 0.58024 0.71595 0.0
C1204 C 0.41853 0.57937 0.96253 0.0
C1205 C 0.43172 0.57779 0.85767 0.0
C1206 C 0.41642 0.57638 0.03108 0.0
C1207 C 0.42565 0.57044 0.06932 0.0
C1208 C 0.42976 0.57602 0.93182 0.0
C1209 C 0.43691 0.56764 0.03749 0.0
C1210 C 0.43827 0.56893 0.81984 0.0
C1211 C 0.42756 0.5892 0.75576 0.0
N1212 N 0.4386 0.57028 0.9701 0.0
N1213 N 0.42659 0.58766 0.82474 0.0
H1214 H 0.68007 0.16591 0.94656 0.0
H1215 H 0.65933 0.18001 0.32558 0.0
H1216 H 0.65198 0.19352 0.98462 0.0
H1217 H 0.69727 0.17294 0.26801 0.0
H1218 H 0.65389 0.18146 0.20459 0.0
H1219 H 0.68335 0.16401 0.06915 0.0
C1220 C 0.67447 0.17149 0.98064 0.0
C1221 C 0.66584 0.18004 0.95518 0.0
C1222 C 0.66341 0.17971 0.21899 0.0
C1223 C 0.66959 0.17781 0.09572 0.0
C1224 C 0.66661 0.17907 0.2882 0.0
C1225 C 0.67891 0.17674 0.30765 0.0
C1226 C 0.67249 0.1776 0.16927 0.0
C1227 C 0.68769 0.17483 0.25581 0.0
C1228 C 0.67642 0.17042 0.0506 0.0
C1229 C 0.65881 0.18691 0.00214 0.0
N1230 N 0.6843 0.17524 0.18913 0.0
N1231 N 0.66086 0.18568 0.07056 0.0
H1232 H 0.91498 0.42853 0.18254 0.0
H1233 H 0.93466 0.41246 0.56346 0.0
H1234 H 0.94786 0.40707 0.22399 0.0
H1235 H 0.91511 0.44574 0.50648 0.0
H1236 H 0.93734 0.40754 0.44198 0.0
H1237 H 0.91212 0.4315 0.30473 0.0
C1238 C 0.92157 0.42434 0.21732 0.0
C1239 C 0.9318 0.41768 0.19289 0.0
C1240 C 0.93259 0.41597 0.45639 0.0
C1241 C 0.9285 0.42108 0.33312 0.0
C1242 C 0.93121 0.4189 0.52557 0.0
C1243 C 0.92504 0.42979 0.54504 0.0
C1244 C 0.92744 0.4238 0.4068 0.0
C1245 C 0.92006 0.43734 0.49371 0.0
C1246 C 0.91993 0.4261 0.2871 0.0
C1247 C 0.93991 0.41236 0.24066 0.0
N1248 N 0.92135 0.4342 0.42695 0.0
N1249 N 0.93812 0.41422 0.30885 0.0
H1250 H 0.31194 0.19265 0.9815 0.0
H1251 H 0.32587 0.15685 0.3166 0.0
H1252 H 0.34605 0.17215 0.99525 0.0
H1253 H 0.31294 0.19451 0.32836 0.0
H1254 H 0.3314 0.16023 0.19581 0.0
H1255 H 0.3099 0.19162 0.10644 0.0
C1256 C 0.31903 0.188 0.0111 0.0
C1257 C 0.32919 0.18249 0.9786 0.0
C1258 C 0.3275 0.16777 0.22525 0.0
C1259 C 0.32675 0.18102 0.12042 0.0
C1260 C 0.32431 0.16585 0.29368 0.0
C1261 C 0.31901 0.17545 0.33191 0.0
C1262 C 0.32496 0.17923 0.19464 0.0
C1263 C 0.3171 0.18693 0.30034 0.0
C1264 C 0.31789 0.18747 0.08208 0.0
C1265 C 0.33814 0.17657 0.01885 0.0
N1266 N 0.31987 0.18846 0.23296 0.0
N1267 N 0.3366 0.17578 0.08791 0.0
H1268 H 0.57975 0.56337 0.66906 0.0
H1269 H 0.56532 0.5837 0.04892 0.0
H1270 H 0.55278 0.59203 0.70793 0.0
H1271 H 0.57224 0.54578 0.99013 0.0
H1272 H 0.56417 0.58935 0.92804 0.0
H1273 H 0.5814 0.55976 0.79156 0.0
C1274 C 0.57427 0.56903 0.70331 0.0
C1275 C 0.56597 0.57792 0.67805 0.0
C1276 C 0.56581 0.57979 0.9421 0.0
C1277 C 0.56791 0.57379 0.81854 0.0
C1278 C 0.56628 0.57648 0.01122 0.0
C1279 C 0.56847 0.56411 0.0303 0.0
C1280 C 0.56796 0.57077 0.89206 0.0
C1281 C 0.57044 0.5554 0.97818 0.0
C1282 C 0.57519 0.56689 0.77322 0.0
C1283 C 0.5592 0.58501 0.72525 0.0
N1284 N 0.57019 0.5589 0.91159 0.0
N1285 N 0.56029 0.58277 0.79359 0.0
H1286 H 0.1765 0.79845 0.81576 0.0
H1287 H 0.16746 0.82938 0.44711 0.0
H1288 H 0.1801 0.83756 0.7763 0.0
H1289 H 0.17219 0.7901 0.47836 0.0
H1290 H 0.16818 0.83243 0.57084 0.0
H1291 H 0.17121 0.7952 0.69531 0.0
C1292 C 0.17594 0.80638 0.78203 0.0
C1293 C 0.1786 0.81831 0.80598 0.0
C1294 C 0.16896 0.82313 0.55062 0.0
C1295 C 0.17279 0.81465 0.66825 0.0
C1296 C 0.16851 0.82137 0.47999 0.0
C1297 C 0.16994 0.80947 0.45231 0.0
C1298 C 0.17081 0.81293 0.59391 0.0
C1299 C 0.17118 0.79944 0.49746 0.0
C1300 C 0.17303 0.80451 0.71322 0.0
C1301 C 0.17812 0.82821 0.75969 0.0
N1302 N 0.17168 0.80141 0.56609 0.0
N1303 N 0.17527 0.82616 0.69299 0.0
H1304 H 0.94294 0.59316 0.76124 0.0
H1305 H 0.92264 0.54577 0.47589 0.0
H1306 H 0.91715 0.56336 0.79806 0.0
H1307 H 0.9288 0.58412 0.42301 0.0
H1308 H 0.92392 0.5513 0.59632 0.0
H1309 H 0.94084 0.5895 0.63738 0.0
C1310 C 0.93677 0.58596 0.74341 0.0
C1311 C 0.93029 0.57849 0.79007 0.0
C1312 C 0.92508 0.55847 0.55813 0.0
C1313 C 0.92808 0.57416 0.6498 0.0
C1314 C 0.92437 0.55534 0.48928 0.0
C1315 C 0.92588 0.56441 0.43853 0.0
C1316 C 0.92742 0.57076 0.57685 0.0
C1317 C 0.92809 0.57667 0.45952 0.0
C1318 C 0.93558 0.5839 0.67299 0.0
C1319 C 0.92239 0.56931 0.7642 0.0
N1320 N 0.92888 0.57949 0.52727 0.0
N1321 N 0.92164 0.56731 0.69594 0.0
H1322 H 0.18156 0.19227 0.51824 0.0
H1323 H 0.16522 0.15647 0.1838 0.0
H1324 H 0.14721 0.17214 0.50662 0.0
H1325 H 0.18147 0.19283 0.17279 0.0
H1326 H 0.16016 0.16017 0.30485 0.0
H1327 H 0.18352 0.19092 0.39352 0.0
C1328 C 0.17439 0.18764 0.48917 0.0
C1329 C 0.1642 0.18232 0.52229 0.0
C1330 C 0.16469 0.16737 0.27555 0.0
C1331 C 0.16653 0.1805 0.38052 0.0
C1332 C 0.16763 0.16525 0.20695 0.0
C1333 C 0.17369 0.1744 0.16877 0.0
C1334 C 0.16823 0.17855 0.30634 0.0
C1335 C 0.17668 0.18562 0.20068 0.0
C1336 C 0.17549 0.18693 0.41824 0.0
C1337 C 0.15515 0.17643 0.4826 0.0
N1338 N 0.17408 0.18732 0.26811 0.0
N1339 N 0.15663 0.17547 0.41359 0.0
H1340 H 0.56971 0.44989 0.98489 0.0
H1341 H 0.5519 0.40161 0.27089 0.0
H1342 H 0.56402 0.41154 0.93078 0.0
H1343 H 0.57759 0.43158 0.30504 0.0
H1344 H 0.55322 0.40557 0.14699 0.0
H1345 H 0.5692 0.44409 0.10518 0.0
C1346 C 0.56822 0.44026 -0.00204 0.0
C1347 C 0.56666 0.43126 0.94687 0.0
C1348 C 0.55864 0.41114 0.18196 0.0
C1349 C 0.56601 0.4246 0.08515 0.0
C1350 C 0.5579 0.4089 0.25242 0.0
C1351 C 0.56458 0.41632 0.29842 0.0
C1352 C 0.56588 0.42102 0.15802 0.0
C1353 C 0.57224 0.42564 0.27171 0.0
C1354 C 0.56797 0.43697 0.06675 0.0
C1355 C 0.56479 0.41892 0.96756 0.0
N1356 N 0.57253 0.42783 0.20344 0.0
N1357 N 0.56444 0.41596 0.03526 0.0
H1358 H 0.32583 0.78909 0.01937 0.0
H1359 H 0.31133 0.8368 0.71922 0.0
H1360 H 0.32359 0.82863 0.04865 0.0
H1361 H 0.31907 0.79818 0.68372 0.0
H1362 H 0.31685 0.83408 0.83948 0.0
H1363 H 0.32474 0.79228 0.89566 0.0
C1364 C 0.32525 0.79845 -0.0002 0.0
C1365 C 0.32464 0.8086 0.0445 0.0
C1366 C 0.31751 0.82622 0.80529 0.0
C1367 C 0.32328 0.8123 0.90303 0.0
C1368 C 0.31431 0.82777 0.73672 0.0
C1369 C 0.31485 0.81773 0.69142 0.0
C1370 C 0.32106 0.81449 0.82911 0.0
C1371 C 0.31877 0.80622 0.71661 0.0
C1372 C 0.32463 0.80026 0.92913 0.0
C1373 C 0.32398 0.82052 0.01619 0.0
N1374 N 0.32162 0.80489 0.78399 0.0
N1375 N 0.32317 0.82203 0.94733 0.0
H1376 H 0.55865 0.08311 0.89835 0.0
H1377 H 0.5785 0.06683 0.27872 0.0
H1378 H 0.57823 0.04982 0.95466 0.0
H1379 H 0.54571 0.08849 0.23806 0.0
H1380 H 0.5813 0.0639 0.15647 0.0
H1381 H 0.55603 0.08799 0.01993 0.0
C1382 C 0.56212 0.07667 0.93612 0.0
C1383 C 0.56828 0.06579 0.91645 0.0
C1384 C 0.57351 0.06934 0.17428 0.0
C1385 C 0.56596 0.07172 0.05476 0.0
C1386 C 0.57192 0.07107 0.2441 0.0
C1387 C 0.56173 0.07777 0.26876 0.0
C1388 C 0.56495 0.07442 0.12846 0.0
C1389 C 0.55363 0.08317 0.22119 0.0
C1390 C 0.56078 0.07957 0.00535 0.0
C1391 C 0.57329 0.05821 0.9676 0.0
N1392 N 0.55538 0.08133 0.15296 0.0
N1393 N 0.57203 0.06133 0.0344 0.0
H1394 H 0.16716 0.3371 0.19102 0.0
H1395 H 0.18245 0.30212 0.5268 0.0
H1396 H 0.18112 0.2998 0.18048 0.0
H1397 H 0.14789 0.32188 0.51395 0.0
H1398 H 0.18423 0.30298 0.40174 0.0
H1399 H 0.1618 0.33373 0.31204 0.0
C1400 C 0.16897 0.32818 0.21426 0.0
C1401 C 0.17452 0.31868 0.17634 0.0
C1402 C 0.1762 0.307 0.42633 0.0
C1403 C 0.16877 0.31491 0.31382 0.0
C1404 C 0.17521 0.30658 0.49738 0.0
C1405 C 0.165 0.31193 0.53017 0.0
C1406 C 0.16714 0.3132 0.38817 0.0
C1407 C 0.15585 0.31759 0.49014 0.0
C1408 C 0.16588 0.32625 0.28281 0.0
C1409 C 0.17676 0.30729 0.20828 0.0
N1410 N 0.15724 0.31829 0.42096 0.0
N1411 N 0.17408 0.30578 0.27576 0.0
H1412 H 0.92874 0.90993 0.434 0.0
H1413 H 0.91426 0.93041 0.81364 0.0
H1414 H 0.92193 0.94788 0.49263 0.0
H1415 H 0.94104 0.90155 0.7752 0.0
H1416 H 0.91266 0.93399 0.69111 0.0
H1417 H 0.92981 0.90428 0.55494 0.0
C1418 C 0.92779 0.91716 0.47171 0.0
C1419 C 0.92565 0.92953 0.45259 0.0
C1420 C 0.91882 0.92682 0.70955 0.0
C1421 C 0.92607 0.92288 0.59082 0.0
C1422 C 0.91971 0.9247 0.77948 0.0
C1423 C 0.92794 0.91576 0.80487 0.0
C1424 C 0.92607 0.91986 0.66434 0.0
C1425 C 0.93467 0.90861 0.75778 0.0
C1426 C 0.92821 0.91385 0.54084 0.0
C1427 C 0.92369 0.93826 0.50464 0.0
N1428 N 0.93362 0.91084 0.68942 0.0
N1429 N 0.92389 0.93476 0.57124 0.0
H1430 H 0.29431 0.67233 0.73191 0.0
H1431 H 0.34166 0.69277 0.01688 0.0
H1432 H 0.33251 0.67899 0.67824 0.0
H1433 H 0.31248 0.66628 0.05337 0.0
H1434 H 0.33787 0.69085 0.89306 0.0
H1435 H 0.29995 0.67345 0.85228 0.0
C1436 C 0.30387 0.67415 0.74508 0.0
C1437 C 0.31286 0.67584 0.6941 0.0
C1438 C 0.33243 0.6854 0.92856 0.0
C1439 C 0.31934 0.67719 0.83239 0.0
C1440 C 0.33457 0.68648 -0.00103 0.0
C1441 C 0.32733 0.67975 0.04556 0.0
C1442 C 0.32283 0.67775 0.90528 0.0
C1443 C 0.31827 0.6717 0.01957 0.0
C1444 C 0.30707 0.67476 0.81391 0.0
C1445 C 0.32511 0.67813 0.71489 0.0
N1446 N 0.31617 0.67107 0.95132 0.0
N1447 N 0.32799 0.67883 0.7826 0.0
H1448 H 0.55948 0.91079 0.08217 0.0
H1449 H 0.57908 0.92785 0.70238 0.0
H1450 H 0.57801 0.9447 0.0263 0.0
H1451 H 0.54699 0.90512 0.7419 0.0
H1452 H 0.5817 0.93076 0.82474 0.0
H1453 H 0.55711 0.90584 0.96049 0.0
C1454 C 0.56277 0.91734 0.04448 0.0
C1455 C 0.56857 0.92841 0.0643 0.0
C1456 C 0.57411 0.9251 0.80666 0.0
C1457 C 0.56653 0.92242 0.92593 0.0
C1458 C 0.57262 0.92338 0.73678 0.0
C1459 C 0.56267 0.91638 0.71178 0.0
C1460 C 0.56568 0.91971 0.85219 0.0
C1461 C 0.55472 0.91067 0.75905 0.0
C1462 C 0.56157 0.91441 0.9752 0.0
C1463 C 0.57336 0.93616 0.01326 0.0
N1464 N 0.55636 0.91252 0.82736 0.0
N1465 N 0.57225 0.93301 0.94644 0.0
H1466 H 0.31532 0.33783 0.29682 0.0
H1467 H 0.32091 0.28879 0.99438 0.0
H1468 H 0.31597 0.29839 0.33035 0.0
H1469 H 0.32651 0.32805 0.96722 0.0
H1470 H 0.32014 0.29194 0.11814 0.0
H1471 H 0.32011 0.33436 0.17613 0.0
C1472 C 0.31658 0.32844 0.27874 0.0
C1473 C 0.31539 0.31839 0.32356 0.0
C1474 C 0.32167 0.29984 0.08513 0.0
C1475 C 0.32076 0.31431 0.18564 0.0
C1476 C 0.32211 0.29805 0.01445 0.0
C1477 C 0.32363 0.3082 0.97037 0.0
C1478 C 0.32263 0.31187 0.11179 0.0
C1479 C 0.32522 0.31998 -0.00076 0.0
C1480 C 0.31937 0.32646 0.20999 0.0
C1481 C 0.31708 0.3064 0.29773 0.0
N1482 N 0.32454 0.32151 0.0681 0.0
N1483 N 0.31959 0.30468 0.23026 0.0
H1484 H 0.92871 0.08382 0.56398 0.0
H1485 H 0.91504 0.06318 0.18383 0.0
H1486 H 0.92195 0.04585 0.50558 0.0
H1487 H 0.94179 0.09199 0.22358 0.0
H1488 H 0.91318 0.05964 0.30626 0.0
H1489 H 0.93006 0.08939 0.44306 0.0
C1490 C 0.92782 0.07657 0.52636 0.0
C1491 C 0.92563 0.06421 0.54555 0.0
C1492 C 0.9194 0.06679 0.28813 0.0
C1493 C 0.92637 0.07078 0.40726 0.0
C1494 C 0.92044 0.06888 0.21826 0.0
C1495 C 0.92873 0.0778 0.19328 0.0
C1496 C 0.92655 0.07376 0.3337 0.0
C1497 C 0.93538 0.08495 0.24069 0.0
C1498 C 0.92841 0.07984 0.45722 0.0
C1499 C 0.92375 0.05546 0.49353 0.0
N1500 N 0.93418 0.08275 0.30901 0.0
N1501 N 0.92411 0.05892 0.42689 0.0
H1502 H 0.18191 0.69294 0.46669 0.0
H1503 H 0.16581 0.65692 0.80122 0.0
H1504 H 0.14743 0.67305 0.47953 0.0
H1505 H 0.18222 0.6932 0.81244 0.0
H1506 H 0.16068 0.66073 0.68033 0.0
H1507 H 0.18407 0.69143 0.59128 0.0
C1508 C 0.17476 0.68833 0.496 0.0
C1509 C 0.16447 0.68313 0.46324 0.0
C1510 C 0.16527 0.66789 0.70964 0.0
C1511 C 0.16703 0.68111 0.60486 0.0
C1512 C 0.16824 0.66571 0.77814 0.0
C1513 C 0.17437 0.6748 0.81636 0.0
C1514 C 0.16882 0.67907 0.67895 0.0
C1515 C 0.17739 0.68602 0.78453 0.0
C1516 C 0.17597 0.68752 0.56686 0.0
C1517 C 0.15545 0.67725 0.50325 0.0
N1518 N 0.17475 0.68779 0.71719 0.0
N1519 N 0.15704 0.67619 0.57215 0.0
H1520 H 0.41608 0.94529 0.03819 0.0
H1521 H 0.44715 0.90376 0.75058 0.0
H1522 H 0.4341 0.91085 0.08894 0.0
H1523 H 0.41646 0.9285 0.71386 0.0
H1524 H 0.44447 0.90701 0.87427 0.0
H1525 H 0.41838 0.9404 0.9171 0.0
C1526 C 0.42064 0.93675 0.0238 0.0
C1527 C 0.42521 0.92863 0.07364 0.0
C1528 C 0.4383 0.91161 0.83879 0.0
C1529 C 0.4278 0.92292 0.93522 0.0
C1530 C 0.4398 0.90976 0.76841 0.0
C1531 C 0.4321 0.91596 0.72182 0.0
C1532 C 0.42915 0.91982 0.86209 0.0
C1533 C 0.4227 0.92361 0.74769 0.0
C1534 C 0.42191 0.93394 0.95475 0.0
C1535 C 0.43092 0.91762 0.05218 0.0
N1536 N 0.42159 0.92541 0.81594 0.0
N1537 N 0.43213 0.9151 0.98432 0.0
H1538 H 0.81494 0.65659 0.79545 0.0
H1539 H 0.82075 0.70594 0.49421 0.0
H1540 H 0.81602 0.69599 0.83 0.0
H1541 H 0.82547 0.66659 0.46567 0.0
H1542 H 0.82013 0.70266 0.61795 0.0
H1543 H 0.81958 0.66015 0.67463 0.0
C1544 C 0.81627 0.66599 0.77755 0.0
C1545 C 0.81525 0.67601 0.82267 0.0
C1546 C 0.82143 0.69477 0.5846 0.0
C1547 C 0.82042 0.68019 0.68467 0.0
C1548 C 0.82179 0.69663 0.51396 0.0
C1549 C 0.82301 0.68651 0.46953 0.0
C1550 C 0.8222 0.68269 0.61083 0.0
C1551 C 0.8244 0.67466 0.49797 0.0
C1552 C 0.81896 0.66802 0.70873 0.0
C1553 C 0.817 0.688 0.79711 0.0
N1554 N 0.82382 0.67307 0.56678 0.0
N1555 N 0.81943 0.68977 0.72959 0.0
H1556 H 0.06921 0.04502 0.50363 0.0
H1557 H 0.05028 0.09286 0.21763 0.0
H1558 H 0.06368 0.08344 0.55677 0.0
H1559 H 0.07589 0.06284 0.18223 0.0
H1560 H 0.05204 0.08908 0.34157 0.0
H1561 H 0.06824 0.05065 0.38321 0.0
C1562 C 0.06768 0.05463 0.49031 0.0
C1563 C 0.06627 0.0637 0.54114 0.0
C1564 C 0.05733 0.08346 0.30627 0.0
C1565 C 0.06509 0.07016 0.4028 0.0
C1566 C 0.05634 0.08559 0.2358 0.0
C1567 C 0.06287 0.0781 0.18949 0.0
C1568 C 0.06467 0.07363 0.32987 0.0
C1569 C 0.07063 0.06883 0.21581 0.0
C1570 C 0.06715 0.05782 0.42146 0.0
C1571 C 0.06432 0.07601 0.5202 0.0
N1572 N 0.07117 0.06675 0.2841 0.0
N1573 N 0.06371 0.07888 0.45245 0.0
H1574 H 0.68193 0.30224 0.97742 0.0
H1575 H 0.66593 0.33772 0.31282 0.0
H1576 H 0.64783 0.32283 0.98907 0.0
H1577 H 0.68146 0.30103 0.32274 0.0
H1578 H 0.6608 0.33424 0.1917 0.0
H1579 H 0.68373 0.30329 0.10229 0.0
C1580 C 0.67479 0.30691 0.00652 0.0
C1581 C 0.66472 0.31246 0.97338 0.0
C1582 C 0.66518 0.32692 0.22078 0.0
C1583 C 0.66687 0.31392 0.11532 0.0
C1584 C 0.66815 0.32891 0.28942 0.0
C1585 C 0.67405 0.31961 0.32728 0.0
C1586 C 0.66852 0.31571 0.18963 0.0
C1587 C 0.67681 0.30836 0.29508 0.0
C1588 C 0.67579 0.30745 0.07753 0.0
C1589 C 0.65569 0.31838 0.0131 0.0
N1590 N 0.67419 0.30678 0.22759 0.0
N1591 N 0.65709 0.31916 0.08222 0.0
H1592 H 0.41411 0.065 0.30428 0.0
H1593 H 0.43341 0.08264 0.92531 0.0
H1594 H 0.44494 0.08952 0.26677 0.0
H1595 H 0.41818 0.04717 0.98229 0.0
H1596 H 0.43508 0.088 0.04677 0.0
H1597 H 0.41214 0.06168 0.18175 0.0
C1598 C 0.42041 0.0698 0.27029 0.0
C1599 C 0.42984 0.07742 0.29595 0.0
C1600 C 0.4315 0.07901 0.03232 0.0
C1601 C 0.42758 0.07361 0.15541 0.0
C1602 C 0.43073 0.07584 0.96314 0.0
C1603 C 0.42606 0.06424 0.94366 0.0
C1604 C 0.42721 0.07066 0.08182 0.0
C1605 C 0.42196 0.05615 0.995 0.0
C1606 C 0.4193 0.06783 0.20035 0.0
C1607 C 0.43762 0.08348 0.24914 0.0
N1608 N 0.4226 0.05953 0.06168 0.0
N1609 N 0.43635 0.08141 0.18078 0.0
H1610 H 0.68122 0.69346 0.01714 0.0
H1611 H 0.66584 0.65687 0.68508 0.0
H1612 H 0.64743 0.67235 0.00802 0.0
H1613 H 0.6799 0.6941 0.67121 0.0
H1614 H 0.66081 0.66048 0.80628 0.0
H1615 H 0.68292 0.69214 0.89222 0.0
C1616 C 0.67412 0.68862 0.98857 0.0
C1617 C 0.66416 0.68302 0.02241 0.0
C1618 C 0.66484 0.66788 0.7763 0.0
C1619 C 0.66621 0.68123 0.88054 0.0
C1620 C 0.66775 0.66582 0.70763 0.0
C1621 C 0.6732 0.67524 0.66864 0.0
C1622 C 0.6678 0.67929 0.80632 0.0
C1623 C 0.67559 0.68667 0.69976 0.0
C1624 C 0.67507 0.68793 0.91757 0.0
C1625 C 0.65519 0.67686 0.98341 0.0
N1626 N 0.67305 0.68833 0.76729 0.0
N1627 N 0.65654 0.67592 0.91432 0.0
H1628 H 0.05865 0.91135 0.40816 0.0
H1629 H 0.07694 0.92812 0.79014 0.0
H1630 H 0.07747 0.94502 0.46538 0.0
H1631 H 0.04452 0.90612 0.74656 0.0
H1632 H 0.08009 0.93107 0.66815 0.0
H1633 H 0.0557 0.90653 0.52963 0.0
C1634 C 0.06189 0.91788 0.4461 0.0
C1635 C 0.0679 0.92886 0.42669 0.0
C1636 C 0.07231 0.92556 0.68526 0.0
C1637 C 0.06521 0.923 0.56497 0.0
C1638 C 0.07051 0.9238 0.75494 0.0
C1639 C 0.06033 0.91698 0.77871 0.0
C1640 C 0.06396 0.92036 0.63866 0.0
C1641 C 0.05242 0.91153 0.7304 0.0
C1642 C 0.06036 0.91502 0.51528 0.0
C1643 C 0.07263 0.93655 0.4781 0.0
N1644 N 0.05438 0.91337 0.66232 0.0
N1645 N 0.0712 0.93347 0.54489 0.0
H1646 H 0.82585 0.32849 0.53623 0.0
H1647 H 0.81998 0.29739 0.1663 0.0
H1648 H 0.82453 0.28899 0.5037 0.0
H1649 H 0.81291 0.33597 0.20714 0.0
H1650 H 0.82549 0.29445 0.28671 0.0
H1651 H 0.82512 0.33162 0.41259 0.0
C1652 C 0.82555 0.32046 0.5031 0.0
C1653 C 0.82507 0.30845 0.53039 0.0
C1654 C 0.82287 0.30359 0.2691 0.0
C1655 C 0.82419 0.31199 0.38883 0.0
C1656 C 0.81983 0.30529 0.20029 0.0
C1657 C 0.81611 0.31697 0.17676 0.0
C1658 C 0.82217 0.31364 0.31447 0.0
C1659 C 0.81572 0.32681 0.22341 0.0
C1660 C 0.82509 0.32226 0.4325 0.0
C1661 C 0.82478 0.29841 0.48491 0.0
N1662 N 0.8187 0.32493 0.29008 0.0
N1663 N 0.82425 0.3004 0.41629 0.0
H1664 H 0.13327 0.6512 0.2394 0.0
H1665 H 0.11369 0.58867 0.05017 0.0
H1666 H 0.15733 0.63125 0.10234 0.0
H1667 H 0.09205 0.60562 0.20987 0.0
H1668 H 0.12984 0.60423 0.06817 0.0
H1669 H 0.11812 0.63448 0.23063 0.0
C1670 C 0.13539 0.64321 0.20807 0.0
C1671 C 0.14647 0.64258 0.17116 0.0
C1672 C 0.1216 0.60452 0.09957 0.0
C1673 C 0.12919 0.62356 0.15994 0.0
C1674 C 0.11239 0.5957 0.08905 0.0
C1675 C 0.10161 0.59597 0.12856 0.0
C1676 C 0.1199 0.6137 0.14965 0.0
C1677 C 0.10031 0.60513 0.17869 0.0
C1678 C 0.12674 0.63371 0.20276 0.0
C1679 C 0.14877 0.63213 0.13068 0.0
N1680 N 0.10934 0.6137 0.18764 0.0
N1681 N 0.14016 0.62305 0.12576 0.0
H1682 H 0.59262 0.88312 0.46659 0.0
H1683 H 0.65569 0.86423 0.27969 0.0
H1684 H 0.61304 0.90788 0.33551 0.0
H1685 H 0.63808 0.84191 0.43437 0.0
H1686 H 0.63976 0.88012 0.29587 0.0
H1687 H 0.60893 0.86763 0.45309 0.0
C1688 C 0.60062 0.8853 0.43549 0.0
C1689 C 0.60159 0.89674 0.40234 0.0
C1690 C 0.63939 0.87177 0.32644 0.0
C1691 C 0.62012 0.8791 0.38562 0.0
C1692 C 0.64843 0.86273 0.31699 0.0
C1693 C 0.64811 0.85186 0.35588 0.0
C1694 C 0.62997 0.86983 0.37484 0.0
C1695 C 0.63863 0.85026 0.40384 0.0
C1696 C 0.60989 0.87646 0.42748 0.0
C1697 C 0.61198 0.8991 0.36154 0.0
N1698 N 0.62989 0.85915 0.41191 0.0
N1699 N 0.62086 0.89032 0.35415 0.0
H1700 H 0.33535 0.36422 0.59932 0.0
H1701 H 0.40359 0.38779 0.68658 0.0
H1702 H 0.36179 0.34257 0.71307 0.0
H1703 H 0.38076 0.40451 0.53125 0.0
H1704 H 0.38757 0.37217 0.70603 0.0
H1705 H 0.3511 0.38026 0.5827 0.0
C1706 C 0.34449 0.36289 0.6208 0.0
C1707 C 0.34736 0.35211 0.65731 0.0
C1708 C 0.38606 0.37923 0.66758 0.0
C1709 C 0.36529 0.37033 0.63926 0.0
C1710 C 0.39516 0.38813 0.65668 0.0
C1711 C 0.3934 0.39735 0.60731 0.0
C1712 C 0.3751 0.37966 0.62909 0.0
C1713 C 0.38241 0.39745 0.56949 0.0
C1714 C 0.35345 0.37201 0.61137 0.0
C1715 C 0.35923 0.35082 0.68501 0.0
N1716 N 0.37362 0.38873 0.58132 0.0
N1717 N 0.36779 0.35984 0.67539 0.0
H1718 H 0.8768 0.08082 0.85349 0.0
H1719 H 0.83262 0.12818 0.8749 0.0
H1720 H 0.90246 0.11091 0.88035 0.0
H1721 H 0.86058 0.15025 0.77588 0.0
H1722 H 0.84758 0.11124 0.88647 0.0
H1723 H 0.86012 0.09589 0.83425 0.0
C1724 C 0.87883 0.09063 0.85566 0.0
C1725 C 0.89084 0.09477 0.86905 0.0
C1726 C 0.85037 0.11969 0.86099 0.0
C1727 C 0.87208 0.11189 0.84738 0.0
C1728 C 0.84189 0.12933 0.85487 0.0
C1729 C 0.84547 0.14049 0.82426 0.0
C1730 C 0.86249 0.12135 0.83697 0.0
C1731 C 0.85754 0.14169 0.7993 0.0
C1732 C 0.86937 0.09918 0.84511 0.0
C1733 C 0.89321 0.10748 0.87073 0.0
N1734 N 0.86571 0.13226 0.80707 0.0
N1735 N 0.88389 0.11564 0.85954 0.0
H1736 H 0.13337 0.33909 0.88532 0.0
H1737 H 0.11431 0.40998 0.82982 0.0
H1738 H 0.15631 0.3654 0.77898 0.0
H1739 H 0.09059 0.38279 0.92368 0.0
H1740 H 0.12995 0.39391 0.81107 0.0
H1741 H 0.11753 0.35505 0.8998 0.0
C1742 C 0.13497 0.34826 0.86472 0.0
C1743 C 0.14603 0.35104 0.83097 0.0
C1744 C 0.12133 0.39145 0.83578 0.0
C1745 C 0.12814 0.36932 0.84742 0.0
C1746 C 0.11244 0.4006 0.84641 0.0
C1747 C 0.10123 0.39762 0.87823 0.0
C1748 C 0.11894 0.37928 0.8574 0.0
C1749 C 0.0992 0.38542 0.8994 0.0
C1750 C 0.12599 0.35736 0.87296 0.0
C1751 C 0.1478 0.36298 0.80499 0.0
N1752 N 0.10798 0.37667 0.88857 0.0
N1753 N 0.13894 0.37174 0.814 0.0
H1754 H 0.8763 0.91296 0.14728 0.0
H1755 H 0.83243 0.86529 0.12669 0.0
H1756 H 0.90209 0.88295 0.1214 0.0
H1757 H 0.8605 0.84346 0.22636 0.0
H1758 H 0.84724 0.88237 0.1156 0.0
H1759 H 0.8597 0.89784 0.16743 0.0
C1760 C 0.87838 0.90316 0.14557 0.0
C1761 C 0.8904 0.89905 0.13212 0.0
C1762 C 0.85008 0.87394 0.14117 0.0
C1763 C 0.87174 0.88188 0.15483 0.0
C1764 C 0.84169 0.86422 0.14702 0.0
C1765 C 0.84534 0.85309 0.17761 0.0
C1766 C 0.8622 0.87238 0.16542 0.0
C1767 C 0.85739 0.85199 0.20294 0.0
C1768 C 0.86896 0.89457 0.15664 0.0
C1769 C 0.89284 0.88635 0.13105 0.0
N1770 N 0.86549 0.86149 0.19539 0.0
N1771 N 0.88356 0.87816 0.1427 0.0
H1772 H 0.33932 0.62986 0.29326 0.0
H1773 H 0.40109 0.61097 0.49186 0.0
H1774 H 0.35503 0.65158 0.45649 0.0
H1775 H 0.38193 0.58658 0.35321 0.0
H1776 H 0.38426 0.62596 0.48058 0.0
H1777 H 0.35505 0.61394 0.31331 0.0
C1778 C 0.34612 0.63123 0.33326 0.0
C1779 C 0.34598 0.64196 0.37328 0.0
C1780 C 0.38369 0.6173 0.45294 0.0
C1781 C 0.36388 0.62392 0.3968 0.0
C1782 C 0.39325 0.60874 0.45971 0.0
C1783 C 0.39288 0.59762 0.42298 0.0
C1784 C 0.37375 0.61471 0.40884 0.0
C1785 C 0.38261 0.59517 0.38144 0.0
C1786 C 0.35503 0.62215 0.34499 0.0
C1787 C 0.35486 0.64335 0.42489 0.0
N1788 N 0.37348 0.6037 0.37506 0.0
N1789 N 0.36351 0.63444 0.43504 0.0
H1790 H 0.59202 0.11163 0.51481 0.0
H1791 H 0.65436 0.13058 0.70847 0.0
H1792 H 0.6125 0.08665 0.64427 0.0
H1793 H 0.63736 0.15298 0.55203 0.0
H1794 H 0.6386 0.11463 0.68952 0.0
H1795 H 0.60822 0.1272 0.5301 0.0
C1796 C 0.60002 0.10941 0.54585 0.0
C1797 C 0.60102 0.09789 0.57818 0.0
C1798 C 0.63833 0.12302 0.65918 0.0
C1799 C 0.6194 0.11563 0.59702 0.0
C1800 C 0.64726 0.1321 0.67025 0.0
C1801 C 0.64706 0.14301 0.63167 0.0
C1802 C 0.62913 0.12496 0.60947 0.0
C1803 C 0.6378 0.1446 0.58241 0.0
C1804 C 0.60921 0.11829 0.5549 0.0
C1805 C 0.6114 0.09549 0.61893 0.0
N1806 N 0.62916 0.13568 0.57278 0.0
N1807 N 0.6202 0.10431 0.62743 0.0
H1808 H 0.85737 0.34107 0.92786 0.0
H1809 H 0.88091 0.40837 0.81796 0.0
H1810 H 0.84008 0.36274 0.76928 0.0
H1811 H 0.902 0.38355 0.94541 0.0
H1812 H 0.86499 0.3924 0.80557 0.0
H1813 H 0.87301 0.35725 0.94186 0.0
C1814 C 0.8569 0.34929 0.89618 0.0
C1815 C 0.84752 0.35068 0.84747 0.0
C1816 C 0.87309 0.39045 0.83633 0.0
C1817 C 0.86526 0.36913 0.86279 0.0
C1818 C 0.88215 0.39953 0.84328 0.0
C1819 C 0.89269 0.39722 0.88286 0.0
C1820 C 0.87461 0.37902 0.86949 0.0
C1821 C 0.89389 0.38571 0.91519 0.0
C1822 C 0.86581 0.35848 0.90392 0.0
C1823 C 0.84726 0.36138 0.80716 0.0
N1824 N 0.88493 0.37702 0.90785 0.0
N1825 N 0.85602 0.37025 0.8158 0.0
H1826 H 0.38076 0.08503 0.68059 0.0
H1827 H 0.36035 0.15528 0.61511 0.0
H1828 H 0.40196 0.11097 0.56085 0.0
H1829 H 0.33861 0.12937 0.7318 0.0
H1830 H 0.37604 0.13927 0.5976 0.0
H1831 H 0.36535 0.10119 0.70215 0.0
C1832 C 0.38211 0.09415 0.65874 0.0
C1833 C 0.39254 0.09674 0.61877 0.0
C1834 C 0.36789 0.13707 0.62738 0.0
C1835 C 0.3751 0.1152 0.64309 0.0
C1836 C 0.35899 0.14619 0.63743 0.0
C1837 C 0.34829 0.14354 0.67493 0.0
C1838 C 0.36603 0.12522 0.65501 0.0
C1839 C 0.34683 0.13172 0.70298 0.0
C1840 C 0.37335 0.10335 0.67101 0.0
C1841 C 0.39393 0.10862 0.59131 0.0
N1842 N 0.35561 0.12293 0.69224 0.0
N1843 N 0.3853 0.11744 0.60407 0.0
H1844 H 0.61782 0.58094 0.34061 0.0
H1845 H 0.66121 0.62894 0.36427 0.0
H1846 H 0.59166 0.61086 0.35643 0.0
H1847 H 0.63371 0.65031 0.25694 0.0
H1848 H 0.64644 0.6118 0.37369 0.0
H1849 H 0.63444 0.59609 0.32161 0.0
C1850 C 0.61566 0.59073 0.34031 0.0
C1851 C 0.60353 0.59481 0.35063 0.0
C1852 C 0.64373 0.62013 0.34679 0.0
C1853 C 0.62222 0.61201 0.32934 0.0
C1854 C 0.65209 0.6299 0.34192 0.0
C1855 C 0.64858 0.64092 0.30966 0.0
C1856 C 0.63177 0.62154 0.31984 0.0
C1857 C 0.63671 0.64186 0.28169 0.0
C1858 C 0.62509 0.59933 0.32992 0.0
C1859 C 0.601 0.60749 0.34918 0.0
N1860 N 0.62863 0.63232 0.28829 0.0
N1861 N 0.61029 0.61569 0.33833 0.0
H1862 H 0.1309 0.83779 0.15753 0.0
H1863 H 0.08742 0.8811 0.04676 0.0
H1864 H 0.15746 0.86616 0.10872 0.0
H1865 H 0.11318 0.90772 0.12799 0.0
H1866 H 0.10308 0.86486 0.06041 0.0
H1867 H 0.11415 0.85279 0.14033 0.0
C1868 C 0.13313 0.84721 0.14298 0.0
C1869 C 0.14544 0.85086 0.13411 0.0
C1870 C 0.10526 0.87423 0.07587 0.0
C1871 C 0.12654 0.86789 0.11358 0.0
C1872 C 0.09641 0.88347 0.06737 0.0
C1873 C 0.09912 0.89564 0.08648 0.0
C1874 C 0.11687 0.87728 0.10333 0.0
C1875 C 0.11082 0.89837 0.11306 0.0
C1876 C 0.12363 0.8557 0.1325 0.0
C1877 C 0.14801 0.86309 0.11557 0.0
N1878 N 0.11935 0.88924 0.12034 0.0
N1879 N 0.13861 0.87125 0.10637 0.0
H1880 H 0.87987 0.58913 0.03446 0.0
H1881 H 0.86013 0.65188 0.22013 0.0
H1882 H 0.90166 0.60656 0.19186 0.0
H1883 H 0.83466 0.62968 0.103 0.0
H1884 H 0.8759 0.63587 0.20598 0.0
H1885 H 0.86357 0.60459 0.05287 0.0
C1886 C 0.88118 0.59626 0.07276 0.0
C1887 C 0.89201 0.59668 0.11179 0.0
C1888 C 0.86684 0.63445 0.18367 0.0
C1889 C 0.8736 0.61425 0.13323 0.0
C1890 C 0.85785 0.64355 0.19203 0.0
C1891 C 0.84614 0.64202 0.1627 0.0
C1892 C 0.86411 0.62383 0.14514 0.0
C1893 C 0.84366 0.63119 0.12584 0.0
C1894 C 0.8719 0.605 0.08353 0.0
C1895 C 0.89336 0.60597 0.16111 0.0
N1896 N 0.85261 0.6225 0.11772 0.0
N1897 N 0.88426 0.61444 0.17032 0.0
H1898 H 0.13336 0.15026 0.74446 0.0
H1899 H 0.11296 0.08884 0.94263 0.0
H1900 H 0.15705 0.13074 0.88538 0.0
H1901 H 0.09162 0.10528 0.78001 0.0
H1902 H 0.12924 0.10421 0.92309 0.0
H1903 H 0.11802 0.13373 0.75536 0.0
C1904 C 0.13537 0.1424 0.77701 0.0
C1905 C 0.1464 0.14184 0.81444 0.0
C1906 C 0.12103 0.10443 0.89143 0.0
C1907 C 0.1289 0.12307 0.82819 0.0
C1908 C 0.11175 0.09572 0.90287 0.0
C1909 C 0.10102 0.0959 0.86287 0.0
C1910 C 0.11948 0.11339 0.83993 0.0
C1911 C 0.09984 0.10487 0.81158 0.0
C1912 C 0.12661 0.13301 0.78359 0.0
C1913 C 0.14854 0.13156 0.85654 0.0
N1914 N 0.10895 0.11332 0.80169 0.0
N1915 N 0.13983 0.1226 0.8627 0.0
H1916 H 0.59235 0.38978 0.71647 0.0
H1917 H 0.65895 0.36402 0.60915 0.0
H1918 H 0.61424 0.40526 0.55319 0.0
H1919 H 0.6346 0.34525 0.74975 0.0
H1920 H 0.64366 0.38057 0.59721 0.0
H1921 H 0.6087 0.37463 0.73847 0.0
C1922 C 0.60066 0.38999 0.68554 0.0
C1923 C 0.60203 0.39868 0.63293 0.0
C1924 C 0.64168 0.37287 0.63096 0.0
C1925 C 0.62068 0.38146 0.65735 0.0
C1926 C 0.65038 0.36344 0.63769 0.0
C1927 C 0.64792 0.35326 0.67995 0.0
C1928 C 0.63047 0.37209 0.66702 0.0
C1929 C 0.63683 0.353 0.71687 0.0
C1930 C 0.60996 0.38135 0.6979 0.0
C1931 C 0.61287 0.39859 0.59383 0.0
N1932 N 0.62845 0.36226 0.70923 0.0
N1933 N 0.62181 0.39008 0.6068 0.0
H1934 H 0.4019 0.88223 0.47732 0.0
H1935 H 0.33971 0.8624 0.28512 0.0
H1936 H 0.38125 0.90681 0.34631 0.0
H1937 H 0.35639 0.84086 0.44622 0.0
H1938 H 0.35552 0.87838 0.30186 0.0
H1939 H 0.3858 0.86653 0.46314 0.0
C1940 C 0.39389 0.88433 0.44613 0.0
C1941 C 0.39281 0.89578 0.41311 0.0
C1942 C 0.35571 0.87018 0.33368 0.0
C1943 C 0.37453 0.87789 0.39553 0.0
C1944 C 0.34675 0.86108 0.32388 0.0
C1945 C 0.34684 0.85041 0.36448 0.0
C1946 C 0.36482 0.8685 0.38412 0.0
C1947 C 0.35604 0.84905 0.41432 0.0
C1948 C 0.38475 0.87538 0.43773 0.0
C1949 C 0.38241 0.89802 0.37219 0.0
N1950 N 0.36471 0.858 0.42269 0.0
N1951 N 0.37367 0.88913 0.36433 0.0
H1952 H 0.06843 0.46216 0.06906 0.0
H1953 H 0.06962 0.53196 0.93372 0.0
H1954 H 0.06964 0.47212 0.85495 0.0
H1955 H 0.06863 0.52205 0.14794 0.0
H1956 H 0.07063 0.51007 0.9042 0.0
H1957 H 0.06949 0.48402 0.09904 0.0
C1958 C 0.06897 0.46893 0.02828 0.0
C1959 C 0.06888 0.46528 0.95929 0.0
C1960 C 0.07024 0.51268 0.95768 0.0
C1961 C 0.07007 0.49037 0.99345 0.0
C1962 C 0.06966 0.52519 0.97464 0.0
C1963 C 0.06897 0.52886 0.04348 0.0
C1964 C 0.0701 0.50375 0.00984 0.0
C1965 C 0.06911 0.51965 0.09419 0.0
C1966 C 0.06957 0.48143 0.04551 0.0
C1967 C 0.06963 0.47449 0.90878 0.0
N1968 N 0.0696 0.50752 0.07632 0.0
N1969 N 0.07015 0.48661 0.92689 0.0
H1970 H 0.72144 0.81839 0.39159 0.0
H1971 H 0.77399 0.81771 0.10273 0.0
H1972 H 0.71346 0.81717 0.17499 0.0
H1973 H 0.78118 0.8165 0.32019 0.0
H1974 H 0.75179 0.81866 0.12714 0.0
H1975 H 0.74345 0.8189 0.36527 0.0
C1976 C 0.72431 0.81826 0.33845 0.0
C1977 C 0.71558 0.81768 0.28545 0.0
C1978 C 0.75826 0.81821 0.1694 0.0
C1979 C 0.74082 0.81824 0.2549 0.0
C1980 C 0.77092 0.81768 0.15552 0.0
C1981 C 0.77947 0.81697 0.20945 0.0
C1982 C 0.75415 0.81806 0.23765 0.0
C1983 C 0.77496 0.81697 0.27687 0.0
C1984 C 0.73689 0.81854 0.32343 0.0
C1985 C 0.71986 0.81758 0.21753 0.0
N1986 N 0.76263 0.81749 0.28896 0.0
N1987 N 0.73219 0.81782 0.2042 0.0
H1988 H 0.42453 0.53207 0.56957 0.0
H1989 H 0.4253 0.46344 0.41826 0.0
H1990 H 0.42569 0.52425 0.35281 0.0
H1991 H 0.4231 0.4721 0.6338 0.0
H1992 H 0.42435 0.48553 0.39215 0.0
H1993 H 0.42291 0.51005 0.5927 0.0
C1994 C 0.42441 0.52572 0.52666 0.0
C1995 C 0.42534 0.53004 0.45905 0.0
C1996 C 0.42401 0.48258 0.4451 0.0
C1997 C 0.42351 0.50468 0.48546 0.0
C1998 C 0.42455 0.46997 0.46012 0.0
C1999 C 0.42436 0.46589 0.52843 0.0
C2000 C 0.42331 0.49119 0.49876 0.0
C2001 C 0.42334 0.47478 0.58043 0.0
C2002 C 0.42347 0.51312 0.54 0.0
C2003 C 0.42504 0.52134 0.40571 0.0
N2004 N 0.42291 0.487 0.56449 0.0
N2005 N 0.42422 0.50905 0.42009 0.0
H2006 H 0.77321 0.17462 0.89507 0.0
H2007 H 0.7212 0.17371 0.60342 0.0
H2008 H 0.78079 0.17497 0.67793 0.0
H2009 H 0.71285 0.1754 0.8195 0.0
H2010 H 0.74313 0.17267 0.631 0.0
H2011 H 0.75106 0.17346 0.86956 0.0
C2012 C 0.77024 0.1744 0.84213 0.0
C2013 C 0.77888 0.17497 0.7886 0.0
C2014 C 0.73651 0.17322 0.67245 0.0
C2015 C 0.75361 0.17364 0.75914 0.0
C2016 C 0.72396 0.17382 0.65671 0.0
C2017 C 0.71515 0.17472 0.70918 0.0
C2018 C 0.74031 0.17356 0.74118 0.0
C2019 C 0.71931 0.17476 0.77733 0.0
C2020 C 0.7576 0.17375 0.82762 0.0
C2021 C 0.77449 0.17463 0.72096 0.0
N2022 N 0.7316 0.17424 0.79137 0.0
N2023 N 0.76219 0.17403 0.70825 0.0
H2024 H 0.92457 0.47222 0.83836 0.0
H2025 H 0.92309 0.52267 0.13821 0.0
H2026 H 0.92397 0.4633 0.05395 0.0
H2027 H 0.92515 0.53202 0.92344 0.0
H2028 H 0.92198 0.50084 0.1074 0.0
H2029 H 0.92337 0.49419 0.8677 0.0
C2030 C 0.92413 0.47486 0.89178 0.0
C2031 C 0.92445 0.4659 0.94374 0.0
C2032 C 0.92263 0.50767 0.06698 0.0
C2033 C 0.9231 0.49099 0.97762 0.0
C2034 C 0.92326 0.52015 0.08456 0.0
C2035 C 0.92429 0.5292 0.03338 0.0
C2036 C 0.92305 0.50419 -0.00227 0.0
C2037 C 0.92442 0.52536 0.96467 0.0
C2038 C 0.92346 0.4874 0.9085 0.0
C2039 C 0.92382 0.46987 0.01211 0.0
N2040 N 0.92386 0.51314 0.94888 0.0
N2041 N 0.92322 0.48211 0.02699 0.0
H2042 H 0.21282 0.17406 0.67049 0.0
H2043 H 0.28048 0.17484 0.83372 0.0
H2044 H 0.21966 0.17425 0.88836 0.0
H2045 H 0.27337 0.17362 0.61621 0.0
H2046 H 0.25831 0.17358 0.855 0.0
H2047 H 0.23497 0.17283 0.65021 0.0
C2048 C 0.21897 0.1738 0.7142 0.0
C2049 C 0.21435 0.17435 0.78133 0.0
C2050 C 0.2616 0.17353 0.80263 0.0
C2051 C 0.23982 0.17296 0.75821 0.0
C2052 C 0.27427 0.17426 0.79035 0.0
C2053 C 0.27881 0.17442 0.72296 0.0
C2054 C 0.25337 0.17299 0.7472 0.0
C2055 C 0.2703 0.17357 0.66896 0.0
C2056 C 0.23165 0.17309 0.70248 0.0
C2057 C 0.2228 0.17389 0.83578 0.0
N2058 N 0.25799 0.17296 0.68228 0.0
N2059 N 0.23515 0.1733 0.82299 0.0
H2060 H 0.57012 0.47272 0.64165 0.0
H2061 H 0.57029 0.52144 0.33286 0.0
H2062 H 0.57011 0.46228 0.42819 0.0
H2063 H 0.57031 0.53176 0.5465 0.0
H2064 H 0.57127 0.49969 0.36666 0.0
H2065 H 0.57124 0.49443 0.60759 0.0
C2066 C 0.5704 0.47498 0.58764 0.0
C2067 C 0.56995 0.46566 0.53773 0.0
C2068 C 0.5711 0.50672 0.4061 0.0
C2069 C 0.57121 0.4905 0.49838 0.0
C2070 C 0.57055 0.51915 0.38683 0.0
C2071 C 0.57015 0.52845 0.43688 0.0
C2072 C 0.57124 0.50358 0.4759 0.0
C2073 C 0.57054 0.52492 0.50606 0.0
C2074 C 0.57104 0.48738 0.56821 0.0
C2075 C 0.57039 0.46915 0.46849 0.0
N2076 N 0.57102 0.51277 0.52348 0.0
N2077 N 0.57094 0.48129 0.4509 0.0
H2078 H 0.28124 0.81964 0.17762 0.0
H2079 H 0.21191 0.82033 0.31926 0.0
H2080 H 0.27193 0.8201 0.39268 0.0
H2081 H 0.22121 0.82099 0.10419 0.0
H2082 H 0.23387 0.82128 0.34709 0.0
H2083 H 0.25932 0.82115 0.14978 0.0
C2084 C 0.2746 0.82011 0.21905 0.0
C2085 C 0.27845 0.81966 0.28765 0.0
C2086 C 0.23111 0.82128 0.29381 0.0
C2087 C 0.2533 0.82137 0.256 0.0
C2088 C 0.21856 0.82074 0.27782 0.0
C2089 C 0.2147 0.8205 0.20922 0.0
C2090 C 0.23988 0.82155 0.24087 0.0
C2091 C 0.22375 0.8211 0.15779 0.0
C2092 C 0.26207 0.82098 0.20306 0.0
C2093 C 0.26941 0.82036 0.33908 0.0
N2094 N 0.23592 0.82153 0.17469 0.0
N2095 N 0.25725 0.82112 0.32217 0.0
H2096 H 0.56905 0.9632 0.56938 0.0
H2097 H 0.5684 0.03132 0.41034 0.0
H2098 H 0.56861 0.97067 0.3521 0.0
H2099 H 0.56898 0.02378 0.62752 0.0
H2100 H 0.56945 0.00917 0.38798 0.0
H2101 H 0.57001 0.98536 0.59139 0.0
C2102 C 0.56919 0.96949 0.5262 0.0
C2103 C 0.56868 0.96505 0.45871 0.0
C2104 C 0.5694 0.01235 0.44052 0.0
C2105 C 0.56976 0.99048 0.48375 0.0
C2106 C 0.56879 0.02502 0.4534 0.0
C2107 C 0.56853 0.02943 0.52099 0.0
C2108 C 0.56973 0.00401 0.49556 0.0
C2109 C 0.56911 0.02081 0.57461 0.0
C2110 C 0.56974 0.98216 0.53888 0.0
C2111 C 0.56895 0.97366 0.40494 0.0
N2112 N 0.56963 0.0085 0.56071 0.0
N2113 N 0.56942 0.98598 0.41866 0.0
H2114 H 0.21356 0.32065 0.67744 0.0
H2115 H 0.2817 0.31862 0.83492 0.0
H2116 H 0.22082 0.31901 0.8947 0.0
H2117 H 0.27378 0.32116 0.6186 0.0
H2118 H 0.25955 0.31974 0.85878 0.0
H2119 H 0.23566 0.32185 0.65608 0.0
C2120 C 0.2198 0.32058 0.7208 0.0
C2121 C 0.21531 0.31964 0.78804 0.0
C2122 C 0.26267 0.32011 0.80615 0.0
C2123 C 0.24074 0.32099 0.7637 0.0
C2124 C 0.27532 0.31947 0.79242 0.0
C2125 C 0.27961 0.31972 0.72456 0.0
C2126 C 0.25426 0.32099 0.75166 0.0
C2127 C 0.27091 0.32087 0.67168 0.0
C2128 C 0.23245 0.32128 0.70848 0.0
C2129 C 0.22387 0.31968 0.84205 0.0
N2130 N 0.25866 0.32141 0.68637 0.0
N2131 N 0.2362 0.32027 0.82867 0.0
H2132 H 0.92429 0.97211 0.15184 0.0
H2133 H 0.92394 0.02154 0.84649 0.0
H2134 H 0.92403 0.96223 0.93756 0.0
H2135 H 0.92473 0.03144 0.0607 0.0
H2136 H 0.92296 -0.00025 0.87901 0.0
H2137 H 0.92345 0.99392 0.11951 0.0
C2138 C 0.92401 0.97451 0.09802 0.0
C2139 C 0.92429 0.96532 0.04736 0.0
C2140 C 0.92331 0.00669 0.91888 0.0
C2141 C 0.92334 0.99027 0.01002 0.0
C2142 C 0.92387 0.01915 0.90034 0.0
C2143 C 0.92448 0.02835 0.95091 0.0
C2144 C 0.92338 0.00341 0.98847 0.0
C2145 C 0.92432 0.02468 0.0199 0.0
C2146 C 0.92353 0.98698 0.07959 0.0
C2147 C 0.92388 0.969 0.97842 0.0
N2148 N 0.92383 0.0125 0.03661 0.0
N2149 N 0.92346 0.98118 0.96182 0.0
H2150 H 0.28116 0.67418 0.17645 0.0
H2151 H 0.21194 0.67266 0.31833 0.0
H2152 H 0.27151 0.67181 0.39067 0.0
H2153 H 0.22068 0.67478 0.10286 0.0
H2154 H 0.23382 0.67096 0.34412 0.0
H2155 H 0.25922 0.67307 0.14719 0.0
C2156 C 0.27445 0.67336 0.21736 0.0
C2157 C 0.27819 0.67318 0.28624 0.0
C2158 C 0.231 0.67174 0.29112 0.0
C2159 C 0.25308 0.67192 0.25293 0.0
C2160 C 0.21847 0.67274 0.27625 0.0
C2161 C 0.21445 0.67398 0.20825 0.0
C2162 C 0.23966 0.67206 0.23775 0.0
C2163 C 0.22337 0.67388 0.15601 0.0
C2164 C 0.26192 0.67272 0.20053 0.0
C2165 C 0.26907 0.67206 0.33694 0.0
N2166 N 0.23559 0.67303 0.17191 0.0
N2167 N 0.25696 0.67153 0.31924 0.0
H2168 H 0.42492 0.02256 0.65194 0.0
H2169 H 0.42467 0.97013 0.3626 0.0
H2170 H 0.42455 0.03038 0.43504 0.0
H2171 H 0.42553 0.96253 0.5797 0.0
H2172 H 0.42357 0.99224 0.38794 0.0
H2173 H 0.42408 0.00049 0.62624 0.0
C2174 C 0.42462 0.01965 0.59892 0.0
C2175 C 0.42488 0.02835 0.54559 0.0
C2176 C 0.42396 0.98572 0.42999 0.0
C2177 C 0.42393 0.00307 0.51579 0.0
C2178 C 0.42458 0.97309 0.41556 0.0
C2179 C 0.42526 0.96445 0.46907 0.0
C2180 C 0.42402 0.98974 0.4984 0.0
C2181 C 0.42508 0.96884 0.53673 0.0
C2182 C 0.42414 0.00703 0.58426 0.0
C2183 C 0.42442 0.02401 0.47785 0.0
N2184 N 0.42452 0.98117 0.5494 0.0
N2185 N 0.42402 0.01168 0.46491 0.0
H2186 H 0.71941 0.67673 0.39249 0.0
H2187 H 0.77337 0.67558 0.11195 0.0
H2188 H 0.71329 0.6775 0.17397 0.0
H2189 H 0.78026 0.67771 0.32948 0.0
H2190 H 0.75125 0.67503 0.13493 0.0
H2191 H 0.74171 0.67589 0.37154 0.0
C2192 C 0.72273 0.67669 0.34019 0.0
C2193 C 0.71445 0.67724 0.28493 0.0
C2194 C 0.75759 0.6756 0.1777 0.0
C2195 C 0.73991 0.67626 0.2607 0.0
C2196 C 0.77024 0.6759 0.16461 0.0
C2197 C 0.7787 0.67674 0.21884 0.0
C2198 C 0.75332 0.67613 0.24554 0.0
C2199 C 0.77408 0.6771 0.28604 0.0
C2200 C 0.73546 0.67622 0.32828 0.0
C2201 C 0.7193 0.67715 0.21824 0.0
N2202 N 0.76169 0.67681 0.29749 0.0
N2203 N 0.73169 0.67669 0.20807 0.0
H2204 H 0.06799 0.96223 0.91693 0.0
H2205 H 0.0682 0.03166 0.05735 0.0
H2206 H 0.0682 0.9714 0.13216 0.0
H2207 H 0.06868 0.02208 0.84268 0.0
H2208 H 0.06912 0.0097 0.08613 0.0
H2209 H 0.06917 0.98415 0.88938 0.0
C2210 C 0.06832 0.96885 0.95852 0.0
C2211 C 0.06792 0.96495 0.02706 0.0
C2212 C 0.06908 0.01241 0.03276 0.0
C2213 C 0.06925 0.99015 0.99562 0.0
C2214 C 0.06855 0.02495 0.01621 0.0
C2215 C 0.06829 0.02873 0.94741 0.0
C2216 C 0.06933 0.00357 0.98018 0.0
C2217 C 0.06881 0.01961 0.8964 0.0
C2218 C 0.069 0.98139 0.94266 0.0
C2219 C 0.06845 0.97398 0.07862 0.0
N2220 N 0.06925 0.00746 0.91384 0.0
N2221 N 0.06903 0.98617 0.06182 0.0
H2222 H 0.71343 0.32066 0.8238 0.0
H2223 H 0.78147 0.31721 0.66552 0.0
H2224 H 0.72042 0.31828 0.60646 0.0
H2225 H 0.77352 0.32058 0.88145 0.0
H2226 H 0.75931 0.3185 0.64143 0.0
H2227 H 0.73555 0.3216 0.84427 0.0
C2228 C 0.71962 0.32036 0.78021 0.0
C2229 C 0.71504 0.3193 0.71325 0.0
C2230 C 0.76244 0.31901 0.69401 0.0
C2231 C 0.74051 0.32034 0.73657 0.0
C2232 C 0.77509 0.31828 0.70785 0.0
C2233 C 0.77937 0.31872 0.7757 0.0
C2234 C 0.75404 0.32018 0.74839 0.0
C2235 C 0.77067 0.32014 0.8284 0.0
C2236 C 0.73228 0.32092 0.79201 0.0
C2237 C 0.72354 0.31906 0.65892 0.0
N2238 N 0.75844 0.32077 0.8136 0.0
N2239 N 0.73589 0.3195 0.67181 0.0
H2240 H 0.02791 0.58087 0.99161 0.0
H2241 H 0.96553 0.57063 0.20208 0.0
H2242 H 0.02679 0.56983 0.20412 0.0
H2243 H 0.96675 0.57991 0.98702 0.0
H2244 H 0.98789 0.57333 0.20813 0.0
H2245 H 0.00554 0.58362 0.99372 0.0
C2246 C 0.02299 0.57913 0.03895 0.0
C2247 C 0.02923 0.57492 0.0975 0.0
C2248 C 0.98325 0.57489 0.15977 0.0
C2249 C 0.00358 0.578 0.10007 0.0
C2250 C 0.97047 0.57335 0.15622 0.0
C2251 C 0.96426 0.57486 0.09365 0.0
C2252 C 0.98989 0.57792 0.10031 0.0
C2253 C 0.97115 0.57851 0.03618 0.0
C2254 C 0.0102 0.5807 0.04007 0.0
C2255 C 0.02236 0.57295 0.15751 0.0
N2256 N 0.98361 0.57979 0.04076 0.0
N2257 N 0.00988 0.57438 0.15702 0.0
H2258 H 0.66002 0.71699 0.22921 0.0
H2259 H 0.67238 0.77788 0.44816 0.0
H2260 H 0.67173 0.71661 0.44056 0.0
H2261 H 0.66226 0.77787 0.23421 0.0
H2262 H 0.66869 0.75561 0.45215 0.0
H2263 H 0.65721 0.73932 0.23641 0.0
C2264 C 0.66187 0.72158 0.27743 0.0
C2265 C 0.66633 0.71494 0.33405 0.0
C2266 C 0.66715 0.76051 0.40455 0.0
C2267 C 0.66322 0.74055 0.34242 0.0
C2268 C 0.66925 0.77323 0.40219 0.0
C2269 C 0.66784 0.77973 0.3404 0.0
C2270 C 0.66365 0.75423 0.3447 0.0
C2271 C 0.66365 0.77323 0.28273 0.0
C2272 C 0.66026 0.73434 0.28149 0.0
C2273 C 0.66839 0.72136 0.39544 0.0
N2274 N 0.66183 0.76082 0.28612 0.0
N2275 N 0.66698 0.73385 0.39771 0.0
H2276 H 0.46603 0.42443 0.69449 0.0
H2277 H 0.52865 0.41436 0.48582 0.0
H2278 H 0.46742 0.41589 0.47859 0.0
H2279 H 0.52725 0.42501 0.69884 0.0
H2280 H 0.50624 0.41186 0.48653 0.0
H2281 H 0.48837 0.4217 0.70089 0.0
C2282 C 0.471 0.42188 0.64849 0.0
C2283 C 0.46484 0.42057 0.58564 0.0
C2284 C 0.51085 0.41464 0.53328 0.0
C2285 C 0.49046 0.41746 0.59271 0.0
C2286 C 0.52366 0.41606 0.53298 0.0
C2287 C 0.52984 0.42008 0.59212 0.0
C2288 C 0.50415 0.41729 0.59306 0.0
C2289 C 0.52287 0.42203 0.65181 0.0
C2290 C 0.48378 0.42032 0.65224 0.0
C2291 C 0.47179 0.41713 0.52798 0.0
N2292 N 0.51039 0.42073 0.65055 0.0
N2293 N 0.48424 0.41581 0.53279 0.0
H2294 H 0.83272 0.27721 0.73695 0.0
H2295 H 0.82014 0.21562 0.9505 0.0
H2296 H 0.81935 0.27709 0.94534 0.0
H2297 H 0.83214 0.21631 0.73965 0.0
H2298 H 0.82297 0.23803 0.95612 0.0
H2299 H 0.83573 0.25492 0.7438 0.0
C2300 C 0.83051 0.27252 0.78441 0.0
C2301 C 0.82557 0.27901 0.84027 0.0
C2302 C 0.82512 0.23324 0.9089 0.0
C2303 C 0.82893 0.25342 0.84829 0.0
C2304 C 0.82353 0.22044 0.90569 0.0
C2305 C 0.82572 0.21409 0.84417 0.0
C2306 C 0.8289 0.23972 0.85019 0.0
C2307 C 0.83016 0.22083 0.78786 0.0
C2308 C 0.83224 0.25977 0.78829 0.0
C2309 C 0.82305 0.27244 0.90073 0.0
N2310 N 0.83148 0.23328 0.79204 0.0
N2311 N 0.82461 0.25997 0.90285 0.0
H2312 H 0.96609 0.42422 0.77777 0.0
H2313 H 0.02748 0.41273 0.99469 0.0
H2314 H 0.96649 0.41436 0.99205 0.0
H2315 H 0.02741 0.42531 0.78474 0.0
H2316 H 0.00516 0.40999 0.98863 0.0
H2317 H 0.98845 0.4214 0.77382 0.0
C2318 C 0.97083 0.42134 0.82383 0.0
C2319 C 0.96439 0.41973 0.88561 0.0
C2320 C 0.01003 0.41325 0.94366 0.0
C2321 C 0.99002 0.41651 0.88142 0.0
C2322 C 0.0228 0.41481 0.94704 0.0
C2323 C 0.02933 0.41945 0.89044 0.0
C2324 C 0.00371 0.41639 0.88337 0.0
C2325 C 0.02275 0.42184 0.82988 0.0
C2326 C 0.98362 0.41974 0.82152 0.0
C2327 C 0.97106 0.41588 0.94346 0.0
N2328 N 0.01028 0.42041 0.82819 0.0
N2329 N 0.98352 0.41452 0.94009 0.0
H2330 H 0.82201 0.77769 0.04762 0.0
H2331 H 0.83358 0.71604 0.26147 0.0
H2332 H 0.8336 0.77688 0.25915 0.0
H2333 H 0.82074 0.71637 0.0521 0.0
H2334 H 0.83714 0.73825 0.25449 0.0
H2335 H 0.82501 0.75532 0.04148 0.0
C2336 C 0.82536 0.77286 0.09247 0.0
C2337 C 0.82735 0.77915 0.15435 0.0
C2338 C 0.83367 0.73346 0.20979 0.0
C2339 C 0.83072 0.75355 0.14777 0.0
C2340 C 0.83162 0.72076 0.21374 0.0
C2341 C 0.82664 0.71436 0.15766 0.0
C2342 C 0.83062 0.73985 0.14952 0.0
C2343 C 0.82446 0.72095 0.09687 0.0
C2344 C 0.82705 0.76007 0.08896 0.0
C2345 C 0.83175 0.77239 0.21067 0.0
N2346 N 0.8263 0.73338 0.09472 0.0
N2347 N 0.83315 0.75995 0.20623 0.0
H2348 H 0.46866 0.58171 0.50676 0.0
H2349 H 0.52822 0.56966 0.27574 0.0
H2350 H 0.46698 0.57046 0.29483 0.0
H2351 H 0.52961 0.58086 0.48787 0.0
H2352 H 0.50585 0.57266 0.27692 0.0
H2353 H 0.49097 0.58419 0.49592 0.0
C2354 C 0.47296 0.57987 0.45772 0.0
C2355 C 0.46594 0.57571 0.40186 0.0
C2356 C 0.51107 0.57458 0.32298 0.0
C2357 C 0.49153 0.57846 0.38923 0.0
C2358 C 0.52386 0.57288 0.32236 0.0
C2359 C 0.5308 0.57482 0.38213 0.0
C2360 C 0.50518 0.57822 0.38383 0.0
C2361 C 0.52464 0.57909 0.44081 0.0
C2362 C 0.48571 0.5813 0.45156 0.0
C2363 C 0.47202 0.5736 0.33941 0.0
N2364 N 0.51217 0.58052 0.44036 0.0
N2365 N 0.48448 0.57487 0.335 0.0
H2366 H 0.67354 0.21676 0.54875 0.0
H2367 H 0.66271 0.27771 0.77055 0.0
H2368 H 0.66398 0.21664 0.76349 0.0
H2369 H 0.67321 0.27812 0.5572 0.0
H2370 H 0.66014 0.25534 0.7641 0.0
H2371 H 0.67053 0.23914 0.54638 0.0
C2372 C 0.6707 0.22141 0.59528 0.0
C2373 C 0.6692 0.21482 0.65671 0.0
C2374 C 0.66289 0.26033 0.71848 0.0
C2375 C 0.66577 0.24045 0.65428 0.0
C2376 C 0.66436 0.27312 0.7221 0.0
C2377 C 0.66837 0.27979 0.66456 0.0
C2378 C 0.66551 0.25414 0.65701 0.0
C2379 C 0.67021 0.27335 0.603 0.0
C2380 C 0.66898 0.2342 0.59384 0.0
C2381 C 0.66539 0.22134 0.71516 0.0
N2382 N 0.66891 0.26086 0.60107 0.0
N2383 N 0.66393 0.23381 0.71264 0.0
H2384 H 0.3198 0.27795 0.55424 0.0
H2385 H 0.33136 0.21671 0.77303 0.0
H2386 H 0.33135 0.27768 0.76593 0.0
H2387 H 0.31906 0.21644 0.56269 0.0
H2388 H 0.33424 0.23902 0.76564 0.0
H2389 H 0.32232 0.25549 0.55078 0.0
C2390 C 0.32301 0.2732 0.59975 0.0
C2391 C 0.32518 0.2797 0.6608 0.0
C2392 C 0.33102 0.23408 0.72085 0.0
C2393 C 0.32803 0.25401 0.65719 0.0
C2394 C 0.32936 0.22132 0.72505 0.0
C2395 C 0.32478 0.21471 0.66869 0.0
C2396 C 0.328 0.24031 0.66002 0.0
C2397 C 0.3225 0.22118 0.60761 0.0
C2398 C 0.32442 0.26037 0.59774 0.0
C2399 C 0.3294 0.27306 0.71799 0.0
N2400 N 0.324 0.23365 0.60514 0.0
N2401 N 0.33056 0.26057 0.71494 0.0
H2402 H 0.17538 0.7164 0.04164 0.0
H2403 H 0.16151 0.77879 0.24572 0.0
H2404 H 0.16285 0.71791 0.25142 0.0
H2405 H 0.17629 0.77802 0.04032 0.0
H2406 H 0.1589 0.75645 0.24137 0.0
H2407 H 0.1728 0.73881 0.03339 0.0
C2408 C 0.17194 0.7214 0.0857 0.0
C2409 C 0.16948 0.71527 0.14762 0.0
C2410 C 0.16262 0.76116 0.19697 0.0
C2411 C 0.16656 0.74091 0.13854 0.0
C2412 C 0.16412 0.77394 0.19939 0.0
C2413 C 0.16932 0.78028 0.14368 0.0
C2414 C 0.16642 0.75461 0.1386 0.0
C2415 C 0.17236 0.7735 0.08473 0.0
C2416 C 0.1705 0.73421 0.08097 0.0
C2417 C 0.16502 0.72224 0.20293 0.0
N2418 N 0.17101 0.76099 0.08403 0.0
N2419 N 0.16381 0.73469 0.19722 0.0
H2420 H 0.16228 0.27817 0.73195 0.0
H2421 H 0.17327 0.21589 0.94237 0.0
H2422 H 0.17445 0.27741 0.94249 0.0
H2423 H 0.1629 0.21723 0.72898 0.0
H2424 H 0.17065 0.23831 0.94907 0.0
H2425 H 0.15933 0.25585 0.73599 0.0
C2426 C 0.16424 0.27333 0.77929 0.0
C2427 C 0.16881 0.27966 0.83667 0.0
C2428 C 0.16883 0.23367 0.901 0.0
C2429 C 0.16552 0.25403 0.84145 0.0
C2430 C 0.17029 0.22086 0.89714 0.0
C2431 C 0.16847 0.21467 0.83475 0.0
C2432 C 0.16553 0.24033 0.84205 0.0
C2433 C 0.16457 0.2216 0.77794 0.0
C2434 C 0.16254 0.26056 0.78156 0.0
C2435 C 0.17102 0.2729 0.89685 0.0
N2436 N 0.16335 0.23406 0.78283 0.0
N2437 N 0.16949 0.26041 0.89742 0.0
H2438 H 0.32973 0.7157 0.24196 0.0
H2439 H 0.31809 0.77713 0.4593 0.0
H2440 H 0.31757 0.71567 0.45265 0.0
H2441 H 0.3295 0.77682 0.24735 0.0
H2442 H 0.32053 0.75466 0.4628 0.0
H2443 H 0.33236 0.73807 0.24807 0.0
C2444 C 0.32771 0.72037 0.28971 0.0
C2445 C 0.32325 0.7138 0.34657 0.0
C2446 C 0.32261 0.75953 0.41574 0.0
C2447 C 0.32619 0.73946 0.35377 0.0
C2448 C 0.32123 0.77237 0.4137 0.0
C2449 C 0.3234 0.77886 0.35261 0.0
C2450 C 0.32617 0.75316 0.35626 0.0
C2451 C 0.32755 0.7722 0.29533 0.0
C2452 C 0.32921 0.73316 0.29316 0.0
C2453 C 0.3209 0.72036 0.40727 0.0
N2454 N 0.32868 0.75971 0.2984 0.0
N2455 N 0.32228 0.73285 0.40904 0.0
H2456 H 0.52655 0.07993 0.4671 0.0
H2457 H 0.46663 0.07232 0.70075 0.0
H2458 H 0.52773 0.0731 0.68485 0.0
H2459 H 0.46546 0.07918 0.483 0.0
H2460 H 0.48895 0.07545 0.69872 0.0
H2461 H 0.50421 0.0826 0.47483 0.0
C2462 C 0.52215 0.07911 0.51671 0.0
C2463 C 0.52904 0.07606 0.57526 0.0
C2464 C 0.48379 0.0764 0.6515 0.0
C2465 C 0.50341 0.07904 0.58433 0.0
C2466 C 0.47102 0.0746 0.65261 0.0
C2467 C 0.46415 0.07529 0.59179 0.0
C2468 C 0.48975 0.07883 0.58906 0.0
C2469 C 0.47037 0.07841 0.53107 0.0
C2470 C 0.50937 0.08063 0.52105 0.0
C2471 C 0.52281 0.07525 0.63819 0.0
N2472 N 0.48283 0.07993 0.53114 0.0
N2473 N 0.51034 0.07659 0.64091 0.0
H2474 H 0.02719 0.9226 0.1995 0.0
H2475 H 0.96427 0.91234 0.99455 0.0
H2476 H 0.02529 0.91406 0.98381 0.0
H2477 H 0.96595 0.92391 0.20602 0.0
H2478 H 0.98662 0.90949 0.99519 0.0
H2479 H 0.00489 0.91972 0.20779 0.0
C2480 C 0.02214 0.92001 0.15399 0.0
C2481 C 0.02814 0.91879 0.09063 0.0
C2482 C 0.98209 0.91254 0.04166 0.0
C2483 C 0.00256 0.91549 0.09979 0.0
C2484 C 0.96931 0.91416 0.04139 0.0
C2485 C 0.96323 0.91857 0.10002 0.0
C2486 C 0.98887 0.91538 0.10087 0.0
C2487 C 0.97026 0.92063 0.15938 0.0
C2488 C 0.00938 0.91837 0.15879 0.0
C2489 C 0.02106 0.91527 0.0336 0.0
N2490 N 0.98272 0.91915 0.15804 0.0
N2491 N 0.00863 0.91387 0.03942 0.0
H2492 H 0.52765 0.92118 0.29943 0.0
H2493 H 0.46658 0.91264 0.52309 0.0
H2494 H 0.5276 0.91379 0.51675 0.0
H2495 H 0.46642 0.92164 0.30765 0.0
H2496 H 0.48891 0.90976 0.5175 0.0
H2497 H 0.5053 0.91814 0.29752 0.0
C2498 C 0.52299 0.9188 0.34663 0.0
C2499 C 0.52952 0.91796 0.40856 0.0
C2500 C 0.48397 0.91225 0.47127 0.0
C2501 C 0.50391 0.9145 0.40672 0.0
C2502 C 0.4712 0.9139 0.47439 0.0
C2503 C 0.46461 0.9176 0.41596 0.0
C2504 C 0.49022 0.91438 0.40937 0.0
C2505 C 0.47111 0.91894 0.35418 0.0
C2506 C 0.51021 0.91707 0.34548 0.0
C2507 C 0.52296 0.9147 0.46793 0.0
N2508 N 0.48358 0.91748 0.35269 0.0
N2509 N 0.5105 0.91323 0.46565 0.0
H2510 H 0.02693 0.07052 0.78144 0.0
H2511 H 0.96543 0.08067 -0.00031 0.0
H2512 H 0.0266 0.07976 0.99658 0.0
H2513 H 0.96573 0.06969 0.78707 0.0
H2514 H 0.98778 0.0835 0.99477 0.0
H2515 H 0.00456 0.07329 0.77814 0.0
C2516 C 0.02218 0.07325 0.82788 0.0
C2517 C 0.02864 0.07472 0.88968 0.0
C2518 C 0.98294 0.08058 0.94901 0.0
C2519 C 0.00301 0.07786 0.8862 0.0
C2520 C 0.97016 0.07897 0.95174 0.0
C2521 C 0.9637 0.07474 0.89398 0.0
C2522 C 0.98932 0.07792 0.88818 0.0
C2523 C 0.97033 0.07282 0.83311 0.0
C2524 C 0.0094 0.07483 0.82592 0.0
C2525 C 0.022 0.07839 0.94797 0.0
N2526 N 0.9828 0.07429 0.83203 0.0
N2527 N 0.00952 0.0797 0.94495 0.0
loop_
_geom_bond_atom_site_label_1
_geom_bond_atom_site_label_2
_geom_bond_distance
_geom_bond_site_symmetry_2
_ccdc_geom_bond_type
Co0 O3 1.970 . S
Co0 N17 1.989 . S
Co0 O25 1.967 . S
Co0 O32 1.920 1_554 S
Co1 O4 1.966 . S
Co1 N10 2.022 . S
Co1 N18 1.993 . S
Co1 O26 1.941 . S
C2 O3 1.258 . S
C2 O4 1.263 . S
O3 Co0 1.970 . S
O3 C2 1.258 . S
O4 Co1 1.966 . S
O4 C2 1.263 . S
C5 O6 1.235 . S
C5 O32 1.289 . S
O6 C5 1.235 . S
C7 C9 1.400 . S
C7 N10 1.351 . S
C7 C12 1.501 . S
C8 C9 1.387 . S
C8 N11 1.341 . S
C9 C7 1.400 . S
C9 C8 1.387 . S
N10 Co1 2.022 . S
N10 C7 1.351 . S
N10 N11 1.365 . S
N11 C8 1.341 . S
N11 N10 1.365 . S
N11 H31 0.862 . S
C12 C7 1.501 . S
C12 H13 0.961 . S
C12 H14 0.961 . S
C12 H15 0.960 . S
H13 C12 0.961 . S
H14 C12 0.961 . S
H15 C12 0.960 . S
C16 N17 1.342 . S
C16 C20 1.401 . S
C16 C21 1.499 1_554 S
N17 Co0 1.989 . S
N17 C16 1.342 . S
N17 N18 1.388 . S
N18 Co1 1.993 . S
N18 N17 1.388 . S
N18 C19 1.346 . S
C19 N18 1.346 . S
C19 C20 1.396 . S
C19 C29 1.510 . S
C20 C16 1.401 . S
C20 C19 1.396 . S
C21 C16 1.499 1_556 S
C21 H22 0.959 . S
C21 H23 0.960 . S
C21 H24 0.961 . S
H22 C21 0.959 . S
H23 C21 0.960 . S
H24 C21 0.961 . S
O25 Co0 1.967 . S
O25 C33 1.258 . S
O26 Co1 1.941 . S
O26 C33 1.266 . S
H27 C29 0.959 . S
H28 C29 0.961 . S
C29 C19 1.510 . S
C29 H27 0.959 . S
C29 H28 0.961 . S
C29 H30 0.960 . S
H30 C29 0.960 . S
H31 N11 0.862 . S
O32 Co0 1.920 1_556 S
O32 C5 1.289 . S
C33 O25 1.258 . S
C33 O26 1.266 . S
Co34 O37 1.970 . S
Co34 N51 1.989 . S
Co34 O59 1.967 . S
Co34 O66 1.920 . S
Co35 O38 1.966 . S
Co35 N44 2.022 . S
Co35 N52 1.993 . S
Co35 O60 1.941 . S
C36 O37 1.258 . S
C36 O38 1.263 . S
O37 Co34 1.970 . S
O37 C36 1.258 . S
O38 Co35 1.966 . S
O38 C36 1.263 . S
C39 O40 1.235 . S
C39 O66 1.289 . S
O40 C39 1.235 . S
C41 C43 1.400 . S
C41 N44 1.351 . S
C41 C46 1.501 . S
C42 C43 1.387 . S
C42 N45 1.341 . S
C43 C41 1.400 . S
C43 C42 1.387 . S
N44 Co35 2.022 . S
N44 C41 1.351 . S
N44 N45 1.365 . S
N45 C42 1.341 . S
N45 N44 1.365 . S
N45 H65 0.862 . S
C46 C41 1.501 . S
C46 H47 0.961 . S
C46 H48 0.961 . S
C46 H49 0.960 . S
H47 C46 0.961 . S
H48 C46 0.961 . S
H49 C46 0.960 . S
C50 N51 1.342 . S
C50 C54 1.401 . S
C50 C55 1.499 . S
N51 Co34 1.989 . S
N51 C50 1.342 . S
N51 N52 1.388 . S
N52 Co35 1.993 . S
N52 N51 1.388 . S
N52 C53 1.346 . S
C53 N52 1.346 . S
C53 C54 1.396 . S
C53 C63 1.510 . S
C54 C50 1.401 . S
C54 C53 1.396 . S
C55 C50 1.499 . S
C55 H56 0.959 . S
C55 H57 0.960 . S
C55 H58 0.961 . S
H56 C55 0.959 . S
H57 C55 0.960 . S
H58 C55 0.961 . S
O59 Co34 1.967 . S
O59 C67 1.258 . S
O60 Co35 1.941 . S
O60 C67 1.266 . S
H61 C63 0.959 . S
H62 C63 0.961 . S
C63 C53 1.510 . S
C63 H61 0.959 . S
C63 H62 0.961 . S
C63 H64 0.960 . S
H64 C63 0.960 . S
H65 N45 0.862 . S
O66 Co34 1.920 . S
O66 C39 1.289 . S
C67 O59 1.258 . S
C67 O60 1.266 . S
Co68 O71 1.970 . S
Co68 N85 1.989 . S
Co68 O93 1.967 . S
Co68 O100 1.920 . S
Co69 O72 1.966 . S
Co69 N78 2.022 . S
Co69 N86 1.993 . S
Co69 O94 1.941 . S
C70 O71 1.258 . S
C70 O72 1.263 . S
O71 Co68 1.970 . S
O71 C70 1.258 . S
O72 Co69 1.966 . S
O72 C70 1.263 . S
C73 O74 1.235 . S
C73 O100 1.289 . S
O74 C73 1.235 . S
C75 C77 1.400 . S
C75 N78 1.351 . S
C75 C80 1.501 . S
C76 C77 1.387 . S
C76 N79 1.341 . S
C77 C75 1.400 . S
C77 C76 1.387 . S
N78 Co69 2.022 . S
N78 C75 1.351 . S
N78 N79 1.365 . S
N79 C76 1.341 . S
N79 N78 1.365 . S
N79 H99 0.862 . S
C80 C75 1.501 . S
C80 H81 0.961 . S
C80 H82 0.961 . S
C80 H83 0.960 . S
H81 C80 0.961 . S
H82 C80 0.961 . S
H83 C80 0.960 . S
C84 N85 1.342 . S
C84 C88 1.401 . S
C84 C89 1.499 . S
N85 Co68 1.989 . S
N85 C84 1.342 . S
N85 N86 1.388 . S
N86 Co69 1.993 . S
N86 N85 1.388 . S
N86 C87 1.346 . S
C87 N86 1.346 . S
C87 C88 1.396 . S
C87 C97 1.510 . S
C88 C84 1.401 . S
C88 C87 1.396 . S
C89 C84 1.499 . S
C89 H90 0.959 . S
C89 H91 0.960 . S
C89 H92 0.961 . S
H90 C89 0.959 . S
H91 C89 0.960 . S
H92 C89 0.961 . S
O93 Co68 1.967 . S
O93 C101 1.258 . S
O94 Co69 1.941 . S
O94 C101 1.266 . S
H95 C97 0.959 . S
H96 C97 0.961 . S
C97 C87 1.510 . S
C97 H95 0.959 . S
C97 H96 0.961 . S
C97 H98 0.960 . S
H98 C97 0.960 . S
H99 N79 0.862 . S
O100 Co68 1.920 . S
O100 C73 1.289 . S
C101 O93 1.258 . S
C101 O94 1.266 . S
Co102 O105 1.970 . S
Co102 N119 1.989 . S
Co102 O127 1.967 . S
Co102 O134 1.920 . S
Co103 O106 1.966 . S
Co103 N112 2.022 1_556 S
Co103 N120 1.993 . S
Co103 O128 1.941 . S
C104 O105 1.258 . S
C104 O106 1.263 . S
O105 Co102 1.970 . S
O105 C104 1.258 . S
O106 Co103 1.966 . S
O106 C104 1.263 . S
C107 O108 1.235 . S
C107 O134 1.289 . S
O108 C107 1.235 . S
C109 C111 1.400 . S
C109 N112 1.351 . S
C109 C114 1.501 . S
C110 C111 1.387 . S
C110 N113 1.341 . S
C111 C109 1.400 . S
C111 C110 1.387 . S
N112 Co103 2.022 1_554 S
N112 C109 1.351 . S
N112 N113 1.365 . S
N113 C110 1.341 . S
N113 N112 1.365 . S
N113 H133 0.862 . S
C114 C109 1.501 . S
C114 H115 0.961 1_554 S
C114 H116 0.961 . S
C114 H117 0.960 . S
H115 C114 0.961 1_556 S
H116 C114 0.961 . S
H117 C114 0.960 . S
C118 N119 1.342 . S
C118 C122 1.401 . S
C118 C123 1.499 . S
N119 Co102 1.989 . S
N119 C118 1.342 . S
N119 N120 1.388 . S
N120 Co103 1.993 . S
N120 N119 1.388 . S
N120 C121 1.346 . S
C121 N120 1.346 . S
C121 C122 1.396 . S
C121 C131 1.510 . S
C122 C118 1.401 . S
C122 C121 1.396 . S
C123 C118 1.499 . S
C123 H124 0.959 . S
C123 H125 0.960 . S
C123 H126 0.961 . S
H124 C123 0.959 . S
H125 C123 0.960 . S
H126 C123 0.961 . S
O127 Co102 1.967 . S
O127 C135 1.258 . S
O128 Co103 1.941 . S
O128 C135 1.266 . S
H129 C131 0.959 . S
H130 C131 0.961 . S
C131 C121 1.510 . S
C131 H129 0.959 . S
C131 H130 0.961 . S
C131 H132 0.960 1_556 S
H132 C131 0.960 1_554 S
H133 N113 0.862 . S
O134 Co102 1.920 . S
O134 C107 1.289 . S
C135 O127 1.258 . S
C135 O128 1.266 . S
Co136 O139 1.970 . S
Co136 N153 1.989 . S
Co136 O161 1.967 . S
Co136 O168 1.920 1_556 S
Co137 O140 1.966 . S
Co137 N146 2.022 . S
Co137 N154 1.993 . S
Co137 O162 1.941 . S
C138 O139 1.258 . S
C138 O140 1.263 . S
O139 Co136 1.970 . S
O139 C138 1.258 . S
O140 Co137 1.966 . S
O140 C138 1.263 . S
C141 O142 1.235 . S
C141 O168 1.289 . S
O142 C141 1.235 . S
C143 C145 1.400 . S
C143 N146 1.351 . S
C143 C148 1.501 . S
C144 C145 1.387 . S
C144 N147 1.341 . S
C145 C143 1.400 . S
C145 C144 1.387 . S
N146 Co137 2.022 . S
N146 C143 1.351 . S
N146 N147 1.365 . S
N147 C144 1.341 . S
N147 N146 1.365 . S
N147 H167 0.862 . S
C148 C143 1.501 . S
C148 H149 0.961 . S
C148 H150 0.961 . S
C148 H151 0.960 . S
H149 C148 0.961 . S
H150 C148 0.961 . S
H151 C148 0.960 . S
C152 N153 1.342 . S
C152 C156 1.401 . S
C152 C157 1.499 1_556 S
N153 Co136 1.989 . S
N153 C152 1.342 . S
N153 N154 1.388 . S
N154 Co137 1.993 . S
N154 N153 1.388 . S
N154 C155 1.346 . S
C155 N154 1.346 . S
C155 C156 1.396 . S
C155 C165 1.510 . S
C156 C152 1.401 . S
C156 C155 1.396 . S
C157 C152 1.499 1_554 S
C157 H158 0.959 . S
C157 H159 0.960 . S
C157 H160 0.961 . S
H158 C157 0.959 . S
H159 C157 0.960 . S
H160 C157 0.961 . S
O161 Co136 1.967 . S
O161 C169 1.258 . S
O162 Co137 1.941 . S
O162 C169 1.266 . S
H163 C165 0.959 . S
H164 C165 0.961 . S
C165 C155 1.510 . S
C165 H163 0.959 . S
C165 H164 0.961 . S
C165 H166 0.960 . S
H166 C165 0.960 . S
H167 N147 0.862 . S
O168 Co136 1.920 1_554 S
O168 C141 1.289 . S
C169 O161 1.258 . S
C169 O162 1.266 . S
Co170 O173 1.970 . S
Co170 N187 1.989 . S
Co170 O195 1.967 . S
Co170 O202 1.920 . S
Co171 O174 1.966 . S
Co171 N180 2.022 1_554 S
Co171 N188 1.993 . S
Co171 O196 1.941 . S
C172 O173 1.258 . S
C172 O174 1.263 . S
O173 Co170 1.970 . S
O173 C172 1.258 . S
O174 Co171 1.966 . S
O174 C172 1.263 . S
C175 O176 1.235 . S
C175 O202 1.289 . S
O176 C175 1.235 . S
C177 C179 1.400 . S
C177 N180 1.351 . S
C177 C182 1.501 . S
C178 C179 1.387 . S
C178 N181 1.341 . S
C179 C177 1.400 . S
C179 C178 1.387 . S
N180 Co171 2.022 1_556 S
N180 C177 1.351 . S
N180 N181 1.365 . S
N181 C178 1.341 . S
N181 N180 1.365 . S
N181 H201 0.862 . S
C182 C177 1.501 . S
C182 H183 0.961 1_556 S
C182 H184 0.961 . S
C182 H185 0.960 . S
H183 C182 0.961 1_554 S
H184 C182 0.961 . S
H185 C182 0.960 . S
C186 N187 1.342 . S
C186 C190 1.401 . S
C186 C191 1.499 . S
N187 Co170 1.989 . S
N187 C186 1.342 . S
N187 N188 1.388 . S
N188 Co171 1.993 . S
N188 N187 1.388 . S
N188 C189 1.346 . S
C189 N188 1.346 . S
C189 C190 1.396 . S
C189 C199 1.510 . S
C190 C186 1.401 . S
C190 C189 1.396 . S
C191 C186 1.499 . S
C191 H192 0.959 . S
C191 H193 0.960 . S
C191 H194 0.961 . S
H192 C191 0.959 . S
H193 C191 0.960 . S
H194 C191 0.961 . S
O195 Co170 1.967 . S
O195 C203 1.258 . S
O196 Co171 1.941 . S
O196 C203 1.266 . S
H197 C199 0.959 . S
H198 C199 0.961 . S
C199 C189 1.510 . S
C199 H197 0.959 . S
C199 H198 0.961 . S
C199 H200 0.960 1_554 S
H200 C199 0.960 1_556 S
H201 N181 0.862 . S
O202 Co170 1.920 . S
O202 C175 1.289 . S
C203 O195 1.258 . S
C203 O196 1.266 . S
Co204 O207 1.970 . S
Co204 N221 1.989 . S
Co204 O229 1.967 . S
Co204 O236 1.920 . S
Co205 O208 1.966 . S
Co205 N214 2.022 . S
Co205 N222 1.993 . S
Co205 O230 1.941 . S
C206 O207 1.258 . S
C206 O208 1.263 . S
O207 Co204 1.970 . S
O207 C206 1.258 . S
O208 Co205 1.966 . S
O208 C206 1.263 . S
C209 O210 1.235 . S
C209 O236 1.289 . S
O210 C209 1.235 . S
C211 C213 1.400 . S
C211 N214 1.351 . S
C211 C216 1.501 . S
C212 C213 1.387 . S
C212 N215 1.341 . S
C213 C211 1.400 . S
C213 C212 1.387 . S
N214 Co205 2.022 . S
N214 C211 1.351 . S
N214 N215 1.365 . S
N215 C212 1.341 . S
N215 N214 1.365 . S
N215 H235 0.862 . S
C216 C211 1.501 . S
C216 H217 0.961 . S
C216 H218 0.961 . S
C216 H219 0.960 . S
H217 C216 0.961 . S
H218 C216 0.961 . S
H219 C216 0.960 . S
C220 N221 1.342 . S
C220 C224 1.401 . S
C220 C225 1.499 . S
N221 Co204 1.989 . S
N221 C220 1.342 . S
N221 N222 1.388 . S
N222 Co205 1.993 . S
N222 N221 1.388 . S
N222 C223 1.346 . S
C223 N222 1.346 . S
C223 C224 1.396 . S
C223 C233 1.510 . S
C224 C220 1.401 . S
C224 C223 1.396 . S
C225 C220 1.499 . S
C225 H226 0.959 . S
C225 H227 0.960 . S
C225 H228 0.961 . S
H226 C225 0.959 . S
H227 C225 0.960 . S
H228 C225 0.961 . S
O229 Co204 1.967 . S
O229 C237 1.258 . S
O230 Co205 1.941 . S
O230 C237 1.266 . S
H231 C233 0.959 . S
H232 C233 0.961 . S
C233 C223 1.510 . S
C233 H231 0.959 . S
C233 H232 0.961 . S
C233 H234 0.960 . S
H234 C233 0.960 . S
H235 N215 0.862 . S
O236 Co204 1.920 . S
O236 C209 1.289 . S
C237 O229 1.258 . S
C237 O230 1.266 . S
Co238 O241 1.970 . S
Co238 N255 1.989 . S
Co238 O263 1.967 . S
Co238 O270 1.920 . S
Co239 O242 1.966 . S
Co239 N248 2.022 . S
Co239 N256 1.993 . S
Co239 O264 1.941 . S
C240 O241 1.258 . S
C240 O242 1.263 . S
O241 Co238 1.970 . S
O241 C240 1.258 . S
O242 Co239 1.966 . S
O242 C240 1.263 . S
C243 O244 1.235 . S
C243 O270 1.289 . S
O244 C243 1.235 . S
C245 C247 1.400 . S
C245 N248 1.351 . S
C245 C250 1.501 . S
C246 C247 1.387 . S
C246 N249 1.341 . S
C247 C245 1.400 . S
C247 C246 1.387 . S
N248 Co239 2.022 . S
N248 C245 1.351 . S
N248 N249 1.365 . S
N249 C246 1.341 . S
N249 N248 1.365 . S
N249 H269 0.862 . S
C250 C245 1.501 . S
C250 H251 0.961 . S
C250 H252 0.961 . S
C250 H253 0.960 . S
H251 C250 0.961 . S
H252 C250 0.961 . S
H253 C250 0.960 . S
C254 N255 1.342 . S
C254 C258 1.401 . S
C254 C259 1.499 . S
N255 Co238 1.989 . S
N255 C254 1.342 . S
N255 N256 1.388 . S
N256 Co239 1.993 . S
N256 N255 1.388 . S
N256 C257 1.346 . S
C257 N256 1.346 . S
C257 C258 1.396 . S
C257 C267 1.510 . S
C258 C254 1.401 . S
C258 C257 1.396 . S
C259 C254 1.499 . S
C259 H260 0.959 . S
C259 H261 0.960 . S
C259 H262 0.961 . S
H260 C259 0.959 . S
H261 C259 0.960 . S
H262 C259 0.961 . S
O263 Co238 1.967 . S
O263 C271 1.258 . S
O264 Co239 1.941 . S
O264 C271 1.266 . S
H265 C267 0.959 . S
H266 C267 0.961 . S
C267 C257 1.510 . S
C267 H265 0.959 . S
C267 H266 0.961 . S
C267 H268 0.960 . S
H268 C267 0.960 . S
H269 N249 0.862 . S
O270 Co238 1.920 . S
O270 C243 1.289 . S
C271 O263 1.258 . S
C271 O264 1.266 . S
Co272 O275 1.970 . S
Co272 N289 1.989 . S
Co272 O297 1.967 . S
Co272 O304 1.920 1_556 S
Co273 O276 1.966 . S
Co273 N282 2.022 . S
Co273 N290 1.993 . S
Co273 O298 1.941 . S
C274 O275 1.258 . S
C274 O276 1.263 . S
O275 Co272 1.970 . S
O275 C274 1.258 . S
O276 Co273 1.966 . S
O276 C274 1.263 . S
C277 O278 1.235 . S
C277 O304 1.289 . S
O278 C277 1.235 . S
C279 C281 1.400 . S
C279 N282 1.351 . S
C279 C284 1.501 . S
C280 C281 1.387 . S
C280 N283 1.341 . S
C281 C279 1.400 . S
C281 C280 1.387 . S
N282 Co273 2.022 . S
N282 C279 1.351 . S
N282 N283 1.365 . S
N283 C280 1.341 . S
N283 N282 1.365 . S
N283 H303 0.862 . S
C284 C279 1.501 . S
C284 H285 0.961 . S
C284 H286 0.961 . S
C284 H287 0.960 . S
H285 C284 0.961 . S
H286 C284 0.961 . S
H287 C284 0.960 . S
C288 N289 1.342 . S
C288 C292 1.401 . S
C288 C293 1.499 1_556 S
N289 Co272 1.989 . S
N289 C288 1.342 . S
N289 N290 1.388 . S
N290 Co273 1.993 . S
N290 N289 1.388 . S
N290 C291 1.346 . S
C291 N290 1.346 . S
C291 C292 1.396 . S
C291 C301 1.510 . S
C292 C288 1.401 . S
C292 C291 1.396 . S
C293 C288 1.499 1_554 S
C293 H294 0.959 . S
C293 H295 0.960 . S
C293 H296 0.961 . S
H294 C293 0.959 . S
H295 C293 0.960 . S
H296 C293 0.961 . S
O297 Co272 1.967 . S
O297 C305 1.258 . S
O298 Co273 1.941 . S
O298 C305 1.266 . S
H299 C301 0.959 . S
H300 C301 0.961 . S
C301 C291 1.510 . S
C301 H299 0.959 . S
C301 H300 0.961 . S
C301 H302 0.960 . S
H302 C301 0.960 . S
H303 N283 0.862 . S
O304 Co272 1.920 1_554 S
O304 C277 1.289 . S
C305 O297 1.258 . S
C305 O298 1.266 . S
Co306 O309 1.970 . S
Co306 N323 1.989 . S
Co306 O331 1.967 . S
Co306 O338 1.920 . S
Co307 O310 1.966 . S
Co307 N316 2.022 . S
Co307 N324 1.993 . S
Co307 O332 1.941 . S
C308 O309 1.258 . S
C308 O310 1.263 . S
O309 Co306 1.970 . S
O309 C308 1.258 . S
O310 Co307 1.966 . S
O310 C308 1.263 . S
C311 O312 1.235 . S
C311 O338 1.289 . S
O312 C311 1.235 . S
C313 C315 1.400 . S
C313 N316 1.351 . S
C313 C318 1.501 . S
C314 C315 1.387 . S
C314 N317 1.341 . S
C315 C313 1.400 . S
C315 C314 1.387 . S
N316 Co307 2.022 . S
N316 C313 1.351 . S
N316 N317 1.365 . S
N317 C314 1.341 . S
N317 N316 1.365 . S
N317 H337 0.862 . S
C318 C313 1.501 . S
C318 H319 0.961 . S
C318 H320 0.961 . S
C318 H321 0.960 . S
H319 C318 0.961 . S
H320 C318 0.961 . S
H321 C318 0.960 . S
C322 N323 1.342 . S
C322 C326 1.401 . S
C322 C327 1.499 . S
N323 Co306 1.989 . S
N323 C322 1.342 . S
N323 N324 1.388 . S
N324 Co307 1.993 . S
N324 N323 1.388 . S
N324 C325 1.346 . S
C325 N324 1.346 . S
C325 C326 1.396 . S
C325 C335 1.510 . S
C326 C322 1.401 . S
C326 C325 1.396 . S
C327 C322 1.499 . S
C327 H328 0.959 . S
C327 H329 0.960 . S
C327 H330 0.961 . S
H328 C327 0.959 . S
H329 C327 0.960 . S
H330 C327 0.961 . S
O331 Co306 1.967 . S
O331 C339 1.258 . S
O332 Co307 1.941 . S
O332 C339 1.266 . S
H333 C335 0.959 . S
H334 C335 0.961 . S
C335 C325 1.510 . S
C335 H333 0.959 . S
C335 H334 0.961 . S
C335 H336 0.960 . S
H336 C335 0.960 . S
H337 N317 0.862 . S
O338 Co306 1.920 . S
O338 C311 1.289 . S
C339 O331 1.258 . S
C339 O332 1.266 . S
Co340 O343 1.970 . S
Co340 N357 1.989 . S
Co340 O365 1.967 . S
Co340 O372 1.920 . S
Co341 O344 1.966 . S
Co341 N350 2.022 . S
Co341 N358 1.993 . S
Co341 O366 1.941 . S
C342 O343 1.258 . S
C342 O344 1.263 . S
O343 Co340 1.970 . S
O343 C342 1.258 . S
O344 Co341 1.966 . S
O344 C342 1.263 . S
C345 O346 1.235 . S
C345 O372 1.289 . S
O346 C345 1.235 . S
C347 C349 1.400 . S
C347 N350 1.351 . S
C347 C352 1.501 . S
C348 C349 1.387 . S
C348 N351 1.341 . S
C349 C347 1.400 . S
C349 C348 1.387 . S
N350 Co341 2.022 . S
N350 C347 1.351 . S
N350 N351 1.365 . S
N351 C348 1.341 . S
N351 N350 1.365 . S
N351 H371 0.862 . S
C352 C347 1.501 . S
C352 H353 0.961 . S
C352 H354 0.961 . S
C352 H355 0.960 . S
H353 C352 0.961 . S
H354 C352 0.961 . S
H355 C352 0.960 . S
C356 N357 1.342 . S
C356 C360 1.401 . S
C356 C361 1.499 . S
N357 Co340 1.989 . S
N357 C356 1.342 . S
N357 N358 1.388 . S
N358 Co341 1.993 . S
N358 N357 1.388 . S
N358 C359 1.346 . S
C359 N358 1.346 . S
C359 C360 1.396 . S
C359 C369 1.510 . S
C360 C356 1.401 . S
C360 C359 1.396 . S
C361 C356 1.499 . S
C361 H362 0.959 . S
C361 H363 0.960 . S
C361 H364 0.961 . S
H362 C361 0.959 . S
H363 C361 0.960 . S
H364 C361 0.961 . S
O365 Co340 1.967 . S
O365 C373 1.258 . S
O366 Co341 1.941 . S
O366 C373 1.266 . S
H367 C369 0.959 . S
H368 C369 0.961 . S
C369 C359 1.510 . S
C369 H367 0.959 . S
C369 H368 0.961 . S
C369 H370 0.960 . S
H370 C369 0.960 . S
H371 N351 0.862 . S
O372 Co340 1.920 . S
O372 C345 1.289 . S
C373 O365 1.258 . S
C373 O366 1.266 . S
Co374 O377 1.970 . S
Co374 N391 1.989 . S
Co374 O399 1.967 . S
Co374 O406 1.920 . S
Co375 O378 1.966 . S
Co375 N384 2.022 1_554 S
Co375 N392 1.993 . S
Co375 O400 1.941 . S
C376 O377 1.258 . S
C376 O378 1.263 . S
O377 Co374 1.970 . S
O377 C376 1.258 . S
O378 Co375 1.966 . S
O378 C376 1.263 . S
C379 O380 1.235 . S
C379 O406 1.289 . S
O380 C379 1.235 . S
C381 C383 1.400 . S
C381 N384 1.351 . S
C381 C386 1.501 . S
C382 C383 1.387 . S
C382 N385 1.341 . S
C383 C381 1.400 . S
C383 C382 1.387 . S
N384 Co375 2.022 1_556 S
N384 C381 1.351 . S
N384 N385 1.365 . S
N385 C382 1.341 . S
N385 N384 1.365 . S
N385 H405 0.862 . S
C386 C381 1.501 . S
C386 H387 0.961 1_556 S
C386 H388 0.961 . S
C386 H389 0.960 . S
H387 C386 0.961 1_554 S
H388 C386 0.961 . S
H389 C386 0.960 . S
C390 N391 1.342 . S
C390 C394 1.401 . S
C390 C395 1.499 . S
N391 Co374 1.989 . S
N391 C390 1.342 . S
N391 N392 1.388 . S
N392 Co375 1.993 . S
N392 N391 1.388 . S
N392 C393 1.346 . S
C393 N392 1.346 . S
C393 C394 1.396 . S
C393 C403 1.510 . S
C394 C390 1.401 . S
C394 C393 1.396 . S
C395 C390 1.499 . S
C395 H396 0.959 . S
C395 H397 0.960 . S
C395 H398 0.961 . S
H396 C395 0.959 . S
H397 C395 0.960 . S
H398 C395 0.961 . S
O399 Co374 1.967 . S
O399 C407 1.258 . S
O400 Co375 1.941 . S
O400 C407 1.266 . S
H401 C403 0.959 . S
H402 C403 0.961 . S
C403 C393 1.510 . S
C403 H401 0.959 . S
C403 H402 0.961 . S
C403 H404 0.960 1_554 S
H404 C403 0.960 1_556 S
H405 N385 0.862 . S
O406 Co374 1.920 . S
O406 C379 1.289 . S
C407 O399 1.258 . S
C407 O400 1.266 . S
Co408 O411 1.970 . S
Co408 N425 1.989 . S
Co408 O433 1.967 . S
Co408 O440 1.920 1_554 S
Co409 O412 1.966 . S
Co409 N418 2.022 . S
Co409 N426 1.993 . S
Co409 O434 1.941 . S
C410 O411 1.258 . S
C410 O412 1.263 . S
O411 Co408 1.970 . S
O411 C410 1.258 . S
O412 Co409 1.966 . S
O412 C410 1.263 . S
C413 O414 1.235 . S
C413 O440 1.289 . S
O414 C413 1.235 . S
C415 C417 1.400 . S
C415 N418 1.351 . S
C415 C420 1.501 . S
C416 C417 1.387 . S
C416 N419 1.341 . S
C417 C415 1.400 . S
C417 C416 1.387 . S
N418 Co409 2.022 . S
N418 C415 1.351 . S
N418 N419 1.365 . S
N419 C416 1.341 . S
N419 N418 1.365 . S
N419 H439 0.862 . S
C420 C415 1.501 . S
C420 H421 0.961 . S
C420 H422 0.961 . S
C420 H423 0.960 . S
H421 C420 0.961 . S
H422 C420 0.961 . S
H423 C420 0.960 . S
C424 N425 1.342 . S
C424 C428 1.401 . S
C424 C429 1.499 1_554 S
N425 Co408 1.989 . S
N425 C424 1.342 . S
N425 N426 1.388 . S
N426 Co409 1.993 . S
N426 N425 1.388 . S
N426 C427 1.346 . S
C427 N426 1.346 . S
C427 C428 1.396 . S
C427 C437 1.510 . S
C428 C424 1.401 . S
C428 C427 1.396 . S
C429 C424 1.499 1_556 S
C429 H430 0.959 . S
C429 H431 0.960 . S
C429 H432 0.961 . S
H430 C429 0.959 . S
H431 C429 0.960 . S
H432 C429 0.961 . S
O433 Co408 1.967 . S
O433 C441 1.258 . S
O434 Co409 1.941 . S
O434 C441 1.266 . S
H435 C437 0.959 . S
H436 C437 0.961 . S
C437 C427 1.510 . S
C437 H435 0.959 . S
C437 H436 0.961 . S
C437 H438 0.960 . S
H438 C437 0.960 . S
H439 N419 0.862 . S
O440 Co408 1.920 1_556 S
O440 C413 1.289 . S
C441 O433 1.258 . S
C441 O434 1.266 . S
Co442 O445 1.970 . S
Co442 N459 1.989 . S
Co442 O467 1.967 . S
Co442 O474 1.920 . S
Co443 O446 1.966 . S
Co443 N452 2.022 1_556 S
Co443 N460 1.993 . S
Co443 O468 1.941 . S
C444 O445 1.258 . S
C444 O446 1.263 . S
O445 Co442 1.970 . S
O445 C444 1.258 . S
O446 Co443 1.966 . S
O446 C444 1.263 . S
C447 O448 1.235 . S
C447 O474 1.289 . S
O448 C447 1.235 . S
C449 C451 1.400 . S
C449 N452 1.351 . S
C449 C454 1.501 . S
C450 C451 1.387 . S
C450 N453 1.341 . S
C451 C449 1.400 . S
C451 C450 1.387 . S
N452 Co443 2.022 1_554 S
N452 C449 1.351 . S
N452 N453 1.365 . S
N453 C450 1.341 . S
N453 N452 1.365 . S
N453 H473 0.862 . S
C454 C449 1.501 . S
C454 H455 0.961 1_554 S
C454 H456 0.961 . S
C454 H457 0.960 . S
H455 C454 0.961 1_556 S
H456 C454 0.961 . S
H457 C454 0.960 . S
C458 N459 1.342 . S
C458 C462 1.401 . S
C458 C463 1.499 . S
N459 Co442 1.989 . S
N459 C458 1.342 . S
N459 N460 1.388 . S
N460 Co443 1.993 . S
N460 N459 1.388 . S
N460 C461 1.346 . S
C461 N460 1.346 . S
C461 C462 1.396 . S
C461 C471 1.510 . S
C462 C458 1.401 . S
C462 C461 1.396 . S
C463 C458 1.499 . S
C463 H464 0.959 . S
C463 H465 0.960 . S
C463 H466 0.961 . S
H464 C463 0.959 . S
H465 C463 0.960 . S
H466 C463 0.961 . S
O467 Co442 1.967 . S
O467 C475 1.258 . S
O468 Co443 1.941 . S
O468 C475 1.266 . S
H469 C471 0.959 . S
H470 C471 0.961 . S
C471 C461 1.510 . S
C471 H469 0.959 . S
C471 H470 0.961 . S
C471 H472 0.960 1_556 S
H472 C471 0.960 1_554 S
H473 N453 0.862 . S
O474 Co442 1.920 . S
O474 C447 1.289 . S
C475 O467 1.258 . S
C475 O468 1.266 . S
Co476 O479 1.970 . S
Co476 N493 1.989 . S
Co476 O501 1.967 . S
Co476 O508 1.920 . S
Co477 O480 1.966 . S
Co477 N486 2.022 . S
Co477 N494 1.993 . S
Co477 O502 1.941 . S
C478 O479 1.258 . S
C478 O480 1.263 . S
O479 Co476 1.970 . S
O479 C478 1.258 . S
O480 Co477 1.966 . S
O480 C478 1.263 . S
C481 O482 1.235 . S
C481 O508 1.289 . S
O482 C481 1.235 . S
C483 C485 1.400 . S
C483 N486 1.351 . S
C483 C488 1.501 . S
C484 C485 1.387 . S
C484 N487 1.341 . S
C485 C483 1.400 . S
C485 C484 1.387 . S
N486 Co477 2.022 . S
N486 C483 1.351 . S
N486 N487 1.365 . S
N487 C484 1.341 . S
N487 N486 1.365 . S
N487 H507 0.862 . S
C488 C483 1.501 . S
C488 H489 0.961 . S
C488 H490 0.961 . S
C488 H491 0.960 . S
H489 C488 0.961 . S
H490 C488 0.961 . S
H491 C488 0.960 . S
C492 N493 1.342 . S
C492 C496 1.401 . S
C492 C497 1.499 . S
N493 Co476 1.989 . S
N493 C492 1.342 . S
N493 N494 1.388 . S
N494 Co477 1.993 . S
N494 N493 1.388 . S
N494 C495 1.346 . S
C495 N494 1.346 . S
C495 C496 1.396 . S
C495 C505 1.510 . S
C496 C492 1.401 . S
C496 C495 1.396 . S
C497 C492 1.499 . S
C497 H498 0.959 . S
C497 H499 0.960 . S
C497 H500 0.961 . S
H498 C497 0.959 . S
H499 C497 0.960 . S
H500 C497 0.961 . S
O501 Co476 1.967 . S
O501 C509 1.258 . S
O502 Co477 1.941 . S
O502 C509 1.266 . S
H503 C505 0.959 . S
H504 C505 0.961 . S
C505 C495 1.510 . S
C505 H503 0.959 . S
C505 H504 0.961 . S
C505 H506 0.960 . S
H506 C505 0.960 . S
H507 N487 0.862 . S
O508 Co476 1.920 . S
O508 C481 1.289 . S
C509 O501 1.258 . S
C509 O502 1.266 . S
Co510 O513 1.970 . S
Co510 N527 1.989 . S
Co510 O535 1.967 . S
Co510 O542 1.920 . S
Co511 O514 1.966 . S
Co511 N520 2.022 . S
Co511 N528 1.993 . S
Co511 O536 1.941 . S
C512 O513 1.258 . S
C512 O514 1.263 . S
O513 Co510 1.970 . S
O513 C512 1.258 . S
O514 Co511 1.966 . S
O514 C512 1.263 . S
C515 O516 1.235 . S
C515 O542 1.289 . S
O516 C515 1.235 . S
C517 C519 1.400 . S
C517 N520 1.351 . S
C517 C522 1.501 . S
C518 C519 1.387 . S
C518 N521 1.341 . S
C519 C517 1.400 . S
C519 C518 1.387 . S
N520 Co511 2.022 . S
N520 C517 1.351 . S
N520 N521 1.365 . S
N521 C518 1.341 . S
N521 N520 1.365 . S
N521 H541 0.862 . S
C522 C517 1.501 . S
C522 H523 0.961 . S
C522 H524 0.961 . S
C522 H525 0.960 . S
H523 C522 0.961 . S
H524 C522 0.961 . S
H525 C522 0.960 . S
C526 N527 1.342 . S
C526 C530 1.401 . S
C526 C531 1.499 . S
N527 Co510 1.989 . S
N527 C526 1.342 . S
N527 N528 1.388 . S
N528 Co511 1.993 . S
N528 N527 1.388 . S
N528 C529 1.346 . S
C529 N528 1.346 . S
C529 C530 1.396 . S
C529 C539 1.510 . S
C530 C526 1.401 . S
C530 C529 1.396 . S
C531 C526 1.499 . S
C531 H532 0.959 . S
C531 H533 0.960 . S
C531 H534 0.961 . S
H532 C531 0.959 . S
H533 C531 0.960 . S
H534 C531 0.961 . S
O535 Co510 1.967 . S
O535 C543 1.258 . S
O536 Co511 1.941 . S
O536 C543 1.266 . S
H537 C539 0.959 . S
H538 C539 0.961 . S
C539 C529 1.510 . S
C539 H537 0.959 . S
C539 H538 0.961 . S
C539 H540 0.960 . S
H540 C539 0.960 . S
H541 N521 0.862 . S
O542 Co510 1.920 . S
O542 C515 1.289 . S
C543 O535 1.258 . S
C543 O536 1.266 . S
Co544 O547 1.970 . S
Co544 N561 1.989 . S
Co544 O569 1.967 . S
Co544 O576 1.920 . S
Co545 O548 1.966 . S
Co545 N554 2.022 . S
Co545 N562 1.993 . S
Co545 O570 1.941 . S
C546 O547 1.258 . S
C546 O548 1.263 . S
O547 Co544 1.970 . S
O547 C546 1.258 . S
O548 Co545 1.966 . S
O548 C546 1.263 . S
C549 O550 1.235 . S
C549 O576 1.289 . S
O550 C549 1.235 . S
C551 C553 1.400 . S
C551 N554 1.351 . S
C551 C556 1.501 . S
C552 C553 1.387 . S
C552 N555 1.341 . S
C553 C551 1.400 . S
C553 C552 1.387 . S
N554 Co545 2.022 . S
N554 C551 1.351 . S
N554 N555 1.365 . S
N555 C552 1.341 . S
N555 N554 1.365 . S
N555 H575 0.862 . S
C556 C551 1.501 . S
C556 H557 0.961 . S
C556 H558 0.961 . S
C556 H559 0.960 . S
H557 C556 0.961 . S
H558 C556 0.961 . S
H559 C556 0.960 . S
C560 N561 1.342 . S
C560 C564 1.401 . S
C560 C565 1.499 . S
N561 Co544 1.989 . S
N561 C560 1.342 . S
N561 N562 1.388 . S
N562 Co545 1.993 . S
N562 N561 1.388 . S
N562 C563 1.346 . S
C563 N562 1.346 . S
C563 C564 1.396 . S
C563 C573 1.510 . S
C564 C560 1.401 . S
C564 C563 1.396 . S
C565 C560 1.499 . S
C565 H566 0.959 . S
C565 H567 0.960 . S
C565 H568 0.961 . S
H566 C565 0.959 . S
H567 C565 0.960 . S
H568 C565 0.961 . S
O569 Co544 1.967 . S
O569 C577 1.258 . S
O570 Co545 1.941 . S
O570 C577 1.266 . S
H571 C573 0.959 . S
H572 C573 0.961 . S
C573 C563 1.510 . S
C573 H571 0.959 . S
C573 H572 0.961 . S
C573 H574 0.960 . S
H574 C573 0.960 . S
H575 N555 0.862 . S
O576 Co544 1.920 . S
O576 C549 1.289 . S
C577 O569 1.258 . S
C577 O570 1.266 . S
Co578 O581 1.970 . S
Co578 N595 1.989 . S
Co578 O603 1.967 . S
Co578 O610 1.920 . S
Co579 O582 1.966 . S
Co579 N588 2.022 1_556 S
Co579 N596 1.993 . S
Co579 O604 1.941 . S
C580 O581 1.258 . S
C580 O582 1.263 . S
O581 Co578 1.970 . S
O581 C580 1.258 . S
O582 Co579 1.966 . S
O582 C580 1.263 . S
C583 O584 1.235 . S
C583 O610 1.289 . S
O584 C583 1.235 . S
C585 C587 1.400 . S
C585 N588 1.351 . S
C585 C590 1.501 . S
C586 C587 1.387 . S
C586 N589 1.341 . S
C587 C585 1.400 . S
C587 C586 1.387 . S
N588 Co579 2.022 1_554 S
N588 C585 1.351 . S
N588 N589 1.365 . S
N589 C586 1.341 . S
N589 N588 1.365 . S
N589 H609 0.862 . S
C590 C585 1.501 . S
C590 H591 0.961 1_554 S
C590 H592 0.961 . S
C590 H593 0.960 . S
H591 C590 0.961 1_556 S
H592 C590 0.961 . S
H593 C590 0.960 . S
C594 N595 1.342 . S
C594 C598 1.401 . S
C594 C599 1.499 . S
N595 Co578 1.989 . S
N595 C594 1.342 . S
N595 N596 1.388 . S
N596 Co579 1.993 . S
N596 N595 1.388 . S
N596 C597 1.346 . S
C597 N596 1.346 . S
C597 C598 1.396 . S
C597 C607 1.510 . S
C598 C594 1.401 . S
C598 C597 1.396 . S
C599 C594 1.499 . S
C599 H600 0.959 . S
C599 H601 0.960 . S
C599 H602 0.961 . S
H600 C599 0.959 . S
H601 C599 0.960 . S
H602 C599 0.961 . S
O603 Co578 1.967 . S
O603 C611 1.258 . S
O604 Co579 1.941 . S
O604 C611 1.266 . S
H605 C607 0.959 . S
H606 C607 0.961 . S
C607 C597 1.510 . S
C607 H605 0.959 . S
C607 H606 0.961 . S
C607 H608 0.960 1_556 S
H608 C607 0.960 1_554 S
H609 N589 0.862 . S
O610 Co578 1.920 . S
O610 C583 1.289 . S
C611 O603 1.258 . S
C611 O604 1.266 . S
Co612 O615 1.970 . S
Co612 N629 1.989 . S
Co612 O637 1.967 . S
Co612 O644 1.920 1_554 S
Co613 O616 1.966 . S
Co613 N622 2.022 . S
Co613 N630 1.993 . S
Co613 O638 1.941 . S
C614 O615 1.258 . S
C614 O616 1.263 . S
O615 Co612 1.970 . S
O615 C614 1.258 . S
O616 Co613 1.966 . S
O616 C614 1.263 . S
C617 O618 1.235 . S
C617 O644 1.289 . S
O618 C617 1.235 . S
C619 C621 1.400 . S
C619 N622 1.351 . S
C619 C624 1.501 . S
C620 C621 1.387 . S
C620 N623 1.341 . S
C621 C619 1.400 . S
C621 C620 1.387 . S
N622 Co613 2.022 . S
N622 C619 1.351 . S
N622 N623 1.365 . S
N623 C620 1.341 . S
N623 N622 1.365 . S
N623 H643 0.862 . S
C624 C619 1.501 . S
C624 H625 0.961 . S
C624 H626 0.961 . S
C624 H627 0.960 . S
H625 C624 0.961 . S
H626 C624 0.961 . S
H627 C624 0.960 . S
C628 N629 1.342 . S
C628 C632 1.401 . S
C628 C633 1.499 1_554 S
N629 Co612 1.989 . S
N629 C628 1.342 . S
N629 N630 1.388 . S
N630 Co613 1.993 . S
N630 N629 1.388 . S
N630 C631 1.346 . S
C631 N630 1.346 . S
C631 C632 1.396 . S
C631 C641 1.510 . S
C632 C628 1.401 . S
C632 C631 1.396 . S
C633 C628 1.499 1_556 S
C633 H634 0.959 . S
C633 H635 0.960 . S
C633 H636 0.961 . S
H634 C633 0.959 . S
H635 C633 0.960 . S
H636 C633 0.961 . S
O637 Co612 1.967 . S
O637 C645 1.258 . S
O638 Co613 1.941 . S
O638 C645 1.266 . S
H639 C641 0.959 . S
H640 C641 0.961 . S
C641 C631 1.510 . S
C641 H639 0.959 . S
C641 H640 0.961 . S
C641 H642 0.960 . S
H642 C641 0.960 . S
H643 N623 0.862 . S
O644 Co612 1.920 1_556 S
O644 C617 1.289 . S
C645 O637 1.258 . S
C645 O638 1.266 . S
Co646 O649 1.970 . S
Co646 N663 1.989 . S
Co646 O671 1.967 . S
Co646 O678 1.920 . S
Co647 O650 1.966 . S
Co647 N656 2.022 . S
Co647 N664 1.993 . S
Co647 O672 1.941 . S
C648 O649 1.258 . S
C648 O650 1.263 . S
O649 Co646 1.970 . S
O649 C648 1.258 . S
O650 Co647 1.966 . S
O650 C648 1.263 . S
C651 O652 1.235 . S
C651 O678 1.289 . S
O652 C651 1.235 . S
C653 C655 1.400 . S
C653 N656 1.351 . S
C653 C658 1.501 . S
C654 C655 1.387 . S
C654 N657 1.341 . S
C655 C653 1.400 . S
C655 C654 1.387 . S
N656 Co647 2.022 . S
N656 C653 1.351 . S
N656 N657 1.365 . S
N657 C654 1.341 . S
N657 N656 1.365 . S
N657 H677 0.862 . S
C658 C653 1.501 . S
C658 H659 0.961 . S
C658 H660 0.961 . S
C658 H661 0.960 . S
H659 C658 0.961 . S
H660 C658 0.961 . S
H661 C658 0.960 . S
C662 N663 1.342 . S
C662 C666 1.401 . S
C662 C667 1.499 . S
N663 Co646 1.989 . S
N663 C662 1.342 . S
N663 N664 1.388 . S
N664 Co647 1.993 . S
N664 N663 1.388 . S
N664 C665 1.346 . S
C665 N664 1.346 . S
C665 C666 1.396 . S
C665 C675 1.510 . S
C666 C662 1.401 . S
C666 C665 1.396 . S
C667 C662 1.499 . S
C667 H668 0.959 . S
C667 H669 0.960 . S
C667 H670 0.961 . S
H668 C667 0.959 . S
H669 C667 0.960 . S
H670 C667 0.961 . S
O671 Co646 1.967 . S
O671 C679 1.258 . S
O672 Co647 1.941 . S
O672 C679 1.266 . S
H673 C675 0.959 . S
H674 C675 0.961 . S
C675 C665 1.510 . S
C675 H673 0.959 . S
C675 H674 0.961 . S
C675 H676 0.960 . S
H676 C675 0.960 . S
H677 N657 0.862 . S
O678 Co646 1.920 . S
O678 C651 1.289 . S
C679 O671 1.258 . S
C679 O672 1.266 . S
Co680 O683 1.970 . S
Co680 N697 1.989 . S
Co680 O705 1.967 . S
Co680 O712 1.920 . S
Co681 O684 1.966 . S
Co681 N690 2.022 . S
Co681 N698 1.993 . S
Co681 O706 1.941 . S
C682 O683 1.258 . S
C682 O684 1.263 . S
O683 Co680 1.970 . S
O683 C682 1.258 . S
O684 Co681 1.966 . S
O684 C682 1.263 . S
C685 O686 1.235 . S
C685 O712 1.289 . S
O686 C685 1.235 . S
C687 C689 1.400 . S
C687 N690 1.351 . S
C687 C692 1.501 . S
C688 C689 1.387 . S
C688 N691 1.341 . S
C689 C687 1.400 . S
C689 C688 1.387 . S
N690 Co681 2.022 . S
N690 C687 1.351 . S
N690 N691 1.365 . S
N691 C688 1.341 . S
N691 N690 1.365 . S
N691 H711 0.862 . S
C692 C687 1.501 . S
C692 H693 0.961 . S
C692 H694 0.961 . S
C692 H695 0.960 . S
H693 C692 0.961 . S
H694 C692 0.961 . S
H695 C692 0.960 . S
C696 N697 1.342 . S
C696 C700 1.401 . S
C696 C701 1.499 . S
N697 Co680 1.989 . S
N697 C696 1.342 . S
N697 N698 1.388 . S
N698 Co681 1.993 . S
N698 N697 1.388 . S
N698 C699 1.346 . S
C699 N698 1.346 . S
C699 C700 1.396 . S
C699 C709 1.510 . S
C700 C696 1.401 . S
C700 C699 1.396 . S
C701 C696 1.499 . S
C701 H702 0.959 . S
C701 H703 0.960 . S
C701 H704 0.961 . S
H702 C701 0.959 . S
H703 C701 0.960 . S
H704 C701 0.961 . S
O705 Co680 1.967 . S
O705 C713 1.258 . S
O706 Co681 1.941 . S
O706 C713 1.266 . S
H707 C709 0.959 . S
H708 C709 0.961 . S
C709 C699 1.510 . S
C709 H707 0.959 . S
C709 H708 0.961 . S
C709 H710 0.960 . S
H710 C709 0.960 . S
H711 N691 0.862 . S
O712 Co680 1.920 . S
O712 C685 1.289 . S
C713 O705 1.258 . S
C713 O706 1.266 . S
Co714 O717 1.970 . S
Co714 N731 1.989 . S
Co714 O739 1.967 . S
Co714 O746 1.920 . S
Co715 O718 1.966 . S
Co715 N724 2.022 . S
Co715 N732 1.993 . S
Co715 O740 1.941 . S
C716 O717 1.258 . S
C716 O718 1.263 . S
O717 Co714 1.970 . S
O717 C716 1.258 . S
O718 Co715 1.966 . S
O718 C716 1.263 . S
C719 O720 1.235 . S
C719 O746 1.289 . S
O720 C719 1.235 . S
C721 C723 1.400 . S
C721 N724 1.351 . S
C721 C726 1.501 . S
C722 C723 1.387 . S
C722 N725 1.341 . S
C723 C721 1.400 . S
C723 C722 1.387 . S
N724 Co715 2.022 . S
N724 C721 1.351 . S
N724 N725 1.365 . S
N725 C722 1.341 . S
N725 N724 1.365 . S
N725 H745 0.862 . S
C726 C721 1.501 . S
C726 H727 0.961 . S
C726 H728 0.961 . S
C726 H729 0.960 . S
H727 C726 0.961 . S
H728 C726 0.961 . S
H729 C726 0.960 . S
C730 N731 1.342 . S
C730 C734 1.401 . S
C730 C735 1.499 . S
N731 Co714 1.989 . S
N731 C730 1.342 . S
N731 N732 1.388 . S
N732 Co715 1.993 . S
N732 N731 1.388 . S
N732 C733 1.346 . S
C733 N732 1.346 . S
C733 C734 1.396 . S
C733 C743 1.510 . S
C734 C730 1.401 . S
C734 C733 1.396 . S
C735 C730 1.499 . S
C735 H736 0.959 . S
C735 H737 0.960 . S
C735 H738 0.961 . S
H736 C735 0.959 . S
H737 C735 0.960 . S
H738 C735 0.961 . S
O739 Co714 1.967 . S
O739 C747 1.258 . S
O740 Co715 1.941 . S
O740 C747 1.266 . S
H741 C743 0.959 . S
H742 C743 0.961 . S
C743 C733 1.510 . S
C743 H741 0.959 . S
C743 H742 0.961 . S
C743 H744 0.960 . S
H744 C743 0.960 . S
H745 N725 0.862 . S
O746 Co714 1.920 . S
O746 C719 1.289 . S
C747 O739 1.258 . S
C747 O740 1.266 . S
Co748 O751 1.970 . S
Co748 N765 1.989 . S
Co748 O773 1.967 . S
Co748 O780 1.920 1_556 S
Co749 O752 1.966 . S
Co749 N758 2.022 . S
Co749 N766 1.993 . S
Co749 O774 1.941 . S
C750 O751 1.258 . S
C750 O752 1.263 . S
O751 Co748 1.970 . S
O751 C750 1.258 . S
O752 Co749 1.966 . S
O752 C750 1.263 . S
C753 O754 1.235 . S
C753 O780 1.289 . S
O754 C753 1.235 . S
C755 C757 1.400 . S
C755 N758 1.351 . S
C755 C760 1.501 . S
C756 C757 1.387 . S
C756 N759 1.341 . S
C757 C755 1.400 . S
C757 C756 1.387 . S
N758 Co749 2.022 . S
N758 C755 1.351 . S
N758 N759 1.365 . S
N759 C756 1.341 . S
N759 N758 1.365 . S
N759 H779 0.862 . S
C760 C755 1.501 . S
C760 H761 0.961 . S
C760 H762 0.961 . S
C760 H763 0.960 . S
H761 C760 0.961 . S
H762 C760 0.961 . S
H763 C760 0.960 . S
C764 N765 1.342 . S
C764 C768 1.401 . S
C764 C769 1.499 1_556 S
N765 Co748 1.989 . S
N765 C764 1.342 . S
N765 N766 1.388 . S
N766 Co749 1.993 . S
N766 N765 1.388 . S
N766 C767 1.346 . S
C767 N766 1.346 . S
C767 C768 1.396 . S
C767 C777 1.510 . S
C768 C764 1.401 . S
C768 C767 1.396 . S
C769 C764 1.499 1_554 S
C769 H770 0.959 . S
C769 H771 0.960 . S
C769 H772 0.961 . S
H770 C769 0.959 . S
H771 C769 0.960 . S
H772 C769 0.961 . S
O773 Co748 1.967 . S
O773 C781 1.258 . S
O774 Co749 1.941 . S
O774 C781 1.266 . S
H775 C777 0.959 . S
H776 C777 0.961 . S
C777 C767 1.510 . S
C777 H775 0.959 . S
C777 H776 0.961 . S
C777 H778 0.960 . S
H778 C777 0.960 . S
H779 N759 0.862 . S
O780 Co748 1.920 1_554 S
O780 C753 1.289 . S
C781 O773 1.258 . S
C781 O774 1.266 . S
Co782 O785 1.970 . S
Co782 N799 1.989 . S
Co782 O807 1.967 . S
Co782 O814 1.920 . S
Co783 O786 1.966 . S
Co783 N792 2.022 1_554 S
Co783 N800 1.993 . S
Co783 O808 1.941 . S
C784 O785 1.258 . S
C784 O786 1.263 . S
O785 Co782 1.970 . S
O785 C784 1.258 . S
O786 Co783 1.966 . S
O786 C784 1.263 . S
C787 O788 1.235 . S
C787 O814 1.289 . S
O788 C787 1.235 . S
C789 C791 1.400 . S
C789 N792 1.351 . S
C789 C794 1.501 . S
C790 C791 1.387 . S
C790 N793 1.341 . S
C791 C789 1.400 . S
C791 C790 1.387 . S
N792 Co783 2.022 1_556 S
N792 C789 1.351 . S
N792 N793 1.365 . S
N793 C790 1.341 . S
N793 N792 1.365 . S
N793 H813 0.862 . S
C794 C789 1.501 . S
C794 H795 0.961 1_556 S
C794 H796 0.961 . S
C794 H797 0.960 . S
H795 C794 0.961 1_554 S
H796 C794 0.961 . S
H797 C794 0.960 . S
C798 N799 1.342 . S
C798 C802 1.401 . S
C798 C803 1.499 . S
N799 Co782 1.989 . S
N799 C798 1.342 . S
N799 N800 1.388 . S
N800 Co783 1.993 . S
N800 N799 1.388 . S
N800 C801 1.346 . S
C801 N800 1.346 . S
C801 C802 1.396 . S
C801 C811 1.510 . S
C802 C798 1.401 . S
C802 C801 1.396 . S
C803 C798 1.499 . S
C803 H804 0.959 . S
C803 H805 0.960 . S
C803 H806 0.961 . S
H804 C803 0.959 . S
H805 C803 0.960 . S
H806 C803 0.961 . S
O807 Co782 1.967 . S
O807 C815 1.258 . S
O808 Co783 1.941 . S
O808 C815 1.266 . S
H809 C811 0.959 . S
H810 C811 0.961 . S
C811 C801 1.510 . S
C811 H809 0.959 . S
C811 H810 0.961 . S
C811 H812 0.960 1_554 S
H812 C811 0.960 1_556 S
H813 N793 0.862 . S
O814 Co782 1.920 . S
O814 C787 1.289 . S
C815 O807 1.258 . S
C815 O808 1.266 . S
Co816 O819 1.970 . S
Co816 N833 1.989 . S
Co816 O841 1.967 . S
Co816 O848 1.920 . S
Co817 O820 1.966 . S
Co817 N826 2.022 . S
Co817 N834 1.993 . S
Co817 O842 1.941 . S
C818 O819 1.258 . S
C818 O820 1.263 . S
O819 Co816 1.970 . S
O819 C818 1.258 . S
O820 Co817 1.966 . S
O820 C818 1.263 . S
C821 O822 1.235 . S
C821 O848 1.289 . S
O822 C821 1.235 . S
C823 C825 1.400 . S
C823 N826 1.351 . S
C823 C828 1.501 . S
C824 C825 1.387 . S
C824 N827 1.341 . S
C825 C823 1.400 . S
C825 C824 1.387 . S
N826 Co817 2.022 . S
N826 C823 1.351 . S
N826 N827 1.365 . S
N827 C824 1.341 . S
N827 N826 1.365 . S
N827 H847 0.862 . S
C828 C823 1.501 . S
C828 H829 0.961 . S
C828 H830 0.961 . S
C828 H831 0.960 . S
H829 C828 0.961 . S
H830 C828 0.961 . S
H831 C828 0.960 . S
C832 N833 1.342 . S
C832 C836 1.401 . S
C832 C837 1.499 . S
N833 Co816 1.989 . S
N833 C832 1.342 . S
N833 N834 1.388 . S
N834 Co817 1.993 . S
N834 N833 1.388 . S
N834 C835 1.346 . S
C835 N834 1.346 . S
C835 C836 1.396 . S
C835 C845 1.510 . S
C836 C832 1.401 . S
C836 C835 1.396 . S
C837 C832 1.499 . S
C837 H838 0.959 . S
C837 H839 0.960 . S
C837 H840 0.961 . S
H838 C837 0.959 . S
H839 C837 0.960 . S
H840 C837 0.961 . S
O841 Co816 1.967 . S
O841 C849 1.258 . S
O842 Co817 1.941 . S
O842 C849 1.266 . S
H843 C845 0.959 . S
H844 C845 0.961 . S
C845 C835 1.510 . S
C845 H843 0.959 . S
C845 H844 0.961 . S
C845 H846 0.960 . S
H846 C845 0.960 . S
H847 N827 0.862 . S
O848 Co816 1.920 . S
O848 C821 1.289 . S
C849 O841 1.258 . S
C849 O842 1.266 . S
Co850 O853 1.970 . S
Co850 N867 1.989 . S
Co850 O875 1.967 . S
Co850 O882 1.920 . S
Co851 O854 1.966 . S
Co851 N860 2.022 1_554 S
Co851 N868 1.993 . S
Co851 O876 1.941 . S
C852 O853 1.258 . S
C852 O854 1.263 . S
O853 Co850 1.970 . S
O853 C852 1.258 . S
O854 Co851 1.966 . S
O854 C852 1.263 . S
C855 O856 1.235 . S
C855 O882 1.289 . S
O856 C855 1.235 . S
C857 C859 1.400 . S
C857 N860 1.351 . S
C857 C862 1.501 . S
C858 C859 1.387 . S
C858 N861 1.341 . S
C859 C857 1.400 . S
C859 C858 1.387 . S
N860 Co851 2.022 1_556 S
N860 C857 1.351 . S
N860 N861 1.365 . S
N861 C858 1.341 . S
N861 N860 1.365 . S
N861 H881 0.862 . S
C862 C857 1.501 . S
C862 H863 0.961 1_556 S
C862 H864 0.961 . S
C862 H865 0.960 . S
H863 C862 0.961 1_554 S
H864 C862 0.961 . S
H865 C862 0.960 . S
C866 N867 1.342 . S
C866 C870 1.401 . S
C866 C871 1.499 . S
N867 Co850 1.989 . S
N867 C866 1.342 . S
N867 N868 1.388 . S
N868 Co851 1.993 . S
N868 N867 1.388 . S
N868 C869 1.346 . S
C869 N868 1.346 . S
C869 C870 1.396 . S
C869 C879 1.510 . S
C870 C866 1.401 . S
C870 C869 1.396 . S
C871 C866 1.499 . S
C871 H872 0.959 . S
C871 H873 0.960 . S
C871 H874 0.961 . S
H872 C871 0.959 . S
H873 C871 0.960 . S
H874 C871 0.961 . S
O875 Co850 1.967 . S
O875 C883 1.258 . S
O876 Co851 1.941 . S
O876 C883 1.266 . S
H877 C879 0.959 . S
H878 C879 0.961 . S
C879 C869 1.510 . S
C879 H877 0.959 . S
C879 H878 0.961 . S
C879 H880 0.960 1_554 S
H880 C879 0.960 1_556 S
H881 N861 0.862 . S
O882 Co850 1.920 . S
O882 C855 1.289 . S
C883 O875 1.258 . S
C883 O876 1.266 . S
Co884 O887 1.970 . S
Co884 N901 1.989 . S
Co884 O909 1.967 . S
Co884 O916 1.920 1_556 S
Co885 O888 1.966 . S
Co885 N894 2.022 . S
Co885 N902 1.993 . S
Co885 O910 1.941 . S
C886 O887 1.258 . S
C886 O888 1.263 . S
O887 Co884 1.970 . S
O887 C886 1.258 . S
O888 Co885 1.966 . S
O888 C886 1.263 . S
C889 O890 1.235 . S
C889 O916 1.289 . S
O890 C889 1.235 . S
C891 C893 1.400 . S
C891 N894 1.351 . S
C891 C896 1.501 . S
C892 C893 1.387 . S
C892 N895 1.341 . S
C893 C891 1.400 . S
C893 C892 1.387 . S
N894 Co885 2.022 . S
N894 C891 1.351 . S
N894 N895 1.365 . S
N895 C892 1.341 . S
N895 N894 1.365 . S
N895 H915 0.862 . S
C896 C891 1.501 . S
C896 H897 0.961 . S
C896 H898 0.961 . S
C896 H899 0.960 . S
H897 C896 0.961 . S
H898 C896 0.961 . S
H899 C896 0.960 . S
C900 N901 1.342 . S
C900 C904 1.401 . S
C900 C905 1.499 1_556 S
N901 Co884 1.989 . S
N901 C900 1.342 . S
N901 N902 1.388 . S
N902 Co885 1.993 . S
N902 N901 1.388 . S
N902 C903 1.346 . S
C903 N902 1.346 . S
C903 C904 1.396 . S
C903 C913 1.510 . S
C904 C900 1.401 . S
C904 C903 1.396 . S
C905 C900 1.499 1_554 S
C905 H906 0.959 . S
C905 H907 0.960 . S
C905 H908 0.961 . S
H906 C905 0.959 . S
H907 C905 0.960 . S
H908 C905 0.961 . S
O909 Co884 1.967 . S
O909 C917 1.258 . S
O910 Co885 1.941 . S
O910 C917 1.266 . S
H911 C913 0.959 . S
H912 C913 0.961 . S
C913 C903 1.510 . S
C913 H911 0.959 . S
C913 H912 0.961 . S
C913 H914 0.960 . S
H914 C913 0.960 . S
H915 N895 0.862 . S
O916 Co884 1.920 1_554 S
O916 C889 1.289 . S
C917 O909 1.258 . S
C917 O910 1.266 . S
Co918 O921 1.970 . S
Co918 N935 1.989 . S
Co918 O943 1.967 . S
Co918 O950 1.920 . S
Co919 O922 1.966 . S
Co919 N928 2.022 . S
Co919 N936 1.993 . S
Co919 O944 1.941 . S
C920 O921 1.258 . S
C920 O922 1.263 . S
O921 Co918 1.970 . S
O921 C920 1.258 . S
O922 Co919 1.966 . S
O922 C920 1.263 . S
C923 O924 1.235 . S
C923 O950 1.289 . S
O924 C923 1.235 . S
C925 C927 1.400 . S
C925 N928 1.351 . S
C925 C930 1.501 . S
C926 C927 1.387 . S
C926 N929 1.341 . S
C927 C925 1.400 . S
C927 C926 1.387 . S
N928 Co919 2.022 . S
N928 C925 1.351 . S
N928 N929 1.365 . S
N929 C926 1.341 . S
N929 N928 1.365 . S
N929 H949 0.862 . S
C930 C925 1.501 . S
C930 H931 0.961 . S
C930 H932 0.961 . S
C930 H933 0.960 . S
H931 C930 0.961 . S
H932 C930 0.961 . S
H933 C930 0.960 . S
C934 N935 1.342 . S
C934 C938 1.401 . S
C934 C939 1.499 . S
N935 Co918 1.989 . S
N935 C934 1.342 . S
N935 N936 1.388 . S
N936 Co919 1.993 . S
N936 N935 1.388 . S
N936 C937 1.346 . S
C937 N936 1.346 . S
C937 C938 1.396 . S
C937 C947 1.510 . S
C938 C934 1.401 . S
C938 C937 1.396 . S
C939 C934 1.499 . S
C939 H940 0.959 . S
C939 H941 0.960 . S
C939 H942 0.961 . S
H940 C939 0.959 . S
H941 C939 0.960 . S
H942 C939 0.961 . S
O943 Co918 1.967 . S
O943 C951 1.258 . S
O944 Co919 1.941 . S
O944 C951 1.266 . S
H945 C947 0.959 . S
H946 C947 0.961 . S
C947 C937 1.510 . S
C947 H945 0.959 . S
C947 H946 0.961 . S
C947 H948 0.960 . S
H948 C947 0.960 . S
H949 N929 0.862 . S
O950 Co918 1.920 . S
O950 C923 1.289 . S
C951 O943 1.258 . S
C951 O944 1.266 . S
Co952 O955 1.970 . S
Co952 N969 1.989 . S
Co952 O977 1.967 . S
Co952 O984 1.920 . S
Co953 O956 1.966 . S
Co953 N962 2.022 . S
Co953 N970 1.993 . S
Co953 O978 1.941 . S
C954 O955 1.258 . S
C954 O956 1.263 . S
O955 Co952 1.970 . S
O955 C954 1.258 . S
O956 Co953 1.966 . S
O956 C954 1.263 . S
C957 O958 1.235 . S
C957 O984 1.289 . S
O958 C957 1.235 . S
C959 C961 1.400 . S
C959 N962 1.351 . S
C959 C964 1.501 . S
C960 C961 1.387 . S
C960 N963 1.341 . S
C961 C959 1.400 . S
C961 C960 1.387 . S
N962 Co953 2.022 . S
N962 C959 1.351 . S
N962 N963 1.365 . S
N963 C960 1.341 . S
N963 N962 1.365 . S
N963 H983 0.862 . S
C964 C959 1.501 . S
C964 H965 0.961 . S
C964 H966 0.961 . S
C964 H967 0.960 . S
H965 C964 0.961 . S
H966 C964 0.961 . S
H967 C964 0.960 . S
C968 N969 1.342 . S
C968 C972 1.401 . S
C968 C973 1.499 . S
N969 Co952 1.989 . S
N969 C968 1.342 . S
N969 N970 1.388 . S
N970 Co953 1.993 . S
N970 N969 1.388 . S
N970 C971 1.346 . S
C971 N970 1.346 . S
C971 C972 1.396 . S
C971 C981 1.510 . S
C972 C968 1.401 . S
C972 C971 1.396 . S
C973 C968 1.499 . S
C973 H974 0.959 . S
C973 H975 0.960 . S
C973 H976 0.961 . S
H974 C973 0.959 . S
H975 C973 0.960 . S
H976 C973 0.961 . S
O977 Co952 1.967 . S
O977 C985 1.258 . S
O978 Co953 1.941 . S
O978 C985 1.266 . S
H979 C981 0.959 . S
H980 C981 0.961 . S
C981 C971 1.510 . S
C981 H979 0.959 . S
C981 H980 0.961 . S
C981 H982 0.960 . S
H982 C981 0.960 . S
H983 N963 0.862 . S
O984 Co952 1.920 . S
O984 C957 1.289 . S
C985 O977 1.258 . S
C985 O978 1.266 . S
Co986 O989 1.970 . S
Co986 N1003 1.989 . S
Co986 O1011 1.967 . S
Co986 O1018 1.920 . S
Co987 O990 1.966 . S
Co987 N996 2.022 . S
Co987 N1004 1.993 . S
Co987 O1012 1.941 . S
C988 O989 1.258 . S
C988 O990 1.263 . S
O989 Co986 1.970 . S
O989 C988 1.258 . S
O990 Co987 1.966 . S
O990 C988 1.263 . S
C991 O992 1.235 . S
C991 O1018 1.289 . S
O992 C991 1.235 . S
C993 C995 1.400 . S
C993 N996 1.351 . S
C993 C998 1.501 . S
C994 C995 1.387 . S
C994 N997 1.341 . S
C995 C993 1.400 . S
C995 C994 1.387 . S
N996 Co987 2.022 . S
N996 C993 1.351 . S
N996 N997 1.365 . S
N997 C994 1.341 . S
N997 N996 1.365 . S
N997 H1017 0.862 . S
C998 C993 1.501 . S
C998 H999 0.961 . S
C998 H1000 0.961 . S
C998 H1001 0.960 . S
H999 C998 0.961 . S
H1000 C998 0.961 . S
H1001 C998 0.960 . S
C1002 N1003 1.342 . S
C1002 C1006 1.401 . S
C1002 C1007 1.499 . S
N1003 Co986 1.989 . S
N1003 C1002 1.342 . S
N1003 N1004 1.388 . S
N1004 Co987 1.993 . S
N1004 N1003 1.388 . S
N1004 C1005 1.346 . S
C1005 N1004 1.346 . S
C1005 C1006 1.396 . S
C1005 C1015 1.510 . S
C1006 C1002 1.401 . S
C1006 C1005 1.396 . S
C1007 C1002 1.499 . S
C1007 H1008 0.959 . S
C1007 H1009 0.960 . S
C1007 H1010 0.961 . S
H1008 C1007 0.959 . S
H1009 C1007 0.960 . S
H1010 C1007 0.961 . S
O1011 Co986 1.967 . S
O1011 C1019 1.258 . S
O1012 Co987 1.941 . S
O1012 C1019 1.266 . S
H1013 C1015 0.959 . S
H1014 C1015 0.961 . S
C1015 C1005 1.510 . S
C1015 H1013 0.959 . S
C1015 H1014 0.961 . S
C1015 H1016 0.960 . S
H1016 C1015 0.960 . S
H1017 N997 0.862 . S
O1018 Co986 1.920 . S
O1018 C991 1.289 . S
C1019 O1011 1.258 . S
C1019 O1012 1.266 . S
Co1020 O1023 1.970 . S
Co1020 N1037 1.989 . S
Co1020 O1045 1.967 . S
Co1020 O1052 1.920 1_554 S
Co1021 O1024 1.966 . S
Co1021 N1030 2.022 . S
Co1021 N1038 1.993 . S
Co1021 O1046 1.941 . S
C1022 O1023 1.258 . S
C1022 O1024 1.263 . S
O1023 Co1020 1.970 . S
O1023 C1022 1.258 . S
O1024 Co1021 1.966 . S
O1024 C1022 1.263 . S
C1025 O1026 1.235 . S
C1025 O1052 1.289 . S
O1026 C1025 1.235 . S
C1027 C1029 1.400 . S
C1027 N1030 1.351 . S
C1027 C1032 1.501 . S
C1028 C1029 1.387 . S
C1028 N1031 1.341 . S
C1029 C1027 1.400 . S
C1029 C1028 1.387 . S
N1030 Co1021 2.022 . S
N1030 C1027 1.351 . S
N1030 N1031 1.365 . S
N1031 C1028 1.341 . S
N1031 N1030 1.365 . S
N1031 H1051 0.862 . S
C1032 C1027 1.501 . S
C1032 H1033 0.961 . S
C1032 H1034 0.961 . S
C1032 H1035 0.960 . S
H1033 C1032 0.961 . S
H1034 C1032 0.961 . S
H1035 C1032 0.960 . S
C1036 N1037 1.342 . S
C1036 C1040 1.401 . S
C1036 C1041 1.499 1_554 S
N1037 Co1020 1.989 . S
N1037 C1036 1.342 . S
N1037 N1038 1.388 . S
N1038 Co1021 1.993 . S
N1038 N1037 1.388 . S
N1038 C1039 1.346 . S
C1039 N1038 1.346 . S
C1039 C1040 1.396 . S
C1039 C1049 1.510 . S
C1040 C1036 1.401 . S
C1040 C1039 1.396 . S
C1041 C1036 1.499 1_556 S
C1041 H1042 0.959 . S
C1041 H1043 0.960 . S
C1041 H1044 0.961 . S
H1042 C1041 0.959 . S
H1043 C1041 0.960 . S
H1044 C1041 0.961 . S
O1045 Co1020 1.967 . S
O1045 C1053 1.258 . S
O1046 Co1021 1.941 . S
O1046 C1053 1.266 . S
H1047 C1049 0.959 . S
H1048 C1049 0.961 . S
C1049 C1039 1.510 . S
C1049 H1047 0.959 . S
C1049 H1048 0.961 . S
C1049 H1050 0.960 . S
H1050 C1049 0.960 . S
H1051 N1031 0.862 . S
O1052 Co1020 1.920 1_556 S
O1052 C1025 1.289 . S
C1053 O1045 1.258 . S
C1053 O1046 1.266 . S
Co1054 O1057 1.970 . S
Co1054 N1071 1.989 . S
Co1054 O1079 1.967 . S
Co1054 O1086 1.920 . S
Co1055 O1058 1.966 . S
Co1055 N1064 2.022 1_556 S
Co1055 N1072 1.993 . S
Co1055 O1080 1.941 . S
C1056 O1057 1.258 . S
C1056 O1058 1.263 . S
O1057 Co1054 1.970 . S
O1057 C1056 1.258 . S
O1058 Co1055 1.966 . S
O1058 C1056 1.263 . S
C1059 O1060 1.235 . S
C1059 O1086 1.289 . S
O1060 C1059 1.235 . S
C1061 C1063 1.400 . S
C1061 N1064 1.351 . S
C1061 C1066 1.501 . S
C1062 C1063 1.387 . S
C1062 N1065 1.341 . S
C1063 C1061 1.400 . S
C1063 C1062 1.387 . S
N1064 Co1055 2.022 1_554 S
N1064 C1061 1.351 . S
N1064 N1065 1.365 . S
N1065 C1062 1.341 . S
N1065 N1064 1.365 . S
N1065 H1085 0.862 . S
C1066 C1061 1.501 . S
C1066 H1067 0.961 1_554 S
C1066 H1068 0.961 . S
C1066 H1069 0.960 . S
H1067 C1066 0.961 1_556 S
H1068 C1066 0.961 . S
H1069 C1066 0.960 . S
C1070 N1071 1.342 . S
C1070 C1074 1.401 . S
C1070 C1075 1.499 . S
N1071 Co1054 1.989 . S
N1071 C1070 1.342 . S
N1071 N1072 1.388 . S
N1072 Co1055 1.993 . S
N1072 N1071 1.388 . S
N1072 C1073 1.346 . S
C1073 N1072 1.346 . S
C1073 C1074 1.396 . S
C1073 C1083 1.510 . S
C1074 C1070 1.401 . S
C1074 C1073 1.396 . S
C1075 C1070 1.499 . S
C1075 H1076 0.959 . S
C1075 H1077 0.960 . S
C1075 H1078 0.961 . S
H1076 C1075 0.959 . S
H1077 C1075 0.960 . S
H1078 C1075 0.961 . S
O1079 Co1054 1.967 . S
O1079 C1087 1.258 . S
O1080 Co1055 1.941 . S
O1080 C1087 1.266 . S
H1081 C1083 0.959 . S
H1082 C1083 0.961 . S
C1083 C1073 1.510 . S
C1083 H1081 0.959 . S
C1083 H1082 0.961 . S
C1083 H1084 0.960 1_556 S
H1084 C1083 0.960 1_554 S
H1085 N1065 0.862 . S
O1086 Co1054 1.920 . S
O1086 C1059 1.289 . S
C1087 O1079 1.258 . S
C1087 O1080 1.266 . S
H1088 C1094 0.930 . S
H1089 C1098 0.930 . S
H1090 C1103 0.929 . S
H1091 C1101 0.929 . S
H1092 C1096 0.929 . S
H1093 C1102 0.929 . S
C1094 H1088 0.930 . S
C1094 C1095 1.367 . S
C1094 C1102 1.378 . S
C1095 C1094 1.367 . S
C1095 C1103 1.433 . S
C1096 H1092 0.929 . S
C1096 C1098 1.378 . S
C1096 C1100 1.350 . S
C1097 C1100 1.463 . S
C1097 C1102 1.350 . S
C1097 N1105 1.427 . S
C1098 H1089 0.930 . S
C1098 C1096 1.378 . S
C1098 C1099 1.367 . S
C1099 C1098 1.367 . S
C1099 C1101 1.433 . S
C1100 C1096 1.350 . S
C1100 C1097 1.463 . S
C1100 N1104 1.427 . S
C1101 H1091 0.929 . S
C1101 C1099 1.433 . S
C1101 N1104 1.384 . S
C1102 H1093 0.929 . S
C1102 C1094 1.378 . S
C1102 C1097 1.350 . S
C1103 H1090 0.929 . S
C1103 C1095 1.433 . S
C1103 N1105 1.384 . S
N1104 C1100 1.427 . S
N1104 C1101 1.384 . S
N1105 C1097 1.427 . S
N1105 C1103 1.384 . S
H1106 C1112 0.930 . S
H1107 C1116 0.930 . S
H1108 C1121 0.929 . S
H1109 C1119 0.929 . S
H1110 C1114 0.929 . S
H1111 C1120 0.929 . S
C1112 H1106 0.930 . S
C1112 C1113 1.367 . S
C1112 C1120 1.378 . S
C1113 C1112 1.367 . S
C1113 C1121 1.433 . S
C1114 H1110 0.929 . S
C1114 C1116 1.378 1_556 S
C1114 C1118 1.350 . S
C1115 C1118 1.463 . S
C1115 C1120 1.350 . S
C1115 N1123 1.427 . S
C1116 H1107 0.930 . S
C1116 C1114 1.378 1_554 S
C1116 C1117 1.367 . S
C1117 C1116 1.367 . S
C1117 C1119 1.433 . S
C1118 C1114 1.350 . S
C1118 C1115 1.463 . S
C1118 N1122 1.427 . S
C1119 H1109 0.929 . S
C1119 C1117 1.433 . S
C1119 N1122 1.384 1_554 S
C1120 H1111 0.929 . S
C1120 C1112 1.378 . S
C1120 C1115 1.350 . S
C1121 H1108 0.929 . S
C1121 C1113 1.433 . S
C1121 N1123 1.384 . S
N1122 C1118 1.427 . S
N1122 C1119 1.384 1_556 S
N1123 C1115 1.427 . S
N1123 C1121 1.384 . S
H1124 C1130 0.930 . S
H1125 C1134 0.930 . S
H1126 C1139 0.929 . S
H1127 C1137 0.929 . S
H1128 C1132 0.929 . S
H1129 C1138 0.929 . S
C1130 H1124 0.930 . S
C1130 C1131 1.367 . S
C1130 C1138 1.378 1_556 S
C1131 C1130 1.367 . S
C1131 C1139 1.433 . S
C1132 H1128 0.929 . S
C1132 C1134 1.378 . S
C1132 C1136 1.350 . S
C1133 C1136 1.463 . S
C1133 C1138 1.350 . S
C1133 N1141 1.427 . S
C1134 H1125 0.930 . S
C1134 C1132 1.378 . S
C1134 C1135 1.367 . S
C1135 C1134 1.367 . S
C1135 C1137 1.433 . S
C1136 C1132 1.350 . S
C1136 C1133 1.463 . S
C1136 N1140 1.427 . S
C1137 H1127 0.929 . S
C1137 C1135 1.433 . S
C1137 N1140 1.384 . S
C1138 H1129 0.929 . S
C1138 C1130 1.378 1_554 S
C1138 C1133 1.350 . S
C1139 H1126 0.929 . S
C1139 C1131 1.433 . S
C1139 N1141 1.384 1_556 S
N1140 C1136 1.427 . S
N1140 C1137 1.384 . S
N1141 C1133 1.427 . S
N1141 C1139 1.384 1_554 S
H1142 C1148 0.930 . S
H1143 C1152 0.930 . S
H1144 C1157 0.929 . S
H1145 C1155 0.929 . S
H1146 C1150 0.929 . S
H1147 C1156 0.929 . S
C1148 H1142 0.930 . S
C1148 C1149 1.367 . S
C1148 C1156 1.378 . S
C1149 C1148 1.367 . S
C1149 C1157 1.433 . S
C1150 H1146 0.929 . S
C1150 C1152 1.378 . S
C1150 C1154 1.350 . S
C1151 C1154 1.463 . S
C1151 C1156 1.350 . S
C1151 N1159 1.427 . S
C1152 H1143 0.930 . S
C1152 C1150 1.378 . S
C1152 C1153 1.367 . S
C1153 C1152 1.367 . S
C1153 C1155 1.433 . S
C1154 C1150 1.350 . S
C1154 C1151 1.463 . S
C1154 N1158 1.427 . S
C1155 H1145 0.929 . S
C1155 C1153 1.433 . S
C1155 N1158 1.384 . S
C1156 H1147 0.929 . S
C1156 C1148 1.378 . S
C1156 C1151 1.350 . S
C1157 H1144 0.929 . S
C1157 C1149 1.433 . S
C1157 N1159 1.384 . S
N1158 C1154 1.427 . S
N1158 C1155 1.384 . S
N1159 C1151 1.427 . S
N1159 C1157 1.384 . S
H1160 C1166 0.930 . S
H1161 C1170 0.930 . S
H1162 C1175 0.929 . S
H1163 C1173 0.929 . S
H1164 C1168 0.929 . S
H1165 C1174 0.929 . S
C1166 H1160 0.930 . S
C1166 C1167 1.367 . S
C1166 C1174 1.378 . S
C1167 C1166 1.367 . S
C1167 C1175 1.433 . S
C1168 H1164 0.929 . S
C1168 C1170 1.378 . S
C1168 C1172 1.350 . S
C1169 C1172 1.463 . S
C1169 C1174 1.350 . S
C1169 N1177 1.427 . S
C1170 H1161 0.930 . S
C1170 C1168 1.378 . S
C1170 C1171 1.367 . S
C1171 C1170 1.367 . S
C1171 C1173 1.433 . S
C1172 C1168 1.350 . S
C1172 C1169 1.463 . S
C1172 N1176 1.427 . S
C1173 H1163 0.929 . S
C1173 C1171 1.433 . S
C1173 N1176 1.384 . S
C1174 H1165 0.929 . S
C1174 C1166 1.378 . S
C1174 C1169 1.350 . S
C1175 H1162 0.929 . S
C1175 C1167 1.433 . S
C1175 N1177 1.384 . S
N1176 C1172 1.427 . S
N1176 C1173 1.384 . S
N1177 C1169 1.427 . S
N1177 C1175 1.384 . S
H1178 C1184 0.930 . S
H1179 C1188 0.930 . S
H1180 C1193 0.929 . S
H1181 C1191 0.929 . S
H1182 C1186 0.929 . S
H1183 C1192 0.929 . S
C1184 H1178 0.930 . S
C1184 C1185 1.367 . S
C1184 C1192 1.378 . S
C1185 C1184 1.367 . S
C1185 C1193 1.433 . S
C1186 H1182 0.929 . S
C1186 C1188 1.378 . S
C1186 C1190 1.350 . S
C1187 C1190 1.463 . S
C1187 C1192 1.350 . S
C1187 N1195 1.427 . S
C1188 H1179 0.930 . S
C1188 C1186 1.378 . S
C1188 C1189 1.367 . S
C1189 C1188 1.367 . S
C1189 C1191 1.433 . S
C1190 C1186 1.350 . S
C1190 C1187 1.463 . S
C1190 N1194 1.427 . S
C1191 H1181 0.929 . S
C1191 C1189 1.433 . S
C1191 N1194 1.384 . S
C1192 H1183 0.929 . S
C1192 C1184 1.378 . S
C1192 C1187 1.350 . S
C1193 H1180 0.929 . S
C1193 C1185 1.433 . S
C1193 N1195 1.384 . S
N1194 C1190 1.427 . S
N1194 C1191 1.384 . S
N1195 C1187 1.427 . S
N1195 C1193 1.384 . S
H1196 C1202 0.930 . S
H1197 C1206 0.930 . S
H1198 C1211 0.929 . S
H1199 C1209 0.929 . S
H1200 C1204 0.929 . S
H1201 C1210 0.929 . S
C1202 H1196 0.930 . S
C1202 C1203 1.367 . S
C1202 C1210 1.378 . S
C1203 C1202 1.367 . S
C1203 C1211 1.433 . S
C1204 H1200 0.929 . S
C1204 C1206 1.378 1_556 S
C1204 C1208 1.350 . S
C1205 C1208 1.463 . S
C1205 C1210 1.350 . S
C1205 N1213 1.427 . S
C1206 H1197 0.930 . S
C1206 C1204 1.378 1_554 S
C1206 C1207 1.367 . S
C1207 C1206 1.367 . S
C1207 C1209 1.433 . S
C1208 C1204 1.350 . S
C1208 C1205 1.463 . S
C1208 N1212 1.427 . S
C1209 H1199 0.929 . S
C1209 C1207 1.433 . S
C1209 N1212 1.384 1_554 S
C1210 H1201 0.929 . S
C1210 C1202 1.378 . S
C1210 C1205 1.350 . S
C1211 H1198 0.929 . S
C1211 C1203 1.433 . S
C1211 N1213 1.384 . S
N1212 C1208 1.427 . S
N1212 C1209 1.384 1_556 S
N1213 C1205 1.427 . S
N1213 C1211 1.384 . S
H1214 C1220 0.930 . S
H1215 C1224 0.930 . S
H1216 C1229 0.929 . S
H1217 C1227 0.929 . S
H1218 C1222 0.929 . S
H1219 C1228 0.929 . S
C1220 H1214 0.930 . S
C1220 C1221 1.367 . S
C1220 C1228 1.378 1_556 S
C1221 C1220 1.367 . S
C1221 C1229 1.433 . S
C1222 H1218 0.929 . S
C1222 C1224 1.378 . S
C1222 C1226 1.350 . S
C1223 C1226 1.463 . S
C1223 C1228 1.350 . S
C1223 N1231 1.427 . S
C1224 H1215 0.930 . S
C1224 C1222 1.378 . S
C1224 C1225 1.367 . S
C1225 C1224 1.367 . S
C1225 C1227 1.433 . S
C1226 C1222 1.350 . S
C1226 C1223 1.463 . S
C1226 N1230 1.427 . S
C1227 H1217 0.929 . S
C1227 C1225 1.433 . S
C1227 N1230 1.384 . S
C1228 H1219 0.929 . S
C1228 C1220 1.378 1_554 S
C1228 C1223 1.350 . S
C1229 H1216 0.929 . S
C1229 C1221 1.433 . S
C1229 N1231 1.384 1_556 S
N1230 C1226 1.427 . S
N1230 C1227 1.384 . S
N1231 C1223 1.427 . S
N1231 C1229 1.384 1_554 S
H1232 C1238 0.930 . S
H1233 C1242 0.930 . S
H1234 C1247 0.929 . S
H1235 C1245 0.929 . S
H1236 C1240 0.929 . S
H1237 C1246 0.929 . S
C1238 H1232 0.930 . S
C1238 C1239 1.367 . S
C1238 C1246 1.378 . S
C1239 C1238 1.367 . S
C1239 C1247 1.433 . S
C1240 H1236 0.929 . S
C1240 C1242 1.378 . S
C1240 C1244 1.350 . S
C1241 C1244 1.463 . S
C1241 C1246 1.350 . S
C1241 N1249 1.427 . S
C1242 H1233 0.930 . S
C1242 C1240 1.378 . S
C1242 C1243 1.367 . S
C1243 C1242 1.367 . S
C1243 C1245 1.433 . S
C1244 C1240 1.350 . S
C1244 C1241 1.463 . S
C1244 N1248 1.427 . S
C1245 H1235 0.929 . S
C1245 C1243 1.433 . S
C1245 N1248 1.384 . S
C1246 H1237 0.929 . S
C1246 C1238 1.378 . S
C1246 C1241 1.350 . S
C1247 H1234 0.929 . S
C1247 C1239 1.433 . S
C1247 N1249 1.384 . S
N1248 C1244 1.427 . S
N1248 C1245 1.384 . S
N1249 C1241 1.427 . S
N1249 C1247 1.384 . S
H1250 C1256 0.930 . S
H1251 C1260 0.930 . S
H1252 C1265 0.929 . S
H1253 C1263 0.929 . S
H1254 C1258 0.929 . S
H1255 C1264 0.929 . S
C1256 H1250 0.930 . S
C1256 C1257 1.367 . S
C1256 C1264 1.378 1_556 S
C1257 C1256 1.367 . S
C1257 C1265 1.433 . S
C1258 H1254 0.929 . S
C1258 C1260 1.378 . S
C1258 C1262 1.350 . S
C1259 C1262 1.463 . S
C1259 C1264 1.350 . S
C1259 N1267 1.427 . S
C1260 H1251 0.930 . S
C1260 C1258 1.378 . S
C1260 C1261 1.367 . S
C1261 C1260 1.367 . S
C1261 C1263 1.433 . S
C1262 C1258 1.350 . S
C1262 C1259 1.463 . S
C1262 N1266 1.427 . S
C1263 H1253 0.929 . S
C1263 C1261 1.433 . S
C1263 N1266 1.384 . S
C1264 H1255 0.929 . S
C1264 C1256 1.378 1_554 S
C1264 C1259 1.350 . S
C1265 H1252 0.929 . S
C1265 C1257 1.433 . S
C1265 N1267 1.384 1_556 S
N1266 C1262 1.427 . S
N1266 C1263 1.384 . S
N1267 C1259 1.427 . S
N1267 C1265 1.384 1_554 S
H1268 C1274 0.930 . S
H1269 C1278 0.930 . S
H1270 C1283 0.929 . S
H1271 C1281 0.929 . S
H1272 C1276 0.929 . S
H1273 C1282 0.929 . S
C1274 H1268 0.930 . S
C1274 C1275 1.367 . S
C1274 C1282 1.378 . S
C1275 C1274 1.367 . S
C1275 C1283 1.433 . S
C1276 H1272 0.929 . S
C1276 C1278 1.378 1_556 S
C1276 C1280 1.350 . S
C1277 C1280 1.463 . S
C1277 C1282 1.350 . S
C1277 N1285 1.427 . S
C1278 H1269 0.930 . S
C1278 C1276 1.378 1_554 S
C1278 C1279 1.367 . S
C1279 C1278 1.367 . S
C1279 C1281 1.433 . S
C1280 C1276 1.350 . S
C1280 C1277 1.463 . S
C1280 N1284 1.427 . S
C1281 H1271 0.929 . S
C1281 C1279 1.433 . S
C1281 N1284 1.384 1_554 S
C1282 H1273 0.929 . S
C1282 C1274 1.378 . S
C1282 C1277 1.350 . S
C1283 H1270 0.929 . S
C1283 C1275 1.433 . S
C1283 N1285 1.384 . S
N1284 C1280 1.427 . S
N1284 C1281 1.384 1_556 S
N1285 C1277 1.427 . S
N1285 C1283 1.384 . S
H1286 C1292 0.930 . S
H1287 C1296 0.930 . S
H1288 C1301 0.929 . S
H1289 C1299 0.929 . S
H1290 C1294 0.929 . S
H1291 C1300 0.929 . S
C1292 H1286 0.930 . S
C1292 C1293 1.367 . S
C1292 C1300 1.378 . S
C1293 C1292 1.367 . S
C1293 C1301 1.433 . S
C1294 H1290 0.929 . S
C1294 C1296 1.378 . S
C1294 C1298 1.350 . S
C1295 C1298 1.463 . S
C1295 C1300 1.350 . S
C1295 N1303 1.427 . S
C1296 H1287 0.930 . S
C1296 C1294 1.378 . S
C1296 C1297 1.367 . S
C1297 C1296 1.367 . S
C1297 C1299 1.433 . S
C1298 C1294 1.350 . S
C1298 C1295 1.463 . S
C1298 N1302 1.427 . S
C1299 H1289 0.929 . S
C1299 C1297 1.433 . S
C1299 N1302 1.384 . S
C1300 H1291 0.929 . S
C1300 C1292 1.378 . S
C1300 C1295 1.350 . S
C1301 H1288 0.929 . S
C1301 C1293 1.433 . S
C1301 N1303 1.384 . S
N1302 C1298 1.427 . S
N1302 C1299 1.384 . S
N1303 C1295 1.427 . S
N1303 C1301 1.384 . S
H1304 C1310 0.930 . S
H1305 C1314 0.930 . S
H1306 C1319 0.929 . S
H1307 C1317 0.929 . S
H1308 C1312 0.929 . S
H1309 C1318 0.929 . S
C1310 H1304 0.930 . S
C1310 C1311 1.367 . S
C1310 C1318 1.378 . S
C1311 C1310 1.367 . S
C1311 C1319 1.433 . S
C1312 H1308 0.929 . S
C1312 C1314 1.378 . S
C1312 C1316 1.350 . S
C1313 C1316 1.463 . S
C1313 C1318 1.350 . S
C1313 N1321 1.427 . S
C1314 H1305 0.930 . S
C1314 C1312 1.378 . S
C1314 C1315 1.367 . S
C1315 C1314 1.367 . S
C1315 C1317 1.433 . S
C1316 C1312 1.350 . S
C1316 C1313 1.463 . S
C1316 N1320 1.427 . S
C1317 H1307 0.929 . S
C1317 C1315 1.433 . S
C1317 N1320 1.384 . S
C1318 H1309 0.929 . S
C1318 C1310 1.378 . S
C1318 C1313 1.350 . S
C1319 H1306 0.929 . S
C1319 C1311 1.433 . S
C1319 N1321 1.384 . S
N1320 C1316 1.427 . S
N1320 C1317 1.384 . S
N1321 C1313 1.427 . S
N1321 C1319 1.384 . S
H1322 C1328 0.930 . S
H1323 C1332 0.930 . S
H1324 C1337 0.929 . S
H1325 C1335 0.929 . S
H1326 C1330 0.929 . S
H1327 C1336 0.929 . S
C1328 H1322 0.930 . S
C1328 C1329 1.367 . S
C1328 C1336 1.378 . S
C1329 C1328 1.367 . S
C1329 C1337 1.433 . S
C1330 H1326 0.929 . S
C1330 C1332 1.378 . S
C1330 C1334 1.350 . S
C1331 C1334 1.463 . S
C1331 C1336 1.350 . S
C1331 N1339 1.427 . S
C1332 H1323 0.930 . S
C1332 C1330 1.378 . S
C1332 C1333 1.367 . S
C1333 C1332 1.367 . S
C1333 C1335 1.433 . S
C1334 C1330 1.350 . S
C1334 C1331 1.463 . S
C1334 N1338 1.427 . S
C1335 H1325 0.929 . S
C1335 C1333 1.433 . S
C1335 N1338 1.384 . S
C1336 H1327 0.929 . S
C1336 C1328 1.378 . S
C1336 C1331 1.350 . S
C1337 H1324 0.929 . S
C1337 C1329 1.433 . S
C1337 N1339 1.384 . S
N1338 C1334 1.427 . S
N1338 C1335 1.384 . S
N1339 C1331 1.427 . S
N1339 C1337 1.384 . S
H1340 C1346 0.930 . S
H1341 C1350 0.930 . S
H1342 C1355 0.929 . S
H1343 C1353 0.929 . S
H1344 C1348 0.929 . S
H1345 C1354 0.929 . S
C1346 H1340 0.930 . S
C1346 C1347 1.367 . S
C1346 C1354 1.378 1_556 S
C1347 C1346 1.367 . S
C1347 C1355 1.433 . S
C1348 H1344 0.929 . S
C1348 C1350 1.378 . S
C1348 C1352 1.350 . S
C1349 C1352 1.463 . S
C1349 C1354 1.350 . S
C1349 N1357 1.427 . S
C1350 H1341 0.930 . S
C1350 C1348 1.378 . S
C1350 C1351 1.367 . S
C1351 C1350 1.367 . S
C1351 C1353 1.433 . S
C1352 C1348 1.350 . S
C1352 C1349 1.463 . S
C1352 N1356 1.427 . S
C1353 H1343 0.929 . S
C1353 C1351 1.433 . S
C1353 N1356 1.384 . S
C1354 H1345 0.929 . S
C1354 C1346 1.378 1_554 S
C1354 C1349 1.350 . S
C1355 H1342 0.929 . S
C1355 C1347 1.433 . S
C1355 N1357 1.384 1_556 S
N1356 C1352 1.427 . S
N1356 C1353 1.384 . S
N1357 C1349 1.427 . S
N1357 C1355 1.384 1_554 S
H1358 C1364 0.930 . S
H1359 C1368 0.930 . S
H1360 C1373 0.929 . S
H1361 C1371 0.929 . S
H1362 C1366 0.929 . S
H1363 C1372 0.929 . S
C1364 H1358 0.930 . S
C1364 C1365 1.367 . S
C1364 C1372 1.378 1_554 S
C1365 C1364 1.367 . S
C1365 C1373 1.433 . S
C1366 H1362 0.929 . S
C1366 C1368 1.378 . S
C1366 C1370 1.350 . S
C1367 C1370 1.463 . S
C1367 C1372 1.350 . S
C1367 N1375 1.427 . S
C1368 H1359 0.930 . S
C1368 C1366 1.378 . S
C1368 C1369 1.367 . S
C1369 C1368 1.367 . S
C1369 C1371 1.433 . S
C1370 C1366 1.350 . S
C1370 C1367 1.463 . S
C1370 N1374 1.427 . S
C1371 H1361 0.929 . S
C1371 C1369 1.433 . S
C1371 N1374 1.384 . S
C1372 H1363 0.929 . S
C1372 C1364 1.378 1_556 S
C1372 C1367 1.350 . S
C1373 H1360 0.929 . S
C1373 C1365 1.433 . S
C1373 N1375 1.384 1_554 S
N1374 C1370 1.427 . S
N1374 C1371 1.384 . S
N1375 C1367 1.427 . S
N1375 C1373 1.384 1_556 S
H1376 C1382 0.930 . S
H1377 C1386 0.930 . S
H1378 C1391 0.929 . S
H1379 C1389 0.929 . S
H1380 C1384 0.929 . S
H1381 C1390 0.929 . S
C1382 H1376 0.930 . S
C1382 C1383 1.367 . S
C1382 C1390 1.378 1_556 S
C1383 C1382 1.367 . S
C1383 C1391 1.433 . S
C1384 H1380 0.929 . S
C1384 C1386 1.378 . S
C1384 C1388 1.350 . S
C1385 C1388 1.463 . S
C1385 C1390 1.350 . S
C1385 N1393 1.427 . S
C1386 H1377 0.930 . S
C1386 C1384 1.378 . S
C1386 C1387 1.367 . S
C1387 C1386 1.367 . S
C1387 C1389 1.433 . S
C1388 C1384 1.350 . S
C1388 C1385 1.463 . S
C1388 N1392 1.427 . S
C1389 H1379 0.929 . S
C1389 C1387 1.433 . S
C1389 N1392 1.384 . S
C1390 H1381 0.929 . S
C1390 C1382 1.378 1_554 S
C1390 C1385 1.350 . S
C1391 H1378 0.929 . S
C1391 C1383 1.433 . S
C1391 N1393 1.384 1_556 S
N1392 C1388 1.427 . S
N1392 C1389 1.384 . S
N1393 C1385 1.427 . S
N1393 C1391 1.384 1_554 S
H1394 C1400 0.930 . S
H1395 C1404 0.930 . S
H1396 C1409 0.929 . S
H1397 C1407 0.929 . S
H1398 C1402 0.929 . S
H1399 C1408 0.929 . S
C1400 H1394 0.930 . S
C1400 C1401 1.367 . S
C1400 C1408 1.378 . S
C1401 C1400 1.367 . S
C1401 C1409 1.433 . S
C1402 H1398 0.929 . S
C1402 C1404 1.378 . S
C1402 C1406 1.350 . S
C1403 C1406 1.463 . S
C1403 C1408 1.350 . S
C1403 N1411 1.427 . S
C1404 H1395 0.930 . S
C1404 C1402 1.378 . S
C1404 C1405 1.367 . S
C1405 C1404 1.367 . S
C1405 C1407 1.433 . S
C1406 C1402 1.350 . S
C1406 C1403 1.463 . S
C1406 N1410 1.427 . S
C1407 H1397 0.929 . S
C1407 C1405 1.433 . S
C1407 N1410 1.384 . S
C1408 H1399 0.929 . S
C1408 C1400 1.378 . S
C1408 C1403 1.350 . S
C1409 H1396 0.929 . S
C1409 C1401 1.433 . S
C1409 N1411 1.384 . S
N1410 C1406 1.427 . S
N1410 C1407 1.384 . S
N1411 C1403 1.427 . S
N1411 C1409 1.384 . S
H1412 C1418 0.930 . S
H1413 C1422 0.930 . S
H1414 C1427 0.929 . S
H1415 C1425 0.929 . S
H1416 C1420 0.929 . S
H1417 C1426 0.929 . S
C1418 H1412 0.930 . S
C1418 C1419 1.367 . S
C1418 C1426 1.378 . S
C1419 C1418 1.367 . S
C1419 C1427 1.433 . S
C1420 H1416 0.929 . S
C1420 C1422 1.378 . S
C1420 C1424 1.350 . S
C1421 C1424 1.463 . S
C1421 C1426 1.350 . S
C1421 N1429 1.427 . S
C1422 H1413 0.930 . S
C1422 C1420 1.378 . S
C1422 C1423 1.367 . S
C1423 C1422 1.367 . S
C1423 C1425 1.433 . S
C1424 C1420 1.350 . S
C1424 C1421 1.463 . S
C1424 N1428 1.427 . S
C1425 H1415 0.929 . S
C1425 C1423 1.433 . S
C1425 N1428 1.384 . S
C1426 H1417 0.929 . S
C1426 C1418 1.378 . S
C1426 C1421 1.350 . S
C1427 H1414 0.929 . S
C1427 C1419 1.433 . S
C1427 N1429 1.384 . S
N1428 C1424 1.427 . S
N1428 C1425 1.384 . S
N1429 C1421 1.427 . S
N1429 C1427 1.384 . S
H1430 C1436 0.930 . S
H1431 C1440 0.930 . S
H1432 C1445 0.929 . S
H1433 C1443 0.929 . S
H1434 C1438 0.929 . S
H1435 C1444 0.929 . S
C1436 H1430 0.930 . S
C1436 C1437 1.367 . S
C1436 C1444 1.378 . S
C1437 C1436 1.367 . S
C1437 C1445 1.433 . S
C1438 H1434 0.929 . S
C1438 C1440 1.378 1_556 S
C1438 C1442 1.350 . S
C1439 C1442 1.463 . S
C1439 C1444 1.350 . S
C1439 N1447 1.427 . S
C1440 H1431 0.930 . S
C1440 C1438 1.378 1_554 S
C1440 C1441 1.367 . S
C1441 C1440 1.367 . S
C1441 C1443 1.433 . S
C1442 C1438 1.350 . S
C1442 C1439 1.463 . S
C1442 N1446 1.427 . S
C1443 H1433 0.929 . S
C1443 C1441 1.433 . S
C1443 N1446 1.384 1_554 S
C1444 H1435 0.929 . S
C1444 C1436 1.378 . S
C1444 C1439 1.350 . S
C1445 H1432 0.929 . S
C1445 C1437 1.433 . S
C1445 N1447 1.384 . S
N1446 C1442 1.427 . S
N1446 C1443 1.384 1_556 S
N1447 C1439 1.427 . S
N1447 C1445 1.384 . S
H1448 C1454 0.930 . S
H1449 C1458 0.930 . S
H1450 C1463 0.929 . S
H1451 C1461 0.929 . S
H1452 C1456 0.929 . S
H1453 C1462 0.929 . S
C1454 H1448 0.930 . S
C1454 C1455 1.367 . S
C1454 C1462 1.378 1_554 S
C1455 C1454 1.367 . S
C1455 C1463 1.433 . S
C1456 H1452 0.929 . S
C1456 C1458 1.378 . S
C1456 C1460 1.350 . S
C1457 C1460 1.463 . S
C1457 C1462 1.350 . S
C1457 N1465 1.427 . S
C1458 H1449 0.930 . S
C1458 C1456 1.378 . S
C1458 C1459 1.367 . S
C1459 C1458 1.367 . S
C1459 C1461 1.433 . S
C1460 C1456 1.350 . S
C1460 C1457 1.463 . S
C1460 N1464 1.427 . S
C1461 H1451 0.929 . S
C1461 C1459 1.433 . S
C1461 N1464 1.384 . S
C1462 H1453 0.929 . S
C1462 C1454 1.378 1_556 S
C1462 C1457 1.350 . S
C1463 H1450 0.929 . S
C1463 C1455 1.433 . S
C1463 N1465 1.384 1_554 S
N1464 C1460 1.427 . S
N1464 C1461 1.384 . S
N1465 C1457 1.427 . S
N1465 C1463 1.384 1_556 S
H1466 C1472 0.930 . S
H1467 C1476 0.930 . S
H1468 C1481 0.929 . S
H1469 C1479 0.929 . S
H1470 C1474 0.929 . S
H1471 C1480 0.929 . S
C1472 H1466 0.930 . S
C1472 C1473 1.367 . S
C1472 C1480 1.378 . S
C1473 C1472 1.367 . S
C1473 C1481 1.433 . S
C1474 H1470 0.929 . S
C1474 C1476 1.378 1_554 S
C1474 C1478 1.350 . S
C1475 C1478 1.463 . S
C1475 C1480 1.350 . S
C1475 N1483 1.427 . S
C1476 H1467 0.930 . S
C1476 C1474 1.378 1_556 S
C1476 C1477 1.367 . S
C1477 C1476 1.367 . S
C1477 C1479 1.433 . S
C1478 C1474 1.350 . S
C1478 C1475 1.463 . S
C1478 N1482 1.427 . S
C1479 H1469 0.929 . S
C1479 C1477 1.433 . S
C1479 N1482 1.384 1_556 S
C1480 H1471 0.929 . S
C1480 C1472 1.378 . S
C1480 C1475 1.350 . S
C1481 H1468 0.929 . S
C1481 C1473 1.433 . S
C1481 N1483 1.384 . S
N1482 C1478 1.427 . S
N1482 C1479 1.384 1_554 S
N1483 C1475 1.427 . S
N1483 C1481 1.384 . S
H1484 C1490 0.930 . S
H1485 C1494 0.930 . S
H1486 C1499 0.929 . S
H1487 C1497 0.929 . S
H1488 C1492 0.929 . S
H1489 C1498 0.929 . S
C1490 H1484 0.930 . S
C1490 C1491 1.367 . S
C1490 C1498 1.378 . S
C1491 C1490 1.367 . S
C1491 C1499 1.433 . S
C1492 H1488 0.929 . S
C1492 C1494 1.378 . S
C1492 C1496 1.350 . S
C1493 C1496 1.463 . S
C1493 C1498 1.350 . S
C1493 N1501 1.427 . S
C1494 H1485 0.930 . S
C1494 C1492 1.378 . S
C1494 C1495 1.367 . S
C1495 C1494 1.367 . S
C1495 C1497 1.433 . S
C1496 C1492 1.350 . S
C1496 C1493 1.463 . S
C1496 N1500 1.427 . S
C1497 H1487 0.929 . S
C1497 C1495 1.433 . S
C1497 N1500 1.384 . S
C1498 H1489 0.929 . S
C1498 C1490 1.378 . S
C1498 C1493 1.350 . S
C1499 H1486 0.929 . S
C1499 C1491 1.433 . S
C1499 N1501 1.384 . S
N1500 C1496 1.427 . S
N1500 C1497 1.384 . S
N1501 C1493 1.427 . S
N1501 C1499 1.384 . S
H1502 C1508 0.930 . S
H1503 C1512 0.930 . S
H1504 C1517 0.929 . S
H1505 C1515 0.929 . S
H1506 C1510 0.929 . S
H1507 C1516 0.929 . S
C1508 H1502 0.930 . S
C1508 C1509 1.367 . S
C1508 C1516 1.378 . S
C1509 C1508 1.367 . S
C1509 C1517 1.433 . S
C1510 H1506 0.929 . S
C1510 C1512 1.378 . S
C1510 C1514 1.350 . S
C1511 C1514 1.463 . S
C1511 C1516 1.350 . S
C1511 N1519 1.427 . S
C1512 H1503 0.930 . S
C1512 C1510 1.378 . S
C1512 C1513 1.367 . S
C1513 C1512 1.367 . S
C1513 C1515 1.433 . S
C1514 C1510 1.350 . S
C1514 C1511 1.463 . S
C1514 N1518 1.427 . S
C1515 H1505 0.929 . S
C1515 C1513 1.433 . S
C1515 N1518 1.384 . S
C1516 H1507 0.929 . S
C1516 C1508 1.378 . S
C1516 C1511 1.350 . S
C1517 H1504 0.929 . S
C1517 C1509 1.433 . S
C1517 N1519 1.384 . S
N1518 C1514 1.427 . S
N1518 C1515 1.384 . S
N1519 C1511 1.427 . S
N1519 C1517 1.384 . S
H1520 C1526 0.930 . S
H1521 C1530 0.930 . S
H1522 C1535 0.929 . S
H1523 C1533 0.929 . S
H1524 C1528 0.929 . S
H1525 C1534 0.929 . S
C1526 H1520 0.930 . S
C1526 C1527 1.367 . S
C1526 C1534 1.378 1_554 S
C1527 C1526 1.367 . S
C1527 C1535 1.433 . S
C1528 H1524 0.929 . S
C1528 C1530 1.378 . S
C1528 C1532 1.350 . S
C1529 C1532 1.463 . S
C1529 C1534 1.350 . S
C1529 N1537 1.427 . S
C1530 H1521 0.930 . S
C1530 C1528 1.378 . S
C1530 C1531 1.367 . S
C1531 C1530 1.367 . S
C1531 C1533 1.433 . S
C1532 C1528 1.350 . S
C1532 C1529 1.463 . S
C1532 N1536 1.427 . S
C1533 H1523 0.929 . S
C1533 C1531 1.433 . S
C1533 N1536 1.384 . S
C1534 H1525 0.929 . S
C1534 C1526 1.378 1_556 S
C1534 C1529 1.350 . S
C1535 H1522 0.929 . S
C1535 C1527 1.433 . S
C1535 N1537 1.384 1_554 S
N1536 C1532 1.427 . S
N1536 C1533 1.384 . S
N1537 C1529 1.427 . S
N1537 C1535 1.384 1_556 S
H1538 C1544 0.930 . S
H1539 C1548 0.930 . S
H1540 C1553 0.929 . S
H1541 C1551 0.929 . S
H1542 C1546 0.929 . S
H1543 C1552 0.929 . S
C1544 H1538 0.930 . S
C1544 C1545 1.367 . S
C1544 C1552 1.378 . S
C1545 C1544 1.367 . S
C1545 C1553 1.433 . S
C1546 H1542 0.929 . S
C1546 C1548 1.378 . S
C1546 C1550 1.350 . S
C1547 C1550 1.463 . S
C1547 C1552 1.350 . S
C1547 N1555 1.427 . S
C1548 H1539 0.930 . S
C1548 C1546 1.378 . S
C1548 C1549 1.367 . S
C1549 C1548 1.367 . S
C1549 C1551 1.433 . S
C1550 C1546 1.350 . S
C1550 C1547 1.463 . S
C1550 N1554 1.427 . S
C1551 H1541 0.929 . S
C1551 C1549 1.433 . S
C1551 N1554 1.384 . S
C1552 H1543 0.929 . S
C1552 C1544 1.378 . S
C1552 C1547 1.350 . S
C1553 H1540 0.929 . S
C1553 C1545 1.433 . S
C1553 N1555 1.384 . S
N1554 C1550 1.427 . S
N1554 C1551 1.384 . S
N1555 C1547 1.427 . S
N1555 C1553 1.384 . S
H1556 C1562 0.930 . S
H1557 C1566 0.930 . S
H1558 C1571 0.929 . S
H1559 C1569 0.929 . S
H1560 C1564 0.929 . S
H1561 C1570 0.929 . S
C1562 H1556 0.930 . S
C1562 C1563 1.367 . S
C1562 C1570 1.378 . S
C1563 C1562 1.367 . S
C1563 C1571 1.433 . S
C1564 H1560 0.929 . S
C1564 C1566 1.378 . S
C1564 C1568 1.350 . S
C1565 C1568 1.463 . S
C1565 C1570 1.350 . S
C1565 N1573 1.427 . S
C1566 H1557 0.930 . S
C1566 C1564 1.378 . S
C1566 C1567 1.367 . S
C1567 C1566 1.367 . S
C1567 C1569 1.433 . S
C1568 C1564 1.350 . S
C1568 C1565 1.463 . S
C1568 N1572 1.427 . S
C1569 H1559 0.929 . S
C1569 C1567 1.433 . S
C1569 N1572 1.384 . S
C1570 H1561 0.929 . S
C1570 C1562 1.378 . S
C1570 C1565 1.350 . S
C1571 H1558 0.929 . S
C1571 C1563 1.433 . S
C1571 N1573 1.384 . S
N1572 C1568 1.427 . S
N1572 C1569 1.384 . S
N1573 C1565 1.427 . S
N1573 C1571 1.384 . S
H1574 C1580 0.930 . S
H1575 C1584 0.930 . S
H1576 C1589 0.929 . S
H1577 C1587 0.929 . S
H1578 C1582 0.929 . S
H1579 C1588 0.929 . S
C1580 H1574 0.930 . S
C1580 C1581 1.367 . S
C1580 C1588 1.378 1_556 S
C1581 C1580 1.367 . S
C1581 C1589 1.433 . S
C1582 H1578 0.929 . S
C1582 C1584 1.378 . S
C1582 C1586 1.350 . S
C1583 C1586 1.463 . S
C1583 C1588 1.350 . S
C1583 N1591 1.427 . S
C1584 H1575 0.930 . S
C1584 C1582 1.378 . S
C1584 C1585 1.367 . S
C1585 C1584 1.367 . S
C1585 C1587 1.433 . S
C1586 C1582 1.350 . S
C1586 C1583 1.463 . S
C1586 N1590 1.427 . S
C1587 H1577 0.929 . S
C1587 C1585 1.433 . S
C1587 N1590 1.384 . S
C1588 H1579 0.929 . S
C1588 C1580 1.378 1_554 S
C1588 C1583 1.350 . S
C1589 H1576 0.929 . S
C1589 C1581 1.433 . S
C1589 N1591 1.384 1_556 S
N1590 C1586 1.427 . S
N1590 C1587 1.384 . S
N1591 C1583 1.427 . S
N1591 C1589 1.384 1_554 S
H1592 C1598 0.930 . S
H1593 C1602 0.930 . S
H1594 C1607 0.929 . S
H1595 C1605 0.929 . S
H1596 C1600 0.929 . S
H1597 C1606 0.929 . S
C1598 H1592 0.930 . S
C1598 C1599 1.367 . S
C1598 C1606 1.378 . S
C1599 C1598 1.367 . S
C1599 C1607 1.433 . S
C1600 H1596 0.929 . S
C1600 C1602 1.378 1_554 S
C1600 C1604 1.350 . S
C1601 C1604 1.463 . S
C1601 C1606 1.350 . S
C1601 N1609 1.427 . S
C1602 H1593 0.930 . S
C1602 C1600 1.378 1_556 S
C1602 C1603 1.367 . S
C1603 C1602 1.367 . S
C1603 C1605 1.433 . S
C1604 C1600 1.350 . S
C1604 C1601 1.463 . S
C1604 N1608 1.427 . S
C1605 H1595 0.929 . S
C1605 C1603 1.433 . S
C1605 N1608 1.384 1_556 S
C1606 H1597 0.929 . S
C1606 C1598 1.378 . S
C1606 C1601 1.350 . S
C1607 H1594 0.929 . S
C1607 C1599 1.433 . S
C1607 N1609 1.384 . S
N1608 C1604 1.427 . S
N1608 C1605 1.384 1_554 S
N1609 C1601 1.427 . S
N1609 C1607 1.384 . S
H1610 C1616 0.930 . S
H1611 C1620 0.930 . S
H1612 C1625 0.929 . S
H1613 C1623 0.929 . S
H1614 C1618 0.929 . S
H1615 C1624 0.929 . S
C1616 H1610 0.930 . S
C1616 C1617 1.367 . S
C1616 C1624 1.378 1_554 S
C1617 C1616 1.367 . S
C1617 C1625 1.433 . S
C1618 H1614 0.929 . S
C1618 C1620 1.378 . S
C1618 C1622 1.350 . S
C1619 C1622 1.463 . S
C1619 C1624 1.350 . S
C1619 N1627 1.427 . S
C1620 H1611 0.930 . S
C1620 C1618 1.378 . S
C1620 C1621 1.367 . S
C1621 C1620 1.367 . S
C1621 C1623 1.433 . S
C1622 C1618 1.350 . S
C1622 C1619 1.463 . S
C1622 N1626 1.427 . S
C1623 H1613 0.929 . S
C1623 C1621 1.433 . S
C1623 N1626 1.384 . S
C1624 H1615 0.929 . S
C1624 C1616 1.378 1_556 S
C1624 C1619 1.350 . S
C1625 H1612 0.929 . S
C1625 C1617 1.433 . S
C1625 N1627 1.384 1_554 S
N1626 C1622 1.427 . S
N1626 C1623 1.384 . S
N1627 C1619 1.427 . S
N1627 C1625 1.384 1_556 S
H1628 C1634 0.930 . S
H1629 C1638 0.930 . S
H1630 C1643 0.929 . S
H1631 C1641 0.929 . S
H1632 C1636 0.929 . S
H1633 C1642 0.929 . S
C1634 H1628 0.930 . S
C1634 C1635 1.367 . S
C1634 C1642 1.378 . S
C1635 C1634 1.367 . S
C1635 C1643 1.433 . S
C1636 H1632 0.929 . S
C1636 C1638 1.378 . S
C1636 C1640 1.350 . S
C1637 C1640 1.463 . S
C1637 C1642 1.350 . S
C1637 N1645 1.427 . S
C1638 H1629 0.930 . S
C1638 C1636 1.378 . S
C1638 C1639 1.367 . S
C1639 C1638 1.367 . S
C1639 C1641 1.433 . S
C1640 C1636 1.350 . S
C1640 C1637 1.463 . S
C1640 N1644 1.427 . S
C1641 H1631 0.929 . S
C1641 C1639 1.433 . S
C1641 N1644 1.384 . S
C1642 H1633 0.929 . S
C1642 C1634 1.378 . S
C1642 C1637 1.350 . S
C1643 H1630 0.929 . S
C1643 C1635 1.433 . S
C1643 N1645 1.384 . S
N1644 C1640 1.427 . S
N1644 C1641 1.384 . S
N1645 C1637 1.427 . S
N1645 C1643 1.384 . S
H1646 C1652 0.930 . S
H1647 C1656 0.930 . S
H1648 C1661 0.929 . S
H1649 C1659 0.929 . S
H1650 C1654 0.929 . S
H1651 C1660 0.929 . S
C1652 H1646 0.930 . S
C1652 C1653 1.367 . S
C1652 C1660 1.378 . S
C1653 C1652 1.367 . S
C1653 C1661 1.433 . S
C1654 H1650 0.929 . S
C1654 C1656 1.378 . S
C1654 C1658 1.350 . S
C1655 C1658 1.463 . S
C1655 C1660 1.350 . S
C1655 N1663 1.427 . S
C1656 H1647 0.930 . S
C1656 C1654 1.378 . S
C1656 C1657 1.367 . S
C1657 C1656 1.367 . S
C1657 C1659 1.433 . S
C1658 C1654 1.350 . S
C1658 C1655 1.463 . S
C1658 N1662 1.427 . S
C1659 H1649 0.929 . S
C1659 C1657 1.433 . S
C1659 N1662 1.384 . S
C1660 H1651 0.929 . S
C1660 C1652 1.378 . S
C1660 C1655 1.350 . S
C1661 H1648 0.929 . S
C1661 C1653 1.433 . S
C1661 N1663 1.384 . S
N1662 C1658 1.427 . S
N1662 C1659 1.384 . S
N1663 C1655 1.427 . S
N1663 C1661 1.384 . S
H1664 C1670 0.930 . S
H1665 C1674 0.930 . S
H1666 C1679 0.929 . S
H1667 C1677 0.929 . S
H1668 C1672 0.929 . S
H1669 C1678 0.929 . S
C1670 H1664 0.930 . S
C1670 C1671 1.367 . S
C1670 C1678 1.378 . S
C1671 C1670 1.367 . S
C1671 C1679 1.433 . S
C1672 H1668 0.929 . S
C1672 C1674 1.378 . S
C1672 C1676 1.350 . S
C1673 C1676 1.463 . S
C1673 C1678 1.350 . S
C1673 N1681 1.427 . S
C1674 H1665 0.930 . S
C1674 C1672 1.378 . S
C1674 C1675 1.367 . S
C1675 C1674 1.367 . S
C1675 C1677 1.433 . S
C1676 C1672 1.350 . S
C1676 C1673 1.463 . S
C1676 N1680 1.427 . S
C1677 H1667 0.929 . S
C1677 C1675 1.433 . S
C1677 N1680 1.384 . S
C1678 H1669 0.929 . S
C1678 C1670 1.378 . S
C1678 C1673 1.350 . S
C1679 H1666 0.929 . S
C1679 C1671 1.433 . S
C1679 N1681 1.384 . S
N1680 C1676 1.427 . S
N1680 C1677 1.384 . S
N1681 C1673 1.427 . S
N1681 C1679 1.384 . S
H1682 C1688 0.930 . S
H1683 C1692 0.930 . S
H1684 C1697 0.929 . S
H1685 C1695 0.929 . S
H1686 C1690 0.929 . S
H1687 C1696 0.929 . S
C1688 H1682 0.930 . S
C1688 C1689 1.367 . S
C1688 C1696 1.378 . S
C1689 C1688 1.367 . S
C1689 C1697 1.433 . S
C1690 H1686 0.929 . S
C1690 C1692 1.378 . S
C1690 C1694 1.350 . S
C1691 C1694 1.463 . S
C1691 C1696 1.350 . S
C1691 N1699 1.427 . S
C1692 H1683 0.930 . S
C1692 C1690 1.378 . S
C1692 C1693 1.367 . S
C1693 C1692 1.367 . S
C1693 C1695 1.433 . S
C1694 C1690 1.350 . S
C1694 C1691 1.463 . S
C1694 N1698 1.427 . S
C1695 H1685 0.929 . S
C1695 C1693 1.433 . S
C1695 N1698 1.384 . S
C1696 H1687 0.929 . S
C1696 C1688 1.378 . S
C1696 C1691 1.350 . S
C1697 H1684 0.929 . S
C1697 C1689 1.433 . S
C1697 N1699 1.384 . S
N1698 C1694 1.427 . S
N1698 C1695 1.384 . S
N1699 C1691 1.427 . S
N1699 C1697 1.384 . S
H1700 C1706 0.930 . S
H1701 C1710 0.930 . S
H1702 C1715 0.929 . S
H1703 C1713 0.929 . S
H1704 C1708 0.929 . S
H1705 C1714 0.929 . S
C1706 H1700 0.930 . S
C1706 C1707 1.367 . S
C1706 C1714 1.378 . S
C1707 C1706 1.367 . S
C1707 C1715 1.433 . S
C1708 H1704 0.929 . S
C1708 C1710 1.378 . S
C1708 C1712 1.350 . S
C1709 C1712 1.463 . S
C1709 C1714 1.350 . S
C1709 N1717 1.427 . S
C1710 H1701 0.930 . S
C1710 C1708 1.378 . S
C1710 C1711 1.367 . S
C1711 C1710 1.367 . S
C1711 C1713 1.433 . S
C1712 C1708 1.350 . S
C1712 C1709 1.463 . S
C1712 N1716 1.427 . S
C1713 H1703 0.929 . S
C1713 C1711 1.433 . S
C1713 N1716 1.384 . S
C1714 H1705 0.929 . S
C1714 C1706 1.378 . S
C1714 C1709 1.350 . S
C1715 H1702 0.929 . S
C1715 C1707 1.433 . S
C1715 N1717 1.384 . S
N1716 C1712 1.427 . S
N1716 C1713 1.384 . S
N1717 C1709 1.427 . S
N1717 C1715 1.384 . S
H1718 C1724 0.930 . S
H1719 C1728 0.930 . S
H1720 C1733 0.929 . S
H1721 C1731 0.929 . S
H1722 C1726 0.929 . S
H1723 C1732 0.929 . S
C1724 H1718 0.930 . S
C1724 C1725 1.367 . S
C1724 C1732 1.378 . S
C1725 C1724 1.367 . S
C1725 C1733 1.433 . S
C1726 H1722 0.929 . S
C1726 C1728 1.378 . S
C1726 C1730 1.350 . S
C1727 C1730 1.463 . S
C1727 C1732 1.350 . S
C1727 N1735 1.427 . S
C1728 H1719 0.930 . S
C1728 C1726 1.378 . S
C1728 C1729 1.367 . S
C1729 C1728 1.367 . S
C1729 C1731 1.433 . S
C1730 C1726 1.350 . S
C1730 C1727 1.463 . S
C1730 N1734 1.427 . S
C1731 H1721 0.929 . S
C1731 C1729 1.433 . S
C1731 N1734 1.384 . S
C1732 H1723 0.929 . S
C1732 C1724 1.378 . S
C1732 C1727 1.350 . S
C1733 H1720 0.929 . S
C1733 C1725 1.433 . S
C1733 N1735 1.384 . S
N1734 C1730 1.427 . S
N1734 C1731 1.384 . S
N1735 C1727 1.427 . S
N1735 C1733 1.384 . S
H1736 C1742 0.930 . S
H1737 C1746 0.930 . S
H1738 C1751 0.929 . S
H1739 C1749 0.929 . S
H1740 C1744 0.929 . S
H1741 C1750 0.929 . S
C1742 H1736 0.930 . S
C1742 C1743 1.367 . S
C1742 C1750 1.378 . S
C1743 C1742 1.367 . S
C1743 C1751 1.433 . S
C1744 H1740 0.929 . S
C1744 C1746 1.378 . S
C1744 C1748 1.350 . S
C1745 C1748 1.463 . S
C1745 C1750 1.350 . S
C1745 N1753 1.427 . S
C1746 H1737 0.930 . S
C1746 C1744 1.378 . S
C1746 C1747 1.367 . S
C1747 C1746 1.367 . S
C1747 C1749 1.433 . S
C1748 C1744 1.350 . S
C1748 C1745 1.463 . S
C1748 N1752 1.427 . S
C1749 H1739 0.929 . S
C1749 C1747 1.433 . S
C1749 N1752 1.384 . S
C1750 H1741 0.929 . S
C1750 C1742 1.378 . S
C1750 C1745 1.350 . S
C1751 H1738 0.929 . S
C1751 C1743 1.433 . S
C1751 N1753 1.384 . S
N1752 C1748 1.427 . S
N1752 C1749 1.384 . S
N1753 C1745 1.427 . S
N1753 C1751 1.384 . S
H1754 C1760 0.930 . S
H1755 C1764 0.930 . S
H1756 C1769 0.929 . S
H1757 C1767 0.929 . S
H1758 C1762 0.929 . S
H1759 C1768 0.929 . S
C1760 H1754 0.930 . S
C1760 C1761 1.367 . S
C1760 C1768 1.378 . S
C1761 C1760 1.367 . S
C1761 C1769 1.433 . S
C1762 H1758 0.929 . S
C1762 C1764 1.378 . S
C1762 C1766 1.350 . S
C1763 C1766 1.463 . S
C1763 C1768 1.350 . S
C1763 N1771 1.427 . S
C1764 H1755 0.930 . S
C1764 C1762 1.378 . S
C1764 C1765 1.367 . S
C1765 C1764 1.367 . S
C1765 C1767 1.433 . S
C1766 C1762 1.350 . S
C1766 C1763 1.463 . S
C1766 N1770 1.427 . S
C1767 H1757 0.929 . S
C1767 C1765 1.433 . S
C1767 N1770 1.384 . S
C1768 H1759 0.929 . S
C1768 C1760 1.378 . S
C1768 C1763 1.350 . S
C1769 H1756 0.929 . S
C1769 C1761 1.433 . S
C1769 N1771 1.384 . S
N1770 C1766 1.427 . S
N1770 C1767 1.384 . S
N1771 C1763 1.427 . S
N1771 C1769 1.384 . S
H1772 C1778 0.930 . S
H1773 C1782 0.930 . S
H1774 C1787 0.929 . S
H1775 C1785 0.929 . S
H1776 C1780 0.929 . S
H1777 C1786 0.929 . S
C1778 H1772 0.930 . S
C1778 C1779 1.367 . S
C1778 C1786 1.378 . S
C1779 C1778 1.367 . S
C1779 C1787 1.433 . S
C1780 H1776 0.929 . S
C1780 C1782 1.378 . S
C1780 C1784 1.350 . S
C1781 C1784 1.463 . S
C1781 C1786 1.350 . S
C1781 N1789 1.427 . S
C1782 H1773 0.930 . S
C1782 C1780 1.378 . S
C1782 C1783 1.367 . S
C1783 C1782 1.367 . S
C1783 C1785 1.433 . S
C1784 C1780 1.350 . S
C1784 C1781 1.463 . S
C1784 N1788 1.427 . S
C1785 H1775 0.929 . S
C1785 C1783 1.433 . S
C1785 N1788 1.384 . S
C1786 H1777 0.929 . S
C1786 C1778 1.378 . S
C1786 C1781 1.350 . S
C1787 H1774 0.929 . S
C1787 C1779 1.433 . S
C1787 N1789 1.384 . S
N1788 C1784 1.427 . S
N1788 C1785 1.384 . S
N1789 C1781 1.427 . S
N1789 C1787 1.384 . S
H1790 C1796 0.930 . S
H1791 C1800 0.930 . S
H1792 C1805 0.929 . S
H1793 C1803 0.929 . S
H1794 C1798 0.929 . S
H1795 C1804 0.929 . S
C1796 H1790 0.930 . S
C1796 C1797 1.367 . S
C1796 C1804 1.378 . S
C1797 C1796 1.367 . S
C1797 C1805 1.433 . S
C1798 H1794 0.929 . S
C1798 C1800 1.378 . S
C1798 C1802 1.350 . S
C1799 C1802 1.463 . S
C1799 C1804 1.350 . S
C1799 N1807 1.427 . S
C1800 H1791 0.930 . S
C1800 C1798 1.378 . S
C1800 C1801 1.367 . S
C1801 C1800 1.367 . S
C1801 C1803 1.433 . S
C1802 C1798 1.350 . S
C1802 C1799 1.463 . S
C1802 N1806 1.427 . S
C1803 H1793 0.929 . S
C1803 C1801 1.433 . S
C1803 N1806 1.384 . S
C1804 H1795 0.929 . S
C1804 C1796 1.378 . S
C1804 C1799 1.350 . S
C1805 H1792 0.929 . S
C1805 C1797 1.433 . S
C1805 N1807 1.384 . S
N1806 C1802 1.427 . S
N1806 C1803 1.384 . S
N1807 C1799 1.427 . S
N1807 C1805 1.384 . S
H1808 C1814 0.930 . S
H1809 C1818 0.930 . S
H1810 C1823 0.929 . S
H1811 C1821 0.929 . S
H1812 C1816 0.929 . S
H1813 C1822 0.929 . S
C1814 H1808 0.930 . S
C1814 C1815 1.367 . S
C1814 C1822 1.378 . S
C1815 C1814 1.367 . S
C1815 C1823 1.433 . S
C1816 H1812 0.929 . S
C1816 C1818 1.378 . S
C1816 C1820 1.350 . S
C1817 C1820 1.463 . S
C1817 C1822 1.350 . S
C1817 N1825 1.427 . S
C1818 H1809 0.930 . S
C1818 C1816 1.378 . S
C1818 C1819 1.367 . S
C1819 C1818 1.367 . S
C1819 C1821 1.433 . S
C1820 C1816 1.350 . S
C1820 C1817 1.463 . S
C1820 N1824 1.427 . S
C1821 H1811 0.929 . S
C1821 C1819 1.433 . S
C1821 N1824 1.384 . S
C1822 H1813 0.929 . S
C1822 C1814 1.378 . S
C1822 C1817 1.350 . S
C1823 H1810 0.929 . S
C1823 C1815 1.433 . S
C1823 N1825 1.384 . S
N1824 C1820 1.427 . S
N1824 C1821 1.384 . S
N1825 C1817 1.427 . S
N1825 C1823 1.384 . S
H1826 C1832 0.930 . S
H1827 C1836 0.930 . S
H1828 C1841 0.929 . S
H1829 C1839 0.929 . S
H1830 C1834 0.929 . S
H1831 C1840 0.929 . S
C1832 H1826 0.930 . S
C1832 C1833 1.367 . S
C1832 C1840 1.378 . S
C1833 C1832 1.367 . S
C1833 C1841 1.433 . S
C1834 H1830 0.929 . S
C1834 C1836 1.378 . S
C1834 C1838 1.350 . S
C1835 C1838 1.463 . S
C1835 C1840 1.350 . S
C1835 N1843 1.427 . S
C1836 H1827 0.930 . S
C1836 C1834 1.378 . S
C1836 C1837 1.367 . S
C1837 C1836 1.367 . S
C1837 C1839 1.433 . S
C1838 C1834 1.350 . S
C1838 C1835 1.463 . S
C1838 N1842 1.427 . S
C1839 H1829 0.929 . S
C1839 C1837 1.433 . S
C1839 N1842 1.384 . S
C1840 H1831 0.929 . S
C1840 C1832 1.378 . S
C1840 C1835 1.350 . S
C1841 H1828 0.929 . S
C1841 C1833 1.433 . S
C1841 N1843 1.384 . S
N1842 C1838 1.427 . S
N1842 C1839 1.384 . S
N1843 C1835 1.427 . S
N1843 C1841 1.384 . S
H1844 C1850 0.930 . S
H1845 C1854 0.930 . S
H1846 C1859 0.929 . S
H1847 C1857 0.929 . S
H1848 C1852 0.929 . S
H1849 C1858 0.929 . S
C1850 H1844 0.930 . S
C1850 C1851 1.367 . S
C1850 C1858 1.378 . S
C1851 C1850 1.367 . S
C1851 C1859 1.433 . S
C1852 H1848 0.929 . S
C1852 C1854 1.378 . S
C1852 C1856 1.350 . S
C1853 C1856 1.463 . S
C1853 C1858 1.350 . S
C1853 N1861 1.427 . S
C1854 H1845 0.930 . S
C1854 C1852 1.378 . S
C1854 C1855 1.367 . S
C1855 C1854 1.367 . S
C1855 C1857 1.433 . S
C1856 C1852 1.350 . S
C1856 C1853 1.463 . S
C1856 N1860 1.427 . S
C1857 H1847 0.929 . S
C1857 C1855 1.433 . S
C1857 N1860 1.384 . S
C1858 H1849 0.929 . S
C1858 C1850 1.378 . S
C1858 C1853 1.350 . S
C1859 H1846 0.929 . S
C1859 C1851 1.433 . S
C1859 N1861 1.384 . S
N1860 C1856 1.427 . S
N1860 C1857 1.384 . S
N1861 C1853 1.427 . S
N1861 C1859 1.384 . S
H1862 C1868 0.930 . S
H1863 C1872 0.930 . S
H1864 C1877 0.929 . S
H1865 C1875 0.929 . S
H1866 C1870 0.929 . S
H1867 C1876 0.929 . S
C1868 H1862 0.930 . S
C1868 C1869 1.367 . S
C1868 C1876 1.378 . S
C1869 C1868 1.367 . S
C1869 C1877 1.433 . S
C1870 H1866 0.929 . S
C1870 C1872 1.378 . S
C1870 C1874 1.350 . S
C1871 C1874 1.463 . S
C1871 C1876 1.350 . S
C1871 N1879 1.427 . S
C1872 H1863 0.930 . S
C1872 C1870 1.378 . S
C1872 C1873 1.367 . S
C1873 C1872 1.367 . S
C1873 C1875 1.433 . S
C1874 C1870 1.350 . S
C1874 C1871 1.463 . S
C1874 N1878 1.427 . S
C1875 H1865 0.929 . S
C1875 C1873 1.433 . S
C1875 N1878 1.384 . S
C1876 H1867 0.929 . S
C1876 C1868 1.378 . S
C1876 C1871 1.350 . S
C1877 H1864 0.929 . S
C1877 C1869 1.433 . S
C1877 N1879 1.384 . S
N1878 C1874 1.427 . S
N1878 C1875 1.384 . S
N1879 C1871 1.427 . S
N1879 C1877 1.384 . S
H1880 C1886 0.930 . S
H1881 C1890 0.930 . S
H1882 C1895 0.929 . S
H1883 C1893 0.929 . S
H1884 C1888 0.929 . S
H1885 C1894 0.929 . S
C1886 H1880 0.930 . S
C1886 C1887 1.367 . S
C1886 C1894 1.378 . S
C1887 C1886 1.367 . S
C1887 C1895 1.433 . S
C1888 H1884 0.929 . S
C1888 C1890 1.378 . S
C1888 C1892 1.350 . S
C1889 C1892 1.463 . S
C1889 C1894 1.350 . S
C1889 N1897 1.427 . S
C1890 H1881 0.930 . S
C1890 C1888 1.378 . S
C1890 C1891 1.367 . S
C1891 C1890 1.367 . S
C1891 C1893 1.433 . S
C1892 C1888 1.350 . S
C1892 C1889 1.463 . S
C1892 N1896 1.427 . S
C1893 H1883 0.929 . S
C1893 C1891 1.433 . S
C1893 N1896 1.384 . S
C1894 H1885 0.929 . S
C1894 C1886 1.378 . S
C1894 C1889 1.350 . S
C1895 H1882 0.929 . S
C1895 C1887 1.433 . S
C1895 N1897 1.384 . S
N1896 C1892 1.427 . S
N1896 C1893 1.384 . S
N1897 C1889 1.427 . S
N1897 C1895 1.384 . S
H1898 C1904 0.930 . S
H1899 C1908 0.930 . S
H1900 C1913 0.929 . S
H1901 C1911 0.929 . S
H1902 C1906 0.929 . S
H1903 C1912 0.929 . S
C1904 H1898 0.930 . S
C1904 C1905 1.367 . S
C1904 C1912 1.378 . S
C1905 C1904 1.367 . S
C1905 C1913 1.433 . S
C1906 H1902 0.929 . S
C1906 C1908 1.378 . S
C1906 C1910 1.350 . S
C1907 C1910 1.463 . S
C1907 C1912 1.350 . S
C1907 N1915 1.427 . S
C1908 H1899 0.930 . S
C1908 C1906 1.378 . S
C1908 C1909 1.367 . S
C1909 C1908 1.367 . S
C1909 C1911 1.433 . S
C1910 C1906 1.350 . S
C1910 C1907 1.463 . S
C1910 N1914 1.427 . S
C1911 H1901 0.929 . S
C1911 C1909 1.433 . S
C1911 N1914 1.384 . S
C1912 H1903 0.929 . S
C1912 C1904 1.378 . S
C1912 C1907 1.350 . S
C1913 H1900 0.929 . S
C1913 C1905 1.433 . S
C1913 N1915 1.384 . S
N1914 C1910 1.427 . S
N1914 C1911 1.384 . S
N1915 C1907 1.427 . S
N1915 C1913 1.384 . S
H1916 C1922 0.930 . S
H1917 C1926 0.930 . S
H1918 C1931 0.929 . S
H1919 C1929 0.929 . S
H1920 C1924 0.929 . S
H1921 C1930 0.929 . S
C1922 H1916 0.930 . S
C1922 C1923 1.367 . S
C1922 C1930 1.378 . S
C1923 C1922 1.367 . S
C1923 C1931 1.433 . S
C1924 H1920 0.929 . S
C1924 C1926 1.378 . S
C1924 C1928 1.350 . S
C1925 C1928 1.463 . S
C1925 C1930 1.350 . S
C1925 N1933 1.427 . S
C1926 H1917 0.930 . S
C1926 C1924 1.378 . S
C1926 C1927 1.367 . S
C1927 C1926 1.367 . S
C1927 C1929 1.433 . S
C1928 C1924 1.350 . S
C1928 C1925 1.463 . S
C1928 N1932 1.427 . S
C1929 H1919 0.929 . S
C1929 C1927 1.433 . S
C1929 N1932 1.384 . S
C1930 H1921 0.929 . S
C1930 C1922 1.378 . S
C1930 C1925 1.350 . S
C1931 H1918 0.929 . S
C1931 C1923 1.433 . S
C1931 N1933 1.384 . S
N1932 C1928 1.427 . S
N1932 C1929 1.384 . S
N1933 C1925 1.427 . S
N1933 C1931 1.384 . S
H1934 C1940 0.930 . S
H1935 C1944 0.930 . S
H1936 C1949 0.929 . S
H1937 C1947 0.929 . S
H1938 C1942 0.929 . S
H1939 C1948 0.929 . S
C1940 H1934 0.930 . S
C1940 C1941 1.367 . S
C1940 C1948 1.378 . S
C1941 C1940 1.367 . S
C1941 C1949 1.433 . S
C1942 H1938 0.929 . S
C1942 C1944 1.378 . S
C1942 C1946 1.350 . S
C1943 C1946 1.463 . S
C1943 C1948 1.350 . S
C1943 N1951 1.427 . S
C1944 H1935 0.930 . S
C1944 C1942 1.378 . S
C1944 C1945 1.367 . S
C1945 C1944 1.367 . S
C1945 C1947 1.433 . S
C1946 C1942 1.350 . S
C1946 C1943 1.463 . S
C1946 N1950 1.427 . S
C1947 H1937 0.929 . S
C1947 C1945 1.433 . S
C1947 N1950 1.384 . S
C1948 H1939 0.929 . S
C1948 C1940 1.378 . S
C1948 C1943 1.350 . S
C1949 H1936 0.929 . S
C1949 C1941 1.433 . S
C1949 N1951 1.384 . S
N1950 C1946 1.427 . S
N1950 C1947 1.384 . S
N1951 C1943 1.427 . S
N1951 C1949 1.384 . S
H1952 C1958 0.930 . S
H1953 C1962 0.930 . S
H1954 C1967 0.929 . S
H1955 C1965 0.929 . S
H1956 C1960 0.929 . S
H1957 C1966 0.929 . S
C1958 H1952 0.930 . S
C1958 C1959 1.367 1_554 S
C1958 C1966 1.378 . S
C1959 C1958 1.367 1_556 S
C1959 C1967 1.433 . S
C1960 H1956 0.929 . S
C1960 C1962 1.378 . S
C1960 C1964 1.350 1_556 S
C1961 C1964 1.463 1_556 S
C1961 C1966 1.350 1_556 S
C1961 N1969 1.427 . S
C1962 H1953 0.930 . S
C1962 C1960 1.378 . S
C1962 C1963 1.367 1_556 S
C1963 C1962 1.367 1_554 S
C1963 C1965 1.433 . S
C1964 C1960 1.350 1_554 S
C1964 C1961 1.463 1_554 S
C1964 N1968 1.427 . S
C1965 H1955 0.929 . S
C1965 C1963 1.433 . S
C1965 N1968 1.384 . S
C1966 H1957 0.929 . S
C1966 C1958 1.378 . S
C1966 C1961 1.350 1_554 S
C1967 H1954 0.929 . S
C1967 C1959 1.433 . S
C1967 N1969 1.384 . S
N1968 C1964 1.427 . S
N1968 C1965 1.384 . S
N1969 C1961 1.427 . S
N1969 C1967 1.384 . S
H1970 C1976 0.930 . S
H1971 C1980 0.930 . S
H1972 C1985 0.929 . S
H1973 C1983 0.929 . S
H1974 C1978 0.929 . S
H1975 C1984 0.929 . S
C1976 H1970 0.930 . S
C1976 C1977 1.367 . S
C1976 C1984 1.378 . S
C1977 C1976 1.367 . S
C1977 C1985 1.433 . S
C1978 H1974 0.929 . S
C1978 C1980 1.378 . S
C1978 C1982 1.350 . S
C1979 C1982 1.463 . S
C1979 C1984 1.350 . S
C1979 N1987 1.427 . S
C1980 H1971 0.930 . S
C1980 C1978 1.378 . S
C1980 C1981 1.367 . S
C1981 C1980 1.367 . S
C1981 C1983 1.433 . S
C1982 C1978 1.350 . S
C1982 C1979 1.463 . S
C1982 N1986 1.427 . S
C1983 H1973 0.929 . S
C1983 C1981 1.433 . S
C1983 N1986 1.384 . S
C1984 H1975 0.929 . S
C1984 C1976 1.378 . S
C1984 C1979 1.350 . S
C1985 H1972 0.929 . S
C1985 C1977 1.433 . S
C1985 N1987 1.384 . S
N1986 C1982 1.427 . S
N1986 C1983 1.384 . S
N1987 C1979 1.427 . S
N1987 C1985 1.384 . S
H1988 C1994 0.930 . S
H1989 C1998 0.930 . S
H1990 C2003 0.929 . S
H1991 C2001 0.929 . S
H1992 C1996 0.929 . S
H1993 C2002 0.929 . S
C1994 H1988 0.930 . S
C1994 C1995 1.367 . S
C1994 C2002 1.378 . S
C1995 C1994 1.367 . S
C1995 C2003 1.433 . S
C1996 H1992 0.929 . S
C1996 C1998 1.378 . S
C1996 C2000 1.350 . S
C1997 C2000 1.463 . S
C1997 C2002 1.350 . S
C1997 N2005 1.427 . S
C1998 H1989 0.930 . S
C1998 C1996 1.378 . S
C1998 C1999 1.367 . S
C1999 C1998 1.367 . S
C1999 C2001 1.433 . S
C2000 C1996 1.350 . S
C2000 C1997 1.463 . S
C2000 N2004 1.427 . S
C2001 H1991 0.929 . S
C2001 C1999 1.433 . S
C2001 N2004 1.384 . S
C2002 H1993 0.929 . S
C2002 C1994 1.378 . S
C2002 C1997 1.350 . S
C2003 H1990 0.929 . S
C2003 C1995 1.433 . S
C2003 N2005 1.384 . S
N2004 C2000 1.427 . S
N2004 C2001 1.384 . S
N2005 C1997 1.427 . S
N2005 C2003 1.384 . S
H2006 C2012 0.930 . S
H2007 C2016 0.930 . S
H2008 C2021 0.929 . S
H2009 C2019 0.929 . S
H2010 C2014 0.929 . S
H2011 C2020 0.929 . S
C2012 H2006 0.930 . S
C2012 C2013 1.367 . S
C2012 C2020 1.378 . S
C2013 C2012 1.367 . S
C2013 C2021 1.433 . S
C2014 H2010 0.929 . S
C2014 C2016 1.378 . S
C2014 C2018 1.350 . S
C2015 C2018 1.463 . S
C2015 C2020 1.350 . S
C2015 N2023 1.427 . S
C2016 H2007 0.930 . S
C2016 C2014 1.378 . S
C2016 C2017 1.367 . S
C2017 C2016 1.367 . S
C2017 C2019 1.433 . S
C2018 C2014 1.350 . S
C2018 C2015 1.463 . S
C2018 N2022 1.427 . S
C2019 H2009 0.929 . S
C2019 C2017 1.433 . S
C2019 N2022 1.384 . S
C2020 H2011 0.929 . S
C2020 C2012 1.378 . S
C2020 C2015 1.350 . S
C2021 H2008 0.929 . S
C2021 C2013 1.433 . S
C2021 N2023 1.384 . S
N2022 C2018 1.427 . S
N2022 C2019 1.384 . S
N2023 C2015 1.427 . S
N2023 C2021 1.384 . S
H2024 C2030 0.930 . S
H2025 C2034 0.930 . S
H2026 C2039 0.936 . S
H2027 C2037 0.936 . S
H2028 C2032 0.929 . S
H2029 C2038 0.929 . S
C2030 H2024 0.930 . S
C2030 C2031 1.367 . S
C2030 C2038 1.378 . S
C2031 C2030 1.367 . S
C2031 C2039 1.421 1_556 S
C2032 H2028 0.929 . S
C2032 C2034 1.378 . S
C2032 C2036 1.350 . S
C2033 C2036 1.463 1_556 S
C2033 C2038 1.350 . S
C2033 N2041 1.427 1_556 S
C2034 H2025 0.930 . S
C2034 C2032 1.378 . S
C2034 C2035 1.367 . S
C2035 C2034 1.367 . S
C2035 C2037 1.421 1_554 S
C2036 C2032 1.350 . S
C2036 C2033 1.463 1_554 S
C2036 N2040 1.427 1_554 S
C2037 H2027 0.936 . S
C2037 C2035 1.421 1_556 S
C2037 N2040 1.388 . S
C2038 H2029 0.929 . S
C2038 C2030 1.378 . S
C2038 C2033 1.350 . S
C2039 H2026 0.936 . S
C2039 C2031 1.421 1_554 S
C2039 N2041 1.388 . S
N2040 C2036 1.427 1_556 S
N2040 C2037 1.388 . S
N2041 C2033 1.427 1_554 S
N2041 C2039 1.388 . S
H2042 C2048 0.930 . S
H2043 C2052 0.930 . S
H2044 C2057 0.929 . S
H2045 C2055 0.929 . S
H2046 C2050 0.929 . S
H2047 C2056 0.929 . S
C2048 H2042 0.930 . S
C2048 C2049 1.367 . S
C2048 C2056 1.378 . S
C2049 C2048 1.367 . S
C2049 C2057 1.433 . S
C2050 H2046 0.929 . S
C2050 C2052 1.378 . S
C2050 C2054 1.350 . S
C2051 C2054 1.463 . S
C2051 C2056 1.350 . S
C2051 N2059 1.427 . S
C2052 H2043 0.930 . S
C2052 C2050 1.378 . S
C2052 C2053 1.367 . S
C2053 C2052 1.367 . S
C2053 C2055 1.433 . S
C2054 C2050 1.350 . S
C2054 C2051 1.463 . S
C2054 N2058 1.427 . S
C2055 H2045 0.929 . S
C2055 C2053 1.433 . S
C2055 N2058 1.384 . S
C2056 H2047 0.929 . S
C2056 C2048 1.378 . S
C2056 C2051 1.350 . S
C2057 H2044 0.929 . S
C2057 C2049 1.433 . S
C2057 N2059 1.384 . S
N2058 C2054 1.427 . S
N2058 C2055 1.384 . S
N2059 C2051 1.427 . S
N2059 C2057 1.384 . S
H2060 C2066 0.930 . S
H2061 C2070 0.930 . S
H2062 C2075 0.929 . S
H2063 C2073 0.929 . S
H2064 C2068 0.929 . S
H2065 C2074 0.929 . S
C2066 H2060 0.930 . S
C2066 C2067 1.367 . S
C2066 C2074 1.378 . S
C2067 C2066 1.367 . S
C2067 C2075 1.433 . S
C2068 H2064 0.929 . S
C2068 C2070 1.378 . S
C2068 C2072 1.350 . S
C2069 C2072 1.463 . S
C2069 C2074 1.350 . S
C2069 N2077 1.427 . S
C2070 H2061 0.930 . S
C2070 C2068 1.378 . S
C2070 C2071 1.367 . S
C2071 C2070 1.367 . S
C2071 C2073 1.433 . S
C2072 C2068 1.350 . S
C2072 C2069 1.463 . S
C2072 N2076 1.427 . S
C2073 H2063 0.929 . S
C2073 C2071 1.433 . S
C2073 N2076 1.384 . S
C2074 H2065 0.929 . S
C2074 C2066 1.378 . S
C2074 C2069 1.350 . S
C2075 H2062 0.929 . S
C2075 C2067 1.433 . S
C2075 N2077 1.384 . S
N2076 C2072 1.427 . S
N2076 C2073 1.384 . S
N2077 C2069 1.427 . S
N2077 C2075 1.384 . S
H2078 C2084 0.930 . S
H2079 C2088 0.930 . S
H2080 C2093 0.929 . S
H2081 C2091 0.929 . S
H2082 C2086 0.929 . S
H2083 C2092 0.929 . S
C2084 H2078 0.930 . S
C2084 C2085 1.367 . S
C2084 C2092 1.378 . S
C2085 C2084 1.367 . S
C2085 C2093 1.433 . S
C2086 H2082 0.929 . S
C2086 C2088 1.378 . S
C2086 C2090 1.350 . S
C2087 C2090 1.463 . S
C2087 C2092 1.350 . S
C2087 N2095 1.427 . S
C2088 H2079 0.930 . S
C2088 C2086 1.378 . S
C2088 C2089 1.367 . S
C2089 C2088 1.367 . S
C2089 C2091 1.433 . S
C2090 C2086 1.350 . S
C2090 C2087 1.463 . S
C2090 N2094 1.427 . S
C2091 H2081 0.929 . S
C2091 C2089 1.433 . S
C2091 N2094 1.384 . S
C2092 H2083 0.929 . S
C2092 C2084 1.378 . S
C2092 C2087 1.350 . S
C2093 H2080 0.929 . S
C2093 C2085 1.433 . S
C2093 N2095 1.384 . S
N2094 C2090 1.427 . S
N2094 C2091 1.384 . S
N2095 C2087 1.427 . S
N2095 C2093 1.384 . S
H2096 C2102 0.930 . S
H2097 C2106 0.930 . S
H2098 C2111 0.929 . S
H2099 C2109 0.929 . S
H2100 C2104 0.929 . S
H2101 C2110 0.929 . S
C2102 H2096 0.930 . S
C2102 C2103 1.367 . S
C2102 C2110 1.378 . S
C2103 C2102 1.367 . S
C2103 C2111 1.433 . S
C2104 H2100 0.929 . S
C2104 C2106 1.378 . S
C2104 C2108 1.350 . S
C2105 C2108 1.463 1_565 S
C2105 C2110 1.350 . S
C2105 N2113 1.427 . S
C2106 H2097 0.930 . S
C2106 C2104 1.378 . S
C2106 C2107 1.367 . S
C2107 C2106 1.367 . S
C2107 C2109 1.433 . S
C2108 C2104 1.350 . S
C2108 C2105 1.463 1_545 S
C2108 N2112 1.427 . S
C2109 H2099 0.929 . S
C2109 C2107 1.433 . S
C2109 N2112 1.384 . S
C2110 H2101 0.929 . S
C2110 C2102 1.378 . S
C2110 C2105 1.350 . S
C2111 H2098 0.929 . S
C2111 C2103 1.433 . S
C2111 N2113 1.384 . S
N2112 C2108 1.427 . S
N2112 C2109 1.384 . S
N2113 C2105 1.427 . S
N2113 C2111 1.384 . S
H2114 C2120 0.930 . S
H2115 C2124 0.930 . S
H2116 C2129 0.929 . S
H2117 C2127 0.929 . S
H2118 C2122 0.929 . S
H2119 C2128 0.929 . S
C2120 H2114 0.930 . S
C2120 C2121 1.367 . S
C2120 C2128 1.378 . S
C2121 C2120 1.367 . S
C2121 C2129 1.433 . S
C2122 H2118 0.929 . S
C2122 C2124 1.378 . S
C2122 C2126 1.350 . S
C2123 C2126 1.463 . S
C2123 C2128 1.350 . S
C2123 N2131 1.427 . S
C2124 H2115 0.930 . S
C2124 C2122 1.378 . S
C2124 C2125 1.367 . S
C2125 C2124 1.367 . S
C2125 C2127 1.433 . S
C2126 C2122 1.350 . S
C2126 C2123 1.463 . S
C2126 N2130 1.427 . S
C2127 H2117 0.929 . S
C2127 C2125 1.433 . S
C2127 N2130 1.384 . S
C2128 H2119 0.929 . S
C2128 C2120 1.378 . S
C2128 C2123 1.350 . S
C2129 H2116 0.929 . S
C2129 C2121 1.433 . S
C2129 N2131 1.384 . S
N2130 C2126 1.427 . S
N2130 C2127 1.384 . S
N2131 C2123 1.427 . S
N2131 C2129 1.384 . S
H2132 C2138 0.930 . S
H2133 C2142 0.930 . S
H2134 C2147 0.929 . S
H2135 C2145 0.929 . S
H2136 C2140 0.929 . S
H2137 C2146 0.929 . S
C2138 H2132 0.930 . S
C2138 C2139 1.367 . S
C2138 C2146 1.378 . S
C2139 C2138 1.367 . S
C2139 C2147 1.433 . S
C2140 H2136 0.929 . S
C2140 C2142 1.378 . S
C2140 C2144 1.350 . S
C2141 C2144 1.463 1_564 S
C2141 C2146 1.350 . S
C2141 N2149 1.427 1_554 S
C2142 H2133 0.930 . S
C2142 C2140 1.378 . S
C2142 C2143 1.367 . S
C2143 C2142 1.367 . S
C2143 C2145 1.433 . S
C2144 C2140 1.350 . S
C2144 C2141 1.463 1_546 S
C2144 N2148 1.427 1_556 S
C2145 H2135 0.929 . S
C2145 C2143 1.433 . S
C2145 N2148 1.384 1_556 S
C2146 H2137 0.929 . S
C2146 C2138 1.378 . S
C2146 C2141 1.350 . S
C2147 H2134 0.929 . S
C2147 C2139 1.433 . S
C2147 N2149 1.384 1_554 S
N2148 C2144 1.427 1_554 S
N2148 C2145 1.384 1_554 S
N2149 C2141 1.427 1_556 S
N2149 C2147 1.384 1_556 S
H2150 C2156 0.930 . S
H2151 C2160 0.930 . S
H2152 C2165 0.929 . S
H2153 C2163 0.929 . S
H2154 C2158 0.929 . S
H2155 C2164 0.929 . S
C2156 H2150 0.930 . S
C2156 C2157 1.367 . S
C2156 C2164 1.378 . S
C2157 C2156 1.367 . S
C2157 C2165 1.433 . S
C2158 H2154 0.929 . S
C2158 C2160 1.378 . S
C2158 C2162 1.350 . S
C2159 C2162 1.463 . S
C2159 C2164 1.350 . S
C2159 N2167 1.427 . S
C2160 H2151 0.930 . S
C2160 C2158 1.378 . S
C2160 C2161 1.367 . S
C2161 C2160 1.367 . S
C2161 C2163 1.433 . S
C2162 C2158 1.350 . S
C2162 C2159 1.463 . S
C2162 N2166 1.427 . S
C2163 H2153 0.929 . S
C2163 C2161 1.433 . S
C2163 N2166 1.384 . S
C2164 H2155 0.929 . S
C2164 C2156 1.378 . S
C2164 C2159 1.350 . S
C2165 H2152 0.929 . S
C2165 C2157 1.433 . S
C2165 N2167 1.384 . S
N2166 C2162 1.427 . S
N2166 C2163 1.384 . S
N2167 C2159 1.427 . S
N2167 C2165 1.384 . S
H2168 C2174 0.930 . S
H2169 C2178 0.930 . S
H2170 C2183 0.929 . S
H2171 C2181 0.929 . S
H2172 C2176 0.929 . S
H2173 C2182 0.929 . S
C2174 H2168 0.930 . S
C2174 C2175 1.367 . S
C2174 C2182 1.378 . S
C2175 C2174 1.367 . S
C2175 C2183 1.433 . S
C2176 H2172 0.929 . S
C2176 C2178 1.378 . S
C2176 C2180 1.350 . S
C2177 C2180 1.463 1_545 S
C2177 C2182 1.350 . S
C2177 N2185 1.427 . S
C2178 H2169 0.930 . S
C2178 C2176 1.378 . S
C2178 C2179 1.367 . S
C2179 C2178 1.367 . S
C2179 C2181 1.433 . S
C2180 C2176 1.350 . S
C2180 C2177 1.463 1_565 S
C2180 N2184 1.427 . S
C2181 H2171 0.929 . S
C2181 C2179 1.433 . S
C2181 N2184 1.384 . S
C2182 H2173 0.929 . S
C2182 C2174 1.378 . S
C2182 C2177 1.350 . S
C2183 H2170 0.929 . S
C2183 C2175 1.433 . S
C2183 N2185 1.384 . S
N2184 C2180 1.427 . S
N2184 C2181 1.384 . S
N2185 C2177 1.427 . S
N2185 C2183 1.384 . S
H2186 C2192 0.930 . S
H2187 C2196 0.930 . S
H2188 C2201 0.929 . S
H2189 C2199 0.929 . S
H2190 C2194 0.929 . S
H2191 C2200 0.929 . S
C2192 H2186 0.930 . S
C2192 C2193 1.367 . S
C2192 C2200 1.378 . S
C2193 C2192 1.367 . S
C2193 C2201 1.433 . S
C2194 H2190 0.929 . S
C2194 C2196 1.378 . S
C2194 C2198 1.350 . S
C2195 C2198 1.463 . S
C2195 C2200 1.350 . S
C2195 N2203 1.427 . S
C2196 H2187 0.930 . S
C2196 C2194 1.378 . S
C2196 C2197 1.367 . S
C2197 C2196 1.367 . S
C2197 C2199 1.433 . S
C2198 C2194 1.350 . S
C2198 C2195 1.463 . S
C2198 N2202 1.427 . S
C2199 H2189 0.929 . S
C2199 C2197 1.433 . S
C2199 N2202 1.384 . S
C2200 H2191 0.929 . S
C2200 C2192 1.378 . S
C2200 C2195 1.350 . S
C2201 H2188 0.929 . S
C2201 C2193 1.433 . S
C2201 N2203 1.384 . S
N2202 C2198 1.427 . S
N2202 C2199 1.384 . S
N2203 C2195 1.427 . S
N2203 C2201 1.384 . S
H2204 C2210 0.930 . S
H2205 C2214 0.930 . S
H2206 C2219 0.929 . S
H2207 C2217 0.929 . S
H2208 C2212 0.929 . S
H2209 C2218 0.929 . S
C2210 H2204 0.930 . S
C2210 C2211 1.367 1_556 S
C2210 C2218 1.378 . S
C2211 C2210 1.367 1_554 S
C2211 C2219 1.433 . S
C2212 H2208 0.929 . S
C2212 C2214 1.378 . S
C2212 C2216 1.350 1_554 S
C2213 C2216 1.463 1_564 S
C2213 C2218 1.350 1_554 S
C2213 N2221 1.427 . S
C2214 H2205 0.930 . S
C2214 C2212 1.378 . S
C2214 C2215 1.367 1_554 S
C2215 C2214 1.367 1_556 S
C2215 C2217 1.433 . S
C2216 C2212 1.350 1_556 S
C2216 C2213 1.463 1_546 S
C2216 N2220 1.427 . S
C2217 H2207 0.929 . S
C2217 C2215 1.433 . S
C2217 N2220 1.384 . S
C2218 H2209 0.929 . S
C2218 C2210 1.378 . S
C2218 C2213 1.350 1_556 S
C2219 H2206 0.929 . S
C2219 C2211 1.433 . S
C2219 N2221 1.384 . S
N2220 C2216 1.427 . S
N2220 C2217 1.384 . S
N2221 C2213 1.427 . S
N2221 C2219 1.384 . S
H2222 C2228 0.930 . S
H2223 C2232 0.930 . S
H2224 C2237 0.929 . S
H2225 C2235 0.929 . S
H2226 C2230 0.929 . S
H2227 C2236 0.929 . S
C2228 H2222 0.930 . S
C2228 C2229 1.367 . S
C2228 C2236 1.378 . S
C2229 C2228 1.367 . S
C2229 C2237 1.433 . S
C2230 H2226 0.929 . S
C2230 C2232 1.378 . S
C2230 C2234 1.350 . S
C2231 C2234 1.463 . S
C2231 C2236 1.350 . S
C2231 N2239 1.427 . S
C2232 H2223 0.930 . S
C2232 C2230 1.378 . S
C2232 C2233 1.367 . S
C2233 C2232 1.367 . S
C2233 C2235 1.433 . S
C2234 C2230 1.350 . S
C2234 C2231 1.463 . S
C2234 N2238 1.427 . S
C2235 H2225 0.929 . S
C2235 C2233 1.433 . S
C2235 N2238 1.384 . S
C2236 H2227 0.929 . S
C2236 C2228 1.378 . S
C2236 C2231 1.350 . S
C2237 H2224 0.929 . S
C2237 C2229 1.433 . S
C2237 N2239 1.384 . S
N2238 C2234 1.427 . S
N2238 C2235 1.384 . S
N2239 C2231 1.427 . S
N2239 C2237 1.384 . S
H2240 C2246 0.930 1_556 S
H2241 C2250 0.930 . S
H2242 C2255 0.929 . S
H2243 C2253 0.929 1_556 S
H2244 C2248 0.929 . S
H2245 C2254 0.929 1_556 S
C2246 H2240 0.930 1_554 S
C2246 C2247 1.367 . S
C2246 C2254 1.378 . S
C2247 C2246 1.367 . S
C2247 C2255 1.433 . S
C2248 H2244 0.929 . S
C2248 C2250 1.378 . S
C2248 C2252 1.350 . S
C2249 C2252 1.463 1_455 S
C2249 C2254 1.350 . S
C2249 N2257 1.427 . S
C2250 H2241 0.930 . S
C2250 C2248 1.378 . S
C2250 C2251 1.367 . S
C2251 C2250 1.367 . S
C2251 C2253 1.433 . S
C2252 C2248 1.350 . S
C2252 C2249 1.463 1_655 S
C2252 N2256 1.427 . S
C2253 H2243 0.929 1_554 S
C2253 C2251 1.433 . S
C2253 N2256 1.384 . S
C2254 H2245 0.929 1_554 S
C2254 C2246 1.378 . S
C2254 C2249 1.350 . S
C2255 H2242 0.929 . S
C2255 C2247 1.433 . S
C2255 N2257 1.384 . S
N2256 C2252 1.427 . S
N2256 C2253 1.384 . S
N2257 C2249 1.427 . S
N2257 C2255 1.384 . S
H2258 C2264 0.930 . S
H2259 C2268 0.930 . S
H2260 C2273 0.929 . S
H2261 C2271 0.929 . S
H2262 C2266 0.929 . S
H2263 C2272 0.929 . S
C2264 H2258 0.930 . S
C2264 C2265 1.367 . S
C2264 C2272 1.378 . S
C2265 C2264 1.367 . S
C2265 C2273 1.433 . S
C2266 H2262 0.929 . S
C2266 C2268 1.378 . S
C2266 C2270 1.350 . S
C2267 C2270 1.463 . S
C2267 C2272 1.350 . S
C2267 N2275 1.427 . S
C2268 H2259 0.930 . S
C2268 C2266 1.378 . S
C2268 C2269 1.367 . S
C2269 C2268 1.367 . S
C2269 C2271 1.433 . S
C2270 C2266 1.350 . S
C2270 C2267 1.463 . S
C2270 N2274 1.427 . S
C2271 H2261 0.929 . S
C2271 C2269 1.433 . S
C2271 N2274 1.384 . S
C2272 H2263 0.929 . S
C2272 C2264 1.378 . S
C2272 C2267 1.350 . S
C2273 H2260 0.929 . S
C2273 C2265 1.433 . S
C2273 N2275 1.384 . S
N2274 C2270 1.427 . S
N2274 C2271 1.384 . S
N2275 C2267 1.427 . S
N2275 C2273 1.384 . S
H2276 C2282 0.930 . S
H2277 C2286 0.930 . S
H2278 C2291 0.929 . S
H2279 C2289 0.929 . S
H2280 C2284 0.929 . S
H2281 C2290 0.929 . S
C2282 H2276 0.930 . S
C2282 C2283 1.367 . S
C2282 C2290 1.378 . S
C2283 C2282 1.367 . S
C2283 C2291 1.433 . S
C2284 H2280 0.929 . S
C2284 C2286 1.378 . S
C2284 C2288 1.350 . S
C2285 C2288 1.463 . S
C2285 C2290 1.350 . S
C2285 N2293 1.427 . S
C2286 H2277 0.930 . S
C2286 C2284 1.378 . S
C2286 C2287 1.367 . S
C2287 C2286 1.367 . S
C2287 C2289 1.433 . S
C2288 C2284 1.350 . S
C2288 C2285 1.463 . S
C2288 N2292 1.427 . S
C2289 H2279 0.929 . S
C2289 C2287 1.433 . S
C2289 N2292 1.384 . S
C2290 H2281 0.929 . S
C2290 C2282 1.378 . S
C2290 C2285 1.350 . S
C2291 H2278 0.929 . S
C2291 C2283 1.433 . S
C2291 N2293 1.384 . S
N2292 C2288 1.427 . S
N2292 C2289 1.384 . S
N2293 C2285 1.427 . S
N2293 C2291 1.384 . S
H2294 C2300 0.930 . S
H2295 C2304 0.930 . S
H2296 C2309 0.929 . S
H2297 C2307 0.929 . S
H2298 C2302 0.929 . S
H2299 C2308 0.929 . S
C2300 H2294 0.930 . S
C2300 C2301 1.367 . S
C2300 C2308 1.378 . S
C2301 C2300 1.367 . S
C2301 C2309 1.433 . S
C2302 H2298 0.929 . S
C2302 C2304 1.378 . S
C2302 C2306 1.350 . S
C2303 C2306 1.463 . S
C2303 C2308 1.350 . S
C2303 N2311 1.427 . S
C2304 H2295 0.930 . S
C2304 C2302 1.378 . S
C2304 C2305 1.367 . S
C2305 C2304 1.367 . S
C2305 C2307 1.433 . S
C2306 C2302 1.350 . S
C2306 C2303 1.463 . S
C2306 N2310 1.427 . S
C2307 H2297 0.929 . S
C2307 C2305 1.433 . S
C2307 N2310 1.384 . S
C2308 H2299 0.929 . S
C2308 C2300 1.378 . S
C2308 C2303 1.350 . S
C2309 H2296 0.929 . S
C2309 C2301 1.433 . S
C2309 N2311 1.384 . S
N2310 C2306 1.427 . S
N2310 C2307 1.384 . S
N2311 C2303 1.427 . S
N2311 C2309 1.384 . S
H2312 C2318 0.930 . S
H2313 C2322 0.930 1_554 S
H2314 C2327 0.929 1_554 S
H2315 C2325 0.929 . S
H2316 C2320 0.929 1_554 S
H2317 C2326 0.929 . S
C2318 H2312 0.930 . S
C2318 C2319 1.367 . S
C2318 C2326 1.378 . S
C2319 C2318 1.367 . S
C2319 C2327 1.433 . S
C2320 H2316 0.929 1_556 S
C2320 C2322 1.378 . S
C2320 C2324 1.350 . S
C2321 C2324 1.463 1_655 S
C2321 C2326 1.350 . S
C2321 N2329 1.427 . S
C2322 H2313 0.930 1_556 S
C2322 C2320 1.378 . S
C2322 C2323 1.367 . S
C2323 C2322 1.367 . S
C2323 C2325 1.433 . S
C2324 C2320 1.350 . S
C2324 C2321 1.463 1_455 S
C2324 N2328 1.427 . S
C2325 H2315 0.929 . S
C2325 C2323 1.433 . S
C2325 N2328 1.384 . S
C2326 H2317 0.929 . S
C2326 C2318 1.378 . S
C2326 C2321 1.350 . S
C2327 H2314 0.929 1_556 S
C2327 C2319 1.433 . S
C2327 N2329 1.384 . S
N2328 C2324 1.427 . S
N2328 C2325 1.384 . S
N2329 C2321 1.427 . S
N2329 C2327 1.384 . S
H2330 C2336 0.930 . S
H2331 C2340 0.930 . S
H2332 C2345 0.929 . S
H2333 C2343 0.929 . S
H2334 C2338 0.929 . S
H2335 C2344 0.929 . S
C2336 H2330 0.930 . S
C2336 C2337 1.367 . S
C2336 C2344 1.378 . S
C2337 C2336 1.367 . S
C2337 C2345 1.433 . S
C2338 H2334 0.929 . S
C2338 C2340 1.378 . S
C2338 C2342 1.350 . S
C2339 C2342 1.463 . S
C2339 C2344 1.350 . S
C2339 N2347 1.427 . S
C2340 H2331 0.930 . S
C2340 C2338 1.378 . S
C2340 C2341 1.367 . S
C2341 C2340 1.367 . S
C2341 C2343 1.433 . S
C2342 C2338 1.350 . S
C2342 C2339 1.463 . S
C2342 N2346 1.427 . S
C2343 H2333 0.929 . S
C2343 C2341 1.433 . S
C2343 N2346 1.384 . S
C2344 H2335 0.929 . S
C2344 C2336 1.378 . S
C2344 C2339 1.350 . S
C2345 H2332 0.929 . S
C2345 C2337 1.433 . S
C2345 N2347 1.384 . S
N2346 C2342 1.427 . S
N2346 C2343 1.384 . S
N2347 C2339 1.427 . S
N2347 C2345 1.384 . S
H2348 C2354 0.930 . S
H2349 C2358 0.930 . S
H2350 C2363 0.929 . S
H2351 C2361 0.929 . S
H2352 C2356 0.929 . S
H2353 C2362 0.929 . S
C2354 H2348 0.930 . S
C2354 C2355 1.367 . S
C2354 C2362 1.378 . S
C2355 C2354 1.367 . S
C2355 C2363 1.433 . S
C2356 H2352 0.929 . S
C2356 C2358 1.378 . S
C2356 C2360 1.350 . S
C2357 C2360 1.463 . S
C2357 C2362 1.350 . S
C2357 N2365 1.427 . S
C2358 H2349 0.930 . S
C2358 C2356 1.378 . S
C2358 C2359 1.367 . S
C2359 C2358 1.367 . S
C2359 C2361 1.433 . S
C2360 C2356 1.350 . S
C2360 C2357 1.463 . S
C2360 N2364 1.427 . S
C2361 H2351 0.929 . S
C2361 C2359 1.433 . S
C2361 N2364 1.384 . S
C2362 H2353 0.929 . S
C2362 C2354 1.378 . S
C2362 C2357 1.350 . S
C2363 H2350 0.929 . S
C2363 C2355 1.433 . S
C2363 N2365 1.384 . S
N2364 C2360 1.427 . S
N2364 C2361 1.384 . S
N2365 C2357 1.427 . S
N2365 C2363 1.384 . S
H2366 C2372 0.930 . S
H2367 C2376 0.930 . S
H2368 C2381 0.929 . S
H2369 C2379 0.929 . S
H2370 C2374 0.929 . S
H2371 C2380 0.929 . S
C2372 H2366 0.930 . S
C2372 C2373 1.367 . S
C2372 C2380 1.378 . S
C2373 C2372 1.367 . S
C2373 C2381 1.433 . S
C2374 H2370 0.929 . S
C2374 C2376 1.378 . S
C2374 C2378 1.350 . S
C2375 C2378 1.463 . S
C2375 C2380 1.350 . S
C2375 N2383 1.427 . S
C2376 H2367 0.930 . S
C2376 C2374 1.378 . S
C2376 C2377 1.367 . S
C2377 C2376 1.367 . S
C2377 C2379 1.433 . S
C2378 C2374 1.350 . S
C2378 C2375 1.463 . S
C2378 N2382 1.427 . S
C2379 H2369 0.929 . S
C2379 C2377 1.433 . S
C2379 N2382 1.384 . S
C2380 H2371 0.929 . S
C2380 C2372 1.378 . S
C2380 C2375 1.350 . S
C2381 H2368 0.929 . S
C2381 C2373 1.433 . S
C2381 N2383 1.384 . S
N2382 C2378 1.427 . S
N2382 C2379 1.384 . S
N2383 C2375 1.427 . S
N2383 C2381 1.384 . S
H2384 C2390 0.930 . S
H2385 C2394 0.930 . S
H2386 C2399 0.929 . S
H2387 C2397 0.929 . S
H2388 C2392 0.929 . S
H2389 C2398 0.929 . S
C2390 H2384 0.930 . S
C2390 C2391 1.367 . S
C2390 C2398 1.378 . S
C2391 C2390 1.367 . S
C2391 C2399 1.433 . S
C2392 H2388 0.929 . S
C2392 C2394 1.378 . S
C2392 C2396 1.350 . S
C2393 C2396 1.463 . S
C2393 C2398 1.350 . S
C2393 N2401 1.427 . S
C2394 H2385 0.930 . S
C2394 C2392 1.378 . S
C2394 C2395 1.367 . S
C2395 C2394 1.367 . S
C2395 C2397 1.433 . S
C2396 C2392 1.350 . S
C2396 C2393 1.463 . S
C2396 N2400 1.427 . S
C2397 H2387 0.929 . S
C2397 C2395 1.433 . S
C2397 N2400 1.384 . S
C2398 H2389 0.929 . S
C2398 C2390 1.378 . S
C2398 C2393 1.350 . S
C2399 H2386 0.929 . S
C2399 C2391 1.433 . S
C2399 N2401 1.384 . S
N2400 C2396 1.427 . S
N2400 C2397 1.384 . S
N2401 C2393 1.427 . S
N2401 C2399 1.384 . S
H2402 C2408 0.930 . S
H2403 C2412 0.930 . S
H2404 C2417 0.929 . S
H2405 C2415 0.929 . S
H2406 C2410 0.929 . S
H2407 C2416 0.929 . S
C2408 H2402 0.930 . S
C2408 C2409 1.367 . S
C2408 C2416 1.378 . S
C2409 C2408 1.367 . S
C2409 C2417 1.433 . S
C2410 H2406 0.929 . S
C2410 C2412 1.378 . S
C2410 C2414 1.350 . S
C2411 C2414 1.463 . S
C2411 C2416 1.350 . S
C2411 N2419 1.427 . S
C2412 H2403 0.930 . S
C2412 C2410 1.378 . S
C2412 C2413 1.367 . S
C2413 C2412 1.367 . S
C2413 C2415 1.433 . S
C2414 C2410 1.350 . S
C2414 C2411 1.463 . S
C2414 N2418 1.427 . S
C2415 H2405 0.929 . S
C2415 C2413 1.433 . S
C2415 N2418 1.384 . S
C2416 H2407 0.929 . S
C2416 C2408 1.378 . S
C2416 C2411 1.350 . S
C2417 H2404 0.929 . S
C2417 C2409 1.433 . S
C2417 N2419 1.384 . S
N2418 C2414 1.427 . S
N2418 C2415 1.384 . S
N2419 C2411 1.427 . S
N2419 C2417 1.384 . S
H2420 C2426 0.930 . S
H2421 C2430 0.930 . S
H2422 C2435 0.929 . S
H2423 C2433 0.929 . S
H2424 C2428 0.929 . S
H2425 C2434 0.929 . S
C2426 H2420 0.930 . S
C2426 C2427 1.367 . S
C2426 C2434 1.378 . S
C2427 C2426 1.367 . S
C2427 C2435 1.433 . S
C2428 H2424 0.929 . S
C2428 C2430 1.378 . S
C2428 C2432 1.350 . S
C2429 C2432 1.463 . S
C2429 C2434 1.350 . S
C2429 N2437 1.427 . S
C2430 H2421 0.930 . S
C2430 C2428 1.378 . S
C2430 C2431 1.367 . S
C2431 C2430 1.367 . S
C2431 C2433 1.433 . S
C2432 C2428 1.350 . S
C2432 C2429 1.463 . S
C2432 N2436 1.427 . S
C2433 H2423 0.929 . S
C2433 C2431 1.433 . S
C2433 N2436 1.384 . S
C2434 H2425 0.929 . S
C2434 C2426 1.378 . S
C2434 C2429 1.350 . S
C2435 H2422 0.929 . S
C2435 C2427 1.433 . S
C2435 N2437 1.384 . S
N2436 C2432 1.427 . S
N2436 C2433 1.384 . S
N2437 C2429 1.427 . S
N2437 C2435 1.384 . S
H2438 C2444 0.930 . S
H2439 C2448 0.930 . S
H2440 C2453 0.929 . S
H2441 C2451 0.929 . S
H2442 C2446 0.929 . S
H2443 C2452 0.929 . S
C2444 H2438 0.930 . S
C2444 C2445 1.367 . S
C2444 C2452 1.378 . S
C2445 C2444 1.367 . S
C2445 C2453 1.433 . S
C2446 H2442 0.929 . S
C2446 C2448 1.378 . S
C2446 C2450 1.350 . S
C2447 C2450 1.463 . S
C2447 C2452 1.350 . S
C2447 N2455 1.427 . S
C2448 H2439 0.930 . S
C2448 C2446 1.378 . S
C2448 C2449 1.367 . S
C2449 C2448 1.367 . S
C2449 C2451 1.433 . S
C2450 C2446 1.350 . S
C2450 C2447 1.463 . S
C2450 N2454 1.427 . S
C2451 H2441 0.929 . S
C2451 C2449 1.433 . S
C2451 N2454 1.384 . S
C2452 H2443 0.929 . S
C2452 C2444 1.378 . S
C2452 C2447 1.350 . S
C2453 H2440 0.929 . S
C2453 C2445 1.433 . S
C2453 N2455 1.384 . S
N2454 C2450 1.427 . S
N2454 C2451 1.384 . S
N2455 C2447 1.427 . S
N2455 C2453 1.384 . S
H2456 C2462 0.930 . S
H2457 C2466 0.930 . S
H2458 C2471 0.929 . S
H2459 C2469 0.929 . S
H2460 C2464 0.929 . S
H2461 C2470 0.929 . S
C2462 H2456 0.930 . S
C2462 C2463 1.367 . S
C2462 C2470 1.378 . S
C2463 C2462 1.367 . S
C2463 C2471 1.433 . S
C2464 H2460 0.929 . S
C2464 C2466 1.378 . S
C2464 C2468 1.350 . S
C2465 C2468 1.463 . S
C2465 C2470 1.350 . S
C2465 N2473 1.427 . S
C2466 H2457 0.930 . S
C2466 C2464 1.378 . S
C2466 C2467 1.367 . S
C2467 C2466 1.367 . S
C2467 C2469 1.433 . S
C2468 C2464 1.350 . S
C2468 C2465 1.463 . S
C2468 N2472 1.427 . S
C2469 H2459 0.929 . S
C2469 C2467 1.433 . S
C2469 N2472 1.384 . S
C2470 H2461 0.929 . S
C2470 C2462 1.378 . S
C2470 C2465 1.350 . S
C2471 H2458 0.929 . S
C2471 C2463 1.433 . S
C2471 N2473 1.384 . S
N2472 C2468 1.427 . S
N2472 C2469 1.384 . S
N2473 C2465 1.427 . S
N2473 C2471 1.384 . S
H2474 C2480 0.930 . S
H2475 C2484 0.930 . S
H2476 C2489 0.929 . S
H2477 C2487 0.929 . S
H2478 C2482 0.929 . S
H2479 C2488 0.929 . S
C2480 H2474 0.930 . S
C2480 C2481 1.367 . S
C2480 C2488 1.378 . S
C2481 C2480 1.367 . S
C2481 C2489 1.433 . S
C2482 H2478 0.929 . S
C2482 C2484 1.378 . S
C2482 C2486 1.350 . S
C2483 C2486 1.463 1_455 S
C2483 C2488 1.350 . S
C2483 N2491 1.427 . S
C2484 H2475 0.930 . S
C2484 C2482 1.378 . S
C2484 C2485 1.367 . S
C2485 C2484 1.367 . S
C2485 C2487 1.433 . S
C2486 C2482 1.350 . S
C2486 C2483 1.463 1_655 S
C2486 N2490 1.427 . S
C2487 H2477 0.929 . S
C2487 C2485 1.433 . S
C2487 N2490 1.384 . S
C2488 H2479 0.929 . S
C2488 C2480 1.378 . S
C2488 C2483 1.350 . S
C2489 H2476 0.929 . S
C2489 C2481 1.433 . S
C2489 N2491 1.384 . S
N2490 C2486 1.427 . S
N2490 C2487 1.384 . S
N2491 C2483 1.427 . S
N2491 C2489 1.384 . S
H2492 C2498 0.930 . S
H2493 C2502 0.930 . S
H2494 C2507 0.929 . S
H2495 C2505 0.929 . S
H2496 C2500 0.929 . S
H2497 C2506 0.929 . S
C2498 H2492 0.930 . S
C2498 C2499 1.367 . S
C2498 C2506 1.378 . S
C2499 C2498 1.367 . S
C2499 C2507 1.433 . S
C2500 H2496 0.929 . S
C2500 C2502 1.378 . S
C2500 C2504 1.350 . S
C2501 C2504 1.463 . S
C2501 C2506 1.350 . S
C2501 N2509 1.427 . S
C2502 H2493 0.930 . S
C2502 C2500 1.378 . S
C2502 C2503 1.367 . S
C2503 C2502 1.367 . S
C2503 C2505 1.433 . S
C2504 C2500 1.350 . S
C2504 C2501 1.463 . S
C2504 N2508 1.427 . S
C2505 H2495 0.929 . S
C2505 C2503 1.433 . S
C2505 N2508 1.384 . S
C2506 H2497 0.929 . S
C2506 C2498 1.378 . S
C2506 C2501 1.350 . S
C2507 H2494 0.929 . S
C2507 C2499 1.433 . S
C2507 N2509 1.384 . S
N2508 C2504 1.427 . S
N2508 C2505 1.384 . S
N2509 C2501 1.427 . S
N2509 C2507 1.384 . S
H2510 C2516 0.930 . S
H2511 C2520 0.930 1_554 S
H2512 C2525 0.929 1_554 S
H2513 C2523 0.929 . S
H2514 C2518 0.929 1_554 S
H2515 C2524 0.929 . S
C2516 H2510 0.930 . S
C2516 C2517 1.367 . S
C2516 C2524 1.378 . S
C2517 C2516 1.367 . S
C2517 C2525 1.433 . S
C2518 H2514 0.929 1_556 S
C2518 C2520 1.378 . S
C2518 C2522 1.350 . S
C2519 C2522 1.463 1_455 S
C2519 C2524 1.350 . S
C2519 N2527 1.427 . S
C2520 H2511 0.930 1_556 S
C2520 C2518 1.378 . S
C2520 C2521 1.367 . S
C2521 C2520 1.367 . S
C2521 C2523 1.433 . S
C2522 C2518 1.350 . S
C2522 C2519 1.463 1_655 S
C2522 N2526 1.427 . S
C2523 H2513 0.929 . S
C2523 C2521 1.433 . S
C2523 N2526 1.384 . S
C2524 H2515 0.929 . S
C2524 C2516 1.378 . S
C2524 C2519 1.350 . S
C2525 H2512 0.929 1_556 S
C2525 C2517 1.433 . S
C2525 N2527 1.384 . S
N2526 C2522 1.427 . S
N2526 C2523 1.384 . S
N2527 C2519 1.427 . S
N2527 C2525 1.384 . S
C1095 C5 1.440 . S
C1099 C9 1.377 . S
C1113 C43 1.379 . S
C1117 C39 1.440 . S
C1131 C77 1.389 . S
C1135 C73 1.441 . S
C1149 C111 1.381 . S
C1153 C107 1.439 . S
C1167 C145 1.388 . S
C1171 C141 1.441 . S
C1185 C179 1.379 . S
C1189 C175 1.439 . S
C1203 C209 1.439 . S
C1207 C213 1.382 . S
C1221 C243 1.441 . S
C1225 C247 1.389 . S
C1239 C277 1.440 . S
C1243 C281 1.388 . S
C1257 C311 1.439 . S
C1261 C315 1.381 . S
C1275 C345 1.441 . S
C1279 C349 1.389 . S
C1293 C383 1.387 . S
C1297 C379 1.441 . S
C1311 C413 1.440 . S
C1315 C417 1.373 . S
C1329 C447 1.439 . S
C1333 C451 1.380 . S
C1347 C485 1.375 . S
C1351 C481 1.440 . S
C1365 C515 1.439 . S
C1369 C519 1.380 . S
C1383 C553 1.389 . S
C1387 C549 1.441 . S
C1401 C587 1.381 . S
C1405 C583 1.439 . S
C1419 C621 1.389 . S
C1423 C617 1.441 . S
C1437 C655 1.376 . S
C1441 C651 1.440 . S
C1455 C689 1.388 . S
C1459 C685 1.441 . S
C1473 C723 1.377 . S
C1477 C719 1.439 . S
C1491 C757 1.389 . S
C1495 C753 1.441 . S
C1509 C787 1.440 . S
C1513 C791 1.383 . S
C1527 C825 1.375 . S
C1531 C821 1.440 . S
C1545 C859 1.373 . S
C1549 C855 1.439 . S
C1563 C893 1.376 . S
C1567 C889 1.440 . S
C1581 C923 1.439 . S
C1585 C927 1.381 . S
C1599 C957 1.440 . S
C1603 C961 1.386 . S
C1617 C991 1.439 . S
C1621 C995 1.380 . S
C1635 C1029 1.388 . S
C1639 C1025 1.440 . S
C1653 C1059 1.441 . S
C1657 C1063 1.381 . S
C1671 C802 1.490 . S
C1675 C20 1.497 . S
C1689 C700 1.492 . S
C1693 C54 1.495 . S
C1707 C734 1.494 . S
C1711 C88 1.492 . S
C1725 C768 1.493 . S
C1729 C122 1.492 . S
C1743 C598 1.490 . S
C1747 C156 1.496 . S
C1761 C632 1.493 . S
C1765 C190 1.493 . S
C1779 C666 1.496 . S
C1783 C224 1.491 . S
C1797 C564 1.492 . S
C1801 C258 1.496 . S
C1815 C1074 1.490 . S
C1819 C292 1.496 . S
C1833 C972 1.496 . S
C1837 C326 1.491 . S
C1851 C360 1.493 . S
C1855 C1006 1.493 . S
C1869 C394 1.494 . S
C1873 C1040 1.494 . S
C1887 C428 1.496 . S
C1891 C870 1.491 . S
C1905 C462 1.491 . S
C1909 C904 1.496 . S
C1923 C496 1.491 . S
C1927 C938 1.495 . S
C1941 C836 1.492 . S
C1945 C530 1.495 . S
C1959 C169 1.215 . S
C1963 C33 1.213 . S
C1977 C67 1.215 . S
C1981 C203 1.219 . S
C1995 C237 1.212 . S
C1999 C101 1.217 . S
C2013 C135 1.219 . S
C2017 C271 1.213 . S
C2031 C305 1.215 . S
C2035 C441 1.219 . S
C2049 C475 1.218 . S
C2053 C339 1.212 . S
C2067 C509 1.218 . S
C2071 C373 1.215 . S
C2085 C543 1.217 . S
C2089 C407 1.212 . S
C2103 C713 1.215 . S
C2107 C577 1.213 . S
C2121 C611 1.218 . S
C2125 C747 1.212 . S
C2139 C645 1.214 . S
C2143 C781 1.219 . S
C2157 C679 1.213 . S
C2161 C815 1.216 . S
C2175 C985 1.219 . S
C2179 C849 1.215 . S
C2193 C1019 1.219 . S
C2197 C883 1.213 . S
C2211 C1053 1.214 . S
C2215 C917 1.214 . S
C2229 C951 1.216 . S
C2233 C1087 1.213 . S
C2247 C2 1.705 . S
C2251 C410 1.707 . S
C2265 C988 1.705 . S
C2269 C36 1.707 . S
C2283 C70 1.706 . S
C2287 C478 1.705 . S
C2301 C1056 1.705 . S
C2305 C104 1.707 . S
C2319 C274 1.707 . S
C2323 C138 1.705 . S
C2337 C172 1.706 . S
C2341 C852 1.706 . S
C2355 C206 1.705 . S
C2359 C342 1.707 . S
C2373 C240 1.707 . S
C2377 C920 1.705 . S
C2391 C716 1.707 . S
C2395 C308 1.705 . S
C2409 C784 1.707 . S
C2413 C376 1.705 . S
C2427 C580 1.705 . S
C2431 C444 1.707 . S
C2445 C648 1.705 . S
C2449 C512 1.707 . S
C2463 C546 1.705 . S
C2467 C954 1.707 . S
C2481 C1022 1.706 . S
C2485 C614 1.705 . S
C2499 C682 1.707 . S
C2503 C818 1.705 . S
C2517 C886 1.707 . S
C2521 C750 1.705 . S
