# Generated by pormake.
# Topology wke, (5)-cn, num edge types: 1
# Building blocks:
#     Node 0, Type 0, BuildingBlock: BEQFEK_clean_sbu_0, # of connection points: 5
#     Node 1, Type 0, BuildingBlock: BEQFEK_clean_sbu_0, # of connection points: 5
#     Node 2, Type 0, BuildingBlock: BEQFEK_clean_sbu_0, # of connection points: 5
#     Node 3, Type 0, BuildingBlock: BEQFEK_clean_sbu_0, # of connection points: 5
#     Node 4, Type 0, BuildingBlock: BEQFEK_clean_sbu_0, # of connection points: 5
#     Node 5, Type 0, BuildingBlock: BEQFEK_clean_sbu_0, # of connection points: 5
#     Node 6, Type 0, BuildingBlock: BEQFEK_clean_sbu_0, # of connection points: 5
#     Node 7, Type 0, BuildingBlock: BEQFEK_clean_sbu_0, # of connection points: 5
#     Node 8, Type 0, BuildingBlock: BEQFEK_clean_sbu_0, # of connection points: 5
#     Node 9, Type 0, BuildingBlock: BEQFEK_clean_sbu_0, # of connection points: 5
#     Node 10, Type 0, BuildingBlock: BEQFEK_clean_sbu_0, # of connection points: 5
#     Node 11, Type 0, BuildingBlock: BEQFEK_clean_sbu_0, # of connection points: 5
#     Edge 12, Type (0, 0), BuildingBlock: CIFDUS_clean_linker_0, # of connection points: 2
#     Edge 13, Type (0, 0), BuildingBlock: CIFDUS_clean_linker_0, # of connection points: 2
#     Edge 14, Type (0, 0), BuildingBlock: CIFDUS_clean_linker_0, # of connection points: 2
#     Edge 15, Type (0, 0), BuildingBlock: CIFDUS_clean_linker_0, # of connection points: 2
#     Edge 16, Type (0, 0), BuildingBlock: CIFDUS_clean_linker_0, # of connection points: 2
#     Edge 17, Type (0, 0), BuildingBlock: CIFDUS_clean_linker_0, # of connection points: 2
#     Edge 18, Type (0, 0), BuildingBlock: CIFDUS_clean_linker_0, # of connection points: 2
#     Edge 19, Type (0, 0), BuildingBlock: CIFDUS_clean_linker_0, # of connection points: 2
#     Edge 20, Type (0, 0), BuildingBlock: CIFDUS_clean_linker_0, # of connection points: 2
#     Edge 21, Type (0, 0), BuildingBlock: CIFDUS_clean_linker_0, # of connection points: 2
#     Edge 22, Type (0, 0), BuildingBlock: CIFDUS_clean_linker_0, # of connection points: 2
#     Edge 23, Type (0, 0), BuildingBlock: CIFDUS_clean_linker_0, # of connection points: 2
#     Edge 24, Type (0, 0), BuildingBlock: CIFDUS_clean_linker_0, # of connection points: 2
#     Edge 25, Type (0, 0), BuildingBlock: CIFDUS_clean_linker_0, # of connection points: 2
#     Edge 26, Type (0, 0), BuildingBlock: CIFDUS_clean_linker_0, # of connection points: 2
#     Edge 27, Type (0, 0), BuildingBlock: CIFDUS_clean_linker_0, # of connection points: 2
#     Edge 28, Type (0, 0), BuildingBlock: CIFDUS_clean_linker_0, # of connection points: 2
#     Edge 29, Type (0, 0), BuildingBlock: CIFDUS_clean_linker_0, # of connection points: 2
#     Edge 30, Type (0, 0), BuildingBlock: CIFDUS_clean_linker_0, # of connection points: 2
#     Edge 31, Type (0, 0), BuildingBlock: CIFDUS_clean_linker_0, # of connection points: 2
#     Edge 32, Type (0, 0), BuildingBlock: CIFDUS_clean_linker_0, # of connection points: 2
#     Edge 33, Type (0, 0), BuildingBlock: CIFDUS_clean_linker_0, # of connection points: 2
#     Edge 34, Type (0, 0), BuildingBlock: CIFDUS_clean_linker_0, # of connection points: 2
#     Edge 35, Type (0, 0), BuildingBlock: CIFDUS_clean_linker_0, # of connection points: 2
#     Edge 36, Type (0, 0), BuildingBlock: CIFDUS_clean_linker_0, # of connection points: 2
#     Edge 37, Type (0, 0), BuildingBlock: CIFDUS_clean_linker_0, # of connection points: 2
#     Edge 38, Type (0, 0), BuildingBlock: CIFDUS_clean_linker_0, # of connection points: 2
#     Edge 39, Type (0, 0), BuildingBlock: CIFDUS_clean_linker_0, # of connection points: 2
#     Edge 40, Type (0, 0), BuildingBlock: CIFDUS_clean_linker_0, # of connection points: 2
#     Edge 41, Type (0, 0), BuildingBlock: CIFDUS_clean_linker_0, # of connection points: 2
# Relax obj value: 0.229
# Max RMSD: 0.182
# Mean RMSD: 0.182
data_MOF--net-wke--node1-BEQFEK_clean_sbu_0--edge1-CIFDUS_clean_linker_0
_symmetry_space_group_name_H-M    P1
_symmetry_Int_Tables_number       1
_symmetry_cell_setting            triclinic
loop_
_symmetry_equiv_pos_as_xyz
'x, y, z'
_cell_length_a     63.184718
_cell_length_b     63.237553
_cell_length_c     17.006732
_cell_angle_alpha  89.859789
_cell_angle_beta   89.993256
_cell_angle_gamma 120.0112
loop_
_atom_site_label
_atom_site_type_symbol
_atom_site_fract_x
_atom_site_fract_y
_atom_site_fract_z
_atom_type_partial_charge
Co0 Co 0.10663 0.45181 0.27439 0.0
Co1 Co 0.12638 0.46403 0.44604 0.0
C2 C 0.07399 0.42644 0.41176 0.0
O3 O 0.07679 0.42872 0.3373 0.0
O4 O 0.09172 0.43906 0.45777 0.0
C5 C 0.09654 0.42919 0.1164 0.0
O6 O 0.09674 0.41012 0.14631 0.0
C7 C 0.13418 0.45261 0.60576 0.0
C8 C 0.15383 0.48923 0.65911 0.0
C9 C 0.14254 0.46454 0.67677 0.0
N10 N 0.14009 0.46941 0.54872 0.0
N11 N 0.1524 0.49131 0.58075 0.0
C12 C 0.11833 0.42569 0.59409 0.0
H13 H 0.11456 0.42116 0.53083 0.0
H14 H 0.1276 0.41614 0.61838 0.0
H15 H 0.10099 0.41907 0.62706 0.0
C16 C 0.15315 0.45022 0.25562 0.0
N17 N 0.13575 0.4509 0.30005 0.0
N18 N 0.14293 0.45435 0.37388 0.0
C19 C 0.16434 0.45463 0.37945 0.0
C20 C 0.17173 0.45221 0.30448 0.0
C21 C 0.15442 0.45247 0.16781 0.0
H22 H 0.14541 0.46266 0.14736 0.0
H23 H 0.14519 0.43399 0.14142 0.0
H24 H 0.17364 0.46226 0.14695 0.0
O25 O 0.11324 0.48537 0.29002 0.0
O26 O 0.12827 0.49516 0.41073 0.0
H27 H 0.18595 0.47687 0.47497 0.0
H28 H 0.19185 0.45246 0.44955 0.0
C29 C 0.17753 0.45761 0.45534 0.0
H30 H 0.16437 0.44584 0.50094 0.0
H31 H 0.15818 0.50762 0.5501 0.0
O32 O 0.09952 0.44654 0.16099 0.0
C33 C 0.12204 0.50066 0.34592 0.0
Co34 Co 0.66041 0.10381 0.76792 0.0
Co35 Co 0.66489 0.1257 0.93586 0.0
C36 C 0.6483 0.07196 0.90764 0.0
O37 O 0.65095 0.07386 0.83306 0.0
O38 O 0.65281 0.09038 0.94943 0.0
C39 C 0.6694 0.09019 0.60481 0.0
O40 O 0.68523 0.0839 0.62892 0.0
C41 C 0.68338 0.1321 0.09509 0.0
C42 C 0.66518 0.14999 0.15254 0.0
C43 C 0.67889 0.13884 0.16795 0.0
N44 N 0.67256 0.13862 0.03959 0.0
N45 N 0.66223 0.14987 0.07411 0.0
C46 C 0.69497 0.11688 0.07933 0.0
H47 H 0.68539 0.09956 0.11319 0.0
H48 H 0.69473 0.11303 0.01567 0.0
H49 H 0.71426 0.12682 0.09922 0.0
C50 C 0.71176 0.1459 0.75805 0.0
N51 N 0.69102 0.13126 0.7982 0.0
N52 N 0.69259 0.14065 0.86851 0.0
C53 C 0.71425 0.16149 0.8751 0.0
C54 C 0.72719 0.16536 0.80557 0.0
C55 C 0.71565 0.14311 0.67281 0.0
H56 H 0.69935 0.13986 0.63873 0.0
H57 H 0.71844 0.12727 0.66561 0.0
H58 H 0.73189 0.15956 0.64885 0.0
O59 O 0.63477 0.11292 0.77666 0.0
O60 O 0.63788 0.12989 0.89313 0.0
H61 H 0.70709 0.18184 0.9608 0.0
H62 H 0.73912 0.19517 0.93471 0.0
C63 C 0.72179 0.17785 0.94533 0.0
H64 H 0.72429 0.16826 -0.00395 0.0
H65 H 0.65151 0.1557 0.0449 0.0
O66 O 0.6593 0.09755 0.65367 0.0
C67 C 0.62772 0.12318 0.82605 0.0
Co68 Co 0.55985 0.65534 0.23936 0.0
Co69 Co 0.54657 0.65752 0.41379 0.0
C70 C 0.58491 0.6446 0.36938 0.0
O71 O 0.58292 0.64758 0.29611 0.0
O72 O 0.57174 0.64765 0.4195 0.0
C73 C 0.58518 0.67216 0.08678 0.0
O74 O 0.60497 0.68845 0.12334 0.0
C75 C 0.55346 0.66936 0.58193 0.0
C76 C 0.51545 0.65672 0.61875 0.0
C77 C 0.53889 0.66542 0.64762 0.0
N78 N 0.53916 0.66281 0.51771 0.0
N79 N 0.51659 0.65588 0.53999 0.0
C80 C 0.58006 0.6771 0.58056 0.0
H81 H 0.58691 0.67909 0.51962 0.0
H82 H 0.59081 0.69512 0.60922 0.0
H83 H 0.58313 0.6637 0.61352 0.0
C84 C 0.56196 0.70368 0.23709 0.0
N85 N 0.5606 0.68427 0.27519 0.0
N86 N 0.55652 0.68576 0.35023 0.0
C87 C 0.55629 0.70667 0.36302 0.0
C88 C 0.55954 0.71875 0.29155 0.0
C89 C 0.56124 0.70556 0.14939 0.0
H90 H 0.58014 0.7144 0.1259 0.0
H91 H 0.55286 0.71659 0.13132 0.0
H92 H 0.55042 0.68715 0.12329 0.0
O93 O 0.52619 0.62771 0.24862 0.0
O94 O 0.51585 0.62938 0.37197 0.0
H95 H 0.53303 0.70383 0.45857 0.0
H96 H 0.55853 0.73434 0.44282 0.0
C97 C 0.55264 0.71461 0.44224 0.0
H98 H 0.56334 0.71112 0.48675 0.0
H99 H 0.5017 0.64917 0.50181 0.0
O100 O 0.56639 0.65759 0.1262 0.0
C101 C 0.51064 0.61954 0.3042 0.0
Co102 Co 0.91013 0.56022 0.77591 0.0
Co103 Co 0.89163 0.54449 0.94697 0.0
C104 C 0.94411 0.58281 0.90961 0.0
O105 O 0.94049 0.58226 0.83571 0.0
O106 O 0.92689 0.569 0.95611 0.0
C107 C 0.92274 0.58358 0.61578 0.0
O108 O 0.92808 0.60514 0.64267 0.0
C109 C 0.88537 0.55649 0.10597 0.0
C110 C 0.86678 0.52037 0.16379 0.0
C111 C 0.87776 0.54522 0.17846 0.0
N112 N 0.87934 0.53917 0.0511 0.0
N113 N 0.8677 0.51756 0.08567 0.0
C114 C 0.90097 0.58328 0.09039 0.0
H115 H 0.90307 0.58708 0.0263 0.0
H116 H 0.89256 0.59326 0.11743 0.0
H117 H 0.91918 0.59007 0.11771 0.0
C118 C 0.86635 0.56683 0.77088 0.0
N119 N 0.88231 0.56215 0.80902 0.0
N120 N 0.87475 0.55577 0.88195 0.0
C121 C 0.85409 0.55672 0.89293 0.0
C122 C 0.84811 0.56379 0.82298 0.0
C123 C 0.86796 0.57318 0.68546 0.0
H124 H 0.88347 0.59193 0.67645 0.0
H125 H 0.85111 0.57263 0.66409 0.0
H126 H 0.87129 0.56036 0.65049 0.0
O127 O 0.90275 0.52612 0.78624 0.0
O128 O 0.88823 0.51334 0.9062 0.0
H129 H 0.82123 0.54769 0.95866 0.0
H130 H 0.8494 0.56244 0.01379 0.0
C131 C 0.83925 0.54897 0.9669 0.0
H132 H 0.83646 0.53099 0.9863 0.0
H133 H 0.8619 0.50102 0.05675 0.0
O134 O 0.91571 0.56555 0.66218 0.0
C135 C 0.89404 0.50942 0.83828 0.0
Co136 Co 0.35559 0.90234 0.29207 0.0
Co137 Co 0.35447 0.88287 0.46247 0.0
C138 C 0.36984 0.93604 0.42718 0.0
O139 O 0.36576 0.93312 0.35332 0.0
O140 O 0.36651 0.91829 0.47096 0.0
C141 C 0.34311 0.91483 0.13295 0.0
O142 O 0.33113 0.92485 0.16345 0.0
C143 C 0.34248 0.87828 0.63073 0.0
C144 C 0.3562 0.85413 0.6706 0.0
C145 C 0.34707 0.86866 0.69826 0.0
N146 N 0.34925 0.8703 0.56743 0.0
N147 N 0.35688 0.85541 0.59165 0.0
C148 C 0.33296 0.89567 0.62576 0.0
H149 H 0.33277 0.90136 0.56437 0.0
H150 H 0.31378 0.88641 0.64689 0.0
H151 H 0.34402 0.91184 0.66334 0.0
C152 C 0.30416 0.86064 0.29524 0.0
N153 N 0.32584 0.8753 0.33017 0.0
N154 N 0.3254 0.86709 0.40172 0.0
C155 C 0.30338 0.84713 0.41483 0.0
C156 C 0.28913 0.84242 0.3478 0.0
C157 C 0.29891 0.86239 0.21039 0.0
H158 H 0.31427 0.8643 0.17374 0.0
H159 H 0.29699 0.87872 0.20164 0.0
H160 H 0.28192 0.84603 0.19038 0.0
O161 O 0.38189 0.89402 0.29603 0.0
O162 O 0.38084 0.87861 0.41408 0.0
H163 H 0.30859 0.82546 0.50083 0.0
H164 H 0.27704 0.81793 0.48956 0.0
C165 C 0.29631 0.83299 0.49025 0.0
H166 H 0.29877 0.84547 0.53951 0.0
H167 H 0.36395 0.84731 0.55464 0.0
O168 O 0.35319 0.90632 0.17765 0.0
C169 C 0.38994 0.88458 0.34527 0.0
Co170 Co 0.45538 0.35135 0.74578 0.0
Co171 Co 0.47012 0.35124 0.91955 0.0
C172 C 0.43204 0.36472 0.87329 0.0
O173 O 0.43366 0.36121 0.8002 0.0
O174 O 0.44499 0.36141 0.92387 0.0
C175 C 0.43738 0.3531 0.58717 0.0
O176 O 0.42793 0.36598 0.61456 0.0
C177 C 0.46175 0.33883 0.08505 0.0
C178 C 0.49876 0.3498 0.12855 0.0
C179 C 0.47479 0.34076 0.15255 0.0
N180 N 0.4773 0.3467 0.02405 0.0
N181 N 0.49938 0.35303 0.05012 0.0
C182 C 0.43478 0.32861 0.07774 0.0
H183 H 0.42855 0.32139 0.0176 0.0
H184 H 0.42485 0.31393 0.12185 0.0
H185 H 0.43047 0.34328 0.08887 0.0
C186 C 0.44727 0.30095 0.75411 0.0
N187 N 0.45268 0.3223 0.78804 0.0
N188 N 0.45901 0.3221 0.86152 0.0
C189 C 0.45771 0.30052 0.87682 0.0
C190 C 0.45026 0.28645 0.80906 0.0
C191 C 0.44055 0.29499 0.66946 0.0
H192 H 0.45683 0.3065 0.63259 0.0
H193 H 0.426 0.29917 0.65368 0.0
H194 H 0.43407 0.27547 0.65695 0.0
O195 O 0.48972 0.37852 0.7499 0.0
O196 O 0.50059 0.37826 0.87358 0.0
H197 H 0.48465 0.30856 0.9655 0.0
H198 H 0.46414 0.27624 0.95018 0.0
C199 C 0.46551 0.29442 0.95252 0.0
H200 H 0.45381 0.29455 0.00092 0.0
H201 H 0.51495 0.36012 0.0147 0.0
O202 O 0.44823 0.34589 0.63339 0.0
C203 C 0.50559 0.38721 0.80441 0.0
Co204 Co 0.55617 0.90063 0.20033 0.0
Co205 Co 0.53714 0.8808 0.0309 0.0
C206 C 0.5757 0.93393 0.0636 0.0
O207 O 0.57709 0.9313 0.13765 0.0
O208 O 0.56093 0.91606 0.02115 0.0
C209 C 0.58083 0.91323 0.36049 0.0
O210 O 0.60305 0.92461 0.33112 0.0
C211 C 0.54433 0.87563 0.86309 0.0
C212 C 0.50632 0.85229 0.82347 0.0
C213 C 0.53009 0.86627 0.79554 0.0
N214 N 0.5295 0.8681 0.92639 0.0
N215 N 0.50687 0.85369 0.90235 0.0
C216 C 0.57139 0.89227 0.8684 0.0
H217 H 0.57722 0.89774 0.92989 0.0
H218 H 0.58076 0.88246 0.84748 0.0
H219 H 0.57714 0.90863 0.83087 0.0
C220 C 0.56473 0.85825 0.19854 0.0
N221 N 0.5582 0.87322 0.16294 0.0
N222 N 0.55028 0.86494 0.09169 0.0
C223 C 0.55187 0.84472 0.07938 0.0
C224 C 0.56105 0.8398 0.14679 0.0
C225 C 0.57372 0.86113 0.28135 0.0
H226 H 0.55973 0.86064 0.32189 0.0
H227 H 0.59063 0.87908 0.28729 0.0
H228 H 0.57781 0.8466 0.2983 0.0
O229 O 0.52168 0.89288 0.197 0.0
O230 O 0.50682 0.87708 0.07999 0.0
H231 H 0.52393 0.82473 -0.00543 0.0
H232 H 0.54407 0.81253 0.01229 0.0
C233 C 0.54307 0.8295 0.00664 0.0
H234 H 0.55442 0.84032 0.95599 0.0
H235 H 0.49165 0.84601 0.9394 0.0
O236 O 0.56247 0.90413 0.31489 0.0
C237 C 0.50403 0.88343 0.1485 0.0
Co238 Co 0.65969 0.5559 0.72174 0.0
Co239 Co 0.6644 0.54374 0.54867 0.0
C240 C 0.65051 0.58152 0.58994 0.0
O241 O 0.65257 0.57911 0.66349 0.0
O242 O 0.65444 0.56882 0.54052 0.0
C243 C 0.67295 0.57934 0.8778 0.0
O244 O 0.69174 0.59865 0.84679 0.0
C245 C 0.68274 0.55587 0.38913 0.0
C246 C 0.66779 0.51956 0.33458 0.0
C247 C 0.68049 0.54437 0.31825 0.0
N248 N 0.67198 0.53873 0.44515 0.0
N249 N 0.66352 0.51704 0.41255 0.0
C250 C 0.69246 0.58256 0.40179 0.0
H251 H 0.67897 0.5875 0.37982 0.0
H252 H 0.69596 0.58715 0.46514 0.0
H253 H 0.70964 0.59341 0.36808 0.0
C254 C 0.70849 0.55873 0.73152 0.0
N255 N 0.68938 0.55722 0.69102 0.0
N256 N 0.69176 0.55331 0.61644 0.0
C257 C 0.71288 0.55321 0.60651 0.0
C258 C 0.7242 0.55649 0.67924 0.0
C259 C 0.70966 0.55813 0.8194 0.0
H260 H 0.69102 0.54772 0.84452 0.0
H261 H 0.71875 0.57708 0.84217 0.0
H262 H 0.72031 0.54949 0.83914 0.0
O263 O 0.63254 0.52231 0.70787 0.0
O264 O 0.63568 0.51237 0.58529 0.0
H265 H 0.70989 0.53067 0.50874 0.0
H266 H 0.74102 0.55383 0.53164 0.0
C267 C 0.72181 0.54974 0.52872 0.0
H268 H 0.72077 0.56213 0.48477 0.0
H269 H 0.65353 0.50051 0.44261 0.0
O270 O 0.65895 0.56138 0.83472 0.0
C271 C 0.62505 0.50693 0.65203 0.0
Co272 Co 0.10275 0.65326 0.2858 0.0
Co273 Co 0.12152 0.66001 0.11343 0.0
C274 C 0.06902 0.6446 0.15173 0.0
O275 O 0.07255 0.64587 0.22582 0.0
O276 O 0.08638 0.64947 0.10406 0.0
C277 C 0.09074 0.66419 0.44382 0.0
O278 O 0.08767 0.68165 0.41404 0.0
C279 C 0.1281 0.67921 0.95449 0.0
C280 C 0.14873 0.66357 0.89889 0.0
C281 C 0.13661 0.67628 0.88275 0.0
N282 N 0.13467 0.66855 0.01033 0.0
N283 N 0.14756 0.65979 0.97706 0.0
C284 C 0.11128 0.68907 0.96812 0.0
H285 H 0.0932 0.67655 0.94174 0.0
H286 H 0.10916 0.69117 0.03191 0.0
H287 H 0.11859 0.70708 0.93879 0.0
C288 C 0.14778 0.70249 0.30021 0.0
N289 N 0.13084 0.68361 0.25747 0.0
N290 N 0.13822 0.68659 0.18378 0.0
C291 C 0.15967 0.70766 0.17705 0.0
C292 C 0.16634 0.7185 0.25048 0.0
C293 C 0.14791 0.70381 0.38809 0.0
H294 H 0.13496 0.7098 0.40708 0.0
H295 H 0.16626 0.71713 0.41099 0.0
H296 H 0.14211 0.68558 0.41373 0.0
O297 O 0.11026 0.62677 0.27009 0.0
O298 O 0.12459 0.63158 0.14841 0.0
H299 H 0.17893 0.70129 0.08532 0.0
H300 H 0.19226 0.73309 0.11283 0.0
C301 C 0.17486 0.7157 0.10386 0.0
H302 H 0.16436 0.71817 0.05604 0.0
H303 H 0.154 0.64967 0.00677 0.0
O304 O 0.09637 0.65166 0.39941 0.0
C305 C 0.11903 0.62026 0.21397 0.0
Co306 Co 0.46146 0.10811 0.70386 0.0
Co307 Co 0.47749 0.12789 0.53337 0.0
C308 C 0.43896 0.07541 0.56633 0.0
O309 O 0.43929 0.07824 0.64066 0.0
O310 O 0.45297 0.09306 0.52173 0.0
C311 C 0.43802 0.09736 0.86353 0.0
O312 O 0.41822 0.09658 0.83608 0.0
C313 C 0.46621 0.1348 0.37335 0.0
C314 C 0.50252 0.15261 0.31686 0.0
C315 C 0.47776 0.14213 0.3012 0.0
N316 N 0.4833 0.14061 0.4292 0.0
N317 N 0.50503 0.15174 0.39527 0.0
C318 C 0.43927 0.11992 0.3877 0.0
H319 H 0.4352 0.11672 0.45145 0.0
H320 H 0.43016 0.12965 0.36365 0.0
H321 H 0.43172 0.10226 0.3563 0.0
C322 C 0.4584 0.15394 0.71468 0.0
N323 N 0.46069 0.13692 0.67357 0.0
N324 N 0.46629 0.14442 0.60024 0.0
C325 C 0.46667 0.16581 0.59157 0.0
C326 C 0.4618 0.17269 0.66397 0.0
C327 C 0.45749 0.15457 0.8026 0.0
H328 H 0.46789 0.14648 0.82858 0.0
H329 H 0.43819 0.14407 0.82231 0.0
H330 H 0.46542 0.17354 0.82456 0.0
O331 O 0.49538 0.11515 0.69439 0.0
O332 O 0.5084 0.13065 0.57538 0.0
H333 H 0.49153 0.18657 0.49937 0.0
H334 H 0.4683 0.19478 0.51838 0.0
C335 C 0.4721 0.17949 0.51541 0.0
H336 H 0.46058 0.16693 0.46845 0.0
H337 H 0.52143 0.15715 0.42482 0.0
O338 O 0.4554 0.10129 0.81729 0.0
C339 C 0.51218 0.1243 0.6428 0.0
Co340 Co 0.35246 0.45212 0.20748 0.0
Co341 Co 0.35363 0.46755 0.03939 0.0
C342 C 0.36643 0.42868 0.08848 0.0
O343 O 0.36173 0.4292 0.16101 0.0
O344 O 0.36415 0.44261 0.03931 0.0
C345 C 0.34229 0.43113 0.36824 0.0
O346 O 0.34198 0.41093 0.34828 0.0
C347 C 0.33661 0.45204 0.88638 0.0
C348 C 0.35311 0.48622 0.81713 0.0
C349 C 0.33949 0.46095 0.81104 0.0
N350 N 0.34833 0.47104 0.93478 0.0
N351 N 0.35794 0.49152 0.89381 0.0
C352 C 0.32261 0.42596 0.91306 0.0
H353 H 0.31566 0.42477 0.97372 0.0
H354 H 0.30714 0.41499 0.87269 0.0
H355 H 0.33485 0.41812 0.9135 0.0
C356 C 0.30091 0.44199 0.19588 0.0
N357 N 0.32312 0.44881 0.1652 0.0
N358 N 0.32421 0.45729 0.09405 0.0
C359 C 0.30303 0.45674 0.07768 0.0
C360 C 0.28758 0.44701 0.14199 0.0
C361 C 0.29226 0.43091 0.27542 0.0
H362 H 0.29992 0.41908 0.29074 0.0
H363 H 0.272 0.41989 0.27725 0.0
H364 H 0.29812 0.44571 0.31917 0.0
O365 O 0.38045 0.48641 0.20057 0.0
O366 O 0.38034 0.49867 0.0788 0.0
H367 H 0.315 0.48417 0.98769 0.0
H368 H 0.28277 0.4701 0.01205 0.0
C369 C 0.29836 0.46686 0.00435 0.0
H370 H 0.29402 0.45363 0.95581 0.0
H371 H 0.36858 0.50891 0.91772 0.0
O372 O 0.34683 0.44759 0.31796 0.0
C373 C 0.38939 0.50285 0.14755 0.0
Co374 Co 0.90436 0.3541 0.69915 0.0
Co375 Co 0.88351 0.3546 0.53817 0.0
C376 C 0.93637 0.36592 0.56471 0.0
O377 O 0.93433 0.36175 0.63847 0.0
O378 O 0.91842 0.36406 0.52527 0.0
C379 C 0.91823 0.34829 0.86891 0.0
O380 O 0.93969 0.35003 0.85995 0.0
C381 C 0.87846 0.3374 0.38326 0.0
C382 C 0.86508 0.35874 0.31882 0.0
C383 C 0.87489 0.34359 0.30854 0.0
N384 N 0.87188 0.34897 0.43508 0.0
N385 N 0.86338 0.36132 0.39671 0.0
C386 C 0.88859 0.32131 0.40608 0.0
H387 H 0.881 0.31243 0.46357 0.0
H388 H 0.88431 0.30718 0.36057 0.0
H389 H 0.9087 0.33239 0.41238 0.0
C390 C 0.86114 0.30367 0.70113 0.0
N391 N 0.87618 0.32504 0.66487 0.0
N392 N 0.86608 0.32608 0.59872 0.0
C393 C 0.84395 0.30589 0.59173 0.0
C394 C 0.84006 0.2909 0.65648 0.0
C395 C 0.86569 0.29674 0.78089 0.0
H396 H 0.8854 0.30306 0.78821 0.0
H397 H 0.85502 0.27671 0.79027 0.0
H398 H 0.86004 0.30552 0.82606 0.0
O399 O 0.89854 0.38252 0.69779 0.0
O400 O 0.8815 0.38205 0.58356 0.0
H401 H 0.82491 0.3182 0.51744 0.0
H402 H 0.80832 0.28553 0.53675 0.0
C403 C 0.82659 0.30169 0.52585 0.0
H404 H 0.83411 0.29875 0.47067 0.0
H405 H 0.85834 0.37301 0.42324 0.0
O406 O 0.90681 0.3499 0.81037 0.0
C407 C 0.88922 0.39138 0.65098 0.0
H408 H 0.02912 0.40856 0.34264 0.0
H409 H 0.06372 0.40964 0.5624 0.0
H410 H 0.02424 0.38961 0.62839 0.0
H411 H 0.98013 0.37497 0.62682 0.0
H412 H 0.94565 0.37509 0.4077 0.0
H413 H 0.98449 0.39117 0.33916 0.0
C414 C 0.02797 0.404 0.40459 0.0
C415 C 0.04947 0.41076 0.44736 0.0
C416 C 1.00512 0.39288 0.44293 0.0
C417 C 0.04756 0.40481 0.5279 0.0
C418 C 0.02493 0.3934 0.56595 0.0
C419 C 0.98105 0.3783 0.56399 0.0
C420 C 0.95991 0.37393 0.52304 0.0
C421 C 1.00363 0.38789 0.52457 0.0
C422 C 0.96155 0.37832 0.44131 0.0
C423 C 0.98384 0.38758 0.40173 0.0
H424 H 0.6268 0.02654 0.84137 0.0
H425 H 0.64759 0.0633 0.06528 0.0
H426 H 0.62864 0.02417 0.13361 0.0
H427 H 0.60369 0.97918 0.13075 0.0
H428 H 0.58133 0.94291 0.90626 0.0
H429 H 0.60332 0.9818 0.83829 0.0
C430 C 0.62746 0.02601 0.90503 0.0
C431 C 0.63865 0.04793 0.94774 0.0
C432 C 0.61603 1.00335 0.94443 0.0
C433 C 0.63912 0.04678 0.03049 0.0
C434 C 0.6282 0.02435 0.0699 0.0
C435 C 0.60384 0.97978 0.06701 0.0
C436 C 0.5908 0.95798 0.02412 0.0
C437 C 0.61622 1.00246 0.02762 0.0
C438 C 0.59116 0.95924 0.94131 0.0
C439 C 0.60373 0.98157 0.902 0.0
H440 H 0.64586 0.59236 0.4378 0.0
H441 H 0.63406 0.60683 0.67706 0.0
H442 H 0.61431 0.62915 0.6294 0.0
H443 H 0.59749 0.64162 0.52046 0.0
H444 H 0.60923 0.62719 0.28116 0.0
H445 H 0.63218 0.60802 0.32846 0.0
C446 C 0.63929 0.60065 0.4797 0.0
C447 C 0.64133 0.59769 0.56108 0.0
C448 C 0.6278 0.61336 0.45191 0.0
C449 C 0.63273 0.6087 0.61421 0.0
C450 C 0.62134 0.62142 0.58698 0.0
C451 C 0.60525 0.63452 0.47843 0.0
C452 C 0.60137 0.63567 0.39726 0.0
C453 C 0.61832 0.6234 0.50603 0.0
C454 C 0.61182 0.62654 0.34389 0.0
C455 C 0.62489 0.61548 0.37093 0.0
H456 H 0.05596 0.64267 -0.00189 0.0
H457 H 0.0257 0.62559 0.23265 0.0
H458 H 0.98442 0.60636 0.17818 0.0
H459 H 0.95703 0.59172 0.06401 0.0
H460 H 0.98735 0.60896 0.82953 0.0
H461 H 0.02857 0.63102 0.8843 0.0
C462 C 0.0404 0.63504 0.03758 0.0
C463 C 0.04405 0.63549 0.11954 0.0
C464 C 0.01671 0.6239 0.00586 0.0
C465 C 0.02354 0.62552 0.16945 0.0
C466 C 0.99989 0.61442 0.13829 0.0
C467 C 0.9726 0.6005 0.02469 0.0
C468 C 0.96899 0.59846 0.94256 0.0
C469 C 0.99627 0.61309 0.05657 0.0
C470 C 0.98948 0.61014 0.89283 0.0
C471 C 0.0131 0.62271 0.92415 0.0
H472 H 0.41474 0.03077 0.63879 0.0
H473 H 0.42873 0.06522 0.41059 0.0
H474 H 0.40717 0.02547 0.34738 0.0
H475 H 0.38679 0.98062 0.35559 0.0
H476 H 0.37462 0.94638 0.58382 0.0
H477 H 0.39271 0.98599 0.64736 0.0
C478 C 0.41278 0.0296 0.57535 0.0
C479 C 0.42342 0.05107 0.52984 0.0
C480 C 0.40076 0.00655 0.53884 0.0
C481 C 0.42079 0.04909 0.44745 0.0
C482 C 0.40849 0.02629 0.41096 0.0
C483 C 0.38787 0.9818 0.41921 0.0
C484 C 0.37933 0.9604 0.46445 0.0
C485 C 0.39878 0.00485 0.45589 0.0
C486 C 0.381 0.96242 0.54704 0.0
C487 C 0.39143 0.98515 0.58376 0.0
H488 H 0.41943 0.36838 0.02369 0.0
H489 H 0.40917 0.3834 0.78339 0.0
H490 H 0.38685 0.40339 0.82887 0.0
H491 H 0.37295 0.41912 0.93698 0.0
H492 H 0.38228 0.4031 0.17726 0.0
H493 H 0.40222 0.3808 0.13136 0.0
C494 C 0.41209 0.37572 0.98107 0.0
C495 C 0.41618 0.37446 0.90018 0.0
C496 C 0.39924 0.38714 0.00763 0.0
C497 C 0.40637 0.38407 0.84596 0.0
C498 C 0.39367 0.3956 0.87196 0.0
C499 C 0.37901 0.41049 0.97949 0.0
C500 C 0.37618 0.41295 0.06065 0.0
C501 C 0.39038 0.39761 0.9527 0.0
C502 C 0.38419 0.40157 0.11456 0.0
C503 C 0.39568 0.38886 0.08834 0.0
H504 H 0.12225 0.60053 0.35243 0.0
H505 H 0.12282 0.59166 0.10097 0.0
H506 H 0.12475 0.55433 0.12003 0.0
H507 H 0.12412 0.52319 0.20793 0.0
H508 H 0.12488 0.53262 0.45938 0.0
H509 H 0.12478 0.57094 0.44043 0.0
C510 C 0.12288 0.59048 0.30175 0.0
C511 C 0.12211 0.59872 0.22534 0.0
C512 C 0.12419 0.56915 0.31315 0.0
C513 C 0.12335 0.58571 0.16035 0.0
C514 C 0.12438 0.56432 0.17122 0.0
C515 C 0.12437 0.53368 0.25867 0.0
C516 C 0.12423 0.52492 0.33502 0.0
C517 C 0.12447 0.55572 0.24731 0.0
C518 C 0.12496 0.53893 0.40004 0.0
C519 C 0.1248 0.56079 0.38923 0.0
H520 H 0.53133 0.12866 0.78822 0.0
H521 H 0.54702 0.12611 0.5426 0.0
H522 H 0.58483 0.12654 0.57801 0.0
H523 H 0.61193 0.12508 0.67915 0.0
H524 H 0.59678 0.12898 0.92454 0.0
H525 H 0.56019 0.13075 0.88869 0.0
C526 C 0.54308 0.12832 0.74233 0.0
C527 C 0.53624 0.12704 0.66285 0.0
C528 C 0.56478 0.12874 0.76312 0.0
C529 C 0.55186 0.12705 0.60411 0.0
C530 C 0.57341 0.1272 0.62439 0.0
C531 C 0.60069 0.12644 0.72484 0.0
C532 C 0.6069 0.1266 0.80454 0.0
C533 C 0.57981 0.12763 0.70374 0.0
C534 C 0.59239 0.12878 0.86288 0.0
C535 C 0.57143 0.1297 0.84239 0.0
H536 H 0.48893 0.60267 0.16286 0.0
H537 H 0.47757 0.58804 0.41189 0.0
H538 H 0.43858 0.55097 0.38565 0.0
H539 H 0.40866 0.52178 0.29133 0.0
H540 H 0.41983 0.53745 0.04261 0.0
H541 H 0.4579 0.57512 0.06959 0.0
C542 C 0.47791 0.59141 0.21151 0.0
C543 C 0.48628 0.59798 0.2892 0.0
C544 C 0.45549 0.57029 0.19605 0.0
C545 C 0.47158 0.58338 0.35154 0.0
C546 C 0.44932 0.56215 0.33655 0.0
C547 C 0.41936 0.53349 0.24304 0.0
C548 C 0.41145 0.52665 0.165 0.0
C549 C 0.44123 0.55527 0.25895 0.0
C550 C 0.42543 0.54221 0.10322 0.0
C551 C 0.44727 0.56375 0.11855 0.0
H552 H 0.88877 0.49018 0.69304 0.0
H553 H 0.89264 0.47454 0.93796 0.0
H554 H 0.89118 0.43632 0.90176 0.0
H555 H 0.89062 0.40831 0.7995 0.0
H556 H 0.88506 0.42371 0.55529 0.0
H557 H 0.88534 0.46109 0.59237 0.0
C558 C 0.88922 0.47838 0.73865 0.0
C559 C 0.89108 0.48531 0.81806 0.0
C560 C 0.88816 0.45645 0.71746 0.0
C561 C 0.89123 0.46962 0.87643 0.0
C562 C 0.8905 0.44783 0.8557 0.0
C563 C 0.88941 0.41983 0.75446 0.0
C564 C 0.88804 0.41332 0.67463 0.0
C565 C 0.88927 0.44122 0.77628 0.0
C566 C 0.88614 0.42826 0.61707 0.0
C567 C 0.88636 0.44969 0.6382 0.0
H568 H 0.48717 0.88104 0.29711 0.0
H569 H 0.46738 0.87968 0.05352 0.0
H570 H 0.42981 0.87896 0.09329 0.0
H571 H 0.40387 0.88112 0.19704 0.0
H572 H 0.42287 0.881 0.44071 0.0
H573 H 0.45944 0.87971 0.40105 0.0
C574 C 0.47457 0.88046 0.25267 0.0
C575 C 0.48021 0.8807 0.17237 0.0
C576 C 0.45293 0.87985 0.27598 0.0
C577 C 0.46351 0.87954 0.11563 0.0
C578 C 0.44207 0.87923 0.13836 0.0
C579 C 0.41594 0.88068 0.24154 0.0
C580 C 0.41079 0.88143 0.32178 0.0
C581 C 0.4368 0.87975 0.21831 0.0
C582 C 0.42641 0.88046 0.37863 0.0
C583 C 0.44737 0.87982 0.35596 0.0
H584 H 0.52595 0.40612 0.66123 0.0
H585 H 0.53984 0.41704 0.91072 0.0
H586 H 0.57836 0.45443 0.88492 0.0
H587 H 0.60704 0.48505 0.7925 0.0
H588 H 0.59417 0.47413 0.54283 0.0
H589 H 0.55636 0.43556 0.56782 0.0
C590 C 0.53746 0.41661 0.70998 0.0
C591 C 0.52985 0.40885 0.78788 0.0
C592 C 0.55972 0.4381 0.69475 0.0
C593 C 0.54516 0.42254 0.85023 0.0
C594 C 0.56719 0.44399 0.83556 0.0
C595 C 0.59603 0.47421 0.7434 0.0
C596 C 0.60327 0.4826 0.6659 0.0
C597 C 0.57447 0.4521 0.75819 0.0
C598 C 0.58899 0.46812 0.60303 0.0
C599 C 0.56733 0.44611 0.61733 0.0
H600 H 0.1177 0.47575 0.7799 0.0
H601 H 0.1484 0.42899 0.74806 0.0
H602 H 0.1341 0.41136 0.87949 0.0
H603 H 0.11502 0.41139 0.00657 0.0
H604 H 0.08454 0.4586 0.03576 0.0
H605 H 0.09609 0.47356 0.90153 0.0
C606 C 0.12129 0.46173 0.80206 0.0
C607 C 0.13428 0.45382 0.75552 0.0
C608 C 0.11281 0.45162 0.87666 0.0
C609 C 0.13846 0.43534 0.78352 0.0
C610 C 0.13027 0.42528 0.85839 0.0
C611 C 0.1104 0.42449 0.98277 0.0
C612 C 0.09899 0.43393 0.03096 0.0
C613 C 0.11759 0.43344 0.90582 0.0
C614 C 0.09337 0.45113 -0.00023 0.0
C615 C 0.1001 0.45981 0.92325 0.0
H616 H 0.70383 0.10535 0.48894 0.0
H617 H 0.62862 0.0843 0.53384 0.0
H618 H 0.625 0.09741 0.402 0.0
H619 H 0.64385 0.11738 0.27772 0.0
H620 H 0.7193 0.13988 0.23194 0.0
H621 H 0.72231 0.12379 0.36017 0.0
C622 C 0.68653 0.10309 0.46891 0.0
C623 C 0.66646 0.09374 0.52063 0.0
C624 C 0.68476 0.11133 0.3935 0.0
C625 C 0.64426 0.09138 0.49479 0.0
C626 C 0.64223 0.09902 0.41969 0.0
C627 C 0.66098 0.11883 0.29599 0.0
C628 C 0.68132 0.12978 0.24571 0.0
C629 C 0.66251 0.10956 0.36937 0.0
C630 C 0.70331 0.13126 0.26942 0.0
C631 C 0.70504 0.12213 0.34277 0.0
H632 H 0.5795 0.69751 0.73176 0.0
H633 H 0.51107 0.62968 0.75056 0.0
H634 H 0.52043 0.62491 0.88601 0.0
H635 H 0.54752 0.63986 -0.00158 0.0
H636 H 0.61615 0.7076 0.98281 0.0
H637 H 0.60784 0.71184 0.84462 0.0
C638 C 0.56695 0.6814 0.76469 0.0
C639 C 0.54482 0.66376 0.73057 0.0
C640 C 0.57259 0.67859 0.84254 0.0
C641 C 0.52819 0.64357 0.77557 0.0
C642 C 0.5336 0.6407 0.85278 0.0
C643 C 0.56084 0.6555 0.96486 0.0
C644 C 0.58239 0.67343 0.00096 0.0
C645 C 0.55571 0.65807 0.88668 0.0
C646 C 0.59946 0.69347 0.9563 0.0
C647 C 0.59461 0.69601 0.87755 0.0
H648 H 0.90569 0.60151 0.50194 0.0
H649 H 0.93396 0.55287 0.54197 0.0
H650 H 0.92287 0.53706 0.40862 0.0
H651 H 0.90206 0.5345 0.28519 0.0
H652 H 0.87249 0.58186 0.24369 0.0
H653 H 0.887 0.60076 0.37306 0.0
C654 C 0.90998 0.58795 0.48042 0.0
C655 C 0.92069 0.57839 0.5311 0.0
C656 C 0.90286 0.57839 0.40424 0.0
C657 C 0.92576 0.56047 0.50355 0.0
C658 C 0.91927 0.55131 0.42767 0.0
C659 C 0.89878 0.54894 0.30473 0.0
C660 C 0.88616 0.55675 0.25589 0.0
C661 C 0.90719 0.55962 0.37846 0.0
C662 C 0.8823 0.57571 0.28067 0.0
C663 C 0.89057 0.58645 0.35448 0.0
H664 H 0.31933 0.88515 0.7764 0.0
H665 H 0.37715 0.86841 0.81118 0.0
H666 H 0.38167 0.88219 0.94634 0.0
H667 H 0.36987 0.89932 0.0541 0.0
H668 H 0.31318 0.91758 0.0208 0.0
H669 H 0.30855 0.90408 0.88371 0.0
C670 C 0.33339 0.88508 0.81216 0.0
C671 C 0.34823 0.87617 0.7819 0.0
C672 C 0.33635 0.8936 0.89004 0.0
C673 C 0.3654 0.8751 0.83208 0.0
C674 C 0.36818 0.88318 0.90953 0.0
C675 C 0.35657 0.90054 0.0169 0.0
C676 C 0.34188 0.90944 0.04779 0.0
C677 C 0.35387 0.89257 0.9389 0.0
C678 C 0.32484 0.91096 -0.00156 0.0
C679 C 0.32206 0.90305 0.92024 0.0
H680 H 0.45842 0.33 0.51656 0.0
H681 H 0.41913 0.36802 0.46593 0.0
H682 H 0.42548 0.36555 0.32496 0.0
H683 H 0.44568 0.35609 0.21827 0.0
H684 H 0.48641 0.31979 0.27105 0.0
H685 H 0.47616 0.31828 0.41045 0.0
C686 C 0.45092 0.33751 0.47497 0.0
C687 C 0.43845 0.34934 0.50186 0.0
C688 C 0.45509 0.33649 0.39476 0.0
C689 C 0.42888 0.35892 0.44681 0.0
C690 C 0.43258 0.35757 0.3663 0.0
C691 C 0.45166 0.34718 0.25991 0.0
C692 C 0.46639 0.33764 0.23466 0.0
C693 C 0.4461 0.34684 0.33985 0.0
C694 C 0.47493 0.3271 0.28954 0.0
C695 C 0.4691 0.32626 0.36896 0.0
H696 H 0.53788 0.8955 0.43747 0.0
H697 H 0.61368 0.91738 0.47422 0.0
H698 H 0.60471 0.90376 0.61143 0.0
H699 H 0.57486 0.884 0.71805 0.0
H700 H 0.49943 0.86399 0.68017 0.0
H701 H 0.50869 0.87743 0.54461 0.0
C702 C 0.55255 0.89746 0.47543 0.0
C703 C 0.57643 0.90746 0.4455 0.0
C704 C 0.54726 0.8895 0.5536 0.0
C705 C 0.59517 0.90991 0.49581 0.0
C706 C 0.59 0.90195 0.57411 0.0
C707 C 0.56048 0.88313 0.68169 0.0
C708 C 0.53652 0.87344 0.71139 0.0
C709 C 0.56603 0.89154 0.6035 0.0
C710 C 0.51808 0.87134 0.66002 0.0
C711 C 0.52335 0.87922 0.58222 0.0
H712 H 0.64498 0.53531 0.21594 0.0
H713 H 0.72287 0.57829 0.24787 0.0
H714 H 0.72743 0.59591 0.11569 0.0
H715 H 0.70908 0.59639 0.98756 0.0
H716 H 0.63094 0.55275 0.95823 0.0
H717 H 0.62646 0.53849 0.09374 0.0
C718 C 0.66292 0.54854 0.1936 0.0
C719 C 0.68362 0.55533 0.23997 0.0
C720 C 0.66525 0.55862 0.11867 0.0
C721 C 0.70677 0.57279 0.21209 0.0
C722 C 0.70933 0.58284 0.13693 0.0
C723 C 0.69107 0.5843 0.01172 0.0
C724 C 0.67036 0.57556 0.96334 0.0
C725 C 0.68868 0.57565 0.08927 0.0
C726 C 0.64712 0.55962 -0.00535 0.0
C727 C 0.64455 0.55134 0.07181 0.0
H728 H 0.10726 0.70025 0.55371 0.0
H729 H 0.08032 0.62319 0.52374 0.0
H730 H 0.0918 0.62021 0.6584 0.0
H731 H 0.11265 0.64002 0.78015 0.0
H732 H 0.14044 0.71701 0.81225 0.0
H733 H 0.1256 0.71967 0.68113 0.0
C734 C 0.10335 0.68274 0.57755 0.0
C735 C 0.09297 0.66196 0.52919 0.0
C736 C 0.11061 0.68127 0.65461 0.0
C737 C 0.08833 0.63941 0.5601 0.0
C738 C 0.09502 0.63772 0.6368 0.0
C739 C 0.11546 0.65737 0.75817 0.0
C740 C 0.12778 0.67834 0.80467 0.0
C741 C 0.10681 0.65864 0.68362 0.0
C742 C 0.13098 0.70066 0.77687 0.0
C743 C 0.12251 0.70215 0.70215 0.0
H744 H 0.42186 0.11638 0.97674 0.0
H745 H 0.46708 0.08401 0.93928 0.0
H746 H 0.48322 0.09495 0.07232 0.0
H747 H 0.48707 0.1166 0.19509 0.0
H748 H 0.44252 0.14945 0.2347 0.0
H749 H 0.42356 0.13562 0.10501 0.0
C750 C 0.43475 0.11118 -0.00139 0.0
C751 C 0.44328 0.0994 0.94848 0.0
C752 C 0.44443 0.11807 0.07481 0.0
C753 C 0.46028 0.0931 0.97694 0.0
C754 C 0.46965 0.09949 0.05274 0.0
C755 C 0.47324 0.12074 0.17502 0.0
C756 C 0.46629 0.13415 0.22338 0.0
C757 C 0.46238 0.11258 0.10125 0.0
C758 C 0.44807 0.13909 0.19799 0.0
C759 C 0.43726 0.13119 0.12403 0.0
H760 H 0.32478 0.47191 0.6789 0.0
H761 H 0.34337 0.42053 0.7782 0.0
H762 H 0.34159 0.40343 0.64869 0.0
H763 H 0.34128 0.40775 0.50451 0.0
H764 H 0.32892 0.46406 0.40876 0.0
H765 H 0.32153 0.47425 0.53826 0.0
C766 C 0.32793 0.45663 0.6721 0.0
C767 C 0.33387 0.44733 0.73742 0.0
C768 C 0.32829 0.4479 0.59746 0.0
C769 C 0.33802 0.42757 0.72879 0.0
C770 C 0.33743 0.41803 0.65448 0.0
C771 C 0.33656 0.42191 0.51228 0.0
C772 C 0.33558 0.43497 0.44718 0.0
C773 C 0.33353 0.42872 0.58798 0.0
C774 C 0.32959 0.45346 0.45773 0.0
C775 C 0.32548 0.4595 0.53197 0.0
H776 H 0.8548 0.33771 0.16622 0.0
H777 H 0.91859 0.34498 0.28355 0.0
H778 H 0.93674 0.3446 0.15809 0.0
H779 H 0.93607 0.34584 0.0133 0.0
H780 H 0.87358 0.34284 0.89827 0.0
H781 H 0.85369 0.33811 0.02351 0.0
C782 C 0.87251 0.33883 0.16416 0.0
C783 C 0.88488 0.34054 0.23402 0.0
C784 C 0.88335 0.33973 0.09174 0.0
C785 C 0.90803 0.34243 0.23093 0.0
C786 C 0.91871 0.34271 0.15888 0.0
C787 C 0.91805 0.34396 0.01579 0.0
C788 C 0.90641 0.34456 0.94637 0.0
C789 C 0.90673 0.34182 0.08873 0.0
C790 C 0.88304 0.34224 0.95058 0.0
C791 C 0.87155 0.3396 0.02233 0.0
H792 H 0.17973 0.42547 0.19535 0.0
H793 H 0.21735 0.48549 0.35661 0.0
H794 H 0.25637 0.48907 0.32044 0.0
H795 H 0.27988 0.47475 0.24439 0.0
H796 H 0.24329 0.41732 0.07462 0.0
H797 H 0.20381 0.41347 0.11066 0.0
C798 C 0.19651 0.43945 0.22202 0.0
C799 C 0.19553 0.45474 0.28026 0.0
C800 C 0.21905 0.44199 0.19876 0.0
C801 C 0.21744 0.47287 0.31393 0.0
C802 C 0.23982 0.47514 0.29254 0.0
C803 C 0.26321 0.46158 0.21496 0.0
C804 C 0.26422 0.44628 0.15729 0.0
C805 C 0.24082 0.45971 0.23547 0.0
C806 C 0.24274 0.4293 0.11901 0.0
C807 C 0.22026 0.42705 0.13992 0.0
H808 H 0.8315 0.24501 0.68339 0.0
H809 H 0.7972 0.28914 0.68841 0.0
H810 H 0.75938 0.25445 0.73889 0.0
H811 H 0.73608 0.2114 0.78204 0.0
H812 H 0.76985 0.16685 0.77295 0.0
H813 H 0.80799 0.20176 0.72472 0.0
C814 C 0.81565 0.24687 0.69544 0.0
C815 C 0.81692 0.26939 0.68212 0.0
C816 C 0.79404 0.22686 0.72447 0.0
C817 C 0.79641 0.2718 0.69764 0.0
C818 C 0.7749 0.25205 0.7269 0.0
C819 C 0.75195 0.20955 0.77019 0.0
C820 C 0.75053 0.1869 0.78192 0.0
C821 C 0.77353 0.22952 0.74088 0.0
C822 C 0.77085 0.18433 0.76503 0.0
C823 C 0.79252 0.2042 0.73718 0.0
H824 H 0.53421 0.80311 0.24808 0.0
H825 H 0.59378 0.82878 0.08323 0.0
H826 H 0.59946 0.79409 0.11608 0.0
H827 H 0.58755 0.75666 0.19332 0.0
H828 H 0.52553 0.7293 0.34952 0.0
H829 H 0.52102 0.76463 0.32024 0.0
C830 C 0.54835 0.80094 0.21939 0.0
C831 C 0.56365 0.8183 0.1637 0.0
C832 C 0.55122 0.78086 0.23788 0.0
C833 C 0.58184 0.81548 0.12623 0.0
C834 C 0.5851 0.79575 0.14521 0.0
C835 C 0.57299 0.75841 0.22061 0.0
C836 C 0.55719 0.74058 0.27463 0.0
C837 C 0.56993 0.77835 0.20116 0.0
C838 C 0.53842 0.7431 0.3096 0.0
C839 C 0.53563 0.76316 0.29213 0.0
H840 H 0.81071 0.53451 0.72736 0.0
H841 H 0.83629 0.59648 0.88113 0.0
H842 H 0.80029 0.60008 0.84958 0.0
H843 H 0.76186 0.58588 0.77568 0.0
H844 H 0.73513 0.5221 0.62889 0.0
H845 H 0.77131 0.51906 0.65891 0.0
C846 C 0.80828 0.54876 0.75371 0.0
C847 C 0.82603 0.56538 0.80568 0.0
C848 C 0.78748 0.55049 0.73589 0.0
C849 C 0.82277 0.58361 0.84064 0.0
C850 C 0.80226 0.58566 0.82251 0.0
C851 C 0.76396 0.57127 0.75065 0.0
C852 C 0.74612 0.55457 0.69875 0.0
C853 C 0.78454 0.56926 0.76988 0.0
C854 C 0.74896 0.53564 0.66705 0.0
C855 C 0.76954 0.53374 0.6848 0.0
H856 H 0.27338 0.79399 0.36118 0.0
H857 H 0.24964 0.84479 0.29739 0.0
H858 H 0.20936 0.81092 0.26103 0.0
H859 H 0.18114 0.76664 0.24437 0.0
H860 H 0.2048 0.71587 0.30868 0.0
H861 H 0.24483 0.74973 0.3481 0.0
C862 C 0.25921 0.79753 0.3404 0.0
C863 C 0.26429 0.82173 0.3322 0.0
C864 C 0.2362 0.77796 0.31922 0.0
C865 C 0.24601 0.82623 0.30409 0.0
C866 C 0.22305 0.8069 0.2832 0.0
C867 C 0.19515 0.76316 0.26711 0.0
C868 C 0.19034 0.73904 0.2737 0.0
C869 C 0.21799 0.7827 0.28985 0.0
C870 C 0.20837 0.73445 0.30322 0.0
C871 C 0.23115 0.75375 0.32578 0.0
H872 H 0.48186 0.28001 0.72044 0.0
H873 H 0.41731 0.24127 0.86342 0.0
H874 H 0.4148 0.20228 0.83011 0.0
H875 H 0.4305 0.17932 0.75643 0.0
H876 H 0.49705 0.21878 0.62224 0.0
H877 H 0.49915 0.25738 0.65463 0.0
C878 C 0.46738 0.26297 0.7445 0.0
C879 C 0.44973 0.26323 0.79388 0.0
C880 C 0.46629 0.24084 0.72576 0.0
C881 C 0.43106 0.24127 0.82534 0.0
C882 C 0.42961 0.21908 0.80608 0.0
C883 C 0.44551 0.19641 0.73474 0.0
C884 C 0.46324 0.19615 0.6853 0.0
C885 C 0.44703 0.21862 0.7558 0.0
C886 C 0.48271 0.21841 0.65808 0.0
C887 C 0.48408 0.24052 0.67731 0.0
loop_
_geom_bond_atom_site_label_1
_geom_bond_atom_site_label_2
_geom_bond_distance
_geom_bond_site_symmetry_2
_ccdc_geom_bond_type
Co0 O3 1.970 . S
Co0 N17 1.989 . S
Co0 O25 1.967 . S
Co0 O32 1.920 . S
Co1 O4 1.966 . S
Co1 N10 2.022 . S
Co1 N18 1.993 . S
Co1 O26 1.941 . S
C2 O3 1.258 . S
C2 O4 1.263 . S
O3 Co0 1.970 . S
O3 C2 1.258 . S
O4 Co1 1.966 . S
O4 C2 1.263 . S
C5 O6 1.235 . S
C5 O32 1.289 . S
O6 C5 1.235 . S
C7 C9 1.400 . S
C7 N10 1.351 . S
C7 C12 1.501 . S
C8 C9 1.387 . S
C8 N11 1.341 . S
C9 C7 1.400 . S
C9 C8 1.387 . S
N10 Co1 2.022 . S
N10 C7 1.351 . S
N10 N11 1.365 . S
N11 C8 1.341 . S
N11 N10 1.365 . S
N11 H31 0.862 . S
C12 C7 1.501 . S
C12 H13 0.961 . S
C12 H14 0.961 . S
C12 H15 0.960 . S
H13 C12 0.961 . S
H14 C12 0.961 . S
H15 C12 0.960 . S
C16 N17 1.342 . S
C16 C20 1.401 . S
C16 C21 1.499 . S
N17 Co0 1.989 . S
N17 C16 1.342 . S
N17 N18 1.388 . S
N18 Co1 1.993 . S
N18 N17 1.388 . S
N18 C19 1.346 . S
C19 N18 1.346 . S
C19 C20 1.396 . S
C19 C29 1.510 . S
C20 C16 1.401 . S
C20 C19 1.396 . S
C21 C16 1.499 . S
C21 H22 0.959 . S
C21 H23 0.960 . S
C21 H24 0.961 . S
H22 C21 0.959 . S
H23 C21 0.960 . S
H24 C21 0.961 . S
O25 Co0 1.967 . S
O25 C33 1.258 . S
O26 Co1 1.941 . S
O26 C33 1.266 . S
H27 C29 0.959 . S
H28 C29 0.961 . S
C29 C19 1.510 . S
C29 H27 0.959 . S
C29 H28 0.961 . S
C29 H30 0.960 . S
H30 C29 0.960 . S
H31 N11 0.862 . S
O32 Co0 1.920 . S
O32 C5 1.289 . S
C33 O25 1.258 . S
C33 O26 1.266 . S
Co34 O37 1.970 . S
Co34 N51 1.989 . S
Co34 O59 1.967 . S
Co34 O66 1.920 . S
Co35 O38 1.966 . S
Co35 N44 2.022 1_556 S
Co35 N52 1.993 . S
Co35 O60 1.941 . S
C36 O37 1.258 . S
C36 O38 1.263 . S
O37 Co34 1.970 . S
O37 C36 1.258 . S
O38 Co35 1.966 . S
O38 C36 1.263 . S
C39 O40 1.235 . S
C39 O66 1.289 . S
O40 C39 1.235 . S
C41 C43 1.400 . S
C41 N44 1.351 . S
C41 C46 1.501 . S
C42 C43 1.387 . S
C42 N45 1.341 . S
C43 C41 1.400 . S
C43 C42 1.387 . S
N44 Co35 2.022 1_554 S
N44 C41 1.351 . S
N44 N45 1.365 . S
N45 C42 1.341 . S
N45 N44 1.365 . S
N45 H65 0.862 . S
C46 C41 1.501 . S
C46 H47 0.961 . S
C46 H48 0.961 . S
C46 H49 0.960 . S
H47 C46 0.961 . S
H48 C46 0.961 . S
H49 C46 0.960 . S
C50 N51 1.342 . S
C50 C54 1.401 . S
C50 C55 1.499 . S
N51 Co34 1.989 . S
N51 C50 1.342 . S
N51 N52 1.388 . S
N52 Co35 1.993 . S
N52 N51 1.388 . S
N52 C53 1.346 . S
C53 N52 1.346 . S
C53 C54 1.396 . S
C53 C63 1.510 . S
C54 C50 1.401 . S
C54 C53 1.396 . S
C55 C50 1.499 . S
C55 H56 0.959 . S
C55 H57 0.960 . S
C55 H58 0.961 . S
H56 C55 0.959 . S
H57 C55 0.960 . S
H58 C55 0.961 . S
O59 Co34 1.967 . S
O59 C67 1.258 . S
O60 Co35 1.941 . S
O60 C67 1.266 . S
H61 C63 0.959 . S
H62 C63 0.961 . S
C63 C53 1.510 . S
C63 H61 0.959 . S
C63 H62 0.961 . S
C63 H64 0.960 1_556 S
H64 C63 0.960 1_554 S
H65 N45 0.862 . S
O66 Co34 1.920 . S
O66 C39 1.289 . S
C67 O59 1.258 . S
C67 O60 1.266 . S
Co68 O71 1.970 . S
Co68 N85 1.989 . S
Co68 O93 1.967 . S
Co68 O100 1.920 . S
Co69 O72 1.966 . S
Co69 N78 2.022 . S
Co69 N86 1.993 . S
Co69 O94 1.941 . S
C70 O71 1.258 . S
C70 O72 1.263 . S
O71 Co68 1.970 . S
O71 C70 1.258 . S
O72 Co69 1.966 . S
O72 C70 1.263 . S
C73 O74 1.235 . S
C73 O100 1.289 . S
O74 C73 1.235 . S
C75 C77 1.400 . S
C75 N78 1.351 . S
C75 C80 1.501 . S
C76 C77 1.387 . S
C76 N79 1.341 . S
C77 C75 1.400 . S
C77 C76 1.387 . S
N78 Co69 2.022 . S
N78 C75 1.351 . S
N78 N79 1.365 . S
N79 C76 1.341 . S
N79 N78 1.365 . S
N79 H99 0.862 . S
C80 C75 1.501 . S
C80 H81 0.961 . S
C80 H82 0.961 . S
C80 H83 0.960 . S
H81 C80 0.961 . S
H82 C80 0.961 . S
H83 C80 0.960 . S
C84 N85 1.342 . S
C84 C88 1.401 . S
C84 C89 1.499 . S
N85 Co68 1.989 . S
N85 C84 1.342 . S
N85 N86 1.388 . S
N86 Co69 1.993 . S
N86 N85 1.388 . S
N86 C87 1.346 . S
C87 N86 1.346 . S
C87 C88 1.396 . S
C87 C97 1.510 . S
C88 C84 1.401 . S
C88 C87 1.396 . S
C89 C84 1.499 . S
C89 H90 0.959 . S
C89 H91 0.960 . S
C89 H92 0.961 . S
H90 C89 0.959 . S
H91 C89 0.960 . S
H92 C89 0.961 . S
O93 Co68 1.967 . S
O93 C101 1.258 . S
O94 Co69 1.941 . S
O94 C101 1.266 . S
H95 C97 0.959 . S
H96 C97 0.961 . S
C97 C87 1.510 . S
C97 H95 0.959 . S
C97 H96 0.961 . S
C97 H98 0.960 . S
H98 C97 0.960 . S
H99 N79 0.862 . S
O100 Co68 1.920 . S
O100 C73 1.289 . S
C101 O93 1.258 . S
C101 O94 1.266 . S
Co102 O105 1.970 . S
Co102 N119 1.989 . S
Co102 O127 1.967 . S
Co102 O134 1.920 . S
Co103 O106 1.966 . S
Co103 N112 2.022 1_556 S
Co103 N120 1.993 . S
Co103 O128 1.941 . S
C104 O105 1.258 . S
C104 O106 1.263 . S
O105 Co102 1.970 . S
O105 C104 1.258 . S
O106 Co103 1.966 . S
O106 C104 1.263 . S
C107 O108 1.235 . S
C107 O134 1.289 . S
O108 C107 1.235 . S
C109 C111 1.400 . S
C109 N112 1.351 . S
C109 C114 1.501 . S
C110 C111 1.387 . S
C110 N113 1.341 . S
C111 C109 1.400 . S
C111 C110 1.387 . S
N112 Co103 2.022 1_554 S
N112 C109 1.351 . S
N112 N113 1.365 . S
N113 C110 1.341 . S
N113 N112 1.365 . S
N113 H133 0.862 . S
C114 C109 1.501 . S
C114 H115 0.961 . S
C114 H116 0.961 . S
C114 H117 0.960 . S
H115 C114 0.961 . S
H116 C114 0.961 . S
H117 C114 0.960 . S
C118 N119 1.342 . S
C118 C122 1.401 . S
C118 C123 1.499 . S
N119 Co102 1.989 . S
N119 C118 1.342 . S
N119 N120 1.388 . S
N120 Co103 1.993 . S
N120 N119 1.388 . S
N120 C121 1.346 . S
C121 N120 1.346 . S
C121 C122 1.396 . S
C121 C131 1.510 . S
C122 C118 1.401 . S
C122 C121 1.396 . S
C123 C118 1.499 . S
C123 H124 0.959 . S
C123 H125 0.960 . S
C123 H126 0.961 . S
H124 C123 0.959 . S
H125 C123 0.960 . S
H126 C123 0.961 . S
O127 Co102 1.967 . S
O127 C135 1.258 . S
O128 Co103 1.941 . S
O128 C135 1.266 . S
H129 C131 0.959 . S
H130 C131 0.961 . S
C131 C121 1.510 . S
C131 H129 0.959 . S
C131 H130 0.961 . S
C131 H132 0.960 1_556 S
H132 C131 0.960 1_554 S
H133 N113 0.862 . S
O134 Co102 1.920 . S
O134 C107 1.289 . S
C135 O127 1.258 . S
C135 O128 1.266 . S
Co136 O139 1.970 . S
Co136 N153 1.989 . S
Co136 O161 1.967 . S
Co136 O168 1.920 . S
Co137 O140 1.966 . S
Co137 N146 2.022 . S
Co137 N154 1.993 . S
Co137 O162 1.941 . S
C138 O139 1.258 . S
C138 O140 1.263 . S
O139 Co136 1.970 . S
O139 C138 1.258 . S
O140 Co137 1.966 . S
O140 C138 1.263 . S
C141 O142 1.235 . S
C141 O168 1.289 . S
O142 C141 1.235 . S
C143 C145 1.400 . S
C143 N146 1.351 . S
C143 C148 1.501 . S
C144 C145 1.387 . S
C144 N147 1.341 . S
C145 C143 1.400 . S
C145 C144 1.387 . S
N146 Co137 2.022 . S
N146 C143 1.351 . S
N146 N147 1.365 . S
N147 C144 1.341 . S
N147 N146 1.365 . S
N147 H167 0.862 . S
C148 C143 1.501 . S
C148 H149 0.961 . S
C148 H150 0.961 . S
C148 H151 0.960 . S
H149 C148 0.961 . S
H150 C148 0.961 . S
H151 C148 0.960 . S
C152 N153 1.342 . S
C152 C156 1.401 . S
C152 C157 1.499 . S
N153 Co136 1.989 . S
N153 C152 1.342 . S
N153 N154 1.388 . S
N154 Co137 1.993 . S
N154 N153 1.388 . S
N154 C155 1.346 . S
C155 N154 1.346 . S
C155 C156 1.396 . S
C155 C165 1.510 . S
C156 C152 1.401 . S
C156 C155 1.396 . S
C157 C152 1.499 . S
C157 H158 0.959 . S
C157 H159 0.960 . S
C157 H160 0.961 . S
H158 C157 0.959 . S
H159 C157 0.960 . S
H160 C157 0.961 . S
O161 Co136 1.967 . S
O161 C169 1.258 . S
O162 Co137 1.941 . S
O162 C169 1.266 . S
H163 C165 0.959 . S
H164 C165 0.961 . S
C165 C155 1.510 . S
C165 H163 0.959 . S
C165 H164 0.961 . S
C165 H166 0.960 . S
H166 C165 0.960 . S
H167 N147 0.862 . S
O168 Co136 1.920 . S
O168 C141 1.289 . S
C169 O161 1.258 . S
C169 O162 1.266 . S
Co170 O173 1.970 . S
Co170 N187 1.989 . S
Co170 O195 1.967 . S
Co170 O202 1.920 . S
Co171 O174 1.966 . S
Co171 N180 2.022 1_556 S
Co171 N188 1.993 . S
Co171 O196 1.941 . S
C172 O173 1.258 . S
C172 O174 1.263 . S
O173 Co170 1.970 . S
O173 C172 1.258 . S
O174 Co171 1.966 . S
O174 C172 1.263 . S
C175 O176 1.235 . S
C175 O202 1.289 . S
O176 C175 1.235 . S
C177 C179 1.400 . S
C177 N180 1.351 . S
C177 C182 1.501 . S
C178 C179 1.387 . S
C178 N181 1.341 . S
C179 C177 1.400 . S
C179 C178 1.387 . S
N180 Co171 2.022 1_554 S
N180 C177 1.351 . S
N180 N181 1.365 . S
N181 C178 1.341 . S
N181 N180 1.365 . S
N181 H201 0.862 . S
C182 C177 1.501 . S
C182 H183 0.961 . S
C182 H184 0.961 . S
C182 H185 0.960 . S
H183 C182 0.961 . S
H184 C182 0.961 . S
H185 C182 0.960 . S
C186 N187 1.342 . S
C186 C190 1.401 . S
C186 C191 1.499 . S
N187 Co170 1.989 . S
N187 C186 1.342 . S
N187 N188 1.388 . S
N188 Co171 1.993 . S
N188 N187 1.388 . S
N188 C189 1.346 . S
C189 N188 1.346 . S
C189 C190 1.396 . S
C189 C199 1.510 . S
C190 C186 1.401 . S
C190 C189 1.396 . S
C191 C186 1.499 . S
C191 H192 0.959 . S
C191 H193 0.960 . S
C191 H194 0.961 . S
H192 C191 0.959 . S
H193 C191 0.960 . S
H194 C191 0.961 . S
O195 Co170 1.967 . S
O195 C203 1.258 . S
O196 Co171 1.941 . S
O196 C203 1.266 . S
H197 C199 0.959 . S
H198 C199 0.961 . S
C199 C189 1.510 . S
C199 H197 0.959 . S
C199 H198 0.961 . S
C199 H200 0.960 1_556 S
H200 C199 0.960 1_554 S
H201 N181 0.862 . S
O202 Co170 1.920 . S
O202 C175 1.289 . S
C203 O195 1.258 . S
C203 O196 1.266 . S
Co204 O207 1.970 . S
Co204 N221 1.989 . S
Co204 O229 1.967 . S
Co204 O236 1.920 . S
Co205 O208 1.966 . S
Co205 N214 2.022 1_554 S
Co205 N222 1.993 . S
Co205 O230 1.941 . S
C206 O207 1.258 . S
C206 O208 1.263 . S
O207 Co204 1.970 . S
O207 C206 1.258 . S
O208 Co205 1.966 . S
O208 C206 1.263 . S
C209 O210 1.235 . S
C209 O236 1.289 . S
O210 C209 1.235 . S
C211 C213 1.400 . S
C211 N214 1.351 . S
C211 C216 1.501 . S
C212 C213 1.387 . S
C212 N215 1.341 . S
C213 C211 1.400 . S
C213 C212 1.387 . S
N214 Co205 2.022 1_556 S
N214 C211 1.351 . S
N214 N215 1.365 . S
N215 C212 1.341 . S
N215 N214 1.365 . S
N215 H235 0.862 . S
C216 C211 1.501 . S
C216 H217 0.961 . S
C216 H218 0.961 . S
C216 H219 0.960 . S
H217 C216 0.961 . S
H218 C216 0.961 . S
H219 C216 0.960 . S
C220 N221 1.342 . S
C220 C224 1.401 . S
C220 C225 1.499 . S
N221 Co204 1.989 . S
N221 C220 1.342 . S
N221 N222 1.388 . S
N222 Co205 1.993 . S
N222 N221 1.388 . S
N222 C223 1.346 . S
C223 N222 1.346 . S
C223 C224 1.396 . S
C223 C233 1.510 . S
C224 C220 1.401 . S
C224 C223 1.396 . S
C225 C220 1.499 . S
C225 H226 0.959 . S
C225 H227 0.960 . S
C225 H228 0.961 . S
H226 C225 0.959 . S
H227 C225 0.960 . S
H228 C225 0.961 . S
O229 Co204 1.967 . S
O229 C237 1.258 . S
O230 Co205 1.941 . S
O230 C237 1.266 . S
H231 C233 0.959 . S
H232 C233 0.961 . S
C233 C223 1.510 . S
C233 H231 0.959 . S
C233 H232 0.961 . S
C233 H234 0.960 1_554 S
H234 C233 0.960 1_556 S
H235 N215 0.862 . S
O236 Co204 1.920 . S
O236 C209 1.289 . S
C237 O229 1.258 . S
C237 O230 1.266 . S
Co238 O241 1.970 . S
Co238 N255 1.989 . S
Co238 O263 1.967 . S
Co238 O270 1.920 . S
Co239 O242 1.966 . S
Co239 N248 2.022 . S
Co239 N256 1.993 . S
Co239 O264 1.941 . S
C240 O241 1.258 . S
C240 O242 1.263 . S
O241 Co238 1.970 . S
O241 C240 1.258 . S
O242 Co239 1.966 . S
O242 C240 1.263 . S
C243 O244 1.235 . S
C243 O270 1.289 . S
O244 C243 1.235 . S
C245 C247 1.400 . S
C245 N248 1.351 . S
C245 C250 1.501 . S
C246 C247 1.387 . S
C246 N249 1.341 . S
C247 C245 1.400 . S
C247 C246 1.387 . S
N248 Co239 2.022 . S
N248 C245 1.351 . S
N248 N249 1.365 . S
N249 C246 1.341 . S
N249 N248 1.365 . S
N249 H269 0.862 . S
C250 C245 1.501 . S
C250 H251 0.961 . S
C250 H252 0.961 . S
C250 H253 0.960 . S
H251 C250 0.961 . S
H252 C250 0.961 . S
H253 C250 0.960 . S
C254 N255 1.342 . S
C254 C258 1.401 . S
C254 C259 1.499 . S
N255 Co238 1.989 . S
N255 C254 1.342 . S
N255 N256 1.388 . S
N256 Co239 1.993 . S
N256 N255 1.388 . S
N256 C257 1.346 . S
C257 N256 1.346 . S
C257 C258 1.396 . S
C257 C267 1.510 . S
C258 C254 1.401 . S
C258 C257 1.396 . S
C259 C254 1.499 . S
C259 H260 0.959 . S
C259 H261 0.960 . S
C259 H262 0.961 . S
H260 C259 0.959 . S
H261 C259 0.960 . S
H262 C259 0.961 . S
O263 Co238 1.967 . S
O263 C271 1.258 . S
O264 Co239 1.941 . S
O264 C271 1.266 . S
H265 C267 0.959 . S
H266 C267 0.961 . S
C267 C257 1.510 . S
C267 H265 0.959 . S
C267 H266 0.961 . S
C267 H268 0.960 . S
H268 C267 0.960 . S
H269 N249 0.862 . S
O270 Co238 1.920 . S
O270 C243 1.289 . S
C271 O263 1.258 . S
C271 O264 1.266 . S
Co272 O275 1.970 . S
Co272 N289 1.989 . S
Co272 O297 1.967 . S
Co272 O304 1.920 . S
Co273 O276 1.966 . S
Co273 N282 2.022 1_554 S
Co273 N290 1.993 . S
Co273 O298 1.941 . S
C274 O275 1.258 . S
C274 O276 1.263 . S
O275 Co272 1.970 . S
O275 C274 1.258 . S
O276 Co273 1.966 . S
O276 C274 1.263 . S
C277 O278 1.235 . S
C277 O304 1.289 . S
O278 C277 1.235 . S
C279 C281 1.400 . S
C279 N282 1.351 . S
C279 C284 1.501 . S
C280 C281 1.387 . S
C280 N283 1.341 . S
C281 C279 1.400 . S
C281 C280 1.387 . S
N282 Co273 2.022 1_556 S
N282 C279 1.351 . S
N282 N283 1.365 . S
N283 C280 1.341 . S
N283 N282 1.365 . S
N283 H303 0.862 . S
C284 C279 1.501 . S
C284 H285 0.961 . S
C284 H286 0.961 . S
C284 H287 0.960 . S
H285 C284 0.961 . S
H286 C284 0.961 . S
H287 C284 0.960 . S
C288 N289 1.342 . S
C288 C292 1.401 . S
C288 C293 1.499 . S
N289 Co272 1.989 . S
N289 C288 1.342 . S
N289 N290 1.388 . S
N290 Co273 1.993 . S
N290 N289 1.388 . S
N290 C291 1.346 . S
C291 N290 1.346 . S
C291 C292 1.396 . S
C291 C301 1.510 . S
C292 C288 1.401 . S
C292 C291 1.396 . S
C293 C288 1.499 . S
C293 H294 0.959 . S
C293 H295 0.960 . S
C293 H296 0.961 . S
H294 C293 0.959 . S
H295 C293 0.960 . S
H296 C293 0.961 . S
O297 Co272 1.967 . S
O297 C305 1.258 . S
O298 Co273 1.941 . S
O298 C305 1.266 . S
H299 C301 0.959 . S
H300 C301 0.961 . S
C301 C291 1.510 . S
C301 H299 0.959 . S
C301 H300 0.961 . S
C301 H302 0.960 1_554 S
H302 C301 0.960 1_556 S
H303 N283 0.862 . S
O304 Co272 1.920 . S
O304 C277 1.289 . S
C305 O297 1.258 . S
C305 O298 1.266 . S
Co306 O309 1.970 . S
Co306 N323 1.989 . S
Co306 O331 1.967 . S
Co306 O338 1.920 . S
Co307 O310 1.966 . S
Co307 N316 2.022 . S
Co307 N324 1.993 . S
Co307 O332 1.941 . S
C308 O309 1.258 . S
C308 O310 1.263 . S
O309 Co306 1.970 . S
O309 C308 1.258 . S
O310 Co307 1.966 . S
O310 C308 1.263 . S
C311 O312 1.235 . S
C311 O338 1.289 . S
O312 C311 1.235 . S
C313 C315 1.400 . S
C313 N316 1.351 . S
C313 C318 1.501 . S
C314 C315 1.387 . S
C314 N317 1.341 . S
C315 C313 1.400 . S
C315 C314 1.387 . S
N316 Co307 2.022 . S
N316 C313 1.351 . S
N316 N317 1.365 . S
N317 C314 1.341 . S
N317 N316 1.365 . S
N317 H337 0.862 . S
C318 C313 1.501 . S
C318 H319 0.961 . S
C318 H320 0.961 . S
C318 H321 0.960 . S
H319 C318 0.961 . S
H320 C318 0.961 . S
H321 C318 0.960 . S
C322 N323 1.342 . S
C322 C326 1.401 . S
C322 C327 1.499 . S
N323 Co306 1.989 . S
N323 C322 1.342 . S
N323 N324 1.388 . S
N324 Co307 1.993 . S
N324 N323 1.388 . S
N324 C325 1.346 . S
C325 N324 1.346 . S
C325 C326 1.396 . S
C325 C335 1.510 . S
C326 C322 1.401 . S
C326 C325 1.396 . S
C327 C322 1.499 . S
C327 H328 0.959 . S
C327 H329 0.960 . S
C327 H330 0.961 . S
H328 C327 0.959 . S
H329 C327 0.960 . S
H330 C327 0.961 . S
O331 Co306 1.967 . S
O331 C339 1.258 . S
O332 Co307 1.941 . S
O332 C339 1.266 . S
H333 C335 0.959 . S
H334 C335 0.961 . S
C335 C325 1.510 . S
C335 H333 0.959 . S
C335 H334 0.961 . S
C335 H336 0.960 . S
H336 C335 0.960 . S
H337 N317 0.862 . S
O338 Co306 1.920 . S
O338 C311 1.289 . S
C339 O331 1.258 . S
C339 O332 1.266 . S
Co340 O343 1.970 . S
Co340 N357 1.989 . S
Co340 O365 1.967 . S
Co340 O372 1.920 . S
Co341 O344 1.966 . S
Co341 N350 2.022 1_554 S
Co341 N358 1.993 . S
Co341 O366 1.941 . S
C342 O343 1.258 . S
C342 O344 1.263 . S
O343 Co340 1.970 . S
O343 C342 1.258 . S
O344 Co341 1.966 . S
O344 C342 1.263 . S
C345 O346 1.235 . S
C345 O372 1.289 . S
O346 C345 1.235 . S
C347 C349 1.400 . S
C347 N350 1.351 . S
C347 C352 1.501 . S
C348 C349 1.387 . S
C348 N351 1.341 . S
C349 C347 1.400 . S
C349 C348 1.387 . S
N350 Co341 2.022 1_556 S
N350 C347 1.351 . S
N350 N351 1.365 . S
N351 C348 1.341 . S
N351 N350 1.365 . S
N351 H371 0.862 . S
C352 C347 1.501 . S
C352 H353 0.961 . S
C352 H354 0.961 . S
C352 H355 0.960 . S
H353 C352 0.961 . S
H354 C352 0.961 . S
H355 C352 0.960 . S
C356 N357 1.342 . S
C356 C360 1.401 . S
C356 C361 1.499 . S
N357 Co340 1.989 . S
N357 C356 1.342 . S
N357 N358 1.388 . S
N358 Co341 1.993 . S
N358 N357 1.388 . S
N358 C359 1.346 . S
C359 N358 1.346 . S
C359 C360 1.396 . S
C359 C369 1.510 . S
C360 C356 1.401 . S
C360 C359 1.396 . S
C361 C356 1.499 . S
C361 H362 0.959 . S
C361 H363 0.960 . S
C361 H364 0.961 . S
H362 C361 0.959 . S
H363 C361 0.960 . S
H364 C361 0.961 . S
O365 Co340 1.967 . S
O365 C373 1.258 . S
O366 Co341 1.941 . S
O366 C373 1.266 . S
H367 C369 0.959 . S
H368 C369 0.961 . S
C369 C359 1.510 . S
C369 H367 0.959 . S
C369 H368 0.961 . S
C369 H370 0.960 1_554 S
H370 C369 0.960 1_556 S
H371 N351 0.862 . S
O372 Co340 1.920 . S
O372 C345 1.289 . S
C373 O365 1.258 . S
C373 O366 1.266 . S
Co374 O377 1.970 . S
Co374 N391 1.989 . S
Co374 O399 1.967 . S
Co374 O406 1.920 . S
Co375 O378 1.966 . S
Co375 N384 2.022 . S
Co375 N392 1.993 . S
Co375 O400 1.941 . S
C376 O377 1.258 . S
C376 O378 1.263 . S
O377 Co374 1.970 . S
O377 C376 1.258 . S
O378 Co375 1.966 . S
O378 C376 1.263 . S
C379 O380 1.235 . S
C379 O406 1.289 . S
O380 C379 1.235 . S
C381 C383 1.400 . S
C381 N384 1.351 . S
C381 C386 1.501 . S
C382 C383 1.387 . S
C382 N385 1.341 . S
C383 C381 1.400 . S
C383 C382 1.387 . S
N384 Co375 2.022 . S
N384 C381 1.351 . S
N384 N385 1.365 . S
N385 C382 1.341 . S
N385 N384 1.365 . S
N385 H405 0.862 . S
C386 C381 1.501 . S
C386 H387 0.961 . S
C386 H388 0.961 . S
C386 H389 0.960 . S
H387 C386 0.961 . S
H388 C386 0.961 . S
H389 C386 0.960 . S
C390 N391 1.342 . S
C390 C394 1.401 . S
C390 C395 1.499 . S
N391 Co374 1.989 . S
N391 C390 1.342 . S
N391 N392 1.388 . S
N392 Co375 1.993 . S
N392 N391 1.388 . S
N392 C393 1.346 . S
C393 N392 1.346 . S
C393 C394 1.396 . S
C393 C403 1.510 . S
C394 C390 1.401 . S
C394 C393 1.396 . S
C395 C390 1.499 . S
C395 H396 0.959 . S
C395 H397 0.960 . S
C395 H398 0.961 . S
H396 C395 0.959 . S
H397 C395 0.960 . S
H398 C395 0.961 . S
O399 Co374 1.967 . S
O399 C407 1.258 . S
O400 Co375 1.941 . S
O400 C407 1.266 . S
H401 C403 0.959 . S
H402 C403 0.961 . S
C403 C393 1.510 . S
C403 H401 0.959 . S
C403 H402 0.961 . S
C403 H404 0.960 . S
H404 C403 0.960 . S
H405 N385 0.862 . S
O406 Co374 1.920 . S
O406 C379 1.289 . S
C407 O399 1.258 . S
C407 O400 1.266 . S
H408 C414 0.930 . S
H409 C417 0.930 . S
H410 C418 0.930 . S
H411 C419 0.930 . S
H412 C422 0.930 . S
H413 C423 0.930 . S
C414 H408 0.930 . S
C414 C415 1.355 . S
C414 C416 1.415 1_455 S
C415 C414 1.355 . S
C415 C417 1.419 . S
C416 C414 1.415 1_655 S
C416 C421 1.425 1_655 S
C416 C423 1.409 . S
C417 H409 0.930 . S
C417 C415 1.419 . S
C417 C418 1.362 . S
C418 H410 0.930 . S
C418 C417 1.362 . S
C418 C421 1.409 . S
C419 H411 0.930 . S
C419 C420 1.355 . S
C419 C421 1.415 1_655 S
C420 C419 1.355 . S
C420 C422 1.419 . S
C421 C416 1.425 1_455 S
C421 C418 1.409 . S
C421 C419 1.415 1_455 S
C422 H412 0.930 . S
C422 C420 1.419 . S
C422 C423 1.362 . S
C423 H413 0.930 . S
C423 C416 1.409 . S
C423 C422 1.362 . S
H424 C430 0.930 . S
H425 C433 0.930 . S
H426 C434 0.930 . S
H427 C435 0.930 . S
H428 C438 0.930 . S
H429 C439 0.930 . S
C430 H424 0.930 . S
C430 C431 1.355 . S
C430 C432 1.415 1_545 S
C431 C430 1.355 . S
C431 C433 1.419 . S
C432 C430 1.415 1_565 S
C432 C437 1.425 1_566 S
C432 C439 1.409 . S
C433 H425 0.930 . S
C433 C431 1.419 . S
C433 C434 1.362 1_556 S
C434 H426 0.930 . S
C434 C433 1.362 1_554 S
C434 C437 1.409 . S
C435 H427 0.930 . S
C435 C436 1.355 . S
C435 C437 1.415 1_565 S
C436 C435 1.355 . S
C436 C438 1.419 . S
C437 C432 1.425 1_544 S
C437 C434 1.409 . S
C437 C435 1.415 1_545 S
C438 H428 0.930 . S
C438 C436 1.419 . S
C438 C439 1.362 1_554 S
C439 H429 0.930 . S
C439 C432 1.409 . S
C439 C438 1.362 1_556 S
H440 C446 0.930 . S
H441 C449 0.930 . S
H442 C450 0.930 . S
H443 C451 0.930 . S
H444 C454 0.930 . S
H445 C455 0.930 . S
C446 H440 0.930 . S
C446 C447 1.355 . S
C446 C448 1.415 . S
C447 C446 1.355 . S
C447 C449 1.419 . S
C448 C446 1.415 . S
C448 C453 1.425 . S
C448 C455 1.409 . S
C449 H441 0.930 . S
C449 C447 1.419 . S
C449 C450 1.362 . S
C450 H442 0.930 . S
C450 C449 1.362 . S
C450 C453 1.409 . S
C451 H443 0.930 . S
C451 C452 1.355 . S
C451 C453 1.415 . S
C452 C451 1.355 . S
C452 C454 1.419 . S
C453 C448 1.425 . S
C453 C450 1.409 . S
C453 C451 1.415 . S
C454 H444 0.930 . S
C454 C452 1.419 . S
C454 C455 1.362 . S
C455 H445 0.930 . S
C455 C448 1.409 . S
C455 C454 1.362 . S
H456 C462 0.930 . S
H457 C465 0.930 . S
H458 C466 0.930 . S
H459 C467 0.930 . S
H460 C470 0.930 . S
H461 C471 0.930 . S
C462 H456 0.930 . S
C462 C463 1.355 . S
C462 C464 1.415 . S
C463 C462 1.355 . S
C463 C465 1.419 . S
C464 C462 1.415 . S
C464 C469 1.425 1_454 S
C464 C471 1.409 1_454 S
C465 H457 0.930 . S
C465 C463 1.419 . S
C465 C466 1.362 . S
C466 H458 0.930 . S
C466 C465 1.362 . S
C466 C469 1.409 1_454 S
C467 H459 0.930 . S
C467 C468 1.355 . S
C467 C469 1.415 . S
C468 C467 1.355 . S
C468 C470 1.419 . S
C469 C464 1.425 1_656 S
C469 C466 1.409 1_656 S
C469 C467 1.415 . S
C470 H460 0.930 . S
C470 C468 1.419 . S
C470 C471 1.362 . S
C471 H461 0.930 . S
C471 C464 1.409 1_656 S
C471 C470 1.362 . S
H472 C478 0.930 . S
H473 C481 0.930 . S
H474 C482 0.930 . S
H475 C483 0.930 . S
H476 C486 0.930 . S
H477 C487 0.930 . S
C478 H472 0.930 . S
C478 C479 1.355 . S
C478 C480 1.415 1_545 S
C479 C478 1.355 . S
C479 C481 1.419 . S
C480 C478 1.415 1_565 S
C480 C485 1.425 1_565 S
C480 C487 1.409 . S
C481 H473 0.930 . S
C481 C479 1.419 . S
C481 C482 1.362 . S
C482 H474 0.930 . S
C482 C481 1.362 . S
C482 C485 1.409 . S
C483 H475 0.930 . S
C483 C484 1.355 . S
C483 C485 1.415 1_565 S
C484 C483 1.355 . S
C484 C486 1.419 . S
C485 C480 1.425 1_545 S
C485 C482 1.409 . S
C485 C483 1.415 1_545 S
C486 H476 0.930 . S
C486 C484 1.419 . S
C486 C487 1.362 . S
C487 H477 0.930 . S
C487 C480 1.409 . S
C487 C486 1.362 . S
H488 C494 0.930 . S
H489 C497 0.930 . S
H490 C498 0.930 . S
H491 C499 0.930 . S
H492 C502 0.930 . S
H493 C503 0.930 . S
C494 H488 0.930 . S
C494 C495 1.355 . S
C494 C496 1.415 . S
C495 C494 1.355 . S
C495 C497 1.419 . S
C496 C494 1.415 . S
C496 C501 1.425 1_556 S
C496 C503 1.409 1_556 S
C497 H489 0.930 . S
C497 C495 1.419 . S
C497 C498 1.362 . S
C498 H490 0.930 . S
C498 C497 1.362 . S
C498 C501 1.409 1_556 S
C499 H491 0.930 . S
C499 C500 1.355 . S
C499 C501 1.415 . S
C500 C499 1.355 . S
C500 C502 1.419 . S
C501 C496 1.425 1_554 S
C501 C498 1.409 1_554 S
C501 C499 1.415 . S
C502 H492 0.930 . S
C502 C500 1.419 . S
C502 C503 1.362 . S
C503 H493 0.930 . S
C503 C496 1.409 1_554 S
C503 C502 1.362 . S
H504 C510 0.930 . S
H505 C513 0.930 . S
H506 C514 0.930 . S
H507 C515 0.930 . S
H508 C518 0.930 . S
H509 C519 0.930 . S
C510 H504 0.930 . S
C510 C511 1.355 . S
C510 C512 1.415 . S
C511 C510 1.355 . S
C511 C513 1.419 . S
C512 C510 1.415 . S
C512 C517 1.425 . S
C512 C519 1.409 . S
C513 H505 0.930 . S
C513 C511 1.419 . S
C513 C514 1.362 . S
C514 H506 0.930 . S
C514 C513 1.362 . S
C514 C517 1.409 . S
C515 H507 0.930 . S
C515 C516 1.355 . S
C515 C517 1.415 . S
C516 C515 1.355 . S
C516 C518 1.419 . S
C517 C512 1.425 . S
C517 C514 1.409 . S
C517 C515 1.415 . S
C518 H508 0.930 . S
C518 C516 1.419 . S
C518 C519 1.362 . S
C519 H509 0.930 . S
C519 C512 1.409 . S
C519 C518 1.362 . S
H520 C526 0.930 . S
H521 C529 0.930 . S
H522 C530 0.930 . S
H523 C531 0.930 . S
H524 C534 0.930 . S
H525 C535 0.930 . S
C526 H520 0.930 . S
C526 C527 1.355 . S
C526 C528 1.415 . S
C527 C526 1.355 . S
C527 C529 1.419 . S
C528 C526 1.415 . S
C528 C533 1.425 . S
C528 C535 1.409 . S
C529 H521 0.930 . S
C529 C527 1.419 . S
C529 C530 1.362 . S
C530 H522 0.930 . S
C530 C529 1.362 . S
C530 C533 1.409 . S
C531 H523 0.930 . S
C531 C532 1.355 . S
C531 C533 1.415 . S
C532 C531 1.355 . S
C532 C534 1.419 . S
C533 C528 1.425 . S
C533 C530 1.409 . S
C533 C531 1.415 . S
C534 H524 0.930 . S
C534 C532 1.419 . S
C534 C535 1.362 . S
C535 H525 0.930 . S
C535 C528 1.409 . S
C535 C534 1.362 . S
H536 C542 0.930 . S
H537 C545 0.930 . S
H538 C546 0.930 . S
H539 C547 0.930 . S
H540 C550 0.930 . S
H541 C551 0.930 . S
C542 H536 0.930 . S
C542 C543 1.355 . S
C542 C544 1.415 . S
C543 C542 1.355 . S
C543 C545 1.419 . S
C544 C542 1.415 . S
C544 C549 1.425 . S
C544 C551 1.409 . S
C545 H537 0.930 . S
C545 C543 1.419 . S
C545 C546 1.362 . S
C546 H538 0.930 . S
C546 C545 1.362 . S
C546 C549 1.409 . S
C547 H539 0.930 . S
C547 C548 1.355 . S
C547 C549 1.415 . S
C548 C547 1.355 . S
C548 C550 1.419 . S
C549 C544 1.425 . S
C549 C546 1.409 . S
C549 C547 1.415 . S
C550 H540 0.930 . S
C550 C548 1.419 . S
C550 C551 1.362 . S
C551 H541 0.930 . S
C551 C544 1.409 . S
C551 C550 1.362 . S
H552 C558 0.930 . S
H553 C561 0.930 . S
H554 C562 0.930 . S
H555 C563 0.930 . S
H556 C566 0.930 . S
H557 C567 0.930 . S
C558 H552 0.930 . S
C558 C559 1.355 . S
C558 C560 1.415 . S
C559 C558 1.355 . S
C559 C561 1.419 . S
C560 C558 1.415 . S
C560 C565 1.425 . S
C560 C567 1.409 . S
C561 H553 0.930 . S
C561 C559 1.419 . S
C561 C562 1.362 . S
C562 H554 0.930 . S
C562 C561 1.362 . S
C562 C565 1.409 . S
C563 H555 0.930 . S
C563 C564 1.355 . S
C563 C565 1.415 . S
C564 C563 1.355 . S
C564 C566 1.419 . S
C565 C560 1.425 . S
C565 C562 1.409 . S
C565 C563 1.415 . S
C566 H556 0.930 . S
C566 C564 1.419 . S
C566 C567 1.362 . S
C567 H557 0.930 . S
C567 C560 1.409 . S
C567 C566 1.362 . S
H568 C574 0.930 . S
H569 C577 0.930 . S
H570 C578 0.930 . S
H571 C579 0.930 . S
H572 C582 0.930 . S
H573 C583 0.930 . S
C574 H568 0.930 . S
C574 C575 1.355 . S
C574 C576 1.415 . S
C575 C574 1.355 . S
C575 C577 1.419 . S
C576 C574 1.415 . S
C576 C581 1.425 . S
C576 C583 1.409 . S
C577 H569 0.930 . S
C577 C575 1.419 . S
C577 C578 1.362 . S
C578 H570 0.930 . S
C578 C577 1.362 . S
C578 C581 1.409 . S
C579 H571 0.930 . S
C579 C580 1.355 . S
C579 C581 1.415 . S
C580 C579 1.355 . S
C580 C582 1.419 . S
C581 C576 1.425 . S
C581 C578 1.409 . S
C581 C579 1.415 . S
C582 H572 0.930 . S
C582 C580 1.419 . S
C582 C583 1.362 . S
C583 H573 0.930 . S
C583 C576 1.409 . S
C583 C582 1.362 . S
H584 C590 0.930 . S
H585 C593 0.930 . S
H586 C594 0.930 . S
H587 C595 0.930 . S
H588 C598 0.930 . S
H589 C599 0.930 . S
C590 H584 0.930 . S
C590 C591 1.355 . S
C590 C592 1.415 . S
C591 C590 1.355 . S
C591 C593 1.419 . S
C592 C590 1.415 . S
C592 C597 1.425 . S
C592 C599 1.409 . S
C593 H585 0.930 . S
C593 C591 1.419 . S
C593 C594 1.362 . S
C594 H586 0.930 . S
C594 C593 1.362 . S
C594 C597 1.409 . S
C595 H587 0.930 . S
C595 C596 1.355 . S
C595 C597 1.415 . S
C596 C595 1.355 . S
C596 C598 1.419 . S
C597 C592 1.425 . S
C597 C594 1.409 . S
C597 C595 1.415 . S
C598 H588 0.930 . S
C598 C596 1.419 . S
C598 C599 1.362 . S
C599 H589 0.930 . S
C599 C592 1.409 . S
C599 C598 1.362 . S
H600 C606 0.930 . S
H601 C609 0.930 . S
H602 C610 0.930 . S
H603 C611 0.930 . S
H604 C614 0.930 . S
H605 C615 0.930 . S
C606 H600 0.930 . S
C606 C607 1.355 . S
C606 C608 1.415 . S
C607 C606 1.355 . S
C607 C609 1.419 . S
C608 C606 1.415 . S
C608 C613 1.425 . S
C608 C615 1.409 . S
C609 H601 0.930 . S
C609 C607 1.419 . S
C609 C610 1.362 . S
C610 H602 0.930 . S
C610 C609 1.362 . S
C610 C613 1.409 . S
C611 H603 0.930 . S
C611 C612 1.355 1_556 S
C611 C613 1.415 . S
C612 C611 1.355 1_554 S
C612 C614 1.419 . S
C613 C608 1.425 . S
C613 C610 1.409 . S
C613 C611 1.415 . S
C614 H604 0.930 . S
C614 C612 1.419 . S
C614 C615 1.362 1_554 S
C615 H605 0.930 . S
C615 C608 1.409 . S
C615 C614 1.362 1_556 S
H616 C622 0.930 . S
H617 C625 0.930 . S
H618 C626 0.930 . S
H619 C627 0.930 . S
H620 C630 0.930 . S
H621 C631 0.930 . S
C622 H616 0.930 . S
C622 C623 1.355 . S
C622 C624 1.415 . S
C623 C622 1.355 . S
C623 C625 1.419 . S
C624 C622 1.415 . S
C624 C629 1.425 . S
C624 C631 1.409 . S
C625 H617 0.930 . S
C625 C623 1.419 . S
C625 C626 1.362 . S
C626 H618 0.930 . S
C626 C625 1.362 . S
C626 C629 1.409 . S
C627 H619 0.930 . S
C627 C628 1.355 . S
C627 C629 1.415 . S
C628 C627 1.355 . S
C628 C630 1.419 . S
C629 C624 1.425 . S
C629 C626 1.409 . S
C629 C627 1.415 . S
C630 H620 0.930 . S
C630 C628 1.419 . S
C630 C631 1.362 . S
C631 H621 0.930 . S
C631 C624 1.409 . S
C631 C630 1.362 . S
H632 C638 0.930 . S
H633 C641 0.930 . S
H634 C642 0.930 . S
H635 C643 0.930 1_554 S
H636 C646 0.930 1_554 S
H637 C647 0.930 . S
C638 H632 0.930 . S
C638 C639 1.355 . S
C638 C640 1.415 . S
C639 C638 1.355 . S
C639 C641 1.419 . S
C640 C638 1.415 . S
C640 C645 1.425 . S
C640 C647 1.409 . S
C641 H633 0.930 . S
C641 C639 1.419 . S
C641 C642 1.362 . S
C642 H634 0.930 . S
C642 C641 1.362 . S
C642 C645 1.409 . S
C643 H635 0.930 1_556 S
C643 C644 1.355 1_556 S
C643 C645 1.415 . S
C644 C643 1.355 1_554 S
C644 C646 1.419 1_554 S
C645 C640 1.425 . S
C645 C642 1.409 . S
C645 C643 1.415 . S
C646 H636 0.930 1_556 S
C646 C644 1.419 1_556 S
C646 C647 1.362 . S
C647 H637 0.930 . S
C647 C640 1.409 . S
C647 C646 1.362 . S
H648 C654 0.930 . S
H649 C657 0.930 . S
H650 C658 0.930 . S
H651 C659 0.930 . S
H652 C662 0.930 . S
H653 C663 0.930 . S
C654 H648 0.930 . S
C654 C655 1.355 . S
C654 C656 1.415 . S
C655 C654 1.355 . S
C655 C657 1.419 . S
C656 C654 1.415 . S
C656 C661 1.425 . S
C656 C663 1.409 . S
C657 H649 0.930 . S
C657 C655 1.419 . S
C657 C658 1.362 . S
C658 H650 0.930 . S
C658 C657 1.362 . S
C658 C661 1.409 . S
C659 H651 0.930 . S
C659 C660 1.355 . S
C659 C661 1.415 . S
C660 C659 1.355 . S
C660 C662 1.419 . S
C661 C656 1.425 . S
C661 C658 1.409 . S
C661 C659 1.415 . S
C662 H652 0.930 . S
C662 C660 1.419 . S
C662 C663 1.362 . S
C663 H653 0.930 . S
C663 C656 1.409 . S
C663 C662 1.362 . S
H664 C670 0.930 . S
H665 C673 0.930 . S
H666 C674 0.930 . S
H667 C675 0.930 . S
H668 C678 0.930 . S
H669 C679 0.930 . S
C670 H664 0.930 . S
C670 C671 1.355 . S
C670 C672 1.415 . S
C671 C670 1.355 . S
C671 C673 1.419 . S
C672 C670 1.415 . S
C672 C677 1.425 . S
C672 C679 1.409 . S
C673 H665 0.930 . S
C673 C671 1.419 . S
C673 C674 1.362 . S
C674 H666 0.930 . S
C674 C673 1.362 . S
C674 C677 1.409 . S
C675 H667 0.930 . S
C675 C676 1.355 1_556 S
C675 C677 1.415 . S
C676 C675 1.355 1_554 S
C676 C678 1.419 . S
C677 C672 1.425 . S
C677 C674 1.409 . S
C677 C675 1.415 . S
C678 H668 0.930 . S
C678 C676 1.419 . S
C678 C679 1.362 1_554 S
C679 H669 0.930 . S
C679 C672 1.409 . S
C679 C678 1.362 1_556 S
H680 C686 0.930 . S
H681 C689 0.930 . S
H682 C690 0.930 . S
H683 C691 0.930 . S
H684 C694 0.930 . S
H685 C695 0.930 . S
C686 H680 0.930 . S
C686 C687 1.355 . S
C686 C688 1.415 . S
C687 C686 1.355 . S
C687 C689 1.419 . S
C688 C686 1.415 . S
C688 C693 1.425 . S
C688 C695 1.409 . S
C689 H681 0.930 . S
C689 C687 1.419 . S
C689 C690 1.362 . S
C690 H682 0.930 . S
C690 C689 1.362 . S
C690 C693 1.409 . S
C691 H683 0.930 . S
C691 C692 1.355 . S
C691 C693 1.415 . S
C692 C691 1.355 . S
C692 C694 1.419 . S
C693 C688 1.425 . S
C693 C690 1.409 . S
C693 C691 1.415 . S
C694 H684 0.930 . S
C694 C692 1.419 . S
C694 C695 1.362 . S
C695 H685 0.930 . S
C695 C688 1.409 . S
C695 C694 1.362 . S
H696 C702 0.930 . S
H697 C705 0.930 . S
H698 C706 0.930 . S
H699 C707 0.930 . S
H700 C710 0.930 . S
H701 C711 0.930 . S
C702 H696 0.930 . S
C702 C703 1.355 . S
C702 C704 1.415 . S
C703 C702 1.355 . S
C703 C705 1.419 . S
C704 C702 1.415 . S
C704 C709 1.425 . S
C704 C711 1.409 . S
C705 H697 0.930 . S
C705 C703 1.419 . S
C705 C706 1.362 . S
C706 H698 0.930 . S
C706 C705 1.362 . S
C706 C709 1.409 . S
C707 H699 0.930 . S
C707 C708 1.355 . S
C707 C709 1.415 . S
C708 C707 1.355 . S
C708 C710 1.419 . S
C709 C704 1.425 . S
C709 C706 1.409 . S
C709 C707 1.415 . S
C710 H700 0.930 . S
C710 C708 1.419 . S
C710 C711 1.362 . S
C711 H701 0.930 . S
C711 C704 1.409 . S
C711 C710 1.362 . S
H712 C718 0.930 . S
H713 C721 0.930 . S
H714 C722 0.930 . S
H715 C723 0.930 . S
H716 C726 0.930 . S
H717 C727 0.930 . S
C718 H712 0.930 . S
C718 C719 1.355 . S
C718 C720 1.415 . S
C719 C718 1.355 . S
C719 C721 1.419 . S
C720 C718 1.415 . S
C720 C725 1.425 . S
C720 C727 1.409 . S
C721 H713 0.930 . S
C721 C719 1.419 . S
C721 C722 1.362 . S
C722 H714 0.930 . S
C722 C721 1.362 . S
C722 C725 1.409 . S
C723 H715 0.930 . S
C723 C724 1.355 1_554 S
C723 C725 1.415 . S
C724 C723 1.355 1_556 S
C724 C726 1.419 . S
C725 C720 1.425 . S
C725 C722 1.409 . S
C725 C723 1.415 . S
C726 H716 0.930 . S
C726 C724 1.419 . S
C726 C727 1.362 1_556 S
C727 H717 0.930 . S
C727 C720 1.409 . S
C727 C726 1.362 1_554 S
H728 C734 0.930 . S
H729 C737 0.930 . S
H730 C738 0.930 . S
H731 C739 0.930 . S
H732 C742 0.930 . S
H733 C743 0.930 . S
C734 H728 0.930 . S
C734 C735 1.355 . S
C734 C736 1.415 . S
C735 C734 1.355 . S
C735 C737 1.419 . S
C736 C734 1.415 . S
C736 C741 1.425 . S
C736 C743 1.409 . S
C737 H729 0.930 . S
C737 C735 1.419 . S
C737 C738 1.362 . S
C738 H730 0.930 . S
C738 C737 1.362 . S
C738 C741 1.409 . S
C739 H731 0.930 . S
C739 C740 1.355 . S
C739 C741 1.415 . S
C740 C739 1.355 . S
C740 C742 1.419 . S
C741 C736 1.425 . S
C741 C738 1.409 . S
C741 C739 1.415 . S
C742 H732 0.930 . S
C742 C740 1.419 . S
C742 C743 1.362 . S
C743 H733 0.930 . S
C743 C736 1.409 . S
C743 C742 1.362 . S
H744 C750 0.930 1_556 S
H745 C753 0.930 1_556 S
H746 C754 0.930 . S
H747 C755 0.930 . S
H748 C758 0.930 . S
H749 C759 0.930 . S
C750 H744 0.930 1_554 S
C750 C751 1.355 1_554 S
C750 C752 1.415 . S
C751 C750 1.355 1_556 S
C751 C753 1.419 1_556 S
C752 C750 1.415 . S
C752 C757 1.425 . S
C752 C759 1.409 . S
C753 H745 0.930 1_554 S
C753 C751 1.419 1_554 S
C753 C754 1.362 . S
C754 H746 0.930 . S
C754 C753 1.362 . S
C754 C757 1.409 . S
C755 H747 0.930 . S
C755 C756 1.355 . S
C755 C757 1.415 . S
C756 C755 1.355 . S
C756 C758 1.419 . S
C757 C752 1.425 . S
C757 C754 1.409 . S
C757 C755 1.415 . S
C758 H748 0.930 . S
C758 C756 1.419 . S
C758 C759 1.362 . S
C759 H749 0.930 . S
C759 C752 1.409 . S
C759 C758 1.362 . S
H760 C766 0.930 . S
H761 C769 0.930 . S
H762 C770 0.930 . S
H763 C771 0.930 . S
H764 C774 0.930 . S
H765 C775 0.930 . S
C766 H760 0.930 . S
C766 C767 1.355 . S
C766 C768 1.415 . S
C767 C766 1.355 . S
C767 C769 1.419 . S
C768 C766 1.415 . S
C768 C773 1.425 . S
C768 C775 1.409 . S
C769 H761 0.930 . S
C769 C767 1.419 . S
C769 C770 1.362 . S
C770 H762 0.930 . S
C770 C769 1.362 . S
C770 C773 1.409 . S
C771 H763 0.930 . S
C771 C772 1.355 . S
C771 C773 1.415 . S
C772 C771 1.355 . S
C772 C774 1.419 . S
C773 C768 1.425 . S
C773 C770 1.409 . S
C773 C771 1.415 . S
C774 H764 0.930 . S
C774 C772 1.419 . S
C774 C775 1.362 . S
C775 H765 0.930 . S
C775 C768 1.409 . S
C775 C774 1.362 . S
H776 C782 0.930 . S
H777 C785 0.930 . S
H778 C786 0.930 . S
H779 C787 0.930 . S
H780 C790 0.930 . S
H781 C791 0.930 . S
C782 H776 0.930 . S
C782 C783 1.355 . S
C782 C784 1.415 . S
C783 C782 1.355 . S
C783 C785 1.419 . S
C784 C782 1.415 . S
C784 C789 1.425 . S
C784 C791 1.409 . S
C785 H777 0.930 . S
C785 C783 1.419 . S
C785 C786 1.362 . S
C786 H778 0.930 . S
C786 C785 1.362 . S
C786 C789 1.409 . S
C787 H779 0.930 . S
C787 C788 1.355 1_554 S
C787 C789 1.415 . S
C788 C787 1.355 1_556 S
C788 C790 1.419 . S
C789 C784 1.425 . S
C789 C786 1.409 . S
C789 C787 1.415 . S
C790 H780 0.930 . S
C790 C788 1.419 . S
C790 C791 1.362 1_556 S
C791 H781 0.930 . S
C791 C784 1.409 . S
C791 C790 1.362 1_554 S
H792 C798 0.930 . S
H793 C801 0.930 . S
H794 C802 0.930 . S
H795 C803 0.930 . S
H796 C806 0.930 . S
H797 C807 0.930 . S
C798 H792 0.930 . S
C798 C799 1.355 . S
C798 C800 1.415 . S
C799 C798 1.355 . S
C799 C801 1.419 . S
C800 C798 1.415 . S
C800 C805 1.425 . S
C800 C807 1.409 . S
C801 H793 0.930 . S
C801 C799 1.419 . S
C801 C802 1.362 . S
C802 H794 0.930 . S
C802 C801 1.362 . S
C802 C805 1.409 . S
C803 H795 0.930 . S
C803 C804 1.355 . S
C803 C805 1.415 . S
C804 C803 1.355 . S
C804 C806 1.419 . S
C805 C800 1.425 . S
C805 C802 1.409 . S
C805 C803 1.415 . S
C806 H796 0.930 . S
C806 C804 1.419 . S
C806 C807 1.362 . S
C807 H797 0.930 . S
C807 C800 1.409 . S
C807 C806 1.362 . S
H808 C814 0.930 . S
H809 C817 0.930 . S
H810 C818 0.930 . S
H811 C819 0.930 . S
H812 C822 0.930 . S
H813 C823 0.930 . S
C814 H808 0.930 . S
C814 C815 1.355 . S
C814 C816 1.415 . S
C815 C814 1.355 . S
C815 C817 1.419 . S
C816 C814 1.415 . S
C816 C821 1.425 . S
C816 C823 1.409 . S
C817 H809 0.930 . S
C817 C815 1.419 . S
C817 C818 1.362 . S
C818 H810 0.930 . S
C818 C817 1.362 . S
C818 C821 1.409 . S
C819 H811 0.930 . S
C819 C820 1.355 . S
C819 C821 1.415 . S
C820 C819 1.355 . S
C820 C822 1.419 . S
C821 C816 1.425 . S
C821 C818 1.409 . S
C821 C819 1.415 . S
C822 H812 0.930 . S
C822 C820 1.419 . S
C822 C823 1.362 . S
C823 H813 0.930 . S
C823 C816 1.409 . S
C823 C822 1.362 . S
H824 C830 0.930 . S
H825 C833 0.930 . S
H826 C834 0.930 . S
H827 C835 0.930 . S
H828 C838 0.930 . S
H829 C839 0.930 . S
C830 H824 0.930 . S
C830 C831 1.355 . S
C830 C832 1.415 . S
C831 C830 1.355 . S
C831 C833 1.419 . S
C832 C830 1.415 . S
C832 C837 1.425 . S
C832 C839 1.409 . S
C833 H825 0.930 . S
C833 C831 1.419 . S
C833 C834 1.362 . S
C834 H826 0.930 . S
C834 C833 1.362 . S
C834 C837 1.409 . S
C835 H827 0.930 . S
C835 C836 1.355 . S
C835 C837 1.415 . S
C836 C835 1.355 . S
C836 C838 1.419 . S
C837 C832 1.425 . S
C837 C834 1.409 . S
C837 C835 1.415 . S
C838 H828 0.930 . S
C838 C836 1.419 . S
C838 C839 1.362 . S
C839 H829 0.930 . S
C839 C832 1.409 . S
C839 C838 1.362 . S
H840 C846 0.930 . S
H841 C849 0.930 . S
H842 C850 0.930 . S
H843 C851 0.930 . S
H844 C854 0.930 . S
H845 C855 0.930 . S
C846 H840 0.930 . S
C846 C847 1.355 . S
C846 C848 1.415 . S
C847 C846 1.355 . S
C847 C849 1.419 . S
C848 C846 1.415 . S
C848 C853 1.425 . S
C848 C855 1.409 . S
C849 H841 0.930 . S
C849 C847 1.419 . S
C849 C850 1.362 . S
C850 H842 0.930 . S
C850 C849 1.362 . S
C850 C853 1.409 . S
C851 H843 0.930 . S
C851 C852 1.355 . S
C851 C853 1.415 . S
C852 C851 1.355 . S
C852 C854 1.419 . S
C853 C848 1.425 . S
C853 C850 1.409 . S
C853 C851 1.415 . S
C854 H844 0.930 . S
C854 C852 1.419 . S
C854 C855 1.362 . S
C855 H845 0.930 . S
C855 C848 1.409 . S
C855 C854 1.362 . S
H856 C862 0.930 . S
H857 C865 0.930 . S
H858 C866 0.930 . S
H859 C867 0.930 . S
H860 C870 0.930 . S
H861 C871 0.930 . S
C862 H856 0.930 . S
C862 C863 1.355 . S
C862 C864 1.415 . S
C863 C862 1.355 . S
C863 C865 1.419 . S
C864 C862 1.415 . S
C864 C869 1.425 . S
C864 C871 1.409 . S
C865 H857 0.930 . S
C865 C863 1.419 . S
C865 C866 1.362 . S
C866 H858 0.930 . S
C866 C865 1.362 . S
C866 C869 1.409 . S
C867 H859 0.930 . S
C867 C868 1.355 . S
C867 C869 1.415 . S
C868 C867 1.355 . S
C868 C870 1.419 . S
C869 C864 1.425 . S
C869 C866 1.409 . S
C869 C867 1.415 . S
C870 H860 0.930 . S
C870 C868 1.419 . S
C870 C871 1.362 . S
C871 H861 0.930 . S
C871 C864 1.409 . S
C871 C870 1.362 . S
H872 C878 0.930 . S
H873 C881 0.930 . S
H874 C882 0.930 . S
H875 C883 0.930 . S
H876 C886 0.930 . S
H877 C887 0.930 . S
C878 H872 0.930 . S
C878 C879 1.355 . S
C878 C880 1.415 . S
C879 C878 1.355 . S
C879 C881 1.419 . S
C880 C878 1.415 . S
C880 C885 1.425 . S
C880 C887 1.409 . S
C881 H873 0.930 . S
C881 C879 1.419 . S
C881 C882 1.362 . S
C882 H874 0.930 . S
C882 C881 1.362 . S
C882 C885 1.409 . S
C883 H875 0.930 . S
C883 C884 1.355 . S
C883 C885 1.415 . S
C884 C883 1.355 . S
C884 C886 1.419 . S
C885 C880 1.425 . S
C885 C882 1.409 . S
C885 C883 1.415 . S
C886 H876 0.930 . S
C886 C884 1.419 . S
C886 C887 1.362 . S
C887 H877 0.930 . S
C887 C880 1.409 . S
C887 C886 1.362 . S
C415 C2 1.609 . S
C420 C376 1.618 . S
C431 C36 1.605 . S
C436 C206 1.601 . S
C447 C240 1.634 . S
C452 C70 1.624 . S
C463 C274 1.626 . S
C468 C104 1.616 . S
C479 C308 1.608 . S
C484 C138 1.616 . S
C495 C172 1.629 . S
C500 C342 1.639 . S
C511 C305 1.600 . S
C516 C33 1.594 . S
C527 C339 1.598 . S
C532 C67 1.592 . S
C543 C101 1.598 . S
C548 C373 1.592 . S
C559 C135 1.598 . S
C564 C407 1.592 . S
C575 C237 1.608 . S
C580 C169 1.606 . S
C591 C203 1.607 . S
C596 C271 1.608 . S
C607 C9 1.282 . S
C612 C5 1.266 . S
C623 C39 1.275 . S
C628 C43 1.282 . S
C639 C77 1.209 . S
C644 C73 1.270 . S
C655 C107 1.244 . S
C660 C111 1.268 . S
C671 C145 1.231 . S
C676 C141 1.227 . S
C687 C175 1.288 . S
C692 C179 1.271 . S
C703 C209 1.231 . S
C708 C213 1.208 . S
C719 C247 1.281 . S
C724 C243 1.261 . S
C735 C277 1.230 . S
C740 C281 1.246 . S
C751 C311 1.282 . S
C756 C315 1.278 . S
C767 C349 1.255 . S
C772 C345 1.235 . S
C783 C383 1.252 . S
C788 C379 1.233 . S
C799 C20 1.578 . S
C804 C360 1.575 . S
C815 C394 1.559 . S
C820 C54 1.553 . S
C831 C224 1.539 . S
C836 C88 1.538 . S
C847 C122 1.573 . S
C852 C258 1.577 . S
C863 C156 1.538 . S
C868 C292 1.538 . S
C879 C190 1.557 . S
C884 C326 1.563 . S
