# Generated by pormake.
# Topology unb, (4)-cn, num edge types: 1
# Building blocks:
#     Node 0, Type 0, BuildingBlock: AZAVOO_clean_sbu_0, # of connection points: 4
#     Node 1, Type 0, BuildingBlock: AZAVOO_clean_sbu_0, # of connection points: 4
#     Node 2, Type 0, BuildingBlock: AZAVOO_clean_sbu_0, # of connection points: 4
#     Node 3, Type 0, BuildingBlock: AZAVOO_clean_sbu_0, # of connection points: 4
#     Node 4, Type 0, BuildingBlock: AZAVOO_clean_sbu_0, # of connection points: 4
#     Node 5, Type 0, BuildingBlock: AZAVOO_clean_sbu_0, # of connection points: 4
#     Node 6, Type 0, BuildingBlock: AZAVOO_clean_sbu_0, # of connection points: 4
#     Node 7, Type 0, BuildingBlock: AZAVOO_clean_sbu_0, # of connection points: 4
#     Node 8, Type 0, BuildingBlock: AZAVOO_clean_sbu_0, # of connection points: 4
#     Node 9, Type 0, BuildingBlock: AZAVOO_clean_sbu_0, # of connection points: 4
#     Node 10, Type 0, BuildingBlock: AZAVOO_clean_sbu_0, # of connection points: 4
#     Node 11, Type 0, BuildingBlock: AZAVOO_clean_sbu_0, # of connection points: 4
#     Node 12, Type 0, BuildingBlock: AZAVOO_clean_sbu_0, # of connection points: 4
#     Node 13, Type 0, BuildingBlock: AZAVOO_clean_sbu_0, # of connection points: 4
#     Node 14, Type 0, BuildingBlock: AZAVOO_clean_sbu_0, # of connection points: 4
#     Node 15, Type 0, BuildingBlock: AZAVOO_clean_sbu_0, # of connection points: 4
#     Node 16, Type 0, BuildingBlock: AZAVOO_clean_sbu_0, # of connection points: 4
#     Node 17, Type 0, BuildingBlock: AZAVOO_clean_sbu_0, # of connection points: 4
#     Edge 18, Type (0, 0), BuildingBlock: UVAHIK_clean_linker_0, # of connection points: 2
#     Edge 19, Type (0, 0), BuildingBlock: UVAHIK_clean_linker_0, # of connection points: 2
#     Edge 20, Type (0, 0), BuildingBlock: UVAHIK_clean_linker_0, # of connection points: 2
#     Edge 21, Type (0, 0), BuildingBlock: UVAHIK_clean_linker_0, # of connection points: 2
#     Edge 22, Type (0, 0), BuildingBlock: UVAHIK_clean_linker_0, # of connection points: 2
#     Edge 23, Type (0, 0), BuildingBlock: UVAHIK_clean_linker_0, # of connection points: 2
#     Edge 24, Type (0, 0), BuildingBlock: UVAHIK_clean_linker_0, # of connection points: 2
#     Edge 25, Type (0, 0), BuildingBlock: UVAHIK_clean_linker_0, # of connection points: 2
#     Edge 26, Type (0, 0), BuildingBlock: UVAHIK_clean_linker_0, # of connection points: 2
#     Edge 27, Type (0, 0), BuildingBlock: UVAHIK_clean_linker_0, # of connection points: 2
#     Edge 28, Type (0, 0), BuildingBlock: UVAHIK_clean_linker_0, # of connection points: 2
#     Edge 29, Type (0, 0), BuildingBlock: UVAHIK_clean_linker_0, # of connection points: 2
#     Edge 30, Type (0, 0), BuildingBlock: UVAHIK_clean_linker_0, # of connection points: 2
#     Edge 31, Type (0, 0), BuildingBlock: UVAHIK_clean_linker_0, # of connection points: 2
#     Edge 32, Type (0, 0), BuildingBlock: UVAHIK_clean_linker_0, # of connection points: 2
#     Edge 33, Type (0, 0), BuildingBlock: UVAHIK_clean_linker_0, # of connection points: 2
#     Edge 34, Type (0, 0), BuildingBlock: UVAHIK_clean_linker_0, # of connection points: 2
#     Edge 35, Type (0, 0), BuildingBlock: UVAHIK_clean_linker_0, # of connection points: 2
#     Edge 36, Type (0, 0), BuildingBlock: UVAHIK_clean_linker_0, # of connection points: 2
#     Edge 37, Type (0, 0), BuildingBlock: UVAHIK_clean_linker_0, # of connection points: 2
#     Edge 38, Type (0, 0), BuildingBlock: UVAHIK_clean_linker_0, # of connection points: 2
#     Edge 39, Type (0, 0), BuildingBlock: UVAHIK_clean_linker_0, # of connection points: 2
#     Edge 40, Type (0, 0), BuildingBlock: UVAHIK_clean_linker_0, # of connection points: 2
#     Edge 41, Type (0, 0), BuildingBlock: UVAHIK_clean_linker_0, # of connection points: 2
#     Edge 42, Type (0, 0), BuildingBlock: UVAHIK_clean_linker_0, # of connection points: 2
#     Edge 43, Type (0, 0), BuildingBlock: UVAHIK_clean_linker_0, # of connection points: 2
#     Edge 44, Type (0, 0), BuildingBlock: UVAHIK_clean_linker_0, # of connection points: 2
#     Edge 45, Type (0, 0), BuildingBlock: UVAHIK_clean_linker_0, # of connection points: 2
#     Edge 46, Type (0, 0), BuildingBlock: UVAHIK_clean_linker_0, # of connection points: 2
#     Edge 47, Type (0, 0), BuildingBlock: UVAHIK_clean_linker_0, # of connection points: 2
#     Edge 48, Type (0, 0), BuildingBlock: UVAHIK_clean_linker_0, # of connection points: 2
#     Edge 49, Type (0, 0), BuildingBlock: UVAHIK_clean_linker_0, # of connection points: 2
#     Edge 50, Type (0, 0), BuildingBlock: UVAHIK_clean_linker_0, # of connection points: 2
#     Edge 51, Type (0, 0), BuildingBlock: UVAHIK_clean_linker_0, # of connection points: 2
#     Edge 52, Type (0, 0), BuildingBlock: UVAHIK_clean_linker_0, # of connection points: 2
#     Edge 53, Type (0, 0), BuildingBlock: UVAHIK_clean_linker_0, # of connection points: 2
# Relax obj value: 0.018
# Max RMSD: 0.023
# Mean RMSD: 0.023
data_MOF--net-unb--node1-AZAVOO_clean_sbu_0--edge1-UVAHIK_clean_linker_0
_symmetry_space_group_name_H-M    P1
_symmetry_Int_Tables_number       1
_symmetry_cell_setting            triclinic
loop_
_symmetry_equiv_pos_as_xyz
'x, y, z'
_cell_length_a     87.920153
_cell_length_b     87.887409
_cell_length_c     30.384778
_cell_angle_alpha  89.997955
_cell_angle_beta   89.987862
_cell_angle_gamma 120.00348
loop_
_atom_site_label
_atom_site_type_symbol
_atom_site_fract_x
_atom_site_fract_y
_atom_site_fract_z
_atom_type_partial_charge
Mg0 Mg 0.11975 0.24779 0.08125 0.0
O1 O 0.12623 0.27019 0.03198 0.0
O2 O 0.10785 0.2803 0.04532 0.0
Mg3 Mg 0.08956 0.26443 0.10142 0.0
C4 C 0.12056 0.28076 0.02391 0.0
C5 C 0.15043 0.24906 0.02517 0.0
O6 O 0.14185 0.25161 0.99331 0.0
O7 O 0.13319 0.26792 0.13603 0.0
O8 O 0.11353 0.27663 0.1469 0.0
O9 O 0.09971 0.22806 0.03537 0.0
O10 O 0.09399 0.24259 0.08573 0.0
C11 C 0.12801 0.27725 0.15622 0.0
C12 C 0.08851 0.23159 0.0536 0.0
O13 O 0.145 0.24775 0.06452 0.0
Mg14 Mg 0.75645 0.87846 0.08063 0.0
O15 O 0.73603 0.86206 0.02747 0.0
O16 O 0.72799 0.83383 0.03752 0.0
Mg17 Mg 0.74181 0.83188 0.09884 0.0
C18 C 0.72711 0.8459 0.01628 0.0
C19 C 0.75539 0.90708 0.02144 0.0
O20 O 0.75525 0.89653 0.99061 0.0
O21 O 0.73439 0.87006 0.13084 0.0
O22 O 0.7264 0.84172 0.13935 0.0
O23 O 0.77814 0.87973 0.0393 0.0
O24 O 0.76302 0.85892 0.08804 0.0
C25 C 0.72469 0.855 0.14825 0.0
C26 C 0.77487 0.86514 0.05789 0.0
O27 O 0.75524 0.90293 0.06158 0.0
Mg28 Mg 0.12321 0.87799 0.08477 0.0
O29 O 0.13842 0.87265 0.03104 0.0
O30 O 0.16695 0.89258 0.03852 0.0
Mg31 Mg 0.17014 0.90857 0.10041 0.0
C32 C 0.15439 0.87963 0.01848 0.0
C33 C 0.08451 0.8497 0.08773 0.0
O34 O 0.08567 0.861 0.11775 0.0
O35 O 0.13122 0.86424 0.13491 0.0
O36 O 0.15988 0.8835 0.14274 0.0
O37 O 0.12229 0.89822 0.04246 0.0
O38 O 0.14343 0.90395 0.09026 0.0
C39 C 0.14613 0.86894 0.15228 0.0
C40 C 0.13724 0.90945 0.05964 0.0
O41 O 0.09834 0.85257 0.06753 0.0
Mg42 Mg 0.2446 0.12399 0.91714 0.0
O43 O 0.26451 0.12912 0.97273 0.0
O44 O 0.27596 0.1119 0.9588 0.0
Mg45 Mg 0.26361 0.09596 0.89665 0.0
C46 C 0.27494 0.12341 0.98227 0.0
C47 C 0.22762 0.14592 0.92725 0.0
O48 O 0.2157 0.13089 0.91014 0.0
O49 O 0.26696 0.13991 0.86969 0.0
O50 O 0.27749 0.12181 0.85722 0.0
O51 O 0.22333 0.10228 0.95561 0.0
O52 O 0.24046 0.0987 0.90862 0.0
C53 C 0.27772 0.13629 0.85071 0.0
C54 C 0.2281 0.09198 0.93756 0.0
O55 O 0.24269 0.14802 0.9358 0.0
Mg56 Mg 0.87247 0.12376 0.92738 0.0
O57 O 0.86765 0.13907 0.98224 0.0
O58 O 0.8849 0.16763 0.96705 0.0
Mg59 Mg 0.90084 0.1707 0.90518 0.0
C60 C 0.87339 0.15529 0.99098 0.0
C61 C 0.83946 0.08756 0.91632 0.0
O62 O 0.84436 0.09237 0.87541 0.0
O63 O 0.85674 0.13029 0.87934 0.0
O64 O 0.8751 0.15877 0.8656 0.0
O65 O 0.89436 0.1243 0.96564 0.0
O66 O 0.89775 0.14468 0.9178 0.0
C67 C 0.86054 0.14456 0.85957 0.0
C68 C 0.90462 0.13918 0.94663 0.0
O69 O 0.84816 0.09813 0.94716 0.0
Mg70 Mg 0.87644 0.75172 0.91888 0.0
O71 O 0.86019 0.73125 0.97193 0.0
O72 O 0.83189 0.72246 0.95995 0.0
Mg73 Mg 0.83 0.7364 0.89858 0.0
C74 C 0.84396 0.72194 0.98213 0.0
C75 C 0.91436 0.75963 0.91518 0.0
O76 O 0.9131 0.76793 0.88062 0.0
O77 O 0.86864 0.72999 0.86864 0.0
O78 O 0.84037 0.72153 0.85698 0.0
O79 O 0.87752 0.77318 0.95998 0.0
O80 O 0.85679 0.75811 0.91096 0.0
C81 C 0.85402 0.7203 0.84932 0.0
C82 C 0.86298 0.76995 0.94125 0.0
O83 O 0.90078 0.75062 0.9386 0.0
Mg84 Mg 0.79094 0.57574 0.41916 0.0
O85 O 0.79393 0.59494 0.36382 0.0
O86 O 0.77431 0.6036 0.3755 0.0
Mg87 Mg 0.75965 0.59092 0.43916 0.0
C88 C 0.78664 0.60382 0.3528 0.0
C89 C 0.82072 0.5673 0.41851 0.0
O90 O 0.81101 0.55802 0.45191 0.0
O91 O 0.80542 0.59856 0.46642 0.0
O92 O 0.78547 0.60686 0.47779 0.0
O93 O 0.76995 0.55326 0.38151 0.0
O94 O 0.76497 0.56921 0.42928 0.0
C95 C 0.80056 0.60848 0.48475 0.0
C96 C 0.75888 0.55676 0.40062 0.0
O97 O 0.81628 0.57697 0.39756 0.0
Mg98 Mg 0.42009 0.21347 0.42067 0.0
O99 O 0.39851 0.1968 0.37034 0.0
O100 O 0.38788 0.16845 0.38656 0.0
Mg101 Mg 0.4022 0.16695 0.4475 0.0
C102 C 0.38807 0.1805 0.36271 0.0
C103 C 0.42098 0.24155 0.35639 0.0
O104 O 0.42065 0.23014 0.32794 0.0
O105 O 0.39918 0.20811 0.47214 0.0
O106 O 0.38914 0.17969 0.48683 0.0
O107 O 0.44009 0.21194 0.37895 0.0
O108 O 0.42481 0.19275 0.43098 0.0
C109 C 0.38894 0.19399 0.49285 0.0
C110 C 0.43604 0.19747 0.39937 0.0
O111 O 0.42042 0.23826 0.39728 0.0
Mg112 Mg 0.78227 0.20927 0.4306 0.0
O113 O 0.79885 0.20561 0.3774 0.0
O114 O 0.82714 0.22396 0.39266 0.0
Mg115 Mg 0.8287 0.23932 0.45466 0.0
C116 C 0.81516 0.21205 0.36879 0.0
C117 C 0.75343 0.18216 0.36802 0.0
O118 O 0.76353 0.19422 0.33938 0.0
O119 O 0.78924 0.19419 0.47956 0.0
O120 O 0.81746 0.21346 0.49372 0.0
O121 O 0.78199 0.23053 0.39154 0.0
O122 O 0.80224 0.23504 0.44099 0.0
C123 C 0.8036 0.19857 0.4996 0.0
C124 C 0.7965 0.24136 0.41123 0.0
O125 O 0.75789 0.18428 0.40832 0.0
Mg126 Mg 0.91008 0.45209 0.24115 0.0
O127 O 0.92998 0.45647 0.29576 0.0
O128 O 0.93596 0.43455 0.29218 0.0
Mg129 Mg 0.92176 0.41763 0.23241 0.0
C130 C 0.93779 0.4485 0.3101 0.0
C131 C 0.90313 0.4827 0.23347 0.0
O132 O 0.89273 0.4716 0.20346 0.0
O133 O 0.93226 0.46321 0.19092 0.0
O134 O 0.93802 0.4412 0.18681 0.0
O135 O 0.88784 0.43386 0.28476 0.0
O136 O 0.90175 0.42536 0.23936 0.0
C137 C 0.94085 0.45634 0.1748 0.0
C138 C 0.89014 0.42138 0.26967 0.0
O139 O 0.9132 0.47893 0.25489 0.0
Mg140 Mg 0.54489 0.45432 0.25518 0.0
O141 O 0.5402 0.46865 0.31261 0.0
O142 O 0.56123 0.49697 0.30969 0.0
Mg143 Mg 0.57748 0.50118 0.24775 0.0
C144 C 0.5478 0.48428 0.32794 0.0
C145 C 0.51007 0.41969 0.2372 0.0
O146 O 0.51585 0.42459 0.19686 0.0
O147 O 0.53229 0.46488 0.20807 0.0
O148 O 0.55294 0.49332 0.20542 0.0
O149 O 0.56455 0.45112 0.29499 0.0
O150 O 0.57118 0.47373 0.25157 0.0
C151 C 0.53802 0.48049 0.19389 0.0
C152 C 0.57626 0.46626 0.27966 0.0
O153 O 0.51881 0.4296 0.26903 0.0
Mg154 Mg 0.53884 0.08613 0.25354 0.0
O155 O 0.52324 0.06489 0.30563 0.0
O156 O 0.49471 0.05416 0.29147 0.0
Mg157 Mg 0.49204 0.0684 0.23184 0.0
C158 C 0.50704 0.05441 0.31424 0.0
C159 C 0.57586 0.09124 0.24317 0.0
O160 O 0.57273 0.09501 0.20355 0.0
O161 O 0.53239 0.06503 0.2021 0.0
O162 O 0.50389 0.05516 0.18953 0.0
O163 O 0.53836 0.10645 0.29618 0.0
O164 O 0.51811 0.09097 0.24646 0.0
C165 C 0.51806 0.0549 0.18211 0.0
C166 C 0.52354 0.10241 0.2777 0.0
O167 O 0.56397 0.0864 0.27235 0.0
Mg168 Mg 0.45446 0.91004 0.75551 0.0
O169 O 0.45811 0.92981 0.70104 0.0
O170 O 0.43936 0.93942 0.7148 0.0
Mg171 Mg 0.42381 0.92589 0.77674 0.0
C172 C 0.45145 0.93942 0.69153 0.0
C173 C 0.48345 0.90066 0.75547 0.0
O174 O 0.47302 0.89094 0.78738 0.0
O175 O 0.46906 0.93241 0.80389 0.0
O176 O 0.44944 0.94105 0.81639 0.0
O177 O 0.43366 0.88819 0.71628 0.0
O178 O 0.42854 0.90391 0.76451 0.0
C179 C 0.4644 0.94236 0.82305 0.0
C180 C 0.42258 0.8918 0.73488 0.0
O181 O 0.47973 0.91095 0.73492 0.0
Mg182 Mg 0.08782 0.54247 0.74129 0.0
O183 O 0.06846 0.52726 0.68532 0.0
O184 O 0.06256 0.49935 0.68907 0.0
Mg185 Mg 0.07692 0.49643 0.74827 0.0
C186 C 0.06076 0.51148 0.67096 0.0
C187 C 0.09428 0.57971 0.75207 0.0
O188 O 0.10446 0.57868 0.78217 0.0
O189 O 0.06528 0.53052 0.79048 0.0
O190 O 0.06061 0.50313 0.79538 0.0
O191 O 0.11093 0.54773 0.6993 0.0
O192 O 0.09632 0.52428 0.74139 0.0
C193 C 0.05731 0.51514 0.80726 0.0
C194 C 0.10839 0.53264 0.71256 0.0
O195 O 0.08446 0.56613 0.72942 0.0
Mg196 Mg 0.45731 0.5452 0.75698 0.0
O197 O 0.47227 0.54071 0.70099 0.0
O198 O 0.50047 0.56188 0.70444 0.0
Mg199 Mg 0.50393 0.5783 0.76579 0.0
C200 C 0.48796 0.5483 0.68619 0.0
C201 C 0.42633 0.51645 0.70419 0.0
O202 O 0.43423 0.52879 0.67436 0.0
O203 O 0.4678 0.533 0.80537 0.0
O204 O 0.4961 0.55393 0.8091 0.0
O205 O 0.45403 0.56454 0.71606 0.0
O206 O 0.4764 0.57164 0.7607 0.0
C207 C 0.4833 0.53896 0.82048 0.0
C208 C 0.46894 0.57647 0.73192 0.0
O209 O 0.43305 0.51884 0.74236 0.0
Mg210 Mg 0.579 0.79 0.58263 0.0
O211 O 0.59776 0.79328 0.63936 0.0
O212 O 0.60534 0.77264 0.63178 0.0
Mg213 Mg 0.59253 0.75708 0.56931 0.0
C214 C 0.60608 0.78564 0.65243 0.0
C215 C 0.57183 0.82048 0.57709 0.0
O216 O 0.56295 0.8105 0.54365 0.0
O217 O 0.60217 0.80314 0.5357 0.0
O218 O 0.60937 0.78217 0.52884 0.0
O219 O 0.55606 0.77013 0.62134 0.0
O220 O 0.5716 0.76363 0.57593 0.0
C221 C 0.61175 0.7974 0.51957 0.0
C222 C 0.55911 0.75841 0.60432 0.0
O223 O 0.58096 0.81601 0.60034 0.0
Mg224 Mg 0.20915 0.78672 0.58266 0.0
O225 O 0.20491 0.80231 0.6374 0.0
O226 O 0.22542 0.83066 0.62999 0.0
Mg227 Mg 0.24077 0.83343 0.56712 0.0
C228 C 0.2124 0.81828 0.65027 0.0
C229 C 0.17912 0.74854 0.57902 0.0
O230 O 0.1892 0.74929 0.54618 0.0
O231 O 0.19559 0.79551 0.53391 0.0
O232 O 0.2155 0.824 0.52612 0.0
O233 O 0.22931 0.78498 0.62339 0.0
O234 O 0.23532 0.80636 0.57611 0.0
C235 C 0.20064 0.81057 0.51695 0.0
C236 C 0.24074 0.79981 0.60601 0.0
O237 O 0.18343 0.76239 0.60101 0.0
Mg238 Mg 0.21462 0.42384 0.58158 0.0
O239 O 0.19901 0.40662 0.64076 0.0
O240 O 0.17066 0.39764 0.62896 0.0
Mg241 Mg 0.16802 0.40868 0.56361 0.0
C242 C 0.18288 0.39799 0.65239 0.0
C243 C 0.24556 0.42899 0.64049 0.0
O244 O 0.23794 0.43522 0.66619 0.0
O245 O 0.20529 0.39933 0.53953 0.0
O246 O 0.17697 0.39112 0.52992 0.0
O247 O 0.2172 0.4478 0.61404 0.0
O248 O 0.19521 0.43043 0.57042 0.0
C249 C 0.19011 0.38891 0.52381 0.0
C250 C 0.20228 0.44383 0.59631 0.0
O251 O 0.2388 0.42273 0.6032 0.0
C252 C 0.17168 0.35822 0.49793 0.0
C253 C 0.18752 0.37421 0.49558 0.0
C254 C 0.16757 0.3453 0.46618 0.0
C255 C 0.18403 0.33318 0.3661 0.0
H256 H 0.13593 0.31547 0.32848 0.0
C257 C 0.13621 0.30295 0.20476 0.0
C258 C 0.13855 0.28885 0.19266 0.0
C259 C 0.14423 0.31272 0.24235 0.0
C260 C 0.14942 0.32035 0.33839 0.0
H261 H 0.21208 0.38892 0.46039 0.0
H262 H 0.20457 0.36668 0.40329 0.0
H263 H 0.14618 0.3325 0.39527 0.0
H264 H 0.15197 0.27454 0.20895 0.0
H265 H 0.16585 0.29158 0.27576 0.0
H266 H 0.18724 0.32152 0.30722 0.0
C267 C 0.19548 0.36385 0.43023 0.0
C268 C 0.15526 0.32988 0.37726 0.0
C269 C 0.19977 0.37664 0.46278 0.0
C270 C 0.14991 0.28533 0.21763 0.0
C271 C 0.15786 0.29507 0.25575 0.0
C272 C 0.17815 0.32361 0.32678 0.0
C273 C 0.17899 0.34835 0.43059 0.0
C274 C 0.17268 0.33663 0.39145 0.0
C275 C 0.15461 0.3085 0.26914 0.0
C276 C 0.16087 0.31745 0.31215 0.0
H277 H 0.16216 0.35596 0.52344 0.0
H278 H 0.15502 0.33327 0.46831 0.0
H279 H 0.19749 0.33807 0.37628 0.0
H280 H 0.12783 0.30622 0.1857 0.0
H281 H 0.1419 0.32333 0.2511 0.0
C282 C 0.63974 0.80544 0.48092 0.0
C283 C 0.62541 0.80809 0.48699 0.0
C284 C 0.6514 0.81355 0.44621 0.0
C285 C 0.66492 0.84688 0.35695 0.0
H286 H 0.67631 0.81464 0.29846 0.0
C287 C 0.69612 0.83627 0.18537 0.0
C288 C 0.71148 0.85265 0.18147 0.0
C289 C 0.68483 0.83277 0.22088 0.0
C290 C 0.67309 0.82378 0.31393 0.0
H291 H 0.6126 0.82211 0.46316 0.0
H292 H 0.63269 0.83586 0.40129 0.0
H293 H 0.65921 0.80562 0.36536 0.0
H294 H 0.72663 0.87862 0.20995 0.0
H295 H 0.70713 0.87229 0.27332 0.0
H296 H 0.67849 0.86484 0.30408 0.0
C297 C 0.63509 0.82775 0.42385 0.0
C298 C 0.66354 0.81871 0.35293 0.0
C299 C 0.62355 0.81983 0.45917 0.0
C300 C 0.71483 0.86588 0.21228 0.0
C301 C 0.70364 0.86225 0.24846 0.0
C302 C 0.67448 0.85196 0.31751 0.0
C303 C 0.64881 0.82422 0.41617 0.0
C304 C 0.65938 0.83018 0.3751 0.0
C305 C 0.68886 0.84542 0.25391 0.0
C306 C 0.67857 0.84038 0.29547 0.0
H307 H 0.64169 0.79671 0.50237 0.0
H308 H 0.66215 0.81098 0.44207 0.0
H309 H 0.66199 0.85606 0.37333 0.0
H310 H 0.69309 0.82595 0.16159 0.0
H311 H 0.67326 0.81986 0.2233 0.0
C312 C 0.19119 0.82899 0.47562 0.0
C313 C 0.18949 0.81246 0.48361 0.0
C314 C 0.18199 0.83124 0.44122 0.0
C315 C 0.16691 0.81558 0.3323 0.0
H316 H 0.14294 0.84242 0.34122 0.0
C317 C 0.13291 0.84666 0.21262 0.0
C318 C 0.14748 0.8577 0.18634 0.0
C319 C 0.13475 0.83753 0.24799 0.0
C320 C 0.14936 0.83468 0.33832 0.0
H321 H 0.17643 0.78521 0.46273 0.0
H322 H 0.16071 0.78934 0.4015 0.0
H323 H 0.15158 0.83321 0.40829 0.0
H324 H 0.17512 0.86709 0.17486 0.0
H325 H 0.1782 0.85078 0.23595 0.0
H326 H 0.16565 0.81798 0.26234 0.0
C327 C 0.16902 0.80044 0.42235 0.0
C328 C 0.15436 0.8295 0.37657 0.0
C329 C 0.17796 0.79809 0.45739 0.0
C330 C 0.1637 0.85875 0.19471 0.0
C331 C 0.16543 0.84935 0.22944 0.0
C332 C 0.16219 0.82103 0.29406 0.0
C333 C 0.17116 0.81709 0.41368 0.0
C334 C 0.16349 0.82023 0.37383 0.0
C335 C 0.15108 0.83896 0.25693 0.0
C336 C 0.1537 0.83093 0.2968 0.0
H337 H 0.19992 0.84027 0.49544 0.0
H338 H 0.18397 0.84424 0.43492 0.0
H339 H 0.17408 0.80856 0.32939 0.0
H340 H 0.12027 0.84565 0.20699 0.0
H341 H 0.12351 0.82958 0.26881 0.0
C342 C 0.38119 0.20901 0.55149 0.0
C343 C 0.37668 0.19402 0.52588 0.0
C344 C 0.37039 0.20815 0.58643 0.0
C345 C 0.326 0.18236 0.63319 0.0
H346 H 0.34902 0.19076 0.74671 0.0
C347 C 0.30594 0.14854 0.80932 0.0
C348 C 0.29049 0.14891 0.81886 0.0
C349 C 0.31731 0.15927 0.77642 0.0
C350 C 0.34247 0.18865 0.71525 0.0
H351 H 0.35693 0.16681 0.51469 0.0
H352 H 0.33795 0.16544 0.57481 0.0
H353 H 0.36672 0.20029 0.67948 0.0
H354 H 0.27512 0.16122 0.80255 0.0
H355 H 0.29487 0.17968 0.74383 0.0
H356 H 0.30173 0.16994 0.66878 0.0
C357 C 0.34984 0.17778 0.56826 0.0
C358 C 0.35257 0.19419 0.67688 0.0
C359 C 0.36077 0.17851 0.53411 0.0
C360 C 0.28695 0.16068 0.79589 0.0
C361 C 0.29819 0.1712 0.76232 0.0
C362 C 0.31592 0.17706 0.67158 0.0
C363 C 0.35475 0.19244 0.5954 0.0
C364 C 0.34438 0.19044 0.63549 0.0
C365 C 0.31334 0.17039 0.75193 0.0
C366 C 0.32405 0.17952 0.7128 0.0
H367 H 0.39342 0.22111 0.54585 0.0
H368 H 0.37444 0.2196 0.60704 0.0
H369 H 0.31942 0.17937 0.6016 0.0
H370 H 0.30907 0.13969 0.82669 0.0
H371 H 0.32879 0.15824 0.76872 0.0
C372 C 0.78915 0.17479 0.55617 0.0
C373 C 0.80421 0.18642 0.53213 0.0
C374 C 0.79035 0.16489 0.59063 0.0
C375 C 0.81774 0.14839 0.63841 0.0
H376 H 0.80574 0.15978 0.75186 0.0
C377 C 0.83706 0.12946 0.80267 0.0
C378 C 0.84813 0.14464 0.82703 0.0
C379 C 0.82698 0.13024 0.76807 0.0
C380 C 0.80885 0.15622 0.72036 0.0
H381 H 0.83202 0.196 0.52331 0.0
H382 H 0.83401 0.17842 0.58272 0.0
H383 H 0.79672 0.16826 0.68429 0.0
H384 H 0.85651 0.17218 0.83632 0.0
H385 H 0.8386 0.17343 0.77669 0.0
H386 H 0.83056 0.13705 0.6745 0.0
C387 C 0.82135 0.17707 0.57522 0.0
C388 C 0.80363 0.16097 0.6818 0.0
C389 C 0.82024 0.18723 0.54149 0.0
C390 C 0.84818 0.16032 0.81789 0.0
C391 C 0.83784 0.161 0.78402 0.0
C392 C 0.82271 0.14337 0.67697 0.0
C393 C 0.80653 0.16615 0.60078 0.0
C394 C 0.80862 0.1577 0.64056 0.0
C395 C 0.82749 0.1461 0.75813 0.0
C396 C 0.81889 0.14786 0.71822 0.0
H397 H 0.77664 0.17396 0.54968 0.0
H398 H 0.77877 0.15655 0.60999 0.0
H399 H 0.8217 0.1457 0.60693 0.0
H400 H 0.83682 0.11721 0.80899 0.0
H401 H 0.8191 0.1186 0.74843 0.0
C402 C 0.83672 0.69289 0.80549 0.0
C403 C 0.85294 0.70781 0.81531 0.0
C404 C 0.8353 0.68185 0.77082 0.0
C405 C 0.83906 0.65678 0.70716 0.0
H406 H 0.85096 0.68006 0.59353 0.0
C407 C 0.82363 0.61855 0.54325 0.0
C408 C 0.81216 0.62159 0.51739 0.0
C409 C 0.83275 0.62977 0.57827 0.0
C410 C 0.84785 0.67344 0.6251 0.0
H411 H 0.88048 0.72268 0.79728 0.0
H412 H 0.8778 0.70357 0.73544 0.0
H413 H 0.85919 0.69765 0.66106 0.0
H414 H 0.80208 0.63928 0.50591 0.0
H415 H 0.81837 0.6591 0.56629 0.0
H416 H 0.82723 0.63257 0.67121 0.0
C417 C 0.86631 0.70036 0.75515 0.0
C418 C 0.85261 0.68346 0.66361 0.0
C419 C 0.86783 0.71122 0.79051 0.0
C420 C 0.81077 0.63658 0.52547 0.0
C421 C 0.82016 0.64798 0.55979 0.0
C422 C 0.8346 0.64677 0.66868 0.0
C423 C 0.84999 0.6857 0.7448 0.0
C424 C 0.84776 0.67519 0.70487 0.0
C425 C 0.83086 0.64442 0.58718 0.0
C426 C 0.83847 0.65502 0.62734 0.0
H427 H 0.82506 0.6899 0.82419 0.0
H428 H 0.82253 0.67069 0.76317 0.0
H429 H 0.83522 0.65015 0.73868 0.0
H430 H 0.82489 0.60705 0.53783 0.0
H431 H 0.84094 0.62679 0.59904 0.0
C432 C 0.95677 0.48165 0.12214 0.0
C433 C 0.95419 0.46579 0.14021 0.0
C434 C 0.9689 0.48995 0.08807 0.0
C435 C 0.00729 0.49088 0.03476 0.0
H436 H 0.99337 0.50657 0.93088 0.0
C437 C 0.03837 0.49553 0.8676 0.0
C438 C 0.04474 0.51128 0.84384 0.0
C439 C 0.02785 0.49236 0.9046 0.0
C440 C 0.9975 0.50247 0.95996 0.0
H441 H 0.96256 0.44637 0.13687 0.0
H442 H 0.98337 0.46062 0.07773 0.0
H443 H 0.97436 0.49706 0.99602 0.0
H444 H 0.04438 0.53576 0.83941 0.0
H445 H 0.02558 0.52995 0.90419 0.0
H446 H 0.03001 0.49556 0.99822 0.0
C447 C 0.97626 0.46684 0.09013 0.0
C448 C 0.98668 0.49708 0.99724 0.0
C449 C 0.96418 0.45858 0.12392 0.0
C450 C 0.03975 0.52352 0.85708 0.0
C451 C 0.02899 0.52022 0.89403 0.0
C452 C 0.01797 0.49611 0.99756 0.0
C453 C 0.97875 0.48258 0.07169 0.0
C454 C 0.99124 0.49074 0.03456 0.0
C455 C 0.02329 0.50476 0.91859 0.0
C456 C 0.01295 0.50148 0.95943 0.0
H457 H 0.94928 0.48756 0.13391 0.0
H458 H 0.97061 0.50212 0.07464 0.0
H459 H 0.01138 0.48648 0.06337 0.0
H460 H 0.04186 0.48576 0.85838 0.0
H461 H 0.02337 0.4802 0.92257 0.0
C462 C 0.53004 0.50073 0.15654 0.0
C463 C 0.52786 0.48385 0.16058 0.0
C464 C 0.52259 0.50482 0.12126 0.0
C465 C 0.49186 0.4862 0.02621 0.0
H466 H 0.52346 0.53212 0.97701 0.0
C467 C 0.50357 0.53179 0.86095 0.0
C468 C 0.48653 0.52892 0.85449 0.0
C469 C 0.50727 0.52415 0.89651 0.0
C470 C 0.51454 0.51915 0.98983 0.0
H471 H 0.51541 0.45771 0.13235 0.0
H472 H 0.50289 0.46502 0.06959 0.0
H473 H 0.53162 0.52297 0.04359 0.0
H474 H 0.45978 0.5151 0.87889 0.0
H475 H 0.46634 0.50218 0.94207 0.0
H476 H 0.4751 0.48224 0.97099 0.0
C477 C 0.51006 0.47502 0.09413 0.0
C478 C 0.51908 0.51401 0.02868 0.0
C479 C 0.51727 0.47084 0.13 0.0
C480 C 0.47304 0.51753 0.88307 0.0
C481 C 0.4768 0.51008 0.91919 0.0
C482 C 0.48737 0.49131 0.9869 0.0
C483 C 0.51312 0.49223 0.08864 0.0
C484 C 0.50779 0.49753 0.04758 0.0
C485 C 0.49408 0.51372 0.92699 0.0
C486 C 0.4987 0.50785 0.96821 0.0
H487 H 0.53789 0.51093 0.18008 0.0
H488 H 0.52474 0.51804 0.11888 0.0
H489 H 0.48282 0.47344 0.03997 0.0
H490 H 0.51417 0.54028 0.83901 0.0
H491 H 0.5206 0.5268 0.90071 0.0
C492 C 0.50209 0.0271 0.13923 0.0
C493 C 0.5178 0.0427 0.14838 0.0
C494 C 0.50132 0.01614 0.10512 0.0
C495 C 0.50635 0.99181 0.04229 0.0
H496 H 0.51609 0.01442 0.92792 0.0
C497 C 0.4882 0.95249 0.87975 0.0
C498 C 0.47633 0.95543 0.85533 0.0
C499 C 0.49797 0.96393 0.91383 0.0
C500 C 0.51362 0.00799 0.95967 0.0
H501 H 0.54516 0.05888 0.12983 0.0
H502 H 0.54359 0.03986 0.06876 0.0
H503 H 0.52465 0.03236 0.9948 0.0
H504 H 0.46616 0.97313 0.84542 0.0
H505 H 0.48349 0.99327 0.90419 0.0
H506 H 0.49464 0.96741 0.00722 0.0
C507 C 0.53201 0.03609 0.08862 0.0
C508 C 0.51858 0.01823 0.99782 0.0
C509 C 0.53289 0.0469 0.1235 0.0
C510 C 0.47512 0.97048 0.86393 0.0
C511 C 0.48513 0.98208 0.89728 0.0
C512 C 0.50166 0.98159 0.00414 0.0
C513 C 0.51616 0.02071 0.07896 0.0
C514 C 0.51438 0.01018 0.0394 0.0
C515 C 0.49632 0.97869 0.9232 0.0
C516 C 0.50466 0.98958 0.96257 0.0
H517 H 0.4903 0.0235 0.15806 0.0
H518 H 0.4889 0.00444 0.09797 0.0
H519 H 0.50302 0.98535 0.07405 0.0
H520 H 0.48935 0.94095 0.87384 0.0
H521 H 0.50651 0.96106 0.93348 0.0
C522 C 0.12711 0.30909 0.98867 0.0
C523 C 0.12901 0.29414 0.98891 0.0
C524 C 0.13457 0.32156 0.9552 0.0
C525 C 0.16658 0.33637 0.86232 0.0
H526 H 0.13879 0.35651 0.82084 0.0
C527 C 0.16016 0.37524 0.70178 0.0
C528 C 0.17791 0.38741 0.69334 0.0
C529 C 0.15526 0.36479 0.73942 0.0
C530 C 0.14669 0.35093 0.83171 0.0
H531 H 0.14048 0.28069 0.9545 0.0
H532 H 0.15297 0.30214 0.89502 0.0
H533 H 0.12832 0.33622 0.8822 0.0
H534 H 0.20446 0.3982 0.71826 0.0
H535 H 0.19581 0.38018 0.78488 0.0
H536 H 0.18452 0.35049 0.81008 0.0
C537 C 0.14607 0.30446 0.92132 0.0
C538 C 0.1408 0.33946 0.86749 0.0
C539 C 0.13881 0.29209 0.95527 0.0
C540 C 0.19067 0.38894 0.72374 0.0
C541 C 0.18571 0.37853 0.76178 0.0
C542 C 0.1724 0.34774 0.8261 0.0
C543 C 0.14388 0.31928 0.92062 0.0
C544 C 0.15061 0.33194 0.88322 0.0
C545 C 0.16793 0.36632 0.77005 0.0
C546 C 0.16242 0.35503 0.81008 0.0
H547 H 0.11989 0.31122 0.01451 0.0
H548 H 0.13297 0.33299 0.95647 0.0
H549 H 0.17461 0.33103 0.87385 0.0
H550 H 0.14998 0.37354 0.67891 0.0
H551 H 0.14149 0.35527 0.74406 0.0
C552 C 0.62383 0.78221 0.71196 0.0
C553 C 0.61733 0.79228 0.69213 0.0
C554 C 0.63495 0.78861 0.74839 0.0
C555 C 0.66672 0.82933 0.803 0.0
H556 H 0.65981 0.79858 0.90175 0.0
C557 C 0.71069 0.85278 0.95921 0.0
C558 C 0.71493 0.8408 0.97832 0.0
C559 C 0.69844 0.84752 0.92492 0.0
C560 C 0.66207 0.8073 0.87423 0.0
H561 H 0.6174 0.81698 0.69531 0.0
H562 H 0.63701 0.82822 0.75896 0.0
H563 H 0.63878 0.7881 0.8414 0.0
H564 H 0.71003 0.81404 0.97527 0.0
H565 H 0.68914 0.80505 0.91513 0.0
H566 H 0.69025 0.8484 0.8353 0.0
C567 C 0.63344 0.81537 0.7461 0.0
C568 C 0.64996 0.80129 0.83975 0.0
C569 C 0.62214 0.80887 0.70986 0.0
C570 C 0.70696 0.82358 0.96169 0.0
C571 C 0.69485 0.81837 0.92734 0.0
C572 C 0.67894 0.83532 0.83741 0.0
C573 C 0.63997 0.8053 0.76568 0.0
C574 C 0.65225 0.81216 0.80354 0.0
C575 C 0.69025 0.83018 0.90885 0.0
C576 C 0.67687 0.82428 0.87319 0.0
H577 H 0.62039 0.76937 0.69925 0.0
H578 H 0.63992 0.78063 0.7625 0.0
H579 H 0.66889 0.83795 0.7753 0.0
H580 H 0.71654 0.86614 0.9713 0.0
H581 H 0.69512 0.85693 0.91168 0.0
C582 C 0.17055 0.88403 0.94819 0.0
C583 C 0.15865 0.87255 0.97949 0.0
C584 C 0.17531 0.8775 0.91208 0.0
C585 C 0.16406 0.83569 0.85227 0.0
H586 H 0.21063 0.86539 0.8045 0.0
C587 C 0.18769 0.81608 0.69555 0.0
C588 C 0.20574 0.82274 0.68973 0.0
C589 C 0.18154 0.8215 0.73132 0.0
C590 C 0.1977 0.85667 0.81777 0.0
H591 H 0.14235 0.8453 0.99813 0.0
H592 H 0.15151 0.83381 0.93692 0.0
H593 H 0.20097 0.87562 0.86597 0.0
H594 H 0.23152 0.83947 0.71743 0.0
H595 H 0.22091 0.84789 0.78155 0.0
H596 H 0.1614 0.81616 0.80621 0.0
C597 C 0.15667 0.84784 0.93872 0.0
C598 C 0.19192 0.86278 0.85269 0.0
C599 C 0.15147 0.85439 0.97409 0.0
C600 C 0.21753 0.83434 0.72105 0.0
C601 C 0.21139 0.8393 0.75756 0.0
C602 C 0.17006 0.82934 0.81814 0.0
C603 C 0.16878 0.85932 0.90725 0.0
C604 C 0.17494 0.8525 0.87025 0.0
C605 C 0.19332 0.83332 0.7628 0.0
C606 C 0.18695 0.83978 0.8001 0.0
H607 H 0.17609 0.89811 0.95147 0.0
H608 H 0.18414 0.88682 0.88806 0.0
H609 H 0.15081 0.82738 0.86416 0.0
H610 H 0.17837 0.8072 0.6715 0.0
H611 H 0.1676 0.81677 0.73339 0.0
C612 C 0.36191 0.15791 0.32109 0.0
C613 C 0.37574 0.17533 0.32508 0.0
C614 C 0.35043 0.15282 0.28534 0.0
C615 C 0.33522 0.17014 0.19409 0.0
H616 H 0.3204 0.12429 0.14376 0.0
C617 C 0.30028 0.12691 0.02733 0.0
C618 C 0.28638 0.1303 0.02159 0.0
C619 C 0.31096 0.13296 0.06453 0.0
C620 C 0.32452 0.13721 0.15709 0.0
H621 H 0.38822 0.20112 0.29471 0.0
H622 H 0.36847 0.19212 0.23161 0.0
H623 H 0.33961 0.13398 0.20739 0.0
H624 H 0.27296 0.14293 0.05045 0.0
H625 H 0.29142 0.15319 0.11618 0.0
H626 H 0.32059 0.17356 0.1425 0.0
C627 C 0.36628 0.18246 0.25662 0.0
C628 C 0.33535 0.14267 0.19409 0.0
C629 C 0.37769 0.1876 0.29269 0.0
C630 C 0.28356 0.14011 0.05383 0.0
C631 C 0.29421 0.14606 0.09139 0.0
C632 C 0.32444 0.1647 0.15678 0.0
C633 C 0.35258 0.16496 0.25234 0.0
C634 C 0.34087 0.15921 0.21311 0.0
C635 C 0.30795 0.14242 0.09733 0.0
C636 C 0.31903 0.14819 0.13769 0.0
H637 H 0.35987 0.14815 0.34569 0.0
H638 H 0.33982 0.13933 0.28367 0.0
H639 H 0.33905 0.18288 0.20815 0.0
H640 H 0.303 0.11959 0.00293 0.0
H641 H 0.32167 0.13026 0.06742 0.0
C642 C 0.8567 0.14782 0.06253 0.0
C643 C 0.86644 0.16016 0.02967 0.0
C644 C 0.85059 0.15279 0.09934 0.0
C645 C 0.85873 0.19251 0.16178 0.0
H646 H 0.81343 0.16113 0.21428 0.0
C647 C 0.80813 0.19473 0.29841 0.0
C648 C 0.82046 0.20537 0.33035 0.0
C649 C 0.81334 0.18865 0.26204 0.0
C650 C 0.82605 0.17012 0.19977 0.0
H651 H 0.87689 0.18725 0.00912 0.0
H652 H 0.86593 0.19571 0.07224 0.0
H653 H 0.82294 0.15168 0.14953 0.0
H654 H 0.84786 0.21754 0.34963 0.0
H655 H 0.85679 0.20664 0.28717 0.0
H656 H 0.86164 0.21118 0.21077 0.0
C657 C 0.86341 0.18234 0.07048 0.0
C658 C 0.83161 0.1646 0.16298 0.0
C659 C 0.86963 0.17744 0.03404 0.0
C660 C 0.83803 0.20956 0.32542 0.0
C661 C 0.84319 0.20336 0.28939 0.0
C662 C 0.85313 0.19805 0.19824 0.0
C663 C 0.85398 0.17016 0.10389 0.0
C664 C 0.84802 0.17576 0.14345 0.0
C665 C 0.83097 0.19296 0.25699 0.0
C666 C 0.83674 0.18694 0.21784 0.0
H667 H 0.85403 0.13441 0.06021 0.0
H668 H 0.84352 0.1431 0.12463 0.0
H669 H 0.87156 0.20138 0.14813 0.0
H670 H 0.79449 0.19128 0.30115 0.0
H671 H 0.80361 0.18085 0.2375 0.0
C672 C 0.85078 0.70563 0.03961 0.0
C673 C 0.83882 0.70987 0.02036 0.0
C674 C 0.8456 0.6937 0.07461 0.0
C675 C 0.80555 0.65838 0.12918 0.0
H676 H 0.83747 0.66575 0.22544 0.0
C677 C 0.78271 0.62176 0.29463 0.0
C678 C 0.79281 0.615 0.31287 0.0
C679 C 0.78862 0.63265 0.25767 0.0
C680 C 0.82849 0.66343 0.19853 0.0
H681 H 0.81217 0.70523 0.02369 0.0
H682 H 0.80334 0.68493 0.08522 0.0
H683 H 0.84734 0.68643 0.16402 0.0
H684 H 0.81709 0.6144 0.30642 0.0
H685 H 0.82751 0.63365 0.24197 0.0
H686 H 0.78658 0.63565 0.16439 0.0
C687 C 0.81657 0.69037 0.07258 0.0
C688 C 0.83414 0.67526 0.16326 0.0
C689 C 0.82169 0.70214 0.03741 0.0
C690 C 0.80896 0.61935 0.29314 0.0
C691 C 0.81499 0.63044 0.25642 0.0
C692 C 0.79987 0.64669 0.1646 0.0
C693 C 0.82839 0.68585 0.09141 0.0
C694 C 0.82268 0.67297 0.12829 0.0
C695 C 0.80486 0.6372 0.23833 0.0
C696 C 0.81123 0.64916 0.19979 0.0
H697 H 0.86406 0.71127 0.02714 0.0
H698 H 0.85501 0.69039 0.08792 0.0
H699 H 0.79649 0.65594 0.1024 0.0
H700 H 0.77019 0.61865 0.30891 0.0
H701 H 0.78061 0.63779 0.24469 0.0
C702 C 0.96069 0.47393 0.35306 0.0
C703 C 0.94959 0.45574 0.34835 0.0
C704 C 0.97277 0.48064 0.38771 0.0
C705 C 0.99395 0.46617 0.47231 0.0
H706 H 0.0101 0.51283 0.51862 0.0
C707 C 0.04935 0.49545 0.60027 0.0
C708 C 0.04923 0.50689 0.6322 0.0
C709 C 0.03788 0.49033 0.56449 0.0
C710 C 0.00559 0.49966 0.5067 0.0
H711 H 0.94168 0.43033 0.37706 0.0
H712 H 0.9617 0.44191 0.43912 0.0
H713 H 0.98779 0.50133 0.46182 0.0
H714 H 0.03715 0.52204 0.6521 0.0
H715 H 0.01625 0.51224 0.59138 0.0
H716 H 0.01063 0.46387 0.51928 0.0
C717 C 0.96195 0.45111 0.41506 0.0
C718 C 0.99294 0.49314 0.47326 0.0
C719 C 0.95028 0.44441 0.3797 0.0
C720 C 0.03755 0.51328 0.62762 0.0
C721 C 0.02565 0.50772 0.59253 0.0
C722 C 0.00618 0.47247 0.50648 0.0
C723 C 0.97367 0.46931 0.41916 0.0
C724 C 0.98697 0.4763 0.45539 0.0
C725 C 0.02553 0.49602 0.56055 0.0
C726 C 0.01234 0.48937 0.52405 0.0
H727 H 0.96047 0.48293 0.32902 0.0
H728 H 0.98168 0.49467 0.38898 0.0
H729 H 0.99011 0.45332 0.45906 0.0
H730 H 0.05843 0.49054 0.60284 0.0
H731 H 0.03874 0.48184 0.54004 0.0
C732 C 0.4844 0.52261 0.64256 0.0
C733 C 0.49205 0.54086 0.64752 0.0
C734 C 0.48958 0.51564 0.60807 0.0
C735 C 0.52578 0.52927 0.52547 0.0
H736 H 0.49482 0.4828 0.47865 0.0
C737 C 0.55198 0.49922 0.40012 0.0
C738 C 0.54061 0.48817 0.36736 0.0
C739 C 0.54547 0.50426 0.43574 0.0
C740 C 0.50362 0.49591 0.49075 0.0
H741 H 0.51027 0.56613 0.61924 0.0
H742 H 0.51837 0.55413 0.55737 0.0
H743 H 0.48397 0.49482 0.53411 0.0
H744 H 0.51356 0.47355 0.3459 0.0
H745 H 0.50219 0.4832 0.40641 0.0
H746 H 0.54499 0.53101 0.48 0.0
C747 C 0.50913 0.54506 0.58117 0.0
C748 C 0.49746 0.50273 0.52339 0.0
C749 C 0.50436 0.552 0.61639 0.0
C750 C 0.52255 0.48197 0.3711 0.0
C751 C 0.51606 0.48747 0.40603 0.0
C752 C 0.53177 0.52268 0.4921 0.0
C753 C 0.50217 0.52678 0.57703 0.0
C754 C 0.50847 0.5195 0.54143 0.0
C755 C 0.52747 0.49891 0.43863 0.0
C756 C 0.52087 0.50583 0.4744 0.0
H757 H 0.47496 0.51375 0.66641 0.0
H758 H 0.48406 0.50155 0.60673 0.0
H759 H 0.53492 0.54204 0.5389 0.0
H760 H 0.56596 0.504 0.3981 0.0
H761 H 0.55467 0.51251 0.46072 0.0
C762 C 0.45366 0.96438 0.64693 0.0
C763 C 0.45802 0.95115 0.65262 0.0
C764 C 0.45966 0.97543 0.61032 0.0
C765 C 0.4645 0.98986 0.51847 0.0
H766 H 0.51097 0.00651 0.46993 0.0
C767 C 0.48504 0.02774 0.35528 0.0
C768 C 0.50222 0.04205 0.35172 0.0
C769 C 0.48018 0.01626 0.39098 0.0
C770 C 0.49801 0.0021 0.4833 0.0
H771 H 0.47221 0.93922 0.62424 0.0
H772 H 0.48231 0.95826 0.55958 0.0
H773 H 0.50175 0.98774 0.53503 0.0
H774 H 0.52786 0.05538 0.38274 0.0
H775 H 0.51924 0.0356 0.44589 0.0
H776 H 0.46093 0.00469 0.46805 0.0
C777 C 0.47452 0.9603 0.58395 0.0
C778 C 0.49263 0.99114 0.5203 0.0
C779 C 0.46864 0.94931 0.6209 0.0
C780 C 0.51452 0.04446 0.38447 0.0
C781 C 0.5096 0.03305 0.42055 0.0
C782 C 0.46991 0.0009 0.48181 0.0
C783 C 0.47001 0.97344 0.57811 0.0
C784 C 0.47581 0.98492 0.5384 0.0
C785 C 0.49231 0.01889 0.42443 0.0
C786 C 0.48671 0.00714 0.46363 0.0
H787 H 0.44569 0.96633 0.67095 0.0
H788 H 0.45624 0.98565 0.6075 0.0
H789 H 0.45136 0.98513 0.531 0.0
H790 H 0.47528 0.02534 0.33035 0.0
H791 H 0.46688 0.00527 0.39226 0.0
C792 C 0.17091 0.24693 0.97151 0.0
C793 C 0.16451 0.24508 0.0147 0.0
C794 C 0.18221 0.24066 0.96017 0.0
C795 C 0.20863 0.22167 0.0063 0.0
H796 H 0.19418 0.19441 0.89857 0.0
C797 C 0.23608 0.17655 0.95142 0.0
C798 C 0.22336 0.15996 0.93562 0.0
C799 C 0.23178 0.1897 0.95863 0.0
C800 C 0.19839 0.20195 0.92877 0.0
H801 H 0.16588 0.23628 0.08054 0.0
H802 H 0.18509 0.22493 0.06062 0.0
H803 H 0.18227 0.21327 0.91655 0.0
H804 H 0.19613 0.14411 0.9155 0.0
H805 H 0.18863 0.16676 0.92866 0.0
H806 H 0.22394 0.20939 0.01958 0.0
C807 C 0.18167 0.23144 0.0355 0.0
C808 C 0.19175 0.21301 0.93881 0.0
C809 C 0.17052 0.23785 0.0469 0.0
C810 C 0.20629 0.15677 0.9274 0.0
C811 C 0.20201 0.16983 0.93461 0.0
C812 C 0.21521 0.21049 0.99632 0.0
C813 C 0.18721 0.23226 0.99169 0.0
C814 C 0.19643 0.22268 0.97824 0.0
C815 C 0.2147 0.18649 0.95007 0.0
C816 C 0.20974 0.20013 0.95805 0.0
H817 H 0.16672 0.25266 0.94605 0.0
H818 H 0.18654 0.24188 0.92634 0.0
H819 H 0.21273 0.22913 0.03661 0.0
H820 H 0.24936 0.17941 0.95801 0.0
H821 H 0.24186 0.20243 0.97041 0.0
C822 C 0.81659 0.05756 0.89166 0.0
C823 C 0.8255 0.06936 0.92616 0.0
C824 C 0.80505 0.03982 0.90038 0.0
C825 C 0.78028 0.00754 0.98846 0.0
H826 H 0.78917 0.97636 0.91652 0.0
C827 C 0.76229 0.93748 0.04212 0.0
C828 C 0.758 0.92457 0.00964 0.0
C829 C 0.76706 0.95467 0.03035 0.0
C830 C 0.78618 0.98477 0.9364 0.0
H831 H 0.82846 0.07196 0.9971 0.0
H832 H 0.80841 0.04092 0.01228 0.0
H833 H 0.80361 0.00742 0.89888 0.0
H834 H 0.75413 0.91927 0.9396 0.0
H835 H 0.76208 0.94915 0.91915 0.0
H836 H 0.76309 0.98482 0.02654 0.0
C837 C 0.81029 0.04542 0.97848 0.0
C838 C 0.79451 0.00263 0.92629 0.0
C839 C 0.82186 0.0632 0.96976 0.0
C840 C 0.75758 0.92896 0.96538 0.0
C841 C 0.76223 0.94613 0.95364 0.0
C842 C 0.77186 0.9896 0.9985 0.0
C843 C 0.80213 0.03346 0.94379 0.0
C844 C 0.79187 0.01427 0.95254 0.0
C845 C 0.76753 0.95931 0.98586 0.0
C846 C 0.77493 0.97804 0.97297 0.0
H847 H 0.81895 0.0619 0.85771 0.0
H848 H 0.79872 0.03097 0.87299 0.0
H849 H 0.77784 0.01616 0.00901 0.0
H850 H 0.76272 0.93452 0.07655 0.0
H851 H 0.77121 0.9645 0.05603 0.0
C852 C 0.94704 0.77535 0.90838 0.0
C853 C 0.93173 0.76266 0.92964 0.0
C854 C 0.96357 0.77998 0.9252 0.0
C855 C 0.98444 0.78054 0.03056 0.0
H856 H 0.02604 0.79971 0.95713 0.0
C857 C 0.06567 0.82267 0.04293 0.0
C858 C 0.06714 0.83496 0.07472 0.0
C859 C 0.04916 0.80981 0.02774 0.0
C860 C 0.0146 0.79411 0.97831 0.0
H861 H 0.92174 0.74398 0.98351 0.0
H862 H 0.95065 0.75175 0.01233 0.0
H863 H 0.99717 0.78351 0.92341 0.0
H864 H 0.0524 0.84293 0.11672 0.0
H865 H 0.02381 0.82097 0.08956 0.0
H866 H 0.00186 0.79104 0.08548 0.0
C867 C 0.94988 0.75848 0.98329 0.0
C868 C 0.998 0.78502 0.95884 0.0
C869 C 0.9333 0.75395 0.96664 0.0
C870 C 0.05176 0.83368 0.09221 0.0
C871 C 0.0353 0.82094 0.07683 0.0
C872 C 0.00104 0.78946 0.05006 0.0
C873 C 0.96521 0.7719 0.96346 0.0
C874 C 0.98271 0.77869 0.98456 0.0
C875 C 0.03378 0.80903 0.04383 0.0
C876 C 0.01632 0.79693 0.02405 0.0
H877 H 0.94631 0.78231 0.87978 0.0
H878 H 0.97501 0.79054 0.90932 0.0
H879 H 0.97301 0.77594 0.0515 0.0
H880 H 0.07729 0.82322 0.02907 0.0
H881 H 0.04847 0.80067 0.00282 0.0
C882 C 0.83857 0.77655 0.93183 0.0
C883 C 0.85376 0.77943 0.95431 0.0
C884 C 0.8303 0.78607 0.94281 0.0
C885 C 0.82641 0.81247 0.0319 0.0
H886 H 0.80829 0.82922 0.93884 0.0
C887 C 0.78122 0.84067 0.06814 0.0
C888 C 0.78394 0.85555 0.04441 0.0
C889 C 0.79001 0.83174 0.05653 0.0
C890 C 0.81342 0.82477 0.96518 0.0
H891 H 0.87215 0.79457 0.00603 0.0
H892 H 0.8578 0.81131 0.02494 0.0
H893 H 0.82333 0.81311 0.9201 0.0
H894 H 0.79808 0.87277 0.98985 0.0
H895 H 0.81363 0.85721 0.96972 0.0
H896 H 0.81678 0.82437 0.07695 0.0
C897 C 0.85215 0.80152 -0.00081 0.0
C898 C 0.82184 0.81535 0.95448 0.0
C899 C 0.86042 0.79197 0.98823 0.0
C900 C 0.79565 0.8613 0.00867 0.0
C901 C 0.80449 0.85234 0.99702 0.0
C902 C 0.818 0.82188 0.04259 0.0
C903 C 0.83705 0.79874 0.97645 0.0
C904 C 0.82835 0.80901 0.98774 0.0
C905 C 0.80182 0.83751 0.02101 0.0
C906 C 0.81129 0.82804 0.00938 0.0
H907 H 0.83315 0.76706 0.90537 0.0
H908 H 0.81854 0.78344 0.92508 0.0
H909 H 0.83114 0.80765 0.05833 0.0
H910 H 0.77242 0.83596 0.0961 0.0
H911 H 0.78745 0.82022 0.0753 0.0
C912 C 0.14072 0.93352 0.00904 0.0
C913 C 0.14718 0.9278 0.0438 0.0
C914 C 0.14985 0.95105 0.9953 0.0
C915 C 0.19341 0.99123 0.99846 0.0
H916 H 0.16703 0.01522 0.97973 0.0
C917 C 0.20623 0.06625 0.98161 0.0
C918 C 0.21972 0.07324 0.95006 0.0
C919 C 0.19764 0.04837 0.9919 0.0
C920 C 0.17458 0.00872 0.98503 0.0
H921 H 0.16826 0.93605 0.0914 0.0
H922 H 0.18417 0.9665 0.06724 0.0
H923 H 0.15154 0.98409 -0.00111 0.0
H924 H 0.23484 0.06692 0.90472 0.0
H925 H 0.21992 0.03573 0.92299 0.0
H926 H 0.21648 0.01595 0.98528 0.0
C927 C 0.17218 0.9574 0.05028 0.0
C928 C 0.16569 0.99085 0.99549 0.0
C929 C 0.16302 0.93993 0.06417 0.0
C930 C 0.22461 0.062 0.92946 0.0
C931 C 0.21608 0.04413 0.93994 0.0
C932 C 0.20229 0.00908 0.98772 0.0
C933 C 0.16564 0.96319 0.01591 0.0
C934 C 0.17502 0.98195 0.00267 0.0
C935 C 0.2024 0.0371 0.97098 0.0
C936 C 0.19298 0.01805 0.98127 0.0
H937 H 0.12855 0.9245 0.99266 0.0
H938 H 0.14457 0.95511 0.96845 0.0
H939 H 0.20094 0.98468 0.00344 0.0
H940 H 0.20215 0.07454 0.99811 0.0
H941 H 0.18731 0.04337 0.01641 0.0
C942 C 0.93089 0.1432 0.98865 0.0
C943 C 0.92352 0.1495 0.9576 0.0
C944 C 0.94892 0.15249 0.99728 0.0
C945 C 0.98808 0.1964 0.98924 0.0
H946 H 0.01349 0.17097 0.99802 0.0
C947 C 0.05815 0.22704 0.05966 0.0
C948 C 0.07011 0.22335 0.03825 0.0
C949 C 0.04054 0.21859 0.04702 0.0
C950 C 0.0066 0.17826 0.99526 0.0
H951 H 0.92935 0.17052 0.91128 0.0
H952 H 0.96072 0.1868 0.92674 0.0
H953 H 0.98203 0.155 0.98222 0.0
H954 H 0.07298 0.20798 0.98645 0.0
H955 H 0.04209 0.19313 0.96446 0.0
H956 H 0.01264 0.21966 0.00231 0.0
C957 C 0.95253 0.17474 0.94461 0.0
C958 C 0.98857 0.1691 0.98674 0.0
C959 C 0.93454 0.16539 0.93577 0.0
C960 C 0.0641 0.21113 0.00357 0.0
C961 C 0.04641 0.20257 0.99112 0.0
C962 C 0.00608 0.20554 0.99806 0.0
C963 C 0.95993 0.16832 0.97521 0.0
C964 C 0.97911 0.17807 0.98383 0.0
C965 C 0.03444 0.20615 0.01292 0.0
C966 C 0.01551 0.19656 0.00136 0.0
H967 H 0.92277 0.13098 0.006 0.0
H968 H 0.95423 0.14734 0.02143 0.0
H969 H 0.98112 0.20365 0.98742 0.0
H970 H 0.06224 0.23617 0.08689 0.0
H971 H 0.03158 0.22144 0.06486 0.0
C972 C 0.84589 0.57483 0.36713 0.0
C973 C 0.83532 0.56493 0.40265 0.0
C974 C 0.85838 0.57117 0.34928 0.0
C975 C 0.88083 0.54508 0.36842 0.0
H976 H 0.88042 0.54265 0.24104 0.0
C977 C 0.88766 0.49995 0.22826 0.0
C978 C 0.90122 0.4979 0.24637 0.0
C979 C 0.88408 0.51265 0.24471 0.0
C980 C 0.88071 0.54325 0.27664 0.0
H981 H 0.83013 0.54396 0.44852 0.0
H982 H 0.8514 0.53726 0.41686 0.0
H983 H 0.86569 0.55625 0.27777 0.0
H984 H 0.92252 0.50845 0.29374 0.0
H985 H 0.91654 0.53096 0.3218 0.0
H986 H 0.89463 0.53084 0.36744 0.0
C987 C 0.8504 0.5481 0.40314 0.0
C988 C 0.87246 0.5513 0.29777 0.0
C989 C 0.83804 0.55184 0.42114 0.0
C990 C 0.91185 0.50958 0.27941 0.0
C991 C 0.90835 0.52241 0.29566 0.0
C992 C 0.8889 0.53685 0.34731 0.0
C993 C 0.86049 0.55746 0.3664 0.0
C994 C 0.87189 0.55178 0.344 0.0
C995 C 0.89408 0.52376 0.27941 0.0
C996 C 0.88841 0.53529 0.30119 0.0
H997 H 0.84422 0.58512 0.35239 0.0
H998 H 0.86613 0.57885 0.32149 0.0
H999 H 0.88101 0.54557 0.40404 0.0
H1000 H 0.87923 0.4912 0.20272 0.0
H1001 H 0.87283 0.51308 0.23168 0.0
C1002 C 0.48996 0.39597 0.28919 0.0
C1003 C 0.49509 0.40188 0.2458 0.0
C1004 C 0.47753 0.37842 0.29755 0.0
C1005 C 0.46183 0.3352 0.24847 0.0
H1006 H 0.42858 0.31909 0.34513 0.0
C1007 C 0.42409 0.26228 0.29594 0.0
C1008 C 0.42395 0.25882 0.34113 0.0
C1009 C 0.42889 0.27916 0.28124 0.0
C1010 C 0.43784 0.32339 0.31808 0.0
H1011 H 0.49029 0.39427 0.17704 0.0
H1012 H 0.46853 0.36366 0.1917 0.0
H1013 H 0.44395 0.35015 0.32466 0.0
H1014 H 0.42786 0.27016 0.40645 0.0
H1015 H 0.43659 0.29963 0.38083 0.0
H1016 H 0.45637 0.30873 0.24283 0.0
C1017 C 0.47434 0.37255 0.21925 0.0
C1018 C 0.44661 0.34116 0.30633 0.0
C1019 C 0.48676 0.39011 0.21088 0.0
C1020 C 0.42787 0.27239 0.37139 0.0
C1021 C 0.43277 0.28929 0.35667 0.0
C1022 C 0.45313 0.31748 0.26027 0.0
C1023 C 0.46996 0.3664 0.26272 0.0
C1024 C 0.45895 0.34731 0.27192 0.0
C1025 C 0.43375 0.29298 0.31138 0.0
C1026 C 0.44129 0.31141 0.29577 0.0
H1027 H 0.49607 0.40472 0.31686 0.0
H1028 H 0.47455 0.37409 0.33143 0.0
H1029 H 0.47147 0.33953 0.22228 0.0
H1030 H 0.42094 0.25206 0.27179 0.0
H1031 H 0.42918 0.28147 0.24615 0.0
C1032 C 0.60744 0.10256 0.22447 0.0
C1033 C 0.59359 0.09454 0.25489 0.0
C1034 C 0.62461 0.10765 0.23702 0.0
C1035 C 0.65196 0.12068 0.33636 0.0
H1036 H 0.68714 0.12212 0.25675 0.0
C1037 C 0.72462 0.15543 0.38581 0.0
C1038 C 0.73612 0.16746 0.35449 0.0
C1039 C 0.70747 0.14291 0.37413 0.0
C1040 C 0.67745 0.1218 0.27934 0.0
H1041 H 0.58673 0.08454 0.32154 0.0
H1042 H 0.61669 0.09318 0.34325 0.0
H1043 H 0.6562 0.10623 0.23543 0.0
H1044 H 0.73896 0.17508 0.28573 0.0
H1045 H 0.709 0.15339 0.2655 0.0
H1046 H 0.67315 0.13663 0.37971 0.0
C1047 C 0.61432 0.09589 0.30995 0.0
C1048 C 0.65974 0.11272 0.26714 0.0
C1049 C 0.59714 0.09086 0.29745 0.0
C1050 C 0.73041 0.16607 0.31071 0.0
C1051 C 0.71326 0.15354 0.29903 0.0
C1052 C 0.66962 0.1297 0.34858 0.0
C1053 C 0.62832 0.10476 0.28023 0.0
C1054 C 0.64683 0.11238 0.29513 0.0
C1055 C 0.70146 0.14214 0.33087 0.0
C1056 C 0.6826 0.13068 0.31985 0.0
H1057 H 0.60515 0.10554 0.19138 0.0
H1058 H 0.63508 0.11461 0.2134 0.0
H1059 H 0.64243 0.12097 0.35844 0.0
H1060 H 0.72866 0.15604 0.41974 0.0
H1061 H 0.69876 0.13412 0.39924 0.0
C1062 C 0.49761 0.10679 0.27021 0.0
C1063 C 0.51313 0.11048 0.2923 0.0
C1064 C 0.48826 0.1151 0.28255 0.0
C1065 C 0.48264 0.14001 0.3732 0.0
H1066 H 0.46464 0.15703 0.28049 0.0
C1067 C 0.43999 0.17141 0.41032 0.0
C1068 C 0.44364 0.18648 0.38608 0.0
C1069 C 0.44763 0.16136 0.39867 0.0
C1070 C 0.46967 0.15245 0.30676 0.0
H1071 H 0.53089 0.12566 0.34505 0.0
H1072 H 0.51471 0.14034 0.36622 0.0
H1073 H 0.47971 0.14102 0.26141 0.0
H1074 H 0.45814 0.2028 0.33049 0.0
H1075 H 0.47165 0.18538 0.31049 0.0
H1076 H 0.47305 0.15189 0.4185 0.0
C1077 C 0.50962 0.13082 0.33974 0.0
C1078 C 0.47812 0.14308 0.29585 0.0
C1079 C 0.51896 0.12248 0.32743 0.0
C1080 C 0.455 0.19122 0.34974 0.0
C1081 C 0.46266 0.18117 0.33812 0.0
C1082 C 0.47419 0.14939 0.38411 0.0
C1083 C 0.49425 0.12735 0.31718 0.0
C1084 C 0.48477 0.13682 0.32893 0.0
C1085 C 0.45914 0.16617 0.36259 0.0
C1086 C 0.46769 0.15579 0.351 0.0
H1087 H 0.49279 0.09767 0.2429 0.0
H1088 H 0.47634 0.11195 0.26488 0.0
H1089 H 0.48746 0.13522 0.39948 0.0
H1090 H 0.43138 0.16745 0.43865 0.0
H1091 H 0.44448 0.14977 0.41789 0.0
C1092 C 0.82203 0.27181 0.42092 0.0
C1093 C 0.80628 0.26019 0.39932 0.0
C1094 C 0.83109 0.28965 0.41017 0.0
C1095 C 0.82545 0.32463 0.35997 0.0
H1096 H 0.87572 0.3475 0.34046 0.0
C1097 C 0.88292 0.39005 0.26955 0.0
C1098 C 0.88055 0.40339 0.28797 0.0
C1099 C 0.87401 0.37304 0.28651 0.0
C1100 C 0.86169 0.34129 0.34585 0.0
H1101 H 0.7876 0.25825 0.34986 0.0
H1102 H 0.80345 0.28943 0.33112 0.0
H1103 H 0.8597 0.31677 0.36328 0.0
H1104 H 0.86671 0.40923 0.33826 0.0
H1105 H 0.85092 0.37928 0.3677 0.0
H1106 H 0.82744 0.34913 0.34174 0.0
C1107 C 0.80872 0.28471 0.3565 0.0
C1108 C 0.85255 0.32375 0.35923 0.0
C1109 C 0.79972 0.26684 0.36701 0.0
C1110 C 0.86886 0.39926 0.32345 0.0
C1111 C 0.85979 0.38213 0.34021 0.0
C1112 C 0.83463 0.34225 0.34693 0.0
C1113 C 0.82452 0.29629 0.37789 0.0
C1114 C 0.8343 0.31517 0.36588 0.0
C1115 C 0.86237 0.36889 0.322 0.0
C1116 C 0.8528 0.35066 0.33913 0.0
H1117 H 0.82733 0.26718 0.44638 0.0
H1118 H 0.84314 0.29831 0.42752 0.0
H1119 H 0.81141 0.3184 0.36532 0.0
H1120 H 0.89153 0.39264 0.24166 0.0
H1121 H 0.87601 0.36303 0.27126 0.0
C1122 C 0.6002 0.46761 0.32757 0.0
C1123 C 0.59473 0.47508 0.29471 0.0
C1124 C 0.6178 0.476 0.34089 0.0
C1125 C 0.65794 0.51941 0.34243 0.0
H1126 H 0.68239 0.49318 0.35509 0.0
C1127 C 0.73353 0.53404 0.35667 0.0
C1128 C 0.74 0.54715 0.38925 0.0
C1129 C 0.7156 0.52476 0.34672 0.0
C1130 C 0.67573 0.50067 0.3515 0.0
H1131 H 0.60354 0.497 0.24939 0.0
H1132 H 0.63399 0.51163 0.27294 0.0
H1133 H 0.65124 0.47777 0.33525 0.0
H1134 H 0.73265 0.56054 0.4375 0.0
H1135 H 0.7015 0.54451 0.41984 0.0
H1136 H 0.6824 0.54233 0.35796 0.0
C1137 C 0.62469 0.49944 0.28886 0.0
C1138 C 0.65788 0.49183 0.34063 0.0
C1139 C 0.6072 0.49103 0.27538 0.0
C1140 C 0.72817 0.55073 0.41175 0.0
C1141 C 0.71029 0.54153 0.40166 0.0
C1142 C 0.67572 0.52821 0.35355 0.0
C1143 C 0.63019 0.49205 0.32177 0.0
C1144 C 0.64886 0.50115 0.3356 0.0
C1145 C 0.70381 0.52847 0.36902 0.0
C1146 C 0.68484 0.51896 0.35794 0.0
H1147 H 0.59092 0.45529 0.34296 0.0
H1148 H 0.62168 0.47005 0.3665 0.0
H1149 H 0.65129 0.52692 0.33916 0.0
H1150 H 0.7423 0.53094 0.33884 0.0
H1151 H 0.71099 0.51488 0.3211 0.0
C1152 C 0.55629 0.83762 0.57064 0.0
C1153 C 0.56925 0.83517 0.59094 0.0
C1154 C 0.55202 0.84979 0.58738 0.0
C1155 C 0.55317 0.87122 0.69227 0.0
H1156 H 0.53224 0.89235 0.6204 0.0
C1157 C 0.50982 0.90897 0.7079 0.0
C1158 C 0.49823 0.89832 0.74106 0.0
C1159 C 0.52272 0.90558 0.69161 0.0
C1160 C 0.53835 0.88689 0.64112 0.0
H1161 H 0.58883 0.84449 0.64277 0.0
H1162 H 0.58168 0.8661 0.67139 0.0
H1163 H 0.54822 0.87971 0.58535 0.0
H1164 H 0.4915 0.8762 0.78428 0.0
H1165 H 0.51348 0.86997 0.7552 0.0
H1166 H 0.54341 0.8785 0.74805 0.0
C1167 C 0.57446 0.85825 0.64324 0.0
C1168 C 0.54731 0.8794 0.62091 0.0
C1169 C 0.57863 0.84593 0.62669 0.0
C1170 C 0.50022 0.88466 0.75874 0.0
C1171 C 0.51298 0.88119 0.74225 0.0
C1172 C 0.5444 0.8789 0.7125 0.0
C1173 C 0.56073 0.85996 0.62459 0.0
C1174 C 0.55424 0.87085 0.64613 0.0
C1175 C 0.5242 0.89139 0.70794 0.0
C1176 C 0.53626 0.88621 0.68711 0.0
H1177 H 0.54883 0.82956 0.54299 0.0
H1178 H 0.54122 0.8505 0.57243 0.0
H1179 H 0.55825 0.86473 0.71288 0.0
H1180 H 0.50871 0.91971 0.69387 0.0
H1181 H 0.53132 0.91388 0.66568 0.0
C1182 C 0.15327 0.73046 0.62811 0.0
C1183 C 0.16423 0.73145 0.59322 0.0
C1184 C 0.14049 0.71415 0.64459 0.0
C1185 C 0.11805 0.66581 0.62239 0.0
H1186 H 0.11713 0.66248 0.74966 0.0
C1187 C 0.10965 0.61235 0.75975 0.0
C1188 C 0.09626 0.59695 0.74035 0.0
C1189 C 0.11341 0.62882 0.74429 0.0
C1190 C 0.11721 0.66316 0.71407 0.0
H1191 H 0.16982 0.71608 0.54694 0.0
H1192 H 0.14804 0.68781 0.57625 0.0
H1193 H 0.13234 0.69118 0.71479 0.0
H1194 H 0.07541 0.58675 0.69175 0.0
H1195 H 0.08169 0.61556 0.66541 0.0
H1196 H 0.10413 0.63777 0.62159 0.0
C1197 C 0.14897 0.69954 0.59053 0.0
C1198 C 0.12574 0.67967 0.694 0.0
C1199 C 0.16161 0.71581 0.57387 0.0
C1200 C 0.08595 0.59838 0.70707 0.0
C1201 C 0.08962 0.6149 0.6918 0.0
C1202 C 0.10969 0.6493 0.64245 0.0
C1203 C 0.13849 0.69848 0.62671 0.0
C1204 C 0.12679 0.68119 0.64786 0.0
C1205 C 0.10376 0.63032 0.70931 0.0
C1206 C 0.10969 0.64775 0.68853 0.0
H1207 H 0.15485 0.74229 0.64346 0.0
H1208 H 0.13245 0.71383 0.67197 0.0
H1209 H 0.11824 0.66648 0.5868 0.0
H1210 H 0.11784 0.61174 0.78552 0.0
H1211 H 0.12454 0.64033 0.75829 0.0
C1212 C 0.40027 0.48772 0.72645 0.0
C1213 C 0.40869 0.50128 0.69539 0.0
C1214 C 0.38273 0.47467 0.72061 0.0
C1215 C 0.34566 0.45713 0.63952 0.0
H1216 H 0.31726 0.44741 0.74459 0.0
C1217 C 0.2705 0.42343 0.627 0.0
C1218 C 0.26287 0.43123 0.65238 0.0
C1219 C 0.28771 0.42727 0.63521 0.0
C1220 C 0.32498 0.45 0.71488 0.0
H1221 H 0.40559 0.51123 0.63271 0.0
H1222 H 0.37505 0.48898 0.62322 0.0
H1223 H 0.34904 0.46308 0.75076 0.0
H1224 H 0.26701 0.44854 0.70755 0.0
H1225 H 0.29706 0.4557 0.72089 0.0
H1226 H 0.32166 0.44534 0.60327 0.0
C1227 C 0.38196 0.48809 0.6517 0.0
C1228 C 0.34326 0.45877 0.71848 0.0
C1229 C 0.39951 0.50099 0.65731 0.0
C1230 C 0.27249 0.44229 0.68739 0.0
C1231 C 0.28974 0.44629 0.69527 0.0
C1232 C 0.32739 0.44858 0.63586 0.0
C1233 C 0.37319 0.475 0.68379 0.0
C1234 C 0.35386 0.46297 0.68068 0.0
C1235 C 0.29773 0.43915 0.66867 0.0
C1236 C 0.31683 0.44542 0.67337 0.0
H1237 H 0.40707 0.48747 0.75594 0.0
H1238 H 0.37653 0.46459 0.74555 0.0
H1239 H 0.35338 0.45976 0.60979 0.0
H1240 H 0.26333 0.41468 0.60008 0.0
H1241 H 0.29329 0.42123 0.61464 0.0
C1242 C 0.20216 0.46974 0.63055 0.0
C1243 C 0.19336 0.45388 0.60688 0.0
C1244 C 0.19374 0.47927 0.64026 0.0
C1245 C 0.15105 0.47373 0.66191 0.0
H1246 H 0.16942 0.52195 0.62418 0.0
C1247 C 0.10986 0.50705 0.68306 0.0
C1248 C 0.11846 0.52487 0.6944 0.0
C1249 C 0.11947 0.49914 0.66982 0.0
C1250 C 0.16422 0.50859 0.63562 0.0
H1251 H 0.16892 0.4359 0.57412 0.0
H1252 H 0.15407 0.45212 0.59275 0.0
H1253 H 0.18585 0.5069 0.60813 0.0
H1254 H 0.14367 0.54867 0.6998 0.0
H1255 H 0.16068 0.53475 0.67863 0.0
H1256 H 0.12984 0.47534 0.69092 0.0
C1257 C 0.16751 0.45716 0.60348 0.0
C1258 C 0.17362 0.49999 0.62622 0.0
C1259 C 0.17602 0.44784 0.59298 0.0
C1260 C 0.13679 0.53487 0.69101 0.0
C1261 C 0.14649 0.52688 0.67872 0.0
C1262 C 0.14185 0.48238 0.67208 0.0
C1263 C 0.17628 0.47293 0.62718 0.0
C1264 C 0.16697 0.48243 0.63887 0.0
C1265 C 0.13796 0.50881 0.6687 0.0
C1266 C 0.14816 0.49986 0.65855 0.0
H1267 H 0.21558 0.47483 0.64142 0.0
H1268 H 0.20072 0.49141 0.65869 0.0
H1269 H 0.1458 0.46023 0.67241 0.0
H1270 H 0.09569 0.49918 0.68436 0.0
H1271 H 0.11235 0.48538 0.66084 0.0
C1272 C 0.47018 0.60003 0.68279 0.0
C1273 C 0.47738 0.59496 0.71719 0.0
C1274 C 0.478 0.61767 0.6701 0.0
C1275 C 0.50781 0.66258 0.71106 0.0
H1276 H 0.51405 0.67524 0.58747 0.0
C1277 C 0.53656 0.73436 0.65182 0.0
C1278 C 0.54899 0.73976 0.61772 0.0
C1279 C 0.52681 0.71664 0.66371 0.0
C1280 C 0.51245 0.67191 0.62212 0.0
H1281 H 0.49839 0.60444 0.76536 0.0
H1282 H 0.51212 0.63502 0.74285 0.0
H1283 H 0.49906 0.6443 0.60858 0.0
H1284 H 0.56081 0.73077 0.56906 0.0
H1285 H 0.54406 0.7 0.59025 0.0
H1286 H 0.52161 0.69017 0.72465 0.0
C1287 C 0.50034 0.62544 0.72595 0.0
C1288 C 0.5037 0.65419 0.63419 0.0
C1289 C 0.49256 0.60786 0.73852 0.0
C1290 C 0.55144 0.72708 0.5957 0.0
C1291 C 0.54169 0.7094 0.60752 0.0
C1292 C 0.51653 0.68029 0.699 0.0
C1293 C 0.49312 0.63057 0.69176 0.0
C1294 C 0.50148 0.64934 0.6788 0.0
C1295 C 0.52926 0.70396 0.64161 0.0
C1296 C 0.51913 0.68515 0.6544 0.0
H1297 H 0.45844 0.59039 0.66582 0.0
H1298 H 0.47206 0.62124 0.64384 0.0
H1299 H 0.5061 0.65926 0.74572 0.0
H1300 H 0.53431 0.74381 0.66927 0.0
H1301 H 0.51721 0.71283 0.68987 0.0
C1302 C 0.27144 0.82515 0.60092 0.0
C1303 C 0.2592 0.80931 0.62115 0.0
C1304 C 0.28892 0.83409 0.61466 0.0
C1305 C 0.32235 0.82756 0.6694 0.0
H1306 H 0.3466 0.8782 0.68372 0.0
C1307 C 0.39766 0.86956 0.68918 0.0
C1308 C 0.40388 0.88265 0.72179 0.0
C1309 C 0.37988 0.86054 0.67772 0.0
C1310 C 0.33998 0.86405 0.68009 0.0
H1311 H 0.25576 0.79035 0.67152 0.0
H1312 H 0.28642 0.80598 0.69542 0.0
H1313 H 0.31557 0.86248 0.66348 0.0
H1314 H 0.39626 0.89641 0.76819 0.0
H1315 H 0.36532 0.88081 0.74783 0.0
H1316 H 0.34677 0.82914 0.6861 0.0
C1317 C 0.28242 0.81144 0.66887 0.0
C1318 C 0.32227 0.85508 0.66817 0.0
C1319 C 0.26486 0.80254 0.65531 0.0
C1320 C 0.39196 0.88657 0.74255 0.0
C1321 C 0.37422 0.87763 0.73089 0.0
C1322 C 0.34011 0.83656 0.68102 0.0
C1323 C 0.29461 0.82732 0.6487 0.0
C1324 C 0.31328 0.83675 0.66259 0.0
C1325 C 0.36798 0.86448 0.69849 0.0
C1326 C 0.34911 0.8549 0.68641 0.0
H1327 H 0.26761 0.83061 0.57406 0.0
H1328 H 0.29808 0.84615 0.59804 0.0
H1329 H 0.3158 0.81345 0.66498 0.0
H1330 H 0.40649 0.86621 0.67259 0.0
H1331 H 0.37548 0.85059 0.65229 0.0
loop_
_geom_bond_atom_site_label_1
_geom_bond_atom_site_label_2
_geom_bond_distance
_geom_bond_site_symmetry_2
_ccdc_geom_bond_type
Mg0 O1 2.028 . S
Mg0 O7 1.986 . S
Mg0 O9 2.114 . S
Mg0 O10 2.251 . S
Mg0 O13 2.010 . S
O1 Mg0 2.028 . S
O1 C4 1.250 . S
O2 Mg3 2.028 . S
O2 C4 1.248 . S
Mg3 O2 2.028 . S
Mg3 O8 2.032 . S
Mg3 O10 2.079 . S
C4 O1 1.250 . S
C4 O2 1.248 . S
C5 O6 1.264 . S
C5 O13 1.249 . S
O6 C5 1.264 . S
O7 Mg0 1.986 . S
O7 C11 1.246 . S
O8 Mg3 2.032 . S
O8 C11 1.259 . S
O9 Mg0 2.114 . S
O9 C12 1.252 . S
O10 Mg0 2.251 . S
O10 Mg3 2.079 . S
O10 C12 1.273 . S
C11 O7 1.246 . S
C11 O8 1.259 . S
C12 O9 1.252 . S
C12 O10 1.273 . S
O13 Mg0 2.010 . S
O13 C5 1.249 . S
Mg14 O15 2.028 . S
Mg14 O21 1.986 . S
Mg14 O23 2.114 . S
Mg14 O24 2.251 . S
Mg14 O27 2.010 . S
O15 Mg14 2.028 . S
O15 C18 1.250 . S
O16 Mg17 2.028 . S
O16 C18 1.248 . S
Mg17 O16 2.028 . S
Mg17 O22 2.032 . S
Mg17 O24 2.079 . S
C18 O15 1.250 . S
C18 O16 1.248 . S
C19 O20 1.264 . S
C19 O27 1.249 . S
O20 C19 1.264 . S
O21 Mg14 1.986 . S
O21 C25 1.246 . S
O22 Mg17 2.032 . S
O22 C25 1.259 . S
O23 Mg14 2.114 . S
O23 C26 1.252 . S
O24 Mg14 2.251 . S
O24 Mg17 2.079 . S
O24 C26 1.273 . S
C25 O21 1.246 . S
C25 O22 1.259 . S
C26 O23 1.252 . S
C26 O24 1.273 . S
O27 Mg14 2.010 . S
O27 C19 1.249 . S
Mg28 O29 2.028 . S
Mg28 O35 1.986 . S
Mg28 O37 2.114 . S
Mg28 O38 2.251 . S
Mg28 O41 2.010 . S
O29 Mg28 2.028 . S
O29 C32 1.250 . S
O30 Mg31 2.028 . S
O30 C32 1.248 . S
Mg31 O30 2.028 . S
Mg31 O36 2.032 . S
Mg31 O38 2.079 . S
C32 O29 1.250 . S
C32 O30 1.248 . S
C33 O34 1.264 . S
C33 O41 1.249 . S
O34 C33 1.264 . S
O35 Mg28 1.986 . S
O35 C39 1.246 . S
O36 Mg31 2.032 . S
O36 C39 1.259 . S
O37 Mg28 2.114 . S
O37 C40 1.252 . S
O38 Mg28 2.251 . S
O38 Mg31 2.079 . S
O38 C40 1.273 . S
C39 O35 1.246 . S
C39 O36 1.259 . S
C40 O37 1.252 . S
C40 O38 1.273 . S
O41 Mg28 2.010 . S
O41 C33 1.249 . S
Mg42 O43 2.028 . S
Mg42 O49 1.986 . S
Mg42 O51 2.114 . S
Mg42 O52 2.251 . S
Mg42 O55 2.010 . S
O43 Mg42 2.028 . S
O43 C46 1.250 . S
O44 Mg45 2.028 . S
O44 C46 1.248 . S
Mg45 O44 2.028 . S
Mg45 O50 2.032 . S
Mg45 O52 2.079 . S
C46 O43 1.250 . S
C46 O44 1.248 . S
C47 O48 1.264 . S
C47 O55 1.249 . S
O48 C47 1.264 . S
O49 Mg42 1.986 . S
O49 C53 1.246 . S
O50 Mg45 2.032 . S
O50 C53 1.259 . S
O51 Mg42 2.114 . S
O51 C54 1.252 . S
O52 Mg42 2.251 . S
O52 Mg45 2.079 . S
O52 C54 1.273 . S
C53 O49 1.246 . S
C53 O50 1.259 . S
C54 O51 1.252 . S
C54 O52 1.273 . S
O55 Mg42 2.010 . S
O55 C47 1.249 . S
Mg56 O57 2.028 . S
Mg56 O63 1.986 . S
Mg56 O65 2.114 . S
Mg56 O66 2.251 . S
Mg56 O69 2.010 . S
O57 Mg56 2.028 . S
O57 C60 1.250 . S
O58 Mg59 2.028 . S
O58 C60 1.248 . S
Mg59 O58 2.028 . S
Mg59 O64 2.032 . S
Mg59 O66 2.079 . S
C60 O57 1.250 . S
C60 O58 1.248 . S
C61 O62 1.264 . S
C61 O69 1.249 . S
O62 C61 1.264 . S
O63 Mg56 1.986 . S
O63 C67 1.246 . S
O64 Mg59 2.032 . S
O64 C67 1.259 . S
O65 Mg56 2.114 . S
O65 C68 1.252 . S
O66 Mg56 2.251 . S
O66 Mg59 2.079 . S
O66 C68 1.273 . S
C67 O63 1.246 . S
C67 O64 1.259 . S
C68 O65 1.252 . S
C68 O66 1.273 . S
O69 Mg56 2.010 . S
O69 C61 1.249 . S
Mg70 O71 2.028 . S
Mg70 O77 1.986 . S
Mg70 O79 2.114 . S
Mg70 O80 2.251 . S
Mg70 O83 2.010 . S
O71 Mg70 2.028 . S
O71 C74 1.250 . S
O72 Mg73 2.028 . S
O72 C74 1.248 . S
Mg73 O72 2.028 . S
Mg73 O78 2.032 . S
Mg73 O80 2.079 . S
C74 O71 1.250 . S
C74 O72 1.248 . S
C75 O76 1.264 . S
C75 O83 1.249 . S
O76 C75 1.264 . S
O77 Mg70 1.986 . S
O77 C81 1.246 . S
O78 Mg73 2.032 . S
O78 C81 1.259 . S
O79 Mg70 2.114 . S
O79 C82 1.252 . S
O80 Mg70 2.251 . S
O80 Mg73 2.079 . S
O80 C82 1.273 . S
C81 O77 1.246 . S
C81 O78 1.259 . S
C82 O79 1.252 . S
C82 O80 1.273 . S
O83 Mg70 2.010 . S
O83 C75 1.249 . S
Mg84 O85 2.028 . S
Mg84 O91 1.986 . S
Mg84 O93 2.114 . S
Mg84 O94 2.251 . S
Mg84 O97 2.010 . S
O85 Mg84 2.028 . S
O85 C88 1.250 . S
O86 Mg87 2.028 . S
O86 C88 1.248 . S
Mg87 O86 2.028 . S
Mg87 O92 2.032 . S
Mg87 O94 2.079 . S
C88 O85 1.250 . S
C88 O86 1.248 . S
C89 O90 1.264 . S
C89 O97 1.249 . S
O90 C89 1.264 . S
O91 Mg84 1.986 . S
O91 C95 1.246 . S
O92 Mg87 2.032 . S
O92 C95 1.259 . S
O93 Mg84 2.114 . S
O93 C96 1.252 . S
O94 Mg84 2.251 . S
O94 Mg87 2.079 . S
O94 C96 1.273 . S
C95 O91 1.246 . S
C95 O92 1.259 . S
C96 O93 1.252 . S
C96 O94 1.273 . S
O97 Mg84 2.010 . S
O97 C89 1.249 . S
Mg98 O99 2.028 . S
Mg98 O105 1.986 . S
Mg98 O107 2.114 . S
Mg98 O108 2.251 . S
Mg98 O111 2.010 . S
O99 Mg98 2.028 . S
O99 C102 1.250 . S
O100 Mg101 2.028 . S
O100 C102 1.248 . S
Mg101 O100 2.028 . S
Mg101 O106 2.032 . S
Mg101 O108 2.079 . S
C102 O99 1.250 . S
C102 O100 1.248 . S
C103 O104 1.264 . S
C103 O111 1.249 . S
O104 C103 1.264 . S
O105 Mg98 1.986 . S
O105 C109 1.246 . S
O106 Mg101 2.032 . S
O106 C109 1.259 . S
O107 Mg98 2.114 . S
O107 C110 1.252 . S
O108 Mg98 2.251 . S
O108 Mg101 2.079 . S
O108 C110 1.273 . S
C109 O105 1.246 . S
C109 O106 1.259 . S
C110 O107 1.252 . S
C110 O108 1.273 . S
O111 Mg98 2.010 . S
O111 C103 1.249 . S
Mg112 O113 2.028 . S
Mg112 O119 1.986 . S
Mg112 O121 2.114 . S
Mg112 O122 2.251 . S
Mg112 O125 2.010 . S
O113 Mg112 2.028 . S
O113 C116 1.250 . S
O114 Mg115 2.028 . S
O114 C116 1.248 . S
Mg115 O114 2.028 . S
Mg115 O120 2.032 . S
Mg115 O122 2.079 . S
C116 O113 1.250 . S
C116 O114 1.248 . S
C117 O118 1.264 . S
C117 O125 1.249 . S
O118 C117 1.264 . S
O119 Mg112 1.986 . S
O119 C123 1.246 . S
O120 Mg115 2.032 . S
O120 C123 1.259 . S
O121 Mg112 2.114 . S
O121 C124 1.252 . S
O122 Mg112 2.251 . S
O122 Mg115 2.079 . S
O122 C124 1.273 . S
C123 O119 1.246 . S
C123 O120 1.259 . S
C124 O121 1.252 . S
C124 O122 1.273 . S
O125 Mg112 2.010 . S
O125 C117 1.249 . S
Mg126 O127 2.028 . S
Mg126 O133 1.986 . S
Mg126 O135 2.114 . S
Mg126 O136 2.251 . S
Mg126 O139 2.010 . S
O127 Mg126 2.028 . S
O127 C130 1.250 . S
O128 Mg129 2.028 . S
O128 C130 1.248 . S
Mg129 O128 2.028 . S
Mg129 O134 2.032 . S
Mg129 O136 2.079 . S
C130 O127 1.250 . S
C130 O128 1.248 . S
C131 O132 1.264 . S
C131 O139 1.249 . S
O132 C131 1.264 . S
O133 Mg126 1.986 . S
O133 C137 1.246 . S
O134 Mg129 2.032 . S
O134 C137 1.259 . S
O135 Mg126 2.114 . S
O135 C138 1.252 . S
O136 Mg126 2.251 . S
O136 Mg129 2.079 . S
O136 C138 1.273 . S
C137 O133 1.246 . S
C137 O134 1.259 . S
C138 O135 1.252 . S
C138 O136 1.273 . S
O139 Mg126 2.010 . S
O139 C131 1.249 . S
Mg140 O141 2.028 . S
Mg140 O147 1.986 . S
Mg140 O149 2.114 . S
Mg140 O150 2.251 . S
Mg140 O153 2.010 . S
O141 Mg140 2.028 . S
O141 C144 1.250 . S
O142 Mg143 2.028 . S
O142 C144 1.248 . S
Mg143 O142 2.028 . S
Mg143 O148 2.032 . S
Mg143 O150 2.079 . S
C144 O141 1.250 . S
C144 O142 1.248 . S
C145 O146 1.264 . S
C145 O153 1.249 . S
O146 C145 1.264 . S
O147 Mg140 1.986 . S
O147 C151 1.246 . S
O148 Mg143 2.032 . S
O148 C151 1.259 . S
O149 Mg140 2.114 . S
O149 C152 1.252 . S
O150 Mg140 2.251 . S
O150 Mg143 2.079 . S
O150 C152 1.273 . S
C151 O147 1.246 . S
C151 O148 1.259 . S
C152 O149 1.252 . S
C152 O150 1.273 . S
O153 Mg140 2.010 . S
O153 C145 1.249 . S
Mg154 O155 2.028 . S
Mg154 O161 1.986 . S
Mg154 O163 2.114 . S
Mg154 O164 2.251 . S
Mg154 O167 2.010 . S
O155 Mg154 2.028 . S
O155 C158 1.250 . S
O156 Mg157 2.028 . S
O156 C158 1.248 . S
Mg157 O156 2.028 . S
Mg157 O162 2.032 . S
Mg157 O164 2.079 . S
C158 O155 1.250 . S
C158 O156 1.248 . S
C159 O160 1.264 . S
C159 O167 1.249 . S
O160 C159 1.264 . S
O161 Mg154 1.986 . S
O161 C165 1.246 . S
O162 Mg157 2.032 . S
O162 C165 1.259 . S
O163 Mg154 2.114 . S
O163 C166 1.252 . S
O164 Mg154 2.251 . S
O164 Mg157 2.079 . S
O164 C166 1.273 . S
C165 O161 1.246 . S
C165 O162 1.259 . S
C166 O163 1.252 . S
C166 O164 1.273 . S
O167 Mg154 2.010 . S
O167 C159 1.249 . S
Mg168 O169 2.028 . S
Mg168 O175 1.986 . S
Mg168 O177 2.114 . S
Mg168 O178 2.251 . S
Mg168 O181 2.010 . S
O169 Mg168 2.028 . S
O169 C172 1.250 . S
O170 Mg171 2.028 . S
O170 C172 1.248 . S
Mg171 O170 2.028 . S
Mg171 O176 2.032 . S
Mg171 O178 2.079 . S
C172 O169 1.250 . S
C172 O170 1.248 . S
C173 O174 1.264 . S
C173 O181 1.249 . S
O174 C173 1.264 . S
O175 Mg168 1.986 . S
O175 C179 1.246 . S
O176 Mg171 2.032 . S
O176 C179 1.259 . S
O177 Mg168 2.114 . S
O177 C180 1.252 . S
O178 Mg168 2.251 . S
O178 Mg171 2.079 . S
O178 C180 1.273 . S
C179 O175 1.246 . S
C179 O176 1.259 . S
C180 O177 1.252 . S
C180 O178 1.273 . S
O181 Mg168 2.010 . S
O181 C173 1.249 . S
Mg182 O183 2.028 . S
Mg182 O189 1.986 . S
Mg182 O191 2.114 . S
Mg182 O192 2.251 . S
Mg182 O195 2.010 . S
O183 Mg182 2.028 . S
O183 C186 1.250 . S
O184 Mg185 2.028 . S
O184 C186 1.248 . S
Mg185 O184 2.028 . S
Mg185 O190 2.032 . S
Mg185 O192 2.079 . S
C186 O183 1.250 . S
C186 O184 1.248 . S
C187 O188 1.264 . S
C187 O195 1.249 . S
O188 C187 1.264 . S
O189 Mg182 1.986 . S
O189 C193 1.246 . S
O190 Mg185 2.032 . S
O190 C193 1.259 . S
O191 Mg182 2.114 . S
O191 C194 1.252 . S
O192 Mg182 2.251 . S
O192 Mg185 2.079 . S
O192 C194 1.273 . S
C193 O189 1.246 . S
C193 O190 1.259 . S
C194 O191 1.252 . S
C194 O192 1.273 . S
O195 Mg182 2.010 . S
O195 C187 1.249 . S
Mg196 O197 2.028 . S
Mg196 O203 1.986 . S
Mg196 O205 2.114 . S
Mg196 O206 2.251 . S
Mg196 O209 2.010 . S
O197 Mg196 2.028 . S
O197 C200 1.250 . S
O198 Mg199 2.028 . S
O198 C200 1.248 . S
Mg199 O198 2.028 . S
Mg199 O204 2.032 . S
Mg199 O206 2.079 . S
C200 O197 1.250 . S
C200 O198 1.248 . S
C201 O202 1.264 . S
C201 O209 1.249 . S
O202 C201 1.264 . S
O203 Mg196 1.986 . S
O203 C207 1.246 . S
O204 Mg199 2.032 . S
O204 C207 1.259 . S
O205 Mg196 2.114 . S
O205 C208 1.252 . S
O206 Mg196 2.251 . S
O206 Mg199 2.079 . S
O206 C208 1.273 . S
C207 O203 1.246 . S
C207 O204 1.259 . S
C208 O205 1.252 . S
C208 O206 1.273 . S
O209 Mg196 2.010 . S
O209 C201 1.249 . S
Mg210 O211 2.028 . S
Mg210 O217 1.986 . S
Mg210 O219 2.114 . S
Mg210 O220 2.251 . S
Mg210 O223 2.010 . S
O211 Mg210 2.028 . S
O211 C214 1.250 . S
O212 Mg213 2.028 . S
O212 C214 1.248 . S
Mg213 O212 2.028 . S
Mg213 O218 2.032 . S
Mg213 O220 2.079 . S
C214 O211 1.250 . S
C214 O212 1.248 . S
C215 O216 1.264 . S
C215 O223 1.249 . S
O216 C215 1.264 . S
O217 Mg210 1.986 . S
O217 C221 1.246 . S
O218 Mg213 2.032 . S
O218 C221 1.259 . S
O219 Mg210 2.114 . S
O219 C222 1.252 . S
O220 Mg210 2.251 . S
O220 Mg213 2.079 . S
O220 C222 1.273 . S
C221 O217 1.246 . S
C221 O218 1.259 . S
C222 O219 1.252 . S
C222 O220 1.273 . S
O223 Mg210 2.010 . S
O223 C215 1.249 . S
Mg224 O225 2.028 . S
Mg224 O231 1.986 . S
Mg224 O233 2.114 . S
Mg224 O234 2.251 . S
Mg224 O237 2.010 . S
O225 Mg224 2.028 . S
O225 C228 1.250 . S
O226 Mg227 2.028 . S
O226 C228 1.248 . S
Mg227 O226 2.028 . S
Mg227 O232 2.032 . S
Mg227 O234 2.079 . S
C228 O225 1.250 . S
C228 O226 1.248 . S
C229 O230 1.264 . S
C229 O237 1.249 . S
O230 C229 1.264 . S
O231 Mg224 1.986 . S
O231 C235 1.246 . S
O232 Mg227 2.032 . S
O232 C235 1.259 . S
O233 Mg224 2.114 . S
O233 C236 1.252 . S
O234 Mg224 2.251 . S
O234 Mg227 2.079 . S
O234 C236 1.273 . S
C235 O231 1.246 . S
C235 O232 1.259 . S
C236 O233 1.252 . S
C236 O234 1.273 . S
O237 Mg224 2.010 . S
O237 C229 1.249 . S
Mg238 O239 2.028 . S
Mg238 O245 1.986 . S
Mg238 O247 2.114 . S
Mg238 O248 2.251 . S
Mg238 O251 2.010 . S
O239 Mg238 2.028 . S
O239 C242 1.250 . S
O240 Mg241 2.028 . S
O240 C242 1.248 . S
Mg241 O240 2.028 . S
Mg241 O246 2.032 . S
Mg241 O248 2.079 . S
C242 O239 1.250 . S
C242 O240 1.248 . S
C243 O244 1.264 . S
C243 O251 1.249 . S
O244 C243 1.264 . S
O245 Mg238 1.986 . S
O245 C249 1.246 . S
O246 Mg241 2.032 . S
O246 C249 1.259 . S
O247 Mg238 2.114 . S
O247 C250 1.252 . S
O248 Mg238 2.251 . S
O248 Mg241 2.079 . S
O248 C250 1.273 . S
C249 O245 1.246 . S
C249 O246 1.259 . S
C250 O247 1.252 . S
C250 O248 1.273 . S
O251 Mg238 2.010 . S
O251 C243 1.249 . S
C252 C253 1.349 . S
C252 C254 1.327 . S
C252 H277 0.950 . S
C253 C252 1.349 . S
C253 C269 1.349 . S
C254 C252 1.327 . S
C254 C273 1.429 . S
C254 H278 0.950 . S
C255 C272 1.574 . S
C255 C274 1.368 . S
C255 H279 0.949 . S
H256 C260 0.949 . S
C257 C258 1.349 . S
C257 C259 1.327 . S
C257 H280 0.950 . S
C258 C257 1.349 . S
C258 C270 1.349 . S
C259 C257 1.327 . S
C259 C275 1.429 . S
C259 H281 0.950 . S
C260 H256 0.949 . S
C260 C268 1.574 . S
C260 C276 1.368 . S
H261 C269 0.950 . S
H262 C267 0.950 . S
H263 C268 0.949 . S
H264 C270 0.950 . S
H265 C271 0.950 . S
H266 C272 0.949 . S
C267 H262 0.950 . S
C267 C269 1.327 . S
C267 C273 1.429 . S
C268 C260 1.574 . S
C268 H263 0.949 . S
C268 C274 1.368 . S
C269 C253 1.349 . S
C269 H261 0.950 . S
C269 C267 1.327 . S
C270 C258 1.349 . S
C270 H264 0.950 . S
C270 C271 1.327 . S
C271 H265 0.950 . S
C271 C270 1.327 . S
C271 C275 1.429 . S
C272 C255 1.574 . S
C272 H266 0.949 . S
C272 C276 1.368 . S
C273 C254 1.429 . S
C273 C267 1.429 . S
C273 C274 1.523 . S
C274 C255 1.368 . S
C274 C268 1.368 . S
C274 C273 1.523 . S
C275 C259 1.429 . S
C275 C271 1.429 . S
C275 C276 1.523 . S
C276 C260 1.368 . S
C276 C272 1.368 . S
C276 C275 1.523 . S
H277 C252 0.950 . S
H278 C254 0.950 . S
H279 C255 0.949 . S
H280 C257 0.950 . S
H281 C259 0.950 . S
C282 C283 1.349 . S
C282 C284 1.327 . S
C282 H307 0.950 . S
C283 C282 1.349 . S
C283 C299 1.349 . S
C284 C282 1.327 . S
C284 C303 1.429 . S
C284 H308 0.950 . S
C285 C302 1.574 . S
C285 C304 1.368 . S
C285 H309 0.949 . S
H286 C290 0.949 . S
C287 C288 1.349 . S
C287 C289 1.327 . S
C287 H310 0.950 . S
C288 C287 1.349 . S
C288 C300 1.349 . S
C289 C287 1.327 . S
C289 C305 1.429 . S
C289 H311 0.950 . S
C290 H286 0.949 . S
C290 C298 1.574 . S
C290 C306 1.368 . S
H291 C299 0.950 . S
H292 C297 0.950 . S
H293 C298 0.949 . S
H294 C300 0.950 . S
H295 C301 0.950 . S
H296 C302 0.949 . S
C297 H292 0.950 . S
C297 C299 1.327 . S
C297 C303 1.429 . S
C298 C290 1.574 . S
C298 H293 0.949 . S
C298 C304 1.368 . S
C299 C283 1.349 . S
C299 H291 0.950 . S
C299 C297 1.327 . S
C300 C288 1.349 . S
C300 H294 0.950 . S
C300 C301 1.327 . S
C301 H295 0.950 . S
C301 C300 1.327 . S
C301 C305 1.429 . S
C302 C285 1.574 . S
C302 H296 0.949 . S
C302 C306 1.368 . S
C303 C284 1.429 . S
C303 C297 1.429 . S
C303 C304 1.523 . S
C304 C285 1.368 . S
C304 C298 1.368 . S
C304 C303 1.523 . S
C305 C289 1.429 . S
C305 C301 1.429 . S
C305 C306 1.523 . S
C306 C290 1.368 . S
C306 C302 1.368 . S
C306 C305 1.523 . S
H307 C282 0.950 . S
H308 C284 0.950 . S
H309 C285 0.949 . S
H310 C287 0.950 . S
H311 C289 0.950 . S
C312 C313 1.349 . S
C312 C314 1.327 . S
C312 H337 0.950 . S
C313 C312 1.349 . S
C313 C329 1.349 . S
C314 C312 1.327 . S
C314 C333 1.429 . S
C314 H338 0.950 . S
C315 C332 1.574 . S
C315 C334 1.368 . S
C315 H339 0.949 . S
H316 C320 0.949 . S
C317 C318 1.349 . S
C317 C319 1.327 . S
C317 H340 0.950 . S
C318 C317 1.349 . S
C318 C330 1.349 . S
C319 C317 1.327 . S
C319 C335 1.429 . S
C319 H341 0.950 . S
C320 H316 0.949 . S
C320 C328 1.574 . S
C320 C336 1.368 . S
H321 C329 0.950 . S
H322 C327 0.950 . S
H323 C328 0.949 . S
H324 C330 0.950 . S
H325 C331 0.950 . S
H326 C332 0.949 . S
C327 H322 0.950 . S
C327 C329 1.327 . S
C327 C333 1.429 . S
C328 C320 1.574 . S
C328 H323 0.949 . S
C328 C334 1.368 . S
C329 C313 1.349 . S
C329 H321 0.950 . S
C329 C327 1.327 . S
C330 C318 1.349 . S
C330 H324 0.950 . S
C330 C331 1.327 . S
C331 H325 0.950 . S
C331 C330 1.327 . S
C331 C335 1.429 . S
C332 C315 1.574 . S
C332 H326 0.949 . S
C332 C336 1.368 . S
C333 C314 1.429 . S
C333 C327 1.429 . S
C333 C334 1.523 . S
C334 C315 1.368 . S
C334 C328 1.368 . S
C334 C333 1.523 . S
C335 C319 1.429 . S
C335 C331 1.429 . S
C335 C336 1.523 . S
C336 C320 1.368 . S
C336 C332 1.368 . S
C336 C335 1.523 . S
H337 C312 0.950 . S
H338 C314 0.950 . S
H339 C315 0.949 . S
H340 C317 0.950 . S
H341 C319 0.950 . S
C342 C343 1.349 . S
C342 C344 1.327 . S
C342 H367 0.950 . S
C343 C342 1.349 . S
C343 C359 1.349 . S
C344 C342 1.327 . S
C344 C363 1.429 . S
C344 H368 0.950 . S
C345 C362 1.574 . S
C345 C364 1.368 . S
C345 H369 0.949 . S
H346 C350 0.949 . S
C347 C348 1.349 . S
C347 C349 1.327 . S
C347 H370 0.950 . S
C348 C347 1.349 . S
C348 C360 1.349 . S
C349 C347 1.327 . S
C349 C365 1.429 . S
C349 H371 0.950 . S
C350 H346 0.949 . S
C350 C358 1.574 . S
C350 C366 1.368 . S
H351 C359 0.950 . S
H352 C357 0.950 . S
H353 C358 0.949 . S
H354 C360 0.950 . S
H355 C361 0.950 . S
H356 C362 0.949 . S
C357 H352 0.950 . S
C357 C359 1.327 . S
C357 C363 1.429 . S
C358 C350 1.574 . S
C358 H353 0.949 . S
C358 C364 1.368 . S
C359 C343 1.349 . S
C359 H351 0.950 . S
C359 C357 1.327 . S
C360 C348 1.349 . S
C360 H354 0.950 . S
C360 C361 1.327 . S
C361 H355 0.950 . S
C361 C360 1.327 . S
C361 C365 1.429 . S
C362 C345 1.574 . S
C362 H356 0.949 . S
C362 C366 1.368 . S
C363 C344 1.429 . S
C363 C357 1.429 . S
C363 C364 1.523 . S
C364 C345 1.368 . S
C364 C358 1.368 . S
C364 C363 1.523 . S
C365 C349 1.429 . S
C365 C361 1.429 . S
C365 C366 1.523 . S
C366 C350 1.368 . S
C366 C362 1.368 . S
C366 C365 1.523 . S
H367 C342 0.950 . S
H368 C344 0.950 . S
H369 C345 0.949 . S
H370 C347 0.950 . S
H371 C349 0.950 . S
C372 C373 1.349 . S
C372 C374 1.327 . S
C372 H397 0.950 . S
C373 C372 1.349 . S
C373 C389 1.349 . S
C374 C372 1.327 . S
C374 C393 1.429 . S
C374 H398 0.950 . S
C375 C392 1.574 . S
C375 C394 1.368 . S
C375 H399 0.949 . S
H376 C380 0.949 . S
C377 C378 1.349 . S
C377 C379 1.327 . S
C377 H400 0.950 . S
C378 C377 1.349 . S
C378 C390 1.349 . S
C379 C377 1.327 . S
C379 C395 1.429 . S
C379 H401 0.950 . S
C380 H376 0.949 . S
C380 C388 1.574 . S
C380 C396 1.368 . S
H381 C389 0.950 . S
H382 C387 0.950 . S
H383 C388 0.949 . S
H384 C390 0.950 . S
H385 C391 0.950 . S
H386 C392 0.949 . S
C387 H382 0.950 . S
C387 C389 1.327 . S
C387 C393 1.429 . S
C388 C380 1.574 . S
C388 H383 0.949 . S
C388 C394 1.368 . S
C389 C373 1.349 . S
C389 H381 0.950 . S
C389 C387 1.327 . S
C390 C378 1.349 . S
C390 H384 0.950 . S
C390 C391 1.327 . S
C391 H385 0.950 . S
C391 C390 1.327 . S
C391 C395 1.429 . S
C392 C375 1.574 . S
C392 H386 0.949 . S
C392 C396 1.368 . S
C393 C374 1.429 . S
C393 C387 1.429 . S
C393 C394 1.523 . S
C394 C375 1.368 . S
C394 C388 1.368 . S
C394 C393 1.523 . S
C395 C379 1.429 . S
C395 C391 1.429 . S
C395 C396 1.523 . S
C396 C380 1.368 . S
C396 C392 1.368 . S
C396 C395 1.523 . S
H397 C372 0.950 . S
H398 C374 0.950 . S
H399 C375 0.949 . S
H400 C377 0.950 . S
H401 C379 0.950 . S
C402 C403 1.349 . S
C402 C404 1.327 . S
C402 H427 0.950 . S
C403 C402 1.349 . S
C403 C419 1.349 . S
C404 C402 1.327 . S
C404 C423 1.429 . S
C404 H428 0.950 . S
C405 C422 1.574 . S
C405 C424 1.368 . S
C405 H429 0.949 . S
H406 C410 0.949 . S
C407 C408 1.349 . S
C407 C409 1.327 . S
C407 H430 0.950 . S
C408 C407 1.349 . S
C408 C420 1.349 . S
C409 C407 1.327 . S
C409 C425 1.429 . S
C409 H431 0.950 . S
C410 H406 0.949 . S
C410 C418 1.574 . S
C410 C426 1.368 . S
H411 C419 0.950 . S
H412 C417 0.950 . S
H413 C418 0.949 . S
H414 C420 0.950 . S
H415 C421 0.950 . S
H416 C422 0.949 . S
C417 H412 0.950 . S
C417 C419 1.327 . S
C417 C423 1.429 . S
C418 C410 1.574 . S
C418 H413 0.949 . S
C418 C424 1.368 . S
C419 C403 1.349 . S
C419 H411 0.950 . S
C419 C417 1.327 . S
C420 C408 1.349 . S
C420 H414 0.950 . S
C420 C421 1.327 . S
C421 H415 0.950 . S
C421 C420 1.327 . S
C421 C425 1.429 . S
C422 C405 1.574 . S
C422 H416 0.949 . S
C422 C426 1.368 . S
C423 C404 1.429 . S
C423 C417 1.429 . S
C423 C424 1.523 . S
C424 C405 1.368 . S
C424 C418 1.368 . S
C424 C423 1.523 . S
C425 C409 1.429 . S
C425 C421 1.429 . S
C425 C426 1.523 . S
C426 C410 1.368 . S
C426 C422 1.368 . S
C426 C425 1.523 . S
H427 C402 0.950 . S
H428 C404 0.950 . S
H429 C405 0.949 . S
H430 C407 0.950 . S
H431 C409 0.950 . S
C432 C433 1.349 . S
C432 C434 1.327 . S
C432 H457 0.950 . S
C433 C432 1.349 . S
C433 C449 1.349 . S
C434 C432 1.327 . S
C434 C453 1.429 . S
C434 H458 0.950 . S
C435 C452 1.574 1_554 S
C435 C454 1.368 . S
C435 H459 0.949 . S
H436 C440 0.949 . S
C437 C438 1.349 . S
C437 C439 1.327 . S
C437 H460 0.950 . S
C438 C437 1.349 . S
C438 C450 1.349 . S
C439 C437 1.327 . S
C439 C455 1.429 . S
C439 H461 0.950 . S
C440 H436 0.949 . S
C440 C448 1.574 1_556 S
C440 C456 1.368 . S
H441 C449 0.950 . S
H442 C447 0.950 . S
H443 C448 0.949 . S
H444 C450 0.950 . S
H445 C451 0.950 . S
H446 C452 0.949 . S
C447 H442 0.950 . S
C447 C449 1.327 . S
C447 C453 1.429 . S
C448 C440 1.574 1_554 S
C448 H443 0.949 . S
C448 C454 1.368 1_455 S
C449 C433 1.349 . S
C449 H441 0.950 . S
C449 C447 1.327 . S
C450 C438 1.349 . S
C450 H444 0.950 . S
C450 C451 1.327 . S
C451 H445 0.950 . S
C451 C450 1.327 . S
C451 C455 1.429 . S
C452 C435 1.574 1_556 S
C452 H446 0.949 . S
C452 C456 1.368 1_655 S
C453 C434 1.429 . S
C453 C447 1.429 . S
C453 C454 1.523 . S
C454 C435 1.368 . S
C454 C448 1.368 1_655 S
C454 C453 1.523 . S
C455 C439 1.429 . S
C455 C451 1.429 . S
C455 C456 1.523 . S
C456 C440 1.368 . S
C456 C452 1.368 1_455 S
C456 C455 1.523 . S
H457 C432 0.950 . S
H458 C434 0.950 . S
H459 C435 0.949 . S
H460 C437 0.950 . S
H461 C439 0.950 . S
C462 C463 1.349 . S
C462 C464 1.327 . S
C462 H487 0.950 . S
C463 C462 1.349 . S
C463 C479 1.349 . S
C464 C462 1.327 . S
C464 C483 1.429 . S
C464 H488 0.950 . S
C465 C482 1.574 1_554 S
C465 C484 1.368 . S
C465 H489 0.949 . S
H466 C470 0.949 . S
C467 C468 1.349 . S
C467 C469 1.327 . S
C467 H490 0.950 . S
C468 C467 1.349 . S
C468 C480 1.349 . S
C469 C467 1.327 . S
C469 C485 1.429 . S
C469 H491 0.950 . S
C470 H466 0.949 . S
C470 C478 1.574 1_556 S
C470 C486 1.368 . S
H471 C479 0.950 . S
H472 C477 0.950 . S
H473 C478 0.949 . S
H474 C480 0.950 . S
H475 C481 0.950 . S
H476 C482 0.949 . S
C477 H472 0.950 . S
C477 C479 1.327 . S
C477 C483 1.429 . S
C478 C470 1.574 1_554 S
C478 H473 0.949 . S
C478 C484 1.368 . S
C479 C463 1.349 . S
C479 H471 0.950 . S
C479 C477 1.327 . S
C480 C468 1.349 . S
C480 H474 0.950 . S
C480 C481 1.327 . S
C481 H475 0.950 . S
C481 C480 1.327 . S
C481 C485 1.429 . S
C482 C465 1.574 1_556 S
C482 H476 0.949 . S
C482 C486 1.368 . S
C483 C464 1.429 . S
C483 C477 1.429 . S
C483 C484 1.523 . S
C484 C465 1.368 . S
C484 C478 1.368 . S
C484 C483 1.523 . S
C485 C469 1.429 . S
C485 C481 1.429 . S
C485 C486 1.523 . S
C486 C470 1.368 . S
C486 C482 1.368 . S
C486 C485 1.523 . S
H487 C462 0.950 . S
H488 C464 0.950 . S
H489 C465 0.949 . S
H490 C467 0.950 . S
H491 C469 0.950 . S
C492 C493 1.349 . S
C492 C494 1.327 . S
C492 H517 0.950 . S
C493 C492 1.349 . S
C493 C509 1.349 . S
C494 C492 1.327 . S
C494 C513 1.429 . S
C494 H518 0.950 . S
C495 C512 1.610 1_554 S
C495 C514 1.368 . S
C495 H519 0.949 . S
H496 C500 0.949 . S
C497 C498 1.349 . S
C497 C499 1.327 . S
C497 H520 0.950 . S
C498 C497 1.349 . S
C498 C510 1.349 . S
C499 C497 1.327 . S
C499 C515 1.429 . S
C499 H521 0.950 . S
C500 H496 0.949 . S
C500 C508 1.610 1_556 S
C500 C516 1.368 . S
H501 C509 0.950 . S
H502 C507 0.950 . S
H503 C508 0.928 . S
H504 C510 0.950 . S
H505 C511 0.950 . S
H506 C512 0.929 . S
C507 H502 0.950 . S
C507 C509 1.327 . S
C507 C513 1.429 . S
C508 C500 1.610 1_554 S
C508 H503 0.928 . S
C508 C514 1.360 1_565 S
C509 C493 1.349 . S
C509 H501 0.950 . S
C509 C507 1.327 . S
C510 C498 1.349 . S
C510 H504 0.950 . S
C510 C511 1.327 . S
C511 H505 0.950 . S
C511 C510 1.327 . S
C511 C515 1.429 . S
C512 C495 1.610 1_556 S
C512 H506 0.929 . S
C512 C516 1.360 1_545 S
C513 C494 1.429 . S
C513 C507 1.429 . S
C513 C514 1.523 . S
C514 C495 1.368 . S
C514 C508 1.360 1_545 S
C514 C513 1.523 . S
C515 C499 1.429 . S
C515 C511 1.429 . S
C515 C516 1.523 . S
C516 C500 1.368 . S
C516 C512 1.360 1_565 S
C516 C515 1.523 . S
H517 C492 0.950 . S
H518 C494 0.950 . S
H519 C495 0.949 . S
H520 C497 0.950 . S
H521 C499 0.950 . S
C522 C523 1.349 . S
C522 C524 1.327 . S
C522 H547 0.950 1_556 S
C523 C522 1.349 . S
C523 C539 1.349 . S
C524 C522 1.327 . S
C524 C543 1.429 . S
C524 H548 0.950 . S
C525 C542 1.574 . S
C525 C544 1.368 . S
C525 H549 0.949 . S
H526 C530 0.949 . S
C527 C528 1.349 . S
C527 C529 1.327 . S
C527 H550 0.950 . S
C528 C527 1.349 . S
C528 C540 1.349 . S
C529 C527 1.327 . S
C529 C545 1.429 . S
C529 H551 0.950 . S
C530 H526 0.949 . S
C530 C538 1.574 . S
C530 C546 1.368 . S
H531 C539 0.950 . S
H532 C537 0.950 . S
H533 C538 0.949 . S
H534 C540 0.950 . S
H535 C541 0.950 . S
H536 C542 0.949 . S
C537 H532 0.950 . S
C537 C539 1.327 . S
C537 C543 1.429 . S
C538 C530 1.574 . S
C538 H533 0.949 . S
C538 C544 1.368 . S
C539 C523 1.349 . S
C539 H531 0.950 . S
C539 C537 1.327 . S
C540 C528 1.349 . S
C540 H534 0.950 . S
C540 C541 1.327 . S
C541 H535 0.950 . S
C541 C540 1.327 . S
C541 C545 1.429 . S
C542 C525 1.574 . S
C542 H536 0.949 . S
C542 C546 1.368 . S
C543 C524 1.429 . S
C543 C537 1.429 . S
C543 C544 1.523 . S
C544 C525 1.368 . S
C544 C538 1.368 . S
C544 C543 1.523 . S
C545 C529 1.429 . S
C545 C541 1.429 . S
C545 C546 1.523 . S
C546 C530 1.368 . S
C546 C542 1.368 . S
C546 C545 1.523 . S
H547 C522 0.950 1_554 S
H548 C524 0.950 . S
H549 C525 0.949 . S
H550 C527 0.950 . S
H551 C529 0.950 . S
C552 C553 1.349 . S
C552 C554 1.327 . S
C552 H577 0.950 . S
C553 C552 1.349 . S
C553 C569 1.349 . S
C554 C552 1.327 . S
C554 C573 1.429 . S
C554 H578 0.950 . S
C555 C572 1.574 . S
C555 C574 1.368 . S
C555 H579 0.949 . S
H556 C560 0.949 . S
C557 C558 1.349 . S
C557 C559 1.327 . S
C557 H580 0.950 . S
C558 C557 1.349 . S
C558 C570 1.349 . S
C559 C557 1.327 . S
C559 C575 1.429 . S
C559 H581 0.950 . S
C560 H556 0.949 . S
C560 C568 1.574 . S
C560 C576 1.368 . S
H561 C569 0.950 . S
H562 C567 0.950 . S
H563 C568 0.949 . S
H564 C570 0.950 . S
H565 C571 0.950 . S
H566 C572 0.949 . S
C567 H562 0.950 . S
C567 C569 1.327 . S
C567 C573 1.429 . S
C568 C560 1.574 . S
C568 H563 0.949 . S
C568 C574 1.368 . S
C569 C553 1.349 . S
C569 H561 0.950 . S
C569 C567 1.327 . S
C570 C558 1.349 . S
C570 H564 0.950 . S
C570 C571 1.327 . S
C571 H565 0.950 . S
C571 C570 1.327 . S
C571 C575 1.429 . S
C572 C555 1.574 . S
C572 H566 0.949 . S
C572 C576 1.368 . S
C573 C554 1.429 . S
C573 C567 1.429 . S
C573 C574 1.523 . S
C574 C555 1.368 . S
C574 C568 1.368 . S
C574 C573 1.523 . S
C575 C559 1.429 . S
C575 C571 1.429 . S
C575 C576 1.523 . S
C576 C560 1.368 . S
C576 C572 1.368 . S
C576 C575 1.523 . S
H577 C552 0.950 . S
H578 C554 0.950 . S
H579 C555 0.949 . S
H580 C557 0.950 . S
H581 C559 0.950 . S
C582 C583 1.349 . S
C582 C584 1.327 . S
C582 H607 0.950 . S
C583 C582 1.349 . S
C583 C599 1.349 . S
C584 C582 1.327 . S
C584 C603 1.429 . S
C584 H608 0.950 . S
C585 C602 1.574 . S
C585 C604 1.368 . S
C585 H609 0.949 . S
H586 C590 0.949 . S
C587 C588 1.349 . S
C587 C589 1.327 . S
C587 H610 0.950 . S
C588 C587 1.349 . S
C588 C600 1.349 . S
C589 C587 1.327 . S
C589 C605 1.429 . S
C589 H611 0.950 . S
C590 H586 0.949 . S
C590 C598 1.574 . S
C590 C606 1.368 . S
H591 C599 0.950 . S
H592 C597 0.950 . S
H593 C598 0.949 . S
H594 C600 0.950 . S
H595 C601 0.950 . S
H596 C602 0.949 . S
C597 H592 0.950 . S
C597 C599 1.327 . S
C597 C603 1.429 . S
C598 C590 1.574 . S
C598 H593 0.949 . S
C598 C604 1.368 . S
C599 C583 1.349 . S
C599 H591 0.950 . S
C599 C597 1.327 . S
C600 C588 1.349 . S
C600 H594 0.950 . S
C600 C601 1.327 . S
C601 H595 0.950 . S
C601 C600 1.327 . S
C601 C605 1.429 . S
C602 C585 1.574 . S
C602 H596 0.949 . S
C602 C606 1.368 . S
C603 C584 1.429 . S
C603 C597 1.429 . S
C603 C604 1.523 . S
C604 C585 1.368 . S
C604 C598 1.368 . S
C604 C603 1.523 . S
C605 C589 1.429 . S
C605 C601 1.429 . S
C605 C606 1.523 . S
C606 C590 1.368 . S
C606 C602 1.368 . S
C606 C605 1.523 . S
H607 C582 0.950 . S
H608 C584 0.950 . S
H609 C585 0.949 . S
H610 C587 0.950 . S
H611 C589 0.950 . S
C612 C613 1.349 . S
C612 C614 1.327 . S
C612 H637 0.950 . S
C613 C612 1.349 . S
C613 C629 1.349 . S
C614 C612 1.327 . S
C614 C633 1.429 . S
C614 H638 0.950 . S
C615 C632 1.574 . S
C615 C634 1.368 . S
C615 H639 0.949 . S
H616 C620 0.949 . S
C617 C618 1.349 . S
C617 C619 1.327 . S
C617 H640 0.950 1_554 S
C618 C617 1.349 . S
C618 C630 1.349 . S
C619 C617 1.327 . S
C619 C635 1.429 . S
C619 H641 0.950 . S
C620 H616 0.949 . S
C620 C628 1.574 . S
C620 C636 1.368 . S
H621 C629 0.950 . S
H622 C627 0.950 . S
H623 C628 0.949 . S
H624 C630 0.950 . S
H625 C631 0.950 . S
H626 C632 0.949 . S
C627 H622 0.950 . S
C627 C629 1.327 . S
C627 C633 1.429 . S
C628 C620 1.574 . S
C628 H623 0.949 . S
C628 C634 1.368 . S
C629 C613 1.349 . S
C629 H621 0.950 . S
C629 C627 1.327 . S
C630 C618 1.349 . S
C630 H624 0.950 . S
C630 C631 1.327 . S
C631 H625 0.950 . S
C631 C630 1.327 . S
C631 C635 1.429 . S
C632 C615 1.574 . S
C632 H626 0.949 . S
C632 C636 1.368 . S
C633 C614 1.429 . S
C633 C627 1.429 . S
C633 C634 1.523 . S
C634 C615 1.368 . S
C634 C628 1.368 . S
C634 C633 1.523 . S
C635 C619 1.429 . S
C635 C631 1.429 . S
C635 C636 1.523 . S
C636 C620 1.368 . S
C636 C632 1.368 . S
C636 C635 1.523 . S
H637 C612 0.950 . S
H638 C614 0.950 . S
H639 C615 0.949 . S
H640 C617 0.950 1_556 S
H641 C619 0.950 . S
C642 C643 1.349 . S
C642 C644 1.327 . S
C642 H667 0.950 . S
C643 C642 1.349 . S
C643 C659 1.349 . S
C644 C642 1.327 . S
C644 C663 1.429 . S
C644 H668 0.950 . S
C645 C662 1.574 . S
C645 C664 1.368 . S
C645 H669 0.949 . S
H646 C650 0.949 . S
C647 C648 1.349 . S
C647 C649 1.327 . S
C647 H670 0.950 . S
C648 C647 1.349 . S
C648 C660 1.349 . S
C649 C647 1.327 . S
C649 C665 1.429 . S
C649 H671 0.950 . S
C650 H646 0.949 . S
C650 C658 1.574 . S
C650 C666 1.368 . S
H651 C659 0.950 1_556 S
H652 C657 0.950 . S
H653 C658 0.949 . S
H654 C660 0.950 . S
H655 C661 0.950 . S
H656 C662 0.949 . S
C657 H652 0.950 . S
C657 C659 1.327 . S
C657 C663 1.429 . S
C658 C650 1.574 . S
C658 H653 0.949 . S
C658 C664 1.368 . S
C659 C643 1.349 . S
C659 H651 0.950 1_554 S
C659 C657 1.327 . S
C660 C648 1.349 . S
C660 H654 0.950 . S
C660 C661 1.327 . S
C661 H655 0.950 . S
C661 C660 1.327 . S
C661 C665 1.429 . S
C662 C645 1.574 . S
C662 H656 0.949 . S
C662 C666 1.368 . S
C663 C644 1.429 . S
C663 C657 1.429 . S
C663 C664 1.523 . S
C664 C645 1.368 . S
C664 C658 1.368 . S
C664 C663 1.523 . S
C665 C649 1.429 . S
C665 C661 1.429 . S
C665 C666 1.523 . S
C666 C650 1.368 . S
C666 C662 1.368 . S
C666 C665 1.523 . S
H667 C642 0.950 . S
H668 C644 0.950 . S
H669 C645 0.949 . S
H670 C647 0.950 . S
H671 C649 0.950 . S
C672 C673 1.349 . S
C672 C674 1.327 . S
C672 H697 0.950 . S
C673 C672 1.349 . S
C673 C689 1.349 . S
C674 C672 1.327 . S
C674 C693 1.429 . S
C674 H698 0.950 . S
C675 C692 1.574 . S
C675 C694 1.368 . S
C675 H699 0.949 . S
H676 C680 0.949 . S
C677 C678 1.349 . S
C677 C679 1.327 . S
C677 H700 0.950 . S
C678 C677 1.349 . S
C678 C690 1.349 . S
C679 C677 1.327 . S
C679 C695 1.429 . S
C679 H701 0.950 . S
C680 H676 0.949 . S
C680 C688 1.574 . S
C680 C696 1.368 . S
H681 C689 0.950 . S
H682 C687 0.950 . S
H683 C688 0.949 . S
H684 C690 0.950 . S
H685 C691 0.950 . S
H686 C692 0.949 . S
C687 H682 0.950 . S
C687 C689 1.327 . S
C687 C693 1.429 . S
C688 C680 1.574 . S
C688 H683 0.949 . S
C688 C694 1.368 . S
C689 C673 1.349 . S
C689 H681 0.950 . S
C689 C687 1.327 . S
C690 C678 1.349 . S
C690 H684 0.950 . S
C690 C691 1.327 . S
C691 H685 0.950 . S
C691 C690 1.327 . S
C691 C695 1.429 . S
C692 C675 1.574 . S
C692 H686 0.949 . S
C692 C696 1.368 . S
C693 C674 1.429 . S
C693 C687 1.429 . S
C693 C694 1.523 . S
C694 C675 1.368 . S
C694 C688 1.368 . S
C694 C693 1.523 . S
C695 C679 1.429 . S
C695 C691 1.429 . S
C695 C696 1.523 . S
C696 C680 1.368 . S
C696 C692 1.368 . S
C696 C695 1.523 . S
H697 C672 0.950 . S
H698 C674 0.950 . S
H699 C675 0.949 . S
H700 C677 0.950 . S
H701 C679 0.950 . S
C702 C703 1.349 . S
C702 C704 1.327 . S
C702 H727 0.950 . S
C703 C702 1.349 . S
C703 C719 1.349 . S
C704 C702 1.327 . S
C704 C723 1.429 . S
C704 H728 0.950 . S
C705 C722 1.574 1_655 S
C705 C724 1.368 . S
C705 H729 0.949 . S
H706 C710 0.949 . S
C707 C708 1.349 . S
C707 C709 1.327 . S
C707 H730 0.950 . S
C708 C707 1.349 . S
C708 C720 1.349 . S
C709 C707 1.327 . S
C709 C725 1.429 . S
C709 H731 0.950 . S
C710 H706 0.949 . S
C710 C718 1.574 1_455 S
C710 C726 1.368 . S
H711 C719 0.950 . S
H712 C717 0.950 . S
H713 C718 0.949 . S
H714 C720 0.950 . S
H715 C721 0.950 . S
H716 C722 0.949 . S
C717 H712 0.950 . S
C717 C719 1.327 . S
C717 C723 1.429 . S
C718 C710 1.574 1_655 S
C718 H713 0.949 . S
C718 C724 1.368 . S
C719 C703 1.349 . S
C719 H711 0.950 . S
C719 C717 1.327 . S
C720 C708 1.349 . S
C720 H714 0.950 . S
C720 C721 1.327 . S
C721 H715 0.950 . S
C721 C720 1.327 . S
C721 C725 1.429 . S
C722 C705 1.574 1_455 S
C722 H716 0.949 . S
C722 C726 1.368 . S
C723 C704 1.429 . S
C723 C717 1.429 . S
C723 C724 1.523 . S
C724 C705 1.368 . S
C724 C718 1.368 . S
C724 C723 1.523 . S
C725 C709 1.429 . S
C725 C721 1.429 . S
C725 C726 1.523 . S
C726 C710 1.368 . S
C726 C722 1.368 . S
C726 C725 1.523 . S
H727 C702 0.950 . S
H728 C704 0.950 . S
H729 C705 0.949 . S
H730 C707 0.950 . S
H731 C709 0.950 . S
C732 C733 1.349 . S
C732 C734 1.327 . S
C732 H757 0.950 . S
C733 C732 1.349 . S
C733 C749 1.349 . S
C734 C732 1.327 . S
C734 C753 1.429 . S
C734 H758 0.950 . S
C735 C752 1.574 . S
C735 C754 1.368 . S
C735 H759 0.949 . S
H736 C740 0.949 . S
C737 C738 1.349 . S
C737 C739 1.327 . S
C737 H760 0.950 . S
C738 C737 1.349 . S
C738 C750 1.349 . S
C739 C737 1.327 . S
C739 C755 1.429 . S
C739 H761 0.950 . S
C740 H736 0.949 . S
C740 C748 1.574 . S
C740 C756 1.368 . S
H741 C749 0.950 . S
H742 C747 0.950 . S
H743 C748 0.949 . S
H744 C750 0.950 . S
H745 C751 0.950 . S
H746 C752 0.949 . S
C747 H742 0.950 . S
C747 C749 1.327 . S
C747 C753 1.429 . S
C748 C740 1.574 . S
C748 H743 0.949 . S
C748 C754 1.368 . S
C749 C733 1.349 . S
C749 H741 0.950 . S
C749 C747 1.327 . S
C750 C738 1.349 . S
C750 H744 0.950 . S
C750 C751 1.327 . S
C751 H745 0.950 . S
C751 C750 1.327 . S
C751 C755 1.429 . S
C752 C735 1.574 . S
C752 H746 0.949 . S
C752 C756 1.368 . S
C753 C734 1.429 . S
C753 C747 1.429 . S
C753 C754 1.523 . S
C754 C735 1.368 . S
C754 C748 1.368 . S
C754 C753 1.523 . S
C755 C739 1.429 . S
C755 C751 1.429 . S
C755 C756 1.523 . S
C756 C740 1.368 . S
C756 C752 1.368 . S
C756 C755 1.523 . S
H757 C732 0.950 . S
H758 C734 0.950 . S
H759 C735 0.949 . S
H760 C737 0.950 . S
H761 C739 0.950 . S
C762 C763 1.349 . S
C762 C764 1.327 . S
C762 H787 0.950 . S
C763 C762 1.349 . S
C763 C779 1.349 . S
C764 C762 1.327 . S
C764 C783 1.429 . S
C764 H788 0.950 . S
C765 C782 1.574 . S
C765 C784 1.368 . S
C765 H789 0.949 . S
H766 C770 0.949 . S
C767 C768 1.349 . S
C767 C769 1.327 . S
C767 H790 0.950 . S
C768 C767 1.349 . S
C768 C780 1.349 . S
C769 C767 1.327 . S
C769 C785 1.429 . S
C769 H791 0.950 . S
C770 H766 0.949 . S
C770 C778 1.574 . S
C770 C786 1.368 . S
H771 C779 0.950 . S
H772 C777 0.950 . S
H773 C778 0.949 . S
H774 C780 0.950 . S
H775 C781 0.950 . S
H776 C782 0.949 . S
C777 H772 0.950 . S
C777 C779 1.327 . S
C777 C783 1.429 . S
C778 C770 1.574 . S
C778 H773 0.949 . S
C778 C784 1.368 1_545 S
C779 C763 1.349 . S
C779 H771 0.950 . S
C779 C777 1.327 . S
C780 C768 1.349 . S
C780 H774 0.950 . S
C780 C781 1.327 . S
C781 H775 0.950 . S
C781 C780 1.327 . S
C781 C785 1.429 . S
C782 C765 1.574 . S
C782 H776 0.949 . S
C782 C786 1.368 1_565 S
C783 C764 1.429 . S
C783 C777 1.429 . S
C783 C784 1.523 . S
C784 C765 1.368 . S
C784 C778 1.368 1_565 S
C784 C783 1.523 . S
C785 C769 1.429 . S
C785 C781 1.429 . S
C785 C786 1.523 . S
C786 C770 1.368 . S
C786 C782 1.368 1_545 S
C786 C785 1.523 . S
H787 C762 0.950 . S
H788 C764 0.950 . S
H789 C765 0.949 . S
H790 C767 0.950 . S
H791 C769 0.950 . S
C792 C793 1.349 . S
C792 C794 1.327 . S
C792 H817 0.950 . S
C793 C792 1.349 . S
C793 C809 1.349 . S
C794 C792 1.327 . S
C794 C813 1.429 . S
C794 H818 0.950 . S
C795 C812 1.575 . S
C795 C814 1.368 . S
C795 H819 0.949 . S
H796 C800 0.949 . S
C797 C798 1.349 . S
C797 C799 1.327 . S
C797 H820 0.950 . S
C798 C797 1.349 . S
C798 C810 1.349 . S
C799 C797 1.327 . S
C799 C815 1.429 . S
C799 H821 0.950 . S
C800 H796 0.949 . S
C800 C808 1.575 . S
C800 C816 1.368 . S
H801 C809 0.950 . S
H802 C807 0.950 . S
H803 C808 0.949 . S
H804 C810 0.950 . S
H805 C811 0.950 . S
H806 C812 0.949 . S
C807 H802 0.950 . S
C807 C809 1.327 . S
C807 C813 1.429 . S
C808 C800 1.575 . S
C808 H803 0.949 . S
C808 C814 1.367 1_556 S
C809 C793 1.349 . S
C809 H801 0.950 . S
C809 C807 1.327 . S
C810 C798 1.349 . S
C810 H804 0.950 . S
C810 C811 1.327 . S
C811 H805 0.950 . S
C811 C810 1.327 . S
C811 C815 1.429 . S
C812 C795 1.575 . S
C812 H806 0.949 . S
C812 C816 1.367 1_554 S
C813 C794 1.429 . S
C813 C807 1.429 . S
C813 C814 1.523 . S
C814 C795 1.368 . S
C814 C808 1.367 1_554 S
C814 C813 1.523 . S
C815 C799 1.429 . S
C815 C811 1.429 . S
C815 C816 1.523 . S
C816 C800 1.368 . S
C816 C812 1.367 1_556 S
C816 C815 1.523 . S
H817 C792 0.950 . S
H818 C794 0.950 . S
H819 C795 0.949 . S
H820 C797 0.950 . S
H821 C799 0.950 . S
C822 C823 1.349 . S
C822 C824 1.327 . S
C822 H847 0.950 . S
C823 C822 1.349 . S
C823 C839 1.349 . S
C824 C822 1.327 . S
C824 C843 1.429 . S
C824 H848 0.950 . S
C825 C842 1.574 1_545 S
C825 C844 1.368 1_554 S
C825 H849 0.949 . S
H826 C830 0.949 . S
C827 C828 1.349 . S
C827 C829 1.327 . S
C827 H850 0.950 . S
C828 C827 1.349 . S
C828 C840 1.349 . S
C829 C827 1.327 . S
C829 C845 1.429 . S
C829 H851 0.950 . S
C830 H826 0.949 . S
C830 C838 1.574 1_565 S
C830 C846 1.368 1_556 S
H831 C839 0.950 1_554 S
H832 C837 0.950 . S
H833 C838 0.949 . S
H834 C840 0.950 1_556 S
H835 C841 0.950 . S
H836 C842 0.949 . S
C837 H832 0.950 . S
C837 C839 1.327 1_554 S
C837 C843 1.429 1_554 S
C838 C830 1.574 1_545 S
C838 H833 0.949 . S
C838 C844 1.368 . S
C839 C823 1.349 . S
C839 H831 0.950 1_556 S
C839 C837 1.327 1_556 S
C840 C828 1.349 . S
C840 H834 0.950 1_554 S
C840 C841 1.327 1_554 S
C841 H835 0.950 . S
C841 C840 1.327 1_556 S
C841 C845 1.429 1_556 S
C842 C825 1.574 1_565 S
C842 H836 0.949 . S
C842 C846 1.368 . S
C843 C824 1.429 . S
C843 C837 1.429 1_556 S
C843 C844 1.523 . S
C844 C825 1.368 1_556 S
C844 C838 1.368 . S
C844 C843 1.523 . S
C845 C829 1.429 . S
C845 C841 1.429 1_554 S
C845 C846 1.523 . S
C846 C830 1.368 1_554 S
C846 C842 1.368 . S
C846 C845 1.523 . S
H847 C822 0.950 . S
H848 C824 0.950 . S
H849 C825 0.949 . S
H850 C827 0.950 . S
H851 C829 0.950 . S
C852 C853 1.349 . S
C852 C854 1.327 . S
C852 H877 0.950 . S
C853 C852 1.349 . S
C853 C869 1.349 . S
C854 C852 1.327 . S
C854 C873 1.429 . S
C854 H878 0.950 . S
C855 C872 1.574 1_655 S
C855 C874 1.368 1_554 S
C855 H879 0.949 . S
H856 C860 0.949 . S
C857 C858 1.349 . S
C857 C859 1.327 . S
C857 H880 0.950 . S
C858 C857 1.349 . S
C858 C870 1.349 . S
C859 C857 1.327 . S
C859 C875 1.429 . S
C859 H881 0.950 . S
C860 H856 0.949 . S
C860 C868 1.574 1_455 S
C860 C876 1.368 1_556 S
H861 C869 0.950 . S
H862 C867 0.950 1_554 S
H863 C868 0.949 . S
H864 C870 0.950 . S
H865 C871 0.950 1_556 S
H866 C872 0.949 . S
C867 H862 0.950 1_556 S
C867 C869 1.327 . S
C867 C873 1.429 . S
C868 C860 1.574 1_655 S
C868 H863 0.949 . S
C868 C874 1.368 . S
C869 C853 1.349 . S
C869 H861 0.950 . S
C869 C867 1.327 . S
C870 C858 1.349 . S
C870 H864 0.950 . S
C870 C871 1.327 . S
C871 H865 0.950 1_554 S
C871 C870 1.327 . S
C871 C875 1.429 . S
C872 C855 1.574 1_455 S
C872 H866 0.949 . S
C872 C876 1.368 . S
C873 C854 1.429 . S
C873 C867 1.429 . S
C873 C874 1.523 . S
C874 C855 1.368 1_556 S
C874 C868 1.368 . S
C874 C873 1.523 . S
C875 C859 1.429 . S
C875 C871 1.429 . S
C875 C876 1.523 . S
C876 C860 1.368 1_554 S
C876 C872 1.368 . S
C876 C875 1.523 . S
H877 C852 0.950 . S
H878 C854 0.950 . S
H879 C855 0.949 . S
H880 C857 0.950 . S
H881 C859 0.950 . S
C882 C883 1.349 . S
C882 C884 1.327 . S
C882 H907 0.950 . S
C883 C882 1.349 . S
C883 C899 1.336 1_556 S
C884 C882 1.327 . S
C884 C903 1.429 . S
C884 H908 0.950 . S
C885 C902 1.574 . S
C885 C904 1.368 1_554 S
C885 H909 0.949 . S
H886 C890 0.949 . S
C887 C888 1.349 . S
C887 C889 1.327 . S
C887 H910 0.950 . S
C888 C887 1.349 . S
C888 C900 1.336 1_554 S
C889 C887 1.327 . S
C889 C905 1.429 . S
C889 H911 0.950 . S
C890 H886 0.949 . S
C890 C898 1.574 . S
C890 C906 1.368 1_556 S
H891 C899 0.959 . S
H892 C897 0.950 . S
H893 C898 0.949 . S
H894 C900 0.959 . S
H895 C901 0.950 . S
H896 C902 0.949 . S
C897 H892 0.950 . S
C897 C899 1.330 . S
C897 C903 1.429 1_554 S
C898 C890 1.574 . S
C898 H893 0.949 . S
C898 C904 1.368 . S
C899 C883 1.336 1_554 S
C899 H891 0.959 . S
C899 C897 1.330 . S
C900 C888 1.336 1_556 S
C900 H894 0.959 . S
C900 C901 1.330 . S
C901 H895 0.950 . S
C901 C900 1.330 . S
C901 C905 1.429 1_556 S
C902 C885 1.574 . S
C902 H896 0.949 . S
C902 C906 1.368 . S
C903 C884 1.429 . S
C903 C897 1.429 1_556 S
C903 C904 1.523 . S
C904 C885 1.368 1_556 S
C904 C898 1.368 . S
C904 C903 1.523 . S
C905 C889 1.429 . S
C905 C901 1.429 1_554 S
C905 C906 1.523 . S
C906 C890 1.368 1_554 S
C906 C902 1.368 . S
C906 C905 1.523 . S
H907 C882 0.950 . S
H908 C884 0.950 . S
H909 C885 0.949 . S
H910 C887 0.950 . S
H911 C889 0.950 . S
C912 C913 1.349 . S
C912 C914 1.327 1_554 S
C912 H937 0.950 1_554 S
C913 C912 1.349 . S
C913 C929 1.349 . S
C914 C912 1.327 1_556 S
C914 C933 1.429 1_556 S
C914 H938 0.950 . S
C915 C932 1.574 1_565 S
C915 C934 1.368 . S
C915 H939 0.949 . S
H916 C920 0.949 . S
C917 C918 1.349 . S
C917 C919 1.327 1_556 S
C917 H940 0.950 1_556 S
C918 C917 1.349 . S
C918 C930 1.349 . S
C919 C917 1.327 1_554 S
C919 C935 1.429 1_554 S
C919 H941 0.950 . S
C920 H916 0.949 . S
C920 C928 1.574 1_545 S
C920 C936 1.368 . S
H921 C929 0.950 . S
H922 C927 0.950 . S
H923 C928 0.949 . S
H924 C930 0.950 . S
H925 C931 0.950 . S
H926 C932 0.949 . S
C927 H922 0.950 . S
C927 C929 1.327 . S
C927 C933 1.429 . S
C928 C920 1.574 1_565 S
C928 H923 0.949 . S
C928 C934 1.368 1_556 S
C929 C913 1.349 . S
C929 H921 0.950 . S
C929 C927 1.327 . S
C930 C918 1.349 . S
C930 H924 0.950 . S
C930 C931 1.327 . S
C931 H925 0.950 . S
C931 C930 1.327 . S
C931 C935 1.429 . S
C932 C915 1.574 1_545 S
C932 H926 0.949 . S
C932 C936 1.368 1_554 S
C933 C914 1.429 1_554 S
C933 C927 1.429 . S
C933 C934 1.523 . S
C934 C915 1.368 . S
C934 C928 1.368 1_554 S
C934 C933 1.523 . S
C935 C919 1.429 1_556 S
C935 C931 1.429 . S
C935 C936 1.523 . S
C936 C920 1.368 . S
C936 C932 1.368 1_556 S
C936 C935 1.523 . S
H937 C912 0.950 1_556 S
H938 C914 0.950 . S
H939 C915 0.949 . S
H940 C917 0.950 1_554 S
H941 C919 0.950 . S
C942 C943 1.349 . S
C942 C944 1.327 . S
C942 H967 0.950 . S
C943 C942 1.349 . S
C943 C959 1.349 . S
C944 C942 1.327 . S
C944 C963 1.429 . S
C944 H968 0.950 . S
C945 C962 1.574 1_655 S
C945 C964 1.368 . S
C945 H969 0.949 . S
H946 C950 0.949 . S
C947 C948 1.349 . S
C947 C949 1.327 . S
C947 H970 0.950 . S
C948 C947 1.349 . S
C948 C960 1.349 . S
C949 C947 1.327 . S
C949 C965 1.429 . S
C949 H971 0.950 . S
C950 H946 0.949 . S
C950 C958 1.574 1_455 S
C950 C966 1.368 . S
H951 C959 0.950 . S
H952 C957 0.950 . S
H953 C958 0.949 . S
H954 C960 0.950 . S
H955 C961 0.950 . S
H956 C962 0.949 . S
C957 H952 0.950 . S
C957 C959 1.327 . S
C957 C963 1.429 . S
C958 C950 1.574 1_655 S
C958 H953 0.949 . S
C958 C964 1.368 1_554 S
C959 C943 1.349 . S
C959 H951 0.950 . S
C959 C957 1.327 . S
C960 C948 1.349 . S
C960 H954 0.950 . S
C960 C961 1.327 . S
C961 H955 0.950 . S
C961 C960 1.327 . S
C961 C965 1.429 . S
C962 C945 1.574 1_455 S
C962 H956 0.949 . S
C962 C966 1.368 1_556 S
C963 C944 1.429 . S
C963 C957 1.429 . S
C963 C964 1.523 . S
C964 C945 1.368 . S
C964 C958 1.368 1_556 S
C964 C963 1.523 . S
C965 C949 1.429 . S
C965 C961 1.429 . S
C965 C966 1.523 . S
C966 C950 1.368 . S
C966 C962 1.368 1_554 S
C966 C965 1.523 . S
H967 C942 0.950 . S
H968 C944 0.950 . S
H969 C945 0.949 . S
H970 C947 0.950 . S
H971 C949 0.950 . S
C972 C973 1.349 . S
C972 C974 1.327 . S
C972 H997 0.950 . S
C973 C972 1.349 . S
C973 C989 1.349 . S
C974 C972 1.327 . S
C974 C993 1.429 . S
C974 H998 0.950 . S
C975 C992 1.574 . S
C975 C994 1.368 . S
C975 H999 0.949 . S
H976 C980 0.949 . S
C977 C978 1.349 . S
C977 C979 1.327 . S
C977 H1000 0.950 . S
C978 C977 1.349 . S
C978 C990 1.349 . S
C979 C977 1.327 . S
C979 C995 1.429 . S
C979 H1001 0.950 . S
C980 H976 0.949 . S
C980 C988 1.574 . S
C980 C996 1.368 . S
H981 C989 0.950 . S
H982 C987 0.950 . S
H983 C988 0.949 . S
H984 C990 0.950 . S
H985 C991 0.950 . S
H986 C992 0.949 . S
C987 H982 0.950 . S
C987 C989 1.327 . S
C987 C993 1.429 . S
C988 C980 1.574 . S
C988 H983 0.949 . S
C988 C994 1.368 . S
C989 C973 1.349 . S
C989 H981 0.950 . S
C989 C987 1.327 . S
C990 C978 1.349 . S
C990 H984 0.950 . S
C990 C991 1.327 . S
C991 H985 0.950 . S
C991 C990 1.327 . S
C991 C995 1.429 . S
C992 C975 1.574 . S
C992 H986 0.949 . S
C992 C996 1.368 . S
C993 C974 1.429 . S
C993 C987 1.429 . S
C993 C994 1.523 . S
C994 C975 1.368 . S
C994 C988 1.368 . S
C994 C993 1.523 . S
C995 C979 1.429 . S
C995 C991 1.429 . S
C995 C996 1.523 . S
C996 C980 1.368 . S
C996 C992 1.368 . S
C996 C995 1.523 . S
H997 C972 0.950 . S
H998 C974 0.950 . S
H999 C975 0.949 . S
H1000 C977 0.950 . S
H1001 C979 0.950 . S
C1002 C1003 1.349 . S
C1002 C1004 1.327 . S
C1002 H1027 0.950 . S
C1003 C1002 1.349 . S
C1003 C1019 1.349 . S
C1004 C1002 1.327 . S
C1004 C1023 1.429 . S
C1004 H1028 0.950 . S
C1005 C1022 1.574 . S
C1005 C1024 1.368 . S
C1005 H1029 0.949 . S
H1006 C1010 0.949 . S
C1007 C1008 1.349 . S
C1007 C1009 1.327 . S
C1007 H1030 0.950 . S
C1008 C1007 1.349 . S
C1008 C1020 1.349 . S
C1009 C1007 1.327 . S
C1009 C1025 1.429 . S
C1009 H1031 0.950 . S
C1010 H1006 0.949 . S
C1010 C1018 1.574 . S
C1010 C1026 1.368 . S
H1011 C1019 0.950 . S
H1012 C1017 0.950 . S
H1013 C1018 0.949 . S
H1014 C1020 0.950 . S
H1015 C1021 0.950 . S
H1016 C1022 0.949 . S
C1017 H1012 0.950 . S
C1017 C1019 1.327 . S
C1017 C1023 1.429 . S
C1018 C1010 1.574 . S
C1018 H1013 0.949 . S
C1018 C1024 1.368 . S
C1019 C1003 1.349 . S
C1019 H1011 0.950 . S
C1019 C1017 1.327 . S
C1020 C1008 1.349 . S
C1020 H1014 0.950 . S
C1020 C1021 1.327 . S
C1021 H1015 0.950 . S
C1021 C1020 1.327 . S
C1021 C1025 1.429 . S
C1022 C1005 1.574 . S
C1022 H1016 0.949 . S
C1022 C1026 1.368 . S
C1023 C1004 1.429 . S
C1023 C1017 1.429 . S
C1023 C1024 1.523 . S
C1024 C1005 1.368 . S
C1024 C1018 1.368 . S
C1024 C1023 1.523 . S
C1025 C1009 1.429 . S
C1025 C1021 1.429 . S
C1025 C1026 1.523 . S
C1026 C1010 1.368 . S
C1026 C1022 1.368 . S
C1026 C1025 1.523 . S
H1027 C1002 0.950 . S
H1028 C1004 0.950 . S
H1029 C1005 0.949 . S
H1030 C1007 0.950 . S
H1031 C1009 0.950 . S
C1032 C1033 1.349 . S
C1032 C1034 1.327 . S
C1032 H1057 0.950 . S
C1033 C1032 1.349 . S
C1033 C1049 1.349 . S
C1034 C1032 1.327 . S
C1034 C1053 1.429 . S
C1034 H1058 0.950 . S
C1035 C1052 1.574 . S
C1035 C1054 1.368 . S
C1035 H1059 0.949 . S
H1036 C1040 0.949 . S
C1037 C1038 1.349 . S
C1037 C1039 1.327 . S
C1037 H1060 0.950 . S
C1038 C1037 1.349 . S
C1038 C1050 1.349 . S
C1039 C1037 1.327 . S
C1039 C1055 1.429 . S
C1039 H1061 0.950 . S
C1040 H1036 0.949 . S
C1040 C1048 1.574 . S
C1040 C1056 1.368 . S
H1041 C1049 0.950 . S
H1042 C1047 0.950 . S
H1043 C1048 0.949 . S
H1044 C1050 0.950 . S
H1045 C1051 0.950 . S
H1046 C1052 0.949 . S
C1047 H1042 0.950 . S
C1047 C1049 1.327 . S
C1047 C1053 1.429 . S
C1048 C1040 1.574 . S
C1048 H1043 0.949 . S
C1048 C1054 1.368 . S
C1049 C1033 1.349 . S
C1049 H1041 0.950 . S
C1049 C1047 1.327 . S
C1050 C1038 1.349 . S
C1050 H1044 0.950 . S
C1050 C1051 1.327 . S
C1051 H1045 0.950 . S
C1051 C1050 1.327 . S
C1051 C1055 1.429 . S
C1052 C1035 1.574 . S
C1052 H1046 0.949 . S
C1052 C1056 1.368 . S
C1053 C1034 1.429 . S
C1053 C1047 1.429 . S
C1053 C1054 1.523 . S
C1054 C1035 1.368 . S
C1054 C1048 1.368 . S
C1054 C1053 1.523 . S
C1055 C1039 1.429 . S
C1055 C1051 1.429 . S
C1055 C1056 1.523 . S
C1056 C1040 1.368 . S
C1056 C1052 1.368 . S
C1056 C1055 1.523 . S
H1057 C1032 0.950 . S
H1058 C1034 0.950 . S
H1059 C1035 0.949 . S
H1060 C1037 0.950 . S
H1061 C1039 0.950 . S
C1062 C1063 1.349 . S
C1062 C1064 1.327 . S
C1062 H1087 0.950 . S
C1063 C1062 1.349 . S
C1063 C1079 1.349 . S
C1064 C1062 1.327 . S
C1064 C1083 1.429 . S
C1064 H1088 0.950 . S
C1065 C1082 1.574 . S
C1065 C1084 1.368 . S
C1065 H1089 0.949 . S
H1066 C1070 0.949 . S
C1067 C1068 1.349 . S
C1067 C1069 1.327 . S
C1067 H1090 0.950 . S
C1068 C1067 1.349 . S
C1068 C1080 1.349 . S
C1069 C1067 1.327 . S
C1069 C1085 1.429 . S
C1069 H1091 0.950 . S
C1070 H1066 0.949 . S
C1070 C1078 1.574 . S
C1070 C1086 1.368 . S
H1071 C1079 0.950 . S
H1072 C1077 0.950 . S
H1073 C1078 0.949 . S
H1074 C1080 0.950 . S
H1075 C1081 0.950 . S
H1076 C1082 0.949 . S
C1077 H1072 0.950 . S
C1077 C1079 1.327 . S
C1077 C1083 1.429 . S
C1078 C1070 1.574 . S
C1078 H1073 0.949 . S
C1078 C1084 1.368 . S
C1079 C1063 1.349 . S
C1079 H1071 0.950 . S
C1079 C1077 1.327 . S
C1080 C1068 1.349 . S
C1080 H1074 0.950 . S
C1080 C1081 1.327 . S
C1081 H1075 0.950 . S
C1081 C1080 1.327 . S
C1081 C1085 1.429 . S
C1082 C1065 1.574 . S
C1082 H1076 0.949 . S
C1082 C1086 1.368 . S
C1083 C1064 1.429 . S
C1083 C1077 1.429 . S
C1083 C1084 1.523 . S
C1084 C1065 1.368 . S
C1084 C1078 1.368 . S
C1084 C1083 1.523 . S
C1085 C1069 1.429 . S
C1085 C1081 1.429 . S
C1085 C1086 1.523 . S
C1086 C1070 1.368 . S
C1086 C1082 1.368 . S
C1086 C1085 1.523 . S
H1087 C1062 0.950 . S
H1088 C1064 0.950 . S
H1089 C1065 0.949 . S
H1090 C1067 0.950 . S
H1091 C1069 0.950 . S
C1092 C1093 1.349 . S
C1092 C1094 1.327 . S
C1092 H1117 0.950 . S
C1093 C1092 1.349 . S
C1093 C1109 1.349 . S
C1094 C1092 1.327 . S
C1094 C1113 1.429 . S
C1094 H1118 0.950 . S
C1095 C1112 1.574 . S
C1095 C1114 1.368 . S
C1095 H1119 0.949 . S
H1096 C1100 0.949 . S
C1097 C1098 1.349 . S
C1097 C1099 1.327 . S
C1097 H1120 0.950 . S
C1098 C1097 1.349 . S
C1098 C1110 1.349 . S
C1099 C1097 1.327 . S
C1099 C1115 1.429 . S
C1099 H1121 0.950 . S
C1100 H1096 0.949 . S
C1100 C1108 1.574 . S
C1100 C1116 1.368 . S
H1101 C1109 0.950 . S
H1102 C1107 0.950 . S
H1103 C1108 0.949 . S
H1104 C1110 0.950 . S
H1105 C1111 0.950 . S
H1106 C1112 0.949 . S
C1107 H1102 0.950 . S
C1107 C1109 1.327 . S
C1107 C1113 1.429 . S
C1108 C1100 1.574 . S
C1108 H1103 0.949 . S
C1108 C1114 1.368 . S
C1109 C1093 1.349 . S
C1109 H1101 0.950 . S
C1109 C1107 1.327 . S
C1110 C1098 1.349 . S
C1110 H1104 0.950 . S
C1110 C1111 1.327 . S
C1111 H1105 0.950 . S
C1111 C1110 1.327 . S
C1111 C1115 1.429 . S
C1112 C1095 1.574 . S
C1112 H1106 0.949 . S
C1112 C1116 1.368 . S
C1113 C1094 1.429 . S
C1113 C1107 1.429 . S
C1113 C1114 1.523 . S
C1114 C1095 1.368 . S
C1114 C1108 1.368 . S
C1114 C1113 1.523 . S
C1115 C1099 1.429 . S
C1115 C1111 1.429 . S
C1115 C1116 1.523 . S
C1116 C1100 1.368 . S
C1116 C1112 1.368 . S
C1116 C1115 1.523 . S
H1117 C1092 0.950 . S
H1118 C1094 0.950 . S
H1119 C1095 0.949 . S
H1120 C1097 0.950 . S
H1121 C1099 0.950 . S
C1122 C1123 1.349 . S
C1122 C1124 1.327 . S
C1122 H1147 0.950 . S
C1123 C1122 1.349 . S
C1123 C1139 1.349 . S
C1124 C1122 1.327 . S
C1124 C1143 1.429 . S
C1124 H1148 0.950 . S
C1125 C1142 1.574 . S
C1125 C1144 1.368 . S
C1125 H1149 0.949 . S
H1126 C1130 0.949 . S
C1127 C1128 1.349 . S
C1127 C1129 1.327 . S
C1127 H1150 0.950 . S
C1128 C1127 1.349 . S
C1128 C1140 1.349 . S
C1129 C1127 1.327 . S
C1129 C1145 1.429 . S
C1129 H1151 0.950 . S
C1130 H1126 0.949 . S
C1130 C1138 1.574 . S
C1130 C1146 1.368 . S
H1131 C1139 0.950 . S
H1132 C1137 0.950 . S
H1133 C1138 0.949 . S
H1134 C1140 0.950 . S
H1135 C1141 0.950 . S
H1136 C1142 0.949 . S
C1137 H1132 0.950 . S
C1137 C1139 1.327 . S
C1137 C1143 1.429 . S
C1138 C1130 1.574 . S
C1138 H1133 0.949 . S
C1138 C1144 1.368 . S
C1139 C1123 1.349 . S
C1139 H1131 0.950 . S
C1139 C1137 1.327 . S
C1140 C1128 1.349 . S
C1140 H1134 0.950 . S
C1140 C1141 1.327 . S
C1141 H1135 0.950 . S
C1141 C1140 1.327 . S
C1141 C1145 1.429 . S
C1142 C1125 1.574 . S
C1142 H1136 0.949 . S
C1142 C1146 1.368 . S
C1143 C1124 1.429 . S
C1143 C1137 1.429 . S
C1143 C1144 1.523 . S
C1144 C1125 1.368 . S
C1144 C1138 1.368 . S
C1144 C1143 1.523 . S
C1145 C1129 1.429 . S
C1145 C1141 1.429 . S
C1145 C1146 1.523 . S
C1146 C1130 1.368 . S
C1146 C1142 1.368 . S
C1146 C1145 1.523 . S
H1147 C1122 0.950 . S
H1148 C1124 0.950 . S
H1149 C1125 0.949 . S
H1150 C1127 0.950 . S
H1151 C1129 0.950 . S
C1152 C1153 1.349 . S
C1152 C1154 1.327 . S
C1152 H1177 0.950 . S
C1153 C1152 1.349 . S
C1153 C1169 1.349 . S
C1154 C1152 1.327 . S
C1154 C1173 1.429 . S
C1154 H1178 0.950 . S
C1155 C1172 1.574 . S
C1155 C1174 1.368 . S
C1155 H1179 0.949 . S
H1156 C1160 0.949 . S
C1157 C1158 1.349 . S
C1157 C1159 1.327 . S
C1157 H1180 0.950 . S
C1158 C1157 1.349 . S
C1158 C1170 1.349 . S
C1159 C1157 1.327 . S
C1159 C1175 1.429 . S
C1159 H1181 0.950 . S
C1160 H1156 0.949 . S
C1160 C1168 1.574 . S
C1160 C1176 1.368 . S
H1161 C1169 0.950 . S
H1162 C1167 0.950 . S
H1163 C1168 0.949 . S
H1164 C1170 0.950 . S
H1165 C1171 0.950 . S
H1166 C1172 0.949 . S
C1167 H1162 0.950 . S
C1167 C1169 1.327 . S
C1167 C1173 1.429 . S
C1168 C1160 1.574 . S
C1168 H1163 0.949 . S
C1168 C1174 1.368 . S
C1169 C1153 1.349 . S
C1169 H1161 0.950 . S
C1169 C1167 1.327 . S
C1170 C1158 1.349 . S
C1170 H1164 0.950 . S
C1170 C1171 1.327 . S
C1171 H1165 0.950 . S
C1171 C1170 1.327 . S
C1171 C1175 1.429 . S
C1172 C1155 1.574 . S
C1172 H1166 0.949 . S
C1172 C1176 1.368 . S
C1173 C1154 1.429 . S
C1173 C1167 1.429 . S
C1173 C1174 1.523 . S
C1174 C1155 1.368 . S
C1174 C1168 1.368 . S
C1174 C1173 1.523 . S
C1175 C1159 1.429 . S
C1175 C1171 1.429 . S
C1175 C1176 1.523 . S
C1176 C1160 1.368 . S
C1176 C1172 1.368 . S
C1176 C1175 1.523 . S
H1177 C1152 0.950 . S
H1178 C1154 0.950 . S
H1179 C1155 0.949 . S
H1180 C1157 0.950 . S
H1181 C1159 0.950 . S
C1182 C1183 1.349 . S
C1182 C1184 1.327 . S
C1182 H1207 0.950 . S
C1183 C1182 1.349 . S
C1183 C1199 1.349 . S
C1184 C1182 1.327 . S
C1184 C1203 1.429 . S
C1184 H1208 0.950 . S
C1185 C1202 1.574 . S
C1185 C1204 1.368 . S
C1185 H1209 0.949 . S
H1186 C1190 0.949 . S
C1187 C1188 1.349 . S
C1187 C1189 1.327 . S
C1187 H1210 0.950 . S
C1188 C1187 1.349 . S
C1188 C1200 1.349 . S
C1189 C1187 1.327 . S
C1189 C1205 1.429 . S
C1189 H1211 0.950 . S
C1190 H1186 0.949 . S
C1190 C1198 1.574 . S
C1190 C1206 1.368 . S
H1191 C1199 0.950 . S
H1192 C1197 0.950 . S
H1193 C1198 0.949 . S
H1194 C1200 0.950 . S
H1195 C1201 0.950 . S
H1196 C1202 0.949 . S
C1197 H1192 0.950 . S
C1197 C1199 1.327 . S
C1197 C1203 1.429 . S
C1198 C1190 1.574 . S
C1198 H1193 0.949 . S
C1198 C1204 1.368 . S
C1199 C1183 1.349 . S
C1199 H1191 0.950 . S
C1199 C1197 1.327 . S
C1200 C1188 1.349 . S
C1200 H1194 0.950 . S
C1200 C1201 1.327 . S
C1201 H1195 0.950 . S
C1201 C1200 1.327 . S
C1201 C1205 1.429 . S
C1202 C1185 1.574 . S
C1202 H1196 0.949 . S
C1202 C1206 1.368 . S
C1203 C1184 1.429 . S
C1203 C1197 1.429 . S
C1203 C1204 1.523 . S
C1204 C1185 1.368 . S
C1204 C1198 1.368 . S
C1204 C1203 1.523 . S
C1205 C1189 1.429 . S
C1205 C1201 1.429 . S
C1205 C1206 1.523 . S
C1206 C1190 1.368 . S
C1206 C1202 1.368 . S
C1206 C1205 1.523 . S
H1207 C1182 0.950 . S
H1208 C1184 0.950 . S
H1209 C1185 0.949 . S
H1210 C1187 0.950 . S
H1211 C1189 0.950 . S
C1212 C1213 1.349 . S
C1212 C1214 1.327 . S
C1212 H1237 0.950 . S
C1213 C1212 1.349 . S
C1213 C1229 1.349 . S
C1214 C1212 1.327 . S
C1214 C1233 1.429 . S
C1214 H1238 0.950 . S
C1215 C1232 1.574 . S
C1215 C1234 1.368 . S
C1215 H1239 0.949 . S
H1216 C1220 0.949 . S
C1217 C1218 1.349 . S
C1217 C1219 1.327 . S
C1217 H1240 0.950 . S
C1218 C1217 1.349 . S
C1218 C1230 1.349 . S
C1219 C1217 1.327 . S
C1219 C1235 1.429 . S
C1219 H1241 0.950 . S
C1220 H1216 0.949 . S
C1220 C1228 1.574 . S
C1220 C1236 1.368 . S
H1221 C1229 0.950 . S
H1222 C1227 0.950 . S
H1223 C1228 0.949 . S
H1224 C1230 0.950 . S
H1225 C1231 0.950 . S
H1226 C1232 0.949 . S
C1227 H1222 0.950 . S
C1227 C1229 1.327 . S
C1227 C1233 1.429 . S
C1228 C1220 1.574 . S
C1228 H1223 0.949 . S
C1228 C1234 1.368 . S
C1229 C1213 1.349 . S
C1229 H1221 0.950 . S
C1229 C1227 1.327 . S
C1230 C1218 1.349 . S
C1230 H1224 0.950 . S
C1230 C1231 1.327 . S
C1231 H1225 0.950 . S
C1231 C1230 1.327 . S
C1231 C1235 1.429 . S
C1232 C1215 1.574 . S
C1232 H1226 0.949 . S
C1232 C1236 1.368 . S
C1233 C1214 1.429 . S
C1233 C1227 1.429 . S
C1233 C1234 1.523 . S
C1234 C1215 1.368 . S
C1234 C1228 1.368 . S
C1234 C1233 1.523 . S
C1235 C1219 1.429 . S
C1235 C1231 1.429 . S
C1235 C1236 1.523 . S
C1236 C1220 1.368 . S
C1236 C1232 1.368 . S
C1236 C1235 1.523 . S
H1237 C1212 0.950 . S
H1238 C1214 0.950 . S
H1239 C1215 0.949 . S
H1240 C1217 0.950 . S
H1241 C1219 0.950 . S
C1242 C1243 1.349 . S
C1242 C1244 1.327 . S
C1242 H1267 0.950 . S
C1243 C1242 1.349 . S
C1243 C1259 1.349 . S
C1244 C1242 1.327 . S
C1244 C1263 1.429 . S
C1244 H1268 0.950 . S
C1245 C1262 1.574 . S
C1245 C1264 1.368 . S
C1245 H1269 0.949 . S
H1246 C1250 0.949 . S
C1247 C1248 1.349 . S
C1247 C1249 1.327 . S
C1247 H1270 0.950 . S
C1248 C1247 1.349 . S
C1248 C1260 1.349 . S
C1249 C1247 1.327 . S
C1249 C1265 1.429 . S
C1249 H1271 0.950 . S
C1250 H1246 0.949 . S
C1250 C1258 1.574 . S
C1250 C1266 1.368 . S
H1251 C1259 0.950 . S
H1252 C1257 0.950 . S
H1253 C1258 0.949 . S
H1254 C1260 0.950 . S
H1255 C1261 0.950 . S
H1256 C1262 0.949 . S
C1257 H1252 0.950 . S
C1257 C1259 1.327 . S
C1257 C1263 1.429 . S
C1258 C1250 1.574 . S
C1258 H1253 0.949 . S
C1258 C1264 1.368 . S
C1259 C1243 1.349 . S
C1259 H1251 0.950 . S
C1259 C1257 1.327 . S
C1260 C1248 1.349 . S
C1260 H1254 0.950 . S
C1260 C1261 1.327 . S
C1261 H1255 0.950 . S
C1261 C1260 1.327 . S
C1261 C1265 1.429 . S
C1262 C1245 1.574 . S
C1262 H1256 0.949 . S
C1262 C1266 1.368 . S
C1263 C1244 1.429 . S
C1263 C1257 1.429 . S
C1263 C1264 1.523 . S
C1264 C1245 1.368 . S
C1264 C1258 1.368 . S
C1264 C1263 1.523 . S
C1265 C1249 1.429 . S
C1265 C1261 1.429 . S
C1265 C1266 1.523 . S
C1266 C1250 1.368 . S
C1266 C1262 1.368 . S
C1266 C1265 1.523 . S
H1267 C1242 0.950 . S
H1268 C1244 0.950 . S
H1269 C1245 0.949 . S
H1270 C1247 0.950 . S
H1271 C1249 0.950 . S
C1272 C1273 1.349 . S
C1272 C1274 1.327 . S
C1272 H1297 0.950 . S
C1273 C1272 1.349 . S
C1273 C1289 1.349 . S
C1274 C1272 1.327 . S
C1274 C1293 1.429 . S
C1274 H1298 0.950 . S
C1275 C1292 1.574 . S
C1275 C1294 1.368 . S
C1275 H1299 0.949 . S
H1276 C1280 0.949 . S
C1277 C1278 1.349 . S
C1277 C1279 1.327 . S
C1277 H1300 0.950 . S
C1278 C1277 1.349 . S
C1278 C1290 1.349 . S
C1279 C1277 1.327 . S
C1279 C1295 1.429 . S
C1279 H1301 0.950 . S
C1280 H1276 0.949 . S
C1280 C1288 1.574 . S
C1280 C1296 1.368 . S
H1281 C1289 0.950 . S
H1282 C1287 0.950 . S
H1283 C1288 0.949 . S
H1284 C1290 0.950 . S
H1285 C1291 0.950 . S
H1286 C1292 0.949 . S
C1287 H1282 0.950 . S
C1287 C1289 1.327 . S
C1287 C1293 1.429 . S
C1288 C1280 1.574 . S
C1288 H1283 0.949 . S
C1288 C1294 1.368 . S
C1289 C1273 1.349 . S
C1289 H1281 0.950 . S
C1289 C1287 1.327 . S
C1290 C1278 1.349 . S
C1290 H1284 0.950 . S
C1290 C1291 1.327 . S
C1291 H1285 0.950 . S
C1291 C1290 1.327 . S
C1291 C1295 1.429 . S
C1292 C1275 1.574 . S
C1292 H1286 0.949 . S
C1292 C1296 1.368 . S
C1293 C1274 1.429 . S
C1293 C1287 1.429 . S
C1293 C1294 1.523 . S
C1294 C1275 1.368 . S
C1294 C1288 1.368 . S
C1294 C1293 1.523 . S
C1295 C1279 1.429 . S
C1295 C1291 1.429 . S
C1295 C1296 1.523 . S
C1296 C1280 1.368 . S
C1296 C1292 1.368 . S
C1296 C1295 1.523 . S
H1297 C1272 0.950 . S
H1298 C1274 0.950 . S
H1299 C1275 0.949 . S
H1300 C1277 0.950 . S
H1301 C1279 0.950 . S
C1302 C1303 1.349 . S
C1302 C1304 1.327 . S
C1302 H1327 0.950 . S
C1303 C1302 1.349 . S
C1303 C1319 1.349 . S
C1304 C1302 1.327 . S
C1304 C1323 1.429 . S
C1304 H1328 0.950 . S
C1305 C1322 1.574 . S
C1305 C1324 1.368 . S
C1305 H1329 0.949 . S
H1306 C1310 0.949 . S
C1307 C1308 1.349 . S
C1307 C1309 1.327 . S
C1307 H1330 0.950 . S
C1308 C1307 1.349 . S
C1308 C1320 1.349 . S
C1309 C1307 1.327 . S
C1309 C1325 1.429 . S
C1309 H1331 0.950 . S
C1310 H1306 0.949 . S
C1310 C1318 1.574 . S
C1310 C1326 1.368 . S
H1311 C1319 0.950 . S
H1312 C1317 0.950 . S
H1313 C1318 0.949 . S
H1314 C1320 0.950 . S
H1315 C1321 0.950 . S
H1316 C1322 0.949 . S
C1317 H1312 0.950 . S
C1317 C1319 1.327 . S
C1317 C1323 1.429 . S
C1318 C1310 1.574 . S
C1318 H1313 0.949 . S
C1318 C1324 1.368 . S
C1319 C1303 1.349 . S
C1319 H1311 0.950 . S
C1319 C1317 1.327 . S
C1320 C1308 1.349 . S
C1320 H1314 0.950 . S
C1320 C1321 1.327 . S
C1321 H1315 0.950 . S
C1321 C1320 1.327 . S
C1321 C1325 1.429 . S
C1322 C1305 1.574 . S
C1322 H1316 0.949 . S
C1322 C1326 1.368 . S
C1323 C1304 1.429 . S
C1323 C1317 1.429 . S
C1323 C1324 1.523 . S
C1324 C1305 1.368 . S
C1324 C1318 1.368 . S
C1324 C1323 1.523 . S
C1325 C1309 1.429 . S
C1325 C1321 1.429 . S
C1325 C1326 1.523 . S
C1326 C1310 1.368 . S
C1326 C1322 1.368 . S
C1326 C1325 1.523 . S
H1327 C1302 0.950 . S
H1328 C1304 0.950 . S
H1329 C1305 0.949 . S
H1330 C1307 0.950 . S
H1331 C1309 0.950 . S
C253 C249 1.694 . S
C258 C11 1.694 . S
C283 C221 1.694 . S
C288 C25 1.694 . S
C313 C235 1.694 . S
C318 C39 1.694 . S
C343 C109 1.694 . S
C348 C53 1.694 . S
C373 C123 1.694 . S
C378 C67 1.694 . S
C403 C81 1.694 . S
C408 C95 1.694 . S
C433 C137 1.694 . S
C438 C193 1.694 . S
C463 C151 1.694 . S
C468 C207 1.694 . S
C493 C165 1.694 . S
C498 C179 1.694 . S
C523 C4 1.060 1_556 S
C528 C242 1.060 . S
C553 C214 1.060 . S
C558 C18 1.060 1_556 S
C583 C32 1.060 1_556 S
C588 C228 1.060 . S
C613 C102 1.060 . S
C618 C46 1.060 1_554 S
C643 C60 1.060 1_554 S
C648 C116 1.060 . S
C673 C74 1.060 1_554 S
C678 C88 1.060 . S
C703 C130 1.060 . S
C708 C186 1.060 . S
C733 C200 1.060 . S
C738 C144 1.060 . S
C763 C172 1.060 . S
C768 C158 1.060 . S
C793 C5 1.316 . S
C798 C47 1.316 . S
C823 C61 1.316 . S
C828 C19 1.316 . S
C853 C75 1.316 . S
C858 C33 1.316 . S
C883 C82 1.437 . S
C888 C26 1.437 . S
C913 C40 1.437 . S
C918 C54 1.437 . S
C943 C68 1.437 . S
C948 C12 1.437 . S
C973 C89 1.316 . S
C978 C131 1.316 . S
C1003 C145 1.316 . S
C1008 C103 1.316 . S
C1033 C159 1.316 . S
C1038 C117 1.316 . S
C1063 C166 1.437 . S
C1068 C110 1.437 . S
C1093 C124 1.437 . S
C1098 C138 1.437 . S
C1123 C152 1.437 . S
C1128 C96 1.437 . S
C1153 C215 1.316 . S
C1158 C173 1.316 . S
C1183 C229 1.316 . S
C1188 C187 1.316 . S
C1213 C201 1.316 . S
C1218 C243 1.316 . S
C1243 C250 1.436 . S
C1248 C194 1.436 . S
C1273 C208 1.437 . S
C1278 C222 1.437 . S
C1303 C236 1.437 . S
C1308 C180 1.437 . S
