# Generated by pormake.
# Topology una, (4)-cn, num edge types: 1
# Building blocks:
#     Node 0, Type 0, BuildingBlock: AZAVOO_clean_sbu_0, # of connection points: 4
#     Node 1, Type 0, BuildingBlock: AZAVOO_clean_sbu_0, # of connection points: 4
#     Node 2, Type 0, BuildingBlock: AZAVOO_clean_sbu_0, # of connection points: 4
#     Node 3, Type 0, BuildingBlock: AZAVOO_clean_sbu_0, # of connection points: 4
#     Node 4, Type 0, BuildingBlock: AZAVOO_clean_sbu_0, # of connection points: 4
#     Node 5, Type 0, BuildingBlock: AZAVOO_clean_sbu_0, # of connection points: 4
#     Node 6, Type 0, BuildingBlock: AZAVOO_clean_sbu_0, # of connection points: 4
#     Node 7, Type 0, BuildingBlock: AZAVOO_clean_sbu_0, # of connection points: 4
#     Node 8, Type 0, BuildingBlock: AZAVOO_clean_sbu_0, # of connection points: 4
#     Node 9, Type 0, BuildingBlock: AZAVOO_clean_sbu_0, # of connection points: 4
#     Node 10, Type 0, BuildingBlock: AZAVOO_clean_sbu_0, # of connection points: 4
#     Node 11, Type 0, BuildingBlock: AZAVOO_clean_sbu_0, # of connection points: 4
#     Edge 12, Type (0, 0), BuildingBlock: UVAHIK_clean_linker_0, # of connection points: 2
#     Edge 13, Type (0, 0), BuildingBlock: UVAHIK_clean_linker_0, # of connection points: 2
#     Edge 14, Type (0, 0), BuildingBlock: UVAHIK_clean_linker_0, # of connection points: 2
#     Edge 15, Type (0, 0), BuildingBlock: UVAHIK_clean_linker_0, # of connection points: 2
#     Edge 16, Type (0, 0), BuildingBlock: UVAHIK_clean_linker_0, # of connection points: 2
#     Edge 17, Type (0, 0), BuildingBlock: UVAHIK_clean_linker_0, # of connection points: 2
#     Edge 18, Type (0, 0), BuildingBlock: UVAHIK_clean_linker_0, # of connection points: 2
#     Edge 19, Type (0, 0), BuildingBlock: UVAHIK_clean_linker_0, # of connection points: 2
#     Edge 20, Type (0, 0), BuildingBlock: UVAHIK_clean_linker_0, # of connection points: 2
#     Edge 21, Type (0, 0), BuildingBlock: UVAHIK_clean_linker_0, # of connection points: 2
#     Edge 22, Type (0, 0), BuildingBlock: UVAHIK_clean_linker_0, # of connection points: 2
#     Edge 23, Type (0, 0), BuildingBlock: UVAHIK_clean_linker_0, # of connection points: 2
#     Edge 24, Type (0, 0), BuildingBlock: UVAHIK_clean_linker_0, # of connection points: 2
#     Edge 25, Type (0, 0), BuildingBlock: UVAHIK_clean_linker_0, # of connection points: 2
#     Edge 26, Type (0, 0), BuildingBlock: UVAHIK_clean_linker_0, # of connection points: 2
#     Edge 27, Type (0, 0), BuildingBlock: UVAHIK_clean_linker_0, # of connection points: 2
#     Edge 28, Type (0, 0), BuildingBlock: UVAHIK_clean_linker_0, # of connection points: 2
#     Edge 29, Type (0, 0), BuildingBlock: UVAHIK_clean_linker_0, # of connection points: 2
#     Edge 30, Type (0, 0), BuildingBlock: UVAHIK_clean_linker_0, # of connection points: 2
#     Edge 31, Type (0, 0), BuildingBlock: UVAHIK_clean_linker_0, # of connection points: 2
#     Edge 32, Type (0, 0), BuildingBlock: UVAHIK_clean_linker_0, # of connection points: 2
#     Edge 33, Type (0, 0), BuildingBlock: UVAHIK_clean_linker_0, # of connection points: 2
#     Edge 34, Type (0, 0), BuildingBlock: UVAHIK_clean_linker_0, # of connection points: 2
#     Edge 35, Type (0, 0), BuildingBlock: UVAHIK_clean_linker_0, # of connection points: 2
# Relax obj value: 0.177
# Max RMSD: 0.208
# Mean RMSD: 0.204
data_MOF--net-una--node1-AZAVOO_clean_sbu_0--edge1-UVAHIK_clean_linker_0
_symmetry_space_group_name_H-M    P1
_symmetry_Int_Tables_number       1
_symmetry_cell_setting            triclinic
loop_
_symmetry_equiv_pos_as_xyz
'x, y, z'
_cell_length_a     74.540226
_cell_length_b     71.756514
_cell_length_c     28.01922
_cell_angle_alpha  89.992541
_cell_angle_beta   90.03473
_cell_angle_gamma 121.30702
loop_
_atom_site_label
_atom_site_type_symbol
_atom_site_fract_x
_atom_site_fract_y
_atom_site_fract_z
_atom_type_partial_charge
Mg0 Mg 0.14179 0.43318 0.04508 0.0
O1 O 0.14569 0.45915 0.09849 0.0
O2 O 0.1749 0.47039 0.14095 0.0
Mg3 Mg 0.19002 0.4517 0.11372 0.0
C4 C 0.1586 0.47117 0.13082 0.0
C5 C 0.09989 0.43185 0.03225 0.0
O6 O 0.09956 0.42839 0.07839 0.0
O7 O 0.16732 0.46003 -0.00134 0.0
O8 O 0.19599 0.46992 0.04282 0.0
O9 O 0.12551 0.40715 0.1008 0.0
O10 O 0.15972 0.42532 0.08664 0.0
C11 C 0.18713 0.47183 0.00562 0.0
C12 C 0.14408 0.4111 0.11137 0.0
O13 O 0.11573 0.43522 0.0081 0.0
Mg14 Mg 0.68858 0.1161 0.25322 0.0
O15 O 0.70274 0.13379 0.18266 0.0
O16 O 0.6797 0.1161 0.12406 0.0
Mg17 Mg 0.65083 0.08671 0.15695 0.0
C18 C 0.69743 0.13167 0.13879 0.0
C19 C 0.73318 0.15058 0.28463 0.0
O20 O 0.73648 0.138 0.25654 0.0
O21 O 0.66657 0.12945 0.25518 0.0
O22 O 0.6438 0.10998 0.19727 0.0
O23 O 0.70203 0.09494 0.24092 0.0
O24 O 0.67077 0.08712 0.21547 0.0
C25 C 0.65023 0.12427 0.23039 0.0
C26 C 0.6854 0.08263 0.21586 0.0
O27 O 0.71445 0.14587 0.292 0.0
Mg28 Mg 0.58222 0.70846 0.32208 0.0
O29 O 0.5487 0.68708 0.35076 0.0
O30 O 0.53655 0.70872 0.37026 0.0
Mg31 Mg 0.56201 0.7438 0.35284 0.0
C32 C 0.53422 0.68984 0.36688 0.0
C33 C 0.58152 0.66409 0.32089 0.0
O34 O 0.58168 0.66632 0.36745 0.0
O35 O 0.56922 0.71239 0.25133 0.0
O36 O 0.5575 0.73409 0.27412 0.0
O37 O 0.59468 0.71401 0.39748 0.0
O38 O 0.58608 0.73514 0.35904 0.0
C39 C 0.5603 0.72312 0.24224 0.0
C40 C 0.59243 0.73074 0.39755 0.0
O41 O 0.58138 0.67832 0.2942 0.0
Mg42 Mg 0.85202 0.54783 0.54787 0.0
O43 O 0.85074 0.51896 0.58716 0.0
O44 O 0.82042 0.50183 0.62747 0.0
Mg45 Mg 0.80347 0.52042 0.61842 0.0
C46 C 0.83757 0.50347 0.61409 0.0
C47 C 0.88194 0.56182 0.46158 0.0
O48 O 0.86839 0.56712 0.44715 0.0
O49 O 0.82708 0.52396 0.4956 0.0
O50 O 0.79795 0.50958 0.54022 0.0
O51 O 0.86779 0.57046 0.60985 0.0
O52 O 0.83344 0.5495 0.59971 0.0
C53 C 0.80723 0.5114 0.50062 0.0
C54 C 0.84898 0.56313 0.62567 0.0
O55 O 0.87903 0.55235 0.5016 0.0
Mg56 Mg 0.30921 0.89796 0.75319 0.0
O57 O 0.29316 0.87697 0.68799 0.0
O58 O 0.31118 0.89361 0.62205 0.0
Mg59 Mg 0.33952 0.92614 0.64666 0.0
C60 C 0.29565 0.87751 0.64296 0.0
C61 C 0.26846 0.85867 0.7941 0.0
O62 O 0.26046 0.86664 0.76444 0.0
O63 O 0.33444 0.88898 0.74966 0.0
O64 O 0.35232 0.90697 0.68437 0.0
O65 O 0.29102 0.91438 0.74116 0.0
O66 O 0.3227 0.92589 0.71175 0.0
C67 C 0.34933 0.89446 0.7198 0.0
C68 C 0.30652 0.92784 0.71427 0.0
O69 O 0.28828 0.8683 0.79866 0.0
Mg70 Mg 0.42031 0.29415 0.8259 0.0
O71 O 0.45484 0.3211 0.83638 0.0
O72 O 0.47297 0.30491 0.85224 0.0
Mg73 Mg 0.45027 0.26812 0.85438 0.0
C74 C 0.47207 0.322 0.8455 0.0
C75 C 0.41251 0.33305 0.81347 0.0
O76 O 0.41477 0.3341 0.86008 0.0
O77 O 0.42772 0.28525 0.75341 0.0
O78 O 0.44498 0.26867 0.77415 0.0
O79 O 0.41411 0.29459 0.90419 0.0
O80 O 0.42479 0.27405 0.87113 0.0
C81 C 0.43717 0.27525 0.74258 0.0
C82 C 0.42034 0.28089 0.90915 0.0
O83 O 0.41382 0.31855 0.79045 0.0
Mg84 Mg 0.57416 0.89242 0.82584 0.0
O85 O 0.56514 0.86358 0.87508 0.0
O86 O 0.55375 0.86878 0.94453 0.0
Mg87 Mg 0.55646 0.90194 0.94019 0.0
C88 C 0.55779 0.85729 0.91692 0.0
C89 C 0.58715 0.86472 0.76954 0.0
O90 O 0.59957 0.87072 0.80693 0.0
O91 O 0.53948 0.88049 0.81335 0.0
O92 O 0.53049 0.88806 0.88358 0.0
O93 O 0.60683 0.9097 0.85465 0.0
O94 O 0.58115 0.91279 0.88503 0.0
C95 C 0.52601 0.88089 0.84085 0.0
C96 C 0.60029 0.91735 0.88768 0.0
O97 O 0.57456 0.87158 0.7652 0.0
Mg98 Mg 0.69876 0.54432 0.05076 0.0
O99 O 0.67258 0.51797 0.0038 0.0
O100 O 0.68587 0.50039 0.96594 0.0
Mg101 Mg 0.72048 0.51611 0.98548 0.0
C102 C 0.67062 0.50311 0.97531 0.0
C103 C 0.66271 0.55321 0.0712 0.0
O104 O 0.66375 0.55534 0.02453 0.0
O105 O 0.69579 0.51829 0.10244 0.0
O106 O 0.71111 0.50342 0.06184 0.0
O107 O 0.71021 0.56903 0.99106 0.0
O108 O 0.72088 0.54594 0.00451 0.0
C109 C 0.70228 0.50497 0.09942 0.0
C110 C 0.72143 0.5609 0.9783 0.0
O111 O 0.67489 0.54845 0.09233 0.0
Mg112 Mg 0.1332 0.69454 0.22627 0.0
O113 O 0.14013 0.66678 0.22263 0.0
O114 O 0.1741 0.68227 0.20321 0.0
Mg115 Mg 0.1883 0.71863 0.19023 0.0
C116 C 0.15638 0.6656 0.2143 0.0
C117 C 0.08674 0.67342 0.24744 0.0
O118 O 0.09004 0.68644 0.21119 0.0
O119 O 0.1515 0.70675 0.29675 0.0
O120 O 0.18442 0.72251 0.26956 0.0
O121 O 0.12467 0.69064 0.14819 0.0
O122 O 0.15665 0.71194 0.17685 0.0
C123 C 0.17135 0.71769 0.30361 0.0
C124 C 0.1445 0.70379 0.14049 0.0
O125 O 0.10216 0.67264 0.26433 0.0
Mg126 Mg 0.41534 0.10004 0.30614 0.0
O127 O 0.41914 0.12356 0.36581 0.0
O128 O 0.42346 0.11149 0.43583 0.0
Mg129 Mg 0.42432 0.08074 0.41968 0.0
C130 C 0.42164 0.12532 0.41095 0.0
C131 C 0.40675 0.13302 0.25889 0.0
O132 O 0.39251 0.1246 0.29275 0.0
O133 O 0.45075 0.11399 0.30733 0.0
O134 O 0.45475 0.10157 0.37724 0.0
O135 O 0.38084 0.08019 0.32014 0.0
O136 O 0.40428 0.07507 0.35664 0.0
C137 C 0.46232 0.11243 0.33876 0.0
C138 C 0.38517 0.07059 0.3533 0.0
O139 O 0.41895 0.12576 0.25304 0.0
Mg140 Mg 0.30234 0.46503 0.55668 0.0
O141 O 0.32808 0.49272 0.51169 0.0
O142 O 0.31423 0.51068 0.47828 0.0
Mg143 Mg 0.27941 0.49338 0.49738 0.0
C144 C 0.32977 0.50827 0.48605 0.0
C145 C 0.33733 0.45438 0.56947 0.0
O146 O 0.335 0.45296 0.52287 0.0
O147 O 0.3051 0.48975 0.61176 0.0
O148 O 0.28886 0.50462 0.5748 0.0
O149 O 0.2909 0.4417 0.49494 0.0
O150 O 0.2791 0.4633 0.51355 0.0
C151 C 0.29812 0.50269 0.61121 0.0
C152 C 0.27832 0.44864 0.48587 0.0
O153 O 0.32663 0.46005 0.59404 0.0
Mg154 Mg 0.88043 0.29056 0.70491 0.0
O155 O 0.86974 0.31471 0.69083 0.0
O156 O 0.83907 0.29751 0.65202 0.0
Mg157 Mg 0.83053 0.26231 0.63969 0.0
C158 C 0.85422 0.3146 0.67125 0.0
C159 C 0.91979 0.33263 0.743 0.0
O160 O 0.92135 0.33721 0.69724 0.0
O161 O 0.85571 0.27416 0.76377 0.0
O162 O 0.82634 0.25655 0.72025 0.0
O163 O 0.89654 0.29912 0.63342 0.0
O164 O 0.86373 0.27252 0.64611 0.0
C165 C 0.8358 0.26146 0.76047 0.0
C166 C 0.87864 0.284 0.61662 0.0
O167 O 0.90452 0.31454 0.75769 0.0
C168 C 0.15941 0.39125 0.14758 0.0
C169 C 0.14824 0.40188 0.15341 0.0
C170 C 0.16912 0.38806 0.18658 0.0
C171 C 0.17761 0.39638 0.3183 0.0
H172 H 0.23521 0.4164 0.28312 0.0
C173 C 0.2468 0.4444 0.44492 0.0
C174 C 0.26265 0.43936 0.44713 0.0
C175 C 0.23086 0.43455 0.41109 0.0
C176 C 0.21911 0.41037 0.29351 0.0
H177 H 0.13727 0.41648 0.20403 0.0
H178 H 0.15479 0.41162 0.27236 0.0
H179 H 0.20904 0.40669 0.22114 0.0
H180 H 0.27433 0.42015 0.41531 0.0
H181 H 0.24649 0.40318 0.35493 0.0
H182 H 0.18823 0.40145 0.39083 0.0
C183 C 0.1556 0.40507 0.23817 0.0
C184 C 0.20401 0.40469 0.258 0.0
C185 C 0.14553 0.40787 0.19915 0.0
C186 C 0.26237 0.42442 0.41426 0.0
C187 C 0.24645 0.41468 0.3799 0.0
C188 C 0.19278 0.40225 0.35382 0.0
C189 C 0.16835 0.39608 0.23182 0.0
C190 C 0.1832 0.39821 0.26989 0.0
C191 C 0.23044 0.41952 0.37842 0.0
C192 C 0.21379 0.40992 0.34163 0.0
H193 H 0.16172 0.38664 0.11233 0.0
H194 H 0.17835 0.38059 0.18065 0.0
H195 H 0.16167 0.39111 0.32871 0.0
H196 H 0.24644 0.4557 0.46992 0.0
H197 H 0.21896 0.43891 0.41014 0.0
C198 C 0.87506 0.26562 0.5396 0.0
C199 C 0.87388 0.28162 0.56561 0.0
C200 C 0.86399 0.2578 0.49677 0.0
C201 C 0.81412 0.24639 0.45317 0.0
H202 H 0.82795 0.22568 0.3395 0.0
C203 C 0.74899 0.18669 0.32593 0.0
C204 C 0.7511 0.16972 0.30763 0.0
C205 C 0.76593 0.20457 0.34842 0.0
C206 C 0.82379 0.23122 0.3712 0.0
H207 H 0.86167 0.30314 0.56669 0.0
H208 H 0.84227 0.28949 0.49173 0.0
H209 H 0.85597 0.25089 0.3933 0.0
H210 H 0.7726 0.15822 0.29791 0.0
H211 H 0.80176 0.18871 0.33908 0.0
H212 H 0.782 0.22576 0.43365 0.0
C213 C 0.85177 0.28307 0.50407 0.0
C214 C 0.83988 0.2458 0.40169 0.0
C215 C 0.86296 0.29097 0.54666 0.0
C216 C 0.77053 0.1711 0.31159 0.0
C217 C 0.78734 0.18875 0.33481 0.0
C218 C 0.79805 0.2316 0.42322 0.0
C219 C 0.85136 0.26567 0.48002 0.0
C220 C 0.83513 0.2532 0.4434 0.0
C221 C 0.78524 0.20566 0.35393 0.0
C222 C 0.80261 0.22343 0.38235 0.0
H223 H 0.88306 0.25792 0.55433 0.0
H224 H 0.86379 0.24424 0.47921 0.0
H225 H 0.80994 0.25148 0.48558 0.0
H226 H 0.73426 0.1862 0.32276 0.0
H227 H 0.76382 0.21745 0.36178 0.0
C228 C 0.58977 0.73434 0.48609 0.0
C229 C 0.59528 0.74377 0.44051 0.0
C230 C 0.58946 0.74653 0.52488 0.0
C231 C 0.58463 0.79457 0.54702 0.0
H232 H 0.60057 0.79088 0.67671 0.0
C233 C 0.57146 0.83947 0.69979 0.0
C234 C 0.58743 0.84964 0.73409 0.0
C235 C 0.57168 0.82504 0.66671 0.0
C236 C 0.59619 0.7922 0.64058 0.0
H237 H 0.60633 0.77353 0.40008 0.0
H238 H 0.60667 0.79492 0.46748 0.0
H239 H 0.60394 0.76921 0.61403 0.0
H240 H 0.61612 0.85258 0.76086 0.0
H241 H 0.6169 0.82801 0.70215 0.0
H242 H 0.57768 0.81811 0.57259 0.0
C243 C 0.60174 0.77799 0.47338 0.0
C244 C 0.5979 0.77959 0.6048 0.0
C245 C 0.60173 0.7658 0.43482 0.0
C246 C 0.60356 0.84498 0.73484 0.0
C247 C 0.60391 0.83073 0.70144 0.0
C248 C 0.58308 0.80724 0.58252 0.0
C249 C 0.59486 0.76834 0.5185 0.0
C250 C 0.59238 0.78086 0.55748 0.0
C251 C 0.58802 0.82064 0.66681 0.0
C252 C 0.58895 0.80635 0.6297 0.0
H253 H 0.58466 0.71732 0.49119 0.0
H254 H 0.58408 0.73862 0.55922 0.0
H255 H 0.57978 0.79561 0.51116 0.0
H256 H 0.55868 0.84252 0.69868 0.0
H257 H 0.55897 0.81726 0.64113 0.0
C258 C 0.85236 0.59164 0.68182 0.0
C259 C 0.84495 0.56963 0.67204 0.0
C260 C 0.84436 0.59728 0.72076 0.0
C261 C 0.81331 0.57553 0.83147 0.0
H262 H 0.7846 0.60517 0.79161 0.0
C263 C 0.73511 0.55249 0.9067 0.0
C264 C 0.73478 0.56821 0.9357 0.0
C265 C 0.75159 0.55848 0.8751 0.0
C266 C 0.79292 0.59734 0.80351 0.0
H267 H 0.82487 0.53641 0.69626 0.0
H268 H 0.81129 0.54613 0.76465 0.0
H269 H 0.8113 0.60559 0.73956 0.0
H270 H 0.75016 0.60268 0.95178 0.0
H271 H 0.77924 0.61334 0.89517 0.0
H272 H 0.79388 0.56594 0.89365 0.0
C273 C 0.82309 0.5591 0.74254 0.0
C274 C 0.80822 0.59764 0.774 0.0
C275 C 0.83075 0.55348 0.70331 0.0
C276 C 0.75009 0.59035 0.92937 0.0
C277 C 0.76672 0.5964 0.89743 0.0
C278 C 0.79805 0.57518 0.8607 0.0
C279 C 0.82925 0.58096 0.75072 0.0
C280 C 0.81781 0.58586 0.78683 0.0
C281 C 0.76798 0.5803 0.87188 0.0
C282 C 0.78713 0.58527 0.84595 0.0
H283 H 0.86317 0.60429 0.65761 0.0
H284 H 0.84934 0.61424 0.7264 0.0
H285 H 0.82065 0.56655 0.8424 0.0
H286 H 0.72323 0.53538 0.91039 0.0
H287 H 0.75216 0.54588 0.85501 0.0
C288 C 0.2328 0.82988 0.82271 0.0
C289 C 0.2546 0.83867 0.8216 0.0
C290 C 0.21983 0.81138 0.85011 0.0
C291 C 0.22252 0.7819 0.95457 0.0
H292 H 0.16585 0.73761 0.9177 0.0
C293 C 0.17282 0.71279 0.08205 0.0
C294 C 0.15322 0.71014 0.09218 0.0
C295 C 0.1838 0.72396 0.04122 0.0
C296 C 0.18165 0.74987 0.92836 0.0
H297 H 0.2798 0.83441 0.84655 0.0
H298 H 0.25719 0.80197 0.89353 0.0
H299 H 0.18827 0.76656 0.86128 0.0
H300 H 0.12872 0.71515 0.06602 0.0
H301 H 0.14813 0.73517 -0.00534 0.0
H302 H 0.21594 0.76569 0.02171 0.0
C303 C 0.25013 0.80964 0.87423 0.0
C304 C 0.19446 0.76646 0.8962 0.0
C305 C 0.2631 0.82822 0.84721 0.0
C306 C 0.14385 0.71702 0.05874 0.0
C307 C 0.15496 0.72846 0.01797 0.0
C308 C 0.20981 0.76535 0.98645 0.0
C309 C 0.22839 0.80122 0.87669 0.0
C310 C 0.21499 0.78277 0.90916 0.0
C311 C 0.17548 0.73294 0.01011 0.0
C312 C 0.1892 0.74922 0.97392 0.0
H313 H 0.22578 0.83755 0.80325 0.0
H314 H 0.20319 0.80547 0.85164 0.0
H315 H 0.23804 0.79445 0.96623 0.0
H316 H 0.18008 0.70706 0.10674 0.0
H317 H 0.19933 0.72661 0.03537 0.0
C318 C 0.39519 0.1589 0.23633 0.0
C319 C 0.409 0.15128 0.22972 0.0
C320 C 0.39738 0.17633 0.2094 0.0
C321 C 0.43517 0.2229 0.13527 0.0
H322 H 0.38532 0.21647 0.07548 0.0
C323 C 0.43726 0.26731 0.96424 0.0
C324 C 0.42212 0.273 0.95644 0.0
C325 C 0.43696 0.25654 0.00586 0.0
C326 C 0.39935 0.2188 0.09276 0.0
H327 H 0.43605 0.1561 0.18993 0.0
H328 H 0.43974 0.18643 0.14254 0.0
H329 H 0.38196 0.18894 0.13169 0.0
H330 H 0.39571 0.2734 0.9874 0.0
H331 H 0.39514 0.25446 0.06077 0.0
H332 H 0.45261 0.25246 0.09527 0.0
C333 C 0.42737 0.17906 0.16898 0.0
C334 C 0.39743 0.20297 0.12483 0.0
C335 C 0.42514 0.16156 0.19581 0.0
C336 C 0.40751 0.26907 0.99252 0.0
C337 C 0.4071 0.25811 0.03425 0.0
C338 C 0.43709 0.23876 0.10329 0.0
C339 C 0.41348 0.18659 0.17542 0.0
C340 C 0.41537 0.20456 0.14546 0.0
C341 C 0.42148 0.25119 0.04069 0.0
C342 C 0.41924 0.23658 0.08069 0.0
H343 H 0.38265 0.15141 0.26235 0.0
H344 H 0.38655 0.18189 0.2154 0.0
H345 H 0.44923 0.22478 0.15138 0.0
H346 H 0.44908 0.27068 0.93774 0.0
H347 H 0.44822 0.25139 0.00948 0.0
C348 C 0.17205 0.50487 0.18055 0.0
C349 C 0.15573 0.48809 0.15359 0.0
C350 C 0.17076 0.52267 0.19573 0.0
C351 C 0.13561 0.54377 0.21467 0.0
H352 H 0.18412 0.59884 0.17582 0.0
C353 C 0.13578 0.62475 0.20797 0.0
C354 C 0.15485 0.64425 0.21686 0.0
C355 C 0.13504 0.60485 0.20629 0.0
C356 C 0.17059 0.58371 0.18791 0.0
H357 H 0.1246 0.47613 0.12443 0.0
H358 H 0.12237 0.50722 0.15136 0.0
H359 H 0.18414 0.56534 0.16477 0.0
H360 H 0.18774 0.6581 0.23409 0.0
H361 H 0.18632 0.62352 0.23317 0.0
H362 H 0.12208 0.56223 0.2381 0.0
C363 C 0.13617 0.50658 0.16046 0.0
C364 C 0.17061 0.56448 0.18139 0.0
C365 C 0.13752 0.48884 0.14486 0.0
C366 C 0.17289 0.64337 0.2263 0.0
C367 C 0.17208 0.62352 0.22547 0.0
C368 C 0.13568 0.56313 0.22181 0.0
C369 C 0.15306 0.52398 0.18471 0.0
C370 C 0.15312 0.54431 0.19448 0.0
C371 C 0.15329 0.60406 0.2142 0.0
C372 C 0.15317 0.58336 0.20833 0.0
H373 H 0.18626 0.5048 0.18815 0.0
H374 H 0.1839 0.53577 0.2149 0.0
H375 H 0.12194 0.5284 0.22515 0.0
H376 H 0.12163 0.62496 0.20049 0.0
H377 H 0.12033 0.59025 0.1971 0.0
C378 C 0.62284 0.13284 0.20836 0.0
C379 C 0.63709 0.13354 0.24226 0.0
C380 C 0.60787 0.13801 0.22126 0.0
C381 C 0.57686 0.13354 0.32443 0.0
H382 H 0.55574 0.16169 0.24317 0.0
C383 C 0.49885 0.12713 0.36856 0.0
C384 C 0.48509 0.12253 0.33002 0.0
C385 C 0.51997 0.13435 0.36063 0.0
C386 C 0.56137 0.15368 0.26618 0.0
H387 H 0.64769 0.14157 0.31558 0.0
H388 H 0.62122 0.15038 0.33836 0.0
H389 H 0.5891 0.16461 0.22398 0.0
H390 H 0.48286 0.12282 0.25295 0.0
H391 H 0.51954 0.13462 0.23889 0.0
H392 H 0.5488 0.12148 0.36507 0.0
C393 C 0.6217 0.14579 0.30178 0.0
C394 C 0.58054 0.15548 0.25532 0.0
C395 C 0.6369 0.14086 0.28868 0.0
C396 C 0.4931 0.12626 0.28337 0.0
C397 C 0.5142 0.13316 0.27538 0.0
C398 C 0.55765 0.13155 0.33501 0.0
C399 C 0.60666 0.1438 0.2685 0.0
C400 C 0.58825 0.14504 0.28381 0.0
C401 C 0.52779 0.13679 0.31393 0.0
C402 C 0.54941 0.1412 0.30549 0.0
H403 H 0.6227 0.12743 0.17219 0.0
H404 H 0.59642 0.13617 0.1949 0.0
H405 H 0.5822 0.12499 0.34661 0.0
H406 H 0.49322 0.12476 0.40499 0.0
H407 H 0.53005 0.13753 0.39123 0.0
C408 C 0.35413 0.54511 0.45103 0.0
C409 C 0.35078 0.52513 0.46827 0.0
C410 C 0.37429 0.56202 0.43922 0.0
C411 C 0.42699 0.57557 0.40528 0.0
H412 H 0.44423 0.63154 0.4631 0.0
C413 C 0.51161 0.64995 0.38611 0.0
C414 C 0.5138 0.67051 0.38052 0.0
C415 C 0.49214 0.63167 0.39785 0.0
C416 C 0.43962 0.61614 0.44607 0.0
H417 H 0.36595 0.50697 0.48443 0.0
H418 H 0.40124 0.53658 0.46283 0.0
H419 H 0.40927 0.60044 0.47875 0.0
H420 H 0.49716 0.6879 0.38239 0.0
H421 H 0.46326 0.65611 0.40139 0.0
H422 H 0.4571 0.59136 0.37144 0.0
C423 C 0.38817 0.53906 0.45896 0.0
C424 C 0.4196 0.59831 0.45523 0.0
C425 C 0.36799 0.52217 0.47141 0.0
C426 C 0.49611 0.67237 0.38691 0.0
C427 C 0.47664 0.6541 0.3981 0.0
C428 C 0.44697 0.59352 0.39556 0.0
C429 C 0.39154 0.55929 0.44378 0.0
C430 C 0.41303 0.57791 0.43467 0.0
C431 C 0.47437 0.6335 0.40383 0.0
C432 C 0.45348 0.61409 0.41555 0.0
H433 H 0.34127 0.54799 0.4481 0.0
H434 H 0.37644 0.57739 0.42702 0.0
H435 H 0.42223 0.56 0.38886 0.0
H436 H 0.52497 0.64797 0.38162 0.0
H437 H 0.49107 0.61615 0.40265 0.0
C438 C 0.86147 0.48871 0.623 0.0
C439 C 0.84144 0.48592 0.62761 0.0
C440 C 0.86458 0.47149 0.63311 0.0
C441 C 0.83855 0.4162 0.68974 0.0
H442 H 0.87606 0.40849 0.60756 0.0
C443 C 0.83492 0.33444 0.66478 0.0
C444 C 0.85395 0.33504 0.6703 0.0
C445 C 0.83468 0.35377 0.66367 0.0
C446 C 0.86569 0.41059 0.63101 0.0
H447 H 0.80901 0.46286 0.6466 0.0
H448 H 0.8142 0.43282 0.66233 0.0
H449 H 0.87343 0.44081 0.59847 0.0
H450 H 0.88766 0.35632 0.67855 0.0
H451 H 0.8872 0.39017 0.67524 0.0
H452 H 0.8301 0.38533 0.72046 0.0
C453 C 0.82773 0.44841 0.65249 0.0
C454 C 0.86425 0.42916 0.62609 0.0
C455 C 0.8247 0.46567 0.64313 0.0
C456 C 0.87274 0.35535 0.67446 0.0
C457 C 0.87252 0.3747 0.67238 0.0
C458 C 0.83972 0.39748 0.69401 0.0
C459 C 0.84767 0.451 0.64737 0.0
C460 C 0.85046 0.4321 0.65502 0.0
C461 C 0.85348 0.37404 0.66714 0.0
C462 C 0.85315 0.39443 0.66441 0.0
H463 H 0.87472 0.50416 0.61138 0.0
H464 H 0.88025 0.47425 0.62956 0.0
H465 H 0.82816 0.4181 0.71349 0.0
H466 H 0.82019 0.31904 0.66165 0.0
H467 H 0.81981 0.3529 0.65927 0.0
C468 C 0.37718 0.88808 0.68897 0.0
C469 C 0.36412 0.88674 0.72667 0.0
C470 C 0.39233 0.88249 0.69598 0.0
C471 C 0.43246 0.88604 0.72892 0.0
H472 H 0.42553 0.84101 0.81677 0.0
C473 C 0.48872 0.8701 0.85443 0.0
C474 C 0.50492 0.87432 0.82239 0.0
C475 C 0.46967 0.8669 0.83784 0.0
C476 C 0.42765 0.8536 0.79202 0.0
H477 H 0.35628 0.87774 0.80096 0.0
H478 H 0.38317 0.86857 0.81368 0.0
H479 H 0.39536 0.84428 0.79678 0.0
H480 H 0.51338 0.87729 0.74754 0.0
H481 H 0.48 0.87183 0.71848 0.0
H482 H 0.46479 0.8956 0.7248 0.0
C483 C 0.38143 0.87355 0.77835 0.0
C484 C 0.41042 0.85555 0.78074 0.0
C485 C 0.36608 0.87894 0.77117 0.0
C486 C 0.50123 0.87412 0.77314 0.0
C487 C 0.48218 0.87112 0.75652 0.0
C488 C 0.44962 0.88399 0.73992 0.0
C489 C 0.395 0.87564 0.74103 0.0
C490 C 0.41271 0.87208 0.74976 0.0
C491 C 0.46641 0.86799 0.78882 0.0
C492 C 0.44751 0.86804 0.77231 0.0
H493 H 0.37587 0.89372 0.654 0.0
H494 H 0.40216 0.88382 0.66614 0.0
H495 H 0.43495 0.89921 0.70558 0.0
H496 H 0.49098 0.86998 0.8926 0.0
H497 H 0.45791 0.86471 0.86365 0.0
C498 C 0.49113 0.36246 0.85901 0.0
C499 C 0.49167 0.34351 0.84949 0.0
C500 C 0.5098 0.38248 0.86592 0.0
C501 C 0.56659 0.41181 0.8429 0.0
H502 H 0.57213 0.44195 0.96189 0.0
C503 C 0.63281 0.49099 0.96029 0.0
C504 C 0.64985 0.488 0.95363 0.0
C505 C 0.613 0.47598 0.94163 0.0
C506 C 0.57078 0.43407 0.928 0.0
H507 H 0.51217 0.33085 0.83795 0.0
H508 H 0.54462 0.36575 0.84932 0.0
H509 H 0.53803 0.41095 0.93875 0.0
H510 H 0.65944 0.46701 0.92139 0.0
H511 H 0.62506 0.44076 0.89012 0.0
H512 H 0.59929 0.43465 0.83217 0.0
C513 C 0.52981 0.36513 0.85162 0.0
C514 C 0.55123 0.41628 0.91484 0.0
C515 C 0.51122 0.34511 0.84548 0.0
C516 C 0.64673 0.46991 0.92713 0.0
C517 C 0.62697 0.4549 0.90878 0.0
C518 C 0.58606 0.4297 0.85577 0.0
C519 C 0.52929 0.38394 0.86252 0.0
C520 C 0.54912 0.40462 0.87285 0.0
C521 C 0.60981 0.45762 0.91607 0.0
C522 C 0.58855 0.44064 0.89919 0.0
H523 H 0.4763 0.36172 0.86239 0.0
H524 H 0.50901 0.39678 0.87417 0.0
H525 H 0.56529 0.40327 0.80998 0.0
H526 H 0.63468 0.50482 0.98028 0.0
H527 H 0.60019 0.47871 0.94743 0.0
C528 C 0.29881 0.50477 0.70019 0.0
C529 C 0.29773 0.51335 0.65599 0.0
C530 C 0.29277 0.51072 0.74186 0.0
C531 C 0.25541 0.52709 0.77362 0.0
H532 H 0.27025 0.51902 0.90119 0.0
C533 C 0.22119 0.50406 0.97962 0.0
C534 C 0.20082 0.487 0.96809 0.0
C535 C 0.23563 0.51593 0.94369 0.0
C536 C 0.26607 0.52185 0.86608 0.0
H537 H 0.29228 0.53705 0.6215 0.0
H538 H 0.28232 0.54787 0.69445 0.0
H539 H 0.29431 0.5262 0.83576 0.0
H540 H 0.17907 0.4701 0.9101 0.0
H541 H 0.20438 0.49025 0.84733 0.0
H542 H 0.22703 0.52245 0.80385 0.0
C543 C 0.28704 0.53595 0.69674 0.0
C544 C 0.27981 0.5257 0.82839 0.0
C545 C 0.29286 0.52982 0.65499 0.0
C546 C 0.19467 0.48314 0.92004 0.0
C547 C 0.2092 0.49483 0.88404 0.0
C548 C 0.24178 0.52348 0.8114 0.0
C549 C 0.28579 0.52556 0.7402 0.0
C550 C 0.27417 0.52727 0.78138 0.0
C551 C 0.2301 0.5108 0.89546 0.0
C552 C 0.24647 0.51975 0.85768 0.0
H553 H 0.30258 0.4921 0.70222 0.0
H554 H 0.29193 0.50226 0.77456 0.0
H555 H 0.25044 0.52814 0.73792 0.0
H556 H 0.22626 0.50766 0.01648 0.0
H557 H 0.25141 0.52848 0.95375 0.0
C558 C 0.73342 0.16254 0.11668 0.0
C559 C 0.71257 0.14726 0.1035 0.0
C560 C 0.74797 0.1763 0.08248 0.0
C561 C 0.7569 0.17949 0.95258 0.0
H562 H 0.79748 0.24069 0.97571 0.0
C563 C 0.80113 0.23752 0.79962 0.0
C564 C 0.82304 0.25115 0.80382 0.0
C565 C 0.78894 0.22616 0.83895 0.0
C566 C 0.78638 0.22357 0.96906 0.0
H567 H 0.69051 0.1351 0.04441 0.0
H568 H 0.7157 0.15925 0.98525 0.0
H569 H 0.77339 0.21827 0.03956 0.0
H570 H 0.8492 0.26424 0.85347 0.0
H571 H 0.82762 0.24423 0.92277 0.0
H572 H 0.76954 0.18475 0.88209 0.0
C573 C 0.72096 0.16027 0.02174 0.0
C574 C 0.77261 0.21074 0.00549 0.0
C575 C 0.70648 0.1465 0.05576 0.0
C576 C 0.83237 0.25381 0.84897 0.0
C577 C 0.82005 0.24243 0.88862 0.0
C578 C 0.77053 0.19227 0.91632 0.0
C579 C 0.74195 0.17507 0.03449 0.0
C580 C 0.75747 0.18864 -0.00271 0.0
C581 C 0.79828 0.22813 0.8836 0.0
C582 C 0.78514 0.21451 0.92385 0.0
H583 H 0.73865 0.16356 0.15317 0.0
H584 H 0.76404 0.18745 0.09337 0.0
H585 H 0.74585 0.1624 0.94549 0.0
H586 H 0.7933 0.23522 0.76566 0.0
H587 H 0.77214 0.2156 0.83427 0.0
C588 C 0.53816 0.72912 0.18569 0.0
C589 C 0.55397 0.72433 0.19301 0.0
C590 C 0.53476 0.73479 0.14058 0.0
C591 C 0.56602 0.76353 0.0374 0.0
H592 H 0.51382 0.75903 -0.00024 0.0
C593 C 0.56393 0.82615 0.91183 0.0
C594 C 0.55408 0.8361 0.93408 0.0
C595 C 0.56135 0.80674 0.92992 0.0
C596 C 0.52847 0.76023 0.00937 0.0
H597 H 0.57736 0.71976 0.15821 0.0
H598 H 0.57146 0.72985 0.07868 0.0
H599 H 0.51311 0.73235 0.05507 0.0
H600 H 0.53307 0.83299 0.99121 0.0
H601 H 0.52848 0.7991 0.02245 0.0
H602 H 0.58141 0.79203 0.99341 0.0
C603 C 0.56182 0.72936 0.10814 0.0
C604 C 0.52809 0.745 0.041 0.0
C605 C 0.56513 0.72349 0.15353 0.0
C606 C 0.54099 0.82582 0.97352 0.0
C607 C 0.53817 0.80629 0.99107 0.0
C608 C 0.56637 0.77863 0.00535 0.0
C609 C 0.54715 0.7359 0.10163 0.0
C610 C 0.54694 0.74726 0.05752 0.0
C611 C 0.54858 0.79675 0.96994 0.0
C612 C 0.54769 0.77777 0.99313 0.0
H613 H 0.52913 0.72964 0.21542 0.0
H614 H 0.52348 0.73992 0.13722 0.0
H615 H 0.58085 0.76587 0.04952 0.0
H616 H 0.5741 0.83367 0.8813 0.0
H617 H 0.56958 0.79972 0.91311 0.0
C618 C 0.80142 0.50737 0.41226 0.0
C619 C 0.79402 0.49999 0.45864 0.0
C620 C 0.78767 0.49927 0.37343 0.0
C621 C 0.73173 0.47647 0.34934 0.0
H622 H 0.74923 0.47579 0.21955 0.0
C623 C 0.7072 0.47668 0.13873 0.0
C624 C 0.70263 0.49333 0.1426 0.0
C625 C 0.71285 0.46944 0.17901 0.0
C626 C 0.74378 0.47537 0.25557 0.0
H627 H 0.76691 0.47682 0.50017 0.0
H628 H 0.74308 0.46238 0.43233 0.0
H629 H 0.77109 0.47729 0.28556 0.0
H630 H 0.69829 0.51382 0.19235 0.0
H631 H 0.70856 0.50159 0.2623 0.0
H632 H 0.70458 0.4749 0.3193 0.0
C633 C 0.75932 0.47489 0.42609 0.0
C634 C 0.75651 0.47655 0.29343 0.0
C635 C 0.77302 0.48312 0.46492 0.0
C636 C 0.7018 0.50103 0.18812 0.0
C637 C 0.70764 0.49392 0.22836 0.0
C638 C 0.71893 0.47515 0.31149 0.0
C639 C 0.76629 0.48347 0.38017 0.0
C640 C 0.75103 0.47796 0.34066 0.0
C641 C 0.7142 0.47882 0.22388 0.0
C642 C 0.72521 0.47544 0.2641 0.0
H643 H 0.81751 0.52036 0.40625 0.0
H644 H 0.79356 0.50641 0.33863 0.0
H645 H 0.72704 0.47764 0.38525 0.0
H646 H 0.70761 0.47013 0.10419 0.0
H647 H 0.71729 0.45737 0.17456 0.0
C648 C 0.20156 0.73531 0.35981 0.0
C649 C 0.18008 0.72668 0.35134 0.0
C650 C 0.21108 0.74723 0.40097 0.0
C651 C 0.20478 0.78152 0.48826 0.0
H652 H 0.25581 0.78713 0.53904 0.0
C653 C 0.25963 0.84491 0.63173 0.0
C654 C 0.28022 0.85852 0.61469 0.0
C655 C 0.2452 0.82644 0.60596 0.0
C656 C 0.24151 0.78561 0.52534 0.0
H657 H 0.15137 0.72242 0.38131 0.0
H658 H 0.16803 0.74303 0.4543 0.0
H659 H 0.2332 0.75652 0.48685 0.0
H660 H 0.30188 0.86346 0.5576 0.0
H661 H 0.27673 0.83076 0.5132 0.0
H662 H 0.2133 0.81072 0.52731 0.0
C663 C 0.17757 0.74092 0.4283 0.0
C664 C 0.22859 0.76817 0.49536 0.0
C665 C 0.16798 0.72895 0.38672 0.0
C666 C 0.2861 0.85334 0.57142 0.0
C667 C 0.27181 0.8346 0.54625 0.0
C668 C 0.21754 0.79874 0.51909 0.0
C669 C 0.19938 0.75074 0.43519 0.0
C670 C 0.21051 0.76639 0.47485 0.0
C671 C 0.25128 0.82102 0.56339 0.0
C672 C 0.23635 0.8013 0.53643 0.0
H673 H 0.21135 0.73371 0.33356 0.0
H674 H 0.22792 0.75472 0.40443 0.0
H675 H 0.19113 0.78084 0.47288 0.0
H676 H 0.25465 0.84856 0.66494 0.0
H677 H 0.22942 0.81617 0.61968 0.0
C678 C 0.42017 0.26309 0.6625 0.0
C679 C 0.43734 0.26885 0.69268 0.0
C680 C 0.41805 0.25217 0.61957 0.0
C681 C 0.44493 0.23524 0.53442 0.0
H682 H 0.39348 0.17859 0.53998 0.0
C683 C 0.42659 0.16264 0.40946 0.0
C684 C 0.42209 0.14384 0.43517 0.0
C685 C 0.42718 0.1802 0.43262 0.0
C686 C 0.40778 0.19444 0.53761 0.0
H687 H 0.46675 0.26979 0.69973 0.0
H688 H 0.46328 0.25116 0.62456 0.0
H689 H 0.39785 0.20787 0.59232 0.0
H690 H 0.4142 0.12851 0.50494 0.0
H691 H 0.41489 0.15904 0.54509 0.0
H692 H 0.45516 0.22137 0.48104 0.0
C693 C 0.45137 0.25485 0.63404 0.0
C694 C 0.41021 0.21125 0.56715 0.0
C695 C 0.45329 0.26538 0.67722 0.0
C696 C 0.41784 0.14281 0.48424 0.0
C697 C 0.41805 0.16018 0.50713 0.0
C698 C 0.44236 0.21848 0.50432 0.0
C699 C 0.4333 0.2473 0.60585 0.0
C700 C 0.4291 0.23156 0.56704 0.0
C701 C 0.42283 0.17906 0.4816 0.0
C702 C 0.42407 0.19773 0.50699 0.0
H703 H 0.40762 0.26554 0.67366 0.0
H704 H 0.40402 0.24657 0.59829 0.0
H705 H 0.45962 0.25077 0.53369 0.0
H706 H 0.42994 0.1639 0.37158 0.0
H707 H 0.43091 0.19462 0.41228 0.0
C708 C 0.06198 0.42053 0.03292 0.0
C709 C 0.08095 0.42879 0.00781 0.0
C710 C 0.04337 0.41451 0.00862 0.0
C711 C 0.02095 0.41825 0.89373 0.0
H712 H 0.97763 0.35846 0.92117 0.0
C713 C 0.95584 0.36431 0.75946 0.0
C714 C 0.9363 0.34766 0.77658 0.0
C715 C 0.9721 0.37728 0.79118 0.0
C716 C 0.98926 0.37533 0.91361 0.0
H717 H 0.09556 0.43875 0.93807 0.0
H718 H 0.06305 0.42825 0.89573 0.0
H719 H 0.00871 0.37662 0.97113 0.0
H720 H 0.91799 0.33241 0.84034 0.0
H721 H 0.94612 0.35545 0.89574 0.0
H722 H 0.00159 0.41685 0.83571 0.0
C723 C 0.06257 0.4264 0.93416 0.0
C724 C 0.00714 0.38574 0.9423 0.0
C725 C 0.08117 0.43228 0.95839 0.0
C726 C 0.933 0.34492 0.82607 0.0
C727 C 0.94916 0.35808 0.85781 0.0
C728 C 0.00292 0.4079 0.86523 0.0
C729 C 0.0434 0.41681 0.95883 0.0
C730 C 0.02336 0.40712 0.93206 0.0
C731 C 0.96909 0.37407 0.84076 0.0
C732 C 0.98707 0.38612 0.87417 0.0
H733 H 0.0613 0.41779 0.07106 0.0
H734 H 0.02883 0.40739 0.02857 0.0
H735 H 0.03315 0.43483 0.88533 0.0
H736 H 0.95887 0.36681 0.72149 0.0
H737 H 0.98727 0.3892 0.77663 0.0
C738 C 0.60595 0.93559 0.96698 0.0
C739 C 0.61421 0.93067 0.92725 0.0
C740 C 0.61916 0.94945 0.00268 0.0
C741 C 0.67016 0.99696 0.01645 0.0
H742 H 0.65515 0.98886 0.15066 0.0
C743 C 0.67739 0.06397 0.13732 0.0
C744 C 0.68423 0.06559 0.18456 0.0
C745 C 0.67508 0.04721 0.10796 0.0
C746 C 0.65991 0.99125 0.11354 0.0
H747 H 0.64289 0.93608 0.89437 0.0
H748 H 0.66615 0.96107 0.95643 0.0
H749 H 0.63861 0.95761 0.09644 0.0
H750 H 0.69486 0.05168 0.23797 0.0
H751 H 0.69001 0.02152 0.18669 0.0
H752 H 0.6903 0.03087 0.03292 0.0
C753 C 0.64934 0.95379 0.96004 0.0
C754 C 0.65036 0.97342 0.08252 0.0
C755 C 0.63603 0.93953 0.92462 0.0
C756 C 0.68944 0.0506 0.20162 0.0
C757 C 0.6867 0.03345 0.17243 0.0
C758 C 0.67952 0.01482 0.04736 0.0
C759 C 0.64099 0.95904 -0.00087 0.0
C760 C 0.65475 0.97631 0.0334 0.0
C761 C 0.67931 0.03154 0.12545 0.0
C762 C 0.67379 0.01225 0.09576 0.0
H763 H 0.58933 0.92925 0.97019 0.0
H764 H 0.61232 0.95352 0.03197 0.0
H765 H 0.67376 -0.00034 0.97871 0.0
H766 H 0.67378 0.07562 0.12295 0.0
H767 H 0.66915 0.046 0.07206 0.0
C768 C 0.64712 0.55497 0.14897 0.0
C769 C 0.64879 0.55803 0.09925 0.0
C770 C 0.6355 0.56137 0.17607 0.0
C771 C 0.59662 0.579 0.16777 0.0
H772 H 0.62497 0.61214 0.28145 0.0
C773 C 0.58247 0.64374 0.24948 0.0
C774 C 0.58348 0.64642 0.2993 0.0
C775 C 0.58647 0.62864 0.22841 0.0
C776 C 0.61659 0.60256 0.25039 0.0
H777 H 0.63886 0.56936 0.03877 0.0
H778 H 0.61897 0.58093 0.08609 0.0
H779 H 0.6393 0.59347 0.23808 0.0
H780 H 0.58844 0.63455 0.36624 0.0
H781 H 0.59546 0.60813 0.32931 0.0
H782 H 0.57435 0.58888 0.17931 0.0
C783 C 0.62637 0.5733 0.10415 0.0
C784 C 0.62482 0.59183 0.22546 0.0
C785 C 0.63791 0.56681 0.07701 0.0
C786 C 0.58766 0.63297 0.32774 0.0
C787 C 0.59176 0.61791 0.30661 0.0
C788 C 0.58843 0.5898 0.19266 0.0
C789 C 0.62538 0.57106 0.15411 0.0
C790 C 0.61518 0.58029 0.18331 0.0
C791 C 0.59163 0.61591 0.25666 0.0
C792 C 0.59858 0.60207 0.2337 0.0
H793 H 0.65513 0.54803 0.16716 0.0
H794 H 0.63475 0.55906 0.21438 0.0
H795 H 0.58862 0.56993 0.13589 0.0
H796 H 0.57918 0.65376 0.22652 0.0
H797 H 0.58645 0.62767 0.18983 0.0
C798 C 0.0616 0.6466 0.3077 0.0
C799 C 0.06542 0.66014 0.26797 0.0
C800 C 0.04141 0.63442 0.32717 0.0
C801 C 0.99135 0.63321 0.33296 0.0
H802 H 0.96814 0.57354 0.37535 0.0
C803 C 0.90543 0.5811 0.39206 0.0
C804 C 0.90164 0.56934 0.43472 0.0
C805 C 0.92494 0.59047 0.36956 0.0
C806 C 0.97448 0.59024 0.36397 0.0
H807 H 0.05097 0.67119 0.21703 0.0
H808 H 0.01591 0.64989 0.25058 0.0
H809 H 0.00346 0.59356 0.3412 0.0
H810 H 0.91508 0.5573 0.48601 0.0
H811 H 0.9492 0.5738 0.44685 0.0
H812 H 0.96256 0.63004 0.35584 0.0
C813 C 0.02851 0.64891 0.26723 0.0
C814 C 0.99471 0.60172 0.34451 0.0
C815 C 0.04863 0.66104 0.24784 0.0
C816 C 0.91749 0.5663 0.45322 0.0
C817 C 0.93703 0.57569 0.43068 0.0
C818 C 0.97119 0.62177 0.35231 0.0
C819 C 0.02467 0.63558 0.30732 0.0
C820 C 0.00333 0.62331 0.32863 0.0
C821 C 0.94112 0.58829 0.38919 0.0
C822 C 0.96248 0.60013 0.3679 0.0
H823 H 0.07422 0.64554 0.32403 0.0
H824 H 0.039 0.62445 0.35833 0.0
H825 H 0.99768 0.64996 0.32198 0.0
H826 H 0.89351 0.5836 0.37663 0.0
H827 H 0.92747 0.59972 0.33711 0.0
C828 C 0.37534 0.05905 0.43766 0.0
C829 C 0.36939 0.05718 0.38965 0.0
C830 C 0.36078 0.04622 0.47237 0.0
C831 C 0.31432 0.99335 0.48908 0.0
H832 H 0.31948 0.01598 0.61735 0.0
C833 C 0.28729 0.93805 0.65683 0.0
C834 C 0.30537 0.94378 0.68366 0.0
C835 C 0.28779 0.95239 0.62211 0.0
C836 C 0.31745 0.00944 0.58158 0.0
H837 H 0.34334 0.04104 0.34021 0.0
H838 H 0.31766 0.01786 0.40138 0.0
H839 H 0.33397 0.0412 0.55013 0.0
H840 H 0.33758 0.96906 0.6977 0.0
H841 H 0.33825 0.99433 0.63869 0.0
H842 H 0.29902 0.96162 0.52121 0.0
C843 C 0.33369 0.02942 0.41192 0.0
C844 C 0.32581 0.02383 0.54318 0.0
C845 C 0.34833 0.04262 0.37707 0.0
C846 C 0.32346 0.96438 0.67745 0.0
C847 C 0.32377 0.97884 0.64393 0.0
C848 C 0.30581 0.9789 0.52759 0.0
C849 C 0.33986 0.03108 0.45994 0.0
C850 C 0.32548 0.01598 0.49702 0.0
C851 C 0.30616 0.9728 0.61509 0.0
C852 C 0.30843 0.98695 0.57438 0.0
H853 H 0.39119 0.07058 0.4488 0.0
H854 H 0.36614 0.0477 0.5089 0.0
H855 H 0.31385 0.98684 0.45392 0.0
H856 H 0.27325 0.92209 0.66081 0.0
H857 H 0.27411 0.94735 0.59993 0.0
C858 C 0.35927 0.43731 0.56651 0.0
C859 C 0.35004 0.44671 0.59334 0.0
C860 C 0.36905 0.4276 0.58928 0.0
C861 C 0.39099 0.42309 0.70413 0.0
H862 H 0.37356 0.36507 0.65845 0.0
C863 C 0.40336 0.36211 0.813 0.0
C864 C 0.40807 0.34824 0.78784 0.0
C865 C 0.39836 0.37581 0.78849 0.0
C866 C 0.3789 0.38139 0.67124 0.0
H867 H 0.34486 0.45432 0.66508 0.0
H868 H 0.36192 0.43735 0.70477 0.0
H869 H 0.36202 0.3867 0.61662 0.0
H870 H 0.41195 0.33842 0.7172 0.0
H871 H 0.40366 0.36255 0.67459 0.0
H872 H 0.40781 0.41769 0.75899 0.0
C873 C 0.36161 0.43752 0.66613 0.0
C874 C 0.37227 0.39379 0.64723 0.0
C875 C 0.35174 0.44716 0.64337 0.0
C876 C 0.40817 0.34874 0.73769 0.0
C877 C 0.40332 0.36251 0.71323 0.0
C878 C 0.39775 0.41071 0.72807 0.0
C879 C 0.36991 0.42718 0.63935 0.0
C880 C 0.37811 0.41471 0.66355 0.0
C881 C 0.39809 0.37602 0.73829 0.0
C882 C 0.39166 0.38964 0.71208 0.0
H883 H 0.35836 0.4368 0.52791 0.0
H884 H 0.3756 0.42005 0.5677 0.0
H885 H 0.39589 0.43925 0.71728 0.0
H886 H 0.40313 0.36209 0.85165 0.0
H887 H 0.39417 0.3858 0.80893 0.0
loop_
_geom_bond_atom_site_label_1
_geom_bond_atom_site_label_2
_geom_bond_distance
_geom_bond_site_symmetry_2
_ccdc_geom_bond_type
Mg0 O1 2.028 . S
Mg0 O7 1.986 1_554 S
Mg0 O9 2.114 . S
Mg0 O10 2.251 . S
Mg0 O13 2.010 . S
O1 Mg0 2.028 . S
O1 C4 1.250 . S
O2 Mg3 2.028 . S
O2 C4 1.248 . S
Mg3 O2 2.028 . S
Mg3 O8 2.032 1_554 S
Mg3 O10 2.079 . S
C4 O1 1.250 . S
C4 O2 1.248 . S
C5 O6 1.264 . S
C5 O13 1.249 . S
O6 C5 1.264 . S
O7 Mg0 1.986 1_556 S
O7 C11 1.246 . S
O8 Mg3 2.032 1_556 S
O8 C11 1.259 . S
O9 Mg0 2.114 . S
O9 C12 1.252 . S
O10 Mg0 2.251 . S
O10 Mg3 2.079 . S
O10 C12 1.273 . S
C11 O7 1.246 . S
C11 O8 1.259 . S
C12 O9 1.252 . S
C12 O10 1.273 . S
O13 Mg0 2.010 . S
O13 C5 1.249 . S
Mg14 O15 2.028 . S
Mg14 O21 1.986 . S
Mg14 O23 2.114 . S
Mg14 O24 2.251 . S
Mg14 O27 2.010 . S
O15 Mg14 2.028 . S
O15 C18 1.250 . S
O16 Mg17 2.028 . S
O16 C18 1.248 . S
Mg17 O16 2.028 . S
Mg17 O22 2.032 . S
Mg17 O24 2.079 . S
C18 O15 1.250 . S
C18 O16 1.248 . S
C19 O20 1.264 . S
C19 O27 1.249 . S
O20 C19 1.264 . S
O21 Mg14 1.986 . S
O21 C25 1.246 . S
O22 Mg17 2.032 . S
O22 C25 1.259 . S
O23 Mg14 2.114 . S
O23 C26 1.252 . S
O24 Mg14 2.251 . S
O24 Mg17 2.079 . S
O24 C26 1.273 . S
C25 O21 1.246 . S
C25 O22 1.259 . S
C26 O23 1.252 . S
C26 O24 1.273 . S
O27 Mg14 2.010 . S
O27 C19 1.249 . S
Mg28 O29 2.028 . S
Mg28 O35 1.986 . S
Mg28 O37 2.114 . S
Mg28 O38 2.251 . S
Mg28 O41 2.010 . S
O29 Mg28 2.028 . S
O29 C32 1.250 . S
O30 Mg31 2.028 . S
O30 C32 1.248 . S
Mg31 O30 2.028 . S
Mg31 O36 2.032 . S
Mg31 O38 2.079 . S
C32 O29 1.250 . S
C32 O30 1.248 . S
C33 O34 1.264 . S
C33 O41 1.249 . S
O34 C33 1.264 . S
O35 Mg28 1.986 . S
O35 C39 1.246 . S
O36 Mg31 2.032 . S
O36 C39 1.259 . S
O37 Mg28 2.114 . S
O37 C40 1.252 . S
O38 Mg28 2.251 . S
O38 Mg31 2.079 . S
O38 C40 1.273 . S
C39 O35 1.246 . S
C39 O36 1.259 . S
C40 O37 1.252 . S
C40 O38 1.273 . S
O41 Mg28 2.010 . S
O41 C33 1.249 . S
Mg42 O43 2.028 . S
Mg42 O49 1.986 . S
Mg42 O51 2.114 . S
Mg42 O52 2.251 . S
Mg42 O55 2.010 . S
O43 Mg42 2.028 . S
O43 C46 1.250 . S
O44 Mg45 2.028 . S
O44 C46 1.248 . S
Mg45 O44 2.028 . S
Mg45 O50 2.032 . S
Mg45 O52 2.079 . S
C46 O43 1.250 . S
C46 O44 1.248 . S
C47 O48 1.264 . S
C47 O55 1.249 . S
O48 C47 1.264 . S
O49 Mg42 1.986 . S
O49 C53 1.246 . S
O50 Mg45 2.032 . S
O50 C53 1.259 . S
O51 Mg42 2.114 . S
O51 C54 1.252 . S
O52 Mg42 2.251 . S
O52 Mg45 2.079 . S
O52 C54 1.273 . S
C53 O49 1.246 . S
C53 O50 1.259 . S
C54 O51 1.252 . S
C54 O52 1.273 . S
O55 Mg42 2.010 . S
O55 C47 1.249 . S
Mg56 O57 2.028 . S
Mg56 O63 1.986 . S
Mg56 O65 2.114 . S
Mg56 O66 2.251 . S
Mg56 O69 2.010 . S
O57 Mg56 2.028 . S
O57 C60 1.250 . S
O58 Mg59 2.028 . S
O58 C60 1.248 . S
Mg59 O58 2.028 . S
Mg59 O64 2.032 . S
Mg59 O66 2.079 . S
C60 O57 1.250 . S
C60 O58 1.248 . S
C61 O62 1.264 . S
C61 O69 1.249 . S
O62 C61 1.264 . S
O63 Mg56 1.986 . S
O63 C67 1.246 . S
O64 Mg59 2.032 . S
O64 C67 1.259 . S
O65 Mg56 2.114 . S
O65 C68 1.252 . S
O66 Mg56 2.251 . S
O66 Mg59 2.079 . S
O66 C68 1.273 . S
C67 O63 1.246 . S
C67 O64 1.259 . S
C68 O65 1.252 . S
C68 O66 1.273 . S
O69 Mg56 2.010 . S
O69 C61 1.249 . S
Mg70 O71 2.028 . S
Mg70 O77 1.986 . S
Mg70 O79 2.114 . S
Mg70 O80 2.251 . S
Mg70 O83 2.010 . S
O71 Mg70 2.028 . S
O71 C74 1.250 . S
O72 Mg73 2.028 . S
O72 C74 1.248 . S
Mg73 O72 2.028 . S
Mg73 O78 2.032 . S
Mg73 O80 2.079 . S
C74 O71 1.250 . S
C74 O72 1.248 . S
C75 O76 1.264 . S
C75 O83 1.249 . S
O76 C75 1.264 . S
O77 Mg70 1.986 . S
O77 C81 1.246 . S
O78 Mg73 2.032 . S
O78 C81 1.259 . S
O79 Mg70 2.114 . S
O79 C82 1.252 . S
O80 Mg70 2.251 . S
O80 Mg73 2.079 . S
O80 C82 1.273 . S
C81 O77 1.246 . S
C81 O78 1.259 . S
C82 O79 1.252 . S
C82 O80 1.273 . S
O83 Mg70 2.010 . S
O83 C75 1.249 . S
Mg84 O85 2.028 . S
Mg84 O91 1.986 . S
Mg84 O93 2.114 . S
Mg84 O94 2.251 . S
Mg84 O97 2.010 . S
O85 Mg84 2.028 . S
O85 C88 1.250 . S
O86 Mg87 2.028 . S
O86 C88 1.248 . S
Mg87 O86 2.028 . S
Mg87 O92 2.032 . S
Mg87 O94 2.079 . S
C88 O85 1.250 . S
C88 O86 1.248 . S
C89 O90 1.264 . S
C89 O97 1.249 . S
O90 C89 1.264 . S
O91 Mg84 1.986 . S
O91 C95 1.246 . S
O92 Mg87 2.032 . S
O92 C95 1.259 . S
O93 Mg84 2.114 . S
O93 C96 1.252 . S
O94 Mg84 2.251 . S
O94 Mg87 2.079 . S
O94 C96 1.273 . S
C95 O91 1.246 . S
C95 O92 1.259 . S
C96 O93 1.252 . S
C96 O94 1.273 . S
O97 Mg84 2.010 . S
O97 C89 1.249 . S
Mg98 O99 2.028 . S
Mg98 O105 1.986 . S
Mg98 O107 2.114 1_554 S
Mg98 O108 2.251 1_554 S
Mg98 O111 2.010 . S
O99 Mg98 2.028 . S
O99 C102 1.250 . S
O100 Mg101 2.028 . S
O100 C102 1.248 . S
Mg101 O100 2.028 . S
Mg101 O106 2.032 . S
Mg101 O108 2.079 1_554 S
C102 O99 1.250 . S
C102 O100 1.248 . S
C103 O104 1.264 . S
C103 O111 1.249 . S
O104 C103 1.264 . S
O105 Mg98 1.986 . S
O105 C109 1.246 . S
O106 Mg101 2.032 . S
O106 C109 1.259 . S
O107 Mg98 2.114 1_556 S
O107 C110 1.252 . S
O108 Mg98 2.251 1_556 S
O108 Mg101 2.079 1_556 S
O108 C110 1.273 . S
C109 O105 1.246 . S
C109 O106 1.259 . S
C110 O107 1.252 . S
C110 O108 1.273 . S
O111 Mg98 2.010 . S
O111 C103 1.249 . S
Mg112 O113 2.028 . S
Mg112 O119 1.986 . S
Mg112 O121 2.114 . S
Mg112 O122 2.251 . S
Mg112 O125 2.010 . S
O113 Mg112 2.028 . S
O113 C116 1.250 . S
O114 Mg115 2.028 . S
O114 C116 1.248 . S
Mg115 O114 2.028 . S
Mg115 O120 2.032 . S
Mg115 O122 2.079 . S
C116 O113 1.250 . S
C116 O114 1.248 . S
C117 O118 1.264 . S
C117 O125 1.249 . S
O118 C117 1.264 . S
O119 Mg112 1.986 . S
O119 C123 1.246 . S
O120 Mg115 2.032 . S
O120 C123 1.259 . S
O121 Mg112 2.114 . S
O121 C124 1.252 . S
O122 Mg112 2.251 . S
O122 Mg115 2.079 . S
O122 C124 1.273 . S
C123 O119 1.246 . S
C123 O120 1.259 . S
C124 O121 1.252 . S
C124 O122 1.273 . S
O125 Mg112 2.010 . S
O125 C117 1.249 . S
Mg126 O127 2.028 . S
Mg126 O133 1.986 . S
Mg126 O135 2.114 . S
Mg126 O136 2.251 . S
Mg126 O139 2.010 . S
O127 Mg126 2.028 . S
O127 C130 1.250 . S
O128 Mg129 2.028 . S
O128 C130 1.248 . S
Mg129 O128 2.028 . S
Mg129 O134 2.032 . S
Mg129 O136 2.079 . S
C130 O127 1.250 . S
C130 O128 1.248 . S
C131 O132 1.264 . S
C131 O139 1.249 . S
O132 C131 1.264 . S
O133 Mg126 1.986 . S
O133 C137 1.246 . S
O134 Mg129 2.032 . S
O134 C137 1.259 . S
O135 Mg126 2.114 . S
O135 C138 1.252 . S
O136 Mg126 2.251 . S
O136 Mg129 2.079 . S
O136 C138 1.273 . S
C137 O133 1.246 . S
C137 O134 1.259 . S
C138 O135 1.252 . S
C138 O136 1.273 . S
O139 Mg126 2.010 . S
O139 C131 1.249 . S
Mg140 O141 2.028 . S
Mg140 O147 1.986 . S
Mg140 O149 2.114 . S
Mg140 O150 2.251 . S
Mg140 O153 2.010 . S
O141 Mg140 2.028 . S
O141 C144 1.250 . S
O142 Mg143 2.028 . S
O142 C144 1.248 . S
Mg143 O142 2.028 . S
Mg143 O148 2.032 . S
Mg143 O150 2.079 . S
C144 O141 1.250 . S
C144 O142 1.248 . S
C145 O146 1.264 . S
C145 O153 1.249 . S
O146 C145 1.264 . S
O147 Mg140 1.986 . S
O147 C151 1.246 . S
O148 Mg143 2.032 . S
O148 C151 1.259 . S
O149 Mg140 2.114 . S
O149 C152 1.252 . S
O150 Mg140 2.251 . S
O150 Mg143 2.079 . S
O150 C152 1.273 . S
C151 O147 1.246 . S
C151 O148 1.259 . S
C152 O149 1.252 . S
C152 O150 1.273 . S
O153 Mg140 2.010 . S
O153 C145 1.249 . S
Mg154 O155 2.028 . S
Mg154 O161 1.986 . S
Mg154 O163 2.114 . S
Mg154 O164 2.251 . S
Mg154 O167 2.010 . S
O155 Mg154 2.028 . S
O155 C158 1.250 . S
O156 Mg157 2.028 . S
O156 C158 1.248 . S
Mg157 O156 2.028 . S
Mg157 O162 2.032 . S
Mg157 O164 2.079 . S
C158 O155 1.250 . S
C158 O156 1.248 . S
C159 O160 1.264 . S
C159 O167 1.249 . S
O160 C159 1.264 . S
O161 Mg154 1.986 . S
O161 C165 1.246 . S
O162 Mg157 2.032 . S
O162 C165 1.259 . S
O163 Mg154 2.114 . S
O163 C166 1.252 . S
O164 Mg154 2.251 . S
O164 Mg157 2.079 . S
O164 C166 1.273 . S
C165 O161 1.246 . S
C165 O162 1.259 . S
C166 O163 1.252 . S
C166 O164 1.273 . S
O167 Mg154 2.010 . S
O167 C159 1.249 . S
C168 C169 1.349 . S
C168 C170 1.327 . S
C168 H193 0.950 . S
C169 C168 1.349 . S
C169 C185 1.349 . S
C170 C168 1.327 . S
C170 C189 1.429 . S
C170 H194 0.950 . S
C171 C188 1.574 . S
C171 C190 1.368 . S
C171 H195 0.949 . S
H172 C176 0.949 . S
C173 C174 1.349 . S
C173 C175 1.327 . S
C173 H196 0.950 . S
C174 C173 1.349 . S
C174 C186 1.349 . S
C175 C173 1.327 . S
C175 C191 1.429 . S
C175 H197 0.950 . S
C176 H172 0.949 . S
C176 C184 1.574 . S
C176 C192 1.368 . S
H177 C185 0.950 . S
H178 C183 0.950 . S
H179 C184 0.949 . S
H180 C186 0.950 . S
H181 C187 0.950 . S
H182 C188 0.949 . S
C183 H178 0.950 . S
C183 C185 1.327 . S
C183 C189 1.429 . S
C184 C176 1.574 . S
C184 H179 0.949 . S
C184 C190 1.368 . S
C185 C169 1.349 . S
C185 H177 0.950 . S
C185 C183 1.327 . S
C186 C174 1.349 . S
C186 H180 0.950 . S
C186 C187 1.327 . S
C187 H181 0.950 . S
C187 C186 1.327 . S
C187 C191 1.429 . S
C188 C171 1.574 . S
C188 H182 0.949 . S
C188 C192 1.368 . S
C189 C170 1.429 . S
C189 C183 1.429 . S
C189 C190 1.523 . S
C190 C171 1.368 . S
C190 C184 1.368 . S
C190 C189 1.523 . S
C191 C175 1.429 . S
C191 C187 1.429 . S
C191 C192 1.523 . S
C192 C176 1.368 . S
C192 C188 1.368 . S
C192 C191 1.523 . S
H193 C168 0.950 . S
H194 C170 0.950 . S
H195 C171 0.949 . S
H196 C173 0.950 . S
H197 C175 0.950 . S
C198 C199 1.349 . S
C198 C200 1.327 . S
C198 H223 0.950 . S
C199 C198 1.349 . S
C199 C215 1.349 . S
C200 C198 1.327 . S
C200 C219 1.429 . S
C200 H224 0.950 . S
C201 C218 1.574 . S
C201 C220 1.368 . S
C201 H225 0.949 . S
H202 C206 0.949 . S
C203 C204 1.349 . S
C203 C205 1.327 . S
C203 H226 0.950 . S
C204 C203 1.349 . S
C204 C216 1.349 . S
C205 C203 1.327 . S
C205 C221 1.429 . S
C205 H227 0.950 . S
C206 H202 0.949 . S
C206 C214 1.574 . S
C206 C222 1.368 . S
H207 C215 0.950 . S
H208 C213 0.950 . S
H209 C214 0.949 . S
H210 C216 0.950 . S
H211 C217 0.950 . S
H212 C218 0.949 . S
C213 H208 0.950 . S
C213 C215 1.327 . S
C213 C219 1.429 . S
C214 C206 1.574 . S
C214 H209 0.949 . S
C214 C220 1.368 . S
C215 C199 1.349 . S
C215 H207 0.950 . S
C215 C213 1.327 . S
C216 C204 1.349 . S
C216 H210 0.950 . S
C216 C217 1.327 . S
C217 H211 0.950 . S
C217 C216 1.327 . S
C217 C221 1.429 . S
C218 C201 1.574 . S
C218 H212 0.949 . S
C218 C222 1.368 . S
C219 C200 1.429 . S
C219 C213 1.429 . S
C219 C220 1.523 . S
C220 C201 1.368 . S
C220 C214 1.368 . S
C220 C219 1.523 . S
C221 C205 1.429 . S
C221 C217 1.429 . S
C221 C222 1.523 . S
C222 C206 1.368 . S
C222 C218 1.368 . S
C222 C221 1.523 . S
H223 C198 0.950 . S
H224 C200 0.950 . S
H225 C201 0.949 . S
H226 C203 0.950 . S
H227 C205 0.950 . S
C228 C229 1.349 . S
C228 C230 1.327 . S
C228 H253 0.950 . S
C229 C228 1.349 . S
C229 C245 1.349 . S
C230 C228 1.327 . S
C230 C249 1.429 . S
C230 H254 0.950 . S
C231 C248 1.574 . S
C231 C250 1.368 . S
C231 H255 0.949 . S
H232 C236 0.949 . S
C233 C234 1.349 . S
C233 C235 1.327 . S
C233 H256 0.950 . S
C234 C233 1.349 . S
C234 C246 1.349 . S
C235 C233 1.327 . S
C235 C251 1.429 . S
C235 H257 0.950 . S
C236 H232 0.949 . S
C236 C244 1.574 . S
C236 C252 1.368 . S
H237 C245 0.950 . S
H238 C243 0.950 . S
H239 C244 0.949 . S
H240 C246 0.950 . S
H241 C247 0.950 . S
H242 C248 0.949 . S
C243 H238 0.950 . S
C243 C245 1.327 . S
C243 C249 1.429 . S
C244 C236 1.574 . S
C244 H239 0.949 . S
C244 C250 1.368 . S
C245 C229 1.349 . S
C245 H237 0.950 . S
C245 C243 1.327 . S
C246 C234 1.349 . S
C246 H240 0.950 . S
C246 C247 1.327 . S
C247 H241 0.950 . S
C247 C246 1.327 . S
C247 C251 1.429 . S
C248 C231 1.574 . S
C248 H242 0.949 . S
C248 C252 1.368 . S
C249 C230 1.429 . S
C249 C243 1.429 . S
C249 C250 1.523 . S
C250 C231 1.368 . S
C250 C244 1.368 . S
C250 C249 1.523 . S
C251 C235 1.429 . S
C251 C247 1.429 . S
C251 C252 1.523 . S
C252 C236 1.368 . S
C252 C248 1.368 . S
C252 C251 1.523 . S
H253 C228 0.950 . S
H254 C230 0.950 . S
H255 C231 0.949 . S
H256 C233 0.950 . S
H257 C235 0.950 . S
C258 C259 1.349 . S
C258 C260 1.327 . S
C258 H283 0.950 . S
C259 C258 1.349 . S
C259 C275 1.349 . S
C260 C258 1.327 . S
C260 C279 1.429 . S
C260 H284 0.950 . S
C261 C278 1.574 . S
C261 C280 1.368 . S
C261 H285 0.949 . S
H262 C266 0.949 . S
C263 C264 1.349 . S
C263 C265 1.327 . S
C263 H286 0.950 . S
C264 C263 1.349 . S
C264 C276 1.349 . S
C265 C263 1.327 . S
C265 C281 1.429 . S
C265 H287 0.950 . S
C266 H262 0.949 . S
C266 C274 1.574 . S
C266 C282 1.368 . S
H267 C275 0.950 . S
H268 C273 0.950 . S
H269 C274 0.949 . S
H270 C276 0.950 . S
H271 C277 0.950 . S
H272 C278 0.949 . S
C273 H268 0.950 . S
C273 C275 1.327 . S
C273 C279 1.429 . S
C274 C266 1.574 . S
C274 H269 0.949 . S
C274 C280 1.368 . S
C275 C259 1.349 . S
C275 H267 0.950 . S
C275 C273 1.327 . S
C276 C264 1.349 . S
C276 H270 0.950 . S
C276 C277 1.327 . S
C277 H271 0.950 . S
C277 C276 1.327 . S
C277 C281 1.429 . S
C278 C261 1.574 . S
C278 H272 0.949 . S
C278 C282 1.368 . S
C279 C260 1.429 . S
C279 C273 1.429 . S
C279 C280 1.523 . S
C280 C261 1.368 . S
C280 C274 1.368 . S
C280 C279 1.523 . S
C281 C265 1.429 . S
C281 C277 1.429 . S
C281 C282 1.523 . S
C282 C266 1.368 . S
C282 C278 1.368 . S
C282 C281 1.523 . S
H283 C258 0.950 . S
H284 C260 0.950 . S
H285 C261 0.949 . S
H286 C263 0.950 . S
H287 C265 0.950 . S
C288 C289 1.349 . S
C288 C290 1.327 . S
C288 H313 0.950 . S
C289 C288 1.349 . S
C289 C305 1.349 . S
C290 C288 1.327 . S
C290 C309 1.429 . S
C290 H314 0.950 . S
C291 C308 1.574 1_556 S
C291 C310 1.368 . S
C291 H315 0.949 . S
H292 C296 0.949 . S
C293 C294 1.349 . S
C293 C295 1.327 . S
C293 H316 0.950 . S
C294 C293 1.349 . S
C294 C306 1.349 . S
C295 C293 1.327 . S
C295 C311 1.429 . S
C295 H317 0.950 . S
C296 H292 0.949 . S
C296 C304 1.574 1_554 S
C296 C312 1.368 . S
H297 C305 0.950 . S
H298 C303 0.950 . S
H299 C304 0.949 . S
H300 C306 0.950 . S
H301 C307 0.950 . S
H302 C308 0.949 . S
C303 H298 0.950 . S
C303 C305 1.327 . S
C303 C309 1.429 . S
C304 C296 1.574 1_556 S
C304 H299 0.949 . S
C304 C310 1.368 . S
C305 C289 1.349 . S
C305 H297 0.950 . S
C305 C303 1.327 . S
C306 C294 1.349 . S
C306 H300 0.950 . S
C306 C307 1.327 . S
C307 H301 0.950 . S
C307 C306 1.327 . S
C307 C311 1.429 . S
C308 C291 1.574 1_554 S
C308 H302 0.949 . S
C308 C312 1.368 . S
C309 C290 1.429 . S
C309 C303 1.429 . S
C309 C310 1.523 . S
C310 C291 1.368 . S
C310 C304 1.368 . S
C310 C309 1.523 . S
C311 C295 1.429 . S
C311 C307 1.429 . S
C311 C312 1.523 . S
C312 C296 1.368 . S
C312 C308 1.368 . S
C312 C311 1.523 . S
H313 C288 0.950 . S
H314 C290 0.950 . S
H315 C291 0.949 . S
H316 C293 0.950 . S
H317 C295 0.950 . S
C318 C319 1.349 . S
C318 C320 1.327 . S
C318 H343 0.950 . S
C319 C318 1.349 . S
C319 C335 1.349 . S
C320 C318 1.327 . S
C320 C339 1.429 . S
C320 H344 0.950 . S
C321 C338 1.574 . S
C321 C340 1.368 . S
C321 H345 0.949 . S
H322 C326 0.949 . S
C323 C324 1.349 . S
C323 C325 1.327 1_556 S
C323 H346 0.950 . S
C324 C323 1.349 . S
C324 C336 1.349 . S
C325 C323 1.327 1_554 S
C325 C341 1.429 . S
C325 H347 0.950 . S
C326 H322 0.949 . S
C326 C334 1.574 . S
C326 C342 1.368 . S
H327 C335 0.950 . S
H328 C333 0.950 . S
H329 C334 0.949 . S
H330 C336 0.950 . S
H331 C337 0.950 . S
H332 C338 0.949 . S
C333 H328 0.950 . S
C333 C335 1.327 . S
C333 C339 1.429 . S
C334 C326 1.574 . S
C334 H329 0.949 . S
C334 C340 1.368 . S
C335 C319 1.349 . S
C335 H327 0.950 . S
C335 C333 1.327 . S
C336 C324 1.349 . S
C336 H330 0.950 . S
C336 C337 1.327 . S
C337 H331 0.950 . S
C337 C336 1.327 . S
C337 C341 1.429 1_556 S
C338 C321 1.574 . S
C338 H332 0.949 . S
C338 C342 1.368 . S
C339 C320 1.429 . S
C339 C333 1.429 . S
C339 C340 1.523 . S
C340 C321 1.368 . S
C340 C334 1.368 . S
C340 C339 1.523 . S
C341 C325 1.429 . S
C341 C337 1.429 1_554 S
C341 C342 1.523 . S
C342 C326 1.368 . S
C342 C338 1.368 . S
C342 C341 1.523 . S
H343 C318 0.950 . S
H344 C320 0.950 . S
H345 C321 0.949 . S
H346 C323 0.950 . S
H347 C325 0.950 . S
C348 C349 1.349 . S
C348 C350 1.327 . S
C348 H373 0.950 . S
C349 C348 1.349 . S
C349 C365 1.349 . S
C350 C348 1.327 . S
C350 C369 1.429 . S
C350 H374 0.950 . S
C351 C368 1.574 . S
C351 C370 1.368 . S
C351 H375 0.949 . S
H352 C356 0.949 . S
C353 C354 1.349 . S
C353 C355 1.327 . S
C353 H376 0.950 . S
C354 C353 1.349 . S
C354 C366 1.349 . S
C355 C353 1.327 . S
C355 C371 1.429 . S
C355 H377 0.950 . S
C356 H352 0.949 . S
C356 C364 1.574 . S
C356 C372 1.368 . S
H357 C365 0.950 . S
H358 C363 0.950 . S
H359 C364 0.949 . S
H360 C366 0.950 . S
H361 C367 0.950 . S
H362 C368 0.949 . S
C363 H358 0.950 . S
C363 C365 1.327 . S
C363 C369 1.429 . S
C364 C356 1.574 . S
C364 H359 0.949 . S
C364 C370 1.368 . S
C365 C349 1.349 . S
C365 H357 0.950 . S
C365 C363 1.327 . S
C366 C354 1.349 . S
C366 H360 0.950 . S
C366 C367 1.327 . S
C367 H361 0.950 . S
C367 C366 1.327 . S
C367 C371 1.429 . S
C368 C351 1.574 . S
C368 H362 0.949 . S
C368 C372 1.368 . S
C369 C350 1.429 . S
C369 C363 1.429 . S
C369 C370 1.523 . S
C370 C351 1.368 . S
C370 C364 1.368 . S
C370 C369 1.523 . S
C371 C355 1.429 . S
C371 C367 1.429 . S
C371 C372 1.523 . S
C372 C356 1.368 . S
C372 C368 1.368 . S
C372 C371 1.523 . S
H373 C348 0.950 . S
H374 C350 0.950 . S
H375 C351 0.949 . S
H376 C353 0.950 . S
H377 C355 0.950 . S
C378 C379 1.349 . S
C378 C380 1.327 . S
C378 H403 0.950 . S
C379 C378 1.349 . S
C379 C395 1.349 . S
C380 C378 1.327 . S
C380 C399 1.429 . S
C380 H404 0.950 . S
C381 C398 1.574 . S
C381 C400 1.368 . S
C381 H405 0.949 . S
H382 C386 0.949 . S
C383 C384 1.349 . S
C383 C385 1.327 . S
C383 H406 0.950 . S
C384 C383 1.349 . S
C384 C396 1.349 . S
C385 C383 1.327 . S
C385 C401 1.429 . S
C385 H407 0.950 . S
C386 H382 0.949 . S
C386 C394 1.574 . S
C386 C402 1.368 . S
H387 C395 0.950 . S
H388 C393 0.950 . S
H389 C394 0.949 . S
H390 C396 0.950 . S
H391 C397 0.950 . S
H392 C398 0.949 . S
C393 H388 0.950 . S
C393 C395 1.327 . S
C393 C399 1.429 . S
C394 C386 1.574 . S
C394 H389 0.949 . S
C394 C400 1.368 . S
C395 C379 1.349 . S
C395 H387 0.950 . S
C395 C393 1.327 . S
C396 C384 1.349 . S
C396 H390 0.950 . S
C396 C397 1.327 . S
C397 H391 0.950 . S
C397 C396 1.327 . S
C397 C401 1.429 . S
C398 C381 1.574 . S
C398 H392 0.949 . S
C398 C402 1.368 . S
C399 C380 1.429 . S
C399 C393 1.429 . S
C399 C400 1.523 . S
C400 C381 1.368 . S
C400 C394 1.368 . S
C400 C399 1.523 . S
C401 C385 1.429 . S
C401 C397 1.429 . S
C401 C402 1.523 . S
C402 C386 1.368 . S
C402 C398 1.368 . S
C402 C401 1.523 . S
H403 C378 0.950 . S
H404 C380 0.950 . S
H405 C381 0.949 . S
H406 C383 0.950 . S
H407 C385 0.950 . S
C408 C409 1.349 . S
C408 C410 1.327 . S
C408 H433 0.950 . S
C409 C408 1.349 . S
C409 C425 1.349 . S
C410 C408 1.327 . S
C410 C429 1.429 . S
C410 H434 0.950 . S
C411 C428 1.574 . S
C411 C430 1.368 . S
C411 H435 0.949 . S
H412 C416 0.949 . S
C413 C414 1.349 . S
C413 C415 1.327 . S
C413 H436 0.950 . S
C414 C413 1.349 . S
C414 C426 1.349 . S
C415 C413 1.327 . S
C415 C431 1.429 . S
C415 H437 0.950 . S
C416 H412 0.949 . S
C416 C424 1.574 . S
C416 C432 1.368 . S
H417 C425 0.950 . S
H418 C423 0.950 . S
H419 C424 0.949 . S
H420 C426 0.950 . S
H421 C427 0.950 . S
H422 C428 0.949 . S
C423 H418 0.950 . S
C423 C425 1.327 . S
C423 C429 1.429 . S
C424 C416 1.574 . S
C424 H419 0.949 . S
C424 C430 1.368 . S
C425 C409 1.349 . S
C425 H417 0.950 . S
C425 C423 1.327 . S
C426 C414 1.349 . S
C426 H420 0.950 . S
C426 C427 1.327 . S
C427 H421 0.950 . S
C427 C426 1.327 . S
C427 C431 1.429 . S
C428 C411 1.574 . S
C428 H422 0.949 . S
C428 C432 1.368 . S
C429 C410 1.429 . S
C429 C423 1.429 . S
C429 C430 1.523 . S
C430 C411 1.368 . S
C430 C424 1.368 . S
C430 C429 1.523 . S
C431 C415 1.429 . S
C431 C427 1.429 . S
C431 C432 1.523 . S
C432 C416 1.368 . S
C432 C428 1.368 . S
C432 C431 1.523 . S
H433 C408 0.950 . S
H434 C410 0.950 . S
H435 C411 0.949 . S
H436 C413 0.950 . S
H437 C415 0.950 . S
C438 C439 1.349 . S
C438 C440 1.327 . S
C438 H463 0.950 . S
C439 C438 1.349 . S
C439 C455 1.349 . S
C440 C438 1.327 . S
C440 C459 1.429 . S
C440 H464 0.950 . S
C441 C458 1.574 . S
C441 C460 1.368 . S
C441 H465 0.949 . S
H442 C446 0.949 . S
C443 C444 1.349 . S
C443 C445 1.327 . S
C443 H466 0.950 . S
C444 C443 1.349 . S
C444 C456 1.349 . S
C445 C443 1.327 . S
C445 C461 1.429 . S
C445 H467 0.950 . S
C446 H442 0.949 . S
C446 C454 1.574 . S
C446 C462 1.368 . S
H447 C455 0.950 . S
H448 C453 0.950 . S
H449 C454 0.949 . S
H450 C456 0.950 . S
H451 C457 0.950 . S
H452 C458 0.949 . S
C453 H448 0.950 . S
C453 C455 1.327 . S
C453 C459 1.429 . S
C454 C446 1.574 . S
C454 H449 0.949 . S
C454 C460 1.368 . S
C455 C439 1.349 . S
C455 H447 0.950 . S
C455 C453 1.327 . S
C456 C444 1.349 . S
C456 H450 0.950 . S
C456 C457 1.327 . S
C457 H451 0.950 . S
C457 C456 1.327 . S
C457 C461 1.429 . S
C458 C441 1.574 . S
C458 H452 0.949 . S
C458 C462 1.368 . S
C459 C440 1.429 . S
C459 C453 1.429 . S
C459 C460 1.523 . S
C460 C441 1.368 . S
C460 C454 1.368 . S
C460 C459 1.523 . S
C461 C445 1.429 . S
C461 C457 1.429 . S
C461 C462 1.523 . S
C462 C446 1.368 . S
C462 C458 1.368 . S
C462 C461 1.523 . S
H463 C438 0.950 . S
H464 C440 0.950 . S
H465 C441 0.949 . S
H466 C443 0.950 . S
H467 C445 0.950 . S
C468 C469 1.349 . S
C468 C470 1.327 . S
C468 H493 0.950 . S
C469 C468 1.349 . S
C469 C485 1.349 . S
C470 C468 1.327 . S
C470 C489 1.429 . S
C470 H494 0.950 . S
C471 C488 1.574 . S
C471 C490 1.368 . S
C471 H495 0.949 . S
H472 C476 0.949 . S
C473 C474 1.349 . S
C473 C475 1.327 . S
C473 H496 0.950 . S
C474 C473 1.349 . S
C474 C486 1.349 . S
C475 C473 1.327 . S
C475 C491 1.429 . S
C475 H497 0.950 . S
C476 H472 0.949 . S
C476 C484 1.574 . S
C476 C492 1.368 . S
H477 C485 0.950 . S
H478 C483 0.950 . S
H479 C484 0.949 . S
H480 C486 0.950 . S
H481 C487 0.950 . S
H482 C488 0.949 . S
C483 H478 0.950 . S
C483 C485 1.327 . S
C483 C489 1.429 . S
C484 C476 1.574 . S
C484 H479 0.949 . S
C484 C490 1.368 . S
C485 C469 1.349 . S
C485 H477 0.950 . S
C485 C483 1.327 . S
C486 C474 1.349 . S
C486 H480 0.950 . S
C486 C487 1.327 . S
C487 H481 0.950 . S
C487 C486 1.327 . S
C487 C491 1.429 . S
C488 C471 1.574 . S
C488 H482 0.949 . S
C488 C492 1.368 . S
C489 C470 1.429 . S
C489 C483 1.429 . S
C489 C490 1.523 . S
C490 C471 1.368 . S
C490 C484 1.368 . S
C490 C489 1.523 . S
C491 C475 1.429 . S
C491 C487 1.429 . S
C491 C492 1.523 . S
C492 C476 1.368 . S
C492 C488 1.368 . S
C492 C491 1.523 . S
H493 C468 0.950 . S
H494 C470 0.950 . S
H495 C471 0.949 . S
H496 C473 0.950 . S
H497 C475 0.950 . S
C498 C499 1.349 . S
C498 C500 1.327 . S
C498 H523 0.950 . S
C499 C498 1.349 . S
C499 C515 1.349 . S
C500 C498 1.327 . S
C500 C519 1.429 . S
C500 H524 0.950 . S
C501 C518 1.574 . S
C501 C520 1.368 . S
C501 H525 0.949 . S
H502 C506 0.949 1_554 S
C503 C504 1.349 1_556 S
C503 C505 1.327 . S
C503 H526 0.950 . S
C504 C503 1.349 1_554 S
C504 C516 1.349 . S
C505 C503 1.327 . S
C505 C521 1.429 . S
C505 H527 0.950 . S
C506 H502 0.949 1_556 S
C506 C514 1.574 . S
C506 C522 1.368 . S
H507 C515 0.950 . S
H508 C513 0.950 . S
H509 C514 0.949 . S
H510 C516 0.950 . S
H511 C517 0.950 . S
H512 C518 0.949 . S
C513 H508 0.950 . S
C513 C515 1.327 . S
C513 C519 1.429 . S
C514 C506 1.574 . S
C514 H509 0.949 . S
C514 C520 1.368 . S
C515 C499 1.349 . S
C515 H507 0.950 . S
C515 C513 1.327 . S
C516 C504 1.349 . S
C516 H510 0.950 . S
C516 C517 1.327 . S
C517 H511 0.950 . S
C517 C516 1.327 . S
C517 C521 1.429 1_554 S
C518 C501 1.574 . S
C518 H512 0.949 . S
C518 C522 1.368 . S
C519 C500 1.429 . S
C519 C513 1.429 . S
C519 C520 1.523 . S
C520 C501 1.368 . S
C520 C514 1.368 . S
C520 C519 1.523 . S
C521 C505 1.429 . S
C521 C517 1.429 1_556 S
C521 C522 1.523 . S
C522 C506 1.368 . S
C522 C518 1.368 . S
C522 C521 1.523 . S
H523 C498 0.950 . S
H524 C500 0.950 . S
H525 C501 0.949 . S
H526 C503 0.950 . S
H527 C505 0.950 . S
C528 C529 1.349 . S
C528 C530 1.327 . S
C528 H553 0.950 . S
C529 C528 1.349 . S
C529 C545 1.349 . S
C530 C528 1.327 . S
C530 C549 1.429 . S
C530 H554 0.950 . S
C531 C548 1.574 . S
C531 C550 1.368 . S
C531 H555 0.949 . S
H532 C536 0.949 . S
C533 C534 1.349 . S
C533 C535 1.327 . S
C533 H556 0.950 . S
C534 C533 1.349 . S
C534 C546 1.349 . S
C535 C533 1.327 . S
C535 C551 1.429 . S
C535 H557 0.950 . S
C536 H532 0.949 . S
C536 C544 1.574 . S
C536 C552 1.368 . S
H537 C545 0.950 . S
H538 C543 0.950 . S
H539 C544 0.949 . S
H540 C546 0.950 . S
H541 C547 0.950 . S
H542 C548 0.949 . S
C543 H538 0.950 . S
C543 C545 1.327 . S
C543 C549 1.429 . S
C544 C536 1.574 . S
C544 H539 0.949 . S
C544 C550 1.368 . S
C545 C529 1.349 . S
C545 H537 0.950 . S
C545 C543 1.327 . S
C546 C534 1.349 . S
C546 H540 0.950 . S
C546 C547 1.327 . S
C547 H541 0.950 . S
C547 C546 1.327 . S
C547 C551 1.429 . S
C548 C531 1.574 . S
C548 H542 0.949 . S
C548 C552 1.368 . S
C549 C530 1.429 . S
C549 C543 1.429 . S
C549 C550 1.523 . S
C550 C531 1.368 . S
C550 C544 1.368 . S
C550 C549 1.523 . S
C551 C535 1.429 . S
C551 C547 1.429 . S
C551 C552 1.523 . S
C552 C536 1.368 . S
C552 C548 1.368 . S
C552 C551 1.523 . S
H553 C528 0.950 . S
H554 C530 0.950 . S
H555 C531 0.949 . S
H556 C533 0.950 . S
H557 C535 0.950 . S
C558 C559 1.349 . S
C558 C560 1.327 . S
C558 H583 0.950 . S
C559 C558 1.349 . S
C559 C575 1.349 . S
C560 C558 1.327 . S
C560 C579 1.429 . S
C560 H584 0.950 . S
C561 C578 1.574 . S
C561 C580 1.368 1_556 S
C561 H585 0.949 . S
H562 C566 0.949 . S
C563 C564 1.349 . S
C563 C565 1.327 . S
C563 H586 0.950 . S
C564 C563 1.349 . S
C564 C576 1.349 . S
C565 C563 1.327 . S
C565 C581 1.429 . S
C565 H587 0.950 . S
C566 H562 0.949 . S
C566 C574 1.574 . S
C566 C582 1.368 1_554 S
H567 C575 0.950 . S
H568 C573 0.950 . S
H569 C574 0.949 . S
H570 C576 0.950 . S
H571 C577 0.950 . S
H572 C578 0.949 . S
C573 H568 0.950 . S
C573 C575 1.327 . S
C573 C579 1.429 . S
C574 C566 1.574 . S
C574 H569 0.949 . S
C574 C580 1.368 . S
C575 C559 1.349 . S
C575 H567 0.950 . S
C575 C573 1.327 . S
C576 C564 1.349 . S
C576 H570 0.950 . S
C576 C577 1.327 . S
C577 H571 0.950 . S
C577 C576 1.327 . S
C577 C581 1.429 . S
C578 C561 1.574 . S
C578 H572 0.949 . S
C578 C582 1.368 . S
C579 C560 1.429 . S
C579 C573 1.429 . S
C579 C580 1.523 . S
C580 C561 1.368 1_554 S
C580 C574 1.368 . S
C580 C579 1.523 . S
C581 C565 1.429 . S
C581 C577 1.429 . S
C581 C582 1.523 . S
C582 C566 1.368 1_556 S
C582 C578 1.368 . S
C582 C581 1.523 . S
H583 C558 0.950 . S
H584 C560 0.950 . S
H585 C561 0.949 . S
H586 C563 0.950 . S
H587 C565 0.950 . S
C588 C589 1.349 . S
C588 C590 1.327 . S
C588 H613 0.950 . S
C589 C588 1.349 . S
C589 C605 1.349 . S
C590 C588 1.327 . S
C590 C609 1.429 . S
C590 H614 0.950 . S
C591 C608 1.574 . S
C591 C610 1.368 . S
C591 H615 0.949 . S
H592 C596 0.949 . S
C593 C594 1.349 . S
C593 C595 1.327 . S
C593 H616 0.950 . S
C594 C593 1.349 . S
C594 C606 1.349 . S
C595 C593 1.327 . S
C595 C611 1.429 1_556 S
C595 H617 0.950 1_556 S
C596 H592 0.949 . S
C596 C604 1.574 . S
C596 C612 1.368 . S
H597 C605 0.950 . S
H598 C603 0.950 . S
H599 C604 0.949 . S
H600 C606 0.950 . S
H601 C607 0.950 . S
H602 C608 0.949 . S
C603 H598 0.950 . S
C603 C605 1.327 . S
C603 C609 1.429 . S
C604 C596 1.574 . S
C604 H599 0.949 . S
C604 C610 1.368 . S
C605 C589 1.349 . S
C605 H597 0.950 . S
C605 C603 1.327 . S
C606 C594 1.349 . S
C606 H600 0.950 . S
C606 C607 1.327 . S
C607 H601 0.950 . S
C607 C606 1.327 . S
C607 C611 1.429 1_556 S
C608 C591 1.574 . S
C608 H602 0.949 . S
C608 C612 1.368 . S
C609 C590 1.429 . S
C609 C603 1.429 . S
C609 C610 1.523 . S
C610 C591 1.368 . S
C610 C604 1.368 . S
C610 C609 1.523 . S
C611 C595 1.429 1_554 S
C611 C607 1.429 1_554 S
C611 C612 1.523 . S
C612 C596 1.368 . S
C612 C608 1.368 . S
C612 C611 1.523 . S
H613 C588 0.950 . S
H614 C590 0.950 . S
H615 C591 0.949 . S
H616 C593 0.950 . S
H617 C595 0.950 1_554 S
C618 C619 1.349 . S
C618 C620 1.327 . S
C618 H643 0.950 . S
C619 C618 1.349 . S
C619 C635 1.349 . S
C620 C618 1.327 . S
C620 C639 1.429 . S
C620 H644 0.950 . S
C621 C638 1.574 . S
C621 C640 1.368 . S
C621 H645 0.949 . S
H622 C626 0.949 . S
C623 C624 1.349 . S
C623 C625 1.327 . S
C623 H646 0.950 . S
C624 C623 1.349 . S
C624 C636 1.349 . S
C625 C623 1.327 . S
C625 C641 1.429 . S
C625 H647 0.950 . S
C626 H622 0.949 . S
C626 C634 1.574 . S
C626 C642 1.368 . S
H627 C635 0.950 . S
H628 C633 0.950 . S
H629 C634 0.949 . S
H630 C636 0.950 . S
H631 C637 0.950 . S
H632 C638 0.949 . S
C633 H628 0.950 . S
C633 C635 1.327 . S
C633 C639 1.429 . S
C634 C626 1.574 . S
C634 H629 0.949 . S
C634 C640 1.368 . S
C635 C619 1.349 . S
C635 H627 0.950 . S
C635 C633 1.327 . S
C636 C624 1.349 . S
C636 H630 0.950 . S
C636 C637 1.327 . S
C637 H631 0.950 . S
C637 C636 1.327 . S
C637 C641 1.429 . S
C638 C621 1.574 . S
C638 H632 0.949 . S
C638 C642 1.368 . S
C639 C620 1.429 . S
C639 C633 1.429 . S
C639 C640 1.523 . S
C640 C621 1.368 . S
C640 C634 1.368 . S
C640 C639 1.523 . S
C641 C625 1.429 . S
C641 C637 1.429 . S
C641 C642 1.523 . S
C642 C626 1.368 . S
C642 C638 1.368 . S
C642 C641 1.523 . S
H643 C618 0.950 . S
H644 C620 0.950 . S
H645 C621 0.949 . S
H646 C623 0.950 . S
H647 C625 0.950 . S
C648 C649 1.349 . S
C648 C650 1.327 . S
C648 H673 0.950 . S
C649 C648 1.349 . S
C649 C665 1.349 . S
C650 C648 1.327 . S
C650 C669 1.429 . S
C650 H674 0.950 . S
C651 C668 1.574 . S
C651 C670 1.368 . S
C651 H675 0.949 . S
H652 C656 0.949 . S
C653 C654 1.349 . S
C653 C655 1.327 . S
C653 H676 0.950 . S
C654 C653 1.349 . S
C654 C666 1.349 . S
C655 C653 1.327 . S
C655 C671 1.429 . S
C655 H677 0.950 . S
C656 H652 0.949 . S
C656 C664 1.574 . S
C656 C672 1.368 . S
H657 C665 0.950 . S
H658 C663 0.950 . S
H659 C664 0.949 . S
H660 C666 0.950 . S
H661 C667 0.950 . S
H662 C668 0.949 . S
C663 H658 0.950 . S
C663 C665 1.327 . S
C663 C669 1.429 . S
C664 C656 1.574 . S
C664 H659 0.949 . S
C664 C670 1.368 . S
C665 C649 1.349 . S
C665 H657 0.950 . S
C665 C663 1.327 . S
C666 C654 1.349 . S
C666 H660 0.950 . S
C666 C667 1.327 . S
C667 H661 0.950 . S
C667 C666 1.327 . S
C667 C671 1.429 . S
C668 C651 1.574 . S
C668 H662 0.949 . S
C668 C672 1.368 . S
C669 C650 1.429 . S
C669 C663 1.429 . S
C669 C670 1.523 . S
C670 C651 1.368 . S
C670 C664 1.368 . S
C670 C669 1.523 . S
C671 C655 1.429 . S
C671 C667 1.429 . S
C671 C672 1.523 . S
C672 C656 1.368 . S
C672 C668 1.368 . S
C672 C671 1.523 . S
H673 C648 0.950 . S
H674 C650 0.950 . S
H675 C651 0.949 . S
H676 C653 0.950 . S
H677 C655 0.950 . S
C678 C679 1.349 . S
C678 C680 1.327 . S
C678 H703 0.950 . S
C679 C678 1.349 . S
C679 C695 1.349 . S
C680 C678 1.327 . S
C680 C699 1.429 . S
C680 H704 0.950 . S
C681 C698 1.574 . S
C681 C700 1.368 . S
C681 H705 0.949 . S
H682 C686 0.949 . S
C683 C684 1.349 . S
C683 C685 1.327 . S
C683 H706 0.950 . S
C684 C683 1.349 . S
C684 C696 1.349 . S
C685 C683 1.327 . S
C685 C701 1.429 . S
C685 H707 0.950 . S
C686 H682 0.949 . S
C686 C694 1.574 . S
C686 C702 1.368 . S
H687 C695 0.950 . S
H688 C693 0.950 . S
H689 C694 0.949 . S
H690 C696 0.950 . S
H691 C697 0.950 . S
H692 C698 0.949 . S
C693 H688 0.950 . S
C693 C695 1.327 . S
C693 C699 1.429 . S
C694 C686 1.574 . S
C694 H689 0.949 . S
C694 C700 1.368 . S
C695 C679 1.349 . S
C695 H687 0.950 . S
C695 C693 1.327 . S
C696 C684 1.349 . S
C696 H690 0.950 . S
C696 C697 1.327 . S
C697 H691 0.950 . S
C697 C696 1.327 . S
C697 C701 1.429 . S
C698 C681 1.574 . S
C698 H692 0.949 . S
C698 C702 1.368 . S
C699 C680 1.429 . S
C699 C693 1.429 . S
C699 C700 1.523 . S
C700 C681 1.368 . S
C700 C694 1.368 . S
C700 C699 1.523 . S
C701 C685 1.429 . S
C701 C697 1.429 . S
C701 C702 1.523 . S
C702 C686 1.368 . S
C702 C698 1.368 . S
C702 C701 1.523 . S
H703 C678 0.950 . S
H704 C680 0.950 . S
H705 C681 0.949 . S
H706 C683 0.950 . S
H707 C685 0.950 . S
C708 C709 1.349 1_554 S
C708 C710 1.327 1_554 S
C708 H733 0.950 . S
C709 C708 1.349 1_556 S
C709 C725 1.349 . S
C710 C708 1.327 1_556 S
C710 C729 1.429 . S
C710 H734 0.950 1_556 S
C711 C728 1.574 . S
C711 C730 1.368 . S
C711 H735 0.949 . S
H712 C716 0.949 . S
C713 C714 1.349 . S
C713 C715 1.327 . S
C713 H736 0.950 . S
C714 C713 1.349 . S
C714 C726 1.349 . S
C715 C713 1.327 . S
C715 C731 1.429 . S
C715 H737 0.950 . S
C716 H712 0.949 . S
C716 C724 1.574 1_655 S
C716 C732 1.368 . S
H717 C725 0.950 . S
H718 C723 0.950 . S
H719 C724 0.949 . S
H720 C726 0.950 . S
H721 C727 0.950 . S
H722 C728 0.949 . S
C723 H718 0.950 . S
C723 C725 1.327 . S
C723 C729 1.429 . S
C724 C716 1.574 1_455 S
C724 H719 0.949 . S
C724 C730 1.368 . S
C725 C709 1.349 . S
C725 H717 0.950 . S
C725 C723 1.327 . S
C726 C714 1.349 . S
C726 H720 0.950 . S
C726 C727 1.327 . S
C727 H721 0.950 . S
C727 C726 1.327 . S
C727 C731 1.429 . S
C728 C711 1.574 . S
C728 H722 0.949 . S
C728 C732 1.368 1_455 S
C729 C710 1.429 . S
C729 C723 1.429 . S
C729 C730 1.523 . S
C730 C711 1.368 . S
C730 C724 1.368 . S
C730 C729 1.523 . S
C731 C715 1.429 . S
C731 C727 1.429 . S
C731 C732 1.523 . S
C732 C716 1.368 . S
C732 C728 1.368 1_655 S
C732 C731 1.523 . S
H733 C708 0.950 . S
H734 C710 0.950 1_554 S
H735 C711 0.949 . S
H736 C713 0.950 . S
H737 C715 0.950 . S
C738 C739 1.349 . S
C738 C740 1.327 . S
C738 H763 0.950 . S
C739 C738 1.349 . S
C739 C755 1.349 . S
C740 C738 1.327 . S
C740 C759 1.429 . S
C740 H764 0.950 1_556 S
C741 C758 1.574 1_556 S
C741 C760 1.368 1_546 S
C741 H765 0.949 . S
H742 C746 0.949 . S
C743 C744 1.349 . S
C743 C745 1.327 . S
C743 H766 0.950 . S
C744 C743 1.349 . S
C744 C756 1.349 . S
C745 C743 1.327 . S
C745 C761 1.429 . S
C745 H767 0.950 . S
C746 H742 0.949 . S
C746 C754 1.574 . S
C746 C762 1.368 1_565 S
H747 C755 0.950 . S
H748 C753 0.950 . S
H749 C754 0.949 . S
H750 C756 0.950 . S
H751 C757 0.950 . S
H752 C758 0.949 . S
C753 H748 0.950 . S
C753 C755 1.327 . S
C753 C759 1.429 . S
C754 C746 1.574 . S
C754 H749 0.949 . S
C754 C760 1.368 . S
C755 C739 1.349 . S
C755 H747 0.950 . S
C755 C753 1.327 . S
C756 C744 1.349 . S
C756 H750 0.950 . S
C756 C757 1.327 . S
C757 H751 0.950 . S
C757 C756 1.327 . S
C757 C761 1.429 . S
C758 C741 1.574 1_554 S
C758 H752 0.949 . S
C758 C762 1.368 . S
C759 C740 1.429 . S
C759 C753 1.429 . S
C759 C760 1.523 1_556 S
C760 C741 1.368 1_564 S
C760 C754 1.368 . S
C760 C759 1.523 1_554 S
C761 C745 1.429 . S
C761 C757 1.429 . S
C761 C762 1.523 . S
C762 C746 1.368 1_545 S
C762 C758 1.368 . S
C762 C761 1.523 . S
H763 C738 0.950 . S
H764 C740 0.950 1_554 S
H765 C741 0.949 . S
H766 C743 0.950 . S
H767 C745 0.950 . S
C768 C769 1.349 . S
C768 C770 1.327 . S
C768 H793 0.950 . S
C769 C768 1.349 . S
C769 C785 1.349 . S
C770 C768 1.327 . S
C770 C789 1.429 . S
C770 H794 0.950 . S
C771 C788 1.574 . S
C771 C790 1.368 . S
C771 H795 0.949 . S
H772 C776 0.949 . S
C773 C774 1.349 . S
C773 C775 1.327 . S
C773 H796 0.950 . S
C774 C773 1.349 . S
C774 C786 1.349 . S
C775 C773 1.327 . S
C775 C791 1.429 . S
C775 H797 0.950 . S
C776 H772 0.949 . S
C776 C784 1.574 . S
C776 C792 1.368 . S
H777 C785 0.950 . S
H778 C783 0.950 . S
H779 C784 0.949 . S
H780 C786 0.950 . S
H781 C787 0.950 . S
H782 C788 0.949 . S
C783 H778 0.950 . S
C783 C785 1.327 . S
C783 C789 1.429 . S
C784 C776 1.574 . S
C784 H779 0.949 . S
C784 C790 1.368 . S
C785 C769 1.349 . S
C785 H777 0.950 . S
C785 C783 1.327 . S
C786 C774 1.349 . S
C786 H780 0.950 . S
C786 C787 1.327 . S
C787 H781 0.950 . S
C787 C786 1.327 . S
C787 C791 1.429 . S
C788 C771 1.574 . S
C788 H782 0.949 . S
C788 C792 1.368 . S
C789 C770 1.429 . S
C789 C783 1.429 . S
C789 C790 1.523 . S
C790 C771 1.368 . S
C790 C784 1.368 . S
C790 C789 1.523 . S
C791 C775 1.429 . S
C791 C787 1.429 . S
C791 C792 1.523 . S
C792 C776 1.368 . S
C792 C788 1.368 . S
C792 C791 1.523 . S
H793 C768 0.950 . S
H794 C770 0.950 . S
H795 C771 0.949 . S
H796 C773 0.950 . S
H797 C775 0.950 . S
C798 C799 1.349 . S
C798 C800 1.327 . S
C798 H823 0.950 . S
C799 C798 1.349 . S
C799 C815 1.349 . S
C800 C798 1.327 . S
C800 C819 1.429 . S
C800 H824 0.950 . S
C801 C818 1.574 1_455 S
C801 C820 1.368 . S
C801 H825 0.949 . S
H802 C806 0.949 . S
C803 C804 1.349 . S
C803 C805 1.327 . S
C803 H826 0.950 . S
C804 C803 1.349 . S
C804 C816 1.349 . S
C805 C803 1.327 . S
C805 C821 1.429 . S
C805 H827 0.950 . S
C806 H802 0.949 . S
C806 C814 1.574 1_655 S
C806 C822 1.368 . S
H807 C815 0.950 . S
H808 C813 0.950 . S
H809 C814 0.949 . S
H810 C816 0.950 . S
H811 C817 0.950 . S
H812 C818 0.949 . S
C813 H808 0.950 . S
C813 C815 1.327 . S
C813 C819 1.429 . S
C814 C806 1.574 1_455 S
C814 H809 0.949 . S
C814 C820 1.368 . S
C815 C799 1.349 . S
C815 H807 0.950 . S
C815 C813 1.327 . S
C816 C804 1.349 . S
C816 H810 0.950 . S
C816 C817 1.327 . S
C817 H811 0.950 . S
C817 C816 1.327 . S
C817 C821 1.429 . S
C818 C801 1.574 1_655 S
C818 H812 0.949 . S
C818 C822 1.368 . S
C819 C800 1.429 . S
C819 C813 1.429 . S
C819 C820 1.523 . S
C820 C801 1.368 . S
C820 C814 1.368 . S
C820 C819 1.523 . S
C821 C805 1.429 . S
C821 C817 1.429 . S
C821 C822 1.523 . S
C822 C806 1.368 . S
C822 C818 1.368 . S
C822 C821 1.523 . S
H823 C798 0.950 . S
H824 C800 0.950 . S
H825 C801 0.949 . S
H826 C803 0.950 . S
H827 C805 0.950 . S
C828 C829 1.349 . S
C828 C830 1.327 . S
C828 H853 0.950 . S
C829 C828 1.349 . S
C829 C845 1.349 . S
C830 C828 1.327 . S
C830 C849 1.429 . S
C830 H854 0.950 . S
C831 C848 1.574 1_545 S
C831 C850 1.368 . S
C831 H855 0.949 . S
H832 C836 0.949 . S
C833 C834 1.349 . S
C833 C835 1.327 . S
C833 H856 0.950 . S
C834 C833 1.349 . S
C834 C846 1.349 . S
C835 C833 1.327 . S
C835 C851 1.429 . S
C835 H857 0.950 . S
C836 H832 0.949 . S
C836 C844 1.574 1_565 S
C836 C852 1.368 . S
H837 C845 0.950 . S
H838 C843 0.950 . S
H839 C844 0.949 . S
H840 C846 0.950 . S
H841 C847 0.950 . S
H842 C848 0.949 . S
C843 H838 0.950 . S
C843 C845 1.327 . S
C843 C849 1.429 . S
C844 C836 1.574 1_545 S
C844 H839 0.949 . S
C844 C850 1.368 . S
C845 C829 1.349 . S
C845 H837 0.950 . S
C845 C843 1.327 . S
C846 C834 1.349 . S
C846 H840 0.950 . S
C846 C847 1.327 . S
C847 H841 0.950 . S
C847 C846 1.327 . S
C847 C851 1.429 . S
C848 C831 1.574 1_565 S
C848 H842 0.949 . S
C848 C852 1.368 . S
C849 C830 1.429 . S
C849 C843 1.429 . S
C849 C850 1.523 . S
C850 C831 1.368 . S
C850 C844 1.368 . S
C850 C849 1.523 . S
C851 C835 1.429 . S
C851 C847 1.429 . S
C851 C852 1.523 . S
C852 C836 1.368 . S
C852 C848 1.368 . S
C852 C851 1.523 . S
H853 C828 0.950 . S
H854 C830 0.950 . S
H855 C831 0.949 . S
H856 C833 0.950 . S
H857 C835 0.950 . S
C858 C859 1.349 . S
C858 C860 1.327 . S
C858 H883 0.950 . S
C859 C858 1.349 . S
C859 C875 1.349 . S
C860 C858 1.327 . S
C860 C879 1.429 . S
C860 H884 0.950 . S
C861 C878 1.574 . S
C861 C880 1.368 . S
C861 H885 0.949 . S
H862 C866 0.949 . S
C863 C864 1.349 . S
C863 C865 1.327 . S
C863 H886 0.950 . S
C864 C863 1.349 . S
C864 C876 1.349 . S
C865 C863 1.327 . S
C865 C881 1.429 . S
C865 H887 0.950 . S
C866 H862 0.949 . S
C866 C874 1.574 . S
C866 C882 1.368 . S
H867 C875 0.950 . S
H868 C873 0.950 . S
H869 C874 0.949 . S
H870 C876 0.950 . S
H871 C877 0.950 . S
H872 C878 0.949 . S
C873 H868 0.950 . S
C873 C875 1.327 . S
C873 C879 1.429 . S
C874 C866 1.574 . S
C874 H869 0.949 . S
C874 C880 1.368 . S
C875 C859 1.349 . S
C875 H867 0.950 . S
C875 C873 1.327 . S
C876 C864 1.349 . S
C876 H870 0.950 . S
C876 C877 1.327 . S
C877 H871 0.950 . S
C877 C876 1.327 . S
C877 C881 1.429 . S
C878 C861 1.574 . S
C878 H872 0.949 . S
C878 C882 1.368 . S
C879 C860 1.429 . S
C879 C873 1.429 . S
C879 C880 1.523 . S
C880 C861 1.368 . S
C880 C874 1.368 . S
C880 C879 1.523 . S
C881 C865 1.429 . S
C881 C877 1.429 . S
C881 C882 1.523 . S
C882 C866 1.368 . S
C882 C878 1.368 . S
C882 C881 1.523 . S
H883 C858 0.950 . S
H884 C860 0.950 . S
H885 C861 0.949 . S
H886 C863 0.950 . S
H887 C865 0.950 . S
C169 C12 1.143 . S
C174 C152 1.143 . S
C199 C166 1.056 . S
C204 C19 0.966 . S
C229 C40 1.056 . S
C234 C89 0.966 . S
C259 C54 1.143 . S
C264 C110 1.143 . S
C289 C61 0.966 . S
C294 C124 1.056 . S
C319 C131 0.966 . S
C324 C82 1.056 . S
C349 C4 1.561 . S
C354 C116 1.552 . S
C379 C25 1.494 . S
C384 C137 1.494 . S
C409 C144 1.561 . S
C414 C32 1.553 . S
C439 C46 1.561 . S
C444 C158 1.552 . S
C469 C67 1.495 . S
C474 C95 1.495 . S
C499 C74 1.553 . S
C504 C102 1.561 . S
C529 C151 0.682 . S
C534 C11 0.682 . S
C559 C18 0.786 . S
C564 C165 0.788 . S
C589 C39 0.788 . S
C594 C88 0.786 . S
C619 C53 0.682 . S
C624 C109 0.682 . S
C649 C123 0.788 . S
C654 C60 0.786 . S
C679 C81 0.788 . S
C684 C130 0.786 . S
C709 C5 1.271 1_556 S
C714 C159 1.286 . S
C739 C96 1.357 . S
C744 C26 1.357 . S
C769 C103 1.271 . S
C774 C33 1.286 . S
C799 C117 1.286 . S
C804 C47 1.271 . S
C829 C138 1.357 . S
C834 C68 1.357 . S
C859 C145 1.271 . S
C864 C75 1.286 . S
