# Generated by pormake.
# Topology yfc, (5)-cn, num edge types: 1
# Building blocks:
#     Node 0, Type 0, BuildingBlock: BEQFEK_clean_sbu_0, # of connection points: 5
#     Node 1, Type 0, BuildingBlock: BEQFEK_clean_sbu_0, # of connection points: 5
#     Node 2, Type 0, BuildingBlock: BEQFEK_clean_sbu_0, # of connection points: 5
#     Node 3, Type 0, BuildingBlock: BEQFEK_clean_sbu_0, # of connection points: 5
#     Node 4, Type 0, BuildingBlock: BEQFEK_clean_sbu_0, # of connection points: 5
#     Node 5, Type 0, BuildingBlock: BEQFEK_clean_sbu_0, # of connection points: 5
#     Node 6, Type 0, BuildingBlock: BEQFEK_clean_sbu_0, # of connection points: 5
#     Node 7, Type 0, BuildingBlock: BEQFEK_clean_sbu_0, # of connection points: 5
#     Node 8, Type 0, BuildingBlock: BEQFEK_clean_sbu_0, # of connection points: 5
#     Node 9, Type 0, BuildingBlock: BEQFEK_clean_sbu_0, # of connection points: 5
#     Node 10, Type 0, BuildingBlock: BEQFEK_clean_sbu_0, # of connection points: 5
#     Node 11, Type 0, BuildingBlock: BEQFEK_clean_sbu_0, # of connection points: 5
#     Node 12, Type 0, BuildingBlock: BEQFEK_clean_sbu_0, # of connection points: 5
#     Node 13, Type 0, BuildingBlock: BEQFEK_clean_sbu_0, # of connection points: 5
#     Node 14, Type 0, BuildingBlock: BEQFEK_clean_sbu_0, # of connection points: 5
#     Node 15, Type 0, BuildingBlock: BEQFEK_clean_sbu_0, # of connection points: 5
#     Edge 16, Type (0, 0), BuildingBlock: MIFKUJ_clean_linker_0, # of connection points: 2
#     Edge 17, Type (0, 0), BuildingBlock: MIFKUJ_clean_linker_0, # of connection points: 2
#     Edge 18, Type (0, 0), BuildingBlock: MIFKUJ_clean_linker_0, # of connection points: 2
#     Edge 19, Type (0, 0), BuildingBlock: MIFKUJ_clean_linker_0, # of connection points: 2
#     Edge 20, Type (0, 0), BuildingBlock: MIFKUJ_clean_linker_0, # of connection points: 2
#     Edge 21, Type (0, 0), BuildingBlock: MIFKUJ_clean_linker_0, # of connection points: 2
#     Edge 22, Type (0, 0), BuildingBlock: MIFKUJ_clean_linker_0, # of connection points: 2
#     Edge 23, Type (0, 0), BuildingBlock: MIFKUJ_clean_linker_0, # of connection points: 2
#     Edge 24, Type (0, 0), BuildingBlock: MIFKUJ_clean_linker_0, # of connection points: 2
#     Edge 25, Type (0, 0), BuildingBlock: MIFKUJ_clean_linker_0, # of connection points: 2
#     Edge 26, Type (0, 0), BuildingBlock: MIFKUJ_clean_linker_0, # of connection points: 2
#     Edge 27, Type (0, 0), BuildingBlock: MIFKUJ_clean_linker_0, # of connection points: 2
#     Edge 28, Type (0, 0), BuildingBlock: MIFKUJ_clean_linker_0, # of connection points: 2
#     Edge 29, Type (0, 0), BuildingBlock: MIFKUJ_clean_linker_0, # of connection points: 2
#     Edge 30, Type (0, 0), BuildingBlock: MIFKUJ_clean_linker_0, # of connection points: 2
#     Edge 31, Type (0, 0), BuildingBlock: MIFKUJ_clean_linker_0, # of connection points: 2
#     Edge 32, Type (0, 0), BuildingBlock: MIFKUJ_clean_linker_0, # of connection points: 2
#     Edge 33, Type (0, 0), BuildingBlock: MIFKUJ_clean_linker_0, # of connection points: 2
#     Edge 34, Type (0, 0), BuildingBlock: MIFKUJ_clean_linker_0, # of connection points: 2
#     Edge 35, Type (0, 0), BuildingBlock: MIFKUJ_clean_linker_0, # of connection points: 2
#     Edge 36, Type (0, 0), BuildingBlock: MIFKUJ_clean_linker_0, # of connection points: 2
#     Edge 37, Type (0, 0), BuildingBlock: MIFKUJ_clean_linker_0, # of connection points: 2
#     Edge 38, Type (0, 0), BuildingBlock: MIFKUJ_clean_linker_0, # of connection points: 2
#     Edge 39, Type (0, 0), BuildingBlock: MIFKUJ_clean_linker_0, # of connection points: 2
#     Edge 40, Type (0, 0), BuildingBlock: MIFKUJ_clean_linker_0, # of connection points: 2
#     Edge 41, Type (0, 0), BuildingBlock: MIFKUJ_clean_linker_0, # of connection points: 2
#     Edge 42, Type (0, 0), BuildingBlock: MIFKUJ_clean_linker_0, # of connection points: 2
#     Edge 43, Type (0, 0), BuildingBlock: MIFKUJ_clean_linker_0, # of connection points: 2
#     Edge 44, Type (0, 0), BuildingBlock: MIFKUJ_clean_linker_0, # of connection points: 2
#     Edge 45, Type (0, 0), BuildingBlock: MIFKUJ_clean_linker_0, # of connection points: 2
#     Edge 46, Type (0, 0), BuildingBlock: MIFKUJ_clean_linker_0, # of connection points: 2
#     Edge 47, Type (0, 0), BuildingBlock: MIFKUJ_clean_linker_0, # of connection points: 2
#     Edge 48, Type (0, 0), BuildingBlock: MIFKUJ_clean_linker_0, # of connection points: 2
#     Edge 49, Type (0, 0), BuildingBlock: MIFKUJ_clean_linker_0, # of connection points: 2
#     Edge 50, Type (0, 0), BuildingBlock: MIFKUJ_clean_linker_0, # of connection points: 2
#     Edge 51, Type (0, 0), BuildingBlock: MIFKUJ_clean_linker_0, # of connection points: 2
#     Edge 52, Type (0, 0), BuildingBlock: MIFKUJ_clean_linker_0, # of connection points: 2
#     Edge 53, Type (0, 0), BuildingBlock: MIFKUJ_clean_linker_0, # of connection points: 2
#     Edge 54, Type (0, 0), BuildingBlock: MIFKUJ_clean_linker_0, # of connection points: 2
#     Edge 55, Type (0, 0), BuildingBlock: MIFKUJ_clean_linker_0, # of connection points: 2
# Relax obj value: 0.463
# Max RMSD: 0.173
# Mean RMSD: 0.173
data_MOF--net-yfc--node1-BEQFEK_clean_sbu_0--edge1-MIFKUJ_clean_linker_0
_symmetry_space_group_name_H-M    P1
_symmetry_Int_Tables_number       1
_symmetry_cell_setting            triclinic
loop_
_symmetry_equiv_pos_as_xyz
'x, y, z'
_cell_length_a     57.08911
_cell_length_b     57.160095
_cell_length_c     62.077136
_cell_angle_alpha  90.058189
_cell_angle_beta   89.994906
_cell_angle_gamma 89.987077
loop_
_atom_site_label
_atom_site_type_symbol
_atom_site_fract_x
_atom_site_fract_y
_atom_site_fract_z
_atom_type_partial_charge
Co0 Co 0.72399 0.08237 0.14045 0.0
Co1 Co 0.70405 0.03579 0.16055 0.0
C2 C 0.67953 0.08182 0.16637 0.0
O3 O 0.69541 0.09214 0.15561 0.0
O4 O 0.68024 0.05978 0.16948 0.0
C5 C 0.72232 0.12463 0.11579 0.0
O6 O 0.69991 0.11961 0.11435 0.0
C7 C 0.674 -0.00132 0.17967 0.0
C8 C 0.69594 0.96728 0.17487 0.0
C9 C 0.67479 0.97467 0.18343 0.0
N10 N 0.69359 0.00501 0.16903 0.0
N11 N 0.70664 0.98612 0.16635 0.0
C12 C 0.65666 0.01584 0.18847 0.0
H13 H 0.6662 0.02983 0.19721 0.0
H14 H 0.64695 0.02403 0.17495 0.0
H15 H 0.64414 0.00765 0.19982 0.0
C16 C 0.72171 0.05497 0.10069 0.0
N17 N 0.71803 0.0571 0.12197 0.0
N18 N 0.70962 0.03734 0.12972 0.0
C19 C 0.70742 0.02202 0.11316 0.0
C20 C 0.71496 0.03277 0.09427 0.0
C21 C 0.73331 0.07331 0.08719 0.0
H22 H 0.74807 0.08126 0.09619 0.0
H23 H 0.72042 0.08723 0.0834 0.0
H24 H 0.74008 0.06598 0.07189 0.0
O25 O 0.74804 0.07367 0.16123 0.0
O26 O 0.73377 0.04197 0.17725 0.0
H27 H 0.71192 0.98588 0.12056 0.0
H28 H 0.69119 0.99143 0.09935 0.0
C29 C 0.69779 -0.00219 0.11512 0.0
H30 H 0.68341 -0.00255 0.12712 0.0
H31 H 0.72313 0.98618 0.15909 0.0
O32 O 0.7359 0.11044 0.12537 0.0
C33 C 0.74965 0.05751 0.17517 0.0
Co34 Co 0.40658 0.71138 0.64333 0.0
Co35 Co 0.4561 0.69907 0.66273 0.0
C36 C 0.41307 0.66808 0.66861 0.0
O37 O 0.40035 0.68104 0.65681 0.0
O38 O 0.4344 0.67328 0.67245 0.0
C39 C 0.36253 0.70786 0.62071 0.0
O40 O 0.36719 0.68536 0.61996 0.0
C41 C 0.49594 0.67122 0.67994 0.0
C42 C 0.525 0.69663 0.67803 0.0
C43 C 0.51969 0.67404 0.68445 0.0
N44 N 0.48782 0.69108 0.67089 0.0
N45 N 0.50532 0.70619 0.66994 0.0
C46 C 0.48038 0.65157 0.68695 0.0
H47 H 0.46633 0.65876 0.69733 0.0
H48 H 0.47209 0.64346 0.6726 0.0
H49 H 0.48979 0.63809 0.69636 0.0
C50 C 0.43397 0.71538 0.60353 0.0
N51 N 0.43243 0.70989 0.62453 0.0
N52 N 0.45337 0.70456 0.63201 0.0
C53 C 0.46893 0.70629 0.6156 0.0
C54 C 0.45713 0.71347 0.5971 0.0
C55 C 0.41352 0.72272 0.59004 0.0
H56 H 0.39981 0.70902 0.59083 0.0
H57 H 0.41844 0.72538 0.57294 0.0
H58 H 0.40601 0.73913 0.59665 0.0
O59 O 0.41221 0.73491 0.6658 0.0
O60 O 0.44774 0.72835 0.67893 0.0
H61 H 0.50246 0.7188 0.62536 0.0
H62 H 0.50323 0.70024 0.60197 0.0
C63 C 0.49477 0.70295 0.61787 0.0
H64 H 0.49842 0.68771 0.62839 0.0
H65 H 0.50368 0.7233 0.66429 0.0
O66 O 0.37746 0.72175 0.62889 0.0
C67 C 0.42885 0.74026 0.67849 0.0
Co68 Co 0.77958 0.40695 0.14032 0.0
Co69 Co 0.7928 0.45492 0.16237 0.0
C70 C 0.8219 0.41108 0.168 0.0
O71 O 0.80868 0.39952 0.15545 0.0
O72 O 0.81769 0.43246 0.17242 0.0
C73 C 0.78511 0.36469 0.11552 0.0
O74 O 0.80724 0.37092 0.11452 0.0
C75 C 0.82077 0.49384 0.18111 0.0
C76 C 0.79569 0.52321 0.17932 0.0
C77 C 0.81817 0.51752 0.1859 0.0
N78 N 0.80089 0.48611 0.17177 0.0
N79 N 0.78598 0.50378 0.17088 0.0
C80 C 0.84042 0.47804 0.18769 0.0
H81 H 0.83325 0.46361 0.1976 0.0
H82 H 0.84857 0.47027 0.17311 0.0
H83 H 0.85389 0.48714 0.1974 0.0
C84 C 0.78017 0.43605 0.10136 0.0
N85 N 0.78341 0.43337 0.12266 0.0
N86 N 0.78904 0.45364 0.13139 0.0
C87 C 0.78963 0.46992 0.11558 0.0
C88 C 0.78411 0.45925 0.09609 0.0
C89 C 0.77137 0.4171 0.08678 0.0
H90 H 0.75694 0.40747 0.09479 0.0
H91 H 0.78579 0.40456 0.08357 0.0
H92 H 0.76494 0.42416 0.07123 0.0
O93 O 0.75452 0.4125 0.16135 0.0
O94 O 0.76252 0.44649 0.17696 0.0
H95 H 0.77968 0.50415 0.12576 0.0
H96 H 0.79992 0.5038 0.10349 0.0
C97 C 0.79525 0.4952 0.11894 0.0
H98 H 0.80999 0.497 0.13045 0.0
H99 H 0.76898 0.50248 0.16481 0.0
O100 O 0.77043 0.37828 0.1245 0.0
C101 C 0.74945 0.42854 0.17478 0.0
Co102 Co 0.08129 0.76853 0.63928 0.0
Co103 Co 0.03598 0.78871 0.66128 0.0
C104 C 0.08255 0.81104 0.66803 0.0
O105 O 0.09193 0.79511 0.65668 0.0
O106 O 0.06043 0.8119 0.67071 0.0
C107 C 0.12301 0.77284 0.61482 0.0
O108 O 0.11723 0.7951 0.61492 0.0
C109 C -0.00094 0.81898 0.68066 0.0
C110 C 0.96816 0.79584 0.6784 0.0
C111 C 0.97524 0.81772 0.68548 0.0
N112 N 0.00551 0.79891 0.67087 0.0
N113 N 0.98693 0.78517 0.66971 0.0
C114 C 0.01605 0.83753 0.68744 0.0
H115 H 0.03074 0.82931 0.69633 0.0
H116 H 0.02338 0.84615 0.67292 0.0
H117 H 0.00795 0.85079 0.69811 0.0
C118 C 0.05245 0.7722 0.60053 0.0
N119 N 0.05578 0.77614 0.62164 0.0
N120 N 0.03642 0.78452 0.63027 0.0
C121 C 0.02018 0.78656 0.61447 0.0
C122 C 0.0298 0.77857 0.59522 0.0
C123 C 0.07051 0.76167 0.58594 0.0
H124 H 0.07712 0.74515 0.59307 0.0
H125 H 0.08547 0.77392 0.5845 0.0
H126 H 0.06354 0.7582 0.56957 0.0
O127 O 0.07258 0.74321 0.65852 0.0
O128 O 0.04235 0.758 0.67652 0.0
H129 H 0.98508 0.77991 0.62446 0.0
H130 H 0.98747 0.80014 0.60238 0.0
C131 C 0.99553 0.79458 0.61783 0.0
H132 H 0.99512 0.8093 0.62946 0.0
H133 H 0.98717 0.7683 0.66328 0.0
O134 O 0.1091 0.75802 0.6231 0.0
C135 C 0.05707 0.74156 0.6731 0.0
Co136 Co 0.70946 0.40466 0.84025 0.0
Co137 Co 0.70071 0.45313 0.81746 0.0
C138 C 0.66864 0.41142 0.8112 0.0
O139 O 0.68033 0.39887 0.82423 0.0
O140 O 0.67474 0.43238 0.80701 0.0
C141 C 0.70141 0.36163 0.86325 0.0
O142 O 0.67924 0.36621 0.85949 0.0
C143 C 0.6734 0.49336 0.8017 0.0
C144 C 0.70094 0.51934 0.79462 0.0
C145 C 0.67699 0.51561 0.79326 0.0
N146 N 0.69425 0.4843 0.80744 0.0
N147 N 0.71063 0.49999 0.80325 0.0
C148 C 0.65051 0.4812 0.80515 0.0
H149 H 0.65146 0.47002 0.81973 0.0
H150 H 0.63604 0.49401 0.80697 0.0
H151 H 0.64676 0.46982 0.79107 0.0
C152 C 0.71181 0.43462 0.87848 0.0
N153 N 0.70722 0.43168 0.85744 0.0
N154 N 0.704 0.45223 0.84832 0.0
C155 C 0.70656 0.46901 0.86352 0.0
C156 C 0.71177 0.45835 0.88311 0.0
C157 C 0.71746 0.41499 0.89355 0.0
H158 H 0.70386 0.40123 0.89213 0.0
H159 H 0.71828 0.42098 0.91054 0.0
H160 H 0.73453 0.40716 0.88893 0.0
O161 O 0.73562 0.40826 0.81981 0.0
O162 O 0.73045 0.44241 0.80345 0.0
H163 H 0.70801 0.50518 0.8738 0.0
H164 H 0.69052 0.49944 0.85 0.0
C165 C 0.70672 0.49465 0.85882 0.0
H166 H 0.72187 0.49875 0.84829 0.0
H167 H 0.72848 0.4973 0.80587 0.0
O168 O 0.71691 0.37624 0.85732 0.0
C169 C 0.74218 0.42366 0.80629 0.0
Co170 Co 0.08645 0.71348 0.33726 0.0
Co171 Co 0.03856 0.70409 0.31365 0.0
C172 C 0.08093 0.67283 0.30772 0.0
O173 O 0.09305 0.68468 0.32099 0.0
O174 O 0.05989 0.67853 0.30331 0.0
C175 C 0.1289 0.70552 0.36106 0.0
O176 O 0.12407 0.68336 0.35761 0.0
C177 C -0.00113 0.67587 0.2982 0.0
C178 C 0.97235 0.70271 0.29055 0.0
C179 C 0.97649 0.67882 0.28978 0.0
N180 N 0.00761 0.69701 0.30338 0.0
N181 N 0.99161 0.71297 0.29883 0.0
C182 C 0.01143 0.65333 0.3023 0.0
H183 H 0.02266 0.65498 0.31681 0.0
H184 H -0.00116 0.63875 0.30458 0.0
H185 H 0.02283 0.64926 0.28831 0.0
C186 C 0.0559 0.71411 0.37525 0.0
N187 N 0.05927 0.71044 0.35409 0.0
N188 N 0.03892 0.70718 0.34455 0.0
C189 C 0.02185 0.70895 0.35956 0.0
C190 C 0.03211 0.71326 0.3795 0.0
C191 C 0.075 0.72064 0.39063 0.0
H192 H 0.08355 0.73698 0.38503 0.0
H193 H 0.08845 0.70664 0.39075 0.0
H194 H 0.06827 0.72325 0.40723 0.0
O195 O 0.08267 0.73979 0.31705 0.0
O196 O 0.04907 0.73397 0.29981 0.0
H197 H 0.99169 0.72333 0.34418 0.0
H198 H 0.98557 0.70912 0.36961 0.0
C199 C 0.99622 0.7083 0.35467 0.0
H200 H 0.99204 0.69201 0.34573 0.0
H201 H 0.99396 0.73091 0.30109 0.0
O202 O 0.11454 0.72105 0.3547 0.0
C203 C 0.06749 0.74606 0.30318 0.0
Co204 Co 0.78189 0.08794 0.8374 0.0
Co205 Co 0.79091 0.04044 0.81308 0.0
C206 C 0.82235 0.08289 0.8078 0.0
O207 O 0.81083 0.09488 0.82144 0.0
O208 O 0.81635 0.06203 0.80303 0.0
C209 C 0.7875 0.13156 0.86056 0.0
O210 O 0.80969 0.12965 0.85524 0.0
C211 C 0.81912 0.00092 0.79726 0.0
C212 C 0.79215 0.97463 0.78929 0.0
C213 C 0.81609 0.97865 0.78866 0.0
N214 N 0.79797 0.00971 0.80241 0.0
N215 N 0.78193 0.99385 0.79766 0.0
C216 C 0.84172 0.01329 0.80164 0.0
H217 H 0.83998 0.02448 0.81617 0.0
H218 H 0.85621 0.00061 0.80403 0.0
H219 H 0.84602 0.0247 0.78773 0.0
C220 C 0.78236 0.05694 0.87501 0.0
N221 N 0.78496 0.0605 0.85376 0.0
N222 N 0.78806 0.0403 0.84394 0.0
C223 C 0.78721 0.0231 0.85886 0.0
C224 C 0.78371 0.03316 0.87902 0.0
C225 C 0.77689 0.07592 0.89085 0.0
H226 H 0.79071 0.08953 0.89006 0.0
H227 H 0.77565 0.06915 0.90756 0.0
H228 H 0.76002 0.08428 0.8864 0.0
O229 O 0.75583 0.08464 0.8168 0.0
O230 O 0.76105 0.05112 0.79936 0.0
H231 H 0.78831 0.98682 0.86869 0.0
H232 H 0.80519 0.99403 0.84487 0.0
C233 C 0.78874 -0.00242 0.85381 0.0
H234 H 0.77387 0.9926 0.84326 0.0
H235 H 0.76398 0.99627 0.7999 0.0
O236 O 0.77336 0.11532 0.85541 0.0
C237 C 0.74931 0.06975 0.80278 0.0
Co238 Co 0.40516 0.78081 0.33875 0.0
Co239 Co 0.45295 0.79315 0.31619 0.0
C240 C 0.40921 0.82185 0.30921 0.0
O241 O 0.39743 0.80909 0.32202 0.0
O242 O 0.43077 0.81769 0.30546 0.0
C243 C 0.36167 0.78664 0.36167 0.0
O244 O 0.36478 0.80898 0.35762 0.0
C245 C 0.49221 0.82213 0.30058 0.0
C246 C 0.51951 0.79563 0.29434 0.0
C247 C 0.51485 0.81936 0.29263 0.0
N248 N 0.48388 0.80102 0.30637 0.0
N249 N 0.50036 0.78528 0.30267 0.0
C250 C 0.479 0.84449 0.30371 0.0
H251 H 0.46736 0.84308 0.31797 0.0
H252 H 0.49116 0.85944 0.30591 0.0
H253 H 0.46793 0.84778 0.28933 0.0
C254 C 0.43457 0.78271 0.37746 0.0
N255 N 0.43168 0.78555 0.35614 0.0
N256 N 0.45202 0.79016 0.34708 0.0
C257 C 0.46865 0.79016 0.36259 0.0
C258 C 0.45807 0.78562 0.38236 0.0
C259 C 0.41548 0.77482 0.39234 0.0
H260 H 0.40741 0.75861 0.38589 0.0
H261 H 0.40169 0.78847 0.39302 0.0
H262 H 0.42202 0.77137 0.40885 0.0
O263 O 0.41068 0.7544 0.31893 0.0
O264 O 0.44393 0.76297 0.30207 0.0
H265 H 0.50088 0.77861 0.34882 0.0
H266 H 0.50426 0.79477 0.37371 0.0
C267 C 0.49422 0.79355 0.35845 0.0
H268 H 0.49687 0.80973 0.34889 0.0
H269 H 0.49839 0.7674 0.30553 0.0
O270 O 0.37723 0.77204 0.35585 0.0
C271 C 0.42644 0.7495 0.30515 0.0
Co272 Co 0.28261 0.90316 0.83195 0.0
Co273 Co 0.29531 0.95167 0.81067 0.0
C274 C 0.32728 0.90918 0.80796 0.0
O275 O 0.31336 0.89701 0.81931 0.0
O276 O 0.32259 0.93044 0.80337 0.0
C277 C 0.28765 0.86067 0.85637 0.0
O278 O 0.31019 0.86483 0.85455 0.0
C279 C 0.32115 0.99083 0.79002 0.0
C280 C 0.29828 0.02099 0.7971 0.0
C281 C 0.31936 0.015 0.78747 0.0
N282 N 0.30251 0.98318 0.80135 0.0
N283 N 0.28869 0.00129 0.80508 0.0
C284 C 0.33834 0.97478 0.77937 0.0
H285 H 0.32919 0.95887 0.77361 0.0
H286 H 0.35191 0.96954 0.79122 0.0
H287 H 0.34682 0.98315 0.76528 0.0
C288 C 0.2785 0.93212 0.87055 0.0
N289 N 0.28313 0.93002 0.84942 0.0
N290 N 0.28881 0.9506 0.84138 0.0
C291 C 0.2882 0.96646 0.85765 0.0
C292 C 0.28156 0.9552 0.87654 0.0
C293 C 0.27029 0.91244 0.88451 0.0
H294 H 0.2848 0.89975 0.8867 0.0
H295 H 0.26449 0.91874 0.90051 0.0
H296 H 0.25551 0.90327 0.87657 0.0
O297 O 0.26003 0.9064 0.80845 0.0
O298 O 0.26712 0.94101 0.79358 0.0
H299 H 0.27943 0.0019 0.85058 0.0
H300 H 0.30083 -0.00138 0.87151 0.0
C301 C 0.29492 0.99163 0.85573 0.0
H302 H 0.30913 0.99374 0.84371 0.0
H303 H 0.27257 0.00018 0.81293 0.0
O304 O 0.27307 0.87507 0.8484 0.0
C305 C 0.25546 0.92198 0.79447 0.0
Co306 Co 0.58843 0.27964 0.33534 0.0
Co307 Co 0.5412 0.29221 0.31182 0.0
C308 C 0.58482 0.32156 0.30678 0.0
O309 O 0.5962 0.30809 0.31926 0.0
O310 O 0.56326 0.31784 0.30258 0.0
C311 C 0.63193 0.28476 0.35844 0.0
O312 O 0.6297 0.30702 0.35361 0.0
C313 C 0.50142 0.32076 0.29636 0.0
C314 C 0.47487 0.29378 0.28921 0.0
C315 C 0.47892 0.31766 0.28824 0.0
N316 N 0.5103 0.29969 0.30158 0.0
N317 N 0.49428 0.28366 0.29731 0.0
C318 C 0.51394 0.34338 0.30011 0.0
H319 H 0.52573 0.34185 0.31425 0.0
H320 H 0.50131 0.35786 0.30278 0.0
H321 H 0.52472 0.34752 0.28575 0.0
C322 C 0.55779 0.2788 0.37299 0.0
N323 N 0.56134 0.28347 0.35205 0.0
N324 N 0.54118 0.28808 0.34266 0.0
C325 C 0.52402 0.28636 0.35762 0.0
C326 C 0.53406 0.2804 0.3773 0.0
C327 C 0.57663 0.27093 0.3881 0.0
H328 H 0.59115 0.28382 0.38791 0.0
H329 H 0.57004 0.26908 0.40483 0.0
H330 H 0.58371 0.25389 0.38252 0.0
O331 O 0.58375 0.25393 0.31496 0.0
O332 O 0.55111 0.26234 0.29713 0.0
H333 H 0.49326 0.27316 0.34237 0.0
H334 H 0.48782 0.28779 0.36773 0.0
C335 C 0.49845 0.28808 0.35275 0.0
H336 H 0.49492 0.30447 0.34377 0.0
H337 H 0.4967 0.26575 0.29969 0.0
O338 O 0.61591 0.27053 0.35294 0.0
C339 C 0.56866 0.24902 0.3006 0.0
Co340 Co 0.22059 0.58577 0.83616 0.0
Co341 Co 0.20217 0.53901 0.81527 0.0
C342 C 0.17764 0.5845 0.80782 0.0
O343 O 0.19302 0.59495 0.81907 0.0
O344 O 0.17837 0.5624 0.80522 0.0
C345 C 0.21391 0.62706 0.86077 0.0
O346 O 0.19191 0.62043 0.85962 0.0
C347 C 0.17331 0.50127 0.79561 0.0
C348 C 0.19581 0.47033 0.80066 0.0
C349 C 0.17458 0.47726 0.79194 0.0
N350 N 0.19269 0.50803 0.80636 0.0
N351 N 0.20608 0.48942 0.80919 0.0
C352 C 0.15556 0.51801 0.78683 0.0
H353 H 0.16474 0.53217 0.77802 0.0
H354 H 0.14571 0.52603 0.80036 0.0
H355 H 0.1432 0.5095 0.77552 0.0
C356 C 0.21753 0.55801 0.87563 0.0
N357 N 0.21408 0.56036 0.85433 0.0
N358 N 0.20601 0.54061 0.84627 0.0
C359 C 0.20353 0.52514 0.86264 0.0
C360 C 0.2107 0.53573 0.88177 0.0
C361 C 0.22972 0.57591 0.88926 0.0
H362 H 0.24371 0.58458 0.87981 0.0
H363 H 0.21687 0.58937 0.89439 0.0
H364 H 0.23773 0.56795 0.90379 0.0
O365 O 0.24634 0.57757 0.81687 0.0
O366 O 0.23285 0.54586 0.80015 0.0
H367 H 0.20868 0.48909 0.85512 0.0
H368 H 0.18708 0.4943 0.87569 0.0
C369 C 0.19423 0.50084 0.86019 0.0
H370 H 0.18033 0.50042 0.84773 0.0
H371 H 0.22244 0.48981 0.81668 0.0
O372 O 0.22965 0.61416 0.85246 0.0
C373 C 0.24864 0.5614 0.80295 0.0
Co374 Co 0.90507 0.20938 0.34 0.0
Co375 Co 0.95302 0.20029 0.31643 0.0
C376 C 0.91111 0.16815 0.3114 0.0
O377 O 0.89895 0.17996 0.32467 0.0
O378 O 0.93197 0.17419 0.30661 0.0
C379 C 0.86285 0.20154 0.36423 0.0
O380 O 0.86787 0.17935 0.36118 0.0
C381 C 0.99324 0.17277 0.30093 0.0
C382 C 0.01859 0.20026 0.29201 0.0
C383 C 0.01524 0.17623 0.29181 0.0
N384 N 0.98398 0.19374 0.30594 0.0
N385 N -0.00071 0.21009 0.30065 0.0
C386 C 0.98147 0.14998 0.30575 0.0
H387 H 0.97035 0.15173 0.32033 0.0
H388 H 0.99457 0.1359 0.30829 0.0
H389 H 0.97004 0.14511 0.29201 0.0
C390 C 0.93592 0.21257 0.37763 0.0
N391 N 0.93249 0.20762 0.35671 0.0
N392 N 0.95284 0.20422 0.34722 0.0
C393 C 0.96999 0.20708 0.36202 0.0
C394 C 0.95977 0.21265 0.38175 0.0
C395 C 0.9166 0.21819 0.39311 0.0
H396 H 0.9029 0.2045 0.39207 0.0
H397 H 0.92302 0.21917 0.40996 0.0
H398 H 0.90852 0.23515 0.38857 0.0
O399 O 0.90798 0.2349 0.3188 0.0
O400 O 0.94203 0.22971 0.30221 0.0
H401 H 0.00644 0.20897 0.37151 0.0
H402 H 0.00015 0.1905 0.34847 0.0
C403 C 0.99556 0.20705 0.35681 0.0
H404 H -0.0006 0.2217 0.34565 0.0
H405 H 0.99638 0.228 0.30255 0.0
O406 O 0.87699 0.21705 0.35744 0.0
C407 C 0.92314 0.24125 0.30495 0.0
Co408 Co 0.27522 0.58618 0.14129 0.0
Co409 Co 0.29056 0.53836 0.16244 0.0
C410 C 0.31713 0.58276 0.17038 0.0
O411 O 0.30321 0.59408 0.15832 0.0
O412 O 0.31451 0.56092 0.17353 0.0
C413 C 0.28391 0.62768 0.11763 0.0
O414 O 0.30561 0.62018 0.11906 0.0
C415 C 0.31912 0.4998 0.1809 0.0
C416 C 0.2951 0.4697 0.17775 0.0
C417 C 0.31717 0.47593 0.18504 0.0
N418 N 0.29925 0.50715 0.17129 0.0
N419 N 0.28498 0.48904 0.16955 0.0
C420 C 0.33817 0.51597 0.18821 0.0
H421 H 0.33042 0.52983 0.19848 0.0
H422 H 0.34626 0.52448 0.17397 0.0
H423 H 0.3518 0.50696 0.19777 0.0
C424 C 0.2773 0.55819 0.10186 0.0
N425 N 0.28072 0.56047 0.12317 0.0
N426 N 0.28745 0.5403 0.13137 0.0
C427 C 0.28896 0.52456 0.1151 0.0
C428 C 0.28265 0.53544 0.09586 0.0
C429 C 0.26634 0.57676 0.08813 0.0
H430 H 0.25266 0.58613 0.09741 0.0
H431 H 0.27998 0.58956 0.08332 0.0
H432 H 0.25819 0.56933 0.07342 0.0
O433 O 0.24893 0.57906 0.16055 0.0
O434 O 0.25989 0.54614 0.17686 0.0
H435 H 0.28106 0.48932 0.1237 0.0
H436 H 0.30221 0.49203 0.1023 0.0
C437 C 0.29623 0.49961 0.11783 0.0
H438 H 0.31052 0.49836 0.12987 0.0
H439 H 0.26816 0.48995 0.16302 0.0
O440 O 0.26749 0.61509 0.12517 0.0
C441 C 0.24524 0.56275 0.17406 0.0
Co442 Co 0.9068 0.27825 0.63821 0.0
Co443 Co 0.95412 0.29245 0.66087 0.0
C444 C 0.9098 0.31979 0.66771 0.0
O445 O 0.89863 0.3061 0.65525 0.0
O446 O 0.93156 0.31682 0.67141 0.0
C447 C 0.86377 0.2846 0.61507 0.0
O448 O 0.86821 0.3069 0.61823 0.0
C449 C 0.99316 0.32198 0.67622 0.0
C450 C 0.02066 0.29573 0.68262 0.0
C451 C 0.01585 0.31945 0.68412 0.0
N452 N 0.98495 0.30073 0.67065 0.0
N453 N 0.00154 0.28515 0.67445 0.0
C454 C 0.97981 0.3442 0.67289 0.0
H455 H 0.96803 0.34247 0.65876 0.0
H456 H 0.99188 0.35917 0.67038 0.0
H457 H 0.96888 0.34771 0.68732 0.0
C458 C 0.93624 0.28092 0.59957 0.0
N459 N 0.93316 0.28384 0.62086 0.0
N460 N 0.95331 0.28918 0.62997 0.0
C461 C 0.97 0.28957 0.61453 0.0
C462 C 0.95967 0.2845 0.59475 0.0
C463 C 0.91745 0.27239 0.58468 0.0
H464 H 0.90916 0.25653 0.59159 0.0
H465 H 0.90374 0.28605 0.58323 0.0
H466 H 0.92435 0.26816 0.56843 0.0
O467 O 0.9132 0.25189 0.6577 0.0
O468 O 0.94566 0.26212 0.6751 0.0
H469 H 0.00258 0.27919 0.62839 0.0
H470 H 0.00547 0.29538 0.60349 0.0
C471 C 0.99542 0.29386 0.61873 0.0
H472 H -0.00251 0.31015 0.62827 0.0
H473 H -0.00032 0.26722 0.67175 0.0
O474 O 0.8786 0.26946 0.62132 0.0
C475 C 0.92891 0.24782 0.67173 0.0
Co476 Co 0.22179 0.91076 0.14136 0.0
Co477 Co 0.20276 0.95828 0.1604 0.0
C478 C 0.17792 0.91282 0.16811 0.0
O479 O 0.19354 0.90196 0.15748 0.0
O480 O 0.1788 0.93496 0.17044 0.0
C481 C 0.2186 0.86667 0.12006 0.0
O482 O 0.19602 0.87102 0.12104 0.0
C483 C 0.17365 0.9962 0.17933 0.0
C484 C 0.19522 0.02741 0.17259 0.0
C485 C 0.17448 0.02036 0.18217 0.0
N486 N 0.19277 0.98945 0.16819 0.0
N487 N 0.20563 0.00822 0.16438 0.0
C488 C 0.15685 0.97941 0.18949 0.0
H489 H 0.16687 0.96562 0.19801 0.0
H490 H 0.14619 0.97092 0.17674 0.0
H491 H 0.14516 0.98802 0.20133 0.0
C492 C 0.21856 0.93649 0.10079 0.0
N493 N 0.21556 0.93533 0.12222 0.0
N494 N 0.20767 0.95552 0.12952 0.0
C495 C 0.20523 0.97018 0.11251 0.0
C496 C 0.21205 0.95853 0.09384 0.0
C497 C 0.22887 0.91719 0.0875 0.0
H498 H 0.24448 0.90994 0.09576 0.0
H499 H 0.21578 0.90297 0.08581 0.0
H500 H 0.23404 0.92332 0.07123 0.0
O501 O 0.24648 0.92 0.16133 0.0
O502 O 0.23269 0.95229 0.17679 0.0
H503 H 0.2105 0.00653 0.11849 0.0
H504 H 0.18914 0.00042 0.09797 0.0
C505 C 0.19604 0.99462 0.11381 0.0
H506 H 0.18199 0.99575 0.1261 0.0
H507 H 0.22181 0.00787 0.15657 0.0
O508 O 0.23294 0.882 0.12682 0.0
C509 C 0.24844 0.9366 0.17482 0.0
Co510 Co 0.58413 0.22509 0.63834 0.0
Co511 Co 0.53771 0.20607 0.65974 0.0
C512 C 0.5835 0.18173 0.66614 0.0
O513 O 0.5937 0.19719 0.65482 0.0
O514 O 0.56144 0.18242 0.66922 0.0
C515 C 0.62545 0.21926 0.61354 0.0
O516 O 0.61899 0.19722 0.61443 0.0
C517 C 0.50051 0.178 0.68122 0.0
C518 C 0.46865 0.19762 0.67233 0.0
C519 C 0.47618 0.17788 0.68329 0.0
N520 N 0.50682 0.19643 0.66896 0.0
N521 N 0.48767 0.20829 0.6641 0.0
C522 C 0.51775 0.16297 0.69297 0.0
H523 H 0.53264 0.17382 0.69856 0.0
H524 H 0.52456 0.14932 0.68189 0.0
H525 H 0.50977 0.15456 0.70729 0.0
C526 C 0.55545 0.22286 0.59935 0.0
N527 N 0.55833 0.21889 0.62051 0.0
N528 N 0.53888 0.21017 0.6287 0.0
C529 C 0.52326 0.20753 0.61243 0.0
C530 C 0.53322 0.21579 0.59349 0.0
C531 C 0.57356 0.23385 0.58515 0.0
H532 H 0.58129 0.24927 0.59336 0.0
H533 H 0.58775 0.22102 0.58214 0.0
H534 H 0.56612 0.2393 0.56943 0.0
O535 O 0.57618 0.25035 0.65828 0.0
O536 O 0.54469 0.23647 0.6751 0.0
H537 H 0.4867 0.21158 0.61847 0.0
H538 H 0.49362 0.1892 0.59926 0.0
C539 C 0.49926 0.19738 0.61463 0.0
H540 H 0.49893 0.1841 0.62762 0.0
H541 H 0.48759 0.22382 0.65529 0.0
O542 O 0.61228 0.23477 0.62187 0.0
C543 C 0.56018 0.25232 0.67241 0.0
H544 H 0.68458 0.93925 0.21121 0.0
H545 H 0.65699 0.91369 0.23006 0.0
H546 H 0.59914 0.94971 0.20012 0.0
H547 H 0.62674 0.97525 0.18111 0.0
H548 H 0.59073 0.94231 0.24252 0.0
H549 H 0.61621 0.89618 0.18243 0.0
H550 H 0.64493 0.87742 0.15829 0.0
H551 H 0.67194 0.83737 0.21124 0.0
H552 H 0.64357 0.85614 0.23577 0.0
H553 H 0.50351 0.85689 0.26692 0.0
H554 H 0.53027 0.8842 0.24937 0.0
H555 H 0.58918 0.84803 0.27734 0.0
H556 H 0.56241 0.82065 0.29502 0.0
H557 H 0.59661 0.85601 0.23582 0.0
H558 H 0.57103 0.90222 0.29599 0.0
H559 H 0.54208 0.92085 0.31999 0.0
H560 H 0.51506 0.96063 0.26687 0.0
H561 H 0.54365 0.94198 0.24247 0.0
C562 C 0.66597 0.94174 0.20867 0.0
C563 C 0.65781 0.95957 0.19503 0.0
C564 C 0.65021 0.92708 0.21942 0.0
C565 C 0.62595 0.92969 0.21646 0.0
C566 C 0.61775 0.94748 0.2028 0.0
C567 C 0.63354 0.96217 0.19206 0.0
C568 C 0.6092 0.91375 0.22753 0.0
C569 C 0.59181 0.92344 0.24083 0.0
C570 C 0.61088 0.88911 0.2257 0.0
C571 C 0.62791 0.87774 0.21098 0.0
C572 C 0.6284 0.88351 0.18896 0.0
C573 C 0.64459 0.87285 0.1752 0.0
C574 C 0.66029 0.85626 0.18323 0.0
C575 C 0.65978 0.85025 0.20504 0.0
C576 C 0.64364 0.86088 0.21888 0.0
C577 C 0.5221 0.85512 0.26987 0.0
C578 C 0.53079 0.83695 0.28287 0.0
C579 C 0.53743 0.87068 0.25966 0.0
C580 C 0.56178 0.86843 0.26226 0.0
C581 C 0.57048 0.8502 0.27514 0.0
C582 C 0.55516 0.83461 0.28528 0.0
C583 C 0.57821 0.88453 0.25096 0.0
C584 C 0.59552 0.87487 0.23756 0.0
C585 C 0.57644 0.90919 0.2527 0.0
C586 C 0.55933 0.92053 0.26736 0.0
C587 C 0.5588 0.91481 0.28939 0.0
C588 C 0.54248 0.92539 0.30307 0.0
C589 C 0.52671 0.94187 0.29495 0.0
C590 C 0.52727 0.94784 0.27313 0.0
C591 C 0.54354 0.93728 0.25937 0.0
H592 H 0.51408 0.95004 0.30557 0.0
H593 H 0.67281 0.84802 0.17255 0.0
H594 H 0.67606 0.56317 0.79566 0.0
H595 H 0.64915 0.59009 0.77741 0.0
H596 H 0.61312 0.53144 0.74888 0.0
H597 H 0.64016 0.50454 0.76676 0.0
H598 H 0.62276 0.5659 0.71941 0.0
H599 H 0.58844 0.56057 0.79001 0.0
H600 H 0.58834 0.56264 0.82969 0.0
H601 H 0.60775 0.63515 0.82696 0.0
H602 H 0.60829 0.63343 0.78724 0.0
H603 H 0.52404 0.62659 0.67853 0.0
H604 H 0.55025 0.59977 0.69748 0.0
H605 H 0.58055 0.65797 0.73194 0.0
H606 H 0.55334 0.68466 0.71392 0.0
H607 H 0.57396 0.62366 0.75876 0.0
H608 H 0.60888 0.62979 0.68889 0.0
H609 H 0.61026 0.62845 0.64921 0.0
H610 H 0.59154 0.55571 0.65031 0.0
H611 H 0.58974 0.55669 0.69001 0.0
C612 C 0.66226 0.55604 0.78563 0.0
C613 C 0.65987 0.53172 0.78309 0.0
C614 C 0.64687 0.57142 0.77526 0.0
C615 C 0.62892 0.56277 0.76197 0.0
C616 C 0.6267 0.5385 0.75919 0.0
C617 C 0.64198 0.52312 0.76968 0.0
C618 C 0.61279 0.57904 0.75059 0.0
C619 C 0.61184 0.57833 0.72801 0.0
C620 C 0.59906 0.59571 0.76178 0.0
C621 C 0.59863 0.59681 0.78566 0.0
C622 C 0.59288 0.57691 0.79787 0.0
C623 C 0.5927 0.57803 0.82037 0.0
C624 C 0.59809 0.599 0.83084 0.0
C625 C 0.6036 0.61891 0.81883 0.0
C626 C 0.60383 0.61788 0.79632 0.0
C627 C 0.53592 0.6336 0.6905 0.0
C628 C 0.53612 0.65765 0.69523 0.0
C629 C 0.55122 0.61829 0.70106 0.0
C630 C 0.56755 0.6268 0.71611 0.0
C631 C 0.56807 0.65091 0.7205 0.0
C632 C 0.5526 0.66618 0.71011 0.0
C633 C 0.58386 0.61058 0.72748 0.0
C634 C 0.58487 0.61128 0.75009 0.0
C635 C 0.59783 0.59404 0.71629 0.0
C636 C 0.59895 0.59338 0.69242 0.0
C637 C 0.60488 0.61355 0.68067 0.0
C638 C 0.60577 0.61285 0.65817 0.0
C639 C 0.60093 0.59202 0.64724 0.0
C640 C 0.59526 0.57183 0.65879 0.0
C641 C 0.59432 0.57245 0.68129 0.0
H642 H 0.60163 0.59151 0.62982 0.0
H643 H 0.59794 0.59983 0.84826 0.0
H644 H 0.98783 0.64119 0.26437 0.0
H645 H 0.9611 0.61324 0.24749 0.0
H646 H 0.90218 0.64923 0.27567 0.0
H647 H 0.92896 0.67711 0.29292 0.0
H648 H 0.89848 0.60069 0.27881 0.0
H649 H 0.91503 0.65834 0.22439 0.0
H650 H 0.94059 0.68242 0.20131 0.0
H651 H 0.97009 0.62031 0.17333 0.0
H652 H 0.94492 0.59585 0.19648 0.0
H653 H 0.80799 0.5512 0.21543 0.0
H654 H 0.83501 0.5782 0.23327 0.0
H655 H 0.89282 0.54771 0.19835 0.0
H656 H 0.86563 0.52154 0.17965 0.0
H657 H 0.89762 0.59299 0.19919 0.0
H658 H 0.88179 0.53501 0.25272 0.0
H659 H 0.85732 0.51007 0.27601 0.0
H660 H 0.82796 0.57111 0.30602 0.0
H661 H 0.85202 0.59645 0.28268 0.0
C662 C 0.96924 0.64285 0.26741 0.0
C663 C 0.96052 0.66109 0.28034 0.0
C664 C 0.95395 0.62703 0.25751 0.0
C665 C 0.92963 0.62919 0.26024 0.0
C666 C 0.92088 0.64719 0.27338 0.0
C667 C 0.93617 0.66314 0.28316 0.0
C668 C 0.9133 0.61298 0.24903 0.0
C669 C 0.89806 0.59919 0.26139 0.0
C670 C 0.9132 0.61059 0.22633 0.0
C671 C 0.92826 0.62527 0.21232 0.0
C672 C 0.9271 0.64982 0.21344 0.0
C673 C 0.94149 0.66354 0.20032 0.0
C674 C 0.957 0.6529 0.18591 0.0
C675 C 0.95809 0.62853 0.18453 0.0
C676 C 0.94375 0.61473 0.19763 0.0
C677 C 0.82647 0.55026 0.21159 0.0
C678 C 0.8348 0.5337 0.19669 0.0
C679 C 0.84194 0.56558 0.22191 0.0
C680 C 0.8661 0.56463 0.21762 0.0
C681 C 0.87433 0.54859 0.2022 0.0
C682 C 0.85883 0.53338 0.19175 0.0
C683 C 0.88269 0.58058 0.22895 0.0
C684 C 0.898 0.59438 0.21661 0.0
C685 C 0.883 0.58281 0.2517 0.0
C686 C 0.86855 0.56763 0.2658 0.0
C687 C 0.86998 0.54312 0.26417 0.0
C688 C 0.85621 0.52891 0.2774 0.0
C689 C 0.84105 0.539 0.29245 0.0
C690 C 0.83968 0.56332 0.29433 0.0
C691 C 0.8534 0.57762 0.28112 0.0
H692 H 0.8304 0.52797 0.30268 0.0
H693 H 0.96813 0.66356 0.17577 0.0
H694 H 0.94086 0.80859 0.71453 0.0
H695 H 0.9146 0.83639 0.73231 0.0
H696 H 0.94818 0.89339 0.69893 0.0
H697 H 0.97421 0.86555 0.68074 0.0
H698 H 0.94095 0.90312 0.74225 0.0
H699 H 0.89623 0.87466 0.6822 0.0
H700 H 0.87854 0.84456 0.65884 0.0
H701 H 0.83834 0.81875 0.71223 0.0
H702 H 0.85606 0.84851 0.73599 0.0
H703 H 0.85436 0.98965 0.76391 0.0
H704 H 0.88225 0.96273 0.74727 0.0
H705 H 0.84511 0.90419 0.77476 0.0
H706 H 0.81701 0.93115 0.7913 0.0
H707 H 0.8548 0.89551 0.73436 0.0
H708 H 0.89919 0.92341 0.79463 0.0
H709 H 0.91689 0.95308 0.81846 0.0
H710 H 0.95774 0.97932 0.76567 0.0
H711 H 0.94003 0.95001 0.74143 0.0
C712 C 0.94269 0.82706 0.71102 0.0
C713 C 0.95998 0.83493 0.69663 0.0
C714 C 0.92766 0.84292 0.72117 0.0
C715 C 0.92941 0.86699 0.71695 0.0
C716 C 0.94668 0.87493 0.70259 0.0
C717 C 0.96167 0.85902 0.69236 0.0
C718 C 0.91298 0.88377 0.72731 0.0
C719 C 0.92212 0.90168 0.74031 0.0
C720 C 0.88839 0.88153 0.7252 0.0
C721 C 0.87765 0.86367 0.71092 0.0
C722 C 0.88376 0.86245 0.689 0.0
C723 C 0.8737 0.84547 0.67568 0.0
C724 C 0.85737 0.82971 0.68406 0.0
C725 C 0.85102 0.83095 0.70577 0.0
C726 C 0.86105 0.84788 0.71917 0.0
C727 C 0.85246 0.9711 0.76687 0.0
C728 C 0.83382 0.96255 0.77939 0.0
C729 C 0.86837 0.95568 0.75723 0.0
C730 C 0.86608 0.93139 0.76003 0.0
C731 C 0.84735 0.92284 0.77241 0.0
C732 C 0.83133 0.93825 0.78191 0.0
C733 C 0.88272 0.91487 0.74947 0.0
C734 C 0.87362 0.897 0.73638 0.0
C735 C 0.90734 0.91709 0.75161 0.0
C736 C 0.91811 0.93465 0.76617 0.0
C737 C 0.91182 0.93562 0.78806 0.0
C738 C 0.92187 0.95235 0.80165 0.0
C739 C 0.93838 0.96811 0.79357 0.0
C740 C 0.94492 0.96712 0.77189 0.0
C741 C 0.9349 0.95044 0.75823 0.0
H742 H 0.94614 0.98105 0.80411 0.0
H743 H 0.8496 0.81658 0.67372 0.0
H744 H 0.36752 0.01215 0.78403 0.0
H745 H 0.3938 0.03914 0.76584 0.0
H746 H 0.33549 0.08475 0.75185 0.0
H747 H 0.30875 0.05656 0.76825 0.0
H748 H 0.36134 0.08467 0.71899 0.0
H749 H 0.37808 0.09503 0.79363 0.0
H750 H 0.38837 0.0835 0.83071 0.0
H751 H 0.45437 0.05667 0.80852 0.0
H752 H 0.44434 0.06777 0.77124 0.0
H753 H 0.43342 0.1865 0.70119 0.0
H754 H 0.40691 0.15874 0.71873 0.0
H755 H 0.45674 0.10325 0.70836 0.0
H756 H 0.48269 0.13045 0.68959 0.0
H757 H 0.43567 0.10933 0.75362 0.0
H758 H 0.41619 0.1005 0.67787 0.0
H759 H 0.40466 0.11552 0.64218 0.0
H760 H 0.34166 0.1442 0.66927 0.0
H761 H 0.35301 0.12964 0.7052 0.0
C762 C 0.36009 0.02746 0.77644 0.0
C763 C 0.33581 0.03166 0.77691 0.0
C764 C 0.37531 0.0433 0.76649 0.0
C765 C 0.3668 0.06427 0.75762 0.0
C766 C 0.34259 0.0687 0.75844 0.0
C767 C 0.3273 0.0526 0.76795 0.0
C768 C 0.38304 0.08143 0.7473 0.0
C769 C 0.3774 0.09023 0.72679 0.0
C770 C 0.40424 0.0887 0.75721 0.0
C771 C 0.41036 0.08203 0.77961 0.0
C772 C 0.39472 0.08652 0.79663 0.0
C773 C 0.40052 0.08009 0.81769 0.0
C774 C 0.42199 0.0693 0.82196 0.0
C775 C 0.43773 0.06499 0.80518 0.0
C776 C 0.43201 0.07138 0.78409 0.0
C777 C 0.4388 0.1684 0.70264 0.0
C778 C 0.46063 0.16095 0.6946 0.0
C779 C 0.42363 0.15259 0.71271 0.0
C780 C 0.43002 0.12905 0.71505 0.0
C781 C 0.4517 0.12147 0.70702 0.0
C782 C 0.46668 0.13717 0.69656 0.0
C783 C 0.41386 0.11224 0.72553 0.0
C784 C 0.41954 0.10364 0.74601 0.0
C785 C 0.39247 0.10559 0.71586 0.0
C786 C 0.38558 0.11421 0.69425 0.0
C787 C 0.39999 0.11021 0.67625 0.0
C788 C 0.39346 0.11859 0.65597 0.0
C789 C 0.37247 0.13087 0.65347 0.0
C790 C 0.35793 0.13472 0.67123 0.0
C791 C 0.3644 0.1264 0.69155 0.0
H792 H 0.36744 0.13734 0.63776 0.0
H793 H 0.42644 0.06433 0.83827 0.0
H794 H 0.48936 0.35527 0.26252 0.0
H795 H 0.46202 0.38265 0.24582 0.0
H796 H 0.40408 0.34651 0.27553 0.0
H797 H 0.43146 0.31883 0.29204 0.0
H798 H 0.39407 0.35504 0.23539 0.0
H799 H 0.42417 0.40137 0.29346 0.0
H800 H 0.45467 0.41973 0.31595 0.0
H801 H 0.47957 0.45837 0.26126 0.0
H802 H 0.44941 0.43998 0.23837 0.0
H803 H 0.30756 0.44184 0.21427 0.0
H804 H 0.33513 0.41531 0.23207 0.0
H805 H 0.39235 0.44695 0.19733 0.0
H806 H 0.36476 0.47322 0.1792 0.0
H807 H 0.40263 0.44125 0.24031 0.0
H808 H 0.37212 0.3944 0.18245 0.0
H809 H 0.34118 0.37608 0.16045 0.0
H810 H 0.31637 0.33856 0.21583 0.0
H811 H 0.34698 0.35692 0.23823 0.0
C812 C 0.47086 0.35348 0.26594 0.0
C813 C 0.4626 0.33522 0.27905 0.0
C814 C 0.45519 0.36912 0.25628 0.0
C815 C 0.43094 0.36696 0.25967 0.0
C816 C 0.42268 0.34863 0.27269 0.0
C817 C 0.43834 0.33287 0.28219 0.0
C818 C 0.41414 0.38331 0.24909 0.0
C819 C 0.39577 0.37389 0.23678 0.0
C820 C 0.41659 0.40795 0.2504 0.0
C821 C 0.43466 0.41913 0.26416 0.0
C822 C 0.43626 0.41365 0.28619 0.0
C823 C 0.45347 0.42408 0.29902 0.0
C824 C 0.46909 0.44016 0.29003 0.0
C825 C 0.46748 0.44589 0.2682 0.0
C826 C 0.45032 0.43549 0.25529 0.0
C827 C 0.32602 0.44312 0.21044 0.0
C828 C 0.33407 0.46001 0.19576 0.0
C829 C 0.34176 0.42794 0.22059 0.0
C830 C 0.36584 0.42915 0.21607 0.0
C831 C 0.3739 0.44587 0.20126 0.0
C832 C 0.35814 0.461 0.19104 0.0
C833 C 0.3826 0.41294 0.22674 0.0
C834 C 0.40096 0.42239 0.23902 0.0
C835 C 0.38007 0.38834 0.22552 0.0
C836 C 0.3617 0.37721 0.21206 0.0
C837 C 0.35995 0.38239 0.18997 0.0
C838 C 0.34249 0.37197 0.17742 0.0
C839 C 0.32678 0.35621 0.18675 0.0
C840 C 0.32853 0.35079 0.20863 0.0
C841 C 0.34595 0.36118 0.22126 0.0
H842 H 0.31327 0.34817 0.177 0.0
H843 H 0.4824 0.44822 0.29998 0.0
H844 H 0.00444 0.35738 0.70938 0.0
H845 H 0.03115 0.38503 0.72656 0.0
H846 H 0.09012 0.34859 0.69892 0.0
H847 H 0.06339 0.32087 0.6816 0.0
H848 H 0.09761 0.35722 0.74032 0.0
H849 H 0.07196 0.40241 0.67971 0.0
H850 H 0.04307 0.42061 0.65542 0.0
H851 H 0.01578 0.46116 0.708 0.0
H852 H 0.0443 0.44295 0.73269 0.0
H853 H 0.1849 0.44171 0.76437 0.0
H854 H 0.15767 0.4156 0.74566 0.0
H855 H 0.09932 0.45102 0.77548 0.0
H856 H 0.12656 0.47703 0.7944 0.0
H857 H 0.0913 0.44339 0.73285 0.0
H858 H 0.11688 0.39805 0.7934 0.0
H859 H 0.1457 0.37975 0.8177 0.0
H860 H 0.17313 0.33941 0.76504 0.0
H861 H 0.14467 0.35771 0.74035 0.0
C862 C 0.02303 0.35561 0.70642 0.0
C863 C 0.03175 0.33726 0.69362 0.0
C864 C 0.03833 0.37137 0.71642 0.0
C865 C 0.06269 0.36914 0.71381 0.0
C866 C 0.07142 0.35075 0.70113 0.0
C867 C 0.05613 0.33495 0.69119 0.0
C868 C 0.07908 0.38546 0.72492 0.0
C869 C 0.09643 0.37604 0.73841 0.0
C870 C 0.07721 0.41008 0.72293 0.0
C871 C 0.06012 0.42114 0.7081 0.0
C872 C 0.05968 0.41507 0.68613 0.0
C873 C 0.04339 0.42541 0.67228 0.0
C874 C 0.02756 0.44199 0.68017 0.0
C875 C 0.02803 0.4483 0.70192 0.0
C876 C 0.04427 0.43799 0.71585 0.0
C877 C 0.16626 0.44394 0.76692 0.0
C878 C 0.15785 0.46176 0.78047 0.0
C879 C 0.15071 0.42898 0.75625 0.0
C880 C 0.12641 0.43129 0.75918 0.0
C881 C 0.11797 0.44904 0.7728 0.0
C882 C 0.13354 0.464 0.78349 0.0
C883 C 0.10986 0.41512 0.74814 0.0
C884 C 0.09248 0.42456 0.73471 0.0
C885 C 0.11169 0.39051 0.75016 0.0
C886 C 0.12879 0.37943 0.76498 0.0
C887 C 0.12918 0.38541 0.78696 0.0
C888 C 0.14543 0.37502 0.80082 0.0
C889 C 0.16128 0.35847 0.79291 0.0
C890 C 0.16086 0.35225 0.77114 0.0
C891 C 0.14466 0.36261 0.75721 0.0
H892 H 0.17384 0.35044 0.80366 0.0
H893 H 0.01496 0.44997 0.66942 0.0
H894 H 0.00446 0.13684 0.26838 0.0
H895 H 0.03156 0.10978 0.25093 0.0
H896 H 0.09004 0.15017 0.27447 0.0
H897 H 0.06289 0.17735 0.29204 0.0
H898 H 0.09592 0.13987 0.23321 0.0
H899 H 0.07552 0.09642 0.29647 0.0
H900 H 0.04881 0.07817 0.32276 0.0
H901 H 0.02049 0.03419 0.27306 0.0
H902 H 0.04681 0.05242 0.2464 0.0
H903 H 0.18504 0.05747 0.20786 0.0
H904 H 0.15796 0.08348 0.22691 0.0
H905 H 0.09935 0.04494 0.20114 0.0
H906 H 0.1264 0.01905 0.18186 0.0
H907 H 0.09363 0.0539 0.24392 0.0
H908 H 0.11387 0.09766 0.1807 0.0
H909 H 0.14056 0.116 0.15444 0.0
H910 H 0.16928 0.15945 0.20434 0.0
H911 H 0.14297 0.14113 0.23097 0.0
C912 C 0.02307 0.13963 0.27039 0.0
C913 C 0.03153 0.1589 0.28213 0.0
C914 C 0.03859 0.1242 0.26024 0.0
C915 C 0.06291 0.12768 0.26164 0.0
C916 C 0.07138 0.14703 0.27322 0.0
C917 C 0.05585 0.16251 0.2833 0.0
C918 C 0.07946 0.1116 0.25043 0.0
C919 C 0.09564 0.12111 0.23582 0.0
C920 C 0.07875 0.08703 0.25337 0.0
C921 C 0.06299 0.07594 0.2694 0.0
C922 C 0.06347 0.08298 0.29111 0.0
C923 C 0.04842 0.07262 0.30609 0.0
C924 C 0.03292 0.05507 0.29957 0.0
C925 C 0.03249 0.0478 0.27808 0.0
C926 C 0.04748 0.05813 0.26303 0.0
C927 C 0.16638 0.05455 0.20627 0.0
C928 C 0.15786 0.03589 0.19376 0.0
C929 C 0.15091 0.06944 0.21713 0.0
C930 C 0.12659 0.0662 0.21545 0.0
C931 C 0.11804 0.04765 0.20285 0.0
C932 C 0.13351 0.03276 0.19196 0.0
C933 C 0.1101 0.0822 0.22678 0.0
C934 C 0.09392 0.07267 0.24137 0.0
C935 C 0.11082 0.10675 0.22386 0.0
C936 C 0.12661 0.11785 0.20786 0.0
C937 C 0.12601 0.11099 0.18611 0.0
C938 C 0.14104 0.12141 0.17115 0.0
C939 C 0.15665 0.13883 0.17773 0.0
C940 C 0.1572 0.14592 0.19927 0.0
C941 C 0.14222 0.13554 0.2143 0.0
H942 H 0.16827 0.14688 0.16612 0.0
H943 H 0.02128 0.04707 0.31119 0.0
H944 H 0.67119 0.12831 0.16017 0.0
H945 H 0.64598 0.15382 0.18137 0.0
H946 H 0.62129 0.09449 0.21767 0.0
H947 H 0.64653 0.06858 0.19639 0.0
H948 H 0.58587 0.12968 0.20943 0.0
H949 H 0.66424 0.12241 0.23784 0.0
H950 H 0.70735 0.1231 0.23539 0.0
H951 H 0.7053 0.19533 0.21657 0.0
H952 H 0.66212 0.19494 0.21849 0.0
H953 H 0.59555 0.21147 0.3107 0.0
H954 H 0.60794 0.17981 0.28709 0.0
H955 H 0.56468 0.2074 0.23611 0.0
H956 H 0.55181 0.23923 0.25998 0.0
H957 H 0.63287 0.18626 0.25199 0.0
H958 H 0.55221 0.16109 0.20072 0.0
H959 H 0.50922 0.15889 0.20418 0.0
H960 H 0.51584 0.14911 0.27248 0.0
H961 H 0.55886 0.15094 0.26939 0.0
C962 C 0.66013 0.1205 0.17239 0.0
C963 C 0.66123 0.09637 0.17682 0.0
C964 C 0.64566 0.13517 0.18445 0.0
C965 C 0.63204 0.12608 0.20126 0.0
C966 C 0.63172 0.10182 0.20475 0.0
C967 C 0.64624 0.08705 0.19263 0.0
C968 C 0.62054 0.14224 0.21666 0.0
C969 C 0.59606 0.1421 0.21876 0.0
C970 C 0.63393 0.15819 0.22899 0.0
C971 C 0.65993 0.15857 0.22809 0.0
C972 C 0.67297 0.13838 0.233 0.0
C973 C 0.69742 0.13872 0.23172 0.0
C974 C 0.70905 0.15922 0.22575 0.0
C975 C 0.69626 0.17945 0.22113 0.0
C976 C 0.6718 0.17918 0.22231 0.0
C977 C 0.58833 0.21066 0.29458 0.0
C978 C 0.57289 0.22803 0.28713 0.0
C979 C 0.59546 0.19252 0.28109 0.0
C980 C 0.5874 0.19129 0.25978 0.0
C981 C 0.571 0.20789 0.25255 0.0
C982 C 0.56368 0.22608 0.26619 0.0
C983 C 0.59802 0.17395 0.24484 0.0
C984 C 0.62251 0.17392 0.24272 0.0
C985 C 0.58459 0.15774 0.23278 0.0
C986 C 0.55875 0.15641 0.23483 0.0
C987 C 0.54449 0.1584 0.21646 0.0
C988 C 0.52011 0.15722 0.21836 0.0
C989 C 0.5098 0.15395 0.23855 0.0
C990 C 0.52384 0.15176 0.25687 0.0
C991 C 0.54823 0.1529 0.25506 0.0
H992 H 0.49093 0.15305 0.23999 0.0
H993 H 0.72798 0.15944 0.22478 0.0
H994 H 0.25137 0.55312 0.75961 0.0
H995 H 0.28421 0.5631 0.73591 0.0
H996 H 0.32604 0.58109 0.79147 0.0
H997 H 0.29289 0.57235 0.81493 0.0
H998 H 0.32741 0.61497 0.7658 0.0
H999 H 0.33826 0.53286 0.75591 0.0
H1000 H 0.32704 0.49218 0.74766 0.0
H1001 H 0.30703 0.5125 0.68368 0.0
H1002 H 0.31783 0.55339 0.69164 0.0
H1003 H 0.42656 0.64706 0.70626 0.0
H1004 H 0.4034 0.62002 0.72813 0.0
H1005 H 0.35058 0.6175 0.67857 0.0
H1006 H 0.37356 0.64459 0.65662 0.0
H1007 H 0.3579 0.5733 0.70151 0.0
H1008 H 0.34295 0.65597 0.71419 0.0
H1009 H 0.3552 0.69634 0.72259 0.0
H1010 H 0.3843 0.67322 0.7827 0.0
H1011 H 0.37254 0.63262 0.77447 0.0
C1012 C 0.26781 0.5586 0.76672 0.0
C1013 C 0.26961 0.5621 0.78905 0.0
C1014 C 0.28664 0.56426 0.75318 0.0
C1015 C 0.30774 0.57289 0.76184 0.0
C1016 C 0.30996 0.57469 0.78432 0.0
C1017 C 0.29104 0.5696 0.79774 0.0
C1018 C 0.32638 0.58273 0.74765 0.0
C1019 C 0.33439 0.60549 0.75207 0.0
C1020 C 0.3352 0.57082 0.72931 0.0
C1021 C 0.32868 0.54624 0.72445 0.0
C1022 C 0.3313 0.5287 0.74014 0.0
C1023 C 0.32504 0.50559 0.7355 0.0
C1024 C 0.31628 0.49977 0.71518 0.0
C1025 C 0.3138 0.51704 0.69943 0.0
C1026 C 0.32002 0.54018 0.70398 0.0
C1027 C 0.41041 0.64019 0.6997 0.0
C1028 C 0.40181 0.64814 0.67979 0.0
C1029 C 0.39716 0.62477 0.71225 0.0
C1030 C 0.37521 0.61692 0.70502 0.0
C1031 C 0.3675 0.6233 0.68441 0.0
C1032 C 0.38059 0.63891 0.67196 0.0
C1033 C 0.35884 0.60512 0.72003 0.0
C1034 C 0.35112 0.58231 0.71558 0.0
C1035 C 0.35035 0.61681 0.73851 0.0
C1036 C 0.35712 0.64125 0.7436 0.0
C1037 C 0.35213 0.65948 0.72912 0.0
C1038 C 0.35896 0.6824 0.73386 0.0
C1039 C 0.37059 0.68733 0.75314 0.0
C1040 C 0.37534 0.66936 0.76775 0.0
C1041 C 0.36859 0.6464 0.76306 0.0
H1042 H 0.37586 0.70509 0.75678 0.0
H1043 H 0.31145 0.48187 0.71162 0.0
H1044 H 0.94886 0.25925 0.27119 0.0
H1045 H 0.93756 0.29125 0.24696 0.0
H1046 H 0.87411 0.30158 0.28345 0.0
H1047 H 0.88507 0.2699 0.30753 0.0
H1048 H 0.86544 0.29713 0.24087 0.0
H1049 H 0.91809 0.34029 0.28691 0.0
H1050 H 0.9559 0.34852 0.30457 0.0
H1051 H 0.98899 0.35533 0.24278 0.0
H1052 H 0.95142 0.34682 0.22474 0.0
H1053 H 0.84278 0.42174 0.20662 0.0
H1054 H 0.86711 0.39555 0.22842 0.0
H1055 H 0.86798 0.34528 0.17659 0.0
H1056 H 0.84347 0.37109 0.15489 0.0
H1057 H 0.90974 0.37008 0.22602 0.0
H1058 H 0.85324 0.29295 0.19784 0.0
H1059 H 0.81465 0.28579 0.18113 0.0
H1060 H 0.78765 0.34833 0.21039 0.0
H1061 H 0.82595 0.35565 0.22752 0.0
C1062 C 0.93263 0.26852 0.27418 0.0
C1063 C 0.91781 0.26184 0.29123 0.0
C1064 C 0.92624 0.28683 0.26035 0.0
C1065 C 0.90496 0.29874 0.26339 0.0
C1066 C 0.89054 0.29254 0.28074 0.0
C1067 C 0.89689 0.27438 0.29452 0.0
C1068 C 0.89675 0.31674 0.24792 0.0
C1069 C 0.87523 0.31301 0.23757 0.0
C1070 C 0.90945 0.33751 0.24366 0.0
C1071 C 0.93201 0.34266 0.25449 0.0
C1072 C 0.93348 0.34333 0.27709 0.0
C1073 C 0.95485 0.34809 0.28717 0.0
C1074 C 0.97485 0.35237 0.27481 0.0
C1075 C 0.97349 0.35197 0.25233 0.0
C1076 C 0.95216 0.3472 0.24218 0.0
C1077 C 0.84875 0.40544 0.19963 0.0
C1078 C 0.84088 0.3983 0.17919 0.0
C1079 C 0.86268 0.3905 0.2121 0.0
C1080 C 0.86896 0.36831 0.20425 0.0
C1081 C 0.86304 0.36219 0.18305 0.0
C1082 C 0.84898 0.37696 0.1707 0.0
C1083 C 0.87851 0.35034 0.21906 0.0
C1084 C 0.90017 0.35406 0.22921 0.0
C1085 C 0.86586 0.32957 0.22339 0.0
C1086 C 0.84252 0.32495 0.21376 0.0
C1087 C 0.83902 0.30509 0.20079 0.0
C1088 C 0.81721 0.30102 0.19123 0.0
C1089 C 0.79874 0.31664 0.19463 0.0
C1090 C 0.80199 0.33629 0.20771 0.0
C1091 C 0.82374 0.3404 0.21734 0.0
H1092 H 0.7819 0.3135 0.18716 0.0
H1093 H 0.99138 0.35606 0.28264 0.0
H1094 H 0.22586 0.95238 0.77309 0.0
H1095 H 0.19425 0.94175 0.74773 0.0
H1096 H 0.2129 0.86898 0.754 0.0
H1097 H 0.24366 0.87923 0.77946 0.0
H1098 H 0.2061 0.88738 0.70942 0.0
H1099 H 0.17063 0.88418 0.78176 0.0
H1100 H 0.15866 0.90259 0.81599 0.0
H1101 H 0.11743 0.95286 0.78131 0.0
H1102 H 0.12944 0.9349 0.74684 0.0
H1103 H 0.12678 0.8026 0.68129 0.0
H1104 H 0.15372 0.82897 0.69922 0.0
H1105 H 0.10172 0.8838 0.69765 0.0
H1106 H 0.07384 0.8566 0.68056 0.0
H1107 H 0.12344 0.88578 0.73413 0.0
H1108 H 0.15077 0.88232 0.66223 0.0
H1109 H 0.16216 0.86377 0.62793 0.0
H1110 H 0.21904 0.82865 0.65951 0.0
H1111 H 0.20766 0.84646 0.69412 0.0
C1112 C 0.2232 0.93417 0.76892 0.0
C1113 C 0.23711 0.91663 0.77835 0.0
C1114 C 0.20519 0.92814 0.75451 0.0
C1115 C 0.20133 0.90458 0.74902 0.0
C1116 C 0.21564 0.88724 0.75799 0.0
C1117 C 0.23314 0.89315 0.77263 0.0
C1118 C 0.18209 0.89729 0.73448 0.0
C1119 C 0.18797 0.88713 0.71465 0.0
C1120 C 0.1584 0.89775 0.74106 0.0
C1121 C 0.15119 0.90844 0.76175 0.0
C1122 C 0.15921 0.89931 0.78144 0.0
C1123 C 0.15238 0.90962 0.80088 0.0
C1124 C 0.13737 0.92894 0.80082 0.0
C1125 C 0.1291 0.93794 0.78133 0.0
C1126 C 0.13591 0.9277 0.76184 0.0
C1127 C 0.12101 0.82029 0.68466 0.0
C1128 C 0.09828 0.82765 0.67922 0.0
C1129 C 0.13655 0.83547 0.6948 0.0
C1130 C 0.13016 0.85873 0.69912 0.0
C1131 C 0.10721 0.86605 0.69421 0.0
C1132 C 0.09131 0.85055 0.68445 0.0
C1133 C 0.14752 0.87479 0.7093 0.0
C1134 C 0.14135 0.88662 0.72833 0.0
C1135 C 0.17098 0.87612 0.7018 0.0
C1136 C 0.17829 0.86574 0.68085 0.0
C1137 C 0.16565 0.87056 0.66191 0.0
C1138 C 0.17208 0.86012 0.6424 0.0
C1139 C 0.19128 0.845 0.64155 0.0
C1140 C 0.20417 0.84037 0.66019 0.0
C1141 C 0.19773 0.85063 0.67977 0.0
H1142 H 0.19619 0.83687 0.62645 0.0
H1143 H 0.13209 0.93689 0.81589 0.0
H1144 H 0.55341 0.25361 0.71594 0.0
H1145 H 0.56377 0.28578 0.74021 0.0
H1146 H 0.5791 0.32957 0.68533 0.0
H1147 H 0.57011 0.297 0.66123 0.0
H1148 H 0.61373 0.33099 0.70993 0.0
H1149 H 0.53186 0.33985 0.72295 0.0
H1150 H 0.49167 0.32759 0.73209 0.0
H1151 H 0.51489 0.30525 0.79456 0.0
H1152 H 0.5553 0.31707 0.78569 0.0
H1153 H 0.64776 0.42667 0.774 0.0
H1154 H 0.62063 0.40467 0.75111 0.0
H1155 H 0.61835 0.34929 0.79816 0.0
H1156 H 0.64547 0.37104 0.8211 0.0
H1157 H 0.5743 0.35758 0.77682 0.0
H1158 H 0.65667 0.34439 0.76071 0.0
H1159 H 0.69661 0.3574 0.75143 0.0
H1160 H 0.67066 0.38925 0.69353 0.0
H1161 H 0.63048 0.37672 0.70266 0.0
C1162 C 0.55839 0.27033 0.70913 0.0
C1163 C 0.56107 0.27287 0.68677 0.0
C1164 C 0.56425 0.28878 0.72299 0.0
C1165 C 0.57222 0.31026 0.71467 0.0
C1166 C 0.57321 0.31319 0.69222 0.0
C1167 C 0.56796 0.29462 0.67844 0.0
C1168 C 0.58226 0.32856 0.7291 0.0
C1169 C 0.60471 0.33716 0.72424 0.0
C1170 C 0.57095 0.33632 0.74816 0.0
C1171 C 0.54666 0.32919 0.75358 0.0
C1172 C 0.52844 0.33216 0.73858 0.0
C1173 C 0.5056 0.32532 0.74372 0.0
C1174 C 0.50074 0.3156 0.76388 0.0
C1175 C 0.51869 0.31276 0.77895 0.0
C1176 C 0.54155 0.31956 0.77388 0.0
C1177 C 0.64104 0.41008 0.77974 0.0
C1178 C 0.64903 0.40045 0.79924 0.0
C1179 C 0.62555 0.39754 0.76662 0.0
C1180 C 0.61769 0.37527 0.77287 0.0
C1181 C 0.6242 0.36645 0.79306 0.0
C1182 C 0.63983 0.37885 0.80608 0.0
C1183 C 0.60538 0.35986 0.75735 0.0
C1184 C 0.58281 0.35167 0.76217 0.0
C1185 C 0.6164 0.35256 0.73809 0.0
C1186 C 0.64057 0.35987 0.73249 0.0
C1187 C 0.65947 0.35433 0.74609 0.0
C1188 C 0.68214 0.36159 0.74084 0.0
C1189 C 0.68616 0.3742 0.72193 0.0
C1190 C 0.66751 0.37952 0.70819 0.0
C1191 C 0.64479 0.37234 0.71339 0.0
H1192 H 0.70373 0.37981 0.71789 0.0
H1193 H 0.48305 0.31032 0.76783 0.0
H1194 H 0.24172 0.55617 0.21744 0.0
H1195 H 0.20873 0.56738 0.24043 0.0
H1196 H 0.16791 0.58399 0.18388 0.0
H1197 H 0.20144 0.5743 0.1611 0.0
H1198 H 0.16511 0.61804 0.20846 0.0
H1199 H 0.15526 0.53638 0.22121 0.0
H1200 H 0.16687 0.49615 0.23074 0.0
H1201 H 0.18704 0.51923 0.29391 0.0
H1202 H 0.17585 0.55967 0.28467 0.0
H1203 H 0.06692 0.65211 0.27001 0.0
H1204 H 0.08977 0.62523 0.24754 0.0
H1205 H 0.14391 0.62317 0.29592 0.0
H1206 H 0.12135 0.65009 0.3184 0.0
H1207 H 0.13586 0.57897 0.2745 0.0
H1208 H 0.14983 0.66126 0.25852 0.0
H1209 H 0.13707 0.70106 0.24865 0.0
H1210 H 0.10718 0.67468 0.18998 0.0
H1211 H 0.11948 0.63464 0.19969 0.0
C1212 C 0.22547 0.56166 0.20999 0.0
C1213 C 0.22406 0.56444 0.18757 0.0
C1214 C 0.20653 0.56799 0.22311 0.0
C1215 C 0.18561 0.57648 0.21397 0.0
C1216 C 0.18382 0.57769 0.19141 0.0
C1217 C 0.20293 0.57204 0.17838 0.0
C1218 C 0.16673 0.58664 0.22774 0.0
C1219 C 0.15838 0.60909 0.22256 0.0
C1220 C 0.15816 0.57543 0.24653 0.0
C1221 C 0.16487 0.55111 0.25218 0.0
C1222 C 0.16232 0.53292 0.23708 0.0
C1223 C 0.1688 0.51006 0.24244 0.0
C1224 C 0.17773 0.50515 0.2629 0.0
C1225 C 0.18014 0.52307 0.27806 0.0
C1226 C 0.17369 0.54595 0.27278 0.0
C1227 C 0.08343 0.64552 0.2761 0.0
C1228 C 0.09246 0.65349 0.29587 0.0
C1229 C 0.09646 0.63017 0.26323 0.0
C1230 C 0.1186 0.6224 0.27002 0.0
C1231 C 0.12685 0.62894 0.29042 0.0
C1232 C 0.11398 0.64446 0.30317 0.0
C1233 C 0.13445 0.60997 0.25493 0.0
C1234 C 0.14235 0.5874 0.26003 0.0
C1235 C 0.14246 0.62086 0.23588 0.0
C1236 C 0.13532 0.64495 0.22995 0.0
C1237 C 0.14037 0.66393 0.2436 0.0
C1238 C 0.13326 0.68653 0.23802 0.0
C1239 C 0.12126 0.69039 0.21873 0.0
C1240 C 0.11643 0.67166 0.20494 0.0
C1241 C 0.12347 0.64901 0.21047 0.0
H1242 H 0.11576 0.7079 0.21444 0.0
H1243 H 0.18274 0.48745 0.26702 0.0
H1244 H 0.93867 0.24296 0.71457 0.0
H1245 H 0.92749 0.21025 0.73781 0.0
H1246 H 0.90276 0.17211 0.68218 0.0
H1247 H 0.91262 0.20534 0.65924 0.0
H1248 H 0.87112 0.17085 0.70982 0.0
H1249 H 0.9532 0.15582 0.71432 0.0
H1250 H 0.99495 0.16475 0.72029 0.0
H1251 H 0.98024 0.18361 0.78588 0.0
H1252 H 0.93833 0.17509 0.78023 0.0
H1253 H 0.84083 0.07009 0.76886 0.0
H1254 H 0.86657 0.09356 0.74589 0.0
H1255 H 0.87253 0.14539 0.79608 0.0
H1256 H 0.84655 0.12228 0.81904 0.0
H1257 H 0.91578 0.13643 0.77058 0.0
H1258 H 0.83287 0.15521 0.76319 0.0
H1259 H 0.79152 0.14485 0.75674 0.0
H1260 H 0.80962 0.11681 0.69473 0.0
H1261 H 0.85117 0.12668 0.70099 0.0
C1262 C 0.93131 0.22736 0.70732 0.0
C1263 C 0.9264 0.22667 0.68516 0.0
C1264 C 0.92501 0.20859 0.72059 0.0
C1265 C 0.91434 0.18852 0.71182 0.0
C1266 C 0.91078 0.18739 0.68944 0.0
C1267 C 0.9165 0.20634 0.6763 0.0
C1268 C 0.9046 0.16986 0.726 0.0
C1269 C 0.88121 0.16302 0.72275 0.0
C1270 C 0.91738 0.15987 0.7433 0.0
C1271 C 0.94258 0.16499 0.74678 0.0
C1272 C 0.95883 0.16204 0.72997 0.0
C1273 C 0.98254 0.167 0.73331 0.0
C1274 C 0.99023 0.17479 0.75344 0.0
C1275 C 0.97425 0.17759 0.77029 0.0
C1276 C 0.95052 0.17266 0.76704 0.0
C1277 C 0.84808 0.08619 0.77523 0.0
C1278 C 0.84141 0.09448 0.79567 0.0
C1279 C 0.86278 0.09956 0.76208 0.0
C1280 C 0.87128 0.12125 0.76927 0.0
C1281 C 0.86618 0.12867 0.79028 0.0
C1282 C 0.85122 0.1155 0.80332 0.0
C1283 C 0.8827 0.13759 0.75405 0.0
C1284 C 0.90612 0.14408 0.75728 0.0
C1285 C 0.87013 0.14712 0.73653 0.0
C1286 C 0.84514 0.14142 0.73267 0.0
C1287 C 0.82805 0.14665 0.74827 0.0
C1288 C 0.80458 0.1409 0.74463 0.0
C1289 C 0.79796 0.13011 0.72536 0.0
C1290 C 0.81479 0.12512 0.70966 0.0
C1291 C 0.83829 0.13079 0.71324 0.0
H1292 H 0.77978 0.12568 0.72257 0.0
H1293 H 0.00859 0.17862 0.75599 0.0
H1294 H 0.29378 0.92991 0.16389 0.0
H1295 H 0.32565 0.91848 0.18796 0.0
H1296 H 0.28 0.92767 0.24275 0.0
H1297 H 0.24838 0.94034 0.21861 0.0
H1298 H 0.32431 0.93686 0.25405 0.0
H1299 H 0.28441 0.87488 0.21725 0.0
H1300 H 0.26861 0.85479 0.18521 0.0
H1301 H 0.33815 0.84711 0.15982 0.0
H1302 H 0.35434 0.8676 0.19152 0.0
H1303 H 0.36794 0.84309 0.31976 0.0
H1304 H 0.34498 0.87008 0.2977 0.0
H1305 H 0.39894 0.86927 0.24911 0.0
H1306 H 0.42228 0.8425 0.27127 0.0
H1307 H 0.35264 0.85754 0.23439 0.0
H1308 H 0.39188 0.91737 0.27512 0.0
H1309 H 0.40528 0.93693 0.30832 0.0
H1310 H 0.33394 0.94608 0.32857 0.0
H1311 H 0.32011 0.92625 0.29563 0.0
C1312 C 0.29086 0.9303 0.18113 0.0
C1313 C 0.2687 0.93588 0.18946 0.0
C1314 C 0.30899 0.92361 0.19487 0.0
C1315 C 0.305 0.9215 0.21711 0.0
C1316 C 0.28345 0.92902 0.22563 0.0
C1317 C 0.26541 0.93631 0.21187 0.0
C1318 C 0.32214 0.90886 0.23088 0.0
C1319 C 0.3304 0.91947 0.24982 0.0
C1320 C 0.33016 0.88614 0.22536 0.0
C1321 C 0.32057 0.87305 0.20664 0.0
C1322 C 0.29633 0.86903 0.20477 0.0
C1323 C 0.2873 0.85763 0.18665 0.0
C1324 C 0.30236 0.84986 0.17041 0.0
C1325 C 0.3265 0.85327 0.17236 0.0
C1326 C 0.33562 0.86478 0.1904 0.0
C1327 C 0.37513 0.84896 0.30455 0.0
C1328 C 0.3969 0.84057 0.29722 0.0
C1329 C 0.36201 0.86444 0.292 0.0
C1330 C 0.37027 0.87166 0.2718 0.0
C1331 C 0.3923 0.86392 0.2647 0.0
C1332 C 0.40564 0.84871 0.27741 0.0
C1333 C 0.35498 0.88563 0.25741 0.0
C1334 C 0.34683 0.87508 0.23845 0.0
C1335 C 0.34671 0.90811 0.2632 0.0
C1336 C 0.35497 0.92014 0.28298 0.0
C1337 C 0.37905 0.92337 0.28674 0.0
C1338 C 0.38673 0.93455 0.30549 0.0
C1339 C 0.37047 0.9427 0.32057 0.0
C1340 C 0.34651 0.93974 0.31689 0.0
C1341 C 0.33875 0.92856 0.29816 0.0
H1342 H 0.37645 0.95135 0.33508 0.0
H1343 H 0.29532 0.84107 0.15637 0.0
H1344 H 0.38803 0.76267 0.6874 0.0
H1345 H 0.38181 0.7967 0.71001 0.0
H1346 H 0.45558 0.79904 0.72491 0.0
H1347 H 0.46198 0.76413 0.70242 0.0
H1348 H 0.43054 0.80759 0.76008 0.0
H1349 H 0.43205 0.83964 0.6904 0.0
H1350 H 0.4234 0.84278 0.6516 0.0
H1351 H 0.35027 0.85154 0.66561 0.0
H1352 H 0.3584 0.84811 0.70447 0.0
H1353 H 0.35934 0.92657 0.77877 0.0
H1354 H 0.38879 0.90428 0.75871 0.0
H1355 H 0.36999 0.84213 0.79413 0.0
H1356 H 0.34149 0.86425 0.81459 0.0
H1357 H 0.38103 0.87198 0.73184 0.0
H1358 H 0.41002 0.80156 0.79544 0.0
H1359 H 0.42174 0.80046 0.83364 0.0
H1360 H 0.44051 0.87313 0.83103 0.0
H1361 H 0.42924 0.87463 0.79273 0.0
C1362 C 0.40306 0.77036 0.69537 0.0
C1363 C 0.42558 0.76075 0.69289 0.0
C1364 C 0.39945 0.78998 0.70825 0.0
C1365 C 0.4183 0.80086 0.71873 0.0
C1366 C 0.4408 0.79108 0.71678 0.0
C1367 C 0.44443 0.77115 0.70395 0.0
C1368 C 0.41384 0.82207 0.73203 0.0
C1369 C 0.41996 0.82184 0.75392 0.0
C1370 C 0.40091 0.84122 0.72378 0.0
C1371 C 0.39586 0.84358 0.70039 0.0
C1372 C 0.4141 0.84214 0.68521 0.0
C1373 C 0.40929 0.84397 0.66319 0.0
C1374 C 0.3863 0.84735 0.65614 0.0
C1375 C 0.36807 0.84895 0.6711 0.0
C1376 C 0.37279 0.84711 0.69313 0.0
C1377 C 0.36194 0.90832 0.78268 0.0
C1378 C 0.34783 0.89723 0.79819 0.0
C1379 C 0.37877 0.89555 0.77115 0.0
C1380 C 0.38183 0.87148 0.77493 0.0
C1381 C 0.36852 0.86073 0.79115 0.0
C1382 C 0.35193 0.87346 0.80275 0.0
C1383 C 0.39636 0.85674 0.76028 0.0
C1384 C 0.39215 0.85816 0.73804 0.0
C1385 C 0.41159 0.8391 0.76815 0.0
C1386 C 0.4187 0.83821 0.79117 0.0
C1387 C 0.41682 0.81727 0.80294 0.0
C1388 C 0.42334 0.81659 0.82464 0.0
C1389 C 0.43183 0.83672 0.83476 0.0
C1390 C 0.43387 0.85757 0.82319 0.0
C1391 C 0.42739 0.85835 0.80148 0.0
H1392 H 0.43685 0.83615 0.85156 0.0
H1393 H 0.38261 0.84875 0.63909 0.0
H1394 H 0.71971 0.39134 0.17501 0.0
H1395 H 0.68651 0.38438 0.1984 0.0
H1396 H 0.69721 0.45138 0.22891 0.0
H1397 H 0.73133 0.45833 0.20565 0.0
H1398 H 0.68978 0.42014 0.25832 0.0
H1399 H 0.64842 0.44158 0.19643 0.0
H1400 H 0.63799 0.44356 0.15795 0.0
H1401 H 0.62146 0.37029 0.15808 0.0
H1402 H 0.63213 0.36775 0.19648 0.0
H1403 H 0.56715 0.35834 0.28301 0.0
H1404 H 0.58953 0.38797 0.26317 0.0
H1405 H 0.65398 0.35639 0.28498 0.0
H1406 H 0.63201 0.32779 0.30537 0.0
H1407 H 0.61634 0.3844 0.23105 0.0
H1408 H 0.6986 0.39097 0.28754 0.0
H1409 H 0.70681 0.39287 0.32648 0.0
H1410 H 0.63725 0.41841 0.33826 0.0
H1411 H 0.62869 0.417 0.29936 0.0
C1412 C 0.71501 0.4048 0.18651 0.0
C1413 C 0.72829 0.42544 0.1884 0.0
C1414 C 0.69577 0.40085 0.19981 0.0
C1415 C 0.68897 0.41753 0.21518 0.0
C1416 C 0.702 0.43831 0.21706 0.0
C1417 C 0.72148 0.44227 0.20375 0.0
C1418 C 0.66935 0.41203 0.23014 0.0
C1419 C 0.67357 0.41262 0.2524 0.0
C1420 C 0.64772 0.40314 0.22252 0.0
C1421 C 0.64114 0.40448 0.19938 0.0
C1422 C 0.64269 0.42585 0.18824 0.0
C1423 C 0.63672 0.42707 0.16643 0.0
C1424 C 0.62907 0.40706 0.15557 0.0
C1425 C 0.62736 0.38578 0.16652 0.0
C1426 C 0.63332 0.38445 0.18833 0.0
C1427 C 0.58609 0.35803 0.28385 0.0
C1428 C 0.59773 0.34072 0.29586 0.0
C1429 C 0.59887 0.37496 0.27248 0.0
C1430 C 0.62352 0.37479 0.27283 0.0
C1431 C 0.63505 0.35755 0.28495 0.0
C1432 C 0.62236 0.34096 0.29651 0.0
C1433 C 0.63751 0.39101 0.25913 0.0
C1434 C 0.63222 0.39249 0.23709 0.0
C1435 C 0.65778 0.4025 0.26705 0.0
C1436 C 0.66299 0.40382 0.29048 0.0
C1437 C 0.68511 0.39719 0.2984 0.0
C1438 C 0.6898 0.39812 0.32048 0.0
C1439 C 0.67255 0.40573 0.33484 0.0
C1440 C 0.65058 0.41247 0.32713 0.0
C1441 C 0.64579 0.41159 0.30506 0.0
H1442 H 0.67622 0.40641 0.35193 0.0
H1443 H 0.62446 0.40805 0.13869 0.0
H1444 H 0.04622 0.73915 0.71612 0.0
H1445 H 0.0596 0.70874 0.74122 0.0
H1446 H 0.08495 0.66773 0.68776 0.0
H1447 H 0.07199 0.69797 0.66276 0.0
H1448 H 0.05711 0.65727 0.74703 0.0
H1449 H 0.14205 0.65772 0.69827 0.0
H1450 H 0.16196 0.68282 0.6716 0.0
H1451 H 0.13153 0.74389 0.70061 0.0
H1452 H 0.11177 0.71919 0.72766 0.0
H1453 H 0.14087 0.5697 0.78236 0.0
H1454 H 0.11384 0.59423 0.76154 0.0
H1455 H 0.14691 0.65617 0.78701 0.0
H1456 H 0.17377 0.63205 0.80778 0.0
H1457 H 0.14398 0.65657 0.7429 0.0
H1458 H 0.09392 0.64202 0.80383 0.0
H1459 H 0.07269 0.61736 0.8299 0.0
H1460 H 0.03348 0.58607 0.77836 0.0
H1461 H 0.05472 0.61033 0.75194 0.0
C1462 C 0.05383 0.72324 0.70971 0.0
C1463 C 0.05843 0.72107 0.68755 0.0
C1464 C 0.06145 0.70589 0.72405 0.0
C1465 C 0.0736 0.68622 0.71632 0.0
C1466 C 0.07582 0.6829 0.69403 0.0
C1467 C 0.06844 0.70022 0.67979 0.0
C1468 C 0.08749 0.67144 0.73119 0.0
C1469 C 0.07609 0.65703 0.74616 0.0
C1470 C 0.11227 0.6714 0.73015 0.0
C1471 C 0.12525 0.68657 0.71484 0.0
C1472 C 0.13979 0.67652 0.69907 0.0
C1473 C 0.151 0.69067 0.68386 0.0
C1474 C 0.14788 0.71491 0.68432 0.0
C1475 C 0.13383 0.7251 0.7002 0.0
C1476 C 0.12263 0.71103 0.71548 0.0
C1477 C 0.14223 0.58852 0.78369 0.0
C1478 C 0.15967 0.59883 0.79663 0.0
C1479 C 0.12672 0.60252 0.77184 0.0
C1480 C 0.12843 0.62702 0.7727 0.0
C1481 C 0.14535 0.6373 0.78604 0.0
C1482 C 0.16069 0.62341 0.79795 0.0
C1483 C 0.11368 0.64213 0.75878 0.0
C1484 C 0.125 0.65668 0.74385 0.0
C1485 C 0.08891 0.64235 0.76003 0.0
C1486 C 0.07608 0.62782 0.77589 0.0
C1487 C 0.08091 0.62974 0.79804 0.0
C1488 C 0.06885 0.61586 0.81288 0.0
C1489 C 0.05179 0.60011 0.80579 0.0
C1490 C 0.04672 0.59826 0.78383 0.0
C1491 C 0.05875 0.61208 0.76892 0.0
H1492 H 0.04247 0.58939 0.81731 0.0
H1493 H 0.15632 0.72578 0.67236 0.0
H1494 H 0.87169 0.14434 0.32313 0.0
H1495 H 0.84869 0.11752 0.30096 0.0
H1496 H 0.90065 0.12174 0.25071 0.0
H1497 H 0.92399 0.14847 0.27292 0.0
H1498 H 0.8545 0.13419 0.23812 0.0
H1499 H 0.89364 0.0715 0.27552 0.0
H1500 H 0.907 0.05016 0.30776 0.0
H1501 H 0.8357 0.04122 0.32817 0.0
H1502 H 0.82191 0.06281 0.2962 0.0
H1503 H 0.79475 0.06614 0.16468 0.0
H1504 H 0.82641 0.07691 0.1892 0.0
H1505 H 0.78116 0.06391 0.24358 0.0
H1506 H 0.74965 0.05201 0.21892 0.0
H1507 H 0.8255 0.05423 0.25417 0.0
H1508 H 0.78546 0.11865 0.22234 0.0
H1509 H 0.76871 0.14231 0.19292 0.0
H1510 H 0.83725 0.15144 0.16572 0.0
H1511 H 0.85438 0.12754 0.19483 0.0
C1512 C 0.87852 0.13916 0.30756 0.0
C1513 C 0.89959 0.14869 0.29971 0.0
C1514 C 0.86537 0.12375 0.29494 0.0
C1515 C 0.87296 0.11767 0.2742 0.0
C1516 C 0.89453 0.12621 0.26671 0.0
C1517 C 0.90788 0.14141 0.27945 0.0
C1518 C 0.85709 0.1047 0.25952 0.0
C1519 C 0.84858 0.1165 0.24134 0.0
C1520 C 0.84849 0.08209 0.26439 0.0
C1521 C 0.85675 0.06893 0.28353 0.0
C1522 C 0.88081 0.06514 0.28696 0.0
C1523 C 0.88846 0.05297 0.30517 0.0
C1524 C 0.87221 0.04438 0.32002 0.0
C1525 C 0.84827 0.04789 0.31666 0.0
C1526 C 0.84053 0.06007 0.29848 0.0
C1527 C 0.79182 0.06489 0.18189 0.0
C1528 C 0.7698 0.05841 0.18997 0.0
C1529 C 0.80985 0.07119 0.19589 0.0
C1530 C 0.80594 0.07191 0.21821 0.0
C1531 C 0.78453 0.06363 0.22641 0.0
C1532 C 0.76657 0.05679 0.21234 0.0
C1533 C 0.82322 0.0836 0.23254 0.0
C1534 C 0.83174 0.07176 0.25074 0.0
C1535 C 0.83137 0.10653 0.22812 0.0
C1536 C 0.82117 0.12108 0.21064 0.0
C1537 C 0.79694 0.12557 0.21 0.0
C1538 C 0.78738 0.13904 0.1934 0.0
C1539 C 0.80189 0.14831 0.17742 0.0
C1540 C 0.82602 0.14421 0.17808 0.0
C1541 C 0.83567 0.13071 0.19464 0.0
H1542 H 0.79445 0.1587 0.16455 0.0
H1543 H 0.87817 0.03497 0.33412 0.0
H1544 H 0.43874 0.74387 0.26295 0.0
H1545 H 0.42642 0.71213 0.23878 0.0
H1546 H 0.39408 0.67647 0.29221 0.0
H1547 H 0.40559 0.70846 0.31629 0.0
H1548 H 0.42272 0.6476 0.25693 0.0
H1549 H 0.35778 0.7018 0.27072 0.0
H1550 H 0.34069 0.74137 0.27278 0.0
H1551 H 0.35854 0.75343 0.20651 0.0
H1552 H 0.37613 0.71402 0.2042 0.0
H1553 H 0.33655 0.57281 0.20964 0.0
H1554 H 0.36166 0.59835 0.23125 0.0
H1555 H 0.36438 0.64793 0.17889 0.0
H1556 H 0.33848 0.62296 0.1577 0.0
H1557 H 0.3538 0.66998 0.21281 0.0
H1558 H 0.41341 0.61399 0.19669 0.0
H1559 H 0.43139 0.57488 0.19392 0.0
H1560 H 0.42559 0.56612 0.2624 0.0
H1561 H 0.40727 0.60506 0.26556 0.0
C1562 C 0.4295 0.72899 0.26961 0.0
C1563 C 0.42301 0.72864 0.29145 0.0
C1564 C 0.42248 0.71092 0.25581 0.0
C1565 C 0.40939 0.69203 0.26378 0.0
C1566 C 0.4043 0.69086 0.28584 0.0
C1567 C 0.41079 0.70917 0.29952 0.0
C1568 C 0.39855 0.67506 0.2488 0.0
C1569 C 0.40758 0.65231 0.24731 0.0
C1570 C 0.37915 0.6815 0.23603 0.0
C1571 C 0.36857 0.70514 0.23739 0.0
C1572 C 0.35831 0.713 0.25667 0.0
C1573 C 0.34848 0.73537 0.25787 0.0
C1574 C 0.34861 0.74994 0.23981 0.0
C1575 C 0.35852 0.74215 0.2205 0.0
C1576 C 0.36843 0.71981 0.21924 0.0
C1577 C 0.34294 0.58892 0.2026 0.0
C1578 C 0.33548 0.59594 0.18203 0.0
C1579 C 0.35737 0.60352 0.21495 0.0
C1580 C 0.36507 0.62512 0.20672 0.0
C1581 C 0.3586 0.63147 0.18569 0.0
C1582 C 0.34384 0.61714 0.17355 0.0
C1583 C 0.37791 0.64211 0.2206 0.0
C1584 C 0.36914 0.66505 0.22208 0.0
C1585 C 0.39767 0.63578 0.23316 0.0
C1586 C 0.40878 0.61238 0.23134 0.0
C1587 C 0.41581 0.60366 0.21115 0.0
C1588 C 0.42609 0.58153 0.2095 0.0
C1589 C 0.42958 0.568 0.22796 0.0
C1590 C 0.42286 0.57661 0.24811 0.0
C1591 C 0.41255 0.59872 0.24984 0.0
H1592 H 0.43753 0.55087 0.22665 0.0
H1593 H 0.34097 0.76725 0.24075 0.0
H1594 H 0.77576 0.39098 0.8141 0.0
H1595 H 0.80814 0.37947 0.79092 0.0
H1596 H 0.78892 0.433 0.74528 0.0
H1597 H 0.75645 0.44499 0.76874 0.0
H1598 H 0.80361 0.36141 0.75237 0.0
H1599 H 0.83889 0.4474 0.71552 0.0
H1600 H 0.84383 0.48888 0.72558 0.0
H1601 H 0.84692 0.46986 0.79242 0.0
H1602 H 0.84232 0.42826 0.78274 0.0
H1603 H 0.86521 0.33442 0.65971 0.0
H1604 H 0.84048 0.3585 0.68275 0.0
H1605 H 0.89864 0.37031 0.72568 0.0
H1606 H 0.92379 0.34614 0.70256 0.0
H1607 H 0.86682 0.41022 0.72089 0.0
H1608 H 0.86617 0.32785 0.73812 0.0
H1609 H 0.86282 0.28591 0.72928 0.0
H1610 H 0.79294 0.29693 0.70578 0.0
H1611 H 0.79603 0.33903 0.71418 0.0
C1612 C 0.77852 0.40056 0.79927 0.0
C1613 C 0.76334 0.41878 0.79318 0.0
C1614 C 0.79708 0.39393 0.78602 0.0
C1615 C 0.80095 0.40529 0.76632 0.0
C1616 C 0.78643 0.42412 0.76051 0.0
C1617 C 0.76783 0.43091 0.7739 0.0
C1618 C 0.81887 0.39589 0.75125 0.0
C1619 C 0.81741 0.37216 0.74557 0.0
C1620 C 0.83701 0.40981 0.74239 0.0
C1621 C 0.84001 0.43474 0.7484 0.0
C1622 C 0.8407 0.45207 0.73235 0.0
C1623 C 0.84343 0.4756 0.73799 0.0
C1624 C 0.8456 0.48201 0.75963 0.0
C1625 C 0.84513 0.46489 0.77567 0.0
C1626 C 0.84242 0.44133 0.77012 0.0
C1627 C 0.87297 0.34248 0.67381 0.0
C1628 C 0.8964 0.33798 0.6795 0.0
C1629 C 0.85879 0.35633 0.68691 0.0
C1630 C 0.86766 0.3659 0.70604 0.0
C1631 C 0.89149 0.36306 0.71096 0.0
C1632 C 0.9058 0.34917 0.69777 0.0
C1633 C 0.85127 0.37595 0.7221 0.0
C1634 C 0.85297 0.39964 0.72782 0.0
C1635 C 0.83346 0.36199 0.73133 0.0
C1636 C 0.83141 0.33661 0.72659 0.0
C1637 C 0.85015 0.32135 0.73093 0.0
C1638 C 0.8483 0.29755 0.72601 0.0
C1639 C 0.8277 0.28877 0.71693 0.0
C1640 C 0.8089 0.30376 0.7128 0.0
C1641 C 0.81068 0.32759 0.71764 0.0
H1642 H 0.8263 0.27034 0.71312 0.0
H1643 H 0.8477 0.50023 0.76395 0.0
H1644 H 0.09631 0.78215 0.31363 0.0
H1645 H 0.1089 0.81434 0.29072 0.0
H1646 H 0.06354 0.78967 0.23996 0.0
H1647 H 0.05032 0.75756 0.26318 0.0
H1648 H 0.13271 0.80993 0.25543 0.0
H1649 H 0.05118 0.83556 0.2055 0.0
H1650 H 0.00824 0.83751 0.20951 0.0
H1651 H 0.01579 0.84637 0.27786 0.0
H1652 H 0.05878 0.84477 0.27422 0.0
H1653 H 0.16833 0.86652 0.16249 0.0
H1654 H 0.14341 0.84176 0.18463 0.0
H1655 H 0.12133 0.90192 0.22131 0.0
H1656 H 0.14632 0.92711 0.19906 0.0
H1657 H 0.08483 0.86671 0.21398 0.0
H1658 H 0.16378 0.87385 0.24124 0.0
H1659 H 0.20679 0.87332 0.23744 0.0
H1660 H 0.20423 0.80139 0.21756 0.0
H1661 H 0.16114 0.8016 0.22096 0.0
C1662 C 0.0887 0.78374 0.29771 0.0
C1663 C 0.07245 0.76719 0.29015 0.0
C1664 C 0.09595 0.80217 0.28461 0.0
C1665 C 0.08727 0.80444 0.26357 0.0
C1666 C 0.07029 0.78849 0.25622 0.0
C1667 C 0.06279 0.7701 0.26948 0.0
C1668 C 0.09768 0.82222 0.24893 0.0
C1669 C 0.12214 0.82236 0.24648 0.0
C1670 C 0.08402 0.83855 0.23721 0.0
C1671 C 0.0582 0.83982 0.23959 0.0
C1672 C 0.04368 0.83801 0.22137 0.0
C1673 C 0.01933 0.83904 0.22358 0.0
C1674 C 0.00929 0.84199 0.24394 0.0
C1675 C 0.02359 0.84399 0.26211 0.0
C1676 C 0.04795 0.84299 0.25999 0.0
C1677 C 0.1579 0.87468 0.17499 0.0
C1678 C 0.15968 0.89881 0.17923 0.0
C1679 C 0.14359 0.86045 0.18759 0.0
C1680 C 0.1308 0.86997 0.20476 0.0
C1681 C 0.13111 0.89426 0.20811 0.0
C1682 C 0.14548 0.90861 0.19543 0.0
C1683 C 0.11962 0.85413 0.2206 0.0
C1684 C 0.0952 0.85429 0.22312 0.0
C1685 C 0.13327 0.83818 0.23267 0.0
C1686 C 0.15923 0.8378 0.23119 0.0
C1687 C 0.17238 0.85796 0.23596 0.0
C1688 C 0.19677 0.85771 0.23388 0.0
C1689 C 0.20823 0.83735 0.22721 0.0
C1690 C 0.19533 0.81716 0.22271 0.0
C1691 C 0.17092 0.81732 0.22474 0.0
H1692 H 0.22711 0.83721 0.22556 0.0
H1693 H 0.99044 0.84276 0.24562 0.0
H1694 H 0.71507 0.10131 0.81191 0.0
H1695 H 0.68381 0.11486 0.78837 0.0
H1696 H 0.70542 0.06551 0.73963 0.0
H1697 H 0.73668 0.05143 0.76345 0.0
H1698 H 0.68983 0.13637 0.75195 0.0
H1699 H 0.65787 0.05414 0.70623 0.0
H1700 H 0.65284 0.01181 0.71244 0.0
H1701 H 0.64554 0.02412 0.78036 0.0
H1702 H 0.65021 0.06653 0.77452 0.0
H1703 H 0.63011 0.17318 0.66021 0.0
H1704 H 0.65566 0.14882 0.68221 0.0
H1705 H 0.59626 0.12609 0.71964 0.0
H1706 H 0.57035 0.15033 0.6975 0.0
H1707 H 0.62909 0.0904 0.71349 0.0
H1708 H 0.62725 0.17059 0.73695 0.0
H1709 H 0.63064 0.21333 0.73264 0.0
H1710 H 0.70268 0.20578 0.71399 0.0
H1711 H 0.69958 0.16293 0.71773 0.0
C1712 C 0.713 0.09304 0.79632 0.0
C1713 C 0.7285 0.07539 0.78949 0.0
C1714 C 0.6951 0.10084 0.78285 0.0
C1715 C 0.69227 0.0913 0.76218 0.0
C1716 C 0.70709 0.07298 0.7556 0.0
C1717 C 0.72498 0.06497 0.76921 0.0
C1718 C 0.67512 0.10204 0.74711 0.0
C1719 C 0.67658 0.12624 0.74356 0.0
C1720 C 0.6577 0.08893 0.73624 0.0
C1721 C 0.65464 0.06349 0.73994 0.0
C1722 C 0.65511 0.04782 0.72248 0.0
C1723 C 0.65234 0.02381 0.72594 0.0
C1724 C 0.64895 0.01528 0.74679 0.0
C1725 C 0.64826 0.03074 0.76422 0.0
C1726 C 0.65101 0.05477 0.76085 0.0
C1727 C 0.62232 0.16273 0.67288 0.0
C1728 C 0.59816 0.16404 0.6773 0.0
C1729 C 0.63701 0.14879 0.68544 0.0
C1730 C 0.62792 0.13597 0.70278 0.0
C1731 C 0.60363 0.13592 0.70636 0.0
C1732 C 0.58885 0.14986 0.69372 0.0
C1733 C 0.64404 0.12458 0.71834 0.0
C1734 C 0.64242 0.10038 0.7219 0.0
C1735 C 0.66117 0.13771 0.72955 0.0
C1736 C 0.66309 0.16351 0.72737 0.0
C1737 C 0.64375 0.17802 0.73172 0.0
C1738 C 0.64563 0.20227 0.7294 0.0
C1739 C 0.66684 0.21226 0.72296 0.0
C1740 C 0.68624 0.19801 0.71892 0.0
C1741 C 0.68443 0.17374 0.72112 0.0
H1742 H 0.66826 0.23104 0.72117 0.0
H1743 H 0.64682 -0.00331 0.74944 0.0
H1744 H 0.81035 0.33189 0.09308 0.0
H1745 H 0.80015 0.29062 0.08751 0.0
H1746 H 0.73405 0.30179 0.11949 0.0
H1747 H 0.74381 0.34296 0.1248 0.0
H1748 H 0.76271 0.2648 0.13681 0.0
H1749 H 0.73169 0.29342 0.06938 0.0
H1750 H 0.73361 0.31352 0.0343 0.0
H1751 H 0.78688 0.26573 0.01308 0.0
H1752 H 0.78553 0.24554 0.04819 0.0
H1753 H 0.69848 0.15896 0.09432 0.0
H1754 H 0.71111 0.19937 0.08849 0.0
H1755 H 0.77837 0.18334 0.11641 0.0
H1756 H 0.76598 0.14296 0.12231 0.0
H1757 H 0.74986 0.22256 0.0679 0.0
H1758 H 0.78912 0.22736 0.15247 0.0
H1759 H 0.78675 0.20637 0.18714 0.0
H1760 H 0.7153 0.18784 0.17389 0.0
H1761 H 0.71714 0.20902 0.13933 0.0
C1762 C 0.79347 0.32564 0.09858 0.0
C1763 C 0.77794 0.34068 0.10947 0.0
C1764 C 0.78768 0.30209 0.09537 0.0
C1765 C 0.76641 0.29323 0.10319 0.0
C1766 C 0.75057 0.30835 0.11339 0.0
C1767 C 0.75617 0.3319 0.11633 0.0
C1768 C 0.76126 0.26789 0.10224 0.0
C1769 C 0.75998 0.25557 0.12173 0.0
C1770 C 0.75777 0.25591 0.08256 0.0
C1771 C 0.75871 0.26814 0.06151 0.0
C1772 C 0.74401 0.28735 0.05733 0.0
C1773 C 0.74495 0.29873 0.03742 0.0
C1774 C 0.76041 0.29095 0.02149 0.0
C1775 C 0.77494 0.27176 0.02544 0.0
C1776 C 0.77409 0.26034 0.04534 0.0
C1777 C 0.71612 0.16391 0.09884 0.0
C1778 C 0.7311 0.14784 0.10904 0.0
C1779 C 0.72335 0.18696 0.09538 0.0
C1780 C 0.74556 0.19434 0.10222 0.0
C1781 C 0.7611 0.17798 0.11113 0.0
C1782 C 0.75395 0.15491 0.1145 0.0
C1783 C 0.75137 0.21956 0.10245 0.0
C1784 C 0.75282 0.23182 0.08292 0.0
C1785 C 0.75501 0.23159 0.1221 0.0
C1786 C 0.75336 0.21959 0.14324 0.0
C1787 C 0.77286 0.21894 0.15704 0.0
C1788 C 0.77162 0.20701 0.17666 0.0
C1789 C 0.75091 0.19575 0.1827 0.0
C1790 C 0.73135 0.19653 0.16918 0.0
C1791 C 0.73249 0.20849 0.14957 0.0
H1792 H 0.75002 0.18646 0.19785 0.0
H1793 H 0.76108 0.29975 0.00608 0.0
H1794 H 0.32774 0.68448 0.59926 0.0
H1795 H 0.28758 0.69793 0.59283 0.0
H1796 H 0.30412 0.76426 0.62226 0.0
H1797 H 0.34426 0.75116 0.62851 0.0
H1798 H 0.2647 0.74186 0.63995 0.0
H1799 H 0.29554 0.76398 0.57104 0.0
H1800 H 0.31627 0.75783 0.53666 0.0
H1801 H 0.2661 0.70543 0.51854 0.0
H1802 H 0.24525 0.71101 0.55298 0.0
H1803 H 0.15629 0.79882 0.594 0.0
H1804 H 0.19776 0.78891 0.58939 0.0
H1805 H 0.18543 0.72122 0.61778 0.0
H1806 H 0.14403 0.73074 0.6222 0.0
H1807 H 0.22334 0.74792 0.56981 0.0
H1808 H 0.22834 0.71868 0.65815 0.0
H1809 H 0.207 0.7248 0.69227 0.0
H1810 H 0.18586 0.79313 0.67122 0.0
H1811 H 0.20763 0.7877 0.63724 0.0
C1812 C 0.32292 0.70205 0.60406 0.0
C1813 C 0.33914 0.7167 0.61449 0.0
C1814 C 0.30001 0.70972 0.60033 0.0
C1815 C 0.29295 0.73206 0.60711 0.0
C1816 C 0.30927 0.74695 0.61693 0.0
C1817 C 0.33222 0.73943 0.62043 0.0
C1818 C 0.26813 0.73927 0.60545 0.0
C1819 C 0.25571 0.74328 0.6246 0.0
C1820 C 0.25647 0.74116 0.58542 0.0
C1821 C 0.26896 0.73776 0.56469 0.0
C1822 C 0.28905 0.75099 0.55982 0.0
C1823 C 0.30079 0.74764 0.5403 0.0
C1824 C 0.29254 0.73121 0.52545 0.0
C1825 C 0.27249 0.71813 0.53007 0.0
C1826 C 0.26069 0.7214 0.54958 0.0
C1827 C 0.1623 0.78162 0.59879 0.0
C1828 C 0.14693 0.76563 0.60861 0.0
C1829 C 0.18595 0.77597 0.59605 0.0
C1830 C 0.19455 0.75443 0.60338 0.0
C1831 C 0.17903 0.73795 0.61206 0.0
C1832 C 0.15538 0.74344 0.61455 0.0
C1833 C 0.22002 0.75012 0.60429 0.0
C1834 C 0.23246 0.74659 0.58509 0.0
C1835 C 0.2318 0.74875 0.62429 0.0
C1836 C 0.21943 0.75266 0.64505 0.0
C1837 C 0.21932 0.73509 0.66088 0.0
C1838 C 0.2072 0.73847 0.68021 0.0
C1839 C 0.19512 0.75936 0.6839 0.0
C1840 C 0.19526 0.77698 0.66833 0.0
C1841 C 0.20749 0.77376 0.64904 0.0
H1842 H 0.18559 0.76186 0.69881 0.0
H1843 H 0.30165 0.72865 0.51034 0.0
H1844 H 0.74248 0.14139 0.87256 0.0
H1845 H 0.72604 0.17972 0.88118 0.0
H1846 H 0.79481 0.21053 0.87672 0.0
H1847 H 0.8115 0.1722 0.86826 0.0
H1848 H 0.76775 0.23069 0.90921 0.0
H1849 H 0.76058 0.21073 0.83375 0.0
H1850 H 0.74867 0.18579 0.80322 0.0
H1851 H 0.67677 0.19089 0.823 0.0
H1852 H 0.68832 0.2156 0.85386 0.0
H1853 H 0.74571 0.3464 0.87254 0.0
H1854 H 0.75794 0.30645 0.88061 0.0
H1855 H 0.68573 0.28422 0.88065 0.0
H1856 H 0.67333 0.32414 0.87234 0.0
H1857 H 0.71135 0.25833 0.854 0.0
H1858 H 0.71806 0.28282 0.92696 0.0
H1859 H 0.73014 0.30751 0.95759 0.0
H1860 H 0.80245 0.29448 0.94283 0.0
H1861 H 0.79082 0.26994 0.91193 0.0
C1862 C 0.75421 0.15622 0.87379 0.0
C1863 C 0.77826 0.1538 0.86937 0.0
C1864 C 0.74476 0.17811 0.87872 0.0
C1865 C 0.75916 0.198 0.87921 0.0
C1866 C 0.7834 0.1954 0.87635 0.0
C1867 C 0.79289 0.17347 0.87144 0.0
C1868 C 0.74871 0.2217 0.88045 0.0
C1869 C 0.75551 0.23685 0.89711 0.0
C1870 C 0.73234 0.22948 0.8649 0.0
C1871 C 0.72535 0.21477 0.84626 0.0
C1872 C 0.74226 0.20637 0.83169 0.0
C1873 C 0.73557 0.1923 0.81431 0.0
C1874 C 0.71198 0.18669 0.81121 0.0
C1875 C 0.69504 0.19521 0.82545 0.0
C1876 C 0.70164 0.20925 0.84288 0.0
C1877 C 0.73237 0.33312 0.87467 0.0
C1878 C 0.70855 0.33841 0.87156 0.0
C1879 C 0.7394 0.31028 0.87943 0.0
C1880 C 0.72275 0.29233 0.88129 0.0
C1881 C 0.69888 0.29781 0.87928 0.0
C1882 C 0.69182 0.32065 0.87455 0.0
C1883 C 0.73043 0.26757 0.88274 0.0
C1884 C 0.72324 0.25218 0.86639 0.0
C1885 C 0.74644 0.25968 0.89857 0.0
C1886 C 0.75355 0.27467 0.91699 0.0
C1887 C 0.73654 0.28539 0.93011 0.0
C1888 C 0.74331 0.29932 0.94756 0.0
C1889 C 0.76704 0.3026 0.95213 0.0
C1890 C 0.78407 0.29193 0.93927 0.0
C1891 C 0.7774 0.27798 0.9218 0.0
H1892 H 0.77225 0.31338 0.96565 0.0
H1893 H 0.70684 0.17579 0.79774 0.0
H1894 H 0.35012 0.74192 0.37298 0.0
H1895 H 0.31104 0.7267 0.38066 0.0
H1896 H 0.28252 0.7964 0.3761 0.0
H1897 H 0.32163 0.81187 0.36869 0.0
H1898 H 0.26041 0.77046 0.40744 0.0
H1899 H 0.28208 0.76212 0.3328 0.0
H1900 H 0.30752 0.74963 0.30281 0.0
H1901 H 0.30041 0.67799 0.32248 0.0
H1902 H 0.27516 0.69011 0.35279 0.0
H1903 H 0.14482 0.7498 0.36909 0.0
H1904 H 0.18496 0.76164 0.377 0.0
H1905 H 0.20607 0.68922 0.37926 0.0
H1906 H 0.16595 0.67718 0.37107 0.0
H1907 H 0.23292 0.71391 0.35225 0.0
H1908 H 0.20639 0.723 0.42478 0.0
H1909 H 0.18041 0.73675 0.45388 0.0
H1910 H 0.19555 0.80808 0.43731 0.0
H1911 H 0.22138 0.79476 0.4079 0.0
C1912 C 0.33562 0.7541 0.37399 0.0
C1913 C 0.33891 0.77806 0.36987 0.0
C1914 C 0.3133 0.74535 0.37837 0.0
C1915 C 0.29384 0.76037 0.37853 0.0
C1916 C 0.2973 0.78451 0.37597 0.0
C1917 C 0.31967 0.7933 0.37167 0.0
C1918 C 0.26977 0.7507 0.37918 0.0
C1919 C 0.2543 0.75818 0.39535 0.0
C1920 C 0.26199 0.73441 0.36356 0.0
C1921 C 0.27696 0.72704 0.34521 0.0
C1922 C 0.28608 0.74372 0.33082 0.0
C1923 C 0.30045 0.73671 0.31375 0.0
C1924 C 0.30565 0.71304 0.31078 0.0
C1925 C 0.29641 0.69632 0.32483 0.0
C1926 C 0.28206 0.70325 0.34195 0.0
C1927 C 0.15788 0.73634 0.37166 0.0
C1928 C 0.15222 0.71253 0.36925 0.0
C1929 C 0.18083 0.74316 0.3763 0.0
C1930 C 0.19852 0.72631 0.37878 0.0
C1931 C 0.19268 0.7025 0.37739 0.0
C1932 C 0.16972 0.69566 0.37276 0.0
C1933 C 0.22338 0.73362 0.38054 0.0
C1934 C 0.23903 0.72584 0.36464 0.0
C1935 C 0.23118 0.74977 0.39629 0.0
C1936 C 0.2157 0.75786 0.41402 0.0
C1937 C 0.20405 0.74162 0.42722 0.0
C1938 C 0.18937 0.74934 0.4438 0.0
C1939 C 0.18629 0.77327 0.44742 0.0
C1940 C 0.19794 0.78954 0.43449 0.0
C1941 C 0.21263 0.78191 0.41788 0.0
H1942 H 0.17492 0.77921 0.46026 0.0
H1943 H 0.31678 0.70764 0.29756 0.0
H1944 H 0.25758 0.64508 0.868 0.0
H1945 H 0.26753 0.6857 0.87618 0.0
H1946 H 0.1941 0.70298 0.87993 0.0
H1947 H 0.18396 0.66238 0.87175 0.0
H1948 H 0.21779 0.73025 0.85139 0.0
H1949 H 0.22675 0.70658 0.92442 0.0
H1950 H 0.24082 0.68241 0.95464 0.0
H1951 H 0.31196 0.69975 0.9389 0.0
H1952 H 0.29835 0.72379 0.9084 0.0
H1953 H 0.24278 0.84888 0.86705 0.0
H1954 H 0.2281 0.81007 0.8765 0.0
H1955 H 0.29855 0.78282 0.87478 0.0
H1956 H 0.31345 0.8217 0.86578 0.0
H1957 H 0.27275 0.76169 0.90616 0.0
H1958 H 0.26437 0.77995 0.83059 0.0
H1959 H 0.25121 0.80369 0.79971 0.0
H1960 H 0.17965 0.79528 0.81955 0.0
H1961 H 0.19243 0.77175 0.85074 0.0
C1962 C 0.24354 0.65741 0.87097 0.0
C1963 C 0.21998 0.65057 0.869 0.0
C1964 C 0.24926 0.6806 0.87579 0.0
C1965 C 0.23154 0.69733 0.8787 0.0
C1966 C 0.20802 0.6903 0.87777 0.0
C1967 C 0.20227 0.66709 0.87311 0.0
C1968 C 0.23759 0.72248 0.88005 0.0
C1969 C 0.22935 0.73724 0.86369 0.0
C1970 C 0.25321 0.7314 0.89573 0.0
C1971 C 0.26152 0.71686 0.914 0.0
C1972 C 0.24541 0.70508 0.92728 0.0
C1973 C 0.2533 0.69143 0.94449 0.0
C1974 C 0.27727 0.6895 0.94866 0.0
C1975 C 0.2934 0.70125 0.93564 0.0
C1976 C 0.2856 0.71492 0.91841 0.0
C1977 C 0.2552 0.83471 0.86904 0.0
C1978 C 0.27923 0.83823 0.86529 0.0
C1979 C 0.24678 0.81256 0.87445 0.0
C1980 C 0.26219 0.79349 0.8759 0.0
C1981 C 0.28635 0.79729 0.87366 0.0
C1982 C 0.29482 0.81951 0.86843 0.0
C1983 C 0.25302 0.76929 0.87744 0.0
C1984 C 0.26081 0.75473 0.89417 0.0
C1985 C 0.2371 0.7604 0.86198 0.0
C1986 C 0.22937 0.77434 0.84313 0.0
C1987 C 0.24584 0.78331 0.82845 0.0
C1988 C 0.23845 0.7967 0.81088 0.0
C1989 C 0.21462 0.80105 0.80771 0.0
C1990 C 0.19811 0.79194 0.82206 0.0
C1991 C 0.20541 0.77857 0.83968 0.0
H1992 H 0.20893 0.81143 0.7941 0.0
H1993 H 0.28335 0.67895 0.962 0.0
H1994 H 0.84673 0.24582 0.37186 0.0
H1995 H 0.80652 0.25753 0.37966 0.0
H1996 H 0.78594 0.18502 0.38306 0.0
H1997 H 0.82613 0.17311 0.375 0.0
H1998 H 0.75945 0.20857 0.35533 0.0
H1999 H 0.78398 0.21992 0.42781 0.0
H2000 H 0.80869 0.23428 0.45758 0.0
H2001 H 0.79397 0.30524 0.43947 0.0
H2002 H 0.76944 0.29133 0.40937 0.0
H2003 H 0.6418 0.24004 0.37112 0.0
H2004 H 0.68012 0.22397 0.3805 0.0
H2005 H 0.71081 0.29264 0.37493 0.0
H2006 H 0.6725 0.30895 0.36582 0.0
H2007 H 0.73071 0.26749 0.4078 0.0
H2008 H 0.71154 0.25606 0.33268 0.0
H2009 H 0.68723 0.24229 0.30237 0.0
H2010 H 0.69286 0.17165 0.32526 0.0
H2011 H 0.71694 0.18507 0.3559 0.0
C2012 C 0.83377 0.23233 0.37469 0.0
C2013 C 0.83958 0.20852 0.37256 0.0
C2014 C 0.81079 0.23907 0.37929 0.0
C2015 C 0.79322 0.22215 0.382 0.0
C2016 C 0.79923 0.19836 0.38102 0.0
C2017 C 0.82223 0.19159 0.37644 0.0
C2018 C 0.76828 0.22934 0.38317 0.0
C2019 C 0.75304 0.22101 0.36717 0.0
C2020 C 0.76008 0.24608 0.39822 0.0
C2021 C 0.77498 0.25455 0.41621 0.0
C2022 C 0.78617 0.23859 0.43004 0.0
C2023 C 0.80012 0.24665 0.44701 0.0
C2024 C 0.80293 0.27065 0.4504 0.0
C2025 C 0.79178 0.28665 0.43682 0.0
C2026 C 0.77783 0.27868 0.41982 0.0
C2027 C 0.65662 0.25182 0.37224 0.0
C2028 C 0.65418 0.27573 0.36739 0.0
C2029 C 0.6785 0.24258 0.3776 0.0
C2030 C 0.69836 0.25704 0.37802 0.0
C2031 C 0.69571 0.28117 0.37462 0.0
C2032 C 0.6738 0.29045 0.36935 0.0
C2033 C 0.72212 0.2468 0.37991 0.0
C2034 C 0.7371 0.25467 0.39632 0.0
C2035 C 0.73021 0.2297 0.36517 0.0
C2036 C 0.71579 0.2216 0.34672 0.0
C2037 C 0.70743 0.23762 0.33134 0.0
C2038 C 0.69372 0.22987 0.31409 0.0
C2039 C 0.68844 0.20612 0.31192 0.0
C2040 C 0.69692 0.19005 0.32698 0.0
C2041 C 0.7106 0.19771 0.34429 0.0
H2042 H 0.67783 0.20015 0.29855 0.0
H2043 H 0.8137 0.27686 0.46356 0.0
H2044 H 0.24131 0.64745 0.10893 0.0
H2045 H 0.23302 0.68888 0.10265 0.0
H2046 H 0.30697 0.70414 0.10461 0.0
H2047 H 0.31545 0.66276 0.11073 0.0
H2048 H 0.28028 0.73018 0.13365 0.0
H2049 H 0.27949 0.71075 0.05861 0.0
H2050 H 0.26781 0.68855 0.02628 0.0
H2051 H 0.19602 0.70808 0.03644 0.0
H2052 H 0.20723 0.73015 0.06901 0.0
H2053 H 0.26395 0.85126 0.11824 0.0
H2054 H 0.27749 0.81126 0.11207 0.0
H2055 H 0.20613 0.78879 0.10229 0.0
H2056 H 0.19247 0.8288 0.10805 0.0
H2057 H 0.2345 0.76695 0.07481 0.0
H2058 H 0.23307 0.78225 0.15069 0.0
H2059 H 0.24239 0.80204 0.18495 0.0
H2060 H 0.31556 0.78822 0.17527 0.0
H2061 H 0.30672 0.7687 0.14074 0.0
C2062 C 0.25583 0.65955 0.1076 0.0
C2063 C 0.27902 0.65186 0.1105 0.0
C2064 C 0.25108 0.68319 0.10392 0.0
C2065 C 0.2694 0.69953 0.10317 0.0
C2066 C 0.2926 0.69177 0.10512 0.0
C2067 C 0.2974 0.6681 0.10857 0.0
C2068 C 0.26417 0.72489 0.10268 0.0
C2069 C 0.27073 0.73838 0.12056 0.0
C2070 C 0.251 0.73526 0.08593 0.0
C2071 C 0.24419 0.72196 0.06637 0.0
C2072 C 0.26118 0.71014 0.05407 0.0
C2073 C 0.25465 0.69762 0.03567 0.0
C2074 C 0.23118 0.69687 0.02933 0.0
C2075 C 0.2142 0.70867 0.04137 0.0
C2076 C 0.22063 0.72121 0.05979 0.0
C2077 C 0.25115 0.83788 0.11446 0.0
C2078 C 0.22709 0.84318 0.11381 0.0
C2079 C 0.25892 0.81501 0.11104 0.0
C2080 C 0.24278 0.79698 0.10707 0.0
C2081 C 0.21888 0.80242 0.10538 0.0
C2082 C 0.2111 0.82531 0.10873 0.0
C2083 C 0.25059 0.77227 0.10583 0.0
C2084 C 0.2444 0.75886 0.08773 0.0
C2085 C 0.26381 0.76181 0.12256 0.0
C2086 C 0.26925 0.77424 0.14299 0.0
C2087 C 0.25117 0.78368 0.15573 0.0
C2088 C 0.25636 0.79477 0.17524 0.0
C2089 C 0.27954 0.7963 0.18231 0.0
C2090 C 0.29761 0.78694 0.1698 0.0
C2091 C 0.29252 0.7759 0.15024 0.0
H2092 H 0.28351 0.8048 0.19746 0.0
H2093 H 0.22617 0.68717 0.01507 0.0
H2094 H 0.66016 0.18968 0.60024 0.0
H2095 H 0.70106 0.19955 0.59308 0.0
H2096 H 0.6855 0.27268 0.60239 0.0
H2097 H 0.64448 0.26302 0.60952 0.0
H2098 H 0.71848 0.26406 0.56891 0.0
H2099 H 0.70435 0.24312 0.64344 0.0
H2100 H 0.68971 0.21693 0.67195 0.0
H2101 H 0.73693 0.16306 0.65095 0.0
H2102 H 0.75152 0.1888 0.622 0.0
H2103 H 0.82578 0.31205 0.60611 0.0
H2104 H 0.78589 0.29918 0.59852 0.0
H2105 H 0.80888 0.22727 0.59882 0.0
H2106 H 0.84881 0.24 0.60683 0.0
H2107 H 0.7726 0.23246 0.62428 0.0
H2108 H 0.78983 0.25402 0.552 0.0
H2109 H 0.80375 0.27901 0.5223 0.0
H2110 H 0.75155 0.33042 0.53783 0.0
H2111 H 0.73747 0.30586 0.56781 0.0
C2112 C 0.6653 0.20791 0.60036 0.0
C2113 C 0.64914 0.22554 0.60577 0.0
C2114 C 0.68869 0.21351 0.59627 0.0
C2115 C 0.69633 0.2368 0.5975 0.0
C2116 C 0.67994 0.2546 0.6014 0.0
C2117 C 0.65653 0.24902 0.60557 0.0
C2118 C 0.72166 0.24235 0.59706 0.0
C2119 C 0.73036 0.25731 0.58105 0.0
C2120 C 0.73716 0.23304 0.61264 0.0
C2121 C 0.72883 0.21779 0.6304 0.0
C2122 C 0.7115 0.22563 0.64481 0.0
C2123 C 0.70321 0.21087 0.66106 0.0
C2124 C 0.71233 0.18831 0.66322 0.0
C2125 C 0.72985 0.18052 0.64922 0.0
C2126 C 0.73813 0.19518 0.63288 0.0
C2127 C 0.82247 0.29351 0.60418 0.0
C2128 C 0.84046 0.27705 0.60725 0.0
C2129 C 0.79962 0.28617 0.59972 0.0
C2130 C 0.79436 0.26224 0.59801 0.0
C2131 C 0.81251 0.24582 0.60012 0.0
C2132 C 0.83534 0.25314 0.60465 0.0
C2133 C 0.76965 0.25434 0.59612 0.0
C2134 C 0.76094 0.23901 0.61186 0.0
C2135 C 0.75425 0.26324 0.58022 0.0
C2136 C 0.76272 0.27816 0.56228 0.0
C2137 C 0.78144 0.27074 0.54921 0.0
C2138 C 0.78933 0.28481 0.53229 0.0
C2139 C 0.77857 0.30631 0.52821 0.0
C2140 C 0.75987 0.31377 0.54102 0.0
C2141 C 0.75191 0.29976 0.55796 0.0
H2142 H 0.7847 0.31718 0.5151 0.0
H2143 H 0.70585 0.17687 0.67575 0.0
H2144 H 0.81335 0.02911 0.91281 0.0
H2145 H 0.80298 0.01877 0.94992 0.0
H2146 H 0.73221 0.00393 0.92954 0.0
H2147 H 0.74295 0.01357 0.89234 0.0
H2148 H 0.77443 0.04271 0.97286 0.0
H2149 H 0.70409 0.96936 0.96603 0.0
H2150 H 0.69643 0.93403 0.9443 0.0
H2151 H 0.76992 0.92732 0.93093 0.0
H2152 H 0.77807 0.96239 0.95283 0.0
H2153 H 0.69673 0.05059 0.05758 0.0
H2154 H 0.70874 0.04131 0.02072 0.0
H2155 H 0.75124 0.9845 0.04434 0.0
H2156 H 0.73932 0.99395 0.08148 0.0
H2157 H 0.72738 0.97673 0.00159 0.0
H2158 H 0.78066 0.02904 0.03801 0.0
H2159 H 0.79097 0.06317 0.06045 0.0
H2160 H 0.75664 0.1088 0.01552 0.0
H2161 H 0.7461 0.0749 -0.00717 0.0
C2162 C 0.79586 0.02275 0.91623 0.0
C2163 C 0.77899 0.02178 0.89987 0.0
C2164 C 0.78987 0.01702 0.93741 0.0
C2165 C 0.76679 0.01051 0.94262 0.0
C2166 C 0.75022 0.00844 0.92596 0.0
C2167 C 0.75631 0.01395 0.90472 0.0
C2168 C 0.75942 0.00897 0.96561 0.0
C2169 C 0.76436 0.0281 0.97907 0.0
C2170 C 0.74634 0.98992 0.97395 0.0
C2171 C 0.74165 0.96864 0.96094 0.0
C2172 C 0.71863 0.96028 0.95854 0.0
C2173 C 0.7142 0.94031 0.94618 0.0
C2174 C 0.73267 0.92848 0.93619 0.0
C2175 C 0.75562 0.93655 0.93861 0.0
C2176 C 0.76015 0.9565 0.95097 0.0
C2177 C 0.70805 0.03567 0.05482 0.0
C2178 C 0.71727 0.02307 0.07227 0.0
C2179 C 0.71492 0.03041 0.0338 0.0
C2180 C 0.73108 0.0124 0.02986 0.0
C2181 C 0.73872 -0.00157 0.04708 0.0
C2182 C 0.73187 0.00378 0.06823 0.0
C2183 C 0.74216 0.01056 0.00832 0.0
C2184 C 0.73775 0.99104 -0.00477 0.0
C2185 C 0.75614 0.02901 0.0003 0.0
C2186 C 0.76246 0.04945 0.01383 0.0
C2187 C 0.77522 0.04635 0.03298 0.0
C2188 C 0.7812 0.06565 0.04569 0.0
C2189 C 0.77445 0.08814 0.03942 0.0
C2190 C 0.76184 0.09138 0.02036 0.0
C2191 C 0.75594 0.07214 0.00753 0.0
H2192 H 0.77898 0.10305 0.04935 0.0
H2193 H 0.7292 0.91303 0.92662 0.0
H2194 H 0.48743 0.75003 0.39324 0.0
H2195 H 0.49771 0.73755 0.42995 0.0
H2196 H 0.46227 0.79807 0.45575 0.0
H2197 H 0.45192 0.81038 0.41914 0.0
H2198 H 0.50305 0.78611 0.47911 0.0
H2199 H 0.43279 0.74976 0.45064 0.0
H2200 H 0.41073 0.72671 0.42388 0.0
H2201 H 0.45605 0.66791 0.43467 0.0
H2202 H 0.47864 0.69078 0.46127 0.0
H2203 H 0.45473 0.7568 0.57983 0.0
H2204 H 0.46504 0.76864 0.54324 0.0
H2205 H 0.49143 0.69925 0.53037 0.0
H2206 H 0.4805 0.68725 0.56711 0.0
H2207 H 0.4626 0.71253 0.49945 0.0
H2208 H 0.52864 0.74735 0.53312 0.0
H2209 H 0.55014 0.77083 0.55994 0.0
H2210 H 0.51313 0.83247 0.53989 0.0
H2211 H 0.49114 0.80932 0.51315 0.0
C2212 C 0.48257 0.761 0.40676 0.0
C2213 C 0.46899 0.78115 0.40353 0.0
C2214 C 0.4883 0.75382 0.42768 0.0
C2215 C 0.48056 0.76678 0.44559 0.0
C2216 C 0.46849 0.78786 0.4422 0.0
C2217 C 0.4626 0.79489 0.42133 0.0
C2218 C 0.48239 0.75715 0.46776 0.0
C2219 C 0.49424 0.77003 0.48362 0.0
C2220 C 0.47131 0.7359 0.47351 0.0
C2221 C 0.45757 0.72206 0.45773 0.0
C2222 C 0.43816 0.73198 0.44718 0.0
C2223 C 0.42555 0.71894 0.43205 0.0
C2224 C 0.43203 0.69589 0.42752 0.0
C2225 C 0.45109 0.68579 0.43816 0.0
C2226 C 0.4638 0.69878 0.45326 0.0
C2227 C 0.46315 0.74423 0.56928 0.0
C2228 C 0.4669 0.72117 0.57619 0.0
C2229 C 0.46916 0.75103 0.54841 0.0
C2230 C 0.47927 0.73494 0.53402 0.0
C2231 C 0.48375 0.71201 0.54118 0.0
C2232 C 0.47768 0.7052 0.56216 0.0
C2233 C 0.48302 0.74164 0.51108 0.0
C2234 C 0.47201 0.72829 0.495 0.0
C2235 C 0.49487 0.76247 0.50519 0.0
C2236 C 0.50814 0.77654 0.52119 0.0
C2237 C 0.52496 0.76588 0.53452 0.0
C2238 C 0.53726 0.77914 0.5497 0.0
C2239 C 0.53298 0.80312 0.55164 0.0
C2240 C 0.51643 0.8139 0.53837 0.0
C2241 C 0.50407 0.80071 0.52317 0.0
H2242 H 0.54252 0.81335 0.56341 0.0
H2243 H 0.42225 0.68582 0.41581 0.0
H2244 H 0.75246 0.4929 0.08525 0.0
H2245 H 0.74085 0.50434 0.04859 0.0
H2246 H 0.79534 0.46042 0.0224 0.0
H2247 H 0.80673 0.44884 0.05894 0.0
H2248 H 0.78867 0.50291 -0.00095 0.0
H2249 H 0.74408 0.43785 0.02846 0.0
H2250 H 0.71866 0.4194 0.0557 0.0
H2251 H 0.66603 0.47175 0.04476 0.0
H2252 H 0.69136 0.49076 0.0177 0.0
H2253 H 0.75474 0.45327 0.90068 0.0
H2254 H 0.76743 0.46499 0.93664 0.0
H2255 H 0.70095 0.49915 0.94715 0.0
H2256 H 0.68806 0.48686 0.91101 0.0
H2257 H 0.71074 0.47085 0.97947 0.0
H2258 H 0.75267 0.53104 0.9441 0.0
H2259 H 0.77838 0.54901 0.91685 0.0
H2260 H 0.83587 0.50664 0.93839 0.0
H2261 H 0.81045 0.48814 0.96558 0.0
C2262 C 0.76235 0.48631 0.07163 0.0
C2263 C 0.78042 0.47002 0.07474 0.0
C2264 C 0.75568 0.49276 0.05075 0.0
C2265 C 0.76714 0.48309 0.03279 0.0
C2266 C 0.78633 0.46815 0.03602 0.0
C2267 C 0.7928 0.46152 0.05684 0.0
C2268 C 0.75753 0.486 0.01074 0.0
C2269 C 0.77163 0.49598 -0.00531 0.0
C2270 C 0.73504 0.47747 0.00523 0.0
C2271 C 0.71971 0.46589 0.02128 0.0
C2272 C 0.72716 0.44554 0.032 0.0
C2273 C 0.71277 0.43496 0.04738 0.0
C2274 C 0.69077 0.44444 0.05201 0.0
C2275 C 0.68309 0.46447 0.0412 0.0
C2276 C 0.69746 0.47515 0.02585 0.0
C2277 C 0.74306 0.46372 0.91053 0.0
C2278 C 0.72046 0.46918 0.90322 0.0
C2279 C 0.75035 0.47054 0.93104 0.0
C2280 C 0.73526 0.48318 0.94462 0.0
C2281 C 0.71295 0.48951 0.93695 0.0
C2282 C 0.70563 0.48263 0.91632 0.0
C2283 C 0.74207 0.48738 0.96746 0.0
C2284 C 0.7275 0.47852 0.98375 0.0
C2285 C 0.76412 0.49698 0.97312 0.0
C2286 C 0.77958 0.50811 0.95684 0.0
C2287 C 0.77076 0.52543 0.94295 0.0
C2288 C 0.78529 0.53573 0.92751 0.0
C2289 C 0.80874 0.52896 0.92587 0.0
C2290 C 0.81771 0.51188 0.93969 0.0
C2291 C 0.80325 0.50151 0.95514 0.0
H2292 H 0.81996 0.53695 0.91391 0.0
H2293 H 0.67964 0.43623 0.06392 0.0
H2294 H 0.02382 0.68648 0.41472 0.0
H2295 H 0.0131 0.7003 0.45087 0.0
H2296 H 0.00659 0.77064 0.42643 0.0
H2297 H 0.01717 0.75668 0.39026 0.0
H2298 H 0.03662 0.76744 0.46077 0.0
H2299 H 0.95869 0.74285 0.44418 0.0
H2300 H 0.92811 0.71562 0.43164 0.0
H2301 H 0.94584 0.66765 0.48227 0.0
H2302 H 0.97678 0.69444 0.49494 0.0
H2303 H 0.01627 0.81043 0.56505 0.0
H2304 H 0.00611 0.80205 0.52732 0.0
H2305 H 0.00892 0.72802 0.54067 0.0
H2306 H 0.01863 0.73647 0.5783 0.0
H2307 H 0.97595 0.73699 0.51063 0.0
H2308 H 0.05679 0.75652 0.5233 0.0
H2309 H 0.0892 0.78135 0.53622 0.0
H2310 H 0.06812 0.83597 0.49291 0.0
H2311 H 0.03531 0.81157 0.47999 0.0
C2312 C 0.01929 0.70471 0.41702 0.0
C2313 C 0.02089 0.72051 0.39983 0.0
C2314 C 0.01322 0.71263 0.43763 0.0
C2315 C 0.00891 0.73651 0.44135 0.0
C2316 C 0.0097 0.75215 0.42391 0.0
C2317 C 0.01557 0.74418 0.40328 0.0
C2318 C 0.00618 0.74542 0.46372 0.0
C2319 C 0.02297 0.76123 0.47151 0.0
C2320 C 0.98884 0.73675 0.47793 0.0
C2321 C 0.97019 0.72061 0.47042 0.0
C2322 C 0.9562 0.72642 0.45255 0.0
C2323 C 0.93877 0.71107 0.44543 0.0
C2324 C 0.93506 0.6899 0.45613 0.0
C2325 C 0.94874 0.68406 0.474 0.0
C2326 C 0.96621 0.69933 0.48117 0.0
C2327 C 0.01387 0.79245 0.55999 0.0
C2328 C 0.0182 0.77406 0.57438 0.0
C2329 C 0.00825 0.78764 0.53847 0.0
C2330 C 0.00716 0.76437 0.53107 0.0
C2331 C 0.00965 0.74607 0.54595 0.0
C2332 C 0.0152 0.75089 0.56742 0.0
C2333 C 0.00641 0.75895 0.50762 0.0
C2334 C 0.98919 0.74363 0.49971 0.0
C2335 C 0.0236 0.76775 0.4933 0.0
C2336 C 0.04343 0.78235 0.50088 0.0
C2337 C 0.05896 0.77389 0.51665 0.0
C2338 C 0.07741 0.78787 0.52396 0.0
C2339 C 0.08067 0.81025 0.51543 0.0
C2340 C 0.06553 0.81866 0.49953 0.0
C2341 C 0.047 0.80477 0.49221 0.0
H2342 H 0.09497 0.82105 0.52111 0.0
H2343 H 0.92155 0.67804 0.4506 0.0
H2344 H 0.24113 0.99225 0.07816 0.0
H2345 H 0.25077 -0.00102 0.04009 0.0
H2346 H 0.19676 0.95019 0.02135 0.0
H2347 H 0.18775 0.94303 0.05931 0.0
H2348 H 0.23566 0.93792 0.00397 0.0
H2349 H 0.19392 0.00989 0.0094 0.0
H2350 H 0.18329 0.04831 0.02463 0.0
H2351 H 0.25277 0.0737 0.01226 0.0
H2352 H 0.26394 0.03531 -0.00276 0.0
H2353 H 0.2467 0.98499 0.88857 0.0
H2354 H 0.23337 0.99252 0.92562 0.0
H2355 H 0.29273 0.95412 0.9501 0.0
H2356 H 0.30558 0.94612 0.91318 0.0
H2357 H 0.24866 0.01154 0.96342 0.0
H2358 H 0.27651 0.91855 0.9879 0.0
H2359 H 0.28224 0.87951 0.97166 0.0
H2360 H 0.23157 0.89567 0.92276 0.0
H2361 H 0.22574 0.93486 0.9386 0.0
C2362 C 0.23087 0.98363 0.0658 0.0
C2363 C 0.21369 0.96721 0.07149 0.0
C2364 C 0.23637 0.98743 0.04407 0.0
C2365 C 0.22455 0.97503 0.02777 0.0
C2366 C 0.20623 0.95986 0.03357 0.0
C2367 C 0.20094 0.95591 0.05522 0.0
C2368 C 0.23298 0.97553 0.00504 0.0
C2369 C 0.2384 0.95409 -0.00482 0.0
C2370 C 0.23646 0.99653 -0.00665 0.0
C2371 C 0.22983 0.01964 0.00238 0.0
C2372 C 0.207 0.0236 0.0101 0.0
C2373 C 0.20086 0.04539 0.01866 0.0
C2374 C 0.21736 0.06341 0.01946 0.0
C2375 C 0.24002 0.05971 0.01166 0.0
C2376 C 0.24625 0.03795 0.00309 0.0
C2377 C 0.25722 0.97885 0.90195 0.0
C2378 C 0.27711 0.965 0.89819 0.0
C2379 C 0.24958 0.98307 0.92307 0.0
C2380 C 0.26178 0.97348 0.94064 0.0
C2381 C 0.28279 0.96134 0.93681 0.0
C2382 C 0.29026 0.95695 0.91576 0.0
C2383 C 0.25147 0.97397 0.96267 0.0
C2384 C 0.24584 0.99549 0.97235 0.0
C2385 C 0.24719 0.95302 0.97414 0.0
C2386 C 0.25084 0.92965 0.96433 0.0
C2387 C 0.26663 0.91375 0.97366 0.0
C2388 C 0.26993 0.89163 0.9645 0.0
C2389 C 0.25733 0.88515 0.94614 0.0
C2390 C 0.24138 0.90075 0.93694 0.0
C2391 C 0.23818 0.92296 0.94591 0.0
H2392 H 0.25989 0.86801 0.93908 0.0
H2393 H 0.21257 0.08027 0.02609 0.0
H2394 H 0.52749 0.18345 0.56182 0.0
H2395 H 0.5181 0.19139 0.52388 0.0
H2396 H 0.50695 0.26419 0.53926 0.0
H2397 H 0.51607 0.25611 0.57714 0.0
H2398 H 0.477 0.24946 0.50719 0.0
H2399 H 0.55952 0.24702 0.52315 0.0
H2400 H 0.5959 0.22941 0.53715 0.0
H2401 H 0.58855 0.17196 0.49305 0.0
H2402 H 0.55196 0.18913 0.47892 0.0
H2403 H 0.51573 0.30632 0.41003 0.0
H2404 H 0.50609 0.29217 0.44635 0.0
H2405 H 0.51875 0.22121 0.42558 0.0
H2406 H 0.52855 0.23544 0.38946 0.0
H2407 H 0.54487 0.2324 0.45979 0.0
H2408 H 0.46399 0.23894 0.44061 0.0
H2409 H 0.42858 0.25847 0.42675 0.0
H2410 H 0.43359 0.31027 0.47668 0.0
H2411 H 0.46926 0.29124 0.49067 0.0
C2412 C 0.52222 0.20092 0.55712 0.0
C2413 C 0.52233 0.21918 0.5722 0.0
C2414 C 0.51701 0.2055 0.5355 0.0
C2415 C 0.51213 0.22847 0.52869 0.0
C2416 C 0.5106 0.24637 0.54413 0.0
C2417 C 0.51579 0.24176 0.56572 0.0
C2418 C 0.51152 0.23439 0.50538 0.0
C2419 C 0.49183 0.24581 0.4968 0.0
C2420 C 0.53082 0.22949 0.49179 0.0
C2421 C 0.55287 0.21921 0.50016 0.0
C2422 C 0.56557 0.23054 0.51655 0.0
C2423 C 0.58623 0.22066 0.52449 0.0
C2424 C 0.59447 0.19953 0.51606 0.0
C2425 C 0.58211 0.18829 0.4996 0.0
C2426 C 0.56143 0.1981 0.4916 0.0
C2427 C 0.51558 0.28767 0.41313 0.0
C2428 C 0.5226 0.27188 0.39708 0.0
C2429 C 0.51013 0.27958 0.43384 0.0
C2430 C 0.51167 0.25559 0.43871 0.0
C2431 C 0.51742 0.23975 0.42222 0.0
C2432 C 0.52284 0.24784 0.40159 0.0
C2433 C 0.51024 0.24732 0.46138 0.0
C2434 C 0.52977 0.23568 0.46997 0.0
C2435 C 0.4909 0.25228 0.47492 0.0
C2436 C 0.46943 0.26376 0.46658 0.0
C2437 C 0.45767 0.25461 0.44853 0.0
C2438 C 0.43752 0.26557 0.44067 0.0
C2439 C 0.42887 0.28563 0.4508 0.0
C2440 C 0.44032 0.29474 0.46884 0.0
C2441 C 0.46049 0.28385 0.47676 0.0
H2442 H 0.41326 0.29409 0.44469 0.0
H2443 H 0.61047 0.1919 0.52223 0.0
H2444 H 0.29978 0.55247 0.05835 0.0
H2445 H 0.28747 0.542 0.02196 0.0
H2446 H 0.24654 0.48492 0.04752 0.0
H2447 H 0.25814 0.49617 0.0842 0.0
H2448 H 0.28866 0.50831 -0.00553 0.0
H2449 H 0.19519 0.48142 0.01926 0.0
H2450 H 0.16765 0.48696 0.04951 0.0
H2451 H 0.20054 0.55236 0.0652 0.0
H2452 H 0.22802 0.54735 0.03488 0.0
H2453 H 0.23231 0.49501 0.89401 0.0
H2454 H 0.24306 0.48371 0.93089 0.0
H2455 H 0.20601 0.5439 0.95553 0.0
H2456 H 0.19453 0.5545 0.91896 0.0
H2457 H 0.20261 0.51091 0.98354 0.0
H2458 H 0.26561 0.54512 0.94253 0.0
H2459 H 0.29329 0.54767 0.91212 0.0
H2460 H 0.32191 0.48062 0.92888 0.0
H2461 H 0.29412 0.47755 0.95923 0.0
C2462 C 0.28851 0.53741 0.05614 0.0
C2463 C 0.27964 0.52533 0.07404 0.0
C2464 C 0.28155 0.53135 0.03532 0.0
C2465 C 0.26566 0.51295 0.03193 0.0
C2466 C 0.25845 0.49948 0.04971 0.0
C2467 C 0.26527 0.50573 0.07065 0.0
C2468 C 0.25504 0.50975 0.01017 0.0
C2469 C 0.26983 0.50848 -0.00788 0.0
C2470 C 0.23047 0.51048 0.00693 0.0
C2471 C 0.21383 0.51383 0.02501 0.0
C2472 C 0.19648 0.49699 0.02915 0.0
C2473 C 0.18089 0.50005 0.04629 0.0
C2474 C 0.1824 0.51995 0.05932 0.0
C2475 C 0.19944 0.53691 0.05515 0.0
C2476 C 0.21502 0.53397 0.03799 0.0
C2477 C 0.22581 0.50528 0.90741 0.0
C2478 C 0.21284 0.52576 0.90372 0.0
C2479 C 0.23216 0.49898 0.92845 0.0
C2480 C 0.22584 0.51326 0.94602 0.0
C2481 C 0.21123 0.53261 0.94234 0.0
C2482 C 0.20474 0.53874 0.92142 0.0
C2483 C 0.23625 0.50985 0.96783 0.0
C2484 C 0.22142 0.50994 0.98589 0.0
C2485 C 0.26082 0.5091 0.97107 0.0
C2486 C 0.27762 0.51097 0.95295 0.0
C2487 C 0.27771 0.53086 0.93963 0.0
C2488 C 0.29342 0.53241 0.92242 0.0
C2489 C 0.30931 0.51429 0.91853 0.0
C2490 C 0.30956 0.49461 0.93188 0.0
C2491 C 0.29383 0.49295 0.94908 0.0
H2492 H 0.32147 0.51552 0.9052 0.0
H2493 H 0.17034 0.52226 0.0726 0.0
H2494 H 0.98888 0.18909 0.40917 0.0
H2495 H 0.00091 0.20169 0.44545 0.0
H2496 H 0.96676 0.26816 0.43537 0.0
H2497 H 0.95524 0.25574 0.3992 0.0
H2498 H 0.00536 0.27407 0.45925 0.0
H2499 H 0.93815 0.22263 0.45875 0.0
H2500 H 0.91724 0.18594 0.45058 0.0
H2501 H 0.96653 0.14745 0.48897 0.0
H2502 H 0.98796 0.18393 0.49708 0.0
H2503 H 0.95247 0.30823 0.55763 0.0
H2504 H 0.96449 0.29645 0.52132 0.0
H2505 H 0.00272 0.23815 0.54799 0.0
H2506 H 0.99077 0.25016 0.58445 0.0
H2507 H 0.97076 0.22504 0.51695 0.0
H2508 H 0.03261 0.28046 0.52317 0.0
H2509 H 0.05067 0.3186 0.53139 0.0
H2510 H 0.00859 0.3513 0.48264 0.0
H2511 H 0.99 0.31342 0.47433 0.0
C2512 C 0.9846 0.2066 0.41458 0.0
C2513 C 0.97103 0.22143 0.40162 0.0
C2514 C 0.99133 0.21375 0.43529 0.0
C2515 C 0.9844 0.23576 0.44328 0.0
C2516 C 0.97231 0.25113 0.42962 0.0
C2517 C 0.96565 0.24401 0.40901 0.0
C2518 C 0.98725 0.24197 0.46642 0.0
C2519 C -0.00214 0.26334 0.47189 0.0
C2520 C 0.97778 0.22782 0.48299 0.0
C2521 C 0.96482 0.20593 0.47829 0.0
C2522 C 0.94462 0.20632 0.46532 0.0
C2523 C 0.93267 0.18557 0.46071 0.0
C2524 C 0.94059 0.16436 0.4692 0.0
C2525 C 0.96045 0.16388 0.48236 0.0
C2526 C 0.97251 0.18458 0.48696 0.0
C2527 C 0.96405 0.29336 0.55571 0.0
C2528 C 0.9709 0.28017 0.57368 0.0
C2529 C 0.97092 0.28662 0.53501 0.0
C2530 C 0.98461 0.26647 0.53192 0.0
C2531 C 0.99227 0.25382 0.55001 0.0
C2532 C 0.98559 0.26074 0.57078 0.0
C2533 C 0.98851 0.25735 0.50978 0.0
C2534 C 0.97894 0.23548 0.50445 0.0
C2535 C -0.0014 0.27124 0.49335 0.0
C2536 C 0.00981 0.29408 0.49821 0.0
C2537 C 0.02707 0.2958 0.5143 0.0
C2538 C 0.03743 0.31738 0.51896 0.0
C2539 C 0.03076 0.33737 0.50757 0.0
C2540 C 0.01374 0.3358 0.49146 0.0
C2541 C 0.00332 0.31427 0.48674 0.0
H2542 H 0.0388 0.35406 0.5112 0.0
H2543 H 0.93131 0.14831 0.46563 0.0
loop_
_geom_bond_atom_site_label_1
_geom_bond_atom_site_label_2
_geom_bond_distance
_geom_bond_site_symmetry_2
_ccdc_geom_bond_type
Co0 O3 1.970 . S
Co0 N17 1.989 . S
Co0 O25 1.967 . S
Co0 O32 1.920 . S
Co1 O4 1.966 . S
Co1 N10 2.022 . S
Co1 N18 1.993 . S
Co1 O26 1.941 . S
C2 O3 1.258 . S
C2 O4 1.263 . S
O3 Co0 1.970 . S
O3 C2 1.258 . S
O4 Co1 1.966 . S
O4 C2 1.263 . S
C5 O6 1.235 . S
C5 O32 1.289 . S
O6 C5 1.235 . S
C7 C9 1.400 1_545 S
C7 N10 1.351 . S
C7 C12 1.501 . S
C8 C9 1.387 . S
C8 N11 1.341 . S
C9 C7 1.400 1_565 S
C9 C8 1.387 . S
N10 Co1 2.022 . S
N10 C7 1.351 . S
N10 N11 1.365 1_545 S
N11 C8 1.341 . S
N11 N10 1.365 1_565 S
N11 H31 0.862 . S
C12 C7 1.501 . S
C12 H13 0.961 . S
C12 H14 0.961 . S
C12 H15 0.960 . S
H13 C12 0.961 . S
H14 C12 0.961 . S
H15 C12 0.960 . S
C16 N17 1.342 . S
C16 C20 1.401 . S
C16 C21 1.499 . S
N17 Co0 1.989 . S
N17 C16 1.342 . S
N17 N18 1.388 . S
N18 Co1 1.993 . S
N18 N17 1.388 . S
N18 C19 1.346 . S
C19 N18 1.346 . S
C19 C20 1.396 . S
C19 C29 1.510 . S
C20 C16 1.401 . S
C20 C19 1.396 . S
C21 C16 1.499 . S
C21 H22 0.959 . S
C21 H23 0.960 . S
C21 H24 0.961 . S
H22 C21 0.959 . S
H23 C21 0.960 . S
H24 C21 0.961 . S
O25 Co0 1.967 . S
O25 C33 1.258 . S
O26 Co1 1.941 . S
O26 C33 1.266 . S
H27 C29 0.955 1_565 S
H28 C29 0.961 . S
C29 C19 1.510 . S
C29 H27 0.955 1_545 S
C29 H28 0.961 . S
C29 H30 0.960 . S
H30 C29 0.960 . S
H31 N11 0.862 . S
O32 Co0 1.920 . S
O32 C5 1.289 . S
C33 O25 1.258 . S
C33 O26 1.266 . S
Co34 O37 1.970 . S
Co34 N51 1.989 . S
Co34 O59 1.967 . S
Co34 O66 1.920 . S
Co35 O38 1.966 . S
Co35 N44 2.022 . S
Co35 N52 1.993 . S
Co35 O60 1.941 . S
C36 O37 1.258 . S
C36 O38 1.263 . S
O37 Co34 1.970 . S
O37 C36 1.258 . S
O38 Co35 1.966 . S
O38 C36 1.263 . S
C39 O40 1.235 . S
C39 O66 1.289 . S
O40 C39 1.235 . S
C41 C43 1.400 . S
C41 N44 1.351 . S
C41 C46 1.501 . S
C42 C43 1.387 . S
C42 N45 1.341 . S
C43 C41 1.400 . S
C43 C42 1.387 . S
N44 Co35 2.022 . S
N44 C41 1.351 . S
N44 N45 1.365 . S
N45 C42 1.341 . S
N45 N44 1.365 . S
N45 H65 0.862 . S
C46 C41 1.501 . S
C46 H47 0.961 . S
C46 H48 0.961 . S
C46 H49 0.960 . S
H47 C46 0.961 . S
H48 C46 0.961 . S
H49 C46 0.960 . S
C50 N51 1.342 . S
C50 C54 1.401 . S
C50 C55 1.499 . S
N51 Co34 1.989 . S
N51 C50 1.342 . S
N51 N52 1.388 . S
N52 Co35 1.993 . S
N52 N51 1.388 . S
N52 C53 1.346 . S
C53 N52 1.346 . S
C53 C54 1.396 . S
C53 C63 1.510 . S
C54 C50 1.401 . S
C54 C53 1.396 . S
C55 C50 1.499 . S
C55 H56 0.959 . S
C55 H57 0.960 . S
C55 H58 0.961 . S
H56 C55 0.959 . S
H57 C55 0.960 . S
H58 C55 0.961 . S
O59 Co34 1.967 . S
O59 C67 1.258 . S
O60 Co35 1.941 . S
O60 C67 1.266 . S
H61 C63 0.959 . S
H62 C63 0.961 . S
C63 C53 1.510 . S
C63 H61 0.959 . S
C63 H62 0.961 . S
C63 H64 0.960 . S
H64 C63 0.960 . S
H65 N45 0.862 . S
O66 Co34 1.920 . S
O66 C39 1.289 . S
C67 O59 1.258 . S
C67 O60 1.266 . S
Co68 O71 1.970 . S
Co68 N85 1.989 . S
Co68 O93 1.967 . S
Co68 O100 1.920 . S
Co69 O72 1.966 . S
Co69 N78 2.022 . S
Co69 N86 1.993 . S
Co69 O94 1.941 . S
C70 O71 1.258 . S
C70 O72 1.263 . S
O71 Co68 1.970 . S
O71 C70 1.258 . S
O72 Co69 1.966 . S
O72 C70 1.263 . S
C73 O74 1.235 . S
C73 O100 1.289 . S
O74 C73 1.235 . S
C75 C77 1.400 . S
C75 N78 1.351 . S
C75 C80 1.501 . S
C76 C77 1.387 . S
C76 N79 1.341 . S
C77 C75 1.400 . S
C77 C76 1.387 . S
N78 Co69 2.022 . S
N78 C75 1.351 . S
N78 N79 1.365 . S
N79 C76 1.341 . S
N79 N78 1.365 . S
N79 H99 0.862 . S
C80 C75 1.501 . S
C80 H81 0.961 . S
C80 H82 0.961 . S
C80 H83 0.960 . S
H81 C80 0.961 . S
H82 C80 0.961 . S
H83 C80 0.960 . S
C84 N85 1.342 . S
C84 C88 1.401 . S
C84 C89 1.499 . S
N85 Co68 1.989 . S
N85 C84 1.342 . S
N85 N86 1.388 . S
N86 Co69 1.993 . S
N86 N85 1.388 . S
N86 C87 1.346 . S
C87 N86 1.346 . S
C87 C88 1.396 . S
C87 C97 1.510 . S
C88 C84 1.401 . S
C88 C87 1.396 . S
C89 C84 1.499 . S
C89 H90 0.959 . S
C89 H91 0.960 . S
C89 H92 0.961 . S
H90 C89 0.959 . S
H91 C89 0.960 . S
H92 C89 0.961 . S
O93 Co68 1.967 . S
O93 C101 1.258 . S
O94 Co69 1.941 . S
O94 C101 1.266 . S
H95 C97 0.959 . S
H96 C97 0.961 . S
C97 C87 1.510 . S
C97 H95 0.959 . S
C97 H96 0.961 . S
C97 H98 0.960 . S
H98 C97 0.960 . S
H99 N79 0.862 . S
O100 Co68 1.920 . S
O100 C73 1.289 . S
C101 O93 1.258 . S
C101 O94 1.266 . S
Co102 O105 1.970 . S
Co102 N119 1.989 . S
Co102 O127 1.967 . S
Co102 O134 1.920 . S
Co103 O106 1.966 . S
Co103 N112 2.022 . S
Co103 N120 1.993 . S
Co103 O128 1.941 . S
C104 O105 1.258 . S
C104 O106 1.263 . S
O105 Co102 1.970 . S
O105 C104 1.258 . S
O106 Co103 1.966 . S
O106 C104 1.263 . S
C107 O108 1.235 . S
C107 O134 1.289 . S
O108 C107 1.235 . S
C109 C111 1.400 1_455 S
C109 N112 1.351 . S
C109 C114 1.501 . S
C110 C111 1.387 . S
C110 N113 1.341 . S
C111 C109 1.400 1_655 S
C111 C110 1.387 . S
N112 Co103 2.022 . S
N112 C109 1.351 . S
N112 N113 1.365 1_455 S
N113 C110 1.341 . S
N113 N112 1.365 1_655 S
N113 H133 0.862 . S
C114 C109 1.501 . S
C114 H115 0.961 . S
C114 H116 0.961 . S
C114 H117 0.960 . S
H115 C114 0.961 . S
H116 C114 0.961 . S
H117 C114 0.960 . S
C118 N119 1.342 . S
C118 C122 1.401 . S
C118 C123 1.499 . S
N119 Co102 1.989 . S
N119 C118 1.342 . S
N119 N120 1.388 . S
N120 Co103 1.993 . S
N120 N119 1.388 . S
N120 C121 1.346 . S
C121 N120 1.346 . S
C121 C122 1.396 . S
C121 C131 1.510 . S
C122 C118 1.401 . S
C122 C121 1.396 . S
C123 C118 1.499 . S
C123 H124 0.959 . S
C123 H125 0.960 . S
C123 H126 0.961 . S
H124 C123 0.959 . S
H125 C123 0.960 . S
H126 C123 0.961 . S
O127 Co102 1.967 . S
O127 C135 1.258 . S
O128 Co103 1.941 . S
O128 C135 1.266 . S
H129 C131 0.955 1_655 S
H130 C131 0.961 . S
C131 C121 1.510 . S
C131 H129 0.955 1_455 S
C131 H130 0.961 . S
C131 H132 0.960 . S
H132 C131 0.960 . S
H133 N113 0.862 . S
O134 Co102 1.920 . S
O134 C107 1.289 . S
C135 O127 1.258 . S
C135 O128 1.266 . S
Co136 O139 1.970 . S
Co136 N153 1.989 . S
Co136 O161 1.967 . S
Co136 O168 1.920 . S
Co137 O140 1.966 . S
Co137 N146 2.022 . S
Co137 N154 1.993 . S
Co137 O162 1.941 . S
C138 O139 1.258 . S
C138 O140 1.263 . S
O139 Co136 1.970 . S
O139 C138 1.258 . S
O140 Co137 1.966 . S
O140 C138 1.263 . S
C141 O142 1.235 . S
C141 O168 1.289 . S
O142 C141 1.235 . S
C143 C145 1.400 . S
C143 N146 1.351 . S
C143 C148 1.501 . S
C144 C145 1.387 . S
C144 N147 1.341 . S
C145 C143 1.400 . S
C145 C144 1.387 . S
N146 Co137 2.022 . S
N146 C143 1.351 . S
N146 N147 1.365 . S
N147 C144 1.341 . S
N147 N146 1.365 . S
N147 H167 0.862 . S
C148 C143 1.501 . S
C148 H149 0.961 . S
C148 H150 0.961 . S
C148 H151 0.960 . S
H149 C148 0.961 . S
H150 C148 0.961 . S
H151 C148 0.960 . S
C152 N153 1.342 . S
C152 C156 1.401 . S
C152 C157 1.499 . S
N153 Co136 1.989 . S
N153 C152 1.342 . S
N153 N154 1.388 . S
N154 Co137 1.993 . S
N154 N153 1.388 . S
N154 C155 1.346 . S
C155 N154 1.346 . S
C155 C156 1.396 . S
C155 C165 1.510 . S
C156 C152 1.401 . S
C156 C155 1.396 . S
C157 C152 1.499 . S
C157 H158 0.959 . S
C157 H159 0.960 . S
C157 H160 0.961 . S
H158 C157 0.959 . S
H159 C157 0.960 . S
H160 C157 0.961 . S
O161 Co136 1.967 . S
O161 C169 1.258 . S
O162 Co137 1.941 . S
O162 C169 1.266 . S
H163 C165 0.959 . S
H164 C165 0.961 . S
C165 C155 1.510 . S
C165 H163 0.959 . S
C165 H164 0.961 . S
C165 H166 0.960 . S
H166 C165 0.960 . S
H167 N147 0.862 . S
O168 Co136 1.920 . S
O168 C141 1.289 . S
C169 O161 1.258 . S
C169 O162 1.266 . S
Co170 O173 1.970 . S
Co170 N187 1.989 . S
Co170 O195 1.967 . S
Co170 O202 1.920 . S
Co171 O174 1.966 . S
Co171 N180 2.022 . S
Co171 N188 1.993 . S
Co171 O196 1.941 . S
C172 O173 1.258 . S
C172 O174 1.263 . S
O173 Co170 1.970 . S
O173 C172 1.258 . S
O174 Co171 1.966 . S
O174 C172 1.263 . S
C175 O176 1.235 . S
C175 O202 1.289 . S
O176 C175 1.235 . S
C177 C179 1.400 1_455 S
C177 N180 1.351 . S
C177 C182 1.501 . S
C178 C179 1.387 . S
C178 N181 1.341 . S
C179 C177 1.400 1_655 S
C179 C178 1.387 . S
N180 Co171 2.022 . S
N180 C177 1.351 . S
N180 N181 1.365 1_455 S
N181 C178 1.341 . S
N181 N180 1.365 1_655 S
N181 H201 0.862 . S
C182 C177 1.501 . S
C182 H183 0.961 . S
C182 H184 0.961 . S
C182 H185 0.960 . S
H183 C182 0.961 . S
H184 C182 0.961 . S
H185 C182 0.960 . S
C186 N187 1.342 . S
C186 C190 1.401 . S
C186 C191 1.499 . S
N187 Co170 1.989 . S
N187 C186 1.342 . S
N187 N188 1.388 . S
N188 Co171 1.993 . S
N188 N187 1.388 . S
N188 C189 1.346 . S
C189 N188 1.346 . S
C189 C190 1.396 . S
C189 C199 1.510 . S
C190 C186 1.401 . S
C190 C189 1.396 . S
C191 C186 1.499 . S
C191 H192 0.959 . S
C191 H193 0.960 . S
C191 H194 0.961 . S
H192 C191 0.959 . S
H193 C191 0.960 . S
H194 C191 0.961 . S
O195 Co170 1.967 . S
O195 C203 1.258 . S
O196 Co171 1.941 . S
O196 C203 1.266 . S
H197 C199 0.955 1_655 S
H198 C199 0.961 . S
C199 C189 1.510 . S
C199 H197 0.955 1_455 S
C199 H198 0.961 . S
C199 H200 0.960 . S
H200 C199 0.960 . S
H201 N181 0.862 . S
O202 Co170 1.920 . S
O202 C175 1.289 . S
C203 O195 1.258 . S
C203 O196 1.266 . S
Co204 O207 1.970 . S
Co204 N221 1.989 . S
Co204 O229 1.967 . S
Co204 O236 1.920 . S
Co205 O208 1.966 . S
Co205 N214 2.022 . S
Co205 N222 1.993 . S
Co205 O230 1.941 . S
C206 O207 1.258 . S
C206 O208 1.263 . S
O207 Co204 1.970 . S
O207 C206 1.258 . S
O208 Co205 1.966 . S
O208 C206 1.263 . S
C209 O210 1.235 . S
C209 O236 1.289 . S
O210 C209 1.235 . S
C211 C213 1.400 1_545 S
C211 N214 1.351 . S
C211 C216 1.501 . S
C212 C213 1.387 . S
C212 N215 1.341 . S
C213 C211 1.400 1_565 S
C213 C212 1.387 . S
N214 Co205 2.022 . S
N214 C211 1.351 . S
N214 N215 1.365 1_545 S
N215 C212 1.341 . S
N215 N214 1.365 1_565 S
N215 H235 0.862 . S
C216 C211 1.501 . S
C216 H217 0.961 . S
C216 H218 0.961 . S
C216 H219 0.960 . S
H217 C216 0.961 . S
H218 C216 0.961 . S
H219 C216 0.960 . S
C220 N221 1.342 . S
C220 C224 1.401 . S
C220 C225 1.499 . S
N221 Co204 1.989 . S
N221 C220 1.342 . S
N221 N222 1.388 . S
N222 Co205 1.993 . S
N222 N221 1.388 . S
N222 C223 1.346 . S
C223 N222 1.346 . S
C223 C224 1.396 . S
C223 C233 1.510 . S
C224 C220 1.401 . S
C224 C223 1.396 . S
C225 C220 1.499 . S
C225 H226 0.959 . S
C225 H227 0.960 . S
C225 H228 0.961 . S
H226 C225 0.959 . S
H227 C225 0.960 . S
H228 C225 0.961 . S
O229 Co204 1.967 . S
O229 C237 1.258 . S
O230 Co205 1.941 . S
O230 C237 1.266 . S
H231 C233 0.955 1_565 S
H232 C233 0.961 . S
C233 C223 1.510 . S
C233 H231 0.955 1_545 S
C233 H232 0.961 . S
C233 H234 0.960 . S
H234 C233 0.960 . S
H235 N215 0.862 . S
O236 Co204 1.920 . S
O236 C209 1.289 . S
C237 O229 1.258 . S
C237 O230 1.266 . S
Co238 O241 1.970 . S
Co238 N255 1.989 . S
Co238 O263 1.967 . S
Co238 O270 1.920 . S
Co239 O242 1.966 . S
Co239 N248 2.022 . S
Co239 N256 1.993 . S
Co239 O264 1.941 . S
C240 O241 1.258 . S
C240 O242 1.263 . S
O241 Co238 1.970 . S
O241 C240 1.258 . S
O242 Co239 1.966 . S
O242 C240 1.263 . S
C243 O244 1.235 . S
C243 O270 1.289 . S
O244 C243 1.235 . S
C245 C247 1.400 . S
C245 N248 1.351 . S
C245 C250 1.501 . S
C246 C247 1.387 . S
C246 N249 1.341 . S
C247 C245 1.400 . S
C247 C246 1.387 . S
N248 Co239 2.022 . S
N248 C245 1.351 . S
N248 N249 1.365 . S
N249 C246 1.341 . S
N249 N248 1.365 . S
N249 H269 0.862 . S
C250 C245 1.501 . S
C250 H251 0.961 . S
C250 H252 0.961 . S
C250 H253 0.960 . S
H251 C250 0.961 . S
H252 C250 0.961 . S
H253 C250 0.960 . S
C254 N255 1.342 . S
C254 C258 1.401 . S
C254 C259 1.499 . S
N255 Co238 1.989 . S
N255 C254 1.342 . S
N255 N256 1.388 . S
N256 Co239 1.993 . S
N256 N255 1.388 . S
N256 C257 1.346 . S
C257 N256 1.346 . S
C257 C258 1.396 . S
C257 C267 1.510 . S
C258 C254 1.401 . S
C258 C257 1.396 . S
C259 C254 1.499 . S
C259 H260 0.959 . S
C259 H261 0.960 . S
C259 H262 0.961 . S
H260 C259 0.959 . S
H261 C259 0.960 . S
H262 C259 0.961 . S
O263 Co238 1.967 . S
O263 C271 1.258 . S
O264 Co239 1.941 . S
O264 C271 1.266 . S
H265 C267 0.959 . S
H266 C267 0.961 . S
C267 C257 1.510 . S
C267 H265 0.959 . S
C267 H266 0.961 . S
C267 H268 0.960 . S
H268 C267 0.960 . S
H269 N249 0.862 . S
O270 Co238 1.920 . S
O270 C243 1.289 . S
C271 O263 1.258 . S
C271 O264 1.266 . S
Co272 O275 1.970 . S
Co272 N289 1.989 . S
Co272 O297 1.967 . S
Co272 O304 1.920 . S
Co273 O276 1.966 . S
Co273 N282 2.022 . S
Co273 N290 1.993 . S
Co273 O298 1.941 . S
C274 O275 1.258 . S
C274 O276 1.263 . S
O275 Co272 1.970 . S
O275 C274 1.258 . S
O276 Co273 1.966 . S
O276 C274 1.263 . S
C277 O278 1.235 . S
C277 O304 1.289 . S
O278 C277 1.235 . S
C279 C281 1.400 1_565 S
C279 N282 1.351 . S
C279 C284 1.501 . S
C280 C281 1.387 . S
C280 N283 1.341 . S
C281 C279 1.400 1_545 S
C281 C280 1.387 . S
N282 Co273 2.022 . S
N282 C279 1.351 . S
N282 N283 1.365 1_565 S
N283 C280 1.341 . S
N283 N282 1.365 1_545 S
N283 H303 0.862 . S
C284 C279 1.501 . S
C284 H285 0.961 . S
C284 H286 0.961 . S
C284 H287 0.960 . S
H285 C284 0.961 . S
H286 C284 0.961 . S
H287 C284 0.960 . S
C288 N289 1.342 . S
C288 C292 1.401 . S
C288 C293 1.499 . S
N289 Co272 1.989 . S
N289 C288 1.342 . S
N289 N290 1.388 . S
N290 Co273 1.993 . S
N290 N289 1.388 . S
N290 C291 1.346 . S
C291 N290 1.346 . S
C291 C292 1.396 . S
C291 C301 1.510 . S
C292 C288 1.401 . S
C292 C291 1.396 . S
C293 C288 1.499 . S
C293 H294 0.959 . S
C293 H295 0.960 . S
C293 H296 0.961 . S
H294 C293 0.959 . S
H295 C293 0.960 . S
H296 C293 0.961 . S
O297 Co272 1.967 . S
O297 C305 1.258 . S
O298 Co273 1.941 . S
O298 C305 1.266 . S
H299 C301 0.955 1_545 S
H300 C301 0.961 . S
C301 C291 1.510 . S
C301 H299 0.955 1_565 S
C301 H300 0.961 . S
C301 H302 0.960 . S
H302 C301 0.960 . S
H303 N283 0.862 . S
O304 Co272 1.920 . S
O304 C277 1.289 . S
C305 O297 1.258 . S
C305 O298 1.266 . S
Co306 O309 1.970 . S
Co306 N323 1.989 . S
Co306 O331 1.967 . S
Co306 O338 1.920 . S
Co307 O310 1.966 . S
Co307 N316 2.022 . S
Co307 N324 1.993 . S
Co307 O332 1.941 . S
C308 O309 1.258 . S
C308 O310 1.263 . S
O309 Co306 1.970 . S
O309 C308 1.258 . S
O310 Co307 1.966 . S
O310 C308 1.263 . S
C311 O312 1.235 . S
C311 O338 1.289 . S
O312 C311 1.235 . S
C313 C315 1.400 . S
C313 N316 1.351 . S
C313 C318 1.501 . S
C314 C315 1.387 . S
C314 N317 1.341 . S
C315 C313 1.400 . S
C315 C314 1.387 . S
N316 Co307 2.022 . S
N316 C313 1.351 . S
N316 N317 1.365 . S
N317 C314 1.341 . S
N317 N316 1.365 . S
N317 H337 0.862 . S
C318 C313 1.501 . S
C318 H319 0.961 . S
C318 H320 0.961 . S
C318 H321 0.960 . S
H319 C318 0.961 . S
H320 C318 0.961 . S
H321 C318 0.960 . S
C322 N323 1.342 . S
C322 C326 1.401 . S
C322 C327 1.499 . S
N323 Co306 1.989 . S
N323 C322 1.342 . S
N323 N324 1.388 . S
N324 Co307 1.993 . S
N324 N323 1.388 . S
N324 C325 1.346 . S
C325 N324 1.346 . S
C325 C326 1.396 . S
C325 C335 1.510 . S
C326 C322 1.401 . S
C326 C325 1.396 . S
C327 C322 1.499 . S
C327 H328 0.959 . S
C327 H329 0.960 . S
C327 H330 0.961 . S
H328 C327 0.959 . S
H329 C327 0.960 . S
H330 C327 0.961 . S
O331 Co306 1.967 . S
O331 C339 1.258 . S
O332 Co307 1.941 . S
O332 C339 1.266 . S
H333 C335 0.959 . S
H334 C335 0.961 . S
C335 C325 1.510 . S
C335 H333 0.959 . S
C335 H334 0.961 . S
C335 H336 0.960 . S
H336 C335 0.960 . S
H337 N317 0.862 . S
O338 Co306 1.920 . S
O338 C311 1.289 . S
C339 O331 1.258 . S
C339 O332 1.266 . S
Co340 O343 1.970 . S
Co340 N357 1.989 . S
Co340 O365 1.967 . S
Co340 O372 1.920 . S
Co341 O344 1.966 . S
Co341 N350 2.022 . S
Co341 N358 1.993 . S
Co341 O366 1.941 . S
C342 O343 1.258 . S
C342 O344 1.263 . S
O343 Co340 1.970 . S
O343 C342 1.258 . S
O344 Co341 1.966 . S
O344 C342 1.263 . S
C345 O346 1.235 . S
C345 O372 1.289 . S
O346 C345 1.235 . S
C347 C349 1.400 . S
C347 N350 1.351 . S
C347 C352 1.501 . S
C348 C349 1.387 . S
C348 N351 1.341 . S
C349 C347 1.400 . S
C349 C348 1.387 . S
N350 Co341 2.022 . S
N350 C347 1.351 . S
N350 N351 1.365 . S
N351 C348 1.341 . S
N351 N350 1.365 . S
N351 H371 0.862 . S
C352 C347 1.501 . S
C352 H353 0.961 . S
C352 H354 0.961 . S
C352 H355 0.960 . S
H353 C352 0.961 . S
H354 C352 0.961 . S
H355 C352 0.960 . S
C356 N357 1.342 . S
C356 C360 1.401 . S
C356 C361 1.499 . S
N357 Co340 1.989 . S
N357 C356 1.342 . S
N357 N358 1.388 . S
N358 Co341 1.993 . S
N358 N357 1.388 . S
N358 C359 1.346 . S
C359 N358 1.346 . S
C359 C360 1.396 . S
C359 C369 1.510 . S
C360 C356 1.401 . S
C360 C359 1.396 . S
C361 C356 1.499 . S
C361 H362 0.959 . S
C361 H363 0.960 . S
C361 H364 0.961 . S
H362 C361 0.959 . S
H363 C361 0.960 . S
H364 C361 0.961 . S
O365 Co340 1.967 . S
O365 C373 1.258 . S
O366 Co341 1.941 . S
O366 C373 1.266 . S
H367 C369 0.959 . S
H368 C369 0.961 . S
C369 C359 1.510 . S
C369 H367 0.959 . S
C369 H368 0.961 . S
C369 H370 0.960 . S
H370 C369 0.960 . S
H371 N351 0.862 . S
O372 Co340 1.920 . S
O372 C345 1.289 . S
C373 O365 1.258 . S
C373 O366 1.266 . S
Co374 O377 1.970 . S
Co374 N391 1.989 . S
Co374 O399 1.967 . S
Co374 O406 1.920 . S
Co375 O378 1.966 . S
Co375 N384 2.022 . S
Co375 N392 1.993 . S
Co375 O400 1.941 . S
C376 O377 1.258 . S
C376 O378 1.263 . S
O377 Co374 1.970 . S
O377 C376 1.258 . S
O378 Co375 1.966 . S
O378 C376 1.263 . S
C379 O380 1.235 . S
C379 O406 1.289 . S
O380 C379 1.235 . S
C381 C383 1.400 1_655 S
C381 N384 1.351 . S
C381 C386 1.501 . S
C382 C383 1.387 . S
C382 N385 1.341 . S
C383 C381 1.400 1_455 S
C383 C382 1.387 . S
N384 Co375 2.022 . S
N384 C381 1.351 . S
N384 N385 1.365 1_655 S
N385 C382 1.341 . S
N385 N384 1.365 1_455 S
N385 H405 0.862 . S
C386 C381 1.501 . S
C386 H387 0.961 . S
C386 H388 0.961 . S
C386 H389 0.960 . S
H387 C386 0.961 . S
H388 C386 0.961 . S
H389 C386 0.960 . S
C390 N391 1.342 . S
C390 C394 1.401 . S
C390 C395 1.499 . S
N391 Co374 1.989 . S
N391 C390 1.342 . S
N391 N392 1.388 . S
N392 Co375 1.993 . S
N392 N391 1.388 . S
N392 C393 1.346 . S
C393 N392 1.346 . S
C393 C394 1.396 . S
C393 C403 1.510 . S
C394 C390 1.401 . S
C394 C393 1.396 . S
C395 C390 1.499 . S
C395 H396 0.959 . S
C395 H397 0.960 . S
C395 H398 0.961 . S
H396 C395 0.959 . S
H397 C395 0.960 . S
H398 C395 0.961 . S
O399 Co374 1.967 . S
O399 C407 1.258 . S
O400 Co375 1.941 . S
O400 C407 1.266 . S
H401 C403 0.955 1_455 S
H402 C403 0.961 . S
C403 C393 1.510 . S
C403 H401 0.955 1_655 S
C403 H402 0.961 . S
C403 H404 0.960 . S
H404 C403 0.960 . S
H405 N385 0.862 . S
O406 Co374 1.920 . S
O406 C379 1.289 . S
C407 O399 1.258 . S
C407 O400 1.266 . S
Co408 O411 1.970 . S
Co408 N425 1.989 . S
Co408 O433 1.967 . S
Co408 O440 1.920 . S
Co409 O412 1.966 . S
Co409 N418 2.022 . S
Co409 N426 1.993 . S
Co409 O434 1.941 . S
C410 O411 1.258 . S
C410 O412 1.263 . S
O411 Co408 1.970 . S
O411 C410 1.258 . S
O412 Co409 1.966 . S
O412 C410 1.263 . S
C413 O414 1.235 . S
C413 O440 1.289 . S
O414 C413 1.235 . S
C415 C417 1.400 . S
C415 N418 1.351 . S
C415 C420 1.501 . S
C416 C417 1.387 . S
C416 N419 1.341 . S
C417 C415 1.400 . S
C417 C416 1.387 . S
N418 Co409 2.022 . S
N418 C415 1.351 . S
N418 N419 1.365 . S
N419 C416 1.341 . S
N419 N418 1.365 . S
N419 H439 0.862 . S
C420 C415 1.501 . S
C420 H421 0.961 . S
C420 H422 0.961 . S
C420 H423 0.960 . S
H421 C420 0.961 . S
H422 C420 0.961 . S
H423 C420 0.960 . S
C424 N425 1.342 . S
C424 C428 1.401 . S
C424 C429 1.499 . S
N425 Co408 1.989 . S
N425 C424 1.342 . S
N425 N426 1.388 . S
N426 Co409 1.993 . S
N426 N425 1.388 . S
N426 C427 1.346 . S
C427 N426 1.346 . S
C427 C428 1.396 . S
C427 C437 1.510 . S
C428 C424 1.401 . S
C428 C427 1.396 . S
C429 C424 1.499 . S
C429 H430 0.959 . S
C429 H431 0.960 . S
C429 H432 0.961 . S
H430 C429 0.959 . S
H431 C429 0.960 . S
H432 C429 0.961 . S
O433 Co408 1.967 . S
O433 C441 1.258 . S
O434 Co409 1.941 . S
O434 C441 1.266 . S
H435 C437 0.959 . S
H436 C437 0.961 . S
C437 C427 1.510 . S
C437 H435 0.959 . S
C437 H436 0.961 . S
C437 H438 0.960 . S
H438 C437 0.960 . S
H439 N419 0.862 . S
O440 Co408 1.920 . S
O440 C413 1.289 . S
C441 O433 1.258 . S
C441 O434 1.266 . S
Co442 O445 1.970 . S
Co442 N459 1.989 . S
Co442 O467 1.967 . S
Co442 O474 1.920 . S
Co443 O446 1.966 . S
Co443 N452 2.022 . S
Co443 N460 1.993 . S
Co443 O468 1.941 . S
C444 O445 1.258 . S
C444 O446 1.263 . S
O445 Co442 1.970 . S
O445 C444 1.258 . S
O446 Co443 1.966 . S
O446 C444 1.263 . S
C447 O448 1.235 . S
C447 O474 1.289 . S
O448 C447 1.235 . S
C449 C451 1.400 1_655 S
C449 N452 1.351 . S
C449 C454 1.501 . S
C450 C451 1.387 . S
C450 N453 1.341 . S
C451 C449 1.400 1_455 S
C451 C450 1.387 . S
N452 Co443 2.022 . S
N452 C449 1.351 . S
N452 N453 1.365 1_655 S
N453 C450 1.341 . S
N453 N452 1.365 1_455 S
N453 H473 0.862 . S
C454 C449 1.501 . S
C454 H455 0.961 . S
C454 H456 0.961 . S
C454 H457 0.960 . S
H455 C454 0.961 . S
H456 C454 0.961 . S
H457 C454 0.960 . S
C458 N459 1.342 . S
C458 C462 1.401 . S
C458 C463 1.499 . S
N459 Co442 1.989 . S
N459 C458 1.342 . S
N459 N460 1.388 . S
N460 Co443 1.993 . S
N460 N459 1.388 . S
N460 C461 1.346 . S
C461 N460 1.346 . S
C461 C462 1.396 . S
C461 C471 1.510 . S
C462 C458 1.401 . S
C462 C461 1.396 . S
C463 C458 1.499 . S
C463 H464 0.959 . S
C463 H465 0.960 . S
C463 H466 0.961 . S
H464 C463 0.959 . S
H465 C463 0.960 . S
H466 C463 0.961 . S
O467 Co442 1.967 . S
O467 C475 1.258 . S
O468 Co443 1.941 . S
O468 C475 1.266 . S
H469 C471 0.955 1_455 S
H470 C471 0.961 . S
C471 C461 1.510 . S
C471 H469 0.955 1_655 S
C471 H470 0.961 . S
C471 H472 0.960 . S
H472 C471 0.960 . S
H473 N453 0.862 . S
O474 Co442 1.920 . S
O474 C447 1.289 . S
C475 O467 1.258 . S
C475 O468 1.266 . S
Co476 O479 1.970 . S
Co476 N493 1.989 . S
Co476 O501 1.967 . S
Co476 O508 1.920 . S
Co477 O480 1.966 . S
Co477 N486 2.022 . S
Co477 N494 1.993 . S
Co477 O502 1.941 . S
C478 O479 1.258 . S
C478 O480 1.263 . S
O479 Co476 1.970 . S
O479 C478 1.258 . S
O480 Co477 1.966 . S
O480 C478 1.263 . S
C481 O482 1.235 . S
C481 O508 1.289 . S
O482 C481 1.235 . S
C483 C485 1.400 1_565 S
C483 N486 1.351 . S
C483 C488 1.501 . S
C484 C485 1.387 . S
C484 N487 1.341 . S
C485 C483 1.400 1_545 S
C485 C484 1.387 . S
N486 Co477 2.022 . S
N486 C483 1.351 . S
N486 N487 1.365 1_565 S
N487 C484 1.341 . S
N487 N486 1.365 1_545 S
N487 H507 0.862 . S
C488 C483 1.501 . S
C488 H489 0.961 . S
C488 H490 0.961 . S
C488 H491 0.960 . S
H489 C488 0.961 . S
H490 C488 0.961 . S
H491 C488 0.960 . S
C492 N493 1.342 . S
C492 C496 1.401 . S
C492 C497 1.499 . S
N493 Co476 1.989 . S
N493 C492 1.342 . S
N493 N494 1.388 . S
N494 Co477 1.993 . S
N494 N493 1.388 . S
N494 C495 1.346 . S
C495 N494 1.346 . S
C495 C496 1.396 . S
C495 C505 1.510 . S
C496 C492 1.401 . S
C496 C495 1.396 . S
C497 C492 1.499 . S
C497 H498 0.959 . S
C497 H499 0.960 . S
C497 H500 0.961 . S
H498 C497 0.959 . S
H499 C497 0.960 . S
H500 C497 0.961 . S
O501 Co476 1.967 . S
O501 C509 1.258 . S
O502 Co477 1.941 . S
O502 C509 1.266 . S
H503 C505 0.955 1_545 S
H504 C505 0.961 . S
C505 C495 1.510 . S
C505 H503 0.955 1_565 S
C505 H504 0.961 . S
C505 H506 0.960 . S
H506 C505 0.960 . S
H507 N487 0.862 . S
O508 Co476 1.920 . S
O508 C481 1.289 . S
C509 O501 1.258 . S
C509 O502 1.266 . S
Co510 O513 1.970 . S
Co510 N527 1.989 . S
Co510 O535 1.967 . S
Co510 O542 1.920 . S
Co511 O514 1.966 . S
Co511 N520 2.022 . S
Co511 N528 1.993 . S
Co511 O536 1.941 . S
C512 O513 1.258 . S
C512 O514 1.263 . S
O513 Co510 1.970 . S
O513 C512 1.258 . S
O514 Co511 1.966 . S
O514 C512 1.263 . S
C515 O516 1.235 . S
C515 O542 1.289 . S
O516 C515 1.235 . S
C517 C519 1.400 . S
C517 N520 1.351 . S
C517 C522 1.501 . S
C518 C519 1.387 . S
C518 N521 1.341 . S
C519 C517 1.400 . S
C519 C518 1.387 . S
N520 Co511 2.022 . S
N520 C517 1.351 . S
N520 N521 1.365 . S
N521 C518 1.341 . S
N521 N520 1.365 . S
N521 H541 0.862 . S
C522 C517 1.501 . S
C522 H523 0.961 . S
C522 H524 0.961 . S
C522 H525 0.960 . S
H523 C522 0.961 . S
H524 C522 0.961 . S
H525 C522 0.960 . S
C526 N527 1.342 . S
C526 C530 1.401 . S
C526 C531 1.499 . S
N527 Co510 1.989 . S
N527 C526 1.342 . S
N527 N528 1.388 . S
N528 Co511 1.993 . S
N528 N527 1.388 . S
N528 C529 1.346 . S
C529 N528 1.346 . S
C529 C530 1.396 . S
C529 C539 1.510 . S
C530 C526 1.401 . S
C530 C529 1.396 . S
C531 C526 1.499 . S
C531 H532 0.959 . S
C531 H533 0.960 . S
C531 H534 0.961 . S
H532 C531 0.959 . S
H533 C531 0.960 . S
H534 C531 0.961 . S
O535 Co510 1.967 . S
O535 C543 1.258 . S
O536 Co511 1.941 . S
O536 C543 1.266 . S
H537 C539 0.959 . S
H538 C539 0.961 . S
C539 C529 1.510 . S
C539 H537 0.959 . S
C539 H538 0.961 . S
C539 H540 0.960 . S
H540 C539 0.960 . S
H541 N521 0.862 . S
O542 Co510 1.920 . S
O542 C515 1.289 . S
C543 O535 1.258 . S
C543 O536 1.266 . S
H544 C562 0.951 . S
H545 C564 0.951 . S
H546 C566 0.950 . S
H547 C567 0.950 . S
H548 C569 0.950 . S
H549 C572 0.950 . S
H550 C573 0.950 . S
H551 C575 0.950 . S
H552 C576 0.950 . S
H553 C577 0.951 . S
H554 C579 0.951 . S
H555 C581 0.950 . S
H556 C582 0.950 . S
H557 C584 0.950 . S
H558 C587 0.950 . S
H559 C588 0.950 . S
H560 C590 0.950 . S
H561 C591 0.950 . S
C562 H544 0.951 . S
C562 C563 1.366 . S
C562 C564 1.388 . S
C563 C562 1.366 . S
C563 C567 1.385 . S
C564 H545 0.951 . S
C564 C562 1.388 . S
C564 C565 1.366 . S
C565 C564 1.366 . S
C565 C566 1.414 . S
C565 C568 1.499 . S
C566 H546 0.950 . S
C566 C565 1.414 . S
C566 C567 1.374 . S
C567 H547 0.950 . S
C567 C563 1.385 . S
C567 C566 1.374 . S
C568 C565 1.499 . S
C568 C569 1.373 . S
C568 C570 1.389 . S
C569 H548 0.950 . S
C569 C568 1.373 . S
C569 C585 1.377 . S
C570 C568 1.389 . S
C570 C571 1.524 . S
C570 C584 1.377 . S
C571 C570 1.524 . S
C571 C572 1.397 . S
C571 C576 1.363 . S
C572 H549 0.950 . S
C572 C571 1.397 . S
C572 C573 1.334 . S
C573 H550 0.950 . S
C573 C572 1.334 . S
C573 C574 1.287 . S
C574 C573 1.287 . S
C574 C575 1.524 . S
C574 H593 0.913 . S
C575 H551 0.950 . S
C575 C574 1.524 . S
C575 C576 1.415 . S
C576 H552 0.950 . S
C576 C571 1.363 . S
C576 C575 1.415 . S
C577 H553 0.951 . S
C577 C578 1.366 . S
C577 C579 1.388 . S
C578 C577 1.366 . S
C578 C582 1.385 . S
C579 H554 0.951 . S
C579 C577 1.388 . S
C579 C580 1.366 . S
C580 C579 1.366 . S
C580 C581 1.414 . S
C580 C583 1.499 . S
C581 H555 0.950 . S
C581 C580 1.414 . S
C581 C582 1.374 . S
C582 H556 0.950 . S
C582 C578 1.385 . S
C582 C581 1.374 . S
C583 C580 1.499 . S
C583 C584 1.373 . S
C583 C585 1.389 . S
C584 H557 0.950 . S
C584 C570 1.377 . S
C584 C583 1.373 . S
C585 C569 1.377 . S
C585 C583 1.389 . S
C585 C586 1.524 . S
C586 C585 1.524 . S
C586 C587 1.397 . S
C586 C591 1.363 . S
C587 H558 0.950 . S
C587 C586 1.397 . S
C587 C588 1.334 . S
C588 H559 0.950 . S
C588 C587 1.334 . S
C588 C589 1.287 . S
C589 C588 1.287 . S
C589 C590 1.524 . S
C589 H592 0.999 . S
C590 H560 0.950 . S
C590 C589 1.524 . S
C590 C591 1.415 . S
C591 H561 0.950 . S
C591 C586 1.363 . S
C591 C590 1.415 . S
H592 C589 0.999 . S
H593 C574 0.913 . S
H594 C612 0.951 . S
H595 C614 0.951 . S
H596 C616 0.950 . S
H597 C617 0.950 . S
H598 C619 0.950 . S
H599 C622 0.950 . S
H600 C623 0.950 . S
H601 C625 0.950 . S
H602 C626 0.950 . S
H603 C627 0.951 . S
H604 C629 0.951 . S
H605 C631 0.950 . S
H606 C632 0.950 . S
H607 C634 0.950 . S
H608 C637 0.950 . S
H609 C638 0.950 . S
H610 C640 0.950 . S
H611 C641 0.950 . S
C612 H594 0.951 . S
C612 C613 1.366 . S
C612 C614 1.388 . S
C613 C612 1.366 . S
C613 C617 1.385 . S
C614 H595 0.951 . S
C614 C612 1.388 . S
C614 C615 1.366 . S
C615 C614 1.366 . S
C615 C616 1.414 . S
C615 C618 1.499 . S
C616 H596 0.950 . S
C616 C615 1.414 . S
C616 C617 1.374 . S
C617 H597 0.950 . S
C617 C613 1.385 . S
C617 C616 1.374 . S
C618 C615 1.499 . S
C618 C619 1.373 . S
C618 C620 1.389 . S
C619 H598 0.950 . S
C619 C618 1.373 . S
C619 C635 1.377 . S
C620 C618 1.389 . S
C620 C621 1.524 . S
C620 C634 1.377 . S
C621 C620 1.524 . S
C621 C622 1.397 . S
C621 C626 1.363 . S
C622 H599 0.950 . S
C622 C621 1.397 . S
C622 C623 1.334 . S
C623 H600 0.950 . S
C623 C622 1.334 . S
C623 C624 1.287 . S
C624 C623 1.287 . S
C624 C625 1.524 . S
C624 H643 0.913 . S
C625 H601 0.950 . S
C625 C624 1.524 . S
C625 C626 1.415 . S
C626 H602 0.950 . S
C626 C621 1.363 . S
C626 C625 1.415 . S
C627 H603 0.951 . S
C627 C628 1.366 . S
C627 C629 1.388 . S
C628 C627 1.366 . S
C628 C632 1.385 . S
C629 H604 0.951 . S
C629 C627 1.388 . S
C629 C630 1.366 . S
C630 C629 1.366 . S
C630 C631 1.414 . S
C630 C633 1.499 . S
C631 H605 0.950 . S
C631 C630 1.414 . S
C631 C632 1.374 . S
C632 H606 0.950 . S
C632 C628 1.385 . S
C632 C631 1.374 . S
C633 C630 1.499 . S
C633 C634 1.373 . S
C633 C635 1.389 . S
C634 H607 0.950 . S
C634 C620 1.377 . S
C634 C633 1.373 . S
C635 C619 1.377 . S
C635 C633 1.389 . S
C635 C636 1.524 . S
C636 C635 1.524 . S
C636 C637 1.397 . S
C636 C641 1.363 . S
C637 H608 0.950 . S
C637 C636 1.397 . S
C637 C638 1.334 . S
C638 H609 0.950 . S
C638 C637 1.334 . S
C638 C639 1.287 . S
C639 C638 1.287 . S
C639 C640 1.524 . S
C639 H642 0.999 . S
C640 H610 0.950 . S
C640 C639 1.524 . S
C640 C641 1.415 . S
C641 H611 0.950 . S
C641 C636 1.363 . S
C641 C640 1.415 . S
H642 C639 0.999 . S
H643 C624 0.913 . S
H644 C662 0.951 . S
H645 C664 0.951 . S
H646 C666 0.950 . S
H647 C667 0.950 . S
H648 C669 0.950 . S
H649 C672 0.950 . S
H650 C673 0.950 . S
H651 C675 0.950 . S
H652 C676 0.950 . S
H653 C677 0.951 . S
H654 C679 0.951 . S
H655 C681 0.950 . S
H656 C682 0.950 . S
H657 C684 0.950 . S
H658 C687 0.950 . S
H659 C688 0.950 . S
H660 C690 0.950 . S
H661 C691 0.950 . S
C662 H644 0.951 . S
C662 C663 1.366 . S
C662 C664 1.388 . S
C663 C662 1.366 . S
C663 C667 1.385 . S
C664 H645 0.951 . S
C664 C662 1.388 . S
C664 C665 1.366 . S
C665 C664 1.366 . S
C665 C666 1.414 . S
C665 C668 1.499 . S
C666 H646 0.950 . S
C666 C665 1.414 . S
C666 C667 1.374 . S
C667 H647 0.950 . S
C667 C663 1.385 . S
C667 C666 1.374 . S
C668 C665 1.499 . S
C668 C669 1.373 . S
C668 C670 1.389 . S
C669 H648 0.950 . S
C669 C668 1.373 . S
C669 C685 1.377 . S
C670 C668 1.389 . S
C670 C671 1.524 . S
C670 C684 1.377 . S
C671 C670 1.524 . S
C671 C672 1.397 . S
C671 C676 1.363 . S
C672 H649 0.950 . S
C672 C671 1.397 . S
C672 C673 1.334 . S
C673 H650 0.950 . S
C673 C672 1.334 . S
C673 C674 1.287 . S
C674 C673 1.287 . S
C674 C675 1.524 . S
C674 H693 0.913 . S
C675 H651 0.950 . S
C675 C674 1.524 . S
C675 C676 1.415 . S
C676 H652 0.950 . S
C676 C671 1.363 . S
C676 C675 1.415 . S
C677 H653 0.951 . S
C677 C678 1.366 . S
C677 C679 1.388 . S
C678 C677 1.366 . S
C678 C682 1.385 . S
C679 H654 0.951 . S
C679 C677 1.388 . S
C679 C680 1.366 . S
C680 C679 1.366 . S
C680 C681 1.414 . S
C680 C683 1.499 . S
C681 H655 0.950 . S
C681 C680 1.414 . S
C681 C682 1.374 . S
C682 H656 0.950 . S
C682 C678 1.385 . S
C682 C681 1.374 . S
C683 C680 1.499 . S
C683 C684 1.373 . S
C683 C685 1.389 . S
C684 H657 0.950 . S
C684 C670 1.377 . S
C684 C683 1.373 . S
C685 C669 1.377 . S
C685 C683 1.389 . S
C685 C686 1.524 . S
C686 C685 1.524 . S
C686 C687 1.397 . S
C686 C691 1.363 . S
C687 H658 0.950 . S
C687 C686 1.397 . S
C687 C688 1.334 . S
C688 H659 0.950 . S
C688 C687 1.334 . S
C688 C689 1.287 . S
C689 C688 1.287 . S
C689 C690 1.524 . S
C689 H692 0.999 . S
C690 H660 0.950 . S
C690 C689 1.524 . S
C690 C691 1.415 . S
C691 H661 0.950 . S
C691 C686 1.363 . S
C691 C690 1.415 . S
H692 C689 0.999 . S
H693 C674 0.913 . S
H694 C712 0.951 . S
H695 C714 0.951 . S
H696 C716 0.950 . S
H697 C717 0.950 . S
H698 C719 0.950 . S
H699 C722 0.950 . S
H700 C723 0.950 . S
H701 C725 0.950 . S
H702 C726 0.950 . S
H703 C727 0.951 . S
H704 C729 0.951 . S
H705 C731 0.950 . S
H706 C732 0.950 . S
H707 C734 0.950 . S
H708 C737 0.950 . S
H709 C738 0.950 . S
H710 C740 0.950 . S
H711 C741 0.950 . S
C712 H694 0.951 . S
C712 C713 1.366 . S
C712 C714 1.388 . S
C713 C712 1.366 . S
C713 C717 1.385 . S
C714 H695 0.951 . S
C714 C712 1.388 . S
C714 C715 1.366 . S
C715 C714 1.366 . S
C715 C716 1.414 . S
C715 C718 1.499 . S
C716 H696 0.950 . S
C716 C715 1.414 . S
C716 C717 1.374 . S
C717 H697 0.950 . S
C717 C713 1.385 . S
C717 C716 1.374 . S
C718 C715 1.499 . S
C718 C719 1.373 . S
C718 C720 1.389 . S
C719 H698 0.950 . S
C719 C718 1.373 . S
C719 C735 1.377 . S
C720 C718 1.389 . S
C720 C721 1.524 . S
C720 C734 1.377 . S
C721 C720 1.524 . S
C721 C722 1.397 . S
C721 C726 1.363 . S
C722 H699 0.950 . S
C722 C721 1.397 . S
C722 C723 1.334 . S
C723 H700 0.950 . S
C723 C722 1.334 . S
C723 C724 1.287 . S
C724 C723 1.287 . S
C724 C725 1.524 . S
C724 H743 0.913 . S
C725 H701 0.950 . S
C725 C724 1.524 . S
C725 C726 1.415 . S
C726 H702 0.950 . S
C726 C721 1.363 . S
C726 C725 1.415 . S
C727 H703 0.951 . S
C727 C728 1.366 . S
C727 C729 1.388 . S
C728 C727 1.366 . S
C728 C732 1.385 . S
C729 H704 0.951 . S
C729 C727 1.388 . S
C729 C730 1.366 . S
C730 C729 1.366 . S
C730 C731 1.414 . S
C730 C733 1.499 . S
C731 H705 0.950 . S
C731 C730 1.414 . S
C731 C732 1.374 . S
C732 H706 0.950 . S
C732 C728 1.385 . S
C732 C731 1.374 . S
C733 C730 1.499 . S
C733 C734 1.373 . S
C733 C735 1.389 . S
C734 H707 0.950 . S
C734 C720 1.377 . S
C734 C733 1.373 . S
C735 C719 1.377 . S
C735 C733 1.389 . S
C735 C736 1.524 . S
C736 C735 1.524 . S
C736 C737 1.397 . S
C736 C741 1.363 . S
C737 H708 0.950 . S
C737 C736 1.397 . S
C737 C738 1.334 . S
C738 H709 0.950 . S
C738 C737 1.334 . S
C738 C739 1.287 . S
C739 C738 1.287 . S
C739 C740 1.524 . S
C739 H742 0.999 . S
C740 H710 0.950 . S
C740 C739 1.524 . S
C740 C741 1.415 . S
C741 H711 0.950 . S
C741 C736 1.363 . S
C741 C740 1.415 . S
H742 C739 0.999 . S
H743 C724 0.913 . S
H744 C762 0.951 . S
H745 C764 0.951 . S
H746 C766 0.950 . S
H747 C767 0.950 . S
H748 C769 0.950 . S
H749 C772 0.950 . S
H750 C773 0.950 . S
H751 C775 0.950 . S
H752 C776 0.950 . S
H753 C777 0.951 . S
H754 C779 0.951 . S
H755 C781 0.950 . S
H756 C782 0.950 . S
H757 C784 0.950 . S
H758 C787 0.950 . S
H759 C788 0.950 . S
H760 C790 0.950 . S
H761 C791 0.950 . S
C762 H744 0.951 . S
C762 C763 1.366 . S
C762 C764 1.388 . S
C763 C762 1.366 . S
C763 C767 1.385 . S
C764 H745 0.951 . S
C764 C762 1.388 . S
C764 C765 1.366 . S
C765 C764 1.366 . S
C765 C766 1.414 . S
C765 C768 1.499 . S
C766 H746 0.950 . S
C766 C765 1.414 . S
C766 C767 1.374 . S
C767 H747 0.950 . S
C767 C763 1.385 . S
C767 C766 1.374 . S
C768 C765 1.499 . S
C768 C769 1.373 . S
C768 C770 1.389 . S
C769 H748 0.950 . S
C769 C768 1.373 . S
C769 C785 1.377 . S
C770 C768 1.389 . S
C770 C771 1.524 . S
C770 C784 1.377 . S
C771 C770 1.524 . S
C771 C772 1.397 . S
C771 C776 1.363 . S
C772 H749 0.950 . S
C772 C771 1.397 . S
C772 C773 1.334 . S
C773 H750 0.950 . S
C773 C772 1.334 . S
C773 C774 1.287 . S
C774 C773 1.287 . S
C774 C775 1.524 . S
C774 H793 0.913 . S
C775 H751 0.950 . S
C775 C774 1.524 . S
C775 C776 1.415 . S
C776 H752 0.950 . S
C776 C771 1.363 . S
C776 C775 1.415 . S
C777 H753 0.951 . S
C777 C778 1.366 . S
C777 C779 1.388 . S
C778 C777 1.366 . S
C778 C782 1.385 . S
C779 H754 0.951 . S
C779 C777 1.388 . S
C779 C780 1.366 . S
C780 C779 1.366 . S
C780 C781 1.414 . S
C780 C783 1.499 . S
C781 H755 0.950 . S
C781 C780 1.414 . S
C781 C782 1.374 . S
C782 H756 0.950 . S
C782 C778 1.385 . S
C782 C781 1.374 . S
C783 C780 1.499 . S
C783 C784 1.373 . S
C783 C785 1.389 . S
C784 H757 0.950 . S
C784 C770 1.377 . S
C784 C783 1.373 . S
C785 C769 1.377 . S
C785 C783 1.389 . S
C785 C786 1.524 . S
C786 C785 1.524 . S
C786 C787 1.397 . S
C786 C791 1.363 . S
C787 H758 0.950 . S
C787 C786 1.397 . S
C787 C788 1.334 . S
C788 H759 0.950 . S
C788 C787 1.334 . S
C788 C789 1.287 . S
C789 C788 1.287 . S
C789 C790 1.524 . S
C789 H792 0.999 . S
C790 H760 0.950 . S
C790 C789 1.524 . S
C790 C791 1.415 . S
C791 H761 0.950 . S
C791 C786 1.363 . S
C791 C790 1.415 . S
H792 C789 0.999 . S
H793 C774 0.913 . S
H794 C812 0.951 . S
H795 C814 0.951 . S
H796 C816 0.950 . S
H797 C817 0.950 . S
H798 C819 0.950 . S
H799 C822 0.950 . S
H800 C823 0.950 . S
H801 C825 0.950 . S
H802 C826 0.950 . S
H803 C827 0.951 . S
H804 C829 0.951 . S
H805 C831 0.950 . S
H806 C832 0.950 . S
H807 C834 0.950 . S
H808 C837 0.950 . S
H809 C838 0.950 . S
H810 C840 0.950 . S
H811 C841 0.950 . S
C812 H794 0.951 . S
C812 C813 1.366 . S
C812 C814 1.388 . S
C813 C812 1.366 . S
C813 C817 1.385 . S
C814 H795 0.951 . S
C814 C812 1.388 . S
C814 C815 1.366 . S
C815 C814 1.366 . S
C815 C816 1.414 . S
C815 C818 1.499 . S
C816 H796 0.950 . S
C816 C815 1.414 . S
C816 C817 1.374 . S
C817 H797 0.950 . S
C817 C813 1.385 . S
C817 C816 1.374 . S
C818 C815 1.499 . S
C818 C819 1.373 . S
C818 C820 1.389 . S
C819 H798 0.950 . S
C819 C818 1.373 . S
C819 C835 1.377 . S
C820 C818 1.389 . S
C820 C821 1.524 . S
C820 C834 1.377 . S
C821 C820 1.524 . S
C821 C822 1.397 . S
C821 C826 1.363 . S
C822 H799 0.950 . S
C822 C821 1.397 . S
C822 C823 1.334 . S
C823 H800 0.950 . S
C823 C822 1.334 . S
C823 C824 1.287 . S
C824 C823 1.287 . S
C824 C825 1.524 . S
C824 H843 0.913 . S
C825 H801 0.950 . S
C825 C824 1.524 . S
C825 C826 1.415 . S
C826 H802 0.950 . S
C826 C821 1.363 . S
C826 C825 1.415 . S
C827 H803 0.951 . S
C827 C828 1.366 . S
C827 C829 1.388 . S
C828 C827 1.366 . S
C828 C832 1.385 . S
C829 H804 0.951 . S
C829 C827 1.388 . S
C829 C830 1.366 . S
C830 C829 1.366 . S
C830 C831 1.414 . S
C830 C833 1.499 . S
C831 H805 0.950 . S
C831 C830 1.414 . S
C831 C832 1.374 . S
C832 H806 0.950 . S
C832 C828 1.385 . S
C832 C831 1.374 . S
C833 C830 1.499 . S
C833 C834 1.373 . S
C833 C835 1.389 . S
C834 H807 0.950 . S
C834 C820 1.377 . S
C834 C833 1.373 . S
C835 C819 1.377 . S
C835 C833 1.389 . S
C835 C836 1.524 . S
C836 C835 1.524 . S
C836 C837 1.397 . S
C836 C841 1.363 . S
C837 H808 0.950 . S
C837 C836 1.397 . S
C837 C838 1.334 . S
C838 H809 0.950 . S
C838 C837 1.334 . S
C838 C839 1.287 . S
C839 C838 1.287 . S
C839 C840 1.524 . S
C839 H842 0.999 . S
C840 H810 0.950 . S
C840 C839 1.524 . S
C840 C841 1.415 . S
C841 H811 0.950 . S
C841 C836 1.363 . S
C841 C840 1.415 . S
H842 C839 0.999 . S
H843 C824 0.913 . S
H844 C862 0.951 . S
H845 C864 0.951 . S
H846 C866 0.950 . S
H847 C867 0.950 . S
H848 C869 0.950 . S
H849 C872 0.950 . S
H850 C873 0.950 . S
H851 C875 0.950 . S
H852 C876 0.950 . S
H853 C877 0.951 . S
H854 C879 0.951 . S
H855 C881 0.950 . S
H856 C882 0.950 . S
H857 C884 0.950 . S
H858 C887 0.950 . S
H859 C888 0.950 . S
H860 C890 0.950 . S
H861 C891 0.950 . S
C862 H844 0.951 . S
C862 C863 1.366 . S
C862 C864 1.388 . S
C863 C862 1.366 . S
C863 C867 1.385 . S
C864 H845 0.951 . S
C864 C862 1.388 . S
C864 C865 1.366 . S
C865 C864 1.366 . S
C865 C866 1.414 . S
C865 C868 1.499 . S
C866 H846 0.950 . S
C866 C865 1.414 . S
C866 C867 1.374 . S
C867 H847 0.950 . S
C867 C863 1.385 . S
C867 C866 1.374 . S
C868 C865 1.499 . S
C868 C869 1.373 . S
C868 C870 1.389 . S
C869 H848 0.950 . S
C869 C868 1.373 . S
C869 C885 1.377 . S
C870 C868 1.389 . S
C870 C871 1.524 . S
C870 C884 1.377 . S
C871 C870 1.524 . S
C871 C872 1.397 . S
C871 C876 1.363 . S
C872 H849 0.950 . S
C872 C871 1.397 . S
C872 C873 1.334 . S
C873 H850 0.950 . S
C873 C872 1.334 . S
C873 C874 1.287 . S
C874 C873 1.287 . S
C874 C875 1.524 . S
C874 H893 0.913 . S
C875 H851 0.950 . S
C875 C874 1.524 . S
C875 C876 1.415 . S
C876 H852 0.950 . S
C876 C871 1.363 . S
C876 C875 1.415 . S
C877 H853 0.951 . S
C877 C878 1.366 . S
C877 C879 1.388 . S
C878 C877 1.366 . S
C878 C882 1.385 . S
C879 H854 0.951 . S
C879 C877 1.388 . S
C879 C880 1.366 . S
C880 C879 1.366 . S
C880 C881 1.414 . S
C880 C883 1.499 . S
C881 H855 0.950 . S
C881 C880 1.414 . S
C881 C882 1.374 . S
C882 H856 0.950 . S
C882 C878 1.385 . S
C882 C881 1.374 . S
C883 C880 1.499 . S
C883 C884 1.373 . S
C883 C885 1.389 . S
C884 H857 0.950 . S
C884 C870 1.377 . S
C884 C883 1.373 . S
C885 C869 1.377 . S
C885 C883 1.389 . S
C885 C886 1.524 . S
C886 C885 1.524 . S
C886 C887 1.397 . S
C886 C891 1.363 . S
C887 H858 0.950 . S
C887 C886 1.397 . S
C887 C888 1.334 . S
C888 H859 0.950 . S
C888 C887 1.334 . S
C888 C889 1.287 . S
C889 C888 1.287 . S
C889 C890 1.524 . S
C889 H892 0.999 . S
C890 H860 0.950 . S
C890 C889 1.524 . S
C890 C891 1.415 . S
C891 H861 0.950 . S
C891 C886 1.363 . S
C891 C890 1.415 . S
H892 C889 0.999 . S
H893 C874 0.913 . S
H894 C912 0.951 . S
H895 C914 0.951 . S
H896 C916 0.950 . S
H897 C917 0.950 . S
H898 C919 0.950 . S
H899 C922 0.950 . S
H900 C923 0.950 . S
H901 C925 0.950 . S
H902 C926 0.950 . S
H903 C927 0.951 . S
H904 C929 0.951 . S
H905 C931 0.950 . S
H906 C932 0.950 . S
H907 C934 0.950 . S
H908 C937 0.950 . S
H909 C938 0.950 . S
H910 C940 0.950 . S
H911 C941 0.950 . S
C912 H894 0.951 . S
C912 C913 1.366 . S
C912 C914 1.388 . S
C913 C912 1.366 . S
C913 C917 1.385 . S
C914 H895 0.951 . S
C914 C912 1.388 . S
C914 C915 1.366 . S
C915 C914 1.366 . S
C915 C916 1.414 . S
C915 C918 1.499 . S
C916 H896 0.950 . S
C916 C915 1.414 . S
C916 C917 1.374 . S
C917 H897 0.950 . S
C917 C913 1.385 . S
C917 C916 1.374 . S
C918 C915 1.499 . S
C918 C919 1.373 . S
C918 C920 1.389 . S
C919 H898 0.950 . S
C919 C918 1.373 . S
C919 C935 1.377 . S
C920 C918 1.389 . S
C920 C921 1.524 . S
C920 C934 1.377 . S
C921 C920 1.524 . S
C921 C922 1.397 . S
C921 C926 1.363 . S
C922 H899 0.950 . S
C922 C921 1.397 . S
C922 C923 1.334 . S
C923 H900 0.950 . S
C923 C922 1.334 . S
C923 C924 1.287 . S
C924 C923 1.287 . S
C924 C925 1.524 . S
C924 H943 0.913 . S
C925 H901 0.950 . S
C925 C924 1.524 . S
C925 C926 1.415 . S
C926 H902 0.950 . S
C926 C921 1.363 . S
C926 C925 1.415 . S
C927 H903 0.951 . S
C927 C928 1.366 . S
C927 C929 1.388 . S
C928 C927 1.366 . S
C928 C932 1.385 . S
C929 H904 0.951 . S
C929 C927 1.388 . S
C929 C930 1.366 . S
C930 C929 1.366 . S
C930 C931 1.414 . S
C930 C933 1.499 . S
C931 H905 0.950 . S
C931 C930 1.414 . S
C931 C932 1.374 . S
C932 H906 0.950 . S
C932 C928 1.385 . S
C932 C931 1.374 . S
C933 C930 1.499 . S
C933 C934 1.373 . S
C933 C935 1.389 . S
C934 H907 0.950 . S
C934 C920 1.377 . S
C934 C933 1.373 . S
C935 C919 1.377 . S
C935 C933 1.389 . S
C935 C936 1.524 . S
C936 C935 1.524 . S
C936 C937 1.397 . S
C936 C941 1.363 . S
C937 H908 0.950 . S
C937 C936 1.397 . S
C937 C938 1.334 . S
C938 H909 0.950 . S
C938 C937 1.334 . S
C938 C939 1.287 . S
C939 C938 1.287 . S
C939 C940 1.524 . S
C939 H942 0.999 . S
C940 H910 0.950 . S
C940 C939 1.524 . S
C940 C941 1.415 . S
C941 H911 0.950 . S
C941 C936 1.363 . S
C941 C940 1.415 . S
H942 C939 0.999 . S
H943 C924 0.913 . S
H944 C962 0.951 . S
H945 C964 0.951 . S
H946 C966 0.950 . S
H947 C967 0.950 . S
H948 C969 0.950 . S
H949 C972 0.950 . S
H950 C973 0.950 . S
H951 C975 0.950 . S
H952 C976 0.950 . S
H953 C977 0.951 . S
H954 C979 0.951 . S
H955 C981 0.950 . S
H956 C982 0.950 . S
H957 C984 0.950 . S
H958 C987 0.950 . S
H959 C988 0.950 . S
H960 C990 0.950 . S
H961 C991 0.950 . S
C962 H944 0.951 . S
C962 C963 1.366 . S
C962 C964 1.388 . S
C963 C962 1.366 . S
C963 C967 1.385 . S
C964 H945 0.951 . S
C964 C962 1.388 . S
C964 C965 1.366 . S
C965 C964 1.366 . S
C965 C966 1.414 . S
C965 C968 1.499 . S
C966 H946 0.950 . S
C966 C965 1.414 . S
C966 C967 1.374 . S
C967 H947 0.950 . S
C967 C963 1.385 . S
C967 C966 1.374 . S
C968 C965 1.499 . S
C968 C969 1.373 . S
C968 C970 1.389 . S
C969 H948 0.950 . S
C969 C968 1.373 . S
C969 C985 1.377 . S
C970 C968 1.389 . S
C970 C971 1.524 . S
C970 C984 1.377 . S
C971 C970 1.524 . S
C971 C972 1.397 . S
C971 C976 1.363 . S
C972 H949 0.950 . S
C972 C971 1.397 . S
C972 C973 1.334 . S
C973 H950 0.950 . S
C973 C972 1.334 . S
C973 C974 1.287 . S
C974 C973 1.287 . S
C974 C975 1.524 . S
C974 H993 0.913 . S
C975 H951 0.950 . S
C975 C974 1.524 . S
C975 C976 1.415 . S
C976 H952 0.950 . S
C976 C971 1.363 . S
C976 C975 1.415 . S
C977 H953 0.951 . S
C977 C978 1.366 . S
C977 C979 1.388 . S
C978 C977 1.366 . S
C978 C982 1.385 . S
C979 H954 0.951 . S
C979 C977 1.388 . S
C979 C980 1.366 . S
C980 C979 1.366 . S
C980 C981 1.414 . S
C980 C983 1.499 . S
C981 H955 0.950 . S
C981 C980 1.414 . S
C981 C982 1.374 . S
C982 H956 0.950 . S
C982 C978 1.385 . S
C982 C981 1.374 . S
C983 C980 1.499 . S
C983 C984 1.373 . S
C983 C985 1.389 . S
C984 H957 0.950 . S
C984 C970 1.377 . S
C984 C983 1.373 . S
C985 C969 1.377 . S
C985 C983 1.389 . S
C985 C986 1.524 . S
C986 C985 1.524 . S
C986 C987 1.397 . S
C986 C991 1.363 . S
C987 H958 0.950 . S
C987 C986 1.397 . S
C987 C988 1.334 . S
C988 H959 0.950 . S
C988 C987 1.334 . S
C988 C989 1.287 . S
C989 C988 1.287 . S
C989 C990 1.524 . S
C989 H992 0.999 . S
C990 H960 0.950 . S
C990 C989 1.524 . S
C990 C991 1.415 . S
C991 H961 0.950 . S
C991 C986 1.363 . S
C991 C990 1.415 . S
H992 C989 0.999 . S
H993 C974 0.913 . S
H994 C1012 0.951 . S
H995 C1014 0.951 . S
H996 C1016 0.950 . S
H997 C1017 0.950 . S
H998 C1019 0.950 . S
H999 C1022 0.950 . S
H1000 C1023 0.950 . S
H1001 C1025 0.950 . S
H1002 C1026 0.950 . S
H1003 C1027 0.951 . S
H1004 C1029 0.951 . S
H1005 C1031 0.950 . S
H1006 C1032 0.950 . S
H1007 C1034 0.950 . S
H1008 C1037 0.950 . S
H1009 C1038 0.950 . S
H1010 C1040 0.950 . S
H1011 C1041 0.950 . S
C1012 H994 0.951 . S
C1012 C1013 1.366 . S
C1012 C1014 1.388 . S
C1013 C1012 1.366 . S
C1013 C1017 1.385 . S
C1014 H995 0.951 . S
C1014 C1012 1.388 . S
C1014 C1015 1.366 . S
C1015 C1014 1.366 . S
C1015 C1016 1.414 . S
C1015 C1018 1.499 . S
C1016 H996 0.950 . S
C1016 C1015 1.414 . S
C1016 C1017 1.374 . S
C1017 H997 0.950 . S
C1017 C1013 1.385 . S
C1017 C1016 1.374 . S
C1018 C1015 1.499 . S
C1018 C1019 1.373 . S
C1018 C1020 1.389 . S
C1019 H998 0.950 . S
C1019 C1018 1.373 . S
C1019 C1035 1.377 . S
C1020 C1018 1.389 . S
C1020 C1021 1.524 . S
C1020 C1034 1.377 . S
C1021 C1020 1.524 . S
C1021 C1022 1.397 . S
C1021 C1026 1.363 . S
C1022 H999 0.950 . S
C1022 C1021 1.397 . S
C1022 C1023 1.334 . S
C1023 H1000 0.950 . S
C1023 C1022 1.334 . S
C1023 C1024 1.287 . S
C1024 C1023 1.287 . S
C1024 C1025 1.524 . S
C1024 H1043 0.913 . S
C1025 H1001 0.950 . S
C1025 C1024 1.524 . S
C1025 C1026 1.415 . S
C1026 H1002 0.950 . S
C1026 C1021 1.363 . S
C1026 C1025 1.415 . S
C1027 H1003 0.951 . S
C1027 C1028 1.366 . S
C1027 C1029 1.388 . S
C1028 C1027 1.366 . S
C1028 C1032 1.385 . S
C1029 H1004 0.951 . S
C1029 C1027 1.388 . S
C1029 C1030 1.366 . S
C1030 C1029 1.366 . S
C1030 C1031 1.414 . S
C1030 C1033 1.499 . S
C1031 H1005 0.950 . S
C1031 C1030 1.414 . S
C1031 C1032 1.374 . S
C1032 H1006 0.950 . S
C1032 C1028 1.385 . S
C1032 C1031 1.374 . S
C1033 C1030 1.499 . S
C1033 C1034 1.373 . S
C1033 C1035 1.389 . S
C1034 H1007 0.950 . S
C1034 C1020 1.377 . S
C1034 C1033 1.373 . S
C1035 C1019 1.377 . S
C1035 C1033 1.389 . S
C1035 C1036 1.524 . S
C1036 C1035 1.524 . S
C1036 C1037 1.397 . S
C1036 C1041 1.363 . S
C1037 H1008 0.950 . S
C1037 C1036 1.397 . S
C1037 C1038 1.334 . S
C1038 H1009 0.950 . S
C1038 C1037 1.334 . S
C1038 C1039 1.287 . S
C1039 C1038 1.287 . S
C1039 C1040 1.524 . S
C1039 H1042 0.999 . S
C1040 H1010 0.950 . S
C1040 C1039 1.524 . S
C1040 C1041 1.415 . S
C1041 H1011 0.950 . S
C1041 C1036 1.363 . S
C1041 C1040 1.415 . S
H1042 C1039 0.999 . S
H1043 C1024 0.913 . S
H1044 C1062 0.951 . S
H1045 C1064 0.951 . S
H1046 C1066 0.950 . S
H1047 C1067 0.950 . S
H1048 C1069 0.950 . S
H1049 C1072 0.950 . S
H1050 C1073 0.950 . S
H1051 C1075 0.950 . S
H1052 C1076 0.950 . S
H1053 C1077 0.951 . S
H1054 C1079 0.951 . S
H1055 C1081 0.950 . S
H1056 C1082 0.950 . S
H1057 C1084 0.950 . S
H1058 C1087 0.950 . S
H1059 C1088 0.950 . S
H1060 C1090 0.950 . S
H1061 C1091 0.950 . S
C1062 H1044 0.951 . S
C1062 C1063 1.366 . S
C1062 C1064 1.388 . S
C1063 C1062 1.366 . S
C1063 C1067 1.385 . S
C1064 H1045 0.951 . S
C1064 C1062 1.388 . S
C1064 C1065 1.366 . S
C1065 C1064 1.366 . S
C1065 C1066 1.414 . S
C1065 C1068 1.499 . S
C1066 H1046 0.950 . S
C1066 C1065 1.414 . S
C1066 C1067 1.374 . S
C1067 H1047 0.950 . S
C1067 C1063 1.385 . S
C1067 C1066 1.374 . S
C1068 C1065 1.499 . S
C1068 C1069 1.373 . S
C1068 C1070 1.389 . S
C1069 H1048 0.950 . S
C1069 C1068 1.373 . S
C1069 C1085 1.377 . S
C1070 C1068 1.389 . S
C1070 C1071 1.524 . S
C1070 C1084 1.377 . S
C1071 C1070 1.524 . S
C1071 C1072 1.397 . S
C1071 C1076 1.363 . S
C1072 H1049 0.950 . S
C1072 C1071 1.397 . S
C1072 C1073 1.334 . S
C1073 H1050 0.950 . S
C1073 C1072 1.334 . S
C1073 C1074 1.287 . S
C1074 C1073 1.287 . S
C1074 C1075 1.524 . S
C1074 H1093 0.913 . S
C1075 H1051 0.950 . S
C1075 C1074 1.524 . S
C1075 C1076 1.415 . S
C1076 H1052 0.950 . S
C1076 C1071 1.363 . S
C1076 C1075 1.415 . S
C1077 H1053 0.951 . S
C1077 C1078 1.366 . S
C1077 C1079 1.388 . S
C1078 C1077 1.366 . S
C1078 C1082 1.385 . S
C1079 H1054 0.951 . S
C1079 C1077 1.388 . S
C1079 C1080 1.366 . S
C1080 C1079 1.366 . S
C1080 C1081 1.414 . S
C1080 C1083 1.499 . S
C1081 H1055 0.950 . S
C1081 C1080 1.414 . S
C1081 C1082 1.374 . S
C1082 H1056 0.950 . S
C1082 C1078 1.385 . S
C1082 C1081 1.374 . S
C1083 C1080 1.499 . S
C1083 C1084 1.373 . S
C1083 C1085 1.389 . S
C1084 H1057 0.950 . S
C1084 C1070 1.377 . S
C1084 C1083 1.373 . S
C1085 C1069 1.377 . S
C1085 C1083 1.389 . S
C1085 C1086 1.524 . S
C1086 C1085 1.524 . S
C1086 C1087 1.397 . S
C1086 C1091 1.363 . S
C1087 H1058 0.950 . S
C1087 C1086 1.397 . S
C1087 C1088 1.334 . S
C1088 H1059 0.950 . S
C1088 C1087 1.334 . S
C1088 C1089 1.287 . S
C1089 C1088 1.287 . S
C1089 C1090 1.524 . S
C1089 H1092 0.999 . S
C1090 H1060 0.950 . S
C1090 C1089 1.524 . S
C1090 C1091 1.415 . S
C1091 H1061 0.950 . S
C1091 C1086 1.363 . S
C1091 C1090 1.415 . S
H1092 C1089 0.999 . S
H1093 C1074 0.913 . S
H1094 C1112 0.951 . S
H1095 C1114 0.951 . S
H1096 C1116 0.950 . S
H1097 C1117 0.950 . S
H1098 C1119 0.950 . S
H1099 C1122 0.950 . S
H1100 C1123 0.950 . S
H1101 C1125 0.950 . S
H1102 C1126 0.950 . S
H1103 C1127 0.951 . S
H1104 C1129 0.951 . S
H1105 C1131 0.950 . S
H1106 C1132 0.950 . S
H1107 C1134 0.950 . S
H1108 C1137 0.950 . S
H1109 C1138 0.950 . S
H1110 C1140 0.950 . S
H1111 C1141 0.950 . S
C1112 H1094 0.951 . S
C1112 C1113 1.366 . S
C1112 C1114 1.388 . S
C1113 C1112 1.366 . S
C1113 C1117 1.385 . S
C1114 H1095 0.951 . S
C1114 C1112 1.388 . S
C1114 C1115 1.366 . S
C1115 C1114 1.366 . S
C1115 C1116 1.414 . S
C1115 C1118 1.499 . S
C1116 H1096 0.950 . S
C1116 C1115 1.414 . S
C1116 C1117 1.374 . S
C1117 H1097 0.950 . S
C1117 C1113 1.385 . S
C1117 C1116 1.374 . S
C1118 C1115 1.499 . S
C1118 C1119 1.373 . S
C1118 C1120 1.389 . S
C1119 H1098 0.950 . S
C1119 C1118 1.373 . S
C1119 C1135 1.377 . S
C1120 C1118 1.389 . S
C1120 C1121 1.524 . S
C1120 C1134 1.377 . S
C1121 C1120 1.524 . S
C1121 C1122 1.397 . S
C1121 C1126 1.363 . S
C1122 H1099 0.950 . S
C1122 C1121 1.397 . S
C1122 C1123 1.334 . S
C1123 H1100 0.950 . S
C1123 C1122 1.334 . S
C1123 C1124 1.287 . S
C1124 C1123 1.287 . S
C1124 C1125 1.524 . S
C1124 H1143 0.913 . S
C1125 H1101 0.950 . S
C1125 C1124 1.524 . S
C1125 C1126 1.415 . S
C1126 H1102 0.950 . S
C1126 C1121 1.363 . S
C1126 C1125 1.415 . S
C1127 H1103 0.951 . S
C1127 C1128 1.366 . S
C1127 C1129 1.388 . S
C1128 C1127 1.366 . S
C1128 C1132 1.385 . S
C1129 H1104 0.951 . S
C1129 C1127 1.388 . S
C1129 C1130 1.366 . S
C1130 C1129 1.366 . S
C1130 C1131 1.414 . S
C1130 C1133 1.499 . S
C1131 H1105 0.950 . S
C1131 C1130 1.414 . S
C1131 C1132 1.374 . S
C1132 H1106 0.950 . S
C1132 C1128 1.385 . S
C1132 C1131 1.374 . S
C1133 C1130 1.499 . S
C1133 C1134 1.373 . S
C1133 C1135 1.389 . S
C1134 H1107 0.950 . S
C1134 C1120 1.377 . S
C1134 C1133 1.373 . S
C1135 C1119 1.377 . S
C1135 C1133 1.389 . S
C1135 C1136 1.524 . S
C1136 C1135 1.524 . S
C1136 C1137 1.397 . S
C1136 C1141 1.363 . S
C1137 H1108 0.950 . S
C1137 C1136 1.397 . S
C1137 C1138 1.334 . S
C1138 H1109 0.950 . S
C1138 C1137 1.334 . S
C1138 C1139 1.287 . S
C1139 C1138 1.287 . S
C1139 C1140 1.524 . S
C1139 H1142 0.999 . S
C1140 H1110 0.950 . S
C1140 C1139 1.524 . S
C1140 C1141 1.415 . S
C1141 H1111 0.950 . S
C1141 C1136 1.363 . S
C1141 C1140 1.415 . S
H1142 C1139 0.999 . S
H1143 C1124 0.913 . S
H1144 C1162 0.951 . S
H1145 C1164 0.951 . S
H1146 C1166 0.950 . S
H1147 C1167 0.950 . S
H1148 C1169 0.950 . S
H1149 C1172 0.950 . S
H1150 C1173 0.950 . S
H1151 C1175 0.950 . S
H1152 C1176 0.950 . S
H1153 C1177 0.951 . S
H1154 C1179 0.951 . S
H1155 C1181 0.950 . S
H1156 C1182 0.950 . S
H1157 C1184 0.950 . S
H1158 C1187 0.950 . S
H1159 C1188 0.950 . S
H1160 C1190 0.950 . S
H1161 C1191 0.950 . S
C1162 H1144 0.951 . S
C1162 C1163 1.366 . S
C1162 C1164 1.388 . S
C1163 C1162 1.366 . S
C1163 C1167 1.385 . S
C1164 H1145 0.951 . S
C1164 C1162 1.388 . S
C1164 C1165 1.366 . S
C1165 C1164 1.366 . S
C1165 C1166 1.414 . S
C1165 C1168 1.499 . S
C1166 H1146 0.950 . S
C1166 C1165 1.414 . S
C1166 C1167 1.374 . S
C1167 H1147 0.950 . S
C1167 C1163 1.385 . S
C1167 C1166 1.374 . S
C1168 C1165 1.499 . S
C1168 C1169 1.373 . S
C1168 C1170 1.389 . S
C1169 H1148 0.950 . S
C1169 C1168 1.373 . S
C1169 C1185 1.377 . S
C1170 C1168 1.389 . S
C1170 C1171 1.524 . S
C1170 C1184 1.377 . S
C1171 C1170 1.524 . S
C1171 C1172 1.397 . S
C1171 C1176 1.363 . S
C1172 H1149 0.950 . S
C1172 C1171 1.397 . S
C1172 C1173 1.334 . S
C1173 H1150 0.950 . S
C1173 C1172 1.334 . S
C1173 C1174 1.287 . S
C1174 C1173 1.287 . S
C1174 C1175 1.524 . S
C1174 H1193 0.913 . S
C1175 H1151 0.950 . S
C1175 C1174 1.524 . S
C1175 C1176 1.415 . S
C1176 H1152 0.950 . S
C1176 C1171 1.363 . S
C1176 C1175 1.415 . S
C1177 H1153 0.951 . S
C1177 C1178 1.366 . S
C1177 C1179 1.388 . S
C1178 C1177 1.366 . S
C1178 C1182 1.385 . S
C1179 H1154 0.951 . S
C1179 C1177 1.388 . S
C1179 C1180 1.366 . S
C1180 C1179 1.366 . S
C1180 C1181 1.414 . S
C1180 C1183 1.499 . S
C1181 H1155 0.950 . S
C1181 C1180 1.414 . S
C1181 C1182 1.374 . S
C1182 H1156 0.950 . S
C1182 C1178 1.385 . S
C1182 C1181 1.374 . S
C1183 C1180 1.499 . S
C1183 C1184 1.373 . S
C1183 C1185 1.389 . S
C1184 H1157 0.950 . S
C1184 C1170 1.377 . S
C1184 C1183 1.373 . S
C1185 C1169 1.377 . S
C1185 C1183 1.389 . S
C1185 C1186 1.524 . S
C1186 C1185 1.524 . S
C1186 C1187 1.397 . S
C1186 C1191 1.363 . S
C1187 H1158 0.950 . S
C1187 C1186 1.397 . S
C1187 C1188 1.334 . S
C1188 H1159 0.950 . S
C1188 C1187 1.334 . S
C1188 C1189 1.287 . S
C1189 C1188 1.287 . S
C1189 C1190 1.524 . S
C1189 H1192 0.999 . S
C1190 H1160 0.950 . S
C1190 C1189 1.524 . S
C1190 C1191 1.415 . S
C1191 H1161 0.950 . S
C1191 C1186 1.363 . S
C1191 C1190 1.415 . S
H1192 C1189 0.999 . S
H1193 C1174 0.913 . S
H1194 C1212 0.951 . S
H1195 C1214 0.951 . S
H1196 C1216 0.950 . S
H1197 C1217 0.950 . S
H1198 C1219 0.950 . S
H1199 C1222 0.950 . S
H1200 C1223 0.950 . S
H1201 C1225 0.950 . S
H1202 C1226 0.950 . S
H1203 C1227 0.951 . S
H1204 C1229 0.951 . S
H1205 C1231 0.950 . S
H1206 C1232 0.950 . S
H1207 C1234 0.950 . S
H1208 C1237 0.950 . S
H1209 C1238 0.950 . S
H1210 C1240 0.950 . S
H1211 C1241 0.950 . S
C1212 H1194 0.951 . S
C1212 C1213 1.366 . S
C1212 C1214 1.388 . S
C1213 C1212 1.366 . S
C1213 C1217 1.385 . S
C1214 H1195 0.951 . S
C1214 C1212 1.388 . S
C1214 C1215 1.366 . S
C1215 C1214 1.366 . S
C1215 C1216 1.414 . S
C1215 C1218 1.499 . S
C1216 H1196 0.950 . S
C1216 C1215 1.414 . S
C1216 C1217 1.374 . S
C1217 H1197 0.950 . S
C1217 C1213 1.385 . S
C1217 C1216 1.374 . S
C1218 C1215 1.499 . S
C1218 C1219 1.373 . S
C1218 C1220 1.389 . S
C1219 H1198 0.950 . S
C1219 C1218 1.373 . S
C1219 C1235 1.377 . S
C1220 C1218 1.389 . S
C1220 C1221 1.524 . S
C1220 C1234 1.377 . S
C1221 C1220 1.524 . S
C1221 C1222 1.397 . S
C1221 C1226 1.363 . S
C1222 H1199 0.950 . S
C1222 C1221 1.397 . S
C1222 C1223 1.334 . S
C1223 H1200 0.950 . S
C1223 C1222 1.334 . S
C1223 C1224 1.287 . S
C1224 C1223 1.287 . S
C1224 C1225 1.524 . S
C1224 H1243 0.913 . S
C1225 H1201 0.950 . S
C1225 C1224 1.524 . S
C1225 C1226 1.415 . S
C1226 H1202 0.950 . S
C1226 C1221 1.363 . S
C1226 C1225 1.415 . S
C1227 H1203 0.951 . S
C1227 C1228 1.366 . S
C1227 C1229 1.388 . S
C1228 C1227 1.366 . S
C1228 C1232 1.385 . S
C1229 H1204 0.951 . S
C1229 C1227 1.388 . S
C1229 C1230 1.366 . S
C1230 C1229 1.366 . S
C1230 C1231 1.414 . S
C1230 C1233 1.499 . S
C1231 H1205 0.950 . S
C1231 C1230 1.414 . S
C1231 C1232 1.374 . S
C1232 H1206 0.950 . S
C1232 C1228 1.385 . S
C1232 C1231 1.374 . S
C1233 C1230 1.499 . S
C1233 C1234 1.373 . S
C1233 C1235 1.389 . S
C1234 H1207 0.950 . S
C1234 C1220 1.377 . S
C1234 C1233 1.373 . S
C1235 C1219 1.377 . S
C1235 C1233 1.389 . S
C1235 C1236 1.524 . S
C1236 C1235 1.524 . S
C1236 C1237 1.397 . S
C1236 C1241 1.363 . S
C1237 H1208 0.950 . S
C1237 C1236 1.397 . S
C1237 C1238 1.334 . S
C1238 H1209 0.950 . S
C1238 C1237 1.334 . S
C1238 C1239 1.287 . S
C1239 C1238 1.287 . S
C1239 C1240 1.524 . S
C1239 H1242 0.999 . S
C1240 H1210 0.950 . S
C1240 C1239 1.524 . S
C1240 C1241 1.415 . S
C1241 H1211 0.950 . S
C1241 C1236 1.363 . S
C1241 C1240 1.415 . S
H1242 C1239 0.999 . S
H1243 C1224 0.913 . S
H1244 C1262 0.951 . S
H1245 C1264 0.951 . S
H1246 C1266 0.950 . S
H1247 C1267 0.950 . S
H1248 C1269 0.950 . S
H1249 C1272 0.950 . S
H1250 C1273 0.950 . S
H1251 C1275 0.950 . S
H1252 C1276 0.950 . S
H1253 C1277 0.951 . S
H1254 C1279 0.951 . S
H1255 C1281 0.950 . S
H1256 C1282 0.950 . S
H1257 C1284 0.950 . S
H1258 C1287 0.950 . S
H1259 C1288 0.950 . S
H1260 C1290 0.950 . S
H1261 C1291 0.950 . S
C1262 H1244 0.951 . S
C1262 C1263 1.366 . S
C1262 C1264 1.388 . S
C1263 C1262 1.366 . S
C1263 C1267 1.385 . S
C1264 H1245 0.951 . S
C1264 C1262 1.388 . S
C1264 C1265 1.366 . S
C1265 C1264 1.366 . S
C1265 C1266 1.414 . S
C1265 C1268 1.499 . S
C1266 H1246 0.950 . S
C1266 C1265 1.414 . S
C1266 C1267 1.374 . S
C1267 H1247 0.950 . S
C1267 C1263 1.385 . S
C1267 C1266 1.374 . S
C1268 C1265 1.499 . S
C1268 C1269 1.373 . S
C1268 C1270 1.389 . S
C1269 H1248 0.950 . S
C1269 C1268 1.373 . S
C1269 C1285 1.377 . S
C1270 C1268 1.389 . S
C1270 C1271 1.524 . S
C1270 C1284 1.377 . S
C1271 C1270 1.524 . S
C1271 C1272 1.397 . S
C1271 C1276 1.363 . S
C1272 H1249 0.950 . S
C1272 C1271 1.397 . S
C1272 C1273 1.334 . S
C1273 H1250 0.950 . S
C1273 C1272 1.334 . S
C1273 C1274 1.287 . S
C1274 C1273 1.287 . S
C1274 C1275 1.524 . S
C1274 H1293 0.913 . S
C1275 H1251 0.950 . S
C1275 C1274 1.524 . S
C1275 C1276 1.415 . S
C1276 H1252 0.950 . S
C1276 C1271 1.363 . S
C1276 C1275 1.415 . S
C1277 H1253 0.951 . S
C1277 C1278 1.366 . S
C1277 C1279 1.388 . S
C1278 C1277 1.366 . S
C1278 C1282 1.385 . S
C1279 H1254 0.951 . S
C1279 C1277 1.388 . S
C1279 C1280 1.366 . S
C1280 C1279 1.366 . S
C1280 C1281 1.414 . S
C1280 C1283 1.499 . S
C1281 H1255 0.950 . S
C1281 C1280 1.414 . S
C1281 C1282 1.374 . S
C1282 H1256 0.950 . S
C1282 C1278 1.385 . S
C1282 C1281 1.374 . S
C1283 C1280 1.499 . S
C1283 C1284 1.373 . S
C1283 C1285 1.389 . S
C1284 H1257 0.950 . S
C1284 C1270 1.377 . S
C1284 C1283 1.373 . S
C1285 C1269 1.377 . S
C1285 C1283 1.389 . S
C1285 C1286 1.524 . S
C1286 C1285 1.524 . S
C1286 C1287 1.397 . S
C1286 C1291 1.363 . S
C1287 H1258 0.950 . S
C1287 C1286 1.397 . S
C1287 C1288 1.334 . S
C1288 H1259 0.950 . S
C1288 C1287 1.334 . S
C1288 C1289 1.287 . S
C1289 C1288 1.287 . S
C1289 C1290 1.524 . S
C1289 H1292 0.999 . S
C1290 H1260 0.950 . S
C1290 C1289 1.524 . S
C1290 C1291 1.415 . S
C1291 H1261 0.950 . S
C1291 C1286 1.363 . S
C1291 C1290 1.415 . S
H1292 C1289 0.999 . S
H1293 C1274 0.913 . S
H1294 C1312 0.951 . S
H1295 C1314 0.951 . S
H1296 C1316 0.950 . S
H1297 C1317 0.950 . S
H1298 C1319 0.950 . S
H1299 C1322 0.950 . S
H1300 C1323 0.950 . S
H1301 C1325 0.950 . S
H1302 C1326 0.950 . S
H1303 C1327 0.951 . S
H1304 C1329 0.951 . S
H1305 C1331 0.950 . S
H1306 C1332 0.950 . S
H1307 C1334 0.950 . S
H1308 C1337 0.950 . S
H1309 C1338 0.950 . S
H1310 C1340 0.950 . S
H1311 C1341 0.950 . S
C1312 H1294 0.951 . S
C1312 C1313 1.366 . S
C1312 C1314 1.388 . S
C1313 C1312 1.366 . S
C1313 C1317 1.385 . S
C1314 H1295 0.951 . S
C1314 C1312 1.388 . S
C1314 C1315 1.366 . S
C1315 C1314 1.366 . S
C1315 C1316 1.414 . S
C1315 C1318 1.499 . S
C1316 H1296 0.950 . S
C1316 C1315 1.414 . S
C1316 C1317 1.374 . S
C1317 H1297 0.950 . S
C1317 C1313 1.385 . S
C1317 C1316 1.374 . S
C1318 C1315 1.499 . S
C1318 C1319 1.373 . S
C1318 C1320 1.389 . S
C1319 H1298 0.950 . S
C1319 C1318 1.373 . S
C1319 C1335 1.377 . S
C1320 C1318 1.389 . S
C1320 C1321 1.524 . S
C1320 C1334 1.377 . S
C1321 C1320 1.524 . S
C1321 C1322 1.397 . S
C1321 C1326 1.363 . S
C1322 H1299 0.950 . S
C1322 C1321 1.397 . S
C1322 C1323 1.334 . S
C1323 H1300 0.950 . S
C1323 C1322 1.334 . S
C1323 C1324 1.287 . S
C1324 C1323 1.287 . S
C1324 C1325 1.524 . S
C1324 H1343 0.913 . S
C1325 H1301 0.950 . S
C1325 C1324 1.524 . S
C1325 C1326 1.415 . S
C1326 H1302 0.950 . S
C1326 C1321 1.363 . S
C1326 C1325 1.415 . S
C1327 H1303 0.951 . S
C1327 C1328 1.366 . S
C1327 C1329 1.388 . S
C1328 C1327 1.366 . S
C1328 C1332 1.385 . S
C1329 H1304 0.951 . S
C1329 C1327 1.388 . S
C1329 C1330 1.366 . S
C1330 C1329 1.366 . S
C1330 C1331 1.414 . S
C1330 C1333 1.499 . S
C1331 H1305 0.950 . S
C1331 C1330 1.414 . S
C1331 C1332 1.374 . S
C1332 H1306 0.950 . S
C1332 C1328 1.385 . S
C1332 C1331 1.374 . S
C1333 C1330 1.499 . S
C1333 C1334 1.373 . S
C1333 C1335 1.389 . S
C1334 H1307 0.950 . S
C1334 C1320 1.377 . S
C1334 C1333 1.373 . S
C1335 C1319 1.377 . S
C1335 C1333 1.389 . S
C1335 C1336 1.524 . S
C1336 C1335 1.524 . S
C1336 C1337 1.397 . S
C1336 C1341 1.363 . S
C1337 H1308 0.950 . S
C1337 C1336 1.397 . S
C1337 C1338 1.334 . S
C1338 H1309 0.950 . S
C1338 C1337 1.334 . S
C1338 C1339 1.287 . S
C1339 C1338 1.287 . S
C1339 C1340 1.524 . S
C1339 H1342 0.999 . S
C1340 H1310 0.950 . S
C1340 C1339 1.524 . S
C1340 C1341 1.415 . S
C1341 H1311 0.950 . S
C1341 C1336 1.363 . S
C1341 C1340 1.415 . S
H1342 C1339 0.999 . S
H1343 C1324 0.913 . S
H1344 C1362 0.951 . S
H1345 C1364 0.951 . S
H1346 C1366 0.950 . S
H1347 C1367 0.950 . S
H1348 C1369 0.950 . S
H1349 C1372 0.950 . S
H1350 C1373 0.950 . S
H1351 C1375 0.950 . S
H1352 C1376 0.950 . S
H1353 C1377 0.951 . S
H1354 C1379 0.951 . S
H1355 C1381 0.950 . S
H1356 C1382 0.950 . S
H1357 C1384 0.950 . S
H1358 C1387 0.950 . S
H1359 C1388 0.950 . S
H1360 C1390 0.950 . S
H1361 C1391 0.950 . S
C1362 H1344 0.951 . S
C1362 C1363 1.366 . S
C1362 C1364 1.388 . S
C1363 C1362 1.366 . S
C1363 C1367 1.385 . S
C1364 H1345 0.951 . S
C1364 C1362 1.388 . S
C1364 C1365 1.366 . S
C1365 C1364 1.366 . S
C1365 C1366 1.414 . S
C1365 C1368 1.499 . S
C1366 H1346 0.950 . S
C1366 C1365 1.414 . S
C1366 C1367 1.374 . S
C1367 H1347 0.950 . S
C1367 C1363 1.385 . S
C1367 C1366 1.374 . S
C1368 C1365 1.499 . S
C1368 C1369 1.373 . S
C1368 C1370 1.389 . S
C1369 H1348 0.950 . S
C1369 C1368 1.373 . S
C1369 C1385 1.377 . S
C1370 C1368 1.389 . S
C1370 C1371 1.524 . S
C1370 C1384 1.377 . S
C1371 C1370 1.524 . S
C1371 C1372 1.397 . S
C1371 C1376 1.363 . S
C1372 H1349 0.950 . S
C1372 C1371 1.397 . S
C1372 C1373 1.334 . S
C1373 H1350 0.950 . S
C1373 C1372 1.334 . S
C1373 C1374 1.287 . S
C1374 C1373 1.287 . S
C1374 C1375 1.524 . S
C1374 H1393 0.913 . S
C1375 H1351 0.950 . S
C1375 C1374 1.524 . S
C1375 C1376 1.415 . S
C1376 H1352 0.950 . S
C1376 C1371 1.363 . S
C1376 C1375 1.415 . S
C1377 H1353 0.951 . S
C1377 C1378 1.366 . S
C1377 C1379 1.388 . S
C1378 C1377 1.366 . S
C1378 C1382 1.385 . S
C1379 H1354 0.951 . S
C1379 C1377 1.388 . S
C1379 C1380 1.366 . S
C1380 C1379 1.366 . S
C1380 C1381 1.414 . S
C1380 C1383 1.499 . S
C1381 H1355 0.950 . S
C1381 C1380 1.414 . S
C1381 C1382 1.374 . S
C1382 H1356 0.950 . S
C1382 C1378 1.385 . S
C1382 C1381 1.374 . S
C1383 C1380 1.499 . S
C1383 C1384 1.373 . S
C1383 C1385 1.389 . S
C1384 H1357 0.950 . S
C1384 C1370 1.377 . S
C1384 C1383 1.373 . S
C1385 C1369 1.377 . S
C1385 C1383 1.389 . S
C1385 C1386 1.524 . S
C1386 C1385 1.524 . S
C1386 C1387 1.397 . S
C1386 C1391 1.363 . S
C1387 H1358 0.950 . S
C1387 C1386 1.397 . S
C1387 C1388 1.334 . S
C1388 H1359 0.950 . S
C1388 C1387 1.334 . S
C1388 C1389 1.287 . S
C1389 C1388 1.287 . S
C1389 C1390 1.524 . S
C1389 H1392 0.999 . S
C1390 H1360 0.950 . S
C1390 C1389 1.524 . S
C1390 C1391 1.415 . S
C1391 H1361 0.950 . S
C1391 C1386 1.363 . S
C1391 C1390 1.415 . S
H1392 C1389 0.999 . S
H1393 C1374 0.913 . S
H1394 C1412 0.951 . S
H1395 C1414 0.951 . S
H1396 C1416 0.950 . S
H1397 C1417 0.950 . S
H1398 C1419 0.950 . S
H1399 C1422 0.950 . S
H1400 C1423 0.950 . S
H1401 C1425 0.950 . S
H1402 C1426 0.950 . S
H1403 C1427 0.951 . S
H1404 C1429 0.951 . S
H1405 C1431 0.950 . S
H1406 C1432 0.950 . S
H1407 C1434 0.950 . S
H1408 C1437 0.950 . S
H1409 C1438 0.950 . S
H1410 C1440 0.950 . S
H1411 C1441 0.950 . S
C1412 H1394 0.951 . S
C1412 C1413 1.366 . S
C1412 C1414 1.388 . S
C1413 C1412 1.366 . S
C1413 C1417 1.385 . S
C1414 H1395 0.951 . S
C1414 C1412 1.388 . S
C1414 C1415 1.366 . S
C1415 C1414 1.366 . S
C1415 C1416 1.414 . S
C1415 C1418 1.499 . S
C1416 H1396 0.950 . S
C1416 C1415 1.414 . S
C1416 C1417 1.374 . S
C1417 H1397 0.950 . S
C1417 C1413 1.385 . S
C1417 C1416 1.374 . S
C1418 C1415 1.499 . S
C1418 C1419 1.373 . S
C1418 C1420 1.389 . S
C1419 H1398 0.950 . S
C1419 C1418 1.373 . S
C1419 C1435 1.377 . S
C1420 C1418 1.389 . S
C1420 C1421 1.524 . S
C1420 C1434 1.377 . S
C1421 C1420 1.524 . S
C1421 C1422 1.397 . S
C1421 C1426 1.363 . S
C1422 H1399 0.950 . S
C1422 C1421 1.397 . S
C1422 C1423 1.334 . S
C1423 H1400 0.950 . S
C1423 C1422 1.334 . S
C1423 C1424 1.287 . S
C1424 C1423 1.287 . S
C1424 C1425 1.524 . S
C1424 H1443 0.913 . S
C1425 H1401 0.950 . S
C1425 C1424 1.524 . S
C1425 C1426 1.415 . S
C1426 H1402 0.950 . S
C1426 C1421 1.363 . S
C1426 C1425 1.415 . S
C1427 H1403 0.951 . S
C1427 C1428 1.366 . S
C1427 C1429 1.388 . S
C1428 C1427 1.366 . S
C1428 C1432 1.385 . S
C1429 H1404 0.951 . S
C1429 C1427 1.388 . S
C1429 C1430 1.366 . S
C1430 C1429 1.366 . S
C1430 C1431 1.414 . S
C1430 C1433 1.499 . S
C1431 H1405 0.950 . S
C1431 C1430 1.414 . S
C1431 C1432 1.374 . S
C1432 H1406 0.950 . S
C1432 C1428 1.385 . S
C1432 C1431 1.374 . S
C1433 C1430 1.499 . S
C1433 C1434 1.373 . S
C1433 C1435 1.389 . S
C1434 H1407 0.950 . S
C1434 C1420 1.377 . S
C1434 C1433 1.373 . S
C1435 C1419 1.377 . S
C1435 C1433 1.389 . S
C1435 C1436 1.524 . S
C1436 C1435 1.524 . S
C1436 C1437 1.397 . S
C1436 C1441 1.363 . S
C1437 H1408 0.950 . S
C1437 C1436 1.397 . S
C1437 C1438 1.334 . S
C1438 H1409 0.950 . S
C1438 C1437 1.334 . S
C1438 C1439 1.287 . S
C1439 C1438 1.287 . S
C1439 C1440 1.524 . S
C1439 H1442 0.999 . S
C1440 H1410 0.950 . S
C1440 C1439 1.524 . S
C1440 C1441 1.415 . S
C1441 H1411 0.950 . S
C1441 C1436 1.363 . S
C1441 C1440 1.415 . S
H1442 C1439 0.999 . S
H1443 C1424 0.913 . S
H1444 C1462 0.951 . S
H1445 C1464 0.951 . S
H1446 C1466 0.950 . S
H1447 C1467 0.950 . S
H1448 C1469 0.950 . S
H1449 C1472 0.950 . S
H1450 C1473 0.950 . S
H1451 C1475 0.950 . S
H1452 C1476 0.950 . S
H1453 C1477 0.951 . S
H1454 C1479 0.951 . S
H1455 C1481 0.950 . S
H1456 C1482 0.950 . S
H1457 C1484 0.950 . S
H1458 C1487 0.950 . S
H1459 C1488 0.950 . S
H1460 C1490 0.950 . S
H1461 C1491 0.950 . S
C1462 H1444 0.951 . S
C1462 C1463 1.366 . S
C1462 C1464 1.388 . S
C1463 C1462 1.366 . S
C1463 C1467 1.385 . S
C1464 H1445 0.951 . S
C1464 C1462 1.388 . S
C1464 C1465 1.366 . S
C1465 C1464 1.366 . S
C1465 C1466 1.414 . S
C1465 C1468 1.499 . S
C1466 H1446 0.950 . S
C1466 C1465 1.414 . S
C1466 C1467 1.374 . S
C1467 H1447 0.950 . S
C1467 C1463 1.385 . S
C1467 C1466 1.374 . S
C1468 C1465 1.499 . S
C1468 C1469 1.373 . S
C1468 C1470 1.389 . S
C1469 H1448 0.950 . S
C1469 C1468 1.373 . S
C1469 C1485 1.377 . S
C1470 C1468 1.389 . S
C1470 C1471 1.524 . S
C1470 C1484 1.377 . S
C1471 C1470 1.524 . S
C1471 C1472 1.397 . S
C1471 C1476 1.363 . S
C1472 H1449 0.950 . S
C1472 C1471 1.397 . S
C1472 C1473 1.334 . S
C1473 H1450 0.950 . S
C1473 C1472 1.334 . S
C1473 C1474 1.287 . S
C1474 C1473 1.287 . S
C1474 C1475 1.524 . S
C1474 H1493 0.913 . S
C1475 H1451 0.950 . S
C1475 C1474 1.524 . S
C1475 C1476 1.415 . S
C1476 H1452 0.950 . S
C1476 C1471 1.363 . S
C1476 C1475 1.415 . S
C1477 H1453 0.951 . S
C1477 C1478 1.366 . S
C1477 C1479 1.388 . S
C1478 C1477 1.366 . S
C1478 C1482 1.385 . S
C1479 H1454 0.951 . S
C1479 C1477 1.388 . S
C1479 C1480 1.366 . S
C1480 C1479 1.366 . S
C1480 C1481 1.414 . S
C1480 C1483 1.499 . S
C1481 H1455 0.950 . S
C1481 C1480 1.414 . S
C1481 C1482 1.374 . S
C1482 H1456 0.950 . S
C1482 C1478 1.385 . S
C1482 C1481 1.374 . S
C1483 C1480 1.499 . S
C1483 C1484 1.373 . S
C1483 C1485 1.389 . S
C1484 H1457 0.950 . S
C1484 C1470 1.377 . S
C1484 C1483 1.373 . S
C1485 C1469 1.377 . S
C1485 C1483 1.389 . S
C1485 C1486 1.524 . S
C1486 C1485 1.524 . S
C1486 C1487 1.397 . S
C1486 C1491 1.363 . S
C1487 H1458 0.950 . S
C1487 C1486 1.397 . S
C1487 C1488 1.334 . S
C1488 H1459 0.950 . S
C1488 C1487 1.334 . S
C1488 C1489 1.287 . S
C1489 C1488 1.287 . S
C1489 C1490 1.524 . S
C1489 H1492 0.999 . S
C1490 H1460 0.950 . S
C1490 C1489 1.524 . S
C1490 C1491 1.415 . S
C1491 H1461 0.950 . S
C1491 C1486 1.363 . S
C1491 C1490 1.415 . S
H1492 C1489 0.999 . S
H1493 C1474 0.913 . S
H1494 C1512 0.951 . S
H1495 C1514 0.951 . S
H1496 C1516 0.950 . S
H1497 C1517 0.950 . S
H1498 C1519 0.950 . S
H1499 C1522 0.950 . S
H1500 C1523 0.950 . S
H1501 C1525 0.950 . S
H1502 C1526 0.950 . S
H1503 C1527 0.951 . S
H1504 C1529 0.951 . S
H1505 C1531 0.950 . S
H1506 C1532 0.950 . S
H1507 C1534 0.950 . S
H1508 C1537 0.950 . S
H1509 C1538 0.950 . S
H1510 C1540 0.950 . S
H1511 C1541 0.950 . S
C1512 H1494 0.951 . S
C1512 C1513 1.366 . S
C1512 C1514 1.388 . S
C1513 C1512 1.366 . S
C1513 C1517 1.385 . S
C1514 H1495 0.951 . S
C1514 C1512 1.388 . S
C1514 C1515 1.366 . S
C1515 C1514 1.366 . S
C1515 C1516 1.414 . S
C1515 C1518 1.499 . S
C1516 H1496 0.950 . S
C1516 C1515 1.414 . S
C1516 C1517 1.374 . S
C1517 H1497 0.950 . S
C1517 C1513 1.385 . S
C1517 C1516 1.374 . S
C1518 C1515 1.499 . S
C1518 C1519 1.373 . S
C1518 C1520 1.389 . S
C1519 H1498 0.950 . S
C1519 C1518 1.373 . S
C1519 C1535 1.377 . S
C1520 C1518 1.389 . S
C1520 C1521 1.524 . S
C1520 C1534 1.377 . S
C1521 C1520 1.524 . S
C1521 C1522 1.397 . S
C1521 C1526 1.363 . S
C1522 H1499 0.950 . S
C1522 C1521 1.397 . S
C1522 C1523 1.334 . S
C1523 H1500 0.950 . S
C1523 C1522 1.334 . S
C1523 C1524 1.287 . S
C1524 C1523 1.287 . S
C1524 C1525 1.524 . S
C1524 H1543 0.913 . S
C1525 H1501 0.950 . S
C1525 C1524 1.524 . S
C1525 C1526 1.415 . S
C1526 H1502 0.950 . S
C1526 C1521 1.363 . S
C1526 C1525 1.415 . S
C1527 H1503 0.951 . S
C1527 C1528 1.366 . S
C1527 C1529 1.388 . S
C1528 C1527 1.366 . S
C1528 C1532 1.385 . S
C1529 H1504 0.951 . S
C1529 C1527 1.388 . S
C1529 C1530 1.366 . S
C1530 C1529 1.366 . S
C1530 C1531 1.414 . S
C1530 C1533 1.499 . S
C1531 H1505 0.950 . S
C1531 C1530 1.414 . S
C1531 C1532 1.374 . S
C1532 H1506 0.950 . S
C1532 C1528 1.385 . S
C1532 C1531 1.374 . S
C1533 C1530 1.499 . S
C1533 C1534 1.373 . S
C1533 C1535 1.389 . S
C1534 H1507 0.950 . S
C1534 C1520 1.377 . S
C1534 C1533 1.373 . S
C1535 C1519 1.377 . S
C1535 C1533 1.389 . S
C1535 C1536 1.524 . S
C1536 C1535 1.524 . S
C1536 C1537 1.397 . S
C1536 C1541 1.363 . S
C1537 H1508 0.950 . S
C1537 C1536 1.397 . S
C1537 C1538 1.334 . S
C1538 H1509 0.950 . S
C1538 C1537 1.334 . S
C1538 C1539 1.287 . S
C1539 C1538 1.287 . S
C1539 C1540 1.524 . S
C1539 H1542 0.999 . S
C1540 H1510 0.950 . S
C1540 C1539 1.524 . S
C1540 C1541 1.415 . S
C1541 H1511 0.950 . S
C1541 C1536 1.363 . S
C1541 C1540 1.415 . S
H1542 C1539 0.999 . S
H1543 C1524 0.913 . S
H1544 C1562 0.951 . S
H1545 C1564 0.951 . S
H1546 C1566 0.950 . S
H1547 C1567 0.950 . S
H1548 C1569 0.950 . S
H1549 C1572 0.950 . S
H1550 C1573 0.950 . S
H1551 C1575 0.950 . S
H1552 C1576 0.950 . S
H1553 C1577 0.951 . S
H1554 C1579 0.951 . S
H1555 C1581 0.950 . S
H1556 C1582 0.950 . S
H1557 C1584 0.950 . S
H1558 C1587 0.950 . S
H1559 C1588 0.950 . S
H1560 C1590 0.950 . S
H1561 C1591 0.950 . S
C1562 H1544 0.951 . S
C1562 C1563 1.366 . S
C1562 C1564 1.388 . S
C1563 C1562 1.366 . S
C1563 C1567 1.385 . S
C1564 H1545 0.951 . S
C1564 C1562 1.388 . S
C1564 C1565 1.366 . S
C1565 C1564 1.366 . S
C1565 C1566 1.414 . S
C1565 C1568 1.499 . S
C1566 H1546 0.950 . S
C1566 C1565 1.414 . S
C1566 C1567 1.374 . S
C1567 H1547 0.950 . S
C1567 C1563 1.385 . S
C1567 C1566 1.374 . S
C1568 C1565 1.499 . S
C1568 C1569 1.373 . S
C1568 C1570 1.389 . S
C1569 H1548 0.950 . S
C1569 C1568 1.373 . S
C1569 C1585 1.377 . S
C1570 C1568 1.389 . S
C1570 C1571 1.524 . S
C1570 C1584 1.377 . S
C1571 C1570 1.524 . S
C1571 C1572 1.397 . S
C1571 C1576 1.363 . S
C1572 H1549 0.950 . S
C1572 C1571 1.397 . S
C1572 C1573 1.334 . S
C1573 H1550 0.950 . S
C1573 C1572 1.334 . S
C1573 C1574 1.287 . S
C1574 C1573 1.287 . S
C1574 C1575 1.524 . S
C1574 H1593 0.913 . S
C1575 H1551 0.950 . S
C1575 C1574 1.524 . S
C1575 C1576 1.415 . S
C1576 H1552 0.950 . S
C1576 C1571 1.363 . S
C1576 C1575 1.415 . S
C1577 H1553 0.951 . S
C1577 C1578 1.366 . S
C1577 C1579 1.388 . S
C1578 C1577 1.366 . S
C1578 C1582 1.385 . S
C1579 H1554 0.951 . S
C1579 C1577 1.388 . S
C1579 C1580 1.366 . S
C1580 C1579 1.366 . S
C1580 C1581 1.414 . S
C1580 C1583 1.499 . S
C1581 H1555 0.950 . S
C1581 C1580 1.414 . S
C1581 C1582 1.374 . S
C1582 H1556 0.950 . S
C1582 C1578 1.385 . S
C1582 C1581 1.374 . S
C1583 C1580 1.499 . S
C1583 C1584 1.373 . S
C1583 C1585 1.389 . S
C1584 H1557 0.950 . S
C1584 C1570 1.377 . S
C1584 C1583 1.373 . S
C1585 C1569 1.377 . S
C1585 C1583 1.389 . S
C1585 C1586 1.524 . S
C1586 C1585 1.524 . S
C1586 C1587 1.397 . S
C1586 C1591 1.363 . S
C1587 H1558 0.950 . S
C1587 C1586 1.397 . S
C1587 C1588 1.334 . S
C1588 H1559 0.950 . S
C1588 C1587 1.334 . S
C1588 C1589 1.287 . S
C1589 C1588 1.287 . S
C1589 C1590 1.524 . S
C1589 H1592 0.999 . S
C1590 H1560 0.950 . S
C1590 C1589 1.524 . S
C1590 C1591 1.415 . S
C1591 H1561 0.950 . S
C1591 C1586 1.363 . S
C1591 C1590 1.415 . S
H1592 C1589 0.999 . S
H1593 C1574 0.913 . S
H1594 C1612 0.951 . S
H1595 C1614 0.951 . S
H1596 C1616 0.950 . S
H1597 C1617 0.950 . S
H1598 C1619 0.950 . S
H1599 C1622 0.950 . S
H1600 C1623 0.950 . S
H1601 C1625 0.950 . S
H1602 C1626 0.950 . S
H1603 C1627 0.951 . S
H1604 C1629 0.951 . S
H1605 C1631 0.950 . S
H1606 C1632 0.950 . S
H1607 C1634 0.950 . S
H1608 C1637 0.950 . S
H1609 C1638 0.950 . S
H1610 C1640 0.950 . S
H1611 C1641 0.950 . S
C1612 H1594 0.951 . S
C1612 C1613 1.366 . S
C1612 C1614 1.388 . S
C1613 C1612 1.366 . S
C1613 C1617 1.385 . S
C1614 H1595 0.951 . S
C1614 C1612 1.388 . S
C1614 C1615 1.366 . S
C1615 C1614 1.366 . S
C1615 C1616 1.414 . S
C1615 C1618 1.499 . S
C1616 H1596 0.950 . S
C1616 C1615 1.414 . S
C1616 C1617 1.374 . S
C1617 H1597 0.950 . S
C1617 C1613 1.385 . S
C1617 C1616 1.374 . S
C1618 C1615 1.499 . S
C1618 C1619 1.373 . S
C1618 C1620 1.389 . S
C1619 H1598 0.950 . S
C1619 C1618 1.373 . S
C1619 C1635 1.377 . S
C1620 C1618 1.389 . S
C1620 C1621 1.524 . S
C1620 C1634 1.377 . S
C1621 C1620 1.524 . S
C1621 C1622 1.397 . S
C1621 C1626 1.363 . S
C1622 H1599 0.950 . S
C1622 C1621 1.397 . S
C1622 C1623 1.334 . S
C1623 H1600 0.950 . S
C1623 C1622 1.334 . S
C1623 C1624 1.287 . S
C1624 C1623 1.287 . S
C1624 C1625 1.524 . S
C1624 H1643 0.913 . S
C1625 H1601 0.950 . S
C1625 C1624 1.524 . S
C1625 C1626 1.415 . S
C1626 H1602 0.950 . S
C1626 C1621 1.363 . S
C1626 C1625 1.415 . S
C1627 H1603 0.951 . S
C1627 C1628 1.366 . S
C1627 C1629 1.388 . S
C1628 C1627 1.366 . S
C1628 C1632 1.385 . S
C1629 H1604 0.951 . S
C1629 C1627 1.388 . S
C1629 C1630 1.366 . S
C1630 C1629 1.366 . S
C1630 C1631 1.414 . S
C1630 C1633 1.499 . S
C1631 H1605 0.950 . S
C1631 C1630 1.414 . S
C1631 C1632 1.374 . S
C1632 H1606 0.950 . S
C1632 C1628 1.385 . S
C1632 C1631 1.374 . S
C1633 C1630 1.499 . S
C1633 C1634 1.373 . S
C1633 C1635 1.389 . S
C1634 H1607 0.950 . S
C1634 C1620 1.377 . S
C1634 C1633 1.373 . S
C1635 C1619 1.377 . S
C1635 C1633 1.389 . S
C1635 C1636 1.524 . S
C1636 C1635 1.524 . S
C1636 C1637 1.397 . S
C1636 C1641 1.363 . S
C1637 H1608 0.950 . S
C1637 C1636 1.397 . S
C1637 C1638 1.334 . S
C1638 H1609 0.950 . S
C1638 C1637 1.334 . S
C1638 C1639 1.287 . S
C1639 C1638 1.287 . S
C1639 C1640 1.524 . S
C1639 H1642 0.999 . S
C1640 H1610 0.950 . S
C1640 C1639 1.524 . S
C1640 C1641 1.415 . S
C1641 H1611 0.950 . S
C1641 C1636 1.363 . S
C1641 C1640 1.415 . S
H1642 C1639 0.999 . S
H1643 C1624 0.913 . S
H1644 C1662 0.951 . S
H1645 C1664 0.951 . S
H1646 C1666 0.950 . S
H1647 C1667 0.950 . S
H1648 C1669 0.950 . S
H1649 C1672 0.950 . S
H1650 C1673 0.950 . S
H1651 C1675 0.950 . S
H1652 C1676 0.950 . S
H1653 C1677 0.951 . S
H1654 C1679 0.951 . S
H1655 C1681 0.950 . S
H1656 C1682 0.950 . S
H1657 C1684 0.950 . S
H1658 C1687 0.950 . S
H1659 C1688 0.950 . S
H1660 C1690 0.950 . S
H1661 C1691 0.950 . S
C1662 H1644 0.951 . S
C1662 C1663 1.366 . S
C1662 C1664 1.388 . S
C1663 C1662 1.366 . S
C1663 C1667 1.385 . S
C1664 H1645 0.951 . S
C1664 C1662 1.388 . S
C1664 C1665 1.366 . S
C1665 C1664 1.366 . S
C1665 C1666 1.414 . S
C1665 C1668 1.499 . S
C1666 H1646 0.950 . S
C1666 C1665 1.414 . S
C1666 C1667 1.374 . S
C1667 H1647 0.950 . S
C1667 C1663 1.385 . S
C1667 C1666 1.374 . S
C1668 C1665 1.499 . S
C1668 C1669 1.373 . S
C1668 C1670 1.389 . S
C1669 H1648 0.950 . S
C1669 C1668 1.373 . S
C1669 C1685 1.377 . S
C1670 C1668 1.389 . S
C1670 C1671 1.524 . S
C1670 C1684 1.377 . S
C1671 C1670 1.524 . S
C1671 C1672 1.397 . S
C1671 C1676 1.363 . S
C1672 H1649 0.950 . S
C1672 C1671 1.397 . S
C1672 C1673 1.334 . S
C1673 H1650 0.950 . S
C1673 C1672 1.334 . S
C1673 C1674 1.287 . S
C1674 C1673 1.287 . S
C1674 C1675 1.524 . S
C1674 H1693 0.913 . S
C1675 H1651 0.950 . S
C1675 C1674 1.524 . S
C1675 C1676 1.415 . S
C1676 H1652 0.950 . S
C1676 C1671 1.363 . S
C1676 C1675 1.415 . S
C1677 H1653 0.951 . S
C1677 C1678 1.366 . S
C1677 C1679 1.388 . S
C1678 C1677 1.366 . S
C1678 C1682 1.385 . S
C1679 H1654 0.951 . S
C1679 C1677 1.388 . S
C1679 C1680 1.366 . S
C1680 C1679 1.366 . S
C1680 C1681 1.414 . S
C1680 C1683 1.499 . S
C1681 H1655 0.950 . S
C1681 C1680 1.414 . S
C1681 C1682 1.374 . S
C1682 H1656 0.950 . S
C1682 C1678 1.385 . S
C1682 C1681 1.374 . S
C1683 C1680 1.499 . S
C1683 C1684 1.373 . S
C1683 C1685 1.389 . S
C1684 H1657 0.950 . S
C1684 C1670 1.377 . S
C1684 C1683 1.373 . S
C1685 C1669 1.377 . S
C1685 C1683 1.389 . S
C1685 C1686 1.524 . S
C1686 C1685 1.524 . S
C1686 C1687 1.397 . S
C1686 C1691 1.363 . S
C1687 H1658 0.950 . S
C1687 C1686 1.397 . S
C1687 C1688 1.334 . S
C1688 H1659 0.950 . S
C1688 C1687 1.334 . S
C1688 C1689 1.287 . S
C1689 C1688 1.287 . S
C1689 C1690 1.524 . S
C1689 H1692 0.999 . S
C1690 H1660 0.950 . S
C1690 C1689 1.524 . S
C1690 C1691 1.415 . S
C1691 H1661 0.950 . S
C1691 C1686 1.363 . S
C1691 C1690 1.415 . S
H1692 C1689 0.999 . S
H1693 C1674 0.913 . S
H1694 C1712 0.951 . S
H1695 C1714 0.951 . S
H1696 C1716 0.950 . S
H1697 C1717 0.950 . S
H1698 C1719 0.950 . S
H1699 C1722 0.950 . S
H1700 C1723 0.950 . S
H1701 C1725 0.950 . S
H1702 C1726 0.950 . S
H1703 C1727 0.951 . S
H1704 C1729 0.951 . S
H1705 C1731 0.950 . S
H1706 C1732 0.950 . S
H1707 C1734 0.950 . S
H1708 C1737 0.950 . S
H1709 C1738 0.950 . S
H1710 C1740 0.950 . S
H1711 C1741 0.950 . S
C1712 H1694 0.951 . S
C1712 C1713 1.366 . S
C1712 C1714 1.388 . S
C1713 C1712 1.366 . S
C1713 C1717 1.385 . S
C1714 H1695 0.951 . S
C1714 C1712 1.388 . S
C1714 C1715 1.366 . S
C1715 C1714 1.366 . S
C1715 C1716 1.414 . S
C1715 C1718 1.499 . S
C1716 H1696 0.950 . S
C1716 C1715 1.414 . S
C1716 C1717 1.374 . S
C1717 H1697 0.950 . S
C1717 C1713 1.385 . S
C1717 C1716 1.374 . S
C1718 C1715 1.499 . S
C1718 C1719 1.373 . S
C1718 C1720 1.389 . S
C1719 H1698 0.950 . S
C1719 C1718 1.373 . S
C1719 C1735 1.377 . S
C1720 C1718 1.389 . S
C1720 C1721 1.524 . S
C1720 C1734 1.377 . S
C1721 C1720 1.524 . S
C1721 C1722 1.397 . S
C1721 C1726 1.363 . S
C1722 H1699 0.950 . S
C1722 C1721 1.397 . S
C1722 C1723 1.334 . S
C1723 H1700 0.950 . S
C1723 C1722 1.334 . S
C1723 C1724 1.287 . S
C1724 C1723 1.287 . S
C1724 C1725 1.524 . S
C1724 H1743 0.913 . S
C1725 H1701 0.950 . S
C1725 C1724 1.524 . S
C1725 C1726 1.415 . S
C1726 H1702 0.950 . S
C1726 C1721 1.363 . S
C1726 C1725 1.415 . S
C1727 H1703 0.951 . S
C1727 C1728 1.366 . S
C1727 C1729 1.388 . S
C1728 C1727 1.366 . S
C1728 C1732 1.385 . S
C1729 H1704 0.951 . S
C1729 C1727 1.388 . S
C1729 C1730 1.366 . S
C1730 C1729 1.366 . S
C1730 C1731 1.414 . S
C1730 C1733 1.499 . S
C1731 H1705 0.950 . S
C1731 C1730 1.414 . S
C1731 C1732 1.374 . S
C1732 H1706 0.950 . S
C1732 C1728 1.385 . S
C1732 C1731 1.374 . S
C1733 C1730 1.499 . S
C1733 C1734 1.373 . S
C1733 C1735 1.389 . S
C1734 H1707 0.950 . S
C1734 C1720 1.377 . S
C1734 C1733 1.373 . S
C1735 C1719 1.377 . S
C1735 C1733 1.389 . S
C1735 C1736 1.524 . S
C1736 C1735 1.524 . S
C1736 C1737 1.397 . S
C1736 C1741 1.363 . S
C1737 H1708 0.950 . S
C1737 C1736 1.397 . S
C1737 C1738 1.334 . S
C1738 H1709 0.950 . S
C1738 C1737 1.334 . S
C1738 C1739 1.287 . S
C1739 C1738 1.287 . S
C1739 C1740 1.524 . S
C1739 H1742 0.999 . S
C1740 H1710 0.950 . S
C1740 C1739 1.524 . S
C1740 C1741 1.415 . S
C1741 H1711 0.950 . S
C1741 C1736 1.363 . S
C1741 C1740 1.415 . S
H1742 C1739 0.999 . S
H1743 C1724 0.913 . S
H1744 C1762 0.951 . S
H1745 C1764 0.951 . S
H1746 C1766 0.950 . S
H1747 C1767 0.950 . S
H1748 C1769 0.950 . S
H1749 C1772 0.950 . S
H1750 C1773 0.950 . S
H1751 C1775 0.950 . S
H1752 C1776 0.950 . S
H1753 C1777 0.951 . S
H1754 C1779 0.951 . S
H1755 C1781 0.950 . S
H1756 C1782 0.950 . S
H1757 C1784 0.950 . S
H1758 C1787 0.950 . S
H1759 C1788 0.950 . S
H1760 C1790 0.950 . S
H1761 C1791 0.950 . S
C1762 H1744 0.951 . S
C1762 C1763 1.366 . S
C1762 C1764 1.388 . S
C1763 C1762 1.366 . S
C1763 C1767 1.385 . S
C1764 H1745 0.951 . S
C1764 C1762 1.388 . S
C1764 C1765 1.366 . S
C1765 C1764 1.366 . S
C1765 C1766 1.414 . S
C1765 C1768 1.499 . S
C1766 H1746 0.950 . S
C1766 C1765 1.414 . S
C1766 C1767 1.374 . S
C1767 H1747 0.950 . S
C1767 C1763 1.385 . S
C1767 C1766 1.374 . S
C1768 C1765 1.499 . S
C1768 C1769 1.373 . S
C1768 C1770 1.389 . S
C1769 H1748 0.950 . S
C1769 C1768 1.373 . S
C1769 C1785 1.377 . S
C1770 C1768 1.389 . S
C1770 C1771 1.524 . S
C1770 C1784 1.377 . S
C1771 C1770 1.524 . S
C1771 C1772 1.397 . S
C1771 C1776 1.363 . S
C1772 H1749 0.950 . S
C1772 C1771 1.397 . S
C1772 C1773 1.334 . S
C1773 H1750 0.950 . S
C1773 C1772 1.334 . S
C1773 C1774 1.287 . S
C1774 C1773 1.287 . S
C1774 C1775 1.524 . S
C1774 H1793 0.913 . S
C1775 H1751 0.950 . S
C1775 C1774 1.524 . S
C1775 C1776 1.415 . S
C1776 H1752 0.950 . S
C1776 C1771 1.363 . S
C1776 C1775 1.415 . S
C1777 H1753 0.951 . S
C1777 C1778 1.366 . S
C1777 C1779 1.388 . S
C1778 C1777 1.366 . S
C1778 C1782 1.385 . S
C1779 H1754 0.951 . S
C1779 C1777 1.388 . S
C1779 C1780 1.366 . S
C1780 C1779 1.366 . S
C1780 C1781 1.414 . S
C1780 C1783 1.499 . S
C1781 H1755 0.950 . S
C1781 C1780 1.414 . S
C1781 C1782 1.374 . S
C1782 H1756 0.950 . S
C1782 C1778 1.385 . S
C1782 C1781 1.374 . S
C1783 C1780 1.499 . S
C1783 C1784 1.373 . S
C1783 C1785 1.389 . S
C1784 H1757 0.950 . S
C1784 C1770 1.377 . S
C1784 C1783 1.373 . S
C1785 C1769 1.377 . S
C1785 C1783 1.389 . S
C1785 C1786 1.524 . S
C1786 C1785 1.524 . S
C1786 C1787 1.397 . S
C1786 C1791 1.363 . S
C1787 H1758 0.950 . S
C1787 C1786 1.397 . S
C1787 C1788 1.334 . S
C1788 H1759 0.950 . S
C1788 C1787 1.334 . S
C1788 C1789 1.287 . S
C1789 C1788 1.287 . S
C1789 C1790 1.524 . S
C1789 H1792 0.999 . S
C1790 H1760 0.950 . S
C1790 C1789 1.524 . S
C1790 C1791 1.415 . S
C1791 H1761 0.950 . S
C1791 C1786 1.363 . S
C1791 C1790 1.415 . S
H1792 C1789 0.999 . S
H1793 C1774 0.913 . S
H1794 C1812 0.951 . S
H1795 C1814 0.951 . S
H1796 C1816 0.950 . S
H1797 C1817 0.950 . S
H1798 C1819 0.950 . S
H1799 C1822 0.950 . S
H1800 C1823 0.950 . S
H1801 C1825 0.950 . S
H1802 C1826 0.950 . S
H1803 C1827 0.951 . S
H1804 C1829 0.951 . S
H1805 C1831 0.950 . S
H1806 C1832 0.950 . S
H1807 C1834 0.950 . S
H1808 C1837 0.950 . S
H1809 C1838 0.950 . S
H1810 C1840 0.950 . S
H1811 C1841 0.950 . S
C1812 H1794 0.951 . S
C1812 C1813 1.366 . S
C1812 C1814 1.388 . S
C1813 C1812 1.366 . S
C1813 C1817 1.385 . S
C1814 H1795 0.951 . S
C1814 C1812 1.388 . S
C1814 C1815 1.366 . S
C1815 C1814 1.366 . S
C1815 C1816 1.414 . S
C1815 C1818 1.499 . S
C1816 H1796 0.950 . S
C1816 C1815 1.414 . S
C1816 C1817 1.374 . S
C1817 H1797 0.950 . S
C1817 C1813 1.385 . S
C1817 C1816 1.374 . S
C1818 C1815 1.499 . S
C1818 C1819 1.373 . S
C1818 C1820 1.389 . S
C1819 H1798 0.950 . S
C1819 C1818 1.373 . S
C1819 C1835 1.377 . S
C1820 C1818 1.389 . S
C1820 C1821 1.524 . S
C1820 C1834 1.377 . S
C1821 C1820 1.524 . S
C1821 C1822 1.397 . S
C1821 C1826 1.363 . S
C1822 H1799 0.950 . S
C1822 C1821 1.397 . S
C1822 C1823 1.334 . S
C1823 H1800 0.950 . S
C1823 C1822 1.334 . S
C1823 C1824 1.287 . S
C1824 C1823 1.287 . S
C1824 C1825 1.524 . S
C1824 H1843 0.913 . S
C1825 H1801 0.950 . S
C1825 C1824 1.524 . S
C1825 C1826 1.415 . S
C1826 H1802 0.950 . S
C1826 C1821 1.363 . S
C1826 C1825 1.415 . S
C1827 H1803 0.951 . S
C1827 C1828 1.366 . S
C1827 C1829 1.388 . S
C1828 C1827 1.366 . S
C1828 C1832 1.385 . S
C1829 H1804 0.951 . S
C1829 C1827 1.388 . S
C1829 C1830 1.366 . S
C1830 C1829 1.366 . S
C1830 C1831 1.414 . S
C1830 C1833 1.499 . S
C1831 H1805 0.950 . S
C1831 C1830 1.414 . S
C1831 C1832 1.374 . S
C1832 H1806 0.950 . S
C1832 C1828 1.385 . S
C1832 C1831 1.374 . S
C1833 C1830 1.499 . S
C1833 C1834 1.373 . S
C1833 C1835 1.389 . S
C1834 H1807 0.950 . S
C1834 C1820 1.377 . S
C1834 C1833 1.373 . S
C1835 C1819 1.377 . S
C1835 C1833 1.389 . S
C1835 C1836 1.524 . S
C1836 C1835 1.524 . S
C1836 C1837 1.397 . S
C1836 C1841 1.363 . S
C1837 H1808 0.950 . S
C1837 C1836 1.397 . S
C1837 C1838 1.334 . S
C1838 H1809 0.950 . S
C1838 C1837 1.334 . S
C1838 C1839 1.287 . S
C1839 C1838 1.287 . S
C1839 C1840 1.524 . S
C1839 H1842 0.999 . S
C1840 H1810 0.950 . S
C1840 C1839 1.524 . S
C1840 C1841 1.415 . S
C1841 H1811 0.950 . S
C1841 C1836 1.363 . S
C1841 C1840 1.415 . S
H1842 C1839 0.999 . S
H1843 C1824 0.913 . S
H1844 C1862 0.951 . S
H1845 C1864 0.951 . S
H1846 C1866 0.950 . S
H1847 C1867 0.950 . S
H1848 C1869 0.950 . S
H1849 C1872 0.950 . S
H1850 C1873 0.950 . S
H1851 C1875 0.950 . S
H1852 C1876 0.950 . S
H1853 C1877 0.951 . S
H1854 C1879 0.951 . S
H1855 C1881 0.950 . S
H1856 C1882 0.950 . S
H1857 C1884 0.950 . S
H1858 C1887 0.950 . S
H1859 C1888 0.950 . S
H1860 C1890 0.950 . S
H1861 C1891 0.950 . S
C1862 H1844 0.951 . S
C1862 C1863 1.366 . S
C1862 C1864 1.388 . S
C1863 C1862 1.366 . S
C1863 C1867 1.385 . S
C1864 H1845 0.951 . S
C1864 C1862 1.388 . S
C1864 C1865 1.366 . S
C1865 C1864 1.366 . S
C1865 C1866 1.414 . S
C1865 C1868 1.499 . S
C1866 H1846 0.950 . S
C1866 C1865 1.414 . S
C1866 C1867 1.374 . S
C1867 H1847 0.950 . S
C1867 C1863 1.385 . S
C1867 C1866 1.374 . S
C1868 C1865 1.499 . S
C1868 C1869 1.373 . S
C1868 C1870 1.389 . S
C1869 H1848 0.950 . S
C1869 C1868 1.373 . S
C1869 C1885 1.377 . S
C1870 C1868 1.389 . S
C1870 C1871 1.524 . S
C1870 C1884 1.377 . S
C1871 C1870 1.524 . S
C1871 C1872 1.397 . S
C1871 C1876 1.363 . S
C1872 H1849 0.950 . S
C1872 C1871 1.397 . S
C1872 C1873 1.334 . S
C1873 H1850 0.950 . S
C1873 C1872 1.334 . S
C1873 C1874 1.287 . S
C1874 C1873 1.287 . S
C1874 C1875 1.524 . S
C1874 H1893 0.913 . S
C1875 H1851 0.950 . S
C1875 C1874 1.524 . S
C1875 C1876 1.415 . S
C1876 H1852 0.950 . S
C1876 C1871 1.363 . S
C1876 C1875 1.415 . S
C1877 H1853 0.951 . S
C1877 C1878 1.366 . S
C1877 C1879 1.388 . S
C1878 C1877 1.366 . S
C1878 C1882 1.385 . S
C1879 H1854 0.951 . S
C1879 C1877 1.388 . S
C1879 C1880 1.366 . S
C1880 C1879 1.366 . S
C1880 C1881 1.414 . S
C1880 C1883 1.499 . S
C1881 H1855 0.950 . S
C1881 C1880 1.414 . S
C1881 C1882 1.374 . S
C1882 H1856 0.950 . S
C1882 C1878 1.385 . S
C1882 C1881 1.374 . S
C1883 C1880 1.499 . S
C1883 C1884 1.373 . S
C1883 C1885 1.389 . S
C1884 H1857 0.950 . S
C1884 C1870 1.377 . S
C1884 C1883 1.373 . S
C1885 C1869 1.377 . S
C1885 C1883 1.389 . S
C1885 C1886 1.524 . S
C1886 C1885 1.524 . S
C1886 C1887 1.397 . S
C1886 C1891 1.363 . S
C1887 H1858 0.950 . S
C1887 C1886 1.397 . S
C1887 C1888 1.334 . S
C1888 H1859 0.950 . S
C1888 C1887 1.334 . S
C1888 C1889 1.287 . S
C1889 C1888 1.287 . S
C1889 C1890 1.524 . S
C1889 H1892 0.999 . S
C1890 H1860 0.950 . S
C1890 C1889 1.524 . S
C1890 C1891 1.415 . S
C1891 H1861 0.950 . S
C1891 C1886 1.363 . S
C1891 C1890 1.415 . S
H1892 C1889 0.999 . S
H1893 C1874 0.913 . S
H1894 C1912 0.951 . S
H1895 C1914 0.951 . S
H1896 C1916 0.950 . S
H1897 C1917 0.950 . S
H1898 C1919 0.950 . S
H1899 C1922 0.950 . S
H1900 C1923 0.950 . S
H1901 C1925 0.950 . S
H1902 C1926 0.950 . S
H1903 C1927 0.951 . S
H1904 C1929 0.951 . S
H1905 C1931 0.950 . S
H1906 C1932 0.950 . S
H1907 C1934 0.950 . S
H1908 C1937 0.950 . S
H1909 C1938 0.950 . S
H1910 C1940 0.950 . S
H1911 C1941 0.950 . S
C1912 H1894 0.951 . S
C1912 C1913 1.366 . S
C1912 C1914 1.388 . S
C1913 C1912 1.366 . S
C1913 C1917 1.385 . S
C1914 H1895 0.951 . S
C1914 C1912 1.388 . S
C1914 C1915 1.366 . S
C1915 C1914 1.366 . S
C1915 C1916 1.414 . S
C1915 C1918 1.499 . S
C1916 H1896 0.950 . S
C1916 C1915 1.414 . S
C1916 C1917 1.374 . S
C1917 H1897 0.950 . S
C1917 C1913 1.385 . S
C1917 C1916 1.374 . S
C1918 C1915 1.499 . S
C1918 C1919 1.373 . S
C1918 C1920 1.389 . S
C1919 H1898 0.950 . S
C1919 C1918 1.373 . S
C1919 C1935 1.377 . S
C1920 C1918 1.389 . S
C1920 C1921 1.524 . S
C1920 C1934 1.377 . S
C1921 C1920 1.524 . S
C1921 C1922 1.397 . S
C1921 C1926 1.363 . S
C1922 H1899 0.950 . S
C1922 C1921 1.397 . S
C1922 C1923 1.334 . S
C1923 H1900 0.950 . S
C1923 C1922 1.334 . S
C1923 C1924 1.287 . S
C1924 C1923 1.287 . S
C1924 C1925 1.524 . S
C1924 H1943 0.913 . S
C1925 H1901 0.950 . S
C1925 C1924 1.524 . S
C1925 C1926 1.415 . S
C1926 H1902 0.950 . S
C1926 C1921 1.363 . S
C1926 C1925 1.415 . S
C1927 H1903 0.951 . S
C1927 C1928 1.366 . S
C1927 C1929 1.388 . S
C1928 C1927 1.366 . S
C1928 C1932 1.385 . S
C1929 H1904 0.951 . S
C1929 C1927 1.388 . S
C1929 C1930 1.366 . S
C1930 C1929 1.366 . S
C1930 C1931 1.414 . S
C1930 C1933 1.499 . S
C1931 H1905 0.950 . S
C1931 C1930 1.414 . S
C1931 C1932 1.374 . S
C1932 H1906 0.950 . S
C1932 C1928 1.385 . S
C1932 C1931 1.374 . S
C1933 C1930 1.499 . S
C1933 C1934 1.373 . S
C1933 C1935 1.389 . S
C1934 H1907 0.950 . S
C1934 C1920 1.377 . S
C1934 C1933 1.373 . S
C1935 C1919 1.377 . S
C1935 C1933 1.389 . S
C1935 C1936 1.524 . S
C1936 C1935 1.524 . S
C1936 C1937 1.397 . S
C1936 C1941 1.363 . S
C1937 H1908 0.950 . S
C1937 C1936 1.397 . S
C1937 C1938 1.334 . S
C1938 H1909 0.950 . S
C1938 C1937 1.334 . S
C1938 C1939 1.287 . S
C1939 C1938 1.287 . S
C1939 C1940 1.524 . S
C1939 H1942 0.999 . S
C1940 H1910 0.950 . S
C1940 C1939 1.524 . S
C1940 C1941 1.415 . S
C1941 H1911 0.950 . S
C1941 C1936 1.363 . S
C1941 C1940 1.415 . S
H1942 C1939 0.999 . S
H1943 C1924 0.913 . S
H1944 C1962 0.951 . S
H1945 C1964 0.951 . S
H1946 C1966 0.950 . S
H1947 C1967 0.950 . S
H1948 C1969 0.950 . S
H1949 C1972 0.950 . S
H1950 C1973 0.950 . S
H1951 C1975 0.950 . S
H1952 C1976 0.950 . S
H1953 C1977 0.951 . S
H1954 C1979 0.951 . S
H1955 C1981 0.950 . S
H1956 C1982 0.950 . S
H1957 C1984 0.950 . S
H1958 C1987 0.950 . S
H1959 C1988 0.950 . S
H1960 C1990 0.950 . S
H1961 C1991 0.950 . S
C1962 H1944 0.951 . S
C1962 C1963 1.366 . S
C1962 C1964 1.388 . S
C1963 C1962 1.366 . S
C1963 C1967 1.385 . S
C1964 H1945 0.951 . S
C1964 C1962 1.388 . S
C1964 C1965 1.366 . S
C1965 C1964 1.366 . S
C1965 C1966 1.414 . S
C1965 C1968 1.499 . S
C1966 H1946 0.950 . S
C1966 C1965 1.414 . S
C1966 C1967 1.374 . S
C1967 H1947 0.950 . S
C1967 C1963 1.385 . S
C1967 C1966 1.374 . S
C1968 C1965 1.499 . S
C1968 C1969 1.373 . S
C1968 C1970 1.389 . S
C1969 H1948 0.950 . S
C1969 C1968 1.373 . S
C1969 C1985 1.377 . S
C1970 C1968 1.389 . S
C1970 C1971 1.524 . S
C1970 C1984 1.377 . S
C1971 C1970 1.524 . S
C1971 C1972 1.397 . S
C1971 C1976 1.363 . S
C1972 H1949 0.950 . S
C1972 C1971 1.397 . S
C1972 C1973 1.334 . S
C1973 H1950 0.950 . S
C1973 C1972 1.334 . S
C1973 C1974 1.287 . S
C1974 C1973 1.287 . S
C1974 C1975 1.524 . S
C1974 H1993 0.913 . S
C1975 H1951 0.950 . S
C1975 C1974 1.524 . S
C1975 C1976 1.415 . S
C1976 H1952 0.950 . S
C1976 C1971 1.363 . S
C1976 C1975 1.415 . S
C1977 H1953 0.951 . S
C1977 C1978 1.366 . S
C1977 C1979 1.388 . S
C1978 C1977 1.366 . S
C1978 C1982 1.385 . S
C1979 H1954 0.951 . S
C1979 C1977 1.388 . S
C1979 C1980 1.366 . S
C1980 C1979 1.366 . S
C1980 C1981 1.414 . S
C1980 C1983 1.499 . S
C1981 H1955 0.950 . S
C1981 C1980 1.414 . S
C1981 C1982 1.374 . S
C1982 H1956 0.950 . S
C1982 C1978 1.385 . S
C1982 C1981 1.374 . S
C1983 C1980 1.499 . S
C1983 C1984 1.373 . S
C1983 C1985 1.389 . S
C1984 H1957 0.950 . S
C1984 C1970 1.377 . S
C1984 C1983 1.373 . S
C1985 C1969 1.377 . S
C1985 C1983 1.389 . S
C1985 C1986 1.524 . S
C1986 C1985 1.524 . S
C1986 C1987 1.397 . S
C1986 C1991 1.363 . S
C1987 H1958 0.950 . S
C1987 C1986 1.397 . S
C1987 C1988 1.334 . S
C1988 H1959 0.950 . S
C1988 C1987 1.334 . S
C1988 C1989 1.287 . S
C1989 C1988 1.287 . S
C1989 C1990 1.524 . S
C1989 H1992 0.999 . S
C1990 H1960 0.950 . S
C1990 C1989 1.524 . S
C1990 C1991 1.415 . S
C1991 H1961 0.950 . S
C1991 C1986 1.363 . S
C1991 C1990 1.415 . S
H1992 C1989 0.999 . S
H1993 C1974 0.913 . S
H1994 C2012 0.951 . S
H1995 C2014 0.951 . S
H1996 C2016 0.950 . S
H1997 C2017 0.950 . S
H1998 C2019 0.950 . S
H1999 C2022 0.950 . S
H2000 C2023 0.950 . S
H2001 C2025 0.950 . S
H2002 C2026 0.950 . S
H2003 C2027 0.951 . S
H2004 C2029 0.951 . S
H2005 C2031 0.950 . S
H2006 C2032 0.950 . S
H2007 C2034 0.950 . S
H2008 C2037 0.950 . S
H2009 C2038 0.950 . S
H2010 C2040 0.950 . S
H2011 C2041 0.950 . S
C2012 H1994 0.951 . S
C2012 C2013 1.366 . S
C2012 C2014 1.388 . S
C2013 C2012 1.366 . S
C2013 C2017 1.385 . S
C2014 H1995 0.951 . S
C2014 C2012 1.388 . S
C2014 C2015 1.366 . S
C2015 C2014 1.366 . S
C2015 C2016 1.414 . S
C2015 C2018 1.499 . S
C2016 H1996 0.950 . S
C2016 C2015 1.414 . S
C2016 C2017 1.374 . S
C2017 H1997 0.950 . S
C2017 C2013 1.385 . S
C2017 C2016 1.374 . S
C2018 C2015 1.499 . S
C2018 C2019 1.373 . S
C2018 C2020 1.389 . S
C2019 H1998 0.950 . S
C2019 C2018 1.373 . S
C2019 C2035 1.377 . S
C2020 C2018 1.389 . S
C2020 C2021 1.524 . S
C2020 C2034 1.377 . S
C2021 C2020 1.524 . S
C2021 C2022 1.397 . S
C2021 C2026 1.363 . S
C2022 H1999 0.950 . S
C2022 C2021 1.397 . S
C2022 C2023 1.334 . S
C2023 H2000 0.950 . S
C2023 C2022 1.334 . S
C2023 C2024 1.287 . S
C2024 C2023 1.287 . S
C2024 C2025 1.524 . S
C2024 H2043 0.913 . S
C2025 H2001 0.950 . S
C2025 C2024 1.524 . S
C2025 C2026 1.415 . S
C2026 H2002 0.950 . S
C2026 C2021 1.363 . S
C2026 C2025 1.415 . S
C2027 H2003 0.951 . S
C2027 C2028 1.366 . S
C2027 C2029 1.388 . S
C2028 C2027 1.366 . S
C2028 C2032 1.385 . S
C2029 H2004 0.951 . S
C2029 C2027 1.388 . S
C2029 C2030 1.366 . S
C2030 C2029 1.366 . S
C2030 C2031 1.414 . S
C2030 C2033 1.499 . S
C2031 H2005 0.950 . S
C2031 C2030 1.414 . S
C2031 C2032 1.374 . S
C2032 H2006 0.950 . S
C2032 C2028 1.385 . S
C2032 C2031 1.374 . S
C2033 C2030 1.499 . S
C2033 C2034 1.373 . S
C2033 C2035 1.389 . S
C2034 H2007 0.950 . S
C2034 C2020 1.377 . S
C2034 C2033 1.373 . S
C2035 C2019 1.377 . S
C2035 C2033 1.389 . S
C2035 C2036 1.524 . S
C2036 C2035 1.524 . S
C2036 C2037 1.397 . S
C2036 C2041 1.363 . S
C2037 H2008 0.950 . S
C2037 C2036 1.397 . S
C2037 C2038 1.334 . S
C2038 H2009 0.950 . S
C2038 C2037 1.334 . S
C2038 C2039 1.287 . S
C2039 C2038 1.287 . S
C2039 C2040 1.524 . S
C2039 H2042 0.999 . S
C2040 H2010 0.950 . S
C2040 C2039 1.524 . S
C2040 C2041 1.415 . S
C2041 H2011 0.950 . S
C2041 C2036 1.363 . S
C2041 C2040 1.415 . S
H2042 C2039 0.999 . S
H2043 C2024 0.913 . S
H2044 C2062 0.951 . S
H2045 C2064 0.951 . S
H2046 C2066 0.950 . S
H2047 C2067 0.950 . S
H2048 C2069 0.950 . S
H2049 C2072 0.950 . S
H2050 C2073 0.950 . S
H2051 C2075 0.950 . S
H2052 C2076 0.950 . S
H2053 C2077 0.951 . S
H2054 C2079 0.951 . S
H2055 C2081 0.950 . S
H2056 C2082 0.950 . S
H2057 C2084 0.950 . S
H2058 C2087 0.950 . S
H2059 C2088 0.950 . S
H2060 C2090 0.950 . S
H2061 C2091 0.950 . S
C2062 H2044 0.951 . S
C2062 C2063 1.366 . S
C2062 C2064 1.388 . S
C2063 C2062 1.366 . S
C2063 C2067 1.385 . S
C2064 H2045 0.951 . S
C2064 C2062 1.388 . S
C2064 C2065 1.366 . S
C2065 C2064 1.366 . S
C2065 C2066 1.414 . S
C2065 C2068 1.499 . S
C2066 H2046 0.950 . S
C2066 C2065 1.414 . S
C2066 C2067 1.374 . S
C2067 H2047 0.950 . S
C2067 C2063 1.385 . S
C2067 C2066 1.374 . S
C2068 C2065 1.499 . S
C2068 C2069 1.373 . S
C2068 C2070 1.389 . S
C2069 H2048 0.950 . S
C2069 C2068 1.373 . S
C2069 C2085 1.377 . S
C2070 C2068 1.389 . S
C2070 C2071 1.524 . S
C2070 C2084 1.377 . S
C2071 C2070 1.524 . S
C2071 C2072 1.397 . S
C2071 C2076 1.363 . S
C2072 H2049 0.950 . S
C2072 C2071 1.397 . S
C2072 C2073 1.334 . S
C2073 H2050 0.950 . S
C2073 C2072 1.334 . S
C2073 C2074 1.287 . S
C2074 C2073 1.287 . S
C2074 C2075 1.524 . S
C2074 H2093 0.913 . S
C2075 H2051 0.950 . S
C2075 C2074 1.524 . S
C2075 C2076 1.415 . S
C2076 H2052 0.950 . S
C2076 C2071 1.363 . S
C2076 C2075 1.415 . S
C2077 H2053 0.951 . S
C2077 C2078 1.366 . S
C2077 C2079 1.388 . S
C2078 C2077 1.366 . S
C2078 C2082 1.385 . S
C2079 H2054 0.951 . S
C2079 C2077 1.388 . S
C2079 C2080 1.366 . S
C2080 C2079 1.366 . S
C2080 C2081 1.414 . S
C2080 C2083 1.499 . S
C2081 H2055 0.950 . S
C2081 C2080 1.414 . S
C2081 C2082 1.374 . S
C2082 H2056 0.950 . S
C2082 C2078 1.385 . S
C2082 C2081 1.374 . S
C2083 C2080 1.499 . S
C2083 C2084 1.373 . S
C2083 C2085 1.389 . S
C2084 H2057 0.950 . S
C2084 C2070 1.377 . S
C2084 C2083 1.373 . S
C2085 C2069 1.377 . S
C2085 C2083 1.389 . S
C2085 C2086 1.524 . S
C2086 C2085 1.524 . S
C2086 C2087 1.397 . S
C2086 C2091 1.363 . S
C2087 H2058 0.950 . S
C2087 C2086 1.397 . S
C2087 C2088 1.334 . S
C2088 H2059 0.950 . S
C2088 C2087 1.334 . S
C2088 C2089 1.287 . S
C2089 C2088 1.287 . S
C2089 C2090 1.524 . S
C2089 H2092 0.999 . S
C2090 H2060 0.950 . S
C2090 C2089 1.524 . S
C2090 C2091 1.415 . S
C2091 H2061 0.950 . S
C2091 C2086 1.363 . S
C2091 C2090 1.415 . S
H2092 C2089 0.999 . S
H2093 C2074 0.913 . S
H2094 C2112 0.951 . S
H2095 C2114 0.951 . S
H2096 C2116 0.950 . S
H2097 C2117 0.950 . S
H2098 C2119 0.950 . S
H2099 C2122 0.950 . S
H2100 C2123 0.950 . S
H2101 C2125 0.950 . S
H2102 C2126 0.950 . S
H2103 C2127 0.951 . S
H2104 C2129 0.951 . S
H2105 C2131 0.950 . S
H2106 C2132 0.950 . S
H2107 C2134 0.950 . S
H2108 C2137 0.950 . S
H2109 C2138 0.950 . S
H2110 C2140 0.950 . S
H2111 C2141 0.950 . S
C2112 H2094 0.951 . S
C2112 C2113 1.366 . S
C2112 C2114 1.388 . S
C2113 C2112 1.366 . S
C2113 C2117 1.385 . S
C2114 H2095 0.951 . S
C2114 C2112 1.388 . S
C2114 C2115 1.366 . S
C2115 C2114 1.366 . S
C2115 C2116 1.414 . S
C2115 C2118 1.499 . S
C2116 H2096 0.950 . S
C2116 C2115 1.414 . S
C2116 C2117 1.374 . S
C2117 H2097 0.950 . S
C2117 C2113 1.385 . S
C2117 C2116 1.374 . S
C2118 C2115 1.499 . S
C2118 C2119 1.373 . S
C2118 C2120 1.389 . S
C2119 H2098 0.950 . S
C2119 C2118 1.373 . S
C2119 C2135 1.377 . S
C2120 C2118 1.389 . S
C2120 C2121 1.524 . S
C2120 C2134 1.377 . S
C2121 C2120 1.524 . S
C2121 C2122 1.397 . S
C2121 C2126 1.363 . S
C2122 H2099 0.950 . S
C2122 C2121 1.397 . S
C2122 C2123 1.334 . S
C2123 H2100 0.950 . S
C2123 C2122 1.334 . S
C2123 C2124 1.287 . S
C2124 C2123 1.287 . S
C2124 C2125 1.524 . S
C2124 H2143 0.913 . S
C2125 H2101 0.950 . S
C2125 C2124 1.524 . S
C2125 C2126 1.415 . S
C2126 H2102 0.950 . S
C2126 C2121 1.363 . S
C2126 C2125 1.415 . S
C2127 H2103 0.951 . S
C2127 C2128 1.366 . S
C2127 C2129 1.388 . S
C2128 C2127 1.366 . S
C2128 C2132 1.385 . S
C2129 H2104 0.951 . S
C2129 C2127 1.388 . S
C2129 C2130 1.366 . S
C2130 C2129 1.366 . S
C2130 C2131 1.414 . S
C2130 C2133 1.499 . S
C2131 H2105 0.950 . S
C2131 C2130 1.414 . S
C2131 C2132 1.374 . S
C2132 H2106 0.950 . S
C2132 C2128 1.385 . S
C2132 C2131 1.374 . S
C2133 C2130 1.499 . S
C2133 C2134 1.373 . S
C2133 C2135 1.389 . S
C2134 H2107 0.950 . S
C2134 C2120 1.377 . S
C2134 C2133 1.373 . S
C2135 C2119 1.377 . S
C2135 C2133 1.389 . S
C2135 C2136 1.524 . S
C2136 C2135 1.524 . S
C2136 C2137 1.397 . S
C2136 C2141 1.363 . S
C2137 H2108 0.950 . S
C2137 C2136 1.397 . S
C2137 C2138 1.334 . S
C2138 H2109 0.950 . S
C2138 C2137 1.334 . S
C2138 C2139 1.287 . S
C2139 C2138 1.287 . S
C2139 C2140 1.524 . S
C2139 H2142 0.999 . S
C2140 H2110 0.950 . S
C2140 C2139 1.524 . S
C2140 C2141 1.415 . S
C2141 H2111 0.950 . S
C2141 C2136 1.363 . S
C2141 C2140 1.415 . S
H2142 C2139 0.999 . S
H2143 C2124 0.913 . S
H2144 C2162 0.951 . S
H2145 C2164 0.951 . S
H2146 C2166 0.950 . S
H2147 C2167 0.950 . S
H2148 C2169 0.950 . S
H2149 C2172 0.950 . S
H2150 C2173 0.950 . S
H2151 C2175 0.950 . S
H2152 C2176 0.950 . S
H2153 C2177 0.951 . S
H2154 C2179 0.951 . S
H2155 C2181 0.950 . S
H2156 C2182 0.950 . S
H2157 C2184 0.950 . S
H2158 C2187 0.950 . S
H2159 C2188 0.950 . S
H2160 C2190 0.950 . S
H2161 C2191 0.950 . S
C2162 H2144 0.951 . S
C2162 C2163 1.366 . S
C2162 C2164 1.388 . S
C2163 C2162 1.366 . S
C2163 C2167 1.385 . S
C2164 H2145 0.951 . S
C2164 C2162 1.388 . S
C2164 C2165 1.366 . S
C2165 C2164 1.366 . S
C2165 C2166 1.414 . S
C2165 C2168 1.499 . S
C2166 H2146 0.950 . S
C2166 C2165 1.414 . S
C2166 C2167 1.374 . S
C2167 H2147 0.950 . S
C2167 C2163 1.385 . S
C2167 C2166 1.374 . S
C2168 C2165 1.499 . S
C2168 C2169 1.373 . S
C2168 C2170 1.389 . S
C2169 H2148 0.950 . S
C2169 C2168 1.373 . S
C2169 C2185 1.377 1_556 S
C2170 C2168 1.389 . S
C2170 C2171 1.524 . S
C2170 C2184 1.377 1_556 S
C2171 C2170 1.524 . S
C2171 C2172 1.397 . S
C2171 C2176 1.363 1_545 S
C2172 H2149 0.950 . S
C2172 C2171 1.397 . S
C2172 C2173 1.334 1_545 S
C2173 H2150 0.950 . S
C2173 C2172 1.334 1_565 S
C2173 C2174 1.287 . S
C2174 C2173 1.287 . S
C2174 C2175 1.524 . S
C2174 H2193 0.913 . S
C2175 H2151 0.950 . S
C2175 C2174 1.524 . S
C2175 C2176 1.415 . S
C2176 H2152 0.950 . S
C2176 C2171 1.363 1_565 S
C2176 C2175 1.415 . S
C2177 H2153 0.951 . S
C2177 C2178 1.366 . S
C2177 C2179 1.388 . S
C2178 C2177 1.366 . S
C2178 C2182 1.385 . S
C2179 H2154 0.951 . S
C2179 C2177 1.388 . S
C2179 C2180 1.366 . S
C2180 C2179 1.366 . S
C2180 C2181 1.414 . S
C2180 C2183 1.499 . S
C2181 H2155 0.950 . S
C2181 C2180 1.414 . S
C2181 C2182 1.374 . S
C2182 H2156 0.950 . S
C2182 C2178 1.385 . S
C2182 C2181 1.374 . S
C2183 C2180 1.499 . S
C2183 C2184 1.373 . S
C2183 C2185 1.389 . S
C2184 H2157 0.950 . S
C2184 C2170 1.377 1_554 S
C2184 C2183 1.373 . S
C2185 C2169 1.377 1_554 S
C2185 C2183 1.389 . S
C2185 C2186 1.524 . S
C2186 C2185 1.524 . S
C2186 C2187 1.397 . S
C2186 C2191 1.363 . S
C2187 H2158 0.950 . S
C2187 C2186 1.397 . S
C2187 C2188 1.334 . S
C2188 H2159 0.950 . S
C2188 C2187 1.334 . S
C2188 C2189 1.287 . S
C2189 C2188 1.287 . S
C2189 C2190 1.524 . S
C2189 H2192 0.999 . S
C2190 H2160 0.950 . S
C2190 C2189 1.524 . S
C2190 C2191 1.415 . S
C2191 H2161 0.950 . S
C2191 C2186 1.363 . S
C2191 C2190 1.415 . S
H2192 C2189 0.999 . S
H2193 C2174 0.913 . S
H2194 C2212 0.951 . S
H2195 C2214 0.951 . S
H2196 C2216 0.950 . S
H2197 C2217 0.950 . S
H2198 C2219 0.950 . S
H2199 C2222 0.950 . S
H2200 C2223 0.950 . S
H2201 C2225 0.950 . S
H2202 C2226 0.950 . S
H2203 C2227 0.951 . S
H2204 C2229 0.951 . S
H2205 C2231 0.950 . S
H2206 C2232 0.950 . S
H2207 C2234 0.950 . S
H2208 C2237 0.950 . S
H2209 C2238 0.950 . S
H2210 C2240 0.950 . S
H2211 C2241 0.950 . S
C2212 H2194 0.951 . S
C2212 C2213 1.366 . S
C2212 C2214 1.388 . S
C2213 C2212 1.366 . S
C2213 C2217 1.385 . S
C2214 H2195 0.951 . S
C2214 C2212 1.388 . S
C2214 C2215 1.366 . S
C2215 C2214 1.366 . S
C2215 C2216 1.414 . S
C2215 C2218 1.499 . S
C2216 H2196 0.950 . S
C2216 C2215 1.414 . S
C2216 C2217 1.374 . S
C2217 H2197 0.950 . S
C2217 C2213 1.385 . S
C2217 C2216 1.374 . S
C2218 C2215 1.499 . S
C2218 C2219 1.373 . S
C2218 C2220 1.389 . S
C2219 H2198 0.950 . S
C2219 C2218 1.373 . S
C2219 C2235 1.377 . S
C2220 C2218 1.389 . S
C2220 C2221 1.524 . S
C2220 C2234 1.377 . S
C2221 C2220 1.524 . S
C2221 C2222 1.397 . S
C2221 C2226 1.363 . S
C2222 H2199 0.950 . S
C2222 C2221 1.397 . S
C2222 C2223 1.334 . S
C2223 H2200 0.950 . S
C2223 C2222 1.334 . S
C2223 C2224 1.287 . S
C2224 C2223 1.287 . S
C2224 C2225 1.524 . S
C2224 H2243 0.913 . S
C2225 H2201 0.950 . S
C2225 C2224 1.524 . S
C2225 C2226 1.415 . S
C2226 H2202 0.950 . S
C2226 C2221 1.363 . S
C2226 C2225 1.415 . S
C2227 H2203 0.951 . S
C2227 C2228 1.366 . S
C2227 C2229 1.388 . S
C2228 C2227 1.366 . S
C2228 C2232 1.385 . S
C2229 H2204 0.951 . S
C2229 C2227 1.388 . S
C2229 C2230 1.366 . S
C2230 C2229 1.366 . S
C2230 C2231 1.414 . S
C2230 C2233 1.499 . S
C2231 H2205 0.950 . S
C2231 C2230 1.414 . S
C2231 C2232 1.374 . S
C2232 H2206 0.950 . S
C2232 C2228 1.385 . S
C2232 C2231 1.374 . S
C2233 C2230 1.499 . S
C2233 C2234 1.373 . S
C2233 C2235 1.389 . S
C2234 H2207 0.950 . S
C2234 C2220 1.377 . S
C2234 C2233 1.373 . S
C2235 C2219 1.377 . S
C2235 C2233 1.389 . S
C2235 C2236 1.524 . S
C2236 C2235 1.524 . S
C2236 C2237 1.397 . S
C2236 C2241 1.363 . S
C2237 H2208 0.950 . S
C2237 C2236 1.397 . S
C2237 C2238 1.334 . S
C2238 H2209 0.950 . S
C2238 C2237 1.334 . S
C2238 C2239 1.287 . S
C2239 C2238 1.287 . S
C2239 C2240 1.524 . S
C2239 H2242 0.999 . S
C2240 H2210 0.950 . S
C2240 C2239 1.524 . S
C2240 C2241 1.415 . S
C2241 H2211 0.950 . S
C2241 C2236 1.363 . S
C2241 C2240 1.415 . S
H2242 C2239 0.999 . S
H2243 C2224 0.913 . S
H2244 C2262 0.951 . S
H2245 C2264 0.951 . S
H2246 C2266 0.950 . S
H2247 C2267 0.950 . S
H2248 C2269 0.950 . S
H2249 C2272 0.950 . S
H2250 C2273 0.950 . S
H2251 C2275 0.950 . S
H2252 C2276 0.950 . S
H2253 C2277 0.951 . S
H2254 C2279 0.951 . S
H2255 C2281 0.950 . S
H2256 C2282 0.950 . S
H2257 C2284 0.950 . S
H2258 C2287 0.950 . S
H2259 C2288 0.950 . S
H2260 C2290 0.950 . S
H2261 C2291 0.950 . S
C2262 H2244 0.951 . S
C2262 C2263 1.366 . S
C2262 C2264 1.388 . S
C2263 C2262 1.366 . S
C2263 C2267 1.385 . S
C2264 H2245 0.951 . S
C2264 C2262 1.388 . S
C2264 C2265 1.366 . S
C2265 C2264 1.366 . S
C2265 C2266 1.414 . S
C2265 C2268 1.499 . S
C2266 H2246 0.950 . S
C2266 C2265 1.414 . S
C2266 C2267 1.374 . S
C2267 H2247 0.950 . S
C2267 C2263 1.385 . S
C2267 C2266 1.374 . S
C2268 C2265 1.499 . S
C2268 C2269 1.373 . S
C2268 C2270 1.389 . S
C2269 H2248 0.950 . S
C2269 C2268 1.373 . S
C2269 C2285 1.377 1_554 S
C2270 C2268 1.389 . S
C2270 C2271 1.524 . S
C2270 C2284 1.377 1_554 S
C2271 C2270 1.524 . S
C2271 C2272 1.397 . S
C2271 C2276 1.363 . S
C2272 H2249 0.950 . S
C2272 C2271 1.397 . S
C2272 C2273 1.334 . S
C2273 H2250 0.950 . S
C2273 C2272 1.334 . S
C2273 C2274 1.287 . S
C2274 C2273 1.287 . S
C2274 C2275 1.524 . S
C2274 H2293 0.913 . S
C2275 H2251 0.950 . S
C2275 C2274 1.524 . S
C2275 C2276 1.415 . S
C2276 H2252 0.950 . S
C2276 C2271 1.363 . S
C2276 C2275 1.415 . S
C2277 H2253 0.951 . S
C2277 C2278 1.366 . S
C2277 C2279 1.388 . S
C2278 C2277 1.366 . S
C2278 C2282 1.385 . S
C2279 H2254 0.951 . S
C2279 C2277 1.388 . S
C2279 C2280 1.366 . S
C2280 C2279 1.366 . S
C2280 C2281 1.414 . S
C2280 C2283 1.499 . S
C2281 H2255 0.950 . S
C2281 C2280 1.414 . S
C2281 C2282 1.374 . S
C2282 H2256 0.950 . S
C2282 C2278 1.385 . S
C2282 C2281 1.374 . S
C2283 C2280 1.499 . S
C2283 C2284 1.373 . S
C2283 C2285 1.389 . S
C2284 H2257 0.950 . S
C2284 C2270 1.377 1_556 S
C2284 C2283 1.373 . S
C2285 C2269 1.377 1_556 S
C2285 C2283 1.389 . S
C2285 C2286 1.524 . S
C2286 C2285 1.524 . S
C2286 C2287 1.397 . S
C2286 C2291 1.363 . S
C2287 H2258 0.950 . S
C2287 C2286 1.397 . S
C2287 C2288 1.334 . S
C2288 H2259 0.950 . S
C2288 C2287 1.334 . S
C2288 C2289 1.287 . S
C2289 C2288 1.287 . S
C2289 C2290 1.524 . S
C2289 H2292 0.999 . S
C2290 H2260 0.950 . S
C2290 C2289 1.524 . S
C2290 C2291 1.415 . S
C2291 H2261 0.950 . S
C2291 C2286 1.363 . S
C2291 C2290 1.415 . S
H2292 C2289 0.999 . S
H2293 C2274 0.913 . S
H2294 C2312 0.951 . S
H2295 C2314 0.951 . S
H2296 C2316 0.950 . S
H2297 C2317 0.950 . S
H2298 C2319 0.950 . S
H2299 C2322 0.950 . S
H2300 C2323 0.950 . S
H2301 C2325 0.950 . S
H2302 C2326 0.950 . S
H2303 C2327 0.951 . S
H2304 C2329 0.951 . S
H2305 C2331 0.950 . S
H2306 C2332 0.950 . S
H2307 C2334 0.950 . S
H2308 C2337 0.950 . S
H2309 C2338 0.950 . S
H2310 C2340 0.950 . S
H2311 C2341 0.950 . S
C2312 H2294 0.951 . S
C2312 C2313 1.366 . S
C2312 C2314 1.388 . S
C2313 C2312 1.366 . S
C2313 C2317 1.385 . S
C2314 H2295 0.951 . S
C2314 C2312 1.388 . S
C2314 C2315 1.366 . S
C2315 C2314 1.366 . S
C2315 C2316 1.414 . S
C2315 C2318 1.499 . S
C2316 H2296 0.950 . S
C2316 C2315 1.414 . S
C2316 C2317 1.374 . S
C2317 H2297 0.950 . S
C2317 C2313 1.385 . S
C2317 C2316 1.374 . S
C2318 C2315 1.499 . S
C2318 C2319 1.373 . S
C2318 C2320 1.389 . S
C2319 H2298 0.950 . S
C2319 C2318 1.373 . S
C2319 C2335 1.377 . S
C2320 C2318 1.389 . S
C2320 C2321 1.524 . S
C2320 C2334 1.377 . S
C2321 C2320 1.524 . S
C2321 C2322 1.397 1_455 S
C2321 C2326 1.363 . S
C2322 H2299 0.950 . S
C2322 C2321 1.397 1_655 S
C2322 C2323 1.334 . S
C2323 H2300 0.950 . S
C2323 C2322 1.334 . S
C2323 C2324 1.287 . S
C2324 C2323 1.287 . S
C2324 C2325 1.524 . S
C2324 H2343 0.913 . S
C2325 H2301 0.950 . S
C2325 C2324 1.524 . S
C2325 C2326 1.415 1_655 S
C2326 H2302 0.950 . S
C2326 C2321 1.363 . S
C2326 C2325 1.415 1_455 S
C2327 H2303 0.951 . S
C2327 C2328 1.366 . S
C2327 C2329 1.388 . S
C2328 C2327 1.366 . S
C2328 C2332 1.385 . S
C2329 H2304 0.951 . S
C2329 C2327 1.388 . S
C2329 C2330 1.366 . S
C2330 C2329 1.366 . S
C2330 C2331 1.414 . S
C2330 C2333 1.499 . S
C2331 H2305 0.950 . S
C2331 C2330 1.414 . S
C2331 C2332 1.374 . S
C2332 H2306 0.950 . S
C2332 C2328 1.385 . S
C2332 C2331 1.374 . S
C2333 C2330 1.499 . S
C2333 C2334 1.373 . S
C2333 C2335 1.389 . S
C2334 H2307 0.950 . S
C2334 C2320 1.377 . S
C2334 C2333 1.373 . S
C2335 C2319 1.377 . S
C2335 C2333 1.389 . S
C2335 C2336 1.524 . S
C2336 C2335 1.524 . S
C2336 C2337 1.397 . S
C2336 C2341 1.363 . S
C2337 H2308 0.950 . S
C2337 C2336 1.397 . S
C2337 C2338 1.334 . S
C2338 H2309 0.950 . S
C2338 C2337 1.334 . S
C2338 C2339 1.287 . S
C2339 C2338 1.287 . S
C2339 C2340 1.524 . S
C2339 H2342 0.999 . S
C2340 H2310 0.950 . S
C2340 C2339 1.524 . S
C2340 C2341 1.415 . S
C2341 H2311 0.950 . S
C2341 C2336 1.363 . S
C2341 C2340 1.415 . S
H2342 C2339 0.999 . S
H2343 C2324 0.913 . S
H2344 C2362 0.951 . S
H2345 C2364 0.951 . S
H2346 C2366 0.950 . S
H2347 C2367 0.950 . S
H2348 C2369 0.950 . S
H2349 C2372 0.950 . S
H2350 C2373 0.950 . S
H2351 C2375 0.950 . S
H2352 C2376 0.950 . S
H2353 C2377 0.951 . S
H2354 C2379 0.951 . S
H2355 C2381 0.950 . S
H2356 C2382 0.950 . S
H2357 C2384 0.950 . S
H2358 C2387 0.950 . S
H2359 C2388 0.950 . S
H2360 C2390 0.950 . S
H2361 C2391 0.950 . S
C2362 H2344 0.951 . S
C2362 C2363 1.366 . S
C2362 C2364 1.388 . S
C2363 C2362 1.366 . S
C2363 C2367 1.385 . S
C2364 H2345 0.951 . S
C2364 C2362 1.388 . S
C2364 C2365 1.366 . S
C2365 C2364 1.366 . S
C2365 C2366 1.414 . S
C2365 C2368 1.499 . S
C2366 H2346 0.950 . S
C2366 C2365 1.414 . S
C2366 C2367 1.374 . S
C2367 H2347 0.950 . S
C2367 C2363 1.385 . S
C2367 C2366 1.374 . S
C2368 C2365 1.499 . S
C2368 C2369 1.373 . S
C2368 C2370 1.389 . S
C2369 H2348 0.950 . S
C2369 C2368 1.373 . S
C2369 C2385 1.377 1_554 S
C2370 C2368 1.389 . S
C2370 C2371 1.524 . S
C2370 C2384 1.377 1_554 S
C2371 C2370 1.524 . S
C2371 C2372 1.397 . S
C2371 C2376 1.363 1_565 S
C2372 H2349 0.950 . S
C2372 C2371 1.397 . S
C2372 C2373 1.334 1_565 S
C2373 H2350 0.950 . S
C2373 C2372 1.334 1_545 S
C2373 C2374 1.287 . S
C2374 C2373 1.287 . S
C2374 C2375 1.524 . S
C2374 H2393 0.913 . S
C2375 H2351 0.950 . S
C2375 C2374 1.524 . S
C2375 C2376 1.415 . S
C2376 H2352 0.950 . S
C2376 C2371 1.363 1_545 S
C2376 C2375 1.415 . S
C2377 H2353 0.951 . S
C2377 C2378 1.366 . S
C2377 C2379 1.388 . S
C2378 C2377 1.366 . S
C2378 C2382 1.385 . S
C2379 H2354 0.951 . S
C2379 C2377 1.388 . S
C2379 C2380 1.366 . S
C2380 C2379 1.366 . S
C2380 C2381 1.414 . S
C2380 C2383 1.499 . S
C2381 H2355 0.950 . S
C2381 C2380 1.414 . S
C2381 C2382 1.374 . S
C2382 H2356 0.950 . S
C2382 C2378 1.385 . S
C2382 C2381 1.374 . S
C2383 C2380 1.499 . S
C2383 C2384 1.373 . S
C2383 C2385 1.389 . S
C2384 H2357 0.950 . S
C2384 C2370 1.377 1_556 S
C2384 C2383 1.373 . S
C2385 C2369 1.377 1_556 S
C2385 C2383 1.389 . S
C2385 C2386 1.524 . S
C2386 C2385 1.524 . S
C2386 C2387 1.397 . S
C2386 C2391 1.363 . S
C2387 H2358 0.950 . S
C2387 C2386 1.397 . S
C2387 C2388 1.334 . S
C2388 H2359 0.950 . S
C2388 C2387 1.334 . S
C2388 C2389 1.287 . S
C2389 C2388 1.287 . S
C2389 C2390 1.524 . S
C2389 H2392 0.999 . S
C2390 H2360 0.950 . S
C2390 C2389 1.524 . S
C2390 C2391 1.415 . S
C2391 H2361 0.950 . S
C2391 C2386 1.363 . S
C2391 C2390 1.415 . S
H2392 C2389 0.999 . S
H2393 C2374 0.913 . S
H2394 C2412 0.951 . S
H2395 C2414 0.951 . S
H2396 C2416 0.950 . S
H2397 C2417 0.950 . S
H2398 C2419 0.950 . S
H2399 C2422 0.950 . S
H2400 C2423 0.950 . S
H2401 C2425 0.950 . S
H2402 C2426 0.950 . S
H2403 C2427 0.951 . S
H2404 C2429 0.951 . S
H2405 C2431 0.950 . S
H2406 C2432 0.950 . S
H2407 C2434 0.950 . S
H2408 C2437 0.950 . S
H2409 C2438 0.950 . S
H2410 C2440 0.950 . S
H2411 C2441 0.950 . S
C2412 H2394 0.951 . S
C2412 C2413 1.366 . S
C2412 C2414 1.388 . S
C2413 C2412 1.366 . S
C2413 C2417 1.385 . S
C2414 H2395 0.951 . S
C2414 C2412 1.388 . S
C2414 C2415 1.366 . S
C2415 C2414 1.366 . S
C2415 C2416 1.414 . S
C2415 C2418 1.499 . S
C2416 H2396 0.950 . S
C2416 C2415 1.414 . S
C2416 C2417 1.374 . S
C2417 H2397 0.950 . S
C2417 C2413 1.385 . S
C2417 C2416 1.374 . S
C2418 C2415 1.499 . S
C2418 C2419 1.373 . S
C2418 C2420 1.389 . S
C2419 H2398 0.950 . S
C2419 C2418 1.373 . S
C2419 C2435 1.377 . S
C2420 C2418 1.389 . S
C2420 C2421 1.524 . S
C2420 C2434 1.377 . S
C2421 C2420 1.524 . S
C2421 C2422 1.397 . S
C2421 C2426 1.363 . S
C2422 H2399 0.950 . S
C2422 C2421 1.397 . S
C2422 C2423 1.334 . S
C2423 H2400 0.950 . S
C2423 C2422 1.334 . S
C2423 C2424 1.287 . S
C2424 C2423 1.287 . S
C2424 C2425 1.524 . S
C2424 H2443 0.913 . S
C2425 H2401 0.950 . S
C2425 C2424 1.524 . S
C2425 C2426 1.415 . S
C2426 H2402 0.950 . S
C2426 C2421 1.363 . S
C2426 C2425 1.415 . S
C2427 H2403 0.951 . S
C2427 C2428 1.366 . S
C2427 C2429 1.388 . S
C2428 C2427 1.366 . S
C2428 C2432 1.385 . S
C2429 H2404 0.951 . S
C2429 C2427 1.388 . S
C2429 C2430 1.366 . S
C2430 C2429 1.366 . S
C2430 C2431 1.414 . S
C2430 C2433 1.499 . S
C2431 H2405 0.950 . S
C2431 C2430 1.414 . S
C2431 C2432 1.374 . S
C2432 H2406 0.950 . S
C2432 C2428 1.385 . S
C2432 C2431 1.374 . S
C2433 C2430 1.499 . S
C2433 C2434 1.373 . S
C2433 C2435 1.389 . S
C2434 H2407 0.950 . S
C2434 C2420 1.377 . S
C2434 C2433 1.373 . S
C2435 C2419 1.377 . S
C2435 C2433 1.389 . S
C2435 C2436 1.524 . S
C2436 C2435 1.524 . S
C2436 C2437 1.397 . S
C2436 C2441 1.363 . S
C2437 H2408 0.950 . S
C2437 C2436 1.397 . S
C2437 C2438 1.334 . S
C2438 H2409 0.950 . S
C2438 C2437 1.334 . S
C2438 C2439 1.287 . S
C2439 C2438 1.287 . S
C2439 C2440 1.524 . S
C2439 H2442 0.999 . S
C2440 H2410 0.950 . S
C2440 C2439 1.524 . S
C2440 C2441 1.415 . S
C2441 H2411 0.950 . S
C2441 C2436 1.363 . S
C2441 C2440 1.415 . S
H2442 C2439 0.999 . S
H2443 C2424 0.913 . S
H2444 C2462 0.951 . S
H2445 C2464 0.951 . S
H2446 C2466 0.950 . S
H2447 C2467 0.950 . S
H2448 C2469 0.950 . S
H2449 C2472 0.950 . S
H2450 C2473 0.950 . S
H2451 C2475 0.950 . S
H2452 C2476 0.950 . S
H2453 C2477 0.951 . S
H2454 C2479 0.951 . S
H2455 C2481 0.950 . S
H2456 C2482 0.950 . S
H2457 C2484 0.950 . S
H2458 C2487 0.950 . S
H2459 C2488 0.950 . S
H2460 C2490 0.950 . S
H2461 C2491 0.950 . S
C2462 H2444 0.951 . S
C2462 C2463 1.366 . S
C2462 C2464 1.388 . S
C2463 C2462 1.366 . S
C2463 C2467 1.385 . S
C2464 H2445 0.951 . S
C2464 C2462 1.388 . S
C2464 C2465 1.366 . S
C2465 C2464 1.366 . S
C2465 C2466 1.414 . S
C2465 C2468 1.499 . S
C2466 H2446 0.950 . S
C2466 C2465 1.414 . S
C2466 C2467 1.374 . S
C2467 H2447 0.950 . S
C2467 C2463 1.385 . S
C2467 C2466 1.374 . S
C2468 C2465 1.499 . S
C2468 C2469 1.373 . S
C2468 C2470 1.389 . S
C2469 H2448 0.950 . S
C2469 C2468 1.373 . S
C2469 C2485 1.377 1_554 S
C2470 C2468 1.389 . S
C2470 C2471 1.524 . S
C2470 C2484 1.377 1_554 S
C2471 C2470 1.524 . S
C2471 C2472 1.397 . S
C2471 C2476 1.363 . S
C2472 H2449 0.950 . S
C2472 C2471 1.397 . S
C2472 C2473 1.334 . S
C2473 H2450 0.950 . S
C2473 C2472 1.334 . S
C2473 C2474 1.287 . S
C2474 C2473 1.287 . S
C2474 C2475 1.524 . S
C2474 H2493 0.913 . S
C2475 H2451 0.950 . S
C2475 C2474 1.524 . S
C2475 C2476 1.415 . S
C2476 H2452 0.950 . S
C2476 C2471 1.363 . S
C2476 C2475 1.415 . S
C2477 H2453 0.951 . S
C2477 C2478 1.366 . S
C2477 C2479 1.388 . S
C2478 C2477 1.366 . S
C2478 C2482 1.385 . S
C2479 H2454 0.951 . S
C2479 C2477 1.388 . S
C2479 C2480 1.366 . S
C2480 C2479 1.366 . S
C2480 C2481 1.414 . S
C2480 C2483 1.499 . S
C2481 H2455 0.950 . S
C2481 C2480 1.414 . S
C2481 C2482 1.374 . S
C2482 H2456 0.950 . S
C2482 C2478 1.385 . S
C2482 C2481 1.374 . S
C2483 C2480 1.499 . S
C2483 C2484 1.373 . S
C2483 C2485 1.389 . S
C2484 H2457 0.950 . S
C2484 C2470 1.377 1_556 S
C2484 C2483 1.373 . S
C2485 C2469 1.377 1_556 S
C2485 C2483 1.389 . S
C2485 C2486 1.524 . S
C2486 C2485 1.524 . S
C2486 C2487 1.397 . S
C2486 C2491 1.363 . S
C2487 H2458 0.950 . S
C2487 C2486 1.397 . S
C2487 C2488 1.334 . S
C2488 H2459 0.950 . S
C2488 C2487 1.334 . S
C2488 C2489 1.287 . S
C2489 C2488 1.287 . S
C2489 C2490 1.524 . S
C2489 H2492 0.999 . S
C2490 H2460 0.950 . S
C2490 C2489 1.524 . S
C2490 C2491 1.415 . S
C2491 H2461 0.950 . S
C2491 C2486 1.363 . S
C2491 C2490 1.415 . S
H2492 C2489 0.999 . S
H2493 C2474 0.913 . S
H2494 C2512 0.951 . S
H2495 C2514 0.951 . S
H2496 C2516 0.950 . S
H2497 C2517 0.950 . S
H2498 C2519 0.950 . S
H2499 C2522 0.950 . S
H2500 C2523 0.950 . S
H2501 C2525 0.950 . S
H2502 C2526 0.950 . S
H2503 C2527 0.951 . S
H2504 C2529 0.951 . S
H2505 C2531 0.950 . S
H2506 C2532 0.950 . S
H2507 C2534 0.950 . S
H2508 C2537 0.950 . S
H2509 C2538 0.950 . S
H2510 C2540 0.950 . S
H2511 C2541 0.950 . S
C2512 H2494 0.951 . S
C2512 C2513 1.366 . S
C2512 C2514 1.388 . S
C2513 C2512 1.366 . S
C2513 C2517 1.385 . S
C2514 H2495 0.951 . S
C2514 C2512 1.388 . S
C2514 C2515 1.366 . S
C2515 C2514 1.366 . S
C2515 C2516 1.414 . S
C2515 C2518 1.499 . S
C2516 H2496 0.950 . S
C2516 C2515 1.414 . S
C2516 C2517 1.374 . S
C2517 H2497 0.950 . S
C2517 C2513 1.385 . S
C2517 C2516 1.374 . S
C2518 C2515 1.499 . S
C2518 C2519 1.373 . S
C2518 C2520 1.389 . S
C2519 H2498 0.950 . S
C2519 C2518 1.373 . S
C2519 C2535 1.377 . S
C2520 C2518 1.389 . S
C2520 C2521 1.524 . S
C2520 C2534 1.377 . S
C2521 C2520 1.524 . S
C2521 C2522 1.397 . S
C2521 C2526 1.363 . S
C2522 H2499 0.950 . S
C2522 C2521 1.397 . S
C2522 C2523 1.334 . S
C2523 H2500 0.950 . S
C2523 C2522 1.334 . S
C2523 C2524 1.287 . S
C2524 C2523 1.287 . S
C2524 C2525 1.524 . S
C2524 H2543 0.913 . S
C2525 H2501 0.950 . S
C2525 C2524 1.524 . S
C2525 C2526 1.415 . S
C2526 H2502 0.950 . S
C2526 C2521 1.363 . S
C2526 C2525 1.415 . S
C2527 H2503 0.951 . S
C2527 C2528 1.366 . S
C2527 C2529 1.388 . S
C2528 C2527 1.366 . S
C2528 C2532 1.385 . S
C2529 H2504 0.951 . S
C2529 C2527 1.388 . S
C2529 C2530 1.366 . S
C2530 C2529 1.366 . S
C2530 C2531 1.414 . S
C2530 C2533 1.499 . S
C2531 H2505 0.950 . S
C2531 C2530 1.414 . S
C2531 C2532 1.374 . S
C2532 H2506 0.950 . S
C2532 C2528 1.385 . S
C2532 C2531 1.374 . S
C2533 C2530 1.499 . S
C2533 C2534 1.373 . S
C2533 C2535 1.389 . S
C2534 H2507 0.950 . S
C2534 C2520 1.377 . S
C2534 C2533 1.373 . S
C2535 C2519 1.377 . S
C2535 C2533 1.389 . S
C2535 C2536 1.524 . S
C2536 C2535 1.524 . S
C2536 C2537 1.397 . S
C2536 C2541 1.363 . S
C2537 H2508 0.950 . S
C2537 C2536 1.397 . S
C2537 C2538 1.334 . S
C2538 H2509 0.950 . S
C2538 C2537 1.334 . S
C2538 C2539 1.287 . S
C2539 C2538 1.287 . S
C2539 C2540 1.524 . S
C2539 H2542 0.999 . S
C2540 H2510 0.950 . S
C2540 C2539 1.524 . S
C2540 C2541 1.415 . S
C2541 H2511 0.950 . S
C2541 C2536 1.363 . S
C2541 C2540 1.415 . S
H2542 C2539 0.999 . S
H2543 C2524 0.913 . S
C563 C9 2.037 . S
C578 C247 2.036 . S
C613 C145 2.036 . S
C628 C43 2.036 . S
C663 C179 2.037 . S
C678 C77 2.037 . S
C713 C111 2.036 . S
C728 C213 2.036 . S
C763 C281 2.036 . S
C778 C519 2.037 . S
C813 C315 2.036 . S
C828 C417 2.037 . S
C863 C451 2.036 . S
C878 C349 2.037 . S
C913 C383 2.036 . S
C928 C485 2.036 . S
C963 C2 0.799 . S
C978 C339 0.792 . S
C1013 C373 0.792 . S
C1028 C36 0.800 . S
C1063 C407 0.792 . S
C1078 C70 0.800 . S
C1113 C305 0.793 . S
C1128 C104 0.800 . S
C1163 C543 0.792 . S
C1178 C138 0.799 . S
C1213 C441 0.792 . S
C1228 C172 0.799 . S
C1263 C475 0.792 . S
C1278 C206 0.799 . S
C1313 C509 0.794 . S
C1328 C240 0.799 . S
C1363 C67 0.793 . S
C1378 C274 0.800 . S
C1413 C101 0.793 . S
C1428 C308 0.800 . S
C1463 C135 0.794 . S
C1478 C342 0.800 . S
C1513 C376 0.800 . S
C1528 C33 0.793 . S
C1563 C271 0.794 . S
C1578 C410 0.799 . S
C1613 C169 0.792 . S
C1628 C444 0.799 . S
C1663 C203 0.793 . S
C1678 C478 0.799 . S
C1713 C237 0.792 . S
C1728 C512 0.799 . S
C1763 C73 0.721 . S
C1778 C5 0.721 . S
C1813 C39 0.721 . S
C1828 C107 0.721 . S
C1863 C209 0.722 . S
C1878 C141 0.721 . S
C1913 C243 0.721 . S
C1928 C175 0.721 . S
C1963 C345 0.722 . S
C1978 C277 0.723 . S
C2013 C379 0.721 . S
C2028 C311 0.721 . S
C2063 C413 0.721 . S
C2078 C481 0.721 . S
C2113 C515 0.723 . S
C2128 C447 0.722 . S
C2163 C224 1.428 . S
C2178 C20 1.428 . S
C2213 C258 1.428 . S
C2228 C54 1.428 . S
C2263 C88 1.428 . S
C2278 C156 1.428 . S
C2313 C190 1.428 . S
C2328 C122 1.429 . S
C2363 C496 1.428 . S
C2378 C292 1.428 . S
C2413 C530 1.428 . S
C2428 C326 1.428 . S
C2463 C428 1.428 . S
C2478 C360 1.428 . S
C2513 C394 1.428 . S
C2528 C462 1.428 . S
