# Generated by pormake.
# Topology pcl, (4)-cn, num edge types: 1
# Building blocks:
#     Node 0, Type 0, BuildingBlock: TATPOV_clean_sbu_0, # of connection points: 4
#     Node 1, Type 0, BuildingBlock: TATPOV_clean_sbu_0, # of connection points: 4
#     Node 2, Type 0, BuildingBlock: TATPOV_clean_sbu_0, # of connection points: 4
#     Node 3, Type 0, BuildingBlock: TATPOV_clean_sbu_0, # of connection points: 4
#     Node 4, Type 0, BuildingBlock: TATPOV_clean_sbu_0, # of connection points: 4
#     Node 5, Type 0, BuildingBlock: TATPOV_clean_sbu_0, # of connection points: 4
#     Node 6, Type 0, BuildingBlock: TATPOV_clean_sbu_0, # of connection points: 4
#     Node 7, Type 0, BuildingBlock: TATPOV_clean_sbu_0, # of connection points: 4
#     Node 8, Type 0, BuildingBlock: TATPOV_clean_sbu_0, # of connection points: 4
#     Node 9, Type 0, BuildingBlock: TATPOV_clean_sbu_0, # of connection points: 4
#     Node 10, Type 0, BuildingBlock: TATPOV_clean_sbu_0, # of connection points: 4
#     Node 11, Type 0, BuildingBlock: TATPOV_clean_sbu_0, # of connection points: 4
#     Node 12, Type 0, BuildingBlock: TATPOV_clean_sbu_0, # of connection points: 4
#     Node 13, Type 0, BuildingBlock: TATPOV_clean_sbu_0, # of connection points: 4
#     Node 14, Type 0, BuildingBlock: TATPOV_clean_sbu_0, # of connection points: 4
#     Node 15, Type 0, BuildingBlock: TATPOV_clean_sbu_0, # of connection points: 4
#     Edge 16, Type (0, 0), BuildingBlock: EZIPEK_clean_linker_0, # of connection points: 2
#     Edge 17, Type (0, 0), BuildingBlock: EZIPEK_clean_linker_0, # of connection points: 2
#     Edge 18, Type (0, 0), BuildingBlock: EZIPEK_clean_linker_0, # of connection points: 2
#     Edge 19, Type (0, 0), BuildingBlock: EZIPEK_clean_linker_0, # of connection points: 2
#     Edge 20, Type (0, 0), BuildingBlock: EZIPEK_clean_linker_0, # of connection points: 2
#     Edge 21, Type (0, 0), BuildingBlock: EZIPEK_clean_linker_0, # of connection points: 2
#     Edge 22, Type (0, 0), BuildingBlock: EZIPEK_clean_linker_0, # of connection points: 2
#     Edge 23, Type (0, 0), BuildingBlock: EZIPEK_clean_linker_0, # of connection points: 2
#     Edge 24, Type (0, 0), BuildingBlock: EZIPEK_clean_linker_0, # of connection points: 2
#     Edge 25, Type (0, 0), BuildingBlock: EZIPEK_clean_linker_0, # of connection points: 2
#     Edge 26, Type (0, 0), BuildingBlock: EZIPEK_clean_linker_0, # of connection points: 2
#     Edge 27, Type (0, 0), BuildingBlock: EZIPEK_clean_linker_0, # of connection points: 2
#     Edge 28, Type (0, 0), BuildingBlock: EZIPEK_clean_linker_0, # of connection points: 2
#     Edge 29, Type (0, 0), BuildingBlock: EZIPEK_clean_linker_0, # of connection points: 2
#     Edge 30, Type (0, 0), BuildingBlock: EZIPEK_clean_linker_0, # of connection points: 2
#     Edge 31, Type (0, 0), BuildingBlock: EZIPEK_clean_linker_0, # of connection points: 2
#     Edge 32, Type (0, 0), BuildingBlock: EZIPEK_clean_linker_0, # of connection points: 2
#     Edge 33, Type (0, 0), BuildingBlock: EZIPEK_clean_linker_0, # of connection points: 2
#     Edge 34, Type (0, 0), BuildingBlock: EZIPEK_clean_linker_0, # of connection points: 2
#     Edge 35, Type (0, 0), BuildingBlock: EZIPEK_clean_linker_0, # of connection points: 2
#     Edge 36, Type (0, 0), BuildingBlock: EZIPEK_clean_linker_0, # of connection points: 2
#     Edge 37, Type (0, 0), BuildingBlock: EZIPEK_clean_linker_0, # of connection points: 2
#     Edge 38, Type (0, 0), BuildingBlock: EZIPEK_clean_linker_0, # of connection points: 2
#     Edge 39, Type (0, 0), BuildingBlock: EZIPEK_clean_linker_0, # of connection points: 2
#     Edge 40, Type (0, 0), BuildingBlock: EZIPEK_clean_linker_0, # of connection points: 2
#     Edge 41, Type (0, 0), BuildingBlock: EZIPEK_clean_linker_0, # of connection points: 2
#     Edge 42, Type (0, 0), BuildingBlock: EZIPEK_clean_linker_0, # of connection points: 2
#     Edge 43, Type (0, 0), BuildingBlock: EZIPEK_clean_linker_0, # of connection points: 2
#     Edge 44, Type (0, 0), BuildingBlock: EZIPEK_clean_linker_0, # of connection points: 2
#     Edge 45, Type (0, 0), BuildingBlock: EZIPEK_clean_linker_0, # of connection points: 2
#     Edge 46, Type (0, 0), BuildingBlock: EZIPEK_clean_linker_0, # of connection points: 2
#     Edge 47, Type (0, 0), BuildingBlock: EZIPEK_clean_linker_0, # of connection points: 2
# Relax obj value: 0.052
# Max RMSD: 0.068
# Mean RMSD: 0.059
data_MOF--net-pcl--node1-TATPOV_clean_sbu_0--edge1-EZIPEK_clean_linker_0
_symmetry_space_group_name_H-M    P1
_symmetry_Int_Tables_number       1
_symmetry_cell_setting            triclinic
loop_
_symmetry_equiv_pos_as_xyz
'x, y, z'
_cell_length_a     32.445762
_cell_length_b     36.876177
_cell_length_c     33.569164
_cell_angle_alpha  89.926288
_cell_angle_beta   89.977365
_cell_angle_gamma 90.072956
loop_
_atom_site_label
_atom_site_type_symbol
_atom_site_fract_x
_atom_site_fract_y
_atom_site_fract_z
_atom_type_partial_charge
Zn0 Zn 0.1236 0.41586 0.11615 0.0
Zn1 Zn 0.15753 0.3649 0.06981 0.0
O2 O 0.16609 0.41253 0.03878 0.0
O3 O 0.14024 0.45483 0.0779 0.0
O4 O 0.18754 0.32828 0.03643 0.0
O5 O 0.15972 0.40172 0.16155 0.0
O6 O 0.18672 0.3589 0.124 0.0
C7 C 0.15776 0.44566 0.04581 0.0
C8 C 0.06534 0.36298 0.08626 0.0
O9 O 0.09664 0.34888 0.06937 0.0
O10 O 0.06906 0.39085 0.10794 0.0
C11 C 0.17203 0.31211 0.0066 0.0
O12 O 0.13389 0.31897 -0.0041 0.0
C13 C 0.1841 0.37532 0.15723 0.0
Zn14 Zn 0.83925 0.58015 0.62097 0.0
Zn15 Zn 0.82241 0.62316 0.5687 0.0
O16 O 0.80668 0.5751 0.54119 0.0
O17 O 0.83743 0.53817 0.58321 0.0
O18 O 0.80152 0.66161 0.53102 0.0
O19 O 0.79194 0.5886 0.65676 0.0
O20 O 0.7912 0.63829 0.62108 0.0
C21 C 0.81919 0.54343 0.55043 0.0
C22 C 0.90956 0.61915 0.59925 0.0
O23 O 0.88649 0.62568 0.56937 0.0
O24 O 0.89306 0.6069 0.63065 0.0
C25 C 0.81626 0.67101 0.49751 0.0
O26 O 0.84972 0.65536 0.48382 0.0
C27 C 0.77905 0.62051 0.65155 0.0
Zn28 Zn 0.12831 0.58299 0.85067 0.0
Zn29 Zn 0.16094 0.63445 0.89707 0.0
O30 O 0.16797 0.58717 0.92917 0.0
O31 O 0.14361 0.54439 0.88974 0.0
O32 O 0.18984 0.6714 0.931 0.0
O33 O 0.16622 0.59659 0.80634 0.0
O34 O 0.19268 0.63959 0.84402 0.0
C35 C 0.15987 0.55394 0.9223 0.0
C36 C 0.06918 0.63608 0.87794 0.0
O37 O 0.10012 0.65068 0.89499 0.0
O38 O 0.07344 0.60776 0.85708 0.0
C39 C 0.17363 0.68785 0.96028 0.0
O40 O 0.13516 0.6812 0.97011 0.0
C41 C 0.19109 0.62263 0.81106 0.0
Zn42 Zn 0.86412 0.4025 0.36259 0.0
Zn43 Zn 0.82556 0.35087 0.40398 0.0
O44 O 0.81633 0.39705 0.43774 0.0
O45 O 0.84718 0.43975 0.40251 0.0
O46 O 0.79353 0.31245 0.43367 0.0
O47 O 0.82932 0.39302 0.31481 0.0
O48 O 0.79763 0.34974 0.34833 0.0
C49 C 0.82686 0.43008 0.43287 0.0
C50 C 0.91922 0.34752 0.39185 0.0
O51 O 0.88646 0.33361 0.4064 0.0
O52 O 0.9176 0.3762 0.37119 0.0
C53 C 0.80186 0.30383 0.46942 0.0
O54 O 0.83258 0.31981 0.4879 0.0
C55 C 0.80258 0.36813 0.31651 0.0
Zn56 Zn 0.83867 0.58288 0.84649 0.0
Zn57 Zn 0.80617 0.63437 0.89207 0.0
O58 O 0.77816 0.64168 0.83719 0.0
O59 O 0.80361 0.59765 0.80037 0.0
O60 O 0.77779 0.67221 0.92507 0.0
O61 O 0.82094 0.54397 0.88466 0.0
O62 O 0.79619 0.58681 0.92365 0.0
C63 C 0.78055 0.62503 0.80406 0.0
C64 C 0.89831 0.63472 0.87623 0.0
O65 O 0.8673 0.64925 0.89311 0.0
O66 O 0.89406 0.60685 0.85461 0.0
C67 C 0.78001 0.70524 0.91449 0.0
O68 O 0.80192 0.71423 0.88308 0.0
C69 C 0.80382 0.55347 0.91685 0.0
Zn70 Zn 0.14208 0.40674 0.36659 0.0
Zn71 Zn 0.18235 0.35272 0.40257 0.0
O72 O 0.2036 0.34905 0.34513 0.0
O73 O 0.17382 0.39598 0.31656 0.0
O74 O 0.21474 0.31351 0.43037 0.0
O75 O 0.16271 0.44294 0.40641 0.0
O76 O 0.20018 0.39923 0.43245 0.0
C77 C 0.19745 0.36875 0.3146 0.0
C78 C 0.08772 0.35161 0.39627 0.0
O79 O 0.12092 0.33733 0.4093 0.0
O80 O 0.08869 0.38086 0.37658 0.0
C81 C 0.2143 0.28124 0.41716 0.0
O82 O 0.1915 0.27321 0.38607 0.0
C83 C 0.18892 0.43235 0.43175 0.0
Zn84 Zn 0.8375 0.41998 0.11362 0.0
Zn85 Zn 0.80304 0.36725 0.07187 0.0
O86 O 0.7775 0.3624 0.12823 0.0
O87 O 0.8041 0.40786 0.16183 0.0
O88 O 0.7727 0.32862 0.04148 0.0
O89 O 0.81977 0.45784 0.07452 0.0
O90 O 0.79347 0.41377 0.0382 0.0
C91 C 0.781 0.38025 0.16051 0.0
C92 C 0.89534 0.36604 0.08497 0.0
O93 O 0.8636 0.35105 0.0699 0.0
O94 O 0.89217 0.39497 0.105 0.0
C95 C 0.77585 0.29572 0.05232 0.0
O96 O 0.79967 0.28727 0.08256 0.0
C97 C 0.80175 0.44728 0.04323 0.0
Zn98 Zn 0.15839 0.56732 0.60991 0.0
Zn99 Zn 0.17882 0.62216 0.56989 0.0
O100 O 0.20804 0.63216 0.62343 0.0
O101 O 0.1842 0.58692 0.65941 0.0
O102 O 0.20142 0.66276 0.53608 0.0
O103 O 0.18795 0.53066 0.57822 0.0
O104 O 0.19852 0.5763 0.53804 0.0
C105 C 0.20504 0.6158 0.6567 0.0
C106 C 0.08784 0.60813 0.58678 0.0
O107 O 0.11524 0.63074 0.57528 0.0
O108 O 0.09887 0.57707 0.59876 0.0
C109 C 0.19878 0.69578 0.54652 0.0
O110 O 0.17762 0.70449 0.57844 0.0
C111 C 0.20244 0.54256 0.54583 0.0
Zn112 Zn 0.61613 0.9078 0.10234 0.0
Zn113 Zn 0.66106 0.85901 0.06357 0.0
O114 O 0.67698 0.90733 0.03627 0.0
O115 O 0.63568 0.94666 0.06502 0.0
O116 O 0.69494 0.82219 0.03416 0.0
O117 O 0.64648 0.89612 0.15278 0.0
O118 O 0.68101 0.85322 0.12153 0.0
C119 C 0.66274 0.93943 0.03907 0.0
C120 C 0.56652 0.85344 0.06565 0.0
O121 O 0.60109 0.84194 0.05284 0.0
O122 O 0.56472 0.88061 0.08851 0.0
C123 C 0.68651 0.81467 -0.00183 0.0
O124 O 0.65578 0.83119 0.98032 0.0
C125 C 0.6723 0.87046 0.15329 0.0
Zn126 Zn 0.34417 0.0781 0.61201 0.0
Zn127 Zn 0.32407 0.1242 0.56625 0.0
O128 O 0.29756 0.07893 0.54066 0.0
O129 O 0.33724 0.03935 0.57038 0.0
O130 O 0.30227 0.16482 0.53223 0.0
O131 O 0.30054 0.08659 0.65251 0.0
O132 O 0.30113 0.13902 0.62209 0.0
C133 C 0.31167 0.04682 0.54316 0.0
C134 C 0.41367 0.11419 0.58712 0.0
O135 O 0.38833 0.12245 0.55951 0.0
O136 O 0.39953 0.10185 0.61951 0.0
C137 C 0.31206 0.17168 0.49638 0.0
O138 O 0.3405 0.15232 0.47849 0.0
C139 C 0.29035 0.11962 0.65178 0.0
Zn140 Zn 0.61717 0.08795 0.86706 0.0
Zn141 Zn 0.65905 0.1387 0.90578 0.0
O142 O 0.67478 0.09143 0.93542 0.0
O143 O 0.63575 0.05047 0.90631 0.0
O144 O 0.69094 0.17685 0.93531 0.0
O145 O 0.65004 0.09841 0.81781 0.0
O146 O 0.68218 0.14298 0.8487 0.0
C147 C 0.6616 0.05893 0.93294 0.0
C148 C 0.56453 0.14249 0.89875 0.0
O149 O 0.59816 0.15508 0.91272 0.0
O150 O 0.56448 0.11445 0.87713 0.0
C151 C 0.68205 0.18468 0.97112 0.0
O152 O 0.65162 0.16772 -0.01093 0.0
C153 C 0.67557 0.12435 0.81743 0.0
Zn154 Zn 0.37257 0.90363 0.37169 0.0
Zn155 Zn 0.32918 0.85101 0.40629 0.0
O156 O 0.31034 0.89724 0.4359 0.0
O157 O 0.34955 0.93991 0.41 0.0
O158 O 0.29496 0.81203 0.43239 0.0
O159 O 0.34442 0.89351 0.31972 0.0
O160 O 0.31061 0.84816 0.34754 0.0
C161 C 0.32239 0.93014 0.43487 0.0
C162 C 0.42421 0.84951 0.4064 0.0
O163 O 0.38999 0.83559 0.4174 0.0
O164 O 0.42497 0.87815 0.38568 0.0
C165 C 0.29976 0.80445 0.46901 0.0
O166 O 0.32806 0.82149 0.48978 0.0
C167 C 0.3194 0.86731 0.31708 0.0
Zn168 Zn 0.3467 0.08753 0.86225 0.0
Zn169 Zn 0.30396 0.13831 0.89996 0.0
O170 O 0.28482 0.14414 0.8418 0.0
O171 O 0.31639 0.09892 0.81161 0.0
O172 O 0.26942 0.17511 0.92853 0.0
O173 O 0.32692 0.0495 0.90045 0.0
O174 O 0.28764 0.09067 0.92864 0.0
C175 C 0.29233 0.12586 0.81049 0.0
C176 C 0.39811 0.14244 0.89691 0.0
O177 O 0.36412 0.15515 0.90987 0.0
O178 O 0.39867 0.11453 0.87507 0.0
C179 C 0.27439 0.20886 0.92274 0.0
O180 O 0.30301 0.22012 0.89792 0.0
C181 C 0.30072 0.05814 0.92668 0.0
Zn182 Zn 0.64193 0.9076 0.3762 0.0
Zn183 Zn 0.68529 0.85201 0.40545 0.0
O184 O 0.69819 0.84888 0.34554 0.0
O185 O 0.66505 0.89655 0.32202 0.0
O186 O 0.71949 0.81188 0.42985 0.0
O187 O 0.66925 0.943 0.41276 0.0
O188 O 0.70788 0.89795 0.43389 0.0
C189 C 0.68753 0.869 0.31646 0.0
C190 C 0.59057 0.85282 0.41098 0.0
O191 O 0.62478 0.83721 0.41852 0.0
O192 O 0.58973 0.88307 0.39324 0.0
C193 C 0.72236 0.78071 0.41396 0.0
O194 O 0.70256 0.77386 0.38068 0.0
C195 C 0.6979 0.9314 0.43487 0.0
Zn196 Zn 0.35427 0.91284 0.09727 0.0
Zn197 Zn 0.30841 0.86183 0.06393 0.0
O198 O 0.29423 0.85661 0.12353 0.0
O199 O 0.329 0.90178 0.15046 0.0
O200 O 0.27161 0.82511 0.03782 0.0
O201 O 0.33189 0.95092 0.06085 0.0
O202 O 0.29086 0.90941 0.03564 0.0
C203 C 0.30511 0.87484 0.15397 0.0
C204 C 0.4023 0.85673 0.06072 0.0
O205 O 0.36735 0.84379 0.05077 0.0
O206 O 0.40478 0.88557 0.08091 0.0
C207 C 0.27583 0.79136 0.04415 0.0
O208 O 0.30466 0.77994 0.06859 0.0
C209 C 0.30399 0.942 0.03645 0.0
Zn210 Zn 0.66147 0.06311 0.60276 0.0
Zn211 Zn 0.68272 0.11888 0.56864 0.0
O212 O 0.70536 0.1282 0.62536 0.0
O213 O 0.67486 0.08304 0.65652 0.0
O214 O 0.7062 0.16096 0.53735 0.0
O215 O 0.69957 0.02846 0.57759 0.0
O216 O 0.70668 0.07421 0.53693 0.0
C217 C 0.69603 0.1118 0.65754 0.0
C218 C 0.59189 0.09992 0.57369 0.0
O219 O 0.61863 0.12506 0.56957 0.0
O220 O 0.60404 0.06803 0.58114 0.0
C221 C 0.70556 0.19346 0.5499 0.0
O222 O 0.6865 0.20117 0.58333 0.0
C223 C 0.71388 0.04101 0.54544 0.0
C224 C 0.00165 0.33363 0.11149 0.0
C225 C 0.0233 0.3491 0.07905 0.0
C226 C 0.95837 0.35869 0.04338 0.0
C227 C 0.93695 0.35075 0.07911 0.0
N228 N 0.93591 0.32604 0.14537 0.0
N229 N 0.02406 0.37328 0.0124 0.0
C230 C 0.95793 0.33601 0.1124 0.0
C231 C 0.00222 0.35971 0.04392 0.0
N232 N 0.02335 0.31741 0.14147 0.0
N233 N 0.93665 0.36631 0.00952 0.0
H234 H 0.05618 0.37313 0.01147 0.0
H235 H 0.0107 0.38574 -0.01222 0.0
H236 H 0.90452 0.3662 0.00875 0.0
H237 H 0.95008 0.3698 0.98163 0.0
H238 H 0.00987 0.30364 0.16522 0.0
H239 H 0.05544 0.31536 0.14072 0.0
H240 H 0.94911 0.31863 0.17241 0.0
H241 H 0.90372 0.3259 0.14569 0.0
C242 C 0.97719 0.64367 0.56957 0.0
C243 C 0.95574 0.62008 0.59627 0.0
C244 C 0.02201 0.6021 0.62396 0.0
C245 C 0.04336 0.61795 0.59155 0.0
N246 N 0.03888 0.65148 0.52958 0.0
N247 N 0.96262 0.56609 0.63784 0.0
C248 C 0.02044 0.63838 0.56318 0.0
C249 C 0.97938 0.5963 0.62062 0.0
N250 N 0.95716 0.67167 0.55138 0.0
N251 N 0.04222 0.5922 0.65794 0.0
H252 H 0.93354 0.5561 0.63056 0.0
H253 H 0.98036 0.54774 0.65416 0.0
H254 H 0.07319 0.59849 0.66284 0.0
H255 H 0.02666 0.58206 0.6828 0.0
H256 H 0.97243 0.69099 0.53411 0.0
H257 H 0.92656 0.6782 0.55741 0.0
H258 H 0.02228 0.66342 0.50645 0.0
H259 H 0.06996 0.64763 0.52317 0.0
C260 C 0.96183 0.63842 0.91814 0.0
C261 C 0.94049 0.64853 0.88299 0.0
C262 C 0.00547 0.6639 0.85005 0.0
C263 C 0.02695 0.65018 0.88357 0.0
N264 N 0.02723 0.63459 0.95322 0.0
N265 N 0.93952 0.6803 0.82055 0.0
C266 C 0.00556 0.64131 0.91911 0.0
C267 C 0.96166 0.66472 0.85066 0.0
N268 N 0.94052 0.62357 0.94932 0.0
N269 N 0.02721 0.67445 0.81713 0.0
H270 H 0.90735 0.68124 0.82096 0.0
H271 H 0.95262 0.69467 0.79705 0.0
H272 H 0.05936 0.67585 0.81703 0.0
H273 H 0.01384 0.68099 0.7899 0.0
H274 H 0.95439 0.61133 0.97381 0.0
H275 H 0.90842 0.62219 0.94998 0.0
H276 H 0.01361 0.63073 0.98098 0.0
H277 H 0.05929 0.63591 0.95446 0.0
C278 C 0.0274 0.31724 0.37101 0.0
C279 C 0.04691 0.33486 0.40333 0.0
C280 C 0.98021 0.34234 0.43654 0.0
C281 C 0.96054 0.3324 0.40047 0.0
N282 N 0.96336 0.30528 0.33558 0.0
N283 N 0.04418 0.35991 0.46925 0.0
C284 C 0.9836 0.31741 0.36867 0.0
C285 C 0.02401 0.34519 0.4374 0.0
N286 N 0.05115 0.30138 0.34231 0.0
N287 N 0.95678 0.35025 0.46921 0.0
H288 H 0.07629 0.36086 0.47084 0.0
H289 H 0.02956 0.37178 0.49352 0.0
H290 H 0.9247 0.34849 0.4689 0.0
H291 H 0.96883 0.35579 0.49727 0.0
H292 H 0.03944 0.28635 0.31867 0.0
H293 H 0.08329 0.30108 0.34409 0.0
H294 H 0.97788 0.29734 0.30939 0.0
H295 H 0.93124 0.30377 0.33437 0.0
C296 C 0.46103 0.81808 0.08099 0.0
C297 C 0.44122 0.83825 0.05066 0.0
C298 C 0.50734 0.85102 0.01877 0.0
C299 C 0.52717 0.83695 0.05303 0.0
N300 N 0.52596 0.79748 0.10971 0.0
N301 N 0.44233 0.86362 0.98499 0.0
C302 C 0.50483 0.81664 0.08152 0.0
C303 C 0.4635 0.85072 0.01716 0.0
N304 N 0.43773 0.80265 0.11039 0.0
N305 N 0.53055 0.8668 -0.01047 0.0
H306 H 0.41015 0.86322 0.98402 0.0
H307 H 0.45604 0.87236 0.95867 0.0
H308 H 0.56271 0.86612 -0.00996 0.0
H309 H 0.51847 0.88043 0.96506 0.0
H310 H 0.44971 0.78994 0.13549 0.0
H311 H 0.40555 0.80275 0.10929 0.0
H312 H 0.51219 0.78105 0.13112 0.0
H313 H 0.55813 0.79642 0.10977 0.0
C314 C 0.52533 0.13245 0.55187 0.0
C315 C 0.54668 0.10743 0.57681 0.0
C316 C 0.48091 0.08332 0.59922 0.0
C317 C 0.4592 0.11193 0.58033 0.0
N318 N 0.46313 0.16829 0.54346 0.0
N319 N 0.54194 0.07059 0.63663 0.0
C320 C 0.482 0.13795 0.55787 0.0
C321 C 0.52364 0.0865 0.60441 0.0
N322 N 0.54552 0.14991 0.52177 0.0
N323 N 0.46147 0.0521 0.61064 0.0
H324 H 0.57252 0.07557 0.64456 0.0
H325 H 0.52499 0.05673 0.65827 0.0
H326 H 0.43106 0.0462 0.60291 0.0
H327 H 0.47751 0.03012 0.62261 0.0
H328 H 0.53035 0.16579 0.50068 0.0
H329 H 0.57661 0.14576 0.51554 0.0
H330 H 0.47932 0.18947 0.53005 0.0
H331 H 0.43209 0.17394 0.54835 0.0
C332 C 0.50378 0.17801 0.87717 0.0
C333 C 0.52428 0.15915 0.90802 0.0
C334 C 0.45856 0.14841 0.94187 0.0
C335 C 0.43812 0.1594 0.90665 0.0
N336 N 0.43861 0.19088 0.84408 0.0
N337 N 0.52371 0.13194 0.97303 0.0
C338 C 0.45999 0.17709 0.87571 0.0
C339 C 0.50242 0.14701 0.94206 0.0
N340 N 0.52664 0.19552 0.84888 0.0
N341 N 0.43574 0.13806 0.97414 0.0
H342 H 0.55587 0.13193 0.974 0.0
H343 H 0.51002 0.11921 -0.00267 0.0
H344 H 0.40359 0.13902 0.97402 0.0
H345 H 0.44819 0.13111 0.00165 0.0
H346 H 0.51423 0.21113 0.82604 0.0
H347 H 0.5588 0.1963 0.8502 0.0
H348 H 0.45222 0.20134 0.81847 0.0
H349 H 0.40643 0.19152 0.84366 0.0
C350 C 0.48659 0.81352 0.39041 0.0
C351 C 0.4643 0.83408 0.41865 0.0
C352 C 0.52828 0.84889 0.4537 0.0
C353 C 0.55053 0.83568 0.42053 0.0
N354 N 0.55341 0.79993 0.36089 0.0
N355 N 0.4614 0.86571 0.481 0.0
C356 C 0.53044 0.8153 0.3905 0.0
C357 C 0.48442 0.84916 0.45221 0.0
N358 N 0.4654 0.7936 0.36293 0.0
N359 N 0.54952 0.86219 0.48562 0.0
H360 H 0.42923 0.86488 0.48076 0.0
H361 H 0.47366 0.88031 0.50469 0.0
H362 H 0.58169 0.86179 0.48665 0.0
H363 H 0.53582 0.87117 0.51182 0.0
H364 H 0.47915 0.77661 0.34211 0.0
H365 H 0.43323 0.79229 0.36305 0.0
H366 H 0.5411 0.78746 0.3358 0.0
H367 H 0.58559 0.80006 0.36151 0.0
C368 C 0.233 0.38782 0.21183 0.0
C369 C 0.20675 0.36269 0.1927 0.0
C370 C 0.19934 0.32885 0.25493 0.0
C371 C 0.21502 0.35949 0.27528 0.0
N372 N 0.25581 0.41372 0.27474 0.0
N373 N 0.16985 0.30595 0.19346 0.0
C374 C 0.2358 0.38716 0.25403 0.0
C375 C 0.19262 0.33141 0.21319 0.0
N376 N 0.25352 0.41292 0.18938 0.0
N377 N 0.18976 0.29812 0.27567 0.0
H378 H 0.16586 0.3064 0.16266 0.0
H379 H 0.15397 0.28501 0.20754 0.0
H380 H 0.19524 0.29566 0.30612 0.0
H381 H 0.18059 0.27398 0.26231 0.0
H382 H 0.27457 0.43147 0.20082 0.0
H383 H 0.25138 0.41313 0.15833 0.0
H384 H 0.26855 0.43681 0.26181 0.0
H385 H 0.25923 0.41238 0.30565 0.0
C386 C 0.72928 0.61519 0.70691 0.0
C387 C 0.75654 0.63764 0.68511 0.0
C388 C 0.77908 0.66722 0.74612 0.0
C389 C 0.75998 0.63881 0.76787 0.0
N390 N 0.70661 0.59408 0.77226 0.0
N391 N 0.78882 0.6961 0.68151 0.0
C392 C 0.73072 0.61606 0.74922 0.0
C393 C 0.77481 0.66783 0.70398 0.0
N394 N 0.70478 0.59149 0.68658 0.0
N395 N 0.80387 0.69145 0.76539 0.0
H396 H 0.78391 0.69717 0.65083 0.0
H397 H 0.80087 0.71987 0.6935 0.0
H398 H 0.8062 0.69216 0.79636 0.0
H399 H 0.82268 0.71014 0.75084 0.0
H400 H 0.68527 0.57265 0.69988 0.0
H401 H 0.70387 0.59163 0.65545 0.0
H402 H 0.6845 0.57634 0.76116 0.0
H403 H 0.70783 0.59519 0.80334 0.0
C404 C 0.24235 0.6079 0.75911 0.0
C405 C 0.21585 0.63391 0.77633 0.0
C406 C 0.20356 0.66155 0.71139 0.0
C407 C 0.22259 0.63091 0.69376 0.0
N408 N 0.27287 0.58367 0.69841 0.0
N409 N 0.18543 0.69307 0.77268 0.0
C410 C 0.24707 0.60741 0.71709 0.0
C411 C 0.20186 0.66376 0.75366 0.0
N412 N 0.26021 0.58241 0.78302 0.0
N413 N 0.18431 0.68654 0.68787 0.0
H414 H 0.18433 0.69474 0.80368 0.0
H415 H 0.17633 0.71675 0.75832 0.0
H416 H 0.18704 0.68639 0.65697 0.0
H417 H 0.16557 0.70719 0.69865 0.0
H418 H 0.2771 0.56043 0.77259 0.0
H419 H 0.25758 0.58359 0.81402 0.0
H420 H 0.29291 0.56625 0.7132 0.0
H421 H 0.27599 0.58358 0.66743 0.0
C422 C 0.74609 0.39309 0.22462 0.0
C423 C 0.7634 0.36703 0.19867 0.0
C424 C 0.7883 0.3317 0.25526 0.0
C425 C 0.77786 0.3611 0.28041 0.0
N426 N 0.735 0.41277 0.29304 0.0
N427 N 0.78215 0.3045 0.18961 0.0
C428 C 0.75208 0.38926 0.26634 0.0
C429 C 0.77779 0.33366 0.2142 0.0
N430 N 0.72644 0.42242 0.20867 0.0
N431 N 0.81088 0.30347 0.26996 0.0
H432 H 0.77259 0.30513 0.16 0.0
H433 H 0.79044 0.27876 0.19954 0.0
H434 H 0.81776 0.30089 0.30017 0.0
H435 H 0.82396 0.28343 0.25218 0.0
H436 H 0.71613 0.44452 0.2251 0.0
H437 H 0.7208 0.42434 0.1781 0.0
H438 H 0.71455 0.43333 0.2854 0.0
H439 H 0.73933 0.40973 0.3237 0.0
C440 C 0.67606 0.8313 0.25563 0.0
C441 C 0.69812 0.85947 0.27502 0.0
C442 C 0.71706 0.88614 0.2109 0.0
C443 C 0.69099 0.86065 0.1919 0.0
N444 N 0.65678 0.80276 0.19309 0.0
N445 N 0.74952 0.90622 0.27241 0.0
C446 C 0.67468 0.8308 0.21329 0.0
C447 C 0.7223 0.88425 0.25286 0.0
N448 N 0.65379 0.80698 0.27765 0.0
N449 N 0.73496 0.91305 0.18882 0.0
H450 H 0.75367 0.90469 0.30322 0.0
H451 H 0.77011 0.92361 0.25822 0.0
H452 H 0.7331 0.91364 0.15777 0.0
H453 H 0.75072 0.93499 0.20095 0.0
H454 H 0.63279 0.78873 0.26552 0.0
H455 H 0.65507 0.80592 0.30865 0.0
H456 H 0.64712 0.77877 0.20654 0.0
H457 H 0.65492 0.80218 0.1621 0.0
C458 C 0.24623 0.11394 0.75298 0.0
C459 C 0.27557 0.13679 0.77145 0.0
C460 C 0.29127 0.16493 0.70723 0.0
C461 C 0.27175 0.1352 0.68845 0.0
N462 N 0.21933 0.08949 0.69069 0.0
N463 N 0.3221 0.18767 0.76816 0.0
C464 C 0.24469 0.1128 0.71066 0.0
C465 C 0.296 0.16421 0.74931 0.0
N466 N 0.22154 0.09255 0.77616 0.0
N467 N 0.30521 0.19338 0.68497 0.0
H468 H 0.32498 0.18852 0.7991 0.0
H469 H 0.34192 0.20526 0.75323 0.0
H470 H 0.29929 0.19542 0.65455 0.0
H471 H 0.31779 0.21685 0.6972 0.0
H472 H 0.19921 0.07496 0.76521 0.0
H473 H 0.22235 0.0939 0.80723 0.0
H474 H 0.20002 0.07064 0.70422 0.0
H475 H 0.21734 0.08991 0.65962 0.0
C476 C 0.67947 0.15976 0.75461 0.0
C477 C 0.69647 0.13267 0.77947 0.0
C478 C 0.73157 0.10565 0.72236 0.0
C479 C 0.70649 0.12685 0.697 0.0
N480 N 0.65985 0.1769 0.68741 0.0
N481 N 0.74372 0.08347 0.7896 0.0
C482 C 0.68246 0.15565 0.7126 0.0
C483 C 0.72499 0.10724 0.76416 0.0
N484 N 0.65926 0.18843 0.77133 0.0
N485 N 0.76062 0.08343 0.70596 0.0
H486 H 0.74048 0.08551 0.82047 0.0
H487 H 0.76161 0.06163 0.78044 0.0
H488 H 0.76554 0.08245 0.67522 0.0
H489 H 0.78172 0.06842 0.72245 0.0
H490 H 0.6485 0.2106 0.75522 0.0
H491 H 0.65651 0.19147 0.80211 0.0
H492 H 0.63776 0.19543 0.69686 0.0
H493 H 0.66226 0.1751 0.65653 0.0
C494 C 0.27012 0.88693 0.21824 0.0
C495 C 0.29392 0.86312 0.19464 0.0
C496 C 0.31689 0.83098 0.25455 0.0
C497 C 0.30095 0.85978 0.27772 0.0
N498 N 0.25739 0.91211 0.28401 0.0
N499 N 0.33716 0.81026 0.18879 0.0
C500 C 0.27519 0.88643 0.26028 0.0
C501 C 0.31544 0.8337 0.2123 0.0
N502 N 0.24344 0.91028 0.2 0.0
N503 N 0.33448 0.80181 0.273 0.0
H504 H 0.33565 0.81074 0.15778 0.0
H505 H 0.35784 0.79114 0.19972 0.0
H506 H 0.33642 0.7996 0.3039 0.0
H507 H 0.34386 0.77849 0.25813 0.0
H508 H 0.22316 0.9272 0.21513 0.0
H509 H 0.23943 0.91046 0.16913 0.0
H510 H 0.24179 0.93474 0.2733 0.0
H511 H 0.25905 0.91092 0.31505 0.0
C512 C 0.2449 0.23382 -0.01388 0.0
C513 C 0.24796 0.23527 0.94398 0.0
C514 C 0.20344 0.28892 0.94304 0.0
C515 C 0.19698 0.28508 0.98465 0.0
N516 N 0.20426 0.24882 0.04421 0.0
N517 N 0.22299 0.25939 0.88155 0.0
C518 C 0.21563 0.25606 0.00578 0.0
C519 C 0.22523 0.26149 0.92214 0.0
N520 N 0.27113 0.21241 0.00762 0.0
N521 N 0.19041 0.31945 0.92367 0.0
H522 H 0.23751 0.23912 0.86509 0.0
H523 H 0.20338 0.27554 0.86455 0.0
H524 H 0.17517 0.34065 0.93796 0.0
H525 H 0.19824 0.32533 0.89425 0.0
H526 H 0.27299 0.21323 0.03859 0.0
H527 H 0.29403 0.19656 -0.00545 0.0
H528 H 0.21381 0.22576 0.05959 0.0
H529 H 0.18191 0.26373 0.05935 0.0
C530 C 0.81243 0.73164 0.46303 0.0
C531 C 0.79368 0.69808 0.47315 0.0
C532 C 0.72779 0.71935 0.44605 0.0
C533 C 0.74714 0.75195 0.43349 0.0
N534 N 0.80957 0.78619 0.42269 0.0
N535 N 0.73644 0.65675 0.46626 0.0
C536 C 0.79 0.75727 0.43986 0.0
C537 C 0.75219 0.69098 0.46226 0.0
N538 N 0.85092 0.73976 0.47699 0.0
N539 N 0.68584 0.71608 0.44433 0.0
H540 H 0.75362 0.63504 0.47724 0.0
H541 H 0.70782 0.64905 0.45502 0.0
H542 H 0.66666 0.73645 0.43336 0.0
H543 H 0.66972 0.6946 0.45718 0.0
H544 H 0.86425 0.76536 0.47445 0.0
H545 H 0.86835 0.72177 0.49403 0.0
H546 H 0.84146 0.78943 0.42273 0.0
H547 H 0.7943 0.80529 0.40515 0.0
C548 C 0.22573 0.7393 0.04492 0.0
C549 C 0.24913 0.76506 0.02301 0.0
C550 C 0.21745 0.74379 0.96108 0.0
C551 C 0.19812 0.71517 0.98235 0.0
N552 N 0.18983 0.68173 0.04379 0.0
N553 N 0.27363 0.78689 0.95934 0.0
C554 C 0.20376 0.71184 0.02414 0.0
C555 C 0.24672 0.76602 0.98081 0.0
N556 N 0.22318 0.74182 0.08547 0.0
N557 N 0.20679 0.75065 0.9224 0.0
H558 H 0.29658 0.80268 0.97245 0.0
H559 H 0.27596 0.78562 0.92841 0.0
H560 H 0.18445 0.73576 0.90719 0.0
H561 H 0.21689 0.77344 0.90681 0.0
H562 H 0.20312 0.72609 0.10251 0.0
H563 H 0.23806 0.762 0.10179 0.0
H564 H 0.19703 0.67615 0.07341 0.0
H565 H 0.17439 0.66056 0.02962 0.0
C566 C 0.71012 0.25266 0.51297 0.0
C567 C 0.73003 0.22176 0.52918 0.0
C568 C 0.7964 0.24327 0.50316 0.0
C569 C 0.77712 0.27565 0.49004 0.0
N570 N 0.71712 0.31422 0.48839 0.0
N571 N 0.79314 0.191 0.54677 0.0
C572 C 0.73433 0.2812 0.49651 0.0
C573 C 0.77348 0.21794 0.52619 0.0
N574 N 0.66803 0.25419 0.51209 0.0
N575 N 0.83618 0.23601 0.49235 0.0
H576 H 0.77767 0.17223 0.56461 0.0
H577 H 0.82508 0.18933 0.54923 0.0
H578 H 0.85395 0.2537 0.47517 0.0
H579 H 0.85034 0.21107 0.49726 0.0
H580 H 0.65167 0.2741 0.4968 0.0
H581 H 0.6493 0.23378 0.5238 0.0
H582 H 0.68717 0.32118 0.49648 0.0
H583 H 0.73389 0.33593 0.47673 0.0
C584 C 0.69026 0.75539 0.96195 0.0
C585 C 0.71052 0.7867 0.97679 0.0
C586 C 0.77699 0.7627 0.95429 0.0
C587 C 0.75619 0.7332 0.93608 0.0
N588 N 0.69231 0.70512 0.91572 0.0
N589 N 0.77191 0.82351 0.98104 0.0
C590 C 0.71259 0.7305 0.93803 0.0
C591 C 0.7536 0.7913 0.97136 0.0
N592 N 0.65012 0.74864 0.97199 0.0
N593 N 0.81906 0.76276 0.95656 0.0
H594 H 0.75574 0.84534 -0.00692 0.0
H595 H 0.8023 0.82982 0.97379 0.0
H596 H 0.83728 0.74211 0.94476 0.0
H597 H 0.83572 0.78153 0.97325 0.0
H598 H 0.6352 0.72431 0.96561 0.0
H599 H 0.6328 0.76588 -0.00998 0.0
H600 H 0.66037 0.70451 0.91264 0.0
H601 H 0.7074 0.68676 0.89717 0.0
C602 C 0.30712 0.23066 0.45896 0.0
C603 C 0.28785 0.19888 0.47387 0.0
C604 C 0.22021 0.22219 0.4538 0.0
C605 C 0.23968 0.25283 0.43644 0.0
N606 N 0.30206 0.28305 0.4155 0.0
N607 N 0.22762 0.16056 0.4777 0.0
C608 C 0.2833 0.25621 0.43705 0.0
C609 C 0.24481 0.19353 0.46904 0.0
N610 N 0.34777 0.23713 0.46701 0.0
N611 N 0.17823 0.22112 0.45726 0.0
H612 H 0.24476 0.13858 0.4881 0.0
H613 H 0.19725 0.15386 0.47087 0.0
H614 H 0.15907 0.24177 0.44688 0.0
H615 H 0.1626 0.20141 0.47361 0.0
H616 H 0.36235 0.26168 0.46087 0.0
H617 H 0.36626 0.21896 0.48273 0.0
H618 H 0.33382 0.28457 0.41129 0.0
H619 H 0.28573 0.30205 0.39875 0.0
C620 C 0.70816 0.26931 0.03078 0.0
C621 C 0.75183 0.26717 0.03178 0.0
C622 C 0.74912 0.20867 -0.00269 0.0
C623 C 0.70593 0.21284 -0.00755 0.0
N624 N 0.6452 0.25023 -0.00176 0.0
N625 N 0.81454 0.23811 0.0101 0.0
C626 C 0.68561 0.24399 0.0075 0.0
C627 C 0.77255 0.23771 0.01348 0.0
N628 N 0.68807 0.29458 0.05334 0.0
N629 N 0.76756 0.17647 -0.01206 0.0
H630 H 0.83282 0.25915 0.02102 0.0
H631 H 0.83096 0.21931 -0.00673 0.0
H632 H 0.75136 0.15427 0.97674 0.0
H633 H 0.79813 0.17057 -0.00517 0.0
H634 H 0.6562 0.29485 0.05708 0.0
H635 H 0.70336 0.31318 0.07147 0.0
H636 H 0.63013 0.27443 0.00477 0.0
H637 H 0.62769 0.23267 0.98074 0.0
C638 C 0.26796 0.72035 0.52698 0.0
C639 C 0.22434 0.72351 0.5262 0.0
C640 C 0.23034 0.78148 0.49076 0.0
C641 C 0.27366 0.77645 0.4882 0.0
N642 N 0.33302 0.738 0.49732 0.0
N643 N 0.16343 0.754 0.5025 0.0
C644 C 0.29231 0.74501 0.5045 0.0
C645 C 0.20532 0.75326 0.50675 0.0
N646 N 0.28629 0.69481 0.55064 0.0
N647 N 0.21328 0.81379 0.47948 0.0
H648 H 0.14416 0.73383 0.5139 0.0
H649 H 0.14805 0.77289 0.48488 0.0
H650 H 0.23059 0.83526 0.46805 0.0
H651 H 0.18259 0.82052 0.48466 0.0
H652 H 0.31793 0.69388 0.55576 0.0
H653 H 0.26972 0.67665 0.56831 0.0
H654 H 0.34715 0.71355 0.5047 0.0
H655 H 0.35186 0.75521 0.48062 0.0
C656 C 0.12273 0.51475 0.97038 0.0
C657 C 0.16088 0.52736 0.95509 0.0
C658 C 0.19817 0.48723 0.00083 0.0
C659 C 0.1599 0.47251 0.01336 0.0
N660 N 0.08635 0.46649 0.00416 0.0
N661 N 0.23491 0.52388 0.95205 0.0
C662 C 0.12233 0.48462 -0.00357 0.0
C663 C 0.19874 0.51321 0.96934 0.0
N664 N 0.0869 0.53242 0.96112 0.0
N665 N 0.23364 0.47705 0.0197 0.0
H666 H 0.2362 0.54337 0.92952 0.0
H667 H 0.26326 0.51192 0.95817 0.0
H668 H 0.23412 0.45756 0.04225 0.0
H669 H 0.26206 0.48941 0.01486 0.0
H670 H 0.05882 0.52681 0.97488 0.0
H671 H 0.0858 0.55515 0.9426 0.0
H672 H 0.05889 0.47168 -0.01087 0.0
H673 H 0.08466 0.44383 0.02273 0.0
C674 C 0.78227 0.49956 0.50508 0.0
C675 C 0.81953 0.51414 0.52044 0.0
C676 C 0.85927 0.46827 0.48468 0.0
C677 C 0.82273 0.45635 0.46572 0.0
N678 N 0.74971 0.46194 0.45459 0.0
N679 N 0.89395 0.5176 0.5179 0.0
C680 C 0.78415 0.47222 0.47511 0.0
C681 C 0.85819 0.49987 0.50842 0.0
N682 N 0.74532 0.51109 0.5199 0.0
N683 N 0.89497 0.4489 0.48062 0.0
H684 H 0.89472 0.54184 0.53386 0.0
H685 H 0.92258 0.5104 0.50631 0.0
H686 H 0.8969 0.42515 0.46385 0.0
H687 H 0.92147 0.45426 0.49712 0.0
H688 H 0.71724 0.49902 0.51287 0.0
H689 H 0.74302 0.53118 0.54164 0.0
H690 H 0.72149 0.47517 0.45689 0.0
H691 H 0.75007 0.44137 0.43328 0.0
C692 C 0.83816 0.48278 -0.00873 0.0
C693 C 0.80026 0.4726 0.0091 0.0
C694 C 0.7632 0.51411 0.9645 0.0
C695 C 0.80162 0.52667 0.94961 0.0
N696 N 0.87586 0.52874 0.95511 0.0
N697 N 0.72693 0.48005 0.01591 0.0
C698 C 0.83916 0.51258 0.96472 0.0
C699 C 0.7627 0.48859 -0.00345 0.0
N700 N 0.87316 0.46329 -0.0011 0.0
N701 N 0.72745 0.52587 0.94735 0.0
H702 H 0.72567 0.46079 0.03868 0.0
H703 H 0.69913 0.49342 0.0111 0.0
H704 H 0.72699 0.54492 0.92434 0.0
H705 H 0.69856 0.51516 0.95402 0.0
H706 H 0.90065 0.46706 0.98339 0.0
H707 H 0.87378 0.44088 0.01791 0.0
H708 H 0.90368 0.5221 0.96876 0.0
H709 H 0.87813 0.55134 0.93651 0.0
C710 C 0.20844 0.45121 0.50186 0.0
C711 C 0.20578 0.45918 0.46052 0.0
C712 C 0.22035 0.52344 0.47448 0.0
C713 C 0.21783 0.51556 0.51583 0.0
N714 N 0.2363 0.47088 0.565 0.0
N715 N 0.22578 0.49947 0.40722 0.0
C716 C 0.2211 0.47896 0.52817 0.0
C717 C 0.21696 0.49437 0.44665 0.0
N718 N 0.19586 0.41856 0.51686 0.0
N719 N 0.22633 0.55821 0.46181 0.0
H720 H 0.22582 0.47818 0.38675 0.0
H721 H 0.23705 0.52366 0.39548 0.0
H722 H 0.23735 0.57849 0.48057 0.0
H723 H 0.22167 0.5666 0.43252 0.0
H724 H 0.19378 0.41355 0.54738 0.0
H725 H 0.1836 0.39777 0.49964 0.0
H726 H 0.24189 0.44437 0.57441 0.0
H727 H 0.24817 0.49096 0.5837 0.0
C728 C 0.67478 0.03493 0.00285 0.0
C729 C 0.67546 0.03006 0.96086 0.0
C730 C 0.67728 0.96417 0.96969 0.0
C731 C 0.67607 0.96899 0.01171 0.0
N732 N 0.69108 0.00848 0.067 0.0
N733 N 0.69493 0.99136 0.90624 0.0
C734 C 0.68091 0.0043 0.0278 0.0
C735 C 0.68289 -0.00496 0.94502 0.0
N736 N 0.66522 0.06773 0.01931 0.0
N737 N 0.66983 0.93113 0.95277 0.0
H738 H 0.70041 0.01372 0.88786 0.0
H739 H 0.70398 0.96663 0.89406 0.0
H740 H 0.66405 0.90758 0.96886 0.0
H741 H 0.66581 0.92773 0.9222 0.0
H742 H 0.6598 0.07108 0.04969 0.0
H743 H 0.65928 0.091 0.00281 0.0
H744 H 0.69823 0.03357 0.07951 0.0
H745 H 0.69701 0.98638 0.0856 0.0
C746 C 0.3044 0.95214 0.50443 0.0
C747 C 0.30573 0.9579 0.46258 0.0
C748 C 0.30011 0.02346 0.47264 0.0
C749 C 0.29988 0.01776 0.51459 0.0
N750 N 0.28363 0.97667 0.56822 0.0
N751 N 0.28726 -0.0031 0.40785 0.0
C752 C 0.29565 0.98199 0.52966 0.0
C753 C 0.29742 0.99292 0.44709 0.0
N754 N 0.31454 0.91936 0.52065 0.0
N755 N 0.30605 0.05719 0.45672 0.0
H756 H 0.28401 0.97473 0.38878 0.0
H757 H 0.27753 0.02146 0.39567 0.0
H758 H 0.30868 0.08076 0.4734 0.0
H759 H 0.31148 0.06144 0.42647 0.0
H760 H 0.31846 0.91553 0.55119 0.0
H761 H 0.32243 0.89668 0.50398 0.0
H762 H 0.27691 0.95112 0.57986 0.0
H763 H 0.27579 -0.0018 0.58691 0.0
C764 C 0.28685 0.96412 0.96655 0.0
C765 C 0.28854 0.97014 0.00837 0.0
C766 C 0.28795 0.0358 -0.00262 0.0
C767 C 0.28723 0.0298 0.95552 0.0
N768 N 0.26854 0.9893 0.90227 0.0
N769 N 0.27299 0.01065 0.06251 0.0
C770 C 0.28054 -0.00577 0.94087 0.0
C771 C 0.28281 0.00572 0.02333 0.0
N772 N 0.29444 0.93066 0.95074 0.0
N773 N 0.29683 0.06918 0.01282 0.0
H774 H 0.26809 0.98886 0.08185 0.0
H775 H 0.26517 0.03585 0.07433 0.0
H776 H 0.30208 0.09223 -0.00427 0.0
H777 H 0.30239 0.07336 0.04305 0.0
H778 H 0.29836 0.92641 0.92028 0.0
H779 H 0.30005 0.90755 0.96761 0.0
H780 H 0.25996 0.96412 0.89087 0.0
H781 H 0.26266 0.01108 0.88319 0.0
C782 C 0.73245 0.02223 0.47447 0.0
C783 C 0.73145 0.01471 0.51588 0.0
C784 C 0.72474 0.94989 0.50306 0.0
C785 C 0.71873 0.9576 0.46193 0.0
N786 N 0.73419 -0.0023 0.40718 0.0
N787 N 0.75354 0.97165 0.56518 0.0
C788 C 0.72829 0.99284 0.44715 0.0
C789 C 0.73702 0.97846 0.52857 0.0
N790 N 0.73737 0.05701 0.46145 0.0
N791 N 0.71555 0.91667 0.5188 0.0
H792 H 0.76426 0.99263 0.58334 0.0
H793 H 0.76102 0.94564 0.57495 0.0
H794 H 0.70508 0.89475 0.50222 0.0
H795 H 0.71525 0.91174 0.54938 0.0
H796 H 0.73235 0.0652 0.43217 0.0
H797 H 0.74786 0.07759 0.48015 0.0
H798 H 0.74369 0.02202 0.39438 0.0
H799 H 0.73328 0.97613 0.38709 0.0
loop_
_geom_bond_atom_site_label_1
_geom_bond_atom_site_label_2
_geom_bond_distance
_geom_bond_site_symmetry_2
_ccdc_geom_bond_type
Zn0 O3 2.031 . S
Zn0 O5 2.049 . S
Zn0 O10 2.067 . S
Zn1 O2 1.962 . S
Zn1 O4 1.986 . S
Zn1 O6 1.996 . S
Zn1 O9 1.943 . S
O2 Zn1 1.962 . S
O2 C7 1.254 . S
O3 Zn0 2.031 . S
O3 C7 1.269 . S
O4 Zn1 1.986 . S
O4 C11 1.262 . S
O5 Zn0 2.049 . S
O5 C13 1.260 . S
O6 Zn1 1.996 . S
O6 C13 1.257 . S
C7 O2 1.254 . S
C7 O3 1.269 . S
C8 O9 1.249 . S
C8 O10 1.270 . S
O9 Zn1 1.943 . S
O9 C8 1.249 . S
O10 Zn0 2.067 . S
O10 C8 1.270 . S
C11 O4 1.262 . S
C11 O12 1.232 . S
O12 C11 1.232 . S
C13 O5 1.260 . S
C13 O6 1.257 . S
Zn14 O17 2.031 . S
Zn14 O19 2.049 . S
Zn14 O24 2.067 . S
Zn15 O16 1.962 . S
Zn15 O18 1.986 . S
Zn15 O20 1.996 . S
Zn15 O23 1.943 . S
O16 Zn15 1.962 . S
O16 C21 1.254 . S
O17 Zn14 2.031 . S
O17 C21 1.269 . S
O18 Zn15 1.986 . S
O18 C25 1.262 . S
O19 Zn14 2.049 . S
O19 C27 1.260 . S
O20 Zn15 1.996 . S
O20 C27 1.257 . S
C21 O16 1.254 . S
C21 O17 1.269 . S
C22 O23 1.249 . S
C22 O24 1.270 . S
O23 Zn15 1.943 . S
O23 C22 1.249 . S
O24 Zn14 2.067 . S
O24 C22 1.270 . S
C25 O18 1.262 . S
C25 O26 1.232 . S
O26 C25 1.232 . S
C27 O19 1.260 . S
C27 O20 1.257 . S
Zn28 O31 2.031 . S
Zn28 O33 2.049 . S
Zn28 O38 2.067 . S
Zn29 O30 1.962 . S
Zn29 O32 1.986 . S
Zn29 O34 1.996 . S
Zn29 O37 1.943 . S
O30 Zn29 1.962 . S
O30 C35 1.254 . S
O31 Zn28 2.031 . S
O31 C35 1.269 . S
O32 Zn29 1.986 . S
O32 C39 1.262 . S
O33 Zn28 2.049 . S
O33 C41 1.260 . S
O34 Zn29 1.996 . S
O34 C41 1.257 . S
C35 O30 1.254 . S
C35 O31 1.269 . S
C36 O37 1.249 . S
C36 O38 1.270 . S
O37 Zn29 1.943 . S
O37 C36 1.249 . S
O38 Zn28 2.067 . S
O38 C36 1.270 . S
C39 O32 1.262 . S
C39 O40 1.232 . S
O40 C39 1.232 . S
C41 O33 1.260 . S
C41 O34 1.257 . S
Zn42 O45 2.031 . S
Zn42 O47 2.049 . S
Zn42 O52 2.067 . S
Zn43 O44 1.962 . S
Zn43 O46 1.986 . S
Zn43 O48 1.996 . S
Zn43 O51 1.943 . S
O44 Zn43 1.962 . S
O44 C49 1.254 . S
O45 Zn42 2.031 . S
O45 C49 1.269 . S
O46 Zn43 1.986 . S
O46 C53 1.262 . S
O47 Zn42 2.049 . S
O47 C55 1.260 . S
O48 Zn43 1.996 . S
O48 C55 1.257 . S
C49 O44 1.254 . S
C49 O45 1.269 . S
C50 O51 1.249 . S
C50 O52 1.270 . S
O51 Zn43 1.943 . S
O51 C50 1.249 . S
O52 Zn42 2.067 . S
O52 C50 1.270 . S
C53 O46 1.262 . S
C53 O54 1.232 . S
O54 C53 1.232 . S
C55 O47 1.260 . S
C55 O48 1.257 . S
Zn56 O59 2.031 . S
Zn56 O61 2.049 . S
Zn56 O66 2.067 . S
Zn57 O58 1.962 . S
Zn57 O60 1.986 . S
Zn57 O62 1.996 . S
Zn57 O65 1.943 . S
O58 Zn57 1.962 . S
O58 C63 1.254 . S
O59 Zn56 2.031 . S
O59 C63 1.269 . S
O60 Zn57 1.986 . S
O60 C67 1.262 . S
O61 Zn56 2.049 . S
O61 C69 1.260 . S
O62 Zn57 1.996 . S
O62 C69 1.257 . S
C63 O58 1.254 . S
C63 O59 1.269 . S
C64 O65 1.249 . S
C64 O66 1.270 . S
O65 Zn57 1.943 . S
O65 C64 1.249 . S
O66 Zn56 2.067 . S
O66 C64 1.270 . S
C67 O60 1.262 . S
C67 O68 1.232 . S
O68 C67 1.232 . S
C69 O61 1.260 . S
C69 O62 1.257 . S
Zn70 O73 2.031 . S
Zn70 O75 2.049 . S
Zn70 O80 2.067 . S
Zn71 O72 1.962 . S
Zn71 O74 1.986 . S
Zn71 O76 1.996 . S
Zn71 O79 1.943 . S
O72 Zn71 1.962 . S
O72 C77 1.254 . S
O73 Zn70 2.031 . S
O73 C77 1.269 . S
O74 Zn71 1.986 . S
O74 C81 1.262 . S
O75 Zn70 2.049 . S
O75 C83 1.260 . S
O76 Zn71 1.996 . S
O76 C83 1.257 . S
C77 O72 1.254 . S
C77 O73 1.269 . S
C78 O79 1.249 . S
C78 O80 1.270 . S
O79 Zn71 1.943 . S
O79 C78 1.249 . S
O80 Zn70 2.067 . S
O80 C78 1.270 . S
C81 O74 1.262 . S
C81 O82 1.232 . S
O82 C81 1.232 . S
C83 O75 1.260 . S
C83 O76 1.257 . S
Zn84 O87 2.031 . S
Zn84 O89 2.049 . S
Zn84 O94 2.067 . S
Zn85 O86 1.962 . S
Zn85 O88 1.986 . S
Zn85 O90 1.996 . S
Zn85 O93 1.943 . S
O86 Zn85 1.962 . S
O86 C91 1.254 . S
O87 Zn84 2.031 . S
O87 C91 1.269 . S
O88 Zn85 1.986 . S
O88 C95 1.262 . S
O89 Zn84 2.049 . S
O89 C97 1.260 . S
O90 Zn85 1.996 . S
O90 C97 1.257 . S
C91 O86 1.254 . S
C91 O87 1.269 . S
C92 O93 1.249 . S
C92 O94 1.270 . S
O93 Zn85 1.943 . S
O93 C92 1.249 . S
O94 Zn84 2.067 . S
O94 C92 1.270 . S
C95 O88 1.262 . S
C95 O96 1.232 . S
O96 C95 1.232 . S
C97 O89 1.260 . S
C97 O90 1.257 . S
Zn98 O101 2.031 . S
Zn98 O103 2.049 . S
Zn98 O108 2.067 . S
Zn99 O100 1.962 . S
Zn99 O102 1.986 . S
Zn99 O104 1.996 . S
Zn99 O107 1.943 . S
O100 Zn99 1.962 . S
O100 C105 1.254 . S
O101 Zn98 2.031 . S
O101 C105 1.269 . S
O102 Zn99 1.986 . S
O102 C109 1.262 . S
O103 Zn98 2.049 . S
O103 C111 1.260 . S
O104 Zn99 1.996 . S
O104 C111 1.257 . S
C105 O100 1.254 . S
C105 O101 1.269 . S
C106 O107 1.249 . S
C106 O108 1.270 . S
O107 Zn99 1.943 . S
O107 C106 1.249 . S
O108 Zn98 2.067 . S
O108 C106 1.270 . S
C109 O102 1.262 . S
C109 O110 1.232 . S
O110 C109 1.232 . S
C111 O103 1.260 . S
C111 O104 1.257 . S
Zn112 O115 2.031 . S
Zn112 O117 2.049 . S
Zn112 O122 2.067 . S
Zn113 O114 1.962 . S
Zn113 O116 1.986 . S
Zn113 O118 1.996 . S
Zn113 O121 1.943 . S
O114 Zn113 1.962 . S
O114 C119 1.254 . S
O115 Zn112 2.031 . S
O115 C119 1.269 . S
O116 Zn113 1.986 . S
O116 C123 1.262 . S
O117 Zn112 2.049 . S
O117 C125 1.260 . S
O118 Zn113 1.996 . S
O118 C125 1.257 . S
C119 O114 1.254 . S
C119 O115 1.269 . S
C120 O121 1.249 . S
C120 O122 1.270 . S
O121 Zn113 1.943 . S
O121 C120 1.249 . S
O122 Zn112 2.067 . S
O122 C120 1.270 . S
C123 O116 1.262 . S
C123 O124 1.232 . S
O124 C123 1.232 . S
C125 O117 1.260 . S
C125 O118 1.257 . S
Zn126 O129 2.031 . S
Zn126 O131 2.049 . S
Zn126 O136 2.067 . S
Zn127 O128 1.962 . S
Zn127 O130 1.986 . S
Zn127 O132 1.996 . S
Zn127 O135 1.943 . S
O128 Zn127 1.962 . S
O128 C133 1.254 . S
O129 Zn126 2.031 . S
O129 C133 1.269 . S
O130 Zn127 1.986 . S
O130 C137 1.262 . S
O131 Zn126 2.049 . S
O131 C139 1.260 . S
O132 Zn127 1.996 . S
O132 C139 1.257 . S
C133 O128 1.254 . S
C133 O129 1.269 . S
C134 O135 1.249 . S
C134 O136 1.270 . S
O135 Zn127 1.943 . S
O135 C134 1.249 . S
O136 Zn126 2.067 . S
O136 C134 1.270 . S
C137 O130 1.262 . S
C137 O138 1.232 . S
O138 C137 1.232 . S
C139 O131 1.260 . S
C139 O132 1.257 . S
Zn140 O143 2.031 . S
Zn140 O145 2.049 . S
Zn140 O150 2.067 . S
Zn141 O142 1.962 . S
Zn141 O144 1.986 . S
Zn141 O146 1.996 . S
Zn141 O149 1.943 . S
O142 Zn141 1.962 . S
O142 C147 1.254 . S
O143 Zn140 2.031 . S
O143 C147 1.269 . S
O144 Zn141 1.986 . S
O144 C151 1.262 . S
O145 Zn140 2.049 . S
O145 C153 1.260 . S
O146 Zn141 1.996 . S
O146 C153 1.257 . S
C147 O142 1.254 . S
C147 O143 1.269 . S
C148 O149 1.249 . S
C148 O150 1.270 . S
O149 Zn141 1.943 . S
O149 C148 1.249 . S
O150 Zn140 2.067 . S
O150 C148 1.270 . S
C151 O144 1.262 . S
C151 O152 1.232 . S
O152 C151 1.232 . S
C153 O145 1.260 . S
C153 O146 1.257 . S
Zn154 O157 2.031 . S
Zn154 O159 2.049 . S
Zn154 O164 2.067 . S
Zn155 O156 1.962 . S
Zn155 O158 1.986 . S
Zn155 O160 1.996 . S
Zn155 O163 1.943 . S
O156 Zn155 1.962 . S
O156 C161 1.254 . S
O157 Zn154 2.031 . S
O157 C161 1.269 . S
O158 Zn155 1.986 . S
O158 C165 1.262 . S
O159 Zn154 2.049 . S
O159 C167 1.260 . S
O160 Zn155 1.996 . S
O160 C167 1.257 . S
C161 O156 1.254 . S
C161 O157 1.269 . S
C162 O163 1.249 . S
C162 O164 1.270 . S
O163 Zn155 1.943 . S
O163 C162 1.249 . S
O164 Zn154 2.067 . S
O164 C162 1.270 . S
C165 O158 1.262 . S
C165 O166 1.232 . S
O166 C165 1.232 . S
C167 O159 1.260 . S
C167 O160 1.257 . S
Zn168 O171 2.031 . S
Zn168 O173 2.049 . S
Zn168 O178 2.067 . S
Zn169 O170 1.962 . S
Zn169 O172 1.986 . S
Zn169 O174 1.996 . S
Zn169 O177 1.943 . S
O170 Zn169 1.962 . S
O170 C175 1.254 . S
O171 Zn168 2.031 . S
O171 C175 1.269 . S
O172 Zn169 1.986 . S
O172 C179 1.262 . S
O173 Zn168 2.049 . S
O173 C181 1.260 . S
O174 Zn169 1.996 . S
O174 C181 1.257 . S
C175 O170 1.254 . S
C175 O171 1.269 . S
C176 O177 1.249 . S
C176 O178 1.270 . S
O177 Zn169 1.943 . S
O177 C176 1.249 . S
O178 Zn168 2.067 . S
O178 C176 1.270 . S
C179 O172 1.262 . S
C179 O180 1.232 . S
O180 C179 1.232 . S
C181 O173 1.260 . S
C181 O174 1.257 . S
Zn182 O185 2.031 . S
Zn182 O187 2.049 . S
Zn182 O192 2.067 . S
Zn183 O184 1.962 . S
Zn183 O186 1.986 . S
Zn183 O188 1.996 . S
Zn183 O191 1.943 . S
O184 Zn183 1.962 . S
O184 C189 1.254 . S
O185 Zn182 2.031 . S
O185 C189 1.269 . S
O186 Zn183 1.986 . S
O186 C193 1.262 . S
O187 Zn182 2.049 . S
O187 C195 1.260 . S
O188 Zn183 1.996 . S
O188 C195 1.257 . S
C189 O184 1.254 . S
C189 O185 1.269 . S
C190 O191 1.249 . S
C190 O192 1.270 . S
O191 Zn183 1.943 . S
O191 C190 1.249 . S
O192 Zn182 2.067 . S
O192 C190 1.270 . S
C193 O186 1.262 . S
C193 O194 1.232 . S
O194 C193 1.232 . S
C195 O187 1.260 . S
C195 O188 1.257 . S
Zn196 O199 2.031 . S
Zn196 O201 2.049 . S
Zn196 O206 2.067 . S
Zn197 O198 1.962 . S
Zn197 O200 1.986 . S
Zn197 O202 1.996 . S
Zn197 O205 1.943 . S
O198 Zn197 1.962 . S
O198 C203 1.254 . S
O199 Zn196 2.031 . S
O199 C203 1.269 . S
O200 Zn197 1.986 . S
O200 C207 1.262 . S
O201 Zn196 2.049 . S
O201 C209 1.260 . S
O202 Zn197 1.996 . S
O202 C209 1.257 . S
C203 O198 1.254 . S
C203 O199 1.269 . S
C204 O205 1.249 . S
C204 O206 1.270 . S
O205 Zn197 1.943 . S
O205 C204 1.249 . S
O206 Zn196 2.067 . S
O206 C204 1.270 . S
C207 O200 1.262 . S
C207 O208 1.232 . S
O208 C207 1.232 . S
C209 O201 1.260 . S
C209 O202 1.257 . S
Zn210 O213 2.031 . S
Zn210 O215 2.049 . S
Zn210 O220 2.067 . S
Zn211 O212 1.962 . S
Zn211 O214 1.986 . S
Zn211 O216 1.996 . S
Zn211 O219 1.943 . S
O212 Zn211 1.962 . S
O212 C217 1.254 . S
O213 Zn210 2.031 . S
O213 C217 1.269 . S
O214 Zn211 1.986 . S
O214 C221 1.262 . S
O215 Zn210 2.049 . S
O215 C223 1.260 . S
O216 Zn211 1.996 . S
O216 C223 1.257 . S
C217 O212 1.254 . S
C217 O213 1.269 . S
C218 O219 1.249 . S
C218 O220 1.270 . S
O219 Zn211 1.943 . S
O219 C218 1.249 . S
O220 Zn210 2.067 . S
O220 C218 1.270 . S
C221 O214 1.262 . S
C221 O222 1.232 . S
O222 C221 1.232 . S
C223 O215 1.260 . S
C223 O216 1.257 . S
C224 C225 1.363 . S
C224 C230 1.379 1_455 S
C224 N232 1.356 . S
C225 C224 1.363 . S
C225 C231 1.363 . S
C226 C227 1.363 . S
C226 C231 1.379 1_655 S
C226 N233 1.356 . S
C227 C226 1.363 . S
C227 C230 1.363 . S
N228 C230 1.356 . S
N228 H240 0.984 . S
N228 H241 0.985 . S
N229 C231 1.356 . S
N229 H234 0.984 . S
N229 H235 0.988 . S
C230 C224 1.379 1_655 S
C230 C227 1.363 . S
C230 N228 1.356 . S
C231 C225 1.363 . S
C231 C226 1.379 1_455 S
C231 N229 1.356 . S
N232 C224 1.356 . S
N232 H238 0.984 . S
N232 H239 0.984 . S
N233 C226 1.356 . S
N233 H236 0.984 . S
N233 H237 0.985 . S
H234 N229 0.984 . S
H235 N229 0.988 . S
H236 N233 0.984 . S
H237 N233 0.985 . S
H238 N232 0.984 . S
H239 N232 0.984 . S
H240 N228 0.984 . S
H241 N228 0.985 . S
C242 C243 1.363 . S
C242 C248 1.379 1_655 S
C242 N250 1.356 . S
C243 C242 1.363 . S
C243 C249 1.363 . S
C244 C245 1.363 . S
C244 C249 1.379 1_455 S
C244 N251 1.356 . S
C245 C244 1.363 . S
C245 C248 1.363 . S
N246 C248 1.356 . S
N246 H258 0.984 . S
N246 H259 0.985 . S
N247 C249 1.356 . S
N247 H252 0.984 . S
N247 H253 0.985 . S
C248 C242 1.379 1_455 S
C248 C245 1.363 . S
C248 N246 1.356 . S
C249 C243 1.363 . S
C249 C244 1.379 1_655 S
C249 N247 1.356 . S
N250 C242 1.356 . S
N250 H256 0.984 . S
N250 H257 0.984 . S
N251 C244 1.356 . S
N251 H254 0.984 . S
N251 H255 0.985 . S
H252 N247 0.984 . S
H253 N247 0.985 . S
H254 N251 0.984 . S
H255 N251 0.985 . S
H256 N250 0.984 . S
H257 N250 0.984 . S
H258 N246 0.984 . S
H259 N246 0.985 . S
C260 C261 1.363 . S
C260 C266 1.379 1_655 S
C260 N268 1.356 . S
C261 C260 1.363 . S
C261 C267 1.363 . S
C262 C263 1.363 . S
C262 C267 1.379 1_455 S
C262 N269 1.356 . S
C263 C262 1.363 . S
C263 C266 1.363 . S
N264 C266 1.356 . S
N264 H276 0.984 . S
N264 H277 0.985 . S
N265 C267 1.356 . S
N265 H270 0.984 . S
N265 H271 0.985 . S
C266 C260 1.379 1_455 S
C266 C263 1.363 . S
C266 N264 1.356 . S
C267 C261 1.363 . S
C267 C262 1.379 1_655 S
C267 N265 1.356 . S
N268 C260 1.356 . S
N268 H274 0.984 . S
N268 H275 0.984 . S
N269 C262 1.356 . S
N269 H272 0.984 . S
N269 H273 0.985 . S
H270 N265 0.984 . S
H271 N265 0.985 . S
H272 N269 0.984 . S
H273 N269 0.985 . S
H274 N268 0.984 . S
H275 N268 0.984 . S
H276 N264 0.984 . S
H277 N264 0.985 . S
C278 C279 1.363 . S
C278 C284 1.379 1_455 S
C278 N286 1.356 . S
C279 C278 1.363 . S
C279 C285 1.363 . S
C280 C281 1.363 . S
C280 C285 1.379 1_655 S
C280 N287 1.356 . S
C281 C280 1.363 . S
C281 C284 1.363 . S
N282 C284 1.356 . S
N282 H294 0.984 . S
N282 H295 0.985 . S
N283 C285 1.356 . S
N283 H288 0.984 . S
N283 H289 0.985 . S
C284 C278 1.379 1_655 S
C284 C281 1.363 . S
C284 N282 1.356 . S
C285 C279 1.363 . S
C285 C280 1.379 1_455 S
C285 N283 1.356 . S
N286 C278 1.356 . S
N286 H292 0.984 . S
N286 H293 0.984 . S
N287 C280 1.356 . S
N287 H290 0.984 . S
N287 H291 0.985 . S
H288 N283 0.984 . S
H289 N283 0.985 . S
H290 N287 0.984 . S
H291 N287 0.985 . S
H292 N286 0.984 . S
H293 N286 0.984 . S
H294 N282 0.984 . S
H295 N282 0.985 . S
C296 C297 1.363 . S
C296 C302 1.379 . S
C296 N304 1.356 . S
C297 C296 1.363 . S
C297 C303 1.363 . S
C298 C299 1.363 . S
C298 C303 1.379 . S
C298 N305 1.356 . S
C299 C298 1.363 . S
C299 C302 1.363 . S
N300 C302 1.356 . S
N300 H312 0.984 . S
N300 H313 0.985 . S
N301 C303 1.356 . S
N301 H306 0.984 . S
N301 H307 0.985 . S
C302 C296 1.379 . S
C302 C299 1.363 . S
C302 N300 1.356 . S
C303 C297 1.363 . S
C303 C298 1.379 . S
C303 N301 1.356 . S
N304 C296 1.356 . S
N304 H310 0.984 . S
N304 H311 0.984 . S
N305 C298 1.356 . S
N305 H308 0.984 . S
N305 H309 0.985 . S
H306 N301 0.984 . S
H307 N301 0.985 . S
H308 N305 0.984 . S
H309 N305 0.985 . S
H310 N304 0.984 . S
H311 N304 0.984 . S
H312 N300 0.984 . S
H313 N300 0.985 . S
C314 C315 1.363 . S
C314 C320 1.379 . S
C314 N322 1.356 . S
C315 C314 1.363 . S
C315 C321 1.363 . S
C316 C317 1.363 . S
C316 C321 1.379 . S
C316 N323 1.356 . S
C317 C316 1.363 . S
C317 C320 1.363 . S
N318 C320 1.356 . S
N318 H330 0.984 . S
N318 H331 0.985 . S
N319 C321 1.356 . S
N319 H324 0.984 . S
N319 H325 0.985 . S
C320 C314 1.379 . S
C320 C317 1.363 . S
C320 N318 1.356 . S
C321 C315 1.363 . S
C321 C316 1.379 . S
C321 N319 1.356 . S
N322 C314 1.356 . S
N322 H328 0.984 . S
N322 H329 0.984 . S
N323 C316 1.356 . S
N323 H326 0.984 . S
N323 H327 0.985 . S
H324 N319 0.984 . S
H325 N319 0.985 . S
H326 N323 0.984 . S
H327 N323 0.985 . S
H328 N322 0.984 . S
H329 N322 0.984 . S
H330 N318 0.984 . S
H331 N318 0.985 . S
C332 C333 1.363 . S
C332 C338 1.379 . S
C332 N340 1.356 . S
C333 C332 1.363 . S
C333 C339 1.363 . S
C334 C335 1.363 . S
C334 C339 1.379 . S
C334 N341 1.356 . S
C335 C334 1.363 . S
C335 C338 1.363 . S
N336 C338 1.356 . S
N336 H348 0.984 . S
N336 H349 0.985 . S
N337 C339 1.356 . S
N337 H342 0.984 . S
N337 H343 0.985 1_556 S
C338 C332 1.379 . S
C338 C335 1.363 . S
C338 N336 1.356 . S
C339 C333 1.363 . S
C339 C334 1.379 . S
C339 N337 1.356 . S
N340 C332 1.356 . S
N340 H346 0.984 . S
N340 H347 0.984 . S
N341 C334 1.356 . S
N341 H344 0.984 . S
N341 H345 0.985 1_556 S
H342 N337 0.984 . S
H343 N337 0.985 1_554 S
H344 N341 0.984 . S
H345 N341 0.985 1_554 S
H346 N340 0.984 . S
H347 N340 0.984 . S
H348 N336 0.984 . S
H349 N336 0.985 . S
C350 C351 1.363 . S
C350 C356 1.379 . S
C350 N358 1.356 . S
C351 C350 1.363 . S
C351 C357 1.363 . S
C352 C353 1.363 . S
C352 C357 1.379 . S
C352 N359 1.356 . S
C353 C352 1.363 . S
C353 C356 1.363 . S
N354 C356 1.356 . S
N354 H366 0.984 . S
N354 H367 0.985 . S
N355 C357 1.356 . S
N355 H360 0.984 . S
N355 H361 0.985 . S
C356 C350 1.379 . S
C356 C353 1.363 . S
C356 N354 1.356 . S
C357 C351 1.363 . S
C357 C352 1.379 . S
C357 N355 1.356 . S
N358 C350 1.356 . S
N358 H364 0.984 . S
N358 H365 0.984 . S
N359 C352 1.356 . S
N359 H362 0.984 . S
N359 H363 0.985 . S
H360 N355 0.984 . S
H361 N355 0.985 . S
H362 N359 0.984 . S
H363 N359 0.985 . S
H364 N358 0.984 . S
H365 N358 0.984 . S
H366 N354 0.984 . S
H367 N354 0.985 . S
C368 C369 1.363 . S
C368 C374 1.379 . S
C368 N376 1.356 . S
C369 C368 1.363 . S
C369 C375 1.363 . S
C370 C371 1.363 . S
C370 C375 1.379 . S
C370 N377 1.356 . S
C371 C370 1.363 . S
C371 C374 1.363 . S
N372 C374 1.356 . S
N372 H384 0.984 . S
N372 H385 0.985 . S
N373 C375 1.356 . S
N373 H378 0.984 . S
N373 H379 0.985 . S
C374 C368 1.379 . S
C374 C371 1.363 . S
C374 N372 1.356 . S
C375 C369 1.363 . S
C375 C370 1.379 . S
C375 N373 1.356 . S
N376 C368 1.356 . S
N376 H382 0.984 . S
N376 H383 0.984 . S
N377 C370 1.356 . S
N377 H380 0.984 . S
N377 H381 0.985 . S
H378 N373 0.984 . S
H379 N373 0.985 . S
H380 N377 0.984 . S
H381 N377 0.985 . S
H382 N376 0.984 . S
H383 N376 0.984 . S
H384 N372 0.984 . S
H385 N372 0.985 . S
C386 C387 1.363 . S
C386 C392 1.379 . S
C386 N394 1.356 . S
C387 C386 1.363 . S
C387 C393 1.363 . S
C388 C389 1.363 . S
C388 C393 1.379 . S
C388 N395 1.356 . S
C389 C388 1.363 . S
C389 C392 1.363 . S
N390 C392 1.356 . S
N390 H402 0.984 . S
N390 H403 0.985 . S
N391 C393 1.356 . S
N391 H396 0.984 . S
N391 H397 0.985 . S
C392 C386 1.379 . S
C392 C389 1.363 . S
C392 N390 1.356 . S
C393 C387 1.363 . S
C393 C388 1.379 . S
C393 N391 1.356 . S
N394 C386 1.356 . S
N394 H400 0.984 . S
N394 H401 0.984 . S
N395 C388 1.356 . S
N395 H398 0.984 . S
N395 H399 0.985 . S
H396 N391 0.984 . S
H397 N391 0.985 . S
H398 N395 0.984 . S
H399 N395 0.985 . S
H400 N394 0.984 . S
H401 N394 0.984 . S
H402 N390 0.984 . S
H403 N390 0.985 . S
C404 C405 1.363 . S
C404 C410 1.379 . S
C404 N412 1.356 . S
C405 C404 1.363 . S
C405 C411 1.363 . S
C406 C407 1.363 . S
C406 C411 1.379 . S
C406 N413 1.356 . S
C407 C406 1.363 . S
C407 C410 1.363 . S
N408 C410 1.356 . S
N408 H420 0.984 . S
N408 H421 0.985 . S
N409 C411 1.356 . S
N409 H414 0.984 . S
N409 H415 0.985 . S
C410 C404 1.379 . S
C410 C407 1.363 . S
C410 N408 1.356 . S
C411 C405 1.363 . S
C411 C406 1.379 . S
C411 N409 1.356 . S
N412 C404 1.356 . S
N412 H418 0.984 . S
N412 H419 0.984 . S
N413 C406 1.356 . S
N413 H416 0.984 . S
N413 H417 0.985 . S
H414 N409 0.984 . S
H415 N409 0.985 . S
H416 N413 0.984 . S
H417 N413 0.985 . S
H418 N412 0.984 . S
H419 N412 0.984 . S
H420 N408 0.984 . S
H421 N408 0.985 . S
C422 C423 1.363 . S
C422 C428 1.379 . S
C422 N430 1.356 . S
C423 C422 1.363 . S
C423 C429 1.363 . S
C424 C425 1.363 . S
C424 C429 1.379 . S
C424 N431 1.356 . S
C425 C424 1.363 . S
C425 C428 1.363 . S
N426 C428 1.356 . S
N426 H438 0.984 . S
N426 H439 0.985 . S
N427 C429 1.356 . S
N427 H432 0.984 . S
N427 H433 0.985 . S
C428 C422 1.379 . S
C428 C425 1.363 . S
C428 N426 1.356 . S
C429 C423 1.363 . S
C429 C424 1.379 . S
C429 N427 1.356 . S
N430 C422 1.356 . S
N430 H436 0.984 . S
N430 H437 0.984 . S
N431 C424 1.356 . S
N431 H434 0.984 . S
N431 H435 0.985 . S
H432 N427 0.984 . S
H433 N427 0.985 . S
H434 N431 0.984 . S
H435 N431 0.985 . S
H436 N430 0.984 . S
H437 N430 0.984 . S
H438 N426 0.984 . S
H439 N426 0.985 . S
C440 C441 1.363 . S
C440 C446 1.379 . S
C440 N448 1.356 . S
C441 C440 1.363 . S
C441 C447 1.363 . S
C442 C443 1.363 . S
C442 C447 1.379 . S
C442 N449 1.356 . S
C443 C442 1.363 . S
C443 C446 1.363 . S
N444 C446 1.356 . S
N444 H456 0.984 . S
N444 H457 0.985 . S
N445 C447 1.356 . S
N445 H450 0.984 . S
N445 H451 0.985 . S
C446 C440 1.379 . S
C446 C443 1.363 . S
C446 N444 1.356 . S
C447 C441 1.363 . S
C447 C442 1.379 . S
C447 N445 1.356 . S
N448 C440 1.356 . S
N448 H454 0.984 . S
N448 H455 0.984 . S
N449 C442 1.356 . S
N449 H452 0.984 . S
N449 H453 0.985 . S
H450 N445 0.984 . S
H451 N445 0.985 . S
H452 N449 0.984 . S
H453 N449 0.985 . S
H454 N448 0.984 . S
H455 N448 0.984 . S
H456 N444 0.984 . S
H457 N444 0.985 . S
C458 C459 1.363 . S
C458 C464 1.379 . S
C458 N466 1.356 . S
C459 C458 1.363 . S
C459 C465 1.363 . S
C460 C461 1.363 . S
C460 C465 1.379 . S
C460 N467 1.356 . S
C461 C460 1.363 . S
C461 C464 1.363 . S
N462 C464 1.356 . S
N462 H474 0.984 . S
N462 H475 0.985 . S
N463 C465 1.356 . S
N463 H468 0.984 . S
N463 H469 0.985 . S
C464 C458 1.379 . S
C464 C461 1.363 . S
C464 N462 1.356 . S
C465 C459 1.363 . S
C465 C460 1.379 . S
C465 N463 1.356 . S
N466 C458 1.356 . S
N466 H472 0.984 . S
N466 H473 0.984 . S
N467 C460 1.356 . S
N467 H470 0.984 . S
N467 H471 0.985 . S
H468 N463 0.984 . S
H469 N463 0.985 . S
H470 N467 0.984 . S
H471 N467 0.985 . S
H472 N466 0.984 . S
H473 N466 0.984 . S
H474 N462 0.984 . S
H475 N462 0.985 . S
C476 C477 1.363 . S
C476 C482 1.379 . S
C476 N484 1.356 . S
C477 C476 1.363 . S
C477 C483 1.363 . S
C478 C479 1.363 . S
C478 C483 1.379 . S
C478 N485 1.356 . S
C479 C478 1.363 . S
C479 C482 1.363 . S
N480 C482 1.356 . S
N480 H492 0.984 . S
N480 H493 0.985 . S
N481 C483 1.356 . S
N481 H486 0.984 . S
N481 H487 0.985 . S
C482 C476 1.379 . S
C482 C479 1.363 . S
C482 N480 1.356 . S
C483 C477 1.363 . S
C483 C478 1.379 . S
C483 N481 1.356 . S
N484 C476 1.356 . S
N484 H490 0.984 . S
N484 H491 0.984 . S
N485 C478 1.356 . S
N485 H488 0.984 . S
N485 H489 0.985 . S
H486 N481 0.984 . S
H487 N481 0.985 . S
H488 N485 0.984 . S
H489 N485 0.985 . S
H490 N484 0.984 . S
H491 N484 0.984 . S
H492 N480 0.984 . S
H493 N480 0.985 . S
C494 C495 1.363 . S
C494 C500 1.379 . S
C494 N502 1.356 . S
C495 C494 1.363 . S
C495 C501 1.363 . S
C496 C497 1.363 . S
C496 C501 1.379 . S
C496 N503 1.356 . S
C497 C496 1.363 . S
C497 C500 1.363 . S
N498 C500 1.356 . S
N498 H510 0.984 . S
N498 H511 0.985 . S
N499 C501 1.356 . S
N499 H504 0.984 . S
N499 H505 0.985 . S
C500 C494 1.379 . S
C500 C497 1.363 . S
C500 N498 1.356 . S
C501 C495 1.363 . S
C501 C496 1.379 . S
C501 N499 1.356 . S
N502 C494 1.356 . S
N502 H508 0.984 . S
N502 H509 0.984 . S
N503 C496 1.356 . S
N503 H506 0.984 . S
N503 H507 0.985 . S
H504 N499 0.984 . S
H505 N499 0.985 . S
H506 N503 0.984 . S
H507 N503 0.985 . S
H508 N502 0.984 . S
H509 N502 0.984 . S
H510 N498 0.984 . S
H511 N498 0.985 . S
C512 C513 1.363 1_554 S
C512 C518 1.379 . S
C512 N520 1.356 . S
C513 C512 1.363 1_556 S
C513 C519 1.363 . S
C514 C515 1.363 1_556 S
C514 C519 1.379 . S
C514 N521 1.356 . S
C515 C514 1.363 1_554 S
C515 C518 1.363 . S
N516 C518 1.356 . S
N516 H528 0.984 . S
N516 H529 0.985 . S
N517 C519 1.356 . S
N517 H522 0.984 . S
N517 H523 0.985 . S
C518 C512 1.379 . S
C518 C515 1.363 . S
C518 N516 1.356 . S
C519 C513 1.363 . S
C519 C514 1.379 . S
C519 N517 1.356 . S
N520 C512 1.356 . S
N520 H526 0.984 . S
N520 H527 0.984 . S
N521 C514 1.356 . S
N521 H524 0.984 . S
N521 H525 0.985 . S
H522 N517 0.984 . S
H523 N517 0.985 . S
H524 N521 0.984 . S
H525 N521 0.985 . S
H526 N520 0.984 . S
H527 N520 0.984 . S
H528 N516 0.984 . S
H529 N516 0.985 . S
C530 C531 1.363 . S
C530 C536 1.379 . S
C530 N538 1.356 . S
C531 C530 1.363 . S
C531 C537 1.363 . S
C532 C533 1.363 . S
C532 C537 1.379 . S
C532 N539 1.356 . S
C533 C532 1.363 . S
C533 C536 1.363 . S
N534 C536 1.356 . S
N534 H546 0.984 . S
N534 H547 0.985 . S
N535 C537 1.356 . S
N535 H540 0.984 . S
N535 H541 0.985 . S
C536 C530 1.379 . S
C536 C533 1.363 . S
C536 N534 1.356 . S
C537 C531 1.363 . S
C537 C532 1.379 . S
C537 N535 1.356 . S
N538 C530 1.356 . S
N538 H544 0.984 . S
N538 H545 0.984 . S
N539 C532 1.356 . S
N539 H542 0.984 . S
N539 H543 0.985 . S
H540 N535 0.984 . S
H541 N535 0.985 . S
H542 N539 0.984 . S
H543 N539 0.985 . S
H544 N538 0.984 . S
H545 N538 0.984 . S
H546 N534 0.984 . S
H547 N534 0.985 . S
C548 C549 1.363 . S
C548 C554 1.379 . S
C548 N556 1.356 . S
C549 C548 1.363 . S
C549 C555 1.363 1_554 S
C550 C551 1.363 . S
C550 C555 1.379 . S
C550 N557 1.356 . S
C551 C550 1.363 . S
C551 C554 1.363 1_556 S
N552 C554 1.356 . S
N552 H564 0.984 . S
N552 H565 0.985 . S
N553 C555 1.356 . S
N553 H558 0.984 . S
N553 H559 0.985 . S
C554 C548 1.379 . S
C554 C551 1.363 1_554 S
C554 N552 1.356 . S
C555 C549 1.363 1_556 S
C555 C550 1.379 . S
C555 N553 1.356 . S
N556 C548 1.356 . S
N556 H562 0.984 . S
N556 H563 0.984 . S
N557 C550 1.356 . S
N557 H560 0.984 . S
N557 H561 0.985 . S
H558 N553 0.984 . S
H559 N553 0.985 . S
H560 N557 0.984 . S
H561 N557 0.985 . S
H562 N556 0.984 . S
H563 N556 0.984 . S
H564 N552 0.984 . S
H565 N552 0.985 . S
C566 C567 1.363 . S
C566 C572 1.379 . S
C566 N574 1.356 . S
C567 C566 1.363 . S
C567 C573 1.363 . S
C568 C569 1.363 . S
C568 C573 1.379 . S
C568 N575 1.356 . S
C569 C568 1.363 . S
C569 C572 1.363 . S
N570 C572 1.356 . S
N570 H582 0.984 . S
N570 H583 0.985 . S
N571 C573 1.356 . S
N571 H576 0.984 . S
N571 H577 0.985 . S
C572 C566 1.379 . S
C572 C569 1.363 . S
C572 N570 1.356 . S
C573 C567 1.363 . S
C573 C568 1.379 . S
C573 N571 1.356 . S
N574 C566 1.356 . S
N574 H580 0.984 . S
N574 H581 0.984 . S
N575 C568 1.356 . S
N575 H578 0.984 . S
N575 H579 0.985 . S
H576 N571 0.984 . S
H577 N571 0.985 . S
H578 N575 0.984 . S
H579 N575 0.985 . S
H580 N574 0.984 . S
H581 N574 0.984 . S
H582 N570 0.984 . S
H583 N570 0.985 . S
C584 C585 1.363 1_556 S
C584 C590 1.379 . S
C584 N592 1.356 . S
C585 C584 1.363 1_554 S
C585 C591 1.363 . S
C586 C587 1.363 1_554 S
C586 C591 1.379 . S
C586 N593 1.356 . S
C587 C586 1.363 1_556 S
C587 C590 1.363 . S
N588 C590 1.356 . S
N588 H600 0.984 . S
N588 H601 0.985 . S
N589 C591 1.356 . S
N589 H594 0.984 . S
N589 H595 0.985 . S
C590 C584 1.379 . S
C590 C587 1.363 . S
C590 N588 1.356 . S
C591 C585 1.363 . S
C591 C586 1.379 . S
C591 N589 1.356 . S
N592 C584 1.356 . S
N592 H598 0.984 . S
N592 H599 0.984 1_556 S
N593 C586 1.356 . S
N593 H596 0.984 1_554 S
N593 H597 0.985 . S
H594 N589 0.984 . S
H595 N589 0.985 . S
H596 N593 0.984 1_556 S
H597 N593 0.985 . S
H598 N592 0.984 . S
H599 N592 0.984 1_554 S
H600 N588 0.984 . S
H601 N588 0.985 . S
C602 C603 1.363 . S
C602 C608 1.379 . S
C602 N610 1.356 . S
C603 C602 1.363 . S
C603 C609 1.363 . S
C604 C605 1.363 . S
C604 C609 1.379 . S
C604 N611 1.356 . S
C605 C604 1.363 . S
C605 C608 1.363 . S
N606 C608 1.356 . S
N606 H618 0.984 . S
N606 H619 0.985 . S
N607 C609 1.356 . S
N607 H612 0.984 . S
N607 H613 0.985 . S
C608 C602 1.379 . S
C608 C605 1.363 . S
C608 N606 1.356 . S
C609 C603 1.363 . S
C609 C604 1.379 . S
C609 N607 1.356 . S
N610 C602 1.356 . S
N610 H616 0.984 . S
N610 H617 0.984 . S
N611 C604 1.356 . S
N611 H614 0.984 . S
N611 H615 0.985 . S
H612 N607 0.984 . S
H613 N607 0.985 . S
H614 N611 0.984 . S
H615 N611 0.985 . S
H616 N610 0.984 . S
H617 N610 0.984 . S
H618 N606 0.984 . S
H619 N606 0.985 . S
C620 C621 1.363 . S
C620 C626 1.379 1_554 S
C620 N628 1.356 . S
C621 C620 1.363 . S
C621 C627 1.363 . S
C622 C623 1.363 . S
C622 C627 1.379 1_556 S
C622 N629 1.356 . S
C623 C622 1.363 . S
C623 C626 1.363 . S
N624 C626 1.356 . S
N624 H636 0.984 . S
N624 H637 0.985 . S
N625 C627 1.356 . S
N625 H630 0.984 . S
N625 H631 0.985 . S
C626 C620 1.379 1_556 S
C626 C623 1.363 . S
C626 N624 1.356 . S
C627 C621 1.363 . S
C627 C622 1.379 1_554 S
C627 N625 1.356 . S
N628 C620 1.356 . S
N628 H634 0.984 . S
N628 H635 0.984 . S
N629 C622 1.356 . S
N629 H632 0.984 . S
N629 H633 0.985 . S
H630 N625 0.984 . S
H631 N625 0.985 . S
H632 N629 0.984 . S
H633 N629 0.985 . S
H634 N628 0.984 . S
H635 N628 0.984 . S
H636 N624 0.984 . S
H637 N624 0.985 . S
C638 C639 1.363 . S
C638 C644 1.379 . S
C638 N646 1.356 . S
C639 C638 1.363 . S
C639 C645 1.363 . S
C640 C641 1.363 . S
C640 C645 1.379 . S
C640 N647 1.356 . S
C641 C640 1.363 . S
C641 C644 1.363 . S
N642 C644 1.356 . S
N642 H654 0.984 . S
N642 H655 0.985 . S
N643 C645 1.356 . S
N643 H648 0.984 . S
N643 H649 0.985 . S
C644 C638 1.379 . S
C644 C641 1.363 . S
C644 N642 1.356 . S
C645 C639 1.363 . S
C645 C640 1.379 . S
C645 N643 1.356 . S
N646 C638 1.356 . S
N646 H652 0.984 . S
N646 H653 0.984 . S
N647 C640 1.356 . S
N647 H650 0.984 . S
N647 H651 0.985 . S
H648 N643 0.984 . S
H649 N643 0.985 . S
H650 N647 0.984 . S
H651 N647 0.985 . S
H652 N646 0.984 . S
H653 N646 0.984 . S
H654 N642 0.984 . S
H655 N642 0.985 . S
C656 C657 1.363 . S
C656 C662 1.379 . S
C656 N664 1.356 . S
C657 C656 1.363 . S
C657 C663 1.363 1_556 S
C658 C659 1.363 . S
C658 C663 1.379 . S
C658 N665 1.356 . S
C659 C658 1.363 . S
C659 C662 1.363 1_554 S
N660 C662 1.356 . S
N660 H672 0.984 . S
N660 H673 0.985 1_556 S
N661 C663 1.356 . S
N661 H666 0.984 1_554 S
N661 H667 0.985 . S
C662 C656 1.379 . S
C662 C659 1.363 1_556 S
C662 N660 1.356 . S
C663 C657 1.363 1_554 S
C663 C658 1.379 . S
C663 N661 1.356 . S
N664 C656 1.356 . S
N664 H670 0.984 . S
N664 H671 0.984 . S
N665 C658 1.356 . S
N665 H668 0.984 . S
N665 H669 0.985 . S
H666 N661 0.984 1_556 S
H667 N661 0.985 . S
H668 N665 0.984 . S
H669 N665 0.985 . S
H670 N664 0.984 . S
H671 N664 0.984 . S
H672 N660 0.984 . S
H673 N660 0.985 1_554 S
C674 C675 1.363 . S
C674 C680 1.379 . S
C674 N682 1.356 . S
C675 C674 1.363 . S
C675 C681 1.363 . S
C676 C677 1.363 . S
C676 C681 1.379 . S
C676 N683 1.356 . S
C677 C676 1.363 . S
C677 C680 1.363 . S
N678 C680 1.356 . S
N678 H690 0.984 . S
N678 H691 0.985 . S
N679 C681 1.356 . S
N679 H684 0.984 . S
N679 H685 0.985 . S
C680 C674 1.379 . S
C680 C677 1.363 . S
C680 N678 1.356 . S
C681 C675 1.363 . S
C681 C676 1.379 . S
C681 N679 1.356 . S
N682 C674 1.356 . S
N682 H688 0.984 . S
N682 H689 0.984 . S
N683 C676 1.356 . S
N683 H686 0.984 . S
N683 H687 0.985 . S
H684 N679 0.984 . S
H685 N679 0.985 . S
H686 N683 0.984 . S
H687 N683 0.985 . S
H688 N682 0.984 . S
H689 N682 0.984 . S
H690 N678 0.984 . S
H691 N678 0.985 . S
C692 C693 1.363 . S
C692 C698 1.379 1_554 S
C692 N700 1.356 . S
C693 C692 1.363 . S
C693 C699 1.363 . S
C694 C695 1.363 . S
C694 C699 1.379 1_556 S
C694 N701 1.356 . S
C695 C694 1.363 . S
C695 C698 1.363 . S
N696 C698 1.356 . S
N696 H708 0.984 . S
N696 H709 0.985 . S
N697 C699 1.356 . S
N697 H702 0.984 . S
N697 H703 0.985 . S
C698 C692 1.379 1_556 S
C698 C695 1.363 . S
C698 N696 1.356 . S
C699 C693 1.363 . S
C699 C694 1.379 1_554 S
C699 N697 1.356 . S
N700 C692 1.356 . S
N700 H706 0.984 . S
N700 H707 0.984 . S
N701 C694 1.356 . S
N701 H704 0.984 . S
N701 H705 0.985 . S
H702 N697 0.984 . S
H703 N697 0.985 . S
H704 N701 0.984 . S
H705 N701 0.985 . S
H706 N700 0.984 . S
H707 N700 0.984 . S
H708 N696 0.984 . S
H709 N696 0.985 . S
C710 C711 1.363 . S
C710 C716 1.379 . S
C710 N718 1.356 . S
C711 C710 1.363 . S
C711 C717 1.363 . S
C712 C713 1.363 . S
C712 C717 1.379 . S
C712 N719 1.356 . S
C713 C712 1.363 . S
C713 C716 1.363 . S
N714 C716 1.356 . S
N714 H726 0.984 . S
N714 H727 0.985 . S
N715 C717 1.356 . S
N715 H720 0.984 . S
N715 H721 0.985 . S
C716 C710 1.379 . S
C716 C713 1.363 . S
C716 N714 1.356 . S
C717 C711 1.363 . S
C717 C712 1.379 . S
C717 N715 1.356 . S
N718 C710 1.356 . S
N718 H724 0.984 . S
N718 H725 0.984 . S
N719 C712 1.356 . S
N719 H722 0.984 . S
N719 H723 0.985 . S
H720 N715 0.984 . S
H721 N715 0.985 . S
H722 N719 0.984 . S
H723 N719 0.985 . S
H724 N718 0.984 . S
H725 N718 0.984 . S
H726 N714 0.984 . S
H727 N714 0.985 . S
C728 C729 1.363 1_554 S
C728 C734 1.379 1_545 S
C728 N736 1.356 . S
C729 C728 1.363 1_556 S
C729 C735 1.363 . S
C730 C731 1.363 1_556 S
C730 C735 1.379 1_565 S
C730 N737 1.356 . S
C731 C730 1.363 1_554 S
C731 C734 1.363 . S
N732 C734 1.356 . S
N732 H744 0.984 1_565 S
N732 H745 0.985 . S
N733 C735 1.356 . S
N733 H738 0.984 . S
N733 H739 0.985 1_545 S
C734 C728 1.379 1_565 S
C734 C731 1.363 . S
C734 N732 1.356 . S
C735 C729 1.363 . S
C735 C730 1.379 1_545 S
C735 N733 1.356 . S
N736 C728 1.356 . S
N736 H742 0.984 . S
N736 H743 0.984 . S
N737 C730 1.356 . S
N737 H740 0.984 . S
N737 H741 0.985 . S
H738 N733 0.984 . S
H739 N733 0.985 1_565 S
H740 N737 0.984 . S
H741 N737 0.985 . S
H742 N736 0.984 . S
H743 N736 0.984 . S
H744 N732 0.984 1_545 S
H745 N732 0.985 . S
C746 C747 1.363 . S
C746 C752 1.379 1_565 S
C746 N754 1.356 . S
C747 C746 1.363 . S
C747 C753 1.363 . S
C748 C749 1.363 . S
C748 C753 1.379 1_545 S
C748 N755 1.356 . S
C749 C748 1.363 . S
C749 C752 1.363 . S
N750 C752 1.356 . S
N750 H762 0.984 . S
N750 H763 0.985 . S
N751 C753 1.356 . S
N751 H756 0.984 . S
N751 H757 0.985 . S
C752 C746 1.379 1_545 S
C752 C749 1.363 . S
C752 N750 1.356 . S
C753 C747 1.363 . S
C753 C748 1.379 1_565 S
C753 N751 1.356 . S
N754 C746 1.356 . S
N754 H760 0.984 . S
N754 H761 0.984 . S
N755 C748 1.356 . S
N755 H758 0.984 . S
N755 H759 0.985 . S
H756 N751 0.984 . S
H757 N751 0.985 . S
H758 N755 0.984 . S
H759 N755 0.985 . S
H760 N754 0.984 . S
H761 N754 0.984 . S
H762 N750 0.984 . S
H763 N750 0.985 . S
C764 C765 1.363 1_556 S
C764 C770 1.393 . S
C764 N772 1.356 . S
C765 C764 1.363 1_554 S
C765 C771 1.348 1_565 S
C766 C767 1.363 1_554 S
C766 C771 1.393 . S
C766 N773 1.356 . S
C767 C766 1.363 1_556 S
C767 C770 1.348 1_545 S
N768 C770 1.352 1_545 S
N768 H780 0.984 1_545 S
N768 H781 0.985 . S
N769 C771 1.352 1_565 S
N769 H774 0.984 . S
N769 H775 0.985 1_565 S
C770 C764 1.393 . S
C770 C767 1.348 1_565 S
C770 N768 1.352 1_565 S
C771 C765 1.348 1_545 S
C771 C766 1.393 . S
C771 N769 1.352 1_545 S
N772 C764 1.356 . S
N772 H778 0.984 . S
N772 H779 0.984 . S
N773 C766 1.356 . S
N773 H776 0.984 . S
N773 H777 0.985 . S
H774 N769 0.984 . S
H775 N769 0.985 1_545 S
H776 N773 0.984 . S
H777 N773 0.985 . S
H778 N772 0.984 . S
H779 N772 0.984 . S
H780 N768 0.984 1_565 S
H781 N768 0.985 . S
C782 C783 1.363 . S
C782 C788 1.392 . S
C782 N790 1.356 . S
C783 C782 1.363 . S
C783 C789 1.349 1_545 S
C784 C785 1.363 . S
C784 C789 1.392 . S
C784 N791 1.356 . S
C785 C784 1.363 . S
C785 C788 1.349 1_565 S
N786 C788 1.352 1_565 S
N786 H798 0.984 1_565 S
N786 H799 0.985 . S
N787 C789 1.352 1_545 S
N787 H792 0.984 . S
N787 H793 0.985 1_545 S
C788 C782 1.392 . S
C788 C785 1.349 1_545 S
C788 N786 1.352 1_545 S
C789 C783 1.349 1_565 S
C789 C784 1.392 . S
C789 N787 1.352 1_565 S
N790 C782 1.356 . S
N790 H796 0.984 . S
N790 H797 0.984 . S
N791 C784 1.356 . S
N791 H794 0.984 . S
N791 H795 0.985 . S
H792 N787 0.984 . S
H793 N787 0.985 1_565 S
H794 N791 0.984 . S
H795 N791 0.985 . S
H796 N790 0.984 . S
H797 N790 0.984 . S
H798 N786 0.984 1_545 S
H799 N786 0.985 . S
C225 C8 1.430 . S
C227 C92 1.424 . S
C243 C22 1.430 . S
C245 C106 1.424 . S
C261 C64 1.424 . S
C263 C36 1.430 . S
C279 C78 1.424 . S
C281 C50 1.430 . S
C297 C204 1.424 . S
C299 C120 1.430 . S
C315 C218 1.424 . S
C317 C134 1.430 . S
C333 C148 1.430 . S
C335 C176 1.424 . S
C351 C162 1.430 . S
C353 C190 1.424 . S
C369 C13 1.340 . S
C371 C77 1.438 . S
C387 C27 1.340 . S
C389 C63 1.438 . S
C405 C41 1.340 . S
C407 C105 1.438 . S
C423 C91 1.438 . S
C425 C55 1.340 . S
C441 C189 1.438 . S
C443 C125 1.340 . S
C459 C175 1.438 . S
C461 C139 1.340 . S
C477 C153 1.340 . S
C479 C217 1.438 . S
C495 C203 1.438 . S
C497 C167 1.340 . S
C513 C179 1.406 . S
C515 C11 1.402 . S
C531 C25 1.402 . S
C533 C193 1.406 . S
C549 C207 1.406 . S
C551 C39 1.402 . S
C567 C221 1.406 . S
C569 C53 1.402 . S
C585 C123 1.402 . S
C587 C67 1.406 . S
C603 C137 1.402 . S
C605 C81 1.406 . S
C621 C95 1.406 . S
C623 C151 1.402 . S
C639 C109 1.406 . S
C641 C165 1.402 . S
C657 C35 1.503 . S
C659 C7 1.503 . S
C675 C21 1.503 . S
C677 C49 1.503 . S
C693 C97 1.300 . S
C695 C69 1.300 . S
C711 C83 1.300 . S
C713 C111 1.300 . S
C729 C147 1.503 . S
C731 C119 1.503 . S
C747 C161 1.503 . S
C749 C133 1.503 . S
C765 C209 1.300 . S
C767 C181 1.300 . S
C783 C223 1.300 . S
C785 C195 1.300 . S
