# Generated by pormake.
# Topology cag, (4)-cn, num edge types: 1
# Building blocks:
#     Node 0, Type 0, BuildingBlock: ICAMEG_clean_sbu_1, # of connection points: 4
#     Node 1, Type 0, BuildingBlock: ICAMEG_clean_sbu_1, # of connection points: 4
#     Node 2, Type 0, BuildingBlock: ICAMEG_clean_sbu_1, # of connection points: 4
#     Node 3, Type 0, BuildingBlock: ICAMEG_clean_sbu_1, # of connection points: 4
#     Node 4, Type 0, BuildingBlock: ICAMEG_clean_sbu_1, # of connection points: 4
#     Node 5, Type 0, BuildingBlock: ICAMEG_clean_sbu_1, # of connection points: 4
#     Node 6, Type 0, BuildingBlock: ICAMEG_clean_sbu_1, # of connection points: 4
#     Node 7, Type 0, BuildingBlock: ICAMEG_clean_sbu_1, # of connection points: 4
#     Node 8, Type 0, BuildingBlock: ICAMEG_clean_sbu_1, # of connection points: 4
#     Node 9, Type 0, BuildingBlock: ICAMEG_clean_sbu_1, # of connection points: 4
#     Node 10, Type 0, BuildingBlock: ICAMEG_clean_sbu_1, # of connection points: 4
#     Node 11, Type 0, BuildingBlock: ICAMEG_clean_sbu_1, # of connection points: 4
#     Node 12, Type 0, BuildingBlock: ICAMEG_clean_sbu_1, # of connection points: 4
#     Node 13, Type 0, BuildingBlock: ICAMEG_clean_sbu_1, # of connection points: 4
#     Node 14, Type 0, BuildingBlock: ICAMEG_clean_sbu_1, # of connection points: 4
#     Node 15, Type 0, BuildingBlock: ICAMEG_clean_sbu_1, # of connection points: 4
#     Edge 16, Type (0, 0), BuildingBlock: XIVTED_clean_linker_0, # of connection points: 2
#     Edge 17, Type (0, 0), BuildingBlock: XIVTED_clean_linker_0, # of connection points: 2
#     Edge 18, Type (0, 0), BuildingBlock: XIVTED_clean_linker_0, # of connection points: 2
#     Edge 19, Type (0, 0), BuildingBlock: XIVTED_clean_linker_0, # of connection points: 2
#     Edge 20, Type (0, 0), BuildingBlock: XIVTED_clean_linker_0, # of connection points: 2
#     Edge 21, Type (0, 0), BuildingBlock: XIVTED_clean_linker_0, # of connection points: 2
#     Edge 22, Type (0, 0), BuildingBlock: XIVTED_clean_linker_0, # of connection points: 2
#     Edge 23, Type (0, 0), BuildingBlock: XIVTED_clean_linker_0, # of connection points: 2
#     Edge 24, Type (0, 0), BuildingBlock: XIVTED_clean_linker_0, # of connection points: 2
#     Edge 25, Type (0, 0), BuildingBlock: XIVTED_clean_linker_0, # of connection points: 2
#     Edge 26, Type (0, 0), BuildingBlock: XIVTED_clean_linker_0, # of connection points: 2
#     Edge 27, Type (0, 0), BuildingBlock: XIVTED_clean_linker_0, # of connection points: 2
#     Edge 28, Type (0, 0), BuildingBlock: XIVTED_clean_linker_0, # of connection points: 2
#     Edge 29, Type (0, 0), BuildingBlock: XIVTED_clean_linker_0, # of connection points: 2
#     Edge 30, Type (0, 0), BuildingBlock: XIVTED_clean_linker_0, # of connection points: 2
#     Edge 31, Type (0, 0), BuildingBlock: XIVTED_clean_linker_0, # of connection points: 2
#     Edge 32, Type (0, 0), BuildingBlock: XIVTED_clean_linker_0, # of connection points: 2
#     Edge 33, Type (0, 0), BuildingBlock: XIVTED_clean_linker_0, # of connection points: 2
#     Edge 34, Type (0, 0), BuildingBlock: XIVTED_clean_linker_0, # of connection points: 2
#     Edge 35, Type (0, 0), BuildingBlock: XIVTED_clean_linker_0, # of connection points: 2
#     Edge 36, Type (0, 0), BuildingBlock: XIVTED_clean_linker_0, # of connection points: 2
#     Edge 37, Type (0, 0), BuildingBlock: XIVTED_clean_linker_0, # of connection points: 2
#     Edge 38, Type (0, 0), BuildingBlock: XIVTED_clean_linker_0, # of connection points: 2
#     Edge 39, Type (0, 0), BuildingBlock: XIVTED_clean_linker_0, # of connection points: 2
#     Edge 40, Type (0, 0), BuildingBlock: XIVTED_clean_linker_0, # of connection points: 2
#     Edge 41, Type (0, 0), BuildingBlock: XIVTED_clean_linker_0, # of connection points: 2
#     Edge 42, Type (0, 0), BuildingBlock: XIVTED_clean_linker_0, # of connection points: 2
#     Edge 43, Type (0, 0), BuildingBlock: XIVTED_clean_linker_0, # of connection points: 2
#     Edge 44, Type (0, 0), BuildingBlock: XIVTED_clean_linker_0, # of connection points: 2
#     Edge 45, Type (0, 0), BuildingBlock: XIVTED_clean_linker_0, # of connection points: 2
#     Edge 46, Type (0, 0), BuildingBlock: XIVTED_clean_linker_0, # of connection points: 2
#     Edge 47, Type (0, 0), BuildingBlock: XIVTED_clean_linker_0, # of connection points: 2
# Relax obj value: 0.157
# Max RMSD: 0.212
# Mean RMSD: 0.208
data_MOF--net-cag--node1-ICAMEG_clean_sbu_1--edge1-XIVTED_clean_linker_0
_symmetry_space_group_name_H-M    P1
_symmetry_Int_Tables_number       1
_symmetry_cell_setting            triclinic
loop_
_symmetry_equiv_pos_as_xyz
'x, y, z'
_cell_length_a     44.954767
_cell_length_b     52.359537
_cell_length_c     44.701039
_cell_angle_alpha  90.00883
_cell_angle_beta   89.962805
_cell_angle_gamma 90.015012
loop_
_atom_site_label
_atom_site_type_symbol
_atom_site_fract_x
_atom_site_fract_y
_atom_site_fract_z
_atom_type_partial_charge
Co0 Co 0.35649 0.14252 0.07111 0.0
Co1 Co 0.36742 0.10599 0.13305 0.0
O2 O 0.34813 0.13508 0.11325 0.0
C3 C 0.36432 0.19912 0.07123 0.0
O4 O 0.39155 0.19579 0.06132 0.0
C5 C 0.30698 0.1121 0.16281 0.0
O6 O 0.29897 0.12902 0.14276 0.0
O7 O 0.35007 0.08273 0.10225 0.0
O8 O 0.36305 0.10524 0.06167 0.0
H9 H 0.42625 0.02439 0.13433 0.0
H10 H 0.30039 0.16219 0.09731 0.0
O11 O 0.34877 0.17983 0.07909 0.0
H12 H 0.26926 0.10792 0.01282 0.0
H13 H 0.34029 0.18561 0.97146 0.0
H14 H 0.40337 0.12614 0.02876 0.0
H15 H 0.32238 0.11392 0.02427 0.0
H16 H 0.32867 0.17562 0.02406 0.0
O17 O 0.3319 0.10056 0.16044 0.0
H18 H 0.40278 0.06199 0.11107 0.0
H19 H 0.3718 0.08696 0.196 0.0
H20 H 0.41573 0.13551 0.97613 0.0
H21 H 0.24699 0.15701 0.08641 0.0
H22 H 0.38409 0.16547 0.94712 0.0
H23 H 0.23109 0.12963 0.04395 0.0
O24 O 0.39943 0.14657 0.08171 0.0
H25 H 0.36757 0.1806 0.20437 0.0
H26 H 0.42772 0.11161 0.15999 0.0
H27 H 0.45077 0.14104 0.19615 0.0
H28 H 0.4206 0.17576 0.2188 0.0
H29 H 0.34554 0.15107 0.16784 0.0
H30 H 0.39475 0.0495 0.22011 0.0
H31 H 0.42232 0.01794 0.18924 0.0
O32 O 0.40416 0.11027 0.10778 0.0
C33 C 0.35481 0.08438 0.07409 0.0
C34 C 0.41435 0.03803 0.14803 0.0
C35 C 0.39663 0.0521 0.19616 0.0
N36 N 0.38601 0.07674 0.15213 0.0
C37 C 0.40105 0.0594 0.13499 0.0
C38 C 0.38358 0.07324 0.18235 0.0
C39 C 0.41211 0.03441 0.17883 0.0
C40 C 0.29369 0.15027 0.07878 0.0
N41 N 0.31456 0.13818 0.06167 0.0
C42 C 0.26339 0.1474 0.07272 0.0
C43 C 0.25449 0.13202 0.04891 0.0
C44 C 0.27589 0.11981 0.03147 0.0
C45 C 0.30597 0.12313 0.0382 0.0
C46 C 0.35427 0.17255 0.98386 0.0
C47 C 0.3895 0.1392 0.01629 0.0
C48 C 0.34783 0.16684 0.01369 0.0
N49 N 0.36538 0.15035 0.02953 0.0
C50 C 0.3966 0.14443 0.98649 0.0
C51 C 0.37884 0.16124 0.97023 0.0
C52 C 0.41536 0.12939 0.0941 0.0
C53 C 0.38086 0.16538 0.1949 0.0
C54 C 0.41432 0.12656 0.16982 0.0
C55 C 0.42756 0.14321 0.19026 0.0
C56 C 0.41063 0.16269 0.20294 0.0
N57 N 0.38496 0.12906 0.16231 0.0
C58 C 0.36839 0.14839 0.17433 0.0
Co59 Co 0.14774 0.86611 0.56794 0.0
Co60 Co 0.14027 0.89883 0.63411 0.0
O61 O 0.15832 0.87089 0.61044 0.0
C62 C 0.15936 0.8117 0.59029 0.0
O63 O 0.16417 0.81896 0.61796 0.0
C64 C 0.20219 0.89142 0.66077 0.0
O65 O 0.20887 0.8737 0.64112 0.0
O66 O 0.155 0.92443 0.60418 0.0
O67 O 0.14266 0.90376 0.56224 0.0
H68 H 0.08067 0.97936 0.64628 0.0
H69 H 0.20498 0.84524 0.59135 0.0
O70 O 0.15234 0.82792 0.57028 0.0
H71 H 0.23305 0.90053 0.50682 0.0
H72 H 0.15555 0.82745 0.4649 0.0
H73 H 0.10071 0.88789 0.52909 0.0
H74 H 0.18046 0.8951 0.52073 0.0
H75 H 0.1703 0.83389 0.51746 0.0
O76 O 0.17763 0.90355 0.65893 0.0
H77 H 0.10273 0.94339 0.61845 0.0
H78 H 0.14066 0.91441 0.69859 0.0
H79 H 0.08539 0.88217 0.47657 0.0
H80 H 0.25775 0.8498 0.57799 0.0
H81 H 0.11289 0.85178 0.44408 0.0
H82 H 0.27219 0.87768 0.53544 0.0
O83 O 0.10523 0.86268 0.57958 0.0
H84 H 0.14619 0.82033 0.69953 0.0
H85 H 0.08276 0.8915 0.66621 0.0
H86 H 0.06279 0.8601 0.70185 0.0
H87 H 0.09464 0.82423 0.71898 0.0
H88 H 0.165 0.85181 0.66361 0.0
H89 H 0.11925 0.95021 0.7272 0.0
H90 H 0.08889 0.98295 0.70107 0.0
O91 O 0.10157 0.89534 0.61177 0.0
C92 C 0.15017 0.92405 0.57601 0.0
C93 C 0.09379 0.96518 0.65794 0.0
C94 C 0.11549 0.94885 0.70334 0.0
N95 N 0.12285 0.92671 0.65685 0.0
C96 C 0.10629 0.94472 0.6423 0.0
C97 C 0.12766 0.92866 0.68698 0.0
C98 C 0.09844 0.9672 0.68867 0.0
C99 C 0.21087 0.85718 0.57267 0.0
N100 N 0.18942 0.86971 0.5568 0.0
C101 C 0.24091 0.85979 0.56526 0.0
C102 C 0.249 0.87547 0.54143 0.0
C103 C 0.22707 0.8883 0.52539 0.0
C104 C 0.19727 0.88522 0.53347 0.0
C105 C 0.14342 0.84079 0.47882 0.0
C106 C 0.11289 0.87471 0.51508 0.0
C107 C 0.15161 0.84447 0.50864 0.0
N108 N 0.1365 0.86139 0.52634 0.0
C109 C 0.10407 0.87152 0.48536 0.0
C110 C 0.11949 0.85444 0.46715 0.0
C111 C 0.08981 0.87829 0.59508 0.0
C112 C 0.13214 0.83598 0.69242 0.0
C113 C 0.0968 0.87596 0.67336 0.0
C114 C 0.08535 0.85823 0.69367 0.0
C115 C 0.10322 0.83813 0.70327 0.0
N116 N 0.12534 0.87393 0.66295 0.0
C117 C 0.14282 0.85408 0.67212 0.0
Co118 Co 0.35977 0.86858 0.95395 0.0
Co119 Co 0.36559 0.90036 0.88699 0.0
O120 O 0.34846 0.8725 0.91152 0.0
C121 C 0.34911 0.81346 0.93316 0.0
O122 O 0.34363 0.82002 0.90538 0.0
C123 C 0.30346 0.89165 0.86134 0.0
O124 O 0.2973 0.87425 0.88153 0.0
O125 O 0.35069 0.92626 0.91651 0.0
O126 O 0.36401 0.90643 0.95871 0.0
H127 H 0.42329 0.98161 0.87216 0.0
H128 H 0.30275 0.84634 0.93175 0.0
O129 O 0.35605 0.83025 0.95257 0.0
H130 H 0.27444 0.90245 0.01547 0.0
H131 H 0.35426 0.83157 0.05794 0.0
H132 H 0.40679 0.89184 0.99162 0.0
H133 H 0.32697 0.89773 1.00098 0.0
H134 H 0.33865 0.83685 1.00547 0.0
O135 O 0.32786 0.90408 0.86253 0.0
H136 H 0.4023 0.94583 0.90114 0.0
H137 H 0.36416 0.91475 0.82216 0.0
H138 H 0.42295 0.88731 0.04404 0.0
H139 H 0.25005 0.85017 0.94572 0.0
H140 H 0.39661 0.85699 0.07761 0.0
H141 H 0.23549 0.87845 0.98786 0.0
O142 O 0.40223 0.8657 0.94179 0.0
H143 H 0.36044 0.82068 0.82351 0.0
H144 H 0.4229 0.8933 0.85445 0.0
H145 H 0.44306 0.86157 0.81931 0.0
H146 H 0.41169 0.82497 0.80338 0.0
H147 H 0.34143 0.85253 0.85891 0.0
H148 H 0.38449 0.95034 0.79243 0.0
H149 H 0.41442 0.98404 0.8174 0.0
O150 O 0.40458 0.89793 0.90893 0.0
C151 C 0.35595 0.92641 0.94461 0.0
C152 C 0.41035 0.96701 0.86101 0.0
C153 C 0.38853 0.94949 0.81628 0.0
N154 N 0.38213 0.92812 0.86339 0.0
C155 C 0.39846 0.94666 0.8773 0.0
C156 C 0.37697 0.92942 0.83328 0.0
C157 C 0.40533 0.96838 0.8303 0.0
C158 C 0.29681 0.85846 0.95026 0.0
N159 N 0.31816 0.87162 0.96558 0.0
C160 C 0.26682 0.86066 0.95801 0.0
C161 C 0.25865 0.87656 0.98161 0.0
C162 C 0.28048 0.89003 0.99709 0.0
C163 C 0.31024 0.88736 0.98868 0.0
C164 C 0.36589 0.84487 0.04355 0.0
C165 C 0.39511 0.8787 1.0061 0.0
C166 C 0.3572 0.8479 0.01377 0.0
N167 N 0.37168 0.86477 0.99549 0.0
C168 C 0.40441 0.87618 0.03576 0.0
C169 C 0.38964 0.85915 0.05457 0.0
C170 C 0.41703 0.88135 0.92573 0.0
C171 C 0.37427 0.83665 0.83009 0.0
C172 C 0.40907 0.87746 0.8478 0.0
C173 C 0.42063 0.85954 0.82779 0.0
C174 C 0.40303 0.83902 0.81886 0.0
N175 N 0.38069 0.87521 0.85856 0.0
C176 C 0.36348 0.85496 0.85007 0.0
Co177 Co 0.14896 0.14001 0.45296 0.0
Co178 Co 0.14208 0.10624 0.3873 0.0
O179 O 0.16004 0.13435 0.41074 0.0
C180 C 0.1602 0.19381 0.42868 0.0
O181 O 0.16465 0.18575 0.40125 0.0
C182 C 0.20507 0.11197 0.36286 0.0
O183 O 0.21161 0.12947 0.38279 0.0
O184 O 0.15561 0.08098 0.41809 0.0
O185 O 0.1438 0.10245 0.45968 0.0
H186 H 0.08128 0.02633 0.37547 0.0
H187 H 0.20634 0.16092 0.42992 0.0
O188 O 0.15361 0.17814 0.44946 0.0
H189 H 0.23368 0.10662 0.51554 0.0
H190 H 0.15576 0.18083 0.55489 0.0
H191 H 0.10154 0.11904 0.49198 0.0
H192 H 0.18122 0.11167 0.50097 0.0
H193 H 0.17102 0.1733 0.50266 0.0
O194 O 0.17998 0.10059 0.3636 0.0
H195 H 0.10338 0.06243 0.40305 0.0
H196 H 0.14374 0.08964 0.32321 0.0
H197 H 0.0857 0.12584 0.5442 0.0
H198 H 0.25898 0.15675 0.44395 0.0
H199 H 0.11289 0.15693 0.57604 0.0
H200 H 0.27304 0.12936 0.48703 0.0
O201 O 0.1066 0.14325 0.44086 0.0
H202 H 0.15189 0.18294 0.31957 0.0
H203 H 0.08542 0.11416 0.35397 0.0
H204 H 0.06718 0.14523 0.31702 0.0
H205 H 0.10057 0.17989 0.29936 0.0
H206 H 0.16896 0.15183 0.3568 0.0
H207 H 0.12231 0.0537 0.29486 0.0
H208 H 0.09071 0.02179 0.32097 0.0
O209 O 0.1029 0.11063 0.4086 0.0
C210 C 0.15084 0.08186 0.44625 0.0
C211 C 0.09495 0.04015 0.36382 0.0
C212 C 0.11802 0.05549 0.3186 0.0
N213 N 0.1247 0.07823 0.36478 0.0
C214 C 0.10747 0.06067 0.37931 0.0
C215 C 0.13018 0.07576 0.33481 0.0
C216 C 0.10027 0.0376 0.33325 0.0
C217 C 0.21208 0.14919 0.44882 0.0
N218 N 0.19051 0.13667 0.4646 0.0
C219 C 0.24203 0.14679 0.45661 0.0
C220 C 0.24992 0.1314 0.48075 0.0
C221 C 0.22785 0.11862 0.49672 0.0
C222 C 0.19814 0.12147 0.48826 0.0
C223 C 0.14376 0.1672 0.54126 0.0
C224 C 0.11359 0.1325 0.50573 0.0
C225 C 0.15225 0.16289 0.51162 0.0
N226 N 0.13731 0.1456 0.4943 0.0
C227 C 0.10447 0.13632 0.53527 0.0
C228 C 0.11972 0.15378 0.55311 0.0
C229 C 0.09119 0.12781 0.42514 0.0
C230 C 0.13716 0.16784 0.32694 0.0
C231 C 0.10008 0.12922 0.34664 0.0
C232 C 0.08963 0.14674 0.32557 0.0
C233 C 0.10836 0.16616 0.31566 0.0
N234 N 0.12846 0.13082 0.35752 0.0
C235 C 0.14683 0.14996 0.34799 0.0
Co236 Co 0.69828 0.89528 0.90159 0.0
Co237 Co 0.69239 0.86367 0.96867 0.0
O238 O 0.71096 0.86773 0.92889 0.0
C239 C 0.71516 0.85094 0.8605 0.0
O240 O 0.72157 0.83589 0.88305 0.0
C241 C 0.75722 0.8486 0.97786 0.0
O242 O 0.76511 0.85795 0.95183 0.0
O243 O 0.7038 0.89942 0.97901 0.0
O244 O 0.69122 0.91893 0.93624 0.0
H245 H 0.62848 0.8922 0.05468 0.0
H246 H 0.7583 0.87099 0.89394 0.0
O247 O 0.70505 0.87338 0.865 0.0
H248 H 0.77771 0.96313 0.90383 0.0
H249 H 0.70211 0.94926 0.80828 0.0
H250 H 0.6487 0.93261 0.90267 0.0
H251 H 0.7265 0.94664 0.90562 0.0
H252 H 0.71931 0.91557 0.84267 0.0
O253 O 0.73044 0.85056 0.98691 0.0
H254 H 0.65168 0.89576 1.00487 0.0
H255 H 0.69443 0.82416 0.017 0.0
H256 H 0.63093 0.96663 0.86902 0.0
H257 H 0.80969 0.88664 0.89143 0.0
H258 H 0.6577 0.97514 0.82143 0.0
H259 H 0.81982 0.93307 0.89649 0.0
O260 O 0.6564 0.88284 0.90387 0.0
H261 H 0.71006 0.7758 0.92654 0.0
H262 H 0.63679 0.83272 0.97425 0.0
H263 H 0.622 0.78904 0.96029 0.0
H264 H 0.65881 0.76016 0.93635 0.0
H265 H 0.72372 0.81973 0.94046 0.0
H266 H 0.67188 0.81994 0.06703 0.0
H267 H 0.63853 0.85407 0.08614 0.0
O268 O 0.65301 0.87581 0.9531 0.0
C269 C 0.69812 0.91956 0.96393 0.0
C270 C 0.64292 0.87717 0.04657 0.0
C271 C 0.66731 0.83664 0.05353 0.0
N272 N 0.67428 0.86015 0.00792 0.0
C273 C 0.65608 0.87906 0.01835 0.0
C274 C 0.68009 0.83918 0.0252 0.0
C275 C 0.64859 0.85579 0.06423 0.0
C276 C 0.76221 0.89118 0.89568 0.0
N277 N 0.73909 0.90779 0.89958 0.0
C278 C 0.79153 0.89997 0.89446 0.0
C279 C 0.79721 0.926 0.89737 0.0
C280 C 0.77361 0.94285 0.90151 0.0
C281 C 0.7446 0.93336 0.90262 0.0
C282 C 0.69028 0.94575 0.82897 0.0
C283 C 0.66058 0.93627 0.88208 0.0
C284 C 0.69985 0.92664 0.84851 0.0
N285 N 0.68512 0.92219 0.87478 0.0
C286 C 0.65036 0.95553 0.86308 0.0
C287 C 0.66537 0.96028 0.83637 0.0
C288 C 0.6411 0.87908 0.92751 0.0
C289 C 0.69382 0.78818 0.93701 0.0
C290 C 0.65287 0.82042 0.96359 0.0
C291 C 0.6444 0.79562 0.95587 0.0
C292 C 0.66506 0.77942 0.94247 0.0
N293 N 0.68114 0.8289 0.95822 0.0
C294 C 0.70148 0.8131 0.94506 0.0
Co295 Co 0.80781 0.12548 0.41047 0.0
Co296 Co 0.81995 0.15114 0.47989 0.0
O297 O 0.79911 0.1512 0.44127 0.0
C298 C 0.8138 0.15663 0.35506 0.0
O299 O 0.84098 0.14772 0.35225 0.0
C300 C 0.75624 0.16493 0.49521 0.0
O301 O 0.74623 0.15325 0.4713 0.0
O302 O 0.80699 0.11512 0.48691 0.0
O303 O 0.81588 0.09864 0.44145 0.0
H304 H 0.88666 0.11323 0.55833 0.0
H305 H 0.75094 0.15407 0.40675 0.0
O306 O 0.79882 0.15159 0.3786 0.0
H307 H 0.72205 0.06347 0.41452 0.0
H308 H 0.79026 0.07799 0.31381 0.0
H309 H 0.85528 0.08692 0.402 0.0
H310 H 0.77489 0.07587 0.41409 0.0
H311 H 0.77893 0.10977 0.35288 0.0
O312 O 0.78386 0.16456 0.50141 0.0
H313 H 0.86058 0.11466 0.50986 0.0
H314 H 0.82295 0.18658 0.53233 0.0
H315 H 0.8674 0.05487 0.36347 0.0
H316 H 0.6978 0.14246 0.40643 0.0
H317 H 0.83478 0.05025 0.31897 0.0
H318 H 0.68304 0.09688 0.41049 0.0
O319 O 0.85081 0.13547 0.4111 0.0
H320 H 0.80488 0.24209 0.44729 0.0
H321 H 0.87735 0.17966 0.48582 0.0
H322 H 0.89362 0.22369 0.47539 0.0
H323 H 0.85721 0.25533 0.45609 0.0
H324 H 0.78971 0.19773 0.45764 0.0
H325 H 0.84842 0.18579 0.58113 0.0
H326 H 0.88067 0.14897 0.59436 0.0
O327 O 0.85743 0.13872 0.4606 0.0
C328 C 0.81076 0.09608 0.4694 0.0
C329 C 0.87272 0.1294 0.5528 0.0
C330 C 0.85123 0.17011 0.56562 0.0
N331 N 0.84035 0.15072 0.51817 0.0
C332 C 0.85793 0.13034 0.52536 0.0
C333 C 0.83677 0.1704 0.53797 0.0
C334 C 0.86933 0.14945 0.57302 0.0
C335 C 0.74474 0.13417 0.40821 0.0
N336 N 0.76608 0.1157 0.4105 0.0
C337 C 0.71459 0.12772 0.40816 0.0
C338 C 0.70632 0.10215 0.4105 0.0
C339 C 0.72819 0.08341 0.41281 0.0
C340 C 0.75811 0.09057 0.41278 0.0
C341 C 0.80466 0.07983 0.33309 0.0
C342 C 0.84098 0.08505 0.3827 0.0
C343 C 0.79837 0.0978 0.35529 0.0
N344 N 0.81647 0.10027 0.37971 0.0
C345 C 0.84795 0.06685 0.36096 0.0
C346 C 0.82964 0.06427 0.336 0.0
C347 C 0.86764 0.13683 0.43407 0.0
C348 C 0.82095 0.2285 0.45575 0.0
C349 C 0.86145 0.19319 0.4772 0.0
C350 C 0.87076 0.21817 0.47145 0.0
C351 C 0.85032 0.23591 0.46066 0.0
N352 N 0.83258 0.18607 0.47244 0.0
C353 C 0.81246 0.20335 0.46175 0.0
Co354 Co 0.69676 0.12026 0.11947 0.0
Co355 Co 0.68651 0.14902 0.05205 0.0
O356 O 0.70674 0.14765 0.09111 0.0
C357 C 0.71388 0.16572 0.15863 0.0
O358 O 0.71935 0.18042 0.1355 0.0
C359 C 0.75 0.16317 0.03728 0.0
O360 O 0.76011 0.14604 0.05613 0.0
O361 O 0.70237 0.11448 0.04248 0.0
O362 O 0.68988 0.0955 0.0856 0.0
H363 H 0.6254 0.1129 0.96794 0.0
H364 H 0.75586 0.14698 0.12156 0.0
O365 O 0.70383 0.14313 0.15511 0.0
H366 H 0.77937 0.05525 0.11736 0.0
H367 H 0.70631 0.06858 0.21415 0.0
H368 H 0.6493 0.08099 0.12108 0.0
H369 H 0.72735 0.06979 0.11723 0.0
H370 H 0.7206 0.10217 0.17829 0.0
O371 O 0.72213 0.16585 0.03338 0.0
H372 H 0.64982 0.11242 0.01728 0.0
H373 H 0.68193 0.18779 1.0032 0.0
H374 H 0.63447 0.04698 0.15619 0.0
H375 H 0.80802 0.1333 0.12238 0.0
H376 H 0.66305 0.0406 0.20313 0.0
H377 H 0.82022 0.08709 0.12019 0.0
O378 O 0.65428 0.13149 0.11843 0.0
H379 H 0.69358 0.2389 0.0908 0.0
H380 H 0.62651 0.1736 0.04876 0.0
H381 H 0.60637 0.21575 0.06259 0.0
H382 H 0.64001 0.24879 0.08371 0.0
H383 H 0.71274 0.19637 0.07693 0.0
H384 H 0.65801 0.189 0.95361 0.0
H385 H 0.6294 0.1514 0.93572 0.0
O386 O 0.64942 0.13301 0.06874 0.0
C387 C 0.69762 0.09445 0.0581 0.0
C388 C 0.63776 0.12942 0.97551 0.0
C389 C 0.6561 0.17211 0.96745 0.0
N390 N 0.66724 0.15007 0.0132 0.0
C391 C 0.65162 0.12928 1.00346 0.0
C392 C 0.66968 0.17128 0.99552 0.0
C393 C 0.64004 0.15102 0.95743 0.0
C394 C 0.76066 0.12688 0.12134 0.0
N395 N 0.73823 0.10929 0.12015 0.0
C396 C 0.79042 0.11921 0.12148 0.0
C397 C 0.79726 0.0933 0.12015 0.0
C398 C 0.77436 0.07545 0.11855 0.0
C399 C 0.74488 0.08383 0.11846 0.0
C400 C 0.69369 0.07115 0.19376 0.0
C401 C 0.66195 0.07826 0.14137 0.0
C402 C 0.7016 0.09022 0.17341 0.0
N403 N 0.68588 0.09348 0.1475 0.0
C404 C 0.6534 0.059 0.16121 0.0
C405 C 0.66943 0.05545 0.18756 0.0
C406 C 0.63826 0.13227 0.09493 0.0
C407 C 0.6787 0.22467 0.08161 0.0
C408 C 0.64128 0.18779 0.05812 0.0
C409 C 0.62975 0.21167 0.06581 0.0
C410 C 0.64864 0.2302 0.07764 0.0
N411 N 0.6708 0.18249 0.06211 0.0
C412 C 0.68943 0.20057 0.07367 0.0
Co413 Co 0.80652 0.88627 0.60603 0.0
Co414 Co 0.81856 0.85996 0.5368 0.0
O415 O 0.79749 0.86043 0.57538 0.0
C416 C 0.81224 0.85548 0.66161 0.0
O417 O 0.83978 0.86367 0.66363 0.0
C418 C 0.75506 0.84433 0.5218 0.0
O419 O 0.7451 0.8525 0.54767 0.0
O420 O 0.80644 0.89615 0.52946 0.0
O421 O 0.81527 0.91276 0.57484 0.0
H422 H 0.88665 0.89659 0.4586 0.0
H423 H 0.74913 0.8585 0.60998 0.0
O424 O 0.79694 0.86062 0.63831 0.0
H425 H 0.72196 0.94938 0.6008 0.0
H426 H 0.78949 0.93475 0.70212 0.0
H427 H 0.85474 0.9242 0.61427 0.0
H428 H 0.77457 0.93629 0.60173 0.0
H429 H 0.77767 0.90287 0.66332 0.0
O430 O 0.78234 0.84718 0.51484 0.0
H431 H 0.86022 0.89569 0.50693 0.0
H432 H 0.8212 0.8243 0.48451 0.0
H433 H 0.86733 0.95636 0.65252 0.0
H434 H 0.69621 0.8708 0.60971 0.0
H435 H 0.8346 0.96178 0.69685 0.0
H436 H 0.68231 0.91653 0.60496 0.0
O437 O 0.84929 0.87569 0.60564 0.0
H438 H 0.80187 0.76942 0.57055 0.0
H439 H 0.87527 0.83054 0.5308 0.0
H440 H 0.89072 0.78635 0.54146 0.0
H441 H 0.85383 0.75536 0.56134 0.0
H442 H 0.78752 0.81389 0.56001 0.0
H443 H 0.84698 0.82458 0.43583 0.0
H444 H 0.8801 0.86086 0.42265 0.0
O445 O 0.85622 0.8718 0.55625 0.0
C446 C 0.81038 0.91524 0.54686 0.0
C447 C 0.87232 0.88065 0.4641 0.0
C448 C 0.85002 0.84026 0.45131 0.0
N449 N 0.83926 0.85993 0.49863 0.0
C450 C 0.85733 0.88001 0.49147 0.0
C451 C 0.83539 0.84026 0.47888 0.0
C452 C 0.86862 0.86061 0.44393 0.0
C453 C 0.7433 0.87846 0.60812 0.0
N454 N 0.765 0.89662 0.60573 0.0
C455 C 0.71327 0.8853 0.60788 0.0
C456 C 0.70549 0.91095 0.60517 0.0
C457 C 0.72772 0.92939 0.60279 0.0
C458 C 0.75751 0.92183 0.60311 0.0
C459 C 0.80393 0.93256 0.68291 0.0
C460 C 0.84038 0.92643 0.63349 0.0
C461 C 0.79738 0.91452 0.66087 0.0
N462 N 0.81554 0.9116 0.63654 0.0
C463 C 0.84762 0.94468 0.65507 0.0
C464 C 0.82924 0.94772 0.67994 0.0
C465 C 0.86625 0.87376 0.58282 0.0
C466 C 0.81812 0.78271 0.56177 0.0
C467 C 0.85913 0.81728 0.53961 0.0
C468 C 0.86799 0.79222 0.54552 0.0
C469 C 0.84729 0.77485 0.55665 0.0
N470 N 0.83043 0.82485 0.5445 0.0
C471 C 0.81008 0.80794 0.55561 0.0
Co472 Co 0.86323 0.64354 0.05366 0.0
Co473 Co 0.86714 0.61417 0.12199 0.0
O474 O 0.85079 0.64084 0.09565 0.0
C475 C 0.85354 0.69869 0.07352 0.0
O476 O 0.84952 0.69207 0.10152 0.0
C477 C 0.81397 0.59458 0.155 0.0
O478 O 0.82065 0.57151 0.14559 0.0
O479 O 0.85268 0.58713 0.09346 0.0
O480 O 0.86675 0.60554 0.05048 0.0
H481 H 0.92154 0.53248 0.14389 0.0
H482 H 0.80614 0.66605 0.07502 0.0
O483 O 0.85985 0.68194 0.05383 0.0
H484 H 0.77864 0.60993 0.99099 0.0
H485 H 0.86116 0.67815 0.94842 0.0
H486 H 0.91053 0.61857 0.01788 0.0
H487 H 0.83098 0.61428 1.00632 0.0
H488 H 0.84414 0.67439 1.00066 0.0
O489 O 0.82834 0.61378 0.14487 0.0
H490 H 0.90124 0.56659 0.11186 0.0
H491 H 0.86722 0.60498 0.18832 0.0
H492 H 0.92806 0.62157 0.96573 0.0
H493 H 0.75362 0.66259 0.06015 0.0
H494 H 0.90332 0.65153 0.93059 0.0
H495 H 0.7395 0.63434 0.01786 0.0
O496 O 0.90552 0.64613 0.06672 0.0
H497 H 0.85713 0.69451 0.1828 0.0
H498 H 0.92482 0.62498 0.15311 0.0
H499 H 0.94309 0.65899 0.18642 0.0
H500 H 0.90909 0.69405 0.20164 0.0
H501 H 0.83997 0.66034 0.14905 0.0
H502 H 0.88716 0.57127 0.22113 0.0
H503 H 0.91454 0.53467 0.19895 0.0
O504 O 0.90668 0.61482 0.10089 0.0
C505 C 0.85808 0.58612 0.06534 0.0
C506 C 0.90962 0.54831 0.15382 0.0
C507 C 0.89034 0.57008 0.19717 0.0
N508 N 0.88293 0.58773 0.14812 0.0
C509 C 0.89803 0.56768 0.13579 0.0
C510 C 0.87908 0.58911 0.17845 0.0
C511 C 0.90569 0.54955 0.18471 0.0
C512 C 0.80038 0.654 0.05635 0.0
N513 N 0.82185 0.64073 0.0413 0.0
C514 C 0.77049 0.65199 0.04814 0.0
C515 C 0.76257 0.6361 0.02445 0.0
C516 C 0.78451 0.6224 0.00938 0.0
C517 C 0.81416 0.6249 0.01822 0.0
C518 C 0.8721 0.665 0.96351 0.0
C519 C 0.89955 0.63157 1.00271 0.0
C520 C 0.86263 0.66284 0.99316 0.0
N521 N 0.87623 0.64616 0.01231 0.0
C522 C 0.90962 0.63322 0.97321 0.0
C523 C 0.89575 0.65006 0.95352 0.0
C524 C 0.91975 0.63069 0.08359 0.0
C525 C 0.87218 0.67935 0.17632 0.0
C526 C 0.91003 0.64034 0.15918 0.0
C527 C 0.92043 0.65947 0.17828 0.0
C528 C 0.90134 0.6791 0.18685 0.0
N529 N 0.8814 0.64071 0.14888 0.0
C530 C 0.86256 0.6599 0.15725 0.0
Co531 Co 0.64957 0.36997 0.56401 0.0
Co532 Co 0.64067 0.40426 0.62905 0.0
O533 O 0.65984 0.37625 0.60636 0.0
C534 C 0.66177 0.31642 0.58878 0.0
O535 O 0.66612 0.32457 0.61618 0.0
C536 C 0.70347 0.40071 0.65498 0.0
O537 O 0.71159 0.38363 0.63511 0.0
O538 O 0.65428 0.42951 0.59821 0.0
O539 O 0.64376 0.40734 0.55676 0.0
H540 H 0.57786 0.48324 0.6385 0.0
H541 H 0.70697 0.35052 0.58857 0.0
O542 O 0.6549 0.33196 0.56798 0.0
H543 H 0.73468 0.40399 0.50232 0.0
H544 H 0.65905 0.32841 0.46269 0.0
H545 H 0.60243 0.38986 0.52394 0.0
H546 H 0.68208 0.39821 0.51605 0.0
H547 H 0.67321 0.33662 0.51508 0.0
O548 O 0.67771 0.41087 0.65364 0.0
H549 H 0.60154 0.44737 0.61185 0.0
H550 H 0.63996 0.42117 0.69306 0.0
H551 H 0.58769 0.38237 0.47155 0.0
H552 H 0.75977 0.35542 0.57539 0.0
H553 H 0.61608 0.35145 0.44054 0.0
H554 H 0.77401 0.38239 0.53199 0.0
O555 O 0.607 0.36614 0.57537 0.0
H556 H 0.65135 0.32834 0.69764 0.0
H557 H 0.58341 0.39523 0.6612 0.0
H558 H 0.56535 0.36389 0.69798 0.0
H559 H 0.59948 0.33018 0.71664 0.0
H560 H 0.66827 0.35975 0.66055 0.0
H561 H 0.61693 0.4569 0.72049 0.0
H562 H 0.58551 0.48819 0.69322 0.0
O563 O 0.60216 0.39906 0.60697 0.0
C564 C 0.6501 0.42821 0.56997 0.0
C565 C 0.59145 0.4697 0.65065 0.0
C566 C 0.61342 0.45494 0.69665 0.0
N567 N 0.62202 0.4321 0.65085 0.0
C568 C 0.60487 0.44931 0.63568 0.0
C569 C 0.62649 0.43479 0.68095 0.0
C570 C 0.59578 0.47248 0.68134 0.0
C571 C 0.7128 0.36203 0.5695 0.0
N572 N 0.69125 0.37388 0.55306 0.0
C573 C 0.74284 0.36486 0.56221 0.0
C574 C 0.75082 0.38002 0.53789 0.0
C575 C 0.72878 0.39216 0.52126 0.0
C576 C 0.69898 0.38889 0.52924 0.0
C577 C 0.64653 0.34196 0.47596 0.0
C578 C 0.61501 0.37647 0.51056 0.0
C579 C 0.65439 0.34665 0.50568 0.0
N580 N 0.63878 0.36384 0.52255 0.0
C581 C 0.6065 0.37226 0.48092 0.0
C582 C 0.62243 0.3549 0.46354 0.0
C583 C 0.59103 0.3816 0.59048 0.0
C584 C 0.6363 0.34302 0.68981 0.0
C585 C 0.59839 0.38058 0.66898 0.0
C586 C 0.58804 0.36291 0.68994 0.0
C587 C 0.60719 0.34402 0.70042 0.0
N588 N 0.62706 0.37964 0.65877 0.0
C589 C 0.64585 0.36104 0.66885 0.0
Co590 Co 0.85606 0.36632 0.95173 0.0
Co591 Co 0.86393 0.39767 0.88526 0.0
O592 O 0.84614 0.37061 0.9095 0.0
C593 C 0.86684 0.3105 0.9577 0.0
O594 O 0.89282 0.31609 0.96946 0.0
C595 C 0.81202 0.41869 0.85136 0.0
O596 O 0.81848 0.44145 0.86192 0.0
O597 O 0.84898 0.42395 0.91448 0.0
O598 O 0.8607 0.40408 0.95738 0.0
H599 H 0.92095 0.47905 0.86902 0.0
H600 H 0.80086 0.34355 0.92727 0.0
O601 O 0.85057 0.32832 0.94709 0.0
H602 H 0.76757 0.40071 0.00831 0.0
H603 H 0.84351 0.32996 0.05557 0.0
H604 H 0.90271 0.38734 0.99143 0.0
H605 H 0.82089 0.39609 0.99677 0.0
H606 H 0.83069 0.33564 1.00237 0.0
O607 O 0.82613 0.39917 0.86093 0.0
H608 H 0.8988 0.44424 0.89875 0.0
H609 H 0.86641 0.40912 0.81952 0.0
H610 H 0.91629 0.38223 0.04453 0.0
H611 H 0.7473 0.34729 0.93837 0.0
H612 H 0.88659 0.35336 0.07699 0.0
H613 H 0.73033 0.37608 0.97911 0.0
O614 O 0.89922 0.36355 0.94092 0.0
H615 H 0.85561 0.31817 0.82275 0.0
H616 H 0.92229 0.38758 0.8551 0.0
H617 H 0.9414 0.35417 0.8214 0.0
H618 H 0.90791 0.31919 0.80483 0.0
H619 H 0.83756 0.35177 0.85685 0.0
H620 H 0.88819 0.44357 0.78896 0.0
H621 H 0.91571 0.47887 0.81371 0.0
O622 O 0.90235 0.39571 0.90792 0.0
C623 C 0.85341 0.42411 0.94282 0.0
C624 C 0.90898 0.46379 0.85798 0.0
C625 C 0.8906 0.44388 0.81305 0.0
N626 N 0.8812 0.4247 0.86095 0.0
C627 C 0.89635 0.44404 0.8747 0.0
C628 C 0.87829 0.42444 0.83049 0.0
C629 C 0.90604 0.46368 0.82695 0.0
C630 C 0.79369 0.35598 0.94518 0.0
N631 N 0.81406 0.36951 0.96141 0.0
C632 C 0.76331 0.35808 0.95129 0.0
C633 C 0.7538 0.37426 0.97413 0.0
C634 C 0.77468 0.3881 0.9905 0.0
C635 C 0.80486 0.38551 0.98376 0.0
C636 C 0.85663 0.34259 0.04166 0.0
C637 C 0.8897 0.37472 1.00539 0.0
C638 C 0.84948 0.34589 0.01151 0.0
N639 N 0.86598 0.36179 0.99375 0.0
C640 C 0.89748 0.37192 0.03546 0.0
C641 C 0.8808 0.35572 0.05366 0.0
C642 C 0.91441 0.37921 0.92512 0.0
C643 C 0.87041 0.33333 0.82976 0.0
C644 C 0.90766 0.37232 0.84828 0.0
C645 C 0.91857 0.35351 0.82905 0.0
C646 C 0.89976 0.3339 0.81974 0.0
N647 N 0.8788 0.37173 0.85793 0.0
C648 C 0.86029 0.35247 0.84901 0.0
Co649 Co 0.64915 0.64159 0.44271 0.0
Co650 Co 0.64154 0.60788 0.37723 0.0
O651 O 0.66024 0.63583 0.40045 0.0
C652 C 0.66277 0.69567 0.41978 0.0
O653 O 0.66897 0.68822 0.39244 0.0
C654 C 0.70423 0.61252 0.3509 0.0
O655 O 0.71199 0.63029 0.37007 0.0
O656 O 0.65512 0.58246 0.4079 0.0
O657 O 0.64315 0.60416 0.44927 0.0
H658 H 0.5796 0.52851 0.36632 0.0
H659 H 0.70727 0.66064 0.41913 0.0
O660 O 0.65455 0.67964 0.43955 0.0
H661 H 0.7328 0.607 0.50585 0.0
H662 H 0.65652 0.68203 0.54483 0.0
H663 H 0.6012 0.62124 0.48156 0.0
H664 H 0.68054 0.61312 0.49119 0.0
H665 H 0.67179 0.67439 0.49263 0.0
O666 O 0.67885 0.60172 0.35289 0.0
H667 H 0.60261 0.56436 0.39358 0.0
H668 H 0.64174 0.59143 0.31304 0.0
H669 H 0.58537 0.62816 0.53375 0.0
H670 H 0.75973 0.65538 0.43323 0.0
H671 H 0.61311 0.65874 0.56578 0.0
H672 H 0.7729 0.62833 0.47689 0.0
O673 O 0.60682 0.64558 0.43057 0.0
H674 H 0.65137 0.68511 0.31043 0.0
H675 H 0.58465 0.61633 0.34434 0.0
H676 H 0.5664 0.64783 0.30789 0.0
H677 H 0.59992 0.68249 0.29049 0.0
H678 H 0.66847 0.65353 0.34713 0.0
H679 H 0.6194 0.55572 0.28502 0.0
H680 H 0.58795 0.52401 0.31164 0.0
O681 O 0.60277 0.61257 0.39903 0.0
C682 C 0.65022 0.58348 0.43605 0.0
C683 C 0.5932 0.54224 0.35446 0.0
C684 C 0.61558 0.55749 0.30884 0.0
N685 N 0.6234 0.58007 0.35495 0.0
C686 C 0.60624 0.56262 0.36976 0.0
C687 C 0.62827 0.57762 0.32488 0.0
C688 C 0.59792 0.53971 0.32379 0.0
C689 C 0.71259 0.64912 0.43832 0.0
N690 N 0.69061 0.63747 0.45442 0.0
C691 C 0.74246 0.64608 0.44614 0.0
C692 C 0.74984 0.63087 0.47059 0.0
C693 C 0.72737 0.61889 0.48682 0.0
C694 C 0.69776 0.62237 0.47833 0.0
C695 C 0.64429 0.66862 0.53112 0.0
C696 C 0.61349 0.63449 0.49538 0.0
C697 C 0.65277 0.66426 0.50149 0.0
N698 N 0.63751 0.64724 0.48406 0.0
C699 C 0.60438 0.63836 0.52491 0.0
C700 C 0.61993 0.65554 0.54286 0.0
C701 C 0.59121 0.63004 0.4152 0.0
C702 C 0.6366 0.66999 0.31767 0.0
C703 C 0.5994 0.63134 0.33705 0.0
C704 C 0.58893 0.64913 0.3163 0.0
C705 C 0.60773 0.66855 0.30654 0.0
N706 N 0.62787 0.63267 0.34772 0.0
C707 C 0.64628 0.65185 0.3384 0.0
Co708 Co 0.19368 0.38991 0.89353 0.0
Co709 Co 0.19259 0.35839 0.96032 0.0
O710 O 0.20809 0.36257 0.9196 0.0
C711 C 0.20982 0.346 0.85192 0.0
O712 O 0.21705 0.33113 0.87437 0.0
C713 C 0.24844 0.34879 0.99525 0.0
O714 O 0.24252 0.36859 0.01228 0.0
O715 O 0.20549 0.39408 0.97001 0.0
O716 O 0.1887 0.41339 0.92859 0.0
H717 H 0.13828 0.38667 0.05284 0.0
H718 H 0.25382 0.36577 0.88606 0.0
O719 O 0.19873 0.36808 0.85658 0.0
H720 H 0.2723 0.45842 0.8887 0.0
H721 H 0.19045 0.44367 0.79999 0.0
H722 H 0.14405 0.427 0.89805 0.0
H723 H 0.2214 0.44166 0.89333 0.0
H724 H 0.21033 0.41019 0.83317 0.0
O725 O 0.2323 0.34403 0.97245 0.0
H726 H 0.15715 0.39082 1.00126 0.0
H727 H 0.19649 0.31722 0.00676 0.0
H728 H 0.12368 0.46085 0.86569 0.0
H729 H 0.30487 0.38169 0.88081 0.0
H730 H 0.14691 0.46937 0.81626 0.0
H731 H 0.31454 0.42837 0.88213 0.0
O732 O 0.1522 0.37708 0.89885 0.0
H733 H 0.20564 0.27063 0.9165 0.0
H734 H 0.13655 0.32836 0.96896 0.0
H735 H 0.1199 0.2851 0.95526 0.0
H736 H 0.15461 0.25583 0.92891 0.0
H737 H 0.2212 0.3142 0.93027 0.0
H738 H 0.17813 0.31232 0.05841 0.0
H739 H 0.14876 0.3472 0.08179 0.0
O740 O 0.15215 0.37147 0.94857 0.0
C741 C 0.19831 0.41418 0.95544 0.0
C742 C 0.15107 0.37135 0.04291 0.0
C743 C 0.17344 0.32962 0.04604 0.0
N744 N 0.17798 0.35433 1.001 0.0
C745 C 0.16183 0.37359 0.01371 0.0
C746 C 0.18382 0.33253 0.01679 0.0
C747 C 0.15696 0.3492 0.05914 0.0
C748 C 0.25747 0.38607 0.88602 0.0
N749 N 0.23422 0.40268 0.8891 0.0
C750 C 0.28663 0.39501 0.88332 0.0
C751 C 0.29205 0.42118 0.88414 0.0
C752 C 0.26838 0.43803 0.88782 0.0
C753 C 0.23953 0.42839 0.89042 0.0
C754 C 0.18015 0.44016 0.8215 0.0
C755 C 0.1544 0.43067 0.87666 0.0
C756 C 0.19124 0.42114 0.84035 0.0
N757 N 0.17847 0.4167 0.86764 0.0
C758 C 0.14272 0.44983 0.85839 0.0
C759 C 0.15574 0.45458 0.83064 0.0
C760 C 0.1385 0.37399 0.92367 0.0
C761 C 0.19027 0.28322 0.92791 0.0
C762 C 0.15163 0.31594 0.95711 0.0
C763 C 0.14215 0.29136 0.9496 0.0
C764 C 0.16164 0.27493 0.93486 0.0
N765 N 0.17973 0.32399 0.95015 0.0
C766 C 0.19896 0.30794 0.93577 0.0
Co767 Co 0.30855 0.62533 0.40449 0.0
Co768 Co 0.3194 0.65175 0.47385 0.0
O769 O 0.29879 0.65102 0.43508 0.0
C770 C 0.31411 0.65617 0.34885 0.0
O771 O 0.34165 0.64801 0.34662 0.0
C772 C 0.25521 0.66488 0.4886 0.0
O773 O 0.24566 0.65474 0.46357 0.0
O774 O 0.30788 0.61541 0.48105 0.0
O775 O 0.31728 0.59888 0.43573 0.0
H776 H 0.38735 0.61612 0.55269 0.0
H777 H 0.25082 0.65253 0.40002 0.0
O778 O 0.29896 0.65098 0.37225 0.0
H779 H 0.22477 0.56135 0.40865 0.0
H780 H 0.29317 0.57678 0.30819 0.0
H781 H 0.35733 0.5879 0.39667 0.0
H782 H 0.2772 0.57499 0.40839 0.0
H783 H 0.28055 0.60852 0.34688 0.0
O784 O 0.28271 0.66402 0.49533 0.0
H785 H 0.36141 0.61663 0.50412 0.0
H786 H 0.32073 0.68741 0.52619 0.0
H787 H 0.37074 0.55589 0.35853 0.0
H788 H 0.19807 0.63967 0.39955 0.0
H789 H 0.33856 0.55017 0.31388 0.0
H790 H 0.18474 0.59379 0.40404 0.0
O791 O 0.3512 0.63634 0.40532 0.0
H792 H 0.30091 0.74207 0.44053 0.0
H793 H 0.37552 0.68203 0.48013 0.0
H794 H 0.39006 0.72649 0.46963 0.0
H795 H 0.35257 0.75693 0.44981 0.0
H796 H 0.28748 0.69732 0.45094 0.0
H797 H 0.34602 0.68752 0.5751 0.0
H798 H 0.37972 0.65175 0.58858 0.0
O799 O 0.35746 0.64046 0.45478 0.0
C800 C 0.3122 0.59636 0.46368 0.0
C801 C 0.37277 0.63184 0.54705 0.0
C802 C 0.34954 0.67189 0.55965 0.0
N803 N 0.33966 0.65207 0.51222 0.0
C804 C 0.35805 0.63226 0.51955 0.0
C805 C 0.33519 0.67167 0.53194 0.0
C806 C 0.36846 0.65182 0.56719 0.0
C807 C 0.24524 0.6325 0.40171 0.0
N808 N 0.26715 0.61456 0.40434 0.0
C809 C 0.21531 0.62535 0.40155 0.0
C810 C 0.20784 0.59961 0.40412 0.0
C811 C 0.23029 0.58141 0.40677 0.0
C812 C 0.25997 0.58927 0.40683 0.0
C813 C 0.30739 0.57909 0.32753 0.0
C814 C 0.34321 0.58555 0.37731 0.0
C815 C 0.30037 0.59706 0.34952 0.0
N816 N 0.31823 0.60014 0.37402 0.0
C817 C 0.35091 0.56738 0.35578 0.0
C818 C 0.33285 0.56418 0.33074 0.0
C819 C 0.36785 0.63849 0.42833 0.0
C820 C 0.31744 0.72901 0.44924 0.0
C821 C 0.35914 0.69504 0.47129 0.0
C822 C 0.36747 0.72026 0.4655 0.0
C823 C 0.34643 0.73733 0.45441 0.0
N824 N 0.33063 0.68702 0.46631 0.0
C825 C 0.30993 0.70364 0.45529 0.0
Co826 Co 0.20119 0.61549 0.11061 0.0
Co827 Co 0.195 0.64466 0.04213 0.0
O828 O 0.21361 0.64223 0.08205 0.0
C829 C 0.21825 0.66105 0.14977 0.0
O830 O 0.22469 0.67542 0.12662 0.0
C831 C 0.25915 0.66193 0.03222 0.0
O832 O 0.26724 0.655 0.05921 0.0
O833 O 0.20718 0.60874 0.03354 0.0
O834 O 0.19432 0.59064 0.07709 0.0
H835 H 0.13185 0.61204 0.95761 0.0
H836 H 0.26111 0.64042 0.11623 0.0
O837 O 0.20788 0.63857 0.14619 0.0
H838 H 0.28115 0.54809 0.11168 0.0
H839 H 0.20551 0.56465 0.2063 0.0
H840 H 0.15192 0.57783 0.11133 0.0
H841 H 0.22981 0.56418 0.10943 0.0
H842 H 0.22241 0.5973 0.17037 0.0
O843 O 0.23273 0.6578 0.02311 0.0
H844 H 0.15506 0.61063 0.00753 0.0
H845 H 0.19613 0.6825 0.99194 0.0
H846 H 0.13446 0.54481 0.14651 0.0
H847 H 0.31263 0.6252 0.1191 0.0
H848 H 0.16132 0.53805 0.1944 0.0
H849 H 0.32308 0.57868 0.11675 0.0
O850 O 0.15915 0.62761 0.10785 0.0
H851 H 0.21009 0.73408 0.08086 0.0
H852 H 0.13886 0.67452 0.03455 0.0
H853 H 0.12289 0.71831 0.04647 0.0
H854 H 0.15867 0.74854 0.06968 0.0
H855 H 0.22492 0.69004 0.06901 0.0
H856 H 0.17357 0.68455 0.94176 0.0
H857 H 0.14105 0.6492 0.92434 0.0
O858 O 0.15589 0.63243 0.05827 0.0
C859 C 0.20156 0.58909 0.04953 0.0
C860 C 0.14593 0.62759 0.96497 0.0
C861 C 0.16938 0.66826 0.95606 0.0
N862 N 0.17685 0.64649 1.00275 0.0
C863 C 0.1591 0.62692 0.99325 0.0
C864 C 0.18218 0.66694 0.98447 0.0
C865 C 0.15112 0.64843 0.9463 0.0
C866 C 0.26515 0.6202 0.11564 0.0
N867 N 0.24213 0.60332 0.11304 0.0
C868 C 0.29455 0.61166 0.11707 0.0
C869 C 0.30041 0.58557 0.11569 0.0
C870 C 0.27691 0.56842 0.11282 0.0
C871 C 0.24782 0.57768 0.11145 0.0
C872 C 0.19364 0.5674 0.18549 0.0
C873 C 0.16384 0.57493 0.13204 0.0
C874 C 0.20304 0.58592 0.16508 0.0
N875 N 0.18826 0.5894 0.13866 0.0
C876 C 0.1538 0.55623 0.15192 0.0
C877 C 0.16886 0.55247 0.17879 0.0
C878 C 0.14389 0.63026 0.08399 0.0
C879 C 0.1943 0.72112 0.07067 0.0
C880 C 0.15451 0.6874 0.04487 0.0
C881 C 0.14536 0.71226 0.05145 0.0
C882 C 0.16545 0.72921 0.06444 0.0
N883 N 0.1829 0.67957 0.05094 0.0
C884 C 0.20264 0.69611 0.06377 0.0
Co885 Co 0.30794 0.38683 0.601 0.0
Co886 Co 0.31986 0.36046 0.5319 0.0
O887 O 0.29879 0.36108 0.5704 0.0
C888 C 0.31287 0.35574 0.65649 0.0
O889 O 0.34034 0.36398 0.65923 0.0
C890 C 0.25598 0.34692 0.51694 0.0
O891 O 0.24623 0.35799 0.54135 0.0
O892 O 0.30793 0.39667 0.52448 0.0
O893 O 0.31696 0.4133 0.56983 0.0
H894 H 0.38809 0.39649 0.45345 0.0
H895 H 0.25024 0.35945 0.60484 0.0
O896 O 0.29802 0.36112 0.63301 0.0
H897 H 0.224 0.45055 0.59595 0.0
H898 H 0.29118 0.43514 0.69724 0.0
H899 H 0.35638 0.42453 0.60936 0.0
H900 H 0.27646 0.43706 0.59673 0.0
H901 H 0.2792 0.4034 0.65834 0.0
O902 O 0.28352 0.34763 0.51031 0.0
H903 H 0.36172 0.39588 0.50183 0.0
H904 H 0.32209 0.32467 0.47973 0.0
H905 H 0.36915 0.45655 0.6477 0.0
H906 H 0.19745 0.37216 0.60483 0.0
H907 H 0.33644 0.46201 0.69205 0.0
H908 H 0.18402 0.41799 0.6002 0.0
O909 O 0.35062 0.37598 0.60068 0.0
H910 H 0.30233 0.27007 0.56554 0.0
H911 H 0.37645 0.33077 0.52624 0.0
H912 H 0.39153 0.28651 0.53711 0.0
H913 H 0.35428 0.25574 0.55678 0.0
H914 H 0.28836 0.31461 0.55476 0.0
H915 H 0.34782 0.32465 0.43102 0.0
H916 H 0.38121 0.36069 0.41766 0.0
O917 O 0.35761 0.37223 0.55127 0.0
C918 C 0.31203 0.41576 0.54184 0.0
C919 C 0.37365 0.38065 0.45904 0.0
C920 C 0.35101 0.34035 0.44644 0.0
N921 N 0.34048 0.36022 0.4937 0.0
C922 C 0.3587 0.38017 0.48643 0.0
C923 C 0.33642 0.34052 0.47403 0.0
C924 C 0.36976 0.36057 0.43896 0.0
C925 C 0.24462 0.37946 0.60311 0.0
N926 N 0.2665 0.39745 0.60066 0.0
C927 C 0.21466 0.38653 0.60298 0.0
C928 C 0.20714 0.41224 0.60033 0.0
C929 C 0.22955 0.43051 0.59789 0.0
C930 C 0.25926 0.42272 0.59811 0.0
C931 C 0.30562 0.43294 0.67802 0.0
C932 C 0.34203 0.42677 0.62858 0.0
C933 C 0.29896 0.41498 0.65592 0.0
N934 N 0.31711 0.41205 0.63159 0.0
C935 C 0.34937 0.44495 0.65022 0.0
C936 C 0.33101 0.448 0.6751 0.0
C937 C 0.36761 0.37408 0.57788 0.0
C938 C 0.31876 0.28327 0.5569 0.0
C939 C 0.36018 0.31761 0.535 0.0
C940 C 0.36882 0.29251 0.54101 0.0
C941 C 0.34791 0.27525 0.55202 0.0
N942 N 0.33151 0.32533 0.53971 0.0
C943 C 0.31094 0.30853 0.55064 0.0
H944 H 0.38875 0.24682 0.06148 0.0
H945 H 0.24719 0.2983 0.98074 0.0
H946 H 0.30452 0.20747 0.06694 0.0
H947 H 0.29539 0.3524 0.03517 0.0
H948 H 0.27628 0.26378 1.00252 0.0
H949 H 0.36223 0.2854 0.0443 0.0
C950 C 0.36474 0.24637 0.05955 0.0
C951 C 0.34889 0.2238 0.06568 0.0
C952 C 0.28064 0.28324 0.0095 0.0
C953 C 0.31885 0.26737 0.04523 0.0
C954 C 0.26425 0.30306 0.9969 0.0
C955 C 0.26881 0.32842 1.00609 0.0
C956 C 0.30237 0.28866 0.03102 0.0
C957 C 0.29112 0.33315 0.02747 0.0
C958 C 0.34972 0.26834 0.04975 0.0
C959 C 0.31777 0.22433 0.06263 0.0
N960 N 0.30729 0.31342 0.03914 0.0
N961 N 0.30391 0.24554 0.05209 0.0
H962 H 0.20053 0.68491 0.47396 0.0
H963 H 0.19508 0.7762 0.61818 0.0
H964 H 0.26505 0.68262 0.54535 0.0
H965 H 0.14232 0.78784 0.53874 0.0
H966 H 0.21422 0.73643 0.59642 0.0
H967 H 0.17242 0.71707 0.50204 0.0
C968 C 0.20853 0.69081 0.49574 0.0
C969 C 0.23539 0.68121 0.50712 0.0
C970 C 0.19814 0.74754 0.58395 0.0
C971 C 0.2034 0.71817 0.53935 0.0
C972 C 0.18705 0.77016 0.59646 0.0
C973 C 0.16725 0.78552 0.58018 0.0
C974 C 0.18921 0.74014 0.55504 0.0
C975 C 0.15778 0.77676 0.55201 0.0
C976 C 0.19256 0.7093 0.51171 0.0
C977 C 0.24466 0.68968 0.53549 0.0
N978 N 0.16899 0.75481 0.54028 0.0
N979 N 0.22885 0.70777 0.55049 0.0
H980 H 0.36684 0.79154 0.98566 0.0
H981 H 0.25202 0.67592 0.97358 0.0
H982 H 0.31553 0.77581 0.90622 0.0
H983 H 0.30944 0.68806 0.04959 0.0
H984 H 0.27837 0.70962 0.94667 0.0
H985 H 0.34969 0.75138 0.00726 0.0
C986 C 0.35224 0.77947 0.97254 0.0
C987 C 0.34245 0.78724 0.9441 0.0
C988 C 0.2855 0.70473 0.96908 0.0
C989 C 0.32235 0.74109 0.96903 0.0
C990 C 0.27045 0.68542 0.98452 0.0
C991 C 0.27829 0.67923 0.0141 0.0
C992 C 0.30851 0.7182 0.9833 0.0
C993 C 0.30253 0.69215 0.0269 0.0
C994 C 0.34243 0.75649 0.98496 0.0
C995 C 0.32368 0.77065 0.92818 0.0
N996 N 0.31649 0.7112 0.01159 0.0
N997 N 0.31395 0.74854 0.94102 0.0
H998 H 0.26577 0.32737 0.46102 0.0
H999 H 0.14319 0.2192 0.47922 0.0
H1000 H 0.20216 0.32618 0.53333 0.0
H1001 H 0.1951 0.22873 0.39877 0.0
H1002 H 0.16189 0.26006 0.49754 0.0
H1003 H 0.23792 0.29344 0.4361 0.0
C1004 C 0.24569 0.32023 0.47149 0.0
C1005 C 0.23646 0.32954 0.49949 0.0
C1006 C 0.1689 0.25345 0.47569 0.0
C1007 C 0.20457 0.29032 0.47111 0.0
C1008 C 0.15823 0.23007 0.46518 0.0
C1009 C 0.16774 0.22039 0.43745 0.0
C1010 C 0.18965 0.26723 0.45861 0.0
C1011 C 0.18714 0.23543 0.42024 0.0
C1012 C 0.22977 0.30082 0.45719 0.0
C1013 C 0.21015 0.31961 0.51181 0.0
N1014 N 0.19779 0.25791 0.43129 0.0
N1015 N 0.19539 0.30031 0.49776 0.0
H1016 H 0.82215 0.73597 0.10336 0.0
H1017 H 0.80898 0.82587 0.95853 0.0
H1018 H 0.8665 0.7208 0.01956 0.0
H1019 H 0.7514 0.83168 0.03552 0.0
H1020 H 0.83734 0.79252 0.98431 0.0
H1021 H 0.80325 0.77609 0.08248 0.0
C1022 C 0.82836 0.74125 0.08078 0.0
C1023 C 0.84573 0.72482 0.06313 0.0
C1024 C 0.81871 0.80132 0.99568 0.0
C1025 C 0.82403 0.7707 0.03901 0.0
C1026 C 0.8026 0.8205 0.98103 0.0
C1027 C 0.77757 0.83147 0.99473 0.0
C1028 C 0.80985 0.79315 0.02432 0.0
C1029 C 0.77034 0.8236 0.02393 0.0
C1030 C 0.81741 0.76411 0.0688 0.0
C1031 C 0.85294 0.7327 0.03393 0.0
N1032 N 0.78623 0.80484 0.03762 0.0
N1033 N 0.84192 0.75493 0.02276 0.0
H1034 H 0.70147 0.18439 0.47989 0.0
H1035 H 0.69724 0.28186 0.61856 0.0
H1036 H 0.76682 0.18535 0.55056 0.0
H1037 H 0.64494 0.29081 0.53833 0.0
H1038 H 0.71611 0.24117 0.59898 0.0
H1039 H 0.67382 0.21797 0.50613 0.0
C1040 C 0.70974 0.19131 0.50116 0.0
C1041 C 0.73669 0.18218 0.51285 0.0
C1042 C 0.7002 0.25191 0.58587 0.0
C1043 C 0.70522 0.22074 0.54295 0.0
C1044 C 0.68927 0.27506 0.59713 0.0
C1045 C 0.66967 0.28991 0.57998 0.0
C1046 C 0.69128 0.24344 0.55736 0.0
C1047 C 0.66025 0.28015 0.55223 0.0
C1048 C 0.69403 0.2106 0.51606 0.0
C1049 C 0.74634 0.19199 0.5405 0.0
N1050 N 0.67127 0.25769 0.54174 0.0
N1051 N 0.73076 0.21081 0.55446 0.0
H1052 H 0.81403 0.29198 0.93618 0.0
H1053 H 0.80969 0.17217 0.04782 0.0
H1054 H 0.88785 0.2713 0.9929 0.0
H1055 H 0.73681 0.19555 0.99131 0.0
H1056 H 0.84091 0.2052 0.0245 0.0
H1057 H 0.78795 0.2535 0.95215 0.0
C1058 C 0.82499 0.27916 0.95166 0.0
C1059 C 0.85317 0.28506 0.9633 0.0
C1060 C 0.81814 0.2029 0.01707 0.0
C1061 C 0.82306 0.24088 0.98218 0.0
C1062 C 0.80033 0.18401 0.03033 0.0
C1063 C 0.77045 0.18117 0.02176 0.0
C1064 C 0.806 0.21902 0.99503 0.0
C1065 C 0.75957 0.19713 0.99896 0.0
C1066 C 0.80999 0.25717 0.96091 0.0
C1067 C 0.86617 0.26759 0.98331 0.0
N1068 N 0.77722 0.21535 0.98659 0.0
N1069 N 0.8509 0.24647 0.99237 0.0
H1070 H 0.76641 0.82829 0.46455 0.0
H1071 H 0.64209 0.71994 0.46961 0.0
H1072 H 0.70144 0.82163 0.53524 0.0
H1073 H 0.70077 0.7309 0.39429 0.0
H1074 H 0.66025 0.75969 0.49136 0.0
H1075 H 0.73978 0.79563 0.43622 0.0
C1076 C 0.74632 0.82021 0.474 0.0
C1077 C 0.73637 0.82761 0.50256 0.0
C1078 C 0.66892 0.75366 0.46988 0.0
C1079 C 0.70579 0.78987 0.47013 0.0
C1080 C 0.65852 0.73092 0.45738 0.0
C1081 C 0.67006 0.72191 0.43011 0.0
C1082 C 0.69138 0.76753 0.45528 0.0
C1083 C 0.6912 0.73708 0.4153 0.0
C1084 C 0.7311 0.80151 0.45774 0.0
C1085 C 0.71003 0.81654 0.51341 0.0
N1086 N 0.70148 0.75895 0.42827 0.0
N1087 N 0.69591 0.79803 0.49737 0.0
H1088 H 0.34614 0.03441 0.09144 0.0
H1089 H 0.34623 0.97614 0.9251 0.0
H1090 H 0.35914 0.08104 0.01284 0.0
H1091 H 0.3615 0.93187 1.00516 0.0
H1092 H 0.34418 0.01495 0.95622 0.0
H1093 H 0.34458 0.99654 0.05938 0.0
C1094 C 0.34844 0.03678 0.06748 0.0
C1095 C 0.3527 0.0611 0.05497 0.0
C1096 C 0.3478 0.99663 0.96684 0.0
C1097 C 0.35084 0.01765 0.01797 0.0
C1098 C 0.3489 0.97447 0.9491 0.0
C1099 C 0.3538 0.9505 0.96237 0.0
C1100 C 0.35128 0.99477 0.99808 0.0
C1101 C 0.35734 0.94969 0.99369 0.0
C1102 C 0.34764 0.0151 0.04915 0.0
C1103 C 0.35568 0.06279 0.02363 0.0
N1104 N 0.3559 0.97135 0.01033 0.0
N1105 N 0.35464 0.04143 1.00626 0.0
H1106 H 0.15918 0.974 0.59473 0.0
H1107 H 0.15915 0.03182 0.42805 0.0
H1108 H 0.14508 0.92867 0.51524 0.0
H1109 H 0.14596 0.07777 0.50721 0.0
H1110 H 0.16073 0.99363 0.4599 0.0
H1111 H 0.16101 0.01242 0.56311 0.0
C1112 C 0.15671 0.97203 0.57074 0.0
C1113 C 0.15218 0.94789 0.5578 0.0
C1114 C 0.15764 0.01215 0.47022 0.0
C1115 C 0.15441 0.99175 0.52145 0.0
C1116 C 0.1568 0.03397 0.45203 0.0
C1117 C 0.15258 0.0582 0.4648 0.0
C1118 C 0.15453 0.01454 0.50146 0.0
C1119 C 0.14951 0.05964 0.49616 0.0
C1120 C 0.15768 0.99397 0.55269 0.0
C1121 C 0.14892 0.94668 0.52645 0.0
N1122 N 0.15063 0.03823 0.51332 0.0
N1123 N 0.15019 0.96816 0.50948 0.0
H1124 H 0.70682 0.93101 0.02366 0.0
H1125 H 0.70508 0.08263 0.99843 0.0
H1126 H 0.69055 0.96652 0.93799 0.0
H1127 H 0.69296 0.04756 0.08503 0.0
H1128 H 0.70608 0.04001 0.9758 0.0
H1129 H 0.70782 0.97357 0.04666 0.0
C1130 C 0.7036 0.94766 0.00964 0.0
C1131 C 0.69883 0.94502 0.97875 0.0
C1132 C 0.70331 0.04171 0.99978 0.0
C1133 C 0.70015 0.99379 1.00492 0.0
C1134 C 0.70284 0.06605 0.01273 0.0
C1135 C 0.6991 0.06883 0.04375 0.0
C1136 C 0.70033 0.01993 0.01797 0.0
C1137 C 0.69612 0.0465 0.06107 0.0
C1138 C 0.70412 0.97195 0.0228 0.0
C1139 C 0.69462 0.96741 0.96181 0.0
N1140 N 0.6969 0.02307 0.04799 0.0
N1141 N 0.69551 0.99075 0.97506 0.0
H1142 H 0.80545 0.08038 0.52814 0.0
H1143 H 0.80482 0.93085 0.48808 0.0
H1144 H 0.8148 0.0511 0.43827 0.0
H1145 H 0.81532 0.96023 0.57777 0.0
H1146 H 0.80428 0.97486 0.46931 0.0
H1147 H 0.8048 0.03636 0.54682 0.0
C1148 C 0.80723 0.06479 0.51232 0.0
C1149 C 0.81002 0.06961 0.48154 0.0
C1150 C 0.80664 0.9716 0.49311 0.0
C1151 C 0.80923 0.01912 0.50278 0.0
C1152 C 0.80689 0.94646 0.50384 0.0
C1153 C 0.80994 0.94167 0.5346 0.0
C1154 C 0.80924 0.99214 0.51327 0.0
C1155 C 0.8127 0.96281 0.5539 0.0
C1156 C 0.80693 0.03964 0.523 0.0
C1157 C 0.81242 0.04849 0.46216 0.0
N1158 N 0.81219 0.98701 0.54295 0.0
N1159 N 0.81188 0.02428 0.47307 0.0
H1160 H 0.84684 0.47372 0.92223 0.0
H1161 H 0.84579 0.53723 0.08627 0.0
H1162 H 0.8559 0.43006 1.00369 0.0
H1163 H 0.86432 0.579 1.00503 0.0
H1164 H 0.84237 0.49782 0.05639 0.0
H1165 H 0.84589 0.51296 0.95238 0.0
C1166 C 0.84835 0.47229 0.94636 0.0
C1167 C 0.85135 0.44839 0.96026 0.0
C1168 C 0.84701 0.51573 0.04522 0.0
C1169 C 0.85015 0.49326 0.99498 0.0
C1170 C 0.84892 0.53823 0.06227 0.0
C1171 C 0.85518 0.56167 0.04833 0.0
C1172 C 0.85106 0.5167 0.01396 0.0
C1173 C 0.85917 0.56161 0.01701 0.0
C1174 C 0.84789 0.49471 0.96358 0.0
C1175 C 0.85337 0.44789 0.99176 0.0
N1176 N 0.85696 0.53964 1.00102 0.0
N1177 N 0.85268 0.46987 0.00795 0.0
H1178 H 0.65748 0.47869 0.5871 0.0
H1179 H 0.65922 0.53315 0.41885 0.0
H1180 H 0.64592 0.43122 0.50893 0.0
H1181 H 0.64419 0.58012 0.49686 0.0
H1182 H 0.66073 0.49542 0.45158 0.0
H1183 H 0.65904 0.51632 0.5543 0.0
C1184 C 0.65548 0.47609 0.56315 0.0
C1185 C 0.65174 0.45159 0.55094 0.0
C1186 C 0.65725 0.51408 0.46143 0.0
C1187 C 0.65367 0.49458 0.5132 0.0
C1188 C 0.65644 0.53562 0.44274 0.0
C1189 C 0.65177 0.56001 0.45494 0.0
C1190 C 0.65365 0.51695 0.49257 0.0
C1191 C 0.64814 0.56189 0.48621 0.0
C1192 C 0.65631 0.49758 0.54441 0.0
C1193 C 0.6491 0.44956 0.51958 0.0
N1194 N 0.64926 0.54077 0.50383 0.0
N1195 N 0.6502 0.47065 0.50191 0.0
H1196 H 0.19539 0.54285 0.07776 0.0
H1197 H 0.18928 0.46064 0.92905 0.0
H1198 H 0.20898 0.57577 0.99021 0.0
H1199 H 0.21056 0.42669 0.01447 0.0
H1200 H 0.19199 0.50269 0.95163 0.0
H1201 H 0.1966 0.50037 0.05558 0.0
C1202 C 0.19889 0.54125 0.05388 0.0
C1203 C 0.20242 0.56314 0.03591 0.0
C1204 C 0.19629 0.4861 0.96543 0.0
C1205 C 0.20315 0.51416 0.0103 0.0
C1206 C 0.19478 0.46191 0.95256 0.0
C1207 C 0.20006 0.43983 0.96974 0.0
C1208 C 0.20253 0.48852 0.99598 0.0
C1209 C 0.20652 0.44307 1.00026 0.0
C1210 C 0.19955 0.51687 0.04127 0.0
C1211 C 0.20634 0.55957 1.00502 0.0
N1212 N 0.20737 0.46696 0.01246 0.0
N1213 N 0.20639 0.53558 0.99319 0.0
H1214 H 0.30645 0.58083 0.52244 0.0
H1215 H 0.30674 0.43125 0.48301 0.0
H1216 H 0.31767 0.55134 0.43288 0.0
H1217 H 0.31709 0.46081 0.57264 0.0
H1218 H 0.30642 0.47521 0.4641 0.0
H1219 H 0.30603 0.53686 0.54132 0.0
C1220 C 0.30872 0.5652 0.50673 0.0
C1221 C 0.31191 0.56995 0.47598 0.0
C1222 C 0.30871 0.472 0.48792 0.0
C1223 C 0.31133 0.51952 0.49743 0.0
C1224 C 0.30883 0.44689 0.49873 0.0
C1225 C 0.31175 0.44217 0.52951 0.0
C1226 C 0.3113 0.49258 0.50802 0.0
C1227 C 0.31455 0.46334 0.54875 0.0
C1228 C 0.30853 0.54009 0.51752 0.0
C1229 C 0.31492 0.54879 0.45674 0.0
N1230 N 0.31415 0.48751 0.53772 0.0
N1231 N 0.31445 0.5246 0.46775 0.0
H1232 H 0.60131 0.15835 0.13318 0.0
H1233 H 0.45286 0.09028 0.08147 0.0
H1234 H 0.60089 0.10398 0.06077 0.0
H1235 H 0.45215 0.17049 0.10316 0.0
H1236 H 0.50738 0.09083 0.08258 0.0
H1237 H 0.54638 0.15884 0.13202 0.0
C1238 C 0.58963 0.14623 0.11745 0.0
C1239 C 0.6055 0.13096 0.09718 0.0
C1240 C 0.49529 0.10834 0.08691 0.0
C1241 C 0.54324 0.13137 0.09582 0.0
C1242 C 0.46427 0.10806 0.08621 0.0
C1243 C 0.44811 0.13047 0.09182 0.0
C1244 C 0.5103 0.13098 0.09424 0.0
C1245 C 0.4639 0.15295 0.09821 0.0
C1246 C 0.55845 0.14675 0.11656 0.0
C1247 C 0.58942 0.11595 0.07682 0.0
N1248 N 0.49422 0.1526 0.09962 0.0
N1249 N 0.5592 0.11634 0.07683 0.0
H1250 H 0.89965 0.88492 0.63324 0.0
H1251 H 0.055 0.84974 0.55709 0.0
H1252 H 0.90831 0.86416 0.5401 0.0
H1253 H 0.04899 0.90449 0.62914 0.0
H1254 H 1.00059 0.84808 0.55536 0.0
H1255 H 0.95429 0.88569 0.63705 0.0
C1256 C 0.91288 0.88032 0.61372 0.0
C1257 C 0.89916 0.87419 0.58641 0.0
C1258 C 0.01129 0.86035 0.57163 0.0
C1259 C 0.96145 0.87475 0.59075 0.0
C1260 C 0.04235 0.86129 0.57267 0.0
C1261 C 0.05678 0.87712 0.59346 0.0
C1262 C 0.99444 0.87501 0.5918 0.0
C1263 C 0.03901 0.89176 0.61297 0.0
C1264 C 0.94402 0.88085 0.61589 0.0
C1265 C 0.91761 0.86863 0.56177 0.0
N1266 N 0.00882 0.89022 0.6118 0.0
N1267 N 0.94765 0.86886 0.5646 0.0
H1268 H 0.45361 0.85292 0.9623 0.0
H1269 H 0.60471 0.89259 0.88028 0.0
H1270 H 0.45625 0.90872 0.89117 0.0
H1271 H 0.60172 0.86625 0.97181 0.0
H1272 H 0.55006 0.89293 0.87963 0.0
H1273 H 0.50813 0.85192 0.96207 0.0
C1274 C 0.46554 0.86487 0.94656 0.0
C1275 C 0.45012 0.88074 0.92654 0.0
C1276 C 0.56152 0.88699 0.89976 0.0
C1277 C 0.51254 0.87942 0.92595 0.0
C1278 C 0.59269 0.88669 0.90012 0.0
C1279 C 0.60802 0.87914 0.92603 0.0
C1280 C 0.54557 0.87931 0.9253 0.0
C1281 C 0.59109 0.87192 0.95116 0.0
C1282 C 0.49666 0.86431 0.94647 0.0
C1283 C 0.46697 0.89591 0.90677 0.0
N1284 N 0.5609 0.87203 0.95009 0.0
N1285 N 0.49718 0.89473 0.90683 0.0
H1286 H 0.05642 0.15691 0.46254 0.0
H1287 H 0.90138 0.12531 0.38388 0.0
H1288 H 0.05031 0.10235 0.39031 0.0
H1289 H 0.9094 0.14527 0.47731 0.0
H1290 H 0.95607 0.12334 0.38077 0.0
H1291 H 1.00209 0.15968 0.46328 0.0
C1292 C 0.04377 0.14562 0.44672 0.0
C1293 C 0.05816 0.12952 0.42618 0.0
C1294 C 0.94563 0.12827 0.40183 0.0
C1295 C 0.99588 0.1329 0.42669 0.0
C1296 C 0.91448 0.12949 0.40361 0.0
C1297 C 0.90057 0.13576 0.4308 0.0
C1298 C 0.96289 0.13383 0.42726 0.0
C1299 C 0.91884 0.14074 0.45571 0.0
C1300 C 0.01274 0.1472 0.44719 0.0
C1301 C 0.04037 0.11526 0.40632 0.0
N1302 N 0.94889 0.13986 0.45327 0.0
N1303 N 0.0102 0.11741 0.40693 0.0
H1304 H 0.10695 0.61953 0.13195 0.0
H1305 H 0.95744 0.65732 0.0463 0.0
H1306 H 0.10496 0.64052 0.03852 0.0
H1307 H 0.9579 0.60395 0.11999 0.0
H1308 H 0.01195 0.65751 0.04721 0.0
H1309 H 0.05222 0.61974 0.13222 0.0
C1310 C 0.09515 0.62437 0.11161 0.0
C1311 C 0.11079 0.6303 0.08529 0.0
C1312 C 1.00001 0.64585 0.06322 0.0
C1313 C 0.04832 0.63083 0.08557 0.0
C1314 C 0.96889 0.64575 0.06275 0.0
C1315 C 0.95286 0.63079 0.08327 0.0
C1316 C 0.01529 0.63121 0.08463 0.0
C1317 C 0.96912 0.61606 0.10395 0.0
C1318 C 0.06395 0.6244 0.11176 0.0
C1319 C 0.09413 0.63618 0.05951 0.0
N1320 N 0.99936 0.61679 0.10425 0.0
N1321 N 0.06395 0.63648 0.06038 0.0
H1322 H 0.55703 0.35186 0.55292 0.0
H1323 H 0.4008 0.38581 0.62821 0.0
H1324 H 0.54947 0.40741 0.62397 0.0
H1325 H 0.40984 0.36406 0.53542 0.0
H1326 H 0.45541 0.38707 0.63209 0.0
H1327 H 0.50263 0.3492 0.5511 0.0
C1328 C 0.54405 0.36336 0.56826 0.0
C1329 C 0.55804 0.37972 0.5888 0.0
C1330 C 0.44523 0.38188 0.611 0.0
C1331 C 0.49576 0.37647 0.58706 0.0
C1332 C 0.41412 0.38108 0.60878 0.0
C1333 C 0.40051 0.37457 0.58154 0.0
C1334 C 0.46278 0.37568 0.58597 0.0
C1335 C 0.41906 0.36884 0.55703 0.0
C1336 C 0.51301 0.36185 0.56718 0.0
C1337 C 0.53986 0.39428 0.60801 0.0
N1338 N 0.4491 0.36936 0.5599 0.0
N1339 N 0.50973 0.39218 0.60681 0.0
H1340 H 0.10149 0.362 0.97056 0.0
H1341 H 0.95325 0.40751 0.89152 0.0
H1342 H 0.09963 0.3869 0.87846 0.0
H1343 H 0.95159 0.35005 0.96087 0.0
H1344 H 0.00723 0.40523 0.89072 0.0
H1345 H 0.04719 0.36226 0.97129 0.0
C1346 C 0.08978 0.36734 0.95036 0.0
C1347 C 0.10539 0.37412 0.92422 0.0
C1348 C 0.99507 0.39304 0.90602 0.0
C1349 C 0.04295 0.3751 0.92538 0.0
C1350 C 0.96411 0.39428 0.90657 0.0
C1351 C 0.94753 0.37861 0.926 0.0
C1352 C 0.00993 0.37648 0.92552 0.0
C1353 C 0.9633 0.36234 0.94534 0.0
C1354 C 0.05871 0.36749 0.9509 0.0
C1355 C 0.0887 0.38132 0.89904 0.0
N1356 N 0.99364 0.36179 0.94472 0.0
N1357 N 0.05843 0.38182 0.90033 0.0
H1358 H 0.55054 0.60363 0.38132 0.0
H1359 H 0.4092 0.64903 0.47142 0.0
H1360 H 0.55617 0.65983 0.45183 0.0
H1361 H 0.40216 0.62653 0.37871 0.0
H1362 H 0.46299 0.64839 0.46714 0.0
H1363 H 0.49641 0.60711 0.38256 0.0
C1364 C 0.54053 0.61687 0.39693 0.0
C1365 C 0.55819 0.63173 0.41627 0.0
C1366 C 0.44971 0.6438 0.44765 0.0
C1367 C 0.49593 0.6352 0.4182 0.0
C1368 C 0.41884 0.6442 0.44998 0.0
C1369 C 0.40082 0.63821 0.42521 0.0
C1370 C 0.46303 0.63673 0.42059 0.0
C1371 C 0.41504 0.63151 0.39831 0.0
C1372 C 0.50955 0.6188 0.39757 0.0
C1373 C 0.54362 0.64812 0.43638 0.0
N1374 N 0.44535 0.63073 0.39678 0.0
N1375 N 0.51337 0.64925 0.43698 0.0
H1376 H 0.27265 0.14882 0.18901 0.0
H1377 H 0.21158 0.07026 0.32614 0.0
H1378 H 0.30438 0.07194 0.20254 0.0
H1379 H 0.23867 0.14885 0.33586 0.0
H1380 H 0.23678 0.06889 0.27718 0.0
H1381 H 0.24983 0.14775 0.23879 0.0
C1382 C 0.27439 0.13154 0.20221 0.0
C1383 C 0.29034 0.11037 0.19149 0.0
C1384 C 0.23742 0.08629 0.29028 0.0
C1385 C 0.2641 0.10907 0.24846 0.0
C1386 C 0.22316 0.08709 0.31817 0.0
C1387 C 0.22333 0.10962 0.33528 0.0
C1388 C 0.25099 0.10843 0.27898 0.0
C1389 C 0.23834 0.13097 0.32368 0.0
C1390 C 0.26162 0.13107 0.23072 0.0
C1391 C 0.29222 0.08864 0.2099 0.0
N1392 N 0.25113 0.12998 0.29608 0.0
N1393 N 0.27903 0.08845 0.23741 0.0
H1394 H 0.27035 0.85383 0.83533 0.0
H1395 H 0.20809 0.93292 0.69788 0.0
H1396 H 0.29734 0.93215 0.82274 0.0
H1397 H 0.23429 0.85408 0.68883 0.0
H1398 H 0.23205 0.93407 0.74739 0.0
H1399 H 0.2469 0.85452 0.78578 0.0
C1400 C 0.27083 0.87134 0.82244 0.0
C1401 C 0.28569 0.89302 0.83332 0.0
C1402 C 0.23273 0.91663 0.73437 0.0
C1403 C 0.25886 0.89389 0.77659 0.0
C1404 C 0.21918 0.91597 0.70614 0.0
C1405 C 0.21952 0.89346 0.689 0.0
C1406 C 0.24581 0.8944 0.74599 0.0
C1407 C 0.23388 0.87194 0.70101 0.0
C1408 C 0.25774 0.8716 0.79403 0.0
C1409 C 0.28603 0.91504 0.81528 0.0
N1410 N 0.24606 0.87284 0.72889 0.0
N1411 N 0.27265 0.91498 0.78789 0.0
H1412 H 0.69221 0.86771 0.80754 0.0
H1413 H 0.83666 0.83849 0.71435 0.0
H1414 H 0.7622 0.82069 0.84377 0.0
H1415 H 0.75215 0.85331 0.67201 0.0
H1416 H 0.81065 0.83171 0.76196 0.0
H1417 H 0.71406 0.86291 0.75771 0.0
C1418 C 0.71189 0.85598 0.8049 0.0
C1419 C 0.72533 0.84451 0.82984 0.0
C1420 C 0.7978 0.83599 0.7421 0.0
C1421 C 0.75097 0.83951 0.77291 0.0
C1422 C 0.81262 0.83985 0.7149 0.0
C1423 C 0.79665 0.8466 0.68908 0.0
C1424 C 0.76684 0.83944 0.74366 0.0
C1425 C 0.76548 0.84814 0.69123 0.0
C1426 C 0.72437 0.85326 0.77645 0.0
C1427 C 0.75096 0.82967 0.82513 0.0
N1428 N 0.7517 0.84506 0.7181 0.0
N1429 N 0.76327 0.82797 0.79731 0.0
H1430 H 0.7537 0.16256 0.34741 0.0
H1431 H 0.76289 0.19459 0.17257 0.0
H1432 H 0.83725 0.17211 0.30108 0.0
H1433 H 0.69187 0.15119 0.21289 0.0
H1434 H 0.7866 0.19835 0.22195 0.0
H1435 H 0.72741 0.17066 0.3006 0.0
C1436 C 0.76659 0.16691 0.32759 0.0
C1437 C 0.79786 0.16641 0.32824 0.0
C1438 C 0.76555 0.18843 0.21999 0.0
C1439 C 0.76764 0.17574 0.27442 0.0
C1440 C 0.75186 0.18648 0.19192 0.0
C1441 C 0.72534 0.17258 0.18866 0.0
C1442 C 0.75229 0.17682 0.245 0.0
C1443 C 0.71231 0.16207 0.21442 0.0
C1444 C 0.75149 0.17137 0.3008 0.0
C1445 C 0.81318 0.17212 0.30164 0.0
N1446 N 0.72591 0.16437 0.24145 0.0
N1447 N 0.79793 0.17641 0.27576 0.0
H1448 H 0.69986 0.57292 0.31087 0.0
H1449 H 0.80706 0.63758 0.18957 0.0
H1450 H 0.74883 0.6424 0.3273 0.0
H1451 H 0.77894 0.55892 0.18365 0.0
H1452 H 0.78157 0.64119 0.23763 0.0
H1453 H 0.72534 0.56855 0.26271 0.0
C1454 C 0.71619 0.58715 0.30453 0.0
C1455 C 0.72223 0.60805 0.32335 0.0
C1456 C 0.78084 0.62317 0.22577 0.0
C1457 C 0.75111 0.60337 0.26772 0.0
C1458 C 0.7952 0.62112 0.19809 0.0
C1459 C 0.79519 0.59788 0.18229 0.0
C1460 C 0.766 0.60193 0.23786 0.0
C1461 C 0.77956 0.57723 0.19488 0.0
C1462 C 0.73068 0.58465 0.27694 0.0
C1463 C 0.74357 0.62588 0.31374 0.0
N1464 N 0.76561 0.57974 0.22183 0.0
N1465 N 0.75701 0.62325 0.28656 0.0
H1466 H 0.75018 0.37199 0.67605 0.0
H1467 H 0.77596 0.45471 0.82477 0.0
H1468 H 0.69763 0.43855 0.6972 0.0
H1469 H 0.80687 0.3772 0.81418 0.0
H1470 H 0.75042 0.45133 0.7764 0.0
H1471 H 0.77562 0.37636 0.72421 0.0
C1472 C 0.74424 0.38773 0.69058 0.0
C1473 C 0.72166 0.40491 0.68243 0.0
C1474 C 0.76265 0.43502 0.7848 0.0
C1475 C 0.75066 0.40992 0.73791 0.0
C1476 C 0.77715 0.4369 0.81249 0.0
C1477 C 0.79353 0.41618 0.82381 0.0
C1478 C 0.76488 0.41241 0.76797 0.0
C1479 C 0.79439 0.39365 0.80664 0.0
C1480 C 0.75861 0.39008 0.71825 0.0
C1481 C 0.71483 0.4248 0.70248 0.0
N1482 N 0.78053 0.39246 0.7796 0.0
N1483 N 0.72924 0.42676 0.7292 0.0
H1484 H 0.33606 0.33863 0.70979 0.0
H1485 H 0.18785 0.36325 0.79864 0.0
H1486 H 0.2526 0.35227 0.66485 0.0
H1487 H 0.25779 0.31672 0.83586 0.0
H1488 H 0.21141 0.3598 0.74943 0.0
H1489 H 0.30863 0.33054 0.75631 0.0
C1490 C 0.31199 0.33948 0.70953 0.0
C1491 C 0.2967 0.34627 0.68332 0.0
C1492 C 0.22133 0.34995 0.76824 0.0
C1493 C 0.26525 0.33758 0.73662 0.0
C1494 C 0.20786 0.35189 0.79633 0.0
C1495 C 0.2208 0.34018 0.82138 0.0
C1496 C 0.24839 0.33676 0.76525 0.0
C1497 C 0.2469 0.32586 0.81711 0.0
C1498 C 0.29635 0.33486 0.7361 0.0
C1499 C 0.26543 0.34712 0.68441 0.0
N1500 N 0.26014 0.32494 0.78971 0.0
N1501 N 0.25083 0.3433 0.71069 0.0
H1502 H 0.25393 0.65953 0.33964 0.0
H1503 H 0.26604 0.69107 0.16478 0.0
H1504 H 0.33798 0.67228 0.29535 0.0
H1505 H 0.19564 0.64598 0.20365 0.0
H1506 H 0.28837 0.69568 0.21468 0.0
H1507 H 0.2284 0.66631 0.29208 0.0
C1508 C 0.26705 0.66432 0.32011 0.0
C1509 C 0.29828 0.66512 0.32156 0.0
C1510 C 0.26776 0.68517 0.21228 0.0
C1511 C 0.26895 0.67291 0.26689 0.0
C1512 C 0.25486 0.68272 0.18389 0.0
C1513 C 0.22892 0.66812 0.18006 0.0
C1514 C 0.25432 0.67334 0.23705 0.0
C1515 C 0.21566 0.65737 0.20558 0.0
C1516 C 0.2524 0.668 0.29289 0.0
C1517 C 0.31393 0.67131 0.29529 0.0
N1518 N 0.22851 0.66015 0.23293 0.0
N1519 N 0.29913 0.67482 0.26901 0.0
loop_
_geom_bond_atom_site_label_1
_geom_bond_atom_site_label_2
_geom_bond_distance
_geom_bond_site_symmetry_2
_ccdc_geom_bond_type
Co0 O2 2.143 . S
Co0 O8 2.074 . S
Co0 O11 2.093 . S
Co0 O24 2.097 . S
Co0 N41 2.151 . S
Co0 N49 2.214 . S
Co1 O2 2.160 . S
Co1 O7 2.058 . S
Co1 O17 2.057 . S
Co1 O32 2.037 . S
Co1 N36 2.145 . S
Co1 N57 2.257 . S
O2 Co0 2.143 . S
O2 Co1 2.160 . S
C3 O4 1.278 . S
C3 O11 1.224 . S
O4 C3 1.278 . S
C5 O6 1.245 . S
C5 O17 1.232 . S
O6 C5 1.245 . S
O7 Co1 2.058 . S
O7 C33 1.269 . S
O8 Co0 2.074 . S
O8 C33 1.257 . S
H9 C34 0.930 . S
H10 C40 0.930 . S
O11 Co0 2.093 . S
O11 C3 1.224 . S
H12 C44 0.929 1_556 S
H13 C46 0.930 . S
H14 C47 0.910 1_554 S
H15 C45 0.929 . S
H16 C48 0.928 . S
O17 Co1 2.057 . S
O17 C5 1.232 . S
H18 C37 0.929 . S
H19 C38 0.929 . S
H20 C50 0.931 . S
H21 C42 0.929 . S
H22 C51 0.930 . S
H23 C43 0.931 1_556 S
O24 Co0 2.097 . S
O24 C52 1.214 . S
H25 C53 0.929 . S
H26 C54 0.929 . S
H27 C55 0.930 . S
H28 C56 0.929 . S
H29 C58 0.930 . S
H30 C35 0.930 . S
H31 C39 0.930 . S
O32 Co1 2.037 . S
O32 C52 1.234 . S
C33 O7 1.269 . S
C33 O8 1.257 . S
C34 H9 0.930 . S
C34 C37 1.388 . S
C34 C39 1.418 . S
C35 H30 0.930 . S
C35 C38 1.404 . S
C35 C39 1.353 . S
N36 Co1 2.145 . S
N36 C37 1.397 . S
N36 C38 1.334 . S
C37 H18 0.929 . S
C37 C34 1.388 . S
C37 N36 1.397 . S
C38 H19 0.929 . S
C38 C35 1.404 . S
C38 N36 1.334 . S
C39 H31 0.930 . S
C39 C34 1.418 . S
C39 C35 1.353 . S
C40 H10 0.930 . S
C40 N41 1.330 . S
C40 C42 1.446 . S
N41 Co0 2.151 . S
N41 C40 1.330 . S
N41 C45 1.418 . S
C42 H21 0.929 . S
C42 C40 1.446 . S
C42 C43 1.332 . S
C43 H23 0.931 1_554 S
C43 C42 1.332 . S
C43 C44 1.267 . S
C44 H12 0.929 1_554 S
C44 C43 1.267 . S
C44 C45 1.251 . S
C45 H15 0.929 . S
C45 N41 1.418 . S
C45 C44 1.251 . S
C46 H13 0.930 . S
C46 C48 1.406 . S
C46 C51 1.261 . S
C47 H14 0.910 1_556 S
C47 N49 1.321 1_556 S
C47 C50 1.379 . S
C48 H16 0.928 . S
C48 C46 1.406 . S
C48 N49 1.261 1_556 S
N49 Co0 2.214 . S
N49 C47 1.321 1_554 S
N49 C48 1.261 1_554 S
C50 H20 0.931 . S
C50 C47 1.379 . S
C50 C51 1.312 . S
C51 H22 0.930 . S
C51 C46 1.261 . S
C51 C50 1.312 . S
C52 O24 1.214 . S
C52 O32 1.234 . S
C53 H25 0.929 . S
C53 C56 1.391 . S
C53 C58 1.391 . S
C54 H26 0.929 . S
C54 C55 1.390 . S
C54 N57 1.391 . S
C55 H27 0.930 . S
C55 C54 1.390 . S
C55 C56 1.392 . S
C56 H28 0.929 . S
C56 C53 1.391 . S
C56 C55 1.392 . S
N57 Co1 2.257 . S
N57 C54 1.391 . S
N57 C58 1.388 . S
C58 H29 0.930 . S
C58 C53 1.391 . S
C58 N57 1.388 . S
Co59 O61 2.143 . S
Co59 O67 2.074 . S
Co59 O70 2.093 . S
Co59 O83 2.097 . S
Co59 N100 2.151 . S
Co59 N108 2.214 . S
Co60 O61 2.160 . S
Co60 O66 2.058 . S
Co60 O76 2.057 . S
Co60 O91 2.037 . S
Co60 N95 2.145 . S
Co60 N116 2.257 . S
O61 Co59 2.143 . S
O61 Co60 2.160 . S
C62 O63 1.278 . S
C62 O70 1.224 . S
O63 C62 1.278 . S
C64 O65 1.245 . S
C64 O76 1.232 . S
O65 C64 1.245 . S
O66 Co60 2.058 . S
O66 C92 1.269 . S
O67 Co59 2.074 . S
O67 C92 1.257 . S
H68 C93 0.930 . S
H69 C99 0.930 . S
O70 Co59 2.093 . S
O70 C62 1.224 . S
H71 C103 0.929 . S
H72 C105 0.930 . S
H73 C106 0.930 . S
H74 C104 0.929 . S
H75 C107 0.928 . S
O76 Co60 2.057 . S
O76 C64 1.232 . S
H77 C96 0.929 . S
H78 C97 0.929 . S
H79 C109 0.931 . S
H80 C101 0.929 . S
H81 C110 0.930 . S
H82 C102 0.931 . S
O83 Co59 2.097 . S
O83 C111 1.214 . S
H84 C112 0.929 . S
H85 C113 0.929 . S
H86 C114 0.930 . S
H87 C115 0.929 . S
H88 C117 0.930 . S
H89 C94 0.930 . S
H90 C98 0.930 . S
O91 Co60 2.037 . S
O91 C111 1.234 . S
C92 O66 1.269 . S
C92 O67 1.257 . S
C93 H68 0.930 . S
C93 C96 1.388 . S
C93 C98 1.418 . S
C94 H89 0.930 . S
C94 C97 1.404 . S
C94 C98 1.353 . S
N95 Co60 2.145 . S
N95 C96 1.397 . S
N95 C97 1.334 . S
C96 H77 0.929 . S
C96 C93 1.388 . S
C96 N95 1.397 . S
C97 H78 0.929 . S
C97 C94 1.404 . S
C97 N95 1.334 . S
C98 H90 0.930 . S
C98 C93 1.418 . S
C98 C94 1.353 . S
C99 H69 0.930 . S
C99 N100 1.330 . S
C99 C101 1.446 . S
N100 Co59 2.151 . S
N100 C99 1.330 . S
N100 C104 1.418 . S
C101 H80 0.929 . S
C101 C99 1.446 . S
C101 C102 1.332 . S
C102 H82 0.931 . S
C102 C101 1.332 . S
C102 C103 1.267 . S
C103 H71 0.929 . S
C103 C102 1.267 . S
C103 C104 1.251 . S
C104 H74 0.929 . S
C104 N100 1.418 . S
C104 C103 1.251 . S
C105 H72 0.930 . S
C105 C107 1.406 . S
C105 C110 1.261 . S
C106 H73 0.930 . S
C106 N108 1.325 . S
C106 C109 1.357 . S
C107 H75 0.928 . S
C107 C105 1.406 . S
C107 N108 1.261 . S
N108 Co59 2.214 . S
N108 C106 1.325 . S
N108 C107 1.261 . S
C109 H79 0.931 . S
C109 C106 1.357 . S
C109 C110 1.312 . S
C110 H81 0.930 . S
C110 C105 1.261 . S
C110 C109 1.312 . S
C111 O83 1.214 . S
C111 O91 1.234 . S
C112 H84 0.929 . S
C112 C115 1.391 . S
C112 C117 1.391 . S
C113 H85 0.929 . S
C113 C114 1.390 . S
C113 N116 1.391 . S
C114 H86 0.930 . S
C114 C113 1.390 . S
C114 C115 1.392 . S
C115 H87 0.929 . S
C115 C112 1.391 . S
C115 C114 1.392 . S
N116 Co60 2.257 . S
N116 C113 1.391 . S
N116 C117 1.388 . S
C117 H88 0.930 . S
C117 C112 1.391 . S
C117 N116 1.388 . S
Co118 O120 2.143 . S
Co118 O126 2.074 . S
Co118 O129 2.093 . S
Co118 O142 2.097 . S
Co118 N159 2.151 . S
Co118 N167 2.214 . S
Co119 O120 2.160 . S
Co119 O125 2.058 . S
Co119 O135 2.057 . S
Co119 O150 2.037 . S
Co119 N154 2.145 . S
Co119 N175 2.257 . S
O120 Co118 2.143 . S
O120 Co119 2.160 . S
C121 O122 1.278 . S
C121 O129 1.224 . S
O122 C121 1.278 . S
C123 O124 1.245 . S
C123 O135 1.232 . S
O124 C123 1.245 . S
O125 Co119 2.058 . S
O125 C151 1.269 . S
O126 Co118 2.074 . S
O126 C151 1.257 . S
H127 C152 0.930 . S
H128 C158 0.930 . S
O129 Co118 2.093 . S
O129 C121 1.224 . S
H130 C162 0.929 1_554 S
H131 C164 0.930 . S
H132 C165 0.910 1_556 S
H133 C163 0.929 . S
H134 C166 0.928 . S
O135 Co119 2.057 . S
O135 C123 1.232 . S
H136 C155 0.929 . S
H137 C156 0.929 . S
H138 C168 0.931 . S
H139 C160 0.929 . S
H140 C169 0.930 . S
H141 C161 0.931 1_554 S
O142 Co118 2.097 . S
O142 C170 1.214 . S
H143 C171 0.929 . S
H144 C172 0.929 . S
H145 C173 0.930 . S
H146 C174 0.929 . S
H147 C176 0.930 . S
H148 C153 0.930 . S
H149 C157 0.930 . S
O150 Co119 2.037 . S
O150 C170 1.234 . S
C151 O125 1.269 . S
C151 O126 1.257 . S
C152 H127 0.930 . S
C152 C155 1.388 . S
C152 C157 1.418 . S
C153 H148 0.930 . S
C153 C156 1.404 . S
C153 C157 1.353 . S
N154 Co119 2.145 . S
N154 C155 1.397 . S
N154 C156 1.334 . S
C155 H136 0.929 . S
C155 C152 1.388 . S
C155 N154 1.397 . S
C156 H137 0.929 . S
C156 C153 1.404 . S
C156 N154 1.334 . S
C157 H149 0.930 . S
C157 C152 1.418 . S
C157 C153 1.353 . S
C158 H128 0.930 . S
C158 N159 1.330 . S
C158 C160 1.446 . S
N159 Co118 2.151 . S
N159 C158 1.330 . S
N159 C163 1.418 . S
C160 H139 0.929 . S
C160 C158 1.446 . S
C160 C161 1.332 . S
C161 H141 0.931 1_556 S
C161 C160 1.332 . S
C161 C162 1.267 . S
C162 H130 0.929 1_556 S
C162 C161 1.267 . S
C162 C163 1.251 . S
C163 H133 0.929 . S
C163 N159 1.418 . S
C163 C162 1.251 . S
C164 H131 0.930 . S
C164 C166 1.406 . S
C164 C169 1.261 . S
C165 H132 0.910 1_554 S
C165 N167 1.321 1_554 S
C165 C168 1.379 . S
C166 H134 0.928 . S
C166 C164 1.406 . S
C166 N167 1.261 1_554 S
N167 Co118 2.214 . S
N167 C165 1.321 1_556 S
N167 C166 1.261 1_556 S
C168 H138 0.931 . S
C168 C165 1.379 . S
C168 C169 1.312 . S
C169 H140 0.930 . S
C169 C164 1.261 . S
C169 C168 1.312 . S
C170 O142 1.214 . S
C170 O150 1.234 . S
C171 H143 0.929 . S
C171 C174 1.391 . S
C171 C176 1.391 . S
C172 H144 0.929 . S
C172 C173 1.390 . S
C172 N175 1.391 . S
C173 H145 0.930 . S
C173 C172 1.390 . S
C173 C174 1.392 . S
C174 H146 0.929 . S
C174 C171 1.391 . S
C174 C173 1.392 . S
N175 Co119 2.257 . S
N175 C172 1.391 . S
N175 C176 1.388 . S
C176 H147 0.930 . S
C176 C171 1.391 . S
C176 N175 1.388 . S
Co177 O179 2.143 . S
Co177 O185 2.074 . S
Co177 O188 2.093 . S
Co177 O201 2.097 . S
Co177 N218 2.151 . S
Co177 N226 2.214 . S
Co178 O179 2.160 . S
Co178 O184 2.058 . S
Co178 O194 2.057 . S
Co178 O209 2.037 . S
Co178 N213 2.145 . S
Co178 N234 2.257 . S
O179 Co177 2.143 . S
O179 Co178 2.160 . S
C180 O181 1.278 . S
C180 O188 1.224 . S
O181 C180 1.278 . S
C182 O183 1.245 . S
C182 O194 1.232 . S
O183 C182 1.245 . S
O184 Co178 2.058 . S
O184 C210 1.269 . S
O185 Co177 2.074 . S
O185 C210 1.257 . S
H186 C211 0.930 . S
H187 C217 0.930 . S
O188 Co177 2.093 . S
O188 C180 1.224 . S
H189 C221 0.929 . S
H190 C223 0.930 . S
H191 C224 0.930 . S
H192 C222 0.929 . S
H193 C225 0.928 . S
O194 Co178 2.057 . S
O194 C182 1.232 . S
H195 C214 0.929 . S
H196 C215 0.929 . S
H197 C227 0.931 . S
H198 C219 0.929 . S
H199 C228 0.930 . S
H200 C220 0.931 . S
O201 Co177 2.097 . S
O201 C229 1.214 . S
H202 C230 0.929 . S
H203 C231 0.929 . S
H204 C232 0.930 . S
H205 C233 0.929 . S
H206 C235 0.930 . S
H207 C212 0.930 . S
H208 C216 0.930 . S
O209 Co178 2.037 . S
O209 C229 1.234 . S
C210 O184 1.269 . S
C210 O185 1.257 . S
C211 H186 0.930 . S
C211 C214 1.388 . S
C211 C216 1.418 . S
C212 H207 0.930 . S
C212 C215 1.404 . S
C212 C216 1.353 . S
N213 Co178 2.145 . S
N213 C214 1.397 . S
N213 C215 1.334 . S
C214 H195 0.929 . S
C214 C211 1.388 . S
C214 N213 1.397 . S
C215 H196 0.929 . S
C215 C212 1.404 . S
C215 N213 1.334 . S
C216 H208 0.930 . S
C216 C211 1.418 . S
C216 C212 1.353 . S
C217 H187 0.930 . S
C217 N218 1.330 . S
C217 C219 1.446 . S
N218 Co177 2.151 . S
N218 C217 1.330 . S
N218 C222 1.418 . S
C219 H198 0.929 . S
C219 C217 1.446 . S
C219 C220 1.332 . S
C220 H200 0.931 . S
C220 C219 1.332 . S
C220 C221 1.267 . S
C221 H189 0.929 . S
C221 C220 1.267 . S
C221 C222 1.251 . S
C222 H192 0.929 . S
C222 N218 1.418 . S
C222 C221 1.251 . S
C223 H190 0.930 . S
C223 C225 1.406 . S
C223 C228 1.261 . S
C224 H191 0.930 . S
C224 N226 1.325 . S
C224 C227 1.357 . S
C225 H193 0.928 . S
C225 C223 1.406 . S
C225 N226 1.261 . S
N226 Co177 2.214 . S
N226 C224 1.325 . S
N226 C225 1.261 . S
C227 H197 0.931 . S
C227 C224 1.357 . S
C227 C228 1.312 . S
C228 H199 0.930 . S
C228 C223 1.261 . S
C228 C227 1.312 . S
C229 O201 1.214 . S
C229 O209 1.234 . S
C230 H202 0.929 . S
C230 C233 1.391 . S
C230 C235 1.391 . S
C231 H203 0.929 . S
C231 C232 1.390 . S
C231 N234 1.391 . S
C232 H204 0.930 . S
C232 C231 1.390 . S
C232 C233 1.392 . S
C233 H205 0.929 . S
C233 C230 1.391 . S
C233 C232 1.392 . S
N234 Co178 2.257 . S
N234 C231 1.391 . S
N234 C235 1.388 . S
C235 H206 0.930 . S
C235 C230 1.391 . S
C235 N234 1.388 . S
Co236 O238 2.143 . S
Co236 O244 2.074 . S
Co236 O247 2.093 . S
Co236 O260 2.097 . S
Co236 N277 2.151 . S
Co236 N285 2.214 . S
Co237 O238 2.160 . S
Co237 O243 2.058 . S
Co237 O253 2.057 . S
Co237 O268 2.037 . S
Co237 N272 2.145 . S
Co237 N293 2.257 . S
O238 Co236 2.143 . S
O238 Co237 2.160 . S
C239 O240 1.278 . S
C239 O247 1.224 . S
O240 C239 1.278 . S
C241 O242 1.245 . S
C241 O253 1.232 . S
O242 C241 1.245 . S
O243 Co237 2.058 . S
O243 C269 1.269 . S
O244 Co236 2.074 . S
O244 C269 1.257 . S
H245 C270 0.930 . S
H246 C276 0.930 . S
O247 Co236 2.093 . S
O247 C239 1.224 . S
H248 C280 0.929 . S
H249 C282 0.930 . S
H250 C283 0.930 . S
H251 C281 0.929 . S
H252 C284 0.928 . S
O253 Co237 2.057 . S
O253 C241 1.232 . S
H254 C273 0.929 . S
H255 C274 0.929 . S
H256 C286 0.931 . S
H257 C278 0.929 . S
H258 C287 0.930 . S
H259 C279 0.931 . S
O260 Co236 2.097 . S
O260 C288 1.214 . S
H261 C289 0.929 . S
H262 C290 0.929 . S
H263 C291 0.930 . S
H264 C292 0.929 . S
H265 C294 0.930 . S
H266 C271 0.930 . S
H267 C275 0.930 . S
O268 Co237 2.037 . S
O268 C288 1.234 . S
C269 O243 1.269 . S
C269 O244 1.257 . S
C270 H245 0.930 . S
C270 C273 1.388 1_554 S
C270 C275 1.418 . S
C271 H266 0.930 . S
C271 C274 1.404 . S
C271 C275 1.353 . S
N272 Co237 2.145 . S
N272 C273 1.397 . S
N272 C274 1.334 1_556 S
C273 H254 0.929 . S
C273 C270 1.388 1_556 S
C273 N272 1.397 . S
C274 H255 0.929 . S
C274 C271 1.404 . S
C274 N272 1.334 1_554 S
C275 H267 0.930 . S
C275 C270 1.418 . S
C275 C271 1.353 . S
C276 H246 0.930 . S
C276 N277 1.330 . S
C276 C278 1.446 . S
N277 Co236 2.151 . S
N277 C276 1.330 . S
N277 C281 1.418 . S
C278 H257 0.929 . S
C278 C276 1.446 . S
C278 C279 1.332 . S
C279 H259 0.931 . S
C279 C278 1.332 . S
C279 C280 1.267 . S
C280 H248 0.929 . S
C280 C279 1.267 . S
C280 C281 1.251 . S
C281 H251 0.929 . S
C281 N277 1.418 . S
C281 C280 1.251 . S
C282 H249 0.930 . S
C282 C284 1.406 . S
C282 C287 1.261 . S
C283 H250 0.930 . S
C283 N285 1.325 . S
C283 C286 1.357 . S
C284 H252 0.928 . S
C284 C282 1.406 . S
C284 N285 1.261 . S
N285 Co236 2.214 . S
N285 C283 1.325 . S
N285 C284 1.261 . S
C286 H256 0.931 . S
C286 C283 1.357 . S
C286 C287 1.312 . S
C287 H258 0.930 . S
C287 C282 1.261 . S
C287 C286 1.312 . S
C288 O260 1.214 . S
C288 O268 1.234 . S
C289 H261 0.929 . S
C289 C292 1.391 . S
C289 C294 1.391 . S
C290 H262 0.929 . S
C290 C291 1.390 . S
C290 N293 1.391 . S
C291 H263 0.930 . S
C291 C290 1.390 . S
C291 C292 1.392 . S
C292 H264 0.929 . S
C292 C289 1.391 . S
C292 C291 1.392 . S
N293 Co237 2.257 . S
N293 C290 1.391 . S
N293 C294 1.388 . S
C294 H265 0.930 . S
C294 C289 1.391 . S
C294 N293 1.388 . S
Co295 O297 2.143 . S
Co295 O303 2.074 . S
Co295 O306 2.093 . S
Co295 O319 2.097 . S
Co295 N336 2.151 . S
Co295 N344 2.214 . S
Co296 O297 2.160 . S
Co296 O302 2.058 . S
Co296 O312 2.057 . S
Co296 O327 2.037 . S
Co296 N331 2.145 . S
Co296 N352 2.257 . S
O297 Co295 2.143 . S
O297 Co296 2.160 . S
C298 O299 1.278 . S
C298 O306 1.224 . S
O299 C298 1.278 . S
C300 O301 1.245 . S
C300 O312 1.232 . S
O301 C300 1.245 . S
O302 Co296 2.058 . S
O302 C328 1.269 . S
O303 Co295 2.074 . S
O303 C328 1.257 . S
H304 C329 0.930 . S
H305 C335 0.930 . S
O306 Co295 2.093 . S
O306 C298 1.224 . S
H307 C339 0.929 . S
H308 C341 0.930 . S
H309 C342 0.930 . S
H310 C340 0.929 . S
H311 C343 0.928 . S
O312 Co296 2.057 . S
O312 C300 1.232 . S
H313 C332 0.929 . S
H314 C333 0.929 . S
H315 C345 0.931 . S
H316 C337 0.929 . S
H317 C346 0.930 . S
H318 C338 0.931 . S
O319 Co295 2.097 . S
O319 C347 1.214 . S
H320 C348 0.929 . S
H321 C349 0.929 . S
H322 C350 0.930 . S
H323 C351 0.929 . S
H324 C353 0.930 . S
H325 C330 0.930 . S
H326 C334 0.930 . S
O327 Co296 2.037 . S
O327 C347 1.234 . S
C328 O302 1.269 . S
C328 O303 1.257 . S
C329 H304 0.930 . S
C329 C332 1.388 . S
C329 C334 1.418 . S
C330 H325 0.930 . S
C330 C333 1.404 . S
C330 C334 1.353 . S
N331 Co296 2.145 . S
N331 C332 1.397 . S
N331 C333 1.334 . S
C332 H313 0.929 . S
C332 C329 1.388 . S
C332 N331 1.397 . S
C333 H314 0.929 . S
C333 C330 1.404 . S
C333 N331 1.334 . S
C334 H326 0.930 . S
C334 C329 1.418 . S
C334 C330 1.353 . S
C335 H305 0.930 . S
C335 N336 1.330 . S
C335 C337 1.446 . S
N336 Co295 2.151 . S
N336 C335 1.330 . S
N336 C340 1.418 . S
C337 H316 0.929 . S
C337 C335 1.446 . S
C337 C338 1.332 . S
C338 H318 0.931 . S
C338 C337 1.332 . S
C338 C339 1.267 . S
C339 H307 0.929 . S
C339 C338 1.267 . S
C339 C340 1.251 . S
C340 H310 0.929 . S
C340 N336 1.418 . S
C340 C339 1.251 . S
C341 H308 0.930 . S
C341 C343 1.406 . S
C341 C346 1.261 . S
C342 H309 0.930 . S
C342 N344 1.325 . S
C342 C345 1.357 . S
C343 H311 0.928 . S
C343 C341 1.406 . S
C343 N344 1.261 . S
N344 Co295 2.214 . S
N344 C342 1.325 . S
N344 C343 1.261 . S
C345 H315 0.931 . S
C345 C342 1.357 . S
C345 C346 1.312 . S
C346 H317 0.930 . S
C346 C341 1.261 . S
C346 C345 1.312 . S
C347 O319 1.214 . S
C347 O327 1.234 . S
C348 H320 0.929 . S
C348 C351 1.391 . S
C348 C353 1.391 . S
C349 H321 0.929 . S
C349 C350 1.390 . S
C349 N352 1.391 . S
C350 H322 0.930 . S
C350 C349 1.390 . S
C350 C351 1.392 . S
C351 H323 0.929 . S
C351 C348 1.391 . S
C351 C350 1.392 . S
N352 Co296 2.257 . S
N352 C349 1.391 . S
N352 C353 1.388 . S
C353 H324 0.930 . S
C353 C348 1.391 . S
C353 N352 1.388 . S
Co354 O356 2.143 . S
Co354 O362 2.074 . S
Co354 O365 2.093 . S
Co354 O378 2.097 . S
Co354 N395 2.151 . S
Co354 N403 2.214 . S
Co355 O356 2.160 . S
Co355 O361 2.058 . S
Co355 O371 2.057 . S
Co355 O386 2.037 . S
Co355 N390 2.145 . S
Co355 N411 2.257 . S
O356 Co354 2.143 . S
O356 Co355 2.160 . S
C357 O358 1.278 . S
C357 O365 1.224 . S
O358 C357 1.278 . S
C359 O360 1.245 . S
C359 O371 1.232 . S
O360 C359 1.245 . S
O361 Co355 2.058 . S
O361 C387 1.269 . S
O362 Co354 2.074 . S
O362 C387 1.257 . S
H363 C388 0.930 . S
H364 C394 0.930 . S
O365 Co354 2.093 . S
O365 C357 1.224 . S
H366 C398 0.929 . S
H367 C400 0.930 . S
H368 C401 0.930 . S
H369 C399 0.929 . S
H370 C402 0.928 . S
O371 Co355 2.057 . S
O371 C359 1.232 . S
H372 C391 0.929 . S
H373 C392 0.929 . S
H374 C404 0.931 . S
H375 C396 0.929 . S
H376 C405 0.930 . S
H377 C397 0.931 . S
O378 Co354 2.097 . S
O378 C406 1.214 . S
H379 C407 0.929 . S
H380 C408 0.929 . S
H381 C409 0.930 . S
H382 C410 0.929 . S
H383 C412 0.930 . S
H384 C389 0.930 . S
H385 C393 0.930 . S
O386 Co355 2.037 . S
O386 C406 1.234 . S
C387 O361 1.269 . S
C387 O362 1.257 . S
C388 H363 0.930 . S
C388 C391 1.388 1_556 S
C388 C393 1.418 . S
C389 H384 0.930 . S
C389 C392 1.404 . S
C389 C393 1.353 . S
N390 Co355 2.145 . S
N390 C391 1.397 . S
N390 C392 1.334 1_554 S
C391 H372 0.929 . S
C391 C388 1.388 1_554 S
C391 N390 1.397 . S
C392 H373 0.929 . S
C392 C389 1.404 . S
C392 N390 1.334 1_556 S
C393 H385 0.930 . S
C393 C388 1.418 . S
C393 C389 1.353 . S
C394 H364 0.930 . S
C394 N395 1.330 . S
C394 C396 1.446 . S
N395 Co354 2.151 . S
N395 C394 1.330 . S
N395 C399 1.418 . S
C396 H375 0.929 . S
C396 C394 1.446 . S
C396 C397 1.332 . S
C397 H377 0.931 . S
C397 C396 1.332 . S
C397 C398 1.267 . S
C398 H366 0.929 . S
C398 C397 1.267 . S
C398 C399 1.251 . S
C399 H369 0.929 . S
C399 N395 1.418 . S
C399 C398 1.251 . S
C400 H367 0.930 . S
C400 C402 1.406 . S
C400 C405 1.261 . S
C401 H368 0.930 . S
C401 N403 1.325 . S
C401 C404 1.357 . S
C402 H370 0.928 . S
C402 C400 1.406 . S
C402 N403 1.261 . S
N403 Co354 2.214 . S
N403 C401 1.325 . S
N403 C402 1.261 . S
C404 H374 0.931 . S
C404 C401 1.357 . S
C404 C405 1.312 . S
C405 H376 0.930 . S
C405 C400 1.261 . S
C405 C404 1.312 . S
C406 O378 1.214 . S
C406 O386 1.234 . S
C407 H379 0.929 . S
C407 C410 1.391 . S
C407 C412 1.391 . S
C408 H380 0.929 . S
C408 C409 1.390 . S
C408 N411 1.391 . S
C409 H381 0.930 . S
C409 C408 1.390 . S
C409 C410 1.392 . S
C410 H382 0.929 . S
C410 C407 1.391 . S
C410 C409 1.392 . S
N411 Co355 2.257 . S
N411 C408 1.391 . S
N411 C412 1.388 . S
C412 H383 0.930 . S
C412 C407 1.391 . S
C412 N411 1.388 . S
Co413 O415 2.143 . S
Co413 O421 2.074 . S
Co413 O424 2.093 . S
Co413 O437 2.097 . S
Co413 N454 2.151 . S
Co413 N462 2.214 . S
Co414 O415 2.160 . S
Co414 O420 2.058 . S
Co414 O430 2.057 . S
Co414 O445 2.037 . S
Co414 N449 2.145 . S
Co414 N470 2.257 . S
O415 Co413 2.143 . S
O415 Co414 2.160 . S
C416 O417 1.278 . S
C416 O424 1.224 . S
O417 C416 1.278 . S
C418 O419 1.245 . S
C418 O430 1.232 . S
O419 C418 1.245 . S
O420 Co414 2.058 . S
O420 C446 1.269 . S
O421 Co413 2.074 . S
O421 C446 1.257 . S
H422 C447 0.930 . S
H423 C453 0.930 . S
O424 Co413 2.093 . S
O424 C416 1.224 . S
H425 C457 0.929 . S
H426 C459 0.930 . S
H427 C460 0.930 . S
H428 C458 0.929 . S
H429 C461 0.928 . S
O430 Co414 2.057 . S
O430 C418 1.232 . S
H431 C450 0.929 . S
H432 C451 0.929 . S
H433 C463 0.931 . S
H434 C455 0.929 . S
H435 C464 0.930 . S
H436 C456 0.931 . S
O437 Co413 2.097 . S
O437 C465 1.214 . S
H438 C466 0.929 . S
H439 C467 0.929 . S
H440 C468 0.930 . S
H441 C469 0.929 . S
H442 C471 0.930 . S
H443 C448 0.930 . S
H444 C452 0.930 . S
O445 Co414 2.037 . S
O445 C465 1.234 . S
C446 O420 1.269 . S
C446 O421 1.257 . S
C447 H422 0.930 . S
C447 C450 1.388 . S
C447 C452 1.418 . S
C448 H443 0.930 . S
C448 C451 1.404 . S
C448 C452 1.353 . S
N449 Co414 2.145 . S
N449 C450 1.397 . S
N449 C451 1.334 . S
C450 H431 0.929 . S
C450 C447 1.388 . S
C450 N449 1.397 . S
C451 H432 0.929 . S
C451 C448 1.404 . S
C451 N449 1.334 . S
C452 H444 0.930 . S
C452 C447 1.418 . S
C452 C448 1.353 . S
C453 H423 0.930 . S
C453 N454 1.330 . S
C453 C455 1.446 . S
N454 Co413 2.151 . S
N454 C453 1.330 . S
N454 C458 1.418 . S
C455 H434 0.929 . S
C455 C453 1.446 . S
C455 C456 1.332 . S
C456 H436 0.931 . S
C456 C455 1.332 . S
C456 C457 1.267 . S
C457 H425 0.929 . S
C457 C456 1.267 . S
C457 C458 1.251 . S
C458 H428 0.929 . S
C458 N454 1.418 . S
C458 C457 1.251 . S
C459 H426 0.930 . S
C459 C461 1.406 . S
C459 C464 1.261 . S
C460 H427 0.930 . S
C460 N462 1.325 . S
C460 C463 1.357 . S
C461 H429 0.928 . S
C461 C459 1.406 . S
C461 N462 1.261 . S
N462 Co413 2.214 . S
N462 C460 1.325 . S
N462 C461 1.261 . S
C463 H433 0.931 . S
C463 C460 1.357 . S
C463 C464 1.312 . S
C464 H435 0.930 . S
C464 C459 1.261 . S
C464 C463 1.312 . S
C465 O437 1.214 . S
C465 O445 1.234 . S
C466 H438 0.929 . S
C466 C469 1.391 . S
C466 C471 1.391 . S
C467 H439 0.929 . S
C467 C468 1.390 . S
C467 N470 1.391 . S
C468 H440 0.930 . S
C468 C467 1.390 . S
C468 C469 1.392 . S
C469 H441 0.929 . S
C469 C466 1.391 . S
C469 C468 1.392 . S
N470 Co414 2.257 . S
N470 C467 1.391 . S
N470 C471 1.388 . S
C471 H442 0.930 . S
C471 C466 1.391 . S
C471 N470 1.388 . S
Co472 O474 2.143 . S
Co472 O480 2.074 . S
Co472 O483 2.093 . S
Co472 O496 2.097 . S
Co472 N513 2.151 . S
Co472 N521 2.214 . S
Co473 O474 2.160 . S
Co473 O479 2.058 . S
Co473 O489 2.057 . S
Co473 O504 2.037 . S
Co473 N508 2.145 . S
Co473 N529 2.257 . S
O474 Co472 2.143 . S
O474 Co473 2.160 . S
C475 O476 1.278 . S
C475 O483 1.224 . S
O476 C475 1.278 . S
C477 O478 1.245 . S
C477 O489 1.232 . S
O478 C477 1.245 . S
O479 Co473 2.058 . S
O479 C505 1.269 . S
O480 Co472 2.074 . S
O480 C505 1.257 . S
H481 C506 0.930 . S
H482 C512 0.930 . S
O483 Co472 2.093 . S
O483 C475 1.224 . S
H484 C516 0.929 1_556 S
H485 C518 0.930 . S
H486 C519 0.910 1_554 S
H487 C517 0.929 . S
H488 C520 0.928 . S
O489 Co473 2.057 . S
O489 C477 1.232 . S
H490 C509 0.929 . S
H491 C510 0.929 . S
H492 C522 0.931 . S
H493 C514 0.929 . S
H494 C523 0.930 . S
H495 C515 0.931 1_556 S
O496 Co472 2.097 . S
O496 C524 1.214 . S
H497 C525 0.929 . S
H498 C526 0.929 . S
H499 C527 0.930 . S
H500 C528 0.929 . S
H501 C530 0.930 . S
H502 C507 0.930 . S
H503 C511 0.930 . S
O504 Co473 2.037 . S
O504 C524 1.234 . S
C505 O479 1.269 . S
C505 O480 1.257 . S
C506 H481 0.930 . S
C506 C509 1.388 . S
C506 C511 1.418 . S
C507 H502 0.930 . S
C507 C510 1.404 . S
C507 C511 1.353 . S
N508 Co473 2.145 . S
N508 C509 1.397 . S
N508 C510 1.334 . S
C509 H490 0.929 . S
C509 C506 1.388 . S
C509 N508 1.397 . S
C510 H491 0.929 . S
C510 C507 1.404 . S
C510 N508 1.334 . S
C511 H503 0.930 . S
C511 C506 1.418 . S
C511 C507 1.353 . S
C512 H482 0.930 . S
C512 N513 1.330 . S
C512 C514 1.446 . S
N513 Co472 2.151 . S
N513 C512 1.330 . S
N513 C517 1.418 . S
C514 H493 0.929 . S
C514 C512 1.446 . S
C514 C515 1.332 . S
C515 H495 0.931 1_554 S
C515 C514 1.332 . S
C515 C516 1.267 . S
C516 H484 0.929 1_554 S
C516 C515 1.267 . S
C516 C517 1.251 . S
C517 H487 0.929 . S
C517 N513 1.418 . S
C517 C516 1.251 . S
C518 H485 0.930 . S
C518 C520 1.406 . S
C518 C523 1.261 . S
C519 H486 0.910 1_556 S
C519 N521 1.321 1_556 S
C519 C522 1.379 . S
C520 H488 0.928 . S
C520 C518 1.406 . S
C520 N521 1.261 1_556 S
N521 Co472 2.214 . S
N521 C519 1.321 1_554 S
N521 C520 1.261 1_554 S
C522 H492 0.931 . S
C522 C519 1.379 . S
C522 C523 1.312 . S
C523 H494 0.930 . S
C523 C518 1.261 . S
C523 C522 1.312 . S
C524 O496 1.214 . S
C524 O504 1.234 . S
C525 H497 0.929 . S
C525 C528 1.391 . S
C525 C530 1.391 . S
C526 H498 0.929 . S
C526 C527 1.390 . S
C526 N529 1.391 . S
C527 H499 0.930 . S
C527 C526 1.390 . S
C527 C528 1.392 . S
C528 H500 0.929 . S
C528 C525 1.391 . S
C528 C527 1.392 . S
N529 Co473 2.257 . S
N529 C526 1.391 . S
N529 C530 1.388 . S
C530 H501 0.930 . S
C530 C525 1.391 . S
C530 N529 1.388 . S
Co531 O533 2.143 . S
Co531 O539 2.074 . S
Co531 O542 2.093 . S
Co531 O555 2.097 . S
Co531 N572 2.151 . S
Co531 N580 2.214 . S
Co532 O533 2.160 . S
Co532 O538 2.058 . S
Co532 O548 2.057 . S
Co532 O563 2.037 . S
Co532 N567 2.145 . S
Co532 N588 2.257 . S
O533 Co531 2.143 . S
O533 Co532 2.160 . S
C534 O535 1.278 . S
C534 O542 1.224 . S
O535 C534 1.278 . S
C536 O537 1.245 . S
C536 O548 1.232 . S
O537 C536 1.245 . S
O538 Co532 2.058 . S
O538 C564 1.269 . S
O539 Co531 2.074 . S
O539 C564 1.257 . S
H540 C565 0.930 . S
H541 C571 0.930 . S
O542 Co531 2.093 . S
O542 C534 1.224 . S
H543 C575 0.929 . S
H544 C577 0.930 . S
H545 C578 0.930 . S
H546 C576 0.929 . S
H547 C579 0.928 . S
O548 Co532 2.057 . S
O548 C536 1.232 . S
H549 C568 0.929 . S
H550 C569 0.929 . S
H551 C581 0.931 . S
H552 C573 0.929 . S
H553 C582 0.930 . S
H554 C574 0.931 . S
O555 Co531 2.097 . S
O555 C583 1.214 . S
H556 C584 0.929 . S
H557 C585 0.929 . S
H558 C586 0.930 . S
H559 C587 0.929 . S
H560 C589 0.930 . S
H561 C566 0.930 . S
H562 C570 0.930 . S
O563 Co532 2.037 . S
O563 C583 1.234 . S
C564 O538 1.269 . S
C564 O539 1.257 . S
C565 H540 0.930 . S
C565 C568 1.388 . S
C565 C570 1.418 . S
C566 H561 0.930 . S
C566 C569 1.404 . S
C566 C570 1.353 . S
N567 Co532 2.145 . S
N567 C568 1.397 . S
N567 C569 1.334 . S
C568 H549 0.929 . S
C568 C565 1.388 . S
C568 N567 1.397 . S
C569 H550 0.929 . S
C569 C566 1.404 . S
C569 N567 1.334 . S
C570 H562 0.930 . S
C570 C565 1.418 . S
C570 C566 1.353 . S
C571 H541 0.930 . S
C571 N572 1.330 . S
C571 C573 1.446 . S
N572 Co531 2.151 . S
N572 C571 1.330 . S
N572 C576 1.418 . S
C573 H552 0.929 . S
C573 C571 1.446 . S
C573 C574 1.332 . S
C574 H554 0.931 . S
C574 C573 1.332 . S
C574 C575 1.267 . S
C575 H543 0.929 . S
C575 C574 1.267 . S
C575 C576 1.251 . S
C576 H546 0.929 . S
C576 N572 1.418 . S
C576 C575 1.251 . S
C577 H544 0.930 . S
C577 C579 1.406 . S
C577 C582 1.261 . S
C578 H545 0.930 . S
C578 N580 1.325 . S
C578 C581 1.357 . S
C579 H547 0.928 . S
C579 C577 1.406 . S
C579 N580 1.261 . S
N580 Co531 2.214 . S
N580 C578 1.325 . S
N580 C579 1.261 . S
C581 H551 0.931 . S
C581 C578 1.357 . S
C581 C582 1.312 . S
C582 H553 0.930 . S
C582 C577 1.261 . S
C582 C581 1.312 . S
C583 O555 1.214 . S
C583 O563 1.234 . S
C584 H556 0.929 . S
C584 C587 1.391 . S
C584 C589 1.391 . S
C585 H557 0.929 . S
C585 C586 1.390 . S
C585 N588 1.391 . S
C586 H558 0.930 . S
C586 C585 1.390 . S
C586 C587 1.392 . S
C587 H559 0.929 . S
C587 C584 1.391 . S
C587 C586 1.392 . S
N588 Co532 2.257 . S
N588 C585 1.391 . S
N588 C589 1.388 . S
C589 H560 0.930 . S
C589 C584 1.391 . S
C589 N588 1.388 . S
Co590 O592 2.143 . S
Co590 O598 2.074 . S
Co590 O601 2.093 . S
Co590 O614 2.097 . S
Co590 N631 2.151 . S
Co590 N639 2.214 . S
Co591 O592 2.160 . S
Co591 O597 2.058 . S
Co591 O607 2.057 . S
Co591 O622 2.037 . S
Co591 N626 2.145 . S
Co591 N647 2.257 . S
O592 Co590 2.143 . S
O592 Co591 2.160 . S
C593 O594 1.278 . S
C593 O601 1.224 . S
O594 C593 1.278 . S
C595 O596 1.245 . S
C595 O607 1.232 . S
O596 C595 1.245 . S
O597 Co591 2.058 . S
O597 C623 1.269 . S
O598 Co590 2.074 . S
O598 C623 1.257 . S
H599 C624 0.930 . S
H600 C630 0.930 . S
O601 Co590 2.093 . S
O601 C593 1.224 . S
H602 C634 0.929 1_554 S
H603 C636 0.930 . S
H604 C637 0.910 1_556 S
H605 C635 0.929 . S
H606 C638 0.928 . S
O607 Co591 2.057 . S
O607 C595 1.232 . S
H608 C627 0.929 . S
H609 C628 0.929 . S
H610 C640 0.931 . S
H611 C632 0.929 . S
H612 C641 0.930 . S
H613 C633 0.931 1_554 S
O614 Co590 2.097 . S
O614 C642 1.214 . S
H615 C643 0.929 . S
H616 C644 0.929 . S
H617 C645 0.930 . S
H618 C646 0.929 . S
H619 C648 0.930 . S
H620 C625 0.930 . S
H621 C629 0.930 . S
O622 Co591 2.037 . S
O622 C642 1.234 . S
C623 O597 1.269 . S
C623 O598 1.257 . S
C624 H599 0.930 . S
C624 C627 1.388 . S
C624 C629 1.418 . S
C625 H620 0.930 . S
C625 C628 1.404 . S
C625 C629 1.353 . S
N626 Co591 2.145 . S
N626 C627 1.397 . S
N626 C628 1.334 . S
C627 H608 0.929 . S
C627 C624 1.388 . S
C627 N626 1.397 . S
C628 H609 0.929 . S
C628 C625 1.404 . S
C628 N626 1.334 . S
C629 H621 0.930 . S
C629 C624 1.418 . S
C629 C625 1.353 . S
C630 H600 0.930 . S
C630 N631 1.330 . S
C630 C632 1.446 . S
N631 Co590 2.151 . S
N631 C630 1.330 . S
N631 C635 1.418 . S
C632 H611 0.929 . S
C632 C630 1.446 . S
C632 C633 1.332 . S
C633 H613 0.931 1_556 S
C633 C632 1.332 . S
C633 C634 1.267 . S
C634 H602 0.929 1_556 S
C634 C633 1.267 . S
C634 C635 1.251 . S
C635 H605 0.929 . S
C635 N631 1.418 . S
C635 C634 1.251 . S
C636 H603 0.930 . S
C636 C638 1.406 . S
C636 C641 1.261 . S
C637 H604 0.910 1_554 S
C637 N639 1.321 1_554 S
C637 C640 1.379 . S
C638 H606 0.928 . S
C638 C636 1.406 . S
C638 N639 1.261 1_554 S
N639 Co590 2.214 . S
N639 C637 1.321 1_556 S
N639 C638 1.261 1_556 S
C640 H610 0.931 . S
C640 C637 1.379 . S
C640 C641 1.312 . S
C641 H612 0.930 . S
C641 C636 1.261 . S
C641 C640 1.312 . S
C642 O614 1.214 . S
C642 O622 1.234 . S
C643 H615 0.929 . S
C643 C646 1.391 . S
C643 C648 1.391 . S
C644 H616 0.929 . S
C644 C645 1.390 . S
C644 N647 1.391 . S
C645 H617 0.930 . S
C645 C644 1.390 . S
C645 C646 1.392 . S
C646 H618 0.929 . S
C646 C643 1.391 . S
C646 C645 1.392 . S
N647 Co591 2.257 . S
N647 C644 1.391 . S
N647 C648 1.388 . S
C648 H619 0.930 . S
C648 C643 1.391 . S
C648 N647 1.388 . S
Co649 O651 2.143 . S
Co649 O657 2.074 . S
Co649 O660 2.093 . S
Co649 O673 2.097 . S
Co649 N690 2.151 . S
Co649 N698 2.214 . S
Co650 O651 2.160 . S
Co650 O656 2.058 . S
Co650 O666 2.057 . S
Co650 O681 2.037 . S
Co650 N685 2.145 . S
Co650 N706 2.257 . S
O651 Co649 2.143 . S
O651 Co650 2.160 . S
C652 O653 1.278 . S
C652 O660 1.224 . S
O653 C652 1.278 . S
C654 O655 1.245 . S
C654 O666 1.232 . S
O655 C654 1.245 . S
O656 Co650 2.058 . S
O656 C682 1.269 . S
O657 Co649 2.074 . S
O657 C682 1.257 . S
H658 C683 0.930 . S
H659 C689 0.930 . S
O660 Co649 2.093 . S
O660 C652 1.224 . S
H661 C693 0.929 . S
H662 C695 0.930 . S
H663 C696 0.930 . S
H664 C694 0.929 . S
H665 C697 0.928 . S
O666 Co650 2.057 . S
O666 C654 1.232 . S
H667 C686 0.929 . S
H668 C687 0.929 . S
H669 C699 0.931 . S
H670 C691 0.929 . S
H671 C700 0.930 . S
H672 C692 0.931 . S
O673 Co649 2.097 . S
O673 C701 1.214 . S
H674 C702 0.929 . S
H675 C703 0.929 . S
H676 C704 0.930 . S
H677 C705 0.929 . S
H678 C707 0.930 . S
H679 C684 0.930 . S
H680 C688 0.930 . S
O681 Co650 2.037 . S
O681 C701 1.234 . S
C682 O656 1.269 . S
C682 O657 1.257 . S
C683 H658 0.930 . S
C683 C686 1.388 . S
C683 C688 1.418 . S
C684 H679 0.930 . S
C684 C687 1.404 . S
C684 C688 1.353 . S
N685 Co650 2.145 . S
N685 C686 1.397 . S
N685 C687 1.334 . S
C686 H667 0.929 . S
C686 C683 1.388 . S
C686 N685 1.397 . S
C687 H668 0.929 . S
C687 C684 1.404 . S
C687 N685 1.334 . S
C688 H680 0.930 . S
C688 C683 1.418 . S
C688 C684 1.353 . S
C689 H659 0.930 . S
C689 N690 1.330 . S
C689 C691 1.446 . S
N690 Co649 2.151 . S
N690 C689 1.330 . S
N690 C694 1.418 . S
C691 H670 0.929 . S
C691 C689 1.446 . S
C691 C692 1.332 . S
C692 H672 0.931 . S
C692 C691 1.332 . S
C692 C693 1.267 . S
C693 H661 0.929 . S
C693 C692 1.267 . S
C693 C694 1.251 . S
C694 H664 0.929 . S
C694 N690 1.418 . S
C694 C693 1.251 . S
C695 H662 0.930 . S
C695 C697 1.406 . S
C695 C700 1.261 . S
C696 H663 0.930 . S
C696 N698 1.325 . S
C696 C699 1.357 . S
C697 H665 0.928 . S
C697 C695 1.406 . S
C697 N698 1.261 . S
N698 Co649 2.214 . S
N698 C696 1.325 . S
N698 C697 1.261 . S
C699 H669 0.931 . S
C699 C696 1.357 . S
C699 C700 1.312 . S
C700 H671 0.930 . S
C700 C695 1.261 . S
C700 C699 1.312 . S
C701 O673 1.214 . S
C701 O681 1.234 . S
C702 H674 0.929 . S
C702 C705 1.391 . S
C702 C707 1.391 . S
C703 H675 0.929 . S
C703 C704 1.390 . S
C703 N706 1.391 . S
C704 H676 0.930 . S
C704 C703 1.390 . S
C704 C705 1.392 . S
C705 H677 0.929 . S
C705 C702 1.391 . S
C705 C704 1.392 . S
N706 Co650 2.257 . S
N706 C703 1.391 . S
N706 C707 1.388 . S
C707 H678 0.930 . S
C707 C702 1.391 . S
C707 N706 1.388 . S
Co708 O710 2.143 . S
Co708 O716 2.074 . S
Co708 O719 2.093 . S
Co708 O732 2.097 . S
Co708 N749 2.151 . S
Co708 N757 2.214 . S
Co709 O710 2.160 . S
Co709 O715 2.058 . S
Co709 O725 2.057 . S
Co709 O740 2.037 . S
Co709 N744 2.145 . S
Co709 N765 2.257 . S
O710 Co708 2.143 . S
O710 Co709 2.160 . S
C711 O712 1.278 . S
C711 O719 1.224 . S
O712 C711 1.278 . S
C713 O714 1.245 . S
C713 O725 1.232 . S
O714 C713 1.245 . S
O715 Co709 2.058 . S
O715 C741 1.269 . S
O716 Co708 2.074 . S
O716 C741 1.257 . S
H717 C742 0.930 . S
H718 C748 0.930 . S
O719 Co708 2.093 . S
O719 C711 1.224 . S
H720 C752 0.929 . S
H721 C754 0.930 . S
H722 C755 0.930 . S
H723 C753 0.929 . S
H724 C756 0.928 . S
O725 Co709 2.057 . S
O725 C713 1.232 . S
H726 C745 0.929 . S
H727 C746 0.929 . S
H728 C758 0.931 . S
H729 C750 0.929 . S
H730 C759 0.930 . S
H731 C751 0.931 . S
O732 Co708 2.097 . S
O732 C760 1.214 . S
H733 C761 0.929 . S
H734 C762 0.929 . S
H735 C763 0.930 . S
H736 C764 0.929 . S
H737 C766 0.930 . S
H738 C743 0.930 . S
H739 C747 0.930 . S
O740 Co709 2.037 . S
O740 C760 1.234 . S
C741 O715 1.269 . S
C741 O716 1.257 . S
C742 H717 0.930 . S
C742 C745 1.388 1_554 S
C742 C747 1.418 . S
C743 H738 0.930 . S
C743 C746 1.404 . S
C743 C747 1.353 . S
N744 Co709 2.145 . S
N744 C745 1.397 . S
N744 C746 1.334 1_556 S
C745 H726 0.929 . S
C745 C742 1.388 1_556 S
C745 N744 1.397 . S
C746 H727 0.929 . S
C746 C743 1.404 . S
C746 N744 1.334 1_554 S
C747 H739 0.930 . S
C747 C742 1.418 . S
C747 C743 1.353 . S
C748 H718 0.930 . S
C748 N749 1.330 . S
C748 C750 1.446 . S
N749 Co708 2.151 . S
N749 C748 1.330 . S
N749 C753 1.418 . S
C750 H729 0.929 . S
C750 C748 1.446 . S
C750 C751 1.332 . S
C751 H731 0.931 . S
C751 C750 1.332 . S
C751 C752 1.267 . S
C752 H720 0.929 . S
C752 C751 1.267 . S
C752 C753 1.251 . S
C753 H723 0.929 . S
C753 N749 1.418 . S
C753 C752 1.251 . S
C754 H721 0.930 . S
C754 C756 1.406 . S
C754 C759 1.261 . S
C755 H722 0.930 . S
C755 N757 1.325 . S
C755 C758 1.357 . S
C756 H724 0.928 . S
C756 C754 1.406 . S
C756 N757 1.261 . S
N757 Co708 2.214 . S
N757 C755 1.325 . S
N757 C756 1.261 . S
C758 H728 0.931 . S
C758 C755 1.357 . S
C758 C759 1.312 . S
C759 H730 0.930 . S
C759 C754 1.261 . S
C759 C758 1.312 . S
C760 O732 1.214 . S
C760 O740 1.234 . S
C761 H733 0.929 . S
C761 C764 1.391 . S
C761 C766 1.391 . S
C762 H734 0.929 . S
C762 C763 1.390 . S
C762 N765 1.391 . S
C763 H735 0.930 . S
C763 C762 1.390 . S
C763 C764 1.392 . S
C764 H736 0.929 . S
C764 C761 1.391 . S
C764 C763 1.392 . S
N765 Co709 2.257 . S
N765 C762 1.391 . S
N765 C766 1.388 . S
C766 H737 0.930 . S
C766 C761 1.391 . S
C766 N765 1.388 . S
Co767 O769 2.143 . S
Co767 O775 2.074 . S
Co767 O778 2.093 . S
Co767 O791 2.097 . S
Co767 N808 2.151 . S
Co767 N816 2.214 . S
Co768 O769 2.160 . S
Co768 O774 2.058 . S
Co768 O784 2.057 . S
Co768 O799 2.037 . S
Co768 N803 2.145 . S
Co768 N824 2.257 . S
O769 Co767 2.143 . S
O769 Co768 2.160 . S
C770 O771 1.278 . S
C770 O778 1.224 . S
O771 C770 1.278 . S
C772 O773 1.245 . S
C772 O784 1.232 . S
O773 C772 1.245 . S
O774 Co768 2.058 . S
O774 C800 1.269 . S
O775 Co767 2.074 . S
O775 C800 1.257 . S
H776 C801 0.930 . S
H777 C807 0.930 . S
O778 Co767 2.093 . S
O778 C770 1.224 . S
H779 C811 0.929 . S
H780 C813 0.930 . S
H781 C814 0.930 . S
H782 C812 0.929 . S
H783 C815 0.928 . S
O784 Co768 2.057 . S
O784 C772 1.232 . S
H785 C804 0.929 . S
H786 C805 0.929 . S
H787 C817 0.931 . S
H788 C809 0.929 . S
H789 C818 0.930 . S
H790 C810 0.931 . S
O791 Co767 2.097 . S
O791 C819 1.214 . S
H792 C820 0.929 . S
H793 C821 0.929 . S
H794 C822 0.930 . S
H795 C823 0.929 . S
H796 C825 0.930 . S
H797 C802 0.930 . S
H798 C806 0.930 . S
O799 Co768 2.037 . S
O799 C819 1.234 . S
C800 O774 1.269 . S
C800 O775 1.257 . S
C801 H776 0.930 . S
C801 C804 1.388 . S
C801 C806 1.418 . S
C802 H797 0.930 . S
C802 C805 1.404 . S
C802 C806 1.353 . S
N803 Co768 2.145 . S
N803 C804 1.397 . S
N803 C805 1.334 . S
C804 H785 0.929 . S
C804 C801 1.388 . S
C804 N803 1.397 . S
C805 H786 0.929 . S
C805 C802 1.404 . S
C805 N803 1.334 . S
C806 H798 0.930 . S
C806 C801 1.418 . S
C806 C802 1.353 . S
C807 H777 0.930 . S
C807 N808 1.330 . S
C807 C809 1.446 . S
N808 Co767 2.151 . S
N808 C807 1.330 . S
N808 C812 1.418 . S
C809 H788 0.929 . S
C809 C807 1.446 . S
C809 C810 1.332 . S
C810 H790 0.931 . S
C810 C809 1.332 . S
C810 C811 1.267 . S
C811 H779 0.929 . S
C811 C810 1.267 . S
C811 C812 1.251 . S
C812 H782 0.929 . S
C812 N808 1.418 . S
C812 C811 1.251 . S
C813 H780 0.930 . S
C813 C815 1.406 . S
C813 C818 1.261 . S
C814 H781 0.930 . S
C814 N816 1.325 . S
C814 C817 1.357 . S
C815 H783 0.928 . S
C815 C813 1.406 . S
C815 N816 1.261 . S
N816 Co767 2.214 . S
N816 C814 1.325 . S
N816 C815 1.261 . S
C817 H787 0.931 . S
C817 C814 1.357 . S
C817 C818 1.312 . S
C818 H789 0.930 . S
C818 C813 1.261 . S
C818 C817 1.312 . S
C819 O791 1.214 . S
C819 O799 1.234 . S
C820 H792 0.929 . S
C820 C823 1.391 . S
C820 C825 1.391 . S
C821 H793 0.929 . S
C821 C822 1.390 . S
C821 N824 1.391 . S
C822 H794 0.930 . S
C822 C821 1.390 . S
C822 C823 1.392 . S
C823 H795 0.929 . S
C823 C820 1.391 . S
C823 C822 1.392 . S
N824 Co768 2.257 . S
N824 C821 1.391 . S
N824 C825 1.388 . S
C825 H796 0.930 . S
C825 C820 1.391 . S
C825 N824 1.388 . S
Co826 O828 2.143 . S
Co826 O834 2.074 . S
Co826 O837 2.093 . S
Co826 O850 2.097 . S
Co826 N867 2.151 . S
Co826 N875 2.214 . S
Co827 O828 2.160 . S
Co827 O833 2.058 . S
Co827 O843 2.057 . S
Co827 O858 2.037 . S
Co827 N862 2.145 . S
Co827 N883 2.257 . S
O828 Co826 2.143 . S
O828 Co827 2.160 . S
C829 O830 1.278 . S
C829 O837 1.224 . S
O830 C829 1.278 . S
C831 O832 1.245 . S
C831 O843 1.232 . S
O832 C831 1.245 . S
O833 Co827 2.058 . S
O833 C859 1.269 . S
O834 Co826 2.074 . S
O834 C859 1.257 . S
H835 C860 0.930 . S
H836 C866 0.930 . S
O837 Co826 2.093 . S
O837 C829 1.224 . S
H838 C870 0.929 . S
H839 C872 0.930 . S
H840 C873 0.930 . S
H841 C871 0.929 . S
H842 C874 0.928 . S
O843 Co827 2.057 . S
O843 C831 1.232 . S
H844 C863 0.929 . S
H845 C864 0.929 . S
H846 C876 0.931 . S
H847 C868 0.929 . S
H848 C877 0.930 . S
H849 C869 0.931 . S
O850 Co826 2.097 . S
O850 C878 1.214 . S
H851 C879 0.929 . S
H852 C880 0.929 . S
H853 C881 0.930 . S
H854 C882 0.929 . S
H855 C884 0.930 . S
H856 C861 0.930 . S
H857 C865 0.930 . S
O858 Co827 2.037 . S
O858 C878 1.234 . S
C859 O833 1.269 . S
C859 O834 1.257 . S
C860 H835 0.930 . S
C860 C863 1.388 1_556 S
C860 C865 1.418 . S
C861 H856 0.930 . S
C861 C864 1.404 . S
C861 C865 1.353 . S
N862 Co827 2.145 . S
N862 C863 1.397 . S
N862 C864 1.334 1_554 S
C863 H844 0.929 . S
C863 C860 1.388 1_554 S
C863 N862 1.397 . S
C864 H845 0.929 . S
C864 C861 1.404 . S
C864 N862 1.334 1_556 S
C865 H857 0.930 . S
C865 C860 1.418 . S
C865 C861 1.353 . S
C866 H836 0.930 . S
C866 N867 1.330 . S
C866 C868 1.446 . S
N867 Co826 2.151 . S
N867 C866 1.330 . S
N867 C871 1.418 . S
C868 H847 0.929 . S
C868 C866 1.446 . S
C868 C869 1.332 . S
C869 H849 0.931 . S
C869 C868 1.332 . S
C869 C870 1.267 . S
C870 H838 0.929 . S
C870 C869 1.267 . S
C870 C871 1.251 . S
C871 H841 0.929 . S
C871 N867 1.418 . S
C871 C870 1.251 . S
C872 H839 0.930 . S
C872 C874 1.406 . S
C872 C877 1.261 . S
C873 H840 0.930 . S
C873 N875 1.325 . S
C873 C876 1.357 . S
C874 H842 0.928 . S
C874 C872 1.406 . S
C874 N875 1.261 . S
N875 Co826 2.214 . S
N875 C873 1.325 . S
N875 C874 1.261 . S
C876 H846 0.931 . S
C876 C873 1.357 . S
C876 C877 1.312 . S
C877 H848 0.930 . S
C877 C872 1.261 . S
C877 C876 1.312 . S
C878 O850 1.214 . S
C878 O858 1.234 . S
C879 H851 0.929 . S
C879 C882 1.391 . S
C879 C884 1.391 . S
C880 H852 0.929 . S
C880 C881 1.390 . S
C880 N883 1.391 . S
C881 H853 0.930 . S
C881 C880 1.390 . S
C881 C882 1.392 . S
C882 H854 0.929 . S
C882 C879 1.391 . S
C882 C881 1.392 . S
N883 Co827 2.257 . S
N883 C880 1.391 . S
N883 C884 1.388 . S
C884 H855 0.930 . S
C884 C879 1.391 . S
C884 N883 1.388 . S
Co885 O887 2.143 . S
Co885 O893 2.074 . S
Co885 O896 2.093 . S
Co885 O909 2.097 . S
Co885 N926 2.151 . S
Co885 N934 2.214 . S
Co886 O887 2.160 . S
Co886 O892 2.058 . S
Co886 O902 2.057 . S
Co886 O917 2.037 . S
Co886 N921 2.145 . S
Co886 N942 2.257 . S
O887 Co885 2.143 . S
O887 Co886 2.160 . S
C888 O889 1.278 . S
C888 O896 1.224 . S
O889 C888 1.278 . S
C890 O891 1.245 . S
C890 O902 1.232 . S
O891 C890 1.245 . S
O892 Co886 2.058 . S
O892 C918 1.269 . S
O893 Co885 2.074 . S
O893 C918 1.257 . S
H894 C919 0.930 . S
H895 C925 0.930 . S
O896 Co885 2.093 . S
O896 C888 1.224 . S
H897 C929 0.929 . S
H898 C931 0.930 . S
H899 C932 0.930 . S
H900 C930 0.929 . S
H901 C933 0.928 . S
O902 Co886 2.057 . S
O902 C890 1.232 . S
H903 C922 0.929 . S
H904 C923 0.929 . S
H905 C935 0.931 . S
H906 C927 0.929 . S
H907 C936 0.930 . S
H908 C928 0.931 . S
O909 Co885 2.097 . S
O909 C937 1.214 . S
H910 C938 0.929 . S
H911 C939 0.929 . S
H912 C940 0.930 . S
H913 C941 0.929 . S
H914 C943 0.930 . S
H915 C920 0.930 . S
H916 C924 0.930 . S
O917 Co886 2.037 . S
O917 C937 1.234 . S
C918 O892 1.269 . S
C918 O893 1.257 . S
C919 H894 0.930 . S
C919 C922 1.388 . S
C919 C924 1.418 . S
C920 H915 0.930 . S
C920 C923 1.404 . S
C920 C924 1.353 . S
N921 Co886 2.145 . S
N921 C922 1.397 . S
N921 C923 1.334 . S
C922 H903 0.929 . S
C922 C919 1.388 . S
C922 N921 1.397 . S
C923 H904 0.929 . S
C923 C920 1.404 . S
C923 N921 1.334 . S
C924 H916 0.930 . S
C924 C919 1.418 . S
C924 C920 1.353 . S
C925 H895 0.930 . S
C925 N926 1.330 . S
C925 C927 1.446 . S
N926 Co885 2.151 . S
N926 C925 1.330 . S
N926 C930 1.418 . S
C927 H906 0.929 . S
C927 C925 1.446 . S
C927 C928 1.332 . S
C928 H908 0.931 . S
C928 C927 1.332 . S
C928 C929 1.267 . S
C929 H897 0.929 . S
C929 C928 1.267 . S
C929 C930 1.251 . S
C930 H900 0.929 . S
C930 N926 1.418 . S
C930 C929 1.251 . S
C931 H898 0.930 . S
C931 C933 1.406 . S
C931 C936 1.261 . S
C932 H899 0.930 . S
C932 N934 1.325 . S
C932 C935 1.357 . S
C933 H901 0.928 . S
C933 C931 1.406 . S
C933 N934 1.261 . S
N934 Co885 2.214 . S
N934 C932 1.325 . S
N934 C933 1.261 . S
C935 H905 0.931 . S
C935 C932 1.357 . S
C935 C936 1.312 . S
C936 H907 0.930 . S
C936 C931 1.261 . S
C936 C935 1.312 . S
C937 O909 1.214 . S
C937 O917 1.234 . S
C938 H910 0.929 . S
C938 C941 1.391 . S
C938 C943 1.391 . S
C939 H911 0.929 . S
C939 C940 1.390 . S
C939 N942 1.391 . S
C940 H912 0.930 . S
C940 C939 1.390 . S
C940 C941 1.392 . S
C941 H913 0.929 . S
C941 C938 1.391 . S
C941 C940 1.392 . S
N942 Co886 2.257 . S
N942 C939 1.391 . S
N942 C943 1.388 . S
C943 H914 0.930 . S
C943 C938 1.391 . S
C943 N942 1.388 . S
H944 C950 0.930 . S
H945 C954 0.930 . S
H946 C959 0.929 . S
H947 C957 0.929 . S
H948 C952 0.929 . S
H949 C958 0.929 . S
C950 H944 0.930 . S
C950 C951 1.367 . S
C950 C958 1.378 . S
C951 C950 1.367 . S
C951 C959 1.433 . S
C952 H948 0.929 . S
C952 C954 1.378 . S
C952 C956 1.350 1_556 S
C953 C956 1.463 . S
C953 C958 1.350 . S
C953 N961 1.427 . S
C954 H945 0.930 . S
C954 C952 1.378 . S
C954 C955 1.367 . S
C955 C954 1.367 . S
C955 C957 1.433 . S
C956 C952 1.350 1_554 S
C956 C953 1.463 . S
C956 N960 1.427 . S
C957 H947 0.929 . S
C957 C955 1.433 . S
C957 N960 1.384 1_556 S
C958 H949 0.929 . S
C958 C950 1.378 . S
C958 C953 1.350 . S
C959 H946 0.929 . S
C959 C951 1.433 . S
C959 N961 1.384 . S
N960 C956 1.427 . S
N960 C957 1.384 1_554 S
N961 C953 1.427 . S
N961 C959 1.384 . S
H962 C968 0.930 . S
H963 C972 0.930 . S
H964 C977 0.929 . S
H965 C975 0.929 . S
H966 C970 0.929 . S
H967 C976 0.929 . S
C968 H962 0.930 . S
C968 C969 1.367 . S
C968 C976 1.378 . S
C969 C968 1.367 . S
C969 C977 1.433 . S
C970 H966 0.929 . S
C970 C972 1.378 . S
C970 C974 1.350 . S
C971 C974 1.463 . S
C971 C976 1.350 . S
C971 N979 1.427 . S
C972 H963 0.930 . S
C972 C970 1.378 . S
C972 C973 1.367 . S
C973 C972 1.367 . S
C973 C975 1.433 . S
C974 C970 1.350 . S
C974 C971 1.463 . S
C974 N978 1.427 . S
C975 H965 0.929 . S
C975 C973 1.433 . S
C975 N978 1.384 . S
C976 H967 0.929 . S
C976 C968 1.378 . S
C976 C971 1.350 . S
C977 H964 0.929 . S
C977 C969 1.433 . S
C977 N979 1.384 . S
N978 C974 1.427 . S
N978 C975 1.384 . S
N979 C971 1.427 . S
N979 C977 1.384 . S
H980 C986 0.930 . S
H981 C990 0.930 . S
H982 C995 0.929 . S
H983 C993 0.929 . S
H984 C988 0.929 . S
H985 C994 0.929 1_554 S
C986 H980 0.930 . S
C986 C987 1.367 . S
C986 C994 1.378 . S
C987 C986 1.367 . S
C987 C995 1.433 . S
C988 H984 0.929 . S
C988 C990 1.378 . S
C988 C992 1.350 . S
C989 C992 1.463 . S
C989 C994 1.350 . S
C989 N997 1.427 . S
C990 H981 0.930 . S
C990 C988 1.378 . S
C990 C991 1.367 1_556 S
C991 C990 1.367 1_554 S
C991 C993 1.433 . S
C992 C988 1.350 . S
C992 C989 1.463 . S
C992 N996 1.427 1_556 S
C993 H983 0.929 . S
C993 C991 1.433 . S
C993 N996 1.384 . S
C994 H985 0.929 1_556 S
C994 C986 1.378 . S
C994 C989 1.350 . S
C995 H982 0.929 . S
C995 C987 1.433 . S
C995 N997 1.384 . S
N996 C992 1.427 1_554 S
N996 C993 1.384 . S
N997 C989 1.427 . S
N997 C995 1.384 . S
H998 C1004 0.930 . S
H999 C1008 0.930 . S
H1000 C1013 0.929 . S
H1001 C1011 0.929 . S
H1002 C1006 0.929 . S
H1003 C1012 0.929 . S
C1004 H998 0.930 . S
C1004 C1005 1.367 . S
C1004 C1012 1.378 . S
C1005 C1004 1.367 . S
C1005 C1013 1.433 . S
C1006 H1002 0.929 . S
C1006 C1008 1.378 . S
C1006 C1010 1.350 . S
C1007 C1010 1.463 . S
C1007 C1012 1.350 . S
C1007 N1015 1.427 . S
C1008 H999 0.930 . S
C1008 C1006 1.378 . S
C1008 C1009 1.367 . S
C1009 C1008 1.367 . S
C1009 C1011 1.433 . S
C1010 C1006 1.350 . S
C1010 C1007 1.463 . S
C1010 N1014 1.427 . S
C1011 H1001 0.929 . S
C1011 C1009 1.433 . S
C1011 N1014 1.384 . S
C1012 H1003 0.929 . S
C1012 C1004 1.378 . S
C1012 C1007 1.350 . S
C1013 H1000 0.929 . S
C1013 C1005 1.433 . S
C1013 N1015 1.384 . S
N1014 C1010 1.427 . S
N1014 C1011 1.384 . S
N1015 C1007 1.427 . S
N1015 C1013 1.384 . S
H1016 C1022 0.930 . S
H1017 C1026 0.930 . S
H1018 C1031 0.929 . S
H1019 C1029 0.929 . S
H1020 C1024 0.929 . S
H1021 C1030 0.929 . S
C1022 H1016 0.930 . S
C1022 C1023 1.367 . S
C1022 C1030 1.378 . S
C1023 C1022 1.367 . S
C1023 C1031 1.433 . S
C1024 H1020 0.929 . S
C1024 C1026 1.378 . S
C1024 C1028 1.350 1_556 S
C1025 C1028 1.463 . S
C1025 C1030 1.350 . S
C1025 N1033 1.427 . S
C1026 H1017 0.930 . S
C1026 C1024 1.378 . S
C1026 C1027 1.367 . S
C1027 C1026 1.367 . S
C1027 C1029 1.433 . S
C1028 C1024 1.350 1_554 S
C1028 C1025 1.463 . S
C1028 N1032 1.427 . S
C1029 H1019 0.929 . S
C1029 C1027 1.433 . S
C1029 N1032 1.384 1_556 S
C1030 H1021 0.929 . S
C1030 C1022 1.378 . S
C1030 C1025 1.350 . S
C1031 H1018 0.929 . S
C1031 C1023 1.433 . S
C1031 N1033 1.384 . S
N1032 C1028 1.427 . S
N1032 C1029 1.384 1_554 S
N1033 C1025 1.427 . S
N1033 C1031 1.384 . S
H1034 C1040 0.930 . S
H1035 C1044 0.930 . S
H1036 C1049 0.929 . S
H1037 C1047 0.929 . S
H1038 C1042 0.929 . S
H1039 C1048 0.929 . S
C1040 H1034 0.930 . S
C1040 C1041 1.367 . S
C1040 C1048 1.378 . S
C1041 C1040 1.367 . S
C1041 C1049 1.433 . S
C1042 H1038 0.929 . S
C1042 C1044 1.378 . S
C1042 C1046 1.350 . S
C1043 C1046 1.463 . S
C1043 C1048 1.350 . S
C1043 N1051 1.427 . S
C1044 H1035 0.930 . S
C1044 C1042 1.378 . S
C1044 C1045 1.367 . S
C1045 C1044 1.367 . S
C1045 C1047 1.433 . S
C1046 C1042 1.350 . S
C1046 C1043 1.463 . S
C1046 N1050 1.427 . S
C1047 H1037 0.929 . S
C1047 C1045 1.433 . S
C1047 N1050 1.384 . S
C1048 H1039 0.929 . S
C1048 C1040 1.378 . S
C1048 C1043 1.350 . S
C1049 H1036 0.929 . S
C1049 C1041 1.433 . S
C1049 N1051 1.384 . S
N1050 C1046 1.427 . S
N1050 C1047 1.384 . S
N1051 C1043 1.427 . S
N1051 C1049 1.384 . S
H1052 C1058 0.930 . S
H1053 C1062 0.930 . S
H1054 C1067 0.929 . S
H1055 C1065 0.929 . S
H1056 C1060 0.929 . S
H1057 C1066 0.929 . S
C1058 H1052 0.930 . S
C1058 C1059 1.367 . S
C1058 C1066 1.378 . S
C1059 C1058 1.367 . S
C1059 C1067 1.433 . S
C1060 H1056 0.929 . S
C1060 C1062 1.378 1_556 S
C1060 C1064 1.350 . S
C1061 C1064 1.463 . S
C1061 C1066 1.350 . S
C1061 N1069 1.427 . S
C1062 H1053 0.930 . S
C1062 C1060 1.378 1_554 S
C1062 C1063 1.367 . S
C1063 C1062 1.367 . S
C1063 C1065 1.433 . S
C1064 C1060 1.350 . S
C1064 C1061 1.463 . S
C1064 N1068 1.427 1_556 S
C1065 H1055 0.929 . S
C1065 C1063 1.433 . S
C1065 N1068 1.384 . S
C1066 H1057 0.929 . S
C1066 C1058 1.378 . S
C1066 C1061 1.350 . S
C1067 H1054 0.929 . S
C1067 C1059 1.433 . S
C1067 N1069 1.384 . S
N1068 C1064 1.427 1_554 S
N1068 C1065 1.384 . S
N1069 C1061 1.427 . S
N1069 C1067 1.384 . S
H1070 C1076 0.930 . S
H1071 C1080 0.930 . S
H1072 C1085 0.929 . S
H1073 C1083 0.929 . S
H1074 C1078 0.929 . S
H1075 C1084 0.929 . S
C1076 H1070 0.930 . S
C1076 C1077 1.367 . S
C1076 C1084 1.378 . S
C1077 C1076 1.367 . S
C1077 C1085 1.433 . S
C1078 H1074 0.929 . S
C1078 C1080 1.378 . S
C1078 C1082 1.350 . S
C1079 C1082 1.463 . S
C1079 C1084 1.350 . S
C1079 N1087 1.427 . S
C1080 H1071 0.930 . S
C1080 C1078 1.378 . S
C1080 C1081 1.367 . S
C1081 C1080 1.367 . S
C1081 C1083 1.433 . S
C1082 C1078 1.350 . S
C1082 C1079 1.463 . S
C1082 N1086 1.427 . S
C1083 H1073 0.929 . S
C1083 C1081 1.433 . S
C1083 N1086 1.384 . S
C1084 H1075 0.929 . S
C1084 C1076 1.378 . S
C1084 C1079 1.350 . S
C1085 H1072 0.929 . S
C1085 C1077 1.433 . S
C1085 N1087 1.384 . S
N1086 C1082 1.427 . S
N1086 C1083 1.384 . S
N1087 C1079 1.427 . S
N1087 C1085 1.384 . S
H1088 C1094 0.930 . S
H1089 C1098 0.930 . S
H1090 C1103 0.929 . S
H1091 C1101 0.929 . S
H1092 C1096 0.929 . S
H1093 C1102 0.929 . S
C1094 H1088 0.930 . S
C1094 C1095 1.367 . S
C1094 C1102 1.378 . S
C1095 C1094 1.367 . S
C1095 C1103 1.433 . S
C1096 H1092 0.929 . S
C1096 C1098 1.378 . S
C1096 C1100 1.350 . S
C1097 C1100 1.463 1_544 S
C1097 C1102 1.350 . S
C1097 N1105 1.427 . S
C1098 H1089 0.930 . S
C1098 C1096 1.378 . S
C1098 C1099 1.367 . S
C1099 C1098 1.367 . S
C1099 C1101 1.433 . S
C1100 C1096 1.350 . S
C1100 C1097 1.463 1_566 S
C1100 N1104 1.427 . S
C1101 H1091 0.929 . S
C1101 C1099 1.433 . S
C1101 N1104 1.384 . S
C1102 H1093 0.929 . S
C1102 C1094 1.378 . S
C1102 C1097 1.350 . S
C1103 H1090 0.929 . S
C1103 C1095 1.433 . S
C1103 N1105 1.384 . S
N1104 C1100 1.427 . S
N1104 C1101 1.384 . S
N1105 C1097 1.427 . S
N1105 C1103 1.384 . S
H1106 C1112 0.930 . S
H1107 C1116 0.930 . S
H1108 C1121 0.929 . S
H1109 C1119 0.929 . S
H1110 C1114 0.929 1_565 S
H1111 C1120 0.929 1_545 S
C1112 H1106 0.930 . S
C1112 C1113 1.367 . S
C1112 C1120 1.378 . S
C1113 C1112 1.367 . S
C1113 C1121 1.433 . S
C1114 H1110 0.929 1_545 S
C1114 C1116 1.378 . S
C1114 C1118 1.350 . S
C1115 C1118 1.463 1_565 S
C1115 C1120 1.350 . S
C1115 N1123 1.427 . S
C1116 H1107 0.930 . S
C1116 C1114 1.378 . S
C1116 C1117 1.367 . S
C1117 C1116 1.367 . S
C1117 C1119 1.433 . S
C1118 C1114 1.350 . S
C1118 C1115 1.463 1_545 S
C1118 N1122 1.427 . S
C1119 H1109 0.929 . S
C1119 C1117 1.433 . S
C1119 N1122 1.384 . S
C1120 H1111 0.929 1_565 S
C1120 C1112 1.378 . S
C1120 C1115 1.350 . S
C1121 H1108 0.929 . S
C1121 C1113 1.433 . S
C1121 N1123 1.384 . S
N1122 C1118 1.427 . S
N1122 C1119 1.384 . S
N1123 C1115 1.427 . S
N1123 C1121 1.384 . S
H1124 C1130 0.940 . S
H1125 C1134 0.940 . S
H1126 C1139 0.929 . S
H1127 C1137 0.929 . S
H1128 C1132 0.929 . S
H1129 C1138 0.929 . S
C1130 H1124 0.940 . S
C1130 C1131 1.351 1_554 S
C1130 C1138 1.384 . S
C1131 C1130 1.351 1_556 S
C1131 C1139 1.433 . S
C1132 H1128 0.929 . S
C1132 C1134 1.384 . S
C1132 C1136 1.350 1_556 S
C1133 C1136 1.463 1_566 S
C1133 C1138 1.350 1_556 S
C1133 N1141 1.427 . S
C1134 H1125 0.940 . S
C1134 C1132 1.384 . S
C1134 C1135 1.351 1_556 S
C1135 C1134 1.351 1_554 S
C1135 C1137 1.433 . S
C1136 C1132 1.350 1_554 S
C1136 C1133 1.463 1_544 S
C1136 N1140 1.427 . S
C1137 H1127 0.929 . S
C1137 C1135 1.433 . S
C1137 N1140 1.384 . S
C1138 H1129 0.929 . S
C1138 C1130 1.384 . S
C1138 C1133 1.350 1_554 S
C1139 H1126 0.929 . S
C1139 C1131 1.433 . S
C1139 N1141 1.384 . S
N1140 C1136 1.427 . S
N1140 C1137 1.384 . S
N1141 C1133 1.427 . S
N1141 C1139 1.384 . S
H1142 C1148 0.930 . S
H1143 C1152 0.930 . S
H1144 C1157 0.929 . S
H1145 C1155 0.929 . S
H1146 C1150 0.929 . S
H1147 C1156 0.929 . S
C1148 H1142 0.930 . S
C1148 C1149 1.367 . S
C1148 C1156 1.378 . S
C1149 C1148 1.367 . S
C1149 C1157 1.433 . S
C1150 H1146 0.929 . S
C1150 C1152 1.378 . S
C1150 C1154 1.350 . S
C1151 C1154 1.463 1_545 S
C1151 C1156 1.350 . S
C1151 N1159 1.427 . S
C1152 H1143 0.930 . S
C1152 C1150 1.378 . S
C1152 C1153 1.367 . S
C1153 C1152 1.367 . S
C1153 C1155 1.433 . S
C1154 C1150 1.350 . S
C1154 C1151 1.463 1_565 S
C1154 N1158 1.427 . S
C1155 H1145 0.929 . S
C1155 C1153 1.433 . S
C1155 N1158 1.384 . S
C1156 H1147 0.929 . S
C1156 C1148 1.378 . S
C1156 C1151 1.350 . S
C1157 H1144 0.929 . S
C1157 C1149 1.433 . S
C1157 N1159 1.384 . S
N1158 C1154 1.427 . S
N1158 C1155 1.384 . S
N1159 C1151 1.427 . S
N1159 C1157 1.384 . S
H1160 C1166 0.930 . S
H1161 C1170 0.930 . S
H1162 C1175 0.929 . S
H1163 C1173 0.929 . S
H1164 C1168 0.929 . S
H1165 C1174 0.929 . S
C1166 H1160 0.930 . S
C1166 C1167 1.367 . S
C1166 C1174 1.378 . S
C1167 C1166 1.367 . S
C1167 C1175 1.433 . S
C1168 H1164 0.929 . S
C1168 C1170 1.378 . S
C1168 C1172 1.350 . S
C1169 C1172 1.463 1_556 S
C1169 C1174 1.350 . S
C1169 N1177 1.427 . S
C1170 H1161 0.930 . S
C1170 C1168 1.378 . S
C1170 C1171 1.367 . S
C1171 C1170 1.367 . S
C1171 C1173 1.433 . S
C1172 C1168 1.350 . S
C1172 C1169 1.463 1_554 S
C1172 N1176 1.427 . S
C1173 H1163 0.929 . S
C1173 C1171 1.433 . S
C1173 N1176 1.384 . S
C1174 H1165 0.929 . S
C1174 C1166 1.378 . S
C1174 C1169 1.350 . S
C1175 H1162 0.929 . S
C1175 C1167 1.433 . S
C1175 N1177 1.384 . S
N1176 C1172 1.427 . S
N1176 C1173 1.384 . S
N1177 C1169 1.427 . S
N1177 C1175 1.384 . S
H1178 C1184 0.930 . S
H1179 C1188 0.930 . S
H1180 C1193 0.929 . S
H1181 C1191 0.929 . S
H1182 C1186 0.929 . S
H1183 C1192 0.929 . S
C1184 H1178 0.930 . S
C1184 C1185 1.367 . S
C1184 C1192 1.378 . S
C1185 C1184 1.367 . S
C1185 C1193 1.433 . S
C1186 H1182 0.929 . S
C1186 C1188 1.378 . S
C1186 C1190 1.350 . S
C1187 C1190 1.463 . S
C1187 C1192 1.350 . S
C1187 N1195 1.427 . S
C1188 H1179 0.930 . S
C1188 C1186 1.378 . S
C1188 C1189 1.367 . S
C1189 C1188 1.367 . S
C1189 C1191 1.433 . S
C1190 C1186 1.350 . S
C1190 C1187 1.463 . S
C1190 N1194 1.427 . S
C1191 H1181 0.929 . S
C1191 C1189 1.433 . S
C1191 N1194 1.384 . S
C1192 H1183 0.929 . S
C1192 C1184 1.378 . S
C1192 C1187 1.350 . S
C1193 H1180 0.929 . S
C1193 C1185 1.433 . S
C1193 N1195 1.384 . S
N1194 C1190 1.427 . S
N1194 C1191 1.384 . S
N1195 C1187 1.427 . S
N1195 C1193 1.384 . S
H1196 C1202 0.930 . S
H1197 C1206 0.930 . S
H1198 C1211 0.929 . S
H1199 C1209 0.929 . S
H1200 C1204 0.929 . S
H1201 C1210 0.929 . S
C1202 H1196 0.930 . S
C1202 C1203 1.367 . S
C1202 C1210 1.378 . S
C1203 C1202 1.367 . S
C1203 C1211 1.433 1_554 S
C1204 H1200 0.929 . S
C1204 C1206 1.378 . S
C1204 C1208 1.350 . S
C1205 C1208 1.463 1_554 S
C1205 C1210 1.350 . S
C1205 N1213 1.427 1_554 S
C1206 H1197 0.930 . S
C1206 C1204 1.378 . S
C1206 C1207 1.367 . S
C1207 C1206 1.367 . S
C1207 C1209 1.433 1_556 S
C1208 C1204 1.350 . S
C1208 C1205 1.463 1_556 S
C1208 N1212 1.427 1_556 S
C1209 H1199 0.929 . S
C1209 C1207 1.433 1_554 S
C1209 N1212 1.384 . S
C1210 H1201 0.929 . S
C1210 C1202 1.378 . S
C1210 C1205 1.350 . S
C1211 H1198 0.929 . S
C1211 C1203 1.433 1_556 S
C1211 N1213 1.384 . S
N1212 C1208 1.427 1_554 S
N1212 C1209 1.384 . S
N1213 C1205 1.427 1_556 S
N1213 C1211 1.384 . S
H1214 C1220 0.930 . S
H1215 C1224 0.930 . S
H1216 C1229 0.929 . S
H1217 C1227 0.929 . S
H1218 C1222 0.929 . S
H1219 C1228 0.929 . S
C1220 H1214 0.930 . S
C1220 C1221 1.367 . S
C1220 C1228 1.378 . S
C1221 C1220 1.367 . S
C1221 C1229 1.433 . S
C1222 H1218 0.929 . S
C1222 C1224 1.378 . S
C1222 C1226 1.350 . S
C1223 C1226 1.463 . S
C1223 C1228 1.350 . S
C1223 N1231 1.427 . S
C1224 H1215 0.930 . S
C1224 C1222 1.378 . S
C1224 C1225 1.367 . S
C1225 C1224 1.367 . S
C1225 C1227 1.433 . S
C1226 C1222 1.350 . S
C1226 C1223 1.463 . S
C1226 N1230 1.427 . S
C1227 H1217 0.929 . S
C1227 C1225 1.433 . S
C1227 N1230 1.384 . S
C1228 H1219 0.929 . S
C1228 C1220 1.378 . S
C1228 C1223 1.350 . S
C1229 H1216 0.929 . S
C1229 C1221 1.433 . S
C1229 N1231 1.384 . S
N1230 C1226 1.427 . S
N1230 C1227 1.384 . S
N1231 C1223 1.427 . S
N1231 C1229 1.384 . S
H1232 C1238 0.930 . S
H1233 C1242 0.930 . S
H1234 C1247 0.929 . S
H1235 C1245 0.929 . S
H1236 C1240 0.929 . S
H1237 C1246 0.929 . S
C1238 H1232 0.930 . S
C1238 C1239 1.367 . S
C1238 C1246 1.378 . S
C1239 C1238 1.367 . S
C1239 C1247 1.433 . S
C1240 H1236 0.929 . S
C1240 C1242 1.378 . S
C1240 C1244 1.350 . S
C1241 C1244 1.463 . S
C1241 C1246 1.350 . S
C1241 N1249 1.427 . S
C1242 H1233 0.930 . S
C1242 C1240 1.378 . S
C1242 C1243 1.367 . S
C1243 C1242 1.367 . S
C1243 C1245 1.433 . S
C1244 C1240 1.350 . S
C1244 C1241 1.463 . S
C1244 N1248 1.427 . S
C1245 H1235 0.929 . S
C1245 C1243 1.433 . S
C1245 N1248 1.384 . S
C1246 H1237 0.929 . S
C1246 C1238 1.378 . S
C1246 C1241 1.350 . S
C1247 H1234 0.929 . S
C1247 C1239 1.433 . S
C1247 N1249 1.384 . S
N1248 C1244 1.427 . S
N1248 C1245 1.384 . S
N1249 C1241 1.427 . S
N1249 C1247 1.384 . S
H1250 C1256 0.930 . S
H1251 C1260 0.930 . S
H1252 C1265 0.929 . S
H1253 C1263 0.929 . S
H1254 C1258 0.920 1_655 S
H1255 C1264 0.929 . S
C1256 H1250 0.930 . S
C1256 C1257 1.367 . S
C1256 C1264 1.378 . S
C1257 C1256 1.367 . S
C1257 C1265 1.433 . S
C1258 H1254 0.920 1_455 S
C1258 C1260 1.395 . S
C1258 C1262 1.342 1_455 S
C1259 C1262 1.463 . S
C1259 C1264 1.350 . S
C1259 N1267 1.427 . S
C1260 H1251 0.930 . S
C1260 C1258 1.395 . S
C1260 C1261 1.367 . S
C1261 C1260 1.367 . S
C1261 C1263 1.433 . S
C1262 C1258 1.342 1_655 S
C1262 C1259 1.463 . S
C1262 N1266 1.428 . S
C1263 H1253 0.929 . S
C1263 C1261 1.433 . S
C1263 N1266 1.381 1_455 S
C1264 H1255 0.929 . S
C1264 C1256 1.378 . S
C1264 C1259 1.350 . S
C1265 H1252 0.929 . S
C1265 C1257 1.433 . S
C1265 N1267 1.384 . S
N1266 C1262 1.428 . S
N1266 C1263 1.381 1_655 S
N1267 C1259 1.427 . S
N1267 C1265 1.384 . S
H1268 C1274 0.930 . S
H1269 C1278 0.930 . S
H1270 C1283 0.929 . S
H1271 C1281 0.929 . S
H1272 C1276 0.929 . S
H1273 C1282 0.929 . S
C1274 H1268 0.930 . S
C1274 C1275 1.367 . S
C1274 C1282 1.378 . S
C1275 C1274 1.367 . S
C1275 C1283 1.433 . S
C1276 H1272 0.929 . S
C1276 C1278 1.378 . S
C1276 C1280 1.350 . S
C1277 C1280 1.463 . S
C1277 C1282 1.350 . S
C1277 N1285 1.427 . S
C1278 H1269 0.930 . S
C1278 C1276 1.378 . S
C1278 C1279 1.367 . S
C1279 C1278 1.367 . S
C1279 C1281 1.433 . S
C1280 C1276 1.350 . S
C1280 C1277 1.463 . S
C1280 N1284 1.427 . S
C1281 H1271 0.929 . S
C1281 C1279 1.433 . S
C1281 N1284 1.384 . S
C1282 H1273 0.929 . S
C1282 C1274 1.378 . S
C1282 C1277 1.350 . S
C1283 H1270 0.929 . S
C1283 C1275 1.433 . S
C1283 N1285 1.384 . S
N1284 C1280 1.427 . S
N1284 C1281 1.384 . S
N1285 C1277 1.427 . S
N1285 C1283 1.384 . S
H1286 C1292 0.930 . S
H1287 C1296 0.930 . S
H1288 C1301 0.929 . S
H1289 C1299 0.929 . S
H1290 C1294 0.929 . S
H1291 C1300 0.929 . S
C1292 H1286 0.930 . S
C1292 C1293 1.367 . S
C1292 C1300 1.378 1_455 S
C1293 C1292 1.367 . S
C1293 C1301 1.433 . S
C1294 H1290 0.929 . S
C1294 C1296 1.378 . S
C1294 C1298 1.350 . S
C1295 C1298 1.463 . S
C1295 C1300 1.350 . S
C1295 N1303 1.427 1_655 S
C1296 H1287 0.930 . S
C1296 C1294 1.378 . S
C1296 C1297 1.367 . S
C1297 C1296 1.367 . S
C1297 C1299 1.433 . S
C1298 C1294 1.350 . S
C1298 C1295 1.463 . S
C1298 N1302 1.427 . S
C1299 H1289 0.929 . S
C1299 C1297 1.433 . S
C1299 N1302 1.384 . S
C1300 H1291 0.929 . S
C1300 C1292 1.378 1_655 S
C1300 C1295 1.350 . S
C1301 H1288 0.929 . S
C1301 C1293 1.433 . S
C1301 N1303 1.384 . S
N1302 C1298 1.427 . S
N1302 C1299 1.384 . S
N1303 C1295 1.427 1_455 S
N1303 C1301 1.384 . S
H1304 C1310 0.930 . S
H1305 C1314 0.930 . S
H1306 C1319 0.929 . S
H1307 C1317 0.929 . S
H1308 C1312 0.923 1_455 S
H1309 C1318 0.929 . S
C1310 H1304 0.930 . S
C1310 C1311 1.367 . S
C1310 C1318 1.378 . S
C1311 C1310 1.367 . S
C1311 C1319 1.433 . S
C1312 H1308 0.923 1_655 S
C1312 C1314 1.390 . S
C1312 C1316 1.344 1_655 S
C1313 C1316 1.463 . S
C1313 C1318 1.350 . S
C1313 N1321 1.427 . S
C1314 H1305 0.930 . S
C1314 C1312 1.390 . S
C1314 C1315 1.367 . S
C1315 C1314 1.367 . S
C1315 C1317 1.433 . S
C1316 C1312 1.344 1_455 S
C1316 C1313 1.463 . S
C1316 N1320 1.426 . S
C1317 H1307 0.929 . S
C1317 C1315 1.433 . S
C1317 N1320 1.386 1_655 S
C1318 H1309 0.929 . S
C1318 C1310 1.378 . S
C1318 C1313 1.350 . S
C1319 H1306 0.929 . S
C1319 C1311 1.433 . S
C1319 N1321 1.384 . S
N1320 C1316 1.426 . S
N1320 C1317 1.386 1_455 S
N1321 C1313 1.427 . S
N1321 C1319 1.384 . S
H1322 C1328 0.930 . S
H1323 C1332 0.930 . S
H1324 C1337 0.929 . S
H1325 C1335 0.929 . S
H1326 C1330 0.929 . S
H1327 C1336 0.929 . S
C1328 H1322 0.930 . S
C1328 C1329 1.367 . S
C1328 C1336 1.378 . S
C1329 C1328 1.367 . S
C1329 C1337 1.433 . S
C1330 H1326 0.929 . S
C1330 C1332 1.378 . S
C1330 C1334 1.350 . S
C1331 C1334 1.463 . S
C1331 C1336 1.350 . S
C1331 N1339 1.427 . S
C1332 H1323 0.930 . S
C1332 C1330 1.378 . S
C1332 C1333 1.367 . S
C1333 C1332 1.367 . S
C1333 C1335 1.433 . S
C1334 C1330 1.350 . S
C1334 C1331 1.463 . S
C1334 N1338 1.427 . S
C1335 H1325 0.929 . S
C1335 C1333 1.433 . S
C1335 N1338 1.384 . S
C1336 H1327 0.929 . S
C1336 C1328 1.378 . S
C1336 C1331 1.350 . S
C1337 H1324 0.929 . S
C1337 C1329 1.433 . S
C1337 N1339 1.384 . S
N1338 C1334 1.427 . S
N1338 C1335 1.384 . S
N1339 C1331 1.427 . S
N1339 C1337 1.384 . S
H1340 C1346 0.930 . S
H1341 C1350 0.930 . S
H1342 C1355 0.929 . S
H1343 C1353 0.929 . S
H1344 C1348 0.915 1_455 S
H1345 C1354 0.929 . S
C1346 H1340 0.930 . S
C1346 C1347 1.367 . S
C1346 C1354 1.378 . S
C1347 C1346 1.367 . S
C1347 C1355 1.433 . S
C1348 H1344 0.915 1_655 S
C1348 C1350 1.405 . S
C1348 C1352 1.336 1_655 S
C1349 C1352 1.463 . S
C1349 C1354 1.350 . S
C1349 N1357 1.427 . S
C1350 H1341 0.930 . S
C1350 C1348 1.405 . S
C1350 C1351 1.367 . S
C1351 C1350 1.367 . S
C1351 C1353 1.433 . S
C1352 C1348 1.336 1_455 S
C1352 C1349 1.463 . S
C1352 N1356 1.433 . S
C1353 H1343 0.929 . S
C1353 C1351 1.433 . S
C1353 N1356 1.371 1_655 S
C1354 H1345 0.929 . S
C1354 C1346 1.378 . S
C1354 C1349 1.350 . S
C1355 H1342 0.929 . S
C1355 C1347 1.433 . S
C1355 N1357 1.384 . S
N1356 C1352 1.433 . S
N1356 C1353 1.371 1_455 S
N1357 C1349 1.427 . S
N1357 C1355 1.384 . S
H1358 C1364 0.930 . S
H1359 C1368 0.930 . S
H1360 C1373 0.929 . S
H1361 C1371 0.929 . S
H1362 C1366 0.929 . S
H1363 C1372 0.929 . S
C1364 H1358 0.930 . S
C1364 C1365 1.367 . S
C1364 C1372 1.378 . S
C1365 C1364 1.367 . S
C1365 C1373 1.433 . S
C1366 H1362 0.929 . S
C1366 C1368 1.378 . S
C1366 C1370 1.350 . S
C1367 C1370 1.463 . S
C1367 C1372 1.350 . S
C1367 N1375 1.427 . S
C1368 H1359 0.930 . S
C1368 C1366 1.378 . S
C1368 C1369 1.367 . S
C1369 C1368 1.367 . S
C1369 C1371 1.433 . S
C1370 C1366 1.350 . S
C1370 C1367 1.463 . S
C1370 N1374 1.427 . S
C1371 H1361 0.929 . S
C1371 C1369 1.433 . S
C1371 N1374 1.384 . S
C1372 H1363 0.929 . S
C1372 C1364 1.378 . S
C1372 C1367 1.350 . S
C1373 H1360 0.929 . S
C1373 C1365 1.433 . S
C1373 N1375 1.384 . S
N1374 C1370 1.427 . S
N1374 C1371 1.384 . S
N1375 C1367 1.427 . S
N1375 C1373 1.384 . S
H1376 C1382 0.930 . S
H1377 C1386 0.930 . S
H1378 C1391 0.929 . S
H1379 C1389 0.929 . S
H1380 C1384 0.929 . S
H1381 C1390 0.929 . S
C1382 H1376 0.930 . S
C1382 C1383 1.367 . S
C1382 C1390 1.378 . S
C1383 C1382 1.367 . S
C1383 C1391 1.433 . S
C1384 H1380 0.929 . S
C1384 C1386 1.378 . S
C1384 C1388 1.350 . S
C1385 C1388 1.463 . S
C1385 C1390 1.350 . S
C1385 N1393 1.427 . S
C1386 H1377 0.930 . S
C1386 C1384 1.378 . S
C1386 C1387 1.367 . S
C1387 C1386 1.367 . S
C1387 C1389 1.433 . S
C1388 C1384 1.350 . S
C1388 C1385 1.463 . S
C1388 N1392 1.427 . S
C1389 H1379 0.929 . S
C1389 C1387 1.433 . S
C1389 N1392 1.384 . S
C1390 H1381 0.929 . S
C1390 C1382 1.378 . S
C1390 C1385 1.350 . S
C1391 H1378 0.929 . S
C1391 C1383 1.433 . S
C1391 N1393 1.384 . S
N1392 C1388 1.427 . S
N1392 C1389 1.384 . S
N1393 C1385 1.427 . S
N1393 C1391 1.384 . S
H1394 C1400 0.930 . S
H1395 C1404 0.930 . S
H1396 C1409 0.929 . S
H1397 C1407 0.929 . S
H1398 C1402 0.929 . S
H1399 C1408 0.929 . S
C1400 H1394 0.930 . S
C1400 C1401 1.367 . S
C1400 C1408 1.378 . S
C1401 C1400 1.367 . S
C1401 C1409 1.433 . S
C1402 H1398 0.929 . S
C1402 C1404 1.378 . S
C1402 C1406 1.350 . S
C1403 C1406 1.463 . S
C1403 C1408 1.350 . S
C1403 N1411 1.427 . S
C1404 H1395 0.930 . S
C1404 C1402 1.378 . S
C1404 C1405 1.367 . S
C1405 C1404 1.367 . S
C1405 C1407 1.433 . S
C1406 C1402 1.350 . S
C1406 C1403 1.463 . S
C1406 N1410 1.427 . S
C1407 H1397 0.929 . S
C1407 C1405 1.433 . S
C1407 N1410 1.384 . S
C1408 H1399 0.929 . S
C1408 C1400 1.378 . S
C1408 C1403 1.350 . S
C1409 H1396 0.929 . S
C1409 C1401 1.433 . S
C1409 N1411 1.384 . S
N1410 C1406 1.427 . S
N1410 C1407 1.384 . S
N1411 C1403 1.427 . S
N1411 C1409 1.384 . S
H1412 C1418 0.930 . S
H1413 C1422 0.930 . S
H1414 C1427 0.929 . S
H1415 C1425 0.929 . S
H1416 C1420 0.929 . S
H1417 C1426 0.929 . S
C1418 H1412 0.930 . S
C1418 C1419 1.367 . S
C1418 C1426 1.378 . S
C1419 C1418 1.367 . S
C1419 C1427 1.433 . S
C1420 H1416 0.929 . S
C1420 C1422 1.378 . S
C1420 C1424 1.350 . S
C1421 C1424 1.463 . S
C1421 C1426 1.350 . S
C1421 N1429 1.427 . S
C1422 H1413 0.930 . S
C1422 C1420 1.378 . S
C1422 C1423 1.367 . S
C1423 C1422 1.367 . S
C1423 C1425 1.433 . S
C1424 C1420 1.350 . S
C1424 C1421 1.463 . S
C1424 N1428 1.427 . S
C1425 H1415 0.929 . S
C1425 C1423 1.433 . S
C1425 N1428 1.384 . S
C1426 H1417 0.929 . S
C1426 C1418 1.378 . S
C1426 C1421 1.350 . S
C1427 H1414 0.929 . S
C1427 C1419 1.433 . S
C1427 N1429 1.384 . S
N1428 C1424 1.427 . S
N1428 C1425 1.384 . S
N1429 C1421 1.427 . S
N1429 C1427 1.384 . S
H1430 C1436 0.930 . S
H1431 C1440 0.930 . S
H1432 C1445 0.929 . S
H1433 C1443 0.929 . S
H1434 C1438 0.929 . S
H1435 C1444 0.929 . S
C1436 H1430 0.930 . S
C1436 C1437 1.367 . S
C1436 C1444 1.378 . S
C1437 C1436 1.367 . S
C1437 C1445 1.433 . S
C1438 H1434 0.929 . S
C1438 C1440 1.378 . S
C1438 C1442 1.350 . S
C1439 C1442 1.463 . S
C1439 C1444 1.350 . S
C1439 N1447 1.427 . S
C1440 H1431 0.930 . S
C1440 C1438 1.378 . S
C1440 C1441 1.367 . S
C1441 C1440 1.367 . S
C1441 C1443 1.433 . S
C1442 C1438 1.350 . S
C1442 C1439 1.463 . S
C1442 N1446 1.427 . S
C1443 H1433 0.929 . S
C1443 C1441 1.433 . S
C1443 N1446 1.384 . S
C1444 H1435 0.929 . S
C1444 C1436 1.378 . S
C1444 C1439 1.350 . S
C1445 H1432 0.929 . S
C1445 C1437 1.433 . S
C1445 N1447 1.384 . S
N1446 C1442 1.427 . S
N1446 C1443 1.384 . S
N1447 C1439 1.427 . S
N1447 C1445 1.384 . S
H1448 C1454 0.930 . S
H1449 C1458 0.930 . S
H1450 C1463 0.929 . S
H1451 C1461 0.929 . S
H1452 C1456 0.929 . S
H1453 C1462 0.929 . S
C1454 H1448 0.930 . S
C1454 C1455 1.367 . S
C1454 C1462 1.378 . S
C1455 C1454 1.367 . S
C1455 C1463 1.433 . S
C1456 H1452 0.929 . S
C1456 C1458 1.378 . S
C1456 C1460 1.350 . S
C1457 C1460 1.463 . S
C1457 C1462 1.350 . S
C1457 N1465 1.427 . S
C1458 H1449 0.930 . S
C1458 C1456 1.378 . S
C1458 C1459 1.367 . S
C1459 C1458 1.367 . S
C1459 C1461 1.433 . S
C1460 C1456 1.350 . S
C1460 C1457 1.463 . S
C1460 N1464 1.427 . S
C1461 H1451 0.929 . S
C1461 C1459 1.433 . S
C1461 N1464 1.384 . S
C1462 H1453 0.929 . S
C1462 C1454 1.378 . S
C1462 C1457 1.350 . S
C1463 H1450 0.929 . S
C1463 C1455 1.433 . S
C1463 N1465 1.384 . S
N1464 C1460 1.427 . S
N1464 C1461 1.384 . S
N1465 C1457 1.427 . S
N1465 C1463 1.384 . S
H1466 C1472 0.930 . S
H1467 C1476 0.930 . S
H1468 C1481 0.929 . S
H1469 C1479 0.929 . S
H1470 C1474 0.929 . S
H1471 C1480 0.929 . S
C1472 H1466 0.930 . S
C1472 C1473 1.367 . S
C1472 C1480 1.378 . S
C1473 C1472 1.367 . S
C1473 C1481 1.433 . S
C1474 H1470 0.929 . S
C1474 C1476 1.378 . S
C1474 C1478 1.350 . S
C1475 C1478 1.463 . S
C1475 C1480 1.350 . S
C1475 N1483 1.427 . S
C1476 H1467 0.930 . S
C1476 C1474 1.378 . S
C1476 C1477 1.367 . S
C1477 C1476 1.367 . S
C1477 C1479 1.433 . S
C1478 C1474 1.350 . S
C1478 C1475 1.463 . S
C1478 N1482 1.427 . S
C1479 H1469 0.929 . S
C1479 C1477 1.433 . S
C1479 N1482 1.384 . S
C1480 H1471 0.929 . S
C1480 C1472 1.378 . S
C1480 C1475 1.350 . S
C1481 H1468 0.929 . S
C1481 C1473 1.433 . S
C1481 N1483 1.384 . S
N1482 C1478 1.427 . S
N1482 C1479 1.384 . S
N1483 C1475 1.427 . S
N1483 C1481 1.384 . S
H1484 C1490 0.930 . S
H1485 C1494 0.930 . S
H1486 C1499 0.929 . S
H1487 C1497 0.929 . S
H1488 C1492 0.929 . S
H1489 C1498 0.929 . S
C1490 H1484 0.930 . S
C1490 C1491 1.367 . S
C1490 C1498 1.378 . S
C1491 C1490 1.367 . S
C1491 C1499 1.433 . S
C1492 H1488 0.929 . S
C1492 C1494 1.378 . S
C1492 C1496 1.350 . S
C1493 C1496 1.463 . S
C1493 C1498 1.350 . S
C1493 N1501 1.427 . S
C1494 H1485 0.930 . S
C1494 C1492 1.378 . S
C1494 C1495 1.367 . S
C1495 C1494 1.367 . S
C1495 C1497 1.433 . S
C1496 C1492 1.350 . S
C1496 C1493 1.463 . S
C1496 N1500 1.427 . S
C1497 H1487 0.929 . S
C1497 C1495 1.433 . S
C1497 N1500 1.384 . S
C1498 H1489 0.929 . S
C1498 C1490 1.378 . S
C1498 C1493 1.350 . S
C1499 H1486 0.929 . S
C1499 C1491 1.433 . S
C1499 N1501 1.384 . S
N1500 C1496 1.427 . S
N1500 C1497 1.384 . S
N1501 C1493 1.427 . S
N1501 C1499 1.384 . S
H1502 C1508 0.930 . S
H1503 C1512 0.930 . S
H1504 C1517 0.929 . S
H1505 C1515 0.929 . S
H1506 C1510 0.929 . S
H1507 C1516 0.929 . S
C1508 H1502 0.930 . S
C1508 C1509 1.367 . S
C1508 C1516 1.378 . S
C1509 C1508 1.367 . S
C1509 C1517 1.433 . S
C1510 H1506 0.929 . S
C1510 C1512 1.378 . S
C1510 C1514 1.350 . S
C1511 C1514 1.463 . S
C1511 C1516 1.350 . S
C1511 N1519 1.427 . S
C1512 H1503 0.930 . S
C1512 C1510 1.378 . S
C1512 C1513 1.367 . S
C1513 C1512 1.367 . S
C1513 C1515 1.433 . S
C1514 C1510 1.350 . S
C1514 C1511 1.463 . S
C1514 N1518 1.427 . S
C1515 H1505 0.929 . S
C1515 C1513 1.433 . S
C1515 N1518 1.384 . S
C1516 H1507 0.929 . S
C1516 C1508 1.378 . S
C1516 C1511 1.350 . S
C1517 H1504 0.929 . S
C1517 C1509 1.433 . S
C1517 N1519 1.384 . S
N1518 C1514 1.427 . S
N1518 C1515 1.384 . S
N1519 C1511 1.427 . S
N1519 C1517 1.384 . S
C951 C3 1.626 . S
C955 C713 1.626 . S
C969 C772 1.630 . S
C973 C62 1.627 . S
C987 C121 1.623 . S
C991 C831 1.629 . S
C1005 C890 1.626 . S
C1009 C180 1.622 . S
C1023 C475 1.626 . S
C1027 C241 1.631 . S
C1041 C300 1.628 . S
C1045 C534 1.628 . S
C1059 C593 1.624 . S
C1063 C359 1.630 . S
C1077 C418 1.626 . S
C1081 C652 1.622 . S
C1095 C33 1.787 . S
C1099 C151 1.787 . S
C1113 C92 1.790 . S
C1117 C210 1.790 . S
C1131 C269 1.605 . S
C1135 C387 1.604 . S
C1149 C328 1.598 . S
C1153 C446 1.600 . S
C1167 C623 1.790 . S
C1171 C505 1.791 . S
C1185 C564 1.790 . S
C1189 C682 1.790 . S
C1203 C859 1.596 . S
C1207 C741 1.597 . S
C1221 C800 1.604 . S
C1225 C918 1.605 . S
C1239 C406 1.660 . S
C1243 C52 1.671 . S
C1257 C465 1.662 . S
C1261 C111 1.672 . S
C1275 C170 1.674 . S
C1279 C288 1.664 . S
C1293 C229 1.672 . S
C1297 C347 1.666 . S
C1311 C878 1.663 . S
C1315 C524 1.669 . S
C1329 C583 1.673 . S
C1333 C937 1.663 . S
C1347 C760 1.663 . S
C1351 C642 1.668 . S
C1365 C701 1.668 . S
C1369 C819 1.660 . S
C1383 C5 1.857 . S
C1387 C182 1.858 . S
C1401 C123 1.857 . S
C1405 C64 1.858 . S
C1419 C239 1.264 . S
C1423 C416 1.264 . S
C1437 C298 1.267 . S
C1441 C357 1.270 . S
C1455 C654 1.856 . S
C1459 C477 1.855 . S
C1473 C536 1.858 . S
C1477 C595 1.858 . S
C1491 C888 1.265 . S
C1495 C711 1.263 . S
C1509 C770 1.263 . S
C1513 C829 1.271 . S
