# Generated by pormake.
# Topology acs-a, (4)-cn, num edge types: 1
# Building blocks:
#     Node 0, Type 0, BuildingBlock: GALJAG_clean_sbu_0, # of connection points: 4
#     Node 1, Type 0, BuildingBlock: GALJAG_clean_sbu_0, # of connection points: 4
#     Node 2, Type 0, BuildingBlock: GALJAG_clean_sbu_0, # of connection points: 4
#     Node 3, Type 0, BuildingBlock: GALJAG_clean_sbu_0, # of connection points: 4
#     Node 4, Type 0, BuildingBlock: GALJAG_clean_sbu_0, # of connection points: 4
#     Node 5, Type 0, BuildingBlock: GALJAG_clean_sbu_0, # of connection points: 4
#     Node 6, Type 0, BuildingBlock: GALJAG_clean_sbu_0, # of connection points: 4
#     Node 7, Type 0, BuildingBlock: GALJAG_clean_sbu_0, # of connection points: 4
#     Node 8, Type 0, BuildingBlock: GALJAG_clean_sbu_0, # of connection points: 4
#     Node 9, Type 0, BuildingBlock: GALJAG_clean_sbu_0, # of connection points: 4
#     Node 10, Type 0, BuildingBlock: GALJAG_clean_sbu_0, # of connection points: 4
#     Node 11, Type 0, BuildingBlock: GALJAG_clean_sbu_0, # of connection points: 4
#     Edge 12, Type (0, 0), BuildingBlock: UVAHIK_clean_linker_0, # of connection points: 2
#     Edge 13, Type (0, 0), BuildingBlock: UVAHIK_clean_linker_0, # of connection points: 2
#     Edge 14, Type (0, 0), BuildingBlock: UVAHIK_clean_linker_0, # of connection points: 2
#     Edge 15, Type (0, 0), BuildingBlock: UVAHIK_clean_linker_0, # of connection points: 2
#     Edge 16, Type (0, 0), BuildingBlock: UVAHIK_clean_linker_0, # of connection points: 2
#     Edge 17, Type (0, 0), BuildingBlock: UVAHIK_clean_linker_0, # of connection points: 2
#     Edge 18, Type (0, 0), BuildingBlock: UVAHIK_clean_linker_0, # of connection points: 2
#     Edge 19, Type (0, 0), BuildingBlock: UVAHIK_clean_linker_0, # of connection points: 2
#     Edge 20, Type (0, 0), BuildingBlock: UVAHIK_clean_linker_0, # of connection points: 2
#     Edge 21, Type (0, 0), BuildingBlock: UVAHIK_clean_linker_0, # of connection points: 2
#     Edge 22, Type (0, 0), BuildingBlock: UVAHIK_clean_linker_0, # of connection points: 2
#     Edge 23, Type (0, 0), BuildingBlock: UVAHIK_clean_linker_0, # of connection points: 2
#     Edge 24, Type (0, 0), BuildingBlock: UVAHIK_clean_linker_0, # of connection points: 2
#     Edge 25, Type (0, 0), BuildingBlock: UVAHIK_clean_linker_0, # of connection points: 2
#     Edge 26, Type (0, 0), BuildingBlock: UVAHIK_clean_linker_0, # of connection points: 2
#     Edge 27, Type (0, 0), BuildingBlock: UVAHIK_clean_linker_0, # of connection points: 2
#     Edge 28, Type (0, 0), BuildingBlock: UVAHIK_clean_linker_0, # of connection points: 2
#     Edge 29, Type (0, 0), BuildingBlock: UVAHIK_clean_linker_0, # of connection points: 2
#     Edge 30, Type (0, 0), BuildingBlock: UVAHIK_clean_linker_0, # of connection points: 2
#     Edge 31, Type (0, 0), BuildingBlock: UVAHIK_clean_linker_0, # of connection points: 2
#     Edge 32, Type (0, 0), BuildingBlock: UVAHIK_clean_linker_0, # of connection points: 2
#     Edge 33, Type (0, 0), BuildingBlock: UVAHIK_clean_linker_0, # of connection points: 2
#     Edge 34, Type (0, 0), BuildingBlock: UVAHIK_clean_linker_0, # of connection points: 2
#     Edge 35, Type (0, 0), BuildingBlock: UVAHIK_clean_linker_0, # of connection points: 2
# Relax obj value: 0.468
# Max RMSD: 0.203
# Mean RMSD: 0.201
data_MOF--net-acs-a--node1-GALJAG_clean_sbu_0--edge1-UVAHIK_clean_linker_0
_symmetry_space_group_name_H-M    P1
_symmetry_Int_Tables_number       1
_symmetry_cell_setting            triclinic
loop_
_symmetry_equiv_pos_as_xyz
'x, y, z'
_cell_length_a     67.314924
_cell_length_b     67.297571
_cell_length_c     38.025444
_cell_angle_alpha  89.851917
_cell_angle_beta   90.13127
_cell_angle_gamma 119.76001
loop_
_atom_site_label
_atom_site_type_symbol
_atom_site_fract_x
_atom_site_fract_y
_atom_site_fract_z
_atom_type_partial_charge
In0 In 0.55937 0.15395 0.00368 0.0
O1 O 0.5717 0.17612 0.05336 0.0
O2 O 0.56214 0.14109 0.0579 0.0
C3 C 0.60186 0.17522 0.97583 0.0
C4 C 0.53447 0.10911 0.98935 0.0
C5 C 0.53285 0.17087 0.9805 0.0
O6 O 0.59328 0.15583 0.99024 0.0
O7 O 0.58895 0.1838 0.9752 0.0
O8 O 0.54212 0.16326 0.95977 0.0
O9 O 0.53649 0.1693 0.01264 0.0
C10 C 0.56934 0.16003 0.07315 0.0
O11 O 0.52869 0.11871 0.0124 0.0
O12 O 0.55223 0.1224 0.97223 0.0
In13 In 0.40165 0.57094 0.4809 0.0
O14 O 0.38232 0.57426 0.52828 0.0
O15 O 0.41484 0.57747 0.53719 0.0
C16 C 0.43054 0.61247 0.45363 0.0
C17 C 0.41865 0.54289 0.46894 0.0
C18 C 0.36004 0.55239 0.45073 0.0
O19 O 0.43327 0.60646 0.48387 0.0
O20 O 0.41345 0.59746 0.43701 0.0
O21 O 0.36772 0.54025 0.46365 0.0
O22 O 0.37326 0.5737 0.45324 0.0
C23 C 0.39758 0.57723 0.55028 0.0
O24 O 0.40416 0.53923 0.49258 0.0
O25 O 0.424 0.56034 0.45028 0.0
In26 In 0.8251 0.39481 0.05206 0.0
O27 O 0.86187 0.40167 0.05105 0.0
O28 O 0.85441 0.42524 0.02516 0.0
C29 C 0.80683 0.35161 0.02754 0.0
C30 C 0.82184 0.39465 0.12281 0.0
C31 C 0.80322 0.41594 0.02556 0.0
O32 O 0.8197 0.36881 0.00906 0.0
O33 O 0.80359 0.35623 0.05834 0.0
O34 O 0.8164 0.42347 0.05178 0.0
O35 O 0.80067 0.39745 0.01314 0.0
C36 C 0.86933 0.42004 0.03377 0.0
O37 O 0.84049 0.40102 0.10698 0.0
O38 O 0.80469 0.38826 0.10294 0.0
In39 In 0.40374 0.82137 0.4866 0.0
O40 O 0.43705 0.85491 0.48022 0.0
O41 O 0.40606 0.85489 0.46948 0.0
C42 C 0.43099 0.80385 0.47217 0.0
C43 C 0.39497 0.81683 0.55658 0.0
C44 C 0.36487 0.79979 0.44812 0.0
O45 O 0.42684 0.81514 0.44961 0.0
O46 O 0.4214 0.80151 0.50157 0.0
O47 O 0.36898 0.81603 0.46869 0.0
O48 O 0.38031 0.79443 0.44691 0.0
C49 C 0.42756 0.86634 0.47175 0.0
O50 O 0.3861 0.8 0.53587 0.0
O51 O 0.40778 0.83574 0.54194 0.0
In52 In 0.58254 0.4235 0.97635 0.0
O53 O 0.59048 0.40943 0.0261 0.0
O54 O 0.57143 0.42654 0.03183 0.0
C55 C 0.56115 0.38012 0.95283 0.0
C56 C 0.56105 0.44574 0.95293 0.0
C57 C 0.62639 0.44865 0.95512 0.0
O58 O 0.55079 0.38843 0.96956 0.0
O59 O 0.58221 0.39373 0.94795 0.0
O60 O 0.61091 0.43415 0.93541 0.0
O61 O 0.61957 0.45091 0.98487 0.0
C62 C 0.58052 0.41629 0.04669 0.0
O63 O 0.57756 0.4545 0.97419 0.0
O64 O 0.55603 0.42611 0.94216 0.0
In65 In 0.13995 0.57103 0.46283 0.0
O66 O 0.10568 0.5696 0.45577 0.0
O67 O 0.10651 0.53871 0.44989 0.0
C68 C 0.16117 0.61461 0.43966 0.0
C69 C 0.145 0.57326 0.53348 0.0
C70 C 0.16047 0.54906 0.43473 0.0
O71 O 0.14985 0.59796 0.41918 0.0
O72 O 0.16142 0.60915 0.47131 0.0
O73 O 0.14895 0.54256 0.4627 0.0
O74 O 0.16138 0.56647 0.42062 0.0
C75 C 0.09449 0.54826 0.45109 0.0
O76 O 0.16126 0.57714 0.51296 0.0
O77 O 0.12642 0.56821 0.51836 0.0
In78 In 0.82625 0.41036 0.57124 0.0
O79 O 0.86018 0.43684 0.59525 0.0
O80 O 0.85783 0.40665 0.57346 0.0
C81 C 0.81501 0.44213 0.58987 0.0
C82 C 0.82221 0.40452 0.50042 0.0
C83 C 0.79901 0.37001 0.6034 0.0
O84 O 0.81366 0.42705 0.61111 0.0
O85 O 0.82262 0.4415 0.55988 0.0
O86 O 0.82043 0.37859 0.60205 0.0
O87 O 0.79153 0.38187 0.58897 0.0
C88 C 0.87038 0.42598 0.58724 0.0
O89 O 0.80532 0.39439 0.52075 0.0
O90 O 0.84081 0.41734 0.51574 0.0
In91 In 0.41663 0.82632 0.00247 0.0
O92 O 0.42829 0.85877 0.03433 0.0
O93 O 0.45117 0.8586 0.99612 0.0
C94 C 0.37554 0.81877 0.02507 0.0
C95 C 0.41207 0.82081 0.93191 0.0
C96 C 0.42839 0.79688 0.03133 0.0
O97 O 0.38129 0.82172 0.99312 0.0
O98 O 0.39071 0.81994 0.04593 0.0
O99 O 0.44313 0.81627 0.01994 0.0
O100 O 0.40799 0.79247 0.02797 0.0
C101 C 0.44725 0.86984 0.01882 0.0
O102 O 0.41807 0.83959 0.94703 0.0
O103 O 0.40851 0.80458 0.95237 0.0
In104 In 0.58659 0.42258 0.49222 0.0
O105 O 0.56247 0.43203 0.5202 0.0
O106 O 0.58024 0.45127 0.47518 0.0
C107 C 0.56728 0.38016 0.51963 0.0
C108 C 0.586 0.41191 0.42356 0.0
C109 C 0.62673 0.44889 0.52531 0.0
O110 O 0.58858 0.39231 0.51489 0.0
O111 O 0.5557 0.38936 0.51045 0.0
O112 O 0.624 0.45044 0.49279 0.0
O113 O 0.60908 0.43425 0.54134 0.0
C114 C 0.56593 0.44785 0.499 0.0
O115 O 0.6043 0.42205 0.44108 0.0
O116 O 0.56815 0.40682 0.4408 0.0
In117 In 0.15106 0.60312 0.97891 0.0
O118 O 0.12172 0.57677 0.01178 0.0
O119 O 0.11514 0.59851 0.97913 0.0
C120 C 0.17029 0.5784 1.00081 0.0
C121 C 0.15383 0.60153 0.90827 0.0
C122 C 0.17115 0.64622 0.00444 0.0
O123 O 0.17801 0.59902 0.00958 0.0
O124 O 0.15316 0.57043 0.98065 0.0
O125 O 0.17024 0.64188 0.97207 0.0
O126 O 0.16179 0.62882 0.02399 0.0
C127 C 0.10733 0.58206 1.00065 0.0
O128 O 0.13541 0.5961 0.9242 0.0
O129 O 0.1711 0.60815 0.92795 0.0
In130 In 0.57179 0.15248 0.51927 0.0
O131 O 0.57384 0.14054 0.46412 0.0
O132 O 0.57952 0.17434 0.46947 0.0
C133 C 0.55016 0.17407 0.54476 0.0
C134 C 0.54723 0.10711 0.5309 0.0
C135 C 0.61311 0.17129 0.55043 0.0
O136 O 0.54317 0.16142 0.51795 0.0
O137 O 0.56772 0.17545 0.55896 0.0
O138 O 0.59478 0.15902 0.56708 0.0
O139 O 0.61052 0.17382 0.51815 0.0
C140 C 0.57816 0.15895 0.44908 0.0
O141 O 0.56877 0.11786 0.52974 0.0
O142 O 0.53805 0.11939 0.5274 0.0
In143 In 0.37817 0.54387 0.99331 0.0
O144 O 0.40722 0.53944 0.01485 0.0
O145 O 0.3802 0.51106 0.98886 0.0
C146 C 0.40265 0.58759 0.0149 0.0
C147 C 0.37774 0.55001 0.92319 0.0
C148 C 0.33671 0.52486 0.02481 0.0
O149 O 0.39844 0.571 0.03503 0.0
O150 O 0.39432 0.58203 0.9844 0.0
O151 O 0.34042 0.51635 0.99786 0.0
O152 O 0.35406 0.54238 0.03646 0.0
C153 C 0.39941 0.51933 0.00373 0.0
O154 O 0.39387 0.5492 0.93884 0.0
O155 O 0.36164 0.54765 0.94292 0.0
C156 C 0.57851 0.14385 0.38938 0.0
C157 C 0.58087 0.16194 0.41059 0.0
C158 C 0.58025 0.14621 0.35288 0.0
C159 C 0.57439 0.17908 0.28016 0.0
H160 H 0.60349 0.15164 0.22649 0.0
C161 C 0.57999 0.18364 0.12808 0.0
C162 C 0.57398 0.16283 0.11131 0.0
C163 C 0.58341 0.1858 0.1645 0.0
C164 C 0.59523 0.15931 0.24112 0.0
H165 H 0.58722 0.19683 0.41033 0.0
H166 H 0.59047 0.20106 0.34636 0.0
H167 H 0.60499 0.15149 0.29055 0.0
H168 H 0.56716 0.12808 0.11929 0.0
H169 H 0.57304 0.1318 0.18266 0.0
H170 H 0.56435 0.1866 0.23064 0.0
C171 C 0.58702 0.18495 0.358 0.0
C172 C 0.59606 0.15921 0.2778 0.0
C173 C 0.58528 0.18258 0.3946 0.0
C174 C 0.57182 0.14435 0.13148 0.0
C175 C 0.57534 0.14653 0.16776 0.0
C176 C 0.5736 0.17923 0.24342 0.0
C177 C 0.58442 0.16674 0.33672 0.0
C178 C 0.58529 0.16871 0.29777 0.0
C179 C 0.58102 0.16722 0.18473 0.0
C180 C 0.58365 0.16897 0.22354 0.0
H181 H 0.57502 0.1277 0.40095 0.0
H182 H 0.57778 0.13171 0.33727 0.0
H183 H 0.56571 0.18633 0.29475 0.0
H184 H 0.58178 0.19818 0.11316 0.0
H185 H 0.58795 0.202 0.17682 0.0
C186 C 0.41285 0.58207 0.61131 0.0
C187 C 0.39504 0.57885 0.58856 0.0
C188 C 0.41004 0.5818 0.64766 0.0
C189 C 0.36546 0.55908 0.71553 0.0
H190 H 0.41619 0.5982 0.77652 0.0
C191 C 0.35977 0.5545 0.86811 0.0
C192 C 0.37832 0.55446 0.88507 0.0
C193 C 0.36076 0.55925 0.8321 0.0
C194 C 0.40189 0.58711 0.75981 0.0
H195 H 0.36053 0.57344 0.58592 0.0
H196 H 0.35565 0.57313 0.64974 0.0
H197 H 0.41991 0.60435 0.71312 0.0
H198 H 0.41237 0.55925 0.87773 0.0
H199 H 0.41407 0.56746 0.81507 0.0
H200 H 0.3476 0.54164 0.76237 0.0
C201 C 0.3717 0.57563 0.63937 0.0
C202 C 0.40401 0.59062 0.72352 0.0
C203 C 0.37454 0.57595 0.60287 0.0
C204 C 0.39782 0.55919 0.8654 0.0
C205 C 0.39886 0.56407 0.82957 0.0
C206 C 0.36331 0.55562 0.75193 0.0
C207 C 0.38935 0.5783 0.66216 0.0
C208 C 0.38603 0.57632 0.70088 0.0
C209 C 0.3804 0.56423 0.81253 0.0
C210 C 0.38171 0.56927 0.77435 0.0
H211 H 0.42883 0.5843 0.60107 0.0
H212 H 0.42386 0.58356 0.66441 0.0
H213 H 0.35136 0.54761 0.69882 0.0
H214 H 0.34454 0.55093 0.88267 0.0
H215 H 0.34631 0.55934 0.81967 0.0
C216 C 0.79907 0.38568 0.17846 0.0
C217 C 0.82037 0.39489 0.16151 0.0
C218 C 0.79787 0.38615 0.21516 0.0
C219 C 0.83202 0.41731 0.29219 0.0
H220 H 0.78991 0.36334 0.34509 0.0
C221 C 0.84057 0.41252 0.44139 0.0
C222 C 0.82057 0.40214 0.46178 0.0
C223 C 0.83934 0.41112 0.4048 0.0
C224 C 0.80154 0.37865 0.33069 0.0
H225 H 0.85707 0.41169 0.16958 0.0
H226 H 0.855 0.41262 0.23348 0.0
H227 H 0.7898 0.36199 0.28082 0.0
H228 H 0.78356 0.38193 0.45996 0.0
H229 H 0.78134 0.37977 0.3957 0.0
H230 H 0.84373 0.43408 0.3417 0.0
C231 C 0.83924 0.40515 0.21847 0.0
C232 C 0.80149 0.37785 0.29391 0.0
C233 C 0.84042 0.40451 0.18189 0.0
C234 C 0.79926 0.39006 0.44486 0.0
C235 C 0.79801 0.38875 0.4081 0.0
C236 C 0.83198 0.41815 0.32883 0.0
C237 C 0.81797 0.39605 0.23549 0.0
C238 C 0.81697 0.39709 0.27435 0.0
C239 C 0.81805 0.39946 0.38765 0.0
C240 C 0.817 0.39874 0.34858 0.0
H241 H 0.78333 0.37813 0.16338 0.0
H242 H 0.78127 0.37913 0.22759 0.0
H243 H 0.84384 0.43254 0.27777 0.0
H244 H 0.85726 0.42179 0.45369 0.0
H245 H 0.85514 0.41913 0.38995 0.0
C246 C 0.41379 0.83724 0.87246 0.0
C247 C 0.40856 0.81809 0.89348 0.0
C248 C 0.40967 0.83486 0.83634 0.0
C249 C 0.40046 0.79665 0.76121 0.0
H250 H 0.37813 0.83378 0.71679 0.0
C251 C 0.38203 0.79306 0.61151 0.0
C252 C 0.39198 0.81461 0.5951 0.0
C253 C 0.3811 0.79135 0.64824 0.0
C254 C 0.3844 0.82333 0.72881 0.0
H255 H 0.39513 0.7814 0.89318 0.0
H256 H 0.38768 0.77714 0.82981 0.0
H257 H 0.38241 0.83462 0.78049 0.0
H258 H 0.40813 0.85118 0.60407 0.0
H259 H 0.40633 0.8482 0.66794 0.0
H260 H 0.40262 0.78557 0.70927 0.0
C261 C 0.39518 0.79406 0.8413 0.0
C262 C 0.38693 0.82386 0.76529 0.0
C263 C 0.39938 0.79648 0.87756 0.0
C264 C 0.40034 0.83434 0.61599 0.0
C265 C 0.39921 0.83262 0.65257 0.0
C266 C 0.39781 0.79604 0.72465 0.0
C267 C 0.4001 0.81322 0.82033 0.0
C268 C 0.39549 0.81094 0.78187 0.0
C269 C 0.38985 0.81115 0.66913 0.0
C270 C 0.39021 0.80975 0.70804 0.0
H271 H 0.42102 0.85415 0.88392 0.0
H272 H 0.41415 0.85005 0.82089 0.0
H273 H 0.40724 0.78661 0.77311 0.0
H274 H 0.37549 0.77758 0.59602 0.0
H275 H 0.37365 0.77458 0.66032 0.0
C276 C 0.60561 0.41896 0.36531 0.0
C277 C 0.58548 0.40793 0.38534 0.0
C278 C 0.60466 0.41721 0.32864 0.0
C279 C 0.5639 0.40454 0.25526 0.0
H280 H 0.61276 0.40591 0.19969 0.0
C281 C 0.58793 0.39927 0.1003 0.0
C282 C 0.58008 0.41318 0.08517 0.0
C283 C 0.58791 0.39676 0.13683 0.0
C284 C 0.5988 0.40523 0.21476 0.0
H285 H 0.54874 0.38543 0.38302 0.0
H286 H 0.54713 0.38173 0.31924 0.0
H287 H 0.61381 0.40345 0.26351 0.0
H288 H 0.56622 0.43548 0.09626 0.0
H289 H 0.56675 0.43166 0.15984 0.0
H290 H 0.54858 0.40571 0.20663 0.0
C291 C 0.56359 0.39232 0.33161 0.0
C292 C 0.59957 0.40412 0.25144 0.0
C293 C 0.56452 0.39429 0.36819 0.0
C294 C 0.5722 0.4245 0.10718 0.0
C295 C 0.57238 0.42218 0.14366 0.0
C296 C 0.56304 0.40544 0.21865 0.0
C297 C 0.58357 0.40419 0.31128 0.0
C298 C 0.58223 0.404 0.27218 0.0
C299 C 0.58022 0.40827 0.15899 0.0
C300 C 0.58062 0.40609 0.19792 0.0
H301 H 0.62199 0.42966 0.37785 0.0
H302 H 0.62037 0.42679 0.31389 0.0
H303 H 0.55039 0.4048 0.2703 0.0
H304 H 0.59402 0.39027 0.08393 0.0
H305 H 0.59375 0.38566 0.14765 0.0
C306 C 0.16878 0.58245 0.58828 0.0
C307 C 0.14746 0.57505 0.57211 0.0
C308 C 0.17095 0.58472 0.62489 0.0
C309 C 0.13685 0.56578 0.70664 0.0
H310 H 0.18707 0.6205 0.74744 0.0
C311 C 0.13469 0.59121 0.84964 0.0
C312 C 0.15474 0.59934 0.86976 0.0
C313 C 0.1351 0.58804 0.81348 0.0
C314 C 0.17312 0.60499 0.73646 0.0
H315 H 0.11171 0.56412 0.58144 0.0
H316 H 0.11549 0.56817 0.645 0.0
H317 H 0.18552 0.61477 0.68381 0.0
H318 H 0.19106 0.61087 0.86777 0.0
H319 H 0.19178 0.60526 0.80431 0.0
H320 H 0.12427 0.55609 0.75906 0.0
C321 C 0.13049 0.57198 0.62961 0.0
C322 C 0.17224 0.60169 0.70005 0.0
C323 C 0.12835 0.56979 0.59315 0.0
C324 C 0.17534 0.60461 0.85288 0.0
C325 C 0.17577 0.60146 0.81657 0.0
C326 C 0.13772 0.56906 0.74293 0.0
C327 C 0.1518 0.57951 0.64592 0.0
C328 C 0.15388 0.58222 0.68471 0.0
C329 C 0.15558 0.59292 0.79656 0.0
C330 C 0.15564 0.58888 0.75821 0.0
H331 H 0.1838 0.58663 0.57267 0.0
H332 H 0.18755 0.5904 0.63674 0.0
H333 H 0.12273 0.55037 0.69569 0.0
H334 H 0.11857 0.5871 0.86188 0.0
H335 H 0.11935 0.58184 0.7987 0.0
C336 C 0.50579 0.07012 0.0099 0.0
C337 C 0.52374 0.08405 0.98705 0.0
C338 C 0.4986 0.04687 0.01296 0.0
C339 C 0.50051 -0.00144 0.97139 0.0
H340 H 0.49349 0.97628 0.06736 0.0
C341 C 0.48056 0.90697 1.00015 0.0
C342 C 0.46172 0.89479 0.0225 0.0
C343 C 0.49125 0.93079 0.99817 0.0
C344 C 0.49533 0.98224 0.04045 0.0
H345 H 0.54725 0.08442 0.94779 0.0
H346 H 0.53461 0.04371 0.95308 0.0
H347 H 0.50381 0.01598 0.05644 0.0
H348 H 0.44044 0.89791 0.06235 0.0
H349 H 0.45899 0.93942 0.0588 0.0
H350 H 0.49166 0.96474 0.95535 0.0
C351 C 0.52613 0.05077 0.96865 0.0
C352 C 0.50111 0.00491 0.03418 0.0
C353 C 0.53335 0.07406 0.96561 0.0
C354 C 0.4549 0.90688 0.04482 0.0
C355 C 0.46558 0.93068 0.04285 0.0
C356 C 0.49468 0.97587 0.97766 0.0
C357 C 0.50921 0.03715 0.99319 0.0
C358 C 0.50347 0.0132 0.99959 0.0
C359 C 0.48329 0.94279 0.01857 0.0
C360 C 0.49178 0.96741 0.01225 0.0
H361 H 0.49799 0.07735 0.02663 0.0
H362 H 0.48515 0.03662 0.03152 0.0
H363 H 0.50211 0.00448 0.94448 0.0
H364 H 0.48626 0.89807 0.98279 0.0
H365 H 0.50516 0.93975 0.97972 0.0
C366 C 0.425 0.51148 0.49017 0.0
C367 C 0.43061 0.52965 0.46671 0.0
C368 C 0.43871 0.50139 0.49243 0.0
C369 C 0.48418 0.49568 0.44796 0.0
H370 H 0.50128 0.48925 0.54309 0.0
C371 C 0.55702 0.47689 0.47466 0.0
C372 C 0.55249 0.45964 0.4994 0.0
C373 C 0.54243 0.48594 0.47162 0.0
C374 C 0.4965 0.49074 0.51641 0.0
H375 H 0.45408 0.55066 0.42576 0.0
H376 H 0.47811 0.53303 0.42975 0.0
H377 H 0.47363 0.50214 0.53369 0.0
H378 H 0.52986 0.43901 0.54142 0.0
H379 H 0.50422 0.45472 0.53593 0.0
H380 H 0.50705 0.4843 0.43067 0.0
C381 C 0.46309 0.52654 0.44631 0.0
C382 C 0.48063 0.49804 0.51102 0.0
C383 C 0.44937 0.53665 0.44406 0.0
C384 C 0.53375 0.45234 0.52216 0.0
C385 C 0.51911 0.46136 0.51906 0.0
C386 C 0.50002 0.48835 0.45336 0.0
C387 C 0.45825 0.50928 0.47124 0.0
C388 C 0.47435 0.50062 0.47674 0.0
C389 C 0.52303 0.47787 0.49319 0.0
C390 C 0.5064 0.48589 0.48763 0.0
H391 H 0.41054 0.50565 0.50781 0.0
H392 H 0.43436 0.48781 0.51141 0.0
H393 H 0.47948 0.49732 0.42129 0.0
H394 H 0.57145 0.48293 0.45692 0.0
H395 H 0.54613 0.499 0.45195 0.0
C396 C 0.06686 0.57291 0.9926 0.0
C397 C 0.08284 0.56832 0.00904 0.0
C398 C 0.04345 0.55787 0.99673 0.0
C399 C 0.00092 0.50944 0.05025 0.0
H400 H 0.96523 0.49272 0.96416 0.0
C401 C 0.90084 0.45544 0.00704 0.0
C402 C 0.89381 0.43549 0.02705 0.0
C403 C 0.924 0.47154 0.00394 0.0
C404 C 0.97495 0.49735 0.98843 0.0
H405 H 0.08705 0.54516 0.04404 0.0
H406 H 0.04628 0.51886 0.05099 0.0
H407 H 0.00532 0.52262 0.96284 0.0
H408 H 0.90537 0.41621 0.0584 0.0
H409 H 0.94601 0.44438 0.0528 0.0
H410 H 0.97056 0.48397 0.07573 0.0
C411 C 0.05172 0.53409 0.03515 0.0
C412 C -0.00215 0.51454 0.98774 0.0
C413 C 0.07508 0.54911 0.03105 0.0
C414 C 0.91036 0.43147 0.04285 0.0
C415 C 0.93355 0.44765 0.03989 0.0
C416 C 0.97804 0.4922 0.05091 0.0
C417 C 0.03568 0.53803 0.01736 0.0
C418 C 0.01108 0.52071 0.01863 0.0
C419 C 0.94053 0.468 0.02092 0.0
C420 C 0.96488 0.48596 0.01998 0.0
H421 H 0.0724 0.58766 0.97558 0.0
H422 H 0.03145 0.56152 0.98318 0.0
H423 H 0.01063 0.51402 0.07453 0.0
H424 H 0.88841 0.45895 0.99457 0.0
H425 H 0.9289 0.48714 0.98934 0.0
C426 C 0.5452 0.06917 0.53244 0.0
C427 C 0.5339 0.08196 0.53134 0.0
C428 C 0.53304 0.04557 0.5272 0.0
C429 C 0.48152 0.00207 0.48298 0.0
H430 H 0.49418 0.95957 0.53382 0.0
C431 C 0.42846 0.90376 0.4681 0.0
C432 C 0.44028 0.89149 0.4702 0.0
C433 C 0.44003 0.9274 0.47326 0.0
C434 C 0.4907 0.9713 0.51907 0.0
H435 H 0.50092 0.08006 0.52594 0.0
H436 H 0.47959 0.03868 0.51716 0.0
H437 H 0.51316 -0.00035 0.55137 0.0
H438 H 0.47363 0.89439 0.47671 0.0
H439 H 0.49392 0.93575 0.48505 0.0
H440 H 0.4591 0.9737 0.45059 0.0
C441 C 0.4979 0.04698 0.52148 0.0
C442 C 0.50147 -0.00581 0.52925 0.0
C443 C 0.51006 0.0706 0.52679 0.0
C444 C 0.46407 0.90342 0.47522 0.0
C445 C 0.47564 0.92704 0.48029 0.0
C446 C 0.47074 0.97915 0.47277 0.0
C447 C 0.50938 0.03434 0.52075 0.0
C448 C 0.49705 0.00982 0.51124 0.0
C449 C 0.46361 0.93914 0.48051 0.0
C450 C 0.47532 0.96357 0.49061 0.0
H451 H 0.56358 0.0775 0.53588 0.0
H452 H 0.54237 0.03629 0.52657 0.0
H453 H 0.47808 0.01383 0.46823 0.0
H454 H 0.41009 0.89497 0.46429 0.0
H455 H 0.4303 0.93626 0.47339 0.0
C456 C 0.40643 0.48829 0.98252 0.0
C457 C 0.41357 0.50829 0.00234 0.0
C458 C 0.4218 0.48062 0.9749 0.0
C459 C 0.48337 0.50398 0.964 0.0
H460 H 0.46921 0.4407 0.96636 0.0
C461 C 0.55155 0.47663 0.96234 0.0
C462 C 0.54629 0.45577 0.94653 0.0
C463 C 0.53534 0.48376 0.9632 0.0
C464 C 0.47327 0.4584 0.96487 0.0
H465 H 0.44167 0.53495 0.03206 0.0
H466 H 0.46834 0.52138 0.01918 0.0
H467 H 0.44007 0.4503 0.9835 0.0
H468 H 0.52079 0.42692 0.9166 0.0
H469 H 0.49251 0.43958 0.91771 0.0
H470 H 0.5166 0.51216 0.94571 0.0
C471 C 0.45109 0.51194 0.00885 0.0
C472 C 0.45663 0.46388 0.97491 0.0
C473 C 0.43576 0.51956 0.0165 0.0
C474 C 0.52524 0.44304 0.92914 0.0
C475 C 0.50899 0.45017 0.93004 0.0
C476 C 0.49996 0.49851 0.95385 0.0
C477 C 0.4445 0.49289 0.98697 0.0
C478 C 0.46168 0.48677 0.97518 0.0
C479 C 0.51359 0.47016 0.94822 0.0
C480 C 0.49521 0.47571 0.95473 0.0
H481 H 0.38941 0.47929 0.97125 0.0
H482 H 0.41627 0.46585 0.95802 0.0
H483 H 0.48753 0.52173 0.96315 0.0
H484 H 0.56768 0.48681 0.97588 0.0
H485 H 0.53938 0.49919 0.97758 0.0
C486 C 0.90584 0.42455 0.57414 0.0
C487 C 0.8955 0.43706 0.58573 0.0
C488 C 0.92848 0.4359 0.56255 0.0
C489 C 0.98116 0.49283 0.55577 0.0
H490 H 0.98715 0.46934 0.46565 0.0
C491 C 0.05818 0.51101 0.45585 0.0
C492 C 0.06948 0.53505 0.45562 0.0
C493 C 0.03609 0.49845 0.46952 0.0
C494 C 0.98575 0.47601 0.49085 0.0
H495 H 0.9013 0.47102 0.59768 0.0
H496 H 0.94068 0.49084 0.57715 0.0
H497 H 0.95199 0.44811 0.49943 0.0
H498 H 0.06583 0.56473 0.46632 0.0
H499 H 0.02717 0.54274 0.48987 0.0
H500 H 0.01481 0.52094 0.54677 0.0
C501 C 0.93144 0.4723 0.57704 0.0
C502 C 0.96572 0.46378 0.5104 0.0
C503 C 0.90883 0.46094 0.58886 0.0
C504 C 0.05759 0.54621 0.46633 0.0
C505 C 0.03557 0.53367 0.48016 0.0
C506 C 0.00112 0.50512 0.53611 0.0
C507 C 0.94112 0.45994 0.56219 0.0
C508 C 0.96316 0.47209 0.54303 0.0
C509 C 0.02502 0.50976 0.48323 0.0
C510 C 0.00354 0.49689 0.50338 0.0
H511 H 0.896 0.40609 0.57177 0.0
H512 H 0.9357 0.42588 0.55218 0.0
H513 H 0.97982 0.49956 0.58094 0.0
H514 H 0.06695 0.50196 0.44771 0.0
H515 H 0.02833 0.48002 0.47149 0.0
C516 C 0.51603 0.19569 0.99283 0.0
C517 C 0.52171 0.18378 0.96833 0.0
C518 C 0.51036 0.21198 0.98161 0.0
C519 C 0.52415 0.25133 0.90711 0.0
H520 H 0.49567 0.27563 0.96882 0.0
C521 C 0.52615 0.34174 0.945 0.0
C522 C 0.54993 0.35596 0.9418 0.0
C523 C 0.51597 0.31833 0.93779 0.0
C524 C 0.50329 0.26901 0.95058 0.0
H525 H 0.52341 0.17759 0.91282 0.0
H526 H 0.51269 0.20554 0.89302 0.0
H527 H 0.48638 0.23608 0.97507 0.0
H528 H 0.58159 0.35716 0.92711 0.0
H529 H 0.56422 0.31651 0.91598 0.0
H530 H 0.54092 0.28419 0.88245 0.0
C531 C 0.51342 0.20293 0.92099 0.0
C532 C 0.4982 0.24633 0.95455 0.0
C533 C 0.51941 0.18679 0.93229 0.0
C534 C 0.56321 0.34661 0.92981 0.0
C535 C 0.55313 0.32324 0.92304 0.0
C536 C 0.52886 0.27385 0.90265 0.0
C537 C 0.50995 0.21655 0.94554 0.0
C538 C 0.50971 0.23767 0.93441 0.0
C539 C 0.52944 0.30867 0.92764 0.0
C540 C 0.51964 0.28341 0.92581 0.0
H541 H 0.51751 0.19364 0.02081 0.0
H542 H 0.50807 0.22215 1.00148 0.0
H543 H 0.53334 0.2454 0.89087 0.0
H544 H 0.51547 0.34859 0.95386 0.0
H545 H 0.49765 0.30773 0.94106 0.0
C546 C 0.31998 0.52009 0.44335 0.0
C547 C 0.33689 0.54268 0.43572 0.0
C548 C 0.2973 0.51209 0.43305 0.0
C549 C 0.25963 0.52495 0.37779 0.0
H550 H 0.22129 0.508 0.46076 0.0
C551 C 0.1918 0.5507 0.3979 0.0
C552 C 0.17398 0.53878 0.42198 0.0
C553 C 0.20738 0.54325 0.39082 0.0
C554 C 0.2313 0.51198 0.43689 0.0
H555 H 0.34388 0.57404 0.40919 0.0
H556 H 0.30444 0.56006 0.391 0.0
H557 H 0.25766 0.50889 0.4634 0.0
H558 H 0.15697 0.5085 0.45479 0.0
H559 H 0.18371 0.495 0.44151 0.0
H560 H 0.23362 0.52886 0.3516 0.0
C561 C 0.30858 0.54851 0.4049 0.0
C562 C 0.25226 0.51253 0.43851 0.0
C563 C 0.33112 0.5566 0.41563 0.0
C564 C 0.1708 0.5182 0.4365 0.0
C565 C 0.18619 0.51055 0.42901 0.0
C566 C 0.23849 0.52412 0.37601 0.0
C567 C 0.29133 0.52645 0.41446 0.0
C568 C 0.26708 0.52008 0.40951 0.0
C569 C 0.20528 0.52355 0.40734 0.0
C570 C 0.2246 0.51876 0.40609 0.0
H571 H 0.32403 0.509 0.45875 0.0
H572 H 0.28429 0.495 0.4407 0.0
H573 H 0.27067 0.53055 0.35492 0.0
H574 H 0.19462 0.5666 0.38626 0.0
H575 H 0.22194 0.55391 0.3743 0.0
C576 C 0.79449 0.32419 0.97705 0.0
C577 C 0.79418 0.3282 0.01323 0.0
C578 C 0.7791 0.30282 0.9628 0.0
C579 C 0.73361 0.24347 0.98736 0.0
H580 H 0.7002 0.25203 0.91121 0.0
C581 C 0.63561 0.21082 0.95371 0.0
C582 C 0.62584 0.18782 0.96389 0.0
C583 C 0.6591 0.22391 0.94789 0.0
C584 C 0.70939 0.24925 0.93233 0.0
H585 H 0.77908 0.31259 0.06328 0.0
H586 H 0.75212 0.27573 0.03867 0.0
H587 H 0.73836 0.28259 0.9259 0.0
H588 H 0.63252 0.15984 0.97292 0.0
H589 H 0.67361 0.18264 0.96207 0.0
H590 H 0.70379 0.21111 0.99618 0.0
C591 C 0.76425 0.28877 0.02108 0.0
C592 C 0.73146 0.26669 0.94046 0.0
C593 C 0.7796 0.31004 0.03525 0.0
C594 C 0.63969 0.17766 0.96553 0.0
C595 C 0.66322 0.19073 0.95942 0.0
C596 C 0.71143 0.22616 0.97954 0.0
C597 C 0.76318 0.28515 0.98452 0.0
C598 C 0.74329 0.26449 0.9694 0.0
C599 C 0.67334 0.21424 0.95184 0.0
C600 C 0.69859 0.22941 0.95322 0.0
H601 H 0.80572 0.33788 0.9595 0.0
H602 H 0.77893 0.30048 0.93461 0.0
H603 H 0.74252 0.24101 0.00922 0.0
H604 H 0.62533 0.21908 0.95212 0.0
H605 H 0.66622 0.242 0.9426 0.0
C606 C 0.45476 0.79491 0.43133 0.0
C607 C 0.44473 0.79283 0.46448 0.0
C608 C 0.4655 0.78221 0.42333 0.0
C609 C 0.48267 0.74195 0.46405 0.0
H610 H 0.46146 0.71011 0.37535 0.0
C611 C 0.4348 0.64473 0.41642 0.0
C612 C 0.44427 0.63616 0.44086 0.0
C613 C 0.44524 0.6682 0.41004 0.0
C614 C 0.46749 0.71874 0.40033 0.0
H615 H 0.43919 0.77693 0.51587 0.0
H616 H 0.45688 0.75435 0.50185 0.0
H617 H 0.46032 0.74508 0.38507 0.0
H618 H 0.47344 0.64476 0.47443 0.0
H619 H 0.49255 0.68565 0.46168 0.0
H620 H 0.48712 0.71436 0.48116 0.0
C621 C 0.45717 0.76607 0.48202 0.0
C622 C 0.46725 0.73916 0.40568 0.0
C623 C 0.44668 0.77884 0.49003 0.0
C624 C 0.4656 0.65108 0.45595 0.0
C625 C 0.47642 0.67455 0.4488 0.0
C626 C 0.48225 0.72123 0.45913 0.0
C627 C 0.46625 0.76711 0.44831 0.0
C628 C 0.47338 0.75016 0.43853 0.0
C629 C 0.4657 0.68361 0.42739 0.0
C630 C 0.47318 0.70854 0.42804 0.0
H631 H 0.45368 0.80578 0.41124 0.0
H632 H 0.47257 0.7837 0.39728 0.0
H633 H 0.4885 0.75053 0.48913 0.0
H634 H 0.41837 0.63356 0.40434 0.0
H635 H 0.43612 0.67418 0.39364 0.0
C636 C 0.65824 0.44778 0.92341 0.0
C637 C 0.65093 0.45869 0.94725 0.0
C638 C 0.68098 0.45269 0.92362 0.0
C639 C 0.72535 0.4699 0.9906 0.0
H640 H 0.75597 0.45528 0.91739 0.0
C641 C 0.79543 0.44855 0.0252 0.0
C642 C 0.79181 0.42789 0.01053 0.0
C643 C 0.78377 0.45931 0.01207 0.0
C644 C 0.74767 0.45953 0.93805 0.0
H645 H 0.66201 0.48552 0.9863 0.0
H646 H 0.70194 0.49484 0.98561 0.0
H647 H 0.72591 0.46404 0.90159 0.0
H648 H 0.77399 0.40277 0.96969 0.0
H649 H 0.75328 0.42129 0.94718 0.0
H650 H 0.74629 0.46449 0.02714 0.0
C651 C 0.69001 0.4818 0.96783 0.0
C652 C 0.73048 0.46455 0.92903 0.0
C653 C 0.66719 0.47659 0.96808 0.0
C654 C 0.777 0.41862 0.98164 0.0
C655 C 0.76535 0.42938 0.9685 0.0
C656 C 0.74256 0.46504 0.99954 0.0
C657 C 0.69682 0.46883 0.94736 0.0
C658 C 0.7185 0.46892 0.95535 0.0
C659 C 0.76828 0.4496 0.98401 0.0
C660 C 0.75331 0.45896 0.97352 0.0
H661 H 0.64603 0.43395 0.90698 0.0
H662 H 0.6855 0.44231 0.90749 0.0
H663 H 0.71632 0.47276 0.01175 0.0
H664 H 0.80695 0.45622 0.04726 0.0
H665 H 0.78654 0.47499 0.02434 0.0
C666 C 0.18567 0.65596 0.45259 0.0
C667 C 0.17503 0.63849 0.4276 0.0
C668 C 0.20193 0.67798 0.44231 0.0
C669 C 0.24488 0.70533 0.37385 0.0
H670 H 0.26096 0.75756 0.43396 0.0
C671 C 0.32766 0.79532 0.42703 0.0
C672 C 0.34292 0.78684 0.42935 0.0
C673 C 0.30566 0.78167 0.41338 0.0
C674 C 0.25674 0.74354 0.41606 0.0
H675 H 0.17164 0.63066 0.37192 0.0
H676 H 0.20016 0.66946 0.3537 0.0
H677 H 0.22218 0.72573 0.43429 0.0
H678 H 0.34779 0.75811 0.41732 0.0
H679 H 0.30933 0.73393 0.3953 0.0
H680 H 0.27947 0.72311 0.35566 0.0
C681 C 0.19611 0.66599 0.38137 0.0
C682 C 0.23445 0.72506 0.41665 0.0
C683 C 0.17972 0.64383 0.39175 0.0
C684 C 0.33633 0.76506 0.41591 0.0
C685 C 0.31426 0.75126 0.40289 0.0
C686 C 0.26709 0.72402 0.37273 0.0
C687 C 0.20796 0.68313 0.4067 0.0
C688 C 0.22871 0.70511 0.39742 0.0
C689 C 0.29835 0.7591 0.40245 0.0
C690 C 0.2737 0.74269 0.39559 0.0
H691 H 0.18228 0.65239 0.48041 0.0
H692 H 0.21086 0.69051 0.46271 0.0
H693 H 0.24108 0.69035 0.35841 0.0
H694 H 0.33247 0.81224 0.43674 0.0
H695 H 0.29412 0.78853 0.41269 0.0
C696 C 0.80992 0.47533 0.57475 0.0
C697 C 0.80497 0.4568 0.59704 0.0
C698 C 0.79631 0.48561 0.57537 0.0
C699 C 0.74533 0.48379 0.61844 0.0
H700 H 0.72727 0.4833 0.52146 0.0
C701 C 0.65334 0.45362 0.57448 0.0
C702 C 0.64942 0.4612 0.54215 0.0
C703 C 0.67564 0.46218 0.58702 0.0
C704 C 0.73233 0.48421 0.54873 0.0
H705 H 0.78355 0.43597 0.6399 0.0
H706 H 0.75924 0.45325 0.64016 0.0
H707 H 0.76206 0.48277 0.53413 0.0
H708 H 0.66534 0.48539 0.49947 0.0
H709 H 0.70422 0.50085 0.52181 0.0
H710 H 0.71458 0.48386 0.63273 0.0
C711 C 0.7738 0.46024 0.62259 0.0
C712 C 0.75245 0.48392 0.55606 0.0
C713 C 0.78768 0.45021 0.62235 0.0
C714 C 0.66793 0.47898 0.52421 0.0
C715 C 0.69019 0.48777 0.53697 0.0
C716 C 0.72509 0.48409 0.61106 0.0
C717 C 0.77721 0.4772 0.59777 0.0
C718 C 0.7588 0.48283 0.59096 0.0
C719 C 0.69441 0.47866 0.5676 0.0
C720 C 0.71794 0.48343 0.57607 0.0
H721 H 0.82342 0.48096 0.55534 0.0
H722 H 0.7998 0.49908 0.55659 0.0
H723 H 0.74992 0.48331 0.64562 0.0
H724 H 0.63934 0.43996 0.58892 0.0
H725 H 0.67819 0.45462 0.61055 0.0
C726 C 0.33566 0.80934 0.01125 0.0
C727 C 0.35203 0.81179 0.03635 0.0
C728 C 0.31252 0.79842 0.02002 0.0
C729 C 0.27489 0.75242 0.07829 0.0
H730 H 0.22868 0.75788 0.02491 0.0
C731 C 0.18839 0.67348 0.05465 0.0
C732 C 0.1842 0.6697 0.01839 0.0
C733 C 0.20403 0.69526 0.06718 0.0
C734 C 0.24132 0.75624 0.04041 0.0
H735 H 0.35742 0.80699 0.09122 0.0
H736 H 0.31687 0.78804 0.10674 0.0
H737 H 0.26723 0.79079 0.02981 0.0
H738 H 0.19139 0.68598 0.96716 0.0
H739 H 0.21879 0.72382 0.98882 0.0
H740 H 0.24956 0.71757 0.08708 0.0
C741 C 0.32189 0.79416 0.08008 0.0
C742 C 0.26338 0.77506 0.04319 0.0
C743 C 0.3451 0.80505 0.07123 0.0
C744 C 0.19444 0.68837 0.99522 0.0
C745 C 0.20998 0.71013 0.00773 0.0
C746 C 0.25285 0.73369 0.07567 0.0
C747 C 0.30526 0.78977 0.05415 0.0
C748 C 0.28075 0.77291 0.0604 0.0
C749 C 0.21565 0.71362 0.04366 0.0
C750 C 0.23621 0.73502 0.05502 0.0
H751 H 0.34053 0.81456 0.9842 0.0
H752 H 0.30027 0.79521 0.99923 0.0
H753 H 0.28779 0.75001 0.09158 0.0
H754 H 0.18055 0.6594 0.07315 0.0
H755 H 0.2079 0.6975 0.09504 0.0
C756 C 0.5524 0.20616 0.58014 0.0
C757 C 0.54048 0.18848 0.55586 0.0
C758 C 0.54602 0.2227 0.58565 0.0
C759 C 0.51889 0.24928 0.5352 0.0
H760 H 0.5387 0.28976 0.61592 0.0
C761 C 0.53355 0.34098 0.52699 0.0
C762 C 0.55671 0.35668 0.53359 0.0
C763 C 0.5242 0.3181 0.5372 0.0
C764 C 0.53274 0.27842 0.5934 0.0
H765 H 0.51112 0.17272 0.52108 0.0
H766 H 0.49942 0.20122 0.53158 0.0
H767 H 0.53342 0.25127 0.62168 0.0
H768 H 0.58789 0.3613 0.55782 0.0
H769 H 0.57145 0.32144 0.57626 0.0
H770 H 0.51882 0.27673 0.5068 0.0
C771 C 0.5142 0.20281 0.54547 0.0
C772 C 0.52986 0.25646 0.59656 0.0
C773 C 0.52081 0.18641 0.53958 0.0
C774 C 0.57002 0.34948 0.55224 0.0
C775 C 0.56056 0.32676 0.56308 0.0
C776 C 0.52136 0.27106 0.53226 0.0
C777 C 0.52738 0.22176 0.56732 0.0
C778 C 0.52416 0.2421 0.56696 0.0
C779 C 0.53775 0.31077 0.5549 0.0
C780 C 0.52941 0.28618 0.56084 0.0
H781 H 0.56759 0.20813 0.5932 0.0
H782 H 0.55681 0.23708 0.60238 0.0
H783 H 0.51467 0.23892 0.51169 0.0
H784 H 0.52294 0.34616 0.51264 0.0
H785 H 0.5066 0.30601 0.5305 0.0
C786 C 0.17242 0.54239 0.99991 0.0
C787 C 0.1806 0.56468 0.01276 0.0
C788 C 0.18307 0.52989 0.00951 0.0
C789 C 0.22452 0.52789 0.07182 0.0
H790 H 0.24357 0.50698 0.99052 0.0
C791 C 0.3102 0.53119 0.06248 0.0
C792 C 0.31345 0.51772 0.03756 0.0
C793 C 0.28851 0.52849 0.06784 0.0
C794 C 0.23794 0.51198 0.01383 0.0
H795 H 0.20559 0.59098 0.04695 0.0
H796 H 0.22435 0.56926 0.06346 0.0
H797 H 0.21512 0.5187 0.98368 0.0
H798 H 0.29626 0.48891 0.00209 0.0
H799 H 0.25817 0.48372 0.01217 0.0
H800 H 0.24809 0.52199 0.10173 0.0
C801 C 0.20958 0.56135 0.04624 0.0
C802 C 0.22163 0.51883 0.00981 0.0
C803 C 0.19901 0.57388 0.0365 0.0
C804 C 0.29427 0.49977 0.02108 0.0
C805 C 0.27249 0.4969 0.02671 0.0
C806 C 0.24073 0.52083 0.07594 0.0
C807 C 0.20201 0.53941 0.0323 0.0
C808 C 0.21548 0.52777 0.03843 0.0
C809 C 0.26958 0.51211 0.04858 0.0
C810 C 0.2484 0.51379 0.04665 0.0
H811 H 0.15813 0.53479 0.98177 0.0
H812 H 0.1768 0.51297 0.99853 0.0
H813 H 0.21976 0.53434 0.09446 0.0
H814 H 0.32466 0.54506 0.07581 0.0
H815 H 0.28706 0.5406 0.0848 0.0
C816 C 0.65533 0.19673 0.54759 0.0
C817 C 0.63563 0.18364 0.5678 0.0
C818 C 0.67612 0.21136 0.56385 0.0
C819 C 0.69595 0.24623 0.6424 0.0
H820 H 0.75457 0.26677 0.59731 0.0
C821 C 0.79152 0.33163 0.62455 0.0
C822 C 0.78355 0.34698 0.61753 0.0
C823 C 0.77604 0.30865 0.63213 0.0
C824 C 0.73855 0.26105 0.61103 0.0
H825 H 0.62251 0.17416 0.62087 0.0
H826 H 0.65901 0.19985 0.64943 0.0
H827 H 0.72267 0.22898 0.58395 0.0
H828 H 0.75352 0.35094 0.61574 0.0
H829 H 0.72663 0.31112 0.6286 0.0
H830 H 0.71159 0.27868 0.66838 0.0
C831 C 0.65829 0.19895 0.62099 0.0
C832 C 0.72018 0.23947 0.60304 0.0
C833 C 0.63743 0.18422 0.60465 0.0
C834 C 0.76012 0.33943 0.6208 0.0
C835 C 0.74472 0.31661 0.62856 0.0
C836 C 0.71435 0.26776 0.65054 0.0
C837 C 0.67768 0.21324 0.60071 0.0
C838 C 0.69836 0.23242 0.617 0.0
C839 C 0.75239 0.30077 0.63309 0.0
C840 C 0.73544 0.27593 0.6333 0.0
H841 H 0.65448 0.19653 0.51913 0.0
H842 H 0.69059 0.22231 0.54735 0.0
H843 H 0.67941 0.24135 0.65374 0.0
H844 H 0.80955 0.33706 0.62235 0.0
H845 H 0.78246 0.29688 0.63577 0.0
C846 C 0.42135 0.6291 1.00111 0.0
C847 C 0.41558 0.61171 0.02607 0.0
C848 C 0.4317 0.6519 0.0115 0.0
C849 C 0.43275 0.68568 0.08627 0.0
H850 H 0.47047 0.7349 0.02199 0.0
C851 C 0.45675 0.78397 0.04443 0.0
C852 C 0.43418 0.77994 0.04536 0.0
C853 C 0.46145 0.76657 0.0536 0.0
C854 C 0.46044 0.72162 0.04092 0.0
H855 H 0.41715 0.60451 0.08129 0.0
H856 H 0.43524 0.64466 0.09966 0.0
H857 H 0.46792 0.69781 0.01544 0.0
H858 H 0.39915 0.75524 0.05891 0.0
H859 H 0.40714 0.72494 0.07405 0.0
H860 H 0.42472 0.70931 0.11109 0.0
C861 C 0.43164 0.64055 0.07203 0.0
C862 C 0.45877 0.70024 0.03688 0.0
C863 C 0.42132 0.61762 0.06153 0.0
C864 C 0.41669 0.7588 0.0577 0.0
C865 C 0.42136 0.74147 0.06681 0.0
C866 C 0.43459 0.70713 0.09053 0.0
C867 C 0.43652 0.65789 0.04715 0.0
C868 C 0.44378 0.68169 0.05809 0.0
C869 C 0.44366 0.74489 0.06388 0.0
C870 C 0.44731 0.7249 0.06651 0.0
H871 H 0.41725 0.62507 0.97355 0.0
H872 H 0.43479 0.6647 0.99168 0.0
H873 H 0.42114 0.6718 0.10321 0.0
H874 H 0.4706 0.80022 0.0353 0.0
H875 H 0.47885 0.76982 0.05142 0.0
loop_
_geom_bond_atom_site_label_1
_geom_bond_atom_site_label_2
_geom_bond_distance
_geom_bond_site_symmetry_2
_ccdc_geom_bond_type
In0 O1 2.296 . S
In0 O2 2.328 . S
In0 O6 2.266 1_554 S
In0 O7 2.324 1_554 S
In0 O8 2.265 1_554 S
In0 O9 2.326 . S
In0 O11 2.293 1_554 S
In0 O12 2.326 . S
O1 In0 2.296 . S
O1 C10 1.240 . S
O2 In0 2.328 . S
O2 C10 1.252 . S
C3 O6 1.252 . S
C3 O7 1.260 . S
C4 O11 1.240 . S
C4 O12 1.252 1_556 S
C5 O8 1.252 . S
C5 O9 1.260 1_556 S
O6 In0 2.266 1_556 S
O6 C3 1.252 . S
O7 In0 2.324 1_556 S
O7 C3 1.260 . S
O8 In0 2.265 1_556 S
O8 C5 1.252 . S
O9 In0 2.326 . S
O9 C5 1.260 1_554 S
C10 O1 1.240 . S
C10 O2 1.252 . S
O11 In0 2.293 1_556 S
O11 C4 1.240 . S
O12 In0 2.326 . S
O12 C4 1.252 1_554 S
In13 O14 2.294 . S
In13 O15 2.326 . S
In13 O19 2.266 . S
In13 O20 2.326 . S
In13 O21 2.266 . S
In13 O22 2.326 . S
In13 O24 2.294 . S
In13 O25 2.326 . S
O14 In13 2.294 . S
O14 C23 1.240 . S
O15 In13 2.326 . S
O15 C23 1.252 . S
C16 O19 1.252 . S
C16 O20 1.260 . S
C17 O24 1.240 . S
C17 O25 1.252 . S
C18 O21 1.252 . S
C18 O22 1.260 . S
O19 In13 2.266 . S
O19 C16 1.252 . S
O20 In13 2.326 . S
O20 C16 1.260 . S
O21 In13 2.266 . S
O21 C18 1.252 . S
O22 In13 2.326 . S
O22 C18 1.260 . S
C23 O14 1.240 . S
C23 O15 1.252 . S
O24 In13 2.294 . S
O24 C17 1.240 . S
O25 In13 2.326 . S
O25 C17 1.252 . S
In26 O27 2.293 1_554 S
In26 O28 2.326 . S
In26 O32 2.265 1_554 S
In26 O33 2.326 . S
In26 O34 2.266 1_554 S
In26 O35 2.324 1_554 S
In26 O37 2.296 . S
In26 O38 2.328 . S
O27 In26 2.293 1_556 S
O27 C36 1.240 . S
O28 In26 2.326 . S
O28 C36 1.252 1_554 S
C29 O32 1.252 . S
C29 O33 1.260 1_556 S
C30 O37 1.240 . S
C30 O38 1.252 . S
C31 O34 1.252 . S
C31 O35 1.260 . S
O32 In26 2.265 1_556 S
O32 C29 1.252 . S
O33 In26 2.326 . S
O33 C29 1.260 1_554 S
O34 In26 2.266 1_556 S
O34 C31 1.252 . S
O35 In26 2.324 1_556 S
O35 C31 1.260 . S
C36 O27 1.240 . S
C36 O28 1.252 1_556 S
O37 In26 2.296 . S
O37 C30 1.240 . S
O38 In26 2.328 . S
O38 C30 1.252 . S
In39 O40 2.294 . S
In39 O41 2.326 . S
In39 O45 2.266 . S
In39 O46 2.326 . S
In39 O47 2.266 . S
In39 O48 2.326 . S
In39 O50 2.294 . S
In39 O51 2.326 . S
O40 In39 2.294 . S
O40 C49 1.240 . S
O41 In39 2.326 . S
O41 C49 1.252 . S
C42 O45 1.252 . S
C42 O46 1.260 . S
C43 O50 1.240 . S
C43 O51 1.252 . S
C44 O47 1.252 . S
C44 O48 1.260 . S
O45 In39 2.266 . S
O45 C42 1.252 . S
O46 In39 2.326 . S
O46 C42 1.260 . S
O47 In39 2.266 . S
O47 C44 1.252 . S
O48 In39 2.326 . S
O48 C44 1.260 . S
C49 O40 1.240 . S
C49 O41 1.252 . S
O50 In39 2.294 . S
O50 C43 1.240 . S
O51 In39 2.326 . S
O51 C43 1.252 . S
In52 O53 2.296 . S
In52 O54 2.328 . S
In52 O58 2.266 1_554 S
In52 O59 2.324 1_554 S
In52 O60 2.265 1_554 S
In52 O61 2.326 . S
In52 O63 2.293 1_554 S
In52 O64 2.326 . S
O53 In52 2.296 . S
O53 C62 1.240 . S
O54 In52 2.328 . S
O54 C62 1.252 . S
C55 O58 1.252 . S
C55 O59 1.260 . S
C56 O63 1.240 . S
C56 O64 1.252 1_556 S
C57 O60 1.252 . S
C57 O61 1.260 1_556 S
O58 In52 2.266 1_556 S
O58 C55 1.252 . S
O59 In52 2.324 1_556 S
O59 C55 1.260 . S
O60 In52 2.265 1_556 S
O60 C57 1.252 . S
O61 In52 2.326 . S
O61 C57 1.260 1_554 S
C62 O53 1.240 . S
C62 O54 1.252 . S
O63 In52 2.293 1_556 S
O63 C56 1.240 . S
O64 In52 2.326 . S
O64 C56 1.252 1_554 S
In65 O66 2.294 . S
In65 O67 2.326 . S
In65 O71 2.266 . S
In65 O72 2.326 . S
In65 O73 2.266 . S
In65 O74 2.326 . S
In65 O76 2.294 . S
In65 O77 2.326 . S
O66 In65 2.294 . S
O66 C75 1.240 . S
O67 In65 2.326 . S
O67 C75 1.252 . S
C68 O71 1.252 . S
C68 O72 1.260 . S
C69 O76 1.240 . S
C69 O77 1.252 . S
C70 O73 1.252 . S
C70 O74 1.260 . S
O71 In65 2.266 . S
O71 C68 1.252 . S
O72 In65 2.326 . S
O72 C68 1.260 . S
O73 In65 2.266 . S
O73 C70 1.252 . S
O74 In65 2.326 . S
O74 C70 1.260 . S
C75 O66 1.240 . S
C75 O67 1.252 . S
O76 In65 2.294 . S
O76 C69 1.240 . S
O77 In65 2.326 . S
O77 C69 1.252 . S
In78 O79 2.294 . S
In78 O80 2.326 . S
In78 O84 2.266 . S
In78 O85 2.326 . S
In78 O86 2.266 . S
In78 O87 2.326 . S
In78 O89 2.294 . S
In78 O90 2.326 . S
O79 In78 2.294 . S
O79 C88 1.240 . S
O80 In78 2.326 . S
O80 C88 1.252 . S
C81 O84 1.252 . S
C81 O85 1.260 . S
C82 O89 1.240 . S
C82 O90 1.252 . S
C83 O86 1.252 . S
C83 O87 1.260 . S
O84 In78 2.266 . S
O84 C81 1.252 . S
O85 In78 2.326 . S
O85 C81 1.260 . S
O86 In78 2.266 . S
O86 C83 1.252 . S
O87 In78 2.326 . S
O87 C83 1.260 . S
C88 O79 1.240 . S
C88 O80 1.252 . S
O89 In78 2.294 . S
O89 C82 1.240 . S
O90 In78 2.326 . S
O90 C82 1.252 . S
In91 O92 2.293 1_556 S
In91 O93 2.326 . S
In91 O97 2.265 1_556 S
In91 O98 2.326 . S
In91 O99 2.266 1_556 S
In91 O100 2.324 1_556 S
In91 O102 2.296 . S
In91 O103 2.328 . S
O92 In91 2.293 1_554 S
O92 C101 1.240 . S
O93 In91 2.326 . S
O93 C101 1.252 1_556 S
C94 O97 1.252 . S
C94 O98 1.260 1_554 S
C95 O102 1.240 . S
C95 O103 1.252 . S
C96 O99 1.252 . S
C96 O100 1.260 . S
O97 In91 2.265 1_554 S
O97 C94 1.252 . S
O98 In91 2.326 . S
O98 C94 1.260 1_556 S
O99 In91 2.266 1_554 S
O99 C96 1.252 . S
O100 In91 2.324 1_554 S
O100 C96 1.260 . S
C101 O92 1.240 . S
C101 O93 1.252 1_554 S
O102 In91 2.296 . S
O102 C95 1.240 . S
O103 In91 2.328 . S
O103 C95 1.252 . S
In104 O105 2.294 . S
In104 O106 2.326 . S
In104 O110 2.266 . S
In104 O111 2.326 . S
In104 O112 2.266 . S
In104 O113 2.326 . S
In104 O115 2.294 . S
In104 O116 2.326 . S
O105 In104 2.294 . S
O105 C114 1.240 . S
O106 In104 2.326 . S
O106 C114 1.252 . S
C107 O110 1.252 . S
C107 O111 1.260 . S
C108 O115 1.240 . S
C108 O116 1.252 . S
C109 O112 1.252 . S
C109 O113 1.260 . S
O110 In104 2.266 . S
O110 C107 1.252 . S
O111 In104 2.326 . S
O111 C107 1.260 . S
O112 In104 2.266 . S
O112 C109 1.252 . S
O113 In104 2.326 . S
O113 C109 1.260 . S
C114 O105 1.240 . S
C114 O106 1.252 . S
O115 In104 2.294 . S
O115 C108 1.240 . S
O116 In104 2.326 . S
O116 C108 1.252 . S
In117 O118 2.293 1_556 S
In117 O119 2.326 . S
In117 O123 2.265 1_556 S
In117 O124 2.326 . S
In117 O125 2.266 1_556 S
In117 O126 2.324 1_556 S
In117 O128 2.296 . S
In117 O129 2.328 . S
O118 In117 2.293 1_554 S
O118 C127 1.240 . S
O119 In117 2.326 . S
O119 C127 1.252 1_556 S
C120 O123 1.252 . S
C120 O124 1.260 1_554 S
C121 O128 1.240 . S
C121 O129 1.252 . S
C122 O125 1.252 . S
C122 O126 1.260 . S
O123 In117 2.265 1_554 S
O123 C120 1.252 . S
O124 In117 2.326 . S
O124 C120 1.260 1_556 S
O125 In117 2.266 1_554 S
O125 C122 1.252 . S
O126 In117 2.324 1_554 S
O126 C122 1.260 . S
C127 O118 1.240 . S
C127 O119 1.252 1_554 S
O128 In117 2.296 . S
O128 C121 1.240 . S
O129 In117 2.328 . S
O129 C121 1.252 . S
In130 O131 2.294 . S
In130 O132 2.326 . S
In130 O136 2.266 . S
In130 O137 2.326 . S
In130 O138 2.266 . S
In130 O139 2.326 . S
In130 O141 2.294 . S
In130 O142 2.326 . S
O131 In130 2.294 . S
O131 C140 1.240 . S
O132 In130 2.326 . S
O132 C140 1.252 . S
C133 O136 1.252 . S
C133 O137 1.260 . S
C134 O141 1.240 . S
C134 O142 1.252 . S
C135 O138 1.252 . S
C135 O139 1.260 . S
O136 In130 2.266 . S
O136 C133 1.252 . S
O137 In130 2.326 . S
O137 C133 1.260 . S
O138 In130 2.266 . S
O138 C135 1.252 . S
O139 In130 2.326 . S
O139 C135 1.260 . S
C140 O131 1.240 . S
C140 O132 1.252 . S
O141 In130 2.294 . S
O141 C134 1.240 . S
O142 In130 2.326 . S
O142 C134 1.252 . S
In143 O144 2.293 1_556 S
In143 O145 2.326 . S
In143 O149 2.265 1_556 S
In143 O150 2.326 . S
In143 O151 2.266 1_556 S
In143 O152 2.324 1_556 S
In143 O154 2.296 . S
In143 O155 2.328 . S
O144 In143 2.293 1_554 S
O144 C153 1.240 . S
O145 In143 2.326 . S
O145 C153 1.252 1_556 S
C146 O149 1.252 . S
C146 O150 1.260 1_554 S
C147 O154 1.240 . S
C147 O155 1.252 . S
C148 O151 1.252 . S
C148 O152 1.260 . S
O149 In143 2.265 1_554 S
O149 C146 1.252 . S
O150 In143 2.326 . S
O150 C146 1.260 1_556 S
O151 In143 2.266 1_554 S
O151 C148 1.252 . S
O152 In143 2.324 1_554 S
O152 C148 1.260 . S
C153 O144 1.240 . S
C153 O145 1.252 1_554 S
O154 In143 2.296 . S
O154 C147 1.240 . S
O155 In143 2.328 . S
O155 C147 1.252 . S
C156 C157 1.349 . S
C156 C158 1.327 . S
C156 H181 0.950 . S
C157 C156 1.349 . S
C157 C173 1.349 . S
C158 C156 1.327 . S
C158 C177 1.429 . S
C158 H182 0.950 . S
C159 C176 1.574 . S
C159 C178 1.368 . S
C159 H183 0.949 . S
H160 C164 0.949 . S
C161 C162 1.349 . S
C161 C163 1.327 . S
C161 H184 0.950 . S
C162 C161 1.349 . S
C162 C174 1.349 . S
C163 C161 1.327 . S
C163 C179 1.429 . S
C163 H185 0.950 . S
C164 H160 0.949 . S
C164 C172 1.574 . S
C164 C180 1.368 . S
H165 C173 0.950 . S
H166 C171 0.950 . S
H167 C172 0.949 . S
H168 C174 0.950 . S
H169 C175 0.950 . S
H170 C176 0.949 . S
C171 H166 0.950 . S
C171 C173 1.327 . S
C171 C177 1.429 . S
C172 C164 1.574 . S
C172 H167 0.949 . S
C172 C178 1.368 . S
C173 C157 1.349 . S
C173 H165 0.950 . S
C173 C171 1.327 . S
C174 C162 1.349 . S
C174 H168 0.950 . S
C174 C175 1.327 . S
C175 H169 0.950 . S
C175 C174 1.327 . S
C175 C179 1.429 . S
C176 C159 1.574 . S
C176 H170 0.949 . S
C176 C180 1.368 . S
C177 C158 1.429 . S
C177 C171 1.429 . S
C177 C178 1.523 . S
C178 C159 1.368 . S
C178 C172 1.368 . S
C178 C177 1.523 . S
C179 C163 1.429 . S
C179 C175 1.429 . S
C179 C180 1.523 . S
C180 C164 1.368 . S
C180 C176 1.368 . S
C180 C179 1.523 . S
H181 C156 0.950 . S
H182 C158 0.950 . S
H183 C159 0.949 . S
H184 C161 0.950 . S
H185 C163 0.950 . S
C186 C187 1.349 . S
C186 C188 1.327 . S
C186 H211 0.950 . S
C187 C186 1.349 . S
C187 C203 1.349 . S
C188 C186 1.327 . S
C188 C207 1.429 . S
C188 H212 0.950 . S
C189 C206 1.574 . S
C189 C208 1.368 . S
C189 H213 0.949 . S
H190 C194 0.949 . S
C191 C192 1.349 . S
C191 C193 1.327 . S
C191 H214 0.950 . S
C192 C191 1.349 . S
C192 C204 1.349 . S
C193 C191 1.327 . S
C193 C209 1.429 . S
C193 H215 0.950 . S
C194 H190 0.949 . S
C194 C202 1.574 . S
C194 C210 1.368 . S
H195 C203 0.950 . S
H196 C201 0.950 . S
H197 C202 0.949 . S
H198 C204 0.950 . S
H199 C205 0.950 . S
H200 C206 0.949 . S
C201 H196 0.950 . S
C201 C203 1.327 . S
C201 C207 1.429 . S
C202 C194 1.574 . S
C202 H197 0.949 . S
C202 C208 1.368 . S
C203 C187 1.349 . S
C203 H195 0.950 . S
C203 C201 1.327 . S
C204 C192 1.349 . S
C204 H198 0.950 . S
C204 C205 1.327 . S
C205 H199 0.950 . S
C205 C204 1.327 . S
C205 C209 1.429 . S
C206 C189 1.574 . S
C206 H200 0.949 . S
C206 C210 1.368 . S
C207 C188 1.429 . S
C207 C201 1.429 . S
C207 C208 1.523 . S
C208 C189 1.368 . S
C208 C202 1.368 . S
C208 C207 1.523 . S
C209 C193 1.429 . S
C209 C205 1.429 . S
C209 C210 1.523 . S
C210 C194 1.368 . S
C210 C206 1.368 . S
C210 C209 1.523 . S
H211 C186 0.950 . S
H212 C188 0.950 . S
H213 C189 0.949 . S
H214 C191 0.950 . S
H215 C193 0.950 . S
C216 C217 1.349 . S
C216 C218 1.327 . S
C216 H241 0.950 . S
C217 C216 1.349 . S
C217 C233 1.349 . S
C218 C216 1.327 . S
C218 C237 1.429 . S
C218 H242 0.950 . S
C219 C236 1.574 . S
C219 C238 1.368 . S
C219 H243 0.949 . S
H220 C224 0.949 . S
C221 C222 1.349 . S
C221 C223 1.327 . S
C221 H244 0.950 . S
C222 C221 1.349 . S
C222 C234 1.349 . S
C223 C221 1.327 . S
C223 C239 1.429 . S
C223 H245 0.950 . S
C224 H220 0.949 . S
C224 C232 1.574 . S
C224 C240 1.368 . S
H225 C233 0.950 . S
H226 C231 0.950 . S
H227 C232 0.949 . S
H228 C234 0.950 . S
H229 C235 0.950 . S
H230 C236 0.949 . S
C231 H226 0.950 . S
C231 C233 1.327 . S
C231 C237 1.429 . S
C232 C224 1.574 . S
C232 H227 0.949 . S
C232 C238 1.368 . S
C233 C217 1.349 . S
C233 H225 0.950 . S
C233 C231 1.327 . S
C234 C222 1.349 . S
C234 H228 0.950 . S
C234 C235 1.327 . S
C235 H229 0.950 . S
C235 C234 1.327 . S
C235 C239 1.429 . S
C236 C219 1.574 . S
C236 H230 0.949 . S
C236 C240 1.368 . S
C237 C218 1.429 . S
C237 C231 1.429 . S
C237 C238 1.523 . S
C238 C219 1.368 . S
C238 C232 1.368 . S
C238 C237 1.523 . S
C239 C223 1.429 . S
C239 C235 1.429 . S
C239 C240 1.523 . S
C240 C224 1.368 . S
C240 C236 1.368 . S
C240 C239 1.523 . S
H241 C216 0.950 . S
H242 C218 0.950 . S
H243 C219 0.949 . S
H244 C221 0.950 . S
H245 C223 0.950 . S
C246 C247 1.349 . S
C246 C248 1.327 . S
C246 H271 0.950 . S
C247 C246 1.349 . S
C247 C263 1.349 . S
C248 C246 1.327 . S
C248 C267 1.429 . S
C248 H272 0.950 . S
C249 C266 1.574 . S
C249 C268 1.368 . S
C249 H273 0.949 . S
H250 C254 0.949 . S
C251 C252 1.349 . S
C251 C253 1.327 . S
C251 H274 0.950 . S
C252 C251 1.349 . S
C252 C264 1.349 . S
C253 C251 1.327 . S
C253 C269 1.429 . S
C253 H275 0.950 . S
C254 H250 0.949 . S
C254 C262 1.574 . S
C254 C270 1.368 . S
H255 C263 0.950 . S
H256 C261 0.950 . S
H257 C262 0.949 . S
H258 C264 0.950 . S
H259 C265 0.950 . S
H260 C266 0.949 . S
C261 H256 0.950 . S
C261 C263 1.327 . S
C261 C267 1.429 . S
C262 C254 1.574 . S
C262 H257 0.949 . S
C262 C268 1.368 . S
C263 C247 1.349 . S
C263 H255 0.950 . S
C263 C261 1.327 . S
C264 C252 1.349 . S
C264 H258 0.950 . S
C264 C265 1.327 . S
C265 H259 0.950 . S
C265 C264 1.327 . S
C265 C269 1.429 . S
C266 C249 1.574 . S
C266 H260 0.949 . S
C266 C270 1.368 . S
C267 C248 1.429 . S
C267 C261 1.429 . S
C267 C268 1.523 . S
C268 C249 1.368 . S
C268 C262 1.368 . S
C268 C267 1.523 . S
C269 C253 1.429 . S
C269 C265 1.429 . S
C269 C270 1.523 . S
C270 C254 1.368 . S
C270 C266 1.368 . S
C270 C269 1.523 . S
H271 C246 0.950 . S
H272 C248 0.950 . S
H273 C249 0.949 . S
H274 C251 0.950 . S
H275 C253 0.950 . S
C276 C277 1.349 . S
C276 C278 1.327 . S
C276 H301 0.950 . S
C277 C276 1.349 . S
C277 C293 1.349 . S
C278 C276 1.327 . S
C278 C297 1.429 . S
C278 H302 0.950 . S
C279 C296 1.574 . S
C279 C298 1.368 . S
C279 H303 0.949 . S
H280 C284 0.949 . S
C281 C282 1.349 . S
C281 C283 1.327 . S
C281 H304 0.950 . S
C282 C281 1.349 . S
C282 C294 1.349 . S
C283 C281 1.327 . S
C283 C299 1.429 . S
C283 H305 0.950 . S
C284 H280 0.949 . S
C284 C292 1.574 . S
C284 C300 1.368 . S
H285 C293 0.950 . S
H286 C291 0.950 . S
H287 C292 0.949 . S
H288 C294 0.950 . S
H289 C295 0.950 . S
H290 C296 0.949 . S
C291 H286 0.950 . S
C291 C293 1.327 . S
C291 C297 1.429 . S
C292 C284 1.574 . S
C292 H287 0.949 . S
C292 C298 1.368 . S
C293 C277 1.349 . S
C293 H285 0.950 . S
C293 C291 1.327 . S
C294 C282 1.349 . S
C294 H288 0.950 . S
C294 C295 1.327 . S
C295 H289 0.950 . S
C295 C294 1.327 . S
C295 C299 1.429 . S
C296 C279 1.574 . S
C296 H290 0.949 . S
C296 C300 1.368 . S
C297 C278 1.429 . S
C297 C291 1.429 . S
C297 C298 1.523 . S
C298 C279 1.368 . S
C298 C292 1.368 . S
C298 C297 1.523 . S
C299 C283 1.429 . S
C299 C295 1.429 . S
C299 C300 1.523 . S
C300 C284 1.368 . S
C300 C296 1.368 . S
C300 C299 1.523 . S
H301 C276 0.950 . S
H302 C278 0.950 . S
H303 C279 0.949 . S
H304 C281 0.950 . S
H305 C283 0.950 . S
C306 C307 1.349 . S
C306 C308 1.327 . S
C306 H331 0.950 . S
C307 C306 1.349 . S
C307 C323 1.349 . S
C308 C306 1.327 . S
C308 C327 1.429 . S
C308 H332 0.950 . S
C309 C326 1.574 . S
C309 C328 1.368 . S
C309 H333 0.949 . S
H310 C314 0.949 . S
C311 C312 1.349 . S
C311 C313 1.327 . S
C311 H334 0.950 . S
C312 C311 1.349 . S
C312 C324 1.349 . S
C313 C311 1.327 . S
C313 C329 1.429 . S
C313 H335 0.950 . S
C314 H310 0.949 . S
C314 C322 1.574 . S
C314 C330 1.368 . S
H315 C323 0.950 . S
H316 C321 0.950 . S
H317 C322 0.949 . S
H318 C324 0.950 . S
H319 C325 0.950 . S
H320 C326 0.949 . S
C321 H316 0.950 . S
C321 C323 1.327 . S
C321 C327 1.429 . S
C322 C314 1.574 . S
C322 H317 0.949 . S
C322 C328 1.368 . S
C323 C307 1.349 . S
C323 H315 0.950 . S
C323 C321 1.327 . S
C324 C312 1.349 . S
C324 H318 0.950 . S
C324 C325 1.327 . S
C325 H319 0.950 . S
C325 C324 1.327 . S
C325 C329 1.429 . S
C326 C309 1.574 . S
C326 H320 0.949 . S
C326 C330 1.368 . S
C327 C308 1.429 . S
C327 C321 1.429 . S
C327 C328 1.523 . S
C328 C309 1.368 . S
C328 C322 1.368 . S
C328 C327 1.523 . S
C329 C313 1.429 . S
C329 C325 1.429 . S
C329 C330 1.523 . S
C330 C314 1.368 . S
C330 C326 1.368 . S
C330 C329 1.523 . S
H331 C306 0.950 . S
H332 C308 0.950 . S
H333 C309 0.949 . S
H334 C311 0.950 . S
H335 C313 0.950 . S
C336 C337 1.349 1_554 S
C336 C338 1.327 . S
C336 H361 0.950 . S
C337 C336 1.349 1_556 S
C337 C353 1.349 . S
C338 C336 1.327 . S
C338 C357 1.429 1_554 S
C338 H362 0.950 . S
C339 C356 1.574 1_545 S
C339 C358 1.368 . S
C339 H363 0.949 . S
H340 C344 0.949 . S
C341 C342 1.349 1_556 S
C341 C343 1.327 . S
C341 H364 0.950 . S
C342 C341 1.349 1_554 S
C342 C354 1.349 . S
C343 C341 1.327 . S
C343 C359 1.429 1_556 S
C343 H365 0.950 . S
C344 H340 0.949 . S
C344 C352 1.574 1_565 S
C344 C360 1.368 . S
H345 C353 0.950 . S
H346 C351 0.950 . S
H347 C352 0.949 . S
H348 C354 0.950 . S
H349 C355 0.950 . S
H350 C356 0.949 . S
C351 H346 0.950 . S
C351 C353 1.327 . S
C351 C357 1.429 . S
C352 C344 1.574 1_545 S
C352 H347 0.949 . S
C352 C358 1.368 1_554 S
C353 C337 1.349 . S
C353 H345 0.950 . S
C353 C351 1.327 . S
C354 C342 1.349 . S
C354 H348 0.950 . S
C354 C355 1.327 . S
C355 H349 0.950 . S
C355 C354 1.327 . S
C355 C359 1.429 . S
C356 C339 1.574 1_565 S
C356 H350 0.949 . S
C356 C360 1.368 1_556 S
C357 C338 1.429 1_556 S
C357 C351 1.429 . S
C357 C358 1.523 . S
C358 C339 1.368 . S
C358 C352 1.368 1_556 S
C358 C357 1.523 . S
C359 C343 1.429 1_554 S
C359 C355 1.429 . S
C359 C360 1.523 . S
C360 C344 1.368 . S
C360 C356 1.368 1_554 S
C360 C359 1.523 . S
H361 C336 0.950 . S
H362 C338 0.950 . S
H363 C339 0.949 . S
H364 C341 0.950 . S
H365 C343 0.950 . S
C366 C367 1.349 . S
C366 C368 1.327 . S
C366 H391 0.950 . S
C367 C366 1.349 . S
C367 C383 1.349 . S
C368 C366 1.327 . S
C368 C387 1.429 . S
C368 H392 0.950 . S
C369 C386 1.574 . S
C369 C388 1.368 . S
C369 H393 0.949 . S
H370 C374 0.949 . S
C371 C372 1.349 . S
C371 C373 1.327 . S
C371 H394 0.950 . S
C372 C371 1.349 . S
C372 C384 1.349 . S
C373 C371 1.327 . S
C373 C389 1.429 . S
C373 H395 0.950 . S
C374 H370 0.949 . S
C374 C382 1.574 . S
C374 C390 1.368 . S
H375 C383 0.950 . S
H376 C381 0.950 . S
H377 C382 0.949 . S
H378 C384 0.950 . S
H379 C385 0.950 . S
H380 C386 0.949 . S
C381 H376 0.950 . S
C381 C383 1.327 . S
C381 C387 1.429 . S
C382 C374 1.574 . S
C382 H377 0.949 . S
C382 C388 1.368 . S
C383 C367 1.349 . S
C383 H375 0.950 . S
C383 C381 1.327 . S
C384 C372 1.349 . S
C384 H378 0.950 . S
C384 C385 1.327 . S
C385 H379 0.950 . S
C385 C384 1.327 . S
C385 C389 1.429 . S
C386 C369 1.574 . S
C386 H380 0.949 . S
C386 C390 1.368 . S
C387 C368 1.429 . S
C387 C381 1.429 . S
C387 C388 1.523 . S
C388 C369 1.368 . S
C388 C382 1.368 . S
C388 C387 1.523 . S
C389 C373 1.429 . S
C389 C385 1.429 . S
C389 C390 1.523 . S
C390 C374 1.368 . S
C390 C386 1.368 . S
C390 C389 1.523 . S
H391 C366 0.950 . S
H392 C368 0.950 . S
H393 C369 0.949 . S
H394 C371 0.950 . S
H395 C373 0.950 . S
C396 C397 1.349 1_556 S
C396 C398 1.327 . S
C396 H421 0.950 . S
C397 C396 1.349 1_554 S
C397 C413 1.349 . S
C398 C396 1.327 . S
C398 C417 1.429 1_556 S
C398 H422 0.950 . S
C399 C416 1.574 1_455 S
C399 C418 1.368 . S
C399 H423 0.949 . S
H400 C404 0.949 . S
C401 C402 1.349 1_554 S
C401 C403 1.327 . S
C401 H424 0.950 . S
C402 C401 1.349 1_556 S
C402 C414 1.349 . S
C403 C401 1.327 . S
C403 C419 1.429 1_554 S
C403 H425 0.950 . S
C404 H400 0.949 . S
C404 C412 1.574 1_655 S
C404 C420 1.368 . S
H405 C413 0.950 . S
H406 C411 0.950 . S
H407 C412 0.949 . S
H408 C414 0.950 . S
H409 C415 0.950 . S
H410 C416 0.949 . S
C411 H406 0.950 . S
C411 C413 1.327 . S
C411 C417 1.429 . S
C412 C404 1.574 1_455 S
C412 H407 0.949 . S
C412 C418 1.368 1_556 S
C413 C397 1.349 . S
C413 H405 0.950 . S
C413 C411 1.327 . S
C414 C402 1.349 . S
C414 H408 0.950 . S
C414 C415 1.327 . S
C415 H409 0.950 . S
C415 C414 1.327 . S
C415 C419 1.429 . S
C416 C399 1.574 1_655 S
C416 H410 0.949 . S
C416 C420 1.368 1_554 S
C417 C398 1.429 1_554 S
C417 C411 1.429 . S
C417 C418 1.523 . S
C418 C399 1.368 . S
C418 C412 1.368 1_554 S
C418 C417 1.523 . S
C419 C403 1.429 1_556 S
C419 C415 1.429 . S
C419 C420 1.523 . S
C420 C404 1.368 . S
C420 C416 1.368 1_556 S
C420 C419 1.523 . S
H421 C396 0.950 . S
H422 C398 0.950 . S
H423 C399 0.949 . S
H424 C401 0.950 . S
H425 C403 0.950 . S
C426 C427 1.349 . S
C426 C428 1.327 . S
C426 H451 0.950 . S
C427 C426 1.349 . S
C427 C443 1.349 . S
C428 C426 1.327 . S
C428 C447 1.429 . S
C428 H452 0.950 . S
C429 C446 1.574 1_545 S
C429 C448 1.368 . S
C429 H453 0.949 . S
H430 C434 0.949 . S
C431 C432 1.349 . S
C431 C433 1.327 . S
C431 H454 0.950 . S
C432 C431 1.349 . S
C432 C444 1.349 . S
C433 C431 1.327 . S
C433 C449 1.429 . S
C433 H455 0.950 . S
C434 H430 0.949 . S
C434 C442 1.574 1_565 S
C434 C450 1.368 . S
H435 C443 0.950 . S
H436 C441 0.950 . S
H437 C442 0.949 . S
H438 C444 0.950 . S
H439 C445 0.950 . S
H440 C446 0.949 . S
C441 H436 0.950 . S
C441 C443 1.327 . S
C441 C447 1.429 . S
C442 C434 1.574 1_545 S
C442 H437 0.949 . S
C442 C448 1.368 . S
C443 C427 1.349 . S
C443 H435 0.950 . S
C443 C441 1.327 . S
C444 C432 1.349 . S
C444 H438 0.950 . S
C444 C445 1.327 . S
C445 H439 0.950 . S
C445 C444 1.327 . S
C445 C449 1.429 . S
C446 C429 1.574 1_565 S
C446 H440 0.949 . S
C446 C450 1.368 . S
C447 C428 1.429 . S
C447 C441 1.429 . S
C447 C448 1.523 . S
C448 C429 1.368 . S
C448 C442 1.368 . S
C448 C447 1.523 . S
C449 C433 1.429 . S
C449 C445 1.429 . S
C449 C450 1.523 . S
C450 C434 1.368 . S
C450 C446 1.368 . S
C450 C449 1.523 . S
H451 C426 0.950 . S
H452 C428 0.950 . S
H453 C429 0.949 . S
H454 C431 0.950 . S
H455 C433 0.950 . S
C456 C457 1.349 . S
C456 C458 1.327 . S
C456 H481 0.950 . S
C457 C456 1.349 . S
C457 C473 1.349 . S
C458 C456 1.327 . S
C458 C477 1.429 . S
C458 H482 0.950 . S
C459 C476 1.574 . S
C459 C478 1.368 1_556 S
C459 H483 0.949 . S
H460 C464 0.949 . S
C461 C462 1.349 . S
C461 C463 1.327 . S
C461 H484 0.950 . S
C462 C461 1.349 . S
C462 C474 1.349 . S
C463 C461 1.327 . S
C463 C479 1.429 . S
C463 H485 0.950 . S
C464 H460 0.949 . S
C464 C472 1.574 . S
C464 C480 1.368 1_554 S
H465 C473 0.950 . S
H466 C471 0.950 1_556 S
H467 C472 0.949 . S
H468 C474 0.950 . S
H469 C475 0.950 1_554 S
H470 C476 0.949 . S
C471 H466 0.950 1_554 S
C471 C473 1.327 . S
C471 C477 1.429 . S
C472 C464 1.574 . S
C472 H467 0.949 . S
C472 C478 1.368 . S
C473 C457 1.349 . S
C473 H465 0.950 . S
C473 C471 1.327 . S
C474 C462 1.349 . S
C474 H468 0.950 . S
C474 C475 1.327 . S
C475 H469 0.950 1_556 S
C475 C474 1.327 . S
C475 C479 1.429 . S
C476 C459 1.574 . S
C476 H470 0.949 . S
C476 C480 1.368 . S
C477 C458 1.429 . S
C477 C471 1.429 . S
C477 C478 1.523 . S
C478 C459 1.368 1_554 S
C478 C472 1.368 . S
C478 C477 1.523 . S
C479 C463 1.429 . S
C479 C475 1.429 . S
C479 C480 1.523 . S
C480 C464 1.368 1_556 S
C480 C476 1.368 . S
C480 C479 1.523 . S
H481 C456 0.950 . S
H482 C458 0.950 . S
H483 C459 0.949 . S
H484 C461 0.950 . S
H485 C463 0.950 . S
C486 C487 1.349 . S
C486 C488 1.327 . S
C486 H511 0.950 . S
C487 C486 1.349 . S
C487 C503 1.349 . S
C488 C486 1.327 . S
C488 C507 1.429 . S
C488 H512 0.950 . S
C489 C506 1.574 1_655 S
C489 C508 1.368 . S
C489 H513 0.949 . S
H490 C494 0.949 . S
C491 C492 1.349 . S
C491 C493 1.327 . S
C491 H514 0.950 . S
C492 C491 1.349 . S
C492 C504 1.349 . S
C493 C491 1.327 . S
C493 C509 1.429 . S
C493 H515 0.950 . S
C494 H490 0.949 . S
C494 C502 1.574 1_455 S
C494 C510 1.368 . S
H495 C503 0.950 . S
H496 C501 0.950 . S
H497 C502 0.949 . S
H498 C504 0.950 . S
H499 C505 0.950 . S
H500 C506 0.949 . S
C501 H496 0.950 . S
C501 C503 1.327 . S
C501 C507 1.429 . S
C502 C494 1.574 1_655 S
C502 H497 0.949 . S
C502 C508 1.368 . S
C503 C487 1.349 . S
C503 H495 0.950 . S
C503 C501 1.327 . S
C504 C492 1.349 . S
C504 H498 0.950 . S
C504 C505 1.327 . S
C505 H499 0.950 . S
C505 C504 1.327 . S
C505 C509 1.429 . S
C506 C489 1.574 1_455 S
C506 H500 0.949 . S
C506 C510 1.368 . S
C507 C488 1.429 . S
C507 C501 1.429 . S
C507 C508 1.523 . S
C508 C489 1.368 . S
C508 C502 1.368 . S
C508 C507 1.523 . S
C509 C493 1.429 . S
C509 C505 1.429 . S
C509 C510 1.523 . S
C510 C494 1.368 . S
C510 C506 1.368 . S
C510 C509 1.523 . S
H511 C486 0.950 . S
H512 C488 0.950 . S
H513 C489 0.949 . S
H514 C491 0.950 . S
H515 C493 0.950 . S
C516 C517 1.349 1_554 S
C516 C518 1.327 . S
C516 H541 0.950 . S
C517 C516 1.349 1_556 S
C517 C533 1.349 . S
C518 C516 1.327 . S
C518 C537 1.429 1_554 S
C518 H542 0.950 . S
C519 C536 1.574 . S
C519 C538 1.368 . S
C519 H543 0.949 . S
H520 C524 0.949 1_554 S
C521 C522 1.349 . S
C521 C523 1.327 . S
C521 H544 0.950 . S
C522 C521 1.349 . S
C522 C534 1.349 . S
C523 C521 1.327 . S
C523 C539 1.429 . S
C523 H545 0.950 . S
C524 H520 0.949 1_556 S
C524 C532 1.574 . S
C524 C540 1.368 . S
H525 C533 0.950 . S
H526 C531 0.950 . S
H527 C532 0.949 1_554 S
H528 C534 0.950 . S
H529 C535 0.950 1_554 S
H530 C536 0.949 . S
C531 H526 0.950 . S
C531 C533 1.327 . S
C531 C537 1.429 . S
C532 C524 1.574 . S
C532 H527 0.949 1_556 S
C532 C538 1.368 . S
C533 C517 1.349 . S
C533 H525 0.950 . S
C533 C531 1.327 . S
C534 C522 1.349 . S
C534 H528 0.950 . S
C534 C535 1.327 . S
C535 H529 0.950 1_556 S
C535 C534 1.327 . S
C535 C539 1.429 . S
C536 C519 1.574 . S
C536 H530 0.949 . S
C536 C540 1.368 . S
C537 C518 1.429 1_556 S
C537 C531 1.429 . S
C537 C538 1.523 . S
C538 C519 1.368 . S
C538 C532 1.368 . S
C538 C537 1.523 . S
C539 C523 1.429 . S
C539 C535 1.429 . S
C539 C540 1.523 . S
C540 C524 1.368 . S
C540 C536 1.368 . S
C540 C539 1.523 . S
H541 C516 0.950 . S
H542 C518 0.950 . S
H543 C519 0.949 . S
H544 C521 0.950 . S
H545 C523 0.950 . S
C546 C547 1.349 . S
C546 C548 1.327 . S
C546 H571 0.950 . S
C547 C546 1.349 . S
C547 C563 1.349 . S
C548 C546 1.327 . S
C548 C567 1.429 . S
C548 H572 0.950 . S
C549 C566 1.574 . S
C549 C568 1.368 . S
C549 H573 0.949 . S
H550 C554 0.949 . S
C551 C552 1.349 . S
C551 C553 1.327 . S
C551 H574 0.950 . S
C552 C551 1.349 . S
C552 C564 1.349 . S
C553 C551 1.327 . S
C553 C569 1.429 . S
C553 H575 0.950 . S
C554 H550 0.949 . S
C554 C562 1.574 . S
C554 C570 1.368 . S
H555 C563 0.950 . S
H556 C561 0.950 . S
H557 C562 0.949 . S
H558 C564 0.950 . S
H559 C565 0.950 . S
H560 C566 0.949 . S
C561 H556 0.950 . S
C561 C563 1.327 . S
C561 C567 1.429 . S
C562 C554 1.574 . S
C562 H557 0.949 . S
C562 C568 1.368 . S
C563 C547 1.349 . S
C563 H555 0.950 . S
C563 C561 1.327 . S
C564 C552 1.349 . S
C564 H558 0.950 . S
C564 C565 1.327 . S
C565 H559 0.950 . S
C565 C564 1.327 . S
C565 C569 1.429 . S
C566 C549 1.574 . S
C566 H560 0.949 . S
C566 C570 1.368 . S
C567 C548 1.429 . S
C567 C561 1.429 . S
C567 C568 1.523 . S
C568 C549 1.368 . S
C568 C562 1.368 . S
C568 C567 1.523 . S
C569 C553 1.429 . S
C569 C565 1.429 . S
C569 C570 1.523 . S
C570 C554 1.368 . S
C570 C566 1.368 . S
C570 C569 1.523 . S
H571 C546 0.950 . S
H572 C548 0.950 . S
H573 C549 0.949 . S
H574 C551 0.950 . S
H575 C553 0.950 . S
C576 C577 1.349 . S
C576 C578 1.327 . S
C576 H601 0.950 . S
C577 C576 1.349 . S
C577 C593 1.349 1_556 S
C578 C576 1.327 . S
C578 C597 1.429 . S
C578 H602 0.950 . S
C579 C596 1.574 . S
C579 C598 1.368 . S
C579 H603 0.949 1_556 S
H580 C584 0.949 . S
C581 C582 1.349 . S
C581 C583 1.327 . S
C581 H604 0.950 1_556 S
C582 C581 1.349 . S
C582 C594 1.349 . S
C583 C581 1.327 . S
C583 C599 1.429 . S
C583 H605 0.950 1_556 S
C584 H580 0.949 . S
C584 C592 1.574 . S
C584 C600 1.368 . S
H585 C593 0.950 . S
H586 C591 0.950 . S
H587 C592 0.949 . S
H588 C594 0.950 . S
H589 C595 0.950 . S
H590 C596 0.949 1_554 S
C591 H586 0.950 . S
C591 C593 1.327 . S
C591 C597 1.429 1_554 S
C592 C584 1.574 . S
C592 H587 0.949 . S
C592 C598 1.368 . S
C593 C577 1.349 1_554 S
C593 H585 0.950 . S
C593 C591 1.327 . S
C594 C582 1.349 . S
C594 H588 0.950 . S
C594 C595 1.327 . S
C595 H589 0.950 . S
C595 C594 1.327 . S
C595 C599 1.429 . S
C596 C579 1.574 . S
C596 H590 0.949 1_556 S
C596 C600 1.368 . S
C597 C578 1.429 . S
C597 C591 1.429 1_556 S
C597 C598 1.523 . S
C598 C579 1.368 . S
C598 C592 1.368 . S
C598 C597 1.523 . S
C599 C583 1.429 . S
C599 C595 1.429 . S
C599 C600 1.523 . S
C600 C584 1.368 . S
C600 C596 1.368 . S
C600 C599 1.523 . S
H601 C576 0.950 . S
H602 C578 0.950 . S
H603 C579 0.949 1_554 S
H604 C581 0.950 1_554 S
H605 C583 0.950 1_554 S
C606 C607 1.349 . S
C606 C608 1.327 . S
C606 H631 0.950 . S
C607 C606 1.349 . S
C607 C623 1.349 . S
C608 C606 1.327 . S
C608 C627 1.429 . S
C608 H632 0.950 . S
C609 C626 1.574 . S
C609 C628 1.368 . S
C609 H633 0.949 . S
H610 C614 0.949 . S
C611 C612 1.349 . S
C611 C613 1.327 . S
C611 H634 0.950 . S
C612 C611 1.349 . S
C612 C624 1.349 . S
C613 C611 1.327 . S
C613 C629 1.429 . S
C613 H635 0.950 . S
C614 H610 0.949 . S
C614 C622 1.574 . S
C614 C630 1.368 . S
H615 C623 0.950 . S
H616 C621 0.950 . S
H617 C622 0.949 . S
H618 C624 0.950 . S
H619 C625 0.950 . S
H620 C626 0.949 . S
C621 H616 0.950 . S
C621 C623 1.327 . S
C621 C627 1.429 . S
C622 C614 1.574 . S
C622 H617 0.949 . S
C622 C628 1.368 . S
C623 C607 1.349 . S
C623 H615 0.950 . S
C623 C621 1.327 . S
C624 C612 1.349 . S
C624 H618 0.950 . S
C624 C625 1.327 . S
C625 H619 0.950 . S
C625 C624 1.327 . S
C625 C629 1.429 . S
C626 C609 1.574 . S
C626 H620 0.949 . S
C626 C630 1.368 . S
C627 C608 1.429 . S
C627 C621 1.429 . S
C627 C628 1.523 . S
C628 C609 1.368 . S
C628 C622 1.368 . S
C628 C627 1.523 . S
C629 C613 1.429 . S
C629 C625 1.429 . S
C629 C630 1.523 . S
C630 C614 1.368 . S
C630 C626 1.368 . S
C630 C629 1.523 . S
H631 C606 0.950 . S
H632 C608 0.950 . S
H633 C609 0.949 . S
H634 C611 0.950 . S
H635 C613 0.950 . S
C636 C637 1.349 . S
C636 C638 1.327 . S
C636 H661 0.950 . S
C637 C636 1.349 . S
C637 C653 1.349 1_556 S
C638 C636 1.327 . S
C638 C657 1.429 . S
C638 H662 0.950 . S
C639 C656 1.572 1_554 S
C639 C658 1.350 1_554 S
C639 H663 0.967 . S
H640 C644 0.949 . S
C641 C642 1.349 . S
C641 C643 1.327 . S
C641 H664 0.950 1_556 S
C642 C641 1.349 . S
C642 C654 1.349 . S
C643 C641 1.327 . S
C643 C659 1.429 . S
C643 H665 0.950 1_556 S
C644 H640 0.949 . S
C644 C652 1.574 . S
C644 C660 1.368 . S
H645 C653 0.950 . S
H646 C651 0.950 . S
H647 C652 0.949 . S
H648 C654 0.950 . S
H649 C655 0.950 . S
H650 C656 0.949 1_554 S
C651 H646 0.950 . S
C651 C653 1.327 . S
C651 C657 1.429 1_554 S
C652 C644 1.574 . S
C652 H647 0.949 . S
C652 C658 1.368 . S
C653 C637 1.349 1_554 S
C653 H645 0.950 . S
C653 C651 1.327 . S
C654 C642 1.349 . S
C654 H648 0.950 . S
C654 C655 1.327 . S
C655 H649 0.950 . S
C655 C654 1.327 . S
C655 C659 1.429 . S
C656 C639 1.572 1_556 S
C656 H650 0.949 1_556 S
C656 C660 1.368 . S
C657 C638 1.429 . S
C657 C651 1.429 1_556 S
C657 C658 1.523 . S
C658 C639 1.350 1_556 S
C658 C652 1.368 . S
C658 C657 1.523 . S
C659 C643 1.429 . S
C659 C655 1.429 . S
C659 C660 1.523 . S
C660 C644 1.368 . S
C660 C656 1.368 . S
C660 C659 1.523 . S
H661 C636 0.950 . S
H662 C638 0.950 . S
H663 C639 0.967 . S
H664 C641 0.950 1_554 S
H665 C643 0.950 1_554 S
C666 C667 1.349 . S
C666 C668 1.327 . S
C666 H691 0.950 . S
C667 C666 1.349 . S
C667 C683 1.349 . S
C668 C666 1.327 . S
C668 C687 1.429 . S
C668 H692 0.950 . S
C669 C686 1.574 . S
C669 C688 1.368 . S
C669 H693 0.949 . S
H670 C674 0.949 . S
C671 C672 1.349 . S
C671 C673 1.327 . S
C671 H694 0.950 . S
C672 C671 1.349 . S
C672 C684 1.349 . S
C673 C671 1.327 . S
C673 C689 1.429 . S
C673 H695 0.950 . S
C674 H670 0.949 . S
C674 C682 1.574 . S
C674 C690 1.368 . S
H675 C683 0.950 . S
H676 C681 0.950 . S
H677 C682 0.949 . S
H678 C684 0.950 . S
H679 C685 0.950 . S
H680 C686 0.949 . S
C681 H676 0.950 . S
C681 C683 1.327 . S
C681 C687 1.429 . S
C682 C674 1.574 . S
C682 H677 0.949 . S
C682 C688 1.368 . S
C683 C667 1.349 . S
C683 H675 0.950 . S
C683 C681 1.327 . S
C684 C672 1.349 . S
C684 H678 0.950 . S
C684 C685 1.327 . S
C685 H679 0.950 . S
C685 C684 1.327 . S
C685 C689 1.429 . S
C686 C669 1.574 . S
C686 H680 0.949 . S
C686 C690 1.368 . S
C687 C668 1.429 . S
C687 C681 1.429 . S
C687 C688 1.523 . S
C688 C669 1.368 . S
C688 C682 1.368 . S
C688 C687 1.523 . S
C689 C673 1.429 . S
C689 C685 1.429 . S
C689 C690 1.523 . S
C690 C674 1.368 . S
C690 C686 1.368 . S
C690 C689 1.523 . S
H691 C666 0.950 . S
H692 C668 0.950 . S
H693 C669 0.949 . S
H694 C671 0.950 . S
H695 C673 0.950 . S
C696 C697 1.349 . S
C696 C698 1.327 . S
C696 H721 0.950 . S
C697 C696 1.349 . S
C697 C713 1.349 . S
C698 C696 1.327 . S
C698 C717 1.429 . S
C698 H722 0.950 . S
C699 C716 1.574 . S
C699 C718 1.368 . S
C699 H723 0.949 . S
H700 C704 0.949 . S
C701 C702 1.349 . S
C701 C703 1.327 . S
C701 H724 0.950 . S
C702 C701 1.349 . S
C702 C714 1.349 . S
C703 C701 1.327 . S
C703 C719 1.429 . S
C703 H725 0.950 . S
C704 H700 0.949 . S
C704 C712 1.574 . S
C704 C720 1.368 . S
H705 C713 0.950 . S
H706 C711 0.950 . S
H707 C712 0.949 . S
H708 C714 0.950 . S
H709 C715 0.950 . S
H710 C716 0.949 . S
C711 H706 0.950 . S
C711 C713 1.327 . S
C711 C717 1.429 . S
C712 C704 1.574 . S
C712 H707 0.949 . S
C712 C718 1.368 . S
C713 C697 1.349 . S
C713 H705 0.950 . S
C713 C711 1.327 . S
C714 C702 1.349 . S
C714 H708 0.950 . S
C714 C715 1.327 . S
C715 H709 0.950 . S
C715 C714 1.327 . S
C715 C719 1.429 . S
C716 C699 1.574 . S
C716 H710 0.949 . S
C716 C720 1.368 . S
C717 C698 1.429 . S
C717 C711 1.429 . S
C717 C718 1.523 . S
C718 C699 1.368 . S
C718 C712 1.368 . S
C718 C717 1.523 . S
C719 C703 1.429 . S
C719 C715 1.429 . S
C719 C720 1.523 . S
C720 C704 1.368 . S
C720 C716 1.368 . S
C720 C719 1.523 . S
H721 C696 0.950 . S
H722 C698 0.950 . S
H723 C699 0.949 . S
H724 C701 0.950 . S
H725 C703 0.950 . S
C726 C727 1.349 . S
C726 C728 1.327 . S
C726 H751 0.950 . S
C727 C726 1.349 . S
C727 C743 1.349 . S
C728 C726 1.327 . S
C728 C747 1.429 . S
C728 H752 0.950 . S
C729 C746 1.574 . S
C729 C748 1.368 . S
C729 H753 0.949 . S
H730 C734 0.949 . S
C731 C732 1.349 . S
C731 C733 1.327 . S
C731 H754 0.950 . S
C732 C731 1.349 . S
C732 C744 1.349 . S
C733 C731 1.327 . S
C733 C749 1.429 . S
C733 H755 0.950 . S
C734 H730 0.949 . S
C734 C742 1.574 . S
C734 C750 1.368 . S
H735 C743 0.950 . S
H736 C741 0.950 . S
H737 C742 0.949 . S
H738 C744 0.950 . S
H739 C745 0.950 . S
H740 C746 0.949 . S
C741 H736 0.950 . S
C741 C743 1.327 . S
C741 C747 1.429 . S
C742 C734 1.574 . S
C742 H737 0.949 . S
C742 C748 1.368 . S
C743 C727 1.349 . S
C743 H735 0.950 . S
C743 C741 1.327 . S
C744 C732 1.349 . S
C744 H738 0.950 . S
C744 C745 1.327 . S
C745 H739 0.950 . S
C745 C744 1.327 . S
C745 C749 1.429 . S
C746 C729 1.574 . S
C746 H740 0.949 . S
C746 C750 1.368 . S
C747 C728 1.429 . S
C747 C741 1.429 . S
C747 C748 1.523 . S
C748 C729 1.368 . S
C748 C742 1.368 . S
C748 C747 1.523 . S
C749 C733 1.429 . S
C749 C745 1.429 . S
C749 C750 1.523 . S
C750 C734 1.368 . S
C750 C746 1.368 . S
C750 C749 1.523 . S
H751 C726 0.950 . S
H752 C728 0.950 . S
H753 C729 0.949 . S
H754 C731 0.950 . S
H755 C733 0.950 . S
C756 C757 1.349 . S
C756 C758 1.327 . S
C756 H781 0.950 . S
C757 C756 1.349 . S
C757 C773 1.349 . S
C758 C756 1.327 . S
C758 C777 1.429 . S
C758 H782 0.950 . S
C759 C776 1.574 . S
C759 C778 1.368 . S
C759 H783 0.949 . S
H760 C764 0.949 . S
C761 C762 1.349 . S
C761 C763 1.327 . S
C761 H784 0.950 . S
C762 C761 1.349 . S
C762 C774 1.349 . S
C763 C761 1.327 . S
C763 C779 1.429 . S
C763 H785 0.950 . S
C764 H760 0.949 . S
C764 C772 1.574 . S
C764 C780 1.368 . S
H765 C773 0.950 . S
H766 C771 0.950 . S
H767 C772 0.949 . S
H768 C774 0.950 . S
H769 C775 0.950 . S
H770 C776 0.949 . S
C771 H766 0.950 . S
C771 C773 1.327 . S
C771 C777 1.429 . S
C772 C764 1.574 . S
C772 H767 0.949 . S
C772 C778 1.368 . S
C773 C757 1.349 . S
C773 H765 0.950 . S
C773 C771 1.327 . S
C774 C762 1.349 . S
C774 H768 0.950 . S
C774 C775 1.327 . S
C775 H769 0.950 . S
C775 C774 1.327 . S
C775 C779 1.429 . S
C776 C759 1.574 . S
C776 H770 0.949 . S
C776 C780 1.368 . S
C777 C758 1.429 . S
C777 C771 1.429 . S
C777 C778 1.523 . S
C778 C759 1.368 . S
C778 C772 1.368 . S
C778 C777 1.523 . S
C779 C763 1.429 . S
C779 C775 1.429 . S
C779 C780 1.523 . S
C780 C764 1.368 . S
C780 C776 1.368 . S
C780 C779 1.523 . S
H781 C756 0.950 . S
H782 C758 0.950 . S
H783 C759 0.949 . S
H784 C761 0.950 . S
H785 C763 0.950 . S
C786 C787 1.349 1_556 S
C786 C788 1.327 . S
C786 H811 0.950 . S
C787 C786 1.349 1_554 S
C787 C803 1.349 . S
C788 C786 1.327 . S
C788 C807 1.429 1_556 S
C788 H812 0.950 . S
C789 C806 1.574 . S
C789 C808 1.368 . S
C789 H813 0.949 . S
H790 C794 0.949 1_556 S
C791 C792 1.349 . S
C791 C793 1.327 . S
C791 H814 0.950 . S
C792 C791 1.349 . S
C792 C804 1.349 . S
C793 C791 1.327 . S
C793 C809 1.429 . S
C793 H815 0.950 . S
C794 H790 0.949 1_554 S
C794 C802 1.574 1_554 S
C794 C810 1.368 . S
H795 C803 0.950 . S
H796 C801 0.950 . S
H797 C802 0.949 . S
H798 C804 0.950 1_556 S
H799 C805 0.950 1_556 S
H800 C806 0.949 . S
C801 H796 0.950 . S
C801 C803 1.327 . S
C801 C807 1.429 . S
C802 C794 1.574 1_556 S
C802 H797 0.949 . S
C802 C808 1.368 1_556 S
C803 C787 1.349 . S
C803 H795 0.950 . S
C803 C801 1.327 . S
C804 C792 1.349 . S
C804 H798 0.950 1_554 S
C804 C805 1.327 . S
C805 H799 0.950 1_554 S
C805 C804 1.327 . S
C805 C809 1.429 . S
C806 C789 1.574 . S
C806 H800 0.949 . S
C806 C810 1.368 . S
C807 C788 1.429 1_554 S
C807 C801 1.429 . S
C807 C808 1.523 . S
C808 C789 1.368 . S
C808 C802 1.368 1_554 S
C808 C807 1.523 . S
C809 C793 1.429 . S
C809 C805 1.429 . S
C809 C810 1.523 . S
C810 C794 1.368 . S
C810 C806 1.368 . S
C810 C809 1.523 . S
H811 C786 0.950 . S
H812 C788 0.950 . S
H813 C789 0.949 . S
H814 C791 0.950 . S
H815 C793 0.950 . S
C816 C817 1.349 . S
C816 C818 1.327 . S
C816 H841 0.950 . S
C817 C816 1.349 . S
C817 C833 1.349 . S
C818 C816 1.327 . S
C818 C837 1.429 . S
C818 H842 0.950 . S
C819 C836 1.574 . S
C819 C838 1.368 . S
C819 H843 0.949 . S
H820 C824 0.949 . S
C821 C822 1.349 . S
C821 C823 1.327 . S
C821 H844 0.950 . S
C822 C821 1.349 . S
C822 C834 1.349 . S
C823 C821 1.327 . S
C823 C839 1.429 . S
C823 H845 0.950 . S
C824 H820 0.949 . S
C824 C832 1.574 . S
C824 C840 1.368 . S
H825 C833 0.950 . S
H826 C831 0.950 . S
H827 C832 0.949 . S
H828 C834 0.950 . S
H829 C835 0.950 . S
H830 C836 0.949 . S
C831 H826 0.950 . S
C831 C833 1.327 . S
C831 C837 1.429 . S
C832 C824 1.574 . S
C832 H827 0.949 . S
C832 C838 1.368 . S
C833 C817 1.349 . S
C833 H825 0.950 . S
C833 C831 1.327 . S
C834 C822 1.349 . S
C834 H828 0.950 . S
C834 C835 1.327 . S
C835 H829 0.950 . S
C835 C834 1.327 . S
C835 C839 1.429 . S
C836 C819 1.574 . S
C836 H830 0.949 . S
C836 C840 1.368 . S
C837 C818 1.429 . S
C837 C831 1.429 . S
C837 C838 1.523 . S
C838 C819 1.368 . S
C838 C832 1.368 . S
C838 C837 1.523 . S
C839 C823 1.429 . S
C839 C835 1.429 . S
C839 C840 1.523 . S
C840 C824 1.368 . S
C840 C836 1.368 . S
C840 C839 1.523 . S
H841 C816 0.950 . S
H842 C818 0.950 . S
H843 C819 0.949 . S
H844 C821 0.950 . S
H845 C823 0.950 . S
C846 C847 1.349 1_556 S
C846 C848 1.327 . S
C846 H871 0.950 . S
C847 C846 1.349 1_554 S
C847 C863 1.349 . S
C848 C846 1.327 . S
C848 C867 1.429 1_556 S
C848 H872 0.949 . S
C849 C866 1.574 . S
C849 C868 1.368 . S
C849 H873 0.949 . S
H850 C854 0.949 1_556 S
C851 C852 1.349 . S
C851 C853 1.327 . S
C851 H874 0.950 . S
C852 C851 1.349 . S
C852 C864 1.349 . S
C853 C851 1.327 . S
C853 C869 1.429 . S
C853 H875 0.950 . S
C854 H850 0.949 1_554 S
C854 C862 1.574 . S
C854 C870 1.368 . S
H855 C863 0.950 . S
H856 C861 0.950 . S
H857 C862 0.949 1_556 S
H858 C864 0.950 . S
H859 C865 0.950 1_556 S
H860 C866 0.949 . S
C861 H856 0.950 . S
C861 C863 1.327 . S
C861 C867 1.429 . S
C862 C854 1.574 . S
C862 H857 0.949 1_554 S
C862 C868 1.368 . S
C863 C847 1.349 . S
C863 H855 0.950 . S
C863 C861 1.327 . S
C864 C852 1.349 . S
C864 H858 0.950 . S
C864 C865 1.327 . S
C865 H859 0.950 1_554 S
C865 C864 1.327 . S
C865 C869 1.429 . S
C866 C849 1.574 . S
C866 H860 0.949 . S
C866 C870 1.368 . S
C867 C848 1.429 1_554 S
C867 C861 1.429 . S
C867 C868 1.523 . S
C868 C849 1.368 . S
C868 C862 1.368 . S
C868 C867 1.523 . S
C869 C853 1.429 . S
C869 C865 1.429 . S
C869 C870 1.523 . S
C870 C854 1.368 . S
C870 C866 1.368 . S
C870 C869 1.523 . S
H871 C846 0.950 . S
H872 C848 0.949 . S
H873 C849 0.949 . S
H874 C851 0.950 . S
H875 C853 0.950 . S
C157 C140 1.678 . S
C162 C10 1.673 . S
C187 C23 1.679 . S
C192 C147 1.673 . S
C217 C30 1.676 . S
C222 C82 1.674 . S
C247 C95 1.676 . S
C252 C43 1.674 . S
C277 C108 1.679 . S
C282 C62 1.673 . S
C307 C69 1.678 . S
C312 C121 1.673 . S
C337 C4 0.853 . S
C342 C101 0.855 . S
C367 C17 0.869 . S
C372 C114 0.869 . S
C397 C127 0.853 . S
C402 C36 0.856 . S
C427 C134 0.874 . S
C432 C49 0.873 . S
C457 C153 0.849 . S
C462 C56 0.851 . S
C487 C88 0.873 . S
C492 C75 0.874 . S
C517 C5 0.982 . S
C522 C55 0.946 . S
C547 C18 1.025 . S
C552 C70 0.985 . S
C577 C29 0.974 . S
C582 C3 0.939 . S
C607 C42 1.031 . S
C612 C16 0.989 . S
C637 C57 0.976 . S
C642 C31 0.942 . S
C667 C68 1.024 . S
C672 C44 0.983 . S
C697 C81 1.031 . S
C702 C109 0.989 . S
C727 C94 0.974 . S
C732 C122 0.939 . S
C757 C133 0.985 . S
C762 C107 1.025 . S
C787 C120 0.982 . S
C792 C148 0.946 . S
C817 C135 1.024 . S
C822 C83 0.983 . S
C847 C146 0.976 . S
C852 C96 0.942 . S
