# Generated by pormake.
# Topology dia, (4)-cn, num edge types: 1
# Building blocks:
#     Node 0, Type 0, BuildingBlock: GALJAG_clean_sbu_0, # of connection points: 4
#     Node 1, Type 0, BuildingBlock: GALJAG_clean_sbu_0, # of connection points: 4
#     Node 2, Type 0, BuildingBlock: GALJAG_clean_sbu_0, # of connection points: 4
#     Node 3, Type 0, BuildingBlock: GALJAG_clean_sbu_0, # of connection points: 4
#     Node 4, Type 0, BuildingBlock: GALJAG_clean_sbu_0, # of connection points: 4
#     Node 5, Type 0, BuildingBlock: GALJAG_clean_sbu_0, # of connection points: 4
#     Node 6, Type 0, BuildingBlock: GALJAG_clean_sbu_0, # of connection points: 4
#     Node 7, Type 0, BuildingBlock: GALJAG_clean_sbu_0, # of connection points: 4
#     Edge 8, Type (0, 0), BuildingBlock: CIFDUS_clean_linker_0, # of connection points: 2
#     Edge 9, Type (0, 0), BuildingBlock: CIFDUS_clean_linker_0, # of connection points: 2
#     Edge 10, Type (0, 0), BuildingBlock: CIFDUS_clean_linker_0, # of connection points: 2
#     Edge 11, Type (0, 0), BuildingBlock: CIFDUS_clean_linker_0, # of connection points: 2
#     Edge 12, Type (0, 0), BuildingBlock: CIFDUS_clean_linker_0, # of connection points: 2
#     Edge 13, Type (0, 0), BuildingBlock: CIFDUS_clean_linker_0, # of connection points: 2
#     Edge 14, Type (0, 0), BuildingBlock: CIFDUS_clean_linker_0, # of connection points: 2
#     Edge 15, Type (0, 0), BuildingBlock: CIFDUS_clean_linker_0, # of connection points: 2
#     Edge 16, Type (0, 0), BuildingBlock: CIFDUS_clean_linker_0, # of connection points: 2
#     Edge 17, Type (0, 0), BuildingBlock: CIFDUS_clean_linker_0, # of connection points: 2
#     Edge 18, Type (0, 0), BuildingBlock: CIFDUS_clean_linker_0, # of connection points: 2
#     Edge 19, Type (0, 0), BuildingBlock: CIFDUS_clean_linker_0, # of connection points: 2
#     Edge 20, Type (0, 0), BuildingBlock: CIFDUS_clean_linker_0, # of connection points: 2
#     Edge 21, Type (0, 0), BuildingBlock: CIFDUS_clean_linker_0, # of connection points: 2
#     Edge 22, Type (0, 0), BuildingBlock: CIFDUS_clean_linker_0, # of connection points: 2
#     Edge 23, Type (0, 0), BuildingBlock: CIFDUS_clean_linker_0, # of connection points: 2
# Relax obj value: 0.058
# Max RMSD: 0.096
# Mean RMSD: 0.096
data_MOF--net-dia--node1-GALJAG_clean_sbu_0--edge1-CIFDUS_clean_linker_0
_symmetry_space_group_name_H-M    P1
_symmetry_Int_Tables_number       1
_symmetry_cell_setting            triclinic
loop_
_symmetry_equiv_pos_as_xyz
'x, y, z'
_cell_length_a     20.352272
_cell_length_b     34.864939
_cell_length_c     34.715223
_cell_angle_alpha  89.942738
_cell_angle_beta   90.083417
_cell_angle_gamma 90.227476
loop_
_atom_site_label
_atom_site_type_symbol
_atom_site_fract_x
_atom_site_fract_y
_atom_site_fract_z
_atom_type_partial_charge
In0 In 0.07518 0.12712 0.62971 0.0
O1 O 0.16205 0.15697 0.60005 0.0
O2 O 0.06478 0.17227 0.58354 0.0
C3 C 0.12623 0.07674 0.68007 0.0
C4 C 0.02184 0.17651 0.67963 0.0
C5 C 0.02032 0.07722 0.58048 0.0
O6 O 0.16243 0.09732 0.65871 0.0
O7 O 0.06536 0.08189 0.67585 0.0
O8 O 0.98617 0.09901 0.60149 0.0
O9 O 0.08169 0.08083 0.58442 0.0
C10 C 0.12558 0.17744 0.57885 0.0
O11 O 0.98717 0.15515 0.65827 0.0
O12 O 0.08314 0.17284 0.67565 0.0
In13 In 0.86867 0.3811 0.88606 0.0
O14 O 0.95789 0.35313 0.85867 0.0
O15 O 0.86221 0.33535 0.84041 0.0
C16 C 0.91527 0.43212 0.93671 0.0
C17 C 0.82436 0.43112 0.83322 0.0
C18 C 0.82225 0.32924 0.93655 0.0
O19 O 0.9528 0.41143 0.91651 0.0
O20 O 0.85451 0.42688 0.93123 0.0
O21 O 0.78386 0.34881 0.91552 0.0
O22 O 0.88256 0.33621 0.93187 0.0
C23 C 0.92366 0.3317 0.83704 0.0
O24 O 0.78503 0.41094 0.85315 0.0
O25 O 0.88442 0.42581 0.84032 0.0
In26 In 0.6079 0.12564 0.12844 0.0
O27 O 0.52551 0.15633 0.1612 0.0
O28 O 0.62548 0.16992 0.17456 0.0
C29 C 0.5662 0.07479 0.0756 0.0
C30 C 0.65074 0.17818 0.07789 0.0
C31 C 0.65296 0.07331 0.17846 0.0
O32 O 0.52597 0.09395 0.09581 0.0
O33 O 0.62614 0.08158 0.08234 0.0
O34 O 0.6917 0.09406 0.15868 0.0
O35 O 0.5925 0.07934 0.17284 0.0
C36 C 0.56545 0.17601 0.18134 0.0
O37 O 0.69026 0.15831 0.09793 0.0
O38 O 0.59053 0.17128 0.08359 0.0
In39 In 0.87089 0.87211 0.37172 0.0
O40 O 0.78833 0.90243 0.33859 0.0
O41 O 0.88716 0.91821 0.32654 0.0
C42 C 0.8075 0.82271 0.4189 0.0
C43 C 0.9361 0.82323 0.32594 0.0
C44 C 0.9223 0.92044 0.42396 0.0
O45 O 0.77708 0.84382 0.39526 0.0
O46 O 0.86909 0.8265 0.41834 0.0
O47 O 0.95728 0.89836 0.40388 0.0
O48 O 0.86132 0.91804 0.41772 0.0
C49 C 0.82714 0.92344 0.31941 0.0
O50 O 0.96473 0.84475 0.34993 0.0
O51 O 0.87431 0.82628 0.32511 0.0
In52 In 0.14857 0.62704 0.12854 0.0
O53 O 0.23757 0.65859 0.10355 0.0
O54 O 0.14286 0.6722 0.08162 0.0
C55 C 0.20311 0.57938 0.1805 0.0
C56 C 0.08023 0.6737 0.17511 0.0
C57 C 0.10319 0.57543 0.07759 0.0
O58 O 0.23713 0.60228 0.16044 0.0
O59 O 0.1421 0.58083 0.17438 0.0
O60 O 0.06547 0.59577 0.09786 0.0
O61 O 0.1637 0.58119 0.08307 0.0
C62 C 0.2039 0.67828 0.08023 0.0
O63 O 0.05254 0.65123 0.1516 0.0
O64 O 0.1422 0.67259 0.17498 0.0
In65 In 0.35783 0.37118 0.38458 0.0
O66 O 0.44094 0.34088 0.35163 0.0
O67 O 0.34144 0.32631 0.33882 0.0
C68 C 0.40467 0.42378 0.43447 0.0
C69 C 0.30258 0.421 0.33551 0.0
C70 C 0.31251 0.32033 0.43624 0.0
O71 O 0.44287 0.40398 0.41363 0.0
O72 O 0.34433 0.41658 0.43003 0.0
O73 O 0.27449 0.34063 0.41582 0.0
O74 O 0.3731 0.32587 0.43051 0.0
C75 C 0.40142 0.32072 0.33177 0.0
O76 O 0.26845 0.39921 0.35686 0.0
O77 O 0.36403 0.41734 0.33902 0.0
In78 In 0.3605 0.88031 0.86988 0.0
O79 O 0.44532 0.84839 0.84014 0.0
O80 O 0.34663 0.8352 0.82407 0.0
C81 C 0.40396 0.93086 0.92284 0.0
C82 C 0.31476 0.93161 0.81899 0.0
C83 C 0.30528 0.8308 0.91947 0.0
O84 O 0.44358 0.91063 0.90335 0.0
O85 O 0.34404 0.92537 0.91523 0.0
O86 O 0.27124 0.85148 0.8971 0.0
O87 O 0.36674 0.83509 0.91645 0.0
C88 C 0.40694 0.82864 0.81913 0.0
O89 O 0.27692 0.91089 0.83921 0.0
O90 O 0.37541 0.92624 0.82449 0.0
In91 In 0.62433 0.62565 0.62755 0.0
O92 O 0.54055 0.66044 0.65481 0.0
O93 O 0.63912 0.67146 0.67267 0.0
C94 C 0.57832 0.57495 0.57546 0.0
C95 C 0.68564 0.67278 0.57779 0.0
C96 C 0.6618 0.57433 0.681 0.0
O97 O 0.53997 0.59657 0.59429 0.0
O98 O 0.63854 0.57933 0.58305 0.0
O99 O 0.70298 0.59341 0.66136 0.0
O100 O 0.60228 0.58128 0.67352 0.0
C101 C 0.57909 0.67961 0.67624 0.0
O102 O 0.71698 0.65133 0.60082 0.0
O103 O 0.62381 0.67035 0.58013 0.0
H104 H 0.18573 0.30275 0.45264 0.0
H105 H 0.3852 0.27457 0.48355 0.0
H106 H 0.34536 0.22773 0.53051 0.0
H107 H 0.25347 0.19467 0.56287 0.0
H108 H 0.05428 0.22322 0.53145 0.0
H109 H 0.09439 0.26988 0.48471 0.0
C110 C 0.22046 0.28636 0.46967 0.0
C111 C 0.28821 0.29212 0.46465 0.0
C112 C 0.19727 0.25949 0.49655 0.0
C113 C 0.33269 0.27066 0.48689 0.0
C114 C 0.30998 0.24386 0.51375 0.0
C115 C 0.21896 0.21112 0.54577 0.0
C116 C 0.15108 0.20549 0.55064 0.0
C117 C 0.24235 0.23802 0.51884 0.0
C118 C 0.10685 0.227 0.52828 0.0
C119 C 0.12968 0.25373 0.50151 0.0
H120 H 0.78545 0.55492 0.70268 0.0
H121 H 0.58141 0.53024 0.72578 0.0
H122 H 0.61302 0.48359 0.77494 0.0
H123 H 0.69913 0.44975 0.81168 0.0
H124 H 0.90291 0.47513 0.78806 0.0
H125 H 0.8709 0.52134 0.73901 0.0
C126 C 0.74792 0.53932 0.71846 0.0
C127 C 0.68128 0.54604 0.7106 0.0
C128 C 0.76638 0.51259 0.7467 0.0
C129 C 0.63317 0.5256 0.7313 0.0
C130 C 0.65116 0.4989 0.75944 0.0
C131 C 0.73639 0.46542 0.79577 0.0
C132 C 0.80322 0.45898 0.80357 0.0
C133 C 0.71767 0.49215 0.76743 0.0
C134 C 0.85104 0.47951 0.78269 0.0
C135 C 0.83285 0.506 0.75457 0.0
H136 H 0.44175 0.05525 0.05348 0.0
H137 H 0.64577 0.03059 0.03125 0.0
H138 H 0.61437 0.98393 0.98223 0.0
H139 H 0.52878 0.94992 0.9452 0.0
H140 H 0.32483 0.97491 0.9674 0.0
H141 H 0.35632 0.02131 0.01655 0.0
C142 C 0.47926 0.03964 0.03791 0.0
C143 C 0.54591 0.04645 0.04606 0.0
C144 C 0.46092 0.01278 0.00959 0.0
C145 C 0.59399 0.02596 0.02558 0.0
C146 C 0.57614 0.99921 0.99748 0.0
C147 C 0.49133 0.96554 0.96081 0.0
C148 C 0.42464 0.95892 0.95256 0.0
C149 C 0.50974 0.99237 0.98917 0.0
C150 C 0.37663 0.97942 0.97309 0.0
C151 C 0.39453 0.00602 1.00128 0.0
H152 H 0.88516 0.77426 0.27292 0.0
H153 H 0.06844 0.81325 0.32218 0.0
H154 H 0.12911 0.77029 0.2798 0.0
H155 H 0.13019 0.72205 0.22862 0.0
H156 H 0.94729 0.68269 0.17926 0.0
H157 H 0.88625 0.72546 0.22186 0.0
C158 C 0.93837 0.7733 0.27437 0.0
C159 C 0.9723 0.79687 0.30057 0.0
C160 C 0.97294 0.74855 0.24993 0.0
C161 C 0.04122 0.79535 0.30222 0.0
C162 C 0.07595 0.77083 0.278 0.0
C163 C 0.07696 0.72283 0.22718 0.0
C164 C 0.04325 0.69934 0.20085 0.0
C165 C 0.04232 0.74738 0.25172 0.0
C166 C 0.97432 0.70056 0.19932 0.0
C167 C 0.93942 0.72499 0.22365 0.0
H168 H 0.18789 0.94981 0.80415 0.0
H169 H 0.38689 0.97767 0.77147 0.0
H170 H 0.34651 0.02528 0.72556 0.0
H171 H 0.25426 0.05903 0.6946 0.0
H172 H 0.05556 0.03083 0.72786 0.0
H173 H 0.09623 0.98345 0.77358 0.0
C174 C 0.2224 0.96628 0.78695 0.0
C175 C 0.29017 0.96022 0.79116 0.0
C176 C 0.19891 0.99361 0.76071 0.0
C177 C 0.33437 0.98181 0.76874 0.0
C178 C 0.31135 0.00905 0.74248 0.0
C179 C 0.21998 0.04252 0.7119 0.0
C180 C 0.15208 0.04843 0.70783 0.0
C181 C 0.24369 0.01521 0.73822 0.0
C182 C 0.10815 0.02683 0.73042 0.0
C183 C 0.1313 0.99969 0.7566 0.0
H184 H 0.04254 0.4487 0.95315 0.0
H185 H 0.84355 0.47908 0.9828 0.0
H186 H 0.88423 0.5262 0.02907 0.0
H187 H 0.97621 0.55873 0.06107 0.0
H188 H 0.17527 0.52851 0.0315 0.0
H189 H 0.13465 0.48132 0.98518 0.0
C190 C 0.00814 0.46564 0.96976 0.0
C191 C 0.94024 0.46045 0.96462 0.0
C192 C 0.03183 0.49267 0.99628 0.0
C193 C 0.89613 0.48257 0.98628 0.0
C194 C 0.91931 0.50951 0.01273 0.0
C195 C 0.01066 0.54181 0.04448 0.0
C196 C 0.07853 0.54703 0.04965 0.0
C197 C 0.98702 0.51479 0.01796 0.0
C198 C 0.1227 0.52496 0.02799 0.0
C199 C 0.09956 0.49799 1.00152 0.0
H200 H 0.52644 0.30143 0.31081 0.0
H201 H 0.32271 0.27653 0.28654 0.0
H202 H 0.35476 0.22974 0.23805 0.0
H203 H 0.44067 0.1955 0.20224 0.0
H204 H 0.64444 0.22025 0.22649 0.0
H205 H 0.61245 0.26715 0.27495 0.0
C206 C 0.48915 0.28576 0.29489 0.0
C207 C 0.42236 0.29252 0.30235 0.0
C208 C 0.50789 0.25872 0.26691 0.0
C209 C 0.37457 0.27193 0.28144 0.0
C210 C 0.3928 0.2451 0.25363 0.0
C211 C 0.47799 0.21116 0.21815 0.0
C212 C 0.54476 0.20431 0.21071 0.0
C213 C 0.4593 0.2382 0.2461 0.0
C214 C 0.59259 0.22489 0.2316 0.0
C215 C 0.57439 0.25179 0.25938 0.0
H216 H 0.86494 0.77535 0.47077 0.0
H217 H 0.67555 0.81028 0.42742 0.0
H218 H 0.62118 0.76683 0.47282 0.0
H219 H 0.62765 0.71933 0.52511 0.0
H220 H 0.81729 0.68449 0.56823 0.0
H221 H 0.87146 0.7276 0.52256 0.0
C222 C 0.81174 0.77343 0.47119 0.0
C223 C 0.7743 0.79601 0.44577 0.0
C224 C 0.78094 0.74848 0.49734 0.0
C225 C 0.70546 0.79318 0.44667 0.0
C226 C 0.67438 0.76838 0.47264 0.0
C227 C 0.68085 0.72116 0.52451 0.0
C228 C 0.71842 0.69877 0.55007 0.0
C229 C 0.71164 0.74597 0.49816 0.0
C230 C 0.78727 0.70143 0.54889 0.0
C231 C 0.81826 0.72606 0.52279 0.0
H232 H 0.13825 0.52924 0.22657 0.0
H233 H 0.3329 0.56909 0.19723 0.0
H234 H 0.3807 0.52351 0.2428 0.0
H235 H 0.36712 0.47207 0.2904 0.0
H236 H 0.17251 0.43234 0.32 0.0
H237 H 0.1246 0.47826 0.27477 0.0
C238 C 0.19114 0.52799 0.23019 0.0
C239 C 0.23204 0.55244 0.20856 0.0
C240 C 0.21819 0.50176 0.25639 0.0
C241 C 0.30042 0.55055 0.21357 0.0
C242 C 0.32776 0.5245 0.23958 0.0
C243 C 0.3142 0.47345 0.28696 0.0
C244 C 0.27338 0.44882 0.30843 0.0
C245 C 0.28711 0.49991 0.26103 0.0
C246 C 0.20494 0.451 0.30377 0.0
C247 C 0.17755 0.47723 0.27793 0.0
H248 H 0.69627 0.3074 0.9528 0.0
H249 H 0.89833 0.28538 0.98322 0.0
H250 H 0.86357 0.23676 0.02939 0.0
H251 H 0.77596 0.20021 0.06137 0.0
H252 H 0.57374 0.22206 0.03136 0.0
H253 H 0.6083 0.27076 0.98501 0.0
C254 C 0.73257 0.29196 0.96957 0.0
C255 C 0.79969 0.30004 0.96455 0.0
C256 C 0.71228 0.2639 0.99621 0.0
C257 C 0.84625 0.27976 0.98649 0.0
C258 C 0.82649 0.25189 0.01295 0.0
C259 C 0.73951 0.21563 0.04466 0.0
C260 C 0.67248 0.20751 0.04981 0.0
C261 C 0.75967 0.24368 0.01806 0.0
C262 C 0.62577 0.22776 0.02797 0.0
C263 C 0.64544 0.25565 1.00142 0.0
H264 H 0.70138 0.94236 0.30093 0.0
H265 H 0.90332 0.96983 0.27471 0.0
H266 H 0.86776 0.0186 0.2288 0.0
H267 H 0.77911 0.05388 0.19617 0.0
H268 H 0.57724 0.02643 0.22273 0.0
H269 H 0.6129 0.97746 0.26827 0.0
C270 C 0.73754 0.95898 0.2851 0.0
C271 C 0.80481 0.95245 0.29122 0.0
C272 C 0.71678 0.9871 0.25879 0.0
C273 C 0.85115 0.97427 0.27054 0.0
C274 C 0.83089 0.00221 0.24427 0.0
C275 C 0.74301 0.03717 0.21195 0.0
C276 C 0.6757 0.04383 0.20606 0.0
C277 C 0.76383 0.00895 0.23819 0.0
C278 C 0.62944 0.02192 0.22672 0.0
C279 C 0.64974 0.99385 0.25279 0.0
H280 H 0.85653 0.96958 0.47035 0.0
H281 H 0.05162 0.93145 0.44087 0.0
H282 H 0.09898 0.9766 0.487 0.0
H283 H 0.08504 0.02714 0.5351 0.0
H284 H 0.89027 0.06543 0.56493 0.0
H285 H 0.84253 0.01985 0.51916 0.0
C286 C 0.9094 0.97114 0.47408 0.0
C287 C 0.95057 0.94731 0.45225 0.0
C288 C 0.93626 0.99715 0.50061 0.0
C289 C 0.01894 0.94955 0.45736 0.0
C290 C 0.04605 0.97535 0.48369 0.0
C291 C 0.03213 0.02551 0.5316 0.0
C292 C -0.00882 0.0496 0.55324 0.0
C293 C 0.00518 0.99932 0.50536 0.0
C294 C 0.92276 0.04715 0.54852 0.0
C295 C 0.89548 0.02113 0.52238 0.0
H296 H 0.85871 0.28401 0.78879 0.0
H297 H 0.0538 0.31833 0.82387 0.0
H298 H 0.10144 0.27312 0.77801 0.0
H299 H 0.08735 0.22404 0.72803 0.0
H300 H 0.89207 0.18987 0.6931 0.0
H301 H 0.84462 0.23501 0.73899 0.0
C302 C 0.91168 0.2816 0.78642 0.0
C303 C 0.95275 0.30441 0.80962 0.0
C304 C 0.93857 0.25566 0.76008 0.0
C305 C 0.02122 0.30102 0.80628 0.0
C306 C 0.04844 0.27521 0.78009 0.0
C307 C 0.0344 0.22649 0.73047 0.0
C308 C -0.0068 0.20372 0.70727 0.0
C309 C 0.00755 0.25243 0.75686 0.0
C310 C 0.92475 0.20713 0.71069 0.0
C311 C 0.89762 0.2329 0.73689 0.0
H312 H 0.45334 0.70129 0.69252 0.0
H313 H 0.6555 0.72426 0.72247 0.0
H314 H 0.62088 0.77234 0.7691 0.0
H315 H 0.53299 0.80789 0.80203 0.0
H316 H 0.33084 0.78465 0.77219 0.0
H317 H 0.36555 0.73699 0.72521 0.0
C318 C 0.48974 0.71688 0.7092 0.0
C319 C 0.55683 0.70914 0.70396 0.0
C320 C 0.46952 0.74455 0.73617 0.0
C321 C 0.60344 0.72959 0.72589 0.0
C322 C 0.58374 0.75715 0.75264 0.0
C323 C 0.49663 0.79239 0.78522 0.0
C324 C 0.42949 0.79987 0.79069 0.0
C325 C 0.51689 0.76485 0.75812 0.0
C326 C 0.38293 0.77951 0.76863 0.0
C327 C 0.40268 0.75218 0.74169 0.0
H328 H 0.13981 0.72296 0.02867 0.0
H329 H 0.33383 0.69527 0.07032 0.0
H330 H 0.38224 0.74008 0.02404 0.0
H331 H 0.36932 0.7867 0.97159 0.0
H332 H 0.17526 0.81454 0.9301 0.0
H333 H 0.12684 0.76994 0.97657 0.0
C334 C 0.1927 0.72677 0.02767 0.0
C335 C 0.23323 0.70584 0.05284 0.0
C336 C 0.22009 0.7525 1.00102 0.0
C337 C 0.30162 0.71108 0.05123 0.0
C338 C 0.3293 0.73665 0.02478 0.0
C339 C 0.31642 0.78299 0.97269 0.0
C340 C 0.27589 0.80382 0.94742 0.0
C341 C 0.289 0.75743 0.99949 0.0
C342 C 0.20747 0.7988 0.94924 0.0
C343 C 0.17978 0.77334 0.97579 0.0
H344 H 0.53086 0.4452 0.45116 0.0
H345 H 0.32889 0.46935 0.47958 0.0
H346 H 0.36404 0.51857 0.52503 0.0
H347 H 0.45222 0.55475 0.55742 0.0
H348 H 0.65425 0.53023 0.52953 0.0
H349 H 0.6191 0.48158 0.4834 0.0
C350 C 0.49463 0.46125 0.46731 0.0
C351 C 0.42743 0.45352 0.46196 0.0
C352 C 0.51516 0.48962 0.49359 0.0
C353 C 0.38104 0.47462 0.48313 0.0
C354 C 0.40103 0.50286 0.50917 0.0
C355 C 0.48847 0.53882 0.54116 0.0
C356 C 0.55568 0.54615 0.54696 0.0
C357 C 0.46796 0.51061 0.51472 0.0
C358 C 0.6021 0.52517 0.5257 0.0
C359 C 0.5821 0.49728 0.49927 0.0
loop_
_geom_bond_atom_site_label_1
_geom_bond_atom_site_label_2
_geom_bond_distance
_geom_bond_site_symmetry_2
_ccdc_geom_bond_type
In0 O1 2.294 . S
In0 O2 2.326 . S
In0 O6 2.266 . S
In0 O7 2.326 . S
In0 O8 2.266 . S
In0 O9 2.326 . S
In0 O11 2.294 . S
In0 O12 2.326 . S
O1 In0 2.294 . S
O1 C10 1.240 . S
O2 In0 2.326 . S
O2 C10 1.252 . S
C3 O6 1.252 . S
C3 O7 1.260 . S
C4 O11 1.240 . S
C4 O12 1.252 . S
C5 O8 1.252 . S
C5 O9 1.260 . S
O6 In0 2.266 . S
O6 C3 1.252 . S
O7 In0 2.326 . S
O7 C3 1.260 . S
O8 In0 2.266 . S
O8 C5 1.252 . S
O9 In0 2.326 . S
O9 C5 1.260 . S
C10 O1 1.240 . S
C10 O2 1.252 . S
O11 In0 2.294 . S
O11 C4 1.240 . S
O12 In0 2.326 . S
O12 C4 1.252 . S
In13 O14 2.294 . S
In13 O15 2.326 . S
In13 O19 2.266 . S
In13 O20 2.326 . S
In13 O21 2.266 . S
In13 O22 2.326 . S
In13 O24 2.294 . S
In13 O25 2.326 . S
O14 In13 2.294 . S
O14 C23 1.240 . S
O15 In13 2.326 . S
O15 C23 1.252 . S
C16 O19 1.252 . S
C16 O20 1.260 . S
C17 O24 1.240 . S
C17 O25 1.252 . S
C18 O21 1.252 . S
C18 O22 1.260 . S
O19 In13 2.266 . S
O19 C16 1.252 . S
O20 In13 2.326 . S
O20 C16 1.260 . S
O21 In13 2.266 . S
O21 C18 1.252 . S
O22 In13 2.326 . S
O22 C18 1.260 . S
C23 O14 1.240 . S
C23 O15 1.252 . S
O24 In13 2.294 . S
O24 C17 1.240 . S
O25 In13 2.326 . S
O25 C17 1.252 . S
In26 O27 2.294 . S
In26 O28 2.326 . S
In26 O32 2.266 . S
In26 O33 2.326 . S
In26 O34 2.266 . S
In26 O35 2.326 . S
In26 O37 2.294 . S
In26 O38 2.326 . S
O27 In26 2.294 . S
O27 C36 1.240 . S
O28 In26 2.326 . S
O28 C36 1.252 . S
C29 O32 1.252 . S
C29 O33 1.260 . S
C30 O37 1.240 . S
C30 O38 1.252 . S
C31 O34 1.252 . S
C31 O35 1.260 . S
O32 In26 2.266 . S
O32 C29 1.252 . S
O33 In26 2.326 . S
O33 C29 1.260 . S
O34 In26 2.266 . S
O34 C31 1.252 . S
O35 In26 2.326 . S
O35 C31 1.260 . S
C36 O27 1.240 . S
C36 O28 1.252 . S
O37 In26 2.294 . S
O37 C30 1.240 . S
O38 In26 2.326 . S
O38 C30 1.252 . S
In39 O40 2.294 . S
In39 O41 2.326 . S
In39 O45 2.266 . S
In39 O46 2.326 . S
In39 O47 2.266 . S
In39 O48 2.326 . S
In39 O50 2.294 . S
In39 O51 2.326 . S
O40 In39 2.294 . S
O40 C49 1.240 . S
O41 In39 2.326 . S
O41 C49 1.252 . S
C42 O45 1.252 . S
C42 O46 1.260 . S
C43 O50 1.240 . S
C43 O51 1.252 . S
C44 O47 1.252 . S
C44 O48 1.260 . S
O45 In39 2.266 . S
O45 C42 1.252 . S
O46 In39 2.326 . S
O46 C42 1.260 . S
O47 In39 2.266 . S
O47 C44 1.252 . S
O48 In39 2.326 . S
O48 C44 1.260 . S
C49 O40 1.240 . S
C49 O41 1.252 . S
O50 In39 2.294 . S
O50 C43 1.240 . S
O51 In39 2.326 . S
O51 C43 1.252 . S
In52 O53 2.294 . S
In52 O54 2.326 . S
In52 O58 2.266 . S
In52 O59 2.326 . S
In52 O60 2.266 . S
In52 O61 2.326 . S
In52 O63 2.294 . S
In52 O64 2.326 . S
O53 In52 2.294 . S
O53 C62 1.240 . S
O54 In52 2.326 . S
O54 C62 1.252 . S
C55 O58 1.252 . S
C55 O59 1.260 . S
C56 O63 1.240 . S
C56 O64 1.252 . S
C57 O60 1.252 . S
C57 O61 1.260 . S
O58 In52 2.266 . S
O58 C55 1.252 . S
O59 In52 2.326 . S
O59 C55 1.260 . S
O60 In52 2.266 . S
O60 C57 1.252 . S
O61 In52 2.326 . S
O61 C57 1.260 . S
C62 O53 1.240 . S
C62 O54 1.252 . S
O63 In52 2.294 . S
O63 C56 1.240 . S
O64 In52 2.326 . S
O64 C56 1.252 . S
In65 O66 2.294 . S
In65 O67 2.326 . S
In65 O71 2.266 . S
In65 O72 2.326 . S
In65 O73 2.266 . S
In65 O74 2.326 . S
In65 O76 2.294 . S
In65 O77 2.326 . S
O66 In65 2.294 . S
O66 C75 1.240 . S
O67 In65 2.326 . S
O67 C75 1.252 . S
C68 O71 1.252 . S
C68 O72 1.260 . S
C69 O76 1.240 . S
C69 O77 1.252 . S
C70 O73 1.252 . S
C70 O74 1.260 . S
O71 In65 2.266 . S
O71 C68 1.252 . S
O72 In65 2.326 . S
O72 C68 1.260 . S
O73 In65 2.266 . S
O73 C70 1.252 . S
O74 In65 2.326 . S
O74 C70 1.260 . S
C75 O66 1.240 . S
C75 O67 1.252 . S
O76 In65 2.294 . S
O76 C69 1.240 . S
O77 In65 2.326 . S
O77 C69 1.252 . S
In78 O79 2.294 . S
In78 O80 2.326 . S
In78 O84 2.266 . S
In78 O85 2.326 . S
In78 O86 2.266 . S
In78 O87 2.326 . S
In78 O89 2.294 . S
In78 O90 2.326 . S
O79 In78 2.294 . S
O79 C88 1.240 . S
O80 In78 2.326 . S
O80 C88 1.252 . S
C81 O84 1.252 . S
C81 O85 1.260 . S
C82 O89 1.240 . S
C82 O90 1.252 . S
C83 O86 1.252 . S
C83 O87 1.260 . S
O84 In78 2.266 . S
O84 C81 1.252 . S
O85 In78 2.326 . S
O85 C81 1.260 . S
O86 In78 2.266 . S
O86 C83 1.252 . S
O87 In78 2.326 . S
O87 C83 1.260 . S
C88 O79 1.240 . S
C88 O80 1.252 . S
O89 In78 2.294 . S
O89 C82 1.240 . S
O90 In78 2.326 . S
O90 C82 1.252 . S
In91 O92 2.294 . S
In91 O93 2.326 . S
In91 O97 2.266 . S
In91 O98 2.326 . S
In91 O99 2.266 . S
In91 O100 2.326 . S
In91 O102 2.294 . S
In91 O103 2.326 . S
O92 In91 2.294 . S
O92 C101 1.240 . S
O93 In91 2.326 . S
O93 C101 1.252 . S
C94 O97 1.252 . S
C94 O98 1.260 . S
C95 O102 1.240 . S
C95 O103 1.252 . S
C96 O99 1.252 . S
C96 O100 1.260 . S
O97 In91 2.266 . S
O97 C94 1.252 . S
O98 In91 2.326 . S
O98 C94 1.260 . S
O99 In91 2.266 . S
O99 C96 1.252 . S
O100 In91 2.326 . S
O100 C96 1.260 . S
C101 O92 1.240 . S
C101 O93 1.252 . S
O102 In91 2.294 . S
O102 C95 1.240 . S
O103 In91 2.326 . S
O103 C95 1.252 . S
H104 C110 0.930 . S
H105 C113 0.930 . S
H106 C114 0.930 . S
H107 C115 0.930 . S
H108 C118 0.930 . S
H109 C119 0.930 . S
C110 H104 0.930 . S
C110 C111 1.355 . S
C110 C112 1.415 . S
C111 C110 1.355 . S
C111 C113 1.419 . S
C112 C110 1.415 . S
C112 C117 1.425 . S
C112 C119 1.409 . S
C113 H105 0.930 . S
C113 C111 1.419 . S
C113 C114 1.362 . S
C114 H106 0.930 . S
C114 C113 1.362 . S
C114 C117 1.409 . S
C115 H107 0.930 . S
C115 C116 1.355 . S
C115 C117 1.415 . S
C116 C115 1.355 . S
C116 C118 1.419 . S
C117 C112 1.425 . S
C117 C114 1.409 . S
C117 C115 1.415 . S
C118 H108 0.930 . S
C118 C116 1.419 . S
C118 C119 1.362 . S
C119 H109 0.930 . S
C119 C112 1.409 . S
C119 C118 1.362 . S
H120 C126 0.930 . S
H121 C129 0.930 . S
H122 C130 0.930 . S
H123 C131 0.930 . S
H124 C134 0.930 . S
H125 C135 0.930 . S
C126 H120 0.930 . S
C126 C127 1.355 . S
C126 C128 1.415 . S
C127 C126 1.355 . S
C127 C129 1.419 . S
C128 C126 1.415 . S
C128 C133 1.425 . S
C128 C135 1.409 . S
C129 H121 0.930 . S
C129 C127 1.419 . S
C129 C130 1.362 . S
C130 H122 0.930 . S
C130 C129 1.362 . S
C130 C133 1.409 . S
C131 H123 0.930 . S
C131 C132 1.355 . S
C131 C133 1.415 . S
C132 C131 1.355 . S
C132 C134 1.419 . S
C133 C128 1.425 . S
C133 C130 1.409 . S
C133 C131 1.415 . S
C134 H124 0.930 . S
C134 C132 1.419 . S
C134 C135 1.362 . S
C135 H125 0.930 . S
C135 C128 1.409 . S
C135 C134 1.362 . S
H136 C142 0.930 . S
H137 C145 0.930 . S
H138 C146 0.930 . S
H139 C147 0.930 . S
H140 C150 0.930 . S
H141 C151 0.930 . S
C142 H136 0.930 . S
C142 C143 1.355 . S
C142 C144 1.415 1_545 S
C143 C142 1.355 . S
C143 C145 1.419 . S
C144 C142 1.415 1_565 S
C144 C149 1.425 1_554 S
C144 C151 1.409 . S
C145 H137 0.930 . S
C145 C143 1.419 . S
C145 C146 1.362 1_554 S
C146 H138 0.930 . S
C146 C145 1.362 1_556 S
C146 C149 1.409 1_545 S
C147 H139 0.930 . S
C147 C148 1.355 . S
C147 C149 1.415 . S
C148 C147 1.355 . S
C148 C150 1.419 . S
C149 C144 1.425 1_556 S
C149 C146 1.409 1_565 S
C149 C147 1.415 . S
C150 H140 0.930 . S
C150 C148 1.419 . S
C150 C151 1.362 1_556 S
C151 H141 0.930 . S
C151 C144 1.409 . S
C151 C150 1.362 1_554 S
H152 C158 0.930 . S
H153 C161 0.930 . S
H154 C162 0.930 . S
H155 C163 0.930 . S
H156 C166 0.930 . S
H157 C167 0.930 . S
C158 H152 0.930 . S
C158 C159 1.355 . S
C158 C160 1.415 . S
C159 C158 1.355 . S
C159 C161 1.419 1_655 S
C160 C158 1.415 . S
C160 C165 1.425 1_655 S
C160 C167 1.409 . S
C161 H153 0.930 . S
C161 C159 1.419 1_455 S
C161 C162 1.362 . S
C162 H154 0.930 . S
C162 C161 1.362 . S
C162 C165 1.409 . S
C163 H155 0.930 . S
C163 C164 1.355 . S
C163 C165 1.415 . S
C164 C163 1.355 . S
C164 C166 1.419 1_455 S
C165 C160 1.425 1_455 S
C165 C162 1.409 . S
C165 C163 1.415 . S
C166 H156 0.930 . S
C166 C164 1.419 1_655 S
C166 C167 1.362 . S
C167 H157 0.930 . S
C167 C160 1.409 . S
C167 C166 1.362 . S
H168 C174 0.930 . S
H169 C177 0.930 . S
H170 C178 0.930 . S
H171 C179 0.930 . S
H172 C182 0.930 . S
H173 C183 0.930 . S
C174 H168 0.930 . S
C174 C175 1.355 . S
C174 C176 1.415 . S
C175 C174 1.355 . S
C175 C177 1.419 . S
C176 C174 1.415 . S
C176 C181 1.425 . S
C176 C183 1.409 1_565 S
C177 H169 0.930 . S
C177 C175 1.419 . S
C177 C178 1.362 . S
C178 H170 0.930 . S
C178 C177 1.362 . S
C178 C181 1.409 . S
C179 H171 0.930 . S
C179 C180 1.355 . S
C179 C181 1.415 1_545 S
C180 C179 1.355 . S
C180 C182 1.419 . S
C181 C176 1.425 . S
C181 C178 1.409 . S
C181 C179 1.415 1_565 S
C182 H172 0.930 . S
C182 C180 1.419 . S
C182 C183 1.362 . S
C183 H173 0.930 . S
C183 C176 1.409 1_545 S
C183 C182 1.362 . S
H184 C190 0.930 . S
H185 C193 0.930 . S
H186 C194 0.930 . S
H187 C195 0.930 . S
H188 C198 0.930 . S
H189 C199 0.930 1_556 S
C190 H184 0.930 . S
C190 C191 1.355 1_455 S
C190 C192 1.415 . S
C191 C190 1.355 1_655 S
C191 C193 1.419 . S
C192 C190 1.415 . S
C192 C197 1.425 1_456 S
C192 C199 1.409 1_556 S
C193 H185 0.930 . S
C193 C191 1.419 . S
C193 C194 1.362 1_556 S
C194 H186 0.930 . S
C194 C193 1.362 1_554 S
C194 C197 1.409 . S
C195 H187 0.930 . S
C195 C196 1.355 1_655 S
C195 C197 1.415 . S
C196 C195 1.355 1_455 S
C196 C198 1.419 . S
C197 C192 1.425 1_654 S
C197 C194 1.409 . S
C197 C195 1.415 . S
C198 H188 0.930 . S
C198 C196 1.419 . S
C198 C199 1.362 . S
C199 H189 0.930 1_554 S
C199 C192 1.409 1_554 S
C199 C198 1.362 . S
H200 C206 0.930 . S
H201 C209 0.930 . S
H202 C210 0.930 . S
H203 C211 0.930 . S
H204 C214 0.930 . S
H205 C215 0.930 . S
C206 H200 0.930 . S
C206 C207 1.355 . S
C206 C208 1.415 . S
C207 C206 1.355 . S
C207 C209 1.419 . S
C208 C206 1.415 . S
C208 C213 1.425 . S
C208 C215 1.409 . S
C209 H201 0.930 . S
C209 C207 1.419 . S
C209 C210 1.362 . S
C210 H202 0.930 . S
C210 C209 1.362 . S
C210 C213 1.409 . S
C211 H203 0.930 . S
C211 C212 1.355 . S
C211 C213 1.415 . S
C212 C211 1.355 . S
C212 C214 1.419 . S
C213 C208 1.425 . S
C213 C210 1.409 . S
C213 C211 1.415 . S
C214 H204 0.930 . S
C214 C212 1.419 . S
C214 C215 1.362 . S
C215 H205 0.930 . S
C215 C208 1.409 . S
C215 C214 1.362 . S
H216 C222 0.930 . S
H217 C225 0.930 . S
H218 C226 0.930 . S
H219 C227 0.930 . S
H220 C230 0.930 . S
H221 C231 0.930 . S
C222 H216 0.930 . S
C222 C223 1.355 . S
C222 C224 1.415 . S
C223 C222 1.355 . S
C223 C225 1.419 . S
C224 C222 1.415 . S
C224 C229 1.425 . S
C224 C231 1.409 . S
C225 H217 0.930 . S
C225 C223 1.419 . S
C225 C226 1.362 . S
C226 H218 0.930 . S
C226 C225 1.362 . S
C226 C229 1.409 . S
C227 H219 0.930 . S
C227 C228 1.355 . S
C227 C229 1.415 . S
C228 C227 1.355 . S
C228 C230 1.419 . S
C229 C224 1.425 . S
C229 C226 1.409 . S
C229 C227 1.415 . S
C230 H220 0.930 . S
C230 C228 1.419 . S
C230 C231 1.362 . S
C231 H221 0.930 . S
C231 C224 1.409 . S
C231 C230 1.362 . S
H232 C238 0.930 . S
H233 C241 0.930 . S
H234 C242 0.930 . S
H235 C243 0.930 . S
H236 C246 0.930 . S
H237 C247 0.930 . S
C238 H232 0.930 . S
C238 C239 1.355 . S
C238 C240 1.415 . S
C239 C238 1.355 . S
C239 C241 1.419 . S
C240 C238 1.415 . S
C240 C245 1.425 . S
C240 C247 1.409 . S
C241 H233 0.930 . S
C241 C239 1.419 . S
C241 C242 1.362 . S
C242 H234 0.930 . S
C242 C241 1.362 . S
C242 C245 1.409 . S
C243 H235 0.930 . S
C243 C244 1.355 . S
C243 C245 1.415 . S
C244 C243 1.355 . S
C244 C246 1.419 . S
C245 C240 1.425 . S
C245 C242 1.409 . S
C245 C243 1.415 . S
C246 H236 0.930 . S
C246 C244 1.419 . S
C246 C247 1.362 . S
C247 H237 0.930 . S
C247 C240 1.409 . S
C247 C246 1.362 . S
H248 C254 0.930 . S
H249 C257 0.927 1_554 S
H250 C258 0.930 . S
H251 C259 0.930 . S
H252 C262 0.930 . S
H253 C263 0.930 . S
C254 H248 0.930 . S
C254 C255 1.355 . S
C254 C256 1.415 . S
C255 C254 1.355 . S
C255 C257 1.443 . S
C256 C254 1.415 . S
C256 C261 1.425 1_556 S
C256 C263 1.409 . S
C257 H249 0.927 1_556 S
C257 C255 1.443 . S
C257 C258 1.342 1_556 S
C258 H250 0.930 . S
C258 C257 1.342 1_554 S
C258 C261 1.409 . S
C259 H251 0.930 . S
C259 C260 1.355 . S
C259 C261 1.415 . S
C260 C259 1.355 . S
C260 C262 1.419 . S
C261 C256 1.425 1_554 S
C261 C258 1.409 . S
C261 C259 1.415 . S
C262 H252 0.930 . S
C262 C260 1.419 . S
C262 C263 1.362 1_554 S
C263 H253 0.930 . S
C263 C256 1.409 . S
C263 C262 1.362 1_556 S
H264 C270 0.930 . S
H265 C273 0.930 . S
H266 C274 0.930 . S
H267 C275 0.930 . S
H268 C278 0.930 . S
H269 C279 0.930 . S
C270 H264 0.930 . S
C270 C271 1.355 . S
C270 C272 1.415 . S
C271 C270 1.355 . S
C271 C273 1.419 . S
C272 C270 1.415 . S
C272 C277 1.425 1_565 S
C272 C279 1.409 . S
C273 H265 0.930 . S
C273 C271 1.419 . S
C273 C274 1.362 1_565 S
C274 H266 0.930 . S
C274 C273 1.362 1_545 S
C274 C277 1.409 . S
C275 H267 0.930 . S
C275 C276 1.355 . S
C275 C277 1.415 . S
C276 C275 1.355 . S
C276 C278 1.419 . S
C277 C272 1.425 1_545 S
C277 C274 1.409 . S
C277 C275 1.415 . S
C278 H268 0.930 . S
C278 C276 1.419 . S
C278 C279 1.362 1_545 S
C279 H269 0.930 . S
C279 C272 1.409 . S
C279 C278 1.362 1_565 S
H280 C286 0.930 . S
H281 C289 0.930 . S
H282 C290 0.931 1_545 S
H283 C291 0.930 . S
H284 C294 0.930 . S
H285 C295 0.930 . S
C286 H280 0.930 . S
C286 C287 1.355 . S
C286 C288 1.415 . S
C287 C286 1.355 . S
C287 C289 1.419 1_655 S
C288 C286 1.415 . S
C288 C293 1.425 1_665 S
C288 C295 1.409 . S
C289 H281 0.930 . S
C289 C287 1.419 1_455 S
C289 C290 1.362 . S
C290 H282 0.931 1_565 S
C290 C289 1.362 . S
C290 C293 1.409 1_565 S
C291 H283 0.930 . S
C291 C292 1.355 . S
C291 C293 1.415 . S
C292 C291 1.355 . S
C292 C294 1.419 1_455 S
C293 C288 1.425 1_445 S
C293 C290 1.409 1_545 S
C293 C291 1.415 . S
C294 H284 0.930 . S
C294 C292 1.419 1_655 S
C294 C295 1.362 1_545 S
C295 H285 0.930 . S
C295 C288 1.409 . S
C295 C294 1.362 1_565 S
H296 C302 0.930 . S
H297 C305 0.930 . S
H298 C306 0.930 . S
H299 C307 0.930 . S
H300 C310 0.930 . S
H301 C311 0.930 . S
C302 H296 0.930 . S
C302 C303 1.355 . S
C302 C304 1.415 . S
C303 C302 1.355 . S
C303 C305 1.419 1_655 S
C304 C302 1.415 . S
C304 C309 1.425 1_655 S
C304 C311 1.409 . S
C305 H297 0.930 . S
C305 C303 1.419 1_455 S
C305 C306 1.362 . S
C306 H298 0.930 . S
C306 C305 1.362 . S
C306 C309 1.409 . S
C307 H299 0.930 . S
C307 C308 1.355 . S
C307 C309 1.415 . S
C308 C307 1.355 . S
C308 C310 1.419 1_455 S
C309 C304 1.425 1_455 S
C309 C306 1.409 . S
C309 C307 1.415 . S
C310 H300 0.930 . S
C310 C308 1.419 1_655 S
C310 C311 1.362 . S
C311 H301 0.930 . S
C311 C304 1.409 . S
C311 C310 1.362 . S
H312 C318 0.930 . S
H313 C321 0.930 . S
H314 C322 0.930 . S
H315 C323 0.930 . S
H316 C326 0.930 . S
H317 C327 0.930 . S
C318 H312 0.930 . S
C318 C319 1.355 . S
C318 C320 1.415 . S
C319 C318 1.355 . S
C319 C321 1.419 . S
C320 C318 1.415 . S
C320 C325 1.425 . S
C320 C327 1.409 . S
C321 H313 0.930 . S
C321 C319 1.419 . S
C321 C322 1.362 . S
C322 H314 0.930 . S
C322 C321 1.362 . S
C322 C325 1.409 . S
C323 H315 0.930 . S
C323 C324 1.355 . S
C323 C325 1.415 . S
C324 C323 1.355 . S
C324 C326 1.419 . S
C325 C320 1.425 . S
C325 C322 1.409 . S
C325 C323 1.415 . S
C326 H316 0.930 . S
C326 C324 1.419 . S
C326 C327 1.362 . S
C327 H317 0.930 . S
C327 C320 1.409 . S
C327 C326 1.362 . S
H328 C334 0.930 . S
H329 C337 0.930 . S
H330 C338 0.930 . S
H331 C339 0.930 . S
H332 C342 0.930 . S
H333 C343 0.930 . S
C334 H328 0.930 . S
C334 C335 1.355 . S
C334 C336 1.415 . S
C335 C334 1.355 . S
C335 C337 1.419 . S
C336 C334 1.415 . S
C336 C341 1.425 1_554 S
C336 C343 1.409 . S
C337 H329 0.930 . S
C337 C335 1.419 . S
C337 C338 1.362 1_554 S
C338 H330 0.930 . S
C338 C337 1.362 1_556 S
C338 C341 1.409 . S
C339 H331 0.930 . S
C339 C340 1.355 . S
C339 C341 1.415 . S
C340 C339 1.355 . S
C340 C342 1.419 . S
C341 C336 1.425 1_556 S
C341 C338 1.409 . S
C341 C339 1.415 . S
C342 H332 0.930 . S
C342 C340 1.419 . S
C342 C343 1.362 1_556 S
C343 H333 0.930 . S
C343 C336 1.409 . S
C343 C342 1.362 1_554 S
H344 C350 0.930 . S
H345 C353 0.930 . S
H346 C354 0.930 . S
H347 C355 0.930 . S
H348 C358 0.930 . S
H349 C359 0.930 . S
C350 H344 0.930 . S
C350 C351 1.355 . S
C350 C352 1.415 . S
C351 C350 1.355 . S
C351 C353 1.419 . S
C352 C350 1.415 . S
C352 C357 1.425 . S
C352 C359 1.409 . S
C353 H345 0.930 . S
C353 C351 1.419 . S
C353 C354 1.362 . S
C354 H346 0.930 . S
C354 C353 1.362 . S
C354 C357 1.409 . S
C355 H347 0.930 . S
C355 C356 1.355 . S
C355 C357 1.415 . S
C356 C355 1.355 . S
C356 C358 1.419 . S
C357 C352 1.425 . S
C357 C354 1.409 . S
C357 C355 1.415 . S
C358 H348 0.930 . S
C358 C356 1.419 . S
C358 C359 1.362 . S
C359 H349 0.930 . S
C359 C352 1.409 . S
C359 C358 1.362 . S
C111 C70 1.511 . S
C116 C10 1.506 . S
C127 C96 1.504 . S
C132 C17 1.508 . S
C143 C29 1.504 . S
C148 C81 1.508 . S
C159 C43 1.508 . S
C164 C56 1.510 . S
C175 C82 1.511 . S
C180 C3 1.502 . S
C191 C16 1.508 . S
C196 C57 1.504 . S
C207 C75 1.510 . S
C212 C36 1.505 . S
C223 C42 1.510 . S
C228 C95 1.511 . S
C239 C55 1.510 . S
C244 C69 1.511 . S
C255 C18 1.513 . S
C260 C30 1.506 . S
C271 C49 1.507 . S
C276 C31 1.507 . S
C287 C44 1.505 . S
C292 C5 1.515 . S
C303 C23 1.507 . S
C308 C4 1.511 . S
C319 C101 1.509 . S
C324 C88 1.505 . S
C335 C62 1.506 . S
C340 C83 1.512 . S
C351 C68 1.511 . S
C356 C94 1.503 . S
