# Generated by pormake.
# Topology ecf, (8)-cn, num edge types: 1
# Building blocks:
#     Node 0, Type 0, BuildingBlock: TAGTUT_clean_sbu_1, # of connection points: 8
#     Node 1, Type 0, BuildingBlock: TAGTUT_clean_sbu_1, # of connection points: 8
#     Node 2, Type 0, BuildingBlock: TAGTUT_clean_sbu_1, # of connection points: 8
#     Node 3, Type 0, BuildingBlock: TAGTUT_clean_sbu_1, # of connection points: 8
#     Node 4, Type 0, BuildingBlock: TAGTUT_clean_sbu_1, # of connection points: 8
#     Node 5, Type 0, BuildingBlock: TAGTUT_clean_sbu_1, # of connection points: 8
#     Edge 6, Type (0, 0), BuildingBlock: AJUNOK_clean_linker_0, # of connection points: 2
#     Edge 7, Type (0, 0), BuildingBlock: AJUNOK_clean_linker_0, # of connection points: 2
#     Edge 8, Type (0, 0), BuildingBlock: AJUNOK_clean_linker_0, # of connection points: 2
#     Edge 9, Type (0, 0), BuildingBlock: AJUNOK_clean_linker_0, # of connection points: 2
#     Edge 10, Type (0, 0), BuildingBlock: AJUNOK_clean_linker_0, # of connection points: 2
#     Edge 11, Type (0, 0), BuildingBlock: AJUNOK_clean_linker_0, # of connection points: 2
#     Edge 12, Type (0, 0), BuildingBlock: AJUNOK_clean_linker_0, # of connection points: 2
#     Edge 13, Type (0, 0), BuildingBlock: AJUNOK_clean_linker_0, # of connection points: 2
#     Edge 14, Type (0, 0), BuildingBlock: AJUNOK_clean_linker_0, # of connection points: 2
#     Edge 15, Type (0, 0), BuildingBlock: AJUNOK_clean_linker_0, # of connection points: 2
#     Edge 16, Type (0, 0), BuildingBlock: AJUNOK_clean_linker_0, # of connection points: 2
#     Edge 17, Type (0, 0), BuildingBlock: AJUNOK_clean_linker_0, # of connection points: 2
#     Edge 18, Type (0, 0), BuildingBlock: AJUNOK_clean_linker_0, # of connection points: 2
#     Edge 19, Type (0, 0), BuildingBlock: AJUNOK_clean_linker_0, # of connection points: 2
#     Edge 20, Type (0, 0), BuildingBlock: AJUNOK_clean_linker_0, # of connection points: 2
#     Edge 21, Type (0, 0), BuildingBlock: AJUNOK_clean_linker_0, # of connection points: 2
#     Edge 22, Type (0, 0), BuildingBlock: AJUNOK_clean_linker_0, # of connection points: 2
#     Edge 23, Type (0, 0), BuildingBlock: AJUNOK_clean_linker_0, # of connection points: 2
#     Edge 24, Type (0, 0), BuildingBlock: AJUNOK_clean_linker_0, # of connection points: 2
#     Edge 25, Type (0, 0), BuildingBlock: AJUNOK_clean_linker_0, # of connection points: 2
#     Edge 26, Type (0, 0), BuildingBlock: AJUNOK_clean_linker_0, # of connection points: 2
#     Edge 27, Type (0, 0), BuildingBlock: AJUNOK_clean_linker_0, # of connection points: 2
#     Edge 28, Type (0, 0), BuildingBlock: AJUNOK_clean_linker_0, # of connection points: 2
#     Edge 29, Type (0, 0), BuildingBlock: AJUNOK_clean_linker_0, # of connection points: 2
# Relax obj value: 0.212
# Max RMSD: 0.210
# Mean RMSD: 0.189
data_MOF--net-ecf--node1-TAGTUT_clean_sbu_1--edge1-AJUNOK_clean_linker_0
_symmetry_space_group_name_H-M    P1
_symmetry_Int_Tables_number       1
_symmetry_cell_setting            triclinic
loop_
_symmetry_equiv_pos_as_xyz
'x, y, z'
_cell_length_a     26.368053
_cell_length_b     27.029745
_cell_length_c     21.017291
_cell_angle_alpha  98.59413
_cell_angle_beta   90.360075
_cell_angle_gamma 120.32043
loop_
_atom_site_label
_atom_site_type_symbol
_atom_site_fract_x
_atom_site_fract_y
_atom_site_fract_z
_atom_type_partial_charge
C0 C 0.97038 0.14821 0.17602 0.0
C1 C 0.07046 0.30448 0.10192 0.0
C2 C 0.25947 0.28645 0.1401 0.0
Mg3 Mg 0.05299 0.27679 0.23591 0.0
O4 O 0.10403 0.24753 0.23392 0.0
Mg5 Mg 0.11343 0.21574 0.14548 0.0
Mg6 Mg 0.18536 0.31074 0.26093 0.0
O7 O 0.26574 0.37584 0.28642 0.0
Mg8 Mg 0.33319 0.37021 0.27352 0.0
Mg9 Mg 0.25615 0.41067 0.3732 0.0
C10 C 0.11018 0.32702 0.38092 0.0
C11 C 0.18017 0.42843 0.26883 0.0
O12 O 0.01337 0.1466 0.14876 0.0
O13 O 0.97605 0.19446 0.2097 0.0
O14 O 0.08608 0.26669 0.09091 0.0
O15 O 0.06152 0.3212 0.15811 0.0
O16 O 0.07045 0.31623 0.33673 0.0
O17 O 0.15835 0.32719 0.36704 0.0
C18 C 0.1772 0.19038 0.25631 0.0
O19 O 0.2029 0.24272 0.28699 0.0
O20 O 0.1429 0.17224 0.20426 0.0
O21 O 0.34851 0.49151 0.36327 0.0
O22 O 0.39068 0.462 0.28509 0.0
O23 O 0.30135 0.3712 0.42433 0.0
C24 C 0.38913 0.50208 0.32462 0.0
O25 O 0.34869 0.34044 0.35642 0.0
O26 O 0.30783 0.31443 0.17762 0.0
C27 C 0.33326 0.34819 0.41272 0.0
O28 O 0.21306 0.2886 0.15713 0.0
O29 O 0.16449 0.37857 0.23526 0.0
O30 O 0.21358 0.44838 0.32142 0.0
C31 C 0.86696 0.37465 0.68108 0.0
C32 C 0.96665 0.28974 0.59802 0.0
C33 C 0.75079 0.09393 0.64969 0.0
Mg34 Mg 0.94461 0.3318 0.73467 0.0
O35 O 0.86964 0.26474 0.72717 0.0
Mg36 Mg 0.82223 0.23237 0.64186 0.0
Mg37 Mg 0.85315 0.19156 0.75453 0.0
O38 O 0.83654 0.11823 0.78309 0.0
Mg39 Mg 0.75772 0.0683 0.79106 0.0
Mg40 Mg 0.88982 0.14676 0.8642 0.0
C41 C 0.95383 0.29023 0.86703 0.0
C42 C 0.96634 0.1778 0.73875 0.0
O43 O 0.83651 0.32528 0.64316 0.0
O44 O 0.90996 0.38618 0.72107 0.0
O45 O 0.91007 0.25565 0.5859 0.0
O46 O -0.01064 0.32218 0.6531 0.0
O47 O 0.97448 0.32893 0.83046 0.0
O48 O 0.9067 0.24009 0.85111 0.0
C49 C 0.73184 0.19552 0.75721 0.0
O50 O 0.76687 0.18548 0.78838 0.0
O51 O 0.7432 0.21187 0.70208 0.0
O52 O 0.86232 0.04832 0.85776 0.0
O53 O 0.77045 -0.00063 0.80587 0.0
O54 O 0.8164 0.12531 0.9355 0.0
C55 C 0.81471 0.00057 0.83309 0.0
O56 O 0.7305 0.09163 0.87914 0.0
O57 O 0.72534 0.06753 0.69627 0.0
C58 C 0.76044 0.10343 0.93259 0.0
O59 O 0.8023 0.14028 0.65775 0.0
O60 O 0.93529 0.19625 0.71611 0.0
O61 O 0.95797 0.15922 0.79245 0.0
C62 C 0.46908 0.86441 0.18649 0.0
C63 C 0.64846 0.95994 0.12862 0.0
C64 C 0.64513 0.76121 0.16644 0.0
Mg65 Mg 0.59481 0.94272 0.2581 0.0
O66 O 0.58747 0.8694 0.25038 0.0
Mg67 Mg 0.56745 0.82114 0.16208 0.0
Mg68 Mg 0.65184 0.85801 0.2806 0.0
O69 O 0.71441 0.84418 0.31104 0.0
Mg70 Mg 0.68846 0.76587 0.30903 0.0
Mg71 Mg 0.74163 0.89471 0.39738 0.0
C72 C 0.65982 0.95704 0.39492 0.0
C73 C 0.77799 0.97157 0.28114 0.0
O74 O 0.48663 0.83193 0.15583 0.0
O75 O 0.50285 0.90919 0.22947 0.0
O76 O 0.62262 0.90415 0.1143 0.0
O77 O 0.64695 -0.01478 0.18421 0.0
O78 O 0.63606 0.97474 0.3573 0.0
O79 O 0.66241 0.91059 0.37848 0.0
C80 C 0.53089 0.73502 0.26877 0.0
O81 O 0.57807 0.77278 0.30483 0.0
O82 O 0.51801 0.74351 0.21395 0.0
O83 O 0.81488 0.87019 0.39955 0.0
O84 O 0.77244 0.7809 0.33751 0.0
O85 O 0.69283 0.81838 0.45585 0.0
C86 C 0.81578 0.82421 0.37404 0.0
O87 O 0.64134 0.73316 0.38909 0.0
O88 O 0.65628 0.7365 0.20769 0.0
C89 C 0.66087 0.76264 0.44602 0.0
O90 O 0.64598 0.8092 0.18224 0.0
O91 O 0.72559 0.94032 0.25328 0.0
O92 O 0.79327 0.96359 0.33494 0.0
C93 C -0.01585 0.77174 0.68899 0.0
C94 C 0.87136 0.60655 0.59961 0.0
C95 C 0.69504 0.65624 0.65122 0.0
Mg96 Mg 0.90435 0.66305 0.741 0.0
O97 O 0.85935 0.69928 0.74019 0.0
Mg98 Mg 0.83854 0.70955 0.65363 0.0
Mg99 Mg 0.78021 0.6499 0.76306 0.0
O100 O 0.70088 0.59623 0.78371 0.0
Mg101 Mg 0.63607 0.6066 0.77541 0.0
Mg102 Mg 0.72052 0.57895 0.86606 0.0
C103 C 0.86589 0.64945 0.88136 0.0
C104 C 0.77008 0.52313 0.75544 0.0
O105 O 0.93929 0.76784 0.65881 0.0
O106 O 0.98088 0.73696 0.72574 0.0
O107 O 0.85031 0.63928 0.59487 0.0
O108 O 0.8899 0.60339 0.65416 0.0
O109 O 0.89963 0.64731 0.8388 0.0
O110 O 0.82016 0.65311 0.86661 0.0
C111 C 0.80337 0.77981 0.76484 0.0
O112 O 0.77968 0.73676 0.79576 0.0
O113 O 0.82829 0.77777 0.71349 0.0
O114 O 0.62215 0.50472 0.85224 0.0
O115 O 0.57078 0.51896 0.77788 0.0
O116 O 0.69667 0.64154 0.92087 0.0
C117 C 0.57514 0.48795 0.81544 0.0
O118 O 0.64203 0.6629 0.86171 0.0
O119 O 0.6526 0.64171 0.68742 0.0
C120 C 0.66939 0.66866 0.91493 0.0
O121 O 0.73919 0.64933 0.66325 0.0
O122 O 0.7854 0.56689 0.72729 0.0
O123 O 0.7449 0.51894 0.80756 0.0
C124 C 0.17317 -0.0153 0.2117 0.0
C125 C 0.20496 0.86933 0.08775 0.0
C126 C 0.00193 0.69358 0.12543 0.0
Mg127 Mg 0.21157 0.90016 0.23337 0.0
O128 O 0.12969 0.86013 0.23956 0.0
Mg129 Mg 0.07998 0.84255 0.15835 0.0
Mg130 Mg 0.10768 0.78225 0.25088 0.0
O131 O 0.09158 0.70535 0.25932 0.0
Mg132 Mg 0.02065 0.63489 0.23725 0.0
Mg133 Mg 0.14398 0.72427 0.33844 0.0
C134 C 0.21224 0.86935 0.37017 0.0
C135 C 0.22868 0.78202 0.22899 0.0
O136 O 0.12313 0.94262 0.18319 0.0
O137 O 0.21454 0.97813 0.23236 0.0
O138 O 0.1512 0.85671 0.08697 0.0
O139 O 0.23563 0.88036 0.14049 0.0
O140 O 0.24309 0.89513 0.3259 0.0
O141 O 0.16117 0.82153 0.35591 0.0
C142 C 0.00323 0.80465 0.28217 0.0
O143 O 0.028 0.77691 0.29627 0.0
O144 O 0.0149 0.83067 0.23335 0.0
O145 O 0.13087 0.63284 0.30632 0.0
O146 O 0.05512 0.57841 0.2287 0.0
O147 O 0.05957 0.68336 0.39477 0.0
C148 C 0.09932 0.58678 0.26397 0.0
O149 O 0.97918 0.62671 0.32409 0.0
O150 O -0.01408 0.64872 0.15195 0.0
C151 C 0.00357 0.64808 0.38186 0.0
O152 O 0.04726 0.7437 0.15075 0.0
O153 O 0.19061 0.79242 0.20663 0.0
O154 O 0.22172 0.75887 0.27917 0.0
C155 C 0.16025 0.16675 0.65096 0.0
C156 C 0.33993 0.24155 0.62033 0.0
C157 C 0.30662 0.02525 0.62295 0.0
Mg158 Mg 0.2741 0.21148 0.7393 0.0
O159 O 0.24625 0.13092 0.71831 0.0
Mg160 Mg 0.2398 0.10098 0.62333 0.0
Mg161 Mg 0.30504 0.11364 0.74994 0.0
O162 O 0.36658 0.10009 0.78135 0.0
Mg163 Mg 0.36771 0.03072 0.75855 0.0
Mg164 Mg 0.38354 0.13808 0.87457 0.0
C165 C 0.29022 0.18966 0.88274 0.0
C166 C 0.41968 0.24253 0.79727 0.0
O167 O 0.16733 0.12678 0.61803 0.0
O168 O 0.19634 0.20362 0.69863 0.0
O169 O 0.30622 0.18772 0.59737 0.0
O170 O 0.34032 0.26207 0.67918 0.0
O171 O 0.28526 0.22011 0.84422 0.0
O172 O 0.29654 0.14535 0.86127 0.0
C173 C 0.18542 -0.00595 0.69748 0.0
O174 O 0.2281 0.02016 0.7429 0.0
O175 O 0.18021 0.01856 0.65261 0.0
O176 O 0.47331 0.13787 0.8678 0.0
O177 O 0.46087 0.07191 0.78022 0.0
O178 O 0.33583 0.04807 0.90571 0.0
C179 C 0.49364 0.11347 0.82654 0.0
O180 O 0.31981 0.97524 0.8266 0.0
O181 O 0.32765 0.00459 0.65959 0.0
C182 C 0.31542 -0.00605 0.88441 0.0
O183 O 0.30992 0.07511 0.64219 0.0
O184 O 0.37936 0.20874 0.75144 0.0
O185 O 0.42867 0.22402 0.84564 0.0
C186 C 0.19595 0.52172 0.24719 0.0
C187 C 0.15626 0.46329 0.25115 0.0
C188 C 0.17654 0.56124 0.24883 0.0
C189 C 0.11684 0.54319 0.25392 0.0
H190 H 0.24277 0.53761 0.24662 0.0
H191 H 0.20868 0.60656 0.24831 0.0
S192 S -0.00433 0.39549 0.2666 0.0
N193 N 0.05508 0.38982 0.26218 0.0
N194 N 0.01793 0.46365 0.261 0.0
C195 C 0.0762 0.48446 0.25455 0.0
C196 C 0.09616 0.44446 0.25433 0.0
C197 C 0.5964 0.13379 0.85283 0.0
C198 C 0.55748 0.14406 0.81928 0.0
C199 C 0.65428 0.1542 0.83538 0.0
C200 C 0.67457 0.18378 0.78259 0.0
H201 H 0.58142 0.10806 0.89091 0.0
H202 H 0.68244 0.14486 0.86208 0.0
S203 S 0.59087 0.22875 0.6863 0.0
N204 N 0.54447 0.19149 0.73669 0.0
N205 N 0.65212 0.22872 0.70299 0.0
C206 C 0.63675 0.19757 0.75189 0.0
C207 C 0.57845 0.17766 0.77029 0.0
C208 C 0.43502 0.57212 0.25033 0.0
C209 C 0.42761 0.56236 0.31436 0.0
C210 C 0.4671 0.62829 0.23658 0.0
C211 C 0.49411 0.67709 0.28634 0.0
H212 H 0.4147 0.53599 0.2101 0.0
H213 H 0.47164 0.63332 0.18637 0.0
S214 S 0.48908 0.67522 0.4624 0.0
N215 N 0.44949 0.60584 0.42826 0.0
N216 N 0.51203 0.71233 0.40248 0.0
C217 C 0.48774 0.66818 0.35083 0.0
C218 C 0.45376 0.61059 0.36484 0.0
C219 C 0.83096 0.43981 0.652 0.0
C220 C 0.83922 0.40989 0.69633 0.0
C221 C 0.80583 0.4745 0.67015 0.0
C222 C 0.7884 0.48014 0.73292 0.0
H223 H 0.84492 0.43729 0.60386 0.0
H224 H 0.80023 0.49713 0.63496 0.0
S225 S 0.79135 0.40061 0.86173 0.0
N226 N 0.82118 0.38124 0.80167 0.0
N227 N 0.77476 0.44598 0.83617 0.0
C228 C 0.793 0.44676 0.77572 0.0
C229 C 0.81846 0.41196 0.75734 0.0
C230 C 0.32651 0.86232 0.21101 0.0
C231 C 0.28512 0.8024 0.20129 0.0
C232 C 0.38572 0.88265 0.20082 0.0
C233 C 0.40525 0.84358 0.18058 0.0
H234 H 0.31414 0.89354 0.23125 0.0
H235 H 0.41697 0.92904 0.21263 0.0
S236 S 0.31153 0.68208 0.14303 0.0
N237 N 0.26562 0.70438 0.16639 0.0
N238 N 0.37663 0.7418 0.14598 0.0
C239 C 0.36294 0.78349 0.1661 0.0
C240 C 0.3029 0.76305 0.17719 0.0
C241 C 0.47207 0.33027 0.74449 0.0
C242 C 0.45277 0.30582 0.80023 0.0
C243 C 0.50891 0.39061 0.74936 0.0
C244 C 0.52768 0.42753 0.81007 0.0
H245 H 0.461 0.30261 0.69755 0.0
H246 H 0.52554 0.40809 0.70591 0.0
S247 S 0.4818 0.38595 0.96881 0.0
N248 N 0.44859 0.32399 0.91686 0.0
N249 N 0.51995 0.43692 0.92551 0.0
C250 C 0.50612 0.40403 0.86543 0.0
C251 C 0.46801 0.34314 0.86059 0.0
C252 C 0.13786 0.09647 0.28526 0.0
C253 C 0.18844 0.14825 0.27669 0.0
C254 C 0.13305 0.04323 0.26262 0.0
C255 C 0.1797 0.04101 0.23365 0.0
H256 H 0.09899 0.09681 0.3013 0.0
H257 H 0.09204 0.00367 0.26593 0.0
S258 S 0.32632 0.16554 0.21501 0.0
N259 N 0.28902 0.19545 0.24733 0.0
N260 N 0.28159 0.09443 0.20805 0.0
C261 C 0.23344 0.09271 0.23311 0.0
C262 C 0.23778 0.14695 0.25498 0.0
C263 C 0.05579 0.2199 0.6789 0.0
C264 C 0.00876 0.17145 0.69899 0.0
C265 C 0.1029 0.21619 0.65316 0.0
C266 C 0.10325 0.16366 0.64566 0.0
H267 H 0.05861 0.26179 0.6882 0.0
H268 H 0.1417 0.2558 0.64492 0.0
S269 S -0.01693 0.0217 0.67732 0.0
N270 N 0.95998 0.06763 0.69994 0.0
N271 N 0.04794 0.06031 0.65011 0.0
C272 C 0.05268 0.11338 0.65765 0.0
C273 C 0.00554 0.11745 0.68518 0.0
C274 C 0.86367 0.09505 0.19052 0.0
C275 C 0.91627 0.09406 0.18295 0.0
C276 C 0.81792 0.0541 0.22087 0.0
C277 C 0.824 0.01179 0.24541 0.0
H278 H 0.85959 0.1301 0.1769 0.0
H279 H 0.77917 0.05753 0.22857 0.0
S280 S 0.94783 -0.01577 0.22813 0.0
N281 N 0.96808 0.04234 0.19488 0.0
N282 N 0.88213 0.96569 0.25261 0.0
C283 C 0.87405 0.00737 0.23366 0.0
C284 C 0.92012 0.04831 0.20179 0.0
C285 C 0.81392 0.91445 0.86713 0.0
C286 C 0.8148 0.94584 0.819 0.0
C287 C 0.80741 0.85883 0.85012 0.0
C288 C 0.80182 0.83384 0.78472 0.0
H289 H 0.81746 0.93254 0.91766 0.0
H290 H 0.80818 0.83606 0.88803 0.0
S291 S 0.79919 0.89899 0.64153 0.0
N292 N 0.80851 0.94818 0.70443 0.0
N293 N 0.79509 0.84454 0.67218 0.0
C294 C 0.80154 0.86507 0.73673 0.0
C295 C 0.80852 0.92095 0.75398 0.0
C296 C 0.86619 0.76764 0.36375 0.0
C297 C 0.87052 0.82251 0.3771 0.0
C298 C 0.9121 0.76201 0.338 0.0
C299 C 0.96324 0.81118 0.3255 0.0
H300 H 0.82491 0.72825 0.36693 0.0
H301 H 0.90535 0.71886 0.32244 0.0
S302 S 0.00454 0.96536 0.37379 0.0
N303 N 0.93578 0.92758 0.39182 0.0
N304 N 0.0225 0.91685 0.3435 0.0
C305 C 0.97177 0.86667 0.34809 0.0
C306 C 0.92522 0.87247 0.37456 0.0
C307 C 0.12524 0.90906 0.74955 0.0
C308 C 0.14076 0.93312 0.69332 0.0
C309 C 0.07555 0.85417 0.74694 0.0
C310 C 0.04109 0.82255 0.6881 0.0
H311 H 0.14906 0.93407 0.79608 0.0
H312 H 0.06169 0.83813 0.79171 0.0
S313 S 0.06952 0.8616 0.52575 0.0
N314 N 0.12254 0.91791 0.57555 0.0
N315 N 0.02904 0.81426 0.57189 0.0
C316 C 0.0587 0.84384 0.63095 0.0
C317 C 0.10892 0.89948 0.63325 0.0
C318 C 0.30839 0.24254 0.06616 0.0
C319 C 0.26056 0.2523 0.07624 0.0
C320 C 0.31602 0.21802 1.00503 0.0
C321 C 0.27612 0.20189 0.95072 0.0
H322 H 0.34181 0.25586 0.10553 0.0
H323 H 0.3551 0.21475 0.99962 0.0
S324 S 0.14069 0.21249 0.95029 0.0
N325 N 0.1708 0.23941 0.02567 0.0
N326 N 0.18444 0.19344 0.91213 0.0
C327 C 0.22655 0.20845 0.96075 0.0
C328 C 0.21883 0.23334 0.02285 0.0
C329 C 0.05947 0.35089 0.54576 0.0
C330 C 0.00791 0.29619 0.54649 0.0
C331 C 0.09681 0.36026 0.49522 0.0
C332 C 0.08541 0.31482 0.44434 0.0
H333 H 0.06944 0.38782 0.58285 0.0
H334 H 0.13275 0.404 0.49411 0.0
S335 S 0.96069 0.16192 0.42654 0.0
N336 N 0.95052 0.19521 0.49348 0.0
N337 N 0.02112 0.21198 0.40035 0.0
C338 C 0.03622 0.25916 0.4468 0.0
C339 C -0.00254 0.25001 0.49718 0.0
C340 C 0.71805 0.05675 0.09599 0.0
C341 C 0.67717 -0.00364 0.07837 0.0
C342 C 0.74433 0.09215 0.04912 0.0
C343 C 0.72869 0.06898 0.98289 0.0
H344 H 0.73039 0.07689 0.14643 0.0
H345 H 0.77696 0.13779 0.06475 0.0
S346 S 0.6245 0.91387 0.91068 0.0
N347 N 0.62348 0.91532 0.98938 0.0
N348 N 0.67075 0.98157 0.90193 0.0
C349 C 0.68741 0.00888 0.96467 0.0
C350 C 0.66214 0.97271 0.01213 0.0
C351 C 0.67446 0.7275 0.61177 0.0
C352 C 0.69241 0.6861 0.59857 0.0
C353 C 0.6625 0.75098 0.56237 0.0
C354 C 0.66583 0.73244 0.49735 0.0
H355 H 0.66948 0.74187 0.66107 0.0
H356 H 0.65026 0.78357 0.57515 0.0
S357 S 0.71114 0.62533 0.43683 0.0
N358 N 0.7138 0.62837 0.51594 0.0
N359 N 0.69006 0.67102 0.42252 0.0
C360 C 0.68373 0.69096 0.48346 0.0
C361 C 0.6974 0.66824 0.53411 0.0
C362 C 0.91296 0.71043 0.99188 0.0
C363 C 0.88838 0.65628 0.94942 0.0
C364 C 0.95082 0.72373 0.04819 0.0
C365 C 0.96551 0.68329 0.06408 0.0
H366 H 0.90531 0.74385 0.97978 0.0
H367 H 0.96863 0.76575 0.07924 0.0
S368 S 0.91423 0.5363 0.96738 0.0
N369 N 0.88271 0.56313 0.92698 0.0
N370 N 0.95237 0.58689 0.03111 0.0
C371 C 0.94043 0.62891 0.022 0.0
C372 C 0.90241 0.61576 0.96533 0.0
C373 C 0.27951 0.00685 0.50195 0.0
C374 C 0.27412 -0.01449 0.55992 0.0
C375 C 0.25828 0.96865 0.4417 0.0
C376 C 0.22964 0.90712 0.43629 0.0
H377 H 0.3028 0.05339 0.50275 0.0
H378 H 0.26521 -0.01208 0.39856 0.0
S379 S 0.1972 0.82845 0.57423 0.0
N380 N 0.23346 0.89792 0.60827 0.0
N381 N 0.19243 0.82725 0.49555 0.0
C382 C 0.22073 0.88518 0.49409 0.0
C383 C 0.24337 0.92397 0.55546 0.0
C384 C 0.70991 0.72177 0.02528 0.0
C385 C 0.66656 0.7033 0.97386 0.0
C386 C 0.70232 0.74149 0.0871 0.0
C387 C 0.65169 0.74438 0.09953 0.0
H388 H 0.74875 0.71823 0.0185 0.0
H389 H 0.73586 0.75335 0.1259 0.0
S390 S 0.53031 0.71144 0.98037 0.0
N391 N 0.57447 0.69582 0.93773 0.0
N392 N 0.56136 0.73513 0.05559 0.0
C393 C 0.61054 0.73149 0.04812 0.0
C394 C 0.61782 0.71048 0.98457 0.0
C395 C -0.00854 0.63015 0.4955 0.0
C396 C 0.96603 0.62754 0.43519 0.0
C397 C 0.95732 0.61322 0.54747 0.0
C398 C 0.89675 0.59439 0.54143 0.0
H399 H 0.03844 0.64709 0.50333 0.0
H400 H 0.97995 0.62074 0.59425 0.0
S401 S 0.807 0.57017 0.39129 0.0
N402 N 0.87484 0.59664 0.37008 0.0
N403 N 0.81126 0.56643 0.46867 0.0
C404 C 0.86983 0.58646 0.48001 0.0
C405 C 0.90438 0.60308 0.4268 0.0
C406 C 0.32021 0.96998 0.99232 0.0
C407 C 0.29027 0.95351 0.93053 0.0
C408 C 0.29447 0.93789 0.04115 0.0
C409 C 0.23685 0.88905 0.03061 0.0
H410 H 0.36311 0.00938 1.00378 0.0
H411 H 0.3182 0.95459 0.08891 0.0
S412 S 0.14404 0.8225 0.87411 0.0
N413 N 0.20398 0.88061 0.85824 0.0
N414 N 0.15376 0.82144 0.95153 0.0
C415 C 0.20821 0.86955 0.96763 0.0
C416 C 0.23538 0.90153 0.91715 0.0
C417 C 0.36004 0.33168 0.58294 0.0
C418 C 0.36325 0.2808 0.57266 0.0
C419 C 0.35376 0.3553 0.53065 0.0
C420 C 0.35172 0.32956 0.46656 0.0
H421 H 0.35567 0.34966 0.63082 0.0
H422 H 0.34696 0.39193 0.54046 0.0
S423 S 0.37381 0.20488 0.41544 0.0
N424 N 0.37562 0.21225 0.49499 0.0
N425 N 0.36441 0.25706 0.39657 0.0
C426 C 0.363 0.28357 0.45627 0.0
C427 C 0.36903 0.25931 0.50953 0.0
C428 C 0.07479 0.32044 0.98882 0.0
C429 C 0.04747 0.31635 0.04653 0.0
C430 C 0.04506 0.31484 0.93054 0.0
C431 C -0.01312 0.30333 0.92869 0.0
H432 H 0.11801 0.32493 0.9883 0.0
H433 H 0.06626 0.31608 0.8863 0.0
S434 S 0.89758 0.29302 0.06644 0.0
N435 N 0.9608 0.30485 0.09882 0.0
N436 N 0.90436 0.29218 0.9883 0.0
C437 C 0.96019 0.30204 0.9861 0.0
C438 C -0.00914 0.30936 0.04558 0.0
C439 C 0.73243 0.08632 0.53107 0.0
C440 C 0.72722 0.05946 0.58471 0.0
C441 C 0.71071 0.05274 0.46913 0.0
C442 C 0.68465 -0.00824 0.45934 0.0
H443 H 0.75265 0.13318 0.53712 0.0
H444 H 0.71462 0.07461 0.42864 0.0
S445 S 0.66333 0.90107 0.58366 0.0
N446 N 0.69624 0.96844 0.62375 0.0
N447 N 0.65539 0.90608 0.50745 0.0
C448 C 0.68038 0.96468 0.51233 0.0
C449 C 0.7017 -0.00159 0.57512 0.0
loop_
_geom_bond_atom_site_label_1
_geom_bond_atom_site_label_2
_geom_bond_distance
_geom_bond_site_symmetry_2
_ccdc_geom_bond_type
C0 O12 1.241 . S
C0 O13 1.280 . S
C1 O14 1.277 . S
C1 O15 1.245 1_455 S
C2 O26 1.247 . S
C2 O28 1.289 . S
Mg3 O4 1.926 1_655 S
Mg3 O13 1.984 . S
Mg3 O15 1.988 . S
Mg3 O16 2.061 1_655 S
O4 Mg3 1.926 1_455 S
O4 Mg5 1.986 . S
O4 Mg6 1.917 . S
Mg5 O4 1.986 . S
Mg5 O12 2.042 1_455 S
Mg5 O14 2.041 . S
Mg5 O20 2.038 . S
Mg5 O28 2.238 . S
Mg6 O4 1.917 . S
Mg6 O7 1.917 . S
Mg6 O17 2.106 . S
Mg6 O19 2.079 . S
Mg6 O28 2.106 . S
Mg6 O29 2.079 . S
O7 Mg6 1.917 . S
O7 Mg8 1.926 . S
O7 Mg9 1.986 . S
Mg8 O7 1.926 . S
Mg8 O22 1.984 . S
Mg8 O25 1.988 . S
Mg8 O26 2.061 . S
Mg9 O7 1.986 . S
Mg9 O17 2.238 . S
Mg9 O21 2.042 . S
Mg9 O23 2.041 . S
Mg9 O30 2.038 . S
C10 O16 1.247 . S
C10 O17 1.289 . S
C11 O29 1.245 . S
C11 O30 1.274 . S
O12 C0 1.241 . S
O12 Mg5 2.042 1_655 S
O13 C0 1.280 . S
O13 Mg3 1.984 . S
O14 C1 1.277 . S
O14 Mg5 2.041 . S
O15 C1 1.245 1_655 S
O15 Mg3 1.988 . S
O16 Mg3 2.061 1_455 S
O16 C10 1.247 . S
O17 Mg6 2.106 . S
O17 Mg9 2.238 . S
O17 C10 1.289 . S
C18 O19 1.245 . S
C18 O20 1.274 . S
O19 Mg6 2.079 . S
O19 C18 1.245 . S
O20 Mg5 2.038 . S
O20 C18 1.274 . S
O21 Mg9 2.042 . S
O21 C24 1.241 . S
O22 Mg8 1.984 . S
O22 C24 1.280 . S
O23 Mg9 2.041 . S
O23 C27 1.277 . S
C24 O21 1.241 . S
C24 O22 1.280 . S
O25 Mg8 1.988 . S
O25 C27 1.245 . S
O26 C2 1.247 . S
O26 Mg8 2.061 . S
C27 O23 1.277 . S
C27 O25 1.245 . S
O28 C2 1.289 . S
O28 Mg5 2.238 . S
O28 Mg6 2.106 . S
O29 Mg6 2.079 . S
O29 C11 1.245 . S
O30 Mg9 2.038 . S
O30 C11 1.274 . S
C31 O43 1.241 . S
C31 O44 1.280 . S
C32 O45 1.277 . S
C32 O46 1.245 . S
C33 O57 1.247 . S
C33 O59 1.289 . S
Mg34 O35 1.926 . S
Mg34 O44 1.984 . S
Mg34 O46 1.988 . S
Mg34 O47 2.061 . S
O35 Mg34 1.926 . S
O35 Mg36 1.986 . S
O35 Mg37 1.917 . S
Mg36 O35 1.986 . S
Mg36 O43 2.042 . S
Mg36 O45 2.041 . S
Mg36 O51 2.038 . S
Mg36 O59 2.238 . S
Mg37 O35 1.917 . S
Mg37 O38 1.917 . S
Mg37 O48 2.106 . S
Mg37 O50 2.079 . S
Mg37 O59 2.106 . S
Mg37 O60 2.079 . S
O38 Mg37 1.917 . S
O38 Mg39 1.926 1_545 S
O38 Mg40 1.986 . S
Mg39 O38 1.926 1_565 S
Mg39 O53 1.984 . S
Mg39 O56 1.988 1_565 S
Mg39 O57 2.061 1_565 S
Mg40 O38 1.986 . S
Mg40 O48 2.238 . S
Mg40 O52 2.064 . S
Mg40 O54 2.041 . S
Mg40 O61 2.038 . S
C41 O47 1.247 . S
C41 O48 1.289 . S
C42 O60 1.245 . S
C42 O61 1.274 . S
O43 C31 1.241 . S
O43 Mg36 2.042 . S
O44 C31 1.280 . S
O44 Mg34 1.984 . S
O45 C32 1.277 . S
O45 Mg36 2.041 . S
O46 C32 1.245 . S
O46 Mg34 1.988 . S
O47 Mg34 2.061 . S
O47 C41 1.247 . S
O48 Mg37 2.106 . S
O48 Mg40 2.238 . S
O48 C41 1.289 . S
C49 O50 1.245 . S
C49 O51 1.274 . S
O50 Mg37 2.079 . S
O50 C49 1.245 . S
O51 Mg36 2.038 . S
O51 C49 1.274 . S
O52 Mg40 2.064 . S
O52 C55 1.231 1_545 S
O53 Mg39 1.984 . S
O53 C55 1.280 . S
O54 Mg40 2.041 . S
O54 C58 1.277 . S
C55 O52 1.231 1_565 S
C55 O53 1.280 . S
O56 Mg39 1.988 1_545 S
O56 C58 1.245 . S
O57 C33 1.247 . S
O57 Mg39 2.061 1_545 S
C58 O54 1.277 . S
C58 O56 1.245 . S
O59 C33 1.289 . S
O59 Mg36 2.238 . S
O59 Mg37 2.106 . S
O60 Mg37 2.079 . S
O60 C42 1.245 . S
O61 Mg40 2.038 . S
O61 C42 1.274 . S
C62 O74 1.241 . S
C62 O75 1.280 . S
C63 O76 1.277 . S
C63 O77 1.245 . S
C64 O88 1.247 . S
C64 O90 1.289 . S
Mg65 O66 1.926 . S
Mg65 O75 1.984 . S
Mg65 O77 1.988 . S
Mg65 O78 2.061 . S
O66 Mg65 1.926 . S
O66 Mg67 1.986 . S
O66 Mg68 1.917 . S
Mg67 O66 1.986 . S
Mg67 O74 2.042 . S
Mg67 O76 2.041 . S
Mg67 O82 2.038 . S
Mg67 O90 2.238 . S
Mg68 O66 1.917 . S
Mg68 O69 1.917 . S
Mg68 O79 2.106 . S
Mg68 O81 2.079 . S
Mg68 O90 2.106 . S
Mg68 O91 2.079 . S
O69 Mg68 1.917 . S
O69 Mg70 1.926 . S
O69 Mg71 1.986 . S
Mg70 O69 1.926 . S
Mg70 O84 1.984 . S
Mg70 O87 1.988 . S
Mg70 O88 2.061 . S
Mg71 O69 1.986 . S
Mg71 O79 2.238 . S
Mg71 O83 2.042 . S
Mg71 O85 2.041 . S
Mg71 O92 2.038 . S
C72 O78 1.247 . S
C72 O79 1.289 . S
C73 O91 1.245 . S
C73 O92 1.274 . S
O74 C62 1.241 . S
O74 Mg67 2.042 . S
O75 C62 1.280 . S
O75 Mg65 1.984 . S
O76 C63 1.277 . S
O76 Mg67 2.041 . S
O77 C63 1.245 . S
O77 Mg65 1.988 . S
O78 Mg65 2.061 . S
O78 C72 1.247 . S
O79 Mg68 2.106 . S
O79 Mg71 2.238 . S
O79 C72 1.289 . S
C80 O81 1.245 . S
C80 O82 1.274 . S
O81 Mg68 2.079 . S
O81 C80 1.245 . S
O82 Mg67 2.038 . S
O82 C80 1.274 . S
O83 Mg71 2.042 . S
O83 C86 1.241 . S
O84 Mg70 1.984 . S
O84 C86 1.280 . S
O85 Mg71 2.041 . S
O85 C89 1.277 . S
C86 O83 1.241 . S
C86 O84 1.280 . S
O87 Mg70 1.988 . S
O87 C89 1.245 . S
O88 C64 1.247 . S
O88 Mg70 2.061 . S
C89 O85 1.277 . S
C89 O87 1.245 . S
O90 C64 1.289 . S
O90 Mg67 2.238 . S
O90 Mg68 2.106 . S
O91 Mg68 2.079 . S
O91 C73 1.245 . S
O92 Mg71 2.038 . S
O92 C73 1.274 . S
C93 O105 1.241 1_455 S
C93 O106 1.280 . S
C94 O107 1.277 . S
C94 O108 1.245 . S
C95 O119 1.247 . S
C95 O121 1.289 . S
Mg96 O97 1.926 1_455 S
Mg96 O106 1.984 . S
Mg96 O108 1.988 1_455 S
Mg96 O109 2.061 1_455 S
O97 Mg96 1.926 1_655 S
O97 Mg98 1.986 . S
O97 Mg99 1.917 . S
Mg98 O97 1.986 . S
Mg98 O105 2.042 . S
Mg98 O107 2.041 . S
Mg98 O113 2.038 . S
Mg98 O121 2.238 . S
Mg99 O97 1.917 . S
Mg99 O100 1.917 . S
Mg99 O110 2.106 . S
Mg99 O112 2.079 . S
Mg99 O121 2.106 . S
Mg99 O122 2.079 . S
O100 Mg99 1.917 . S
O100 Mg101 1.926 . S
O100 Mg102 1.986 . S
Mg101 O100 1.926 . S
Mg101 O115 1.984 . S
Mg101 O118 1.988 . S
Mg101 O119 2.061 . S
Mg102 O100 1.986 . S
Mg102 O110 2.238 . S
Mg102 O114 2.042 . S
Mg102 O116 2.041 . S
Mg102 O123 2.038 . S
C103 O109 1.247 . S
C103 O110 1.289 . S
C104 O122 1.245 . S
C104 O123 1.274 . S
O105 C93 1.241 1_655 S
O105 Mg98 2.042 . S
O106 C93 1.280 . S
O106 Mg96 1.984 . S
O107 C94 1.277 . S
O107 Mg98 2.041 . S
O108 C94 1.245 . S
O108 Mg96 1.988 1_655 S
O109 Mg96 2.061 1_655 S
O109 C103 1.247 . S
O110 Mg99 2.106 . S
O110 Mg102 2.238 . S
O110 C103 1.289 . S
C111 O112 1.245 . S
C111 O113 1.274 . S
O112 Mg99 2.079 . S
O112 C111 1.245 . S
O113 Mg98 2.038 . S
O113 C111 1.274 . S
O114 Mg102 2.042 . S
O114 C117 1.241 . S
O115 Mg101 1.984 . S
O115 C117 1.280 . S
O116 Mg102 2.041 . S
O116 C120 1.277 . S
C117 O114 1.241 . S
C117 O115 1.280 . S
O118 Mg101 1.988 . S
O118 C120 1.245 . S
O119 C95 1.247 . S
O119 Mg101 2.061 . S
C120 O116 1.277 . S
C120 O118 1.245 . S
O121 C95 1.289 . S
O121 Mg98 2.238 . S
O121 Mg99 2.106 . S
O122 Mg99 2.079 . S
O122 C104 1.245 . S
O123 Mg102 2.038 . S
O123 C104 1.274 . S
C124 O136 1.241 1_545 S
C124 O137 1.280 . S
C125 O138 1.277 . S
C125 O139 1.245 . S
C126 O150 1.247 . S
C126 O152 1.289 . S
Mg127 O128 1.926 1_545 S
Mg127 O137 1.984 . S
Mg127 O139 1.988 1_545 S
Mg127 O140 2.061 1_545 S
O128 Mg127 1.926 1_565 S
O128 Mg129 1.986 . S
O128 Mg130 1.917 . S
Mg129 O128 1.986 . S
Mg129 O136 2.042 . S
Mg129 O138 2.041 . S
Mg129 O144 2.038 . S
Mg129 O152 2.238 . S
Mg130 O128 1.917 . S
Mg130 O131 1.917 . S
Mg130 O141 2.106 . S
Mg130 O143 2.079 . S
Mg130 O152 2.106 . S
Mg130 O153 2.079 . S
O131 Mg130 1.917 . S
O131 Mg132 1.926 . S
O131 Mg133 1.986 . S
Mg132 O131 1.926 . S
Mg132 O146 1.984 . S
Mg132 O149 1.988 . S
Mg132 O150 2.061 . S
Mg133 O131 1.986 . S
Mg133 O141 2.238 . S
Mg133 O145 2.042 . S
Mg133 O147 2.041 . S
Mg133 O154 2.038 . S
C134 O140 1.247 . S
C134 O141 1.289 . S
C135 O153 1.245 . S
C135 O154 1.274 . S
O136 C124 1.241 1_565 S
O136 Mg129 2.042 . S
O137 C124 1.280 . S
O137 Mg127 1.984 . S
O138 C125 1.277 . S
O138 Mg129 2.041 . S
O139 C125 1.245 . S
O139 Mg127 1.988 1_565 S
O140 Mg127 2.061 1_565 S
O140 C134 1.247 . S
O141 Mg130 2.106 . S
O141 Mg133 2.238 . S
O141 C134 1.289 . S
C142 O143 1.245 . S
C142 O144 1.274 . S
O143 Mg130 2.079 . S
O143 C142 1.245 . S
O144 Mg129 2.038 . S
O144 C142 1.274 . S
O145 Mg133 2.042 . S
O145 C148 1.241 . S
O146 Mg132 1.984 . S
O146 C148 1.280 . S
O147 Mg133 2.041 . S
O147 C151 1.277 . S
C148 O145 1.241 . S
C148 O146 1.280 . S
O149 Mg132 1.988 . S
O149 C151 1.245 . S
O150 C126 1.247 . S
O150 Mg132 2.061 . S
C151 O147 1.277 . S
C151 O149 1.245 . S
O152 C126 1.289 . S
O152 Mg129 2.238 . S
O152 Mg130 2.106 . S
O153 Mg130 2.079 . S
O153 C135 1.245 . S
O154 Mg133 2.038 . S
O154 C135 1.274 . S
C155 O167 1.241 . S
C155 O168 1.280 . S
C156 O169 1.277 . S
C156 O170 1.245 . S
C157 O181 1.247 . S
C157 O183 1.289 . S
Mg158 O159 1.926 . S
Mg158 O168 1.984 . S
Mg158 O170 1.988 . S
Mg158 O171 2.061 . S
O159 Mg158 1.926 . S
O159 Mg160 1.986 . S
O159 Mg161 1.917 . S
Mg160 O159 1.986 . S
Mg160 O167 2.042 . S
Mg160 O169 2.041 . S
Mg160 O175 2.038 . S
Mg160 O183 2.238 . S
Mg161 O159 1.917 . S
Mg161 O162 1.917 . S
Mg161 O172 2.106 . S
Mg161 O174 2.079 . S
Mg161 O183 2.106 . S
Mg161 O184 2.079 . S
O162 Mg161 1.917 . S
O162 Mg163 1.926 . S
O162 Mg164 1.986 . S
Mg163 O162 1.926 . S
Mg163 O177 1.984 . S
Mg163 O180 1.988 . S
Mg163 O181 2.061 . S
Mg164 O162 1.986 . S
Mg164 O172 2.238 . S
Mg164 O176 2.042 . S
Mg164 O178 2.041 . S
Mg164 O185 2.038 . S
C165 O171 1.247 . S
C165 O172 1.289 . S
C166 O184 1.245 . S
C166 O185 1.274 . S
O167 C155 1.241 . S
O167 Mg160 2.042 . S
O168 C155 1.280 . S
O168 Mg158 1.984 . S
O169 C156 1.277 . S
O169 Mg160 2.041 . S
O170 C156 1.245 . S
O170 Mg158 1.988 . S
O171 Mg158 2.061 . S
O171 C165 1.247 . S
O172 Mg161 2.106 . S
O172 Mg164 2.238 . S
O172 C165 1.289 . S
C173 O174 1.245 . S
C173 O175 1.274 . S
O174 Mg161 2.079 . S
O174 C173 1.245 . S
O175 Mg160 2.038 . S
O175 C173 1.274 . S
O176 Mg164 2.042 . S
O176 C179 1.241 . S
O177 Mg163 1.984 . S
O177 C179 1.280 . S
O178 Mg164 2.041 . S
O178 C182 1.277 . S
C179 O176 1.241 . S
C179 O177 1.280 . S
O180 Mg163 1.988 . S
O180 C182 1.245 . S
O181 C157 1.247 . S
O181 Mg163 2.061 . S
C182 O178 1.277 . S
C182 O180 1.245 . S
O183 C157 1.289 . S
O183 Mg160 2.238 . S
O183 Mg161 2.106 . S
O184 Mg161 2.079 . S
O184 C166 1.245 . S
O185 Mg164 2.038 . S
O185 C166 1.274 . S
C186 C187 1.369 . S
C186 C188 1.419 . S
C186 H190 0.930 . S
C187 C186 1.369 . S
C187 C196 1.429 . S
C188 C186 1.419 . S
C188 C189 1.363 . S
C188 H191 0.929 . S
C189 C188 1.363 . S
C189 C195 1.428 . S
H190 C186 0.930 . S
H191 C188 0.929 . S
S192 N193 1.613 . S
S192 N194 1.610 . S
N193 S192 1.613 . S
N193 C196 1.350 . S
N194 S192 1.610 . S
N194 C195 1.351 . S
C195 C189 1.428 . S
C195 N194 1.351 . S
C195 C196 1.434 . S
C196 C187 1.429 . S
C196 N193 1.350 . S
C196 C195 1.434 . S
C197 C198 1.369 . S
C197 C199 1.419 . S
C197 H201 0.930 . S
C198 C197 1.369 . S
C198 C207 1.429 . S
C199 C197 1.419 . S
C199 C200 1.363 . S
C199 H202 0.929 . S
C200 C199 1.363 . S
C200 C206 1.428 . S
H201 C197 0.930 . S
H202 C199 0.929 . S
S203 N204 1.613 . S
S203 N205 1.610 . S
N204 S203 1.613 . S
N204 C207 1.350 . S
N205 S203 1.610 . S
N205 C206 1.351 . S
C206 C200 1.428 . S
C206 N205 1.351 . S
C206 C207 1.434 . S
C207 C198 1.429 . S
C207 N204 1.350 . S
C207 C206 1.434 . S
C208 C209 1.369 . S
C208 C210 1.419 . S
C208 H212 0.930 . S
C209 C208 1.369 . S
C209 C218 1.429 . S
C210 C208 1.419 . S
C210 C211 1.363 . S
C210 H213 0.929 . S
C211 C210 1.363 . S
C211 C217 1.428 . S
H212 C208 0.930 . S
H213 C210 0.929 . S
S214 N215 1.613 . S
S214 N216 1.610 . S
N215 S214 1.613 . S
N215 C218 1.350 . S
N216 S214 1.610 . S
N216 C217 1.351 . S
C217 C211 1.428 . S
C217 N216 1.351 . S
C217 C218 1.434 . S
C218 C209 1.429 . S
C218 N215 1.350 . S
C218 C217 1.434 . S
C219 C220 1.369 . S
C219 C221 1.419 . S
C219 H223 0.930 . S
C220 C219 1.369 . S
C220 C229 1.429 . S
C221 C219 1.419 . S
C221 C222 1.363 . S
C221 H224 0.929 . S
C222 C221 1.363 . S
C222 C228 1.428 . S
H223 C219 0.930 . S
H224 C221 0.929 . S
S225 N226 1.613 . S
S225 N227 1.610 . S
N226 S225 1.613 . S
N226 C229 1.350 . S
N227 S225 1.610 . S
N227 C228 1.351 . S
C228 C222 1.428 . S
C228 N227 1.351 . S
C228 C229 1.434 . S
C229 C220 1.429 . S
C229 N226 1.350 . S
C229 C228 1.434 . S
C230 C231 1.369 . S
C230 C232 1.419 . S
C230 H234 0.930 . S
C231 C230 1.369 . S
C231 C240 1.429 . S
C232 C230 1.419 . S
C232 C233 1.363 . S
C232 H235 0.929 . S
C233 C232 1.363 . S
C233 C239 1.428 . S
H234 C230 0.930 . S
H235 C232 0.929 . S
S236 N237 1.613 . S
S236 N238 1.610 . S
N237 S236 1.613 . S
N237 C240 1.350 . S
N238 S236 1.610 . S
N238 C239 1.351 . S
C239 C233 1.428 . S
C239 N238 1.351 . S
C239 C240 1.434 . S
C240 C231 1.429 . S
C240 N237 1.350 . S
C240 C239 1.434 . S
C241 C242 1.369 . S
C241 C243 1.419 . S
C241 H245 0.930 . S
C242 C241 1.369 . S
C242 C251 1.429 . S
C243 C241 1.419 . S
C243 C244 1.363 . S
C243 H246 0.929 . S
C244 C243 1.363 . S
C244 C250 1.428 . S
H245 C241 0.930 . S
H246 C243 0.929 . S
S247 N248 1.613 . S
S247 N249 1.610 . S
N248 S247 1.613 . S
N248 C251 1.350 . S
N249 S247 1.610 . S
N249 C250 1.351 . S
C250 C244 1.428 . S
C250 N249 1.351 . S
C250 C251 1.434 . S
C251 C242 1.429 . S
C251 N248 1.350 . S
C251 C250 1.434 . S
C252 C253 1.369 . S
C252 C254 1.419 . S
C252 H256 0.930 . S
C253 C252 1.369 . S
C253 C262 1.429 . S
C254 C252 1.419 . S
C254 C255 1.363 . S
C254 H257 0.929 . S
C255 C254 1.363 . S
C255 C261 1.428 . S
H256 C252 0.930 . S
H257 C254 0.929 . S
S258 N259 1.613 . S
S258 N260 1.610 . S
N259 S258 1.613 . S
N259 C262 1.350 . S
N260 S258 1.610 . S
N260 C261 1.351 . S
C261 C255 1.428 . S
C261 N260 1.351 . S
C261 C262 1.434 . S
C262 C253 1.429 . S
C262 N259 1.350 . S
C262 C261 1.434 . S
C263 C264 1.369 1_455 S
C263 C265 1.419 . S
C263 H267 0.930 . S
C264 C263 1.369 1_655 S
C264 C273 1.429 . S
C265 C263 1.419 . S
C265 C266 1.363 . S
C265 H268 0.929 . S
C266 C265 1.363 . S
C266 C272 1.428 . S
H267 C263 0.930 . S
H268 C265 0.929 . S
S269 N270 1.613 1_455 S
S269 N271 1.610 . S
N270 S269 1.613 1_655 S
N270 C273 1.350 . S
N271 S269 1.610 . S
N271 C272 1.351 . S
C272 C266 1.428 . S
C272 N271 1.351 . S
C272 C273 1.434 1_455 S
C273 C264 1.429 . S
C273 N270 1.350 . S
C273 C272 1.434 1_655 S
C274 C275 1.369 . S
C274 C276 1.419 . S
C274 H278 0.930 . S
C275 C274 1.369 . S
C275 C284 1.429 . S
C276 C274 1.419 . S
C276 C277 1.363 1_545 S
C276 H279 0.929 1_545 S
C277 C276 1.363 1_565 S
C277 C283 1.428 1_565 S
H278 C274 0.930 . S
H279 C276 0.929 1_565 S
S280 N281 1.613 . S
S280 N282 1.610 1_545 S
N281 S280 1.613 . S
N281 C284 1.350 . S
N282 S280 1.610 1_565 S
N282 C283 1.351 1_565 S
C283 C277 1.428 1_545 S
C283 N282 1.351 1_545 S
C283 C284 1.434 . S
C284 C275 1.429 . S
C284 N281 1.350 . S
C284 C283 1.434 . S
C285 C286 1.369 . S
C285 C287 1.419 . S
C285 H289 0.930 . S
C286 C285 1.369 . S
C286 C295 1.429 . S
C287 C285 1.419 . S
C287 C288 1.363 . S
C287 H290 0.929 . S
C288 C287 1.363 . S
C288 C294 1.428 . S
H289 C285 0.930 . S
H290 C287 0.929 . S
S291 N292 1.613 . S
S291 N293 1.610 . S
N292 S291 1.613 . S
N292 C295 1.350 . S
N293 S291 1.610 . S
N293 C294 1.351 . S
C294 C288 1.428 . S
C294 N293 1.351 . S
C294 C295 1.434 . S
C295 C286 1.429 . S
C295 N292 1.350 . S
C295 C294 1.434 . S
C296 C297 1.369 . S
C296 C298 1.419 . S
C296 H300 0.930 . S
C297 C296 1.369 . S
C297 C306 1.429 . S
C298 C296 1.419 . S
C298 C299 1.363 1_655 S
C298 H301 0.929 . S
C299 C298 1.363 1_455 S
C299 C305 1.428 . S
H300 C296 0.930 . S
H301 C298 0.929 . S
S302 N303 1.613 1_455 S
S302 N304 1.610 . S
N303 S302 1.613 1_655 S
N303 C306 1.350 . S
N304 S302 1.610 . S
N304 C305 1.351 . S
C305 C299 1.428 . S
C305 N304 1.351 . S
C305 C306 1.434 1_455 S
C306 C297 1.429 . S
C306 N303 1.350 . S
C306 C305 1.434 1_655 S
C307 C308 1.369 1_565 S
C307 C309 1.419 . S
C307 H311 0.930 1_565 S
C308 C307 1.369 1_545 S
C308 C317 1.429 1_545 S
C309 C307 1.419 . S
C309 C310 1.363 . S
C309 H312 0.929 . S
C310 C309 1.363 . S
C310 C316 1.428 . S
H311 C307 0.930 1_545 S
H312 C309 0.929 . S
S313 N314 1.613 1_565 S
S313 N315 1.610 . S
N314 S313 1.613 1_545 S
N314 C317 1.350 1_545 S
N315 S313 1.610 . S
N315 C316 1.351 . S
C316 C310 1.428 . S
C316 N315 1.351 . S
C316 C317 1.434 . S
C317 C308 1.429 1_565 S
C317 N314 1.350 1_565 S
C317 C316 1.434 . S
C318 C319 1.369 . S
C318 C320 1.419 . S
C318 H322 0.930 . S
C319 C318 1.369 . S
C319 C328 1.429 1_554 S
C320 C318 1.419 . S
C320 C321 1.363 1_554 S
C320 H323 0.929 . S
C321 C320 1.363 1_556 S
C321 C327 1.428 . S
H322 C318 0.930 . S
H323 C320 0.929 . S
S324 N325 1.613 . S
S324 N326 1.610 . S
N325 S324 1.613 . S
N325 C328 1.350 . S
N326 S324 1.610 . S
N326 C327 1.351 . S
C327 C321 1.428 . S
C327 N326 1.351 . S
C327 C328 1.434 . S
C328 C319 1.429 1_556 S
C328 N325 1.350 . S
C328 C327 1.434 . S
C329 C330 1.369 1_455 S
C329 C331 1.419 . S
C329 H333 0.930 . S
C330 C329 1.369 1_655 S
C330 C339 1.429 . S
C331 C329 1.419 . S
C331 C332 1.363 . S
C331 H334 0.929 . S
C332 C331 1.363 . S
C332 C338 1.428 1_455 S
H333 C329 0.930 . S
H334 C331 0.929 . S
S335 N336 1.613 . S
S335 N337 1.610 . S
N336 S335 1.613 . S
N336 C339 1.350 . S
N337 S335 1.610 . S
N337 C338 1.351 . S
C338 C332 1.428 1_655 S
C338 N337 1.351 . S
C338 C339 1.434 . S
C339 C330 1.429 . S
C339 N336 1.350 . S
C339 C338 1.434 . S
C340 C341 1.369 1_545 S
C340 C342 1.419 1_554 S
C340 H344 0.930 . S
C341 C340 1.369 1_565 S
C341 C350 1.429 1_554 S
C342 C340 1.419 1_556 S
C342 C343 1.363 . S
C342 H345 0.929 1_556 S
C343 C342 1.363 . S
C343 C349 1.428 1_545 S
H344 C340 0.930 . S
H345 C342 0.929 1_554 S
S346 N347 1.613 . S
S346 N348 1.610 . S
N347 S346 1.613 . S
N347 C350 1.350 . S
N348 S346 1.610 . S
N348 C349 1.351 . S
C349 C343 1.428 1_565 S
C349 N348 1.351 . S
C349 C350 1.434 . S
C350 C341 1.429 1_556 S
C350 N347 1.350 . S
C350 C349 1.434 . S
C351 C352 1.369 . S
C351 C353 1.419 . S
C351 H355 0.930 . S
C352 C351 1.369 . S
C352 C361 1.429 . S
C353 C351 1.419 . S
C353 C354 1.363 . S
C353 H356 0.929 . S
C354 C353 1.363 . S
C354 C360 1.428 . S
H355 C351 0.930 . S
H356 C353 0.929 . S
S357 N358 1.613 . S
S357 N359 1.610 . S
N358 S357 1.613 . S
N358 C361 1.350 . S
N359 S357 1.610 . S
N359 C360 1.351 . S
C360 C354 1.428 . S
C360 N359 1.351 . S
C360 C361 1.434 . S
C361 C352 1.429 . S
C361 N358 1.350 . S
C361 C360 1.434 . S
C362 C363 1.369 1_455 S
C362 C364 1.419 1_556 S
C362 H366 0.930 . S
C363 C362 1.369 1_655 S
C363 C372 1.429 . S
C364 C362 1.419 1_554 S
C364 C365 1.363 . S
C364 H367 0.929 . S
C365 C364 1.363 . S
C365 C371 1.428 . S
H366 C362 0.930 . S
H367 C364 0.929 . S
S368 N369 1.613 1_554 S
S368 N370 1.610 1_655 S
N369 S368 1.613 1_556 S
N369 C372 1.350 . S
N370 S368 1.610 1_455 S
N370 C371 1.351 . S
C371 C365 1.428 . S
C371 N370 1.351 . S
C371 C372 1.434 1_454 S
C372 C363 1.429 . S
C372 N369 1.350 . S
C372 C371 1.434 1_656 S
C373 C374 1.369 . S
C373 C375 1.419 . S
C373 H377 0.930 . S
C374 C373 1.369 . S
C374 C383 1.429 . S
C375 C373 1.419 . S
C375 C376 1.363 1_545 S
C375 H378 0.929 . S
C376 C375 1.363 1_565 S
C376 C382 1.428 . S
H377 C373 0.930 . S
H378 C375 0.929 . S
S379 N380 1.613 . S
S379 N381 1.610 . S
N380 S379 1.613 . S
N380 C383 1.350 1_565 S
N381 S379 1.610 . S
N381 C382 1.351 . S
C382 C376 1.428 . S
C382 N381 1.351 . S
C382 C383 1.434 1_565 S
C383 C374 1.429 . S
C383 N380 1.350 1_545 S
C383 C382 1.434 1_545 S
C384 C385 1.369 1_554 S
C384 C386 1.419 . S
C384 H388 0.930 . S
C385 C384 1.369 1_556 S
C385 C394 1.429 . S
C386 C384 1.419 . S
C386 C387 1.363 . S
C386 H389 0.929 . S
C387 C386 1.363 . S
C387 C393 1.428 . S
H388 C384 0.930 . S
H389 C386 0.929 . S
S390 N391 1.613 . S
S390 N392 1.610 . S
N391 S390 1.613 . S
N391 C394 1.350 . S
N392 S390 1.610 . S
N392 C393 1.351 1_556 S
C393 C387 1.428 . S
C393 N392 1.351 1_554 S
C393 C394 1.434 1_554 S
C394 C385 1.429 . S
C394 N391 1.350 . S
C394 C393 1.434 1_556 S
C395 C396 1.369 . S
C395 C397 1.419 . S
C395 H399 0.930 . S
C396 C395 1.369 . S
C396 C405 1.429 . S
C397 C395 1.419 . S
C397 C398 1.363 1_455 S
C397 H400 0.929 . S
C398 C397 1.363 1_655 S
C398 C404 1.428 . S
H399 C395 0.930 . S
H400 C397 0.929 . S
S401 N402 1.609 1_655 S
S401 N403 1.610 . S
N402 S401 1.609 1_455 S
N402 C405 1.353 . S
N403 S401 1.610 . S
N403 C404 1.351 . S
C404 C398 1.428 . S
C404 N403 1.351 . S
C404 C405 1.434 1_655 S
C405 C396 1.429 . S
C405 N402 1.353 . S
C405 C404 1.434 1_455 S
C406 C407 1.369 1_554 S
C406 C408 1.419 . S
C406 H410 0.930 . S
C407 C406 1.369 1_556 S
C407 C416 1.429 1_545 S
C408 C406 1.419 . S
C408 C409 1.363 1_545 S
C408 H411 0.929 . S
C409 C408 1.363 1_565 S
C409 C415 1.428 1_554 S
H410 C406 0.930 . S
H411 C408 0.929 . S
S412 N413 1.613 . S
S412 N414 1.610 . S
N413 S412 1.613 . S
N413 C416 1.350 . S
N414 S412 1.610 . S
N414 C415 1.351 . S
C415 C409 1.428 1_556 S
C415 N414 1.351 . S
C415 C416 1.434 . S
C416 C407 1.429 1_565 S
C416 N413 1.350 . S
C416 C415 1.434 . S
C417 C418 1.369 . S
C417 C419 1.419 . S
C417 H421 0.930 . S
C418 C417 1.369 . S
C418 C427 1.429 . S
C419 C417 1.419 . S
C419 C420 1.363 . S
C419 H422 0.929 . S
C420 C419 1.363 . S
C420 C426 1.428 . S
H421 C417 0.930 . S
H422 C419 0.929 . S
S423 N424 1.613 . S
S423 N425 1.610 . S
N424 S423 1.613 . S
N424 C427 1.350 . S
N425 S423 1.610 . S
N425 C426 1.351 . S
C426 C420 1.428 . S
C426 N425 1.351 . S
C426 C427 1.434 . S
C427 C418 1.429 . S
C427 N424 1.350 . S
C427 C426 1.434 . S
C428 C429 1.369 1_556 S
C428 C430 1.419 . S
C428 H432 0.930 1_655 S
C429 C428 1.369 1_554 S
C429 C438 1.429 . S
C430 C428 1.419 . S
C430 C431 1.363 . S
C430 H433 0.929 . S
C431 C430 1.363 . S
C431 C437 1.428 . S
H432 C428 0.930 1_455 S
H433 C430 0.929 . S
S434 N435 1.613 . S
S434 N436 1.610 1_554 S
N435 S434 1.613 . S
N435 C438 1.350 . S
N436 S434 1.610 1_556 S
N436 C437 1.351 . S
C437 C431 1.428 . S
C437 N436 1.351 . S
C437 C438 1.434 1_556 S
C438 C429 1.429 . S
C438 N435 1.350 . S
C438 C437 1.434 1_554 S
C439 C440 1.369 . S
C439 C441 1.419 1_545 S
C439 H443 0.930 . S
C440 C439 1.369 . S
C440 C449 1.429 1_545 S
C441 C439 1.419 1_565 S
C441 C442 1.363 . S
C441 H444 0.929 . S
C442 C441 1.363 . S
C442 C448 1.428 . S
H443 C439 0.930 . S
H444 C441 0.929 . S
S445 N446 1.613 . S
S445 N447 1.610 . S
N446 S445 1.613 . S
N446 C449 1.350 . S
N447 S445 1.610 . S
N447 C448 1.351 . S
C448 C442 1.428 . S
C448 N447 1.351 . S
C448 C449 1.434 . S
C449 C440 1.429 1_565 S
C449 N446 1.350 . S
C449 C448 1.434 . S
C187 C11 1.342 . S
C189 C148 1.426 . S
C198 C179 1.416 . S
C200 C49 1.416 . S
C209 C24 1.434 . S
C211 C80 1.431 . S
C220 C31 1.392 . S
C222 C104 1.358 . S
C231 C135 1.366 . S
C233 C62 1.387 . S
C242 C166 1.324 . S
C244 C117 1.389 . S
C253 C18 1.089 . S
C255 C124 1.168 . S
C264 C42 1.080 . S
C266 C155 1.129 . S
C275 C0 1.251 . S
C277 C73 1.240 . S
C286 C55 1.152 . S
C288 C111 1.074 . S
C297 C86 1.144 . S
C299 C142 1.117 . S
C308 C173 1.075 . S
C310 C93 1.152 . S
C319 C2 1.888 . S
C321 C165 1.940 . S
C330 C32 1.896 . S
C332 C10 1.823 . S
C341 C63 1.710 . S
C343 C58 1.625 . S
C352 C95 1.718 . S
C354 C89 1.737 . S
C363 C103 1.866 . S
C365 C126 1.792 . S
C374 C157 1.713 . S
C376 C134 1.776 . S
C385 C120 1.453 . S
C387 C64 1.411 . S
C396 C151 1.429 . S
C398 C94 1.326 . S
C407 C182 1.494 . S
C409 C125 1.417 . S
C418 C156 1.348 . S
C420 C27 1.393 . S
C429 C1 1.323 1_655 S
C431 C41 1.320 . S
C440 C33 1.560 . S
C442 C72 1.511 . S
