# Generated by pormake.
# Topology umf, (4)-cn, num edge types: 1
# Building blocks:
#     Node 0, Type 0, BuildingBlock: NAWXER_clean_sbu_0, # of connection points: 4
#     Node 1, Type 0, BuildingBlock: NAWXER_clean_sbu_0, # of connection points: 4
#     Node 2, Type 0, BuildingBlock: NAWXER_clean_sbu_0, # of connection points: 4
#     Node 3, Type 0, BuildingBlock: NAWXER_clean_sbu_0, # of connection points: 4
#     Node 4, Type 0, BuildingBlock: NAWXER_clean_sbu_0, # of connection points: 4
#     Node 5, Type 0, BuildingBlock: NAWXER_clean_sbu_0, # of connection points: 4
#     Node 6, Type 0, BuildingBlock: NAWXER_clean_sbu_0, # of connection points: 4
#     Node 7, Type 0, BuildingBlock: NAWXER_clean_sbu_0, # of connection points: 4
#     Edge 8, Type (0, 0), BuildingBlock: OJICUG_clean_linker_0, # of connection points: 2
#     Edge 9, Type (0, 0), BuildingBlock: OJICUG_clean_linker_0, # of connection points: 2
#     Edge 10, Type (0, 0), BuildingBlock: OJICUG_clean_linker_0, # of connection points: 2
#     Edge 11, Type (0, 0), BuildingBlock: OJICUG_clean_linker_0, # of connection points: 2
#     Edge 12, Type (0, 0), BuildingBlock: OJICUG_clean_linker_0, # of connection points: 2
#     Edge 13, Type (0, 0), BuildingBlock: OJICUG_clean_linker_0, # of connection points: 2
#     Edge 14, Type (0, 0), BuildingBlock: OJICUG_clean_linker_0, # of connection points: 2
#     Edge 15, Type (0, 0), BuildingBlock: OJICUG_clean_linker_0, # of connection points: 2
#     Edge 16, Type (0, 0), BuildingBlock: OJICUG_clean_linker_0, # of connection points: 2
#     Edge 17, Type (0, 0), BuildingBlock: OJICUG_clean_linker_0, # of connection points: 2
#     Edge 18, Type (0, 0), BuildingBlock: OJICUG_clean_linker_0, # of connection points: 2
#     Edge 19, Type (0, 0), BuildingBlock: OJICUG_clean_linker_0, # of connection points: 2
#     Edge 20, Type (0, 0), BuildingBlock: OJICUG_clean_linker_0, # of connection points: 2
#     Edge 21, Type (0, 0), BuildingBlock: OJICUG_clean_linker_0, # of connection points: 2
#     Edge 22, Type (0, 0), BuildingBlock: OJICUG_clean_linker_0, # of connection points: 2
#     Edge 23, Type (0, 0), BuildingBlock: OJICUG_clean_linker_0, # of connection points: 2
# Relax obj value: 0.064
# Max RMSD: 0.167
# Mean RMSD: 0.166
data_MOF--net-umf--node1-NAWXER_clean_sbu_0--edge1-OJICUG_clean_linker_0
_symmetry_space_group_name_H-M    P1
_symmetry_Int_Tables_number       1
_symmetry_cell_setting            triclinic
loop_
_symmetry_equiv_pos_as_xyz
'x, y, z'
_cell_length_a     21.254227
_cell_length_b     21.255034
_cell_length_c     38.17332
_cell_angle_alpha  89.983498
_cell_angle_beta   90.007576
_cell_angle_gamma 90.01419
loop_
_atom_site_label
_atom_site_type_symbol
_atom_site_fract_x
_atom_site_fract_y
_atom_site_fract_z
_atom_type_partial_charge
C0 C 0.13914 0.23547 0.21911 0.0
C1 C 0.03718 0.24451 0.10434 0.0
O2 O 0.0789 0.23725 0.22098 0.0
Zn3 Zn -9e-05 0.24069 0.18565 0.0
O4 O 0.16612 0.2367 0.18937 0.0
Zn5 Zn 0.09016 0.24128 0.1617 0.0
O6 O 0.05346 0.33246 0.17498 0.0
O7 O 0.9592 0.31857 0.19807 0.0
O8 O 0.09579 0.2439 0.11097 0.0
O9 O -0.00217 0.24351 0.12974 0.0
O10 O 0.95795 0.16169 0.19538 0.0
O11 O 0.05181 0.14961 0.17159 0.0
C12 C 0.00315 0.35531 0.18849 0.0
C13 C 0.00157 0.12569 0.18452 0.0
C14 C 0.74679 0.1404 0.71862 0.0
C15 C 0.73741 0.03778 0.60404 0.0
O16 O 0.7449 0.08017 0.72059 0.0
Zn17 Zn 0.74132 0.001 0.68543 0.0
O18 O 0.74561 0.16725 0.68883 0.0
Zn19 Zn 0.74085 0.09112 0.6613 0.0
O20 O 0.64961 0.05461 0.67471 0.0
O21 O 0.66341 0.96047 0.69798 0.0
O22 O 0.73817 0.09643 0.61056 0.0
O23 O 0.73839 -0.00141 0.62953 0.0
O24 O 0.82025 0.95904 0.69523 0.0
O25 O 0.83247 0.05276 0.67127 0.0
C26 C 0.62672 0.0044 0.68834 0.0
C27 C 0.85631 0.00258 0.6843 0.0
C28 C 0.97635 0.62532 0.18846 0.0
C29 C 0.97826 0.85495 0.18448 0.0
O30 O 0.92618 0.64825 0.17482 0.0
Zn31 Zn 0.88971 0.73948 0.16144 0.0
O32 O 0.02026 0.662 0.19816 0.0
Zn33 Zn 0.9798 0.73996 0.18563 0.0
O34 O 0.90057 0.74353 0.22074 0.0
O35 O 0.81354 0.74424 0.18896 0.0
O36 O 0.02176 0.81891 0.19546 0.0
O37 O 0.92811 0.83108 0.17142 0.0
O38 O 0.88455 0.73694 0.11067 0.0
O39 O 0.98233 0.73723 0.12974 0.0
C40 C 0.84035 0.74543 0.21876 0.0
C41 C 0.94323 0.73631 0.10422 0.0
C42 C 0.35669 0.97763 0.68861 0.0
C43 C 0.12705 0.97929 0.6847 0.0
O44 O 0.33376 0.92737 0.67507 0.0
Zn45 Zn 0.24255 0.89071 0.66182 0.0
O46 O 0.32001 0.02156 0.69825 0.0
Zn47 Zn 0.24204 0.98092 0.68585 0.0
O48 O 0.23856 0.90187 0.72112 0.0
O49 O 0.23791 0.8147 0.68948 0.0
O50 O 0.16307 0.02286 0.69561 0.0
O51 O 0.15094 0.92909 0.67173 0.0
O52 O 0.24504 0.88525 0.61107 0.0
O53 O 0.24467 0.98314 0.62994 0.0
C54 C 0.23673 0.84163 0.71923 0.0
C55 C 0.24559 0.94389 0.6045 0.0
C56 C 0.00303 0.85552 0.88147 0.0
C57 C 0.00486 0.6259 0.87747 0.0
O58 O 0.05316 0.83165 0.89455 0.0
Zn59 Zn 0.0915 0.74004 0.90455 0.0
O60 O 0.95954 0.81948 0.87048 0.0
Zn61 Zn 0.00145 0.74052 0.88032 0.0
O62 O -0.00117 0.73767 0.93622 0.0
O63 O 0.09659 0.7374 0.95531 0.0
O64 O 0.96096 0.66258 0.86777 0.0
O65 O 0.05502 0.64882 0.89114 0.0
O66 O 0.16772 0.7448 0.87707 0.0
O67 O 0.08073 0.7441 0.84524 0.0
C68 C 0.03791 0.7367 0.96175 0.0
C69 C 0.14096 0.74599 0.84726 0.0
C70 C 0.12568 0.00238 0.38164 0.0
C71 C 0.35528 0.00433 0.37755 0.0
O72 O 0.14953 0.05259 0.39464 0.0
Zn73 Zn 0.24116 0.09102 0.40456 0.0
O74 O 0.16173 0.95885 0.37074 0.0
Zn75 Zn 0.24067 0.00088 0.38049 0.0
O76 O 0.24363 -0.00148 0.43639 0.0
O77 O 0.24387 0.09637 0.4553 0.0
O78 O 0.31857 0.96038 0.36794 0.0
O79 O 0.33239 0.05454 0.39115 0.0
O80 O 0.23634 0.16712 0.37699 0.0
O81 O 0.237 0.08001 0.34528 0.0
C82 C 0.24463 0.03773 0.46185 0.0
C83 C 0.23509 0.14024 0.34722 0.0
C84 C 0.97978 0.12625 0.88137 0.0
C85 C 0.97812 0.35587 0.87743 0.0
O86 O 0.92953 0.15012 0.89428 0.0
Zn87 Zn 0.89114 0.24174 0.90418 0.0
O88 O 0.0234 0.16229 0.87052 0.0
Zn89 Zn 0.98142 0.24124 0.88024 0.0
O90 O 0.98344 0.24393 0.93616 0.0
O91 O 0.88547 0.24425 0.9549 0.0
O92 O 0.0221 0.31919 0.86786 0.0
O93 O 0.92781 0.33296 0.89092 0.0
O94 O 0.81521 0.23711 0.87647 0.0
O95 O 0.90248 0.23777 0.8449 0.0
C96 C 0.94407 0.24485 0.96155 0.0
C97 C 0.84223 0.23593 0.84674 0.0
C98 C 0.85493 0.97908 0.38122 0.0
C99 C 0.62529 0.97752 0.37733 0.0
O100 O 0.83101 0.9289 0.39422 0.0
Zn101 Zn 0.73936 0.89057 0.40417 0.0
O102 O 0.81894 0.02265 0.37028 0.0
Zn103 Zn 0.73994 0.98075 0.38007 0.0
O104 O 0.73733 0.98303 0.43598 0.0
O105 O 0.73688 0.88516 0.45491 0.0
O106 O 0.66201 0.02143 0.36767 0.0
O107 O 0.64817 0.92726 0.39089 0.0
O108 O 0.74389 0.81453 0.37655 0.0
O109 O 0.7433 0.90166 0.34485 0.0
C110 C 0.73639 0.94381 0.46145 0.0
C111 C 0.74507 0.84142 0.34678 0.0
C112 C 0.04958 0.46322 0.19198 0.0
C113 C -0.00388 0.42424 0.1915 0.0
H114 H 0.08525 0.55754 0.19211 0.0
C115 C 0.93618 0.45193 0.19211 0.0
H116 H 0.09642 0.44311 0.19172 0.0
C117 C 0.92983 0.5174 0.19172 0.0
C118 C 0.9833 0.55638 0.19149 0.0
H119 H 0.89417 0.42307 0.19168 0.0
H120 H 0.88301 0.53751 0.19125 0.0
C121 C 0.04324 0.52868 0.19236 0.0
C122 C 0.46458 0.93117 0.69196 0.0
C123 C 0.42563 0.98464 0.69157 0.0
H124 H 0.55888 0.8955 0.69196 0.0
C125 C 0.45337 0.04457 0.69221 0.0
H126 H 0.44445 0.88434 0.69167 0.0
C127 C 0.51883 0.05091 0.69176 0.0
C128 C 0.55778 -0.00256 0.69143 0.0
H129 H 0.42452 0.08658 0.69185 0.0
H130 H 0.53897 0.09773 0.69131 0.0
C131 C 0.53005 0.93751 0.69228 0.0
C132 C 0.04506 0.45255 0.87379 0.0
C133 C 0.98513 0.42481 0.87442 0.0
H134 H 0.09821 0.53817 0.87465 0.0
C135 C 0.93165 0.46375 0.87395 0.0
H136 H 0.08708 0.42372 0.87422 0.0
C137 C 0.93798 0.52922 0.87357 0.0
C138 C -0.00209 0.55696 0.87444 0.0
H139 H 0.88483 0.44361 0.87422 0.0
H140 H 0.89596 0.55805 0.87383 0.0
C141 C 0.05139 0.51802 0.87419 0.0
C142 C 0.46319 0.05084 0.37414 0.0
C143 C 0.42421 -0.00263 0.37447 0.0
H144 H 0.55753 0.08649 0.37406 0.0
C145 C 0.45191 0.93744 0.37365 0.0
H146 H 0.44308 0.09766 0.37457 0.0
C147 C 0.51737 0.93109 0.37397 0.0
C148 C 0.55635 0.98455 0.37436 0.0
H149 H 0.42304 0.89543 0.37396 0.0
H150 H 0.53747 0.88426 0.37428 0.0
C151 C 0.52866 0.04449 0.3737 0.0
C152 C 0.92575 0.246 1.02658 0.0
C153 C 0.96763 0.24586 0.99813 0.0
H154 H 0.91479 0.24575 0.08226 0.0
C155 C 0.03277 0.24606 1.00492 0.0
H156 H 0.87537 0.24588 1.02232 0.0
C157 C 0.05549 0.24597 0.03931 0.0
C158 C 0.01362 0.24568 0.06776 0.0
H159 H 0.06646 0.24601 0.98363 0.0
H160 H 0.10587 0.24584 0.04357 0.0
C161 C 0.94847 0.24591 0.06097 0.0
C162 C 0.73576 0.05569 0.53898 0.0
C163 C 0.73607 0.01399 0.56751 0.0
H164 H 0.73553 0.06631 0.48328 0.0
C165 C 0.73568 0.94881 0.56087 0.0
H166 H 0.73601 0.1061 0.54313 0.0
C167 C 0.73541 0.92588 0.52652 0.0
C168 C 0.73552 0.96758 0.49799 0.0
H169 H 0.73585 0.91526 0.58223 0.0
H170 H 0.73541 0.87547 0.52237 0.0
C171 C 0.73549 0.03276 0.50464 0.0
C172 C 0.03239 0.73509 0.06116 0.0
C173 C 0.96717 0.73528 0.06771 0.0
H174 H 0.10593 0.73535 1.02277 0.0
C175 C 0.92562 0.73514 0.03912 0.0
H176 H 0.06584 0.73515 0.08257 0.0
C177 C 0.94872 0.73524 1.0048 0.0
C178 C 0.01394 0.73549 0.99825 0.0
H179 H 0.87519 0.73524 0.04319 0.0
H180 H 0.91527 0.7354 0.98339 0.0
C181 C 0.0555 0.7352 1.02685 0.0
C182 C 0.24631 0.0557 0.5269 0.0
C183 C 0.24597 0.01398 0.49839 0.0
H184 H 0.24655 0.06638 0.5826 0.0
C185 C 0.24633 0.9488 0.50508 0.0
H186 H 0.24609 0.10611 0.52272 0.0
C187 C 0.24658 0.9259 0.53944 0.0
C188 C 0.24649 0.96763 0.56795 0.0
H189 H 0.24614 0.91523 0.48374 0.0
H190 H 0.24655 0.8755 0.54362 0.0
C191 C 0.24657 0.0328 0.56126 0.0
C192 C 0.15369 0.24754 0.28355 0.0
C193 C 0.17514 0.22347 0.25141 0.0
H194 H 0.15804 0.24133 0.33955 0.0
C195 C 0.22429 0.17941 0.25126 0.0
H196 H 0.1157 0.2815 0.28426 0.0
C197 C 0.24729 0.15527 0.28284 0.0
C198 C 0.22282 0.17628 0.31497 0.0
H199 H 0.24122 0.15973 0.22684 0.0
H200 H 0.28178 0.11776 0.28212 0.0
C201 C 0.17806 0.22479 0.31513 0.0
C202 C 0.75726 0.17965 0.81456 0.0
C203 C 0.8063 0.22387 0.81443 0.0
H204 H 0.70001 0.11781 0.78369 0.0
C205 C 0.82776 0.24799 0.7823 0.0
H206 H 0.74034 0.15993 0.83898 0.0
C207 C 0.80353 0.22514 0.75071 0.0
C208 C 0.7589 0.17649 0.75086 0.0
H209 H 0.86566 0.28207 0.78159 0.0
H210 H 0.82355 0.24173 0.7263 0.0
C211 C 0.7344 0.15543 0.78298 0.0
C212 C 0.80111 0.75622 0.3147 0.0
C213 C 0.75702 0.80535 0.31451 0.0
H214 H 0.8628 0.69875 0.28388 0.0
C215 C 0.73292 0.82673 0.28236 0.0
H216 H 0.82081 0.73934 0.33913 0.0
C217 C 0.7557 0.80236 0.2508 0.0
C218 C 0.80424 0.75764 0.25098 0.0
H219 H 0.69894 0.8647 0.28161 0.0
H220 H 0.73914 0.82234 0.22636 0.0
C221 C 0.82526 0.7332 0.28313 0.0
C222 C 0.18042 0.75658 0.75134 0.0
C223 C 0.22464 0.80561 0.75152 0.0
H224 H 0.11851 0.69929 0.78216 0.0
C225 C 0.24871 0.82701 0.78367 0.0
H226 H 0.16074 0.73971 0.7269 0.0
C227 C 0.2258 0.80273 0.81524 0.0
C228 C 0.17714 0.75812 0.81505 0.0
H229 H 0.2828 0.86491 0.78441 0.0
H230 H 0.24235 0.82271 0.83967 0.0
C231 C 0.15614 0.73367 0.7829 0.0
C232 C 0.04936 0.01827 0.18669 0.0
C233 C -0.00468 0.05651 0.18643 0.0
H234 H 0.08642 0.92442 0.18694 0.0
C235 C 0.93582 0.02794 0.18696 0.0
H236 H 0.09591 0.03906 0.18654 0.0
C237 C 0.93048 0.96236 0.18656 0.0
C238 C 0.98452 0.92412 0.18642 0.0
H239 H 0.89342 0.0562 0.18675 0.0
H240 H 0.88393 0.94157 0.18632 0.0
C241 C 0.04402 0.95269 0.18707 0.0
C242 C 0.02932 0.04505 0.68702 0.0
C243 C 0.05787 0.98556 0.68655 0.0
H244 H 0.94298 0.09693 0.68624 0.0
C245 C 0.0196 0.93151 0.68674 0.0
H246 H 0.05761 0.08745 0.68684 0.0
C247 C 0.95403 0.93685 0.68702 0.0
C248 C 0.92548 -0.00366 0.68631 0.0
H249 H 0.04038 0.88497 0.68663 0.0
H250 H 0.92574 0.89445 0.68685 0.0
C251 C 0.96375 0.05039 0.68652 0.0
C252 C 0.93198 0.01882 0.87916 0.0
C253 C 0.98604 0.05708 0.87945 0.0
H254 H 0.89491 0.92497 0.8789 0.0
C255 C 0.04553 0.02852 0.87898 0.0
H256 H 0.88544 0.0396 0.87926 0.0
C257 C 0.05086 0.96295 0.8794 0.0
C258 C -0.0032 0.92469 0.87951 0.0
H259 H 0.08794 0.0568 0.87923 0.0
H260 H 0.0974 0.94217 0.87969 0.0
C261 C 0.93731 0.95325 0.87879 0.0
C262 C 0.96236 0.9313 0.37923 0.0
C263 C 0.92411 0.98534 0.37938 0.0
H264 H 0.05621 0.89424 0.37918 0.0
C265 C 0.95269 0.04483 0.37886 0.0
H266 H 0.94157 0.88475 0.37938 0.0
C267 C 0.01827 0.05018 0.37938 0.0
C268 C 0.05651 -0.00387 0.37964 0.0
H269 H 0.92442 0.08723 0.379 0.0
H270 H 0.03906 0.09672 0.37962 0.0
C271 C 0.02794 0.93664 0.37897 0.0
loop_
_geom_bond_atom_site_label_1
_geom_bond_atom_site_label_2
_geom_bond_distance
_geom_bond_site_symmetry_2
_ccdc_geom_bond_type
C0 O2 1.247 . S
C0 O4 1.258 . S
C1 O8 1.247 . S
C1 O9 1.258 1_455 S
O2 C0 1.247 . S
O2 Zn3 2.028 . S
Zn3 O2 2.028 . S
Zn3 O7 2.035 . S
Zn3 O9 2.035 1_455 S
Zn3 O10 2.028 . S
O4 C0 1.258 . S
O4 Zn5 2.035 . S
Zn5 O4 2.035 . S
Zn5 O6 2.028 . S
Zn5 O8 2.028 . S
Zn5 O11 2.035 . S
O6 Zn5 2.028 . S
O6 C12 1.247 . S
O7 Zn3 2.035 . S
O7 C12 1.258 . S
O8 C1 1.247 . S
O8 Zn5 2.028 . S
O9 C1 1.258 1_655 S
O9 Zn3 2.035 1_655 S
O10 Zn3 2.028 . S
O10 C13 1.247 . S
O11 Zn5 2.035 . S
O11 C13 1.258 . S
C12 O6 1.247 . S
C12 O7 1.258 . S
C13 O10 1.247 . S
C13 O11 1.258 . S
C14 O16 1.247 . S
C14 O18 1.258 . S
C15 O22 1.247 . S
C15 O23 1.258 1_545 S
O16 C14 1.247 . S
O16 Zn17 2.028 . S
Zn17 O16 2.028 . S
Zn17 O21 2.035 . S
Zn17 O23 2.035 1_545 S
Zn17 O24 2.028 . S
O18 C14 1.258 . S
O18 Zn19 2.035 . S
Zn19 O18 2.035 . S
Zn19 O20 2.028 . S
Zn19 O22 2.028 . S
Zn19 O25 2.035 . S
O20 Zn19 2.028 . S
O20 C26 1.247 . S
O21 Zn17 2.035 . S
O21 C26 1.258 . S
O22 C15 1.247 . S
O22 Zn19 2.028 . S
O23 C15 1.258 1_565 S
O23 Zn17 2.035 1_565 S
O24 Zn17 2.028 . S
O24 C27 1.247 . S
O25 Zn19 2.035 . S
O25 C27 1.258 . S
C26 O20 1.247 . S
C26 O21 1.258 . S
C27 O24 1.247 . S
C27 O25 1.258 . S
C28 O30 1.247 . S
C28 O32 1.258 . S
C29 O36 1.247 . S
C29 O37 1.258 . S
O30 C28 1.247 . S
O30 Zn31 2.028 . S
Zn31 O30 2.028 . S
Zn31 O35 2.035 . S
Zn31 O37 2.035 . S
Zn31 O38 2.028 . S
O32 C28 1.258 . S
O32 Zn33 2.035 . S
Zn33 O32 2.035 . S
Zn33 O34 2.028 . S
Zn33 O36 2.028 . S
Zn33 O39 2.035 1_655 S
O34 Zn33 2.028 . S
O34 C40 1.247 . S
O35 Zn31 2.035 . S
O35 C40 1.258 . S
O36 C29 1.247 . S
O36 Zn33 2.028 . S
O37 C29 1.258 . S
O37 Zn31 2.035 . S
O38 Zn31 2.028 . S
O38 C41 1.247 . S
O39 Zn33 2.035 1_455 S
O39 C41 1.258 1_455 S
C40 O34 1.247 . S
C40 O35 1.258 . S
C41 O38 1.247 . S
C41 O39 1.258 1_655 S
C42 O44 1.247 . S
C42 O46 1.258 . S
C43 O50 1.247 . S
C43 O51 1.258 . S
O44 C42 1.247 . S
O44 Zn45 2.028 . S
Zn45 O44 2.028 . S
Zn45 O49 2.035 . S
Zn45 O51 2.035 . S
Zn45 O52 2.028 . S
O46 C42 1.258 . S
O46 Zn47 2.035 . S
Zn47 O46 2.035 . S
Zn47 O48 2.028 . S
Zn47 O50 2.028 . S
Zn47 O53 2.035 1_565 S
O48 Zn47 2.028 . S
O48 C54 1.247 . S
O49 Zn45 2.035 . S
O49 C54 1.258 . S
O50 C43 1.247 . S
O50 Zn47 2.028 . S
O51 C43 1.258 . S
O51 Zn45 2.035 . S
O52 Zn45 2.028 . S
O52 C55 1.247 . S
O53 Zn47 2.035 1_545 S
O53 C55 1.258 1_545 S
C54 O48 1.247 . S
C54 O49 1.258 . S
C55 O52 1.247 . S
C55 O53 1.258 1_565 S
C56 O58 1.247 . S
C56 O60 1.258 . S
C57 O64 1.247 . S
C57 O65 1.258 . S
O58 C56 1.247 . S
O58 Zn59 2.028 . S
Zn59 O58 2.028 . S
Zn59 O63 2.035 . S
Zn59 O65 2.035 . S
Zn59 O66 2.028 . S
O60 C56 1.258 . S
O60 Zn61 2.035 . S
Zn61 O60 2.035 . S
Zn61 O62 2.028 1_455 S
Zn61 O64 2.028 . S
Zn61 O67 2.035 . S
O62 Zn61 2.028 1_655 S
O62 C68 1.247 1_655 S
O63 Zn59 2.035 . S
O63 C68 1.258 . S
O64 C57 1.247 . S
O64 Zn61 2.028 . S
O65 C57 1.258 . S
O65 Zn59 2.035 . S
O66 Zn59 2.028 . S
O66 C69 1.247 . S
O67 Zn61 2.035 . S
O67 C69 1.258 . S
C68 O62 1.247 1_455 S
C68 O63 1.258 . S
C69 O66 1.247 . S
C69 O67 1.258 . S
C70 O72 1.247 . S
C70 O74 1.258 . S
C71 O78 1.247 . S
C71 O79 1.258 . S
O72 C70 1.247 . S
O72 Zn73 2.028 . S
Zn73 O72 2.028 . S
Zn73 O77 2.035 . S
Zn73 O79 2.035 . S
Zn73 O80 2.028 . S
O74 C70 1.258 . S
O74 Zn75 2.035 . S
Zn75 O74 2.035 . S
Zn75 O76 2.028 1_545 S
Zn75 O78 2.028 . S
Zn75 O81 2.035 . S
O76 Zn75 2.028 1_565 S
O76 C82 1.247 1_565 S
O77 Zn73 2.035 . S
O77 C82 1.258 . S
O78 C71 1.247 . S
O78 Zn75 2.028 . S
O79 C71 1.258 . S
O79 Zn73 2.035 . S
O80 Zn73 2.028 . S
O80 C83 1.247 . S
O81 Zn75 2.035 . S
O81 C83 1.258 . S
C82 O76 1.247 1_545 S
C82 O77 1.258 . S
C83 O80 1.247 . S
C83 O81 1.258 . S
C84 O86 1.247 . S
C84 O88 1.258 . S
C85 O92 1.247 . S
C85 O93 1.258 . S
O86 C84 1.247 . S
O86 Zn87 2.028 . S
Zn87 O86 2.028 . S
Zn87 O91 2.035 . S
Zn87 O93 2.035 . S
Zn87 O94 2.028 . S
O88 C84 1.258 . S
O88 Zn89 2.035 . S
Zn89 O88 2.035 . S
Zn89 O90 2.028 1_655 S
Zn89 O92 2.028 . S
Zn89 O95 2.035 . S
O90 Zn89 2.028 1_455 S
O90 C96 1.247 1_455 S
O91 Zn87 2.035 . S
O91 C96 1.258 . S
O92 C85 1.247 . S
O92 Zn89 2.028 . S
O93 C85 1.258 . S
O93 Zn87 2.035 . S
O94 Zn87 2.028 . S
O94 C97 1.247 . S
O95 Zn89 2.035 . S
O95 C97 1.258 . S
C96 O90 1.247 1_655 S
C96 O91 1.258 . S
C97 O94 1.247 . S
C97 O95 1.258 . S
C98 O100 1.247 . S
C98 O102 1.258 . S
C99 O106 1.247 . S
C99 O107 1.258 . S
O100 C98 1.247 . S
O100 Zn101 2.028 . S
Zn101 O100 2.028 . S
Zn101 O105 2.035 . S
Zn101 O107 2.035 . S
Zn101 O108 2.028 . S
O102 C98 1.258 . S
O102 Zn103 2.035 . S
Zn103 O102 2.035 . S
Zn103 O104 2.028 1_565 S
Zn103 O106 2.028 . S
Zn103 O109 2.035 . S
O104 Zn103 2.028 1_545 S
O104 C110 1.247 1_545 S
O105 Zn101 2.035 . S
O105 C110 1.258 . S
O106 C99 1.247 . S
O106 Zn103 2.028 . S
O107 C99 1.258 . S
O107 Zn101 2.035 . S
O108 Zn101 2.028 . S
O108 C111 1.247 . S
O109 Zn103 2.035 . S
O109 C111 1.258 . S
C110 O104 1.247 1_565 S
C110 O105 1.258 . S
C111 O108 1.247 . S
C111 O109 1.258 . S
C112 C113 1.387 . S
C112 H116 0.950 . S
C112 C121 1.390 1_455 S
C113 C112 1.387 . S
C113 C115 1.387 . S
H114 C121 0.950 . S
C115 C113 1.387 . S
C115 C117 1.390 1_455 S
C115 H119 0.950 . S
H116 C112 0.950 . S
C117 C115 1.390 1_655 S
C117 C118 1.387 . S
C117 H120 0.950 . S
C118 C117 1.387 . S
C118 C121 1.387 . S
H119 C115 0.950 . S
H120 C117 0.950 . S
C121 C112 1.390 1_655 S
C121 H114 0.950 . S
C121 C118 1.387 . S
C122 C123 1.387 . S
C122 H126 0.950 . S
C122 C131 1.390 1_565 S
C123 C122 1.387 . S
C123 C125 1.387 . S
H124 C131 0.950 . S
C125 C123 1.387 . S
C125 C127 1.390 1_565 S
C125 H129 0.950 . S
H126 C122 0.950 . S
C127 C125 1.390 1_545 S
C127 C128 1.387 . S
C127 H130 0.950 . S
C128 C127 1.387 . S
C128 C131 1.387 . S
H129 C125 0.950 . S
H130 C127 0.950 . S
C131 C122 1.390 1_545 S
C131 H124 0.950 . S
C131 C128 1.387 . S
C132 C133 1.387 . S
C132 H136 0.950 . S
C132 C141 1.390 1_655 S
C133 C132 1.387 . S
C133 C135 1.387 . S
H134 C141 0.950 . S
C135 C133 1.387 . S
C135 C137 1.390 1_655 S
C135 H139 0.950 . S
H136 C132 0.950 . S
C137 C135 1.390 1_455 S
C137 C138 1.387 . S
C137 H140 0.950 . S
C138 C137 1.387 . S
C138 C141 1.387 . S
H139 C135 0.950 . S
H140 C137 0.950 . S
C141 C132 1.390 1_455 S
C141 H134 0.950 . S
C141 C138 1.387 . S
C142 C143 1.387 . S
C142 H146 0.950 . S
C142 C151 1.390 1_545 S
C143 C142 1.387 . S
C143 C145 1.387 . S
H144 C151 0.950 . S
C145 C143 1.387 . S
C145 C147 1.390 1_545 S
C145 H149 0.950 . S
H146 C142 0.950 . S
C147 C145 1.390 1_565 S
C147 C148 1.387 . S
C147 H150 0.950 . S
C148 C147 1.387 . S
C148 C151 1.387 . S
H149 C145 0.950 . S
H150 C147 0.950 . S
C151 C142 1.390 1_565 S
C151 H144 0.950 . S
C151 C148 1.387 . S
C152 C153 1.387 . S
C152 H156 0.950 . S
C152 C161 1.390 1_656 S
C153 C152 1.387 . S
C153 C155 1.387 . S
H154 C161 0.950 . S
C155 C153 1.387 . S
C155 C157 1.390 1_656 S
C155 H159 0.950 . S
H156 C152 0.950 . S
C157 C155 1.390 1_454 S
C157 C158 1.387 . S
C157 H160 0.950 . S
C158 C157 1.387 . S
C158 C161 1.387 . S
H159 C155 0.950 . S
H160 C157 0.950 . S
C161 C152 1.390 1_454 S
C161 H154 0.950 . S
C161 C158 1.387 . S
C162 C163 1.387 . S
C162 H166 0.950 . S
C162 C171 1.390 1_545 S
C163 C162 1.387 . S
C163 C165 1.387 . S
H164 C171 0.950 . S
C165 C163 1.387 . S
C165 C167 1.390 1_545 S
C165 H169 0.950 . S
H166 C162 0.950 . S
C167 C165 1.390 1_565 S
C167 C168 1.387 . S
C167 H170 0.950 . S
C168 C167 1.387 . S
C168 C171 1.387 . S
H169 C165 0.950 . S
H170 C167 0.950 . S
C171 C162 1.390 1_565 S
C171 H164 0.950 . S
C171 C168 1.387 . S
C172 C173 1.387 . S
C172 H176 0.950 . S
C172 C181 1.390 1_654 S
C173 C172 1.387 . S
C173 C175 1.387 . S
H174 C181 0.950 . S
C175 C173 1.387 . S
C175 C177 1.390 1_654 S
C175 H179 0.950 . S
H176 C172 0.950 . S
C177 C175 1.390 1_456 S
C177 C178 1.387 . S
C177 H180 0.950 . S
C178 C177 1.387 . S
C178 C181 1.387 . S
H179 C175 0.950 . S
H180 C177 0.950 . S
C181 C172 1.390 1_456 S
C181 H174 0.950 . S
C181 C178 1.387 . S
C182 C183 1.387 . S
C182 H186 0.950 . S
C182 C191 1.390 1_545 S
C183 C182 1.387 . S
C183 C185 1.387 . S
H184 C191 0.950 . S
C185 C183 1.387 . S
C185 C187 1.390 1_545 S
C185 H189 0.950 . S
H186 C182 0.950 . S
C187 C185 1.390 1_565 S
C187 C188 1.387 . S
C187 H190 0.950 . S
C188 C187 1.387 . S
C188 C191 1.387 . S
H189 C185 0.950 . S
H190 C187 0.950 . S
C191 C182 1.390 1_565 S
C191 H184 0.950 . S
C191 C188 1.387 . S
C192 C193 1.387 . S
C192 H196 0.950 . S
C192 C201 1.390 . S
C193 C192 1.387 . S
C193 C195 1.387 . S
H194 C201 0.950 . S
C195 C193 1.387 . S
C195 C197 1.390 . S
C195 H199 0.950 . S
H196 C192 0.950 . S
C197 C195 1.390 . S
C197 C198 1.387 . S
C197 H200 0.950 . S
C198 C197 1.387 . S
C198 C201 1.387 . S
H199 C195 0.950 . S
H200 C197 0.950 . S
C201 C192 1.390 . S
C201 H194 0.950 . S
C201 C198 1.387 . S
C202 C203 1.387 . S
C202 H206 0.950 . S
C202 C211 1.390 . S
C203 C202 1.387 . S
C203 C205 1.387 . S
H204 C211 0.950 . S
C205 C203 1.387 . S
C205 C207 1.390 . S
C205 H209 0.950 . S
H206 C202 0.950 . S
C207 C205 1.390 . S
C207 C208 1.387 . S
C207 H210 0.950 . S
C208 C207 1.387 . S
C208 C211 1.387 . S
H209 C205 0.950 . S
H210 C207 0.950 . S
C211 C202 1.390 . S
C211 H204 0.950 . S
C211 C208 1.387 . S
C212 C213 1.387 . S
C212 H216 0.950 . S
C212 C221 1.390 . S
C213 C212 1.387 . S
C213 C215 1.387 . S
H214 C221 0.950 . S
C215 C213 1.387 . S
C215 C217 1.390 . S
C215 H219 0.950 . S
H216 C212 0.950 . S
C217 C215 1.390 . S
C217 C218 1.387 . S
C217 H220 0.950 . S
C218 C217 1.387 . S
C218 C221 1.387 . S
H219 C215 0.950 . S
H220 C217 0.950 . S
C221 C212 1.390 . S
C221 H214 0.950 . S
C221 C218 1.387 . S
C222 C223 1.387 . S
C222 H226 0.950 . S
C222 C231 1.390 . S
C223 C222 1.387 . S
C223 C225 1.387 . S
H224 C231 0.950 . S
C225 C223 1.387 . S
C225 C227 1.390 . S
C225 H229 0.950 . S
H226 C222 0.950 . S
C227 C225 1.390 . S
C227 C228 1.387 . S
C227 H230 0.950 . S
C228 C227 1.387 . S
C228 C231 1.387 . S
H229 C225 0.950 . S
H230 C227 0.950 . S
C231 C222 1.390 . S
C231 H224 0.950 . S
C231 C228 1.387 . S
C232 C233 1.387 . S
C232 H236 0.950 . S
C232 C241 1.390 1_445 S
C233 C232 1.387 . S
C233 C235 1.387 . S
H234 C241 0.950 . S
C235 C233 1.387 . S
C235 C237 1.390 1_445 S
C235 H239 0.950 . S
H236 C232 0.950 . S
C237 C235 1.390 1_665 S
C237 C238 1.387 . S
C237 H240 0.950 . S
C238 C237 1.387 . S
C238 C241 1.387 . S
H239 C235 0.950 . S
H240 C237 0.950 . S
C241 C232 1.390 1_665 S
C241 H234 0.950 . S
C241 C238 1.387 . S
C242 C243 1.387 . S
C242 H246 0.950 . S
C242 C251 1.390 1_465 S
C243 C242 1.387 . S
C243 C245 1.387 . S
H244 C251 0.950 . S
C245 C243 1.387 . S
C245 C247 1.390 1_465 S
C245 H249 0.950 . S
H246 C242 0.950 . S
C247 C245 1.390 1_645 S
C247 C248 1.387 . S
C247 H250 0.950 . S
C248 C247 1.387 . S
C248 C251 1.387 . S
H249 C245 0.950 . S
H250 C247 0.950 . S
C251 C242 1.390 1_645 S
C251 H244 0.950 . S
C251 C248 1.387 . S
C252 C253 1.387 . S
C252 H256 0.950 . S
C252 C261 1.390 1_645 S
C253 C252 1.387 . S
C253 C255 1.387 . S
H254 C261 0.950 . S
C255 C253 1.387 . S
C255 C257 1.390 1_645 S
C255 H259 0.950 . S
H256 C252 0.950 . S
C257 C255 1.390 1_465 S
C257 C258 1.387 . S
C257 H260 0.950 . S
C258 C257 1.387 . S
C258 C261 1.387 . S
H259 C255 0.950 . S
H260 C257 0.950 . S
C261 C252 1.390 1_465 S
C261 H254 0.950 . S
C261 C258 1.387 . S
C262 C263 1.387 . S
C262 H266 0.950 . S
C262 C271 1.390 1_665 S
C263 C262 1.387 . S
C263 C265 1.387 . S
H264 C271 0.950 . S
C265 C263 1.387 . S
C265 C267 1.390 1_665 S
C265 H269 0.950 . S
H266 C262 0.950 . S
C267 C265 1.390 1_445 S
C267 C268 1.387 . S
C267 H270 0.950 . S
C268 C267 1.387 . S
C268 C271 1.387 . S
H269 C265 0.950 . S
H270 C267 0.950 . S
C271 C262 1.390 1_445 S
C271 H264 0.950 . S
C271 C268 1.387 . S
C113 C12 1.802 . S
C118 C28 1.802 . S
C123 C42 1.802 . S
C128 C26 1.802 . S
C133 C85 1.802 . S
C138 C57 1.802 . S
C143 C71 1.799 . S
C148 C99 1.799 . S
C153 C96 1.580 . S
C158 C1 1.579 . S
C163 C15 1.579 . S
C168 C110 1.580 . S
C173 C41 1.579 . S
C178 C68 1.580 . S
C183 C82 1.580 . S
C188 C55 1.580 . S
C193 C0 1.659 . S
C198 C83 1.658 . S
C203 C97 1.657 . S
C208 C14 1.659 . S
C213 C111 1.658 . S
C218 C40 1.659 . S
C223 C54 1.658 . S
C228 C69 1.657 . S
C233 C13 1.551 . S
C238 C29 1.551 . S
C243 C43 1.554 . S
C248 C27 1.554 . S
C253 C84 1.558 . S
C258 C56 1.558 . S
C263 C98 1.558 . S
C268 C70 1.558 . S
