# Generated by pormake.
# Topology wme, (6)-cn, num edge types: 1
# Building blocks:
#     Node 0, Type 0, BuildingBlock: JUFBIX_clean_sbu_0, # of connection points: 6
#     Node 1, Type 0, BuildingBlock: JUFBIX_clean_sbu_0, # of connection points: 6
#     Node 2, Type 0, BuildingBlock: JUFBIX_clean_sbu_0, # of connection points: 6
#     Node 3, Type 0, BuildingBlock: JUFBIX_clean_sbu_0, # of connection points: 6
#     Node 4, Type 0, BuildingBlock: JUFBIX_clean_sbu_0, # of connection points: 6
#     Node 5, Type 0, BuildingBlock: JUFBIX_clean_sbu_0, # of connection points: 6
#     Node 6, Type 0, BuildingBlock: JUFBIX_clean_sbu_0, # of connection points: 6
#     Node 7, Type 0, BuildingBlock: JUFBIX_clean_sbu_0, # of connection points: 6
#     Node 8, Type 0, BuildingBlock: JUFBIX_clean_sbu_0, # of connection points: 6
#     Node 9, Type 0, BuildingBlock: JUFBIX_clean_sbu_0, # of connection points: 6
#     Node 10, Type 0, BuildingBlock: JUFBIX_clean_sbu_0, # of connection points: 6
#     Node 11, Type 0, BuildingBlock: JUFBIX_clean_sbu_0, # of connection points: 6
#     Edge 12, Type (0, 0), BuildingBlock: MIFKUJ_clean_linker_0, # of connection points: 2
#     Edge 13, Type (0, 0), BuildingBlock: MIFKUJ_clean_linker_0, # of connection points: 2
#     Edge 14, Type (0, 0), BuildingBlock: MIFKUJ_clean_linker_0, # of connection points: 2
#     Edge 15, Type (0, 0), BuildingBlock: MIFKUJ_clean_linker_0, # of connection points: 2
#     Edge 16, Type (0, 0), BuildingBlock: MIFKUJ_clean_linker_0, # of connection points: 2
#     Edge 17, Type (0, 0), BuildingBlock: MIFKUJ_clean_linker_0, # of connection points: 2
#     Edge 18, Type (0, 0), BuildingBlock: MIFKUJ_clean_linker_0, # of connection points: 2
#     Edge 19, Type (0, 0), BuildingBlock: MIFKUJ_clean_linker_0, # of connection points: 2
#     Edge 20, Type (0, 0), BuildingBlock: MIFKUJ_clean_linker_0, # of connection points: 2
#     Edge 21, Type (0, 0), BuildingBlock: MIFKUJ_clean_linker_0, # of connection points: 2
#     Edge 22, Type (0, 0), BuildingBlock: MIFKUJ_clean_linker_0, # of connection points: 2
#     Edge 23, Type (0, 0), BuildingBlock: MIFKUJ_clean_linker_0, # of connection points: 2
#     Edge 24, Type (0, 0), BuildingBlock: MIFKUJ_clean_linker_0, # of connection points: 2
#     Edge 25, Type (0, 0), BuildingBlock: MIFKUJ_clean_linker_0, # of connection points: 2
#     Edge 26, Type (0, 0), BuildingBlock: MIFKUJ_clean_linker_0, # of connection points: 2
#     Edge 27, Type (0, 0), BuildingBlock: MIFKUJ_clean_linker_0, # of connection points: 2
#     Edge 28, Type (0, 0), BuildingBlock: MIFKUJ_clean_linker_0, # of connection points: 2
#     Edge 29, Type (0, 0), BuildingBlock: MIFKUJ_clean_linker_0, # of connection points: 2
#     Edge 30, Type (0, 0), BuildingBlock: MIFKUJ_clean_linker_0, # of connection points: 2
#     Edge 31, Type (0, 0), BuildingBlock: MIFKUJ_clean_linker_0, # of connection points: 2
#     Edge 32, Type (0, 0), BuildingBlock: MIFKUJ_clean_linker_0, # of connection points: 2
#     Edge 33, Type (0, 0), BuildingBlock: MIFKUJ_clean_linker_0, # of connection points: 2
#     Edge 34, Type (0, 0), BuildingBlock: MIFKUJ_clean_linker_0, # of connection points: 2
#     Edge 35, Type (0, 0), BuildingBlock: MIFKUJ_clean_linker_0, # of connection points: 2
#     Edge 36, Type (0, 0), BuildingBlock: MIFKUJ_clean_linker_0, # of connection points: 2
#     Edge 37, Type (0, 0), BuildingBlock: MIFKUJ_clean_linker_0, # of connection points: 2
#     Edge 38, Type (0, 0), BuildingBlock: MIFKUJ_clean_linker_0, # of connection points: 2
#     Edge 39, Type (0, 0), BuildingBlock: MIFKUJ_clean_linker_0, # of connection points: 2
#     Edge 40, Type (0, 0), BuildingBlock: MIFKUJ_clean_linker_0, # of connection points: 2
#     Edge 41, Type (0, 0), BuildingBlock: MIFKUJ_clean_linker_0, # of connection points: 2
#     Edge 42, Type (0, 0), BuildingBlock: MIFKUJ_clean_linker_0, # of connection points: 2
#     Edge 43, Type (0, 0), BuildingBlock: MIFKUJ_clean_linker_0, # of connection points: 2
#     Edge 44, Type (0, 0), BuildingBlock: MIFKUJ_clean_linker_0, # of connection points: 2
#     Edge 45, Type (0, 0), BuildingBlock: MIFKUJ_clean_linker_0, # of connection points: 2
#     Edge 46, Type (0, 0), BuildingBlock: MIFKUJ_clean_linker_0, # of connection points: 2
#     Edge 47, Type (0, 0), BuildingBlock: MIFKUJ_clean_linker_0, # of connection points: 2
# Relax obj value: 0.294
# Max RMSD: 0.227
# Mean RMSD: 0.227
data_MOF--net-wme--node1-JUFBIX_clean_sbu_0--edge1-MIFKUJ_clean_linker_0
_symmetry_space_group_name_H-M    P1
_symmetry_Int_Tables_number       1
_symmetry_cell_setting            triclinic
loop_
_symmetry_equiv_pos_as_xyz
'x, y, z'
_cell_length_a     41.662799
_cell_length_b     41.597555
_cell_length_c     72.823363
_cell_angle_alpha  89.917083
_cell_angle_beta   90.019744
_cell_angle_gamma 120.02662
loop_
_atom_site_label
_atom_site_type_symbol
_atom_site_fract_x
_atom_site_fract_y
_atom_site_fract_z
_atom_type_partial_charge
Co0 Co 0.19867 0.34075 0.1221 0.0
C1 C 0.22885 0.315 0.0955 0.0
Co2 Co 0.22645 0.31175 0.1335 0.0
C3 C 0.17525 0.39539 0.11918 0.0
C4 C 0.15225 0.35429 0.09803 0.0
N5 N 0.17546 0.3652 0.11253 0.0
N6 N 0.15248 0.40348 0.10952 0.0
C7 C 0.13805 0.37769 0.09616 0.0
H8 H 0.19054 0.41037 0.13126 0.0
H9 H 0.14544 0.33031 0.0896 0.0
C10 C 0.19676 0.33641 0.16034 0.0
N11 N 0.24811 0.28604 0.14317 0.0
C12 C 0.24168 0.25264 0.13725 0.0
C13 C 0.2665 0.29167 0.15918 0.0
N14 N 0.25446 0.23678 0.14908 0.0
C15 C 0.27002 0.26107 0.16297 0.0
C16 C 0.27321 0.38706 0.12942 0.0
O17 O 0.18627 0.3482 0.14676 0.0
O18 O 0.21518 0.32026 0.15732 0.0
O19 O 0.27246 0.35728 0.1343 0.0
O20 O 0.24379 0.38574 0.12363 0.0
O21 O 0.23773 0.30326 0.1096 0.0
H22 H 0.27436 0.31515 0.16815 0.0
H23 H 0.2249 0.23866 0.12534 0.0
O24 O 0.21135 0.33262 0.09758 0.0
O25 O 0.15374 0.29594 0.12079 0.0
O26 O 0.17994 0.26655 0.13285 0.0
C27 C 0.15123 0.26611 0.12668 0.0
H28 H 0.1186 0.37584 0.08578 0.0
H29 H 0.28124 0.25614 0.17538 0.0
Co30 Co 0.8696 0.19295 0.62628 0.0
C31 C 0.87056 0.22108 0.66172 0.0
Co32 Co 0.89681 0.25403 0.62826 0.0
C33 C 0.84754 0.11447 0.6189 0.0
C34 C 0.8082 0.12283 0.63399 0.0
N35 N 0.84222 0.14133 0.62625 0.0
N36 N 0.81764 0.08034 0.62149 0.0
C37 C 0.79307 0.08563 0.63101 0.0
H38 H 0.87238 0.1198 0.61162 0.0
H39 H 0.79496 0.13567 0.64132 0.0
C40 C 0.89776 0.22616 0.59308 0.0
N41 N 0.92114 0.30543 0.62851 0.0
C42 C 0.90644 0.32634 0.63389 0.0
C43 C 0.95338 0.3294 0.62026 0.0
N44 N 0.9275 0.36218 0.62884 0.0
C45 C 0.95726 0.36432 0.62035 0.0
C46 C 0.94365 0.22443 0.63318 0.0
O47 O 0.88024 0.19438 0.60072 0.0
O48 O 0.90591 0.25502 0.6025 0.0
O49 O 0.94224 0.25436 0.63278 0.0
O50 O 0.91393 0.19333 0.63138 0.0
O51 O 0.8879 0.25271 0.65402 0.0
H52 H 0.97152 0.32154 0.61347 0.0
H53 H 0.87918 0.31491 0.63999 0.0
O54 O 0.8601 0.19213 0.65203 0.0
O55 O 0.82543 0.19301 0.62077 0.0
O56 O 0.85122 0.25302 0.62355 0.0
C57 C 0.82263 0.22189 0.62048 0.0
H58 H 0.76631 0.06392 0.63583 0.0
H59 H 0.97924 0.38889 0.61381 0.0
Co60 Co 0.65177 0.85727 0.12249 0.0
C61 C 0.68034 0.91572 0.09691 0.0
Co62 Co 0.68681 0.91265 0.13453 0.0
C63 C 0.5923 0.78143 0.11851 0.0
C64 C 0.63019 0.79995 0.09587 0.0
N65 N 0.62272 0.81143 0.1118 0.0
N66 N 0.58092 0.7516 0.10752 0.0
C67 C 0.60462 0.76313 0.09324 0.0
H68 H 0.57983 0.78099 0.13163 0.0
H69 H 0.65356 0.81695 0.08705 0.0
C70 C 0.65971 0.85563 0.16038 0.0
N71 N 0.71716 0.95857 0.1449 0.0
C72 C 0.75266 0.98159 0.14007 0.0
C73 C 0.71137 0.97473 0.15957 0.0
N74 N 0.76979 0.01127 0.15125 0.0
C75 C 0.74377 0.00718 0.16354 0.0
C76 C 0.61254 0.89143 0.13315 0.0
O77 O 0.64457 0.8347 0.14653 0.0
O78 O 0.67876 0.8905 0.15797 0.0
O79 O 0.64417 0.91846 0.13757 0.0
O80 O 0.61006 0.86228 0.12625 0.0
O81 O 0.69523 0.93506 0.11115 0.0
H82 H 0.68578 0.96297 0.16729 0.0
H83 H 0.7662 0.97545 0.12908 0.0
O84 O 0.65962 0.88072 0.09865 0.0
O85 O 0.69315 0.85169 0.11891 0.0
O86 O 0.72884 0.9058 0.13144 0.0
C87 C 0.72501 0.87638 0.12413 0.0
H88 H 0.60391 0.74596 0.08191 0.0
H89 H 0.74795 0.02568 0.17487 0.0
Co90 Co 0.80575 0.68848 0.62722 0.0
C91 C 0.77748 0.65657 0.6617 0.0
Co92 Co 0.74591 0.64713 0.62752 0.0
C93 C 0.88519 0.72919 0.61899 0.0
C94 C 0.86925 0.7532 0.64064 0.0
N95 N 0.85545 0.72463 0.62864 0.0
N96 N 0.91655 0.75984 0.62438 0.0
C97 C 0.90667 0.775 0.63793 0.0
H98 H 0.88389 0.71071 0.60819 0.0
H99 H 0.85316 0.75779 0.65087 0.0
C100 C 0.77371 0.68008 0.59316 0.0
N101 N 0.6959 0.61131 0.62631 0.0
C102 C 0.67899 0.5748 0.63064 0.0
C103 C 0.66885 0.61625 0.61913 0.0
N104 N 0.64246 0.55677 0.62638 0.0
C105 C 0.63611 0.58297 0.61919 0.0
C106 C 0.76015 0.71828 0.63395 0.0
O107 O 0.80439 0.69847 0.60165 0.0
O108 O 0.74564 0.65536 0.60182 0.0
O109 O 0.73333 0.68532 0.63193 0.0
O110 O 0.793 0.72439 0.63271 0.0
O111 O 0.74652 0.63956 0.65337 0.0
H112 H 0.67292 0.64216 0.61357 0.0
H113 H 0.69338 0.56164 0.63653 0.0
O114 O 0.80647 0.67848 0.65269 0.0
O115 O 0.81839 0.65242 0.62176 0.0
O116 O 0.75959 0.60974 0.62313 0.0
C117 C 0.79339 0.6185 0.62106 0.0
H118 H 0.92541 0.79977 0.64553 0.0
H119 H 0.61002 0.57824 0.61361 0.0
Co120 Co 0.14279 0.79759 0.12001 0.0
C121 C 0.0872 0.77405 0.09355 0.0
Co122 Co 0.08687 0.77418 0.13171 0.0
C123 C 0.21938 0.8162 0.11776 0.0
C124 C 0.20324 0.83787 0.09514 0.0
N125 N 0.19 0.8169 0.11041 0.0
N126 N 0.25055 0.83626 0.10779 0.0
C127 C 0.24042 0.84983 0.0935 0.0
H128 H 0.21823 0.80247 0.13059 0.0
H129 H 0.18711 0.84492 0.08606 0.0
C130 C 0.14074 0.79777 0.15847 0.0
N131 N 0.03964 0.7563 0.14116 0.0
C132 C 0.01916 0.77281 0.13878 0.0
C133 C 0.01859 0.72651 0.15188 0.0
N134 N 0.98662 0.7551 0.14771 0.0
C135 C 0.98564 0.72555 0.15584 0.0
C136 C 0.10835 0.72182 0.12646 0.0
O137 O 0.16267 0.8087 0.14473 0.0
O138 O 0.10602 0.78045 0.15562 0.0
O139 O 0.08032 0.72482 0.13085 0.0
O140 O 0.1382 0.75055 0.12163 0.0
O141 O 0.06727 0.76806 0.10772 0.0
H142 H 0.02682 0.70708 0.1567 0.0
H143 H 0.02774 0.79745 0.13052 0.0
O144 O 0.12176 0.78606 0.09555 0.0
O145 O 0.14793 0.84493 0.11847 0.0
O146 O 0.09499 0.82394 0.13265 0.0
C147 C 0.1238 0.85094 0.12566 0.0
H148 H 0.25863 0.86745 0.08272 0.0
H149 H 0.96327 0.70543 0.16435 0.0
Co150 Co 0.29914 0.10807 0.62684 0.0
C151 C 0.32921 0.11073 0.66159 0.0
Co152 Co 0.34249 0.09252 0.62722 0.0
C153 C 0.25381 0.14215 0.61925 0.0
C154 C 0.23081 0.09912 0.63959 0.0
N155 N 0.2602 0.11747 0.62827 0.0
N156 N 0.22126 0.13909 0.62435 0.0
C157 C 0.20674 0.11213 0.63709 0.0
H158 H 0.27235 0.16166 0.60911 0.0
H159 H 0.22716 0.07773 0.64923 0.0
C160 C 0.31185 0.08901 0.59251 0.0
N161 N 0.381 0.08267 0.62619 0.0
C162 C 0.41621 0.10487 0.63184 0.0
C163 C 0.3814 0.05452 0.61728 0.0
N164 N 0.43892 0.09222 0.62648 0.0
C165 C 0.41691 0.06029 0.61742 0.0
C166 C 0.27395 0.03188 0.63154 0.0
O167 O 0.2913 0.09862 0.60105 0.0
O168 O 0.33698 0.0867 0.60131 0.0
O169 O 0.30775 0.04088 0.62997 0.0
O170 O 0.26526 0.05704 0.63122 0.0
O171 O 0.34754 0.09814 0.65337 0.0
H172 H 0.35788 0.03238 0.61022 0.0
H173 H 0.42516 0.13061 0.63913 0.0
O174 O 0.30705 0.11716 0.65246 0.0
O175 O 0.33342 0.15907 0.62245 0.0
O176 O 0.37699 0.14435 0.62425 0.0
C177 C 0.36765 0.16896 0.62239 0.0
H178 H 0.18088 0.10308 0.64431 0.0
H179 H 0.42606 0.04343 0.61036 0.0
Co180 Co 0.67274 0.80727 0.38853 0.0
C181 C 0.64491 0.78062 0.35308 0.0
Co182 Co 0.64166 0.74637 0.38582 0.0
C183 C 0.7295 0.88534 0.39519 0.0
C184 C 0.67872 0.87712 0.38355 0.0
N185 N 0.6957 0.85859 0.38945 0.0
N186 N 0.73353 0.91953 0.39338 0.0
C187 C 0.70176 0.91435 0.38599 0.0
H188 H 0.75063 0.87994 0.4005 0.0
H189 H 0.65136 0.86431 0.37751 0.0
C190 C 0.67092 0.7725 0.42099 0.0
N191 N 0.61547 0.69495 0.38465 0.0
C192 C 0.58018 0.67486 0.37871 0.0
C193 C 0.62269 0.67008 0.39274 0.0
N194 N 0.56431 0.63872 0.38341 0.0
C195 C 0.59122 0.63542 0.39199 0.0
C196 C 0.71757 0.77948 0.37923 0.0
O197 O 0.68484 0.80456 0.41365 0.0
O198 O 0.64984 0.74398 0.41144 0.0
O199 O 0.68784 0.74812 0.38081 0.0
O200 O 0.71654 0.80925 0.38133 0.0
O201 O 0.63397 0.74897 0.36025 0.0
H202 H 0.648 0.67714 0.40003 0.0
H203 H 0.56556 0.68711 0.37213 0.0
O204 O 0.66114 0.80933 0.36317 0.0
O205 O 0.62876 0.8052 0.39607 0.0
O206 O 0.59616 0.7457 0.39093 0.0
C207 C 0.59773 0.7757 0.39568 0.0
H208 H 0.69635 0.9362 0.3819 0.0
H209 H 0.58755 0.61052 0.39865 0.0
Co210 Co 0.84887 0.67083 0.89186 0.0
C211 C 0.84462 0.64945 0.85503 0.0
Co212 Co 0.881 0.6434 0.88522 0.0
C213 C 0.83401 0.73157 0.89734 0.0
C214 C 0.78453 0.67868 0.89554 0.0
N215 N 0.82183 0.69481 0.89606 0.0
N216 N 0.80584 0.73892 0.89742 0.0
C217 C 0.77469 0.70554 0.89644 0.0
H218 H 0.863 0.75268 0.89749 0.0
H219 H 0.76546 0.64942 0.89348 0.0
C220 C 0.88711 0.66618 0.92187 0.0
N221 N 0.90594 0.61788 0.88059 0.0
C222 C 0.88976 0.58382 0.873 0.0
C223 C 0.93763 0.62264 0.88806 0.0
N224 N 0.90863 0.56594 0.87637 0.0
C225 C 0.93931 0.59064 0.88551 0.0
C226 C 0.92172 0.71873 0.881 0.0
O227 O 0.86671 0.67933 0.91672 0.0
O228 O 0.8946 0.64773 0.91045 0.0
O229 O 0.92438 0.68958 0.88061 0.0
O230 O 0.89077 0.71611 0.88484 0.0
O231 O 0.86783 0.63991 0.8601 0.0
H232 H 0.95612 0.64605 0.8965 0.0
H233 H 0.86259 0.57093 0.86672 0.0
O234 O 0.83173 0.66248 0.86688 0.0
O235 O 0.80746 0.6252 0.89887 0.0
O236 O 0.8369 0.597 0.88987 0.0
C237 C 0.80765 0.59533 0.89597 0.0
H238 H 0.74679 0.70086 0.89519 0.0
H239 H 0.95931 0.5846 0.89174 0.0
Co240 Co 0.19305 0.87915 0.38592 0.0
C241 C 0.22026 0.88297 0.34989 0.0
Co242 Co 0.25351 0.90289 0.38359 0.0
C243 C 0.11784 0.86582 0.39321 0.0
C244 C 0.12005 0.82286 0.37805 0.0
N245 N 0.14179 0.85627 0.38596 0.0
N246 N 0.08228 0.83906 0.39041 0.0
C247 C 0.08365 0.81215 0.38088 0.0
H248 H 0.12621 0.8915 0.40048 0.0
H249 H 0.13005 0.80718 0.37055 0.0
C250 C 0.2267 0.90011 0.4195 0.0
N251 N 0.30437 0.9235 0.38323 0.0
C252 C 0.32266 0.90594 0.37805 0.0
C253 C 0.33017 0.95503 0.39136 0.0
N254 N 0.35847 0.92429 0.38324 0.0
C255 C 0.36349 0.95555 0.39143 0.0
C256 C 0.23046 0.95498 0.38166 0.0
O257 O 0.19499 0.88557 0.41186 0.0
O258 O 0.25511 0.90856 0.40967 0.0
O259 O 0.25852 0.95057 0.38099 0.0
O260 O 0.19814 0.92675 0.38316 0.0
O261 O 0.25176 0.89739 0.35764 0.0
H262 H 0.32451 0.97486 0.39807 0.0
H263 H 0.30914 0.87843 0.3721 0.0
O264 O 0.19162 0.87329 0.35973 0.0
O265 O 0.18844 0.83186 0.38914 0.0
O266 O 0.24802 0.8549 0.38628 0.0
C267 C 0.21607 0.82706 0.3886 0.0
H268 H 0.05986 0.78692 0.37594 0.0
H269 H 0.38873 0.97614 0.39805 0.0
Co270 Co 0.31858 0.17694 0.89099 0.0
C271 C 0.3409 0.19394 0.85434 0.0
Co272 Co 0.34967 0.23672 0.88488 0.0
C273 C 0.25696 0.10393 0.89978 0.0
C274 C 0.30644 0.10307 0.89286 0.0
N275 N 0.29293 0.12625 0.89527 0.0
N276 N 0.24756 0.0678 0.9002 0.0
C277 C 0.27874 0.06726 0.89594 0.0
H278 H 0.23781 0.1139 0.90221 0.0
H279 H 0.33427 0.11141 0.88836 0.0
C280 C 0.32581 0.21986 0.92131 0.0
N281 N 0.37651 0.2873 0.88057 0.0
C282 C 0.41158 0.30622 0.87422 0.0
C283 C 0.36915 0.31357 0.88661 0.0
N284 N 0.42704 0.34312 0.87668 0.0
C285 C 0.4003 0.34795 0.88435 0.0
C286 C 0.27411 0.20535 0.88062 0.0
O287 O 0.31073 0.18641 0.91576 0.0
O288 O 0.34585 0.24597 0.91023 0.0
O289 O 0.3044 0.23617 0.88037 0.0
O290 O 0.27456 0.17572 0.88417 0.0
O291 O 0.35285 0.22717 0.85959 0.0
H292 H 0.34395 0.30792 0.89362 0.0
H293 H 0.42682 0.29297 0.86958 0.0
O294 O 0.32605 0.1678 0.86606 0.0
O295 O 0.36279 0.1785 0.89785 0.0
O296 O 0.39483 0.23656 0.88947 0.0
C297 C 0.3939 0.20741 0.89533 0.0
H298 H 0.2809 0.0426 0.8941 0.0
H299 H 0.40383 0.37414 0.88916 0.0
Co300 Co 0.11707 0.30485 0.38714 0.0
C301 C 0.12359 0.3378 0.35275 0.0
Co302 Co 0.10047 0.34748 0.38672 0.0
C303 C 0.15598 0.2649 0.39516 0.0
C304 C 0.11487 0.23936 0.37409 0.0
N305 N 0.12943 0.26802 0.38604 0.0
N306 N 0.15811 0.23535 0.38933 0.0
C307 C 0.13246 0.21919 0.37613 0.0
H308 H 0.1741 0.28441 0.40539 0.0
H309 H 0.09374 0.23421 0.36403 0.0
C310 C 0.0925 0.31368 0.42097 0.0
N311 N 0.08788 0.38428 0.38734 0.0
C312 C 0.1101 0.42079 0.38384 0.0
C313 C 0.05529 0.38091 0.39253 0.0
N314 N 0.09292 0.44056 0.38684 0.0
C315 C 0.05824 0.41533 0.39218 0.0
C316 C 0.0426 0.27747 0.37941 0.0
O317 O 0.10473 0.29503 0.41266 0.0
O318 O 0.08989 0.33876 0.41222 0.0
O319 O 0.04989 0.31079 0.38138 0.0
O320 O 0.06827 0.2699 0.38123 0.0
O321 O 0.11082 0.35587 0.36106 0.0
H322 H 0.03119 0.35524 0.39676 0.0
H323 H 0.13881 0.43276 0.37983 0.0
O324 O 0.12871 0.31454 0.36175 0.0
O325 O 0.16621 0.34002 0.39298 0.0
O326 O 0.15128 0.38349 0.39212 0.0
C327 C 0.17575 0.37403 0.39419 0.0
H328 H 0.12781 0.19531 0.36813 0.0
H329 H 0.03651 0.42115 0.39585 0.0
Co330 Co 0.81688 0.1431 0.89173 0.0
C331 C 0.80051 0.15318 0.85558 0.0
Co332 Co 0.75726 0.11406 0.88534 0.0
C333 C 0.89064 0.15742 0.90129 0.0
C334 C 0.88895 0.2064 0.89399 0.0
N335 N 0.86718 0.16946 0.89643 0.0
N336 N 0.92618 0.18549 0.90194 0.0
C337 C 0.92505 0.21631 0.89741 0.0
H338 H 0.88192 0.12853 0.90375 0.0
H339 H 0.87945 0.22485 0.8892 0.0
C340 C 0.77318 0.10301 0.92128 0.0
N341 N 0.70711 0.08974 0.88033 0.0
C342 C 0.68855 0.10627 0.87399 0.0
C343 C 0.68071 0.05473 0.8844 0.0
N344 N 0.65152 0.08357 0.87445 0.0
C345 C 0.64642 0.05087 0.88086 0.0
C346 C 0.79107 0.07206 0.87898 0.0
O347 O 0.80676 0.12334 0.91618 0.0
O348 O 0.7473 0.09655 0.91 0.0
O349 O 0.76008 0.07118 0.87861 0.0
O350 O 0.82006 0.10169 0.88381 0.0
O351 O 0.76736 0.13153 0.8607 0.0
H352 H 0.68593 0.0341 0.89056 0.0
H353 H 0.70197 0.13542 0.87046 0.0
O354 O 0.82664 0.16228 0.86708 0.0
O355 O 0.81345 0.18423 0.89978 0.0
O356 O 0.75505 0.15721 0.89222 0.0
C357 C 0.78374 0.18527 0.89847 0.0
H358 H 0.94883 0.24376 0.89555 0.0
H359 H 0.61989 0.02647 0.88367 0.0
H360 H 0.17355 0.91085 0.10606 0.0
H361 H 0.19338 0.97587 0.11174 0.0
H362 H 0.1127 0.94381 0.15523 0.0
H363 H 0.09195 0.87819 0.14929 0.0
H364 H 0.11826 0.00213 0.13592 0.0
H365 H 0.20059 0.97209 0.16586 0.0
H366 H 0.24176 0.94578 0.16922 0.0
H367 H 0.31554 0.02207 0.1287 0.0
H368 H 0.27444 0.04844 0.12491 0.0
H369 H 0.22247 0.18641 0.17616 0.0
H370 H 0.19809 0.11911 0.1737 0.0
H371 H 0.24056 0.13405 0.11847 0.0
H372 H 0.26371 0.20113 0.12071 0.0
H373 H 0.25301 0.08368 0.14739 0.0
H374 H 0.16336 0.10876 0.1166 0.0
H375 H 0.12043 0.1333 0.11522 0.0
H376 H 0.05934 0.06465 0.16096 0.0
H377 H 0.10253 0.04035 0.1629 0.0
C378 C 0.1596 0.91755 0.11666 0.0
C379 C 0.13145 0.88948 0.12736 0.0
C380 C 0.1711 0.95474 0.11995 0.0
C381 C 0.15514 0.96469 0.1342 0.0
C382 C 0.12553 0.93669 0.14425 0.0
C383 C 0.11369 0.89927 0.14082 0.0
C384 C 0.17079 0.00438 0.13899 0.0
C385 C 0.1476 0.01982 0.1387 0.0
C386 C 0.20912 0.02746 0.14268 0.0
C387 C 0.23425 0.01204 0.14501 0.0
C388 C 0.22547 0.98308 0.15758 0.0
C389 C 0.24881 0.96818 0.15957 0.0
C390 C 0.28123 0.9822 0.14915 0.0
C391 C 0.2904 0.01122 0.13676 0.0
C392 C 0.2671 0.02619 0.1347 0.0
C393 C 0.22713 0.17525 0.16367 0.0
C394 C 0.2451 0.19862 0.14865 0.0
C395 C 0.21305 0.13699 0.16223 0.0
C396 C 0.2175 0.12187 0.14589 0.0
C397 C 0.23695 0.14539 0.13118 0.0
C398 C 0.25015 0.18347 0.13245 0.0
C399 C 0.20064 0.08133 0.14381 0.0
C400 C 0.22364 0.0658 0.14473 0.0
C401 C 0.1621 0.05812 0.14106 0.0
C402 C 0.13654 0.07319 0.14008 0.0
C403 C 0.14117 0.09936 0.12656 0.0
C404 C 0.11671 0.11312 0.12564 0.0
C405 C 0.08724 0.10059 0.13802 0.0
C406 C 0.08225 0.07438 0.1514 0.0
C407 C 0.10673 0.06064 0.15244 0.0
H408 H 0.06814 0.11098 0.13715 0.0
H409 H 0.29929 0.97064 0.1507 0.0
H410 H 0.25093 0.21325 0.62677 0.0
H411 H 0.21612 0.24663 0.62424 0.0
H412 H 0.11933 0.14519 0.60699 0.0
H413 H 0.15392 0.11219 0.60979 0.0
H414 H 0.12553 0.20801 0.58955 0.0
H415 H 0.13246 0.16382 0.65105 0.0
H416 H 0.16718 0.16198 0.67811 0.0
H417 H 0.21573 0.27984 0.68475 0.0
H418 H 0.18166 0.28239 0.65753 0.0
H419 H 0.95627 0.16751 0.6262 0.0
H420 H 0.01579 0.17107 0.62135 0.0
H421 H 0.07279 0.28771 0.63453 0.0
H422 H 0.01287 0.28471 0.6391 0.0
H423 H 0.10035 0.23919 0.65171 0.0
H424 H 0.07595 0.2768 0.5941 0.0
H425 H 0.03965 0.27498 0.56695 0.0
H426 H 0.02204 0.16714 0.55293 0.0
H427 H 0.0576 0.16793 0.58016 0.0
C428 C 0.22266 0.19871 0.62178 0.0
C429 C 0.20483 0.16039 0.61843 0.0
C430 C 0.2028 0.2176 0.62043 0.0
C431 C 0.1651 0.19825 0.61556 0.0
C432 C 0.14841 0.16067 0.61069 0.0
C433 C 0.16803 0.14182 0.6123 0.0
C434 C 0.14114 0.21478 0.61806 0.0
C435 C 0.12027 0.21531 0.60307 0.0
C436 C 0.1349 0.22497 0.63568 0.0
C437 C 0.15494 0.22338 0.65215 0.0
C438 C 0.15075 0.18936 0.65822 0.0
C439 C 0.17027 0.18819 0.67358 0.0
C440 C 0.19374 0.22079 0.68311 0.0
C441 C 0.19762 0.25462 0.67733 0.0
C442 C 0.17823 0.25596 0.66193 0.0
C443 C 0.98136 0.19389 0.62834 0.0
C444 C 0.97982 0.22586 0.63303 0.0
C445 C 0.01534 0.1959 0.62541 0.0
C446 C 0.04849 0.22975 0.62732 0.0
C447 C 0.04736 0.26143 0.63287 0.0
C448 C 0.01318 0.2596 0.63553 0.0
C449 C 0.08391 0.23118 0.62329 0.0
C450 C 0.10666 0.23362 0.63802 0.0
C451 C 0.09166 0.22344 0.60545 0.0
C452 C 0.06942 0.2224 0.58925 0.0
C453 C 0.064 0.2525 0.58535 0.0
C454 C 0.04362 0.2517 0.56992 0.0
C455 C 0.02866 0.22101 0.55821 0.0
C456 C 0.03375 0.19093 0.56199 0.0
C457 C 0.05404 0.19156 0.57742 0.0
H458 H 0.01329 0.22057 0.54616 0.0
H459 H 0.20884 0.21983 0.695 0.0
H460 H 0.81729 0.02977 0.12252 0.0
H461 H 0.88421 0.06966 0.12318 0.0
H462 H 0.87884 0.09641 0.17983 0.0
H463 H 0.81154 0.05482 0.17967 0.0
H464 H 0.92457 0.15883 0.15587 0.0
H465 H 0.90961 0.04406 0.17508 0.0
H466 H 0.88799 0.97712 0.17579 0.0
H467 H 0.93808 0.98511 0.12322 0.0
H468 H 0.9593 0.05206 0.12196 0.0
H469 H 0.13006 0.20785 0.15034 0.0
H470 H 0.06616 0.1617 0.15852 0.0
H471 H 0.02549 0.20399 0.11578 0.0
H472 H 0.08893 0.25067 0.10791 0.0
H473 H 0.00569 0.10646 0.14138 0.0
H474 H 0.95413 0.21299 0.13307 0.0
H475 H 0.98065 0.28082 0.13467 0.0
H476 H 0.06748 0.29002 0.16989 0.0
H477 H 0.04069 0.22211 0.16915 0.0
C478 C 0.8301 0.04362 0.13524 0.0
C479 C 0.80883 0.03837 0.15115 0.0
C480 C 0.86843 0.06657 0.13554 0.0
C481 C 0.88634 0.08533 0.15163 0.0
C482 C 0.86534 0.08179 0.16733 0.0
C483 C 0.82686 0.05823 0.16715 0.0
C484 C 0.92705 0.10893 0.15164 0.0
C485 C 0.94244 0.14749 0.15286 0.0
C486 C 0.95024 0.0938 0.1482 0.0
C487 C 0.93585 0.05313 0.14838 0.0
C488 C 0.91552 0.03148 0.16352 0.0
C489 C 0.90345 0.99353 0.16405 0.0
C490 C 0.9118 0.97691 0.1496 0.0
C491 C 0.93173 0.99808 0.13443 0.0
C492 C 0.94377 0.03604 0.1338 0.0
C493 C 0.10748 0.20668 0.14243 0.0
C494 C 0.11429 0.2331 0.12868 0.0
C495 C 0.07106 0.18045 0.14716 0.0
C496 C 0.04126 0.18021 0.13806 0.0
C497 C 0.04819 0.20441 0.12325 0.0
C498 C 0.08441 0.23086 0.11869 0.0
C499 C 0.00285 0.15636 0.14457 0.0
C500 C 0.98795 0.11783 0.14461 0.0
C501 C 0.98028 0.17155 0.14952 0.0
C502 C 0.99549 0.21233 0.15091 0.0
C503 C 0.97859 0.22937 0.14136 0.0
C504 C 0.99367 0.26787 0.14214 0.0
C505 C 0.02571 0.2897 0.15239 0.0
C506 C 0.0426 0.27305 0.162 0.0
C507 C 0.02741 0.23453 0.16145 0.0
H508 H 0.03746 0.31951 0.15289 0.0
H509 H 0.9031 0.9477 0.15019 0.0
H510 H 0.70123 0.72641 0.62286 0.0
H511 H 0.7015 0.7856 0.6204 0.0
H512 H 0.80928 0.84212 0.64616 0.0
H513 H 0.80826 0.78373 0.64938 0.0
H514 H 0.77258 0.87279 0.65675 0.0
H515 H 0.79126 0.82897 0.59689 0.0
H516 H 0.76921 0.7841 0.57129 0.0
H517 H 0.67821 0.80313 0.56224 0.0
H518 H 0.69929 0.84753 0.588 0.0
H519 H 0.866 0.05598 0.6268 0.0
H520 H 0.84999 0.9905 0.62692 0.0
H521 H 0.74066 0.95847 0.60673 0.0
H522 H 0.75672 0.02371 0.60662 0.0
H523 H 0.76746 0.91311 0.59317 0.0
H524 H 0.75008 0.95933 0.65038 0.0
H525 H 0.76909 0.00331 0.67624 0.0
H526 H 0.85488 0.97913 0.69037 0.0
H527 H 0.83678 0.93546 0.66437 0.0
C528 C 0.72429 0.75136 0.62852 0.0
C529 C 0.75494 0.75062 0.63608 0.0
C530 C 0.72468 0.78521 0.6269 0.0
C531 C 0.75592 0.81853 0.63262 0.0
C532 C 0.78498 0.81699 0.64149 0.0
C533 C 0.78443 0.78348 0.64327 0.0
C534 C 0.7606 0.85562 0.62847 0.0
C535 C 0.77159 0.88153 0.64282 0.0
C536 C 0.75831 0.86696 0.61036 0.0
C537 C 0.74654 0.84115 0.59453 0.0
C538 C 0.76647 0.82345 0.58948 0.0
C539 C 0.75412 0.79808 0.57496 0.0
C540 C 0.72217 0.79059 0.56524 0.0
C541 C 0.70281 0.8088 0.56986 0.0
C542 C 0.71491 0.83402 0.58442 0.0
C543 C 0.83916 0.03501 0.62173 0.0
C544 C 0.81244 0.04455 0.61684 0.0
C545 C 0.82989 0.9977 0.62192 0.0
C546 C 0.7939 0.96969 0.61714 0.0
C547 C 0.76848 0.97962 0.61053 0.0
C548 C 0.77763 0.01678 0.6105 0.0
C549 C 0.78123 0.93028 0.62132 0.0
C550 C 0.76836 0.90414 0.60707 0.0
C551 C 0.78168 0.91857 0.63951 0.0
C552 C 0.79229 0.94439 0.65532 0.0
C553 C 0.77317 0.96359 0.65892 0.0
C554 C 0.78376 0.98844 0.67361 0.0
C555 C 0.81323 0.99407 0.68491 0.0
C556 C 0.83209 0.97477 0.68158 0.0
C557 C 0.82167 0.94996 0.66687 0.0
H558 H 0.82139 0.01332 0.69628 0.0
H559 H 0.71229 0.77063 0.55416 0.0
H560 H 0.91261 0.7127 0.14312 0.0
H561 H 0.86858 0.73548 0.1396 0.0
H562 H 0.95661 0.84717 0.15037 0.0
H563 H 0.0005 0.82455 0.15354 0.0
H564 H 0.88543 0.82661 0.16751 0.0
H565 H 0.94094 0.82735 0.1091 0.0
H566 H 0.95846 0.79864 0.08437 0.0
H567 H 0.84379 0.71833 0.07542 0.0
H568 H 0.82565 0.74617 0.10036 0.0
H569 H 0.79783 0.92239 0.13375 0.0
H570 H 0.84588 0.90514 0.13654 0.0
H571 H 0.76954 0.79551 0.11627 0.0
H572 H 0.72206 0.81271 0.11278 0.0
H573 H 0.837 0.81692 0.10423 0.0
H574 H 0.78065 0.81869 0.16149 0.0
H575 H 0.7633 0.84941 0.18518 0.0
H576 H 0.87816 0.9227 0.19768 0.0
H577 H 0.89635 0.89397 0.17326 0.0
C578 C 0.92216 0.7419 0.14511 0.0
C579 C 0.95975 0.767 0.14846 0.0
C580 C 0.89719 0.7549 0.14305 0.0
C581 C 0.90954 0.79301 0.14463 0.0
C582 C 0.94662 0.8177 0.14913 0.0
C583 C 0.97161 0.80483 0.15084 0.0
C584 C 0.8848 0.80772 0.13995 0.0
C585 C 0.87501 0.82485 0.15367 0.0
C586 C 0.87116 0.80503 0.12191 0.0
C587 C 0.88197 0.78858 0.10673 0.0
C588 C 0.91948 0.80337 0.10197 0.0
C589 C 0.92953 0.78729 0.0879 0.0
C590 C 0.90226 0.75662 0.07836 0.0
C591 C 0.86489 0.74205 0.08284 0.0
C592 C 0.85471 0.75797 0.09694 0.0
C593 C 0.79157 0.89487 0.12955 0.0
C594 C 0.75598 0.86873 0.12334 0.0
C595 C 0.81901 0.88505 0.1312 0.0
C596 C 0.81101 0.84878 0.12705 0.0
C597 C 0.7763 0.82357 0.11967 0.0
C598 C 0.74909 0.83345 0.11777 0.0
C599 C 0.8372 0.83575 0.13182 0.0
C600 C 0.84734 0.81884 0.1181 0.0
C601 C 0.85093 0.83849 0.14993 0.0
C602 C 0.83992 0.85458 0.16525 0.0
C603 C 0.80228 0.84168 0.1691 0.0
C604 C 0.79228 0.85892 0.18258 0.0
C605 C 0.81962 0.88815 0.19285 0.0
C606 C 0.85701 0.9002 0.18964 0.0
C607 C 0.86719 0.88363 0.17587 0.0
H608 H 0.81181 0.90127 0.20339 0.0
H609 H 0.9101 0.74421 0.06747 0.0
H610 H 0.95699 0.72566 0.62552 0.0
H611 H 0.02495 0.75673 0.62221 0.0
H612 H 0.02713 0.85779 0.6063 0.0
H613 H 0.9598 0.82688 0.60987 0.0
H614 H 0.08099 0.84879 0.58817 0.0
H615 H 0.03173 0.84158 0.65044 0.0
H616 H 0.99493 0.80621 0.67734 0.0
H617 H 0.05938 0.752 0.6816 0.0
H618 H 0.09622 0.78676 0.65454 0.0
H619 H 0.2081 0.00341 0.64901 0.0
H620 H 0.15372 0.94221 0.64465 0.0
H621 H 0.21667 0.91141 0.60904 0.0
H622 H 0.27183 0.97298 0.61373 0.0
H623 H 0.13708 0.86978 0.65023 0.0
H624 H 0.14944 0.8602 0.57254 0.0
H625 H 0.17789 0.89853 0.54492 0.0
H626 H 0.18311 0.99274 0.57189 0.0
H627 H 0.15429 0.95488 0.59956 0.0
C628 C 0.9721 0.75404 0.62062 0.0
C629 C 0.95366 0.77412 0.61788 0.0
C630 C 0.01074 0.77178 0.61881 0.0
C631 C 0.03105 0.80962 0.61411 0.0
C632 C 0.01203 0.82855 0.60982 0.0
C633 C 0.97369 0.81103 0.61188 0.0
C634 C 0.07181 0.83161 0.61647 0.0
C635 C 0.09365 0.85266 0.60161 0.0
C636 C 0.08816 0.83685 0.63404 0.0
C637 C 0.06636 0.81636 0.65039 0.0
C638 C 0.03787 0.82194 0.65707 0.0
C639 C 0.01703 0.80203 0.67233 0.0
C640 C 0.02474 0.77678 0.68114 0.0
C641 C 0.05338 0.77149 0.67473 0.0
C642 C 0.07423 0.79126 0.65943 0.0
C643 C 0.21064 0.98326 0.64066 0.0
C644 C 0.24408 0.99277 0.63174 0.0
C645 C 0.17958 0.94829 0.63817 0.0
C646 C 0.1811 0.92234 0.62645 0.0
C647 C 0.21495 0.93107 0.61814 0.0
C648 C 0.24641 0.96605 0.62092 0.0
C649 C 0.14609 0.88787 0.62201 0.0
C650 C 0.12522 0.86454 0.63654 0.0
C651 C 0.13051 0.88099 0.60417 0.0
C652 C 0.15028 0.90484 0.5882 0.0
C653 C 0.15693 0.88918 0.57261 0.0
C654 C 0.17288 0.91073 0.55691 0.0
C655 C 0.18206 0.94795 0.55662 0.0
C656 C 0.17591 0.96388 0.57213 0.0
C657 C 0.15989 0.94241 0.58785 0.0
H658 H 0.19407 0.96439 0.54437 0.0
H659 H 0.00858 0.76139 0.69296 0.0
H660 H 0.06553 0.89237 0.38279 0.0
H661 H 0.00275 0.88384 0.38276 0.0
H662 H 0.96072 0.77583 0.40765 0.0
H663 H 0.02314 0.78414 0.40713 0.0
H664 H 0.92484 0.77053 0.37716 0.0
H665 H 0.96063 0.84913 0.43039 0.0
H666 H -0.00025 0.90558 0.44847 0.0
H667 H 0.98079 0.9713 0.40914 0.0
H668 H 0.94196 0.91531 0.39068 0.0
H669 H 0.73743 0.7285 0.38932 0.0
H670 H 0.80073 0.73946 0.39207 0.0
H671 H 0.84323 0.84811 0.36788 0.0
H672 H 0.78031 0.83768 0.36557 0.0
H673 H 0.87878 0.8533 0.39844 0.0
H674 H 0.84474 0.77588 0.34485 0.0
H675 H 0.80616 0.72001 0.32629 0.0
H676 H 0.8226 0.65281 0.36577 0.0
H677 H 0.8609 0.70823 0.3847 0.0
C678 C 0.04297 0.86753 0.38884 0.0
C679 C 0.04876 0.83885 0.39495 0.0
C680 C 0.00717 0.86254 0.38878 0.0
C681 C 0.97699 0.82905 0.39511 0.0
C682 C 0.9835 0.80173 0.40257 0.0
C683 C 0.01906 0.80654 0.4024 0.0
C684 C 0.93835 0.82052 0.39206 0.0
C685 C 0.91459 0.78834 0.38209 0.0
C686 C 0.92537 0.84436 0.39795 0.0
C687 C 0.94866 0.87805 0.40906 0.0
C688 C 0.96504 0.87566 0.42551 0.0
C689 C 0.98712 0.90757 0.43585 0.0
C690 C 0.99283 0.94202 0.42993 0.0
C691 C 0.97638 0.94461 0.41369 0.0
C692 C 0.9543 0.91279 0.4033 0.0
C693 C 0.76023 0.75427 0.38415 0.0
C694 C 0.75405 0.78225 0.37726 0.0
C695 C 0.79639 0.76059 0.38577 0.0
C696 C 0.82673 0.7947 0.38022 0.0
C697 C 0.82029 0.82176 0.37239 0.0
C698 C 0.78431 0.81565 0.37097 0.0
C699 C 0.8653 0.80325 0.3836 0.0
C700 C 0.88904 0.83545 0.39358 0.0
C701 C 0.87836 0.77952 0.37766 0.0
C702 C 0.85539 0.74616 0.36628 0.0
C703 C 0.83989 0.74915 0.34965 0.0
C704 C 0.81812 0.71756 0.33905 0.0
C705 C 0.81185 0.68287 0.34487 0.0
C706 C 0.82743 0.6797 0.36129 0.0
C707 C 0.84921 0.71119 0.37195 0.0
H708 H 0.79499 0.65845 0.33664 0.0
H709 H 0.00993 0.96669 0.43795 0.0
H710 H 0.92376 0.78405 0.87392 0.0
H711 H 0.97745 0.84658 0.87657 0.0
H712 H 0.04751 0.79996 0.88771 0.0
H713 H 0.99405 0.73726 0.8849 0.0
H714 H 0.04791 0.85042 0.91477 0.0
H715 H 0.05861 0.84176 0.849 0.0
H716 H 0.03514 0.83169 0.81721 0.0
H717 H 0.01394 0.92222 0.82241 0.0
H718 H 0.03682 0.93249 0.85434 0.0
H719 H 0.23029 -0.0001 0.9127 0.0
H720 H 0.17029 0.94323 0.91052 0.0
H721 H 0.12167 0.00628 0.8895 0.0
H722 H 0.18214 0.06299 0.89101 0.0
H723 H 0.10495 0.95007 0.868 0.0
H724 H 0.09795 0.96399 0.93181 0.0
H725 H 0.11513 0.97351 0.96454 0.0
H726 H 0.12208 0.87397 0.96504 0.0
H727 H 0.10575 0.86422 0.9322 0.0
C728 C 0.95077 0.78713 0.87653 0.0
C729 C 0.95479 0.75583 0.87927 0.0
C730 C 0.98133 0.82282 0.87801 0.0
C731 C 0.01624 0.82768 0.88237 0.0
C732 C 0.02066 0.79656 0.88432 0.0
C733 C 0.9902 0.76085 0.88261 0.0
C734 C 0.04741 0.86501 0.88655 0.0
C735 C 0.06085 0.87218 0.90458 0.0
C736 C 0.0626 0.89368 0.87334 0.0
C737 C 0.04906 0.88764 0.85412 0.0
C738 C 0.04863 0.8593 0.84342 0.0
C739 C 0.03551 0.85361 0.82537 0.0
C740 C 0.02296 0.87623 0.81782 0.0
C741 C 0.02362 0.90468 0.82829 0.0
C742 C 0.0367 0.91047 0.84635 0.0
C743 C 0.20675 0.00175 0.90779 0.0
C744 C 0.21106 0.03583 0.90183 0.0
C745 C 0.17234 0.9694 0.90674 0.0
C746 C 0.14143 0.97052 0.8999 0.0
C747 C 0.14518 0.00481 0.89482 0.0
C748 C 0.1797 0.03725 0.89583 0.0
C749 C 0.10647 0.93541 0.89632 0.0
C750 C 0.09205 0.92858 0.87838 0.0
C751 C 0.08982 0.90717 0.90977 0.0
C752 C 0.10103 0.91363 0.92941 0.0
C753 C 0.10368 0.9444 0.9388 0.0
C754 C 0.11316 0.94978 0.95741 0.0
C755 C 0.1198 0.92443 0.96685 0.0
C756 C 0.11702 0.89365 0.9577 0.0
C757 C 0.10767 0.8882 0.93908 0.0
H758 H 0.12702 0.92859 0.98127 0.0
H759 H 0.0128 0.87178 0.80384 0.0
H760 H 0.22447 0.26007 0.37376 0.0
H761 H 0.26081 0.22832 0.37504 0.0
H762 H 0.18555 0.15312 0.4159 0.0
H763 H 0.14963 0.18511 0.41454 0.0
H764 H 0.25892 0.16682 0.41993 0.0
H765 H 0.16368 0.13339 0.3722 0.0
H766 H 0.13712 0.14903 0.34569 0.0
H767 H 0.23883 0.18751 0.31586 0.0
H768 H 0.26609 0.17243 0.34231 0.0
H769 H 0.18438 0.97558 0.39739 0.0
H770 H 0.19525 0.03862 0.40141 0.0
H771 H 0.29931 0.08275 0.37268 0.0
H772 H 0.28931 0.01962 0.36911 0.0
H773 H 0.23426 0.09889 0.36093 0.0
H774 H 0.31893 0.10927 0.40639 0.0
H775 H 0.34632 0.09655 0.4334 0.0
H776 H 0.26765 0.10421 0.46847 0.0
H777 H 0.23852 0.11516 0.4416 0.0
C778 C 0.21702 0.23787 0.38359 0.0
C779 C 0.18474 0.22485 0.39416 0.0
C780 C 0.23754 0.21973 0.38428 0.0
C781 C 0.22555 0.18817 0.39542 0.0
C782 C 0.19535 0.17755 0.40731 0.0
C783 C 0.17486 0.19568 0.40656 0.0
C784 C 0.23921 0.16202 0.39227 0.0
C785 C 0.25376 0.15189 0.40708 0.0
C786 C 0.23357 0.1437 0.37522 0.0
C787 C 0.21703 0.15222 0.35926 0.0
C788 C 0.18041 0.14537 0.36001 0.0
C789 C 0.16524 0.15412 0.34501 0.0
C790 C 0.18633 0.16938 0.32912 0.0
C791 C 0.22257 0.17578 0.32819 0.0
C792 C 0.23789 0.16713 0.34317 0.0
C793 C 0.20956 0.99866 0.39188 0.0
C794 C 0.23588 0.99274 0.3828 0.0
C795 C 0.21596 0.03462 0.39443 0.0
C796 C 0.24849 0.06517 0.38776 0.0
C797 C 0.27448 0.05943 0.3783 0.0
C798 C 0.26854 0.02345 0.37612 0.0
C799 C 0.25248 0.10235 0.3889 0.0
C800 C 0.24077 0.1144 0.37368 0.0
C801 C 0.26059 0.12215 0.40566 0.0
C802 C 0.27612 0.11257 0.4218 0.0
C803 C 0.30674 0.10727 0.41976 0.0
C804 C 0.32277 0.1006 0.4351 0.0
C805 C 0.30885 0.09974 0.45265 0.0
C806 C 0.27861 0.10518 0.45488 0.0
C807 C 0.26216 0.11136 0.43956 0.0
H808 H 0.32136 0.09467 0.46451 0.0
H809 H 0.17454 0.17616 0.31752 0.0
H810 H 0.26024 0.2624 0.88516 0.0
H811 H 0.19933 0.25701 0.88903 0.0
H812 H 0.14624 0.13968 0.87763 0.0
H813 H 0.20684 0.14472 0.87383 0.0
H814 H 0.11085 0.17538 0.86139 0.0
H815 H 0.1581 0.16434 0.92009 0.0
H816 H 0.20448 0.18449 0.94486 0.0
H817 H 0.19892 0.28405 0.95196 0.0
H818 H 0.15278 0.26468 0.92702 0.0
H819 H 0.93439 0.12601 0.89441 0.0
H820 H 0.9929 0.12604 0.89249 0.0
H821 H 0.0518 0.23998 0.9107 0.0
H822 H 0.99329 0.23951 0.91358 0.0
H823 H 0.08403 0.20393 0.92379 0.0
H824 H 0.04 0.21788 0.86473 0.0
H825 H 0.99451 0.19975 0.8396 0.0
H826 H 0.99555 0.09779 0.83261 0.0
H827 H 0.04071 0.11512 0.85789 0.0
C828 C 0.23557 0.23566 0.88303 0.0
C829 C 0.23819 0.20393 0.87931 0.0
C830 C 0.20089 0.23259 0.88538 0.0
C831 C 0.16852 0.19785 0.88389 0.0
C832 C 0.17101 0.16666 0.87891 0.0
C833 C 0.20561 0.16961 0.87675 0.0
C834 C 0.13216 0.19346 0.88866 0.0
C835 C 0.10476 0.18119 0.87507 0.0
C836 C 0.12469 0.20163 0.90646 0.0
C837 C 0.15226 0.21323 0.92155 0.0
C838 C 0.167 0.19069 0.92682 0.0
C839 C 0.19323 0.20196 0.94091 0.0
C840 C 0.20476 0.23561 0.94994 0.0
C841 C 0.19001 0.25802 0.94493 0.0
C842 C 0.16379 0.24689 0.93082 0.0
C843 C 0.95961 0.1507 0.89853 0.0
C844 C 0.95929 0.18305 0.90378 0.0
C845 C 0.99309 0.1508 0.89725 0.0
C846 C 0.02673 0.18336 0.90095 0.0
C847 C 0.02619 0.21469 0.90757 0.0
C848 C 0.99276 0.21449 0.90904 0.0
C849 C 0.0626 0.186 0.89648 0.0
C850 C 0.08999 0.19796 0.91012 0.0
C851 C 0.07022 0.17789 0.87866 0.0
C852 C 0.04343 0.16762 0.86332 0.0
C853 C 0.03035 0.1915 0.8579 0.0
C854 C 0.00465 0.18138 0.84363 0.0
C855 C 0.99207 0.14759 0.83454 0.0
C856 C 0.00527 0.12392 0.83968 0.0
C857 C 0.03093 0.13388 0.85397 0.0
H858 H 0.97216 0.1398 0.8235 0.0
H859 H 0.22501 0.24428 0.96087 0.0
H860 H 0.02304 0.21441 0.36091 0.0
H861 H 0.96464 0.15648 0.3631 0.0
H862 H 0.91799 0.21111 0.39459 0.0
H863 H 0.97752 0.26972 0.39274 0.0
H864 H 0.909 0.15113 0.41199 0.0
H865 H 0.88309 0.17424 0.35182 0.0
H866 H 0.89461 0.19249 0.31922 0.0
H867 H 0.91341 0.10191 0.30808 0.0
H868 H 0.90255 0.08339 0.34068 0.0
H869 H 0.73464 0.97815 0.40925 0.0
H870 H 0.78556 0.04253 0.40802 0.0
H871 H 0.85511 0.00618 0.38219 0.0
H872 H 0.80397 0.94151 0.38355 0.0
H873 H 0.84619 0.05964 0.36209 0.0
H874 H 0.87528 0.04037 0.42391 0.0
H875 H 0.86101 0.02261 0.45647 0.0
H876 H 0.83225 0.10743 0.46418 0.0
H877 H 0.84578 0.12532 0.43158 0.0
C878 C 2e-05 0.21438 0.36786 0.0
C879 C 0.00471 0.2464 0.37671 0.0
C880 C 0.96653 0.18123 0.36903 0.0
C881 C 0.93682 0.17941 0.37895 0.0
C882 C 0.9406 0.21198 0.38684 0.0
C883 C 0.97437 0.24545 0.38562 0.0
C884 C 0.90395 0.14257 0.38268 0.0
C885 C 0.89463 0.13139 0.40105 0.0
C886 C 0.88568 0.1166 0.36843 0.0
C887 C 0.89218 0.12754 0.34875 0.0
C888 C 0.88994 0.15835 0.34246 0.0
C889 C 0.89631 0.16872 0.32396 0.0
C890 C 0.90478 0.1484 0.31159 0.0
C891 C 0.90683 0.11762 0.31768 0.0
C892 C 0.90051 0.10713 0.33616 0.0
C893 C 0.7612 0.98394 0.40381 0.0
C894 C 0.76561 0.95517 0.39647 0.0
C895 C 0.79018 0.02059 0.40311 0.0
C896 C 0.82394 0.02902 0.39494 0.0
C897 C 0.82915 9e-05 0.38855 0.0
C898 C 0.80021 0.96327 0.38947 0.0
C899 C 0.85218 0.06813 0.39133 0.0
C900 C 0.86037 0.07961 0.37297 0.0
C901 C 0.86891 0.09443 0.40557 0.0
C902 C 0.86109 0.08387 0.42522 0.0
C903 C 0.86557 0.05501 0.43249 0.0
C904 C 0.85769 0.04497 0.45097 0.0
C905 C 0.84555 0.06375 0.46236 0.0
C906 C 0.84154 0.09282 0.45533 0.0
C907 C 0.84934 0.10294 0.43686 0.0
H908 H 0.8393 0.05581 0.47664 0.0
H909 H 0.90971 0.15648 0.29728 0.0
H910 H 0.86338 0.80328 0.8841 0.0
H911 H 0.86406 0.86166 0.87885 0.0
H912 H 0.75367 0.81369 0.90117 0.0
H913 H 0.75306 0.75562 0.90697 0.0
H914 H 0.76252 0.84828 0.86666 0.0
H915 H 0.82358 0.87377 0.92602 0.0
H916 H 0.872 0.87932 0.94741 0.0
H917 H 0.95621 0.96137 0.91244 0.0
H918 H 0.90827 0.95594 0.89071 0.0
H919 H 0.73491 0.00027 0.88144 0.0
H920 H 0.74052 0.94465 0.88167 0.0
H921 H 0.85745 0.01137 0.86978 0.0
H922 H 0.85223 0.06731 0.87041 0.0
H923 H 0.84963 0.96821 0.89621 0.0
H924 H 0.79152 0.94793 0.83787 0.0
H925 H 0.74541 0.94261 0.81504 0.0
H926 H 0.65913 0.85174 0.84526 0.0
H927 H 0.70463 0.85682 0.86843 0.0
C928 C 0.83952 0.80528 0.88826 0.0
C929 C 0.80803 0.77454 0.89588 0.0
C930 C 0.83989 0.83863 0.88512 0.0
C931 C 0.80881 0.84181 0.88952 0.0
C932 C 0.77777 0.81159 0.89751 0.0
C933 C 0.77747 0.77841 0.90078 0.0
C934 C 0.8081 0.8763 0.88549 0.0
C935 C 0.78131 0.87452 0.87321 0.0
C936 C 0.83361 0.91066 0.8935 0.0
C937 C 0.86237 0.91415 0.90665 0.0
C938 C 0.85244 0.89277 0.92282 0.0
C939 C 0.87979 0.89594 0.93502 0.0
C940 C 0.91717 0.92059 0.93126 0.0
C941 C 0.92726 0.94223 0.91532 0.0
C942 C 0.90001 0.93915 0.90307 0.0
C943 C 0.76164 0.00298 0.87848 0.0
C944 C 0.79312 0.03809 0.87591 0.0
C945 C 0.76484 0.97112 0.87856 0.0
C946 C 0.79939 0.97367 0.87559 0.0
C947 C 0.83053 0.00864 0.87218 0.0
C948 C 0.82748 0.04058 0.87244 0.0
C949 C 0.80351 0.94034 0.87752 0.0
C950 C 0.831 0.94223 0.88942 0.0
C951 C 0.77899 0.90618 0.86889 0.0
C952 C 0.75149 0.90296 0.85497 0.0
C953 C 0.76267 0.92698 0.83973 0.0
C954 C 0.73664 0.92398 0.82671 0.0
C955 C 0.69935 0.8969 0.82872 0.0
C956 C 0.68802 0.87271 0.84373 0.0
C957 C 0.71393 0.87561 0.85679 0.0
H958 H 0.67925 0.89463 0.81862 0.0
H959 H 0.93831 0.92299 0.94071 0.0
H960 H 0.04885 0.65096 0.12232 0.0
H961 H 0.05117 0.59307 0.12053 0.0
H962 H 0.1689 0.65474 0.13111 0.0
H963 H 0.1669 0.71208 0.13217 0.0
H964 H 0.1573 0.61227 0.1036 0.0
H965 H 0.10195 0.59524 0.16352 0.0
H966 H 0.05516 0.58987 0.18594 0.0
H967 H 0.9705 0.49633 0.15657 0.0
H968 H 0.01675 0.50146 0.13382 0.0
H969 H 0.19879 0.47119 0.12395 0.0
H970 H 0.18611 0.52218 0.12827 0.0
H971 H 0.07558 0.45362 0.10704 0.0
H972 H 0.088 0.40243 0.10284 0.0
H973 H 0.07884 0.49612 0.13836 0.0
H974 H 0.13702 0.51319 0.0792 0.0
H975 H 0.1856 0.51877 0.05793 0.0
H976 H 0.26734 0.61377 0.08761 0.0
H977 H 0.21931 0.60842 0.10924 0.0
C978 C 0.07504 0.6519 0.12444 0.0
C979 C 0.10772 0.68599 0.12721 0.0
C980 C 0.07638 0.61886 0.12347 0.0
C981 C 0.11028 0.61947 0.12567 0.0
C982 C 0.1425 0.65347 0.12915 0.0
C983 C 0.14129 0.68628 0.1298 0.0
C984 C 0.11325 0.58547 0.12347 0.0
C985 C 0.14035 0.58708 0.11141 0.0
C986 C 0.09055 0.5521 0.13322 0.0
C987 C 0.06273 0.54901 0.14686 0.0
C988 C 0.0733 0.57373 0.16176 0.0
C989 C 0.04689 0.57069 0.17454 0.0
C990 C 0.00986 0.54286 0.17265 0.0
C991 C -0.00082 0.51793 0.15799 0.0
C992 C 0.02548 0.52087 0.14516 0.0
C993 C 0.17167 0.46685 0.12042 0.0
C994 C 0.14453 0.43293 0.1129 0.0
C995 C 0.16449 0.49601 0.12282 0.0
C996 C 0.12999 0.49173 0.11784 0.0
C997 C 0.10239 0.45749 0.11094 0.0
C998 C 0.10966 0.42843 0.10838 0.0
C999 C 0.12349 0.52362 0.11895 0.0
C1000 C 0.09565 0.52143 0.13063 0.0
C1001 C 0.14576 0.55671 0.10903 0.0
C1002 C 0.17462 0.56019 0.09593 0.0
C1003 C 0.1654 0.5351 0.08127 0.0
C1004 C 0.19283 0.53825 0.06914 0.0
C1005 C 0.22955 0.56655 0.07144 0.0
C1006 C 0.23889 0.59183 0.08586 0.0
C1007 C 0.21157 0.58878 0.09804 0.0
H1008 H 0.25074 0.56894 0.06204 0.0
H1009 H 0.98945 0.54054 0.18256 0.0
H1010 H 0.80156 0.27383 0.6269 0.0
H1011 H 0.73803 0.26332 0.62639 0.0
H1012 H 0.69755 0.15079 0.60822 0.0
H1013 H 0.76031 0.16107 0.60847 0.0
H1014 H 0.66218 0.18106 0.59099 0.0
H1015 H 0.69952 0.17235 0.65318 0.0
H1016 H 0.73949 0.19759 0.68048 0.0
H1017 H 0.70964 0.28216 0.68532 0.0
H1018 H 0.67031 0.25808 0.6577 0.0
H1019 H 0.48332 0.06216 0.62314 0.0
H1020 H 0.55079 0.0955 0.62126 0.0
H1021 H 0.55351 0.199 0.63097 0.0
H1022 H 0.48593 0.16627 0.63219 0.0
H1023 H 0.60922 0.18672 0.65115 0.0
H1024 H 0.56463 0.18825 0.59055 0.0
H1025 H 0.52421 0.16028 0.56362 0.0
H1026 H 0.56682 0.08605 0.55657 0.0
H1027 H 0.60708 0.1132 0.58365 0.0
C1028 C 0.77913 0.24713 0.62247 0.0
C1029 C 0.78581 0.21816 0.61789 0.0
C1030 C 0.74292 0.24113 0.62226 0.0
C1031 C 0.7131 0.20614 0.61747 0.0
C1032 C 0.72013 0.17799 0.61195 0.0
C1033 C 0.75606 0.18388 0.6122 0.0
C1034 C 0.67413 0.19723 0.61937 0.0
C1035 C 0.65066 0.18248 0.60412 0.0
C1036 C 0.65924 0.1997 0.63646 0.0
C1037 C 0.68237 0.21373 0.65324 0.0
C1038 C 0.70171 0.19651 0.65998 0.0
C1039 C 0.72422 0.21057 0.67552 0.0
C1040 C 0.72709 0.24143 0.68463 0.0
C1041 C 0.70744 0.25829 0.67823 0.0
C1042 C 0.6851 0.24451 0.66261 0.0
C1043 C 0.49807 0.09198 0.62485 0.0
C1044 C 0.47887 0.1114 0.62757 0.0
C1045 C 0.53667 0.11096 0.6239 0.0
C1046 C 0.55691 0.14966 0.62582 0.0
C1047 C 0.53823 0.16908 0.62948 0.0
C1048 C 0.49951 0.15017 0.63023 0.0
C1049 C 0.59741 0.16963 0.6229 0.0
C1050 C 0.621 0.18631 0.63793 0.0
C1051 C 0.61247 0.16867 0.60566 0.0
C1052 C 0.58869 0.15261 0.5892 0.0
C1053 C 0.56519 0.16578 0.58334 0.0
C1054 C 0.54233 0.1501 0.56803 0.0
C1055 C 0.5429 0.12136 0.55841 0.0
C1056 C 0.5664 0.10831 0.56404 0.0
C1057 C 0.58928 0.12387 0.57935 0.0
H1058 H 0.52517 0.10924 0.54657 0.0
H1059 H 0.74451 0.25225 0.69667 0.0
H1060 H 0.51439 0.73034 0.12298 0.0
H1061 H 0.46494 0.66654 0.12899 0.0
H1062 H 0.53351 0.6252 0.10683 0.0
H1063 H 0.58228 0.68881 0.10029 0.0
H1064 H 0.46752 0.5853 0.09442 0.0
H1065 H 0.51827 0.62686 0.154 0.0
H1066 H 0.54026 0.66873 0.18075 0.0
H1067 H 0.43086 0.65199 0.18886 0.0
H1068 H 0.4083 0.61045 0.16197 0.0
H1069 H 0.3447 0.40103 0.12782 0.0
H1070 H 0.40133 0.46228 0.12672 0.0
H1071 H 0.33554 0.5153 0.13241 0.0
H1072 H 0.27908 0.45459 0.1331 0.0
H1073 H 0.40389 0.54635 0.15474 0.0
H1074 H 0.35704 0.50907 0.09231 0.0
H1075 H 0.33683 0.46571 0.06613 0.0
H1076 H 0.44323 0.47279 0.06479 0.0
H1077 H 0.46385 0.51577 0.09117 0.0
C1078 C 0.51879 0.70753 0.11949 0.0
C1079 C 0.55197 0.71431 0.11117 0.0
C1080 C 0.49069 0.67115 0.12299 0.0
C1081 C 0.49574 0.64105 0.11862 0.0
C1082 C 0.52896 0.64792 0.1103 0.0
C1083 C 0.55674 0.68421 0.10653 0.0
C1084 C 0.46602 0.60234 0.12225 0.0
C1085 C 0.45414 0.57671 0.10773 0.0
C1086 C 0.44832 0.59104 0.13957 0.0
C1087 C 0.46166 0.61576 0.15587 0.0
C1088 C 0.49894 0.63229 0.16141 0.0
C1089 C 0.51151 0.65595 0.17661 0.0
C1090 C 0.48699 0.66307 0.18648 0.0
C1091 C 0.44982 0.64647 0.1812 0.0
C1092 C 0.43712 0.62283 0.16599 0.0
C1093 C 0.34247 0.42579 0.12905 0.0
C1094 C 0.30763 0.42321 0.13038 0.0
C1095 C 0.3747 0.46061 0.12842 0.0
C1096 C 0.37238 0.49308 0.12947 0.0
C1097 C 0.33776 0.49047 0.13165 0.0
C1098 C 0.30561 0.45583 0.13191 0.0
C1099 C 0.40553 0.52994 0.12691 0.0
C1100 C 0.41785 0.55509 0.14157 0.0
C1101 C 0.42407 0.54068 0.10984 0.0
C1102 C 0.41182 0.51525 0.09384 0.0
C1103 C 0.376 0.50112 0.08653 0.0
C1104 C 0.36449 0.47666 0.07164 0.0
C1105 C 0.38869 0.4664 0.06384 0.0
C1106 C 0.42449 0.4807 0.07087 0.0
C1107 C 0.43611 0.50512 0.08578 0.0
H1108 H 0.37973 0.44745 0.05232 0.0
H1109 H 0.49678 0.68141 0.19824 0.0
H1110 H 0.86332 0.63011 0.61736 0.0
H1111 H 0.88332 0.58434 0.61847 0.0
H1112 H 0.76956 0.49636 0.62283 0.0
H1113 H 0.74898 0.54236 0.62186 0.0
H1114 H 0.87139 0.53601 0.64737 0.0
H1115 H 0.76788 0.41968 0.60043 0.0
H1116 H 0.72745 0.41101 0.5739 0.0
H1117 H 0.80195 0.52272 0.5562 0.0
H1118 H 0.84303 0.53187 0.58247 0.0
H1119 H 0.88647 0.37144 0.65478 0.0
H1120 H 0.86149 0.41373 0.6534 0.0
H1121 H 0.91637 0.45615 0.60146 0.0
H1122 H 0.94126 0.41395 0.60275 0.0
H1123 H 0.84102 0.43689 0.60142 0.0
H1124 H 0.95184 0.50671 0.638 0.0
H1125 H 0.9934 0.51695 0.66419 0.0
H1126 H 0.90737 0.50158 0.70174 0.0
H1127 H 0.86509 0.49067 0.67576 0.0
C1128 C 0.84236 0.60103 0.61838 0.0
C1129 C 0.80449 0.5899 0.61959 0.0
C1130 C 0.85394 0.57493 0.6191 0.0
C1131 C 0.82798 0.53707 0.62084 0.0
C1132 C 0.79001 0.52553 0.62144 0.0
C1133 C 0.77832 0.5518 0.62085 0.0
C1134 C 0.84128 0.51019 0.62258 0.0
C1135 C 0.86454 0.51416 0.63739 0.0
C1136 C 0.8324 0.48183 0.60953 0.0
C1137 C 0.80827 0.47655 0.59353 0.0
C1138 C 0.77567 0.44234 0.59084 0.0
C1139 C 0.75264 0.43735 0.57585 0.0
C1140 C 0.76206 0.46634 0.56341 0.0
C1141 C 0.7946 0.50034 0.56589 0.0
C1142 C 0.81774 0.50546 0.58084 0.0
C1143 C 0.89338 0.39 0.64316 0.0
C1144 C 0.91597 0.38954 0.62893 0.0
C1145 C 0.87913 0.41409 0.64238 0.0
C1146 C 0.88703 0.43794 0.6273 0.0
C1147 C 0.90989 0.43785 0.61318 0.0
C1148 C 0.92446 0.41407 0.61405 0.0
C1149 C 0.87137 0.46294 0.62614 0.0
C1150 C 0.84753 0.45849 0.6115 0.0
C1151 C 0.87978 0.49097 0.63933 0.0
C1152 C 0.90516 0.4974 0.65494 0.0
C1153 C 0.94166 0.50512 0.65185 0.0
C1154 C 0.96537 0.51113 0.66665 0.0
C1155 C 0.95299 0.50978 0.68462 0.0
C1156 C 0.91689 0.50252 0.68782 0.0
C1157 C 0.89305 0.49643 0.67306 0.0
H1158 H 0.97141 0.51447 0.69607 0.0
H1159 H 0.74418 0.46243 0.55183 0.0
H1160 H 0.54958 0.83793 0.14841 0.0
H1161 H 0.48877 0.83321 0.14803 0.0
H1162 H 0.53665 0.9413 0.12258 0.0
H1163 H 0.59829 0.94684 0.12386 0.0
H1164 H 0.47916 0.92861 0.1452 0.0
H1165 H 0.49987 0.8633 0.09627 0.0
H1166 H 0.51861 0.81993 0.08395 0.0
H1167 H 0.43089 0.7303 0.11414 0.0
H1168 H 0.41193 0.77327 0.12685 0.0
H1169 H 0.31542 0.89788 0.09912 0.0
H1170 H 0.37788 0.91028 0.10631 0.0
H1171 H 0.3319 0.80444 0.13383 0.0
H1172 H 0.26923 0.79153 0.12634 0.0
H1173 H 0.38858 0.81704 0.1105 0.0
H1174 H 0.36633 0.88242 0.15847 0.0
H1175 H 0.34845 0.92628 0.17096 0.0
H1176 H 0.43894 0.01612 0.14224 0.0
H1177 H 0.45702 0.97266 0.12932 0.0
C1178 C 0.54722 0.86109 0.1432 0.0
C1179 C 0.57828 0.8926 0.13601 0.0
C1180 C 0.51252 0.85832 0.14291 0.0
C1181 C 0.50801 0.88641 0.13477 0.0
C1182 C 0.53951 0.91919 0.1288 0.0
C1183 C 0.57461 0.92237 0.12953 0.0
C1184 C 0.47018 0.8796 0.13081 0.0
C1185 C 0.45947 0.90449 0.13744 0.0
C1186 C 0.44433 0.84779 0.12087 0.0
C1187 C 0.45464 0.82156 0.11261 0.0
C1188 C 0.4846 0.83435 0.1003 0.0
C1189 C 0.49529 0.80985 0.09326 0.0
C1190 C 0.476 0.7724 0.09829 0.0
C1191 C 0.44581 0.75933 0.11027 0.0
C1192 C 0.43505 0.78373 0.11737 0.0
C1193 C 0.31857 0.87711 0.10658 0.0
C1194 C 0.28736 0.84365 0.11212 0.0
C1195 C 0.35428 0.88441 0.11084 0.0
C1196 C 0.35949 0.85844 0.12075 0.0
C1197 C 0.32844 0.82492 0.12623 0.0
C1198 C 0.29268 0.81767 0.12204 0.0
C1199 C 0.39738 0.86588 0.12501 0.0
C1200 C 0.40819 0.84114 0.11831 0.0
C1201 C 0.42324 0.89789 0.13478 0.0
C1202 C 0.41282 0.9242 0.14278 0.0
C1203 C 0.38227 0.91148 0.1547 0.0
C1204 C 0.37211 0.93628 0.16188 0.0
C1205 C 0.39248 0.97395 0.15735 0.0
C1206 C 0.42315 0.98692 0.14571 0.0
C1207 C 0.43339 0.96222 0.13847 0.0
H1208 H 0.38454 0.99309 0.1629 0.0
H1209 H 0.48441 0.75351 0.09289 0.0
H1210 H 0.56762 0.524 0.62866 0.0
H1211 H 0.52277 0.45778 0.62842 0.0
H1212 H 0.61192 0.43338 0.62739 0.0
H1213 H 0.65713 0.49988 0.62684 0.0
H1214 H 0.56047 0.39141 0.60326 0.0
H1215 H 0.55976 0.4201 0.6665 0.0
H1216 H 0.5558 0.45414 0.69328 0.0
H1217 H 0.44502 0.42527 0.67799 0.0
H1218 H 0.4485 0.39147 0.65095 0.0
H1219 H 0.44287 0.19861 0.62241 0.0
H1220 H 0.49057 0.26408 0.62342 0.0
H1221 H 0.40613 0.29512 0.62162 0.0
H1222 H 0.35804 0.22949 0.62086 0.0
H1223 H 0.457 0.33284 0.648 0.0
H1224 H 0.4599 0.30523 0.5839 0.0
H1225 H 0.46474 0.26984 0.55796 0.0
H1226 H 0.57302 0.29539 0.57615 0.0
H1227 H 0.56864 0.33059 0.60234 0.0
C1228 C 0.57781 0.50466 0.62832 0.0
C1229 C 0.61611 0.51747 0.6277 0.0
C1230 C 0.55206 0.46668 0.62839 0.0
C1231 C 0.56389 0.44046 0.62809 0.0
C1232 C 0.60209 0.45305 0.62768 0.0
C1233 C 0.62795 0.49115 0.62755 0.0
C1234 C 0.53625 0.40003 0.62756 0.0
C1235 C 0.5382 0.37851 0.61323 0.0
C1236 C 0.50674 0.3832 0.64035 0.0
C1237 C 0.50453 0.40353 0.6566 0.0
C1238 C 0.53466 0.42126 0.66876 0.0
C1239 C 0.53248 0.44047 0.684 0.0
C1240 C 0.50021 0.44194 0.68731 0.0
C1241 C 0.47002 0.42414 0.6754 0.0
C1242 C 0.47206 0.40492 0.66012 0.0
C1243 C 0.43436 0.21931 0.62206 0.0
C1244 C 0.39657 0.20876 0.62151 0.0
C1245 C 0.46174 0.2568 0.62259 0.0
C1246 C 0.45199 0.28458 0.62246 0.0
C1247 C 0.41431 0.27416 0.62173 0.0
C1248 C 0.38686 0.23664 0.6212 0.0
C1249 C 0.48101 0.32445 0.62359 0.0
C1250 C 0.47934 0.34581 0.63807 0.0
C1251 C 0.51093 0.34102 0.61103 0.0
C1252 C 0.5138 0.32027 0.59516 0.0
C1253 C 0.48464 0.30311 0.58243 0.0
C1254 C 0.48732 0.28312 0.56767 0.0
C1255 C 0.51913 0.28029 0.56543 0.0
C1256 C 0.54839 0.29757 0.57791 0.0
C1257 C 0.54584 0.31759 0.5927 0.0
H1258 H 0.52114 0.26477 0.55401 0.0
H1259 H 0.49858 0.45682 0.69912 0.0
H1260 H 0.35926 0.87398 0.35995 0.0
H1261 H 0.39422 0.8415 0.36365 0.0
H1262 H 0.4458 0.90551 0.4124 0.0
H1263 H 0.41078 0.93767 0.40893 0.0
H1264 H 0.49513 0.90387 0.38991 0.0
H1265 H 0.37625 0.81481 0.41473 0.0
H1266 H 0.30907 0.77034 0.41588 0.0
H1267 H 0.3197 0.70851 0.37148 0.0
H1268 H 0.38683 0.75297 0.36982 0.0
H1269 H 0.58744 0.81594 0.42158 0.0
H1270 H 0.54053 0.83474 0.42116 0.0
H1271 H 0.48826 0.76364 0.37445 0.0
H1272 H 0.5343 0.7433 0.37549 0.0
H1273 H 0.43777 0.7671 0.39508 0.0
H1274 H 0.55518 0.85822 0.36871 0.0
H1275 H 0.62246 0.90249 0.36741 0.0
H1276 H 0.61392 0.95986 0.41447 0.0
H1277 H 0.54659 0.91608 0.41598 0.0
C1278 C 0.37805 0.88111 0.37145 0.0
C1279 C 0.38225 0.90846 0.38413 0.0
C1280 C 0.39779 0.86236 0.37361 0.0
C1281 C 0.42204 0.87065 0.38849 0.0
C1282 C 0.42703 0.89858 0.40088 0.0
C1283 C 0.40731 0.91728 0.39875 0.0
C1284 C 0.44386 0.85176 0.39071 0.0
C1285 C 0.4825 0.87398 0.39129 0.0
C1286 C 0.42736 0.81266 0.39188 0.0
C1287 C 0.38658 0.78746 0.39205 0.0
C1288 C 0.3642 0.79211 0.40501 0.0
C1289 C 0.32613 0.76678 0.4058 0.0
C1290 C 0.31021 0.73652 0.39382 0.0
C1291 C 0.33213 0.7319 0.38079 0.0
C1292 C 0.37016 0.75717 0.3799 0.0
C1293 C 0.56512 0.80337 0.41166 0.0
C1294 C 0.56436 0.7784 0.39852 0.0
C1295 C 0.53863 0.81442 0.41128 0.0
C1296 C 0.51179 0.80164 0.39734 0.0
C1297 C 0.50902 0.77414 0.38519 0.0
C1298 C 0.53512 0.76238 0.38585 0.0
C1299 C 0.48892 0.81933 0.39456 0.0
C1300 C 0.45024 0.79696 0.39371 0.0
C1301 C 0.50526 0.85836 0.39303 0.0
C1302 C 0.54595 0.88373 0.39254 0.0
C1303 C 0.56774 0.88006 0.37888 0.0
C1304 C 0.60586 0.90513 0.37808 0.0
C1305 C 0.62246 0.93387 0.3909 0.0
C1306 C 0.60102 0.93757 0.40456 0.0
C1307 C 0.56289 0.91273 0.40536 0.0
H1308 H 0.65186 0.9535 0.3902 0.0
H1309 H 0.28092 0.71648 0.39467 0.0
H1310 H 0.74838 0.57709 0.91809 0.0
H1311 H 0.68576 0.52396 0.91447 0.0
H1312 H 0.72421 0.48175 0.87081 0.0
H1313 H 0.78726 0.53428 0.87476 0.0
H1314 H 0.66513 0.49862 0.86183 0.0
H1315 H 0.69081 0.42479 0.90156 0.0
H1316 H 0.71446 0.40805 0.92877 0.0
H1317 H 0.64189 0.42654 0.96344 0.0
H1318 H 0.61774 0.44339 0.93637 0.0
H1319 H 0.4767 0.34562 0.85208 0.0
H1320 H 0.54448 0.38295 0.85441 0.0
H1321 H 0.53368 0.43534 0.90324 0.0
H1322 H 0.46618 0.39816 0.901 0.0
H1323 H 0.58124 0.40494 0.90711 0.0
H1324 H 0.55957 0.48328 0.86536 0.0
H1325 H 0.53599 0.4965 0.83695 0.0
H1326 H 0.60276 0.46599 0.80462 0.0
H1327 H 0.62635 0.45209 0.83286 0.0
C1328 C 0.74371 0.55581 0.90816 0.0
C1329 C 0.77255 0.55971 0.89672 0.0
C1330 C 0.70801 0.52552 0.9061 0.0
C1331 C 0.70051 0.49912 0.89234 0.0
C1332 C 0.72962 0.50183 0.88155 0.0
C1333 C 0.76558 0.53169 0.8839 0.0
C1334 C 0.66158 0.47211 0.88779 0.0
C1335 C 0.64685 0.47748 0.87151 0.0
C1336 C 0.63792 0.445 0.90053 0.0
C1337 C 0.65277 0.43575 0.91696 0.0
C1338 C 0.68018 0.42569 0.91501 0.0
C1339 C 0.69359 0.41606 0.9304 0.0
C1340 C 0.67987 0.41646 0.94785 0.0
C1341 C 0.65256 0.42632 0.94992 0.0
C1342 C 0.6389 0.4358 0.93454 0.0
C1343 C 0.4889 0.36556 0.86312 0.0
C1344 C 0.46622 0.36911 0.87631 0.0
C1345 C 0.52749 0.38677 0.86445 0.0
C1346 C 0.54394 0.41167 0.87906 0.0
C1347 C 0.5214 0.41613 0.89191 0.0
C1348 C 0.48287 0.39523 0.89048 0.0
C1349 C 0.58463 0.43224 0.88141 0.0
C1350 C 0.5996 0.42565 0.8973 0.0
C1351 C 0.60857 0.45789 0.86816 0.0
C1352 C 0.59435 0.46619 0.85121 0.0
C1353 C 0.56893 0.47903 0.85219 0.0
C1354 C 0.55563 0.48673 0.83612 0.0
C1355 C 0.56777 0.48196 0.81899 0.0
C1356 C 0.59332 0.46959 0.8179 0.0
C1357 C 0.60667 0.46181 0.83393 0.0
H1358 H 0.55746 0.48795 0.80657 0.0
H1359 H 0.69032 0.409 0.95976 0.0
H1360 H 0.15741 0.76632 0.4036 0.0
H1361 H 0.1456 0.70266 0.40368 0.0
H1362 H 0.24885 0.73822 0.37522 0.0
H1363 H 0.26148 0.80243 0.37563 0.0
H1364 H 0.19165 0.6767 0.35989 0.0
H1365 H 0.24164 0.71445 0.41989 0.0
H1366 H 0.24903 0.74232 0.45052 0.0
H1367 H 0.13656 0.66139 0.46384 0.0
H1368 H 0.12834 0.63334 0.43315 0.0
H1369 H 0.15693 0.49056 0.36961 0.0
H1370 H 0.18633 0.55797 0.37039 0.0
H1371 H 0.09533 0.54918 0.40255 0.0
H1372 H 0.06678 0.48207 0.40278 0.0
H1373 H 0.15849 0.60017 0.41651 0.0
H1374 H 0.10561 0.56933 0.3553 0.0
H1375 H 0.09674 0.54192 0.3244 0.0
H1376 H 0.21319 0.61006 0.31347 0.0
H1377 H 0.2228 0.63757 0.34441 0.0
C1378 C 0.17791 0.76067 0.39764 0.0
C1379 C 0.2105 0.78928 0.38976 0.0
C1380 C 0.1712 0.72434 0.39775 0.0
C1381 C 0.19679 0.71587 0.38985 0.0
C1382 C 0.22924 0.74434 0.3818 0.0
C1383 C 0.23637 0.78094 0.38203 0.0
C1384 C 0.18843 0.67687 0.3894 0.0
C1385 C 0.18515 0.66007 0.37228 0.0
C1386 C 0.17949 0.6552 0.40558 0.0
C1387 C 0.18436 0.67188 0.42413 0.0
C1388 C 0.21842 0.70271 0.42928 0.0
C1389 C 0.22276 0.71854 0.44668 0.0
C1390 C 0.19326 0.70366 0.45911 0.0
C1391 C 0.15939 0.67289 0.45419 0.0
C1392 C 0.1549 0.65698 0.4368 0.0
C1393 C 0.14318 0.50278 0.377 0.0
C1394 C 0.10933 0.48046 0.38619 0.0
C1395 C 0.15995 0.54148 0.37726 0.0
C1396 C 0.14292 0.55865 0.38642 0.0
C1397 C 0.10903 0.53654 0.39541 0.0
C1398 C 0.09247 0.49796 0.39533 0.0
C1399 C 0.16027 0.59965 0.38695 0.0
C1400 C 0.16549 0.61687 0.40412 0.0
C1401 C 0.17078 0.62164 0.37082 0.0
C1402 C 0.16498 0.60516 0.35223 0.0
C1403 C 0.12935 0.57825 0.34635 0.0
C1404 C 0.12419 0.56274 0.32883 0.0
C1405 C 0.1544 0.57415 0.317 0.0
C1406 C 0.18983 0.60119 0.32266 0.0
C1407 C 0.19515 0.61676 0.34018 0.0
H1408 H 0.15034 0.56211 0.30344 0.0
H1409 H 0.19667 0.71595 0.47258 0.0
H1410 H 0.58444 0.0537 0.89125 0.0
H1411 H 0.5436 0.07982 0.89209 0.0
H1412 H 0.61658 0.16725 0.8552 0.0
H1413 H 0.65733 0.14076 0.85393 0.0
H1414 H 0.59986 0.19463 0.88561 0.0
H1415 H 0.53427 0.10458 0.8398 0.0
H1416 H 0.50407 0.04326 0.82481 0.0
H1417 H 0.42559 0.9977 0.86902 0.0
H1418 H 0.45563 0.05865 0.88442 0.0
H1419 H 0.46068 0.25178 0.87855 0.0
H1420 H 0.50986 0.23661 0.87383 0.0
H1421 H 0.45204 0.14106 0.90917 0.0
H1422 H 0.40276 0.15563 0.9137 0.0
H1423 H 0.46413 0.12301 0.87504 0.0
H1424 H 0.53483 0.21581 0.92139 0.0
H1425 H 0.56515 0.27888 0.93452 0.0
H1426 H 0.63422 0.32161 0.88671 0.0
H1427 H 0.60395 0.25882 0.87318 0.0
C1428 C 0.5914 0.07784 0.8829 0.0
C1429 C 0.62441 0.09526 0.87264 0.0
C1430 C 0.56809 0.09291 0.88348 0.0
C1431 C 0.5772 0.12557 0.87377 0.0
C1432 C 0.60926 0.14221 0.86292 0.0
C1433 C 0.63249 0.12702 0.86223 0.0
C1434 C 0.55404 0.14311 0.87583 0.0
C1435 C 0.57025 0.17926 0.88301 0.0
C1436 C 0.5155 0.12299 0.87247 0.0
C1437 C 0.49743 0.08615 0.86335 0.0
C1438 C 0.51078 0.08141 0.84642 0.0
C1439 C 0.49364 0.04673 0.83782 0.0
C1440 C 0.46298 0.01658 0.84597 0.0
C1441 C 0.44936 0.02107 0.86273 0.0
C1442 C 0.46641 0.0557 0.87138 0.0
C1443 C 0.45911 0.22824 0.88577 0.0
C1444 C 0.42774 0.20461 0.89634 0.0
C1445 C 0.48716 0.21957 0.88302 0.0
C1446 C 0.48431 0.18749 0.891 0.0
C1447 C 0.45453 0.16573 0.90275 0.0
C1448 C 0.42648 0.17418 0.90539 0.0
C1449 C 0.5096 0.17384 0.88559 0.0
C1450 C 0.49377 0.13849 0.87756 0.0
C1451 C 0.54845 0.19495 0.88796 0.0
C1452 C 0.56681 0.23265 0.89618 0.0
C1453 C 0.55625 0.23869 0.9136 0.0
C1454 C 0.57348 0.27439 0.92113 0.0
C1455 C 0.60151 0.30426 0.91143 0.0
C1456 C 0.61246 0.29846 0.8942 0.0
C1457 C 0.5953 0.26281 0.8866 0.0
H1458 H 0.6148 0.33189 0.91727 0.0
H1459 H 0.44974 0.98976 0.83929 0.0
H1460 H 0.20719 0.44964 0.3976 0.0
H1461 H 0.27344 0.4959 0.39725 0.0
H1462 H 0.29996 0.4082 0.39399 0.0
H1463 H 0.23428 0.36204 0.39496 0.0
H1464 H 0.34747 0.46157 0.41576 0.0
H1465 H 0.29332 0.45537 0.35602 0.0
H1466 H 0.24818 0.45952 0.33567 0.0
H1467 H 0.29354 0.57431 0.34982 0.0
H1468 H 0.33788 0.57049 0.3709 0.0
H1469 H 0.53182 0.56362 0.38241 0.0
H1470 H 0.46529 0.51859 0.38447 0.0
H1471 H 0.44177 0.60841 0.38665 0.0
H1472 H 0.5076 0.65315 0.38452 0.0
H1473 H 0.39253 0.55506 0.36566 0.0
H1474 H 0.44333 0.56268 0.42566 0.0
H1475 H 0.48592 0.56032 0.44844 0.0
H1476 H 0.44666 0.44615 0.4349 0.0
H1477 H 0.40418 0.44799 0.41184 0.0
C1478 C 0.22719 0.44025 0.3971 0.0
C1479 C 0.21545 0.40218 0.39615 0.0
C1480 C 0.26502 0.4667 0.3968 0.0
C1481 C 0.29165 0.45552 0.3952 0.0
C1482 C 0.27996 0.41752 0.39514 0.0
C1483 C 0.2423 0.39113 0.39565 0.0
C1484 C 0.3316 0.48305 0.39271 0.0
C1485 C 0.35734 0.48175 0.40468 0.0
C1486 C 0.34443 0.50995 0.37848 0.0
C1487 C 0.31874 0.51254 0.3652 0.0
C1488 C 0.29357 0.48146 0.35488 0.0
C1489 C 0.2681 0.48373 0.34322 0.0
C1490 C 0.26812 0.51717 0.34139 0.0
C1491 C 0.29357 0.54841 0.35125 0.0
C1492 C 0.31878 0.54618 0.36311 0.0
C1493 C 0.5124 0.57367 0.38323 0.0
C1494 C 0.52514 0.61199 0.38323 0.0
C1495 C 0.47442 0.54797 0.38444 0.0
C1496 C 0.44853 0.56014 0.38593 0.0
C1497 C 0.46114 0.59832 0.38543 0.0
C1498 C 0.49895 0.62393 0.38412 0.0
C1499 C 0.40841 0.53338 0.38864 0.0
C1500 C 0.38265 0.53482 0.37671 0.0
C1501 C 0.39547 0.50683 0.40299 0.0
C1502 C 0.42087 0.50559 0.41689 0.0
C1503 C 0.44399 0.53715 0.42744 0.0
C1504 C 0.46807 0.5359 0.44042 0.0
C1505 C 0.46907 0.50313 0.44308 0.0
C1506 C 0.4459 0.47153 0.4328 0.0
C1507 C 0.4218 0.47265 0.41979 0.0
H1508 H 0.48773 0.50222 0.45313 0.0
H1509 H 0.24839 0.51886 0.33235 0.0
H1510 H 0.83605 0.51341 0.87958 0.0
H1511 H 0.81051 0.44708 0.88333 0.0
H1512 H 0.9197 0.46089 0.87757 0.0
H1513 H 0.94585 0.52816 0.87348 0.0
H1514 H 0.85987 0.39523 0.85946 0.0
H1515 H 0.89273 0.45757 0.91801 0.0
H1516 H 0.89305 0.50022 0.94158 0.0
H1517 H 0.77456 0.43503 0.94588 0.0
H1518 H 0.77341 0.39239 0.92198 0.0
H1519 H 0.83081 0.24171 0.92064 0.0
H1520 H 0.84452 0.30603 0.91897 0.0
H1521 H 0.75465 0.27398 0.88064 0.0
H1522 H 0.74034 0.20932 0.88246 0.0
H1523 H 0.80482 0.34853 0.92112 0.0
H1524 H 0.79787 0.32919 0.84384 0.0
H1525 H 0.79515 0.28271 0.82183 0.0
H1526 H 0.86509 0.26125 0.85698 0.0
H1527 H 0.86886 0.30811 0.87896 0.0
C1528 C 0.85471 0.50252 0.8785 0.0
C1529 C 0.89315 0.52623 0.87613 0.0
C1530 C 0.83998 0.46448 0.88082 0.0
C1531 C 0.86326 0.44925 0.88087 0.0
C1532 C 0.90134 0.47229 0.87756 0.0
C1533 C 0.91624 0.51061 0.87533 0.0
C1534 C 0.84803 0.40988 0.88598 0.0
C1535 C 0.84786 0.38506 0.87292 0.0
C1536 C 0.83241 0.39667 0.90358 0.0
C1537 C 0.83297 0.42201 0.91807 0.0
C1538 C 0.8667 0.45252 0.92385 0.0
C1539 C 0.86702 0.47668 0.93726 0.0
C1540 C 0.83381 0.47041 0.94515 0.0
C1541 C 0.80021 0.4399 0.93968 0.0
C1542 C 0.79971 0.41573 0.9262 0.0
C1543 C 0.8131 0.24815 0.9124 0.0
C1544 C 0.78484 0.22075 0.9015 0.0
C1545 C 0.82085 0.28484 0.91153 0.0
C1546 C 0.80087 0.29462 0.89953 0.0
C1547 C 0.77035 0.26677 0.88997 0.0
C1548 C 0.76219 0.2299 0.89104 0.0
C1549 C 0.81619 0.334 0.89454 0.0
C1550 C 0.81655 0.35877 0.90762 0.0
C1551 C 0.83233 0.34725 0.87706 0.0
C1552 C 0.83335 0.32189 0.86308 0.0
C1553 C 0.81304 0.31488 0.84673 0.0
C1554 C 0.8112 0.28839 0.83432 0.0
C1555 C 0.82964 0.26883 0.83812 0.0
C1556 C 0.85064 0.27627 0.85413 0.0
C1557 C 0.85271 0.30285 0.86654 0.0
H1558 H 0.82788 0.24811 0.82859 0.0
H1559 H 0.83412 0.48912 0.95555 0.0
H1560 H 0.15128 0.30328 0.33157 0.0
H1561 H 0.1642 0.3105 0.29874 0.0
H1562 H 0.12823 0.3912 0.29564 0.0
H1563 H 0.11477 0.38385 0.3287 0.0
H1564 H 0.09929 0.33937 0.26761 0.0
H1565 H 0.22126 0.42095 0.29282 0.0
H1566 H 0.27507 0.43776 0.31296 0.0
H1567 H 0.28645 0.3486 0.29061 0.0
H1568 H 0.23297 0.3314 0.27023 0.0
H1569 H 0.16462 0.37593 0.17366 0.0
H1570 H 0.1521 0.383 0.20596 0.0
H1571 H 0.19503 0.31208 0.2225 0.0
H1572 H 0.20827 0.30569 0.19072 0.0
H1573 H 0.2227 0.36961 0.24361 0.0
H1574 H 0.09932 0.28074 0.22306 0.0
H1575 H 0.04404 0.2572 0.20329 0.0
H1576 H 0.03329 0.35179 0.21695 0.0
H1577 H 0.08842 0.37571 0.23696 0.0
C1578 C 0.14623 0.32273 0.32398 0.0
C1579 C 0.13208 0.34308 0.33281 0.0
C1580 C 0.1538 0.32694 0.30518 0.0
C1581 C 0.14768 0.35178 0.29475 0.0
C1582 C 0.13332 0.372 0.30344 0.0
C1583 C 0.12573 0.36783 0.32233 0.0
C1584 C 0.15563 0.35569 0.27471 0.0
C1585 C 0.12649 0.34679 0.26233 0.0
C1586 C 0.19083 0.36442 0.2678 0.0
C1587 C 0.22299 0.37479 0.28007 0.0
C1588 C 0.23512 0.40482 0.29227 0.0
C1589 C 0.26557 0.41444 0.30371 0.0
C1590 C 0.28398 0.39414 0.30315 0.0
C1591 C 0.27215 0.3643 0.29105 0.0
C1592 C 0.24189 0.3547 0.27949 0.0
C1593 C 0.17129 0.36186 0.18422 0.0
C1594 C 0.18767 0.34047 0.17959 0.0
C1595 C 0.16399 0.36576 0.20267 0.0
C1596 C 0.17259 0.34803 0.21673 0.0
C1597 C 0.18843 0.32633 0.212 0.0
C1598 C 0.19592 0.32264 0.19373 0.0
C1599 C 0.16613 0.35228 0.23647 0.0
C1600 C 0.19563 0.36285 0.24882 0.0
C1601 C 0.13111 0.3443 0.24334 0.0
C1602 C 0.09816 0.3302 0.2313 0.0
C1603 C 0.08527 0.29661 0.22175 0.0
C1604 C 0.05392 0.28315 0.21056 0.0
C1605 C 0.0353 0.30311 0.20876 0.0
C1606 C 0.04781 0.33641 0.21831 0.0
C1607 C 0.07901 0.34986 0.22964 0.0
H1608 H 0.01112 0.29272 0.20001 0.0
H1609 H 0.30748 0.40161 0.31206 0.0
H1610 H 0.85082 0.16039 0.68328 0.0
H1611 H 0.83902 0.15404 0.71622 0.0
H1612 H 0.86016 0.26666 0.71858 0.0
H1613 H 0.87364 0.27369 0.68557 0.0
H1614 H 0.88997 0.25529 0.74695 0.0
H1615 H 0.76902 0.18799 0.72057 0.0
H1616 H 0.71977 0.14221 0.7004 0.0
H1617 H 0.72809 0.05399 0.72639 0.0
H1618 H 0.7775 0.09919 0.74667 0.0
H1619 H 0.75275 0.15523 0.83054 0.0
H1620 H 0.76475 0.17392 0.79832 0.0
H1621 H 0.87759 0.19755 0.80446 0.0
H1622 H 0.86617 0.18088 0.83694 0.0
H1623 H 0.77765 0.1454 0.7716 0.0
H1624 H 0.93391 0.25254 0.77415 0.0
H1625 H 0.97912 0.30289 0.79406 0.0
H1626 H 0.89278 0.32034 0.81506 0.0
H1627 H 0.847 0.26992 0.79532 0.0
C1628 C 0.8529 0.18384 0.69078 0.0
C1629 C 0.86301 0.21751 0.68176 0.0
C1630 C 0.84592 0.18009 0.70965 0.0
C1631 C 0.8479 0.20959 0.71995 0.0
C1632 C 0.85831 0.24341 0.711 0.0
C1633 C 0.86593 0.24739 0.6921 0.0
C1634 C 0.83953 0.20508 0.74004 0.0
C1635 C 0.86529 0.23134 0.75232 0.0
C1636 C 0.80699 0.17431 0.74718 0.0
C1637 C 0.77715 0.14702 0.73506 0.0
C1638 C 0.76049 0.15885 0.72192 0.0
C1639 C 0.73254 0.13301 0.71048 0.0
C1640 C 0.72093 0.09527 0.71207 0.0
C1641 C 0.73714 0.08324 0.72517 0.0
C1642 C 0.76505 0.10894 0.73667 0.0
C1643 C 0.78026 0.16488 0.82507 0.0
C1644 C 0.80849 0.16651 0.8363 0.0
C1645 C 0.78712 0.17553 0.80659 0.0
C1646 C 0.82222 0.18755 0.79879 0.0
C1647 C 0.85054 0.18946 0.81009 0.0
C1648 C 0.8439 0.17955 0.82869 0.0
C1649 C 0.82827 0.19544 0.77863 0.0
C1650 C 0.80215 0.16962 0.76629 0.0
C1651 C 0.85985 0.22723 0.77144 0.0
C1652 C 0.88704 0.25725 0.78345 0.0
C1653 C 0.9246 0.26711 0.78304 0.0
C1654 C 0.95027 0.29556 0.79432 0.0
C1655 C 0.93875 0.31461 0.80591 0.0
C1656 C 0.90155 0.30529 0.80621 0.0
C1657 C 0.87571 0.27669 0.79504 0.0
H1658 H 0.95868 0.3367 0.81459 0.0
H1659 H 0.69932 0.07533 0.70318 0.0
H1660 H 0.70451 0.89006 0.18949 0.0
H1661 H 0.69811 0.86805 0.22098 0.0
H1662 H 0.60068 0.76525 0.20592 0.0
H1663 H 0.60712 0.78728 0.17398 0.0
H1664 H 0.58912 0.79425 0.23711 0.0
H1665 H 0.67744 0.76331 0.21712 0.0
H1666 H 0.7333 0.76719 0.20335 0.0
H1667 H 0.80225 0.85615 0.23992 0.0
H1668 H 0.74684 0.85318 0.25379 0.0
H1669 H 0.59936 0.72662 0.32874 0.0
H1670 H 0.59693 0.73227 0.29525 0.0
H1671 H 0.68061 0.84793 0.29857 0.0
H1672 H 0.68261 0.84282 0.33198 0.0
H1673 H 0.69415 0.80127 0.27255 0.0
H1674 H 0.60023 0.83176 0.29056 0.0
H1675 H 0.54213 0.81877 0.30584 0.0
H1676 H 0.48117 0.72108 0.27282 0.0
H1677 H 0.53906 0.7332 0.25754 0.0
C1678 C 0.68178 0.86263 0.19278 0.0
C1679 C 0.6562 0.84047 0.17922 0.0
C1680 C 0.67832 0.84996 0.21082 0.0
C1681 C 0.64909 0.81486 0.21586 0.0
C1682 C 0.62354 0.7924 0.20235 0.0
C1683 C 0.6273 0.80494 0.18411 0.0
C1684 C 0.64466 0.80316 0.23549 0.0
C1685 C 0.61185 0.79505 0.24476 0.0
C1686 C 0.6743 0.80433 0.24559 0.0
C1687 C 0.7079 0.80811 0.23645 0.0
C1688 C 0.70451 0.78405 0.22208 0.0
C1689 C 0.73609 0.7859 0.21434 0.0
C1690 C 0.77126 0.81163 0.22089 0.0
C1691 C 0.77496 0.83601 0.23497 0.0
C1692 C 0.74347 0.83426 0.24278 0.0
C1693 C 0.61694 0.75335 0.32234 0.0
C1694 C 0.6412 0.78428 0.33302 0.0
C1695 C 0.61548 0.75651 0.30323 0.0
C1696 C 0.63864 0.79049 0.29445 0.0
C1697 C 0.66253 0.82145 0.30509 0.0
C1698 C 0.66352 0.81851 0.32419 0.0
C1699 C 0.63929 0.7937 0.27412 0.0
C1700 C 0.6714 0.80016 0.26478 0.0
C1701 C 0.6088 0.79027 0.26396 0.0
C1702 C 0.57403 0.78312 0.27308 0.0
C1703 C 0.5745 0.8073 0.2867 0.0
C1704 C 0.54159 0.80014 0.29533 0.0
C1705 C 0.508 0.76905 0.29035 0.0
C1706 C 0.50723 0.74511 0.27669 0.0
C1707 C 0.54007 0.75212 0.26804 0.0
H1708 H 0.48255 0.76356 0.29705 0.0
H1709 H 0.79567 0.81288 0.21494 0.0
H1710 H 0.83943 0.67186 0.68109 0.0
H1711 H 0.84498 0.66552 0.71415 0.0
H1712 H 0.72803 0.62476 0.72078 0.0
H1713 H 0.722 0.63027 0.6875 0.0
H1714 H 0.78016 0.68606 0.74584 0.0
H1715 H 0.75013 0.56418 0.72456 0.0
H1716 H 0.75827 0.52102 0.70454 0.0
H1717 H 0.86995 0.5656 0.72387 0.0
H1718 H 0.86266 0.60944 0.74381 0.0
H1719 H 0.78241 0.64625 0.84052 0.0
H1720 H 0.76541 0.64223 0.80808 0.0
H1721 H 0.86645 0.64396 0.79293 0.0
H1722 H 0.88237 0.64584 0.82531 0.0
H1723 H 0.81649 0.59861 0.77189 0.0
H1724 H 0.85281 0.72285 0.79008 0.0
H1725 H 0.85172 0.77169 0.80877 0.0
H1726 H 0.73787 0.73043 0.79412 0.0
H1727 H 0.73814 0.68101 0.77552 0.0
C1728 C 0.81481 0.66138 0.68954 0.0
C1729 C 0.78024 0.65153 0.68168 0.0
C1730 C 0.81805 0.65773 0.70842 0.0
C1731 C 0.78692 0.64463 0.71988 0.0
C1732 C 0.75236 0.63491 0.71214 0.0
C1733 C 0.74895 0.63791 0.69315 0.0
C1734 C 0.79094 0.64169 0.73996 0.0
C1735 C 0.7874 0.66649 0.75165 0.0
C1736 C 0.80169 0.61706 0.74735 0.0
C1737 C 0.80593 0.59031 0.73557 0.0
C1738 C 0.77652 0.56498 0.72444 0.0
C1739 C 0.78096 0.54036 0.71313 0.0
C1740 C 0.81463 0.54063 0.7129 0.0
C1741 C 0.84389 0.56544 0.72405 0.0
C1742 C 0.83959 0.59015 0.73538 0.0
C1743 C 0.80088 0.64563 0.83024 0.0
C1744 C 0.83378 0.6465 0.83546 0.0
C1745 C 0.79127 0.64356 0.81167 0.0
C1746 C 0.81495 0.64351 0.7979 0.0
C1747 C 0.8476 0.64391 0.80318 0.0
C1748 C 0.85677 0.64511 0.82174 0.0
C1749 C 0.80611 0.64335 0.778 0.0
C1750 C 0.80885 0.618 0.76625 0.0
C1751 C 0.7956 0.66823 0.77048 0.0
C1752 C 0.79538 0.69798 0.78158 0.0
C1753 C 0.82747 0.72404 0.79095 0.0
C1754 C 0.82701 0.75184 0.80151 0.0
C1755 C 0.79471 0.75408 0.80268 0.0
C1756 C 0.76284 0.7286 0.79323 0.0
C1757 C 0.76314 0.7007 0.78267 0.0
H1758 H 0.79441 0.77563 0.81087 0.0
H1759 H 0.81804 0.52157 0.70412 0.0
H1760 H 0.09953 0.78128 0.18966 0.0
H1761 H 0.12091 0.7998 0.221 0.0
H1762 H 0.23445 0.85324 0.20263 0.0
H1763 H 0.21317 0.8349 0.17081 0.0
H1764 H 0.21796 0.80916 0.23672 0.0
H1765 H 0.20429 0.9072 0.21076 0.0
H1766 H 0.17201 0.93323 0.19319 0.0
H1767 H 0.08285 0.88787 0.23226 0.0
H1768 H 0.11423 0.86085 0.2499 0.0
H1769 H 0.27516 0.89796 0.32472 0.0
H1770 H 0.26846 0.88731 0.29151 0.0
H1771 H 0.15059 0.8436 0.2962 0.0
H1772 H 0.15706 0.85448 0.32927 0.0
H1773 H 0.17807 0.88981 0.26748 0.0
H1774 H 0.18729 0.78656 0.29133 0.0
H1775 H 0.21662 0.75694 0.30853 0.0
H1776 H 0.31217 0.81009 0.27346 0.0
H1777 H 0.28358 0.84045 0.2562 0.0
C1778 C 0.12912 0.79673 0.19218 0.0
C1779 C 0.15464 0.80677 0.17764 0.0
C1780 C 0.14127 0.80734 0.21016 0.0
C1781 C 0.17922 0.82818 0.21413 0.0
C1782 C 0.205 0.83718 0.19983 0.0
C1783 C 0.19281 0.82675 0.18168 0.0
C1784 C 0.19119 0.84156 0.23319 0.0
C1785 C 0.21002 0.82747 0.24337 0.0
C1786 C 0.18014 0.86485 0.24193 0.0
C1787 C 0.16153 0.88177 0.2316 0.0
C1788 C 0.17768 0.90255 0.21556 0.0
C1789 C 0.15955 0.9175 0.20558 0.0
C1790 C 0.12539 0.91218 0.21158 0.0
C1791 C 0.10932 0.89196 0.22762 0.0
C1792 C 0.12729 0.87684 0.23762 0.0
C1793 C 0.24781 0.88615 0.31868 0.0
C1794 C 0.21663 0.87704 0.3297 0.0
C1795 C 0.24402 0.87995 0.29968 0.0
C1796 C 0.20897 0.86438 0.29133 0.0
C1797 C 0.17793 0.85569 0.30229 0.0
C1798 C 0.18167 0.86183 0.32124 0.0
C1799 C 0.20428 0.85687 0.27121 0.0
C1800 C 0.18667 0.87205 0.26081 0.0
C1801 C 0.21635 0.83447 0.26232 0.0
C1802 C 0.2335 0.81613 0.27263 0.0
C1803 C 0.21469 0.79218 0.28739 0.0
C1804 C 0.23115 0.77521 0.29713 0.0
C1805 C 0.26629 0.78173 0.29213 0.0
C1806 C 0.28498 0.80513 0.27734 0.0
C1807 C 0.26866 0.82222 0.26757 0.0
H1808 H 0.27899 0.76856 0.29969 0.0
H1809 H 0.11139 0.92376 0.20383 0.0
H1810 H 0.32997 0.12879 0.83945 0.0
H1811 H 0.33065 0.11428 0.8069 0.0
H1812 H 0.35611 0.22505 0.79226 0.0
H1813 H 0.35596 0.23997 0.82477 0.0
H1814 H 0.2962 0.16731 0.77217 0.0
H1815 H 0.42224 0.20526 0.78979 0.0
H1816 H 0.46945 0.20218 0.80895 0.0
H1817 H 0.42609 0.08812 0.79374 0.0
H1818 H 0.37825 0.09037 0.77469 0.0
H1819 H 0.33119 0.16965 0.67833 0.0
H1820 H 0.3368 0.18383 0.71104 0.0
H1821 H 0.3416 0.08443 0.7225 0.0
H1822 H 0.33882 0.07179 0.6894 0.0
H1823 H 0.38446 0.13341 0.74503 0.0
H1824 H 0.25911 0.09242 0.72793 0.0
H1825 H 0.20878 0.09128 0.70957 0.0
H1826 H 0.24517 0.20403 0.72488 0.0
H1827 H 0.29603 0.20601 0.74315 0.0
C1828 C 0.33594 0.15015 0.82932 0.0
C1829 C 0.34293 0.18556 0.83471 0.0
C1830 C 0.33639 0.14182 0.81073 0.0
C1831 C 0.3435 0.16861 0.79717 0.0
C1832 C 0.35056 0.20398 0.80251 0.0
C1833 C 0.35061 0.21249 0.8211 0.0
C1834 C 0.34269 0.15955 0.77739 0.0
C1835 C 0.31574 0.16032 0.76615 0.0
C1836 C 0.36731 0.14907 0.76973 0.0
C1837 C 0.39644 0.14789 0.78095 0.0
C1838 C 0.4226 0.17944 0.79064 0.0
C1839 C 0.4495 0.17786 0.80146 0.0
C1840 C 0.45071 0.14495 0.8026 0.0
C1841 C 0.4251 0.11359 0.79286 0.0
C1842 C 0.3981 0.11501 0.78203 0.0
C1843 C 0.33366 0.15094 0.68784 0.0
C1844 C 0.33418 0.11943 0.6814 0.0
C1845 C 0.33655 0.15888 0.70659 0.0
C1846 C 0.33833 0.13457 0.71945 0.0
C1847 C 0.33994 0.10353 0.71295 0.0
C1848 C 0.33828 0.09623 0.69406 0.0
C1849 C 0.33809 0.14151 0.73957 0.0
C1850 C 0.36474 0.14024 0.75095 0.0
C1851 C 0.3126 0.15078 0.74748 0.0
C1852 C 0.28157 0.14944 0.7368 0.0
C1853 C 0.25647 0.11702 0.72732 0.0
C1854 C 0.22785 0.11623 0.71693 0.0
C1855 C 0.22383 0.14759 0.71603 0.0
C1856 C 0.24833 0.17976 0.72559 0.0
C1857 C 0.27703 0.18072 0.73598 0.0
H1858 H 0.20171 0.14696 0.70795 0.0
H1859 H 0.47153 0.14376 0.81101 0.0
H1860 H 0.36251 0.28588 0.93968 0.0
H1861 H 0.34606 0.30202 0.96908 0.0
H1862 H 0.25198 0.19122 0.97346 0.0
H1863 H 0.26925 0.17454 0.94445 0.0
H1864 H 0.29122 0.30783 0.98006 0.0
H1865 H 0.22846 0.16583 0.01725 0.0
H1866 H 0.23621 0.1108 0.01822 0.0
H1867 H 0.34919 0.17722 1.00048 0.0
H1868 H 0.34224 0.23271 0.99962 0.0
H1869 H 0.19926 0.31595 0.06176 0.0
H1870 H 0.21482 0.29985 0.0319 0.0
H1871 H 0.2983 0.28299 0.05799 0.0
H1872 H 0.28189 0.29741 0.08767 0.0
H1873 H 0.26365 0.23007 0.03593 0.0
H1874 H 0.31795 0.36203 0.03074 0.0
H1875 H 0.31908 0.42187 0.03108 0.0
H1876 H 0.23961 0.38459 0.98721 0.0
H1877 H 0.23759 0.32428 0.98679 0.0
C1878 C 0.33864 0.26477 0.94705 0.0
C1879 C 0.31749 0.22876 0.93982 0.0
C1880 C 0.32906 0.27413 0.96382 0.0
C1881 C 0.29791 0.24783 0.9737 0.0
C1882 C 0.27666 0.21185 0.96643 0.0
C1883 C 0.28656 0.20231 0.94978 0.0
C1884 C 0.28757 0.25824 0.99146 0.0
C1885 C 0.28524 0.2908 0.99228 0.0
C1886 C 0.28009 0.23643 1.00755 0.0
C1887 C 0.28467 0.20331 0.00819 0.0
C1888 C 0.25498 0.16869 0.01362 0.0
C1889 C 0.25923 0.13743 0.01414 0.0
C1890 C 0.29313 0.14049 0.00935 0.0
C1891 C 0.32291 0.17486 1.00411 0.0
C1892 C 0.31881 0.20621 1.00358 0.0
C1893 C 0.22104 0.30899 0.06104 0.0
C1894 C 0.23924 0.30786 0.07709 0.0
C1895 C 0.23004 0.29989 0.04396 0.0
C1896 C 0.25796 0.29031 0.04257 0.0
C1897 C 0.27647 0.2899 0.0586 0.0
C1898 C 0.26712 0.29834 0.07561 0.0
C1899 C 0.26771 0.27991 0.02463 0.0
C1900 C 0.26962 0.24715 0.02373 0.0
C1901 C 0.2761 0.30226 0.00868 0.0
C1902 C 0.2773 0.33849 0.00888 0.0
C1903 C 0.3005 0.36649 0.02126 0.0
C1904 C 0.30134 0.4005 0.02146 0.0
C1905 C 0.27936 0.40699 0.00921 0.0
C1906 C 0.25656 0.3795 0.99671 0.0
C1907 C 0.25557 0.3454 0.99649 0.0
H1908 H 0.28005 0.43334 0.00938 0.0
H1909 H 0.29636 0.11624 0.00975 0.0
H1910 H 0.07344 0.3537 0.44357 0.0
H1911 H 0.04253 0.3353 0.47331 0.0
H1912 H 0.04621 0.23359 0.47127 0.0
H1913 H 0.07725 0.25186 0.44129 0.0
H1914 H 0.97718 0.22103 0.4804 0.0
H1915 H 0.1007 0.30024 0.50125 0.0
H1916 H 0.162 0.35707 0.50251 0.0
H1917 H 0.111 0.42036 0.51864 0.0
H1918 H 0.04931 0.36399 0.51722 0.0
H1919 H 0.90688 0.17568 0.57288 0.0
H1920 H 0.94078 0.18683 0.54398 0.0
H1921 H 0.95716 0.29776 0.54183 0.0
H1922 H 0.92435 0.28711 0.57093 0.0
H1923 H 0.0196 0.30122 0.53568 0.0
H1924 H 0.89534 0.22247 0.51191 0.0
H1925 H 0.83419 0.16541 0.51015 0.0
H1926 H 0.88691 0.10112 0.49969 0.0
H1927 H 0.94832 0.15775 0.50145 0.0
C1928 C 0.06822 0.32763 0.44953 0.0
C1929 C 0.07796 0.30431 0.44004 0.0
C1930 C 0.05056 0.31717 0.46659 0.0
C1931 C 0.04217 0.28312 0.47462 0.0
C1932 C 0.05244 0.26001 0.46536 0.0
C1933 C 0.07041 0.27061 0.44829 0.0
C1934 C 0.02116 0.27125 0.49223 0.0
C1935 C 0.98672 0.23825 0.49261 0.0
C1936 C 0.03326 0.29393 0.50807 0.0
C1937 C 0.07034 0.32791 0.50898 0.0
C1938 C 0.10252 0.32632 0.50492 0.0
C1939 C 0.13735 0.35845 0.50569 0.0
C1940 C 0.14039 0.39232 0.51061 0.0
C1941 C 0.1086 0.39411 0.51482 0.0
C1942 C 0.0737 0.36207 0.51405 0.0
C1943 C 0.91704 0.20217 0.56604 0.0
C1944 C 0.91278 0.23046 0.5742 0.0
C1945 C 0.93647 0.20855 0.54947 0.0
C1946 C 0.95157 0.24317 0.54057 0.0
C1947 C 0.94607 0.2709 0.54841 0.0
C1948 C 0.92705 0.26469 0.56503 0.0
C1949 C 0.97488 0.2516 0.52371 0.0
C1950 C 0.00998 0.28389 0.52352 0.0
C1951 C 0.96333 0.22826 0.50805 0.0
C1952 C 0.92639 0.19427 0.50699 0.0
C1953 C 0.89386 0.19611 0.50934 0.0
C1954 C 0.85915 0.16386 0.5083 0.0
C1955 C 0.85665 0.12964 0.50484 0.0
C1956 C 0.88885 0.12762 0.50235 0.0
C1957 C 0.9236 0.15979 0.50334 0.0
H1958 H 0.82976 0.1047 0.50404 0.0
H1959 H 0.16738 0.41716 0.5112 0.0
H1960 H 0.66157 0.88346 0.06267 0.0
H1961 H 0.67672 0.91507 0.03277 0.0
H1962 H 0.7316 0.02121 0.06007 0.0
H1963 H 0.71662 0.99008 0.08982 0.0
H1964 H 0.68892 0.02142 0.03228 0.0
H1965 H 0.78141 0.98602 0.04151 0.0
H1966 H 0.80382 0.94224 0.04755 0.0
H1967 H 0.74932 0.88138 0.99879 0.0
H1968 H 0.72612 0.92452 0.99261 0.0
H1969 H 0.82078 0.10385 0.94765 0.0
H1970 H 0.80471 0.07227 0.9775 0.0
H1971 H 0.68873 0.02993 0.96634 0.0
H1972 H 0.70448 0.06146 0.93663 0.0
H1973 H 0.76331 0.99884 0.98632 0.0
H1974 H 0.64478 0.02584 1.00661 0.0
H1975 H 0.62597 0.07275 1.00149 0.0
H1976 H 0.73965 0.15647 0.99292 0.0
H1977 H 0.75917 0.1102 0.99823 0.0
C1978 C 0.67671 0.91352 0.06229 0.0
C1979 C 0.68794 0.93419 0.07867 0.0
C1980 C 0.68548 0.93156 0.04519 0.0
C1981 C 0.70554 0.97057 0.04415 0.0
C1982 C 0.71609 0.99114 0.06049 0.0
C1983 C 0.70757 0.97322 0.07752 0.0
C1984 C 0.71611 0.99023 0.02614 0.0
C1985 C 0.70502 0.01631 0.0222 0.0
C1986 C 0.73766 0.98412 0.01307 0.0
C1987 C 0.75171 0.95827 0.01671 0.0
C1988 C 0.77395 0.96313 0.03216 0.0
C1989 C 0.78684 0.93846 0.03559 0.0
C1990 C 0.77791 0.90898 0.02359 0.0
C1991 C 0.75616 0.90418 0.00809 0.0
C1992 C 0.74316 0.92875 1.00461 0.0
C1993 C 0.79187 0.08804 0.95161 0.0
C1994 C 0.76397 0.08541 0.93976 0.0
C1995 C 0.78271 0.06981 0.96863 0.0
C1996 C 0.74552 0.04887 0.97424 0.0
C1997 C 0.71764 0.04624 0.96244 0.0
C1998 C 0.72674 0.06431 0.94542 0.0
C1999 C 0.73576 0.02971 0.99239 0.0
C2000 C 0.74699 0.00374 0.99635 0.0
C2001 C 0.71472 0.03625 1.00559 0.0
C2002 C 0.70336 0.06445 1.00263 0.0
C2003 C 0.66576 0.05429 1.0037 0.0
C2004 C 0.65498 0.08077 1.00076 0.0
C2005 C 0.68159 0.11754 0.99682 0.0
C2006 C 0.71905 0.12795 0.9959 0.0
C2007 C 0.72999 0.1016 0.99885 0.0
H2008 H 0.67317 0.13798 0.99453 0.0
H2009 H 0.78792 0.88992 0.02626 0.0
H2010 H 0.71392 0.64189 0.57075 0.0
H2011 H 0.70252 0.66082 0.54092 0.0
H2012 H 0.81069 0.75911 0.54234 0.0
H2013 H 0.82226 0.74043 0.57249 0.0
H2014 H 0.75791 0.77554 0.53288 0.0
H2015 H 0.79302 0.68883 0.51272 0.0
H2016 H 0.79261 0.62937 0.51212 0.0
H2017 H 0.67767 0.57233 0.49681 0.0
H2018 H 0.67723 0.63138 0.49758 0.0
H2019 H 0.73155 0.8215 0.44113 0.0
H2020 H 0.75367 0.80909 0.46997 0.0
H2021 H 0.6568 0.69974 0.47208 0.0
H2022 H 0.63541 0.71153 0.44301 0.0
H2023 H 0.71308 0.69305 0.47853 0.0
H2024 H 0.67291 0.77457 0.50191 0.0
H2025 H 0.66893 0.83151 0.50486 0.0
H2026 H 0.78546 0.89456 0.51656 0.0
H2027 H 0.79025 0.83806 0.51342 0.0
C2028 C 0.73561 0.66727 0.56464 0.0
C2029 C 0.76912 0.68953 0.57401 0.0
C2030 C 0.72906 0.67803 0.54751 0.0
C2031 C 0.75587 0.71122 0.53924 0.0
C2032 C 0.78965 0.73328 0.54839 0.0
C2033 C 0.79632 0.72244 0.56557 0.0
C2034 C 0.74743 0.7235 0.52154 0.0
C2035 C 0.74834 0.75767 0.52093 0.0
C2036 C 0.73482 0.70011 0.50596 0.0
C2037 C 0.73505 0.66454 0.50533 0.0
C2038 C 0.76759 0.66358 0.50935 0.0
C2039 C 0.76751 0.62994 0.50896 0.0
C2040 C 0.73512 0.59708 0.50446 0.0
C2041 C 0.70274 0.5978 0.5003 0.0
C2042 C 0.70266 0.63136 0.50068 0.0
C2043 C 0.71466 0.79507 0.44793 0.0
C2044 C 0.6817 0.76751 0.43976 0.0
C2045 C 0.72733 0.78798 0.46446 0.0
C2046 C 0.70694 0.75344 0.47336 0.0
C2047 C 0.67329 0.72651 0.46551 0.0
C2048 C 0.66093 0.73336 0.4489 0.0
C2049 C 0.72134 0.74426 0.4902 0.0
C2050 C 0.72215 0.71086 0.49053 0.0
C2051 C 0.73463 0.76797 0.50572 0.0
C2052 C 0.73205 0.80217 0.50713 0.0
C2053 C 0.69779 0.80066 0.50487 0.0
C2054 C 0.69536 0.83283 0.50664 0.0
C2055 C 0.72695 0.86666 0.51082 0.0
C2056 C 0.76103 0.86836 0.51327 0.0
C2057 C 0.76362 0.83627 0.51149 0.0
H2058 H 0.725 0.89153 0.51221 0.0
H2059 H 0.73511 0.57107 0.50418 0.0
H2060 H 0.88055 0.70724 0.94974 0.0
H2061 H 0.91522 0.72625 0.97865 0.0
H2062 H 0.97066 0.66577 0.9641 0.0
H2063 H 0.93557 0.64597 0.93555 0.0
H2064 H 0.95635 0.65616 0.99845 0.0
H2065 H 0.01261 0.76105 0.95988 0.0
H2066 H 0.01852 0.81028 0.93909 0.0
H2067 H 0.98144 0.85499 0.98185 0.0
H2068 H 0.97429 0.80518 1.00285 0.0
H2069 H 0.1093 0.75531 0.06171 0.0
H2070 H 0.07607 0.73761 0.03219 0.0
H2071 H 0.99244 0.75862 0.05441 0.0
H2072 H 0.02468 0.77517 0.08396 0.0
H2073 H 0.02377 0.78922 0.01603 0.0
H2074 H 0.96804 0.67696 0.054 0.0
H2075 H 0.97215 0.63016 0.07312 0.0
H2076 H 0.02121 0.60337 0.02815 0.0
H2077 H 0.01792 0.65047 0.00885 0.0
C2078 C 0.89979 0.69762 0.9528 0.0
C2079 C 0.9052 0.67507 0.94026 0.0
C2080 C 0.91989 0.70879 0.96929 0.0
C2081 C 0.94614 0.698 0.97352 0.0
C2082 C 0.95069 0.67457 0.96125 0.0
C2083 C 0.93052 0.66325 0.94485 0.0
C2084 C 0.96919 0.71137 0.99057 0.0
C2085 C 0.97129 0.68534 1.00211 0.0
C2086 C 0.9891 0.74948 0.9955 0.0
C2087 C 0.99245 0.77905 0.98287 0.0
C2088 C 0.00525 0.78108 0.9648 0.0
C2089 C 0.00896 0.80921 0.95299 0.0
C2090 C 0.00044 0.83588 0.95912 0.0
C2091 C 0.98802 0.83431 0.9771 0.0
C2092 C 0.98406 0.80607 0.98897 0.0
C2093 C 0.08403 0.75647 0.06022 0.0
C2094 C 0.06954 0.76649 0.07517 0.0
C2095 C 0.06506 0.7463 0.04339 0.0
C2096 C 0.03178 0.74678 0.04115 0.0
C2097 C 0.01807 0.75811 0.05584 0.0
C2098 C 0.03649 0.76743 0.07273 0.0
C2099 C 0.01025 0.73397 0.02378 0.0
C2100 C 0.00857 0.7601 0.01224 0.0
C2101 C 0.99172 0.69619 0.01855 0.0
C2102 C 0.9931 0.66749 0.03006 0.0
C2103 C 0.97999 0.66131 0.04824 0.0
C2104 C 0.98212 0.63469 0.0591 0.0
C2105 C 0.99703 0.61388 0.05187 0.0
C2106 C 0.00972 0.61955 0.03374 0.0
C2107 C 0.00771 0.64618 0.02284 0.0
H2108 H -0.00133 0.59329 0.0603 0.0
H2109 H 0.00353 0.85775 0.94995 0.0
H2110 H 0.17417 0.89608 0.44367 0.0
H2111 H 0.18494 0.92391 0.47431 0.0
H2112 H 0.30089 0.95786 0.47018 0.0
H2113 H 0.29037 0.92984 0.43976 0.0
H2114 H 0.27409 0.93606 0.50535 0.0
H2115 H 0.26827 0.01145 0.45679 0.0
H2116 H 0.23669 0.02206 0.43098 0.0
H2117 H 0.15271 0.01528 0.46756 0.0
H2118 H 0.18289 0.00273 0.49355 0.0
H2119 H 0.35745 0.08037 0.56868 0.0
H2120 H 0.34074 0.0477 0.53936 0.0
H2121 H 0.23081 0.03272 0.54377 0.0
H2122 H 0.24772 0.06625 0.57298 0.0
H2123 H 0.24954 0.04095 0.50936 0.0
H2124 H 0.25522 0.96654 0.55812 0.0
H2125 H 0.2827 0.9495 0.58354 0.0
H2126 H 0.36579 0.95389 0.54711 0.0
H2127 H 0.33874 0.97103 0.52141 0.0
C2128 C 0.2018 0.90873 0.44945 0.0
C2129 C 0.23148 0.91109 0.43915 0.0
C2130 C 0.20792 0.92469 0.46696 0.0
C2131 C 0.24385 0.94351 0.47442 0.0
C2132 C 0.27297 0.9436 0.4647 0.0
C2133 C 0.2669 0.92768 0.44724 0.0
C2134 C 0.25212 0.96638 0.49135 0.0
C2135 C 0.26896 0.95914 0.50622 0.0
C2136 C 0.2447 0.99607 0.49257 0.0
C2137 C 0.22756 0.00551 0.47711 0.0
C2138 C 0.24275 0.01162 0.45933 0.0
C2139 C 0.22495 0.01776 0.44462 0.0
C2140 C 0.19253 0.0191 0.44758 0.0
C2141 C 0.17778 0.01414 0.46527 0.0
C2142 C 0.19513 0.00731 0.47999 0.0
C2143 C 0.32988 0.07067 0.56327 0.0
C2144 C 0.30378 0.07554 0.57328 0.0
C2145 C 0.32024 0.05168 0.54654 0.0
C2146 C 0.28398 0.03626 0.53966 0.0
C2147 C 0.25871 0.04356 0.54894 0.0
C2148 C 0.26848 0.06297 0.56562 0.0
C2149 C 0.27202 0.01096 0.52343 0.0
C2150 C 0.25447 0.01773 0.50864 0.0
C2151 C 0.27861 0.98064 0.52231 0.0
C2152 C 0.29487 0.97016 0.53779 0.0
C2153 C 0.27926 0.96385 0.55548 0.0
C2154 C 0.29484 0.95423 0.56997 0.0
C2155 C 0.32603 0.95069 0.56696 0.0
C2156 C 0.34162 0.95664 0.54943 0.0
C2157 C 0.32611 0.96624 0.53488 0.0
H2158 H 0.3381 0.9433 0.5782 0.0
H2159 H 0.17898 0.02424 0.4362 0.0
loop_
_geom_bond_atom_site_label_1
_geom_bond_atom_site_label_2
_geom_bond_distance
_geom_bond_site_symmetry_2
_ccdc_geom_bond_type
Co0 N5 2.057 . S
Co0 O17 2.021 . S
Co0 O20 2.062 . S
Co0 O24 2.117 . S
Co0 O25 2.020 . S
C1 O21 1.259 . S
C1 O24 1.258 . S
Co2 N11 2.057 . S
Co2 O18 2.117 . S
Co2 O19 2.020 . S
Co2 O21 2.021 . S
Co2 O26 2.062 . S
C3 N5 1.316 . S
C3 N6 1.347 . S
C3 H8 0.931 . S
C4 N5 1.375 . S
C4 C7 1.350 . S
C4 H9 0.930 . S
N5 Co0 2.057 . S
N5 C3 1.316 . S
N5 C4 1.375 . S
N6 C3 1.347 . S
N6 C7 1.373 . S
C7 C4 1.350 . S
C7 N6 1.373 . S
C7 H28 0.931 . S
H8 C3 0.931 . S
H9 C4 0.930 . S
C10 O17 1.259 . S
C10 O18 1.258 . S
N11 Co2 2.057 . S
N11 C12 1.316 . S
N11 C13 1.375 . S
C12 N11 1.316 . S
C12 N14 1.347 . S
C12 H23 0.931 . S
C13 N11 1.375 . S
C13 C15 1.350 . S
C13 H22 0.930 . S
N14 C12 1.347 . S
N14 C15 1.373 . S
C15 C13 1.350 . S
C15 N14 1.373 . S
C15 H29 0.931 . S
C16 O19 1.256 . S
C16 O20 1.255 . S
O17 Co0 2.021 . S
O17 C10 1.259 . S
O18 Co2 2.117 . S
O18 C10 1.258 . S
O19 Co2 2.020 . S
O19 C16 1.256 . S
O20 Co0 2.062 . S
O20 C16 1.255 . S
O21 C1 1.259 . S
O21 Co2 2.021 . S
H22 C13 0.930 . S
H23 C12 0.931 . S
O24 Co0 2.117 . S
O24 C1 1.258 . S
O25 Co0 2.020 . S
O25 C27 1.256 . S
O26 Co2 2.062 . S
O26 C27 1.255 . S
C27 O25 1.256 . S
C27 O26 1.255 . S
H28 C7 0.931 . S
H29 C15 0.931 . S
Co30 N35 2.057 . S
Co30 O47 2.021 . S
Co30 O50 2.062 . S
Co30 O54 2.117 . S
Co30 O55 2.020 . S
C31 O51 1.259 . S
C31 O54 1.258 . S
Co32 N41 2.057 . S
Co32 O48 2.117 . S
Co32 O49 2.020 . S
Co32 O51 2.021 . S
Co32 O56 2.062 . S
C33 N35 1.316 . S
C33 N36 1.347 . S
C33 H38 0.931 . S
C34 N35 1.375 . S
C34 C37 1.350 . S
C34 H39 0.930 . S
N35 Co30 2.057 . S
N35 C33 1.316 . S
N35 C34 1.375 . S
N36 C33 1.347 . S
N36 C37 1.373 . S
C37 C34 1.350 . S
C37 N36 1.373 . S
C37 H58 0.931 . S
H38 C33 0.931 . S
H39 C34 0.930 . S
C40 O47 1.259 . S
C40 O48 1.258 . S
N41 Co32 2.057 . S
N41 C42 1.316 . S
N41 C43 1.375 . S
C42 N41 1.316 . S
C42 N44 1.347 . S
C42 H53 0.931 . S
C43 N41 1.375 . S
C43 C45 1.350 . S
C43 H52 0.930 . S
N44 C42 1.347 . S
N44 C45 1.373 . S
C45 C43 1.350 . S
C45 N44 1.373 . S
C45 H59 0.931 . S
C46 O49 1.256 . S
C46 O50 1.255 . S
O47 Co30 2.021 . S
O47 C40 1.259 . S
O48 Co32 2.117 . S
O48 C40 1.258 . S
O49 Co32 2.020 . S
O49 C46 1.256 . S
O50 Co30 2.062 . S
O50 C46 1.255 . S
O51 C31 1.259 . S
O51 Co32 2.021 . S
H52 C43 0.930 . S
H53 C42 0.931 . S
O54 Co30 2.117 . S
O54 C31 1.258 . S
O55 Co30 2.020 . S
O55 C57 1.256 . S
O56 Co32 2.062 . S
O56 C57 1.255 . S
C57 O55 1.256 . S
C57 O56 1.255 . S
H58 C37 0.931 . S
H59 C45 0.931 . S
Co60 N65 2.057 . S
Co60 O77 2.021 . S
Co60 O80 2.062 . S
Co60 O84 2.117 . S
Co60 O85 2.020 . S
C61 O81 1.259 . S
C61 O84 1.258 . S
Co62 N71 2.057 . S
Co62 O78 2.117 . S
Co62 O79 2.020 . S
Co62 O81 2.021 . S
Co62 O86 2.062 . S
C63 N65 1.316 . S
C63 N66 1.347 . S
C63 H68 0.931 . S
C64 N65 1.375 . S
C64 C67 1.350 . S
C64 H69 0.930 . S
N65 Co60 2.057 . S
N65 C63 1.316 . S
N65 C64 1.375 . S
N66 C63 1.347 . S
N66 C67 1.373 . S
C67 C64 1.350 . S
C67 N66 1.373 . S
C67 H88 0.931 . S
H68 C63 0.931 . S
H69 C64 0.930 . S
C70 O77 1.259 . S
C70 O78 1.258 . S
N71 Co62 2.057 . S
N71 C72 1.316 . S
N71 C73 1.375 . S
C72 N71 1.316 . S
C72 N74 1.347 1_565 S
C72 H83 0.931 . S
C73 N71 1.375 . S
C73 C75 1.350 . S
C73 H82 0.930 . S
N74 C72 1.347 1_545 S
N74 C75 1.373 1_545 S
C75 C73 1.350 . S
C75 N74 1.373 1_565 S
C75 H89 0.931 1_565 S
C76 O79 1.256 . S
C76 O80 1.255 . S
O77 Co60 2.021 . S
O77 C70 1.259 . S
O78 Co62 2.117 . S
O78 C70 1.258 . S
O79 Co62 2.020 . S
O79 C76 1.256 . S
O80 Co60 2.062 . S
O80 C76 1.255 . S
O81 C61 1.259 . S
O81 Co62 2.021 . S
H82 C73 0.930 . S
H83 C72 0.931 . S
O84 Co60 2.117 . S
O84 C61 1.258 . S
O85 Co60 2.020 . S
O85 C87 1.256 . S
O86 Co62 2.062 . S
O86 C87 1.255 . S
C87 O85 1.256 . S
C87 O86 1.255 . S
H88 C67 0.931 . S
H89 C75 0.931 1_545 S
Co90 N95 2.057 . S
Co90 O107 2.021 . S
Co90 O110 2.062 . S
Co90 O114 2.117 . S
Co90 O115 2.020 . S
C91 O111 1.259 . S
C91 O114 1.258 . S
Co92 N101 2.057 . S
Co92 O108 2.117 . S
Co92 O109 2.020 . S
Co92 O111 2.021 . S
Co92 O116 2.062 . S
C93 N95 1.316 . S
C93 N96 1.347 . S
C93 H98 0.931 . S
C94 N95 1.375 . S
C94 C97 1.350 . S
C94 H99 0.930 . S
N95 Co90 2.057 . S
N95 C93 1.316 . S
N95 C94 1.375 . S
N96 C93 1.347 . S
N96 C97 1.373 . S
C97 C94 1.350 . S
C97 N96 1.373 . S
C97 H118 0.931 . S
H98 C93 0.931 . S
H99 C94 0.930 . S
C100 O107 1.259 . S
C100 O108 1.258 . S
N101 Co92 2.057 . S
N101 C102 1.316 . S
N101 C103 1.375 . S
C102 N101 1.316 . S
C102 N104 1.347 . S
C102 H113 0.931 . S
C103 N101 1.375 . S
C103 C105 1.350 . S
C103 H112 0.930 . S
N104 C102 1.347 . S
N104 C105 1.373 . S
C105 C103 1.350 . S
C105 N104 1.373 . S
C105 H119 0.931 . S
C106 O109 1.256 . S
C106 O110 1.255 . S
O107 Co90 2.021 . S
O107 C100 1.259 . S
O108 Co92 2.117 . S
O108 C100 1.258 . S
O109 Co92 2.020 . S
O109 C106 1.256 . S
O110 Co90 2.062 . S
O110 C106 1.255 . S
O111 C91 1.259 . S
O111 Co92 2.021 . S
H112 C103 0.930 . S
H113 C102 0.931 . S
O114 Co90 2.117 . S
O114 C91 1.258 . S
O115 Co90 2.020 . S
O115 C117 1.256 . S
O116 Co92 2.062 . S
O116 C117 1.255 . S
C117 O115 1.256 . S
C117 O116 1.255 . S
H118 C97 0.931 . S
H119 C105 0.931 . S
Co120 N125 2.057 . S
Co120 O137 2.021 . S
Co120 O140 2.062 . S
Co120 O144 2.117 . S
Co120 O145 2.020 . S
C121 O141 1.259 . S
C121 O144 1.258 . S
Co122 N131 2.057 . S
Co122 O138 2.117 . S
Co122 O139 2.020 . S
Co122 O141 2.021 . S
Co122 O146 2.062 . S
C123 N125 1.316 . S
C123 N126 1.347 . S
C123 H128 0.931 . S
C124 N125 1.375 . S
C124 C127 1.350 . S
C124 H129 0.930 . S
N125 Co120 2.057 . S
N125 C123 1.316 . S
N125 C124 1.375 . S
N126 C123 1.347 . S
N126 C127 1.373 . S
C127 C124 1.350 . S
C127 N126 1.373 . S
C127 H148 0.931 . S
H128 C123 0.931 . S
H129 C124 0.930 . S
C130 O137 1.259 . S
C130 O138 1.258 . S
N131 Co122 2.057 . S
N131 C132 1.316 . S
N131 C133 1.375 . S
C132 N131 1.316 . S
C132 N134 1.347 1_455 S
C132 H143 0.931 . S
C133 N131 1.375 . S
C133 C135 1.350 . S
C133 H142 0.930 . S
N134 C132 1.347 1_655 S
N134 C135 1.373 1_655 S
C135 C133 1.350 . S
C135 N134 1.373 1_455 S
C135 H149 0.931 1_455 S
C136 O139 1.256 . S
C136 O140 1.255 . S
O137 Co120 2.021 . S
O137 C130 1.259 . S
O138 Co122 2.117 . S
O138 C130 1.258 . S
O139 Co122 2.020 . S
O139 C136 1.256 . S
O140 Co120 2.062 . S
O140 C136 1.255 . S
O141 C121 1.259 . S
O141 Co122 2.021 . S
H142 C133 0.930 . S
H143 C132 0.931 . S
O144 Co120 2.117 . S
O144 C121 1.258 . S
O145 Co120 2.020 . S
O145 C147 1.256 . S
O146 Co122 2.062 . S
O146 C147 1.255 . S
C147 O145 1.256 . S
C147 O146 1.255 . S
H148 C127 0.931 . S
H149 C135 0.931 1_655 S
Co150 N155 2.057 . S
Co150 O167 2.021 . S
Co150 O170 2.062 . S
Co150 O174 2.117 . S
Co150 O175 2.020 . S
C151 O171 1.259 . S
C151 O174 1.258 . S
Co152 N161 2.057 . S
Co152 O168 2.117 . S
Co152 O169 2.020 . S
Co152 O171 2.021 . S
Co152 O176 2.062 . S
C153 N155 1.316 . S
C153 N156 1.347 . S
C153 H158 0.931 . S
C154 N155 1.375 . S
C154 C157 1.350 . S
C154 H159 0.930 . S
N155 Co150 2.057 . S
N155 C153 1.316 . S
N155 C154 1.375 . S
N156 C153 1.347 . S
N156 C157 1.373 . S
C157 C154 1.350 . S
C157 N156 1.373 . S
C157 H178 0.931 . S
H158 C153 0.931 . S
H159 C154 0.930 . S
C160 O167 1.259 . S
C160 O168 1.258 . S
N161 Co152 2.057 . S
N161 C162 1.316 . S
N161 C163 1.375 . S
C162 N161 1.316 . S
C162 N164 1.347 . S
C162 H173 0.931 . S
C163 N161 1.375 . S
C163 C165 1.350 . S
C163 H172 0.930 . S
N164 C162 1.347 . S
N164 C165 1.373 . S
C165 C163 1.350 . S
C165 N164 1.373 . S
C165 H179 0.931 . S
C166 O169 1.256 . S
C166 O170 1.255 . S
O167 Co150 2.021 . S
O167 C160 1.259 . S
O168 Co152 2.117 . S
O168 C160 1.258 . S
O169 Co152 2.020 . S
O169 C166 1.256 . S
O170 Co150 2.062 . S
O170 C166 1.255 . S
O171 C151 1.259 . S
O171 Co152 2.021 . S
H172 C163 0.930 . S
H173 C162 0.931 . S
O174 Co150 2.117 . S
O174 C151 1.258 . S
O175 Co150 2.020 . S
O175 C177 1.256 . S
O176 Co152 2.062 . S
O176 C177 1.255 . S
C177 O175 1.256 . S
C177 O176 1.255 . S
H178 C157 0.931 . S
H179 C165 0.931 . S
Co180 N185 2.057 . S
Co180 O197 2.021 . S
Co180 O200 2.062 . S
Co180 O204 2.117 . S
Co180 O205 2.020 . S
C181 O201 1.259 . S
C181 O204 1.258 . S
Co182 N191 2.057 . S
Co182 O198 2.117 . S
Co182 O199 2.020 . S
Co182 O201 2.021 . S
Co182 O206 2.062 . S
C183 N185 1.316 . S
C183 N186 1.347 . S
C183 H188 0.931 . S
C184 N185 1.375 . S
C184 C187 1.350 . S
C184 H189 0.930 . S
N185 Co180 2.057 . S
N185 C183 1.316 . S
N185 C184 1.375 . S
N186 C183 1.347 . S
N186 C187 1.373 . S
C187 C184 1.350 . S
C187 N186 1.373 . S
C187 H208 0.931 . S
H188 C183 0.931 . S
H189 C184 0.930 . S
C190 O197 1.259 . S
C190 O198 1.258 . S
N191 Co182 2.057 . S
N191 C192 1.316 . S
N191 C193 1.375 . S
C192 N191 1.316 . S
C192 N194 1.347 . S
C192 H203 0.931 . S
C193 N191 1.375 . S
C193 C195 1.350 . S
C193 H202 0.930 . S
N194 C192 1.347 . S
N194 C195 1.373 . S
C195 C193 1.350 . S
C195 N194 1.373 . S
C195 H209 0.931 . S
C196 O199 1.256 . S
C196 O200 1.255 . S
O197 Co180 2.021 . S
O197 C190 1.259 . S
O198 Co182 2.117 . S
O198 C190 1.258 . S
O199 Co182 2.020 . S
O199 C196 1.256 . S
O200 Co180 2.062 . S
O200 C196 1.255 . S
O201 C181 1.259 . S
O201 Co182 2.021 . S
H202 C193 0.930 . S
H203 C192 0.931 . S
O204 Co180 2.117 . S
O204 C181 1.258 . S
O205 Co180 2.020 . S
O205 C207 1.256 . S
O206 Co182 2.062 . S
O206 C207 1.255 . S
C207 O205 1.256 . S
C207 O206 1.255 . S
H208 C187 0.931 . S
H209 C195 0.931 . S
Co210 N215 2.057 . S
Co210 O227 2.021 . S
Co210 O230 2.062 . S
Co210 O234 2.117 . S
Co210 O235 2.020 . S
C211 O231 1.259 . S
C211 O234 1.258 . S
Co212 N221 2.057 . S
Co212 O228 2.117 . S
Co212 O229 2.020 . S
Co212 O231 2.021 . S
Co212 O236 2.062 . S
C213 N215 1.316 . S
C213 N216 1.347 . S
C213 H218 0.931 . S
C214 N215 1.375 . S
C214 C217 1.350 . S
C214 H219 0.930 . S
N215 Co210 2.057 . S
N215 C213 1.316 . S
N215 C214 1.375 . S
N216 C213 1.347 . S
N216 C217 1.373 . S
C217 C214 1.350 . S
C217 N216 1.373 . S
C217 H238 0.931 . S
H218 C213 0.931 . S
H219 C214 0.930 . S
C220 O227 1.259 . S
C220 O228 1.258 . S
N221 Co212 2.057 . S
N221 C222 1.316 . S
N221 C223 1.375 . S
C222 N221 1.316 . S
C222 N224 1.347 . S
C222 H233 0.931 . S
C223 N221 1.375 . S
C223 C225 1.350 . S
C223 H232 0.930 . S
N224 C222 1.347 . S
N224 C225 1.373 . S
C225 C223 1.350 . S
C225 N224 1.373 . S
C225 H239 0.931 . S
C226 O229 1.256 . S
C226 O230 1.255 . S
O227 Co210 2.021 . S
O227 C220 1.259 . S
O228 Co212 2.117 . S
O228 C220 1.258 . S
O229 Co212 2.020 . S
O229 C226 1.256 . S
O230 Co210 2.062 . S
O230 C226 1.255 . S
O231 C211 1.259 . S
O231 Co212 2.021 . S
H232 C223 0.930 . S
H233 C222 0.931 . S
O234 Co210 2.117 . S
O234 C211 1.258 . S
O235 Co210 2.020 . S
O235 C237 1.256 . S
O236 Co212 2.062 . S
O236 C237 1.255 . S
C237 O235 1.256 . S
C237 O236 1.255 . S
H238 C217 0.931 . S
H239 C225 0.931 . S
Co240 N245 2.057 . S
Co240 O257 2.021 . S
Co240 O260 2.062 . S
Co240 O264 2.117 . S
Co240 O265 2.020 . S
C241 O261 1.259 . S
C241 O264 1.258 . S
Co242 N251 2.057 . S
Co242 O258 2.117 . S
Co242 O259 2.020 . S
Co242 O261 2.021 . S
Co242 O266 2.062 . S
C243 N245 1.316 . S
C243 N246 1.347 . S
C243 H248 0.931 . S
C244 N245 1.375 . S
C244 C247 1.350 . S
C244 H249 0.930 . S
N245 Co240 2.057 . S
N245 C243 1.316 . S
N245 C244 1.375 . S
N246 C243 1.347 . S
N246 C247 1.373 . S
C247 C244 1.350 . S
C247 N246 1.373 . S
C247 H268 0.931 . S
H248 C243 0.931 . S
H249 C244 0.930 . S
C250 O257 1.259 . S
C250 O258 1.258 . S
N251 Co242 2.057 . S
N251 C252 1.316 . S
N251 C253 1.375 . S
C252 N251 1.316 . S
C252 N254 1.347 . S
C252 H263 0.931 . S
C253 N251 1.375 . S
C253 C255 1.350 . S
C253 H262 0.930 . S
N254 C252 1.347 . S
N254 C255 1.373 . S
C255 C253 1.350 . S
C255 N254 1.373 . S
C255 H269 0.931 . S
C256 O259 1.256 . S
C256 O260 1.255 . S
O257 Co240 2.021 . S
O257 C250 1.259 . S
O258 Co242 2.117 . S
O258 C250 1.258 . S
O259 Co242 2.020 . S
O259 C256 1.256 . S
O260 Co240 2.062 . S
O260 C256 1.255 . S
O261 C241 1.259 . S
O261 Co242 2.021 . S
H262 C253 0.930 . S
H263 C252 0.931 . S
O264 Co240 2.117 . S
O264 C241 1.258 . S
O265 Co240 2.020 . S
O265 C267 1.256 . S
O266 Co242 2.062 . S
O266 C267 1.255 . S
C267 O265 1.256 . S
C267 O266 1.255 . S
H268 C247 0.931 . S
H269 C255 0.931 . S
Co270 N275 2.057 . S
Co270 O287 2.021 . S
Co270 O290 2.062 . S
Co270 O294 2.117 . S
Co270 O295 2.020 . S
C271 O291 1.259 . S
C271 O294 1.258 . S
Co272 N281 2.057 . S
Co272 O288 2.117 . S
Co272 O289 2.020 . S
Co272 O291 2.021 . S
Co272 O296 2.062 . S
C273 N275 1.316 . S
C273 N276 1.347 . S
C273 H278 0.931 . S
C274 N275 1.375 . S
C274 C277 1.350 . S
C274 H279 0.930 . S
N275 Co270 2.057 . S
N275 C273 1.316 . S
N275 C274 1.375 . S
N276 C273 1.347 . S
N276 C277 1.373 . S
C277 C274 1.350 . S
C277 N276 1.373 . S
C277 H298 0.931 . S
H278 C273 0.931 . S
H279 C274 0.930 . S
C280 O287 1.259 . S
C280 O288 1.258 . S
N281 Co272 2.057 . S
N281 C282 1.316 . S
N281 C283 1.375 . S
C282 N281 1.316 . S
C282 N284 1.347 . S
C282 H293 0.931 . S
C283 N281 1.375 . S
C283 C285 1.350 . S
C283 H292 0.930 . S
N284 C282 1.347 . S
N284 C285 1.373 . S
C285 C283 1.350 . S
C285 N284 1.373 . S
C285 H299 0.931 . S
C286 O289 1.256 . S
C286 O290 1.255 . S
O287 Co270 2.021 . S
O287 C280 1.259 . S
O288 Co272 2.117 . S
O288 C280 1.258 . S
O289 Co272 2.020 . S
O289 C286 1.256 . S
O290 Co270 2.062 . S
O290 C286 1.255 . S
O291 C271 1.259 . S
O291 Co272 2.021 . S
H292 C283 0.930 . S
H293 C282 0.931 . S
O294 Co270 2.117 . S
O294 C271 1.258 . S
O295 Co270 2.020 . S
O295 C297 1.256 . S
O296 Co272 2.062 . S
O296 C297 1.255 . S
C297 O295 1.256 . S
C297 O296 1.255 . S
H298 C277 0.931 . S
H299 C285 0.931 . S
Co300 N305 2.057 . S
Co300 O317 2.021 . S
Co300 O320 2.062 . S
Co300 O324 2.117 . S
Co300 O325 2.020 . S
C301 O321 1.259 . S
C301 O324 1.258 . S
Co302 N311 2.057 . S
Co302 O318 2.117 . S
Co302 O319 2.020 . S
Co302 O321 2.021 . S
Co302 O326 2.062 . S
C303 N305 1.316 . S
C303 N306 1.347 . S
C303 H308 0.931 . S
C304 N305 1.375 . S
C304 C307 1.350 . S
C304 H309 0.930 . S
N305 Co300 2.057 . S
N305 C303 1.316 . S
N305 C304 1.375 . S
N306 C303 1.347 . S
N306 C307 1.373 . S
C307 C304 1.350 . S
C307 N306 1.373 . S
C307 H328 0.931 . S
H308 C303 0.931 . S
H309 C304 0.930 . S
C310 O317 1.259 . S
C310 O318 1.258 . S
N311 Co302 2.057 . S
N311 C312 1.316 . S
N311 C313 1.375 . S
C312 N311 1.316 . S
C312 N314 1.347 . S
C312 H323 0.931 . S
C313 N311 1.375 . S
C313 C315 1.350 . S
C313 H322 0.930 . S
N314 C312 1.347 . S
N314 C315 1.373 . S
C315 C313 1.350 . S
C315 N314 1.373 . S
C315 H329 0.931 . S
C316 O319 1.256 . S
C316 O320 1.255 . S
O317 Co300 2.021 . S
O317 C310 1.259 . S
O318 Co302 2.117 . S
O318 C310 1.258 . S
O319 Co302 2.020 . S
O319 C316 1.256 . S
O320 Co300 2.062 . S
O320 C316 1.255 . S
O321 C301 1.259 . S
O321 Co302 2.021 . S
H322 C313 0.930 . S
H323 C312 0.931 . S
O324 Co300 2.117 . S
O324 C301 1.258 . S
O325 Co300 2.020 . S
O325 C327 1.256 . S
O326 Co302 2.062 . S
O326 C327 1.255 . S
C327 O325 1.256 . S
C327 O326 1.255 . S
H328 C307 0.931 . S
H329 C315 0.931 . S
Co330 N335 2.057 . S
Co330 O347 2.021 . S
Co330 O350 2.062 . S
Co330 O354 2.117 . S
Co330 O355 2.020 . S
C331 O351 1.259 . S
C331 O354 1.258 . S
Co332 N341 2.057 . S
Co332 O348 2.117 . S
Co332 O349 2.020 . S
Co332 O351 2.021 . S
Co332 O356 2.062 . S
C333 N335 1.316 . S
C333 N336 1.347 . S
C333 H338 0.931 . S
C334 N335 1.375 . S
C334 C337 1.350 . S
C334 H339 0.930 . S
N335 Co330 2.057 . S
N335 C333 1.316 . S
N335 C334 1.375 . S
N336 C333 1.347 . S
N336 C337 1.373 . S
C337 C334 1.350 . S
C337 N336 1.373 . S
C337 H358 0.931 . S
H338 C333 0.931 . S
H339 C334 0.930 . S
C340 O347 1.259 . S
C340 O348 1.258 . S
N341 Co332 2.057 . S
N341 C342 1.316 . S
N341 C343 1.375 . S
C342 N341 1.316 . S
C342 N344 1.347 . S
C342 H353 0.931 . S
C343 N341 1.375 . S
C343 C345 1.350 . S
C343 H352 0.930 . S
N344 C342 1.347 . S
N344 C345 1.373 . S
C345 C343 1.350 . S
C345 N344 1.373 . S
C345 H359 0.931 . S
C346 O349 1.256 . S
C346 O350 1.255 . S
O347 Co330 2.021 . S
O347 C340 1.259 . S
O348 Co332 2.117 . S
O348 C340 1.258 . S
O349 Co332 2.020 . S
O349 C346 1.256 . S
O350 Co330 2.062 . S
O350 C346 1.255 . S
O351 C331 1.259 . S
O351 Co332 2.021 . S
H352 C343 0.930 . S
H353 C342 0.931 . S
O354 Co330 2.117 . S
O354 C331 1.258 . S
O355 Co330 2.020 . S
O355 C357 1.256 . S
O356 Co332 2.062 . S
O356 C357 1.255 . S
C357 O355 1.256 . S
C357 O356 1.255 . S
H358 C337 0.931 . S
H359 C345 0.931 . S
H360 C378 0.951 . S
H361 C380 0.951 . S
H362 C382 0.950 . S
H363 C383 0.950 . S
H364 C385 0.950 1_565 S
H365 C388 0.950 1_565 S
H366 C389 0.950 1_565 S
H367 C391 0.950 . S
H368 C392 0.950 . S
H369 C393 0.951 . S
H370 C395 0.951 . S
H371 C397 0.950 . S
H372 C398 0.950 . S
H373 C400 0.950 . S
H374 C403 0.950 . S
H375 C404 0.950 . S
H376 C406 0.950 . S
H377 C407 0.950 . S
C378 H360 0.951 . S
C378 C379 1.366 . S
C378 C380 1.388 . S
C379 C378 1.366 . S
C379 C383 1.385 . S
C380 H361 0.951 . S
C380 C378 1.388 . S
C380 C381 1.366 . S
C381 C380 1.366 . S
C381 C382 1.414 . S
C381 C384 1.499 1_565 S
C382 H362 0.950 . S
C382 C381 1.414 . S
C382 C383 1.374 . S
C383 H363 0.950 . S
C383 C379 1.385 . S
C383 C382 1.374 . S
C384 C381 1.499 1_545 S
C384 C385 1.373 . S
C384 C386 1.389 . S
C385 H364 0.950 1_545 S
C385 C384 1.373 . S
C385 C401 1.377 . S
C386 C384 1.389 . S
C386 C387 1.524 . S
C386 C400 1.377 . S
C387 C386 1.524 . S
C387 C388 1.397 . S
C387 C392 1.363 . S
C388 H365 0.950 1_545 S
C388 C387 1.397 . S
C388 C389 1.334 . S
C389 H366 0.950 1_545 S
C389 C388 1.334 . S
C389 C390 1.287 . S
C390 C389 1.287 . S
C390 C391 1.524 . S
C390 H409 0.913 . S
C391 H367 0.950 . S
C391 C390 1.524 . S
C391 C392 1.415 . S
C392 H368 0.950 . S
C392 C387 1.363 . S
C392 C391 1.415 . S
C393 H369 0.951 . S
C393 C394 1.366 . S
C393 C395 1.388 . S
C394 C393 1.366 . S
C394 C398 1.385 . S
C395 H370 0.951 . S
C395 C393 1.388 . S
C395 C396 1.366 . S
C396 C395 1.366 . S
C396 C397 1.414 . S
C396 C399 1.499 . S
C397 H371 0.950 . S
C397 C396 1.414 . S
C397 C398 1.374 . S
C398 H372 0.950 . S
C398 C394 1.385 . S
C398 C397 1.374 . S
C399 C396 1.499 . S
C399 C400 1.373 . S
C399 C401 1.389 . S
C400 H373 0.950 . S
C400 C386 1.377 . S
C400 C399 1.373 . S
C401 C385 1.377 . S
C401 C399 1.389 . S
C401 C402 1.524 . S
C402 C401 1.524 . S
C402 C403 1.397 . S
C402 C407 1.363 . S
C403 H374 0.950 . S
C403 C402 1.397 . S
C403 C404 1.334 . S
C404 H375 0.950 . S
C404 C403 1.334 . S
C404 C405 1.287 . S
C405 C404 1.287 . S
C405 C406 1.524 . S
C405 H408 0.999 . S
C406 H376 0.950 . S
C406 C405 1.524 . S
C406 C407 1.415 . S
C407 H377 0.950 . S
C407 C402 1.363 . S
C407 C406 1.415 . S
H408 C405 0.999 . S
H409 C390 0.913 . S
H410 C428 0.951 . S
H411 C430 0.951 . S
H412 C432 0.950 . S
H413 C433 0.950 . S
H414 C435 0.950 . S
H415 C438 0.950 . S
H416 C439 0.950 . S
H417 C441 0.950 . S
H418 C442 0.950 . S
H419 C443 0.951 . S
H420 C445 0.951 . S
H421 C447 0.950 . S
H422 C448 0.950 . S
H423 C450 0.950 . S
H424 C453 0.950 . S
H425 C454 0.950 . S
H426 C456 0.950 . S
H427 C457 0.950 . S
C428 H410 0.951 . S
C428 C429 1.366 . S
C428 C430 1.388 . S
C429 C428 1.366 . S
C429 C433 1.385 . S
C430 H411 0.951 . S
C430 C428 1.388 . S
C430 C431 1.366 . S
C431 C430 1.366 . S
C431 C432 1.414 . S
C431 C434 1.499 . S
C432 H412 0.950 . S
C432 C431 1.414 . S
C432 C433 1.374 . S
C433 H413 0.950 . S
C433 C429 1.385 . S
C433 C432 1.374 . S
C434 C431 1.499 . S
C434 C435 1.373 . S
C434 C436 1.389 . S
C435 H414 0.950 . S
C435 C434 1.373 . S
C435 C451 1.377 . S
C436 C434 1.389 . S
C436 C437 1.524 . S
C436 C450 1.377 . S
C437 C436 1.524 . S
C437 C438 1.397 . S
C437 C442 1.363 . S
C438 H415 0.950 . S
C438 C437 1.397 . S
C438 C439 1.334 . S
C439 H416 0.950 . S
C439 C438 1.334 . S
C439 C440 1.287 . S
C440 C439 1.287 . S
C440 C441 1.524 . S
C440 H459 0.913 . S
C441 H417 0.950 . S
C441 C440 1.524 . S
C441 C442 1.415 . S
C442 H418 0.950 . S
C442 C437 1.363 . S
C442 C441 1.415 . S
C443 H419 0.951 . S
C443 C444 1.366 . S
C443 C445 1.388 . S
C444 C443 1.366 . S
C444 C448 1.385 . S
C445 H420 0.951 . S
C445 C443 1.388 . S
C445 C446 1.366 1_655 S
C446 C445 1.366 1_455 S
C446 C447 1.414 . S
C446 C449 1.499 . S
C447 H421 0.950 . S
C447 C446 1.414 . S
C447 C448 1.374 1_455 S
C448 H422 0.950 . S
C448 C444 1.385 . S
C448 C447 1.374 1_655 S
C449 C446 1.499 . S
C449 C450 1.373 . S
C449 C451 1.389 . S
C450 H423 0.950 . S
C450 C436 1.377 . S
C450 C449 1.373 . S
C451 C435 1.377 . S
C451 C449 1.389 . S
C451 C452 1.524 . S
C452 C451 1.524 . S
C452 C453 1.397 . S
C452 C457 1.363 . S
C453 H424 0.950 . S
C453 C452 1.397 . S
C453 C454 1.334 . S
C454 H425 0.950 . S
C454 C453 1.334 . S
C454 C455 1.287 . S
C455 C454 1.287 . S
C455 C456 1.524 . S
C455 H458 0.999 . S
C456 H426 0.950 . S
C456 C455 1.524 . S
C456 C457 1.415 . S
C457 H427 0.950 . S
C457 C452 1.363 . S
C457 C456 1.415 . S
H458 C455 0.999 . S
H459 C440 0.913 . S
H460 C478 0.951 . S
H461 C480 0.951 . S
H462 C482 0.950 . S
H463 C483 0.950 . S
H464 C485 0.950 . S
H465 C488 0.950 . S
H466 C489 0.951 . S
H467 C491 0.950 . S
H468 C492 0.950 . S
H469 C493 0.951 . S
H470 C495 0.951 . S
H471 C497 0.950 . S
H472 C498 0.950 . S
H473 C500 0.950 1_455 S
H474 C503 0.950 . S
H475 C504 0.960 . S
H476 C506 0.950 . S
H477 C507 0.950 . S
C478 H460 0.951 . S
C478 C479 1.366 . S
C478 C480 1.388 . S
C479 C478 1.366 . S
C479 C483 1.385 . S
C480 H461 0.951 . S
C480 C478 1.388 . S
C480 C481 1.366 . S
C481 C480 1.366 . S
C481 C482 1.414 . S
C481 C484 1.499 . S
C482 H462 0.950 . S
C482 C481 1.414 . S
C482 C483 1.374 . S
C483 H463 0.950 . S
C483 C479 1.385 . S
C483 C482 1.374 . S
C484 C481 1.499 . S
C484 C485 1.373 . S
C484 C486 1.389 . S
C485 H464 0.950 . S
C485 C484 1.373 . S
C485 C501 1.377 . S
C486 C484 1.389 . S
C486 C487 1.524 . S
C486 C500 1.377 . S
C487 C486 1.524 . S
C487 C488 1.397 . S
C487 C492 1.363 . S
C488 H465 0.950 . S
C488 C487 1.397 . S
C488 C489 1.334 . S
C489 H466 0.951 . S
C489 C488 1.334 . S
C489 C490 1.287 . S
C490 C489 1.287 . S
C490 C491 1.524 . S
C490 H509 0.913 1_545 S
C491 H467 0.950 . S
C491 C490 1.524 . S
C491 C492 1.415 . S
C492 H468 0.950 . S
C492 C487 1.363 . S
C492 C491 1.415 . S
C493 H469 0.951 . S
C493 C494 1.366 . S
C493 C495 1.388 . S
C494 C493 1.366 . S
C494 C498 1.385 . S
C495 H470 0.951 . S
C495 C493 1.388 . S
C495 C496 1.366 . S
C496 C495 1.366 . S
C496 C497 1.414 . S
C496 C499 1.499 1_455 S
C497 H471 0.950 . S
C497 C496 1.414 . S
C497 C498 1.374 . S
C498 H472 0.950 . S
C498 C494 1.385 . S
C498 C497 1.374 . S
C499 C496 1.499 1_655 S
C499 C500 1.373 . S
C499 C501 1.389 . S
C500 H473 0.950 1_655 S
C500 C486 1.377 . S
C500 C499 1.373 . S
C501 C485 1.377 . S
C501 C499 1.389 . S
C501 C502 1.524 . S
C502 C501 1.524 . S
C502 C503 1.397 . S
C502 C507 1.363 . S
C503 H474 0.950 . S
C503 C502 1.397 . S
C503 C504 1.334 . S
C504 H475 0.960 . S
C504 C503 1.334 . S
C504 C505 1.287 . S
C505 C504 1.287 . S
C505 C506 1.524 . S
C505 H508 0.999 . S
C506 H476 0.950 . S
C506 C505 1.524 . S
C506 C507 1.415 . S
C507 H477 0.950 . S
C507 C502 1.363 . S
C507 C506 1.415 . S
H508 C505 0.999 . S
H509 C490 0.913 1_565 S
H510 C528 0.951 . S
H511 C530 0.951 . S
H512 C532 0.950 . S
H513 C533 0.950 . S
H514 C535 0.950 . S
H515 C538 0.950 . S
H516 C539 0.950 . S
H517 C541 0.950 . S
H518 C542 0.950 . S
H519 C543 0.951 . S
H520 C545 0.951 . S
H521 C547 0.950 . S
H522 C548 0.950 1_545 S
H523 C550 0.950 . S
H524 C553 0.950 . S
H525 C554 0.950 . S
H526 C556 0.950 . S
H527 C557 0.950 . S
C528 H510 0.951 . S
C528 C529 1.366 . S
C528 C530 1.388 . S
C529 C528 1.366 . S
C529 C533 1.385 . S
C530 H511 0.951 . S
C530 C528 1.388 . S
C530 C531 1.366 . S
C531 C530 1.366 . S
C531 C532 1.414 . S
C531 C534 1.499 . S
C532 H512 0.950 . S
C532 C531 1.414 . S
C532 C533 1.374 . S
C533 H513 0.950 . S
C533 C529 1.385 . S
C533 C532 1.374 . S
C534 C531 1.499 . S
C534 C535 1.373 . S
C534 C536 1.389 . S
C535 H514 0.950 . S
C535 C534 1.373 . S
C535 C551 1.377 . S
C536 C534 1.389 . S
C536 C537 1.524 . S
C536 C550 1.377 . S
C537 C536 1.524 . S
C537 C538 1.397 . S
C537 C542 1.363 . S
C538 H515 0.950 . S
C538 C537 1.397 . S
C538 C539 1.334 . S
C539 H516 0.950 . S
C539 C538 1.334 . S
C539 C540 1.287 . S
C540 C539 1.287 . S
C540 C541 1.524 . S
C540 H559 0.913 . S
C541 H517 0.950 . S
C541 C540 1.524 . S
C541 C542 1.415 . S
C542 H518 0.950 . S
C542 C537 1.363 . S
C542 C541 1.415 . S
C543 H519 0.951 . S
C543 C544 1.366 . S
C543 C545 1.388 1_545 S
C544 C543 1.366 . S
C544 C548 1.385 1_545 S
C545 H520 0.951 . S
C545 C543 1.388 1_565 S
C545 C546 1.366 . S
C546 C545 1.366 . S
C546 C547 1.414 . S
C546 C549 1.499 . S
C547 H521 0.950 . S
C547 C546 1.414 . S
C547 C548 1.374 . S
C548 H522 0.950 1_565 S
C548 C544 1.385 1_565 S
C548 C547 1.374 . S
C549 C546 1.499 . S
C549 C550 1.373 . S
C549 C551 1.389 . S
C550 H523 0.950 . S
C550 C536 1.377 . S
C550 C549 1.373 . S
C551 C535 1.377 . S
C551 C549 1.389 . S
C551 C552 1.524 . S
C552 C551 1.524 . S
C552 C553 1.397 . S
C552 C557 1.363 . S
C553 H524 0.950 . S
C553 C552 1.397 . S
C553 C554 1.334 . S
C554 H525 0.950 . S
C554 C553 1.334 . S
C554 C555 1.287 . S
C555 C554 1.287 . S
C555 C556 1.524 . S
C555 H558 0.999 . S
C556 H526 0.950 . S
C556 C555 1.524 . S
C556 C557 1.415 . S
C557 H527 0.950 . S
C557 C552 1.363 . S
C557 C556 1.415 . S
H558 C555 0.999 . S
H559 C540 0.913 . S
H560 C578 0.951 . S
H561 C580 0.951 . S
H562 C582 0.950 . S
H563 C583 0.950 1_455 S
H564 C585 0.950 . S
H565 C588 0.950 . S
H566 C589 0.950 . S
H567 C591 0.950 . S
H568 C592 0.950 . S
H569 C593 0.951 . S
H570 C595 0.951 . S
H571 C597 0.950 . S
H572 C598 0.950 . S
H573 C600 0.950 . S
H574 C603 0.950 . S
H575 C604 0.950 . S
H576 C606 0.950 . S
H577 C607 0.950 . S
C578 H560 0.951 . S
C578 C579 1.366 . S
C578 C580 1.388 . S
C579 C578 1.366 . S
C579 C583 1.385 . S
C580 H561 0.951 . S
C580 C578 1.388 . S
C580 C581 1.366 . S
C581 C580 1.366 . S
C581 C582 1.414 . S
C581 C584 1.499 . S
C582 H562 0.950 . S
C582 C581 1.414 . S
C582 C583 1.374 . S
C583 H563 0.950 1_655 S
C583 C579 1.385 . S
C583 C582 1.374 . S
C584 C581 1.499 . S
C584 C585 1.373 . S
C584 C586 1.389 . S
C585 H564 0.950 . S
C585 C584 1.373 . S
C585 C601 1.377 . S
C586 C584 1.389 . S
C586 C587 1.524 . S
C586 C600 1.377 . S
C587 C586 1.524 . S
C587 C588 1.397 . S
C587 C592 1.363 . S
C588 H565 0.950 . S
C588 C587 1.397 . S
C588 C589 1.334 . S
C589 H566 0.950 . S
C589 C588 1.334 . S
C589 C590 1.287 . S
C590 C589 1.287 . S
C590 C591 1.524 . S
C590 H609 0.913 . S
C591 H567 0.950 . S
C591 C590 1.524 . S
C591 C592 1.415 . S
C592 H568 0.950 . S
C592 C587 1.363 . S
C592 C591 1.415 . S
C593 H569 0.951 . S
C593 C594 1.366 . S
C593 C595 1.388 . S
C594 C593 1.366 . S
C594 C598 1.385 . S
C595 H570 0.951 . S
C595 C593 1.388 . S
C595 C596 1.366 . S
C596 C595 1.366 . S
C596 C597 1.414 . S
C596 C599 1.499 . S
C597 H571 0.950 . S
C597 C596 1.414 . S
C597 C598 1.374 . S
C598 H572 0.950 . S
C598 C594 1.385 . S
C598 C597 1.374 . S
C599 C596 1.499 . S
C599 C600 1.373 . S
C599 C601 1.389 . S
C600 H573 0.950 . S
C600 C586 1.377 . S
C600 C599 1.373 . S
C601 C585 1.377 . S
C601 C599 1.389 . S
C601 C602 1.524 . S
C602 C601 1.524 . S
C602 C603 1.397 . S
C602 C607 1.363 . S
C603 H574 0.950 . S
C603 C602 1.397 . S
C603 C604 1.334 . S
C604 H575 0.950 . S
C604 C603 1.334 . S
C604 C605 1.287 . S
C605 C604 1.287 . S
C605 C606 1.524 . S
C605 H608 0.999 . S
C606 H576 0.950 . S
C606 C605 1.524 . S
C606 C607 1.415 . S
C607 H577 0.950 . S
C607 C602 1.363 . S
C607 C606 1.415 . S
H608 C605 0.999 . S
H609 C590 0.913 . S
H610 C628 0.951 . S
H611 C630 0.951 . S
H612 C632 0.950 . S
H613 C633 0.950 . S
H614 C635 0.950 . S
H615 C638 0.950 . S
H616 C639 0.950 . S
H617 C641 0.950 . S
H618 C642 0.950 . S
H619 C643 0.951 . S
H620 C645 0.951 . S
H621 C647 0.950 . S
H622 C648 0.950 . S
H623 C650 0.950 . S
H624 C653 0.950 . S
H625 C654 0.950 . S
H626 C656 0.950 . S
H627 C657 0.950 . S
C628 H610 0.951 . S
C628 C629 1.366 . S
C628 C630 1.388 1_655 S
C629 C628 1.366 . S
C629 C633 1.385 . S
C630 H611 0.951 . S
C630 C628 1.388 1_455 S
C630 C631 1.366 . S
C631 C630 1.366 . S
C631 C632 1.414 . S
C631 C634 1.499 . S
C632 H612 0.950 . S
C632 C631 1.414 . S
C632 C633 1.374 1_455 S
C633 H613 0.950 . S
C633 C629 1.385 . S
C633 C632 1.374 1_655 S
C634 C631 1.499 . S
C634 C635 1.373 . S
C634 C636 1.389 . S
C635 H614 0.950 . S
C635 C634 1.373 . S
C635 C651 1.377 . S
C636 C634 1.389 . S
C636 C637 1.524 . S
C636 C650 1.377 . S
C637 C636 1.524 . S
C637 C638 1.397 . S
C637 C642 1.363 . S
C638 H615 0.950 . S
C638 C637 1.397 . S
C638 C639 1.334 . S
C639 H616 0.950 . S
C639 C638 1.334 . S
C639 C640 1.287 . S
C640 C639 1.287 . S
C640 C641 1.524 . S
C640 H659 0.913 . S
C641 H617 0.950 . S
C641 C640 1.524 . S
C641 C642 1.415 . S
C642 H618 0.950 . S
C642 C637 1.363 . S
C642 C641 1.415 . S
C643 H619 0.951 . S
C643 C644 1.366 . S
C643 C645 1.388 . S
C644 C643 1.366 . S
C644 C648 1.385 . S
C645 H620 0.951 . S
C645 C643 1.388 . S
C645 C646 1.366 1_545 S
C646 C645 1.366 1_565 S
C646 C647 1.414 . S
C646 C649 1.499 . S
C647 H621 0.950 . S
C647 C646 1.414 . S
C647 C648 1.374 1_565 S
C648 H622 0.950 . S
C648 C644 1.385 . S
C648 C647 1.374 1_545 S
C649 C646 1.499 . S
C649 C650 1.373 . S
C649 C651 1.389 . S
C650 H623 0.950 . S
C650 C636 1.377 . S
C650 C649 1.373 . S
C651 C635 1.377 . S
C651 C649 1.389 . S
C651 C652 1.524 . S
C652 C651 1.524 . S
C652 C653 1.397 . S
C652 C657 1.363 . S
C653 H624 0.950 . S
C653 C652 1.397 . S
C653 C654 1.334 . S
C654 H625 0.950 . S
C654 C653 1.334 . S
C654 C655 1.287 . S
C655 C654 1.287 . S
C655 C656 1.524 . S
C655 H658 0.999 . S
C656 H626 0.950 . S
C656 C655 1.524 . S
C656 C657 1.415 . S
C657 H627 0.950 . S
C657 C652 1.363 . S
C657 C656 1.415 . S
H658 C655 0.999 . S
H659 C640 0.913 . S
H660 C678 0.951 . S
H661 C680 0.951 . S
H662 C682 0.950 . S
H663 C683 0.950 . S
H664 C685 0.950 . S
H665 C688 0.950 . S
H666 C689 0.938 1_455 S
H667 C691 0.950 . S
H668 C692 0.950 . S
H669 C693 0.951 . S
H670 C695 0.951 . S
H671 C697 0.950 . S
H672 C698 0.950 . S
H673 C700 0.950 . S
H674 C703 0.950 . S
H675 C704 0.950 . S
H676 C706 0.950 . S
H677 C707 0.950 . S
C678 H660 0.951 . S
C678 C679 1.366 . S
C678 C680 1.388 1_455 S
C679 C678 1.366 . S
C679 C683 1.385 . S
C680 H661 0.951 . S
C680 C678 1.388 1_655 S
C680 C681 1.366 . S
C681 C680 1.366 . S
C681 C682 1.414 . S
C681 C684 1.499 . S
C682 H662 0.950 . S
C682 C681 1.414 . S
C682 C683 1.374 1_655 S
C683 H663 0.950 . S
C683 C679 1.385 . S
C683 C682 1.374 1_455 S
C684 C681 1.499 . S
C684 C685 1.373 . S
C684 C686 1.389 . S
C685 H664 0.950 . S
C685 C684 1.373 . S
C685 C701 1.377 . S
C686 C684 1.389 . S
C686 C687 1.524 . S
C686 C700 1.377 . S
C687 C686 1.524 . S
C687 C688 1.397 . S
C687 C692 1.363 . S
C688 H665 0.950 . S
C688 C687 1.397 . S
C688 C689 1.343 . S
C689 H666 0.938 1_655 S
C689 C688 1.343 . S
C689 C690 1.292 . S
C690 C689 1.292 . S
C690 C691 1.524 . S
C690 H709 0.913 1_655 S
C691 H667 0.950 . S
C691 C690 1.524 . S
C691 C692 1.415 . S
C692 H668 0.950 . S
C692 C687 1.363 . S
C692 C691 1.415 . S
C693 H669 0.951 . S
C693 C694 1.366 . S
C693 C695 1.388 . S
C694 C693 1.366 . S
C694 C698 1.385 . S
C695 H670 0.951 . S
C695 C693 1.388 . S
C695 C696 1.366 . S
C696 C695 1.366 . S
C696 C697 1.414 . S
C696 C699 1.499 . S
C697 H671 0.950 . S
C697 C696 1.414 . S
C697 C698 1.374 . S
C698 H672 0.950 . S
C698 C694 1.385 . S
C698 C697 1.374 . S
C699 C696 1.499 . S
C699 C700 1.373 . S
C699 C701 1.389 . S
C700 H673 0.950 . S
C700 C686 1.377 . S
C700 C699 1.373 . S
C701 C685 1.377 . S
C701 C699 1.389 . S
C701 C702 1.524 . S
C702 C701 1.524 . S
C702 C703 1.397 . S
C702 C707 1.363 . S
C703 H674 0.950 . S
C703 C702 1.397 . S
C703 C704 1.334 . S
C704 H675 0.950 . S
C704 C703 1.334 . S
C704 C705 1.287 . S
C705 C704 1.287 . S
C705 C706 1.524 . S
C705 H708 0.999 . S
C706 H676 0.950 . S
C706 C705 1.524 . S
C706 C707 1.415 . S
C707 H677 0.950 . S
C707 C702 1.363 . S
C707 C706 1.415 . S
H708 C705 0.999 . S
H709 C690 0.913 1_455 S
H710 C728 0.951 . S
H711 C730 0.951 . S
H712 C732 0.950 . S
H713 C733 0.950 . S
H714 C735 0.950 . S
H715 C738 0.950 . S
H716 C739 0.950 . S
H717 C741 0.950 . S
H718 C742 0.950 . S
H719 C743 0.965 1_545 S
H720 C745 0.951 . S
H721 C747 0.950 . S
H722 C748 0.950 . S
H723 C750 0.950 . S
H724 C753 0.950 . S
H725 C754 0.950 . S
H726 C756 0.950 . S
H727 C757 0.950 . S
C728 H710 0.951 . S
C728 C729 1.366 . S
C728 C730 1.388 . S
C729 C728 1.366 . S
C729 C733 1.385 . S
C730 H711 0.951 . S
C730 C728 1.388 . S
C730 C731 1.366 1_655 S
C731 C730 1.366 1_455 S
C731 C732 1.414 . S
C731 C734 1.499 . S
C732 H712 0.950 . S
C732 C731 1.414 . S
C732 C733 1.374 1_455 S
C733 H713 0.950 . S
C733 C729 1.385 . S
C733 C732 1.374 1_655 S
C734 C731 1.499 . S
C734 C735 1.373 . S
C734 C736 1.389 . S
C735 H714 0.950 . S
C735 C734 1.373 . S
C735 C751 1.377 . S
C736 C734 1.389 . S
C736 C737 1.524 . S
C736 C750 1.377 . S
C737 C736 1.524 . S
C737 C738 1.397 . S
C737 C742 1.363 . S
C738 H715 0.950 . S
C738 C737 1.397 . S
C738 C739 1.334 . S
C739 H716 0.950 . S
C739 C738 1.334 . S
C739 C740 1.287 . S
C740 C739 1.287 . S
C740 C741 1.524 . S
C740 H759 0.913 . S
C741 H717 0.950 . S
C741 C740 1.524 . S
C741 C742 1.415 . S
C742 H718 0.950 . S
C742 C737 1.363 . S
C742 C741 1.415 . S
C743 H719 0.965 1_565 S
C743 C744 1.330 1_565 S
C743 C745 1.410 . S
C744 C743 1.330 1_545 S
C744 C748 1.385 . S
C745 H720 0.951 . S
C745 C743 1.410 . S
C745 C746 1.366 . S
C746 C745 1.366 . S
C746 C747 1.414 . S
C746 C749 1.499 . S
C747 H721 0.950 . S
C747 C746 1.414 . S
C747 C748 1.374 1_565 S
C748 H722 0.950 . S
C748 C744 1.385 . S
C748 C747 1.374 1_545 S
C749 C746 1.499 . S
C749 C750 1.373 . S
C749 C751 1.389 . S
C750 H723 0.950 . S
C750 C736 1.377 . S
C750 C749 1.373 . S
C751 C735 1.377 . S
C751 C749 1.389 . S
C751 C752 1.524 . S
C752 C751 1.524 . S
C752 C753 1.397 . S
C752 C757 1.363 . S
C753 H724 0.950 . S
C753 C752 1.397 . S
C753 C754 1.334 . S
C754 H725 0.950 . S
C754 C753 1.334 . S
C754 C755 1.287 . S
C755 C754 1.287 . S
C755 C756 1.524 . S
C755 H758 0.999 . S
C756 H726 0.950 . S
C756 C755 1.524 . S
C756 C757 1.415 . S
C757 H727 0.950 . S
C757 C752 1.363 . S
C757 C756 1.415 . S
H758 C755 0.999 . S
H759 C740 0.913 . S
H760 C778 0.951 . S
H761 C780 0.951 . S
H762 C782 0.950 . S
H763 C783 0.950 . S
H764 C785 0.950 . S
H765 C788 0.950 . S
H766 C789 0.950 . S
H767 C791 0.950 . S
H768 C792 0.950 . S
H769 C793 0.951 . S
H770 C795 0.951 . S
H771 C797 0.950 . S
H772 C798 0.950 . S
H773 C800 0.950 . S
H774 C803 0.950 . S
H775 C804 0.950 . S
H776 C806 0.950 . S
H777 C807 0.950 . S
C778 H760 0.951 . S
C778 C779 1.366 . S
C778 C780 1.388 . S
C779 C778 1.366 . S
C779 C783 1.385 . S
C780 H761 0.951 . S
C780 C778 1.388 . S
C780 C781 1.366 . S
C781 C780 1.366 . S
C781 C782 1.414 . S
C781 C784 1.499 . S
C782 H762 0.950 . S
C782 C781 1.414 . S
C782 C783 1.374 . S
C783 H763 0.950 . S
C783 C779 1.385 . S
C783 C782 1.374 . S
C784 C781 1.499 . S
C784 C785 1.373 . S
C784 C786 1.389 . S
C785 H764 0.950 . S
C785 C784 1.373 . S
C785 C801 1.377 . S
C786 C784 1.389 . S
C786 C787 1.524 . S
C786 C800 1.377 . S
C787 C786 1.524 . S
C787 C788 1.397 . S
C787 C792 1.363 . S
C788 H765 0.950 . S
C788 C787 1.397 . S
C788 C789 1.334 . S
C789 H766 0.950 . S
C789 C788 1.334 . S
C789 C790 1.287 . S
C790 C789 1.287 . S
C790 C791 1.524 . S
C790 H809 0.913 . S
C791 H767 0.950 . S
C791 C790 1.524 . S
C791 C792 1.415 . S
C792 H768 0.950 . S
C792 C787 1.363 . S
C792 C791 1.415 . S
C793 H769 0.951 . S
C793 C794 1.366 . S
C793 C795 1.388 . S
C794 C793 1.366 . S
C794 C798 1.385 . S
C795 H770 0.951 . S
C795 C793 1.388 . S
C795 C796 1.366 1_565 S
C796 C795 1.366 1_545 S
C796 C797 1.414 . S
C796 C799 1.499 . S
C797 H771 0.950 . S
C797 C796 1.414 . S
C797 C798 1.374 1_545 S
C798 H772 0.950 . S
C798 C794 1.385 . S
C798 C797 1.374 1_565 S
C799 C796 1.499 . S
C799 C800 1.373 . S
C799 C801 1.389 . S
C800 H773 0.950 . S
C800 C786 1.377 . S
C800 C799 1.373 . S
C801 C785 1.377 . S
C801 C799 1.389 . S
C801 C802 1.524 . S
C802 C801 1.524 . S
C802 C803 1.397 . S
C802 C807 1.363 . S
C803 H774 0.950 . S
C803 C802 1.397 . S
C803 C804 1.334 . S
C804 H775 0.950 . S
C804 C803 1.334 . S
C804 C805 1.287 . S
C805 C804 1.287 . S
C805 C806 1.524 . S
C805 H808 0.999 . S
C806 H776 0.950 . S
C806 C805 1.524 . S
C806 C807 1.415 . S
C807 H777 0.950 . S
C807 C802 1.363 . S
C807 C806 1.415 . S
H808 C805 0.999 . S
H809 C790 0.913 . S
H810 C828 0.951 . S
H811 C830 0.951 . S
H812 C832 0.950 . S
H813 C833 0.950 . S
H814 C835 0.950 . S
H815 C838 0.950 . S
H816 C839 0.950 . S
H817 C841 0.950 . S
H818 C842 0.950 . S
H819 C843 0.951 . S
H820 C845 0.951 . S
H821 C847 0.950 . S
H822 C848 0.950 1_655 S
H823 C850 0.950 . S
H824 C853 0.950 . S
H825 C854 0.950 . S
H826 C856 0.950 . S
H827 C857 0.950 . S
C828 H810 0.951 . S
C828 C829 1.366 . S
C828 C830 1.388 . S
C829 C828 1.366 . S
C829 C833 1.385 . S
C830 H811 0.951 . S
C830 C828 1.388 . S
C830 C831 1.366 . S
C831 C830 1.366 . S
C831 C832 1.414 . S
C831 C834 1.499 . S
C832 H812 0.950 . S
C832 C831 1.414 . S
C832 C833 1.374 . S
C833 H813 0.950 . S
C833 C829 1.385 . S
C833 C832 1.374 . S
C834 C831 1.499 . S
C834 C835 1.373 . S
C834 C836 1.389 . S
C835 H814 0.950 . S
C835 C834 1.373 . S
C835 C851 1.377 . S
C836 C834 1.389 . S
C836 C837 1.524 . S
C836 C850 1.377 . S
C837 C836 1.524 . S
C837 C838 1.397 . S
C837 C842 1.363 . S
C838 H815 0.950 . S
C838 C837 1.397 . S
C838 C839 1.334 . S
C839 H816 0.950 . S
C839 C838 1.334 . S
C839 C840 1.287 . S
C840 C839 1.287 . S
C840 C841 1.524 . S
C840 H859 0.913 . S
C841 H817 0.950 . S
C841 C840 1.524 . S
C841 C842 1.415 . S
C842 H818 0.950 . S
C842 C837 1.363 . S
C842 C841 1.415 . S
C843 H819 0.951 . S
C843 C844 1.366 . S
C843 C845 1.388 1_655 S
C844 C843 1.366 . S
C844 C848 1.385 1_655 S
C845 H820 0.951 . S
C845 C843 1.388 1_455 S
C845 C846 1.366 . S
C846 C845 1.366 . S
C846 C847 1.414 . S
C846 C849 1.499 . S
C847 H821 0.950 . S
C847 C846 1.414 . S
C847 C848 1.374 . S
C848 H822 0.950 1_455 S
C848 C844 1.385 1_455 S
C848 C847 1.374 . S
C849 C846 1.499 . S
C849 C850 1.373 . S
C849 C851 1.389 . S
C850 H823 0.950 . S
C850 C836 1.377 . S
C850 C849 1.373 . S
C851 C835 1.377 . S
C851 C849 1.389 . S
C851 C852 1.524 . S
C852 C851 1.524 . S
C852 C853 1.397 . S
C852 C857 1.363 . S
C853 H824 0.950 . S
C853 C852 1.397 . S
C853 C854 1.334 . S
C854 H825 0.950 . S
C854 C853 1.334 . S
C854 C855 1.287 . S
C855 C854 1.287 . S
C855 C856 1.524 . S
C855 H858 0.999 . S
C856 H826 0.950 . S
C856 C855 1.524 . S
C856 C857 1.415 . S
C857 H827 0.950 . S
C857 C852 1.363 . S
C857 C856 1.415 . S
H858 C855 0.999 . S
H859 C840 0.913 . S
H860 C878 0.951 . S
H861 C880 0.951 . S
H862 C882 0.950 . S
H863 C883 0.950 . S
H864 C885 0.950 . S
H865 C888 0.950 . S
H866 C889 0.950 . S
H867 C891 0.950 1_455 S
H868 C892 0.950 . S
H869 C893 0.951 1_565 S
H870 C895 0.951 . S
H871 C897 0.950 . S
H872 C898 0.950 . S
H873 C900 0.950 . S
H874 C903 0.950 . S
H875 C904 0.950 . S
H876 C906 0.950 . S
H877 C907 0.950 . S
C878 H860 0.951 . S
C878 C879 1.366 . S
C878 C880 1.388 . S
C879 C878 1.366 . S
C879 C883 1.385 . S
C880 H861 0.951 . S
C880 C878 1.388 . S
C880 C881 1.366 1_455 S
C881 C880 1.366 1_655 S
C881 C882 1.414 . S
C881 C884 1.499 . S
C882 H862 0.950 . S
C882 C881 1.414 . S
C882 C883 1.374 1_655 S
C883 H863 0.950 . S
C883 C879 1.385 . S
C883 C882 1.374 1_455 S
C884 C881 1.499 . S
C884 C885 1.373 . S
C884 C886 1.389 . S
C885 H864 0.950 . S
C885 C884 1.373 . S
C885 C901 1.377 . S
C886 C884 1.389 . S
C886 C887 1.524 . S
C886 C900 1.377 . S
C887 C886 1.524 . S
C887 C888 1.397 . S
C887 C892 1.363 . S
C888 H865 0.950 . S
C888 C887 1.397 . S
C888 C889 1.334 . S
C889 H866 0.950 . S
C889 C888 1.334 . S
C889 C890 1.287 . S
C890 C889 1.287 . S
C890 C891 1.524 . S
C890 H909 0.913 1_655 S
C891 H867 0.950 1_655 S
C891 C890 1.524 . S
C891 C892 1.415 . S
C892 H868 0.950 . S
C892 C887 1.363 . S
C892 C891 1.415 . S
C893 H869 0.951 1_545 S
C893 C894 1.366 1_545 S
C893 C895 1.388 . S
C894 C893 1.366 1_565 S
C894 C898 1.385 . S
C895 H870 0.951 . S
C895 C893 1.388 . S
C895 C896 1.366 . S
C896 C895 1.366 . S
C896 C897 1.414 . S
C896 C899 1.499 . S
C897 H871 0.950 . S
C897 C896 1.414 . S
C897 C898 1.374 1_545 S
C898 H872 0.950 . S
C898 C894 1.385 . S
C898 C897 1.374 1_565 S
C899 C896 1.499 . S
C899 C900 1.373 . S
C899 C901 1.389 . S
C900 H873 0.950 . S
C900 C886 1.377 . S
C900 C899 1.373 . S
C901 C885 1.377 . S
C901 C899 1.389 . S
C901 C902 1.524 . S
C902 C901 1.524 . S
C902 C903 1.397 . S
C902 C907 1.363 . S
C903 H874 0.950 . S
C903 C902 1.397 . S
C903 C904 1.334 . S
C904 H875 0.950 . S
C904 C903 1.334 . S
C904 C905 1.287 . S
C905 C904 1.287 . S
C905 C906 1.524 . S
C905 H908 0.999 . S
C906 H876 0.950 . S
C906 C905 1.524 . S
C906 C907 1.415 . S
C907 H877 0.950 . S
C907 C902 1.363 . S
C907 C906 1.415 . S
H908 C905 0.999 . S
H909 C890 0.913 1_455 S
H910 C928 0.951 . S
H911 C930 0.951 . S
H912 C932 0.950 . S
H913 C933 0.950 . S
H914 C935 0.950 . S
H915 C938 0.950 . S
H916 C939 0.950 . S
H917 C941 0.950 . S
H918 C942 0.950 . S
H919 C943 0.951 . S
H920 C945 0.951 . S
H921 C947 0.950 . S
H922 C948 0.950 . S
H923 C950 0.950 . S
H924 C953 0.950 . S
H925 C954 0.950 . S
H926 C956 0.950 . S
H927 C957 0.950 . S
C928 H910 0.951 . S
C928 C929 1.366 . S
C928 C930 1.388 . S
C929 C928 1.366 . S
C929 C933 1.385 . S
C930 H911 0.951 . S
C930 C928 1.388 . S
C930 C931 1.366 . S
C931 C930 1.366 . S
C931 C932 1.414 . S
C931 C934 1.499 . S
C932 H912 0.950 . S
C932 C931 1.414 . S
C932 C933 1.374 . S
C933 H913 0.950 . S
C933 C929 1.385 . S
C933 C932 1.374 . S
C934 C931 1.499 . S
C934 C935 1.373 . S
C934 C936 1.389 . S
C935 H914 0.950 . S
C935 C934 1.373 . S
C935 C951 1.377 . S
C936 C934 1.389 . S
C936 C937 1.524 . S
C936 C950 1.377 . S
C937 C936 1.524 . S
C937 C938 1.397 . S
C937 C942 1.363 . S
C938 H915 0.950 . S
C938 C937 1.397 . S
C938 C939 1.334 . S
C939 H916 0.950 . S
C939 C938 1.334 . S
C939 C940 1.287 . S
C940 C939 1.287 . S
C940 C941 1.524 . S
C940 H959 0.913 . S
C941 H917 0.950 . S
C941 C940 1.524 . S
C941 C942 1.415 . S
C942 H918 0.950 . S
C942 C937 1.363 . S
C942 C941 1.415 . S
C943 H919 0.951 . S
C943 C944 1.366 . S
C943 C945 1.388 1_545 S
C944 C943 1.366 . S
C944 C948 1.385 . S
C945 H920 0.951 . S
C945 C943 1.388 1_565 S
C945 C946 1.366 . S
C946 C945 1.366 . S
C946 C947 1.414 1_565 S
C946 C949 1.499 . S
C947 H921 0.950 . S
C947 C946 1.414 1_545 S
C947 C948 1.374 . S
C948 H922 0.950 . S
C948 C944 1.385 . S
C948 C947 1.374 . S
C949 C946 1.499 . S
C949 C950 1.373 . S
C949 C951 1.389 . S
C950 H923 0.950 . S
C950 C936 1.377 . S
C950 C949 1.373 . S
C951 C935 1.377 . S
C951 C949 1.389 . S
C951 C952 1.524 . S
C952 C951 1.524 . S
C952 C953 1.397 . S
C952 C957 1.363 . S
C953 H924 0.950 . S
C953 C952 1.397 . S
C953 C954 1.334 . S
C954 H925 0.950 . S
C954 C953 1.334 . S
C954 C955 1.287 . S
C955 C954 1.287 . S
C955 C956 1.524 . S
C955 H958 0.999 . S
C956 H926 0.950 . S
C956 C955 1.524 . S
C956 C957 1.415 . S
C957 H927 0.950 . S
C957 C952 1.363 . S
C957 C956 1.415 . S
H958 C955 0.999 . S
H959 C940 0.913 . S
H960 C978 0.951 . S
H961 C980 0.951 . S
H962 C982 0.950 . S
H963 C983 0.950 . S
H964 C985 0.950 . S
H965 C988 0.950 . S
H966 C989 0.950 . S
H967 C991 0.962 . S
H968 C992 0.950 . S
H969 C993 0.951 . S
H970 C995 0.951 . S
H971 C997 0.950 . S
H972 C998 0.950 . S
H973 C1000 0.950 . S
H974 C1003 0.950 . S
H975 C1004 0.950 . S
H976 C1006 0.950 . S
H977 C1007 0.950 . S
C978 H960 0.951 . S
C978 C979 1.366 . S
C978 C980 1.388 . S
C979 C978 1.366 . S
C979 C983 1.385 . S
C980 H961 0.951 . S
C980 C978 1.388 . S
C980 C981 1.366 . S
C981 C980 1.366 . S
C981 C982 1.414 . S
C981 C984 1.499 . S
C982 H962 0.950 . S
C982 C981 1.414 . S
C982 C983 1.374 . S
C983 H963 0.950 . S
C983 C979 1.385 . S
C983 C982 1.374 . S
C984 C981 1.499 . S
C984 C985 1.373 . S
C984 C986 1.389 . S
C985 H964 0.950 . S
C985 C984 1.373 . S
C985 C1001 1.377 . S
C986 C984 1.389 . S
C986 C987 1.524 . S
C986 C1000 1.377 . S
C987 C986 1.524 . S
C987 C988 1.397 . S
C987 C992 1.363 . S
C988 H965 0.950 . S
C988 C987 1.397 . S
C988 C989 1.334 . S
C989 H966 0.950 . S
C989 C988 1.334 . S
C989 C990 1.304 . S
C990 C989 1.304 . S
C990 C991 1.535 1_455 S
C990 H1009 0.886 1_455 S
C991 H967 0.962 . S
C991 C990 1.535 1_655 S
C991 C992 1.397 1_655 S
C992 H968 0.950 . S
C992 C987 1.363 . S
C992 C991 1.397 1_455 S
C993 H969 0.951 . S
C993 C994 1.366 . S
C993 C995 1.388 . S
C994 C993 1.366 . S
C994 C998 1.385 . S
C995 H970 0.951 . S
C995 C993 1.388 . S
C995 C996 1.366 . S
C996 C995 1.366 . S
C996 C997 1.414 . S
C996 C999 1.499 . S
C997 H971 0.950 . S
C997 C996 1.414 . S
C997 C998 1.374 . S
C998 H972 0.950 . S
C998 C994 1.385 . S
C998 C997 1.374 . S
C999 C996 1.499 . S
C999 C1000 1.373 . S
C999 C1001 1.389 . S
C1000 H973 0.950 . S
C1000 C986 1.377 . S
C1000 C999 1.373 . S
C1001 C985 1.377 . S
C1001 C999 1.389 . S
C1001 C1002 1.524 . S
C1002 C1001 1.524 . S
C1002 C1003 1.397 . S
C1002 C1007 1.363 . S
C1003 H974 0.950 . S
C1003 C1002 1.397 . S
C1003 C1004 1.334 . S
C1004 H975 0.950 . S
C1004 C1003 1.334 . S
C1004 C1005 1.287 . S
C1005 C1004 1.287 . S
C1005 C1006 1.524 . S
C1005 H1008 0.999 . S
C1006 H976 0.950 . S
C1006 C1005 1.524 . S
C1006 C1007 1.415 . S
C1007 H977 0.950 . S
C1007 C1002 1.363 . S
C1007 C1006 1.415 . S
H1008 C1005 0.999 . S
H1009 C990 0.886 1_655 S
H1010 C1028 0.951 . S
H1011 C1030 0.951 . S
H1012 C1032 0.950 . S
H1013 C1033 0.950 . S
H1014 C1035 0.950 . S
H1015 C1038 0.950 . S
H1016 C1039 0.950 . S
H1017 C1041 0.950 . S
H1018 C1042 0.950 . S
H1019 C1043 0.951 . S
H1020 C1045 0.951 . S
H1021 C1047 0.950 . S
H1022 C1048 0.950 . S
H1023 C1050 0.950 . S
H1024 C1053 0.950 . S
H1025 C1054 0.950 . S
H1026 C1056 0.950 1_565 S
H1027 C1057 0.950 . S
C1028 H1010 0.951 . S
C1028 C1029 1.366 . S
C1028 C1030 1.388 . S
C1029 C1028 1.366 . S
C1029 C1033 1.385 . S
C1030 H1011 0.951 . S
C1030 C1028 1.388 . S
C1030 C1031 1.366 . S
C1031 C1030 1.366 . S
C1031 C1032 1.414 . S
C1031 C1034 1.499 . S
C1032 H1012 0.950 . S
C1032 C1031 1.414 . S
C1032 C1033 1.374 . S
C1033 H1013 0.950 . S
C1033 C1029 1.385 . S
C1033 C1032 1.374 . S
C1034 C1031 1.499 . S
C1034 C1035 1.373 . S
C1034 C1036 1.389 . S
C1035 H1014 0.950 . S
C1035 C1034 1.373 . S
C1035 C1051 1.377 . S
C1036 C1034 1.389 . S
C1036 C1037 1.524 . S
C1036 C1050 1.377 . S
C1037 C1036 1.524 . S
C1037 C1038 1.397 . S
C1037 C1042 1.363 . S
C1038 H1015 0.950 . S
C1038 C1037 1.397 . S
C1038 C1039 1.334 . S
C1039 H1016 0.950 . S
C1039 C1038 1.334 . S
C1039 C1040 1.287 . S
C1040 C1039 1.287 . S
C1040 C1041 1.524 . S
C1040 H1059 0.913 . S
C1041 H1017 0.950 . S
C1041 C1040 1.524 . S
C1041 C1042 1.415 . S
C1042 H1018 0.950 . S
C1042 C1037 1.363 . S
C1042 C1041 1.415 . S
C1043 H1019 0.951 . S
C1043 C1044 1.366 . S
C1043 C1045 1.388 . S
C1044 C1043 1.366 . S
C1044 C1048 1.385 . S
C1045 H1020 0.951 . S
C1045 C1043 1.388 . S
C1045 C1046 1.366 . S
C1046 C1045 1.366 . S
C1046 C1047 1.414 . S
C1046 C1049 1.499 . S
C1047 H1021 0.950 . S
C1047 C1046 1.414 . S
C1047 C1048 1.374 . S
C1048 H1022 0.950 . S
C1048 C1044 1.385 . S
C1048 C1047 1.374 . S
C1049 C1046 1.499 . S
C1049 C1050 1.373 . S
C1049 C1051 1.389 . S
C1050 H1023 0.950 . S
C1050 C1036 1.377 . S
C1050 C1049 1.373 . S
C1051 C1035 1.377 . S
C1051 C1049 1.389 . S
C1051 C1052 1.524 . S
C1052 C1051 1.524 . S
C1052 C1053 1.397 . S
C1052 C1057 1.363 . S
C1053 H1024 0.950 . S
C1053 C1052 1.397 . S
C1053 C1054 1.334 . S
C1054 H1025 0.950 . S
C1054 C1053 1.334 . S
C1054 C1055 1.287 . S
C1055 C1054 1.287 . S
C1055 C1056 1.524 . S
C1055 H1058 0.999 1_545 S
C1056 H1026 0.950 1_545 S
C1056 C1055 1.524 . S
C1056 C1057 1.415 . S
C1057 H1027 0.950 . S
C1057 C1052 1.363 . S
C1057 C1056 1.415 . S
H1058 C1055 0.999 1_565 S
H1059 C1040 0.913 . S
H1060 C1078 0.951 . S
H1061 C1080 0.951 . S
H1062 C1082 0.950 . S
H1063 C1083 0.950 . S
H1064 C1085 0.950 . S
H1065 C1088 0.950 . S
H1066 C1089 0.950 . S
H1067 C1091 0.950 . S
H1068 C1092 0.950 . S
H1069 C1093 0.951 . S
H1070 C1095 0.951 . S
H1071 C1097 0.950 . S
H1072 C1098 0.950 . S
H1073 C1100 0.950 . S
H1074 C1103 0.950 . S
H1075 C1104 0.950 . S
H1076 C1106 0.950 . S
H1077 C1107 0.950 . S
C1078 H1060 0.951 . S
C1078 C1079 1.366 . S
C1078 C1080 1.388 . S
C1079 C1078 1.366 . S
C1079 C1083 1.385 . S
C1080 H1061 0.951 . S
C1080 C1078 1.388 . S
C1080 C1081 1.366 . S
C1081 C1080 1.366 . S
C1081 C1082 1.414 . S
C1081 C1084 1.499 . S
C1082 H1062 0.950 . S
C1082 C1081 1.414 . S
C1082 C1083 1.374 . S
C1083 H1063 0.950 . S
C1083 C1079 1.385 . S
C1083 C1082 1.374 . S
C1084 C1081 1.499 . S
C1084 C1085 1.373 . S
C1084 C1086 1.389 . S
C1085 H1064 0.950 . S
C1085 C1084 1.373 . S
C1085 C1101 1.377 . S
C1086 C1084 1.389 . S
C1086 C1087 1.524 . S
C1086 C1100 1.377 . S
C1087 C1086 1.524 . S
C1087 C1088 1.397 . S
C1087 C1092 1.363 . S
C1088 H1065 0.950 . S
C1088 C1087 1.397 . S
C1088 C1089 1.334 . S
C1089 H1066 0.950 . S
C1089 C1088 1.334 . S
C1089 C1090 1.287 . S
C1090 C1089 1.287 . S
C1090 C1091 1.524 . S
C1090 H1109 0.913 . S
C1091 H1067 0.950 . S
C1091 C1090 1.524 . S
C1091 C1092 1.415 . S
C1092 H1068 0.950 . S
C1092 C1087 1.363 . S
C1092 C1091 1.415 . S
C1093 H1069 0.951 . S
C1093 C1094 1.366 . S
C1093 C1095 1.388 . S
C1094 C1093 1.366 . S
C1094 C1098 1.385 . S
C1095 H1070 0.951 . S
C1095 C1093 1.388 . S
C1095 C1096 1.366 . S
C1096 C1095 1.366 . S
C1096 C1097 1.414 . S
C1096 C1099 1.499 . S
C1097 H1071 0.950 . S
C1097 C1096 1.414 . S
C1097 C1098 1.374 . S
C1098 H1072 0.950 . S
C1098 C1094 1.385 . S
C1098 C1097 1.374 . S
C1099 C1096 1.499 . S
C1099 C1100 1.373 . S
C1099 C1101 1.389 . S
C1100 H1073 0.950 . S
C1100 C1086 1.377 . S
C1100 C1099 1.373 . S
C1101 C1085 1.377 . S
C1101 C1099 1.389 . S
C1101 C1102 1.524 . S
C1102 C1101 1.524 . S
C1102 C1103 1.397 . S
C1102 C1107 1.363 . S
C1103 H1074 0.950 . S
C1103 C1102 1.397 . S
C1103 C1104 1.334 . S
C1104 H1075 0.950 . S
C1104 C1103 1.334 . S
C1104 C1105 1.287 . S
C1105 C1104 1.287 . S
C1105 C1106 1.524 . S
C1105 H1108 0.999 . S
C1106 H1076 0.950 . S
C1106 C1105 1.524 . S
C1106 C1107 1.415 . S
C1107 H1077 0.950 . S
C1107 C1102 1.363 . S
C1107 C1106 1.415 . S
H1108 C1105 0.999 . S
H1109 C1090 0.913 . S
H1110 C1128 0.951 . S
H1111 C1130 0.951 . S
H1112 C1132 0.950 . S
H1113 C1133 0.950 . S
H1114 C1135 0.950 . S
H1115 C1138 0.950 . S
H1116 C1139 0.950 . S
H1117 C1141 0.950 . S
H1118 C1142 0.950 . S
H1119 C1143 0.951 . S
H1120 C1145 0.951 . S
H1121 C1147 0.950 . S
H1122 C1148 0.950 . S
H1123 C1150 0.950 . S
H1124 C1153 0.950 . S
H1125 C1154 0.950 1_455 S
H1126 C1156 0.950 . S
H1127 C1157 0.950 . S
C1128 H1110 0.951 . S
C1128 C1129 1.366 . S
C1128 C1130 1.388 . S
C1129 C1128 1.366 . S
C1129 C1133 1.385 . S
C1130 H1111 0.951 . S
C1130 C1128 1.388 . S
C1130 C1131 1.366 . S
C1131 C1130 1.366 . S
C1131 C1132 1.414 . S
C1131 C1134 1.499 . S
C1132 H1112 0.950 . S
C1132 C1131 1.414 . S
C1132 C1133 1.374 . S
C1133 H1113 0.950 . S
C1133 C1129 1.385 . S
C1133 C1132 1.374 . S
C1134 C1131 1.499 . S
C1134 C1135 1.373 . S
C1134 C1136 1.389 . S
C1135 H1114 0.950 . S
C1135 C1134 1.373 . S
C1135 C1151 1.377 . S
C1136 C1134 1.389 . S
C1136 C1137 1.524 . S
C1136 C1150 1.377 . S
C1137 C1136 1.524 . S
C1137 C1138 1.397 . S
C1137 C1142 1.363 . S
C1138 H1115 0.950 . S
C1138 C1137 1.397 . S
C1138 C1139 1.334 . S
C1139 H1116 0.950 . S
C1139 C1138 1.334 . S
C1139 C1140 1.287 . S
C1140 C1139 1.287 . S
C1140 C1141 1.524 . S
C1140 H1159 0.913 . S
C1141 H1117 0.950 . S
C1141 C1140 1.524 . S
C1141 C1142 1.415 . S
C1142 H1118 0.950 . S
C1142 C1137 1.363 . S
C1142 C1141 1.415 . S
C1143 H1119 0.951 . S
C1143 C1144 1.366 . S
C1143 C1145 1.388 . S
C1144 C1143 1.366 . S
C1144 C1148 1.385 . S
C1145 H1120 0.951 . S
C1145 C1143 1.388 . S
C1145 C1146 1.366 . S
C1146 C1145 1.366 . S
C1146 C1147 1.414 . S
C1146 C1149 1.499 . S
C1147 H1121 0.950 . S
C1147 C1146 1.414 . S
C1147 C1148 1.374 . S
C1148 H1122 0.950 . S
C1148 C1144 1.385 . S
C1148 C1147 1.374 . S
C1149 C1146 1.499 . S
C1149 C1150 1.373 . S
C1149 C1151 1.389 . S
C1150 H1123 0.950 . S
C1150 C1136 1.377 . S
C1150 C1149 1.373 . S
C1151 C1135 1.377 . S
C1151 C1149 1.389 . S
C1151 C1152 1.524 . S
C1152 C1151 1.524 . S
C1152 C1153 1.397 . S
C1152 C1157 1.363 . S
C1153 H1124 0.950 . S
C1153 C1152 1.397 . S
C1153 C1154 1.334 . S
C1154 H1125 0.950 1_655 S
C1154 C1153 1.334 . S
C1154 C1155 1.287 1_655 S
C1155 C1154 1.287 1_455 S
C1155 C1156 1.524 1_455 S
C1155 H1158 0.999 . S
C1156 H1126 0.950 . S
C1156 C1155 1.524 1_655 S
C1156 C1157 1.415 . S
C1157 H1127 0.950 . S
C1157 C1152 1.363 . S
C1157 C1156 1.415 . S
H1158 C1155 0.999 . S
H1159 C1140 0.913 . S
H1160 C1178 0.951 . S
H1161 C1180 0.951 . S
H1162 C1182 0.950 . S
H1163 C1183 0.950 . S
H1164 C1185 0.950 . S
H1165 C1188 0.950 . S
H1166 C1189 0.950 . S
H1167 C1191 0.950 . S
H1168 C1192 0.950 . S
H1169 C1193 0.951 . S
H1170 C1195 0.951 . S
H1171 C1197 0.950 . S
H1172 C1198 0.950 . S
H1173 C1200 0.950 . S
H1174 C1203 0.950 . S
H1175 C1204 0.950 . S
H1176 C1206 0.950 . S
H1177 C1207 0.950 . S
C1178 H1160 0.951 . S
C1178 C1179 1.366 . S
C1178 C1180 1.388 . S
C1179 C1178 1.366 . S
C1179 C1183 1.385 . S
C1180 H1161 0.951 . S
C1180 C1178 1.388 . S
C1180 C1181 1.366 . S
C1181 C1180 1.366 . S
C1181 C1182 1.414 . S
C1181 C1184 1.499 . S
C1182 H1162 0.950 . S
C1182 C1181 1.414 . S
C1182 C1183 1.374 . S
C1183 H1163 0.950 . S
C1183 C1179 1.385 . S
C1183 C1182 1.374 . S
C1184 C1181 1.499 . S
C1184 C1185 1.373 . S
C1184 C1186 1.389 . S
C1185 H1164 0.950 . S
C1185 C1184 1.373 . S
C1185 C1201 1.377 . S
C1186 C1184 1.389 . S
C1186 C1187 1.524 . S
C1186 C1200 1.377 . S
C1187 C1186 1.524 . S
C1187 C1188 1.397 . S
C1187 C1192 1.363 . S
C1188 H1165 0.950 . S
C1188 C1187 1.397 . S
C1188 C1189 1.334 . S
C1189 H1166 0.950 . S
C1189 C1188 1.334 . S
C1189 C1190 1.287 . S
C1190 C1189 1.287 . S
C1190 C1191 1.524 . S
C1190 H1209 0.913 . S
C1191 H1167 0.950 . S
C1191 C1190 1.524 . S
C1191 C1192 1.415 . S
C1192 H1168 0.950 . S
C1192 C1187 1.363 . S
C1192 C1191 1.415 . S
C1193 H1169 0.951 . S
C1193 C1194 1.366 . S
C1193 C1195 1.388 . S
C1194 C1193 1.366 . S
C1194 C1198 1.385 . S
C1195 H1170 0.951 . S
C1195 C1193 1.388 . S
C1195 C1196 1.366 . S
C1196 C1195 1.366 . S
C1196 C1197 1.414 . S
C1196 C1199 1.499 . S
C1197 H1171 0.950 . S
C1197 C1196 1.414 . S
C1197 C1198 1.374 . S
C1198 H1172 0.950 . S
C1198 C1194 1.385 . S
C1198 C1197 1.374 . S
C1199 C1196 1.499 . S
C1199 C1200 1.373 . S
C1199 C1201 1.389 . S
C1200 H1173 0.950 . S
C1200 C1186 1.377 . S
C1200 C1199 1.373 . S
C1201 C1185 1.377 . S
C1201 C1199 1.389 . S
C1201 C1202 1.524 . S
C1202 C1201 1.524 . S
C1202 C1203 1.397 . S
C1202 C1207 1.363 . S
C1203 H1174 0.950 . S
C1203 C1202 1.397 . S
C1203 C1204 1.334 . S
C1204 H1175 0.950 . S
C1204 C1203 1.334 . S
C1204 C1205 1.287 . S
C1205 C1204 1.287 . S
C1205 C1206 1.524 . S
C1205 H1208 0.999 . S
C1206 H1176 0.950 . S
C1206 C1205 1.524 . S
C1206 C1207 1.415 . S
C1207 H1177 0.950 . S
C1207 C1202 1.363 . S
C1207 C1206 1.415 . S
H1208 C1205 0.999 . S
H1209 C1190 0.913 . S
H1210 C1228 0.951 . S
H1211 C1230 0.951 . S
H1212 C1232 0.950 . S
H1213 C1233 0.950 . S
H1214 C1235 0.950 . S
H1215 C1238 0.950 . S
H1216 C1239 0.950 . S
H1217 C1241 0.950 . S
H1218 C1242 0.950 . S
H1219 C1243 0.951 . S
H1220 C1245 0.951 . S
H1221 C1247 0.950 . S
H1222 C1248 0.950 . S
H1223 C1250 0.950 . S
H1224 C1253 0.950 . S
H1225 C1254 0.950 . S
H1226 C1256 0.950 . S
H1227 C1257 0.950 . S
C1228 H1210 0.951 . S
C1228 C1229 1.366 . S
C1228 C1230 1.388 . S
C1229 C1228 1.366 . S
C1229 C1233 1.385 . S
C1230 H1211 0.951 . S
C1230 C1228 1.388 . S
C1230 C1231 1.366 . S
C1231 C1230 1.366 . S
C1231 C1232 1.414 . S
C1231 C1234 1.499 . S
C1232 H1212 0.950 . S
C1232 C1231 1.414 . S
C1232 C1233 1.374 . S
C1233 H1213 0.950 . S
C1233 C1229 1.385 . S
C1233 C1232 1.374 . S
C1234 C1231 1.499 . S
C1234 C1235 1.373 . S
C1234 C1236 1.389 . S
C1235 H1214 0.950 . S
C1235 C1234 1.373 . S
C1235 C1251 1.377 . S
C1236 C1234 1.389 . S
C1236 C1237 1.524 . S
C1236 C1250 1.377 . S
C1237 C1236 1.524 . S
C1237 C1238 1.397 . S
C1237 C1242 1.363 . S
C1238 H1215 0.950 . S
C1238 C1237 1.397 . S
C1238 C1239 1.334 . S
C1239 H1216 0.950 . S
C1239 C1238 1.334 . S
C1239 C1240 1.287 . S
C1240 C1239 1.287 . S
C1240 C1241 1.524 . S
C1240 H1259 0.913 . S
C1241 H1217 0.950 . S
C1241 C1240 1.524 . S
C1241 C1242 1.415 . S
C1242 H1218 0.950 . S
C1242 C1237 1.363 . S
C1242 C1241 1.415 . S
C1243 H1219 0.951 . S
C1243 C1244 1.366 . S
C1243 C1245 1.388 . S
C1244 C1243 1.366 . S
C1244 C1248 1.385 . S
C1245 H1220 0.951 . S
C1245 C1243 1.388 . S
C1245 C1246 1.366 . S
C1246 C1245 1.366 . S
C1246 C1247 1.414 . S
C1246 C1249 1.499 . S
C1247 H1221 0.950 . S
C1247 C1246 1.414 . S
C1247 C1248 1.374 . S
C1248 H1222 0.950 . S
C1248 C1244 1.385 . S
C1248 C1247 1.374 . S
C1249 C1246 1.499 . S
C1249 C1250 1.373 . S
C1249 C1251 1.389 . S
C1250 H1223 0.950 . S
C1250 C1236 1.377 . S
C1250 C1249 1.373 . S
C1251 C1235 1.377 . S
C1251 C1249 1.389 . S
C1251 C1252 1.524 . S
C1252 C1251 1.524 . S
C1252 C1253 1.397 . S
C1252 C1257 1.363 . S
C1253 H1224 0.950 . S
C1253 C1252 1.397 . S
C1253 C1254 1.334 . S
C1254 H1225 0.950 . S
C1254 C1253 1.334 . S
C1254 C1255 1.287 . S
C1255 C1254 1.287 . S
C1255 C1256 1.524 . S
C1255 H1258 0.999 . S
C1256 H1226 0.950 . S
C1256 C1255 1.524 . S
C1256 C1257 1.415 . S
C1257 H1227 0.950 . S
C1257 C1252 1.363 . S
C1257 C1256 1.415 . S
H1258 C1255 0.999 . S
H1259 C1240 0.913 . S
H1260 C1278 0.951 . S
H1261 C1280 0.951 . S
H1262 C1282 0.950 . S
H1263 C1283 0.950 . S
H1264 C1285 0.950 . S
H1265 C1288 0.950 . S
H1266 C1289 0.950 . S
H1267 C1291 0.950 . S
H1268 C1292 0.950 . S
H1269 C1293 0.951 . S
H1270 C1295 0.951 . S
H1271 C1297 0.950 . S
H1272 C1298 0.950 . S
H1273 C1300 0.950 . S
H1274 C1303 0.950 . S
H1275 C1304 0.950 . S
H1276 C1306 0.950 . S
H1277 C1307 0.950 . S
C1278 H1260 0.951 . S
C1278 C1279 1.366 . S
C1278 C1280 1.388 . S
C1279 C1278 1.366 . S
C1279 C1283 1.385 . S
C1280 H1261 0.951 . S
C1280 C1278 1.388 . S
C1280 C1281 1.366 . S
C1281 C1280 1.366 . S
C1281 C1282 1.414 . S
C1281 C1284 1.499 . S
C1282 H1262 0.950 . S
C1282 C1281 1.414 . S
C1282 C1283 1.374 . S
C1283 H1263 0.950 . S
C1283 C1279 1.385 . S
C1283 C1282 1.374 . S
C1284 C1281 1.499 . S
C1284 C1285 1.373 . S
C1284 C1286 1.389 . S
C1285 H1264 0.950 . S
C1285 C1284 1.373 . S
C1285 C1301 1.377 . S
C1286 C1284 1.389 . S
C1286 C1287 1.524 . S
C1286 C1300 1.377 . S
C1287 C1286 1.524 . S
C1287 C1288 1.397 . S
C1287 C1292 1.363 . S
C1288 H1265 0.950 . S
C1288 C1287 1.397 . S
C1288 C1289 1.334 . S
C1289 H1266 0.950 . S
C1289 C1288 1.334 . S
C1289 C1290 1.287 . S
C1290 C1289 1.287 . S
C1290 C1291 1.524 . S
C1290 H1309 0.913 . S
C1291 H1267 0.950 . S
C1291 C1290 1.524 . S
C1291 C1292 1.415 . S
C1292 H1268 0.950 . S
C1292 C1287 1.363 . S
C1292 C1291 1.415 . S
C1293 H1269 0.951 . S
C1293 C1294 1.366 . S
C1293 C1295 1.388 . S
C1294 C1293 1.366 . S
C1294 C1298 1.385 . S
C1295 H1270 0.951 . S
C1295 C1293 1.388 . S
C1295 C1296 1.366 . S
C1296 C1295 1.366 . S
C1296 C1297 1.414 . S
C1296 C1299 1.499 . S
C1297 H1271 0.950 . S
C1297 C1296 1.414 . S
C1297 C1298 1.374 . S
C1298 H1272 0.950 . S
C1298 C1294 1.385 . S
C1298 C1297 1.374 . S
C1299 C1296 1.499 . S
C1299 C1300 1.373 . S
C1299 C1301 1.389 . S
C1300 H1273 0.950 . S
C1300 C1286 1.377 . S
C1300 C1299 1.373 . S
C1301 C1285 1.377 . S
C1301 C1299 1.389 . S
C1301 C1302 1.524 . S
C1302 C1301 1.524 . S
C1302 C1303 1.397 . S
C1302 C1307 1.363 . S
C1303 H1274 0.950 . S
C1303 C1302 1.397 . S
C1303 C1304 1.334 . S
C1304 H1275 0.950 . S
C1304 C1303 1.334 . S
C1304 C1305 1.287 . S
C1305 C1304 1.287 . S
C1305 C1306 1.524 . S
C1305 H1308 0.999 . S
C1306 H1276 0.950 . S
C1306 C1305 1.524 . S
C1306 C1307 1.415 . S
C1307 H1277 0.950 . S
C1307 C1302 1.363 . S
C1307 C1306 1.415 . S
H1308 C1305 0.999 . S
H1309 C1290 0.913 . S
H1310 C1328 0.951 . S
H1311 C1330 0.951 . S
H1312 C1332 0.950 . S
H1313 C1333 0.950 . S
H1314 C1335 0.950 . S
H1315 C1338 0.950 . S
H1316 C1339 0.950 . S
H1317 C1341 0.950 . S
H1318 C1342 0.950 . S
H1319 C1343 0.951 . S
H1320 C1345 0.951 . S
H1321 C1347 0.950 . S
H1322 C1348 0.950 . S
H1323 C1350 0.950 . S
H1324 C1353 0.950 . S
H1325 C1354 0.950 . S
H1326 C1356 0.950 . S
H1327 C1357 0.950 . S
C1328 H1310 0.951 . S
C1328 C1329 1.366 . S
C1328 C1330 1.388 . S
C1329 C1328 1.366 . S
C1329 C1333 1.385 . S
C1330 H1311 0.951 . S
C1330 C1328 1.388 . S
C1330 C1331 1.366 . S
C1331 C1330 1.366 . S
C1331 C1332 1.414 . S
C1331 C1334 1.499 . S
C1332 H1312 0.950 . S
C1332 C1331 1.414 . S
C1332 C1333 1.374 . S
C1333 H1313 0.950 . S
C1333 C1329 1.385 . S
C1333 C1332 1.374 . S
C1334 C1331 1.499 . S
C1334 C1335 1.373 . S
C1334 C1336 1.389 . S
C1335 H1314 0.950 . S
C1335 C1334 1.373 . S
C1335 C1351 1.377 . S
C1336 C1334 1.389 . S
C1336 C1337 1.524 . S
C1336 C1350 1.377 . S
C1337 C1336 1.524 . S
C1337 C1338 1.397 . S
C1337 C1342 1.363 . S
C1338 H1315 0.950 . S
C1338 C1337 1.397 . S
C1338 C1339 1.334 . S
C1339 H1316 0.950 . S
C1339 C1338 1.334 . S
C1339 C1340 1.287 . S
C1340 C1339 1.287 . S
C1340 C1341 1.524 . S
C1340 H1359 0.913 . S
C1341 H1317 0.950 . S
C1341 C1340 1.524 . S
C1341 C1342 1.415 . S
C1342 H1318 0.950 . S
C1342 C1337 1.363 . S
C1342 C1341 1.415 . S
C1343 H1319 0.951 . S
C1343 C1344 1.366 . S
C1343 C1345 1.388 . S
C1344 C1343 1.366 . S
C1344 C1348 1.385 . S
C1345 H1320 0.951 . S
C1345 C1343 1.388 . S
C1345 C1346 1.366 . S
C1346 C1345 1.366 . S
C1346 C1347 1.414 . S
C1346 C1349 1.499 . S
C1347 H1321 0.950 . S
C1347 C1346 1.414 . S
C1347 C1348 1.374 . S
C1348 H1322 0.950 . S
C1348 C1344 1.385 . S
C1348 C1347 1.374 . S
C1349 C1346 1.499 . S
C1349 C1350 1.373 . S
C1349 C1351 1.389 . S
C1350 H1323 0.950 . S
C1350 C1336 1.377 . S
C1350 C1349 1.373 . S
C1351 C1335 1.377 . S
C1351 C1349 1.389 . S
C1351 C1352 1.524 . S
C1352 C1351 1.524 . S
C1352 C1353 1.397 . S
C1352 C1357 1.363 . S
C1353 H1324 0.950 . S
C1353 C1352 1.397 . S
C1353 C1354 1.334 . S
C1354 H1325 0.950 . S
C1354 C1353 1.334 . S
C1354 C1355 1.287 . S
C1355 C1354 1.287 . S
C1355 C1356 1.524 . S
C1355 H1358 0.999 . S
C1356 H1326 0.950 . S
C1356 C1355 1.524 . S
C1356 C1357 1.415 . S
C1357 H1327 0.950 . S
C1357 C1352 1.363 . S
C1357 C1356 1.415 . S
H1358 C1355 0.999 . S
H1359 C1340 0.913 . S
H1360 C1378 0.951 . S
H1361 C1380 0.951 . S
H1362 C1382 0.950 . S
H1363 C1383 0.950 . S
H1364 C1385 0.950 . S
H1365 C1388 0.950 . S
H1366 C1389 0.950 . S
H1367 C1391 0.950 . S
H1368 C1392 0.950 . S
H1369 C1393 0.951 . S
H1370 C1395 0.951 . S
H1371 C1397 0.950 . S
H1372 C1398 0.950 . S
H1373 C1400 0.950 . S
H1374 C1403 0.950 . S
H1375 C1404 0.950 . S
H1376 C1406 0.950 . S
H1377 C1407 0.950 . S
C1378 H1360 0.951 . S
C1378 C1379 1.366 . S
C1378 C1380 1.388 . S
C1379 C1378 1.366 . S
C1379 C1383 1.385 . S
C1380 H1361 0.951 . S
C1380 C1378 1.388 . S
C1380 C1381 1.366 . S
C1381 C1380 1.366 . S
C1381 C1382 1.414 . S
C1381 C1384 1.499 . S
C1382 H1362 0.950 . S
C1382 C1381 1.414 . S
C1382 C1383 1.374 . S
C1383 H1363 0.950 . S
C1383 C1379 1.385 . S
C1383 C1382 1.374 . S
C1384 C1381 1.499 . S
C1384 C1385 1.373 . S
C1384 C1386 1.389 . S
C1385 H1364 0.950 . S
C1385 C1384 1.373 . S
C1385 C1401 1.377 . S
C1386 C1384 1.389 . S
C1386 C1387 1.524 . S
C1386 C1400 1.377 . S
C1387 C1386 1.524 . S
C1387 C1388 1.397 . S
C1387 C1392 1.363 . S
C1388 H1365 0.950 . S
C1388 C1387 1.397 . S
C1388 C1389 1.334 . S
C1389 H1366 0.950 . S
C1389 C1388 1.334 . S
C1389 C1390 1.287 . S
C1390 C1389 1.287 . S
C1390 C1391 1.524 . S
C1390 H1409 0.913 . S
C1391 H1367 0.950 . S
C1391 C1390 1.524 . S
C1391 C1392 1.415 . S
C1392 H1368 0.950 . S
C1392 C1387 1.363 . S
C1392 C1391 1.415 . S
C1393 H1369 0.951 . S
C1393 C1394 1.366 . S
C1393 C1395 1.388 . S
C1394 C1393 1.366 . S
C1394 C1398 1.385 . S
C1395 H1370 0.951 . S
C1395 C1393 1.388 . S
C1395 C1396 1.366 . S
C1396 C1395 1.366 . S
C1396 C1397 1.414 . S
C1396 C1399 1.499 . S
C1397 H1371 0.950 . S
C1397 C1396 1.414 . S
C1397 C1398 1.374 . S
C1398 H1372 0.950 . S
C1398 C1394 1.385 . S
C1398 C1397 1.374 . S
C1399 C1396 1.499 . S
C1399 C1400 1.373 . S
C1399 C1401 1.389 . S
C1400 H1373 0.950 . S
C1400 C1386 1.377 . S
C1400 C1399 1.373 . S
C1401 C1385 1.377 . S
C1401 C1399 1.389 . S
C1401 C1402 1.524 . S
C1402 C1401 1.524 . S
C1402 C1403 1.397 . S
C1402 C1407 1.363 . S
C1403 H1374 0.950 . S
C1403 C1402 1.397 . S
C1403 C1404 1.334 . S
C1404 H1375 0.950 . S
C1404 C1403 1.334 . S
C1404 C1405 1.287 . S
C1405 C1404 1.287 . S
C1405 C1406 1.524 . S
C1405 H1408 0.999 . S
C1406 H1376 0.950 . S
C1406 C1405 1.524 . S
C1406 C1407 1.415 . S
C1407 H1377 0.950 . S
C1407 C1402 1.363 . S
C1407 C1406 1.415 . S
H1408 C1405 0.999 . S
H1409 C1390 0.913 . S
H1410 C1428 0.951 . S
H1411 C1430 0.951 . S
H1412 C1432 0.950 . S
H1413 C1433 0.950 . S
H1414 C1435 0.950 . S
H1415 C1438 0.950 . S
H1416 C1439 0.950 . S
H1417 C1441 0.950 . S
H1418 C1442 0.950 . S
H1419 C1443 0.951 . S
H1420 C1445 0.951 . S
H1421 C1447 0.950 . S
H1422 C1448 0.950 . S
H1423 C1450 0.950 . S
H1424 C1453 0.950 . S
H1425 C1454 0.950 . S
H1426 C1456 0.950 . S
H1427 C1457 0.950 . S
C1428 H1410 0.951 . S
C1428 C1429 1.366 . S
C1428 C1430 1.388 . S
C1429 C1428 1.366 . S
C1429 C1433 1.385 . S
C1430 H1411 0.951 . S
C1430 C1428 1.388 . S
C1430 C1431 1.366 . S
C1431 C1430 1.366 . S
C1431 C1432 1.414 . S
C1431 C1434 1.499 . S
C1432 H1412 0.950 . S
C1432 C1431 1.414 . S
C1432 C1433 1.374 . S
C1433 H1413 0.950 . S
C1433 C1429 1.385 . S
C1433 C1432 1.374 . S
C1434 C1431 1.499 . S
C1434 C1435 1.373 . S
C1434 C1436 1.389 . S
C1435 H1414 0.950 . S
C1435 C1434 1.373 . S
C1435 C1451 1.377 . S
C1436 C1434 1.389 . S
C1436 C1437 1.524 . S
C1436 C1450 1.377 . S
C1437 C1436 1.524 . S
C1437 C1438 1.397 . S
C1437 C1442 1.363 . S
C1438 H1415 0.950 . S
C1438 C1437 1.397 . S
C1438 C1439 1.334 . S
C1439 H1416 0.950 . S
C1439 C1438 1.334 . S
C1439 C1440 1.287 . S
C1440 C1439 1.287 . S
C1440 C1441 1.524 . S
C1440 H1459 0.913 . S
C1441 H1417 0.950 . S
C1441 C1440 1.524 . S
C1441 C1442 1.415 . S
C1442 H1418 0.950 . S
C1442 C1437 1.363 . S
C1442 C1441 1.415 . S
C1443 H1419 0.951 . S
C1443 C1444 1.366 . S
C1443 C1445 1.388 . S
C1444 C1443 1.366 . S
C1444 C1448 1.385 . S
C1445 H1420 0.951 . S
C1445 C1443 1.388 . S
C1445 C1446 1.366 . S
C1446 C1445 1.366 . S
C1446 C1447 1.414 . S
C1446 C1449 1.499 . S
C1447 H1421 0.950 . S
C1447 C1446 1.414 . S
C1447 C1448 1.374 . S
C1448 H1422 0.950 . S
C1448 C1444 1.385 . S
C1448 C1447 1.374 . S
C1449 C1446 1.499 . S
C1449 C1450 1.373 . S
C1449 C1451 1.389 . S
C1450 H1423 0.950 . S
C1450 C1436 1.377 . S
C1450 C1449 1.373 . S
C1451 C1435 1.377 . S
C1451 C1449 1.389 . S
C1451 C1452 1.524 . S
C1452 C1451 1.524 . S
C1452 C1453 1.397 . S
C1452 C1457 1.363 . S
C1453 H1424 0.950 . S
C1453 C1452 1.397 . S
C1453 C1454 1.334 . S
C1454 H1425 0.950 . S
C1454 C1453 1.334 . S
C1454 C1455 1.287 . S
C1455 C1454 1.287 . S
C1455 C1456 1.524 . S
C1455 H1458 0.999 . S
C1456 H1426 0.950 . S
C1456 C1455 1.524 . S
C1456 C1457 1.415 . S
C1457 H1427 0.950 . S
C1457 C1452 1.363 . S
C1457 C1456 1.415 . S
H1458 C1455 0.999 . S
H1459 C1440 0.913 . S
H1460 C1478 0.951 . S
H1461 C1480 0.951 . S
H1462 C1482 0.950 . S
H1463 C1483 0.950 . S
H1464 C1485 0.950 . S
H1465 C1488 0.950 . S
H1466 C1489 0.950 . S
H1467 C1491 0.950 . S
H1468 C1492 0.950 . S
H1469 C1493 0.951 . S
H1470 C1495 0.951 . S
H1471 C1497 0.950 . S
H1472 C1498 0.950 . S
H1473 C1500 0.950 . S
H1474 C1503 0.950 . S
H1475 C1504 0.950 . S
H1476 C1506 0.950 . S
H1477 C1507 0.950 . S
C1478 H1460 0.951 . S
C1478 C1479 1.366 . S
C1478 C1480 1.388 . S
C1479 C1478 1.366 . S
C1479 C1483 1.385 . S
C1480 H1461 0.951 . S
C1480 C1478 1.388 . S
C1480 C1481 1.366 . S
C1481 C1480 1.366 . S
C1481 C1482 1.414 . S
C1481 C1484 1.499 . S
C1482 H1462 0.950 . S
C1482 C1481 1.414 . S
C1482 C1483 1.374 . S
C1483 H1463 0.950 . S
C1483 C1479 1.385 . S
C1483 C1482 1.374 . S
C1484 C1481 1.499 . S
C1484 C1485 1.373 . S
C1484 C1486 1.389 . S
C1485 H1464 0.950 . S
C1485 C1484 1.373 . S
C1485 C1501 1.377 . S
C1486 C1484 1.389 . S
C1486 C1487 1.524 . S
C1486 C1500 1.377 . S
C1487 C1486 1.524 . S
C1487 C1488 1.397 . S
C1487 C1492 1.363 . S
C1488 H1465 0.950 . S
C1488 C1487 1.397 . S
C1488 C1489 1.334 . S
C1489 H1466 0.950 . S
C1489 C1488 1.334 . S
C1489 C1490 1.287 . S
C1490 C1489 1.287 . S
C1490 C1491 1.524 . S
C1490 H1509 0.913 . S
C1491 H1467 0.950 . S
C1491 C1490 1.524 . S
C1491 C1492 1.415 . S
C1492 H1468 0.950 . S
C1492 C1487 1.363 . S
C1492 C1491 1.415 . S
C1493 H1469 0.951 . S
C1493 C1494 1.366 . S
C1493 C1495 1.388 . S
C1494 C1493 1.366 . S
C1494 C1498 1.385 . S
C1495 H1470 0.951 . S
C1495 C1493 1.388 . S
C1495 C1496 1.366 . S
C1496 C1495 1.366 . S
C1496 C1497 1.414 . S
C1496 C1499 1.499 . S
C1497 H1471 0.950 . S
C1497 C1496 1.414 . S
C1497 C1498 1.374 . S
C1498 H1472 0.950 . S
C1498 C1494 1.385 . S
C1498 C1497 1.374 . S
C1499 C1496 1.499 . S
C1499 C1500 1.373 . S
C1499 C1501 1.389 . S
C1500 H1473 0.950 . S
C1500 C1486 1.377 . S
C1500 C1499 1.373 . S
C1501 C1485 1.377 . S
C1501 C1499 1.389 . S
C1501 C1502 1.524 . S
C1502 C1501 1.524 . S
C1502 C1503 1.397 . S
C1502 C1507 1.363 . S
C1503 H1474 0.950 . S
C1503 C1502 1.397 . S
C1503 C1504 1.334 . S
C1504 H1475 0.950 . S
C1504 C1503 1.334 . S
C1504 C1505 1.287 . S
C1505 C1504 1.287 . S
C1505 C1506 1.524 . S
C1505 H1508 0.999 . S
C1506 H1476 0.950 . S
C1506 C1505 1.524 . S
C1506 C1507 1.415 . S
C1507 H1477 0.950 . S
C1507 C1502 1.363 . S
C1507 C1506 1.415 . S
H1508 C1505 0.999 . S
H1509 C1490 0.913 . S
H1510 C1528 0.951 . S
H1511 C1530 0.951 . S
H1512 C1532 0.950 . S
H1513 C1533 0.950 . S
H1514 C1535 0.950 . S
H1515 C1538 0.950 . S
H1516 C1539 0.950 . S
H1517 C1541 0.950 . S
H1518 C1542 0.950 . S
H1519 C1543 0.951 . S
H1520 C1545 0.951 . S
H1521 C1547 0.950 . S
H1522 C1548 0.950 . S
H1523 C1550 0.950 . S
H1524 C1553 0.950 . S
H1525 C1554 0.950 . S
H1526 C1556 0.950 . S
H1527 C1557 0.950 . S
C1528 H1510 0.951 . S
C1528 C1529 1.366 . S
C1528 C1530 1.388 . S
C1529 C1528 1.366 . S
C1529 C1533 1.385 . S
C1530 H1511 0.951 . S
C1530 C1528 1.388 . S
C1530 C1531 1.366 . S
C1531 C1530 1.366 . S
C1531 C1532 1.414 . S
C1531 C1534 1.499 . S
C1532 H1512 0.950 . S
C1532 C1531 1.414 . S
C1532 C1533 1.374 . S
C1533 H1513 0.950 . S
C1533 C1529 1.385 . S
C1533 C1532 1.374 . S
C1534 C1531 1.499 . S
C1534 C1535 1.373 . S
C1534 C1536 1.389 . S
C1535 H1514 0.950 . S
C1535 C1534 1.373 . S
C1535 C1551 1.377 . S
C1536 C1534 1.389 . S
C1536 C1537 1.524 . S
C1536 C1550 1.377 . S
C1537 C1536 1.524 . S
C1537 C1538 1.397 . S
C1537 C1542 1.363 . S
C1538 H1515 0.950 . S
C1538 C1537 1.397 . S
C1538 C1539 1.334 . S
C1539 H1516 0.950 . S
C1539 C1538 1.334 . S
C1539 C1540 1.287 . S
C1540 C1539 1.287 . S
C1540 C1541 1.524 . S
C1540 H1559 0.913 . S
C1541 H1517 0.950 . S
C1541 C1540 1.524 . S
C1541 C1542 1.415 . S
C1542 H1518 0.950 . S
C1542 C1537 1.363 . S
C1542 C1541 1.415 . S
C1543 H1519 0.951 . S
C1543 C1544 1.366 . S
C1543 C1545 1.388 . S
C1544 C1543 1.366 . S
C1544 C1548 1.385 . S
C1545 H1520 0.951 . S
C1545 C1543 1.388 . S
C1545 C1546 1.366 . S
C1546 C1545 1.366 . S
C1546 C1547 1.414 . S
C1546 C1549 1.499 . S
C1547 H1521 0.950 . S
C1547 C1546 1.414 . S
C1547 C1548 1.374 . S
C1548 H1522 0.950 . S
C1548 C1544 1.385 . S
C1548 C1547 1.374 . S
C1549 C1546 1.499 . S
C1549 C1550 1.373 . S
C1549 C1551 1.389 . S
C1550 H1523 0.950 . S
C1550 C1536 1.377 . S
C1550 C1549 1.373 . S
C1551 C1535 1.377 . S
C1551 C1549 1.389 . S
C1551 C1552 1.524 . S
C1552 C1551 1.524 . S
C1552 C1553 1.397 . S
C1552 C1557 1.363 . S
C1553 H1524 0.950 . S
C1553 C1552 1.397 . S
C1553 C1554 1.334 . S
C1554 H1525 0.950 . S
C1554 C1553 1.334 . S
C1554 C1555 1.287 . S
C1555 C1554 1.287 . S
C1555 C1556 1.524 . S
C1555 H1558 0.999 . S
C1556 H1526 0.950 . S
C1556 C1555 1.524 . S
C1556 C1557 1.415 . S
C1557 H1527 0.950 . S
C1557 C1552 1.363 . S
C1557 C1556 1.415 . S
H1558 C1555 0.999 . S
H1559 C1540 0.913 . S
H1560 C1578 0.951 . S
H1561 C1580 0.951 . S
H1562 C1582 0.950 . S
H1563 C1583 0.950 . S
H1564 C1585 0.950 . S
H1565 C1588 0.950 . S
H1566 C1589 0.950 . S
H1567 C1591 0.950 . S
H1568 C1592 0.950 . S
H1569 C1593 0.951 . S
H1570 C1595 0.951 . S
H1571 C1597 0.950 . S
H1572 C1598 0.950 . S
H1573 C1600 0.950 . S
H1574 C1603 0.950 . S
H1575 C1604 0.950 . S
H1576 C1606 0.950 . S
H1577 C1607 0.950 . S
C1578 H1560 0.951 . S
C1578 C1579 1.366 . S
C1578 C1580 1.388 . S
C1579 C1578 1.366 . S
C1579 C1583 1.385 . S
C1580 H1561 0.951 . S
C1580 C1578 1.388 . S
C1580 C1581 1.366 . S
C1581 C1580 1.366 . S
C1581 C1582 1.414 . S
C1581 C1584 1.499 . S
C1582 H1562 0.950 . S
C1582 C1581 1.414 . S
C1582 C1583 1.374 . S
C1583 H1563 0.950 . S
C1583 C1579 1.385 . S
C1583 C1582 1.374 . S
C1584 C1581 1.499 . S
C1584 C1585 1.373 . S
C1584 C1586 1.389 . S
C1585 H1564 0.950 . S
C1585 C1584 1.373 . S
C1585 C1601 1.377 . S
C1586 C1584 1.389 . S
C1586 C1587 1.524 . S
C1586 C1600 1.377 . S
C1587 C1586 1.524 . S
C1587 C1588 1.397 . S
C1587 C1592 1.363 . S
C1588 H1565 0.950 . S
C1588 C1587 1.397 . S
C1588 C1589 1.334 . S
C1589 H1566 0.950 . S
C1589 C1588 1.334 . S
C1589 C1590 1.287 . S
C1590 C1589 1.287 . S
C1590 C1591 1.524 . S
C1590 H1609 0.913 . S
C1591 H1567 0.950 . S
C1591 C1590 1.524 . S
C1591 C1592 1.415 . S
C1592 H1568 0.950 . S
C1592 C1587 1.363 . S
C1592 C1591 1.415 . S
C1593 H1569 0.951 . S
C1593 C1594 1.366 . S
C1593 C1595 1.388 . S
C1594 C1593 1.366 . S
C1594 C1598 1.385 . S
C1595 H1570 0.951 . S
C1595 C1593 1.388 . S
C1595 C1596 1.366 . S
C1596 C1595 1.366 . S
C1596 C1597 1.414 . S
C1596 C1599 1.499 . S
C1597 H1571 0.950 . S
C1597 C1596 1.414 . S
C1597 C1598 1.374 . S
C1598 H1572 0.950 . S
C1598 C1594 1.385 . S
C1598 C1597 1.374 . S
C1599 C1596 1.499 . S
C1599 C1600 1.373 . S
C1599 C1601 1.389 . S
C1600 H1573 0.950 . S
C1600 C1586 1.377 . S
C1600 C1599 1.373 . S
C1601 C1585 1.377 . S
C1601 C1599 1.389 . S
C1601 C1602 1.524 . S
C1602 C1601 1.524 . S
C1602 C1603 1.397 . S
C1602 C1607 1.363 . S
C1603 H1574 0.950 . S
C1603 C1602 1.397 . S
C1603 C1604 1.334 . S
C1604 H1575 0.950 . S
C1604 C1603 1.334 . S
C1604 C1605 1.287 . S
C1605 C1604 1.287 . S
C1605 C1606 1.524 . S
C1605 H1608 0.999 . S
C1606 H1576 0.950 . S
C1606 C1605 1.524 . S
C1606 C1607 1.415 . S
C1607 H1577 0.950 . S
C1607 C1602 1.363 . S
C1607 C1606 1.415 . S
H1608 C1605 0.999 . S
H1609 C1590 0.913 . S
H1610 C1628 0.951 . S
H1611 C1630 0.951 . S
H1612 C1632 0.950 . S
H1613 C1633 0.950 . S
H1614 C1635 0.950 . S
H1615 C1638 0.950 . S
H1616 C1639 0.950 . S
H1617 C1641 0.950 . S
H1618 C1642 0.950 . S
H1619 C1643 0.951 . S
H1620 C1645 0.951 . S
H1621 C1647 0.950 . S
H1622 C1648 0.950 . S
H1623 C1650 0.950 . S
H1624 C1653 0.950 . S
H1625 C1654 0.950 . S
H1626 C1656 0.950 . S
H1627 C1657 0.950 . S
C1628 H1610 0.951 . S
C1628 C1629 1.366 . S
C1628 C1630 1.388 . S
C1629 C1628 1.366 . S
C1629 C1633 1.385 . S
C1630 H1611 0.951 . S
C1630 C1628 1.388 . S
C1630 C1631 1.366 . S
C1631 C1630 1.366 . S
C1631 C1632 1.414 . S
C1631 C1634 1.499 . S
C1632 H1612 0.950 . S
C1632 C1631 1.414 . S
C1632 C1633 1.374 . S
C1633 H1613 0.950 . S
C1633 C1629 1.385 . S
C1633 C1632 1.374 . S
C1634 C1631 1.499 . S
C1634 C1635 1.373 . S
C1634 C1636 1.389 . S
C1635 H1614 0.950 . S
C1635 C1634 1.373 . S
C1635 C1651 1.377 . S
C1636 C1634 1.389 . S
C1636 C1637 1.524 . S
C1636 C1650 1.377 . S
C1637 C1636 1.524 . S
C1637 C1638 1.397 . S
C1637 C1642 1.363 . S
C1638 H1615 0.950 . S
C1638 C1637 1.397 . S
C1638 C1639 1.334 . S
C1639 H1616 0.950 . S
C1639 C1638 1.334 . S
C1639 C1640 1.287 . S
C1640 C1639 1.287 . S
C1640 C1641 1.524 . S
C1640 H1659 0.913 . S
C1641 H1617 0.950 . S
C1641 C1640 1.524 . S
C1641 C1642 1.415 . S
C1642 H1618 0.950 . S
C1642 C1637 1.363 . S
C1642 C1641 1.415 . S
C1643 H1619 0.951 . S
C1643 C1644 1.366 . S
C1643 C1645 1.388 . S
C1644 C1643 1.366 . S
C1644 C1648 1.385 . S
C1645 H1620 0.951 . S
C1645 C1643 1.388 . S
C1645 C1646 1.366 . S
C1646 C1645 1.366 . S
C1646 C1647 1.414 . S
C1646 C1649 1.499 . S
C1647 H1621 0.950 . S
C1647 C1646 1.414 . S
C1647 C1648 1.374 . S
C1648 H1622 0.950 . S
C1648 C1644 1.385 . S
C1648 C1647 1.374 . S
C1649 C1646 1.499 . S
C1649 C1650 1.373 . S
C1649 C1651 1.389 . S
C1650 H1623 0.950 . S
C1650 C1636 1.377 . S
C1650 C1649 1.373 . S
C1651 C1635 1.377 . S
C1651 C1649 1.389 . S
C1651 C1652 1.524 . S
C1652 C1651 1.524 . S
C1652 C1653 1.397 . S
C1652 C1657 1.363 . S
C1653 H1624 0.950 . S
C1653 C1652 1.397 . S
C1653 C1654 1.334 . S
C1654 H1625 0.950 . S
C1654 C1653 1.334 . S
C1654 C1655 1.287 . S
C1655 C1654 1.287 . S
C1655 C1656 1.524 . S
C1655 H1658 0.999 . S
C1656 H1626 0.950 . S
C1656 C1655 1.524 . S
C1656 C1657 1.415 . S
C1657 H1627 0.950 . S
C1657 C1652 1.363 . S
C1657 C1656 1.415 . S
H1658 C1655 0.999 . S
H1659 C1640 0.913 . S
H1660 C1678 0.951 . S
H1661 C1680 0.951 . S
H1662 C1682 0.950 . S
H1663 C1683 0.950 . S
H1664 C1685 0.950 . S
H1665 C1688 0.950 . S
H1666 C1689 0.950 . S
H1667 C1691 0.950 . S
H1668 C1692 0.950 . S
H1669 C1693 0.951 . S
H1670 C1695 0.951 . S
H1671 C1697 0.950 . S
H1672 C1698 0.950 . S
H1673 C1700 0.950 . S
H1674 C1703 0.950 . S
H1675 C1704 0.950 . S
H1676 C1706 0.950 . S
H1677 C1707 0.950 . S
C1678 H1660 0.951 . S
C1678 C1679 1.366 . S
C1678 C1680 1.388 . S
C1679 C1678 1.366 . S
C1679 C1683 1.385 . S
C1680 H1661 0.951 . S
C1680 C1678 1.388 . S
C1680 C1681 1.366 . S
C1681 C1680 1.366 . S
C1681 C1682 1.414 . S
C1681 C1684 1.499 . S
C1682 H1662 0.950 . S
C1682 C1681 1.414 . S
C1682 C1683 1.374 . S
C1683 H1663 0.950 . S
C1683 C1679 1.385 . S
C1683 C1682 1.374 . S
C1684 C1681 1.499 . S
C1684 C1685 1.373 . S
C1684 C1686 1.389 . S
C1685 H1664 0.950 . S
C1685 C1684 1.373 . S
C1685 C1701 1.377 . S
C1686 C1684 1.389 . S
C1686 C1687 1.524 . S
C1686 C1700 1.377 . S
C1687 C1686 1.524 . S
C1687 C1688 1.397 . S
C1687 C1692 1.363 . S
C1688 H1665 0.950 . S
C1688 C1687 1.397 . S
C1688 C1689 1.334 . S
C1689 H1666 0.950 . S
C1689 C1688 1.334 . S
C1689 C1690 1.287 . S
C1690 C1689 1.287 . S
C1690 C1691 1.524 . S
C1690 H1709 0.913 . S
C1691 H1667 0.950 . S
C1691 C1690 1.524 . S
C1691 C1692 1.415 . S
C1692 H1668 0.950 . S
C1692 C1687 1.363 . S
C1692 C1691 1.415 . S
C1693 H1669 0.951 . S
C1693 C1694 1.366 . S
C1693 C1695 1.388 . S
C1694 C1693 1.366 . S
C1694 C1698 1.385 . S
C1695 H1670 0.951 . S
C1695 C1693 1.388 . S
C1695 C1696 1.366 . S
C1696 C1695 1.366 . S
C1696 C1697 1.414 . S
C1696 C1699 1.499 . S
C1697 H1671 0.950 . S
C1697 C1696 1.414 . S
C1697 C1698 1.374 . S
C1698 H1672 0.950 . S
C1698 C1694 1.385 . S
C1698 C1697 1.374 . S
C1699 C1696 1.499 . S
C1699 C1700 1.373 . S
C1699 C1701 1.389 . S
C1700 H1673 0.950 . S
C1700 C1686 1.377 . S
C1700 C1699 1.373 . S
C1701 C1685 1.377 . S
C1701 C1699 1.389 . S
C1701 C1702 1.524 . S
C1702 C1701 1.524 . S
C1702 C1703 1.397 . S
C1702 C1707 1.363 . S
C1703 H1674 0.950 . S
C1703 C1702 1.397 . S
C1703 C1704 1.334 . S
C1704 H1675 0.950 . S
C1704 C1703 1.334 . S
C1704 C1705 1.287 . S
C1705 C1704 1.287 . S
C1705 C1706 1.524 . S
C1705 H1708 0.999 . S
C1706 H1676 0.950 . S
C1706 C1705 1.524 . S
C1706 C1707 1.415 . S
C1707 H1677 0.950 . S
C1707 C1702 1.363 . S
C1707 C1706 1.415 . S
H1708 C1705 0.999 . S
H1709 C1690 0.913 . S
H1710 C1728 0.951 . S
H1711 C1730 0.951 . S
H1712 C1732 0.950 . S
H1713 C1733 0.950 . S
H1714 C1735 0.950 . S
H1715 C1738 0.950 . S
H1716 C1739 0.950 . S
H1717 C1741 0.950 . S
H1718 C1742 0.950 . S
H1719 C1743 0.951 . S
H1720 C1745 0.951 . S
H1721 C1747 0.950 . S
H1722 C1748 0.950 . S
H1723 C1750 0.950 . S
H1724 C1753 0.950 . S
H1725 C1754 0.950 . S
H1726 C1756 0.950 . S
H1727 C1757 0.950 . S
C1728 H1710 0.951 . S
C1728 C1729 1.366 . S
C1728 C1730 1.388 . S
C1729 C1728 1.366 . S
C1729 C1733 1.385 . S
C1730 H1711 0.951 . S
C1730 C1728 1.388 . S
C1730 C1731 1.366 . S
C1731 C1730 1.366 . S
C1731 C1732 1.414 . S
C1731 C1734 1.499 . S
C1732 H1712 0.950 . S
C1732 C1731 1.414 . S
C1732 C1733 1.374 . S
C1733 H1713 0.950 . S
C1733 C1729 1.385 . S
C1733 C1732 1.374 . S
C1734 C1731 1.499 . S
C1734 C1735 1.373 . S
C1734 C1736 1.389 . S
C1735 H1714 0.950 . S
C1735 C1734 1.373 . S
C1735 C1751 1.377 . S
C1736 C1734 1.389 . S
C1736 C1737 1.524 . S
C1736 C1750 1.377 . S
C1737 C1736 1.524 . S
C1737 C1738 1.397 . S
C1737 C1742 1.363 . S
C1738 H1715 0.950 . S
C1738 C1737 1.397 . S
C1738 C1739 1.334 . S
C1739 H1716 0.950 . S
C1739 C1738 1.334 . S
C1739 C1740 1.287 . S
C1740 C1739 1.287 . S
C1740 C1741 1.524 . S
C1740 H1759 0.913 . S
C1741 H1717 0.950 . S
C1741 C1740 1.524 . S
C1741 C1742 1.415 . S
C1742 H1718 0.950 . S
C1742 C1737 1.363 . S
C1742 C1741 1.415 . S
C1743 H1719 0.951 . S
C1743 C1744 1.366 . S
C1743 C1745 1.388 . S
C1744 C1743 1.366 . S
C1744 C1748 1.385 . S
C1745 H1720 0.951 . S
C1745 C1743 1.388 . S
C1745 C1746 1.366 . S
C1746 C1745 1.366 . S
C1746 C1747 1.414 . S
C1746 C1749 1.499 . S
C1747 H1721 0.950 . S
C1747 C1746 1.414 . S
C1747 C1748 1.374 . S
C1748 H1722 0.950 . S
C1748 C1744 1.385 . S
C1748 C1747 1.374 . S
C1749 C1746 1.499 . S
C1749 C1750 1.373 . S
C1749 C1751 1.389 . S
C1750 H1723 0.950 . S
C1750 C1736 1.377 . S
C1750 C1749 1.373 . S
C1751 C1735 1.377 . S
C1751 C1749 1.389 . S
C1751 C1752 1.524 . S
C1752 C1751 1.524 . S
C1752 C1753 1.397 . S
C1752 C1757 1.363 . S
C1753 H1724 0.950 . S
C1753 C1752 1.397 . S
C1753 C1754 1.334 . S
C1754 H1725 0.950 . S
C1754 C1753 1.334 . S
C1754 C1755 1.287 . S
C1755 C1754 1.287 . S
C1755 C1756 1.524 . S
C1755 H1758 0.999 . S
C1756 H1726 0.950 . S
C1756 C1755 1.524 . S
C1756 C1757 1.415 . S
C1757 H1727 0.950 . S
C1757 C1752 1.363 . S
C1757 C1756 1.415 . S
H1758 C1755 0.999 . S
H1759 C1740 0.913 . S
H1760 C1778 0.951 . S
H1761 C1780 0.951 . S
H1762 C1782 0.950 . S
H1763 C1783 0.950 . S
H1764 C1785 0.950 . S
H1765 C1788 0.950 . S
H1766 C1789 0.950 . S
H1767 C1791 0.950 . S
H1768 C1792 0.950 . S
H1769 C1793 0.951 . S
H1770 C1795 0.951 . S
H1771 C1797 0.950 . S
H1772 C1798 0.950 . S
H1773 C1800 0.950 . S
H1774 C1803 0.950 . S
H1775 C1804 0.950 . S
H1776 C1806 0.950 . S
H1777 C1807 0.950 . S
C1778 H1760 0.951 . S
C1778 C1779 1.366 . S
C1778 C1780 1.388 . S
C1779 C1778 1.366 . S
C1779 C1783 1.385 . S
C1780 H1761 0.951 . S
C1780 C1778 1.388 . S
C1780 C1781 1.366 . S
C1781 C1780 1.366 . S
C1781 C1782 1.414 . S
C1781 C1784 1.499 . S
C1782 H1762 0.950 . S
C1782 C1781 1.414 . S
C1782 C1783 1.374 . S
C1783 H1763 0.950 . S
C1783 C1779 1.385 . S
C1783 C1782 1.374 . S
C1784 C1781 1.499 . S
C1784 C1785 1.373 . S
C1784 C1786 1.389 . S
C1785 H1764 0.950 . S
C1785 C1784 1.373 . S
C1785 C1801 1.377 . S
C1786 C1784 1.389 . S
C1786 C1787 1.524 . S
C1786 C1800 1.377 . S
C1787 C1786 1.524 . S
C1787 C1788 1.397 . S
C1787 C1792 1.363 . S
C1788 H1765 0.950 . S
C1788 C1787 1.397 . S
C1788 C1789 1.334 . S
C1789 H1766 0.950 . S
C1789 C1788 1.334 . S
C1789 C1790 1.287 . S
C1790 C1789 1.287 . S
C1790 C1791 1.524 . S
C1790 H1809 0.913 . S
C1791 H1767 0.950 . S
C1791 C1790 1.524 . S
C1791 C1792 1.415 . S
C1792 H1768 0.950 . S
C1792 C1787 1.363 . S
C1792 C1791 1.415 . S
C1793 H1769 0.951 . S
C1793 C1794 1.366 . S
C1793 C1795 1.388 . S
C1794 C1793 1.366 . S
C1794 C1798 1.385 . S
C1795 H1770 0.951 . S
C1795 C1793 1.388 . S
C1795 C1796 1.366 . S
C1796 C1795 1.366 . S
C1796 C1797 1.414 . S
C1796 C1799 1.499 . S
C1797 H1771 0.950 . S
C1797 C1796 1.414 . S
C1797 C1798 1.374 . S
C1798 H1772 0.950 . S
C1798 C1794 1.385 . S
C1798 C1797 1.374 . S
C1799 C1796 1.499 . S
C1799 C1800 1.373 . S
C1799 C1801 1.389 . S
C1800 H1773 0.950 . S
C1800 C1786 1.377 . S
C1800 C1799 1.373 . S
C1801 C1785 1.377 . S
C1801 C1799 1.389 . S
C1801 C1802 1.524 . S
C1802 C1801 1.524 . S
C1802 C1803 1.397 . S
C1802 C1807 1.363 . S
C1803 H1774 0.950 . S
C1803 C1802 1.397 . S
C1803 C1804 1.334 . S
C1804 H1775 0.950 . S
C1804 C1803 1.334 . S
C1804 C1805 1.287 . S
C1805 C1804 1.287 . S
C1805 C1806 1.524 . S
C1805 H1808 0.999 . S
C1806 H1776 0.950 . S
C1806 C1805 1.524 . S
C1806 C1807 1.415 . S
C1807 H1777 0.950 . S
C1807 C1802 1.363 . S
C1807 C1806 1.415 . S
H1808 C1805 0.999 . S
H1809 C1790 0.913 . S
H1810 C1828 0.951 . S
H1811 C1830 0.951 . S
H1812 C1832 0.950 . S
H1813 C1833 0.950 . S
H1814 C1835 0.950 . S
H1815 C1838 0.950 . S
H1816 C1839 0.950 . S
H1817 C1841 0.950 . S
H1818 C1842 0.950 . S
H1819 C1843 0.951 . S
H1820 C1845 0.951 . S
H1821 C1847 0.950 . S
H1822 C1848 0.950 . S
H1823 C1850 0.950 . S
H1824 C1853 0.950 . S
H1825 C1854 0.950 . S
H1826 C1856 0.950 . S
H1827 C1857 0.950 . S
C1828 H1810 0.951 . S
C1828 C1829 1.366 . S
C1828 C1830 1.388 . S
C1829 C1828 1.366 . S
C1829 C1833 1.385 . S
C1830 H1811 0.951 . S
C1830 C1828 1.388 . S
C1830 C1831 1.366 . S
C1831 C1830 1.366 . S
C1831 C1832 1.414 . S
C1831 C1834 1.499 . S
C1832 H1812 0.950 . S
C1832 C1831 1.414 . S
C1832 C1833 1.374 . S
C1833 H1813 0.950 . S
C1833 C1829 1.385 . S
C1833 C1832 1.374 . S
C1834 C1831 1.499 . S
C1834 C1835 1.373 . S
C1834 C1836 1.389 . S
C1835 H1814 0.950 . S
C1835 C1834 1.373 . S
C1835 C1851 1.377 . S
C1836 C1834 1.389 . S
C1836 C1837 1.524 . S
C1836 C1850 1.377 . S
C1837 C1836 1.524 . S
C1837 C1838 1.397 . S
C1837 C1842 1.363 . S
C1838 H1815 0.950 . S
C1838 C1837 1.397 . S
C1838 C1839 1.334 . S
C1839 H1816 0.950 . S
C1839 C1838 1.334 . S
C1839 C1840 1.287 . S
C1840 C1839 1.287 . S
C1840 C1841 1.524 . S
C1840 H1859 0.913 . S
C1841 H1817 0.950 . S
C1841 C1840 1.524 . S
C1841 C1842 1.415 . S
C1842 H1818 0.950 . S
C1842 C1837 1.363 . S
C1842 C1841 1.415 . S
C1843 H1819 0.951 . S
C1843 C1844 1.366 . S
C1843 C1845 1.388 . S
C1844 C1843 1.366 . S
C1844 C1848 1.385 . S
C1845 H1820 0.951 . S
C1845 C1843 1.388 . S
C1845 C1846 1.366 . S
C1846 C1845 1.366 . S
C1846 C1847 1.414 . S
C1846 C1849 1.499 . S
C1847 H1821 0.950 . S
C1847 C1846 1.414 . S
C1847 C1848 1.374 . S
C1848 H1822 0.950 . S
C1848 C1844 1.385 . S
C1848 C1847 1.374 . S
C1849 C1846 1.499 . S
C1849 C1850 1.373 . S
C1849 C1851 1.389 . S
C1850 H1823 0.950 . S
C1850 C1836 1.377 . S
C1850 C1849 1.373 . S
C1851 C1835 1.377 . S
C1851 C1849 1.389 . S
C1851 C1852 1.524 . S
C1852 C1851 1.524 . S
C1852 C1853 1.397 . S
C1852 C1857 1.363 . S
C1853 H1824 0.950 . S
C1853 C1852 1.397 . S
C1853 C1854 1.334 . S
C1854 H1825 0.950 . S
C1854 C1853 1.334 . S
C1854 C1855 1.287 . S
C1855 C1854 1.287 . S
C1855 C1856 1.524 . S
C1855 H1858 0.999 . S
C1856 H1826 0.950 . S
C1856 C1855 1.524 . S
C1856 C1857 1.415 . S
C1857 H1827 0.950 . S
C1857 C1852 1.363 . S
C1857 C1856 1.415 . S
H1858 C1855 0.999 . S
H1859 C1840 0.913 . S
H1860 C1878 0.951 . S
H1861 C1880 0.951 . S
H1862 C1882 0.950 . S
H1863 C1883 0.950 . S
H1864 C1885 0.950 . S
H1865 C1888 0.950 1_556 S
H1866 C1889 0.950 . S
H1867 C1891 0.950 . S
H1868 C1892 0.950 . S
H1869 C1893 0.951 . S
H1870 C1895 0.951 . S
H1871 C1897 0.950 . S
H1872 C1898 0.950 . S
H1873 C1900 0.950 . S
H1874 C1903 0.950 1_554 S
H1875 C1904 0.950 . S
H1876 C1906 0.950 . S
H1877 C1907 0.950 . S
C1878 H1860 0.951 . S
C1878 C1879 1.366 . S
C1878 C1880 1.388 . S
C1879 C1878 1.366 . S
C1879 C1883 1.385 . S
C1880 H1861 0.951 . S
C1880 C1878 1.388 . S
C1880 C1881 1.366 . S
C1881 C1880 1.366 . S
C1881 C1882 1.414 . S
C1881 C1884 1.499 . S
C1882 H1862 0.950 . S
C1882 C1881 1.414 . S
C1882 C1883 1.374 . S
C1883 H1863 0.950 . S
C1883 C1879 1.385 . S
C1883 C1882 1.374 . S
C1884 C1881 1.499 . S
C1884 C1885 1.373 . S
C1884 C1886 1.389 1_556 S
C1885 H1864 0.950 . S
C1885 C1884 1.373 . S
C1885 C1901 1.377 . S
C1886 C1884 1.389 1_554 S
C1886 C1887 1.524 . S
C1886 C1900 1.377 . S
C1887 C1886 1.524 . S
C1887 C1888 1.397 . S
C1887 C1892 1.363 . S
C1888 H1865 0.950 1_554 S
C1888 C1887 1.397 . S
C1888 C1889 1.334 . S
C1889 H1866 0.950 . S
C1889 C1888 1.334 . S
C1889 C1890 1.287 . S
C1890 C1889 1.287 . S
C1890 C1891 1.524 . S
C1890 H1909 0.913 . S
C1891 H1867 0.950 . S
C1891 C1890 1.524 . S
C1891 C1892 1.415 . S
C1892 H1868 0.950 . S
C1892 C1887 1.363 . S
C1892 C1891 1.415 . S
C1893 H1869 0.951 . S
C1893 C1894 1.366 . S
C1893 C1895 1.388 . S
C1894 C1893 1.366 . S
C1894 C1898 1.385 . S
C1895 H1870 0.951 . S
C1895 C1893 1.388 . S
C1895 C1896 1.366 . S
C1896 C1895 1.366 . S
C1896 C1897 1.414 . S
C1896 C1899 1.499 . S
C1897 H1871 0.950 . S
C1897 C1896 1.414 . S
C1897 C1898 1.374 . S
C1898 H1872 0.950 . S
C1898 C1894 1.385 . S
C1898 C1897 1.374 . S
C1899 C1896 1.499 . S
C1899 C1900 1.373 . S
C1899 C1901 1.389 1_554 S
C1900 H1873 0.950 . S
C1900 C1886 1.377 . S
C1900 C1899 1.373 . S
C1901 C1885 1.377 . S
C1901 C1899 1.389 1_556 S
C1901 C1902 1.524 . S
C1902 C1901 1.524 . S
C1902 C1903 1.397 . S
C1902 C1907 1.363 . S
C1903 H1874 0.950 1_556 S
C1903 C1902 1.397 . S
C1903 C1904 1.334 . S
C1904 H1875 0.950 . S
C1904 C1903 1.334 . S
C1904 C1905 1.287 . S
C1905 C1904 1.287 . S
C1905 C1906 1.524 . S
C1905 H1908 0.999 . S
C1906 H1876 0.950 . S
C1906 C1905 1.524 . S
C1906 C1907 1.415 . S
C1907 H1877 0.950 . S
C1907 C1902 1.363 . S
C1907 C1906 1.415 . S
H1908 C1905 0.999 . S
H1909 C1890 0.913 . S
H1910 C1928 0.951 . S
H1911 C1930 0.951 . S
H1912 C1932 0.950 . S
H1913 C1933 0.950 . S
H1914 C1935 0.950 . S
H1915 C1938 0.950 . S
H1916 C1939 0.950 . S
H1917 C1941 0.950 . S
H1918 C1942 0.950 1_655 S
H1919 C1943 0.951 . S
H1920 C1945 0.951 . S
H1921 C1947 0.950 . S
H1922 C1948 0.950 . S
H1923 C1950 0.950 . S
H1924 C1953 0.950 . S
H1925 C1954 0.950 . S
H1926 C1956 0.950 . S
H1927 C1957 0.950 1_455 S
C1928 H1910 0.951 . S
C1928 C1929 1.366 . S
C1928 C1930 1.388 . S
C1929 C1928 1.366 . S
C1929 C1933 1.385 . S
C1930 H1911 0.951 . S
C1930 C1928 1.388 . S
C1930 C1931 1.366 . S
C1931 C1930 1.366 . S
C1931 C1932 1.414 . S
C1931 C1934 1.499 . S
C1932 H1912 0.950 . S
C1932 C1931 1.414 . S
C1932 C1933 1.374 . S
C1933 H1913 0.950 . S
C1933 C1929 1.385 . S
C1933 C1932 1.374 . S
C1934 C1931 1.499 . S
C1934 C1935 1.373 . S
C1934 C1936 1.389 . S
C1935 H1914 0.950 . S
C1935 C1934 1.373 . S
C1935 C1951 1.377 1_455 S
C1936 C1934 1.389 . S
C1936 C1937 1.524 . S
C1936 C1950 1.377 1_455 S
C1937 C1936 1.524 . S
C1937 C1938 1.397 . S
C1937 C1942 1.363 . S
C1938 H1915 0.950 . S
C1938 C1937 1.397 . S
C1938 C1939 1.334 . S
C1939 H1916 0.950 . S
C1939 C1938 1.334 . S
C1939 C1940 1.287 . S
C1940 C1939 1.287 . S
C1940 C1941 1.524 . S
C1940 H1959 0.913 . S
C1941 H1917 0.950 . S
C1941 C1940 1.524 . S
C1941 C1942 1.415 . S
C1942 H1918 0.950 1_455 S
C1942 C1937 1.363 . S
C1942 C1941 1.415 . S
C1943 H1919 0.951 . S
C1943 C1944 1.366 . S
C1943 C1945 1.388 . S
C1944 C1943 1.366 . S
C1944 C1948 1.385 . S
C1945 H1920 0.951 . S
C1945 C1943 1.388 . S
C1945 C1946 1.366 . S
C1946 C1945 1.366 . S
C1946 C1947 1.414 . S
C1946 C1949 1.499 . S
C1947 H1921 0.950 . S
C1947 C1946 1.414 . S
C1947 C1948 1.374 . S
C1948 H1922 0.950 . S
C1948 C1944 1.385 . S
C1948 C1947 1.374 . S
C1949 C1946 1.499 . S
C1949 C1950 1.373 . S
C1949 C1951 1.389 . S
C1950 H1923 0.950 . S
C1950 C1936 1.377 1_655 S
C1950 C1949 1.373 . S
C1951 C1935 1.377 1_655 S
C1951 C1949 1.389 . S
C1951 C1952 1.524 . S
C1952 C1951 1.524 . S
C1952 C1953 1.397 . S
C1952 C1957 1.363 . S
C1953 H1924 0.950 . S
C1953 C1952 1.397 . S
C1953 C1954 1.334 . S
C1954 H1925 0.950 . S
C1954 C1953 1.334 . S
C1954 C1955 1.287 . S
C1955 C1954 1.287 . S
C1955 C1956 1.524 . S
C1955 H1958 0.999 . S
C1956 H1926 0.950 . S
C1956 C1955 1.524 . S
C1956 C1957 1.415 . S
C1957 H1927 0.950 1_655 S
C1957 C1952 1.363 . S
C1957 C1956 1.415 . S
H1958 C1955 0.999 . S
H1959 C1940 0.913 . S
H1960 C1978 0.951 . S
H1961 C1980 0.951 . S
H1962 C1982 0.950 . S
H1963 C1983 0.950 . S
H1964 C1985 0.950 . S
H1965 C1988 0.950 . S
H1966 C1989 0.950 . S
H1967 C1991 0.950 . S
H1968 C1992 0.950 . S
H1969 C1993 0.951 . S
H1970 C1995 0.951 . S
H1971 C1997 0.950 . S
H1972 C1998 0.950 . S
H1973 C2000 0.950 . S
H1974 C2003 0.950 . S
H1975 C2004 0.950 . S
H1976 C2006 0.950 . S
H1977 C2007 0.950 . S
C1978 H1960 0.951 . S
C1978 C1979 1.366 . S
C1978 C1980 1.388 . S
C1979 C1978 1.366 . S
C1979 C1983 1.385 . S
C1980 H1961 0.951 . S
C1980 C1978 1.388 . S
C1980 C1981 1.366 . S
C1981 C1980 1.366 . S
C1981 C1982 1.414 . S
C1981 C1984 1.499 . S
C1982 H1962 0.950 . S
C1982 C1981 1.414 . S
C1982 C1983 1.374 . S
C1983 H1963 0.950 . S
C1983 C1979 1.385 . S
C1983 C1982 1.374 . S
C1984 C1981 1.499 . S
C1984 C1985 1.373 . S
C1984 C1986 1.389 . S
C1985 H1964 0.950 . S
C1985 C1984 1.373 . S
C1985 C2001 1.377 1_564 S
C1986 C1984 1.389 . S
C1986 C1987 1.524 . S
C1986 C2000 1.377 1_564 S
C1987 C1986 1.524 . S
C1987 C1988 1.397 . S
C1987 C1992 1.363 1_554 S
C1988 H1965 0.950 . S
C1988 C1987 1.397 . S
C1988 C1989 1.334 . S
C1989 H1966 0.950 . S
C1989 C1988 1.334 . S
C1989 C1990 1.287 . S
C1990 C1989 1.287 . S
C1990 C1991 1.524 1_554 S
C1990 H2009 0.913 . S
C1991 H1967 0.950 . S
C1991 C1990 1.524 1_556 S
C1991 C1992 1.415 . S
C1992 H1968 0.950 . S
C1992 C1987 1.363 1_556 S
C1992 C1991 1.415 . S
C1993 H1969 0.951 . S
C1993 C1994 1.366 . S
C1993 C1995 1.388 . S
C1994 C1993 1.366 . S
C1994 C1998 1.385 . S
C1995 H1970 0.951 . S
C1995 C1993 1.388 . S
C1995 C1996 1.366 . S
C1996 C1995 1.366 . S
C1996 C1997 1.414 . S
C1996 C1999 1.499 . S
C1997 H1971 0.950 . S
C1997 C1996 1.414 . S
C1997 C1998 1.374 . S
C1998 H1972 0.950 . S
C1998 C1994 1.385 . S
C1998 C1997 1.374 . S
C1999 C1996 1.499 . S
C1999 C2000 1.373 . S
C1999 C2001 1.389 . S
C2000 H1973 0.950 . S
C2000 C1986 1.377 1_546 S
C2000 C1999 1.373 . S
C2001 C1985 1.377 1_546 S
C2001 C1999 1.389 . S
C2001 C2002 1.524 . S
C2002 C2001 1.524 . S
C2002 C2003 1.397 . S
C2002 C2007 1.363 1_556 S
C2003 H1974 0.950 . S
C2003 C2002 1.397 . S
C2003 C2004 1.334 . S
C2004 H1975 0.950 . S
C2004 C2003 1.334 . S
C2004 C2005 1.287 . S
C2005 C2004 1.287 . S
C2005 C2006 1.524 1_556 S
C2005 H2008 0.999 . S
C2006 H1976 0.950 . S
C2006 C2005 1.524 1_554 S
C2006 C2007 1.415 . S
C2007 H1977 0.950 . S
C2007 C2002 1.363 1_554 S
C2007 C2006 1.415 . S
H2008 C2005 0.999 . S
H2009 C1990 0.913 . S
H2010 C2028 0.951 . S
H2011 C2030 0.951 . S
H2012 C2032 0.950 . S
H2013 C2033 0.950 . S
H2014 C2035 0.950 . S
H2015 C2038 0.950 . S
H2016 C2039 0.950 . S
H2017 C2041 0.950 . S
H2018 C2042 0.950 . S
H2019 C2043 0.951 . S
H2020 C2045 0.951 . S
H2021 C2047 0.950 . S
H2022 C2048 0.950 . S
H2023 C2050 0.950 . S
H2024 C2053 0.950 . S
H2025 C2054 0.950 . S
H2026 C2056 0.950 . S
H2027 C2057 0.950 . S
C2028 H2010 0.951 . S
C2028 C2029 1.366 . S
C2028 C2030 1.388 . S
C2029 C2028 1.366 . S
C2029 C2033 1.385 . S
C2030 H2011 0.951 . S
C2030 C2028 1.388 . S
C2030 C2031 1.366 . S
C2031 C2030 1.366 . S
C2031 C2032 1.414 . S
C2031 C2034 1.499 . S
C2032 H2012 0.950 . S
C2032 C2031 1.414 . S
C2032 C2033 1.374 . S
C2033 H2013 0.950 . S
C2033 C2029 1.385 . S
C2033 C2032 1.374 . S
C2034 C2031 1.499 . S
C2034 C2035 1.373 . S
C2034 C2036 1.389 . S
C2035 H2014 0.950 . S
C2035 C2034 1.373 . S
C2035 C2051 1.377 . S
C2036 C2034 1.389 . S
C2036 C2037 1.524 . S
C2036 C2050 1.377 . S
C2037 C2036 1.524 . S
C2037 C2038 1.397 . S
C2037 C2042 1.363 . S
C2038 H2015 0.950 . S
C2038 C2037 1.397 . S
C2038 C2039 1.334 . S
C2039 H2016 0.950 . S
C2039 C2038 1.334 . S
C2039 C2040 1.287 . S
C2040 C2039 1.287 . S
C2040 C2041 1.524 . S
C2040 H2059 0.913 . S
C2041 H2017 0.950 . S
C2041 C2040 1.524 . S
C2041 C2042 1.415 . S
C2042 H2018 0.950 . S
C2042 C2037 1.363 . S
C2042 C2041 1.415 . S
C2043 H2019 0.951 . S
C2043 C2044 1.366 . S
C2043 C2045 1.388 . S
C2044 C2043 1.366 . S
C2044 C2048 1.385 . S
C2045 H2020 0.951 . S
C2045 C2043 1.388 . S
C2045 C2046 1.366 . S
C2046 C2045 1.366 . S
C2046 C2047 1.414 . S
C2046 C2049 1.499 . S
C2047 H2021 0.950 . S
C2047 C2046 1.414 . S
C2047 C2048 1.374 . S
C2048 H2022 0.950 . S
C2048 C2044 1.385 . S
C2048 C2047 1.374 . S
C2049 C2046 1.499 . S
C2049 C2050 1.373 . S
C2049 C2051 1.389 . S
C2050 H2023 0.950 . S
C2050 C2036 1.377 . S
C2050 C2049 1.373 . S
C2051 C2035 1.377 . S
C2051 C2049 1.389 . S
C2051 C2052 1.524 . S
C2052 C2051 1.524 . S
C2052 C2053 1.397 . S
C2052 C2057 1.363 . S
C2053 H2024 0.950 . S
C2053 C2052 1.397 . S
C2053 C2054 1.334 . S
C2054 H2025 0.950 . S
C2054 C2053 1.334 . S
C2054 C2055 1.287 . S
C2055 C2054 1.287 . S
C2055 C2056 1.524 . S
C2055 H2058 0.999 . S
C2056 H2026 0.950 . S
C2056 C2055 1.524 . S
C2056 C2057 1.415 . S
C2057 H2027 0.950 . S
C2057 C2052 1.363 . S
C2057 C2056 1.415 . S
H2058 C2055 0.999 . S
H2059 C2040 0.913 . S
H2060 C2078 0.951 . S
H2061 C2080 0.951 . S
H2062 C2082 0.950 . S
H2063 C2083 0.950 . S
H2064 C2085 0.950 . S
H2065 C2088 0.950 . S
H2066 C2089 0.950 . S
H2067 C2091 0.950 . S
H2068 C2092 0.950 . S
H2069 C2093 0.951 . S
H2070 C2095 0.951 . S
H2071 C2097 0.950 . S
H2072 C2098 0.950 . S
H2073 C2100 0.950 . S
H2074 C2103 0.950 . S
H2075 C2104 0.950 . S
H2076 C2106 0.950 . S
H2077 C2107 0.950 . S
C2078 H2060 0.951 . S
C2078 C2079 1.366 . S
C2078 C2080 1.388 . S
C2079 C2078 1.366 . S
C2079 C2083 1.385 . S
C2080 H2061 0.951 . S
C2080 C2078 1.388 . S
C2080 C2081 1.366 . S
C2081 C2080 1.366 . S
C2081 C2082 1.414 . S
C2081 C2084 1.499 . S
C2082 H2062 0.950 . S
C2082 C2081 1.414 . S
C2082 C2083 1.374 . S
C2083 H2063 0.950 . S
C2083 C2079 1.385 . S
C2083 C2082 1.374 . S
C2084 C2081 1.499 . S
C2084 C2085 1.373 1_655 S
C2084 C2086 1.375 1_556 S
C2085 H2064 0.950 . S
C2085 C2084 1.373 1_455 S
C2085 C2101 1.391 . S
C2086 C2084 1.375 1_554 S
C2086 C2087 1.525 . S
C2086 C2100 1.390 . S
C2087 C2086 1.525 . S
C2087 C2088 1.397 1_554 S
C2087 C2092 1.363 . S
C2088 H2065 0.950 . S
C2088 C2087 1.397 1_556 S
C2088 C2089 1.334 . S
C2089 H2066 0.950 . S
C2089 C2088 1.334 . S
C2089 C2090 1.287 1_556 S
C2090 C2089 1.287 1_554 S
C2090 C2091 1.524 . S
C2090 H2109 0.913 . S
C2091 H2067 0.950 . S
C2091 C2090 1.524 . S
C2091 C2092 1.415 . S
C2092 H2068 0.950 . S
C2092 C2087 1.363 . S
C2092 C2091 1.415 . S
C2093 H2069 0.951 . S
C2093 C2094 1.366 . S
C2093 C2095 1.388 . S
C2094 C2093 1.366 . S
C2094 C2098 1.385 . S
C2095 H2070 0.951 . S
C2095 C2093 1.388 . S
C2095 C2096 1.366 . S
C2096 C2095 1.366 . S
C2096 C2097 1.414 . S
C2096 C2099 1.499 . S
C2097 H2071 0.950 . S
C2097 C2096 1.414 . S
C2097 C2098 1.374 . S
C2098 H2072 0.950 . S
C2098 C2094 1.385 . S
C2098 C2097 1.374 . S
C2099 C2096 1.499 . S
C2099 C2100 1.373 1_455 S
C2099 C2101 1.374 1_554 S
C2100 H2073 0.950 . S
C2100 C2086 1.390 . S
C2100 C2099 1.373 1_655 S
C2101 C2085 1.391 . S
C2101 C2099 1.374 1_556 S
C2101 C2102 1.526 . S
C2102 C2101 1.526 . S
C2102 C2103 1.397 1_556 S
C2102 C2107 1.363 . S
C2103 H2074 0.950 . S
C2103 C2102 1.397 1_554 S
C2103 C2104 1.334 . S
C2104 H2075 0.950 . S
C2104 C2103 1.334 . S
C2104 C2105 1.287 1_554 S
C2105 C2104 1.287 1_556 S
C2105 C2106 1.524 . S
C2105 H2108 0.999 . S
C2106 H2076 0.950 . S
C2106 C2105 1.524 . S
C2106 C2107 1.415 . S
C2107 H2077 0.950 . S
C2107 C2102 1.363 . S
C2107 C2106 1.415 . S
H2108 C2105 0.999 . S
H2109 C2090 0.913 . S
H2110 C2128 0.951 . S
H2111 C2130 0.951 . S
H2112 C2132 0.950 . S
H2113 C2133 0.950 . S
H2114 C2135 0.950 . S
H2115 C2138 0.950 . S
H2116 C2139 0.950 . S
H2117 C2141 0.950 . S
H2118 C2142 0.950 . S
H2119 C2143 0.951 . S
H2120 C2145 0.951 . S
H2121 C2147 0.950 . S
H2122 C2148 0.950 . S
H2123 C2150 0.950 . S
H2124 C2153 0.950 . S
H2125 C2154 0.950 . S
H2126 C2156 0.950 . S
H2127 C2157 0.950 . S
C2128 H2110 0.951 . S
C2128 C2129 1.366 . S
C2128 C2130 1.388 . S
C2129 C2128 1.366 . S
C2129 C2133 1.385 . S
C2130 H2111 0.951 . S
C2130 C2128 1.388 . S
C2130 C2131 1.366 . S
C2131 C2130 1.366 . S
C2131 C2132 1.414 . S
C2131 C2134 1.499 . S
C2132 H2112 0.950 . S
C2132 C2131 1.414 . S
C2132 C2133 1.374 . S
C2133 H2113 0.950 . S
C2133 C2129 1.385 . S
C2133 C2132 1.374 . S
C2134 C2131 1.499 . S
C2134 C2135 1.373 . S
C2134 C2136 1.389 1_565 S
C2135 H2114 0.950 . S
C2135 C2134 1.373 . S
C2135 C2151 1.377 . S
C2136 C2134 1.389 1_545 S
C2136 C2137 1.524 . S
C2136 C2150 1.377 . S
C2137 C2136 1.524 . S
C2137 C2138 1.397 . S
C2137 C2142 1.363 . S
C2138 H2115 0.950 . S
C2138 C2137 1.397 . S
C2138 C2139 1.334 . S
C2139 H2116 0.950 . S
C2139 C2138 1.334 . S
C2139 C2140 1.287 . S
C2140 C2139 1.287 . S
C2140 C2141 1.524 . S
C2140 H2159 0.913 . S
C2141 H2117 0.950 . S
C2141 C2140 1.524 . S
C2141 C2142 1.415 . S
C2142 H2118 0.950 . S
C2142 C2137 1.363 . S
C2142 C2141 1.415 . S
C2143 H2119 0.951 . S
C2143 C2144 1.366 . S
C2143 C2145 1.388 . S
C2144 C2143 1.366 . S
C2144 C2148 1.385 . S
C2145 H2120 0.951 . S
C2145 C2143 1.388 . S
C2145 C2146 1.366 . S
C2146 C2145 1.366 . S
C2146 C2147 1.414 . S
C2146 C2149 1.499 . S
C2147 H2121 0.950 . S
C2147 C2146 1.414 . S
C2147 C2148 1.374 . S
C2148 H2122 0.950 . S
C2148 C2144 1.385 . S
C2148 C2147 1.374 . S
C2149 C2146 1.499 . S
C2149 C2150 1.373 . S
C2149 C2151 1.389 1_545 S
C2150 H2123 0.950 . S
C2150 C2136 1.377 . S
C2150 C2149 1.373 . S
C2151 C2135 1.377 . S
C2151 C2149 1.389 1_565 S
C2151 C2152 1.524 . S
C2152 C2151 1.524 . S
C2152 C2153 1.397 . S
C2152 C2157 1.363 . S
C2153 H2124 0.950 . S
C2153 C2152 1.397 . S
C2153 C2154 1.334 . S
C2154 H2125 0.950 . S
C2154 C2153 1.334 . S
C2154 C2155 1.287 . S
C2155 C2154 1.287 . S
C2155 C2156 1.524 . S
C2155 H2158 0.999 . S
C2156 H2126 0.950 . S
C2156 C2155 1.524 . S
C2156 C2157 1.415 . S
C2157 H2127 0.950 . S
C2157 C2152 1.363 . S
C2157 C2156 1.415 . S
H2158 C2155 0.999 . S
H2159 C2140 0.913 . S
C379 C147 0.697 . S
C394 N14 0.698 . S
C429 N156 0.625 . S
C444 C46 0.610 . S
C479 N74 0.699 . S
C494 C27 0.697 . S
C529 C106 0.610 . S
C544 N36 0.626 . S
C579 N134 0.697 . S
C594 C87 0.697 . S
C629 N96 0.626 . S
C644 C166 0.610 . S
C679 N246 0.624 . S
C694 C196 0.609 . S
C729 C226 0.608 . S
C744 N276 0.623 . S
C779 N306 0.625 . S
C794 C256 0.610 . S
C829 C286 0.610 . S
C844 N336 0.625 . S
C879 C316 0.609 . S
C894 N186 0.623 . S
C929 N216 0.623 . S
C944 C346 0.608 . S
C979 C136 1.016 . S
C994 N6 1.023 . S
C1029 C57 1.094 . S
C1044 N164 1.072 . S
C1079 N66 1.023 . S
C1094 C16 1.017 . S
C1129 C117 1.094 . S
C1144 N44 1.071 . S
C1179 C76 1.017 . S
C1194 N126 1.023 . S
C1229 N104 1.070 . S
C1244 C177 1.093 . S
C1279 N254 1.070 . S
C1294 C207 1.093 . S
C1329 C237 1.095 . S
C1344 N284 1.072 . S
C1379 C267 1.092 . S
C1394 N314 1.069 . S
C1429 N344 1.072 . S
C1444 C297 1.095 . S
C1479 C327 1.093 . S
C1494 N194 1.071 . S
C1529 N224 1.073 . S
C1544 C357 1.095 . S
C1579 C301 1.641 . S
C1594 C10 1.651 . S
C1629 C31 1.641 . S
C1644 C331 1.641 . S
C1679 C70 1.652 . S
C1694 C181 1.642 . S
C1729 C91 1.642 . S
C1744 C211 1.642 . S
C1779 C130 1.651 . S
C1794 C241 1.641 . S
C1829 C271 1.642 . S
C1844 C151 1.642 . S
C1879 C280 1.893 . S
C1894 C1 1.839 . S
C1929 C310 1.893 . S
C1944 C40 1.893 . S
C1979 C61 1.840 . S
C1994 C340 1.894 . S
C2029 C100 1.893 . S
C2044 C190 1.893 . S
C2079 C220 1.894 . S
C2094 C121 1.840 . S
C2129 C250 1.894 . S
C2144 C160 1.894 . S
