# Generated by pormake.
# Topology wiy, (3)-cn, num edge types: 1
# Building blocks:
#     Node 0, Type 0, BuildingBlock: WUSLED_clean_sbu_0, # of connection points: 3
#     Node 1, Type 0, BuildingBlock: WUSLED_clean_sbu_0, # of connection points: 3
#     Node 2, Type 0, BuildingBlock: WUSLED_clean_sbu_0, # of connection points: 3
#     Node 3, Type 0, BuildingBlock: WUSLED_clean_sbu_0, # of connection points: 3
#     Node 4, Type 0, BuildingBlock: WUSLED_clean_sbu_0, # of connection points: 3
#     Node 5, Type 0, BuildingBlock: WUSLED_clean_sbu_0, # of connection points: 3
#     Node 6, Type 0, BuildingBlock: WUSLED_clean_sbu_0, # of connection points: 3
#     Node 7, Type 0, BuildingBlock: WUSLED_clean_sbu_0, # of connection points: 3
#     Node 8, Type 0, BuildingBlock: WUSLED_clean_sbu_0, # of connection points: 3
#     Node 9, Type 0, BuildingBlock: WUSLED_clean_sbu_0, # of connection points: 3
#     Node 10, Type 0, BuildingBlock: WUSLED_clean_sbu_0, # of connection points: 3
#     Node 11, Type 0, BuildingBlock: WUSLED_clean_sbu_0, # of connection points: 3
#     Edge 12, Type (0, 0), BuildingBlock: AJUNOK_clean_linker_0, # of connection points: 2
#     Edge 13, Type (0, 0), BuildingBlock: AJUNOK_clean_linker_0, # of connection points: 2
#     Edge 14, Type (0, 0), BuildingBlock: AJUNOK_clean_linker_0, # of connection points: 2
#     Edge 15, Type (0, 0), BuildingBlock: AJUNOK_clean_linker_0, # of connection points: 2
#     Edge 16, Type (0, 0), BuildingBlock: AJUNOK_clean_linker_0, # of connection points: 2
#     Edge 17, Type (0, 0), BuildingBlock: AJUNOK_clean_linker_0, # of connection points: 2
#     Edge 18, Type (0, 0), BuildingBlock: AJUNOK_clean_linker_0, # of connection points: 2
#     Edge 19, Type (0, 0), BuildingBlock: AJUNOK_clean_linker_0, # of connection points: 2
#     Edge 20, Type (0, 0), BuildingBlock: AJUNOK_clean_linker_0, # of connection points: 2
#     Edge 21, Type (0, 0), BuildingBlock: AJUNOK_clean_linker_0, # of connection points: 2
#     Edge 22, Type (0, 0), BuildingBlock: AJUNOK_clean_linker_0, # of connection points: 2
#     Edge 23, Type (0, 0), BuildingBlock: AJUNOK_clean_linker_0, # of connection points: 2
#     Edge 24, Type (0, 0), BuildingBlock: AJUNOK_clean_linker_0, # of connection points: 2
#     Edge 25, Type (0, 0), BuildingBlock: AJUNOK_clean_linker_0, # of connection points: 2
#     Edge 26, Type (0, 0), BuildingBlock: AJUNOK_clean_linker_0, # of connection points: 2
#     Edge 27, Type (0, 0), BuildingBlock: AJUNOK_clean_linker_0, # of connection points: 2
#     Edge 28, Type (0, 0), BuildingBlock: AJUNOK_clean_linker_0, # of connection points: 2
#     Edge 29, Type (0, 0), BuildingBlock: AJUNOK_clean_linker_0, # of connection points: 2
# Relax obj value: 0.113
# Max RMSD: 0.098
# Mean RMSD: 0.086
data_MOF--net-wiy--node1-WUSLED_clean_sbu_0--edge1-AJUNOK_clean_linker_0
_symmetry_space_group_name_H-M    P1
_symmetry_Int_Tables_number       1
_symmetry_cell_setting            triclinic
loop_
_symmetry_equiv_pos_as_xyz
'x, y, z'
_cell_length_a     46.179504
_cell_length_b     46.193665
_cell_length_c     39.429839
_cell_angle_alpha  90.146319
_cell_angle_beta   90.054945
_cell_angle_gamma 116.31764
loop_
_atom_site_label
_atom_site_type_symbol
_atom_site_fract_x
_atom_site_fract_y
_atom_site_fract_z
_atom_type_partial_charge
C0 C 0.02548 0.29105 0.98541 0.0
C1 C 0.01246 0.30905 0.96819 0.0
C2 C 0.01455 0.28288 0.91509 0.0
C3 C 1.00684 0.30485 0.93319 0.0
C4 C 0.02651 0.26413 0.93285 0.0
C5 C 0.03202 0.26828 0.96771 0.0
U6 U 0.04883 0.31553 0.08395 0.0
O7 O 0.04698 0.27753 0.11889 0.0
O8 O 0.09365 0.31363 0.09935 0.0
C9 C 0.07852 0.2881 0.11847 0.0
C10 C 0.03497 0.29708 0.02111 0.0
C11 C 0.09496 0.28684 0.14992 0.0
C12 C 0.13543 0.2739 0.17571 0.0
C13 C 0.11869 0.27593 0.1472 0.0
C14 C 0.10472 0.2935 0.2107 0.0
C15 C 0.12847 0.28223 0.20792 0.0
C16 C 0.088 0.29579 0.18182 0.0
C17 C 0.02433 0.38463 0.1053 0.0
C18 C 1.00776 0.42291 0.13044 0.0
C19 C 0.01661 0.42365 0.06981 0.0
C20 C 0.02429 0.39759 0.0731 0.0
C21 C 0.00917 0.43705 0.09868 0.0
C22 C 0.01514 0.39688 0.13366 0.0
C23 C 0.03728 0.36119 0.11134 0.0
O24 O 0.06214 0.32179 0.02993 0.0
O25 O 0.01404 0.28381 0.04572 0.0
O26 O 0.01654 0.33045 0.11241 0.0
O27 O 0.06455 0.36669 0.09611 0.0
H28 H 1.00743 0.32682 0.98159 0.0
H29 H 0.99759 0.31959 0.92006 0.0
H30 H 0.03207 0.2466 0.91969 0.0
H31 H 0.04217 0.25424 0.98073 0.0
H32 H 0.15436 0.26639 0.17229 0.0
H33 H 0.12452 0.26916 0.12272 0.0
H34 H 0.09905 0.30039 0.23516 0.0
H35 H 0.06982 0.30447 0.18436 0.0
H36 H 1.00196 0.43272 0.153 0.0
H37 H 0.01811 0.43436 0.04506 0.0
H38 H 0.03142 0.3885 0.05088 0.0
H39 H 0.01509 0.38721 0.15869 0.0
C40 C 0.72195 0.02023 0.14549 0.0
C41 C 0.69594 0.99662 0.12771 0.0
C42 C 0.72685 0.01116 0.0754 0.0
C43 C 0.69819 0.99233 0.09301 0.0
C44 C 0.7532 0.03467 0.09338 0.0
C45 C 0.75073 0.03929 0.12825 0.0
U46 U 0.72038 0.04132 0.24518 0.0
O47 O 0.75632 0.03426 0.27675 0.0
O48 O 0.76545 0.08288 0.26005 0.0
C49 C 0.77558 0.06541 0.27831 0.0
C50 C 0.71681 0.02579 0.18118 0.0
C51 C 0.7898 0.079 0.31162 0.0
C52 C 0.83647 0.09676 0.349 0.0
C53 C 0.8196 0.07988 0.32028 0.0
C54 C 0.79299 0.11068 0.36217 0.0
C55 C 0.82383 0.11313 0.36985 0.0
C56 C 0.77619 0.09394 0.33315 0.0
C57 C 0.63266 0.02436 0.27009 0.0
C58 C 0.58445 0.02836 0.28835 0.0
C59 C 0.58209 0.99594 0.23908 0.0
C60 C 0.61508 1.00409 0.24319 0.0
C61 C 0.56641 0.00786 0.26189 0.0
C62 C 0.61705 0.03629 0.29247 0.0
C63 C 0.66726 0.03415 0.27603 0.0
O64 O 0.72317 0.05503 0.19163 0.0
O65 O 0.71359 1.00487 0.2052 0.0
O66 O 0.67707 0.01145 0.275 0.0
O67 O 0.68747 0.0613 0.26182 0.0
H68 H 0.67338 0.9821 0.14055 0.0
H69 H 0.67709 0.97481 0.07982 0.0
H70 H 0.77556 0.04956 0.08041 0.0
H71 H 0.77102 0.05785 0.14157 0.0
H72 H 0.86004 0.09801 0.35414 0.0
H73 H 0.8305 0.06851 0.30399 0.0
H74 H 0.78202 0.12206 0.3783 0.0
H75 H 0.75307 0.09341 0.32707 0.0
H76 H 0.57356 0.03901 0.30555 0.0
H77 H 0.56887 0.98043 0.21818 0.0
H78 H 0.6268 0.99478 0.22543 0.0
H79 H 0.63027 0.0522 0.31313 0.0
C80 C 0.71157 0.69557 0.31015 0.0
C81 C 0.72528 0.68041 0.2892 0.0
C82 C 0.72201 0.71123 0.24082 0.0
C83 C 0.73053 0.6882 0.2549 0.0
C84 C 0.7107 0.72835 0.26225 0.0
C85 C 0.70535 0.72047 0.29674 0.0
U86 U 0.69595 0.69018 0.40864 0.0
O87 O 0.7392 0.72835 0.43286 0.0
O88 O 0.69702 0.73687 0.4215 0.0
C89 C 0.72574 0.74806 0.43568 0.0
C90 C 0.69903 0.68079 0.34339 0.0
C91 C 0.72917 0.76449 0.46855 0.0
C92 C 0.7556 0.81407 0.50121 0.0
C93 C 0.75393 0.7959 0.47228 0.0
C94 C 0.7085 0.76903 0.52404 0.0
C95 C 0.73261 0.80108 0.52711 0.0
C96 C 0.70675 0.75084 0.4949 0.0
C97 C 0.63949 0.60537 0.4376 0.0
C98 C 0.60719 0.55101 0.45815 0.0
C99 C 0.60425 0.56339 0.39892 0.0
C100 C 0.62715 0.5953 0.40478 0.0
C101 C 0.59361 0.54109 0.42572 0.0
C102 C 0.62998 0.58286 0.46398 0.0
C103 C 0.66033 0.63959 0.44525 0.0
O104 O 0.67626 0.68657 0.35732 0.0
O105 O 0.7197 0.67915 0.36535 0.0
O106 O 0.69149 0.64945 0.44085 0.0
O107 O 0.64992 0.65989 0.43348 0.0
H108 H 0.73018 0.66109 0.29894 0.0
H109 H 0.73993 0.67515 0.23902 0.0
H110 H 0.70419 0.74639 0.25195 0.0
H111 H 0.69478 0.7326 0.31236 0.0
H112 H 0.77454 0.83859 0.50306 0.0
H113 H 0.77141 0.80682 0.45221 0.0
H114 H 0.69027 0.75854 0.54349 0.0
H115 H 0.68736 0.72662 0.49244 0.0
H116 H 0.59901 0.53459 0.47944 0.0
H117 H 0.59421 0.55635 0.3737 0.0
H118 H 0.63439 0.61235 0.38399 0.0
H119 H 0.63926 0.59023 0.48942 0.0
C120 C 0.98356 0.71178 0.48698 0.0
C121 C 0.01321 0.7136 0.47603 0.0
C122 C 0.99817 0.71679 0.41731 0.0
C123 C 0.02045 0.71603 0.44132 0.0
C124 C 0.96865 0.71501 0.42857 0.0
C125 C 0.96145 0.71252 0.46301 0.0
U126 U 0.96785 0.69597 0.58675 0.0
O127 O 0.97355 0.73548 0.62202 0.0
O128 O 0.9252 0.69905 0.60675 0.0
C129 C 0.94214 0.72485 0.62508 0.0
C130 C 0.97565 0.71266 0.52288 0.0
C131 C 0.92906 0.72641 0.65862 0.0
C132 C 0.91522 0.75893 0.6978 0.0
C133 C 0.93311 0.75664 0.67031 0.0
C134 C 0.89024 0.70071 0.70362 0.0
C135 C 0.89266 0.73091 0.71389 0.0
C136 C 0.90828 0.69844 0.67613 0.0
C137 C 0.99221 0.62622 0.60513 0.0
C138 C 1.00446 0.58403 0.62754 0.0
C139 C 1.00255 0.59068 0.56677 0.0
C140 C 0.99522 0.61674 0.57202 0.0
C141 C 1.00667 0.57365 0.59454 0.0
C142 C 0.99759 0.61019 0.63271 0.0
C143 C 0.98063 0.65049 0.61237 0.0
O144 O 0.94899 0.68922 0.53464 0.0
O145 O 0.99892 0.72572 0.54548 0.0
O146 O 1.00194 0.68103 0.61144 0.0
O147 O 0.95236 0.64502 0.59957 0.0
H148 H 0.03085 0.71363 0.49418 0.0
H149 H 0.04362 0.71786 0.4333 0.0
H150 H 0.95098 0.71537 0.41068 0.0
H151 H 0.93867 0.71175 0.47104 0.0
H152 H 0.91825 0.78257 0.70571 0.0
H153 H 0.94891 0.77847 0.65702 0.0
H154 H 0.87311 0.67871 0.71565 0.0
H155 H 0.90468 0.6748 0.66748 0.0
H156 H 1.00639 0.57099 0.64952 0.0
H157 H 1.00417 0.58331 0.54102 0.0
H158 H 0.99102 0.62882 0.5504 0.0
H159 H 0.99507 0.61706 0.65844 0.0
C160 C 0.29541 0.99552 0.64308 0.0
C161 C 0.31854 0.9911 0.62367 0.0
C162 C 0.29638 1.00268 0.57219 0.0
C163 C 0.31921 0.99496 0.58845 0.0
C164 C 0.27395 0.00806 0.59199 0.0
C165 C 0.27355 1.00457 0.62714 0.0
U166 U 0.29735 0.97459 0.74228 0.0
O167 O 0.26199 0.97917 0.7768 0.0
O168 O 0.25529 0.93126 0.75963 0.0
C169 C 0.24386 0.94779 0.77766 0.0
C170 C 0.2906 0.98696 0.67908 0.0
C171 C 0.22809 0.93328 0.80972 0.0
C172 C 0.17739 0.90491 0.8396 0.0
C173 C 0.1946 0.92215 0.81149 0.0
C174 C 0.22733 0.911 0.86564 0.0
C175 C 0.19336 0.89858 0.86684 0.0
C176 C 0.2446 0.928 0.83706 0.0
C177 C 0.38819 0.99771 0.76185 0.0
C178 C 0.44248 0.0198 0.78528 0.0
C179 C 0.43197 0.99589 0.72912 0.0
C180 C 0.39949 0.98974 0.73186 0.0
C181 C 0.45342 0.00984 0.75639 0.0
C182 C 0.41015 0.01374 0.78797 0.0
C183 C 0.35346 0.98583 0.76897 0.0
O184 O 0.29052 0.95978 0.68896 0.0
O185 O 0.29679 0.0088 0.70304 0.0
O186 O 0.34182 0.00717 0.76947 0.0
O187 O 0.33377 0.95806 0.75517 0.0
H188 H 0.33553 0.98398 0.63561 0.0
H189 H 0.33733 0.99153 0.57391 0.0
H190 H 0.25602 0.01393 0.58021 0.0
H191 H 0.25525 0.00766 0.64178 0.0
H192 H 0.15136 0.89567 0.83947 0.0
H193 H 0.1815 0.92595 0.79051 0.0
H194 H 0.24054 0.90745 0.88661 0.0
H195 H 0.27054 0.9365 0.83607 0.0
H196 H 0.45866 0.03111 0.80637 0.0
H197 H 0.43989 0.98808 0.70652 0.0
H198 H 0.38299 0.97741 0.7113 0.0
H199 H 0.40193 0.02012 0.81128 0.0
C200 C 0.28786 0.2811 0.81642 0.0
C201 C 0.312 0.30787 0.79996 0.0
C202 C 0.28852 0.28533 0.74507 0.0
C203 C 0.31233 0.30995 0.76454 0.0
C204 C 0.26372 0.25926 0.76177 0.0
C205 C 0.26345 0.25716 0.79715 0.0
U206 U 0.31761 0.31815 0.90268 0.0
O207 O 0.29469 0.30848 0.95319 0.0
O208 O 0.33903 0.303 0.94458 0.0
C209 C 0.31597 0.29979 0.96593 0.0
C210 C 0.28865 0.27732 0.85343 0.0
C211 C 0.30353 0.27066 0.9873 0.0
C212 C 0.28761 0.21343 0.99589 0.0
C213 C 0.29532 0.23974 0.974 0.0
C214 C 0.29545 0.2486 0.04423 0.0
C215 C 0.28803 0.2177 0.03132 0.0
C216 C 0.30288 0.27468 0.02244 0.0
C217 C 0.37272 0.41109 0.89752 0.0
C218 C 0.41263 0.44667 0.93755 0.0
C219 C 0.40604 0.46713 0.88301 0.0
C220 C 0.38125 0.43691 0.87498 0.0
C221 C 0.42246 0.47229 0.91412 0.0
C222 C 0.38801 0.41616 0.92922 0.0
C223 C 0.3508 0.37879 0.88508 0.0
O224 O 0.31689 0.28221 0.8658 0.0
O225 O 0.27416 0.29099 0.87153 0.0
O226 O 0.32046 0.36663 0.89475 0.0
O227 O 0.36257 0.35761 0.88451 0.0
H228 H 0.33087 0.32687 0.81445 0.0
H229 H 0.33127 0.33071 0.75239 0.0
H230 H 0.24501 0.24002 0.74741 0.0
H231 H 0.24454 0.23649 0.80945 0.0
H232 H 0.28198 0.1899 0.98519 0.0
H233 H 0.29578 0.23615 0.94688 0.0
H234 H 0.29696 0.25305 0.0713 0.0
H235 H 0.30945 0.2984 0.03318 0.0
H236 H 0.42471 0.44995 0.96182 0.0
H237 H 0.41349 0.48585 0.86394 0.0
H238 H 0.36986 0.43325 0.85026 0.0
H239 H 0.38179 0.39636 0.94687 0.0
C240 C 0.71701 0.98612 0.85839 0.0
C241 C 0.70687 0.00709 0.8745 0.0
C242 C 0.72569 0.99672 0.92867 0.0
C243 C 0.71114 0.01233 0.90947 0.0
C244 C 0.73712 0.97686 0.91205 0.0
C245 C 0.73258 0.9714 0.87716 0.0
U246 U 0.69627 0.96383 0.75879 0.0
O247 O 0.73691 0.96739 0.72674 0.0
O248 O 0.70036 0.92003 0.74398 0.0
C249 C 0.72681 0.93593 0.72636 0.0
C250 C 0.70955 0.97808 0.82253 0.0
C251 C 0.72936 0.92073 0.69446 0.0
C252 C 0.75426 0.89142 0.66496 0.0
C253 C 0.75297 0.90957 0.69268 0.0
C254 C 0.70893 0.89638 0.63939 0.0
C255 C 0.73182 0.88396 0.63842 0.0
C256 C 0.70753 0.91453 0.66744 0.0
C257 C 0.62733 0.98686 0.73522 0.0
C258 C 0.58155 0.99376 0.71387 0.0
C259 C 0.59773 0.00615 0.77266 0.0
C260 C 0.62303 0.9976 0.76732 0.0
C261 C 0.57614 1.00347 0.74611 0.0
C262 C 0.60691 0.98571 0.70852 0.0
C263 C 0.65129 0.97465 0.72868 0.0
O264 O 0.68716 0.94979 0.81267 0.0
O265 O 0.72438 0.99898 0.79837 0.0
O266 O 0.6819 0.99582 0.72921 0.0
O267 O 0.64572 0.94711 0.74317 0.0
H268 H 0.69471 0.01852 0.86025 0.0
H269 H 0.70204 0.02768 0.92169 0.0
H270 H 0.74906 0.96511 0.92614 0.0
H271 H 0.74073 0.9553 0.86494 0.0
H272 H 0.77257 0.88278 0.66452 0.0
H273 H 0.76996 0.91412 0.71334 0.0
H274 H 0.69147 0.89107 0.61909 0.0
H275 H 0.68903 0.92289 0.66847 0.0
H276 H 0.56539 0.99112 0.69291 0.0
H277 H 0.59485 0.0144 0.79758 0.0
H278 H 0.63875 0.9988 0.78825 0.0
H279 H 0.60992 0.9775 0.68359 0.0
C280 C 0.73273 0.73055 0.02298 0.0
C281 C 0.70218 0.71433 0.03808 0.0
C282 C 0.72684 0.72712 0.09416 0.0
C283 C 0.69924 0.71279 0.07341 0.0
C284 C 0.7572 0.74431 0.07888 0.0
C285 C 0.76011 0.74593 0.04355 0.0
U286 U 0.69508 0.69769 0.93809 0.0
O287 O 0.70325 0.71876 0.88675 0.0
O288 O 0.71046 0.67562 0.89695 0.0
C289 C 0.7129 0.69785 0.87486 0.0
C290 C 0.73643 0.72931 0.98605 0.0
C291 C 0.74226 0.71077 0.85385 0.0
C292 C 0.79975 0.72739 0.8462 0.0
C293 C 0.77307 0.71934 0.86765 0.0
C294 C 0.7652 0.71935 0.79729 0.0
C295 C 0.79597 0.72699 0.81073 0.0
C296 C 0.73873 0.71154 0.81865 0.0
C297 C 0.60264 0.6396 0.94819 0.0
C298 C 0.56206 0.60626 0.90732 0.0
C299 C 0.55104 0.59852 0.96762 0.0
C300 C 0.58138 0.62349 0.97458 0.0
C301 C 0.54136 0.58942 0.93406 0.0
C302 C 0.59282 0.63127 0.91436 0.0
C303 C 0.63528 0.66324 0.95782 0.0
O304 O 0.73241 0.70106 0.97455 0.0
O305 O 0.72154 0.74233 0.96764 0.0
O306 O 0.6459 0.69287 0.9463 0.0
O307 O 0.65734 0.65261 0.95843 0.0
H308 H 0.68073 0.70225 0.02255 0.0
H309 H 0.67545 0.69998 0.08449 0.0
H310 H 0.77886 0.75552 0.09424 0.0
H311 H 0.78385 0.75842 0.03228 0.0
H312 H 0.82317 0.73321 0.85729 0.0
H313 H 0.7763 0.71883 0.89482 0.0
H314 H 0.76117 0.71788 0.77015 0.0
H315 H 0.71512 0.70475 0.80755 0.0
H316 H 0.55492 0.59924 0.88124 0.0
H317 H 0.5354 0.5857 0.98849 0.0
H318 H 0.58866 0.62961 1.0008 0.0
H319 H 0.60908 0.64343 0.89369 0.0
C320 C 0.02035 0.71516 0.20047 0.0
C321 C 1.00052 0.6877 0.21897 0.0
C322 C 0.01417 0.71905 0.27108 0.0
C323 C 0.9974 0.68958 0.25392 0.0
C324 C 0.03288 0.74704 0.25231 0.0
C325 C 0.03622 0.74506 0.2171 0.0
U326 U 0.04085 0.71485 0.10055 0.0
O327 O 0.03481 0.75189 0.07013 0.0
O328 O 0.08318 0.75945 0.08636 0.0
C329 C 0.06608 0.77068 0.069 0.0
C330 C 0.02576 0.71069 0.16461 0.0
C331 C 0.07988 0.78593 0.03633 0.0
C332 C 0.10608 0.83576 1.00441 0.0
C333 C 0.0892 0.81903 0.03298 0.0
C334 C 0.10303 0.78602 0.98087 0.0
C335 C 0.11389 0.81971 0.97826 0.0
C336 C 0.0864 0.76928 0.00986 0.0
C337 C 0.02047 0.62678 0.07619 0.0
C338 C 1.00755 0.57341 0.05393 0.0
C339 C 0.01152 0.5825 0.11465 0.0
C340 C 0.01849 0.61497 0.10934 0.0
C341 C 1.00661 0.56149 0.0869 0.0
C342 C 0.01412 0.60559 0.04873 0.0
C343 C 0.03178 0.66137 0.06899 0.0
O344 O 0.05476 0.71638 0.15405 0.0
O345 O 1.00499 0.70861 0.14076 0.0
O346 O 0.00995 0.67234 0.06979 0.0
O347 O 0.05935 0.68105 0.0831 0.0
H348 H 0.98814 0.66446 0.20647 0.0
H349 H 0.98224 0.66782 0.26765 0.0
H350 H 0.04579 0.77008 0.26502 0.0
H351 H 0.05163 0.76654 0.2031 0.0
H352 H 0.11402 0.8616 1.00342 0.0
H353 H 0.0844 0.83227 0.05315 0.0
H354 H 0.10765 0.77266 0.96072 0.0
H355 H 0.07925 0.74362 0.01192 0.0
H356 H 1.00492 0.55841 0.03191 0.0
H357 H 0.01083 0.57406 0.14038 0.0
H358 H 0.02329 0.63099 0.13096 0.0
H359 H 0.01568 0.61433 0.02299 0.0
C360 C 0.29571 0.02513 0.3553 0.0
C361 C 0.31943 0.01803 0.37001 0.0
C362 C 0.29433 0.01373 0.42537 0.0
C363 C 0.31867 0.01223 0.40496 0.0
C364 C 0.2704 0.02027 0.41021 0.0
C365 C 0.27108 0.02583 0.37547 0.0
U366 U 0.31726 0.0462 0.25726 0.0
O367 O 0.27904 0.03989 0.22 0.0
O368 O 0.31262 0.08835 0.23813 0.0
C369 C 0.28811 0.07114 0.21828 0.0
C370 C 0.29678 0.03468 0.31983 0.0
C371 C 0.28727 0.08517 0.18508 0.0
C372 C 0.25549 0.09959 0.14557 0.0
C373 C 0.25727 0.08142 0.173 0.0
C374 C 0.3138 0.1244 0.14065 0.0
C375 C 0.28378 0.12212 0.12987 0.0
C376 C 0.31557 0.1061 0.16816 0.0
C377 C 0.39211 0.02834 0.24056 0.0
C378 C 0.44781 0.03951 0.22986 0.0
C379 C 0.41297 0.9915 0.26098 0.0
C380 C 0.38741 1.00003 0.25789 0.0
C381 C 0.44345 0.01119 0.24684 0.0
C382 C 0.42246 0.04788 0.22671 0.0
C383 C 0.36592 0.03751 0.23357 0.0
O384 O 0.32056 0.06213 0.31022 0.0
O385 O 0.28584 0.01241 0.296 0.0
O386 O 0.33592 0.01477 0.23311 0.0
O387 O 0.36915 0.065 0.24662 0.0
H388 H 0.33878 0.01772 0.35473 0.0
H389 H 0.33762 0.00761 0.41621 0.0
H390 H 0.25135 0.02142 0.42531 0.0
H391 H 0.25271 0.03152 0.36444 0.0
H392 H 0.23198 0.09669 0.1373 0.0
H393 H 0.2352 0.0655 0.18585 0.0
H394 H 0.336 0.14151 0.12894 0.0
H395 H 0.33904 0.10948 0.17716 0.0
H396 H 0.47102 0.05546 0.21911 0.0
H397 H 0.40873 0.9693 0.27387 0.0
H398 H 0.36406 0.98438 0.26854 0.0
H399 H 0.42652 0.06964 0.21296 0.0
C400 C 0.28506 0.28658 0.52569 0.0
C401 C 0.31159 0.3106 0.54279 0.0
C402 C 0.2892 0.2857 0.59709 0.0
C403 C 0.31353 0.31028 0.57821 0.0
C404 C 0.2632 0.26125 0.5797 0.0
C405 C 0.26116 0.26172 0.54434 0.0
U406 U 0.32154 0.31712 0.43924 0.0
O407 O 0.31098 0.29412 0.38862 0.0
O408 O 0.3057 0.33849 0.39795 0.0
C409 C 0.30178 0.31523 0.37646 0.0
C410 C 0.28133 0.28792 0.4887 0.0
C411 C 0.27184 0.30243 0.35617 0.0
C412 C 0.21578 0.29199 0.34813 0.0
C413 C 0.24238 0.29933 0.36957 0.0
C414 C 0.24718 0.28879 0.30031 0.0
C415 C 0.21822 0.28721 0.31325 0.0
C416 C 0.27377 0.29642 0.3216 0.0
C417 C 0.41495 0.37236 0.4445 0.0
C418 C 0.45237 0.40899 0.40337 0.0
C419 C 0.47021 0.40716 0.46081 0.0
C420 C 0.43965 0.38314 0.46873 0.0
C421 C 0.47697 0.42063 0.42817 0.0
C422 C 0.42142 0.38499 0.41152 0.0
C423 C 0.38244 0.35042 0.45619 0.0
O424 O 0.28621 0.31628 0.47688 0.0
O425 O 0.29491 0.27361 0.47019 0.0
O426 O 0.3702 0.32012 0.44622 0.0
O427 O 0.36131 0.36225 0.45705 0.0
H428 H 0.33038 0.33001 0.52881 0.0
H429 H 0.33357 0.32978 0.59083 0.0
H430 H 0.24426 0.24183 0.5935 0.0
H431 H 0.24062 0.24292 0.53158 0.0
H432 H 0.19357 0.29076 0.35856 0.0
H433 H 0.24033 0.30376 0.39624 0.0
H434 H 0.24968 0.28552 0.27343 0.0
H435 H 0.29631 0.29889 0.31077 0.0
H436 H 0.45686 0.41904 0.37804 0.0
H437 H 0.48804 0.41626 0.4809 0.0
H438 H 0.43489 0.37391 0.49441 0.0
H439 H 0.40246 0.37704 0.39254 0.0
C440 C 0.99866 0.2966 0.69906 0.0
C441 C 0.02667 0.31581 0.71741 0.0
C442 C 1.00445 0.28365 0.76803 0.0
C443 C 0.02946 0.30962 0.75152 0.0
C444 C 0.97686 0.26342 0.74925 0.0
C445 C 0.97392 0.26987 0.71496 0.0
U446 U 0.97465 0.29771 0.60259 0.0
O447 O 0.97956 0.25839 0.57534 0.0
O448 O 0.93203 0.25136 0.59376 0.0
C449 C 0.94832 0.23934 0.57612 0.0
C450 C 0.99448 0.30878 0.6658 0.0
C451 C 0.93293 0.22286 0.54422 0.0
C452 C 0.89639 0.17307 0.51612 0.0
C453 C 0.91254 0.18967 0.54525 0.0
C454 C 0.92143 0.22259 0.48385 0.0
C455 C 0.9003 0.18927 0.48506 0.0
C456 C 0.93744 0.23932 0.51327 0.0
C457 C 0.99226 0.38259 0.57219 0.0
C458 C 1.00738 0.43551 0.54789 0.0
C459 C 1.00022 0.42811 0.60866 0.0
C460 C 0.9931 0.39546 0.60474 0.0
C461 C 1.00662 0.4482 0.5801 0.0
C462 C 1.00031 0.40302 0.54401 0.0
C463 C 0.98073 0.34771 0.56655 0.0
O464 O 0.96502 0.30262 0.65628 0.0
O465 O 0.01328 0.30892 0.64071 0.0
O466 O 1.0028 0.33706 0.5672 0.0
O467 O 0.95407 0.32885 0.58256 0.0
H468 H 0.04576 0.33687 0.70584 0.0
H469 H 0.05057 0.32629 0.76536 0.0
H470 H 0.95721 0.24322 0.76134 0.0
H471 H 0.95192 0.25483 0.70139 0.0
H472 H 0.88025 0.14755 0.51812 0.0
H473 H 0.90873 0.17655 0.56887 0.0
H474 H 0.92572 0.23571 0.46022 0.0
H475 H 0.95317 0.265 0.51187 0.0
H476 H 0.01248 0.45055 0.52553 0.0
H477 H 0.99915 0.43721 0.63375 0.0
H478 H 0.98708 0.38005 0.62688 0.0
H479 H 0.99997 0.39354 0.51877 0.0
C480 C 0.16085 0.3071 0.26046 0.0
C481 C 0.1475 0.28078 0.23783 0.0
C482 C 0.18252 0.30824 0.286 0.0
C483 C 0.1918 0.28324 0.28961 0.0
H484 H 0.15571 0.32767 0.25745 0.0
H485 H 0.19328 0.32952 0.302 0.0
S486 S 0.16084 0.20717 0.24009 0.0
N487 N 0.14247 0.22742 0.22347 0.0
N488 N 0.18425 0.23039 0.27058 0.0
C489 C 0.17764 0.25621 0.26827 0.0
C490 C 0.15521 0.25475 0.24264 0.0
C491 C 0.87888 0.13996 0.44756 0.0
C492 C 0.8818 0.17109 0.45457 0.0
C493 C 0.86007 0.12144 0.42037 0.0
C494 C 0.84336 0.13322 0.39887 0.0
H495 H 0.89122 0.12972 0.46328 0.0
H496 H 0.85833 0.09751 0.41643 0.0
S497 S 0.84394 0.21369 0.40516 0.0
N498 N 0.8664 0.21288 0.4374 0.0
N499 N 0.83235 0.17874 0.38545 0.0
C500 C 0.84657 0.16454 0.40512 0.0
C501 C 0.86553 0.18332 0.43302 0.0
C502 C 0.73296 0.87205 0.57649 0.0
C503 C 0.73186 0.86242 0.61042 0.0
C504 C 0.73359 0.85219 0.54979 0.0
C505 C 0.73271 0.8218 0.55604 0.0
H506 H 0.73369 0.89525 0.57055 0.0
H507 H 0.73433 0.86052 0.524 0.0
S508 S 0.73009 0.78555 0.64045 0.0
N509 N 0.73006 0.82057 0.64889 0.0
N510 N 0.73134 0.78336 0.59869 0.0
C511 C 0.73167 0.81192 0.58986 0.0
C512 C 0.73128 0.83222 0.61704 0.0
C513 C 0.86461 0.71523 0.77005 0.0
C514 C 0.87017 0.73284 0.73973 0.0
C515 C 0.84159 0.71466 0.79356 0.0
C516 C 0.82313 0.73157 0.78759 0.0
H517 H 0.87781 0.70136 0.7754 0.0
H518 H 0.83736 0.69981 0.81595 0.0
S519 S 0.82946 0.78262 0.71275 0.0
N520 N 0.85577 0.76819 0.70528 0.0
N521 N 0.81338 0.768 0.74998 0.0
C522 C 0.82925 0.75017 0.75788 0.0
C523 C 0.85256 0.75063 0.73387 0.0
C524 C 0.12835 0.86357 0.93468 0.0
C525 C 0.13405 0.83871 0.94916 0.0
C526 C 0.14797 0.88308 0.9087 0.0
C527 C 0.17404 0.87846 0.89573 0.0
H528 H 0.10848 0.86805 0.94345 0.0
H529 H 0.14268 0.90206 0.89879 0.0
S530 S 0.19921 0.81652 0.92439 0.0
N531 N 0.16826 0.81104 0.9489 0.0
N532 N 0.2039 0.84645 0.89874 0.0
C533 C 0.17987 0.85352 0.9097 0.0
C534 C 0.16012 0.83389 0.93655 0.0
C535 C 0.30054 0.17243 0.04955 0.0
C536 C 0.28355 0.19092 0.05498 0.0
C537 C 0.29995 0.14976 0.0735 0.0
C538 C 0.28223 0.14456 0.10373 0.0
H539 H 0.3154 0.17634 0.0272 0.0
H540 H 0.31383 0.13649 0.06852 0.0
S541 S 0.23225 0.18549 0.12945 0.0
N542 N 0.24698 0.2011 0.09209 0.0
N543 N 0.24673 0.15934 0.13754 0.0
C544 C 0.2644 0.16222 0.10909 0.0
C545 C 0.26489 0.18519 0.08465 0.0
C546 C 0.02602 0.49398 0.11704 0.0
C547 C 1.00615 0.46763 0.09657 0.0
C548 C 0.0251 0.5238 0.11462 0.0
C549 C 1.00403 0.52842 0.09184 0.0
H550 H 0.04319 0.49181 0.13435 0.0
H551 H 0.04195 0.54369 0.12986 0.0
S552 S 0.94411 0.46557 0.03576 0.0
N553 N 0.96318 0.4471 0.05468 0.0
N554 N 0.96053 0.50287 0.05076 0.0
C555 C 0.98298 0.50172 0.0723 0.0
C556 C 0.98428 0.47144 0.07447 0.0
C557 C 0.49169 0.00763 0.22188 0.0
C558 C 0.47141 1.00348 0.25002 0.0
C559 C 0.5215 0.00673 0.22537 0.0
C560 C 0.53211 1.00147 0.25715 0.0
H561 H 0.48512 0.01309 0.19716 0.0
H562 H 0.53712 0.01214 0.20344 0.0
S563 S 0.486 0.98408 0.33772 0.0
N564 N 0.46278 0.99073 0.31006 0.0
N565 N 0.51812 0.98761 0.31633 0.0
C566 C 0.51087 0.99454 0.28488 0.0
C567 C 0.48067 0.99581 0.2814 0.0
C568 C 0.53722 0.50609 0.40608 0.0
C569 C 0.56597 0.50872 0.42105 0.0
C570 C 0.50896 0.47685 0.40649 0.0
C571 C 0.50843 0.44912 0.42177 0.0
H572 H 0.536 0.52723 0.39575 0.0
H573 H 0.48694 0.47657 0.39662 0.0
S574 S 0.57883 0.442 0.45909 0.0
N575 N 0.59325 0.48028 0.44784 0.0
N576 N 0.54031 0.42514 0.44813 0.0
C577 C 0.53767 0.45088 0.43453 0.0
C578 C 0.56636 0.4807 0.43432 0.0
C579 C 0.98933 0.48998 0.56255 0.0
C580 C 0.00908 0.48123 0.58309 0.0
C581 C 0.98958 0.52026 0.56569 0.0
C582 C 0.00977 0.54319 0.58936 0.0
H583 H 0.97275 0.47286 0.54456 0.0
H584 H 0.97291 0.52524 0.55024 0.0
S585 S 0.06859 0.5333 0.64676 0.0
N586 N 0.05079 0.49842 0.62647 0.0
N587 N 0.05199 0.55586 0.6319 0.0
C588 C 0.03053 0.53515 0.60927 0.0
C589 C 0.02998 0.50406 0.60629 0.0
C590 C 0.50698 0.02505 0.72852 0.0
C591 C 0.48612 0.01118 0.756 0.0
C592 C 0.53687 0.02408 0.72655 0.0
C593 C 0.54681 0.00865 0.75167 0.0
H594 H 0.49997 0.03639 0.70819 0.0
H595 H 0.55199 0.03486 0.7047 0.0
S596 S 0.50036 0.96823 0.82869 0.0
N597 N 0.47737 0.98198 0.80912 0.0
N598 N 0.53295 0.97918 0.80499 0.0
C599 C 0.52634 0.9953 0.77969 0.0
C600 C 0.49612 0.99671 0.78189 0.0
C601 C 0.47981 0.50198 0.93343 0.0
C602 C 0.45191 0.50303 0.92034 0.0
C603 C 0.5087 0.53013 0.9373 0.0
C604 C 0.51094 0.5603 0.9278 0.0
H605 H 0.47959 0.47916 0.94011 0.0
H606 H 0.52958 0.5283 0.94763 0.0
S607 S 0.44499 0.57701 0.89445 0.0
N608 N 0.42814 0.53746 0.89978 0.0
N609 N 0.48312 0.59026 0.90614 0.0
C610 C 0.48346 0.562 0.91498 0.0
C611 C 0.45378 0.53338 0.91145 0.0
C612 C 0.98284 0.27684 0.86166 0.0
C613 C 0.01157 0.28062 0.87758 0.0
C614 C 0.9802 0.27632 0.82617 0.0
C615 C 1.00628 0.27977 0.80532 0.0
H616 H 0.96237 0.27462 0.87675 0.0
H617 H 0.95797 0.2744 0.81503 0.0
S618 S 0.08636 0.28906 0.8346 0.0
N619 N 0.06641 0.28726 0.86987 0.0
N620 N 0.06117 0.2854 0.80332 0.0
C621 C 0.0348 0.28261 0.82101 0.0
C622 C 0.03751 0.28322 0.85707 0.0
C623 C 0.73971 0.03072 0.98136 0.0
C624 C 0.72751 1.0 0.96613 0.0
C625 C 0.74029 0.03419 0.01675 0.0
C626 C 0.72848 0.00704 0.03816 0.0
H627 H 0.74871 0.05222 0.9658 0.0
H628 H 0.74923 0.05827 0.02736 0.0
S629 S 0.69445 0.92129 0.01076 0.0
N630 N 0.70335 0.94196 0.97504 0.0
N631 N 0.70526 0.94845 0.04146 0.0
C632 C 0.71672 0.97621 0.02318 0.0
C633 C 0.71607 0.9727 0.98721 0.0
C634 C 0.73898 0.74589 0.1887 0.0
C635 C 0.7224 0.71523 0.2035 0.0
C636 C 0.74014 0.74963 0.15331 0.0
C637 C 0.72437 0.7229 0.13157 0.0
H638 H 0.75158 0.767 0.20456 0.0
H639 H 0.75342 0.77361 0.14287 0.0
S640 S 0.6769 0.63763 0.158 0.0
N641 N 0.68906 0.65788 0.19394 0.0
N642 N 0.69171 0.66476 0.1276 0.0
C643 C 0.70737 0.6922 0.14619 0.0
C644 C 0.70629 0.68841 0.1821 0.0
C645 C 1.00347 0.74171 0.32484 0.0
C646 C 0.01263 0.71995 0.30859 0.0
C647 C 0.99958 0.74106 0.36016 0.0
C648 C 1.005 0.71884 0.38043 0.0
H649 H 0.99841 0.7587 0.31009 0.0
H650 H 0.99193 0.75785 0.37168 0.0
S651 S 0.03064 0.65775 0.35013 0.0
N652 N 0.02835 0.67654 0.31542 0.0
N653 N 0.02045 0.67497 0.38164 0.0
C654 C 0.01492 0.69753 0.36451 0.0
C655 C 0.01881 0.69814 0.32863 0.0
C656 C 0.29264 0.03078 0.51931 0.0
C657 C 0.29554 1.00472 0.53466 0.0
C658 C 0.29209 0.03337 0.48397 0.0
C659 C 0.29451 0.01005 0.46266 0.0
H660 H 0.29128 0.04959 0.53471 0.0
H661 H 0.29027 0.05407 0.47322 0.0
S662 S 0.29839 0.9352 0.49003 0.0
N663 N 0.29786 0.95365 0.52578 0.0
N664 N 0.29729 0.95888 0.45926 0.0
C665 C 0.29655 0.98349 0.4776 0.0
C666 C 0.29694 0.98073 0.5136 0.0
C667 C 0.26184 0.28057 0.65317 0.0
C668 C 0.28997 0.28609 0.63485 0.0
C669 C 0.26166 0.28062 0.68871 0.0
C670 C 0.28964 0.28634 0.7074 0.0
H671 H 0.23978 0.27646 0.63992 0.0
H672 H 0.23946 0.27638 0.70168 0.0
S673 S 0.36902 0.29997 0.67182 0.0
N674 N 0.34619 0.29597 0.6382 0.0
N675 N 0.34589 0.29629 0.70503 0.0
C676 C 0.31791 0.29174 0.68948 0.0
C677 C 0.31807 0.29158 0.65324 0.0
loop_
_geom_bond_atom_site_label_1
_geom_bond_atom_site_label_2
_geom_bond_distance
_geom_bond_site_symmetry_2
_ccdc_geom_bond_type
C0 C1 1.264 . S
C0 C5 1.479 . S
C0 C10 1.465 1_556 S
C1 C0 1.264 . S
C1 C3 1.339 . S
C1 H28 0.931 . S
C2 C3 1.395 . S
C2 C4 1.320 . S
C3 C1 1.339 . S
C3 C2 1.395 . S
C3 H29 0.929 . S
C4 C2 1.320 . S
C4 C5 1.405 . S
C4 H30 0.930 . S
C5 C0 1.479 . S
C5 C4 1.405 . S
C5 H31 0.931 . S
U6 O7 2.454 1_655 S
U6 O8 2.458 1_655 S
U6 C9 2.984 1_655 S
U6 C10 2.847 . S
U6 C23 2.882 . S
U6 O24 2.441 . S
U6 O25 2.420 . S
U6 O26 2.455 . S
U6 O27 2.449 . S
O7 U6 2.454 1_455 S
O7 C9 1.353 . S
O8 U6 2.458 1_455 S
O8 C9 1.286 . S
C9 U6 2.984 1_455 S
C9 O7 1.353 . S
C9 O8 1.286 . S
C9 C11 1.363 . S
C10 C0 1.465 1_554 S
C10 U6 2.847 . S
C10 O24 1.249 . S
C10 O25 1.202 . S
C11 C9 1.363 . S
C11 C13 1.408 . S
C11 C16 1.342 . S
C12 C13 1.310 . S
C12 C15 1.461 . S
C12 H32 0.932 . S
C13 C11 1.408 . S
C13 C12 1.310 . S
C13 H33 0.930 . S
C14 C15 1.474 . S
C14 C16 1.285 . S
C14 H34 0.929 . S
C15 C12 1.461 . S
C15 C14 1.474 . S
C16 C11 1.342 . S
C16 C14 1.285 . S
C16 H35 0.930 . S
C17 C20 1.424 . S
C17 C22 1.245 . S
C17 C23 1.428 . S
C18 C21 1.260 . S
C18 C22 1.477 . S
C18 H36 0.932 . S
C19 C20 1.384 . S
C19 C21 1.479 . S
C19 H37 0.929 . S
C20 C17 1.424 . S
C20 C19 1.384 . S
C20 H38 0.928 . S
C21 C18 1.260 . S
C21 C19 1.479 . S
C22 C17 1.245 . S
C22 C18 1.477 . S
C22 H39 0.932 . S
C23 U6 2.882 . S
C23 C17 1.428 . S
C23 O26 1.301 . S
C23 O27 1.282 . S
O24 U6 2.441 . S
O24 C10 1.249 . S
O25 U6 2.420 . S
O25 C10 1.202 . S
O26 U6 2.455 . S
O26 C23 1.301 . S
O27 U6 2.449 . S
O27 C23 1.282 . S
H28 C1 0.931 . S
H29 C3 0.929 . S
H30 C4 0.930 . S
H31 C5 0.931 . S
H32 C12 0.932 . S
H33 C13 0.930 . S
H34 C14 0.929 . S
H35 C16 0.930 . S
H36 C18 0.932 . S
H37 C19 0.929 . S
H38 C20 0.928 . S
H39 C22 0.932 . S
C40 C41 1.264 . S
C40 C45 1.479 . S
C40 C50 1.465 . S
C41 C40 1.264 . S
C41 C43 1.339 . S
C41 H68 0.931 . S
C42 C43 1.395 . S
C42 C44 1.320 . S
C43 C41 1.339 . S
C43 C42 1.395 . S
C43 H69 0.929 . S
C44 C42 1.320 . S
C44 C45 1.405 . S
C44 H70 0.930 . S
C45 C40 1.479 . S
C45 C44 1.405 . S
C45 H71 0.931 . S
U46 O47 2.454 1_565 S
U46 O48 2.458 1_565 S
U46 C49 2.984 1_565 S
U46 C50 2.847 . S
U46 C63 2.882 . S
U46 O64 2.441 . S
U46 O65 2.420 . S
U46 O66 2.455 . S
U46 O67 2.449 . S
O47 U46 2.454 1_545 S
O47 C49 1.353 . S
O48 U46 2.458 1_545 S
O48 C49 1.286 . S
C49 U46 2.984 1_545 S
C49 O47 1.353 . S
C49 O48 1.286 . S
C49 C51 1.363 . S
C50 C40 1.465 . S
C50 U46 2.847 . S
C50 O64 1.249 . S
C50 O65 1.202 . S
C51 C49 1.363 . S
C51 C53 1.408 . S
C51 C56 1.342 . S
C52 C53 1.310 . S
C52 C55 1.461 . S
C52 H72 0.932 . S
C53 C51 1.408 . S
C53 C52 1.310 . S
C53 H73 0.930 . S
C54 C55 1.474 . S
C54 C56 1.285 . S
C54 H74 0.929 . S
C55 C52 1.461 . S
C55 C54 1.474 . S
C56 C51 1.342 . S
C56 C54 1.285 . S
C56 H75 0.930 . S
C57 C60 1.424 . S
C57 C62 1.245 . S
C57 C63 1.428 . S
C58 C61 1.260 . S
C58 C62 1.477 . S
C58 H76 0.932 . S
C59 C60 1.384 . S
C59 C61 1.479 . S
C59 H77 0.929 . S
C60 C57 1.424 . S
C60 C59 1.384 . S
C60 H78 0.928 . S
C61 C58 1.260 . S
C61 C59 1.479 . S
C62 C57 1.245 . S
C62 C58 1.477 . S
C62 H79 0.932 . S
C63 U46 2.882 . S
C63 C57 1.428 . S
C63 O66 1.301 . S
C63 O67 1.282 . S
O64 U46 2.441 . S
O64 C50 1.249 . S
O65 U46 2.420 . S
O65 C50 1.202 . S
O66 U46 2.455 . S
O66 C63 1.301 . S
O67 U46 2.449 . S
O67 C63 1.282 . S
H68 C41 0.931 . S
H69 C43 0.929 . S
H70 C44 0.930 . S
H71 C45 0.931 . S
H72 C52 0.932 . S
H73 C53 0.930 . S
H74 C54 0.929 . S
H75 C56 0.930 . S
H76 C58 0.932 . S
H77 C59 0.929 . S
H78 C60 0.928 . S
H79 C62 0.932 . S
C80 C81 1.264 . S
C80 C85 1.479 . S
C80 C90 1.465 . S
C81 C80 1.264 . S
C81 C83 1.339 . S
C81 H108 0.931 . S
C82 C83 1.395 . S
C82 C84 1.320 . S
C83 C81 1.339 . S
C83 C82 1.395 . S
C83 H109 0.929 . S
C84 C82 1.320 . S
C84 C85 1.405 . S
C84 H110 0.930 . S
C85 C80 1.479 . S
C85 C84 1.405 . S
C85 H111 0.931 . S
U86 O87 2.454 . S
U86 O88 2.458 . S
U86 C89 2.984 . S
U86 C90 2.847 . S
U86 C103 2.882 . S
U86 O104 2.441 . S
U86 O105 2.420 . S
U86 O106 2.455 . S
U86 O107 2.449 . S
O87 U86 2.454 . S
O87 C89 1.353 . S
O88 U86 2.458 . S
O88 C89 1.286 . S
C89 U86 2.984 . S
C89 O87 1.353 . S
C89 O88 1.286 . S
C89 C91 1.363 . S
C90 C80 1.465 . S
C90 U86 2.847 . S
C90 O104 1.249 . S
C90 O105 1.202 . S
C91 C89 1.363 . S
C91 C93 1.408 . S
C91 C96 1.342 . S
C92 C93 1.310 . S
C92 C95 1.461 . S
C92 H112 0.932 . S
C93 C91 1.408 . S
C93 C92 1.310 . S
C93 H113 0.930 . S
C94 C95 1.474 . S
C94 C96 1.285 . S
C94 H114 0.929 . S
C95 C92 1.461 . S
C95 C94 1.474 . S
C96 C91 1.342 . S
C96 C94 1.285 . S
C96 H115 0.930 . S
C97 C100 1.424 . S
C97 C102 1.245 . S
C97 C103 1.428 . S
C98 C101 1.260 . S
C98 C102 1.477 . S
C98 H116 0.932 . S
C99 C100 1.384 . S
C99 C101 1.479 . S
C99 H117 0.929 . S
C100 C97 1.424 . S
C100 C99 1.384 . S
C100 H118 0.928 . S
C101 C98 1.260 . S
C101 C99 1.479 . S
C102 C97 1.245 . S
C102 C98 1.477 . S
C102 H119 0.932 . S
C103 U86 2.882 . S
C103 C97 1.428 . S
C103 O106 1.301 . S
C103 O107 1.282 . S
O104 U86 2.441 . S
O104 C90 1.249 . S
O105 U86 2.420 . S
O105 C90 1.202 . S
O106 U86 2.455 . S
O106 C103 1.301 . S
O107 U86 2.449 . S
O107 C103 1.282 . S
H108 C81 0.931 . S
H109 C83 0.929 . S
H110 C84 0.930 . S
H111 C85 0.931 . S
H112 C92 0.932 . S
H113 C93 0.930 . S
H114 C94 0.929 . S
H115 C96 0.930 . S
H116 C98 0.932 . S
H117 C99 0.929 . S
H118 C100 0.928 . S
H119 C102 0.932 . S
C120 C121 1.264 . S
C120 C125 1.479 . S
C120 C130 1.465 . S
C121 C120 1.264 . S
C121 C123 1.339 . S
C121 H148 0.931 . S
C122 C123 1.395 . S
C122 C124 1.320 . S
C123 C121 1.339 . S
C123 C122 1.395 . S
C123 H149 0.929 . S
C124 C122 1.320 . S
C124 C125 1.405 . S
C124 H150 0.930 . S
C125 C120 1.479 . S
C125 C124 1.405 . S
C125 H151 0.931 . S
U126 O127 2.454 1_455 S
U126 O128 2.458 1_455 S
U126 C129 2.984 1_455 S
U126 C130 2.847 . S
U126 C143 2.882 . S
U126 O144 2.441 . S
U126 O145 2.420 . S
U126 O146 2.455 . S
U126 O147 2.449 . S
O127 U126 2.454 1_655 S
O127 C129 1.353 . S
O128 U126 2.458 1_655 S
O128 C129 1.286 . S
C129 U126 2.984 1_655 S
C129 O127 1.353 . S
C129 O128 1.286 . S
C129 C131 1.363 . S
C130 C120 1.465 . S
C130 U126 2.847 . S
C130 O144 1.249 . S
C130 O145 1.202 . S
C131 C129 1.363 . S
C131 C133 1.408 . S
C131 C136 1.342 . S
C132 C133 1.310 . S
C132 C135 1.461 . S
C132 H152 0.932 . S
C133 C131 1.408 . S
C133 C132 1.310 . S
C133 H153 0.930 . S
C134 C135 1.474 . S
C134 C136 1.285 . S
C134 H154 0.929 . S
C135 C132 1.461 . S
C135 C134 1.474 . S
C136 C131 1.342 . S
C136 C134 1.285 . S
C136 H155 0.930 . S
C137 C140 1.424 . S
C137 C142 1.245 . S
C137 C143 1.428 . S
C138 C141 1.260 . S
C138 C142 1.477 . S
C138 H156 0.932 . S
C139 C140 1.384 . S
C139 C141 1.479 . S
C139 H157 0.929 . S
C140 C137 1.424 . S
C140 C139 1.384 . S
C140 H158 0.928 . S
C141 C138 1.260 . S
C141 C139 1.479 . S
C142 C137 1.245 . S
C142 C138 1.477 . S
C142 H159 0.932 . S
C143 U126 2.882 . S
C143 C137 1.428 . S
C143 O146 1.301 . S
C143 O147 1.282 . S
O144 U126 2.441 . S
O144 C130 1.249 . S
O145 U126 2.420 . S
O145 C130 1.202 . S
O146 U126 2.455 . S
O146 C143 1.301 . S
O147 U126 2.449 . S
O147 C143 1.282 . S
H148 C121 0.931 . S
H149 C123 0.929 . S
H150 C124 0.930 . S
H151 C125 0.931 . S
H152 C132 0.932 . S
H153 C133 0.930 . S
H154 C134 0.929 . S
H155 C136 0.930 . S
H156 C138 0.932 . S
H157 C139 0.929 . S
H158 C140 0.928 . S
H159 C142 0.932 . S
C160 C161 1.264 . S
C160 C165 1.479 . S
C160 C170 1.465 . S
C161 C160 1.264 . S
C161 C163 1.339 . S
C161 H188 0.931 . S
C162 C163 1.395 . S
C162 C164 1.320 . S
C163 C161 1.339 . S
C163 C162 1.395 . S
C163 H189 0.929 . S
C164 C162 1.320 . S
C164 C165 1.405 . S
C164 H190 0.930 . S
C165 C160 1.479 . S
C165 C164 1.405 . S
C165 H191 0.931 . S
U166 O167 2.454 1_545 S
U166 O168 2.458 1_545 S
U166 C169 2.984 1_545 S
U166 C170 2.847 . S
U166 C183 2.882 . S
U166 O184 2.441 . S
U166 O185 2.420 . S
U166 O186 2.455 . S
U166 O187 2.449 . S
O167 U166 2.454 1_565 S
O167 C169 1.353 . S
O168 U166 2.458 1_565 S
O168 C169 1.286 . S
C169 U166 2.984 1_565 S
C169 O167 1.353 . S
C169 O168 1.286 . S
C169 C171 1.363 . S
C170 C160 1.465 . S
C170 U166 2.847 . S
C170 O184 1.249 . S
C170 O185 1.202 . S
C171 C169 1.363 . S
C171 C173 1.408 . S
C171 C176 1.342 . S
C172 C173 1.310 . S
C172 C175 1.461 . S
C172 H192 0.932 . S
C173 C171 1.408 . S
C173 C172 1.310 . S
C173 H193 0.930 . S
C174 C175 1.474 . S
C174 C176 1.285 . S
C174 H194 0.929 . S
C175 C172 1.461 . S
C175 C174 1.474 . S
C176 C171 1.342 . S
C176 C174 1.285 . S
C176 H195 0.930 . S
C177 C180 1.424 . S
C177 C182 1.245 . S
C177 C183 1.428 . S
C178 C181 1.260 . S
C178 C182 1.477 . S
C178 H196 0.932 . S
C179 C180 1.384 . S
C179 C181 1.479 . S
C179 H197 0.929 . S
C180 C177 1.424 . S
C180 C179 1.384 . S
C180 H198 0.928 . S
C181 C178 1.260 . S
C181 C179 1.479 . S
C182 C177 1.245 . S
C182 C178 1.477 . S
C182 H199 0.932 . S
C183 U166 2.882 . S
C183 C177 1.428 . S
C183 O186 1.301 . S
C183 O187 1.282 . S
O184 U166 2.441 . S
O184 C170 1.249 . S
O185 U166 2.420 . S
O185 C170 1.202 . S
O186 U166 2.455 . S
O186 C183 1.301 . S
O187 U166 2.449 . S
O187 C183 1.282 . S
H188 C161 0.931 . S
H189 C163 0.929 . S
H190 C164 0.930 . S
H191 C165 0.931 . S
H192 C172 0.932 . S
H193 C173 0.930 . S
H194 C174 0.929 . S
H195 C176 0.930 . S
H196 C178 0.932 . S
H197 C179 0.929 . S
H198 C180 0.928 . S
H199 C182 0.932 . S
C200 C201 1.264 . S
C200 C205 1.479 . S
C200 C210 1.465 . S
C201 C200 1.264 . S
C201 C203 1.339 . S
C201 H228 0.931 . S
C202 C203 1.395 . S
C202 C204 1.320 . S
C203 C201 1.339 . S
C203 C202 1.395 . S
C203 H229 0.929 . S
C204 C202 1.320 . S
C204 C205 1.405 . S
C204 H230 0.930 . S
C205 C200 1.479 . S
C205 C204 1.405 . S
C205 H231 0.931 . S
U206 O207 2.454 . S
U206 O208 2.458 . S
U206 C209 2.984 . S
U206 C210 2.847 . S
U206 C223 2.882 . S
U206 O224 2.441 . S
U206 O225 2.420 . S
U206 O226 2.455 . S
U206 O227 2.449 . S
O207 U206 2.454 . S
O207 C209 1.353 . S
O208 U206 2.458 . S
O208 C209 1.286 . S
C209 U206 2.984 . S
C209 O207 1.353 . S
C209 O208 1.286 . S
C209 C211 1.363 . S
C210 C200 1.465 . S
C210 U206 2.847 . S
C210 O224 1.249 . S
C210 O225 1.202 . S
C211 C209 1.363 . S
C211 C213 1.408 . S
C211 C216 1.342 1_556 S
C212 C213 1.310 1_554 S
C212 C215 1.461 . S
C212 H232 0.932 1_554 S
C213 C211 1.408 . S
C213 C212 1.310 1_556 S
C213 H233 0.930 . S
C214 C215 1.474 . S
C214 C216 1.285 . S
C214 H234 0.929 . S
C215 C212 1.461 . S
C215 C214 1.474 . S
C216 C211 1.342 1_554 S
C216 C214 1.285 . S
C216 H235 0.930 . S
C217 C220 1.424 . S
C217 C222 1.245 . S
C217 C223 1.428 . S
C218 C221 1.260 . S
C218 C222 1.477 . S
C218 H236 0.932 . S
C219 C220 1.384 . S
C219 C221 1.479 . S
C219 H237 0.929 . S
C220 C217 1.424 . S
C220 C219 1.384 . S
C220 H238 0.928 . S
C221 C218 1.260 . S
C221 C219 1.479 . S
C222 C217 1.245 . S
C222 C218 1.477 . S
C222 H239 0.932 . S
C223 U206 2.882 . S
C223 C217 1.428 . S
C223 O226 1.301 . S
C223 O227 1.282 . S
O224 U206 2.441 . S
O224 C210 1.249 . S
O225 U206 2.420 . S
O225 C210 1.202 . S
O226 U206 2.455 . S
O226 C223 1.301 . S
O227 U206 2.449 . S
O227 C223 1.282 . S
H228 C201 0.931 . S
H229 C203 0.929 . S
H230 C204 0.930 . S
H231 C205 0.931 . S
H232 C212 0.932 1_556 S
H233 C213 0.930 . S
H234 C214 0.929 . S
H235 C216 0.930 . S
H236 C218 0.932 . S
H237 C219 0.929 . S
H238 C220 0.928 . S
H239 C222 0.932 . S
C240 C241 1.264 . S
C240 C245 1.479 . S
C240 C250 1.465 . S
C241 C240 1.264 . S
C241 C243 1.339 . S
C241 H268 0.931 . S
C242 C243 1.395 . S
C242 C244 1.320 . S
C243 C241 1.339 . S
C243 C242 1.395 . S
C243 H269 0.929 . S
C244 C242 1.320 . S
C244 C245 1.405 . S
C244 H270 0.930 . S
C245 C240 1.479 . S
C245 C244 1.405 . S
C245 H271 0.931 . S
U246 O247 2.454 1_545 S
U246 O248 2.458 1_545 S
U246 C249 2.984 1_545 S
U246 C250 2.847 . S
U246 C263 2.882 . S
U246 O264 2.441 . S
U246 O265 2.420 . S
U246 O266 2.455 . S
U246 O267 2.449 . S
O247 U246 2.454 1_565 S
O247 C249 1.353 . S
O248 U246 2.458 1_565 S
O248 C249 1.286 . S
C249 U246 2.984 1_565 S
C249 O247 1.353 . S
C249 O248 1.286 . S
C249 C251 1.363 . S
C250 C240 1.465 . S
C250 U246 2.847 . S
C250 O264 1.249 . S
C250 O265 1.202 . S
C251 C249 1.363 . S
C251 C253 1.408 . S
C251 C256 1.342 . S
C252 C253 1.310 . S
C252 C255 1.461 . S
C252 H272 0.932 . S
C253 C251 1.408 . S
C253 C252 1.310 . S
C253 H273 0.930 . S
C254 C255 1.474 . S
C254 C256 1.285 . S
C254 H274 0.929 . S
C255 C252 1.461 . S
C255 C254 1.474 . S
C256 C251 1.342 . S
C256 C254 1.285 . S
C256 H275 0.930 . S
C257 C260 1.424 . S
C257 C262 1.245 . S
C257 C263 1.428 . S
C258 C261 1.260 . S
C258 C262 1.477 . S
C258 H276 0.932 . S
C259 C260 1.384 . S
C259 C261 1.479 . S
C259 H277 0.929 . S
C260 C257 1.424 . S
C260 C259 1.384 . S
C260 H278 0.928 . S
C261 C258 1.260 . S
C261 C259 1.479 . S
C262 C257 1.245 . S
C262 C258 1.477 . S
C262 H279 0.932 . S
C263 U246 2.882 . S
C263 C257 1.428 . S
C263 O266 1.301 . S
C263 O267 1.282 . S
O264 U246 2.441 . S
O264 C250 1.249 . S
O265 U246 2.420 . S
O265 C250 1.202 . S
O266 U246 2.455 . S
O266 C263 1.301 . S
O267 U246 2.449 . S
O267 C263 1.282 . S
H268 C241 0.931 . S
H269 C243 0.929 . S
H270 C244 0.930 . S
H271 C245 0.931 . S
H272 C252 0.932 . S
H273 C253 0.930 . S
H274 C254 0.929 . S
H275 C256 0.930 . S
H276 C258 0.932 . S
H277 C259 0.929 . S
H278 C260 0.928 . S
H279 C262 0.932 . S
C280 C281 1.264 . S
C280 C285 1.479 . S
C280 C290 1.465 1_554 S
C281 C280 1.264 . S
C281 C283 1.339 . S
C281 H308 0.931 . S
C282 C283 1.395 . S
C282 C284 1.320 . S
C283 C281 1.339 . S
C283 C282 1.395 . S
C283 H309 0.929 . S
C284 C282 1.320 . S
C284 C285 1.405 . S
C284 H310 0.930 . S
C285 C280 1.479 . S
C285 C284 1.405 . S
C285 H311 0.931 . S
U286 O287 2.454 . S
U286 O288 2.458 . S
U286 C289 2.984 . S
U286 C290 2.847 . S
U286 C303 2.882 . S
U286 O304 2.441 . S
U286 O305 2.420 . S
U286 O306 2.455 . S
U286 O307 2.449 . S
O287 U286 2.454 . S
O287 C289 1.353 . S
O288 U286 2.458 . S
O288 C289 1.286 . S
C289 U286 2.984 . S
C289 O287 1.353 . S
C289 O288 1.286 . S
C289 C291 1.363 . S
C290 C280 1.465 1_556 S
C290 U286 2.847 . S
C290 O304 1.249 . S
C290 O305 1.202 . S
C291 C289 1.363 . S
C291 C293 1.408 . S
C291 C296 1.342 . S
C292 C293 1.310 . S
C292 C295 1.461 . S
C292 H312 0.932 . S
C293 C291 1.408 . S
C293 C292 1.310 . S
C293 H313 0.930 . S
C294 C295 1.474 . S
C294 C296 1.285 . S
C294 H314 0.929 . S
C295 C292 1.461 . S
C295 C294 1.474 . S
C296 C291 1.342 . S
C296 C294 1.285 . S
C296 H315 0.930 . S
C297 C300 1.424 . S
C297 C302 1.245 . S
C297 C303 1.428 . S
C298 C301 1.260 . S
C298 C302 1.477 . S
C298 H316 0.932 . S
C299 C300 1.384 . S
C299 C301 1.479 . S
C299 H317 0.929 . S
C300 C297 1.424 . S
C300 C299 1.384 . S
C300 H318 0.928 . S
C301 C298 1.260 . S
C301 C299 1.479 . S
C302 C297 1.245 . S
C302 C298 1.477 . S
C302 H319 0.932 . S
C303 U286 2.882 . S
C303 C297 1.428 . S
C303 O306 1.301 . S
C303 O307 1.282 . S
O304 U286 2.441 . S
O304 C290 1.249 . S
O305 U286 2.420 . S
O305 C290 1.202 . S
O306 U286 2.455 . S
O306 C303 1.301 . S
O307 U286 2.449 . S
O307 C303 1.282 . S
H308 C281 0.931 . S
H309 C283 0.929 . S
H310 C284 0.930 . S
H311 C285 0.931 . S
H312 C292 0.932 . S
H313 C293 0.930 . S
H314 C294 0.929 . S
H315 C296 0.930 . S
H316 C298 0.932 . S
H317 C299 0.929 . S
H318 C300 0.928 . S
H319 C302 0.932 . S
C320 C321 1.264 . S
C320 C325 1.479 . S
C320 C330 1.465 . S
C321 C320 1.264 . S
C321 C323 1.339 . S
C321 H348 0.931 . S
C322 C323 1.395 . S
C322 C324 1.320 . S
C323 C321 1.339 . S
C323 C322 1.395 . S
C323 H349 0.929 . S
C324 C322 1.320 . S
C324 C325 1.405 . S
C324 H350 0.930 . S
C325 C320 1.479 . S
C325 C324 1.405 . S
C325 H351 0.931 . S
U326 O327 2.454 1_655 S
U326 O328 2.458 1_655 S
U326 C329 2.984 1_655 S
U326 C330 2.847 . S
U326 C343 2.882 . S
U326 O344 2.441 . S
U326 O345 2.420 . S
U326 O346 2.455 . S
U326 O347 2.449 . S
O327 U326 2.454 1_455 S
O327 C329 1.353 . S
O328 U326 2.458 1_455 S
O328 C329 1.286 . S
C329 U326 2.984 1_455 S
C329 O327 1.353 . S
C329 O328 1.286 . S
C329 C331 1.363 . S
C330 C320 1.465 . S
C330 U326 2.847 . S
C330 O344 1.249 . S
C330 O345 1.202 . S
C331 C329 1.363 . S
C331 C333 1.408 . S
C331 C336 1.342 1_554 S
C332 C333 1.310 . S
C332 C335 1.461 1_554 S
C332 H352 0.932 . S
C333 C331 1.408 . S
C333 C332 1.310 . S
C333 H353 0.930 . S
C334 C335 1.474 . S
C334 C336 1.285 . S
C334 H354 0.929 . S
C335 C332 1.461 1_556 S
C335 C334 1.474 . S
C336 C331 1.342 1_556 S
C336 C334 1.285 . S
C336 H355 0.930 . S
C337 C340 1.424 . S
C337 C342 1.245 . S
C337 C343 1.428 . S
C338 C341 1.260 . S
C338 C342 1.477 . S
C338 H356 0.932 . S
C339 C340 1.384 . S
C339 C341 1.479 . S
C339 H357 0.929 . S
C340 C337 1.424 . S
C340 C339 1.384 . S
C340 H358 0.928 . S
C341 C338 1.260 . S
C341 C339 1.479 . S
C342 C337 1.245 . S
C342 C338 1.477 . S
C342 H359 0.932 . S
C343 U326 2.882 . S
C343 C337 1.428 . S
C343 O346 1.301 . S
C343 O347 1.282 . S
O344 U326 2.441 . S
O344 C330 1.249 . S
O345 U326 2.420 . S
O345 C330 1.202 . S
O346 U326 2.455 . S
O346 C343 1.301 . S
O347 U326 2.449 . S
O347 C343 1.282 . S
H348 C321 0.931 . S
H349 C323 0.929 . S
H350 C324 0.930 . S
H351 C325 0.931 . S
H352 C332 0.932 . S
H353 C333 0.930 . S
H354 C334 0.929 . S
H355 C336 0.930 . S
H356 C338 0.932 . S
H357 C339 0.929 . S
H358 C340 0.928 . S
H359 C342 0.932 . S
C360 C361 1.264 . S
C360 C365 1.479 . S
C360 C370 1.465 . S
C361 C360 1.264 . S
C361 C363 1.339 . S
C361 H388 0.931 . S
C362 C363 1.395 . S
C362 C364 1.320 . S
C363 C361 1.339 . S
C363 C362 1.395 . S
C363 H389 0.929 . S
C364 C362 1.320 . S
C364 C365 1.405 . S
C364 H390 0.930 . S
C365 C360 1.479 . S
C365 C364 1.405 . S
C365 H391 0.931 . S
U366 O367 2.454 1_565 S
U366 O368 2.458 1_565 S
U366 C369 2.984 1_565 S
U366 C370 2.847 . S
U366 C383 2.882 . S
U366 O384 2.441 . S
U366 O385 2.420 . S
U366 O386 2.455 . S
U366 O387 2.449 . S
O367 U366 2.454 1_545 S
O367 C369 1.353 . S
O368 U366 2.458 1_545 S
O368 C369 1.286 . S
C369 U366 2.984 1_545 S
C369 O367 1.353 . S
C369 O368 1.286 . S
C369 C371 1.363 . S
C370 C360 1.465 . S
C370 U366 2.847 . S
C370 O384 1.249 . S
C370 O385 1.202 . S
C371 C369 1.363 . S
C371 C373 1.408 . S
C371 C376 1.342 . S
C372 C373 1.310 . S
C372 C375 1.461 . S
C372 H392 0.932 . S
C373 C371 1.408 . S
C373 C372 1.310 . S
C373 H393 0.930 . S
C374 C375 1.474 . S
C374 C376 1.285 . S
C374 H394 0.929 . S
C375 C372 1.461 . S
C375 C374 1.474 . S
C376 C371 1.342 . S
C376 C374 1.285 . S
C376 H395 0.930 . S
C377 C380 1.424 . S
C377 C382 1.245 . S
C377 C383 1.428 . S
C378 C381 1.260 . S
C378 C382 1.477 . S
C378 H396 0.932 . S
C379 C380 1.384 . S
C379 C381 1.479 . S
C379 H397 0.929 . S
C380 C377 1.424 . S
C380 C379 1.384 . S
C380 H398 0.928 . S
C381 C378 1.260 . S
C381 C379 1.479 . S
C382 C377 1.245 . S
C382 C378 1.477 . S
C382 H399 0.932 . S
C383 U366 2.882 . S
C383 C377 1.428 . S
C383 O386 1.301 . S
C383 O387 1.282 . S
O384 U366 2.441 . S
O384 C370 1.249 . S
O385 U366 2.420 . S
O385 C370 1.202 . S
O386 U366 2.455 . S
O386 C383 1.301 . S
O387 U366 2.449 . S
O387 C383 1.282 . S
H388 C361 0.931 . S
H389 C363 0.929 . S
H390 C364 0.930 . S
H391 C365 0.931 . S
H392 C372 0.932 . S
H393 C373 0.930 . S
H394 C374 0.929 . S
H395 C376 0.930 . S
H396 C378 0.932 . S
H397 C379 0.929 . S
H398 C380 0.928 . S
H399 C382 0.932 . S
C400 C401 1.264 . S
C400 C405 1.479 . S
C400 C410 1.465 . S
C401 C400 1.264 . S
C401 C403 1.339 . S
C401 H428 0.931 . S
C402 C403 1.395 . S
C402 C404 1.320 . S
C403 C401 1.339 . S
C403 C402 1.395 . S
C403 H429 0.929 . S
C404 C402 1.320 . S
C404 C405 1.405 . S
C404 H430 0.930 . S
C405 C400 1.479 . S
C405 C404 1.405 . S
C405 H431 0.931 . S
U406 O407 2.454 . S
U406 O408 2.458 . S
U406 C409 2.984 . S
U406 C410 2.847 . S
U406 C423 2.882 . S
U406 O424 2.441 . S
U406 O425 2.420 . S
U406 O426 2.455 . S
U406 O427 2.449 . S
O407 U406 2.454 . S
O407 C409 1.353 . S
O408 U406 2.458 . S
O408 C409 1.286 . S
C409 U406 2.984 . S
C409 O407 1.353 . S
C409 O408 1.286 . S
C409 C411 1.363 . S
C410 C400 1.465 . S
C410 U406 2.847 . S
C410 O424 1.249 . S
C410 O425 1.202 . S
C411 C409 1.363 . S
C411 C413 1.408 . S
C411 C416 1.342 . S
C412 C413 1.310 . S
C412 C415 1.461 . S
C412 H432 0.932 . S
C413 C411 1.408 . S
C413 C412 1.310 . S
C413 H433 0.930 . S
C414 C415 1.474 . S
C414 C416 1.285 . S
C414 H434 0.929 . S
C415 C412 1.461 . S
C415 C414 1.474 . S
C416 C411 1.342 . S
C416 C414 1.285 . S
C416 H435 0.930 . S
C417 C420 1.424 . S
C417 C422 1.245 . S
C417 C423 1.428 . S
C418 C421 1.260 . S
C418 C422 1.477 . S
C418 H436 0.932 . S
C419 C420 1.384 . S
C419 C421 1.479 . S
C419 H437 0.929 . S
C420 C417 1.424 . S
C420 C419 1.384 . S
C420 H438 0.928 . S
C421 C418 1.260 . S
C421 C419 1.479 . S
C422 C417 1.245 . S
C422 C418 1.477 . S
C422 H439 0.932 . S
C423 U406 2.882 . S
C423 C417 1.428 . S
C423 O426 1.301 . S
C423 O427 1.282 . S
O424 U406 2.441 . S
O424 C410 1.249 . S
O425 U406 2.420 . S
O425 C410 1.202 . S
O426 U406 2.455 . S
O426 C423 1.301 . S
O427 U406 2.449 . S
O427 C423 1.282 . S
H428 C401 0.931 . S
H429 C403 0.929 . S
H430 C404 0.930 . S
H431 C405 0.931 . S
H432 C412 0.932 . S
H433 C413 0.930 . S
H434 C414 0.929 . S
H435 C416 0.930 . S
H436 C418 0.932 . S
H437 C419 0.929 . S
H438 C420 0.928 . S
H439 C422 0.932 . S
C440 C441 1.264 . S
C440 C445 1.479 . S
C440 C450 1.465 . S
C441 C440 1.264 . S
C441 C443 1.339 . S
C441 H468 0.931 . S
C442 C443 1.395 . S
C442 C444 1.320 . S
C443 C441 1.339 . S
C443 C442 1.395 . S
C443 H469 0.929 . S
C444 C442 1.320 . S
C444 C445 1.405 . S
C444 H470 0.930 . S
C445 C440 1.479 . S
C445 C444 1.405 . S
C445 H471 0.931 . S
U446 O447 2.454 1_455 S
U446 O448 2.458 1_455 S
U446 C449 2.984 1_455 S
U446 C450 2.847 . S
U446 C463 2.882 . S
U446 O464 2.441 . S
U446 O465 2.420 . S
U446 O466 2.455 . S
U446 O467 2.449 . S
O447 U446 2.454 1_655 S
O447 C449 1.353 . S
O448 U446 2.458 1_655 S
O448 C449 1.286 . S
C449 U446 2.984 1_655 S
C449 O447 1.353 . S
C449 O448 1.286 . S
C449 C451 1.363 . S
C450 C440 1.465 . S
C450 U446 2.847 . S
C450 O464 1.249 . S
C450 O465 1.202 . S
C451 C449 1.363 . S
C451 C453 1.408 . S
C451 C456 1.342 . S
C452 C453 1.310 . S
C452 C455 1.461 . S
C452 H472 0.932 . S
C453 C451 1.408 . S
C453 C452 1.310 . S
C453 H473 0.930 . S
C454 C455 1.474 . S
C454 C456 1.285 . S
C454 H474 0.929 . S
C455 C452 1.461 . S
C455 C454 1.474 . S
C456 C451 1.342 . S
C456 C454 1.285 . S
C456 H475 0.930 . S
C457 C460 1.424 . S
C457 C462 1.245 . S
C457 C463 1.428 . S
C458 C461 1.260 . S
C458 C462 1.477 . S
C458 H476 0.932 . S
C459 C460 1.384 . S
C459 C461 1.479 . S
C459 H477 0.929 . S
C460 C457 1.424 . S
C460 C459 1.384 . S
C460 H478 0.928 . S
C461 C458 1.260 . S
C461 C459 1.479 . S
C462 C457 1.245 . S
C462 C458 1.477 . S
C462 H479 0.932 . S
C463 U446 2.882 . S
C463 C457 1.428 . S
C463 O466 1.301 . S
C463 O467 1.282 . S
O464 U446 2.441 . S
O464 C450 1.249 . S
O465 U446 2.420 . S
O465 C450 1.202 . S
O466 U446 2.455 . S
O466 C463 1.301 . S
O467 U446 2.449 . S
O467 C463 1.282 . S
H468 C441 0.931 . S
H469 C443 0.929 . S
H470 C444 0.930 . S
H471 C445 0.931 . S
H472 C452 0.932 . S
H473 C453 0.930 . S
H474 C454 0.929 . S
H475 C456 0.930 . S
H476 C458 0.932 . S
H477 C459 0.929 . S
H478 C460 0.928 . S
H479 C462 0.932 . S
C480 C481 1.369 . S
C480 C482 1.419 . S
C480 H484 0.930 . S
C481 C480 1.369 . S
C481 C490 1.429 . S
C482 C480 1.419 . S
C482 C483 1.363 . S
C482 H485 0.929 . S
C483 C482 1.363 . S
C483 C489 1.428 . S
H484 C480 0.930 . S
H485 C482 0.929 . S
S486 N487 1.613 . S
S486 N488 1.610 . S
N487 S486 1.613 . S
N487 C490 1.350 . S
N488 S486 1.610 . S
N488 C489 1.351 . S
C489 C483 1.428 . S
C489 N488 1.351 . S
C489 C490 1.434 . S
C490 C481 1.429 . S
C490 N487 1.350 . S
C490 C489 1.434 . S
C491 C492 1.369 . S
C491 C493 1.419 . S
C491 H495 0.930 . S
C492 C491 1.369 . S
C492 C501 1.429 . S
C493 C491 1.419 . S
C493 C494 1.363 . S
C493 H496 0.929 . S
C494 C493 1.363 . S
C494 C500 1.428 . S
H495 C491 0.930 . S
H496 C493 0.929 . S
S497 N498 1.613 . S
S497 N499 1.610 . S
N498 S497 1.613 . S
N498 C501 1.350 . S
N499 S497 1.610 . S
N499 C500 1.351 . S
C500 C494 1.428 . S
C500 N499 1.351 . S
C500 C501 1.434 . S
C501 C492 1.429 . S
C501 N498 1.350 . S
C501 C500 1.434 . S
C502 C503 1.369 . S
C502 C504 1.419 . S
C502 H506 0.930 . S
C503 C502 1.369 . S
C503 C512 1.429 . S
C504 C502 1.419 . S
C504 C505 1.363 . S
C504 H507 0.929 . S
C505 C504 1.363 . S
C505 C511 1.428 . S
H506 C502 0.930 . S
H507 C504 0.929 . S
S508 N509 1.613 . S
S508 N510 1.610 . S
N509 S508 1.613 . S
N509 C512 1.350 . S
N510 S508 1.610 . S
N510 C511 1.351 . S
C511 C505 1.428 . S
C511 N510 1.351 . S
C511 C512 1.434 . S
C512 C503 1.429 . S
C512 N509 1.350 . S
C512 C511 1.434 . S
C513 C514 1.369 . S
C513 C515 1.419 . S
C513 H517 0.930 . S
C514 C513 1.369 . S
C514 C523 1.429 . S
C515 C513 1.419 . S
C515 C516 1.363 . S
C515 H518 0.929 . S
C516 C515 1.363 . S
C516 C522 1.428 . S
H517 C513 0.930 . S
H518 C515 0.929 . S
S519 N520 1.613 . S
S519 N521 1.610 . S
N520 S519 1.613 . S
N520 C523 1.350 . S
N521 S519 1.610 . S
N521 C522 1.351 . S
C522 C516 1.428 . S
C522 N521 1.351 . S
C522 C523 1.434 . S
C523 C514 1.429 . S
C523 N520 1.350 . S
C523 C522 1.434 . S
C524 C525 1.369 . S
C524 C526 1.419 . S
C524 H528 0.930 . S
C525 C524 1.369 . S
C525 C534 1.429 . S
C526 C524 1.419 . S
C526 C527 1.363 . S
C526 H529 0.929 . S
C527 C526 1.363 . S
C527 C533 1.428 . S
H528 C524 0.930 . S
H529 C526 0.929 . S
S530 N531 1.613 . S
S530 N532 1.610 . S
N531 S530 1.613 . S
N531 C534 1.350 . S
N532 S530 1.610 . S
N532 C533 1.351 . S
C533 C527 1.428 . S
C533 N532 1.351 . S
C533 C534 1.434 . S
C534 C525 1.429 . S
C534 N531 1.350 . S
C534 C533 1.434 . S
C535 C536 1.369 . S
C535 C537 1.419 . S
C535 H539 0.930 . S
C536 C535 1.369 . S
C536 C545 1.429 . S
C537 C535 1.419 . S
C537 C538 1.363 . S
C537 H540 0.929 . S
C538 C537 1.363 . S
C538 C544 1.428 . S
H539 C535 0.930 . S
H540 C537 0.929 . S
S541 N542 1.613 . S
S541 N543 1.610 . S
N542 S541 1.613 . S
N542 C545 1.350 . S
N543 S541 1.610 . S
N543 C544 1.351 . S
C544 C538 1.428 . S
C544 N543 1.351 . S
C544 C545 1.434 . S
C545 C536 1.429 . S
C545 N542 1.350 . S
C545 C544 1.434 . S
C546 C547 1.369 . S
C546 C548 1.419 . S
C546 H550 0.930 . S
C547 C546 1.369 . S
C547 C556 1.429 . S
C548 C546 1.419 . S
C548 C549 1.363 . S
C548 H551 0.929 . S
C549 C548 1.363 . S
C549 C555 1.428 . S
H550 C546 0.930 . S
H551 C548 0.929 . S
S552 N553 1.613 . S
S552 N554 1.610 . S
N553 S552 1.613 . S
N553 C556 1.350 . S
N554 S552 1.610 . S
N554 C555 1.351 . S
C555 C549 1.428 . S
C555 N554 1.351 . S
C555 C556 1.434 . S
C556 C547 1.429 . S
C556 N553 1.350 . S
C556 C555 1.434 . S
C557 C558 1.369 . S
C557 C559 1.419 . S
C557 H561 0.930 . S
C558 C557 1.369 . S
C558 C567 1.429 . S
C559 C557 1.419 . S
C559 C560 1.363 . S
C559 H562 0.929 . S
C560 C559 1.363 . S
C560 C566 1.428 . S
H561 C557 0.930 . S
H562 C559 0.929 . S
S563 N564 1.613 . S
S563 N565 1.610 . S
N564 S563 1.613 . S
N564 C567 1.350 . S
N565 S563 1.610 . S
N565 C566 1.351 . S
C566 C560 1.428 . S
C566 N565 1.351 . S
C566 C567 1.434 . S
C567 C558 1.429 . S
C567 N564 1.350 . S
C567 C566 1.434 . S
C568 C569 1.369 . S
C568 C570 1.419 . S
C568 H572 0.930 . S
C569 C568 1.369 . S
C569 C578 1.429 . S
C570 C568 1.419 . S
C570 C571 1.363 . S
C570 H573 0.929 . S
C571 C570 1.363 . S
C571 C577 1.428 . S
H572 C568 0.930 . S
H573 C570 0.929 . S
S574 N575 1.613 . S
S574 N576 1.610 . S
N575 S574 1.613 . S
N575 C578 1.350 . S
N576 S574 1.610 . S
N576 C577 1.351 . S
C577 C571 1.428 . S
C577 N576 1.351 . S
C577 C578 1.434 . S
C578 C569 1.429 . S
C578 N575 1.350 . S
C578 C577 1.434 . S
C579 C580 1.369 . S
C579 C581 1.419 . S
C579 H583 0.930 . S
C580 C579 1.369 . S
C580 C589 1.429 . S
C581 C579 1.419 . S
C581 C582 1.363 . S
C581 H584 0.929 . S
C582 C581 1.363 . S
C582 C588 1.428 . S
H583 C579 0.930 . S
H584 C581 0.929 . S
S585 N586 1.613 . S
S585 N587 1.610 . S
N586 S585 1.613 . S
N586 C589 1.350 . S
N587 S585 1.610 . S
N587 C588 1.351 . S
C588 C582 1.428 . S
C588 N587 1.351 . S
C588 C589 1.434 . S
C589 C580 1.429 . S
C589 N586 1.350 . S
C589 C588 1.434 . S
C590 C591 1.369 . S
C590 C592 1.419 . S
C590 H594 0.930 . S
C591 C590 1.369 . S
C591 C600 1.429 . S
C592 C590 1.419 . S
C592 C593 1.363 . S
C592 H595 0.929 . S
C593 C592 1.363 . S
C593 C599 1.428 . S
H594 C590 0.930 . S
H595 C592 0.929 . S
S596 N597 1.613 . S
S596 N598 1.610 . S
N597 S596 1.613 . S
N597 C600 1.350 . S
N598 S596 1.610 . S
N598 C599 1.351 . S
C599 C593 1.428 . S
C599 N598 1.351 . S
C599 C600 1.434 . S
C600 C591 1.429 . S
C600 N597 1.350 . S
C600 C599 1.434 . S
C601 C602 1.369 . S
C601 C603 1.419 . S
C601 H605 0.930 . S
C602 C601 1.369 . S
C602 C611 1.429 . S
C603 C601 1.419 . S
C603 C604 1.363 . S
C603 H606 0.929 . S
C604 C603 1.363 . S
C604 C610 1.428 . S
H605 C601 0.930 . S
H606 C603 0.929 . S
S607 N608 1.613 . S
S607 N609 1.610 . S
N608 S607 1.613 . S
N608 C611 1.350 . S
N609 S607 1.610 . S
N609 C610 1.351 . S
C610 C604 1.428 . S
C610 N609 1.351 . S
C610 C611 1.434 . S
C611 C602 1.429 . S
C611 N608 1.350 . S
C611 C610 1.434 . S
C612 C613 1.369 . S
C612 C614 1.419 . S
C612 H616 0.930 . S
C613 C612 1.369 . S
C613 C622 1.429 1_655 S
C614 C612 1.419 . S
C614 C615 1.363 1_655 S
C614 H617 0.929 . S
C615 C614 1.363 1_455 S
C615 C621 1.428 . S
H616 C612 0.930 . S
H617 C614 0.929 . S
S618 N619 1.613 . S
S618 N620 1.610 . S
N619 S618 1.613 . S
N619 C622 1.350 . S
N620 S618 1.610 . S
N620 C621 1.351 . S
C621 C615 1.428 . S
C621 N620 1.351 . S
C621 C622 1.434 . S
C622 C613 1.429 1_455 S
C622 N619 1.350 . S
C622 C621 1.434 . S
C623 C624 1.369 . S
C623 C625 1.419 1_556 S
C623 H627 0.930 . S
C624 C623 1.369 . S
C624 C633 1.429 1_545 S
C625 C623 1.419 1_554 S
C625 C626 1.363 1_545 S
C625 H628 0.929 . S
C626 C625 1.363 1_565 S
C626 C632 1.428 1_554 S
H627 C623 0.930 . S
H628 C625 0.929 . S
S629 N630 1.613 . S
S629 N631 1.610 . S
N630 S629 1.613 . S
N630 C633 1.350 . S
N631 S629 1.610 . S
N631 C632 1.351 . S
C632 C626 1.428 1_556 S
C632 N631 1.351 . S
C632 C633 1.434 . S
C633 C624 1.429 1_565 S
C633 N630 1.350 . S
C633 C632 1.434 . S
C634 C635 1.369 . S
C634 C636 1.419 . S
C634 H638 0.930 . S
C635 C634 1.369 . S
C635 C644 1.429 . S
C636 C634 1.419 . S
C636 C637 1.363 . S
C636 H639 0.929 . S
C637 C636 1.363 . S
C637 C643 1.428 . S
H638 C634 0.930 . S
H639 C636 0.929 . S
S640 N641 1.613 . S
S640 N642 1.610 . S
N641 S640 1.613 . S
N641 C644 1.350 . S
N642 S640 1.610 . S
N642 C643 1.351 . S
C643 C637 1.428 . S
C643 N642 1.351 . S
C643 C644 1.434 . S
C644 C635 1.429 . S
C644 N641 1.350 . S
C644 C643 1.434 . S
C645 C646 1.369 . S
C645 C647 1.404 1_655 S
C645 H649 0.930 . S
C646 C645 1.369 . S
C646 C655 1.429 1_655 S
C647 C645 1.404 1_455 S
C647 C648 1.392 . S
C647 H650 0.906 1_455 S
C648 C647 1.392 . S
C648 C654 1.428 . S
H649 C645 0.930 . S
H650 C647 0.906 1_655 S
S651 N652 1.613 . S
S651 N653 1.610 . S
N652 S651 1.613 . S
N652 C655 1.350 . S
N653 S651 1.610 . S
N653 C654 1.351 . S
C654 C648 1.428 . S
C654 N653 1.351 . S
C654 C655 1.434 . S
C655 C646 1.429 1_455 S
C655 N652 1.350 . S
C655 C654 1.434 . S
C656 C657 1.369 . S
C656 C658 1.419 . S
C656 H660 0.930 . S
C657 C656 1.369 . S
C657 C666 1.429 1_545 S
C658 C656 1.419 . S
C658 C659 1.363 1_545 S
C658 H661 0.929 . S
C659 C658 1.363 1_565 S
C659 C665 1.428 . S
H660 C656 0.930 . S
H661 C658 0.929 . S
S662 N663 1.613 . S
S662 N664 1.610 . S
N663 S662 1.613 . S
N663 C666 1.350 . S
N664 S662 1.610 . S
N664 C665 1.351 . S
C665 C659 1.428 . S
C665 N664 1.351 . S
C665 C666 1.434 . S
C666 C657 1.429 1_565 S
C666 N663 1.350 . S
C666 C665 1.434 . S
C667 C668 1.369 . S
C667 C669 1.419 . S
C667 H671 0.930 . S
C668 C667 1.369 . S
C668 C677 1.429 . S
C669 C667 1.419 . S
C669 C670 1.363 . S
C669 H672 0.929 . S
C670 C669 1.363 . S
C670 C676 1.428 . S
H671 C667 0.930 . S
H672 C669 0.929 . S
S673 N674 1.613 . S
S673 N675 1.610 . S
N674 S673 1.613 . S
N674 C677 1.350 . S
N675 S673 1.610 . S
N675 C676 1.351 . S
C676 C670 1.428 . S
C676 N675 1.351 . S
C676 C677 1.434 . S
C677 C668 1.429 . S
C677 N674 1.350 . S
C677 C676 1.434 . S
C481 C15 2.333 . S
C483 C415 2.312 . S
C492 C455 1.946 . S
C494 C55 1.942 . S
C503 C255 2.330 . S
C505 C95 2.312 . S
C514 C135 2.333 . S
C516 C295 2.313 . S
C525 C335 1.946 . S
C527 C175 1.943 . S
C536 C215 2.317 . S
C538 C375 2.327 . S
C547 C21 2.140 . S
C549 C341 2.149 . S
C558 C381 2.140 . S
C560 C61 2.150 . S
C569 C101 2.399 . S
C571 C421 2.397 . S
C580 C461 2.144 . S
C582 C141 2.145 . S
C591 C181 2.150 . S
C593 C261 2.140 . S
C602 C221 2.397 . S
C604 C301 2.399 . S
C613 C2 1.909 . S
C615 C442 1.928 . S
C624 C242 1.909 . S
C626 C42 1.927 . S
C635 C82 2.413 . S
C637 C282 2.408 . S
C646 C322 1.927 . S
C648 C122 1.909 . S
C657 C162 1.925 . S
C659 C362 1.911 . S
C668 C402 2.413 . S
C670 C202 2.407 . S
