# Generated by pormake.
# Topology smd, (6)-cn, num edge types: 1
# Building blocks:
#     Node 0, Type 0, BuildingBlock: OJICUG_clean_sbu_0, # of connection points: 6
#     Node 1, Type 0, BuildingBlock: OJICUG_clean_sbu_0, # of connection points: 6
#     Node 2, Type 0, BuildingBlock: OJICUG_clean_sbu_0, # of connection points: 6
#     Node 3, Type 0, BuildingBlock: OJICUG_clean_sbu_0, # of connection points: 6
#     Node 4, Type 0, BuildingBlock: OJICUG_clean_sbu_0, # of connection points: 6
#     Node 5, Type 0, BuildingBlock: OJICUG_clean_sbu_0, # of connection points: 6
#     Node 6, Type 0, BuildingBlock: OJICUG_clean_sbu_0, # of connection points: 6
#     Node 7, Type 0, BuildingBlock: OJICUG_clean_sbu_0, # of connection points: 6
#     Node 8, Type 0, BuildingBlock: OJICUG_clean_sbu_0, # of connection points: 6
#     Node 9, Type 0, BuildingBlock: OJICUG_clean_sbu_0, # of connection points: 6
#     Node 10, Type 0, BuildingBlock: OJICUG_clean_sbu_0, # of connection points: 6
#     Node 11, Type 0, BuildingBlock: OJICUG_clean_sbu_0, # of connection points: 6
#     Node 12, Type 0, BuildingBlock: OJICUG_clean_sbu_0, # of connection points: 6
#     Node 13, Type 0, BuildingBlock: OJICUG_clean_sbu_0, # of connection points: 6
#     Node 14, Type 0, BuildingBlock: OJICUG_clean_sbu_0, # of connection points: 6
#     Node 15, Type 0, BuildingBlock: OJICUG_clean_sbu_0, # of connection points: 6
#     Node 16, Type 0, BuildingBlock: OJICUG_clean_sbu_0, # of connection points: 6
#     Node 17, Type 0, BuildingBlock: OJICUG_clean_sbu_0, # of connection points: 6
#     Edge 18, Type (0, 0), BuildingBlock: EZIPEK_clean_linker_0, # of connection points: 2
#     Edge 19, Type (0, 0), BuildingBlock: EZIPEK_clean_linker_0, # of connection points: 2
#     Edge 20, Type (0, 0), BuildingBlock: EZIPEK_clean_linker_0, # of connection points: 2
#     Edge 21, Type (0, 0), BuildingBlock: EZIPEK_clean_linker_0, # of connection points: 2
#     Edge 22, Type (0, 0), BuildingBlock: EZIPEK_clean_linker_0, # of connection points: 2
#     Edge 23, Type (0, 0), BuildingBlock: EZIPEK_clean_linker_0, # of connection points: 2
#     Edge 24, Type (0, 0), BuildingBlock: EZIPEK_clean_linker_0, # of connection points: 2
#     Edge 25, Type (0, 0), BuildingBlock: EZIPEK_clean_linker_0, # of connection points: 2
#     Edge 26, Type (0, 0), BuildingBlock: EZIPEK_clean_linker_0, # of connection points: 2
#     Edge 27, Type (0, 0), BuildingBlock: EZIPEK_clean_linker_0, # of connection points: 2
#     Edge 28, Type (0, 0), BuildingBlock: EZIPEK_clean_linker_0, # of connection points: 2
#     Edge 29, Type (0, 0), BuildingBlock: EZIPEK_clean_linker_0, # of connection points: 2
#     Edge 30, Type (0, 0), BuildingBlock: EZIPEK_clean_linker_0, # of connection points: 2
#     Edge 31, Type (0, 0), BuildingBlock: EZIPEK_clean_linker_0, # of connection points: 2
#     Edge 32, Type (0, 0), BuildingBlock: EZIPEK_clean_linker_0, # of connection points: 2
#     Edge 33, Type (0, 0), BuildingBlock: EZIPEK_clean_linker_0, # of connection points: 2
#     Edge 34, Type (0, 0), BuildingBlock: EZIPEK_clean_linker_0, # of connection points: 2
#     Edge 35, Type (0, 0), BuildingBlock: EZIPEK_clean_linker_0, # of connection points: 2
#     Edge 36, Type (0, 0), BuildingBlock: EZIPEK_clean_linker_0, # of connection points: 2
#     Edge 37, Type (0, 0), BuildingBlock: EZIPEK_clean_linker_0, # of connection points: 2
#     Edge 38, Type (0, 0), BuildingBlock: EZIPEK_clean_linker_0, # of connection points: 2
#     Edge 39, Type (0, 0), BuildingBlock: EZIPEK_clean_linker_0, # of connection points: 2
#     Edge 40, Type (0, 0), BuildingBlock: EZIPEK_clean_linker_0, # of connection points: 2
#     Edge 41, Type (0, 0), BuildingBlock: EZIPEK_clean_linker_0, # of connection points: 2
#     Edge 42, Type (0, 0), BuildingBlock: EZIPEK_clean_linker_0, # of connection points: 2
#     Edge 43, Type (0, 0), BuildingBlock: EZIPEK_clean_linker_0, # of connection points: 2
#     Edge 44, Type (0, 0), BuildingBlock: EZIPEK_clean_linker_0, # of connection points: 2
#     Edge 45, Type (0, 0), BuildingBlock: EZIPEK_clean_linker_0, # of connection points: 2
#     Edge 46, Type (0, 0), BuildingBlock: EZIPEK_clean_linker_0, # of connection points: 2
#     Edge 47, Type (0, 0), BuildingBlock: EZIPEK_clean_linker_0, # of connection points: 2
#     Edge 48, Type (0, 0), BuildingBlock: EZIPEK_clean_linker_0, # of connection points: 2
#     Edge 49, Type (0, 0), BuildingBlock: EZIPEK_clean_linker_0, # of connection points: 2
#     Edge 50, Type (0, 0), BuildingBlock: EZIPEK_clean_linker_0, # of connection points: 2
#     Edge 51, Type (0, 0), BuildingBlock: EZIPEK_clean_linker_0, # of connection points: 2
#     Edge 52, Type (0, 0), BuildingBlock: EZIPEK_clean_linker_0, # of connection points: 2
#     Edge 53, Type (0, 0), BuildingBlock: EZIPEK_clean_linker_0, # of connection points: 2
#     Edge 54, Type (0, 0), BuildingBlock: EZIPEK_clean_linker_0, # of connection points: 2
#     Edge 55, Type (0, 0), BuildingBlock: EZIPEK_clean_linker_0, # of connection points: 2
#     Edge 56, Type (0, 0), BuildingBlock: EZIPEK_clean_linker_0, # of connection points: 2
#     Edge 57, Type (0, 0), BuildingBlock: EZIPEK_clean_linker_0, # of connection points: 2
#     Edge 58, Type (0, 0), BuildingBlock: EZIPEK_clean_linker_0, # of connection points: 2
#     Edge 59, Type (0, 0), BuildingBlock: EZIPEK_clean_linker_0, # of connection points: 2
#     Edge 60, Type (0, 0), BuildingBlock: EZIPEK_clean_linker_0, # of connection points: 2
#     Edge 61, Type (0, 0), BuildingBlock: EZIPEK_clean_linker_0, # of connection points: 2
#     Edge 62, Type (0, 0), BuildingBlock: EZIPEK_clean_linker_0, # of connection points: 2
#     Edge 63, Type (0, 0), BuildingBlock: EZIPEK_clean_linker_0, # of connection points: 2
#     Edge 64, Type (0, 0), BuildingBlock: EZIPEK_clean_linker_0, # of connection points: 2
#     Edge 65, Type (0, 0), BuildingBlock: EZIPEK_clean_linker_0, # of connection points: 2
#     Edge 66, Type (0, 0), BuildingBlock: EZIPEK_clean_linker_0, # of connection points: 2
#     Edge 67, Type (0, 0), BuildingBlock: EZIPEK_clean_linker_0, # of connection points: 2
#     Edge 68, Type (0, 0), BuildingBlock: EZIPEK_clean_linker_0, # of connection points: 2
#     Edge 69, Type (0, 0), BuildingBlock: EZIPEK_clean_linker_0, # of connection points: 2
#     Edge 70, Type (0, 0), BuildingBlock: EZIPEK_clean_linker_0, # of connection points: 2
#     Edge 71, Type (0, 0), BuildingBlock: EZIPEK_clean_linker_0, # of connection points: 2
# Relax obj value: 0.160
# Max RMSD: 0.216
# Mean RMSD: 0.216
data_MOF--net-smd--node1-OJICUG_clean_sbu_0--edge1-EZIPEK_clean_linker_0
_symmetry_space_group_name_H-M    P1
_symmetry_Int_Tables_number       1
_symmetry_cell_setting            triclinic
loop_
_symmetry_equiv_pos_as_xyz
'x, y, z'
_cell_length_a     57.870367
_cell_length_b     57.736638
_cell_length_c     11.926022
_cell_angle_alpha  90.05265
_cell_angle_beta   89.98822
_cell_angle_gamma 120.13703
loop_
_atom_site_label
_atom_site_type_symbol
_atom_site_fract_x
_atom_site_fract_y
_atom_site_fract_z
_atom_type_partial_charge
Sc0 Sc 0.97756 0.22754 0.42074 0.0
Sc1 Sc 0.00456 0.18868 0.51639 0.0
Sc2 Sc 0.0288 0.25365 0.62198 0.0
O3 O 0.00365 0.22339 0.51974 0.0
C4 C 0.0287 0.28583 0.4067 0.0
C5 C -0.00077 0.19825 0.25875 0.0
C6 C 0.06646 0.23184 0.55102 0.0
C7 C 0.94203 0.16709 0.48589 0.0
C8 C 0.97667 0.25846 0.63932 0.0
C9 C 0.00856 0.20161 0.77634 0.0
O10 O 0.00815 0.2666 0.36015 0.0
O11 O 0.01097 0.19205 0.33392 0.0
O12 O 0.06334 0.25172 0.56945 0.0
O13 O 0.94405 0.18985 0.47268 0.0
O14 O -0.00259 0.26024 0.68502 0.0
O15 O -0.00188 0.18402 0.6986 0.0
O16 O 0.96758 0.24733 0.5455 0.0
O17 O 0.96209 0.16382 0.49291 0.0
O18 O 0.02211 0.2266 0.7564 0.0
O19 O 0.98455 0.20812 0.28302 0.0
O20 O 0.03799 0.28377 0.49981 0.0
O21 O 0.04713 0.20808 0.53967 0.0
Sc22 Sc 0.78272 0.76522 0.38294 0.0
Sc23 Sc 0.82194 0.82874 0.50134 0.0
Sc24 Sc 0.75887 0.78442 0.61085 0.0
O25 O 0.78785 0.79282 0.49798 0.0
C26 C 0.72413 0.7588 0.40015 0.0
C27 C 0.81239 0.81668 0.23665 0.0
C28 C 0.78017 0.84613 0.5468 0.0
C29 C 0.84418 0.79032 0.45538 0.0
C30 C 0.75675 0.7278 0.58636 0.0
C31 C 0.80763 0.81589 0.76499 0.0
O32 O 0.7404 0.75213 0.35951 0.0
O33 O 0.8263 0.83133 0.31843 0.0
O34 O 0.76559 0.82516 0.6046 0.0
O35 O 0.82367 0.77424 0.39845 0.0
O36 O 0.74811 0.74241 0.62807 0.0
O37 O 0.82173 0.8316 0.68581 0.0
O38 O 0.77319 0.73532 0.50606 0.0
O39 O 0.84578 0.80997 0.51051 0.0
O40 O 0.78609 0.79412 0.74694 0.0
O41 O 0.79274 0.79317 0.24934 0.0
O42 O 0.72948 0.77406 0.48414 0.0
O43 O 0.80006 0.84939 0.48957 0.0
Sc44 Sc 0.24707 0.03138 0.39465 0.0
Sc45 Sc 0.18292 0.0064 0.50743 0.0
Sc46 Sc 0.226 0.98583 0.61387 0.0
O47 O 0.21859 0.0079 0.50499 0.0
C48 C 0.25275 0.97858 0.40418 0.0
C49 C 0.19616 0.00974 0.24354 0.0
C50 C 0.16451 0.9464 0.54727 0.0
C51 C 0.22149 0.0674 0.46417 0.0
C52 C 0.28303 0.04034 0.59914 0.0
C53 C 0.19547 0.00391 0.77087 0.0
O54 O 0.26018 0.00218 0.36886 0.0
O55 O 0.1809 0.00807 0.32432 0.0
O56 O 0.18528 0.95202 0.60453 0.0
O57 O 0.23821 0.06331 0.41125 0.0
O58 O 0.26792 0.01653 0.63493 0.0
O59 O 0.18017 0.00345 0.69216 0.0
O60 O 0.27608 0.0507 0.52256 0.0
O61 O 0.20154 0.04916 0.51696 0.0
O62 O 0.21634 0.00258 0.75246 0.0
O63 O 0.21993 0.01457 0.25768 0.0
O64 O 0.23628 0.96758 0.48353 0.0
O65 O 0.16166 0.96376 0.49387 0.0
Sc66 Sc 0.02452 0.78706 0.6174 0.0
Sc67 Sc 0.00497 0.8311 0.502 0.0
Sc68 Sc 0.98117 0.76685 0.38735 0.0
O69 O 0.0036 0.79514 0.50241 0.0
C70 C 0.03167 0.76026 0.39538 0.0
C71 C 0.06577 0.847 0.54807 0.0
C72 C 0.00149 0.81986 0.23904 0.0
C73 C 0.0066 0.82137 0.76629 0.0
C74 C 0.97284 0.73047 0.60144 0.0
C75 C 0.94293 0.78874 0.45897 0.0
O76 O 0.0362 0.76724 0.49753 0.0
O77 O 0.04793 0.85266 0.51996 0.0
O78 O -0.00972 0.7948 0.2538 0.0
O79 O 0.01577 0.80567 0.7538 0.0
O80 O 0.96864 0.73412 0.50065 0.0
O81 O 0.96206 0.81219 0.48216 0.0
O82 O -0.00963 0.74895 0.66312 0.0
O83 O 0.00016 0.83112 0.68417 0.0
O84 O 0.94642 0.76934 0.43253 0.0
O85 O 0.0607 0.82398 0.58105 0.0
O86 O 0.01425 0.76197 0.33636 0.0
O87 O 0.00983 0.83647 0.32023 0.0
Sc88 Sc 0.22674 0.25302 0.60848 0.0
Sc89 Sc 0.18296 0.18922 0.50234 0.0
Sc90 Sc 0.24635 0.2284 0.38437 0.0
O91 O 0.2186 0.2235 0.49833 0.0
C92 C 0.25383 0.28763 0.40058 0.0
C93 C 0.16512 0.23104 0.54574 0.0
C94 C 0.195 0.19958 0.23729 0.0
C95 C 0.19564 0.20413 0.76571 0.0
C96 C 0.28329 0.2548 0.58596 0.0
C97 C 0.22104 0.16686 0.45502 0.0
O98 O 0.23727 0.28192 0.4796 0.0
O99 O 0.16178 0.21058 0.49229 0.0
O100 O 0.21866 0.21899 0.25031 0.0
O101 O 0.21652 0.22655 0.748 0.0
O102 O 0.27556 0.23719 0.50999 0.0
O103 O 0.20188 0.16556 0.51211 0.0
O104 O 0.26859 0.26361 0.62521 0.0
O105 O 0.18054 0.18924 0.68661 0.0
O106 O 0.23676 0.18712 0.39617 0.0
O107 O 0.18629 0.24648 0.60059 0.0
O108 O 0.2606 0.2712 0.36251 0.0
O109 O 0.1804 0.18542 0.31878 0.0
Sc110 Sc 0.75642 0.98344 0.63354 0.0
Sc111 Sc 0.82017 0.00498 0.52255 0.0
Sc112 Sc 0.78103 0.03085 0.42048 0.0
O113 O 0.78595 0.00631 0.52509 0.0
C114 C 0.72221 0.97816 0.42714 0.0
C115 C 0.77833 0.94441 0.56388 0.0
C116 C 0.80888 0.0096 0.25964 0.0
C117 C 0.80686 0.00271 0.78672 0.0
C118 C 0.75378 0.03786 0.62737 0.0
C119 C 0.84295 0.06639 0.48607 0.0
O120 O 0.72765 0.96634 0.50312 0.0
O121 O 0.79883 0.96206 0.51212 0.0
O122 O 0.79026 0.01472 0.27767 0.0
O123 O 0.7834 -0.00118 0.77234 0.0
O124 O 0.77227 0.04933 0.55586 0.0
O125 O 0.84458 0.04767 0.53409 0.0
O126 O 0.74495 0.01372 0.6584 0.0
O127 O 0.82182 0.00347 0.70616 0.0
O128 O 0.8223 0.06279 0.43328 0.0
O129 O 0.76262 0.94966 0.61836 0.0
O130 O 0.73853 0.00208 0.39543 0.0
O131 O 0.82261 0.00722 0.33826 0.0
Sc132 Sc 0.65226 0.5654 0.73145 0.0
Sc133 Sc 0.66914 0.52001 0.85098 0.0
Sc134 Sc 0.69265 0.58404 0.97104 0.0
O135 O 0.67121 0.55626 0.85163 0.0
C136 C 0.70708 0.62002 0.75035 0.0
C137 C 0.66838 0.5292 0.58621 0.0
C138 C 0.73099 0.56182 0.90039 0.0
C139 C 0.60883 0.50583 0.79915 0.0
C140 C 0.64345 0.59261 0.9475 0.0
C141 C 0.67102 0.53068 0.11651 0.0
O142 O 0.6882 0.60243 0.69023 0.0
O143 O 0.67325 0.5185 0.66934 0.0
O144 O 0.72712 0.58018 0.93844 0.0
O145 O 0.61514 0.52917 0.76497 0.0
O146 O 0.66011 0.59084 0.01136 0.0
O147 O 0.66476 0.51487 0.03297 0.0
O148 O 0.64022 0.58587 0.84524 0.0
O149 O 0.62587 0.49946 0.83328 0.0
O150 O 0.68079 0.55573 0.10594 0.0
O151 O 0.66077 0.54615 0.59751 0.0
O152 O 0.70845 0.61659 0.85446 0.0
O153 O 0.71229 0.53905 0.86655 0.0
Sc154 Sc 0.44852 0.09998 0.75482 0.0
Sc155 Sc 0.49041 0.1642 0.86194 0.0
Sc156 Sc 0.42672 0.12369 0.9756 0.0
O157 O 0.45529 0.12935 0.86418 0.0
C158 C 0.39112 0.09647 0.76981 0.0
C159 C 0.47872 0.14941 0.5983 0.0
C160 C 0.45094 0.18523 0.90527 0.0
C161 C 0.51005 0.12356 0.82098 0.0
C162 C 0.42138 0.06519 0.96294 0.0
C163 C 0.47758 0.15354 0.12643 0.0
O164 O 0.40656 0.08831 0.73335 0.0
O165 O 0.49321 0.16467 0.67786 0.0
O166 O 0.43499 0.16467 0.96221 0.0
O167 O 0.48926 0.10757 0.76541 0.0
O168 O 0.4138 0.08116 0.99915 0.0
O169 O 0.4924 0.16766 0.04541 0.0
O170 O 0.43816 0.07123 0.88452 0.0
O171 O 0.51254 0.14384 0.87314 0.0
O172 O 0.45398 0.13406 0.11267 0.0
O173 O 0.45871 0.12631 0.61497 0.0
O174 O 0.39779 0.11375 0.84689 0.0
O175 O 0.47073 0.18709 0.85139 0.0
Sc176 Sc 0.9116 0.36312 0.74678 0.0
Sc177 Sc 0.8463 0.33718 0.85485 0.0
Sc178 Sc 0.89064 0.31892 0.97561 0.0
O179 O 0.88284 0.33977 0.85912 0.0
C180 C 0.9208 0.31333 0.76403 0.0
C181 C 0.86041 0.34123 0.59122 0.0
C182 C 0.831 0.27696 0.90005 0.0
C183 C 0.88552 0.39898 0.81355 0.0
C184 C 0.94665 0.3729 0.96601 0.0
C185 C 0.85489 0.33516 0.11985 0.0
O186 O 0.92191 0.3327 0.70859 0.0
O187 O 0.84384 0.33596 0.67123 0.0
O188 O 0.85351 0.28277 0.94166 0.0
O189 O 0.90439 0.39619 0.77304 0.0
O190 O 0.92907 0.35267 0.01993 0.0
O191 O 0.84334 0.3389 0.03674 0.0
O192 O 0.94272 0.37944 0.86948 0.0
O193 O 0.86375 0.37974 0.85054 0.0
O194 O 0.87293 0.32904 0.10951 0.0
O195 O 0.88497 0.34954 0.60748 0.0
O196 O 0.90974 0.30607 0.85908 0.0
O197 O 0.82564 0.29423 0.8611 0.0
Sc198 Sc 0.69051 0.11973 0.99262 0.0
Sc199 Sc 0.67091 0.16282 0.87155 0.0
Sc200 Sc 0.64497 0.09693 0.76884 0.0
O201 O 0.66877 0.12651 0.87751 0.0
C202 C 0.69614 0.0894 0.78435 0.0
C203 C 0.73124 0.17949 0.91332 0.0
C204 C 0.66642 0.1472 0.60894 0.0
C205 C 0.67295 0.15409 0.13753 0.0
C206 C 0.63575 0.06324 0.99009 0.0
C207 C 0.60936 0.12353 0.83248 0.0
O208 O 0.70535 0.1032 0.87269 0.0
O209 O 0.7138 0.18386 0.86919 0.0
O210 O 0.65948 0.1229 0.62659 0.0
O211 O 0.67828 0.13544 0.12692 0.0
O212 O 0.62774 0.0672 0.89689 0.0
O213 O 0.62839 0.14501 0.87296 0.0
O214 O 0.65797 0.0803 0.03297 0.0
O215 O 0.67052 0.1666 0.05442 0.0
O216 O 0.61238 0.10504 0.78902 0.0
O217 O 0.72569 0.15792 0.96364 0.0
O218 O 0.67452 0.08501 0.73743 0.0
O219 O 0.67054 0.16381 0.68788 0.0
Sc220 Sc 0.892 0.58419 0.93468 0.0
Sc221 Sc 0.84804 0.52098 0.82851 0.0
Sc222 Sc 0.9113 0.55979 0.70978 0.0
O223 O 0.8837 0.55503 0.82349 0.0
C224 C 0.91797 0.61878 0.72591 0.0
C225 C 0.83011 0.56218 0.87356 0.0
C226 C 0.85998 0.53062 0.5633 0.0
C227 C 0.86126 0.53612 0.09122 0.0
C228 C 0.94865 0.58662 0.90982 0.0
C229 C 0.88646 0.49879 0.78612 0.0
O230 O 0.90158 0.61303 0.80593 0.0
O231 O 0.82722 0.54264 0.81425 0.0
O232 O 0.88346 0.55031 0.57655 0.0
O233 O 0.88328 0.55723 0.07131 0.0
O234 O 0.94079 0.56879 0.83472 0.0
O235 O 0.86734 0.4977 0.84287 0.0
O236 O 0.93403 0.59558 0.94816 0.0
O237 O 0.8452 0.52198 0.01294 0.0
O238 O 0.90163 0.51841 0.72294 0.0
O239 O 0.85106 0.57682 0.93139 0.0
O240 O 0.92501 0.60251 0.68793 0.0
O241 O 0.84556 0.51631 0.6449 0.0
Sc242 Sc 0.42806 0.3221 0.94284 0.0
Sc243 Sc 0.49241 0.34686 0.83709 0.0
Sc244 Sc 0.44933 0.36627 0.71886 0.0
O245 O 0.45676 0.34525 0.83307 0.0
C246 C 0.39316 0.31061 0.73435 0.0
C247 C 0.45453 0.28636 0.88207 0.0
C248 C 0.48217 0.34831 0.57227 0.0
C249 C 0.47687 0.344 0.10036 0.0
C250 C 0.4196 0.37309 0.9178 0.0
C251 C 0.51012 0.4068 0.7911 0.0
O252 O 0.40067 0.30098 0.81185 0.0
O253 O 0.47384 0.30417 0.82548 0.0
O254 O 0.46157 0.35047 0.58524 0.0
O255 O 0.45402 0.34124 0.08177 0.0
O256 O 0.43697 0.38425 0.84184 0.0
O257 O 0.51324 0.38974 0.84654 0.0
O258 O 0.41277 0.34992 0.95675 0.0
O259 O 0.49211 0.34429 0.02179 0.0
O260 O 0.48918 0.40073 0.73412 0.0
O261 O 0.43866 0.29096 0.93903 0.0
O262 O 0.40782 0.33431 0.696 0.0
O263 O 0.49667 0.34871 0.65385 0.0
Sc264 Sc 0.31652 0.89636 0.05132 0.0
Sc265 Sc 0.33483 0.85182 0.16945 0.0
Sc266 Sc 0.35695 0.91534 0.29068 0.0
O267 O 0.33613 0.88771 0.1703 0.0
C268 C 0.36757 0.95279 0.07698 0.0
C269 C 0.3341 0.86136 0.90462 0.0
C270 C 0.39646 0.89481 0.22024 0.0
C271 C 0.27424 0.83632 0.11764 0.0
C272 C 0.30688 0.92214 0.27074 0.0
C273 C 0.33689 0.86189 0.43444 0.0
O274 O 0.35135 0.93446 0.01087 0.0
O275 O 0.33953 0.85106 0.98771 0.0
O276 O 0.39231 0.91341 0.2531 0.0
O277 O 0.27998 0.85957 0.08465 0.0
O278 O 0.32301 0.91946 0.33472 0.0
O279 O 0.32977 0.84599 0.35097 0.0
O280 O 0.30408 0.91617 0.16748 0.0
O281 O 0.29167 0.83037 0.15009 0.0
O282 O 0.34714 0.88696 0.42362 0.0
O283 O 0.3257 0.87771 0.91617 0.0
O284 O 0.37025 0.94862 0.17911 0.0
O285 O 0.37792 0.87167 0.18885 0.0
Sc286 Sc 0.1143 0.43245 0.07443 0.0
Sc287 Sc 0.15768 0.49637 0.18666 0.0
Sc288 Sc 0.09311 0.45555 0.30235 0.0
O289 O 0.12174 0.46154 0.18796 0.0
C290 C 0.05816 0.42889 0.08293 0.0
C291 C 0.14882 0.48462 0.92379 0.0
C292 C 0.11586 0.51622 0.22976 0.0
C293 C 0.1743 0.45185 0.14494 0.0
C294 C 0.08486 0.39728 0.28984 0.0
C295 C 0.14576 0.48723 0.45109 0.0
O296 O 0.07638 0.42824 0.02539 0.0
O297 O 0.15878 0.50123 1.00458 0.0
O298 O 0.09703 0.49391 0.2654 0.0
O299 O 0.15106 0.43342 0.11655 0.0
O300 O 0.08549 0.416 0.34883 0.0
O301 O 0.16207 0.49654 0.36905 0.0
O302 O 0.09406 0.40068 0.19126 0.0
O303 O 0.17972 0.47552 0.17011 0.0
O304 O 0.12075 0.47246 0.43865 0.0
O305 O 0.13316 0.45979 0.93904 0.0
O306 O 0.06147 0.43754 0.1827 0.0
O307 O 0.13872 0.52019 0.20064 0.0
Sc308 Sc 0.57896 0.69623 0.0411 0.0
Sc309 Sc 0.51536 0.67583 0.15677 0.0
Sc310 Sc 0.55697 0.65409 0.27602 0.0
O311 O 0.55028 0.67531 0.15765 0.0
C312 C 0.5849 0.64543 0.06105 0.0
C313 C 0.52646 0.67762 0.89237 0.0
C314 C 0.49708 0.6141 0.20345 0.0
C315 C 0.55985 0.73709 0.10977 0.0
C316 C 0.61381 0.70518 0.26162 0.0
C317 C 0.52329 0.67338 0.42156 0.0
O318 O 0.58367 0.66251 0.99765 0.0
O319 O 0.51044 0.67157 0.97484 0.0
O320 O 0.51984 0.61849 0.23657 0.0
O321 O 0.57775 0.73205 0.07696 0.0
O322 O 0.59494 0.68806 0.32294 0.0
O323 O 0.51436 0.68038 0.33849 0.0
O324 O 0.61084 0.70898 0.1593 0.0
O325 O 0.53649 0.71912 0.14059 0.0
O326 O 0.53822 0.66335 0.41011 0.0
O327 O 0.55132 0.68672 0.9048 0.0
O328 O 0.57709 0.64149 0.16207 0.0
O329 O 0.49232 0.63254 0.17334 0.0
Sc330 Sc 0.36012 0.4556 0.26963 0.0
Sc331 Sc 0.33567 0.49656 0.17812 0.0
Sc332 Sc 0.31231 0.43307 0.05762 0.0
O333 O 0.33595 0.46175 0.1681 0.0
C334 C 0.36269 0.42671 0.0472 0.0
C335 C 0.39775 0.51502 0.20354 0.0
C336 C 0.33233 0.48657 0.91513 0.0
C337 C 0.34149 0.48676 0.43424 0.0
C338 C 0.30887 0.39889 0.27265 0.0
C339 C 0.27396 0.4533 0.13864 0.0
O340 O 0.36823 0.43354 0.14876 0.0
O341 O 0.37859 0.51991 0.20178 0.0
O342 O 0.31879 0.46139 0.92923 0.0
O343 O 0.35645 0.47749 0.40671 0.0
O344 O 0.30316 0.40129 0.17231 0.0
O345 O 0.29291 0.47711 0.15561 0.0
O346 O 0.32686 0.41827 0.32978 0.0
O347 O 0.3288 0.49206 0.36053 0.0
O348 O 0.27754 0.43395 0.11341 0.0
O349 O 0.39444 0.49162 0.21259 0.0
O350 O 0.34508 0.42908 0.99268 0.0
O351 O 0.34257 0.50308 0.9966 0.0
Sc352 Sc 0.55509 0.91472 0.29182 0.0
Sc353 Sc 0.51414 0.85084 0.17544 0.0
Sc354 Sc 0.57775 0.8952 0.05862 0.0
O355 O 0.5489 0.88675 0.17517 0.0
C356 C 0.5821 0.9512 0.07689 0.0
C357 C 0.49491 0.89334 0.22217 0.0
C358 C 0.52528 0.86078 0.91117 0.0
C359 C 0.52213 0.86156 0.43898 0.0
C360 C 0.61239 0.92204 0.27936 0.0
C361 C 0.55907 0.83519 0.12532 0.0
O362 O 0.57474 0.94723 0.17822 0.0
O363 O 0.49025 0.86984 0.19772 0.0
O364 O 0.55016 0.87642 0.92325 0.0
O365 O 0.53639 0.88663 0.42504 0.0
O366 O 0.60967 0.91534 0.1768 0.0
O367 O 0.53553 0.82931 0.15452 0.0
O368 O 0.59326 0.91969 0.34039 0.0
O369 O 0.51362 0.84512 0.35717 0.0
O370 O 0.57707 0.85844 0.0946 0.0
O371 O 0.51795 0.91247 0.24858 0.0
O372 O 0.58151 0.93321 0.01336 0.0
O373 O 0.50911 0.85105 0.99352 0.0
Sc374 Sc 0.09337 0.65354 0.2722 0.0
Sc375 Sc 0.15721 0.67701 0.16391 0.0
Sc376 Sc 0.11463 0.69713 0.04624 0.0
O377 O 0.12183 0.676 0.16058 0.0
C378 C 0.05803 0.64211 0.06405 0.0
C379 C 0.11862 0.61677 0.20976 0.0
C380 C 0.14703 0.67865 0.89929 0.0
C381 C 0.14222 0.67446 0.42739 0.0
C382 C 0.08628 0.7052 0.24886 0.0
C383 C 0.17563 0.73702 0.11712 0.0
O384 O 0.06517 0.63253 0.14328 0.0
O385 O 0.13785 0.63428 0.15176 0.0
O386 O 0.12638 0.68074 0.91245 0.0
O387 O 0.11995 0.67299 0.40879 0.0
O388 O 0.10281 0.71573 0.16945 0.0
O389 O 0.17856 0.71993 0.17338 0.0
O390 O 0.07916 0.682 0.28787 0.0
O391 O 0.15702 0.67402 0.34853 0.0
O392 O 0.15468 0.73111 0.0606 0.0
O393 O 0.10324 0.62185 0.26796 0.0
O394 O 0.073 0.66558 0.02426 0.0
O395 O 0.16153 0.67906 0.98085 0.0
C396 C 0.04203 0.35572 0.33971 0.0
C397 C 0.07033 0.36925 0.32954 0.0
C398 C 0.06929 0.32633 0.33743 0.0
C399 C 0.04149 0.31315 0.3594 0.0
N400 N 0.00155 0.31545 0.39473 0.0
N401 N 0.11142 0.36827 0.33473 0.0
C402 C 0.02783 0.32783 0.36342 0.0
C403 C 0.0841 0.35474 0.33287 0.0
N404 N 0.02852 0.3692 0.32216 0.0
N405 N 0.08132 0.31148 0.31885 0.0
H406 H 0.12282 0.38915 0.33393 0.0
H407 H 0.12273 0.35906 0.34757 0.0
H408 H 0.07065 0.29057 0.31902 0.0
H409 H 0.10105 0.3196 0.29268 0.0
H410 H 0.00784 0.35972 0.31351 0.0
H411 H 0.03794 0.3897 0.30695 0.0
H412 H -0.00841 0.32577 0.41392 0.0
H413 H -0.00997 0.29497 0.4098 0.0
C414 C 0.68553 0.7599 0.31045 0.0
C415 C 0.69614 0.74506 0.36127 0.0
C416 C 0.6529 0.70402 0.34472 0.0
C417 C 0.64145 0.71916 0.30487 0.0
N418 N 0.64575 0.76226 0.26825 0.0
N419 N 0.68759 0.70482 0.45858 0.0
C420 C 0.65747 0.74739 0.29295 0.0
C421 C 0.67919 0.71763 0.38754 0.0
N422 N 0.70231 0.78569 0.27714 0.0
N423 N 0.6394 0.6767 0.33694 0.0
H424 H 0.70614 0.71458 0.49778 0.0
H425 H 0.67499 0.6855 0.48845 0.0
H426 H 0.62039 0.66559 0.30222 0.0
H427 H 0.64832 0.66526 0.35419 0.0
H428 H 0.69607 0.79674 0.23008 0.0
H429 H 0.72297 0.79525 0.28827 0.0
H430 H 0.65605 0.78311 0.26844 0.0
H431 H 0.62515 0.75375 0.25814 0.0
C432 C 0.25214 0.93898 0.3148 0.0
C433 C 0.26678 0.9646 0.36536 0.0
C434 C 0.30784 0.96252 0.35179 0.0
C435 C 0.29282 0.93579 0.31249 0.0
N436 N 0.25001 0.89679 0.27369 0.0
N437 N 0.3069 -0.00307 0.4619 0.0
C438 C 0.26471 0.92346 0.29882 0.0
C439 C 0.29418 0.97535 0.39221 0.0
N440 N 0.22647 0.9298 0.28003 0.0
N441 N 0.33513 0.97626 0.3461 0.0
H442 H 0.29719 0.00598 0.49899 0.0
H443 H 0.32612 0.00381 0.49282 0.0
H444 H 0.34626 0.96808 0.31461 0.0
H445 H 0.34659 -0.00326 0.36237 0.0
H446 H 0.21559 0.9124 0.233 0.0
H447 H 0.21687 0.94089 0.28977 0.0
H448 H 0.22921 0.8861 0.2728 0.0
H449 H 0.25859 0.88474 0.26411 0.0
C450 C 0.33273 0.06675 0.56725 0.0
C451 C 0.31064 0.05619 0.64269 0.0
C452 C 0.34132 0.07205 0.80223 0.0
C453 C 0.3634 0.08389 0.72663 0.0
N454 N 0.37971 0.09856 0.53913 0.0
N455 N 0.29399 0.05497 0.82911 0.0
C456 C 0.35898 0.08303 0.60963 0.0
C457 C 0.31496 0.06067 0.7594 0.0
N458 N 0.32892 0.06043 0.45566 0.0
N459 N 0.34525 0.07047 0.91443 0.0
H460 H 0.27443 0.04713 0.80049 0.0
H461 H 0.29636 0.06059 0.91323 0.0
H462 H 0.36398 0.07816 0.95134 0.0
H463 H 0.32973 0.05915 0.97008 0.0
H464 H 0.34455 0.06489 0.40041 0.0
H465 H 0.31022 0.04856 0.41929 0.0
H466 H 0.37715 0.10095 0.45431 0.0
H467 H 0.39913 0.11135 0.56745 0.0
C468 C 0.96361 0.31478 0.71308 0.0
C469 C 0.93531 0.29989 0.72429 0.0
C470 C 0.93608 0.25793 0.71033 0.0
C471 C 0.96384 0.27273 0.68773 0.0
N472 N 0.00373 0.31531 0.65242 0.0
N473 N 0.89408 0.25765 0.71546 0.0
C474 C 0.97759 0.30119 0.68561 0.0
C475 C 0.9214 0.27151 0.71799 0.0
N476 N 0.97736 0.34177 0.73315 0.0
N477 N 0.92394 0.23087 0.72626 0.0
H478 H 0.88272 0.2671 0.71764 0.0
H479 H 0.88274 0.23715 0.70038 0.0
H480 H 0.93445 0.22055 0.72308 0.0
H481 H 0.90426 0.21914 0.75308 0.0
H482 H -0.00193 0.35291 0.74083 0.0
H483 H 0.96824 0.35288 0.75242 0.0
H484 H 0.01363 0.33571 0.63428 0.0
H485 H 0.01517 0.30649 0.63427 0.0
C486 C 0.7335 0.67832 0.54936 0.0
C487 C 0.7463 0.70005 0.62666 0.0
C488 C 0.74334 0.66881 0.77212 0.0
C489 C 0.72613 0.647 0.70153 0.0
N490 N 0.71911 0.63182 0.51028 0.0
N491 N 0.76395 0.71623 0.81184 0.0
C492 C 0.72528 0.6519 0.5859 0.0
C493 C 0.75136 0.69537 0.73824 0.0
N494 N 0.72811 0.68263 0.44221 0.0
N495 N 0.75458 0.66441 0.86447 0.0
H496 H 0.77202 0.73622 0.78854 0.0
H497 H 0.76498 0.71357 0.89771 0.0
H498 H 0.75328 0.64601 0.87971 0.0
H499 H 0.76871 0.67967 0.91502 0.0
H500 H 0.71571 0.66722 0.38786 0.0
H501 H 0.73407 0.70153 0.40963 0.0
H502 H 0.72036 0.63458 0.42376 0.0
H503 H 0.71667 0.61334 0.53408 0.0
C504 C 0.97368 0.69009 0.67183 0.0
C505 C 0.95874 0.70248 0.64146 0.0
C506 C 0.91751 0.65875 0.64635 0.0
C507 C 0.9322 0.64708 0.68891 0.0
N508 N 0.9732 0.65381 0.77249 0.0
N509 N 0.91597 0.69955 0.61737 0.0
C510 C 0.96 0.66331 0.71005 0.0
C511 C 0.93045 0.68705 0.63374 0.0
N512 N 0.00084 0.70327 0.6595 0.0
N513 N 0.89141 0.64273 0.61554 0.0
H514 H 0.92485 0.72031 0.61048 0.0
H515 H 0.8952 0.68967 0.62133 0.0
H516 H 0.88152 0.6219 0.62223 0.0
H517 H 0.88036 0.64982 0.57408 0.0
H518 H 0.01204 0.69381 0.66897 0.0
H519 H 0.01194 0.72273 0.629 0.0
H520 H -0.00714 0.66581 0.79963 0.0
H521 H 0.96364 0.63483 0.80793 0.0
C522 C 0.31714 0.26814 0.73899 0.0
C523 C 0.31143 0.26709 0.6233 0.0
C524 C 0.35943 0.28956 0.58058 0.0
C525 C 0.36509 0.29445 0.6963 0.0
N526 N 0.34886 0.29114 0.88706 0.0
N527 N 0.32748 0.27961 0.43219 0.0
C528 C 0.34385 0.28432 0.77619 0.0
C529 C 0.33263 0.27835 0.54328 0.0
N530 N 0.29716 0.25298 0.81318 0.0
N531 N 0.37954 0.29479 0.50659 0.0
H532 H 0.30838 0.27215 0.39936 0.0
H533 H 0.3424 0.2905 0.37355 0.0
H534 H 0.39936 0.30254 0.53135 0.0
H535 H 0.37619 0.28889 0.4228 0.0
H536 H 0.30064 0.25067 0.89703 0.0
H537 H 0.27738 0.24039 0.78859 0.0
H538 H 0.33383 0.28694 0.94526 0.0
H539 H 0.36786 0.30335 0.91992 0.0
C540 C 0.71972 0.07993 0.62971 0.0
C541 C 0.71039 0.07597 0.74151 0.0
C542 C 0.73366 0.05134 0.78227 0.0
C543 C 0.74003 0.05218 0.66716 0.0
N544 N 0.73318 0.06226 0.47603 0.0
N545 N 0.70294 0.05216 0.91681 0.0
C546 C 0.73154 0.06517 0.58908 0.0
C547 C 0.71576 0.06001 0.81584 0.0
N548 N 0.71806 0.09828 0.56305 0.0
N549 N 0.7454 0.04322 0.86026 0.0
H550 H 0.68864 0.05697 0.94256 0.0
H551 H 0.7043 0.03844 0.96909 0.0
H552 H 0.75969 0.03796 0.8396 0.0
H553 H 0.7432 0.04461 0.94633 0.0
H554 H 0.72722 0.10396 0.48477 0.0
H555 H 0.70977 0.10972 0.59014 0.0
H556 H 0.72461 0.06903 0.41723 0.0
H557 H 0.74021 0.05052 0.44033 0.0
C558 C 0.65549 0.92315 0.31685 0.0
C559 C 0.6399 0.93578 0.32423 0.0
C560 C 0.67788 0.97557 0.40519 0.0
C561 C 0.6944 0.96432 0.38506 0.0
N562 N 0.69995 0.92896 0.30596 0.0
N563 N 0.63829 0.97656 0.35047 0.0
C564 C 0.68348 0.93849 0.33634 0.0
C565 C 0.65162 0.96271 0.36133 0.0
N566 N 0.64341 0.89634 0.29438 0.0
N567 N 0.68661 -0.00231 0.47161 0.0
H568 H 0.61917 0.9683 0.31667 0.0
H569 H 0.64734 -0.00289 0.36473 0.0
H570 H 0.70516 0.00688 0.51084 0.0
H571 H 0.67432 0.00504 0.49785 0.0
H572 H 0.65331 0.88548 0.29846 0.0
H573 H 0.62284 0.8844 0.28222 0.0
H574 H 0.6935 0.91139 0.26027 0.0
H575 H 0.72062 0.93991 0.31731 0.0
C576 C 0.03089 0.72023 0.3103 0.0
C577 C 0.04577 0.74709 0.34846 0.0
C578 C 0.08712 0.74533 0.33428 0.0
C579 C 0.07239 0.71941 0.28644 0.0
N580 N 0.03168 0.68609 0.19695 0.0
N581 N 0.08846 0.78709 0.37659 0.0
C582 C 0.04467 0.70793 0.2652 0.0
C583 C 0.07408 0.76024 0.35451 0.0
N584 N 0.00372 0.70586 0.32189 0.0
N585 N 0.11331 0.75538 0.36307 0.0
H586 H 0.07951 0.79871 0.38903 0.0
H587 H 0.10922 0.79829 0.37182 0.0
H588 H 0.1234 0.74486 0.35013 0.0
H589 H 0.12433 0.77304 0.40838 0.0
H590 H -0.00747 0.68534 0.30607 0.0
H591 H -0.00741 0.71358 0.35785 0.0
H592 H 0.012 0.67852 0.17062 0.0
H593 H 0.04149 0.67755 0.15618 0.0
C594 C 0.26669 0.35594 0.30957 0.0
C595 C 0.29497 0.37141 0.31828 0.0
C596 C 0.29593 0.33228 0.38924 0.0
C597 C 0.26832 0.31596 0.36436 0.0
N598 N 0.228 0.31167 0.28584 0.0
N599 N 0.33704 0.37241 0.34259 0.0
C600 C 0.25382 0.32765 0.32022 0.0
C601 C 0.30981 0.35912 0.35162 0.0
N602 N 0.25216 0.36839 0.2937 0.0
N603 N 0.3087 0.32275 0.45434 0.0
H604 H 0.34831 0.39194 0.31291 0.0
H605 H 0.34823 0.36301 0.35455 0.0
H606 H 0.29884 0.30374 0.48949 0.0
H607 H 0.32815 0.33475 0.48379 0.0
H608 H 0.23136 0.35838 0.29655 0.0
H609 H 0.26098 0.38919 0.28923 0.0
H610 H 0.21717 0.3189 0.24352 0.0
H611 H 0.21828 0.29081 0.29002 0.0
C612 C -0.01132 0.3725 0.01127 0.0
C613 C 0.97462 0.38683 1.00606 0.0
C614 C 0.01671 0.42929 0.02873 0.0
C615 C 0.03037 0.41482 0.04181 0.0
N616 N 0.02896 0.37247 0.06346 0.0
N617 N 0.97414 0.42803 0.02678 0.0
C618 C 0.01628 0.3864 0.03765 0.0
C619 C -0.01162 0.41506 0.01941 0.0
N620 N 0.97607 0.34578 0.98593 0.0
N621 N 0.03102 0.45663 0.02296 0.0
H622 H 0.95332 0.41789 0.02335 0.0
H623 H 0.98257 0.44825 0.04639 0.0
H624 H 0.05183 0.46749 0.02852 0.0
H625 H 0.02265 0.4684 1.00326 0.0
H626 H 0.98612 0.33526 0.97319 0.0
H627 H 0.95584 0.33427 0.9676 0.0
H628 H 0.01896 0.35193 0.0784 0.0
H629 H 0.04936 0.38152 0.07894 0.0
C630 C 0.64252 0.63425 0.99141 0.0
C631 C 0.62896 0.60589 0.98765 0.0
C632 C 0.58594 0.60389 0.01229 0.0
C633 C 0.59968 0.63215 0.02363 0.0
N634 N 0.64129 0.67401 0.0439 0.0
N635 N 0.58869 0.56324 1.00756 0.0
C636 C 0.62804 0.6473 0.0184 0.0
C637 C 0.60087 0.59054 1.00193 0.0
N638 N 0.66906 0.64882 0.96445 0.0
N639 N 0.55862 0.59 1.00873 0.0
H640 H 0.59925 0.55302 1.0007 0.0
H641 H 0.56865 0.55082 0.0278 0.0
H642 H 0.54723 0.59936 0.01528 0.0
H643 H 0.54727 0.56967 0.99054 0.0
H644 H 0.67913 0.66943 0.95097 0.0
H645 H 0.68075 0.64016 0.94768 0.0
H646 H 0.66185 0.68516 0.05711 0.0
H647 H 0.63165 0.68476 0.05986 0.0
C648 C 0.42194 0.02553 0.04569 0.0
C649 C 0.40727 0.03678 0.99882 0.0
C650 C 0.3664 -0.00702 1.0058 0.0
C651 C 0.38153 0.98109 0.0404 0.0
N652 N 0.42448 0.98532 0.07667 0.0
N653 N 0.36711 0.02929 0.9044 0.0
C654 C 0.40959 -0.00281 0.0557 0.0
C655 C 0.37992 0.02001 0.97071 0.0
N656 N 0.44745 0.04198 0.08272 0.0
N657 N 0.33911 0.97903 0.01082 0.0
H658 H 0.37671 0.04847 0.871 0.0
H659 H 0.34797 0.01701 0.8723 0.0
H660 H 0.32805 0.95928 0.03806 0.0
H661 H 0.32756 0.98803 0.99843 0.0
H662 H 0.45839 0.03516 0.12698 0.0
H663 H 0.45681 0.06281 0.07807 0.0
H664 H 0.44528 -0.00425 0.07828 0.0
H665 H 0.41608 0.96458 0.0819 0.0
C666 C 0.59245 0.01984 0.01505 0.0
C667 C 0.6203 0.03565 0.03815 0.0
C668 C 0.62301 -0.00484 0.06342 0.0
C669 C 0.59536 0.97929 0.04063 0.0
N670 N 0.55263 0.97557 1.00822 0.0
N671 N 0.65726 0.03708 0.13958 0.0
C672 C 0.57969 0.99139 0.02021 0.0
C673 C 0.6343 0.02305 0.07877 0.0
N674 N 0.57829 0.03229 0.99061 0.0
N675 N 0.63847 0.98352 0.07244 0.0
H676 H 0.6639 0.05635 0.16943 0.0
H677 H 0.66719 0.02817 0.17657 0.0
H678 H 0.63084 0.96302 0.06191 0.0
H679 H 0.65923 -0.00544 0.07906 0.0
H680 H 0.55885 0.0226 0.95986 0.0
H681 H 0.5864 0.05282 1.00243 0.0
H682 H 0.53942 0.9828 1.00397 0.0
H683 H 0.54315 0.9547 1.00539 0.0
C684 C 0.02476 0.62083 0.90868 0.0
C685 C 0.03008 0.62609 0.0245 0.0
C686 C 0.98203 0.60018 0.06473 0.0
C687 C 0.97666 0.59875 0.94853 0.0
N688 N -0.0067 0.61078 0.75801 0.0
N689 N 0.01332 0.6238 0.21344 0.0
C690 C -0.0019 0.60971 0.86965 0.0
C691 C 0.00862 0.61645 0.10302 0.0
N692 N 0.04503 0.62564 0.83634 0.0
N693 N 0.96184 0.58527 0.13849 0.0
H694 H 0.03226 0.63612 0.24681 0.0
H695 H -0.00188 0.61991 0.27032 0.0
H696 H 0.94215 0.57252 0.11315 0.0
H697 H 0.96509 0.58333 0.22301 0.0
H698 H 0.04187 0.61951 0.75282 0.0
H699 H 0.06475 0.63325 0.86242 0.0
H700 H 0.00843 0.62143 0.69989 0.0
H701 H 0.9743 0.60337 0.7241 0.0
C702 C 0.40522 0.42787 1.00339 0.0
C703 C 0.37693 0.41419 0.99594 0.0
C704 C 0.37707 0.37465 0.92437 0.0
C705 C 0.40469 0.38668 0.9502 0.0
N706 N 0.44477 0.42402 0.02589 0.0
N707 N 0.33538 0.37259 0.96797 0.0
C708 C 0.41876 0.41319 0.99267 0.0
C709 C 0.36263 0.38705 0.96117 0.0
N710 N 0.41909 0.45499 0.019 0.0
N711 N 0.36487 0.35223 0.8591 0.0
H712 H 0.32376 0.38063 0.99509 0.0
H713 H 0.32448 0.35193 0.95561 0.0
H714 H 0.37523 0.34365 0.82391 0.0
H715 H 0.34538 0.34416 0.82928 0.0
H716 H 0.43985 0.46646 0.01538 0.0
H717 H 0.40967 0.46635 0.02403 0.0
H718 H 0.45524 0.4423 0.06755 0.0
H719 H 0.45516 0.41361 0.02106 0.0
C720 C 0.09936 0.22292 0.64596 0.0
C721 C 0.0936 0.23558 0.55737 0.0
C722 C 0.13791 0.25084 0.47662 0.0
C723 C 0.1418 0.23477 0.55563 0.0
N724 N 0.12508 0.20289 0.70788 0.0
N725 N 0.10629 0.26059 0.38465 0.0
C726 C 0.1223 0.22023 0.63879 0.0
C727 C 0.11272 0.24962 0.47221 0.0
N728 N 0.08312 0.21396 0.73816 0.0
N729 N 0.15824 0.26706 0.40589 0.0
H730 H 0.08808 0.26013 0.37947 0.0
H731 H 0.11819 0.26864 0.31379 0.0
H732 H 0.17667 0.2679 0.40633 0.0
H733 H 0.15766 0.28112 0.35316 0.0
H734 H 0.08777 0.20702 0.81044 0.0
H735 H 0.0663 0.21599 0.74713 0.0
H736 H 0.11002 0.18945 0.761 0.0
H737 H 0.14166 0.20035 0.70597 0.0
C738 C 0.76729 0.902 0.46209 0.0
C739 C 0.77338 0.91666 0.564 0.0
C740 C 0.78272 0.8844 0.65518 0.0
C741 C 0.7757 0.86911 0.55509 0.0
N742 N 0.75622 0.86004 0.37053 0.0
N743 N 0.77892 0.91743 0.76517 0.0
C744 C 0.76635 0.87689 0.46056 0.0
C745 C 0.77825 0.9063 0.66326 0.0
N746 N 0.76273 0.91227 0.36689 0.0
N747 N 0.79563 0.8794 0.73945 0.0
H748 H 0.77599 0.93368 0.77532 0.0
H749 H 0.77972 0.90882 0.84077 0.0
H750 H 0.80096 0.86469 0.73368 0.0
H751 H 0.80366 0.89171 0.80947 0.0
H752 H 0.76135 0.90424 0.28731 0.0
H753 H 0.76148 0.92968 0.36695 0.0
H754 H 0.74692 0.86338 0.3028 0.0
H755 H 0.75511 0.84145 0.3681 0.0
C756 C 0.10437 0.88272 0.65237 0.0
C757 C 0.09373 0.8691 0.55011 0.0
C758 C 0.1336 0.90291 0.45168 0.0
C759 C 0.14142 0.91887 0.5502 0.0
N760 N 0.1305 0.92617 0.73748 0.0
N761 N 0.09766 0.86571 0.35054 0.0
C762 C 0.12603 0.90929 0.64941 0.0
C763 C 0.10827 0.87897 0.44891 0.0
N764 N 0.09372 0.87046 0.75218 0.0
N765 N 0.15056 0.91047 0.36211 0.0
H766 H 0.07982 0.84738 0.3473 0.0
H767 H 0.10584 0.87344 0.2722 0.0
H768 H 0.16946 0.92759 0.36368 0.0
H769 H 0.14699 0.89865 0.29104 0.0
H770 H 0.10249 0.87885 0.82914 0.0
H771 H 0.07778 0.85085 0.75747 0.0
H772 H 0.11821 0.92061 0.808 0.0
H773 H 0.14439 0.94657 0.73386 0.0
C774 C 0.22921 0.13397 0.55819 0.0
C775 C 0.22469 0.14329 0.4551 0.0
C776 C 0.22362 0.1056 0.35548 0.0
C777 C 0.22474 0.0945 0.46043 0.0
N778 N 0.22899 0.09774 0.66197 0.0
N779 N 0.21602 0.13765 0.25596 0.0
C780 C 0.22767 0.10861 0.56198 0.0
C781 C 0.22194 0.12928 0.35354 0.0
N782 N 0.23608 0.14997 0.65129 0.0
N783 N 0.22389 0.09345 0.25727 0.0
H784 H 0.21543 0.1553 0.24911 0.0
H785 H 0.20992 0.12631 0.18274 0.0
H786 H 0.22255 0.07483 0.25278 0.0
H787 H 0.22707 0.10255 0.17906 0.0
H788 H 0.24206 0.14564 0.72686 0.0
H789 H 0.23806 0.16896 0.65048 0.0
H790 H 0.22745 0.10502 0.73978 0.0
H791 H 0.23066 0.08061 0.66758 0.0
C792 C 0.87123 0.11279 0.56329 0.0
C793 C 0.86725 0.09309 0.48236 0.0
C794 C 0.90968 0.12429 0.39254 0.0
C795 C 0.91529 0.14275 0.4813 0.0
N796 N 0.90285 0.15412 0.65704 0.0
N797 N 0.88396 0.07841 0.32875 0.0
C798 C 0.89634 0.13704 0.56792 0.0
C799 C 0.88681 0.09838 0.39924 0.0
N800 N 0.85102 0.10826 0.63542 0.0
N801 N 0.92583 0.13186 0.30001 0.0
H802 H 0.86735 0.05916 0.32992 0.0
H803 H 0.899 0.08024 0.27518 0.0
H804 H 0.94251 0.15092 0.29091 0.0
H805 H 0.92125 0.12028 0.22759 0.0
H806 H 0.85161 0.1228 0.68895 0.0
H807 H 0.83271 0.09039 0.63612 0.0
H808 H 0.89113 0.14977 0.72874 0.0
H809 H 0.92102 0.17202 0.66297 0.0
C810 C 0.89991 0.77755 0.36219 0.0
C811 C 0.91531 0.78422 0.46212 0.0
C812 C 0.87972 0.78698 0.56192 0.0
C813 C 0.86739 0.78601 0.45787 0.0
N814 N 0.86837 0.7841 0.25491 0.0
N815 N 0.92017 0.79614 0.65834 0.0
C816 C 0.87794 0.78195 0.35687 0.0
C817 C 0.90528 0.7892 0.56246 0.0
N818 N 0.9061 0.76714 0.27176 0.0
N819 N 0.86654 0.78464 0.66019 0.0
H820 H 0.93821 0.79635 0.66376 0.0
H821 H 0.91536 0.80315 0.73008 0.0
H822 H 0.84713 0.78144 0.66282 0.0
H823 H 0.87357 0.78284 0.73822 0.0
H824 H 0.89359 0.75927 0.20229 0.0
H825 H 0.92229 0.76401 0.26922 0.0
H826 H 0.87769 0.78462 0.17938 0.0
H827 H 0.85284 0.78807 0.24504 0.0
C828 C 0.79342 0.56174 0.98676 0.0
C829 C 0.80696 0.56632 0.88291 0.0
C830 C 0.77189 0.57135 0.79051 0.0
C831 C 0.75879 0.56715 0.8953 0.0
N832 N 0.76274 0.56913 0.09688 0.0
N833 N 0.81291 0.58208 0.69243 0.0
C834 C 0.77144 0.56597 0.99479 0.0
C835 C 0.79734 0.57316 0.78636 0.0
N836 N 0.80013 0.55139 0.0756 0.0
N837 N 0.76005 0.57373 0.6956 0.0
H838 H 0.83203 0.58453 0.68947 0.0
H839 H 0.8081 0.58939 0.62186 0.0
H840 H 0.74246 0.57459 0.69763 0.0
H841 H 0.76707 0.5739 0.61506 0.0
H842 H 0.78915 0.54538 0.14981 0.0
H843 H 0.81473 0.54594 0.07055 0.0
H844 H 0.77301 0.57088 0.17114 0.0
H845 H 0.74706 0.57296 0.10597 0.0
C846 C 0.44074 0.24145 0.79757 0.0
C847 C 0.4516 0.2595 0.889 0.0
C848 C 0.45411 0.22529 0.99994 0.0
C849 C 0.44719 0.20873 0.90366 0.0
N850 N 0.43476 0.20098 0.70837 0.0
N851 N 0.47414 0.27075 0.06776 0.0
C852 C 0.4407 0.21679 0.80152 0.0
C853 C 0.45965 0.25198 0.98804 0.0
N854 N 0.43001 0.24767 0.7085 0.0
N855 N 0.45544 0.21566 0.10275 0.0
H856 H 0.48007 0.29094 0.05862 0.0
H857 H 0.48274 0.26688 0.13671 0.0
H858 H 0.45128 0.19609 0.11538 0.0
H859 H 0.45792 0.22621 0.17695 0.0
H860 H 0.41956 0.23433 0.64389 0.0
H861 H 0.42968 0.26555 0.70378 0.0
H862 H 0.43305 0.20716 0.62834 0.0
H863 H 0.43275 0.18198 0.71035 0.0
C864 C 0.7721 0.21408 0.01296 0.0
C865 C 0.75931 0.20133 0.91116 0.0
C866 C 0.79683 0.23549 0.80235 0.0
C867 C 0.80901 0.2489 0.90387 0.0
N868 N 0.81196 0.24795 0.10617 0.0
N869 N 0.76156 0.1955 0.7124 0.0
C870 C 0.79799 0.23706 1.00929 0.0
C871 C 0.77237 0.2107 0.80662 0.0
N872 N 0.75877 0.20541 0.1127 0.0
N873 N 0.80861 0.24677 0.70223 0.0
H874 H 0.74391 0.17699 0.71404 0.0
H875 H 0.7709 0.19997 0.63451 0.0
H876 H 0.82762 0.26369 0.69708 0.0
H877 H 0.79945 0.23995 0.62463 0.0
H878 H 0.76538 0.21607 0.18749 0.0
H879 H 0.74003 0.18832 0.12045 0.0
H880 H 0.80651 0.23831 0.18347 0.0
H881 H 0.83015 0.26579 0.10954 0.0
C882 C 0.87821 0.4561 0.70037 0.0
C883 C 0.88975 0.47508 0.78777 0.0
C884 C 0.90202 0.44554 0.88638 0.0
C885 C 0.88743 0.42537 0.80544 0.0
N886 N 0.85619 0.40936 0.65056 0.0
N887 N 0.91149 0.48806 0.96779 0.0
C888 C 0.874 0.43003 0.71652 0.0
C889 C 0.90145 0.46991 0.88199 0.0
N890 N 0.8715 0.46303 0.60127 0.0
N891 N 0.91612 0.44124 0.96749 0.0
H892 H 0.91247 0.5066 0.96438 0.0
H893 H 0.91764 0.48431 0.04427 0.0
H894 H 0.91569 0.42305 0.97592 0.0
H895 H 0.92932 0.45601 0.02228 0.0
H896 H 0.86542 0.45068 0.53077 0.0
H897 H 0.87483 0.48222 0.58571 0.0
H898 H 0.84387 0.41132 0.59224 0.0
H899 H 0.85175 0.38964 0.66119 0.0
C900 C 0.54421 0.44847 0.69077 0.0
C901 C 0.5322 0.43502 0.79261 0.0
C902 C 0.56739 0.47225 0.90019 0.0
C903 C 0.58019 0.48465 0.79832 0.0
N904 N 0.57498 0.4903 0.60099 0.0
N905 N 0.52758 0.43738 0.99247 0.0
C906 C 0.56669 0.47471 0.69498 0.0
C907 C 0.54235 0.44797 0.89718 0.0
N908 N 0.5355 0.43568 0.58997 0.0
N909 N 0.57916 0.48408 0.99936 0.0
H910 H 0.50869 0.42022 0.99164 0.0
H911 H 0.53279 0.4466 0.07067 0.0
H912 H 0.59568 0.5034 1.00247 0.0
H913 H 0.57284 0.47494 0.07725 0.0
H914 H 0.54587 0.44334 0.51515 0.0
H915 H 0.51918 0.41645 0.58129 0.0
H916 H 0.56395 0.48507 0.52689 0.0
H917 H 0.59142 0.50959 0.59945 0.0
C918 C 0.56164 0.10393 0.89401 0.0
C919 C 0.58304 0.1217 0.82389 0.0
C920 C 0.55573 0.13931 0.74637 0.0
C921 C 0.53401 0.12084 0.81354 0.0
N922 N 0.51429 0.08279 0.93743 0.0
N923 N 0.59994 0.1539 0.67294 0.0
C924 C 0.53629 0.1021 0.88248 0.0
C925 C 0.57989 0.13865 0.74682 0.0
N926 N 0.56607 0.0901 0.97605 0.0
N927 N 0.55352 0.15809 0.68476 0.0
H928 H 0.61862 0.15535 0.67474 0.0
H929 H 0.59766 0.16385 0.60488 0.0
H930 H 0.53572 0.15833 0.67674 0.0
H931 H 0.56958 0.17438 0.64618 0.0
H932 H 0.55212 0.07874 0.03722 0.0
H933 H 0.58471 0.09188 0.98885 0.0
H934 H 0.51394 0.06695 0.98059 0.0
H935 H 0.49565 0.08143 0.93271 0.0
C936 C 0.46475 0.9075 0.3157 0.0
C937 C 0.47228 0.8986 0.2181 0.0
C938 C 0.43489 0.89724 0.11587 0.0
C939 C 0.42432 0.90017 0.21809 0.0
N940 N 0.42928 0.90897 0.41725 0.0
N941 N 0.4647 0.8856 0.02281 0.0
C942 C 0.43948 0.90606 0.3183 0.0
C943 C 0.45741 0.89371 0.1173 0.0
N944 N 0.4815 0.91727 0.40609 0.0
N945 N 0.42415 0.89931 0.01712 0.0
H946 H 0.48211 0.88458 0.01786 0.0
H947 H 0.45278 0.87859 0.95134 0.0
H948 H 0.40867 0.90363 0.01476 0.0
H949 H 0.43254 0.9 0.93904 0.0
H950 H 0.4785 0.92714 0.47272 0.0
H951 H 0.49955 0.91757 0.41212 0.0
H952 H 0.43764 0.90956 0.49523 0.0
H953 H 0.41141 0.90912 0.4231 0.0
C954 C 0.12086 0.58094 0.3181 0.0
C955 C 0.11515 0.58968 0.21622 0.0
C956 C 0.10718 0.54846 0.12323 0.0
C957 C 0.11171 0.53939 0.22683 0.0
N958 N 0.11475 0.54317 0.42825 0.0
N959 N 0.09712 0.57962 0.02891 0.0
C960 C 0.11577 0.55435 0.32621 0.0
C961 C 0.10656 0.57278 0.12056 0.0
N962 N 0.13285 0.59853 0.4046 0.0
N963 N 0.10377 0.534 0.02768 0.0
H964 H 0.09573 0.59694 0.02632 0.0
H965 H 0.08845 0.56709 0.96006 0.0
H966 H 0.10259 0.51536 0.02823 0.0
H967 H 0.10344 0.54104 0.94768 0.0
H968 H 0.13971 0.59379 0.47689 0.0
H969 H 0.1386 0.61873 0.39896 0.0
H970 H 0.1151 0.5524 0.50386 0.0
H971 H 0.11081 0.52355 0.43719 0.0
C972 C 0.46178 0.57485 0.0984 0.0
C973 C 0.47462 0.58607 0.20156 0.0
C974 C 0.44038 0.54649 0.30129 0.0
C975 C 0.42527 0.53795 0.20063 0.0
N976 N 0.42104 0.54327 1.00249 0.0
N977 N 0.47778 0.58212 0.40188 0.0
C978 C 0.43588 0.55184 0.09863 0.0
C979 C 0.46467 0.57152 0.30315 0.0
N980 N 0.47509 0.58552 1.0004 0.0
N981 N 0.43132 0.53077 0.39511 0.0
H982 H 0.49611 0.5998 0.40674 0.0
H983 H 0.4701 0.57419 0.48044 0.0
H984 H 0.41298 0.51303 0.39868 0.0
H985 H 0.44259 0.53419 0.4676 0.0
H986 H 0.46793 0.57689 0.92209 0.0
H987 H 0.49477 0.60142 0.99915 0.0
H988 H 0.42637 0.55433 0.92852 0.0
H989 H 0.40257 0.52562 0.99824 0.0
C990 C 0.56708 0.77696 0.22 0.0
C991 C 0.5665 0.7654 0.1147 0.0
C992 C 0.56915 0.80401 0.01794 0.0
C993 C 0.56546 0.81344 0.12278 0.0
N994 N 0.56413 0.81153 0.32444 0.0
N995 N 0.57745 0.77233 0.91783 0.0
C996 C 0.56569 0.80083 0.22438 0.0
C997 C 0.57092 0.78035 0.01478 0.0
N998 N 0.57069 0.76587 0.31468 0.0
N999 N 0.56925 0.81667 0.92086 0.0
H1000 H 0.57892 0.75513 0.91192 0.0
H1001 H 0.58378 0.7838 0.84512 0.0
H1002 H 0.5688 0.83447 0.91902 0.0
H1003 H 0.56825 0.80889 0.84113 0.0
H1004 H 0.57347 0.77422 0.39431 0.0
H1005 H 0.57357 0.74942 0.31145 0.0
H1006 H 0.56108 0.80192 0.40129 0.0
H1007 H 0.56531 0.83014 0.33018 0.0
C1008 C 0.23331 0.80283 0.22141 0.0
C1009 C 0.24579 0.81482 0.11849 0.0
C1010 C 0.20961 0.77819 0.01379 0.0
C1011 C 0.19791 0.76513 0.11675 0.0
N1012 N 0.19389 0.76817 0.31665 0.0
N1013 N 0.24034 0.81956 0.92069 0.0
C1014 C 0.20834 0.77846 0.22038 0.0
C1015 C 0.23213 0.80441 0.01592 0.0
N1016 N 0.24532 0.8151 0.31964 0.0
N1017 N 0.2005 0.76505 0.9139 0.0
H1018 H 0.25683 0.83883 0.91793 0.0
H1019 H 0.22926 0.81406 0.84673 0.0
H1020 H 0.18403 0.74589 0.90659 0.0
H1021 H 0.21063 0.77235 0.83835 0.0
H1022 H 0.23915 0.80631 0.39821 0.0
H1023 H 0.26192 0.83439 0.32153 0.0
H1024 H 0.19928 0.77766 0.39424 0.0
H1025 H 0.17505 0.75094 0.31736 0.0
C1026 C 0.23077 0.44182 0.04559 0.0
C1027 C 0.24636 0.44824 0.14457 0.0
C1028 C 0.21215 0.45218 0.24931 0.0
C1029 C 0.19656 0.446 0.14984 0.0
N1030 N 0.18741 0.42667 0.9631 0.0
N1031 N 0.24956 0.45295 0.34533 0.0
C1032 C 0.20456 0.43794 0.05139 0.0
C1033 C 0.23628 0.45136 0.24812 0.0
N1034 N 0.24159 0.44116 0.94443 0.0
N1035 N 0.20399 0.45913 0.34459 0.0
H1036 H 0.26719 0.45217 0.34686 0.0
H1037 H 0.24205 0.45268 0.42493 0.0
H1038 H 0.18538 0.45768 0.351 0.0
H1039 H 0.21589 0.46722 0.41546 0.0
H1040 H 0.23246 0.44011 0.86784 0.0
H1041 H 0.26077 0.44399 0.93576 0.0
H1042 H 0.19137 0.41778 0.89538 0.0
H1043 H 0.1682 0.42379 0.96081 0.0
C1044 C 0.00438 0.17582 0.07887 0.0
C1045 C 0.00415 0.19751 0.13556 0.0
C1046 C -0.00357 0.21273 0.95744 0.0
C1047 C 0.00191 0.19497 0.89738 0.0
N1048 N 0.01443 0.16091 0.90355 0.0
N1049 N 0.01208 0.24262 0.11388 0.0
C1050 C 0.0068 0.17669 0.95857 0.0
C1051 C 0.00398 0.21787 0.07007 0.0
N1052 N 0.00146 0.15427 0.13757 0.0
N1053 N 0.98444 0.2251 0.90641 0.0
H1054 H 0.02108 0.24822 0.19262 0.0
H1055 H 0.01324 0.25827 0.06581 0.0
H1056 H 0.97688 0.22011 0.825 0.0
H1057 H 0.9793 0.23755 0.95 0.0
H1058 H -0.00084 0.13707 0.09866 0.0
H1059 H -0.00078 0.15276 0.22436 0.0
H1060 H 0.02071 0.14917 0.9452 0.0
H1061 H 0.01609 0.16102 0.81648 0.0
C1062 C 0.83878 0.82814 0.05718 0.0
C1063 C 0.81761 0.82724 0.12044 0.0
C1064 C 0.79448 0.82706 0.94912 0.0
C1065 C 0.81383 0.82441 0.88454 0.0
N1066 N 0.85532 0.82422 0.87415 0.0
N1067 N 0.78118 0.83561 0.13092 0.0
C1068 C 0.83671 0.82622 0.93754 0.0
C1069 C 0.79742 0.83 0.06718 0.0
N1070 N 0.86066 0.83078 0.1123 0.0
N1071 N 0.77239 0.82512 0.89839 0.0
H1072 H 0.78349 0.83813 0.21769 0.0
H1073 H 0.76742 0.84037 0.09815 0.0
H1074 H 0.76972 0.82399 0.81204 0.0
H1075 H 0.75592 0.82326 0.94163 0.0
H1076 H 0.87759 0.83271 0.07324 0.0
H1077 H 0.86262 0.83301 0.19916 0.0
H1078 H 0.87132 0.82298 0.90674 0.0
H1079 H 0.85442 0.82306 0.78691 0.0
C1080 C 0.1851 0.98128 0.07375 0.0
C1081 C 0.18579 0.0035 0.12705 0.0
C1082 C 0.18582 0.0231 0.94427 0.0
C1083 C 0.18744 0.00196 0.89074 0.0
N1084 N 0.1823 0.95776 0.90195 0.0
N1085 N 0.17836 0.04081 0.1173 0.0
C1086 C 0.18481 0.97992 0.95493 0.0
C1087 C 0.18314 0.02276 0.06342 0.0
N1088 N 0.18614 0.96217 0.13781 0.0
N1089 N 0.18876 0.04433 0.88245 0.0
H1090 H 0.17605 0.04061 0.20408 0.0
H1091 H 0.17422 0.05421 0.07618 0.0
H1092 H 0.19049 0.04508 0.79535 0.0
H1093 H 0.19099 0.06186 0.91741 0.0
H1094 H 0.18951 0.94732 0.1063 0.0
H1095 H 0.18444 0.96178 0.22496 0.0
H1096 H 0.17719 0.93985 0.94228 0.0
H1097 H 0.18353 0.95647 0.81548 0.0
C1098 C 0.02594 0.8472 0.94412 0.0
C1099 C 0.00326 0.82783 0.88385 0.0
C1100 C 0.978 0.81504 0.05878 0.0
C1101 C 0.00209 0.8287 0.12084 0.0
N1102 N 0.04978 0.85884 0.12145 0.0
N1103 N 0.95772 0.7913 0.88715 0.0
C1104 C 0.02632 0.84561 0.06354 0.0
C1105 C 0.97908 0.81146 0.94174 0.0
N1106 N 0.04696 0.86703 0.88698 0.0
N1107 N 0.95413 0.80539 0.11257 0.0
H1108 H 0.95834 0.78724 0.80245 0.0
H1109 H 0.94043 0.77723 0.92838 0.0
H1110 H 0.9532 0.80903 0.19776 0.0
H1111 H 0.9359 0.7969 0.07037 0.0
H1112 H 0.06323 0.883 0.92644 0.0
H1113 H 0.04653 0.86883 0.79999 0.0
H1114 H 0.06838 0.86897 0.0824 0.0
H1115 H 0.0507 0.85846 0.20862 0.0
C1116 C 0.18351 0.2162 0.06597 0.0
C1117 C 0.18431 0.19494 0.12107 0.0
C1118 C 0.18557 0.1754 0.93983 0.0
C1119 C 0.18698 0.19786 0.88485 0.0
N1120 N 0.17856 0.23477 0.89192 0.0
N1121 N 0.17563 0.14968 0.11219 0.0
C1122 C 0.18299 0.21664 0.94701 0.0
C1123 C 0.18175 0.17289 0.05838 0.0
N1124 N 0.18432 0.23653 0.12807 0.0
N1125 N 0.18955 0.15747 0.88036 0.0
H1126 H 0.1719 0.14726 0.19815 0.0
H1127 H 0.17149 0.13214 0.07059 0.0
H1128 H 0.19217 0.15862 0.79362 0.0
H1129 H 0.19188 0.14247 0.9177 0.0
H1130 H 0.18756 0.25453 0.09412 0.0
H1131 H 0.18264 0.23564 0.21536 0.0
H1132 H 0.17297 0.24728 0.93158 0.0
H1133 H 0.17806 0.23562 0.80495 0.0
C1134 C 0.82305 0.03345 0.07605 0.0
C1135 C 0.81658 0.01019 0.14008 0.0
C1136 C 0.81683 0.98717 0.96743 0.0
C1137 C 0.81708 0.00801 0.90367 0.0
N1138 N 0.82233 0.052 0.89442 0.0
N1139 N 0.8075 0.96464 0.14762 0.0
C1140 C 0.82122 0.03166 0.95727 0.0
C1141 C 0.81411 0.98711 0.08638 0.0
N1142 N 0.83111 0.05728 0.12932 0.0
N1143 N 0.8191 0.9675 0.91401 0.0
H1144 H 0.8056 0.96399 0.23466 0.0
H1145 H 0.80234 0.94621 0.1117 0.0
H1146 H 0.8218 0.9677 0.82748 0.0
H1147 H 0.82108 0.95278 0.9559 0.0
H1148 H 0.83849 0.07548 0.08764 0.0
H1149 H 0.83278 0.05926 0.21623 0.0
H1150 H 0.82168 0.06828 0.92843 0.0
H1151 H 0.82284 0.05198 0.8069 0.0
C1152 C 0.69229 0.5265 0.29206 0.0
C1153 C 0.66864 0.52043 0.23313 0.0
C1154 C 0.64411 0.50703 0.41034 0.0
C1155 C 0.66863 0.5201 0.46958 0.0
N1156 N 0.71643 0.54009 0.46858 0.0
N1157 N 0.62116 0.50244 0.23463 0.0
C1158 C 0.69288 0.52873 0.41114 0.0
C1159 C 0.64413 0.50943 0.2917 0.0
N1160 N 0.71386 0.5295 0.23369 0.0
N1161 N 0.62094 0.49204 0.46816 0.0
H1162 H 0.62077 0.50296 0.14749 0.0
H1163 H 0.60307 0.49723 0.27355 0.0
H1164 H 0.6209 0.4894 0.5548 0.0
H1165 H 0.60256 0.48004 0.42935 0.0
H1166 H 0.73105 0.53175 0.27196 0.0
H1167 H 0.71309 0.52668 0.14696 0.0
H1168 H 0.73506 0.54966 0.42966 0.0
H1169 H 0.71709 0.54065 0.55591 0.0
C1170 C 0.49279 0.13883 0.41673 0.0
C1171 C 0.48716 0.15637 0.47941 0.0
C1172 C 0.48896 0.17992 0.30575 0.0
C1173 C 0.48802 0.15857 0.24308 0.0
N1174 N 0.49131 0.1187 0.23617 0.0
N1175 N 0.48051 0.19434 0.48493 0.0
C1176 C 0.49106 0.13854 0.29791 0.0
C1177 C 0.48601 0.17756 0.42466 0.0
N1178 N 0.49995 0.12259 0.47135 0.0
N1179 N 0.49268 0.20231 0.25149 0.0
H1180 H 0.47863 0.19335 0.57203 0.0
H1181 H 0.47631 0.20817 0.44818 0.0
H1182 H 0.49572 0.20465 0.16509 0.0
H1183 H 0.49556 0.21946 0.2928 0.0
H1184 H 0.50656 0.11102 0.43073 0.0
H1185 H 0.5018 0.12274 0.55826 0.0
H1186 H 0.48989 0.10151 0.27111 0.0
H1187 H 0.49191 0.11903 0.14864 0.0
C1188 C 0.86653 0.3639 0.28938 0.0
C1189 C 0.84878 0.33946 0.236 0.0
C1190 C 0.83309 0.3173 0.41847 0.0
C1191 C 0.85244 0.34125 0.47221 0.0
N1192 N 0.88255 0.38911 0.462 0.0
N1193 N 0.81009 0.2956 0.245 0.0
C1194 C 0.86736 0.36518 0.40841 0.0
C1195 C 0.8302 0.31709 0.29951 0.0
N1196 N 0.88371 0.38542 0.2256 0.0
N1197 N 0.81888 0.29442 0.4797 0.0
H1198 H 0.80778 0.2954 0.1581 0.0
H1199 H 0.79454 0.27923 0.28549 0.0
H1200 H 0.82021 0.29395 0.56666 0.0
H1201 H 0.80675 0.27561 0.4444 0.0
H1202 H 0.89976 0.40281 0.25794 0.0
H1203 H 0.88241 0.38542 0.13828 0.0
H1204 H 0.89145 0.40759 0.42177 0.0
H1205 H 0.88477 0.39079 0.54872 0.0
C1206 C 0.64387 0.14018 0.30639 0.0
C1207 C 0.66772 0.15947 0.25368 0.0
C1208 C 0.68937 0.17541 0.43683 0.0
C1209 C 0.66608 0.15481 0.48967 0.0
N1210 N 0.61872 0.123 0.47841 0.0
N1211 N 0.70938 0.20072 0.26603 0.0
C1212 C 0.64248 0.13904 0.42539 0.0
C1213 C 0.68918 0.17898 0.31848 0.0
N1214 N 0.62304 0.12205 0.24198 0.0
N1215 N 0.71213 0.19027 0.49792 0.0
H1216 H 0.70906 0.20366 0.17982 0.0
H1217 H 0.72479 0.21686 0.30842 0.0
H1218 H 0.71302 0.18826 0.58439 0.0
H1219 H 0.73057 0.20345 0.4622 0.0
H1220 H 0.6064 0.10512 0.27394 0.0
H1221 H 0.62298 0.12353 0.15472 0.0
H1222 H 0.60039 0.11318 0.43727 0.0
H1223 H 0.61694 0.12119 0.56528 0.0
C1224 C 0.85237 0.55115 0.27613 0.0
C1225 C 0.85292 0.5306 0.21125 0.0
C1226 C 0.84526 0.50409 0.383 0.0
C1227 C 0.84918 0.52641 0.4472 0.0
N1228 N 0.84638 0.56625 0.45876 0.0
N1229 N 0.84963 0.48729 0.20188 0.0
C1230 C 0.8494 0.54834 0.39432 0.0
C1231 C 0.84854 0.50663 0.26401 0.0
N1232 N 0.85617 0.57405 0.22547 0.0
N1233 N 0.8379 0.48045 0.43594 0.0
H1234 H 0.85204 0.48846 0.11508 0.0
H1235 H 0.84974 0.47081 0.23647 0.0
H1236 H 0.8341 0.47807 0.52183 0.0
H1237 H 0.83278 0.46265 0.39443 0.0
H1238 H 0.85961 0.59117 0.26849 0.0
H1239 H 0.85701 0.57659 0.13906 0.0
H1240 H 0.84394 0.58167 0.4271 0.0
H1241 H 0.84375 0.56395 0.54543 0.0
C1242 C 0.46608 0.31921 0.28288 0.0
C1243 C 0.48351 0.34254 0.21994 0.0
C1244 C 0.50804 0.36427 0.39263 0.0
C1245 C 0.48754 0.3432 0.45588 0.0
N1246 N 0.44902 0.29919 0.46539 0.0
N1247 N 0.52165 0.38717 0.21297 0.0
C1248 C 0.4675 0.31997 0.40174 0.0
C1249 C 0.50511 0.36485 0.27391 0.0
N1250 N 0.44807 0.29632 0.22867 0.0
N1251 N 0.53007 0.38372 0.44662 0.0
H1252 H 0.5202 0.38809 0.12612 0.0
H1253 H 0.53585 0.40525 0.24856 0.0
H1254 H 0.53261 0.38327 0.53301 0.0
H1255 H 0.54677 0.39872 0.40564 0.0
H1256 H 0.4368 0.27783 0.26758 0.0
H1257 H 0.44566 0.29524 0.14225 0.0
H1258 H 0.43157 0.28307 0.43399 0.0
H1259 H 0.45091 0.29859 0.55222 0.0
C1260 C 0.3103 0.83981 0.60948 0.0
C1261 C 0.33491 0.85183 0.55117 0.0
C1262 C 0.35922 0.86181 0.72967 0.0
C1263 C 0.33479 0.85242 0.78777 0.0
N1264 N 0.28734 0.82274 0.7868 0.0
N1265 N 0.38107 0.86397 0.55269 0.0
C1266 C 0.31035 0.83818 0.72854 0.0
C1267 C 0.35888 0.85946 0.61067 0.0
N1268 N 0.2871 0.83112 0.55155 0.0
N1269 N 0.38267 0.87393 0.78762 0.0
H1270 H 0.38065 0.86133 0.46591 0.0
H1271 H 0.39871 0.86748 0.59103 0.0
H1272 H 0.38306 0.87423 0.87483 0.0
H1273 H 0.40138 0.88413 0.74961 0.0
H1274 H 0.26875 0.82516 0.58958 0.0
H1275 H 0.28669 0.83081 0.46433 0.0
H1276 H 0.26909 0.80997 0.74857 0.0
H1277 H 0.28739 0.82062 0.87373 0.0
C1278 C 0.16552 0.47742 0.74286 0.0
C1279 C 0.1573 0.49293 0.80542 0.0
C1280 C 0.15448 0.51333 0.62952 0.0
C1281 C 0.15562 0.49281 0.56855 0.0
N1282 N 0.15988 0.45334 0.57008 0.0
N1283 N 0.14431 0.52663 0.80763 0.0
C1284 C 0.16097 0.47454 0.62568 0.0
C1285 C 0.15241 0.51166 0.74892 0.0
N1286 N 0.17746 0.46531 0.79632 0.0
N1287 N 0.15524 0.53422 0.57298 0.0
H1288 H 0.14306 0.52623 0.89481 0.0
H1289 H 0.1375 0.5383 0.76938 0.0
H1290 H 0.15749 0.53598 0.486 0.0
H1291 H 0.15645 0.55087 0.61274 0.0
H1292 H 0.18559 0.45527 0.75387 0.0
H1293 H 0.18194 0.46824 0.88176 0.0
H1294 H 0.1611 0.438 0.6106 0.0
H1295 H 0.1553 0.44988 0.48505 0.0
C1296 C 0.52711 0.70087 0.71478 0.0
C1297 C 0.5169 0.67655 0.77519 0.0
C1298 C 0.4993 0.65185 0.59943 0.0
C1299 C 0.51558 0.67568 0.53862 0.0
N1300 N 0.54282 0.72362 0.53637 0.0
N1301 N 0.49045 0.6285 0.77721 0.0
C1302 C 0.52845 0.70053 0.59565 0.0
C1303 C 0.50165 0.65186 0.71835 0.0
N1304 N 0.53495 0.72411 0.77203 0.0
N1305 N 0.48129 0.62947 0.54282 0.0
H1306 H 0.49067 0.62825 0.86444 0.0
H1307 H 0.48183 0.60967 0.73976 0.0
H1308 H 0.47876 0.62969 0.45619 0.0
H1309 H 0.46716 0.61194 0.58227 0.0
H1310 H 0.54066 0.74235 0.73319 0.0
H1311 H 0.53278 0.72428 0.85889 0.0
H1312 H 0.55538 0.74214 0.57329 0.0
H1313 H 0.5426 0.72379 0.44912 0.0
C1314 C 0.33178 0.50906 0.73087 0.0
C1315 C 0.34069 0.49458 0.79673 0.0
C1316 C 0.34368 0.47249 0.63 0.0
C1317 C 0.3386 0.48924 0.5589 0.0
N1318 N 0.33325 0.52832 0.54803 0.0
N1319 N 0.36544 0.47132 0.79978 0.0
C1320 C 0.33421 0.50909 0.61075 0.0
C1321 C 0.35077 0.47989 0.74216 0.0
N1322 N 0.32049 0.52209 0.78197 0.0
N1323 N 0.3394 0.44818 0.59425 0.0
H1324 H 0.37128 0.477 0.88286 0.0
H1325 H 0.37392 0.46116 0.76078 0.0
H1326 H 0.32963 0.43961 0.51916 0.0
H1327 H 0.34167 0.43501 0.64687 0.0
H1328 H 0.31114 0.53067 0.73765 0.0
H1329 H 0.31932 0.52291 0.8691 0.0
H1330 H 0.33222 0.54426 0.58375 0.0
H1331 H 0.33611 0.52992 0.46165 0.0
C1332 C 0.51901 0.83464 0.73464 0.0
C1333 C 0.51546 0.85399 0.7938 0.0
C1334 C 0.50296 0.86636 0.61787 0.0
C1335 C 0.51346 0.85264 0.55685 0.0
N1336 N 0.5303 0.82203 0.55738 0.0
N1337 N 0.50591 0.8901 0.78892 0.0
C1338 C 0.52063 0.83576 0.61505 0.0
C1339 C 0.50743 0.87005 0.73501 0.0
N1340 N 0.52088 0.81535 0.7931 0.0
N1341 N 0.48888 0.87598 0.56288 0.0
H1342 H 0.51033 0.89419 0.87379 0.0
H1343 H 0.50264 0.90405 0.74719 0.0
H1344 H 0.48453 0.87237 0.47749 0.0
H1345 H 0.47906 0.88451 0.60409 0.0
H1346 H 0.52139 0.79938 0.75496 0.0
H1347 H 0.51921 0.81402 0.88034 0.0
H1348 H 0.53887 0.81198 0.59611 0.0
H1349 H 0.53073 0.82168 0.47014 0.0
C1350 C 0.17096 0.69442 0.60028 0.0
C1351 C 0.14862 0.67261 0.54703 0.0
C1352 C 0.13286 0.65024 0.72951 0.0
C1353 C 0.15256 0.67364 0.78293 0.0
N1354 N 0.19534 0.71376 0.77416 0.0
N1355 N 0.1085 0.62906 0.56026 0.0
C1356 C 0.17335 0.69438 0.71963 0.0
C1357 C 0.12995 0.65004 0.61138 0.0
N1358 N 0.1886 0.71595 0.53782 0.0
N1359 N 0.11718 0.62813 0.79324 0.0
H1360 H 0.10609 0.6273 0.47384 0.0
H1361 H 0.09233 0.61385 0.60302 0.0
H1362 H 0.11962 0.6281 0.87992 0.0
H1363 H 0.1038 0.60934 0.76075 0.0
H1364 H 0.20367 0.73378 0.57174 0.0
H1365 H 0.18748 0.71652 0.45072 0.0
H1366 H 0.21224 0.72868 0.73413 0.0
H1367 H 0.19756 0.71342 0.86081 0.0
loop_
_geom_bond_atom_site_label_1
_geom_bond_atom_site_label_2
_geom_bond_distance
_geom_bond_site_symmetry_2
_ccdc_geom_bond_type
Sc0 O3 2.025 1_655 S
Sc0 O10 2.105 1_655 S
Sc0 O13 2.105 . S
Sc0 O16 2.105 . S
Sc0 O19 2.105 1_655 S
Sc1 O3 2.025 . S
Sc1 O11 2.105 . S
Sc1 O15 2.105 . S
Sc1 O17 2.105 1_455 S
Sc1 O21 2.105 . S
Sc2 O3 2.025 . S
Sc2 O12 2.105 . S
Sc2 O14 2.105 . S
Sc2 O18 2.105 . S
Sc2 O20 2.105 . S
O3 Sc0 2.025 1_455 S
O3 Sc1 2.025 . S
O3 Sc2 2.025 . S
C4 O10 1.268 . S
C4 O20 1.268 . S
C5 O11 1.268 . S
C5 O19 1.268 . S
C6 O12 1.268 . S
C6 O21 1.268 . S
C7 O13 1.268 . S
C7 O17 1.268 . S
C8 O14 1.268 1_655 S
C8 O16 1.268 . S
C9 O15 1.268 . S
C9 O18 1.268 . S
O10 Sc0 2.105 1_455 S
O10 C4 1.268 . S
O11 Sc1 2.105 . S
O11 C5 1.268 . S
O12 Sc2 2.105 . S
O12 C6 1.268 . S
O13 Sc0 2.105 . S
O13 C7 1.268 . S
O14 Sc2 2.105 . S
O14 C8 1.268 1_455 S
O15 Sc1 2.105 . S
O15 C9 1.268 . S
O16 Sc0 2.105 . S
O16 C8 1.268 . S
O17 Sc1 2.105 1_655 S
O17 C7 1.268 . S
O18 Sc2 2.105 . S
O18 C9 1.268 . S
O19 Sc0 2.105 1_455 S
O19 C5 1.268 . S
O20 Sc2 2.105 . S
O20 C4 1.268 . S
O21 Sc1 2.105 . S
O21 C6 1.268 . S
Sc22 O25 2.025 . S
Sc22 O32 2.105 . S
Sc22 O35 2.105 . S
Sc22 O38 2.105 . S
Sc22 O41 2.105 . S
Sc23 O25 2.025 . S
Sc23 O33 2.105 . S
Sc23 O37 2.105 . S
Sc23 O39 2.105 . S
Sc23 O43 2.105 . S
Sc24 O25 2.025 . S
Sc24 O34 2.105 . S
Sc24 O36 2.105 . S
Sc24 O40 2.105 . S
Sc24 O42 2.105 . S
O25 Sc22 2.025 . S
O25 Sc23 2.025 . S
O25 Sc24 2.025 . S
C26 O32 1.268 . S
C26 O42 1.268 . S
C27 O33 1.268 . S
C27 O41 1.268 . S
C28 O34 1.268 . S
C28 O43 1.268 . S
C29 O35 1.268 . S
C29 O39 1.268 . S
C30 O36 1.268 . S
C30 O38 1.268 . S
C31 O37 1.268 . S
C31 O40 1.268 . S
O32 Sc22 2.105 . S
O32 C26 1.268 . S
O33 Sc23 2.105 . S
O33 C27 1.268 . S
O34 Sc24 2.105 . S
O34 C28 1.268 . S
O35 Sc22 2.105 . S
O35 C29 1.268 . S
O36 Sc24 2.105 . S
O36 C30 1.268 . S
O37 Sc23 2.105 . S
O37 C31 1.268 . S
O38 Sc22 2.105 . S
O38 C30 1.268 . S
O39 Sc23 2.105 . S
O39 C29 1.268 . S
O40 Sc24 2.105 . S
O40 C31 1.268 . S
O41 Sc22 2.105 . S
O41 C27 1.268 . S
O42 Sc24 2.105 . S
O42 C26 1.268 . S
O43 Sc23 2.105 . S
O43 C28 1.268 . S
Sc44 O47 2.025 . S
Sc44 O54 2.105 . S
Sc44 O57 2.105 . S
Sc44 O60 2.105 . S
Sc44 O63 2.105 . S
Sc45 O47 2.025 . S
Sc45 O55 2.105 . S
Sc45 O59 2.105 . S
Sc45 O61 2.105 . S
Sc45 O65 2.105 1_545 S
Sc46 O47 2.025 1_565 S
Sc46 O56 2.105 . S
Sc46 O58 2.105 1_565 S
Sc46 O62 2.105 1_565 S
Sc46 O64 2.105 . S
O47 Sc44 2.025 . S
O47 Sc45 2.025 . S
O47 Sc46 2.025 1_545 S
C48 O54 1.268 1_565 S
C48 O64 1.268 . S
C49 O55 1.268 . S
C49 O63 1.268 . S
C50 O56 1.268 . S
C50 O65 1.268 . S
C51 O57 1.268 . S
C51 O61 1.268 . S
C52 O58 1.268 . S
C52 O60 1.268 . S
C53 O59 1.268 . S
C53 O62 1.268 . S
O54 Sc44 2.105 . S
O54 C48 1.268 1_545 S
O55 Sc45 2.105 . S
O55 C49 1.268 . S
O56 Sc46 2.105 . S
O56 C50 1.268 . S
O57 Sc44 2.105 . S
O57 C51 1.268 . S
O58 Sc46 2.105 1_545 S
O58 C52 1.268 . S
O59 Sc45 2.105 . S
O59 C53 1.268 . S
O60 Sc44 2.105 . S
O60 C52 1.268 . S
O61 Sc45 2.105 . S
O61 C51 1.268 . S
O62 Sc46 2.105 1_545 S
O62 C53 1.268 . S
O63 Sc44 2.105 . S
O63 C49 1.268 . S
O64 Sc46 2.105 . S
O64 C48 1.268 . S
O65 Sc45 2.105 1_565 S
O65 C50 1.268 . S
Sc66 O69 2.025 . S
Sc66 O76 2.105 . S
Sc66 O79 2.105 . S
Sc66 O82 2.105 . S
Sc66 O85 2.105 . S
Sc67 O69 2.025 . S
Sc67 O77 2.105 . S
Sc67 O81 2.105 1_455 S
Sc67 O83 2.105 . S
Sc67 O87 2.105 . S
Sc68 O69 2.025 1_655 S
Sc68 O78 2.105 1_655 S
Sc68 O80 2.105 . S
Sc68 O84 2.105 . S
Sc68 O86 2.105 1_655 S
O69 Sc66 2.025 . S
O69 Sc67 2.025 . S
O69 Sc68 2.025 1_455 S
C70 O76 1.268 . S
C70 O86 1.268 . S
C71 O77 1.268 . S
C71 O85 1.268 . S
C72 O78 1.268 . S
C72 O87 1.268 . S
C73 O79 1.268 . S
C73 O83 1.268 . S
C74 O80 1.268 . S
C74 O82 1.268 1_655 S
C75 O81 1.268 . S
C75 O84 1.268 . S
O76 Sc66 2.105 . S
O76 C70 1.268 . S
O77 Sc67 2.105 . S
O77 C71 1.268 . S
O78 Sc68 2.105 1_455 S
O78 C72 1.268 . S
O79 Sc66 2.105 . S
O79 C73 1.268 . S
O80 Sc68 2.105 . S
O80 C74 1.268 . S
O81 Sc67 2.105 1_655 S
O81 C75 1.268 . S
O82 Sc66 2.105 . S
O82 C74 1.268 1_455 S
O83 Sc67 2.105 . S
O83 C73 1.268 . S
O84 Sc68 2.105 . S
O84 C75 1.268 . S
O85 Sc66 2.105 . S
O85 C71 1.268 . S
O86 Sc68 2.105 1_455 S
O86 C70 1.268 . S
O87 Sc67 2.105 . S
O87 C72 1.268 . S
Sc88 O91 2.025 . S
Sc88 O98 2.105 . S
Sc88 O101 2.105 . S
Sc88 O104 2.105 . S
Sc88 O107 2.105 . S
Sc89 O91 2.025 . S
Sc89 O99 2.105 . S
Sc89 O103 2.105 . S
Sc89 O105 2.105 . S
Sc89 O109 2.105 . S
Sc90 O91 2.025 . S
Sc90 O100 2.105 . S
Sc90 O102 2.105 . S
Sc90 O106 2.105 . S
Sc90 O108 2.105 . S
O91 Sc88 2.025 . S
O91 Sc89 2.025 . S
O91 Sc90 2.025 . S
C92 O98 1.268 . S
C92 O108 1.268 . S
C93 O99 1.268 . S
C93 O107 1.268 . S
C94 O100 1.268 . S
C94 O109 1.268 . S
C95 O101 1.268 . S
C95 O105 1.268 . S
C96 O102 1.268 . S
C96 O104 1.268 . S
C97 O103 1.268 . S
C97 O106 1.268 . S
O98 Sc88 2.105 . S
O98 C92 1.268 . S
O99 Sc89 2.105 . S
O99 C93 1.268 . S
O100 Sc90 2.105 . S
O100 C94 1.268 . S
O101 Sc88 2.105 . S
O101 C95 1.268 . S
O102 Sc90 2.105 . S
O102 C96 1.268 . S
O103 Sc89 2.105 . S
O103 C97 1.268 . S
O104 Sc88 2.105 . S
O104 C96 1.268 . S
O105 Sc89 2.105 . S
O105 C95 1.268 . S
O106 Sc90 2.105 . S
O106 C97 1.268 . S
O107 Sc88 2.105 . S
O107 C93 1.268 . S
O108 Sc90 2.105 . S
O108 C92 1.268 . S
O109 Sc89 2.105 . S
O109 C94 1.268 . S
Sc110 O113 2.025 1_565 S
Sc110 O120 2.105 . S
Sc110 O123 2.105 1_565 S
Sc110 O126 2.105 1_565 S
Sc110 O129 2.105 . S
Sc111 O113 2.025 . S
Sc111 O121 2.105 1_545 S
Sc111 O125 2.105 . S
Sc111 O127 2.105 . S
Sc111 O131 2.105 . S
Sc112 O113 2.025 . S
Sc112 O122 2.105 . S
Sc112 O124 2.105 . S
Sc112 O128 2.105 . S
Sc112 O130 2.105 . S
O113 Sc110 2.025 1_545 S
O113 Sc111 2.025 . S
O113 Sc112 2.025 . S
C114 O120 1.268 . S
C114 O130 1.268 1_565 S
C115 O121 1.268 . S
C115 O129 1.268 . S
C116 O122 1.268 . S
C116 O131 1.268 . S
C117 O123 1.268 . S
C117 O127 1.268 . S
C118 O124 1.268 . S
C118 O126 1.268 . S
C119 O125 1.268 . S
C119 O128 1.268 . S
O120 Sc110 2.105 . S
O120 C114 1.268 . S
O121 Sc111 2.105 1_565 S
O121 C115 1.268 . S
O122 Sc112 2.105 . S
O122 C116 1.268 . S
O123 Sc110 2.105 1_545 S
O123 C117 1.268 . S
O124 Sc112 2.105 . S
O124 C118 1.268 . S
O125 Sc111 2.105 . S
O125 C119 1.268 . S
O126 Sc110 2.105 1_545 S
O126 C118 1.268 . S
O127 Sc111 2.105 . S
O127 C117 1.268 . S
O128 Sc112 2.105 . S
O128 C119 1.268 . S
O129 Sc110 2.105 . S
O129 C115 1.268 . S
O130 Sc112 2.105 . S
O130 C114 1.268 1_545 S
O131 Sc111 2.105 . S
O131 C116 1.268 . S
Sc132 O135 2.025 . S
Sc132 O142 2.105 . S
Sc132 O145 2.105 . S
Sc132 O148 2.105 . S
Sc132 O151 2.105 . S
Sc133 O135 2.025 . S
Sc133 O143 2.105 . S
Sc133 O147 2.105 1_556 S
Sc133 O149 2.105 . S
Sc133 O153 2.105 . S
Sc134 O135 2.025 . S
Sc134 O144 2.105 . S
Sc134 O146 2.105 . S
Sc134 O150 2.105 1_556 S
Sc134 O152 2.105 . S
O135 Sc132 2.025 . S
O135 Sc133 2.025 . S
O135 Sc134 2.025 . S
C136 O142 1.268 . S
C136 O152 1.268 . S
C137 O143 1.268 . S
C137 O151 1.268 . S
C138 O144 1.268 . S
C138 O153 1.268 . S
C139 O145 1.268 . S
C139 O149 1.268 . S
C140 O146 1.268 . S
C140 O148 1.268 . S
C141 O147 1.268 . S
C141 O150 1.268 . S
O142 Sc132 2.105 . S
O142 C136 1.268 . S
O143 Sc133 2.105 . S
O143 C137 1.268 . S
O144 Sc134 2.105 . S
O144 C138 1.268 . S
O145 Sc132 2.105 . S
O145 C139 1.268 . S
O146 Sc134 2.105 . S
O146 C140 1.268 . S
O147 Sc133 2.105 1_554 S
O147 C141 1.268 . S
O148 Sc132 2.105 . S
O148 C140 1.268 . S
O149 Sc133 2.105 . S
O149 C139 1.268 . S
O150 Sc134 2.105 1_554 S
O150 C141 1.268 . S
O151 Sc132 2.105 . S
O151 C137 1.268 . S
O152 Sc134 2.105 . S
O152 C136 1.268 . S
O153 Sc133 2.105 . S
O153 C138 1.268 . S
Sc154 O157 2.025 . S
Sc154 O164 2.105 . S
Sc154 O167 2.105 . S
Sc154 O170 2.105 . S
Sc154 O173 2.105 . S
Sc155 O157 2.025 . S
Sc155 O165 2.105 . S
Sc155 O169 2.105 1_556 S
Sc155 O171 2.105 . S
Sc155 O175 2.105 . S
Sc156 O157 2.025 . S
Sc156 O166 2.105 . S
Sc156 O168 2.105 . S
Sc156 O172 2.105 1_556 S
Sc156 O174 2.105 . S
O157 Sc154 2.025 . S
O157 Sc155 2.025 . S
O157 Sc156 2.025 . S
C158 O164 1.268 . S
C158 O174 1.268 . S
C159 O165 1.268 . S
C159 O173 1.268 . S
C160 O166 1.268 . S
C160 O175 1.268 . S
C161 O167 1.268 . S
C161 O171 1.268 . S
C162 O168 1.268 . S
C162 O170 1.268 . S
C163 O169 1.268 . S
C163 O172 1.268 . S
O164 Sc154 2.105 . S
O164 C158 1.268 . S
O165 Sc155 2.105 . S
O165 C159 1.268 . S
O166 Sc156 2.105 . S
O166 C160 1.268 . S
O167 Sc154 2.105 . S
O167 C161 1.268 . S
O168 Sc156 2.105 . S
O168 C162 1.268 . S
O169 Sc155 2.105 1_554 S
O169 C163 1.268 . S
O170 Sc154 2.105 . S
O170 C162 1.268 . S
O171 Sc155 2.105 . S
O171 C161 1.268 . S
O172 Sc156 2.105 1_554 S
O172 C163 1.268 . S
O173 Sc154 2.105 . S
O173 C159 1.268 . S
O174 Sc156 2.105 . S
O174 C158 1.268 . S
O175 Sc155 2.105 . S
O175 C160 1.268 . S
Sc176 O179 2.025 . S
Sc176 O186 2.105 . S
Sc176 O189 2.105 . S
Sc176 O192 2.105 . S
Sc176 O195 2.105 . S
Sc177 O179 2.025 . S
Sc177 O187 2.105 . S
Sc177 O191 2.105 1_556 S
Sc177 O193 2.105 . S
Sc177 O197 2.105 . S
Sc178 O179 2.025 . S
Sc178 O188 2.105 . S
Sc178 O190 2.105 . S
Sc178 O194 2.105 1_556 S
Sc178 O196 2.105 . S
O179 Sc176 2.025 . S
O179 Sc177 2.025 . S
O179 Sc178 2.025 . S
C180 O186 1.268 . S
C180 O196 1.268 . S
C181 O187 1.268 . S
C181 O195 1.268 . S
C182 O188 1.268 . S
C182 O197 1.268 . S
C183 O189 1.268 . S
C183 O193 1.268 . S
C184 O190 1.268 . S
C184 O192 1.268 . S
C185 O191 1.268 . S
C185 O194 1.268 . S
O186 Sc176 2.105 . S
O186 C180 1.268 . S
O187 Sc177 2.105 . S
O187 C181 1.268 . S
O188 Sc178 2.105 . S
O188 C182 1.268 . S
O189 Sc176 2.105 . S
O189 C183 1.268 . S
O190 Sc178 2.105 . S
O190 C184 1.268 . S
O191 Sc177 2.105 1_554 S
O191 C185 1.268 . S
O192 Sc176 2.105 . S
O192 C184 1.268 . S
O193 Sc177 2.105 . S
O193 C183 1.268 . S
O194 Sc178 2.105 1_554 S
O194 C185 1.268 . S
O195 Sc176 2.105 . S
O195 C181 1.268 . S
O196 Sc178 2.105 . S
O196 C180 1.268 . S
O197 Sc177 2.105 . S
O197 C182 1.268 . S
Sc198 O201 2.025 . S
Sc198 O208 2.105 . S
Sc198 O211 2.105 1_556 S
Sc198 O214 2.105 . S
Sc198 O217 2.105 . S
Sc199 O201 2.025 . S
Sc199 O209 2.105 . S
Sc199 O213 2.105 . S
Sc199 O215 2.105 1_556 S
Sc199 O219 2.105 . S
Sc200 O201 2.025 . S
Sc200 O210 2.105 . S
Sc200 O212 2.105 . S
Sc200 O216 2.105 . S
Sc200 O218 2.105 . S
O201 Sc198 2.025 . S
O201 Sc199 2.025 . S
O201 Sc200 2.025 . S
C202 O208 1.268 . S
C202 O218 1.268 . S
C203 O209 1.268 . S
C203 O217 1.268 . S
C204 O210 1.268 . S
C204 O219 1.268 . S
C205 O211 1.268 . S
C205 O215 1.268 . S
C206 O212 1.268 . S
C206 O214 1.268 . S
C207 O213 1.268 . S
C207 O216 1.268 . S
O208 Sc198 2.105 . S
O208 C202 1.268 . S
O209 Sc199 2.105 . S
O209 C203 1.268 . S
O210 Sc200 2.105 . S
O210 C204 1.268 . S
O211 Sc198 2.105 1_554 S
O211 C205 1.268 . S
O212 Sc200 2.105 . S
O212 C206 1.268 . S
O213 Sc199 2.105 . S
O213 C207 1.268 . S
O214 Sc198 2.105 . S
O214 C206 1.268 . S
O215 Sc199 2.105 1_554 S
O215 C205 1.268 . S
O216 Sc200 2.105 . S
O216 C207 1.268 . S
O217 Sc198 2.105 . S
O217 C203 1.268 . S
O218 Sc200 2.105 . S
O218 C202 1.268 . S
O219 Sc199 2.105 . S
O219 C204 1.268 . S
Sc220 O223 2.025 . S
Sc220 O230 2.105 . S
Sc220 O233 2.105 1_556 S
Sc220 O236 2.105 . S
Sc220 O239 2.105 . S
Sc221 O223 2.025 . S
Sc221 O231 2.105 . S
Sc221 O235 2.105 . S
Sc221 O237 2.105 1_556 S
Sc221 O241 2.105 . S
Sc222 O223 2.025 . S
Sc222 O232 2.105 . S
Sc222 O234 2.105 . S
Sc222 O238 2.105 . S
Sc222 O240 2.105 . S
O223 Sc220 2.025 . S
O223 Sc221 2.025 . S
O223 Sc222 2.025 . S
C224 O230 1.268 . S
C224 O240 1.268 . S
C225 O231 1.268 . S
C225 O239 1.268 . S
C226 O232 1.268 . S
C226 O241 1.268 . S
C227 O233 1.268 . S
C227 O237 1.268 . S
C228 O234 1.268 . S
C228 O236 1.268 . S
C229 O235 1.268 . S
C229 O238 1.268 . S
O230 Sc220 2.105 . S
O230 C224 1.268 . S
O231 Sc221 2.105 . S
O231 C225 1.268 . S
O232 Sc222 2.105 . S
O232 C226 1.268 . S
O233 Sc220 2.105 1_554 S
O233 C227 1.268 . S
O234 Sc222 2.105 . S
O234 C228 1.268 . S
O235 Sc221 2.105 . S
O235 C229 1.268 . S
O236 Sc220 2.105 . S
O236 C228 1.268 . S
O237 Sc221 2.105 1_554 S
O237 C227 1.268 . S
O238 Sc222 2.105 . S
O238 C229 1.268 . S
O239 Sc220 2.105 . S
O239 C225 1.268 . S
O240 Sc222 2.105 . S
O240 C224 1.268 . S
O241 Sc221 2.105 . S
O241 C226 1.268 . S
Sc242 O245 2.025 . S
Sc242 O252 2.105 . S
Sc242 O255 2.105 1_556 S
Sc242 O258 2.105 . S
Sc242 O261 2.105 . S
Sc243 O245 2.025 . S
Sc243 O253 2.105 . S
Sc243 O257 2.105 . S
Sc243 O259 2.105 1_556 S
Sc243 O263 2.105 . S
Sc244 O245 2.025 . S
Sc244 O254 2.105 . S
Sc244 O256 2.105 . S
Sc244 O260 2.105 . S
Sc244 O262 2.105 . S
O245 Sc242 2.025 . S
O245 Sc243 2.025 . S
O245 Sc244 2.025 . S
C246 O252 1.268 . S
C246 O262 1.268 . S
C247 O253 1.268 . S
C247 O261 1.268 . S
C248 O254 1.268 . S
C248 O263 1.268 . S
C249 O255 1.268 . S
C249 O259 1.268 . S
C250 O256 1.268 . S
C250 O258 1.268 . S
C251 O257 1.268 . S
C251 O260 1.268 . S
O252 Sc242 2.105 . S
O252 C246 1.268 . S
O253 Sc243 2.105 . S
O253 C247 1.268 . S
O254 Sc244 2.105 . S
O254 C248 1.268 . S
O255 Sc242 2.105 1_554 S
O255 C249 1.268 . S
O256 Sc244 2.105 . S
O256 C250 1.268 . S
O257 Sc243 2.105 . S
O257 C251 1.268 . S
O258 Sc242 2.105 . S
O258 C250 1.268 . S
O259 Sc243 2.105 1_554 S
O259 C249 1.268 . S
O260 Sc244 2.105 . S
O260 C251 1.268 . S
O261 Sc242 2.105 . S
O261 C247 1.268 . S
O262 Sc244 2.105 . S
O262 C246 1.268 . S
O263 Sc243 2.105 . S
O263 C248 1.268 . S
Sc264 O267 2.025 . S
Sc264 O274 2.105 . S
Sc264 O277 2.105 . S
Sc264 O280 2.105 . S
Sc264 O283 2.105 1_554 S
Sc265 O267 2.025 . S
Sc265 O275 2.105 1_554 S
Sc265 O279 2.105 . S
Sc265 O281 2.105 . S
Sc265 O285 2.105 . S
Sc266 O267 2.025 . S
Sc266 O276 2.105 . S
Sc266 O278 2.105 . S
Sc266 O282 2.105 . S
Sc266 O284 2.105 . S
O267 Sc264 2.025 . S
O267 Sc265 2.025 . S
O267 Sc266 2.025 . S
C268 O274 1.268 . S
C268 O284 1.268 . S
C269 O275 1.268 . S
C269 O283 1.268 . S
C270 O276 1.268 . S
C270 O285 1.268 . S
C271 O277 1.268 . S
C271 O281 1.268 . S
C272 O278 1.268 . S
C272 O280 1.268 . S
C273 O279 1.268 . S
C273 O282 1.268 . S
O274 Sc264 2.105 . S
O274 C268 1.268 . S
O275 Sc265 2.105 1_556 S
O275 C269 1.268 . S
O276 Sc266 2.105 . S
O276 C270 1.268 . S
O277 Sc264 2.105 . S
O277 C271 1.268 . S
O278 Sc266 2.105 . S
O278 C272 1.268 . S
O279 Sc265 2.105 . S
O279 C273 1.268 . S
O280 Sc264 2.105 . S
O280 C272 1.268 . S
O281 Sc265 2.105 . S
O281 C271 1.268 . S
O282 Sc266 2.105 . S
O282 C273 1.268 . S
O283 Sc264 2.105 1_556 S
O283 C269 1.268 . S
O284 Sc266 2.105 . S
O284 C268 1.268 . S
O285 Sc265 2.105 . S
O285 C270 1.268 . S
Sc286 O289 2.025 . S
Sc286 O296 2.105 . S
Sc286 O299 2.105 . S
Sc286 O302 2.105 . S
Sc286 O305 2.105 1_554 S
Sc287 O289 2.025 . S
Sc287 O297 2.105 1_554 S
Sc287 O301 2.105 . S
Sc287 O303 2.105 . S
Sc287 O307 2.105 . S
Sc288 O289 2.025 . S
Sc288 O298 2.105 . S
Sc288 O300 2.105 . S
Sc288 O304 2.105 . S
Sc288 O306 2.105 . S
O289 Sc286 2.025 . S
O289 Sc287 2.025 . S
O289 Sc288 2.025 . S
C290 O296 1.268 . S
C290 O306 1.268 . S
C291 O297 1.268 . S
C291 O305 1.268 . S
C292 O298 1.268 . S
C292 O307 1.268 . S
C293 O299 1.268 . S
C293 O303 1.268 . S
C294 O300 1.268 . S
C294 O302 1.268 . S
C295 O301 1.268 . S
C295 O304 1.268 . S
O296 Sc286 2.105 . S
O296 C290 1.268 . S
O297 Sc287 2.105 1_556 S
O297 C291 1.268 . S
O298 Sc288 2.105 . S
O298 C292 1.268 . S
O299 Sc286 2.105 . S
O299 C293 1.268 . S
O300 Sc288 2.105 . S
O300 C294 1.268 . S
O301 Sc287 2.105 . S
O301 C295 1.268 . S
O302 Sc286 2.105 . S
O302 C294 1.268 . S
O303 Sc287 2.105 . S
O303 C293 1.268 . S
O304 Sc288 2.105 . S
O304 C295 1.268 . S
O305 Sc286 2.105 1_556 S
O305 C291 1.268 . S
O306 Sc288 2.105 . S
O306 C290 1.268 . S
O307 Sc287 2.105 . S
O307 C292 1.268 . S
Sc308 O311 2.025 . S
Sc308 O318 2.105 . S
Sc308 O321 2.105 . S
Sc308 O324 2.105 . S
Sc308 O327 2.105 1_554 S
Sc309 O311 2.025 . S
Sc309 O319 2.105 1_554 S
Sc309 O323 2.105 . S
Sc309 O325 2.105 . S
Sc309 O329 2.105 . S
Sc310 O311 2.025 . S
Sc310 O320 2.105 . S
Sc310 O322 2.105 . S
Sc310 O326 2.105 . S
Sc310 O328 2.105 . S
O311 Sc308 2.025 . S
O311 Sc309 2.025 . S
O311 Sc310 2.025 . S
C312 O318 1.268 . S
C312 O328 1.268 . S
C313 O319 1.268 . S
C313 O327 1.268 . S
C314 O320 1.268 . S
C314 O329 1.268 . S
C315 O321 1.268 . S
C315 O325 1.268 . S
C316 O322 1.268 . S
C316 O324 1.268 . S
C317 O323 1.268 . S
C317 O326 1.268 . S
O318 Sc308 2.105 . S
O318 C312 1.268 . S
O319 Sc309 2.105 1_556 S
O319 C313 1.268 . S
O320 Sc310 2.105 . S
O320 C314 1.268 . S
O321 Sc308 2.105 . S
O321 C315 1.268 . S
O322 Sc310 2.105 . S
O322 C316 1.268 . S
O323 Sc309 2.105 . S
O323 C317 1.268 . S
O324 Sc308 2.105 . S
O324 C316 1.268 . S
O325 Sc309 2.105 . S
O325 C315 1.268 . S
O326 Sc310 2.105 . S
O326 C317 1.268 . S
O327 Sc308 2.105 1_556 S
O327 C313 1.268 . S
O328 Sc310 2.105 . S
O328 C312 1.268 . S
O329 Sc309 2.105 . S
O329 C314 1.268 . S
Sc330 O333 2.025 . S
Sc330 O340 2.105 . S
Sc330 O343 2.105 . S
Sc330 O346 2.105 . S
Sc330 O349 2.105 . S
Sc331 O333 2.025 . S
Sc331 O341 2.105 . S
Sc331 O345 2.105 . S
Sc331 O347 2.105 . S
Sc331 O351 2.105 1_554 S
Sc332 O333 2.025 . S
Sc332 O342 2.105 1_554 S
Sc332 O344 2.105 . S
Sc332 O348 2.105 . S
Sc332 O350 2.105 . S
O333 Sc330 2.025 . S
O333 Sc331 2.025 . S
O333 Sc332 2.025 . S
C334 O340 1.268 . S
C334 O350 1.268 . S
C335 O341 1.268 . S
C335 O349 1.268 . S
C336 O342 1.268 . S
C336 O351 1.268 . S
C337 O343 1.268 . S
C337 O347 1.268 . S
C338 O344 1.268 . S
C338 O346 1.268 . S
C339 O345 1.268 . S
C339 O348 1.268 . S
O340 Sc330 2.105 . S
O340 C334 1.268 . S
O341 Sc331 2.105 . S
O341 C335 1.268 . S
O342 Sc332 2.105 1_556 S
O342 C336 1.268 . S
O343 Sc330 2.105 . S
O343 C337 1.268 . S
O344 Sc332 2.105 . S
O344 C338 1.268 . S
O345 Sc331 2.105 . S
O345 C339 1.268 . S
O346 Sc330 2.105 . S
O346 C338 1.268 . S
O347 Sc331 2.105 . S
O347 C337 1.268 . S
O348 Sc332 2.105 . S
O348 C339 1.268 . S
O349 Sc330 2.105 . S
O349 C335 1.268 . S
O350 Sc332 2.105 . S
O350 C334 1.268 . S
O351 Sc331 2.105 1_556 S
O351 C336 1.268 . S
Sc352 O355 2.025 . S
Sc352 O362 2.105 . S
Sc352 O365 2.105 . S
Sc352 O368 2.105 . S
Sc352 O371 2.105 . S
Sc353 O355 2.025 . S
Sc353 O363 2.105 . S
Sc353 O367 2.105 . S
Sc353 O369 2.105 . S
Sc353 O373 2.105 1_554 S
Sc354 O355 2.025 . S
Sc354 O364 2.105 1_554 S
Sc354 O366 2.105 . S
Sc354 O370 2.105 . S
Sc354 O372 2.105 . S
O355 Sc352 2.025 . S
O355 Sc353 2.025 . S
O355 Sc354 2.025 . S
C356 O362 1.268 . S
C356 O372 1.268 . S
C357 O363 1.268 . S
C357 O371 1.268 . S
C358 O364 1.268 . S
C358 O373 1.268 . S
C359 O365 1.268 . S
C359 O369 1.268 . S
C360 O366 1.268 . S
C360 O368 1.268 . S
C361 O367 1.268 . S
C361 O370 1.268 . S
O362 Sc352 2.105 . S
O362 C356 1.268 . S
O363 Sc353 2.105 . S
O363 C357 1.268 . S
O364 Sc354 2.105 1_556 S
O364 C358 1.268 . S
O365 Sc352 2.105 . S
O365 C359 1.268 . S
O366 Sc354 2.105 . S
O366 C360 1.268 . S
O367 Sc353 2.105 . S
O367 C361 1.268 . S
O368 Sc352 2.105 . S
O368 C360 1.268 . S
O369 Sc353 2.105 . S
O369 C359 1.268 . S
O370 Sc354 2.105 . S
O370 C361 1.268 . S
O371 Sc352 2.105 . S
O371 C357 1.268 . S
O372 Sc354 2.105 . S
O372 C356 1.268 . S
O373 Sc353 2.105 1_556 S
O373 C358 1.268 . S
Sc374 O377 2.025 . S
Sc374 O384 2.105 . S
Sc374 O387 2.105 . S
Sc374 O390 2.105 . S
Sc374 O393 2.105 . S
Sc375 O377 2.025 . S
Sc375 O385 2.105 . S
Sc375 O389 2.105 . S
Sc375 O391 2.105 . S
Sc375 O395 2.105 1_554 S
Sc376 O377 2.025 . S
Sc376 O386 2.105 1_554 S
Sc376 O388 2.105 . S
Sc376 O392 2.105 . S
Sc376 O394 2.105 . S
O377 Sc374 2.025 . S
O377 Sc375 2.025 . S
O377 Sc376 2.025 . S
C378 O384 1.268 . S
C378 O394 1.268 . S
C379 O385 1.268 . S
C379 O393 1.268 . S
C380 O386 1.268 . S
C380 O395 1.268 . S
C381 O387 1.268 . S
C381 O391 1.268 . S
C382 O388 1.268 . S
C382 O390 1.268 . S
C383 O389 1.268 . S
C383 O392 1.268 . S
O384 Sc374 2.105 . S
O384 C378 1.268 . S
O385 Sc375 2.105 . S
O385 C379 1.268 . S
O386 Sc376 2.105 1_556 S
O386 C380 1.268 . S
O387 Sc374 2.105 . S
O387 C381 1.268 . S
O388 Sc376 2.105 . S
O388 C382 1.268 . S
O389 Sc375 2.105 . S
O389 C383 1.268 . S
O390 Sc374 2.105 . S
O390 C382 1.268 . S
O391 Sc375 2.105 . S
O391 C381 1.268 . S
O392 Sc376 2.105 . S
O392 C383 1.268 . S
O393 Sc374 2.105 . S
O393 C379 1.268 . S
O394 Sc376 2.105 . S
O394 C378 1.268 . S
O395 Sc375 2.105 1_556 S
O395 C380 1.268 . S
C396 C397 1.363 . S
C396 C402 1.379 . S
C396 N404 1.356 . S
C397 C396 1.363 . S
C397 C403 1.363 . S
C398 C399 1.363 . S
C398 C403 1.379 . S
C398 N405 1.356 . S
C399 C398 1.363 . S
C399 C402 1.363 . S
N400 C402 1.356 . S
N400 H412 0.984 . S
N400 H413 0.985 . S
N401 C403 1.356 . S
N401 H406 0.984 . S
N401 H407 0.985 . S
C402 C396 1.379 . S
C402 C399 1.363 . S
C402 N400 1.356 . S
C403 C397 1.363 . S
C403 C398 1.379 . S
C403 N401 1.356 . S
N404 C396 1.356 . S
N404 H410 0.984 . S
N404 H411 0.984 . S
N405 C398 1.356 . S
N405 H408 0.984 . S
N405 H409 0.985 . S
H406 N401 0.984 . S
H407 N401 0.985 . S
H408 N405 0.984 . S
H409 N405 0.985 . S
H410 N404 0.984 . S
H411 N404 0.984 . S
H412 N400 0.984 . S
H413 N400 0.985 . S
C414 C415 1.363 . S
C414 C420 1.379 . S
C414 N422 1.356 . S
C415 C414 1.363 . S
C415 C421 1.363 . S
C416 C417 1.363 . S
C416 C421 1.379 . S
C416 N423 1.356 . S
C417 C416 1.363 . S
C417 C420 1.363 . S
N418 C420 1.356 . S
N418 H430 0.984 . S
N418 H431 0.985 . S
N419 C421 1.356 . S
N419 H424 0.984 . S
N419 H425 0.985 . S
C420 C414 1.379 . S
C420 C417 1.363 . S
C420 N418 1.356 . S
C421 C415 1.363 . S
C421 C416 1.379 . S
C421 N419 1.356 . S
N422 C414 1.356 . S
N422 H428 0.984 . S
N422 H429 0.984 . S
N423 C416 1.356 . S
N423 H426 0.984 . S
N423 H427 0.985 . S
H424 N419 0.984 . S
H425 N419 0.985 . S
H426 N423 0.984 . S
H427 N423 0.985 . S
H428 N422 0.984 . S
H429 N422 0.984 . S
H430 N418 0.984 . S
H431 N418 0.985 . S
C432 C433 1.363 . S
C432 C438 1.379 . S
C432 N440 1.356 . S
C433 C432 1.363 . S
C433 C439 1.363 . S
C434 C435 1.363 . S
C434 C439 1.379 . S
C434 N441 1.356 . S
C435 C434 1.363 . S
C435 C438 1.363 . S
N436 C438 1.356 . S
N436 H448 0.984 . S
N436 H449 0.985 . S
N437 C439 1.356 . S
N437 H442 0.984 . S
N437 H443 0.985 . S
C438 C432 1.379 . S
C438 C435 1.363 . S
C438 N436 1.356 . S
C439 C433 1.363 . S
C439 C434 1.379 . S
C439 N437 1.356 . S
N440 C432 1.356 . S
N440 H446 0.984 . S
N440 H447 0.984 . S
N441 C434 1.356 . S
N441 H444 0.984 . S
N441 H445 0.985 . S
H442 N437 0.984 . S
H443 N437 0.985 . S
H444 N441 0.984 . S
H445 N441 0.985 . S
H446 N440 0.984 . S
H447 N440 0.984 . S
H448 N436 0.984 . S
H449 N436 0.985 . S
C450 C451 1.363 . S
C450 C456 1.379 . S
C450 N458 1.356 . S
C451 C450 1.363 . S
C451 C457 1.363 . S
C452 C453 1.363 . S
C452 C457 1.379 . S
C452 N459 1.356 . S
C453 C452 1.363 . S
C453 C456 1.363 . S
N454 C456 1.356 . S
N454 H466 0.984 . S
N454 H467 0.985 . S
N455 C457 1.356 . S
N455 H460 0.984 . S
N455 H461 0.985 . S
C456 C450 1.379 . S
C456 C453 1.363 . S
C456 N454 1.356 . S
C457 C451 1.363 . S
C457 C452 1.379 . S
C457 N455 1.356 . S
N458 C450 1.356 . S
N458 H464 0.984 . S
N458 H465 0.984 . S
N459 C452 1.356 . S
N459 H462 0.984 . S
N459 H463 0.985 . S
H460 N455 0.984 . S
H461 N455 0.985 . S
H462 N459 0.984 . S
H463 N459 0.985 . S
H464 N458 0.984 . S
H465 N458 0.984 . S
H466 N454 0.984 . S
H467 N454 0.985 . S
C468 C469 1.363 . S
C468 C474 1.379 . S
C468 N476 1.356 . S
C469 C468 1.363 . S
C469 C475 1.363 . S
C470 C471 1.363 . S
C470 C475 1.379 . S
C470 N477 1.356 . S
C471 C470 1.363 . S
C471 C474 1.363 . S
N472 C474 1.356 1_455 S
N472 H484 0.984 . S
N472 H485 0.985 . S
N473 C475 1.356 . S
N473 H478 0.984 . S
N473 H479 0.985 . S
C474 C468 1.379 . S
C474 C471 1.363 . S
C474 N472 1.356 1_655 S
C475 C469 1.363 . S
C475 C470 1.379 . S
C475 N473 1.356 . S
N476 C468 1.356 . S
N476 H482 0.984 . S
N476 H483 0.984 . S
N477 C470 1.356 . S
N477 H480 0.984 . S
N477 H481 0.985 . S
H478 N473 0.984 . S
H479 N473 0.985 . S
H480 N477 0.984 . S
H481 N477 0.985 . S
H482 N476 0.984 . S
H483 N476 0.984 . S
H484 N472 0.984 . S
H485 N472 0.985 . S
C486 C487 1.363 . S
C486 C492 1.379 . S
C486 N494 1.356 . S
C487 C486 1.363 . S
C487 C493 1.363 . S
C488 C489 1.363 . S
C488 C493 1.379 . S
C488 N495 1.356 . S
C489 C488 1.363 . S
C489 C492 1.363 . S
N490 C492 1.356 . S
N490 H502 0.984 . S
N490 H503 0.985 . S
N491 C493 1.356 . S
N491 H496 0.984 . S
N491 H497 0.985 . S
C492 C486 1.379 . S
C492 C489 1.363 . S
C492 N490 1.356 . S
C493 C487 1.363 . S
C493 C488 1.379 . S
C493 N491 1.356 . S
N494 C486 1.356 . S
N494 H500 0.984 . S
N494 H501 0.984 . S
N495 C488 1.356 . S
N495 H498 0.984 . S
N495 H499 0.985 . S
H496 N491 0.984 . S
H497 N491 0.985 . S
H498 N495 0.984 . S
H499 N495 0.985 . S
H500 N494 0.984 . S
H501 N494 0.984 . S
H502 N490 0.984 . S
H503 N490 0.985 . S
C504 C505 1.363 . S
C504 C510 1.379 . S
C504 N512 1.356 . S
C505 C504 1.363 . S
C505 C511 1.363 . S
C506 C507 1.363 . S
C506 C511 1.379 . S
C506 N513 1.356 . S
C507 C506 1.363 . S
C507 C510 1.363 . S
N508 C510 1.356 . S
N508 H520 0.984 . S
N508 H521 0.985 . S
N509 C511 1.356 . S
N509 H514 0.984 . S
N509 H515 0.985 . S
C510 C504 1.379 . S
C510 C507 1.363 . S
C510 N508 1.356 . S
C511 C505 1.363 . S
C511 C506 1.379 . S
C511 N509 1.356 . S
N512 C504 1.356 . S
N512 H518 0.984 1_655 S
N512 H519 0.984 1_655 S
N513 C506 1.356 . S
N513 H516 0.984 . S
N513 H517 0.985 . S
H514 N509 0.984 . S
H515 N509 0.985 . S
H516 N513 0.984 . S
H517 N513 0.985 . S
H518 N512 0.984 1_455 S
H519 N512 0.984 1_455 S
H520 N508 0.984 . S
H521 N508 0.985 . S
C522 C523 1.363 . S
C522 C528 1.379 . S
C522 N530 1.356 . S
C523 C522 1.363 . S
C523 C529 1.363 . S
C524 C525 1.363 . S
C524 C529 1.379 . S
C524 N531 1.356 . S
C525 C524 1.363 . S
C525 C528 1.363 . S
N526 C528 1.356 . S
N526 H538 0.984 . S
N526 H539 0.985 . S
N527 C529 1.356 . S
N527 H532 0.984 . S
N527 H533 0.985 . S
C528 C522 1.379 . S
C528 C525 1.363 . S
C528 N526 1.356 . S
C529 C523 1.363 . S
C529 C524 1.379 . S
C529 N527 1.356 . S
N530 C522 1.356 . S
N530 H536 0.984 . S
N530 H537 0.984 . S
N531 C524 1.356 . S
N531 H534 0.984 . S
N531 H535 0.985 . S
H532 N527 0.984 . S
H533 N527 0.985 . S
H534 N531 0.984 . S
H535 N531 0.985 . S
H536 N530 0.984 . S
H537 N530 0.984 . S
H538 N526 0.984 . S
H539 N526 0.985 . S
C540 C541 1.363 . S
C540 C546 1.379 . S
C540 N548 1.356 . S
C541 C540 1.363 . S
C541 C547 1.363 . S
C542 C543 1.363 . S
C542 C547 1.379 . S
C542 N549 1.356 . S
C543 C542 1.363 . S
C543 C546 1.363 . S
N544 C546 1.356 . S
N544 H556 0.984 . S
N544 H557 0.985 . S
N545 C547 1.356 . S
N545 H550 0.984 . S
N545 H551 0.985 . S
C546 C540 1.379 . S
C546 C543 1.363 . S
C546 N544 1.356 . S
C547 C541 1.363 . S
C547 C542 1.379 . S
C547 N545 1.356 . S
N548 C540 1.356 . S
N548 H554 0.984 . S
N548 H555 0.984 . S
N549 C542 1.356 . S
N549 H552 0.984 . S
N549 H553 0.985 . S
H550 N545 0.984 . S
H551 N545 0.985 . S
H552 N549 0.984 . S
H553 N549 0.985 . S
H554 N548 0.984 . S
H555 N548 0.984 . S
H556 N544 0.984 . S
H557 N544 0.985 . S
C558 C559 1.363 . S
C558 C564 1.379 . S
C558 N566 1.356 . S
C559 C558 1.363 . S
C559 C565 1.363 . S
C560 C561 1.363 . S
C560 C565 1.379 . S
C560 N567 1.356 . S
C561 C560 1.363 . S
C561 C564 1.363 . S
N562 C564 1.356 . S
N562 H574 0.984 . S
N562 H575 0.985 . S
N563 C565 1.356 . S
N563 H568 0.984 . S
N563 H569 0.985 . S
C564 C558 1.379 . S
C564 C561 1.363 . S
C564 N562 1.356 . S
C565 C559 1.363 . S
C565 C560 1.379 . S
C565 N563 1.356 . S
N566 C558 1.356 . S
N566 H572 0.984 . S
N566 H573 0.984 . S
N567 C560 1.356 . S
N567 H570 0.978 . S
N567 H571 1.003 . S
H568 N563 0.984 . S
H569 N563 0.985 . S
H570 N567 0.978 . S
H571 N567 1.003 . S
H572 N566 0.984 . S
H573 N566 0.984 . S
H574 N562 0.984 . S
H575 N562 0.985 . S
C576 C577 1.363 . S
C576 C582 1.379 . S
C576 N584 1.356 . S
C577 C576 1.363 . S
C577 C583 1.363 . S
C578 C579 1.363 . S
C578 C583 1.379 . S
C578 N585 1.356 . S
C579 C578 1.363 . S
C579 C582 1.363 . S
N580 C582 1.356 . S
N580 H592 0.984 . S
N580 H593 0.985 . S
N581 C583 1.356 . S
N581 H586 0.984 . S
N581 H587 0.985 . S
C582 C576 1.379 . S
C582 C579 1.363 . S
C582 N580 1.356 . S
C583 C577 1.363 . S
C583 C578 1.379 . S
C583 N581 1.356 . S
N584 C576 1.356 . S
N584 H590 0.984 . S
N584 H591 0.984 . S
N585 C578 1.356 . S
N585 H588 0.984 . S
N585 H589 0.985 . S
H586 N581 0.984 . S
H587 N581 0.985 . S
H588 N585 0.984 . S
H589 N585 0.985 . S
H590 N584 0.984 . S
H591 N584 0.984 . S
H592 N580 0.984 . S
H593 N580 0.985 . S
C594 C595 1.363 . S
C594 C600 1.379 . S
C594 N602 1.356 . S
C595 C594 1.363 . S
C595 C601 1.363 . S
C596 C597 1.363 . S
C596 C601 1.379 . S
C596 N603 1.356 . S
C597 C596 1.363 . S
C597 C600 1.363 . S
N598 C600 1.356 . S
N598 H610 0.984 . S
N598 H611 0.985 . S
N599 C601 1.356 . S
N599 H604 0.984 . S
N599 H605 0.985 . S
C600 C594 1.379 . S
C600 C597 1.363 . S
C600 N598 1.356 . S
C601 C595 1.363 . S
C601 C596 1.379 . S
C601 N599 1.356 . S
N602 C594 1.356 . S
N602 H608 0.984 . S
N602 H609 0.984 . S
N603 C596 1.356 . S
N603 H606 0.984 . S
N603 H607 0.985 . S
H604 N599 0.984 . S
H605 N599 0.985 . S
H606 N603 0.984 . S
H607 N603 0.985 . S
H608 N602 0.984 . S
H609 N602 0.984 . S
H610 N598 0.984 . S
H611 N598 0.985 . S
C612 C613 1.363 1_455 S
C612 C618 1.379 . S
C612 N620 1.356 1_455 S
C613 C612 1.363 1_655 S
C613 C619 1.364 1_556 S
C614 C615 1.363 . S
C614 C619 1.372 1_455 S
C614 N621 1.356 . S
C615 C614 1.363 . S
C615 C618 1.363 1_554 S
N616 C618 1.356 . S
N616 H628 0.984 . S
N616 H629 0.985 . S
N617 C619 1.363 . S
N617 H622 0.984 . S
N617 H623 0.985 . S
C618 C612 1.379 . S
C618 C615 1.363 1_556 S
C618 N616 1.356 . S
C619 C613 1.364 1_554 S
C619 C614 1.372 1_655 S
C619 N617 1.363 . S
N620 C612 1.356 1_655 S
N620 H626 0.984 . S
N620 H627 0.984 . S
N621 C614 1.356 . S
N621 H624 0.984 . S
N621 H625 0.985 . S
H622 N617 0.984 . S
H623 N617 0.985 . S
H624 N621 0.984 . S
H625 N621 0.985 . S
H626 N620 0.984 . S
H627 N620 0.984 . S
H628 N616 0.984 . S
H629 N616 0.985 . S
C630 C631 1.363 . S
C630 C636 1.379 . S
C630 N638 1.356 . S
C631 C630 1.363 . S
C631 C637 1.363 1_556 S
C632 C633 1.363 . S
C632 C637 1.379 . S
C632 N639 1.356 . S
C633 C632 1.363 . S
C633 C636 1.363 1_554 S
N634 C636 1.356 . S
N634 H646 0.984 . S
N634 H647 0.985 . S
N635 C637 1.356 . S
N635 H640 0.984 . S
N635 H641 0.985 . S
C636 C630 1.379 . S
C636 C633 1.363 1_556 S
C636 N634 1.356 . S
C637 C631 1.363 1_554 S
C637 C632 1.379 . S
C637 N635 1.356 . S
N638 C630 1.356 . S
N638 H644 0.984 . S
N638 H645 0.984 . S
N639 C632 1.356 . S
N639 H642 0.984 . S
N639 H643 0.985 . S
H640 N635 0.984 . S
H641 N635 0.985 . S
H642 N639 0.984 . S
H643 N639 0.985 . S
H644 N638 0.984 . S
H645 N638 0.984 . S
H646 N634 0.984 . S
H647 N634 0.985 . S
C648 C649 1.363 1_554 S
C648 C654 1.379 . S
C648 N656 1.356 . S
C649 C648 1.363 1_556 S
C649 C655 1.363 . S
C650 C651 1.369 1_556 S
C650 C655 1.371 1_565 S
C650 N657 1.361 . S
C651 C650 1.369 1_554 S
C651 C654 1.363 1_565 S
N652 C654 1.356 1_565 S
N652 H664 0.984 . S
N652 H665 0.985 . S
N653 C655 1.356 . S
N653 H658 0.984 . S
N653 H659 0.985 . S
C654 C648 1.379 . S
C654 C651 1.363 1_545 S
C654 N652 1.356 1_545 S
C655 C649 1.363 . S
C655 C650 1.371 1_545 S
C655 N653 1.356 . S
N656 C648 1.356 . S
N656 H662 0.984 . S
N656 H663 0.984 . S
N657 C650 1.361 . S
N657 H660 0.984 . S
N657 H661 0.985 . S
H658 N653 0.984 . S
H659 N653 0.985 . S
H660 N657 0.984 . S
H661 N657 0.985 . S
H662 N656 0.984 . S
H663 N656 0.984 . S
H664 N652 0.984 . S
H665 N652 0.985 . S
C666 C667 1.363 . S
C666 C672 1.367 1_545 S
C666 N674 1.356 . S
C667 C666 1.363 . S
C667 C673 1.363 1_556 S
C668 C669 1.363 1_545 S
C668 C673 1.379 . S
C668 N675 1.356 1_545 S
C669 C668 1.363 1_565 S
C669 C672 1.372 1_554 S
N670 C672 1.363 . S
N670 H682 0.984 . S
N670 H683 0.985 . S
N671 C673 1.356 . S
N671 H676 0.984 . S
N671 H677 0.985 . S
C672 C666 1.367 1_565 S
C672 C669 1.372 1_556 S
C672 N670 1.363 . S
C673 C667 1.363 1_554 S
C673 C668 1.379 . S
C673 N671 1.356 . S
N674 C666 1.356 . S
N674 H680 0.984 . S
N674 H681 0.984 . S
N675 C668 1.356 1_565 S
N675 H678 0.984 . S
N675 H679 0.985 . S
H676 N671 0.984 . S
H677 N671 0.985 . S
H678 N675 0.984 . S
H679 N675 0.985 . S
H680 N674 0.984 . S
H681 N674 0.984 . S
H682 N670 0.984 . S
H683 N670 0.985 . S
C684 C685 1.363 1_556 S
C684 C690 1.379 . S
C684 N692 1.356 . S
C685 C684 1.363 1_554 S
C685 C691 1.363 . S
C686 C687 1.374 1_554 S
C686 C691 1.348 1_655 S
C686 N693 1.383 . S
C687 C686 1.374 1_556 S
C687 C690 1.363 1_655 S
N688 C690 1.356 1_655 S
N688 H700 0.984 . S
N688 H701 0.985 . S
N689 C691 1.356 . S
N689 H694 0.984 . S
N689 H695 0.985 . S
C690 C684 1.379 . S
C690 C687 1.363 1_455 S
C690 N688 1.356 1_455 S
C691 C685 1.363 . S
C691 C686 1.348 1_455 S
C691 N689 1.356 . S
N692 C684 1.356 . S
N692 H698 0.984 . S
N692 H699 0.984 . S
N693 C686 1.383 . S
N693 H696 0.984 . S
N693 H697 0.985 . S
H694 N689 0.984 . S
H695 N689 0.985 . S
H696 N693 0.984 . S
H697 N693 0.985 . S
H698 N692 0.984 . S
H699 N692 0.984 . S
H700 N688 0.984 . S
H701 N688 0.985 . S
C702 C703 1.363 . S
C702 C708 1.379 . S
C702 N710 1.356 . S
C703 C702 1.363 . S
C703 C709 1.363 1_554 S
C704 C705 1.363 . S
C704 C709 1.379 . S
C704 N711 1.356 . S
C705 C704 1.363 . S
C705 C708 1.363 1_556 S
N706 C708 1.356 . S
N706 H718 0.984 . S
N706 H719 0.985 . S
N707 C709 1.356 . S
N707 H712 0.984 . S
N707 H713 0.985 . S
C708 C702 1.379 . S
C708 C705 1.363 1_554 S
C708 N706 1.356 . S
C709 C703 1.363 1_556 S
C709 C704 1.379 . S
C709 N707 1.356 . S
N710 C702 1.356 . S
N710 H716 0.984 . S
N710 H717 0.984 . S
N711 C704 1.356 . S
N711 H714 0.984 . S
N711 H715 0.985 . S
H712 N707 0.984 . S
H713 N707 0.985 . S
H714 N711 0.984 . S
H715 N711 0.985 . S
H716 N710 0.984 . S
H717 N710 0.984 . S
H718 N706 0.984 . S
H719 N706 0.985 . S
C720 C721 1.363 . S
C720 C726 1.379 . S
C720 N728 1.356 . S
C721 C720 1.363 . S
C721 C727 1.363 . S
C722 C723 1.363 . S
C722 C727 1.379 . S
C722 N729 1.356 . S
C723 C722 1.363 . S
C723 C726 1.363 . S
N724 C726 1.356 . S
N724 H736 0.984 . S
N724 H737 0.985 . S
N725 C727 1.356 . S
N725 H730 0.984 . S
N725 H731 0.985 . S
C726 C720 1.379 . S
C726 C723 1.363 . S
C726 N724 1.356 . S
C727 C721 1.363 . S
C727 C722 1.379 . S
C727 N725 1.356 . S
N728 C720 1.356 . S
N728 H734 0.984 . S
N728 H735 0.984 . S
N729 C722 1.356 . S
N729 H732 0.984 . S
N729 H733 0.985 . S
H730 N725 0.984 . S
H731 N725 0.985 . S
H732 N729 0.984 . S
H733 N729 0.985 . S
H734 N728 0.984 . S
H735 N728 0.984 . S
H736 N724 0.984 . S
H737 N724 0.985 . S
C738 C739 1.363 . S
C738 C744 1.379 . S
C738 N746 1.356 . S
C739 C738 1.363 . S
C739 C745 1.363 . S
C740 C741 1.363 . S
C740 C745 1.379 . S
C740 N747 1.356 . S
C741 C740 1.363 . S
C741 C744 1.363 . S
N742 C744 1.356 . S
N742 H754 0.984 . S
N742 H755 0.985 . S
N743 C745 1.356 . S
N743 H748 0.984 . S
N743 H749 0.985 . S
C744 C738 1.379 . S
C744 C741 1.363 . S
C744 N742 1.356 . S
C745 C739 1.363 . S
C745 C740 1.379 . S
C745 N743 1.356 . S
N746 C738 1.356 . S
N746 H752 0.984 . S
N746 H753 0.984 . S
N747 C740 1.356 . S
N747 H750 0.984 . S
N747 H751 0.985 . S
H748 N743 0.984 . S
H749 N743 0.985 . S
H750 N747 0.984 . S
H751 N747 0.985 . S
H752 N746 0.984 . S
H753 N746 0.984 . S
H754 N742 0.984 . S
H755 N742 0.985 . S
C756 C757 1.363 . S
C756 C762 1.379 . S
C756 N764 1.356 . S
C757 C756 1.363 . S
C757 C763 1.363 . S
C758 C759 1.363 . S
C758 C763 1.379 . S
C758 N765 1.356 . S
C759 C758 1.363 . S
C759 C762 1.363 . S
N760 C762 1.356 . S
N760 H772 0.984 . S
N760 H773 0.985 . S
N761 C763 1.356 . S
N761 H766 0.984 . S
N761 H767 0.985 . S
C762 C756 1.379 . S
C762 C759 1.363 . S
C762 N760 1.356 . S
C763 C757 1.363 . S
C763 C758 1.379 . S
C763 N761 1.356 . S
N764 C756 1.356 . S
N764 H770 0.984 . S
N764 H771 0.984 . S
N765 C758 1.356 . S
N765 H768 0.984 . S
N765 H769 0.985 . S
H766 N761 0.984 . S
H767 N761 0.985 . S
H768 N765 0.984 . S
H769 N765 0.985 . S
H770 N764 0.984 . S
H771 N764 0.984 . S
H772 N760 0.984 . S
H773 N760 0.985 . S
C774 C775 1.363 . S
C774 C780 1.379 . S
C774 N782 1.356 . S
C775 C774 1.363 . S
C775 C781 1.363 . S
C776 C777 1.363 . S
C776 C781 1.379 . S
C776 N783 1.356 . S
C777 C776 1.363 . S
C777 C780 1.363 . S
N778 C780 1.356 . S
N778 H790 0.984 . S
N778 H791 0.985 . S
N779 C781 1.356 . S
N779 H784 0.984 . S
N779 H785 0.985 . S
C780 C774 1.379 . S
C780 C777 1.363 . S
C780 N778 1.356 . S
C781 C775 1.363 . S
C781 C776 1.379 . S
C781 N779 1.356 . S
N782 C774 1.356 . S
N782 H788 0.984 . S
N782 H789 0.984 . S
N783 C776 1.356 . S
N783 H786 0.984 . S
N783 H787 0.985 . S
H784 N779 0.984 . S
H785 N779 0.985 . S
H786 N783 0.984 . S
H787 N783 0.985 . S
H788 N782 0.984 . S
H789 N782 0.984 . S
H790 N778 0.984 . S
H791 N778 0.985 . S
C792 C793 1.363 . S
C792 C798 1.379 . S
C792 N800 1.356 . S
C793 C792 1.363 . S
C793 C799 1.363 . S
C794 C795 1.363 . S
C794 C799 1.379 . S
C794 N801 1.356 . S
C795 C794 1.363 . S
C795 C798 1.363 . S
N796 C798 1.356 . S
N796 H808 0.984 . S
N796 H809 0.985 . S
N797 C799 1.356 . S
N797 H802 0.984 . S
N797 H803 0.985 . S
C798 C792 1.379 . S
C798 C795 1.363 . S
C798 N796 1.356 . S
C799 C793 1.363 . S
C799 C794 1.379 . S
C799 N797 1.356 . S
N800 C792 1.356 . S
N800 H806 0.984 . S
N800 H807 0.984 . S
N801 C794 1.356 . S
N801 H804 0.984 . S
N801 H805 0.985 . S
H802 N797 0.984 . S
H803 N797 0.985 . S
H804 N801 0.984 . S
H805 N801 0.985 . S
H806 N800 0.984 . S
H807 N800 0.984 . S
H808 N796 0.984 . S
H809 N796 0.985 . S
C810 C811 1.363 . S
C810 C816 1.379 . S
C810 N818 1.356 . S
C811 C810 1.363 . S
C811 C817 1.363 . S
C812 C813 1.363 . S
C812 C817 1.379 . S
C812 N819 1.356 . S
C813 C812 1.363 . S
C813 C816 1.363 . S
N814 C816 1.356 . S
N814 H826 0.984 . S
N814 H827 0.985 . S
N815 C817 1.356 . S
N815 H820 0.984 . S
N815 H821 0.985 . S
C816 C810 1.379 . S
C816 C813 1.363 . S
C816 N814 1.356 . S
C817 C811 1.363 . S
C817 C812 1.379 . S
C817 N815 1.356 . S
N818 C810 1.356 . S
N818 H824 0.984 . S
N818 H825 0.984 . S
N819 C812 1.356 . S
N819 H822 0.984 . S
N819 H823 0.985 . S
H820 N815 0.984 . S
H821 N815 0.985 . S
H822 N819 0.984 . S
H823 N819 0.985 . S
H824 N818 0.984 . S
H825 N818 0.984 . S
H826 N814 0.984 . S
H827 N814 0.985 . S
C828 C829 1.363 . S
C828 C834 1.379 . S
C828 N836 1.356 . S
C829 C828 1.363 . S
C829 C835 1.363 . S
C830 C831 1.363 . S
C830 C835 1.379 . S
C830 N837 1.356 . S
C831 C830 1.363 . S
C831 C834 1.363 . S
N832 C834 1.356 . S
N832 H844 0.984 1_556 S
N832 H845 0.985 . S
N833 C835 1.356 . S
N833 H838 0.984 . S
N833 H839 0.985 . S
C834 C828 1.379 . S
C834 C831 1.363 . S
C834 N832 1.356 . S
C835 C829 1.363 . S
C835 C830 1.379 . S
C835 N833 1.356 . S
N836 C828 1.356 . S
N836 H842 0.984 1_556 S
N836 H843 0.984 . S
N837 C830 1.356 . S
N837 H840 0.984 . S
N837 H841 0.985 . S
H838 N833 0.984 . S
H839 N833 0.985 . S
H840 N837 0.984 . S
H841 N837 0.985 . S
H842 N836 0.984 1_554 S
H843 N836 0.984 . S
H844 N832 0.984 1_554 S
H845 N832 0.985 . S
C846 C847 1.363 . S
C846 C852 1.379 . S
C846 N854 1.356 . S
C847 C846 1.363 . S
C847 C853 1.363 . S
C848 C849 1.363 . S
C848 C853 1.379 . S
C848 N855 1.356 . S
C849 C848 1.363 . S
C849 C852 1.363 . S
N850 C852 1.356 . S
N850 H862 0.984 . S
N850 H863 0.985 . S
N851 C853 1.356 . S
N851 H856 0.984 . S
N851 H857 0.985 1_556 S
C852 C846 1.379 . S
C852 C849 1.363 . S
C852 N850 1.356 . S
C853 C847 1.363 . S
C853 C848 1.379 . S
C853 N851 1.356 . S
N854 C846 1.356 . S
N854 H860 0.984 . S
N854 H861 0.984 . S
N855 C848 1.356 . S
N855 H858 0.984 . S
N855 H859 0.985 1_556 S
H856 N851 0.984 . S
H857 N851 0.985 1_554 S
H858 N855 0.984 . S
H859 N855 0.985 1_554 S
H860 N854 0.984 . S
H861 N854 0.984 . S
H862 N850 0.984 . S
H863 N850 0.985 . S
C864 C865 1.363 . S
C864 C870 1.379 . S
C864 N872 1.356 . S
C865 C864 1.363 . S
C865 C871 1.363 . S
C866 C867 1.363 . S
C866 C871 1.379 . S
C866 N873 1.356 . S
C867 C866 1.363 . S
C867 C870 1.363 . S
N868 C870 1.356 . S
N868 H880 0.984 1_556 S
N868 H881 0.985 . S
N869 C871 1.356 . S
N869 H874 0.984 . S
N869 H875 0.985 . S
C870 C864 1.379 . S
C870 C867 1.363 . S
C870 N868 1.356 . S
C871 C865 1.363 . S
C871 C866 1.379 . S
C871 N869 1.356 . S
N872 C864 1.356 . S
N872 H878 0.984 1_556 S
N872 H879 0.984 . S
N873 C866 1.356 . S
N873 H876 0.984 . S
N873 H877 0.985 . S
H874 N869 0.984 . S
H875 N869 0.985 . S
H876 N873 0.984 . S
H877 N873 0.985 . S
H878 N872 0.984 1_554 S
H879 N872 0.984 . S
H880 N868 0.984 1_554 S
H881 N868 0.985 . S
C882 C883 1.363 . S
C882 C888 1.379 . S
C882 N890 1.356 . S
C883 C882 1.363 . S
C883 C889 1.363 . S
C884 C885 1.363 . S
C884 C889 1.379 . S
C884 N891 1.356 . S
C885 C884 1.363 . S
C885 C888 1.363 . S
N886 C888 1.356 . S
N886 H898 0.984 . S
N886 H899 0.985 . S
N887 C889 1.356 . S
N887 H892 0.984 . S
N887 H893 0.985 1_556 S
C888 C882 1.379 . S
C888 C885 1.363 . S
C888 N886 1.356 . S
C889 C883 1.363 . S
C889 C884 1.379 . S
C889 N887 1.356 . S
N890 C882 1.356 . S
N890 H896 0.984 . S
N890 H897 0.984 . S
N891 C884 1.356 . S
N891 H894 0.984 . S
N891 H895 0.985 1_556 S
H892 N887 0.984 . S
H893 N887 0.985 1_554 S
H894 N891 0.984 . S
H895 N891 0.985 1_554 S
H896 N890 0.984 . S
H897 N890 0.984 . S
H898 N886 0.984 . S
H899 N886 0.985 . S
C900 C901 1.363 . S
C900 C906 1.379 . S
C900 N908 1.356 . S
C901 C900 1.363 . S
C901 C907 1.363 . S
C902 C903 1.363 . S
C902 C907 1.379 . S
C902 N909 1.356 . S
C903 C902 1.363 . S
C903 C906 1.363 . S
N904 C906 1.356 . S
N904 H916 0.984 . S
N904 H917 0.985 . S
N905 C907 1.356 . S
N905 H910 0.984 . S
N905 H911 0.985 1_556 S
C906 C900 1.379 . S
C906 C903 1.363 . S
C906 N904 1.356 . S
C907 C901 1.363 . S
C907 C902 1.379 . S
C907 N905 1.356 . S
N908 C900 1.356 . S
N908 H914 0.984 . S
N908 H915 0.984 . S
N909 C902 1.356 . S
N909 H912 0.984 . S
N909 H913 0.985 1_556 S
H910 N905 0.984 . S
H911 N905 0.985 1_554 S
H912 N909 0.984 . S
H913 N909 0.985 1_554 S
H914 N908 0.984 . S
H915 N908 0.984 . S
H916 N904 0.984 . S
H917 N904 0.985 . S
C918 C919 1.363 . S
C918 C924 1.379 . S
C918 N926 1.356 . S
C919 C918 1.363 . S
C919 C925 1.363 . S
C920 C921 1.363 . S
C920 C925 1.379 . S
C920 N927 1.356 . S
C921 C920 1.363 . S
C921 C924 1.363 . S
N922 C924 1.356 . S
N922 H934 0.984 1_556 S
N922 H935 0.985 . S
N923 C925 1.356 . S
N923 H928 0.984 . S
N923 H929 0.985 . S
C924 C918 1.379 . S
C924 C921 1.363 . S
C924 N922 1.356 . S
C925 C919 1.363 . S
C925 C920 1.379 . S
C925 N923 1.356 . S
N926 C918 1.356 . S
N926 H932 0.984 1_556 S
N926 H933 0.984 . S
N927 C920 1.356 . S
N927 H930 0.984 . S
N927 H931 0.985 . S
H928 N923 0.984 . S
H929 N923 0.985 . S
H930 N927 0.984 . S
H931 N927 0.985 . S
H932 N926 0.984 1_554 S
H933 N926 0.984 . S
H934 N922 0.984 1_554 S
H935 N922 0.985 . S
C936 C937 1.363 . S
C936 C942 1.379 . S
C936 N944 1.356 . S
C937 C936 1.363 . S
C937 C943 1.363 . S
C938 C939 1.363 . S
C938 C943 1.379 . S
C938 N945 1.356 . S
C939 C938 1.363 . S
C939 C942 1.363 . S
N940 C942 1.356 . S
N940 H952 0.984 . S
N940 H953 0.985 . S
N941 C943 1.356 . S
N941 H946 0.984 . S
N941 H947 0.985 . S
C942 C936 1.379 . S
C942 C939 1.363 . S
C942 N940 1.356 . S
C943 C937 1.363 . S
C943 C938 1.379 . S
C943 N941 1.356 . S
N944 C936 1.356 . S
N944 H950 0.984 . S
N944 H951 0.984 . S
N945 C938 1.356 . S
N945 H948 0.984 . S
N945 H949 0.985 . S
H946 N941 0.984 . S
H947 N941 0.985 . S
H948 N945 0.984 . S
H949 N945 0.985 . S
H950 N944 0.984 . S
H951 N944 0.984 . S
H952 N940 0.984 . S
H953 N940 0.985 . S
C954 C955 1.363 . S
C954 C960 1.379 . S
C954 N962 1.356 . S
C955 C954 1.363 . S
C955 C961 1.363 . S
C956 C957 1.363 . S
C956 C961 1.379 . S
C956 N963 1.356 . S
C957 C956 1.363 . S
C957 C960 1.363 . S
N958 C960 1.356 . S
N958 H970 0.984 . S
N958 H971 0.985 . S
N959 C961 1.356 . S
N959 H964 0.984 . S
N959 H965 0.985 1_554 S
C960 C954 1.379 . S
C960 C957 1.363 . S
C960 N958 1.356 . S
C961 C955 1.363 . S
C961 C956 1.379 . S
C961 N959 1.356 . S
N962 C954 1.356 . S
N962 H968 0.984 . S
N962 H969 0.984 . S
N963 C956 1.356 . S
N963 H966 0.984 . S
N963 H967 0.985 1_554 S
H964 N959 0.984 . S
H965 N959 0.985 1_556 S
H966 N963 0.984 . S
H967 N963 0.985 1_556 S
H968 N962 0.984 . S
H969 N962 0.984 . S
H970 N958 0.984 . S
H971 N958 0.985 . S
C972 C973 1.363 . S
C972 C978 1.379 . S
C972 N980 1.356 . S
C973 C972 1.363 . S
C973 C979 1.363 . S
C974 C975 1.363 . S
C974 C979 1.379 . S
C974 N981 1.356 . S
C975 C974 1.363 . S
C975 C978 1.363 . S
N976 C978 1.356 . S
N976 H988 0.984 1_554 S
N976 H989 0.985 . S
N977 C979 1.356 . S
N977 H982 0.984 . S
N977 H983 0.985 . S
C978 C972 1.379 . S
C978 C975 1.363 . S
C978 N976 1.356 . S
C979 C973 1.363 . S
C979 C974 1.379 . S
C979 N977 1.356 . S
N980 C972 1.356 . S
N980 H986 0.984 1_554 S
N980 H987 0.984 . S
N981 C974 1.356 . S
N981 H984 0.984 . S
N981 H985 0.985 . S
H982 N977 0.984 . S
H983 N977 0.985 . S
H984 N981 0.984 . S
H985 N981 0.985 . S
H986 N980 0.984 1_556 S
H987 N980 0.984 . S
H988 N976 0.984 1_556 S
H989 N976 0.985 . S
C990 C991 1.363 . S
C990 C996 1.379 . S
C990 N998 1.356 . S
C991 C990 1.363 . S
C991 C997 1.363 . S
C992 C993 1.363 . S
C992 C997 1.379 . S
C992 N999 1.356 . S
C993 C992 1.363 . S
C993 C996 1.363 . S
N994 C996 1.356 . S
N994 H1006 0.984 . S
N994 H1007 0.985 . S
N995 C997 1.356 . S
N995 H1000 0.984 . S
N995 H1001 0.985 1_554 S
C996 C990 1.379 . S
C996 C993 1.363 . S
C996 N994 1.356 . S
C997 C991 1.363 . S
C997 C992 1.379 . S
C997 N995 1.356 . S
N998 C990 1.356 . S
N998 H1004 0.984 . S
N998 H1005 0.984 . S
N999 C992 1.356 . S
N999 H1002 0.984 . S
N999 H1003 0.985 1_554 S
H1000 N995 0.984 . S
H1001 N995 0.985 1_556 S
H1002 N999 0.984 . S
H1003 N999 0.985 1_556 S
H1004 N998 0.984 . S
H1005 N998 0.984 . S
H1006 N994 0.984 . S
H1007 N994 0.985 . S
C1008 C1009 1.363 . S
C1008 C1014 1.379 . S
C1008 N1016 1.356 . S
C1009 C1008 1.363 . S
C1009 C1015 1.363 . S
C1010 C1011 1.363 . S
C1010 C1015 1.379 . S
C1010 N1017 1.356 . S
C1011 C1010 1.363 . S
C1011 C1014 1.363 . S
N1012 C1014 1.356 . S
N1012 H1024 0.984 . S
N1012 H1025 0.985 . S
N1013 C1015 1.356 . S
N1013 H1018 0.984 . S
N1013 H1019 0.985 1_554 S
C1014 C1008 1.379 . S
C1014 C1011 1.363 . S
C1014 N1012 1.356 . S
C1015 C1009 1.363 . S
C1015 C1010 1.379 . S
C1015 N1013 1.356 . S
N1016 C1008 1.356 . S
N1016 H1022 0.984 . S
N1016 H1023 0.984 . S
N1017 C1010 1.356 . S
N1017 H1020 0.984 . S
N1017 H1021 0.985 1_554 S
H1018 N1013 0.984 . S
H1019 N1013 0.985 1_556 S
H1020 N1017 0.984 . S
H1021 N1017 0.985 1_556 S
H1022 N1016 0.984 . S
H1023 N1016 0.984 . S
H1024 N1012 0.984 . S
H1025 N1012 0.985 . S
C1026 C1027 1.363 . S
C1026 C1032 1.379 . S
C1026 N1034 1.356 . S
C1027 C1026 1.363 . S
C1027 C1033 1.363 . S
C1028 C1029 1.363 . S
C1028 C1033 1.379 . S
C1028 N1035 1.356 . S
C1029 C1028 1.363 . S
C1029 C1032 1.363 . S
N1030 C1032 1.356 . S
N1030 H1042 0.984 . S
N1030 H1043 0.985 . S
N1031 C1033 1.356 . S
N1031 H1036 0.984 . S
N1031 H1037 0.985 . S
C1032 C1026 1.379 . S
C1032 C1029 1.363 . S
C1032 N1030 1.356 . S
C1033 C1027 1.363 . S
C1033 C1028 1.379 . S
C1033 N1031 1.356 . S
N1034 C1026 1.356 . S
N1034 H1040 0.984 . S
N1034 H1041 0.984 . S
N1035 C1028 1.356 . S
N1035 H1038 0.984 . S
N1035 H1039 0.985 . S
H1036 N1031 0.984 . S
H1037 N1031 0.985 . S
H1038 N1035 0.984 . S
H1039 N1035 0.985 . S
H1040 N1034 0.984 . S
H1041 N1034 0.984 . S
H1042 N1030 0.984 . S
H1043 N1030 0.985 . S
C1044 C1045 1.363 . S
C1044 C1050 1.379 1_554 S
C1044 N1052 1.356 . S
C1045 C1044 1.363 . S
C1045 C1051 1.363 . S
C1046 C1047 1.363 . S
C1046 C1051 1.379 1_556 S
C1046 N1053 1.356 . S
C1047 C1046 1.363 . S
C1047 C1050 1.363 . S
N1048 C1050 1.356 . S
N1048 H1060 0.984 . S
N1048 H1061 0.985 . S
N1049 C1051 1.356 . S
N1049 H1054 0.984 . S
N1049 H1055 0.985 . S
C1050 C1044 1.379 1_556 S
C1050 C1047 1.363 . S
C1050 N1048 1.356 . S
C1051 C1045 1.363 . S
C1051 C1046 1.379 1_554 S
C1051 N1049 1.356 . S
N1052 C1044 1.356 . S
N1052 H1058 0.984 . S
N1052 H1059 0.984 . S
N1053 C1046 1.356 . S
N1053 H1056 0.984 . S
N1053 H1057 0.985 . S
H1054 N1049 0.984 . S
H1055 N1049 0.985 . S
H1056 N1053 0.984 . S
H1057 N1053 0.985 . S
H1058 N1052 0.984 . S
H1059 N1052 0.984 . S
H1060 N1048 0.984 . S
H1061 N1048 0.985 . S
C1062 C1063 1.363 . S
C1062 C1068 1.379 1_554 S
C1062 N1070 1.356 . S
C1063 C1062 1.363 . S
C1063 C1069 1.363 . S
C1064 C1065 1.363 . S
C1064 C1069 1.379 1_556 S
C1064 N1071 1.356 . S
C1065 C1064 1.363 . S
C1065 C1068 1.363 . S
N1066 C1068 1.356 . S
N1066 H1078 0.984 . S
N1066 H1079 0.985 . S
N1067 C1069 1.356 . S
N1067 H1072 0.984 . S
N1067 H1073 0.985 . S
C1068 C1062 1.379 1_556 S
C1068 C1065 1.363 . S
C1068 N1066 1.356 . S
C1069 C1063 1.363 . S
C1069 C1064 1.379 1_554 S
C1069 N1067 1.356 . S
N1070 C1062 1.356 . S
N1070 H1076 0.984 . S
N1070 H1077 0.984 . S
N1071 C1064 1.356 . S
N1071 H1074 0.984 . S
N1071 H1075 0.985 . S
H1072 N1067 0.984 . S
H1073 N1067 0.985 . S
H1074 N1071 0.984 . S
H1075 N1071 0.985 . S
H1076 N1070 0.984 . S
H1077 N1070 0.984 . S
H1078 N1066 0.984 . S
H1079 N1066 0.985 . S
C1080 C1081 1.363 1_565 S
C1080 C1086 1.379 1_554 S
C1080 N1088 1.356 . S
C1081 C1080 1.363 1_545 S
C1081 C1087 1.363 . S
C1082 C1083 1.363 . S
C1082 C1087 1.379 1_556 S
C1082 N1089 1.356 . S
C1083 C1082 1.363 . S
C1083 C1086 1.363 1_545 S
N1084 C1086 1.356 . S
N1084 H1096 0.984 . S
N1084 H1097 0.985 . S
N1085 C1087 1.356 . S
N1085 H1090 0.984 . S
N1085 H1091 0.985 . S
C1086 C1080 1.379 1_556 S
C1086 C1083 1.363 1_565 S
C1086 N1084 1.356 . S
C1087 C1081 1.363 . S
C1087 C1082 1.379 1_554 S
C1087 N1085 1.356 . S
N1088 C1080 1.356 . S
N1088 H1094 0.984 . S
N1088 H1095 0.984 . S
N1089 C1082 1.356 . S
N1089 H1092 0.984 . S
N1089 H1093 0.985 . S
H1090 N1085 0.984 . S
H1091 N1085 0.985 . S
H1092 N1089 0.984 . S
H1093 N1089 0.985 . S
H1094 N1088 0.984 . S
H1095 N1088 0.984 . S
H1096 N1084 0.984 . S
H1097 N1084 0.985 . S
C1098 C1099 1.363 . S
C1098 C1104 1.379 1_556 S
C1098 N1106 1.356 . S
C1099 C1098 1.363 . S
C1099 C1105 1.363 1_455 S
C1100 C1101 1.363 1_655 S
C1100 C1105 1.379 1_554 S
C1100 N1107 1.356 . S
C1101 C1100 1.363 1_455 S
C1101 C1104 1.363 . S
N1102 C1104 1.356 . S
N1102 H1114 0.984 . S
N1102 H1115 0.985 . S
N1103 C1105 1.356 . S
N1103 H1108 0.984 . S
N1103 H1109 0.985 . S
C1104 C1098 1.379 1_554 S
C1104 C1101 1.363 . S
C1104 N1102 1.356 . S
C1105 C1099 1.363 1_655 S
C1105 C1100 1.379 1_556 S
C1105 N1103 1.356 . S
N1106 C1098 1.356 . S
N1106 H1112 0.984 . S
N1106 H1113 0.984 . S
N1107 C1100 1.356 . S
N1107 H1110 0.984 . S
N1107 H1111 0.985 . S
H1108 N1103 0.984 . S
H1109 N1103 0.985 . S
H1110 N1107 0.984 . S
H1111 N1107 0.985 . S
H1112 N1106 0.984 . S
H1113 N1106 0.984 . S
H1114 N1102 0.984 . S
H1115 N1102 0.985 . S
C1116 C1117 1.363 . S
C1116 C1122 1.379 1_554 S
C1116 N1124 1.356 . S
C1117 C1116 1.363 . S
C1117 C1123 1.363 . S
C1118 C1119 1.363 . S
C1118 C1123 1.379 1_556 S
C1118 N1125 1.356 . S
C1119 C1118 1.363 . S
C1119 C1122 1.363 . S
N1120 C1122 1.356 . S
N1120 H1132 0.984 . S
N1120 H1133 0.985 . S
N1121 C1123 1.356 . S
N1121 H1126 0.984 . S
N1121 H1127 0.985 . S
C1122 C1116 1.379 1_556 S
C1122 C1119 1.363 . S
C1122 N1120 1.356 . S
C1123 C1117 1.363 . S
C1123 C1118 1.379 1_554 S
C1123 N1121 1.356 . S
N1124 C1116 1.356 . S
N1124 H1130 0.984 . S
N1124 H1131 0.984 . S
N1125 C1118 1.356 . S
N1125 H1128 0.984 . S
N1125 H1129 0.985 . S
H1126 N1121 0.984 . S
H1127 N1121 0.985 . S
H1128 N1125 0.984 . S
H1129 N1125 0.985 . S
H1130 N1124 0.984 . S
H1131 N1124 0.984 . S
H1132 N1120 0.984 . S
H1133 N1120 0.985 . S
C1134 C1135 1.363 . S
C1134 C1140 1.379 1_554 S
C1134 N1142 1.356 . S
C1135 C1134 1.363 . S
C1135 C1141 1.363 1_545 S
C1136 C1137 1.363 1_565 S
C1136 C1141 1.379 1_556 S
C1136 N1143 1.356 . S
C1137 C1136 1.363 1_545 S
C1137 C1140 1.363 . S
N1138 C1140 1.356 . S
N1138 H1150 0.984 . S
N1138 H1151 0.985 . S
N1139 C1141 1.356 . S
N1139 H1144 0.984 . S
N1139 H1145 0.985 . S
C1140 C1134 1.379 1_556 S
C1140 C1137 1.363 . S
C1140 N1138 1.356 . S
C1141 C1135 1.363 1_565 S
C1141 C1136 1.379 1_554 S
C1141 N1139 1.356 . S
N1142 C1134 1.356 . S
N1142 H1148 0.984 . S
N1142 H1149 0.984 . S
N1143 C1136 1.356 . S
N1143 H1146 0.984 . S
N1143 H1147 0.985 . S
H1144 N1139 0.984 . S
H1145 N1139 0.985 . S
H1146 N1143 0.984 . S
H1147 N1143 0.985 . S
H1148 N1142 0.984 . S
H1149 N1142 0.984 . S
H1150 N1138 0.984 . S
H1151 N1138 0.985 . S
C1152 C1153 1.363 . S
C1152 C1158 1.379 . S
C1152 N1160 1.356 . S
C1153 C1152 1.363 . S
C1153 C1159 1.363 . S
C1154 C1155 1.363 . S
C1154 C1159 1.379 . S
C1154 N1161 1.356 . S
C1155 C1154 1.363 . S
C1155 C1158 1.363 . S
N1156 C1158 1.356 . S
N1156 H1168 0.984 . S
N1156 H1169 0.985 . S
N1157 C1159 1.356 . S
N1157 H1162 0.984 . S
N1157 H1163 0.985 . S
C1158 C1152 1.379 . S
C1158 C1155 1.363 . S
C1158 N1156 1.356 . S
C1159 C1153 1.363 . S
C1159 C1154 1.379 . S
C1159 N1157 1.356 . S
N1160 C1152 1.356 . S
N1160 H1166 0.984 . S
N1160 H1167 0.984 . S
N1161 C1154 1.356 . S
N1161 H1164 0.984 . S
N1161 H1165 0.985 . S
H1162 N1157 0.984 . S
H1163 N1157 0.985 . S
H1164 N1161 0.984 . S
H1165 N1161 0.985 . S
H1166 N1160 0.984 . S
H1167 N1160 0.984 . S
H1168 N1156 0.984 . S
H1169 N1156 0.985 . S
C1170 C1171 1.363 . S
C1170 C1176 1.379 . S
C1170 N1178 1.356 . S
C1171 C1170 1.363 . S
C1171 C1177 1.363 . S
C1172 C1173 1.363 . S
C1172 C1177 1.379 . S
C1172 N1179 1.356 . S
C1173 C1172 1.363 . S
C1173 C1176 1.363 . S
N1174 C1176 1.356 . S
N1174 H1186 0.984 . S
N1174 H1187 0.985 . S
N1175 C1177 1.356 . S
N1175 H1180 0.984 . S
N1175 H1181 0.985 . S
C1176 C1170 1.379 . S
C1176 C1173 1.363 . S
C1176 N1174 1.356 . S
C1177 C1171 1.363 . S
C1177 C1172 1.379 . S
C1177 N1175 1.356 . S
N1178 C1170 1.356 . S
N1178 H1184 0.984 . S
N1178 H1185 0.984 . S
N1179 C1172 1.356 . S
N1179 H1182 0.984 . S
N1179 H1183 0.985 . S
H1180 N1175 0.984 . S
H1181 N1175 0.985 . S
H1182 N1179 0.984 . S
H1183 N1179 0.985 . S
H1184 N1178 0.984 . S
H1185 N1178 0.984 . S
H1186 N1174 0.984 . S
H1187 N1174 0.985 . S
C1188 C1189 1.363 . S
C1188 C1194 1.379 . S
C1188 N1196 1.356 . S
C1189 C1188 1.363 . S
C1189 C1195 1.363 . S
C1190 C1191 1.363 . S
C1190 C1195 1.379 . S
C1190 N1197 1.356 . S
C1191 C1190 1.363 . S
C1191 C1194 1.363 . S
N1192 C1194 1.356 . S
N1192 H1204 0.984 . S
N1192 H1205 0.985 . S
N1193 C1195 1.356 . S
N1193 H1198 0.984 . S
N1193 H1199 0.985 . S
C1194 C1188 1.379 . S
C1194 C1191 1.363 . S
C1194 N1192 1.356 . S
C1195 C1189 1.363 . S
C1195 C1190 1.379 . S
C1195 N1193 1.356 . S
N1196 C1188 1.356 . S
N1196 H1202 0.984 . S
N1196 H1203 0.984 . S
N1197 C1190 1.356 . S
N1197 H1200 0.984 . S
N1197 H1201 0.985 . S
H1198 N1193 0.984 . S
H1199 N1193 0.985 . S
H1200 N1197 0.984 . S
H1201 N1197 0.985 . S
H1202 N1196 0.984 . S
H1203 N1196 0.984 . S
H1204 N1192 0.984 . S
H1205 N1192 0.985 . S
C1206 C1207 1.363 . S
C1206 C1212 1.379 . S
C1206 N1214 1.356 . S
C1207 C1206 1.363 . S
C1207 C1213 1.363 . S
C1208 C1209 1.363 . S
C1208 C1213 1.379 . S
C1208 N1215 1.356 . S
C1209 C1208 1.363 . S
C1209 C1212 1.363 . S
N1210 C1212 1.356 . S
N1210 H1222 0.984 . S
N1210 H1223 0.985 . S
N1211 C1213 1.356 . S
N1211 H1216 0.984 . S
N1211 H1217 0.985 . S
C1212 C1206 1.379 . S
C1212 C1209 1.363 . S
C1212 N1210 1.356 . S
C1213 C1207 1.363 . S
C1213 C1208 1.379 . S
C1213 N1211 1.356 . S
N1214 C1206 1.356 . S
N1214 H1220 0.984 . S
N1214 H1221 0.984 . S
N1215 C1208 1.356 . S
N1215 H1218 0.984 . S
N1215 H1219 0.985 . S
H1216 N1211 0.984 . S
H1217 N1211 0.985 . S
H1218 N1215 0.984 . S
H1219 N1215 0.985 . S
H1220 N1214 0.984 . S
H1221 N1214 0.984 . S
H1222 N1210 0.984 . S
H1223 N1210 0.985 . S
C1224 C1225 1.363 . S
C1224 C1230 1.379 . S
C1224 N1232 1.356 . S
C1225 C1224 1.363 . S
C1225 C1231 1.363 . S
C1226 C1227 1.363 . S
C1226 C1231 1.379 . S
C1226 N1233 1.356 . S
C1227 C1226 1.363 . S
C1227 C1230 1.363 . S
N1228 C1230 1.356 . S
N1228 H1240 0.984 . S
N1228 H1241 0.985 . S
N1229 C1231 1.356 . S
N1229 H1234 0.984 . S
N1229 H1235 0.985 . S
C1230 C1224 1.379 . S
C1230 C1227 1.363 . S
C1230 N1228 1.356 . S
C1231 C1225 1.363 . S
C1231 C1226 1.379 . S
C1231 N1229 1.356 . S
N1232 C1224 1.356 . S
N1232 H1238 0.984 . S
N1232 H1239 0.984 . S
N1233 C1226 1.356 . S
N1233 H1236 0.984 . S
N1233 H1237 0.985 . S
H1234 N1229 0.984 . S
H1235 N1229 0.985 . S
H1236 N1233 0.984 . S
H1237 N1233 0.985 . S
H1238 N1232 0.984 . S
H1239 N1232 0.984 . S
H1240 N1228 0.984 . S
H1241 N1228 0.985 . S
C1242 C1243 1.363 . S
C1242 C1248 1.379 . S
C1242 N1250 1.356 . S
C1243 C1242 1.363 . S
C1243 C1249 1.363 . S
C1244 C1245 1.363 . S
C1244 C1249 1.379 . S
C1244 N1251 1.356 . S
C1245 C1244 1.363 . S
C1245 C1248 1.363 . S
N1246 C1248 1.356 . S
N1246 H1258 0.984 . S
N1246 H1259 0.985 . S
N1247 C1249 1.356 . S
N1247 H1252 0.984 . S
N1247 H1253 0.985 . S
C1248 C1242 1.379 . S
C1248 C1245 1.363 . S
C1248 N1246 1.356 . S
C1249 C1243 1.363 . S
C1249 C1244 1.379 . S
C1249 N1247 1.356 . S
N1250 C1242 1.356 . S
N1250 H1256 0.984 . S
N1250 H1257 0.984 . S
N1251 C1244 1.356 . S
N1251 H1254 0.984 . S
N1251 H1255 0.985 . S
H1252 N1247 0.984 . S
H1253 N1247 0.985 . S
H1254 N1251 0.984 . S
H1255 N1251 0.985 . S
H1256 N1250 0.984 . S
H1257 N1250 0.984 . S
H1258 N1246 0.984 . S
H1259 N1246 0.985 . S
C1260 C1261 1.363 . S
C1260 C1266 1.379 . S
C1260 N1268 1.356 . S
C1261 C1260 1.363 . S
C1261 C1267 1.363 . S
C1262 C1263 1.363 . S
C1262 C1267 1.379 . S
C1262 N1269 1.356 . S
C1263 C1262 1.363 . S
C1263 C1266 1.363 . S
N1264 C1266 1.356 . S
N1264 H1276 0.984 . S
N1264 H1277 0.985 . S
N1265 C1267 1.356 . S
N1265 H1270 0.984 . S
N1265 H1271 0.985 . S
C1266 C1260 1.379 . S
C1266 C1263 1.363 . S
C1266 N1264 1.356 . S
C1267 C1261 1.363 . S
C1267 C1262 1.379 . S
C1267 N1265 1.356 . S
N1268 C1260 1.356 . S
N1268 H1274 0.984 . S
N1268 H1275 0.984 . S
N1269 C1262 1.356 . S
N1269 H1272 0.984 . S
N1269 H1273 0.985 . S
H1270 N1265 0.984 . S
H1271 N1265 0.985 . S
H1272 N1269 0.984 . S
H1273 N1269 0.985 . S
H1274 N1268 0.984 . S
H1275 N1268 0.984 . S
H1276 N1264 0.984 . S
H1277 N1264 0.985 . S
C1278 C1279 1.363 . S
C1278 C1284 1.379 . S
C1278 N1286 1.356 . S
C1279 C1278 1.363 . S
C1279 C1285 1.363 . S
C1280 C1281 1.363 . S
C1280 C1285 1.379 . S
C1280 N1287 1.356 . S
C1281 C1280 1.363 . S
C1281 C1284 1.363 . S
N1282 C1284 1.356 . S
N1282 H1294 0.984 . S
N1282 H1295 0.985 . S
N1283 C1285 1.356 . S
N1283 H1288 0.984 . S
N1283 H1289 0.985 . S
C1284 C1278 1.379 . S
C1284 C1281 1.363 . S
C1284 N1282 1.356 . S
C1285 C1279 1.363 . S
C1285 C1280 1.379 . S
C1285 N1283 1.356 . S
N1286 C1278 1.356 . S
N1286 H1292 0.984 . S
N1286 H1293 0.984 . S
N1287 C1280 1.356 . S
N1287 H1290 0.984 . S
N1287 H1291 0.985 . S
H1288 N1283 0.984 . S
H1289 N1283 0.985 . S
H1290 N1287 0.984 . S
H1291 N1287 0.985 . S
H1292 N1286 0.984 . S
H1293 N1286 0.984 . S
H1294 N1282 0.984 . S
H1295 N1282 0.985 . S
C1296 C1297 1.363 . S
C1296 C1302 1.379 . S
C1296 N1304 1.356 . S
C1297 C1296 1.363 . S
C1297 C1303 1.363 . S
C1298 C1299 1.363 . S
C1298 C1303 1.379 . S
C1298 N1305 1.356 . S
C1299 C1298 1.363 . S
C1299 C1302 1.363 . S
N1300 C1302 1.356 . S
N1300 H1312 0.984 . S
N1300 H1313 0.985 . S
N1301 C1303 1.356 . S
N1301 H1306 0.984 . S
N1301 H1307 0.985 . S
C1302 C1296 1.379 . S
C1302 C1299 1.363 . S
C1302 N1300 1.356 . S
C1303 C1297 1.363 . S
C1303 C1298 1.379 . S
C1303 N1301 1.356 . S
N1304 C1296 1.356 . S
N1304 H1310 0.984 . S
N1304 H1311 0.984 . S
N1305 C1298 1.356 . S
N1305 H1308 0.984 . S
N1305 H1309 0.985 . S
H1306 N1301 0.984 . S
H1307 N1301 0.985 . S
H1308 N1305 0.984 . S
H1309 N1305 0.985 . S
H1310 N1304 0.984 . S
H1311 N1304 0.984 . S
H1312 N1300 0.984 . S
H1313 N1300 0.985 . S
C1314 C1315 1.363 . S
C1314 C1320 1.379 . S
C1314 N1322 1.356 . S
C1315 C1314 1.363 . S
C1315 C1321 1.363 . S
C1316 C1317 1.363 . S
C1316 C1321 1.379 . S
C1316 N1323 1.356 . S
C1317 C1316 1.363 . S
C1317 C1320 1.363 . S
N1318 C1320 1.356 . S
N1318 H1330 0.984 . S
N1318 H1331 0.985 . S
N1319 C1321 1.356 . S
N1319 H1324 0.984 . S
N1319 H1325 0.985 . S
C1320 C1314 1.379 . S
C1320 C1317 1.363 . S
C1320 N1318 1.356 . S
C1321 C1315 1.363 . S
C1321 C1316 1.379 . S
C1321 N1319 1.356 . S
N1322 C1314 1.356 . S
N1322 H1328 0.984 . S
N1322 H1329 0.984 . S
N1323 C1316 1.356 . S
N1323 H1326 0.984 . S
N1323 H1327 0.985 . S
H1324 N1319 0.984 . S
H1325 N1319 0.985 . S
H1326 N1323 0.984 . S
H1327 N1323 0.985 . S
H1328 N1322 0.984 . S
H1329 N1322 0.984 . S
H1330 N1318 0.984 . S
H1331 N1318 0.985 . S
C1332 C1333 1.363 . S
C1332 C1338 1.379 . S
C1332 N1340 1.356 . S
C1333 C1332 1.363 . S
C1333 C1339 1.363 . S
C1334 C1335 1.363 . S
C1334 C1339 1.379 . S
C1334 N1341 1.356 . S
C1335 C1334 1.363 . S
C1335 C1338 1.363 . S
N1336 C1338 1.356 . S
N1336 H1348 0.984 . S
N1336 H1349 0.985 . S
N1337 C1339 1.356 . S
N1337 H1342 0.984 . S
N1337 H1343 0.985 . S
C1338 C1332 1.379 . S
C1338 C1335 1.363 . S
C1338 N1336 1.356 . S
C1339 C1333 1.363 . S
C1339 C1334 1.379 . S
C1339 N1337 1.356 . S
N1340 C1332 1.356 . S
N1340 H1346 0.984 . S
N1340 H1347 0.984 . S
N1341 C1334 1.356 . S
N1341 H1344 0.984 . S
N1341 H1345 0.985 . S
H1342 N1337 0.984 . S
H1343 N1337 0.985 . S
H1344 N1341 0.984 . S
H1345 N1341 0.985 . S
H1346 N1340 0.984 . S
H1347 N1340 0.984 . S
H1348 N1336 0.984 . S
H1349 N1336 0.985 . S
C1350 C1351 1.363 . S
C1350 C1356 1.379 . S
C1350 N1358 1.356 . S
C1351 C1350 1.363 . S
C1351 C1357 1.363 . S
C1352 C1353 1.363 . S
C1352 C1357 1.379 . S
C1352 N1359 1.356 . S
C1353 C1352 1.363 . S
C1353 C1356 1.363 . S
N1354 C1356 1.356 . S
N1354 H1366 0.984 . S
N1354 H1367 0.985 . S
N1355 C1357 1.356 . S
N1355 H1360 0.984 . S
N1355 H1361 0.985 . S
C1356 C1350 1.379 . S
C1356 C1353 1.363 . S
C1356 N1354 1.356 . S
C1357 C1351 1.363 . S
C1357 C1352 1.379 . S
C1357 N1355 1.356 . S
N1358 C1350 1.356 . S
N1358 H1364 0.984 . S
N1358 H1365 0.984 . S
N1359 C1352 1.356 . S
N1359 H1362 0.984 . S
N1359 H1363 0.985 . S
H1360 N1355 0.984 . S
H1361 N1355 0.985 . S
H1362 N1359 0.984 . S
H1363 N1359 0.985 . S
H1364 N1358 0.984 . S
H1365 N1358 0.984 . S
H1366 N1354 0.984 . S
H1367 N1354 0.985 . S
C397 C294 1.280 . S
C399 C4 1.280 . S
C415 C26 1.280 . S
C417 C316 1.280 . S
C433 C48 1.280 . S
C435 C272 1.280 . S
C451 C52 1.280 . S
C453 C158 1.280 . S
C469 C180 1.280 . S
C471 C8 1.280 . S
C487 C30 1.280 . S
C489 C136 1.280 . S
C505 C74 1.280 . S
C507 C224 1.280 . S
C523 C96 1.280 . S
C525 C246 1.280 . S
C541 C202 1.280 . S
C543 C118 1.280 . S
C559 C360 1.280 . S
C561 C114 1.280 . S
C577 C70 1.280 . S
C579 C382 1.280 . S
C595 C338 1.280 . S
C597 C92 1.280 . S
C613 C184 1.280 . S
C615 C290 1.280 . S
C631 C140 1.280 . S
C633 C312 1.280 . S
C649 C162 1.280 . S
C651 C268 1.280 . S
C667 C206 1.280 . S
C669 C356 1.280 . S
C685 C378 1.280 . S
C687 C228 1.280 . S
C703 C334 1.280 . S
C705 C250 1.280 . S
C721 C6 1.585 . S
C723 C93 1.585 . S
C739 C115 1.585 . S
C741 C28 1.585 . S
C757 C71 1.585 . S
C759 C50 1.585 . S
C775 C97 1.585 . S
C777 C51 1.585 . S
C793 C119 1.585 . S
C795 C7 1.585 . S
C811 C75 1.585 . S
C813 C29 1.585 . S
C829 C225 1.585 . S
C831 C138 1.585 . S
C847 C247 1.585 . S
C849 C160 1.585 . S
C865 C203 1.585 . S
C867 C182 1.585 . S
C883 C229 1.585 . S
C885 C183 1.585 . S
C901 C251 1.585 . S
C903 C139 1.585 . S
C919 C207 1.585 . S
C921 C161 1.585 . S
C937 C357 1.585 . S
C939 C270 1.585 . S
C955 C379 1.585 . S
C957 C292 1.585 . S
C973 C314 1.585 . S
C975 C335 1.585 . S
C991 C315 1.585 . S
C993 C361 1.585 . S
C1009 C271 1.585 . S
C1011 C383 1.585 . S
C1027 C339 1.585 . S
C1029 C293 1.585 . S
C1045 C5 1.658 . S
C1047 C9 1.658 . S
C1063 C27 1.658 . S
C1065 C31 1.658 . S
C1081 C49 1.658 . S
C1083 C53 1.658 . S
C1099 C73 1.658 . S
C1101 C72 1.658 . S
C1117 C94 1.658 . S
C1119 C95 1.658 . S
C1135 C116 1.658 . S
C1137 C117 1.658 . S
C1153 C141 1.658 . S
C1155 C137 1.658 . S
C1171 C159 1.658 . S
C1173 C163 1.658 . S
C1189 C185 1.658 . S
C1191 C181 1.658 . S
C1207 C205 1.658 . S
C1209 C204 1.658 . S
C1225 C227 1.658 . S
C1227 C226 1.658 . S
C1243 C249 1.658 . S
C1245 C248 1.658 . S
C1261 C273 1.658 . S
C1263 C269 1.658 . S
C1279 C291 1.658 . S
C1281 C295 1.658 . S
C1297 C313 1.658 . S
C1299 C317 1.658 . S
C1315 C336 1.658 . S
C1317 C337 1.658 . S
C1333 C358 1.658 . S
C1335 C359 1.658 . S
C1351 C381 1.658 . S
C1353 C380 1.658 . S
