# Generated by pormake.
# Topology umj, (4)-cn, num edge types: 1
# Building blocks:
#     Node 0, Type 0, BuildingBlock: QUQFOY_clean_sbu_1, # of connection points: 4
#     Node 1, Type 0, BuildingBlock: QUQFOY_clean_sbu_1, # of connection points: 4
#     Node 2, Type 0, BuildingBlock: QUQFOY_clean_sbu_1, # of connection points: 4
#     Node 3, Type 0, BuildingBlock: QUQFOY_clean_sbu_1, # of connection points: 4
#     Node 4, Type 0, BuildingBlock: QUQFOY_clean_sbu_1, # of connection points: 4
#     Node 5, Type 0, BuildingBlock: QUQFOY_clean_sbu_1, # of connection points: 4
#     Node 6, Type 0, BuildingBlock: QUQFOY_clean_sbu_1, # of connection points: 4
#     Node 7, Type 0, BuildingBlock: QUQFOY_clean_sbu_1, # of connection points: 4
#     Node 8, Type 0, BuildingBlock: QUQFOY_clean_sbu_1, # of connection points: 4
#     Node 9, Type 0, BuildingBlock: QUQFOY_clean_sbu_1, # of connection points: 4
#     Node 10, Type 0, BuildingBlock: QUQFOY_clean_sbu_1, # of connection points: 4
#     Node 11, Type 0, BuildingBlock: QUQFOY_clean_sbu_1, # of connection points: 4
#     Edge 12, Type (0, 0), BuildingBlock: UVAHIK_clean_linker_0, # of connection points: 2
#     Edge 13, Type (0, 0), BuildingBlock: UVAHIK_clean_linker_0, # of connection points: 2
#     Edge 14, Type (0, 0), BuildingBlock: UVAHIK_clean_linker_0, # of connection points: 2
#     Edge 15, Type (0, 0), BuildingBlock: UVAHIK_clean_linker_0, # of connection points: 2
#     Edge 16, Type (0, 0), BuildingBlock: UVAHIK_clean_linker_0, # of connection points: 2
#     Edge 17, Type (0, 0), BuildingBlock: UVAHIK_clean_linker_0, # of connection points: 2
#     Edge 18, Type (0, 0), BuildingBlock: UVAHIK_clean_linker_0, # of connection points: 2
#     Edge 19, Type (0, 0), BuildingBlock: UVAHIK_clean_linker_0, # of connection points: 2
#     Edge 20, Type (0, 0), BuildingBlock: UVAHIK_clean_linker_0, # of connection points: 2
#     Edge 21, Type (0, 0), BuildingBlock: UVAHIK_clean_linker_0, # of connection points: 2
#     Edge 22, Type (0, 0), BuildingBlock: UVAHIK_clean_linker_0, # of connection points: 2
#     Edge 23, Type (0, 0), BuildingBlock: UVAHIK_clean_linker_0, # of connection points: 2
#     Edge 24, Type (0, 0), BuildingBlock: UVAHIK_clean_linker_0, # of connection points: 2
#     Edge 25, Type (0, 0), BuildingBlock: UVAHIK_clean_linker_0, # of connection points: 2
#     Edge 26, Type (0, 0), BuildingBlock: UVAHIK_clean_linker_0, # of connection points: 2
#     Edge 27, Type (0, 0), BuildingBlock: UVAHIK_clean_linker_0, # of connection points: 2
#     Edge 28, Type (0, 0), BuildingBlock: UVAHIK_clean_linker_0, # of connection points: 2
#     Edge 29, Type (0, 0), BuildingBlock: UVAHIK_clean_linker_0, # of connection points: 2
#     Edge 30, Type (0, 0), BuildingBlock: UVAHIK_clean_linker_0, # of connection points: 2
#     Edge 31, Type (0, 0), BuildingBlock: UVAHIK_clean_linker_0, # of connection points: 2
#     Edge 32, Type (0, 0), BuildingBlock: UVAHIK_clean_linker_0, # of connection points: 2
#     Edge 33, Type (0, 0), BuildingBlock: UVAHIK_clean_linker_0, # of connection points: 2
#     Edge 34, Type (0, 0), BuildingBlock: UVAHIK_clean_linker_0, # of connection points: 2
#     Edge 35, Type (0, 0), BuildingBlock: UVAHIK_clean_linker_0, # of connection points: 2
# Relax obj value: 0.073
# Max RMSD: 0.410
# Mean RMSD: 0.258
data_MOF--net-umj--node1-QUQFOY_clean_sbu_1--edge1-UVAHIK_clean_linker_0
_symmetry_space_group_name_H-M    P1
_symmetry_Int_Tables_number       1
_symmetry_cell_setting            triclinic
loop_
_symmetry_equiv_pos_as_xyz
'x, y, z'
_cell_length_a     37.899788
_cell_length_b     38.127738
_cell_length_c     108.01245
_cell_angle_alpha  91.405223
_cell_angle_beta   85.248259
_cell_angle_gamma 119.75528
loop_
_atom_site_label
_atom_site_type_symbol
_atom_site_fract_x
_atom_site_fract_y
_atom_site_fract_z
_atom_type_partial_charge
O0 O 0.98989 0.20443 0.10265 0.0
Cd1 Cd 0.98082 0.19639 0.08402 0.0
Cd2 Cd 0.06808 0.22634 0.08368 0.0
O3 O 0.05735 0.23545 0.10244 0.0
O4 O 0.93682 0.20948 0.08001 0.0
O5 O 1.0022 0.24665 0.07414 0.0
C6 C 0.96622 0.24212 0.07469 0.0
C7 C 0.11195 0.27583 0.06876 0.0
C8 C 0.02229 0.2218 0.10835 0.0
C9 C 0.01103 0.1401 0.07506 0.0
O10 O 0.04591 0.1674 0.07804 0.0
O11 O 0.98056 0.14598 0.07602 0.0
O12 O 0.12629 0.25966 0.07577 0.0
O13 O 0.07428 0.26577 0.0709 0.0
O14 O 0.72397 0.97664 0.4434 0.0
Cd15 Cd 0.72785 0.98001 0.4245 0.0
Cd16 Cd 0.7848 0.05562 0.4272 0.0
O17 O 0.74956 0.04276 0.44438 0.0
O18 O 0.67431 0.94586 0.41647 0.0
O19 O 0.69969 0.0105 0.42053 0.0
C20 C 0.67112 0.97808 0.41619 0.0
C21 C 0.78651 0.08966 0.40909 0.0
C22 C 0.73144 0.00785 0.44971 0.0
C23 C 0.81683 0.00446 0.41903 0.0
O24 O 0.82425 0.03425 0.42601 0.0
O25 O 0.78105 0.98253 0.41537 0.0
O26 O 0.80578 0.1101 0.41842 0.0
O27 O 0.76653 0.05101 0.41023 0.0
O28 O 0.7377 0.76752 0.77351 0.0
Cd29 Cd 0.72937 0.775 0.7558 0.0
Cd30 Cd 0.70436 0.82482 0.76348 0.0
O31 O 0.69336 0.78761 0.77943 0.0
O32 O 0.70663 0.72491 0.74495 0.0
O33 O 0.66827 0.74497 0.75584 0.0
C34 C 0.67065 0.71945 0.74833 0.0
C35 C 0.66417 0.82122 0.74736 0.0
C36 C 0.71445 0.77118 0.78198 0.0
C37 C 0.78483 0.86686 0.75222 0.0
O38 O 0.76212 0.87071 0.76084 0.0
O39 O 0.77418 0.83199 0.7476 0.0
O40 O 0.66036 0.83605 0.75798 0.0
O41 O 0.69004 0.80872 0.74605 0.0
O42 O 0.9861 0.68829 0.10013 0.0
Cd43 Cd 0.9821 0.68168 0.0816 0.0
Cd44 Cd 0.90545 0.6639 0.08635 0.0
O45 O 0.91929 0.64897 0.1035 0.0
O46 O 0.01365 0.65576 0.07313 0.0
O47 O 0.94845 0.62205 0.07965 0.0
C48 C 0.97999 0.62158 0.07453 0.0
C49 C 0.86978 0.62647 0.06943 0.0
C50 C 0.95492 0.66717 0.10755 0.0
C51 C 0.95718 0.74375 0.07617 0.0
O52 O 0.92652 0.72346 0.08383 0.0
O53 O 0.98062 0.72967 0.07244 0.0
O54 O 0.84991 0.62929 0.0794 0.0
O55 O 0.90872 0.64348 0.06934 0.0
O56 O 0.24556 0.97021 0.42778 0.0
Cd57 Cd 0.24809 0.97576 0.4088 0.0
Cd58 Cd 0.19141 0.89153 0.41312 0.0
O59 O 0.21061 0.90392 0.43113 0.0
O60 O 0.30595 0.01882 0.40298 0.0
O61 O 0.27932 0.95383 0.39924 0.0
C62 C 0.31074 0.98937 0.39867 0.0
C63 C 0.19542 0.84634 0.39868 0.0
C64 C 0.23121 0.93978 0.43514 0.0
C65 C 0.16223 0.94741 0.40354 0.0
O66 O 0.1549 0.914 0.4083 0.0
O67 O 0.19878 0.97667 0.40182 0.0
O68 O 0.16542 0.83342 0.40718 0.0
O69 O 0.22388 0.88328 0.39918 0.0
O70 O 0.24935 0.29201 0.76425 0.0
Cd71 Cd 0.24052 0.30095 0.74641 0.0
Cd72 Cd 0.26732 0.24464 0.74227 0.0
O73 O 0.28308 0.25871 0.76061 0.0
O74 O 0.25668 0.35992 0.74404 0.0
O75 O 0.29174 0.33191 0.73576 0.0
C76 C 0.28913 0.36395 0.73776 0.0
C77 C 0.30928 0.24735 0.72459 0.0
C78 C 0.26927 0.27629 0.76813 0.0
C79 C 0.17902 0.21943 0.7383 0.0
O80 O 0.20612 0.20979 0.73978 0.0
O81 O 0.1869 0.25596 0.73951 0.0
O82 O 0.29562 0.21793 0.7326 0.0
O83 O 0.30171 0.27615 0.72719 0.0
O84 O 0.70345 0.00817 0.5887 0.0
Cd85 Cd 0.70966 0.02247 0.60711 0.0
Cd86 Cd 0.68718 0.94018 0.6081 0.0
O87 O 0.67448 0.94149 0.58965 0.0
O88 O 0.69321 0.06525 0.6104 0.0
O89 O 0.65752 1.00233 0.61749 0.0
C90 C 0.66021 0.03699 0.61612 0.0
C91 C 0.64327 0.89972 0.62483 0.0
C92 C 0.68687 0.97415 0.58341 0.0
C93 C 0.77298 0.00394 0.61421 0.0
O94 O 0.74777 0.96772 0.61154 0.0
O95 O 0.7633 0.03155 0.61399 0.0
O96 O 0.65957 0.88519 0.61678 0.0
O97 O 0.64933 0.93539 0.62271 0.0
O98 O 0.74951 0.71739 0.91565 0.0
Cd99 Cd 0.74869 0.70787 0.93391 0.0
Cd100 Cd 0.8026 0.68552 0.92866 0.0
O101 O 0.77216 0.67439 0.91195 0.0
O102 O 0.69221 0.6808 0.9434 0.0
O103 O 0.72189 0.64762 0.93505 0.0
C104 C 0.69083 0.64665 0.94112 0.0
C105 C 0.79681 0.6462 0.94614 0.0
C106 C 0.7567 0.69509 0.90814 0.0
C107 C 0.83823 0.76501 0.93791 0.0
O108 O 0.846 0.74341 0.93027 0.0
O109 O 0.80134 0.75331 0.94211 0.0
O110 O 0.81604 0.64473 0.93583 0.0
O111 O 0.7805 0.66879 0.94635 0.0
O112 O 1.00074 0.70766 0.24458 0.0
Cd113 Cd 0.00765 0.70932 0.26291 0.0
Cd114 Cd 0.08465 0.76063 0.25812 0.0
O115 O 0.06663 0.72847 0.24118 0.0
O116 O 0.97761 0.65549 0.27261 0.0
O117 O 0.04037 0.68149 0.26389 0.0
C118 C 0.01022 0.65276 0.27028 0.0
C119 C 0.11523 0.75521 0.27569 0.0
C120 C 0.03107 0.71347 0.23716 0.0
C121 C 0.04168 0.79952 0.26765 0.0
O122 O 0.07152 0.80553 0.26 0.0
O123 O 0.01562 0.76353 0.2715 0.0
O124 O 0.13738 0.77232 0.26551 0.0
O125 O 0.07657 0.7408 0.27572 0.0
O126 O 0.22856 0.01837 0.57248 0.0
Cd127 Cd 0.23332 0.02832 0.591 0.0
Cd128 Cd 0.25564 0.10574 0.5847 0.0
O129 O 0.26887 0.0834 0.56783 0.0
O130 O 0.25163 0.99473 0.60033 0.0
O131 O 0.29292 0.0567 0.5932 0.0
C132 C 0.2881 0.02553 0.59903 0.0
C133 C 0.29781 0.1463 0.59997 0.0
C134 C 0.25014 0.04644 0.56449 0.0
C135 C 0.17459 0.06066 0.59696 0.0
O136 O 0.19609 0.0884 0.58889 0.0
O137 O 0.18691 0.03694 0.60044 0.0
O138 O 0.29465 0.16322 0.5902 0.0
O139 O 0.27787 0.10763 0.60078 0.0
O140 O 0.26815 0.23458 0.90662 0.0
Cd141 Cd 0.26935 0.2235 0.92509 0.0
Cd142 Cd 0.20947 0.24957 0.92673 0.0
O143 O 0.23136 0.26536 0.90813 0.0
O144 O 0.32664 0.23756 0.92908 0.0
O145 O 0.2967 0.27286 0.93488 0.0
C146 C 0.32856 0.26907 0.93447 0.0
C147 C 0.21071 0.2924 0.9429 0.0
C148 C 0.25301 0.25347 0.9016 0.0
C149 C 0.18302 0.16254 0.93392 0.0
O150 O 0.17362 0.18894 0.93111 0.0
O151 O 0.2202 0.17083 0.93309 0.0
O152 O 0.18229 0.2794 0.93532 0.0
O153 O 0.2389 0.28326 0.94065 0.0
O154 O 0.00528 0.22576 0.24804 0.0
Cd155 Cd 0.01457 0.22945 0.26664 0.0
Cd156 Cd 0.93002 0.16984 0.26703 0.0
O157 O 0.93807 0.18756 0.24839 0.0
O158 O 0.05792 0.28693 0.27028 0.0
O159 O 0.99278 0.25958 0.27667 0.0
C160 C 0.02851 0.2909 0.27578 0.0
C161 C 0.8861 0.17393 0.28286 0.0
C162 C 0.97274 0.20917 0.24241 0.0
C163 C 0.99104 0.14561 0.27472 0.0
O164 O 0.95557 0.1357 0.27168 0.0
O165 O 0.01938 0.18251 0.27426 0.0
O166 O 0.87241 0.1436 0.27547 0.0
O167 O 0.92308 0.20235 0.28058 0.0
C168 C 0.94224 0.19457 0.22168 0.0
C169 C 0.97641 0.21408 0.22867 0.0
C170 C 0.94697 0.19767 0.20866 0.0
C171 C 0.02389 0.21833 0.18238 0.0
H172 H 0.95113 0.23498 0.16327 0.0
C173 C 0.0526 0.2439 0.129 0.0
C174 C 0.01824 0.22465 0.1221 0.0
C175 C 0.04796 0.24487 0.142 0.0
C176 C 0.97151 0.2299 0.16845 0.0
H177 H 0.04224 0.25314 0.22737 0.0
H178 H 0.0502 0.25846 0.20487 0.0
H179 H 0.94087 0.23124 0.18591 0.0
H180 H 0.95197 0.19157 0.12354 0.0
H181 H 0.94408 0.19264 0.14601 0.0
H182 H 0.05417 0.2163 0.16498 0.0
C183 C 0.01986 0.24032 0.20939 0.0
C184 C 0.96558 0.22776 0.18144 0.0
C185 C 0.01516 0.23741 0.22234 0.0
C186 C 0.97923 0.20684 0.1285 0.0
C187 C 0.97463 0.20769 0.14145 0.0
C188 C 0.02969 0.22023 0.1694 0.0
C189 C 0.98596 0.22013 0.20237 0.0
C190 C 0.99174 0.22199 0.18855 0.0
C191 C 0.00887 0.22653 0.1484 0.0
C192 C 0.00355 0.22598 0.16225 0.0
H193 H 0.91198 0.17635 0.22624 0.0
H194 H 0.92025 0.18159 0.20349 0.0
H195 H 0.04424 0.21326 0.18758 0.0
H196 H 0.08307 0.25802 0.12439 0.0
H197 H 0.07505 0.26014 0.14704 0.0
C198 C 0.70344 0.96507 0.46919 0.0
C199 C 0.72082 0.00335 0.46336 0.0
C200 C 0.69609 0.96073 0.48211 0.0
C201 C 0.72953 0.01943 0.51075 0.0
H202 H 0.63578 0.9257 0.52672 0.0
C203 C 0.69411 0.01016 0.56354 0.0
C204 C 0.68402 0.97395 0.56976 0.0
C205 C 0.69544 0.01207 0.55063 0.0
C206 C 0.66229 0.95183 0.52239 0.0
H207 H 0.7428 0.06695 0.46662 0.0
H208 H 0.72927 0.05931 0.48918 0.0
H209 H 0.64326 0.93319 0.50408 0.0
H210 H 0.66582 0.91082 0.56718 0.0
H211 H 0.66819 0.91419 0.54443 0.0
H212 H 0.74852 0.03815 0.529 0.0
C213 C 0.72208 0.03269 0.48374 0.0
C214 C 0.66662 0.95619 0.50941 0.0
C215 C 0.72958 0.03706 0.47079 0.0
C216 C 0.67373 0.93917 0.56269 0.0
C217 C 0.67502 0.9411 0.54967 0.0
C218 C 0.72511 0.01516 0.52368 0.0
C219 C 0.70575 0.99452 0.48959 0.0
C220 C 0.7003 0.99012 0.50342 0.0
C221 C 0.68674 0.97785 0.5435 0.0
C222 C 0.6914 0.98141 0.52968 0.0
H223 H 0.69632 0.93837 0.4638 0.0
H224 H 0.68397 0.93096 0.48625 0.0
H225 H 0.75634 0.04544 0.50649 0.0
H226 H 0.70172 0.03752 0.56863 0.0
H227 H 0.70367 0.0406 0.5462 0.0
C228 C 0.73319 0.73524 0.79697 0.0
C229 C 0.71295 0.75677 0.79479 0.0
C230 C 0.73447 0.72356 0.80901 0.0
C231 C 0.68615 0.70879 0.84119 0.0
H232 H 0.78951 0.72274 0.84998 0.0
C233 C 0.7235 0.71133 0.89189 0.0
C234 C 0.74707 0.69418 0.89504 0.0
C235 C 0.71641 0.71379 0.87956 0.0
C236 C 0.76022 0.71796 0.84764 0.0
H237 H 0.67731 0.78203 0.80363 0.0
H238 H 0.6799 0.76197 0.82475 0.0
H239 H 0.78263 0.73783 0.82883 0.0
H240 H 0.78074 0.66509 0.88761 0.0
H241 H 0.76826 0.66935 0.8659 0.0
H242 H 0.664 0.68956 0.86008 0.0
C243 C 0.69447 0.75379 0.81707 0.0
C244 C 0.75625 0.72671 0.8355 0.0
C245 C 0.6931 0.76544 0.80497 0.0
C246 C 0.7625 0.67849 0.88551 0.0
C247 C 0.75555 0.68119 0.87308 0.0
C248 C 0.69013 0.70006 0.85334 0.0
C249 C 0.71566 0.73314 0.81925 0.0
C250 C 0.71928 0.72259 0.83213 0.0
C251 C 0.73272 0.69926 0.86996 0.0
C252 C 0.72736 0.70497 0.85676 0.0
H253 H 0.74852 0.72762 0.78937 0.0
H254 H 0.75033 0.70701 0.81027 0.0
H255 H 0.65704 0.70458 0.83888 0.0
H256 H 0.71094 0.72362 0.89896 0.0
H257 H 0.69919 0.72837 0.87753 0.0
C258 C 0.92855 0.65021 0.13015 0.0
C259 C 0.9611 0.66503 0.12087 0.0
C260 C 0.93596 0.65179 0.14275 0.0
C261 C 0.01887 0.70752 0.16363 0.0
H262 H 0.94825 0.62248 0.18756 0.0
C263 C 0.05706 0.71404 0.2148 0.0
C264 C 0.02436 0.70327 0.22387 0.0
C265 C 0.04993 0.70646 0.2022 0.0
C266 C 0.96816 0.64666 0.18101 0.0
H267 H 0.02677 0.69126 0.11758 0.0
H268 H 0.03935 0.69337 0.13929 0.0
H269 H 0.93348 0.61458 0.16575 0.0
H270 H 0.9584 0.675 0.22675 0.0
H271 H 0.94625 0.66228 0.20498 0.0
H272 H 0.0533 0.73982 0.17884 0.0
C273 C 0.00823 0.68151 0.13695 0.0
C274 C 0.9596 0.64212 0.1685 0.0
C275 C 1.0009 0.68005 0.12445 0.0
C276 C 0.98444 0.68384 0.22006 0.0
C277 C 0.97735 0.6762 0.20753 0.0
C278 C 0.02741 0.71204 0.1761 0.0
C279 C 0.97604 0.66814 0.1463 0.0
C280 C 0.98482 0.67255 0.15965 0.0
C281 C 0.00996 0.68777 0.19841 0.0
C282 C 1.00209 0.68178 0.18498 0.0
H283 H 0.89755 0.63849 0.12772 0.0
H284 H 0.91042 0.64136 0.14971 0.0
H285 H 0.03859 0.73193 0.15712 0.0
H286 H 0.08816 0.72897 0.2174 0.0
H287 H 0.07577 0.71536 0.19543 0.0
C288 C 0.23009 0.9948 0.54777 0.0
C289 C 0.25232 0.03548 0.55124 0.0
C290 C 0.23036 0.98394 0.53533 0.0
C291 C 0.25026 0.02608 0.50339 0.0
H292 H 0.24798 0.92599 0.4942 0.0
C293 C 0.26475 0.98699 0.4523 0.0
C294 C 0.23758 0.9476 0.44856 0.0
C295 C 0.26836 0.99647 0.46485 0.0
C296 C 0.24823 0.95383 0.49663 0.0
H297 H 0.29298 0.09656 0.54426 0.0
H298 H 0.29397 0.07753 0.5225 0.0
H299 H 0.25234 0.946 0.51593 0.0
H300 H 0.19406 0.88686 0.45523 0.0
H301 H 0.2004 0.90353 0.47732 0.0
H302 H 0.24623 0.03397 0.48413 0.0
C303 C 0.27574 0.05406 0.52944 0.0
C304 C 0.25074 0.96536 0.50909 0.0
C305 C 0.27539 0.06499 0.54193 0.0
C306 C 0.21527 0.91746 0.45778 0.0
C307 C 0.21895 0.92702 0.47042 0.0
C308 C 0.24792 0.01464 0.49096 0.0
C309 C 0.25297 0.01338 0.52597 0.0
C310 C 0.25172 1.00164 0.51265 0.0
C311 C 0.24494 0.9669 0.47408 0.0
C312 C 0.24692 0.97841 0.48741 0.0
H313 H 0.21183 0.97115 0.55465 0.0
H314 H 0.21195 0.95244 0.53303 0.0
H315 H 0.25007 0.05374 0.50578 0.0
H316 H 0.2829 0.01098 0.4455 0.0
H317 H 0.28937 0.02723 0.46731 0.0
C318 C 0.25987 0.2983 0.78956 0.0
C319 C 0.27464 0.27774 0.78165 0.0
C320 C 0.26217 0.29816 0.80238 0.0
C321 C 0.27075 0.24008 0.82764 0.0
H322 H 0.28918 0.33404 0.84693 0.0
C323 C 0.2813 0.24429 0.88073 0.0
C324 C 0.25975 0.26002 0.88789 0.0
C325 C 0.28622 0.24835 0.86779 0.0
C326 C 0.28367 0.30746 0.84168 0.0
H327 H 0.30439 0.24161 0.7811 0.0
H328 H 0.30894 0.24178 0.8036 0.0
H329 H 0.29427 0.33822 0.8243 0.0
H330 H 0.22717 0.29313 0.88696 0.0
H331 H 0.23588 0.3003 0.86429 0.0
H332 H 0.26011 0.20937 0.84505 0.0
C333 C 0.295 0.25758 0.79981 0.0
C334 C 0.28661 0.30982 0.8287 0.0
C335 C 0.29266 0.25769 0.78691 0.0
C336 C 0.24394 0.28067 0.88175 0.0
C337 C 0.24908 0.28492 0.86877 0.0
C338 C 0.26803 0.2378 0.84062 0.0
C339 C 0.27947 0.27759 0.80772 0.0
C340 C 0.27967 0.27601 0.8215 0.0
C341 C 0.26993 0.26842 0.86163 0.0
C342 C 0.27405 0.27134 0.84781 0.0
H343 H 0.24573 0.31409 0.7859 0.0
H344 H 0.24926 0.31331 0.80813 0.0
H345 H 0.26459 0.21327 0.82243 0.0
H346 H 0.29407 0.2283 0.88509 0.0
H347 H 0.30294 0.23581 0.8626 0.0
C348 C 0.11822 0.31911 0.0509 0.0
C349 C 0.13508 0.30034 0.05747 0.0
C350 C 0.1328 0.33296 0.0387 0.0
C351 C 0.21401 0.35714 0.01381 0.0
H352 H 0.12456 0.29948 0.99292 0.0
C353 C 0.23898 0.32159 0.96303 0.0
C354 C 0.20902 0.31232 0.95471 0.0
C355 C 0.23388 0.33208 0.97524 0.0
C356 C 0.14994 0.31689 0.9985 0.0
H357 H 0.18313 0.28501 0.05682 0.0
H358 H 0.20918 0.30995 0.03543 0.0
H359 H 0.11068 0.2976 0.01528 0.0
H360 H 0.15202 0.31065 0.95235 0.0
H361 H 0.14389 0.33094 0.97355 0.0
H362 H 0.25339 0.3767 0.99705 0.0
C363 C 0.18441 0.31359 0.03976 0.0
C364 C 0.14191 0.31551 0.01138 0.0
C365 C 0.16955 0.29938 0.05201 0.0
C366 C 0.17547 0.31725 0.95857 0.0
C367 C 0.17065 0.32842 0.97079 0.0
C368 C 0.22205 0.35924 1.00087 0.0
C369 C 0.16487 0.32874 0.03283 0.0
C370 C 0.17389 0.33479 0.01918 0.0
C371 C 0.19895 0.3343 0.97945 0.0
C372 C 0.19021 0.33811 0.99303 0.0
H373 H 0.09195 0.3208 0.05489 0.0
H374 H 0.11759 0.34505 0.03362 0.0
H375 H 0.23916 0.37256 0.01962 0.0
H376 H 0.2654 0.31835 0.96038 0.0
H377 H 0.25627 0.33586 0.98152 0.0
C378 C 0.81732 0.14892 0.394 0.0
C379 C 0.7883 0.10856 0.39706 0.0
C380 C 0.82195 0.16404 0.3819 0.0
C381 C 0.77432 0.13859 0.35136 0.0
H382 H 0.88659 0.19941 0.33765 0.0
C383 C 0.82962 0.13853 0.29969 0.0
C384 C 0.86322 0.17423 0.29463 0.0
C385 C 0.81471 0.13694 0.31211 0.0
C386 C 0.85501 0.18306 0.34135 0.0
H387 H 0.7396 0.05325 0.39005 0.0
H388 H 0.74825 0.07893 0.36915 0.0
H389 H 0.87189 0.1862 0.35989 0.0
H390 H 0.90495 0.23727 0.29825 0.0
H391 H 0.87887 0.23443 0.31978 0.0
H392 H 0.75782 0.13363 0.33259 0.0
C393 C 0.76724 0.09938 0.37598 0.0
C394 C 0.84653 0.17559 0.35415 0.0
C395 C 0.76256 0.08443 0.388 0.0
C396 C 0.87929 0.20913 0.30189 0.0
C397 C 0.86452 0.20751 0.31426 0.0
C398 C 0.78286 0.14569 0.33851 0.0
C399 C 0.79765 0.13905 0.37264 0.0
C400 C 0.80612 0.15241 0.35932 0.0
C401 C 0.83321 0.17101 0.31966 0.0
C402 C 0.82335 0.16734 0.33334 0.0
H403 H 0.83746 0.16829 0.4008 0.0
H404 H 0.84527 0.19498 0.37972 0.0
H405 H 0.74277 0.12135 0.35501 0.0
H406 H 0.81667 0.11113 0.29435 0.0
H407 H 0.79058 0.10833 0.31601 0.0
C408 C 0.63909 0.79353 0.72684 0.0
C409 C 0.6416 0.81952 0.73661 0.0
C410 C 0.62454 0.79588 0.71563 0.0
C411 C 0.61803 0.87049 0.69658 0.0
H412 H 0.56913 0.78009 0.67438 0.0
C413 C 0.60661 0.89698 0.64542 0.0
C414 C 0.62352 0.87947 0.63701 0.0
C415 C 0.59646 0.88421 0.65787 0.0
C416 C 0.5827 0.80562 0.68048 0.0
H417 H 0.62812 0.8665 0.7426 0.0
H418 H 0.60203 0.87045 0.72293 0.0
H419 H 0.5719 0.76769 0.69626 0.0
H420 H 0.64001 0.83263 0.63489 0.0
H421 H 0.62213 0.81019 0.65664 0.0
H422 H 0.62969 0.90844 0.68076 0.0
C423 C 0.61205 0.84863 0.72391 0.0
C424 C 0.58436 0.79857 0.69302 0.0
C425 C 0.62662 0.84617 0.73522 0.0
C426 C 0.62697 0.84668 0.64111 0.0
C427 C 0.6167 0.83382 0.6536 0.0
C428 C 0.61606 0.87749 0.68407 0.0
C429 C 0.61198 0.82429 0.71385 0.0
C430 C 0.60323 0.83101 0.70116 0.0
C431 C 0.60284 0.85353 0.66221 0.0
C432 C 0.59941 0.84523 0.67579 0.0
H433 H 0.65003 0.77233 0.72765 0.0
H434 H 0.62546 0.77691 0.70813 0.0
H435 H 0.63331 0.8963 0.70247 0.0
H436 H 0.6032 0.9221 0.64256 0.0
H437 H 0.58513 0.8995 0.66421 0.0
C438 C 0.87074 0.59491 0.04909 0.0
C439 C 0.85038 0.60786 0.05788 0.0
C440 C 0.85874 0.58603 0.03701 0.0
C441 C 0.77901 0.57055 0.01612 0.0
H442 H 0.87194 0.62481 0.99187 0.0
C443 C 0.76751 0.62238 0.9678 0.0
C444 C 0.79513 0.62542 0.95778 0.0
C445 C 0.76973 0.60955 0.97955 0.0
C446 C 0.84556 0.60861 0.99842 0.0
H447 H 0.79965 0.61892 0.06119 0.0
H448 H 0.7787 0.60372 0.03995 0.0
H449 H 0.88296 0.62143 0.01351 0.0
H450 H 0.845 0.61466 0.95205 0.0
H451 H 0.84865 0.59154 0.97264 0.0
H452 H 0.74164 0.55863 1.00099 0.0
C453 C 0.80383 0.60012 0.04244 0.0
C454 C 0.85189 0.60675 0.01089 0.0
C455 C 0.81574 0.60878 0.05462 0.0
C456 C 0.82339 0.61275 0.95959 0.0
C457 C 0.82567 0.59988 0.97142 0.0
C458 C 0.77266 0.57225 1.00359 0.0
C459 C 0.82626 0.59021 0.03336 0.0
C460 C 0.81875 0.58834 0.01995 0.0
C461 C 0.79962 0.59929 0.98164 0.0
C462 C 0.80589 0.59208 0.99461 0.0
H463 H 0.8973 0.59346 0.05138 0.0
H464 H 0.87604 0.57748 0.03037 0.0
H465 H 0.75282 0.55569 0.02281 0.0
H466 H 0.74509 0.63159 0.9667 0.0
H467 H 0.74938 0.60991 0.98714 0.0
C468 C 0.17378 0.7795 0.28928 0.0
C469 C 0.1325 0.75382 0.28737 0.0
C470 C 0.1876 0.78232 0.30113 0.0
C471 C 0.15584 0.73506 0.33324 0.0
H472 H 0.22425 0.8452 0.34342 0.0
C473 C 0.15829 0.79046 0.38385 0.0
C474 C 0.19499 0.82268 0.38753 0.0
C475 C 0.15623 0.77549 0.37177 0.0
C476 C 0.20574 0.81412 0.34073 0.0
H477 H 0.07406 0.70878 0.29616 0.0
H478 H 0.09766 0.71422 0.31662 0.0
H479 H 0.21178 0.83155 0.32168 0.0
H480 H 0.25917 0.86168 0.38188 0.0
H481 H 0.25564 0.83527 0.361 0.0
H482 H 0.14827 0.71815 0.3525 0.0
C483 C 0.11973 0.73204 0.30909 0.0
C484 C 0.19867 0.80624 0.32819 0.0
C485 C 0.10603 0.72921 0.29732 0.0
C486 C 0.23029 0.83709 0.3793 0.0
C487 C 0.22824 0.82217 0.36728 0.0
C488 C 0.16266 0.74303 0.34582 0.0
C489 C 0.16042 0.75947 0.31128 0.0
C490 C 0.17286 0.76673 0.3243 0.0
C491 C 0.19085 0.79246 0.36319 0.0
C492 C 0.18709 0.78277 0.34974 0.0
H493 H 0.19493 0.79873 0.28179 0.0
H494 H 0.21934 0.80327 0.30241 0.0
H495 H 0.13642 0.70413 0.33058 0.0
H496 H 0.13053 0.77885 0.38994 0.0
H497 H 0.12691 0.75261 0.36891 0.0
C498 C 0.33518 0.15046 0.61821 0.0
C499 C 0.32068 0.16903 0.61057 0.0
C500 C 0.34737 0.16548 0.62992 0.0
C501 C 0.37103 0.24935 0.65167 0.0
H502 H 0.312 0.16191 0.67593 0.0
C503 C 0.33505 0.27496 0.70297 0.0
C504 C 0.3279 0.24596 0.7121 0.0
C505 C 0.3446 0.26983 0.69053 0.0
C506 C 0.32967 0.18675 0.66938 0.0
H507 H 0.31075 0.21981 0.60874 0.0
H508 H 0.33203 0.24626 0.62942 0.0
H509 H 0.31104 0.14697 0.65402 0.0
H510 H 0.3288 0.19065 0.71546 0.0
H511 H 0.34721 0.18247 0.69382 0.0
H512 H 0.38945 0.28922 0.6671 0.0
C513 C 0.3341 0.22011 0.62626 0.0
C514 C 0.32891 0.17813 0.65674 0.0
C515 C 0.32201 0.20508 0.61442 0.0
C516 C 0.33374 0.21334 0.70865 0.0
C517 C 0.34388 0.20848 0.6962 0.0
C518 C 0.37222 0.25801 0.66438 0.0
C519 C 0.3451 0.1993 0.63433 0.0
C520 C 0.34912 0.20928 0.64773 0.0
C521 C 0.34781 0.23579 0.68689 0.0
C522 C 0.35098 0.22682 0.67342 0.0
H523 H 0.33491 0.12284 0.61541 0.0
H524 H 0.35657 0.14931 0.63581 0.0
H525 H 0.38711 0.27395 0.64494 0.0
H526 H 0.33091 0.30057 0.70529 0.0
H527 H 0.34702 0.29141 0.68371 0.0
C528 C 0.93825 0.54708 0.07209 0.0
C529 C 0.97679 0.58227 0.07104 0.0
C530 C 0.93443 0.50907 0.07026 0.0
C531 C 0.98484 0.45401 0.0569 0.0
H532 H 0.9197 0.3758 0.08328 0.0
C533 C 0.99453 0.31031 0.06486 0.0
C534 C 0.96082 0.27585 0.07054 0.0
C535 C 0.99286 0.34547 0.06292 0.0
C536 C 0.93724 0.39677 0.07566 0.0
H537 H 0.0414 0.60512 0.0666 0.0
H538 H 0.03464 0.53813 0.0633 0.0
H539 H 0.9251 0.44203 0.08361 0.0
H540 H 0.89784 0.25046 0.07785 0.0
H541 H 0.89433 0.31166 0.07411 0.0
H542 H 0.99688 0.40871 0.04891 0.0
C543 C 0.00743 0.5403 0.06559 0.0
C544 C 0.94057 0.43495 0.07591 0.0
C545 C 0.01133 0.57861 0.0675 0.0
C546 C 0.92438 0.27652 0.07349 0.0
C547 C 0.92258 0.31181 0.07147 0.0
C548 C 0.98115 0.41557 0.05657 0.0
C549 C 0.96898 0.50509 0.06726 0.0
C550 C 0.96474 0.46417 0.06661 0.0
C551 C 0.95726 0.34718 0.06652 0.0
C552 C 0.95774 0.38657 0.06605 0.0
H553 H 0.91085 0.54871 0.07465 0.0
H554 H 0.90434 0.48261 0.07139 0.0
H555 H 0.00326 0.47573 0.04953 0.0
H556 H 0.02311 0.31089 0.06242 0.0
H557 H 0.02035 0.37196 0.05921 0.0
C558 C 0.60387 0.94431 0.40643 0.0
C559 C 0.63601 0.9788 0.41131 0.0
C560 C 0.57049 0.94582 0.40228 0.0
C561 C 0.53623 0.01857 0.39392 0.0
H562 H 0.42836 0.92811 0.40251 0.0
C563 C 0.3872 0.02788 0.39848 0.0
C564 C 0.35141 0.99399 0.39497 0.0
C565 C 0.42407 0.02735 0.39775 0.0
C566 C 0.45829 0.95343 0.39986 0.0
H567 H 0.65849 0.04209 0.41546 0.0
H568 H 0.60048 0.04435 0.40864 0.0
H569 H 0.48803 0.92328 0.40652 0.0
H570 H 0.32703 0.93452 0.38689 0.0
H571 H 0.39111 0.93386 0.38555 0.0
H572 H 0.5061 0.04923 0.38774 0.0
C573 C 0.60108 0.0163 0.40771 0.0
C574 C 0.49259 0.95061 0.40213 0.0
C575 C 0.63433 0.01485 0.41176 0.0
C576 C 0.35396 0.96102 0.38979 0.0
C577 C 0.39063 0.96046 0.38909 0.0
C578 C 0.50186 0.02152 0.39175 0.0
C579 C 0.56853 0.98182 0.40297 0.0
C580 C 0.53208 0.98336 0.39938 0.0
C581 C 0.42572 0.99292 0.39352 0.0
C582 C 0.46249 0.98913 0.39483 0.0
H583 H 0.60436 0.91615 0.40589 0.0
H584 H 0.54621 0.91875 0.39855 0.0
H585 H 0.56612 0.04415 0.39143 0.0
H586 H 0.38621 0.05363 0.40256 0.0
H587 H 0.45061 0.05285 0.40124 0.0
C588 C 0.32859 0.43958 0.73964 0.0
C589 C 0.32492 0.40403 0.73431 0.0
C590 C 0.36592 0.47586 0.73839 0.0
C591 C 0.47543 0.50973 0.73411 0.0
H592 H 0.48809 0.61651 0.73114 0.0
C593 C 0.6329 0.65429 0.73679 0.0
C594 C 0.63269 0.68535 0.74401 0.0
C595 C 0.59612 0.62141 0.73344 0.0
C596 C 0.48509 0.58691 0.73206 0.0
H597 H 0.35665 0.37947 0.72267 0.0
H598 H 0.42122 0.44254 0.72041 0.0
H599 H 0.42139 0.55695 0.72914 0.0
H600 H 0.59371 0.7068 0.75301 0.0
H601 H 0.53034 0.64974 0.74745 0.0
H602 H 0.53857 0.53938 0.73747 0.0
C603 C 0.39565 0.44231 0.72577 0.0
C604 C 0.44682 0.55278 0.73089 0.0
C605 C 0.35848 0.4062 0.72701 0.0
C606 C 0.59512 0.68334 0.7475 0.0
C607 C 0.5586 0.65068 0.74418 0.0
C608 C 0.51359 0.5438 0.73536 0.0
C609 C 0.40027 0.47724 0.73179 0.0
C610 C 0.44141 0.51377 0.73205 0.0
C611 C 0.55843 0.61901 0.73721 0.0
C612 C 0.51884 0.58288 0.73455 0.0
H613 H 0.3034 0.43889 0.74537 0.0
H614 H 0.36846 0.5022 0.74318 0.0
H615 H 0.47225 0.48013 0.73525 0.0
H616 H 0.66133 0.65506 0.7339 0.0
H617 H 0.59721 0.5978 0.72793 0.0
C618 C 0.321 0.9928 0.61005 0.0
C619 C 0.32396 0.02625 0.60386 0.0
C620 C 0.35593 0.99438 0.61419 0.0
C621 C 0.46448 0.06706 0.62014 0.0
H622 H 0.4791 0.97422 0.6144 0.0
C623 C 0.62161 0.0745 0.61491 0.0
C624 C 0.62395 0.04153 0.61943 0.0
C625 C 0.58426 0.07402 0.61571 0.0
C626 C 0.47529 1.00024 0.61626 0.0
H627 H 0.3659 0.08782 0.59737 0.0
H628 H 0.42608 0.09017 0.60424 0.0
H629 H 0.41435 0.96937 0.6107 0.0
H630 H 0.58962 0.98375 0.62926 0.0
H631 H 0.52489 0.98315 0.63071 0.0
H632 H 0.52617 0.09834 0.62521 0.0
C633 C 0.39701 0.06293 0.60617 0.0
C634 C 0.43804 0.99742 0.61416 0.0
C635 C 0.36234 0.06138 0.60209 0.0
C636 C 0.58887 0.00952 0.62558 0.0
C637 C 0.55164 0.00899 0.62634 0.0
C638 C 0.50185 0.06997 0.62214 0.0
C639 C 0.39446 0.02947 0.61223 0.0
C640 C 0.43237 0.03102 0.61584 0.0
C641 C 0.54857 0.04053 0.62103 0.0
C642 C 0.50789 0.03676 0.62005 0.0
H643 H 0.29186 0.96538 0.61161 0.0
H644 H 0.35275 0.96815 0.61893 0.0
H645 H 0.46098 0.09334 0.62179 0.0
H646 H 0.648 0.09954 0.61009 0.0
H647 H 0.58289 0.09877 0.6115 0.0
C648 C 0.40409 0.30323 0.93685 0.0
C649 C 0.36654 0.30217 0.93909 0.0
C650 C 0.44037 0.33778 0.93965 0.0
C651 C 0.48125 0.43726 0.95588 0.0
H652 H 0.57098 0.47033 0.93056 0.0
C653 C 0.61601 0.60248 0.9478 0.0
C654 C 0.65474 0.6069 0.94463 0.0
C655 C 0.58152 0.56377 0.94924 0.0
C656 C 0.5464 0.46135 0.9378 0.0
H657 H 0.33748 0.33569 0.9467 0.0
H658 H 0.40007 0.39556 0.95125 0.0
H659 H 0.51041 0.40449 0.92939 0.0
H660 H 0.68806 0.57433 0.94144 0.0
H661 H 0.62835 0.50751 0.94395 0.0
H662 H 0.5171 0.49523 0.96396 0.0
C663 C 0.40194 0.36987 0.94751 0.0
C664 C 0.51166 0.42338 0.93718 0.0
C665 C 0.36587 0.33543 0.94479 0.0
C666 C 0.65858 0.57205 0.94367 0.0
C667 C 0.62434 0.53366 0.94507 0.0
C668 C 0.51593 0.47551 0.95642 0.0
C669 C 0.43984 0.37201 0.94471 0.0
C670 C 0.47838 0.41088 0.94614 0.0
C671 C 0.5853 0.52899 0.94751 0.0
C672 C 0.54878 0.48804 0.94734 0.0
H673 H 0.40562 0.27805 0.93251 0.0
H674 H 0.46892 0.33798 0.93759 0.0
H675 H 0.45656 0.42851 0.96307 0.0
H676 H 0.61212 0.62875 0.9486 0.0
H677 H 0.55174 0.56108 0.95111 0.0
C678 C 0.05254 0.62085 0.27319 0.0
C679 C 0.01398 0.61806 0.27441 0.0
C680 C 0.05683 0.58756 0.27571 0.0
C681 C 0.00817 0.4873 0.29101 0.0
H682 H 0.07161 0.46595 0.265 0.0
C683 C 0.9998 0.33263 0.28529 0.0
C684 C 0.03354 0.3306 0.27965 0.0
C685 C 1.00107 0.36969 0.2868 0.0
C686 C 0.05457 0.47178 0.27252 0.0
H687 H 0.9499 0.5786 0.27991 0.0
H688 H 0.95742 0.51981 0.28434 0.0
H689 H 0.06537 0.52605 0.26361 0.0
H690 H 0.09625 0.36626 0.27207 0.0
H691 H 0.09902 0.43134 0.27505 0.0
H692 H 0.99731 0.43287 0.29992 0.0
C693 C 0.9843 0.54806 0.28141 0.0
C694 C 0.05077 0.50621 0.27167 0.0
C695 C 0.97996 0.58161 0.27884 0.0
C696 C 0.06968 0.36678 0.27639 0.0
C697 C 0.07106 0.40404 0.27798 0.0
C698 C 0.01228 0.45291 0.29193 0.0
C699 C 0.0227 0.5505 0.27955 0.0
C700 C 0.02727 0.51423 0.28083 0.0
C701 C 0.03626 0.40584 0.2828 0.0
C702 C 0.03518 0.44444 0.28261 0.0
H703 H 0.07958 0.64867 0.27 0.0
H704 H 0.08691 0.59066 0.27444 0.0
H705 H 0.99025 0.49293 0.29829 0.0
H706 H 0.97145 0.30535 0.28797 0.0
H707 H 0.97356 0.36961 0.29046 0.0
C708 C 0.04086 0.09666 0.06792 0.0
C709 C 0.00615 0.10037 0.07118 0.0
C710 C 0.03728 0.05884 0.06565 0.0
C711 C 0.96305 0.95084 0.06001 0.0
H712 H 0.04184 0.93193 0.07499 0.0
C713 C 0.93276 0.79251 0.07307 0.0
C714 C 0.96487 0.78382 0.07191 0.0
C715 C 0.93972 0.83117 0.07046 0.0
C716 C 0.02004 0.93683 0.07053 0.0
H717 H 0.94023 0.06716 0.07413 0.0
H718 H 0.93393 1.0009 0.0704 0.0
H719 H 0.04961 0.99922 0.07528 0.0
H720 H 0.02932 0.80871 0.06659 0.0
H721 H 0.04172 0.87693 0.06206 0.0
H722 H 0.93276 0.88793 0.05566 0.0
C723 C 0.96398 0.0274 0.06943 0.0
C724 C 0.02444 0.9755 0.0707 0.0
C725 C 0.96756 0.06541 0.07161 0.0
C726 C 0.00398 0.81447 0.06758 0.0
C727 C 0.01109 0.85354 0.06507 0.0
C728 C 0.95858 0.9121 0.05988 0.0
C729 C 0.99891 0.02355 0.06668 0.0
C730 C 0.99566 0.98293 0.06561 0.0
C731 C 0.97907 0.86243 0.06667 0.0
C732 C 0.98663 0.90447 0.06534 0.0
H733 H 0.07108 0.123 0.06734 0.0
H734 H 0.06477 0.05724 0.06328 0.0
H735 H 0.94073 0.95553 0.0558 0.0
H736 H 0.90216 0.76954 0.07631 0.0
H737 H 0.91445 0.83694 0.07193 0.0
C738 C 0.88201 0.00796 0.42335 0.0
C739 C 0.85021 0.99563 0.41551 0.0
C740 C 0.91435 1.0009 0.42023 0.0
C741 C 0.97746 0.99133 0.39545 0.0
H742 H 0.99805 0.93068 0.41936 0.0
C743 C 0.13092 0.99021 0.39873 0.0
C744 C 0.1268 0.95212 0.40102 0.0
C745 C 0.09619 0.99436 0.39834 0.0
C746 C 0.99259 0.94747 0.41255 0.0
H747 H 0.8277 0.96665 0.39814 0.0
H748 H 0.88552 0.95517 0.39249 0.0
H749 H 0.9383 0.93917 0.42297 0.0
H750 H 0.08287 0.88818 0.40372 0.0
H751 H 0.02306 0.89567 0.40317 0.0
H752 H 0.03287 1.00084 0.38526 0.0
C753 C 0.88475 0.96996 0.40112 0.0
C754 C 0.95847 0.95235 0.41463 0.0
C755 C 0.85167 0.97626 0.40439 0.0
C756 C 0.08737 0.91812 0.40213 0.0
C757 C 0.05295 0.92231 0.40182 0.0
C758 C 0.01222 0.98707 0.39346 0.0
C759 C 0.91619 0.98205 0.40908 0.0
C760 C 0.95064 0.97442 0.40615 0.0
C761 C 0.05689 0.96054 0.4003 0.0
C762 C 0.02007 0.96507 0.40202 0.0
H763 H 0.88175 0.02283 0.43201 0.0
H764 H 0.93824 0.01052 0.42651 0.0
H765 H 0.97216 0.00881 0.38884 0.0
H766 H 0.16079 0.01699 0.39782 0.0
H767 H 0.10005 0.02423 0.39717 0.0
C768 C 0.13248 0.15025 0.73086 0.0
C769 C 0.13754 0.1866 0.73595 0.0
C770 C 0.09366 0.1167 0.73026 0.0
C771 C 0.98224 0.08207 0.73379 0.0
H772 H 0.97419 0.98047 0.74299 0.0
C773 C 0.83089 0.94186 0.75139 0.0
C774 C 0.82366 0.90325 0.7478 0.0
C775 C 0.86819 0.97634 0.74806 0.0
C776 C 0.97591 0.00841 0.7402 0.0
H777 H 0.10558 0.21676 0.7439 0.0
H778 H 0.03752 0.15776 0.74314 0.0
H779 H 0.04064 0.04122 0.74067 0.0
H780 H 0.84983 0.87089 0.73755 0.0
H781 H 0.91538 0.93137 0.73176 0.0
H782 H 0.91708 0.0491 0.73374 0.0
C783 C 0.06364 0.15536 0.73941 0.0
C784 C 0.01412 0.04339 0.73885 0.0
C785 C 0.10266 0.18924 0.73987 0.0
C786 C 0.8544 0.90012 0.74049 0.0
C787 C 0.89201 0.93475 0.73723 0.0
C788 C 0.94393 0.04704 0.73521 0.0
C789 C 0.05872 0.1183 0.7349 0.0
C790 C 0.01787 0.08081 0.73571 0.0
C791 C 0.89946 0.97323 0.7411 0.0
C792 C 0.94028 0.00984 0.73855 0.0
H793 H 0.15872 0.14737 0.72759 0.0
H794 H 0.09115 0.08916 0.72638 0.0
H795 H 0.9839 0.11012 0.73119 0.0
H796 H 0.80788 0.94552 0.75698 0.0
H797 H 0.87298 0.00536 0.75132 0.0
C798 C 0.82104 0.98248 0.62083 0.0
C799 C 0.81464 0.01345 0.61674 0.0
C800 C 0.86045 0.98885 0.6214 0.0
C801 C 0.97067 0.06752 0.61949 0.0
H802 H 0.98471 0.97885 0.60672 0.0
C803 C 0.12574 0.08692 0.59988 0.0
C804 C 0.13493 0.0562 0.60207 0.0
C805 C 0.0876 0.08227 0.60381 0.0
C806 C 0.98131 0.00367 0.61051 0.0
H807 H 0.84466 0.07607 0.61061 0.0
H808 H 0.91379 0.08709 0.61131 0.0
H809 H 0.91672 0.97056 0.6097 0.0
H810 H 0.11142 0.9969 0.61047 0.0
H811 H 0.04436 0.98862 0.61731 0.0
H812 H 0.03571 0.10101 0.61986 0.0
C813 C 0.88826 0.05795 0.61428 0.0
C814 C 0.94222 0.99895 0.61225 0.0
C815 C 0.84863 0.05168 0.61386 0.0
C816 C 0.10531 0.02109 0.60862 0.0
C817 C 0.06686 0.01628 0.61247 0.0
C818 C 0.00987 0.07231 0.61769 0.0
C819 C 0.89464 0.02621 0.61772 0.0
C820 C 0.93632 0.0309 0.61665 0.0
C821 C 0.05744 0.04667 0.60998 0.0
C822 C 0.01568 0.04057 0.61304 0.0
H823 H 0.79546 0.9528 0.62329 0.0
H824 H 0.86407 0.96404 0.62444 0.0
H825 H 0.96732 0.09258 0.62307 0.0
H826 H 0.14786 0.1145 0.59492 0.0
H827 H 0.08129 0.10607 0.6016 0.0
C828 C 0.91211 0.80871 0.94073 0.0
C829 C 0.87275 0.80391 0.94152 0.0
C830 C 0.94612 0.84644 0.94233 0.0
C831 C 0.98023 0.9516 0.95272 0.0
H832 H 0.07212 0.97646 0.9288 0.0
C833 C 0.10948 0.11419 0.94019 0.0
C834 C 0.14957 0.12132 0.93765 0.0
C835 C 0.07698 0.07508 0.94258 0.0
C836 C 0.04709 0.96988 0.93569 0.0
H837 H 0.83795 0.83459 0.94519 0.0
H838 H 0.89772 0.90118 0.94771 0.0
H839 H 0.01256 0.90938 0.9295 0.0
H840 H 0.18697 0.09281 0.9361 0.0
H841 H 0.13002 0.02427 0.94028 0.0
H842 H 0.0147 0.01283 0.95862 0.0
C843 C 0.9022 0.8755 0.94603 0.0
C844 C 0.01279 0.9313 0.93611 0.0
C845 C 0.86792 0.83739 0.94457 0.0
C846 C 0.15651 0.08842 0.93799 0.0
C847 C 0.12384 0.04912 0.94031 0.0
C848 C 0.01458 0.99036 0.95226 0.0
C849 C 0.94184 0.88065 0.94458 0.0
C850 C 0.97879 0.92161 0.94458 0.0
C851 C 0.0836 0.04194 0.94244 0.0
C852 C 0.04831 1.00003 0.94367 0.0
H853 H 0.9168 0.78334 0.93858 0.0
H854 H 0.97594 0.84891 0.94152 0.0
H855 H 0.95487 0.94512 0.95946 0.0
H856 H 0.10295 0.1388 0.94007 0.0
H857 H 0.04641 0.07067 0.94405 0.0
C858 C 1.00031 0.83128 0.27615 0.0
C859 C 0.03805 0.83493 0.2719 0.0
C860 C 0.99711 0.86592 0.27873 0.0
C861 C 0.05147 0.9753 0.27053 0.0
H862 H 0.97586 0.97983 0.29608 0.0
C863 C 0.03931 0.11942 0.2774 0.0
C864 C 0.99932 0.1129 0.27795 0.0
C865 C 0.04625 0.0869 0.27874 0.0
C866 C 0.99711 0.97899 0.28889 0.0
H867 H 0.10248 0.87745 0.26789 0.0
H868 H 0.09718 0.93722 0.27272 0.0
H869 H 0.98319 0.91963 0.29452 0.0
H870 H 0.93538 0.06749 0.28112 0.0
H871 H 0.9475 0.01119 0.28344 0.0
H872 H 0.06506 0.03428 0.26479 0.0
C873 C 0.0697 0.90798 0.27364 0.0
C874 C 1.00118 0.94441 0.28797 0.0
C875 C 0.07277 0.87361 0.27094 0.0
C876 C 0.9666 0.0736 0.28056 0.0
C877 C 0.97353 0.04126 0.28198 0.0
C878 C 0.04757 0.00983 0.2715 0.0
C879 C 0.0317 0.90478 0.27723 0.0
C880 C 0.0282 0.94199 0.27869 0.0
C881 C 0.01335 0.04731 0.28077 0.0
C882 C 0.02006 0.01198 0.2806 0.0
H883 H 0.97302 0.80187 0.27697 0.0
H884 H 0.96729 0.86227 0.28141 0.0
H885 H 0.07195 0.97432 0.26309 0.0
H886 H 0.06518 0.14929 0.27542 0.0
H887 H 0.07734 0.09261 0.2779 0.0
loop_
_geom_bond_atom_site_label_1
_geom_bond_atom_site_label_2
_geom_bond_distance
_geom_bond_site_symmetry_2
_ccdc_geom_bond_type
O0 Cd1 2.223 . S
O0 C8 1.315 1_655 S
Cd1 O0 2.223 . S
Cd1 O4 2.297 . S
Cd1 O5 2.439 . S
Cd1 O11 2.240 . S
Cd2 O3 2.240 . S
Cd2 O10 2.223 . S
Cd2 O12 2.297 . S
Cd2 O13 2.439 . S
O3 Cd2 2.240 . S
O3 C8 1.279 . S
O4 Cd1 2.297 . S
O4 C6 1.247 . S
O5 Cd1 2.439 . S
O5 C6 1.208 . S
C6 O4 1.247 . S
C6 O5 1.208 . S
C7 O12 1.247 . S
C7 O13 1.208 . S
C8 O0 1.315 1_455 S
C8 O3 1.279 . S
C9 O10 1.315 1_655 S
C9 O11 1.279 . S
O10 Cd2 2.223 . S
O10 C9 1.315 1_455 S
O11 Cd1 2.240 . S
O11 C9 1.279 . S
O12 Cd2 2.297 . S
O12 C7 1.247 . S
O13 Cd2 2.439 . S
O13 C7 1.208 . S
O14 Cd15 2.223 . S
O14 C22 1.315 1_565 S
Cd15 O14 2.223 . S
Cd15 O18 2.297 . S
Cd15 O19 2.439 . S
Cd15 O25 2.240 . S
Cd16 O17 2.240 . S
Cd16 O24 2.223 . S
Cd16 O26 2.297 . S
Cd16 O27 2.439 . S
O17 Cd16 2.240 . S
O17 C22 1.279 . S
O18 Cd15 2.297 . S
O18 C20 1.247 . S
O19 Cd15 2.439 . S
O19 C20 1.208 . S
C20 O18 1.247 . S
C20 O19 1.208 . S
C21 O26 1.247 . S
C21 O27 1.208 . S
C22 O14 1.315 1_545 S
C22 O17 1.279 . S
C23 O24 1.315 1_565 S
C23 O25 1.279 . S
O24 Cd16 2.223 . S
O24 C23 1.315 1_545 S
O25 Cd15 2.240 . S
O25 C23 1.279 . S
O26 Cd16 2.297 . S
O26 C21 1.247 . S
O27 Cd16 2.439 . S
O27 C21 1.208 . S
O28 Cd29 2.223 . S
O28 C36 1.315 . S
Cd29 O28 2.223 . S
Cd29 O32 2.297 . S
Cd29 O33 2.439 . S
Cd29 O39 2.240 . S
Cd30 O31 2.240 . S
Cd30 O38 2.223 . S
Cd30 O40 2.297 . S
Cd30 O41 2.439 . S
O31 Cd30 2.240 . S
O31 C36 1.279 . S
O32 Cd29 2.297 . S
O32 C34 1.247 . S
O33 Cd29 2.439 . S
O33 C34 1.208 . S
C34 O32 1.247 . S
C34 O33 1.208 . S
C35 O40 1.247 . S
C35 O41 1.208 . S
C36 O28 1.315 . S
C36 O31 1.279 . S
C37 O38 1.315 . S
C37 O39 1.279 . S
O38 Cd30 2.223 . S
O38 C37 1.315 . S
O39 Cd29 2.240 . S
O39 C37 1.279 . S
O40 Cd30 2.297 . S
O40 C35 1.247 . S
O41 Cd30 2.439 . S
O41 C35 1.208 . S
O42 Cd43 2.223 . S
O42 C50 1.315 . S
Cd43 O42 2.223 . S
Cd43 O46 2.297 . S
Cd43 O47 2.439 . S
Cd43 O53 2.240 . S
Cd44 O45 2.240 . S
Cd44 O52 2.223 . S
Cd44 O54 2.297 . S
Cd44 O55 2.439 . S
O45 Cd44 2.240 . S
O45 C50 1.279 . S
O46 Cd43 2.297 . S
O46 C48 1.247 . S
O47 Cd43 2.439 . S
O47 C48 1.208 . S
C48 O46 1.247 . S
C48 O47 1.208 . S
C49 O54 1.247 . S
C49 O55 1.208 . S
C50 O42 1.315 . S
C50 O45 1.279 . S
C51 O52 1.315 . S
C51 O53 1.279 . S
O52 Cd44 2.223 . S
O52 C51 1.315 . S
O53 Cd43 2.240 . S
O53 C51 1.279 . S
O54 Cd44 2.297 . S
O54 C49 1.247 . S
O55 Cd44 2.439 . S
O55 C49 1.208 . S
O56 Cd57 2.223 . S
O56 C64 1.315 . S
Cd57 O56 2.223 . S
Cd57 O60 2.297 . S
Cd57 O61 2.439 . S
Cd57 O67 2.240 . S
Cd58 O59 2.240 . S
Cd58 O66 2.223 . S
Cd58 O68 2.297 . S
Cd58 O69 2.439 . S
O59 Cd58 2.240 . S
O59 C64 1.279 . S
O60 Cd57 2.297 . S
O60 C62 1.247 . S
O61 Cd57 2.439 . S
O61 C62 1.208 . S
C62 O60 1.247 . S
C62 O61 1.208 . S
C63 O68 1.247 . S
C63 O69 1.208 . S
C64 O56 1.315 . S
C64 O59 1.279 . S
C65 O66 1.315 . S
C65 O67 1.279 . S
O66 Cd58 2.223 . S
O66 C65 1.315 . S
O67 Cd57 2.240 . S
O67 C65 1.279 . S
O68 Cd58 2.297 . S
O68 C63 1.247 . S
O69 Cd58 2.439 . S
O69 C63 1.208 . S
O70 Cd71 2.223 . S
O70 C78 1.315 . S
Cd71 O70 2.223 . S
Cd71 O74 2.297 . S
Cd71 O75 2.439 . S
Cd71 O81 2.240 . S
Cd72 O73 2.240 . S
Cd72 O80 2.223 . S
Cd72 O82 2.297 . S
Cd72 O83 2.439 . S
O73 Cd72 2.240 . S
O73 C78 1.279 . S
O74 Cd71 2.297 . S
O74 C76 1.247 . S
O75 Cd71 2.439 . S
O75 C76 1.208 . S
C76 O74 1.247 . S
C76 O75 1.208 . S
C77 O82 1.247 . S
C77 O83 1.208 . S
C78 O70 1.315 . S
C78 O73 1.279 . S
C79 O80 1.315 . S
C79 O81 1.279 . S
O80 Cd72 2.223 . S
O80 C79 1.315 . S
O81 Cd71 2.240 . S
O81 C79 1.279 . S
O82 Cd72 2.297 . S
O82 C77 1.247 . S
O83 Cd72 2.439 . S
O83 C77 1.208 . S
O84 Cd85 2.223 . S
O84 C92 1.315 1_545 S
Cd85 O84 2.223 . S
Cd85 O88 2.297 . S
Cd85 O89 2.439 . S
Cd85 O95 2.240 . S
Cd86 O87 2.240 . S
Cd86 O94 2.223 . S
Cd86 O96 2.297 . S
Cd86 O97 2.439 . S
O87 Cd86 2.240 . S
O87 C92 1.279 . S
O88 Cd85 2.297 . S
O88 C90 1.247 . S
O89 Cd85 2.439 . S
O89 C90 1.208 . S
C90 O88 1.247 . S
C90 O89 1.208 . S
C91 O96 1.247 . S
C91 O97 1.208 . S
C92 O84 1.315 1_565 S
C92 O87 1.279 . S
C93 O94 1.315 1_545 S
C93 O95 1.279 . S
O94 Cd86 2.223 . S
O94 C93 1.315 1_565 S
O95 Cd85 2.240 . S
O95 C93 1.279 . S
O96 Cd86 2.297 . S
O96 C91 1.247 . S
O97 Cd86 2.439 . S
O97 C91 1.208 . S
O98 Cd99 2.223 . S
O98 C106 1.315 . S
Cd99 O98 2.223 . S
Cd99 O102 2.297 . S
Cd99 O103 2.439 . S
Cd99 O109 2.240 . S
Cd100 O101 2.240 . S
Cd100 O108 2.223 . S
Cd100 O110 2.297 . S
Cd100 O111 2.439 . S
O101 Cd100 2.240 . S
O101 C106 1.279 . S
O102 Cd99 2.297 . S
O102 C104 1.247 . S
O103 Cd99 2.439 . S
O103 C104 1.208 . S
C104 O102 1.247 . S
C104 O103 1.208 . S
C105 O110 1.247 . S
C105 O111 1.208 . S
C106 O98 1.315 . S
C106 O101 1.279 . S
C107 O108 1.315 . S
C107 O109 1.279 . S
O108 Cd100 2.223 . S
O108 C107 1.315 . S
O109 Cd99 2.240 . S
O109 C107 1.279 . S
O110 Cd100 2.297 . S
O110 C105 1.247 . S
O111 Cd100 2.439 . S
O111 C105 1.208 . S
O112 Cd113 2.223 . S
O112 C120 1.315 . S
Cd113 O112 2.223 . S
Cd113 O116 2.297 . S
Cd113 O117 2.439 . S
Cd113 O123 2.240 . S
Cd114 O115 2.240 . S
Cd114 O122 2.223 . S
Cd114 O124 2.297 . S
Cd114 O125 2.439 . S
O115 Cd114 2.240 . S
O115 C120 1.279 . S
O116 Cd113 2.297 . S
O116 C118 1.247 . S
O117 Cd113 2.439 . S
O117 C118 1.208 . S
C118 O116 1.247 . S
C118 O117 1.208 . S
C119 O124 1.247 . S
C119 O125 1.208 . S
C120 O112 1.315 . S
C120 O115 1.279 . S
C121 O122 1.315 . S
C121 O123 1.279 . S
O122 Cd114 2.223 . S
O122 C121 1.315 . S
O123 Cd113 2.240 . S
O123 C121 1.279 . S
O124 Cd114 2.297 . S
O124 C119 1.247 . S
O125 Cd114 2.439 . S
O125 C119 1.208 . S
O126 Cd127 2.223 . S
O126 C134 1.315 . S
Cd127 O126 2.223 . S
Cd127 O130 2.297 . S
Cd127 O131 2.439 . S
Cd127 O137 2.240 . S
Cd128 O129 2.240 . S
Cd128 O136 2.223 . S
Cd128 O138 2.297 . S
Cd128 O139 2.439 . S
O129 Cd128 2.240 . S
O129 C134 1.279 . S
O130 Cd127 2.297 . S
O130 C132 1.247 . S
O131 Cd127 2.439 . S
O131 C132 1.208 . S
C132 O130 1.247 . S
C132 O131 1.208 . S
C133 O138 1.247 . S
C133 O139 1.208 . S
C134 O126 1.315 . S
C134 O129 1.279 . S
C135 O136 1.315 . S
C135 O137 1.279 . S
O136 Cd128 2.223 . S
O136 C135 1.315 . S
O137 Cd127 2.240 . S
O137 C135 1.279 . S
O138 Cd128 2.297 . S
O138 C133 1.247 . S
O139 Cd128 2.439 . S
O139 C133 1.208 . S
O140 Cd141 2.223 . S
O140 C148 1.315 . S
Cd141 O140 2.223 . S
Cd141 O144 2.297 . S
Cd141 O145 2.439 . S
Cd141 O151 2.240 . S
Cd142 O143 2.240 . S
Cd142 O150 2.223 . S
Cd142 O152 2.297 . S
Cd142 O153 2.439 . S
O143 Cd142 2.240 . S
O143 C148 1.279 . S
O144 Cd141 2.297 . S
O144 C146 1.247 . S
O145 Cd141 2.439 . S
O145 C146 1.208 . S
C146 O144 1.247 . S
C146 O145 1.208 . S
C147 O152 1.247 . S
C147 O153 1.208 . S
C148 O140 1.315 . S
C148 O143 1.279 . S
C149 O150 1.315 . S
C149 O151 1.279 . S
O150 Cd142 2.223 . S
O150 C149 1.315 . S
O151 Cd141 2.240 . S
O151 C149 1.279 . S
O152 Cd142 2.297 . S
O152 C147 1.247 . S
O153 Cd142 2.439 . S
O153 C147 1.208 . S
O154 Cd155 2.223 . S
O154 C162 1.315 1_455 S
Cd155 O154 2.223 . S
Cd155 O158 2.297 . S
Cd155 O159 2.439 . S
Cd155 O165 2.240 . S
Cd156 O157 2.240 . S
Cd156 O164 2.223 . S
Cd156 O166 2.297 . S
Cd156 O167 2.439 . S
O157 Cd156 2.240 . S
O157 C162 1.279 . S
O158 Cd155 2.297 . S
O158 C160 1.247 . S
O159 Cd155 2.439 . S
O159 C160 1.208 . S
C160 O158 1.247 . S
C160 O159 1.208 . S
C161 O166 1.247 . S
C161 O167 1.208 . S
C162 O154 1.315 1_655 S
C162 O157 1.279 . S
C163 O164 1.315 1_455 S
C163 O165 1.279 . S
O164 Cd156 2.223 . S
O164 C163 1.315 1_655 S
O165 Cd155 2.240 . S
O165 C163 1.279 . S
O166 Cd156 2.297 . S
O166 C161 1.247 . S
O167 Cd156 2.439 . S
O167 C161 1.208 . S
C168 C169 1.349 . S
C168 C170 1.327 . S
C168 H193 0.950 . S
C169 C168 1.349 . S
C169 C185 1.349 1_655 S
C170 C168 1.327 . S
C170 C189 1.429 . S
C170 H194 0.950 . S
C171 C188 1.574 . S
C171 C190 1.368 1_455 S
C171 H195 0.949 . S
H172 C176 0.949 . S
C173 C174 1.349 . S
C173 C175 1.327 . S
C173 H196 0.950 . S
C174 C173 1.349 . S
C174 C186 1.349 1_455 S
C175 C173 1.327 . S
C175 C191 1.429 . S
C175 H197 0.950 . S
C176 H172 0.949 . S
C176 C184 1.574 . S
C176 C192 1.368 1_655 S
H177 C185 0.950 . S
H178 C183 0.950 . S
H179 C184 0.949 . S
H180 C186 0.950 . S
H181 C187 0.950 . S
H182 C188 0.949 . S
C183 H178 0.950 . S
C183 C185 1.327 . S
C183 C189 1.429 1_455 S
C184 C176 1.574 . S
C184 H179 0.949 . S
C184 C190 1.368 . S
C185 C169 1.349 1_455 S
C185 H177 0.950 . S
C185 C183 1.327 . S
C186 C174 1.349 1_655 S
C186 H180 0.950 . S
C186 C187 1.327 . S
C187 H181 0.950 . S
C187 C186 1.327 . S
C187 C191 1.429 1_655 S
C188 C171 1.574 . S
C188 H182 0.949 . S
C188 C192 1.368 . S
C189 C170 1.429 . S
C189 C183 1.429 1_655 S
C189 C190 1.523 . S
C190 C171 1.368 1_655 S
C190 C184 1.368 . S
C190 C189 1.523 . S
C191 C175 1.429 . S
C191 C187 1.429 1_455 S
C191 C192 1.523 . S
C192 C176 1.368 1_455 S
C192 C188 1.368 . S
C192 C191 1.523 . S
H193 C168 0.950 . S
H194 C170 0.950 . S
H195 C171 0.949 . S
H196 C173 0.950 . S
H197 C175 0.950 . S
C198 C199 1.349 1_565 S
C198 C200 1.327 . S
C198 H223 0.950 . S
C199 C198 1.349 1_545 S
C199 C215 1.349 . S
C200 C198 1.327 . S
C200 C219 1.429 1_565 S
C200 H224 0.950 . S
C201 C218 1.574 . S
C201 C220 1.368 . S
C201 H225 0.949 . S
H202 C206 0.949 . S
C203 C204 1.349 1_545 S
C203 C205 1.327 . S
C203 H226 0.950 . S
C204 C203 1.349 1_565 S
C204 C216 1.349 . S
C205 C203 1.327 . S
C205 C221 1.429 1_545 S
C205 H227 0.950 . S
C206 H202 0.949 . S
C206 C214 1.574 . S
C206 C222 1.368 . S
H207 C215 0.950 . S
H208 C213 0.950 . S
H209 C214 0.949 . S
H210 C216 0.950 . S
H211 C217 0.950 . S
H212 C218 0.949 . S
C213 H208 0.950 . S
C213 C215 1.327 . S
C213 C219 1.429 . S
C214 C206 1.574 . S
C214 H209 0.949 . S
C214 C220 1.368 1_565 S
C215 C199 1.349 . S
C215 H207 0.950 . S
C215 C213 1.327 . S
C216 C204 1.349 . S
C216 H210 0.950 . S
C216 C217 1.327 . S
C217 H211 0.950 . S
C217 C216 1.327 . S
C217 C221 1.429 . S
C218 C201 1.574 . S
C218 H212 0.949 . S
C218 C222 1.368 1_545 S
C219 C200 1.429 1_545 S
C219 C213 1.429 . S
C219 C220 1.523 . S
C220 C201 1.368 . S
C220 C214 1.368 1_545 S
C220 C219 1.523 . S
C221 C205 1.429 1_565 S
C221 C217 1.429 . S
C221 C222 1.523 . S
C222 C206 1.368 . S
C222 C218 1.368 1_565 S
C222 C221 1.523 . S
H223 C198 0.950 . S
H224 C200 0.950 . S
H225 C201 0.949 . S
H226 C203 0.950 . S
H227 C205 0.950 . S
C228 C229 1.349 . S
C228 C230 1.327 . S
C228 H253 0.950 . S
C229 C228 1.349 . S
C229 C245 1.349 . S
C230 C228 1.327 . S
C230 C249 1.429 . S
C230 H254 0.950 . S
C231 C248 1.574 . S
C231 C250 1.368 . S
C231 H255 0.949 . S
H232 C236 0.949 . S
C233 C234 1.349 . S
C233 C235 1.327 . S
C233 H256 0.950 . S
C234 C233 1.349 . S
C234 C246 1.349 . S
C235 C233 1.327 . S
C235 C251 1.429 . S
C235 H257 0.950 . S
C236 H232 0.949 . S
C236 C244 1.574 . S
C236 C252 1.368 . S
H237 C245 0.950 . S
H238 C243 0.950 . S
H239 C244 0.949 . S
H240 C246 0.950 . S
H241 C247 0.950 . S
H242 C248 0.949 . S
C243 H238 0.950 . S
C243 C245 1.327 . S
C243 C249 1.429 . S
C244 C236 1.574 . S
C244 H239 0.949 . S
C244 C250 1.368 . S
C245 C229 1.349 . S
C245 H237 0.950 . S
C245 C243 1.327 . S
C246 C234 1.349 . S
C246 H240 0.950 . S
C246 C247 1.327 . S
C247 H241 0.950 . S
C247 C246 1.327 . S
C247 C251 1.429 . S
C248 C231 1.574 . S
C248 H242 0.949 . S
C248 C252 1.368 . S
C249 C230 1.429 . S
C249 C243 1.429 . S
C249 C250 1.523 . S
C250 C231 1.368 . S
C250 C244 1.368 . S
C250 C249 1.523 . S
C251 C235 1.429 . S
C251 C247 1.429 . S
C251 C252 1.523 . S
C252 C236 1.368 . S
C252 C248 1.368 . S
C252 C251 1.523 . S
H253 C228 0.950 . S
H254 C230 0.950 . S
H255 C231 0.949 . S
H256 C233 0.950 . S
H257 C235 0.950 . S
C258 C259 1.349 . S
C258 C260 1.327 . S
C258 H283 0.950 . S
C259 C258 1.349 . S
C259 C275 1.349 . S
C260 C258 1.327 . S
C260 C279 1.429 . S
C260 H284 0.950 . S
C261 C278 1.574 1_655 S
C261 C280 1.368 . S
C261 H285 0.949 . S
H262 C266 0.949 . S
C263 C264 1.349 . S
C263 C265 1.327 . S
C263 H286 0.950 . S
C264 C263 1.349 . S
C264 C276 1.349 . S
C265 C263 1.327 . S
C265 C281 1.429 . S
C265 H287 0.950 . S
C266 H262 0.949 . S
C266 C274 1.574 1_455 S
C266 C282 1.368 . S
H267 C275 0.950 . S
H268 C273 0.950 . S
H269 C274 0.949 . S
H270 C276 0.950 . S
H271 C277 0.950 . S
H272 C278 0.949 . S
C273 H268 0.950 . S
C273 C275 1.327 . S
C273 C279 1.429 . S
C274 C266 1.574 1_655 S
C274 H269 0.949 . S
C274 C280 1.368 . S
C275 C259 1.349 . S
C275 H267 0.950 . S
C275 C273 1.327 . S
C276 C264 1.349 . S
C276 H270 0.950 . S
C276 C277 1.327 . S
C277 H271 0.950 . S
C277 C276 1.327 . S
C277 C281 1.429 . S
C278 C261 1.574 1_455 S
C278 H272 0.949 . S
C278 C282 1.368 . S
C279 C260 1.429 . S
C279 C273 1.429 . S
C279 C280 1.523 . S
C280 C261 1.368 . S
C280 C274 1.368 . S
C280 C279 1.523 . S
C281 C265 1.429 . S
C281 C277 1.429 . S
C281 C282 1.523 . S
C282 C266 1.368 . S
C282 C278 1.368 . S
C282 C281 1.523 . S
H283 C258 0.950 . S
H284 C260 0.950 . S
H285 C261 0.949 . S
H286 C263 0.950 . S
H287 C265 0.950 . S
C288 C289 1.349 . S
C288 C290 1.327 . S
C288 H313 0.950 . S
C289 C288 1.349 . S
C289 C305 1.349 . S
C290 C288 1.327 . S
C290 C309 1.429 . S
C290 H314 0.950 . S
C291 C308 1.574 . S
C291 C310 1.368 1_565 S
C291 H315 0.949 . S
H292 C296 0.949 . S
C293 C294 1.349 . S
C293 C295 1.327 . S
C293 H316 0.950 . S
C294 C293 1.349 . S
C294 C306 1.349 . S
C295 C293 1.327 . S
C295 C311 1.429 . S
C295 H317 0.950 . S
C296 H292 0.949 . S
C296 C304 1.574 . S
C296 C312 1.368 1_545 S
H297 C305 0.950 . S
H298 C303 0.950 . S
H299 C304 0.949 . S
H300 C306 0.950 . S
H301 C307 0.950 . S
H302 C308 0.949 . S
C303 H298 0.950 . S
C303 C305 1.327 . S
C303 C309 1.429 . S
C304 C296 1.574 . S
C304 H299 0.949 . S
C304 C310 1.368 . S
C305 C289 1.349 . S
C305 H297 0.950 . S
C305 C303 1.327 . S
C306 C294 1.349 . S
C306 H300 0.950 . S
C306 C307 1.327 . S
C307 H301 0.950 . S
C307 C306 1.327 . S
C307 C311 1.429 . S
C308 C291 1.574 . S
C308 H302 0.949 . S
C308 C312 1.368 . S
C309 C290 1.429 . S
C309 C303 1.429 . S
C309 C310 1.523 . S
C310 C291 1.368 1_545 S
C310 C304 1.368 . S
C310 C309 1.523 . S
C311 C295 1.429 . S
C311 C307 1.429 . S
C311 C312 1.523 . S
C312 C296 1.368 1_565 S
C312 C308 1.368 . S
C312 C311 1.523 . S
H313 C288 0.950 . S
H314 C290 0.950 . S
H315 C291 0.949 . S
H316 C293 0.950 . S
H317 C295 0.950 . S
C318 C319 1.349 . S
C318 C320 1.327 . S
C318 H343 0.950 . S
C319 C318 1.349 . S
C319 C335 1.349 . S
C320 C318 1.327 . S
C320 C339 1.429 . S
C320 H344 0.950 . S
C321 C338 1.574 . S
C321 C340 1.368 . S
C321 H345 0.949 . S
H322 C326 0.949 . S
C323 C324 1.349 . S
C323 C325 1.327 . S
C323 H346 0.950 . S
C324 C323 1.349 . S
C324 C336 1.349 . S
C325 C323 1.327 . S
C325 C341 1.429 . S
C325 H347 0.950 . S
C326 H322 0.949 . S
C326 C334 1.574 . S
C326 C342 1.368 . S
H327 C335 0.950 . S
H328 C333 0.950 . S
H329 C334 0.949 . S
H330 C336 0.950 . S
H331 C337 0.950 . S
H332 C338 0.949 . S
C333 H328 0.950 . S
C333 C335 1.327 . S
C333 C339 1.429 . S
C334 C326 1.574 . S
C334 H329 0.949 . S
C334 C340 1.368 . S
C335 C319 1.349 . S
C335 H327 0.950 . S
C335 C333 1.327 . S
C336 C324 1.349 . S
C336 H330 0.950 . S
C336 C337 1.327 . S
C337 H331 0.950 . S
C337 C336 1.327 . S
C337 C341 1.429 . S
C338 C321 1.574 . S
C338 H332 0.949 . S
C338 C342 1.368 . S
C339 C320 1.429 . S
C339 C333 1.429 . S
C339 C340 1.523 . S
C340 C321 1.368 . S
C340 C334 1.368 . S
C340 C339 1.523 . S
C341 C325 1.429 . S
C341 C337 1.429 . S
C341 C342 1.523 . S
C342 C326 1.368 . S
C342 C338 1.368 . S
C342 C341 1.523 . S
H343 C318 0.950 . S
H344 C320 0.950 . S
H345 C321 0.949 . S
H346 C323 0.950 . S
H347 C325 0.950 . S
C348 C349 1.349 . S
C348 C350 1.327 . S
C348 H373 0.950 . S
C349 C348 1.349 . S
C349 C365 1.349 . S
C350 C348 1.327 . S
C350 C369 1.429 . S
C350 H374 0.950 . S
C351 C368 1.574 1_554 S
C351 C370 1.368 . S
C351 H375 0.949 . S
H352 C356 0.949 . S
C353 C354 1.349 . S
C353 C355 1.327 . S
C353 H376 0.950 . S
C354 C353 1.349 . S
C354 C366 1.349 . S
C355 C353 1.327 . S
C355 C371 1.429 . S
C355 H377 0.950 . S
C356 H352 0.949 . S
C356 C364 1.574 1_556 S
C356 C372 1.368 . S
H357 C365 0.950 . S
H358 C363 0.950 . S
H359 C364 0.949 . S
H360 C366 0.950 . S
H361 C367 0.950 . S
H362 C368 0.949 . S
C363 H358 0.950 . S
C363 C365 1.327 . S
C363 C369 1.429 . S
C364 C356 1.574 1_554 S
C364 H359 0.949 . S
C364 C370 1.368 . S
C365 C349 1.349 . S
C365 H357 0.950 . S
C365 C363 1.327 . S
C366 C354 1.349 . S
C366 H360 0.950 . S
C366 C367 1.327 . S
C367 H361 0.950 . S
C367 C366 1.327 . S
C367 C371 1.429 . S
C368 C351 1.574 1_556 S
C368 H362 0.949 . S
C368 C372 1.368 . S
C369 C350 1.429 . S
C369 C363 1.429 . S
C369 C370 1.523 . S
C370 C351 1.368 . S
C370 C364 1.368 . S
C370 C369 1.523 . S
C371 C355 1.429 . S
C371 C367 1.429 . S
C371 C372 1.523 . S
C372 C356 1.368 . S
C372 C368 1.368 . S
C372 C371 1.523 . S
H373 C348 0.950 . S
H374 C350 0.950 . S
H375 C351 0.949 . S
H376 C353 0.950 . S
H377 C355 0.950 . S
C378 C379 1.349 . S
C378 C380 1.327 . S
C378 H403 0.950 . S
C379 C378 1.349 . S
C379 C395 1.349 . S
C380 C378 1.327 . S
C380 C399 1.429 . S
C380 H404 0.950 . S
C381 C398 1.574 . S
C381 C400 1.368 . S
C381 H405 0.949 . S
H382 C386 0.949 . S
C383 C384 1.349 . S
C383 C385 1.327 . S
C383 H406 0.950 . S
C384 C383 1.349 . S
C384 C396 1.349 . S
C385 C383 1.327 . S
C385 C401 1.429 . S
C385 H407 0.950 . S
C386 H382 0.949 . S
C386 C394 1.574 . S
C386 C402 1.368 . S
H387 C395 0.950 . S
H388 C393 0.950 . S
H389 C394 0.949 . S
H390 C396 0.950 . S
H391 C397 0.950 . S
H392 C398 0.949 . S
C393 H388 0.950 . S
C393 C395 1.327 . S
C393 C399 1.429 . S
C394 C386 1.574 . S
C394 H389 0.949 . S
C394 C400 1.368 . S
C395 C379 1.349 . S
C395 H387 0.950 . S
C395 C393 1.327 . S
C396 C384 1.349 . S
C396 H390 0.950 . S
C396 C397 1.327 . S
C397 H391 0.950 . S
C397 C396 1.327 . S
C397 C401 1.429 . S
C398 C381 1.574 . S
C398 H392 0.949 . S
C398 C402 1.368 . S
C399 C380 1.429 . S
C399 C393 1.429 . S
C399 C400 1.523 . S
C400 C381 1.368 . S
C400 C394 1.368 . S
C400 C399 1.523 . S
C401 C385 1.429 . S
C401 C397 1.429 . S
C401 C402 1.523 . S
C402 C386 1.368 . S
C402 C398 1.368 . S
C402 C401 1.523 . S
H403 C378 0.950 . S
H404 C380 0.950 . S
H405 C381 0.949 . S
H406 C383 0.950 . S
H407 C385 0.950 . S
C408 C409 1.349 . S
C408 C410 1.327 . S
C408 H433 0.950 . S
C409 C408 1.349 . S
C409 C425 1.349 . S
C410 C408 1.327 . S
C410 C429 1.429 . S
C410 H434 0.950 . S
C411 C428 1.574 . S
C411 C430 1.368 . S
C411 H435 0.949 . S
H412 C416 0.949 . S
C413 C414 1.349 . S
C413 C415 1.327 . S
C413 H436 0.950 . S
C414 C413 1.349 . S
C414 C426 1.349 . S
C415 C413 1.327 . S
C415 C431 1.429 . S
C415 H437 0.950 . S
C416 H412 0.949 . S
C416 C424 1.574 . S
C416 C432 1.368 . S
H417 C425 0.950 . S
H418 C423 0.950 . S
H419 C424 0.949 . S
H420 C426 0.950 . S
H421 C427 0.950 . S
H422 C428 0.949 . S
C423 H418 0.950 . S
C423 C425 1.327 . S
C423 C429 1.429 . S
C424 C416 1.574 . S
C424 H419 0.949 . S
C424 C430 1.368 . S
C425 C409 1.349 . S
C425 H417 0.950 . S
C425 C423 1.327 . S
C426 C414 1.349 . S
C426 H420 0.950 . S
C426 C427 1.327 . S
C427 H421 0.950 . S
C427 C426 1.327 . S
C427 C431 1.429 . S
C428 C411 1.574 . S
C428 H422 0.949 . S
C428 C432 1.368 . S
C429 C410 1.429 . S
C429 C423 1.429 . S
C429 C430 1.523 . S
C430 C411 1.368 . S
C430 C424 1.368 . S
C430 C429 1.523 . S
C431 C415 1.429 . S
C431 C427 1.429 . S
C431 C432 1.523 . S
C432 C416 1.368 . S
C432 C428 1.368 . S
C432 C431 1.523 . S
H433 C408 0.950 . S
H434 C410 0.950 . S
H435 C411 0.949 . S
H436 C413 0.950 . S
H437 C415 0.950 . S
C438 C439 1.349 . S
C438 C440 1.327 . S
C438 H463 0.950 . S
C439 C438 1.349 . S
C439 C455 1.349 . S
C440 C438 1.327 . S
C440 C459 1.429 . S
C440 H464 0.950 . S
C441 C458 1.574 1_554 S
C441 C460 1.368 . S
C441 H465 0.949 . S
H442 C446 0.949 . S
C443 C444 1.349 . S
C443 C445 1.327 . S
C443 H466 0.950 . S
C444 C443 1.349 . S
C444 C456 1.349 . S
C445 C443 1.327 . S
C445 C461 1.429 . S
C445 H467 0.950 . S
C446 H442 0.949 . S
C446 C454 1.574 1_556 S
C446 C462 1.368 . S
H447 C455 0.950 . S
H448 C453 0.950 . S
H449 C454 0.949 . S
H450 C456 0.950 . S
H451 C457 0.950 . S
H452 C458 0.949 . S
C453 H448 0.950 . S
C453 C455 1.327 . S
C453 C459 1.429 . S
C454 C446 1.574 1_554 S
C454 H449 0.949 . S
C454 C460 1.368 . S
C455 C439 1.349 . S
C455 H447 0.950 . S
C455 C453 1.327 . S
C456 C444 1.349 . S
C456 H450 0.950 . S
C456 C457 1.327 . S
C457 H451 0.950 . S
C457 C456 1.327 . S
C457 C461 1.429 . S
C458 C441 1.574 1_556 S
C458 H452 0.949 . S
C458 C462 1.368 . S
C459 C440 1.429 . S
C459 C453 1.429 . S
C459 C460 1.523 . S
C460 C441 1.368 . S
C460 C454 1.368 . S
C460 C459 1.523 . S
C461 C445 1.429 . S
C461 C457 1.429 . S
C461 C462 1.523 . S
C462 C446 1.368 . S
C462 C458 1.368 . S
C462 C461 1.523 . S
H463 C438 0.950 . S
H464 C440 0.950 . S
H465 C441 0.949 . S
H466 C443 0.950 . S
H467 C445 0.950 . S
C468 C469 1.349 . S
C468 C470 1.327 . S
C468 H493 0.950 . S
C469 C468 1.349 . S
C469 C485 1.349 . S
C470 C468 1.327 . S
C470 C489 1.429 . S
C470 H494 0.950 . S
C471 C488 1.574 . S
C471 C490 1.368 . S
C471 H495 0.949 . S
H472 C476 0.949 . S
C473 C474 1.349 . S
C473 C475 1.327 . S
C473 H496 0.950 . S
C474 C473 1.349 . S
C474 C486 1.349 . S
C475 C473 1.327 . S
C475 C491 1.429 . S
C475 H497 0.950 . S
C476 H472 0.949 . S
C476 C484 1.574 . S
C476 C492 1.368 . S
H477 C485 0.950 . S
H478 C483 0.950 . S
H479 C484 0.949 . S
H480 C486 0.950 . S
H481 C487 0.950 . S
H482 C488 0.949 . S
C483 H478 0.950 . S
C483 C485 1.327 . S
C483 C489 1.429 . S
C484 C476 1.574 . S
C484 H479 0.949 . S
C484 C490 1.368 . S
C485 C469 1.349 . S
C485 H477 0.950 . S
C485 C483 1.327 . S
C486 C474 1.349 . S
C486 H480 0.950 . S
C486 C487 1.327 . S
C487 H481 0.950 . S
C487 C486 1.327 . S
C487 C491 1.429 . S
C488 C471 1.574 . S
C488 H482 0.949 . S
C488 C492 1.368 . S
C489 C470 1.429 . S
C489 C483 1.429 . S
C489 C490 1.523 . S
C490 C471 1.368 . S
C490 C484 1.368 . S
C490 C489 1.523 . S
C491 C475 1.429 . S
C491 C487 1.429 . S
C491 C492 1.523 . S
C492 C476 1.368 . S
C492 C488 1.368 . S
C492 C491 1.523 . S
H493 C468 0.950 . S
H494 C470 0.950 . S
H495 C471 0.949 . S
H496 C473 0.950 . S
H497 C475 0.950 . S
C498 C499 1.349 . S
C498 C500 1.327 . S
C498 H523 0.950 . S
C499 C498 1.349 . S
C499 C515 1.349 . S
C500 C498 1.327 . S
C500 C519 1.429 . S
C500 H524 0.950 . S
C501 C518 1.574 . S
C501 C520 1.368 . S
C501 H525 0.949 . S
H502 C506 0.949 . S
C503 C504 1.349 . S
C503 C505 1.327 . S
C503 H526 0.950 . S
C504 C503 1.349 . S
C504 C516 1.349 . S
C505 C503 1.327 . S
C505 C521 1.429 . S
C505 H527 0.950 . S
C506 H502 0.949 . S
C506 C514 1.574 . S
C506 C522 1.368 . S
H507 C515 0.950 . S
H508 C513 0.950 . S
H509 C514 0.949 . S
H510 C516 0.950 . S
H511 C517 0.950 . S
H512 C518 0.949 . S
C513 H508 0.950 . S
C513 C515 1.327 . S
C513 C519 1.429 . S
C514 C506 1.574 . S
C514 H509 0.949 . S
C514 C520 1.368 . S
C515 C499 1.349 . S
C515 H507 0.950 . S
C515 C513 1.327 . S
C516 C504 1.349 . S
C516 H510 0.950 . S
C516 C517 1.327 . S
C517 H511 0.950 . S
C517 C516 1.327 . S
C517 C521 1.429 . S
C518 C501 1.574 . S
C518 H512 0.949 . S
C518 C522 1.368 . S
C519 C500 1.429 . S
C519 C513 1.429 . S
C519 C520 1.523 . S
C520 C501 1.368 . S
C520 C514 1.368 . S
C520 C519 1.523 . S
C521 C505 1.429 . S
C521 C517 1.429 . S
C521 C522 1.523 . S
C522 C506 1.368 . S
C522 C518 1.368 . S
C522 C521 1.523 . S
H523 C498 0.950 . S
H524 C500 0.950 . S
H525 C501 0.949 . S
H526 C503 0.950 . S
H527 C505 0.950 . S
C528 C529 1.349 . S
C528 C530 1.327 . S
C528 H553 0.950 . S
C529 C528 1.349 . S
C529 C545 1.349 . S
C530 C528 1.327 . S
C530 C549 1.429 . S
C530 H554 0.950 . S
C531 C548 1.574 . S
C531 C550 1.368 . S
C531 H555 0.949 . S
H532 C536 0.949 . S
C533 C534 1.349 . S
C533 C535 1.327 . S
C533 H556 0.950 . S
C534 C533 1.349 . S
C534 C546 1.349 . S
C535 C533 1.327 . S
C535 C551 1.429 . S
C535 H557 0.950 . S
C536 H532 0.949 . S
C536 C544 1.574 . S
C536 C552 1.368 . S
H537 C545 0.950 . S
H538 C543 0.950 . S
H539 C544 0.949 . S
H540 C546 0.950 . S
H541 C547 0.950 . S
H542 C548 0.949 . S
C543 H538 0.950 . S
C543 C545 1.327 . S
C543 C549 1.429 . S
C544 C536 1.574 . S
C544 H539 0.949 . S
C544 C550 1.368 . S
C545 C529 1.349 . S
C545 H537 0.950 . S
C545 C543 1.327 . S
C546 C534 1.349 . S
C546 H540 0.950 . S
C546 C547 1.327 . S
C547 H541 0.950 . S
C547 C546 1.327 . S
C547 C551 1.429 . S
C548 C531 1.574 . S
C548 H542 0.949 . S
C548 C552 1.368 . S
C549 C530 1.429 . S
C549 C543 1.429 . S
C549 C550 1.523 . S
C550 C531 1.368 . S
C550 C544 1.368 . S
C550 C549 1.523 . S
C551 C535 1.429 . S
C551 C547 1.429 . S
C551 C552 1.523 . S
C552 C536 1.368 . S
C552 C548 1.368 . S
C552 C551 1.523 . S
H553 C528 0.950 . S
H554 C530 0.950 . S
H555 C531 0.949 . S
H556 C533 0.950 . S
H557 C535 0.950 . S
C558 C559 1.349 . S
C558 C560 1.327 . S
C558 H583 0.950 . S
C559 C558 1.349 . S
C559 C575 1.349 . S
C560 C558 1.327 . S
C560 C579 1.429 . S
C560 H584 0.950 . S
C561 C578 1.574 . S
C561 C580 1.368 . S
C561 H585 0.949 . S
H562 C566 0.949 . S
C563 C564 1.349 . S
C563 C565 1.327 . S
C563 H586 0.950 . S
C564 C563 1.349 . S
C564 C576 1.349 . S
C565 C563 1.327 . S
C565 C581 1.429 . S
C565 H587 0.950 . S
C566 H562 0.949 . S
C566 C574 1.574 . S
C566 C582 1.368 . S
H567 C575 0.950 . S
H568 C573 0.950 . S
H569 C574 0.949 . S
H570 C576 0.950 . S
H571 C577 0.950 . S
H572 C578 0.949 . S
C573 H568 0.950 . S
C573 C575 1.327 . S
C573 C579 1.429 . S
C574 C566 1.574 . S
C574 H569 0.949 . S
C574 C580 1.368 . S
C575 C559 1.349 . S
C575 H567 0.950 . S
C575 C573 1.327 . S
C576 C564 1.349 . S
C576 H570 0.950 . S
C576 C577 1.327 . S
C577 H571 0.950 . S
C577 C576 1.327 . S
C577 C581 1.429 . S
C578 C561 1.574 . S
C578 H572 0.949 . S
C578 C582 1.368 . S
C579 C560 1.429 . S
C579 C573 1.429 . S
C579 C580 1.523 . S
C580 C561 1.368 . S
C580 C574 1.368 . S
C580 C579 1.523 . S
C581 C565 1.429 . S
C581 C577 1.429 . S
C581 C582 1.523 . S
C582 C566 1.368 . S
C582 C578 1.368 . S
C582 C581 1.523 . S
H583 C558 0.950 . S
H584 C560 0.950 . S
H585 C561 0.949 . S
H586 C563 0.950 . S
H587 C565 0.950 . S
C588 C589 1.349 . S
C588 C590 1.327 . S
C588 H613 0.950 . S
C589 C588 1.349 . S
C589 C605 1.349 . S
C590 C588 1.327 . S
C590 C609 1.429 . S
C590 H614 0.950 . S
C591 C608 1.574 . S
C591 C610 1.368 . S
C591 H615 0.949 . S
H592 C596 0.949 . S
C593 C594 1.349 . S
C593 C595 1.327 . S
C593 H616 0.950 . S
C594 C593 1.349 . S
C594 C606 1.349 . S
C595 C593 1.327 . S
C595 C611 1.429 . S
C595 H617 0.950 . S
C596 H592 0.949 . S
C596 C604 1.574 . S
C596 C612 1.368 . S
H597 C605 0.950 . S
H598 C603 0.950 . S
H599 C604 0.949 . S
H600 C606 0.950 . S
H601 C607 0.950 . S
H602 C608 0.949 . S
C603 H598 0.950 . S
C603 C605 1.327 . S
C603 C609 1.429 . S
C604 C596 1.574 . S
C604 H599 0.949 . S
C604 C610 1.368 . S
C605 C589 1.349 . S
C605 H597 0.950 . S
C605 C603 1.327 . S
C606 C594 1.349 . S
C606 H600 0.950 . S
C606 C607 1.327 . S
C607 H601 0.950 . S
C607 C606 1.327 . S
C607 C611 1.429 . S
C608 C591 1.574 . S
C608 H602 0.949 . S
C608 C612 1.368 . S
C609 C590 1.429 . S
C609 C603 1.429 . S
C609 C610 1.523 . S
C610 C591 1.368 . S
C610 C604 1.368 . S
C610 C609 1.523 . S
C611 C595 1.429 . S
C611 C607 1.429 . S
C611 C612 1.523 . S
C612 C596 1.368 . S
C612 C608 1.368 . S
C612 C611 1.523 . S
H613 C588 0.950 . S
H614 C590 0.950 . S
H615 C591 0.949 . S
H616 C593 0.950 . S
H617 C595 0.950 . S
C618 C619 1.349 . S
C618 C620 1.327 . S
C618 H643 0.950 . S
C619 C618 1.349 . S
C619 C635 1.349 . S
C620 C618 1.327 . S
C620 C639 1.429 . S
C620 H644 0.950 . S
C621 C638 1.574 . S
C621 C640 1.368 . S
C621 H645 0.949 . S
H622 C626 0.949 . S
C623 C624 1.349 . S
C623 C625 1.327 . S
C623 H646 0.950 . S
C624 C623 1.349 . S
C624 C636 1.349 . S
C625 C623 1.327 . S
C625 C641 1.429 . S
C625 H647 0.950 . S
C626 H622 0.949 . S
C626 C634 1.574 . S
C626 C642 1.368 . S
H627 C635 0.950 . S
H628 C633 0.950 . S
H629 C634 0.949 . S
H630 C636 0.950 . S
H631 C637 0.950 . S
H632 C638 0.949 . S
C633 H628 0.950 . S
C633 C635 1.327 . S
C633 C639 1.429 . S
C634 C626 1.574 . S
C634 H629 0.949 . S
C634 C640 1.368 . S
C635 C619 1.349 . S
C635 H627 0.950 . S
C635 C633 1.327 . S
C636 C624 1.349 . S
C636 H630 0.950 . S
C636 C637 1.327 . S
C637 H631 0.950 . S
C637 C636 1.327 . S
C637 C641 1.429 . S
C638 C621 1.574 . S
C638 H632 0.949 . S
C638 C642 1.368 . S
C639 C620 1.429 . S
C639 C633 1.429 . S
C639 C640 1.523 . S
C640 C621 1.368 . S
C640 C634 1.368 . S
C640 C639 1.523 . S
C641 C625 1.429 . S
C641 C637 1.429 . S
C641 C642 1.523 . S
C642 C626 1.368 . S
C642 C638 1.368 . S
C642 C641 1.523 . S
H643 C618 0.950 . S
H644 C620 0.950 . S
H645 C621 0.949 . S
H646 C623 0.950 . S
H647 C625 0.950 . S
C648 C649 1.349 . S
C648 C650 1.327 . S
C648 H673 0.950 . S
C649 C648 1.349 . S
C649 C665 1.349 . S
C650 C648 1.327 . S
C650 C669 1.429 . S
C650 H674 0.950 . S
C651 C668 1.574 . S
C651 C670 1.368 . S
C651 H675 0.949 . S
H652 C656 0.949 . S
C653 C654 1.349 . S
C653 C655 1.327 . S
C653 H676 0.950 . S
C654 C653 1.349 . S
C654 C666 1.349 . S
C655 C653 1.327 . S
C655 C671 1.429 . S
C655 H677 0.950 . S
C656 H652 0.949 . S
C656 C664 1.574 . S
C656 C672 1.368 . S
H657 C665 0.950 . S
H658 C663 0.950 . S
H659 C664 0.949 . S
H660 C666 0.950 . S
H661 C667 0.950 . S
H662 C668 0.949 . S
C663 H658 0.950 . S
C663 C665 1.327 . S
C663 C669 1.429 . S
C664 C656 1.574 . S
C664 H659 0.949 . S
C664 C670 1.368 . S
C665 C649 1.349 . S
C665 H657 0.950 . S
C665 C663 1.327 . S
C666 C654 1.349 . S
C666 H660 0.950 . S
C666 C667 1.327 . S
C667 H661 0.950 . S
C667 C666 1.327 . S
C667 C671 1.429 . S
C668 C651 1.574 . S
C668 H662 0.949 . S
C668 C672 1.368 . S
C669 C650 1.429 . S
C669 C663 1.429 . S
C669 C670 1.523 . S
C670 C651 1.368 . S
C670 C664 1.368 . S
C670 C669 1.523 . S
C671 C655 1.429 . S
C671 C667 1.429 . S
C671 C672 1.523 . S
C672 C656 1.368 . S
C672 C668 1.368 . S
C672 C671 1.523 . S
H673 C648 0.950 . S
H674 C650 0.950 . S
H675 C651 0.949 . S
H676 C653 0.950 . S
H677 C655 0.950 . S
C678 C679 1.349 . S
C678 C680 1.327 . S
C678 H703 0.950 . S
C679 C678 1.349 . S
C679 C695 1.349 . S
C680 C678 1.327 . S
C680 C699 1.429 . S
C680 H704 0.950 . S
C681 C698 1.574 . S
C681 C700 1.368 . S
C681 H705 0.949 . S
H682 C686 0.949 . S
C683 C684 1.349 . S
C683 C685 1.327 . S
C683 H706 0.950 . S
C684 C683 1.349 . S
C684 C696 1.349 . S
C685 C683 1.327 . S
C685 C701 1.429 . S
C685 H707 0.950 . S
C686 H682 0.949 . S
C686 C694 1.574 . S
C686 C702 1.368 . S
H687 C695 0.950 . S
H688 C693 0.950 . S
H689 C694 0.949 . S
H690 C696 0.950 . S
H691 C697 0.950 . S
H692 C698 0.949 . S
C693 H688 0.950 . S
C693 C695 1.327 . S
C693 C699 1.429 . S
C694 C686 1.574 . S
C694 H689 0.949 . S
C694 C700 1.368 . S
C695 C679 1.349 . S
C695 H687 0.950 . S
C695 C693 1.327 . S
C696 C684 1.349 . S
C696 H690 0.950 . S
C696 C697 1.327 . S
C697 H691 0.950 . S
C697 C696 1.327 . S
C697 C701 1.429 . S
C698 C681 1.574 . S
C698 H692 0.949 . S
C698 C702 1.368 . S
C699 C680 1.429 . S
C699 C693 1.429 . S
C699 C700 1.523 . S
C700 C681 1.368 . S
C700 C694 1.368 . S
C700 C699 1.523 . S
C701 C685 1.429 . S
C701 C697 1.429 . S
C701 C702 1.523 . S
C702 C686 1.368 . S
C702 C698 1.368 . S
C702 C701 1.523 . S
H703 C678 0.950 . S
H704 C680 0.950 . S
H705 C681 0.949 . S
H706 C683 0.950 . S
H707 C685 0.950 . S
C708 C709 1.349 . S
C708 C710 1.327 . S
C708 H733 0.950 . S
C709 C708 1.349 . S
C709 C725 1.349 . S
C710 C708 1.327 . S
C710 C729 1.429 1_545 S
C710 H734 0.950 . S
C711 C728 1.574 . S
C711 C730 1.368 . S
C711 H735 0.949 . S
H712 C716 0.949 . S
C713 C714 1.349 . S
C713 C715 1.327 . S
C713 H736 0.950 . S
C714 C713 1.349 . S
C714 C726 1.349 . S
C715 C713 1.327 . S
C715 C731 1.429 . S
C715 H737 0.950 . S
C716 H712 0.949 . S
C716 C724 1.574 . S
C716 C732 1.368 . S
H717 C725 0.950 . S
H718 C723 0.950 1_565 S
H719 C724 0.949 . S
H720 C726 0.950 . S
H721 C727 0.950 . S
H722 C728 0.949 . S
C723 H718 0.950 1_545 S
C723 C725 1.327 . S
C723 C729 1.429 1_545 S
C724 C716 1.574 . S
C724 H719 0.949 . S
C724 C730 1.368 . S
C725 C709 1.349 . S
C725 H717 0.950 . S
C725 C723 1.327 . S
C726 C714 1.349 . S
C726 H720 0.950 . S
C726 C727 1.327 . S
C727 H721 0.950 . S
C727 C726 1.327 . S
C727 C731 1.429 . S
C728 C711 1.574 . S
C728 H722 0.949 . S
C728 C732 1.368 . S
C729 C710 1.429 1_565 S
C729 C723 1.429 1_565 S
C729 C730 1.523 . S
C730 C711 1.368 . S
C730 C724 1.368 . S
C730 C729 1.523 . S
C731 C715 1.429 . S
C731 C727 1.429 . S
C731 C732 1.523 . S
C732 C716 1.368 . S
C732 C728 1.368 . S
C732 C731 1.523 . S
H733 C708 0.950 . S
H734 C710 0.950 . S
H735 C711 0.949 . S
H736 C713 0.950 . S
H737 C715 0.950 . S
C738 C739 1.349 . S
C738 C740 1.327 . S
C738 H763 0.950 . S
C739 C738 1.349 . S
C739 C755 1.349 . S
C740 C738 1.327 . S
C740 C759 1.429 . S
C740 H764 0.950 . S
C741 C758 1.574 . S
C741 C760 1.368 . S
C741 H765 0.949 . S
H742 C746 0.949 . S
C743 C744 1.349 . S
C743 C745 1.327 . S
C743 H766 0.950 . S
C744 C743 1.349 . S
C744 C756 1.349 . S
C745 C743 1.327 . S
C745 C761 1.429 . S
C745 H767 0.950 . S
C746 H742 0.949 . S
C746 C754 1.574 . S
C746 C762 1.368 . S
H747 C755 0.950 . S
H748 C753 0.950 . S
H749 C754 0.949 . S
H750 C756 0.950 . S
H751 C757 0.950 . S
H752 C758 0.949 1_455 S
C753 H748 0.950 . S
C753 C755 1.327 . S
C753 C759 1.429 . S
C754 C746 1.574 . S
C754 H749 0.949 . S
C754 C760 1.368 . S
C755 C739 1.349 . S
C755 H747 0.950 . S
C755 C753 1.327 . S
C756 C744 1.349 . S
C756 H750 0.950 . S
C756 C757 1.327 . S
C757 H751 0.950 . S
C757 C756 1.327 . S
C757 C761 1.429 . S
C758 C741 1.574 . S
C758 H752 0.949 1_655 S
C758 C762 1.368 . S
C759 C740 1.429 . S
C759 C753 1.429 . S
C759 C760 1.523 . S
C760 C741 1.368 . S
C760 C754 1.368 . S
C760 C759 1.523 . S
C761 C745 1.429 . S
C761 C757 1.429 . S
C761 C762 1.523 1_455 S
C762 C746 1.368 . S
C762 C758 1.368 . S
C762 C761 1.523 1_655 S
H763 C738 0.950 . S
H764 C740 0.950 . S
H765 C741 0.949 . S
H766 C743 0.950 . S
H767 C745 0.950 . S
C768 C769 1.349 . S
C768 C770 1.327 . S
C768 H793 0.950 . S
C769 C768 1.349 . S
C769 C785 1.349 . S
C770 C768 1.327 . S
C770 C789 1.429 . S
C770 H794 0.950 . S
C771 C788 1.574 . S
C771 C790 1.368 . S
C771 H795 0.949 . S
H772 C776 0.949 . S
C773 C774 1.349 . S
C773 C775 1.327 . S
C773 H796 0.950 . S
C774 C773 1.349 . S
C774 C786 1.349 . S
C775 C773 1.327 . S
C775 C791 1.429 . S
C775 H797 0.950 1_565 S
C776 H772 0.949 . S
C776 C784 1.574 . S
C776 C792 1.368 . S
H777 C785 0.950 . S
H778 C783 0.950 . S
H779 C784 0.949 . S
H780 C786 0.950 . S
H781 C787 0.950 . S
H782 C788 0.949 . S
C783 H778 0.950 . S
C783 C785 1.327 . S
C783 C789 1.429 . S
C784 C776 1.574 . S
C784 H779 0.949 . S
C784 C790 1.368 . S
C785 C769 1.349 . S
C785 H777 0.950 . S
C785 C783 1.327 . S
C786 C774 1.349 . S
C786 H780 0.950 . S
C786 C787 1.327 . S
C787 H781 0.950 . S
C787 C786 1.327 . S
C787 C791 1.429 . S
C788 C771 1.574 . S
C788 H782 0.949 . S
C788 C792 1.368 . S
C789 C770 1.429 . S
C789 C783 1.429 . S
C789 C790 1.523 1_455 S
C790 C771 1.368 . S
C790 C784 1.368 . S
C790 C789 1.523 1_655 S
C791 C775 1.429 . S
C791 C787 1.429 . S
C791 C792 1.523 1_565 S
C792 C776 1.368 . S
C792 C788 1.368 . S
C792 C791 1.523 1_545 S
H793 C768 0.950 . S
H794 C770 0.950 . S
H795 C771 0.949 . S
H796 C773 0.950 . S
H797 C775 0.950 1_545 S
C798 C799 1.349 . S
C798 C800 1.327 . S
C798 H823 0.950 . S
C799 C798 1.349 . S
C799 C815 1.349 . S
C800 C798 1.327 . S
C800 C819 1.429 . S
C800 H824 0.950 . S
C801 C818 1.574 1_655 S
C801 C820 1.368 . S
C801 H825 0.949 . S
H802 C806 0.949 . S
C803 C804 1.349 . S
C803 C805 1.327 . S
C803 H826 0.950 . S
C804 C803 1.349 . S
C804 C816 1.349 . S
C805 C803 1.327 . S
C805 C821 1.429 . S
C805 H827 0.950 . S
C806 H802 0.949 . S
C806 C814 1.574 1_455 S
C806 C822 1.368 . S
H807 C815 0.950 . S
H808 C813 0.950 . S
H809 C814 0.949 . S
H810 C816 0.950 . S
H811 C817 0.950 . S
H812 C818 0.949 . S
C813 H808 0.950 . S
C813 C815 1.327 . S
C813 C819 1.429 . S
C814 C806 1.574 1_655 S
C814 H809 0.949 . S
C814 C820 1.368 . S
C815 C799 1.349 . S
C815 H807 0.950 . S
C815 C813 1.327 . S
C816 C804 1.349 . S
C816 H810 0.950 . S
C816 C817 1.327 . S
C817 H811 0.950 . S
C817 C816 1.327 . S
C817 C821 1.429 . S
C818 C801 1.574 1_455 S
C818 H812 0.949 . S
C818 C822 1.368 . S
C819 C800 1.429 . S
C819 C813 1.429 . S
C819 C820 1.523 . S
C820 C801 1.368 . S
C820 C814 1.368 . S
C820 C819 1.523 . S
C821 C805 1.429 . S
C821 C817 1.429 . S
C821 C822 1.523 . S
C822 C806 1.368 . S
C822 C818 1.368 . S
C822 C821 1.523 . S
H823 C798 0.950 . S
H824 C800 0.950 . S
H825 C801 0.949 . S
H826 C803 0.950 . S
H827 C805 0.950 . S
C828 C829 1.349 . S
C828 C830 1.327 . S
C828 H853 0.950 . S
C829 C828 1.349 . S
C829 C845 1.349 . S
C830 C828 1.327 . S
C830 C849 1.429 . S
C830 H854 0.950 . S
C831 C848 1.574 . S
C831 C850 1.368 1_455 S
C831 H855 0.949 1_455 S
H832 C836 0.949 . S
C833 C834 1.349 . S
C833 C835 1.327 . S
C833 H856 0.950 . S
C834 C833 1.349 . S
C834 C846 1.349 . S
C835 C833 1.327 . S
C835 C851 1.429 1_545 S
C835 H857 0.950 . S
C836 H832 0.949 . S
C836 C844 1.574 . S
C836 C852 1.368 . S
H837 C845 0.950 . S
H838 C843 0.950 . S
H839 C844 0.949 . S
H840 C846 0.950 . S
H841 C847 0.950 1_565 S
H842 C848 0.949 . S
C843 H838 0.950 . S
C843 C845 1.327 . S
C843 C849 1.429 . S
C844 C836 1.574 . S
C844 H839 0.949 . S
C844 C850 1.368 1_455 S
C845 C829 1.349 . S
C845 H837 0.950 . S
C845 C843 1.327 . S
C846 C834 1.349 . S
C846 H840 0.950 . S
C846 C847 1.327 . S
C847 H841 0.950 1_545 S
C847 C846 1.327 . S
C847 C851 1.429 1_545 S
C848 C831 1.574 . S
C848 H842 0.949 . S
C848 C852 1.368 . S
C849 C830 1.429 . S
C849 C843 1.429 . S
C849 C850 1.523 . S
C850 C831 1.368 1_655 S
C850 C844 1.368 1_655 S
C850 C849 1.523 . S
C851 C835 1.429 1_565 S
C851 C847 1.429 1_565 S
C851 C852 1.523 . S
C852 C836 1.368 . S
C852 C848 1.368 . S
C852 C851 1.523 . S
H853 C828 0.950 . S
H854 C830 0.950 . S
H855 C831 0.949 1_655 S
H856 C833 0.950 . S
H857 C835 0.950 . S
C858 C859 1.349 . S
C858 C860 1.327 . S
C858 H883 0.950 . S
C859 C858 1.349 . S
C859 C875 1.349 . S
C860 C858 1.327 . S
C860 C879 1.429 . S
C860 H884 0.950 . S
C861 C878 1.574 1_565 S
C861 C880 1.368 . S
C861 H885 0.949 . S
H862 C866 0.949 . S
C863 C864 1.349 . S
C863 C865 1.327 . S
C863 H886 0.950 . S
C864 C863 1.349 . S
C864 C876 1.349 . S
C865 C863 1.327 . S
C865 C881 1.429 . S
C865 H887 0.950 . S
C866 H862 0.949 . S
C866 C874 1.574 . S
C866 C882 1.368 1_565 S
H867 C875 0.950 . S
H868 C873 0.950 . S
H869 C874 0.949 . S
H870 C876 0.950 . S
H871 C877 0.950 . S
H872 C878 0.949 . S
C873 H868 0.950 . S
C873 C875 1.327 . S
C873 C879 1.429 . S
C874 C866 1.574 . S
C874 H869 0.949 . S
C874 C880 1.368 . S
C875 C859 1.349 . S
C875 H867 0.950 . S
C875 C873 1.327 . S
C876 C864 1.349 . S
C876 H870 0.950 . S
C876 C877 1.327 . S
C877 H871 0.950 . S
C877 C876 1.327 . S
C877 C881 1.429 . S
C878 C861 1.574 1_545 S
C878 H872 0.949 . S
C878 C882 1.368 . S
C879 C860 1.429 . S
C879 C873 1.429 . S
C879 C880 1.523 . S
C880 C861 1.368 . S
C880 C874 1.368 . S
C880 C879 1.523 . S
C881 C865 1.429 . S
C881 C877 1.429 . S
C881 C882 1.523 . S
C882 C866 1.368 1_545 S
C882 C878 1.368 . S
C882 C881 1.523 . S
H883 C858 0.950 . S
H884 C860 0.950 . S
H885 C861 0.949 . S
H886 C863 0.950 . S
H887 C865 0.950 . S
C169 C162 0.854 . S
C174 C8 0.851 . S
C199 C22 0.930 . S
C204 C92 0.919 . S
C229 C36 2.032 . S
C234 C106 2.011 . S
C259 C50 1.806 . S
C264 C120 1.807 . S
C289 C134 1.666 . S
C294 C64 1.639 . S
C319 C78 0.998 . S
C324 C148 1.002 . S
C349 C7 1.227 . S
C354 C147 1.224 . S
C379 C21 1.227 . S
C384 C161 1.226 . S
C409 C35 1.760 . S
C414 C91 1.814 . S
C439 C49 2.288 . S
C444 C105 2.270 . S
C469 C119 2.109 . S
C474 C63 2.111 . S
C499 C133 1.553 . S
C504 C77 1.582 . S
C529 C48 1.402 . S
C534 C6 1.401 . S
C559 C20 1.340 . S
C564 C62 1.340 . S
C589 C76 1.374 . S
C594 C34 1.379 . S
C619 C132 1.402 . S
C624 C90 1.401 . S
C649 C146 1.369 . S
C654 C104 1.372 . S
C679 C118 1.358 . S
C684 C160 1.353 . S
C709 C9 1.201 . S
C714 C51 1.202 . S
C739 C23 1.191 . S
C744 C65 1.195 . S
C769 C79 1.266 . S
C774 C37 1.257 . S
C799 C93 1.257 . S
C804 C135 1.250 . S
C829 C107 1.200 . S
C834 C149 1.201 . S
C859 C121 1.215 . S
C864 C163 1.220 . S
