# Generated by pormake.
# Topology ukl, (4)-cn, num edge types: 1
# Building blocks:
#     Node 0, Type 0, BuildingBlock: KOZSID_clean_sbu_0, # of connection points: 4
#     Node 1, Type 0, BuildingBlock: KOZSID_clean_sbu_0, # of connection points: 4
#     Node 2, Type 0, BuildingBlock: KOZSID_clean_sbu_0, # of connection points: 4
#     Node 3, Type 0, BuildingBlock: KOZSID_clean_sbu_0, # of connection points: 4
#     Node 4, Type 0, BuildingBlock: KOZSID_clean_sbu_0, # of connection points: 4
#     Node 5, Type 0, BuildingBlock: KOZSID_clean_sbu_0, # of connection points: 4
#     Node 6, Type 0, BuildingBlock: KOZSID_clean_sbu_0, # of connection points: 4
#     Node 7, Type 0, BuildingBlock: KOZSID_clean_sbu_0, # of connection points: 4
#     Node 8, Type 0, BuildingBlock: KOZSID_clean_sbu_0, # of connection points: 4
#     Node 9, Type 0, BuildingBlock: KOZSID_clean_sbu_0, # of connection points: 4
#     Node 10, Type 0, BuildingBlock: KOZSID_clean_sbu_0, # of connection points: 4
#     Node 11, Type 0, BuildingBlock: KOZSID_clean_sbu_0, # of connection points: 4
#     Node 12, Type 0, BuildingBlock: KOZSID_clean_sbu_0, # of connection points: 4
#     Node 13, Type 0, BuildingBlock: KOZSID_clean_sbu_0, # of connection points: 4
#     Node 14, Type 0, BuildingBlock: KOZSID_clean_sbu_0, # of connection points: 4
#     Node 15, Type 0, BuildingBlock: KOZSID_clean_sbu_0, # of connection points: 4
#     Edge 16, Type (0, 0), BuildingBlock: XUDNAN_clean_linker_2, # of connection points: 2
#     Edge 17, Type (0, 0), BuildingBlock: XUDNAN_clean_linker_2, # of connection points: 2
#     Edge 18, Type (0, 0), BuildingBlock: XUDNAN_clean_linker_2, # of connection points: 2
#     Edge 19, Type (0, 0), BuildingBlock: XUDNAN_clean_linker_2, # of connection points: 2
#     Edge 20, Type (0, 0), BuildingBlock: XUDNAN_clean_linker_2, # of connection points: 2
#     Edge 21, Type (0, 0), BuildingBlock: XUDNAN_clean_linker_2, # of connection points: 2
#     Edge 22, Type (0, 0), BuildingBlock: XUDNAN_clean_linker_2, # of connection points: 2
#     Edge 23, Type (0, 0), BuildingBlock: XUDNAN_clean_linker_2, # of connection points: 2
#     Edge 24, Type (0, 0), BuildingBlock: XUDNAN_clean_linker_2, # of connection points: 2
#     Edge 25, Type (0, 0), BuildingBlock: XUDNAN_clean_linker_2, # of connection points: 2
#     Edge 26, Type (0, 0), BuildingBlock: XUDNAN_clean_linker_2, # of connection points: 2
#     Edge 27, Type (0, 0), BuildingBlock: XUDNAN_clean_linker_2, # of connection points: 2
#     Edge 28, Type (0, 0), BuildingBlock: XUDNAN_clean_linker_2, # of connection points: 2
#     Edge 29, Type (0, 0), BuildingBlock: XUDNAN_clean_linker_2, # of connection points: 2
#     Edge 30, Type (0, 0), BuildingBlock: XUDNAN_clean_linker_2, # of connection points: 2
#     Edge 31, Type (0, 0), BuildingBlock: XUDNAN_clean_linker_2, # of connection points: 2
#     Edge 32, Type (0, 0), BuildingBlock: XUDNAN_clean_linker_2, # of connection points: 2
#     Edge 33, Type (0, 0), BuildingBlock: XUDNAN_clean_linker_2, # of connection points: 2
#     Edge 34, Type (0, 0), BuildingBlock: XUDNAN_clean_linker_2, # of connection points: 2
#     Edge 35, Type (0, 0), BuildingBlock: XUDNAN_clean_linker_2, # of connection points: 2
#     Edge 36, Type (0, 0), BuildingBlock: XUDNAN_clean_linker_2, # of connection points: 2
#     Edge 37, Type (0, 0), BuildingBlock: XUDNAN_clean_linker_2, # of connection points: 2
#     Edge 38, Type (0, 0), BuildingBlock: XUDNAN_clean_linker_2, # of connection points: 2
#     Edge 39, Type (0, 0), BuildingBlock: XUDNAN_clean_linker_2, # of connection points: 2
#     Edge 40, Type (0, 0), BuildingBlock: XUDNAN_clean_linker_2, # of connection points: 2
#     Edge 41, Type (0, 0), BuildingBlock: XUDNAN_clean_linker_2, # of connection points: 2
#     Edge 42, Type (0, 0), BuildingBlock: XUDNAN_clean_linker_2, # of connection points: 2
#     Edge 43, Type (0, 0), BuildingBlock: XUDNAN_clean_linker_2, # of connection points: 2
#     Edge 44, Type (0, 0), BuildingBlock: XUDNAN_clean_linker_2, # of connection points: 2
#     Edge 45, Type (0, 0), BuildingBlock: XUDNAN_clean_linker_2, # of connection points: 2
#     Edge 46, Type (0, 0), BuildingBlock: XUDNAN_clean_linker_2, # of connection points: 2
#     Edge 47, Type (0, 0), BuildingBlock: XUDNAN_clean_linker_2, # of connection points: 2
# Relax obj value: 0.088
# Max RMSD: 0.113
# Mean RMSD: 0.085
data_MOF--net-ukl--node1-KOZSID_clean_sbu_0--edge1-XUDNAN_clean_linker_2
_symmetry_space_group_name_H-M    P1
_symmetry_Int_Tables_number       1
_symmetry_cell_setting            triclinic
loop_
_symmetry_equiv_pos_as_xyz
'x, y, z'
_cell_length_a     36.87387
_cell_length_b     38.204694
_cell_length_c     28.56416
_cell_angle_alpha  90.046572
_cell_angle_beta   90.154777
_cell_angle_gamma 94.695085
loop_
_atom_site_label
_atom_site_type_symbol
_atom_site_fract_x
_atom_site_fract_y
_atom_site_fract_z
_atom_type_partial_charge
C0 C 0.37305 0.17513 0.01054 0.0
C1 C 0.37847 0.18617 0.96458 0.0
C2 C 0.36175 0.16036 0.93648 0.0
C3 C 0.34715 0.13502 0.96667 0.0
N4 N 0.35349 0.14365 0.01183 0.0
Co5 Co 0.33743 0.11497 0.06649 0.0
N6 N 0.29963 0.08764 0.02936 0.0
C7 C 0.2987 0.08431 0.98254 0.0
C8 C 0.26733 0.06569 0.96725 0.0
C9 C 0.24733 0.05737 0.00699 0.0
C10 C 0.26776 0.07123 0.04439 0.0
N11 N 0.32064 0.08595 0.12055 0.0
C12 C 0.28716 0.06967 0.12825 0.0
C13 C 0.28562 0.05364 0.17172 0.0
C14 C 0.31945 0.06078 0.19192 0.0
C15 C 0.33971 0.0806 0.15964 0.0
N16 N 0.37458 0.14194 0.10451 0.0
C17 C 0.38824 0.13151 0.14548 0.0
C18 C 0.41411 0.1558 0.1635 0.0
C19 C 0.41693 0.18282 0.13157 0.0
C20 C 0.39252 0.17349 0.09566 0.0
N21 N 0.30254 0.14954 0.0823 0.0
C22 C 0.2638 0.20801 0.10362 0.0
C23 C 0.28062 0.18966 0.1389 0.0
C24 C 0.29994 0.16077 0.12759 0.0
C25 C 0.26543 0.19552 0.05759 0.0
C26 C 0.28441 0.16594 0.04779 0.0
N27 N 0.37459 0.08173 0.05066 0.0
C28 C 0.39718 0.02384 0.04534 0.0
C29 C 0.43244 0.03826 0.03282 0.0
C30 C 0.43736 0.07491 0.02946 0.0
C31 C 0.40866 0.09573 0.03822 0.0
C32 C 0.36871 0.04593 0.05394 0.0
H33 H 0.41475 0.12366 0.03584 0.0
H34 H 0.34215 0.03417 0.06374 0.0
H35 H 0.31399 0.14838 0.15539 0.0
H36 H 0.28557 0.15715 0.012 0.0
C37 C 0.32231 0.10638 0.95483 0.0
C38 C 0.38927 0.19333 0.05188 0.0
C39 C 0.25721 0.06822 0.094 0.0
C40 C 0.37186 0.10193 0.16905 0.0
H41 H 0.39317 0.21018 0.95265 0.0
H42 H 0.35937 0.16073 0.89871 0.0
H43 H 0.25873 0.06095 0.93138 0.0
H44 H 0.22063 0.04337 0.00816 0.0
H45 H 0.26239 0.03887 0.1872 0.0
H46 H 0.32753 0.05434 0.22709 0.0
H47 H 0.42834 0.15463 0.19657 0.0
H48 H 0.43512 0.20646 0.13418 0.0
H49 H 0.27998 0.19842 0.17488 0.0
H50 H 0.25224 0.20856 0.02936 0.0
H51 H 0.39145 0.9957 0.04836 0.0
H52 H 0.46374 0.08799 0.02139 0.0
C53 C 0.74181 0.65109 0.32769 0.0
C54 C 0.75762 0.66893 0.36575 0.0
C55 C 0.7435 0.65208 0.40502 0.0
C56 C 0.72002 0.62484 0.389 0.0
N57 N 0.71879 0.62351 0.34205 0.0
Co58 Co 0.68447 0.5926 0.30389 0.0
N59 N 0.65011 0.58411 0.35671 0.0
C60 C 0.65857 0.58947 0.4022 0.0
C61 C 0.62967 0.58091 0.43136 0.0
C62 C 0.6015 0.56906 0.4024 0.0
C63 C 0.61477 0.57094 0.35689 0.0
N64 N 0.65045 0.56241 0.26476 0.0
C65 C 0.61515 0.55065 0.27228 0.0
C66 C 0.60229 0.52906 0.23573 0.0
C67 C 0.63069 0.52707 0.20505 0.0
C68 C 0.65939 0.5473 0.22427 0.0
N69 N 0.71916 0.60214 0.25186 0.0
C70 C 0.72139 0.58258 0.21306 0.0
C71 C 0.74568 0.59819 0.18127 0.0
C72 C 0.7589 0.62957 0.20134 0.0
C73 C 0.74191 0.63145 0.24431 0.0
N74 N 0.7085 0.54979 0.32229 0.0
C75 C 0.73765 0.48442 0.3403 0.0
C76 C 0.76046 0.51499 0.32995 0.0
C77 C 0.74535 0.54734 0.32081 0.0
C78 C 0.70032 0.48805 0.34276 0.0
C79 C 0.68656 0.52036 0.33394 0.0
N80 N 0.65927 0.63334 0.28505 0.0
C81 C 0.62946 0.66411 0.22455 0.0
C82 C 0.61424 0.68542 0.25793 0.0
C83 C 0.62399 0.6813 0.30512 0.0
C84 C 0.64691 0.6555 0.31779 0.0
C85 C 0.65135 0.63805 0.23882 0.0
H86 H 0.65342 0.65255 0.35431 0.0
H87 H 0.66099 0.62105 0.21236 0.0
H88 H 0.76328 0.57016 0.31188 0.0
H89 H 0.65757 0.52087 0.33565 0.0
C90 C 0.69181 0.60754 0.4152 0.0
C91 C 0.74843 0.66063 0.27817 0.0
C92 C 0.59462 0.5558 0.31585 0.0
C93 C 0.69318 0.55662 0.20265 0.0
H94 H 0.77617 0.69236 0.36533 0.0
H95 H 0.74705 0.66086 0.44078 0.0
H96 H 0.62884 0.5838 0.46903 0.0
H97 H 0.5745 0.55942 0.41361 0.0
H98 H 0.57542 0.51563 0.23208 0.0
H99 H 0.63018 0.51337 0.17206 0.0
H100 H 0.75089 0.58935 0.1461 0.0
H101 H 0.77804 0.64918 0.18583 0.0
H102 H 0.78964 0.51379 0.32784 0.0
H103 H 0.6814 0.46588 0.35169 0.0
H104 H 0.62396 0.66684 0.18756 0.0
H105 H 0.6129 0.69672 0.33259 0.0
C106 C 0.13264 0.86466 0.51525 0.0
C107 C 0.12561 0.85085 0.47083 0.0
C108 C 0.15248 0.86524 0.44232 0.0
C109 C 0.17422 0.8869 0.47083 0.0
N110 N 0.16311 0.88687 0.51591 0.0
Co111 Co 0.18595 0.91541 0.56854 0.0
N112 N 0.22627 0.9357 0.52722 0.0
C113 C 0.22937 0.93117 0.48059 0.0
C114 C 0.26139 0.94605 0.46258 0.0
C115 C 0.28064 0.95979 0.50019 0.0
C116 C 0.25892 0.95262 0.53908 0.0
N117 N 0.20953 0.94427 0.62084 0.0
C118 C 0.24372 0.96047 0.62362 0.0
C119 C 0.25069 0.9754 0.66727 0.0
C120 C 0.22024 0.96737 0.69358 0.0
C121 C 0.19652 0.94804 0.6646 0.0
N122 N 0.14658 0.89497 0.6108 0.0
C123 C 0.14221 0.9023 0.6567 0.0
C124 C 0.11223 0.88445 0.67624 0.0
C125 C 0.09639 0.86479 0.64058 0.0
C126 C 0.11769 0.87194 0.60117 0.0
N127 N 0.21565 0.87551 0.5852 0.0
C128 C 0.2426 0.80992 0.60853 0.0
C129 C 0.2316 0.83286 0.64313 0.0
C130 C 0.21866 0.86519 0.63092 0.0
C131 C 0.24287 0.82216 0.56217 0.0
C132 C 0.22961 0.85486 0.55139 0.0
N133 N 0.15347 0.954 0.55146 0.0
C134 C 0.0988 0.98223 0.57272 0.0
C135 C 0.08926 0.98704 0.52588 0.0
C136 C 0.11464 0.97841 0.49216 0.0
C137 C 0.14641 0.96235 0.5056 0.0
C138 C 0.13109 0.96691 0.58456 0.0
H139 H 0.1639 0.95537 0.47801 0.0
H140 H 0.13623 0.96407 0.62092 0.0
H141 H 0.20992 0.88094 0.659 0.0
H142 H 0.22957 0.86246 0.51529 0.0
C143 C 0.20481 0.90801 0.45632 0.0
C144 C 0.1087 0.85728 0.55509 0.0
C145 C 0.27124 0.96004 0.58697 0.0
C146 C 0.16565 0.92744 0.67973 0.0
H147 H 0.10302 0.83277 0.45997 0.0
H148 H 0.1555 0.86084 0.40514 0.0
H149 H 0.27045 0.94491 0.42676 0.0
H150 H 0.30804 0.97231 0.49941 0.0
H151 H 0.27582 0.98915 0.67934 0.0
H152 H 0.2169 0.97271 0.73042 0.0
H153 H 0.10262 0.88609 0.71188 0.0
H154 H 0.07162 0.84763 0.64303 0.0
H155 H 0.23216 0.82562 0.67976 0.0
H156 H 0.25164 0.80595 0.53393 0.0
H157 H 0.0806 0.98912 0.60035 0.0
H158 H 0.10902 0.9821 0.45533 0.0
C159 C 0.78941 0.38063 0.82385 0.0
C160 C 0.77618 0.3641 0.86433 0.0
C161 C 0.79201 0.38263 0.90141 0.0
C162 C 0.81421 0.40938 0.88192 0.0
N163 N 0.81297 0.40877 0.8349 0.0
Co164 Co 0.84493 0.43832 0.79259 0.0
N165 N 0.88159 0.4495 0.84228 0.0
C166 C 0.87536 0.44661 0.88856 0.0
C167 C 0.90584 0.45625 0.91479 0.0
C168 C 0.93265 0.46604 0.88292 0.0
C169 C 0.91697 0.46198 0.83876 0.0
N170 N 0.87673 0.4669 0.74924 0.0
C171 C 0.9127 0.4774 0.75282 0.0
C172 C 0.92405 0.4974 0.71424 0.0
C173 C 0.89394 0.49941 0.68604 0.0
C174 C 0.86585 0.48082 0.70885 0.0
N175 N 0.80801 0.42665 0.74355 0.0
C176 C 0.80362 0.44507 0.70418 0.0
C177 C 0.77736 0.42883 0.67535 0.0
C178 C 0.76506 0.39826 0.69797 0.0
C179 C 0.78459 0.39741 0.7394 0.0
N180 N 0.82135 0.48132 0.81044 0.0
C181 C 0.79223 0.545 0.83662 0.0
C182 C 0.82951 0.54328 0.82942 0.0
C183 C 0.84331 0.5117 0.81681 0.0
C184 C 0.76962 0.51362 0.83069 0.0
C185 C 0.78467 0.48213 0.81723 0.0
N186 N 0.86963 0.39712 0.77511 0.0
C187 C 0.89942 0.36484 0.71635 0.0
C188 C 0.91545 0.34528 0.75111 0.0
C189 C 0.90605 0.35078 0.79795 0.0
C190 C 0.88288 0.37653 0.8091 0.0
C191 C 0.87671 0.39069 0.72909 0.0
H192 H 0.8771 0.3809 0.84549 0.0
H193 H 0.86606 0.40642 0.70179 0.0
H194 H 0.87229 0.51218 0.8127 0.0
H195 H 0.76682 0.45849 0.81248 0.0
C196 C 0.84312 0.42858 0.90506 0.0
C197 C 0.77957 0.36951 0.77526 0.0
C198 C 0.93543 0.47201 0.79441 0.0
C199 C 0.83103 0.47083 0.6903 0.0
H200 H 0.75814 0.34046 0.86719 0.0
H201 H 0.7898 0.37565 0.93808 0.0
H202 H 0.90875 0.45482 0.95245 0.0
H203 H 0.96047 0.47504 0.89138 0.0
H204 H 0.95106 0.5096 0.70751 0.0
H205 H 0.89296 0.51171 0.65214 0.0
H206 H 0.76999 0.43678 0.64046 0.0
H207 H 0.7447 0.37855 0.68509 0.0
H208 H 0.84842 0.56619 0.83454 0.0
H209 H 0.74054 0.51343 0.83593 0.0
H210 H 0.90518 0.36098 0.67964 0.0
H211 H 0.9179 0.33666 0.82623 0.0
C212 C 0.69905 0.93462 0.9805 0.0
C213 C 0.70691 0.95259 0.02191 0.0
C214 C 0.73993 0.94234 0.03743 0.0
C215 C 0.75052 0.91878 0.00463 0.0
N216 N 0.72624 0.91406 0.96963 0.0
Co217 Co 0.72792 0.87953 0.91835 0.0
N218 N 0.76081 0.85049 0.95327 0.0
C219 C 0.78184 0.86168 0.98968 0.0
C220 C 0.80139 0.83549 0.00743 0.0
C221 C 0.79196 0.80626 0.98027 0.0
C222 C 0.76699 0.81615 0.94745 0.0
N223 N 0.72861 0.84478 0.86693 0.0
C224 C 0.73594 0.81054 0.86862 0.0
C225 C 0.72732 0.79395 0.82636 0.0
C226 C 0.71483 0.81887 0.79742 0.0
C227 C 0.71697 0.84945 0.82286 0.0
N228 N 0.69462 0.90852 0.88362 0.0
C229 C 0.68889 0.90783 0.83712 0.0
C230 C 0.66229 0.92899 0.82375 0.0
C231 C 0.65034 0.9434 0.86443 0.0
C232 C 0.67056 0.93041 0.90064 0.0
N233 N 0.77073 0.9068 0.89132 0.0
C234 C 0.83542 0.94596 0.86269 0.0
C235 C 0.80434 0.96263 0.87584 0.0
C236 C 0.7725 0.94271 0.89004 0.0
C237 C 0.83276 0.90908 0.86309 0.0
C238 C 0.80031 0.89012 0.87704 0.0
N239 N 0.68648 0.85279 0.94634 0.0
C240 C 0.62652 0.82396 0.94059 0.0
C241 C 0.62592 0.81914 0.98912 0.0
C242 C 0.65611 0.83063 0.01584 0.0
C243 C 0.68634 0.84707 0.99366 0.0
C244 C 0.65713 0.84109 0.9198 0.0
H245 H 0.70933 0.85578 0.01512 0.0
H246 H 0.65688 0.84539 0.88252 0.0
H247 H 0.74952 0.95642 0.90111 0.0
H248 H 0.79947 0.86182 0.87723 0.0
C249 C 0.77647 0.89407 0.01139 0.0
C250 C 0.6666 0.93845 0.95089 0.0
C251 C 0.75134 0.79331 0.90942 0.0
C252 C 0.70041 0.87996 0.81053 0.0
H253 H 0.69022 0.97062 0.03933 0.0
H254 H 0.75319 0.9493 0.07039 0.0
H255 H 0.81904 0.83688 0.03781 0.0
H256 H 0.80215 0.78065 0.98417 0.0
H257 H 0.72854 0.76653 0.81765 0.0
H258 H 0.70268 0.81433 0.76338 0.0
H259 H 0.65061 0.93126 0.78918 0.0
H260 H 0.62839 0.96035 0.86669 0.0
H261 H 0.80484 0.991 0.87643 0.0
H262 H 0.85557 0.89483 0.85248 0.0
H263 H 0.60325 0.81512 0.91915 0.0
H264 H 0.65631 0.82696 0.05345 0.0
C265 C 0.35507 0.43223 0.74653 0.0
C266 C 0.34258 0.433 0.7923 0.0
C267 C 0.35722 0.46405 0.81179 0.0
C268 C 0.37808 0.4806 0.77724 0.0
N269 N 0.3771 0.46181 0.73739 0.0
Co270 Co 0.40578 0.47448 0.6806 0.0
N271 N 0.44168 0.50592 0.71529 0.0
C272 C 0.43626 0.52011 0.75744 0.0
C273 C 0.46677 0.53969 0.77351 0.0
C274 C 0.49275 0.53744 0.73916 0.0
C275 C 0.4766 0.5166 0.7039 0.0
N276 N 0.43417 0.48673 0.62349 0.0
C277 C 0.46946 0.49917 0.61932 0.0
C278 C 0.47893 0.50339 0.5726 0.0
C279 C 0.44829 0.49291 0.54691 0.0
C280 C 0.42186 0.48302 0.5793 0.0
N281 N 0.37042 0.44229 0.64621 0.0
C282 C 0.36532 0.442 0.59959 0.0
C283 C 0.34271 0.41368 0.58532 0.0
C284 C 0.3324 0.39554 0.62536 0.0
C285 C 0.34999 0.41349 0.66222 0.0
N286 N 0.3763 0.51473 0.66902 0.0
C287 C 0.33629 0.57465 0.6579 0.0
C288 C 0.37414 0.5766 0.65159 0.0
C289 C 0.3934 0.54667 0.65708 0.0
C290 C 0.31896 0.54142 0.66917 0.0
C291 C 0.33932 0.51197 0.67453 0.0
N292 N 0.43546 0.43568 0.69237 0.0
C293 C 0.46879 0.38894 0.66351 0.0
C294 C 0.48206 0.38348 0.70854 0.0
C295 C 0.47112 0.40388 0.74557 0.0
C296 C 0.44804 0.43016 0.73664 0.0
C297 C 0.44512 0.41497 0.65623 0.0
H298 H 0.44085 0.44637 0.76546 0.0
H299 H 0.43508 0.41873 0.62129 0.0
H300 H 0.4225 0.54967 0.65245 0.0
H301 H 0.32524 0.487 0.68368 0.0
C302 C 0.40562 0.50802 0.78408 0.0
C303 C 0.34567 0.4036 0.71212 0.0
C304 C 0.49385 0.50839 0.65903 0.0
C305 C 0.38914 0.46258 0.57029 0.0
H306 H 0.32558 0.41294 0.81031 0.0
H307 H 0.35508 0.4722 0.84792 0.0
H308 H 0.4704 0.5525 0.80717 0.0
H309 H 0.52032 0.54951 0.74012 0.0
H310 H 0.50526 0.51266 0.5587 0.0
H311 H 0.44629 0.49071 0.50918 0.0
H312 H 0.33742 0.40542 0.54973 0.0
H313 H 0.31496 0.37138 0.62707 0.0
H314 H 0.38927 0.60135 0.64368 0.0
H315 H 0.28976 0.53798 0.67377 0.0
H316 H 0.47658 0.37311 0.63427 0.0
H317 H 0.48097 0.40005 0.78081 0.0
C318 C 0.82234 0.08958 0.4621 0.0
C319 C 0.81402 0.07349 0.50477 0.0
C320 C 0.78133 0.0849 0.51914 0.0
C321 C 0.77143 0.10762 0.48499 0.0
N322 N 0.79589 0.11087 0.45017 0.0
Co323 Co 0.79485 0.14458 0.39768 0.0
N324 N 0.76253 0.17501 0.43099 0.0
C325 C 0.74143 0.16515 0.46766 0.0
C326 C 0.72306 0.19237 0.48475 0.0
C327 C 0.73334 0.22088 0.45677 0.0
C328 C 0.7576 0.20951 0.42421 0.0
N329 N 0.7946 0.17813 0.34486 0.0
C330 C 0.78697 0.21229 0.34469 0.0
C331 C 0.79238 0.22678 0.3005 0.0
C332 C 0.80367 0.20061 0.27233 0.0
C333 C 0.80424 0.17151 0.30054 0.0
N334 N 0.82785 0.11461 0.36466 0.0
C335 C 0.83346 0.11405 0.31817 0.0
C336 C 0.85994 0.09236 0.30602 0.0
C337 C 0.87175 0.07893 0.34756 0.0
C338 C 0.85186 0.09312 0.38288 0.0
N339 N 0.75162 0.11742 0.37126 0.0
C340 C 0.68522 0.07921 0.34695 0.0
C341 C 0.68905 0.11602 0.34498 0.0
C342 C 0.72231 0.13448 0.35676 0.0
C343 C 0.71611 0.06199 0.35957 0.0
C344 C 0.74887 0.08147 0.37163 0.0
N345 N 0.83645 0.17134 0.42518 0.0
C346 C 0.89633 0.20024 0.41952 0.0
C347 C 0.8967 0.20557 0.46798 0.0
C348 C 0.8665 0.19436 0.49452 0.0
C349 C 0.83645 0.17766 0.47234 0.0
C350 C 0.86579 0.18276 0.39867 0.0
H351 H 0.81343 0.16936 0.49373 0.0
H352 H 0.866 0.17801 0.36145 0.0
H353 H 0.72391 0.16279 0.35552 0.0
H354 H 0.77169 0.06747 0.38274 0.0
C355 C 0.74625 0.13314 0.49043 0.0
C356 C 0.85505 0.08448 0.43308 0.0
C357 C 0.77389 0.2311 0.38557 0.0
C358 C 0.82103 0.14071 0.28986 0.0
H359 H 0.83023 0.05637 0.52455 0.0
H360 H 0.76807 0.07954 0.55244 0.0
H361 H 0.70581 0.19213 0.51537 0.0
H362 H 0.72425 0.247 0.46002 0.0
H363 H 0.78925 0.25355 0.2899 0.0
H364 H 0.81287 0.20333 0.23653 0.0
H365 H 0.87127 0.08876 0.27159 0.0
H366 H 0.89309 0.06142 0.35171 0.0
H367 H 0.66641 0.13062 0.33447 0.0
H368 H 0.71474 0.03362 0.36167 0.0
H369 H 0.91963 0.20895 0.39826 0.0
H370 H 0.86612 0.19857 0.53204 0.0
C371 C 0.17135 0.58715 0.2337 0.0
C372 C 0.18652 0.58534 0.27797 0.0
C373 C 0.17078 0.55505 0.29847 0.0
C374 C 0.14692 0.53985 0.26567 0.0
N375 N 0.14729 0.55872 0.22598 0.0
Co376 Co 0.11453 0.54911 0.17188 0.0
N377 N 0.07769 0.52133 0.20958 0.0
C378 C 0.08418 0.50611 0.25084 0.0
C379 C 0.05319 0.48879 0.26908 0.0
C380 C 0.02587 0.49348 0.23706 0.0
C381 C 0.04169 0.51344 0.20086 0.0
N382 N 0.08194 0.54055 0.11733 0.0
C383 C 0.04567 0.53138 0.11597 0.0
C384 C 0.03354 0.52816 0.07003 0.0
C385 C 0.06348 0.53568 0.04199 0.0
C386 C 0.09221 0.54293 0.07226 0.0
N387 N 0.15132 0.57729 0.13469 0.0
C388 C 0.15452 0.57629 0.08786 0.0
C389 C 0.17977 0.6018 0.0717 0.0
C390 C 0.1931 0.6198 0.1107 0.0
C391 C 0.17521 0.60423 0.14902 0.0
N392 N 0.13759 0.50554 0.1576 0.0
C393 C 0.16608 0.43968 0.14848 0.0
C394 C 0.12908 0.44344 0.14153 0.0
C395 C 0.11552 0.47623 0.14604 0.0
C396 C 0.18911 0.47009 0.15773 0.0
C397 C 0.17426 0.50287 0.16225 0.0
N398 N 0.09111 0.59109 0.18666 0.0
C399 C 0.06816 0.64513 0.16335 0.0
C400 C 0.0597 0.65214 0.21006 0.0
C401 C 0.0666 0.62772 0.24457 0.0
C402 C 0.082 0.59724 0.23207 0.0
C403 C 0.08406 0.61443 0.1524 0.0
H404 H 0.0871 0.5789 0.25939 0.0
H405 H 0.09092 0.60964 0.11642 0.0
H406 H 0.08662 0.47741 0.14193 0.0
H407 H 0.19212 0.52581 0.17098 0.0
C408 C 0.11737 0.5148 0.27476 0.0
C409 C 0.18101 0.61507 0.19862 0.0
C410 C 0.02293 0.52302 0.15742 0.0
C411 C 0.12678 0.55879 0.06057 0.0
H412 H 0.20622 0.60424 0.29401 0.0
H413 H 0.17432 0.54667 0.33426 0.0
H414 H 0.05033 0.47567 0.30257 0.0
H415 H 0.99769 0.48341 0.24004 0.0
H416 H 1.00603 0.52102 0.05812 0.0
H417 H 0.06386 0.53724 0.00415 0.0
H418 H 0.18519 0.60864 0.03558 0.0
H419 H 0.21261 0.64252 0.11044 0.0
H420 H 0.11033 0.42081 0.13384 0.0
H421 H 0.21795 0.46834 0.16341 0.0
H422 H 0.06256 0.66315 0.13549 0.0
H423 H 0.06084 0.63235 0.28112 0.0
C424 C 0.88646 0.6615 0.50037 0.0
C425 C 0.89344 0.6707 0.45407 0.0
C426 C 0.87061 0.64893 0.42724 0.0
C427 C 0.85118 0.62771 0.45857 0.0
N428 N 0.8604 0.63459 0.50368 0.0
Co429 Co 0.83855 0.61091 0.56046 0.0
N430 N 0.79975 0.58413 0.52223 0.0
C431 C 0.79727 0.58301 0.47502 0.0
C432 C 0.76616 0.56467 0.45896 0.0
C433 C 0.74706 0.55438 0.49822 0.0
C434 C 0.76781 0.56688 0.53618 0.0
N435 N 0.81594 0.58693 0.61705 0.0
C436 C 0.78277 0.56891 0.62204 0.0
C437 C 0.77674 0.5581 0.6679 0.0
C438 C 0.8066 0.57064 0.69305 0.0
C439 C 0.82914 0.5883 0.66126 0.0
N440 N 0.87608 0.6381 0.59952 0.0
C441 C 0.88109 0.63534 0.64627 0.0
C442 C 0.90777 0.65888 0.66369 0.0
C443 C 0.92022 0.67806 0.62586 0.0
C444 C 0.90046 0.66485 0.5873 0.0
N445 N 0.80658 0.65026 0.56794 0.0
C446 C 0.77898 0.71757 0.57236 0.0
C447 C 0.79091 0.70092 0.6128 0.0
C448 C 0.8041 0.66739 0.60992 0.0
C449 C 0.77809 0.69801 0.53066 0.0
C450 C 0.7917 0.66475 0.52931 0.0
N451 N 0.87364 0.57292 0.55188 0.0
C452 C 0.93118 0.55185 0.57755 0.0
C453 C 0.94005 0.54141 0.53225 0.0
C454 C 0.91281 0.54314 0.49815 0.0
C455 C 0.88005 0.55852 0.50871 0.0
C456 C 0.89802 0.56642 0.58663 0.0
H457 H 0.86103 0.5596 0.48074 0.0
H458 H 0.89346 0.5734 0.62201 0.0
H459 H 0.81389 0.65639 0.6416 0.0
H460 H 0.79172 0.65172 0.49618 0.0
C461 C 0.82176 0.60369 0.44721 0.0
C462 C 0.90496 0.67908 0.54007 0.0
C463 C 0.75554 0.56299 0.58483 0.0
C464 C 0.85896 0.6116 0.67307 0.0
H465 H 0.91268 0.69134 0.44112 0.0
H466 H 0.86772 0.64927 0.38953 0.0
H467 H 0.75738 0.56099 0.42299 0.0
H468 H 0.72036 0.54033 0.49883 0.0
H469 H 0.75262 0.54388 0.68201 0.0
H470 H 0.81029 0.5691 0.73057 0.0
H471 H 0.91644 0.66233 0.69975 0.0
H472 H 0.94103 0.69973 0.62683 0.0
H473 H 0.79183 0.71423 0.64629 0.0
H474 H 0.76774 0.70861 0.49862 0.0
H475 H 0.95025 0.54956 0.60609 0.0
H476 H 0.91745 0.53445 0.46273 0.0
C477 C 0.23388 0.14578 0.83167 0.0
C478 C 0.25042 0.16029 0.87157 0.0
C479 C 0.23611 0.14088 0.90882 0.0
C480 C 0.21176 0.11554 0.88964 0.0
N481 N 0.21042 0.11776 0.84278 0.0
Co482 Co 0.1767 0.08948 0.80106 0.0
N483 N 0.14191 0.07749 0.85244 0.0
C484 C 0.15013 0.07943 0.8984 0.0
C485 C 0.12084 0.0692 0.92621 0.0
C486 C 0.09271 0.05997 0.89579 0.0
C487 C 0.10644 0.06479 0.85079 0.0
N488 N 0.14293 0.06206 0.75838 0.0
C489 C 0.10719 0.05112 0.76391 0.0
C490 C 0.09444 0.03175 0.72526 0.0
C491 C 0.12334 0.03059 0.69502 0.0
C492 C 0.1522 0.04904 0.71671 0.0
N493 N 0.21208 0.10195 0.75054 0.0
C494 C 0.21455 0.0846 0.7099 0.0
C495 C 0.23931 0.10176 0.68005 0.0
C496 C 0.25268 0.13177 0.70338 0.0
C497 C 0.23541 0.13132 0.74641 0.0
N498 N 0.20057 0.04604 0.81531 0.0
C499 C 0.23074 0.98077 0.8319 0.0
C500 C 0.25293 1.01281 0.82839 0.0
C501 C 0.23741 0.0449 0.81953 0.0
C502 C 0.1931 0.98319 0.82713 0.0
C503 C 0.17888 0.01546 0.82017 0.0
N504 N 0.15192 0.13125 0.78656 0.0
C505 C 0.12351 0.16614 0.72934 0.0
C506 C 0.10951 0.18619 0.76488 0.0
C507 C 0.11845 0.17922 0.81148 0.0
C508 C 0.13998 0.15176 0.82156 0.0
C509 C 0.14445 0.13872 0.74091 0.0
H510 H 0.14616 0.14649 0.85767 0.0
H511 H 0.1536 0.12284 0.71285 0.0
H512 H 0.25512 0.06875 0.81608 0.0
H513 H 0.14978 0.01517 0.81802 0.0
C514 C 0.18345 0.09637 0.91372 0.0
C515 C 0.24141 0.15834 0.78348 0.0
C516 C 0.08615 0.05494 0.8074 0.0
C517 C 0.18633 0.05938 0.69657 0.0
H518 H 0.27004 0.18293 0.87349 0.0
H519 H 0.24088 0.14633 0.9456 0.0
H520 H 0.11964 0.06964 0.96407 0.0
H521 H 0.06536 0.05067 0.90584 0.0
H522 H 0.06735 0.01923 0.7199 0.0
H523 H 0.12302 0.01866 0.66075 0.0
H524 H 0.24477 0.09494 0.64411 0.0
H525 H 0.27203 0.15193 0.68966 0.0
H526 H 0.28211 1.01362 0.83243 0.0
H527 H 0.17379 0.96044 0.82763 0.0
H528 H 0.11696 0.17053 0.69292 0.0
H529 H 0.10843 0.19451 0.83991 0.0
C530 C 0.61869 0.37723 0.01152 0.0
C531 C 0.61214 0.36551 0.96602 0.0
C532 C 0.64391 0.37251 0.9419 0.0
C533 C 0.66793 0.3882 0.9738 0.0
N534 N 0.65341 0.39145 0.01665 0.0
Co535 Co 0.67794 0.41467 0.07226 0.0
N536 N 0.71978 0.43529 0.03374 0.0
C537 C 0.72568 0.42843 0.9882 0.0
C538 C 0.75621 0.44656 0.97045 0.0
C539 C 0.77171 0.4649 0.00743 0.0
C540 C 0.74939 0.45724 0.04568 0.0
N541 N 0.70277 0.43809 0.12806 0.0
C542 C 0.73377 0.45999 0.13152 0.0
C543 C 0.74143 0.46927 0.17768 0.0
C544 C 0.7152 0.45176 0.20434 0.0
C545 C 0.6931 0.43279 0.17317 0.0
N546 N 0.63672 0.39399 0.11108 0.0
C547 C 0.63598 0.39192 0.15816 0.0
C548 C 0.60394 0.37624 0.17521 0.0
C549 C 0.58309 0.36789 0.13651 0.0
C550 C 0.60363 0.37919 0.09785 0.0
N551 N 0.70353 0.3718 0.08388 0.0
C552 C 0.73369 0.30887 0.10932 0.0
C553 C 0.6979 0.30873 0.0933 0.0
C554 C 0.6836 0.34 0.0806 0.0
C555 C 0.75491 0.34115 0.11033 0.0
C556 C 0.73925 0.37237 0.09766 0.0
N557 N 0.64965 0.45599 0.06039 0.0
C558 C 0.59637 0.48378 0.08576 0.0
C559 C 0.58649 0.49069 0.0394 0.0
C560 C 0.61153 0.4838 0.00428 0.0
C561 C 0.64297 0.46667 0.01552 0.0
C562 C 0.62821 0.46723 0.09547 0.0
H563 H 0.65993 0.45934 0.98713 0.0
H564 H 0.63333 0.46038 0.13123 0.0
H565 H 0.6557 0.33817 0.06943 0.0
H566 H 0.75584 0.3968 0.10006 0.0
C567 C 0.70147 0.4057 0.96285 0.0
C568 C 0.59176 0.37323 0.04925 0.0
C569 C 0.75916 0.46913 0.09322 0.0
C570 C 0.66289 0.41022 0.18497 0.0
H571 H 0.58693 0.35356 0.95157 0.0
H572 H 0.64835 0.36833 0.90494 0.0
H573 H 0.76593 0.44665 0.9348 0.0
H574 H 0.79692 0.48153 0.0066 0.0
H575 H 0.76438 0.48592 0.19083 0.0
H576 H 0.71281 0.45253 0.24199 0.0
H577 H 0.59609 0.3726 0.21148 0.0
H578 H 0.55588 0.35493 0.13683 0.0
H579 H 0.68062 0.28442 0.09117 0.0
H580 H 0.78287 0.34245 0.12234 0.0
H581 H 0.57848 0.48932 0.11438 0.0
H582 H 0.60549 0.489 0.96794 0.0
C583 C 0.28981 0.87061 0.32814 0.0
C584 C 0.27683 0.85149 0.36662 0.0
C585 C 0.29318 0.86734 0.40521 0.0
C586 C 0.3153 0.89517 0.38827 0.0
N587 N 0.31288 0.89865 0.34139 0.0
Co588 Co 0.34306 0.93291 0.30166 0.0
N589 N 0.37872 0.9447 0.35349 0.0
C590 C 0.3758 0.93316 0.39816 0.0
C591 C 0.40553 0.9436 0.42525 0.0
C592 C 0.42914 0.96218 0.39571 0.0
C593 C 0.41227 0.96229 0.3522 0.0
N594 N 0.37277 0.96699 0.26162 0.0
C595 C 0.40657 0.9831 0.26883 0.0
C596 C 0.41734 1.00455 0.2314 0.0
C597 C 0.38951 1.00143 0.19933 0.0
C598 C 0.36327 0.97841 0.21894 0.0
N599 N 0.30872 0.91865 0.2493 0.0
C600 C 0.30778 0.93384 0.20669 0.0
C601 C 0.28532 0.91501 0.17561 0.0
C602 C 0.2723 0.88544 0.19938 0.0
C603 C 0.28747 0.88793 0.24378 0.0
N604 N 0.3134 0.97307 0.32162 0.0
C605 C 0.28708 0.03929 0.34567 0.0
C606 C 0.28184 0.02484 0.30093 0.0
C607 C 0.29446 0.99185 0.28999 0.0
C608 C 0.30305 0.01866 0.37901 0.0
C609 C 0.31568 0.98623 0.36651 0.0
N610 N 0.37304 0.89525 0.28211 0.0
C611 C 0.40795 0.86846 0.22262 0.0
C612 C 0.42196 0.8465 0.25597 0.0
C613 C 0.40984 0.84822 0.30216 0.0
C614 C 0.38521 0.87246 0.31436 0.0
C615 C 0.38371 0.89269 0.23642 0.0
H616 H 0.37682 0.87302 0.3502 0.0
H617 H 0.37447 0.90978 0.21 0.0
H618 H 0.28872 0.98256 0.25545 0.0
H619 H 0.32759 0.97282 0.39429 0.0
C620 C 0.34526 0.91143 0.41259 0.0
C621 C 0.28199 0.86006 0.27932 0.0
C622 C 0.42935 0.97845 0.31026 0.0
C623 C 0.33307 0.96205 0.19507 0.0
H624 H 0.25904 0.82753 0.36662 0.0
H625 H 0.29176 0.85764 0.44082 0.0
H626 H 0.40996 0.93762 0.46175 0.0
H627 H 0.45593 0.97382 0.40499 0.0
H628 H 0.44297 0.02019 0.22735 0.0
H629 H 0.38931 1.01311 0.16482 0.0
H630 H 0.28102 0.92078 0.13901 0.0
H631 H 0.2548 0.86383 0.18526 0.0
H632 H 0.2679 0.03893 0.27442 0.0
H633 H 0.30688 0.02793 0.41468 0.0
H634 H 0.41664 0.86783 0.18645 0.0
H635 H 0.41955 0.83112 0.32885 0.0
C636 C 0.20602 0.43627 0.47177 0.0
C637 C 0.21395 0.45083 0.51559 0.0
C638 C 0.24571 0.43779 0.53066 0.0
C639 C 0.25539 0.41555 0.49587 0.0
N640 N 0.23171 0.41409 0.46 0.0
Co641 Co 0.23169 0.38066 0.40701 0.0
N642 N 0.26191 0.34824 0.44054 0.0
C643 C 0.28324 0.35717 0.47754 0.0
C644 C 0.30135 0.32952 0.49375 0.0
C645 C 0.29078 0.30169 0.46476 0.0
C646 C 0.26651 0.31382 0.43255 0.0
N647 N 0.23028 0.34715 0.35388 0.0
C648 C 0.23679 0.31258 0.35276 0.0
C649 C 0.23203 0.29942 0.30763 0.0
C650 C 0.22357 0.32692 0.27988 0.0
C651 C 0.22271 0.35525 0.30929 0.0
N652 N 0.20152 0.41305 0.3734 0.0
C653 C 0.19759 0.41479 0.32669 0.0
C654 C 0.17367 0.43889 0.31368 0.0
C655 C 0.16178 0.45275 0.35489 0.0
C656 C 0.17894 0.43617 0.39093 0.0
N657 N 0.27679 0.40537 0.38208 0.0
C658 C 0.34762 0.43649 0.36425 0.0
C659 C 0.33823 0.40079 0.35528 0.0
C660 C 0.30318 0.38585 0.36462 0.0
C661 C 0.31964 0.45694 0.37875 0.0
C662 C 0.28436 0.44091 0.38719 0.0
N663 N 0.18833 0.35612 0.43317 0.0
C664 C 0.12585 0.33406 0.42711 0.0
C665 C 0.12545 0.32612 0.47507 0.0
C666 C 0.15713 0.33271 0.50128 0.0
C667 C 0.18818 0.34776 0.47973 0.0
C668 C 0.15781 0.34887 0.40667 0.0
H669 H 0.21187 0.35329 0.50127 0.0
H670 H 0.15782 0.35495 0.36978 0.0
H671 H 0.29822 0.3579 0.36001 0.0
H672 H 0.2637 0.45695 0.40002 0.0
C673 C 0.27935 0.38899 0.50104 0.0
C674 C 0.17461 0.4438 0.44128 0.0
C675 C 0.25041 0.29288 0.39292 0.0
C676 C 0.20892 0.38759 0.29835 0.0
H677 H 0.19807 0.46789 0.53581 0.0
H678 H 0.25834 0.44173 0.56472 0.0
H679 H 0.31883 0.32914 0.52422 0.0
H680 H 0.29991 0.27553 0.467 0.0
H681 H 0.23445 0.27296 0.29543 0.0
H682 H 0.2177 0.32587 0.24294 0.0
H683 H 0.16406 0.44406 0.27871 0.0
H684 H 0.1423 0.47232 0.3581 0.0
H685 H 0.35829 0.38391 0.34263 0.0
H686 H 0.32529 0.4847 0.38579 0.0
H687 H 0.10182 0.32859 0.40559 0.0
H688 H 0.15774 0.32689 0.53839 0.0
C689 C 0.85175 0.93424 0.23739 0.0
C690 C 0.83527 0.9329 0.28097 0.0
C691 C 0.8473 0.96347 0.30398 0.0
C692 C 0.87031 0.98194 0.27323 0.0
N693 N 0.87308 0.96486 0.23248 0.0
Co694 Co 0.90576 0.98036 0.1803 0.0
N695 N 0.93822 1.01106 0.22089 0.0
C696 C 0.92904 0.02303 0.26317 0.0
C697 C 0.9576 0.04213 0.28461 0.0
C698 C 0.98622 0.04221 0.25371 0.0
C699 C 0.97353 0.02349 0.2144 0.0
N700 N 0.93831 0.99489 0.12766 0.0
C701 C 0.97326 1.00914 0.12799 0.0
C702 C 0.98524 0.01596 0.08258 0.0
C703 C 0.95683 1.0053 0.05325 0.0
C704 C 0.929 0.99282 0.08214 0.0
N705 N 0.87343 0.9492 0.14003 0.0
C706 C 0.87128 0.95119 0.09314 0.0
C707 C 0.84966 0.92373 0.07438 0.0
C708 C 0.83733 0.90347 0.11179 0.0
C709 C 0.85218 0.91969 0.15176 0.0
N710 N 0.87665 0.02032 0.16756 0.0
C711 C 0.83659 0.07989 0.15838 0.0
C712 C 0.87466 0.08269 0.15526 0.0
C713 C 0.89398 0.05284 0.15965 0.0
C714 C 0.81903 0.04609 0.16491 0.0
C715 C 0.83948 0.01676 0.16941 0.0
N716 N 0.93469 0.94175 0.19384 0.0
C717 C 0.96055 0.88939 0.1696 0.0
C718 C 0.9673 0.88144 0.21648 0.0
C719 C 0.95948 0.90503 0.25147 0.0
C720 C 0.94341 0.93522 0.23935 0.0
C721 C 0.94419 0.91991 0.15896 0.0
H722 H 0.93668 0.95251 0.26714 0.0
H723 H 0.93788 0.92519 0.1229 0.0
H724 H 0.92324 0.05639 0.15793 0.0
H725 H 0.8253 0.99127 0.17528 0.0
C726 C 0.89663 1.00936 0.28499 0.0
C727 C 0.84556 0.90709 0.20042 0.0
C728 C 0.99448 0.01925 0.17054 0.0
C729 C 0.89702 0.97297 0.06818 0.0
H730 H 0.81708 0.91181 0.29491 0.0
H731 H 0.84192 0.97014 0.34 0.0
H732 H 0.95824 0.053 0.31962 0.0
H733 H 0.01331 0.05429 0.26005 0.0
H734 H 1.0116 0.02763 0.07172 0.0
H735 H 0.95704 1.00534 0.01537 0.0
H736 H 0.84599 0.91751 0.03765 0.0
H737 H 0.82041 0.87905 0.10952 0.0
H738 H 0.8898 0.10797 0.15098 0.0
H739 H 0.78966 0.04219 0.16675 0.0
H740 H 0.96637 0.87149 0.14168 0.0
H741 H 0.96498 0.89979 0.28798 0.0
C742 C 0.31966 0.58928 0.96424 0.0
C743 C 0.31008 0.57541 0.00789 0.0
C744 C 0.27707 0.58747 0.01937 0.0
C745 C 0.26832 0.60858 0.98283 0.0
N746 N 0.29387 0.61032 0.94927 0.0
Co747 Co 0.29541 0.64249 0.89494 0.0
N748 N 0.26192 0.67411 0.92409 0.0
C749 C 0.23935 0.66539 0.95983 0.0
C750 C 0.22137 0.69337 0.97505 0.0
C751 C 0.23332 0.72115 0.94686 0.0
C752 C 0.2578 0.70855 0.91537 0.0
N753 N 0.29792 0.67451 0.84059 0.0
C754 C 0.29055 0.70864 0.83793 0.0
C755 C 0.29645 0.72137 0.79284 0.0
C756 C 0.30831 0.69425 0.76691 0.0
C757 C 0.30841 0.66629 0.79715 0.0
N758 N 0.32889 0.61115 0.86558 0.0
C759 C 0.3354 0.60873 0.81944 0.0
C760 C 0.36058 0.58512 0.80967 0.0
C761 C 0.37053 0.57229 0.85243 0.0
C762 C 0.35098 0.58892 0.88605 0.0
N763 N 0.25319 0.61502 0.86688 0.0
C764 C 0.18844 0.5763 0.83826 0.0
C765 C 0.21847 0.55936 0.8545 0.0
C766 C 0.25041 0.57911 0.86874 0.0
C767 C 0.19227 0.61305 0.83501 0.0
C768 C 0.2248 0.6318 0.84899 0.0
N769 N 0.33636 0.66951 0.92406 0.0
C770 C 0.39846 0.69351 0.92307 0.0
C771 C 0.39616 0.70231 0.9706 0.0
C772 C 0.36327 0.69535 0.99391 0.0
C773 C 0.33383 0.67881 0.97013 0.0
C774 C 0.368 0.67738 0.90023 0.0
H775 H 0.30926 0.67276 0.98965 0.0
H776 H 0.37015 0.67061 0.86372 0.0
H777 H 0.27252 0.56535 0.88259 0.0
H778 H 0.22654 0.66007 0.84656 0.0
C779 C 0.24303 0.63419 0.98484 0.0
C780 C 0.35263 0.58208 0.93683 0.0
C781 C 0.27605 0.72889 0.87665 0.0
C782 C 0.32447 0.63472 0.78887 0.0
H783 H 0.32557 0.55951 0.0304 0.0
H784 H 0.26288 0.58375 0.05235 0.0
H785 H 0.20371 0.69421 0.00517 0.0
H786 H 0.22543 0.74762 0.95031 0.0
H787 H 0.2928 0.74751 0.78009 0.0
H788 H 0.31763 0.69547 0.73105 0.0
H789 H 0.37209 0.57957 0.77589 0.0
H790 H 0.39027 0.55333 0.85835 0.0
H791 H 0.21693 0.53104 0.85774 0.0
H792 H 0.17019 0.62734 0.82185 0.0
H793 H 0.42351 0.69913 0.90377 0.0
H794 H 0.36058 0.70178 0.03063 0.0
C795 C 0.67771 0.0959 0.72637 0.0
C796 C 0.69402 0.09642 0.77013 0.0
C797 C 0.6814 0.06573 0.79217 0.0
C798 C 0.65818 0.04808 0.76068 0.0
N799 N 0.65596 0.06576 0.72029 0.0
Co800 Co 0.62346 0.05195 0.66718 0.0
N801 N 0.58998 0.02177 0.7069 0.0
C802 C 0.59831 1.00929 0.7493 0.0
C803 C 0.56922 0.99045 0.76973 0.0
C804 C 0.54114 0.99096 0.73796 0.0
C805 C 0.55469 1.0098 0.69931 0.0
N806 N 0.59126 0.03847 0.61362 0.0
C807 C 0.55629 0.0243 0.61291 0.0
C808 C 0.5447 0.01812 0.56711 0.0
C809 C 0.57342 0.02905 0.53863 0.0
C810 C 0.60102 0.04109 0.56835 0.0
N811 N 0.65685 0.08321 0.62842 0.0
C812 C 0.65872 0.08266 0.58148 0.0
C813 C 0.67913 0.11143 0.56426 0.0
C814 C 0.69136 0.13082 0.60269 0.0
C815 C 0.67737 0.11293 0.64169 0.0
N816 N 0.65175 1.01124 0.65345 0.0
C817 C 0.69015 0.95273 0.62939 0.0
C818 C 0.70848 0.98605 0.63644 0.0
C819 C 0.68888 0.0148 0.64918 0.0
C820 C 0.65238 0.94939 0.63513 0.0
C821 C 0.63377 0.9788 0.64638 0.0
N822 N 0.59534 0.09168 0.6802 0.0
C823 C 0.57732 0.14695 0.65337 0.0
C824 C 0.57355 0.15781 0.69967 0.0
C825 C 0.57611 0.13347 0.7358 0.0
C826 C 0.58731 0.10033 0.72525 0.0
C827 C 0.58773 0.11354 0.64434 0.0
H828 H 0.59213 0.0828 0.75375 0.0
H829 H 0.59252 0.10656 0.60851 0.0
H830 H 0.70368 0.04003 0.65498 0.0
H831 H 0.60454 0.9752 0.64855 0.0
C832 C 0.63103 0.02135 0.77188 0.0
C833 C 0.68337 0.12412 0.69106 0.0
C834 C 0.5346 0.01393 0.65477 0.0
C835 C 0.63303 0.06133 0.55552 0.0
H836 H 0.71223 0.11722 0.78492 0.0
H837 H 0.68631 0.0586 0.82817 0.0
H838 H 0.56798 0.97912 0.80447 0.0
H839 H 0.51388 0.97891 0.74304 0.0
H840 H 0.51835 1.00679 0.55547 0.0
H841 H 0.57361 0.02952 0.50079 0.0
H842 H 0.68135 0.1193 0.52803 0.0
H843 H 0.70725 0.15585 0.60168 0.0
H844 H 0.73772 0.9898 0.63233 0.0
H845 H 0.63708 0.92429 0.62953 0.0
H846 H 0.57436 0.16488 0.62449 0.0
H847 H 0.57275 0.14098 0.77201 0.0
H848 H 0.62906 0.99731 0.93083 0.0
H849 H 0.62402 0.90396 0.01719 0.0
H850 H 0.56366 0.91794 0.04693 0.0
H851 H 0.58437 0.05291 0.01047 0.0
H852 H 0.55998 0.07394 0.96507 0.0
H853 H 0.60306 0.05704 0.95229 0.0
H854 H 0.57315 0.01948 0.88507 0.0
H855 H 0.52989 0.03608 0.89764 0.0
H856 H 0.53406 0.98941 0.89714 0.0
H857 H 0.50197 0.94253 0.06637 0.0
H858 H 0.44759 0.97573 0.07554 0.0
H859 H 0.49128 0.05083 0.972 0.0
C860 C 0.61507 0.97951 0.95552 0.0
C861 C 0.63117 0.94903 0.97096 0.0
C862 C 0.61233 0.92733 0.00469 0.0
C863 C 0.57787 0.93502 0.02159 0.0
C864 C 0.56225 0.96468 0.00458 0.0
C865 C 0.58041 0.98662 0.9723 0.0
C866 C 0.55766 0.01664 0.95911 0.0
C867 C 0.57745 0.05224 0.97255 0.0
C868 C 0.54812 0.01531 0.90664 0.0
C869 C 0.52395 1.00841 0.98914 0.0
C870 C 0.52705 0.97836 0.01518 0.0
C871 C 0.49939 0.96602 0.04589 0.0
C872 C 0.46822 0.98501 0.0506 0.0
C873 C 0.46445 0.01629 0.02478 0.0
C874 C 0.49292 0.02753 0.99315 0.0
H875 H 0.86876 0.84851 0.24721 0.0
H876 H 0.77509 0.88562 0.17671 0.0
H877 H 0.74142 0.82752 0.1879 0.0
H878 H 0.85917 0.75941 0.20178 0.0
H879 H 0.87275 0.73942 0.25551 0.0
H880 H 0.88943 0.78387 0.24181 0.0
H881 H 0.86455 0.80465 0.3208 0.0
H882 H 0.84745 0.76028 0.33436 0.0
H883 H 0.81709 0.79493 0.33454 0.0
H884 H 0.71813 0.76399 0.20397 0.0
H885 H 0.70575 0.70206 0.22849 0.0
H886 H 0.81276 0.70463 0.2919 0.0
C887 C 0.84107 0.84438 0.2344 0.0
C888 C 0.82482 0.87179 0.2103 0.0
C889 C 0.78843 0.86516 0.19449 0.0
C890 C 0.76903 0.8321 0.2008 0.0
C891 C 0.78593 0.80547 0.22371 0.0
C892 C 0.82106 0.81128 0.24075 0.0
C893 C 0.83256 0.77803 0.26455 0.0
C894 C 0.86543 0.76437 0.23942 0.0
C895 C 0.8409 0.78489 0.31666 0.0
C896 C 0.79852 0.7527 0.25824 0.0
C897 C 0.77208 0.76913 0.23422 0.0
C898 C 0.73862 0.7511 0.22308 0.0
C899 C 0.73179 0.71574 0.23706 0.0
C900 C 0.75791 0.69826 0.26256 0.0
C901 C 0.79191 0.71721 0.27302 0.0
H902 H 0.06663 0.04773 0.48224 0.0
H903 H 0.02587 0.94788 0.5416 0.0
H904 H 0.96286 0.96121 0.52354 0.0
H905 H 0.99363 0.09716 0.52712 0.0
H906 H 0.9914 0.12469 0.47615 0.0
H907 H 0.03362 0.10704 0.49184 0.0
H908 H 0.03698 0.07985 0.4095 0.0
H909 H 0.99432 0.09644 0.39325 0.0
H910 H 1.0 0.05013 0.38864 0.0
H911 H 0.90362 0.98441 0.49691 0.0
H912 H 0.85284 0.01733 0.469 0.0
H913 H 0.92936 0.10497 0.4319 0.0
C914 C 0.04439 0.02866 0.49113 0.0
C915 C 0.05144 0.99645 0.51314 0.0
C916 C 0.02137 0.97253 0.52469 0.0
C917 C 0.98537 0.97992 0.51449 0.0
C918 C 0.97923 1.01177 0.4931 0.0
C919 C 1.00784 0.03599 0.4819 0.0
C920 C 0.99322 0.06874 0.4604 0.0
C921 C 1.00359 0.10134 0.49068 0.0
C922 C 1.00694 0.07412 0.40995 0.0
C923 C 0.95214 0.05911 0.46133 0.0
C924 C 0.94481 0.02593 0.47997 0.0
C925 C 0.90912 1.01071 0.48323 0.0
C926 C 0.88024 0.02986 0.46778 0.0
C927 C 0.88657 0.0645 0.45017 0.0
C928 C 0.92334 0.07894 0.44629 0.0
H929 H 0.74341 0.17199 0.66806 0.0
H930 H 0.64551 0.16177 0.75188 0.0
H931 H 0.65721 0.22315 0.77817 0.0
H932 H 0.79686 0.22406 0.75274 0.0
H933 H 0.8217 0.25124 0.71015 0.0
H934 H 0.80452 0.20718 0.69496 0.0
H935 H 0.77005 0.23097 0.62433 0.0
H936 H 0.78717 0.27513 0.63929 0.0
H937 H 0.73886 0.26423 0.63368 0.0
H938 H 0.67869 0.28686 0.79448 0.0
H939 H 0.71174 0.34514 0.8067 0.0
H940 H 0.79901 0.3149 0.71792 0.0
C941 C 0.72396 0.18293 0.69101 0.0
C942 C 0.69233 0.16206 0.70612 0.0
C943 C 0.66902 0.17719 0.7384 0.0
C944 C 0.67563 0.21219 0.75377 0.0
C945 C 0.70642 0.23221 0.7376 0.0
C946 C 0.73059 0.21802 0.70747 0.0
C947 C 0.76286 0.24485 0.69797 0.0
C948 C 0.79861 0.231 0.71497 0.0
C949 C 0.76485 0.25435 0.64571 0.0
C950 C 0.75305 0.27615 0.72745 0.0
C951 C 0.72006 0.2683 0.74949 0.0
C952 C 0.7048 0.29297 0.77793 0.0
C953 C 0.72392 0.32608 0.78493 0.0
C954 C 0.75856 0.33451 0.76461 0.0
C955 C 0.77285 0.30922 0.7346 0.0
H956 H 0.3049 0.19192 0.74306 0.0
H957 H 0.20134 0.21291 0.80381 0.0
H958 H 0.21606 0.2766 0.79179 0.0
H959 H 0.35685 0.26704 0.79264 0.0
H960 H 0.38497 0.27632 0.74194 0.0
H961 H 0.36658 0.232 0.75346 0.0
H962 H 0.33671 0.22829 0.67152 0.0
H963 H 0.35559 0.27233 0.65926 0.0
H964 H 0.30728 0.26135 0.65384 0.0
H965 H 0.24196 0.33895 0.77292 0.0
H966 H 0.2773 0.39425 0.75056 0.0
H967 H 0.36518 0.33487 0.70249 0.0
C968 C 0.28505 0.20987 0.75303 0.0
C969 C 0.25144 0.19701 0.77376 0.0
C970 C 0.22699 0.22181 0.78765 0.0
C971 C 0.23518 0.25818 0.78089 0.0
C972 C 0.26829 0.27002 0.76035 0.0
C973 C 0.29295 0.24662 0.74664 0.0
C974 C 0.32693 0.26661 0.7262 0.0
C975 C 0.36084 0.26007 0.75531 0.0
C976 C 0.33192 0.25654 0.67464 0.0
C977 C 0.31761 0.30474 0.73068 0.0
C978 C 0.28354 0.30601 0.75039 0.0
C979 C 0.26877 0.33811 0.75786 0.0
C980 C 0.28919 0.36956 0.7453 0.0
C981 C 0.32448 0.36931 0.72581 0.0
C982 C 0.33854 0.33616 0.71793 0.0
H983 H 0.21693 0.81706 0.29137 0.0
H984 H 0.32587 0.81654 0.23527 0.0
H985 H 0.31303 0.75426 0.21193 0.0
H986 H 0.20972 0.72694 0.33617 0.0
H987 H 0.16252 0.71818 0.32017 0.0
H988 H 0.18035 0.76238 0.33372 0.0
H989 H 0.15841 0.78353 0.25332 0.0
H990 H 0.14019 0.73944 0.23991 0.0
H991 H 0.17225 0.76225 0.20071 0.0
H992 H 0.28844 0.69088 0.19507 0.0
H993 H 0.25321 0.63381 0.18132 0.0
H994 H 0.15861 0.67413 0.24496 0.0
C995 C 0.2381 0.8037 0.27438 0.0
C996 C 0.27272 0.82188 0.26552 0.0
C997 C 0.29934 0.80339 0.24261 0.0
C998 C 0.29224 0.76786 0.22932 0.0
C999 C 0.25807 0.75062 0.23867 0.0
C1000 C 0.23128 0.76799 0.26043 0.0
C1001 C 0.19652 0.74343 0.26509 0.0
C1002 C 0.1867 0.73738 0.31687 0.0
C1003 C 0.16497 0.75802 0.23815 0.0
C1004 C 0.20779 0.70971 0.24236 0.0
C1005 C 0.2436 0.71444 0.2278 0.0
C1006 C 0.26034 0.68717 0.20612 0.0
C1007 C 0.24005 0.65469 0.19836 0.0
C1008 C 0.20294 0.64927 0.21139 0.0
C1009 C 0.18688 0.67726 0.23443 0.0
H1010 H 0.96304 0.48482 0.47933 0.0
H1011 H 1.00422 0.57618 0.55934 0.0
H1012 H 0.0671 0.56236 0.54311 0.0
H1013 H 0.03081 0.428 0.51846 0.0
H1014 H 0.03469 0.40645 0.46274 0.0
H1015 H 0.99273 0.42443 0.47848 0.0
H1016 H 0.99562 0.46096 0.40232 0.0
H1017 H 0.03787 0.44334 0.38683 0.0
H1018 H 0.03541 0.49019 0.39047 0.0
H1019 H 0.1265 0.54039 0.51521 0.0
H1020 H 0.17719 0.50849 0.48536 0.0
H1021 H 0.10001 0.42707 0.43022 0.0
C1022 C 0.9853 0.50201 0.4932 0.0
C1023 C 0.97819 0.53174 0.52093 0.0
C1024 C 1.00847 0.55316 0.53855 0.0
C1025 C 0.04452 0.54561 0.52922 0.0
C1026 C 0.05059 0.51617 0.50232 0.0
C1027 C 0.02188 0.49445 0.48483 0.0
C1028 C 0.03639 0.46368 0.45842 0.0
C1029 C 0.02286 0.42855 0.48091 0.0
C1030 C 0.02567 0.4646 0.40642 0.0
C1031 C 0.07751 0.47116 0.4646 0.0
C1032 C 0.08499 0.50206 0.48918 0.0
C1033 C 0.12082 0.51561 0.4972 0.0
C1034 C 0.14965 0.49689 0.48074 0.0
C1035 C 0.1431 0.46401 0.45787 0.0
C1036 C 0.10622 0.45152 0.44889 0.0
H1037 H 0.42678 0.59974 0.92805 0.0
H1038 H 0.35002 0.51901 0.98502 0.0
H1039 H 0.40073 0.48945 0.01947 0.0
H1040 H 0.49153 0.53611 0.89358 0.0
H1041 H 0.5311 0.56602 0.90411 0.0
H1042 H 0.48872 0.58276 0.88708 0.0
H1043 H 0.49085 0.62225 0.96046 0.0
H1044 H 0.53323 0.60578 0.97795 0.0
H1045 H 0.49505 0.60284 0.01752 0.0
H1046 H 0.45992 0.47067 0.05255 0.0
H1047 H 0.52294 0.45845 0.07129 0.0
H1048 H 0.56364 0.54475 0.9824 0.0
C1049 C 0.42066 0.57599 0.94818 0.0
C1050 C 0.38389 0.56324 0.95664 0.0
C1051 C 0.37741 0.53112 0.98121 0.0
C1052 C 0.40626 0.51364 0.00015 0.0
C1053 C 0.44196 0.5275 0.99249 0.0
C1054 C 0.44936 0.55735 0.96584 0.0
C1055 C 0.49039 0.56497 0.95986 0.0
C1056 C 0.50106 0.5623 0.90808 0.0
C1057 C 0.50314 0.60111 0.98017 0.0
C1058 C 0.50491 0.53545 0.98858 0.0
C1059 C 0.47631 0.51441 0.00742 0.0
C1060 C 0.48244 0.48664 0.03727 0.0
C1061 C 0.51848 0.47992 0.04785 0.0
C1062 C 0.54854 0.50022 0.02807 0.0
C1063 C 0.54143 0.52839 0.99773 0.0
H1064 H 0.22154 0.41212 0.09755 0.0
H1065 H 0.13836 0.38525 0.20145 0.0
H1066 H 0.15349 0.32362 0.19992 0.0
H1067 H 0.20603 0.33228 0.03043 0.0
H1068 H 0.25333 0.32854 0.0172 0.0
H1069 H 0.23713 0.37115 0.02713 0.0
H1070 H 0.28533 0.38346 0.09244 0.0
H1071 H 0.30179 0.34095 0.08255 0.0
H1072 H 0.28738 0.3529 0.14024 0.0
H1073 H 0.17899 0.26537 0.19029 0.0
H1074 H 0.21014 0.21291 0.16804 0.0
H1075 H 0.27502 0.27505 0.06706 0.0
C1076 C 0.20704 0.39329 0.12048 0.0
C1077 C 0.17879 0.40356 0.14979 0.0
C1078 C 0.15996 0.378 0.17864 0.0
C1079 C 0.16832 0.34289 0.17796 0.0
C1080 C 0.19597 0.33345 0.14854 0.0
C1081 C 0.21504 0.35777 0.12015 0.0
C1082 C 0.24269 0.34004 0.09077 0.0
C1083 C 0.23428 0.34319 0.03826 0.0
C1084 C 0.28161 0.35525 0.10219 0.0
C1085 C 0.23625 0.30216 0.10735 0.0
C1086 C 0.20946 0.29916 0.14116 0.0
C1087 C 0.19966 0.26729 0.16338 0.0
C1088 C 0.21751 0.23763 0.1506 0.0
C1089 C 0.24456 0.23975 0.11541 0.0
C1090 C 0.25392 0.27252 0.09343 0.0
H1091 H 0.37792 0.50159 0.33108 0.0
H1092 H 0.40689 0.40383 0.39296 0.0
H1093 H 0.47165 0.42353 0.38568 0.0
H1094 H 0.45135 0.5115 0.24823 0.0
H1095 H 0.45952 0.55839 0.25512 0.0
H1096 H 0.41473 0.53729 0.26526 0.0
H1097 H 0.41459 0.5641 0.34853 0.0
H1098 H 0.45929 0.58546 0.33851 0.0
H1099 H 0.45129 0.55695 0.38831 0.0
H1100 H 0.53345 0.45193 0.3698 0.0
H1101 H 0.58904 0.4898 0.35066 0.0
H1102 H 0.52282 0.57087 0.30128 0.0
C1103 C 0.39789 0.48447 0.34339 0.0
C1104 C 0.38688 0.45067 0.3617 0.0
C1105 C 0.4142 0.4293 0.37751 0.0
C1106 C 0.45126 0.44037 0.37384 0.0
C1107 C 0.46117 0.47321 0.35468 0.0
C1108 C 0.43543 0.49523 0.34012 0.0
C1109 C 0.45402 0.52944 0.32117 0.0
C1110 C 0.44432 0.53444 0.26937 0.0
C1111 C 0.44421 0.56085 0.35091 0.0
C1112 C 0.49404 0.5229 0.32702 0.0
C1113 C 0.49732 0.49017 0.34638 0.0
C1114 C 0.53123 0.47768 0.35484 0.0
C1115 C 0.56264 0.49927 0.34376 0.0
C1116 C 0.56019 0.53311 0.32457 0.0
C1117 C 0.52539 0.54505 0.31588 0.0
H1118 H 0.29648 0.77001 0.57216 0.0
H1119 H 0.2084 0.76552 0.67305 0.0
H1120 H 0.22136 0.70536 0.69442 0.0
H1121 H 0.28298 0.67898 0.53371 0.0
H1122 H 0.3309 0.67347 0.52878 0.0
H1123 H 0.31452 0.7162 0.52048 0.0
H1124 H 0.35852 0.74181 0.58501 0.0
H1125 H 0.37509 0.69919 0.59337 0.0
H1126 H 0.35714 0.72199 0.64232 0.0
H1127 H 0.24372 0.64487 0.70539 0.0
H1128 H 0.27609 0.59103 0.70837 0.0
H1129 H 0.34956 0.63323 0.59991 0.0
C1130 C 0.2797 0.75632 0.59848 0.0
C1131 C 0.25138 0.77307 0.62092 0.0
C1132 C 0.23057 0.75395 0.65565 0.0
C1133 C 0.23751 0.71943 0.66783 0.0
C1134 C 0.26545 0.7038 0.6451 0.0
C1135 C 0.28644 0.72169 0.6114 0.0
C1136 C 0.31568 0.69908 0.59361 0.0
C1137 C 0.31071 0.69149 0.54102 0.0
C1138 C 0.35387 0.71657 0.60422 0.0
C1139 C 0.30784 0.66582 0.62252 0.0
C1140 C 0.27849 0.66899 0.65166 0.0
C1141 C 0.26646 0.642 0.68221 0.0
C1142 C 0.28504 0.61122 0.68344 0.0
C1143 C 0.31557 0.60717 0.65429 0.0
C1144 C 0.32671 0.63513 0.62319 0.0
H1145 H 0.97126 0.53099 0.83403 0.0
H1146 H 0.98927 0.43809 0.75326 0.0
H1147 H 0.05581 0.45468 0.75443 0.0
H1148 H 0.04174 0.5891 0.77974 0.0
H1149 H 0.05445 0.61175 0.83344 0.0
H1150 H 1.00851 0.59279 0.82528 0.0
H1151 H 0.01339 0.55701 0.90174 0.0
H1152 H 0.05936 0.57579 0.91014 0.0
H1153 H 0.04989 0.52877 0.90841 0.0
H1154 H 0.121 0.48069 0.76743 0.0
H1155 H 0.17878 0.51482 0.78795 0.0
H1156 H 0.11831 0.59129 0.85993 0.0
C1157 C 0.98933 0.51426 0.81656 0.0
C1158 C 0.97532 0.48307 0.79384 0.0
C1159 C 0.9996 0.46196 0.77096 0.0
C1160 C 0.03737 0.47119 0.77156 0.0
C1161 C 0.05047 0.50181 0.79496 0.0
C1162 C 0.02712 0.52313 0.81686 0.0
C1163 C 0.04813 0.55446 0.83986 0.0
C1164 C 0.03758 0.58907 0.81828 0.0
C1165 C 0.04234 0.55397 0.89319 0.0
C1166 C 0.08696 0.54757 0.82749 0.0
C1167 C 0.08775 0.51697 0.80178 0.0
C1168 C 0.12059 0.50475 0.78737 0.0
C1169 C 0.15336 0.52426 0.7994 0.0
C1170 C 0.15331 0.5559 0.82541 0.0
C1171 C 0.11943 0.56755 0.83943 0.0
H1172 H 0.81325 0.612 0.80474 0.0
H1173 H 0.74053 0.55637 0.90368 0.0
H1174 H 0.72326 0.61335 0.93451 0.0
H1175 H 0.8461 0.68131 0.88065 0.0
H1176 H 0.84789 0.71479 0.8361 0.0
H1177 H 0.85304 0.66983 0.82028 0.0
H1178 H 0.79965 0.67085 0.76143 0.0
H1179 H 0.79457 0.71597 0.77659 0.0
H1180 H 0.7563 0.68369 0.78128 0.0
H1181 H 0.71614 0.67794 0.95719 0.0
H1182 H 0.71605 0.74276 0.96435 0.0
H1183 H 0.79419 0.7558 0.85162 0.0
C1184 C 0.79355 0.61166 0.83281 0.0
C1185 C 0.77837 0.57932 0.85176 0.0
C1186 C 0.75233 0.58048 0.88808 0.0
C1187 C 0.74259 0.61286 0.90613 0.0
C1188 C 0.75884 0.64414 0.88743 0.0
C1189 C 0.78346 0.64369 0.85109 0.0
C1190 C 0.7971 0.68082 0.83691 0.0
C1191 C 0.83849 0.68704 0.84392 0.0
C1192 C 0.78625 0.68826 0.78604 0.0
C1193 C 0.77672 0.70239 0.87129 0.0
C1194 C 0.75475 0.6808 0.90021 0.0
C1195 C 0.73322 0.69492 0.93457 0.0
C1196 C 0.7335 0.73178 0.93869 0.0
C1197 C 0.75507 0.75434 0.90867 0.0
C1198 C 0.77745 0.73923 0.87516 0.0
H1199 H 0.54356 0.56714 0.65447 0.0
H1200 H 0.53493 0.45362 0.64529 0.0
H1201 H 0.6006 0.45492 0.62654 0.0
H1202 H 0.60528 0.58222 0.5587 0.0
H1203 H 0.63123 0.61917 0.58509 0.0
H1204 H 0.58411 0.6095 0.60039 0.0
H1205 H 0.60156 0.60636 0.68806 0.0
H1206 H 0.64872 0.6164 0.67314 0.0
H1207 H 0.63514 0.57739 0.70625 0.0
H1208 H 0.66735 0.46872 0.60633 0.0
H1209 H 0.72967 0.49396 0.58708 0.0
H1210 H 0.69594 0.59868 0.60841 0.0
C1211 C 0.55579 0.5426 0.64943 0.0
C1212 C 0.53432 0.51014 0.65228 0.0
C1213 C 0.551 0.47865 0.64399 0.0
C1214 C 0.58828 0.47919 0.63317 0.0
C1215 C 0.60874 0.51153 0.63034 0.0
C1216 C 0.59313 0.54271 0.63833 0.0
C1217 C 0.62109 0.57392 0.63166 0.0
C1218 C 0.60974 0.5976 0.59158 0.0
C1219 C 0.62697 0.59475 0.67751 0.0
C1220 C 0.65477 0.55551 0.6187 0.0
C1221 C 0.64702 0.51948 0.61815 0.0
C1222 C 0.67363 0.49689 0.60676 0.0
C1223 C 0.70894 0.51138 0.59578 0.0
C1224 C 0.71754 0.54816 0.5961 0.0
C1225 C 0.69004 0.57045 0.60783 0.0
H1226 H 0.72727 0.27241 0.3386 0.0
H1227 H 0.82074 0.27865 0.43109 0.0
H1228 H 0.82387 0.34378 0.42741 0.0
H1229 H 0.75708 0.34663 0.26511 0.0
H1230 H 0.7122 0.36144 0.25832 0.0
H1231 H 0.71766 0.31554 0.26783 0.0
H1232 H 0.67521 0.31552 0.33998 0.0
H1233 H 0.66938 0.3613 0.33032 0.0
H1234 H 0.68533 0.34696 0.38628 0.0
H1235 H 0.81727 0.40956 0.41141 0.0
H1236 H 0.7983 0.46844 0.39083 0.0
H1237 H 0.70778 0.41897 0.31112 0.0
C1238 C 0.74824 0.2876 0.35823 0.0
C1239 C 0.7738 0.27049 0.38527 0.0
C1240 C 0.80086 0.29122 0.41039 0.0
C1241 C 0.80292 0.32825 0.40824 0.0
C1242 C 0.7776 0.34442 0.38086 0.0
C1243 C 0.75055 0.32467 0.35661 0.0
C1244 C 0.72619 0.3484 0.33052 0.0
C1245 C 0.72842 0.34265 0.2773 0.0
C1246 C 0.68669 0.34271 0.34782 0.0
C1247 C 0.74337 0.38454 0.3443 0.0
C1248 C 0.77334 0.3818 0.37274 0.0
C1249 C 0.79375 0.41184 0.38922 0.0
C1250 C 0.78291 0.44532 0.37706 0.0
C1251 C 0.75155 0.44886 0.34916 0.0
C1252 C 0.73189 0.41768 0.33248 0.0
H1253 H 0.9732 0.46438 0.15206 0.0
H1254 H 0.9812 0.57804 0.14938 0.0
H1255 H 0.91488 0.57701 0.13423 0.0
H1256 H 0.90846 0.45193 0.0587 0.0
H1257 H 0.88366 0.41405 0.08418 0.0
H1258 H 0.9312 0.42363 0.09759 0.0
H1259 H 0.91642 0.42388 0.18621 0.0
H1260 H 0.86884 0.41408 0.17301 0.0
H1261 H 0.8833 0.45208 0.20781 0.0
H1262 H 0.84721 0.56346 0.11724 0.0
H1263 H 0.78442 0.53836 0.09945 0.0
H1264 H 0.8198 0.43345 0.11135 0.0
C1265 C 0.96073 0.48898 0.14923 0.0
C1266 C 0.9822 0.52141 0.15298 0.0
C1267 C 0.96514 0.55302 0.14752 0.0
C1268 C 0.9275 0.55264 0.13874 0.0
C1269 C 0.90702 0.52034 0.13503 0.0
C1270 C 0.92303 0.48904 0.14013 0.0
C1271 C 0.89502 0.45792 0.13288 0.0
C1272 C 0.9052 0.43557 0.09084 0.0
C1273 C 0.89064 0.43567 0.17764 0.0
C1274 C 0.86087 0.47652 0.12276 0.0
C1275 C 0.86836 0.51256 0.12434 0.0
C1276 C 0.84116 0.53528 0.11599 0.0
C1277 C 0.80557 0.52087 0.10586 0.0
C1278 C 0.79731 0.48409 0.10392 0.0
C1279 C 0.82542 0.4617 0.11254 0.0
H1280 H 0.74674 0.75443 0.64359 0.0
H1281 H 0.78953 0.76741 0.5026 0.0
H1282 H 0.77358 0.82876 0.50236 0.0
H1283 H 0.67245 0.80498 0.63307 0.0
H1284 H 0.67692 0.82637 0.68913 0.0
H1285 H 0.6931 0.78348 0.68129 0.0
H1286 H 0.7566 0.8058 0.70992 0.0
H1287 H 0.74464 0.85059 0.71683 0.0
H1288 H 0.78181 0.84129 0.67983 0.0
H1289 H 0.75302 0.89055 0.51821 0.0
H1290 H 0.72654 0.9442 0.54723 0.0
H1291 H 0.69665 0.89082 0.67682 0.0
C1292 C 0.75302 0.77003 0.61262 0.0
C1293 C 0.76907 0.75524 0.57284 0.0
C1294 C 0.77646 0.77724 0.53325 0.0
C1295 C 0.76782 0.8125 0.53288 0.0
C1296 C 0.75191 0.82603 0.57251 0.0
C1297 C 0.74465 0.80541 0.61162 0.0
C1298 C 0.72789 0.82641 0.6499 0.0
C1299 C 0.69039 0.80927 0.66425 0.0
C1300 C 0.7542 0.8312 0.69169 0.0
C1301 C 0.72468 0.86128 0.62547 0.0
C1302 C 0.73975 0.86101 0.58127 0.0
C1303 C 0.74108 0.89083 0.55276 0.0
C1304 C 0.72615 0.92128 0.56958 0.0
C1305 C 0.7095 0.9217 0.6142 0.0
C1306 C 0.70906 0.89124 0.64247 0.0
H1307 H 0.90686 0.9336 0.8842 0.0
H1308 H 0.84306 1.00595 0.80905 0.0
H1309 H 0.89959 0.04079 0.78609 0.0
H1310 H 0.97487 0.99916 0.92778 0.0
H1311 H 1.01186 0.97146 0.92191 0.0
H1312 H 0.96635 0.95214 0.93212 0.0
H1313 H 0.9706 0.91398 0.85745 0.0
H1314 H 0.01604 0.93342 0.84706 0.0
H1315 H 0.9817 0.93502 0.80226 0.0
H1316 H 0.96392 0.06817 0.77073 0.0
H1317 H 0.03006 0.08623 0.7668 0.0
H1318 H 0.0524 0.99629 0.8511 0.0
C1319 C 0.90471 0.95659 0.86255 0.0
C1320 C 0.87012 0.96685 0.84852 0.0
C1321 C 0.86891 0.99756 0.82082 0.0
C1322 C 0.90101 0.01749 0.80731 0.0
C1323 C 0.93451 1.00668 0.82179 0.0
C1324 C 0.93658 0.97698 0.84896 0.0
C1325 C 0.97601 0.97147 0.86061 0.0
C1326 C 0.98265 0.97368 0.91376 0.0
C1327 C 0.98671 0.93639 0.84065 0.0
C1328 C 0.99581 1.00249 0.8355 0.0
C1329 C 0.97136 0.02252 0.8133 0.0
C1330 C 0.9832 0.05265 0.78811 0.0
C1331 C 0.0208 0.06273 0.78596 0.0
C1332 C 0.04629 0.04297 0.80902 0.0
C1333 C 0.03349 1.01217 0.83357 0.0
H1334 H 0.85154 0.14089 0.10635 0.0
H1335 H 0.77466 0.09289 0.20707 0.0
H1336 H 0.74168 0.14641 0.20666 0.0
H1337 H 0.85588 0.22776 0.15645 0.0
H1338 H 0.85941 0.24999 0.10081 0.0
H1339 H 0.87653 0.20741 0.10737 0.0
H1340 H 0.83601 0.18341 0.03842 0.0
H1341 H 0.81905 0.22598 0.03131 0.0
H1342 H 0.78772 0.18781 0.04005 0.0
H1343 H 0.71767 0.2058 0.19711 0.0
H1344 H 0.70183 0.26512 0.17486 0.0
H1345 H 0.79484 0.27616 0.08196 0.0
C1346 C 0.82787 0.14153 0.12855 0.0
C1347 C 0.81578 0.11213 0.15656 0.0
C1348 C 0.78424 0.11438 0.18443 0.0
C1349 C 0.76539 0.14491 0.18473 0.0
C1350 C 0.7783 0.17332 0.15711 0.0
C1351 C 0.80878 0.17193 0.12946 0.0
C1352 C 0.8171 0.20636 0.10337 0.0
C1353 C 0.85445 0.22391 0.11787 0.0
C1354 C 0.81482 0.20053 0.05013 0.0
C1355 C 0.7865 0.22737 0.1206 0.0
C1356 C 0.76461 0.20778 0.15186 0.0
C1357 C 0.73448 0.22122 0.17244 0.0
C1358 C 0.72576 0.255 0.15967 0.0
C1359 C 0.74703 0.2753 0.12664 0.0
C1360 C 0.77828 0.26146 0.10761 0.0
H1361 H 0.46692 0.03633 0.35123 0.0
H1362 H 0.48203 0.94426 0.26731 0.0
H1363 H 0.54872 0.9597 0.26713 0.0
H1364 H 0.53754 0.09415 0.29549 0.0
H1365 H 0.55156 0.11612 0.34922 0.0
H1366 H 0.50523 0.09792 0.34212 0.0
H1367 H 0.51103 0.06184 0.41776 0.0
H1368 H 0.5577 0.07898 0.42508 0.0
H1369 H 0.54641 0.03219 0.42244 0.0
H1370 H 0.61443 0.98464 0.2782 0.0
H1371 H 0.67308 0.0179 0.29653 0.0
H1372 H 0.61569 0.09462 0.37264 0.0
C1373 C 0.48439 0.01961 0.33268 0.0
C1374 C 0.46944 0.98902 0.30928 0.0
C1375 C 0.49301 0.96776 0.28535 0.0
C1376 C 0.5309 0.97634 0.28516 0.0
C1377 C 0.54494 1.0065 0.30884 0.0
C1378 C 0.52236 0.02796 0.33191 0.0
C1379 C 0.54441 0.05881 0.35474 0.0
C1380 C 0.53406 0.09382 0.33416 0.0
C1381 C 0.53961 0.05792 0.40819 0.0
C1382 C 0.5829 0.05144 0.34095 0.0
C1383 C 0.5826 0.02103 0.31468 0.0
C1384 C 0.61487 1.00853 0.29864 0.0
C1385 C 0.64819 0.02756 0.30948 0.0
C1386 C 0.64936 0.05907 0.33598 0.0
C1387 C 0.61597 0.07097 0.35179 0.0
H1388 H 0.3016 0.10263 0.29869 0.0
H1389 H 0.24771 0.05746 0.4219 0.0
H1390 H 0.23174 0.11642 0.44608 0.0
H1391 H 0.34092 0.18058 0.35557 0.0
H1392 H 0.33524 0.20912 0.30633 0.0
H1393 H 0.34041 0.16318 0.29684 0.0
H1394 H 0.28028 0.1576 0.25006 0.0
H1395 H 0.27423 0.20341 0.26 0.0
H1396 H 0.23912 0.1703 0.27684 0.0
H1397 H 0.22171 0.18107 0.4575 0.0
H1398 H 0.22023 0.24578 0.45615 0.0
H1399 H 0.28497 0.25043 0.32959 0.0
C1400 C 0.28601 0.10513 0.33043 0.0
C1401 C 0.27571 0.07512 0.35822 0.0
C1402 C 0.25596 0.07983 0.39999 0.0
C1403 C 0.24669 0.11331 0.41399 0.0
C1404 C 0.25761 0.14234 0.38625 0.0
C1405 C 0.27703 0.13864 0.34543 0.0
C1406 C 0.28681 0.17442 0.32317 0.0
C1407 C 0.32831 0.18228 0.32033 0.0
C1408 C 0.26905 0.17652 0.27462 0.0
C1409 C 0.27004 0.19876 0.35786 0.0
C1410 C 0.25292 0.17963 0.39369 0.0
C1411 C 0.23503 0.19619 0.42951 0.0
C1412 C 0.23435 0.23303 0.42854 0.0
C1413 C 0.2516 0.25338 0.39225 0.0
C1414 C 0.27029 0.23576 0.35696 0.0
H1415 H 0.05131 0.98379 0.13627 0.0
H1416 H 0.02677 0.08558 0.18877 0.0
H1417 H 0.09097 0.10792 0.17776 0.0
H1418 H 0.14316 0.98281 0.18275 0.0
H1419 H 0.16091 0.96313 0.13117 0.0
H1420 H 0.11364 0.95432 0.14631 0.0
H1421 H 0.09486 0.97584 0.06445 0.0
H1422 H 0.14208 0.98477 0.04912 0.0
H1423 H 0.11146 0.01907 0.04498 0.0
H1424 H 0.15868 0.11943 0.16119 0.0
H1425 H 0.22289 0.12013 0.13562 0.0
H1426 H 0.20366 1.01257 0.08787 0.0
C1427 C 0.05967 1.01062 0.14615 0.0
C1428 C 0.03412 0.03239 0.16566 0.0
C1429 C 0.04595 0.06776 0.17624 0.0
C1430 C 0.0824 0.08085 0.16947 0.0
C1431 C 0.10693 0.05862 0.15081 0.0
C1432 C 0.09596 0.02434 0.13873 0.0
C1433 C 0.12735 1.0066 0.11673 0.0
C1434 C 0.13682 0.97483 0.14599 0.0
C1435 C 0.11839 0.99594 0.0658 0.0
C1436 C 0.15776 0.03607 0.11885 0.0
C1437 C 0.14538 0.06582 0.13888 0.0
C1438 C 0.16849 0.0963 0.14526 0.0
C1439 C 0.20496 0.09649 0.13068 0.0
C1440 C 0.2182 0.06661 0.10941 0.0
C1441 C 0.19419 0.03595 0.10358 0.0
H1442 H 0.21812 0.77156 0.87691 0.0
H1443 H 0.33538 0.7753 0.86362 0.0
H1444 H 0.3376 0.83955 0.85031 0.0
H1445 H 0.20165 0.83674 0.79318 0.0
H1446 H 0.16679 0.85573 0.82659 0.0
H1447 H 0.17444 0.81012 0.83413 0.0
H1448 H 0.18436 0.82001 0.92323 0.0
H1449 H 0.17616 0.86553 0.91601 0.0
H1450 H 0.21773 0.85394 0.94309 0.0
H1451 H 0.32565 0.90399 0.83316 0.0
H1452 H 0.30228 0.9617 0.82153 0.0
H1453 H 0.19411 0.91633 0.85976 0.0
C1454 C 0.24443 0.78597 0.87293 0.0
C1455 C 0.27675 0.7683 0.87264 0.0
C1456 C 0.31032 0.78823 0.86458 0.0
C1457 C 0.31182 0.82476 0.85689 0.0
C1458 C 0.2795 0.84141 0.85788 0.0
C1459 C 0.24652 0.82264 0.86652 0.0
C1460 C 0.21582 0.8468 0.8669 0.0
C1461 C 0.18805 0.83674 0.82788 0.0
C1462 C 0.19744 0.84656 0.91518 0.0
C1463 C 0.23657 0.88202 0.85693 0.0
C1464 C 0.27313 0.87839 0.85097 0.0
C1465 C 0.29707 0.90712 0.83872 0.0
C1466 C 0.28333 0.94027 0.83254 0.0
C1467 C 0.24584 0.94517 0.83952 0.0
C1468 C 0.22265 0.915 0.85263 0.0
H1469 H 0.32267 0.0172 0.5823 0.0
H1470 H 0.30899 0.90712 0.61976 0.0
H1471 H 0.37435 0.90868 0.64102 0.0
H1472 H 0.41341 0.01554 0.53253 0.0
H1473 H 0.42932 0.05826 0.55472 0.0
H1474 H 0.38173 0.04838 0.54174 0.0
H1475 H 0.36525 0.06547 0.62635 0.0
H1476 H 0.41278 0.07538 0.63965 0.0
H1477 H 0.38562 0.04427 0.67504 0.0
H1478 H 0.44183 0.92189 0.65634 0.0
H1479 H 0.50549 0.94616 0.6678 0.0
H1480 H 0.47598 0.04868 0.62431 0.0
C1481 C 0.33363 0.9935 0.59492 0.0
C1482 C 0.31092 0.96192 0.59931 0.0
C1483 C 0.32602 0.93146 0.6161 0.0
C1484 C 0.36309 0.93215 0.6282 0.0
C1485 C 0.38489 0.96361 0.62354 0.0
C1486 C 0.37073 0.9938 0.60741 0.0
C1487 C 0.40011 0.02422 0.60622 0.0
C1488 C 0.40651 0.03737 0.55581 0.0
C1489 C 0.39035 0.0541 0.63876 0.0
C1490 C 0.43285 1.00657 0.62464 0.0
C1491 C 0.42348 0.97151 0.63398 0.0
C1492 C 0.44925 0.94945 0.64988 0.0
C1493 C 0.48534 0.96354 0.65674 0.0
C1494 C 0.49554 0.99961 0.64878 0.0
C1495 C 0.46884 0.02121 0.63189 0.0
H1496 H 0.46049 0.19896 0.0278 0.0
H1497 H 0.371 0.26065 0.06273 0.0
H1498 H 0.41227 0.3153 0.05715 0.0
H1499 H 0.52608 0.24647 0.09517 0.0
H1500 H 0.56299 0.24273 0.0547 0.0
H1501 H 0.52547 0.20957 0.0557 0.0
H1502 H 0.51443 0.21925 0.96709 0.0
H1503 H 0.55196 0.25257 0.96583 0.0
H1504 H 0.50757 0.26268 0.94601 0.0
H1505 H 0.46485 0.36228 0.0545 0.0
H1506 H 0.5245 0.39736 0.0574 0.0
H1507 H 0.57921 0.30432 0.02558 0.0
C1508 C 0.44965 0.22415 0.0333 0.0
C1509 C 0.41285 0.22612 0.04526 0.0
C1510 C 0.39924 0.25908 0.05317 0.0
C1511 C 0.4224 0.29006 0.04994 0.0
C1512 C 0.45889 0.28732 0.03861 0.0
C1513 C 0.47237 0.25515 0.03032 0.0
C1514 C 0.51303 0.25891 0.02234 0.0
C1515 C 0.53306 0.2382 0.05918 0.0
C1516 C 0.52228 0.24769 0.97234 0.0
C1517 C 0.52064 0.2981 0.02885 0.0
C1518 C 0.48904 0.31418 0.03744 0.0
C1519 C 0.48965 0.35004 0.04704 0.0
C1520 C 0.52347 0.36978 0.04853 0.0
C1521 C 0.55599 0.35355 0.04071 0.0
C1522 C 0.55449 0.31739 0.03037 0.0
H1523 H 0.48608 0.83956 0.30094 0.0
H1524 H 0.42107 0.80018 0.18258 0.0
H1525 H 0.46691 0.75813 0.16474 0.0
H1526 H 0.57566 0.83083 0.24586 0.0
H1527 H 0.59574 0.81828 0.3003 0.0
H1528 H 0.55956 0.84728 0.30053 0.0
H1529 H 0.52236 0.80493 0.35666 0.0
H1530 H 0.55826 0.77579 0.35647 0.0
H1531 H 0.51272 0.75957 0.34006 0.0
H1532 H 0.51556 0.71562 0.16689 0.0
H1533 H 0.56415 0.67771 0.1859 0.0
H1534 H 0.60029 0.74839 0.29922 0.0
C1535 C 0.48168 0.82222 0.27108 0.0
C1536 C 0.45006 0.82276 0.24329 0.0
C1537 C 0.44527 0.80009 0.20415 0.0
C1538 C 0.4711 0.7762 0.19382 0.0
C1539 C 0.50172 0.77588 0.22257 0.0
C1540 C 0.50733 0.79864 0.26001 0.0
C1541 C 0.54168 0.79217 0.28658 0.0
C1542 C 0.56983 0.82404 0.28309 0.0
C1543 C 0.53322 0.78253 0.33796 0.0
C1544 C 0.55374 0.76116 0.25954 0.0
C1545 C 0.53052 0.75231 0.22256 0.0
C1546 C 0.53444 0.72281 0.19504 0.0
C1547 C 0.56248 0.70152 0.20602 0.0
C1548 C 0.58665 0.70997 0.24399 0.0
C1549 C 0.58239 0.74075 0.27026 0.0
H1550 H 0.09777 0.78627 0.55457 0.0
H1551 H 0.04241 0.88128 0.53964 0.0
H1552 H 0.98381 0.8456 0.52706 0.0
H1553 H 0.04485 0.73407 0.46753 0.0
H1554 H 0.04468 0.6942 0.50126 0.0
H1555 H 0.08221 0.72729 0.50644 0.0
H1556 H 0.07243 0.7299 0.59627 0.0
H1557 H 0.03511 0.69666 0.59135 0.0
H1558 H 0.02824 0.73815 0.61862 0.0
H1559 H 0.9313 0.79939 0.52053 0.0
H1560 H 0.88823 0.74595 0.52351 0.0
H1561 H 0.97858 0.68158 0.54139 0.0
C1562 C 0.0732 0.79931 0.54835 0.0
C1563 C 0.07394 0.83613 0.54792 0.0
C1564 C 0.04175 0.85288 0.54001 0.0
C1565 C 1.00863 0.8329 0.53265 0.0
C1566 C 1.00861 0.7964 0.5332 0.0
C1567 C 0.04005 0.77978 0.54094 0.0
C1568 C 0.03251 0.74033 0.54202 0.0
C1569 C 0.05223 0.72296 0.50191 0.0
C1570 C 0.04266 0.7254 0.58991 0.0
C1571 C 0.99183 0.7373 0.53445 0.0
C1572 C 0.97852 0.76989 0.52907 0.0
C1573 C 0.94141 0.77373 0.52416 0.0
C1574 C 0.91724 0.74345 0.52577 0.0
C1575 C 0.93054 0.71019 0.53236 0.0
C1576 C 0.96817 0.70696 0.53575 0.0
H1577 H 0.0442 0.19392 0.80616 0.0
H1578 H 0.11615 0.23685 0.69688 0.0
H1579 H 0.07134 0.27919 0.67605 0.0
H1580 H 0.95968 0.20187 0.74253 0.0
H1581 H 0.93525 0.21326 0.79419 0.0
H1582 H 0.97234 0.18554 0.79895 0.0
H1583 H 1.00425 0.22845 0.85948 0.0
H1584 H 0.96716 0.2561 0.85517 0.0
H1585 H 0.01307 0.27418 0.84447 0.0
H1586 H 0.02047 0.31925 0.6713 0.0
H1587 H 0.96844 0.35468 0.68374 0.0
H1588 H 0.92824 0.28272 0.79308 0.0
C1589 C 0.05061 0.21242 0.77808 0.0
C1590 C 0.08364 0.21245 0.75334 0.0
C1591 C 0.09088 0.23652 0.71618 0.0
C1592 C 0.06562 0.26053 0.70409 0.0
C1593 C 0.03319 0.25974 0.7292 0.0
C1594 C 0.02562 0.23622 0.7653 0.0
C1595 C 0.98924 0.24119 0.78749 0.0
C1596 C 0.96255 0.20852 0.78034 0.0
C1597 C 0.99372 0.25055 0.83973 0.0
C1598 C 0.97799 0.27194 0.75923 0.0
C1599 C 1.00351 0.28209 0.72552 0.0
C1600 C 1.00002 0.31123 0.6971 0.0
C1601 C 0.97013 0.33103 0.70421 0.0
C1602 C 0.94404 0.32151 0.73936 0.0
C1603 C 0.94774 0.29097 0.76621 0.0
H1604 H 0.46431 0.68082 0.97214 0.0
H1605 H 0.39901 0.76131 0.02468 0.0
H1606 H 0.45413 0.79372 0.05697 0.0
H1607 H 0.54044 0.69478 0.07141 0.0
H1608 H 0.57355 0.68446 0.02827 0.0
H1609 H 0.5283 0.66272 0.02685 0.0
H1610 H 0.52332 0.68306 0.93961 0.0
H1611 H 0.56757 0.70585 0.94299 0.0
H1612 H 0.52902 0.72941 0.92676 0.0
H1613 H 0.51519 0.82435 0.06322 0.0
H1614 H 0.57644 0.85045 0.04135 0.0
H1615 H 0.60253 0.75084 0.98406 0.0
C1616 C 0.46175 0.70469 0.99187 0.0
C1617 C 0.42789 0.71886 0.99584 0.0
C1618 C 0.42494 0.75009 0.02162 0.0
C1619 C 0.45602 0.76846 0.0404 0.0
C1620 C 0.48954 0.75474 0.0339 0.0
C1621 C 0.4925 0.72307 0.01108 0.0
C1622 C 0.53176 0.71688 0.00169 0.0
C1623 C 0.54427 0.688 0.03395 0.0
C1624 C 0.53825 0.70837 0.9497 0.0
C1625 C 0.54976 0.75216 0.0159 0.0
C1626 C 0.52541 0.77286 0.03717 0.0
C1627 C 0.53478 0.80805 0.0481 0.0
C1628 C 0.5694 0.82272 0.03542 0.0
C1629 C 0.59353 0.80224 0.01143 0.0
C1630 C 0.58426 0.76644 0.00313 0.0
H1631 H 0.52257 0.18817 0.75219 0.0
H1632 H 0.61932 0.21145 0.66834 0.0
H1633 H 0.61273 0.27476 0.67628 0.0
H1634 H 0.47193 0.24658 0.70129 0.0
H1635 H 0.44885 0.26028 0.75289 0.0
H1636 H 0.46593 0.21766 0.75105 0.0
H1637 H 0.50323 0.23221 0.82673 0.0
H1638 H 0.48605 0.27504 0.82859 0.0
H1639 H 0.53441 0.27106 0.82889 0.0
H1640 H 0.58918 0.33254 0.67763 0.0
H1641 H 0.55023 0.38216 0.67422 0.0
H1642 H 0.46879 0.32335 0.7581 0.0
C1643 C 0.5429 0.20682 0.737 0.0
C1644 C 0.57136 0.19531 0.70971 0.0
C1645 C 0.59719 0.22006 0.68918 0.0
C1646 C 0.5939 0.256 0.69391 0.0
C1647 C 0.56467 0.2667 0.71941 0.0
C1648 C 0.53974 0.24295 0.74107 0.0
C1649 C 0.50809 0.26114 0.76062 0.0
C1650 C 0.47158 0.24548 0.74019 0.0
C1651 C 0.50796 0.25978 0.8144 0.0
C1652 C 0.51776 0.29816 0.74326 0.0
C1653 C 0.55103 0.30095 0.72071 0.0
C1654 C 0.56367 0.33115 0.69645 0.0
C1655 C 0.54142 0.35901 0.69439 0.0
C1656 C 0.50714 0.35631 0.71651 0.0
C1657 C 0.49551 0.32603 0.74218 0.0
H1658 H 0.05732 0.34693 0.46731 0.0
H1659 H 0.1197 0.26863 0.5317 0.0
H1660 H 0.06298 0.2356 0.55704 0.0
H1661 H 0.97299 0.33213 0.5544 0.0
H1662 H 0.94348 0.34061 0.50599 0.0
H1663 H 0.98783 0.36396 0.51076 0.0
H1664 H 1.00155 0.34313 0.42617 0.0
H1665 H 0.95819 0.31859 0.42286 0.0
H1666 H 0.99909 0.29663 0.41393 0.0
H1667 H 1.00294 0.20339 0.55421 0.0
H1668 H 0.94423 0.17562 0.52488 0.0
H1669 H 0.92044 0.2737 0.46073 0.0
C1670 C 0.05876 0.32352 0.48833 0.0
C1671 C 0.09239 0.31006 0.49746 0.0
C1672 C 0.09393 0.27937 0.52475 0.0
C1673 C 0.06189 0.26062 0.53956 0.0
C1674 C 0.0288 0.27339 0.5275 0.0
C1675 C 0.02699 0.3047 0.50344 0.0
C1676 C 0.98866 0.30957 0.4874 0.0
C1677 C 0.97226 0.33826 0.51635 0.0
C1678 C 0.98682 0.31737 0.43447 0.0
C1679 C 0.97061 0.27395 0.49961 0.0
C1680 C 0.9935 0.25422 0.52523 0.0
C1681 C 0.98431 0.21894 0.53566 0.0
C1682 C 0.95125 0.20332 0.51865 0.0
C1683 C 0.92858 0.22295 0.49089 0.0
C1684 C 0.9377 0.2587 0.48238 0.0
H1685 H 0.02436 0.85149 0.17828 0.0
H1686 H 0.93872 0.83542 0.28173 0.0
H1687 H 0.95719 0.77581 0.29738 0.0
H1688 H 0.01216 0.76867 0.12949 0.0
H1689 H 0.05967 0.76406 0.11862 0.0
H1690 H 0.04315 0.80704 0.12029 0.0
H1691 H 0.08987 0.82662 0.18563 0.0
H1692 H 0.10712 0.78399 0.18188 0.0
H1693 H 0.09228 0.80006 0.23752 0.0
H1694 H 0.97934 0.71632 0.29364 0.0
H1695 H 1.00578 0.66101 0.27362 0.0
H1696 H 0.07869 0.71728 0.17507 0.0
C1697 C 1.01004 0.83556 0.20481 0.0
C1698 C 0.98047 0.84768 0.22909 0.0
C1699 C 0.96194 0.82643 0.26342 0.0
C1700 C 0.97215 0.79268 0.27245 0.0
C1701 C 1.00108 0.78115 0.24714 0.0
C1702 C 0.01997 0.80204 0.21435 0.0
C1703 C 0.04807 0.78259 0.18929 0.0
C1704 C 0.04026 0.78046 0.13631 0.0
C1705 C 0.08663 0.79931 0.19926 0.0
C1706 C 0.04145 0.74718 0.21231 0.0
C1707 C 0.01432 0.74688 0.24563 0.0
C1708 C 1.00126 0.71631 0.26852 0.0
C1709 C 0.01643 0.68513 0.25696 0.0
C1710 C 0.04433 0.68504 0.22297 0.0
C1711 C 0.05723 0.71656 0.20096 0.0
loop_
_geom_bond_atom_site_label_1
_geom_bond_atom_site_label_2
_geom_bond_distance
_geom_bond_site_symmetry_2
_ccdc_geom_bond_type
C0 C1 1.443 . S
C0 N4 1.376 . S
C0 C38 1.389 . S
C1 C0 1.443 . S
C1 C2 1.340 . S
C1 H41 0.951 . S
C2 C1 1.340 . S
C2 C3 1.439 . S
C2 H42 0.950 . S
C3 C2 1.439 . S
C3 N4 1.374 . S
C3 C37 1.395 . S
N4 C0 1.376 . S
N4 C3 1.374 . S
N4 Co5 2.008 1_556 S
Co5 N4 2.008 1_554 S
Co5 N6 1.995 1_554 S
Co5 N11 2.008 . S
Co5 N16 1.995 . S
Co5 N21 2.282 . S
Co5 N27 2.282 1_554 S
N6 Co5 1.995 1_556 S
N6 C7 1.376 . S
N6 C10 1.383 . S
C7 N6 1.376 . S
C7 C8 1.446 . S
C7 C37 1.391 . S
C8 C7 1.446 . S
C8 C9 1.339 . S
C8 H43 0.949 . S
C9 C8 1.339 . S
C9 C10 1.439 . S
C9 H44 0.950 . S
C10 N6 1.383 . S
C10 C9 1.439 . S
C10 C39 1.392 1_556 S
N11 Co5 2.008 . S
N11 C12 1.376 . S
N11 C15 1.374 . S
C12 N11 1.376 . S
C12 C13 1.443 . S
C12 C39 1.389 . S
C13 C12 1.443 . S
C13 C14 1.340 . S
C13 H45 0.951 . S
C14 C13 1.340 . S
C14 C15 1.439 . S
C14 H46 0.950 . S
C15 N11 1.374 . S
C15 C14 1.439 . S
C15 C40 1.395 . S
N16 Co5 1.995 . S
N16 C17 1.376 . S
N16 C20 1.383 . S
C17 N16 1.376 . S
C17 C18 1.446 . S
C17 C40 1.391 . S
C18 C17 1.446 . S
C18 C19 1.339 . S
C18 H47 0.949 . S
C19 C18 1.339 . S
C19 C20 1.439 . S
C19 H48 0.950 . S
C20 N16 1.383 . S
C20 C19 1.439 . S
C20 C38 1.392 1_554 S
N21 Co5 2.282 . S
N21 C24 1.332 . S
N21 C26 1.332 1_554 S
C22 C23 1.386 . S
C22 C25 1.388 1_554 S
C23 C22 1.386 . S
C23 C24 1.382 . S
C23 H49 0.950 . S
C24 N21 1.332 . S
C24 C23 1.382 . S
C24 H35 0.952 . S
C25 C22 1.388 1_556 S
C25 C26 1.382 . S
C25 H50 0.950 . S
C26 N21 1.332 1_556 S
C26 C25 1.382 . S
C26 H36 0.948 . S
N27 Co5 2.282 1_556 S
N27 C31 1.332 . S
N27 C32 1.332 1_556 S
C28 C29 1.388 1_554 S
C28 C32 1.382 . S
C28 H51 0.950 . S
C29 C28 1.388 1_556 S
C29 C30 1.386 . S
C30 C29 1.386 . S
C30 C31 1.382 . S
C30 H52 0.950 . S
C31 N27 1.332 . S
C31 C30 1.382 . S
C31 H33 0.952 . S
C32 N27 1.332 1_554 S
C32 C28 1.382 . S
C32 H34 0.948 . S
H33 C31 0.952 . S
H34 C32 0.948 . S
H35 C24 0.952 . S
H36 C26 0.948 . S
C37 C3 1.395 . S
C37 C7 1.391 . S
C38 C0 1.389 . S
C38 C20 1.392 1_556 S
C39 C10 1.392 1_554 S
C39 C12 1.389 . S
C40 C15 1.395 . S
C40 C17 1.391 . S
H41 C1 0.951 . S
H42 C2 0.950 . S
H43 C8 0.949 . S
H44 C9 0.950 . S
H45 C13 0.951 . S
H46 C14 0.950 . S
H47 C18 0.949 . S
H48 C19 0.950 . S
H49 C23 0.950 . S
H50 C25 0.950 . S
H51 C28 0.950 . S
H52 C30 0.950 . S
C53 C54 1.443 . S
C53 N57 1.376 . S
C53 C91 1.389 . S
C54 C53 1.443 . S
C54 C55 1.340 . S
C54 H94 0.951 . S
C55 C54 1.340 . S
C55 C56 1.439 . S
C55 H95 0.950 . S
C56 C55 1.439 . S
C56 N57 1.374 . S
C56 C90 1.395 . S
N57 C53 1.376 . S
N57 C56 1.374 . S
N57 Co58 2.008 . S
Co58 N57 2.008 . S
Co58 N59 1.995 . S
Co58 N64 2.008 . S
Co58 N69 1.995 . S
Co58 N74 2.282 . S
Co58 N80 2.282 . S
N59 Co58 1.995 . S
N59 C60 1.376 . S
N59 C63 1.383 . S
C60 N59 1.376 . S
C60 C61 1.446 . S
C60 C90 1.391 . S
C61 C60 1.446 . S
C61 C62 1.339 . S
C61 H96 0.949 . S
C62 C61 1.339 . S
C62 C63 1.439 . S
C62 H97 0.950 . S
C63 N59 1.383 . S
C63 C62 1.439 . S
C63 C92 1.392 . S
N64 Co58 2.008 . S
N64 C65 1.376 . S
N64 C68 1.374 . S
C65 N64 1.376 . S
C65 C66 1.443 . S
C65 C92 1.389 . S
C66 C65 1.443 . S
C66 C67 1.340 . S
C66 H98 0.951 . S
C67 C66 1.340 . S
C67 C68 1.439 . S
C67 H99 0.950 . S
C68 N64 1.374 . S
C68 C67 1.439 . S
C68 C93 1.395 . S
N69 Co58 1.995 . S
N69 C70 1.376 . S
N69 C73 1.383 . S
C70 N69 1.376 . S
C70 C71 1.446 . S
C70 C93 1.391 . S
C71 C70 1.446 . S
C71 C72 1.339 . S
C71 H100 0.949 . S
C72 C71 1.339 . S
C72 C73 1.439 . S
C72 H101 0.950 . S
C73 N69 1.383 . S
C73 C72 1.439 . S
C73 C91 1.392 . S
N74 Co58 2.282 . S
N74 C77 1.332 . S
N74 C79 1.332 . S
C75 C76 1.386 . S
C75 C78 1.388 . S
C76 C75 1.386 . S
C76 C77 1.382 . S
C76 H102 0.950 . S
C77 N74 1.332 . S
C77 C76 1.382 . S
C77 H88 0.952 . S
C78 C75 1.388 . S
C78 C79 1.382 . S
C78 H103 0.950 . S
C79 N74 1.332 . S
C79 C78 1.382 . S
C79 H89 0.948 . S
N80 Co58 2.282 . S
N80 C84 1.332 . S
N80 C85 1.332 . S
C81 C82 1.388 . S
C81 C85 1.382 . S
C81 H104 0.950 . S
C82 C81 1.388 . S
C82 C83 1.386 . S
C83 C82 1.386 . S
C83 C84 1.382 . S
C83 H105 0.950 . S
C84 N80 1.332 . S
C84 C83 1.382 . S
C84 H86 0.952 . S
C85 N80 1.332 . S
C85 C81 1.382 . S
C85 H87 0.948 . S
H86 C84 0.952 . S
H87 C85 0.948 . S
H88 C77 0.952 . S
H89 C79 0.948 . S
C90 C56 1.395 . S
C90 C60 1.391 . S
C91 C53 1.389 . S
C91 C73 1.392 . S
C92 C63 1.392 . S
C92 C65 1.389 . S
C93 C68 1.395 . S
C93 C70 1.391 . S
H94 C54 0.951 . S
H95 C55 0.950 . S
H96 C61 0.949 . S
H97 C62 0.950 . S
H98 C66 0.951 . S
H99 C67 0.950 . S
H100 C71 0.949 . S
H101 C72 0.950 . S
H102 C76 0.950 . S
H103 C78 0.950 . S
H104 C81 0.950 . S
H105 C83 0.950 . S
C106 C107 1.443 . S
C106 N110 1.376 . S
C106 C144 1.389 . S
C107 C106 1.443 . S
C107 C108 1.340 . S
C107 H147 0.951 . S
C108 C107 1.340 . S
C108 C109 1.439 . S
C108 H148 0.950 . S
C109 C108 1.439 . S
C109 N110 1.374 . S
C109 C143 1.395 . S
N110 C106 1.376 . S
N110 C109 1.374 . S
N110 Co111 2.008 . S
Co111 N110 2.008 . S
Co111 N112 1.995 . S
Co111 N117 2.008 . S
Co111 N122 1.995 . S
Co111 N127 2.282 . S
Co111 N133 2.282 . S
N112 Co111 1.995 . S
N112 C113 1.376 . S
N112 C116 1.383 . S
C113 N112 1.376 . S
C113 C114 1.446 . S
C113 C143 1.391 . S
C114 C113 1.446 . S
C114 C115 1.339 . S
C114 H149 0.949 . S
C115 C114 1.339 . S
C115 C116 1.439 . S
C115 H150 0.950 . S
C116 N112 1.383 . S
C116 C115 1.439 . S
C116 C145 1.392 . S
N117 Co111 2.008 . S
N117 C118 1.376 . S
N117 C121 1.374 . S
C118 N117 1.376 . S
C118 C119 1.443 . S
C118 C145 1.389 . S
C119 C118 1.443 . S
C119 C120 1.340 . S
C119 H151 0.951 . S
C120 C119 1.340 . S
C120 C121 1.439 . S
C120 H152 0.950 . S
C121 N117 1.374 . S
C121 C120 1.439 . S
C121 C146 1.395 . S
N122 Co111 1.995 . S
N122 C123 1.376 . S
N122 C126 1.383 . S
C123 N122 1.376 . S
C123 C124 1.446 . S
C123 C146 1.391 . S
C124 C123 1.446 . S
C124 C125 1.339 . S
C124 H153 0.949 . S
C125 C124 1.339 . S
C125 C126 1.439 . S
C125 H154 0.950 . S
C126 N122 1.383 . S
C126 C125 1.439 . S
C126 C144 1.392 . S
N127 Co111 2.282 . S
N127 C130 1.332 . S
N127 C132 1.332 . S
C128 C129 1.386 . S
C128 C131 1.388 . S
C129 C128 1.386 . S
C129 C130 1.382 . S
C129 H155 0.950 . S
C130 N127 1.332 . S
C130 C129 1.382 . S
C130 H141 0.952 . S
C131 C128 1.388 . S
C131 C132 1.382 . S
C131 H156 0.950 . S
C132 N127 1.332 . S
C132 C131 1.382 . S
C132 H142 0.948 . S
N133 Co111 2.282 . S
N133 C137 1.332 . S
N133 C138 1.332 . S
C134 C135 1.388 . S
C134 C138 1.382 . S
C134 H157 0.950 . S
C135 C134 1.388 . S
C135 C136 1.386 . S
C136 C135 1.386 . S
C136 C137 1.382 . S
C136 H158 0.950 . S
C137 N133 1.332 . S
C137 C136 1.382 . S
C137 H139 0.952 . S
C138 N133 1.332 . S
C138 C134 1.382 . S
C138 H140 0.948 . S
H139 C137 0.952 . S
H140 C138 0.948 . S
H141 C130 0.952 . S
H142 C132 0.948 . S
C143 C109 1.395 . S
C143 C113 1.391 . S
C144 C106 1.389 . S
C144 C126 1.392 . S
C145 C116 1.392 . S
C145 C118 1.389 . S
C146 C121 1.395 . S
C146 C123 1.391 . S
H147 C107 0.951 . S
H148 C108 0.950 . S
H149 C114 0.949 . S
H150 C115 0.950 . S
H151 C119 0.951 . S
H152 C120 0.950 . S
H153 C124 0.949 . S
H154 C125 0.950 . S
H155 C129 0.950 . S
H156 C131 0.950 . S
H157 C134 0.950 . S
H158 C136 0.950 . S
C159 C160 1.443 . S
C159 N163 1.376 . S
C159 C197 1.389 . S
C160 C159 1.443 . S
C160 C161 1.340 . S
C160 H200 0.951 . S
C161 C160 1.340 . S
C161 C162 1.439 . S
C161 H201 0.950 . S
C162 C161 1.439 . S
C162 N163 1.374 . S
C162 C196 1.395 . S
N163 C159 1.376 . S
N163 C162 1.374 . S
N163 Co164 2.008 . S
Co164 N163 2.008 . S
Co164 N165 1.995 . S
Co164 N170 2.008 . S
Co164 N175 1.995 . S
Co164 N180 2.282 . S
Co164 N186 2.282 . S
N165 Co164 1.995 . S
N165 C166 1.376 . S
N165 C169 1.383 . S
C166 N165 1.376 . S
C166 C167 1.446 . S
C166 C196 1.391 . S
C167 C166 1.446 . S
C167 C168 1.339 . S
C167 H202 0.949 . S
C168 C167 1.339 . S
C168 C169 1.439 . S
C168 H203 0.950 . S
C169 N165 1.383 . S
C169 C168 1.439 . S
C169 C198 1.392 . S
N170 Co164 2.008 . S
N170 C171 1.376 . S
N170 C174 1.374 . S
C171 N170 1.376 . S
C171 C172 1.443 . S
C171 C198 1.389 . S
C172 C171 1.443 . S
C172 C173 1.340 . S
C172 H204 0.951 . S
C173 C172 1.340 . S
C173 C174 1.439 . S
C173 H205 0.950 . S
C174 N170 1.374 . S
C174 C173 1.439 . S
C174 C199 1.395 . S
N175 Co164 1.995 . S
N175 C176 1.376 . S
N175 C179 1.383 . S
C176 N175 1.376 . S
C176 C177 1.446 . S
C176 C199 1.391 . S
C177 C176 1.446 . S
C177 C178 1.339 . S
C177 H206 0.949 . S
C178 C177 1.339 . S
C178 C179 1.439 . S
C178 H207 0.950 . S
C179 N175 1.383 . S
C179 C178 1.439 . S
C179 C197 1.392 . S
N180 Co164 2.282 . S
N180 C183 1.332 . S
N180 C185 1.332 . S
C181 C182 1.386 . S
C181 C184 1.388 . S
C182 C181 1.386 . S
C182 C183 1.382 . S
C182 H208 0.950 . S
C183 N180 1.332 . S
C183 C182 1.382 . S
C183 H194 0.952 . S
C184 C181 1.388 . S
C184 C185 1.382 . S
C184 H209 0.950 . S
C185 N180 1.332 . S
C185 C184 1.382 . S
C185 H195 0.948 . S
N186 Co164 2.282 . S
N186 C190 1.332 . S
N186 C191 1.332 . S
C187 C188 1.388 . S
C187 C191 1.382 . S
C187 H210 0.950 . S
C188 C187 1.388 . S
C188 C189 1.386 . S
C189 C188 1.386 . S
C189 C190 1.382 . S
C189 H211 0.950 . S
C190 N186 1.332 . S
C190 C189 1.382 . S
C190 H192 0.952 . S
C191 N186 1.332 . S
C191 C187 1.382 . S
C191 H193 0.948 . S
H192 C190 0.952 . S
H193 C191 0.948 . S
H194 C183 0.952 . S
H195 C185 0.948 . S
C196 C162 1.395 . S
C196 C166 1.391 . S
C197 C159 1.389 . S
C197 C179 1.392 . S
C198 C169 1.392 . S
C198 C171 1.389 . S
C199 C174 1.395 . S
C199 C176 1.391 . S
H200 C160 0.951 . S
H201 C161 0.950 . S
H202 C167 0.949 . S
H203 C168 0.950 . S
H204 C172 0.951 . S
H205 C173 0.950 . S
H206 C177 0.949 . S
H207 C178 0.950 . S
H208 C182 0.950 . S
H209 C184 0.950 . S
H210 C187 0.950 . S
H211 C189 0.950 . S
C212 C213 1.443 . S
C212 N216 1.376 . S
C212 C250 1.389 . S
C213 C212 1.443 . S
C213 C214 1.340 . S
C213 H253 0.951 . S
C214 C213 1.340 . S
C214 C215 1.439 . S
C214 H254 0.950 . S
C215 C214 1.439 . S
C215 N216 1.374 . S
C215 C249 1.395 . S
N216 C212 1.376 . S
N216 C215 1.374 . S
N216 Co217 2.008 1_554 S
Co217 N216 2.008 1_556 S
Co217 N218 1.995 1_556 S
Co217 N223 2.008 . S
Co217 N228 1.995 . S
Co217 N233 2.282 . S
Co217 N239 2.282 1_556 S
N218 Co217 1.995 1_554 S
N218 C219 1.376 . S
N218 C222 1.383 . S
C219 N218 1.376 . S
C219 C220 1.446 . S
C219 C249 1.391 . S
C220 C219 1.446 . S
C220 C221 1.339 . S
C220 H255 0.949 . S
C221 C220 1.339 . S
C221 C222 1.439 . S
C221 H256 0.950 . S
C222 N218 1.383 . S
C222 C221 1.439 . S
C222 C251 1.392 1_554 S
N223 Co217 2.008 . S
N223 C224 1.376 . S
N223 C227 1.374 . S
C224 N223 1.376 . S
C224 C225 1.443 . S
C224 C251 1.389 . S
C225 C224 1.443 . S
C225 C226 1.340 . S
C225 H257 0.951 . S
C226 C225 1.340 . S
C226 C227 1.439 . S
C226 H258 0.950 . S
C227 N223 1.374 . S
C227 C226 1.439 . S
C227 C252 1.395 . S
N228 Co217 1.995 . S
N228 C229 1.376 . S
N228 C232 1.383 . S
C229 N228 1.376 . S
C229 C230 1.446 . S
C229 C252 1.391 . S
C230 C229 1.446 . S
C230 C231 1.339 . S
C230 H259 0.949 . S
C231 C230 1.339 . S
C231 C232 1.439 . S
C231 H260 0.950 . S
C232 N228 1.383 . S
C232 C231 1.439 . S
C232 C250 1.392 1_556 S
N233 Co217 2.282 . S
N233 C236 1.332 . S
N233 C238 1.332 1_556 S
C234 C235 1.386 . S
C234 C237 1.388 1_556 S
C235 C234 1.386 . S
C235 C236 1.382 . S
C235 H261 0.950 . S
C236 N233 1.332 . S
C236 C235 1.382 . S
C236 H247 0.952 . S
C237 C234 1.388 1_554 S
C237 C238 1.382 . S
C237 H262 0.950 . S
C238 N233 1.332 1_554 S
C238 C237 1.382 . S
C238 H248 0.948 . S
N239 Co217 2.282 1_554 S
N239 C243 1.332 . S
N239 C244 1.332 1_554 S
C240 C241 1.388 1_556 S
C240 C244 1.382 . S
C240 H263 0.950 . S
C241 C240 1.388 1_554 S
C241 C242 1.386 . S
C242 C241 1.386 . S
C242 C243 1.382 . S
C242 H264 0.950 . S
C243 N239 1.332 . S
C243 C242 1.382 . S
C243 H245 0.952 . S
C244 N239 1.332 1_556 S
C244 C240 1.382 . S
C244 H246 0.948 . S
H245 C243 0.952 . S
H246 C244 0.948 . S
H247 C236 0.952 . S
H248 C238 0.948 . S
C249 C215 1.395 . S
C249 C219 1.391 . S
C250 C212 1.389 . S
C250 C232 1.392 1_554 S
C251 C222 1.392 1_556 S
C251 C224 1.389 . S
C252 C227 1.395 . S
C252 C229 1.391 . S
H253 C213 0.951 . S
H254 C214 0.950 . S
H255 C220 0.949 . S
H256 C221 0.950 . S
H257 C225 0.951 . S
H258 C226 0.950 . S
H259 C230 0.949 . S
H260 C231 0.950 . S
H261 C235 0.950 . S
H262 C237 0.950 . S
H263 C240 0.950 . S
H264 C242 0.950 . S
C265 C266 1.443 . S
C265 N269 1.376 . S
C265 C303 1.389 . S
C266 C265 1.443 . S
C266 C267 1.340 . S
C266 H306 0.951 . S
C267 C266 1.340 . S
C267 C268 1.439 . S
C267 H307 0.950 . S
C268 C267 1.439 . S
C268 N269 1.374 . S
C268 C302 1.395 . S
N269 C265 1.376 . S
N269 C268 1.374 . S
N269 Co270 2.008 . S
Co270 N269 2.008 . S
Co270 N271 1.995 . S
Co270 N276 2.008 . S
Co270 N281 1.995 . S
Co270 N286 2.282 . S
Co270 N292 2.282 . S
N271 Co270 1.995 . S
N271 C272 1.376 . S
N271 C275 1.383 . S
C272 N271 1.376 . S
C272 C273 1.446 . S
C272 C302 1.391 . S
C273 C272 1.446 . S
C273 C274 1.339 . S
C273 H308 0.949 . S
C274 C273 1.339 . S
C274 C275 1.439 . S
C274 H309 0.950 . S
C275 N271 1.383 . S
C275 C274 1.439 . S
C275 C304 1.392 . S
N276 Co270 2.008 . S
N276 C277 1.376 . S
N276 C280 1.374 . S
C277 N276 1.376 . S
C277 C278 1.443 . S
C277 C304 1.389 . S
C278 C277 1.443 . S
C278 C279 1.340 . S
C278 H310 0.951 . S
C279 C278 1.340 . S
C279 C280 1.439 . S
C279 H311 0.950 . S
C280 N276 1.374 . S
C280 C279 1.439 . S
C280 C305 1.395 . S
N281 Co270 1.995 . S
N281 C282 1.376 . S
N281 C285 1.383 . S
C282 N281 1.376 . S
C282 C283 1.446 . S
C282 C305 1.391 . S
C283 C282 1.446 . S
C283 C284 1.339 . S
C283 H312 0.949 . S
C284 C283 1.339 . S
C284 C285 1.439 . S
C284 H313 0.950 . S
C285 N281 1.383 . S
C285 C284 1.439 . S
C285 C303 1.392 . S
N286 Co270 2.282 . S
N286 C289 1.332 . S
N286 C291 1.332 . S
C287 C288 1.386 . S
C287 C290 1.388 . S
C288 C287 1.386 . S
C288 C289 1.382 . S
C288 H314 0.950 . S
C289 N286 1.332 . S
C289 C288 1.382 . S
C289 H300 0.952 . S
C290 C287 1.388 . S
C290 C291 1.382 . S
C290 H315 0.950 . S
C291 N286 1.332 . S
C291 C290 1.382 . S
C291 H301 0.948 . S
N292 Co270 2.282 . S
N292 C296 1.332 . S
N292 C297 1.332 . S
C293 C294 1.388 . S
C293 C297 1.382 . S
C293 H316 0.950 . S
C294 C293 1.388 . S
C294 C295 1.386 . S
C295 C294 1.386 . S
C295 C296 1.382 . S
C295 H317 0.950 . S
C296 N292 1.332 . S
C296 C295 1.382 . S
C296 H298 0.952 . S
C297 N292 1.332 . S
C297 C293 1.382 . S
C297 H299 0.948 . S
H298 C296 0.952 . S
H299 C297 0.948 . S
H300 C289 0.952 . S
H301 C291 0.948 . S
C302 C268 1.395 . S
C302 C272 1.391 . S
C303 C265 1.389 . S
C303 C285 1.392 . S
C304 C275 1.392 . S
C304 C277 1.389 . S
C305 C280 1.395 . S
C305 C282 1.391 . S
H306 C266 0.951 . S
H307 C267 0.950 . S
H308 C273 0.949 . S
H309 C274 0.950 . S
H310 C278 0.951 . S
H311 C279 0.950 . S
H312 C283 0.949 . S
H313 C284 0.950 . S
H314 C288 0.950 . S
H315 C290 0.950 . S
H316 C293 0.950 . S
H317 C295 0.950 . S
C318 C319 1.443 . S
C318 N322 1.376 . S
C318 C356 1.389 . S
C319 C318 1.443 . S
C319 C320 1.340 . S
C319 H359 0.951 . S
C320 C319 1.340 . S
C320 C321 1.439 . S
C320 H360 0.950 . S
C321 C320 1.439 . S
C321 N322 1.374 . S
C321 C355 1.395 . S
N322 C318 1.376 . S
N322 C321 1.374 . S
N322 Co323 2.008 . S
Co323 N322 2.008 . S
Co323 N324 1.995 . S
Co323 N329 2.008 . S
Co323 N334 1.995 . S
Co323 N339 2.282 . S
Co323 N345 2.282 . S
N324 Co323 1.995 . S
N324 C325 1.376 . S
N324 C328 1.383 . S
C325 N324 1.376 . S
C325 C326 1.446 . S
C325 C355 1.391 . S
C326 C325 1.446 . S
C326 C327 1.339 . S
C326 H361 0.949 . S
C327 C326 1.339 . S
C327 C328 1.439 . S
C327 H362 0.950 . S
C328 N324 1.383 . S
C328 C327 1.439 . S
C328 C357 1.392 . S
N329 Co323 2.008 . S
N329 C330 1.376 . S
N329 C333 1.374 . S
C330 N329 1.376 . S
C330 C331 1.443 . S
C330 C357 1.389 . S
C331 C330 1.443 . S
C331 C332 1.340 . S
C331 H363 0.951 . S
C332 C331 1.340 . S
C332 C333 1.439 . S
C332 H364 0.950 . S
C333 N329 1.374 . S
C333 C332 1.439 . S
C333 C358 1.395 . S
N334 Co323 1.995 . S
N334 C335 1.376 . S
N334 C338 1.383 . S
C335 N334 1.376 . S
C335 C336 1.446 . S
C335 C358 1.391 . S
C336 C335 1.446 . S
C336 C337 1.339 . S
C336 H365 0.949 . S
C337 C336 1.339 . S
C337 C338 1.439 . S
C337 H366 0.950 . S
C338 N334 1.383 . S
C338 C337 1.439 . S
C338 C356 1.392 . S
N339 Co323 2.282 . S
N339 C342 1.332 . S
N339 C344 1.332 . S
C340 C341 1.386 . S
C340 C343 1.388 . S
C341 C340 1.386 . S
C341 C342 1.382 . S
C341 H367 0.950 . S
C342 N339 1.332 . S
C342 C341 1.382 . S
C342 H353 0.952 . S
C343 C340 1.388 . S
C343 C344 1.382 . S
C343 H368 0.950 . S
C344 N339 1.332 . S
C344 C343 1.382 . S
C344 H354 0.948 . S
N345 Co323 2.282 . S
N345 C349 1.332 . S
N345 C350 1.332 . S
C346 C347 1.388 . S
C346 C350 1.382 . S
C346 H369 0.950 . S
C347 C346 1.388 . S
C347 C348 1.386 . S
C348 C347 1.386 . S
C348 C349 1.382 . S
C348 H370 0.950 . S
C349 N345 1.332 . S
C349 C348 1.382 . S
C349 H351 0.952 . S
C350 N345 1.332 . S
C350 C346 1.382 . S
C350 H352 0.948 . S
H351 C349 0.952 . S
H352 C350 0.948 . S
H353 C342 0.952 . S
H354 C344 0.948 . S
C355 C321 1.395 . S
C355 C325 1.391 . S
C356 C318 1.389 . S
C356 C338 1.392 . S
C357 C328 1.392 . S
C357 C330 1.389 . S
C358 C333 1.395 . S
C358 C335 1.391 . S
H359 C319 0.951 . S
H360 C320 0.950 . S
H361 C326 0.949 . S
H362 C327 0.950 . S
H363 C331 0.951 . S
H364 C332 0.950 . S
H365 C336 0.949 . S
H366 C337 0.950 . S
H367 C341 0.950 . S
H368 C343 0.950 . S
H369 C346 0.950 . S
H370 C348 0.950 . S
C371 C372 1.443 . S
C371 N375 1.376 . S
C371 C409 1.389 . S
C372 C371 1.443 . S
C372 C373 1.340 . S
C372 H412 0.951 . S
C373 C372 1.340 . S
C373 C374 1.439 . S
C373 H413 0.950 . S
C374 C373 1.439 . S
C374 N375 1.374 . S
C374 C408 1.395 . S
N375 C371 1.376 . S
N375 C374 1.374 . S
N375 Co376 2.008 . S
Co376 N375 2.008 . S
Co376 N377 1.995 . S
Co376 N382 2.008 . S
Co376 N387 1.995 . S
Co376 N392 2.282 . S
Co376 N398 2.282 . S
N377 Co376 1.995 . S
N377 C378 1.376 . S
N377 C381 1.383 . S
C378 N377 1.376 . S
C378 C379 1.446 . S
C378 C408 1.391 . S
C379 C378 1.446 . S
C379 C380 1.347 . S
C379 H414 0.949 . S
C380 C379 1.347 . S
C380 C381 1.447 . S
C380 H415 0.935 1_455 S
C381 N377 1.383 . S
C381 C380 1.447 . S
C381 C410 1.392 . S
N382 Co376 2.008 . S
N382 C383 1.376 . S
N382 C386 1.374 . S
C383 N382 1.376 . S
C383 C384 1.443 . S
C383 C410 1.389 . S
C384 C383 1.443 . S
C384 C385 1.340 . S
C384 H416 0.951 1_455 S
C385 C384 1.340 . S
C385 C386 1.439 . S
C385 H417 0.950 . S
C386 N382 1.374 . S
C386 C385 1.439 . S
C386 C411 1.395 . S
N387 Co376 1.995 . S
N387 C388 1.376 . S
N387 C391 1.383 . S
C388 N387 1.376 . S
C388 C389 1.446 . S
C388 C411 1.391 . S
C389 C388 1.446 . S
C389 C390 1.339 . S
C389 H418 0.949 . S
C390 C389 1.339 . S
C390 C391 1.439 . S
C390 H419 0.950 . S
C391 N387 1.383 . S
C391 C390 1.439 . S
C391 C409 1.392 . S
N392 Co376 2.282 . S
N392 C395 1.332 . S
N392 C397 1.332 . S
C393 C394 1.386 . S
C393 C396 1.388 . S
C394 C393 1.386 . S
C394 C395 1.382 . S
C394 H420 0.950 . S
C395 N392 1.332 . S
C395 C394 1.382 . S
C395 H406 0.952 . S
C396 C393 1.388 . S
C396 C397 1.382 . S
C396 H421 0.950 . S
C397 N392 1.332 . S
C397 C396 1.382 . S
C397 H407 0.948 . S
N398 Co376 2.282 . S
N398 C402 1.332 . S
N398 C403 1.332 . S
C399 C400 1.388 . S
C399 C403 1.382 . S
C399 H422 0.950 . S
C400 C399 1.388 . S
C400 C401 1.386 . S
C401 C400 1.386 . S
C401 C402 1.382 . S
C401 H423 0.950 . S
C402 N398 1.332 . S
C402 C401 1.382 . S
C402 H404 0.952 . S
C403 N398 1.332 . S
C403 C399 1.382 . S
C403 H405 0.948 . S
H404 C402 0.952 . S
H405 C403 0.948 . S
H406 C395 0.952 . S
H407 C397 0.948 . S
C408 C374 1.395 . S
C408 C378 1.391 . S
C409 C371 1.389 . S
C409 C391 1.392 . S
C410 C381 1.392 . S
C410 C383 1.389 . S
C411 C386 1.395 . S
C411 C388 1.391 . S
H412 C372 0.951 . S
H413 C373 0.950 . S
H414 C379 0.949 . S
H415 C380 0.935 1_655 S
H416 C384 0.951 1_655 S
H417 C385 0.950 . S
H418 C389 0.949 . S
H419 C390 0.950 . S
H420 C394 0.950 . S
H421 C396 0.950 . S
H422 C399 0.950 . S
H423 C401 0.950 . S
C424 C425 1.443 . S
C424 N428 1.376 . S
C424 C462 1.389 . S
C425 C424 1.443 . S
C425 C426 1.340 . S
C425 H465 0.951 . S
C426 C425 1.340 . S
C426 C427 1.439 . S
C426 H466 0.950 . S
C427 C426 1.439 . S
C427 N428 1.374 . S
C427 C461 1.395 . S
N428 C424 1.376 . S
N428 C427 1.374 . S
N428 Co429 2.008 . S
Co429 N428 2.008 . S
Co429 N430 1.995 . S
Co429 N435 2.008 . S
Co429 N440 1.995 . S
Co429 N445 2.282 . S
Co429 N451 2.282 . S
N430 Co429 1.995 . S
N430 C431 1.376 . S
N430 C434 1.383 . S
C431 N430 1.376 . S
C431 C432 1.446 . S
C431 C461 1.391 . S
C432 C431 1.446 . S
C432 C433 1.339 . S
C432 H467 0.949 . S
C433 C432 1.339 . S
C433 C434 1.439 . S
C433 H468 0.950 . S
C434 N430 1.383 . S
C434 C433 1.439 . S
C434 C463 1.392 . S
N435 Co429 2.008 . S
N435 C436 1.376 . S
N435 C439 1.374 . S
C436 N435 1.376 . S
C436 C437 1.443 . S
C436 C463 1.389 . S
C437 C436 1.443 . S
C437 C438 1.340 . S
C437 H469 0.951 . S
C438 C437 1.340 . S
C438 C439 1.439 . S
C438 H470 0.950 . S
C439 N435 1.374 . S
C439 C438 1.439 . S
C439 C464 1.395 . S
N440 Co429 1.995 . S
N440 C441 1.376 . S
N440 C444 1.383 . S
C441 N440 1.376 . S
C441 C442 1.446 . S
C441 C464 1.391 . S
C442 C441 1.446 . S
C442 C443 1.339 . S
C442 H471 0.949 . S
C443 C442 1.339 . S
C443 C444 1.439 . S
C443 H472 0.950 . S
C444 N440 1.383 . S
C444 C443 1.439 . S
C444 C462 1.392 . S
N445 Co429 2.282 . S
N445 C448 1.332 . S
N445 C450 1.332 . S
C446 C447 1.386 . S
C446 C449 1.388 . S
C447 C446 1.386 . S
C447 C448 1.382 . S
C447 H473 0.950 . S
C448 N445 1.332 . S
C448 C447 1.382 . S
C448 H459 0.952 . S
C449 C446 1.388 . S
C449 C450 1.382 . S
C449 H474 0.950 . S
C450 N445 1.332 . S
C450 C449 1.382 . S
C450 H460 0.948 . S
N451 Co429 2.282 . S
N451 C455 1.332 . S
N451 C456 1.332 . S
C452 C453 1.388 . S
C452 C456 1.382 . S
C452 H475 0.950 . S
C453 C452 1.388 . S
C453 C454 1.386 . S
C454 C453 1.386 . S
C454 C455 1.382 . S
C454 H476 0.950 . S
C455 N451 1.332 . S
C455 C454 1.382 . S
C455 H457 0.952 . S
C456 N451 1.332 . S
C456 C452 1.382 . S
C456 H458 0.948 . S
H457 C455 0.952 . S
H458 C456 0.948 . S
H459 C448 0.952 . S
H460 C450 0.948 . S
C461 C427 1.395 . S
C461 C431 1.391 . S
C462 C424 1.389 . S
C462 C444 1.392 . S
C463 C434 1.392 . S
C463 C436 1.389 . S
C464 C439 1.395 . S
C464 C441 1.391 . S
H465 C425 0.951 . S
H466 C426 0.950 . S
H467 C432 0.949 . S
H468 C433 0.950 . S
H469 C437 0.951 . S
H470 C438 0.950 . S
H471 C442 0.949 . S
H472 C443 0.950 . S
H473 C447 0.950 . S
H474 C449 0.950 . S
H475 C452 0.950 . S
H476 C454 0.950 . S
C477 C478 1.443 . S
C477 N481 1.376 . S
C477 C515 1.389 . S
C478 C477 1.443 . S
C478 C479 1.340 . S
C478 H518 0.951 . S
C479 C478 1.340 . S
C479 C480 1.439 . S
C479 H519 0.950 . S
C480 C479 1.439 . S
C480 N481 1.374 . S
C480 C514 1.395 . S
N481 C477 1.376 . S
N481 C480 1.374 . S
N481 Co482 2.008 . S
Co482 N481 2.008 . S
Co482 N483 1.995 . S
Co482 N488 2.008 . S
Co482 N493 1.995 . S
Co482 N498 2.282 . S
Co482 N504 2.282 . S
N483 Co482 1.995 . S
N483 C484 1.376 . S
N483 C487 1.383 . S
C484 N483 1.376 . S
C484 C485 1.446 . S
C484 C514 1.391 . S
C485 C484 1.446 . S
C485 C486 1.339 . S
C485 H520 0.949 . S
C486 C485 1.339 . S
C486 C487 1.439 . S
C486 H521 0.949 . S
C487 N483 1.383 . S
C487 C486 1.439 . S
C487 C516 1.392 1_545 S
N488 Co482 2.008 . S
N488 C489 1.376 1_545 S
N488 C492 1.374 . S
C489 N488 1.376 1_565 S
C489 C490 1.443 . S
C489 C516 1.389 . S
C490 C489 1.443 . S
C490 C491 1.340 . S
C490 H522 0.951 . S
C491 C490 1.340 . S
C491 C492 1.439 1_565 S
C491 H523 0.950 . S
C492 N488 1.374 . S
C492 C491 1.439 1_545 S
C492 C517 1.395 . S
N493 Co482 1.995 . S
N493 C494 1.376 . S
N493 C497 1.383 . S
C494 N493 1.376 . S
C494 C495 1.446 . S
C494 C517 1.391 . S
C495 C494 1.446 . S
C495 C496 1.339 . S
C495 H524 0.949 . S
C496 C495 1.339 . S
C496 C497 1.439 . S
C496 H525 0.950 . S
C497 N493 1.383 . S
C497 C496 1.439 . S
C497 C515 1.392 . S
N498 Co482 2.282 . S
N498 C501 1.332 1_545 S
N498 C503 1.332 1_545 S
C499 C500 1.386 . S
C499 C502 1.388 . S
C500 C499 1.386 . S
C500 C501 1.382 . S
C500 H526 0.950 . S
C501 N498 1.332 1_565 S
C501 C500 1.382 . S
C501 H512 0.952 . S
C502 C499 1.388 . S
C502 C503 1.382 . S
C502 H527 0.950 . S
C503 N498 1.332 1_565 S
C503 C502 1.382 . S
C503 H513 0.948 1_565 S
N504 Co482 2.282 . S
N504 C508 1.332 . S
N504 C509 1.332 . S
C505 C506 1.388 . S
C505 C509 1.382 . S
C505 H528 0.950 . S
C506 C505 1.388 . S
C506 C507 1.386 . S
C507 C506 1.386 . S
C507 C508 1.382 . S
C507 H529 0.950 . S
C508 N504 1.332 . S
C508 C507 1.382 . S
C508 H510 0.952 . S
C509 N504 1.332 . S
C509 C505 1.382 . S
C509 H511 0.948 . S
H510 C508 0.952 . S
H511 C509 0.948 . S
H512 C501 0.952 . S
H513 C503 0.948 1_545 S
C514 C480 1.395 . S
C514 C484 1.391 . S
C515 C477 1.389 . S
C515 C497 1.392 . S
C516 C487 1.392 1_565 S
C516 C489 1.389 . S
C517 C492 1.395 . S
C517 C494 1.391 . S
H518 C478 0.951 . S
H519 C479 0.950 . S
H520 C485 0.949 . S
H521 C486 0.949 . S
H522 C490 0.951 . S
H523 C491 0.950 . S
H524 C495 0.949 . S
H525 C496 0.950 . S
H526 C500 0.950 . S
H527 C502 0.950 . S
H528 C505 0.950 . S
H529 C507 0.950 . S
C530 C531 1.443 . S
C530 N534 1.376 . S
C530 C568 1.389 . S
C531 C530 1.443 . S
C531 C532 1.340 . S
C531 H571 0.951 . S
C532 C531 1.340 . S
C532 C533 1.439 . S
C532 H572 0.950 . S
C533 C532 1.439 . S
C533 N534 1.374 . S
C533 C567 1.395 . S
N534 C530 1.376 . S
N534 C533 1.374 . S
N534 Co535 2.008 1_556 S
Co535 N534 2.008 1_554 S
Co535 N536 1.995 1_554 S
Co535 N541 2.008 . S
Co535 N546 1.995 . S
Co535 N551 2.282 . S
Co535 N557 2.282 1_554 S
N536 Co535 1.995 1_556 S
N536 C537 1.376 . S
N536 C540 1.383 . S
C537 N536 1.376 . S
C537 C538 1.446 . S
C537 C567 1.391 . S
C538 C537 1.446 . S
C538 C539 1.339 . S
C538 H573 0.949 . S
C539 C538 1.339 . S
C539 C540 1.439 . S
C539 H574 0.950 . S
C540 N536 1.383 . S
C540 C539 1.439 . S
C540 C569 1.392 1_556 S
N541 Co535 2.008 . S
N541 C542 1.376 . S
N541 C545 1.374 . S
C542 N541 1.376 . S
C542 C543 1.443 . S
C542 C569 1.389 . S
C543 C542 1.443 . S
C543 C544 1.340 . S
C543 H575 0.951 . S
C544 C543 1.340 . S
C544 C545 1.439 . S
C544 H576 0.950 . S
C545 N541 1.374 . S
C545 C544 1.439 . S
C545 C570 1.395 . S
N546 Co535 1.995 . S
N546 C547 1.376 . S
N546 C550 1.383 . S
C547 N546 1.376 . S
C547 C548 1.446 . S
C547 C570 1.391 . S
C548 C547 1.446 . S
C548 C549 1.339 . S
C548 H577 0.949 . S
C549 C548 1.339 . S
C549 C550 1.439 . S
C549 H578 0.950 . S
C550 N546 1.383 . S
C550 C549 1.439 . S
C550 C568 1.392 1_554 S
N551 Co535 2.282 . S
N551 C554 1.332 . S
N551 C556 1.332 1_554 S
C552 C553 1.386 . S
C552 C555 1.388 1_554 S
C553 C552 1.386 . S
C553 C554 1.382 . S
C553 H579 0.950 . S
C554 N551 1.332 . S
C554 C553 1.382 . S
C554 H565 0.952 . S
C555 C552 1.388 1_556 S
C555 C556 1.382 . S
C555 H580 0.950 . S
C556 N551 1.332 1_556 S
C556 C555 1.382 . S
C556 H566 0.948 . S
N557 Co535 2.282 1_556 S
N557 C561 1.332 . S
N557 C562 1.332 1_556 S
C558 C559 1.388 1_554 S
C558 C562 1.382 . S
C558 H581 0.950 . S
C559 C558 1.388 1_556 S
C559 C560 1.386 . S
C560 C559 1.386 . S
C560 C561 1.382 . S
C560 H582 0.950 . S
C561 N557 1.332 . S
C561 C560 1.382 . S
C561 H563 0.952 . S
C562 N557 1.332 1_554 S
C562 C558 1.382 . S
C562 H564 0.948 . S
H563 C561 0.952 . S
H564 C562 0.948 . S
H565 C554 0.952 . S
H566 C556 0.948 . S
C567 C533 1.395 . S
C567 C537 1.391 . S
C568 C530 1.389 . S
C568 C550 1.392 1_556 S
C569 C540 1.392 1_554 S
C569 C542 1.389 . S
C570 C545 1.395 . S
C570 C547 1.391 . S
H571 C531 0.951 . S
H572 C532 0.950 . S
H573 C538 0.949 . S
H574 C539 0.950 . S
H575 C543 0.951 . S
H576 C544 0.950 . S
H577 C548 0.949 . S
H578 C549 0.950 . S
H579 C553 0.950 . S
H580 C555 0.950 . S
H581 C558 0.950 . S
H582 C560 0.950 . S
C583 C584 1.443 . S
C583 N587 1.376 . S
C583 C621 1.389 . S
C584 C583 1.443 . S
C584 C585 1.340 . S
C584 H624 0.951 . S
C585 C584 1.340 . S
C585 C586 1.439 . S
C585 H625 0.950 . S
C586 C585 1.439 . S
C586 N587 1.374 . S
C586 C620 1.395 . S
N587 C583 1.376 . S
N587 C586 1.374 . S
N587 Co588 2.008 . S
Co588 N587 2.008 . S
Co588 N589 1.995 . S
Co588 N594 2.008 . S
Co588 N599 1.995 . S
Co588 N604 2.282 . S
Co588 N610 2.282 . S
N589 Co588 1.995 . S
N589 C590 1.376 . S
N589 C593 1.383 . S
C590 N589 1.376 . S
C590 C591 1.446 . S
C590 C620 1.391 . S
C591 C590 1.446 . S
C591 C592 1.339 . S
C591 H626 0.949 . S
C592 C591 1.339 . S
C592 C593 1.439 . S
C592 H627 0.948 . S
C593 N589 1.383 . S
C593 C592 1.439 . S
C593 C622 1.392 1_565 S
N594 Co588 2.008 . S
N594 C595 1.376 1_565 S
N594 C598 1.374 . S
C595 N594 1.376 1_545 S
C595 C596 1.443 . S
C595 C622 1.389 . S
C596 C595 1.443 . S
C596 C597 1.340 . S
C596 H628 0.951 . S
C597 C596 1.340 . S
C597 C598 1.439 1_545 S
C597 H629 0.950 . S
C598 N594 1.374 . S
C598 C597 1.439 1_565 S
C598 C623 1.395 . S
N599 Co588 1.995 . S
N599 C600 1.376 . S
N599 C603 1.383 . S
C600 N599 1.376 . S
C600 C601 1.446 . S
C600 C623 1.391 . S
C601 C600 1.446 . S
C601 C602 1.339 . S
C601 H630 0.949 . S
C602 C601 1.339 . S
C602 C603 1.439 . S
C602 H631 0.950 . S
C603 N599 1.383 . S
C603 C602 1.439 . S
C603 C621 1.392 . S
N604 Co588 2.282 . S
N604 C607 1.332 1_565 S
N604 C609 1.332 1_565 S
C605 C606 1.386 . S
C605 C608 1.388 . S
C606 C605 1.386 . S
C606 C607 1.382 . S
C606 H632 0.950 . S
C607 N604 1.332 1_545 S
C607 C606 1.382 . S
C607 H618 0.952 . S
C608 C605 1.388 . S
C608 C609 1.382 . S
C608 H633 0.950 . S
C609 N604 1.332 1_545 S
C609 C608 1.382 . S
C609 H619 0.948 1_545 S
N610 Co588 2.282 . S
N610 C614 1.332 . S
N610 C615 1.332 . S
C611 C612 1.388 . S
C611 C615 1.382 . S
C611 H634 0.950 . S
C612 C611 1.388 . S
C612 C613 1.386 . S
C613 C612 1.386 . S
C613 C614 1.382 . S
C613 H635 0.950 . S
C614 N610 1.332 . S
C614 C613 1.382 . S
C614 H616 0.952 . S
C615 N610 1.332 . S
C615 C611 1.382 . S
C615 H617 0.948 . S
H616 C614 0.952 . S
H617 C615 0.948 . S
H618 C607 0.952 . S
H619 C609 0.948 1_565 S
C620 C586 1.395 . S
C620 C590 1.391 . S
C621 C583 1.389 . S
C621 C603 1.392 . S
C622 C593 1.392 1_545 S
C622 C595 1.389 . S
C623 C598 1.395 . S
C623 C600 1.391 . S
H624 C584 0.951 . S
H625 C585 0.950 . S
H626 C591 0.949 . S
H627 C592 0.948 . S
H628 C596 0.951 . S
H629 C597 0.950 . S
H630 C601 0.949 . S
H631 C602 0.950 . S
H632 C606 0.950 . S
H633 C608 0.950 . S
H634 C611 0.950 . S
H635 C613 0.950 . S
C636 C637 1.443 . S
C636 N640 1.376 . S
C636 C674 1.389 . S
C637 C636 1.443 . S
C637 C638 1.340 . S
C637 H677 0.951 . S
C638 C637 1.340 . S
C638 C639 1.439 . S
C638 H678 0.950 . S
C639 C638 1.439 . S
C639 N640 1.374 . S
C639 C673 1.395 . S
N640 C636 1.376 . S
N640 C639 1.374 . S
N640 Co641 2.008 . S
Co641 N640 2.008 . S
Co641 N642 1.995 . S
Co641 N647 2.008 . S
Co641 N652 1.995 . S
Co641 N657 2.282 . S
Co641 N663 2.282 . S
N642 Co641 1.995 . S
N642 C643 1.376 . S
N642 C646 1.383 . S
C643 N642 1.376 . S
C643 C644 1.446 . S
C643 C673 1.391 . S
C644 C643 1.446 . S
C644 C645 1.339 . S
C644 H679 0.949 . S
C645 C644 1.339 . S
C645 C646 1.439 . S
C645 H680 0.950 . S
C646 N642 1.383 . S
C646 C645 1.439 . S
C646 C675 1.392 . S
N647 Co641 2.008 . S
N647 C648 1.376 . S
N647 C651 1.374 . S
C648 N647 1.376 . S
C648 C649 1.443 . S
C648 C675 1.389 . S
C649 C648 1.443 . S
C649 C650 1.340 . S
C649 H681 0.951 . S
C650 C649 1.340 . S
C650 C651 1.439 . S
C650 H682 0.950 . S
C651 N647 1.374 . S
C651 C650 1.439 . S
C651 C676 1.395 . S
N652 Co641 1.995 . S
N652 C653 1.376 . S
N652 C656 1.383 . S
C653 N652 1.376 . S
C653 C654 1.446 . S
C653 C676 1.391 . S
C654 C653 1.446 . S
C654 C655 1.339 . S
C654 H683 0.949 . S
C655 C654 1.339 . S
C655 C656 1.439 . S
C655 H684 0.950 . S
C656 N652 1.383 . S
C656 C655 1.439 . S
C656 C674 1.392 . S
N657 Co641 2.282 . S
N657 C660 1.332 . S
N657 C662 1.332 . S
C658 C659 1.386 . S
C658 C661 1.388 . S
C659 C658 1.386 . S
C659 C660 1.382 . S
C659 H685 0.950 . S
C660 N657 1.332 . S
C660 C659 1.382 . S
C660 H671 0.952 . S
C661 C658 1.388 . S
C661 C662 1.382 . S
C661 H686 0.950 . S
C662 N657 1.332 . S
C662 C661 1.382 . S
C662 H672 0.948 . S
N663 Co641 2.282 . S
N663 C667 1.332 . S
N663 C668 1.332 . S
C664 C665 1.388 . S
C664 C668 1.382 . S
C664 H687 0.950 . S
C665 C664 1.388 . S
C665 C666 1.386 . S
C666 C665 1.386 . S
C666 C667 1.382 . S
C666 H688 0.950 . S
C667 N663 1.332 . S
C667 C666 1.382 . S
C667 H669 0.952 . S
C668 N663 1.332 . S
C668 C664 1.382 . S
C668 H670 0.948 . S
H669 C667 0.952 . S
H670 C668 0.948 . S
H671 C660 0.952 . S
H672 C662 0.948 . S
C673 C639 1.395 . S
C673 C643 1.391 . S
C674 C636 1.389 . S
C674 C656 1.392 . S
C675 C646 1.392 . S
C675 C648 1.389 . S
C676 C651 1.395 . S
C676 C653 1.391 . S
H677 C637 0.951 . S
H678 C638 0.950 . S
H679 C644 0.949 . S
H680 C645 0.950 . S
H681 C649 0.951 . S
H682 C650 0.950 . S
H683 C654 0.949 . S
H684 C655 0.950 . S
H685 C659 0.950 . S
H686 C661 0.950 . S
H687 C664 0.950 . S
H688 C666 0.950 . S
C689 C690 1.443 . S
C689 N693 1.376 . S
C689 C727 1.389 . S
C690 C689 1.443 . S
C690 C691 1.340 . S
C690 H730 0.951 . S
C691 C690 1.340 . S
C691 C692 1.439 . S
C691 H731 0.950 . S
C692 C691 1.439 . S
C692 N693 1.374 . S
C692 C726 1.395 . S
N693 C689 1.376 . S
N693 C692 1.374 . S
N693 Co694 2.008 . S
Co694 N693 2.008 . S
Co694 N695 1.995 . S
Co694 N700 2.008 . S
Co694 N705 1.995 . S
Co694 N710 2.282 . S
Co694 N716 2.282 . S
N695 Co694 1.995 . S
N695 C696 1.376 . S
N695 C699 1.381 . S
C696 N695 1.376 . S
C696 C697 1.446 1_565 S
C696 C726 1.391 . S
C697 C696 1.446 1_545 S
C697 C698 1.347 . S
C697 H732 0.949 . S
C698 C697 1.347 . S
C698 C699 1.448 1_545 S
C698 H733 0.936 1_655 S
C699 N695 1.381 . S
C699 C698 1.448 1_565 S
C699 C728 1.393 1_565 S
N700 Co694 2.008 . S
N700 C701 1.376 . S
N700 C704 1.374 . S
C701 N700 1.376 . S
C701 C702 1.443 . S
C701 C728 1.389 1_565 S
C702 C701 1.443 . S
C702 C703 1.340 . S
C702 H734 0.951 1_665 S
C703 C702 1.340 . S
C703 C704 1.439 . S
C703 H735 0.950 . S
C704 N700 1.374 . S
C704 C703 1.439 . S
C704 C729 1.395 . S
N705 Co694 1.995 . S
N705 C706 1.376 . S
N705 C709 1.383 . S
C706 N705 1.376 . S
C706 C707 1.446 . S
C706 C729 1.391 . S
C707 C706 1.446 . S
C707 C708 1.339 . S
C707 H736 0.949 . S
C708 C707 1.339 . S
C708 C709 1.439 . S
C708 H737 0.950 . S
C709 N705 1.383 . S
C709 C708 1.439 . S
C709 C727 1.392 . S
N710 Co694 2.282 . S
N710 C713 1.327 1_565 S
N710 C715 1.332 1_565 S
C711 C712 1.386 . S
C711 C714 1.388 . S
C712 C711 1.386 . S
C712 C713 1.409 . S
C712 H738 0.950 . S
C713 N710 1.327 1_545 S
C713 C712 1.409 . S
C713 H724 0.929 1_545 S
C714 C711 1.388 . S
C714 C715 1.382 . S
C714 H739 0.950 . S
C715 N710 1.332 1_545 S
C715 C714 1.382 . S
C715 H725 0.948 . S
N716 Co694 2.282 . S
N716 C720 1.332 . S
N716 C721 1.332 . S
C717 C718 1.388 . S
C717 C721 1.382 . S
C717 H740 0.950 . S
C718 C717 1.388 . S
C718 C719 1.386 . S
C719 C718 1.386 . S
C719 C720 1.382 . S
C719 H741 0.950 . S
C720 N716 1.332 . S
C720 C719 1.382 . S
C720 H722 0.952 . S
C721 N716 1.332 . S
C721 C717 1.382 . S
C721 H723 0.948 . S
H722 C720 0.952 . S
H723 C721 0.948 . S
H724 C713 0.929 1_565 S
H725 C715 0.948 . S
C726 C692 1.395 . S
C726 C696 1.391 . S
C727 C689 1.389 . S
C727 C709 1.392 . S
C728 C699 1.393 1_545 S
C728 C701 1.389 1_545 S
C729 C704 1.395 . S
C729 C706 1.391 . S
H730 C690 0.951 . S
H731 C691 0.950 . S
H732 C697 0.949 . S
H733 C698 0.936 1_455 S
H734 C702 0.951 1_445 S
H735 C703 0.950 . S
H736 C707 0.949 . S
H737 C708 0.950 . S
H738 C712 0.950 . S
H739 C714 0.950 . S
H740 C717 0.950 . S
H741 C719 0.950 . S
C742 C743 1.443 . S
C742 N746 1.376 . S
C742 C780 1.389 . S
C743 C742 1.443 . S
C743 C744 1.340 . S
C743 H783 0.951 . S
C744 C743 1.340 . S
C744 C745 1.439 . S
C744 H784 0.950 . S
C745 C744 1.439 . S
C745 N746 1.374 . S
C745 C779 1.395 . S
N746 C742 1.376 . S
N746 C745 1.374 . S
N746 Co747 2.008 1_554 S
Co747 N746 2.008 1_556 S
Co747 N748 1.995 1_556 S
Co747 N753 2.008 . S
Co747 N758 1.995 . S
Co747 N763 2.282 . S
Co747 N769 2.282 1_556 S
N748 Co747 1.995 1_554 S
N748 C749 1.376 . S
N748 C752 1.383 . S
C749 N748 1.376 . S
C749 C750 1.446 . S
C749 C779 1.391 . S
C750 C749 1.446 . S
C750 C751 1.339 . S
C750 H785 0.949 . S
C751 C750 1.339 . S
C751 C752 1.439 . S
C751 H786 0.950 . S
C752 N748 1.383 . S
C752 C751 1.439 . S
C752 C781 1.392 1_554 S
N753 Co747 2.008 . S
N753 C754 1.376 . S
N753 C757 1.374 . S
C754 N753 1.376 . S
C754 C755 1.443 . S
C754 C781 1.389 . S
C755 C754 1.443 . S
C755 C756 1.340 . S
C755 H787 0.951 . S
C756 C755 1.340 . S
C756 C757 1.439 . S
C756 H788 0.950 . S
C757 N753 1.374 . S
C757 C756 1.439 . S
C757 C782 1.395 . S
N758 Co747 1.995 . S
N758 C759 1.376 . S
N758 C762 1.383 . S
C759 N758 1.376 . S
C759 C760 1.446 . S
C759 C782 1.391 . S
C760 C759 1.446 . S
C760 C761 1.339 . S
C760 H789 0.949 . S
C761 C760 1.339 . S
C761 C762 1.439 . S
C761 H790 0.950 . S
C762 N758 1.383 . S
C762 C761 1.439 . S
C762 C780 1.392 1_556 S
N763 Co747 2.282 . S
N763 C766 1.332 . S
N763 C768 1.332 1_556 S
C764 C765 1.386 . S
C764 C767 1.388 1_556 S
C765 C764 1.386 . S
C765 C766 1.382 . S
C765 H791 0.950 . S
C766 N763 1.332 . S
C766 C765 1.382 . S
C766 H777 0.952 . S
C767 C764 1.388 1_554 S
C767 C768 1.382 . S
C767 H792 0.950 . S
C768 N763 1.332 1_554 S
C768 C767 1.382 . S
C768 H778 0.948 . S
N769 Co747 2.282 1_554 S
N769 C773 1.332 . S
N769 C774 1.332 1_554 S
C770 C771 1.388 1_556 S
C770 C774 1.382 . S
C770 H793 0.950 . S
C771 C770 1.388 1_554 S
C771 C772 1.386 . S
C772 C771 1.386 . S
C772 C773 1.382 . S
C772 H794 0.950 . S
C773 N769 1.332 . S
C773 C772 1.382 . S
C773 H775 0.952 . S
C774 N769 1.332 1_556 S
C774 C770 1.382 . S
C774 H776 0.948 . S
H775 C773 0.952 . S
H776 C774 0.948 . S
H777 C766 0.952 . S
H778 C768 0.948 . S
C779 C745 1.395 . S
C779 C749 1.391 . S
C780 C742 1.389 . S
C780 C762 1.392 1_554 S
C781 C752 1.392 1_556 S
C781 C754 1.389 . S
C782 C757 1.395 . S
C782 C759 1.391 . S
H783 C743 0.951 . S
H784 C744 0.950 . S
H785 C750 0.949 . S
H786 C751 0.950 . S
H787 C755 0.951 . S
H788 C756 0.950 . S
H789 C760 0.949 . S
H790 C761 0.950 . S
H791 C765 0.950 . S
H792 C767 0.950 . S
H793 C770 0.950 . S
H794 C772 0.950 . S
C795 C796 1.443 . S
C795 N799 1.376 . S
C795 C833 1.389 . S
C796 C795 1.443 . S
C796 C797 1.340 . S
C796 H836 0.951 . S
C797 C796 1.340 . S
C797 C798 1.439 . S
C797 H837 0.950 . S
C798 C797 1.439 . S
C798 N799 1.374 . S
C798 C832 1.395 . S
N799 C795 1.376 . S
N799 C798 1.374 . S
N799 Co800 2.008 . S
Co800 N799 2.008 . S
Co800 N801 1.995 . S
Co800 N806 2.008 . S
Co800 N811 1.995 . S
Co800 N816 2.282 . S
Co800 N822 2.282 . S
N801 Co800 1.995 . S
N801 C802 1.376 . S
N801 C805 1.381 . S
C802 N801 1.376 . S
C802 C803 1.446 1_545 S
C802 C832 1.391 . S
C803 C802 1.446 1_565 S
C803 C804 1.339 . S
C803 H838 0.949 . S
C804 C803 1.339 . S
C804 C805 1.440 1_565 S
C804 H839 0.950 . S
C805 N801 1.381 . S
C805 C804 1.440 1_545 S
C805 C834 1.393 1_545 S
N806 Co800 2.008 . S
N806 C807 1.376 . S
N806 C810 1.374 . S
C807 N806 1.376 . S
C807 C808 1.443 . S
C807 C834 1.389 1_545 S
C808 C807 1.443 . S
C808 C809 1.340 . S
C808 H840 0.951 1_545 S
C809 C808 1.340 . S
C809 C810 1.439 . S
C809 H841 0.950 . S
C810 N806 1.374 . S
C810 C809 1.439 . S
C810 C835 1.395 . S
N811 Co800 1.995 . S
N811 C812 1.376 . S
N811 C815 1.383 . S
C812 N811 1.376 . S
C812 C813 1.446 . S
C812 C835 1.391 . S
C813 C812 1.446 . S
C813 C814 1.339 . S
C813 H842 0.949 . S
C814 C813 1.339 . S
C814 C815 1.439 . S
C814 H843 0.950 . S
C815 N811 1.383 . S
C815 C814 1.439 . S
C815 C833 1.392 . S
N816 Co800 2.282 . S
N816 C819 1.327 1_545 S
N816 C821 1.332 1_545 S
C817 C818 1.386 . S
C817 C820 1.388 . S
C818 C817 1.386 . S
C818 C819 1.408 . S
C818 H844 0.950 . S
C819 N816 1.327 1_565 S
C819 C818 1.408 . S
C819 H830 0.930 1_565 S
C820 C817 1.388 . S
C820 C821 1.382 . S
C820 H845 0.950 . S
C821 N816 1.332 1_565 S
C821 C820 1.382 . S
C821 H831 0.948 . S
N822 Co800 2.282 . S
N822 C826 1.332 . S
N822 C827 1.332 . S
C823 C824 1.388 . S
C823 C827 1.382 . S
C823 H846 0.950 . S
C824 C823 1.388 . S
C824 C825 1.386 . S
C825 C824 1.386 . S
C825 C826 1.382 . S
C825 H847 0.950 . S
C826 N822 1.332 . S
C826 C825 1.382 . S
C826 H828 0.952 . S
C827 N822 1.332 . S
C827 C823 1.382 . S
C827 H829 0.948 . S
H828 C826 0.952 . S
H829 C827 0.948 . S
H830 C819 0.930 1_545 S
H831 C821 0.948 . S
C832 C798 1.395 . S
C832 C802 1.391 . S
C833 C795 1.389 . S
C833 C815 1.392 . S
C834 C805 1.393 1_565 S
C834 C807 1.389 1_565 S
C835 C810 1.395 . S
C835 C812 1.391 . S
H836 C796 0.951 . S
H837 C797 0.950 . S
H838 C803 0.949 . S
H839 C804 0.950 . S
H840 C808 0.951 1_565 S
H841 C809 0.950 . S
H842 C813 0.949 . S
H843 C814 0.950 . S
H844 C818 0.950 . S
H845 C820 0.950 . S
H846 C823 0.950 . S
H847 C825 0.950 . S
H848 C860 0.930 . S
H849 C862 0.930 . S
H850 C863 0.930 . S
H851 C867 0.959 . S
H852 C867 0.959 . S
H853 C867 0.961 . S
H854 C868 0.960 . S
H855 C868 0.961 . S
H856 C868 0.959 . S
H857 C871 0.929 . S
H858 C872 0.931 . S
H859 C874 0.930 . S
C860 H848 0.930 . S
C860 C861 1.399 1_556 S
C860 C865 1.399 . S
C861 C860 1.399 1_554 S
C861 C862 1.376 . S
C862 H849 0.930 . S
C862 C861 1.376 . S
C862 C863 1.388 . S
C863 H850 0.930 . S
C863 C862 1.388 . S
C863 C864 1.390 . S
C864 C863 1.390 . S
C864 C865 1.394 1_554 S
C864 C870 1.465 . S
C865 C860 1.399 . S
C865 C864 1.394 1_556 S
C865 C866 1.516 . S
C866 C865 1.516 . S
C866 C867 1.502 1_565 S
C866 C868 1.561 . S
C866 C869 1.526 . S
C867 H851 0.959 . S
C867 H852 0.959 . S
C867 H853 0.961 . S
C867 C866 1.502 1_545 S
C868 H854 0.960 . S
C868 H855 0.961 . S
C868 H856 0.959 . S
C868 C866 1.561 . S
C869 C866 1.526 . S
C869 C870 1.396 1_556 S
C869 C874 1.390 1_565 S
C870 C864 1.465 . S
C870 C869 1.396 1_554 S
C870 C871 1.399 . S
C871 H857 0.929 . S
C871 C870 1.399 . S
C871 C872 1.385 1_565 S
C872 H858 0.931 . S
C872 C871 1.385 1_545 S
C872 C873 1.389 1_554 S
C873 C872 1.389 1_556 S
C873 C874 1.387 . S
C874 H859 0.930 . S
C874 C869 1.390 1_545 S
C874 C873 1.387 . S
H875 C887 0.930 . S
H876 C889 0.930 . S
H877 C890 0.930 . S
H878 C894 0.959 . S
H879 C894 0.959 . S
H880 C894 0.961 . S
H881 C895 0.960 . S
H882 C895 0.961 . S
H883 C895 0.959 . S
H884 C898 0.929 . S
H885 C899 0.931 . S
H886 C901 0.930 . S
C887 H875 0.930 . S
C887 C888 1.399 . S
C887 C892 1.399 . S
C888 C887 1.399 . S
C888 C889 1.376 . S
C889 H876 0.930 . S
C889 C888 1.376 . S
C889 C890 1.388 . S
C890 H877 0.930 . S
C890 C889 1.388 . S
C890 C891 1.390 . S
C891 C890 1.390 . S
C891 C892 1.394 . S
C891 C897 1.465 . S
C892 C887 1.399 . S
C892 C891 1.394 . S
C892 C893 1.516 . S
C893 C892 1.516 . S
C893 C894 1.502 . S
C893 C895 1.561 . S
C893 C896 1.526 . S
C894 H878 0.959 . S
C894 H879 0.959 . S
C894 H880 0.961 . S
C894 C893 1.502 . S
C895 H881 0.960 . S
C895 H882 0.961 . S
C895 H883 0.959 . S
C895 C893 1.561 . S
C896 C893 1.526 . S
C896 C897 1.396 . S
C896 C901 1.390 . S
C897 C891 1.465 . S
C897 C896 1.396 . S
C897 C898 1.399 . S
C898 H884 0.929 . S
C898 C897 1.399 . S
C898 C899 1.385 . S
C899 H885 0.931 . S
C899 C898 1.385 . S
C899 C900 1.389 . S
C900 C899 1.389 . S
C900 C901 1.387 . S
C901 H886 0.930 . S
C901 C896 1.390 . S
C901 C900 1.387 . S
H902 C914 0.930 1_545 S
H903 C916 0.930 . S
H904 C917 0.930 1_655 S
H905 C921 0.959 . S
H906 C921 0.959 . S
H907 C921 0.961 . S
H908 C922 0.960 1_565 S
H909 C922 0.961 . S
H910 C922 0.959 1_565 S
H911 C925 0.929 . S
H912 C926 0.931 . S
H913 C928 0.930 . S
C914 H902 0.930 1_565 S
C914 C915 1.399 . S
C914 C919 1.399 1_465 S
C915 C914 1.399 . S
C915 C916 1.376 . S
C916 H903 0.930 . S
C916 C915 1.376 . S
C916 C917 1.388 . S
C917 H904 0.930 1_455 S
C917 C916 1.388 . S
C917 C918 1.390 1_465 S
C918 C917 1.390 1_645 S
C918 C919 1.394 . S
C918 C924 1.465 . S
C919 C914 1.399 1_645 S
C919 C918 1.394 . S
C919 C920 1.516 . S
C920 C919 1.516 . S
C920 C921 1.502 . S
C920 C922 1.561 . S
C920 C923 1.526 . S
C921 H905 0.959 . S
C921 H906 0.959 . S
C921 H907 0.961 . S
C921 C920 1.502 . S
C922 H908 0.960 1_545 S
C922 H909 0.961 . S
C922 H910 0.959 1_545 S
C922 C920 1.561 . S
C923 C920 1.526 . S
C923 C924 1.396 . S
C923 C928 1.390 . S
C924 C918 1.465 . S
C924 C923 1.396 . S
C924 C925 1.399 . S
C925 H911 0.929 . S
C925 C924 1.399 . S
C925 C926 1.385 . S
C926 H912 0.931 . S
C926 C925 1.385 . S
C926 C927 1.389 . S
C927 C926 1.389 . S
C927 C928 1.387 . S
C928 H913 0.930 . S
C928 C923 1.390 . S
C928 C927 1.387 . S
H929 C941 0.930 . S
H930 C943 0.930 . S
H931 C944 0.930 . S
H932 C948 0.959 . S
H933 C948 0.959 . S
H934 C948 0.961 . S
H935 C949 0.960 . S
H936 C949 0.961 . S
H937 C949 0.959 . S
H938 C952 0.929 . S
H939 C953 0.931 . S
H940 C955 0.930 . S
C941 H929 0.930 . S
C941 C942 1.399 . S
C941 C946 1.399 . S
C942 C941 1.399 . S
C942 C943 1.376 . S
C943 H930 0.930 . S
C943 C942 1.376 . S
C943 C944 1.388 . S
C944 H931 0.930 . S
C944 C943 1.388 . S
C944 C945 1.390 . S
C945 C944 1.390 . S
C945 C946 1.394 . S
C945 C951 1.465 . S
C946 C941 1.399 . S
C946 C945 1.394 . S
C946 C947 1.516 . S
C947 C946 1.516 . S
C947 C948 1.502 . S
C947 C949 1.561 . S
C947 C950 1.526 . S
C948 H932 0.959 . S
C948 H933 0.959 . S
C948 H934 0.961 . S
C948 C947 1.502 . S
C949 H935 0.960 . S
C949 H936 0.961 . S
C949 H937 0.959 . S
C949 C947 1.561 . S
C950 C947 1.526 . S
C950 C951 1.396 . S
C950 C955 1.390 . S
C951 C945 1.465 . S
C951 C950 1.396 . S
C951 C952 1.399 . S
C952 H938 0.929 . S
C952 C951 1.399 . S
C952 C953 1.385 . S
C953 H939 0.931 . S
C953 C952 1.385 . S
C953 C954 1.389 . S
C954 C953 1.389 . S
C954 C955 1.387 . S
C955 H940 0.930 . S
C955 C950 1.390 . S
C955 C954 1.387 . S
H956 C968 0.930 . S
H957 C970 0.930 . S
H958 C971 0.930 . S
H959 C975 0.959 . S
H960 C975 0.959 . S
H961 C975 0.961 . S
H962 C976 0.960 . S
H963 C976 0.961 . S
H964 C976 0.959 . S
H965 C979 0.929 . S
H966 C980 0.931 . S
H967 C982 0.930 . S
C968 H956 0.930 . S
C968 C969 1.399 . S
C968 C973 1.399 . S
C969 C968 1.399 . S
C969 C970 1.376 . S
C970 H957 0.930 . S
C970 C969 1.376 . S
C970 C971 1.388 . S
C971 H958 0.930 . S
C971 C970 1.388 . S
C971 C972 1.390 . S
C972 C971 1.390 . S
C972 C973 1.394 . S
C972 C978 1.465 . S
C973 C968 1.399 . S
C973 C972 1.394 . S
C973 C974 1.516 . S
C974 C973 1.516 . S
C974 C975 1.502 . S
C974 C976 1.561 . S
C974 C977 1.526 . S
C975 H959 0.959 . S
C975 H960 0.959 . S
C975 H961 0.961 . S
C975 C974 1.502 . S
C976 H962 0.960 . S
C976 H963 0.961 . S
C976 H964 0.959 . S
C976 C974 1.561 . S
C977 C974 1.526 . S
C977 C978 1.396 . S
C977 C982 1.390 . S
C978 C972 1.465 . S
C978 C977 1.396 . S
C978 C979 1.399 . S
C979 H965 0.929 . S
C979 C978 1.399 . S
C979 C980 1.385 . S
C980 H966 0.931 . S
C980 C979 1.385 . S
C980 C981 1.389 . S
C981 C980 1.389 . S
C981 C982 1.387 . S
C982 H967 0.930 . S
C982 C977 1.390 . S
C982 C981 1.387 . S
H983 C995 0.930 . S
H984 C997 0.930 . S
H985 C998 0.930 . S
H986 C1002 0.959 . S
H987 C1002 0.959 . S
H988 C1002 0.961 . S
H989 C1003 0.960 . S
H990 C1003 0.961 . S
H991 C1003 0.959 . S
H992 C1006 0.929 . S
H993 C1007 0.931 . S
H994 C1009 0.930 . S
C995 H983 0.930 . S
C995 C996 1.399 . S
C995 C1000 1.399 . S
C996 C995 1.399 . S
C996 C997 1.376 . S
C997 H984 0.930 . S
C997 C996 1.376 . S
C997 C998 1.388 . S
C998 H985 0.930 . S
C998 C997 1.388 . S
C998 C999 1.390 . S
C999 C998 1.390 . S
C999 C1000 1.394 . S
C999 C1005 1.465 . S
C1000 C995 1.399 . S
C1000 C999 1.394 . S
C1000 C1001 1.516 . S
C1001 C1000 1.516 . S
C1001 C1002 1.502 . S
C1001 C1003 1.561 . S
C1001 C1004 1.526 . S
C1002 H986 0.959 . S
C1002 H987 0.959 . S
C1002 H988 0.961 . S
C1002 C1001 1.502 . S
C1003 H989 0.960 . S
C1003 H990 0.961 . S
C1003 H991 0.959 . S
C1003 C1001 1.561 . S
C1004 C1001 1.526 . S
C1004 C1005 1.396 . S
C1004 C1009 1.390 . S
C1005 C999 1.465 . S
C1005 C1004 1.396 . S
C1005 C1006 1.399 . S
C1006 H992 0.929 . S
C1006 C1005 1.399 . S
C1006 C1007 1.385 . S
C1007 H993 0.931 . S
C1007 C1006 1.385 . S
C1007 C1008 1.389 . S
C1008 C1007 1.389 . S
C1008 C1009 1.387 . S
C1009 H994 0.930 . S
C1009 C1004 1.390 . S
C1009 C1008 1.387 . S
H1010 C1022 0.930 . S
H1011 C1024 0.930 . S
H1012 C1025 0.930 . S
H1013 C1029 0.959 1_655 S
H1014 C1029 0.959 . S
H1015 C1029 0.961 1_655 S
H1016 C1030 0.960 . S
H1017 C1030 0.961 . S
H1018 C1030 0.959 . S
H1019 C1033 0.929 . S
H1020 C1034 0.931 . S
H1021 C1036 0.930 . S
C1022 H1010 0.930 . S
C1022 C1023 1.399 . S
C1022 C1027 1.399 1_655 S
C1023 C1022 1.399 . S
C1023 C1024 1.376 . S
C1024 H1011 0.930 . S
C1024 C1023 1.376 . S
C1024 C1025 1.388 1_655 S
C1025 H1012 0.930 . S
C1025 C1024 1.388 1_455 S
C1025 C1026 1.390 . S
C1026 C1025 1.390 . S
C1026 C1027 1.394 . S
C1026 C1032 1.465 . S
C1027 C1022 1.399 1_455 S
C1027 C1026 1.394 . S
C1027 C1028 1.516 . S
C1028 C1027 1.516 . S
C1028 C1029 1.502 . S
C1028 C1030 1.561 . S
C1028 C1031 1.526 . S
C1029 H1013 0.959 1_455 S
C1029 H1014 0.959 . S
C1029 H1015 0.961 1_455 S
C1029 C1028 1.502 . S
C1030 H1016 0.960 . S
C1030 H1017 0.961 . S
C1030 H1018 0.959 . S
C1030 C1028 1.561 . S
C1031 C1028 1.526 . S
C1031 C1032 1.396 . S
C1031 C1036 1.390 . S
C1032 C1026 1.465 . S
C1032 C1031 1.396 . S
C1032 C1033 1.399 . S
C1033 H1019 0.929 . S
C1033 C1032 1.399 . S
C1033 C1034 1.385 . S
C1034 H1020 0.931 . S
C1034 C1033 1.385 . S
C1034 C1035 1.389 . S
C1035 C1034 1.389 . S
C1035 C1036 1.387 . S
C1036 H1021 0.930 . S
C1036 C1031 1.390 . S
C1036 C1035 1.387 . S
H1037 C1049 0.930 1_556 S
H1038 C1051 0.930 . S
H1039 C1052 0.930 . S
H1040 C1056 0.959 . S
H1041 C1056 0.959 . S
H1042 C1056 0.961 . S
H1043 C1057 0.960 . S
H1044 C1057 0.961 . S
H1045 C1057 0.959 . S
H1046 C1060 0.929 . S
H1047 C1061 0.931 . S
H1048 C1063 0.930 . S
C1049 H1037 0.930 1_554 S
C1049 C1050 1.399 . S
C1049 C1054 1.399 . S
C1050 C1049 1.399 . S
C1050 C1051 1.376 . S
C1051 H1038 0.930 . S
C1051 C1050 1.376 . S
C1051 C1052 1.388 . S
C1052 H1039 0.930 . S
C1052 C1051 1.388 . S
C1052 C1053 1.390 . S
C1053 C1052 1.390 . S
C1053 C1054 1.394 . S
C1053 C1059 1.465 . S
C1054 C1049 1.399 . S
C1054 C1053 1.394 . S
C1054 C1055 1.516 1_554 S
C1055 C1054 1.516 1_556 S
C1055 C1056 1.502 . S
C1055 C1057 1.561 1_556 S
C1055 C1058 1.526 . S
C1056 H1040 0.959 . S
C1056 H1041 0.959 . S
C1056 H1042 0.961 . S
C1056 C1055 1.502 . S
C1057 H1043 0.960 . S
C1057 H1044 0.961 . S
C1057 H1045 0.959 . S
C1057 C1055 1.561 1_554 S
C1058 C1055 1.526 . S
C1058 C1059 1.396 1_556 S
C1058 C1063 1.390 . S
C1059 C1053 1.465 . S
C1059 C1058 1.396 1_554 S
C1059 C1060 1.399 . S
C1060 H1046 0.929 . S
C1060 C1059 1.399 . S
C1060 C1061 1.385 1_554 S
C1061 H1047 0.931 . S
C1061 C1060 1.385 1_556 S
C1061 C1062 1.389 . S
C1062 C1061 1.389 . S
C1062 C1063 1.387 . S
C1063 H1048 0.930 . S
C1063 C1058 1.390 . S
C1063 C1062 1.387 . S
H1064 C1076 0.930 . S
H1065 C1078 0.930 . S
H1066 C1079 0.930 . S
H1067 C1083 0.959 . S
H1068 C1083 0.959 . S
H1069 C1083 0.961 . S
H1070 C1084 0.960 . S
H1071 C1084 0.961 . S
H1072 C1084 0.959 . S
H1073 C1087 0.929 . S
H1074 C1088 0.931 . S
H1075 C1090 0.930 . S
C1076 H1064 0.930 . S
C1076 C1077 1.399 . S
C1076 C1081 1.399 . S
C1077 C1076 1.399 . S
C1077 C1078 1.376 . S
C1078 H1065 0.930 . S
C1078 C1077 1.376 . S
C1078 C1079 1.388 . S
C1079 H1066 0.930 . S
C1079 C1078 1.388 . S
C1079 C1080 1.390 . S
C1080 C1079 1.390 . S
C1080 C1081 1.394 . S
C1080 C1086 1.465 . S
C1081 C1076 1.399 . S
C1081 C1080 1.394 . S
C1081 C1082 1.516 . S
C1082 C1081 1.516 . S
C1082 C1083 1.502 . S
C1082 C1084 1.561 . S
C1082 C1085 1.526 . S
C1083 H1067 0.959 . S
C1083 H1068 0.959 . S
C1083 H1069 0.961 . S
C1083 C1082 1.502 . S
C1084 H1070 0.960 . S
C1084 H1071 0.961 . S
C1084 H1072 0.959 . S
C1084 C1082 1.561 . S
C1085 C1082 1.526 . S
C1085 C1086 1.396 . S
C1085 C1090 1.390 . S
C1086 C1080 1.465 . S
C1086 C1085 1.396 . S
C1086 C1087 1.399 . S
C1087 H1073 0.929 . S
C1087 C1086 1.399 . S
C1087 C1088 1.385 . S
C1088 H1074 0.931 . S
C1088 C1087 1.385 . S
C1088 C1089 1.389 . S
C1089 C1088 1.389 . S
C1089 C1090 1.387 . S
C1090 H1075 0.930 . S
C1090 C1085 1.390 . S
C1090 C1089 1.387 . S
H1091 C1103 0.930 . S
H1092 C1105 0.930 . S
H1093 C1106 0.930 . S
H1094 C1110 0.959 . S
H1095 C1110 0.959 . S
H1096 C1110 0.961 . S
H1097 C1111 0.960 . S
H1098 C1111 0.961 . S
H1099 C1111 0.959 . S
H1100 C1114 0.929 . S
H1101 C1115 0.931 . S
H1102 C1117 0.930 . S
C1103 H1091 0.930 . S
C1103 C1104 1.399 . S
C1103 C1108 1.399 . S
C1104 C1103 1.399 . S
C1104 C1105 1.376 . S
C1105 H1092 0.930 . S
C1105 C1104 1.376 . S
C1105 C1106 1.388 . S
C1106 H1093 0.930 . S
C1106 C1105 1.388 . S
C1106 C1107 1.390 . S
C1107 C1106 1.390 . S
C1107 C1108 1.394 . S
C1107 C1113 1.465 . S
C1108 C1103 1.399 . S
C1108 C1107 1.394 . S
C1108 C1109 1.516 . S
C1109 C1108 1.516 . S
C1109 C1110 1.502 . S
C1109 C1111 1.561 . S
C1109 C1112 1.526 . S
C1110 H1094 0.959 . S
C1110 H1095 0.959 . S
C1110 H1096 0.961 . S
C1110 C1109 1.502 . S
C1111 H1097 0.960 . S
C1111 H1098 0.961 . S
C1111 H1099 0.959 . S
C1111 C1109 1.561 . S
C1112 C1109 1.526 . S
C1112 C1113 1.396 . S
C1112 C1117 1.390 . S
C1113 C1107 1.465 . S
C1113 C1112 1.396 . S
C1113 C1114 1.399 . S
C1114 H1100 0.929 . S
C1114 C1113 1.399 . S
C1114 C1115 1.385 . S
C1115 H1101 0.931 . S
C1115 C1114 1.385 . S
C1115 C1116 1.389 . S
C1116 C1115 1.389 . S
C1116 C1117 1.387 . S
C1117 H1102 0.930 . S
C1117 C1112 1.390 . S
C1117 C1116 1.387 . S
H1118 C1130 0.930 . S
H1119 C1132 0.930 . S
H1120 C1133 0.930 . S
H1121 C1137 0.959 . S
H1122 C1137 0.959 . S
H1123 C1137 0.961 . S
H1124 C1138 0.960 . S
H1125 C1138 0.961 . S
H1126 C1138 0.959 . S
H1127 C1141 0.929 . S
H1128 C1142 0.931 . S
H1129 C1144 0.930 . S
C1130 H1118 0.930 . S
C1130 C1131 1.399 . S
C1130 C1135 1.399 . S
C1131 C1130 1.399 . S
C1131 C1132 1.376 . S
C1132 H1119 0.930 . S
C1132 C1131 1.376 . S
C1132 C1133 1.388 . S
C1133 H1120 0.930 . S
C1133 C1132 1.388 . S
C1133 C1134 1.390 . S
C1134 C1133 1.390 . S
C1134 C1135 1.394 . S
C1134 C1140 1.465 . S
C1135 C1130 1.399 . S
C1135 C1134 1.394 . S
C1135 C1136 1.516 . S
C1136 C1135 1.516 . S
C1136 C1137 1.502 . S
C1136 C1138 1.561 . S
C1136 C1139 1.526 . S
C1137 H1121 0.959 . S
C1137 H1122 0.959 . S
C1137 H1123 0.961 . S
C1137 C1136 1.502 . S
C1138 H1124 0.960 . S
C1138 H1125 0.961 . S
C1138 H1126 0.959 . S
C1138 C1136 1.561 . S
C1139 C1136 1.526 . S
C1139 C1140 1.396 . S
C1139 C1144 1.390 . S
C1140 C1134 1.465 . S
C1140 C1139 1.396 . S
C1140 C1141 1.399 . S
C1141 H1127 0.929 . S
C1141 C1140 1.399 . S
C1141 C1142 1.385 . S
C1142 H1128 0.931 . S
C1142 C1141 1.385 . S
C1142 C1143 1.389 . S
C1143 C1142 1.389 . S
C1143 C1144 1.387 . S
C1144 H1129 0.930 . S
C1144 C1139 1.390 . S
C1144 C1143 1.387 . S
H1145 C1157 0.930 . S
H1146 C1159 0.930 . S
H1147 C1160 0.930 . S
H1148 C1164 0.959 . S
H1149 C1164 0.959 . S
H1150 C1164 0.961 1_655 S
H1151 C1165 0.960 . S
H1152 C1165 0.961 . S
H1153 C1165 0.959 . S
H1154 C1168 0.929 . S
H1155 C1169 0.931 . S
H1156 C1171 0.930 . S
C1157 H1145 0.930 . S
C1157 C1158 1.399 . S
C1157 C1162 1.399 1_655 S
C1158 C1157 1.399 . S
C1158 C1159 1.376 1_655 S
C1159 H1146 0.930 . S
C1159 C1158 1.376 1_455 S
C1159 C1160 1.388 . S
C1160 H1147 0.930 . S
C1160 C1159 1.388 . S
C1160 C1161 1.390 . S
C1161 C1160 1.390 . S
C1161 C1162 1.394 . S
C1161 C1167 1.465 . S
C1162 C1157 1.399 1_455 S
C1162 C1161 1.394 . S
C1162 C1163 1.516 . S
C1163 C1162 1.516 . S
C1163 C1164 1.502 . S
C1163 C1165 1.561 . S
C1163 C1166 1.526 . S
C1164 H1148 0.959 . S
C1164 H1149 0.959 . S
C1164 H1150 0.961 1_455 S
C1164 C1163 1.502 . S
C1165 H1151 0.960 . S
C1165 H1152 0.961 . S
C1165 H1153 0.959 . S
C1165 C1163 1.561 . S
C1166 C1163 1.526 . S
C1166 C1167 1.396 . S
C1166 C1171 1.390 . S
C1167 C1161 1.465 . S
C1167 C1166 1.396 . S
C1167 C1168 1.399 . S
C1168 H1154 0.929 . S
C1168 C1167 1.399 . S
C1168 C1169 1.385 . S
C1169 H1155 0.931 . S
C1169 C1168 1.385 . S
C1169 C1170 1.389 . S
C1170 C1169 1.389 . S
C1170 C1171 1.387 . S
C1171 H1156 0.930 . S
C1171 C1166 1.390 . S
C1171 C1170 1.387 . S
H1172 C1184 0.930 . S
H1173 C1186 0.930 . S
H1174 C1187 0.930 . S
H1175 C1191 0.959 . S
H1176 C1191 0.959 . S
H1177 C1191 0.961 . S
H1178 C1192 0.960 . S
H1179 C1192 0.961 . S
H1180 C1192 0.959 . S
H1181 C1195 0.929 . S
H1182 C1196 0.931 . S
H1183 C1198 0.930 . S
C1184 H1172 0.930 . S
C1184 C1185 1.399 . S
C1184 C1189 1.399 . S
C1185 C1184 1.399 . S
C1185 C1186 1.376 . S
C1186 H1173 0.930 . S
C1186 C1185 1.376 . S
C1186 C1187 1.388 . S
C1187 H1174 0.930 . S
C1187 C1186 1.388 . S
C1187 C1188 1.390 . S
C1188 C1187 1.390 . S
C1188 C1189 1.394 . S
C1188 C1194 1.465 . S
C1189 C1184 1.399 . S
C1189 C1188 1.394 . S
C1189 C1190 1.516 . S
C1190 C1189 1.516 . S
C1190 C1191 1.502 . S
C1190 C1192 1.561 . S
C1190 C1193 1.526 . S
C1191 H1175 0.959 . S
C1191 H1176 0.959 . S
C1191 H1177 0.961 . S
C1191 C1190 1.502 . S
C1192 H1178 0.960 . S
C1192 H1179 0.961 . S
C1192 H1180 0.959 . S
C1192 C1190 1.561 . S
C1193 C1190 1.526 . S
C1193 C1194 1.396 . S
C1193 C1198 1.390 . S
C1194 C1188 1.465 . S
C1194 C1193 1.396 . S
C1194 C1195 1.399 . S
C1195 H1181 0.929 . S
C1195 C1194 1.399 . S
C1195 C1196 1.385 . S
C1196 H1182 0.931 . S
C1196 C1195 1.385 . S
C1196 C1197 1.389 . S
C1197 C1196 1.389 . S
C1197 C1198 1.387 . S
C1198 H1183 0.930 . S
C1198 C1193 1.390 . S
C1198 C1197 1.387 . S
H1199 C1211 0.930 . S
H1200 C1213 0.930 . S
H1201 C1214 0.930 . S
H1202 C1218 0.959 . S
H1203 C1218 0.959 . S
H1204 C1218 0.961 . S
H1205 C1219 0.960 . S
H1206 C1219 0.961 . S
H1207 C1219 0.959 . S
H1208 C1222 0.929 . S
H1209 C1223 0.931 . S
H1210 C1225 0.930 . S
C1211 H1199 0.930 . S
C1211 C1212 1.399 . S
C1211 C1216 1.399 . S
C1212 C1211 1.399 . S
C1212 C1213 1.376 . S
C1213 H1200 0.930 . S
C1213 C1212 1.376 . S
C1213 C1214 1.388 . S
C1214 H1201 0.930 . S
C1214 C1213 1.388 . S
C1214 C1215 1.390 . S
C1215 C1214 1.390 . S
C1215 C1216 1.394 . S
C1215 C1221 1.465 . S
C1216 C1211 1.399 . S
C1216 C1215 1.394 . S
C1216 C1217 1.516 . S
C1217 C1216 1.516 . S
C1217 C1218 1.502 . S
C1217 C1219 1.561 . S
C1217 C1220 1.526 . S
C1218 H1202 0.959 . S
C1218 H1203 0.959 . S
C1218 H1204 0.961 . S
C1218 C1217 1.502 . S
C1219 H1205 0.960 . S
C1219 H1206 0.961 . S
C1219 H1207 0.959 . S
C1219 C1217 1.561 . S
C1220 C1217 1.526 . S
C1220 C1221 1.396 . S
C1220 C1225 1.390 . S
C1221 C1215 1.465 . S
C1221 C1220 1.396 . S
C1221 C1222 1.399 . S
C1222 H1208 0.929 . S
C1222 C1221 1.399 . S
C1222 C1223 1.385 . S
C1223 H1209 0.931 . S
C1223 C1222 1.385 . S
C1223 C1224 1.389 . S
C1224 C1223 1.389 . S
C1224 C1225 1.387 . S
C1225 H1210 0.930 . S
C1225 C1220 1.390 . S
C1225 C1224 1.387 . S
H1226 C1238 0.930 . S
H1227 C1240 0.930 . S
H1228 C1241 0.930 . S
H1229 C1245 0.959 . S
H1230 C1245 0.959 . S
H1231 C1245 0.961 . S
H1232 C1246 0.960 . S
H1233 C1246 0.961 . S
H1234 C1246 0.959 . S
H1235 C1249 0.929 . S
H1236 C1250 0.931 . S
H1237 C1252 0.930 . S
C1238 H1226 0.930 . S
C1238 C1239 1.399 . S
C1238 C1243 1.399 . S
C1239 C1238 1.399 . S
C1239 C1240 1.376 . S
C1240 H1227 0.930 . S
C1240 C1239 1.376 . S
C1240 C1241 1.388 . S
C1241 H1228 0.930 . S
C1241 C1240 1.388 . S
C1241 C1242 1.390 . S
C1242 C1241 1.390 . S
C1242 C1243 1.394 . S
C1242 C1248 1.465 . S
C1243 C1238 1.399 . S
C1243 C1242 1.394 . S
C1243 C1244 1.516 . S
C1244 C1243 1.516 . S
C1244 C1245 1.502 . S
C1244 C1246 1.561 . S
C1244 C1247 1.526 . S
C1245 H1229 0.959 . S
C1245 H1230 0.959 . S
C1245 H1231 0.961 . S
C1245 C1244 1.502 . S
C1246 H1232 0.960 . S
C1246 H1233 0.961 . S
C1246 H1234 0.959 . S
C1246 C1244 1.561 . S
C1247 C1244 1.526 . S
C1247 C1248 1.396 . S
C1247 C1252 1.390 . S
C1248 C1242 1.465 . S
C1248 C1247 1.396 . S
C1248 C1249 1.399 . S
C1249 H1235 0.929 . S
C1249 C1248 1.399 . S
C1249 C1250 1.385 . S
C1250 H1236 0.931 . S
C1250 C1249 1.385 . S
C1250 C1251 1.389 . S
C1251 C1250 1.389 . S
C1251 C1252 1.387 . S
C1252 H1237 0.930 . S
C1252 C1247 1.390 . S
C1252 C1251 1.387 . S
H1253 C1265 0.930 . S
H1254 C1267 0.930 . S
H1255 C1268 0.930 . S
H1256 C1272 0.959 . S
H1257 C1272 0.959 . S
H1258 C1272 0.961 . S
H1259 C1273 0.960 . S
H1260 C1273 0.961 . S
H1261 C1273 0.959 . S
H1262 C1276 0.929 . S
H1263 C1277 0.931 . S
H1264 C1279 0.930 . S
C1265 H1253 0.930 . S
C1265 C1266 1.399 . S
C1265 C1270 1.399 . S
C1266 C1265 1.399 . S
C1266 C1267 1.376 . S
C1267 H1254 0.930 . S
C1267 C1266 1.376 . S
C1267 C1268 1.388 . S
C1268 H1255 0.930 . S
C1268 C1267 1.388 . S
C1268 C1269 1.390 . S
C1269 C1268 1.390 . S
C1269 C1270 1.394 . S
C1269 C1275 1.465 . S
C1270 C1265 1.399 . S
C1270 C1269 1.394 . S
C1270 C1271 1.516 . S
C1271 C1270 1.516 . S
C1271 C1272 1.502 . S
C1271 C1273 1.561 . S
C1271 C1274 1.526 . S
C1272 H1256 0.959 . S
C1272 H1257 0.959 . S
C1272 H1258 0.961 . S
C1272 C1271 1.502 . S
C1273 H1259 0.960 . S
C1273 H1260 0.961 . S
C1273 H1261 0.959 . S
C1273 C1271 1.561 . S
C1274 C1271 1.526 . S
C1274 C1275 1.396 . S
C1274 C1279 1.390 . S
C1275 C1269 1.465 . S
C1275 C1274 1.396 . S
C1275 C1276 1.399 . S
C1276 H1262 0.929 . S
C1276 C1275 1.399 . S
C1276 C1277 1.385 . S
C1277 H1263 0.931 . S
C1277 C1276 1.385 . S
C1277 C1278 1.389 . S
C1278 C1277 1.389 . S
C1278 C1279 1.387 . S
C1279 H1264 0.930 . S
C1279 C1274 1.390 . S
C1279 C1278 1.387 . S
H1280 C1292 0.930 . S
H1281 C1294 0.930 . S
H1282 C1295 0.930 . S
H1283 C1299 0.959 . S
H1284 C1299 0.959 . S
H1285 C1299 0.961 . S
H1286 C1300 0.960 . S
H1287 C1300 0.961 . S
H1288 C1300 0.959 . S
H1289 C1303 0.929 . S
H1290 C1304 0.931 . S
H1291 C1306 0.930 . S
C1292 H1280 0.930 . S
C1292 C1293 1.399 . S
C1292 C1297 1.399 . S
C1293 C1292 1.399 . S
C1293 C1294 1.376 . S
C1294 H1281 0.930 . S
C1294 C1293 1.376 . S
C1294 C1295 1.388 . S
C1295 H1282 0.930 . S
C1295 C1294 1.388 . S
C1295 C1296 1.390 . S
C1296 C1295 1.390 . S
C1296 C1297 1.394 . S
C1296 C1302 1.465 . S
C1297 C1292 1.399 . S
C1297 C1296 1.394 . S
C1297 C1298 1.516 . S
C1298 C1297 1.516 . S
C1298 C1299 1.502 . S
C1298 C1300 1.561 . S
C1298 C1301 1.526 . S
C1299 H1283 0.959 . S
C1299 H1284 0.959 . S
C1299 H1285 0.961 . S
C1299 C1298 1.502 . S
C1300 H1286 0.960 . S
C1300 H1287 0.961 . S
C1300 H1288 0.959 . S
C1300 C1298 1.561 . S
C1301 C1298 1.526 . S
C1301 C1302 1.396 . S
C1301 C1306 1.390 . S
C1302 C1296 1.465 . S
C1302 C1301 1.396 . S
C1302 C1303 1.399 . S
C1303 H1289 0.929 . S
C1303 C1302 1.399 . S
C1303 C1304 1.385 . S
C1304 H1290 0.931 . S
C1304 C1303 1.385 . S
C1304 C1305 1.389 . S
C1305 C1304 1.389 . S
C1305 C1306 1.387 . S
C1306 H1291 0.930 . S
C1306 C1301 1.390 . S
C1306 C1305 1.387 . S
H1307 C1319 0.930 . S
H1308 C1321 0.930 . S
H1309 C1322 0.930 . S
H1310 C1326 0.959 . S
H1311 C1326 0.959 1_455 S
H1312 C1326 0.961 . S
H1313 C1327 0.960 . S
H1314 C1327 0.961 1_455 S
H1315 C1327 0.959 . S
H1316 C1330 0.929 . S
H1317 C1331 0.931 . S
H1318 C1333 0.930 . S
C1319 H1307 0.930 . S
C1319 C1320 1.399 . S
C1319 C1324 1.399 . S
C1320 C1319 1.399 . S
C1320 C1321 1.376 . S
C1321 H1308 0.930 . S
C1321 C1320 1.376 . S
C1321 C1322 1.388 . S
C1322 H1309 0.930 . S
C1322 C1321 1.388 . S
C1322 C1323 1.390 . S
C1323 C1322 1.390 . S
C1323 C1324 1.394 . S
C1323 C1329 1.465 . S
C1324 C1319 1.399 . S
C1324 C1323 1.394 . S
C1324 C1325 1.516 . S
C1325 C1324 1.516 . S
C1325 C1326 1.502 . S
C1325 C1327 1.561 . S
C1325 C1328 1.526 . S
C1326 H1310 0.959 . S
C1326 H1311 0.959 1_655 S
C1326 H1312 0.961 . S
C1326 C1325 1.502 . S
C1327 H1313 0.960 . S
C1327 H1314 0.961 1_655 S
C1327 H1315 0.959 . S
C1327 C1325 1.561 . S
C1328 C1325 1.526 . S
C1328 C1329 1.396 . S
C1328 C1333 1.390 1_655 S
C1329 C1323 1.465 . S
C1329 C1328 1.396 . S
C1329 C1330 1.399 . S
C1330 H1316 0.929 . S
C1330 C1329 1.399 . S
C1330 C1331 1.385 . S
C1331 H1317 0.931 . S
C1331 C1330 1.385 . S
C1331 C1332 1.389 1_655 S
C1332 C1331 1.389 1_455 S
C1332 C1333 1.387 . S
C1333 H1318 0.930 . S
C1333 C1328 1.390 1_455 S
C1333 C1332 1.387 . S
H1334 C1346 0.930 . S
H1335 C1348 0.930 . S
H1336 C1349 0.930 . S
H1337 C1353 0.959 . S
H1338 C1353 0.959 . S
H1339 C1353 0.961 . S
H1340 C1354 0.960 . S
H1341 C1354 0.961 . S
H1342 C1354 0.959 . S
H1343 C1357 0.929 . S
H1344 C1358 0.931 . S
H1345 C1360 0.930 . S
C1346 H1334 0.930 . S
C1346 C1347 1.399 . S
C1346 C1351 1.399 . S
C1347 C1346 1.399 . S
C1347 C1348 1.376 . S
C1348 H1335 0.930 . S
C1348 C1347 1.376 . S
C1348 C1349 1.388 . S
C1349 H1336 0.930 . S
C1349 C1348 1.388 . S
C1349 C1350 1.390 . S
C1350 C1349 1.390 . S
C1350 C1351 1.394 . S
C1350 C1356 1.465 . S
C1351 C1346 1.399 . S
C1351 C1350 1.394 . S
C1351 C1352 1.516 . S
C1352 C1351 1.516 . S
C1352 C1353 1.502 . S
C1352 C1354 1.561 . S
C1352 C1355 1.526 . S
C1353 H1337 0.959 . S
C1353 H1338 0.959 . S
C1353 H1339 0.961 . S
C1353 C1352 1.502 . S
C1354 H1340 0.960 . S
C1354 H1341 0.961 . S
C1354 H1342 0.959 . S
C1354 C1352 1.561 . S
C1355 C1352 1.526 . S
C1355 C1356 1.396 . S
C1355 C1360 1.390 . S
C1356 C1350 1.465 . S
C1356 C1355 1.396 . S
C1356 C1357 1.399 . S
C1357 H1343 0.929 . S
C1357 C1356 1.399 . S
C1357 C1358 1.385 . S
C1358 H1344 0.931 . S
C1358 C1357 1.385 . S
C1358 C1359 1.389 . S
C1359 C1358 1.389 . S
C1359 C1360 1.387 . S
C1360 H1345 0.930 . S
C1360 C1355 1.390 . S
C1360 C1359 1.387 . S
H1361 C1373 0.930 . S
H1362 C1375 0.930 . S
H1363 C1376 0.930 1_565 S
H1364 C1380 0.959 . S
H1365 C1380 0.959 . S
H1366 C1380 0.961 . S
H1367 C1381 0.960 . S
H1368 C1381 0.961 . S
H1369 C1381 0.959 . S
H1370 C1384 0.929 . S
H1371 C1385 0.931 . S
H1372 C1387 0.930 . S
C1373 H1361 0.930 . S
C1373 C1374 1.399 . S
C1373 C1378 1.399 . S
C1374 C1373 1.399 . S
C1374 C1375 1.376 1_545 S
C1375 H1362 0.930 . S
C1375 C1374 1.376 1_565 S
C1375 C1376 1.388 1_565 S
C1376 H1363 0.930 1_545 S
C1376 C1375 1.388 1_545 S
C1376 C1377 1.390 . S
C1377 C1376 1.390 . S
C1377 C1378 1.394 . S
C1377 C1383 1.465 . S
C1378 C1373 1.399 . S
C1378 C1377 1.394 . S
C1378 C1379 1.516 . S
C1379 C1378 1.516 . S
C1379 C1380 1.502 . S
C1379 C1381 1.561 . S
C1379 C1382 1.526 . S
C1380 H1364 0.959 . S
C1380 H1365 0.959 . S
C1380 H1366 0.961 . S
C1380 C1379 1.502 . S
C1381 H1367 0.960 . S
C1381 H1368 0.961 . S
C1381 H1369 0.959 . S
C1381 C1379 1.561 . S
C1382 C1379 1.526 . S
C1382 C1383 1.396 . S
C1382 C1387 1.390 . S
C1383 C1377 1.465 . S
C1383 C1382 1.396 . S
C1383 C1384 1.399 . S
C1384 H1370 0.929 . S
C1384 C1383 1.399 . S
C1384 C1385 1.385 . S
C1385 H1371 0.931 . S
C1385 C1384 1.385 . S
C1385 C1386 1.389 . S
C1386 C1385 1.389 . S
C1386 C1387 1.387 . S
C1387 H1372 0.930 . S
C1387 C1382 1.390 . S
C1387 C1386 1.387 . S
H1388 C1400 0.930 . S
H1389 C1402 0.930 . S
H1390 C1403 0.930 . S
H1391 C1407 0.959 . S
H1392 C1407 0.959 . S
H1393 C1407 0.961 . S
H1394 C1408 0.960 . S
H1395 C1408 0.961 . S
H1396 C1408 0.959 . S
H1397 C1411 0.929 . S
H1398 C1412 0.931 . S
H1399 C1414 0.930 . S
C1400 H1388 0.930 . S
C1400 C1401 1.399 . S
C1400 C1405 1.399 . S
C1401 C1400 1.399 . S
C1401 C1402 1.376 . S
C1402 H1389 0.930 . S
C1402 C1401 1.376 . S
C1402 C1403 1.388 . S
C1403 H1390 0.930 . S
C1403 C1402 1.388 . S
C1403 C1404 1.390 . S
C1404 C1403 1.390 . S
C1404 C1405 1.394 . S
C1404 C1410 1.465 . S
C1405 C1400 1.399 . S
C1405 C1404 1.394 . S
C1405 C1406 1.516 . S
C1406 C1405 1.516 . S
C1406 C1407 1.502 . S
C1406 C1408 1.561 . S
C1406 C1409 1.526 . S
C1407 H1391 0.959 . S
C1407 H1392 0.959 . S
C1407 H1393 0.961 . S
C1407 C1406 1.502 . S
C1408 H1394 0.960 . S
C1408 H1395 0.961 . S
C1408 H1396 0.959 . S
C1408 C1406 1.561 . S
C1409 C1406 1.526 . S
C1409 C1410 1.396 . S
C1409 C1414 1.390 . S
C1410 C1404 1.465 . S
C1410 C1409 1.396 . S
C1410 C1411 1.399 . S
C1411 H1397 0.929 . S
C1411 C1410 1.399 . S
C1411 C1412 1.385 . S
C1412 H1398 0.931 . S
C1412 C1411 1.385 . S
C1412 C1413 1.389 . S
C1413 C1412 1.389 . S
C1413 C1414 1.387 . S
C1414 H1399 0.930 . S
C1414 C1409 1.390 . S
C1414 C1413 1.387 . S
H1415 C1427 0.930 1_565 S
H1416 C1429 0.930 . S
H1417 C1430 0.930 . S
H1418 C1434 0.959 . S
H1419 C1434 0.949 1_565 S
H1420 C1434 0.961 1_565 S
H1421 C1435 0.960 . S
H1422 C1435 0.961 . S
H1423 C1435 0.959 1_545 S
H1424 C1438 0.929 . S
H1425 C1439 0.931 . S
H1426 C1441 0.930 . S
C1427 H1415 0.930 1_545 S
C1427 C1428 1.399 . S
C1427 C1432 1.399 . S
C1428 C1427 1.399 . S
C1428 C1429 1.376 . S
C1429 H1416 0.930 . S
C1429 C1428 1.376 . S
C1429 C1430 1.388 . S
C1430 H1417 0.930 . S
C1430 C1429 1.388 . S
C1430 C1431 1.390 . S
C1431 C1430 1.390 . S
C1431 C1432 1.394 . S
C1431 C1437 1.465 . S
C1432 C1427 1.399 . S
C1432 C1431 1.394 . S
C1432 C1433 1.516 . S
C1433 C1432 1.516 . S
C1433 C1434 1.502 . S
C1433 C1435 1.561 1_545 S
C1433 C1436 1.526 . S
C1434 H1418 0.959 . S
C1434 H1419 0.949 1_545 S
C1434 H1420 0.961 1_545 S
C1434 C1433 1.502 . S
C1435 H1421 0.960 . S
C1435 H1422 0.961 . S
C1435 H1423 0.959 1_565 S
C1435 C1433 1.561 1_565 S
C1436 C1433 1.526 . S
C1436 C1437 1.396 . S
C1436 C1441 1.390 . S
C1437 C1431 1.465 . S
C1437 C1436 1.396 . S
C1437 C1438 1.399 . S
C1438 H1424 0.929 . S
C1438 C1437 1.399 . S
C1438 C1439 1.385 . S
C1439 H1425 0.931 . S
C1439 C1438 1.385 . S
C1439 C1440 1.389 . S
C1440 C1439 1.389 . S
C1440 C1441 1.387 . S
C1441 H1426 0.930 . S
C1441 C1436 1.390 . S
C1441 C1440 1.387 . S
H1442 C1454 0.930 . S
H1443 C1456 0.930 . S
H1444 C1457 0.930 . S
H1445 C1461 0.959 . S
H1446 C1461 0.959 . S
H1447 C1461 0.961 . S
H1448 C1462 0.960 . S
H1449 C1462 0.961 . S
H1450 C1462 0.959 . S
H1451 C1465 0.929 . S
H1452 C1466 0.931 . S
H1453 C1468 0.930 . S
C1454 H1442 0.930 . S
C1454 C1455 1.399 . S
C1454 C1459 1.399 . S
C1455 C1454 1.399 . S
C1455 C1456 1.376 . S
C1456 H1443 0.930 . S
C1456 C1455 1.376 . S
C1456 C1457 1.388 . S
C1457 H1444 0.930 . S
C1457 C1456 1.388 . S
C1457 C1458 1.390 . S
C1458 C1457 1.390 . S
C1458 C1459 1.394 . S
C1458 C1464 1.465 . S
C1459 C1454 1.399 . S
C1459 C1458 1.394 . S
C1459 C1460 1.516 . S
C1460 C1459 1.516 . S
C1460 C1461 1.502 . S
C1460 C1462 1.561 . S
C1460 C1463 1.526 . S
C1461 H1445 0.959 . S
C1461 H1446 0.959 . S
C1461 H1447 0.961 . S
C1461 C1460 1.502 . S
C1462 H1448 0.960 . S
C1462 H1449 0.961 . S
C1462 H1450 0.959 . S
C1462 C1460 1.561 . S
C1463 C1460 1.526 . S
C1463 C1464 1.396 . S
C1463 C1468 1.390 . S
C1464 C1458 1.465 . S
C1464 C1463 1.396 . S
C1464 C1465 1.399 . S
C1465 H1451 0.929 . S
C1465 C1464 1.399 . S
C1465 C1466 1.385 . S
C1466 H1452 0.931 . S
C1466 C1465 1.385 . S
C1466 C1467 1.389 . S
C1467 C1466 1.389 . S
C1467 C1468 1.387 . S
C1468 H1453 0.930 . S
C1468 C1463 1.390 . S
C1468 C1467 1.387 . S
H1469 C1481 0.930 . S
H1470 C1483 0.930 . S
H1471 C1484 0.930 . S
H1472 C1488 0.959 . S
H1473 C1488 0.959 . S
H1474 C1488 0.961 . S
H1475 C1489 0.960 . S
H1476 C1489 0.961 . S
H1477 C1489 0.959 . S
H1478 C1492 0.929 . S
H1479 C1493 0.931 . S
H1480 C1495 0.930 . S
C1481 H1469 0.930 . S
C1481 C1482 1.399 . S
C1481 C1486 1.399 . S
C1482 C1481 1.399 . S
C1482 C1483 1.376 . S
C1483 H1470 0.930 . S
C1483 C1482 1.376 . S
C1483 C1484 1.388 . S
C1484 H1471 0.930 . S
C1484 C1483 1.388 . S
C1484 C1485 1.390 . S
C1485 C1484 1.390 . S
C1485 C1486 1.394 . S
C1485 C1491 1.465 . S
C1486 C1481 1.399 . S
C1486 C1485 1.394 . S
C1486 C1487 1.516 . S
C1487 C1486 1.516 . S
C1487 C1488 1.502 . S
C1487 C1489 1.561 1_565 S
C1487 C1490 1.526 . S
C1488 H1472 0.959 . S
C1488 H1473 0.959 . S
C1488 H1474 0.961 . S
C1488 C1487 1.502 . S
C1489 H1475 0.960 . S
C1489 H1476 0.961 . S
C1489 H1477 0.959 . S
C1489 C1487 1.561 1_545 S
C1490 C1487 1.526 . S
C1490 C1491 1.396 . S
C1490 C1495 1.390 . S
C1491 C1485 1.465 . S
C1491 C1490 1.396 . S
C1491 C1492 1.399 . S
C1492 H1478 0.929 . S
C1492 C1491 1.399 . S
C1492 C1493 1.385 . S
C1493 H1479 0.931 . S
C1493 C1492 1.385 . S
C1493 C1494 1.389 . S
C1494 C1493 1.389 . S
C1494 C1495 1.387 . S
C1495 H1480 0.930 . S
C1495 C1490 1.390 . S
C1495 C1494 1.387 . S
H1496 C1508 0.930 . S
H1497 C1510 0.930 . S
H1498 C1511 0.930 . S
H1499 C1515 0.959 . S
H1500 C1515 0.959 . S
H1501 C1515 0.961 . S
H1502 C1516 0.960 . S
H1503 C1516 0.961 . S
H1504 C1516 0.959 . S
H1505 C1519 0.929 . S
H1506 C1520 0.931 . S
H1507 C1522 0.930 . S
C1508 H1496 0.930 . S
C1508 C1509 1.399 . S
C1508 C1513 1.399 . S
C1509 C1508 1.399 . S
C1509 C1510 1.376 1_556 S
C1510 H1497 0.930 . S
C1510 C1509 1.376 1_554 S
C1510 C1511 1.388 . S
C1511 H1498 0.930 . S
C1511 C1510 1.388 . S
C1511 C1512 1.390 1_554 S
C1512 C1511 1.390 1_556 S
C1512 C1513 1.394 . S
C1512 C1518 1.465 . S
C1513 C1508 1.399 . S
C1513 C1512 1.394 . S
C1513 C1514 1.516 . S
C1514 C1513 1.516 . S
C1514 C1515 1.502 . S
C1514 C1516 1.561 . S
C1514 C1517 1.526 . S
C1515 H1499 0.959 . S
C1515 H1500 0.959 . S
C1515 H1501 0.961 . S
C1515 C1514 1.502 . S
C1516 H1502 0.960 . S
C1516 H1503 0.961 . S
C1516 H1504 0.959 . S
C1516 C1514 1.561 . S
C1517 C1514 1.526 . S
C1517 C1518 1.396 . S
C1517 C1522 1.390 . S
C1518 C1512 1.465 . S
C1518 C1517 1.396 . S
C1518 C1519 1.399 1_556 S
C1519 H1505 0.929 . S
C1519 C1518 1.399 1_554 S
C1519 C1520 1.385 . S
C1520 H1506 0.931 . S
C1520 C1519 1.385 . S
C1520 C1521 1.389 1_554 S
C1521 C1520 1.389 1_556 S
C1521 C1522 1.387 . S
C1522 H1507 0.930 . S
C1522 C1517 1.390 . S
C1522 C1521 1.387 . S
H1523 C1535 0.930 . S
H1524 C1537 0.930 . S
H1525 C1538 0.930 . S
H1526 C1542 0.959 . S
H1527 C1542 0.959 . S
H1528 C1542 0.961 . S
H1529 C1543 0.960 . S
H1530 C1543 0.961 . S
H1531 C1543 0.959 . S
H1532 C1546 0.929 . S
H1533 C1547 0.931 . S
H1534 C1549 0.930 . S
C1535 H1523 0.930 . S
C1535 C1536 1.399 . S
C1535 C1540 1.399 . S
C1536 C1535 1.399 . S
C1536 C1537 1.376 . S
C1537 H1524 0.930 . S
C1537 C1536 1.376 . S
C1537 C1538 1.388 . S
C1538 H1525 0.930 . S
C1538 C1537 1.388 . S
C1538 C1539 1.390 . S
C1539 C1538 1.390 . S
C1539 C1540 1.394 . S
C1539 C1545 1.465 . S
C1540 C1535 1.399 . S
C1540 C1539 1.394 . S
C1540 C1541 1.516 . S
C1541 C1540 1.516 . S
C1541 C1542 1.502 . S
C1541 C1543 1.561 . S
C1541 C1544 1.526 . S
C1542 H1526 0.959 . S
C1542 H1527 0.959 . S
C1542 H1528 0.961 . S
C1542 C1541 1.502 . S
C1543 H1529 0.960 . S
C1543 H1530 0.961 . S
C1543 H1531 0.959 . S
C1543 C1541 1.561 . S
C1544 C1541 1.526 . S
C1544 C1545 1.396 . S
C1544 C1549 1.390 . S
C1545 C1539 1.465 . S
C1545 C1544 1.396 . S
C1545 C1546 1.399 . S
C1546 H1532 0.929 . S
C1546 C1545 1.399 . S
C1546 C1547 1.385 . S
C1547 H1533 0.931 . S
C1547 C1546 1.385 . S
C1547 C1548 1.389 . S
C1548 C1547 1.389 . S
C1548 C1549 1.387 . S
C1549 H1534 0.930 . S
C1549 C1544 1.390 . S
C1549 C1548 1.387 . S
H1550 C1562 0.930 . S
H1551 C1564 0.930 . S
H1552 C1565 0.930 . S
H1553 C1569 0.959 . S
H1554 C1569 0.959 1_655 S
H1555 C1569 0.961 . S
H1556 C1570 0.960 1_455 S
H1557 C1570 0.961 . S
H1558 C1570 0.959 . S
H1559 C1573 0.929 . S
H1560 C1574 0.931 . S
H1561 C1576 0.930 . S
C1562 H1550 0.930 . S
C1562 C1563 1.399 . S
C1562 C1567 1.399 . S
C1563 C1562 1.399 . S
C1563 C1564 1.376 . S
C1564 H1551 0.930 . S
C1564 C1563 1.376 . S
C1564 C1565 1.388 . S
C1565 H1552 0.930 . S
C1565 C1564 1.388 . S
C1565 C1566 1.390 . S
C1566 C1565 1.390 . S
C1566 C1567 1.394 . S
C1566 C1572 1.465 1_455 S
C1567 C1562 1.399 . S
C1567 C1566 1.394 . S
C1567 C1568 1.528 . S
C1568 C1567 1.528 . S
C1568 C1569 1.510 . S
C1568 C1570 1.553 1_455 S
C1568 C1571 1.513 1_455 S
C1569 H1553 0.959 . S
C1569 H1554 0.959 1_455 S
C1569 H1555 0.961 . S
C1569 C1568 1.510 . S
C1570 H1556 0.960 1_655 S
C1570 H1557 0.961 . S
C1570 H1558 0.959 . S
C1570 C1568 1.553 1_655 S
C1571 C1568 1.513 1_655 S
C1571 C1572 1.396 . S
C1571 C1576 1.390 . S
C1572 C1566 1.465 1_655 S
C1572 C1571 1.396 . S
C1572 C1573 1.399 . S
C1573 H1559 0.929 . S
C1573 C1572 1.399 . S
C1573 C1574 1.385 . S
C1574 H1560 0.931 . S
C1574 C1573 1.385 . S
C1574 C1575 1.389 . S
C1575 C1574 1.389 . S
C1575 C1576 1.387 . S
C1576 H1561 0.930 . S
C1576 C1571 1.390 . S
C1576 C1575 1.387 . S
H1577 C1589 0.930 . S
H1578 C1591 0.930 . S
H1579 C1592 0.930 . S
H1580 C1596 0.959 . S
H1581 C1596 0.959 . S
H1582 C1596 0.961 . S
H1583 C1597 0.960 . S
H1584 C1597 0.961 . S
H1585 C1597 0.959 . S
H1586 C1600 0.929 . S
H1587 C1601 0.931 . S
H1588 C1603 0.930 . S
C1589 H1577 0.930 . S
C1589 C1590 1.399 . S
C1589 C1594 1.399 . S
C1590 C1589 1.399 . S
C1590 C1591 1.376 . S
C1591 H1578 0.930 . S
C1591 C1590 1.376 . S
C1591 C1592 1.388 . S
C1592 H1579 0.930 . S
C1592 C1591 1.388 . S
C1592 C1593 1.390 . S
C1593 C1592 1.390 . S
C1593 C1594 1.394 . S
C1593 C1599 1.465 1_455 S
C1594 C1589 1.399 . S
C1594 C1593 1.394 . S
C1594 C1595 1.516 1_455 S
C1595 C1594 1.516 1_655 S
C1595 C1596 1.502 . S
C1595 C1597 1.561 1_655 S
C1595 C1598 1.526 . S
C1596 H1580 0.959 . S
C1596 H1581 0.959 . S
C1596 H1582 0.961 . S
C1596 C1595 1.502 . S
C1597 H1583 0.960 . S
C1597 H1584 0.961 . S
C1597 H1585 0.959 . S
C1597 C1595 1.561 1_455 S
C1598 C1595 1.526 . S
C1598 C1599 1.396 . S
C1598 C1603 1.390 . S
C1599 C1593 1.465 1_655 S
C1599 C1598 1.396 . S
C1599 C1600 1.399 . S
C1600 H1586 0.929 . S
C1600 C1599 1.399 . S
C1600 C1601 1.385 . S
C1601 H1587 0.931 . S
C1601 C1600 1.385 . S
C1601 C1602 1.389 . S
C1602 C1601 1.389 . S
C1602 C1603 1.387 . S
C1603 H1588 0.930 . S
C1603 C1598 1.390 . S
C1603 C1602 1.387 . S
H1604 C1616 0.930 1_556 S
H1605 C1618 0.930 . S
H1606 C1619 0.930 . S
H1607 C1623 0.959 1_554 S
H1608 C1623 0.959 . S
H1609 C1623 0.961 . S
H1610 C1624 0.960 . S
H1611 C1624 0.961 . S
H1612 C1624 0.959 . S
H1613 C1627 0.929 . S
H1614 C1628 0.931 . S
H1615 C1630 0.930 1_556 S
C1616 H1604 0.930 1_554 S
C1616 C1617 1.399 . S
C1616 C1621 1.399 . S
C1617 C1616 1.399 . S
C1617 C1618 1.376 . S
C1618 H1605 0.930 . S
C1618 C1617 1.376 . S
C1618 C1619 1.388 . S
C1619 H1606 0.930 . S
C1619 C1618 1.388 . S
C1619 C1620 1.390 . S
C1620 C1619 1.390 . S
C1620 C1621 1.394 . S
C1620 C1626 1.465 . S
C1621 C1616 1.399 . S
C1621 C1620 1.394 . S
C1621 C1622 1.516 1_554 S
C1622 C1621 1.516 1_556 S
C1622 C1623 1.502 . S
C1622 C1624 1.561 . S
C1622 C1625 1.526 1_556 S
C1623 H1607 0.959 1_556 S
C1623 H1608 0.959 . S
C1623 H1609 0.961 . S
C1623 C1622 1.502 . S
C1624 H1610 0.960 . S
C1624 H1611 0.961 . S
C1624 H1612 0.959 . S
C1624 C1622 1.561 . S
C1625 C1622 1.526 1_554 S
C1625 C1626 1.396 . S
C1625 C1630 1.390 . S
C1626 C1620 1.465 . S
C1626 C1625 1.396 . S
C1626 C1627 1.399 . S
C1627 H1613 0.929 . S
C1627 C1626 1.399 . S
C1627 C1628 1.385 . S
C1628 H1614 0.931 . S
C1628 C1627 1.385 . S
C1628 C1629 1.389 . S
C1629 C1628 1.389 . S
C1629 C1630 1.387 . S
C1630 H1615 0.930 1_554 S
C1630 C1625 1.390 . S
C1630 C1629 1.387 . S
H1631 C1643 0.930 . S
H1632 C1645 0.930 . S
H1633 C1646 0.930 . S
H1634 C1650 0.959 . S
H1635 C1650 0.959 . S
H1636 C1650 0.961 . S
H1637 C1651 0.960 . S
H1638 C1651 0.961 . S
H1639 C1651 0.959 . S
H1640 C1654 0.929 . S
H1641 C1655 0.931 . S
H1642 C1657 0.930 . S
C1643 H1631 0.930 . S
C1643 C1644 1.399 . S
C1643 C1648 1.399 . S
C1644 C1643 1.399 . S
C1644 C1645 1.376 . S
C1645 H1632 0.930 . S
C1645 C1644 1.376 . S
C1645 C1646 1.388 . S
C1646 H1633 0.930 . S
C1646 C1645 1.388 . S
C1646 C1647 1.390 . S
C1647 C1646 1.390 . S
C1647 C1648 1.394 . S
C1647 C1653 1.465 . S
C1648 C1643 1.399 . S
C1648 C1647 1.394 . S
C1648 C1649 1.516 . S
C1649 C1648 1.516 . S
C1649 C1650 1.502 . S
C1649 C1651 1.561 . S
C1649 C1652 1.526 . S
C1650 H1634 0.959 . S
C1650 H1635 0.959 . S
C1650 H1636 0.961 . S
C1650 C1649 1.502 . S
C1651 H1637 0.960 . S
C1651 H1638 0.961 . S
C1651 H1639 0.959 . S
C1651 C1649 1.561 . S
C1652 C1649 1.526 . S
C1652 C1653 1.396 . S
C1652 C1657 1.390 . S
C1653 C1647 1.465 . S
C1653 C1652 1.396 . S
C1653 C1654 1.399 . S
C1654 H1640 0.929 . S
C1654 C1653 1.399 . S
C1654 C1655 1.385 . S
C1655 H1641 0.931 . S
C1655 C1654 1.385 . S
C1655 C1656 1.389 . S
C1656 C1655 1.389 . S
C1656 C1657 1.387 . S
C1657 H1642 0.930 . S
C1657 C1652 1.390 . S
C1657 C1656 1.387 . S
H1658 C1670 0.930 . S
H1659 C1672 0.930 . S
H1660 C1673 0.930 . S
H1661 C1677 0.959 . S
H1662 C1677 0.959 . S
H1663 C1677 0.961 1_455 S
H1664 C1678 0.947 1_455 S
H1665 C1678 0.976 . S
H1666 C1678 0.955 1_455 S
H1667 C1681 0.929 . S
H1668 C1682 0.931 . S
H1669 C1684 0.930 . S
C1670 H1658 0.930 . S
C1670 C1671 1.399 . S
C1670 C1675 1.399 . S
C1671 C1670 1.399 . S
C1671 C1672 1.376 . S
C1672 H1659 0.930 . S
C1672 C1671 1.376 . S
C1672 C1673 1.388 . S
C1673 H1660 0.930 . S
C1673 C1672 1.388 . S
C1673 C1674 1.390 . S
C1674 C1673 1.390 . S
C1674 C1675 1.394 . S
C1674 C1680 1.465 1_455 S
C1675 C1670 1.399 . S
C1675 C1674 1.394 . S
C1675 C1676 1.516 1_455 S
C1676 C1675 1.516 1_655 S
C1676 C1677 1.502 . S
C1676 C1678 1.564 . S
C1676 C1679 1.526 . S
C1677 H1661 0.959 . S
C1677 H1662 0.959 . S
C1677 H1663 0.961 1_655 S
C1677 C1676 1.502 . S
C1678 H1664 0.947 1_655 S
C1678 H1665 0.976 . S
C1678 H1666 0.955 1_655 S
C1678 C1676 1.564 . S
C1679 C1676 1.526 . S
C1679 C1680 1.396 . S
C1679 C1684 1.390 . S
C1680 C1674 1.465 1_655 S
C1680 C1679 1.396 . S
C1680 C1681 1.399 . S
C1681 H1667 0.929 . S
C1681 C1680 1.399 . S
C1681 C1682 1.385 . S
C1682 H1668 0.931 . S
C1682 C1681 1.385 . S
C1682 C1683 1.389 . S
C1683 C1682 1.389 . S
C1683 C1684 1.387 . S
C1684 H1669 0.930 . S
C1684 C1679 1.390 . S
C1684 C1683 1.387 . S
H1685 C1697 0.930 . S
H1686 C1699 0.930 . S
H1687 C1700 0.930 . S
H1688 C1704 0.959 . S
H1689 C1704 0.948 1_455 S
H1690 C1704 0.961 . S
H1691 C1705 0.960 . S
H1692 C1705 0.961 . S
H1693 C1705 0.959 . S
H1694 C1708 0.925 1_655 S
H1695 C1709 0.931 . S
H1696 C1711 0.930 . S
C1697 H1685 0.930 . S
C1697 C1698 1.399 . S
C1697 C1702 1.399 . S
C1698 C1697 1.399 . S
C1698 C1699 1.376 . S
C1699 H1686 0.930 . S
C1699 C1698 1.376 . S
C1699 C1700 1.388 . S
C1700 H1687 0.930 . S
C1700 C1699 1.388 . S
C1700 C1701 1.390 . S
C1701 C1700 1.390 . S
C1701 C1702 1.394 . S
C1701 C1707 1.465 1_655 S
C1702 C1697 1.399 . S
C1702 C1701 1.394 . S
C1702 C1703 1.516 1_655 S
C1703 C1702 1.516 1_455 S
C1703 C1704 1.502 1_455 S
C1703 C1705 1.561 . S
C1703 C1706 1.526 . S
C1704 H1688 0.959 . S
C1704 H1689 0.948 1_655 S
C1704 H1690 0.961 . S
C1704 C1703 1.502 1_655 S
C1705 H1691 0.960 . S
C1705 H1692 0.961 . S
C1705 H1693 0.959 . S
C1705 C1703 1.561 . S
C1706 C1703 1.526 . S
C1706 C1707 1.396 . S
C1706 C1711 1.390 . S
C1707 C1701 1.465 1_455 S
C1707 C1706 1.396 . S
C1707 C1708 1.399 . S
C1708 H1694 0.925 1_455 S
C1708 C1707 1.399 . S
C1708 C1709 1.385 . S
C1709 H1695 0.931 . S
C1709 C1708 1.385 . S
C1709 C1710 1.389 . S
C1710 C1709 1.389 . S
C1710 C1711 1.387 . S
C1711 H1696 0.930 . S
C1711 C1706 1.390 . S
C1711 C1710 1.387 . S
C861 C250 2.669 . S
C873 C29 2.661 . S
C888 C727 2.764 . S
C900 C91 2.764 . S
C915 C135 2.673 . S
C927 C356 2.709 . S
C942 C833 2.769 . S
C954 C197 2.746 . S
C969 C515 2.731 . S
C981 C303 2.787 . S
C996 C621 2.769 . S
C1008 C409 2.758 . S
C1023 C453 2.677 . S
C1035 C674 2.709 . S
C1050 C780 2.686 . S
C1062 C559 2.654 . S
C1077 C393 1.839 . S
C1089 C22 1.782 . S
C1104 C658 1.810 . S
C1116 C92 1.812 . S
C1131 C128 1.789 . S
C1143 C287 1.852 . S
C1158 C198 1.790 . S
C1170 C764 1.789 . S
C1185 C181 2.156 . S
C1197 C251 2.121 . S
C1212 C304 2.195 . S
C1224 C463 2.274 . S
C1239 C357 2.161 . S
C1251 C75 2.154 . S
C1266 C410 2.191 1_655 S
C1278 C569 2.277 . S
C1293 C446 1.819 . S
C1305 C817 1.818 . S
C1320 C234 1.788 . S
C1332 C516 1.803 . S
C1347 C711 1.829 . S
C1359 C552 1.773 . S
C1374 C622 1.750 . S
C1386 C340 1.820 . S
C1401 C605 2.187 . S
C1413 C675 2.113 . S
C1428 C728 2.225 1_455 S
C1440 C39 2.267 . S
C1455 C781 2.099 . S
C1467 C499 2.174 . S
C1482 C145 2.248 . S
C1494 C834 2.238 . S
C1509 C38 0.882 . S
C1521 C568 0.897 . S
C1536 C612 0.758 . S
C1548 C82 0.733 . S
C1563 C144 0.950 . S
C1575 C462 0.940 . S
C1590 C506 0.759 . S
C1602 C188 0.742 . S
C1617 C771 0.370 . S
C1629 C241 0.338 . S
C1644 C824 0.183 . S
C1656 C294 0.247 . S
C1671 C665 0.367 . S
C1683 C347 0.338 . S
C1698 C718 0.377 . S
C1710 C400 0.369 . S
