# Generated by pormake.
# Topology xfu, (5)-cn, num edge types: 1
# Building blocks:
#     Node 0, Type 0, BuildingBlock: XOMCOT_clean_sbu_0, # of connection points: 5
#     Node 1, Type 0, BuildingBlock: XOMCOT_clean_sbu_0, # of connection points: 5
#     Node 2, Type 0, BuildingBlock: XOMCOT_clean_sbu_0, # of connection points: 5
#     Node 3, Type 0, BuildingBlock: XOMCOT_clean_sbu_0, # of connection points: 5
#     Node 4, Type 0, BuildingBlock: XOMCOT_clean_sbu_0, # of connection points: 5
#     Node 5, Type 0, BuildingBlock: XOMCOT_clean_sbu_0, # of connection points: 5
#     Node 6, Type 0, BuildingBlock: XOMCOT_clean_sbu_0, # of connection points: 5
#     Node 7, Type 0, BuildingBlock: XOMCOT_clean_sbu_0, # of connection points: 5
#     Edge 8, Type (0, 0), BuildingBlock: OJICUG_clean_linker_0, # of connection points: 2
#     Edge 9, Type (0, 0), BuildingBlock: OJICUG_clean_linker_0, # of connection points: 2
#     Edge 10, Type (0, 0), BuildingBlock: OJICUG_clean_linker_0, # of connection points: 2
#     Edge 11, Type (0, 0), BuildingBlock: OJICUG_clean_linker_0, # of connection points: 2
#     Edge 12, Type (0, 0), BuildingBlock: OJICUG_clean_linker_0, # of connection points: 2
#     Edge 13, Type (0, 0), BuildingBlock: OJICUG_clean_linker_0, # of connection points: 2
#     Edge 14, Type (0, 0), BuildingBlock: OJICUG_clean_linker_0, # of connection points: 2
#     Edge 15, Type (0, 0), BuildingBlock: OJICUG_clean_linker_0, # of connection points: 2
#     Edge 16, Type (0, 0), BuildingBlock: OJICUG_clean_linker_0, # of connection points: 2
#     Edge 17, Type (0, 0), BuildingBlock: OJICUG_clean_linker_0, # of connection points: 2
#     Edge 18, Type (0, 0), BuildingBlock: OJICUG_clean_linker_0, # of connection points: 2
#     Edge 19, Type (0, 0), BuildingBlock: OJICUG_clean_linker_0, # of connection points: 2
#     Edge 20, Type (0, 0), BuildingBlock: OJICUG_clean_linker_0, # of connection points: 2
#     Edge 21, Type (0, 0), BuildingBlock: OJICUG_clean_linker_0, # of connection points: 2
#     Edge 22, Type (0, 0), BuildingBlock: OJICUG_clean_linker_0, # of connection points: 2
#     Edge 23, Type (0, 0), BuildingBlock: OJICUG_clean_linker_0, # of connection points: 2
#     Edge 24, Type (0, 0), BuildingBlock: OJICUG_clean_linker_0, # of connection points: 2
#     Edge 25, Type (0, 0), BuildingBlock: OJICUG_clean_linker_0, # of connection points: 2
#     Edge 26, Type (0, 0), BuildingBlock: OJICUG_clean_linker_0, # of connection points: 2
#     Edge 27, Type (0, 0), BuildingBlock: OJICUG_clean_linker_0, # of connection points: 2
# Relax obj value: 0.372
# Max RMSD: 0.275
# Mean RMSD: 0.275
data_MOF--net-xfu--node1-XOMCOT_clean_sbu_0--edge1-OJICUG_clean_linker_0
_symmetry_space_group_name_H-M    P1
_symmetry_Int_Tables_number       1
_symmetry_cell_setting            triclinic
loop_
_symmetry_equiv_pos_as_xyz
'x, y, z'
_cell_length_a     23.249629
_cell_length_b     23.415199
_cell_length_c     38.148355
_cell_angle_alpha  90.063267
_cell_angle_beta   89.977886
_cell_angle_gamma 90.434316
loop_
_atom_site_label
_atom_site_type_symbol
_atom_site_fract_x
_atom_site_fract_y
_atom_site_fract_z
_atom_type_partial_charge
Co0 Co 0.13284 0.25396 0.61941 0.0
C1 C 0.0884 0.16029 0.57446 0.0
C2 C 0.14175 0.12862 0.61568 0.0
C3 C 0.12718 0.08374 0.59393 0.0
N4 N 0.1165 0.17654 0.60383 0.0
N5 N 0.09363 0.10389 0.56798 0.0
H6 H 0.06844 0.18946 0.55649 0.0
H7 H 0.17108 0.12685 0.63764 0.0
C8 C 0.10896 0.19157 0.68846 0.0
O9 O 0.06616 0.161 0.67576 0.0
N10 N 0.14976 0.33155 0.63489 0.0
C11 C 0.15463 0.37908 0.61506 0.0
C12 C 0.16418 0.42552 0.63671 0.0
C13 C 0.15535 0.35011 0.66825 0.0
N14 N 0.16413 0.40704 0.67015 0.0
C15 C 0.02308 0.28045 0.5899 0.0
C16 C 0.9649 0.2926 0.6526 0.0
C17 C 0.93405 0.29525 0.62114 0.0
C18 C 0.9641 0.29059 0.58947 0.0
C19 C 0.02386 0.28209 0.65178 0.0
N20 N 0.05155 0.2725 0.62074 0.0
H21 H 0.04581 0.27918 0.56529 0.0
H22 H 0.04685 0.28238 0.67627 0.0
H23 H 0.15047 0.38045 0.58686 0.0
H24 H 0.15273 0.32297 0.69098 0.0
O25 O 0.15188 0.27514 0.5713 0.0
O26 O 0.21238 0.24064 0.61086 0.0
O27 O 0.135 0.22833 0.66951 0.0
C28 C 0.20372 0.25873 0.57921 0.0
H29 H 0.14166 0.04013 0.59648 0.0
H30 H 0.16933 0.46952 0.62856 0.0
H31 H 0.94361 0.29759 0.67766 0.0
H32 H 0.94229 0.29511 0.56454 0.0
Co33 Co 0.85148 0.60804 0.1252 0.0
C34 C 0.93812 0.58123 0.07235 0.0
C35 C 0.97509 0.63128 0.11394 0.0
C36 C 0.01704 0.62088 0.08916 0.0
N37 N 0.92589 0.60619 0.10322 0.0
N38 N -0.00642 0.58932 0.06307 0.0
H39 H 0.90645 0.55892 0.05659 0.0
H40 H 0.97994 0.6559 0.13777 0.0
C41 C 0.87354 0.5861 0.20196 0.0
O42 O 0.83203 0.54768 0.20265 0.0
N43 N 0.77556 0.61057 0.14684 0.0
C44 C 0.72633 0.58545 0.13581 0.0
C45 C 0.68326 0.59677 0.15947 0.0
C46 C 0.76063 0.63937 0.17611 0.0
N47 N 0.70503 0.63015 0.18508 0.0
C48 C 0.81435 0.50071 0.09705 0.0
C49 C 0.88074 0.43251 0.1397 0.0
C50 C 0.84155 0.40688 0.11659 0.0
C51 C 0.80946 0.4416 0.09426 0.0
C52 C 0.88478 0.49193 0.14126 0.0
N53 N 0.8486 0.52524 0.122 0.0
H54 H 0.79041 0.5267 0.079 0.0
H55 H 0.91733 0.51078 0.15781 0.0
H56 H 0.72095 0.56096 0.11215 0.0
H57 H 0.79058 0.6649 0.19124 0.0
O58 O 0.8167 0.62801 0.08054 0.0
O59 O 0.85062 0.68906 0.1203 0.0
O60 O 0.88917 0.60854 0.1729 0.0
C61 C 0.82652 0.68059 0.09006 0.0
H62 H 0.06132 0.63531 0.09037 0.0
H63 H 0.63931 0.58146 0.15787 0.0
H64 H 0.90818 0.40685 0.15626 0.0
H65 H 0.77976 0.42335 0.07538 0.0
Co66 Co 0.48454 0.34065 0.61707 0.0
C67 C 0.51801 0.43428 0.56863 0.0
C68 C 0.45605 0.46178 0.60643 0.0
C69 C 0.46658 0.50609 0.58348 0.0
N70 N 0.4892 0.41704 0.5975 0.0
N71 N 0.50566 0.4886 0.55973 0.0
H72 H 0.54457 0.4069 0.55292 0.0
H73 H 0.42487 0.46161 0.62748 0.0
C74 C 0.49564 0.4158 0.68237 0.0
O75 O 0.53454 0.44986 0.66843 0.0
N76 N 0.47925 0.26458 0.63662 0.0
C77 C 0.50573 0.21707 0.62519 0.0
C78 C 0.49893 0.1747 0.65008 0.0
C79 C 0.45627 0.25039 0.66784 0.0
N80 N 0.46797 0.19596 0.67698 0.0
C81 C 0.59725 0.32503 0.58905 0.0
C82 C 0.65579 0.32766 0.65201 0.0
C83 C 0.68694 0.32099 0.62083 0.0
C84 C 0.65678 0.31921 0.58908 0.0
C85 C 0.59612 0.33356 0.65074 0.0
N86 N 0.5678 0.3349 0.61937 0.0
H87 H 0.57479 0.32043 0.5645 0.0
H88 H 0.57296 0.3349 0.67517 0.0
H89 H 0.53053 0.21423 0.60127 0.0
H90 H 0.43415 0.28036 0.68447 0.0
O91 O 0.47035 0.30944 0.57041 0.0
O92 O 0.40412 0.3403 0.6078 0.0
O93 O 0.47688 0.37239 0.66569 0.0
C94 C 0.41641 0.31901 0.57736 0.0
H95 H 0.44626 0.5475 0.58397 0.0
H96 H 0.51671 0.13218 0.64882 0.0
H97 H 0.67708 0.32665 0.67724 0.0
H98 H 0.67885 0.31323 0.56436 0.0
Co99 Co 0.74097 0.97044 0.12488 0.0
C100 C 0.65727 0.01267 0.07392 0.0
C101 C 0.61506 0.96881 0.11624 0.0
C102 C 0.57417 0.9854 0.09221 0.0
N103 N 0.66692 0.98617 0.10466 0.0
N104 N 0.60082 0.0129 0.06553 0.0
H105 H 0.69125 0.0309 0.05801 0.0
H106 H 0.60769 0.94446 0.13992 0.0
C107 C 0.72538 0.00459 0.20084 0.0
O108 O 0.77144 0.03739 0.19919 0.0
N109 N 0.81669 0.95315 0.14455 0.0
C110 C 0.86764 0.95414 0.12743 0.0
C111 C 0.91074 0.93805 0.14993 0.0
C112 C 0.82972 0.93301 0.1768 0.0
N113 N 0.88685 0.92553 0.18111 0.0
C114 C 0.80353 0.06871 0.10002 0.0
C115 C 0.7399 0.14844 0.1364 0.0
C116 C 0.78785 0.16658 0.1171 0.0
C117 C 0.81887 0.12628 0.09788 0.0
C118 C 0.7257 0.09058 0.13741 0.0
N119 N 0.75977 0.05112 0.12136 0.0
H120 H 0.82621 0.03863 0.08396 0.0
H121 H 0.68733 0.0775 0.15128 0.0
H122 H 0.87371 0.96407 0.10009 0.0
H123 H 0.7983 0.92232 0.19662 0.0
O124 O 0.76782 0.94414 0.07948 0.0
O125 O 0.7258 0.8906 0.12039 0.0
O126 O 0.70716 0.97871 0.17342 0.0
C127 C 0.74926 0.89411 0.08957 0.0
H128 H 0.52859 0.9761 0.09383 0.0
H129 H 0.9562 0.93642 0.14391 0.0
H130 H 0.71326 0.17879 0.15026 0.0
H131 H 0.85501 0.13901 0.08167 0.0
Co132 Co 0.97991 0.84567 0.38625 0.0
C133 C 0.01758 0.93341 0.43667 0.0
C134 C 0.96771 0.96979 0.39502 0.0
C135 C 0.98102 0.01221 0.41879 0.0
N136 N 0.99078 0.92061 0.40631 0.0
N137 N 0.0122 -0.0108 0.44503 0.0
H138 H 0.03855 0.90197 0.45293 0.0
H139 H 0.94169 0.9742 0.3717 0.0
C140 C 0.002 0.86814 0.30945 0.0
O141 O 0.04225 0.82901 0.30913 0.0
N142 N 0.96671 0.76924 0.36642 0.0
C143 C 0.9708 0.71851 0.38318 0.0
C144 C 0.95536 0.67502 0.36068 0.0
C145 C 0.94522 0.75536 0.33452 0.0
N146 N 0.94003 0.69838 0.32993 0.0
C147 C 0.08802 0.79205 0.40087 0.0
C148 C 0.15614 0.87542 0.37031 0.0
C149 C 0.18264 0.82779 0.38544 0.0
C150 C 0.14753 0.78581 0.40089 0.0
C151 C 0.09628 0.87934 0.37027 0.0
N152 N 0.06286 0.83703 0.38444 0.0
H153 H 0.06256 0.76133 0.41495 0.0
H154 H 0.07669 0.91693 0.35918 0.0
H155 H 0.98237 0.71284 0.41035 0.0
H156 H 0.93087 0.78584 0.31533 0.0
O157 O 0.96474 0.81545 0.43281 0.0
O158 O 0.89988 0.85099 0.396 0.0
O159 O 0.97655 0.88078 0.33807 0.0
C160 C 0.91144 0.82865 0.42633 0.0
H161 H 0.96816 0.05643 0.41702 0.0
H162 H 0.95571 0.62977 0.36644 0.0
H163 H 0.18126 0.91004 0.35918 0.0
H164 H 0.1656 0.7483 0.4131 0.0
Co165 Co 0.24243 0.48814 0.87535 0.0
C166 C 0.15603 0.51855 0.92781 0.0
C167 C 0.11814 0.46929 0.88615 0.0
C168 C 0.07631 0.48076 0.91077 0.0
N169 N 0.16785 0.49318 0.89698 0.0
N170 N 0.10033 0.51175 0.93692 0.0
H171 H 0.18814 0.54009 0.94366 0.0
H172 H 0.11293 0.44454 0.86239 0.0
C173 C 0.2184 0.51842 0.79983 0.0
O174 O 0.25927 0.55749 0.80083 0.0
N175 N 0.31872 0.48172 0.85396 0.0
C176 C 0.37033 0.49317 0.86883 0.0
C177 C 0.41332 0.48336 0.84484 0.0
C178 C 0.33196 0.46105 0.82186 0.0
N179 N 0.38903 0.4636 0.81518 0.0
C180 C 0.29064 0.59453 0.89882 0.0
C181 C 0.21108 0.6638 0.86653 0.0
C182 C 0.25708 0.6892 0.88471 0.0
C183 C 0.29665 0.65352 0.90147 0.0
C184 C 0.20749 0.60445 0.86398 0.0
N185 N 0.24887 0.57067 0.87837 0.0
H186 H 0.31882 0.56827 0.91403 0.0
H187 H 0.17091 0.58563 0.85075 0.0
H188 H 0.37742 0.50542 0.89571 0.0
H189 H 0.30064 0.44424 0.80362 0.0
O190 O 0.27523 0.46729 0.92034 0.0
O191 O 0.23949 0.40713 0.88058 0.0
O192 O 0.20516 0.49057 0.82754 0.0
C193 C 0.26295 0.41503 0.91111 0.0
H194 H 0.03175 0.46723 0.9095 0.0
H195 H 0.45902 0.4889 0.84921 0.0
H196 H 0.17777 0.68934 0.85461 0.0
H197 H 0.33242 0.67066 0.91638 0.0
Co198 Co 0.62917 0.75549 0.38584 0.0
C199 C 0.58354 0.66296 0.43137 0.0
C200 C 0.64386 0.63195 0.3935 0.0
C201 C 0.62956 0.58789 0.41575 0.0
N202 N 0.61434 0.67887 0.40294 0.0
N203 N 0.5918 0.60756 0.43965 0.0
H204 H 0.55909 0.69196 0.44738 0.0
H205 H 0.67576 0.6306 0.37288 0.0
C206 C 0.60807 0.68625 0.31927 0.0
O207 O 0.56729 0.65508 0.33374 0.0
N208 N 0.64479 0.83232 0.36883 0.0
C209 C 0.64935 0.88097 0.38772 0.0
C210 C 0.66042 0.92595 0.36525 0.0
C211 C 0.6519 0.84875 0.33519 0.0
N212 N 0.66153 0.9054 0.33228 0.0
C213 C 0.5207 0.78622 0.41511 0.0
C214 C 0.45943 0.78793 0.35314 0.0
C215 C 0.43029 0.79828 0.38471 0.0
C216 C 0.46225 0.79881 0.41587 0.0
C217 C 0.51826 0.77669 0.35353 0.0
N218 N 0.54756 0.77265 0.38445 0.0
H219 H 0.54434 0.78761 0.4394 0.0
H220 H 0.5398 0.77226 0.32873 0.0
H221 H 0.64445 0.884 0.41582 0.0
H222 H 0.65046 0.82022 0.31301 0.0
O223 O 0.64767 0.77961 0.43348 0.0
O224 O 0.70902 0.7442 0.39466 0.0
O225 O 0.63198 0.72688 0.33622 0.0
C226 C 0.69981 0.76384 0.42594 0.0
H227 H 0.64709 0.54522 0.41502 0.0
H228 H 0.66621 0.97033 0.3725 0.0
H229 H 0.43715 0.78787 0.32824 0.0
H230 H 0.44257 0.80926 0.44077 0.0
Co231 Co 0.35214 0.12917 0.88167 0.0
C232 C 0.44121 0.0895 0.93054 0.0
C233 C 0.4771 0.14579 0.89196 0.0
C234 C 0.51938 0.13271 0.91599 0.0
N235 N 0.42835 0.11771 0.90078 0.0
N236 N 0.49638 0.09766 0.94036 0.0
H237 H 0.4104 0.06551 0.94575 0.0
H238 H 0.48092 0.17579 0.87053 0.0
C239 C 0.42494 0.10777 0.81558 0.0
O240 O 0.45922 0.07108 0.83087 0.0
N241 N 0.27539 0.14042 0.86357 0.0
C242 C 0.22578 0.12112 0.87774 0.0
C243 C 0.1817 0.13009 0.85422 0.0
C244 C 0.26075 0.16165 0.83213 0.0
N245 N 0.20401 0.15541 0.82548 0.0
C246 C 0.31817 0.02349 0.91317 0.0
C247 C 0.3199 0.95842 0.85281 0.0
C248 C 0.30333 0.93249 0.88438 0.0
C249 C 0.30195 0.96614 0.91478 0.0
C250 C 0.33454 0.01618 0.85225 0.0
N251 N 0.33591 0.04761 0.88242 0.0
H252 H 0.31495 0.04883 0.93669 0.0
H253 H 0.3427 0.03523 0.82713 0.0
H254 H 0.22218 0.09996 0.90283 0.0
H255 H 0.29136 0.17887 0.8138 0.0
O256 O 0.32452 0.15138 0.92792 0.0
O257 O 0.362 0.20939 0.88784 0.0
O258 O 0.3823 0.12891 0.83208 0.0
C259 C 0.33943 0.20295 0.91865 0.0
H260 H 0.56261 0.15015 0.91657 0.0
H261 H 0.13712 0.11775 0.85769 0.0
H262 H 0.32148 0.93459 0.82851 0.0
H263 H 0.28733 0.94884 0.93956 0.0
C264 C 0.00393 0.06576 0.48942 0.0
C265 C 0.03241 0.01746 0.47638 0.0
H266 H 0.00014 0.13011 0.5291 0.0
C267 C 0.08066 -0.00292 0.49459 0.0
H268 H 0.96595 0.08193 0.47654 0.0
C269 C 0.10035 0.02481 0.52486 0.0
C270 C 0.07222 0.07357 0.53763 0.0
H271 H 0.10395 0.96035 0.48507 0.0
H272 H 0.13839 0.00877 0.53774 0.0
C273 C 0.02352 0.09338 0.51966 0.0
C274 C 0.06893 0.59853 0.0175 0.0
C275 C 0.02099 0.56951 0.03142 0.0
H276 H 0.131 0.60364 0.9762 0.0
C277 C -0.0004 0.52118 0.01361 0.0
H278 H 0.08599 0.63635 0.0302 0.0
C279 C 0.02532 0.50249 0.98259 0.0
C280 C 0.07319 0.53154 0.96865 0.0
H281 H 0.9634 0.49719 0.02387 0.0
H282 H 0.00827 0.46465 0.9699 0.0
C283 C 0.09471 0.57978 0.98648 0.0
C284 C 0.58069 0.50471 0.51479 0.0
C285 C 0.52755 0.5195 0.52976 0.0
H286 H 0.64293 0.52122 0.47479 0.0
C287 C 0.49604 0.56419 0.51461 0.0
H288 H 0.60673 0.47138 0.52613 0.0
C289 C 0.51702 0.59299 0.48507 0.0
C290 C 0.56989 0.5777 0.46996 0.0
H291 H 0.45468 0.57631 0.52513 0.0
H292 H 0.49141 0.62666 0.47372 0.0
C293 C 0.6015 0.53331 0.48525 0.0
C294 C 0.58227 0.06593 0.97302 0.0
C295 C 0.52311 0.07732 0.97204 0.0
H296 H 0.65321 0.03539 1.003 0.0
C297 C 0.49021 0.06822 1.00249 0.0
H298 H 0.60858 0.07206 0.94989 0.0
C299 C 0.51573 0.0477 0.03309 0.0
C300 C 0.57481 0.03541 0.03405 0.0
H301 H 0.44475 0.07773 1.00288 0.0
H302 H 0.48905 0.04203 0.05607 0.0
C303 C 0.60781 0.045 1.00359 0.0
C304 C 0.19889 0.20918 0.77028 0.0
C305 C 0.17579 0.16755 0.79271 0.0
H306 H 0.19726 0.24822 0.72019 0.0
C307 C 0.12763 0.13558 0.78142 0.0
H308 H 0.23522 0.23526 0.77826 0.0
C309 C 0.10458 0.14386 0.74781 0.0
C310 C 0.12939 0.18415 0.72498 0.0
H311 H 0.10905 0.10281 0.79798 0.0
H312 H 0.06837 0.11784 0.73946 0.0
C313 C 0.17642 0.21702 0.73689 0.0
C314 C 0.89513 0.61625 0.29899 0.0
C315 C 0.92458 0.66891 0.29806 0.0
H316 H 0.85582 0.54853 0.26933 0.0
C317 C 0.93989 0.69213 0.26541 0.0
H318 H 0.88269 0.59744 0.32379 0.0
C319 C 0.92549 0.66384 0.23437 0.0
C320 C 0.89465 0.6119 0.23513 0.0
H321 H 0.9634 0.73215 0.26388 0.0
H322 H 0.93731 0.68363 0.20971 0.0
C323 C 0.87989 0.58823 0.26782 0.0
C324 C 0.39387 0.40961 0.75975 0.0
C325 C 0.41759 0.45025 0.78266 0.0
H326 H 0.39943 0.36741 0.71047 0.0
C327 C 0.4684 0.47917 0.77269 0.0
H328 H 0.35519 0.38623 0.76668 0.0
C329 C 0.49433 0.4682 0.74019 0.0
C330 C 0.47021 0.4277 0.71725 0.0
H331 H 0.48733 0.51129 0.78962 0.0
H332 H 0.53299 0.4915 0.73303 0.0
C333 C 0.41979 0.39846 0.72755 0.0
C334 C 0.71274 0.98084 0.29896 0.0
C335 C 0.67206 0.93621 0.30024 0.0
H336 H 0.76165 0.03788 0.26641 0.0
C337 C 0.64442 0.91929 0.26917 0.0
H338 H 0.73478 -0.00547 0.32254 0.0
C339 C 0.65918 0.94429 0.2372 0.0
C340 C 0.70251 0.98646 0.23543 0.0
H341 H 0.61219 0.88568 0.26952 0.0
H342 H 0.63824 0.92868 0.21367 0.0
C343 C 0.72806 0.00559 0.26681 0.0
C344 C 0.92402 0.91812 0.27655 0.0
C345 C 0.97555 0.88693 0.27605 0.0
H346 H 0.85526 0.95415 0.24682 0.0
C347 C -0.00217 0.86925 0.24357 0.0
H348 H 0.90534 0.93231 0.30104 0.0
C349 C 0.96881 0.88186 0.21239 0.0
C350 C 0.91661 0.91181 0.2131 0.0
H351 H 0.03709 0.84474 0.24223 0.0
H352 H 0.98656 0.86715 0.18778 0.0
C353 C 0.89478 0.93008 0.2455 0.0
C354 C 0.22165 0.51583 0.73388 0.0
C355 C 0.1974 0.49651 0.76558 0.0
H356 H 0.23013 0.50215 0.67847 0.0
C357 C 0.15781 0.45083 0.76457 0.0
H358 H 0.25242 0.55078 0.73368 0.0
C359 C 0.14547 0.42294 0.73308 0.0
C360 C 0.17207 0.44014 0.70171 0.0
H361 H 0.13792 0.43499 0.78838 0.0
H362 H 0.11586 0.38704 0.73341 0.0
C363 C 0.20895 0.48799 0.70222 0.0
C364 C 0.67444 0.70691 0.26917 0.0
C365 C 0.62914 0.67401 0.28336 0.0
H366 H 0.73283 0.71989 0.22671 0.0
C367 C 0.60693 0.62829 0.26363 0.0
H368 H 0.69307 0.74232 0.28357 0.0
C369 C 0.63064 0.61487 0.2309 0.0
C370 C 0.67703 0.64695 0.21722 0.0
H371 H 0.57224 0.60198 0.27379 0.0
H372 H 0.61386 0.57811 0.21697 0.0
C373 C 0.69785 0.69372 0.23654 0.0
C374 C 0.40064 0.17015 0.76469 0.0
C375 C 0.43492 0.12664 0.77883 0.0
H376 H 0.38228 0.22412 0.72138 0.0
C377 C 0.47898 0.10383 0.75791 0.0
H378 H 0.36709 0.18983 0.77987 0.0
C379 C 0.48902 0.12514 0.72398 0.0
C380 C 0.45507 0.16958 0.71035 0.0
H381 H 0.50635 0.07039 0.76794 0.0
H382 H 0.5244 0.10803 0.70896 0.0
C383 C 0.41005 0.19074 0.73099 0.0
C384 C 0.84439 0.34129 0.64398 0.0
C385 C 0.87085 0.30221 0.62125 0.0
H386 H 0.76548 0.3785 0.6613 0.0
C387 C 0.83646 0.2689 0.59879 0.0
H388 H 0.86993 0.36788 0.66136 0.0
C389 C 0.77684 0.27467 0.59891 0.0
C390 C 0.75026 0.31412 0.62136 0.0
H391 H 0.85563 0.23766 0.58147 0.0
H392 H 0.75152 0.24764 0.58167 0.0
C393 C 0.78465 0.34726 0.644 0.0
C394 C 0.82286 0.31576 0.14839 0.0
C395 C 0.83235 0.34447 0.11661 0.0
H396 H 0.80094 0.23668 0.1733 0.0
C397 C 0.82928 0.31389 0.08496 0.0
H398 H 0.82448 0.33856 0.1731 0.0
C399 C 0.81597 0.25566 0.08508 0.0
C400 C 0.80477 0.22741 0.11682 0.0
H401 H 0.8367 0.33515 0.06014 0.0
H402 H 0.81291 0.23308 0.06034 0.0
C403 C 0.80885 0.25778 0.14848 0.0
C404 C 0.33371 0.78826 0.41361 0.0
C405 C 0.36709 0.80788 0.38527 0.0
H406 H 0.25047 0.78107 0.43664 0.0
C407 C 0.33933 0.83552 0.35733 0.0
H408 H 0.35317 0.76603 0.43541 0.0
C409 C 0.27968 0.84213 0.35739 0.0
C410 C 0.24633 0.82217 0.38567 0.0
H411 H 0.36354 0.8522 0.33532 0.0
H412 H 0.25974 0.86207 0.33493 0.0
C413 C 0.27432 0.7959 0.414 0.0
C414 C 0.26056 0.84445 0.85668 0.0
C415 C 0.28757 0.8709 0.88548 0.0
H416 H 0.23126 0.76669 0.83339 0.0
C417 C 0.30092 0.83761 0.91498 0.0
H418 H 0.24818 0.86883 0.83384 0.0
C419 C 0.2889 0.7792 0.9153 0.0
C420 C 0.26446 0.75226 0.88583 0.0
H421 H 0.32208 0.85621 0.93759 0.0
H422 H 0.29953 0.75516 0.93861 0.0
C423 C 0.24973 0.7858 0.8567 0.0
C424 C 0.35451 0.24262 0.5553 0.0
C425 C 0.369 0.30075 0.5548 0.0
H426 H 0.28608 0.18241 0.56297 0.0
C427 C 0.32616 0.34102 0.54756 0.0
H428 H 0.38694 0.21097 0.56108 0.0
C429 C 0.26829 0.32457 0.54804 0.0
C430 C 0.25366 0.26812 0.55653 0.0
H431 H 0.33668 0.3862 0.54722 0.0
H432 H 0.23581 0.35749 0.54791 0.0
C433 C 0.29667 0.22632 0.55652 0.0
C434 C 0.8423 0.77527 0.06403 0.0
C435 C 0.8045 0.72967 0.07095 0.0
H436 H 0.85261 0.86609 0.06264 0.0
C437 C 0.74519 0.73937 0.0721 0.0
H438 H 0.88835 0.7684 0.06348 0.0
C439 C 0.72491 0.79529 0.07264 0.0
C440 C 0.76385 0.84135 0.07118 0.0
H441 H 0.71555 0.7047 0.07794 0.0
H442 H 0.67999 0.8025 0.07866 0.0
C443 C 0.82183 0.83114 0.06355 0.0
C444 C 0.76254 0.83349 0.45506 0.0
C445 C 0.74926 0.77606 0.44841 0.0
H446 H 0.82941 0.89668 0.4536 0.0
C447 C 0.79316 0.73528 0.44974 0.0
H448 H 0.72927 0.86558 0.45427 0.0
C449 C 0.85058 0.75298 0.4504 0.0
C450 C 0.86362 0.81139 0.44881 0.0
H451 H 0.78352 0.69064 0.44476 0.0
H452 H 0.8837 0.72153 0.44584 0.0
C453 C 0.81995 0.85131 0.45474 0.0
C454 C 0.26172 0.26417 0.93896 0.0
C455 C 0.32097 0.25404 0.93738 0.0
H456 H 0.19589 0.32635 0.9313 0.0
C457 C 0.35961 0.30035 0.9393 0.0
H458 H 0.23127 0.22901 0.93704 0.0
C459 C 0.33932 0.35616 0.93673 0.0
C460 C 0.28051 0.36539 0.93154 0.0
H461 H 0.40555 0.2932 0.93775 0.0
H462 H 0.37004 0.39082 0.93352 0.0
C463 C 0.2415 0.31981 0.93538 0.0
loop_
_geom_bond_atom_site_label_1
_geom_bond_atom_site_label_2
_geom_bond_distance
_geom_bond_site_symmetry_2
_ccdc_geom_bond_type
Co0 N4 2.148 . S
Co0 N10 2.128 . S
Co0 N20 2.194 . S
Co0 O25 2.351 . S
Co0 O26 2.155 . S
Co0 O27 2.096 . S
C1 N4 1.301 . S
C1 N5 1.328 . S
C1 H6 0.930 . S
C2 C3 1.333 . S
C2 N4 1.317 . S
C2 H7 0.930 . S
C3 C2 1.333 . S
C3 N5 1.350 . S
C3 H29 0.931 . S
N4 Co0 2.148 . S
N4 C1 1.301 . S
N4 C2 1.317 . S
N5 C1 1.328 . S
N5 C3 1.350 . S
H6 C1 0.930 . S
H7 C2 0.930 . S
C8 O9 1.224 . S
C8 O27 1.247 . S
O9 C8 1.224 . S
N10 Co0 2.128 . S
N10 C11 1.355 . S
N10 C13 1.311 . S
C11 N10 1.355 . S
C11 C12 1.363 . S
C11 H23 0.929 . S
C12 C11 1.363 . S
C12 N14 1.375 . S
C12 H30 0.931 . S
C13 N10 1.311 . S
C13 N14 1.347 . S
C13 H24 0.929 . S
N14 C12 1.375 . S
N14 C13 1.347 . S
C15 C18 1.365 1_455 S
C15 N20 1.328 . S
C15 H21 0.929 . S
C16 C17 1.362 . S
C16 C19 1.378 . S
C16 H31 0.929 . S
C17 C16 1.362 . S
C17 C18 1.366 . S
C18 C15 1.365 1_655 S
C18 C17 1.366 . S
C18 H32 0.930 . S
C19 C16 1.378 . S
C19 N20 1.315 1_655 S
C19 H22 0.930 1_655 S
N20 Co0 2.194 . S
N20 C15 1.328 . S
N20 C19 1.315 1_455 S
H21 C15 0.929 . S
H22 C19 0.930 1_455 S
H23 C11 0.929 . S
H24 C13 0.929 . S
O25 Co0 2.351 . S
O25 C28 1.244 . S
O26 Co0 2.155 . S
O26 C28 1.240 . S
O27 Co0 2.096 . S
O27 C8 1.247 . S
C28 O25 1.244 . S
C28 O26 1.240 . S
H29 C3 0.931 . S
H30 C12 0.931 . S
H31 C16 0.929 . S
H32 C18 0.930 . S
Co33 N37 2.148 . S
Co33 N43 2.128 . S
Co33 N53 2.194 . S
Co33 O58 2.351 . S
Co33 O59 2.155 . S
Co33 O60 2.096 . S
C34 N37 1.301 . S
C34 N38 1.328 . S
C34 H39 0.930 . S
C35 C36 1.333 1_655 S
C35 N37 1.317 . S
C35 H40 0.930 . S
C36 C35 1.333 1_455 S
C36 N38 1.350 1_455 S
C36 H62 0.931 . S
N37 Co33 2.148 . S
N37 C34 1.301 . S
N37 C35 1.317 . S
N38 C34 1.328 . S
N38 C36 1.350 1_655 S
H39 C34 0.930 . S
H40 C35 0.930 . S
C41 O42 1.224 . S
C41 O60 1.247 . S
O42 C41 1.224 . S
N43 Co33 2.128 . S
N43 C44 1.355 . S
N43 C46 1.311 . S
C44 N43 1.355 . S
C44 C45 1.363 . S
C44 H56 0.929 . S
C45 C44 1.363 . S
C45 N47 1.375 . S
C45 H63 0.931 . S
C46 N43 1.311 . S
C46 N47 1.347 . S
C46 H57 0.929 . S
N47 C45 1.375 . S
N47 C46 1.347 . S
C48 C51 1.365 . S
C48 N53 1.328 . S
C48 H54 0.929 . S
C49 C50 1.362 . S
C49 C52 1.378 . S
C49 H64 0.929 . S
C50 C49 1.362 . S
C50 C51 1.366 . S
C51 C48 1.365 . S
C51 C50 1.366 . S
C51 H65 0.930 . S
C52 C49 1.378 . S
C52 N53 1.315 . S
C52 H55 0.930 . S
N53 Co33 2.194 . S
N53 C48 1.328 . S
N53 C52 1.315 . S
H54 C48 0.929 . S
H55 C52 0.930 . S
H56 C44 0.929 . S
H57 C46 0.929 . S
O58 Co33 2.351 . S
O58 C61 1.244 . S
O59 Co33 2.155 . S
O59 C61 1.240 . S
O60 Co33 2.096 . S
O60 C41 1.247 . S
C61 O58 1.244 . S
C61 O59 1.240 . S
H62 C36 0.931 . S
H63 C45 0.931 . S
H64 C49 0.929 . S
H65 C51 0.930 . S
Co66 N70 2.148 . S
Co66 N76 2.128 . S
Co66 N86 2.194 . S
Co66 O91 2.351 . S
Co66 O92 2.155 . S
Co66 O93 2.096 . S
C67 N70 1.301 . S
C67 N71 1.328 . S
C67 H72 0.930 . S
C68 C69 1.333 . S
C68 N70 1.317 . S
C68 H73 0.930 . S
C69 C68 1.333 . S
C69 N71 1.350 . S
C69 H95 0.931 . S
N70 Co66 2.148 . S
N70 C67 1.301 . S
N70 C68 1.317 . S
N71 C67 1.328 . S
N71 C69 1.350 . S
H72 C67 0.930 . S
H73 C68 0.930 . S
C74 O75 1.224 . S
C74 O93 1.247 . S
O75 C74 1.224 . S
N76 Co66 2.128 . S
N76 C77 1.355 . S
N76 C79 1.311 . S
C77 N76 1.355 . S
C77 C78 1.363 . S
C77 H89 0.929 . S
C78 C77 1.363 . S
C78 N80 1.375 . S
C78 H96 0.931 . S
C79 N76 1.311 . S
C79 N80 1.347 . S
C79 H90 0.929 . S
N80 C78 1.375 . S
N80 C79 1.347 . S
C81 C84 1.365 . S
C81 N86 1.328 . S
C81 H87 0.929 . S
C82 C83 1.362 . S
C82 C85 1.378 . S
C82 H97 0.929 . S
C83 C82 1.362 . S
C83 C84 1.366 . S
C84 C81 1.365 . S
C84 C83 1.366 . S
C84 H98 0.930 . S
C85 C82 1.378 . S
C85 N86 1.315 . S
C85 H88 0.930 . S
N86 Co66 2.194 . S
N86 C81 1.328 . S
N86 C85 1.315 . S
H87 C81 0.929 . S
H88 C85 0.930 . S
H89 C77 0.929 . S
H90 C79 0.929 . S
O91 Co66 2.351 . S
O91 C94 1.244 . S
O92 Co66 2.155 . S
O92 C94 1.240 . S
O93 Co66 2.096 . S
O93 C74 1.247 . S
C94 O91 1.244 . S
C94 O92 1.240 . S
H95 C69 0.931 . S
H96 C78 0.931 . S
H97 C82 0.929 . S
H98 C84 0.930 . S
Co99 N103 2.148 1_565 S
Co99 N109 2.128 . S
Co99 N119 2.194 1_565 S
Co99 O124 2.351 . S
Co99 O125 2.155 . S
Co99 O126 2.096 . S
C100 N103 1.301 . S
C100 N104 1.328 . S
C100 H105 0.930 . S
C101 C102 1.333 1_565 S
C101 N103 1.317 1_565 S
C101 H106 0.930 . S
C102 C101 1.333 1_545 S
C102 N104 1.350 . S
C102 H128 0.931 1_545 S
N103 Co99 2.148 1_545 S
N103 C100 1.301 . S
N103 C101 1.317 1_545 S
N104 C100 1.328 . S
N104 C102 1.350 . S
H105 C100 0.930 . S
H106 C101 0.930 . S
C107 O108 1.224 1_565 S
C107 O126 1.247 . S
O108 C107 1.224 1_545 S
N109 Co99 2.128 . S
N109 C110 1.355 1_565 S
N109 C112 1.311 . S
C110 N109 1.355 1_545 S
C110 C111 1.363 . S
C110 H122 0.929 . S
C111 C110 1.363 . S
C111 N113 1.375 1_545 S
C111 H129 0.931 . S
C112 N109 1.311 . S
C112 N113 1.347 . S
C112 H123 0.929 . S
N113 C111 1.375 1_565 S
N113 C112 1.347 . S
C114 C117 1.365 . S
C114 N119 1.328 . S
C114 H120 0.929 . S
C115 C116 1.362 . S
C115 C118 1.378 . S
C115 H130 0.929 . S
C116 C115 1.362 . S
C116 C117 1.366 . S
C117 C114 1.365 . S
C117 C116 1.366 . S
C117 H131 0.930 . S
C118 C115 1.378 . S
C118 N119 1.315 . S
C118 H121 0.930 . S
N119 Co99 2.194 1_545 S
N119 C114 1.328 . S
N119 C118 1.315 . S
H120 C114 0.929 . S
H121 C118 0.930 . S
H122 C110 0.929 . S
H123 C112 0.929 . S
O124 Co99 2.351 . S
O124 C127 1.244 . S
O125 Co99 2.155 . S
O125 C127 1.240 . S
O126 Co99 2.096 . S
O126 C107 1.247 . S
C127 O124 1.244 . S
C127 O125 1.240 . S
H128 C102 0.931 1_565 S
H129 C111 0.931 . S
H130 C115 0.929 . S
H131 C117 0.930 . S
Co132 N136 2.148 1_655 S
Co132 N142 2.128 . S
Co132 N152 2.194 1_655 S
Co132 O157 2.351 . S
Co132 O158 2.155 . S
Co132 O159 2.096 . S
C133 N136 1.301 . S
C133 N137 1.328 . S
C133 H138 0.930 . S
C134 C135 1.333 1_665 S
C134 N136 1.317 1_655 S
C134 H139 0.930 . S
C135 C134 1.333 1_445 S
C135 N137 1.350 1_545 S
C135 H161 0.931 1_455 S
N136 Co132 2.148 1_455 S
N136 C133 1.301 . S
N136 C134 1.317 1_455 S
N137 C133 1.328 . S
N137 C135 1.350 1_565 S
H138 C133 0.930 . S
H139 C134 0.930 . S
C140 O141 1.224 1_655 S
C140 O159 1.247 . S
O141 C140 1.224 1_455 S
N142 Co132 2.128 . S
N142 C143 1.355 1_655 S
N142 C145 1.311 . S
C143 N142 1.355 1_455 S
C143 C144 1.363 . S
C143 H155 0.929 . S
C144 C143 1.363 . S
C144 N146 1.375 1_455 S
C144 H162 0.931 . S
C145 N142 1.311 . S
C145 N146 1.347 . S
C145 H156 0.929 . S
N146 C144 1.375 1_655 S
N146 C145 1.347 . S
C147 C150 1.365 . S
C147 N152 1.328 . S
C147 H153 0.929 . S
C148 C149 1.362 . S
C148 C151 1.378 . S
C148 H163 0.929 . S
C149 C148 1.362 . S
C149 C150 1.366 . S
C150 C147 1.365 . S
C150 C149 1.366 . S
C150 H164 0.930 . S
C151 C148 1.378 . S
C151 N152 1.315 . S
C151 H154 0.930 . S
N152 Co132 2.194 1_455 S
N152 C147 1.328 . S
N152 C151 1.315 . S
H153 C147 0.929 . S
H154 C151 0.930 . S
H155 C143 0.929 . S
H156 C145 0.929 . S
O157 Co132 2.351 . S
O157 C160 1.244 . S
O158 Co132 2.155 . S
O158 C160 1.240 . S
O159 Co132 2.096 . S
O159 C140 1.247 . S
C160 O157 1.244 . S
C160 O158 1.240 . S
H161 C135 0.931 1_655 S
H162 C144 0.931 . S
H163 C148 0.929 . S
H164 C150 0.930 . S
Co165 N169 2.148 . S
Co165 N175 2.128 . S
Co165 N185 2.194 . S
Co165 O190 2.351 . S
Co165 O191 2.155 . S
Co165 O192 2.096 . S
C166 N169 1.301 . S
C166 N170 1.328 . S
C166 H171 0.930 . S
C167 C168 1.333 . S
C167 N169 1.317 . S
C167 H172 0.930 . S
C168 C167 1.333 . S
C168 N170 1.350 . S
C168 H194 0.931 . S
N169 Co165 2.148 . S
N169 C166 1.301 . S
N169 C167 1.317 . S
N170 C166 1.328 . S
N170 C168 1.350 . S
H171 C166 0.930 . S
H172 C167 0.930 . S
C173 O174 1.224 . S
C173 O192 1.247 . S
O174 C173 1.224 . S
N175 Co165 2.128 . S
N175 C176 1.355 . S
N175 C178 1.311 . S
C176 N175 1.355 . S
C176 C177 1.363 . S
C176 H188 0.929 . S
C177 C176 1.363 . S
C177 N179 1.375 . S
C177 H195 0.931 . S
C178 N175 1.311 . S
C178 N179 1.347 . S
C178 H189 0.929 . S
N179 C177 1.375 . S
N179 C178 1.347 . S
C180 C183 1.365 . S
C180 N185 1.328 . S
C180 H186 0.929 . S
C181 C182 1.362 . S
C181 C184 1.378 . S
C181 H196 0.929 . S
C182 C181 1.362 . S
C182 C183 1.366 . S
C183 C180 1.365 . S
C183 C182 1.366 . S
C183 H197 0.930 . S
C184 C181 1.378 . S
C184 N185 1.315 . S
C184 H187 0.930 . S
N185 Co165 2.194 . S
N185 C180 1.328 . S
N185 C184 1.315 . S
H186 C180 0.929 . S
H187 C184 0.930 . S
H188 C176 0.929 . S
H189 C178 0.929 . S
O190 Co165 2.351 . S
O190 C193 1.244 . S
O191 Co165 2.155 . S
O191 C193 1.240 . S
O192 Co165 2.096 . S
O192 C173 1.247 . S
C193 O190 1.244 . S
C193 O191 1.240 . S
H194 C168 0.931 . S
H195 C177 0.931 . S
H196 C181 0.929 . S
H197 C183 0.930 . S
Co198 N202 2.148 . S
Co198 N208 2.128 . S
Co198 N218 2.194 . S
Co198 O223 2.351 . S
Co198 O224 2.155 . S
Co198 O225 2.096 . S
C199 N202 1.301 . S
C199 N203 1.328 . S
C199 H204 0.930 . S
C200 C201 1.333 . S
C200 N202 1.317 . S
C200 H205 0.930 . S
C201 C200 1.333 . S
C201 N203 1.350 . S
C201 H227 0.931 . S
N202 Co198 2.148 . S
N202 C199 1.301 . S
N202 C200 1.317 . S
N203 C199 1.328 . S
N203 C201 1.350 . S
H204 C199 0.930 . S
H205 C200 0.930 . S
C206 O207 1.224 . S
C206 O225 1.247 . S
O207 C206 1.224 . S
N208 Co198 2.128 . S
N208 C209 1.355 . S
N208 C211 1.311 . S
C209 N208 1.355 . S
C209 C210 1.363 . S
C209 H221 0.929 . S
C210 C209 1.363 . S
C210 N212 1.375 . S
C210 H228 0.931 . S
C211 N208 1.311 . S
C211 N212 1.347 . S
C211 H222 0.929 . S
N212 C210 1.375 . S
N212 C211 1.347 . S
C213 C216 1.365 . S
C213 N218 1.328 . S
C213 H219 0.929 . S
C214 C215 1.362 . S
C214 C217 1.378 . S
C214 H229 0.929 . S
C215 C214 1.362 . S
C215 C216 1.366 . S
C216 C213 1.365 . S
C216 C215 1.366 . S
C216 H230 0.930 . S
C217 C214 1.378 . S
C217 N218 1.315 . S
C217 H220 0.930 . S
N218 Co198 2.194 . S
N218 C213 1.328 . S
N218 C217 1.315 . S
H219 C213 0.929 . S
H220 C217 0.930 . S
H221 C209 0.929 . S
H222 C211 0.929 . S
O223 Co198 2.351 . S
O223 C226 1.244 . S
O224 Co198 2.155 . S
O224 C226 1.240 . S
O225 Co198 2.096 . S
O225 C206 1.247 . S
C226 O223 1.244 . S
C226 O224 1.240 . S
H227 C201 0.931 . S
H228 C210 0.931 . S
H229 C214 0.929 . S
H230 C216 0.930 . S
Co231 N235 2.148 . S
Co231 N241 2.128 . S
Co231 N251 2.194 . S
Co231 O256 2.351 . S
Co231 O257 2.155 . S
Co231 O258 2.096 . S
C232 N235 1.301 . S
C232 N236 1.328 . S
C232 H237 0.930 . S
C233 C234 1.333 . S
C233 N235 1.317 . S
C233 H238 0.930 . S
C234 C233 1.333 . S
C234 N236 1.350 . S
C234 H260 0.931 . S
N235 Co231 2.148 . S
N235 C232 1.301 . S
N235 C233 1.317 . S
N236 C232 1.328 . S
N236 C234 1.350 . S
H237 C232 0.930 . S
H238 C233 0.930 . S
C239 O240 1.224 . S
C239 O258 1.247 . S
O240 C239 1.224 . S
N241 Co231 2.128 . S
N241 C242 1.355 . S
N241 C244 1.311 . S
C242 N241 1.355 . S
C242 C243 1.363 . S
C242 H254 0.929 . S
C243 C242 1.363 . S
C243 N245 1.375 . S
C243 H261 0.931 . S
C244 N241 1.311 . S
C244 N245 1.347 . S
C244 H255 0.929 . S
N245 C243 1.375 . S
N245 C244 1.347 . S
C246 C249 1.365 1_545 S
C246 N251 1.328 . S
C246 H252 0.929 . S
C247 C248 1.362 . S
C247 C250 1.378 . S
C247 H262 0.929 . S
C248 C247 1.362 . S
C248 C249 1.366 . S
C249 C246 1.365 1_565 S
C249 C248 1.366 . S
C249 H263 0.930 . S
C250 C247 1.378 . S
C250 N251 1.315 1_565 S
C250 H253 0.930 1_565 S
N251 Co231 2.194 . S
N251 C246 1.328 . S
N251 C250 1.315 1_545 S
H252 C246 0.929 . S
H253 C250 0.930 1_545 S
H254 C242 0.929 . S
H255 C244 0.929 . S
O256 Co231 2.351 . S
O256 C259 1.244 . S
O257 Co231 2.155 . S
O257 C259 1.240 . S
O258 Co231 2.096 . S
O258 C239 1.247 . S
C259 O256 1.244 . S
C259 O257 1.240 . S
H260 C234 0.931 . S
H261 C243 0.931 . S
H262 C247 0.929 . S
H263 C249 0.930 . S
C264 C265 1.393 . S
C264 H268 0.941 1_455 S
C264 C273 1.394 . S
C265 C264 1.393 . S
C265 C267 1.387 . S
H266 C273 0.950 . S
C267 C265 1.387 . S
C267 C269 1.390 . S
C267 H271 0.950 1_545 S
H268 C264 0.941 1_655 S
C269 C267 1.390 . S
C269 C270 1.387 . S
C269 H272 0.950 . S
C270 C269 1.387 . S
C270 C273 1.387 . S
H271 C267 0.950 1_565 S
H272 C269 0.950 . S
C273 C264 1.394 . S
C273 H266 0.950 . S
C273 C270 1.387 . S
C274 C275 1.387 1_556 S
C274 H278 0.950 . S
C274 C283 1.390 . S
C275 C274 1.387 1_554 S
C275 C277 1.387 . S
H276 C283 0.950 . S
C277 C275 1.387 . S
C277 C279 1.405 . S
C277 H281 0.950 . S
H278 C274 0.950 . S
C279 C277 1.405 . S
C279 C280 1.370 1_554 S
C279 H282 0.953 . S
C280 C279 1.370 1_556 S
C280 C283 1.387 . S
H281 C277 0.950 . S
H282 C279 0.953 . S
C283 C274 1.390 . S
C283 H276 0.950 . S
C283 C280 1.387 . S
C284 C285 1.387 . S
C284 H288 0.950 . S
C284 C293 1.390 . S
C285 C284 1.387 . S
C285 C287 1.387 . S
H286 C293 0.950 . S
C287 C285 1.387 . S
C287 C289 1.390 . S
C287 H291 0.950 . S
H288 C284 0.950 . S
C289 C287 1.390 . S
C289 C290 1.387 . S
C289 H292 0.950 . S
C290 C289 1.387 . S
C290 C293 1.387 . S
H291 C287 0.950 . S
H292 C289 0.950 . S
C293 C284 1.390 . S
C293 H286 0.950 . S
C293 C290 1.387 . S
C294 C295 1.387 . S
C294 H298 0.950 . S
C294 C303 1.390 . S
C295 C294 1.387 . S
C295 C297 1.387 1_556 S
H296 C303 0.950 1_565 S
C297 C295 1.387 1_554 S
C297 C299 1.390 . S
C297 H301 0.950 . S
H298 C294 0.950 . S
C299 C297 1.390 . S
C299 C300 1.387 . S
C299 H302 0.950 . S
C300 C299 1.387 . S
C300 C303 1.387 1_554 S
H301 C297 0.950 . S
H302 C299 0.950 . S
C303 C294 1.390 . S
C303 H296 0.950 1_545 S
C303 C300 1.387 1_556 S
C304 C305 1.387 . S
C304 H308 0.950 . S
C304 C313 1.390 . S
C305 C304 1.387 . S
C305 C307 1.387 . S
H306 C313 0.950 . S
C307 C305 1.387 . S
C307 C309 1.390 . S
C307 H311 0.950 . S
H308 C304 0.950 . S
C309 C307 1.390 . S
C309 C310 1.387 . S
C309 H312 0.950 . S
C310 C309 1.387 . S
C310 C313 1.387 . S
H311 C307 0.950 . S
H312 C309 0.950 . S
C313 C304 1.390 . S
C313 H306 0.950 . S
C313 C310 1.387 . S
C314 C315 1.387 . S
C314 H318 0.950 1_655 S
C314 C323 1.390 . S
C315 C314 1.387 . S
C315 C317 1.387 . S
H316 C323 0.950 . S
C317 C315 1.387 . S
C317 C319 1.390 . S
C317 H321 0.950 . S
H318 C314 0.950 1_455 S
C319 C317 1.390 . S
C319 C320 1.387 . S
C319 H322 0.950 . S
C320 C319 1.387 . S
C320 C323 1.387 . S
H321 C317 0.950 . S
H322 C319 0.950 . S
C323 C314 1.390 . S
C323 H316 0.950 . S
C323 C320 1.387 . S
C324 C325 1.387 . S
C324 H328 0.950 . S
C324 C333 1.390 . S
C325 C324 1.387 . S
C325 C327 1.387 . S
H326 C333 0.950 . S
C327 C325 1.387 . S
C327 C329 1.390 . S
C327 H331 0.950 . S
H328 C324 0.950 . S
C329 C327 1.390 . S
C329 C330 1.387 . S
C329 H332 0.950 . S
C330 C329 1.387 . S
C330 C333 1.387 . S
H331 C327 0.950 . S
H332 C329 0.950 . S
C333 C324 1.390 . S
C333 H326 0.950 . S
C333 C330 1.387 . S
C334 C335 1.387 . S
C334 H338 0.950 1_565 S
C334 C343 1.390 1_565 S
C335 C334 1.387 . S
C335 C337 1.387 . S
H336 C343 0.950 . S
C337 C335 1.387 . S
C337 C339 1.390 . S
C337 H341 0.950 . S
H338 C334 0.950 1_545 S
C339 C337 1.390 . S
C339 C340 1.387 . S
C339 H342 0.950 . S
C340 C339 1.387 . S
C340 C343 1.387 1_565 S
H341 C337 0.950 . S
H342 C339 0.950 . S
C343 C334 1.390 1_545 S
C343 H336 0.950 . S
C343 C340 1.387 1_545 S
C344 C345 1.387 . S
C344 H348 0.950 . S
C344 C353 1.390 . S
C345 C344 1.387 . S
C345 C347 1.387 1_655 S
H346 C353 0.950 . S
C347 C345 1.387 1_455 S
C347 C349 1.390 1_455 S
C347 H351 0.950 . S
H348 C344 0.950 . S
C349 C347 1.390 1_655 S
C349 C350 1.387 . S
C349 H352 0.952 1_655 S
C350 C349 1.387 . S
C350 C353 1.387 . S
H351 C347 0.950 . S
H352 C349 0.952 1_455 S
C353 C344 1.390 . S
C353 H346 0.950 . S
C353 C350 1.387 . S
C354 C355 1.387 . S
C354 H358 0.950 . S
C354 C363 1.390 . S
C355 C354 1.387 . S
C355 C357 1.387 . S
H356 C363 0.950 . S
C357 C355 1.387 . S
C357 C359 1.390 . S
C357 H361 0.950 . S
H358 C354 0.950 . S
C359 C357 1.390 . S
C359 C360 1.387 . S
C359 H362 0.950 . S
C360 C359 1.387 . S
C360 C363 1.387 . S
H361 C357 0.950 . S
H362 C359 0.950 . S
C363 C354 1.390 . S
C363 H356 0.950 . S
C363 C360 1.387 . S
C364 C365 1.387 . S
C364 H368 0.950 . S
C364 C373 1.390 . S
C365 C364 1.387 . S
C365 C367 1.387 . S
H366 C373 0.950 . S
C367 C365 1.387 . S
C367 C369 1.390 . S
C367 H371 0.950 . S
H368 C364 0.950 . S
C369 C367 1.390 . S
C369 C370 1.387 . S
C369 H372 0.950 . S
C370 C369 1.387 . S
C370 C373 1.387 . S
H371 C367 0.950 . S
H372 C369 0.950 . S
C373 C364 1.390 . S
C373 H366 0.950 . S
C373 C370 1.387 . S
C374 C375 1.387 . S
C374 H378 0.950 . S
C374 C383 1.390 . S
C375 C374 1.387 . S
C375 C377 1.387 . S
H376 C383 0.950 . S
C377 C375 1.387 . S
C377 C379 1.390 . S
C377 H381 0.950 . S
H378 C374 0.950 . S
C379 C377 1.390 . S
C379 C380 1.387 . S
C379 H382 0.950 . S
C380 C379 1.387 . S
C380 C383 1.387 . S
H381 C377 0.950 . S
H382 C379 0.950 . S
C383 C374 1.390 . S
C383 H376 0.950 . S
C383 C380 1.387 . S
C384 C385 1.387 . S
C384 H388 0.950 . S
C384 C393 1.390 . S
C385 C384 1.387 . S
C385 C387 1.387 . S
H386 C393 0.950 . S
C387 C385 1.387 . S
C387 C389 1.390 . S
C387 H391 0.950 . S
H388 C384 0.950 . S
C389 C387 1.390 . S
C389 C390 1.387 . S
C389 H392 0.950 . S
C390 C389 1.387 . S
C390 C393 1.387 . S
H391 C387 0.950 . S
H392 C389 0.950 . S
C393 C384 1.390 . S
C393 H386 0.950 . S
C393 C390 1.387 . S
C394 C395 1.387 . S
C394 H398 0.950 . S
C394 C403 1.390 . S
C395 C394 1.387 . S
C395 C397 1.387 . S
H396 C403 0.950 . S
C397 C395 1.387 . S
C397 C399 1.390 . S
C397 H401 0.950 . S
H398 C394 0.950 . S
C399 C397 1.390 . S
C399 C400 1.387 . S
C399 H402 0.950 . S
C400 C399 1.387 . S
C400 C403 1.387 . S
H401 C397 0.950 . S
H402 C399 0.950 . S
C403 C394 1.390 . S
C403 H396 0.950 . S
C403 C400 1.387 . S
C404 C405 1.387 . S
C404 H408 0.950 . S
C404 C413 1.390 . S
C405 C404 1.387 . S
C405 C407 1.387 . S
H406 C413 0.950 . S
C407 C405 1.387 . S
C407 C409 1.390 . S
C407 H411 0.950 . S
H408 C404 0.950 . S
C409 C407 1.390 . S
C409 C410 1.387 . S
C409 H412 0.950 . S
C410 C409 1.387 . S
C410 C413 1.387 . S
H411 C407 0.950 . S
H412 C409 0.950 . S
C413 C404 1.390 . S
C413 H406 0.950 . S
C413 C410 1.387 . S
C414 C415 1.387 . S
C414 H418 0.950 . S
C414 C423 1.390 . S
C415 C414 1.387 . S
C415 C417 1.387 . S
H416 C423 0.950 . S
C417 C415 1.387 . S
C417 C419 1.390 . S
C417 H421 0.950 . S
H418 C414 0.950 . S
C419 C417 1.390 . S
C419 C420 1.387 . S
C419 H422 0.950 . S
C420 C419 1.387 . S
C420 C423 1.387 . S
H421 C417 0.950 . S
H422 C419 0.950 . S
C423 C414 1.390 . S
C423 H416 0.950 . S
C423 C420 1.387 . S
C424 C425 1.387 . S
C424 H428 0.950 . S
C424 C433 1.390 . S
C425 C424 1.387 . S
C425 C427 1.387 . S
H426 C433 0.950 . S
C427 C425 1.387 . S
C427 C429 1.390 . S
C427 H431 0.950 . S
H428 C424 0.950 . S
C429 C427 1.390 . S
C429 C430 1.387 . S
C429 H432 0.950 . S
C430 C429 1.387 . S
C430 C433 1.387 . S
H431 C427 0.950 . S
H432 C429 0.950 . S
C433 C424 1.390 . S
C433 H426 0.950 . S
C433 C430 1.387 . S
C434 C435 1.387 . S
C434 H438 0.950 . S
C434 C443 1.390 . S
C435 C434 1.387 . S
C435 C437 1.387 . S
H436 C443 0.950 . S
C437 C435 1.387 . S
C437 C439 1.390 . S
C437 H441 0.950 . S
H438 C434 0.950 . S
C439 C437 1.390 . S
C439 C440 1.387 . S
C439 H442 0.950 . S
C440 C439 1.387 . S
C440 C443 1.387 . S
H441 C437 0.950 . S
H442 C439 0.950 . S
C443 C434 1.390 . S
C443 H436 0.950 . S
C443 C440 1.387 . S
C444 C445 1.387 . S
C444 H448 0.950 . S
C444 C453 1.390 . S
C445 C444 1.387 . S
C445 C447 1.387 . S
H446 C453 0.950 . S
C447 C445 1.387 . S
C447 C449 1.390 . S
C447 H451 0.950 . S
H448 C444 0.950 . S
C449 C447 1.390 . S
C449 C450 1.387 . S
C449 H452 0.950 . S
C450 C449 1.387 . S
C450 C453 1.387 . S
H451 C447 0.950 . S
H452 C449 0.950 . S
C453 C444 1.390 . S
C453 H446 0.950 . S
C453 C450 1.387 . S
C454 C455 1.387 . S
C454 H458 0.950 . S
C454 C463 1.390 . S
C455 C454 1.387 . S
C455 C457 1.387 . S
H456 C463 0.950 . S
C457 C455 1.387 . S
C457 C459 1.390 . S
C457 H461 0.950 . S
H458 C454 0.950 . S
C459 C457 1.390 . S
C459 C460 1.387 . S
C459 H462 0.950 . S
C460 C459 1.387 . S
C460 C463 1.387 . S
H461 C457 0.950 . S
H462 C459 0.950 . S
C463 C454 1.390 . S
C463 H456 0.950 . S
C463 C460 1.387 . S
C265 N137 1.561 1_545 S
C270 N5 1.561 . S
C275 N38 1.564 1_455 S
C280 N170 1.564 . S
C285 N71 1.561 . S
C290 N203 1.561 . S
C295 N236 1.563 . S
C300 N104 1.563 . S
C305 N245 1.168 . S
C310 C8 1.163 . S
C315 N146 1.168 . S
C320 C41 1.162 . S
C325 N179 1.168 . S
C330 C74 1.163 . S
C335 N212 1.168 . S
C340 C107 1.162 . S
C345 C140 1.162 . S
C350 N113 1.168 . S
C355 C173 1.164 . S
C360 N14 1.168 . S
C365 C206 1.163 . S
C370 N47 1.167 . S
C375 C239 1.162 . S
C380 N80 1.168 . S
C385 C17 1.268 . S
C390 C83 1.268 . S
C395 C50 1.268 . S
C400 C116 1.268 . S
C405 C215 1.269 . S
C410 C149 1.269 . S
C415 C248 1.273 . S
C420 C182 1.273 . S
C425 C94 1.282 . S
C430 C28 1.282 . S
C435 C61 1.285 . S
C440 C127 1.285 . S
C445 C226 1.282 . S
C450 C160 1.282 . S
C455 C259 1.282 . S
C460 C193 1.282 . S
