# Generated by pormake.
# Topology wkq, (6)-cn, num edge types: 1
# Building blocks:
#     Node 0, Type 0, BuildingBlock: OJICUG_clean_sbu_0, # of connection points: 6
#     Node 1, Type 0, BuildingBlock: OJICUG_clean_sbu_0, # of connection points: 6
#     Node 2, Type 0, BuildingBlock: OJICUG_clean_sbu_0, # of connection points: 6
#     Node 3, Type 0, BuildingBlock: OJICUG_clean_sbu_0, # of connection points: 6
#     Node 4, Type 0, BuildingBlock: OJICUG_clean_sbu_0, # of connection points: 6
#     Node 5, Type 0, BuildingBlock: OJICUG_clean_sbu_0, # of connection points: 6
#     Node 6, Type 0, BuildingBlock: OJICUG_clean_sbu_0, # of connection points: 6
#     Node 7, Type 0, BuildingBlock: OJICUG_clean_sbu_0, # of connection points: 6
#     Node 8, Type 0, BuildingBlock: OJICUG_clean_sbu_0, # of connection points: 6
#     Node 9, Type 0, BuildingBlock: OJICUG_clean_sbu_0, # of connection points: 6
#     Node 10, Type 0, BuildingBlock: OJICUG_clean_sbu_0, # of connection points: 6
#     Node 11, Type 0, BuildingBlock: OJICUG_clean_sbu_0, # of connection points: 6
#     Edge 12, Type (0, 0), BuildingBlock: OJICUG_clean_linker_0, # of connection points: 2
#     Edge 13, Type (0, 0), BuildingBlock: OJICUG_clean_linker_0, # of connection points: 2
#     Edge 14, Type (0, 0), BuildingBlock: OJICUG_clean_linker_0, # of connection points: 2
#     Edge 15, Type (0, 0), BuildingBlock: OJICUG_clean_linker_0, # of connection points: 2
#     Edge 16, Type (0, 0), BuildingBlock: OJICUG_clean_linker_0, # of connection points: 2
#     Edge 17, Type (0, 0), BuildingBlock: OJICUG_clean_linker_0, # of connection points: 2
#     Edge 18, Type (0, 0), BuildingBlock: OJICUG_clean_linker_0, # of connection points: 2
#     Edge 19, Type (0, 0), BuildingBlock: OJICUG_clean_linker_0, # of connection points: 2
#     Edge 20, Type (0, 0), BuildingBlock: OJICUG_clean_linker_0, # of connection points: 2
#     Edge 21, Type (0, 0), BuildingBlock: OJICUG_clean_linker_0, # of connection points: 2
#     Edge 22, Type (0, 0), BuildingBlock: OJICUG_clean_linker_0, # of connection points: 2
#     Edge 23, Type (0, 0), BuildingBlock: OJICUG_clean_linker_0, # of connection points: 2
#     Edge 24, Type (0, 0), BuildingBlock: OJICUG_clean_linker_0, # of connection points: 2
#     Edge 25, Type (0, 0), BuildingBlock: OJICUG_clean_linker_0, # of connection points: 2
#     Edge 26, Type (0, 0), BuildingBlock: OJICUG_clean_linker_0, # of connection points: 2
#     Edge 27, Type (0, 0), BuildingBlock: OJICUG_clean_linker_0, # of connection points: 2
#     Edge 28, Type (0, 0), BuildingBlock: OJICUG_clean_linker_0, # of connection points: 2
#     Edge 29, Type (0, 0), BuildingBlock: OJICUG_clean_linker_0, # of connection points: 2
#     Edge 30, Type (0, 0), BuildingBlock: OJICUG_clean_linker_0, # of connection points: 2
#     Edge 31, Type (0, 0), BuildingBlock: OJICUG_clean_linker_0, # of connection points: 2
#     Edge 32, Type (0, 0), BuildingBlock: OJICUG_clean_linker_0, # of connection points: 2
#     Edge 33, Type (0, 0), BuildingBlock: OJICUG_clean_linker_0, # of connection points: 2
#     Edge 34, Type (0, 0), BuildingBlock: OJICUG_clean_linker_0, # of connection points: 2
#     Edge 35, Type (0, 0), BuildingBlock: OJICUG_clean_linker_0, # of connection points: 2
#     Edge 36, Type (0, 0), BuildingBlock: OJICUG_clean_linker_0, # of connection points: 2
#     Edge 37, Type (0, 0), BuildingBlock: OJICUG_clean_linker_0, # of connection points: 2
#     Edge 38, Type (0, 0), BuildingBlock: OJICUG_clean_linker_0, # of connection points: 2
#     Edge 39, Type (0, 0), BuildingBlock: OJICUG_clean_linker_0, # of connection points: 2
#     Edge 40, Type (0, 0), BuildingBlock: OJICUG_clean_linker_0, # of connection points: 2
#     Edge 41, Type (0, 0), BuildingBlock: OJICUG_clean_linker_0, # of connection points: 2
#     Edge 42, Type (0, 0), BuildingBlock: OJICUG_clean_linker_0, # of connection points: 2
#     Edge 43, Type (0, 0), BuildingBlock: OJICUG_clean_linker_0, # of connection points: 2
#     Edge 44, Type (0, 0), BuildingBlock: OJICUG_clean_linker_0, # of connection points: 2
#     Edge 45, Type (0, 0), BuildingBlock: OJICUG_clean_linker_0, # of connection points: 2
#     Edge 46, Type (0, 0), BuildingBlock: OJICUG_clean_linker_0, # of connection points: 2
#     Edge 47, Type (0, 0), BuildingBlock: OJICUG_clean_linker_0, # of connection points: 2
# Relax obj value: 0.340
# Max RMSD: 0.275
# Mean RMSD: 0.275
data_MOF--net-wkq--node1-OJICUG_clean_sbu_0--edge1-OJICUG_clean_linker_0
_symmetry_space_group_name_H-M    P1
_symmetry_Int_Tables_number       1
_symmetry_cell_setting            triclinic
loop_
_symmetry_equiv_pos_as_xyz
'x, y, z'
_cell_length_a     28.841943
_cell_length_b     28.855641
_cell_length_c     26.898011
_cell_angle_alpha  90.015014
_cell_angle_beta   89.892513
_cell_angle_gamma 119.94559
loop_
_atom_site_label
_atom_site_type_symbol
_atom_site_fract_x
_atom_site_fract_y
_atom_site_fract_z
_atom_type_partial_charge
Sc0 Sc 0.20694 0.43411 0.9506 0.0
Sc1 Sc 0.2787 0.46222 0.062 0.0
Sc2 Sc 0.20014 0.33042 0.02236 0.0
O3 O 0.22907 0.40946 0.01151 0.0
C4 C 0.09937 0.32867 0.97612 0.0
C5 C 0.20654 0.51279 0.03531 0.0
C6 C 0.18794 0.36569 0.12705 0.0
C7 C 0.32962 0.52295 0.95942 0.0
C8 C 0.23475 0.34472 0.91143 0.0
C9 C 0.31365 0.37978 0.07747 0.0
O10 O 0.12301 0.37844 0.96637 0.0
O11 O 0.23262 0.50145 0.06613 0.0
O12 O 0.16482 0.33208 0.09218 0.0
O13 O 0.28857 0.49299 0.93325 0.0
O14 O 0.23601 0.32697 0.95436 0.0
O15 O 0.3298 0.42791 0.06534 0.0
O16 O 0.2184 0.37801 0.90333 0.0
O17 O 0.331 0.5182 0.00641 0.0
O18 O 0.26809 0.34207 0.06442 0.0
O19 O 0.19674 0.49438 -0.009 0.0
O20 O 0.12539 0.30481 0.98467 0.0
O21 O 0.23043 0.41078 0.12141 0.0
Sc22 Sc 0.88631 0.20433 0.19247 0.0
Sc23 Sc 0.83346 0.2864 0.22151 0.0
Sc24 Sc 0.78582 0.20233 0.11697 0.0
O25 O 0.83508 0.23114 0.17672 0.0
C26 C 0.90197 0.2279 0.07721 0.0
C27 C 0.95252 0.32463 0.23472 0.0
C28 C 0.81587 0.32478 0.11565 0.0
C29 C 0.84598 0.20831 0.29816 0.0
C30 C 0.78707 0.09735 0.15155 0.0
C31 C 0.70963 0.20553 0.20246 0.0
O32 O 0.92086 0.22846 0.12007 0.0
O33 O 0.91907 0.33869 0.22166 0.0
O34 O 0.80214 0.28086 0.09341 0.0
O35 O 0.85498 0.18039 0.26703 0.0
O36 O 0.76179 0.1197 0.13494 0.0
O37 O 0.74844 0.23905 0.22878 0.0
O38 O 0.83462 0.12407 0.16743 0.0
O39 O 0.84037 0.2476 0.2856 0.0
O40 O 0.71592 0.19007 0.15969 0.0
O41 O 0.94568 0.27873 0.22416 0.0
O42 O 0.85319 0.21502 0.06941 0.0
O43 O 0.82697 0.33155 0.16163 0.0
Sc44 Sc 0.60397 0.77873 0.28477 0.0
Sc45 Sc 0.56788 0.81684 0.39488 0.0
Sc46 Sc 0.70192 0.87661 0.36113 0.0
O47 O 0.62419 0.82378 0.34676 0.0
C48 C 0.71073 0.78071 0.31428 0.0
C49 C 0.52469 0.69589 0.36717 0.0
C50 C 0.66347 0.82644 0.46396 0.0
C51 C 0.51054 0.80624 0.29046 0.0
C52 C 0.69108 0.8982 0.24939 0.0
C53 C 0.64372 0.93506 0.41202 0.0
O54 O 0.66172 0.7537 0.30192 0.0
O55 O 0.53341 0.73219 0.39849 0.0
O56 O 0.69914 0.83916 0.43064 0.0
O57 O 0.5434 0.79844 0.26514 0.0
O58 O 0.70651 0.91649 0.29299 0.0
O59 O 0.59741 0.9013 0.39701 0.0
O60 O 0.66013 0.84845 0.23992 0.0
O61 O 0.51269 0.8104 0.33761 0.0
O62 O 0.68408 0.92967 0.40326 0.0
O63 O 0.54403 0.70612 0.32311 0.0
O64 O 0.73249 0.83002 0.32534 0.0
O65 O 0.61788 0.82216 0.45629 0.0
Sc66 Sc 0.83861 0.6913 0.52529 0.0
Sc67 Sc 0.76084 0.55804 0.56122 0.0
Sc68 Sc 0.83735 0.59125 0.45151 0.0
O69 O 0.81188 0.61323 0.51231 0.0
C70 C 0.81159 0.68181 0.41159 0.0
C71 C 0.71807 0.63532 0.5694 0.0
C72 C 0.71674 0.49838 0.45735 0.0
C73 C 0.83981 0.65485 0.63184 0.0
C74 C 0.94382 0.69714 0.48176 0.0
C75 C 0.83994 0.51503 0.53807 0.0
O76 O 0.81064 0.69953 0.45455 0.0
O77 O 0.70531 0.58712 0.56092 0.0
O78 O 0.75711 0.53123 0.43189 0.0
O79 O 0.86732 0.68769 0.59783 0.0
O80 O 0.92065 0.64862 0.46751 0.0
O81 O 0.81248 0.52518 0.56852 0.0
O82 O 0.91778 0.71941 0.49625 0.0
O83 O 0.7994 0.60918 0.62349 0.0
O84 O 0.84873 0.5323 0.49325 0.0
O85 O 0.76426 0.67423 0.559 0.0
O86 O 0.82529 0.64648 0.40361 0.0
O87 O 0.7146 0.50093 0.50441 0.0
Sc88 Sc 0.26105 0.8297 0.61614 0.0
Sc89 Sc 0.21904 0.75383 0.72495 0.0
Sc90 Sc 0.16178 0.82962 0.69011 0.0
O91 O 0.21414 0.80396 0.67682 0.0
C92 C 0.25882 0.93343 0.64706 0.0
C93 C 0.34093 0.82992 0.69968 0.0
C94 C 0.21156 0.84188 0.79282 0.0
C95 C 0.23145 0.70832 0.62012 0.0
C96 C 0.14227 0.79804 0.57896 0.0
C97 C 0.10135 0.71365 0.74125 0.0
O98 O 0.2867 0.91189 0.63622 0.0
O99 O 0.30364 0.80252 0.7302 0.0
O100 O 0.19993 0.86515 0.75898 0.0
O101 O 0.24064 0.74961 0.59517 0.0
O102 O 0.12261 0.79329 0.6223 0.0
O103 O 0.13425 0.70016 0.72554 0.0
O104 O 0.19255 0.81847 0.57039 0.0
O105 O 0.22581 0.70546 0.66721 0.0
O106 O 0.1081 0.75996 0.73316 0.0
O107 O 0.33222 0.83992 0.65545 0.0
O108 O 0.20846 0.90543 0.65247 0.0
O109 O 0.21379 0.79924 0.78611 0.0
Sc110 Sc 0.34902 0.15633 0.86418 0.0
Sc111 Sc 0.48375 0.21463 0.89389 0.0
Sc112 Sc 0.44538 0.2511 0.78413 0.0
O113 O 0.42649 0.20744 0.84703 0.0
C114 C 0.35593 0.13039 0.7528 0.0
C115 C 0.40659 0.09792 0.91604 0.0
C116 C 0.53831 0.22238 0.78846 0.0
C117 C 0.39241 0.21173 0.96454 0.0
C118 C 0.33912 0.24998 0.81433 0.0
C119 C 0.52625 0.33544 0.86422 0.0
O120 O 0.3412 0.11359 0.79701 0.0
O121 O 0.45268 0.12998 0.89916 0.0
O122 O 0.50611 0.23157 0.76375 0.0
O123 O 0.35549 0.19775 0.93236 0.0
O124 O 0.38791 0.27662 0.80116 0.0
O125 O 0.51975 0.29938 0.89493 0.0
O126 O 0.31775 0.2013 0.82728 0.0
O127 O 0.43669 0.21331 0.95619 0.0
O128 O 0.5053 0.32493 0.82086 0.0
O129 O 0.36679 0.10424 0.90761 0.0
O130 O 0.38815 0.17961 0.74186 0.0
O131 O 0.5362 0.2176 0.83552 0.0
Sc132 Sc 0.69911 0.82244 0.77928 0.0
Sc133 Sc 0.56417 0.73748 0.75134 0.0
Sc134 Sc 0.59924 0.82119 0.85654 0.0
O135 O 0.62075 0.79364 0.79592 0.0
C136 C 0.69376 0.80207 0.89583 0.0
C137 C 0.64817 0.70178 0.7398 0.0
C138 C 0.508 0.6978 0.85706 0.0
C139 C 0.65341 0.81283 0.67252 0.0
C140 C 0.70363 0.92837 0.82059 0.0
C141 C 0.51969 0.81737 0.77119 0.0
O142 O 0.71343 0.80484 0.85287 0.0
O143 O 0.59971 0.68714 0.7499 0.0
O144 O 0.53691 0.74204 0.87928 0.0
O145 O 0.69088 0.84094 0.7029 0.0
O146 O 0.65777 0.90481 0.84128 0.0
O147 O 0.52471 0.78339 0.74515 0.0
O148 O 0.72347 0.90299 0.79947 0.0
O149 O 0.60799 0.77544 0.68624 0.0
O150 O 0.54211 0.8337 0.81354 0.0
O151 O 0.68665 0.74691 0.75317 0.0
O152 O 0.65378 0.80875 0.90404 0.0
O153 O 0.51346 0.69126 0.81128 0.0
Sc154 Sc 0.89475 0.69502 0.94504 0.0
Sc155 Sc 0.83439 0.56178 0.90709 0.0
Sc156 Sc 0.79236 0.59532 0.01726 0.0
O157 O 0.84047 0.61716 0.95665 0.0
C158 C 0.90915 0.68179 0.05881 0.0
C159 C 0.95603 0.636 0.90118 0.0
C160 C 0.81648 0.49986 0.01023 0.0
C161 C 0.85511 0.66091 0.83803 0.0
C162 C 0.79637 0.70377 -0.01137 0.0
C163 C 0.71284 0.52196 0.92982 0.0
O164 O 0.92867 0.70014 0.01624 0.0
O165 O 0.91812 0.5885 0.90757 0.0
O166 O 0.80907 0.53273 0.03571 0.0
O167 O 0.86511 0.69478 0.87229 0.0
O168 O 0.76988 0.65536 0.00296 0.0
O169 O 0.75037 0.53071 0.89985 0.0
O170 O 0.84439 0.72459 0.97335 0.0
O171 O 0.84699 0.61392 0.8453 0.0
O172 O 0.72137 0.53921 0.97462 0.0
O173 O 0.95186 0.67673 0.91187 0.0
O174 O 0.85973 0.64759 0.06621 0.0
O175 O 0.82247 0.50333 0.96327 0.0
Sc176 Sc 0.21772 0.88295 0.10695 0.0
Sc177 Sc 0.29937 0.82873 0.07958 0.0
Sc178 Sc 0.21666 0.78454 0.18576 0.0
O179 O 0.24459 0.83203 0.12429 0.0
C180 C 0.23766 0.89937 0.2234 0.0
C181 C 0.34163 0.95061 0.07372 0.0
C182 C 0.33793 0.8114 0.18568 0.0
C183 C 0.2285 0.84904 0.00042 0.0
C184 C 0.11044 0.78289 0.1485 0.0
C185 C 0.21748 0.70592 0.10102 0.0
O186 O 0.23523 0.91551 0.1801 0.0
O187 O 0.35298 0.91369 0.07971 0.0
O188 O 0.29522 0.80079 0.20874 0.0
O189 O 0.1994 0.85675 0.03097 0.0
O190 O 0.13357 0.7606 0.16994 0.0
O191 O 0.24968 0.74378 0.07281 0.0
O192 O 0.13623 0.82781 0.12681 0.0
O193 O 0.26488 0.83933 0.01391 0.0
O194 O 0.20382 0.71378 0.14414 0.0
O195 O 0.29528 0.94399 0.0821 0.0
O196 O 0.22995 0.85254 0.23249 0.0
O197 O 0.34351 0.82013 0.13928 0.0
Sc198 Sc 0.34972 0.21363 0.28156 0.0
Sc199 Sc 0.48443 0.28466 0.24987 0.0
Sc200 Sc 0.44415 0.20352 0.35618 0.0
O201 O 0.42609 0.23336 0.29585 0.0
C202 C 0.35374 0.22495 0.39918 0.0
C203 C 0.40349 0.32946 0.24523 0.0
C204 C 0.53802 0.32705 0.35368 0.0
C205 C 0.39712 0.22022 0.17279 0.0
C206 C 0.3367 0.1022 0.31273 0.0
C207 C 0.52547 0.20347 0.27717 0.0
O208 O 0.32927 0.21394 0.358 0.0
O209 O 0.44636 0.33054 0.23244 0.0
O210 O 0.51366 0.28067 0.37366 0.0
O211 O 0.35922 0.21271 0.20187 0.0
O212 O 0.37655 0.12268 0.34261 0.0
O213 O 0.52885 0.24387 0.25522 0.0
O214 O 0.32407 0.13027 0.2855 0.0
O215 O 0.44448 0.23598 0.18749 0.0
O216 O 0.49387 0.18044 0.31361 0.0
O217 O 0.37196 0.29645 0.27738 0.0
O218 O 0.39854 0.22695 0.40471 0.0
O219 O 0.52791 0.33648 0.31004 0.0
Sc220 Sc 0.15441 0.33885 0.44099 0.0
Sc221 Sc 0.21108 0.47392 0.40998 0.0
Sc222 Sc 0.2539 0.43622 0.5177 0.0
O223 O 0.20648 0.41645 0.45646 0.0
C224 C 0.13798 0.34518 0.5569 0.0
C225 C 0.0898 0.39712 0.40299 0.0
C226 C 0.22893 0.53175 0.51528 0.0
C227 C 0.18851 0.37945 0.33375 0.0
C228 C 0.25285 0.3296 0.48382 0.0
C229 C 0.33324 0.51284 0.43167 0.0
O230 O 0.12066 0.32672 0.51381 0.0
O231 O 0.12645 0.44523 0.4098 0.0
O232 O 0.23789 0.499 0.53915 0.0
O233 O 0.18193 0.34418 0.36563 0.0
O234 O 0.27693 0.37618 0.50287 0.0
O235 O 0.29567 0.50659 0.40285 0.0
O236 O 0.20718 0.31043 0.46364 0.0
O237 O 0.19833 0.42606 0.3455 0.0
O238 O 0.32492 0.49293 0.4755 0.0
O239 O 0.0961 0.35754 0.41321 0.0
O240 O 0.18585 0.38268 0.56527 0.0
O241 O 0.22152 0.52878 0.46862 0.0
Sc242 Sc 0.82905 0.14273 0.61343 0.0
Sc243 Sc 0.75607 0.20519 0.57944 0.0
Sc244 Sc 0.8338 0.2457 0.68842 0.0
O245 O 0.80613 0.19778 0.62719 0.0
C246 C 0.80498 0.12918 0.72907 0.0
C247 C 0.70903 0.08149 0.57093 0.0
C248 C 0.71216 0.21883 0.68416 0.0
C249 C 0.83404 0.18792 0.50686 0.0
C250 C 0.93796 0.24178 0.654 0.0
C251 C 0.83751 0.32719 0.60513 0.0
O252 O 0.8061 0.11075 0.68654 0.0
O253 O 0.70154 0.12117 0.57256 0.0
O254 O 0.75493 0.23125 0.70798 0.0
O255 O 0.85248 0.16851 0.53824 0.0
O256 O 0.91624 0.26663 0.67331 0.0
O257 O 0.8049 0.29007 0.57693 0.0
O258 O 0.91065 0.1953 0.63547 0.0
O259 O 0.79952 0.20158 0.51698 0.0
O260 O 0.85088 0.31827 0.64775 0.0
O261 O 0.75194 0.08373 0.58576 0.0
O262 O 0.81697 0.17763 0.73655 0.0
O263 O 0.70725 0.20918 0.63777 0.0
C264 C 0.19682 0.59251 0.01631 0.0
C265 C 0.19419 0.55481 0.05081 0.0
H266 H 0.20607 0.67018 0.00537 0.0
C267 C 0.18941 0.56328 0.10174 0.0
H268 H 0.20067 0.58727 0.97693 0.0
C269 C 0.19204 0.61061 0.11811 0.0
C270 C 0.20035 0.65077 0.08391 0.0
H271 H 0.18693 0.53469 0.12925 0.0
H272 H 0.19183 0.61742 0.1577 0.0
C273 C 0.20029 0.64019 0.03272 0.0
C274 C 0.5692 0.18244 0.20809 0.0
C275 C 0.56276 0.18597 0.25961 0.0
H276 H 0.6205 0.18434 0.14933 0.0
C277 C 0.6003 0.18546 0.29221 0.0
H278 H 0.54078 0.18312 0.18222 0.0
C279 C 0.64645 0.18724 0.27333 0.0
C280 C 0.65529 0.1887 0.22161 0.0
H281 H 0.59656 0.18883 0.33195 0.0
H282 H 0.67693 0.1911 0.2992 0.0
C283 C 0.6148 0.18315 0.18923 0.0
C284 C 0.42878 0.58174 0.44876 0.0
C285 C 0.38858 0.55035 0.41451 0.0
H286 H 0.5044 0.65263 0.46021 0.0
C287 C 0.39924 0.56129 0.36335 0.0
H288 H 0.422 0.57435 0.48831 0.0
C289 C 0.44675 0.60587 0.34712 0.0
C290 C 0.48417 0.64071 0.38182 0.0
H291 H 0.36928 0.53737 0.33592 0.0
H292 H 0.45182 0.61557 0.30786 0.0
C293 C 0.47596 0.62669 0.43258 0.0
C294 C 0.85778 0.44001 0.52057 0.0
C295 C 0.85538 0.47553 0.5547 0.0
H296 H 0.8546 0.36491 0.51016 0.0
C297 C 0.85846 0.4669 0.60592 0.0
H298 H 0.85556 0.44545 0.48097 0.0
C299 C 0.85846 0.42095 0.62273 0.0
C300 C 0.85464 0.38245 0.58861 0.0
H301 H 0.85727 0.49392 0.6332 0.0
H302 H 0.85662 0.41341 0.66234 0.0
C303 C 0.85703 0.39373 0.53738 0.0
C304 C 0.45205 0.84672 0.78446 0.0
C305 C 0.48268 0.8348 0.75189 0.0
H306 H 0.38287 0.85533 0.79292 0.0
C307 C 0.47249 0.83253 0.70043 0.0
H308 H 0.45899 0.84893 0.82418 0.0
C309 C 0.42942 0.83704 0.68237 0.0
C310 C 0.39528 0.84309 0.71555 0.0
H311 H 0.49597 0.82413 0.67428 0.0
H312 H 0.42017 0.83101 0.64307 0.0
C313 C 0.40848 0.8504 0.76648 0.0
C314 C 0.64716 0.47363 0.86143 0.0
C315 C 0.65775 0.48367 0.91272 0.0
H316 H 0.5962 0.41895 0.80544 0.0
C317 C 0.61839 0.45015 0.94683 0.0
H318 H 0.67644 0.49917 0.83408 0.0
C319 C 0.57254 0.40416 0.93028 0.0
C320 C 0.56487 0.39106 0.8793 0.0
H321 H 0.62506 0.45674 -0.01355 0.0
H322 H 0.54492 0.37677 0.95774 0.0
C323 C 0.601 0.42784 0.84485 0.0
C324 C 0.39225 0.40408 0.1344 0.0
C325 C 0.33932 0.36857 0.11975 0.0
H326 H 0.45477 0.41975 0.18673 0.0
C327 C 0.30728 0.32406 0.15 0.0
H328 H 0.41764 0.43911 0.11224 0.0
C329 C 0.32707 0.31518 0.19369 0.0
C330 C 0.38041 0.34912 0.20756 0.0
H331 H 0.2662 0.29589 0.14034 0.0
H332 H 0.3012 0.27953 0.21496 0.0
C333 C 0.41304 0.39372 0.17748 0.0
C334 C 0.97808 0.31329 0.31902 0.0
C335 C 0.9844 0.34855 0.28025 0.0
H336 H 1.00051 0.30206 0.391 0.0
C337 C 1.01879 0.40362 0.28742 0.0
H338 H 0.95245 0.27065 0.31492 0.0
C339 C 0.05014 0.42184 0.33095 0.0
C340 C 0.04533 0.38522 0.36836 0.0
H341 H 0.02389 0.43181 0.25842 0.0
H342 H 0.08063 0.46359 0.33355 0.0
C343 C 1.0059 0.33148 0.36311 0.0
C344 C 0.67535 0.98866 0.54179 0.0
C345 C 0.67489 0.03679 0.5375 0.0
H346 H 0.66541 0.91916 0.50461 0.0
C347 C 0.65495 0.04706 0.49342 0.0
H348 H 0.69034 0.97955 0.57511 0.0
C349 C 0.64161 1.01261 0.45247 0.0
C350 C 0.64789 0.96766 0.45555 0.0
H351 H 0.65462 0.08419 0.48879 0.0
H352 H 0.63004 0.02294 0.41774 0.0
C353 C 0.66197 0.95456 0.50117 0.0
C354 C 0.63692 0.6254 0.684 0.0
C355 C 0.65924 0.68017 0.69426 0.0
H356 H 0.63821 0.56699 0.63499 0.0
C357 C 0.69174 0.71745 0.65809 0.0
H358 H 0.61085 0.59577 0.7108 0.0
C359 C 0.70325 0.70131 0.61367 0.0
C360 C 0.68655 0.64734 0.60534 0.0
H361 H 0.70958 0.75996 0.66429 0.0
H362 H 0.72963 0.73206 0.58778 0.0
C363 C 0.65152 0.60902 0.6401 0.0
C364 C 0.08279 0.71283 0.83058 0.0
C365 C 0.0688 0.68566 0.78495 0.0
H366 H 0.05846 0.71717 0.90468 0.0
C367 C 1.0227 0.63529 0.78191 0.0
H368 H 0.11888 0.75108 0.83394 0.0
C369 C 0.98831 0.61502 0.82307 0.0
C370 C 0.99985 0.64527 0.86721 0.0
H371 H 1.01152 0.61355 0.7471 0.0
H372 H 0.95038 0.5784 0.81867 0.0
C373 C 0.04868 0.69301 0.87132 0.0
C374 C 0.41325 0.02354 0.95828 0.0
C375 C 0.40236 0.0657 0.95996 0.0
H376 H 0.40365 0.95349 -0.00462 0.0
C377 C 0.38422 0.07654 0.00456 0.0
H378 H 0.42797 1.01505 0.92441 0.0
C379 C 0.37178 0.04271 0.04531 0.0
C380 C 0.37653 0.99679 0.04205 0.0
H381 H 0.37687 0.10976 0.00706 0.0
H382 H 0.35362 0.04969 0.07765 0.0
C383 C 0.40024 0.98904 -0.00076 0.0
C384 C 0.42568 0.60738 0.85785 0.0
C385 C 0.46429 0.65214 0.88437 0.0
H386 H 0.35334 0.53192 0.86054 0.0
C387 C 0.45945 0.65297 0.93633 0.0
H388 H 0.42796 0.60518 0.8178 0.0
C389 C 0.41649 0.61036 0.961 0.0
C390 C 0.37718 0.5664 0.93413 0.0
H391 H 0.48854 0.68667 0.9579 0.0
H392 H 0.4134 0.61252 0.00097 0.0
C393 C 0.38262 0.56527 0.88235 0.0
C394 C 0.8136 0.4113 0.0103 0.0
C395 C 0.81778 0.45545 0.03652 0.0
H396 H 0.80943 0.33511 0.0146 0.0
C397 C 0.82252 0.4566 0.0885 0.0
H398 H 0.80984 0.40917 0.97019 0.0
C399 C 0.82262 0.41452 0.11377 0.0
C400 C 0.81756 0.36988 0.0878 0.0
H401 H 0.82617 0.49008 0.10987 0.0
H402 H 0.82598 0.41683 0.1539 0.0
C403 C 0.81322 0.36878 0.03572 0.0
C404 C 0.42704 0.81618 0.18702 0.0
C405 C 0.38283 0.81215 0.21317 0.0
H406 H 0.50168 0.81746 0.19066 0.0
C407 C 0.38172 0.80762 0.26523 0.0
H408 H 0.42938 0.81974 0.14689 0.0
C409 C 0.42358 0.80656 0.29042 0.0
C410 C 0.46723 0.80955 0.26408 0.0
H411 H 0.34841 0.80458 0.28654 0.0
H412 H 0.42122 0.8025 0.33052 0.0
C413 C 0.46857 0.81471 0.21212 0.0
C414 C 0.66341 0.4588 0.38004 0.0
C415 C 0.67016 0.45509 0.43126 0.0
H416 H 0.61616 0.42175 0.31564 0.0
C417 C 0.63212 0.40951 0.45728 0.0
H418 H 0.69178 0.49353 0.359 0.0
C419 C 0.58881 0.36801 0.43233 0.0
C420 C 0.58227 0.37163 0.38101 0.0
H421 H 0.63624 0.40543 0.49681 0.0
H422 H 0.56056 0.33311 0.45322 0.0
C423 C 0.6198 0.41773 0.35526 0.0
C424 C 0.22738 0.66011 0.54126 0.0
C425 C 0.22874 0.66207 0.59345 0.0
H426 H 0.22616 0.61764 0.47582 0.0
C427 C 0.22889 0.62004 0.61987 0.0
H428 H 0.22701 0.69162 0.5197 0.0
C429 C 0.22868 0.57757 0.59465 0.0
C430 C 0.2279 0.57594 0.54243 0.0
H431 H 0.22999 0.62026 0.66012 0.0
H432 H 0.22929 0.54613 0.61612 0.0
C433 C 0.22679 0.61751 0.51608 0.0
C434 C 0.62398 0.21995 0.78826 0.0
C435 C 0.58139 0.21883 0.76175 0.0
H436 H 0.69859 0.22096 0.78474 0.0
C437 C 0.58132 0.2158 0.70963 0.0
H438 H 0.6254 0.22231 0.82847 0.0
C439 C 0.62324 0.21473 0.68458 0.0
C440 C 0.66646 0.21714 0.71104 0.0
H441 H 0.54905 0.21459 0.68808 0.0
H442 H 0.62216 0.21301 0.64435 0.0
C443 C 0.66613 0.21935 0.76319 0.0
C444 C 0.30748 0.35717 0.85353 0.0
C445 C 0.25462 0.32548 0.87042 0.0
H446 H 0.37609 0.35813 0.82139 0.0
C447 C 0.22697 0.27079 0.85908 0.0
H448 H 0.3299 0.39931 0.8628 0.0
C449 C 0.25314 0.24714 0.8354 0.0
C450 C 0.30792 0.27758 0.82343 0.0
H451 H 0.18643 0.24547 0.87237 0.0
H452 H 0.23155 0.20415 0.83044 0.0
C453 C 0.33396 0.33343 0.83003 0.0
C454 C 0.96242 0.30002 0.01905 0.0
C455 C 0.94088 0.24716 0.03602 0.0
H456 H 0.0299 0.36778 0.98581 0.0
C457 C 0.96684 0.21864 0.0238 0.0
H458 H 0.94347 0.32308 0.02893 0.0
C459 C 1.01591 0.24384 -0.00118 0.0
C460 C 0.04083 0.29865 -0.01328 0.0
H461 H 0.95129 0.17807 0.03707 0.0
H462 H 0.03639 0.22142 -0.00704 0.0
C463 C 1.01208 0.32566 -0.00545 0.0
C464 C 0.67919 0.95989 0.19294 0.0
C465 C 0.71058 0.93806 0.20903 0.0
H466 H 0.67873 0.02778 0.16082 0.0
C467 C 0.76506 0.96428 0.19677 0.0
H468 H 0.63721 0.94077 0.20293 0.0
C469 C 0.78883 1.0138 0.17266 0.0
C470 C 0.75877 0.03869 0.16113 0.0
H471 H 0.79015 0.94856 0.20944 0.0
H472 H 0.83173 0.03459 0.16684 0.0
C473 C 0.70306 1.00981 0.16893 0.0
C474 C 0.71595 0.69681 0.32827 0.0
C475 C 0.74179 0.75299 0.3242 0.0
H476 H 0.71907 0.62942 0.35856 0.0
C477 C 0.7958 0.78302 0.33871 0.0
H478 H 0.67442 0.67232 0.31758 0.0
C479 C 0.82111 0.75835 0.36209 0.0
C480 C 0.7935 0.70301 0.37068 0.0
H481 H 0.81733 0.82623 0.33583 0.0
H482 H 0.86084 0.78316 0.37726 0.0
C483 C 0.74163 0.67206 0.35141 0.0
C484 C 0.07818 0.8074 0.52491 0.0
C485 C 0.10344 0.77841 0.53788 0.0
H486 H 1.00833 0.80472 0.49495 0.0
C487 C 0.08067 0.72489 0.5226 0.0
H488 H 0.09459 0.84844 0.53708 0.0
C489 C 0.0307 0.69932 0.49886 0.0
C490 C 1.00261 0.72688 0.49061 0.0
H491 H 0.099 0.70148 0.5332 0.0
H492 H 1.012 0.65684 0.49145 0.0
C493 C 0.02849 0.78206 0.50113 0.0
C494 C 0.36566 0.07081 0.69138 0.0
C495 C 0.3339 0.08955 0.71331 0.0
H496 H 0.36691 1.0065 0.65244 0.0
C497 C 0.27843 0.06099 0.70585 0.0
H498 H 0.40851 0.09179 0.69744 0.0
C499 C 0.25457 1.01261 0.67985 0.0
C500 C 0.28557 0.99092 0.66171 0.0
H501 H 0.25312 0.07442 0.72292 0.0
H502 H 0.21133 0.99037 0.6773 0.0
C503 C 0.34171 0.02182 0.66582 0.0
C504 C 0.79809 0.78849 0.96493 0.0
C505 C 0.76854 0.73493 0.98088 0.0
H506 H 0.7967 0.85238 0.92577 0.0
C507 C 0.71223 0.70935 0.97983 0.0
H508 H 0.84142 0.80986 0.96578 0.0
C509 C 0.68655 0.73452 0.95761 0.0
C510 C 0.71683 0.78544 0.93615 0.0
H511 H 0.68813 0.66822 -0.0081 0.0
H512 H 0.64356 0.712 0.95257 0.0
C513 C 0.77252 0.81321 0.94235 0.0
C514 C 0.0251 0.78236 0.13133 0.0
C515 C 0.05134 0.75352 0.14217 0.0
H516 H 0.95725 0.78096 0.09753 0.0
C517 C 1.02264 0.69747 0.13723 0.0
H518 H 0.04584 0.82548 0.13514 0.0
C519 C 0.9713 0.67185 0.11599 0.0
C520 C 0.94791 0.70188 0.09999 0.0
H521 H 0.04176 0.67413 0.14502 0.0
H522 H 0.95248 0.62963 0.10729 0.0
C523 C 0.97403 0.75682 0.11031 0.0
C524 C 0.25271 0.02031 0.28743 0.0
C525 C 0.30544 0.04338 0.30524 0.0
H526 H 0.18894 0.95482 0.2487 0.0
C527 C 0.32994 1.0117 0.30698 0.0
H528 H 0.23242 0.04336 0.28614 0.0
C529 C 0.30444 0.96026 0.2858 0.0
C530 C 0.25417 0.94002 0.26295 0.0
H531 H 0.3706 0.02841 0.32033 0.0
H532 H 0.32628 0.93884 0.28273 0.0
C533 C 0.22748 0.96933 0.26641 0.0
C534 C 0.36228 0.29668 0.45678 0.0
C535 C 0.3316 0.24429 0.4384 0.0
H536 H 0.36126 0.36545 0.48611 0.0
C537 C 0.276 0.21718 0.44568 0.0
H538 H 0.40517 0.31879 0.45089 0.0
C539 C 0.25089 0.24369 0.46564 0.0
C540 C 0.28076 0.29822 0.47829 0.0
H541 H 0.25141 0.17689 0.43165 0.0
H542 H 0.20758 0.22258 0.46723 0.0
C543 C 0.33701 0.32354 0.4766 0.0
C544 C 0.07722 0.35235 0.61894 0.0
C545 C 0.0982 0.32227 0.59748 0.0
H546 H 1.00957 0.35039 0.65463 0.0
C547 C 0.07081 0.26667 0.60435 0.0
H548 H 0.09713 0.39522 0.61328 0.0
C549 C 1.02099 0.24099 0.62802 0.0
C550 C 0.99681 0.27024 0.64461 0.0
H551 H 0.08589 0.24256 0.58771 0.0
H552 H 0.99948 0.19769 0.62952 0.0
C553 C 0.02687 0.32653 0.64242 0.0
C554 C 0.81413 0.06387 0.78123 0.0
C555 C 0.78548 0.08994 0.76996 0.0
H556 H 0.81082 0.99264 0.80807 0.0
C557 C 0.73203 0.06709 0.78588 0.0
H558 H 0.85511 0.08034 0.76868 0.0
C559 C 0.70606 0.01611 0.80796 0.0
C560 C 0.7333 0.98741 0.81403 0.0
H561 H 0.70882 0.08601 0.77657 0.0
H562 H 0.66356 0.99721 0.81553 0.0
C563 C 0.78847 1.01336 0.80338 0.0
C564 C 0.15601 0.39095 0.25244 0.0
C565 C 0.1772 0.36506 0.28104 0.0
H566 H 0.14066 0.40924 0.17951 0.0
C567 C 0.18814 0.32783 0.25832 0.0
H568 H 0.1452 0.41836 0.26934 0.0
C569 C 0.18393 0.3216 0.20663 0.0
C570 C 0.16857 0.35233 0.17788 0.0
H571 H 0.20344 0.30664 0.27982 0.0
H572 H 0.19733 0.29669 0.18891 0.0
C573 C 0.152 0.38482 0.20122 0.0
C574 C 0.86615 0.24352 0.43317 0.0
C575 C 0.85123 0.19442 0.45534 0.0
H576 H 0.87502 0.28573 0.36651 0.0
C577 C 0.83991 0.14979 0.42581 0.0
H578 H 0.87474 0.2782 0.45552 0.0
C579 C 0.83988 0.15378 0.37386 0.0
C580 C 0.85023 0.20214 0.3519 0.0
H581 H 0.82727 0.11124 0.44281 0.0
H582 H 0.82891 0.11873 0.35127 0.0
C583 C 0.86522 0.24728 0.38214 0.0
C584 C 0.70584 0.86108 0.59568 0.0
C585 C 0.66388 0.81587 0.61868 0.0
H586 H 0.74024 0.89928 0.52592 0.0
C587 C 0.63098 0.7705 0.58966 0.0
H588 H 0.73251 0.89599 0.61731 0.0
C589 C 0.63621 0.77194 0.53855 0.0
C590 C 0.67427 0.81872 0.51515 0.0
H591 H 0.59968 0.73394 0.60622 0.0
H592 H 0.60754 0.7379 0.51696 0.0
C593 C 0.71098 0.8625 0.54378 0.0
C594 C 0.8096 0.66767 0.7639 0.0
C595 C 0.85686 0.67683 0.78669 0.0
H596 H 0.76787 0.6542 0.69515 0.0
C597 C 0.90201 0.6882 0.75789 0.0
H598 H 0.77434 0.65802 0.78584 0.0
C599 C 0.8985 0.6861 0.70614 0.0
C600 C 0.84951 0.67168 0.68356 0.0
H601 H 0.93848 0.69437 0.77546 0.0
H602 H 0.93225 0.69101 0.68427 0.0
C603 C 0.80592 0.66506 0.71238 0.0
C604 C 0.17652 0.85423 0.8727 0.0
C605 C 0.2202 0.86177 0.84352 0.0
H606 H 0.14407 0.8427 0.94661 0.0
C607 C 0.26808 0.87273 0.86617 0.0
H608 H 0.13899 0.84507 0.8554 0.0
C609 C 0.27085 0.87089 0.91744 0.0
C610 C 0.22547 0.85737 0.94694 0.0
H611 H 0.302 0.87837 0.84405 0.0
H612 H 0.30802 0.87757 0.93374 0.0
C613 C 0.1791 0.85194 0.92454 0.0
C614 C 0.34044 0.18261 0.04319 0.0
C615 C 0.38375 0.22192 0.01578 0.0
H616 H 0.31101 0.15055 0.11609 0.0
C617 C 0.42691 0.26395 0.04048 0.0
H618 H 0.30713 0.14948 0.02452 0.0
C619 C 0.42982 0.26363 0.09181 0.0
C620 C 0.38937 0.22154 0.11928 0.0
H621 H 0.46057 0.29468 0.01983 0.0
H622 H 0.46488 0.29534 0.10995 0.0
C623 C 0.34313 0.1826 0.09517 0.0
loop_
_geom_bond_atom_site_label_1
_geom_bond_atom_site_label_2
_geom_bond_distance
_geom_bond_site_symmetry_2
_ccdc_geom_bond_type
Sc0 O3 2.025 1_556 S
Sc0 O10 2.105 . S
Sc0 O13 2.105 . S
Sc0 O16 2.105 . S
Sc0 O19 2.105 1_556 S
Sc1 O3 2.025 . S
Sc1 O11 2.105 . S
Sc1 O15 2.105 . S
Sc1 O17 2.105 . S
Sc1 O21 2.105 . S
Sc2 O3 2.025 . S
Sc2 O12 2.105 . S
Sc2 O14 2.105 . S
Sc2 O18 2.105 . S
Sc2 O20 2.105 . S
O3 Sc0 2.025 1_554 S
O3 Sc1 2.025 . S
O3 Sc2 2.025 . S
C4 O10 1.268 1_554 S
C4 O20 1.268 . S
C5 O11 1.268 . S
C5 O19 1.268 . S
C6 O12 1.268 . S
C6 O21 1.268 . S
C7 O13 1.268 . S
C7 O17 1.268 1_556 S
C8 O14 1.268 1_556 S
C8 O16 1.268 . S
C9 O15 1.268 . S
C9 O18 1.268 . S
O10 Sc0 2.105 . S
O10 C4 1.268 1_556 S
O11 Sc1 2.105 . S
O11 C5 1.268 . S
O12 Sc2 2.105 . S
O12 C6 1.268 . S
O13 Sc0 2.105 . S
O13 C7 1.268 . S
O14 Sc2 2.105 . S
O14 C8 1.268 1_554 S
O15 Sc1 2.105 . S
O15 C9 1.268 . S
O16 Sc0 2.105 . S
O16 C8 1.268 . S
O17 Sc1 2.105 . S
O17 C7 1.268 1_554 S
O18 Sc2 2.105 . S
O18 C9 1.268 . S
O19 Sc0 2.105 1_554 S
O19 C5 1.268 . S
O20 Sc2 2.105 . S
O20 C4 1.268 . S
O21 Sc1 2.105 . S
O21 C6 1.268 . S
Sc22 O25 2.025 . S
Sc22 O32 2.105 . S
Sc22 O35 2.105 . S
Sc22 O38 2.105 . S
Sc22 O41 2.105 . S
Sc23 O25 2.025 . S
Sc23 O33 2.105 . S
Sc23 O37 2.105 . S
Sc23 O39 2.105 . S
Sc23 O43 2.105 . S
Sc24 O25 2.025 . S
Sc24 O34 2.105 . S
Sc24 O36 2.105 . S
Sc24 O40 2.105 . S
Sc24 O42 2.105 . S
O25 Sc22 2.025 . S
O25 Sc23 2.025 . S
O25 Sc24 2.025 . S
C26 O32 1.268 . S
C26 O42 1.268 . S
C27 O33 1.268 . S
C27 O41 1.268 . S
C28 O34 1.268 . S
C28 O43 1.268 . S
C29 O35 1.268 . S
C29 O39 1.268 . S
C30 O36 1.268 . S
C30 O38 1.268 . S
C31 O37 1.268 . S
C31 O40 1.268 . S
O32 Sc22 2.105 . S
O32 C26 1.268 . S
O33 Sc23 2.105 . S
O33 C27 1.268 . S
O34 Sc24 2.105 . S
O34 C28 1.268 . S
O35 Sc22 2.105 . S
O35 C29 1.268 . S
O36 Sc24 2.105 . S
O36 C30 1.268 . S
O37 Sc23 2.105 . S
O37 C31 1.268 . S
O38 Sc22 2.105 . S
O38 C30 1.268 . S
O39 Sc23 2.105 . S
O39 C29 1.268 . S
O40 Sc24 2.105 . S
O40 C31 1.268 . S
O41 Sc22 2.105 . S
O41 C27 1.268 . S
O42 Sc24 2.105 . S
O42 C26 1.268 . S
O43 Sc23 2.105 . S
O43 C28 1.268 . S
Sc44 O47 2.025 . S
Sc44 O54 2.105 . S
Sc44 O57 2.105 . S
Sc44 O60 2.105 . S
Sc44 O63 2.105 . S
Sc45 O47 2.025 . S
Sc45 O55 2.105 . S
Sc45 O59 2.105 . S
Sc45 O61 2.105 . S
Sc45 O65 2.105 . S
Sc46 O47 2.025 . S
Sc46 O56 2.105 . S
Sc46 O58 2.105 . S
Sc46 O62 2.105 . S
Sc46 O64 2.105 . S
O47 Sc44 2.025 . S
O47 Sc45 2.025 . S
O47 Sc46 2.025 . S
C48 O54 1.268 . S
C48 O64 1.268 . S
C49 O55 1.268 . S
C49 O63 1.268 . S
C50 O56 1.268 . S
C50 O65 1.268 . S
C51 O57 1.268 . S
C51 O61 1.268 . S
C52 O58 1.268 . S
C52 O60 1.268 . S
C53 O59 1.268 . S
C53 O62 1.268 . S
O54 Sc44 2.105 . S
O54 C48 1.268 . S
O55 Sc45 2.105 . S
O55 C49 1.268 . S
O56 Sc46 2.105 . S
O56 C50 1.268 . S
O57 Sc44 2.105 . S
O57 C51 1.268 . S
O58 Sc46 2.105 . S
O58 C52 1.268 . S
O59 Sc45 2.105 . S
O59 C53 1.268 . S
O60 Sc44 2.105 . S
O60 C52 1.268 . S
O61 Sc45 2.105 . S
O61 C51 1.268 . S
O62 Sc46 2.105 . S
O62 C53 1.268 . S
O63 Sc44 2.105 . S
O63 C49 1.268 . S
O64 Sc46 2.105 . S
O64 C48 1.268 . S
O65 Sc45 2.105 . S
O65 C50 1.268 . S
Sc66 O69 2.025 . S
Sc66 O76 2.105 . S
Sc66 O79 2.105 . S
Sc66 O82 2.105 . S
Sc66 O85 2.105 . S
Sc67 O69 2.025 . S
Sc67 O77 2.105 . S
Sc67 O81 2.105 . S
Sc67 O83 2.105 . S
Sc67 O87 2.105 . S
Sc68 O69 2.025 . S
Sc68 O78 2.105 . S
Sc68 O80 2.105 . S
Sc68 O84 2.105 . S
Sc68 O86 2.105 . S
O69 Sc66 2.025 . S
O69 Sc67 2.025 . S
O69 Sc68 2.025 . S
C70 O76 1.268 . S
C70 O86 1.268 . S
C71 O77 1.268 . S
C71 O85 1.268 . S
C72 O78 1.268 . S
C72 O87 1.268 . S
C73 O79 1.268 . S
C73 O83 1.268 . S
C74 O80 1.268 . S
C74 O82 1.268 . S
C75 O81 1.268 . S
C75 O84 1.268 . S
O76 Sc66 2.105 . S
O76 C70 1.268 . S
O77 Sc67 2.105 . S
O77 C71 1.268 . S
O78 Sc68 2.105 . S
O78 C72 1.268 . S
O79 Sc66 2.105 . S
O79 C73 1.268 . S
O80 Sc68 2.105 . S
O80 C74 1.268 . S
O81 Sc67 2.105 . S
O81 C75 1.268 . S
O82 Sc66 2.105 . S
O82 C74 1.268 . S
O83 Sc67 2.105 . S
O83 C73 1.268 . S
O84 Sc68 2.105 . S
O84 C75 1.268 . S
O85 Sc66 2.105 . S
O85 C71 1.268 . S
O86 Sc68 2.105 . S
O86 C70 1.268 . S
O87 Sc67 2.105 . S
O87 C72 1.268 . S
Sc88 O91 2.025 . S
Sc88 O98 2.105 . S
Sc88 O101 2.105 . S
Sc88 O104 2.105 . S
Sc88 O107 2.105 . S
Sc89 O91 2.025 . S
Sc89 O99 2.105 . S
Sc89 O103 2.105 . S
Sc89 O105 2.105 . S
Sc89 O109 2.105 . S
Sc90 O91 2.025 . S
Sc90 O100 2.105 . S
Sc90 O102 2.105 . S
Sc90 O106 2.105 . S
Sc90 O108 2.105 . S
O91 Sc88 2.025 . S
O91 Sc89 2.025 . S
O91 Sc90 2.025 . S
C92 O98 1.268 . S
C92 O108 1.268 . S
C93 O99 1.268 . S
C93 O107 1.268 . S
C94 O100 1.268 . S
C94 O109 1.268 . S
C95 O101 1.268 . S
C95 O105 1.268 . S
C96 O102 1.268 . S
C96 O104 1.268 . S
C97 O103 1.268 . S
C97 O106 1.268 . S
O98 Sc88 2.105 . S
O98 C92 1.268 . S
O99 Sc89 2.105 . S
O99 C93 1.268 . S
O100 Sc90 2.105 . S
O100 C94 1.268 . S
O101 Sc88 2.105 . S
O101 C95 1.268 . S
O102 Sc90 2.105 . S
O102 C96 1.268 . S
O103 Sc89 2.105 . S
O103 C97 1.268 . S
O104 Sc88 2.105 . S
O104 C96 1.268 . S
O105 Sc89 2.105 . S
O105 C95 1.268 . S
O106 Sc90 2.105 . S
O106 C97 1.268 . S
O107 Sc88 2.105 . S
O107 C93 1.268 . S
O108 Sc90 2.105 . S
O108 C92 1.268 . S
O109 Sc89 2.105 . S
O109 C94 1.268 . S
Sc110 O113 2.025 . S
Sc110 O120 2.105 . S
Sc110 O123 2.105 . S
Sc110 O126 2.105 . S
Sc110 O129 2.105 . S
Sc111 O113 2.025 . S
Sc111 O121 2.105 . S
Sc111 O125 2.105 . S
Sc111 O127 2.105 . S
Sc111 O131 2.105 . S
Sc112 O113 2.025 . S
Sc112 O122 2.105 . S
Sc112 O124 2.105 . S
Sc112 O128 2.105 . S
Sc112 O130 2.105 . S
O113 Sc110 2.025 . S
O113 Sc111 2.025 . S
O113 Sc112 2.025 . S
C114 O120 1.268 . S
C114 O130 1.268 . S
C115 O121 1.268 . S
C115 O129 1.268 . S
C116 O122 1.268 . S
C116 O131 1.268 . S
C117 O123 1.268 1_554 S
C117 O127 1.268 1_554 S
C118 O124 1.268 . S
C118 O126 1.268 . S
C119 O125 1.268 . S
C119 O128 1.268 . S
O120 Sc110 2.105 . S
O120 C114 1.268 . S
O121 Sc111 2.105 . S
O121 C115 1.268 . S
O122 Sc112 2.105 . S
O122 C116 1.268 . S
O123 Sc110 2.105 . S
O123 C117 1.268 1_556 S
O124 Sc112 2.105 . S
O124 C118 1.268 . S
O125 Sc111 2.105 . S
O125 C119 1.268 . S
O126 Sc110 2.105 . S
O126 C118 1.268 . S
O127 Sc111 2.105 . S
O127 C117 1.268 1_556 S
O128 Sc112 2.105 . S
O128 C119 1.268 . S
O129 Sc110 2.105 . S
O129 C115 1.268 . S
O130 Sc112 2.105 . S
O130 C114 1.268 . S
O131 Sc111 2.105 . S
O131 C116 1.268 . S
Sc132 O135 2.025 . S
Sc132 O142 2.105 . S
Sc132 O145 2.105 . S
Sc132 O148 2.105 . S
Sc132 O151 2.105 . S
Sc133 O135 2.025 . S
Sc133 O143 2.105 . S
Sc133 O147 2.105 . S
Sc133 O149 2.105 . S
Sc133 O153 2.105 . S
Sc134 O135 2.025 . S
Sc134 O144 2.105 . S
Sc134 O146 2.105 . S
Sc134 O150 2.105 . S
Sc134 O152 2.105 . S
O135 Sc132 2.025 . S
O135 Sc133 2.025 . S
O135 Sc134 2.025 . S
C136 O142 1.268 . S
C136 O152 1.268 . S
C137 O143 1.268 . S
C137 O151 1.268 . S
C138 O144 1.268 . S
C138 O153 1.268 . S
C139 O145 1.268 . S
C139 O149 1.268 . S
C140 O146 1.268 . S
C140 O148 1.268 . S
C141 O147 1.268 . S
C141 O150 1.268 . S
O142 Sc132 2.105 . S
O142 C136 1.268 . S
O143 Sc133 2.105 . S
O143 C137 1.268 . S
O144 Sc134 2.105 . S
O144 C138 1.268 . S
O145 Sc132 2.105 . S
O145 C139 1.268 . S
O146 Sc134 2.105 . S
O146 C140 1.268 . S
O147 Sc133 2.105 . S
O147 C141 1.268 . S
O148 Sc132 2.105 . S
O148 C140 1.268 . S
O149 Sc133 2.105 . S
O149 C139 1.268 . S
O150 Sc134 2.105 . S
O150 C141 1.268 . S
O151 Sc132 2.105 . S
O151 C137 1.268 . S
O152 Sc134 2.105 . S
O152 C136 1.268 . S
O153 Sc133 2.105 . S
O153 C138 1.268 . S
Sc154 O157 2.025 . S
Sc154 O164 2.105 . S
Sc154 O167 2.105 . S
Sc154 O170 2.105 . S
Sc154 O173 2.105 . S
Sc155 O157 2.025 . S
Sc155 O165 2.105 . S
Sc155 O169 2.105 . S
Sc155 O171 2.105 . S
Sc155 O175 2.105 . S
Sc156 O157 2.025 1_554 S
Sc156 O166 2.105 . S
Sc156 O168 2.105 . S
Sc156 O172 2.105 1_554 S
Sc156 O174 2.105 . S
O157 Sc154 2.025 . S
O157 Sc155 2.025 . S
O157 Sc156 2.025 1_556 S
C158 O164 1.268 1_554 S
C158 O174 1.268 . S
C159 O165 1.268 . S
C159 O173 1.268 . S
C160 O166 1.268 . S
C160 O175 1.268 1_554 S
C161 O167 1.268 . S
C161 O171 1.268 . S
C162 O168 1.268 1_556 S
C162 O170 1.268 . S
C163 O169 1.268 . S
C163 O172 1.268 . S
O164 Sc154 2.105 . S
O164 C158 1.268 1_556 S
O165 Sc155 2.105 . S
O165 C159 1.268 . S
O166 Sc156 2.105 . S
O166 C160 1.268 . S
O167 Sc154 2.105 . S
O167 C161 1.268 . S
O168 Sc156 2.105 . S
O168 C162 1.268 1_554 S
O169 Sc155 2.105 . S
O169 C163 1.268 . S
O170 Sc154 2.105 . S
O170 C162 1.268 . S
O171 Sc155 2.105 . S
O171 C161 1.268 . S
O172 Sc156 2.105 1_556 S
O172 C163 1.268 . S
O173 Sc154 2.105 . S
O173 C159 1.268 . S
O174 Sc156 2.105 . S
O174 C158 1.268 . S
O175 Sc155 2.105 . S
O175 C160 1.268 1_556 S
Sc176 O179 2.025 . S
Sc176 O186 2.105 . S
Sc176 O189 2.105 . S
Sc176 O192 2.105 . S
Sc176 O195 2.105 . S
Sc177 O179 2.025 . S
Sc177 O187 2.105 . S
Sc177 O191 2.105 . S
Sc177 O193 2.105 . S
Sc177 O197 2.105 . S
Sc178 O179 2.025 . S
Sc178 O188 2.105 . S
Sc178 O190 2.105 . S
Sc178 O194 2.105 . S
Sc178 O196 2.105 . S
O179 Sc176 2.025 . S
O179 Sc177 2.025 . S
O179 Sc178 2.025 . S
C180 O186 1.268 . S
C180 O196 1.268 . S
C181 O187 1.268 . S
C181 O195 1.268 . S
C182 O188 1.268 . S
C182 O197 1.268 . S
C183 O189 1.268 1_556 S
C183 O193 1.268 1_556 S
C184 O190 1.268 . S
C184 O192 1.268 . S
C185 O191 1.268 . S
C185 O194 1.268 . S
O186 Sc176 2.105 . S
O186 C180 1.268 . S
O187 Sc177 2.105 . S
O187 C181 1.268 . S
O188 Sc178 2.105 . S
O188 C182 1.268 . S
O189 Sc176 2.105 . S
O189 C183 1.268 1_554 S
O190 Sc178 2.105 . S
O190 C184 1.268 . S
O191 Sc177 2.105 . S
O191 C185 1.268 . S
O192 Sc176 2.105 . S
O192 C184 1.268 . S
O193 Sc177 2.105 . S
O193 C183 1.268 1_554 S
O194 Sc178 2.105 . S
O194 C185 1.268 . S
O195 Sc176 2.105 . S
O195 C181 1.268 . S
O196 Sc178 2.105 . S
O196 C180 1.268 . S
O197 Sc177 2.105 . S
O197 C182 1.268 . S
Sc198 O201 2.025 . S
Sc198 O208 2.105 . S
Sc198 O211 2.105 . S
Sc198 O214 2.105 . S
Sc198 O217 2.105 . S
Sc199 O201 2.025 . S
Sc199 O209 2.105 . S
Sc199 O213 2.105 . S
Sc199 O215 2.105 . S
Sc199 O219 2.105 . S
Sc200 O201 2.025 . S
Sc200 O210 2.105 . S
Sc200 O212 2.105 . S
Sc200 O216 2.105 . S
Sc200 O218 2.105 . S
O201 Sc198 2.025 . S
O201 Sc199 2.025 . S
O201 Sc200 2.025 . S
C202 O208 1.268 . S
C202 O218 1.268 . S
C203 O209 1.268 . S
C203 O217 1.268 . S
C204 O210 1.268 . S
C204 O219 1.268 . S
C205 O211 1.268 . S
C205 O215 1.268 . S
C206 O212 1.268 . S
C206 O214 1.268 . S
C207 O213 1.268 . S
C207 O216 1.268 . S
O208 Sc198 2.105 . S
O208 C202 1.268 . S
O209 Sc199 2.105 . S
O209 C203 1.268 . S
O210 Sc200 2.105 . S
O210 C204 1.268 . S
O211 Sc198 2.105 . S
O211 C205 1.268 . S
O212 Sc200 2.105 . S
O212 C206 1.268 . S
O213 Sc199 2.105 . S
O213 C207 1.268 . S
O214 Sc198 2.105 . S
O214 C206 1.268 . S
O215 Sc199 2.105 . S
O215 C205 1.268 . S
O216 Sc200 2.105 . S
O216 C207 1.268 . S
O217 Sc198 2.105 . S
O217 C203 1.268 . S
O218 Sc200 2.105 . S
O218 C202 1.268 . S
O219 Sc199 2.105 . S
O219 C204 1.268 . S
Sc220 O223 2.025 . S
Sc220 O230 2.105 . S
Sc220 O233 2.105 . S
Sc220 O236 2.105 . S
Sc220 O239 2.105 . S
Sc221 O223 2.025 . S
Sc221 O231 2.105 . S
Sc221 O235 2.105 . S
Sc221 O237 2.105 . S
Sc221 O241 2.105 . S
Sc222 O223 2.025 . S
Sc222 O232 2.105 . S
Sc222 O234 2.105 . S
Sc222 O238 2.105 . S
Sc222 O240 2.105 . S
O223 Sc220 2.025 . S
O223 Sc221 2.025 . S
O223 Sc222 2.025 . S
C224 O230 1.268 . S
C224 O240 1.268 . S
C225 O231 1.268 . S
C225 O239 1.268 . S
C226 O232 1.268 . S
C226 O241 1.268 . S
C227 O233 1.268 . S
C227 O237 1.268 . S
C228 O234 1.268 . S
C228 O236 1.268 . S
C229 O235 1.268 . S
C229 O238 1.268 . S
O230 Sc220 2.105 . S
O230 C224 1.268 . S
O231 Sc221 2.105 . S
O231 C225 1.268 . S
O232 Sc222 2.105 . S
O232 C226 1.268 . S
O233 Sc220 2.105 . S
O233 C227 1.268 . S
O234 Sc222 2.105 . S
O234 C228 1.268 . S
O235 Sc221 2.105 . S
O235 C229 1.268 . S
O236 Sc220 2.105 . S
O236 C228 1.268 . S
O237 Sc221 2.105 . S
O237 C227 1.268 . S
O238 Sc222 2.105 . S
O238 C229 1.268 . S
O239 Sc220 2.105 . S
O239 C225 1.268 . S
O240 Sc222 2.105 . S
O240 C224 1.268 . S
O241 Sc221 2.105 . S
O241 C226 1.268 . S
Sc242 O245 2.025 . S
Sc242 O252 2.105 . S
Sc242 O255 2.105 . S
Sc242 O258 2.105 . S
Sc242 O261 2.105 . S
Sc243 O245 2.025 . S
Sc243 O253 2.105 . S
Sc243 O257 2.105 . S
Sc243 O259 2.105 . S
Sc243 O263 2.105 . S
Sc244 O245 2.025 . S
Sc244 O254 2.105 . S
Sc244 O256 2.105 . S
Sc244 O260 2.105 . S
Sc244 O262 2.105 . S
O245 Sc242 2.025 . S
O245 Sc243 2.025 . S
O245 Sc244 2.025 . S
C246 O252 1.268 . S
C246 O262 1.268 . S
C247 O253 1.268 . S
C247 O261 1.268 . S
C248 O254 1.268 . S
C248 O263 1.268 . S
C249 O255 1.268 . S
C249 O259 1.268 . S
C250 O256 1.268 . S
C250 O258 1.268 . S
C251 O257 1.268 . S
C251 O260 1.268 . S
O252 Sc242 2.105 . S
O252 C246 1.268 . S
O253 Sc243 2.105 . S
O253 C247 1.268 . S
O254 Sc244 2.105 . S
O254 C248 1.268 . S
O255 Sc242 2.105 . S
O255 C249 1.268 . S
O256 Sc244 2.105 . S
O256 C250 1.268 . S
O257 Sc243 2.105 . S
O257 C251 1.268 . S
O258 Sc242 2.105 . S
O258 C250 1.268 . S
O259 Sc243 2.105 . S
O259 C249 1.268 . S
O260 Sc244 2.105 . S
O260 C251 1.268 . S
O261 Sc242 2.105 . S
O261 C247 1.268 . S
O262 Sc244 2.105 . S
O262 C246 1.268 . S
O263 Sc243 2.105 . S
O263 C248 1.268 . S
C264 C265 1.387 . S
C264 H268 0.950 1_554 S
C264 C273 1.390 . S
C265 C264 1.387 . S
C265 C267 1.387 . S
H266 C273 0.950 . S
C267 C265 1.387 . S
C267 C269 1.390 . S
C267 H271 0.950 . S
H268 C264 0.950 1_556 S
C269 C267 1.390 . S
C269 C270 1.387 . S
C269 H272 0.950 . S
C270 C269 1.387 . S
C270 C273 1.387 . S
H271 C267 0.950 . S
H272 C269 0.950 . S
C273 C264 1.390 . S
C273 H266 0.950 . S
C273 C270 1.387 . S
C274 C275 1.387 . S
C274 H278 0.950 . S
C274 C283 1.390 . S
C275 C274 1.387 . S
C275 C277 1.387 . S
H276 C283 0.950 . S
C277 C275 1.387 . S
C277 C279 1.390 . S
C277 H281 0.950 . S
H278 C274 0.950 . S
C279 C277 1.390 . S
C279 C280 1.387 . S
C279 H282 0.950 . S
C280 C279 1.387 . S
C280 C283 1.387 . S
H281 C277 0.950 . S
H282 C279 0.950 . S
C283 C274 1.390 . S
C283 H276 0.950 . S
C283 C280 1.387 . S
C284 C285 1.387 . S
C284 H288 0.950 . S
C284 C293 1.390 . S
C285 C284 1.387 . S
C285 C287 1.387 . S
H286 C293 0.950 . S
C287 C285 1.387 . S
C287 C289 1.390 . S
C287 H291 0.950 . S
H288 C284 0.950 . S
C289 C287 1.390 . S
C289 C290 1.387 . S
C289 H292 0.950 . S
C290 C289 1.387 . S
C290 C293 1.387 . S
H291 C287 0.950 . S
H292 C289 0.950 . S
C293 C284 1.390 . S
C293 H286 0.950 . S
C293 C290 1.387 . S
C294 C295 1.387 . S
C294 H298 0.950 . S
C294 C303 1.390 . S
C295 C294 1.387 . S
C295 C297 1.387 . S
H296 C303 0.950 . S
C297 C295 1.387 . S
C297 C299 1.390 . S
C297 H301 0.950 . S
H298 C294 0.950 . S
C299 C297 1.390 . S
C299 C300 1.387 . S
C299 H302 0.950 . S
C300 C299 1.387 . S
C300 C303 1.387 . S
H301 C297 0.950 . S
H302 C299 0.950 . S
C303 C294 1.390 . S
C303 H296 0.950 . S
C303 C300 1.387 . S
C304 C305 1.387 . S
C304 H308 0.950 . S
C304 C313 1.390 . S
C305 C304 1.387 . S
C305 C307 1.387 . S
H306 C313 0.950 . S
C307 C305 1.387 . S
C307 C309 1.390 . S
C307 H311 0.950 . S
H308 C304 0.950 . S
C309 C307 1.390 . S
C309 C310 1.387 . S
C309 H312 0.950 . S
C310 C309 1.387 . S
C310 C313 1.387 . S
H311 C307 0.950 . S
H312 C309 0.950 . S
C313 C304 1.390 . S
C313 H306 0.950 . S
C313 C310 1.387 . S
C314 C315 1.387 . S
C314 H318 0.950 . S
C314 C323 1.390 . S
C315 C314 1.387 . S
C315 C317 1.387 . S
H316 C323 0.950 . S
C317 C315 1.387 . S
C317 C319 1.390 . S
C317 H321 0.950 . S
H318 C314 0.950 . S
C319 C317 1.390 . S
C319 C320 1.387 . S
C319 H322 0.950 . S
C320 C319 1.387 . S
C320 C323 1.387 . S
H321 C317 0.950 . S
H322 C319 0.950 . S
C323 C314 1.390 . S
C323 H316 0.950 . S
C323 C320 1.387 . S
C324 C325 1.387 . S
C324 H328 0.950 . S
C324 C333 1.390 . S
C325 C324 1.387 . S
C325 C327 1.387 . S
H326 C333 0.950 . S
C327 C325 1.387 . S
C327 C329 1.390 . S
C327 H331 0.950 . S
H328 C324 0.950 . S
C329 C327 1.390 . S
C329 C330 1.387 . S
C329 H332 0.950 . S
C330 C329 1.387 . S
C330 C333 1.387 . S
H331 C327 0.950 . S
H332 C329 0.950 . S
C333 C324 1.390 . S
C333 H326 0.950 . S
C333 C330 1.387 . S
C334 C335 1.387 . S
C334 H338 0.950 . S
C334 C343 1.390 . S
C335 C334 1.387 . S
C335 C337 1.387 1_655 S
H336 C343 0.950 . S
C337 C335 1.387 1_455 S
C337 C339 1.390 . S
C337 H341 0.950 . S
H338 C334 0.950 . S
C339 C337 1.390 . S
C339 C340 1.387 . S
C339 H342 0.950 . S
C340 C339 1.387 . S
C340 C343 1.387 1_455 S
H341 C337 0.950 . S
H342 C339 0.950 . S
C343 C334 1.390 . S
C343 H336 0.950 . S
C343 C340 1.387 1_655 S
C344 C345 1.387 . S
C344 H348 0.950 . S
C344 C353 1.390 1_545 S
C345 C344 1.387 . S
C345 C347 1.387 . S
H346 C353 0.950 . S
C347 C345 1.387 . S
C347 C349 1.390 1_545 S
C347 H351 0.950 . S
H348 C344 0.950 . S
C349 C347 1.390 1_565 S
C349 C350 1.387 . S
C349 H352 0.950 . S
C350 C349 1.387 . S
C350 C353 1.387 . S
H351 C347 0.950 . S
H352 C349 0.950 . S
C353 C344 1.390 1_565 S
C353 H346 0.950 . S
C353 C350 1.387 . S
C354 C355 1.387 . S
C354 H358 0.950 . S
C354 C363 1.390 . S
C355 C354 1.387 . S
C355 C357 1.387 . S
H356 C363 0.950 . S
C357 C355 1.387 . S
C357 C359 1.390 . S
C357 H361 0.950 . S
H358 C354 0.950 . S
C359 C357 1.390 . S
C359 C360 1.387 . S
C359 H362 0.950 . S
C360 C359 1.387 . S
C360 C363 1.387 . S
H361 C357 0.950 . S
H362 C359 0.950 . S
C363 C354 1.390 . S
C363 H356 0.950 . S
C363 C360 1.387 . S
C364 C365 1.387 . S
C364 H368 0.950 . S
C364 C373 1.390 1_455 S
C365 C364 1.387 . S
C365 C367 1.387 . S
H366 C373 0.950 . S
C367 C365 1.387 . S
C367 C369 1.390 1_455 S
C367 H371 0.950 . S
H368 C364 0.950 . S
C369 C367 1.390 1_655 S
C369 C370 1.387 . S
C369 H372 0.950 . S
C370 C369 1.387 . S
C370 C373 1.387 . S
H371 C367 0.950 . S
H372 C369 0.950 . S
C373 C364 1.390 1_655 S
C373 H366 0.950 . S
C373 C370 1.387 . S
C374 C375 1.387 . S
C374 H378 0.950 . S
C374 C383 1.390 1_546 S
C375 C374 1.387 . S
C375 C377 1.387 . S
H376 C383 0.950 . S
C377 C375 1.387 . S
C377 C379 1.390 1_546 S
C377 H381 0.950 . S
H378 C374 0.950 . S
C379 C377 1.390 1_564 S
C379 C380 1.387 . S
C379 H382 0.950 . S
C380 C379 1.387 . S
C380 C383 1.387 . S
H381 C377 0.950 . S
H382 C379 0.950 . S
C383 C374 1.390 1_564 S
C383 H376 0.950 . S
C383 C380 1.387 . S
C384 C385 1.387 . S
C384 H388 0.950 . S
C384 C393 1.390 . S
C385 C384 1.387 . S
C385 C387 1.387 . S
H386 C393 0.950 . S
C387 C385 1.387 . S
C387 C389 1.390 . S
C387 H391 0.950 . S
H388 C384 0.950 . S
C389 C387 1.390 . S
C389 C390 1.387 . S
C389 H392 0.950 1_556 S
C390 C389 1.387 . S
C390 C393 1.387 . S
H391 C387 0.950 . S
H392 C389 0.950 1_554 S
C393 C384 1.390 . S
C393 H386 0.950 . S
C393 C390 1.387 . S
C394 C395 1.387 . S
C394 H398 0.950 . S
C394 C403 1.390 . S
C395 C394 1.387 . S
C395 C397 1.387 . S
H396 C403 0.950 . S
C397 C395 1.387 . S
C397 C399 1.390 . S
C397 H401 0.950 . S
H398 C394 0.950 . S
C399 C397 1.390 . S
C399 C400 1.387 . S
C399 H402 0.950 . S
C400 C399 1.387 . S
C400 C403 1.387 . S
H401 C397 0.950 . S
H402 C399 0.950 . S
C403 C394 1.390 . S
C403 H396 0.950 . S
C403 C400 1.387 . S
C404 C405 1.387 . S
C404 H408 0.950 . S
C404 C413 1.390 . S
C405 C404 1.387 . S
C405 C407 1.387 . S
H406 C413 0.950 . S
C407 C405 1.387 . S
C407 C409 1.390 . S
C407 H411 0.950 . S
H408 C404 0.950 . S
C409 C407 1.390 . S
C409 C410 1.387 . S
C409 H412 0.950 . S
C410 C409 1.387 . S
C410 C413 1.387 . S
H411 C407 0.950 . S
H412 C409 0.950 . S
C413 C404 1.390 . S
C413 H406 0.950 . S
C413 C410 1.387 . S
C414 C415 1.387 . S
C414 H418 0.950 . S
C414 C423 1.390 . S
C415 C414 1.387 . S
C415 C417 1.387 . S
H416 C423 0.950 . S
C417 C415 1.387 . S
C417 C419 1.390 . S
C417 H421 0.950 . S
H418 C414 0.950 . S
C419 C417 1.390 . S
C419 C420 1.387 . S
C419 H422 0.950 . S
C420 C419 1.387 . S
C420 C423 1.387 . S
H421 C417 0.950 . S
H422 C419 0.950 . S
C423 C414 1.390 . S
C423 H416 0.950 . S
C423 C420 1.387 . S
C424 C425 1.387 . S
C424 H428 0.950 . S
C424 C433 1.390 . S
C425 C424 1.387 . S
C425 C427 1.387 . S
H426 C433 0.950 . S
C427 C425 1.387 . S
C427 C429 1.390 . S
C427 H431 0.950 . S
H428 C424 0.950 . S
C429 C427 1.390 . S
C429 C430 1.387 . S
C429 H432 0.950 . S
C430 C429 1.387 . S
C430 C433 1.387 . S
H431 C427 0.950 . S
H432 C429 0.950 . S
C433 C424 1.390 . S
C433 H426 0.950 . S
C433 C430 1.387 . S
C434 C435 1.387 . S
C434 H438 0.950 . S
C434 C443 1.390 . S
C435 C434 1.387 . S
C435 C437 1.387 . S
H436 C443 0.950 . S
C437 C435 1.387 . S
C437 C439 1.390 . S
C437 H441 0.950 . S
H438 C434 0.950 . S
C439 C437 1.390 . S
C439 C440 1.387 . S
C439 H442 0.950 . S
C440 C439 1.387 . S
C440 C443 1.387 . S
H441 C437 0.950 . S
H442 C439 0.950 . S
C443 C434 1.390 . S
C443 H436 0.950 . S
C443 C440 1.387 . S
C444 C445 1.387 . S
C444 H448 0.950 . S
C444 C453 1.390 . S
C445 C444 1.387 . S
C445 C447 1.387 . S
H446 C453 0.950 . S
C447 C445 1.387 . S
C447 C449 1.390 . S
C447 H451 0.950 . S
H448 C444 0.950 . S
C449 C447 1.390 . S
C449 C450 1.387 . S
C449 H452 0.950 . S
C450 C449 1.387 . S
C450 C453 1.387 . S
H451 C447 0.950 . S
H452 C449 0.950 . S
C453 C444 1.390 . S
C453 H446 0.950 . S
C453 C450 1.387 . S
C454 C455 1.387 . S
C454 H458 0.950 . S
C454 C463 1.390 1_655 S
C455 C454 1.387 . S
C455 C457 1.389 . S
H456 C463 0.950 1_556 S
C457 C455 1.389 . S
C457 C459 1.389 1_655 S
C457 H461 0.949 . S
H458 C454 0.950 . S
C459 C457 1.389 1_455 S
C459 C460 1.387 . S
C459 H462 0.950 . S
C460 C459 1.387 . S
C460 C463 1.387 . S
H461 C457 0.949 . S
H462 C459 0.950 . S
C463 C454 1.390 1_455 S
C463 H456 0.950 1_554 S
C463 C460 1.387 . S
C464 C465 1.387 . S
C464 H468 0.950 . S
C464 C473 1.390 1_565 S
C465 C464 1.387 . S
C465 C467 1.387 . S
H466 C473 0.950 . S
C467 C465 1.387 . S
C467 C469 1.390 1_565 S
C467 H471 0.950 . S
H468 C464 0.950 . S
C469 C467 1.390 1_545 S
C469 C470 1.387 . S
C469 H472 0.950 . S
C470 C469 1.387 . S
C470 C473 1.387 . S
H471 C467 0.950 . S
H472 C469 0.950 . S
C473 C464 1.390 1_545 S
C473 H466 0.950 . S
C473 C470 1.387 . S
C474 C475 1.387 . S
C474 H478 0.950 . S
C474 C483 1.390 . S
C475 C474 1.387 . S
C475 C477 1.387 . S
H476 C483 0.950 . S
C477 C475 1.387 . S
C477 C479 1.390 . S
C477 H481 0.950 . S
H478 C474 0.950 . S
C479 C477 1.390 . S
C479 C480 1.387 . S
C479 H482 0.950 . S
C480 C479 1.387 . S
C480 C483 1.387 . S
H481 C477 0.950 . S
H482 C479 0.950 . S
C483 C474 1.390 . S
C483 H476 0.950 . S
C483 C480 1.387 . S
C484 C485 1.387 . S
C484 H488 0.950 . S
C484 C493 1.390 1_455 S
C485 C484 1.387 . S
C485 C487 1.387 . S
H486 C493 0.950 . S
C487 C485 1.387 . S
C487 C489 1.390 1_455 S
C487 H491 0.950 . S
H488 C484 0.950 . S
C489 C487 1.390 1_655 S
C489 C490 1.387 . S
C489 H492 0.950 . S
C490 C489 1.387 . S
C490 C493 1.387 . S
H491 C487 0.950 . S
H492 C489 0.950 . S
C493 C484 1.390 1_655 S
C493 H486 0.950 . S
C493 C490 1.387 . S
C494 C495 1.387 . S
C494 H498 0.950 . S
C494 C503 1.390 1_545 S
C495 C494 1.387 . S
C495 C497 1.387 . S
H496 C503 0.950 . S
C497 C495 1.387 . S
C497 C499 1.390 1_545 S
C497 H501 0.950 . S
H498 C494 0.950 . S
C499 C497 1.390 1_565 S
C499 C500 1.387 . S
C499 H502 0.950 . S
C500 C499 1.387 . S
C500 C503 1.387 . S
H501 C497 0.950 . S
H502 C499 0.950 . S
C503 C494 1.390 1_565 S
C503 H496 0.950 . S
C503 C500 1.387 . S
C504 C505 1.387 . S
C504 H508 0.950 . S
C504 C513 1.390 . S
C505 C504 1.387 . S
C505 C507 1.387 . S
H506 C513 0.950 . S
C507 C505 1.387 . S
C507 C509 1.390 . S
C507 H511 0.950 . S
H508 C504 0.950 . S
C509 C507 1.390 . S
C509 C510 1.387 . S
C509 H512 0.950 . S
C510 C509 1.387 . S
C510 C513 1.387 . S
H511 C507 0.950 . S
H512 C509 0.950 . S
C513 C504 1.390 . S
C513 H506 0.950 . S
C513 C510 1.387 . S
C514 C515 1.387 . S
C514 H518 0.950 . S
C514 C523 1.390 1_455 S
C515 C514 1.387 . S
C515 C517 1.387 . S
H516 C523 0.950 . S
C517 C515 1.387 . S
C517 C519 1.390 1_455 S
C517 H521 0.950 . S
H518 C514 0.950 . S
C519 C517 1.390 1_655 S
C519 C520 1.387 . S
C519 H522 0.950 . S
C520 C519 1.387 . S
C520 C523 1.387 . S
H521 C517 0.950 . S
H522 C519 0.950 . S
C523 C514 1.390 1_655 S
C523 H516 0.950 . S
C523 C520 1.387 . S
C524 C525 1.387 . S
C524 H528 0.950 . S
C524 C533 1.390 1_545 S
C525 C524 1.387 . S
C525 C527 1.387 . S
H526 C533 0.950 . S
C527 C525 1.387 . S
C527 C529 1.390 1_545 S
C527 H531 0.950 . S
H528 C524 0.950 . S
C529 C527 1.390 1_565 S
C529 C530 1.387 . S
C529 H532 0.950 . S
C530 C529 1.387 . S
C530 C533 1.387 . S
H531 C527 0.950 . S
H532 C529 0.950 . S
C533 C524 1.390 1_565 S
C533 H526 0.950 . S
C533 C530 1.387 . S
C534 C535 1.387 . S
C534 H538 0.950 . S
C534 C543 1.390 . S
C535 C534 1.387 . S
C535 C537 1.387 . S
H536 C543 0.950 . S
C537 C535 1.387 . S
C537 C539 1.390 . S
C537 H541 0.950 . S
H538 C534 0.950 . S
C539 C537 1.390 . S
C539 C540 1.387 . S
C539 H542 0.950 . S
C540 C539 1.387 . S
C540 C543 1.387 . S
H541 C537 0.950 . S
H542 C539 0.950 . S
C543 C534 1.390 . S
C543 H536 0.950 . S
C543 C540 1.387 . S
C544 C545 1.387 . S
C544 H548 0.950 . S
C544 C553 1.390 1_455 S
C545 C544 1.387 . S
C545 C547 1.387 . S
H546 C553 0.950 . S
C547 C545 1.387 . S
C547 C549 1.390 1_455 S
C547 H551 0.950 . S
H548 C544 0.950 . S
C549 C547 1.390 1_655 S
C549 C550 1.387 . S
C549 H552 0.950 . S
C550 C549 1.387 . S
C550 C553 1.387 . S
H551 C547 0.950 . S
H552 C549 0.950 . S
C553 C544 1.390 1_655 S
C553 H546 0.950 . S
C553 C550 1.387 . S
C554 C555 1.405 . S
C554 H558 0.950 . S
C554 C563 1.373 1_545 S
C555 C554 1.405 . S
C555 C557 1.387 . S
H556 C563 0.950 . S
C557 C555 1.387 . S
C557 C559 1.390 1_545 S
C557 H561 0.950 . S
H558 C554 0.950 . S
C559 C557 1.390 1_565 S
C559 C560 1.387 . S
C559 H562 0.950 . S
C560 C559 1.387 . S
C560 C563 1.387 . S
H561 C557 0.950 . S
H562 C559 0.950 . S
C563 C554 1.373 1_565 S
C563 H556 0.950 . S
C563 C560 1.387 . S
C564 C565 1.387 . S
C564 H568 0.950 . S
C564 C573 1.390 . S
C565 C564 1.387 . S
C565 C567 1.387 . S
H566 C573 0.950 . S
C567 C565 1.387 . S
C567 C569 1.390 . S
C567 H571 0.950 . S
H568 C564 0.950 . S
C569 C567 1.390 . S
C569 C570 1.387 . S
C569 H572 0.950 . S
C570 C569 1.387 . S
C570 C573 1.387 . S
H571 C567 0.950 . S
H572 C569 0.950 . S
C573 C564 1.390 . S
C573 H566 0.950 . S
C573 C570 1.387 . S
C574 C575 1.387 . S
C574 H578 0.950 . S
C574 C583 1.390 . S
C575 C574 1.387 . S
C575 C577 1.387 . S
H576 C583 0.950 . S
C577 C575 1.387 . S
C577 C579 1.390 . S
C577 H581 0.950 . S
H578 C574 0.950 . S
C579 C577 1.390 . S
C579 C580 1.387 . S
C579 H582 0.950 . S
C580 C579 1.387 . S
C580 C583 1.387 . S
H581 C577 0.950 . S
H582 C579 0.950 . S
C583 C574 1.390 . S
C583 H576 0.950 . S
C583 C580 1.387 . S
C584 C585 1.387 . S
C584 H588 0.950 . S
C584 C593 1.390 . S
C585 C584 1.387 . S
C585 C587 1.387 . S
H586 C593 0.950 . S
C587 C585 1.387 . S
C587 C589 1.390 . S
C587 H591 0.950 . S
H588 C584 0.950 . S
C589 C587 1.390 . S
C589 C590 1.387 . S
C589 H592 0.950 . S
C590 C589 1.387 . S
C590 C593 1.387 . S
H591 C587 0.950 . S
H592 C589 0.950 . S
C593 C584 1.390 . S
C593 H586 0.950 . S
C593 C590 1.387 . S
C594 C595 1.387 . S
C594 H598 0.950 . S
C594 C603 1.390 . S
C595 C594 1.387 . S
C595 C597 1.387 . S
H596 C603 0.950 . S
C597 C595 1.387 . S
C597 C599 1.390 . S
C597 H601 0.950 . S
H598 C594 0.950 . S
C599 C597 1.390 . S
C599 C600 1.387 . S
C599 H602 0.950 . S
C600 C599 1.387 . S
C600 C603 1.387 . S
H601 C597 0.950 . S
H602 C599 0.950 . S
C603 C594 1.390 . S
C603 H596 0.950 . S
C603 C600 1.387 . S
C604 C605 1.387 . S
C604 H608 0.950 . S
C604 C613 1.390 . S
C605 C604 1.387 . S
C605 C607 1.387 . S
H606 C613 0.950 . S
C607 C605 1.387 . S
C607 C609 1.390 . S
C607 H611 0.950 . S
H608 C604 0.950 . S
C609 C607 1.390 . S
C609 C610 1.387 . S
C609 H612 0.950 . S
C610 C609 1.387 . S
C610 C613 1.387 . S
H611 C607 0.950 . S
H612 C609 0.950 . S
C613 C604 1.390 . S
C613 H606 0.950 . S
C613 C610 1.387 . S
C614 C615 1.387 . S
C614 H618 0.950 . S
C614 C623 1.390 . S
C615 C614 1.387 . S
C615 C617 1.387 . S
H616 C623 0.950 . S
C617 C615 1.387 . S
C617 C619 1.390 . S
C617 H621 0.950 . S
H618 C614 0.950 . S
C619 C617 1.390 . S
C619 C620 1.387 . S
C619 H622 0.950 . S
C620 C619 1.387 . S
C620 C623 1.387 . S
H621 C617 0.950 . S
H622 C619 0.950 . S
C623 C614 1.390 . S
C623 H616 0.950 . S
C623 C620 1.387 . S
C265 C5 1.520 . S
C270 C185 1.523 . S
C275 C207 1.522 . S
C280 C31 1.522 . S
C285 C229 1.521 . S
C290 C49 1.523 . S
C295 C75 1.520 . S
C300 C251 1.522 . S
C305 C141 1.522 . S
C310 C93 1.522 . S
C315 C163 1.523 . S
C320 C119 1.521 . S
C325 C9 1.124 . S
C330 C203 1.122 . S
C335 C27 1.120 . S
C340 C225 1.118 . S
C345 C247 1.117 . S
C350 C53 1.117 . S
C355 C137 1.122 . S
C360 C71 1.124 . S
C365 C97 1.118 . S
C370 C159 1.117 . S
C375 C115 1.123 . S
C380 C181 1.123 . S
C385 C138 1.365 . S
C390 C7 1.368 . S
C395 C160 1.366 . S
C400 C28 1.367 . S
C405 C182 1.365 . S
C410 C51 1.365 . S
C415 C72 1.366 . S
C420 C204 1.365 . S
C425 C95 1.367 . S
C430 C226 1.364 . S
C435 C116 1.366 . S
C440 C248 1.366 . S
C445 C8 1.804 . S
C450 C118 1.785 . S
C455 C26 1.803 . S
C460 C4 1.785 . S
C465 C52 1.802 . S
C470 C30 1.784 . S
C475 C48 1.785 . S
C480 C70 1.804 . S
C485 C96 1.803 . S
C490 C74 1.786 . S
C495 C114 1.803 . S
C500 C92 1.784 . S
C505 C162 1.786 . S
C510 C136 1.803 . S
C515 C184 1.785 . S
C520 C158 1.802 . S
C525 C206 1.786 . S
C530 C180 1.803 . S
C535 C202 1.803 . S
C540 C228 1.784 . S
C545 C224 1.804 . S
C550 C250 1.785 . S
C555 C246 1.802 . S
C560 C140 1.784 . S
C565 C227 0.784 . S
C570 C6 0.784 . S
C575 C249 0.784 . S
C580 C29 0.784 . S
C585 C139 0.787 . S
C590 C50 0.786 . S
C595 C161 0.784 . S
C600 C73 0.784 . S
C605 C94 0.789 . S
C610 C183 0.789 . S
C615 C117 0.789 . S
C620 C205 0.790 . S
