# Generated by pormake.
# Topology vma, (5)-cn, num edge types: 1
# Building blocks:
#     Node 0, Type 0, BuildingBlock: XOMCOT_clean_sbu_1, # of connection points: 5
#     Node 1, Type 0, BuildingBlock: XOMCOT_clean_sbu_1, # of connection points: 5
#     Node 2, Type 0, BuildingBlock: XOMCOT_clean_sbu_1, # of connection points: 5
#     Node 3, Type 0, BuildingBlock: XOMCOT_clean_sbu_1, # of connection points: 5
#     Node 4, Type 0, BuildingBlock: XOMCOT_clean_sbu_1, # of connection points: 5
#     Node 5, Type 0, BuildingBlock: XOMCOT_clean_sbu_1, # of connection points: 5
#     Node 6, Type 0, BuildingBlock: XOMCOT_clean_sbu_1, # of connection points: 5
#     Node 7, Type 0, BuildingBlock: XOMCOT_clean_sbu_1, # of connection points: 5
#     Edge 8, Type (0, 0), BuildingBlock: CIFDUS_clean_linker_0, # of connection points: 2
#     Edge 9, Type (0, 0), BuildingBlock: CIFDUS_clean_linker_0, # of connection points: 2
#     Edge 10, Type (0, 0), BuildingBlock: CIFDUS_clean_linker_0, # of connection points: 2
#     Edge 11, Type (0, 0), BuildingBlock: CIFDUS_clean_linker_0, # of connection points: 2
#     Edge 12, Type (0, 0), BuildingBlock: CIFDUS_clean_linker_0, # of connection points: 2
#     Edge 13, Type (0, 0), BuildingBlock: CIFDUS_clean_linker_0, # of connection points: 2
#     Edge 14, Type (0, 0), BuildingBlock: CIFDUS_clean_linker_0, # of connection points: 2
#     Edge 15, Type (0, 0), BuildingBlock: CIFDUS_clean_linker_0, # of connection points: 2
#     Edge 16, Type (0, 0), BuildingBlock: CIFDUS_clean_linker_0, # of connection points: 2
#     Edge 17, Type (0, 0), BuildingBlock: CIFDUS_clean_linker_0, # of connection points: 2
#     Edge 18, Type (0, 0), BuildingBlock: CIFDUS_clean_linker_0, # of connection points: 2
#     Edge 19, Type (0, 0), BuildingBlock: CIFDUS_clean_linker_0, # of connection points: 2
#     Edge 20, Type (0, 0), BuildingBlock: CIFDUS_clean_linker_0, # of connection points: 2
#     Edge 21, Type (0, 0), BuildingBlock: CIFDUS_clean_linker_0, # of connection points: 2
#     Edge 22, Type (0, 0), BuildingBlock: CIFDUS_clean_linker_0, # of connection points: 2
#     Edge 23, Type (0, 0), BuildingBlock: CIFDUS_clean_linker_0, # of connection points: 2
#     Edge 24, Type (0, 0), BuildingBlock: CIFDUS_clean_linker_0, # of connection points: 2
#     Edge 25, Type (0, 0), BuildingBlock: CIFDUS_clean_linker_0, # of connection points: 2
#     Edge 26, Type (0, 0), BuildingBlock: CIFDUS_clean_linker_0, # of connection points: 2
#     Edge 27, Type (0, 0), BuildingBlock: CIFDUS_clean_linker_0, # of connection points: 2
# Relax obj value: 0.096
# Max RMSD: 0.173
# Mean RMSD: 0.169
data_MOF--net-vma--node1-XOMCOT_clean_sbu_1--edge1-CIFDUS_clean_linker_0
_symmetry_space_group_name_H-M    P1
_symmetry_Int_Tables_number       1
_symmetry_cell_setting            triclinic
loop_
_symmetry_equiv_pos_as_xyz
'x, y, z'
_cell_length_a     36.339786
_cell_length_b     25.549419
_cell_length_c     32.738285
_cell_angle_alpha  89.835197
_cell_angle_beta   99.889745
_cell_angle_gamma 90.013177
loop_
_atom_site_label
_atom_site_type_symbol
_atom_site_fract_x
_atom_site_fract_y
_atom_site_fract_z
_atom_type_partial_charge
C0 C 0.36934 0.05515 0.30457 0.0
C1 C 0.40125 0.05357 0.28714 0.0
N2 N 0.42972 0.07411 0.31425 0.0
N3 N 0.37744 0.07629 0.34273 0.0
C4 C 0.41433 0.08785 0.34757 0.0
H5 H 0.342 0.04128 0.29044 0.0
Co6 Co 0.34386 0.08707 0.38006 0.0
C7 C 0.38802 0.05404 0.46086 0.0
O8 O 0.3583 0.03137 0.47057 0.0
N9 N 0.30961 0.09917 0.41858 0.0
C10 C 0.26752 0.09064 0.46074 0.0
C11 C 0.28665 0.06529 0.43396 0.0
C12 C 0.30348 0.14513 0.43714 0.0
N13 N 0.27797 0.14115 0.46284 0.0
O14 O 0.35149 0.16078 0.37573 0.0
H15 H 0.28475 0.02377 0.42812 0.0
H16 H 0.31757 0.18112 0.43197 0.0
O17 O 0.38573 0.07831 0.42628 0.0
C18 C 0.3267 0.16992 0.34373 0.0
O19 O 0.3057 0.13076 0.32759 0.0
N20 N 0.3326 0.01609 0.37704 0.0
C21 C 0.3092 0.91788 0.34635 0.0
C22 C 0.34519 0.92484 0.36975 0.0
C23 C 0.3566 0.97475 0.38454 0.0
C24 C 0.2978 0.00968 0.35432 0.0
C25 C 0.2852 0.96095 0.33977 0.0
H26 H 0.38523 0.9807 0.39934 0.0
H27 H 0.27972 0.04314 0.34681 0.0
H28 H 0.42949 0.10674 0.37487 0.0
H29 H 0.40332 0.03744 0.2571 0.0
H30 H 0.24838 0.07245 0.47838 0.0
H31 H 0.36494 0.89277 0.37466 0.0
H32 H 0.25709 0.95749 0.32251 0.0
C33 C 0.69196 0.07054 0.25649 0.0
C34 C 0.66083 0.06763 0.27539 0.0
N35 N 0.63084 0.08414 0.24824 0.0
N36 N 0.68177 0.08851 0.21744 0.0
C37 C 0.64456 0.0971 0.21362 0.0
H38 H 0.72007 0.05908 0.27003 0.0
Co39 Co 0.71228 0.09723 0.17672 0.0
C40 C 0.66248 0.05932 0.10077 0.0
O41 O 0.69001 0.03319 0.0892 0.0
N42 N 0.7433 0.10715 0.13442 0.0
C43 C 0.78226 0.09606 0.08901 0.0
C44 C 0.76386 0.07181 0.11719 0.0
C45 C 0.74979 0.1527 0.11525 0.0
N46 N 0.77354 0.1472 0.08779 0.0
O47 O 0.70389 0.17047 0.17864 0.0
H48 H 0.76496 0.03027 0.12337 0.0
H49 H 0.73753 0.18967 0.12146 0.0
O50 O 0.66844 0.08652 0.13394 0.0
C51 C 0.73243 0.18392 0.20495 0.0
O52 O 0.7572 0.148 0.21932 0.0
N53 N 0.72403 0.02655 0.18147 0.0
C54 C 0.74923 0.929 0.2121 0.0
C55 C 0.71218 0.93565 0.19166 0.0
C56 C 0.69985 0.98527 0.17707 0.0
C57 C 0.75987 0.02054 0.20154 0.0
C58 C 0.77326 0.97207 0.21629 0.0
H59 H 0.6706 0.991 0.16475 0.0
H60 H 0.77813 0.05411 0.20683 0.0
H61 H 0.62781 0.11279 0.18587 0.0
H62 H 0.66029 0.05286 0.30629 0.0
H63 H 0.79993 0.07696 0.07013 0.0
H64 H 0.69248 0.90351 0.1889 0.0
H65 H 0.80204 0.96867 0.23164 0.0
C66 C 0.65687 0.98668 0.59568 0.0
C67 C 0.63063 0.01256 0.56752 0.0
N68 N 0.59701 0.99067 0.56827 0.0
N69 N 0.63999 0.94845 0.61409 0.0
C70 C 0.60351 0.9518 0.59677 0.0
H71 H 0.6864 -0.00455 0.60267 0.0
Co72 Co 0.66419 0.90344 0.65525 0.0
C73 C 0.60094 0.86041 0.69363 0.0
O74 O 0.61298 0.812 0.69284 0.0
N75 N 0.6886 0.85874 0.69673 0.0
C76 C 0.71201 0.82456 0.7583 0.0
C77 C 0.68934 0.86296 0.73802 0.0
C78 C 0.71077 0.8173 0.69269 0.0
N79 N 0.72528 0.79595 0.72963 0.0
O80 O 0.65324 0.84437 0.61813 0.0
H81 H 0.67449 0.89236 0.7525 0.0
H82 H 0.71682 0.80332 0.66344 0.0
O83 O 0.61829 0.89719 0.67842 0.0
C84 C 0.67761 0.8464 0.59411 0.0
O85 O 0.70096 0.88609 0.59833 0.0
N86 N 0.679 0.96112 0.68885 0.0
C87 C 0.71067 0.0493 0.73074 0.0
C88 C 0.67175 0.04205 0.72366 0.0
C89 C 0.65634 -0.00248 0.7023 0.0
C90 C 0.71673 0.96732 0.69596 0.0
C91 C 0.73316 0.01047 0.71745 0.0
H92 H 0.62638 -0.00653 0.69508 0.0
H93 H 0.73419 0.93875 0.68417 0.0
H94 H 0.58218 0.92596 0.60468 0.0
H95 H 0.63583 0.04565 0.54859 0.0
H96 H 0.71778 0.81758 0.79142 0.0
H97 H 0.65339 0.07151 0.73284 0.0
H98 H 0.76331 0.01399 0.72268 0.0
C99 C 0.40802 0.98415 0.94251 0.0
C100 C 0.43783 0.00371 0.96956 0.0
N101 N 0.46638 0.96957 0.97218 0.0
N102 N 0.41755 0.93809 0.92709 0.0
C103 C 0.45288 0.92944 0.94705 0.0
H104 H 0.38129 0.00324 0.93472 0.0
Co105 Co 0.38801 0.89551 0.88689 0.0
C106 C 0.45992 0.90466 0.85388 0.0
O107 O 0.4625 0.95395 0.86542 0.0
N108 N 0.35869 0.8534 0.84791 0.0
C109 C 0.33493 0.81295 0.78931 0.0
C110 C 0.36166 0.84743 0.80762 0.0
C111 C 0.33022 0.82165 0.85347 0.0
N112 N 0.31533 0.79673 0.81825 0.0
O113 O 0.39561 0.83653 0.92513 0.0
H114 H 0.38259 0.86558 0.79255 0.0
H115 H 0.32082 0.81617 0.88279 0.0
O116 O 0.43242 0.87688 0.86147 0.0
C117 C 0.37304 0.84182 0.95094 0.0
O118 O 0.35348 0.88529 0.94912 0.0
N119 N 0.37517 0.95375 0.85133 0.0
C120 C 0.34401 0.0423 0.80884 0.0
C121 C 0.37275 0.01489 0.79481 0.0
C122 C 0.38781 0.97019 0.81632 0.0
C123 C 0.34495 0.97753 0.86268 0.0
C124 C 0.3296 0.02258 0.8427 0.0
H125 H 0.40871 0.94878 0.80374 0.0
H126 H 0.33314 0.96179 0.88827 0.0
H127 H 0.4687 0.89484 0.94219 0.0
H128 H 0.43862 0.0413 0.9848 0.0
H129 H 0.3314 0.79873 0.75775 0.0
H130 H 0.38364 0.02812 0.76776 0.0
H131 H 0.30645 0.0417 0.85348 0.0
C132 C 0.86927 0.56616 0.30247 0.0
C133 C 0.90102 0.56245 0.28492 0.0
N134 N 0.93047 0.57901 0.31271 0.0
N135 N 0.87837 0.58484 0.34136 0.0
C136 C 0.91582 0.59257 0.3466 0.0
H137 H 0.84134 0.55517 0.28798 0.0
Co138 Co 0.84495 0.59574 0.37904 0.0
C139 C 0.89212 0.56132 0.4579 0.0
O140 O 0.8647 0.53339 0.46798 0.0
N141 N 0.81088 0.60764 0.41773 0.0
C142 C 0.76862 0.59764 0.45945 0.0
C143 C 0.79116 0.57236 0.43614 0.0
C144 C 0.79963 0.65434 0.4312 0.0
N145 N 0.77369 0.6496 0.45637 0.0
O146 O 0.8525 0.6691 0.37475 0.0
H147 H 0.79272 0.53036 0.4332 0.0
H148 H 0.81035 0.69138 0.42265 0.0
O149 O 0.88685 0.58825 0.42451 0.0
C150 C 0.82815 0.67841 0.34245 0.0
O151 O 0.80728 0.63942 0.32572 0.0
N152 N 0.83393 0.52472 0.37623 0.0
C153 C 0.81257 0.42884 0.33917 0.0
C154 C 0.84787 0.43498 0.36442 0.0
C155 C 0.85841 0.48382 0.38195 0.0
C156 C 0.79907 0.51856 0.35365 0.0
C157 C 0.78779 0.47122 0.33508 0.0
H158 H 0.88698 0.48966 0.39694 0.0
H159 H 0.78068 0.55193 0.34747 0.0
H160 H 0.93203 0.60817 0.3747 0.0
H161 H 0.90229 0.5474 0.25433 0.0
H162 H 0.74971 0.57859 0.47688 0.0
H163 H 0.868 0.40337 0.36868 0.0
H164 H 0.76082 0.46958 0.31508 0.0
C165 C 0.19183 0.55335 0.25384 0.0
C166 C 0.1605 0.55125 0.27245 0.0
N167 N 0.13158 0.57281 0.24651 0.0
N168 N 0.18282 0.57592 0.21616 0.0
C169 C 0.14611 0.58785 0.2129 0.0
H170 H 0.21927 0.53845 0.26663 0.0
Co171 Co 0.21388 0.58753 0.176 0.0
C172 C 0.16158 0.55146 0.10057 0.0
O173 O 0.18757 0.52233 0.08883 0.0
N174 N 0.24513 0.60065 0.13437 0.0
C175 C 0.28126 0.592 0.08585 0.0
C176 C 0.261 0.566 0.11142 0.0
C177 C 0.25673 0.64775 0.12173 0.0
N178 N 0.27875 0.64378 0.09224 0.0
O179 O 0.20644 0.66068 0.18131 0.0
H180 H 0.25815 0.52397 0.11259 0.0
H181 H 0.24937 0.68458 0.13417 0.0
O182 O 0.16952 0.57987 0.13295 0.0
C183 C 0.23176 0.66931 0.21286 0.0
O184 O 0.2532 0.63008 0.22833 0.0
N185 N 0.22534 0.51643 0.17769 0.0
C186 C 0.25035 0.41846 0.20798 0.0
C187 C 0.21281 0.42606 0.18953 0.0
C188 C 0.20065 0.47581 0.17504 0.0
C189 C 0.26188 0.50928 0.19502 0.0
C190 C 0.2751 0.46057 0.20965 0.0
H191 H 0.17114 0.48245 0.16479 0.0
H192 H 0.28067 0.54238 0.19923 0.0
H193 H 0.13032 0.60762 0.18634 0.0
H194 H 0.15903 0.53379 0.30227 0.0
H195 H 0.29615 0.57368 0.0638 0.0
H196 H 0.1926 0.39474 0.18863 0.0
H197 H 0.30426 0.45642 0.22342 0.0
C198 C 0.15148 0.46352 0.59331 0.0
C199 C 0.12125 0.48358 0.56674 0.0
N200 N 0.08982 0.4628 0.57675 0.0
N201 N 0.13933 0.43007 0.61995 0.0
C202 C 0.10175 0.4302 0.60895 0.0
H203 H 0.18046 0.47359 0.59383 0.0
Co204 Co 0.16944 0.39648 0.66436 0.0
C205 C 0.10215 0.35213 0.69926 0.0
O206 O 0.09894 0.3061 0.68125 0.0
N207 N 0.19922 0.36269 0.70951 0.0
C208 C 0.22105 0.33908 0.77454 0.0
C209 C 0.19667 0.37123 0.74962 0.0
C210 C 0.22559 0.32497 0.71097 0.0
N211 N 0.23929 0.30983 0.75028 0.0
O212 O 0.16453 0.33169 0.63362 0.0
H213 H 0.17786 0.39882 0.7602 0.0
H214 H 0.2345 0.30861 0.68389 0.0
O215 O 0.12708 0.38422 0.69188 0.0
C216 C 0.19069 0.33491 0.61201 0.0
O217 O 0.21166 0.37716 0.61637 0.0
N218 N 0.17751 0.46071 0.69147 0.0
C219 C 0.19598 0.55734 0.72782 0.0
C220 C 0.15847 0.54281 0.71655 0.0
C221 C 0.14974 0.49384 0.69845 0.0
C222 C 0.21403 0.47521 0.70111 0.0
C223 C 0.22393 0.52298 0.72011 0.0
H224 H 0.12076 0.48308 0.68919 0.0
H225 H 0.23563 0.44948 0.69382 0.0
H226 H 0.08339 0.40826 0.62524 0.0
H227 H 0.12253 0.51155 0.54216 0.0
H228 H 0.22407 0.33624 0.80793 0.0
H229 H 0.13627 0.56914 0.72138 0.0
H230 H 0.25316 0.53376 0.7275 0.0
C231 C 0.90505 0.48556 0.9458 0.0
C232 C 0.93389 0.50274 0.97554 0.0
N233 N 0.96033 0.46513 0.98216 0.0
N234 N 0.91336 0.43766 0.93282 0.0
C235 C 0.94614 0.42518 0.95712 0.0
H236 H 0.88069 0.50811 0.93263 0.0
Co237 Co 0.88713 0.40094 0.88706 0.0
C238 C 0.9667 0.40063 0.86516 0.0
O239 O 0.98041 0.43879 0.88995 0.0
N240 N 0.86149 0.36421 0.841 0.0
C241 C 0.84657 0.33945 0.77522 0.0
C242 C 0.8656 0.37532 0.80164 0.0
C243 C 0.83975 0.3208 0.83755 0.0
N244 N 0.8306 0.30476 0.79773 0.0
O245 O 0.89112 0.33763 0.92 0.0
H246 H 0.88261 0.4066 0.79265 0.0
H247 H 0.8324 0.29971 0.86368 0.0
O248 O 0.93301 0.38533 0.86418 0.0
C249 C 0.86376 0.34063 0.93989 0.0
O250 O 0.84245 0.38249 0.9339 0.0
N251 N 0.87813 0.464 0.85708 0.0
C252 C 0.85163 0.55772 0.8195 0.0
C253 C 0.88998 0.54678 0.82689 0.0
C254 C 0.90275 0.49922 0.84551 0.0
C255 C 0.84083 0.47471 0.85043 0.0
C256 C 0.82692 0.52085 0.83108 0.0
H257 H 0.93222 0.49208 0.85154 0.0
H258 H 0.8217 0.44725 0.8608 0.0
H259 H 0.96055 0.38876 0.95403 0.0
H260 H 0.93624 0.5416 0.98874 0.0
H261 H 0.84547 0.33823 0.74199 0.0
H262 H 0.90983 0.57492 0.81872 0.0
H263 H 0.79716 0.5285 0.82661 0.0
H264 H 0.24946 0.33351 0.57186 0.0
H265 H 0.15447 0.24076 0.59061 0.0
H266 H 0.17282 0.17259 0.54508 0.0
H267 H 0.2161 0.14025 0.49995 0.0
H268 H 0.31203 0.23406 0.48506 0.0
H269 H 0.29238 0.30139 0.52867 0.0
C270 C 0.23249 0.29851 0.56613 0.0
C271 C 0.20045 0.29246 0.58468 0.0
C272 C 0.24331 0.25977 0.54037 0.0
C273 C 0.17919 0.24654 0.57678 0.0
C274 C 0.18972 0.20762 0.55074 0.0
C275 C 0.23302 0.17508 0.50639 0.0
C276 C 0.2657 0.18149 0.48867 0.0
C277 C 0.22183 0.21383 0.53238 0.0
C278 C 0.2866 0.22772 0.4973 0.0
C279 C 0.2755 0.26637 0.52265 0.0
H280 H 0.83564 0.14535 0.05129 0.0
H281 H 0.74002 0.24016 0.0649 0.0
H282 H 0.76062 0.30773 1.02171 0.0
H283 H 0.80445 0.33985 0.97935 0.0
H284 H 0.89946 0.24629 0.96229 0.0
H285 H 0.88005 0.17794 1.00722 0.0
C286 C 0.81907 0.18052 0.04462 0.0
C287 C 0.7862 0.18725 0.06186 0.0
C288 C 0.8309 0.21947 1.01902 0.0
C289 C 0.76562 0.23375 0.05301 0.0
C290 C 0.77728 0.27249 0.02792 0.0
C291 C 0.82118 0.30463 0.98533 0.0
C292 C 0.85352 0.29841 0.96737 0.0
C293 C 0.80975 0.26574 1.01078 0.0
C294 C 0.87452 0.25224 0.97566 0.0
C295 C 0.86337 0.21317 1.00135 0.0
H296 H 0.71232 0.85377 0.5282 0.0
H297 H 0.66159 0.74108 0.59954 0.0
H298 H 0.68616 0.6695 0.56196 0.0
H299 H 0.72674 0.63981 0.5133 0.0
H300 H 0.77723 0.75497 0.44289 0.0
H301 H 0.7486 0.82441 0.47647 0.0
C302 C 0.70612 0.81352 0.53521 0.0
C303 C 0.68516 0.80281 0.56672 0.0
C304 C 0.72099 0.77292 0.51424 0.0
C305 C 0.67726 0.75047 0.57517 0.0
C306 C 0.69173 0.70958 0.55399 0.0
C307 C 0.73146 0.67983 0.50475 0.0
C308 C 0.75506 0.69111 0.47552 0.0
C309 C 0.71443 0.72038 0.52412 0.0
C310 C 0.76017 0.74399 0.46547 0.0
C311 C 0.74346 0.78422 0.48458 0.0
H312 H 0.32776 0.84809 1.00816 0.0
H313 H 0.39606 0.73819 0.95485 0.0
H314 H 0.37387 0.66718 0.99526 0.0
H315 H 0.33275 0.63625 0.04338 0.0
H316 H 0.26234 0.74795 0.09252 0.0
H317 H 0.28806 0.81802 0.05622 0.0
C318 C 0.33816 0.80871 1.00539 0.0
C319 C 0.36366 0.79871 0.97831 0.0
C320 C 0.32471 0.76817 0.02795 0.0
C321 C 0.37667 0.74726 0.97552 0.0
C322 C 0.36376 0.70658 0.99849 0.0
C323 C 0.3227 0.6757 0.04618 0.0
C324 C 0.29518 0.68584 0.07112 0.0
C325 C 0.3373 0.71647 1.02438 0.0
C326 C 0.28346 0.738 0.07431 0.0
C327 C 0.29811 0.77851 0.05324 0.0
H328 H 0.60411 0.08699 0.3209 0.0
H329 H 0.56914 0.08115 0.18809 0.0
H330 H 0.50404 0.07951 0.19689 0.0
H331 H 0.4566 0.07787 0.24196 0.0
H332 H 0.49105 0.08038 0.3748 0.0
H333 H 0.55635 0.08528 0.36621 0.0
C334 C 0.58235 0.08508 0.29383 0.0
C335 C 0.59203 0.08437 0.25383 0.0
C336 C 0.54459 0.08356 0.29908 0.0
C337 C 0.56302 0.08261 0.21925 0.0
C338 C 0.52555 0.08126 0.22425 0.0
C339 C 0.47828 0.07911 0.26913 0.0
C340 C 0.4685 0.0786 0.30904 0.0
C341 C 0.51597 0.08144 0.26398 0.0
C342 C 0.49735 0.08127 0.3437 0.0
C343 C 0.53489 0.08375 0.3388 0.0
H344 H 0.56646 0.79685 0.7439 0.0
H345 H 0.56753 0.95528 0.69777 0.0
H346 H 0.52513 0.98232 0.74363 0.0
H347 H 0.48975 0.96266 0.79884 0.0
H348 H 0.48402 0.80426 0.84287 0.0
H349 H 0.52596 0.77549 0.79579 0.0
C350 C 0.55711 0.83716 0.74354 0.0
C351 C 0.57104 0.87415 0.71783 0.0
C352 C 0.53206 0.85258 0.7699 0.0
C353 C 0.55818 0.9261 0.7177 0.0
C354 C 0.53375 0.94168 0.74394 0.0
C355 C 0.49776 0.92179 0.79833 0.0
C356 C 0.48436 0.88579 0.82493 0.0
C357 C 0.52107 0.90555 0.77067 0.0
C358 C 0.49421 0.8328 0.82297 0.0
C359 C 0.51817 0.81641 0.79603 0.0
H360 H 0.10511 0.57399 0.3193 0.0
H361 H 0.06999 0.57888 0.1865 0.0
H362 H 1.00492 0.58303 0.19542 0.0
H363 H 0.9575 0.58373 0.24056 0.0
H364 H 0.99198 0.57607 0.37333 0.0
H365 H 0.05736 0.57481 0.36467 0.0
C366 C 0.08329 0.57568 0.29226 0.0
C367 C 0.09289 0.57625 0.25223 0.0
C368 C 0.04555 0.57766 0.29757 0.0
C369 C 0.0639 0.57919 0.2177 0.0
C370 C 1.02646 0.5812 0.22275 0.0
C371 C 0.97919 0.58141 0.26769 0.0
C372 C 0.96939 0.57987 0.30759 0.0
C373 C 1.0169 0.58023 0.2625 0.0
C374 C 0.99831 0.57789 0.34225 0.0
C375 C 0.03587 0.57681 0.33731 0.0
H376 H 0.03941 0.3034 0.71887 0.0
H377 H 0.11486 0.43261 0.7539 0.0
H378 H 0.08108 0.4565 0.80853 0.0
H379 H 0.03025 0.4424 0.84658 0.0
H380 H 0.95172 0.31702 0.81174 0.0
H381 H 0.98659 0.28994 0.75746 0.0
C382 C 0.04839 0.33677 0.73844 0.0
C383 C 0.07979 0.36608 0.73183 0.0
C384 C 0.02837 0.35099 0.77019 0.0
C385 C 0.09082 0.40933 0.75762 0.0
C386 C 0.07154 0.42308 0.78924 0.0
C387 C 1.02076 0.40883 0.82743 0.0
C388 C 0.98851 0.38161 0.8336 0.0
C389 C 0.04034 0.3943 0.79583 0.0
C390 C 0.97656 0.33861 0.80791 0.0
C391 C 0.99646 0.32319 0.77674 0.0
H392 H 0.26766 0.68717 0.28988 0.0
H393 H 0.21289 0.7669 0.17966 0.0
H394 H 0.23264 0.85155 0.21167 0.0
H395 H 0.26845 0.90137 0.26947 0.0
H396 H 0.32216 0.82005 0.37963 0.0
H397 H 0.30084 0.73649 0.34813 0.0
C398 C 0.25986 0.72305 0.27275 0.0
C399 C 0.23907 0.72099 0.23235 0.0
C400 C 0.27166 0.77083 0.29102 0.0
C401 C 0.22873 0.76769 0.21085 0.0
C402 C 0.24028 0.81586 0.22903 0.0
C403 C 0.27506 0.86547 0.28691 0.0
C404 C 0.29683 0.867 0.32702 0.0
C405 C 0.26218 0.81772 0.26889 0.0
C406 C 0.30589 0.81996 0.34864 0.0
C407 C 0.29342 0.77227 0.33079 0.0
H408 H 0.79213 0.91191 0.28771 0.0
H409 H 0.73653 0.83223 0.17806 0.0
H410 H 0.75876 0.74824 0.20836 0.0
H411 H 0.79243 0.69806 0.26569 0.0
H412 H 0.84763 0.77535 0.37652 0.0
H413 H 0.82821 0.86075 0.34515 0.0
C414 C 0.78526 0.87618 0.27026 0.0
C415 C 0.76267 0.87817 0.23065 0.0
C416 C 0.79829 0.82811 0.28781 0.0
C417 C 0.75343 0.83159 0.20873 0.0
C418 C 0.76636 0.7837 0.22589 0.0
C419 C 0.80039 0.73353 0.28315 0.0
C420 C 0.82117 0.73057 0.3235 0.0
C421 C 0.78857 0.78163 0.26538 0.0
C422 C 0.83174 0.77682 0.34535 0.0
C423 C 0.82039 0.82542 0.32754 0.0
H424 H 0.76533 0.10391 0.70403 0.0
H425 H 0.69478 0.10576 0.79731 0.0
H426 H 0.72606 0.18557 0.82718 0.0
H427 H 0.7746 0.25442 0.82675 0.0
H428 H 0.84543 0.24751 0.7337 0.0
H429 H 0.81335 0.16952 0.7043 0.0
C430 C 0.75704 0.12123 0.73128 0.0
C431 C 0.72815 0.0985 0.74876 0.0
C432 C 0.7753 0.16624 0.74838 0.0
C433 C 0.71695 0.12256 0.78322 0.0
C434 C 0.73498 0.16797 0.80043 0.0
C435 C 0.78304 0.23549 0.80025 0.0
C436 C 0.81206 0.25723 0.78215 0.0
C437 C 0.7644 0.19004 0.78336 0.0
C438 C 0.82267 0.23243 0.74768 0.0
C439 C 0.80449 0.18757 0.73093 0.0
H440 H 0.25379 0.22411 0.70699 0.0
H441 H 0.28387 0.3016 0.82504 0.0
H442 H 0.32098 0.22627 0.85269 0.0
H443 H 0.34058 0.13564 0.84543 0.0
H444 H 0.31272 0.05788 0.72764 0.0
H445 H 0.27969 0.13646 0.69737 0.0
C446 C 0.26904 0.225 0.73846 0.0
C447 C 0.26529 0.26817 0.76413 0.0
C448 C 0.29061 0.18141 0.75424 0.0
C449 C 0.28533 0.26842 0.80492 0.0
C450 C 0.30676 0.22543 0.82075 0.0
C451 C 0.3276 0.13629 0.81299 0.0
C452 C 0.32859 0.09129 0.78878 0.0
C453 C 0.30879 0.18126 0.79606 0.0
C454 C 0.31219 0.09235 0.74672 0.0
C455 C 0.2932 0.13708 0.72956 0.0
H456 H 0.7435 0.38438 0.3146 0.0
H457 H 0.85979 0.36726 0.3033 0.0
H458 H 0.844 0.29351 0.25703 0.0
H459 H 0.79784 0.23289 0.22091 0.0
H460 H 0.68135 0.25137 0.22834 0.0
H461 H 0.69629 0.32852 0.27281 0.0
C462 C 0.76545 0.36519 0.30165 0.0
C463 C 0.80296 0.38143 0.31313 0.0
C464 C 0.75602 0.32409 0.27347 0.0
C465 C 0.83089 0.35501 0.29637 0.0
C466 C 0.82183 0.3133 0.2692 0.0
C467 C 0.77564 0.25459 0.2316 0.0
C468 C 0.73863 0.23699 0.22155 0.0
C469 C 0.78458 0.29761 0.25762 0.0
C470 C 0.70996 0.265 0.23531 0.0
C471 C 0.71863 0.3084 0.26123 0.0
H472 H 0.29584 0.40291 0.28248 0.0
H473 H 0.23407 0.3206 0.17752 0.0
H474 H 0.25452 0.23705 0.20995 0.0
H475 H 0.28824 0.18806 0.26781 0.0
H476 H 0.34969 0.26772 0.37423 0.0
H477 H 0.33195 0.35251 0.34066 0.0
C478 C 0.28725 0.36666 0.26649 0.0
C479 C 0.26341 0.36789 0.22757 0.0
C480 C 0.29917 0.31873 0.28535 0.0
C481 C 0.25199 0.32066 0.20759 0.0
C482 C 0.26386 0.27298 0.226 0.0
C483 C 0.29792 0.22386 0.28391 0.0
C484 C 0.32001 0.2217 0.32367 0.0
C485 C 0.28716 0.27168 0.26488 0.0
C486 C 0.33271 0.26846 0.34361 0.0
C487 C 0.32237 0.31676 0.32451 0.0
H488 H 0.23639 0.58025 0.80274 0.0
H489 H 0.18048 0.65044 0.68908 0.0
H490 H 0.20993 0.73479 0.70967 0.0
H491 H 0.25856 0.78428 0.75553 0.0
H492 H 0.31358 0.71481 0.86975 0.0
H493 H 0.27709 0.63446 0.85412 0.0
C494 C 0.23003 0.61452 0.78314 0.0
C495 C 0.20668 0.60963 0.74448 0.0
C496 C 0.24713 0.66257 0.79516 0.0
C497 C 0.19834 0.65382 0.71908 0.0
C498 C 0.21536 0.70176 0.73069 0.0
C499 C 0.26179 0.75179 0.77725 0.0
C500 C 0.28879 0.75475 0.81336 0.0
C501 C 0.24082 0.70601 0.76794 0.0
C502 C 0.29279 0.71307 0.84179 0.0
C503 C 0.27219 0.66714 0.83269 0.0
H504 H 0.78544 0.78417 0.78883 0.0
H505 H 0.71712 0.70591 0.68665 0.0
H506 H 0.75275 0.62495 0.70333 0.0
H507 H 0.79986 0.57481 0.751 0.0
H508 H 0.86988 0.65394 0.85157 0.0
H509 H 0.83759 0.73664 0.83139 0.0
C510 C 0.7787 0.74935 0.77019 0.0
C511 C 0.74857 0.75038 0.73701 0.0
C512 C 0.7996 0.7034 0.77968 0.0
C513 C 0.74027 0.70566 0.71236 0.0
C514 C 0.7605 0.65948 0.72199 0.0
C515 C 0.80837 0.6105 0.76791 0.0
C516 C 0.83694 0.60866 0.80272 0.0
C517 C 0.78974 0.65766 0.75607 0.0
C518 C 0.84806 0.65483 0.82449 0.0
C519 C 0.82942 0.70187 0.81317 0.0
H520 H 0.45771 0.06936 0.44184 0.0
H521 H 0.40102 0.01564 0.53968 0.0
H522 H 0.46064 0.99121 0.58161 0.0
H523 H 0.52886 0.98256 0.58993 0.0
H524 H 0.58559 0.03487 0.49187 0.0
H525 H 0.52622 0.06254 0.45085 0.0
C526 C 0.45839 0.0529 0.47249 0.0
C527 C 0.42481 0.04437 0.48744 0.0
C528 C 0.49286 0.03828 0.49639 0.0
C529 C 0.42635 0.02256 0.52722 0.0
C530 C 0.46048 0.00841 0.55127 0.0
C531 C 0.52819 -0.00038 0.55947 0.0
C532 C 0.5617 0.00643 0.54403 0.0
C533 C 0.49387 0.01544 0.53598 0.0
C534 C 0.56033 0.02956 0.50473 0.0
C535 C 0.52632 0.04525 0.48114 0.0
H536 H 0.63866 0.99017 0.03863 0.0
H537 H 0.5986 0.10755 0.11491 0.0
H538 H 0.53433 0.08762 0.08367 0.0
H539 H 0.48955 0.03655 0.03531 0.0
H540 H 0.52956 0.92206 0.95651 0.0
H541 H 0.59367 0.94036 0.98898 0.0
C542 C 0.61594 0.01174 0.04826 0.0
C543 C 0.62361 0.05019 0.07932 0.0
C544 C 0.57893 0.00015 0.03007 0.0
C545 C 0.59366 0.07751 0.09138 0.0
C546 C 0.55681 0.06612 0.0735 0.0
C547 C 0.51215 0.01576 1.02484 0.0
C548 C 0.5043 0.97792 0.99327 0.0
C549 C 0.54913 0.02738 0.04294 0.0
C550 C 0.53432 0.95082 0.98102 0.0
C551 C 0.57119 0.96166 0.99932 0.0
H552 H 0.06443 0.54769 0.53018 0.0
H553 H 1.02798 0.40476 0.58178 0.0
H554 H 0.96354 0.42524 0.55254 0.0
H555 H 0.91743 0.48182 0.51044 0.0
H556 H 0.95376 0.62177 0.45488 0.0
H557 H 1.01833 0.60397 0.4873 0.0
C558 C 0.04261 0.52061 0.53481 0.0
C559 C 0.05154 0.47469 0.5585 0.0
C560 C 1.0054 0.53212 0.5172 0.0
C561 C 1.02235 0.44076 0.56441 0.0
C562 C 0.9853 0.4523 0.54745 0.0
C563 C 0.93937 0.50885 0.50581 0.0
C564 C 0.93069 0.55327 0.48046 0.0
C565 C 0.9765 0.49777 0.52375 0.0
C566 C 0.95963 0.58736 0.47431 0.0
C567 C 0.99659 0.57713 0.49276 0.0
H568 H 0.13357 0.47669 0.04489 0.0
H569 H 0.10008 0.60755 0.11312 0.0
H570 H 0.03455 0.58998 0.08484 0.0
H571 H 0.98681 0.5375 0.04059 0.0
H572 H 1.02132 0.40795 0.97135 0.0
H573 H 0.08605 0.42429 1.00116 0.0
C574 C 0.11204 0.50176 0.05338 0.0
C575 C 0.12193 0.54356 0.08106 0.0
C576 C 0.07439 0.49124 0.03723 0.0
C577 C 0.09342 0.57512 0.09194 0.0
C578 C 0.05587 0.56501 0.07582 0.0
C579 C 1.00835 0.51283 0.03177 0.0
C580 C 0.99855 0.47159 1.00333 0.0
C581 C 0.04601 0.52308 0.04846 0.0
C582 C 1.0273 0.43963 0.99327 0.0
C583 C 0.06467 0.44927 1.01005 0.0
loop_
_geom_bond_atom_site_label_1
_geom_bond_atom_site_label_2
_geom_bond_distance
_geom_bond_site_symmetry_2
_ccdc_geom_bond_type
C0 C1 1.351 . S
C0 N3 1.368 . S
C0 H5 0.931 . S
C1 C0 1.351 . S
C1 N2 1.373 . S
C1 H29 0.930 . S
N2 C1 1.373 . S
N2 C4 1.340 . S
N3 C0 1.368 . S
N3 C4 1.321 . S
N3 Co6 2.135 . S
C4 N2 1.340 . S
C4 N3 1.321 . S
C4 H28 0.930 . S
H5 C0 0.931 . S
Co6 N3 2.135 . S
Co6 N9 2.121 . S
Co6 O14 2.055 . S
Co6 O17 2.039 . S
Co6 N20 2.140 . S
C7 O8 1.227 . S
C7 O17 1.265 . S
O8 C7 1.227 . S
N9 Co6 2.121 . S
N9 C11 1.375 . S
N9 C12 1.313 . S
C10 C11 1.338 . S
C10 N13 1.377 . S
C10 H30 0.930 . S
C11 N9 1.375 . S
C11 C10 1.338 . S
C11 H15 0.931 . S
C12 N9 1.313 . S
C12 N13 1.344 . S
C12 H16 0.930 . S
N13 C10 1.377 . S
N13 C12 1.344 . S
O14 Co6 2.055 . S
O14 C18 1.253 . S
H15 C11 0.931 . S
H16 C12 0.930 . S
O17 Co6 2.039 . S
O17 C7 1.265 . S
C18 O14 1.253 . S
C18 O19 1.227 . S
O19 C18 1.227 . S
N20 Co6 2.140 . S
N20 C23 1.346 . S
N20 C24 1.345 . S
C21 C22 1.387 . S
C21 C25 1.391 1_565 S
C22 C21 1.387 . S
C22 C23 1.369 1_565 S
C22 H31 0.929 . S
C23 N20 1.346 . S
C23 C22 1.369 1_545 S
C23 H26 0.928 . S
C24 N20 1.345 . S
C24 C25 1.371 . S
C24 H27 0.931 . S
C25 C21 1.391 1_545 S
C25 C24 1.371 . S
C25 H32 0.930 . S
H26 C23 0.928 . S
H27 C24 0.931 . S
H28 C4 0.930 . S
H29 C1 0.930 . S
H30 C10 0.930 . S
H31 C22 0.929 . S
H32 C25 0.930 . S
C33 C34 1.351 . S
C33 N36 1.368 . S
C33 H38 0.931 . S
C34 C33 1.351 . S
C34 N35 1.373 . S
C34 H62 0.930 . S
N35 C34 1.373 . S
N35 C37 1.340 . S
N36 C33 1.368 . S
N36 C37 1.321 . S
N36 Co39 2.135 . S
C37 N35 1.340 . S
C37 N36 1.321 . S
C37 H61 0.930 . S
H38 C33 0.931 . S
Co39 N36 2.135 . S
Co39 N42 2.121 . S
Co39 O47 2.055 . S
Co39 O50 2.039 . S
Co39 N53 2.140 . S
C40 O41 1.227 . S
C40 O50 1.265 . S
O41 C40 1.227 . S
N42 Co39 2.121 . S
N42 C44 1.375 . S
N42 C45 1.313 . S
C43 C44 1.338 . S
C43 N46 1.377 . S
C43 H63 0.930 . S
C44 N42 1.375 . S
C44 C43 1.338 . S
C44 H48 0.931 . S
C45 N42 1.313 . S
C45 N46 1.344 . S
C45 H49 0.930 . S
N46 C43 1.377 . S
N46 C45 1.344 . S
O47 Co39 2.055 . S
O47 C51 1.253 . S
H48 C44 0.931 . S
H49 C45 0.930 . S
O50 Co39 2.039 . S
O50 C40 1.265 . S
C51 O47 1.253 . S
C51 O52 1.227 . S
O52 C51 1.227 . S
N53 Co39 2.140 . S
N53 C56 1.346 . S
N53 C57 1.345 . S
C54 C55 1.387 . S
C54 C58 1.391 1_565 S
C55 C54 1.387 . S
C55 C56 1.369 1_565 S
C55 H64 0.929 . S
C56 N53 1.346 . S
C56 C55 1.369 1_545 S
C56 H59 0.928 . S
C57 N53 1.345 . S
C57 C58 1.371 . S
C57 H60 0.931 . S
C58 C54 1.391 1_545 S
C58 C57 1.371 . S
C58 H65 0.930 . S
H59 C56 0.928 . S
H60 C57 0.931 . S
H61 C37 0.930 . S
H62 C34 0.930 . S
H63 C43 0.930 . S
H64 C55 0.929 . S
H65 C58 0.930 . S
C66 C67 1.351 . S
C66 N69 1.368 . S
C66 H71 0.931 . S
C67 C66 1.351 . S
C67 N68 1.373 . S
C67 H95 0.930 . S
N68 C67 1.373 . S
N68 C70 1.340 . S
N69 C66 1.368 . S
N69 C70 1.321 . S
N69 Co72 2.135 . S
C70 N68 1.340 . S
C70 N69 1.321 . S
C70 H94 0.930 . S
H71 C66 0.931 . S
Co72 N69 2.135 . S
Co72 N75 2.121 . S
Co72 O80 2.055 . S
Co72 O83 2.039 . S
Co72 N86 2.140 . S
C73 O74 1.227 . S
C73 O83 1.265 . S
O74 C73 1.227 . S
N75 Co72 2.121 . S
N75 C77 1.375 . S
N75 C78 1.313 . S
C76 C77 1.338 . S
C76 N79 1.377 . S
C76 H96 0.930 . S
C77 N75 1.375 . S
C77 C76 1.338 . S
C77 H81 0.931 . S
C78 N75 1.313 . S
C78 N79 1.344 . S
C78 H82 0.930 . S
N79 C76 1.377 . S
N79 C78 1.344 . S
O80 Co72 2.055 . S
O80 C84 1.253 . S
H81 C77 0.931 . S
H82 C78 0.930 . S
O83 Co72 2.039 . S
O83 C73 1.265 . S
C84 O80 1.253 . S
C84 O85 1.227 . S
O85 C84 1.227 . S
N86 Co72 2.140 . S
N86 C89 1.346 . S
N86 C90 1.345 . S
C87 C88 1.387 . S
C87 C91 1.391 1_545 S
C88 C87 1.387 . S
C88 C89 1.369 1_545 S
C88 H97 0.929 . S
C89 N86 1.346 . S
C89 C88 1.369 1_565 S
C89 H92 0.928 . S
C90 N86 1.345 . S
C90 C91 1.371 . S
C90 H93 0.931 . S
C91 C87 1.391 1_565 S
C91 C90 1.371 . S
C91 H98 0.930 . S
H92 C89 0.928 . S
H93 C90 0.931 . S
H94 C70 0.930 . S
H95 C67 0.930 . S
H96 C76 0.930 . S
H97 C88 0.929 . S
H98 C91 0.930 . S
C99 C100 1.351 . S
C99 N102 1.368 . S
C99 H104 0.931 . S
C100 C99 1.351 . S
C100 N101 1.373 . S
C100 H128 0.930 . S
N101 C100 1.373 . S
N101 C103 1.340 . S
N102 C99 1.368 . S
N102 C103 1.321 . S
N102 Co105 2.135 . S
C103 N101 1.340 . S
C103 N102 1.321 . S
C103 H127 0.930 . S
H104 C99 0.931 . S
Co105 N102 2.135 . S
Co105 N108 2.121 . S
Co105 O113 2.055 . S
Co105 O116 2.039 . S
Co105 N119 2.140 . S
C106 O107 1.227 . S
C106 O116 1.265 . S
O107 C106 1.227 . S
N108 Co105 2.121 . S
N108 C110 1.375 . S
N108 C111 1.313 . S
C109 C110 1.338 . S
C109 N112 1.377 . S
C109 H129 0.930 . S
C110 N108 1.375 . S
C110 C109 1.338 . S
C110 H114 0.931 . S
C111 N108 1.313 . S
C111 N112 1.344 . S
C111 H115 0.930 . S
N112 C109 1.377 . S
N112 C111 1.344 . S
O113 Co105 2.055 . S
O113 C117 1.253 . S
H114 C110 0.931 . S
H115 C111 0.930 . S
O116 Co105 2.039 . S
O116 C106 1.265 . S
C117 O113 1.253 . S
C117 O118 1.227 . S
O118 C117 1.227 . S
N119 Co105 2.140 . S
N119 C122 1.346 . S
N119 C123 1.345 . S
C120 C121 1.387 . S
C120 C124 1.391 1_545 S
C121 C120 1.387 . S
C121 C122 1.369 1_545 S
C121 H130 0.929 . S
C122 N119 1.346 . S
C122 C121 1.369 1_565 S
C122 H125 0.928 . S
C123 N119 1.345 . S
C123 C124 1.371 . S
C123 H126 0.931 . S
C124 C120 1.391 1_565 S
C124 C123 1.371 . S
C124 H131 0.930 . S
H125 C122 0.928 . S
H126 C123 0.931 . S
H127 C103 0.930 . S
H128 C100 0.930 . S
H129 C109 0.930 . S
H130 C121 0.929 . S
H131 C124 0.930 . S
C132 C133 1.351 . S
C132 N135 1.368 . S
C132 H137 0.931 . S
C133 C132 1.351 . S
C133 N134 1.373 . S
C133 H161 0.930 . S
N134 C133 1.373 . S
N134 C136 1.340 . S
N135 C132 1.368 . S
N135 C136 1.321 . S
N135 Co138 2.135 . S
C136 N134 1.340 . S
C136 N135 1.321 . S
C136 H160 0.930 . S
H137 C132 0.931 . S
Co138 N135 2.135 . S
Co138 N141 2.121 . S
Co138 O146 2.055 . S
Co138 O149 2.039 . S
Co138 N152 2.140 . S
C139 O140 1.227 . S
C139 O149 1.265 . S
O140 C139 1.227 . S
N141 Co138 2.121 . S
N141 C143 1.375 . S
N141 C144 1.313 . S
C142 C143 1.338 . S
C142 N145 1.377 . S
C142 H162 0.930 . S
C143 N141 1.375 . S
C143 C142 1.338 . S
C143 H147 0.931 . S
C144 N141 1.313 . S
C144 N145 1.344 . S
C144 H148 0.930 . S
N145 C142 1.377 . S
N145 C144 1.344 . S
O146 Co138 2.055 . S
O146 C150 1.253 . S
H147 C143 0.931 . S
H148 C144 0.930 . S
O149 Co138 2.039 . S
O149 C139 1.265 . S
C150 O146 1.253 . S
C150 O151 1.227 . S
O151 C150 1.227 . S
N152 Co138 2.140 . S
N152 C155 1.346 . S
N152 C156 1.345 . S
C153 C154 1.387 . S
C153 C157 1.391 . S
C154 C153 1.387 . S
C154 C155 1.369 . S
C154 H163 0.929 . S
C155 N152 1.346 . S
C155 C154 1.369 . S
C155 H158 0.928 . S
C156 N152 1.345 . S
C156 C157 1.371 . S
C156 H159 0.931 . S
C157 C153 1.391 . S
C157 C156 1.371 . S
C157 H164 0.930 . S
H158 C155 0.928 . S
H159 C156 0.931 . S
H160 C136 0.930 . S
H161 C133 0.930 . S
H162 C142 0.930 . S
H163 C154 0.929 . S
H164 C157 0.930 . S
C165 C166 1.351 . S
C165 N168 1.368 . S
C165 H170 0.931 . S
C166 C165 1.351 . S
C166 N167 1.373 . S
C166 H194 0.930 . S
N167 C166 1.373 . S
N167 C169 1.340 . S
N168 C165 1.368 . S
N168 C169 1.321 . S
N168 Co171 2.135 . S
C169 N167 1.340 . S
C169 N168 1.321 . S
C169 H193 0.930 . S
H170 C165 0.931 . S
Co171 N168 2.135 . S
Co171 N174 2.121 . S
Co171 O179 2.055 . S
Co171 O182 2.039 . S
Co171 N185 2.140 . S
C172 O173 1.227 . S
C172 O182 1.265 . S
O173 C172 1.227 . S
N174 Co171 2.121 . S
N174 C176 1.375 . S
N174 C177 1.313 . S
C175 C176 1.338 . S
C175 N178 1.377 . S
C175 H195 0.930 . S
C176 N174 1.375 . S
C176 C175 1.338 . S
C176 H180 0.931 . S
C177 N174 1.313 . S
C177 N178 1.344 . S
C177 H181 0.930 . S
N178 C175 1.377 . S
N178 C177 1.344 . S
O179 Co171 2.055 . S
O179 C183 1.253 . S
H180 C176 0.931 . S
H181 C177 0.930 . S
O182 Co171 2.039 . S
O182 C172 1.265 . S
C183 O179 1.253 . S
C183 O184 1.227 . S
O184 C183 1.227 . S
N185 Co171 2.140 . S
N185 C188 1.346 . S
N185 C189 1.345 . S
C186 C187 1.387 . S
C186 C190 1.391 . S
C187 C186 1.387 . S
C187 C188 1.369 . S
C187 H196 0.929 . S
C188 N185 1.346 . S
C188 C187 1.369 . S
C188 H191 0.928 . S
C189 N185 1.345 . S
C189 C190 1.371 . S
C189 H192 0.931 . S
C190 C186 1.391 . S
C190 C189 1.371 . S
C190 H197 0.930 . S
H191 C188 0.928 . S
H192 C189 0.931 . S
H193 C169 0.930 . S
H194 C166 0.930 . S
H195 C175 0.930 . S
H196 C187 0.929 . S
H197 C190 0.930 . S
C198 C199 1.351 . S
C198 N201 1.368 . S
C198 H203 0.931 . S
C199 C198 1.351 . S
C199 N200 1.373 . S
C199 H227 0.930 . S
N200 C199 1.373 . S
N200 C202 1.340 . S
N201 C198 1.368 . S
N201 C202 1.321 . S
N201 Co204 2.135 . S
C202 N200 1.340 . S
C202 N201 1.321 . S
C202 H226 0.930 . S
H203 C198 0.931 . S
Co204 N201 2.135 . S
Co204 N207 2.121 . S
Co204 O212 2.055 . S
Co204 O215 2.039 . S
Co204 N218 2.140 . S
C205 O206 1.227 . S
C205 O215 1.265 . S
O206 C205 1.227 . S
N207 Co204 2.121 . S
N207 C209 1.375 . S
N207 C210 1.313 . S
C208 C209 1.338 . S
C208 N211 1.377 . S
C208 H228 0.930 . S
C209 N207 1.375 . S
C209 C208 1.338 . S
C209 H213 0.931 . S
C210 N207 1.313 . S
C210 N211 1.344 . S
C210 H214 0.930 . S
N211 C208 1.377 . S
N211 C210 1.344 . S
O212 Co204 2.055 . S
O212 C216 1.253 . S
H213 C209 0.931 . S
H214 C210 0.930 . S
O215 Co204 2.039 . S
O215 C205 1.265 . S
C216 O212 1.253 . S
C216 O217 1.227 . S
O217 C216 1.227 . S
N218 Co204 2.140 . S
N218 C221 1.346 . S
N218 C222 1.345 . S
C219 C220 1.387 . S
C219 C223 1.391 . S
C220 C219 1.387 . S
C220 C221 1.369 . S
C220 H229 0.929 . S
C221 N218 1.346 . S
C221 C220 1.369 . S
C221 H224 0.928 . S
C222 N218 1.345 . S
C222 C223 1.371 . S
C222 H225 0.931 . S
C223 C219 1.391 . S
C223 C222 1.371 . S
C223 H230 0.930 . S
H224 C221 0.928 . S
H225 C222 0.931 . S
H226 C202 0.930 . S
H227 C199 0.930 . S
H228 C208 0.930 . S
H229 C220 0.929 . S
H230 C223 0.930 . S
C231 C232 1.351 . S
C231 N234 1.368 . S
C231 H236 0.931 . S
C232 C231 1.351 . S
C232 N233 1.373 . S
C232 H260 0.930 . S
N233 C232 1.373 . S
N233 C235 1.340 . S
N234 C231 1.368 . S
N234 C235 1.321 . S
N234 Co237 2.135 . S
C235 N233 1.340 . S
C235 N234 1.321 . S
C235 H259 0.930 . S
H236 C231 0.931 . S
Co237 N234 2.135 . S
Co237 N240 2.121 . S
Co237 O245 2.055 . S
Co237 O248 2.039 . S
Co237 N251 2.140 . S
C238 O239 1.227 . S
C238 O248 1.265 . S
O239 C238 1.227 . S
N240 Co237 2.121 . S
N240 C242 1.375 . S
N240 C243 1.313 . S
C241 C242 1.338 . S
C241 N244 1.377 . S
C241 H261 0.930 . S
C242 N240 1.375 . S
C242 C241 1.338 . S
C242 H246 0.931 . S
C243 N240 1.313 . S
C243 N244 1.344 . S
C243 H247 0.930 . S
N244 C241 1.377 . S
N244 C243 1.344 . S
O245 Co237 2.055 . S
O245 C249 1.253 . S
H246 C242 0.931 . S
H247 C243 0.930 . S
O248 Co237 2.039 . S
O248 C238 1.265 . S
C249 O245 1.253 . S
C249 O250 1.227 . S
O250 C249 1.227 . S
N251 Co237 2.140 . S
N251 C254 1.346 . S
N251 C255 1.345 . S
C252 C253 1.387 . S
C252 C256 1.391 . S
C253 C252 1.387 . S
C253 C254 1.369 . S
C253 H262 0.929 . S
C254 N251 1.346 . S
C254 C253 1.369 . S
C254 H257 0.928 . S
C255 N251 1.345 . S
C255 C256 1.371 . S
C255 H258 0.931 . S
C256 C252 1.391 . S
C256 C255 1.371 . S
C256 H263 0.930 . S
H257 C254 0.928 . S
H258 C255 0.931 . S
H259 C235 0.930 . S
H260 C232 0.930 . S
H261 C241 0.930 . S
H262 C253 0.929 . S
H263 C256 0.930 . S
H264 C270 0.930 . S
H265 C273 0.930 . S
H266 C274 0.930 . S
H267 C275 0.930 . S
H268 C278 0.930 . S
H269 C279 0.930 . S
C270 H264 0.930 . S
C270 C271 1.355 . S
C270 C272 1.415 . S
C271 C270 1.355 . S
C271 C273 1.419 . S
C272 C270 1.415 . S
C272 C277 1.425 . S
C272 C279 1.409 . S
C273 H265 0.930 . S
C273 C271 1.419 . S
C273 C274 1.362 . S
C274 H266 0.930 . S
C274 C273 1.362 . S
C274 C277 1.409 . S
C275 H267 0.930 . S
C275 C276 1.355 . S
C275 C277 1.415 . S
C276 C275 1.355 . S
C276 C278 1.419 . S
C277 C272 1.425 . S
C277 C274 1.409 . S
C277 C275 1.415 . S
C278 H268 0.930 . S
C278 C276 1.419 . S
C278 C279 1.362 . S
C279 H269 0.930 . S
C279 C272 1.409 . S
C279 C278 1.362 . S
H280 C286 0.930 . S
H281 C289 0.930 . S
H282 C290 0.930 . S
H283 C291 0.930 . S
H284 C294 0.930 . S
H285 C295 0.930 1_554 S
C286 H280 0.930 . S
C286 C287 1.355 . S
C286 C288 1.415 . S
C287 C286 1.355 . S
C287 C289 1.419 . S
C288 C286 1.415 . S
C288 C293 1.425 1_554 S
C288 C295 1.409 1_554 S
C289 H281 0.930 . S
C289 C287 1.419 . S
C289 C290 1.362 1_554 S
C290 H282 0.930 . S
C290 C289 1.362 1_556 S
C290 C293 1.409 . S
C291 H283 0.930 . S
C291 C292 1.355 . S
C291 C293 1.415 . S
C292 C291 1.355 . S
C292 C294 1.419 . S
C293 C288 1.425 1_556 S
C293 C290 1.409 . S
C293 C291 1.415 . S
C294 H284 0.930 . S
C294 C292 1.419 . S
C294 C295 1.362 . S
C295 H285 0.930 1_556 S
C295 C288 1.409 1_556 S
C295 C294 1.362 . S
H296 C302 0.930 . S
H297 C305 0.930 . S
H298 C306 0.930 . S
H299 C307 0.930 . S
H300 C310 0.930 . S
H301 C311 0.930 . S
C302 H296 0.930 . S
C302 C303 1.355 . S
C302 C304 1.415 . S
C303 C302 1.355 . S
C303 C305 1.419 . S
C304 C302 1.415 . S
C304 C309 1.425 . S
C304 C311 1.409 . S
C305 H297 0.930 . S
C305 C303 1.419 . S
C305 C306 1.362 . S
C306 H298 0.930 . S
C306 C305 1.362 . S
C306 C309 1.409 . S
C307 H299 0.930 . S
C307 C308 1.355 . S
C307 C309 1.415 . S
C308 C307 1.355 . S
C308 C310 1.419 . S
C309 C304 1.425 . S
C309 C306 1.409 . S
C309 C307 1.415 . S
C310 H300 0.930 . S
C310 C308 1.419 . S
C310 C311 1.362 . S
C311 H301 0.930 . S
C311 C304 1.409 . S
C311 C310 1.362 . S
H312 C318 0.930 . S
H313 C321 0.930 . S
H314 C322 0.930 . S
H315 C323 0.930 . S
H316 C326 0.930 . S
H317 C327 0.930 . S
C318 H312 0.930 . S
C318 C319 1.355 . S
C318 C320 1.415 . S
C319 C318 1.355 . S
C319 C321 1.419 . S
C320 C318 1.415 . S
C320 C325 1.425 1_556 S
C320 C327 1.409 . S
C321 H313 0.930 . S
C321 C319 1.419 . S
C321 C322 1.362 1_556 S
C322 H314 0.930 . S
C322 C321 1.362 1_554 S
C322 C325 1.409 . S
C323 H315 0.930 . S
C323 C324 1.355 . S
C323 C325 1.415 . S
C324 C323 1.355 . S
C324 C326 1.419 . S
C325 C320 1.425 1_554 S
C325 C322 1.409 . S
C325 C323 1.415 . S
C326 H316 0.930 . S
C326 C324 1.419 . S
C326 C327 1.362 1_554 S
C327 H317 0.930 . S
C327 C320 1.409 . S
C327 C326 1.362 1_556 S
H328 C334 0.930 . S
H329 C337 0.930 . S
H330 C338 0.930 . S
H331 C339 0.930 . S
H332 C342 0.930 . S
H333 C343 0.930 . S
C334 H328 0.930 . S
C334 C335 1.355 . S
C334 C336 1.415 . S
C335 C334 1.355 . S
C335 C337 1.419 . S
C336 C334 1.415 . S
C336 C341 1.425 . S
C336 C343 1.409 . S
C337 H329 0.930 . S
C337 C335 1.419 . S
C337 C338 1.362 . S
C338 H330 0.930 . S
C338 C337 1.362 . S
C338 C341 1.409 . S
C339 H331 0.930 . S
C339 C340 1.355 . S
C339 C341 1.415 . S
C340 C339 1.355 . S
C340 C342 1.419 . S
C341 C336 1.425 . S
C341 C338 1.409 . S
C341 C339 1.415 . S
C342 H332 0.930 . S
C342 C340 1.419 . S
C342 C343 1.362 . S
C343 H333 0.930 . S
C343 C336 1.409 . S
C343 C342 1.362 . S
H344 C350 0.930 . S
H345 C353 0.930 . S
H346 C354 0.930 . S
H347 C355 0.930 . S
H348 C358 0.930 . S
H349 C359 0.930 . S
C350 H344 0.930 . S
C350 C351 1.355 . S
C350 C352 1.415 . S
C351 C350 1.355 . S
C351 C353 1.419 . S
C352 C350 1.415 . S
C352 C357 1.425 . S
C352 C359 1.409 . S
C353 H345 0.930 . S
C353 C351 1.419 . S
C353 C354 1.362 . S
C354 H346 0.930 . S
C354 C353 1.362 . S
C354 C357 1.409 . S
C355 H347 0.930 . S
C355 C356 1.355 . S
C355 C357 1.415 . S
C356 C355 1.355 . S
C356 C358 1.419 . S
C357 C352 1.425 . S
C357 C354 1.409 . S
C357 C355 1.415 . S
C358 H348 0.930 . S
C358 C356 1.419 . S
C358 C359 1.362 . S
C359 H349 0.930 . S
C359 C352 1.409 . S
C359 C358 1.362 . S
H360 C366 0.930 . S
H361 C369 0.930 . S
H362 C370 0.945 . S
H363 C371 0.930 . S
H364 C374 0.930 . S
H365 C375 0.945 . S
C366 H360 0.930 . S
C366 C367 1.355 . S
C366 C368 1.415 . S
C367 C366 1.355 . S
C367 C369 1.419 . S
C368 C366 1.415 . S
C368 C373 1.425 1_455 S
C368 C375 1.423 . S
C369 H361 0.930 . S
C369 C367 1.419 . S
C369 C370 1.335 1_455 S
C370 H362 0.945 . S
C370 C369 1.335 1_655 S
C370 C373 1.423 . S
C371 H363 0.930 . S
C371 C372 1.355 . S
C371 C373 1.415 . S
C372 C371 1.355 . S
C372 C374 1.419 . S
C373 C368 1.425 1_655 S
C373 C370 1.423 . S
C373 C371 1.415 . S
C374 H364 0.930 . S
C374 C372 1.419 . S
C374 C375 1.335 1_655 S
C375 H365 0.945 . S
C375 C368 1.423 . S
C375 C374 1.335 1_455 S
H376 C382 0.930 . S
H377 C385 0.930 . S
H378 C386 0.930 . S
H379 C387 0.930 . S
H380 C390 0.930 . S
H381 C391 0.930 . S
C382 H376 0.930 . S
C382 C383 1.355 . S
C382 C384 1.415 1_455 S
C383 C382 1.355 . S
C383 C385 1.419 . S
C384 C382 1.415 1_655 S
C384 C389 1.425 1_655 S
C384 C391 1.409 . S
C385 H377 0.930 . S
C385 C383 1.419 . S
C385 C386 1.362 . S
C386 H378 0.930 . S
C386 C385 1.362 . S
C386 C389 1.409 . S
C387 H379 0.930 . S
C387 C388 1.355 . S
C387 C389 1.415 1_655 S
C388 C387 1.355 . S
C388 C390 1.419 . S
C389 C384 1.425 1_455 S
C389 C386 1.409 . S
C389 C387 1.415 1_455 S
C390 H380 0.930 . S
C390 C388 1.419 . S
C390 C391 1.362 . S
C391 H381 0.930 . S
C391 C384 1.409 . S
C391 C390 1.362 . S
H392 C398 0.930 . S
H393 C401 0.930 . S
H394 C402 0.930 . S
H395 C403 0.930 . S
H396 C406 0.930 . S
H397 C407 0.930 . S
C398 H392 0.930 . S
C398 C399 1.355 . S
C398 C400 1.415 . S
C399 C398 1.355 . S
C399 C401 1.419 . S
C400 C398 1.415 . S
C400 C405 1.425 . S
C400 C407 1.409 . S
C401 H393 0.930 . S
C401 C399 1.419 . S
C401 C402 1.362 . S
C402 H394 0.930 . S
C402 C401 1.362 . S
C402 C405 1.409 . S
C403 H395 0.930 . S
C403 C404 1.355 . S
C403 C405 1.415 . S
C404 C403 1.355 . S
C404 C406 1.419 . S
C405 C400 1.425 . S
C405 C402 1.409 . S
C405 C403 1.415 . S
C406 H396 0.930 . S
C406 C404 1.419 . S
C406 C407 1.362 . S
C407 H397 0.930 . S
C407 C400 1.409 . S
C407 C406 1.362 . S
H408 C414 0.930 . S
H409 C417 0.930 . S
H410 C418 0.930 . S
H411 C419 0.930 . S
H412 C422 0.930 . S
H413 C423 0.930 . S
C414 H408 0.930 . S
C414 C415 1.355 . S
C414 C416 1.415 . S
C415 C414 1.355 . S
C415 C417 1.419 . S
C416 C414 1.415 . S
C416 C421 1.425 . S
C416 C423 1.409 . S
C417 H409 0.930 . S
C417 C415 1.419 . S
C417 C418 1.362 . S
C418 H410 0.930 . S
C418 C417 1.362 . S
C418 C421 1.409 . S
C419 H411 0.930 . S
C419 C420 1.355 . S
C419 C421 1.415 . S
C420 C419 1.355 . S
C420 C422 1.419 . S
C421 C416 1.425 . S
C421 C418 1.409 . S
C421 C419 1.415 . S
C422 H412 0.930 . S
C422 C420 1.419 . S
C422 C423 1.362 . S
C423 H413 0.930 . S
C423 C416 1.409 . S
C423 C422 1.362 . S
H424 C430 0.930 . S
H425 C433 0.930 . S
H426 C434 0.930 . S
H427 C435 0.930 . S
H428 C438 0.930 . S
H429 C439 0.930 . S
C430 H424 0.930 . S
C430 C431 1.355 . S
C430 C432 1.415 . S
C431 C430 1.355 . S
C431 C433 1.419 . S
C432 C430 1.415 . S
C432 C437 1.425 . S
C432 C439 1.409 . S
C433 H425 0.930 . S
C433 C431 1.419 . S
C433 C434 1.362 . S
C434 H426 0.930 . S
C434 C433 1.362 . S
C434 C437 1.409 . S
C435 H427 0.930 . S
C435 C436 1.355 . S
C435 C437 1.415 . S
C436 C435 1.355 . S
C436 C438 1.419 . S
C437 C432 1.425 . S
C437 C434 1.409 . S
C437 C435 1.415 . S
C438 H428 0.930 . S
C438 C436 1.419 . S
C438 C439 1.362 . S
C439 H429 0.930 . S
C439 C432 1.409 . S
C439 C438 1.362 . S
H440 C446 0.930 . S
H441 C449 0.930 . S
H442 C450 0.930 . S
H443 C451 0.930 . S
H444 C454 0.930 . S
H445 C455 0.930 . S
C446 H440 0.930 . S
C446 C447 1.355 . S
C446 C448 1.415 . S
C447 C446 1.355 . S
C447 C449 1.419 . S
C448 C446 1.415 . S
C448 C453 1.425 . S
C448 C455 1.409 . S
C449 H441 0.930 . S
C449 C447 1.419 . S
C449 C450 1.362 . S
C450 H442 0.930 . S
C450 C449 1.362 . S
C450 C453 1.409 . S
C451 H443 0.930 . S
C451 C452 1.355 . S
C451 C453 1.415 . S
C452 C451 1.355 . S
C452 C454 1.419 . S
C453 C448 1.425 . S
C453 C450 1.409 . S
C453 C451 1.415 . S
C454 H444 0.930 . S
C454 C452 1.419 . S
C454 C455 1.362 . S
C455 H445 0.930 . S
C455 C448 1.409 . S
C455 C454 1.362 . S
H456 C462 0.930 . S
H457 C465 0.930 . S
H458 C466 0.930 . S
H459 C467 0.930 . S
H460 C470 0.930 . S
H461 C471 0.930 . S
C462 H456 0.930 . S
C462 C463 1.355 . S
C462 C464 1.415 . S
C463 C462 1.355 . S
C463 C465 1.419 . S
C464 C462 1.415 . S
C464 C469 1.425 . S
C464 C471 1.409 . S
C465 H457 0.930 . S
C465 C463 1.419 . S
C465 C466 1.362 . S
C466 H458 0.930 . S
C466 C465 1.362 . S
C466 C469 1.409 . S
C467 H459 0.930 . S
C467 C468 1.355 . S
C467 C469 1.415 . S
C468 C467 1.355 . S
C468 C470 1.419 . S
C469 C464 1.425 . S
C469 C466 1.409 . S
C469 C467 1.415 . S
C470 H460 0.930 . S
C470 C468 1.419 . S
C470 C471 1.362 . S
C471 H461 0.930 . S
C471 C464 1.409 . S
C471 C470 1.362 . S
H472 C478 0.930 . S
H473 C481 0.930 . S
H474 C482 0.930 . S
H475 C483 0.930 . S
H476 C486 0.930 . S
H477 C487 0.930 . S
C478 H472 0.930 . S
C478 C479 1.355 . S
C478 C480 1.415 . S
C479 C478 1.355 . S
C479 C481 1.419 . S
C480 C478 1.415 . S
C480 C485 1.425 . S
C480 C487 1.409 . S
C481 H473 0.930 . S
C481 C479 1.419 . S
C481 C482 1.362 . S
C482 H474 0.930 . S
C482 C481 1.362 . S
C482 C485 1.409 . S
C483 H475 0.930 . S
C483 C484 1.355 . S
C483 C485 1.415 . S
C484 C483 1.355 . S
C484 C486 1.419 . S
C485 C480 1.425 . S
C485 C482 1.409 . S
C485 C483 1.415 . S
C486 H476 0.930 . S
C486 C484 1.419 . S
C486 C487 1.362 . S
C487 H477 0.930 . S
C487 C480 1.409 . S
C487 C486 1.362 . S
H488 C494 0.930 . S
H489 C497 0.930 . S
H490 C498 0.930 . S
H491 C499 0.930 . S
H492 C502 0.930 . S
H493 C503 0.930 . S
C494 H488 0.930 . S
C494 C495 1.355 . S
C494 C496 1.415 . S
C495 C494 1.355 . S
C495 C497 1.419 . S
C496 C494 1.415 . S
C496 C501 1.425 . S
C496 C503 1.409 . S
C497 H489 0.930 . S
C497 C495 1.419 . S
C497 C498 1.362 . S
C498 H490 0.930 . S
C498 C497 1.362 . S
C498 C501 1.409 . S
C499 H491 0.930 . S
C499 C500 1.355 . S
C499 C501 1.415 . S
C500 C499 1.355 . S
C500 C502 1.419 . S
C501 C496 1.425 . S
C501 C498 1.409 . S
C501 C499 1.415 . S
C502 H492 0.930 . S
C502 C500 1.419 . S
C502 C503 1.362 . S
C503 H493 0.930 . S
C503 C496 1.409 . S
C503 C502 1.362 . S
H504 C510 0.930 . S
H505 C513 0.930 . S
H506 C514 0.930 . S
H507 C515 0.930 . S
H508 C518 0.930 . S
H509 C519 0.930 . S
C510 H504 0.930 . S
C510 C511 1.355 . S
C510 C512 1.415 . S
C511 C510 1.355 . S
C511 C513 1.419 . S
C512 C510 1.415 . S
C512 C517 1.425 . S
C512 C519 1.409 . S
C513 H505 0.930 . S
C513 C511 1.419 . S
C513 C514 1.362 . S
C514 H506 0.930 . S
C514 C513 1.362 . S
C514 C517 1.409 . S
C515 H507 0.930 . S
C515 C516 1.355 . S
C515 C517 1.415 . S
C516 C515 1.355 . S
C516 C518 1.419 . S
C517 C512 1.425 . S
C517 C514 1.409 . S
C517 C515 1.415 . S
C518 H508 0.930 . S
C518 C516 1.419 . S
C518 C519 1.362 . S
C519 H509 0.930 . S
C519 C512 1.409 . S
C519 C518 1.362 . S
H520 C526 0.930 . S
H521 C529 0.930 . S
H522 C530 0.930 1_565 S
H523 C531 0.930 . S
H524 C534 0.930 . S
H525 C535 0.930 . S
C526 H520 0.930 . S
C526 C527 1.355 . S
C526 C528 1.415 . S
C527 C526 1.355 . S
C527 C529 1.419 . S
C528 C526 1.415 . S
C528 C533 1.425 . S
C528 C535 1.409 . S
C529 H521 0.930 . S
C529 C527 1.419 . S
C529 C530 1.362 . S
C530 H522 0.930 1_545 S
C530 C529 1.362 . S
C530 C533 1.409 . S
C531 H523 0.930 . S
C531 C532 1.355 1_565 S
C531 C533 1.415 1_565 S
C532 C531 1.355 1_545 S
C532 C534 1.419 . S
C533 C528 1.425 . S
C533 C530 1.409 . S
C533 C531 1.415 1_545 S
C534 H524 0.930 . S
C534 C532 1.419 . S
C534 C535 1.362 . S
C535 H525 0.930 . S
C535 C528 1.409 . S
C535 C534 1.362 . S
H536 C542 0.930 . S
H537 C545 0.930 . S
H538 C546 0.930 . S
H539 C547 0.930 . S
H540 C550 0.926 1_554 S
H541 C551 0.930 . S
C542 H536 0.930 . S
C542 C543 1.355 . S
C542 C544 1.415 . S
C543 C542 1.355 . S
C543 C545 1.419 . S
C544 C542 1.415 . S
C544 C549 1.425 1_554 S
C544 C551 1.409 . S
C545 H537 0.930 . S
C545 C543 1.419 . S
C545 C546 1.362 1_554 S
C546 H538 0.930 . S
C546 C545 1.362 1_556 S
C546 C549 1.409 . S
C547 H539 0.930 . S
C547 C548 1.355 1_545 S
C547 C549 1.415 . S
C548 C547 1.355 1_565 S
C548 C550 1.432 . S
C549 C544 1.425 1_556 S
C549 C546 1.409 . S
C549 C547 1.415 . S
C550 H540 0.926 1_556 S
C550 C548 1.432 . S
C550 C551 1.354 1_566 S
C551 H541 0.930 . S
C551 C544 1.409 . S
C551 C550 1.354 1_544 S
H552 C558 0.930 . S
H553 C561 0.930 . S
H554 C562 0.930 . S
H555 C563 0.930 . S
H556 C566 0.930 . S
H557 C567 0.913 1_455 S
C558 H552 0.930 . S
C558 C559 1.355 . S
C558 C560 1.415 1_455 S
C559 C558 1.355 . S
C559 C561 1.419 1_455 S
C560 C558 1.415 1_655 S
C560 C565 1.425 . S
C560 C567 1.409 . S
C561 H553 0.930 . S
C561 C559 1.419 1_655 S
C561 C562 1.362 . S
C562 H554 0.930 . S
C562 C561 1.362 . S
C562 C565 1.409 . S
C563 H555 0.930 . S
C563 C564 1.355 . S
C563 C565 1.415 . S
C564 C563 1.355 . S
C564 C566 1.419 . S
C565 C560 1.425 . S
C565 C562 1.409 . S
C565 C563 1.415 . S
C566 H556 0.930 . S
C566 C564 1.419 . S
C566 C567 1.362 . S
C567 H557 0.913 1_655 S
C567 C560 1.409 . S
C567 C566 1.362 . S
H568 C574 0.930 . S
H569 C577 0.930 . S
H570 C578 0.930 1_655 S
H571 C579 0.930 . S
H572 C582 0.930 . S
H573 C583 0.930 . S
C574 H568 0.930 . S
C574 C575 1.355 . S
C574 C576 1.415 . S
C575 C574 1.355 . S
C575 C577 1.419 . S
C576 C574 1.415 . S
C576 C581 1.425 . S
C576 C583 1.409 1_554 S
C577 H569 0.930 . S
C577 C575 1.419 . S
C577 C578 1.362 . S
C578 H570 0.930 1_455 S
C578 C577 1.362 . S
C578 C581 1.409 . S
C579 H571 0.930 . S
C579 C580 1.355 . S
C579 C581 1.415 1_656 S
C580 C579 1.355 . S
C580 C582 1.419 1_655 S
C581 C576 1.425 . S
C581 C578 1.409 . S
C581 C579 1.415 1_454 S
C582 H572 0.930 . S
C582 C580 1.419 1_455 S
C582 C583 1.362 . S
C583 H573 0.930 . S
C583 C576 1.409 1_556 S
C583 C582 1.362 . S
C271 C216 1.661 . S
C276 N13 1.595 . S
C287 N46 1.596 . S
C292 C249 1.647 . S
C303 C84 1.647 . S
C308 N145 1.628 . S
C319 C117 1.655 . S
C324 N178 1.581 . S
C335 N35 1.291 . S
C340 N2 1.255 . S
C351 C73 1.318 . S
C356 C106 1.359 . S
C367 N167 1.300 . S
C372 N134 1.245 . S
C383 C205 1.318 . S
C388 C238 1.371 . S
C399 C183 1.403 . S
C404 C21 1.424 . S
C415 C54 1.423 . S
C420 C150 1.401 . S
C431 C87 1.376 . S
C436 N244 1.327 . S
C447 N211 1.336 . S
C452 C120 1.376 . S
C463 C153 1.400 . S
C468 C51 1.417 . S
C479 C186 1.421 . S
C484 C18 1.420 . S
C495 C219 1.376 . S
C500 N112 1.331 . S
C511 N79 1.348 . S
C516 C252 1.376 . S
C527 C7 1.522 . S
C532 N68 1.517 1_545 S
C543 C40 1.544 . S
C548 N101 1.488 . S
C559 N200 1.511 . S
C564 C139 1.538 . S
C575 C172 1.545 . S
C580 N233 1.501 . S
