# Generated by pormake.
# Topology umu, (4)-cn, num edge types: 1
# Building blocks:
#     Node 0, Type 0, BuildingBlock: NAHDIM_clean_sbu_0, # of connection points: 4
#     Node 1, Type 0, BuildingBlock: NAHDIM_clean_sbu_0, # of connection points: 4
#     Node 2, Type 0, BuildingBlock: NAHDIM_clean_sbu_0, # of connection points: 4
#     Node 3, Type 0, BuildingBlock: NAHDIM_clean_sbu_0, # of connection points: 4
#     Node 4, Type 0, BuildingBlock: NAHDIM_clean_sbu_0, # of connection points: 4
#     Node 5, Type 0, BuildingBlock: NAHDIM_clean_sbu_0, # of connection points: 4
#     Node 6, Type 0, BuildingBlock: NAHDIM_clean_sbu_0, # of connection points: 4
#     Node 7, Type 0, BuildingBlock: NAHDIM_clean_sbu_0, # of connection points: 4
#     Node 8, Type 0, BuildingBlock: NAHDIM_clean_sbu_0, # of connection points: 4
#     Node 9, Type 0, BuildingBlock: NAHDIM_clean_sbu_0, # of connection points: 4
#     Node 10, Type 0, BuildingBlock: NAHDIM_clean_sbu_0, # of connection points: 4
#     Node 11, Type 0, BuildingBlock: NAHDIM_clean_sbu_0, # of connection points: 4
#     Node 12, Type 0, BuildingBlock: NAHDIM_clean_sbu_0, # of connection points: 4
#     Node 13, Type 0, BuildingBlock: NAHDIM_clean_sbu_0, # of connection points: 4
#     Node 14, Type 0, BuildingBlock: NAHDIM_clean_sbu_0, # of connection points: 4
#     Node 15, Type 0, BuildingBlock: NAHDIM_clean_sbu_0, # of connection points: 4
#     Node 16, Type 0, BuildingBlock: NAHDIM_clean_sbu_0, # of connection points: 4
#     Node 17, Type 0, BuildingBlock: NAHDIM_clean_sbu_0, # of connection points: 4
#     Node 18, Type 0, BuildingBlock: NAHDIM_clean_sbu_0, # of connection points: 4
#     Node 19, Type 0, BuildingBlock: NAHDIM_clean_sbu_0, # of connection points: 4
#     Node 20, Type 0, BuildingBlock: NAHDIM_clean_sbu_0, # of connection points: 4
#     Node 21, Type 0, BuildingBlock: NAHDIM_clean_sbu_0, # of connection points: 4
#     Node 22, Type 0, BuildingBlock: NAHDIM_clean_sbu_0, # of connection points: 4
#     Node 23, Type 0, BuildingBlock: NAHDIM_clean_sbu_0, # of connection points: 4
#     Node 24, Type 0, BuildingBlock: NAHDIM_clean_sbu_0, # of connection points: 4
#     Node 25, Type 0, BuildingBlock: NAHDIM_clean_sbu_0, # of connection points: 4
#     Node 26, Type 0, BuildingBlock: NAHDIM_clean_sbu_0, # of connection points: 4
#     Node 27, Type 0, BuildingBlock: NAHDIM_clean_sbu_0, # of connection points: 4
#     Node 28, Type 0, BuildingBlock: NAHDIM_clean_sbu_0, # of connection points: 4
#     Node 29, Type 0, BuildingBlock: NAHDIM_clean_sbu_0, # of connection points: 4
#     Node 30, Type 0, BuildingBlock: NAHDIM_clean_sbu_0, # of connection points: 4
#     Node 31, Type 0, BuildingBlock: NAHDIM_clean_sbu_0, # of connection points: 4
#     Edge 32, Type (0, 0), BuildingBlock: TEMPAE_clean_linker_10, # of connection points: 2
#     Edge 33, Type (0, 0), BuildingBlock: TEMPAE_clean_linker_10, # of connection points: 2
#     Edge 34, Type (0, 0), BuildingBlock: TEMPAE_clean_linker_10, # of connection points: 2
#     Edge 35, Type (0, 0), BuildingBlock: TEMPAE_clean_linker_10, # of connection points: 2
#     Edge 36, Type (0, 0), BuildingBlock: TEMPAE_clean_linker_10, # of connection points: 2
#     Edge 37, Type (0, 0), BuildingBlock: TEMPAE_clean_linker_10, # of connection points: 2
#     Edge 38, Type (0, 0), BuildingBlock: TEMPAE_clean_linker_10, # of connection points: 2
#     Edge 39, Type (0, 0), BuildingBlock: TEMPAE_clean_linker_10, # of connection points: 2
#     Edge 40, Type (0, 0), BuildingBlock: TEMPAE_clean_linker_10, # of connection points: 2
#     Edge 41, Type (0, 0), BuildingBlock: TEMPAE_clean_linker_10, # of connection points: 2
#     Edge 42, Type (0, 0), BuildingBlock: TEMPAE_clean_linker_10, # of connection points: 2
#     Edge 43, Type (0, 0), BuildingBlock: TEMPAE_clean_linker_10, # of connection points: 2
#     Edge 44, Type (0, 0), BuildingBlock: TEMPAE_clean_linker_10, # of connection points: 2
#     Edge 45, Type (0, 0), BuildingBlock: TEMPAE_clean_linker_10, # of connection points: 2
#     Edge 46, Type (0, 0), BuildingBlock: TEMPAE_clean_linker_10, # of connection points: 2
#     Edge 47, Type (0, 0), BuildingBlock: TEMPAE_clean_linker_10, # of connection points: 2
#     Edge 48, Type (0, 0), BuildingBlock: TEMPAE_clean_linker_10, # of connection points: 2
#     Edge 49, Type (0, 0), BuildingBlock: TEMPAE_clean_linker_10, # of connection points: 2
#     Edge 50, Type (0, 0), BuildingBlock: TEMPAE_clean_linker_10, # of connection points: 2
#     Edge 51, Type (0, 0), BuildingBlock: TEMPAE_clean_linker_10, # of connection points: 2
#     Edge 52, Type (0, 0), BuildingBlock: TEMPAE_clean_linker_10, # of connection points: 2
#     Edge 53, Type (0, 0), BuildingBlock: TEMPAE_clean_linker_10, # of connection points: 2
#     Edge 54, Type (0, 0), BuildingBlock: TEMPAE_clean_linker_10, # of connection points: 2
#     Edge 55, Type (0, 0), BuildingBlock: TEMPAE_clean_linker_10, # of connection points: 2
#     Edge 56, Type (0, 0), BuildingBlock: TEMPAE_clean_linker_10, # of connection points: 2
#     Edge 57, Type (0, 0), BuildingBlock: TEMPAE_clean_linker_10, # of connection points: 2
#     Edge 58, Type (0, 0), BuildingBlock: TEMPAE_clean_linker_10, # of connection points: 2
#     Edge 59, Type (0, 0), BuildingBlock: TEMPAE_clean_linker_10, # of connection points: 2
#     Edge 60, Type (0, 0), BuildingBlock: TEMPAE_clean_linker_10, # of connection points: 2
#     Edge 61, Type (0, 0), BuildingBlock: TEMPAE_clean_linker_10, # of connection points: 2
#     Edge 62, Type (0, 0), BuildingBlock: TEMPAE_clean_linker_10, # of connection points: 2
#     Edge 63, Type (0, 0), BuildingBlock: TEMPAE_clean_linker_10, # of connection points: 2
#     Edge 64, Type (0, 0), BuildingBlock: TEMPAE_clean_linker_10, # of connection points: 2
#     Edge 65, Type (0, 0), BuildingBlock: TEMPAE_clean_linker_10, # of connection points: 2
#     Edge 66, Type (0, 0), BuildingBlock: TEMPAE_clean_linker_10, # of connection points: 2
#     Edge 67, Type (0, 0), BuildingBlock: TEMPAE_clean_linker_10, # of connection points: 2
#     Edge 68, Type (0, 0), BuildingBlock: TEMPAE_clean_linker_10, # of connection points: 2
#     Edge 69, Type (0, 0), BuildingBlock: TEMPAE_clean_linker_10, # of connection points: 2
#     Edge 70, Type (0, 0), BuildingBlock: TEMPAE_clean_linker_10, # of connection points: 2
#     Edge 71, Type (0, 0), BuildingBlock: TEMPAE_clean_linker_10, # of connection points: 2
#     Edge 72, Type (0, 0), BuildingBlock: TEMPAE_clean_linker_10, # of connection points: 2
#     Edge 73, Type (0, 0), BuildingBlock: TEMPAE_clean_linker_10, # of connection points: 2
#     Edge 74, Type (0, 0), BuildingBlock: TEMPAE_clean_linker_10, # of connection points: 2
#     Edge 75, Type (0, 0), BuildingBlock: TEMPAE_clean_linker_10, # of connection points: 2
#     Edge 76, Type (0, 0), BuildingBlock: TEMPAE_clean_linker_10, # of connection points: 2
#     Edge 77, Type (0, 0), BuildingBlock: TEMPAE_clean_linker_10, # of connection points: 2
#     Edge 78, Type (0, 0), BuildingBlock: TEMPAE_clean_linker_10, # of connection points: 2
#     Edge 79, Type (0, 0), BuildingBlock: TEMPAE_clean_linker_10, # of connection points: 2
#     Edge 80, Type (0, 0), BuildingBlock: TEMPAE_clean_linker_10, # of connection points: 2
#     Edge 81, Type (0, 0), BuildingBlock: TEMPAE_clean_linker_10, # of connection points: 2
#     Edge 82, Type (0, 0), BuildingBlock: TEMPAE_clean_linker_10, # of connection points: 2
#     Edge 83, Type (0, 0), BuildingBlock: TEMPAE_clean_linker_10, # of connection points: 2
#     Edge 84, Type (0, 0), BuildingBlock: TEMPAE_clean_linker_10, # of connection points: 2
#     Edge 85, Type (0, 0), BuildingBlock: TEMPAE_clean_linker_10, # of connection points: 2
#     Edge 86, Type (0, 0), BuildingBlock: TEMPAE_clean_linker_10, # of connection points: 2
#     Edge 87, Type (0, 0), BuildingBlock: TEMPAE_clean_linker_10, # of connection points: 2
#     Edge 88, Type (0, 0), BuildingBlock: TEMPAE_clean_linker_10, # of connection points: 2
#     Edge 89, Type (0, 0), BuildingBlock: TEMPAE_clean_linker_10, # of connection points: 2
#     Edge 90, Type (0, 0), BuildingBlock: TEMPAE_clean_linker_10, # of connection points: 2
#     Edge 91, Type (0, 0), BuildingBlock: TEMPAE_clean_linker_10, # of connection points: 2
#     Edge 92, Type (0, 0), BuildingBlock: TEMPAE_clean_linker_10, # of connection points: 2
#     Edge 93, Type (0, 0), BuildingBlock: TEMPAE_clean_linker_10, # of connection points: 2
#     Edge 94, Type (0, 0), BuildingBlock: TEMPAE_clean_linker_10, # of connection points: 2
#     Edge 95, Type (0, 0), BuildingBlock: TEMPAE_clean_linker_10, # of connection points: 2
# Relax obj value: 0.142
# Max RMSD: 0.102
# Mean RMSD: 0.102
data_MOF--net-umu--node1-NAHDIM_clean_sbu_0--edge1-TEMPAE_clean_linker_10
_symmetry_space_group_name_H-M    P1
_symmetry_Int_Tables_number       1
_symmetry_cell_setting            triclinic
loop_
_symmetry_equiv_pos_as_xyz
'x, y, z'
_cell_length_a     88.408114
_cell_length_b     88.407689
_cell_length_c     23.713306
_cell_angle_alpha  89.999795
_cell_angle_beta   90.013236
_cell_angle_gamma 89.993573
loop_
_atom_site_label
_atom_site_type_symbol
_atom_site_fract_x
_atom_site_fract_y
_atom_site_fract_z
_atom_type_partial_charge
C0 C 0.18321 0.14339 0.00157 0.0
O1 O 0.19782 0.14301 0.99156 0.0
O2 O 0.20386 0.16583 0.12234 0.0
Zn3 Zn 0.19222 0.17091 0.05158 0.0
O4 O 0.20678 0.17307 0.98708 0.0
C5 C 0.17671 0.19708 0.10302 0.0
O6 O 0.17816 0.19001 0.15145 0.0
O7 O 0.17781 0.15429 0.03015 0.0
C8 C 0.21343 0.18528 0.97367 0.0
O9 O 0.21132 0.19748 0.0043 0.0
C10 C 0.21168 0.17604 0.14631 0.0
O11 O 0.21178 0.18974 0.12493 0.0
O12 O 0.18131 0.19077 0.05807 0.0
C13 C 0.10419 0.92684 0.26918 0.0
O14 O 0.10606 0.93005 0.32282 0.0
O15 O 0.08865 0.96091 0.33793 0.0
Zn16 Zn 0.0815 0.95129 0.26596 0.0
O17 O 0.08199 0.96627 0.20254 0.0
C18 C 0.05547 0.93899 0.32319 0.0
O19 O 0.0652 0.93672 0.36424 0.0
O20 O 0.09445 0.93408 0.24059 0.0
C21 C 0.07074 0.97436 0.18835 0.0
O22 O 0.05827 0.97374 0.21838 0.0
C23 C 0.09996 0.96972 0.3417 0.0
O24 O 0.10819 0.97238 0.29666 0.0
O25 O 0.0601 0.94455 0.27691 0.0
C26 C 0.32003 0.85714 0.50991 0.0
O27 O 0.30654 0.863 0.51786 0.0
O28 O 0.29349 0.83773 0.61215 0.0
Zn29 Zn 0.30429 0.8306 0.5418 0.0
O30 O 0.29006 0.83199 0.47643 0.0
C31 C 0.3192 0.80336 0.58565 0.0
O32 O 0.32543 0.81238 0.62305 0.0
O33 O 0.32218 0.84327 0.52131 0.0
C34 C 0.27938 0.82257 0.46957 0.0
O35 O 0.27726 0.81192 0.5074 0.0
C36 C 0.28689 0.82795 0.64285 0.0
O37 O 0.2877 0.81361 0.62885 0.0
O38 O 0.31044 0.80886 0.54847 0.0
C39 C 0.3831 0.06171 0.74614 0.0
O40 O 0.3817 0.04771 0.72831 0.0
O41 O 0.40586 0.03698 0.85949 0.0
Zn42 Zn 0.41016 0.04916 0.78964 0.0
O43 O 0.41061 0.03569 0.72144 0.0
C44 C 0.4364 0.06356 0.84159 0.0
O45 O 0.42788 0.06437 0.88689 0.0
O46 O 0.39448 0.06522 0.77626 0.0
C47 C 0.4223 0.02826 0.70721 0.0
O48 O 0.43437 0.02874 0.7395 0.0
C49 C 0.39704 0.02563 0.86012 0.0
O50 O 0.38988 0.02182 0.8137 0.0
O51 O 0.43086 0.0582 0.7964 0.0
C52 C 0.17901 0.85989 0.06901 0.0
O53 O 0.19309 0.86462 0.06733 0.0
O54 O 0.20544 0.83886 0.96834 0.0
Zn55 Zn 0.19373 0.83291 0.03795 0.0
O56 O 0.20716 0.83377 0.10581 0.0
C57 C 0.1855 0.80421 0.98542 0.0
O58 O 0.18679 0.8116 0.93759 0.0
O59 O 0.17609 0.84639 0.05426 0.0
C60 C 0.21778 0.82425 0.11205 0.0
O61 O 0.22024 0.81417 0.07234 0.0
C62 C 0.21801 0.84581 0.97139 0.0
O63 O 0.22296 0.85031 0.02086 0.0
O64 O 0.18726 0.81127 0.03161 0.0
C65 C 0.39382 0.91931 0.28478 0.0
O66 O 0.38926 0.92533 0.23706 0.0
O67 O 0.41228 0.95037 0.20828 0.0
Zn68 Zn 0.41921 0.94084 0.28092 0.0
O69 O 0.41816 0.95605 0.34361 0.0
C70 C 0.45052 0.93628 0.30953 0.0
O71 O 0.44637 0.94305 0.35631 0.0
O72 O 0.4061 0.92377 0.30694 0.0
C73 C 0.42335 0.96944 0.34285 0.0
O74 O 0.42983 0.97458 0.29682 0.0
C75 C 0.40159 0.95996 0.20612 0.0
O76 O 0.39408 0.96319 0.25239 0.0
O77 O 0.44073 0.93371 0.27145 0.0
C78 C 0.31198 0.14232 0.60476 0.0
O79 O 0.29781 0.14259 0.62146 0.0
O80 O 0.28985 0.16579 0.48765 0.0
Zn81 Zn 0.30246 0.16996 0.5568 0.0
O82 O 0.28916 0.17294 0.62445 0.0
C83 C 0.31931 0.19405 0.50048 0.0
O84 O 0.31985 0.18478 0.4572 0.0
O85 O 0.31686 0.15297 0.57368 0.0
C86 C 0.27874 0.18281 0.62612 0.0
O87 O 0.27617 0.19127 0.58156 0.0
C88 C 0.27645 0.16061 0.49035 0.0
O89 O 0.27077 0.15696 0.53969 0.0
O90 O 0.31322 0.18964 0.5461 0.0
C91 C 0.11349 0.06899 0.81159 0.0
O92 O 0.11383 0.05465 0.82595 0.0
O93 O 0.09387 0.04634 0.68707 0.0
Zn94 Zn 0.08746 0.05829 0.75536 0.0
O95 O 0.08437 0.0447 0.82219 0.0
C96 C 0.05806 0.06183 0.70766 0.0
O97 O 0.06242 0.0497 0.6801 0.0
O98 O 0.10322 0.07356 0.77808 0.0
C99 C 0.07693 0.03243 0.82311 0.0
O100 O 0.07067 0.02741 0.77648 0.0
C101 C 0.10227 0.03469 0.68875 0.0
O102 O 0.10789 0.03027 0.73732 0.0
O103 O 0.06733 0.06822 0.74101 0.0
C104 C 0.82974 0.85358 0.05696 0.0
O105 O 0.82429 0.85749 0.00752 0.0
O106 O 0.79818 0.83595 0.98239 0.0
Zn107 Zn 0.80704 0.8294 0.05634 0.0
O108 O 0.79166 0.83144 0.11771 0.0
C109 C 0.81981 0.80172 0.01053 0.0
O110 O 0.82509 0.81058 0.97065 0.0
O111 O 0.82462 0.8419 0.08151 0.0
C112 C 0.78034 0.82271 0.12272 0.0
O113 O 0.778 0.81222 0.08446 0.0
C114 C 0.78917 0.84707 0.97772 0.0
O115 O 0.78608 0.85529 0.02243 0.0
O116 O 0.81243 0.80747 0.05116 0.0
C117 C 0.90091 0.07707 0.82565 0.0
O118 O 0.90181 0.07615 0.77046 0.0
O119 O 0.91297 0.04236 0.75452 0.0
Zn120 Zn 0.92164 0.05149 0.82517 0.0
O121 O 0.92228 0.03507 0.88316 0.0
C122 C 0.94702 0.06773 0.77332 0.0
O123 O 0.93681 0.07366 0.73965 0.0
O124 O 0.90853 0.06798 0.85582 0.0
C125 C 0.93117 0.03586 0.92513 0.0
O126 O 0.94015 0.04763 0.93015 0.0
C127 C 0.92191 0.03467 0.72386 0.0
O128 O 0.93621 0.03365 0.7384 0.0
O129 O 0.94287 0.05867 0.81191 0.0
C130 C 0.67988 0.13134 0.56887 0.0
O131 O 0.69416 0.1292 0.58199 0.0
O132 O 0.70348 0.15388 0.45153 0.0
Zn133 Zn 0.69273 0.15809 0.52457 0.0
O134 O 0.7075 0.15744 0.58872 0.0
C135 C 0.68163 0.18672 0.4795 0.0
O136 O 0.68242 0.17994 0.43028 0.0
O137 O 0.67623 0.14306 0.54094 0.0
C138 C 0.71774 0.16738 0.59457 0.0
O139 O 0.71918 0.17799 0.55616 0.0
C140 C 0.71412 0.14427 0.44757 0.0
O141 O 0.71786 0.13624 0.49206 0.0
O142 O 0.68473 0.17929 0.52387 0.0
C143 C 0.60237 0.92634 0.39072 0.0
O144 O 0.59109 0.9313 0.42168 0.0
O145 O 0.59359 0.95639 0.24303 0.0
Zn146 Zn 0.58744 0.94513 0.31311 0.0
O147 O 0.58422 0.96079 0.37373 0.0
C148 C 0.56166 0.93191 0.25306 0.0
O149 O 0.56874 0.93611 0.20698 0.0
O150 O 0.60338 0.93067 0.33974 0.0
C151 C 0.57127 0.96389 0.39405 0.0
O152 O 0.55932 0.95662 0.37543 0.0
C153 C 0.5842 0.96633 0.2265 0.0
O154 O 0.57159 0.96823 0.25497 0.0
O155 O 0.56784 0.934 0.30079 0.0
C156 C 0.81872 0.13998 0.00165 0.0
O157 O 0.80492 0.13456 0.99784 0.0
O158 O 0.79047 0.15851 0.10205 0.0
Zn159 Zn 0.80177 0.16554 0.03319 0.0
O160 O 0.78881 0.16367 0.96422 0.0
C161 C 0.80968 0.19332 0.09029 0.0
O162 O 0.81048 0.18455 0.13492 0.0
O163 O 0.82056 0.15344 0.01914 0.0
C164 C 0.77724 0.17195 0.95697 0.0
O165 O 0.77337 0.18162 0.99652 0.0
C166 C 0.77929 0.14948 0.10049 0.0
O167 O 0.7751 0.14369 0.05193 0.0
O168 O 0.80668 0.1875 0.04262 0.0
C169 C 0.60223 0.06281 0.74533 0.0
O170 O 0.6023 0.04832 0.73313 0.0
O171 O 0.58582 0.04215 0.88004 0.0
Zn172 Zn 0.57757 0.05294 0.81178 0.0
O173 O 0.57297 0.03756 0.75187 0.0
C174 C 0.54831 0.05361 0.85365 0.0
O175 O 0.55259 0.03963 0.86365 0.0
O176 O 0.5926 0.06782 0.7805 0.0
C177 C 0.56769 0.04142 0.7042 0.0
O178 O 0.56481 0.05577 0.69443 0.0
C179 C 0.59107 0.02881 0.87559 0.0
O180 O 0.59208 0.02259 0.82543 0.0
O181 O 0.55776 0.06268 0.83167 0.0
C182 C 0.68364 0.85888 0.54957 0.0
O183 O 0.69751 0.86417 0.55236 0.0
O184 O 0.71197 0.83836 0.63577 0.0
Zn185 Zn 0.69962 0.83171 0.56903 0.0
O186 O 0.71185 0.83272 0.49795 0.0
C187 C 0.68079 0.80486 0.5921 0.0
O188 O 0.66933 0.81423 0.59668 0.0
O189 O 0.68142 0.84486 0.55778 0.0
C190 C 0.72238 0.82329 0.4886 0.0
O191 O 0.72563 0.81313 0.52721 0.0
C192 C 0.72379 0.84651 0.63236 0.0
O193 O 0.72815 0.85155 0.58286 0.0
O194 O 0.69387 0.81001 0.58095 0.0
C195 C 0.88782 0.92988 0.28522 0.0
O196 O 0.88215 0.94357 0.28959 0.0
O197 O 0.90503 0.95462 0.40299 0.0
Zn198 Zn 0.91351 0.94425 0.33427 0.0
O199 O 0.91562 0.95947 0.27218 0.0
C200 C 0.94357 0.94667 0.37101 0.0
O201 O 0.93859 0.9604 0.38138 0.0
O202 O 0.90093 0.92724 0.30475 0.0
C203 C 0.92431 0.95698 0.23059 0.0
O204 O 0.93185 0.94419 0.22834 0.0
C205 C 0.89853 0.96739 0.39835 0.0
O206 O 0.89572 0.97277 0.34778 0.0
O207 O 0.93441 0.9369 0.35168 0.0
C208 C 0.67993 0.63952 0.48573 0.0
O209 O 0.69442 0.63657 0.48007 0.0
O210 O 0.70372 0.65881 0.60324 0.0
Zn211 Zn 0.69239 0.66589 0.53414 0.0
O212 O 0.70671 0.66694 0.46853 0.0
C213 C 0.67887 0.69192 0.59206 0.0
O214 O 0.6789 0.68327 0.63711 0.0
O215 O 0.67596 0.65149 0.51142 0.0
C216 C 0.7142 0.67866 0.45504 0.0
O217 O 0.71311 0.69089 0.4862 0.0
C218 C 0.71246 0.66818 0.62763 0.0
O219 O 0.71359 0.68196 0.60736 0.0
O220 O 0.6837 0.68666 0.54556 0.0
C221 C 0.61091 0.43202 0.72772 0.0
O222 O 0.61544 0.44604 0.72064 0.0
O223 O 0.59333 0.45891 0.8382 0.0
Zn224 Zn 0.58552 0.4477 0.77023 0.0
O225 O 0.58567 0.46163 0.70359 0.0
C226 C 0.55895 0.43567 0.82782 0.0
O227 O 0.56844 0.43229 0.86858 0.0
O228 O 0.59822 0.42961 0.75119 0.0
C229 C 0.58315 0.45652 0.65442 0.0
O230 O 0.5803 0.44204 0.64793 0.0
C231 C 0.6019 0.47038 0.83287 0.0
O232 O 0.60634 0.47445 0.78224 0.0
O233 O 0.56393 0.4418 0.78309 0.0
C234 C 0.81868 0.36132 0.02709 0.0
O235 O 0.80602 0.3685 0.03819 0.0
O236 O 0.79238 0.34572 0.13894 0.0
Zn237 Zn 0.80226 0.3361 0.07136 0.0
O238 O 0.7873 0.33477 0.00806 0.0
C239 C 0.79812 0.30595 0.10624 0.0
O240 O 0.78425 0.31112 0.11151 0.0
O241 O 0.82003 0.34755 0.04145 0.0
C242 C 0.79197 0.33089 0.95952 0.0
O243 O 0.80635 0.32759 0.95272 0.0
C244 C 0.78048 0.35367 0.13351 0.0
O245 O 0.77542 0.35666 0.08263 0.0
O246 O 0.80847 0.31495 0.09038 0.0
C247 C 0.88822 0.56501 0.27177 0.0
O248 O 0.88874 0.56343 0.32683 0.0
O249 O 0.90446 0.52945 0.3334 0.0
Zn250 Zn 0.91103 0.54053 0.26368 0.0
O251 O 0.91194 0.5265 0.19742 0.0
C252 C 0.93525 0.56108 0.30041 0.0
O253 O 0.92439 0.57044 0.31493 0.0
O254 O 0.89667 0.5569 0.24081 0.0
C255 C 0.923 0.51778 0.18698 0.0
O256 O 0.93434 0.51708 0.22271 0.0
C257 C 0.89499 0.51864 0.33401 0.0
O258 O 0.88824 0.5147 0.28688 0.0
O259 O 0.93192 0.5485 0.27771 0.0
C260 C 0.67263 0.34902 0.54943 0.0
O261 O 0.67137 0.34586 0.49549 0.0
O262 O 0.7083 0.33537 0.47825 0.0
Zn263 Zn 0.69818 0.32797 0.54891 0.0
O264 O 0.71392 0.32535 0.60918 0.0
C265 C 0.69835 0.2979 0.51458 0.0
O266 O 0.71253 0.30194 0.50732 0.0
O267 O 0.68288 0.34263 0.57831 0.0
C268 C 0.71991 0.33699 0.63129 0.0
O269 O 0.71576 0.35045 0.61365 0.0
C270 C 0.7117 0.34898 0.46648 0.0
O271 O 0.708 0.35985 0.50163 0.0
O272 O 0.68902 0.30765 0.53299 0.0
C273 C 0.89065 0.41391 0.76428 0.0
O274 O 0.88462 0.42204 0.72374 0.0
O275 O 0.90955 0.4432 0.67998 0.0
Zn276 Zn 0.91691 0.4336 0.75191 0.0
O277 O 0.91604 0.4486 0.81524 0.0
C278 C 0.94646 0.42533 0.78711 0.0
O279 O 0.93989 0.42639 0.83665 0.0
O280 O 0.90427 0.41628 0.77872 0.0
C281 C 0.92461 0.46004 0.82018 0.0
O282 O 0.93434 0.46316 0.77996 0.0
C283 C 0.89936 0.45334 0.67958 0.0
O284 O 0.89277 0.45712 0.72721 0.0
O285 O 0.93859 0.42732 0.74289 0.0
C286 C 0.81333 0.63424 0.0813 0.0
O287 O 0.79876 0.63163 0.08662 0.0
O288 O 0.78961 0.65434 0.96643 0.0
Zn289 Zn 0.80185 0.66128 0.03363 0.0
O290 O 0.78852 0.66446 0.10122 0.0
C291 C 0.80573 0.69008 0.97971 0.0
O292 O 0.79383 0.68547 0.95131 0.0
O293 O 0.81763 0.64624 0.05658 0.0
C294 C 0.77772 0.67392 0.10273 0.0
O295 O 0.7746 0.68196 0.05761 0.0
C296 C 0.77612 0.64947 0.97052 0.0
O297 O 0.7702 0.64749 0.02077 0.0
O298 O 0.81157 0.68133 0.01626 0.0
C299 C 0.60442 0.57799 0.26449 0.0
O300 O 0.60173 0.58096 0.21113 0.0
O301 O 0.58975 0.54441 0.17828 0.0
Zn302 Zn 0.58296 0.55265 0.25306 0.0
O303 O 0.58058 0.53535 0.30718 0.0
C304 C 0.55269 0.55347 0.22128 0.0
O305 O 0.5569 0.53991 0.20486 0.0
O306 O 0.59773 0.56699 0.28804 0.0
C307 C 0.59212 0.52965 0.33097 0.0
O308 O 0.60558 0.535 0.31884 0.0
C309 C 0.60291 0.53952 0.16678 0.0
O310 O 0.61369 0.54064 0.20465 0.0
O311 O 0.56247 0.5621 0.24373 0.0
C312 C 0.3219 0.36041 0.56188 0.0
O313 O 0.30758 0.36092 0.57646 0.0
O314 O 0.29937 0.34163 0.43441 0.0
Zn315 Zn 0.31068 0.33488 0.50373 0.0
O316 O 0.29659 0.33179 0.56944 0.0
C317 C 0.31206 0.30527 0.46107 0.0
O318 O 0.2987 0.30965 0.44307 0.0
O319 O 0.32627 0.35018 0.52785 0.0
C320 C 0.28277 0.32791 0.56737 0.0
O321 O 0.27635 0.32555 0.51819 0.0
C322 C 0.28939 0.35195 0.43242 0.0
O323 O 0.2862 0.35966 0.47826 0.0
O324 O 0.32022 0.31466 0.48793 0.0
C325 C 0.3898 0.56105 0.36939 0.0
O326 O 0.38909 0.54704 0.38762 0.0
O327 O 0.40948 0.53861 0.24097 0.0
Zn328 Zn 0.4155 0.54898 0.31276 0.0
O329 O 0.4172 0.53338 0.37398 0.0
C330 C 0.44111 0.56394 0.25803 0.0
O331 O 0.43195 0.56559 0.21482 0.0
O332 O 0.40029 0.56475 0.33542 0.0
C333 C 0.42529 0.53607 0.41712 0.0
O334 O 0.43243 0.54907 0.42076 0.0
C335 C 0.39868 0.52914 0.23913 0.0
O336 O 0.39076 0.52653 0.28498 0.0
O337 O 0.43618 0.55787 0.30296 0.0
C338 C 0.17194 0.64125 0.05632 0.0
O339 O 0.17316 0.64021 0.00124 0.0
O340 O 0.20693 0.65293 0.98269 0.0
Zn341 Zn 0.19756 0.66239 0.05128 0.0
O342 O 0.21305 0.66405 0.11292 0.0
C343 C 0.20013 0.69223 0.01174 0.0
O344 O 0.21411 0.68744 0.00578 0.0
O345 O 0.1808 0.64993 0.08327 0.0
C346 C 0.21138 0.67371 0.15212 0.0
O347 O 0.19985 0.68307 0.15009 0.0
C348 C 0.21771 0.64346 0.98604 0.0
O349 O 0.22226 0.63893 0.03601 0.0
O350 O 0.19025 0.68316 0.03084 0.0
C351 C 0.10527 0.4236 0.80535 0.0
O352 O 0.09704 0.41941 0.76192 0.0
O353 O 0.09167 0.46334 0.74075 0.0
Zn354 Zn 0.08605 0.45057 0.80816 0.0
O355 O 0.08236 0.46356 0.87637 0.0
C356 C 0.05704 0.44575 0.75933 0.0
O357 O 0.06071 0.45845 0.73405 0.0
O358 O 0.10259 0.43618 0.82912 0.0
C359 C 0.07272 0.47421 0.87785 0.0
O360 O 0.06488 0.47743 0.83234 0.0
C361 C 0.09607 0.47699 0.74471 0.0
O362 O 0.09845 0.48284 0.79485 0.0
O363 O 0.06657 0.43953 0.79212 0.0
C364 C 0.31384 0.63737 0.50893 0.0
O365 O 0.30016 0.63765 0.48732 0.0
O366 O 0.29081 0.6559 0.6393 0.0
Zn367 Zn 0.30208 0.66258 0.56997 0.0
O368 O 0.28785 0.66646 0.50507 0.0
C369 C 0.30462 0.69201 0.61417 0.0
O370 O 0.29109 0.68822 0.63224 0.0
O371 O 0.31737 0.64698 0.54657 0.0
C372 C 0.27363 0.66439 0.50614 0.0
O373 O 0.26722 0.65947 0.55257 0.0
C374 C 0.28478 0.64303 0.64727 0.0
O375 O 0.28588 0.6326 0.60804 0.0
O376 O 0.31227 0.68237 0.58651 0.0
C377 C 0.10197 0.57226 0.27125 0.0
O378 O 0.10565 0.55789 0.27507 0.0
O379 O 0.08134 0.54934 0.38017 0.0
Zn380 Zn 0.07457 0.55991 0.30917 0.0
O381 O 0.07493 0.5451 0.24511 0.0
C382 C 0.04638 0.57149 0.35987 0.0
O383 O 0.05329 0.57039 0.40874 0.0
O384 O 0.08888 0.57639 0.28708 0.0
C385 C 0.06366 0.53708 0.2306 0.0
O386 O 0.05104 0.53793 0.25969 0.0
C387 C 0.07259 0.5398 0.40347 0.0
O388 O 0.05918 0.53735 0.38148 0.0
O389 O 0.05341 0.56805 0.31495 0.0
C390 C 0.18848 0.35816 0.96402 0.0
O391 O 0.20256 0.36105 0.95002 0.0
O392 O 0.21383 0.34059 0.08537 0.0
Zn393 Zn 0.20312 0.33325 0.01576 0.0
O394 O 0.2174 0.33285 0.94957 0.0
C395 C 0.1831 0.30838 0.05025 0.0
O396 O 0.17295 0.31891 0.06015 0.0
O397 O 0.18568 0.34674 0.99488 0.0
C398 C 0.2234 0.3209 0.92987 0.0
O399 O 0.22087 0.30789 0.95493 0.0
C400 C 0.22448 0.35024 0.08519 0.0
O401 O 0.22856 0.35648 0.03728 0.0
O402 O 0.196 0.31211 0.03117 0.0
C403 C 0.39361 0.43231 0.75477 0.0
O404 O 0.39311 0.44672 0.74152 0.0
O405 O 0.40866 0.45204 0.89844 0.0
Zn406 Zn 0.41693 0.44336 0.8266 0.0
O407 O 0.41967 0.46035 0.77131 0.0
C408 C 0.44672 0.44371 0.8656 0.0
O409 O 0.44183 0.45714 0.88095 0.0
O410 O 0.40289 0.4279 0.79233 0.0
C411 C 0.42831 0.45877 0.72893 0.0
O412 O 0.43583 0.44606 0.7227 0.0
C413 C 0.39894 0.46263 0.89765 0.0
O414 O 0.3934 0.46709 0.849 0.0
O415 O 0.43754 0.43472 0.84161 0.0
C416 C 0.12536 0.09465 0.81808 0.0
C417 C 0.12412 0.07977 0.83801 0.0
C418 C 0.13505 0.10505 0.84447 0.0
C419 C 0.1435 0.10049 0.89228 0.0
C420 C 0.1423 0.08549 0.91251 0.0
C421 C 0.1327 0.07529 0.88489 0.0
C422 C 0.13623 0.12092 0.82128 0.0
C423 C 0.15102 0.08027 0.96372 0.0
C424 C 0.17862 0.12261 0.93251 0.0
C425 C 0.17312 0.13205 0.97543 0.0
C426 C 0.16907 0.11236 0.90484 0.0
C427 C 0.1537 0.11138 0.92105 0.0
C428 C 0.14813 0.12069 0.96496 0.0
C429 C 0.15789 0.131 0.99142 0.0
C430 C 0.17538 0.10271 0.85783 0.0
C431 C 0.13185 0.11977 0.9839 0.0
H432 H 0.11878 0.09817 0.78181 0.0
H433 H 0.13172 0.06384 0.9008 0.0
H434 H 0.13272 0.12921 0.85385 0.0
H435 H 0.14816 0.12347 0.81024 0.0
H436 H 0.12911 0.12258 0.7832 0.0
H437 H 0.14869 0.06826 0.9744 0.0
H438 H 0.16334 0.08158 0.95633 0.0
H439 H 0.14807 0.0874 0.00063 0.0
H440 H 0.19035 0.12343 0.91964 0.0
H441 H 0.1536 0.13824 0.02464 0.0
H442 H 0.16901 0.10484 0.8183 0.0
H443 H 0.17401 0.09056 0.86824 0.0
H444 H 0.18756 0.10498 0.84995 0.0
H445 H 0.12422 0.12253 0.9482 0.0
H446 H 0.12936 0.12761 0.01931 0.0
H447 H 0.12916 0.10806 0.99748 0.0
C448 C 0.125 0.90756 0.2703 0.0
C449 C 0.11414 0.91584 0.24024 0.0
C450 C 0.13509 0.89787 0.24222 0.0
C451 C 0.13434 0.89656 0.18274 0.0
C452 C 0.12321 0.90463 0.15235 0.0
C453 C 0.11321 0.91412 0.18146 0.0
C454 C 0.14674 0.88928 0.27601 0.0
C455 C 0.12212 0.90359 0.08888 0.0
C456 C 0.17005 0.88477 0.10585 0.0
C457 C 0.16715 0.86948 0.09449 0.0
C458 C 0.1594 0.89374 0.13413 0.0
C459 C 0.14558 0.88721 0.15194 0.0
C460 C 0.14248 0.87184 0.13994 0.0
C461 C 0.15328 0.86317 0.11102 0.0
C462 C 0.16299 0.91016 0.14544 0.0
C463 C 0.12789 0.86449 0.15855 0.0
H464 H 0.12575 0.90879 0.31569 0.0
H465 H 0.10485 0.92046 0.15778 0.0
H466 H 0.14602 0.87702 0.26644 0.0
H467 H 0.15826 0.8931 0.26404 0.0
H468 H 0.14529 0.8909 0.32215 0.0
H469 H 0.11246 0.91019 0.07177 0.0
H470 H 0.13271 0.90788 0.06953 0.0
H471 H 0.12083 0.89162 0.07569 0.0
H472 H 0.18073 0.88972 0.09305 0.0
H473 H 0.151 0.85134 0.10269 0.0
H474 H 0.1631 0.91229 0.19154 0.0
H475 H 0.15409 0.91749 0.12693 0.0
H476 H 0.17411 0.91358 0.12774 0.0
H477 H 0.12688 0.86512 0.20513 0.0
H478 H 0.12718 0.85244 0.14553 0.0
H479 H 0.11809 0.87066 0.14054 0.0
C480 C 0.37093 0.9027 0.29185 0.0
C481 C 0.38394 0.90885 0.31665 0.0
C482 C 0.36094 0.89371 0.32341 0.0
C483 C 0.36396 0.89102 0.38122 0.0
C484 C 0.37721 0.89696 0.40617 0.0
C485 C 0.38709 0.9057 0.37349 0.0
C486 C 0.34702 0.88733 0.29522 0.0
C487 C 0.38073 0.89447 0.46783 0.0
C488 C 0.33045 0.88166 0.47486 0.0
C489 C 0.33189 0.86595 0.48073 0.0
C490 C 0.34095 0.88999 0.44322 0.0
C491 C 0.35303 0.88237 0.41615 0.0
C492 C 0.35465 0.86655 0.42251 0.0
C493 C 0.34413 0.85853 0.45513 0.0
C494 C 0.33903 0.90691 0.43825 0.0
C495 C 0.36731 0.85804 0.3938 0.0
H496 H 0.36846 0.90504 0.24794 0.0
H497 H 0.3971 0.91045 0.39313 0.0
H498 H 0.34652 0.8749 0.30144 0.0
H499 H 0.33672 0.89222 0.3148 0.0
H500 H 0.34675 0.88976 0.24926 0.0
H501 H 0.39173 0.89953 0.48039 0.0
H502 H 0.37167 0.89953 0.49415 0.0
H503 H 0.38102 0.88219 0.4774 0.0
H504 H 0.32104 0.88744 0.49468 0.0
H505 H 0.34524 0.84637 0.45913 0.0
H506 H 0.33722 0.91006 0.39347 0.0
H507 H 0.34946 0.91273 0.4526 0.0
H508 H 0.32932 0.91116 0.46344 0.0
H509 H 0.36649 0.85955 0.34745 0.0
H510 H 0.36705 0.84574 0.40337 0.0
H511 H 0.37841 0.86264 0.40716 0.0
C512 C 0.37252 0.08794 0.751 0.0
C513 C 0.37223 0.07339 0.72752 0.0
C514 C 0.36263 0.09924 0.73179 0.0
C515 C 0.35236 0.09593 0.68765 0.0
C516 C 0.35197 0.08124 0.664 0.0
C517 C 0.36185 0.07013 0.68446 0.0
C518 C 0.36321 0.11474 0.75849 0.0
C519 C 0.34126 0.07733 0.61655 0.0
C520 C 0.31765 0.12059 0.66849 0.0
C521 C 0.32224 0.13027 0.62485 0.0
C522 C 0.3274 0.10944 0.68964 0.0
C523 C 0.342 0.10782 0.6661 0.0
C524 C 0.34666 0.11744 0.62164 0.0
C525 C 0.33674 0.12862 0.60174 0.0
C526 C 0.32209 0.09947 0.73743 0.0
C527 C 0.36211 0.11589 0.59507 0.0
H528 H 0.38049 0.09052 0.78439 0.0
H529 H 0.36161 0.05893 0.66588 0.0
H530 H 0.36616 0.12333 0.72623 0.0
H531 H 0.35192 0.11778 0.77548 0.0
H532 H 0.37161 0.11538 0.79324 0.0
H533 H 0.3424 0.06538 0.60271 0.0
H534 H 0.3294 0.07928 0.63002 0.0
H535 H 0.34342 0.08481 0.57985 0.0
H536 H 0.30649 0.12185 0.68681 0.0
H537 H 0.34034 0.13605 0.56792 0.0
H538 H 0.32988 0.10057 0.7739 0.0
H539 H 0.32228 0.08744 0.72414 0.0
H540 H 0.31046 0.10233 0.75155 0.0
H541 H 0.37101 0.11757 0.62742 0.0
H542 H 0.36393 0.12417 0.56048 0.0
H543 H 0.36355 0.10431 0.57787 0.0
C544 C 0.84236 0.8616 0.14612 0.0
C545 C 0.84 0.86381 0.08814 0.0
C546 C 0.85062 0.87204 0.17812 0.0
C547 C 0.8569 0.88488 0.15137 0.0
C548 C 0.85511 0.88687 0.09248 0.0
C549 C 0.84656 0.87635 0.06156 0.0
C550 C 0.85215 0.8696 0.24093 0.0
C551 C 0.86191 0.9003 0.06242 0.0
C552 C 0.86431 0.91959 0.24126 0.0
C553 C 0.87978 0.91813 0.25269 0.0
C554 C 0.85671 0.90882 0.20837 0.0
C555 C 0.86486 0.89646 0.18559 0.0
C556 C 0.88051 0.89496 0.19674 0.0
C557 C 0.88776 0.90575 0.23063 0.0
C558 C 0.83994 0.91061 0.19822 0.0
C559 C 0.88961 0.88205 0.17248 0.0
H560 H 0.8373 0.85196 0.16711 0.0
H561 H 0.84484 0.87809 0.01677 0.0
H562 H 0.86425 0.86958 0.25325 0.0
H563 H 0.84663 0.87905 0.26388 0.0
H564 H 0.84695 0.8588 0.25496 0.0
H565 H 0.86038 0.89965 0.01599 0.0
H566 H 0.85657 0.91087 0.07782 0.0
H567 H 0.87418 0.90109 0.07182 0.0
H568 H 0.85811 0.92914 0.25828 0.0
H569 H 0.89977 0.90465 0.23882 0.0
H570 H 0.83382 0.90049 0.21391 0.0
H571 H 0.83766 0.91149 0.15234 0.0
H572 H 0.83523 0.92079 0.2194 0.0
H573 H 0.88507 0.8711 0.18779 0.0
H574 H 0.90177 0.88275 0.18398 0.0
H575 H 0.88863 0.88202 0.12582 0.0
C576 C 0.88871 0.08781 0.91184 0.0
C577 C 0.89023 0.08769 0.85291 0.0
C578 C 0.87783 0.09689 0.93832 0.0
C579 C 0.86827 0.10611 0.9051 0.0
C580 C 0.87008 0.10646 0.84578 0.0
C581 C 0.88104 0.09722 0.82034 0.0
C582 C 0.87623 0.09621 0.0017 0.0
C583 C 0.86012 0.11624 0.80905 0.0
C584 C 0.82953 0.11613 0.96243 0.0
C585 C 0.8317 0.13108 0.98049 0.0
C586 C 0.84141 0.10784 0.9384 0.0
C587 C 0.85578 0.11468 0.93211 0.0
C588 C 0.85814 0.12967 0.95118 0.0
C589 C 0.84606 0.13769 0.97532 0.0
C590 C 0.8385 0.09183 0.91896 0.0
C591 C 0.87332 0.13731 0.94512 0.0
H592 H 0.89581 0.08053 0.93742 0.0
H593 H 0.88219 0.09725 0.77484 0.0
H594 H 0.87674 0.10776 0.01988 0.0
H595 H 0.86504 0.0914 0.01286 0.0
H596 H 0.88516 0.08918 0.02168 0.0
H597 H 0.86362 0.11597 0.76407 0.0
H598 H 0.84823 0.11231 0.81201 0.0
H599 H 0.8604 0.12813 0.82399 0.0
H600 H 0.81849 0.11093 0.96642 0.0
H601 H 0.84781 0.14925 0.98906 0.0
H602 H 0.84649 0.08396 0.93997 0.0
H603 H 0.84049 0.09095 0.87288 0.0
H604 H 0.82677 0.08806 0.92805 0.0
H605 H 0.88221 0.13049 0.96622 0.0
H606 H 0.8734 0.14887 0.96341 0.0
H607 H 0.87641 0.13808 0.89986 0.0
C608 C 0.672 0.11032 0.63241 0.0
C609 C 0.66819 0.12097 0.59094 0.0
C610 C 0.66097 0.10098 0.65658 0.0
C611 C 0.64578 0.10217 0.63829 0.0
C612 C 0.64188 0.11268 0.59563 0.0
C613 C 0.65314 0.12204 0.57267 0.0
C614 C 0.66553 0.08999 0.70232 0.0
C615 C 0.62583 0.11408 0.57456 0.0
C616 C 0.62087 0.06829 0.66912 0.0
C617 C 0.61302 0.07311 0.71726 0.0
C618 C 0.63126 0.0778 0.64204 0.0
C619 C 0.63402 0.0924 0.66416 0.0
C620 C 0.62604 0.0974 0.71246 0.0
C621 C 0.61554 0.08772 0.73825 0.0
C622 C 0.63942 0.07216 0.59017 0.0
C623 C 0.62885 0.11284 0.7376 0.0
H624 H 0.68359 0.10947 0.64698 0.0
H625 H 0.65013 0.13022 0.54052 0.0
H626 H 0.65914 0.09245 0.74153 0.0
H627 H 0.66267 0.07827 0.68948 0.0
H628 H 0.67782 0.09051 0.71189 0.0
H629 H 0.62475 0.12251 0.54004 0.0
H630 H 0.62177 0.10297 0.55896 0.0
H631 H 0.61828 0.11749 0.60967 0.0
H632 H 0.61886 0.05706 0.65235 0.0
H633 H 0.6095 0.09149 0.77547 0.0
H634 H 0.65173 0.07143 0.59874 0.0
H635 H 0.63787 0.08023 0.55482 0.0
H636 H 0.63536 0.06084 0.57656 0.0
H637 H 0.64081 0.11374 0.75137 0.0
H638 H 0.62142 0.11516 0.77439 0.0
H639 H 0.62694 0.12173 0.70539 0.0
C640 C 0.61417 0.91366 0.4739 0.0
C641 C 0.61387 0.91619 0.4155 0.0
C642 C 0.62519 0.90433 0.49836 0.0
C643 C 0.63607 0.89725 0.46349 0.0
C644 C 0.63573 0.89961 0.40444 0.0
C645 C 0.62468 0.90913 0.38116 0.0
C646 C 0.62529 0.90217 0.56154 0.0
C647 C 0.64709 0.89213 0.3659 0.0
C648 C 0.67345 0.88442 0.5256 0.0
C649 C 0.67109 0.86882 0.53163 0.0
C650 C 0.66203 0.89386 0.50453 0.0
C651 C 0.64795 0.88752 0.48878 0.0
C652 C 0.64537 0.87183 0.49588 0.0
C653 C 0.65696 0.86267 0.51748 0.0
C654 C 0.66512 0.91058 0.4981 0.0
C655 C 0.63051 0.86467 0.47931 0.0
H656 H 0.60589 0.91913 0.50074 0.0
H657 H 0.62447 0.91099 0.33599 0.0
H658 H 0.62424 0.88999 0.57195 0.0
H659 H 0.63623 0.90613 0.57919 0.0
H660 H 0.61598 0.90842 0.58267 0.0
H661 H 0.64507 0.89487 0.3208 0.0
H662 H 0.6587 0.89581 0.37725 0.0
H663 H 0.64663 0.87967 0.37123 0.0
H664 H 0.68432 0.88927 0.53668 0.0
H665 H 0.65506 0.85062 0.52192 0.0
H666 H 0.65636 0.91723 0.52062 0.0
H667 H 0.66452 0.91377 0.45291 0.0
H668 H 0.67642 0.91382 0.51466 0.0
H669 H 0.62104 0.87033 0.50154 0.0
H670 H 0.63016 0.85239 0.48911 0.0
H671 H 0.62859 0.86619 0.43341 0.0
C672 C 0.65318 0.63393 0.45803 0.0
C673 C 0.66854 0.62997 0.45701 0.0
C674 C 0.64246 0.62563 0.42726 0.0
C675 C 0.64722 0.61307 0.39483 0.0
C676 C 0.66266 0.60883 0.39447 0.0
C677 C 0.67313 0.61733 0.42558 0.0
C678 C 0.62607 0.63043 0.42882 0.0
C679 C 0.66814 0.59544 0.36062 0.0
C680 C 0.61834 0.58336 0.3539 0.0
C681 C 0.61526 0.58717 0.29757 0.0
C682 C 0.62865 0.59175 0.38608 0.0
C683 C 0.63606 0.60428 0.36142 0.0
C684 C 0.63296 0.60826 0.30472 0.0
C685 C 0.62259 0.59964 0.27339 0.0
C686 C 0.63168 0.58713 0.44638 0.0
C687 C 0.64067 0.62158 0.27711 0.0
H688 H 0.64954 0.64369 0.48214 0.0
H689 H 0.68498 0.61418 0.42454 0.0
H690 H 0.62218 0.63334 0.38567 0.0
H691 H 0.61892 0.62094 0.44389 0.0
H692 H 0.62418 0.64035 0.45671 0.0
H693 H 0.6805 0.59352 0.36541 0.0
H694 H 0.66209 0.58505 0.37399 0.0
H695 H 0.66561 0.59721 0.31527 0.0
H696 H 0.61275 0.57373 0.373 0.0
H697 H 0.62026 0.60267 0.22996 0.0
H698 H 0.62913 0.59667 0.47523 0.0
H699 H 0.64383 0.58432 0.45174 0.0
H700 H 0.62484 0.57719 0.45944 0.0
H701 H 0.63835 0.63205 0.30147 0.0
H702 H 0.63686 0.62332 0.23293 0.0
H703 H 0.6531 0.61986 0.27714 0.0
C704 C 0.63366 0.42222 0.67722 0.0
C705 C 0.61985 0.41936 0.70426 0.0
C706 C 0.64193 0.41049 0.65212 0.0
C707 C 0.63625 0.39554 0.65408 0.0
C708 C 0.62239 0.39253 0.68173 0.0
C709 C 0.61435 0.40448 0.70658 0.0
C710 C 0.65673 0.41412 0.62324 0.0
C711 C 0.61601 0.3767 0.68472 0.0
C712 C 0.65161 0.36802 0.54528 0.0
C713 C 0.66275 0.36042 0.57644 0.0
C714 C 0.64267 0.3793 0.57032 0.0
C715 C 0.64497 0.38305 0.62776 0.0
C716 C 0.65599 0.37523 0.65965 0.0
C717 C 0.66474 0.36401 0.63363 0.0
C718 C 0.63097 0.38739 0.53511 0.0
C719 C 0.65878 0.37893 0.72098 0.0
H720 H 0.63799 0.43368 0.67521 0.0
H721 H 0.60366 0.40219 0.72728 0.0
H722 H 0.66604 0.40757 0.64292 0.0
H723 H 0.65617 0.41074 0.57823 0.0
H724 H 0.65957 0.42634 0.62551 0.0
H725 H 0.60509 0.37626 0.70784 0.0
H726 H 0.61423 0.37223 0.64152 0.0
H727 H 0.62418 0.36908 0.70602 0.0
H728 H 0.64999 0.36528 0.50114 0.0
H729 H 0.6733 0.35819 0.65813 0.0
H730 H 0.63384 0.39958 0.53222 0.0
H731 H 0.6197 0.38656 0.55546 0.0
H732 H 0.63016 0.38272 0.49173 0.0
H733 H 0.66266 0.39082 0.72501 0.0
H734 H 0.66741 0.37142 0.74037 0.0
H735 H 0.64811 0.37789 0.7453 0.0
C736 C 0.86646 0.40002 0.78232 0.0
C737 C 0.88102 0.40413 0.79991 0.0
C738 C 0.85665 0.39222 0.81868 0.0
C739 C 0.86146 0.38873 0.87416 0.0
C740 C 0.87628 0.39249 0.89161 0.0
C741 C 0.88594 0.40001 0.85408 0.0
C742 C 0.84102 0.38807 0.79827 0.0
C743 C 0.88175 0.38915 0.95068 0.0
C744 C 0.83087 0.38415 0.98508 0.0
C745 C 0.83028 0.3684 0.99099 0.0
C746 C 0.84115 0.39093 0.94777 0.0
C747 C 0.8508 0.3817 0.91479 0.0
C748 C 0.85029 0.36579 0.92077 0.0
C749 C 0.84014 0.35933 0.95927 0.0
C750 C 0.84161 0.40797 0.94336 0.0
C751 C 0.86023 0.35558 0.88563 0.0
H752 H 0.86263 0.40312 0.74045 0.0
H753 H 0.89715 0.40322 0.86818 0.0
H754 H 0.83884 0.37586 0.80559 0.0
H755 H 0.83242 0.39449 0.8225 0.0
H756 H 0.83944 0.39053 0.7527 0.0
H757 H 0.89379 0.39232 0.95693 0.0
H758 H 0.87476 0.39548 0.98158 0.0
H759 H 0.88043 0.37695 0.96029 0.0
H760 H 0.82328 0.39118 0.0096 0.0
H761 H 0.83959 0.34713 0.96317 0.0
H762 H 0.83858 0.41152 0.89994 0.0
H763 H 0.85324 0.41211 0.95177 0.0
H764 H 0.83373 0.41353 0.97339 0.0
H765 H 0.85789 0.35745 0.84019 0.0
H766 H 0.85844 0.34342 0.89538 0.0
H767 H 0.87232 0.35835 0.89282 0.0
C768 C 0.8199 0.61006 0.13012 0.0
C769 C 0.82448 0.62406 0.10818 0.0
C770 C 0.83021 0.60057 0.15788 0.0
C771 C 0.84541 0.60527 0.16432 0.0
C772 C 0.85011 0.6194 0.14239 0.0
C773 C 0.8396 0.62859 0.11426 0.0
C774 C 0.82485 0.58548 0.18006 0.0
C775 C 0.86622 0.62482 0.14877 0.0
C776 C 0.86914 0.58597 0.27711 0.0
C777 C 0.87745 0.5756 0.24488 0.0
C778 C 0.85874 0.59583 0.25142 0.0
C779 C 0.85654 0.59516 0.19229 0.0
C780 C 0.86491 0.58473 0.15961 0.0
C781 C 0.8753 0.57514 0.18623 0.0
C782 C 0.8501 0.60694 0.28747 0.0
C783 C 0.86278 0.58358 0.09653 0.0
H784 H 0.80823 0.60649 0.12554 0.0
H785 H 0.8432 0.63945 0.0978 0.0
H786 H 0.83139 0.57621 0.16004 0.0
H787 H 0.82687 0.58478 0.22615 0.0
H788 H 0.81263 0.58355 0.1719 0.0
H789 H 0.86794 0.63628 0.13068 0.0
H790 H 0.86938 0.62508 0.19404 0.0
H791 H 0.87404 0.61684 0.12749 0.0
H792 H 0.87077 0.58641 0.32238 0.0
H793 H 0.88162 0.56712 0.16093 0.0
H794 H 0.83778 0.60478 0.28378 0.0
H795 H 0.85216 0.61864 0.27237 0.0
H796 H 0.85335 0.60625 0.33266 0.0
H797 H 0.85083 0.5808 0.08674 0.0
H798 H 0.87016 0.57482 0.07725 0.0
H799 H 0.8653 0.59462 0.07638 0.0
C800 C 0.32817 0.38045 0.6321 0.0
C801 C 0.33283 0.37098 0.58791 0.0
C802 C 0.3384 0.39016 0.65898 0.0
C803 C 0.35364 0.39053 0.64092 0.0
C804 C 0.35842 0.38111 0.59603 0.0
C805 C 0.34795 0.37138 0.57016 0.0
C806 C 0.3329 0.39998 0.70692 0.0
C807 C 0.37457 0.38134 0.57535 0.0
C808 C 0.37548 0.42607 0.6776 0.0
C809 C 0.38371 0.42143 0.72515 0.0
C810 C 0.36594 0.41601 0.64897 0.0
C811 C 0.36447 0.40098 0.66869 0.0
C812 C 0.37284 0.39616 0.71634 0.0
C813 C 0.38243 0.40644 0.7439 0.0
C814 C 0.35728 0.42152 0.59804 0.0
C815 C 0.37145 0.38024 0.73881 0.0
H816 H 0.31652 0.38016 0.64629 0.0
H817 H 0.35162 0.36411 0.53602 0.0
H818 H 0.33956 0.39759 0.74557 0.0
H819 H 0.33461 0.41209 0.69639 0.0
H820 H 0.32073 0.39816 0.71641 0.0
H821 H 0.37646 0.37335 0.53987 0.0
H822 H 0.37761 0.39291 0.56118 0.0
H823 H 0.38236 0.37834 0.61028 0.0
H824 H 0.3765 0.4376 0.66255 0.0
H825 H 0.38876 0.40278 0.7806 0.0
H826 H 0.34495 0.42096 0.60651 0.0
H827 H 0.35958 0.4141 0.5613 0.0
H828 H 0.36023 0.43334 0.58654 0.0
H829 H 0.35963 0.37811 0.75235 0.0
H830 H 0.37908 0.37815 0.7752 0.0
H831 H 0.37412 0.37196 0.70511 0.0
C832 C 0.33932 0.62513 0.51417 0.0
C833 C 0.32506 0.62623 0.48861 0.0
C834 C 0.35007 0.61467 0.49486 0.0
C835 C 0.34647 0.60516 0.44877 0.0
C836 C 0.33212 0.60624 0.42267 0.0
C837 C 0.32157 0.61674 0.44302 0.0
C838 C 0.36525 0.61375 0.52392 0.0
C839 C 0.32792 0.59631 0.37327 0.0
C840 C 0.37862 0.58706 0.36696 0.0
C841 C 0.3787 0.57237 0.38926 0.0
C842 C 0.36818 0.59787 0.38592 0.0
C843 C 0.35764 0.59389 0.42834 0.0
C844 C 0.35769 0.5791 0.45108 0.0
C845 C 0.36819 0.5685 0.43115 0.0
C846 C 0.36838 0.61353 0.36049 0.0
C847 C 0.34665 0.57447 0.49655 0.0
H848 H 0.3421 0.63242 0.54945 0.0
H849 H 0.31059 0.61755 0.42291 0.0
H850 H 0.367 0.6022 0.541 0.0
H851 H 0.37444 0.61591 0.49313 0.0
H852 H 0.36629 0.622 0.55904 0.0
H853 H 0.31637 0.59873 0.35717 0.0
H854 H 0.33612 0.59795 0.33839 0.0
H855 H 0.32848 0.58423 0.38581 0.0
H856 H 0.3867 0.59012 0.33453 0.0
H857 H 0.3682 0.55718 0.44873 0.0
H858 H 0.37034 0.62208 0.39395 0.0
H859 H 0.35724 0.61607 0.34113 0.0
H860 H 0.37728 0.6148 0.32779 0.0
H861 H 0.34796 0.58193 0.53386 0.0
H862 H 0.34827 0.56255 0.51015 0.0
H863 H 0.33488 0.57582 0.48111 0.0
C864 C 0.12683 0.5785 0.22702 0.0
C865 C 0.11226 0.58307 0.24311 0.0
C866 C 0.13635 0.58822 0.19669 0.0
C867 C 0.13115 0.60283 0.18191 0.0
C868 C 0.11655 0.6076 0.19866 0.0
C869 C 0.10729 0.59767 0.22927 0.0
C870 C 0.15193 0.58281 0.18003 0.0
C871 C 0.11063 0.62311 0.18356 0.0
C872 C 0.16082 0.63227 0.14706 0.0
C873 C 0.16097 0.63187 0.08786 0.0
C874 C 0.15104 0.62301 0.17812 0.0
C875 C 0.14109 0.61316 0.14934 0.0
C876 C 0.14094 0.61289 0.08962 0.0
C877 C 0.15093 0.62224 0.05953 0.0
C878 C 0.15156 0.62357 0.24178 0.0
C879 C 0.13039 0.60256 0.05759 0.0
H880 H 0.13076 0.56724 0.23762 0.0
H881 H 0.09602 0.60127 0.24137 0.0
H882 H 0.15305 0.58291 0.13344 0.0
H883 H 0.16065 0.59058 0.19715 0.0
H884 H 0.15432 0.57119 0.19549 0.0
H885 H 0.09904 0.62511 0.20006 0.0
H886 H 0.11826 0.63195 0.20069 0.0
H887 H 0.11045 0.62447 0.13705 0.0
H888 H 0.16853 0.63968 0.1694 0.0
H889 H 0.15095 0.62189 0.01384 0.0
H890 H 0.15487 0.61234 0.25864 0.0
H891 H 0.14018 0.62622 0.25885 0.0
H892 H 0.15969 0.63215 0.25767 0.0
H893 H 0.133 0.59059 0.06781 0.0
H894 H 0.13128 0.60411 0.01122 0.0
H895 H 0.11852 0.60468 0.07055 0.0
C896 C 0.12143 0.40033 0.79995 0.0
C897 C 0.11729 0.41366 0.82806 0.0
C898 C 0.13283 0.39089 0.82156 0.0
C899 C 0.14015 0.39486 0.8726 0.0
C900 C 0.13593 0.40822 0.90135 0.0
C901 C 0.1246 0.41747 0.87866 0.0
C902 C 0.13713 0.37676 0.78962 0.0
C903 C 0.14343 0.41278 0.95603 0.0
C904 C 0.16098 0.3647 0.95619 0.0
C905 C 0.17606 0.36761 0.94139 0.0
C906 C 0.14914 0.3734 0.93374 0.0
C907 C 0.15248 0.38524 0.89551 0.0
C908 C 0.16767 0.3882 0.88032 0.0
C909 C 0.17928 0.37937 0.90354 0.0
C910 C 0.13307 0.36999 0.95114 0.0
C911 C 0.17166 0.40072 0.83963 0.0
H912 H 0.11585 0.39731 0.76086 0.0
H913 H 0.12143 0.42771 0.90086 0.0
H914 H 0.14923 0.37728 0.77742 0.0
H915 H 0.1357 0.36669 0.817 0.0
H916 H 0.13022 0.37519 0.75092 0.0
H917 H 0.13859 0.42336 0.97377 0.0
H918 H 0.14217 0.40363 0.9877 0.0
H919 H 0.15572 0.41449 0.94916 0.0
H920 H 0.15841 0.35562 0.98534 0.0
H921 H 0.19089 0.38167 0.89169 0.0
H922 H 0.12611 0.36744 0.91338 0.0
H923 H 0.12801 0.38005 0.97181 0.0
H924 H 0.13236 0.36026 0.98067 0.0
H925 H 0.16567 0.39901 0.79903 0.0
H926 H 0.18401 0.40133 0.83118 0.0
H927 H 0.16791 0.41177 0.85685 0.0
C928 C 0.23284 0.19796 0.91306 0.0
C929 C 0.22305 0.18576 0.92273 0.0
C930 C 0.24208 0.19839 0.86492 0.0
C931 C 0.24131 0.18643 0.82531 0.0
C932 C 0.23128 0.1742 0.83447 0.0
C933 C 0.22236 0.17396 0.88326 0.0
C934 C 0.2528 0.2115 0.85682 0.0
C935 C 0.23002 0.16132 0.79285 0.0
C936 C 0.2556 0.19217 0.67584 0.0
C937 C 0.26943 0.18443 0.67751 0.0
C938 C 0.2464 0.19313 0.72396 0.0
C939 C 0.25129 0.18639 0.77496 0.0
C940 C 0.26544 0.17894 0.77724 0.0
C941 C 0.27429 0.17795 0.72837 0.0
C942 C 0.23128 0.201 0.71983 0.0
C943 C 0.27112 0.17178 0.83107 0.0
H944 H 0.23344 0.20709 0.94349 0.0
H945 H 0.21472 0.16455 0.89023 0.0
H946 H 0.26462 0.20729 0.85534 0.0
H947 H 0.25051 0.21717 0.81599 0.0
H948 H 0.25187 0.22 0.89115 0.0
H949 H 0.22124 0.15297 0.80518 0.0
H950 H 0.22722 0.16578 0.75035 0.0
H951 H 0.24103 0.15538 0.78945 0.0
H952 H 0.25178 0.19716 0.63659 0.0
H953 H 0.28504 0.17206 0.73004 0.0
H954 H 0.23043 0.21 0.75228 0.0
H955 H 0.22207 0.19278 0.72818 0.0
H956 H 0.22939 0.20615 0.67767 0.0
H957 H 0.27104 0.18018 0.86581 0.0
H958 H 0.28277 0.16721 0.82662 0.0
H959 H 0.2635 0.1624 0.84363 0.0
C960 C 0.05923 0.99271 0.12022 0.0
C961 C 0.07138 0.98342 0.13592 0.0
C962 C 0.05953 0.00085 0.06938 0.0
C963 C 0.07223 -0.00042 0.03336 0.0
C964 C 0.08455 0.99027 0.04907 0.0
C965 C 0.084 0.98235 0.10023 0.0
C966 C 0.04625 0.0108 0.05416 0.0
C967 C 0.09828 0.9886 0.01169 0.0
C968 C 0.06856 0.00974 0.87826 0.0
C969 C 0.07534 0.02407 0.87684 0.0
C970 C 0.06729 0.00169 0.92911 0.0
C971 C 0.07284 0.00819 0.97962 0.0
C972 C 0.07948 0.02274 0.97856 0.0
C973 C 0.08069 0.03047 0.92719 0.0
C974 C 0.06023 0.98614 0.92867 0.0
C975 C 0.08546 0.03008 0.03161 0.0
H976 H 0.04945 0.9936 0.14755 0.0
H977 H 0.09342 0.97516 0.11189 0.0
H978 H 0.0501 0.02265 0.04858 0.0
H979 H 0.04132 0.00709 0.01343 0.0
H980 H 0.03725 0.01058 0.08682 0.0
H981 H 0.10681 0.98074 0.02972 0.0
H982 H 0.09484 0.98433 0.9696 0.0
H983 H 0.10369 -0.00022 0.0052 0.0
H984 H 0.0644 0.00472 0.83955 0.0
H985 H 0.08588 0.04158 0.92659 0.0
H986 H 0.05059 0.98573 0.95856 0.0
H987 H 0.06863 0.97764 0.94299 0.0
H988 H 0.05612 0.98285 0.88613 0.0
H989 H 0.07641 0.03066 0.06394 0.0
H990 H 0.08979 0.04169 0.0239 0.0
H991 H 0.09476 0.02315 0.04945 0.0
C992 C 0.22301 0.83379 0.20926 0.0
C993 C 0.22693 0.82426 0.16424 0.0
C994 C 0.23131 0.83367 0.25963 0.0
C995 C 0.24387 0.82387 0.26492 0.0
C996 C 0.24796 0.81431 0.21953 0.0
C997 C 0.2394 0.81458 0.16974 0.0
C998 C 0.22657 0.84397 0.30729 0.0
C999 C 0.26139 0.8038 0.22359 0.0
C1000 C 0.27362 0.8333 0.37453 0.0
C1001 C 0.27 0.82317 0.41801 0.0
C1002 C 0.2652 0.83365 0.32446 0.0
C1003 C 0.25281 0.82369 0.3179 0.0
C1004 C 0.24896 0.81356 0.36184 0.0
C1005 C 0.25765 0.81338 0.41137 0.0
C1006 C 0.26967 0.84456 0.27836 0.0
C1007 C 0.23572 0.80286 0.35641 0.0
H1008 H 0.21336 0.84128 0.20541 0.0
H1009 H 0.2425 0.80721 0.13509 0.0
H1010 H 0.22401 0.83718 0.34546 0.0
H1011 H 0.23598 0.85174 0.31829 0.0
H1012 H 0.21646 0.85085 0.2965 0.0
H1013 H 0.26313 0.79716 0.18433 0.0
H1014 H 0.2718 0.81039 0.23238 0.0
H1015 H 0.2598 0.79581 0.25918 0.0
H1016 H 0.28317 0.84088 0.37925 0.0
H1017 H 0.25476 0.80554 0.44482 0.0
H1018 H 0.26007 0.8522 0.26844 0.0
H1019 H 0.27241 0.83824 0.23926 0.0
H1020 H 0.27961 0.85157 0.29018 0.0
H1021 H 0.2252 0.80934 0.34837 0.0
H1022 H 0.23409 0.79585 0.39481 0.0
H1023 H 0.23746 0.79523 0.31985 0.0
C1024 C 0.43515 0.0112 0.63792 0.0
C1025 C 0.42249 0.01981 0.65334 0.0
C1026 C 0.43552 0.00335 0.5865 0.0
C1027 C 0.42296 0.00419 0.54961 0.0
C1028 C 0.41019 0.01294 0.56475 0.0
C1029 C 0.41009 0.02061 0.6165 0.0
C1030 C 0.4493 0.99404 0.57186 0.0
C1031 C 0.39659 0.01412 0.52644 0.0
C1032 C 0.42856 0.99344 0.3958 0.0
C1033 C 0.42293 0.97862 0.39503 0.0
C1034 C 0.42859 0.00196 0.44581 0.0
C1035 C 0.42292 0.99545 0.49611 0.0
C1036 C 0.41715 0.98054 0.49549 0.0
C1037 C 0.41719 0.97232 0.44499 0.0
C1038 C 0.43476 0.01788 0.44494 0.0
C1039 C 0.41102 0.9732 0.54831 0.0
H1040 H 0.44478 0.01054 0.6661 0.0
H1041 H 0.40028 0.02729 0.62795 0.0
H1042 H 0.44605 0.98199 0.56688 0.0
H1043 H 0.45407 0.99784 0.53099 0.0
H1044 H 0.45826 0.99482 0.60459 0.0
H1045 H 0.38776 0.02178 0.54365 0.0
H1046 H 0.40008 0.01837 0.48438 0.0
H1047 H 0.39153 0.00277 0.52011 0.0
H1048 H 0.43301 0.99838 0.3574 0.0
H1049 H 0.41283 0.96087 0.4449 0.0
H1050 H 0.44443 0.01883 0.47452 0.0
H1051 H 0.42595 0.02594 0.45947 0.0
H1052 H 0.43859 0.02135 0.40225 0.0
H1053 H 0.41995 0.97283 0.58119 0.0
H1054 H 0.40694 0.96149 0.54065 0.0
H1055 H 0.40153 0.97999 0.56542 0.0
C1056 C 0.77465 0.83356 0.21762 0.0
C1057 C 0.77081 0.82356 0.17392 0.0
C1058 C 0.76646 0.83379 0.26819 0.0
C1059 C 0.75405 0.82387 0.27512 0.0
C1060 C 0.74984 0.81403 0.23068 0.0
C1061 C 0.75831 0.81396 0.18059 0.0
C1062 C 0.77131 0.84441 0.3147 0.0
C1063 C 0.73657 0.80339 0.23646 0.0
C1064 C 0.74279 0.81372 0.42484 0.0
C1065 C 0.73052 0.82347 0.43409 0.0
C1066 C 0.75049 0.81367 0.37311 0.0
C1067 C 0.74574 0.82354 0.32954 0.0
C1068 C 0.73332 0.83334 0.33847 0.0
C1069 C 0.72589 0.83323 0.39072 0.0
C1070 C 0.76376 0.80313 0.36521 0.0
C1071 C 0.72791 0.84398 0.29288 0.0
H1072 H 0.78429 0.84102 0.21288 0.0
H1073 H 0.75525 0.80624 0.14698 0.0
H1074 H 0.76173 0.85179 0.32721 0.0
H1075 H 0.77465 0.83781 0.35249 0.0
H1076 H 0.78097 0.85169 0.30203 0.0
H1077 H 0.73437 0.79694 0.1971 0.0
H1078 H 0.73873 0.79524 0.27111 0.0
H1079 H 0.72622 0.80982 0.24769 0.0
H1080 H 0.74644 0.80615 0.45812 0.0
H1081 H 0.71638 0.84075 0.39743 0.0
H1082 H 0.77411 0.80977 0.35577 0.0
H1083 H 0.76171 0.79556 0.3287 0.0
H1084 H 0.76593 0.79606 0.40308 0.0
H1085 H 0.73709 0.85195 0.28136 0.0
H1086 H 0.71786 0.85063 0.30612 0.0
H1087 H 0.72499 0.83749 0.25433 0.0
C1088 C 0.92084 0.01175 0.96436 0.0
C1089 C 0.93102 0.02387 0.96863 0.0
C1090 C 0.92016 0.00057 0.00621 0.0
C1091 C 0.92992 0.00153 0.05338 0.0
C1092 C 0.9404 0.01357 0.0575 0.0
C1093 C 0.94082 0.02462 0.01506 0.0
C1094 C 0.90881 0.98789 0.00044 0.0
C1095 C 0.95101 0.01491 0.10718 0.0
C1096 C 0.91742 0.9818 0.18737 0.0
C1097 C 0.92591 0.96841 0.18547 0.0
C1098 C 0.91871 0.99272 0.14481 0.0
C1099 C 0.92875 0.9902 0.09933 0.0
C1100 C 0.93744 0.97676 0.0973 0.0
C1101 C 0.9359 0.966 0.14042 0.0
C1102 C 0.90923 0.00691 0.1483 0.0
C1103 C 0.94829 0.97372 0.04943 0.0
H1104 H 0.91325 0.01106 0.92857 0.0
H1105 H 0.94875 0.03392 0.01857 0.0
H1106 H 0.91465 0.9768 0.00245 0.0
H1107 H 0.90068 0.98829 0.03603 0.0
H1108 H 0.90237 0.98853 0.96028 0.0
H1109 H 0.95889 0.02463 0.10297 0.0
H1110 H 0.9444 0.01633 0.14657 0.0
H1111 H 0.95775 0.0044 0.11172 0.0
H1112 H 0.90968 0.98376 0.22206 0.0
H1113 H 0.94253 0.9557 0.13875 0.0
H1114 H 0.90173 0.0077 0.1109 0.0
H1115 H 0.91664 0.01704 0.148 0.0
H1116 H 0.90212 0.00724 0.1869 0.0
H1117 H 0.94203 0.97341 0.00888 0.0
H1118 H 0.95443 0.96285 0.05469 0.0
H1119 H 0.95669 0.98301 0.04642 0.0
C1120 C 0.77375 0.16184 0.85937 0.0
C1121 C 0.76858 0.17102 0.90367 0.0
C1122 C 0.76589 0.16108 0.80809 0.0
C1123 C 0.75249 0.16963 0.80106 0.0
C1124 C 0.74717 0.17886 0.84564 0.0
C1125 C 0.75531 0.17947 0.8964 0.0
C1126 C 0.77194 0.15117 0.76138 0.0
C1127 C 0.73286 0.18805 0.83974 0.0
C1128 C 0.73857 0.1784 0.65312 0.0
C1129 C 0.72715 0.16756 0.64619 0.0
C1130 C 0.74704 0.17911 0.70313 0.0
C1131 C 0.74394 0.16878 0.74725 0.0
C1132 C 0.73255 0.15769 0.74024 0.0
C1133 C 0.72433 0.15718 0.68973 0.0
C1134 C 0.75919 0.19101 0.70901 0.0
C1135 C 0.7289 0.1465 0.78643 0.0
H1136 H 0.78403 0.1553 0.86455 0.0
H1137 H 0.75124 0.18658 0.93043 0.0
H1138 H 0.76343 0.14247 0.74995 0.0
H1139 H 0.77407 0.15807 0.72311 0.0
H1140 H 0.78261 0.14537 0.77341 0.0
H1141 H 0.73024 0.19464 0.8784 0.0
H1142 H 0.73392 0.196 0.80378 0.0
H1143 H 0.72316 0.18047 0.83048 0.0
H1144 H 0.74083 0.18644 0.61964 0.0
H1145 H 0.71551 0.14877 0.68478 0.0
H1146 H 0.77021 0.18558 0.7186 0.0
H1147 H 0.75647 0.19863 0.74476 0.0
H1148 H 0.76045 0.19795 0.67024 0.0
H1149 H 0.73916 0.13993 0.7977 0.0
H1150 H 0.71983 0.13847 0.77401 0.0
H1151 H 0.72523 0.15263 0.8249 0.0
C1152 C 0.56894 0.01471 0.67032 0.0
C1153 C 0.56618 0.03004 0.65887 0.0
C1154 C 0.56876 0.0039 0.62711 0.0
C1155 C 0.56581 0.00854 0.57107 0.0
C1156 C 0.56254 0.0239 0.55944 0.0
C1157 C 0.56274 0.03448 0.60357 0.0
C1158 C 0.5722 0.9876 0.64119 0.0
C1159 C 0.55935 0.02924 0.50014 0.0
C1160 C 0.58235 0.984 0.45547 0.0
C1161 C 0.56973 0.97554 0.43843 0.0
C1162 C 0.58115 0.99494 0.49801 0.0
C1163 C 0.567 0.99743 0.52433 0.0
C1164 C 0.55418 0.98904 0.50707 0.0
C1165 C 0.55569 0.9782 0.46419 0.0
C1166 C 0.59506 0.00372 0.51518 0.0
C1167 C 0.53893 0.99137 0.53439 0.0
H1168 H 0.57152 0.01117 0.71302 0.0
H1169 H 0.56058 0.04629 0.5944 0.0
H1170 H 0.56313 0.98012 0.62481 0.0
H1171 H 0.58291 0.98414 0.62046 0.0
H1172 H 0.57334 0.9857 0.68731 0.0
H1173 H 0.55609 0.04137 0.49868 0.0
H1174 H 0.56956 0.02762 0.47361 0.0
H1175 H 0.55014 0.02243 0.48109 0.0
H1176 H 0.59322 0.98206 0.43564 0.0
H1177 H 0.54589 0.97171 0.45125 0.0
H1178 H 0.59771 0.00149 0.56016 0.0
H1179 H 0.59295 0.01604 0.51093 0.0
H1180 H 0.60512 0.00073 0.4894 0.0
H1181 H 0.53964 0.98865 0.57999 0.0
H1182 H 0.53 0.98422 0.51504 0.0
H1183 H 0.5355 0.0034 0.53091 0.0
C1184 C 0.73372 0.69043 0.39239 0.0
C1185 C 0.72362 0.67857 0.40351 0.0
C1186 C 0.74268 0.6904 0.34353 0.0
C1187 C 0.74137 0.67831 0.3047 0.0
C1188 C 0.73108 0.66639 0.31542 0.0
C1189 C 0.7224 0.66662 0.36484 0.0
C1190 C 0.75366 0.70321 0.33371 0.0
C1191 C 0.72926 0.65337 0.27473 0.0
C1192 C 0.75484 0.68341 0.15381 0.0
C1193 C 0.76862 0.67556 0.15466 0.0
C1194 C 0.74591 0.68456 0.20257 0.0
C1195 C 0.75099 0.67786 0.2534 0.0
C1196 C 0.76504 0.67022 0.25477 0.0
C1197 C 0.77364 0.66908 0.20531 0.0
C1198 C 0.73089 0.69267 0.19944 0.0
C1199 C 0.77091 0.66306 0.30833 0.0
H1200 H 0.73473 0.69968 0.42215 0.0
H1201 H 0.71454 0.65746 0.37293 0.0
H1202 H 0.76536 0.69871 0.33112 0.0
H1203 H 0.75118 0.70882 0.2929 0.0
H1204 H 0.75322 0.71184 0.36774 0.0
H1205 H 0.72043 0.64523 0.28849 0.0
H1206 H 0.72622 0.6577 0.2323 0.0
H1207 H 0.74013 0.64721 0.27049 0.0
H1208 H 0.75088 0.68841 0.11478 0.0
H1209 H 0.78434 0.66309 0.20638 0.0
H1210 H 0.73046 0.70185 0.23127 0.0
H1211 H 0.7216 0.68467 0.20942 0.0
H1212 H 0.72877 0.69762 0.15712 0.0
H1213 H 0.77133 0.67159 0.34263 0.0
H1214 H 0.78239 0.65815 0.30293 0.0
H1215 H 0.76312 0.65396 0.32215 0.0
C1216 C 0.57601 0.51418 0.39569 0.0
C1217 C 0.59037 0.51777 0.37434 0.0
C1218 C 0.57432 0.50367 0.43954 0.0
C1219 C 0.58729 0.49649 0.46211 0.0
C1220 C 0.60175 0.49969 0.43952 0.0
C1221 C 0.60312 0.51035 0.39604 0.0
C1222 C 0.55873 0.50059 0.46285 0.0
C1223 C 0.61581 0.49213 0.46219 0.0
C1224 C 0.58604 0.4823 0.61281 0.0
C1225 C 0.58383 0.46673 0.60511 0.0
C1226 C 0.58702 0.49212 0.56657 0.0
C1227 C 0.58583 0.48621 0.51129 0.0
C1228 C 0.58351 0.47052 0.50315 0.0
C1229 C 0.5825 0.46096 0.55023 0.0
C1230 C 0.58943 0.50881 0.5769 0.0
C1231 C 0.58226 0.46384 0.44474 0.0
H1232 H 0.5661 0.51988 0.37913 0.0
H1233 H 0.61424 0.51299 0.37946 0.0
H1234 H 0.55633 0.48828 0.46212 0.0
H1235 H 0.55817 0.5043 0.5075 0.0
H1236 H 0.54974 0.50655 0.43879 0.0
H1237 H 0.62609 0.49519 0.43776 0.0
H1238 H 0.61758 0.49547 0.50681 0.0
H1239 H 0.61447 0.47966 0.46133 0.0
H1240 H 0.58705 0.48686 0.65509 0.0
H1241 H 0.58082 0.44893 0.54395 0.0
H1242 H 0.58022 0.51543 0.55685 0.0
H1243 H 0.60022 0.51249 0.55734 0.0
H1244 H 0.58978 0.51163 0.62254 0.0
H1245 H 0.57288 0.46931 0.42133 0.0
H1246 H 0.58024 0.45144 0.44566 0.0
H1247 H 0.59281 0.46605 0.4208 0.0
C1248 C 0.73882 0.3482 0.6974 0.0
C1249 C 0.73101 0.33546 0.67758 0.0
C1250 C 0.74904 0.34705 0.74239 0.0
C1251 C 0.75141 0.33285 0.76846 0.0
C1252 C 0.74368 0.31991 0.74833 0.0
C1253 C 0.73361 0.32136 0.70292 0.0
C1254 C 0.75719 0.36108 0.76244 0.0
C1255 C 0.74588 0.3046 0.77534 0.0
C1256 C 0.78697 0.32808 0.85628 0.0
C1257 C 0.7815 0.33073 0.9109 0.0
C1258 C 0.77726 0.32853 0.80951 0.0
C1259 C 0.76172 0.33165 0.81768 0.0
C1260 C 0.75607 0.33406 0.87279 0.0
C1261 C 0.76604 0.33361 0.91875 0.0
C1262 C 0.78369 0.32596 0.75128 0.0
C1263 C 0.73953 0.33733 0.88313 0.0
H1264 H 0.73693 0.35912 0.67783 0.0
H1265 H 0.72759 0.31147 0.68788 0.0
H1266 H 0.75409 0.3635 0.80687 0.0
H1267 H 0.7696 0.35923 0.76125 0.0
H1268 H 0.75445 0.37117 0.73644 0.0
H1269 H 0.73927 0.2956 0.75384 0.0
H1270 H 0.75802 0.30143 0.77458 0.0
H1271 H 0.74236 0.30505 0.82023 0.0
H1272 H 0.79891 0.32586 0.84986 0.0
H1273 H 0.76171 0.33562 0.96086 0.0
H1274 H 0.78203 0.33623 0.72513 0.0
H1275 H 0.77761 0.31656 0.73013 0.0
H1276 H 0.79595 0.32323 0.7523 0.0
H1277 H 0.73629 0.34801 0.86172 0.0
H1278 H 0.73686 0.3384 0.92873 0.0
H1279 H 0.73246 0.32818 0.86496 0.0
C1280 C 0.93478 0.49855 0.12295 0.0
C1281 C 0.92341 0.50927 0.13326 0.0
C1282 C 0.93535 0.49065 0.07163 0.0
C1283 C 0.92438 0.49365 0.02956 0.0
C1284 C 0.91296 0.50452 0.03957 0.0
C1285 C 0.91256 0.51214 0.09138 0.0
C1286 C 0.94761 0.47901 0.06257 0.0
C1287 C 0.90112 0.50809 0.99559 0.0
C1288 C 0.93272 0.48233 0.87806 0.0
C1289 C 0.92437 0.46892 0.87306 0.0
C1290 C 0.93284 0.49053 0.92881 0.0
C1291 C 0.92453 0.48509 0.97565 0.0
C1292 C 0.91611 0.47155 0.97085 0.0
C1293 C 0.91607 0.46368 0.91957 0.0
C1294 C 0.94181 0.50503 0.93229 0.0
C1295 C 0.90719 0.46532 0.01999 0.0
H1296 H 0.94319 0.49628 0.15509 0.0
H1297 H 0.90379 0.52046 0.09882 0.0
H1298 H 0.94245 0.46775 0.05495 0.0
H1299 H 0.95434 0.48191 0.0246 0.0
H1300 H 0.95538 0.47813 0.09924 0.0
H1301 H 0.89327 0.51719 0.00936 0.0
H1302 H 0.90664 0.51166 0.95575 0.0
H1303 H 0.89439 0.49781 0.98611 0.0
H1304 H 0.93915 0.48645 0.84231 0.0
H1305 H 0.90965 0.45327 0.91624 0.0
H1306 H 0.95042 0.50417 0.96617 0.0
H1307 H 0.93422 0.51457 0.94337 0.0
H1308 H 0.94763 0.50775 0.89202 0.0
H1309 H 0.9148 0.46342 0.05653 0.0
H1310 H 0.90146 0.45449 0.00959 0.0
H1311 H 0.8985 0.47363 0.03336 0.0
C1312 C 0.2586 0.32273 0.61922 0.0
C1313 C 0.27407 0.32626 0.62038 0.0
C1314 C 0.25026 0.32145 0.66939 0.0
C1315 C 0.25757 0.3237 0.72186 0.0
C1316 C 0.2732 0.3271 0.72332 0.0
C1317 C 0.28125 0.32836 0.67261 0.0
C1318 C 0.23359 0.31784 0.66626 0.0
C1319 C 0.2814 0.32956 0.77846 0.0
C1320 C 0.23399 0.33535 0.84829 0.0
C1321 C 0.23244 0.32161 0.87735 0.0
C1322 C 0.24207 0.33616 0.7975 0.0
C1323 C 0.24882 0.32292 0.77529 0.0
C1324 C 0.24738 0.30903 0.80453 0.0
C1325 C 0.23919 0.30854 0.85521 0.0
C1326 C 0.24335 0.35118 0.76752 0.0
C1327 C 0.2545 0.2947 0.78224 0.0
H1328 H 0.25297 0.32109 0.57909 0.0
H1329 H 0.2932 0.33106 0.674 0.0
H1330 H 0.23109 0.3075 0.69101 0.0
H1331 H 0.22695 0.32721 0.68517 0.0
H1332 H 0.22967 0.31609 0.62223 0.0
H1333 H 0.29367 0.33173 0.77236 0.0
H1334 H 0.2764 0.33933 0.80111 0.0
H1335 H 0.28006 0.3195 0.80599 0.0
H1336 H 0.22879 0.34551 0.86497 0.0
H1337 H 0.23804 0.29788 0.87737 0.0
H1338 H 0.23862 0.35025 0.72431 0.0
H1339 H 0.25543 0.35439 0.76322 0.0
H1340 H 0.23732 0.36038 0.79013 0.0
H1341 H 0.25005 0.29217 0.73952 0.0
H1342 H 0.25231 0.28481 0.80997 0.0
H1343 H 0.26691 0.29623 0.7782 0.0
C1344 C 0.43639 0.52717 0.50829 0.0
C1345 C 0.42645 0.5248 0.46301 0.0
C1346 C 0.43747 0.51666 0.55241 0.0
C1347 C 0.42833 0.50352 0.5513 0.0
C1348 C 0.41834 0.50102 0.5056 0.0
C1349 C 0.41755 0.51168 0.46192 0.0
C1350 C 0.44831 0.51964 0.60037 0.0
C1351 C 0.40837 0.48717 0.50313 0.0
C1352 C 0.43887 0.46923 0.6392 0.0
C1353 C 0.429 0.47067 0.68516 0.0
C1354 C 0.43901 0.48003 0.59583 0.0
C1355 C 0.42898 0.49248 0.59842 0.0
C1356 C 0.41919 0.49415 0.64521 0.0
C1357 C 0.41935 0.48324 0.68811 0.0
C1358 C 0.44968 0.47795 0.54671 0.0
C1359 C 0.4083 0.50727 0.64934 0.0
H1360 H 0.44335 0.53726 0.50934 0.0
H1361 H 0.40983 0.50978 0.42712 0.0
H1362 H 0.44198 0.5205 0.64063 0.0
H1363 H 0.45634 0.51006 0.60468 0.0
H1364 H 0.45488 0.53022 0.59422 0.0
H1365 H 0.40133 0.48683 0.46433 0.0
H1366 H 0.4154 0.47679 0.50466 0.0
H1367 H 0.40076 0.48691 0.54034 0.0
H1368 H 0.44641 0.45958 0.63674 0.0
H1369 H 0.41167 0.48443 0.72347 0.0
H1370 H 0.45675 0.48821 0.54117 0.0
H1371 H 0.44311 0.4764 0.50727 0.0
H1372 H 0.45725 0.46803 0.55232 0.0
H1373 H 0.41453 0.51813 0.6463 0.0
H1374 H 0.40179 0.50718 0.68939 0.0
H1375 H 0.40021 0.50689 0.61359 0.0
C1376 C 0.27093 0.67426 0.40783 0.0
C1377 C 0.26456 0.6669 0.45457 0.0
C1378 C 0.26265 0.67626 0.35791 0.0
C1379 C 0.24771 0.6706 0.35446 0.0
C1380 C 0.24115 0.66331 0.40166 0.0
C1381 C 0.24963 0.66163 0.45129 0.0
C1382 C 0.26995 0.68426 0.30865 0.0
C1383 C 0.22528 0.65702 0.39935 0.0
C1384 C 0.22068 0.68505 0.24231 0.0
C1385 C 0.22146 0.67349 0.20191 0.0
C1386 C 0.22944 0.68445 0.29162 0.0
C1387 C 0.23906 0.6719 0.30095 0.0
C1388 C 0.24012 0.66034 0.25984 0.0
C1389 C 0.23137 0.66132 0.21063 0.0
C1390 C 0.22819 0.69709 0.33418 0.0
C1391 C 0.25019 0.64674 0.26849 0.0
H1392 H 0.28244 0.67846 0.41016 0.0
H1393 H 0.24465 0.65589 0.48717 0.0
H1394 H 0.2709 0.67639 0.27236 0.0
H1395 H 0.2628 0.69389 0.29491 0.0
H1396 H 0.28142 0.68858 0.31903 0.0
H1397 H 0.22175 0.65188 0.44002 0.0
H1398 H 0.21716 0.6661 0.3883 0.0
H1399 H 0.22453 0.64827 0.3659 0.0
H1400 H 0.2131 0.69453 0.23568 0.0
H1401 H 0.23201 0.65233 0.17967 0.0
H1402 H 0.23956 0.70176 0.3436 0.0
H1403 H 0.22352 0.69265 0.3743 0.0
H1404 H 0.2208 0.70643 0.31921 0.0
H1405 H 0.26202 0.65041 0.27584 0.0
H1406 H 0.25 0.63892 0.23182 0.0
H1407 H 0.2465 0.64042 0.30652 0.0
C1408 C 0.05309 0.51708 0.16707 0.0
C1409 C 0.06461 0.52744 0.17978 0.0
C1410 C 0.05383 0.50807 0.11839 0.0
C1411 C 0.0663 0.5096 0.08138 0.0
C1412 C 0.07793 0.52006 0.09392 0.0
C1413 C 0.07699 0.52879 0.14312 0.0
C1414 C 0.0413 0.4969 0.10661 0.0
C1415 C 0.09135 0.5221 0.0552 0.0
C1416 C 0.07674 0.47787 0.98118 0.0
C1417 C 0.07062 0.48306 0.93015 0.0
C1418 C 0.07509 0.48623 0.03103 0.0
C1419 C 0.0673 0.5002 0.02963 0.0
C1420 C 0.06098 0.50545 0.97838 0.0
C1421 C 0.06263 0.49676 0.92925 0.0
C1422 C 0.08185 0.4802 0.08505 0.0
C1423 C 0.05273 0.52039 0.97522 0.0
H1424 H 0.04351 0.51595 0.19529 0.0
H1425 H 0.08591 0.53682 0.15248 0.0
H1426 H 0.03591 0.49951 0.0655 0.0
H1427 H 0.04603 0.48531 0.10351 0.0
H1428 H 0.03245 0.497 0.13985 0.0
H1429 H 0.09932 0.53089 0.07065 0.0
H1430 H 0.09758 0.51127 0.05105 0.0
H1431 H 0.08742 0.52534 0.01243 0.0
H1432 H 0.08283 0.46723 0.98226 0.0
H1433 H 0.0579 0.50084 0.88992 0.0
H1434 H 0.07304 0.47953 0.11827 0.0
H1435 H 0.09074 0.48803 0.10045 0.0
H1436 H 0.08694 0.4688 0.07952 0.0
H1437 H 0.04325 0.52056 0.00584 0.0
H1438 H 0.04815 0.52267 0.93243 0.0
H1439 H 0.06053 0.52971 0.98687 0.0
C1440 C 0.16894 0.22002 0.04934 0.0
C1441 C 0.17261 0.21328 0.1011 0.0
C1442 C 0.16807 0.23577 0.04399 0.0
C1443 C 0.17109 0.245 0.09144 0.0
C1444 C 0.17359 0.23823 0.14478 0.0
C1445 C 0.17424 0.2224 0.14906 0.0
C1446 C 0.16515 0.24253 0.98651 0.0
C1447 C 0.17686 0.24768 0.19637 0.0
C1448 C 0.19147 0.28154 0.05795 0.0
C1449 C 0.17984 0.29227 0.06207 0.0
C1450 C 0.18876 0.26621 0.06851 0.0
C1451 C 0.17401 0.2614 0.08323 0.0
C1452 C 0.1622 0.27214 0.08795 0.0
C1453 C 0.16527 0.2875 0.07747 0.0
C1454 C 0.2017 0.25511 0.06327 0.0
C1455 C 0.14633 0.26738 0.1032 0.0
H1456 H 0.16747 0.21299 0.01226 0.0
H1457 H 0.17705 0.21726 0.18922 0.0
H1458 H 0.15694 0.25198 0.98942 0.0
H1459 H 0.17585 0.24719 0.96937 0.0
H1460 H 0.16074 0.23401 0.95625 0.0
H1461 H 0.17614 0.24094 0.23581 0.0
H1462 H 0.18844 0.25244 0.19311 0.0
H1463 H 0.16887 0.25733 0.19935 0.0
H1464 H 0.20278 0.28512 0.04641 0.0
H1465 H 0.15622 0.29572 0.08075 0.0
H1466 H 0.19923 0.24681 0.02943 0.0
H1467 H 0.20305 0.24869 0.10315 0.0
H1468 H 0.2126 0.26078 0.05337 0.0
H1469 H 0.14181 0.25969 0.07028 0.0
H1470 H 0.13856 0.27719 0.10747 0.0
H1471 H 0.14638 0.26099 0.14346 0.0
C1472 C 0.02876 0.94073 0.28998 0.0
C1473 C 0.03906 0.93695 0.33269 0.0
C1474 C 0.01315 0.94064 0.30003 0.0
C1475 C 0.0077 0.93657 0.35405 0.0
C1476 C 0.01796 0.932 0.39655 0.0
C1477 C 0.03356 0.93228 0.3854 0.0
C1478 C 0.00255 0.94557 0.25354 0.0
C1479 C 0.01252 0.92744 0.45444 0.0
C1480 C 0.97015 0.95475 0.3894 0.0
C1481 C 0.95993 0.9433 0.37447 0.0
C1482 C 0.98579 0.95242 0.3856 0.0
C1483 C 0.99134 0.93828 0.36673 0.0
C1484 C 0.98112 0.92639 0.35483 0.0
C1485 C 0.96551 0.92905 0.3587 0.0
C1486 C 0.99634 0.9654 0.39875 0.0
C1487 C 0.98664 0.91111 0.33521 0.0
H1488 H 0.03288 0.94427 0.24901 0.0
H1489 H 0.04145 0.92927 0.41855 0.0
H1490 H 0.99365 0.93691 0.24673 0.0
H1491 H 0.99679 0.95622 0.26594 0.0
H1492 H 0.00854 0.94751 0.213 0.0
H1493 H 0.02175 0.9226 0.48062 0.0
H1494 H 0.00786 0.93748 0.47653 0.0
H1495 H 0.00327 0.91901 0.45107 0.0
H1496 H 0.96595 0.96575 0.40202 0.0
H1497 H 0.95768 0.92011 0.34748 0.0
H1498 H 0.00204 0.96915 0.35947 0.0
H1499 H 0.00529 0.96171 0.42854 0.0
H1500 H 0.99031 0.97523 0.41732 0.0
H1501 H 0.99129 0.91212 0.29191 0.0
H1502 H 0.97745 0.90255 0.33474 0.0
H1503 H 0.99591 0.90699 0.36278 0.0
C1504 C 0.32794 0.78009 0.63686 0.0
C1505 C 0.32065 0.78673 0.59049 0.0
C1506 C 0.32772 0.76434 0.64473 0.0
C1507 C 0.31998 0.7551 0.60541 0.0
C1508 C 0.31325 0.7617 0.55716 0.0
C1509 C 0.3137 0.77741 0.55025 0.0
C1510 C 0.33515 0.75766 0.69633 0.0
C1511 C 0.3049 0.75224 0.51413 0.0
C1512 C 0.3235 0.71249 0.59447 0.0
C1513 C 0.30992 0.70782 0.61967 0.0
C1514 C 0.32749 0.72786 0.59272 0.0
C1515 C 0.31764 0.73874 0.61649 0.0
C1516 C 0.30442 0.73398 0.64509 0.0
C1517 C 0.30074 0.71857 0.64645 0.0
C1518 C 0.34178 0.7325 0.56249 0.0
C1519 C 0.29362 0.74524 0.6711 0.0
H1520 H 0.33339 0.78722 0.66801 0.0
H1521 H 0.30815 0.78241 0.514 0.0
H1522 H 0.32633 0.7536 0.72594 0.0
H1523 H 0.3422 0.74776 0.68464 0.0
H1524 H 0.34235 0.76603 0.71869 0.0
H1525 H 0.30112 0.75901 0.47725 0.0
H1526 H 0.31222 0.74291 0.49884 0.0
H1527 H 0.29481 0.74703 0.534 0.0
H1528 H 0.33073 0.70423 0.57412 0.0
H1529 H 0.29031 0.71505 0.66655 0.0
H1530 H 0.34811 0.74101 0.58751 0.0
H1531 H 0.33881 0.73782 0.52159 0.0
H1532 H 0.34931 0.72269 0.55405 0.0
H1533 H 0.29982 0.75329 0.6985 0.0
H1534 H 0.28467 0.73965 0.69651 0.0
H1535 H 0.28809 0.75192 0.63724 0.0
C1536 C 0.4596 0.07114 0.89563 0.0
C1537 C 0.45287 0.06649 0.84491 0.0
C1538 C 0.47542 0.07168 0.90122 0.0
C1539 C 0.48464 0.0673 0.85523 0.0
C1540 C 0.4779 0.06353 0.80296 0.0
C1541 C 0.46211 0.06326 0.79835 0.0
C1542 C 0.48221 0.07607 0.95726 0.0
C1543 C 0.48732 0.05875 0.75287 0.0
C1544 C 0.52721 0.07256 0.84762 0.0
C1545 C 0.53228 0.05798 0.86145 0.0
C1546 C 0.51172 0.07611 0.84862 0.0
C1547 C 0.50112 0.06476 0.86313 0.0
C1548 C 0.50625 0.05028 0.87987 0.0
C1549 C 0.52176 0.0471 0.87912 0.0
C1550 C 0.50666 0.09176 0.83154 0.0
C1551 C 0.49532 0.03783 0.8955 0.0
H1552 H 0.45254 0.0738 0.93165 0.0
H1553 H 0.45704 0.05978 0.75881 0.0
H1554 H 0.48662 0.06582 0.97868 0.0
H1555 H 0.49188 0.08391 0.95119 0.0
H1556 H 0.47378 0.08153 0.98542 0.0
H1557 H 0.48043 0.05742 0.71401 0.0
H1558 H 0.49637 0.06715 0.74457 0.0
H1559 H 0.49291 0.04778 0.76217 0.0
H1560 H 0.53529 0.08107 0.83437 0.0
H1561 H 0.52557 0.03584 0.89031 0.0
H1562 H 0.49804 0.09613 0.86137 0.0
H1563 H 0.50135 0.09129 0.78921 0.0
H1564 H 0.51626 0.09986 0.82987 0.0
H1565 H 0.48739 0.04179 0.92858 0.0
H1566 H 0.50118 0.02753 0.91108 0.0
H1567 H 0.48846 0.0347 0.85807 0.0
C1568 C 0.18306 0.77932 0.93553 0.0
C1569 C 0.18431 0.78751 0.98599 0.0
C1570 C 0.18389 0.76345 0.93542 0.0
C1571 C 0.18619 0.75567 0.98688 0.0
C1572 C 0.18672 0.76383 0.03816 0.0
C1573 C 0.18569 0.77964 0.03711 0.0
C1574 C 0.18303 0.75509 0.88003 0.0
C1575 C 0.18923 0.75595 0.09394 0.0
C1576 C 0.18123 0.71323 0.00292 0.0
C1577 C 0.19628 0.70823 0.00039 0.0
C1578 C 0.17765 0.7286 0.99605 0.0
C1579 C 0.18942 0.73918 0.98715 0.0
C1580 C 0.20457 0.73412 0.98281 0.0
C1581 C 0.2078 0.7187 0.98919 0.0
C1582 C 0.16135 0.73357 0.00014 0.0
C1583 C 0.21746 0.74508 0.97373 0.0
H1584 H 0.18188 0.78532 0.89589 0.0
H1585 H 0.1866 0.78584 0.07638 0.0
H1586 H 0.19431 0.75038 0.86949 0.0
H1587 H 0.17506 0.74543 0.88324 0.0
H1588 H 0.17935 0.76254 0.8449 0.0
H1589 H 0.18834 0.76383 0.13029 0.0
H1590 H 0.18086 0.74673 0.09965 0.0
H1591 H 0.20064 0.75072 0.09446 0.0
H1592 H 0.17226 0.70518 0.01113 0.0
H1593 H 0.21945 0.71493 0.98704 0.0
H1594 H 0.15836 0.7409 0.96383 0.0
H1595 H 0.15971 0.74036 0.03899 0.0
H1596 H 0.15343 0.72382 0.0013 0.0
H1597 H 0.21532 0.7521 0.9358 0.0
H1598 H 0.22849 0.73923 0.96848 0.0
H1599 H 0.21829 0.75286 0.01032 0.0
C1600 C 0.4777 0.94192 0.3257 0.0
C1601 C 0.46665 0.93308 0.2992 0.0
C1602 C 0.49307 0.93982 0.31397 0.0
C1603 C 0.49753 0.92827 0.27604 0.0
C1604 C 0.48645 0.91896 0.25049 0.0
C1605 C 0.47107 0.92164 0.26171 0.0
C1606 C 0.50452 0.95021 0.3412 0.0
C1607 C 0.49084 0.90626 0.21125 0.0
C1608 C 0.53604 0.93526 0.21181 0.0
C1609 C 0.54544 0.92816 0.25129 0.0
C1610 C 0.52026 0.93466 0.21735 0.0
C1611 C 0.51381 0.92639 0.26251 0.0
C1612 C 0.52327 0.91805 0.29931 0.0
C1613 C 0.53902 0.91925 0.29385 0.0
C1614 C 0.5106 0.94398 0.17796 0.0
C1615 C 0.51681 0.9087 0.34681 0.0
H1616 H 0.47429 0.95086 0.35434 0.0
H1617 H 0.46252 0.91473 0.24149 0.0
H1618 H 0.51257 0.94355 0.36706 0.0
H1619 H 0.51118 0.95611 0.30821 0.0
H1620 H 0.49913 0.95885 0.36866 0.0
H1621 H 0.48092 0.89945 0.1977 0.0
H1622 H 0.49645 0.91091 0.1732 0.0
H1623 H 0.49909 0.89867 0.23228 0.0
H1624 H 0.541 0.94227 0.17916 0.0
H1625 H 0.54631 0.91367 0.32417 0.0
H1626 H 0.50582 0.95375 0.20139 0.0
H1627 H 0.50096 0.93724 0.16182 0.0
H1628 H 0.51716 0.94838 0.14152 0.0
H1629 H 0.51279 0.9163 0.3809 0.0
H1630 H 0.52534 0.90086 0.36492 0.0
H1631 H 0.50695 0.90202 0.33201 0.0
C1632 C 0.32866 0.21585 0.44233 0.0
C1633 C 0.32315 0.21025 0.49373 0.0
C1634 C 0.32985 0.2315 0.43286 0.0
C1635 C 0.32519 0.2417 0.47549 0.0
C1636 C 0.32062 0.23609 0.52871 0.0
C1637 C 0.31978 0.22045 0.53732 0.0
C1638 C 0.33518 0.23708 0.37611 0.0
C1639 C 0.31549 0.24656 0.57529 0.0
C1640 C 0.33079 0.28424 0.47451 0.0
C1641 C 0.31646 0.28917 0.45682 0.0
C1642 C 0.33425 0.26874 0.47713 0.0
C1643 C 0.32302 0.258 0.46271 0.0
C1644 C 0.30885 0.26296 0.44198 0.0
C1645 C 0.3058 0.27847 0.43885 0.0
C1646 C 0.34963 0.26387 0.498 0.0
C1647 C 0.2965 0.25188 0.42653 0.0
H1648 H 0.33146 0.20805 0.40865 0.0
H1649 H 0.31566 0.21625 0.57742 0.0
H1650 H 0.32532 0.24102 0.35117 0.0
H1651 H 0.34298 0.24683 0.38105 0.0
H1652 H 0.34102 0.22805 0.35185 0.0
H1653 H 0.31349 0.24047 0.61559 0.0
H1654 H 0.32401 0.25554 0.58272 0.0
H1655 H 0.3048 0.25221 0.5626 0.0
H1656 H 0.33915 0.29246 0.48786 0.0
H1657 H 0.29473 0.28217 0.42478 0.0
H1658 H 0.35416 0.25454 0.47166 0.0
H1659 H 0.34863 0.25956 0.54177 0.0
H1660 H 0.35785 0.27337 0.49787 0.0
H1661 H 0.30082 0.24338 0.39615 0.0
H1662 H 0.28649 0.25755 0.40768 0.0
H1663 H 0.29279 0.24569 0.46484 0.0
C1664 C 0.9684 0.07933 0.71866 0.0
C1665 C 0.96336 0.07013 0.76307 0.0
C1666 C 0.98388 0.08046 0.70578 0.0
C1667 C 0.99449 0.07207 0.73777 0.0
C1668 C 0.9895 0.06321 0.78388 0.0
C1669 C 0.97403 0.06241 0.79609 0.0
C1670 C 0.98883 0.09018 0.65684 0.0
C1671 C 0.00044 0.05405 0.81902 0.0
C1672 C 0.03133 0.05756 0.67783 0.0
C1673 C 0.04193 0.06635 0.7072 0.0
C1674 C 0.01577 0.05996 0.68462 0.0
C1675 C 0.01069 0.07153 0.72126 0.0
C1676 C 0.02132 0.08121 0.74755 0.0
C1677 C 0.03684 0.07847 0.74039 0.0
C1678 C 0.00481 0.04938 0.65582 0.0
C1679 C 0.01632 0.09383 0.78616 0.0
H1680 H 0.96024 0.0854 0.69313 0.0
H1681 H 0.97028 0.05533 0.83068 0.0
H1682 H 0.99834 0.09762 0.66955 0.0
H1683 H 0.99297 0.08287 0.6221 0.0
H1684 H 0.97947 0.09732 0.64044 0.0
H1685 H 0.99479 0.04827 0.85488 0.0
H1686 H 0.00596 0.04536 0.79225 0.0
H1687 H 0.00949 0.06145 0.836 0.0
H1688 H 0.03515 0.04825 0.65168 0.0
H1689 H 0.04496 0.08542 0.76277 0.0
H1690 H 0.99571 0.05586 0.6345 0.0
H1691 H -0.00065 0.04202 0.68783 0.0
H1692 H 0.01046 0.04204 0.62416 0.0
H1693 H 0.00686 0.10029 0.76704 0.0
H1694 H 0.02571 0.10177 0.79589 0.0
H1695 H 0.01214 0.08896 0.82638 0.0
C1696 C 0.82372 0.71092 0.00441 0.0
C1697 C 0.81086 0.70595 0.9751 0.0
C1698 C 0.82746 0.72634 0.00659 0.0
C1699 C 0.81801 0.737 0.97939 0.0
C1700 C 0.80552 0.73196 0.94707 0.0
C1701 C 0.80215 0.71648 0.94505 0.0
C1702 C 0.84102 0.73128 0.04061 0.0
C1703 C 0.79512 0.74298 0.91764 0.0
C1704 C 0.81302 0.77583 0.0437 0.0
C1705 C 0.82082 0.78506 0.00537 0.0
C1706 C 0.81243 0.76013 0.0365 0.0
C1707 C 0.81997 0.75343 0.99016 0.0
C1708 C 0.82845 0.76257 0.95273 0.0
C1709 C 0.82871 0.77833 0.96059 0.0
C1710 C 0.80319 0.75078 0.07727 0.0
C1711 C 0.83682 0.75577 0.90339 0.0
H1712 H 0.8306 0.70283 0.02724 0.0
H1713 H 0.79224 0.71274 0.92204 0.0
H1714 H 0.84781 0.73969 0.01683 0.0
H1715 H 0.83716 0.73682 0.08004 0.0
H1716 H 0.84842 0.72159 0.05208 0.0
H1717 H 0.78677 0.73719 0.89009 0.0
H1718 H 0.78886 0.74969 0.94958 0.0
H1719 H 0.80173 0.75104 0.89166 0.0
H1720 H 0.80692 0.78091 0.07853 0.0
H1721 H 0.83484 0.78537 0.93099 0.0
H1722 H 0.81023 0.74161 0.09548 0.0
H1723 H 0.79365 0.74535 0.05456 0.0
H1724 H 0.79851 0.75767 0.11235 0.0
H1725 H 0.84388 0.74611 0.91753 0.0
H1726 H 0.84418 0.76416 0.8819 0.0
H1727 H 0.82858 0.75131 0.87226 0.0
C1728 C 0.67799 0.21207 0.43411 0.0
C1729 C 0.67978 0.20334 0.48307 0.0
C1730 C 0.67873 0.22793 0.43635 0.0
C1731 C 0.68145 0.23515 0.48865 0.0
C1732 C 0.68226 0.22645 0.53863 0.0
C1733 C 0.68134 0.21066 0.53526 0.0
C1734 C 0.67756 0.23686 0.38229 0.0
C1735 C 0.68519 0.23371 0.59525 0.0
C1736 C 0.70463 0.27113 0.49156 0.0
C1737 C 0.69368 0.28207 0.50427 0.0
C1738 C 0.70069 0.25589 0.48493 0.0
C1739 C 0.68538 0.25148 0.49059 0.0
C1740 C 0.67416 0.26253 0.5015 0.0
C1741 C 0.67846 0.27771 0.50854 0.0
C1742 C 0.71302 0.24444 0.47365 0.0
C1743 C 0.6577 0.25824 0.50709 0.0
H1744 H 0.67664 0.20651 0.39367 0.0
H1745 H 0.6826 0.20403 0.57343 0.0
H1746 H 0.67006 0.24681 0.38799 0.0
H1747 H 0.68891 0.24117 0.37044 0.0
H1748 H 0.67317 0.22989 0.34692 0.0
H1749 H 0.68398 0.22556 0.63061 0.0
H1750 H 0.69686 0.23835 0.59612 0.0
H1751 H 0.67731 0.24328 0.60233 0.0
H1752 H 0.71641 0.27439 0.48806 0.0
H1753 H 0.66991 0.28613 0.51797 0.0
H1754 H 0.7104 0.23791 0.43492 0.0
H1755 H 0.71364 0.23627 0.5091 0.0
H1756 H 0.7243 0.2498 0.46849 0.0
H1757 H 0.65407 0.25139 0.47029 0.0
H1758 H 0.65024 0.26831 0.51047 0.0
H1759 H 0.6561 0.25116 0.54524 0.0
C1760 C 0.78943 0.27948 0.12332 0.0
C1761 C 0.8013 0.28962 0.11307 0.0
C1762 C 0.79195 0.26383 0.12403 0.0
C1763 C 0.80673 0.2582 0.11459 0.0
C1764 C 0.81889 0.26839 0.10692 0.0
C1765 C 0.81603 0.284 0.10608 0.0
C1766 C 0.77867 0.25331 0.1323 0.0
C1767 C 0.83482 0.26279 0.09727 0.0
C1768 C 0.81277 0.21669 0.149 0.0
C1769 C 0.81056 0.20997 0.09604 0.0
C1770 C 0.81212 0.23247 0.15551 0.0
C1771 C 0.80911 0.24167 0.10798 0.0
C1772 C 0.80744 0.23498 0.05412 0.0
C1773 C 0.80822 0.21923 0.04879 0.0
C1774 C 0.8141 0.23924 0.21349 0.0
C1775 C 0.80422 0.24443 0.00238 0.0
H1776 H 0.77803 0.28372 0.12903 0.0
H1777 H 0.82529 0.29178 0.09853 0.0
H1778 H 0.77671 0.24674 0.09311 0.0
H1779 H 0.78112 0.24508 0.16642 0.0
H1780 H 0.76812 0.25949 0.143 0.0
H1781 H 0.84322 0.27213 0.09796 0.0
H1782 H 0.83797 0.25436 0.12986 0.0
H1783 H 0.83549 0.25705 0.05573 0.0
H1784 H 0.81465 0.20962 0.18569 0.0
H1785 H 0.80656 0.21415 0.00765 0.0
H1786 H 0.80326 0.24426 0.22771 0.0
H1787 H 0.82258 0.24848 0.21231 0.0
H1788 H 0.81774 0.2307 0.24507 0.0
H1789 H 0.79311 0.25014 0.00709 0.0
H1790 H 0.80399 0.23755 0.96318 0.0
H1791 H 0.81291 0.25338 0.99766 0.0
C1792 C 0.67332 0.7168 0.5471 0.0
C1793 C 0.67529 0.70822 0.5963 0.0
C1794 C 0.67213 0.73258 0.54945 0.0
C1795 C 0.67306 0.73998 0.60226 0.0
C1796 C 0.67412 0.73133 0.65237 0.0
C1797 C 0.67516 0.71551 0.64881 0.0
C1798 C 0.67085 0.74138 0.49506 0.0
C1799 C 0.67516 0.73882 0.70944 0.0
C1800 C 0.69124 0.77868 0.59618 0.0
C1801 C 0.67865 0.78833 0.59816 0.0
C1802 C 0.68954 0.76296 0.59914 0.0
C1803 C 0.67488 0.75668 0.60407 0.0
C1804 C 0.66213 0.76632 0.60751 0.0
C1805 C 0.66416 0.78207 0.60456 0.0
C1806 C 0.70345 0.75307 0.5955 0.0
C1807 C 0.64634 0.75998 0.6128 0.0
H1808 H 0.67323 0.71121 0.5064 0.0
H1809 H 0.67665 0.70894 0.68701 0.0
H1810 H 0.66176 0.74999 0.49817 0.0
H1811 H 0.68161 0.74748 0.487 0.0
H1812 H 0.66847 0.73394 0.45839 0.0
H1813 H 0.67385 0.73058 0.74445 0.0
H1814 H 0.68634 0.7444 0.71375 0.0
H1815 H 0.66639 0.74772 0.71382 0.0
H1816 H 0.70249 0.7834 0.59161 0.0
H1817 H 0.65438 0.78945 0.60626 0.0
H1818 H 0.70293 0.74603 0.55682 0.0
H1819 H 0.7039 0.74526 0.63208 0.0
H1820 H 0.71408 0.75977 0.59449 0.0
H1821 H 0.64343 0.75355 0.57411 0.0
H1822 H 0.63774 0.76899 0.61905 0.0
H1823 H 0.64573 0.75196 0.64871 0.0
C1824 C 0.53248 0.43864 0.79312 0.0
C1825 C 0.54244 0.4338 0.83552 0.0
C1826 C 0.5168 0.43846 0.80144 0.0
C1827 C 0.51089 0.43321 0.8533 0.0
C1828 C 0.5208 0.42763 0.89532 0.0
C1829 C 0.5365 0.42804 0.88601 0.0
C1830 C 0.50661 0.44455 0.75556 0.0
C1831 C 0.51487 0.42176 0.95085 0.0
C1832 C 0.4732 0.4509 0.88988 0.0
C1833 C 0.463 0.44002 0.86975 0.0
C1834 C 0.48885 0.44847 0.8874 0.0
C1835 C 0.49444 0.43477 0.86464 0.0
C1836 C 0.48421 0.42336 0.84741 0.0
C1837 C 0.46858 0.42614 0.84995 0.0
C1838 C 0.49939 0.46095 0.90611 0.0
C1839 C 0.48976 0.40852 0.82363 0.0
H1840 H 0.53694 0.44303 0.7538 0.0
H1841 H 0.54411 0.42419 0.91886 0.0
H1842 H 0.49776 0.43613 0.74483 0.0
H1843 H 0.50076 0.45488 0.7708 0.0
H1844 H 0.51294 0.44744 0.71656 0.0
H1845 H 0.52386 0.41627 0.97638 0.0
H1846 H 0.51007 0.43126 0.97561 0.0
H1847 H 0.50562 0.4135 0.94369 0.0
H1848 H 0.469 0.46162 0.90563 0.0
H1849 H 0.46077 0.41762 0.83472 0.0
H1850 H 0.50548 0.46556 0.86896 0.0
H1851 H 0.50802 0.45647 0.93566 0.0
H1852 H 0.49327 0.47038 0.92709 0.0
H1853 H 0.49478 0.41046 0.78137 0.0
H1854 H 0.4805 0.40011 0.81937 0.0
H1855 H 0.49875 0.40368 0.85086 0.0
C1856 C 0.96238 0.55352 0.30529 0.0
C1857 C 0.95129 0.5647 0.31227 0.0
C1858 C 0.97762 0.55651 0.3167 0.0
C1859 C 0.98195 0.57111 0.33507 0.0
C1860 C 0.97085 0.58249 0.34232 0.0
C1861 C 0.9556 0.57912 0.33107 0.0
C1862 C 0.9891 0.54402 0.30877 0.0
C1863 C 0.97511 0.59821 0.36132 0.0
C1864 C 0.02065 0.57141 0.40359 0.0
C1865 C 0.02993 0.57431 0.35689 0.0
C1866 C 0.00484 0.57131 0.3981 0.0
C1867 C 0.99823 0.57436 0.34488 0.0
C1868 C 0.00753 0.57849 0.29886 0.0
C1869 C 0.02328 0.57831 0.30532 0.0
C1870 C 0.9953 0.56677 0.44811 0.0
C1871 C 0.00092 0.58205 0.24165 0.0
H1872 H 0.95916 0.54231 0.29113 0.0
H1873 H 0.94709 0.58782 0.33652 0.0
H1874 H 0.99741 0.54732 0.27596 0.0
H1875 H 0.99547 0.54216 0.34851 0.0
H1876 H 0.98379 0.53316 0.29601 0.0
H1877 H 0.96509 0.60568 0.36617 0.0
H1878 H 0.9812 0.59769 0.40218 0.0
H1879 H 0.98293 0.6034 0.33025 0.0
H1880 H 0.02573 0.56831 0.44356 0.0
H1881 H 0.03042 0.58075 0.26926 0.0
H1882 H 0.99082 0.55519 0.44133 0.0
H1883 H 0.98545 0.57445 0.45273 0.0
H1884 H 0.00187 0.56685 0.48803 0.0
H1885 H 0.99664 0.57149 0.22205 0.0
H1886 H 0.00942 0.58716 0.21284 0.0
H1887 H 0.99121 0.58993 0.2457 0.0
C1888 C 0.97008 0.42029 0.73222 0.0
C1889 C 0.9631 0.4244 0.78304 0.0
C1890 C 0.98584 0.42133 0.72584 0.0
C1891 C 0.9947 0.42698 0.77086 0.0
C1892 C 0.98776 0.43048 0.82308 0.0
C1893 C 0.97206 0.42898 0.82872 0.0
C1894 C 0.99289 0.41709 0.67006 0.0
C1895 C 0.99678 0.43679 0.87184 0.0
C1896 C 0.03762 0.42552 0.77485 0.0
C1897 C 0.04133 0.44011 0.75621 0.0
C1898 C 0.02248 0.42074 0.77713 0.0
C1899 C 0.01084 0.43093 0.76174 0.0
C1900 C 0.01458 0.4455 0.74125 0.0
C1901 C 0.02979 0.44984 0.73814 0.0
C1902 C 0.01891 0.40498 0.79771 0.0
C1903 C 0.0025 0.4568 0.72521 0.0
H1904 H 0.9632 0.4166 0.69697 0.0
H1905 H 0.96672 0.43222 0.86806 0.0
H1906 H 0.99644 0.42748 0.64747 0.0
H1907 H 0.00315 0.41009 0.67677 0.0
H1908 H 0.98489 0.41076 0.64267 0.0
H1909 H 0.98987 0.43794 0.91075 0.0
H1910 H 0.00662 0.42943 0.88116 0.0
H1911 H 0.00125 0.44811 0.86039 0.0
H1912 H 0.04653 0.41792 0.78844 0.0
H1913 H 0.03257 0.46115 0.72385 0.0
H1914 H 0.01081 0.39936 0.76874 0.0
H1915 H 0.01346 0.4056 0.83976 0.0
H1916 H 0.02922 0.39786 0.80128 0.0
H1917 H 0.99486 0.45191 0.6929 0.0
H1918 H 0.00732 0.46749 0.7084 0.0
H1919 H 0.99549 0.45953 0.76269 0.0
C1920 C 0.46733 0.56316 0.29667 0.0
C1921 C 0.45753 0.5668 0.25214 0.0
C1922 C 0.48304 0.56333 0.2893 0.0
C1923 C 0.48913 0.56743 0.23629 0.0
C1924 C 0.47938 0.57224 0.19247 0.0
C1925 C 0.46364 0.57179 0.20081 0.0
C1926 C 0.49305 0.5581 0.33714 0.0
C1927 C 0.48549 0.57698 0.13574 0.0
C1928 C 0.53181 0.57231 0.23575 0.0
C1929 C 0.53655 0.55785 0.21887 0.0
C1930 C 0.51635 0.57595 0.23869 0.0
C1931 C 0.50546 0.56479 0.22515 0.0
C1932 C 0.51021 0.55041 0.20578 0.0
C1933 C 0.52569 0.54716 0.20257 0.0
C1934 C 0.51169 0.59149 0.2585 0.0
C1935 C 0.49895 0.53816 0.1912 0.0
H1936 H 0.46273 0.55944 0.33671 0.0
H1937 H 0.45616 0.57478 0.16636 0.0
H1938 H 0.49836 0.54713 0.32582 0.0
H1939 H 0.50231 0.56632 0.34456 0.0
H1940 H 0.48666 0.55658 0.37708 0.0
H1941 H 0.47676 0.58271 0.10967 0.0
H1942 H 0.49529 0.58469 0.14088 0.0
H1943 H 0.48952 0.56685 0.11255 0.0
H1944 H 0.54015 0.58068 0.24793 0.0
H1945 H 0.52924 0.53599 0.18918 0.0
H1946 H 0.50683 0.59069 0.30151 0.0
H1947 H 0.5028 0.59622 0.23055 0.0
H1948 H 0.52139 0.59947 0.25971 0.0
H1949 H 0.49256 0.53488 0.22957 0.0
H1950 H 0.50449 0.5279 0.17372 0.0
H1951 H 0.49064 0.5424 0.15993 0.0
C1952 C 0.22402 0.1576 0.21209 0.0
C1953 C 0.22068 0.1726 0.19732 0.0
C1954 C 0.23302 0.15432 0.2594 0.0
C1955 C 0.23857 0.16632 0.2931 0.0
C1956 C 0.235 0.18146 0.2789 0.0
C1957 C 0.2262 0.18442 0.23095 0.0
C1958 C 0.23677 0.13805 0.27282 0.0
C1959 C 0.24052 0.19456 0.31425 0.0
C1960 C 0.25104 0.15956 0.44423 0.0
C1961 C 0.26683 0.1604 0.43929 0.0
C1962 C 0.24168 0.16103 0.39671 0.0
C1963 C 0.24829 0.16316 0.34292 0.0
C1964 C 0.26424 0.16331 0.33735 0.0
C1965 C 0.27331 0.16204 0.38567 0.0
C1966 C 0.22473 0.16099 0.40444 0.0
C1967 C 0.27171 0.16531 0.28058 0.0
H1968 H 0.21985 0.14843 0.18607 0.0
H1969 H 0.22357 0.19603 0.21999 0.0
H1970 H 0.24921 0.1364 0.27179 0.0
H1971 H 0.23291 0.13521 0.31604 0.0
H1972 H 0.23146 0.13003 0.24267 0.0
H1973 H 0.23633 0.20562 0.29849 0.0
H1974 H 0.23678 0.19313 0.35859 0.0
H1975 H 0.25307 0.1948 0.31442 0.0
H1976 H 0.24594 0.15835 0.48555 0.0
H1977 H 0.28551 0.16258 0.38152 0.0
H1978 H 0.21941 0.15267 0.37563 0.0
H1979 H 0.22011 0.17229 0.39346 0.0
H1980 H 0.22138 0.15826 0.44842 0.0
H1981 H 0.26706 0.15707 0.24985 0.0
H1982 H 0.28417 0.16383 0.28278 0.0
H1983 H 0.26927 0.1768 0.2641 0.0
C1984 C 0.09299 0.97605 0.44105 0.0
C1985 C 0.10275 0.97803 0.39499 0.0
C1986 C 0.09442 0.9849 0.48978 0.0
C1987 C 0.10596 0.99597 0.49278 0.0
C1988 C 0.1163 0.99756 0.44758 0.0
C1989 C 0.11455 0.98859 0.39908 0.0
C1990 C 0.08315 0.98285 0.53707 0.0
C1991 C 0.12883 0.00914 0.44954 0.0
C1992 C 0.09697 0.02937 0.58714 0.0
C1993 C 0.10446 0.02546 0.63723 0.0
C1994 C 0.09779 0.0201 0.53931 0.0
C1995 C 0.10637 0.00659 0.54138 0.0
C1996 C 0.11444 0.00285 0.59103 0.0
C1997 C 0.11336 0.01231 0.63848 0.0
C1998 C 0.08897 0.02447 0.48721 0.0
C1999 C 0.12381 0.9886 0.59463 0.0
H2000 H 0.08388 0.96786 0.43848 0.0
H2001 H 0.1222 0.99014 0.36385 0.0
H2002 H 0.08913 0.98109 0.57766 0.0
H2003 H 0.07621 0.99324 0.54148 0.0
H2004 H 0.07545 0.97312 0.52969 0.0
H2005 H 0.1368 0.00794 0.41359 0.0
H2006 H 0.12391 0.02068 0.4484 0.0
H2007 H 0.13528 0.00811 0.4895 0.0
H2008 H 0.0901 0.03952 0.58566 0.0
H2009 H 0.11924 0.00923 0.67691 0.0
H2010 H 0.08006 0.01592 0.47893 0.0
H2011 H 0.09653 0.02468 0.44989 0.0
H2012 H 0.0835 0.03573 0.49142 0.0
H2013 H 0.11628 0.97857 0.59257 0.0
H2014 H 0.13047 0.98801 0.63428 0.0
H2015 H 0.13168 0.98789 0.55829 0.0
C2016 C 0.24335 0.85015 0.92751 0.0
C2017 C 0.22794 0.84674 0.92125 0.0
C2018 C 0.25337 0.84888 0.88186 0.0
C2019 C 0.2478 0.84428 0.8286 0.0
C2020 C 0.23211 0.84177 0.82121 0.0
C2021 C 0.22237 0.84294 0.86772 0.0
C2022 C 0.27004 0.85156 0.89154 0.0
C2023 C 0.2257 0.83707 0.76484 0.0
C2024 C 0.27271 0.84752 0.69828 0.0
C2025 C 0.2777 0.83255 0.69206 0.0
C2026 C 0.26306 0.8516 0.74287 0.0
C2027 C 0.25851 0.84049 0.78237 0.0
C2028 C 0.26389 0.82547 0.77712 0.0
C2029 C 0.27333 0.82167 0.73185 0.0
C2030 C 0.25742 0.86768 0.74687 0.0
C2031 C 0.25948 0.81333 0.81884 0.0
H2032 H 0.24775 0.85311 0.96872 0.0
H2033 H 0.21045 0.84043 0.86245 0.0
H2034 H 0.27619 0.84064 0.88868 0.0
H2035 H 0.27472 0.85911 0.85854 0.0
H2036 H 0.27233 0.85663 0.93354 0.0
H2037 H 0.21314 0.83727 0.76447 0.0
H2038 H 0.22993 0.84461 0.73095 0.0
H2039 H 0.2295 0.82542 0.75469 0.0
H2040 H 0.276 0.85595 0.66746 0.0
H2041 H 0.27724 0.81011 0.72752 0.0
H2042 H 0.26001 0.87244 0.78907 0.0
H2043 H 0.24494 0.86788 0.74186 0.0
H2044 H 0.26251 0.87511 0.71422 0.0
H2045 H 0.26239 0.81695 0.8623 0.0
H2046 H 0.26517 0.80237 0.81013 0.0
H2047 H 0.24707 0.81152 0.81747 0.0
C2048 C 0.38622 0.00353 0.91277 0.0
C2049 C 0.39575 0.01622 0.91164 0.0
C2050 C 0.38567 0.99402 0.9602 0.0
C2051 C 0.39492 0.99725 0.00743 0.0
C2052 C 0.40427 0.01025 0.00706 0.0
C2053 C 0.40455 0.01958 0.95927 0.0
C2054 C 0.37548 0.98032 0.95925 0.0
C2055 C 0.41433 0.01407 0.05657 0.0
C2056 C 0.3877 0.97989 0.15152 0.0
C2057 C 0.39875 0.9685 0.15337 0.0
C2058 C 0.38593 0.98901 0.10346 0.0
C2059 C 0.39546 0.9867 0.05627 0.0
C2060 C 0.40625 0.97487 0.05712 0.0
C2061 C 0.40774 0.9659 0.10558 0.0
C2062 C 0.37423 0.00145 0.10393 0.0
C2063 C 0.41663 0.97205 0.00764 0.0
H2064 H 0.37934 0.00088 0.87625 0.0
H2065 H 0.41193 0.02937 0.95888 0.0
H2066 H 0.38243 0.96988 0.96078 0.0
H2067 H 0.36807 0.98025 0.99698 0.0
H2068 H 0.36828 0.97993 0.92089 0.0
H2069 H 0.42048 0.02491 0.05052 0.0
H2070 H 0.40751 0.01487 0.09571 0.0
H2071 H 0.42275 0.00492 0.06294 0.0
H2072 H 0.38066 0.98194 0.18814 0.0
H2073 H 0.41627 0.9571 0.10647 0.0
H2074 H 0.36701 0.00074 0.06575 0.0
H2075 H 0.37995 0.01261 0.10307 0.0
H2076 H 0.36687 0.00094 0.14185 0.0
H2077 H 0.40994 0.97065 0.9684 0.0
H2078 H 0.42378 0.96185 0.01366 0.0
H2079 H 0.42415 0.98197 0.00149 0.0
C2080 C 0.77038 0.86128 0.91888 0.0
C2081 C 0.781 0.84957 0.92399 0.0
C2082 C 0.7614 0.86268 0.87026 0.0
C2083 C 0.76306 0.85206 0.82602 0.0
C2084 C 0.77422 0.84063 0.82991 0.0
C2085 C 0.78309 0.83957 0.87873 0.0
C2086 C 0.74973 0.87511 0.86727 0.0
C2087 C 0.77632 0.82907 0.78367 0.0
C2088 C 0.72946 0.84204 0.73418 0.0
C2089 C 0.73318 0.84914 0.68314 0.0
C2090 C 0.73888 0.8433 0.78147 0.0
C2091 C 0.7523 0.85198 0.77785 0.0
C2092 C 0.75583 0.85968 0.7272 0.0
C2093 C 0.74624 0.85812 0.68029 0.0
C2094 C 0.73475 0.83486 0.83469 0.0
C2095 C 0.76996 0.86916 0.72202 0.0
H2096 H 0.76876 0.86913 0.95349 0.0
H2097 H 0.79133 0.83053 0.88212 0.0
H2098 H 0.75056 0.8812 0.82648 0.0
H2099 H 0.73823 0.87013 0.86963 0.0
H2100 H 0.75099 0.88341 0.90215 0.0
H2101 H 0.78618 0.82156 0.79146 0.0
H2102 H 0.76602 0.82194 0.78034 0.0
H2103 H 0.77789 0.83477 0.74243 0.0
H2104 H 0.71938 0.83511 0.73687 0.0
H2105 H 0.74915 0.86372 0.64111 0.0
H2106 H 0.73453 0.84272 0.87114 0.0
H2107 H 0.74344 0.82613 0.8437 0.0
H2108 H 0.72356 0.82921 0.8315 0.0
H2109 H 0.77069 0.87731 0.75747 0.0
H2110 H 0.77036 0.87552 0.68165 0.0
H2111 H 0.78008 0.86176 0.72446 0.0
C2112 C 0.90074 0.02292 0.66887 0.0
C2113 C 0.91622 0.02607 0.67482 0.0
C2114 C 0.89548 0.01368 0.62482 0.0
C2115 C 0.90593 0.00767 0.58558 0.0
C2116 C 0.92149 0.01124 0.5904 0.0
C2117 C 0.92645 0.02031 0.63516 0.0
C2118 C 0.87883 0.01 0.62125 0.0
C2119 C 0.93298 0.00524 0.54885 0.0
C2120 C 0.89997 0.97165 0.50243 0.0
C2121 C 0.89726 0.97737 0.44822 0.0
C2122 C 0.9017 0.9814 0.54864 0.0
C2123 C 0.90087 0.99724 0.54021 0.0
C2124 C 0.89707 0.00302 0.48641 0.0
C2125 C 0.8952 0.99299 0.44107 0.0
C2126 C 0.90545 0.97479 0.60566 0.0
C2127 C 0.89613 0.01983 0.47565 0.0
H2128 H 0.89279 0.0273 0.6996 0.0
H2129 H 0.9384 0.0228 0.63931 0.0
H2130 H 0.87442 0.0127 0.57864 0.0
H2131 H 0.87714 0.99769 0.62801 0.0
H2132 H 0.87207 0.01627 0.65305 0.0
H2133 H 0.94453 0.00966 0.55704 0.0
H2134 H 0.93334 0.99271 0.55108 0.0
H2135 H 0.92966 0.00834 0.50523 0.0
H2136 H 0.9014 0.95958 0.50839 0.0
H2137 H 0.89305 0.99752 0.39936 0.0
H2138 H 0.89849 0.98016 0.63903 0.0
H2139 H 0.91749 0.97709 0.61576 0.0
H2140 H 0.90361 0.96236 0.60697 0.0
H2141 H 0.88935 0.0255 0.50884 0.0
H2142 H 0.89106 0.02242 0.43387 0.0
H2143 H 0.90767 0.02475 0.47701 0.0
C2144 C 0.75784 0.13684 0.15101 0.0
C2145 C 0.7703 0.14667 0.15214 0.0
C2146 C 0.74857 0.13501 0.19861 0.0
C2147 C 0.75179 0.14327 0.24831 0.0
C2148 C 0.76459 0.15288 0.2502 0.0
C2149 C 0.77371 0.15442 0.20219 0.0
C2150 C 0.73508 0.12458 0.19521 0.0
C2151 C 0.76838 0.16191 0.30239 0.0
C2152 C 0.7202 0.15312 0.35005 0.0
C2153 C 0.72299 0.14311 0.39478 0.0
C2154 C 0.72927 0.15301 0.30153 0.0
C2155 C 0.74136 0.14259 0.29743 0.0
C2156 C 0.74394 0.13211 0.34154 0.0
C2157 C 0.73474 0.13252 0.38981 0.0
C2158 C 0.72619 0.16441 0.25545 0.0
C2159 C 0.75666 0.12075 0.33841 0.0
H2160 H 0.75516 0.13076 0.11261 0.0
H2161 H 0.78332 0.16203 0.20353 0.0
H2162 H 0.73524 0.11643 0.2308 0.0
H2163 H 0.7245 0.13125 0.19886 0.0
H2164 H 0.73476 0.11814 0.15498 0.0
H2165 H 0.77911 0.16834 0.29784 0.0
H2166 H 0.75912 0.17004 0.31143 0.0
H2167 H 0.76937 0.15431 0.33941 0.0
H2168 H 0.71114 0.16133 0.35344 0.0
H2169 H 0.73694 0.12471 0.42405 0.0
H2170 H 0.72472 0.15856 0.21441 0.0
H2171 H 0.736 0.17214 0.25114 0.0
H2172 H 0.71592 0.17129 0.26398 0.0
H2173 H 0.75598 0.11425 0.29847 0.0
H2174 H 0.75648 0.11268 0.37433 0.0
H2175 H 0.76769 0.12674 0.33849 0.0
C2176 C 0.57478 0.98202 0.14684 0.0
C2177 C 0.58698 0.97528 0.17498 0.0
C2178 C 0.57704 0.99058 0.0979 0.0
C2179 C 0.59191 0.99272 0.07721 0.0
C2180 C 0.60431 0.98605 0.10567 0.0
C2181 C 0.60168 0.97724 0.15402 0.0
C2182 C 0.56348 0.99727 0.06816 0.0
C2183 C 0.62033 0.98833 0.08535 0.0
C2184 C 0.59369 0.00377 0.92311 0.0
C2185 C 0.5937 0.01961 0.9267 0.0
C2186 C 0.59382 0.99481 0.97189 0.0
C2187 C 0.59427 0.00187 0.02543 0.0
C2188 C 0.59533 0.01782 0.02919 0.0
C2189 C 0.59488 0.02652 0.97973 0.0
C2190 C 0.59247 0.97785 0.96614 0.0
C2191 C 0.59616 0.02573 0.08552 0.0
H2192 H 0.56339 0.98042 0.16267 0.0
H2193 H 0.61114 0.97211 0.17595 0.0
H2194 H 0.56443 0.00978 0.06709 0.0
H2195 H 0.56311 0.99328 0.02382 0.0
H2196 H 0.55265 0.99422 0.089 0.0
H2197 H 0.62873 0.98255 0.1127 0.0
H2198 H 0.62155 0.98398 0.04172 0.0
H2199 H 0.62301 0.00059 0.0842 0.0
H2200 H 0.59276 0.99835 0.88225 0.0
H2201 H 0.59504 0.03875 0.98269 0.0
H2202 H 0.58124 0.97416 0.98188 0.0
H2203 H 0.60116 0.97208 0.99211 0.0
H2204 H 0.59368 0.97405 0.92171 0.0
H2205 H 0.5851 0.02475 0.10735 0.0
H2206 H 0.59895 0.03793 0.08106 0.0
H2207 H 0.60478 0.02031 0.11285 0.0
C2208 C 0.75069 0.64878 0.92458 0.0
C2209 C 0.7665 0.64858 0.91955 0.0
C2210 C 0.74142 0.65038 0.87688 0.0
C2211 C 0.74813 0.65157 0.82286 0.0
C2212 C 0.76402 0.65037 0.81722 0.0
C2213 C 0.77303 0.64901 0.86569 0.0
C2214 C 0.72453 0.65175 0.88472 0.0
C2215 C 0.77158 0.65132 0.76024 0.0
C2216 C 0.72316 0.64848 0.69254 0.0
C2217 C 0.72127 0.66376 0.67807 0.0
C2218 C 0.73191 0.64428 0.73953 0.0
C2219 C 0.7387 0.65564 0.77314 0.0
C2220 C 0.73663 0.67107 0.75914 0.0
C2221 C 0.72803 0.67493 0.7116 0.0
C2222 C 0.73404 0.62772 0.75279 0.0
C2223 C 0.74352 0.68355 0.79434 0.0
H2224 H 0.74555 0.64848 0.96605 0.0
H2225 H 0.78524 0.64873 0.86147 0.0
H2226 H 0.72092 0.66347 0.87462 0.0
H2227 H 0.71847 0.64407 0.85543 0.0
H2228 H 0.72098 0.64911 0.92857 0.0
H2229 H 0.78379 0.64837 0.76235 0.0
H2230 H 0.76595 0.64364 0.7298 0.0
H2231 H 0.77053 0.663 0.74352 0.0
H2232 H 0.71802 0.63979 0.66662 0.0
H2233 H 0.72653 0.68676 0.7009 0.0
H2234 H 0.72999 0.62525 0.79608 0.0
H2235 H 0.74626 0.62484 0.7515 0.0
H2236 H 0.72792 0.62028 0.7227 0.0
H2237 H 0.73969 0.68253 0.83874 0.0
H2238 H 0.74047 0.69498 0.7786 0.0
H2239 H 0.75602 0.6825 0.7943 0.0
C2240 C 0.59391 0.5304 0.07306 0.0
C2241 C 0.60533 0.53088 0.1141 0.0
C2242 C 0.59509 0.52085 0.02613 0.0
C2243 C 0.608 0.51152 0.02007 0.0
C2244 C 0.61988 0.51242 0.05994 0.0
C2245 C 0.61842 0.52213 0.10653 0.0
C2246 C 0.58222 0.52031 0.98425 0.0
C2247 C 0.63383 0.50267 0.0547 0.0
C2248 C 0.60028 0.4759 0.93613 0.0
C2249 C 0.60529 0.48007 0.88222 0.0
C2250 C 0.60181 0.48577 0.98208 0.0
C2251 C 0.60846 0.50017 0.97387 0.0
C2252 C 0.61422 0.50415 0.92023 0.0
C2253 C 0.61259 0.49403 0.87502 0.0
C2254 C 0.59562 0.48106 0.0388 0.0
C2255 C 0.62141 0.51939 0.90991 0.0
H2256 H 0.58381 0.5372 0.07833 0.0
H2257 H 0.6273 0.52244 0.13804 0.0
H2258 H 0.58654 0.52208 0.94083 0.0
H2259 H 0.57682 0.50899 0.98541 0.0
H2260 H 0.57344 0.52898 0.99313 0.0
H2261 H 0.64265 0.50577 0.08598 0.0
H2262 H 0.63072 0.49064 0.06124 0.0
H2263 H 0.63869 0.50362 0.01173 0.0
H2264 H 0.59474 0.46508 0.94219 0.0
H2265 H 0.61656 0.49733 0.83356 0.0
H2266 H 0.58572 0.48821 0.04962 0.0
H2267 H 0.60425 0.48279 0.07215 0.0
H2268 H 0.59202 0.46902 0.03938 0.0
H2269 H 0.61266 0.52835 0.91282 0.0
H2270 H 0.62682 0.52009 0.86771 0.0
H2271 H 0.63005 0.52184 0.94259 0.0
C2272 C 0.72777 0.36633 0.40805 0.0
C2273 C 0.72085 0.3522 0.41563 0.0
C2274 C 0.73753 0.36894 0.36226 0.0
C2275 C 0.74031 0.35716 0.32321 0.0
C2276 C 0.73294 0.34305 0.32967 0.0
C2277 C 0.72334 0.34074 0.37581 0.0
C2278 C 0.7452 0.38412 0.35666 0.0
C2279 C 0.7355 0.33023 0.28863 0.0
C2280 C 0.75639 0.3629 0.17678 0.0
C2281 C 0.77111 0.35723 0.18352 0.0
C2282 C 0.74645 0.36387 0.22278 0.0
C2283 C 0.7514 0.35914 0.27672 0.0
C2284 C 0.76658 0.35449 0.28451 0.0
C2285 C 0.77625 0.35356 0.23777 0.0
C2286 C 0.73037 0.36894 0.21281 0.0
C2287 C 0.77234 0.34952 0.34154 0.0
H2288 H 0.72591 0.37524 0.4387 0.0
H2289 H 0.71795 0.32982 0.3811 0.0
H2290 H 0.75757 0.38275 0.36274 0.0
H2291 H 0.74346 0.38876 0.31369 0.0
H2292 H 0.74096 0.39245 0.38797 0.0
H2293 H 0.72839 0.3202 0.29829 0.0
H2294 H 0.73298 0.334 0.24501 0.0
H2295 H 0.74755 0.32673 0.28972 0.0
H2296 H 0.75234 0.36586 0.13508 0.0
H2297 H 0.78766 0.34933 0.24346 0.0
H2298 H 0.72679 0.37715 0.24555 0.0
H2299 H 0.7227 0.35904 0.21572 0.0
H2300 H 0.72889 0.37421 0.17064 0.0
H2301 H 0.7692 0.35788 0.37439 0.0
H2302 H 0.78482 0.34802 0.34195 0.0
H2303 H 0.76701 0.33859 0.35317 0.0
C2304 C 0.90463 0.45914 0.57828 0.0
C2305 C 0.89608 0.46183 0.62708 0.0
C2306 C 0.90282 0.46813 0.53003 0.0
C2307 C 0.89212 0.48004 0.53037 0.0
C2308 C 0.88294 0.48236 0.57849 0.0
C2309 C 0.88506 0.47326 0.6264 0.0
C2310 C 0.91287 0.4653 0.47958 0.0
C2311 C 0.8713 0.49485 0.5802 0.0
C2312 C 0.90165 0.51288 0.43412 0.0
C2313 C 0.89296 0.50961 0.38613 0.0
C2314 C 0.9011 0.5036 0.48196 0.0
C2315 C 0.89152 0.49077 0.48213 0.0
C2316 C 0.8822 0.48776 0.43488 0.0
C2317 C 0.88307 0.4972 0.38728 0.0
C2318 C 0.91124 0.50718 0.53148 0.0
C2319 C 0.87171 0.4743 0.43385 0.0
H2320 H 0.91313 0.4503 0.57828 0.0
H2321 H 0.87833 0.47535 0.66378 0.0
H2322 H 0.90594 0.46409 0.44085 0.0
H2323 H 0.92048 0.47513 0.47321 0.0
H2324 H 0.91992 0.45499 0.48465 0.0
H2325 H 0.86399 0.49415 0.61822 0.0
H2326 H 0.87708 0.50598 0.58022 0.0
H2327 H 0.86402 0.49442 0.5421 0.0
H2328 H 0.90929 0.52248 0.4338 0.0
H2329 H 0.87625 0.49464 0.35052 0.0
H2330 H 0.91962 0.49796 0.53717 0.0
H2331 H 0.9045 0.50789 0.57082 0.0
H2332 H 0.91745 0.518 0.52584 0.0
H2333 H 0.87845 0.46371 0.43344 0.0
H2334 H 0.86419 0.47434 0.39632 0.0
H2335 H 0.86462 0.47409 0.47243 0.0
C2336 C 0.22955 0.3453 0.18726 0.0
C2337 C 0.23312 0.35317 0.13763 0.0
C2338 C 0.23852 0.34672 0.23574 0.0
C2339 C 0.25134 0.3563 0.23476 0.0
C2340 C 0.25461 0.36482 0.18572 0.0
C2341 C 0.24548 0.36313 0.13763 0.0
C2342 C 0.23465 0.33741 0.28718 0.0
C2343 C 0.26811 0.37526 0.18331 0.0
C2344 C 0.26898 0.36506 0.37732 0.0
C2345 C 0.28047 0.35413 0.3801 0.0
C2346 C 0.25971 0.3663 0.32938 0.0
C2347 C 0.26195 0.35633 0.28342 0.0
C2348 C 0.27384 0.34561 0.28532 0.0
C2349 C 0.28297 0.34468 0.3335 0.0
C2350 C 0.24723 0.37795 0.32862 0.0
C2351 C 0.27657 0.33473 0.23725 0.0
H2352 H 0.21998 0.33764 0.18783 0.0
H2353 H 0.24827 0.36933 0.0996 0.0
H2354 H 0.24371 0.32897 0.29487 0.0
H2355 H 0.23399 0.34474 0.32505 0.0
H2356 H 0.22374 0.33131 0.28246 0.0
H2357 H 0.26821 0.38225 0.14436 0.0
H2358 H 0.26822 0.38289 0.22045 0.0
H2359 H 0.27867 0.3685 0.18467 0.0
H2360 H 0.26702 0.37245 0.41303 0.0
H2361 H 0.29183 0.33622 0.33511 0.0
H2362 H 0.23609 0.37219 0.32907 0.0
H2363 H 0.24779 0.38475 0.28935 0.0
H2364 H 0.24782 0.38571 0.36539 0.0
H2365 H 0.26662 0.32721 0.23214 0.0
H2366 H 0.28674 0.32758 0.24416 0.0
H2367 H 0.27801 0.34102 0.19715 0.0
C2368 C 0.38605 0.48386 0.94844 0.0
C2369 C 0.39569 0.47125 0.94978 0.0
C2370 C 0.38449 0.4933 0.99571 0.0
C2371 C 0.39281 0.49006 0.04525 0.0
C2372 C 0.40192 0.47692 0.0478 0.0
C2373 C 0.40322 0.46765 9e-05 0.0
C2374 C 0.37453 0.50713 0.99166 0.0
C2375 C 0.41097 0.47307 0.09992 0.0
C2376 C 0.40564 0.52192 0.14067 0.0
C2377 C 0.39609 0.52011 0.18742 0.0
C2378 C 0.40434 0.51251 0.09339 0.0
C2379 C 0.39315 0.50105 0.09263 0.0
C2380 C 0.38305 0.49957 0.13859 0.0
C2381 C 0.38467 0.5091 0.18559 0.0
C2382 C 0.41533 0.51445 0.04515 0.0
C2383 C 0.3709 0.48758 0.13896 0.0
H2384 H 0.38011 0.48667 0.90986 0.0
H2385 H 0.41063 0.45789 0.00166 0.0
H2386 H 0.367 0.50792 0.02897 0.0
H2387 H 0.38168 0.51744 0.99121 0.0
H2388 H 0.36746 0.50707 0.95292 0.0
H2389 H 0.41656 0.46185 0.09663 0.0
H2390 H 0.41981 0.48179 0.1067 0.0
H2391 H 0.40356 0.47307 0.13768 0.0
H2392 H 0.41446 0.53044 0.14157 0.0
H2393 H 0.37719 0.50769 0.2214 0.0
H2394 H 0.40911 0.51581 0.00484 0.0
H2395 H 0.42247 0.50418 0.04123 0.0
H2396 H 0.42285 0.52439 0.05102 0.0
H2397 H 0.36421 0.48805 0.09939 0.0
H2398 H 0.36308 0.48883 0.17534 0.0
H2399 H 0.3762 0.47622 0.14106 0.0
C2400 C 0.24016 0.63164 0.93914 0.0
C2401 C 0.22641 0.63948 0.9348 0.0
C2402 C 0.24965 0.6299 0.89209 0.0
C2403 C 0.24524 0.63613 0.83961 0.0
C2404 C 0.23091 0.64313 0.83416 0.0
C2405 C 0.22168 0.64473 0.88183 0.0
C2406 C 0.2648 0.62228 0.89946 0.0
C2407 C 0.22575 0.64982 0.77881 0.0
C2408 C 0.27519 0.65148 0.741 0.0
C2409 C 0.27553 0.64047 0.69843 0.0
C2410 C 0.26569 0.64993 0.78787 0.0
C2411 C 0.25625 0.63706 0.79239 0.0
C2412 C 0.25684 0.62566 0.75052 0.0
C2413 C 0.26651 0.62749 0.70394 0.0
C2414 C 0.26545 0.66232 0.83177 0.0
C2415 C 0.24695 0.61178 0.75404 0.0
H2416 H 0.24387 0.62746 0.97982 0.0
H2417 H 0.21099 0.65066 0.87794 0.0
H2418 H 0.26687 0.61409 0.86485 0.0
H2419 H 0.2739 0.6309 0.8976 0.0
H2420 H 0.26565 0.61624 0.94043 0.0
H2421 H 0.21368 0.65333 0.77999 0.0
H2422 H 0.23273 0.65989 0.76873 0.0
H2423 H 0.22729 0.64157 0.74407 0.0
H2424 H 0.28219 0.6615 0.73731 0.0
H2425 H 0.26672 0.61893 0.67124 0.0
H2426 H 0.26763 0.65751 0.87421 0.0
H2427 H 0.25409 0.66766 0.83287 0.0
H2428 H 0.27399 0.67125 0.82329 0.0
H2429 H 0.24822 0.60627 0.79581 0.0
H2430 H 0.24965 0.6034 0.72063 0.0
H2431 H 0.2349 0.61512 0.74973 0.0
C2432 C 0.09282 0.53037 0.46861 0.0
C2433 C 0.07746 0.53135 0.45415 0.0
C2434 C 0.09754 0.52186 0.51546 0.0
C2435 C 0.08661 0.51439 0.54903 0.0
C2436 C 0.07107 0.5156 0.53519 0.0
C2437 C 0.06671 0.52396 0.48766 0.0
C2438 C 0.11421 0.52063 0.52845 0.0
C2439 C 0.05905 0.50799 0.57045 0.0
C2440 C 0.09562 0.48032 0.64007 0.0
C2441 C 0.09598 0.48676 0.69409 0.0
C2442 C 0.09343 0.48932 0.59204 0.0
C2443 C 0.09129 0.5051 0.59832 0.0
C2444 C 0.09232 0.51176 0.65249 0.0
C2445 C 0.09478 0.50251 0.69972 0.0
C2446 C 0.0927 0.48184 0.53485 0.0
C2447 C 0.08993 0.52852 0.66099 0.0
H2448 H 0.10119 0.536 0.44264 0.0
H2449 H 0.05481 0.52476 0.47691 0.0
H2450 H 0.11649 0.52467 0.57192 0.0
H2451 H 0.11778 0.50861 0.5265 0.0
H2452 H 0.12126 0.52727 0.4986 0.0
H2453 H 0.04744 0.51049 0.55512 0.0
H2454 H 0.06074 0.49555 0.5699 0.0
H2455 H 0.05996 0.51174 0.61497 0.0
H2456 H 0.09666 0.46816 0.63543 0.0
H2457 H 0.09499 0.50757 0.74136 0.0
H2458 H 0.10001 0.48793 0.50434 0.0
H2459 H 0.08095 0.48235 0.51856 0.0
H2460 H 0.09627 0.4698 0.53643 0.0
H2461 H 0.09721 0.53509 0.63185 0.0
H2462 H 0.09239 0.53211 0.70493 0.0
H2463 H 0.07801 0.53144 0.65111 0.0
loop_
_geom_bond_atom_site_label_1
_geom_bond_atom_site_label_2
_geom_bond_distance
_geom_bond_site_symmetry_2
_ccdc_geom_bond_type
C0 O1 1.160 . S
C0 O7 1.185 . S
O1 C0 1.160 . S
O2 Zn3 1.899 . S
O2 C10 1.284 . S
Zn3 O2 1.899 . S
Zn3 O4 2.032 1_554 S
Zn3 O7 2.086 . S
Zn3 O12 1.977 . S
O4 Zn3 2.032 1_556 S
O4 C8 1.278 . S
C5 O6 1.203 . S
C5 O12 1.267 . S
O6 C5 1.203 . S
O7 C0 1.185 . S
O7 Zn3 2.086 . S
C8 O4 1.278 . S
C8 O9 1.211 . S
O9 C8 1.211 . S
C10 O2 1.284 . S
C10 O11 1.273 . S
O11 C10 1.273 . S
O12 Zn3 1.977 . S
O12 C5 1.267 . S
C13 O14 1.160 . S
C13 O20 1.185 . S
O14 C13 1.160 . S
O15 Zn16 1.899 . S
O15 C23 1.284 . S
Zn16 O15 1.899 . S
Zn16 O17 2.032 . S
Zn16 O20 2.086 . S
Zn16 O25 1.977 . S
O17 Zn16 2.032 . S
O17 C21 1.278 . S
C18 O19 1.203 . S
C18 O25 1.267 . S
O19 C18 1.203 . S
O20 C13 1.185 . S
O20 Zn16 2.086 . S
C21 O17 1.278 . S
C21 O22 1.211 . S
O22 C21 1.211 . S
C23 O15 1.284 . S
C23 O24 1.273 . S
O24 C23 1.273 . S
O25 Zn16 1.977 . S
O25 C18 1.267 . S
C26 O27 1.160 . S
C26 O33 1.185 . S
O27 C26 1.160 . S
O28 Zn29 1.899 . S
O28 C36 1.284 . S
Zn29 O28 1.899 . S
Zn29 O30 2.032 . S
Zn29 O33 2.086 . S
Zn29 O38 1.977 . S
O30 Zn29 2.032 . S
O30 C34 1.278 . S
C31 O32 1.203 . S
C31 O38 1.267 . S
O32 C31 1.203 . S
O33 C26 1.185 . S
O33 Zn29 2.086 . S
C34 O30 1.278 . S
C34 O35 1.211 . S
O35 C34 1.211 . S
C36 O28 1.284 . S
C36 O37 1.273 . S
O37 C36 1.273 . S
O38 Zn29 1.977 . S
O38 C31 1.267 . S
C39 O40 1.160 . S
C39 O46 1.185 . S
O40 C39 1.160 . S
O41 Zn42 1.899 . S
O41 C49 1.284 . S
Zn42 O41 1.899 . S
Zn42 O43 2.032 . S
Zn42 O46 2.086 . S
Zn42 O51 1.977 . S
O43 Zn42 2.032 . S
O43 C47 1.278 . S
C44 O45 1.203 . S
C44 O51 1.267 . S
O45 C44 1.203 . S
O46 C39 1.185 . S
O46 Zn42 2.086 . S
C47 O43 1.278 . S
C47 O48 1.211 . S
O48 C47 1.211 . S
C49 O41 1.284 . S
C49 O50 1.273 . S
O50 C49 1.273 . S
O51 Zn42 1.977 . S
O51 C44 1.267 . S
C52 O53 1.160 . S
C52 O59 1.185 . S
O53 C52 1.160 . S
O54 Zn55 1.899 1_556 S
O54 C62 1.284 . S
Zn55 O54 1.899 1_554 S
Zn55 O56 2.032 . S
Zn55 O59 2.086 . S
Zn55 O64 1.977 . S
O56 Zn55 2.032 . S
O56 C60 1.278 . S
C57 O58 1.203 . S
C57 O64 1.267 . S
O58 C57 1.203 . S
O59 C52 1.185 . S
O59 Zn55 2.086 . S
C60 O56 1.278 . S
C60 O61 1.211 . S
O61 C60 1.211 . S
C62 O54 1.284 . S
C62 O63 1.273 1_556 S
O63 C62 1.273 1_554 S
O64 Zn55 1.977 . S
O64 C57 1.267 . S
C65 O66 1.160 . S
C65 O72 1.185 . S
O66 C65 1.160 . S
O67 Zn68 1.899 . S
O67 C75 1.284 . S
Zn68 O67 1.899 . S
Zn68 O69 2.032 . S
Zn68 O72 2.086 . S
Zn68 O77 1.977 . S
O69 Zn68 2.032 . S
O69 C73 1.278 . S
C70 O71 1.203 . S
C70 O77 1.267 . S
O71 C70 1.203 . S
O72 C65 1.185 . S
O72 Zn68 2.086 . S
C73 O69 1.278 . S
C73 O74 1.211 . S
O74 C73 1.211 . S
C75 O67 1.284 . S
C75 O76 1.273 . S
O76 C75 1.273 . S
O77 Zn68 1.977 . S
O77 C70 1.267 . S
C78 O79 1.160 . S
C78 O85 1.185 . S
O79 C78 1.160 . S
O80 Zn81 1.899 . S
O80 C88 1.284 . S
Zn81 O80 1.899 . S
Zn81 O82 2.032 . S
Zn81 O85 2.086 . S
Zn81 O90 1.977 . S
O82 Zn81 2.032 . S
O82 C86 1.278 . S
C83 O84 1.203 . S
C83 O90 1.267 . S
O84 C83 1.203 . S
O85 C78 1.185 . S
O85 Zn81 2.086 . S
C86 O82 1.278 . S
C86 O87 1.211 . S
O87 C86 1.211 . S
C88 O80 1.284 . S
C88 O89 1.273 . S
O89 C88 1.273 . S
O90 Zn81 1.977 . S
O90 C83 1.267 . S
C91 O92 1.160 . S
C91 O98 1.185 . S
O92 C91 1.160 . S
O93 Zn94 1.899 . S
O93 C101 1.284 . S
Zn94 O93 1.899 . S
Zn94 O95 2.032 . S
Zn94 O98 2.086 . S
Zn94 O103 1.977 . S
O95 Zn94 2.032 . S
O95 C99 1.278 . S
C96 O97 1.203 . S
C96 O103 1.267 . S
O97 C96 1.203 . S
O98 C91 1.185 . S
O98 Zn94 2.086 . S
C99 O95 1.278 . S
C99 O100 1.211 . S
O100 C99 1.211 . S
C101 O93 1.284 . S
C101 O102 1.273 . S
O102 C101 1.273 . S
O103 Zn94 1.977 . S
O103 C96 1.267 . S
C104 O105 1.160 . S
C104 O111 1.185 . S
O105 C104 1.160 . S
O106 Zn107 1.899 1_556 S
O106 C114 1.284 . S
Zn107 O106 1.899 1_554 S
Zn107 O108 2.032 . S
Zn107 O111 2.086 . S
Zn107 O116 1.977 . S
O108 Zn107 2.032 . S
O108 C112 1.278 . S
C109 O110 1.203 . S
C109 O116 1.267 . S
O110 C109 1.203 . S
O111 C104 1.185 . S
O111 Zn107 2.086 . S
C112 O108 1.278 . S
C112 O113 1.211 . S
O113 C112 1.211 . S
C114 O106 1.284 . S
C114 O115 1.273 1_556 S
O115 C114 1.273 1_554 S
O116 Zn107 1.977 . S
O116 C109 1.267 . S
C117 O118 1.160 . S
C117 O124 1.185 . S
O118 C117 1.160 . S
O119 Zn120 1.899 . S
O119 C127 1.284 . S
Zn120 O119 1.899 . S
Zn120 O121 2.032 . S
Zn120 O124 2.086 . S
Zn120 O129 1.977 . S
O121 Zn120 2.032 . S
O121 C125 1.278 . S
C122 O123 1.203 . S
C122 O129 1.267 . S
O123 C122 1.203 . S
O124 C117 1.185 . S
O124 Zn120 2.086 . S
C125 O121 1.278 . S
C125 O126 1.211 . S
O126 C125 1.211 . S
C127 O119 1.284 . S
C127 O128 1.273 . S
O128 C127 1.273 . S
O129 Zn120 1.977 . S
O129 C122 1.267 . S
C130 O131 1.160 . S
C130 O137 1.185 . S
O131 C130 1.160 . S
O132 Zn133 1.899 . S
O132 C140 1.284 . S
Zn133 O132 1.899 . S
Zn133 O134 2.032 . S
Zn133 O137 2.086 . S
Zn133 O142 1.977 . S
O134 Zn133 2.032 . S
O134 C138 1.278 . S
C135 O136 1.203 . S
C135 O142 1.267 . S
O136 C135 1.203 . S
O137 C130 1.185 . S
O137 Zn133 2.086 . S
C138 O134 1.278 . S
C138 O139 1.211 . S
O139 C138 1.211 . S
C140 O132 1.284 . S
C140 O141 1.273 . S
O141 C140 1.273 . S
O142 Zn133 1.977 . S
O142 C135 1.267 . S
C143 O144 1.160 . S
C143 O150 1.185 . S
O144 C143 1.160 . S
O145 Zn146 1.899 . S
O145 C153 1.284 . S
Zn146 O145 1.899 . S
Zn146 O147 2.032 . S
Zn146 O150 2.086 . S
Zn146 O155 1.977 . S
O147 Zn146 2.032 . S
O147 C151 1.278 . S
C148 O149 1.203 . S
C148 O155 1.267 . S
O149 C148 1.203 . S
O150 C143 1.185 . S
O150 Zn146 2.086 . S
C151 O147 1.278 . S
C151 O152 1.211 . S
O152 C151 1.211 . S
C153 O145 1.284 . S
C153 O154 1.273 . S
O154 C153 1.273 . S
O155 Zn146 1.977 . S
O155 C148 1.267 . S
C156 O157 1.160 . S
C156 O163 1.185 . S
O157 C156 1.160 . S
O158 Zn159 1.899 . S
O158 C166 1.284 . S
Zn159 O158 1.899 . S
Zn159 O160 2.032 1_554 S
Zn159 O163 2.086 . S
Zn159 O168 1.977 . S
O160 Zn159 2.032 1_556 S
O160 C164 1.278 . S
C161 O162 1.203 . S
C161 O168 1.267 . S
O162 C161 1.203 . S
O163 C156 1.185 . S
O163 Zn159 2.086 . S
C164 O160 1.278 . S
C164 O165 1.211 . S
O165 C164 1.211 . S
C166 O158 1.284 . S
C166 O167 1.273 . S
O167 C166 1.273 . S
O168 Zn159 1.977 . S
O168 C161 1.267 . S
C169 O170 1.160 . S
C169 O176 1.185 . S
O170 C169 1.160 . S
O171 Zn172 1.899 . S
O171 C179 1.284 . S
Zn172 O171 1.899 . S
Zn172 O173 2.032 . S
Zn172 O176 2.086 . S
Zn172 O181 1.977 . S
O173 Zn172 2.032 . S
O173 C177 1.278 . S
C174 O175 1.203 . S
C174 O181 1.267 . S
O175 C174 1.203 . S
O176 C169 1.185 . S
O176 Zn172 2.086 . S
C177 O173 1.278 . S
C177 O178 1.211 . S
O178 C177 1.211 . S
C179 O171 1.284 . S
C179 O180 1.273 . S
O180 C179 1.273 . S
O181 Zn172 1.977 . S
O181 C174 1.267 . S
C182 O183 1.160 . S
C182 O189 1.185 . S
O183 C182 1.160 . S
O184 Zn185 1.899 . S
O184 C192 1.284 . S
Zn185 O184 1.899 . S
Zn185 O186 2.032 . S
Zn185 O189 2.086 . S
Zn185 O194 1.977 . S
O186 Zn185 2.032 . S
O186 C190 1.278 . S
C187 O188 1.203 . S
C187 O194 1.267 . S
O188 C187 1.203 . S
O189 C182 1.185 . S
O189 Zn185 2.086 . S
C190 O186 1.278 . S
C190 O191 1.211 . S
O191 C190 1.211 . S
C192 O184 1.284 . S
C192 O193 1.273 . S
O193 C192 1.273 . S
O194 Zn185 1.977 . S
O194 C187 1.267 . S
C195 O196 1.160 . S
C195 O202 1.185 . S
O196 C195 1.160 . S
O197 Zn198 1.899 . S
O197 C205 1.284 . S
Zn198 O197 1.899 . S
Zn198 O199 2.032 . S
Zn198 O202 2.086 . S
Zn198 O207 1.977 . S
O199 Zn198 2.032 . S
O199 C203 1.278 . S
C200 O201 1.203 . S
C200 O207 1.267 . S
O201 C200 1.203 . S
O202 C195 1.185 . S
O202 Zn198 2.086 . S
C203 O199 1.278 . S
C203 O204 1.211 . S
O204 C203 1.211 . S
C205 O197 1.284 . S
C205 O206 1.273 . S
O206 C205 1.273 . S
O207 Zn198 1.977 . S
O207 C200 1.267 . S
C208 O209 1.160 . S
C208 O215 1.185 . S
O209 C208 1.160 . S
O210 Zn211 1.899 . S
O210 C218 1.284 . S
Zn211 O210 1.899 . S
Zn211 O212 2.032 . S
Zn211 O215 2.086 . S
Zn211 O220 1.977 . S
O212 Zn211 2.032 . S
O212 C216 1.278 . S
C213 O214 1.203 . S
C213 O220 1.267 . S
O214 C213 1.203 . S
O215 C208 1.185 . S
O215 Zn211 2.086 . S
C216 O212 1.278 . S
C216 O217 1.211 . S
O217 C216 1.211 . S
C218 O210 1.284 . S
C218 O219 1.273 . S
O219 C218 1.273 . S
O220 Zn211 1.977 . S
O220 C213 1.267 . S
C221 O222 1.160 . S
C221 O228 1.185 . S
O222 C221 1.160 . S
O223 Zn224 1.899 . S
O223 C231 1.284 . S
Zn224 O223 1.899 . S
Zn224 O225 2.032 . S
Zn224 O228 2.086 . S
Zn224 O233 1.977 . S
O225 Zn224 2.032 . S
O225 C229 1.278 . S
C226 O227 1.203 . S
C226 O233 1.267 . S
O227 C226 1.203 . S
O228 C221 1.185 . S
O228 Zn224 2.086 . S
C229 O225 1.278 . S
C229 O230 1.211 . S
O230 C229 1.211 . S
C231 O223 1.284 . S
C231 O232 1.273 . S
O232 C231 1.273 . S
O233 Zn224 1.977 . S
O233 C226 1.267 . S
C234 O235 1.160 . S
C234 O241 1.185 . S
O235 C234 1.160 . S
O236 Zn237 1.899 . S
O236 C244 1.284 . S
Zn237 O236 1.899 . S
Zn237 O238 2.032 1_554 S
Zn237 O241 2.086 . S
Zn237 O246 1.977 . S
O238 Zn237 2.032 1_556 S
O238 C242 1.278 . S
C239 O240 1.203 . S
C239 O246 1.267 . S
O240 C239 1.203 . S
O241 C234 1.185 . S
O241 Zn237 2.086 . S
C242 O238 1.278 . S
C242 O243 1.211 . S
O243 C242 1.211 . S
C244 O236 1.284 . S
C244 O245 1.273 . S
O245 C244 1.273 . S
O246 Zn237 1.977 . S
O246 C239 1.267 . S
C247 O248 1.160 . S
C247 O254 1.185 . S
O248 C247 1.160 . S
O249 Zn250 1.899 . S
O249 C257 1.284 . S
Zn250 O249 1.899 . S
Zn250 O251 2.032 . S
Zn250 O254 2.086 . S
Zn250 O259 1.977 . S
O251 Zn250 2.032 . S
O251 C255 1.278 . S
C252 O253 1.203 . S
C252 O259 1.267 . S
O253 C252 1.203 . S
O254 C247 1.185 . S
O254 Zn250 2.086 . S
C255 O251 1.278 . S
C255 O256 1.211 . S
O256 C255 1.211 . S
C257 O249 1.284 . S
C257 O258 1.273 . S
O258 C257 1.273 . S
O259 Zn250 1.977 . S
O259 C252 1.267 . S
C260 O261 1.160 . S
C260 O267 1.185 . S
O261 C260 1.160 . S
O262 Zn263 1.899 . S
O262 C270 1.284 . S
Zn263 O262 1.899 . S
Zn263 O264 2.032 . S
Zn263 O267 2.086 . S
Zn263 O272 1.977 . S
O264 Zn263 2.032 . S
O264 C268 1.278 . S
C265 O266 1.203 . S
C265 O272 1.267 . S
O266 C265 1.203 . S
O267 C260 1.185 . S
O267 Zn263 2.086 . S
C268 O264 1.278 . S
C268 O269 1.211 . S
O269 C268 1.211 . S
C270 O262 1.284 . S
C270 O271 1.273 . S
O271 C270 1.273 . S
O272 Zn263 1.977 . S
O272 C265 1.267 . S
C273 O274 1.160 . S
C273 O280 1.185 . S
O274 C273 1.160 . S
O275 Zn276 1.899 . S
O275 C283 1.284 . S
Zn276 O275 1.899 . S
Zn276 O277 2.032 . S
Zn276 O280 2.086 . S
Zn276 O285 1.977 . S
O277 Zn276 2.032 . S
O277 C281 1.278 . S
C278 O279 1.203 . S
C278 O285 1.267 . S
O279 C278 1.203 . S
O280 C273 1.185 . S
O280 Zn276 2.086 . S
C281 O277 1.278 . S
C281 O282 1.211 . S
O282 C281 1.211 . S
C283 O275 1.284 . S
C283 O284 1.273 . S
O284 C283 1.273 . S
O285 Zn276 1.977 . S
O285 C278 1.267 . S
C286 O287 1.160 . S
C286 O293 1.185 . S
O287 C286 1.160 . S
O288 Zn289 1.899 1_556 S
O288 C296 1.284 . S
Zn289 O288 1.899 1_554 S
Zn289 O290 2.032 . S
Zn289 O293 2.086 . S
Zn289 O298 1.977 . S
O290 Zn289 2.032 . S
O290 C294 1.278 . S
C291 O292 1.203 . S
C291 O298 1.267 . S
O292 C291 1.203 . S
O293 C286 1.185 . S
O293 Zn289 2.086 . S
C294 O290 1.278 . S
C294 O295 1.211 . S
O295 C294 1.211 . S
C296 O288 1.284 . S
C296 O297 1.273 1_556 S
O297 C296 1.273 1_554 S
O298 Zn289 1.977 . S
O298 C291 1.267 . S
C299 O300 1.160 . S
C299 O306 1.185 . S
O300 C299 1.160 . S
O301 Zn302 1.899 . S
O301 C309 1.284 . S
Zn302 O301 1.899 . S
Zn302 O303 2.032 . S
Zn302 O306 2.086 . S
Zn302 O311 1.977 . S
O303 Zn302 2.032 . S
O303 C307 1.278 . S
C304 O305 1.203 . S
C304 O311 1.267 . S
O305 C304 1.203 . S
O306 C299 1.185 . S
O306 Zn302 2.086 . S
C307 O303 1.278 . S
C307 O308 1.211 . S
O308 C307 1.211 . S
C309 O301 1.284 . S
C309 O310 1.273 . S
O310 C309 1.273 . S
O311 Zn302 1.977 . S
O311 C304 1.267 . S
C312 O313 1.160 . S
C312 O319 1.185 . S
O313 C312 1.160 . S
O314 Zn315 1.899 . S
O314 C322 1.284 . S
Zn315 O314 1.899 . S
Zn315 O316 2.032 . S
Zn315 O319 2.086 . S
Zn315 O324 1.977 . S
O316 Zn315 2.032 . S
O316 C320 1.278 . S
C317 O318 1.203 . S
C317 O324 1.267 . S
O318 C317 1.203 . S
O319 C312 1.185 . S
O319 Zn315 2.086 . S
C320 O316 1.278 . S
C320 O321 1.211 . S
O321 C320 1.211 . S
C322 O314 1.284 . S
C322 O323 1.273 . S
O323 C322 1.273 . S
O324 Zn315 1.977 . S
O324 C317 1.267 . S
C325 O326 1.160 . S
C325 O332 1.185 . S
O326 C325 1.160 . S
O327 Zn328 1.899 . S
O327 C335 1.284 . S
Zn328 O327 1.899 . S
Zn328 O329 2.032 . S
Zn328 O332 2.086 . S
Zn328 O337 1.977 . S
O329 Zn328 2.032 . S
O329 C333 1.278 . S
C330 O331 1.203 . S
C330 O337 1.267 . S
O331 C330 1.203 . S
O332 C325 1.185 . S
O332 Zn328 2.086 . S
C333 O329 1.278 . S
C333 O334 1.211 . S
O334 C333 1.211 . S
C335 O327 1.284 . S
C335 O336 1.273 . S
O336 C335 1.273 . S
O337 Zn328 1.977 . S
O337 C330 1.267 . S
C338 O339 1.160 . S
C338 O345 1.185 . S
O339 C338 1.160 . S
O340 Zn341 1.899 1_556 S
O340 C348 1.284 . S
Zn341 O340 1.899 1_554 S
Zn341 O342 2.032 . S
Zn341 O345 2.086 . S
Zn341 O350 1.977 . S
O342 Zn341 2.032 . S
O342 C346 1.278 . S
C343 O344 1.203 . S
C343 O350 1.267 . S
O344 C343 1.203 . S
O345 C338 1.185 . S
O345 Zn341 2.086 . S
C346 O342 1.278 . S
C346 O347 1.211 . S
O347 C346 1.211 . S
C348 O340 1.284 . S
C348 O349 1.273 1_556 S
O349 C348 1.273 1_554 S
O350 Zn341 1.977 . S
O350 C343 1.267 . S
C351 O352 1.160 . S
C351 O358 1.185 . S
O352 C351 1.160 . S
O353 Zn354 1.899 . S
O353 C361 1.284 . S
Zn354 O353 1.899 . S
Zn354 O355 2.032 . S
Zn354 O358 2.086 . S
Zn354 O363 1.977 . S
O355 Zn354 2.032 . S
O355 C359 1.278 . S
C356 O357 1.203 . S
C356 O363 1.267 . S
O357 C356 1.203 . S
O358 C351 1.185 . S
O358 Zn354 2.086 . S
C359 O355 1.278 . S
C359 O360 1.211 . S
O360 C359 1.211 . S
C361 O353 1.284 . S
C361 O362 1.273 . S
O362 C361 1.273 . S
O363 Zn354 1.977 . S
O363 C356 1.267 . S
C364 O365 1.160 . S
C364 O371 1.185 . S
O365 C364 1.160 . S
O366 Zn367 1.899 . S
O366 C374 1.284 . S
Zn367 O366 1.899 . S
Zn367 O368 2.032 . S
Zn367 O371 2.086 . S
Zn367 O376 1.977 . S
O368 Zn367 2.032 . S
O368 C372 1.278 . S
C369 O370 1.203 . S
C369 O376 1.267 . S
O370 C369 1.203 . S
O371 C364 1.185 . S
O371 Zn367 2.086 . S
C372 O368 1.278 . S
C372 O373 1.211 . S
O373 C372 1.211 . S
C374 O366 1.284 . S
C374 O375 1.273 . S
O375 C374 1.273 . S
O376 Zn367 1.977 . S
O376 C369 1.267 . S
C377 O378 1.160 . S
C377 O384 1.185 . S
O378 C377 1.160 . S
O379 Zn380 1.899 . S
O379 C387 1.284 . S
Zn380 O379 1.899 . S
Zn380 O381 2.032 . S
Zn380 O384 2.086 . S
Zn380 O389 1.977 . S
O381 Zn380 2.032 . S
O381 C385 1.278 . S
C382 O383 1.203 . S
C382 O389 1.267 . S
O383 C382 1.203 . S
O384 C377 1.185 . S
O384 Zn380 2.086 . S
C385 O381 1.278 . S
C385 O386 1.211 . S
O386 C385 1.211 . S
C387 O379 1.284 . S
C387 O388 1.273 . S
O388 C387 1.273 . S
O389 Zn380 1.977 . S
O389 C382 1.267 . S
C390 O391 1.160 . S
C390 O397 1.185 . S
O391 C390 1.160 . S
O392 Zn393 1.899 . S
O392 C400 1.284 . S
Zn393 O392 1.899 . S
Zn393 O394 2.032 1_554 S
Zn393 O397 2.086 . S
Zn393 O402 1.977 . S
O394 Zn393 2.032 1_556 S
O394 C398 1.278 . S
C395 O396 1.203 . S
C395 O402 1.267 . S
O396 C395 1.203 . S
O397 C390 1.185 . S
O397 Zn393 2.086 . S
C398 O394 1.278 . S
C398 O399 1.211 . S
O399 C398 1.211 . S
C400 O392 1.284 . S
C400 O401 1.273 . S
O401 C400 1.273 . S
O402 Zn393 1.977 . S
O402 C395 1.267 . S
C403 O404 1.160 . S
C403 O410 1.185 . S
O404 C403 1.160 . S
O405 Zn406 1.899 . S
O405 C413 1.284 . S
Zn406 O405 1.899 . S
Zn406 O407 2.032 . S
Zn406 O410 2.086 . S
Zn406 O415 1.977 . S
O407 Zn406 2.032 . S
O407 C411 1.278 . S
C408 O409 1.203 . S
C408 O415 1.267 . S
O409 C408 1.203 . S
O410 C403 1.185 . S
O410 Zn406 2.086 . S
C411 O407 1.278 . S
C411 O412 1.211 . S
O412 C411 1.211 . S
C413 O405 1.284 . S
C413 O414 1.273 . S
O414 C413 1.273 . S
O415 Zn406 1.977 . S
O415 C408 1.267 . S
C416 C417 1.391 . S
C416 C418 1.394 . S
C416 H432 0.931 . S
C417 C416 1.391 . S
C417 C421 1.376 . S
C418 C416 1.394 . S
C418 C419 1.369 . S
C418 C422 1.531 . S
C419 C418 1.369 . S
C419 C420 1.410 . S
C419 C427 1.503 . S
C420 C419 1.410 . S
C420 C421 1.392 . S
C420 C423 1.511 . S
C421 C417 1.376 . S
C421 C420 1.392 . S
C421 H433 0.929 . S
C422 C418 1.531 . S
C422 H434 0.960 . S
C422 H435 0.962 . S
C422 H436 0.960 . S
C423 C420 1.511 . S
C423 H437 0.961 . S
C423 H438 0.961 . S
C423 H439 0.961 1_556 S
C424 C425 1.370 . S
C424 C426 1.363 . S
C424 H440 0.931 . S
C425 C424 1.370 . S
C425 C429 1.408 1_556 S
C426 C424 1.363 . S
C426 C427 1.370 . S
C426 C430 1.524 . S
C427 C419 1.503 . S
C427 C426 1.370 . S
C427 C428 1.403 . S
C428 C427 1.403 . S
C428 C429 1.404 1_556 S
C428 C431 1.539 1_556 S
C429 C425 1.408 1_554 S
C429 C428 1.404 1_554 S
C429 H441 0.930 . S
C430 C426 1.524 . S
C430 H442 0.956 . S
C430 H443 0.961 . S
C430 H444 0.961 . S
C431 C428 1.539 1_554 S
C431 H445 0.958 1_554 S
C431 H446 0.961 . S
C431 H447 0.960 1_554 S
H432 C416 0.931 . S
H433 C421 0.929 . S
H434 C422 0.960 . S
H435 C422 0.962 . S
H436 C422 0.960 . S
H437 C423 0.961 . S
H438 C423 0.961 . S
H439 C423 0.961 1_554 S
H440 C424 0.931 . S
H441 C429 0.930 . S
H442 C430 0.956 . S
H443 C430 0.961 . S
H444 C430 0.961 . S
H445 C431 0.958 1_556 S
H446 C431 0.961 . S
H447 C431 0.960 1_556 S
C448 C449 1.391 . S
C448 C450 1.394 . S
C448 H464 0.931 . S
C449 C448 1.391 . S
C449 C453 1.376 . S
C450 C448 1.394 . S
C450 C451 1.369 . S
C450 C454 1.531 . S
C451 C450 1.369 . S
C451 C452 1.410 . S
C451 C459 1.503 . S
C452 C451 1.410 . S
C452 C453 1.392 . S
C452 C455 1.511 . S
C453 C449 1.376 . S
C453 C452 1.392 . S
C453 H465 0.929 . S
C454 C450 1.531 . S
C454 H466 0.960 . S
C454 H467 0.962 . S
C454 H468 0.960 . S
C455 C452 1.511 . S
C455 H469 0.961 . S
C455 H470 0.961 . S
C455 H471 0.961 . S
C456 C457 1.370 . S
C456 C458 1.363 . S
C456 H472 0.931 . S
C457 C456 1.370 . S
C457 C461 1.408 . S
C458 C456 1.363 . S
C458 C459 1.370 . S
C458 C462 1.524 . S
C459 C451 1.503 . S
C459 C458 1.370 . S
C459 C460 1.403 . S
C460 C459 1.403 . S
C460 C461 1.404 . S
C460 C463 1.539 . S
C461 C457 1.408 . S
C461 C460 1.404 . S
C461 H473 0.930 . S
C462 C458 1.524 . S
C462 H474 0.956 . S
C462 H475 0.961 . S
C462 H476 0.961 . S
C463 C460 1.539 . S
C463 H477 0.958 . S
C463 H478 0.961 . S
C463 H479 0.960 . S
H464 C448 0.931 . S
H465 C453 0.929 . S
H466 C454 0.960 . S
H467 C454 0.962 . S
H468 C454 0.960 . S
H469 C455 0.961 . S
H470 C455 0.961 . S
H471 C455 0.961 . S
H472 C456 0.931 . S
H473 C461 0.930 . S
H474 C462 0.956 . S
H475 C462 0.961 . S
H476 C462 0.961 . S
H477 C463 0.958 . S
H478 C463 0.961 . S
H479 C463 0.960 . S
C480 C481 1.391 . S
C480 C482 1.394 . S
C480 H496 0.931 . S
C481 C480 1.391 . S
C481 C485 1.376 . S
C482 C480 1.394 . S
C482 C483 1.369 . S
C482 C486 1.531 . S
C483 C482 1.369 . S
C483 C484 1.410 . S
C483 C491 1.503 . S
C484 C483 1.410 . S
C484 C485 1.392 . S
C484 C487 1.511 . S
C485 C481 1.376 . S
C485 C484 1.392 . S
C485 H497 0.929 . S
C486 C482 1.531 . S
C486 H498 0.960 . S
C486 H499 0.962 . S
C486 H500 0.960 . S
C487 C484 1.511 . S
C487 H501 0.961 . S
C487 H502 0.961 . S
C487 H503 0.961 . S
C488 C489 1.370 . S
C488 C490 1.363 . S
C488 H504 0.931 . S
C489 C488 1.370 . S
C489 C493 1.408 . S
C490 C488 1.363 . S
C490 C491 1.370 . S
C490 C494 1.524 . S
C491 C483 1.503 . S
C491 C490 1.370 . S
C491 C492 1.403 . S
C492 C491 1.403 . S
C492 C493 1.404 . S
C492 C495 1.539 . S
C493 C489 1.408 . S
C493 C492 1.404 . S
C493 H505 0.930 . S
C494 C490 1.524 . S
C494 H506 0.956 . S
C494 H507 0.961 . S
C494 H508 0.961 . S
C495 C492 1.539 . S
C495 H509 0.958 . S
C495 H510 0.961 . S
C495 H511 0.960 . S
H496 C480 0.931 . S
H497 C485 0.929 . S
H498 C486 0.960 . S
H499 C486 0.962 . S
H500 C486 0.960 . S
H501 C487 0.961 . S
H502 C487 0.961 . S
H503 C487 0.961 . S
H504 C488 0.931 . S
H505 C493 0.930 . S
H506 C494 0.956 . S
H507 C494 0.961 . S
H508 C494 0.961 . S
H509 C495 0.958 . S
H510 C495 0.961 . S
H511 C495 0.960 . S
C512 C513 1.391 . S
C512 C514 1.394 . S
C512 H528 0.931 . S
C513 C512 1.391 . S
C513 C517 1.376 . S
C514 C512 1.394 . S
C514 C515 1.369 . S
C514 C518 1.531 . S
C515 C514 1.369 . S
C515 C516 1.410 . S
C515 C523 1.503 . S
C516 C515 1.410 . S
C516 C517 1.392 . S
C516 C519 1.511 . S
C517 C513 1.376 . S
C517 C516 1.392 . S
C517 H529 0.929 . S
C518 C514 1.531 . S
C518 H530 0.960 . S
C518 H531 0.962 . S
C518 H532 0.960 . S
C519 C516 1.511 . S
C519 H533 0.961 . S
C519 H534 0.961 . S
C519 H535 0.961 . S
C520 C521 1.370 . S
C520 C522 1.363 . S
C520 H536 0.931 . S
C521 C520 1.370 . S
C521 C525 1.408 . S
C522 C520 1.363 . S
C522 C523 1.370 . S
C522 C526 1.524 . S
C523 C515 1.503 . S
C523 C522 1.370 . S
C523 C524 1.403 . S
C524 C523 1.403 . S
C524 C525 1.404 . S
C524 C527 1.539 . S
C525 C521 1.408 . S
C525 C524 1.404 . S
C525 H537 0.930 . S
C526 C522 1.524 . S
C526 H538 0.956 . S
C526 H539 0.961 . S
C526 H540 0.961 . S
C527 C524 1.539 . S
C527 H541 0.958 . S
C527 H542 0.961 . S
C527 H543 0.960 . S
H528 C512 0.931 . S
H529 C517 0.929 . S
H530 C518 0.960 . S
H531 C518 0.962 . S
H532 C518 0.960 . S
H533 C519 0.961 . S
H534 C519 0.961 . S
H535 C519 0.961 . S
H536 C520 0.931 . S
H537 C525 0.930 . S
H538 C526 0.956 . S
H539 C526 0.961 . S
H540 C526 0.961 . S
H541 C527 0.958 . S
H542 C527 0.961 . S
H543 C527 0.960 . S
C544 C545 1.391 . S
C544 C546 1.394 . S
C544 H560 0.931 . S
C545 C544 1.391 . S
C545 C549 1.376 . S
C546 C544 1.394 . S
C546 C547 1.369 . S
C546 C550 1.531 . S
C547 C546 1.369 . S
C547 C548 1.410 . S
C547 C555 1.503 . S
C548 C547 1.410 . S
C548 C549 1.392 . S
C548 C551 1.511 . S
C549 C545 1.376 . S
C549 C548 1.392 . S
C549 H561 0.929 . S
C550 C546 1.531 . S
C550 H562 0.960 . S
C550 H563 0.962 . S
C550 H564 0.960 . S
C551 C548 1.511 . S
C551 H565 0.961 . S
C551 H566 0.961 . S
C551 H567 0.961 . S
C552 C553 1.370 . S
C552 C554 1.363 . S
C552 H568 0.931 . S
C553 C552 1.370 . S
C553 C557 1.408 . S
C554 C552 1.363 . S
C554 C555 1.370 . S
C554 C558 1.524 . S
C555 C547 1.503 . S
C555 C554 1.370 . S
C555 C556 1.403 . S
C556 C555 1.403 . S
C556 C557 1.404 . S
C556 C559 1.539 . S
C557 C553 1.408 . S
C557 C556 1.404 . S
C557 H569 0.930 . S
C558 C554 1.524 . S
C558 H570 0.956 . S
C558 H571 0.961 . S
C558 H572 0.961 . S
C559 C556 1.539 . S
C559 H573 0.958 . S
C559 H574 0.961 . S
C559 H575 0.960 . S
H560 C544 0.931 . S
H561 C549 0.929 . S
H562 C550 0.960 . S
H563 C550 0.962 . S
H564 C550 0.960 . S
H565 C551 0.961 . S
H566 C551 0.961 . S
H567 C551 0.961 . S
H568 C552 0.931 . S
H569 C557 0.930 . S
H570 C558 0.956 . S
H571 C558 0.961 . S
H572 C558 0.961 . S
H573 C559 0.958 . S
H574 C559 0.961 . S
H575 C559 0.960 . S
C576 C577 1.391 . S
C576 C578 1.394 . S
C576 H592 0.931 . S
C577 C576 1.391 . S
C577 C581 1.376 . S
C578 C576 1.394 . S
C578 C579 1.369 . S
C578 C582 1.531 . S
C579 C578 1.369 . S
C579 C580 1.410 . S
C579 C587 1.503 . S
C580 C579 1.410 . S
C580 C581 1.392 . S
C580 C583 1.511 . S
C581 C577 1.376 . S
C581 C580 1.392 . S
C581 H593 0.929 . S
C582 C578 1.531 . S
C582 H594 0.960 1_556 S
C582 H595 0.962 1_556 S
C582 H596 0.960 1_556 S
C583 C580 1.511 . S
C583 H597 0.961 . S
C583 H598 0.961 . S
C583 H599 0.961 . S
C584 C585 1.370 . S
C584 C586 1.363 . S
C584 H600 0.931 . S
C585 C584 1.370 . S
C585 C589 1.408 . S
C586 C584 1.363 . S
C586 C587 1.370 . S
C586 C590 1.524 . S
C587 C579 1.503 . S
C587 C586 1.370 . S
C587 C588 1.403 . S
C588 C587 1.403 . S
C588 C589 1.404 . S
C588 C591 1.539 . S
C589 C585 1.408 . S
C589 C588 1.404 . S
C589 H601 0.930 . S
C590 C586 1.524 . S
C590 H602 0.956 . S
C590 H603 0.961 . S
C590 H604 0.961 . S
C591 C588 1.539 . S
C591 H605 0.958 . S
C591 H606 0.961 . S
C591 H607 0.960 . S
H592 C576 0.931 . S
H593 C581 0.929 . S
H594 C582 0.960 1_554 S
H595 C582 0.962 1_554 S
H596 C582 0.960 1_554 S
H597 C583 0.961 . S
H598 C583 0.961 . S
H599 C583 0.961 . S
H600 C584 0.931 . S
H601 C589 0.930 . S
H602 C590 0.956 . S
H603 C590 0.961 . S
H604 C590 0.961 . S
H605 C591 0.958 . S
H606 C591 0.961 . S
H607 C591 0.960 . S
C608 C609 1.391 . S
C608 C610 1.394 . S
C608 H624 0.931 . S
C609 C608 1.391 . S
C609 C613 1.376 . S
C610 C608 1.394 . S
C610 C611 1.369 . S
C610 C614 1.531 . S
C611 C610 1.369 . S
C611 C612 1.410 . S
C611 C619 1.503 . S
C612 C611 1.410 . S
C612 C613 1.392 . S
C612 C615 1.511 . S
C613 C609 1.376 . S
C613 C612 1.392 . S
C613 H625 0.929 . S
C614 C610 1.531 . S
C614 H626 0.960 . S
C614 H627 0.962 . S
C614 H628 0.960 . S
C615 C612 1.511 . S
C615 H629 0.961 . S
C615 H630 0.961 . S
C615 H631 0.961 . S
C616 C617 1.370 . S
C616 C618 1.363 . S
C616 H632 0.931 . S
C617 C616 1.370 . S
C617 C621 1.408 . S
C618 C616 1.363 . S
C618 C619 1.370 . S
C618 C622 1.524 . S
C619 C611 1.503 . S
C619 C618 1.370 . S
C619 C620 1.403 . S
C620 C619 1.403 . S
C620 C621 1.404 . S
C620 C623 1.539 . S
C621 C617 1.408 . S
C621 C620 1.404 . S
C621 H633 0.930 . S
C622 C618 1.524 . S
C622 H634 0.956 . S
C622 H635 0.961 . S
C622 H636 0.961 . S
C623 C620 1.539 . S
C623 H637 0.958 . S
C623 H638 0.961 . S
C623 H639 0.960 . S
H624 C608 0.931 . S
H625 C613 0.929 . S
H626 C614 0.960 . S
H627 C614 0.962 . S
H628 C614 0.960 . S
H629 C615 0.961 . S
H630 C615 0.961 . S
H631 C615 0.961 . S
H632 C616 0.931 . S
H633 C621 0.930 . S
H634 C622 0.956 . S
H635 C622 0.961 . S
H636 C622 0.961 . S
H637 C623 0.958 . S
H638 C623 0.961 . S
H639 C623 0.960 . S
C640 C641 1.391 . S
C640 C642 1.394 . S
C640 H656 0.931 . S
C641 C640 1.391 . S
C641 C645 1.376 . S
C642 C640 1.394 . S
C642 C643 1.369 . S
C642 C646 1.531 . S
C643 C642 1.369 . S
C643 C644 1.410 . S
C643 C651 1.503 . S
C644 C643 1.410 . S
C644 C645 1.392 . S
C644 C647 1.511 . S
C645 C641 1.376 . S
C645 C644 1.392 . S
C645 H657 0.929 . S
C646 C642 1.531 . S
C646 H658 0.960 . S
C646 H659 0.962 . S
C646 H660 0.960 . S
C647 C644 1.511 . S
C647 H661 0.961 . S
C647 H662 0.961 . S
C647 H663 0.961 . S
C648 C649 1.370 . S
C648 C650 1.363 . S
C648 H664 0.931 . S
C649 C648 1.370 . S
C649 C653 1.408 . S
C650 C648 1.363 . S
C650 C651 1.370 . S
C650 C654 1.524 . S
C651 C643 1.503 . S
C651 C650 1.370 . S
C651 C652 1.403 . S
C652 C651 1.403 . S
C652 C653 1.404 . S
C652 C655 1.539 . S
C653 C649 1.408 . S
C653 C652 1.404 . S
C653 H665 0.930 . S
C654 C650 1.524 . S
C654 H666 0.956 . S
C654 H667 0.961 . S
C654 H668 0.961 . S
C655 C652 1.539 . S
C655 H669 0.958 . S
C655 H670 0.961 . S
C655 H671 0.960 . S
H656 C640 0.931 . S
H657 C645 0.929 . S
H658 C646 0.960 . S
H659 C646 0.962 . S
H660 C646 0.960 . S
H661 C647 0.961 . S
H662 C647 0.961 . S
H663 C647 0.961 . S
H664 C648 0.931 . S
H665 C653 0.930 . S
H666 C654 0.956 . S
H667 C654 0.961 . S
H668 C654 0.961 . S
H669 C655 0.958 . S
H670 C655 0.961 . S
H671 C655 0.960 . S
C672 C673 1.391 . S
C672 C674 1.394 . S
C672 H688 0.931 . S
C673 C672 1.391 . S
C673 C677 1.376 . S
C674 C672 1.394 . S
C674 C675 1.369 . S
C674 C678 1.531 . S
C675 C674 1.369 . S
C675 C676 1.410 . S
C675 C683 1.503 . S
C676 C675 1.410 . S
C676 C677 1.392 . S
C676 C679 1.511 . S
C677 C673 1.376 . S
C677 C676 1.392 . S
C677 H689 0.929 . S
C678 C674 1.531 . S
C678 H690 0.960 . S
C678 H691 0.962 . S
C678 H692 0.960 . S
C679 C676 1.511 . S
C679 H693 0.961 . S
C679 H694 0.961 . S
C679 H695 0.961 . S
C680 C681 1.370 . S
C680 C682 1.363 . S
C680 H696 0.931 . S
C681 C680 1.370 . S
C681 C685 1.408 . S
C682 C680 1.363 . S
C682 C683 1.370 . S
C682 C686 1.524 . S
C683 C675 1.503 . S
C683 C682 1.370 . S
C683 C684 1.403 . S
C684 C683 1.403 . S
C684 C685 1.404 . S
C684 C687 1.539 . S
C685 C681 1.408 . S
C685 C684 1.404 . S
C685 H697 0.930 . S
C686 C682 1.524 . S
C686 H698 0.956 . S
C686 H699 0.961 . S
C686 H700 0.961 . S
C687 C684 1.539 . S
C687 H701 0.958 . S
C687 H702 0.961 . S
C687 H703 0.960 . S
H688 C672 0.931 . S
H689 C677 0.929 . S
H690 C678 0.960 . S
H691 C678 0.962 . S
H692 C678 0.960 . S
H693 C679 0.961 . S
H694 C679 0.961 . S
H695 C679 0.961 . S
H696 C680 0.931 . S
H697 C685 0.930 . S
H698 C686 0.956 . S
H699 C686 0.961 . S
H700 C686 0.961 . S
H701 C687 0.958 . S
H702 C687 0.961 . S
H703 C687 0.960 . S
C704 C705 1.391 . S
C704 C706 1.394 . S
C704 H720 0.931 . S
C705 C704 1.391 . S
C705 C709 1.376 . S
C706 C704 1.394 . S
C706 C707 1.369 . S
C706 C710 1.531 . S
C707 C706 1.369 . S
C707 C708 1.410 . S
C707 C715 1.503 . S
C708 C707 1.410 . S
C708 C709 1.392 . S
C708 C711 1.511 . S
C709 C705 1.376 . S
C709 C708 1.392 . S
C709 H721 0.929 . S
C710 C706 1.531 . S
C710 H722 0.960 . S
C710 H723 0.962 . S
C710 H724 0.960 . S
C711 C708 1.511 . S
C711 H725 0.961 . S
C711 H726 0.961 . S
C711 H727 0.961 . S
C712 C713 1.370 . S
C712 C714 1.363 . S
C712 H728 0.931 . S
C713 C712 1.370 . S
C713 C717 1.408 . S
C714 C712 1.363 . S
C714 C715 1.370 . S
C714 C718 1.524 . S
C715 C707 1.503 . S
C715 C714 1.370 . S
C715 C716 1.403 . S
C716 C715 1.403 . S
C716 C717 1.404 . S
C716 C719 1.539 . S
C717 C713 1.408 . S
C717 C716 1.404 . S
C717 H729 0.930 . S
C718 C714 1.524 . S
C718 H730 0.956 . S
C718 H731 0.961 . S
C718 H732 0.961 . S
C719 C716 1.539 . S
C719 H733 0.958 . S
C719 H734 0.961 . S
C719 H735 0.960 . S
H720 C704 0.931 . S
H721 C709 0.929 . S
H722 C710 0.960 . S
H723 C710 0.962 . S
H724 C710 0.960 . S
H725 C711 0.961 . S
H726 C711 0.961 . S
H727 C711 0.961 . S
H728 C712 0.931 . S
H729 C717 0.930 . S
H730 C718 0.956 . S
H731 C718 0.961 . S
H732 C718 0.961 . S
H733 C719 0.958 . S
H734 C719 0.961 . S
H735 C719 0.960 . S
C736 C737 1.391 . S
C736 C738 1.394 . S
C736 H752 0.931 . S
C737 C736 1.391 . S
C737 C741 1.376 . S
C738 C736 1.394 . S
C738 C739 1.369 . S
C738 C742 1.531 . S
C739 C738 1.369 . S
C739 C740 1.410 . S
C739 C747 1.503 . S
C740 C739 1.410 . S
C740 C741 1.392 . S
C740 C743 1.511 . S
C741 C737 1.376 . S
C741 C740 1.392 . S
C741 H753 0.929 . S
C742 C738 1.531 . S
C742 H754 0.960 . S
C742 H755 0.962 . S
C742 H756 0.960 . S
C743 C740 1.511 . S
C743 H757 0.961 1_556 S
C743 H758 0.961 1_556 S
C743 H759 0.961 . S
C744 C745 1.370 . S
C744 C746 1.363 . S
C744 H760 0.931 . S
C745 C744 1.370 . S
C745 C749 1.408 . S
C746 C744 1.363 . S
C746 C747 1.370 . S
C746 C750 1.524 . S
C747 C739 1.503 . S
C747 C746 1.370 . S
C747 C748 1.403 . S
C748 C747 1.403 . S
C748 C749 1.404 . S
C748 C751 1.539 . S
C749 C745 1.408 . S
C749 C748 1.404 . S
C749 H761 0.930 . S
C750 C746 1.524 . S
C750 H762 0.956 . S
C750 H763 0.961 . S
C750 H764 0.961 . S
C751 C748 1.539 . S
C751 H765 0.958 . S
C751 H766 0.961 . S
C751 H767 0.960 . S
H752 C736 0.931 . S
H753 C741 0.929 . S
H754 C742 0.960 . S
H755 C742 0.962 . S
H756 C742 0.960 . S
H757 C743 0.961 1_554 S
H758 C743 0.961 1_554 S
H759 C743 0.961 . S
H760 C744 0.931 . S
H761 C749 0.930 . S
H762 C750 0.956 . S
H763 C750 0.961 . S
H764 C750 0.961 . S
H765 C751 0.958 . S
H766 C751 0.961 . S
H767 C751 0.960 . S
C768 C769 1.391 . S
C768 C770 1.394 . S
C768 H784 0.931 . S
C769 C768 1.391 . S
C769 C773 1.376 . S
C770 C768 1.394 . S
C770 C771 1.369 . S
C770 C774 1.531 . S
C771 C770 1.369 . S
C771 C772 1.410 . S
C771 C779 1.503 . S
C772 C771 1.410 . S
C772 C773 1.392 . S
C772 C775 1.511 . S
C773 C769 1.376 . S
C773 C772 1.392 . S
C773 H785 0.929 . S
C774 C770 1.531 . S
C774 H786 0.960 . S
C774 H787 0.962 . S
C774 H788 0.960 . S
C775 C772 1.511 . S
C775 H789 0.961 . S
C775 H790 0.961 . S
C775 H791 0.961 . S
C776 C777 1.370 . S
C776 C778 1.363 . S
C776 H792 0.931 . S
C777 C776 1.370 . S
C777 C781 1.408 . S
C778 C776 1.363 . S
C778 C779 1.370 . S
C778 C782 1.524 . S
C779 C771 1.503 . S
C779 C778 1.370 . S
C779 C780 1.403 . S
C780 C779 1.403 . S
C780 C781 1.404 . S
C780 C783 1.539 . S
C781 C777 1.408 . S
C781 C780 1.404 . S
C781 H793 0.930 . S
C782 C778 1.524 . S
C782 H794 0.956 . S
C782 H795 0.961 . S
C782 H796 0.961 . S
C783 C780 1.539 . S
C783 H797 0.958 . S
C783 H798 0.961 . S
C783 H799 0.960 . S
H784 C768 0.931 . S
H785 C773 0.929 . S
H786 C774 0.960 . S
H787 C774 0.962 . S
H788 C774 0.960 . S
H789 C775 0.961 . S
H790 C775 0.961 . S
H791 C775 0.961 . S
H792 C776 0.931 . S
H793 C781 0.930 . S
H794 C782 0.956 . S
H795 C782 0.961 . S
H796 C782 0.961 . S
H797 C783 0.958 . S
H798 C783 0.961 . S
H799 C783 0.960 . S
C800 C801 1.391 . S
C800 C802 1.394 . S
C800 H816 0.931 . S
C801 C800 1.391 . S
C801 C805 1.376 . S
C802 C800 1.394 . S
C802 C803 1.369 . S
C802 C806 1.531 . S
C803 C802 1.369 . S
C803 C804 1.410 . S
C803 C811 1.503 . S
C804 C803 1.410 . S
C804 C805 1.392 . S
C804 C807 1.511 . S
C805 C801 1.376 . S
C805 C804 1.392 . S
C805 H817 0.929 . S
C806 C802 1.531 . S
C806 H818 0.960 . S
C806 H819 0.962 . S
C806 H820 0.960 . S
C807 C804 1.511 . S
C807 H821 0.961 . S
C807 H822 0.961 . S
C807 H823 0.961 . S
C808 C809 1.370 . S
C808 C810 1.363 . S
C808 H824 0.931 . S
C809 C808 1.370 . S
C809 C813 1.408 . S
C810 C808 1.363 . S
C810 C811 1.370 . S
C810 C814 1.524 . S
C811 C803 1.503 . S
C811 C810 1.370 . S
C811 C812 1.403 . S
C812 C811 1.403 . S
C812 C813 1.404 . S
C812 C815 1.539 . S
C813 C809 1.408 . S
C813 C812 1.404 . S
C813 H825 0.930 . S
C814 C810 1.524 . S
C814 H826 0.956 . S
C814 H827 0.961 . S
C814 H828 0.961 . S
C815 C812 1.539 . S
C815 H829 0.958 . S
C815 H830 0.961 . S
C815 H831 0.960 . S
H816 C800 0.931 . S
H817 C805 0.929 . S
H818 C806 0.960 . S
H819 C806 0.962 . S
H820 C806 0.960 . S
H821 C807 0.961 . S
H822 C807 0.961 . S
H823 C807 0.961 . S
H824 C808 0.931 . S
H825 C813 0.930 . S
H826 C814 0.956 . S
H827 C814 0.961 . S
H828 C814 0.961 . S
H829 C815 0.958 . S
H830 C815 0.961 . S
H831 C815 0.960 . S
C832 C833 1.391 . S
C832 C834 1.394 . S
C832 H848 0.931 . S
C833 C832 1.391 . S
C833 C837 1.376 . S
C834 C832 1.394 . S
C834 C835 1.369 . S
C834 C838 1.531 . S
C835 C834 1.369 . S
C835 C836 1.410 . S
C835 C843 1.503 . S
C836 C835 1.410 . S
C836 C837 1.392 . S
C836 C839 1.511 . S
C837 C833 1.376 . S
C837 C836 1.392 . S
C837 H849 0.929 . S
C838 C834 1.531 . S
C838 H850 0.960 . S
C838 H851 0.962 . S
C838 H852 0.960 . S
C839 C836 1.511 . S
C839 H853 0.961 . S
C839 H854 0.961 . S
C839 H855 0.961 . S
C840 C841 1.370 . S
C840 C842 1.363 . S
C840 H856 0.931 . S
C841 C840 1.370 . S
C841 C845 1.408 . S
C842 C840 1.363 . S
C842 C843 1.370 . S
C842 C846 1.524 . S
C843 C835 1.503 . S
C843 C842 1.370 . S
C843 C844 1.403 . S
C844 C843 1.403 . S
C844 C845 1.404 . S
C844 C847 1.539 . S
C845 C841 1.408 . S
C845 C844 1.404 . S
C845 H857 0.930 . S
C846 C842 1.524 . S
C846 H858 0.956 . S
C846 H859 0.961 . S
C846 H860 0.961 . S
C847 C844 1.539 . S
C847 H861 0.958 . S
C847 H862 0.961 . S
C847 H863 0.960 . S
H848 C832 0.931 . S
H849 C837 0.929 . S
H850 C838 0.960 . S
H851 C838 0.962 . S
H852 C838 0.960 . S
H853 C839 0.961 . S
H854 C839 0.961 . S
H855 C839 0.961 . S
H856 C840 0.931 . S
H857 C845 0.930 . S
H858 C846 0.956 . S
H859 C846 0.961 . S
H860 C846 0.961 . S
H861 C847 0.958 . S
H862 C847 0.961 . S
H863 C847 0.960 . S
C864 C865 1.391 . S
C864 C866 1.394 . S
C864 H880 0.931 . S
C865 C864 1.391 . S
C865 C869 1.376 . S
C866 C864 1.394 . S
C866 C867 1.369 . S
C866 C870 1.531 . S
C867 C866 1.369 . S
C867 C868 1.410 . S
C867 C875 1.503 . S
C868 C867 1.410 . S
C868 C869 1.392 . S
C868 C871 1.511 . S
C869 C865 1.376 . S
C869 C868 1.392 . S
C869 H881 0.929 . S
C870 C866 1.531 . S
C870 H882 0.960 . S
C870 H883 0.962 . S
C870 H884 0.960 . S
C871 C868 1.511 . S
C871 H885 0.961 . S
C871 H886 0.961 . S
C871 H887 0.961 . S
C872 C873 1.370 . S
C872 C874 1.363 . S
C872 H888 0.931 . S
C873 C872 1.370 . S
C873 C877 1.408 . S
C874 C872 1.363 . S
C874 C875 1.370 . S
C874 C878 1.524 . S
C875 C867 1.503 . S
C875 C874 1.370 . S
C875 C876 1.403 . S
C876 C875 1.403 . S
C876 C877 1.404 . S
C876 C879 1.539 . S
C877 C873 1.408 . S
C877 C876 1.404 . S
C877 H889 0.930 . S
C878 C874 1.524 . S
C878 H890 0.956 . S
C878 H891 0.961 . S
C878 H892 0.961 . S
C879 C876 1.539 . S
C879 H893 0.958 . S
C879 H894 0.961 . S
C879 H895 0.960 . S
H880 C864 0.931 . S
H881 C869 0.929 . S
H882 C870 0.960 . S
H883 C870 0.962 . S
H884 C870 0.960 . S
H885 C871 0.961 . S
H886 C871 0.961 . S
H887 C871 0.961 . S
H888 C872 0.931 . S
H889 C877 0.930 . S
H890 C878 0.956 . S
H891 C878 0.961 . S
H892 C878 0.961 . S
H893 C879 0.958 . S
H894 C879 0.961 . S
H895 C879 0.960 . S
C896 C897 1.391 . S
C896 C898 1.394 . S
C896 H912 0.931 . S
C897 C896 1.391 . S
C897 C901 1.376 . S
C898 C896 1.394 . S
C898 C899 1.369 . S
C898 C902 1.531 . S
C899 C898 1.369 . S
C899 C900 1.410 . S
C899 C907 1.503 . S
C900 C899 1.410 . S
C900 C901 1.392 . S
C900 C903 1.511 . S
C901 C897 1.376 . S
C901 C900 1.392 . S
C901 H913 0.929 . S
C902 C898 1.531 . S
C902 H914 0.960 . S
C902 H915 0.962 . S
C902 H916 0.960 . S
C903 C900 1.511 . S
C903 H917 0.961 1_556 S
C903 H918 0.961 1_556 S
C903 H919 0.961 1_556 S
C904 C905 1.370 . S
C904 C906 1.363 . S
C904 H920 0.931 . S
C905 C904 1.370 . S
C905 C909 1.408 . S
C906 C904 1.363 . S
C906 C907 1.370 . S
C906 C910 1.524 . S
C907 C899 1.503 . S
C907 C906 1.370 . S
C907 C908 1.403 . S
C908 C907 1.403 . S
C908 C909 1.404 . S
C908 C911 1.539 . S
C909 C905 1.408 . S
C909 C908 1.404 . S
C909 H921 0.930 . S
C910 C906 1.524 . S
C910 H922 0.956 . S
C910 H923 0.961 . S
C910 H924 0.961 . S
C911 C908 1.539 . S
C911 H925 0.958 . S
C911 H926 0.961 . S
C911 H927 0.960 . S
H912 C896 0.931 . S
H913 C901 0.929 . S
H914 C902 0.960 . S
H915 C902 0.962 . S
H916 C902 0.960 . S
H917 C903 0.961 1_554 S
H918 C903 0.961 1_554 S
H919 C903 0.961 1_554 S
H920 C904 0.931 . S
H921 C909 0.930 . S
H922 C910 0.956 . S
H923 C910 0.961 . S
H924 C910 0.961 . S
H925 C911 0.958 . S
H926 C911 0.961 . S
H927 C911 0.960 . S
C928 C929 1.391 . S
C928 C930 1.394 . S
C928 H944 0.931 . S
C929 C928 1.391 . S
C929 C933 1.376 . S
C930 C928 1.394 . S
C930 C931 1.369 . S
C930 C934 1.531 . S
C931 C930 1.369 . S
C931 C932 1.410 . S
C931 C939 1.503 . S
C932 C931 1.410 . S
C932 C933 1.392 . S
C932 C935 1.511 . S
C933 C929 1.376 . S
C933 C932 1.392 . S
C933 H945 0.929 . S
C934 C930 1.531 . S
C934 H946 0.960 . S
C934 H947 0.962 . S
C934 H948 0.960 . S
C935 C932 1.511 . S
C935 H949 0.961 . S
C935 H950 0.961 . S
C935 H951 0.961 . S
C936 C937 1.370 . S
C936 C938 1.363 . S
C936 H952 0.931 . S
C937 C936 1.370 . S
C937 C941 1.408 . S
C938 C936 1.363 . S
C938 C939 1.370 . S
C938 C942 1.524 . S
C939 C931 1.503 . S
C939 C938 1.370 . S
C939 C940 1.403 . S
C940 C939 1.403 . S
C940 C941 1.404 . S
C940 C943 1.539 . S
C941 C937 1.408 . S
C941 C940 1.404 . S
C941 H953 0.930 . S
C942 C938 1.524 . S
C942 H954 0.956 . S
C942 H955 0.961 . S
C942 H956 0.961 . S
C943 C940 1.539 . S
C943 H957 0.958 . S
C943 H958 0.961 . S
C943 H959 0.960 . S
H944 C928 0.931 . S
H945 C933 0.929 . S
H946 C934 0.960 . S
H947 C934 0.962 . S
H948 C934 0.960 . S
H949 C935 0.961 . S
H950 C935 0.961 . S
H951 C935 0.961 . S
H952 C936 0.931 . S
H953 C941 0.930 . S
H954 C942 0.956 . S
H955 C942 0.961 . S
H956 C942 0.961 . S
H957 C943 0.958 . S
H958 C943 0.961 . S
H959 C943 0.960 . S
C960 C961 1.391 . S
C960 C962 1.394 . S
C960 H976 0.931 . S
C961 C960 1.391 . S
C961 C965 1.376 . S
C962 C960 1.394 . S
C962 C963 1.369 . S
C962 C966 1.531 1_565 S
C963 C962 1.369 . S
C963 C964 1.410 . S
C963 C971 1.503 1_565 S
C964 C963 1.410 . S
C964 C965 1.392 . S
C964 C967 1.511 . S
C965 C961 1.376 . S
C965 C964 1.392 . S
C965 H977 0.929 . S
C966 C962 1.531 1_545 S
C966 H978 0.960 . S
C966 H979 0.962 . S
C966 H980 0.960 . S
C967 C964 1.511 . S
C967 H981 0.961 . S
C967 H982 0.961 . S
C967 H983 0.961 . S
C968 C969 1.370 . S
C968 C970 1.363 . S
C968 H984 0.931 . S
C969 C968 1.370 . S
C969 C973 1.408 . S
C970 C968 1.363 . S
C970 C971 1.370 1_556 S
C970 C974 1.524 1_545 S
C971 C963 1.503 1_545 S
C971 C970 1.370 1_554 S
C971 C972 1.403 . S
C972 C971 1.403 . S
C972 C973 1.404 1_554 S
C972 C975 1.539 . S
C973 C969 1.408 . S
C973 C972 1.404 1_556 S
C973 H985 0.930 . S
C974 C970 1.524 1_565 S
C974 H986 0.956 1_556 S
C974 H987 0.961 . S
C974 H988 0.961 . S
C975 C972 1.539 . S
C975 H989 0.958 . S
C975 H990 0.961 . S
C975 H991 0.960 . S
H976 C960 0.931 . S
H977 C965 0.929 . S
H978 C966 0.960 . S
H979 C966 0.962 . S
H980 C966 0.960 . S
H981 C967 0.961 . S
H982 C967 0.961 . S
H983 C967 0.961 . S
H984 C968 0.931 . S
H985 C973 0.930 . S
H986 C974 0.956 1_554 S
H987 C974 0.961 . S
H988 C974 0.961 . S
H989 C975 0.958 . S
H990 C975 0.961 . S
H991 C975 0.960 . S
C992 C993 1.391 . S
C992 C994 1.394 . S
C992 H1008 0.931 . S
C993 C992 1.391 . S
C993 C997 1.376 . S
C994 C992 1.394 . S
C994 C995 1.369 . S
C994 C998 1.531 . S
C995 C994 1.369 . S
C995 C996 1.410 . S
C995 C1003 1.503 . S
C996 C995 1.410 . S
C996 C997 1.392 . S
C996 C999 1.511 . S
C997 C993 1.376 . S
C997 C996 1.392 . S
C997 H1009 0.929 . S
C998 C994 1.531 . S
C998 H1010 0.960 . S
C998 H1011 0.962 . S
C998 H1012 0.960 . S
C999 C996 1.511 . S
C999 H1013 0.961 . S
C999 H1014 0.961 . S
C999 H1015 0.961 . S
C1000 C1001 1.370 . S
C1000 C1002 1.363 . S
C1000 H1016 0.931 . S
C1001 C1000 1.370 . S
C1001 C1005 1.408 . S
C1002 C1000 1.363 . S
C1002 C1003 1.370 . S
C1002 C1006 1.524 . S
C1003 C995 1.503 . S
C1003 C1002 1.370 . S
C1003 C1004 1.403 . S
C1004 C1003 1.403 . S
C1004 C1005 1.404 . S
C1004 C1007 1.539 . S
C1005 C1001 1.408 . S
C1005 C1004 1.404 . S
C1005 H1017 0.930 . S
C1006 C1002 1.524 . S
C1006 H1018 0.956 . S
C1006 H1019 0.961 . S
C1006 H1020 0.961 . S
C1007 C1004 1.539 . S
C1007 H1021 0.958 . S
C1007 H1022 0.961 . S
C1007 H1023 0.960 . S
H1008 C992 0.931 . S
H1009 C997 0.929 . S
H1010 C998 0.960 . S
H1011 C998 0.962 . S
H1012 C998 0.960 . S
H1013 C999 0.961 . S
H1014 C999 0.961 . S
H1015 C999 0.961 . S
H1016 C1000 0.931 . S
H1017 C1005 0.930 . S
H1018 C1006 0.956 . S
H1019 C1006 0.961 . S
H1020 C1006 0.961 . S
H1021 C1007 0.958 . S
H1022 C1007 0.961 . S
H1023 C1007 0.960 . S
C1024 C1025 1.391 . S
C1024 C1026 1.394 . S
C1024 H1040 0.931 . S
C1025 C1024 1.391 . S
C1025 C1029 1.376 . S
C1026 C1024 1.394 . S
C1026 C1027 1.369 . S
C1026 C1030 1.531 . S
C1027 C1026 1.369 . S
C1027 C1028 1.410 . S
C1027 C1035 1.503 1_545 S
C1028 C1027 1.410 . S
C1028 C1029 1.392 . S
C1028 C1031 1.511 1_545 S
C1029 C1025 1.376 . S
C1029 C1028 1.392 . S
C1029 H1041 0.929 . S
C1030 C1026 1.531 . S
C1030 H1042 0.960 . S
C1030 H1043 0.962 . S
C1030 H1044 0.960 . S
C1031 C1028 1.511 1_565 S
C1031 H1045 0.961 . S
C1031 H1046 0.961 . S
C1031 H1047 0.961 . S
C1032 C1033 1.370 . S
C1032 C1034 1.386 . S
C1032 H1048 0.931 . S
C1033 C1032 1.370 . S
C1033 C1037 1.408 . S
C1034 C1032 1.386 . S
C1034 C1035 1.386 . S
C1034 C1038 1.486 1_565 S
C1035 C1027 1.503 1_565 S
C1035 C1034 1.386 . S
C1035 C1036 1.403 . S
C1036 C1035 1.403 . S
C1036 C1037 1.404 . S
C1036 C1039 1.539 . S
C1037 C1033 1.408 . S
C1037 C1036 1.404 . S
C1037 H1049 0.930 . S
C1038 C1034 1.486 1_545 S
C1038 H1050 0.956 . S
C1038 H1051 0.961 . S
C1038 H1052 0.961 . S
C1039 C1036 1.539 . S
C1039 H1053 0.958 . S
C1039 H1054 0.961 . S
C1039 H1055 0.960 . S
H1040 C1024 0.931 . S
H1041 C1029 0.929 . S
H1042 C1030 0.960 . S
H1043 C1030 0.962 . S
H1044 C1030 0.960 . S
H1045 C1031 0.961 . S
H1046 C1031 0.961 . S
H1047 C1031 0.961 . S
H1048 C1032 0.931 . S
H1049 C1037 0.930 . S
H1050 C1038 0.956 . S
H1051 C1038 0.961 . S
H1052 C1038 0.961 . S
H1053 C1039 0.958 . S
H1054 C1039 0.961 . S
H1055 C1039 0.960 . S
C1056 C1057 1.391 . S
C1056 C1058 1.394 . S
C1056 H1072 0.931 . S
C1057 C1056 1.391 . S
C1057 C1061 1.376 . S
C1058 C1056 1.394 . S
C1058 C1059 1.369 . S
C1058 C1062 1.531 . S
C1059 C1058 1.369 . S
C1059 C1060 1.410 . S
C1059 C1067 1.503 . S
C1060 C1059 1.410 . S
C1060 C1061 1.392 . S
C1060 C1063 1.511 . S
C1061 C1057 1.376 . S
C1061 C1060 1.392 . S
C1061 H1073 0.929 . S
C1062 C1058 1.531 . S
C1062 H1074 0.960 . S
C1062 H1075 0.962 . S
C1062 H1076 0.960 . S
C1063 C1060 1.511 . S
C1063 H1077 0.961 . S
C1063 H1078 0.961 . S
C1063 H1079 0.961 . S
C1064 C1065 1.370 . S
C1064 C1066 1.363 . S
C1064 H1080 0.931 . S
C1065 C1064 1.370 . S
C1065 C1069 1.408 . S
C1066 C1064 1.363 . S
C1066 C1067 1.370 . S
C1066 C1070 1.524 . S
C1067 C1059 1.503 . S
C1067 C1066 1.370 . S
C1067 C1068 1.403 . S
C1068 C1067 1.403 . S
C1068 C1069 1.404 . S
C1068 C1071 1.539 . S
C1069 C1065 1.408 . S
C1069 C1068 1.404 . S
C1069 H1081 0.930 . S
C1070 C1066 1.524 . S
C1070 H1082 0.956 . S
C1070 H1083 0.961 . S
C1070 H1084 0.961 . S
C1071 C1068 1.539 . S
C1071 H1085 0.958 . S
C1071 H1086 0.961 . S
C1071 H1087 0.960 . S
H1072 C1056 0.931 . S
H1073 C1061 0.929 . S
H1074 C1062 0.960 . S
H1075 C1062 0.962 . S
H1076 C1062 0.960 . S
H1077 C1063 0.961 . S
H1078 C1063 0.961 . S
H1079 C1063 0.961 . S
H1080 C1064 0.931 . S
H1081 C1069 0.930 . S
H1082 C1070 0.956 . S
H1083 C1070 0.961 . S
H1084 C1070 0.961 . S
H1085 C1071 0.958 . S
H1086 C1071 0.961 . S
H1087 C1071 0.960 . S
C1088 C1089 1.391 . S
C1088 C1090 1.394 . S
C1088 H1104 0.931 . S
C1089 C1088 1.391 . S
C1089 C1093 1.376 . S
C1090 C1088 1.394 . S
C1090 C1091 1.369 1_556 S
C1090 C1094 1.531 1_545 S
C1091 C1090 1.369 1_554 S
C1091 C1092 1.410 . S
C1091 C1099 1.503 1_545 S
C1092 C1091 1.410 . S
C1092 C1093 1.392 1_554 S
C1092 C1095 1.511 . S
C1093 C1089 1.376 . S
C1093 C1092 1.392 1_556 S
C1093 H1105 0.929 . S
C1094 C1090 1.531 1_565 S
C1094 H1106 0.960 . S
C1094 H1107 0.962 . S
C1094 H1108 0.960 . S
C1095 C1092 1.511 . S
C1095 H1109 0.961 . S
C1095 H1110 0.961 . S
C1095 H1111 0.961 . S
C1096 C1097 1.370 . S
C1096 C1098 1.363 . S
C1096 H1112 0.931 . S
C1097 C1096 1.370 . S
C1097 C1101 1.408 . S
C1098 C1096 1.363 . S
C1098 C1099 1.370 . S
C1098 C1102 1.524 1_565 S
C1099 C1091 1.503 1_565 S
C1099 C1098 1.370 . S
C1099 C1100 1.403 . S
C1100 C1099 1.403 . S
C1100 C1101 1.404 . S
C1100 C1103 1.539 . S
C1101 C1097 1.408 . S
C1101 C1100 1.404 . S
C1101 H1113 0.930 . S
C1102 C1098 1.524 1_545 S
C1102 H1114 0.956 . S
C1102 H1115 0.961 . S
C1102 H1116 0.961 . S
C1103 C1100 1.539 . S
C1103 H1117 0.958 1_554 S
C1103 H1118 0.961 . S
C1103 H1119 0.960 1_554 S
H1104 C1088 0.931 . S
H1105 C1093 0.929 . S
H1106 C1094 0.960 . S
H1107 C1094 0.962 . S
H1108 C1094 0.960 . S
H1109 C1095 0.961 . S
H1110 C1095 0.961 . S
H1111 C1095 0.961 . S
H1112 C1096 0.931 . S
H1113 C1101 0.930 . S
H1114 C1102 0.956 . S
H1115 C1102 0.961 . S
H1116 C1102 0.961 . S
H1117 C1103 0.958 1_556 S
H1118 C1103 0.961 . S
H1119 C1103 0.960 1_556 S
C1120 C1121 1.391 . S
C1120 C1122 1.394 . S
C1120 H1136 0.931 . S
C1121 C1120 1.391 . S
C1121 C1125 1.376 . S
C1122 C1120 1.394 . S
C1122 C1123 1.369 . S
C1122 C1126 1.531 . S
C1123 C1122 1.369 . S
C1123 C1124 1.410 . S
C1123 C1131 1.503 . S
C1124 C1123 1.410 . S
C1124 C1125 1.392 . S
C1124 C1127 1.511 . S
C1125 C1121 1.376 . S
C1125 C1124 1.392 . S
C1125 H1137 0.929 . S
C1126 C1122 1.531 . S
C1126 H1138 0.960 . S
C1126 H1139 0.962 . S
C1126 H1140 0.960 . S
C1127 C1124 1.511 . S
C1127 H1141 0.961 . S
C1127 H1142 0.961 . S
C1127 H1143 0.961 . S
C1128 C1129 1.370 . S
C1128 C1130 1.363 . S
C1128 H1144 0.931 . S
C1129 C1128 1.370 . S
C1129 C1133 1.408 . S
C1130 C1128 1.363 . S
C1130 C1131 1.370 . S
C1130 C1134 1.524 . S
C1131 C1123 1.503 . S
C1131 C1130 1.370 . S
C1131 C1132 1.403 . S
C1132 C1131 1.403 . S
C1132 C1133 1.404 . S
C1132 C1135 1.539 . S
C1133 C1129 1.408 . S
C1133 C1132 1.404 . S
C1133 H1145 0.930 . S
C1134 C1130 1.524 . S
C1134 H1146 0.956 . S
C1134 H1147 0.961 . S
C1134 H1148 0.961 . S
C1135 C1132 1.539 . S
C1135 H1149 0.958 . S
C1135 H1150 0.961 . S
C1135 H1151 0.960 . S
H1136 C1120 0.931 . S
H1137 C1125 0.929 . S
H1138 C1126 0.960 . S
H1139 C1126 0.962 . S
H1140 C1126 0.960 . S
H1141 C1127 0.961 . S
H1142 C1127 0.961 . S
H1143 C1127 0.961 . S
H1144 C1128 0.931 . S
H1145 C1133 0.930 . S
H1146 C1134 0.956 . S
H1147 C1134 0.961 . S
H1148 C1134 0.961 . S
H1149 C1135 0.958 . S
H1150 C1135 0.961 . S
H1151 C1135 0.960 . S
C1152 C1153 1.391 . S
C1152 C1154 1.387 1_545 S
C1152 H1168 0.931 . S
C1153 C1152 1.391 . S
C1153 C1157 1.376 . S
C1154 C1152 1.387 1_565 S
C1154 C1155 1.366 1_565 S
C1154 C1158 1.540 . S
C1155 C1154 1.366 1_545 S
C1155 C1156 1.410 . S
C1155 C1163 1.503 1_545 S
C1156 C1155 1.410 . S
C1156 C1157 1.392 . S
C1156 C1159 1.511 . S
C1157 C1153 1.376 . S
C1157 C1156 1.392 . S
C1157 H1169 0.929 . S
C1158 C1154 1.540 . S
C1158 H1170 0.960 . S
C1158 H1171 0.962 . S
C1158 H1172 0.960 . S
C1159 C1156 1.511 . S
C1159 H1173 0.961 . S
C1159 H1174 0.961 . S
C1159 H1175 0.961 . S
C1160 C1161 1.370 . S
C1160 C1162 1.363 . S
C1160 H1176 0.931 . S
C1161 C1160 1.370 . S
C1161 C1165 1.408 . S
C1162 C1160 1.363 . S
C1162 C1163 1.370 . S
C1162 C1166 1.524 1_565 S
C1163 C1155 1.503 1_565 S
C1163 C1162 1.370 . S
C1163 C1164 1.403 . S
C1164 C1163 1.403 . S
C1164 C1165 1.404 . S
C1164 C1167 1.539 . S
C1165 C1161 1.408 . S
C1165 C1164 1.404 . S
C1165 H1177 0.930 . S
C1166 C1162 1.524 1_545 S
C1166 H1178 0.956 . S
C1166 H1179 0.961 . S
C1166 H1180 0.961 . S
C1167 C1164 1.539 . S
C1167 H1181 0.958 . S
C1167 H1182 0.961 . S
C1167 H1183 0.960 . S
H1168 C1152 0.931 . S
H1169 C1157 0.929 . S
H1170 C1158 0.960 . S
H1171 C1158 0.962 . S
H1172 C1158 0.960 . S
H1173 C1159 0.961 . S
H1174 C1159 0.961 . S
H1175 C1159 0.961 . S
H1176 C1160 0.931 . S
H1177 C1165 0.930 . S
H1178 C1166 0.956 . S
H1179 C1166 0.961 . S
H1180 C1166 0.961 . S
H1181 C1167 0.958 . S
H1182 C1167 0.961 . S
H1183 C1167 0.960 . S
C1184 C1185 1.391 . S
C1184 C1186 1.394 . S
C1184 H1200 0.931 . S
C1185 C1184 1.391 . S
C1185 C1189 1.376 . S
C1186 C1184 1.394 . S
C1186 C1187 1.369 . S
C1186 C1190 1.531 . S
C1187 C1186 1.369 . S
C1187 C1188 1.410 . S
C1187 C1195 1.503 . S
C1188 C1187 1.410 . S
C1188 C1189 1.392 . S
C1188 C1191 1.511 . S
C1189 C1185 1.376 . S
C1189 C1188 1.392 . S
C1189 H1201 0.929 . S
C1190 C1186 1.531 . S
C1190 H1202 0.960 . S
C1190 H1203 0.962 . S
C1190 H1204 0.960 . S
C1191 C1188 1.511 . S
C1191 H1205 0.961 . S
C1191 H1206 0.961 . S
C1191 H1207 0.961 . S
C1192 C1193 1.370 . S
C1192 C1194 1.363 . S
C1192 H1208 0.931 . S
C1193 C1192 1.370 . S
C1193 C1197 1.408 . S
C1194 C1192 1.363 . S
C1194 C1195 1.370 . S
C1194 C1198 1.524 . S
C1195 C1187 1.503 . S
C1195 C1194 1.370 . S
C1195 C1196 1.403 . S
C1196 C1195 1.403 . S
C1196 C1197 1.404 . S
C1196 C1199 1.539 . S
C1197 C1193 1.408 . S
C1197 C1196 1.404 . S
C1197 H1209 0.930 . S
C1198 C1194 1.524 . S
C1198 H1210 0.956 . S
C1198 H1211 0.961 . S
C1198 H1212 0.961 . S
C1199 C1196 1.539 . S
C1199 H1213 0.958 . S
C1199 H1214 0.961 . S
C1199 H1215 0.960 . S
H1200 C1184 0.931 . S
H1201 C1189 0.929 . S
H1202 C1190 0.960 . S
H1203 C1190 0.962 . S
H1204 C1190 0.960 . S
H1205 C1191 0.961 . S
H1206 C1191 0.961 . S
H1207 C1191 0.961 . S
H1208 C1192 0.931 . S
H1209 C1197 0.930 . S
H1210 C1198 0.956 . S
H1211 C1198 0.961 . S
H1212 C1198 0.961 . S
H1213 C1199 0.958 . S
H1214 C1199 0.961 . S
H1215 C1199 0.960 . S
C1216 C1217 1.391 . S
C1216 C1218 1.394 . S
C1216 H1232 0.931 . S
C1217 C1216 1.391 . S
C1217 C1221 1.376 . S
C1218 C1216 1.394 . S
C1218 C1219 1.369 . S
C1218 C1222 1.531 . S
C1219 C1218 1.369 . S
C1219 C1220 1.410 . S
C1219 C1227 1.503 . S
C1220 C1219 1.410 . S
C1220 C1221 1.392 . S
C1220 C1223 1.511 . S
C1221 C1217 1.376 . S
C1221 C1220 1.392 . S
C1221 H1233 0.929 . S
C1222 C1218 1.531 . S
C1222 H1234 0.960 . S
C1222 H1235 0.962 . S
C1222 H1236 0.960 . S
C1223 C1220 1.511 . S
C1223 H1237 0.961 . S
C1223 H1238 0.961 . S
C1223 H1239 0.961 . S
C1224 C1225 1.370 . S
C1224 C1226 1.363 . S
C1224 H1240 0.931 . S
C1225 C1224 1.370 . S
C1225 C1229 1.408 . S
C1226 C1224 1.363 . S
C1226 C1227 1.370 . S
C1226 C1230 1.524 . S
C1227 C1219 1.503 . S
C1227 C1226 1.370 . S
C1227 C1228 1.403 . S
C1228 C1227 1.403 . S
C1228 C1229 1.404 . S
C1228 C1231 1.539 . S
C1229 C1225 1.408 . S
C1229 C1228 1.404 . S
C1229 H1241 0.930 . S
C1230 C1226 1.524 . S
C1230 H1242 0.956 . S
C1230 H1243 0.961 . S
C1230 H1244 0.961 . S
C1231 C1228 1.539 . S
C1231 H1245 0.958 . S
C1231 H1246 0.961 . S
C1231 H1247 0.960 . S
H1232 C1216 0.931 . S
H1233 C1221 0.929 . S
H1234 C1222 0.960 . S
H1235 C1222 0.962 . S
H1236 C1222 0.960 . S
H1237 C1223 0.961 . S
H1238 C1223 0.961 . S
H1239 C1223 0.961 . S
H1240 C1224 0.931 . S
H1241 C1229 0.930 . S
H1242 C1230 0.956 . S
H1243 C1230 0.961 . S
H1244 C1230 0.961 . S
H1245 C1231 0.958 . S
H1246 C1231 0.961 . S
H1247 C1231 0.960 . S
C1248 C1249 1.391 . S
C1248 C1250 1.394 . S
C1248 H1264 0.931 . S
C1249 C1248 1.391 . S
C1249 C1253 1.376 . S
C1250 C1248 1.394 . S
C1250 C1251 1.369 . S
C1250 C1254 1.531 . S
C1251 C1250 1.369 . S
C1251 C1252 1.410 . S
C1251 C1259 1.503 . S
C1252 C1251 1.410 . S
C1252 C1253 1.392 . S
C1252 C1255 1.511 . S
C1253 C1249 1.376 . S
C1253 C1252 1.392 . S
C1253 H1265 0.929 . S
C1254 C1250 1.531 . S
C1254 H1266 0.960 . S
C1254 H1267 0.962 . S
C1254 H1268 0.960 . S
C1255 C1252 1.511 . S
C1255 H1269 0.961 . S
C1255 H1270 0.961 . S
C1255 H1271 0.961 . S
C1256 C1257 1.370 . S
C1256 C1258 1.363 . S
C1256 H1272 0.931 . S
C1257 C1256 1.370 . S
C1257 C1261 1.408 . S
C1258 C1256 1.363 . S
C1258 C1259 1.370 . S
C1258 C1262 1.524 . S
C1259 C1251 1.503 . S
C1259 C1258 1.370 . S
C1259 C1260 1.403 . S
C1260 C1259 1.403 . S
C1260 C1261 1.404 . S
C1260 C1263 1.539 . S
C1261 C1257 1.408 . S
C1261 C1260 1.404 . S
C1261 H1273 0.930 . S
C1262 C1258 1.524 . S
C1262 H1274 0.956 . S
C1262 H1275 0.961 . S
C1262 H1276 0.961 . S
C1263 C1260 1.539 . S
C1263 H1277 0.958 . S
C1263 H1278 0.961 . S
C1263 H1279 0.960 . S
H1264 C1248 0.931 . S
H1265 C1253 0.929 . S
H1266 C1254 0.960 . S
H1267 C1254 0.962 . S
H1268 C1254 0.960 . S
H1269 C1255 0.961 . S
H1270 C1255 0.961 . S
H1271 C1255 0.961 . S
H1272 C1256 0.931 . S
H1273 C1261 0.930 . S
H1274 C1262 0.956 . S
H1275 C1262 0.961 . S
H1276 C1262 0.961 . S
H1277 C1263 0.958 . S
H1278 C1263 0.961 . S
H1279 C1263 0.960 . S
C1280 C1281 1.391 . S
C1280 C1282 1.394 . S
C1280 H1296 0.931 . S
C1281 C1280 1.391 . S
C1281 C1285 1.376 . S
C1282 C1280 1.394 . S
C1282 C1283 1.369 . S
C1282 C1286 1.531 . S
C1283 C1282 1.369 . S
C1283 C1284 1.410 . S
C1283 C1291 1.503 . S
C1284 C1283 1.410 . S
C1284 C1285 1.392 . S
C1284 C1287 1.511 . S
C1285 C1281 1.376 . S
C1285 C1284 1.392 . S
C1285 H1297 0.929 . S
C1286 C1282 1.531 . S
C1286 H1298 0.960 . S
C1286 H1299 0.962 . S
C1286 H1300 0.960 . S
C1287 C1284 1.511 . S
C1287 H1301 0.961 . S
C1287 H1302 0.961 . S
C1287 H1303 0.961 . S
C1288 C1289 1.370 . S
C1288 C1290 1.363 . S
C1288 H1304 0.931 . S
C1289 C1288 1.370 . S
C1289 C1293 1.408 . S
C1290 C1288 1.363 . S
C1290 C1291 1.370 1_556 S
C1290 C1294 1.524 . S
C1291 C1283 1.503 . S
C1291 C1290 1.370 1_554 S
C1291 C1292 1.403 . S
C1292 C1291 1.403 . S
C1292 C1293 1.404 1_554 S
C1292 C1295 1.539 . S
C1293 C1289 1.408 . S
C1293 C1292 1.404 1_556 S
C1293 H1305 0.930 . S
C1294 C1290 1.524 . S
C1294 H1306 0.956 . S
C1294 H1307 0.961 . S
C1294 H1308 0.961 . S
C1295 C1292 1.539 . S
C1295 H1309 0.958 . S
C1295 H1310 0.961 . S
C1295 H1311 0.960 . S
H1296 C1280 0.931 . S
H1297 C1285 0.929 . S
H1298 C1286 0.960 . S
H1299 C1286 0.962 . S
H1300 C1286 0.960 . S
H1301 C1287 0.961 . S
H1302 C1287 0.961 . S
H1303 C1287 0.961 . S
H1304 C1288 0.931 . S
H1305 C1293 0.930 . S
H1306 C1294 0.956 . S
H1307 C1294 0.961 . S
H1308 C1294 0.961 . S
H1309 C1295 0.958 . S
H1310 C1295 0.961 . S
H1311 C1295 0.960 . S
C1312 C1313 1.391 . S
C1312 C1314 1.394 . S
C1312 H1328 0.931 . S
C1313 C1312 1.391 . S
C1313 C1317 1.376 . S
C1314 C1312 1.394 . S
C1314 C1315 1.369 . S
C1314 C1318 1.531 . S
C1315 C1314 1.369 . S
C1315 C1316 1.410 . S
C1315 C1323 1.503 . S
C1316 C1315 1.410 . S
C1316 C1317 1.392 . S
C1316 C1319 1.511 . S
C1317 C1313 1.376 . S
C1317 C1316 1.392 . S
C1317 H1329 0.929 . S
C1318 C1314 1.531 . S
C1318 H1330 0.960 . S
C1318 H1331 0.962 . S
C1318 H1332 0.960 . S
C1319 C1316 1.511 . S
C1319 H1333 0.961 . S
C1319 H1334 0.961 . S
C1319 H1335 0.961 . S
C1320 C1321 1.370 . S
C1320 C1322 1.363 . S
C1320 H1336 0.931 . S
C1321 C1320 1.370 . S
C1321 C1325 1.408 . S
C1322 C1320 1.363 . S
C1322 C1323 1.370 . S
C1322 C1326 1.524 . S
C1323 C1315 1.503 . S
C1323 C1322 1.370 . S
C1323 C1324 1.403 . S
C1324 C1323 1.403 . S
C1324 C1325 1.404 . S
C1324 C1327 1.539 . S
C1325 C1321 1.408 . S
C1325 C1324 1.404 . S
C1325 H1337 0.930 . S
C1326 C1322 1.524 . S
C1326 H1338 0.956 . S
C1326 H1339 0.961 . S
C1326 H1340 0.961 . S
C1327 C1324 1.539 . S
C1327 H1341 0.958 . S
C1327 H1342 0.961 . S
C1327 H1343 0.960 . S
H1328 C1312 0.931 . S
H1329 C1317 0.929 . S
H1330 C1318 0.960 . S
H1331 C1318 0.962 . S
H1332 C1318 0.960 . S
H1333 C1319 0.961 . S
H1334 C1319 0.961 . S
H1335 C1319 0.961 . S
H1336 C1320 0.931 . S
H1337 C1325 0.930 . S
H1338 C1326 0.956 . S
H1339 C1326 0.961 . S
H1340 C1326 0.961 . S
H1341 C1327 0.958 . S
H1342 C1327 0.961 . S
H1343 C1327 0.960 . S
C1344 C1345 1.391 . S
C1344 C1346 1.394 . S
C1344 H1360 0.931 . S
C1345 C1344 1.391 . S
C1345 C1349 1.376 . S
C1346 C1344 1.394 . S
C1346 C1347 1.369 . S
C1346 C1350 1.531 . S
C1347 C1346 1.369 . S
C1347 C1348 1.410 . S
C1347 C1355 1.503 . S
C1348 C1347 1.410 . S
C1348 C1349 1.392 . S
C1348 C1351 1.511 . S
C1349 C1345 1.376 . S
C1349 C1348 1.392 . S
C1349 H1361 0.929 . S
C1350 C1346 1.531 . S
C1350 H1362 0.960 . S
C1350 H1363 0.962 . S
C1350 H1364 0.960 . S
C1351 C1348 1.511 . S
C1351 H1365 0.961 . S
C1351 H1366 0.961 . S
C1351 H1367 0.961 . S
C1352 C1353 1.370 . S
C1352 C1354 1.363 . S
C1352 H1368 0.931 . S
C1353 C1352 1.370 . S
C1353 C1357 1.408 . S
C1354 C1352 1.363 . S
C1354 C1355 1.370 . S
C1354 C1358 1.524 . S
C1355 C1347 1.503 . S
C1355 C1354 1.370 . S
C1355 C1356 1.403 . S
C1356 C1355 1.403 . S
C1356 C1357 1.404 . S
C1356 C1359 1.539 . S
C1357 C1353 1.408 . S
C1357 C1356 1.404 . S
C1357 H1369 0.930 . S
C1358 C1354 1.524 . S
C1358 H1370 0.956 . S
C1358 H1371 0.961 . S
C1358 H1372 0.961 . S
C1359 C1356 1.539 . S
C1359 H1373 0.958 . S
C1359 H1374 0.961 . S
C1359 H1375 0.960 . S
H1360 C1344 0.931 . S
H1361 C1349 0.929 . S
H1362 C1350 0.960 . S
H1363 C1350 0.962 . S
H1364 C1350 0.960 . S
H1365 C1351 0.961 . S
H1366 C1351 0.961 . S
H1367 C1351 0.961 . S
H1368 C1352 0.931 . S
H1369 C1357 0.930 . S
H1370 C1358 0.956 . S
H1371 C1358 0.961 . S
H1372 C1358 0.961 . S
H1373 C1359 0.958 . S
H1374 C1359 0.961 . S
H1375 C1359 0.960 . S
C1376 C1377 1.391 . S
C1376 C1378 1.394 . S
C1376 H1392 0.931 . S
C1377 C1376 1.391 . S
C1377 C1381 1.376 . S
C1378 C1376 1.394 . S
C1378 C1379 1.369 . S
C1378 C1382 1.531 . S
C1379 C1378 1.369 . S
C1379 C1380 1.410 . S
C1379 C1387 1.503 . S
C1380 C1379 1.410 . S
C1380 C1381 1.392 . S
C1380 C1383 1.511 . S
C1381 C1377 1.376 . S
C1381 C1380 1.392 . S
C1381 H1393 0.929 . S
C1382 C1378 1.531 . S
C1382 H1394 0.960 . S
C1382 H1395 0.962 . S
C1382 H1396 0.960 . S
C1383 C1380 1.511 . S
C1383 H1397 0.961 . S
C1383 H1398 0.961 . S
C1383 H1399 0.961 . S
C1384 C1385 1.370 . S
C1384 C1386 1.363 . S
C1384 H1400 0.931 . S
C1385 C1384 1.370 . S
C1385 C1389 1.408 . S
C1386 C1384 1.363 . S
C1386 C1387 1.370 . S
C1386 C1390 1.524 . S
C1387 C1379 1.503 . S
C1387 C1386 1.370 . S
C1387 C1388 1.403 . S
C1388 C1387 1.403 . S
C1388 C1389 1.404 . S
C1388 C1391 1.539 . S
C1389 C1385 1.408 . S
C1389 C1388 1.404 . S
C1389 H1401 0.930 . S
C1390 C1386 1.524 . S
C1390 H1402 0.956 . S
C1390 H1403 0.961 . S
C1390 H1404 0.961 . S
C1391 C1388 1.539 . S
C1391 H1405 0.958 . S
C1391 H1406 0.961 . S
C1391 H1407 0.960 . S
H1392 C1376 0.931 . S
H1393 C1381 0.929 . S
H1394 C1382 0.960 . S
H1395 C1382 0.962 . S
H1396 C1382 0.960 . S
H1397 C1383 0.961 . S
H1398 C1383 0.961 . S
H1399 C1383 0.961 . S
H1400 C1384 0.931 . S
H1401 C1389 0.930 . S
H1402 C1390 0.956 . S
H1403 C1390 0.961 . S
H1404 C1390 0.961 . S
H1405 C1391 0.958 . S
H1406 C1391 0.961 . S
H1407 C1391 0.960 . S
C1408 C1409 1.391 . S
C1408 C1410 1.394 . S
C1408 H1424 0.931 . S
C1409 C1408 1.391 . S
C1409 C1413 1.376 . S
C1410 C1408 1.394 . S
C1410 C1411 1.369 . S
C1410 C1414 1.531 . S
C1411 C1410 1.369 . S
C1411 C1412 1.410 . S
C1411 C1419 1.503 . S
C1412 C1411 1.410 . S
C1412 C1413 1.392 . S
C1412 C1415 1.511 . S
C1413 C1409 1.376 . S
C1413 C1412 1.392 . S
C1413 H1425 0.929 . S
C1414 C1410 1.531 . S
C1414 H1426 0.960 . S
C1414 H1427 0.962 . S
C1414 H1428 0.960 . S
C1415 C1412 1.511 . S
C1415 H1429 0.961 . S
C1415 H1430 0.961 . S
C1415 H1431 0.961 . S
C1416 C1417 1.370 . S
C1416 C1418 1.363 1_556 S
C1416 H1432 0.931 . S
C1417 C1416 1.370 . S
C1417 C1421 1.408 . S
C1418 C1416 1.363 1_554 S
C1418 C1419 1.370 . S
C1418 C1422 1.524 . S
C1419 C1411 1.503 . S
C1419 C1418 1.370 . S
C1419 C1420 1.403 1_554 S
C1420 C1419 1.403 1_556 S
C1420 C1421 1.404 . S
C1420 C1423 1.539 . S
C1421 C1417 1.408 . S
C1421 C1420 1.404 . S
C1421 H1433 0.930 . S
C1422 C1418 1.524 . S
C1422 H1434 0.956 . S
C1422 H1435 0.961 . S
C1422 H1436 0.961 . S
C1423 C1420 1.539 . S
C1423 H1437 0.958 . S
C1423 H1438 0.961 . S
C1423 H1439 0.960 . S
H1424 C1408 0.931 . S
H1425 C1413 0.929 . S
H1426 C1414 0.960 . S
H1427 C1414 0.962 . S
H1428 C1414 0.960 . S
H1429 C1415 0.961 . S
H1430 C1415 0.961 . S
H1431 C1415 0.961 . S
H1432 C1416 0.931 . S
H1433 C1421 0.930 . S
H1434 C1422 0.956 . S
H1435 C1422 0.961 . S
H1436 C1422 0.961 . S
H1437 C1423 0.958 . S
H1438 C1423 0.961 . S
H1439 C1423 0.960 . S
C1440 C1441 1.391 . S
C1440 C1442 1.394 . S
C1440 H1456 0.931 . S
C1441 C1440 1.391 . S
C1441 C1445 1.376 . S
C1442 C1440 1.394 . S
C1442 C1443 1.369 . S
C1442 C1446 1.531 . S
C1443 C1442 1.369 . S
C1443 C1444 1.410 . S
C1443 C1451 1.503 . S
C1444 C1443 1.410 . S
C1444 C1445 1.392 . S
C1444 C1447 1.511 . S
C1445 C1441 1.376 . S
C1445 C1444 1.392 . S
C1445 H1457 0.929 . S
C1446 C1442 1.531 . S
C1446 H1458 0.960 . S
C1446 H1459 0.962 . S
C1446 H1460 0.960 . S
C1447 C1444 1.511 . S
C1447 H1461 0.961 . S
C1447 H1462 0.961 . S
C1447 H1463 0.961 . S
C1448 C1449 1.370 1_556 S
C1448 C1450 1.363 . S
C1448 H1464 0.931 . S
C1449 C1448 1.370 1_554 S
C1449 C1453 1.408 . S
C1450 C1448 1.363 . S
C1450 C1451 1.370 1_556 S
C1450 C1454 1.524 . S
C1451 C1443 1.503 . S
C1451 C1450 1.370 1_554 S
C1451 C1452 1.403 . S
C1452 C1451 1.403 . S
C1452 C1453 1.404 . S
C1452 C1455 1.539 . S
C1453 C1449 1.408 . S
C1453 C1452 1.404 . S
C1453 H1465 0.930 . S
C1454 C1450 1.524 . S
C1454 H1466 0.956 . S
C1454 H1467 0.961 . S
C1454 H1468 0.961 . S
C1455 C1452 1.539 . S
C1455 H1469 0.958 . S
C1455 H1470 0.961 . S
C1455 H1471 0.960 . S
H1456 C1440 0.931 . S
H1457 C1445 0.929 . S
H1458 C1446 0.960 . S
H1459 C1446 0.962 . S
H1460 C1446 0.960 . S
H1461 C1447 0.961 . S
H1462 C1447 0.961 . S
H1463 C1447 0.961 . S
H1464 C1448 0.931 . S
H1465 C1453 0.930 . S
H1466 C1454 0.956 . S
H1467 C1454 0.961 . S
H1468 C1454 0.961 . S
H1469 C1455 0.958 . S
H1470 C1455 0.961 . S
H1471 C1455 0.960 . S
C1472 C1473 1.391 . S
C1472 C1474 1.394 . S
C1472 H1488 0.931 . S
C1473 C1472 1.391 . S
C1473 C1477 1.376 . S
C1474 C1472 1.394 . S
C1474 C1475 1.369 . S
C1474 C1478 1.531 . S
C1475 C1474 1.369 . S
C1475 C1476 1.410 . S
C1475 C1483 1.503 1_455 S
C1476 C1475 1.410 . S
C1476 C1477 1.392 . S
C1476 C1479 1.511 . S
C1477 C1473 1.376 . S
C1477 C1476 1.392 . S
C1477 H1489 0.929 . S
C1478 C1474 1.531 . S
C1478 H1490 0.960 1_455 S
C1478 H1491 0.962 . S
C1478 H1492 0.960 . S
C1479 C1476 1.511 . S
C1479 H1493 0.961 . S
C1479 H1494 0.961 1_455 S
C1479 H1495 0.961 . S
C1480 C1481 1.370 . S
C1480 C1482 1.363 . S
C1480 H1496 0.931 . S
C1481 C1480 1.370 . S
C1481 C1485 1.408 . S
C1482 C1480 1.363 . S
C1482 C1483 1.370 . S
C1482 C1486 1.524 . S
C1483 C1475 1.503 1_655 S
C1483 C1482 1.370 . S
C1483 C1484 1.403 . S
C1484 C1483 1.403 . S
C1484 C1485 1.404 . S
C1484 C1487 1.539 . S
C1485 C1481 1.408 . S
C1485 C1484 1.404 . S
C1485 H1497 0.930 . S
C1486 C1482 1.524 . S
C1486 H1498 0.982 . S
C1486 H1499 0.919 1_655 S
C1486 H1500 0.961 . S
C1487 C1484 1.539 . S
C1487 H1501 0.958 . S
C1487 H1502 0.961 . S
C1487 H1503 0.968 . S
H1488 C1472 0.931 . S
H1489 C1477 0.929 . S
H1490 C1478 0.960 1_655 S
H1491 C1478 0.962 . S
H1492 C1478 0.960 . S
H1493 C1479 0.961 . S
H1494 C1479 0.961 1_655 S
H1495 C1479 0.961 . S
H1496 C1480 0.931 . S
H1497 C1485 0.930 . S
H1498 C1486 0.982 . S
H1499 C1486 0.919 1_455 S
H1500 C1486 0.961 . S
H1501 C1487 0.958 . S
H1502 C1487 0.961 . S
H1503 C1487 0.968 . S
C1504 C1505 1.391 . S
C1504 C1506 1.394 . S
C1504 H1520 0.931 . S
C1505 C1504 1.391 . S
C1505 C1509 1.376 . S
C1506 C1504 1.394 . S
C1506 C1507 1.369 . S
C1506 C1510 1.531 . S
C1507 C1506 1.369 . S
C1507 C1508 1.410 . S
C1507 C1515 1.503 . S
C1508 C1507 1.410 . S
C1508 C1509 1.392 . S
C1508 C1511 1.511 . S
C1509 C1505 1.376 . S
C1509 C1508 1.392 . S
C1509 H1521 0.929 . S
C1510 C1506 1.531 . S
C1510 H1522 0.960 . S
C1510 H1523 0.962 . S
C1510 H1524 0.960 . S
C1511 C1508 1.511 . S
C1511 H1525 0.961 . S
C1511 H1526 0.961 . S
C1511 H1527 0.961 . S
C1512 C1513 1.370 . S
C1512 C1514 1.363 . S
C1512 H1528 0.931 . S
C1513 C1512 1.370 . S
C1513 C1517 1.408 . S
C1514 C1512 1.363 . S
C1514 C1515 1.370 . S
C1514 C1518 1.524 . S
C1515 C1507 1.503 . S
C1515 C1514 1.370 . S
C1515 C1516 1.403 . S
C1516 C1515 1.403 . S
C1516 C1517 1.404 . S
C1516 C1519 1.539 . S
C1517 C1513 1.408 . S
C1517 C1516 1.404 . S
C1517 H1529 0.930 . S
C1518 C1514 1.524 . S
C1518 H1530 0.956 . S
C1518 H1531 0.961 . S
C1518 H1532 0.961 . S
C1519 C1516 1.539 . S
C1519 H1533 0.958 . S
C1519 H1534 0.961 . S
C1519 H1535 0.960 . S
H1520 C1504 0.931 . S
H1521 C1509 0.929 . S
H1522 C1510 0.960 . S
H1523 C1510 0.962 . S
H1524 C1510 0.960 . S
H1525 C1511 0.961 . S
H1526 C1511 0.961 . S
H1527 C1511 0.961 . S
H1528 C1512 0.931 . S
H1529 C1517 0.930 . S
H1530 C1518 0.956 . S
H1531 C1518 0.961 . S
H1532 C1518 0.961 . S
H1533 C1519 0.958 . S
H1534 C1519 0.961 . S
H1535 C1519 0.960 . S
C1536 C1537 1.391 . S
C1536 C1538 1.394 . S
C1536 H1552 0.931 . S
C1537 C1536 1.391 . S
C1537 C1541 1.376 . S
C1538 C1536 1.394 . S
C1538 C1539 1.369 . S
C1538 C1542 1.531 . S
C1539 C1538 1.369 . S
C1539 C1540 1.410 . S
C1539 C1547 1.503 . S
C1540 C1539 1.410 . S
C1540 C1541 1.392 . S
C1540 C1543 1.511 . S
C1541 C1537 1.376 . S
C1541 C1540 1.392 . S
C1541 H1553 0.929 . S
C1542 C1538 1.531 . S
C1542 H1554 0.960 . S
C1542 H1555 0.962 . S
C1542 H1556 0.960 . S
C1543 C1540 1.511 . S
C1543 H1557 0.961 . S
C1543 H1558 0.961 . S
C1543 H1559 0.961 . S
C1544 C1545 1.370 . S
C1544 C1546 1.363 . S
C1544 H1560 0.931 . S
C1545 C1544 1.370 . S
C1545 C1549 1.408 . S
C1546 C1544 1.363 . S
C1546 C1547 1.370 . S
C1546 C1550 1.524 . S
C1547 C1539 1.503 . S
C1547 C1546 1.370 . S
C1547 C1548 1.403 . S
C1548 C1547 1.403 . S
C1548 C1549 1.404 . S
C1548 C1551 1.539 . S
C1549 C1545 1.408 . S
C1549 C1548 1.404 . S
C1549 H1561 0.930 . S
C1550 C1546 1.524 . S
C1550 H1562 0.956 . S
C1550 H1563 0.961 . S
C1550 H1564 0.961 . S
C1551 C1548 1.539 . S
C1551 H1565 0.958 . S
C1551 H1566 0.961 . S
C1551 H1567 0.960 . S
H1552 C1536 0.931 . S
H1553 C1541 0.929 . S
H1554 C1542 0.960 . S
H1555 C1542 0.962 . S
H1556 C1542 0.960 . S
H1557 C1543 0.961 . S
H1558 C1543 0.961 . S
H1559 C1543 0.961 . S
H1560 C1544 0.931 . S
H1561 C1549 0.930 . S
H1562 C1550 0.956 . S
H1563 C1550 0.961 . S
H1564 C1550 0.961 . S
H1565 C1551 0.958 . S
H1566 C1551 0.961 . S
H1567 C1551 0.960 . S
C1568 C1569 1.378 1_556 S
C1568 C1570 1.394 . S
C1568 H1584 0.944 . S
C1569 C1568 1.378 1_554 S
C1569 C1573 1.376 . S
C1570 C1568 1.394 . S
C1570 C1571 1.369 1_556 S
C1570 C1574 1.531 . S
C1571 C1570 1.369 1_554 S
C1571 C1572 1.410 . S
C1571 C1579 1.503 . S
C1572 C1571 1.410 . S
C1572 C1573 1.392 . S
C1572 C1575 1.511 . S
C1573 C1569 1.376 . S
C1573 C1572 1.392 . S
C1573 H1585 0.929 . S
C1574 C1570 1.531 . S
C1574 H1586 0.960 . S
C1574 H1587 0.962 . S
C1574 H1588 0.960 . S
C1575 C1572 1.511 . S
C1575 H1589 0.961 . S
C1575 H1590 0.961 . S
C1575 H1591 0.961 . S
C1576 C1577 1.370 . S
C1576 C1578 1.363 . S
C1576 H1592 0.931 . S
C1577 C1576 1.370 . S
C1577 C1581 1.408 . S
C1578 C1576 1.363 . S
C1578 C1579 1.370 . S
C1578 C1582 1.524 . S
C1579 C1571 1.503 . S
C1579 C1578 1.370 . S
C1579 C1580 1.403 . S
C1580 C1579 1.403 . S
C1580 C1581 1.404 . S
C1580 C1583 1.539 . S
C1581 C1577 1.408 . S
C1581 C1580 1.404 . S
C1581 H1593 0.930 . S
C1582 C1578 1.524 . S
C1582 H1594 0.956 . S
C1582 H1595 0.961 . S
C1582 H1596 0.961 . S
C1583 C1580 1.539 . S
C1583 H1597 0.958 . S
C1583 H1598 0.961 . S
C1583 H1599 0.960 . S
H1584 C1568 0.944 . S
H1585 C1573 0.929 . S
H1586 C1574 0.960 . S
H1587 C1574 0.962 . S
H1588 C1574 0.960 . S
H1589 C1575 0.961 . S
H1590 C1575 0.961 . S
H1591 C1575 0.961 . S
H1592 C1576 0.931 . S
H1593 C1581 0.930 . S
H1594 C1582 0.956 . S
H1595 C1582 0.961 . S
H1596 C1582 0.961 . S
H1597 C1583 0.958 . S
H1598 C1583 0.961 . S
H1599 C1583 0.960 . S
C1600 C1601 1.391 . S
C1600 C1602 1.394 . S
C1600 H1616 0.931 . S
C1601 C1600 1.391 . S
C1601 C1605 1.376 . S
C1602 C1600 1.394 . S
C1602 C1603 1.369 . S
C1602 C1606 1.531 . S
C1603 C1602 1.369 . S
C1603 C1604 1.410 . S
C1603 C1611 1.503 . S
C1604 C1603 1.410 . S
C1604 C1605 1.392 . S
C1604 C1607 1.511 . S
C1605 C1601 1.376 . S
C1605 C1604 1.392 . S
C1605 H1617 0.929 . S
C1606 C1602 1.531 . S
C1606 H1618 0.960 . S
C1606 H1619 0.962 . S
C1606 H1620 0.960 . S
C1607 C1604 1.511 . S
C1607 H1621 0.961 . S
C1607 H1622 0.961 . S
C1607 H1623 0.961 . S
C1608 C1609 1.370 . S
C1608 C1610 1.363 . S
C1608 H1624 0.931 . S
C1609 C1608 1.370 . S
C1609 C1613 1.408 . S
C1610 C1608 1.363 . S
C1610 C1611 1.370 . S
C1610 C1614 1.524 . S
C1611 C1603 1.503 . S
C1611 C1610 1.370 . S
C1611 C1612 1.403 . S
C1612 C1611 1.403 . S
C1612 C1613 1.404 . S
C1612 C1615 1.539 . S
C1613 C1609 1.408 . S
C1613 C1612 1.404 . S
C1613 H1625 0.930 . S
C1614 C1610 1.524 . S
C1614 H1626 0.956 . S
C1614 H1627 0.961 . S
C1614 H1628 0.961 . S
C1615 C1612 1.539 . S
C1615 H1629 0.958 . S
C1615 H1630 0.961 . S
C1615 H1631 0.960 . S
H1616 C1600 0.931 . S
H1617 C1605 0.929 . S
H1618 C1606 0.960 . S
H1619 C1606 0.962 . S
H1620 C1606 0.960 . S
H1621 C1607 0.961 . S
H1622 C1607 0.961 . S
H1623 C1607 0.961 . S
H1624 C1608 0.931 . S
H1625 C1613 0.930 . S
H1626 C1614 0.956 . S
H1627 C1614 0.961 . S
H1628 C1614 0.961 . S
H1629 C1615 0.958 . S
H1630 C1615 0.961 . S
H1631 C1615 0.960 . S
C1632 C1633 1.391 . S
C1632 C1634 1.394 . S
C1632 H1648 0.931 . S
C1633 C1632 1.391 . S
C1633 C1637 1.376 . S
C1634 C1632 1.394 . S
C1634 C1635 1.369 . S
C1634 C1638 1.531 . S
C1635 C1634 1.369 . S
C1635 C1636 1.410 . S
C1635 C1643 1.503 . S
C1636 C1635 1.410 . S
C1636 C1637 1.392 . S
C1636 C1639 1.511 . S
C1637 C1633 1.376 . S
C1637 C1636 1.392 . S
C1637 H1649 0.929 . S
C1638 C1634 1.531 . S
C1638 H1650 0.960 . S
C1638 H1651 0.962 . S
C1638 H1652 0.960 . S
C1639 C1636 1.511 . S
C1639 H1653 0.961 . S
C1639 H1654 0.961 . S
C1639 H1655 0.961 . S
C1640 C1641 1.370 . S
C1640 C1642 1.363 . S
C1640 H1656 0.931 . S
C1641 C1640 1.370 . S
C1641 C1645 1.408 . S
C1642 C1640 1.363 . S
C1642 C1643 1.370 . S
C1642 C1646 1.524 . S
C1643 C1635 1.503 . S
C1643 C1642 1.370 . S
C1643 C1644 1.403 . S
C1644 C1643 1.403 . S
C1644 C1645 1.404 . S
C1644 C1647 1.539 . S
C1645 C1641 1.408 . S
C1645 C1644 1.404 . S
C1645 H1657 0.930 . S
C1646 C1642 1.524 . S
C1646 H1658 0.956 . S
C1646 H1659 0.961 . S
C1646 H1660 0.961 . S
C1647 C1644 1.539 . S
C1647 H1661 0.958 . S
C1647 H1662 0.961 . S
C1647 H1663 0.960 . S
H1648 C1632 0.931 . S
H1649 C1637 0.929 . S
H1650 C1638 0.960 . S
H1651 C1638 0.962 . S
H1652 C1638 0.960 . S
H1653 C1639 0.961 . S
H1654 C1639 0.961 . S
H1655 C1639 0.961 . S
H1656 C1640 0.931 . S
H1657 C1645 0.930 . S
H1658 C1646 0.956 . S
H1659 C1646 0.961 . S
H1660 C1646 0.961 . S
H1661 C1647 0.958 . S
H1662 C1647 0.961 . S
H1663 C1647 0.960 . S
C1664 C1665 1.391 . S
C1664 C1666 1.394 . S
C1664 H1680 0.931 . S
C1665 C1664 1.391 . S
C1665 C1669 1.376 . S
C1666 C1664 1.394 . S
C1666 C1667 1.369 . S
C1666 C1670 1.531 . S
C1667 C1666 1.369 . S
C1667 C1668 1.410 . S
C1667 C1675 1.503 1_655 S
C1668 C1667 1.410 . S
C1668 C1669 1.392 . S
C1668 C1671 1.511 . S
C1669 C1665 1.376 . S
C1669 C1668 1.392 . S
C1669 H1681 0.929 . S
C1670 C1666 1.531 . S
C1670 H1682 0.960 1_655 S
C1670 H1683 0.962 . S
C1670 H1684 0.960 . S
C1671 C1668 1.511 . S
C1671 H1685 0.961 . S
C1671 H1686 0.961 1_655 S
C1671 H1687 0.961 . S
C1672 C1673 1.370 . S
C1672 C1674 1.363 . S
C1672 H1688 0.931 . S
C1673 C1672 1.370 . S
C1673 C1677 1.408 . S
C1674 C1672 1.363 . S
C1674 C1675 1.370 . S
C1674 C1678 1.524 . S
C1675 C1667 1.503 1_455 S
C1675 C1674 1.370 . S
C1675 C1676 1.403 . S
C1676 C1675 1.403 . S
C1676 C1677 1.404 . S
C1676 C1679 1.539 . S
C1677 C1673 1.408 . S
C1677 C1676 1.404 . S
C1677 H1689 0.930 . S
C1678 C1674 1.524 . S
C1678 H1690 0.982 . S
C1678 H1691 0.919 1_455 S
C1678 H1692 0.961 . S
C1679 C1676 1.539 . S
C1679 H1693 0.958 . S
C1679 H1694 0.961 . S
C1679 H1695 0.968 . S
H1680 C1664 0.931 . S
H1681 C1669 0.929 . S
H1682 C1670 0.960 1_455 S
H1683 C1670 0.962 . S
H1684 C1670 0.960 . S
H1685 C1671 0.961 . S
H1686 C1671 0.961 1_455 S
H1687 C1671 0.961 . S
H1688 C1672 0.931 . S
H1689 C1677 0.930 . S
H1690 C1678 0.982 . S
H1691 C1678 0.919 1_655 S
H1692 C1678 0.961 . S
H1693 C1679 0.958 . S
H1694 C1679 0.961 . S
H1695 C1679 0.968 . S
C1696 C1697 1.391 . S
C1696 C1698 1.394 . S
C1696 H1712 0.931 . S
C1697 C1696 1.391 . S
C1697 C1701 1.376 . S
C1698 C1696 1.394 . S
C1698 C1699 1.369 . S
C1698 C1702 1.531 . S
C1699 C1698 1.369 . S
C1699 C1700 1.410 . S
C1699 C1707 1.503 . S
C1700 C1699 1.410 . S
C1700 C1701 1.392 . S
C1700 C1703 1.511 . S
C1701 C1697 1.376 . S
C1701 C1700 1.392 . S
C1701 H1713 0.929 . S
C1702 C1698 1.531 . S
C1702 H1714 0.960 . S
C1702 H1715 0.962 . S
C1702 H1716 0.960 . S
C1703 C1700 1.511 . S
C1703 H1717 0.961 . S
C1703 H1718 0.961 . S
C1703 H1719 0.961 . S
C1704 C1705 1.370 . S
C1704 C1706 1.363 . S
C1704 H1720 0.931 . S
C1705 C1704 1.370 . S
C1705 C1709 1.408 1_554 S
C1706 C1704 1.363 . S
C1706 C1707 1.370 . S
C1706 C1710 1.524 . S
C1707 C1699 1.503 . S
C1707 C1706 1.370 . S
C1707 C1708 1.403 1_554 S
C1708 C1707 1.403 1_556 S
C1708 C1709 1.404 . S
C1708 C1711 1.539 . S
C1709 C1705 1.408 1_556 S
C1709 C1708 1.404 . S
C1709 H1721 0.930 . S
C1710 C1706 1.524 . S
C1710 H1722 0.956 . S
C1710 H1723 0.961 . S
C1710 H1724 0.961 . S
C1711 C1708 1.539 . S
C1711 H1725 0.958 . S
C1711 H1726 0.961 . S
C1711 H1727 0.960 . S
H1712 C1696 0.931 . S
H1713 C1701 0.929 . S
H1714 C1702 0.960 . S
H1715 C1702 0.962 . S
H1716 C1702 0.960 . S
H1717 C1703 0.961 . S
H1718 C1703 0.961 . S
H1719 C1703 0.961 . S
H1720 C1704 0.931 . S
H1721 C1709 0.930 . S
H1722 C1710 0.956 . S
H1723 C1710 0.961 . S
H1724 C1710 0.961 . S
H1725 C1711 0.958 . S
H1726 C1711 0.961 . S
H1727 C1711 0.960 . S
C1728 C1729 1.391 . S
C1728 C1730 1.394 . S
C1728 H1744 0.931 . S
C1729 C1728 1.391 . S
C1729 C1733 1.376 . S
C1730 C1728 1.394 . S
C1730 C1731 1.369 . S
C1730 C1734 1.531 . S
C1731 C1730 1.369 . S
C1731 C1732 1.410 . S
C1731 C1739 1.503 . S
C1732 C1731 1.410 . S
C1732 C1733 1.392 . S
C1732 C1735 1.511 . S
C1733 C1729 1.376 . S
C1733 C1732 1.392 . S
C1733 H1745 0.929 . S
C1734 C1730 1.531 . S
C1734 H1746 0.960 . S
C1734 H1747 0.962 . S
C1734 H1748 0.960 . S
C1735 C1732 1.511 . S
C1735 H1749 0.961 . S
C1735 H1750 0.961 . S
C1735 H1751 0.961 . S
C1736 C1737 1.370 . S
C1736 C1738 1.363 . S
C1736 H1752 0.931 . S
C1737 C1736 1.370 . S
C1737 C1741 1.408 . S
C1738 C1736 1.363 . S
C1738 C1739 1.370 . S
C1738 C1742 1.524 . S
C1739 C1731 1.503 . S
C1739 C1738 1.370 . S
C1739 C1740 1.403 . S
C1740 C1739 1.403 . S
C1740 C1741 1.404 . S
C1740 C1743 1.539 . S
C1741 C1737 1.408 . S
C1741 C1740 1.404 . S
C1741 H1753 0.930 . S
C1742 C1738 1.524 . S
C1742 H1754 0.956 . S
C1742 H1755 0.961 . S
C1742 H1756 0.961 . S
C1743 C1740 1.539 . S
C1743 H1757 0.958 . S
C1743 H1758 0.961 . S
C1743 H1759 0.960 . S
H1744 C1728 0.931 . S
H1745 C1733 0.929 . S
H1746 C1734 0.960 . S
H1747 C1734 0.962 . S
H1748 C1734 0.960 . S
H1749 C1735 0.961 . S
H1750 C1735 0.961 . S
H1751 C1735 0.961 . S
H1752 C1736 0.931 . S
H1753 C1741 0.930 . S
H1754 C1742 0.956 . S
H1755 C1742 0.961 . S
H1756 C1742 0.961 . S
H1757 C1743 0.958 . S
H1758 C1743 0.961 . S
H1759 C1743 0.960 . S
C1760 C1761 1.386 1_556 S
C1760 C1762 1.394 . S
C1760 H1776 0.935 . S
C1761 C1760 1.386 1_554 S
C1761 C1765 1.376 . S
C1762 C1760 1.394 . S
C1762 C1763 1.369 1_556 S
C1762 C1766 1.531 . S
C1763 C1762 1.369 1_554 S
C1763 C1764 1.410 . S
C1763 C1771 1.503 . S
C1764 C1763 1.410 . S
C1764 C1765 1.392 . S
C1764 C1767 1.511 . S
C1765 C1761 1.376 . S
C1765 C1764 1.392 . S
C1765 H1777 0.929 . S
C1766 C1762 1.531 . S
C1766 H1778 0.960 . S
C1766 H1779 0.962 . S
C1766 H1780 0.960 . S
C1767 C1764 1.511 . S
C1767 H1781 0.961 . S
C1767 H1782 0.961 . S
C1767 H1783 0.961 . S
C1768 C1769 1.370 . S
C1768 C1770 1.363 . S
C1768 H1784 0.931 . S
C1769 C1768 1.370 . S
C1769 C1773 1.408 1_554 S
C1770 C1768 1.363 . S
C1770 C1771 1.370 . S
C1770 C1774 1.524 . S
C1771 C1763 1.503 . S
C1771 C1770 1.370 . S
C1771 C1772 1.403 1_554 S
C1772 C1771 1.403 1_556 S
C1772 C1773 1.404 . S
C1772 C1775 1.539 . S
C1773 C1769 1.408 1_556 S
C1773 C1772 1.404 . S
C1773 H1785 0.930 . S
C1774 C1770 1.524 . S
C1774 H1786 0.956 . S
C1774 H1787 0.961 . S
C1774 H1788 0.961 . S
C1775 C1772 1.539 . S
C1775 H1789 0.958 . S
C1775 H1790 0.961 . S
C1775 H1791 0.960 . S
H1776 C1760 0.935 . S
H1777 C1765 0.929 . S
H1778 C1766 0.960 . S
H1779 C1766 0.962 . S
H1780 C1766 0.960 . S
H1781 C1767 0.961 . S
H1782 C1767 0.961 . S
H1783 C1767 0.961 . S
H1784 C1768 0.931 . S
H1785 C1773 0.930 . S
H1786 C1774 0.956 . S
H1787 C1774 0.961 . S
H1788 C1774 0.961 . S
H1789 C1775 0.958 . S
H1790 C1775 0.961 . S
H1791 C1775 0.960 . S
C1792 C1793 1.391 . S
C1792 C1794 1.394 . S
C1792 H1808 0.931 . S
C1793 C1792 1.391 . S
C1793 C1797 1.376 . S
C1794 C1792 1.394 . S
C1794 C1795 1.369 . S
C1794 C1798 1.531 . S
C1795 C1794 1.369 . S
C1795 C1796 1.410 . S
C1795 C1803 1.503 . S
C1796 C1795 1.410 . S
C1796 C1797 1.392 . S
C1796 C1799 1.511 . S
C1797 C1793 1.376 . S
C1797 C1796 1.392 . S
C1797 H1809 0.929 . S
C1798 C1794 1.531 . S
C1798 H1810 0.960 . S
C1798 H1811 0.962 . S
C1798 H1812 0.960 . S
C1799 C1796 1.511 . S
C1799 H1813 0.961 . S
C1799 H1814 0.961 . S
C1799 H1815 0.961 . S
C1800 C1801 1.370 . S
C1800 C1802 1.363 . S
C1800 H1816 0.931 . S
C1801 C1800 1.370 . S
C1801 C1805 1.408 . S
C1802 C1800 1.363 . S
C1802 C1803 1.370 . S
C1802 C1806 1.524 . S
C1803 C1795 1.503 . S
C1803 C1802 1.370 . S
C1803 C1804 1.403 . S
C1804 C1803 1.403 . S
C1804 C1805 1.404 . S
C1804 C1807 1.539 . S
C1805 C1801 1.408 . S
C1805 C1804 1.404 . S
C1805 H1817 0.930 . S
C1806 C1802 1.524 . S
C1806 H1818 0.956 . S
C1806 H1819 0.961 . S
C1806 H1820 0.961 . S
C1807 C1804 1.539 . S
C1807 H1821 0.958 . S
C1807 H1822 0.961 . S
C1807 H1823 0.960 . S
H1808 C1792 0.931 . S
H1809 C1797 0.929 . S
H1810 C1798 0.960 . S
H1811 C1798 0.962 . S
H1812 C1798 0.960 . S
H1813 C1799 0.961 . S
H1814 C1799 0.961 . S
H1815 C1799 0.961 . S
H1816 C1800 0.931 . S
H1817 C1805 0.930 . S
H1818 C1806 0.956 . S
H1819 C1806 0.961 . S
H1820 C1806 0.961 . S
H1821 C1807 0.958 . S
H1822 C1807 0.961 . S
H1823 C1807 0.960 . S
C1824 C1825 1.391 . S
C1824 C1826 1.394 . S
C1824 H1840 0.931 . S
C1825 C1824 1.391 . S
C1825 C1829 1.376 . S
C1826 C1824 1.394 . S
C1826 C1827 1.369 . S
C1826 C1830 1.531 . S
C1827 C1826 1.369 . S
C1827 C1828 1.410 . S
C1827 C1835 1.503 . S
C1828 C1827 1.410 . S
C1828 C1829 1.392 . S
C1828 C1831 1.511 . S
C1829 C1825 1.376 . S
C1829 C1828 1.392 . S
C1829 H1841 0.929 . S
C1830 C1826 1.531 . S
C1830 H1842 0.960 . S
C1830 H1843 0.962 . S
C1830 H1844 0.960 . S
C1831 C1828 1.511 . S
C1831 H1845 0.961 . S
C1831 H1846 0.961 . S
C1831 H1847 0.961 . S
C1832 C1833 1.370 . S
C1832 C1834 1.363 . S
C1832 H1848 0.931 . S
C1833 C1832 1.370 . S
C1833 C1837 1.408 . S
C1834 C1832 1.363 . S
C1834 C1835 1.370 . S
C1834 C1838 1.524 . S
C1835 C1827 1.503 . S
C1835 C1834 1.370 . S
C1835 C1836 1.403 . S
C1836 C1835 1.403 . S
C1836 C1837 1.404 . S
C1836 C1839 1.539 . S
C1837 C1833 1.408 . S
C1837 C1836 1.404 . S
C1837 H1849 0.930 . S
C1838 C1834 1.524 . S
C1838 H1850 0.956 . S
C1838 H1851 0.961 . S
C1838 H1852 0.961 . S
C1839 C1836 1.539 . S
C1839 H1853 0.958 . S
C1839 H1854 0.961 . S
C1839 H1855 0.960 . S
H1840 C1824 0.931 . S
H1841 C1829 0.929 . S
H1842 C1830 0.960 . S
H1843 C1830 0.962 . S
H1844 C1830 0.960 . S
H1845 C1831 0.961 . S
H1846 C1831 0.961 . S
H1847 C1831 0.961 . S
H1848 C1832 0.931 . S
H1849 C1837 0.930 . S
H1850 C1838 0.956 . S
H1851 C1838 0.961 . S
H1852 C1838 0.961 . S
H1853 C1839 0.958 . S
H1854 C1839 0.961 . S
H1855 C1839 0.960 . S
C1856 C1857 1.391 . S
C1856 C1858 1.394 . S
C1856 H1872 0.931 . S
C1857 C1856 1.391 . S
C1857 C1861 1.376 . S
C1858 C1856 1.394 . S
C1858 C1859 1.369 . S
C1858 C1862 1.531 . S
C1859 C1858 1.369 . S
C1859 C1860 1.410 . S
C1859 C1867 1.503 1_655 S
C1860 C1859 1.410 . S
C1860 C1861 1.392 . S
C1860 C1863 1.511 . S
C1861 C1857 1.376 . S
C1861 C1860 1.392 . S
C1861 H1873 0.929 . S
C1862 C1858 1.531 . S
C1862 H1874 0.960 1_655 S
C1862 H1875 0.962 . S
C1862 H1876 0.960 . S
C1863 C1860 1.511 . S
C1863 H1877 0.961 . S
C1863 H1878 0.961 1_655 S
C1863 H1879 0.961 . S
C1864 C1865 1.370 . S
C1864 C1866 1.363 . S
C1864 H1880 0.931 . S
C1865 C1864 1.370 . S
C1865 C1869 1.408 . S
C1866 C1864 1.363 . S
C1866 C1867 1.370 . S
C1866 C1870 1.524 . S
C1867 C1859 1.503 1_455 S
C1867 C1866 1.370 . S
C1867 C1868 1.403 . S
C1868 C1867 1.403 . S
C1868 C1869 1.404 . S
C1868 C1871 1.539 . S
C1869 C1865 1.408 . S
C1869 C1868 1.404 . S
C1869 H1881 0.930 . S
C1870 C1866 1.524 . S
C1870 H1882 0.982 . S
C1870 H1883 0.919 1_455 S
C1870 H1884 0.961 . S
C1871 C1868 1.539 . S
C1871 H1885 0.958 . S
C1871 H1886 0.961 . S
C1871 H1887 0.968 . S
H1872 C1856 0.931 . S
H1873 C1861 0.929 . S
H1874 C1862 0.960 1_455 S
H1875 C1862 0.962 . S
H1876 C1862 0.960 . S
H1877 C1863 0.961 . S
H1878 C1863 0.961 1_455 S
H1879 C1863 0.961 . S
H1880 C1864 0.931 . S
H1881 C1869 0.930 . S
H1882 C1870 0.982 . S
H1883 C1870 0.919 1_655 S
H1884 C1870 0.961 . S
H1885 C1871 0.958 . S
H1886 C1871 0.961 . S
H1887 C1871 0.968 . S
C1888 C1889 1.391 . S
C1888 C1890 1.394 . S
C1888 H1904 0.931 . S
C1889 C1888 1.391 . S
C1889 C1893 1.376 . S
C1890 C1888 1.394 . S
C1890 C1891 1.369 . S
C1890 C1894 1.531 . S
C1891 C1890 1.369 . S
C1891 C1892 1.410 . S
C1891 C1899 1.503 1_655 S
C1892 C1891 1.410 . S
C1892 C1893 1.392 . S
C1892 C1895 1.511 . S
C1893 C1889 1.376 . S
C1893 C1892 1.392 . S
C1893 H1905 0.929 . S
C1894 C1890 1.531 . S
C1894 H1906 0.960 1_655 S
C1894 H1907 0.962 . S
C1894 H1908 0.960 . S
C1895 C1892 1.511 . S
C1895 H1909 0.961 . S
C1895 H1910 0.961 1_655 S
C1895 H1911 0.961 . S
C1896 C1897 1.370 . S
C1896 C1898 1.363 . S
C1896 H1912 0.931 . S
C1897 C1896 1.370 . S
C1897 C1901 1.408 . S
C1898 C1896 1.363 . S
C1898 C1899 1.370 . S
C1898 C1902 1.524 . S
C1899 C1891 1.503 1_455 S
C1899 C1898 1.370 . S
C1899 C1900 1.403 . S
C1900 C1899 1.403 . S
C1900 C1901 1.404 . S
C1900 C1903 1.539 . S
C1901 C1897 1.408 . S
C1901 C1900 1.404 . S
C1901 H1913 0.930 . S
C1902 C1898 1.524 . S
C1902 H1914 0.982 . S
C1902 H1915 0.919 1_455 S
C1902 H1916 0.961 . S
C1903 C1900 1.539 . S
C1903 H1917 0.958 . S
C1903 H1918 0.961 . S
C1903 H1919 0.968 . S
H1904 C1888 0.931 . S
H1905 C1893 0.929 . S
H1906 C1894 0.960 1_455 S
H1907 C1894 0.962 . S
H1908 C1894 0.960 . S
H1909 C1895 0.961 . S
H1910 C1895 0.961 1_455 S
H1911 C1895 0.961 . S
H1912 C1896 0.931 . S
H1913 C1901 0.930 . S
H1914 C1902 0.982 . S
H1915 C1902 0.919 1_655 S
H1916 C1902 0.961 . S
H1917 C1903 0.958 . S
H1918 C1903 0.961 . S
H1919 C1903 0.968 . S
C1920 C1921 1.391 . S
C1920 C1922 1.394 . S
C1920 H1936 0.931 . S
C1921 C1920 1.391 . S
C1921 C1925 1.376 . S
C1922 C1920 1.394 . S
C1922 C1923 1.369 . S
C1922 C1926 1.531 . S
C1923 C1922 1.369 . S
C1923 C1924 1.410 . S
C1923 C1931 1.503 . S
C1924 C1923 1.410 . S
C1924 C1925 1.392 . S
C1924 C1927 1.511 . S
C1925 C1921 1.376 . S
C1925 C1924 1.392 . S
C1925 H1937 0.929 . S
C1926 C1922 1.531 . S
C1926 H1938 0.960 . S
C1926 H1939 0.962 . S
C1926 H1940 0.960 . S
C1927 C1924 1.511 . S
C1927 H1941 0.961 . S
C1927 H1942 0.961 . S
C1927 H1943 0.961 . S
C1928 C1929 1.370 . S
C1928 C1930 1.363 . S
C1928 H1944 0.931 . S
C1929 C1928 1.370 . S
C1929 C1933 1.408 . S
C1930 C1928 1.363 . S
C1930 C1931 1.370 . S
C1930 C1934 1.524 . S
C1931 C1923 1.503 . S
C1931 C1930 1.370 . S
C1931 C1932 1.403 . S
C1932 C1931 1.403 . S
C1932 C1933 1.404 . S
C1932 C1935 1.539 . S
C1933 C1929 1.408 . S
C1933 C1932 1.404 . S
C1933 H1945 0.930 . S
C1934 C1930 1.524 . S
C1934 H1946 0.956 . S
C1934 H1947 0.961 . S
C1934 H1948 0.961 . S
C1935 C1932 1.539 . S
C1935 H1949 0.958 . S
C1935 H1950 0.961 . S
C1935 H1951 0.960 . S
H1936 C1920 0.931 . S
H1937 C1925 0.929 . S
H1938 C1926 0.960 . S
H1939 C1926 0.962 . S
H1940 C1926 0.960 . S
H1941 C1927 0.961 . S
H1942 C1927 0.961 . S
H1943 C1927 0.961 . S
H1944 C1928 0.931 . S
H1945 C1933 0.930 . S
H1946 C1934 0.956 . S
H1947 C1934 0.961 . S
H1948 C1934 0.961 . S
H1949 C1935 0.958 . S
H1950 C1935 0.961 . S
H1951 C1935 0.960 . S
C1952 C1953 1.391 . S
C1952 C1954 1.394 . S
C1952 H1968 0.931 . S
C1953 C1952 1.391 . S
C1953 C1957 1.376 . S
C1954 C1952 1.394 . S
C1954 C1955 1.369 . S
C1954 C1958 1.531 . S
C1955 C1954 1.369 . S
C1955 C1956 1.410 . S
C1955 C1963 1.503 . S
C1956 C1955 1.410 . S
C1956 C1957 1.392 . S
C1956 C1959 1.511 . S
C1957 C1953 1.376 . S
C1957 C1956 1.392 . S
C1957 H1969 0.929 . S
C1958 C1954 1.531 . S
C1958 H1970 0.960 . S
C1958 H1971 0.962 . S
C1958 H1972 0.960 . S
C1959 C1956 1.511 . S
C1959 H1973 0.961 . S
C1959 H1974 0.961 . S
C1959 H1975 0.961 . S
C1960 C1961 1.370 . S
C1960 C1962 1.363 . S
C1960 H1976 0.931 . S
C1961 C1960 1.370 . S
C1961 C1965 1.408 . S
C1962 C1960 1.363 . S
C1962 C1963 1.370 . S
C1962 C1966 1.524 . S
C1963 C1955 1.503 . S
C1963 C1962 1.370 . S
C1963 C1964 1.403 . S
C1964 C1963 1.403 . S
C1964 C1965 1.404 . S
C1964 C1967 1.539 . S
C1965 C1961 1.408 . S
C1965 C1964 1.404 . S
C1965 H1977 0.930 . S
C1966 C1962 1.524 . S
C1966 H1978 0.956 . S
C1966 H1979 0.961 . S
C1966 H1980 0.961 . S
C1967 C1964 1.539 . S
C1967 H1981 0.958 . S
C1967 H1982 0.961 . S
C1967 H1983 0.960 . S
H1968 C1952 0.931 . S
H1969 C1957 0.929 . S
H1970 C1958 0.960 . S
H1971 C1958 0.962 . S
H1972 C1958 0.960 . S
H1973 C1959 0.961 . S
H1974 C1959 0.961 . S
H1975 C1959 0.961 . S
H1976 C1960 0.931 . S
H1977 C1965 0.930 . S
H1978 C1966 0.956 . S
H1979 C1966 0.961 . S
H1980 C1966 0.961 . S
H1981 C1967 0.958 . S
H1982 C1967 0.961 . S
H1983 C1967 0.960 . S
C1984 C1985 1.391 . S
C1984 C1986 1.394 . S
C1984 H2000 0.931 . S
C1985 C1984 1.391 . S
C1985 C1989 1.376 . S
C1986 C1984 1.394 . S
C1986 C1987 1.369 . S
C1986 C1990 1.531 . S
C1987 C1986 1.369 . S
C1987 C1988 1.410 . S
C1987 C1995 1.503 1_565 S
C1988 C1987 1.410 . S
C1988 C1989 1.392 . S
C1988 C1991 1.511 . S
C1989 C1985 1.376 . S
C1989 C1988 1.392 . S
C1989 H2001 0.929 . S
C1990 C1986 1.531 . S
C1990 H2002 0.960 . S
C1990 H2003 0.962 . S
C1990 H2004 0.960 . S
C1991 C1988 1.511 . S
C1991 H2005 0.961 . S
C1991 H2006 0.961 1_565 S
C1991 H2007 0.961 . S
C1992 C1993 1.370 . S
C1992 C1994 1.363 . S
C1992 H2008 0.931 . S
C1993 C1992 1.370 . S
C1993 C1997 1.408 . S
C1994 C1992 1.363 . S
C1994 C1995 1.370 . S
C1994 C1998 1.524 . S
C1995 C1987 1.503 1_545 S
C1995 C1994 1.370 . S
C1995 C1996 1.403 1_545 S
C1996 C1995 1.403 1_565 S
C1996 C1997 1.404 1_565 S
C1996 C1999 1.539 . S
C1997 C1993 1.408 . S
C1997 C1996 1.404 1_545 S
C1997 H2009 0.930 . S
C1998 C1994 1.524 . S
C1998 H2010 0.956 . S
C1998 H2011 0.961 . S
C1998 H2012 0.961 . S
C1999 C1996 1.539 . S
C1999 H2013 0.958 . S
C1999 H2014 0.961 . S
C1999 H2015 0.960 . S
H2000 C1984 0.931 . S
H2001 C1989 0.929 . S
H2002 C1990 0.960 . S
H2003 C1990 0.962 . S
H2004 C1990 0.960 . S
H2005 C1991 0.961 . S
H2006 C1991 0.961 1_545 S
H2007 C1991 0.961 . S
H2008 C1992 0.931 . S
H2009 C1997 0.930 . S
H2010 C1998 0.956 . S
H2011 C1998 0.961 . S
H2012 C1998 0.961 . S
H2013 C1999 0.958 . S
H2014 C1999 0.961 . S
H2015 C1999 0.960 . S
C2016 C2017 1.391 . S
C2016 C2018 1.394 . S
C2016 H2032 0.931 . S
C2017 C2016 1.391 . S
C2017 C2021 1.376 . S
C2018 C2016 1.394 . S
C2018 C2019 1.369 . S
C2018 C2022 1.531 . S
C2019 C2018 1.369 . S
C2019 C2020 1.410 . S
C2019 C2027 1.503 . S
C2020 C2019 1.410 . S
C2020 C2021 1.392 . S
C2020 C2023 1.511 . S
C2021 C2017 1.376 . S
C2021 C2020 1.392 . S
C2021 H2033 0.929 . S
C2022 C2018 1.531 . S
C2022 H2034 0.960 . S
C2022 H2035 0.962 . S
C2022 H2036 0.960 . S
C2023 C2020 1.511 . S
C2023 H2037 0.961 . S
C2023 H2038 0.961 . S
C2023 H2039 0.961 . S
C2024 C2025 1.370 . S
C2024 C2026 1.363 . S
C2024 H2040 0.931 . S
C2025 C2024 1.370 . S
C2025 C2029 1.408 . S
C2026 C2024 1.363 . S
C2026 C2027 1.370 . S
C2026 C2030 1.524 . S
C2027 C2019 1.503 . S
C2027 C2026 1.370 . S
C2027 C2028 1.403 . S
C2028 C2027 1.403 . S
C2028 C2029 1.404 . S
C2028 C2031 1.539 . S
C2029 C2025 1.408 . S
C2029 C2028 1.404 . S
C2029 H2041 0.930 . S
C2030 C2026 1.524 . S
C2030 H2042 0.956 . S
C2030 H2043 0.961 . S
C2030 H2044 0.961 . S
C2031 C2028 1.539 . S
C2031 H2045 0.958 . S
C2031 H2046 0.961 . S
C2031 H2047 0.960 . S
H2032 C2016 0.931 . S
H2033 C2021 0.929 . S
H2034 C2022 0.960 . S
H2035 C2022 0.962 . S
H2036 C2022 0.960 . S
H2037 C2023 0.961 . S
H2038 C2023 0.961 . S
H2039 C2023 0.961 . S
H2040 C2024 0.931 . S
H2041 C2029 0.930 . S
H2042 C2030 0.956 . S
H2043 C2030 0.961 . S
H2044 C2030 0.961 . S
H2045 C2031 0.958 . S
H2046 C2031 0.961 . S
H2047 C2031 0.960 . S
C2048 C2049 1.391 . S
C2048 C2050 1.394 . S
C2048 H2064 0.931 . S
C2049 C2048 1.391 . S
C2049 C2053 1.376 . S
C2050 C2048 1.394 . S
C2050 C2051 1.369 1_556 S
C2050 C2054 1.531 1_545 S
C2051 C2050 1.369 1_554 S
C2051 C2052 1.410 . S
C2051 C2059 1.503 1_545 S
C2052 C2051 1.410 . S
C2052 C2053 1.392 1_554 S
C2052 C2055 1.511 . S
C2053 C2049 1.376 . S
C2053 C2052 1.392 1_556 S
C2053 H2065 0.929 . S
C2054 C2050 1.531 1_565 S
C2054 H2066 0.960 . S
C2054 H2067 0.962 . S
C2054 H2068 0.960 . S
C2055 C2052 1.511 . S
C2055 H2069 0.961 . S
C2055 H2070 0.961 . S
C2055 H2071 0.961 . S
C2056 C2057 1.370 . S
C2056 C2058 1.363 . S
C2056 H2072 0.931 . S
C2057 C2056 1.370 . S
C2057 C2061 1.408 . S
C2058 C2056 1.363 . S
C2058 C2059 1.370 . S
C2058 C2062 1.524 1_565 S
C2059 C2051 1.503 1_565 S
C2059 C2058 1.370 . S
C2059 C2060 1.403 . S
C2060 C2059 1.403 . S
C2060 C2061 1.404 . S
C2060 C2063 1.539 . S
C2061 C2057 1.408 . S
C2061 C2060 1.404 . S
C2061 H2073 0.930 . S
C2062 C2058 1.524 1_545 S
C2062 H2074 0.956 . S
C2062 H2075 0.961 . S
C2062 H2076 0.961 . S
C2063 C2060 1.539 . S
C2063 H2077 0.958 1_554 S
C2063 H2078 0.961 . S
C2063 H2079 0.960 1_554 S
H2064 C2048 0.931 . S
H2065 C2053 0.929 . S
H2066 C2054 0.960 . S
H2067 C2054 0.962 . S
H2068 C2054 0.960 . S
H2069 C2055 0.961 . S
H2070 C2055 0.961 . S
H2071 C2055 0.961 . S
H2072 C2056 0.931 . S
H2073 C2061 0.930 . S
H2074 C2062 0.956 . S
H2075 C2062 0.961 . S
H2076 C2062 0.961 . S
H2077 C2063 0.958 1_556 S
H2078 C2063 0.961 . S
H2079 C2063 0.960 1_556 S
C2080 C2081 1.391 . S
C2080 C2082 1.394 . S
C2080 H2096 0.931 . S
C2081 C2080 1.391 . S
C2081 C2085 1.376 . S
C2082 C2080 1.394 . S
C2082 C2083 1.369 . S
C2082 C2086 1.531 . S
C2083 C2082 1.369 . S
C2083 C2084 1.410 . S
C2083 C2091 1.503 . S
C2084 C2083 1.410 . S
C2084 C2085 1.392 . S
C2084 C2087 1.511 . S
C2085 C2081 1.376 . S
C2085 C2084 1.392 . S
C2085 H2097 0.929 . S
C2086 C2082 1.531 . S
C2086 H2098 0.960 . S
C2086 H2099 0.962 . S
C2086 H2100 0.960 . S
C2087 C2084 1.511 . S
C2087 H2101 0.961 . S
C2087 H2102 0.961 . S
C2087 H2103 0.961 . S
C2088 C2089 1.370 . S
C2088 C2090 1.363 . S
C2088 H2104 0.931 . S
C2089 C2088 1.370 . S
C2089 C2093 1.408 . S
C2090 C2088 1.363 . S
C2090 C2091 1.370 . S
C2090 C2094 1.524 . S
C2091 C2083 1.503 . S
C2091 C2090 1.370 . S
C2091 C2092 1.403 . S
C2092 C2091 1.403 . S
C2092 C2093 1.404 . S
C2092 C2095 1.539 . S
C2093 C2089 1.408 . S
C2093 C2092 1.404 . S
C2093 H2105 0.930 . S
C2094 C2090 1.524 . S
C2094 H2106 0.956 . S
C2094 H2107 0.961 . S
C2094 H2108 0.961 . S
C2095 C2092 1.539 . S
C2095 H2109 0.958 . S
C2095 H2110 0.961 . S
C2095 H2111 0.960 . S
H2096 C2080 0.931 . S
H2097 C2085 0.929 . S
H2098 C2086 0.960 . S
H2099 C2086 0.962 . S
H2100 C2086 0.960 . S
H2101 C2087 0.961 . S
H2102 C2087 0.961 . S
H2103 C2087 0.961 . S
H2104 C2088 0.931 . S
H2105 C2093 0.930 . S
H2106 C2094 0.956 . S
H2107 C2094 0.961 . S
H2108 C2094 0.961 . S
H2109 C2095 0.958 . S
H2110 C2095 0.961 . S
H2111 C2095 0.960 . S
C2112 C2113 1.391 . S
C2112 C2114 1.394 . S
C2112 H2128 0.931 . S
C2113 C2112 1.391 . S
C2113 C2117 1.376 . S
C2114 C2112 1.394 . S
C2114 C2115 1.369 . S
C2114 C2118 1.531 . S
C2115 C2114 1.369 . S
C2115 C2116 1.410 . S
C2115 C2123 1.503 1_545 S
C2116 C2115 1.410 . S
C2116 C2117 1.392 . S
C2116 C2119 1.511 1_545 S
C2117 C2113 1.376 . S
C2117 C2116 1.392 . S
C2117 H2129 0.929 . S
C2118 C2114 1.531 . S
C2118 H2130 0.960 . S
C2118 H2131 0.962 . S
C2118 H2132 0.960 . S
C2119 C2116 1.511 1_565 S
C2119 H2133 0.961 . S
C2119 H2134 0.961 . S
C2119 H2135 0.961 . S
C2120 C2121 1.370 . S
C2120 C2122 1.363 . S
C2120 H2136 0.931 . S
C2121 C2120 1.370 . S
C2121 C2125 1.408 . S
C2122 C2120 1.363 . S
C2122 C2123 1.370 . S
C2122 C2126 1.524 . S
C2123 C2115 1.503 1_565 S
C2123 C2122 1.370 . S
C2123 C2124 1.403 . S
C2124 C2123 1.403 . S
C2124 C2125 1.404 . S
C2124 C2127 1.539 1_565 S
C2125 C2121 1.408 . S
C2125 C2124 1.404 . S
C2125 H2137 0.930 . S
C2126 C2122 1.524 . S
C2126 H2138 0.956 . S
C2126 H2139 0.961 . S
C2126 H2140 0.961 . S
C2127 C2124 1.539 1_545 S
C2127 H2141 0.958 . S
C2127 H2142 0.961 . S
C2127 H2143 0.960 . S
H2128 C2112 0.931 . S
H2129 C2117 0.929 . S
H2130 C2118 0.960 . S
H2131 C2118 0.962 . S
H2132 C2118 0.960 . S
H2133 C2119 0.961 . S
H2134 C2119 0.961 . S
H2135 C2119 0.961 . S
H2136 C2120 0.931 . S
H2137 C2125 0.930 . S
H2138 C2126 0.956 . S
H2139 C2126 0.961 . S
H2140 C2126 0.961 . S
H2141 C2127 0.958 . S
H2142 C2127 0.961 . S
H2143 C2127 0.960 . S
C2144 C2145 1.391 . S
C2144 C2146 1.394 . S
C2144 H2160 0.931 . S
C2145 C2144 1.391 . S
C2145 C2149 1.376 . S
C2146 C2144 1.394 . S
C2146 C2147 1.369 . S
C2146 C2150 1.531 . S
C2147 C2146 1.369 . S
C2147 C2148 1.410 . S
C2147 C2155 1.503 . S
C2148 C2147 1.410 . S
C2148 C2149 1.392 . S
C2148 C2151 1.511 . S
C2149 C2145 1.376 . S
C2149 C2148 1.392 . S
C2149 H2161 0.929 . S
C2150 C2146 1.531 . S
C2150 H2162 0.960 . S
C2150 H2163 0.962 . S
C2150 H2164 0.960 . S
C2151 C2148 1.511 . S
C2151 H2165 0.961 . S
C2151 H2166 0.961 . S
C2151 H2167 0.961 . S
C2152 C2153 1.370 . S
C2152 C2154 1.363 . S
C2152 H2168 0.931 . S
C2153 C2152 1.370 . S
C2153 C2157 1.408 . S
C2154 C2152 1.363 . S
C2154 C2155 1.370 . S
C2154 C2158 1.524 . S
C2155 C2147 1.503 . S
C2155 C2154 1.370 . S
C2155 C2156 1.403 . S
C2156 C2155 1.403 . S
C2156 C2157 1.404 . S
C2156 C2159 1.539 . S
C2157 C2153 1.408 . S
C2157 C2156 1.404 . S
C2157 H2169 0.930 . S
C2158 C2154 1.524 . S
C2158 H2170 0.956 . S
C2158 H2171 0.961 . S
C2158 H2172 0.961 . S
C2159 C2156 1.539 . S
C2159 H2173 0.958 . S
C2159 H2174 0.961 . S
C2159 H2175 0.960 . S
H2160 C2144 0.931 . S
H2161 C2149 0.929 . S
H2162 C2150 0.960 . S
H2163 C2150 0.962 . S
H2164 C2150 0.960 . S
H2165 C2151 0.961 . S
H2166 C2151 0.961 . S
H2167 C2151 0.961 . S
H2168 C2152 0.931 . S
H2169 C2157 0.930 . S
H2170 C2158 0.956 . S
H2171 C2158 0.961 . S
H2172 C2158 0.961 . S
H2173 C2159 0.958 . S
H2174 C2159 0.961 . S
H2175 C2159 0.960 . S
C2176 C2177 1.391 . S
C2176 C2178 1.394 . S
C2176 H2192 0.931 . S
C2177 C2176 1.391 . S
C2177 C2181 1.376 . S
C2178 C2176 1.394 . S
C2178 C2179 1.369 . S
C2178 C2182 1.531 1_565 S
C2179 C2178 1.369 . S
C2179 C2180 1.410 . S
C2179 C2187 1.503 1_565 S
C2180 C2179 1.410 . S
C2180 C2181 1.392 . S
C2180 C2183 1.511 . S
C2181 C2177 1.376 . S
C2181 C2180 1.392 . S
C2181 H2193 0.929 . S
C2182 C2178 1.531 1_545 S
C2182 H2194 0.960 . S
C2182 H2195 0.962 . S
C2182 H2196 0.960 . S
C2183 C2180 1.511 . S
C2183 H2197 0.961 . S
C2183 H2198 0.961 . S
C2183 H2199 0.961 . S
C2184 C2185 1.370 . S
C2184 C2186 1.363 . S
C2184 H2200 0.931 . S
C2185 C2184 1.370 . S
C2185 C2189 1.408 . S
C2186 C2184 1.363 . S
C2186 C2187 1.370 1_556 S
C2186 C2190 1.524 1_545 S
C2187 C2179 1.503 1_545 S
C2187 C2186 1.370 1_554 S
C2187 C2188 1.403 . S
C2188 C2187 1.403 . S
C2188 C2189 1.404 1_554 S
C2188 C2191 1.539 . S
C2189 C2185 1.408 . S
C2189 C2188 1.404 1_556 S
C2189 H2201 0.930 . S
C2190 C2186 1.524 1_565 S
C2190 H2202 0.956 . S
C2190 H2203 0.961 . S
C2190 H2204 0.961 . S
C2191 C2188 1.539 . S
C2191 H2205 0.958 . S
C2191 H2206 0.961 . S
C2191 H2207 0.960 . S
H2192 C2176 0.931 . S
H2193 C2181 0.929 . S
H2194 C2182 0.960 . S
H2195 C2182 0.962 . S
H2196 C2182 0.960 . S
H2197 C2183 0.961 . S
H2198 C2183 0.961 . S
H2199 C2183 0.961 . S
H2200 C2184 0.931 . S
H2201 C2189 0.930 . S
H2202 C2190 0.956 . S
H2203 C2190 0.961 . S
H2204 C2190 0.961 . S
H2205 C2191 0.958 . S
H2206 C2191 0.961 . S
H2207 C2191 0.960 . S
C2208 C2209 1.391 . S
C2208 C2210 1.394 . S
C2208 H2224 0.931 . S
C2209 C2208 1.391 . S
C2209 C2213 1.376 . S
C2210 C2208 1.394 . S
C2210 C2211 1.369 . S
C2210 C2214 1.531 . S
C2211 C2210 1.369 . S
C2211 C2212 1.410 . S
C2211 C2219 1.503 . S
C2212 C2211 1.410 . S
C2212 C2213 1.392 . S
C2212 C2215 1.511 . S
C2213 C2209 1.376 . S
C2213 C2212 1.392 . S
C2213 H2225 0.929 . S
C2214 C2210 1.531 . S
C2214 H2226 0.960 . S
C2214 H2227 0.962 . S
C2214 H2228 0.960 . S
C2215 C2212 1.511 . S
C2215 H2229 0.961 . S
C2215 H2230 0.961 . S
C2215 H2231 0.961 . S
C2216 C2217 1.370 . S
C2216 C2218 1.363 . S
C2216 H2232 0.931 . S
C2217 C2216 1.370 . S
C2217 C2221 1.408 . S
C2218 C2216 1.363 . S
C2218 C2219 1.370 . S
C2218 C2222 1.524 . S
C2219 C2211 1.503 . S
C2219 C2218 1.370 . S
C2219 C2220 1.403 . S
C2220 C2219 1.403 . S
C2220 C2221 1.404 . S
C2220 C2223 1.539 . S
C2221 C2217 1.408 . S
C2221 C2220 1.404 . S
C2221 H2233 0.930 . S
C2222 C2218 1.524 . S
C2222 H2234 0.956 . S
C2222 H2235 0.961 . S
C2222 H2236 0.961 . S
C2223 C2220 1.539 . S
C2223 H2237 0.958 . S
C2223 H2238 0.961 . S
C2223 H2239 0.960 . S
H2224 C2208 0.931 . S
H2225 C2213 0.929 . S
H2226 C2214 0.960 . S
H2227 C2214 0.962 . S
H2228 C2214 0.960 . S
H2229 C2215 0.961 . S
H2230 C2215 0.961 . S
H2231 C2215 0.961 . S
H2232 C2216 0.931 . S
H2233 C2221 0.930 . S
H2234 C2222 0.956 . S
H2235 C2222 0.961 . S
H2236 C2222 0.961 . S
H2237 C2223 0.958 . S
H2238 C2223 0.961 . S
H2239 C2223 0.960 . S
C2240 C2241 1.391 . S
C2240 C2242 1.394 . S
C2240 H2256 0.931 . S
C2241 C2240 1.391 . S
C2241 C2245 1.376 . S
C2242 C2240 1.394 . S
C2242 C2243 1.369 . S
C2242 C2246 1.531 . S
C2243 C2242 1.369 . S
C2243 C2244 1.410 . S
C2243 C2251 1.503 . S
C2244 C2243 1.410 . S
C2244 C2245 1.392 . S
C2244 C2247 1.511 . S
C2245 C2241 1.376 . S
C2245 C2244 1.392 . S
C2245 H2257 0.929 . S
C2246 C2242 1.531 . S
C2246 H2258 0.960 1_554 S
C2246 H2259 0.962 . S
C2246 H2260 0.960 . S
C2247 C2244 1.511 . S
C2247 H2261 0.961 . S
C2247 H2262 0.961 . S
C2247 H2263 0.961 . S
C2248 C2249 1.370 . S
C2248 C2250 1.363 1_556 S
C2248 H2264 0.931 . S
C2249 C2248 1.370 . S
C2249 C2253 1.408 . S
C2250 C2248 1.363 1_554 S
C2250 C2251 1.370 . S
C2250 C2254 1.524 . S
C2251 C2243 1.503 . S
C2251 C2250 1.370 . S
C2251 C2252 1.403 1_554 S
C2252 C2251 1.403 1_556 S
C2252 C2253 1.404 . S
C2252 C2255 1.539 . S
C2253 C2249 1.408 . S
C2253 C2252 1.404 . S
C2253 H2265 0.930 . S
C2254 C2250 1.524 . S
C2254 H2266 0.956 . S
C2254 H2267 0.961 . S
C2254 H2268 0.961 . S
C2255 C2252 1.539 . S
C2255 H2269 0.958 . S
C2255 H2270 0.961 . S
C2255 H2271 0.960 . S
H2256 C2240 0.931 . S
H2257 C2245 0.929 . S
H2258 C2246 0.960 1_556 S
H2259 C2246 0.962 . S
H2260 C2246 0.960 . S
H2261 C2247 0.961 . S
H2262 C2247 0.961 . S
H2263 C2247 0.961 . S
H2264 C2248 0.931 . S
H2265 C2253 0.930 . S
H2266 C2254 0.956 . S
H2267 C2254 0.961 . S
H2268 C2254 0.961 . S
H2269 C2255 0.958 . S
H2270 C2255 0.961 . S
H2271 C2255 0.960 . S
C2272 C2273 1.391 . S
C2272 C2274 1.394 . S
C2272 H2288 0.931 . S
C2273 C2272 1.391 . S
C2273 C2277 1.376 . S
C2274 C2272 1.394 . S
C2274 C2275 1.369 . S
C2274 C2278 1.531 . S
C2275 C2274 1.369 . S
C2275 C2276 1.410 . S
C2275 C2283 1.503 . S
C2276 C2275 1.410 . S
C2276 C2277 1.392 . S
C2276 C2279 1.511 . S
C2277 C2273 1.376 . S
C2277 C2276 1.392 . S
C2277 H2289 0.929 . S
C2278 C2274 1.531 . S
C2278 H2290 0.960 . S
C2278 H2291 0.962 . S
C2278 H2292 0.960 . S
C2279 C2276 1.511 . S
C2279 H2293 0.961 . S
C2279 H2294 0.961 . S
C2279 H2295 0.961 . S
C2280 C2281 1.370 . S
C2280 C2282 1.363 . S
C2280 H2296 0.931 . S
C2281 C2280 1.370 . S
C2281 C2285 1.408 . S
C2282 C2280 1.363 . S
C2282 C2283 1.370 . S
C2282 C2286 1.524 . S
C2283 C2275 1.503 . S
C2283 C2282 1.370 . S
C2283 C2284 1.403 . S
C2284 C2283 1.403 . S
C2284 C2285 1.404 . S
C2284 C2287 1.539 . S
C2285 C2281 1.408 . S
C2285 C2284 1.404 . S
C2285 H2297 0.930 . S
C2286 C2282 1.524 . S
C2286 H2298 0.956 . S
C2286 H2299 0.961 . S
C2286 H2300 0.961 . S
C2287 C2284 1.539 . S
C2287 H2301 0.958 . S
C2287 H2302 0.961 . S
C2287 H2303 0.960 . S
H2288 C2272 0.931 . S
H2289 C2277 0.929 . S
H2290 C2278 0.960 . S
H2291 C2278 0.962 . S
H2292 C2278 0.960 . S
H2293 C2279 0.961 . S
H2294 C2279 0.961 . S
H2295 C2279 0.961 . S
H2296 C2280 0.931 . S
H2297 C2285 0.930 . S
H2298 C2286 0.956 . S
H2299 C2286 0.961 . S
H2300 C2286 0.961 . S
H2301 C2287 0.958 . S
H2302 C2287 0.961 . S
H2303 C2287 0.960 . S
C2304 C2305 1.391 . S
C2304 C2306 1.394 . S
C2304 H2320 0.931 . S
C2305 C2304 1.391 . S
C2305 C2309 1.376 . S
C2306 C2304 1.394 . S
C2306 C2307 1.369 . S
C2306 C2310 1.531 . S
C2307 C2306 1.369 . S
C2307 C2308 1.410 . S
C2307 C2315 1.503 . S
C2308 C2307 1.410 . S
C2308 C2309 1.392 . S
C2308 C2311 1.511 . S
C2309 C2305 1.376 . S
C2309 C2308 1.392 . S
C2309 H2321 0.929 . S
C2310 C2306 1.531 . S
C2310 H2322 0.960 . S
C2310 H2323 0.962 . S
C2310 H2324 0.960 . S
C2311 C2308 1.511 . S
C2311 H2325 0.961 . S
C2311 H2326 0.961 . S
C2311 H2327 0.961 . S
C2312 C2313 1.370 . S
C2312 C2314 1.363 . S
C2312 H2328 0.931 . S
C2313 C2312 1.370 . S
C2313 C2317 1.408 . S
C2314 C2312 1.363 . S
C2314 C2315 1.370 . S
C2314 C2318 1.524 . S
C2315 C2307 1.503 . S
C2315 C2314 1.370 . S
C2315 C2316 1.403 . S
C2316 C2315 1.403 . S
C2316 C2317 1.404 . S
C2316 C2319 1.539 . S
C2317 C2313 1.408 . S
C2317 C2316 1.404 . S
C2317 H2329 0.930 . S
C2318 C2314 1.524 . S
C2318 H2330 0.956 . S
C2318 H2331 0.961 . S
C2318 H2332 0.961 . S
C2319 C2316 1.539 . S
C2319 H2333 0.958 . S
C2319 H2334 0.961 . S
C2319 H2335 0.960 . S
H2320 C2304 0.931 . S
H2321 C2309 0.929 . S
H2322 C2310 0.960 . S
H2323 C2310 0.962 . S
H2324 C2310 0.960 . S
H2325 C2311 0.961 . S
H2326 C2311 0.961 . S
H2327 C2311 0.961 . S
H2328 C2312 0.931 . S
H2329 C2317 0.930 . S
H2330 C2318 0.956 . S
H2331 C2318 0.961 . S
H2332 C2318 0.961 . S
H2333 C2319 0.958 . S
H2334 C2319 0.961 . S
H2335 C2319 0.960 . S
C2336 C2337 1.391 . S
C2336 C2338 1.394 . S
C2336 H2352 0.931 . S
C2337 C2336 1.391 . S
C2337 C2341 1.376 . S
C2338 C2336 1.394 . S
C2338 C2339 1.369 . S
C2338 C2342 1.531 . S
C2339 C2338 1.369 . S
C2339 C2340 1.410 . S
C2339 C2347 1.503 . S
C2340 C2339 1.410 . S
C2340 C2341 1.392 . S
C2340 C2343 1.511 . S
C2341 C2337 1.376 . S
C2341 C2340 1.392 . S
C2341 H2353 0.929 . S
C2342 C2338 1.531 . S
C2342 H2354 0.960 . S
C2342 H2355 0.962 . S
C2342 H2356 0.960 . S
C2343 C2340 1.511 . S
C2343 H2357 0.961 . S
C2343 H2358 0.961 . S
C2343 H2359 0.961 . S
C2344 C2345 1.370 . S
C2344 C2346 1.363 . S
C2344 H2360 0.931 . S
C2345 C2344 1.370 . S
C2345 C2349 1.408 . S
C2346 C2344 1.363 . S
C2346 C2347 1.370 . S
C2346 C2350 1.524 . S
C2347 C2339 1.503 . S
C2347 C2346 1.370 . S
C2347 C2348 1.403 . S
C2348 C2347 1.403 . S
C2348 C2349 1.404 . S
C2348 C2351 1.539 . S
C2349 C2345 1.408 . S
C2349 C2348 1.404 . S
C2349 H2361 0.930 . S
C2350 C2346 1.524 . S
C2350 H2362 0.956 . S
C2350 H2363 0.961 . S
C2350 H2364 0.961 . S
C2351 C2348 1.539 . S
C2351 H2365 0.958 . S
C2351 H2366 0.961 . S
C2351 H2367 0.960 . S
H2352 C2336 0.931 . S
H2353 C2341 0.929 . S
H2354 C2342 0.960 . S
H2355 C2342 0.962 . S
H2356 C2342 0.960 . S
H2357 C2343 0.961 . S
H2358 C2343 0.961 . S
H2359 C2343 0.961 . S
H2360 C2344 0.931 . S
H2361 C2349 0.930 . S
H2362 C2350 0.956 . S
H2363 C2350 0.961 . S
H2364 C2350 0.961 . S
H2365 C2351 0.958 . S
H2366 C2351 0.961 . S
H2367 C2351 0.960 . S
C2368 C2369 1.391 . S
C2368 C2370 1.394 . S
C2368 H2384 0.931 . S
C2369 C2368 1.391 . S
C2369 C2373 1.376 . S
C2370 C2368 1.394 . S
C2370 C2371 1.369 1_556 S
C2370 C2374 1.531 1_556 S
C2371 C2370 1.369 1_554 S
C2371 C2372 1.410 . S
C2371 C2379 1.503 . S
C2372 C2371 1.410 . S
C2372 C2373 1.392 1_554 S
C2372 C2375 1.511 . S
C2373 C2369 1.376 . S
C2373 C2372 1.392 1_556 S
C2373 H2385 0.929 . S
C2374 C2370 1.531 1_554 S
C2374 H2386 0.960 . S
C2374 H2387 0.962 . S
C2374 H2388 0.960 . S
C2375 C2372 1.511 . S
C2375 H2389 0.961 . S
C2375 H2390 0.961 . S
C2375 H2391 0.961 . S
C2376 C2377 1.370 . S
C2376 C2378 1.363 . S
C2376 H2392 0.931 . S
C2377 C2376 1.370 . S
C2377 C2381 1.408 . S
C2378 C2376 1.363 . S
C2378 C2379 1.370 . S
C2378 C2382 1.524 . S
C2379 C2371 1.503 . S
C2379 C2378 1.370 . S
C2379 C2380 1.403 . S
C2380 C2379 1.403 . S
C2380 C2381 1.404 . S
C2380 C2383 1.539 . S
C2381 C2377 1.408 . S
C2381 C2380 1.404 . S
C2381 H2393 0.930 . S
C2382 C2378 1.524 . S
C2382 H2394 0.956 1_554 S
C2382 H2395 0.961 1_554 S
C2382 H2396 0.961 . S
C2383 C2380 1.539 . S
C2383 H2397 0.958 . S
C2383 H2398 0.961 . S
C2383 H2399 0.960 . S
H2384 C2368 0.931 . S
H2385 C2373 0.929 . S
H2386 C2374 0.960 . S
H2387 C2374 0.962 . S
H2388 C2374 0.960 . S
H2389 C2375 0.961 . S
H2390 C2375 0.961 . S
H2391 C2375 0.961 . S
H2392 C2376 0.931 . S
H2393 C2381 0.930 . S
H2394 C2382 0.956 1_556 S
H2395 C2382 0.961 1_556 S
H2396 C2382 0.961 . S
H2397 C2383 0.958 . S
H2398 C2383 0.961 . S
H2399 C2383 0.960 . S
C2400 C2401 1.391 . S
C2400 C2402 1.394 . S
C2400 H2416 0.931 . S
C2401 C2400 1.391 . S
C2401 C2405 1.376 . S
C2402 C2400 1.394 . S
C2402 C2403 1.369 . S
C2402 C2406 1.531 . S
C2403 C2402 1.369 . S
C2403 C2404 1.410 . S
C2403 C2411 1.503 . S
C2404 C2403 1.410 . S
C2404 C2405 1.392 . S
C2404 C2407 1.511 . S
C2405 C2401 1.376 . S
C2405 C2404 1.392 . S
C2405 H2417 0.929 . S
C2406 C2402 1.531 . S
C2406 H2418 0.960 . S
C2406 H2419 0.962 . S
C2406 H2420 0.960 . S
C2407 C2404 1.511 . S
C2407 H2421 0.961 . S
C2407 H2422 0.961 . S
C2407 H2423 0.961 . S
C2408 C2409 1.370 . S
C2408 C2410 1.363 . S
C2408 H2424 0.931 . S
C2409 C2408 1.370 . S
C2409 C2413 1.408 . S
C2410 C2408 1.363 . S
C2410 C2411 1.370 . S
C2410 C2414 1.524 . S
C2411 C2403 1.503 . S
C2411 C2410 1.370 . S
C2411 C2412 1.403 . S
C2412 C2411 1.403 . S
C2412 C2413 1.404 . S
C2412 C2415 1.539 . S
C2413 C2409 1.408 . S
C2413 C2412 1.404 . S
C2413 H2425 0.930 . S
C2414 C2410 1.524 . S
C2414 H2426 0.956 . S
C2414 H2427 0.961 . S
C2414 H2428 0.961 . S
C2415 C2412 1.539 . S
C2415 H2429 0.958 . S
C2415 H2430 0.961 . S
C2415 H2431 0.960 . S
H2416 C2400 0.931 . S
H2417 C2405 0.929 . S
H2418 C2406 0.960 . S
H2419 C2406 0.962 . S
H2420 C2406 0.960 . S
H2421 C2407 0.961 . S
H2422 C2407 0.961 . S
H2423 C2407 0.961 . S
H2424 C2408 0.931 . S
H2425 C2413 0.930 . S
H2426 C2414 0.956 . S
H2427 C2414 0.961 . S
H2428 C2414 0.961 . S
H2429 C2415 0.958 . S
H2430 C2415 0.961 . S
H2431 C2415 0.960 . S
C2432 C2433 1.391 . S
C2432 C2434 1.394 . S
C2432 H2448 0.931 . S
C2433 C2432 1.391 . S
C2433 C2437 1.376 . S
C2434 C2432 1.394 . S
C2434 C2435 1.369 . S
C2434 C2438 1.531 . S
C2435 C2434 1.369 . S
C2435 C2436 1.410 . S
C2435 C2443 1.503 . S
C2436 C2435 1.410 . S
C2436 C2437 1.392 . S
C2436 C2439 1.511 . S
C2437 C2433 1.376 . S
C2437 C2436 1.392 . S
C2437 H2449 0.929 . S
C2438 C2434 1.531 . S
C2438 H2450 0.960 . S
C2438 H2451 0.962 . S
C2438 H2452 0.960 . S
C2439 C2436 1.511 . S
C2439 H2453 0.961 . S
C2439 H2454 0.961 . S
C2439 H2455 0.961 . S
C2440 C2441 1.370 . S
C2440 C2442 1.363 . S
C2440 H2456 0.931 . S
C2441 C2440 1.370 . S
C2441 C2445 1.408 . S
C2442 C2440 1.363 . S
C2442 C2443 1.370 . S
C2442 C2446 1.524 . S
C2443 C2435 1.503 . S
C2443 C2442 1.370 . S
C2443 C2444 1.403 . S
C2444 C2443 1.403 . S
C2444 C2445 1.404 . S
C2444 C2447 1.539 . S
C2445 C2441 1.408 . S
C2445 C2444 1.404 . S
C2445 H2457 0.930 . S
C2446 C2442 1.524 . S
C2446 H2458 0.956 . S
C2446 H2459 0.961 . S
C2446 H2460 0.961 . S
C2447 C2444 1.539 . S
C2447 H2461 0.958 . S
C2447 H2462 0.961 . S
C2447 H2463 0.960 . S
H2448 C2432 0.931 . S
H2449 C2437 0.929 . S
H2450 C2438 0.960 . S
H2451 C2438 0.962 . S
H2452 C2438 0.960 . S
H2453 C2439 0.961 . S
H2454 C2439 0.961 . S
H2455 C2439 0.961 . S
H2456 C2440 0.931 . S
H2457 C2445 0.930 . S
H2458 C2446 0.956 . S
H2459 C2446 0.961 . S
H2460 C2446 0.961 . S
H2461 C2447 0.958 . S
H2462 C2447 0.961 . S
H2463 C2447 0.960 . S
C417 C91 1.313 . S
C425 C0 1.308 1_556 S
C449 C13 1.309 . S
C457 C52 1.309 . S
C481 C65 1.307 . S
C489 C26 1.308 . S
C513 C39 1.311 . S
C521 C78 1.308 . S
C545 C104 1.315 . S
C553 C195 1.310 . S
C577 C117 1.316 . S
C585 C156 1.310 1_556 S
C609 C130 1.316 . S
C617 C169 1.311 . S
C641 C143 1.313 . S
C649 C182 1.310 . S
C673 C208 1.301 . S
C681 C299 1.303 . S
C705 C221 1.311 . S
C713 C260 1.310 . S
C737 C273 1.316 . S
C745 C234 1.311 1_556 S
C769 C286 1.300 . S
C777 C247 1.305 . S
C801 C312 1.316 . S
C809 C403 1.311 . S
C833 C364 1.291 . S
C841 C325 1.300 . S
C865 C377 1.298 . S
C873 C338 1.304 . S
C897 C351 1.285 . S
C905 C390 1.298 1_556 S
C929 C8 0.938 . S
C937 C86 0.935 . S
C961 C21 0.961 . S
C969 C99 0.945 . S
C993 C60 0.886 . S
C1001 C34 0.914 . S
C1025 C47 0.912 . S
C1033 C73 0.925 . S
C1057 C112 0.978 . S
C1065 C190 0.952 . S
C1089 C125 0.906 . S
C1097 C203 0.917 . S
C1121 C164 0.950 . S
C1129 C138 0.934 . S
C1153 C177 0.896 . S
C1161 C151 0.914 . S
C1185 C216 0.932 . S
C1193 C294 0.933 . S
C1217 C307 0.897 . S
C1225 C229 0.918 . S
C1249 C268 0.974 . S
C1257 C242 0.951 . S
C1281 C255 0.925 . S
C1289 C281 0.930 . S
C1313 C320 0.896 . S
C1321 C398 0.923 . S
C1345 C333 0.965 . S
C1353 C411 0.950 . S
C1377 C372 0.977 . S
C1385 C346 0.952 . S
C1409 C385 0.909 . S
C1417 C359 0.930 . S
C1441 C5 1.322 . S
C1449 C395 1.333 . S
C1473 C18 1.366 . S
C1481 C200 1.352 . S
C1505 C31 1.306 . S
C1513 C369 1.329 . S
C1537 C44 1.308 . S
C1545 C174 1.330 . S
C1569 C57 1.306 . S
C1577 C343 1.330 . S
C1601 C70 1.372 . S
C1609 C148 1.356 . S
C1633 C83 1.304 . S
C1641 C317 1.328 . S
C1665 C122 1.365 . S
C1673 C96 1.355 . S
C1697 C291 1.324 . S
C1705 C109 1.334 . S
C1729 C135 1.360 . S
C1737 C265 1.353 . S
C1761 C239 1.365 . S
C1769 C161 1.354 . S
C1793 C213 1.327 . S
C1801 C187 1.335 . S
C1825 C226 1.363 . S
C1833 C408 1.350 . S
C1857 C252 1.364 . S
C1865 C382 1.351 . S
C1889 C278 1.306 . S
C1897 C356 1.328 . S
C1921 C330 1.307 . S
C1929 C304 1.328 . S
C1953 C10 1.557 . S
C1961 C88 1.583 . S
C1985 C23 1.594 . S
C1993 C101 1.565 . S
C2017 C62 1.574 . S
C2025 C36 1.565 . S
C2049 C49 1.547 . S
C2057 C75 1.577 . S
C2081 C114 1.583 . S
C2089 C192 1.573 . S
C2113 C127 1.580 . S
C2121 C205 1.565 . S
C2145 C166 1.583 . S
C2153 C140 1.572 . S
C2177 C153 1.551 . S
C2185 C179 1.584 . S
C2209 C296 1.574 . S
C2217 C218 1.565 . S
C2241 C309 1.594 . S
C2249 C231 1.568 . S
C2273 C270 1.548 . S
C2281 C244 1.583 . S
C2305 C283 1.590 . S
C2313 C257 1.572 . S
C2337 C400 1.555 . S
C2345 C322 1.575 . S
C2369 C413 1.594 . S
C2377 C335 1.564 . S
C2401 C348 1.592 . S
C2409 C374 1.563 . S
C2433 C387 1.580 . S
C2441 C361 1.565 . S
