# Generated by pormake.
# Topology uoy, (4)-cn, num edge types: 1
# Building blocks:
#     Node 0, Type 0, BuildingBlock: AZAVOO_clean_sbu_0, # of connection points: 4
#     Node 1, Type 0, BuildingBlock: AZAVOO_clean_sbu_0, # of connection points: 4
#     Node 2, Type 0, BuildingBlock: AZAVOO_clean_sbu_0, # of connection points: 4
#     Node 3, Type 0, BuildingBlock: AZAVOO_clean_sbu_0, # of connection points: 4
#     Node 4, Type 0, BuildingBlock: AZAVOO_clean_sbu_0, # of connection points: 4
#     Node 5, Type 0, BuildingBlock: AZAVOO_clean_sbu_0, # of connection points: 4
#     Node 6, Type 0, BuildingBlock: AZAVOO_clean_sbu_0, # of connection points: 4
#     Node 7, Type 0, BuildingBlock: AZAVOO_clean_sbu_0, # of connection points: 4
#     Node 8, Type 0, BuildingBlock: AZAVOO_clean_sbu_0, # of connection points: 4
#     Node 9, Type 0, BuildingBlock: AZAVOO_clean_sbu_0, # of connection points: 4
#     Node 10, Type 0, BuildingBlock: AZAVOO_clean_sbu_0, # of connection points: 4
#     Node 11, Type 0, BuildingBlock: AZAVOO_clean_sbu_0, # of connection points: 4
#     Node 12, Type 0, BuildingBlock: AZAVOO_clean_sbu_0, # of connection points: 4
#     Node 13, Type 0, BuildingBlock: AZAVOO_clean_sbu_0, # of connection points: 4
#     Node 14, Type 0, BuildingBlock: AZAVOO_clean_sbu_0, # of connection points: 4
#     Node 15, Type 0, BuildingBlock: AZAVOO_clean_sbu_0, # of connection points: 4
#     Edge 16, Type (0, 0), BuildingBlock: XIVTED_clean_linker_0, # of connection points: 2
#     Edge 17, Type (0, 0), BuildingBlock: XIVTED_clean_linker_0, # of connection points: 2
#     Edge 18, Type (0, 0), BuildingBlock: XIVTED_clean_linker_0, # of connection points: 2
#     Edge 19, Type (0, 0), BuildingBlock: XIVTED_clean_linker_0, # of connection points: 2
#     Edge 20, Type (0, 0), BuildingBlock: XIVTED_clean_linker_0, # of connection points: 2
#     Edge 21, Type (0, 0), BuildingBlock: XIVTED_clean_linker_0, # of connection points: 2
#     Edge 22, Type (0, 0), BuildingBlock: XIVTED_clean_linker_0, # of connection points: 2
#     Edge 23, Type (0, 0), BuildingBlock: XIVTED_clean_linker_0, # of connection points: 2
#     Edge 24, Type (0, 0), BuildingBlock: XIVTED_clean_linker_0, # of connection points: 2
#     Edge 25, Type (0, 0), BuildingBlock: XIVTED_clean_linker_0, # of connection points: 2
#     Edge 26, Type (0, 0), BuildingBlock: XIVTED_clean_linker_0, # of connection points: 2
#     Edge 27, Type (0, 0), BuildingBlock: XIVTED_clean_linker_0, # of connection points: 2
#     Edge 28, Type (0, 0), BuildingBlock: XIVTED_clean_linker_0, # of connection points: 2
#     Edge 29, Type (0, 0), BuildingBlock: XIVTED_clean_linker_0, # of connection points: 2
#     Edge 30, Type (0, 0), BuildingBlock: XIVTED_clean_linker_0, # of connection points: 2
#     Edge 31, Type (0, 0), BuildingBlock: XIVTED_clean_linker_0, # of connection points: 2
#     Edge 32, Type (0, 0), BuildingBlock: XIVTED_clean_linker_0, # of connection points: 2
#     Edge 33, Type (0, 0), BuildingBlock: XIVTED_clean_linker_0, # of connection points: 2
#     Edge 34, Type (0, 0), BuildingBlock: XIVTED_clean_linker_0, # of connection points: 2
#     Edge 35, Type (0, 0), BuildingBlock: XIVTED_clean_linker_0, # of connection points: 2
#     Edge 36, Type (0, 0), BuildingBlock: XIVTED_clean_linker_0, # of connection points: 2
#     Edge 37, Type (0, 0), BuildingBlock: XIVTED_clean_linker_0, # of connection points: 2
#     Edge 38, Type (0, 0), BuildingBlock: XIVTED_clean_linker_0, # of connection points: 2
#     Edge 39, Type (0, 0), BuildingBlock: XIVTED_clean_linker_0, # of connection points: 2
#     Edge 40, Type (0, 0), BuildingBlock: XIVTED_clean_linker_0, # of connection points: 2
#     Edge 41, Type (0, 0), BuildingBlock: XIVTED_clean_linker_0, # of connection points: 2
#     Edge 42, Type (0, 0), BuildingBlock: XIVTED_clean_linker_0, # of connection points: 2
#     Edge 43, Type (0, 0), BuildingBlock: XIVTED_clean_linker_0, # of connection points: 2
#     Edge 44, Type (0, 0), BuildingBlock: XIVTED_clean_linker_0, # of connection points: 2
#     Edge 45, Type (0, 0), BuildingBlock: XIVTED_clean_linker_0, # of connection points: 2
#     Edge 46, Type (0, 0), BuildingBlock: XIVTED_clean_linker_0, # of connection points: 2
#     Edge 47, Type (0, 0), BuildingBlock: XIVTED_clean_linker_0, # of connection points: 2
# Relax obj value: 0.170
# Max RMSD: 0.199
# Mean RMSD: 0.199
data_MOF--net-uoy--node1-AZAVOO_clean_sbu_0--edge1-XIVTED_clean_linker_0
_symmetry_space_group_name_H-M    P1
_symmetry_Int_Tables_number       1
_symmetry_cell_setting            triclinic
loop_
_symmetry_equiv_pos_as_xyz
'x, y, z'
_cell_length_a     26.403664
_cell_length_b     26.344971
_cell_length_c     110.0683
_cell_angle_alpha  90.187493
_cell_angle_beta   89.875206
_cell_angle_gamma 90.05288
loop_
_atom_site_label
_atom_site_type_symbol
_atom_site_fract_x
_atom_site_fract_y
_atom_site_fract_z
_atom_type_partial_charge
Mg0 Mg 0.23167 0.2053 0.17286 0.0
O1 O 0.29438 0.14819 0.16779 0.0
O2 O 0.29058 0.13667 0.1477 0.0
Mg3 Mg 0.22563 0.1838 0.14 0.0
C4 C 0.31102 0.12804 0.15799 0.0
C5 C 0.20522 0.19714 0.20001 0.0
O6 O 0.16399 0.21796 0.19561 0.0
O7 O 0.16921 0.14545 0.17078 0.0
O8 O 0.16651 0.13802 0.15056 0.0
O9 O 0.28652 0.26891 0.16889 0.0
O10 O 0.23372 0.23498 0.15555 0.0
C11 C 0.14978 0.12679 0.16112 0.0
C12 C 0.2702 0.26566 0.15784 0.0
O13 O 0.24139 0.18643 0.19282 0.0
Mg14 Mg 0.88719 0.77045 0.42217 0.0
O15 O 0.9333 0.84355 0.41896 0.0
O16 O 0.96437 0.8395 0.40009 0.0
Mg17 Mg 0.93906 0.76505 0.39125 0.0
C18 C 0.95871 0.8627 0.4102 0.0
C19 C 0.84003 0.79808 0.44666 0.0
O20 O 0.80061 0.79618 0.43941 0.0
O21 O 0.95854 0.72184 0.42422 0.0
O22 O 0.98377 0.71697 0.40485 0.0
O23 O 0.8176 0.80685 0.41434 0.0
O24 O 0.87429 0.76389 0.40369 0.0
C25 C 0.9882 0.70449 0.41601 0.0
C26 C 0.83374 0.79072 0.40392 0.0
O27 O 0.88361 0.7882 0.44235 0.0
Mg28 Mg 0.23339 0.28349 0.68964 0.0
O29 O 0.18616 0.35023 0.68257 0.0
O30 O 0.1947 0.35105 0.66238 0.0
Mg31 Mg 0.25111 0.28938 0.65677 0.0
C32 C 0.17484 0.3682 0.67216 0.0
C33 C 0.24672 0.28807 0.71705 0.0
O34 O 0.28265 0.25658 0.71364 0.0
O35 O 0.30839 0.32751 0.68775 0.0
O36 O 0.31635 0.32484 0.66755 0.0
O37 O 0.16521 0.23526 0.68603 0.0
O38 O 0.2279 0.24709 0.67293 0.0
C39 C 0.3334 0.33669 0.67804 0.0
C40 C 0.18348 0.22946 0.67521 0.0
O41 O 0.22061 0.30998 0.70895 0.0
Mg42 Mg 0.75731 0.74368 0.9131 0.0
O43 O 0.68305 0.6983 0.91126 0.0
O44 O 0.66062 0.70144 0.89174 0.0
Mg45 Mg 0.71658 0.75294 0.88169 0.0
C46 C 0.65398 0.68506 0.90254 0.0
C47 C 0.7732 0.77583 0.93952 0.0
O48 O 0.80329 0.80753 0.93379 0.0
O49 O 0.7164 0.82001 0.91234 0.0
O50 O 0.69438 0.82393 0.89283 0.0
O51 O 0.79551 0.6707 0.9084 0.0
O52 O 0.77442 0.72961 0.89499 0.0
C53 C 0.69611 0.84338 0.90347 0.0
C54 C 0.7899 0.68416 0.89718 0.0
O55 O 0.74843 0.7432 0.93344 0.0
Mg56 Mg 0.23867 0.35233 0.05135 0.0
O57 O 0.30072 0.41124 0.04877 0.0
O58 O 0.2906 0.47528 0.06184 0.0
Mg59 Mg 0.22034 0.45638 0.07308 0.0
C60 C 0.31479 0.45359 0.05323 0.0
C61 C 0.29461 0.28438 0.03187 0.0
O62 O 0.3107 0.26061 0.0416 0.0
O63 O 0.17901 0.40241 0.04238 0.0
O64 O 0.16954 0.46366 0.05632 0.0
O65 O 0.28732 0.31459 0.06521 0.0
O66 O 0.23115 0.37416 0.06954 0.0
C67 C 0.15808 0.44317 0.04617 0.0
C68 C 0.26682 0.34458 0.07317 0.0
O69 O 0.26297 0.32041 0.03302 0.0
Mg70 Mg 0.66929 0.68303 0.30353 0.0
O71 O 0.60502 0.74174 0.30502 0.0
O72 O 0.56447 0.72792 0.32252 0.0
Mg73 Mg 0.59824 0.65788 0.33136 0.0
C74 C 0.57117 0.75352 0.31283 0.0
C75 C 0.68545 0.7519 0.28124 0.0
O76 O 0.67979 0.78641 0.28977 0.0
O77 O 0.61478 0.62073 0.29803 0.0
O78 O 0.57268 0.60711 0.31535 0.0
O79 O 0.71848 0.73572 0.31358 0.0
O80 O 0.67067 0.67731 0.32243 0.0
C81 C 0.58112 0.59733 0.30415 0.0
C82 C 0.70024 0.71619 0.32344 0.0
O83 O 0.68231 0.70519 0.28397 0.0
Mg84 Mg 0.21625 0.19772 0.57191 0.0
O85 O 0.17052 0.1243 0.57004 0.0
O86 O 0.18704 0.07634 0.58624 0.0
Mg87 Mg 0.24193 0.11955 0.59865 0.0
C88 C 0.16364 0.08408 0.57627 0.0
C89 C 0.19612 0.25888 0.5481 0.0
O90 O 0.19955 0.29733 0.55569 0.0
O91 O 0.29144 0.15798 0.56718 0.0
O92 O 0.3062 0.11832 0.58474 0.0
O93 O 0.15007 0.23149 0.5821 0.0
O94 O 0.21345 0.18999 0.59063 0.0
C95 C 0.31994 0.13171 0.5741 0.0
C96 C 0.16965 0.21082 0.59165 0.0
O97 O 0.20152 0.21402 0.55207 0.0
Mg98 Mg 0.74297 0.74105 0.80958 0.0
O99 O 0.81049 0.69488 0.81687 0.0
O100 O 0.80711 0.6985 0.83712 0.0
Mg101 Mg 0.74189 0.75082 0.84261 0.0
C102 C 0.82696 0.68176 0.82731 0.0
C103 C 0.76399 0.76768 0.78258 0.0
O104 O 0.73754 0.80772 0.78584 0.0
O105 O 0.78305 0.81744 0.81316 0.0
O106 O 0.77805 0.81994 0.83338 0.0
O107 O 0.69921 0.66911 0.81145 0.0
O108 O 0.70327 0.72829 0.82573 0.0
C109 C 0.79084 0.84001 0.82328 0.0
C110 C 0.69152 0.68255 0.82262 0.0
O111 O 0.77515 0.7348 0.79054 0.0
Mg112 Mg 0.7398 0.59959 0.67272 0.0
O113 O 0.81187 0.55058 0.67112 0.0
O114 O 0.80745 0.51057 0.65323 0.0
Mg115 Mg 0.73348 0.53127 0.64379 0.0
C116 C 0.8307 0.52091 0.66309 0.0
C117 C 0.75273 0.66171 0.69566 0.0
O118 O 0.73968 0.69502 0.68738 0.0
O119 O 0.68932 0.53132 0.67711 0.0
O120 O 0.6848 0.49491 0.65878 0.0
O121 O 0.77944 0.66233 0.66308 0.0
O122 O 0.73401 0.60337 0.65384 0.0
C123 C 0.67195 0.49716 0.66997 0.0
C124 C 0.76307 0.64249 0.65306 0.0
O125 O 0.75631 0.61528 0.69262 0.0
Mg126 Mg 0.43607 0.2464 0.92233 0.0
O127 O 0.47845 0.32111 0.9176 0.0
O128 O 0.48886 0.31956 0.89743 0.0
Mg129 Mg 0.45512 0.24708 0.88938 0.0
C130 C 0.49395 0.34154 0.90772 0.0
C131 C 0.4417 0.22024 0.94955 0.0
O132 O 0.43437 0.1751 0.94476 0.0
O133 O 0.50714 0.1973 0.91969 0.0
O134 O 0.51149 0.19578 0.89942 0.0
O135 O 0.36161 0.2848 0.91958 0.0
O136 O 0.40412 0.2452 0.90507 0.0
C137 C 0.52713 0.18115 0.90982 0.0
C138 C 0.36576 0.27233 0.90825 0.0
O139 O 0.44916 0.25774 0.94254 0.0
Mg140 Mg 0.7315 0.87255 0.16927 0.0
O141 O 0.66571 0.92878 0.1662 0.0
O142 O 0.66937 0.94942 0.14652 0.0
Mg143 Mg 0.73417 0.90726 0.13716 0.0
C144 C 0.64865 0.95282 0.15699 0.0
C145 C 0.75131 0.84564 0.19487 0.0
O146 O 0.77924 0.81514 0.18817 0.0
O147 O 0.79096 0.93539 0.16843 0.0
O148 O 0.79438 0.94907 0.14844 0.0
O149 O 0.68045 0.8073 0.16459 0.0
O150 O 0.72706 0.8503 0.15141 0.0
C151 C 0.81076 0.95697 0.1592 0.0
C152 C 0.69342 0.81611 0.15346 0.0
O153 O 0.72492 0.87925 0.18962 0.0
Mg154 Mg 0.20923 0.26896 0.43163 0.0
O155 O 0.14426 0.21679 0.42542 0.0
O156 O 0.13967 0.22323 0.40522 0.0
Mg157 Mg 0.1987 0.2807 0.39867 0.0
C158 C 0.12495 0.20374 0.41524 0.0
C159 C 0.18942 0.30013 0.45815 0.0
O160 O 0.20719 0.34255 0.45356 0.0
O161 O 0.16174 0.34078 0.42911 0.0
O162 O 0.1615 0.34715 0.40889 0.0
O163 O 0.26159 0.20329 0.42846 0.0
O164 O 0.24342 0.26209 0.41479 0.0
C165 C 0.15027 0.36453 0.4194 0.0
C166 C 0.26491 0.21982 0.41743 0.0
O167 O 0.18412 0.26176 0.45125 0.0
Mg168 Mg 0.71986 0.88411 0.55855 0.0
O169 O 0.79357 0.92826 0.56243 0.0
O170 O 0.79152 0.95129 0.58199 0.0
Mg171 Mg 0.71605 0.92694 0.59022 0.0
C172 C 0.81402 0.94886 0.57173 0.0
C173 C 0.77957 0.87199 0.53465 0.0
O174 O 0.8135 0.85755 0.54264 0.0
O175 O 0.67261 0.95664 0.55773 0.0
O176 O 0.67036 0.97788 0.57738 0.0
O177 O 0.75731 0.81282 0.56469 0.0
O178 O 0.71516 0.8649 0.57685 0.0
C179 C 0.65753 0.98546 0.56635 0.0
C180 C 0.74352 0.82548 0.57557 0.0
O181 O 0.73637 0.88668 0.53836 0.0
Mg182 Mg 0.06183 0.24686 0.82488 0.0
O183 O 0.01289 0.31899 0.82661 0.0
O184 O 0.98132 0.31842 0.84546 0.0
Mg185 Mg 0.00791 0.247 0.85537 0.0
C186 C 0.98672 0.33946 0.83509 0.0
C187 C 0.11479 0.243 0.80144 0.0
O188 O 0.14387 0.22197 0.80969 0.0
O189 O 0.99312 0.19468 0.82294 0.0
O190 O 0.9663 0.19259 0.84218 0.0
O191 O 0.12756 0.28972 0.83192 0.0
O192 O 0.07519 0.24626 0.84361 0.0
C193 C 0.96358 0.17739 0.83115 0.0
C194 C 0.11387 0.27593 0.8427 0.0
O195 O 0.07089 0.25789 0.80459 0.0
Mg196 Mg 0.7473 0.67211 0.05243 0.0
O197 O 0.68189 0.61729 0.04898 0.0
O198 O 0.68576 0.55551 0.06281 0.0
Mg199 Mg 0.75255 0.57263 0.07532 0.0
C200 C 0.6649 0.57646 0.05367 0.0
C201 C 0.76786 0.73497 0.02922 0.0
O202 O 0.80707 0.74918 0.03573 0.0
O203 O 0.80506 0.61645 0.04505 0.0
O204 O 0.80921 0.55812 0.05968 0.0
O205 O 0.69645 0.71653 0.06419 0.0
O206 O 0.74545 0.65415 0.07078 0.0
C207 C 0.82379 0.57597 0.04947 0.0
C208 C 0.71036 0.68705 0.07297 0.0
O209 O 0.736 0.70423 0.03373 0.0
Mg210 Mg 0.34819 0.18781 0.31104 0.0
O211 O 0.40561 0.12265 0.30929 0.0
O212 O 0.46595 0.13645 0.32312 0.0
Mg213 Mg 0.45024 0.21116 0.33279 0.0
C214 C 0.4461 0.10942 0.31475 0.0
C215 C 0.27543 0.18756 0.28891 0.0
O216 O 0.2531 0.22176 0.29578 0.0
O217 O 0.39989 0.24403 0.30141 0.0
O218 O 0.46013 0.25713 0.3153 0.0
O219 O 0.30725 0.14403 0.32547 0.0
O220 O 0.36897 0.19867 0.32911 0.0
C221 C 0.44045 0.26581 0.30493 0.0
C222 C 0.33765 0.16529 0.33319 0.0
O223 O 0.31442 0.16497 0.2929 0.0
H224 H 0.23445 0.40708 0.0915 0.0
H225 H 0.3415 0.22826 0.14257 0.0
H226 H 0.33611 0.2824 0.0842 0.0
H227 H 0.24898 0.35964 0.14953 0.0
H228 H 0.35618 0.25815 0.12182 0.0
H229 H 0.25396 0.40076 0.11297 0.0
C230 C 0.26155 0.37884 0.09436 0.0
C231 C 0.28324 0.34486 0.086 0.0
C232 C 0.334 0.28139 0.12798 0.0
C233 C 0.3051 0.33669 0.11077 0.0
C234 C 0.32611 0.26457 0.13984 0.0
C235 C 0.29438 0.29191 0.14768 0.0
C236 C 0.30894 0.32522 0.12393 0.0
C237 C 0.27419 0.33799 0.14372 0.0
C238 C 0.27271 0.37522 0.10669 0.0
C239 C 0.31809 0.30905 0.09033 0.0
N240 N 0.28106 0.35282 0.13203 0.0
N241 N 0.32731 0.30534 0.10245 0.0
H242 H 0.73288 0.77804 0.40012 0.0
H243 H 0.76555 0.79395 0.32812 0.0
H244 H 0.87158 0.82119 0.38219 0.0
H245 H 0.66161 0.69136 0.34587 0.0
H246 H 0.78993 0.82754 0.34797 0.0
H247 H 0.6915 0.77116 0.38019 0.0
C248 C 0.75406 0.78758 0.392 0.0
C249 C 0.80568 0.79948 0.39267 0.0
C250 C 0.76128 0.79814 0.34747 0.0
C251 C 0.75919 0.79167 0.37009 0.0
C252 C 0.74739 0.77883 0.33617 0.0
C253 C 0.71192 0.73927 0.33534 0.0
C254 C 0.73926 0.77808 0.35801 0.0
C255 C 0.68936 0.72153 0.34608 0.0
C256 C 0.73068 0.78321 0.38068 0.0
C257 C 0.83188 0.81104 0.38196 0.0
N258 N 0.70367 0.74086 0.357 0.0
N259 N 0.80842 0.80648 0.37107 0.0
H260 H 0.14987 0.12539 0.6044 0.0
H261 H 0.1075 0.28351 0.66496 0.0
H262 H 0.12752 0.28727 0.60518 0.0
H263 H 0.19095 0.14373 0.66181 0.0
H264 H 0.07903 0.27342 0.64385 0.0
H265 H 0.12719 0.12111 0.62584 0.0
C266 C 0.1392 0.15994 0.60905 0.0
C267 C 0.14201 0.20692 0.60319 0.0
C268 C 0.10192 0.24402 0.64795 0.0
C269 C 0.1163 0.20242 0.62769 0.0
C270 C 0.11784 0.24954 0.65998 0.0
C271 C 0.15158 0.21434 0.66498 0.0
C272 C 0.11955 0.20267 0.64108 0.0
C273 C 0.16473 0.17143 0.65821 0.0
C274 C 0.12601 0.15744 0.62127 0.0
C275 C 0.1263 0.25041 0.60949 0.0
N276 N 0.1491 0.16702 0.64652 0.0
N277 N 0.11524 0.24736 0.62156 0.0
H278 H 0.74837 0.59722 0.82454 0.0
H279 H 0.72377 0.60554 0.89608 0.0
H280 H 0.63292 0.68374 0.84297 0.0
H281 H 0.84247 0.67999 0.876 0.0
H282 H 0.68972 0.57185 0.87691 0.0
H283 H 0.77622 0.56379 0.84417 0.0
C284 C 0.72667 0.60653 0.83261 0.0
C285 C 0.68912 0.64418 0.83226 0.0
C286 C 0.72492 0.59302 0.87684 0.0
C287 C 0.71975 0.60518 0.85447 0.0
C288 C 0.74434 0.61229 0.88772 0.0
C289 C 0.78533 0.6462 0.88748 0.0
C290 C 0.7483 0.60621 0.86586 0.0
C291 C 0.81063 0.65414 0.87648 0.0
C292 C 0.74282 0.58759 0.84379 0.0
C293 C 0.66251 0.65531 0.84295 0.0
N294 N 0.79122 0.63487 0.86604 0.0
N295 N 0.6791 0.63673 0.85371 0.0
H296 H 0.75746 0.72332 0.57718 0.0
H297 H 0.81014 0.73303 0.64866 0.0
H298 H 0.76912 0.8617 0.598 0.0
H299 H 0.7429 0.60445 0.63037 0.0
H300 H 0.81849 0.77572 0.62905 0.0
H301 H 0.77549 0.67473 0.59568 0.0
C302 C 0.76441 0.74343 0.58561 0.0
C303 C 0.76044 0.79641 0.58619 0.0
C304 C 0.80261 0.73782 0.62935 0.0
C305 C 0.78151 0.74159 0.60719 0.0
C306 C 0.79796 0.71337 0.64052 0.0
C307 C 0.77522 0.66531 0.64118 0.0
C308 C 0.7848 0.71381 0.61879 0.0
C309 C 0.76026 0.64159 0.63032 0.0
C310 C 0.77451 0.71579 0.59613 0.0
C311 C 0.77008 0.82084 0.59727 0.0
N312 N 0.76497 0.66625 0.61957 0.0
N313 N 0.77992 0.79321 0.60737 0.0
H314 H 0.38017 0.29654 0.88441 0.0
H315 H 0.09574 0.25458 0.86674 0.0
H316 H 0.26414 0.28238 0.91182 0.0
H317 H 0.20239 0.32911 0.84294 0.0
H318 H 0.15479 0.26657 0.88363 0.0
H319 H 0.31481 0.31022 0.86915 0.0
C320 C 0.34089 0.29654 0.88721 0.0
C321 C 0.32736 0.28749 0.89932 0.0
C322 C 0.16476 0.28111 0.87475 0.0
C323 C 0.25232 0.30281 0.88193 0.0
C324 C 0.1311 0.27425 0.8651 0.0
C325 C 0.14446 0.29027 0.85338 0.0
C326 C 0.21227 0.30334 0.87256 0.0
C327 C 0.19073 0.31567 0.85179 0.0
C328 C 0.30357 0.30479 0.87853 0.0
C329 C 0.27596 0.28908 0.90253 0.0
N330 N 0.22335 0.32063 0.86123 0.0
N331 N 0.24008 0.29559 0.89383 0.0
H332 H 0.73251 0.63323 0.09358 0.0
H333 H 0.6454 0.8568 0.13417 0.0
H334 H 0.63787 0.75433 0.08025 0.0
H335 H 0.69268 0.71428 0.14946 0.0
H336 H 0.62935 0.81436 0.11483 0.0
H337 H 0.70702 0.65474 0.1143 0.0
C338 C 0.70561 0.66368 0.09499 0.0
C339 C 0.6883 0.6929 0.08521 0.0
C340 C 0.64194 0.79186 0.12247 0.0
C341 C 0.65941 0.71798 0.10886 0.0
C342 C 0.65107 0.81617 0.13348 0.0
C343 C 0.67076 0.78883 0.14325 0.0
C344 C 0.65445 0.7403 0.12115 0.0
C345 C 0.67748 0.73638 0.14204 0.0
C346 C 0.6909 0.67584 0.10682 0.0
C347 C 0.65304 0.73152 0.08754 0.0
N348 N 0.67063 0.71387 0.13103 0.0
N349 N 0.64056 0.74363 0.09915 0.0
H350 H 0.21747 0.14473 0.40497 0.0
H351 H 0.41004 0.18377 0.35039 0.0
H352 H 0.35721 0.22862 0.40707 0.0
H353 H 0.26078 0.11977 0.34597 0.0
H354 H 0.40083 0.17781 0.37223 0.0
H355 H 0.24235 0.1133 0.38479 0.0
C356 C 0.25427 0.15486 0.40133 0.0
C357 C 0.28569 0.18886 0.40758 0.0
C358 C 0.37025 0.16442 0.36651 0.0
C359 C 0.31375 0.15446 0.38459 0.0
C360 C 0.37546 0.16794 0.35397 0.0
C361 C 0.33567 0.15341 0.34629 0.0
C362 C 0.32452 0.147 0.37149 0.0
C363 C 0.29218 0.13204 0.35156 0.0
C364 C 0.26826 0.13734 0.38981 0.0
C365 C 0.33237 0.202 0.4025 0.0
N366 N 0.2873 0.13039 0.36387 0.0
N367 N 0.3448 0.1852 0.39122 0.0
H368 H 0.14007 0.22609 0.21813 0.0
H369 H 0.32065 0.12868 0.27145 0.0
H370 H 0.28236 0.14938 0.21202 0.0
H371 H 0.19427 0.2299 0.27724 0.0
H372 H 0.29943 0.12456 0.2499 0.0
H373 H 0.15221 0.21687 0.24001 0.0
C374 C 0.17371 0.20701 0.22138 0.0
C375 C 0.2105 0.18889 0.21323 0.0
C376 C 0.27612 0.14738 0.2559 0.0
C377 C 0.22452 0.17815 0.23826 0.0
C378 C 0.28809 0.14963 0.26822 0.0
C379 C 0.25948 0.18012 0.27615 0.0
C380 C 0.23516 0.17568 0.25146 0.0
C381 C 0.21762 0.20624 0.27145 0.0
C382 C 0.18063 0.20183 0.23388 0.0
C383 C 0.25322 0.16431 0.21797 0.0
N384 N 0.2069 0.20367 0.25939 0.0
N385 N 0.25915 0.15984 0.23017 0.0
H386 H 0.91178 0.79992 0.46466 0.0
H387 H 0.71516 0.89055 0.51575 0.0
H388 H 0.75324 0.82851 0.45801 0.0
H389 H 0.8678 0.84225 0.52365 0.0
H390 H 0.73135 0.87622 0.49418 0.0
H391 H 0.89894 0.82264 0.48602 0.0
C392 C 0.87432 0.81103 0.46768 0.0
C393 C 0.83346 0.81208 0.45956 0.0
C394 C 0.76138 0.86892 0.50063 0.0
C395 C 0.8186 0.83829 0.48392 0.0
C396 C 0.75221 0.87724 0.51294 0.0
C397 C 0.79007 0.86721 0.52152 0.0
C398 C 0.80879 0.85052 0.49685 0.0
C399 C 0.83741 0.85018 0.51736 0.0
C400 C 0.86703 0.82399 0.47987 0.0
C401 C 0.78578 0.8269 0.46396 0.0
N402 N 0.84537 0.84216 0.50531 0.0
N403 N 0.77968 0.83938 0.47584 0.0
H404 H 0.16321 0.33508 0.72677 0.0
H405 H 0.20641 0.21397 0.79244 0.0
H406 H 0.29364 0.24552 0.73661 0.0
H407 H 0.06958 0.29298 0.78241 0.0
H408 H 0.24125 0.23108 0.77241 0.0
H409 H 0.13167 0.32756 0.7476 0.0
C410 C 0.18559 0.31444 0.73335 0.0
C411 C 0.23095 0.29048 0.72992 0.0
C412 C 0.2036 0.24473 0.77455 0.0
C413 C 0.19479 0.28135 0.75369 0.0
C414 C 0.18355 0.23484 0.786 0.0
C415 C 0.13486 0.25189 0.7891 0.0
C416 C 0.17486 0.27192 0.76608 0.0
C417 C 0.10717 0.27891 0.78038 0.0
C418 C 0.16738 0.30992 0.74521 0.0
C419 C 0.25832 0.26427 0.73881 0.0
N420 N 0.12758 0.28808 0.76924 0.0
N421 N 0.23963 0.26013 0.75026 0.0
H422 H 0.69157 0.71148 0.0135 0.0
H423 H 0.83059 0.83041 0.95565 0.0
H424 H 0.83354 0.79256 0.01569 0.0
H425 H 0.70579 0.72463 0.95375 0.0
H426 H 0.82507 0.82841 0.97784 0.0
H427 H 0.68872 0.7285 -0.00821 0.0
C428 C 0.722 0.73324 0.00943 0.0
C429 C 0.76325 0.75005 0.01639 0.0
C430 C 0.79878 0.80589 0.97255 0.0
C431 C 0.76027 0.76943 -0.0085 0.0
C432 C 0.80186 0.80702 0.95989 0.0
C433 C 0.76892 0.77722 0.95286 0.0
C434 C 0.76229 0.77502 0.97816 0.0
C435 C 0.7323 0.74779 0.95882 0.0
C436 C 0.72037 0.74286 -0.00297 0.0
C437 C 0.80127 0.77852 0.01064 0.0
N438 N 0.73009 0.74731 0.97113 0.0
N439 N 0.79909 0.78698 -0.00151 0.0
H440 H 0.29184 0.34384 0.01164 0.0
H441 H 0.43013 0.1496 0.9676 0.0
H442 H 0.35044 0.2014 0.02483 0.0
H443 H 0.42515 0.31099 0.96102 0.0
H444 H 0.39704 0.16456 0.98813 0.0
H445 H 0.33398 0.32866 -0.00777 0.0
C446 C 0.31327 0.30914 0.01043 0.0
C447 C 0.31752 0.27373 0.01987 0.0
C448 C 0.40386 0.19665 0.98222 0.0
C449 C 0.36605 0.25626 -0.00236 0.0
C450 C 0.42281 0.1882 0.97052 0.0
C451 C 0.43013 0.22907 0.96255 0.0
C452 C 0.39135 0.24619 0.98586 0.0
C453 C 0.42005 0.2783 0.96683 0.0
C454 C 0.33771 0.30074 -0.00062 0.0
C455 C 0.3462 0.22967 0.01779 0.0
N456 N 0.4005 0.2854 0.97813 0.0
N457 N 0.36917 0.22197 0.00686 0.0
H458 H 0.72093 0.69208 0.26285 0.0
H459 H 0.70052 0.9033 0.21176 0.0
H460 H 0.67671 0.84619 0.27108 0.0
H461 H 0.79063 0.76742 0.20792 0.0
H462 H 0.6868 0.88257 0.2332 0.0
H463 H 0.74089 0.7178 0.24213 0.0
C464 C 0.71532 0.73134 0.26028 0.0
C465 C 0.69709 0.76708 0.26867 0.0
C466 C 0.70992 0.85764 0.22766 0.0
C467 C 0.71981 0.79672 0.24499 0.0
C468 C 0.71773 0.86938 0.21544 0.0
C469 C 0.74645 0.83682 0.20804 0.0
C470 C 0.73046 0.81276 0.2324 0.0
C471 C 0.76804 0.7935 0.21327 0.0
C472 C 0.72702 0.74606 0.24848 0.0
C473 C 0.6908 0.81749 0.26488 0.0
N474 N 0.75918 0.78247 0.22511 0.0
N475 N 0.70186 0.83082 0.25326 0.0
H476 H 0.16105 0.21571 0.47091 0.0
H477 H 0.1942 0.34931 0.53582 0.0
H478 H 0.19842 0.37422 0.47551 0.0
H479 H 0.17865 0.18755 0.53054 0.0
H480 H 0.18462 0.36131 0.51391 0.0
H481 H 0.15545 0.20714 0.49294 0.0
C482 C 0.16765 0.24884 0.47654 0.0
C483 C 0.1808 0.29563 0.47136 0.0
C484 C 0.18306 0.32324 0.51757 0.0
C485 C 0.17466 0.28601 0.49659 0.0
C486 C 0.18848 0.31637 0.53007 0.0
C487 C 0.1877 0.26733 0.535 0.0
C488 C 0.17661 0.28077 0.50997 0.0
C489 C 0.17998 0.22602 0.52713 0.0
C490 C 0.16457 0.24388 0.48913 0.0
C491 C 0.18863 0.33731 0.47912 0.0
N492 N 0.17494 0.23368 0.51501 0.0
N493 N 0.18579 0.33144 0.49136 0.0
H494 H 0.78404 0.6043 0.715 0.0
H495 H 0.74434 0.82849 0.76303 0.0
H496 H 0.74234 0.7571 0.70511 0.0
H497 H 0.80361 0.68117 0.77251 0.0
H498 H 0.74848 0.80459 0.7416 0.0
H499 H 0.79544 0.63268 0.736 0.0
C500 C 0.77746 0.64383 0.71723 0.0
C501 C 0.76182 0.67829 0.70831 0.0
C502 C 0.76107 0.77767 0.74836 0.0
C503 C 0.77477 0.71101 0.7323 0.0
C504 C 0.7588 0.79135 0.7606 0.0
C505 C 0.77313 0.75661 0.76959 0.0
C506 C 0.77739 0.72874 0.74508 0.0
C507 C 0.79184 0.70908 0.7659 0.0
C508 C 0.78412 0.66005 0.72921 0.0
C509 C 0.75415 0.72912 0.7117 0.0
N510 N 0.79287 0.69634 0.75393 0.0
N511 N 0.76036 0.74385 0.72343 0.0
H512 H 0.10322 0.07599 0.14266 0.0
H513 H 0.86428 0.97817 0.18018 0.0
H514 H 0.08882 0.10754 0.18106 0.0
H515 H 0.8662 0.00276 0.14139 0.0
H516 H 0.94875 0.01713 0.18148 0.0
H517 H 0.02026 0.03643 0.14292 0.0
C518 C 0.08285 0.07425 0.1512 0.0
C519 C 0.10297 0.09579 0.16183 0.0
C520 C 0.93026 0.01424 0.17274 0.0
C521 C 0.00707 0.05057 0.16214 0.0
C522 C 0.88201 0.99225 0.17198 0.0
C523 C 0.85805 0.98682 0.16064 0.0
C524 C 0.95476 0.03017 0.16207 0.0
C525 C 0.88301 0.00572 0.15032 0.0
C526 C 0.03518 0.05187 0.15132 0.0
C527 C 0.07473 0.09163 0.17264 0.0
N528 N 0.93002 0.026 0.15129 0.0
N529 N 0.02794 0.06968 0.17251 0.0
H530 H 0.10924 0.41339 0.43941 0.0
H531 H 0.06781 0.67081 0.40242 0.0
H532 H 0.14113 0.43382 0.40123 0.0
H533 H 0.98741 0.6407 0.43583 0.0
H534 H 0.11123 0.58987 0.40441 0.0
H535 H 0.07687 0.50095 0.44027 0.0
C536 C 0.10931 0.43607 0.43122 0.0
C537 C 0.12767 0.41597 0.42021 0.0
C538 C 0.0845 0.60114 0.41139 0.0
C539 C 0.09204 0.51609 0.42123 0.0
C540 C 0.05992 0.6476 0.41031 0.0
C541 C 0.02325 0.6623 0.41887 0.0
C542 C 0.07242 0.56881 0.42109 0.0
C543 C 0.01521 0.63078 0.42899 0.0
C544 C 0.09103 0.48599 0.43174 0.0
C545 C 0.12707 0.44725 0.40991 0.0
N546 N 0.03909 0.58505 0.42974 0.0
N547 N 0.10982 0.49559 0.41069 0.0
H548 H 0.38051 0.38838 0.69692 0.0
H549 H 0.64034 0.40879 0.65955 0.0
H550 H 0.40596 0.33127 0.6606 0.0
H551 H 0.60693 0.51006 0.6894 0.0
H552 H 0.56068 0.36493 0.6632 0.0
H553 H 0.46817 0.42112 0.69708 0.0
C554 C 0.40438 0.38265 0.68902 0.0
C555 C 0.38558 0.35754 0.67868 0.0
C556 C 0.57092 0.3964 0.66906 0.0
C557 C 0.48557 0.39356 0.67893 0.0
C558 C 0.61663 0.42132 0.66702 0.0
C559 C 0.63005 0.46373 0.67405 0.0
C560 C 0.5379 0.41401 0.67816 0.0
C561 C 0.59795 0.47769 0.68372 0.0
C562 C 0.45428 0.40123 0.68913 0.0
C563 C 0.41829 0.35094 0.66872 0.0
N564 N 0.55287 0.45336 0.68539 0.0
N565 N 0.46642 0.36867 0.66912 0.0
H566 H 0.58653 0.14662 0.89123 0.0
H567 H 0.67608 0.89347 0.92503 0.0
H568 H 0.55095 0.11754 0.92887 0.0
H569 H 0.67063 0.91258 0.88611 0.0
H570 H 0.64298 0.98009 0.92751 0.0
H571 H 0.63296 0.06697 0.89034 0.0
C572 C 0.58909 0.12389 0.89939 0.0
C573 C 0.5641 0.13867 0.9101 0.0
C574 C 0.64921 0.96519 0.91845 0.0
C575 C 0.61697 0.04652 0.90907 0.0
C576 C 0.66804 0.91579 0.91701 0.0
C577 C 0.67583 0.89544 0.90533 0.0
C578 C 0.63884 0.99465 0.90813 0.0
C579 C 0.66485 0.92626 0.89529 0.0
C580 C 0.61543 0.07813 0.89884 0.0
C581 C 0.56942 0.10766 0.9204 0.0
N582 N 0.64707 0.97414 0.89693 0.0
N583 N 0.59479 0.0627 0.9196 0.0
H584 H 0.13312 0.54199 0.04238 0.0
H585 H 0.88853 0.61959 0.03305 0.0
H586 H 0.07948 0.38918 0.03674 0.0
H587 H 0.86071 0.4796 0.05224 0.0
H588 H 0.97124 0.58679 0.02669 0.0
H589 H 0.04826 0.57383 0.03799 0.0
C590 C 0.10381 0.51535 0.03975 0.0
C591 C 0.11309 0.463 0.03991 0.0
C592 C 0.94659 0.56308 0.03213 0.0
C593 C 0.0158 0.49883 0.03519 0.0
C594 C 0.89927 0.58154 0.03571 0.0
C595 C 0.86821 0.55269 0.04344 0.0
C596 C 0.96258 0.51536 0.03625 0.0
C597 C 0.88395 0.50352 0.0465 0.0
C598 C 0.05539 0.53348 0.03721 0.0
C599 C 0.07379 0.42988 0.03662 0.0
N600 N 0.93033 0.48658 0.043 0.0
N601 N 0.02631 0.44825 0.03478 0.0
H602 H 0.62206 0.52696 0.28885 0.0
H603 H 0.38567 0.34017 0.29408 0.0
H604 H 0.48355 0.56595 0.3075 0.0
H605 H 0.53902 0.29271 0.30116 0.0
H606 H 0.41718 0.42526 0.28906 0.0
H607 H 0.58566 0.44373 0.28374 0.0
C608 C 0.5834 0.51864 0.29151 0.0
C609 C 0.55581 0.55292 0.29871 0.0
C610 C 0.44392 0.39556 0.29128 0.0
C611 C 0.51409 0.45892 0.29271 0.0
C612 C 0.42614 0.34702 0.29405 0.0
C613 C 0.45991 0.30972 0.29813 0.0
C614 C 0.49577 0.40615 0.29234 0.0
C615 C 0.51187 0.32069 0.29812 0.0
C616 C 0.56287 0.47126 0.28862 0.0
C617 C 0.50612 0.54023 0.30203 0.0
N618 N 0.52828 0.36821 0.2954 0.0
N619 N 0.48687 0.494 0.29906 0.0
H620 H 0.63519 0.0691 0.57992 0.0
H621 H 0.35877 0.10511 0.55154 0.0
H622 H 0.58726 0.98725 0.54792 0.0
H623 H 0.40149 0.13465 0.5887 0.0
H624 H 0.4476 0.08171 0.54704 0.0
H625 H 0.55612 0.11663 0.57959 0.0
C626 C 0.60848 0.06192 0.57265 0.0
C627 C 0.61739 0.02343 0.56408 0.0
C628 C 0.43732 0.09392 0.55612 0.0
C629 C 0.52611 0.07698 0.56382 0.0
C630 C 0.38688 0.1072 0.55868 0.0
C631 C 0.37282 0.12088 0.57055 0.0
C632 C 0.47362 0.0958 0.56545 0.0
C633 C 0.41052 0.12332 0.57948 0.0
C634 C 0.56319 0.08888 0.5725 0.0
C635 C 0.58169 0.01633 0.55476 0.0
N636 N 0.45897 0.11088 0.57675 0.0
N637 N 0.53696 0.04211 0.55502 0.0
H638 H 0.95892 0.11981 0.81015 0.0
H639 H 0.79567 0.90436 0.84267 0.0
H640 H 0.89215 0.13392 0.84585 0.0
H641 H 0.8363 0.89467 0.80471 0.0
H642 H 0.83125 0.98908 0.84353 0.0
H643 H 0.91326 0.03945 0.80734 0.0
C644 C 0.93405 0.1066 0.81731 0.0
C645 C 0.92986 0.13365 0.82832 0.0
C646 C 0.83238 0.96872 0.83497 0.0
C647 C 0.87815 0.04133 0.82519 0.0
C648 C 0.81222 0.91994 0.83448 0.0
C649 C 0.81314 0.89189 0.8236 0.0
C650 C 0.85431 0.99011 0.82455 0.0
C651 C 0.83484 0.91476 0.81329 0.0
C652 C 0.9082 0.06054 0.81571 0.0
C653 C 0.89711 0.1144 0.83726 0.0
N654 N 0.8549 0.96246 0.81404 0.0
N655 N 0.87306 0.06938 0.83554 0.0
H656 H 0.59024 0.97088 0.17742 0.0
H657 H 0.36299 0.08791 0.13873 0.0
H658 H 0.59627 0.99954 0.13882 0.0
H659 H 0.36819 0.10019 0.17785 0.0
H660 H 0.4451 0.04637 0.13898 0.0
H661 H 0.50667 0.01169 0.17815 0.0
C662 C 0.57433 0.98605 0.16913 0.0
C663 C 0.60049 0.9816 0.15804 0.0
C664 C 0.42832 0.05801 0.14753 0.0
C665 C 0.50471 0.02742 0.1588 0.0
C666 C 0.3811 0.08151 0.14741 0.0
C667 C 0.35849 0.0979 0.15829 0.0
C668 C 0.45339 0.05039 0.1586 0.0
C669 C 0.38417 0.08836 0.16924 0.0
C670 C 0.5266 0.00919 0.16956 0.0
C671 C 0.57781 0.00192 0.1476 0.0
N672 N 0.43033 0.06529 0.16912 0.0
N673 N 0.53127 0.02353 0.14823 0.0
H674 H 0.96734 0.92118 0.43092 0.0
H675 H 0.08313 0.15884 0.39514 0.0
H676 H 0.99801 0.92314 0.39236 0.0
H677 H 0.08881 0.14604 0.43423 0.0
H678 H 0.03881 0.07786 0.39418 0.0
H679 H 0.00101 0.0078 0.43245 0.0
C680 C 0.98114 0.93969 0.42278 0.0
C681 C 0.98008 0.91457 0.4115 0.0
C682 C 0.04937 0.09293 0.40298 0.0
C683 C 0.01791 0.01385 0.41319 0.0
C684 C 0.07443 0.13949 0.40356 0.0
C685 C 0.09027 0.15933 0.41479 0.0
C686 C 0.03978 0.06579 0.4137 0.0
C687 C 0.07763 0.13222 0.42536 0.0
C688 C 0.00028 0.98914 0.42368 0.0
C689 C 0.99837 0.94064 0.40127 0.0
N690 N 0.05347 0.08665 0.42455 0.0
N691 N 0.01636 0.98873 0.40237 0.0
H692 H 0.11887 0.41183 0.69058 0.0
H693 H 0.88984 0.47305 0.6462 0.0
H694 H 0.12826 0.40147 0.65147 0.0
H695 H 0.89098 0.52392 0.68354 0.0
H696 H 0.97665 0.44399 0.64845 0.0
H697 H 0.03626 0.45315 0.6886 0.0
C698 C 0.10415 0.41908 0.68158 0.0
C699 C 0.1306 0.40268 0.67118 0.0
C700 C 0.95807 0.46162 0.65616 0.0
C701 C 0.03558 0.44897 0.6689 0.0
C702 C 0.90818 0.47789 0.65492 0.0
C703 C 0.88276 0.50086 0.66471 0.0
C704 C 0.98298 0.46772 0.66732 0.0
C705 C 0.90898 0.50636 0.67575 0.0
C706 C 0.05684 0.44247 0.68047 0.0
C707 C 0.10942 0.41316 0.65976 0.0
N708 N 0.9576 0.48965 0.67678 0.0
N709 N 0.06298 0.43494 0.65894 0.0
H710 H 0.52114 0.40093 0.92746 0.0
H711 H 0.59274 0.63929 0.88568 0.0
H712 H 0.51384 0.40249 0.88827 0.0
H713 H 0.63629 0.63006 0.92341 0.0
H714 H 0.55007 0.55779 0.88756 0.0
H715 H 0.55274 0.48876 0.92703 0.0
C716 C 0.52624 0.41954 0.91878 0.0
C717 C 0.51506 0.39393 0.90788 0.0
C718 C 0.56848 0.5738 0.89548 0.0
C719 C 0.55026 0.49457 0.90736 0.0
C720 C 0.59253 0.62074 0.89445 0.0
C721 C 0.61865 0.64171 0.90438 0.0
C722 C 0.57026 0.54728 0.90653 0.0
C723 C 0.61687 0.61543 0.91549 0.0
C724 C 0.54414 0.46969 0.91855 0.0
C725 C 0.52223 0.42023 0.89692 0.0
N726 N 0.59356 0.56937 0.91624 0.0
N727 N 0.53916 0.46888 0.89695 0.0
H728 H 0.63148 0.47831 0.05411 0.0
H729 H 0.34815 0.55184 0.05515 0.0
H730 H 0.58612 0.62986 0.04415 0.0
H731 H 0.3939 0.40299 0.04282 0.0
H732 H 0.43472 0.58225 0.05167 0.0
H733 H 0.54469 0.44907 0.05049 0.0
C734 C 0.60343 0.50517 0.05096 0.0
C735 C 0.61578 0.55653 0.04947 0.0
C736 C 0.42541 0.5432 0.04951 0.0
C737 C 0.51667 0.52378 0.04563 0.0
C738 C 0.37618 0.52582 0.05154 0.0
C739 C 0.364 0.47476 0.04938 0.0
C740 C 0.4628 0.50892 0.04562 0.0
C741 C 0.40169 0.44265 0.04464 0.0
C742 C 0.55407 0.4885 0.04886 0.0
C743 C 0.57811 0.58988 0.04536 0.0
N744 N 0.44973 0.45999 0.04317 0.0
N745 N 0.52985 0.57316 0.04384 0.0
H746 H 0.43507 0.04764 0.29462 0.0
H747 H 0.51692 0.8034 0.33024 0.0
H748 H 0.50233 0.05333 0.33033 0.0
H749 H 0.56501 0.81608 0.29281 0.0
H750 H 0.48577 0.89027 0.32945 0.0
H751 H 0.46185 0.95816 0.29283 0.0
C752 C 0.45582 0.03032 0.302 0.0
C753 C 0.46662 0.05797 0.31263 0.0
C754 C 0.50261 0.87367 0.32138 0.0
C755 C 0.49535 0.95629 0.31079 0.0
C756 C 0.52009 0.82397 0.32176 0.0
C757 C 0.54419 0.80246 0.3116 0.0
C758 C 0.50832 0.90196 0.31072 0.0
C759 C 0.54707 0.83134 0.30088 0.0
C760 C 0.47092 0.97952 0.30097 0.0
C761 C 0.49346 0.03372 0.32194 0.0
N762 N 0.52944 0.87992 0.30071 0.0
N763 N 0.50618 0.98411 0.32088 0.0
H764 H 0.86989 0.97469 0.55146 0.0
H765 H 0.12508 0.0054 0.58959 0.0
H766 H 0.88042 0.95953 0.59042 0.0
H767 H 0.10112 0.08827 0.55628 0.0
H768 H 0.04172 0.96691 0.58729 0.0
H769 H 0.96002 0.99886 0.5509 0.0
C770 C 0.89104 0.97653 0.55987 0.0
C771 C 0.86744 0.9657 0.57103 0.0
C772 C 0.05508 0.99298 0.58039 0.0
C773 C 0.97024 0.99152 0.57037 0.0
C774 C 0.10293 0.01469 0.58163 0.0
C775 C 0.11995 0.05097 0.57324 0.0
C776 C 0.02406 0.00716 0.57065 0.0
C777 C 0.08934 0.06103 0.56307 0.0
C778 C 0.94233 0.99011 0.55953 0.0
C779 C 0.89672 0.96826 0.58164 0.0
N780 N 0.04253 0.0397 0.56213 0.0
N781 N 0.94652 0.98063 0.58104 0.0
H782 H 0.86848 0.64032 0.8478 0.0
H783 H 0.98074 0.39524 0.81397 0.0
H784 H 0.86539 0.62253 0.80879 0.0
H785 H 0.9453 0.40233 0.85226 0.0
H786 H 0.94955 0.48245 0.81178 0.0
H787 H 0.91055 0.55837 0.84944 0.0
C788 C 0.87742 0.61971 0.83955 0.0
C789 C 0.86267 0.63833 0.82815 0.0
C790 C 0.94863 0.46476 0.82064 0.0
C791 C 0.91069 0.54379 0.82999 0.0
C792 C 0.96627 0.41493 0.8219 0.0
C793 C 0.96543 0.39111 0.83331 0.0
C794 C 0.93062 0.49119 0.83088 0.0
C795 C 0.94643 0.41876 0.84326 0.0
C796 C 0.90116 0.57261 0.84051 0.0
C797 C 0.87576 0.60975 0.81779 0.0
N798 N 0.93001 0.4672 0.84182 0.0
N799 N 0.8986 0.5637 0.81896 0.0
loop_
_geom_bond_atom_site_label_1
_geom_bond_atom_site_label_2
_geom_bond_distance
_geom_bond_site_symmetry_2
_ccdc_geom_bond_type
Mg0 O1 2.028 . S
Mg0 O7 1.986 . S
Mg0 O9 2.114 . S
Mg0 O10 2.251 . S
Mg0 O13 2.010 . S
O1 Mg0 2.028 . S
O1 C4 1.250 . S
O2 Mg3 2.028 . S
O2 C4 1.248 . S
Mg3 O2 2.028 . S
Mg3 O8 2.032 . S
Mg3 O10 2.079 . S
C4 O1 1.250 . S
C4 O2 1.248 . S
C5 O6 1.264 . S
C5 O13 1.249 . S
O6 C5 1.264 . S
O7 Mg0 1.986 . S
O7 C11 1.246 . S
O8 Mg3 2.032 . S
O8 C11 1.259 . S
O9 Mg0 2.114 . S
O9 C12 1.252 . S
O10 Mg0 2.251 . S
O10 Mg3 2.079 . S
O10 C12 1.273 . S
C11 O7 1.246 . S
C11 O8 1.259 . S
C12 O9 1.252 . S
C12 O10 1.273 . S
O13 Mg0 2.010 . S
O13 C5 1.249 . S
Mg14 O15 2.028 . S
Mg14 O21 1.986 . S
Mg14 O23 2.114 . S
Mg14 O24 2.251 . S
Mg14 O27 2.010 . S
O15 Mg14 2.028 . S
O15 C18 1.250 . S
O16 Mg17 2.028 . S
O16 C18 1.248 . S
Mg17 O16 2.028 . S
Mg17 O22 2.032 . S
Mg17 O24 2.079 . S
C18 O15 1.250 . S
C18 O16 1.248 . S
C19 O20 1.264 . S
C19 O27 1.249 . S
O20 C19 1.264 . S
O21 Mg14 1.986 . S
O21 C25 1.246 . S
O22 Mg17 2.032 . S
O22 C25 1.259 . S
O23 Mg14 2.114 . S
O23 C26 1.252 . S
O24 Mg14 2.251 . S
O24 Mg17 2.079 . S
O24 C26 1.273 . S
C25 O21 1.246 . S
C25 O22 1.259 . S
C26 O23 1.252 . S
C26 O24 1.273 . S
O27 Mg14 2.010 . S
O27 C19 1.249 . S
Mg28 O29 2.028 . S
Mg28 O35 1.986 . S
Mg28 O37 2.114 . S
Mg28 O38 2.251 . S
Mg28 O41 2.010 . S
O29 Mg28 2.028 . S
O29 C32 1.250 . S
O30 Mg31 2.028 . S
O30 C32 1.248 . S
Mg31 O30 2.028 . S
Mg31 O36 2.032 . S
Mg31 O38 2.079 . S
C32 O29 1.250 . S
C32 O30 1.248 . S
C33 O34 1.264 . S
C33 O41 1.249 . S
O34 C33 1.264 . S
O35 Mg28 1.986 . S
O35 C39 1.246 . S
O36 Mg31 2.032 . S
O36 C39 1.259 . S
O37 Mg28 2.114 . S
O37 C40 1.252 . S
O38 Mg28 2.251 . S
O38 Mg31 2.079 . S
O38 C40 1.273 . S
C39 O35 1.246 . S
C39 O36 1.259 . S
C40 O37 1.252 . S
C40 O38 1.273 . S
O41 Mg28 2.010 . S
O41 C33 1.249 . S
Mg42 O43 2.028 . S
Mg42 O49 1.986 . S
Mg42 O51 2.114 . S
Mg42 O52 2.251 . S
Mg42 O55 2.010 . S
O43 Mg42 2.028 . S
O43 C46 1.250 . S
O44 Mg45 2.028 . S
O44 C46 1.248 . S
Mg45 O44 2.028 . S
Mg45 O50 2.032 . S
Mg45 O52 2.079 . S
C46 O43 1.250 . S
C46 O44 1.248 . S
C47 O48 1.264 . S
C47 O55 1.249 . S
O48 C47 1.264 . S
O49 Mg42 1.986 . S
O49 C53 1.246 . S
O50 Mg45 2.032 . S
O50 C53 1.259 . S
O51 Mg42 2.114 . S
O51 C54 1.252 . S
O52 Mg42 2.251 . S
O52 Mg45 2.079 . S
O52 C54 1.273 . S
C53 O49 1.246 . S
C53 O50 1.259 . S
C54 O51 1.252 . S
C54 O52 1.273 . S
O55 Mg42 2.010 . S
O55 C47 1.249 . S
Mg56 O57 2.028 . S
Mg56 O63 1.986 . S
Mg56 O65 2.114 . S
Mg56 O66 2.251 . S
Mg56 O69 2.010 . S
O57 Mg56 2.028 . S
O57 C60 1.250 . S
O58 Mg59 2.028 . S
O58 C60 1.248 . S
Mg59 O58 2.028 . S
Mg59 O64 2.032 . S
Mg59 O66 2.079 . S
C60 O57 1.250 . S
C60 O58 1.248 . S
C61 O62 1.264 . S
C61 O69 1.249 . S
O62 C61 1.264 . S
O63 Mg56 1.986 . S
O63 C67 1.246 . S
O64 Mg59 2.032 . S
O64 C67 1.259 . S
O65 Mg56 2.114 . S
O65 C68 1.252 . S
O66 Mg56 2.251 . S
O66 Mg59 2.079 . S
O66 C68 1.273 . S
C67 O63 1.246 . S
C67 O64 1.259 . S
C68 O65 1.252 . S
C68 O66 1.273 . S
O69 Mg56 2.010 . S
O69 C61 1.249 . S
Mg70 O71 2.028 . S
Mg70 O77 1.986 . S
Mg70 O79 2.114 . S
Mg70 O80 2.251 . S
Mg70 O83 2.010 . S
O71 Mg70 2.028 . S
O71 C74 1.250 . S
O72 Mg73 2.028 . S
O72 C74 1.248 . S
Mg73 O72 2.028 . S
Mg73 O78 2.032 . S
Mg73 O80 2.079 . S
C74 O71 1.250 . S
C74 O72 1.248 . S
C75 O76 1.264 . S
C75 O83 1.249 . S
O76 C75 1.264 . S
O77 Mg70 1.986 . S
O77 C81 1.246 . S
O78 Mg73 2.032 . S
O78 C81 1.259 . S
O79 Mg70 2.114 . S
O79 C82 1.252 . S
O80 Mg70 2.251 . S
O80 Mg73 2.079 . S
O80 C82 1.273 . S
C81 O77 1.246 . S
C81 O78 1.259 . S
C82 O79 1.252 . S
C82 O80 1.273 . S
O83 Mg70 2.010 . S
O83 C75 1.249 . S
Mg84 O85 2.028 . S
Mg84 O91 1.986 . S
Mg84 O93 2.114 . S
Mg84 O94 2.251 . S
Mg84 O97 2.010 . S
O85 Mg84 2.028 . S
O85 C88 1.250 . S
O86 Mg87 2.028 . S
O86 C88 1.248 . S
Mg87 O86 2.028 . S
Mg87 O92 2.032 . S
Mg87 O94 2.079 . S
C88 O85 1.250 . S
C88 O86 1.248 . S
C89 O90 1.264 . S
C89 O97 1.249 . S
O90 C89 1.264 . S
O91 Mg84 1.986 . S
O91 C95 1.246 . S
O92 Mg87 2.032 . S
O92 C95 1.259 . S
O93 Mg84 2.114 . S
O93 C96 1.252 . S
O94 Mg84 2.251 . S
O94 Mg87 2.079 . S
O94 C96 1.273 . S
C95 O91 1.246 . S
C95 O92 1.259 . S
C96 O93 1.252 . S
C96 O94 1.273 . S
O97 Mg84 2.010 . S
O97 C89 1.249 . S
Mg98 O99 2.028 . S
Mg98 O105 1.986 . S
Mg98 O107 2.114 . S
Mg98 O108 2.251 . S
Mg98 O111 2.010 . S
O99 Mg98 2.028 . S
O99 C102 1.250 . S
O100 Mg101 2.028 . S
O100 C102 1.248 . S
Mg101 O100 2.028 . S
Mg101 O106 2.032 . S
Mg101 O108 2.079 . S
C102 O99 1.250 . S
C102 O100 1.248 . S
C103 O104 1.264 . S
C103 O111 1.249 . S
O104 C103 1.264 . S
O105 Mg98 1.986 . S
O105 C109 1.246 . S
O106 Mg101 2.032 . S
O106 C109 1.259 . S
O107 Mg98 2.114 . S
O107 C110 1.252 . S
O108 Mg98 2.251 . S
O108 Mg101 2.079 . S
O108 C110 1.273 . S
C109 O105 1.246 . S
C109 O106 1.259 . S
C110 O107 1.252 . S
C110 O108 1.273 . S
O111 Mg98 2.010 . S
O111 C103 1.249 . S
Mg112 O113 2.028 . S
Mg112 O119 1.986 . S
Mg112 O121 2.114 . S
Mg112 O122 2.251 . S
Mg112 O125 2.010 . S
O113 Mg112 2.028 . S
O113 C116 1.250 . S
O114 Mg115 2.028 . S
O114 C116 1.248 . S
Mg115 O114 2.028 . S
Mg115 O120 2.032 . S
Mg115 O122 2.079 . S
C116 O113 1.250 . S
C116 O114 1.248 . S
C117 O118 1.264 . S
C117 O125 1.249 . S
O118 C117 1.264 . S
O119 Mg112 1.986 . S
O119 C123 1.246 . S
O120 Mg115 2.032 . S
O120 C123 1.259 . S
O121 Mg112 2.114 . S
O121 C124 1.252 . S
O122 Mg112 2.251 . S
O122 Mg115 2.079 . S
O122 C124 1.273 . S
C123 O119 1.246 . S
C123 O120 1.259 . S
C124 O121 1.252 . S
C124 O122 1.273 . S
O125 Mg112 2.010 . S
O125 C117 1.249 . S
Mg126 O127 2.028 . S
Mg126 O133 1.986 . S
Mg126 O135 2.114 . S
Mg126 O136 2.251 . S
Mg126 O139 2.010 . S
O127 Mg126 2.028 . S
O127 C130 1.250 . S
O128 Mg129 2.028 . S
O128 C130 1.248 . S
Mg129 O128 2.028 . S
Mg129 O134 2.032 . S
Mg129 O136 2.079 . S
C130 O127 1.250 . S
C130 O128 1.248 . S
C131 O132 1.264 . S
C131 O139 1.249 . S
O132 C131 1.264 . S
O133 Mg126 1.986 . S
O133 C137 1.246 . S
O134 Mg129 2.032 . S
O134 C137 1.259 . S
O135 Mg126 2.114 . S
O135 C138 1.252 . S
O136 Mg126 2.251 . S
O136 Mg129 2.079 . S
O136 C138 1.273 . S
C137 O133 1.246 . S
C137 O134 1.259 . S
C138 O135 1.252 . S
C138 O136 1.273 . S
O139 Mg126 2.010 . S
O139 C131 1.249 . S
Mg140 O141 2.028 . S
Mg140 O147 1.986 . S
Mg140 O149 2.114 . S
Mg140 O150 2.251 . S
Mg140 O153 2.010 . S
O141 Mg140 2.028 . S
O141 C144 1.250 . S
O142 Mg143 2.028 . S
O142 C144 1.248 . S
Mg143 O142 2.028 . S
Mg143 O148 2.032 . S
Mg143 O150 2.079 . S
C144 O141 1.250 . S
C144 O142 1.248 . S
C145 O146 1.264 . S
C145 O153 1.249 . S
O146 C145 1.264 . S
O147 Mg140 1.986 . S
O147 C151 1.246 . S
O148 Mg143 2.032 . S
O148 C151 1.259 . S
O149 Mg140 2.114 . S
O149 C152 1.252 . S
O150 Mg140 2.251 . S
O150 Mg143 2.079 . S
O150 C152 1.273 . S
C151 O147 1.246 . S
C151 O148 1.259 . S
C152 O149 1.252 . S
C152 O150 1.273 . S
O153 Mg140 2.010 . S
O153 C145 1.249 . S
Mg154 O155 2.028 . S
Mg154 O161 1.986 . S
Mg154 O163 2.114 . S
Mg154 O164 2.251 . S
Mg154 O167 2.010 . S
O155 Mg154 2.028 . S
O155 C158 1.250 . S
O156 Mg157 2.028 . S
O156 C158 1.248 . S
Mg157 O156 2.028 . S
Mg157 O162 2.032 . S
Mg157 O164 2.079 . S
C158 O155 1.250 . S
C158 O156 1.248 . S
C159 O160 1.264 . S
C159 O167 1.249 . S
O160 C159 1.264 . S
O161 Mg154 1.986 . S
O161 C165 1.246 . S
O162 Mg157 2.032 . S
O162 C165 1.259 . S
O163 Mg154 2.114 . S
O163 C166 1.252 . S
O164 Mg154 2.251 . S
O164 Mg157 2.079 . S
O164 C166 1.273 . S
C165 O161 1.246 . S
C165 O162 1.259 . S
C166 O163 1.252 . S
C166 O164 1.273 . S
O167 Mg154 2.010 . S
O167 C159 1.249 . S
Mg168 O169 2.028 . S
Mg168 O175 1.986 . S
Mg168 O177 2.114 . S
Mg168 O178 2.251 . S
Mg168 O181 2.010 . S
O169 Mg168 2.028 . S
O169 C172 1.250 . S
O170 Mg171 2.028 . S
O170 C172 1.248 . S
Mg171 O170 2.028 . S
Mg171 O176 2.032 . S
Mg171 O178 2.079 . S
C172 O169 1.250 . S
C172 O170 1.248 . S
C173 O174 1.264 . S
C173 O181 1.249 . S
O174 C173 1.264 . S
O175 Mg168 1.986 . S
O175 C179 1.246 . S
O176 Mg171 2.032 . S
O176 C179 1.259 . S
O177 Mg168 2.114 . S
O177 C180 1.252 . S
O178 Mg168 2.251 . S
O178 Mg171 2.079 . S
O178 C180 1.273 . S
C179 O175 1.246 . S
C179 O176 1.259 . S
C180 O177 1.252 . S
C180 O178 1.273 . S
O181 Mg168 2.010 . S
O181 C173 1.249 . S
Mg182 O183 2.028 . S
Mg182 O189 1.986 . S
Mg182 O191 2.114 . S
Mg182 O192 2.251 . S
Mg182 O195 2.010 . S
O183 Mg182 2.028 . S
O183 C186 1.250 . S
O184 Mg185 2.028 . S
O184 C186 1.248 . S
Mg185 O184 2.028 . S
Mg185 O190 2.032 . S
Mg185 O192 2.079 . S
C186 O183 1.250 . S
C186 O184 1.248 . S
C187 O188 1.264 . S
C187 O195 1.249 . S
O188 C187 1.264 . S
O189 Mg182 1.986 . S
O189 C193 1.246 . S
O190 Mg185 2.032 . S
O190 C193 1.259 . S
O191 Mg182 2.114 . S
O191 C194 1.252 . S
O192 Mg182 2.251 . S
O192 Mg185 2.079 . S
O192 C194 1.273 . S
C193 O189 1.246 . S
C193 O190 1.259 . S
C194 O191 1.252 . S
C194 O192 1.273 . S
O195 Mg182 2.010 . S
O195 C187 1.249 . S
Mg196 O197 2.028 . S
Mg196 O203 1.986 . S
Mg196 O205 2.114 . S
Mg196 O206 2.251 . S
Mg196 O209 2.010 . S
O197 Mg196 2.028 . S
O197 C200 1.250 . S
O198 Mg199 2.028 . S
O198 C200 1.248 . S
Mg199 O198 2.028 . S
Mg199 O204 2.032 . S
Mg199 O206 2.079 . S
C200 O197 1.250 . S
C200 O198 1.248 . S
C201 O202 1.264 . S
C201 O209 1.249 . S
O202 C201 1.264 . S
O203 Mg196 1.986 . S
O203 C207 1.246 . S
O204 Mg199 2.032 . S
O204 C207 1.259 . S
O205 Mg196 2.114 . S
O205 C208 1.252 . S
O206 Mg196 2.251 . S
O206 Mg199 2.079 . S
O206 C208 1.273 . S
C207 O203 1.246 . S
C207 O204 1.259 . S
C208 O205 1.252 . S
C208 O206 1.273 . S
O209 Mg196 2.010 . S
O209 C201 1.249 . S
Mg210 O211 2.028 . S
Mg210 O217 1.986 . S
Mg210 O219 2.114 . S
Mg210 O220 2.251 . S
Mg210 O223 2.010 . S
O211 Mg210 2.028 . S
O211 C214 1.250 . S
O212 Mg213 2.028 . S
O212 C214 1.248 . S
Mg213 O212 2.028 . S
Mg213 O218 2.032 . S
Mg213 O220 2.079 . S
C214 O211 1.250 . S
C214 O212 1.248 . S
C215 O216 1.264 . S
C215 O223 1.249 . S
O216 C215 1.264 . S
O217 Mg210 1.986 . S
O217 C221 1.246 . S
O218 Mg213 2.032 . S
O218 C221 1.259 . S
O219 Mg210 2.114 . S
O219 C222 1.252 . S
O220 Mg210 2.251 . S
O220 Mg213 2.079 . S
O220 C222 1.273 . S
C221 O217 1.246 . S
C221 O218 1.259 . S
C222 O219 1.252 . S
C222 O220 1.273 . S
O223 Mg210 2.010 . S
O223 C215 1.249 . S
H224 C230 0.930 . S
H225 C234 0.930 . S
H226 C239 0.929 . S
H227 C237 0.929 . S
H228 C232 0.929 . S
H229 C238 0.929 . S
C230 H224 0.930 . S
C230 C231 1.367 . S
C230 C238 1.378 . S
C231 C230 1.367 . S
C231 C239 1.433 . S
C232 H228 0.929 . S
C232 C234 1.378 . S
C232 C236 1.350 . S
C233 C236 1.463 . S
C233 C238 1.350 . S
C233 N241 1.427 . S
C234 H225 0.930 . S
C234 C232 1.378 . S
C234 C235 1.367 . S
C235 C234 1.367 . S
C235 C237 1.433 . S
C236 C232 1.350 . S
C236 C233 1.463 . S
C236 N240 1.427 . S
C237 H227 0.929 . S
C237 C235 1.433 . S
C237 N240 1.384 . S
C238 H229 0.929 . S
C238 C230 1.378 . S
C238 C233 1.350 . S
C239 H226 0.929 . S
C239 C231 1.433 . S
C239 N241 1.384 . S
N240 C236 1.427 . S
N240 C237 1.384 . S
N241 C233 1.427 . S
N241 C239 1.384 . S
H242 C248 0.930 . S
H243 C252 0.930 . S
H244 C257 0.929 . S
H245 C255 0.929 . S
H246 C250 0.929 . S
H247 C256 0.929 . S
C248 H242 0.930 . S
C248 C249 1.367 . S
C248 C256 1.378 . S
C249 C248 1.367 . S
C249 C257 1.433 . S
C250 H246 0.929 . S
C250 C252 1.378 . S
C250 C254 1.350 . S
C251 C254 1.463 . S
C251 C256 1.350 . S
C251 N259 1.427 . S
C252 H243 0.930 . S
C252 C250 1.378 . S
C252 C253 1.367 . S
C253 C252 1.367 . S
C253 C255 1.433 . S
C254 C250 1.350 . S
C254 C251 1.463 . S
C254 N258 1.427 . S
C255 H245 0.929 . S
C255 C253 1.433 . S
C255 N258 1.384 . S
C256 H247 0.929 . S
C256 C248 1.378 . S
C256 C251 1.350 . S
C257 H244 0.929 . S
C257 C249 1.433 . S
C257 N259 1.384 . S
N258 C254 1.427 . S
N258 C255 1.384 . S
N259 C251 1.427 . S
N259 C257 1.384 . S
H260 C266 0.930 . S
H261 C270 0.930 . S
H262 C275 0.929 . S
H263 C273 0.929 . S
H264 C268 0.929 . S
H265 C274 0.929 . S
C266 H260 0.930 . S
C266 C267 1.367 . S
C266 C274 1.378 . S
C267 C266 1.367 . S
C267 C275 1.433 . S
C268 H264 0.929 . S
C268 C270 1.378 . S
C268 C272 1.350 . S
C269 C272 1.463 . S
C269 C274 1.350 . S
C269 N277 1.427 . S
C270 H261 0.930 . S
C270 C268 1.378 . S
C270 C271 1.367 . S
C271 C270 1.367 . S
C271 C273 1.433 . S
C272 C268 1.350 . S
C272 C269 1.463 . S
C272 N276 1.427 . S
C273 H263 0.929 . S
C273 C271 1.433 . S
C273 N276 1.384 . S
C274 H265 0.929 . S
C274 C266 1.378 . S
C274 C269 1.350 . S
C275 H262 0.929 . S
C275 C267 1.433 . S
C275 N277 1.384 . S
N276 C272 1.427 . S
N276 C273 1.384 . S
N277 C269 1.427 . S
N277 C275 1.384 . S
H278 C284 0.930 . S
H279 C288 0.930 . S
H280 C293 0.929 . S
H281 C291 0.929 . S
H282 C286 0.929 . S
H283 C292 0.929 . S
C284 H278 0.930 . S
C284 C285 1.367 . S
C284 C292 1.378 . S
C285 C284 1.367 . S
C285 C293 1.433 . S
C286 H282 0.929 . S
C286 C288 1.378 . S
C286 C290 1.350 . S
C287 C290 1.463 . S
C287 C292 1.350 . S
C287 N295 1.427 . S
C288 H279 0.930 . S
C288 C286 1.378 . S
C288 C289 1.367 . S
C289 C288 1.367 . S
C289 C291 1.433 . S
C290 C286 1.350 . S
C290 C287 1.463 . S
C290 N294 1.427 . S
C291 H281 0.929 . S
C291 C289 1.433 . S
C291 N294 1.384 . S
C292 H283 0.929 . S
C292 C284 1.378 . S
C292 C287 1.350 . S
C293 H280 0.929 . S
C293 C285 1.433 . S
C293 N295 1.384 . S
N294 C290 1.427 . S
N294 C291 1.384 . S
N295 C287 1.427 . S
N295 C293 1.384 . S
H296 C302 0.930 . S
H297 C306 0.930 . S
H298 C311 0.929 . S
H299 C309 0.929 . S
H300 C304 0.929 . S
H301 C310 0.929 . S
C302 H296 0.930 . S
C302 C303 1.367 . S
C302 C310 1.378 . S
C303 C302 1.367 . S
C303 C311 1.433 . S
C304 H300 0.929 . S
C304 C306 1.378 . S
C304 C308 1.350 . S
C305 C308 1.463 . S
C305 C310 1.350 . S
C305 N313 1.427 . S
C306 H297 0.930 . S
C306 C304 1.378 . S
C306 C307 1.367 . S
C307 C306 1.367 . S
C307 C309 1.433 . S
C308 C304 1.350 . S
C308 C305 1.463 . S
C308 N312 1.427 . S
C309 H299 0.929 . S
C309 C307 1.433 . S
C309 N312 1.384 . S
C310 H301 0.929 . S
C310 C302 1.378 . S
C310 C305 1.350 . S
C311 H298 0.929 . S
C311 C303 1.433 . S
C311 N313 1.384 . S
N312 C308 1.427 . S
N312 C309 1.384 . S
N313 C305 1.427 . S
N313 C311 1.384 . S
H314 C320 0.930 . S
H315 C324 0.930 . S
H316 C329 0.929 . S
H317 C327 0.929 . S
H318 C322 0.929 . S
H319 C328 0.929 . S
C320 H314 0.930 . S
C320 C321 1.367 . S
C320 C328 1.378 . S
C321 C320 1.367 . S
C321 C329 1.433 . S
C322 H318 0.929 . S
C322 C324 1.378 . S
C322 C326 1.350 . S
C323 C326 1.463 . S
C323 C328 1.350 . S
C323 N331 1.427 . S
C324 H315 0.930 . S
C324 C322 1.378 . S
C324 C325 1.367 . S
C325 C324 1.367 . S
C325 C327 1.433 . S
C326 C322 1.350 . S
C326 C323 1.463 . S
C326 N330 1.427 . S
C327 H317 0.929 . S
C327 C325 1.433 . S
C327 N330 1.384 . S
C328 H319 0.929 . S
C328 C320 1.378 . S
C328 C323 1.350 . S
C329 H316 0.929 . S
C329 C321 1.433 . S
C329 N331 1.384 . S
N330 C326 1.427 . S
N330 C327 1.384 . S
N331 C323 1.427 . S
N331 C329 1.384 . S
H332 C338 0.930 . S
H333 C342 0.930 . S
H334 C347 0.929 . S
H335 C345 0.929 . S
H336 C340 0.929 . S
H337 C346 0.929 . S
C338 H332 0.930 . S
C338 C339 1.367 . S
C338 C346 1.378 . S
C339 C338 1.367 . S
C339 C347 1.433 . S
C340 H336 0.929 . S
C340 C342 1.378 . S
C340 C344 1.350 . S
C341 C344 1.463 . S
C341 C346 1.350 . S
C341 N349 1.427 . S
C342 H333 0.930 . S
C342 C340 1.378 . S
C342 C343 1.367 . S
C343 C342 1.367 . S
C343 C345 1.433 . S
C344 C340 1.350 . S
C344 C341 1.463 . S
C344 N348 1.427 . S
C345 H335 0.929 . S
C345 C343 1.433 . S
C345 N348 1.384 . S
C346 H337 0.929 . S
C346 C338 1.378 . S
C346 C341 1.350 . S
C347 H334 0.929 . S
C347 C339 1.433 . S
C347 N349 1.384 . S
N348 C344 1.427 . S
N348 C345 1.384 . S
N349 C341 1.427 . S
N349 C347 1.384 . S
H350 C356 0.930 . S
H351 C360 0.930 . S
H352 C365 0.929 . S
H353 C363 0.929 . S
H354 C358 0.929 . S
H355 C364 0.929 . S
C356 H350 0.930 . S
C356 C357 1.367 . S
C356 C364 1.378 . S
C357 C356 1.367 . S
C357 C365 1.433 . S
C358 H354 0.929 . S
C358 C360 1.378 . S
C358 C362 1.350 . S
C359 C362 1.463 . S
C359 C364 1.350 . S
C359 N367 1.427 . S
C360 H351 0.930 . S
C360 C358 1.378 . S
C360 C361 1.367 . S
C361 C360 1.367 . S
C361 C363 1.433 . S
C362 C358 1.350 . S
C362 C359 1.463 . S
C362 N366 1.427 . S
C363 H353 0.929 . S
C363 C361 1.433 . S
C363 N366 1.384 . S
C364 H355 0.929 . S
C364 C356 1.378 . S
C364 C359 1.350 . S
C365 H352 0.929 . S
C365 C357 1.433 . S
C365 N367 1.384 . S
N366 C362 1.427 . S
N366 C363 1.384 . S
N367 C359 1.427 . S
N367 C365 1.384 . S
H368 C374 0.930 . S
H369 C378 0.930 . S
H370 C383 0.929 . S
H371 C381 0.929 . S
H372 C376 0.929 . S
H373 C382 0.929 . S
C374 H368 0.930 . S
C374 C375 1.367 . S
C374 C382 1.378 . S
C375 C374 1.367 . S
C375 C383 1.433 . S
C376 H372 0.929 . S
C376 C378 1.378 . S
C376 C380 1.350 . S
C377 C380 1.463 . S
C377 C382 1.350 . S
C377 N385 1.427 . S
C378 H369 0.930 . S
C378 C376 1.378 . S
C378 C379 1.367 . S
C379 C378 1.367 . S
C379 C381 1.433 . S
C380 C376 1.350 . S
C380 C377 1.463 . S
C380 N384 1.427 . S
C381 H371 0.929 . S
C381 C379 1.433 . S
C381 N384 1.384 . S
C382 H373 0.929 . S
C382 C374 1.378 . S
C382 C377 1.350 . S
C383 H370 0.929 . S
C383 C375 1.433 . S
C383 N385 1.384 . S
N384 C380 1.427 . S
N384 C381 1.384 . S
N385 C377 1.427 . S
N385 C383 1.384 . S
H386 C392 0.930 . S
H387 C396 0.930 . S
H388 C401 0.929 . S
H389 C399 0.929 . S
H390 C394 0.929 . S
H391 C400 0.929 . S
C392 H386 0.930 . S
C392 C393 1.367 . S
C392 C400 1.378 . S
C393 C392 1.367 . S
C393 C401 1.433 . S
C394 H390 0.929 . S
C394 C396 1.378 . S
C394 C398 1.350 . S
C395 C398 1.463 . S
C395 C400 1.350 . S
C395 N403 1.427 . S
C396 H387 0.930 . S
C396 C394 1.378 . S
C396 C397 1.367 . S
C397 C396 1.367 . S
C397 C399 1.433 . S
C398 C394 1.350 . S
C398 C395 1.463 . S
C398 N402 1.427 . S
C399 H389 0.929 . S
C399 C397 1.433 . S
C399 N402 1.384 . S
C400 H391 0.929 . S
C400 C392 1.378 . S
C400 C395 1.350 . S
C401 H388 0.929 . S
C401 C393 1.433 . S
C401 N403 1.384 . S
N402 C398 1.427 . S
N402 C399 1.384 . S
N403 C395 1.427 . S
N403 C401 1.384 . S
H404 C410 0.930 . S
H405 C414 0.930 . S
H406 C419 0.929 . S
H407 C417 0.929 . S
H408 C412 0.929 . S
H409 C418 0.929 . S
C410 H404 0.930 . S
C410 C411 1.367 . S
C410 C418 1.378 . S
C411 C410 1.367 . S
C411 C419 1.433 . S
C412 H408 0.929 . S
C412 C414 1.378 . S
C412 C416 1.350 . S
C413 C416 1.463 . S
C413 C418 1.350 . S
C413 N421 1.427 . S
C414 H405 0.930 . S
C414 C412 1.378 . S
C414 C415 1.367 . S
C415 C414 1.367 . S
C415 C417 1.433 . S
C416 C412 1.350 . S
C416 C413 1.463 . S
C416 N420 1.427 . S
C417 H407 0.929 . S
C417 C415 1.433 . S
C417 N420 1.384 . S
C418 H409 0.929 . S
C418 C410 1.378 . S
C418 C413 1.350 . S
C419 H406 0.929 . S
C419 C411 1.433 . S
C419 N421 1.384 . S
N420 C416 1.427 . S
N420 C417 1.384 . S
N421 C413 1.427 . S
N421 C419 1.384 . S
H422 C428 0.930 . S
H423 C432 0.930 . S
H424 C437 0.929 . S
H425 C435 0.929 . S
H426 C430 0.929 . S
H427 C436 0.929 . S
C428 H422 0.930 . S
C428 C429 1.367 . S
C428 C436 1.378 . S
C429 C428 1.367 . S
C429 C437 1.433 . S
C430 H426 0.929 . S
C430 C432 1.378 . S
C430 C434 1.350 . S
C431 C434 1.463 1_554 S
C431 C436 1.350 . S
C431 N439 1.427 . S
C432 H423 0.930 . S
C432 C430 1.378 . S
C432 C433 1.367 . S
C433 C432 1.367 . S
C433 C435 1.433 . S
C434 C430 1.350 . S
C434 C431 1.463 1_556 S
C434 N438 1.427 . S
C435 H425 0.929 . S
C435 C433 1.433 . S
C435 N438 1.384 . S
C436 H427 0.929 . S
C436 C428 1.378 . S
C436 C431 1.350 . S
C437 H424 0.929 . S
C437 C429 1.433 . S
C437 N439 1.384 . S
N438 C434 1.427 . S
N438 C435 1.384 . S
N439 C431 1.427 . S
N439 C437 1.384 . S
H440 C446 0.930 . S
H441 C450 0.930 . S
H442 C455 0.929 . S
H443 C453 0.929 . S
H444 C448 0.929 . S
H445 C454 0.929 . S
C446 H440 0.930 . S
C446 C447 1.367 . S
C446 C454 1.378 . S
C447 C446 1.367 . S
C447 C455 1.433 . S
C448 H444 0.929 . S
C448 C450 1.378 . S
C448 C452 1.350 . S
C449 C452 1.463 1_554 S
C449 C454 1.350 . S
C449 N457 1.427 . S
C450 H441 0.930 . S
C450 C448 1.378 . S
C450 C451 1.367 . S
C451 C450 1.367 . S
C451 C453 1.433 . S
C452 C448 1.350 . S
C452 C449 1.463 1_556 S
C452 N456 1.427 . S
C453 H443 0.929 . S
C453 C451 1.433 . S
C453 N456 1.384 . S
C454 H445 0.929 . S
C454 C446 1.378 . S
C454 C449 1.350 . S
C455 H442 0.929 . S
C455 C447 1.433 . S
C455 N457 1.384 . S
N456 C452 1.427 . S
N456 C453 1.384 . S
N457 C449 1.427 . S
N457 C455 1.384 . S
H458 C464 0.930 . S
H459 C468 0.930 . S
H460 C473 0.929 . S
H461 C471 0.929 . S
H462 C466 0.929 . S
H463 C472 0.929 . S
C464 H458 0.930 . S
C464 C465 1.367 . S
C464 C472 1.378 . S
C465 C464 1.367 . S
C465 C473 1.433 . S
C466 H462 0.929 . S
C466 C468 1.378 . S
C466 C470 1.350 . S
C467 C470 1.463 . S
C467 C472 1.350 . S
C467 N475 1.427 . S
C468 H459 0.930 . S
C468 C466 1.378 . S
C468 C469 1.367 . S
C469 C468 1.367 . S
C469 C471 1.433 . S
C470 C466 1.350 . S
C470 C467 1.463 . S
C470 N474 1.427 . S
C471 H461 0.929 . S
C471 C469 1.433 . S
C471 N474 1.384 . S
C472 H463 0.929 . S
C472 C464 1.378 . S
C472 C467 1.350 . S
C473 H460 0.929 . S
C473 C465 1.433 . S
C473 N475 1.384 . S
N474 C470 1.427 . S
N474 C471 1.384 . S
N475 C467 1.427 . S
N475 C473 1.384 . S
H476 C482 0.930 . S
H477 C486 0.930 . S
H478 C491 0.929 . S
H479 C489 0.929 . S
H480 C484 0.929 . S
H481 C490 0.929 . S
C482 H476 0.930 . S
C482 C483 1.367 . S
C482 C490 1.378 . S
C483 C482 1.367 . S
C483 C491 1.433 . S
C484 H480 0.929 . S
C484 C486 1.378 . S
C484 C488 1.350 . S
C485 C488 1.463 . S
C485 C490 1.350 . S
C485 N493 1.427 . S
C486 H477 0.930 . S
C486 C484 1.378 . S
C486 C487 1.367 . S
C487 C486 1.367 . S
C487 C489 1.433 . S
C488 C484 1.350 . S
C488 C485 1.463 . S
C488 N492 1.427 . S
C489 H479 0.929 . S
C489 C487 1.433 . S
C489 N492 1.384 . S
C490 H481 0.929 . S
C490 C482 1.378 . S
C490 C485 1.350 . S
C491 H478 0.929 . S
C491 C483 1.433 . S
C491 N493 1.384 . S
N492 C488 1.427 . S
N492 C489 1.384 . S
N493 C485 1.427 . S
N493 C491 1.384 . S
H494 C500 0.930 . S
H495 C504 0.930 . S
H496 C509 0.929 . S
H497 C507 0.929 . S
H498 C502 0.929 . S
H499 C508 0.929 . S
C500 H494 0.930 . S
C500 C501 1.367 . S
C500 C508 1.378 . S
C501 C500 1.367 . S
C501 C509 1.433 . S
C502 H498 0.929 . S
C502 C504 1.378 . S
C502 C506 1.350 . S
C503 C506 1.463 . S
C503 C508 1.350 . S
C503 N511 1.427 . S
C504 H495 0.930 . S
C504 C502 1.378 . S
C504 C505 1.367 . S
C505 C504 1.367 . S
C505 C507 1.433 . S
C506 C502 1.350 . S
C506 C503 1.463 . S
C506 N510 1.427 . S
C507 H497 0.929 . S
C507 C505 1.433 . S
C507 N510 1.384 . S
C508 H499 0.929 . S
C508 C500 1.378 . S
C508 C503 1.350 . S
C509 H496 0.929 . S
C509 C501 1.433 . S
C509 N511 1.384 . S
N510 C506 1.427 . S
N510 C507 1.384 . S
N511 C503 1.427 . S
N511 C509 1.384 . S
H512 C518 0.930 1_565 S
H513 C522 0.930 1_545 S
H514 C527 0.929 . S
H515 C525 0.929 . S
H516 C520 0.929 . S
H517 C526 0.929 . S
C518 H512 0.930 1_545 S
C518 C519 1.367 . S
C518 C526 1.378 1_545 S
C519 C518 1.367 . S
C519 C527 1.433 . S
C520 H516 0.929 . S
C520 C522 1.378 1_545 S
C520 C524 1.350 1_545 S
C521 C524 1.463 1_445 S
C521 C526 1.350 1_545 S
C521 N529 1.427 . S
C522 H513 0.930 1_565 S
C522 C520 1.378 1_565 S
C522 C523 1.367 . S
C523 C522 1.367 . S
C523 C525 1.433 . S
C524 C520 1.350 1_565 S
C524 C521 1.463 1_665 S
C524 N528 1.427 . S
C525 H515 0.929 . S
C525 C523 1.433 . S
C525 N528 1.384 . S
C526 H517 0.929 . S
C526 C518 1.378 1_565 S
C526 C521 1.350 1_565 S
C527 H514 0.929 . S
C527 C519 1.433 . S
C527 N529 1.384 . S
N528 C524 1.427 . S
N528 C525 1.384 . S
N529 C521 1.427 . S
N529 C527 1.384 . S
H530 C536 0.930 . S
H531 C540 0.930 . S
H532 C545 0.929 . S
H533 C543 0.929 . S
H534 C538 0.929 . S
H535 C544 0.929 . S
C536 H530 0.930 . S
C536 C537 1.367 . S
C536 C544 1.378 . S
C537 C536 1.367 . S
C537 C545 1.433 . S
C538 H534 0.929 . S
C538 C540 1.378 . S
C538 C542 1.350 . S
C539 C542 1.463 1_455 S
C539 C544 1.350 . S
C539 N547 1.427 . S
C540 H531 0.930 . S
C540 C538 1.378 . S
C540 C541 1.367 . S
C541 C540 1.367 . S
C541 C543 1.433 . S
C542 C538 1.350 . S
C542 C539 1.463 1_655 S
C542 N546 1.427 . S
C543 H533 0.929 . S
C543 C541 1.433 . S
C543 N546 1.384 . S
C544 H535 0.929 . S
C544 C536 1.378 . S
C544 C539 1.350 . S
C545 H532 0.929 . S
C545 C537 1.433 . S
C545 N547 1.384 . S
N546 C542 1.427 . S
N546 C543 1.384 . S
N547 C539 1.427 . S
N547 C545 1.384 . S
H548 C554 0.930 . S
H549 C558 0.930 . S
H550 C563 0.929 . S
H551 C561 0.929 . S
H552 C556 0.929 . S
H553 C562 0.929 . S
C554 H548 0.930 . S
C554 C555 1.367 . S
C554 C562 1.378 . S
C555 C554 1.367 . S
C555 C563 1.433 . S
C556 H552 0.929 . S
C556 C558 1.378 . S
C556 C560 1.350 . S
C557 C560 1.463 . S
C557 C562 1.350 . S
C557 N565 1.427 . S
C558 H549 0.930 . S
C558 C556 1.378 . S
C558 C559 1.367 . S
C559 C558 1.367 . S
C559 C561 1.433 . S
C560 C556 1.350 . S
C560 C557 1.463 . S
C560 N564 1.427 . S
C561 H551 0.929 . S
C561 C559 1.433 . S
C561 N564 1.384 . S
C562 H553 0.929 . S
C562 C554 1.378 . S
C562 C557 1.350 . S
C563 H550 0.929 . S
C563 C555 1.433 . S
C563 N565 1.384 . S
N564 C560 1.427 . S
N564 C561 1.384 . S
N565 C557 1.427 . S
N565 C563 1.384 . S
H566 C572 0.930 . S
H567 C576 0.930 . S
H568 C581 0.929 . S
H569 C579 0.929 . S
H570 C574 0.929 . S
H571 C580 0.929 . S
C572 H566 0.930 . S
C572 C573 1.367 . S
C572 C580 1.378 . S
C573 C572 1.367 . S
C573 C581 1.433 . S
C574 H570 0.929 . S
C574 C576 1.378 . S
C574 C578 1.350 . S
C575 C578 1.463 1_545 S
C575 C580 1.350 . S
C575 N583 1.427 . S
C576 H567 0.930 . S
C576 C574 1.378 . S
C576 C577 1.367 . S
C577 C576 1.367 . S
C577 C579 1.433 . S
C578 C574 1.350 . S
C578 C575 1.463 1_565 S
C578 N582 1.427 . S
C579 H569 0.929 . S
C579 C577 1.433 . S
C579 N582 1.384 . S
C580 H571 0.929 . S
C580 C572 1.378 . S
C580 C575 1.350 . S
C581 H568 0.929 . S
C581 C573 1.433 . S
C581 N583 1.384 . S
N582 C578 1.427 . S
N582 C579 1.384 . S
N583 C575 1.427 . S
N583 C581 1.384 . S
H584 C590 0.930 . S
H585 C594 0.930 . S
H586 C599 0.929 . S
H587 C597 0.929 . S
H588 C592 0.929 . S
H589 C598 0.929 . S
C590 H584 0.930 . S
C590 C591 1.367 . S
C590 C598 1.378 . S
C591 C590 1.367 . S
C591 C599 1.433 . S
C592 H588 0.929 . S
C592 C594 1.378 . S
C592 C596 1.350 . S
C593 C596 1.463 1_455 S
C593 C598 1.350 . S
C593 N601 1.427 . S
C594 H585 0.930 . S
C594 C592 1.378 . S
C594 C595 1.367 . S
C595 C594 1.367 . S
C595 C597 1.433 . S
C596 C592 1.350 . S
C596 C593 1.463 1_655 S
C596 N600 1.427 . S
C597 H587 0.929 . S
C597 C595 1.433 . S
C597 N600 1.384 . S
C598 H589 0.929 . S
C598 C590 1.378 . S
C598 C593 1.350 . S
C599 H586 0.929 . S
C599 C591 1.433 . S
C599 N601 1.384 . S
N600 C596 1.427 . S
N600 C597 1.384 . S
N601 C593 1.427 . S
N601 C599 1.384 . S
H602 C608 0.930 . S
H603 C612 0.930 . S
H604 C617 0.929 . S
H605 C615 0.929 . S
H606 C610 0.929 . S
H607 C616 0.929 . S
C608 H602 0.930 . S
C608 C609 1.367 . S
C608 C616 1.378 . S
C609 C608 1.367 . S
C609 C617 1.433 . S
C610 H606 0.929 . S
C610 C612 1.378 . S
C610 C614 1.350 . S
C611 C614 1.463 . S
C611 C616 1.350 . S
C611 N619 1.427 . S
C612 H603 0.930 . S
C612 C610 1.378 . S
C612 C613 1.367 . S
C613 C612 1.367 . S
C613 C615 1.433 . S
C614 C610 1.350 . S
C614 C611 1.463 . S
C614 N618 1.427 . S
C615 H605 0.929 . S
C615 C613 1.433 . S
C615 N618 1.384 . S
C616 H607 0.929 . S
C616 C608 1.378 . S
C616 C611 1.350 . S
C617 H604 0.929 . S
C617 C609 1.433 . S
C617 N619 1.384 . S
N618 C614 1.427 . S
N618 C615 1.384 . S
N619 C611 1.427 . S
N619 C617 1.384 . S
H620 C626 0.930 1_545 S
H621 C630 0.930 1_565 S
H622 C635 0.929 . S
H623 C633 0.929 . S
H624 C628 0.929 . S
H625 C634 0.929 . S
C626 H620 0.930 1_565 S
C626 C627 1.367 . S
C626 C634 1.378 1_565 S
C627 C626 1.367 . S
C627 C635 1.433 . S
C628 H624 0.929 . S
C628 C630 1.378 1_565 S
C628 C632 1.350 1_565 S
C629 C632 1.463 1_565 S
C629 C634 1.350 1_565 S
C629 N637 1.427 . S
C630 H621 0.930 1_545 S
C630 C628 1.378 1_545 S
C630 C631 1.367 . S
C631 C630 1.367 . S
C631 C633 1.433 . S
C632 C628 1.350 1_545 S
C632 C629 1.463 1_545 S
C632 N636 1.427 . S
C633 H623 0.929 . S
C633 C631 1.433 . S
C633 N636 1.384 . S
C634 H625 0.929 . S
C634 C626 1.378 1_545 S
C634 C629 1.350 1_545 S
C635 H622 0.929 . S
C635 C627 1.433 . S
C635 N637 1.384 . S
N636 C632 1.427 . S
N636 C633 1.384 . S
N637 C629 1.427 . S
N637 C635 1.384 . S
H638 C644 0.930 . S
H639 C648 0.930 . S
H640 C653 0.929 . S
H641 C651 0.929 . S
H642 C646 0.929 . S
H643 C652 0.929 . S
C644 H638 0.930 . S
C644 C645 1.367 . S
C644 C652 1.378 . S
C645 C644 1.367 . S
C645 C653 1.433 . S
C646 H642 0.929 . S
C646 C648 1.378 . S
C646 C650 1.350 . S
C647 C650 1.463 1_445 S
C647 C652 1.350 . S
C647 N655 1.427 . S
C648 H639 0.930 . S
C648 C646 1.378 . S
C648 C649 1.367 . S
C649 C648 1.367 . S
C649 C651 1.433 . S
C650 C646 1.350 . S
C650 C647 1.463 1_665 S
C650 N654 1.427 . S
C651 H641 0.929 . S
C651 C649 1.433 . S
C651 N654 1.384 . S
C652 H643 0.929 . S
C652 C644 1.378 . S
C652 C647 1.350 . S
C653 H640 0.929 . S
C653 C645 1.433 . S
C653 N655 1.384 . S
N654 C650 1.427 . S
N654 C651 1.384 . S
N655 C647 1.427 . S
N655 C653 1.384 . S
H656 C662 0.930 . S
H657 C666 0.930 . S
H658 C671 0.929 . S
H659 C669 0.929 . S
H660 C664 0.929 . S
H661 C670 0.929 . S
C662 H656 0.930 . S
C662 C663 1.367 . S
C662 C670 1.378 . S
C663 C662 1.367 . S
C663 C671 1.433 . S
C664 H660 0.929 . S
C664 C666 1.378 . S
C664 C668 1.350 . S
C665 C668 1.463 1_565 S
C665 C670 1.350 . S
C665 N673 1.427 . S
C666 H657 0.930 . S
C666 C664 1.378 . S
C666 C667 1.367 . S
C667 C666 1.367 . S
C667 C669 1.433 . S
C668 C664 1.350 . S
C668 C665 1.463 1_545 S
C668 N672 1.427 . S
C669 H659 0.929 . S
C669 C667 1.433 . S
C669 N672 1.384 . S
C670 H661 0.929 . S
C670 C662 1.378 . S
C670 C665 1.350 . S
C671 H658 0.929 . S
C671 C663 1.433 . S
C671 N673 1.384 . S
N672 C668 1.427 . S
N672 C669 1.384 . S
N673 C665 1.427 . S
N673 C671 1.384 . S
H674 C680 0.930 . S
H675 C684 0.930 . S
H676 C689 0.929 . S
H677 C687 0.929 . S
H678 C682 0.929 . S
H679 C688 0.929 . S
C680 H674 0.930 . S
C680 C681 1.367 . S
C680 C688 1.378 1_655 S
C681 C680 1.367 . S
C681 C689 1.433 . S
C682 H678 0.929 . S
C682 C684 1.378 1_655 S
C682 C686 1.350 1_655 S
C683 C686 1.463 1_665 S
C683 C688 1.350 1_655 S
C683 N691 1.427 . S
C684 H675 0.930 . S
C684 C682 1.378 1_455 S
C684 C685 1.367 . S
C685 C684 1.367 . S
C685 C687 1.433 . S
C686 C682 1.350 1_455 S
C686 C683 1.463 1_445 S
C686 N690 1.427 . S
C687 H677 0.929 . S
C687 C685 1.433 . S
C687 N690 1.384 . S
C688 H679 0.929 . S
C688 C680 1.378 1_455 S
C688 C683 1.350 1_455 S
C689 H676 0.929 . S
C689 C681 1.433 . S
C689 N691 1.384 . S
N690 C686 1.427 . S
N690 C687 1.384 . S
N691 C683 1.427 . S
N691 C689 1.384 . S
H692 C698 0.930 . S
H693 C702 0.930 . S
H694 C707 0.929 . S
H695 C705 0.929 . S
H696 C700 0.929 . S
H697 C706 0.929 . S
C698 H692 0.930 . S
C698 C699 1.367 . S
C698 C706 1.378 . S
C699 C698 1.367 . S
C699 C707 1.433 . S
C700 H696 0.929 . S
C700 C702 1.378 . S
C700 C704 1.350 . S
C701 C704 1.463 1_455 S
C701 C706 1.350 . S
C701 N709 1.427 . S
C702 H693 0.930 . S
C702 C700 1.378 . S
C702 C703 1.367 . S
C703 C702 1.367 . S
C703 C705 1.433 . S
C704 C700 1.350 . S
C704 C701 1.463 1_655 S
C704 N708 1.427 . S
C705 H695 0.929 . S
C705 C703 1.433 . S
C705 N708 1.384 . S
C706 H697 0.929 . S
C706 C698 1.378 . S
C706 C701 1.350 . S
C707 H694 0.929 . S
C707 C699 1.433 . S
C707 N709 1.384 . S
N708 C704 1.427 . S
N708 C705 1.384 . S
N709 C701 1.427 . S
N709 C707 1.384 . S
H710 C716 0.930 . S
H711 C720 0.930 . S
H712 C725 0.929 . S
H713 C723 0.929 . S
H714 C718 0.929 . S
H715 C724 0.929 . S
C716 H710 0.930 . S
C716 C717 1.367 . S
C716 C724 1.378 . S
C717 C716 1.367 . S
C717 C725 1.433 . S
C718 H714 0.929 . S
C718 C720 1.378 . S
C718 C722 1.350 . S
C719 C722 1.463 . S
C719 C724 1.350 . S
C719 N727 1.427 . S
C720 H711 0.930 . S
C720 C718 1.378 . S
C720 C721 1.367 . S
C721 C720 1.367 . S
C721 C723 1.433 . S
C722 C718 1.350 . S
C722 C719 1.463 . S
C722 N726 1.427 . S
C723 H713 0.929 . S
C723 C721 1.433 . S
C723 N726 1.384 . S
C724 H715 0.929 . S
C724 C716 1.378 . S
C724 C719 1.350 . S
C725 H712 0.929 . S
C725 C717 1.433 . S
C725 N727 1.384 . S
N726 C722 1.427 . S
N726 C723 1.384 . S
N727 C719 1.427 . S
N727 C725 1.384 . S
H728 C734 0.930 . S
H729 C738 0.930 . S
H730 C743 0.929 . S
H731 C741 0.929 . S
H732 C736 0.929 . S
H733 C742 0.929 . S
C734 H728 0.930 . S
C734 C735 1.367 . S
C734 C742 1.378 . S
C735 C734 1.367 . S
C735 C743 1.433 . S
C736 H732 0.929 . S
C736 C738 1.378 . S
C736 C740 1.350 . S
C737 C740 1.463 . S
C737 C742 1.350 . S
C737 N745 1.427 . S
C738 H729 0.930 . S
C738 C736 1.378 . S
C738 C739 1.367 . S
C739 C738 1.367 . S
C739 C741 1.433 . S
C740 C736 1.350 . S
C740 C737 1.463 . S
C740 N744 1.427 . S
C741 H731 0.929 . S
C741 C739 1.433 . S
C741 N744 1.384 . S
C742 H733 0.929 . S
C742 C734 1.378 . S
C742 C737 1.350 . S
C743 H730 0.929 . S
C743 C735 1.433 . S
C743 N745 1.384 . S
N744 C740 1.427 . S
N744 C741 1.384 . S
N745 C737 1.427 . S
N745 C743 1.384 . S
H746 C752 0.930 . S
H747 C756 0.930 . S
H748 C761 0.929 . S
H749 C759 0.929 . S
H750 C754 0.929 . S
H751 C760 0.929 . S
C752 H746 0.930 . S
C752 C753 1.367 . S
C752 C760 1.378 . S
C753 C752 1.367 . S
C753 C761 1.433 . S
C754 H750 0.929 . S
C754 C756 1.378 . S
C754 C758 1.350 . S
C755 C758 1.463 1_545 S
C755 C760 1.350 . S
C755 N763 1.427 . S
C756 H747 0.930 . S
C756 C754 1.378 . S
C756 C757 1.367 . S
C757 C756 1.367 . S
C757 C759 1.433 . S
C758 C754 1.350 . S
C758 C755 1.463 1_565 S
C758 N762 1.427 . S
C759 H749 0.929 . S
C759 C757 1.433 . S
C759 N762 1.384 . S
C760 H751 0.929 . S
C760 C752 1.378 . S
C760 C755 1.350 . S
C761 H748 0.929 . S
C761 C753 1.433 . S
C761 N763 1.384 . S
N762 C758 1.427 . S
N762 C759 1.384 . S
N763 C755 1.427 . S
N763 C761 1.384 . S
H764 C770 0.930 . S
H765 C774 0.930 . S
H766 C779 0.929 . S
H767 C777 0.929 . S
H768 C772 0.929 1_565 S
H769 C778 0.929 1_545 S
C770 H764 0.930 . S
C770 C771 1.367 . S
C770 C778 1.378 . S
C771 C770 1.367 . S
C771 C779 1.433 . S
C772 H768 0.929 1_545 S
C772 C774 1.378 . S
C772 C776 1.350 . S
C773 C776 1.463 1_665 S
C773 C778 1.350 . S
C773 N781 1.427 . S
C774 H765 0.930 . S
C774 C772 1.378 . S
C774 C775 1.367 . S
C775 C774 1.367 . S
C775 C777 1.433 . S
C776 C772 1.350 . S
C776 C773 1.463 1_445 S
C776 N780 1.427 . S
C777 H767 0.929 . S
C777 C775 1.433 . S
C777 N780 1.384 . S
C778 H769 0.929 1_565 S
C778 C770 1.378 . S
C778 C773 1.350 . S
C779 H766 0.929 . S
C779 C771 1.433 . S
C779 N781 1.384 . S
N780 C776 1.427 . S
N780 C777 1.384 . S
N781 C773 1.427 . S
N781 C779 1.384 . S
H782 C788 0.930 . S
H783 C792 0.930 . S
H784 C797 0.929 . S
H785 C795 0.929 . S
H786 C790 0.929 1_655 S
H787 C796 0.929 1_455 S
C788 H782 0.930 . S
C788 C789 1.367 . S
C788 C796 1.378 . S
C789 C788 1.367 . S
C789 C797 1.433 . S
C790 H786 0.929 1_455 S
C790 C792 1.378 . S
C790 C794 1.350 . S
C791 C794 1.463 1_655 S
C791 C796 1.350 . S
C791 N799 1.427 . S
C792 H783 0.930 . S
C792 C790 1.378 . S
C792 C793 1.367 . S
C793 C792 1.367 . S
C793 C795 1.433 . S
C794 C790 1.350 . S
C794 C791 1.463 1_455 S
C794 N798 1.427 . S
C795 H785 0.929 . S
C795 C793 1.433 . S
C795 N798 1.384 . S
C796 H787 0.929 1_655 S
C796 C788 1.378 . S
C796 C791 1.350 . S
C797 H784 0.929 . S
C797 C789 1.433 . S
C797 N799 1.384 . S
N798 C794 1.427 . S
N798 C795 1.384 . S
N799 C791 1.427 . S
N799 C797 1.384 . S
C231 C68 1.004 . S
C235 C12 1.005 . S
C249 C26 1.011 . S
C253 C82 1.013 . S
C267 C96 1.003 . S
C271 C40 1.004 . S
C285 C110 1.006 . S
C289 C54 1.005 . S
C303 C180 1.011 . S
C307 C124 1.013 . S
C321 C138 1.004 . S
C325 C194 1.004 . S
C339 C208 1.004 . S
C343 C152 1.005 . S
C357 C166 1.004 . S
C361 C222 1.004 . S
C375 C5 1.089 . S
C379 C215 1.118 . S
C393 C19 1.099 . S
C397 C173 1.094 . S
C411 C33 1.118 . S
C415 C187 1.087 . S
C429 C201 1.117 . S
C433 C47 1.086 . S
C447 C61 1.113 . S
C451 C131 1.086 . S
C465 C75 1.094 . S
C469 C145 1.100 . S
C483 C159 1.118 . S
C487 C89 1.094 . S
C501 C117 1.116 . S
C505 C103 1.086 . S
C519 C11 1.458 . S
C523 C151 1.464 . S
C537 C165 1.463 . S
C541 C25 1.456 . S
C555 C39 1.464 . S
C559 C123 1.458 . S
C573 C137 1.458 . S
C577 C53 1.464 . S
C591 C67 1.457 . S
C595 C207 1.464 . S
C609 C81 1.459 . S
C613 C221 1.457 . S
C627 C179 1.459 . S
C631 C95 1.464 . S
C645 C193 1.464 . S
C649 C109 1.456 . S
C663 C144 1.578 . S
C667 C4 1.570 . S
C681 C18 1.578 . S
C685 C158 1.572 . S
C699 C32 1.578 . S
C703 C116 1.570 . S
C717 C130 1.578 . S
C721 C46 1.572 . S
C735 C200 1.576 . S
C739 C60 1.574 . S
C753 C214 1.576 . S
C757 C74 1.571 . S
C771 C172 1.578 . S
C775 C88 1.571 . S
C789 C102 1.571 . S
C793 C186 1.578 . S
