# Generated by pormake.
# Topology vbr, (6)-cn, num edge types: 1
# Building blocks:
#     Node 0, Type 0, BuildingBlock: OJICUG_clean_sbu_0, # of connection points: 6
#     Node 1, Type 0, BuildingBlock: OJICUG_clean_sbu_0, # of connection points: 6
#     Node 2, Type 0, BuildingBlock: OJICUG_clean_sbu_0, # of connection points: 6
#     Node 3, Type 0, BuildingBlock: OJICUG_clean_sbu_0, # of connection points: 6
#     Node 4, Type 0, BuildingBlock: OJICUG_clean_sbu_0, # of connection points: 6
#     Node 5, Type 0, BuildingBlock: OJICUG_clean_sbu_0, # of connection points: 6
#     Node 6, Type 0, BuildingBlock: OJICUG_clean_sbu_0, # of connection points: 6
#     Node 7, Type 0, BuildingBlock: OJICUG_clean_sbu_0, # of connection points: 6
#     Node 8, Type 0, BuildingBlock: OJICUG_clean_sbu_0, # of connection points: 6
#     Node 9, Type 0, BuildingBlock: OJICUG_clean_sbu_0, # of connection points: 6
#     Node 10, Type 0, BuildingBlock: OJICUG_clean_sbu_0, # of connection points: 6
#     Node 11, Type 0, BuildingBlock: OJICUG_clean_sbu_0, # of connection points: 6
#     Node 12, Type 0, BuildingBlock: OJICUG_clean_sbu_0, # of connection points: 6
#     Node 13, Type 0, BuildingBlock: OJICUG_clean_sbu_0, # of connection points: 6
#     Node 14, Type 0, BuildingBlock: OJICUG_clean_sbu_0, # of connection points: 6
#     Node 15, Type 0, BuildingBlock: OJICUG_clean_sbu_0, # of connection points: 6
#     Edge 16, Type (0, 0), BuildingBlock: TEMPAE_clean_linker_10, # of connection points: 2
#     Edge 17, Type (0, 0), BuildingBlock: TEMPAE_clean_linker_10, # of connection points: 2
#     Edge 18, Type (0, 0), BuildingBlock: TEMPAE_clean_linker_10, # of connection points: 2
#     Edge 19, Type (0, 0), BuildingBlock: TEMPAE_clean_linker_10, # of connection points: 2
#     Edge 20, Type (0, 0), BuildingBlock: TEMPAE_clean_linker_10, # of connection points: 2
#     Edge 21, Type (0, 0), BuildingBlock: TEMPAE_clean_linker_10, # of connection points: 2
#     Edge 22, Type (0, 0), BuildingBlock: TEMPAE_clean_linker_10, # of connection points: 2
#     Edge 23, Type (0, 0), BuildingBlock: TEMPAE_clean_linker_10, # of connection points: 2
#     Edge 24, Type (0, 0), BuildingBlock: TEMPAE_clean_linker_10, # of connection points: 2
#     Edge 25, Type (0, 0), BuildingBlock: TEMPAE_clean_linker_10, # of connection points: 2
#     Edge 26, Type (0, 0), BuildingBlock: TEMPAE_clean_linker_10, # of connection points: 2
#     Edge 27, Type (0, 0), BuildingBlock: TEMPAE_clean_linker_10, # of connection points: 2
#     Edge 28, Type (0, 0), BuildingBlock: TEMPAE_clean_linker_10, # of connection points: 2
#     Edge 29, Type (0, 0), BuildingBlock: TEMPAE_clean_linker_10, # of connection points: 2
#     Edge 30, Type (0, 0), BuildingBlock: TEMPAE_clean_linker_10, # of connection points: 2
#     Edge 31, Type (0, 0), BuildingBlock: TEMPAE_clean_linker_10, # of connection points: 2
#     Edge 32, Type (0, 0), BuildingBlock: TEMPAE_clean_linker_10, # of connection points: 2
#     Edge 33, Type (0, 0), BuildingBlock: TEMPAE_clean_linker_10, # of connection points: 2
#     Edge 34, Type (0, 0), BuildingBlock: TEMPAE_clean_linker_10, # of connection points: 2
#     Edge 35, Type (0, 0), BuildingBlock: TEMPAE_clean_linker_10, # of connection points: 2
#     Edge 36, Type (0, 0), BuildingBlock: TEMPAE_clean_linker_10, # of connection points: 2
#     Edge 37, Type (0, 0), BuildingBlock: TEMPAE_clean_linker_10, # of connection points: 2
#     Edge 38, Type (0, 0), BuildingBlock: TEMPAE_clean_linker_10, # of connection points: 2
#     Edge 39, Type (0, 0), BuildingBlock: TEMPAE_clean_linker_10, # of connection points: 2
#     Edge 40, Type (0, 0), BuildingBlock: TEMPAE_clean_linker_10, # of connection points: 2
#     Edge 41, Type (0, 0), BuildingBlock: TEMPAE_clean_linker_10, # of connection points: 2
#     Edge 42, Type (0, 0), BuildingBlock: TEMPAE_clean_linker_10, # of connection points: 2
#     Edge 43, Type (0, 0), BuildingBlock: TEMPAE_clean_linker_10, # of connection points: 2
#     Edge 44, Type (0, 0), BuildingBlock: TEMPAE_clean_linker_10, # of connection points: 2
#     Edge 45, Type (0, 0), BuildingBlock: TEMPAE_clean_linker_10, # of connection points: 2
#     Edge 46, Type (0, 0), BuildingBlock: TEMPAE_clean_linker_10, # of connection points: 2
#     Edge 47, Type (0, 0), BuildingBlock: TEMPAE_clean_linker_10, # of connection points: 2
#     Edge 48, Type (0, 0), BuildingBlock: TEMPAE_clean_linker_10, # of connection points: 2
#     Edge 49, Type (0, 0), BuildingBlock: TEMPAE_clean_linker_10, # of connection points: 2
#     Edge 50, Type (0, 0), BuildingBlock: TEMPAE_clean_linker_10, # of connection points: 2
#     Edge 51, Type (0, 0), BuildingBlock: TEMPAE_clean_linker_10, # of connection points: 2
#     Edge 52, Type (0, 0), BuildingBlock: TEMPAE_clean_linker_10, # of connection points: 2
#     Edge 53, Type (0, 0), BuildingBlock: TEMPAE_clean_linker_10, # of connection points: 2
#     Edge 54, Type (0, 0), BuildingBlock: TEMPAE_clean_linker_10, # of connection points: 2
#     Edge 55, Type (0, 0), BuildingBlock: TEMPAE_clean_linker_10, # of connection points: 2
#     Edge 56, Type (0, 0), BuildingBlock: TEMPAE_clean_linker_10, # of connection points: 2
#     Edge 57, Type (0, 0), BuildingBlock: TEMPAE_clean_linker_10, # of connection points: 2
#     Edge 58, Type (0, 0), BuildingBlock: TEMPAE_clean_linker_10, # of connection points: 2
#     Edge 59, Type (0, 0), BuildingBlock: TEMPAE_clean_linker_10, # of connection points: 2
#     Edge 60, Type (0, 0), BuildingBlock: TEMPAE_clean_linker_10, # of connection points: 2
#     Edge 61, Type (0, 0), BuildingBlock: TEMPAE_clean_linker_10, # of connection points: 2
#     Edge 62, Type (0, 0), BuildingBlock: TEMPAE_clean_linker_10, # of connection points: 2
#     Edge 63, Type (0, 0), BuildingBlock: TEMPAE_clean_linker_10, # of connection points: 2
# Relax obj value: 0.306
# Max RMSD: 0.281
# Mean RMSD: 0.281
data_MOF--net-vbr--node1-OJICUG_clean_sbu_0--edge1-TEMPAE_clean_linker_10
_symmetry_space_group_name_H-M    P1
_symmetry_Int_Tables_number       1
_symmetry_cell_setting            triclinic
loop_
_symmetry_equiv_pos_as_xyz
'x, y, z'
_cell_length_a     44.177301
_cell_length_b     29.465259
_cell_length_c     57.666042
_cell_angle_alpha  89.975818
_cell_angle_beta   90.019796
_cell_angle_gamma 89.953563
loop_
_atom_site_label
_atom_site_type_symbol
_atom_site_fract_x
_atom_site_fract_y
_atom_site_fract_z
_atom_type_partial_charge
Sc0 Sc 0.33588 0.16099 0.09116 0.0
Sc1 Sc 0.26748 0.15223 0.12113 0.0
Sc2 Sc 0.3234 0.06831 0.12783 0.0
O3 O 0.30898 0.12738 0.11357 0.0
C4 C 0.34534 0.06015 0.07521 0.0
C5 C 0.27067 0.1734 0.0682 0.0
C6 C 0.2551 0.04559 0.11779 0.0
C7 C 0.30816 0.24287 0.11797 0.0
C8 C 0.3835 0.12435 0.12873 0.0
C9 C 0.28752 0.11615 0.16978 0.0
O10 O 0.34113 0.10169 0.07066 0.0
O11 O 0.25533 0.15986 0.08544 0.0
O12 O 0.28285 0.03451 0.1176 0.0
O13 O 0.33143 0.22408 0.10927 0.0
O14 O 0.36556 0.09744 0.13906 0.0
O15 O 0.27589 0.14704 0.15729 0.0
O16 O 0.3762 0.14642 0.11062 0.0
O17 O 0.28363 0.22152 0.12195 0.0
O18 O 0.30377 0.08422 0.16149 0.0
O19 O 0.29916 0.17869 0.06865 0.0
O20 O 0.34335 0.04363 0.09557 0.0
O21 O 0.24593 0.08604 0.12106 0.0
Sc22 Sc 0.14948 0.81872 0.60123 0.0
Sc23 Sc 0.21628 0.84346 0.62951 0.0
Sc24 Sc 0.16183 0.92719 0.62325 0.0
O25 O 0.17564 0.86316 0.61812 0.0
C26 C 0.13958 0.90609 0.5715 0.0
C27 C 0.21542 0.7982 0.58152 0.0
C28 C 0.22922 0.94678 0.61544 0.0
C29 C 0.17696 0.75248 0.63592 0.0
C30 C 0.10182 0.87466 0.63171 0.0
C31 C 0.19511 0.90046 0.67086 0.0
O32 O 0.14574 0.86407 0.57247 0.0
O33 O 0.22941 0.82564 0.59478 0.0
O34 O 0.20248 0.95403 0.60821 0.0
O35 O 0.15241 0.76964 0.62855 0.0
O36 O 0.12038 0.90445 0.63888 0.0
O37 O 0.20357 0.86133 0.66413 0.0
O38 O 0.10852 0.84512 0.61644 0.0
O39 O 0.2019 0.7741 0.63532 0.0
O40 O 0.18293 0.92965 0.6574 0.0
O41 O 0.18768 0.78775 0.58418 0.0
O42 O 0.14038 0.9321 0.58919 0.0
O43 O 0.23658 0.91003 0.62558 0.0
Sc44 Sc 0.34284 0.82438 0.88847 0.0
Sc45 Sc 0.27516 0.85012 0.86179 0.0
Sc46 Sc 0.32868 0.93494 0.8696 0.0
O47 O 0.31585 0.87007 0.87335 0.0
C48 C 0.35196 0.90985 0.92068 0.0
C49 C 0.27692 0.80384 0.90944 0.0
C50 C 0.26103 0.9529 0.87582 0.0
C51 C 0.31368 0.75891 0.85523 0.0
C52 C 0.38945 0.88332 0.85872 0.0
C53 C 0.29776 0.90758 0.82096 0.0
O54 O 0.34918 0.86731 0.91791 0.0
O55 O 0.26237 0.83152 0.89652 0.0
O56 O 0.28717 0.95924 0.88425 0.0
O57 O 0.33842 0.77797 0.86032 0.0
O58 O 0.37169 0.91644 0.85495 0.0
O59 O 0.28879 0.86851 0.82751 0.0
O60 O 0.38273 0.84989 0.87168 0.0
O61 O 0.28865 0.78004 0.85658 0.0
O62 O 0.30915 0.93709 0.83472 0.0
O63 O 0.30483 0.79417 0.90641 0.0
O64 O 0.34799 0.9384 0.9043 0.0
O65 O 0.2543 0.91672 0.86499 0.0
Sc66 Sc 0.15407 0.07162 0.36838 0.0
Sc67 Sc 0.20767 0.15773 0.37768 0.0
Sc68 Sc 0.13491 0.1687 0.40036 0.0
O69 O 0.16544 0.13283 0.3818 0.0
C70 C 0.0933 0.12531 0.36075 0.0
C71 C 0.19523 0.11731 0.32856 0.0
C72 C 0.16648 0.24812 0.37473 0.0
C73 C 0.22136 0.05168 0.38274 0.0
C74 C 0.12608 0.06916 0.41949 0.0
C75 C 0.19549 0.18259 0.42933 0.0
O76 O 0.11256 0.09668 0.35346 0.0
O77 O 0.20478 0.14962 0.34117 0.0
O78 O 0.14176 0.22969 0.38083 0.0
O79 O 0.19384 0.03977 0.38182 0.0
O80 O 0.12713 0.11181 0.42211 0.0
O81 O 0.21353 0.16663 0.41425 0.0
O82 O 0.13167 0.04954 0.40024 0.0
O83 O 0.23002 0.09241 0.37987 0.0
O84 O 0.16759 0.18965 0.42554 0.0
O85 O 0.1775 0.08617 0.33589 0.0
O86 O 0.09809 0.1511 0.37799 0.0
O87 O 0.19158 0.22682 0.37435 0.0
Sc88 Sc 0.66999 0.93581 0.86669 0.0
Sc89 Sc 0.72657 0.85235 0.86738 0.0
Sc90 Sc 0.66126 0.83838 0.90061 0.0
O91 O 0.68591 0.87549 0.87818 0.0
C92 C 0.65139 0.93623 0.92037 0.0
C93 C 0.73871 0.95898 0.87269 0.0
C94 C 0.72887 0.82522 0.91942 0.0
C95 C 0.70086 0.89255 0.82136 0.0
C96 C 0.61037 0.8786 0.86673 0.0
C97 C 0.68728 0.76047 0.87017 0.0
O98 O 0.65218 0.95534 0.90055 0.0
O99 O 0.74739 0.91915 0.86728 0.0
O100 O 0.70045 0.81882 0.92029 0.0
O101 O 0.68652 0.92436 0.83159 0.0
O102 O 0.61906 0.85448 0.88378 0.0
O103 O 0.71144 0.78263 0.86607 0.0
O104 O 0.62741 0.90704 0.85658 0.0
O105 O 0.71355 0.86021 0.83217 0.0
O106 O 0.6644 0.77817 0.87995 0.0
O107 O 0.71113 0.96929 0.87592 0.0
O108 O 0.65685 0.89451 0.92351 0.0
O109 O 0.74244 0.8419 0.90201 0.0
Sc110 Sc 0.84959 0.1561 0.39499 0.0
Sc111 Sc 0.77176 0.14227 0.38341 0.0
Sc112 Sc 0.82341 0.05516 0.36968 0.0
O113 O 0.81482 0.11798 0.38258 0.0
C114 C 0.88122 0.10978 0.35183 0.0
C115 C 0.80936 0.23244 0.37131 0.0
C116 C 0.77643 0.09586 0.33334 0.0
C117 C 0.79772 0.17399 0.43235 0.0
C118 C 0.86318 0.05705 0.41555 0.0
C119 C 0.75889 0.03813 0.39296 0.0
O120 O 0.87757 0.14331 0.36533 0.0
O121 O 0.7853 0.20886 0.37201 0.0
O122 O 0.79882 0.07017 0.33822 0.0
O123 O 0.82511 0.17357 0.42568 0.0
O124 O 0.84699 0.03593 0.40084 0.0
O125 O 0.75118 0.0795 0.39439 0.0
O126 O 0.86811 0.09955 0.41433 0.0
O127 O 0.77572 0.16267 0.41928 0.0
O128 O 0.78392 0.02532 0.38454 0.0
O129 O 0.83475 0.21768 0.3784 0.0
O130 O 0.8647 0.07462 0.35257 0.0
O131 O 0.76454 0.12323 0.34784 0.0
Sc132 Sc 0.66175 0.07157 0.12593 0.0
Sc133 Sc 0.71724 0.15572 0.12282 0.0
Sc134 Sc 0.64537 0.17789 0.10182 0.0
O135 O 0.67456 0.13478 0.11702 0.0
C136 C 0.63384 0.08536 0.0751 0.0
C137 C 0.72915 0.05028 0.11413 0.0
C138 C 0.70716 0.19252 0.07363 0.0
C139 C 0.69939 0.11047 0.16976 0.0
C140 C 0.60215 0.12661 0.13757 0.0
C141 C 0.67999 0.2487 0.12899 0.0
O142 O 0.64072 0.05978 0.09223 0.0
O143 O 0.73813 0.08935 0.12027 0.0
O144 O 0.68002 0.20338 0.07876 0.0
O145 O 0.68325 0.07979 0.15994 0.0
O146 O 0.60788 0.15818 0.12325 0.0
O147 O 0.70443 0.22641 0.12654 0.0
O148 O 0.61983 0.0934 0.14107 0.0
O149 O 0.7108 0.14403 0.15888 0.0
O150 O 0.65429 0.23071 0.12605 0.0
O151 O 0.70143 0.04079 0.11166 0.0
O152 O 0.63479 0.12839 0.07614 0.0
O153 O 0.72366 0.16736 0.08642 0.0
Sc154 Sc 0.82638 0.93129 0.62126 0.0
Sc155 Sc 0.77537 0.84172 0.61187 0.0
Sc156 Sc 0.85205 0.82811 0.5975 0.0
O157 O 0.81797 0.86702 0.61043 0.0
C158 C 0.86368 0.92499 0.57394 0.0
C159 C 0.76009 0.94534 0.6018 0.0
C160 C 0.79714 0.80714 0.56312 0.0
C161 C 0.78176 0.89158 0.66014 0.0
C162 C 0.88604 0.88051 0.63812 0.0
C163 C 0.8152 0.75299 0.62371 0.0
O164 O 0.85006 0.94766 0.58959 0.0
O165 O 0.75249 0.9041 0.60376 0.0
O166 O 0.82459 0.80357 0.56946 0.0
O167 O 0.80166 0.92001 0.65327 0.0
O168 O 0.88316 0.84738 0.62426 0.0
O169 O 0.79052 0.7747 0.62133 0.0
O170 O 0.86769 0.91359 0.63877 0.0
O171 O 0.77156 0.85936 0.64767 0.0
O172 O 0.84063 0.76948 0.6179 0.0
O173 O 0.78673 0.95933 0.60553 0.0
O174 O 0.86681 0.88208 0.57485 0.0
O175 O 0.77644 0.82418 0.57574 0.0
Sc176 Sc 0.8548 0.6648 0.10181 0.0
Sc177 Sc 0.77649 0.65172 0.11143 0.0
Sc178 Sc 0.82714 0.56526 0.12775 0.0
O179 O 0.8194 0.6275 0.11386 0.0
C180 C 0.86793 0.56491 0.0824 0.0
C181 C 0.80462 0.68131 0.0631 0.0
C182 C 0.76354 0.54755 0.10317 0.0
C183 C 0.81378 0.7425 0.12306 0.0
C184 C 0.88514 0.61937 0.14575 0.0
C185 C 0.77853 0.60762 0.16212 0.0
O186 O 0.8734 0.60728 0.08341 0.0
O187 O 0.78214 0.66973 0.07554 0.0
O188 O 0.78794 0.53501 0.11269 0.0
O189 O 0.83958 0.72708 0.11734 0.0
O190 O 0.86823 0.58465 0.14516 0.0
O191 O 0.76741 0.63416 0.14687 0.0
O192 O 0.88191 0.65267 0.13203 0.0
O193 O 0.7897 0.71899 0.12201 0.0
O194 O 0.80149 0.58218 0.15854 0.0
O195 O 0.83169 0.68205 0.07045 0.0
O196 O 0.85128 0.54452 0.0971 0.0
O197 O 0.75619 0.58881 0.1007 0.0
Sc198 Sc 0.66629 0.31381 0.60065 0.0
Sc199 Sc 0.72879 0.336 0.63432 0.0
Sc200 Sc 0.67483 0.41939 0.62574 0.0
O201 O 0.68982 0.35652 0.6203 0.0
C202 C 0.65941 0.40196 0.57213 0.0
C203 C 0.73445 0.29531 0.58572 0.0
C204 C 0.7426 0.4398 0.62221 0.0
C205 C 0.68826 0.24537 0.63561 0.0
C206 C 0.61445 0.36727 0.62802 0.0
C207 C 0.70285 0.38935 0.67497 0.0
O208 O 0.6671 0.3605 0.57255 0.0
O209 O 0.74642 0.32198 0.60041 0.0
O210 O 0.71665 0.4466 0.6134 0.0
O211 O 0.66486 0.26531 0.62801 0.0
O212 O 0.63208 0.39481 0.63826 0.0
O213 O 0.71135 0.35036 0.66809 0.0
O214 O 0.6233 0.3402 0.61221 0.0
O215 O 0.71375 0.26561 0.63692 0.0
O216 O 0.69253 0.41972 0.66122 0.0
O217 O 0.70681 0.28316 0.58644 0.0
O218 O 0.65677 0.42603 0.59047 0.0
O219 O 0.74908 0.40358 0.63328 0.0
Sc220 Sc 0.85591 0.3374 0.9005 0.0
Sc221 Sc 0.78444 0.3529 0.87485 0.0
Sc222 Sc 0.838 0.44073 0.87317 0.0
O223 O 0.8262 0.37691 0.88275 0.0
C224 C 0.86784 0.43341 0.92374 0.0
C225 C 0.79308 0.32 0.92658 0.0
C226 C 0.7699 0.45719 0.88579 0.0
C227 C 0.82458 0.26256 0.86975 0.0
C228 C 0.89819 0.38546 0.86297 0.0
C229 C 0.8008 0.40435 0.82901 0.0
O230 O 0.86754 0.39043 0.92415 0.0
O231 O 0.776 0.33453 0.9104 0.0
O232 O 0.79737 0.46947 0.8869 0.0
O233 O 0.84797 0.27816 0.87969 0.0
O234 O 0.88016 0.4179 0.85837 0.0
O235 O 0.78996 0.36951 0.83897 0.0
O236 O 0.89274 0.35513 0.8781 0.0
O237 O 0.80029 0.28529 0.86767 0.0
O238 O 0.81678 0.43414 0.83933 0.0
O239 O 0.82173 0.31712 0.92484 0.0
O240 O 0.85886 0.45634 0.90634 0.0
O241 O 0.76189 0.41724 0.88023 0.0
Sc242 Sc 0.65639 0.56212 0.365 0.0
Sc243 Sc 0.71237 0.64633 0.36695 0.0
Sc244 Sc 0.64597 0.65931 0.39887 0.0
O245 O 0.67146 0.62262 0.37679 0.0
C246 C 0.59594 0.61865 0.3646 0.0
C247 C 0.68682 0.60907 0.32023 0.0
C248 C 0.67318 0.73852 0.37093 0.0
C249 C 0.7253 0.5397 0.37064 0.0
C250 C 0.63925 0.56033 0.41888 0.0
C251 C 0.71303 0.67074 0.4192 0.0
O252 O 0.61313 0.58941 0.35523 0.0
O253 O 0.6996 0.64073 0.33153 0.0
O254 O 0.64937 0.7198 0.37862 0.0
O255 O 0.69781 0.52915 0.3737 0.0
O256 O 0.64179 0.60284 0.4213 0.0
O257 O 0.72711 0.6537 0.40208 0.0
O258 O 0.6404 0.5406 0.3992 0.0
O259 O 0.73381 0.57974 0.36556 0.0
O260 O 0.6847 0.67853 0.41924 0.0
O261 O 0.6725 0.5765 0.32995 0.0
O262 O 0.60419 0.64361 0.38142 0.0
O263 O 0.69756 0.71654 0.36728 0.0
Sc264 Sc 0.16742 0.44325 0.86618 0.0
Sc265 Sc 0.22029 0.35593 0.87537 0.0
Sc266 Sc 0.1435 0.33701 0.88705 0.0
O267 O 0.17704 0.37871 0.87591 0.0
C268 C 0.12897 0.43082 0.91265 0.0
C269 C 0.23243 0.45999 0.88718 0.0
C270 C 0.19737 0.31657 0.92254 0.0
C271 C 0.2144 0.40811 0.82776 0.0
C272 C 0.10976 0.39094 0.84678 0.0
C273 C 0.18348 0.2651 0.8619 0.0
O274 O 0.14217 0.45566 0.89766 0.0
O275 O 0.24119 0.4194 0.88446 0.0
O276 O 0.17057 0.31139 0.91499 0.0
O277 O 0.19381 0.43544 0.83468 0.0
O278 O 0.1128 0.35698 0.8601 0.0
O279 O 0.20745 0.28785 0.86556 0.0
O280 O 0.12742 0.42482 0.84723 0.0
O281 O 0.22478 0.37534 0.83983 0.0
O282 O 0.15723 0.28093 0.86577 0.0
O283 O 0.20545 0.47249 0.88349 0.0
O284 O 0.12688 0.38794 0.91065 0.0
O285 O 0.21808 0.33696 0.91129 0.0
Sc286 Sc 0.33951 0.66796 0.39406 0.0
Sc287 Sc 0.26395 0.65685 0.37572 0.0
Sc288 Sc 0.31661 0.56876 0.36523 0.0
O289 O 0.30665 0.63129 0.37815 0.0
C290 C 0.37742 0.62252 0.35359 0.0
C291 C 0.30408 0.74692 0.36899 0.0
C292 C 0.27528 0.61376 0.3256 0.0
C293 C 0.28246 0.68412 0.42697 0.0
C294 C 0.34938 0.56802 0.41442 0.0
C295 C 0.24918 0.55217 0.38286 0.0
O296 O 0.37234 0.65481 0.36759 0.0
O297 O 0.27956 0.72447 0.36788 0.0
O298 O 0.29563 0.58562 0.33218 0.0
O299 O 0.31052 0.68505 0.42234 0.0
O300 O 0.33675 0.54694 0.39774 0.0
O301 O 0.24127 0.59354 0.38302 0.0
O302 O 0.35324 0.61072 0.41449 0.0
O303 O 0.26226 0.6733 0.41221 0.0
O304 O 0.27546 0.53905 0.37726 0.0
O305 O 0.32855 0.73018 0.37671 0.0
O306 O 0.35995 0.58861 0.35148 0.0
O307 O 0.26252 0.6418 0.33931 0.0
Sc308 Sc 0.1565 0.56594 0.12115 0.0
Sc309 Sc 0.21073 0.65109 0.11023 0.0
Sc310 Sc 0.1366 0.66204 0.08815 0.0
O311 O 0.16796 0.62642 0.1066 0.0
C312 C 0.12461 0.56057 0.07141 0.0
C313 C 0.22399 0.54583 0.10423 0.0
C314 C 0.19593 0.67634 0.05771 0.0
C315 C 0.19762 0.61049 0.16068 0.0
C316 C 0.09633 0.62361 0.1293 0.0
C317 C 0.17078 0.74128 0.11479 0.0
O318 O 0.13687 0.54163 0.08892 0.0
O319 O 0.23246 0.58694 0.10304 0.0
O320 O 0.16743 0.67493 0.06028 0.0
O321 O 0.17646 0.58376 0.15436 0.0
O322 O 0.10204 0.65253 0.11359 0.0
O323 O 0.19464 0.71813 0.11833 0.0
O324 O 0.11357 0.59032 0.13393 0.0
O325 O 0.2115 0.63635 0.1466 0.0
O326 O 0.14781 0.72563 0.10426 0.0
O327 O 0.19761 0.53394 0.11039 0.0
O328 O 0.12206 0.60328 0.06939 0.0
O329 O 0.21456 0.66863 0.07406 0.0
Sc330 Sc 0.33097 0.42953 0.62203 0.0
Sc331 Sc 0.27599 0.34504 0.62614 0.0
Sc332 Sc 0.34332 0.32173 0.59788 0.0
O333 O 0.31703 0.36561 0.61545 0.0
C334 C 0.35143 0.413 0.56942 0.0
C335 C 0.26232 0.44975 0.61617 0.0
C336 C 0.27711 0.30417 0.5773 0.0
C337 C 0.30053 0.39497 0.66966 0.0
C338 C 0.39175 0.37481 0.62886 0.0
C339 C 0.31428 0.25255 0.63064 0.0
O340 O 0.34802 0.43898 0.58692 0.0
O341 O 0.25486 0.41109 0.624 0.0
O342 O 0.30511 0.29465 0.57932 0.0
O343 O 0.31409 0.42532 0.65762 0.0
O344 O 0.38409 0.34323 0.61505 0.0
O345 O 0.28977 0.2752 0.63062 0.0
O346 O 0.37448 0.40763 0.63415 0.0
O347 O 0.28864 0.35959 0.66087 0.0
O348 O 0.339 0.26909 0.62333 0.0
O349 O 0.28928 0.45915 0.61044 0.0
O350 O 0.34887 0.37011 0.57039 0.0
O351 O 0.26288 0.32999 0.59122 0.0
C352 C 0.26759 0.1773 0.02551 0.0
C353 C 0.25486 0.18724 0.04711 0.0
C354 C 0.2556 0.19622 0.00528 0.0
C355 C 0.23091 0.22665 0.00698 0.0
C356 C 0.21722 0.23536 0.02871 0.0
C357 C 0.22922 0.21497 0.04862 0.0
C358 C 0.27023 0.18529 0.98227 0.0
C359 C 0.19115 0.26822 0.0311 0.0
C360 C 0.22758 0.31358 0.95894 0.0
C361 C 0.20494 0.29533 0.9448 0.0
C362 C 0.23548 0.29233 0.97979 0.0
C363 C 0.22082 0.25147 0.98617 0.0
C364 C 0.19773 0.23318 0.97206 0.0
C365 C 0.18984 0.25564 0.95159 0.0
C366 C 0.25987 0.3131 0.99477 0.0
C367 C 0.1821 0.18919 0.97817 0.0
H368 H 0.28738 0.15557 0.02454 0.0
H369 H 0.21974 0.2229 0.06548 0.0
H370 H 0.25282 0.17517 0.9694 0.0
H371 H 0.28174 0.21594 0.97542 0.0
H372 H 0.28718 0.15756 0.98375 0.0
H373 H 0.18147 0.26819 0.04888 0.0
H374 H 0.19907 0.30307 0.02704 0.0
H375 H 0.17294 0.25986 0.01857 0.0
H376 H 0.23903 0.34447 0.95372 0.0
H377 H 0.17249 0.24129 0.94049 0.0
H378 H 0.27967 0.28997 0.9956 0.0
H379 H 0.25146 0.31765 0.01275 0.0
H380 H 0.26757 0.34651 0.98807 0.0
H381 H 0.1988 0.16104 0.97809 0.0
H382 H 0.16361 0.18074 0.96584 0.0
H383 H 0.17249 0.19109 0.99591 0.0
C384 C 0.29424 0.69229 0.4689 0.0
C385 C 0.27346 0.69706 0.45065 0.0
C386 C 0.28715 0.70704 0.4913 0.0
C387 C 0.25871 0.72739 0.49543 0.0
C388 C 0.23748 0.73192 0.47715 0.0
C389 C 0.24503 0.71627 0.45494 0.0
C390 C 0.31009 0.70083 0.51049 0.0
C391 C 0.20703 0.75407 0.48098 0.0
C392 C 0.22511 0.7332 0.55552 0.0
C393 C 0.23091 0.77843 0.56149 0.0
C394 C 0.23532 0.71544 0.53445 0.0
C395 C 0.25105 0.74404 0.51889 0.0
C396 C 0.25808 0.78924 0.5253 0.0
C397 C 0.24815 0.80584 0.54677 0.0
C398 C 0.22815 0.66672 0.52843 0.0
C399 C 0.27471 0.82068 0.50902 0.0
H400 H 0.31618 0.67706 0.46568 0.0
H401 H 0.22906 0.7203 0.44081 0.0
H402 H 0.31394 0.73332 0.51974 0.0
H403 H 0.30128 0.67617 0.52337 0.0
H404 H 0.33218 0.68821 0.50392 0.0
H405 H 0.1932 0.75521 0.4649 0.0
H406 H 0.19422 0.73532 0.49446 0.0
H407 H 0.2102 0.78927 0.48737 0.0
H408 H 0.21188 0.71208 0.56712 0.0
H409 H 0.25227 0.84096 0.55142 0.0
H410 H 0.24914 0.64846 0.52347 0.0
H411 H 0.21268 0.66564 0.51329 0.0
H412 H 0.21731 0.64835 0.54306 0.0
H413 H 0.27989 0.85394 0.51716 0.0
H414 H 0.26073 0.82673 0.49332 0.0
H415 H 0.29621 0.80488 0.50322 0.0
C416 C 0.19173 0.67899 0.01468 0.0
C417 C 0.20765 0.69018 0.03492 0.0
C418 C 0.2014 0.69476 0.99298 0.0
C419 C 0.22709 0.72325 0.99171 0.0
C420 C 0.24338 0.73433 0.01209 0.0
C421 C 0.23365 0.71713 0.03347 0.0
C422 C 0.18402 0.68127 0.97151 0.0
C423 C 0.27075 0.76505 0.01138 0.0
C424 C 0.2716 0.73868 0.93639 0.0
C425 C 0.26143 0.78135 0.92889 0.0
C426 C 0.25962 0.71841 0.9563 0.0
C427 C 0.23717 0.74165 0.9691 0.0
C428 C 0.22596 0.78394 0.96113 0.0
C429 C 0.2381 0.8032 0.94091 0.0
C430 C 0.27169 0.67285 0.96404 0.0
C431 C 0.20222 0.80982 0.97455 0.0
H432 H 0.1717 0.65785 0.01584 0.0
H433 H 0.24575 0.72614 0.04917 0.0
H434 H 0.17487 0.71194 0.96282 0.0
H435 H 0.19936 0.66428 0.95899 0.0
H436 H 0.16493 0.658 0.97548 0.0
H437 H 0.28066 0.7707 0.02885 0.0
H438 H 0.28841 0.7502 1e-05 0.0
H439 H 0.26441 0.79844 0.0039 0.0
H440 H 0.28935 0.72141 0.92686 0.0
H441 H 0.23031 0.83622 0.93513 0.0
H442 H 0.28195 0.67581 0.98153 0.0
H443 H 0.28904 0.65914 0.95199 0.0
H444 H 0.25287 0.64808 0.96534 0.0
H445 H 0.18226 0.78795 0.97785 0.0
H446 H 0.19462 0.84087 0.96528 0.0
H447 H 0.21152 0.81991 0.99167 0.0
C448 C 0.24104 0.30825 0.5444 0.0
C449 C 0.26088 0.28291 0.55814 0.0
C450 C 0.22883 0.28947 0.52416 0.0
C451 C 0.23631 0.24424 0.5181 0.0
C452 C 0.25485 0.21774 0.53278 0.0
C453 C 0.26722 0.23765 0.55258 0.0
C454 C 0.20931 0.31869 0.50867 0.0
C455 C 0.26257 0.16902 0.52711 0.0
C456 C 0.18873 0.18892 0.47177 0.0
C457 C 0.20713 0.19475 0.45222 0.0
C458 C 0.19831 0.20369 0.49358 0.0
C459 C 0.22657 0.22574 0.49558 0.0
C460 C 0.24551 0.23092 0.47594 0.0
C461 C 0.23565 0.21476 0.45443 0.0
C462 C 0.17797 0.19659 0.51432 0.0
C463 C 0.27574 0.25467 0.47754 0.0
H464 H 0.23638 0.34333 0.54883 0.0
H465 H 0.2823 0.21806 0.56357 0.0
H466 H 0.22106 0.32443 0.49192 0.0
H467 H 0.18767 0.30123 0.50478 0.0
H468 H 0.2042 0.35219 0.5166 0.0
H469 H 0.27579 0.1524 0.54114 0.0
H470 H 0.24158 0.14922 0.52412 0.0
H471 H 0.27602 0.16764 0.51088 0.0
H472 H 0.16673 0.17297 0.46995 0.0
H473 H 0.24968 0.21942 0.43919 0.0
H474 H 0.16995 0.22989 0.52085 0.0
H475 H 0.1907 0.18008 0.52861 0.0
H476 H 0.15794 0.17536 0.51009 0.0
H477 H 0.27243 0.29005 0.48363 0.0
H478 H 0.28775 0.25557 0.46062 0.0
H479 H 0.2904 0.23732 0.4904 0.0
C480 C 0.73826 0.82132 0.96148 0.0
C481 C 0.74672 0.80903 0.93901 0.0
C482 C 0.75169 0.80049 0.98066 0.0
C483 C 0.77324 0.76559 0.97707 0.0
C484 C 0.78261 0.75419 0.95434 0.0
C485 C 0.76939 0.77662 0.93546 0.0
C486 C 0.74172 0.8143 0.00471 0.0
C487 C 0.80501 0.71645 0.94991 0.0
C488 C 0.81741 0.73253 0.0304 0.0
C489 C 0.79888 0.69835 0.03959 0.0
C490 C 0.81014 0.75353 0.00937 0.0
C491 C 0.78412 0.7392 -0.00284 0.0
C492 C 0.76653 0.70258 0.00557 0.0
C493 C 0.77391 0.68293 0.02694 0.0
C494 C 0.82913 0.79288 0.00103 0.0
C495 C 0.73908 0.68565 0.99258 0.0
H496 H 0.72059 0.84643 0.96398 0.0
H497 H 0.77538 0.76684 0.91791 0.0
H498 H 0.72892 0.78612 0.01287 0.0
H499 H 0.7617 0.82126 0.01582 0.0
H500 H 0.72705 0.84495 0.00448 0.0
H501 H 0.81268 0.71572 0.93156 0.0
H502 H 0.82508 0.71993 0.96132 0.0
H503 H 0.79427 0.68336 0.95399 0.0
H504 H 0.8367 0.7446 0.04025 0.0
H505 H 0.75986 0.65606 0.03394 0.0
H506 H 0.8159 0.82478 0.00259 0.0
H507 H 0.83504 0.78865 0.98247 0.0
H508 H 0.85035 0.79662 0.01119 0.0
H509 H 0.72095 0.71172 0.99317 0.0
H510 H 0.73005 0.65364 5e-05 0.0
H511 H 0.74471 0.67977 0.97407 0.0
C512 C 0.76076 0.23428 0.5644 0.0
C513 C 0.75207 0.27979 0.56589 0.0
C514 C 0.77194 0.2166 0.54354 0.0
C515 C 0.77321 0.24492 0.52373 0.0
C516 C 0.76569 0.29151 0.52555 0.0
C517 C 0.75531 0.30851 0.54678 0.0
C518 C 0.78049 0.16704 0.54237 0.0
C519 C 0.76667 0.32268 0.50477 0.0
C520 C 0.81526 0.20594 0.47018 0.0
C521 C 0.79146 0.19005 0.45618 0.0
C522 C 0.80973 0.2235 0.49232 0.0
C523 C 0.77972 0.22504 0.50071 0.0
C524 C 0.75566 0.20819 0.48696 0.0
C525 C 0.76181 0.19094 0.46481 0.0
C526 C 0.8359 0.24093 0.50663 0.0
C527 C 0.72337 0.2089 0.49555 0.0
H528 H 0.75772 0.2122 0.57928 0.0
H529 H 0.74793 0.34355 0.54807 0.0
H530 H 0.76188 0.14783 0.53398 0.0
H531 H 0.80116 0.16192 0.53178 0.0
H532 H 0.78453 0.15261 0.55989 0.0
H533 H 0.76282 0.35873 0.50959 0.0
H534 H 0.78883 0.31989 0.49584 0.0
H535 H 0.74895 0.31248 0.49217 0.0
H536 H 0.8383 0.20532 0.46374 0.0
H537 H 0.74332 0.17857 0.45421 0.0
H538 H 0.83656 0.22334 0.52364 0.0
H539 H 0.83281 0.27765 0.51016 0.0
H540 H 0.85804 0.236 0.49784 0.0
H541 H 0.72161 0.1897 0.51206 0.0
H542 H 0.70732 0.19396 0.48284 0.0
H543 H 0.71631 0.24435 0.49918 0.0
C544 C 0.71183 0.25633 0.04589 0.0
C545 C 0.72013 0.21227 0.0525 0.0
C546 C 0.72346 0.2759 0.02567 0.0
C547 C 0.74331 0.2503 0.01157 0.0
C548 C 0.75175 0.20573 0.01817 0.0
C549 C 0.7403 0.18738 0.03881 0.0
C550 C 0.71464 0.32396 0.0195 0.0
C551 C 0.77258 0.17733 0.00331 0.0
C552 C 0.75106 0.28326 0.94838 0.0
C553 C 0.7793 0.30479 0.94842 0.0
C554 C 0.73899 0.26534 0.9689 0.0
C555 C 0.75531 0.27018 0.98989 0.0
C556 C 0.78332 0.29335 0.99013 0.0
C557 C 0.79517 0.30993 0.96929 0.0
C558 C 0.70918 0.24034 0.96804 0.0
C559 C 0.80096 0.30011 0.01232 0.0
H560 H 0.69652 0.27577 0.05674 0.0
H561 H 0.74653 0.15322 0.04395 0.0
H562 H 0.73516 0.34557 0.01859 0.0
H563 H 0.70382 0.32479 0.00215 0.0
H564 H 0.69877 0.33903 0.03231 0.0
H565 H 0.77652 0.14305 0.01076 0.0
H566 H 0.76279 0.17342 0.9857 0.0
H567 H 0.79472 0.19461 0.00133 0.0
H568 H 0.73893 0.27904 0.93217 0.0
H569 H 0.81691 0.32703 0.96931 0.0
H570 H 0.69271 0.2564 0.98002 0.0
H571 H 0.71242 0.20479 0.97393 0.0
H572 H 0.69926 0.23986 0.95034 0.0
H573 H 0.82147 0.3213 0.00969 0.0
H574 H 0.80805 0.26672 0.01936 0.0
H575 H 0.78647 0.31656 0.0256 0.0
C576 C 0.75641 0.71104 0.43698 0.0
C577 C 0.73017 0.685 0.43959 0.0
C578 C 0.77019 0.73111 0.4563 0.0
C579 C 0.75768 0.72372 0.47857 0.0
C580 C 0.73213 0.69528 0.48133 0.0
C581 C 0.71838 0.67676 0.46168 0.0
C582 C 0.79699 0.76211 0.45275 0.0
C583 C 0.71866 0.68577 0.50492 0.0
C584 C 0.80266 0.74814 0.53281 0.0
C585 C 0.78873 0.78809 0.54054 0.0
C586 C 0.7933 0.72725 0.51225 0.0
C587 C 0.77007 0.74759 0.49897 0.0
C588 C 0.75696 0.78914 0.50615 0.0
C589 C 0.76616 0.80861 0.52714 0.0
C590 C 0.80729 0.68248 0.50531 0.0
C591 C 0.73264 0.81231 0.49202 0.0
H592 H 0.76513 0.71776 0.41973 0.0
H593 H 0.69805 0.65647 0.46352 0.0
H594 H 0.79031 0.79754 0.45681 0.0
H595 H 0.81569 0.75286 0.46468 0.0
H596 H 0.80557 0.76101 0.43465 0.0
H597 H 0.70006 0.66047 0.50413 0.0
H598 H 0.7364 0.673 0.51689 0.0
H599 H 0.70956 0.71763 0.51244 0.0
H600 H 0.82001 0.7322 0.54334 0.0
H601 H 0.7557 0.8398 0.53309 0.0
H602 H 0.8156 0.68407 0.48718 0.0
H603 H 0.78988 0.65539 0.50606 0.0
H604 H 0.82642 0.67269 0.51679 0.0
H605 H 0.74007 0.81602 0.47373 0.0
H606 H 0.72685 0.84641 0.49893 0.0
H607 H 0.71185 0.79122 0.49198 0.0
C608 C 0.349 0.89973 0.96357 0.0
C609 C 0.35735 0.92667 0.94452 0.0
C610 C 0.35007 0.91684 0.98623 0.0
C611 C 0.36032 0.96169 0.98998 0.0
C612 C 0.37069 0.988 0.97099 0.0
C613 C 0.36873 0.97037 0.94842 0.0
C614 C 0.33817 0.88804 0.00589 0.0
C615 C 0.3823 0.03572 0.97438 0.0
C616 C 0.32562 0.03068 0.03837 0.0
C617 C 0.34843 0.02982 0.05519 0.0
C618 C 0.32891 0.00735 0.01744 0.0
C619 C 0.35605 0.98331 0.01302 0.0
C620 C 0.37895 0.98135 0.03025 0.0
C621 C 0.37475 0.0045 0.05136 0.0
C622 C 0.30365 0.00964 -0.00022 0.0
C623 C 0.4083 0.95653 0.02597 0.0
H624 H 0.34003 0.86595 0.96072 0.0
H625 H 0.37552 0.99114 0.9338 0.0
H626 H 0.35412 0.8884 0.02074 0.0
H627 H 0.31637 0.90231 0.01209 0.0
H628 H 0.33431 0.85228 0.00054 0.0
H629 H 0.39344 0.04913 0.95853 0.0
H630 H 0.36316 0.05847 0.97888 0.0
H631 H 0.39868 0.03691 0.98895 0.0
H632 H 0.30531 0.05052 0.04148 0.0
H633 H 0.39248 0.00454 0.06437 0.0
H634 H 0.297 0.97493 0.99434 0.0
H635 H 0.31156 0.02789 0.98408 0.0
H636 H 0.2833 0.02737 0.00658 0.0
H637 H 0.4038 0.92125 0.02023 0.0
H638 H 0.42288 0.95551 0.04167 0.0
H639 H 0.42093 0.97361 0.01182 0.0
C640 C 0.1112 0.95961 0.54569 0.0
C641 C 0.13312 0.92572 0.54849 0.0
C642 C 0.10597 0.97923 0.52383 0.0
C643 C 0.12397 0.96587 0.50465 0.0
C644 C 0.14573 0.93097 0.50739 0.0
C645 C 0.14966 0.9108 0.5292 0.0
C646 C 0.08191 0.01533 0.52142 0.0
C647 C 0.16621 0.91684 0.48768 0.0
C648 C 0.10666 0.00256 0.44255 0.0
C649 C 0.12407 0.04209 0.44094 0.0
C650 C 0.10549 0.97792 0.4635 0.0
C651 C 0.12307 0.99243 0.48273 0.0
C652 C 0.14099 0.03201 0.48089 0.0
C653 C 0.1409 0.05658 0.46018 0.0
C654 C 0.08541 0.93666 0.46513 0.0
C655 C 0.16086 0.04804 0.50062 0.0
H656 H 0.09815 0.97068 0.56057 0.0
H657 H 0.16675 0.8847 0.53141 0.0
H658 H 0.09275 0.04899 0.51921 0.0
H659 H 0.06786 0.00896 0.5058 0.0
H660 H 0.06689 0.01681 0.53686 0.0
H661 H 0.1804 0.88697 0.4922 0.0
H662 H 0.15273 0.90859 0.47203 0.0
H663 H 0.18139 0.94546 0.48308 0.0
H664 H 0.09363 0.99149 0.42766 0.0
H665 H 0.15481 0.08679 0.45881 0.0
H666 H 0.06978 0.94015 0.4801 0.0
H667 H 0.09934 0.90594 0.46823 0.0
H668 H 0.07183 0.93143 0.44914 0.0
H669 H 0.14683 0.05574 0.51606 0.0
H670 H 0.17401 0.07893 0.49607 0.0
H671 H 0.17698 0.02081 0.50559 0.0
C672 C 0.61703 0.98042 0.94612 0.0
C673 C 0.64589 0.96341 0.94121 0.0
C674 C 0.61084 0.00038 0.96776 0.0
C675 C 0.63428 0.00391 0.98446 0.0
C676 C 0.66367 0.98767 0.97916 0.0
C677 C 0.66896 0.96703 0.95769 0.0
C678 C 0.57915 0.0165 0.973 0.0
C679 C 0.68948 0.99171 -0.00376 0.0
C680 C 0.63284 0.09192 0.03204 0.0
C681 C 0.62862 0.06501 0.05193 0.0
C682 C 0.63333 0.07274 0.00986 0.0
C683 C 0.6287 0.02556 0.00733 0.0
C684 C 0.62227 0.99862 0.0271 0.0
C685 C 0.62271 0.01857 0.04925 0.0
C686 C 0.64105 0.10251 0.98935 0.0
C687 C 0.61648 0.94833 0.02497 0.0
H688 H 0.59912 0.97651 0.93342 0.0
H689 H 0.69116 0.95318 0.95381 0.0
H690 H 0.57013 0.99786 0.98823 0.0
H691 H 0.57937 0.05305 0.97759 0.0
H692 H 0.56353 0.01145 0.95812 0.0
H693 H 0.71116 0.97874 0.98906 0.0
H694 H 0.69263 0.02773 0.00131 0.0
H695 H 0.68416 0.97237 0.01223 0.0
H696 H 0.63762 0.12783 0.03382 0.0
H697 H 0.61924 0.99761 0.06448 0.0
H698 H 0.62461 0.09731 0.97506 0.0
H699 H 0.66375 0.09309 0.98264 0.0
H700 H 0.64134 0.13913 0.99394 0.0
H701 H 0.60023 0.94147 0.01072 0.0
H702 H 0.60741 0.93364 0.04129 0.0
H703 H 0.63792 0.93064 0.02064 0.0
C704 C 0.85723 0.98791 0.54531 0.0
C705 C 0.87257 0.94844 0.55221 0.0
C706 C 0.86071 0.00559 0.52287 0.0
C707 C 0.88056 0.98386 0.50708 0.0
C708 C 0.89793 0.94619 0.51454 0.0
C709 C 0.89344 0.92854 0.53692 0.0
C710 C 0.8415 0.0456 0.51559 0.0
C711 C 0.92007 0.92303 0.4985 0.0
C712 C 0.85624 0.99451 0.44427 0.0
C713 C 0.87244 0.03293 0.43702 0.0
C714 C 0.85969 0.97699 0.46673 0.0
C715 C 0.88042 0.99767 0.48221 0.0
C716 C 0.89865 0.03409 0.47439 0.0
C717 C 0.89418 0.05169 0.45198 0.0
C718 C 0.83954 0.93838 0.4744 0.0
C719 C 0.92169 0.0561 0.49009 0.0
H720 H 0.84095 0.00341 0.55694 0.0
H721 H 0.90559 0.89826 0.5422 0.0
H722 H 0.85584 0.07255 0.50789 0.0
H723 H 0.82516 0.0347 0.50207 0.0
H724 H 0.82862 0.06035 0.53032 0.0
H725 H 0.93534 0.89949 0.50798 0.0
H726 H 0.90748 0.90325 0.48528 0.0
H727 H 0.93401 0.94846 0.48916 0.0
H728 H 0.83927 0.97987 0.43294 0.0
H729 H 0.90696 0.08119 0.44648 0.0
H730 H 0.82395 0.95042 0.48818 0.0
H731 H 0.8533 0.91049 0.48188 0.0
H732 H 0.82578 0.92448 0.45992 0.0
H733 H 0.9099 0.0772 0.50321 0.0
H734 H 0.93755 0.0782 0.4803 0.0
H735 H 0.93496 0.03 0.49956 0.0
C736 C 0.89866 0.55859 0.04594 0.0
C737 C 0.87672 0.54048 0.06093 0.0
C738 C 0.90244 0.54146 0.02338 0.0
C739 C 0.88338 0.5061 0.01547 0.0
C740 C 0.86241 0.48599 0.03095 0.0
C741 C 0.8596 0.50306 0.05355 0.0
C742 C 0.92575 0.56276 0.00766 0.0
C743 C 0.84148 0.44838 0.0232 0.0
C744 C 0.86106 0.49675 0.95206 0.0
C745 C 0.87618 0.45698 0.94547 0.0
C746 C 0.86425 0.51433 0.97457 0.0
C747 C 0.88354 0.49213 0.99065 0.0
C748 C 0.90059 0.45399 0.98348 0.0
C749 C 0.8964 0.4365 0.96107 0.0
C750 C 0.84539 0.55483 0.9816 0.0
C751 C 0.92207 0.43017 -0.00017 0.0
H752 H 0.9121 0.58734 0.05154 0.0
H753 H 0.84244 0.48897 0.06489 0.0
H754 H 0.93889 0.5362 -0.00156 0.0
H755 H 0.91421 0.58367 0.99432 0.0
H756 H 0.94171 0.58484 0.01736 0.0
H757 H 0.82736 0.43508 0.03762 0.0
H758 H 0.82622 0.46117 0.00936 0.0
H759 H 0.85468 0.41987 0.01576 0.0
H760 H 0.84523 0.51246 0.94012 0.0
H761 H 0.90831 0.4059 0.95597 0.0
H762 H 0.8599 0.58135 0.9895 0.0
H763 H 0.82863 0.54436 0.9949 0.0
H764 H 0.83302 0.56994 0.9667 0.0
H765 H 0.93641 0.45517 0.00912 0.0
H766 H 0.93699 0.40575 0.99062 0.0
H767 H 0.90894 0.41129 0.01308 0.0
C768 C 0.65711 0.54928 0.45902 0.0
C769 C 0.63948 0.53346 0.44047 0.0
C770 C 0.65865 0.52567 0.47997 0.0
C771 C 0.64155 0.48552 0.48274 0.0
C772 C 0.62351 0.46926 0.46415 0.0
C773 C 0.62304 0.49317 0.44297 0.0
C774 C 0.67888 0.5436 0.49904 0.0
C775 C 0.6046 0.42695 0.46673 0.0
C776 C 0.67075 0.40803 0.53007 0.0
C777 C 0.65371 0.42244 0.54921 0.0
C778 C 0.66623 0.42706 0.50808 0.0
C779 C 0.64356 0.4605 0.50505 0.0
C780 C 0.62546 0.4739 0.52416 0.0
C781 C 0.63108 0.45518 0.54616 0.0
C782 C 0.68676 0.41297 0.48839 0.0
C783 C 0.60068 0.5088 0.52147 0.0
H784 H 0.67033 0.58003 0.457 0.0
H785 H 0.60942 0.48098 0.42863 0.0
H786 H 0.6651 0.55252 0.51445 0.0
H787 H 0.69526 0.51707 0.50446 0.0
H788 H 0.69176 0.57417 0.4936 0.0
H789 H 0.59104 0.41964 0.45095 0.0
H790 H 0.6194 0.39737 0.47038 0.0
H791 H 0.58902 0.43067 0.48171 0.0
H792 H 0.68835 0.38275 0.53244 0.0
H793 H 0.6176 0.46578 0.56091 0.0
H794 H 0.70106 0.44218 0.48314 0.0
H795 H 0.67322 0.40291 0.47304 0.0
H796 H 0.70185 0.3843 0.49324 0.0
H797 H 0.61081 0.54261 0.51814 0.0
H798 H 0.58622 0.5112 0.53719 0.0
H799 H 0.58616 0.50038 0.50636 0.0
C800 C 0.09377 0.54797 0.03576 0.0
C801 C 0.11669 0.53312 0.05082 0.0
C802 C 0.09045 0.52905 0.01358 0.0
C803 C 0.11103 0.49529 0.00608 0.0
C804 C 0.13293 0.47807 0.02179 0.0
C805 C 0.13527 0.49689 0.0441 0.0
C806 C 0.0662 0.54736 -0.00234 0.0
C807 C 0.15548 0.44231 0.01444 0.0
C808 C 0.1008 0.42778 0.95041 0.0
C809 C 0.11982 0.4514 0.93508 0.0
C810 C 0.09649 0.4428 0.97331 0.0
C811 C 0.11206 0.48182 0.98119 0.0
C812 C 0.13015 0.50699 0.96549 0.0
C813 C 0.13354 0.49174 0.94259 0.0
C814 C 0.07631 0.41584 0.98931 0.0
C815 C 0.14728 0.54873 0.97321 0.0
H816 H 0.07924 0.57584 0.04097 0.0
H817 H 0.1532 0.48562 0.0556 0.0
H818 H 0.07671 0.56945 0.98433 0.0
H819 H 0.05455 0.51928 0.98847 0.0
H820 H 0.04905 0.56763 0.00723 0.0
H821 H 0.16931 0.42979 0.02922 0.0
H822 H 0.1437 0.41305 0.00641 0.0
H823 H 0.17093 0.45672 0.00117 0.0
H824 H 0.08998 0.3967 0.94473 0.0
H825 H 0.14846 0.51008 0.93098 0.0
H826 H 0.06071 0.43871 -0.00116 0.0
H827 H 0.09037 0.39797 0.00239 0.0
H828 H 0.06272 0.39019 0.97978 0.0
H829 H 0.13151 0.57388 0.98087 0.0
H830 H 0.15967 0.5652 0.95871 0.0
H831 H 0.16386 0.53934 0.98687 0.0
C832 C 0.33116 0.42792 0.53021 0.0
C833 C 0.35457 0.43352 0.5463 0.0
C834 C 0.33273 0.44794 0.50818 0.0
C835 C 0.35886 0.47287 0.50185 0.0
C836 C 0.38313 0.47709 0.51783 0.0
C837 C 0.38044 0.45801 0.54012 0.0
C838 C 0.30586 0.44397 0.49209 0.0
C839 C 0.41172 0.50214 0.51146 0.0
C840 C 0.36513 0.49889 0.43721 0.0
C841 C 0.35496 0.54391 0.43652 0.0
C842 C 0.36811 0.47589 0.45853 0.0
C843 C 0.3594 0.49788 0.47938 0.0
C844 C 0.34913 0.54334 0.47865 0.0
C845 C 0.34763 0.56596 0.45734 0.0
C846 C 0.38005 0.42791 0.45871 0.0
C847 C 0.33844 0.5676 0.50025 0.0
H848 H 0.31116 0.40889 0.53516 0.0
H849 H 0.39863 0.46176 0.5526 0.0
H850 H 0.29655 0.47825 0.48845 0.0
H851 H 0.3129 0.42914 0.47527 0.0
H852 H 0.28753 0.42262 0.49951 0.0
H853 H 0.42973 0.49786 0.52474 0.0
H854 H 0.42039 0.48991 0.49451 0.0
H855 H 0.40682 0.53887 0.50958 0.0
H856 H 0.37077 0.48179 0.42114 0.0
H857 H 0.33924 0.60054 0.45686 0.0
H858 H 0.36165 0.40411 0.46349 0.0
H859 H 0.39816 0.42432 0.47194 0.0
H860 H 0.38922 0.41766 0.44156 0.0
H861 H 0.31999 0.54799 0.50862 0.0
H862 H 0.32992 0.6023 0.49649 0.0
H863 H 0.35721 0.57021 0.51294 0.0
C864 C 0.28258 0.0759 0.20796 0.0
C865 C 0.27821 0.11493 0.19441 0.0
C866 C 0.26958 0.07236 0.23012 0.0
C867 C 0.25173 0.10856 0.23872 0.0
C868 C 0.24798 0.14844 0.22542 0.0
C869 C 0.26146 0.15128 0.20356 0.0
C870 C 0.27448 0.02971 0.24415 0.0
C871 C 0.22929 0.18794 0.23409 0.0
C872 C 0.19402 0.09281 0.28685 0.0
C873 C 0.20921 0.113 0.30547 0.0
C874 C 0.20797 0.08966 0.26499 0.0
C875 C 0.23789 0.10614 0.26208 0.0
C876 C 0.2537 0.12456 0.28114 0.0
C877 C 0.23909 0.12814 0.30251 0.0
C878 C 0.19039 0.07028 0.24487 0.0
C879 C 0.28579 0.14178 0.27884 0.0
H880 H 0.29535 0.04759 0.20101 0.0
H881 H 0.25807 0.18175 0.19333 0.0
H882 H 0.28428 0.0383 0.26131 0.0
H883 H 0.25245 0.0128 0.24737 0.0
H884 H 0.28977 0.00531 0.23529 0.0
H885 H 0.22796 0.21604 0.22128 0.0
H886 H 0.20596 0.17644 0.23812 0.0
H887 H 0.23917 0.20144 0.25037 0.0
H888 H 0.17107 0.08067 0.28922 0.0
H889 H 0.25127 0.14263 0.31706 0.0
H890 H 0.20365 0.04315 0.23623 0.0
H891 H 0.18631 0.09727 0.2318 0.0
H892 H 0.16821 0.05612 0.25033 0.0
H893 H 0.30033 0.11571 0.27056 0.0
H894 H 0.29584 0.15104 0.29585 0.0
H895 H 0.28614 0.17223 0.26751 0.0
C896 C 0.26771 0.95679 0.79503 0.0
C897 C 0.28879 0.92162 0.79759 0.0
C898 C 0.25204 0.96263 0.77408 0.0
C899 C 0.25832 0.93322 0.75528 0.0
C900 C 0.28185 0.9007 0.7572 0.0
C901 C 0.29636 0.89457 0.77857 0.0
C902 C 0.22691 0.99728 0.77297 0.0
C903 C 0.29016 0.87005 0.73721 0.0
C904 C 0.19923 0.8903 0.71342 0.0
C905 C 0.20601 0.91544 0.69357 0.0
C906 C 0.21443 0.89873 0.7343 0.0
C907 C 0.23788 0.93157 0.73488 0.0
C908 C 0.24372 0.95857 0.71508 0.0
C909 C 0.22735 0.95051 0.69466 0.0
C910 C 0.20666 0.87055 0.75535 0.0
C911 C 0.26886 0.99322 0.71473 0.0
H912 H 0.26162 0.97722 0.80997 0.0
H913 H 0.31264 0.86732 0.78074 0.0
H914 H 0.22532 0.01308 0.75556 0.0
H915 H 0.20504 0.98016 0.77657 0.0
H916 H 0.23013 0.02446 0.78609 0.0
H917 H 0.31186 0.85194 0.74031 0.0
H918 H 0.2721 0.84438 0.73466 0.0
H919 H 0.2921 0.88989 0.72091 0.0
H920 H 0.18276 0.86309 0.71237 0.0
H921 H 0.23284 0.96937 0.67905 0.0
H922 H 0.20449 0.8925 0.7709 0.0
H923 H 0.22511 0.84586 0.75875 0.0
H924 H 0.18522 0.85141 0.75299 0.0
H925 H 0.26994 0.01232 0.73128 0.0
H926 H 0.2661 0.01771 0.70022 0.0
H927 H 0.29083 0.97546 0.71246 0.0
C928 C 0.7841 0.91476 0.70179 0.0
C929 C 0.76754 0.89821 0.68293 0.0
C930 C 0.77059 0.91859 0.72372 0.0
C931 C 0.73974 0.90651 0.72652 0.0
C932 C 0.72251 0.89261 0.70715 0.0
C933 C 0.73672 0.88814 0.68563 0.0
C934 C 0.78969 0.93316 0.74411 0.0
C935 C 0.68942 0.88045 0.70935 0.0
C936 C 0.71874 0.85736 0.7847 0.0
C937 C 0.70624 0.89503 0.79611 0.0
C938 C 0.7292 0.86065 0.76192 0.0
C939 C 0.72669 0.90248 0.75006 0.0
C940 C 0.71246 0.93996 0.76089 0.0
C941 C 0.70245 0.93585 0.78391 0.0
C942 C 0.74407 0.81977 0.75089 0.0
C943 C 0.70889 0.98477 0.74848 0.0
H944 H 0.80785 0.92298 0.69959 0.0
H945 H 0.72367 0.87654 0.67084 0.0
H946 H 0.77824 0.96068 0.75387 0.0
H947 H 0.79261 0.90412 0.75617 0.0
H948 H 0.81244 0.9452 0.73869 0.0
H949 H 0.67833 0.87661 0.69217 0.0
H950 H 0.68716 0.84796 0.71892 0.0
H951 H 0.67713 0.90677 0.71939 0.0
H952 H 0.72141 0.82548 0.79387 0.0
H953 H 0.69283 0.9651 0.79261 0.0
H954 H 0.76793 0.82779 0.74651 0.0
H955 H 0.73238 0.81088 0.73449 0.0
H956 H 0.74383 0.78956 0.76243 0.0
H957 H 0.73144 0.00057 0.74603 0.0
H958 H 0.69434 0.0088 0.75829 0.0
H959 H 0.69897 0.97955 0.73101 0.0
C960 C 0.6977 0.06862 0.20778 0.0
C961 C 0.70718 0.10611 0.19465 0.0
C962 C 0.7071 0.06329 0.23092 0.0
C963 C 0.72652 0.09606 0.24096 0.0
C964 C 0.73572 0.13425 0.22793 0.0
C965 C 0.72584 0.13891 0.20505 0.0
C966 C 0.69664 0.02243 0.2445 0.0
C967 C 0.75646 0.16995 0.23804 0.0
C968 C 0.73469 0.11351 0.30554 0.0
C969 C 0.76291 0.09326 0.3099 0.0
C970 C 0.72176 0.11247 0.28338 0.0
C971 C 0.73753 0.09101 0.26509 0.0
C972 C 0.76551 0.06919 0.26948 0.0
C973 C 0.77785 0.07044 0.29189 0.0
C974 C 0.69178 0.13589 0.27936 0.0
C975 C 0.78305 0.04624 0.2503 0.0
H976 H 0.6833 0.04313 0.19993 0.0
H977 H 0.73331 0.16813 0.19518 0.0
H978 H 0.71644 0.00146 0.24956 0.0
H979 H 0.68534 0.03342 0.26074 0.0
H980 H 0.68068 0.00093 0.23446 0.0
H981 H 0.76149 0.19762 0.22553 0.0
H982 H 0.74602 0.18513 0.25372 0.0
H983 H 0.77815 0.15417 0.24346 0.0
H984 H 0.72271 0.13061 0.31941 0.0
H985 H 0.79956 0.05447 0.29512 0.0
H986 H 0.67601 0.11311 0.26996 0.0
H987 H 0.69526 0.16636 0.26837 0.0
H988 H 0.68092 0.14672 0.29583 0.0
H989 H 0.76827 0.0223 0.24071 0.0
H990 H 0.80302 0.02735 0.25696 0.0
H991 H 0.79101 0.0721 0.23772 0.0
C992 C 0.6904 0.56733 0.28245 0.0
C993 C 0.69246 0.60801 0.29497 0.0
C994 C 0.7017 0.56439 0.25973 0.0
C995 C 0.71541 0.60295 0.24952 0.0
C996 C 0.71577 0.64474 0.26154 0.0
C997 C 0.70409 0.64682 0.28403 0.0
C998 C 0.70038 0.51953 0.24715 0.0
C999 C 0.73005 0.68672 0.25119 0.0
C1000 C 0.77755 0.59078 0.20466 0.0
C1001 C 0.76244 0.60434 0.18447 0.0
C1002 C 0.76219 0.58869 0.22593 0.0
C1003 C 0.73095 0.59958 0.22682 0.0
C1004 C 0.71534 0.61137 0.2063 0.0
C1005 C 0.73134 0.61403 0.1854 0.0
C1006 C 0.77962 0.57646 0.24758 0.0
C1007 C 0.68194 0.62235 0.2065 0.0
H1008 H 0.68144 0.53721 0.29077 0.0
H1009 H 0.70537 0.67859 0.29346 0.0
H1010 H 0.69195 0.52431 0.22918 0.0
H1011 H 0.72349 0.50497 0.24593 0.0
H1012 H 0.68559 0.49467 0.25616 0.0
H1013 H 0.72719 0.71705 0.26242 0.0
H1014 H 0.75462 0.68084 0.24853 0.0
H1015 H 0.72 0.69416 0.23397 0.0
H1016 H 0.80152 0.58302 0.20394 0.0
H1017 H 0.71939 0.62354 0.16971 0.0
H1018 H 0.76837 0.54802 0.25676 0.0
H1019 H 0.7799 0.60589 0.25959 0.0
H1020 H 0.80337 0.56657 0.24376 0.0
H1021 H 0.66916 0.59532 0.21564 0.0
H1022 H 0.67256 0.62618 0.18873 0.0
H1023 H 0.67807 0.65446 0.21609 0.0
C1024 C 0.80075 0.39075 0.78651 0.0
C1025 C 0.78949 0.41419 0.80569 0.0
C1026 C 0.78617 0.39386 0.76494 0.0
C1027 C 0.75922 0.41979 0.76291 0.0
C1028 C 0.74852 0.44493 0.78215 0.0
C1029 C 0.764 0.44205 0.80334 0.0
C1030 C 0.7987 0.36748 0.74466 0.0
C1031 C 0.71966 0.47228 0.78086 0.0
C1032 C 0.72999 0.44065 0.7019 0.0
C1033 C 0.71168 0.40237 0.69861 0.0
C1034 C 0.74496 0.44784 0.72306 0.0
C1035 C 0.74074 0.41658 0.74143 0.0
C1036 C 0.72045 0.37973 0.73864 0.0
C1037 C 0.70662 0.37256 0.71707 0.0
C1038 C 0.76696 0.48681 0.72507 0.0
C1039 C 0.7146 0.34644 0.75805 0.0
H1040 H 0.82033 0.36889 0.7886 0.0
H1041 H 0.75516 0.45951 0.81846 0.0
H1042 H 0.78345 0.33865 0.7406 0.0
H1043 H 0.79983 0.38933 0.72901 0.0
H1044 H 0.82166 0.35377 0.74828 0.0
H1045 H 0.71618 0.4935 0.79657 0.0
H1046 H 0.71979 0.49466 0.76539 0.0
H1047 H 0.7001 0.44894 0.77907 0.0
H1048 H 0.73439 0.46313 0.68739 0.0
H1049 H 0.69261 0.34282 0.71437 0.0
H1050 H 0.79043 0.47334 0.72488 0.0
H1051 H 0.76384 0.5051 0.7417 0.0
H1052 H 0.76453 0.51136 0.71056 0.0
H1053 H 0.73524 0.3259 0.76125 0.0
H1054 H 0.69564 0.32301 0.75398 0.0
H1055 H 0.70923 0.36477 0.77434 0.0
C1056 C 0.26087 0.41385 0.80416 0.0
C1057 C 0.22927 0.41686 0.80548 0.0
C1058 C 0.27583 0.41839 0.78294 0.0
C1059 C 0.25861 0.42477 0.76255 0.0
C1060 C 0.22679 0.43059 0.76399 0.0
C1061 C 0.21245 0.42709 0.78563 0.0
C1062 C 0.30984 0.4134 0.7822 0.0
C1063 C 0.2077 0.43716 0.74254 0.0
C1064 C 0.29506 0.44653 0.70396 0.0
C1065 C 0.29503 0.40261 0.69458 0.0
C1066 C 0.28424 0.45441 0.72651 0.0
C1067 C 0.27303 0.41752 0.73969 0.0
C1068 C 0.27457 0.3729 0.73074 0.0
C1069 C 0.28577 0.366 0.7084 0.0
C1070 C 0.28352 0.50229 0.73578 0.0
C1071 C 0.26306 0.33254 0.74433 0.0
H1072 H 0.27389 0.40717 0.81975 0.0
H1073 H 0.18802 0.4299 0.78683 0.0
H1074 H 0.31578 0.37939 0.77532 0.0
H1075 H 0.32 0.43905 0.77046 0.0
H1076 H 0.32016 0.417 0.79968 0.0
H1077 H 0.18392 0.44614 0.74681 0.0
H1078 H 0.21737 0.4642 0.73141 0.0
H1079 H 0.20763 0.40532 0.73225 0.0
H1080 H 0.30213 0.47498 0.69335 0.0
H1081 H 0.2861 0.33187 0.70138 0.0
H1082 H 0.2919 0.50335 0.75391 0.0
H1083 H 0.25983 0.51482 0.73589 0.0
H1084 H 0.29734 0.52577 0.72505 0.0
H1085 H 0.27491 0.33021 0.76125 0.0
H1086 H 0.2663 0.30001 0.73491 0.0
H1087 H 0.23856 0.33681 0.748 0.0
C1088 C 0.2324 0.63802 0.19187 0.0
C1089 C 0.20794 0.61045 0.18521 0.0
C1090 C 0.24369 0.63728 0.21456 0.0
C1091 C 0.23016 0.60846 0.23119 0.0
C1092 C 0.20537 0.5807 0.22474 0.0
C1093 C 0.19456 0.58196 0.20181 0.0
C1094 C 0.27013 0.66747 0.22075 0.0
C1095 C 0.19025 0.54979 0.24211 0.0
C1096 C 0.2763 0.58142 0.2852 0.0
C1097 C 0.2645 0.61268 0.30119 0.0
C1098 C 0.26506 0.57917 0.26241 0.0
C1099 C 0.24145 0.60878 0.25549 0.0
C1100 C 0.22944 0.64031 0.27151 0.0
C1101 C 0.24113 0.64196 0.29408 0.0
C1102 C 0.27854 0.5453 0.2457 0.0
C1103 C 0.2043 0.67255 0.26478 0.0
H1104 H 0.24305 0.66015 0.17928 0.0
H1105 H 0.17574 0.56046 0.19688 0.0
H1106 H 0.26341 0.69161 0.23458 0.0
H1107 H 0.28905 0.6467 0.22766 0.0
H1108 H 0.27851 0.68721 0.20565 0.0
H1109 H 0.17148 0.52992 0.23429 0.0
H1110 H 0.20709 0.52584 0.24949 0.0
H1111 H 0.18109 0.57008 0.25671 0.0
H1112 H 0.29424 0.55853 0.29048 0.0
H1113 H 0.23169 0.66621 0.30621 0.0
H1114 H 0.28866 0.56338 0.23071 0.0
H1115 H 0.26055 0.52281 0.23879 0.0
H1116 H 0.29629 0.52395 0.25392 0.0
H1117 H 0.212 0.69503 0.25052 0.0
H1118 H 0.19682 0.69408 0.27951 0.0
H1119 H 0.18453 0.65321 0.25824 0.0
C1120 C 0.42328 0.12053 0.15975 0.0
C1121 C 0.41521 0.12703 0.13646 0.0
C1122 C 0.45383 0.12166 0.16659 0.0
C1123 C 0.47655 0.12754 0.14954 0.0
C1124 C 0.46833 0.13407 0.12602 0.0
C1125 C 0.43779 0.13441 0.11988 0.0
C1126 C 0.46159 0.11575 0.19189 0.0
C1127 C 0.4918 0.13972 0.10713 0.0
C1128 C 0.55679 0.16652 0.15297 0.0
C1129 C 0.57187 0.12579 0.14814 0.0
C1130 C 0.52555 0.16687 0.15713 0.0
C1131 C 0.50916 0.12579 0.15543 0.0
C1132 C 0.52487 0.0841 0.15333 0.0
C1133 C 0.55627 0.08458 0.14996 0.0
C1134 C 0.5097 0.2117 0.16066 0.0
C1135 C 0.50822 0.03954 0.15154 0.0
H1136 H 0.40577 0.11493 0.1726 0.0
H1137 H 0.43162 0.1389 0.10182 0.0
H1138 H 0.46722 0.07966 0.19526 0.0
H1139 H 0.4815 0.13656 0.19685 0.0
H1140 H 0.44222 0.12509 0.20321 0.0
H1141 H 0.48149 0.14256 0.08961 0.0
H1142 H 0.50541 0.17068 0.11035 0.0
H1143 H 0.50753 0.11034 0.10713 0.0
H1144 H 0.56905 0.19835 0.15211 0.0
H1145 H 0.56801 0.053 0.14642 0.0
H1146 H 0.49087 0.20819 0.17327 0.0
H1147 H 0.49991 0.22326 0.14394 0.0
H1148 H 0.52557 0.23824 0.16692 0.0
H1149 H 0.49019 0.03734 0.16485 0.0
H1150 H 0.52368 0.01005 0.15358 0.0
H1151 H 0.49721 0.03721 0.13427 0.0
C1152 C 0.04717 0.86718 0.62389 0.0
C1153 C 0.07028 0.87666 0.63971 0.0
C1154 C 0.01682 0.87046 0.63034 0.0
C1155 C 0.00937 0.88206 0.65351 0.0
C1156 C 0.03265 0.89057 0.66982 0.0
C1157 C 0.063 0.88874 0.66254 0.0
C1158 C 0.99278 0.86196 0.61216 0.0
C1159 C 0.02581 0.90206 0.69477 0.0
C1160 C 0.93011 0.92539 0.65142 0.0
C1161 C 0.91468 0.88389 0.65098 0.0
C1162 C 0.96135 0.92658 0.65556 0.0
C1163 C 0.97694 0.88544 0.65981 0.0
C1164 C 0.9604 0.84498 0.66346 0.0
C1165 C 0.92938 0.84441 0.65848 0.0
C1166 C 0.97812 0.9706 0.65197 0.0
C1167 C 0.97609 0.80108 0.66955 0.0
H1168 H 0.05285 0.85839 0.60615 0.0
H1169 H 0.081 0.89601 0.67478 0.0
H1170 H 0.97916 0.83179 0.61698 0.0
H1171 H 0.97716 0.89141 0.61108 0.0
H1172 H 0.00256 0.85602 0.59468 0.0
H1173 H 0.0448 0.89201 0.70632 0.0
H1174 H 0.02275 0.93929 0.69642 0.0
H1175 H 0.0048 0.8853 0.7009 0.0
H1176 H 0.91862 0.95607 0.64587 0.0
H1177 H 0.9172 0.81247 0.6587 0.0
H1178 H 0.98932 0.97005 0.63473 0.0
H1179 H 0.996 0.97488 0.66528 0.0
H1180 H 0.96269 0.00036 0.65262 0.0
H1181 H 0.98585 0.7859 0.65361 0.0
H1182 H 0.96006 0.77621 0.67722 0.0
H1183 H 0.99488 0.80713 0.68195 0.0
C1184 C 0.55659 0.86507 0.87665 0.0
C1185 C 0.57827 0.87648 0.85995 0.0
C1186 C 0.52572 0.86716 0.87156 0.0
C1187 C 0.51631 0.87979 0.84898 0.0
C1188 C 0.53808 0.88948 0.83169 0.0
C1189 C 0.56895 0.88844 0.83751 0.0
C1190 C 0.50318 0.85715 0.89062 0.0
C1191 C 0.52882 0.90171 0.80728 0.0
C1192 C 0.43505 0.84539 0.84279 0.0
C1193 C 0.4205 0.88534 0.84977 0.0
C1194 C 0.46643 0.84445 0.83952 0.0
C1195 C 0.4835 0.88399 0.8442 0.0
C1196 C 0.46854 0.92542 0.84913 0.0
C1197 C 0.43699 0.92569 0.85157 0.0
C1198 C 0.48151 0.80009 0.83334 0.0
C1199 C 0.48597 0.96818 0.85453 0.0
H1200 H 0.56371 0.85624 0.89407 0.0
H1201 H 0.58575 0.89705 0.82454 0.0
H1202 H 0.4882 0.88693 0.89334 0.0
H1203 H 0.48861 0.82814 0.8856 0.0
H1204 H 0.51436 0.84882 0.90735 0.0
H1205 H 0.54837 0.90153 0.79517 0.0
H1206 H 0.51144 0.87771 0.80078 0.0
H1207 H 0.51861 0.9361 0.80712 0.0
H1208 H 0.42208 0.81432 0.84108 0.0
H1209 H 0.42563 0.95655 0.85699 0.0
H1210 H 0.49086 0.78427 0.84927 0.0
H1211 H 0.50058 0.80566 0.82115 0.0
H1212 H 0.46527 0.77588 0.82539 0.0
H1213 H 0.49634 0.96504 0.872 0.0
H1214 H 0.47116 -0.00132 0.85442 0.0
H1215 H 0.50456 0.97333 0.84191 0.0
C1216 C 0.92585 0.06852 0.33657 0.0
C1217 C 0.90902 0.10876 0.3378 0.0
C1218 C 0.95687 0.06992 0.33155 0.0
C1219 C 0.97075 0.11238 0.32733 0.0
C1220 C 0.95253 0.15128 0.3239 0.0
C1221 C 0.92179 0.14935 0.32979 0.0
C1222 C 0.9754 0.02728 0.33448 0.0
C1223 C 0.96629 0.19631 0.31739 0.0
C1224 C 0.03821 0.13473 0.36559 0.0
C1225 C 0.06255 0.12512 0.35089 0.0
C1226 C 0.00842 0.13096 0.35789 0.0
C1227 C 0.00268 0.11876 0.33451 0.0
C1228 C 0.0272 0.11096 0.31918 0.0
C1229 C 0.05699 0.11325 0.32773 0.0
C1230 C 0.98314 0.13877 0.37517 0.0
C1231 C 0.02237 0.09925 0.29399 0.0
H1232 H 0.91582 0.03686 0.34228 0.0
H1233 H 0.90847 0.18027 0.32997 0.0
H1234 H 0.99264 0.02464 0.32059 0.0
H1235 H 0.98747 0.02853 0.35136 0.0
H1236 H 0.96106 0.99633 0.33416 0.0
H1237 H 0.94922 0.21911 0.30933 0.0
H1238 H 0.97511 0.21318 0.33321 0.0
H1239 H 0.98547 0.19156 0.30519 0.0
H1240 H 0.04241 0.14342 0.38358 0.0
H1241 H 0.07586 0.10595 0.3163 0.0
H1242 H 0.9679 0.10888 0.37575 0.0
H1243 H 0.96943 0.16856 0.36986 0.0
H1244 H 0.99171 0.14505 0.39299 0.0
H1245 H 0.02374 0.06189 0.29184 0.0
H1246 H 0.04046 0.11444 0.2831 0.0
H1247 H 7e-05 0.11096 0.28745 0.0
C1248 C 0.92754 0.65736 0.16651 0.0
C1249 C 0.91339 0.61726 0.15926 0.0
C1250 C 0.95871 0.65799 0.17106 0.0
C1251 C 0.97587 0.61823 0.16707 0.0
C1252 C 0.96085 0.57636 0.16359 0.0
C1253 C 0.9295 0.57631 0.16002 0.0
C1254 C 0.9738 0.70252 0.17668 0.0
C1255 C 0.97822 0.53291 0.15965 0.0
C1256 C 0.04141 0.63638 0.12629 0.0
C1257 C 0.0663 0.62551 0.14019 0.0
C1258 C 0.01204 0.63444 0.13506 0.0
C1259 C 0.00744 0.62288 0.15868 0.0
C1260 C 0.03262 0.61363 0.17315 0.0
C1261 C 0.06192 0.61431 0.16357 0.0
C1262 C 0.98592 0.64347 0.11868 0.0
C1263 C 0.02884 0.60391 0.19867 0.0
H1264 H 0.91487 0.68891 0.16662 0.0
H1265 H 0.91849 0.54505 0.1548 0.0
H1266 H 0.99372 0.69719 0.18809 0.0
H1267 H 0.9818 0.71864 0.1604 0.0
H1268 H 0.9578 0.72626 0.18527 0.0
H1269 H 0.96354 0.50258 0.16173 0.0
H1270 H 0.98741 0.53286 0.14173 0.0
H1271 H -0.00241 0.53007 0.17179 0.0
H1272 H 0.04485 0.64457 0.10814 0.0
H1273 H 0.08135 0.60644 0.17434 0.0
H1274 H 0.97326 0.67399 0.12437 0.0
H1275 H 0.96997 0.6144 0.11875 0.0
H1276 H 0.99355 0.64913 0.10055 0.0
H1277 H 0.02548 0.63649 0.20797 0.0
H1278 H 0.04913 0.58693 0.20607 0.0
H1279 H 0.00869 0.58252 0.20209 0.0
C1280 C 0.56155 0.36442 0.61436 0.0
C1281 C 0.58184 0.36947 0.63281 0.0
C1282 C 0.53036 0.36708 0.61794 0.0
C1283 C 0.51916 0.37366 0.64069 0.0
C1284 C 0.53952 0.37842 0.6595 0.0
C1285 C 0.57083 0.37699 0.65526 0.0
C1286 C 0.50943 0.36296 0.5973 0.0
C1287 C 0.52824 0.38422 0.68402 0.0
C1288 C 0.43891 0.4164 0.63872 0.0
C1289 C 0.42312 0.37529 0.63735 0.0
C1290 C 0.47035 0.41679 0.64187 0.0
C1291 C 0.48599 0.37509 0.64427 0.0
C1292 C 0.46961 0.3339 0.64543 0.0
C1293 C 0.43833 0.33441 0.64154 0.0
C1294 C 0.48703 0.46136 0.64009 0.0
C1295 C 0.48541 0.2889 0.64871 0.0
H1296 H 0.57015 0.35926 0.59694 0.0
H1297 H 0.58667 0.38072 0.6695 0.0
H1298 H 0.49503 0.33235 0.59915 0.0
H1299 H 0.49415 0.39282 0.59641 0.0
H1300 H 0.52196 0.36042 0.58065 0.0
H1301 H 0.54705 0.38837 0.69663 0.0
H1302 H 0.51314 0.41422 0.68519 0.0
H1303 H 0.51464 0.35417 0.6891 0.0
H1304 H 0.42709 0.44804 0.63546 0.0
H1305 H 0.42595 0.30267 0.64086 0.0
H1306 H 0.49786 0.4638 0.62277 0.0
H1307 H 0.50523 0.46357 0.65327 0.0
H1308 H 0.47159 0.49085 0.64223 0.0
H1309 H 0.4963 0.27866 0.63218 0.0
H1310 H 0.46934 0.26175 0.6539 0.0
H1311 H 0.50344 0.29158 0.66203 0.0
C1312 C 0.06557 0.43571 0.83361 0.0
C1313 C 0.08135 0.39446 0.83361 0.0
C1314 C 0.03422 0.43642 0.82999 0.0
C1315 C 0.01891 0.39504 0.82584 0.0
C1316 C 0.03577 0.3553 0.82113 0.0
C1317 C 0.06692 0.3551 0.82567 0.0
C1318 C 0.0171 0.47991 0.83429 0.0
C1319 C 0.02033 0.31149 0.81465 0.0
C1320 C 0.95324 0.37386 0.86609 0.0
C1321 C 0.92839 0.38555 0.85234 0.0
C1322 C 0.98265 0.37684 0.85748 0.0
C1323 C 0.98732 0.39021 0.83411 0.0
C1324 C 0.96217 0.40031 0.81976 0.0
C1325 C 0.93287 0.39891 0.82926 0.0
C1326 C 0.00871 0.36674 0.87374 0.0
C1327 C 0.9658 0.41339 0.79462 0.0
H1328 H 0.07686 0.46642 0.83931 0.0
H1329 H 0.07937 0.3234 0.82495 0.0
H1330 H -0.00098 0.48445 0.82117 0.0
H1331 H 0.00617 0.47833 0.85161 0.0
H1332 H 0.03223 0.51 0.83386 0.0
H1333 H 0.03617 0.28808 0.80565 0.0
H1334 H 0.01212 0.29438 0.8306 0.0
H1335 H 0.0005 0.31804 0.80329 0.0
H1336 H 0.94973 0.36405 0.88402 0.0
H1337 H 0.91352 0.40782 0.81861 0.0
H1338 H 0.02474 0.39571 0.87414 0.0
H1339 H 0.02131 0.33649 0.86759 0.0
H1340 H 0.00104 0.36003 0.89177 0.0
H1341 H 0.96519 0.45092 0.7931 0.0
H1342 H 0.94674 0.39986 0.78413 0.0
H1343 H 0.9874 0.40096 0.78713 0.0
C1344 C 0.4233 0.57962 0.34217 0.0
C1345 C 0.40753 0.62087 0.34271 0.0
C1346 C 0.45484 0.57901 0.33967 0.0
C1347 C 0.47056 0.62054 0.33705 0.0
C1348 C 0.45416 0.66136 0.334 0.0
C1349 C 0.42274 0.66122 0.33733 0.0
C1350 C 0.47148 0.53471 0.34295 0.0
C1351 C 0.47006 0.70591 0.32984 0.0
C1352 C 0.54163 0.63125 0.373 0.0
C1353 C 0.56428 0.62167 0.35679 0.0
C1354 C 0.51113 0.63115 0.36662 0.0
C1355 C 0.50311 0.6227 0.34321 0.0
C1356 C 0.52598 0.61485 0.32649 0.0
C1357 C 0.55639 0.61346 0.33361 0.0
C1358 C 0.48745 0.63889 0.38514 0.0
C1359 C 0.51849 0.60708 0.30127 0.0
H1360 H 0.41153 0.54833 0.34622 0.0
H1361 H 0.41041 0.69306 0.33731 0.0
H1362 H 0.48993 0.5312 0.33007 0.0
H1363 H 0.48194 0.53412 0.36046 0.0
H1364 H 0.45614 0.505 0.3414 0.0
H1365 H 0.45438 0.73187 0.32267 0.0
H1366 H 0.47924 0.71885 0.34648 0.0
H1367 H 0.48934 0.70143 0.31771 0.0
H1368 H 0.54772 0.63722 0.39097 0.0
H1369 H 0.57399 0.6063 0.32103 0.0
H1370 H 0.47161 0.6097 0.38577 0.0
H1371 H 0.47398 0.66962 0.381 0.0
H1372 H 0.49755 0.64335 0.40264 0.0
H1373 H 0.51227 0.57099 0.29866 0.0
H1374 H 0.53818 0.61464 0.28993 0.0
H1375 H 0.49903 0.62826 0.29567 0.0
C1376 C 0.23967 0.97198 0.10102 0.0
C1377 C 0.23298 0.00859 0.11558 0.0
C1378 C 0.2225 0.9322 0.10181 0.0
C1379 C 0.19836 0.92877 0.11788 0.0
C1380 C 0.19013 0.96686 0.13146 0.0
C1381 C 0.20754 0.00667 0.13005 0.0
C1382 C 0.23167 0.89273 0.08661 0.0
C1383 C 0.16451 0.96455 0.14871 0.0
C1384 C 0.15441 0.82114 0.10738 0.0
C1385 C 0.17172 0.79021 0.12034 0.0
C1386 C 0.16079 0.86777 0.10806 0.0
C1387 C 0.18479 0.88351 0.12215 0.0
C1388 C 0.19984 0.85305 0.13727 0.0
C1389 C 0.19323 0.80666 0.13608 0.0
C1390 C 0.14397 0.89927 0.09193 0.0
C1391 C 0.22509 0.86869 0.153 0.0
H1392 H 0.25919 0.9738 0.08965 0.0
H1393 H 0.20249 0.03502 0.14139 0.0
H1394 H 0.24128 0.86524 0.09753 0.0
H1395 H 0.21166 0.87871 0.07747 0.0
H1396 H 0.24887 0.90253 0.07348 0.0
H1397 H 0.15675 -0.00106 0.15393 0.0
H1398 H 0.145 0.94545 0.14155 0.0
H1399 H 0.17233 0.94641 0.16448 0.0
H1400 H 0.13756 0.80872 0.09529 0.0
H1401 H 0.20624 0.78296 0.14647 0.0
H1402 H 0.15806 0.90577 0.07635 0.0
H1403 H 0.13947 0.93243 0.10035 0.0
H1404 H 0.12214 0.88437 0.08615 0.0
H1405 H 0.24551 0.87611 0.14245 0.0
H1406 H 0.23114 0.84257 0.16611 0.0
H1407 H 0.21865 0.90037 0.16214 0.0
C1408 C 0.24578 0.0233 0.60179 0.0
C1409 C 0.25066 0.98533 0.61594 0.0
C1410 C 0.26205 0.06356 0.60528 0.0
C1411 C 0.28341 0.06603 0.62359 0.0
C1412 C 0.28981 0.02698 0.63699 0.0
C1413 C 0.27351 0.98692 0.63288 0.0
C1414 C 0.25491 0.10434 0.59034 0.0
C1415 C 0.31251 0.02833 0.65656 0.0
C1416 C 0.33043 0.17334 0.62165 0.0
C1417 C 0.31196 0.20305 0.63438 0.0
C1418 C 0.32273 0.12734 0.6193 0.0
C1419 C 0.29619 0.11086 0.63014 0.0
C1420 C 0.27938 0.13965 0.645 0.0
C1421 C 0.2874 0.1855 0.64684 0.0
C1422 C 0.34135 0.09771 0.60342 0.0
C1423 C 0.2513 0.12313 0.65733 0.0
H1424 H 0.22834 0.02218 0.58857 0.0
H1425 H 0.27736 0.95777 0.64397 0.0
H1426 H 0.24287 0.13019 0.60087 0.0
H1427 H 0.27606 0.12013 0.58386 0.0
H1428 H 0.24045 0.09543 0.57525 0.0
H1429 H 0.31597 0.99445 0.66461 0.0
H1430 H 0.3346 0.04107 0.65016 0.0
H1431 H 0.30466 0.05222 0.67016 0.0
H1432 H 0.34941 0.18667 0.61188 0.0
H1433 H 0.27324 0.20827 0.65688 0.0
H1434 H 0.32966 0.09469 0.58645 0.0
H1435 H 0.34387 0.06301 0.61062 0.0
H1436 H 0.3642 0.11221 0.60033 0.0
H1437 H 0.23297 0.11764 0.64447 0.0
H1438 H 0.24315 0.14783 0.67047 0.0
H1439 H 0.25567 0.09019 0.66604 0.0
C1440 C 0.21376 0.19907 0.84787 0.0
C1441 C 0.18683 0.21589 0.85742 0.0
C1442 C 0.22083 0.15272 0.84906 0.0
C1443 C 0.20072 0.12262 0.86044 0.0
C1444 C 0.17242 0.13878 0.86844 0.0
C1445 C 0.16569 0.18525 0.86666 0.0
C1446 C 0.25093 0.13663 0.83974 0.0
C1447 C 0.1504 0.10797 0.88078 0.0
C1448 C 0.22108 0.99777 0.85541 0.0
C1449 C 0.24033 0.99233 0.8746 0.0
C1450 C 0.20667 0.03945 0.85108 0.0
C1451 C 0.21124 0.07612 0.86653 0.0
C1452 C 0.22865 0.06956 0.8869 0.0
C1453 C 0.24321 0.02787 0.89058 0.0
C1454 C 0.18826 0.04513 0.82921 0.0
C1455 C 0.2335 0.1075 0.90413 0.0
H1456 H 0.23007 0.22255 0.84057 0.0
H1457 H 0.1449 0.19799 0.87424 0.0
H1458 H 0.2662 0.12829 0.85442 0.0
H1459 H 0.24799 0.10531 0.82931 0.0
H1460 H 0.2621 0.16276 0.82881 0.0
H1461 H 0.12742 0.12319 0.8818 0.0
H1462 H 0.14878 0.07458 0.872 0.0
H1463 H 0.15857 0.10179 0.89871 0.0
H1464 H 0.21889 0.97051 0.8429 0.0
H1465 H 0.2579 0.0237 0.90549 0.0
H1466 H 0.1999 0.06914 0.81738 0.0
H1467 H 0.16578 0.0599 0.83329 0.0
H1468 H 0.18491 0.01246 0.81995 0.0
H1469 H 0.2477 0.13433 0.89613 0.0
H1470 H 0.24489 0.09554 0.92019 0.0
H1471 H 0.21155 0.12323 0.90892 0.0
C1472 C 0.27836 0.81524 0.35269 0.0
C1473 C 0.30244 0.79652 0.36529 0.0
C1474 C 0.27155 0.86159 0.35429 0.0
C1475 C 0.28895 0.8896 0.36915 0.0
C1476 C 0.31503 0.87182 0.3801 0.0
C1477 C 0.32164 0.82544 0.37789 0.0
C1478 C 0.24405 0.87961 0.34173 0.0
C1479 C 0.33421 0.90055 0.39602 0.0
C1480 C 0.2675 0.01418 0.36726 0.0
C1481 C 0.24393 0.01503 0.38352 0.0
C1482 C 0.28392 0.97411 0.36322 0.0
C1483 C 0.27678 0.9346 0.37607 0.0
C1484 C 0.25492 0.93677 0.39402 0.0
C1485 C 0.23847 0.97686 0.39732 0.0
C1486 C 0.30689 0.97316 0.34387 0.0
C1487 C 0.2472 0.89574 0.40858 0.0
H1488 H 0.26371 0.79316 0.34268 0.0
H1489 H 0.34035 0.81128 0.38768 0.0
H1490 H 0.22553 0.88547 0.35439 0.0
H1491 H 0.24919 0.91259 0.33333 0.0
H1492 H 0.23578 0.85559 0.32831 0.0
H1493 H 0.35661 0.8847 0.39939 0.0
H1494 H 0.33777 0.93491 0.38865 0.0
H1495 H 0.32235 0.90468 0.41285 0.0
H1496 H 0.27142 0.04361 0.35637 0.0
H1497 H 0.22023 0.9777 0.4099 0.0
H1498 H 0.29665 0.95681 0.32841 0.0
H1499 H 0.32708 0.95296 0.34881 0.0
H1500 H 0.31424 0.00788 0.33891 0.0
H1501 H 0.23518 0.87039 0.39773 0.0
H1502 H 0.23247 0.90455 0.42354 0.0
H1503 H 0.26811 0.87943 0.41524 0.0
C1504 C 0.80082 0.19741 0.84911 0.0
C1505 C 0.82351 0.21373 0.86391 0.0
C1506 C 0.79366 0.15112 0.84848 0.0
C1507 C 0.80936 0.12065 0.8632 0.0
C1508 C 0.83452 0.13614 0.87614 0.0
C1509 C 0.84143 0.18264 0.87626 0.0
C1510 C 0.76718 0.13575 0.83392 0.0
C1511 C 0.8521 0.10463 0.89178 0.0
C1512 C 0.75547 0.03377 0.88764 0.0
C1513 C 0.76088 0.99634 0.87329 0.0
C1514 C 0.77267 0.07338 0.88554 0.0
C1515 C 0.79558 0.07584 0.8684 0.0
C1516 C 0.80254 0.03708 0.85491 0.0
C1517 C 0.78512 0.99751 0.8576 0.0
C1518 C 0.7649 0.11362 0.90068 0.0
C1519 C 0.82681 0.0383 0.83652 0.0
H1520 H 0.78726 0.2212 0.83919 0.0
H1521 H 0.85916 0.19492 0.88763 0.0
H1522 H 0.77257 0.10356 0.82484 0.0
H1523 H 0.74741 0.12934 0.84533 0.0
H1524 H 0.76062 0.16162 0.82082 0.0
H1525 H 0.87447 0.11911 0.89655 0.0
H1526 H 0.83905 0.09889 0.90796 0.0
H1527 H 0.85564 0.07115 0.88342 0.0
H1528 H 0.73695 0.03266 0.89997 0.0
H1529 H 0.78925 0.96862 0.8464 0.0
H1530 H 0.75487 0.14095 0.88987 0.0
H1531 H 0.78563 0.12748 0.90889 0.0
H1532 H 0.7485 0.10473 0.91455 0.0
H1533 H 0.81795 0.05603 0.82096 0.0
H1534 H 0.8339 0.0036 0.83128 0.0
H1535 H 0.84698 0.05727 0.84261 0.0
C1536 C 0.70909 0.00424 0.38411 0.0
C1537 C 0.7362 0.00253 0.39669 0.0
C1538 C 0.69214 0.96469 0.38026 0.0
C1539 C 0.70236 0.92306 0.38969 0.0
C1540 C 0.7278 0.92246 0.40468 0.0
C1541 C 0.74475 0.96217 0.40767 0.0
C1542 C 0.66529 0.96675 0.3641 0.0
C1543 C 0.7388 0.87904 0.4158 0.0
C1544 C 0.65846 0.81284 0.38807 0.0
C1545 C 0.67486 0.78856 0.37128 0.0
C1546 C 0.66585 0.85793 0.39342 0.0
C1547 C 0.68972 0.87935 0.38133 0.0
C1548 C 0.70423 0.85645 0.36279 0.0
C1549 C 0.69687 0.81108 0.35817 0.0
C1550 C 0.65001 0.88095 0.41341 0.0
C1551 C 0.7292 0.87868 0.34897 0.0
H1552 H 0.70279 0.0354 0.37532 0.0
H1553 H 0.76583 0.961 0.41732 0.0
H1554 H 0.67213 0.9539 0.34679 0.0
H1555 H 0.64656 0.94498 0.37042 0.0
H1556 H 0.65676 0.002 0.362 0.0
H1557 H 0.75585 0.88555 0.42958 0.0
H1558 H 0.71961 0.85997 0.42346 0.0
H1559 H 0.74934 0.85707 0.40241 0.0
H1560 H 0.64156 0.79554 0.39843 0.0
H1561 H 0.70945 0.7925 0.34511 0.0
H1562 H 0.64521 0.91707 0.40942 0.0
H1563 H 0.66497 0.88011 0.42887 0.0
H1564 H 0.62843 0.86374 0.41791 0.0
H1565 H 0.72234 0.91329 0.34348 0.0
H1566 H 0.73529 0.85871 0.33331 0.0
H1567 H 0.74968 0.88207 0.35998 0.0
C1568 C 0.77386 0.00892 0.12997 0.0
C1569 C 0.75084 0.01224 0.11329 0.0
C1570 C 0.78982 0.96811 0.13313 0.0
C1571 C 0.78287 0.93028 0.11897 0.0
C1572 C 0.76149 0.93488 0.1008 0.0
C1573 C 0.74546 0.97566 0.09837 0.0
C1574 C 0.81228 0.96451 0.15277 0.0
C1575 C 0.75401 0.89575 0.08488 0.0
C1576 C 0.82932 0.82239 0.11524 0.0
C1577 C 0.8105 0.79181 0.12709 0.0
C1578 C 0.82177 0.86859 0.11365 0.0
C1579 C 0.7951 0.88451 0.12452 0.0
C1580 C 0.77771 0.85458 0.13838 0.0
C1581 C 0.78545 0.80846 0.1393 0.0
C1582 C 0.84082 0.89927 0.09862 0.0
C1583 C 0.74953 0.87049 0.15078 0.0
H1584 H 0.77783 0.03705 0.1417 0.0
H1585 H 0.72776 0.97831 0.0854 0.0
H1586 H 0.80208 0.94464 0.16712 0.0
H1587 H 0.83301 0.94633 0.14714 0.0
H1588 H 0.81879 0.99838 0.15959 0.0
H1589 H 0.73961 0.90643 0.07004 0.0
H1590 H 0.77504 0.8802 0.07799 0.0
H1591 H 0.74176 0.86915 0.09475 0.0
H1592 H 0.84863 0.80971 0.10561 0.0
H1593 H 0.77099 0.78499 0.14863 0.0
H1594 H 0.84408 0.93284 0.10694 0.0
H1595 H 0.829 0.90508 0.08189 0.0
H1596 H 0.86336 0.88421 0.09488 0.0
H1597 H 0.754 0.90254 0.16027 0.0
H1598 H 0.741 0.84479 0.16327 0.0
H1599 H 0.73145 0.87745 0.13789 0.0
C1600 C 0.66555 0.17112 0.62425 0.0
C1601 C 0.6879 0.19519 0.6365 0.0
C1602 C 0.66967 0.12532 0.61847 0.0
C1603 C 0.69646 0.10305 0.62551 0.0
C1604 C 0.71726 0.12561 0.64025 0.0
C1605 C 0.71283 0.17158 0.64544 0.0
C1606 C 0.64691 0.10245 0.60284 0.0
C1607 C 0.74566 0.10243 0.6488 0.0
C1608 C 0.71414 0.97831 0.61913 0.0
C1609 C 0.7363 0.98008 0.60174 0.0
C1610 C 0.69883 0.01773 0.62607 0.0
C1611 C 0.70538 0.05923 0.61483 0.0
C1612 C 0.72475 0.05969 0.59524 0.0
C1613 C 0.74053 0.02017 0.58922 0.0
C1614 C 0.67849 0.01568 0.64707 0.0
C1615 C 0.73136 0.10287 0.58213 0.0
H1616 H 0.64603 0.18892 0.61735 0.0
H1617 H 0.72994 0.18975 0.65521 0.0
H1618 H 0.6556 0.10264 0.58479 0.0
H1619 H 0.64339 0.06655 0.60794 0.0
H1620 H 0.62474 0.12028 0.60304 0.0
H1621 H 0.75708 0.12222 0.66267 0.0
H1622 H 0.74036 0.06811 0.65559 0.0
H1623 H 0.76172 0.09828 0.63416 0.0
H1624 H 0.71123 0.94736 0.62908 0.0
H1625 H 0.75778 0.02144 0.57585 0.0
H1626 H 0.65883 0.03883 0.64522 0.0
H1627 H 0.69148 0.0266 0.66257 0.0
H1628 H 0.6701 0.98068 0.65022 0.0
H1629 H 0.7105 0.12327 0.57964 0.0
H1630 H 0.74139 0.09562 0.56488 0.0
H1631 H 0.74763 0.12371 0.59221 0.0
C1632 C 0.6641 0.32243 0.11236 0.0
C1633 C 0.68206 0.29846 0.12829 0.0
C1634 C 0.67119 0.36718 0.10619 0.0
C1635 C 0.69631 0.38858 0.11669 0.0
C1636 C 0.71278 0.36583 0.13433 0.0
C1637 C 0.70577 0.32064 0.13963 0.0
C1638 C 0.65354 0.38975 0.08694 0.0
C1639 C 0.73918 0.38808 0.14646 0.0
C1640 C 0.7485 0.47237 0.08809 0.0
C1641 C 0.74068 0.51226 0.09976 0.0
C1642 C 0.73183 0.43251 0.0915 0.0
C1643 C 0.70775 0.4325 0.10773 0.0
C1644 C 0.69814 0.47374 0.11791 0.0
C1645 C 0.71458 0.51349 0.11352 0.0
C1646 C 0.74193 0.38953 0.0795 0.0
C1647 C 0.67277 0.47506 0.13542 0.0
H1648 H 0.64609 0.30499 0.10321 0.0
H1649 H 0.71969 0.30195 0.15184 0.0
H1650 H 0.64954 0.42616 0.09073 0.0
H1651 H 0.66683 0.3878 0.07064 0.0
H1652 H 0.63139 0.37289 0.08398 0.0
H1653 H 0.74698 0.36815 0.1617 0.0
H1654 H 0.75838 0.39147 0.13418 0.0
H1655 H 0.73294 0.4227 0.15235 0.0
H1656 H 0.76885 0.47161 0.07758 0.0
H1657 H 0.70895 0.54434 0.12284 0.0
H1658 H 0.72214 0.36981 0.07329 0.0
H1659 H 0.75453 0.3679 0.09196 0.0
H1660 H 0.75698 0.39676 0.06451 0.0
H1661 H 0.65342 0.45388 0.1297 0.0
H1662 H 0.66462 0.51023 0.13851 0.0
H1663 H 0.68101 0.46101 0.15213 0.0
C1664 C 0.78178 0.48676 0.64222 0.0
C1665 C 0.76374 0.47856 0.62264 0.0
C1666 C 0.79642 0.52871 0.64517 0.0
C1667 C 0.79306 0.56276 0.62802 0.0
C1668 C 0.77697 0.55303 0.60735 0.0
C1669 C 0.76236 0.51114 0.60499 0.0
C1670 C 0.81345 0.5377 0.66738 0.0
C1671 C 0.77317 0.58811 0.58844 0.0
C1672 C 0.78681 0.68786 0.64067 0.0
C1673 C 0.81331 0.70452 0.63038 0.0
C1674 C 0.78118 0.64115 0.64194 0.0
C1675 C 0.80255 0.61033 0.63259 0.0
C1676 C 0.83063 0.62667 0.62427 0.0
C1677 C 0.83575 0.67371 0.6233 0.0
C1678 C 0.75112 0.62514 0.65135 0.0
C1679 C 0.85417 0.59489 0.61447 0.0
H1680 H 0.78273 0.46172 0.65599 0.0
H1681 H 0.74861 0.50467 0.58976 0.0
H1682 H 0.83499 0.55575 0.66383 0.0
H1683 H 0.79961 0.55982 0.67878 0.0
H1684 H 0.81851 0.50583 0.67694 0.0
H1685 H 0.76266 0.57366 0.57257 0.0
H1686 H 0.75857 0.61613 0.59481 0.0
H1687 H 0.79538 0.60298 0.58371 0.0
H1688 H 0.76958 0.71145 0.64654 0.0
H1689 H 0.85639 0.68624 0.61542 0.0
H1690 H 0.75433 0.59604 0.6633 0.0
H1691 H 0.73667 0.61337 0.63679 0.0
H1692 H 0.73887 0.65249 0.66072 0.0
H1693 H 0.87674 0.61133 0.61333 0.0
H1694 H 0.84728 0.58438 0.59676 0.0
H1695 H 0.85612 0.56374 0.62518 0.0
C1696 C 0.66927 0.68289 0.88089 0.0
C1697 C 0.68814 0.7106 0.86733 0.0
C1698 C 0.67549 0.63648 0.88359 0.0
C1699 C 0.70093 0.61756 0.8723 0.0
C1700 C 0.71787 0.64423 0.85652 0.0
C1701 C 0.71131 0.69053 0.85428 0.0
C1702 C 0.65661 0.60895 0.90025 0.0
C1703 C 0.74475 0.62498 0.84367 0.0
C1704 C 0.7523 0.53175 0.90056 0.0
C1705 C 0.74689 0.49327 0.88697 0.0
C1706 C 0.7355 0.57152 0.89726 0.0
C1707 C 0.71311 0.57288 0.87966 0.0
C1708 C 0.70579 0.53293 0.86727 0.0
C1709 C 0.72271 0.49333 0.87119 0.0
C1710 C 0.74359 0.61318 0.91124 0.0
C1711 C 0.6821 0.53296 0.8484 0.0
H1712 H 0.65114 0.698 0.89093 0.0
H1713 H 0.72563 0.71158 0.84345 0.0
H1714 H 0.65268 0.57421 0.89349 0.0
H1715 H 0.66888 0.6057 0.91696 0.0
H1716 H 0.63438 0.62529 0.90369 0.0
H1717 H 0.75287 0.6482 0.82982 0.0
H1718 H 0.7636 0.61915 0.85606 0.0
H1719 H 0.73899 0.59181 0.83574 0.0
H1720 H 0.7709 0.53157 0.91285 0.0
H1721 H 0.71866 0.46369 0.86049 0.0
H1722 H 0.72288 0.62956 0.91818 0.0
H1723 H 0.75509 0.63823 0.89988 0.0
H1724 H 0.7589 0.60508 0.92597 0.0
H1725 H 0.6621 0.55343 0.85351 0.0
H1726 H 0.67457 0.49801 0.84408 0.0
H1727 H 0.69176 0.54845 0.8325 0.0
C1728 C 0.74353 0.46772 0.38781 0.0
C1729 C 0.74744 0.50233 0.37145 0.0
C1730 C 0.7598 0.42709 0.3862 0.0
C1731 C 0.78008 0.42057 0.36747 0.0
C1732 C 0.78564 0.45662 0.35176 0.0
C1733 C 0.76931 0.4974 0.35404 0.0
C1734 C 0.75363 0.38998 0.40366 0.0
C1735 C 0.80704 0.451 0.33158 0.0
C1736 C 0.82609 0.3132 0.375 0.0
C1737 C 0.80646 0.28105 0.36516 0.0
C1738 C 0.8192 0.35974 0.37424 0.0
C1739 C 0.7923 0.37428 0.36316 0.0
C1740 C 0.77417 0.34237 0.35114 0.0
C1741 C 0.78136 0.2961 0.35243 0.0
C1742 C 0.8392 0.39265 0.38714 0.0
C1743 C 0.74564 0.35656 0.33866 0.0
H1744 H 0.72672 0.47175 0.40136 0.0
H1745 H 0.77212 0.52408 0.34126 0.0
H1746 H 0.74137 0.36172 0.39509 0.0
H1747 H 0.77518 0.37609 0.41054 0.0
H1748 H 0.73973 0.40217 0.41847 0.0
H1749 H 0.81328 0.48419 0.32379 0.0
H1750 H 0.82799 0.43311 0.33699 0.0
H1751 H 0.796 0.43006 0.31802 0.0
H1752 H 0.84559 0.30189 0.38485 0.0
H1753 H 0.76636 0.27147 0.34449 0.0
H1754 H 0.82845 0.40137 0.40395 0.0
H1755 H 0.84203 0.42464 0.37723 0.0
H1756 H 0.86191 0.378 0.39074 0.0
H1757 H 0.72802 0.3656 0.35157 0.0
H1758 H 0.73664 0.32907 0.32743 0.0
H1759 H 0.74985 0.38701 0.32781 0.0
C1760 C 0.3311 0.68516 0.87119 0.0
C1761 C 0.31252 0.70892 0.85557 0.0
C1762 C 0.32435 0.64041 0.87761 0.0
C1763 C 0.29895 0.61872 0.86767 0.0
C1764 C 0.28208 0.64097 0.85011 0.0
C1765 C 0.2888 0.68615 0.84451 0.0
C1766 C 0.34255 0.61824 0.89667 0.0
C1767 C 0.25539 0.61836 0.83853 0.0
C1768 C 0.28054 0.49402 0.87392 0.0
C1769 C 0.25524 0.49621 0.88858 0.0
C1770 C 0.29655 0.53343 0.86801 0.0
C1771 C 0.28743 0.57551 0.87751 0.0
C1772 C 0.26418 0.57686 0.89444 0.0
C1773 C 0.24804 0.53719 0.89953 0.0
C1774 C 0.32098 0.53058 0.84976 0.0
C1775 C 0.25437 0.6209 0.90554 0.0
H1776 H 0.34925 0.70281 0.88007 0.0
H1777 H 0.27445 0.70449 0.83245 0.0
H1778 H 0.32949 0.61975 0.91309 0.0
H1779 H 0.34687 0.58196 0.89277 0.0
H1780 H 0.36457 0.63561 0.89945 0.0
H1781 H 0.24743 0.6376 0.82312 0.0
H1782 H 0.26136 0.58338 0.83306 0.0
H1783 H 0.23638 0.61583 0.85104 0.0
H1784 H 0.28588 0.46246 0.86515 0.0
H1785 H 0.22845 0.53884 0.91083 0.0
H1786 H 0.34051 0.55246 0.8543 0.0
H1787 H 0.31177 0.54287 0.83298 0.0
H1788 H 0.32912 0.49522 0.84732 0.0
H1789 H 0.27428 0.64177 0.91031 0.0
H1790 H 0.24044 0.61506 0.9213 0.0
H1791 H 0.24067 0.64073 0.89297 0.0
C1792 C 0.20056 0.51564 0.37223 0.0
C1793 C 0.2264 0.51657 0.3863 0.0
C1794 C 0.1836 0.47561 0.36986 0.0
C1795 C 0.19258 0.43629 0.3822 0.0
C1796 C 0.21676 0.43881 0.39831 0.0
C1797 C 0.23369 0.47881 0.39989 0.0
C1798 C 0.15807 0.4743 0.35249 0.0
C1799 C 0.22653 0.39805 0.41235 0.0
C1800 C 0.1495 0.32562 0.38608 0.0
C1801 C 0.16744 0.29784 0.37187 0.0
C1802 C 0.15587 0.37207 0.38843 0.0
C1803 C 0.18035 0.39099 0.37593 0.0
C1804 C 0.19638 0.36398 0.35973 0.0
C1805 C 0.18995 0.31755 0.35809 0.0
C1806 C 0.13829 0.39962 0.4059 0.0
C1807 C 0.2221 0.38318 0.34555 0.0
H1808 H 0.19523 0.54482 0.3615 0.0
H1809 H 0.25374 0.47975 0.41074 0.0
H1810 H 0.1662 0.45802 0.3363 0.0
H1811 H 0.13881 0.45389 0.35906 0.0
H1812 H 0.14985 0.50893 0.34815 0.0
H1813 H 0.24269 0.40738 0.42633 0.0
H1814 H 0.20664 0.38117 0.4203 0.0
H1815 H 0.23771 0.37303 0.4008 0.0
H1816 H 0.13215 0.31044 0.39687 0.0
H1817 H 0.20365 0.29617 0.34695 0.0
H1818 H 0.13374 0.43433 0.39932 0.0
H1819 H 0.1519 0.40296 0.42199 0.0
H1820 H 0.11644 0.38323 0.41042 0.0
H1821 H 0.21549 0.41608 0.33766 0.0
H1822 H 0.22927 0.35969 0.33152 0.0
H1823 H 0.24185 0.38953 0.357 0.0
C1824 C 0.27337 0.51021 0.11385 0.0
C1825 C 0.24626 0.50931 0.10124 0.0
C1826 C 0.29057 0.47051 0.11676 0.0
C1827 C 0.2805 0.4296 0.10647 0.0
C1828 C 0.2548 0.42992 0.09176 0.0
C1829 C 0.23773 0.46971 0.08959 0.0
C1830 C 0.31778 0.47155 0.13257 0.0
C1831 C 0.24378 0.38732 0.07987 0.0
C1832 C 0.32364 0.31898 0.10339 0.0
C1833 C 0.30745 0.29285 0.11954 0.0
C1834 C 0.31683 0.36504 0.10005 0.0
C1835 C 0.2937 0.38533 0.11346 0.0
C1836 C 0.2797 0.36031 0.13149 0.0
C1837 C 0.28654 0.31418 0.13416 0.0
C1838 C 0.33227 0.39049 0.08067 0.0
C1839 C 0.2555 0.38112 0.14663 0.0
H1840 H 0.27972 0.54084 0.12306 0.0
H1841 H 0.21675 0.46926 0.07981 0.0
H1842 H 0.31142 0.45733 0.14971 0.0
H1843 H 0.33645 0.45043 0.12557 0.0
H1844 H 0.3262 0.50669 0.13524 0.0
H1845 H 0.22602 0.39462 0.06674 0.0
H1846 H 0.26284 0.36958 0.07121 0.0
H1847 H 0.23419 0.36377 0.09297 0.0
H1848 H 0.3398 0.30266 0.09196 0.0
H1849 H 0.27424 0.29418 0.14683 0.0
H1850 H 0.33728 0.42597 0.0858 0.0
H1851 H 0.31696 0.39177 0.06542 0.0
H1852 H 0.35367 0.3737 0.07531 0.0
H1853 H 0.2627 0.415 0.15293 0.0
H1854 H 0.2501 0.35942 0.16184 0.0
H1855 H 0.23451 0.38584 0.13632 0.0
C1856 C 0.20308 0.68448 0.65187 0.0
C1857 C 0.17858 0.70292 0.63965 0.0
C1858 C 0.2108 0.63859 0.64949 0.0
C1859 C 0.19378 0.61075 0.63431 0.0
C1860 C 0.16716 0.628 0.62388 0.0
C1861 C 0.15972 0.67397 0.62681 0.0
C1862 C 0.2389 0.62114 0.66147 0.0
C1863 C 0.14826 0.59934 0.60774 0.0
C1864 C 0.24466 0.52654 0.60397 0.0
C1865 C 0.24023 0.48738 0.61731 0.0
C1866 C 0.22796 0.56609 0.60829 0.0
C1867 C 0.20667 0.56664 0.62667 0.0
C1868 C 0.20056 0.52632 0.63913 0.0
C1869 C 0.21732 0.48698 0.63419 0.0
C1870 C 0.23463 0.60817 0.59419 0.0
C1871 C 0.17807 0.5255 0.65882 0.0
H1872 H 0.21752 0.70665 0.662 0.0
H1873 H 0.14073 0.68797 0.61727 0.0
H1874 H 0.23459 0.58754 0.66948 0.0
H1875 H 0.25724 0.61674 0.64851 0.0
H1876 H 0.247 0.64481 0.67511 0.0
H1877 H 0.12546 0.61428 0.60492 0.0
H1878 H 0.15981 0.59686 0.5907 0.0
H1879 H 0.14561 0.56438 0.61458 0.0
H1880 H 0.26214 0.52686 0.59077 0.0
H1881 H 0.21386 0.45688 0.64467 0.0
H1882 H 0.24637 0.63348 0.60523 0.0
H1883 H 0.21329 0.62393 0.58802 0.0
H1884 H 0.24917 0.60078 0.57893 0.0
H1885 H 0.18826 0.54201 0.67425 0.0
H1886 H 0.17165 0.49029 0.66364 0.0
H1887 H 0.15729 0.54471 0.65428 0.0
loop_
_geom_bond_atom_site_label_1
_geom_bond_atom_site_label_2
_geom_bond_distance
_geom_bond_site_symmetry_2
_ccdc_geom_bond_type
Sc0 O3 2.025 . S
Sc0 O10 2.105 . S
Sc0 O13 2.105 . S
Sc0 O16 2.105 . S
Sc0 O19 2.105 . S
Sc1 O3 2.025 . S
Sc1 O11 2.105 . S
Sc1 O15 2.105 . S
Sc1 O17 2.105 . S
Sc1 O21 2.105 . S
Sc2 O3 2.025 . S
Sc2 O12 2.105 . S
Sc2 O14 2.105 . S
Sc2 O18 2.105 . S
Sc2 O20 2.105 . S
O3 Sc0 2.025 . S
O3 Sc1 2.025 . S
O3 Sc2 2.025 . S
C4 O10 1.268 . S
C4 O20 1.268 . S
C5 O11 1.268 . S
C5 O19 1.268 . S
C6 O12 1.268 . S
C6 O21 1.268 . S
C7 O13 1.268 . S
C7 O17 1.268 . S
C8 O14 1.268 . S
C8 O16 1.268 . S
C9 O15 1.268 . S
C9 O18 1.268 . S
O10 Sc0 2.105 . S
O10 C4 1.268 . S
O11 Sc1 2.105 . S
O11 C5 1.268 . S
O12 Sc2 2.105 . S
O12 C6 1.268 . S
O13 Sc0 2.105 . S
O13 C7 1.268 . S
O14 Sc2 2.105 . S
O14 C8 1.268 . S
O15 Sc1 2.105 . S
O15 C9 1.268 . S
O16 Sc0 2.105 . S
O16 C8 1.268 . S
O17 Sc1 2.105 . S
O17 C7 1.268 . S
O18 Sc2 2.105 . S
O18 C9 1.268 . S
O19 Sc0 2.105 . S
O19 C5 1.268 . S
O20 Sc2 2.105 . S
O20 C4 1.268 . S
O21 Sc1 2.105 . S
O21 C6 1.268 . S
Sc22 O25 2.025 . S
Sc22 O32 2.105 . S
Sc22 O35 2.105 . S
Sc22 O38 2.105 . S
Sc22 O41 2.105 . S
Sc23 O25 2.025 . S
Sc23 O33 2.105 . S
Sc23 O37 2.105 . S
Sc23 O39 2.105 . S
Sc23 O43 2.105 . S
Sc24 O25 2.025 . S
Sc24 O34 2.105 . S
Sc24 O36 2.105 . S
Sc24 O40 2.105 . S
Sc24 O42 2.105 . S
O25 Sc22 2.025 . S
O25 Sc23 2.025 . S
O25 Sc24 2.025 . S
C26 O32 1.268 . S
C26 O42 1.268 . S
C27 O33 1.268 . S
C27 O41 1.268 . S
C28 O34 1.268 . S
C28 O43 1.268 . S
C29 O35 1.268 . S
C29 O39 1.268 . S
C30 O36 1.268 . S
C30 O38 1.268 . S
C31 O37 1.268 . S
C31 O40 1.268 . S
O32 Sc22 2.105 . S
O32 C26 1.268 . S
O33 Sc23 2.105 . S
O33 C27 1.268 . S
O34 Sc24 2.105 . S
O34 C28 1.268 . S
O35 Sc22 2.105 . S
O35 C29 1.268 . S
O36 Sc24 2.105 . S
O36 C30 1.268 . S
O37 Sc23 2.105 . S
O37 C31 1.268 . S
O38 Sc22 2.105 . S
O38 C30 1.268 . S
O39 Sc23 2.105 . S
O39 C29 1.268 . S
O40 Sc24 2.105 . S
O40 C31 1.268 . S
O41 Sc22 2.105 . S
O41 C27 1.268 . S
O42 Sc24 2.105 . S
O42 C26 1.268 . S
O43 Sc23 2.105 . S
O43 C28 1.268 . S
Sc44 O47 2.025 . S
Sc44 O54 2.105 . S
Sc44 O57 2.105 . S
Sc44 O60 2.105 . S
Sc44 O63 2.105 . S
Sc45 O47 2.025 . S
Sc45 O55 2.105 . S
Sc45 O59 2.105 . S
Sc45 O61 2.105 . S
Sc45 O65 2.105 . S
Sc46 O47 2.025 . S
Sc46 O56 2.105 . S
Sc46 O58 2.105 . S
Sc46 O62 2.105 . S
Sc46 O64 2.105 . S
O47 Sc44 2.025 . S
O47 Sc45 2.025 . S
O47 Sc46 2.025 . S
C48 O54 1.268 . S
C48 O64 1.268 . S
C49 O55 1.268 . S
C49 O63 1.268 . S
C50 O56 1.268 . S
C50 O65 1.268 . S
C51 O57 1.268 . S
C51 O61 1.268 . S
C52 O58 1.268 . S
C52 O60 1.268 . S
C53 O59 1.268 . S
C53 O62 1.268 . S
O54 Sc44 2.105 . S
O54 C48 1.268 . S
O55 Sc45 2.105 . S
O55 C49 1.268 . S
O56 Sc46 2.105 . S
O56 C50 1.268 . S
O57 Sc44 2.105 . S
O57 C51 1.268 . S
O58 Sc46 2.105 . S
O58 C52 1.268 . S
O59 Sc45 2.105 . S
O59 C53 1.268 . S
O60 Sc44 2.105 . S
O60 C52 1.268 . S
O61 Sc45 2.105 . S
O61 C51 1.268 . S
O62 Sc46 2.105 . S
O62 C53 1.268 . S
O63 Sc44 2.105 . S
O63 C49 1.268 . S
O64 Sc46 2.105 . S
O64 C48 1.268 . S
O65 Sc45 2.105 . S
O65 C50 1.268 . S
Sc66 O69 2.025 . S
Sc66 O76 2.105 . S
Sc66 O79 2.105 . S
Sc66 O82 2.105 . S
Sc66 O85 2.105 . S
Sc67 O69 2.025 . S
Sc67 O77 2.105 . S
Sc67 O81 2.105 . S
Sc67 O83 2.105 . S
Sc67 O87 2.105 . S
Sc68 O69 2.025 . S
Sc68 O78 2.105 . S
Sc68 O80 2.105 . S
Sc68 O84 2.105 . S
Sc68 O86 2.105 . S
O69 Sc66 2.025 . S
O69 Sc67 2.025 . S
O69 Sc68 2.025 . S
C70 O76 1.268 . S
C70 O86 1.268 . S
C71 O77 1.268 . S
C71 O85 1.268 . S
C72 O78 1.268 . S
C72 O87 1.268 . S
C73 O79 1.268 . S
C73 O83 1.268 . S
C74 O80 1.268 . S
C74 O82 1.268 . S
C75 O81 1.268 . S
C75 O84 1.268 . S
O76 Sc66 2.105 . S
O76 C70 1.268 . S
O77 Sc67 2.105 . S
O77 C71 1.268 . S
O78 Sc68 2.105 . S
O78 C72 1.268 . S
O79 Sc66 2.105 . S
O79 C73 1.268 . S
O80 Sc68 2.105 . S
O80 C74 1.268 . S
O81 Sc67 2.105 . S
O81 C75 1.268 . S
O82 Sc66 2.105 . S
O82 C74 1.268 . S
O83 Sc67 2.105 . S
O83 C73 1.268 . S
O84 Sc68 2.105 . S
O84 C75 1.268 . S
O85 Sc66 2.105 . S
O85 C71 1.268 . S
O86 Sc68 2.105 . S
O86 C70 1.268 . S
O87 Sc67 2.105 . S
O87 C72 1.268 . S
Sc88 O91 2.025 . S
Sc88 O98 2.105 . S
Sc88 O101 2.105 . S
Sc88 O104 2.105 . S
Sc88 O107 2.105 . S
Sc89 O91 2.025 . S
Sc89 O99 2.105 . S
Sc89 O103 2.105 . S
Sc89 O105 2.105 . S
Sc89 O109 2.105 . S
Sc90 O91 2.025 . S
Sc90 O100 2.105 . S
Sc90 O102 2.105 . S
Sc90 O106 2.105 . S
Sc90 O108 2.105 . S
O91 Sc88 2.025 . S
O91 Sc89 2.025 . S
O91 Sc90 2.025 . S
C92 O98 1.268 . S
C92 O108 1.268 . S
C93 O99 1.268 . S
C93 O107 1.268 . S
C94 O100 1.268 . S
C94 O109 1.268 . S
C95 O101 1.268 . S
C95 O105 1.268 . S
C96 O102 1.268 . S
C96 O104 1.268 . S
C97 O103 1.268 . S
C97 O106 1.268 . S
O98 Sc88 2.105 . S
O98 C92 1.268 . S
O99 Sc89 2.105 . S
O99 C93 1.268 . S
O100 Sc90 2.105 . S
O100 C94 1.268 . S
O101 Sc88 2.105 . S
O101 C95 1.268 . S
O102 Sc90 2.105 . S
O102 C96 1.268 . S
O103 Sc89 2.105 . S
O103 C97 1.268 . S
O104 Sc88 2.105 . S
O104 C96 1.268 . S
O105 Sc89 2.105 . S
O105 C95 1.268 . S
O106 Sc90 2.105 . S
O106 C97 1.268 . S
O107 Sc88 2.105 . S
O107 C93 1.268 . S
O108 Sc90 2.105 . S
O108 C92 1.268 . S
O109 Sc89 2.105 . S
O109 C94 1.268 . S
Sc110 O113 2.025 . S
Sc110 O120 2.105 . S
Sc110 O123 2.105 . S
Sc110 O126 2.105 . S
Sc110 O129 2.105 . S
Sc111 O113 2.025 . S
Sc111 O121 2.105 . S
Sc111 O125 2.105 . S
Sc111 O127 2.105 . S
Sc111 O131 2.105 . S
Sc112 O113 2.025 . S
Sc112 O122 2.105 . S
Sc112 O124 2.105 . S
Sc112 O128 2.105 . S
Sc112 O130 2.105 . S
O113 Sc110 2.025 . S
O113 Sc111 2.025 . S
O113 Sc112 2.025 . S
C114 O120 1.268 . S
C114 O130 1.268 . S
C115 O121 1.268 . S
C115 O129 1.268 . S
C116 O122 1.268 . S
C116 O131 1.268 . S
C117 O123 1.268 . S
C117 O127 1.268 . S
C118 O124 1.268 . S
C118 O126 1.268 . S
C119 O125 1.268 . S
C119 O128 1.268 . S
O120 Sc110 2.105 . S
O120 C114 1.268 . S
O121 Sc111 2.105 . S
O121 C115 1.268 . S
O122 Sc112 2.105 . S
O122 C116 1.268 . S
O123 Sc110 2.105 . S
O123 C117 1.268 . S
O124 Sc112 2.105 . S
O124 C118 1.268 . S
O125 Sc111 2.105 . S
O125 C119 1.268 . S
O126 Sc110 2.105 . S
O126 C118 1.268 . S
O127 Sc111 2.105 . S
O127 C117 1.268 . S
O128 Sc112 2.105 . S
O128 C119 1.268 . S
O129 Sc110 2.105 . S
O129 C115 1.268 . S
O130 Sc112 2.105 . S
O130 C114 1.268 . S
O131 Sc111 2.105 . S
O131 C116 1.268 . S
Sc132 O135 2.025 . S
Sc132 O142 2.105 . S
Sc132 O145 2.105 . S
Sc132 O148 2.105 . S
Sc132 O151 2.105 . S
Sc133 O135 2.025 . S
Sc133 O143 2.105 . S
Sc133 O147 2.105 . S
Sc133 O149 2.105 . S
Sc133 O153 2.105 . S
Sc134 O135 2.025 . S
Sc134 O144 2.105 . S
Sc134 O146 2.105 . S
Sc134 O150 2.105 . S
Sc134 O152 2.105 . S
O135 Sc132 2.025 . S
O135 Sc133 2.025 . S
O135 Sc134 2.025 . S
C136 O142 1.268 . S
C136 O152 1.268 . S
C137 O143 1.268 . S
C137 O151 1.268 . S
C138 O144 1.268 . S
C138 O153 1.268 . S
C139 O145 1.268 . S
C139 O149 1.268 . S
C140 O146 1.268 . S
C140 O148 1.268 . S
C141 O147 1.268 . S
C141 O150 1.268 . S
O142 Sc132 2.105 . S
O142 C136 1.268 . S
O143 Sc133 2.105 . S
O143 C137 1.268 . S
O144 Sc134 2.105 . S
O144 C138 1.268 . S
O145 Sc132 2.105 . S
O145 C139 1.268 . S
O146 Sc134 2.105 . S
O146 C140 1.268 . S
O147 Sc133 2.105 . S
O147 C141 1.268 . S
O148 Sc132 2.105 . S
O148 C140 1.268 . S
O149 Sc133 2.105 . S
O149 C139 1.268 . S
O150 Sc134 2.105 . S
O150 C141 1.268 . S
O151 Sc132 2.105 . S
O151 C137 1.268 . S
O152 Sc134 2.105 . S
O152 C136 1.268 . S
O153 Sc133 2.105 . S
O153 C138 1.268 . S
Sc154 O157 2.025 . S
Sc154 O164 2.105 . S
Sc154 O167 2.105 . S
Sc154 O170 2.105 . S
Sc154 O173 2.105 . S
Sc155 O157 2.025 . S
Sc155 O165 2.105 . S
Sc155 O169 2.105 . S
Sc155 O171 2.105 . S
Sc155 O175 2.105 . S
Sc156 O157 2.025 . S
Sc156 O166 2.105 . S
Sc156 O168 2.105 . S
Sc156 O172 2.105 . S
Sc156 O174 2.105 . S
O157 Sc154 2.025 . S
O157 Sc155 2.025 . S
O157 Sc156 2.025 . S
C158 O164 1.268 . S
C158 O174 1.268 . S
C159 O165 1.268 . S
C159 O173 1.268 . S
C160 O166 1.268 . S
C160 O175 1.268 . S
C161 O167 1.268 . S
C161 O171 1.268 . S
C162 O168 1.268 . S
C162 O170 1.268 . S
C163 O169 1.268 . S
C163 O172 1.268 . S
O164 Sc154 2.105 . S
O164 C158 1.268 . S
O165 Sc155 2.105 . S
O165 C159 1.268 . S
O166 Sc156 2.105 . S
O166 C160 1.268 . S
O167 Sc154 2.105 . S
O167 C161 1.268 . S
O168 Sc156 2.105 . S
O168 C162 1.268 . S
O169 Sc155 2.105 . S
O169 C163 1.268 . S
O170 Sc154 2.105 . S
O170 C162 1.268 . S
O171 Sc155 2.105 . S
O171 C161 1.268 . S
O172 Sc156 2.105 . S
O172 C163 1.268 . S
O173 Sc154 2.105 . S
O173 C159 1.268 . S
O174 Sc156 2.105 . S
O174 C158 1.268 . S
O175 Sc155 2.105 . S
O175 C160 1.268 . S
Sc176 O179 2.025 . S
Sc176 O186 2.105 . S
Sc176 O189 2.105 . S
Sc176 O192 2.105 . S
Sc176 O195 2.105 . S
Sc177 O179 2.025 . S
Sc177 O187 2.105 . S
Sc177 O191 2.105 . S
Sc177 O193 2.105 . S
Sc177 O197 2.105 . S
Sc178 O179 2.025 . S
Sc178 O188 2.105 . S
Sc178 O190 2.105 . S
Sc178 O194 2.105 . S
Sc178 O196 2.105 . S
O179 Sc176 2.025 . S
O179 Sc177 2.025 . S
O179 Sc178 2.025 . S
C180 O186 1.268 . S
C180 O196 1.268 . S
C181 O187 1.268 . S
C181 O195 1.268 . S
C182 O188 1.268 . S
C182 O197 1.268 . S
C183 O189 1.268 . S
C183 O193 1.268 . S
C184 O190 1.268 . S
C184 O192 1.268 . S
C185 O191 1.268 . S
C185 O194 1.268 . S
O186 Sc176 2.105 . S
O186 C180 1.268 . S
O187 Sc177 2.105 . S
O187 C181 1.268 . S
O188 Sc178 2.105 . S
O188 C182 1.268 . S
O189 Sc176 2.105 . S
O189 C183 1.268 . S
O190 Sc178 2.105 . S
O190 C184 1.268 . S
O191 Sc177 2.105 . S
O191 C185 1.268 . S
O192 Sc176 2.105 . S
O192 C184 1.268 . S
O193 Sc177 2.105 . S
O193 C183 1.268 . S
O194 Sc178 2.105 . S
O194 C185 1.268 . S
O195 Sc176 2.105 . S
O195 C181 1.268 . S
O196 Sc178 2.105 . S
O196 C180 1.268 . S
O197 Sc177 2.105 . S
O197 C182 1.268 . S
Sc198 O201 2.025 . S
Sc198 O208 2.105 . S
Sc198 O211 2.105 . S
Sc198 O214 2.105 . S
Sc198 O217 2.105 . S
Sc199 O201 2.025 . S
Sc199 O209 2.105 . S
Sc199 O213 2.105 . S
Sc199 O215 2.105 . S
Sc199 O219 2.105 . S
Sc200 O201 2.025 . S
Sc200 O210 2.105 . S
Sc200 O212 2.105 . S
Sc200 O216 2.105 . S
Sc200 O218 2.105 . S
O201 Sc198 2.025 . S
O201 Sc199 2.025 . S
O201 Sc200 2.025 . S
C202 O208 1.268 . S
C202 O218 1.268 . S
C203 O209 1.268 . S
C203 O217 1.268 . S
C204 O210 1.268 . S
C204 O219 1.268 . S
C205 O211 1.268 . S
C205 O215 1.268 . S
C206 O212 1.268 . S
C206 O214 1.268 . S
C207 O213 1.268 . S
C207 O216 1.268 . S
O208 Sc198 2.105 . S
O208 C202 1.268 . S
O209 Sc199 2.105 . S
O209 C203 1.268 . S
O210 Sc200 2.105 . S
O210 C204 1.268 . S
O211 Sc198 2.105 . S
O211 C205 1.268 . S
O212 Sc200 2.105 . S
O212 C206 1.268 . S
O213 Sc199 2.105 . S
O213 C207 1.268 . S
O214 Sc198 2.105 . S
O214 C206 1.268 . S
O215 Sc199 2.105 . S
O215 C205 1.268 . S
O216 Sc200 2.105 . S
O216 C207 1.268 . S
O217 Sc198 2.105 . S
O217 C203 1.268 . S
O218 Sc200 2.105 . S
O218 C202 1.268 . S
O219 Sc199 2.105 . S
O219 C204 1.268 . S
Sc220 O223 2.025 . S
Sc220 O230 2.105 . S
Sc220 O233 2.105 . S
Sc220 O236 2.105 . S
Sc220 O239 2.105 . S
Sc221 O223 2.025 . S
Sc221 O231 2.105 . S
Sc221 O235 2.105 . S
Sc221 O237 2.105 . S
Sc221 O241 2.105 . S
Sc222 O223 2.025 . S
Sc222 O232 2.105 . S
Sc222 O234 2.105 . S
Sc222 O238 2.105 . S
Sc222 O240 2.105 . S
O223 Sc220 2.025 . S
O223 Sc221 2.025 . S
O223 Sc222 2.025 . S
C224 O230 1.268 . S
C224 O240 1.268 . S
C225 O231 1.268 . S
C225 O239 1.268 . S
C226 O232 1.268 . S
C226 O241 1.268 . S
C227 O233 1.268 . S
C227 O237 1.268 . S
C228 O234 1.268 . S
C228 O236 1.268 . S
C229 O235 1.268 . S
C229 O238 1.268 . S
O230 Sc220 2.105 . S
O230 C224 1.268 . S
O231 Sc221 2.105 . S
O231 C225 1.268 . S
O232 Sc222 2.105 . S
O232 C226 1.268 . S
O233 Sc220 2.105 . S
O233 C227 1.268 . S
O234 Sc222 2.105 . S
O234 C228 1.268 . S
O235 Sc221 2.105 . S
O235 C229 1.268 . S
O236 Sc220 2.105 . S
O236 C228 1.268 . S
O237 Sc221 2.105 . S
O237 C227 1.268 . S
O238 Sc222 2.105 . S
O238 C229 1.268 . S
O239 Sc220 2.105 . S
O239 C225 1.268 . S
O240 Sc222 2.105 . S
O240 C224 1.268 . S
O241 Sc221 2.105 . S
O241 C226 1.268 . S
Sc242 O245 2.025 . S
Sc242 O252 2.105 . S
Sc242 O255 2.105 . S
Sc242 O258 2.105 . S
Sc242 O261 2.105 . S
Sc243 O245 2.025 . S
Sc243 O253 2.105 . S
Sc243 O257 2.105 . S
Sc243 O259 2.105 . S
Sc243 O263 2.105 . S
Sc244 O245 2.025 . S
Sc244 O254 2.105 . S
Sc244 O256 2.105 . S
Sc244 O260 2.105 . S
Sc244 O262 2.105 . S
O245 Sc242 2.025 . S
O245 Sc243 2.025 . S
O245 Sc244 2.025 . S
C246 O252 1.268 . S
C246 O262 1.268 . S
C247 O253 1.268 . S
C247 O261 1.268 . S
C248 O254 1.268 . S
C248 O263 1.268 . S
C249 O255 1.268 . S
C249 O259 1.268 . S
C250 O256 1.268 . S
C250 O258 1.268 . S
C251 O257 1.268 . S
C251 O260 1.268 . S
O252 Sc242 2.105 . S
O252 C246 1.268 . S
O253 Sc243 2.105 . S
O253 C247 1.268 . S
O254 Sc244 2.105 . S
O254 C248 1.268 . S
O255 Sc242 2.105 . S
O255 C249 1.268 . S
O256 Sc244 2.105 . S
O256 C250 1.268 . S
O257 Sc243 2.105 . S
O257 C251 1.268 . S
O258 Sc242 2.105 . S
O258 C250 1.268 . S
O259 Sc243 2.105 . S
O259 C249 1.268 . S
O260 Sc244 2.105 . S
O260 C251 1.268 . S
O261 Sc242 2.105 . S
O261 C247 1.268 . S
O262 Sc244 2.105 . S
O262 C246 1.268 . S
O263 Sc243 2.105 . S
O263 C248 1.268 . S
Sc264 O267 2.025 . S
Sc264 O274 2.105 . S
Sc264 O277 2.105 . S
Sc264 O280 2.105 . S
Sc264 O283 2.105 . S
Sc265 O267 2.025 . S
Sc265 O275 2.105 . S
Sc265 O279 2.105 . S
Sc265 O281 2.105 . S
Sc265 O285 2.105 . S
Sc266 O267 2.025 . S
Sc266 O276 2.105 . S
Sc266 O278 2.105 . S
Sc266 O282 2.105 . S
Sc266 O284 2.105 . S
O267 Sc264 2.025 . S
O267 Sc265 2.025 . S
O267 Sc266 2.025 . S
C268 O274 1.268 . S
C268 O284 1.268 . S
C269 O275 1.268 . S
C269 O283 1.268 . S
C270 O276 1.268 . S
C270 O285 1.268 . S
C271 O277 1.268 . S
C271 O281 1.268 . S
C272 O278 1.268 . S
C272 O280 1.268 . S
C273 O279 1.268 . S
C273 O282 1.268 . S
O274 Sc264 2.105 . S
O274 C268 1.268 . S
O275 Sc265 2.105 . S
O275 C269 1.268 . S
O276 Sc266 2.105 . S
O276 C270 1.268 . S
O277 Sc264 2.105 . S
O277 C271 1.268 . S
O278 Sc266 2.105 . S
O278 C272 1.268 . S
O279 Sc265 2.105 . S
O279 C273 1.268 . S
O280 Sc264 2.105 . S
O280 C272 1.268 . S
O281 Sc265 2.105 . S
O281 C271 1.268 . S
O282 Sc266 2.105 . S
O282 C273 1.268 . S
O283 Sc264 2.105 . S
O283 C269 1.268 . S
O284 Sc266 2.105 . S
O284 C268 1.268 . S
O285 Sc265 2.105 . S
O285 C270 1.268 . S
Sc286 O289 2.025 . S
Sc286 O296 2.105 . S
Sc286 O299 2.105 . S
Sc286 O302 2.105 . S
Sc286 O305 2.105 . S
Sc287 O289 2.025 . S
Sc287 O297 2.105 . S
Sc287 O301 2.105 . S
Sc287 O303 2.105 . S
Sc287 O307 2.105 . S
Sc288 O289 2.025 . S
Sc288 O298 2.105 . S
Sc288 O300 2.105 . S
Sc288 O304 2.105 . S
Sc288 O306 2.105 . S
O289 Sc286 2.025 . S
O289 Sc287 2.025 . S
O289 Sc288 2.025 . S
C290 O296 1.268 . S
C290 O306 1.268 . S
C291 O297 1.268 . S
C291 O305 1.268 . S
C292 O298 1.268 . S
C292 O307 1.268 . S
C293 O299 1.268 . S
C293 O303 1.268 . S
C294 O300 1.268 . S
C294 O302 1.268 . S
C295 O301 1.268 . S
C295 O304 1.268 . S
O296 Sc286 2.105 . S
O296 C290 1.268 . S
O297 Sc287 2.105 . S
O297 C291 1.268 . S
O298 Sc288 2.105 . S
O298 C292 1.268 . S
O299 Sc286 2.105 . S
O299 C293 1.268 . S
O300 Sc288 2.105 . S
O300 C294 1.268 . S
O301 Sc287 2.105 . S
O301 C295 1.268 . S
O302 Sc286 2.105 . S
O302 C294 1.268 . S
O303 Sc287 2.105 . S
O303 C293 1.268 . S
O304 Sc288 2.105 . S
O304 C295 1.268 . S
O305 Sc286 2.105 . S
O305 C291 1.268 . S
O306 Sc288 2.105 . S
O306 C290 1.268 . S
O307 Sc287 2.105 . S
O307 C292 1.268 . S
Sc308 O311 2.025 . S
Sc308 O318 2.105 . S
Sc308 O321 2.105 . S
Sc308 O324 2.105 . S
Sc308 O327 2.105 . S
Sc309 O311 2.025 . S
Sc309 O319 2.105 . S
Sc309 O323 2.105 . S
Sc309 O325 2.105 . S
Sc309 O329 2.105 . S
Sc310 O311 2.025 . S
Sc310 O320 2.105 . S
Sc310 O322 2.105 . S
Sc310 O326 2.105 . S
Sc310 O328 2.105 . S
O311 Sc308 2.025 . S
O311 Sc309 2.025 . S
O311 Sc310 2.025 . S
C312 O318 1.268 . S
C312 O328 1.268 . S
C313 O319 1.268 . S
C313 O327 1.268 . S
C314 O320 1.268 . S
C314 O329 1.268 . S
C315 O321 1.268 . S
C315 O325 1.268 . S
C316 O322 1.268 . S
C316 O324 1.268 . S
C317 O323 1.268 . S
C317 O326 1.268 . S
O318 Sc308 2.105 . S
O318 C312 1.268 . S
O319 Sc309 2.105 . S
O319 C313 1.268 . S
O320 Sc310 2.105 . S
O320 C314 1.268 . S
O321 Sc308 2.105 . S
O321 C315 1.268 . S
O322 Sc310 2.105 . S
O322 C316 1.268 . S
O323 Sc309 2.105 . S
O323 C317 1.268 . S
O324 Sc308 2.105 . S
O324 C316 1.268 . S
O325 Sc309 2.105 . S
O325 C315 1.268 . S
O326 Sc310 2.105 . S
O326 C317 1.268 . S
O327 Sc308 2.105 . S
O327 C313 1.268 . S
O328 Sc310 2.105 . S
O328 C312 1.268 . S
O329 Sc309 2.105 . S
O329 C314 1.268 . S
Sc330 O333 2.025 . S
Sc330 O340 2.105 . S
Sc330 O343 2.105 . S
Sc330 O346 2.105 . S
Sc330 O349 2.105 . S
Sc331 O333 2.025 . S
Sc331 O341 2.105 . S
Sc331 O345 2.105 . S
Sc331 O347 2.105 . S
Sc331 O351 2.105 . S
Sc332 O333 2.025 . S
Sc332 O342 2.105 . S
Sc332 O344 2.105 . S
Sc332 O348 2.105 . S
Sc332 O350 2.105 . S
O333 Sc330 2.025 . S
O333 Sc331 2.025 . S
O333 Sc332 2.025 . S
C334 O340 1.268 . S
C334 O350 1.268 . S
C335 O341 1.268 . S
C335 O349 1.268 . S
C336 O342 1.268 . S
C336 O351 1.268 . S
C337 O343 1.268 . S
C337 O347 1.268 . S
C338 O344 1.268 . S
C338 O346 1.268 . S
C339 O345 1.268 . S
C339 O348 1.268 . S
O340 Sc330 2.105 . S
O340 C334 1.268 . S
O341 Sc331 2.105 . S
O341 C335 1.268 . S
O342 Sc332 2.105 . S
O342 C336 1.268 . S
O343 Sc330 2.105 . S
O343 C337 1.268 . S
O344 Sc332 2.105 . S
O344 C338 1.268 . S
O345 Sc331 2.105 . S
O345 C339 1.268 . S
O346 Sc330 2.105 . S
O346 C338 1.268 . S
O347 Sc331 2.105 . S
O347 C337 1.268 . S
O348 Sc332 2.105 . S
O348 C339 1.268 . S
O349 Sc330 2.105 . S
O349 C335 1.268 . S
O350 Sc332 2.105 . S
O350 C334 1.268 . S
O351 Sc331 2.105 . S
O351 C336 1.268 . S
C352 C353 1.391 . S
C352 C354 1.394 . S
C352 H368 0.931 . S
C353 C352 1.391 . S
C353 C357 1.376 . S
C354 C352 1.394 . S
C354 C355 1.369 . S
C354 C358 1.531 1_554 S
C355 C354 1.369 . S
C355 C356 1.410 . S
C355 C363 1.503 1_554 S
C356 C355 1.410 . S
C356 C357 1.392 . S
C356 C359 1.511 . S
C357 C353 1.376 . S
C357 C356 1.392 . S
C357 H369 0.929 . S
C358 C354 1.531 1_556 S
C358 H370 0.960 . S
C358 H371 0.962 . S
C358 H372 0.960 . S
C359 C356 1.511 . S
C359 H373 0.961 . S
C359 H374 0.961 . S
C359 H375 0.961 . S
C360 C361 1.370 . S
C360 C362 1.363 . S
C360 H376 0.931 . S
C361 C360 1.370 . S
C361 C365 1.408 . S
C362 C360 1.363 . S
C362 C363 1.370 . S
C362 C366 1.524 . S
C363 C355 1.503 1_556 S
C363 C362 1.370 . S
C363 C364 1.403 . S
C364 C363 1.403 . S
C364 C365 1.404 . S
C364 C367 1.539 . S
C365 C361 1.408 . S
C365 C364 1.404 . S
C365 H377 0.930 . S
C366 C362 1.524 . S
C366 H378 0.956 . S
C366 H379 0.961 1_556 S
C366 H380 0.961 . S
C367 C364 1.539 . S
C367 H381 0.958 . S
C367 H382 0.961 . S
C367 H383 0.937 1_556 S
H368 C352 0.931 . S
H369 C357 0.929 . S
H370 C358 0.960 . S
H371 C358 0.962 . S
H372 C358 0.960 . S
H373 C359 0.961 . S
H374 C359 0.961 . S
H375 C359 0.961 . S
H376 C360 0.931 . S
H377 C365 0.930 . S
H378 C366 0.956 . S
H379 C366 0.961 1_554 S
H380 C366 0.961 . S
H381 C367 0.958 . S
H382 C367 0.961 . S
H383 C367 0.937 1_554 S
C384 C385 1.391 . S
C384 C386 1.394 . S
C384 H400 0.931 . S
C385 C384 1.391 . S
C385 C389 1.376 . S
C386 C384 1.394 . S
C386 C387 1.369 . S
C386 C390 1.531 . S
C387 C386 1.369 . S
C387 C388 1.410 . S
C387 C395 1.503 . S
C388 C387 1.410 . S
C388 C389 1.392 . S
C388 C391 1.511 . S
C389 C385 1.376 . S
C389 C388 1.392 . S
C389 H401 0.929 . S
C390 C386 1.531 . S
C390 H402 0.960 . S
C390 H403 0.962 . S
C390 H404 0.960 . S
C391 C388 1.511 . S
C391 H405 0.961 . S
C391 H406 0.961 . S
C391 H407 0.961 . S
C392 C393 1.370 . S
C392 C394 1.363 . S
C392 H408 0.931 . S
C393 C392 1.370 . S
C393 C397 1.408 . S
C394 C392 1.363 . S
C394 C395 1.370 . S
C394 C398 1.524 . S
C395 C387 1.503 . S
C395 C394 1.370 . S
C395 C396 1.403 . S
C396 C395 1.403 . S
C396 C397 1.404 . S
C396 C399 1.539 . S
C397 C393 1.408 . S
C397 C396 1.404 . S
C397 H409 0.930 . S
C398 C394 1.524 . S
C398 H410 0.956 . S
C398 H411 0.961 . S
C398 H412 0.961 . S
C399 C396 1.539 . S
C399 H413 0.958 . S
C399 H414 0.961 . S
C399 H415 0.960 . S
H400 C384 0.931 . S
H401 C389 0.929 . S
H402 C390 0.960 . S
H403 C390 0.962 . S
H404 C390 0.960 . S
H405 C391 0.961 . S
H406 C391 0.961 . S
H407 C391 0.961 . S
H408 C392 0.931 . S
H409 C397 0.930 . S
H410 C398 0.956 . S
H411 C398 0.961 . S
H412 C398 0.961 . S
H413 C399 0.958 . S
H414 C399 0.961 . S
H415 C399 0.960 . S
C416 C417 1.391 . S
C416 C418 1.394 . S
C416 H432 0.931 . S
C417 C416 1.391 . S
C417 C421 1.376 . S
C418 C416 1.394 . S
C418 C419 1.369 . S
C418 C422 1.531 . S
C419 C418 1.369 . S
C419 C420 1.410 . S
C419 C427 1.503 1_554 S
C420 C419 1.410 . S
C420 C421 1.392 . S
C420 C423 1.511 . S
C421 C417 1.376 . S
C421 C420 1.392 . S
C421 H433 0.929 . S
C422 C418 1.531 . S
C422 H434 0.960 1_554 S
C422 H435 0.962 1_554 S
C422 H436 0.960 . S
C423 C420 1.511 . S
C423 H437 0.961 . S
C423 H438 0.961 . S
C423 H439 0.961 . S
C424 C425 1.370 . S
C424 C426 1.363 . S
C424 H440 0.931 . S
C425 C424 1.370 . S
C425 C429 1.408 . S
C426 C424 1.363 . S
C426 C427 1.370 . S
C426 C430 1.524 . S
C427 C419 1.503 1_556 S
C427 C426 1.370 . S
C427 C428 1.403 . S
C428 C427 1.403 . S
C428 C429 1.404 . S
C428 C431 1.539 1_556 S
C429 C425 1.408 . S
C429 C428 1.404 . S
C429 H441 0.930 . S
C430 C426 1.524 . S
C430 H442 0.956 . S
C430 H443 0.961 . S
C430 H444 0.961 . S
C431 C428 1.539 1_554 S
C431 H445 0.958 . S
C431 H446 0.950 1_554 S
C431 H447 0.960 . S
H432 C416 0.931 . S
H433 C421 0.929 . S
H434 C422 0.960 1_556 S
H435 C422 0.962 1_556 S
H436 C422 0.960 . S
H437 C423 0.961 . S
H438 C423 0.961 . S
H439 C423 0.961 . S
H440 C424 0.931 . S
H441 C429 0.930 . S
H442 C430 0.956 . S
H443 C430 0.961 . S
H444 C430 0.961 . S
H445 C431 0.958 . S
H446 C431 0.950 1_556 S
H447 C431 0.960 . S
C448 C449 1.391 . S
C448 C450 1.394 . S
C448 H464 0.931 . S
C449 C448 1.391 . S
C449 C453 1.376 . S
C450 C448 1.394 . S
C450 C451 1.369 . S
C450 C454 1.531 . S
C451 C450 1.369 . S
C451 C452 1.410 . S
C451 C459 1.503 . S
C452 C451 1.410 . S
C452 C453 1.392 . S
C452 C455 1.511 . S
C453 C449 1.376 . S
C453 C452 1.392 . S
C453 H465 0.929 . S
C454 C450 1.531 . S
C454 H466 0.960 . S
C454 H467 0.962 . S
C454 H468 0.960 . S
C455 C452 1.511 . S
C455 H469 0.961 . S
C455 H470 0.961 . S
C455 H471 0.961 . S
C456 C457 1.370 . S
C456 C458 1.363 . S
C456 H472 0.931 . S
C457 C456 1.370 . S
C457 C461 1.408 . S
C458 C456 1.363 . S
C458 C459 1.370 . S
C458 C462 1.524 . S
C459 C451 1.503 . S
C459 C458 1.370 . S
C459 C460 1.403 . S
C460 C459 1.403 . S
C460 C461 1.404 . S
C460 C463 1.539 . S
C461 C457 1.408 . S
C461 C460 1.404 . S
C461 H473 0.930 . S
C462 C458 1.524 . S
C462 H474 0.956 . S
C462 H475 0.961 . S
C462 H476 0.961 . S
C463 C460 1.539 . S
C463 H477 0.958 . S
C463 H478 0.961 . S
C463 H479 0.960 . S
H464 C448 0.931 . S
H465 C453 0.929 . S
H466 C454 0.960 . S
H467 C454 0.962 . S
H468 C454 0.960 . S
H469 C455 0.961 . S
H470 C455 0.961 . S
H471 C455 0.961 . S
H472 C456 0.931 . S
H473 C461 0.930 . S
H474 C462 0.956 . S
H475 C462 0.961 . S
H476 C462 0.961 . S
H477 C463 0.958 . S
H478 C463 0.961 . S
H479 C463 0.960 . S
C480 C481 1.391 . S
C480 C482 1.394 . S
C480 H496 0.931 . S
C481 C480 1.391 . S
C481 C485 1.376 . S
C482 C480 1.394 . S
C482 C483 1.369 . S
C482 C486 1.528 1_556 S
C483 C482 1.369 . S
C483 C484 1.410 . S
C483 C491 1.503 1_556 S
C484 C483 1.410 . S
C484 C485 1.392 . S
C484 C487 1.511 . S
C485 C481 1.376 . S
C485 C484 1.392 . S
C485 H497 0.929 . S
C486 C482 1.528 1_554 S
C486 H498 0.963 . S
C486 H499 0.964 . S
C486 H500 0.959 1_554 S
C487 C484 1.511 . S
C487 H501 0.961 . S
C487 H502 0.961 . S
C487 H503 0.961 . S
C488 C489 1.370 . S
C488 C490 1.363 . S
C488 H504 0.931 . S
C489 C488 1.370 . S
C489 C493 1.408 . S
C490 C488 1.363 . S
C490 C491 1.370 . S
C490 C494 1.524 . S
C491 C483 1.503 1_554 S
C491 C490 1.370 . S
C491 C492 1.403 . S
C492 C491 1.403 . S
C492 C493 1.404 . S
C492 C495 1.539 . S
C493 C489 1.408 . S
C493 C492 1.404 . S
C493 H505 0.930 . S
C494 C490 1.524 . S
C494 H506 0.956 . S
C494 H507 0.961 . S
C494 H508 0.961 . S
C495 C492 1.539 . S
C495 H509 0.958 . S
C495 H510 0.961 . S
C495 H511 0.960 1_554 S
H496 C480 0.931 . S
H497 C485 0.929 . S
H498 C486 0.963 . S
H499 C486 0.964 . S
H500 C486 0.959 1_556 S
H501 C487 0.961 . S
H502 C487 0.961 . S
H503 C487 0.961 . S
H504 C488 0.931 . S
H505 C493 0.930 . S
H506 C494 0.956 . S
H507 C494 0.961 . S
H508 C494 0.961 . S
H509 C495 0.958 . S
H510 C495 0.961 . S
H511 C495 0.960 1_556 S
C512 C513 1.391 . S
C512 C514 1.394 . S
C512 H528 0.931 . S
C513 C512 1.391 . S
C513 C517 1.376 . S
C514 C512 1.394 . S
C514 C515 1.369 . S
C514 C518 1.531 . S
C515 C514 1.369 . S
C515 C516 1.410 . S
C515 C523 1.503 . S
C516 C515 1.410 . S
C516 C517 1.392 . S
C516 C519 1.511 . S
C517 C513 1.376 . S
C517 C516 1.392 . S
C517 H529 0.929 . S
C518 C514 1.531 . S
C518 H530 0.960 . S
C518 H531 0.962 . S
C518 H532 0.960 . S
C519 C516 1.511 . S
C519 H533 0.961 . S
C519 H534 0.961 . S
C519 H535 0.961 . S
C520 C521 1.370 . S
C520 C522 1.363 . S
C520 H536 0.931 . S
C521 C520 1.370 . S
C521 C525 1.408 . S
C522 C520 1.363 . S
C522 C523 1.370 . S
C522 C526 1.524 . S
C523 C515 1.503 . S
C523 C522 1.370 . S
C523 C524 1.403 . S
C524 C523 1.403 . S
C524 C525 1.404 . S
C524 C527 1.539 . S
C525 C521 1.408 . S
C525 C524 1.404 . S
C525 H537 0.930 . S
C526 C522 1.524 . S
C526 H538 0.956 . S
C526 H539 0.961 . S
C526 H540 0.961 . S
C527 C524 1.539 . S
C527 H541 0.958 . S
C527 H542 0.961 . S
C527 H543 0.960 . S
H528 C512 0.931 . S
H529 C517 0.929 . S
H530 C518 0.960 . S
H531 C518 0.962 . S
H532 C518 0.960 . S
H533 C519 0.961 . S
H534 C519 0.961 . S
H535 C519 0.961 . S
H536 C520 0.931 . S
H537 C525 0.930 . S
H538 C526 0.956 . S
H539 C526 0.961 . S
H540 C526 0.961 . S
H541 C527 0.958 . S
H542 C527 0.961 . S
H543 C527 0.960 . S
C544 C545 1.391 . S
C544 C546 1.394 . S
C544 H560 0.931 . S
C545 C544 1.391 . S
C545 C549 1.376 . S
C546 C544 1.394 . S
C546 C547 1.369 . S
C546 C550 1.531 . S
C547 C546 1.369 . S
C547 C548 1.410 . S
C547 C555 1.503 1_554 S
C548 C547 1.410 . S
C548 C549 1.392 . S
C548 C551 1.511 . S
C549 C545 1.376 . S
C549 C548 1.392 . S
C549 H561 0.929 . S
C550 C546 1.531 . S
C550 H562 0.960 . S
C550 H563 0.962 . S
C550 H564 0.960 . S
C551 C548 1.511 . S
C551 H565 0.961 . S
C551 H566 0.961 1_554 S
C551 H567 0.961 . S
C552 C553 1.370 . S
C552 C554 1.363 . S
C552 H568 0.931 . S
C553 C552 1.370 . S
C553 C557 1.408 . S
C554 C552 1.363 . S
C554 C555 1.370 . S
C554 C558 1.524 . S
C555 C547 1.503 1_556 S
C555 C554 1.370 . S
C555 C556 1.403 . S
C556 C555 1.403 . S
C556 C557 1.404 . S
C556 C559 1.532 1_556 S
C557 C553 1.408 . S
C557 C556 1.404 . S
C557 H569 0.930 . S
C558 C554 1.524 . S
C558 H570 0.956 . S
C558 H571 0.961 . S
C558 H572 0.961 . S
C559 C556 1.532 1_554 S
C559 H573 0.963 . S
C559 H574 0.956 1_554 S
C559 H575 0.968 . S
H560 C544 0.931 . S
H561 C549 0.929 . S
H562 C550 0.960 . S
H563 C550 0.962 . S
H564 C550 0.960 . S
H565 C551 0.961 . S
H566 C551 0.961 1_556 S
H567 C551 0.961 . S
H568 C552 0.931 . S
H569 C557 0.930 . S
H570 C558 0.956 . S
H571 C558 0.961 . S
H572 C558 0.961 . S
H573 C559 0.963 . S
H574 C559 0.956 1_556 S
H575 C559 0.968 . S
C576 C577 1.391 . S
C576 C578 1.394 . S
C576 H592 0.931 . S
C577 C576 1.391 . S
C577 C581 1.376 . S
C578 C576 1.394 . S
C578 C579 1.369 . S
C578 C582 1.531 . S
C579 C578 1.369 . S
C579 C580 1.410 . S
C579 C587 1.503 . S
C580 C579 1.410 . S
C580 C581 1.392 . S
C580 C583 1.511 . S
C581 C577 1.376 . S
C581 C580 1.392 . S
C581 H593 0.929 . S
C582 C578 1.531 . S
C582 H594 0.960 . S
C582 H595 0.962 . S
C582 H596 0.960 . S
C583 C580 1.511 . S
C583 H597 0.961 . S
C583 H598 0.961 . S
C583 H599 0.961 . S
C584 C585 1.370 . S
C584 C586 1.363 . S
C584 H600 0.931 . S
C585 C584 1.370 . S
C585 C589 1.408 . S
C586 C584 1.363 . S
C586 C587 1.370 . S
C586 C590 1.524 . S
C587 C579 1.503 . S
C587 C586 1.370 . S
C587 C588 1.403 . S
C588 C587 1.403 . S
C588 C589 1.404 . S
C588 C591 1.539 . S
C589 C585 1.408 . S
C589 C588 1.404 . S
C589 H601 0.930 . S
C590 C586 1.524 . S
C590 H602 0.956 . S
C590 H603 0.961 . S
C590 H604 0.961 . S
C591 C588 1.539 . S
C591 H605 0.958 . S
C591 H606 0.961 . S
C591 H607 0.960 . S
H592 C576 0.931 . S
H593 C581 0.929 . S
H594 C582 0.960 . S
H595 C582 0.962 . S
H596 C582 0.960 . S
H597 C583 0.961 . S
H598 C583 0.961 . S
H599 C583 0.961 . S
H600 C584 0.931 . S
H601 C589 0.930 . S
H602 C590 0.956 . S
H603 C590 0.961 . S
H604 C590 0.961 . S
H605 C591 0.958 . S
H606 C591 0.961 . S
H607 C591 0.960 . S
C608 C609 1.391 . S
C608 C610 1.394 . S
C608 H624 0.931 . S
C609 C608 1.391 . S
C609 C613 1.376 . S
C610 C608 1.394 . S
C610 C611 1.369 . S
C610 C614 1.531 1_556 S
C611 C610 1.369 . S
C611 C612 1.410 . S
C611 C619 1.503 1_566 S
C612 C611 1.410 . S
C612 C613 1.392 . S
C612 C615 1.511 1_565 S
C613 C609 1.376 . S
C613 C612 1.392 . S
C613 H625 0.929 . S
C614 C610 1.531 1_554 S
C614 H626 0.960 . S
C614 H627 0.962 . S
C614 H628 0.960 . S
C615 C612 1.511 1_545 S
C615 H629 0.961 . S
C615 H630 0.961 . S
C615 H631 0.961 . S
C616 C617 1.370 . S
C616 C618 1.363 . S
C616 H632 0.931 . S
C617 C616 1.370 . S
C617 C621 1.408 . S
C618 C616 1.363 . S
C618 C619 1.370 . S
C618 C622 1.524 1_554 S
C619 C611 1.503 1_544 S
C619 C618 1.370 . S
C619 C620 1.403 . S
C620 C619 1.403 . S
C620 C621 1.404 . S
C620 C623 1.539 1_545 S
C621 C617 1.408 . S
C621 C620 1.404 . S
C621 H633 0.930 . S
C622 C618 1.524 1_556 S
C622 H634 0.956 . S
C622 H635 0.961 . S
C622 H636 0.961 . S
C623 C620 1.539 1_565 S
C623 H637 0.958 . S
C623 H638 0.961 . S
C623 H639 0.960 . S
H624 C608 0.931 . S
H625 C613 0.929 . S
H626 C614 0.960 . S
H627 C614 0.962 . S
H628 C614 0.960 . S
H629 C615 0.961 . S
H630 C615 0.961 . S
H631 C615 0.961 . S
H632 C616 0.931 . S
H633 C621 0.930 . S
H634 C622 0.956 . S
H635 C622 0.961 . S
H636 C622 0.961 . S
H637 C623 0.958 . S
H638 C623 0.961 . S
H639 C623 0.960 . S
C640 C641 1.391 . S
C640 C642 1.394 . S
C640 H656 0.931 . S
C641 C640 1.391 . S
C641 C645 1.376 . S
C642 C640 1.394 . S
C642 C643 1.369 . S
C642 C646 1.531 1_565 S
C643 C642 1.369 . S
C643 C644 1.410 . S
C643 C651 1.503 1_565 S
C644 C643 1.410 . S
C644 C645 1.392 . S
C644 C647 1.511 . S
C645 C641 1.376 . S
C645 C644 1.392 . S
C645 H657 0.929 . S
C646 C642 1.531 1_545 S
C646 H658 0.960 . S
C646 H659 0.962 . S
C646 H660 0.960 . S
C647 C644 1.511 . S
C647 H661 0.961 . S
C647 H662 0.961 . S
C647 H663 0.961 . S
C648 C649 1.370 . S
C648 C650 1.363 . S
C648 H664 0.931 . S
C649 C648 1.370 . S
C649 C653 1.408 . S
C650 C648 1.363 . S
C650 C651 1.370 . S
C650 C654 1.524 1_545 S
C651 C643 1.503 1_545 S
C651 C650 1.370 . S
C651 C652 1.403 . S
C652 C651 1.403 . S
C652 C653 1.404 . S
C652 C655 1.539 . S
C653 C649 1.408 . S
C653 C652 1.404 . S
C653 H665 0.930 . S
C654 C650 1.524 1_565 S
C654 H666 0.956 . S
C654 H667 0.961 . S
C654 H668 0.961 . S
C655 C652 1.539 . S
C655 H669 0.958 . S
C655 H670 0.961 . S
C655 H671 0.960 . S
H656 C640 0.931 . S
H657 C645 0.929 . S
H658 C646 0.960 . S
H659 C646 0.962 . S
H660 C646 0.960 . S
H661 C647 0.961 . S
H662 C647 0.961 . S
H663 C647 0.961 . S
H664 C648 0.931 . S
H665 C653 0.930 . S
H666 C654 0.956 . S
H667 C654 0.961 . S
H668 C654 0.961 . S
H669 C655 0.958 . S
H670 C655 0.961 . S
H671 C655 0.960 . S
C672 C673 1.391 . S
C672 C674 1.394 . S
C672 H688 0.931 . S
C673 C672 1.391 . S
C673 C677 1.376 . S
C674 C672 1.394 . S
C674 C675 1.369 . S
C674 C678 1.531 1_565 S
C675 C674 1.369 . S
C675 C676 1.410 . S
C675 C683 1.503 1_566 S
C676 C675 1.410 . S
C676 C677 1.392 . S
C676 C679 1.511 1_556 S
C677 C673 1.376 . S
C677 C676 1.392 . S
C677 H689 0.929 . S
C678 C674 1.531 1_545 S
C678 H690 0.960 . S
C678 H691 0.962 . S
C678 H692 0.960 . S
C679 C676 1.511 1_554 S
C679 H693 0.961 . S
C679 H694 0.961 . S
C679 H695 0.961 . S
C680 C681 1.370 . S
C680 C682 1.363 . S
C680 H696 0.931 . S
C681 C680 1.370 . S
C681 C685 1.408 . S
C682 C680 1.363 . S
C682 C683 1.370 . S
C682 C686 1.524 1_554 S
C683 C675 1.503 1_544 S
C683 C682 1.370 . S
C683 C684 1.403 . S
C684 C683 1.403 . S
C684 C685 1.404 . S
C684 C687 1.539 1_545 S
C685 C681 1.408 . S
C685 C684 1.404 . S
C685 H697 0.930 . S
C686 C682 1.524 1_556 S
C686 H698 0.956 . S
C686 H699 0.961 . S
C686 H700 0.961 . S
C687 C684 1.539 1_565 S
C687 H701 0.958 . S
C687 H702 0.961 . S
C687 H703 0.960 . S
H688 C672 0.931 . S
H689 C677 0.929 . S
H690 C678 0.960 . S
H691 C678 0.962 . S
H692 C678 0.960 . S
H693 C679 0.961 . S
H694 C679 0.961 . S
H695 C679 0.961 . S
H696 C680 0.931 . S
H697 C685 0.930 . S
H698 C686 0.956 . S
H699 C686 0.961 . S
H700 C686 0.961 . S
H701 C687 0.958 . S
H702 C687 0.961 . S
H703 C687 0.960 . S
C704 C705 1.391 . S
C704 C706 1.394 . S
C704 H720 0.931 . S
C705 C704 1.391 . S
C705 C709 1.376 . S
C706 C704 1.394 . S
C706 C707 1.369 . S
C706 C710 1.531 1_565 S
C707 C706 1.369 . S
C707 C708 1.410 . S
C707 C715 1.503 1_565 S
C708 C707 1.410 . S
C708 C709 1.392 . S
C708 C711 1.511 . S
C709 C705 1.376 . S
C709 C708 1.392 . S
C709 H721 0.929 . S
C710 C706 1.531 1_545 S
C710 H722 0.960 . S
C710 H723 0.962 . S
C710 H724 0.960 . S
C711 C708 1.511 . S
C711 H725 0.961 . S
C711 H726 0.961 . S
C711 H727 0.961 . S
C712 C713 1.370 . S
C712 C714 1.363 . S
C712 H728 0.931 . S
C713 C712 1.370 . S
C713 C717 1.408 . S
C714 C712 1.363 . S
C714 C715 1.370 . S
C714 C718 1.524 1_545 S
C715 C707 1.503 1_545 S
C715 C714 1.370 . S
C715 C716 1.403 . S
C716 C715 1.403 . S
C716 C717 1.404 . S
C716 C719 1.539 . S
C717 C713 1.408 . S
C717 C716 1.404 . S
C717 H729 0.930 . S
C718 C714 1.524 1_565 S
C718 H730 0.956 . S
C718 H731 0.961 . S
C718 H732 0.961 . S
C719 C716 1.539 . S
C719 H733 0.958 . S
C719 H734 0.961 . S
C719 H735 0.960 . S
H720 C704 0.931 . S
H721 C709 0.929 . S
H722 C710 0.960 . S
H723 C710 0.962 . S
H724 C710 0.960 . S
H725 C711 0.961 . S
H726 C711 0.961 . S
H727 C711 0.961 . S
H728 C712 0.931 . S
H729 C717 0.930 . S
H730 C718 0.956 . S
H731 C718 0.961 . S
H732 C718 0.961 . S
H733 C719 0.958 . S
H734 C719 0.961 . S
H735 C719 0.960 . S
C736 C737 1.391 . S
C736 C738 1.394 . S
C736 H752 0.931 . S
C737 C736 1.391 . S
C737 C741 1.376 . S
C738 C736 1.394 . S
C738 C739 1.369 . S
C738 C742 1.531 . S
C739 C738 1.369 . S
C739 C740 1.410 . S
C739 C747 1.503 1_554 S
C740 C739 1.410 . S
C740 C741 1.392 . S
C740 C743 1.511 . S
C741 C737 1.376 . S
C741 C740 1.392 . S
C741 H753 0.929 . S
C742 C738 1.531 . S
C742 H754 0.960 . S
C742 H755 0.999 . S
C742 H756 0.960 . S
C743 C740 1.511 . S
C743 H757 0.961 . S
C743 H758 0.961 1_554 S
C743 H759 0.961 . S
C744 C745 1.370 . S
C744 C746 1.363 . S
C744 H760 0.931 . S
C745 C744 1.370 . S
C745 C749 1.408 . S
C746 C744 1.363 . S
C746 C747 1.370 . S
C746 C750 1.524 . S
C747 C739 1.503 1_556 S
C747 C746 1.370 . S
C747 C748 1.403 . S
C748 C747 1.403 . S
C748 C749 1.404 . S
C748 C751 1.539 1_556 S
C749 C745 1.408 . S
C749 C748 1.404 . S
C749 H761 0.930 . S
C750 C746 1.524 . S
C750 H762 0.956 . S
C750 H763 0.961 . S
C750 H764 0.961 . S
C751 C748 1.539 1_554 S
C751 H765 0.958 . S
C751 H766 0.961 . S
C751 H767 0.960 . S
H752 C736 0.931 . S
H753 C741 0.929 . S
H754 C742 0.960 . S
H755 C742 0.999 . S
H756 C742 0.960 . S
H757 C743 0.961 . S
H758 C743 0.961 1_556 S
H759 C743 0.961 . S
H760 C744 0.931 . S
H761 C749 0.930 . S
H762 C750 0.956 . S
H763 C750 0.961 . S
H764 C750 0.961 . S
H765 C751 0.958 . S
H766 C751 0.961 . S
H767 C751 0.960 . S
C768 C769 1.391 . S
C768 C770 1.394 . S
C768 H784 0.931 . S
C769 C768 1.391 . S
C769 C773 1.376 . S
C770 C768 1.394 . S
C770 C771 1.369 . S
C770 C774 1.531 . S
C771 C770 1.369 . S
C771 C772 1.410 . S
C771 C779 1.503 . S
C772 C771 1.410 . S
C772 C773 1.392 . S
C772 C775 1.511 . S
C773 C769 1.376 . S
C773 C772 1.392 . S
C773 H785 0.929 . S
C774 C770 1.531 . S
C774 H786 0.960 . S
C774 H787 0.962 . S
C774 H788 0.960 . S
C775 C772 1.511 . S
C775 H789 0.961 . S
C775 H790 0.961 . S
C775 H791 0.961 . S
C776 C777 1.370 . S
C776 C778 1.363 . S
C776 H792 0.931 . S
C777 C776 1.370 . S
C777 C781 1.408 . S
C778 C776 1.363 . S
C778 C779 1.370 . S
C778 C782 1.524 . S
C779 C771 1.503 . S
C779 C778 1.370 . S
C779 C780 1.403 . S
C780 C779 1.403 . S
C780 C781 1.404 . S
C780 C783 1.539 . S
C781 C777 1.408 . S
C781 C780 1.404 . S
C781 H793 0.930 . S
C782 C778 1.524 . S
C782 H794 0.956 . S
C782 H795 0.961 . S
C782 H796 0.961 . S
C783 C780 1.539 . S
C783 H797 0.958 . S
C783 H798 0.961 . S
C783 H799 0.960 . S
H784 C768 0.931 . S
H785 C773 0.929 . S
H786 C774 0.960 . S
H787 C774 0.962 . S
H788 C774 0.960 . S
H789 C775 0.961 . S
H790 C775 0.961 . S
H791 C775 0.961 . S
H792 C776 0.931 . S
H793 C781 0.930 . S
H794 C782 0.956 . S
H795 C782 0.961 . S
H796 C782 0.961 . S
H797 C783 0.958 . S
H798 C783 0.961 . S
H799 C783 0.960 . S
C800 C801 1.391 . S
C800 C802 1.394 . S
C800 H816 0.931 . S
C801 C800 1.391 . S
C801 C805 1.376 . S
C802 C800 1.394 . S
C802 C803 1.369 . S
C802 C806 1.531 . S
C803 C802 1.369 . S
C803 C804 1.410 . S
C803 C811 1.503 1_554 S
C804 C803 1.410 . S
C804 C805 1.392 . S
C804 C807 1.511 . S
C805 C801 1.376 . S
C805 C804 1.392 . S
C805 H817 0.929 . S
C806 C802 1.531 . S
C806 H818 0.960 1_554 S
C806 H819 0.962 . S
C806 H820 0.960 . S
C807 C804 1.511 . S
C807 H821 0.961 . S
C807 H822 0.961 1_554 S
C807 H823 0.961 1_554 S
C808 C809 1.370 . S
C808 C810 1.363 . S
C808 H824 0.931 . S
C809 C808 1.370 . S
C809 C813 1.408 . S
C810 C808 1.363 . S
C810 C811 1.370 . S
C810 C814 1.524 1_556 S
C811 C803 1.503 1_556 S
C811 C810 1.370 . S
C811 C812 1.403 . S
C812 C811 1.403 . S
C812 C813 1.404 . S
C812 C815 1.539 . S
C813 C809 1.408 . S
C813 C812 1.404 . S
C813 H825 0.930 . S
C814 C810 1.524 1_554 S
C814 H826 0.956 . S
C814 H827 0.961 . S
C814 H828 0.961 . S
C815 C812 1.539 . S
C815 H829 0.958 . S
C815 H830 0.961 . S
C815 H831 0.960 . S
H816 C800 0.931 . S
H817 C805 0.929 . S
H818 C806 0.960 1_556 S
H819 C806 0.962 . S
H820 C806 0.960 . S
H821 C807 0.961 . S
H822 C807 0.961 1_556 S
H823 C807 0.961 1_556 S
H824 C808 0.931 . S
H825 C813 0.930 . S
H826 C814 0.956 . S
H827 C814 0.961 . S
H828 C814 0.961 . S
H829 C815 0.958 . S
H830 C815 0.961 . S
H831 C815 0.960 . S
C832 C833 1.391 . S
C832 C834 1.394 . S
C832 H848 0.931 . S
C833 C832 1.391 . S
C833 C837 1.376 . S
C834 C832 1.394 . S
C834 C835 1.369 . S
C834 C838 1.531 . S
C835 C834 1.369 . S
C835 C836 1.410 . S
C835 C843 1.503 . S
C836 C835 1.410 . S
C836 C837 1.392 . S
C836 C839 1.511 . S
C837 C833 1.376 . S
C837 C836 1.392 . S
C837 H849 0.929 . S
C838 C834 1.531 . S
C838 H850 0.960 . S
C838 H851 0.962 . S
C838 H852 0.960 . S
C839 C836 1.511 . S
C839 H853 0.961 . S
C839 H854 0.961 . S
C839 H855 0.961 . S
C840 C841 1.370 . S
C840 C842 1.363 . S
C840 H856 0.931 . S
C841 C840 1.370 . S
C841 C845 1.408 . S
C842 C840 1.363 . S
C842 C843 1.370 . S
C842 C846 1.524 . S
C843 C835 1.503 . S
C843 C842 1.370 . S
C843 C844 1.403 . S
C844 C843 1.403 . S
C844 C845 1.404 . S
C844 C847 1.539 . S
C845 C841 1.408 . S
C845 C844 1.404 . S
C845 H857 0.930 . S
C846 C842 1.524 . S
C846 H858 0.956 . S
C846 H859 0.961 . S
C846 H860 0.961 . S
C847 C844 1.539 . S
C847 H861 0.958 . S
C847 H862 0.961 . S
C847 H863 0.960 . S
H848 C832 0.931 . S
H849 C837 0.929 . S
H850 C838 0.960 . S
H851 C838 0.962 . S
H852 C838 0.960 . S
H853 C839 0.961 . S
H854 C839 0.961 . S
H855 C839 0.961 . S
H856 C840 0.931 . S
H857 C845 0.930 . S
H858 C846 0.956 . S
H859 C846 0.961 . S
H860 C846 0.961 . S
H861 C847 0.958 . S
H862 C847 0.961 . S
H863 C847 0.960 . S
C864 C865 1.391 . S
C864 C866 1.394 . S
C864 H880 0.931 . S
C865 C864 1.391 . S
C865 C869 1.376 . S
C866 C864 1.394 . S
C866 C867 1.369 . S
C866 C870 1.531 . S
C867 C866 1.369 . S
C867 C868 1.410 . S
C867 C875 1.503 . S
C868 C867 1.410 . S
C868 C869 1.392 . S
C868 C871 1.511 . S
C869 C865 1.376 . S
C869 C868 1.392 . S
C869 H881 0.929 . S
C870 C866 1.531 . S
C870 H882 0.960 . S
C870 H883 0.962 . S
C870 H884 0.960 . S
C871 C868 1.511 . S
C871 H885 0.961 . S
C871 H886 0.961 . S
C871 H887 0.961 . S
C872 C873 1.370 . S
C872 C874 1.363 . S
C872 H888 0.931 . S
C873 C872 1.370 . S
C873 C877 1.408 . S
C874 C872 1.363 . S
C874 C875 1.370 . S
C874 C878 1.524 . S
C875 C867 1.503 . S
C875 C874 1.370 . S
C875 C876 1.403 . S
C876 C875 1.403 . S
C876 C877 1.404 . S
C876 C879 1.539 . S
C877 C873 1.408 . S
C877 C876 1.404 . S
C877 H889 0.930 . S
C878 C874 1.524 . S
C878 H890 0.956 . S
C878 H891 0.961 . S
C878 H892 0.961 . S
C879 C876 1.539 . S
C879 H893 0.958 . S
C879 H894 0.961 . S
C879 H895 0.960 . S
H880 C864 0.931 . S
H881 C869 0.929 . S
H882 C870 0.960 . S
H883 C870 0.962 . S
H884 C870 0.960 . S
H885 C871 0.961 . S
H886 C871 0.961 . S
H887 C871 0.961 . S
H888 C872 0.931 . S
H889 C877 0.930 . S
H890 C878 0.956 . S
H891 C878 0.961 . S
H892 C878 0.961 . S
H893 C879 0.958 . S
H894 C879 0.961 . S
H895 C879 0.960 . S
C896 C897 1.391 . S
C896 C898 1.394 . S
C896 H912 0.931 . S
C897 C896 1.391 . S
C897 C901 1.376 . S
C898 C896 1.394 . S
C898 C899 1.369 . S
C898 C902 1.531 . S
C899 C898 1.369 . S
C899 C900 1.410 . S
C899 C907 1.503 . S
C900 C899 1.410 . S
C900 C901 1.392 . S
C900 C903 1.511 . S
C901 C897 1.376 . S
C901 C900 1.392 . S
C901 H913 0.929 . S
C902 C898 1.531 . S
C902 H914 0.960 . S
C902 H915 0.962 . S
C902 H916 0.960 . S
C903 C900 1.511 . S
C903 H917 0.961 . S
C903 H918 0.961 . S
C903 H919 0.961 . S
C904 C905 1.370 . S
C904 C906 1.363 . S
C904 H920 0.931 . S
C905 C904 1.370 . S
C905 C909 1.408 . S
C906 C904 1.363 . S
C906 C907 1.370 . S
C906 C910 1.524 . S
C907 C899 1.503 . S
C907 C906 1.370 . S
C907 C908 1.403 . S
C908 C907 1.403 . S
C908 C909 1.404 . S
C908 C911 1.539 . S
C909 C905 1.408 . S
C909 C908 1.404 . S
C909 H921 0.930 . S
C910 C906 1.524 . S
C910 H922 0.956 . S
C910 H923 0.961 . S
C910 H924 0.961 . S
C911 C908 1.539 . S
C911 H925 0.958 . S
C911 H926 0.961 . S
C911 H927 0.960 . S
H912 C896 0.931 . S
H913 C901 0.929 . S
H914 C902 0.960 . S
H915 C902 0.962 . S
H916 C902 0.960 . S
H917 C903 0.961 . S
H918 C903 0.961 . S
H919 C903 0.961 . S
H920 C904 0.931 . S
H921 C909 0.930 . S
H922 C910 0.956 . S
H923 C910 0.961 . S
H924 C910 0.961 . S
H925 C911 0.958 . S
H926 C911 0.961 . S
H927 C911 0.960 . S
C928 C929 1.391 . S
C928 C930 1.394 . S
C928 H944 0.931 . S
C929 C928 1.391 . S
C929 C933 1.376 . S
C930 C928 1.394 . S
C930 C931 1.369 . S
C930 C934 1.531 . S
C931 C930 1.369 . S
C931 C932 1.410 . S
C931 C939 1.503 . S
C932 C931 1.410 . S
C932 C933 1.392 . S
C932 C935 1.511 . S
C933 C929 1.376 . S
C933 C932 1.392 . S
C933 H945 0.929 . S
C934 C930 1.531 . S
C934 H946 0.960 . S
C934 H947 0.962 . S
C934 H948 0.960 . S
C935 C932 1.511 . S
C935 H949 0.961 . S
C935 H950 0.961 . S
C935 H951 0.961 . S
C936 C937 1.370 . S
C936 C938 1.363 . S
C936 H952 0.931 . S
C937 C936 1.370 . S
C937 C941 1.408 . S
C938 C936 1.363 . S
C938 C939 1.370 . S
C938 C942 1.524 . S
C939 C931 1.503 . S
C939 C938 1.370 . S
C939 C940 1.403 . S
C940 C939 1.403 . S
C940 C941 1.404 . S
C940 C943 1.539 . S
C941 C937 1.408 . S
C941 C940 1.404 . S
C941 H953 0.930 . S
C942 C938 1.524 . S
C942 H954 0.956 . S
C942 H955 0.961 . S
C942 H956 0.961 . S
C943 C940 1.539 . S
C943 H957 0.958 . S
C943 H958 0.961 . S
C943 H959 0.960 . S
H944 C928 0.931 . S
H945 C933 0.929 . S
H946 C934 0.960 . S
H947 C934 0.962 . S
H948 C934 0.960 . S
H949 C935 0.961 . S
H950 C935 0.961 . S
H951 C935 0.961 . S
H952 C936 0.931 . S
H953 C941 0.930 . S
H954 C942 0.956 . S
H955 C942 0.961 . S
H956 C942 0.961 . S
H957 C943 0.958 . S
H958 C943 0.961 . S
H959 C943 0.960 . S
C960 C961 1.391 . S
C960 C962 1.394 . S
C960 H976 0.931 . S
C961 C960 1.391 . S
C961 C965 1.376 . S
C962 C960 1.394 . S
C962 C963 1.369 . S
C962 C966 1.531 . S
C963 C962 1.369 . S
C963 C964 1.410 . S
C963 C971 1.503 . S
C964 C963 1.410 . S
C964 C965 1.392 . S
C964 C967 1.511 . S
C965 C961 1.376 . S
C965 C964 1.392 . S
C965 H977 0.929 . S
C966 C962 1.531 . S
C966 H978 0.960 . S
C966 H979 0.962 . S
C966 H980 0.960 . S
C967 C964 1.511 . S
C967 H981 0.961 . S
C967 H982 0.961 . S
C967 H983 0.961 . S
C968 C969 1.370 . S
C968 C970 1.363 . S
C968 H984 0.931 . S
C969 C968 1.370 . S
C969 C973 1.408 . S
C970 C968 1.363 . S
C970 C971 1.370 . S
C970 C974 1.524 . S
C971 C963 1.503 . S
C971 C970 1.370 . S
C971 C972 1.403 . S
C972 C971 1.403 . S
C972 C973 1.404 . S
C972 C975 1.539 . S
C973 C969 1.408 . S
C973 C972 1.404 . S
C973 H985 0.930 . S
C974 C970 1.524 . S
C974 H986 0.956 . S
C974 H987 0.961 . S
C974 H988 0.961 . S
C975 C972 1.539 . S
C975 H989 0.958 . S
C975 H990 0.961 . S
C975 H991 0.960 . S
H976 C960 0.931 . S
H977 C965 0.929 . S
H978 C966 0.960 . S
H979 C966 0.962 . S
H980 C966 0.960 . S
H981 C967 0.961 . S
H982 C967 0.961 . S
H983 C967 0.961 . S
H984 C968 0.931 . S
H985 C973 0.930 . S
H986 C974 0.956 . S
H987 C974 0.961 . S
H988 C974 0.961 . S
H989 C975 0.958 . S
H990 C975 0.961 . S
H991 C975 0.960 . S
C992 C993 1.391 . S
C992 C994 1.394 . S
C992 H1008 0.931 . S
C993 C992 1.391 . S
C993 C997 1.376 . S
C994 C992 1.394 . S
C994 C995 1.369 . S
C994 C998 1.531 . S
C995 C994 1.369 . S
C995 C996 1.410 . S
C995 C1003 1.503 . S
C996 C995 1.410 . S
C996 C997 1.392 . S
C996 C999 1.511 . S
C997 C993 1.376 . S
C997 C996 1.392 . S
C997 H1009 0.929 . S
C998 C994 1.531 . S
C998 H1010 0.960 . S
C998 H1011 0.962 . S
C998 H1012 0.960 . S
C999 C996 1.511 . S
C999 H1013 0.961 . S
C999 H1014 0.961 . S
C999 H1015 0.961 . S
C1000 C1001 1.370 . S
C1000 C1002 1.363 . S
C1000 H1016 0.931 . S
C1001 C1000 1.370 . S
C1001 C1005 1.408 . S
C1002 C1000 1.363 . S
C1002 C1003 1.370 . S
C1002 C1006 1.524 . S
C1003 C995 1.503 . S
C1003 C1002 1.370 . S
C1003 C1004 1.403 . S
C1004 C1003 1.403 . S
C1004 C1005 1.404 . S
C1004 C1007 1.539 . S
C1005 C1001 1.408 . S
C1005 C1004 1.404 . S
C1005 H1017 0.930 . S
C1006 C1002 1.524 . S
C1006 H1018 0.956 . S
C1006 H1019 0.961 . S
C1006 H1020 0.961 . S
C1007 C1004 1.539 . S
C1007 H1021 0.958 . S
C1007 H1022 0.961 . S
C1007 H1023 0.960 . S
H1008 C992 0.931 . S
H1009 C997 0.929 . S
H1010 C998 0.960 . S
H1011 C998 0.962 . S
H1012 C998 0.960 . S
H1013 C999 0.961 . S
H1014 C999 0.961 . S
H1015 C999 0.961 . S
H1016 C1000 0.931 . S
H1017 C1005 0.930 . S
H1018 C1006 0.956 . S
H1019 C1006 0.961 . S
H1020 C1006 0.961 . S
H1021 C1007 0.958 . S
H1022 C1007 0.961 . S
H1023 C1007 0.960 . S
C1024 C1025 1.391 . S
C1024 C1026 1.394 . S
C1024 H1040 0.931 . S
C1025 C1024 1.391 . S
C1025 C1029 1.376 . S
C1026 C1024 1.394 . S
C1026 C1027 1.369 . S
C1026 C1030 1.531 . S
C1027 C1026 1.369 . S
C1027 C1028 1.410 . S
C1027 C1035 1.503 . S
C1028 C1027 1.410 . S
C1028 C1029 1.392 . S
C1028 C1031 1.511 . S
C1029 C1025 1.376 . S
C1029 C1028 1.392 . S
C1029 H1041 0.929 . S
C1030 C1026 1.531 . S
C1030 H1042 0.960 . S
C1030 H1043 0.962 . S
C1030 H1044 0.960 . S
C1031 C1028 1.511 . S
C1031 H1045 0.961 . S
C1031 H1046 0.961 . S
C1031 H1047 0.961 . S
C1032 C1033 1.370 . S
C1032 C1034 1.363 . S
C1032 H1048 0.931 . S
C1033 C1032 1.370 . S
C1033 C1037 1.408 . S
C1034 C1032 1.363 . S
C1034 C1035 1.370 . S
C1034 C1038 1.524 . S
C1035 C1027 1.503 . S
C1035 C1034 1.370 . S
C1035 C1036 1.403 . S
C1036 C1035 1.403 . S
C1036 C1037 1.404 . S
C1036 C1039 1.539 . S
C1037 C1033 1.408 . S
C1037 C1036 1.404 . S
C1037 H1049 0.930 . S
C1038 C1034 1.524 . S
C1038 H1050 0.956 . S
C1038 H1051 0.961 . S
C1038 H1052 0.961 . S
C1039 C1036 1.539 . S
C1039 H1053 0.958 . S
C1039 H1054 0.961 . S
C1039 H1055 0.960 . S
H1040 C1024 0.931 . S
H1041 C1029 0.929 . S
H1042 C1030 0.960 . S
H1043 C1030 0.962 . S
H1044 C1030 0.960 . S
H1045 C1031 0.961 . S
H1046 C1031 0.961 . S
H1047 C1031 0.961 . S
H1048 C1032 0.931 . S
H1049 C1037 0.930 . S
H1050 C1038 0.956 . S
H1051 C1038 0.961 . S
H1052 C1038 0.961 . S
H1053 C1039 0.958 . S
H1054 C1039 0.961 . S
H1055 C1039 0.960 . S
C1056 C1057 1.391 . S
C1056 C1058 1.394 . S
C1056 H1072 0.931 . S
C1057 C1056 1.391 . S
C1057 C1061 1.376 . S
C1058 C1056 1.394 . S
C1058 C1059 1.369 . S
C1058 C1062 1.531 . S
C1059 C1058 1.369 . S
C1059 C1060 1.410 . S
C1059 C1067 1.503 . S
C1060 C1059 1.410 . S
C1060 C1061 1.392 . S
C1060 C1063 1.511 . S
C1061 C1057 1.376 . S
C1061 C1060 1.392 . S
C1061 H1073 0.929 . S
C1062 C1058 1.531 . S
C1062 H1074 0.960 . S
C1062 H1075 0.962 . S
C1062 H1076 0.960 . S
C1063 C1060 1.511 . S
C1063 H1077 0.961 . S
C1063 H1078 0.961 . S
C1063 H1079 0.961 . S
C1064 C1065 1.370 . S
C1064 C1066 1.363 . S
C1064 H1080 0.931 . S
C1065 C1064 1.370 . S
C1065 C1069 1.408 . S
C1066 C1064 1.363 . S
C1066 C1067 1.370 . S
C1066 C1070 1.524 . S
C1067 C1059 1.503 . S
C1067 C1066 1.370 . S
C1067 C1068 1.403 . S
C1068 C1067 1.403 . S
C1068 C1069 1.404 . S
C1068 C1071 1.539 . S
C1069 C1065 1.408 . S
C1069 C1068 1.404 . S
C1069 H1081 0.930 . S
C1070 C1066 1.524 . S
C1070 H1082 0.956 . S
C1070 H1083 0.961 . S
C1070 H1084 0.961 . S
C1071 C1068 1.539 . S
C1071 H1085 0.958 . S
C1071 H1086 0.961 . S
C1071 H1087 0.960 . S
H1072 C1056 0.931 . S
H1073 C1061 0.929 . S
H1074 C1062 0.960 . S
H1075 C1062 0.962 . S
H1076 C1062 0.960 . S
H1077 C1063 0.961 . S
H1078 C1063 0.961 . S
H1079 C1063 0.961 . S
H1080 C1064 0.931 . S
H1081 C1069 0.930 . S
H1082 C1070 0.956 . S
H1083 C1070 0.961 . S
H1084 C1070 0.961 . S
H1085 C1071 0.958 . S
H1086 C1071 0.961 . S
H1087 C1071 0.960 . S
C1088 C1089 1.391 . S
C1088 C1090 1.394 . S
C1088 H1104 0.931 . S
C1089 C1088 1.391 . S
C1089 C1093 1.376 . S
C1090 C1088 1.394 . S
C1090 C1091 1.369 . S
C1090 C1094 1.531 . S
C1091 C1090 1.369 . S
C1091 C1092 1.410 . S
C1091 C1099 1.503 . S
C1092 C1091 1.410 . S
C1092 C1093 1.392 . S
C1092 C1095 1.511 . S
C1093 C1089 1.376 . S
C1093 C1092 1.392 . S
C1093 H1105 0.929 . S
C1094 C1090 1.531 . S
C1094 H1106 0.960 . S
C1094 H1107 0.962 . S
C1094 H1108 0.960 . S
C1095 C1092 1.511 . S
C1095 H1109 0.961 . S
C1095 H1110 0.961 . S
C1095 H1111 0.961 . S
C1096 C1097 1.370 . S
C1096 C1098 1.363 . S
C1096 H1112 0.931 . S
C1097 C1096 1.370 . S
C1097 C1101 1.408 . S
C1098 C1096 1.363 . S
C1098 C1099 1.370 . S
C1098 C1102 1.524 . S
C1099 C1091 1.503 . S
C1099 C1098 1.370 . S
C1099 C1100 1.403 . S
C1100 C1099 1.403 . S
C1100 C1101 1.404 . S
C1100 C1103 1.539 . S
C1101 C1097 1.408 . S
C1101 C1100 1.404 . S
C1101 H1113 0.930 . S
C1102 C1098 1.524 . S
C1102 H1114 0.956 . S
C1102 H1115 0.961 . S
C1102 H1116 0.961 . S
C1103 C1100 1.539 . S
C1103 H1117 0.958 . S
C1103 H1118 0.961 . S
C1103 H1119 0.960 . S
H1104 C1088 0.931 . S
H1105 C1093 0.929 . S
H1106 C1094 0.960 . S
H1107 C1094 0.962 . S
H1108 C1094 0.960 . S
H1109 C1095 0.961 . S
H1110 C1095 0.961 . S
H1111 C1095 0.961 . S
H1112 C1096 0.931 . S
H1113 C1101 0.930 . S
H1114 C1102 0.956 . S
H1115 C1102 0.961 . S
H1116 C1102 0.961 . S
H1117 C1103 0.958 . S
H1118 C1103 0.961 . S
H1119 C1103 0.960 . S
C1120 C1121 1.391 . S
C1120 C1122 1.394 . S
C1120 H1136 0.931 . S
C1121 C1120 1.391 . S
C1121 C1125 1.376 . S
C1122 C1120 1.394 . S
C1122 C1123 1.369 . S
C1122 C1126 1.531 . S
C1123 C1122 1.369 . S
C1123 C1124 1.410 . S
C1123 C1131 1.503 . S
C1124 C1123 1.410 . S
C1124 C1125 1.392 . S
C1124 C1127 1.511 . S
C1125 C1121 1.376 . S
C1125 C1124 1.392 . S
C1125 H1137 0.929 . S
C1126 C1122 1.531 . S
C1126 H1138 0.960 . S
C1126 H1139 0.962 . S
C1126 H1140 0.960 . S
C1127 C1124 1.511 . S
C1127 H1141 0.961 . S
C1127 H1142 0.961 . S
C1127 H1143 0.961 . S
C1128 C1129 1.370 . S
C1128 C1130 1.363 . S
C1128 H1144 0.931 . S
C1129 C1128 1.370 . S
C1129 C1133 1.408 . S
C1130 C1128 1.363 . S
C1130 C1131 1.370 . S
C1130 C1134 1.524 . S
C1131 C1123 1.503 . S
C1131 C1130 1.370 . S
C1131 C1132 1.403 . S
C1132 C1131 1.403 . S
C1132 C1133 1.404 . S
C1132 C1135 1.539 . S
C1133 C1129 1.408 . S
C1133 C1132 1.404 . S
C1133 H1145 0.930 . S
C1134 C1130 1.524 . S
C1134 H1146 0.956 . S
C1134 H1147 0.961 . S
C1134 H1148 0.961 . S
C1135 C1132 1.539 . S
C1135 H1149 0.958 . S
C1135 H1150 0.961 . S
C1135 H1151 0.960 . S
H1136 C1120 0.931 . S
H1137 C1125 0.929 . S
H1138 C1126 0.960 . S
H1139 C1126 0.962 . S
H1140 C1126 0.960 . S
H1141 C1127 0.961 . S
H1142 C1127 0.961 . S
H1143 C1127 0.961 . S
H1144 C1128 0.931 . S
H1145 C1133 0.930 . S
H1146 C1134 0.956 . S
H1147 C1134 0.961 . S
H1148 C1134 0.961 . S
H1149 C1135 0.958 . S
H1150 C1135 0.961 . S
H1151 C1135 0.960 . S
C1152 C1153 1.391 . S
C1152 C1154 1.394 . S
C1152 H1168 0.931 . S
C1153 C1152 1.391 . S
C1153 C1157 1.376 . S
C1154 C1152 1.394 . S
C1154 C1155 1.369 . S
C1154 C1158 1.531 . S
C1155 C1154 1.369 . S
C1155 C1156 1.410 . S
C1155 C1163 1.503 1_455 S
C1156 C1155 1.410 . S
C1156 C1157 1.392 . S
C1156 C1159 1.511 . S
C1157 C1153 1.376 . S
C1157 C1156 1.392 . S
C1157 H1169 0.929 . S
C1158 C1154 1.531 . S
C1158 H1170 0.960 1_455 S
C1158 H1171 0.962 . S
C1158 H1172 0.960 . S
C1159 C1156 1.511 . S
C1159 H1173 0.961 . S
C1159 H1174 0.961 1_455 S
C1159 H1175 0.961 . S
C1160 C1161 1.370 . S
C1160 C1162 1.363 . S
C1160 H1176 0.931 . S
C1161 C1160 1.370 . S
C1161 C1165 1.408 . S
C1162 C1160 1.363 . S
C1162 C1163 1.370 . S
C1162 C1166 1.524 . S
C1163 C1155 1.503 1_655 S
C1163 C1162 1.370 . S
C1163 C1164 1.403 . S
C1164 C1163 1.403 . S
C1164 C1165 1.404 . S
C1164 C1167 1.539 . S
C1165 C1161 1.408 . S
C1165 C1164 1.404 . S
C1165 H1177 0.930 . S
C1166 C1162 1.524 . S
C1166 H1178 0.956 . S
C1166 H1179 0.961 1_655 S
C1166 H1180 0.961 . S
C1167 C1164 1.539 . S
C1167 H1181 0.958 . S
C1167 H1182 0.961 . S
C1167 H1183 0.971 . S
H1168 C1152 0.931 . S
H1169 C1157 0.929 . S
H1170 C1158 0.960 1_655 S
H1171 C1158 0.962 . S
H1172 C1158 0.960 . S
H1173 C1159 0.961 . S
H1174 C1159 0.961 1_655 S
H1175 C1159 0.961 . S
H1176 C1160 0.931 . S
H1177 C1165 0.930 . S
H1178 C1166 0.956 . S
H1179 C1166 0.961 1_455 S
H1180 C1166 0.961 . S
H1181 C1167 0.958 . S
H1182 C1167 0.961 . S
H1183 C1167 0.971 . S
C1184 C1185 1.391 . S
C1184 C1186 1.394 . S
C1184 H1200 0.931 . S
C1185 C1184 1.391 . S
C1185 C1189 1.376 . S
C1186 C1184 1.394 . S
C1186 C1187 1.369 . S
C1186 C1190 1.531 . S
C1187 C1186 1.369 . S
C1187 C1188 1.410 . S
C1187 C1195 1.503 . S
C1188 C1187 1.410 . S
C1188 C1189 1.392 . S
C1188 C1191 1.511 . S
C1189 C1185 1.376 . S
C1189 C1188 1.392 . S
C1189 H1201 0.929 . S
C1190 C1186 1.531 . S
C1190 H1202 0.960 . S
C1190 H1203 0.962 . S
C1190 H1204 0.960 . S
C1191 C1188 1.511 . S
C1191 H1205 0.961 . S
C1191 H1206 0.961 . S
C1191 H1207 0.961 . S
C1192 C1193 1.370 . S
C1192 C1194 1.363 . S
C1192 H1208 0.931 . S
C1193 C1192 1.370 . S
C1193 C1197 1.408 . S
C1194 C1192 1.363 . S
C1194 C1195 1.370 . S
C1194 C1198 1.524 . S
C1195 C1187 1.503 . S
C1195 C1194 1.370 . S
C1195 C1196 1.403 . S
C1196 C1195 1.403 . S
C1196 C1197 1.404 . S
C1196 C1199 1.539 . S
C1197 C1193 1.408 . S
C1197 C1196 1.404 . S
C1197 H1209 0.930 . S
C1198 C1194 1.524 . S
C1198 H1210 0.956 . S
C1198 H1211 0.961 . S
C1198 H1212 0.961 . S
C1199 C1196 1.539 . S
C1199 H1213 0.958 . S
C1199 H1214 0.961 . S
C1199 H1215 0.960 . S
H1200 C1184 0.931 . S
H1201 C1189 0.929 . S
H1202 C1190 0.960 . S
H1203 C1190 0.962 . S
H1204 C1190 0.960 . S
H1205 C1191 0.961 . S
H1206 C1191 0.961 . S
H1207 C1191 0.961 . S
H1208 C1192 0.931 . S
H1209 C1197 0.930 . S
H1210 C1198 0.956 . S
H1211 C1198 0.961 . S
H1212 C1198 0.961 . S
H1213 C1199 0.958 . S
H1214 C1199 0.961 . S
H1215 C1199 0.960 . S
C1216 C1217 1.391 . S
C1216 C1218 1.394 . S
C1216 H1232 0.931 . S
C1217 C1216 1.391 . S
C1217 C1221 1.376 . S
C1218 C1216 1.394 . S
C1218 C1219 1.369 . S
C1218 C1222 1.531 . S
C1219 C1218 1.369 . S
C1219 C1220 1.410 . S
C1219 C1227 1.503 1_655 S
C1220 C1219 1.410 . S
C1220 C1221 1.392 . S
C1220 C1223 1.511 . S
C1221 C1217 1.376 . S
C1221 C1220 1.392 . S
C1221 H1233 0.929 . S
C1222 C1218 1.531 . S
C1222 H1234 0.960 1_655 S
C1222 H1235 0.962 . S
C1222 H1236 0.960 . S
C1223 C1220 1.511 . S
C1223 H1237 0.961 . S
C1223 H1238 0.961 1_655 S
C1223 H1239 0.961 . S
C1224 C1225 1.370 . S
C1224 C1226 1.363 . S
C1224 H1240 0.931 . S
C1225 C1224 1.370 . S
C1225 C1229 1.408 . S
C1226 C1224 1.363 . S
C1226 C1227 1.370 . S
C1226 C1230 1.524 . S
C1227 C1219 1.503 1_455 S
C1227 C1226 1.370 . S
C1227 C1228 1.403 . S
C1228 C1227 1.403 . S
C1228 C1229 1.404 . S
C1228 C1231 1.539 . S
C1229 C1225 1.408 . S
C1229 C1228 1.404 . S
C1229 H1241 0.930 . S
C1230 C1226 1.524 . S
C1230 H1242 0.956 . S
C1230 H1243 0.961 1_455 S
C1230 H1244 0.961 . S
C1231 C1228 1.539 . S
C1231 H1245 0.958 . S
C1231 H1246 0.961 . S
C1231 H1247 0.971 . S
H1232 C1216 0.931 . S
H1233 C1221 0.929 . S
H1234 C1222 0.960 1_455 S
H1235 C1222 0.962 . S
H1236 C1222 0.960 . S
H1237 C1223 0.961 . S
H1238 C1223 0.961 1_455 S
H1239 C1223 0.961 . S
H1240 C1224 0.931 . S
H1241 C1229 0.930 . S
H1242 C1230 0.956 . S
H1243 C1230 0.961 1_655 S
H1244 C1230 0.961 . S
H1245 C1231 0.958 . S
H1246 C1231 0.961 . S
H1247 C1231 0.971 . S
C1248 C1249 1.391 . S
C1248 C1250 1.394 . S
C1248 H1264 0.931 . S
C1249 C1248 1.391 . S
C1249 C1253 1.376 . S
C1250 C1248 1.394 . S
C1250 C1251 1.369 . S
C1250 C1254 1.531 . S
C1251 C1250 1.369 . S
C1251 C1252 1.410 . S
C1251 C1259 1.503 1_655 S
C1252 C1251 1.410 . S
C1252 C1253 1.392 . S
C1252 C1255 1.511 . S
C1253 C1249 1.376 . S
C1253 C1252 1.392 . S
C1253 H1265 0.929 . S
C1254 C1250 1.531 . S
C1254 H1266 0.960 1_655 S
C1254 H1267 0.962 . S
C1254 H1268 0.960 . S
C1255 C1252 1.511 . S
C1255 H1269 0.961 . S
C1255 H1270 0.961 1_655 S
C1255 H1271 0.961 . S
C1256 C1257 1.370 . S
C1256 C1258 1.363 . S
C1256 H1272 0.931 . S
C1257 C1256 1.370 . S
C1257 C1261 1.408 . S
C1258 C1256 1.363 . S
C1258 C1259 1.370 . S
C1258 C1262 1.524 . S
C1259 C1251 1.503 1_455 S
C1259 C1258 1.370 . S
C1259 C1260 1.403 . S
C1260 C1259 1.403 . S
C1260 C1261 1.404 . S
C1260 C1263 1.539 . S
C1261 C1257 1.408 . S
C1261 C1260 1.404 . S
C1261 H1273 0.930 . S
C1262 C1258 1.524 . S
C1262 H1274 0.956 . S
C1262 H1275 0.961 1_455 S
C1262 H1276 0.961 . S
C1263 C1260 1.539 . S
C1263 H1277 0.958 . S
C1263 H1278 0.961 . S
C1263 H1279 0.971 . S
H1264 C1248 0.931 . S
H1265 C1253 0.929 . S
H1266 C1254 0.960 1_455 S
H1267 C1254 0.962 . S
H1268 C1254 0.960 . S
H1269 C1255 0.961 . S
H1270 C1255 0.961 1_455 S
H1271 C1255 0.961 . S
H1272 C1256 0.931 . S
H1273 C1261 0.930 . S
H1274 C1262 0.956 . S
H1275 C1262 0.961 1_655 S
H1276 C1262 0.961 . S
H1277 C1263 0.958 . S
H1278 C1263 0.961 . S
H1279 C1263 0.971 . S
C1280 C1281 1.391 . S
C1280 C1282 1.394 . S
C1280 H1296 0.931 . S
C1281 C1280 1.391 . S
C1281 C1285 1.376 . S
C1282 C1280 1.394 . S
C1282 C1283 1.369 . S
C1282 C1286 1.531 . S
C1283 C1282 1.369 . S
C1283 C1284 1.410 . S
C1283 C1291 1.503 . S
C1284 C1283 1.410 . S
C1284 C1285 1.392 . S
C1284 C1287 1.511 . S
C1285 C1281 1.376 . S
C1285 C1284 1.392 . S
C1285 H1297 0.929 . S
C1286 C1282 1.531 . S
C1286 H1298 0.960 . S
C1286 H1299 0.962 . S
C1286 H1300 0.960 . S
C1287 C1284 1.511 . S
C1287 H1301 0.961 . S
C1287 H1302 0.961 . S
C1287 H1303 0.961 . S
C1288 C1289 1.370 . S
C1288 C1290 1.363 . S
C1288 H1304 0.931 . S
C1289 C1288 1.370 . S
C1289 C1293 1.408 . S
C1290 C1288 1.363 . S
C1290 C1291 1.370 . S
C1290 C1294 1.524 . S
C1291 C1283 1.503 . S
C1291 C1290 1.370 . S
C1291 C1292 1.403 . S
C1292 C1291 1.403 . S
C1292 C1293 1.404 . S
C1292 C1295 1.539 . S
C1293 C1289 1.408 . S
C1293 C1292 1.404 . S
C1293 H1305 0.930 . S
C1294 C1290 1.524 . S
C1294 H1306 0.956 . S
C1294 H1307 0.961 . S
C1294 H1308 0.961 . S
C1295 C1292 1.539 . S
C1295 H1309 0.958 . S
C1295 H1310 0.961 . S
C1295 H1311 0.960 . S
H1296 C1280 0.931 . S
H1297 C1285 0.929 . S
H1298 C1286 0.960 . S
H1299 C1286 0.962 . S
H1300 C1286 0.960 . S
H1301 C1287 0.961 . S
H1302 C1287 0.961 . S
H1303 C1287 0.961 . S
H1304 C1288 0.931 . S
H1305 C1293 0.930 . S
H1306 C1294 0.956 . S
H1307 C1294 0.961 . S
H1308 C1294 0.961 . S
H1309 C1295 0.958 . S
H1310 C1295 0.961 . S
H1311 C1295 0.960 . S
C1312 C1313 1.391 . S
C1312 C1314 1.394 . S
C1312 H1328 0.931 . S
C1313 C1312 1.391 . S
C1313 C1317 1.376 . S
C1314 C1312 1.394 . S
C1314 C1315 1.369 . S
C1314 C1318 1.531 . S
C1315 C1314 1.369 . S
C1315 C1316 1.410 . S
C1315 C1323 1.503 1_455 S
C1316 C1315 1.410 . S
C1316 C1317 1.392 . S
C1316 C1319 1.511 . S
C1317 C1313 1.376 . S
C1317 C1316 1.392 . S
C1317 H1329 0.929 . S
C1318 C1314 1.531 . S
C1318 H1330 0.960 1_455 S
C1318 H1331 0.962 . S
C1318 H1332 0.960 . S
C1319 C1316 1.511 . S
C1319 H1333 0.961 . S
C1319 H1334 0.961 1_455 S
C1319 H1335 0.961 . S
C1320 C1321 1.370 . S
C1320 C1322 1.363 . S
C1320 H1336 0.931 . S
C1321 C1320 1.370 . S
C1321 C1325 1.408 . S
C1322 C1320 1.363 . S
C1322 C1323 1.370 . S
C1322 C1326 1.524 . S
C1323 C1315 1.503 1_655 S
C1323 C1322 1.370 . S
C1323 C1324 1.403 . S
C1324 C1323 1.403 . S
C1324 C1325 1.404 . S
C1324 C1327 1.539 . S
C1325 C1321 1.408 . S
C1325 C1324 1.404 . S
C1325 H1337 0.930 . S
C1326 C1322 1.524 . S
C1326 H1338 0.956 . S
C1326 H1339 0.961 1_655 S
C1326 H1340 0.961 . S
C1327 C1324 1.539 . S
C1327 H1341 0.958 . S
C1327 H1342 0.961 . S
C1327 H1343 0.971 . S
H1328 C1312 0.931 . S
H1329 C1317 0.929 . S
H1330 C1318 0.960 1_655 S
H1331 C1318 0.962 . S
H1332 C1318 0.960 . S
H1333 C1319 0.961 . S
H1334 C1319 0.961 1_655 S
H1335 C1319 0.961 . S
H1336 C1320 0.931 . S
H1337 C1325 0.930 . S
H1338 C1326 0.956 . S
H1339 C1326 0.961 1_455 S
H1340 C1326 0.961 . S
H1341 C1327 0.958 . S
H1342 C1327 0.961 . S
H1343 C1327 0.971 . S
C1344 C1345 1.391 . S
C1344 C1346 1.394 . S
C1344 H1360 0.931 . S
C1345 C1344 1.391 . S
C1345 C1349 1.376 . S
C1346 C1344 1.394 . S
C1346 C1347 1.369 . S
C1346 C1350 1.531 . S
C1347 C1346 1.369 . S
C1347 C1348 1.410 . S
C1347 C1355 1.503 . S
C1348 C1347 1.410 . S
C1348 C1349 1.392 . S
C1348 C1351 1.511 . S
C1349 C1345 1.376 . S
C1349 C1348 1.392 . S
C1349 H1361 0.929 . S
C1350 C1346 1.531 . S
C1350 H1362 0.960 . S
C1350 H1363 0.962 . S
C1350 H1364 0.960 . S
C1351 C1348 1.511 . S
C1351 H1365 0.961 . S
C1351 H1366 0.961 . S
C1351 H1367 0.961 . S
C1352 C1353 1.370 . S
C1352 C1354 1.363 . S
C1352 H1368 0.931 . S
C1353 C1352 1.370 . S
C1353 C1357 1.408 . S
C1354 C1352 1.363 . S
C1354 C1355 1.370 . S
C1354 C1358 1.524 . S
C1355 C1347 1.503 . S
C1355 C1354 1.370 . S
C1355 C1356 1.403 . S
C1356 C1355 1.403 . S
C1356 C1357 1.404 . S
C1356 C1359 1.539 . S
C1357 C1353 1.408 . S
C1357 C1356 1.404 . S
C1357 H1369 0.930 . S
C1358 C1354 1.524 . S
C1358 H1370 0.956 . S
C1358 H1371 0.961 . S
C1358 H1372 0.961 . S
C1359 C1356 1.539 . S
C1359 H1373 0.958 . S
C1359 H1374 0.961 . S
C1359 H1375 0.960 . S
H1360 C1344 0.931 . S
H1361 C1349 0.929 . S
H1362 C1350 0.960 . S
H1363 C1350 0.962 . S
H1364 C1350 0.960 . S
H1365 C1351 0.961 . S
H1366 C1351 0.961 . S
H1367 C1351 0.961 . S
H1368 C1352 0.931 . S
H1369 C1357 0.930 . S
H1370 C1358 0.956 . S
H1371 C1358 0.961 . S
H1372 C1358 0.961 . S
H1373 C1359 0.958 . S
H1374 C1359 0.961 . S
H1375 C1359 0.960 . S
C1376 C1377 1.391 . S
C1376 C1378 1.394 1_545 S
C1376 H1392 0.931 . S
C1377 C1376 1.391 . S
C1377 C1381 1.376 . S
C1378 C1376 1.394 1_565 S
C1378 C1379 1.369 . S
C1378 C1382 1.531 . S
C1379 C1378 1.369 . S
C1379 C1380 1.410 1_565 S
C1379 C1387 1.503 . S
C1380 C1379 1.410 1_545 S
C1380 C1381 1.392 . S
C1380 C1383 1.511 1_545 S
C1381 C1377 1.376 . S
C1381 C1380 1.392 . S
C1381 H1393 0.929 . S
C1382 C1378 1.531 . S
C1382 H1394 0.960 . S
C1382 H1395 0.962 . S
C1382 H1396 0.960 . S
C1383 C1380 1.511 1_565 S
C1383 H1397 0.961 1_565 S
C1383 H1398 0.961 . S
C1383 H1399 0.961 . S
C1384 C1385 1.370 . S
C1384 C1386 1.363 . S
C1384 H1400 0.931 . S
C1385 C1384 1.370 . S
C1385 C1389 1.408 . S
C1386 C1384 1.363 . S
C1386 C1387 1.370 . S
C1386 C1390 1.524 . S
C1387 C1379 1.503 . S
C1387 C1386 1.370 . S
C1387 C1388 1.403 . S
C1388 C1387 1.403 . S
C1388 C1389 1.404 . S
C1388 C1391 1.539 . S
C1389 C1385 1.408 . S
C1389 C1388 1.404 . S
C1389 H1401 0.930 . S
C1390 C1386 1.524 . S
C1390 H1402 0.956 . S
C1390 H1403 0.961 . S
C1390 H1404 0.961 . S
C1391 C1388 1.539 . S
C1391 H1405 0.958 . S
C1391 H1406 0.961 . S
C1391 H1407 0.960 . S
H1392 C1376 0.931 . S
H1393 C1381 0.929 . S
H1394 C1382 0.960 . S
H1395 C1382 0.962 . S
H1396 C1382 0.960 . S
H1397 C1383 0.961 1_545 S
H1398 C1383 0.961 . S
H1399 C1383 0.961 . S
H1400 C1384 0.931 . S
H1401 C1389 0.930 . S
H1402 C1390 0.956 . S
H1403 C1390 0.961 . S
H1404 C1390 0.961 . S
H1405 C1391 0.958 . S
H1406 C1391 0.961 . S
H1407 C1391 0.960 . S
C1408 C1409 1.391 . S
C1408 C1410 1.394 1_565 S
C1408 H1424 0.931 . S
C1409 C1408 1.391 . S
C1409 C1413 1.376 . S
C1410 C1408 1.394 1_545 S
C1410 C1411 1.369 . S
C1410 C1414 1.531 . S
C1411 C1410 1.369 . S
C1411 C1412 1.410 1_545 S
C1411 C1419 1.503 . S
C1412 C1411 1.410 1_565 S
C1412 C1413 1.392 . S
C1412 C1415 1.511 1_565 S
C1413 C1409 1.376 . S
C1413 C1412 1.392 . S
C1413 H1425 0.929 . S
C1414 C1410 1.531 . S
C1414 H1426 0.960 . S
C1414 H1427 0.962 . S
C1414 H1428 0.960 . S
C1415 C1412 1.511 1_545 S
C1415 H1429 0.961 1_545 S
C1415 H1430 0.961 . S
C1415 H1431 0.961 . S
C1416 C1417 1.370 . S
C1416 C1418 1.363 . S
C1416 H1432 0.931 . S
C1417 C1416 1.370 . S
C1417 C1421 1.408 . S
C1418 C1416 1.363 . S
C1418 C1419 1.370 . S
C1418 C1422 1.524 . S
C1419 C1411 1.503 . S
C1419 C1418 1.370 . S
C1419 C1420 1.403 . S
C1420 C1419 1.403 . S
C1420 C1421 1.404 . S
C1420 C1423 1.539 . S
C1421 C1417 1.408 . S
C1421 C1420 1.404 . S
C1421 H1433 0.930 . S
C1422 C1418 1.524 . S
C1422 H1434 0.956 . S
C1422 H1435 0.961 . S
C1422 H1436 0.961 . S
C1423 C1420 1.539 . S
C1423 H1437 0.958 . S
C1423 H1438 0.961 . S
C1423 H1439 0.960 . S
H1424 C1408 0.931 . S
H1425 C1413 0.929 . S
H1426 C1414 0.960 . S
H1427 C1414 0.962 . S
H1428 C1414 0.960 . S
H1429 C1415 0.961 1_565 S
H1430 C1415 0.961 . S
H1431 C1415 0.961 . S
H1432 C1416 0.931 . S
H1433 C1421 0.930 . S
H1434 C1422 0.956 . S
H1435 C1422 0.961 . S
H1436 C1422 0.961 . S
H1437 C1423 0.958 . S
H1438 C1423 0.961 . S
H1439 C1423 0.960 . S
C1440 C1441 1.391 . S
C1440 C1442 1.394 . S
C1440 H1456 0.931 . S
C1441 C1440 1.391 . S
C1441 C1445 1.376 . S
C1442 C1440 1.394 . S
C1442 C1443 1.369 . S
C1442 C1446 1.531 . S
C1443 C1442 1.369 . S
C1443 C1444 1.410 . S
C1443 C1451 1.503 . S
C1444 C1443 1.410 . S
C1444 C1445 1.392 . S
C1444 C1447 1.511 . S
C1445 C1441 1.376 . S
C1445 C1444 1.392 . S
C1445 H1457 0.929 . S
C1446 C1442 1.531 . S
C1446 H1458 0.960 . S
C1446 H1459 0.962 . S
C1446 H1460 0.960 . S
C1447 C1444 1.511 . S
C1447 H1461 0.961 . S
C1447 H1462 0.961 . S
C1447 H1463 0.961 . S
C1448 C1449 1.370 . S
C1448 C1450 1.363 1_565 S
C1448 H1464 0.931 . S
C1449 C1448 1.370 . S
C1449 C1453 1.408 . S
C1450 C1448 1.363 1_545 S
C1450 C1451 1.370 . S
C1450 C1454 1.524 . S
C1451 C1443 1.503 . S
C1451 C1450 1.370 . S
C1451 C1452 1.403 . S
C1452 C1451 1.403 . S
C1452 C1453 1.404 1_545 S
C1452 C1455 1.539 . S
C1453 C1449 1.408 . S
C1453 C1452 1.404 1_565 S
C1453 H1465 0.930 . S
C1454 C1450 1.524 . S
C1454 H1466 0.956 . S
C1454 H1467 0.961 . S
C1454 H1468 0.961 . S
C1455 C1452 1.539 . S
C1455 H1469 0.958 . S
C1455 H1470 0.961 . S
C1455 H1471 0.960 . S
H1456 C1440 0.931 . S
H1457 C1445 0.929 . S
H1458 C1446 0.960 . S
H1459 C1446 0.962 . S
H1460 C1446 0.960 . S
H1461 C1447 0.961 . S
H1462 C1447 0.961 . S
H1463 C1447 0.961 . S
H1464 C1448 0.931 . S
H1465 C1453 0.930 . S
H1466 C1454 0.956 . S
H1467 C1454 0.961 . S
H1468 C1454 0.961 . S
H1469 C1455 0.958 . S
H1470 C1455 0.961 . S
H1471 C1455 0.960 . S
C1472 C1473 1.391 . S
C1472 C1474 1.394 . S
C1472 H1488 0.931 . S
C1473 C1472 1.391 . S
C1473 C1477 1.376 . S
C1474 C1472 1.394 . S
C1474 C1475 1.369 . S
C1474 C1478 1.531 . S
C1475 C1474 1.369 . S
C1475 C1476 1.410 . S
C1475 C1483 1.503 . S
C1476 C1475 1.410 . S
C1476 C1477 1.392 . S
C1476 C1479 1.511 . S
C1477 C1473 1.376 . S
C1477 C1476 1.392 . S
C1477 H1489 0.929 . S
C1478 C1474 1.531 . S
C1478 H1490 0.960 . S
C1478 H1491 0.962 . S
C1478 H1492 0.960 . S
C1479 C1476 1.511 . S
C1479 H1493 0.961 . S
C1479 H1494 0.961 . S
C1479 H1495 0.961 . S
C1480 C1481 1.370 . S
C1480 C1482 1.363 1_545 S
C1480 H1496 0.931 . S
C1481 C1480 1.370 . S
C1481 C1485 1.408 . S
C1482 C1480 1.363 1_565 S
C1482 C1483 1.370 . S
C1482 C1486 1.524 . S
C1483 C1475 1.503 . S
C1483 C1482 1.370 . S
C1483 C1484 1.403 . S
C1484 C1483 1.403 . S
C1484 C1485 1.404 1_565 S
C1484 C1487 1.539 . S
C1485 C1481 1.408 . S
C1485 C1484 1.404 1_545 S
C1485 H1497 0.930 . S
C1486 C1482 1.524 . S
C1486 H1498 0.956 . S
C1486 H1499 0.961 . S
C1486 H1500 0.961 . S
C1487 C1484 1.539 . S
C1487 H1501 0.958 . S
C1487 H1502 0.961 . S
C1487 H1503 0.960 . S
H1488 C1472 0.931 . S
H1489 C1477 0.929 . S
H1490 C1478 0.960 . S
H1491 C1478 0.962 . S
H1492 C1478 0.960 . S
H1493 C1479 0.961 . S
H1494 C1479 0.961 . S
H1495 C1479 0.961 . S
H1496 C1480 0.931 . S
H1497 C1485 0.930 . S
H1498 C1486 0.956 . S
H1499 C1486 0.961 . S
H1500 C1486 0.961 . S
H1501 C1487 0.958 . S
H1502 C1487 0.961 . S
H1503 C1487 0.960 . S
C1504 C1505 1.391 . S
C1504 C1506 1.394 . S
C1504 H1520 0.931 . S
C1505 C1504 1.391 . S
C1505 C1509 1.376 . S
C1506 C1504 1.394 . S
C1506 C1507 1.369 . S
C1506 C1510 1.531 . S
C1507 C1506 1.369 . S
C1507 C1508 1.410 . S
C1507 C1515 1.503 . S
C1508 C1507 1.410 . S
C1508 C1509 1.392 . S
C1508 C1511 1.511 . S
C1509 C1505 1.376 . S
C1509 C1508 1.392 . S
C1509 H1521 0.929 . S
C1510 C1506 1.531 . S
C1510 H1522 0.960 . S
C1510 H1523 0.962 . S
C1510 H1524 0.960 . S
C1511 C1508 1.511 . S
C1511 H1525 0.961 . S
C1511 H1526 0.961 . S
C1511 H1527 0.961 . S
C1512 C1513 1.370 . S
C1512 C1514 1.363 1_565 S
C1512 H1528 0.931 . S
C1513 C1512 1.370 . S
C1513 C1517 1.408 . S
C1514 C1512 1.363 1_545 S
C1514 C1515 1.370 . S
C1514 C1518 1.524 . S
C1515 C1507 1.503 . S
C1515 C1514 1.370 . S
C1515 C1516 1.403 . S
C1516 C1515 1.403 . S
C1516 C1517 1.404 1_545 S
C1516 C1519 1.539 . S
C1517 C1513 1.408 . S
C1517 C1516 1.404 1_565 S
C1517 H1529 0.930 . S
C1518 C1514 1.524 . S
C1518 H1530 0.956 . S
C1518 H1531 0.961 . S
C1518 H1532 0.961 . S
C1519 C1516 1.539 . S
C1519 H1533 0.958 . S
C1519 H1534 0.961 . S
C1519 H1535 0.960 . S
H1520 C1504 0.931 . S
H1521 C1509 0.929 . S
H1522 C1510 0.960 . S
H1523 C1510 0.962 . S
H1524 C1510 0.960 . S
H1525 C1511 0.961 . S
H1526 C1511 0.961 . S
H1527 C1511 0.961 . S
H1528 C1512 0.931 . S
H1529 C1517 0.930 . S
H1530 C1518 0.956 . S
H1531 C1518 0.961 . S
H1532 C1518 0.961 . S
H1533 C1519 0.958 . S
H1534 C1519 0.961 . S
H1535 C1519 0.960 . S
C1536 C1537 1.391 . S
C1536 C1538 1.394 1_545 S
C1536 H1552 0.931 . S
C1537 C1536 1.391 . S
C1537 C1541 1.376 . S
C1538 C1536 1.394 1_565 S
C1538 C1539 1.369 . S
C1538 C1542 1.531 . S
C1539 C1538 1.369 . S
C1539 C1540 1.410 . S
C1539 C1547 1.503 . S
C1540 C1539 1.410 . S
C1540 C1541 1.392 1_565 S
C1540 C1543 1.511 . S
C1541 C1537 1.376 . S
C1541 C1540 1.392 1_545 S
C1541 H1553 0.929 . S
C1542 C1538 1.531 . S
C1542 H1554 0.960 . S
C1542 H1555 0.962 . S
C1542 H1556 0.960 . S
C1543 C1540 1.511 . S
C1543 H1557 0.961 1_565 S
C1543 H1558 0.961 . S
C1543 H1559 0.961 . S
C1544 C1545 1.370 . S
C1544 C1546 1.363 . S
C1544 H1560 0.931 . S
C1545 C1544 1.370 . S
C1545 C1549 1.408 . S
C1546 C1544 1.363 . S
C1546 C1547 1.370 . S
C1546 C1550 1.524 . S
C1547 C1539 1.503 . S
C1547 C1546 1.370 . S
C1547 C1548 1.403 . S
C1548 C1547 1.403 . S
C1548 C1549 1.404 . S
C1548 C1551 1.539 . S
C1549 C1545 1.408 . S
C1549 C1548 1.404 . S
C1549 H1561 0.930 . S
C1550 C1546 1.524 . S
C1550 H1562 0.956 . S
C1550 H1563 0.961 . S
C1550 H1564 0.961 . S
C1551 C1548 1.539 . S
C1551 H1565 0.958 . S
C1551 H1566 0.961 . S
C1551 H1567 0.960 . S
H1552 C1536 0.931 . S
H1553 C1541 0.929 . S
H1554 C1542 0.960 . S
H1555 C1542 0.962 . S
H1556 C1542 0.960 . S
H1557 C1543 0.961 1_545 S
H1558 C1543 0.961 . S
H1559 C1543 0.961 . S
H1560 C1544 0.931 . S
H1561 C1549 0.930 . S
H1562 C1550 0.956 . S
H1563 C1550 0.961 . S
H1564 C1550 0.961 . S
H1565 C1551 0.958 . S
H1566 C1551 0.961 . S
H1567 C1551 0.960 . S
C1568 C1569 1.391 . S
C1568 C1570 1.418 . S
C1568 H1584 0.931 . S
C1569 C1568 1.391 . S
C1569 C1573 1.376 . S
C1570 C1568 1.418 . S
C1570 C1571 1.349 1_545 S
C1570 C1574 1.527 1_545 S
C1571 C1570 1.349 1_565 S
C1571 C1572 1.410 . S
C1571 C1579 1.503 . S
C1572 C1571 1.410 . S
C1572 C1573 1.392 1_565 S
C1572 C1575 1.511 . S
C1573 C1569 1.376 . S
C1573 C1572 1.392 1_545 S
C1573 H1585 0.929 . S
C1574 C1570 1.527 1_565 S
C1574 H1586 0.960 . S
C1574 H1587 0.962 . S
C1574 H1588 0.960 1_565 S
C1575 C1572 1.511 . S
C1575 H1589 0.961 . S
C1575 H1590 0.961 . S
C1575 H1591 0.961 . S
C1576 C1577 1.370 . S
C1576 C1578 1.363 . S
C1576 H1592 0.931 . S
C1577 C1576 1.370 . S
C1577 C1581 1.408 . S
C1578 C1576 1.363 . S
C1578 C1579 1.370 . S
C1578 C1582 1.524 . S
C1579 C1571 1.503 . S
C1579 C1578 1.370 . S
C1579 C1580 1.403 . S
C1580 C1579 1.403 . S
C1580 C1581 1.404 . S
C1580 C1583 1.539 . S
C1581 C1577 1.408 . S
C1581 C1580 1.404 . S
C1581 H1593 0.930 . S
C1582 C1578 1.524 . S
C1582 H1594 0.956 . S
C1582 H1595 0.961 . S
C1582 H1596 0.961 . S
C1583 C1580 1.539 . S
C1583 H1597 0.958 . S
C1583 H1598 0.961 . S
C1583 H1599 0.960 . S
H1584 C1568 0.931 . S
H1585 C1573 0.929 . S
H1586 C1574 0.960 . S
H1587 C1574 0.962 . S
H1588 C1574 0.960 1_545 S
H1589 C1575 0.961 . S
H1590 C1575 0.961 . S
H1591 C1575 0.961 . S
H1592 C1576 0.931 . S
H1593 C1581 0.930 . S
H1594 C1582 0.956 . S
H1595 C1582 0.961 . S
H1596 C1582 0.961 . S
H1597 C1583 0.958 . S
H1598 C1583 0.961 . S
H1599 C1583 0.960 . S
C1600 C1601 1.391 . S
C1600 C1602 1.394 . S
C1600 H1616 0.931 . S
C1601 C1600 1.391 . S
C1601 C1605 1.376 . S
C1602 C1600 1.394 . S
C1602 C1603 1.369 . S
C1602 C1606 1.531 . S
C1603 C1602 1.369 . S
C1603 C1604 1.410 . S
C1603 C1611 1.503 . S
C1604 C1603 1.410 . S
C1604 C1605 1.392 . S
C1604 C1607 1.511 . S
C1605 C1601 1.376 . S
C1605 C1604 1.392 . S
C1605 H1617 0.929 . S
C1606 C1602 1.531 . S
C1606 H1618 0.960 . S
C1606 H1619 0.962 . S
C1606 H1620 0.960 . S
C1607 C1604 1.511 . S
C1607 H1621 0.961 . S
C1607 H1622 0.961 . S
C1607 H1623 0.961 . S
C1608 C1609 1.370 . S
C1608 C1610 1.363 1_565 S
C1608 H1624 0.931 . S
C1609 C1608 1.370 . S
C1609 C1613 1.408 . S
C1610 C1608 1.363 1_545 S
C1610 C1611 1.370 . S
C1610 C1614 1.524 . S
C1611 C1603 1.503 . S
C1611 C1610 1.370 . S
C1611 C1612 1.403 . S
C1612 C1611 1.403 . S
C1612 C1613 1.404 1_545 S
C1612 C1615 1.539 . S
C1613 C1609 1.408 . S
C1613 C1612 1.404 1_565 S
C1613 H1625 0.930 . S
C1614 C1610 1.524 . S
C1614 H1626 0.956 . S
C1614 H1627 0.961 . S
C1614 H1628 0.961 . S
C1615 C1612 1.539 . S
C1615 H1629 0.958 . S
C1615 H1630 0.961 . S
C1615 H1631 0.960 . S
H1616 C1600 0.931 . S
H1617 C1605 0.929 . S
H1618 C1606 0.960 . S
H1619 C1606 0.962 . S
H1620 C1606 0.960 . S
H1621 C1607 0.961 . S
H1622 C1607 0.961 . S
H1623 C1607 0.961 . S
H1624 C1608 0.931 . S
H1625 C1613 0.930 . S
H1626 C1614 0.956 . S
H1627 C1614 0.961 . S
H1628 C1614 0.961 . S
H1629 C1615 0.958 . S
H1630 C1615 0.961 . S
H1631 C1615 0.960 . S
C1632 C1633 1.391 . S
C1632 C1634 1.394 . S
C1632 H1648 0.931 . S
C1633 C1632 1.391 . S
C1633 C1637 1.376 . S
C1634 C1632 1.394 . S
C1634 C1635 1.369 . S
C1634 C1638 1.531 . S
C1635 C1634 1.369 . S
C1635 C1636 1.410 . S
C1635 C1643 1.503 . S
C1636 C1635 1.410 . S
C1636 C1637 1.392 . S
C1636 C1639 1.511 . S
C1637 C1633 1.376 . S
C1637 C1636 1.392 . S
C1637 H1649 0.929 . S
C1638 C1634 1.531 . S
C1638 H1650 0.960 . S
C1638 H1651 0.962 . S
C1638 H1652 0.960 . S
C1639 C1636 1.511 . S
C1639 H1653 0.961 . S
C1639 H1654 0.961 . S
C1639 H1655 0.961 . S
C1640 C1641 1.370 . S
C1640 C1642 1.363 . S
C1640 H1656 0.931 . S
C1641 C1640 1.370 . S
C1641 C1645 1.408 . S
C1642 C1640 1.363 . S
C1642 C1643 1.370 . S
C1642 C1646 1.524 . S
C1643 C1635 1.503 . S
C1643 C1642 1.370 . S
C1643 C1644 1.403 . S
C1644 C1643 1.403 . S
C1644 C1645 1.404 . S
C1644 C1647 1.539 . S
C1645 C1641 1.408 . S
C1645 C1644 1.404 . S
C1645 H1657 0.930 . S
C1646 C1642 1.524 . S
C1646 H1658 0.956 . S
C1646 H1659 0.961 . S
C1646 H1660 0.961 . S
C1647 C1644 1.539 . S
C1647 H1661 0.958 . S
C1647 H1662 0.961 . S
C1647 H1663 0.960 . S
H1648 C1632 0.931 . S
H1649 C1637 0.929 . S
H1650 C1638 0.960 . S
H1651 C1638 0.962 . S
H1652 C1638 0.960 . S
H1653 C1639 0.961 . S
H1654 C1639 0.961 . S
H1655 C1639 0.961 . S
H1656 C1640 0.931 . S
H1657 C1645 0.930 . S
H1658 C1646 0.956 . S
H1659 C1646 0.961 . S
H1660 C1646 0.961 . S
H1661 C1647 0.958 . S
H1662 C1647 0.961 . S
H1663 C1647 0.960 . S
C1664 C1665 1.391 . S
C1664 C1666 1.394 . S
C1664 H1680 0.931 . S
C1665 C1664 1.391 . S
C1665 C1669 1.376 . S
C1666 C1664 1.394 . S
C1666 C1667 1.369 . S
C1666 C1670 1.531 . S
C1667 C1666 1.369 . S
C1667 C1668 1.410 . S
C1667 C1675 1.503 . S
C1668 C1667 1.410 . S
C1668 C1669 1.392 . S
C1668 C1671 1.511 . S
C1669 C1665 1.376 . S
C1669 C1668 1.392 . S
C1669 H1681 0.929 . S
C1670 C1666 1.531 . S
C1670 H1682 0.960 . S
C1670 H1683 0.962 . S
C1670 H1684 0.960 . S
C1671 C1668 1.511 . S
C1671 H1685 0.961 . S
C1671 H1686 0.961 . S
C1671 H1687 0.961 . S
C1672 C1673 1.370 . S
C1672 C1674 1.363 . S
C1672 H1688 0.931 . S
C1673 C1672 1.370 . S
C1673 C1677 1.408 . S
C1674 C1672 1.363 . S
C1674 C1675 1.370 . S
C1674 C1678 1.524 . S
C1675 C1667 1.503 . S
C1675 C1674 1.370 . S
C1675 C1676 1.403 . S
C1676 C1675 1.403 . S
C1676 C1677 1.404 . S
C1676 C1679 1.539 . S
C1677 C1673 1.408 . S
C1677 C1676 1.404 . S
C1677 H1689 0.930 . S
C1678 C1674 1.524 . S
C1678 H1690 0.956 . S
C1678 H1691 0.961 . S
C1678 H1692 0.961 . S
C1679 C1676 1.539 . S
C1679 H1693 0.958 . S
C1679 H1694 0.961 . S
C1679 H1695 0.960 . S
H1680 C1664 0.931 . S
H1681 C1669 0.929 . S
H1682 C1670 0.960 . S
H1683 C1670 0.962 . S
H1684 C1670 0.960 . S
H1685 C1671 0.961 . S
H1686 C1671 0.961 . S
H1687 C1671 0.961 . S
H1688 C1672 0.931 . S
H1689 C1677 0.930 . S
H1690 C1678 0.956 . S
H1691 C1678 0.961 . S
H1692 C1678 0.961 . S
H1693 C1679 0.958 . S
H1694 C1679 0.961 . S
H1695 C1679 0.960 . S
C1696 C1697 1.391 . S
C1696 C1698 1.394 . S
C1696 H1712 0.931 . S
C1697 C1696 1.391 . S
C1697 C1701 1.376 . S
C1698 C1696 1.394 . S
C1698 C1699 1.369 . S
C1698 C1702 1.531 . S
C1699 C1698 1.369 . S
C1699 C1700 1.410 . S
C1699 C1707 1.503 . S
C1700 C1699 1.410 . S
C1700 C1701 1.392 . S
C1700 C1703 1.511 . S
C1701 C1697 1.376 . S
C1701 C1700 1.392 . S
C1701 H1713 0.929 . S
C1702 C1698 1.531 . S
C1702 H1714 0.960 . S
C1702 H1715 0.962 . S
C1702 H1716 0.960 . S
C1703 C1700 1.511 . S
C1703 H1717 0.961 . S
C1703 H1718 0.961 . S
C1703 H1719 0.961 . S
C1704 C1705 1.370 . S
C1704 C1706 1.363 . S
C1704 H1720 0.931 . S
C1705 C1704 1.370 . S
C1705 C1709 1.408 . S
C1706 C1704 1.363 . S
C1706 C1707 1.370 . S
C1706 C1710 1.524 . S
C1707 C1699 1.503 . S
C1707 C1706 1.370 . S
C1707 C1708 1.403 . S
C1708 C1707 1.403 . S
C1708 C1709 1.404 . S
C1708 C1711 1.539 . S
C1709 C1705 1.408 . S
C1709 C1708 1.404 . S
C1709 H1721 0.930 . S
C1710 C1706 1.524 . S
C1710 H1722 0.956 . S
C1710 H1723 0.961 . S
C1710 H1724 0.961 . S
C1711 C1708 1.539 . S
C1711 H1725 0.958 . S
C1711 H1726 0.961 . S
C1711 H1727 0.960 . S
H1712 C1696 0.931 . S
H1713 C1701 0.929 . S
H1714 C1702 0.960 . S
H1715 C1702 0.962 . S
H1716 C1702 0.960 . S
H1717 C1703 0.961 . S
H1718 C1703 0.961 . S
H1719 C1703 0.961 . S
H1720 C1704 0.931 . S
H1721 C1709 0.930 . S
H1722 C1710 0.956 . S
H1723 C1710 0.961 . S
H1724 C1710 0.961 . S
H1725 C1711 0.958 . S
H1726 C1711 0.961 . S
H1727 C1711 0.960 . S
C1728 C1729 1.391 . S
C1728 C1730 1.394 . S
C1728 H1744 0.931 . S
C1729 C1728 1.391 . S
C1729 C1733 1.376 . S
C1730 C1728 1.394 . S
C1730 C1731 1.369 . S
C1730 C1734 1.531 . S
C1731 C1730 1.369 . S
C1731 C1732 1.410 . S
C1731 C1739 1.503 . S
C1732 C1731 1.410 . S
C1732 C1733 1.392 . S
C1732 C1735 1.511 . S
C1733 C1729 1.376 . S
C1733 C1732 1.392 . S
C1733 H1745 0.929 . S
C1734 C1730 1.531 . S
C1734 H1746 0.960 . S
C1734 H1747 0.962 . S
C1734 H1748 0.960 . S
C1735 C1732 1.511 . S
C1735 H1749 0.961 . S
C1735 H1750 0.961 . S
C1735 H1751 0.961 . S
C1736 C1737 1.370 . S
C1736 C1738 1.363 . S
C1736 H1752 0.931 . S
C1737 C1736 1.370 . S
C1737 C1741 1.408 . S
C1738 C1736 1.363 . S
C1738 C1739 1.370 . S
C1738 C1742 1.524 . S
C1739 C1731 1.503 . S
C1739 C1738 1.370 . S
C1739 C1740 1.403 . S
C1740 C1739 1.403 . S
C1740 C1741 1.404 . S
C1740 C1743 1.539 . S
C1741 C1737 1.408 . S
C1741 C1740 1.404 . S
C1741 H1753 0.930 . S
C1742 C1738 1.524 . S
C1742 H1754 0.956 . S
C1742 H1755 0.961 . S
C1742 H1756 0.961 . S
C1743 C1740 1.539 . S
C1743 H1757 0.958 . S
C1743 H1758 0.961 . S
C1743 H1759 0.960 . S
H1744 C1728 0.931 . S
H1745 C1733 0.929 . S
H1746 C1734 0.960 . S
H1747 C1734 0.962 . S
H1748 C1734 0.960 . S
H1749 C1735 0.961 . S
H1750 C1735 0.961 . S
H1751 C1735 0.961 . S
H1752 C1736 0.931 . S
H1753 C1741 0.930 . S
H1754 C1742 0.956 . S
H1755 C1742 0.961 . S
H1756 C1742 0.961 . S
H1757 C1743 0.958 . S
H1758 C1743 0.961 . S
H1759 C1743 0.960 . S
C1760 C1761 1.391 . S
C1760 C1762 1.394 . S
C1760 H1776 0.931 . S
C1761 C1760 1.391 . S
C1761 C1765 1.376 . S
C1762 C1760 1.394 . S
C1762 C1763 1.369 . S
C1762 C1766 1.531 . S
C1763 C1762 1.369 . S
C1763 C1764 1.410 . S
C1763 C1771 1.503 . S
C1764 C1763 1.410 . S
C1764 C1765 1.392 . S
C1764 C1767 1.511 . S
C1765 C1761 1.376 . S
C1765 C1764 1.392 . S
C1765 H1777 0.929 . S
C1766 C1762 1.531 . S
C1766 H1778 0.960 . S
C1766 H1779 0.962 . S
C1766 H1780 0.960 . S
C1767 C1764 1.511 . S
C1767 H1781 0.961 . S
C1767 H1782 0.961 . S
C1767 H1783 0.961 . S
C1768 C1769 1.370 . S
C1768 C1770 1.363 . S
C1768 H1784 0.931 . S
C1769 C1768 1.370 . S
C1769 C1773 1.408 . S
C1770 C1768 1.363 . S
C1770 C1771 1.370 . S
C1770 C1774 1.524 . S
C1771 C1763 1.503 . S
C1771 C1770 1.370 . S
C1771 C1772 1.403 . S
C1772 C1771 1.403 . S
C1772 C1773 1.404 . S
C1772 C1775 1.539 . S
C1773 C1769 1.408 . S
C1773 C1772 1.404 . S
C1773 H1785 0.930 . S
C1774 C1770 1.524 . S
C1774 H1786 0.956 . S
C1774 H1787 0.961 . S
C1774 H1788 0.961 . S
C1775 C1772 1.539 . S
C1775 H1789 0.958 . S
C1775 H1790 0.961 . S
C1775 H1791 0.960 . S
H1776 C1760 0.931 . S
H1777 C1765 0.929 . S
H1778 C1766 0.960 . S
H1779 C1766 0.962 . S
H1780 C1766 0.960 . S
H1781 C1767 0.961 . S
H1782 C1767 0.961 . S
H1783 C1767 0.961 . S
H1784 C1768 0.931 . S
H1785 C1773 0.930 . S
H1786 C1774 0.956 . S
H1787 C1774 0.961 . S
H1788 C1774 0.961 . S
H1789 C1775 0.958 . S
H1790 C1775 0.961 . S
H1791 C1775 0.960 . S
C1792 C1793 1.391 . S
C1792 C1794 1.394 . S
C1792 H1808 0.931 . S
C1793 C1792 1.391 . S
C1793 C1797 1.376 . S
C1794 C1792 1.394 . S
C1794 C1795 1.369 . S
C1794 C1798 1.531 . S
C1795 C1794 1.369 . S
C1795 C1796 1.410 . S
C1795 C1803 1.503 . S
C1796 C1795 1.410 . S
C1796 C1797 1.392 . S
C1796 C1799 1.511 . S
C1797 C1793 1.376 . S
C1797 C1796 1.392 . S
C1797 H1809 0.929 . S
C1798 C1794 1.531 . S
C1798 H1810 0.960 . S
C1798 H1811 0.962 . S
C1798 H1812 0.960 . S
C1799 C1796 1.511 . S
C1799 H1813 0.961 . S
C1799 H1814 0.961 . S
C1799 H1815 0.961 . S
C1800 C1801 1.370 . S
C1800 C1802 1.363 . S
C1800 H1816 0.931 . S
C1801 C1800 1.370 . S
C1801 C1805 1.408 . S
C1802 C1800 1.363 . S
C1802 C1803 1.370 . S
C1802 C1806 1.524 . S
C1803 C1795 1.503 . S
C1803 C1802 1.370 . S
C1803 C1804 1.403 . S
C1804 C1803 1.403 . S
C1804 C1805 1.404 . S
C1804 C1807 1.539 . S
C1805 C1801 1.408 . S
C1805 C1804 1.404 . S
C1805 H1817 0.930 . S
C1806 C1802 1.524 . S
C1806 H1818 0.956 . S
C1806 H1819 0.961 . S
C1806 H1820 0.961 . S
C1807 C1804 1.539 . S
C1807 H1821 0.958 . S
C1807 H1822 0.961 . S
C1807 H1823 0.960 . S
H1808 C1792 0.931 . S
H1809 C1797 0.929 . S
H1810 C1798 0.960 . S
H1811 C1798 0.962 . S
H1812 C1798 0.960 . S
H1813 C1799 0.961 . S
H1814 C1799 0.961 . S
H1815 C1799 0.961 . S
H1816 C1800 0.931 . S
H1817 C1805 0.930 . S
H1818 C1806 0.956 . S
H1819 C1806 0.961 . S
H1820 C1806 0.961 . S
H1821 C1807 0.958 . S
H1822 C1807 0.961 . S
H1823 C1807 0.960 . S
C1824 C1825 1.391 . S
C1824 C1826 1.394 . S
C1824 H1840 0.931 . S
C1825 C1824 1.391 . S
C1825 C1829 1.376 . S
C1826 C1824 1.394 . S
C1826 C1827 1.369 . S
C1826 C1830 1.531 . S
C1827 C1826 1.369 . S
C1827 C1828 1.410 . S
C1827 C1835 1.503 . S
C1828 C1827 1.410 . S
C1828 C1829 1.392 . S
C1828 C1831 1.511 . S
C1829 C1825 1.376 . S
C1829 C1828 1.392 . S
C1829 H1841 0.929 . S
C1830 C1826 1.531 . S
C1830 H1842 0.960 . S
C1830 H1843 0.962 . S
C1830 H1844 0.960 . S
C1831 C1828 1.511 . S
C1831 H1845 0.961 . S
C1831 H1846 0.961 . S
C1831 H1847 0.961 . S
C1832 C1833 1.370 . S
C1832 C1834 1.363 . S
C1832 H1848 0.931 . S
C1833 C1832 1.370 . S
C1833 C1837 1.408 . S
C1834 C1832 1.363 . S
C1834 C1835 1.370 . S
C1834 C1838 1.524 . S
C1835 C1827 1.503 . S
C1835 C1834 1.370 . S
C1835 C1836 1.403 . S
C1836 C1835 1.403 . S
C1836 C1837 1.404 . S
C1836 C1839 1.539 . S
C1837 C1833 1.408 . S
C1837 C1836 1.404 . S
C1837 H1849 0.930 . S
C1838 C1834 1.524 . S
C1838 H1850 0.956 . S
C1838 H1851 0.961 . S
C1838 H1852 0.961 . S
C1839 C1836 1.539 . S
C1839 H1853 0.958 . S
C1839 H1854 0.961 . S
C1839 H1855 0.960 . S
H1840 C1824 0.931 . S
H1841 C1829 0.929 . S
H1842 C1830 0.960 . S
H1843 C1830 0.962 . S
H1844 C1830 0.960 . S
H1845 C1831 0.961 . S
H1846 C1831 0.961 . S
H1847 C1831 0.961 . S
H1848 C1832 0.931 . S
H1849 C1837 0.930 . S
H1850 C1838 0.956 . S
H1851 C1838 0.961 . S
H1852 C1838 0.961 . S
H1853 C1839 0.958 . S
H1854 C1839 0.961 . S
H1855 C1839 0.960 . S
C1856 C1857 1.391 . S
C1856 C1858 1.394 . S
C1856 H1872 0.931 . S
C1857 C1856 1.391 . S
C1857 C1861 1.376 . S
C1858 C1856 1.394 . S
C1858 C1859 1.369 . S
C1858 C1862 1.531 . S
C1859 C1858 1.369 . S
C1859 C1860 1.410 . S
C1859 C1867 1.503 . S
C1860 C1859 1.410 . S
C1860 C1861 1.392 . S
C1860 C1863 1.511 . S
C1861 C1857 1.376 . S
C1861 C1860 1.392 . S
C1861 H1873 0.929 . S
C1862 C1858 1.531 . S
C1862 H1874 0.960 . S
C1862 H1875 0.962 . S
C1862 H1876 0.960 . S
C1863 C1860 1.511 . S
C1863 H1877 0.961 . S
C1863 H1878 0.961 . S
C1863 H1879 0.961 . S
C1864 C1865 1.370 . S
C1864 C1866 1.363 . S
C1864 H1880 0.931 . S
C1865 C1864 1.370 . S
C1865 C1869 1.408 . S
C1866 C1864 1.363 . S
C1866 C1867 1.370 . S
C1866 C1870 1.524 . S
C1867 C1859 1.503 . S
C1867 C1866 1.370 . S
C1867 C1868 1.403 . S
C1868 C1867 1.403 . S
C1868 C1869 1.404 . S
C1868 C1871 1.539 . S
C1869 C1865 1.408 . S
C1869 C1868 1.404 . S
C1869 H1881 0.930 . S
C1870 C1866 1.524 . S
C1870 H1882 0.956 . S
C1870 H1883 0.961 . S
C1870 H1884 0.961 . S
C1871 C1868 1.539 . S
C1871 H1885 0.958 . S
C1871 H1886 0.961 . S
C1871 H1887 0.960 . S
H1872 C1856 0.931 . S
H1873 C1861 0.929 . S
H1874 C1862 0.960 . S
H1875 C1862 0.962 . S
H1876 C1862 0.960 . S
H1877 C1863 0.961 . S
H1878 C1863 0.961 . S
H1879 C1863 0.961 . S
H1880 C1864 0.931 . S
H1881 C1869 0.930 . S
H1882 C1870 0.956 . S
H1883 C1870 0.961 . S
H1884 C1870 0.961 . S
H1885 C1871 0.958 . S
H1886 C1871 0.961 . S
H1887 C1871 0.960 . S
C353 C5 0.858 . S
C361 C270 0.764 . S
C385 C293 0.789 . S
C393 C27 0.788 . S
C417 C314 0.744 . S
C425 C49 0.807 . S
C449 C336 0.736 . S
C457 C75 0.817 . S
C481 C94 0.721 . S
C489 C181 0.818 . S
C513 C203 0.718 . S
C521 C117 0.820 . S
C545 C138 0.811 . S
C553 C225 0.779 . S
C577 C251 0.724 . S
C585 C160 0.820 . S
C609 C48 1.847 . S
C617 C4 1.852 . S
C641 C26 1.843 . S
C649 C74 1.848 . S
C673 C92 1.847 . S
C681 C136 1.851 . S
C705 C158 1.850 . S
C713 C118 1.851 . S
C737 C180 1.847 . S
C745 C224 1.849 . S
C769 C250 1.850 . S
C777 C202 1.852 . S
C801 C312 1.844 . S
C809 C268 1.850 . S
C833 C334 1.844 . S
C841 C294 1.849 . S
C865 C9 1.801 . S
C873 C71 1.769 . S
C897 C53 1.785 . S
C905 C31 1.760 . S
C929 C161 1.783 . S
C937 C95 1.762 . S
C961 C139 1.759 . S
C969 C116 1.770 . S
C993 C247 1.782 . S
C1001 C185 1.760 . S
C1025 C229 1.753 . S
C1033 C207 1.788 . S
C1057 C271 1.765 . S
C1065 C337 1.783 . S
C1089 C315 1.787 . S
C1097 C292 1.774 . S
C1121 C8 1.445 . S
C1129 C140 1.446 . S
C1153 C30 1.476 . S
C1161 C162 1.463 . S
C1185 C96 1.435 . S
C1193 C52 1.447 . S
C1217 C114 1.452 . S
C1225 C70 1.454 . S
C1249 C184 1.478 . S
C1257 C316 1.461 . S
C1281 C206 1.466 . S
C1289 C338 1.459 . S
C1313 C272 1.456 . S
C1321 C228 1.456 . S
C1345 C290 1.447 . S
C1353 C246 1.452 . S
C1377 C6 1.261 . S
C1385 C317 1.251 . S
C1409 C28 1.251 . S
C1417 C339 1.245 . S
C1441 C273 1.204 . S
C1449 C50 1.290 . S
C1473 C291 1.189 . S
C1481 C73 1.286 . S
C1505 C227 1.254 . S
C1513 C93 1.270 . S
C1537 C119 1.277 . S
C1545 C248 1.215 . S
C1569 C137 1.250 . S
C1577 C183 1.237 . S
C1601 C205 1.187 . S
C1609 C159 1.281 . S
C1633 C141 1.228 . S
C1641 C182 1.268 . S
C1665 C204 1.293 . S
C1673 C163 1.216 . S
C1697 C97 1.274 . S
C1705 C226 1.280 . S
C1729 C249 1.276 . S
C1737 C115 1.252 . S
C1761 C51 1.202 . S
C1769 C269 1.287 . S
C1793 C295 1.249 . S
C1801 C72 1.230 . S
C1825 C313 1.257 . S
C1833 C7 1.245 . S
C1857 C29 1.271 . S
C1865 C335 1.275 . S
