# Generated by pormake.
# Topology ukt, (4)-cn, num edge types: 1
# Building blocks:
#     Node 0, Type 0, BuildingBlock: GALJAG_clean_sbu_0, # of connection points: 4
#     Node 1, Type 0, BuildingBlock: GALJAG_clean_sbu_0, # of connection points: 4
#     Node 2, Type 0, BuildingBlock: GALJAG_clean_sbu_0, # of connection points: 4
#     Node 3, Type 0, BuildingBlock: GALJAG_clean_sbu_0, # of connection points: 4
#     Node 4, Type 0, BuildingBlock: GALJAG_clean_sbu_0, # of connection points: 4
#     Node 5, Type 0, BuildingBlock: GALJAG_clean_sbu_0, # of connection points: 4
#     Node 6, Type 0, BuildingBlock: GALJAG_clean_sbu_0, # of connection points: 4
#     Node 7, Type 0, BuildingBlock: GALJAG_clean_sbu_0, # of connection points: 4
#     Node 8, Type 0, BuildingBlock: GALJAG_clean_sbu_0, # of connection points: 4
#     Node 9, Type 0, BuildingBlock: GALJAG_clean_sbu_0, # of connection points: 4
#     Node 10, Type 0, BuildingBlock: GALJAG_clean_sbu_0, # of connection points: 4
#     Node 11, Type 0, BuildingBlock: GALJAG_clean_sbu_0, # of connection points: 4
#     Node 12, Type 0, BuildingBlock: GALJAG_clean_sbu_0, # of connection points: 4
#     Node 13, Type 0, BuildingBlock: GALJAG_clean_sbu_0, # of connection points: 4
#     Node 14, Type 0, BuildingBlock: GALJAG_clean_sbu_0, # of connection points: 4
#     Node 15, Type 0, BuildingBlock: GALJAG_clean_sbu_0, # of connection points: 4
#     Edge 16, Type (0, 0), BuildingBlock: MIFKUJ_clean_linker_0, # of connection points: 2
#     Edge 17, Type (0, 0), BuildingBlock: MIFKUJ_clean_linker_0, # of connection points: 2
#     Edge 18, Type (0, 0), BuildingBlock: MIFKUJ_clean_linker_0, # of connection points: 2
#     Edge 19, Type (0, 0), BuildingBlock: MIFKUJ_clean_linker_0, # of connection points: 2
#     Edge 20, Type (0, 0), BuildingBlock: MIFKUJ_clean_linker_0, # of connection points: 2
#     Edge 21, Type (0, 0), BuildingBlock: MIFKUJ_clean_linker_0, # of connection points: 2
#     Edge 22, Type (0, 0), BuildingBlock: MIFKUJ_clean_linker_0, # of connection points: 2
#     Edge 23, Type (0, 0), BuildingBlock: MIFKUJ_clean_linker_0, # of connection points: 2
#     Edge 24, Type (0, 0), BuildingBlock: MIFKUJ_clean_linker_0, # of connection points: 2
#     Edge 25, Type (0, 0), BuildingBlock: MIFKUJ_clean_linker_0, # of connection points: 2
#     Edge 26, Type (0, 0), BuildingBlock: MIFKUJ_clean_linker_0, # of connection points: 2
#     Edge 27, Type (0, 0), BuildingBlock: MIFKUJ_clean_linker_0, # of connection points: 2
#     Edge 28, Type (0, 0), BuildingBlock: MIFKUJ_clean_linker_0, # of connection points: 2
#     Edge 29, Type (0, 0), BuildingBlock: MIFKUJ_clean_linker_0, # of connection points: 2
#     Edge 30, Type (0, 0), BuildingBlock: MIFKUJ_clean_linker_0, # of connection points: 2
#     Edge 31, Type (0, 0), BuildingBlock: MIFKUJ_clean_linker_0, # of connection points: 2
#     Edge 32, Type (0, 0), BuildingBlock: MIFKUJ_clean_linker_0, # of connection points: 2
#     Edge 33, Type (0, 0), BuildingBlock: MIFKUJ_clean_linker_0, # of connection points: 2
#     Edge 34, Type (0, 0), BuildingBlock: MIFKUJ_clean_linker_0, # of connection points: 2
#     Edge 35, Type (0, 0), BuildingBlock: MIFKUJ_clean_linker_0, # of connection points: 2
#     Edge 36, Type (0, 0), BuildingBlock: MIFKUJ_clean_linker_0, # of connection points: 2
#     Edge 37, Type (0, 0), BuildingBlock: MIFKUJ_clean_linker_0, # of connection points: 2
#     Edge 38, Type (0, 0), BuildingBlock: MIFKUJ_clean_linker_0, # of connection points: 2
#     Edge 39, Type (0, 0), BuildingBlock: MIFKUJ_clean_linker_0, # of connection points: 2
#     Edge 40, Type (0, 0), BuildingBlock: MIFKUJ_clean_linker_0, # of connection points: 2
#     Edge 41, Type (0, 0), BuildingBlock: MIFKUJ_clean_linker_0, # of connection points: 2
#     Edge 42, Type (0, 0), BuildingBlock: MIFKUJ_clean_linker_0, # of connection points: 2
#     Edge 43, Type (0, 0), BuildingBlock: MIFKUJ_clean_linker_0, # of connection points: 2
#     Edge 44, Type (0, 0), BuildingBlock: MIFKUJ_clean_linker_0, # of connection points: 2
#     Edge 45, Type (0, 0), BuildingBlock: MIFKUJ_clean_linker_0, # of connection points: 2
#     Edge 46, Type (0, 0), BuildingBlock: MIFKUJ_clean_linker_0, # of connection points: 2
#     Edge 47, Type (0, 0), BuildingBlock: MIFKUJ_clean_linker_0, # of connection points: 2
# Relax obj value: 0.211
# Max RMSD: 0.110
# Mean RMSD: 0.110
data_MOF--net-ukt--node1-GALJAG_clean_sbu_0--edge1-MIFKUJ_clean_linker_0
_symmetry_space_group_name_H-M    P1
_symmetry_Int_Tables_number       1
_symmetry_cell_setting            triclinic
loop_
_symmetry_equiv_pos_as_xyz
'x, y, z'
_cell_length_a     54.509098
_cell_length_b     54.513322
_cell_length_c     44.715216
_cell_angle_alpha  90.024563
_cell_angle_beta   89.989594
_cell_angle_gamma 90.005914
loop_
_atom_site_label
_atom_site_type_symbol
_atom_site_fract_x
_atom_site_fract_y
_atom_site_fract_z
_atom_type_partial_charge
In0 In 0.53274 0.15926 0.08176 0.0
O1 O 0.56263 0.13233 0.0966 0.0
O2 O 0.57362 0.16438 0.07346 0.0
C3 C 0.51106 0.17159 0.13373 0.0
C4 C 0.51268 0.12055 0.05342 0.0
C5 C 0.53098 0.2021 0.05203 0.0
O6 O 0.53216 0.16214 0.13239 0.0
O7 O 0.50042 0.17398 0.10883 0.0
O8 O 0.5212 0.18283 0.04177 0.0
O9 O 0.5412 0.19967 0.07716 0.0
C10 C 0.58001 0.14448 0.08543 0.0
O11 O 0.52672 0.13558 0.04055 0.0
O12 O 0.50763 0.12583 0.0802 0.0
In13 In 0.34577 0.53121 0.08299 0.0
O14 O 0.35256 0.57015 0.10093 0.0
O15 O 0.37434 0.55749 0.06472 0.0
C16 C 0.32975 0.51074 0.13426 0.0
C17 C 0.38182 0.50245 0.06163 0.0
C18 C 0.30501 0.54195 0.05147 0.0
O19 O 0.34671 0.52646 0.13351 0.0
O20 O 0.32127 0.50481 0.10903 0.0
O21 O 0.31691 0.52238 0.04705 0.0
O22 O 0.31378 0.55572 0.07141 0.0
C23 C 0.36955 0.57468 0.08258 0.0
O24 O 0.36452 0.51017 0.04532 0.0
O25 O 0.37981 0.50782 0.08899 0.0
In26 In 0.97394 0.34328 0.07036 0.0
O27 O 0.94078 0.36522 0.08731 0.0
O28 O 0.94429 0.35908 0.04059 0.0
C29 C 0.98945 0.3258 0.12332 0.0
C30 C 0.00392 0.37927 0.05142 0.0
C31 C 0.96462 0.30039 0.04276 0.0
O32 O 0.96898 0.33624 0.11992 0.0
O33 O 0.00252 0.32471 0.10003 0.0
O34 O 0.98405 0.31237 0.0378 0.0
O35 O 0.9504 0.30992 0.06174 0.0
C36 C 0.93207 0.36864 0.06148 0.0
O37 O 0.99823 0.36121 0.03519 0.0
O38 O 0.99584 0.37821 0.07781 0.0
In39 In 0.15574 0.96684 0.0719 0.0
O40 O 0.13646 0.99177 0.03841 0.0
O41 O 0.12474 0.99298 0.08364 0.0
C42 C 0.19146 0.95326 0.03378 0.0
C43 C 0.12777 0.92608 0.07264 0.0
C44 C 0.18002 0.98365 0.12026 0.0
O45 O 0.18336 0.97499 0.03473 0.0
O46 O 0.18157 0.93862 0.05201 0.0
O47 O 0.16003 0.97212 0.12236 0.0
O48 O 0.18757 0.98687 0.09393 0.0
C49 C 0.12124 6e-05 0.05714 0.0
O50 O 0.14418 0.92982 0.0921 0.0
O51 O 0.12575 0.94272 0.05327 0.0
In52 In 0.52896 0.33801 0.43975 0.0
O53 O 0.56645 0.34991 0.42136 0.0
O54 O 0.55741 0.35923 0.46613 0.0
C55 C 0.50881 0.32049 0.38929 0.0
C56 C 0.50127 0.37728 0.45344 0.0
C57 C 0.53602 0.29574 0.46963 0.0
O58 O 0.52765 0.33397 0.38935 0.0
O59 O 0.49964 0.31634 0.41476 0.0
O60 O 0.52012 0.31122 0.47785 0.0
O61 O 0.54827 0.30179 0.44688 0.0
C62 C 0.57274 0.36068 0.44515 0.0
O63 O 0.50573 0.36055 0.47222 0.0
O64 O 0.50918 0.3731 0.42744 0.0
In65 In 0.16157 0.53502 0.44426 0.0
O66 O 0.14772 0.56983 0.42127 0.0
O67 O 0.13416 0.56147 0.46472 0.0
C68 C 0.18478 0.51982 0.39441 0.0
C69 C 0.12468 0.50397 0.4572 0.0
C70 C 0.19953 0.54478 0.48129 0.0
O71 O 0.17278 0.53958 0.39564 0.0
O72 O 0.18478 0.50746 0.41825 0.0
O73 O 0.19186 0.52328 0.47677 0.0
O74 O 0.18799 0.56122 0.46741 0.0
C75 C 0.13369 0.57579 0.44256 0.0
O76 O 0.13912 0.51216 0.47686 0.0
O77 O 0.12986 0.51026 0.43081 0.0
In78 In 0.97418 0.15903 0.43425 0.0
O79 O 0.99837 0.13982 0.46859 0.0
O80 O 0.99655 0.12476 0.42486 0.0
C81 C 0.96275 0.20044 0.46392 0.0
C82 C 0.9326 0.13294 0.44123 0.0
C83 C 0.99049 0.17821 0.38252 0.0
O84 O 0.9831 0.18974 0.46766 0.0
O85 O 0.94874 0.19045 0.4451 0.0
O86 O 0.97101 0.16578 0.38437 0.0
O87 O 0.00215 0.18053 0.40677 0.0
C88 C 0.00432 0.12253 0.45127 0.0
O89 O 0.94011 0.13955 0.41573 0.0
O90 O 0.94593 0.13965 0.46276 0.0
In91 In 0.34136 0.96864 0.42662 0.0
O92 O 0.36383 0.93735 0.40563 0.0
O93 O 0.34831 0.93193 0.44868 0.0
C94 C 0.32625 0.99167 0.37691 0.0
C95 C 0.37884 0.99317 0.45232 0.0
C96 C 0.29642 0.96045 0.44904 0.0
O97 O 0.33823 0.97184 0.37621 0.0
O98 O 0.32257 0.00032 0.40273 0.0
O99 O 0.31052 0.97657 0.46006 0.0
O100 O 0.30501 0.94902 0.42682 0.0
C101 C 0.36099 0.9232 0.4277 0.0
O102 O 0.36132 0.98442 0.46735 0.0
O103 O 0.37652 0.99091 0.42445 0.0
In104 In 0.45616 0.83769 0.93212 0.0
O105 O 0.41525 0.83508 0.92058 0.0
O106 O 0.43099 0.87043 0.92555 0.0
C107 C 0.47373 0.81683 0.88147 0.0
C108 C 0.48374 0.87348 0.95664 0.0
C109 C 0.45128 0.80276 0.97409 0.0
O110 O 0.46543 0.83838 0.88208 0.0
O111 O 0.47314 0.8059 0.90622 0.0
O112 O 0.4718 0.80798 0.96253 0.0
O113 O 0.43346 0.81547 0.96485 0.0
C114 C 0.41195 0.858 0.92072 0.0
O115 O 0.46813 0.86139 0.97124 0.0
O116 O 0.48667 0.86639 0.93004 0.0
In117 In 0.65954 0.45775 0.92749 0.0
O118 O 0.63868 0.42384 0.91126 0.0
O119 O 0.64218 0.42965 0.95812 0.0
C120 C 0.67768 0.46933 0.87334 0.0
C121 C 0.62171 0.48703 0.94248 0.0
C122 C 0.70173 0.45189 0.95811 0.0
O123 O 0.66969 0.44826 0.87977 0.0
O124 O 0.67626 0.48487 0.89424 0.0
O125 O 0.69081 0.47232 0.95705 0.0
O126 O 0.69141 0.43488 0.94375 0.0
C127 C 0.63364 0.41653 0.93735 0.0
O128 O 0.63927 0.48276 0.96013 0.0
O129 O 0.62434 0.47814 0.91665 0.0
In130 In 0.03951 0.66025 0.92571 0.0
O131 O 0.07139 0.63546 0.91084 0.0
O132 O 0.07469 0.65463 0.9519 0.0
C133 C 0.02438 0.67622 0.87195 0.0
C134 C 0.01282 0.62203 0.94563 0.0
C135 C 0.04195 0.70377 0.95366 0.0
O136 O 0.04564 0.66786 0.87657 0.0
O137 O 0.0104 0.67616 0.8945 0.0
O138 O 0.0259 0.68795 0.96048 0.0
O139 O 0.05606 0.6977 0.93253 0.0
C140 C 0.08421 0.63981 0.9337 0.0
O141 O 0.0199 0.6391 0.9626 0.0
O142 O 0.01774 0.6252 0.91838 0.0
In143 In 0.84034 0.03707 0.92974 0.0
O144 O 0.86043 0.01699 0.96736 0.0
O145 O 0.87611 0.0164 0.92398 0.0
C146 C 0.79786 0.0479 0.95702 0.0
C147 C 0.86261 0.08107 0.93292 0.0
C148 C 0.82178 0.01598 0.88032 0.0
O149 O 0.81024 0.02912 0.96406 0.0
O150 O 0.80672 0.06059 0.93601 0.0
O151 O 0.8345 0.03532 0.87947 0.0
O152 O 0.81888 0.00693 0.90606 0.0
C153 C 0.87841 0.01093 0.95119 0.0
O154 O 0.86166 0.06911 0.90873 0.0
O155 O 0.85221 0.07095 0.95484 0.0
In156 In 0.46907 0.6615 0.56748 0.0
O157 O 0.48406 0.64009 0.52774 0.0
O158 O 0.49677 0.63052 0.57114 0.0
C159 C 0.45598 0.69837 0.53055 0.0
C160 C 0.42682 0.6367 0.57714 0.0
C161 C 0.49034 0.68195 0.61604 0.0
O162 O 0.47735 0.68939 0.53022 0.0
O163 O 0.44154 0.68848 0.54893 0.0
O164 O 0.47524 0.66452 0.61778 0.0
O165 O 0.49524 0.68868 0.58977 0.0
C166 C 0.49674 0.62565 0.54353 0.0
O167 O 0.42953 0.6588 0.58488 0.0
O168 O 0.4454 0.62717 0.56516 0.0
In169 In 0.83542 0.46713 0.549 0.0
O170 O 0.85925 0.48404 0.51263 0.0
O171 O 0.8685 0.4917 0.55771 0.0
C172 C 0.7985 0.47172 0.50944 0.0
C173 C 0.85639 0.42248 0.55433 0.0
C174 C 0.81144 0.47445 0.60089 0.0
O175 O 0.8013 0.48639 0.53103 0.0
O176 O 0.81496 0.45557 0.50714 0.0
O177 O 0.81322 0.45372 0.58857 0.0
O178 O 0.8222 0.49168 0.58729 0.0
C179 C 0.87409 0.49398 0.5305 0.0
O180 O 0.86506 0.4413 0.56687 0.0
O181 O 0.83694 0.42611 0.53976 0.0
In182 In 0.0287 0.83415 0.55071 0.0
O183 O 0.00963 0.85838 0.51632 0.0
O184 O 0.00755 0.86905 0.56179 0.0
C185 C 0.02168 0.79735 0.51134 0.0
C186 C 0.07504 0.8518 0.55158 0.0
C187 C 0.02048 0.81153 0.60318 0.0
O188 O 0.01027 0.79853 0.53585 0.0
O189 O 0.03558 0.81533 0.50613 0.0
O190 O 0.0414 0.81254 0.59112 0.0
O191 O 0.00363 0.82237 0.58898 0.0
C192 C 0.00285 0.87431 0.53497 0.0
O193 O 0.05782 0.86171 0.56597 0.0
O194 O 0.0691 0.83251 0.53784 0.0
In195 In 0.66127 0.02888 0.56732 0.0
O196 O 0.64455 0.06374 0.58787 0.0
O197 O 0.64137 0.05808 0.54099 0.0
C198 C 0.68075 0.01058 0.61785 0.0
C199 C 0.62487 0.99898 0.54885 0.0
C200 C 0.7028 0.03993 0.53786 0.0
O201 O 0.66371 0.02627 0.6181 0.0
O202 O 0.68754 0.00373 0.5922 0.0
O203 O 0.69179 0.01975 0.534 0.0
O204 O 0.69286 0.05422 0.55648 0.0
C205 C 0.63654 0.07156 0.56312 0.0
O206 O 0.64142 0.00662 0.53147 0.0
O207 O 0.62787 0.00485 0.57584 0.0
H208 H 0.54315 0.24687 0.07381 0.0
H209 H 0.55079 0.28427 0.04552 0.0
H210 H 0.53007 0.24735 0.96397 0.0
H211 H 0.52227 0.20958 0.99241 0.0
H212 H 0.57491 0.26943 0.95994 0.0
H213 H 0.49497 0.29357 0.98801 0.0
H214 H 0.45932 0.30003 0.021 0.0
H215 H 0.50113 0.35037 0.07445 0.0
H216 H 0.53717 0.34394 0.0421 0.0
H217 H 0.61239 0.38527 0.8969 0.0
H218 H 0.58635 0.34963 0.90787 0.0
H219 H 0.59426 0.36356 0.00239 0.0
H220 H 0.61991 0.39908 0.99165 0.0
H221 H 0.54708 0.35301 0.98777 0.0
H222 H 0.62867 0.32017 0.96698 0.0
H223 H 0.66497 0.31324 0.93513 0.0
H224 H 0.61964 0.27896 0.86861 0.0
H225 H 0.58301 0.28597 0.89997 0.0
C226 C 0.53977 0.24681 0.04994 0.0
C227 C 0.53223 0.22533 0.03526 0.0
C228 C 0.54398 0.26826 0.03381 0.0
C229 C 0.5408 0.26864 0.00267 0.0
C230 C 0.53248 0.24743 0.98802 0.0
C231 C 0.52799 0.22595 0.00426 0.0
C232 C 0.54886 0.29047 0.9856 0.0
C233 C 0.56833 0.28769 0.96534 0.0
C234 C 0.54046 0.31427 0.99294 0.0
C235 C 0.51884 0.31818 0.01263 0.0
C236 C 0.49664 0.30588 0.00693 0.0
C237 C 0.47634 0.30956 0.02551 0.0
C238 C 0.47796 0.32558 0.04982 0.0
C239 C 0.49989 0.33798 0.0556 0.0
C240 C 0.52026 0.33435 0.0371 0.0
C241 C 0.60854 0.38067 0.91999 0.0
C242 C 0.61827 0.39483 0.94344 0.0
C243 C 0.59367 0.36037 0.92621 0.0
C244 C 0.58842 0.35396 0.95595 0.0
C245 C 0.59795 0.36827 0.97928 0.0
C246 C 0.61276 0.38847 0.97311 0.0
C247 C 0.57378 0.33191 0.96333 0.0
C248 C 0.55309 0.3347 0.9817 0.0
C249 C 0.5811 0.30812 0.95437 0.0
C250 C 0.60309 0.30388 0.9356 0.0
C251 C 0.62643 0.31134 0.94545 0.0
C252 C 0.64706 0.30736 0.92752 0.0
C253 C 0.6446 0.29574 0.89981 0.0
C254 C 0.62151 0.28801 0.89004 0.0
C255 C 0.60081 0.29197 0.90787 0.0
H256 H 0.66059 0.29267 0.88596 0.0
H257 H 0.46222 0.32841 0.06417 0.0
H258 H 0.10486 0.60059 0.90469 0.0
H259 H 0.1437 0.58002 0.91712 0.0
H260 H 0.1557 0.63191 0.98851 0.0
H261 H 0.11716 0.65231 0.97643 0.0
H262 H 0.1969 0.62435 0.95296 0.0
H263 H 0.13397 0.57693 0.00441 0.0
H264 H 0.09637 0.55172 0.00583 0.0
H265 H 0.13001 0.49865 0.94794 0.0
H266 H 0.16772 0.5237 0.94587 0.0
H267 H 0.2759 0.58139 0.06124 0.0
H268 H 0.2396 0.59383 0.03351 0.0
H269 H 0.24688 0.53059 0.97616 0.0
H270 H 0.28342 0.51767 0.0044 0.0
H271 H 0.19835 0.53957 0.99338 0.0
H272 H 0.26411 0.5844 0.94933 0.0
H273 H 0.30149 0.60988 0.94912 0.0
H274 H 0.26251 0.66808 0.99303 0.0
H275 H 0.22498 0.64283 0.99394 0.0
C276 C 0.11593 0.60765 0.92288 0.0
C277 C 0.10805 0.62802 0.93962 0.0
C278 C 0.13799 0.59586 0.93001 0.0
C279 C 0.15246 0.60444 0.95378 0.0
C280 C 0.1448 0.62506 0.97004 0.0
C281 C 0.12276 0.63665 0.96315 0.0
C282 C 0.17554 0.59206 0.96237 0.0
C283 C 0.19726 0.6058 0.96176 0.0
C284 C 0.17603 0.5676 0.97296 0.0
C285 C 0.15352 0.55237 0.97461 0.0
C286 C 0.13328 0.55999 0.99178 0.0
C287 C 0.11197 0.54572 0.99275 0.0
C288 C 0.11076 0.52371 0.9768 0.0
C289 C 0.13095 0.51577 0.96015 0.0
C290 C 0.15229 0.52999 0.95909 0.0
C291 C 0.26983 0.57005 0.04276 0.0
C292 C 0.28263 0.54866 0.03481 0.0
C293 C 0.24909 0.57723 0.02688 0.0
C294 C 0.24083 0.56337 0.00245 0.0
C295 C 0.2531 0.5416 0.99485 0.0
C296 C 0.27395 0.5343 0.01091 0.0
C297 C 0.21953 0.57223 0.98497 0.0
C298 C 0.19816 0.55787 0.98386 0.0
C299 C 0.2193 0.59618 0.97275 0.0
C300 C 0.24173 0.61165 0.97179 0.0
C301 C 0.26353 0.60259 0.95907 0.0
C302 C 0.28475 0.617 0.95882 0.0
C303 C 0.28438 0.64057 0.97107 0.0
C304 C 0.26277 0.64982 0.98353 0.0
C305 C 0.2415 0.63548 0.98387 0.0
H306 H 0.30084 0.65169 0.9709 0.0
H307 H 0.09419 0.51281 0.97735 0.0
H308 H 0.85518 0.11469 0.97635 0.0
H309 H 0.87689 0.15329 0.98399 0.0
H310 H 0.92053 0.13971 0.90525 0.0
H311 H 0.89832 0.10087 0.89702 0.0
H312 H 0.94665 0.15379 0.9633 0.0
H313 H 0.88524 0.18143 0.89497 0.0
H314 H 0.84337 0.18428 0.87443 0.0
H315 H 0.81804 0.21652 0.95643 0.0
H316 H 0.85968 0.21353 0.97765 0.0
H317 H 0.99039 0.27687 0.99841 0.0
H318 H 0.97751 0.24033 0.97023 0.0
H319 H 0.91137 0.23641 0.02305 0.0
H320 H 0.92392 0.27266 0.05089 0.0
H321 H 0.90169 0.23292 0.96406 0.0
H322 H 0.95904 0.19852 0.03539 0.0
H323 H 0.99928 0.19313 0.05967 0.0
H324 H 0.03099 0.17181 0.97567 0.0
H325 H 0.99098 0.17751 0.95077 0.0
C326 C 0.86927 0.11996 0.9605 0.0
C327 C 0.87508 0.10488 0.93606 0.0
C328 C 0.88163 0.142 0.96489 0.0
C329 C 0.90021 0.14926 0.94514 0.0
C330 C 0.90617 0.13431 0.92065 0.0
C331 C 0.89344 0.11231 0.91592 0.0
C332 C 0.91333 0.17244 0.95106 0.0
C333 C 0.9372 0.17131 0.96265 0.0
C334 C 0.90066 0.19502 0.95071 0.0
C335 C 0.8756 0.19716 0.93794 0.0
C336 C 0.87072 0.18899 0.9087 0.0
C337 C 0.84702 0.19065 0.89692 0.0
C338 C 0.82805 0.20056 0.91412 0.0
C339 C 0.83275 0.20887 0.94312 0.0
C340 C 0.85642 0.20723 0.95502 0.0
C341 C 0.97319 0.26806 0.00406 0.0
C342 C 0.95811 0.27763 0.02677 0.0
C343 C 0.96588 0.24724 0.98798 0.0
C344 C 0.94344 0.23576 0.9945 0.0
C345 C 0.92865 0.24512 0.01749 0.0
C346 C 0.93591 0.26579 0.03348 0.0
C347 C 0.93474 0.21419 0.9774 0.0
C348 C 0.91159 0.21565 0.96377 0.0
C349 C 0.948 0.19189 0.97624 0.0
C350 C 0.97212 0.18886 0.99112 0.0
C351 C 0.97466 0.193 0.02201 0.0
C352 C 0.99741 0.18983 0.03591 0.0
C353 C 0.01771 0.18225 0.0192 0.0
C354 C 0.01528 0.17778 0.98856 0.0
C355 C 0.99257 0.18101 0.97454 0.0
H356 H 0.0353 0.17974 0.03 0.0
H357 H 0.80971 0.20182 0.90497 0.0
H358 H 0.36749 0.83536 0.92543 0.0
H359 H 0.32789 0.85508 0.93396 0.0
H360 H 0.36151 0.92618 0.92257 0.0
H361 H 0.40129 0.90651 0.91489 0.0
H362 H 0.33763 0.92542 0.97214 0.0
H363 H 0.31752 0.90306 0.87248 0.0
H364 H 0.31359 0.87606 0.8285 0.0
H365 H 0.26352 0.82985 0.87666 0.0
H366 H 0.26741 0.85637 0.9211 0.0
H367 H 0.22249 0.98249 0.00158 0.0
H368 H 0.25819 0.96942 0.97217 0.0
H369 H 0.24144 0.89378 0.99175 0.0
H370 H 0.20595 0.90666 0.02126 0.0
H371 H 0.2562 0.90175 0.93187 0.0
H372 H 0.28155 0.92172 0.03298 0.0
H373 H 0.28601 0.94877 0.07686 0.0
H374 H 0.3271 0.00021 0.02414 0.0
H375 H 0.3225 0.97364 0.97978 0.0
C376 C 0.3663 0.85516 0.92398 0.0
C377 C 0.38745 0.86942 0.91971 0.0
C378 C 0.34362 0.86644 0.92874 0.0
C379 C 0.34165 0.89216 0.92878 0.0
C380 C 0.36257 0.90634 0.9227 0.0
C381 C 0.38527 0.89507 0.91825 0.0
C382 C 0.31859 0.90416 0.9387 0.0
C383 C 0.31989 0.92069 0.96274 0.0
C384 C 0.29537 0.89765 0.92693 0.0
C385 C 0.29289 0.88165 0.90021 0.0
C386 C 0.30581 0.88705 0.87378 0.0
C387 C 0.30356 0.87184 0.84875 0.0
C388 C 0.28835 0.85123 0.8498 0.0
C389 C 0.2753 0.84582 0.87588 0.0
C390 C 0.27749 0.86096 0.90098 0.0
C391 C 0.22629 0.96308 0.99928 0.0
C392 C 0.21162 0.94559 0.01388 0.0
C393 C 0.24664 0.95566 0.98252 0.0
C394 C 0.25246 0.93066 0.97997 0.0
C395 C 0.23719 0.91315 0.99342 0.0
C396 C 0.21704 0.92055 0.01041 0.0
C397 C 0.27543 0.92266 0.9653 0.0
C398 C 0.27406 0.90683 0.9406 0.0
C399 C 0.29865 0.92989 0.97631 0.0
C400 C 0.30135 0.94588 0.00296 0.0
C401 C 0.29129 0.93893 0.03066 0.0
C402 C 0.29389 0.95415 0.05563 0.0
C403 C 0.30674 0.97625 0.05326 0.0
C404 C 0.31708 0.98313 0.02592 0.0
C405 C 0.31447 0.96801 0.00086 0.0
H406 H 0.30875 0.98799 0.07263 0.0
H407 H 0.28664 0.83947 0.8304 0.0
H408 H 0.55601 0.25472 0.44584 0.0
H409 H 0.56474 0.21594 0.47094 0.0
H410 H 0.5348 0.24462 0.5531 0.0
H411 H 0.5253 0.28358 0.52768 0.0
H412 H 0.58479 0.22304 0.55555 0.0
H413 H 0.50354 0.20361 0.52593 0.0
H414 H 0.46769 0.19987 0.49267 0.0
H415 H 0.50775 0.15066 0.43577 0.0
H416 H 0.54406 0.15454 0.46825 0.0
H417 H 0.61966 0.10239 0.6072 0.0
H418 H 0.5955 0.14005 0.60049 0.0
H419 H 0.59783 0.12986 0.50479 0.0
H420 H 0.62127 0.0923 0.51134 0.0
H421 H 0.5532 0.14236 0.52163 0.0
H422 H 0.6363 0.17053 0.5426 0.0
H423 H 0.67354 0.17438 0.5736 0.0
H424 H 0.63113 0.207 0.64412 0.0
H425 H 0.59358 0.20307 0.61362 0.0
C426 C 0.55106 0.25272 0.46918 0.0
C427 C 0.54005 0.27212 0.48489 0.0
C428 C 0.55594 0.23053 0.48343 0.0
C429 C 0.55026 0.22744 0.51377 0.0
C430 C 0.53915 0.2467 0.5296 0.0
C431 C 0.53374 0.26884 0.5151 0.0
C432 C 0.55766 0.20448 0.52884 0.0
C433 C 0.57747 0.20536 0.54882 0.0
C434 C 0.5483 0.18152 0.51957 0.0
C435 C 0.52664 0.17954 0.4995 0.0
C436 C 0.50485 0.19224 0.50613 0.0
C437 C 0.48441 0.19005 0.48743 0.0
C438 C 0.48546 0.17508 0.46209 0.0
C439 C 0.50697 0.16229 0.45538 0.0
C440 C 0.52749 0.16448 0.47394 0.0
C441 C 0.61497 0.10826 0.58478 0.0
C442 C 0.62239 0.09447 0.55979 0.0
C443 C 0.60121 0.12974 0.58098 0.0
C444 C 0.59492 0.13781 0.55212 0.0
C445 C 0.6023 0.12393 0.52727 0.0
C446 C 0.61583 0.10251 0.53105 0.0
C447 C 0.58113 0.1609 0.54711 0.0
C448 C 0.56009 0.16002 0.52903 0.0
C449 C 0.58958 0.18385 0.55774 0.0
C450 C 0.61212 0.18621 0.57602 0.0
C451 C 0.6349 0.17834 0.56481 0.0
C452 C 0.65606 0.18057 0.58227 0.0
C453 C 0.65469 0.19085 0.61086 0.0
C454 C 0.63216 0.19899 0.62201 0.0
C455 C 0.61094 0.19677 0.60465 0.0
H456 H 0.67109 0.19256 0.62433 0.0
H457 H 0.46959 0.17335 0.4477 0.0
H458 H 0.41896 0.58768 0.57148 0.0
H459 H 0.37954 0.56693 0.56537 0.0
H460 H 0.34191 0.63579 0.57823 0.0
H461 H 0.38133 0.65648 0.58546 0.0
H462 H 0.31561 0.59919 0.60141 0.0
H463 H 0.35679 0.61491 0.50782 0.0
H464 H 0.39132 0.61284 0.47225 0.0
H465 H 0.3877 0.53415 0.47305 0.0
H466 H 0.35331 0.53576 0.50894 0.0
H467 H 0.21279 0.58906 0.50412 0.0
H468 H 0.25069 0.59923 0.53066 0.0
H469 H 0.27342 0.52354 0.52596 0.0
H470 H 0.23522 0.51312 0.4998 0.0
H471 H 0.30765 0.55808 0.50282 0.0
H472 H 0.26089 0.54415 0.59128 0.0
H473 H 0.2255 0.54823 0.62522 0.0
H474 H 0.23828 0.62575 0.63206 0.0
H475 H 0.27356 0.62221 0.59777 0.0
C476 C 0.40225 0.59828 0.57365 0.0
C477 C 0.40314 0.62372 0.57857 0.0
C478 C 0.37975 0.58643 0.57006 0.0
C479 C 0.35782 0.59992 0.57061 0.0
C480 C 0.35861 0.62504 0.57758 0.0
C481 C 0.38113 0.63685 0.58165 0.0
C482 C 0.33441 0.58847 0.5611 0.0
C483 C 0.31382 0.59028 0.57983 0.0
C484 C 0.33219 0.57646 0.53312 0.0
C485 C 0.35268 0.57545 0.5113 0.0
C486 C 0.36347 0.59716 0.50054 0.0
C487 C 0.38299 0.59608 0.48031 0.0
C488 C 0.39175 0.57338 0.47046 0.0
C489 C 0.38093 0.55172 0.48074 0.0
C490 C 0.36141 0.5527 0.50101 0.0
C491 C 0.22569 0.57452 0.50917 0.0
C492 C 0.22117 0.55033 0.49986 0.0
C493 C 0.24724 0.58033 0.52444 0.0
C494 C 0.26473 0.56209 0.53036 0.0
C495 C 0.26003 0.5378 0.5217 0.0
C496 C 0.23825 0.5319 0.50684 0.0
C497 C 0.28882 0.56903 0.54299 0.0
C498 C 0.30953 0.56653 0.52469 0.0
C499 C 0.291 0.58068 0.57112 0.0
C500 C 0.26978 0.58293 0.59174 0.0
C501 C 0.25604 0.56211 0.5998 0.0
C502 C 0.23601 0.56432 0.61915 0.0
C503 C 0.22961 0.58724 0.63074 0.0
C504 C 0.24326 0.60801 0.62305 0.0
C505 C 0.26329 0.6059 0.60368 0.0
H506 H 0.21411 0.58891 0.64574 0.0
H507 H 0.40687 0.57257 0.45481 0.0
H508 H 0.89945 0.41054 0.58207 0.0
H509 H 0.92252 0.37203 0.57723 0.0
H510 H 0.86435 0.34193 0.52306 0.0
H511 H 0.84163 0.38035 0.52719 0.0
H512 H 0.88177 0.30926 0.56585 0.0
H513 H 0.91369 0.36485 0.48953 0.0
H514 H 0.93466 0.40147 0.46957 0.0
H515 H 0.99787 0.38558 0.52346 0.0
H516 H 0.9772 0.3489 0.54384 0.0
H517 H 0.91832 0.22263 0.46248 0.0
H518 H 0.90513 0.25892 0.48973 0.0
H519 H 0.97661 0.26482 0.53052 0.0
H520 H 0.99012 0.22812 0.50299 0.0
H521 H 0.95946 0.30897 0.508 0.0
H522 H 0.93055 0.24755 0.57371 0.0
H523 H 0.91059 0.20883 0.58845 0.0
H524 H 0.84191 0.23481 0.55376 0.0
H525 H 0.86151 0.27356 0.53838 0.0
C526 C 0.89161 0.39563 0.56925 0.0
C527 C 0.86896 0.39852 0.55464 0.0
C528 C 0.90477 0.37371 0.56652 0.0
C529 C 0.8952 0.35427 0.54958 0.0
C530 C 0.87205 0.35675 0.53621 0.0
C531 C 0.85909 0.37871 0.53858 0.0
C532 C 0.90935 0.33149 0.5446 0.0
C533 C 0.89882 0.30914 0.55332 0.0
C534 C 0.93205 0.33147 0.52924 0.0
C535 C 0.94381 0.35432 0.51845 0.0
C536 C 0.93194 0.36935 0.4974 0.0
C537 C 0.94384 0.38999 0.48584 0.0
C538 C 0.96766 0.39572 0.49507 0.0
C539 C 0.97949 0.38102 0.5162 0.0
C540 C 0.96769 0.36032 0.52776 0.0
C541 C 0.93128 0.23155 0.47729 0.0
C542 C 0.95526 0.22254 0.48064 0.0
C543 C 0.92364 0.2522 0.49303 0.0
C544 C 0.93976 0.26429 0.51253 0.0
C545 C 0.96385 0.25557 0.51576 0.0
C546 C 0.97152 0.23468 0.50006 0.0
C547 C 0.93132 0.28671 0.52811 0.0
C548 C 0.9429 0.30902 0.52146 0.0
C549 C 0.90957 0.2867 0.5454 0.0
C550 C 0.89756 0.26348 0.5548 0.0
C551 C 0.91122 0.24497 0.56906 0.0
C552 C 0.89996 0.22301 0.57755 0.0
C553 C 0.875 0.21935 0.57203 0.0
C554 C 0.86124 0.23767 0.55805 0.0
C555 C 0.87241 0.25967 0.54949 0.0
H556 H 0.86632 0.20233 0.57861 0.0
H557 H 0.9769 0.41163 0.48597 0.0
H558 H 0.09271 0.89266 0.57987 0.0
H559 H 0.13132 0.91408 0.5696 0.0
H560 H 0.15017 0.85884 0.50432 0.0
H561 H 0.11219 0.83701 0.51523 0.0
H562 H 0.18917 0.87104 0.53406 0.0
H563 H 0.12309 0.91575 0.48598 0.0
H564 H 0.08393 0.93849 0.48561 0.0
H565 H 0.11451 0.99265 0.5445 0.0
H566 H 0.15375 0.97005 0.5456 0.0
H567 H 0.26448 0.92622 0.42853 0.0
H568 H 0.22715 0.91161 0.45266 0.0
H569 H 0.23641 0.96491 0.52303 0.0
H570 H 0.27424 0.97967 0.499 0.0
H571 H 0.18522 0.95738 0.49911 0.0
H572 H 0.25354 0.91347 0.54124 0.0
H573 H 0.29235 0.89037 0.53829 0.0
H574 H 0.2568 0.83427 0.48663 0.0
H575 H 0.21785 0.85724 0.48887 0.0
C576 C 0.10531 0.88493 0.56368 0.0
C577 C 0.09941 0.86325 0.54823 0.0
C578 C 0.12726 0.89726 0.55768 0.0
C579 C 0.14343 0.88833 0.53576 0.0
C580 C 0.13798 0.86613 0.52127 0.0
C581 C 0.11623 0.85367 0.52751 0.0
C582 C 0.16566 0.90229 0.5269 0.0
C583 C 0.18823 0.8899 0.5264 0.0
C584 C 0.16461 0.92713 0.5175 0.0
C585 C 0.14122 0.94101 0.51625 0.0
C586 C 0.12141 0.93243 0.499 0.0
C587 C 0.09921 0.94529 0.49865 0.0
C588 C 0.0967 0.96686 0.51524 0.0
C589 C 0.11646 0.97584 0.53184 0.0
C590 C 0.13868 0.96302 0.53233 0.0
C591 C 0.2585 0.93507 0.44897 0.0
C592 C 0.27243 0.95391 0.46209 0.0
C593 C 0.23716 0.9267 0.46269 0.0
C594 C 0.22926 0.93703 0.48973 0.0
C595 C 0.24232 0.95672 0.50217 0.0
C596 C 0.26389 0.96506 0.48848 0.0
C597 C 0.20831 0.92583 0.50563 0.0
C598 C 0.1861 0.9387 0.50739 0.0
C599 C 0.20955 0.90133 0.51587 0.0
C600 C 0.23281 0.88717 0.51508 0.0
C601 C 0.25403 0.89628 0.5291 0.0
C602 C 0.27606 0.8832 0.52757 0.0
C603 C 0.27706 0.86088 0.51224 0.0
C604 C 0.256 0.85156 0.4985 0.0
C605 C 0.23393 0.86459 0.49993 0.0
H606 H 0.29413 0.8508 0.51103 0.0
H607 H 0.07944 0.97662 0.51526 0.0
H608 H 0.41161 0.79322 0.00923 0.0
H609 H 0.4031 0.75545 0.03694 0.0
H610 H 0.4739 0.72687 0.01166 0.0
H611 H 0.48274 0.7648 0.98429 0.0
H612 H 0.43229 0.69789 0.99468 0.0
H613 H 0.46577 0.73757 0.08135 0.0
H614 H 0.46997 0.77086 0.11832 0.0
H615 H 0.39469 0.76157 0.14423 0.0
H616 H 0.38992 0.72845 0.10709 0.0
H617 H 0.41467 0.58359 0.05967 0.0
H618 H 0.43348 0.62345 0.05006 0.0
H619 H 0.3709 0.65953 0.08964 0.0
H620 H 0.3525 0.61944 0.10061 0.0
H621 H 0.41114 0.68493 0.10147 0.0
H622 H 0.37482 0.65063 0.01344 0.0
H623 H 0.36708 0.61901 0.97513 0.0
H624 H 0.44306 0.62048 0.94979 0.0
H625 H 0.45131 0.65193 0.98823 0.0
C626 C 0.42558 0.7791 0.01015 0.0
C627 C 0.44777 0.78182 0.99449 0.0
C628 C 0.42074 0.75762 0.02608 0.0
C629 C 0.4379 0.73846 0.02632 0.0
C630 C 0.4605 0.74155 0.01178 0.0
C631 C 0.46552 0.7632 0.99623 0.0
C632 C 0.43095 0.71424 0.03847 0.0
C633 C 0.42819 0.69487 0.01815 0.0
C634 C 0.42462 0.71076 0.06883 0.0
C635 C 0.42744 0.73065 0.09123 0.0
C636 C 0.45004 0.74277 0.09473 0.0
C637 C 0.45254 0.76158 0.11577 0.0
C638 C 0.43259 0.76836 0.13357 0.0
C639 C 0.41012 0.75631 0.13041 0.0
C640 C 0.40752 0.73749 0.10939 0.0
C641 C 0.40513 0.60003 0.06678 0.0
C642 C 0.38203 0.59855 0.08052 0.0
C643 C 0.41585 0.62278 0.06121 0.0
C644 C 0.4033 0.64448 0.0684 0.0
C645 C 0.38085 0.64302 0.08375 0.0
C646 C 0.37033 0.62016 0.08994 0.0
C647 C 0.41265 0.66847 0.05767 0.0
C648 C 0.41561 0.68783 0.0781 0.0
C649 C 0.41864 0.67223 0.02718 0.0
C650 C 0.41373 0.65344 0.00391 0.0
C651 C 0.38991 0.64409 -0.00018 0.0
C652 C 0.38542 0.62622 0.97807 0.0
C653 C 0.40458 0.61769 0.9601 0.0
C654 C 0.42825 0.62708 0.96377 0.0
C655 C 0.43284 0.64494 0.98551 0.0
H656 H 0.40108 0.60384 0.94327 0.0
H657 H 0.43456 0.78293 0.14985 0.0
H658 H 0.73115 0.486 0.98574 0.0
H659 H 0.77044 0.47843 0.01113 0.0
H660 H 0.76343 0.40105 0.99263 0.0
H661 H 0.72448 0.40841 0.96758 0.0
H662 H 0.7792 0.40883 0.04904 0.0
H663 H 0.79749 0.43797 0.94866 0.0
H664 H 0.79724 0.46803 0.90746 0.0
H665 H 0.83448 0.52032 0.96316 0.0
H666 H 0.83456 0.49068 0.00488 0.0
H667 H 0.91077 0.37723 0.00767 0.0
H668 H 0.87221 0.3982 0.99763 0.0
H669 H 0.86333 0.41287 0.09187 0.0
H670 H 0.90198 0.39134 0.10218 0.0
H671 H 0.85548 0.44358 0.00585 0.0
H672 H 0.80122 0.40936 0.10697 0.0
H673 H 0.80186 0.37587 0.14412 0.0
H674 H 0.83699 0.32849 0.08042 0.0
H675 H 0.83629 0.36161 0.04283 0.0
C676 C 0.73797 0.46739 0.98733 0.0
C677 C 0.72485 0.44781 0.97456 0.0
C678 C 0.76038 0.4631 0.00179 0.0
C679 C 0.76984 0.43918 0.0037 0.0
C680 C 0.7564 0.41963 0.99157 0.0
C681 C 0.7342 0.42389 0.97708 0.0
C682 C 0.79425 0.43414 0.01691 0.0
C683 C 0.79588 0.41673 0.03994 0.0
C684 C 0.816 0.44438 0.00498 0.0
C685 C 0.81567 0.46227 0.98002 0.0
C686 C 0.80536 0.45598 0.95223 0.0
C687 C 0.8053 0.47292 0.92876 0.0
C688 C 0.81573 0.49611 0.93273 0.0
C689 C 0.82631 0.50239 0.96015 0.0
C690 C 0.82635 0.48554 0.98372 0.0
C691 C 0.9007 0.38499 0.02629 0.0
C692 C 0.90926 0.38245 0.05575 0.0
C693 C 0.87873 0.39715 0.02049 0.0
C694 C 0.86482 0.40701 0.04399 0.0
C695 C 0.87367 0.40519 0.07342 0.0
C696 C 0.89572 0.3929 0.07928 0.0
C697 C 0.84043 0.41773 0.03734 0.0
C698 C 0.8388 0.43627 0.01564 0.0
C699 C 0.81866 0.40816 0.05004 0.0
C700 C 0.81899 0.38804 0.07229 0.0
C701 C 0.80904 0.39177 0.10092 0.0
C702 C 0.80941 0.37286 0.12203 0.0
C703 C 0.81955 0.3501 0.11467 0.0
C704 C 0.82924 0.34616 0.08613 0.0
C705 C 0.82888 0.365 0.06493 0.0
H706 H 0.81984 0.3355 0.13106 0.0
H707 H 0.8157 0.50919 0.91452 0.0
H708 H 0.02103 0.71772 0.00686 0.0
H709 H 0.03114 0.75429 0.03657 0.0
H710 H 0.08113 0.77803 0.96753 0.0
H711 H 0.07149 0.74164 0.93824 0.0
H712 H 0.1026 0.77992 0.02052 0.0
H713 H 0.02488 0.80485 0.97764 0.0
H714 H 0.98048 0.80139 0.96793 0.0
H715 H 0.96593 0.80481 0.06223 0.0
H716 H 0.01031 0.80797 0.0725 0.0
H717 H 0.09049 0.91648 0.0343 0.0
H718 H 0.07076 0.87717 0.02507 0.0
H719 H 0.1119 0.84482 0.09746 0.0
H720 H 0.13228 0.88431 0.10645 0.0
H721 H 0.04338 0.84373 0.05288 0.0
H722 H 0.13095 0.78835 0.07353 0.0
H723 H 0.17576 0.79439 0.07697 0.0
H724 H 0.17101 0.85558 0.01677 0.0
H725 H 0.12626 0.84966 0.0127 0.0
C726 C 0.03395 0.73094 0.99796 0.0
C727 C 0.04556 0.72683 0.97033 0.0
C728 C 0.03972 0.75176 0.01493 0.0
C729 C 0.05701 0.76878 0.00432 0.0
C730 C 0.06795 0.76499 0.9763 0.0
C731 C 0.06233 0.74424 0.95951 0.0
C732 C 0.06448 0.79035 0.0223 0.0
C733 C 0.08959 0.79371 0.02794 0.0
C734 C 0.04754 0.80833 0.03201 0.0
C735 C 0.02091 0.8063 0.02585 0.0
C736 C 0.01222 0.80462 0.99631 0.0
C737 C 0.98706 0.80277 0.99071 0.0
C738 C 0.97039 0.80279 0.01446 0.0
C739 C 0.97886 0.80473 0.04386 0.0
C740 C 0.00401 0.80656 0.04959 0.0
C741 C 0.0951 0.90111 0.0486 0.0
C742 C 0.11325 0.90331 0.07074 0.0
C743 C 0.08362 0.87869 0.04345 0.0
C744 C 0.09007 0.858 0.06031 0.0
C745 C 0.10687 0.86054 0.08397 0.0
C746 C 0.11848 0.88306 0.08908 0.0
C747 C 0.08152 0.83354 0.05027 0.0
C748 C 0.05627 0.82957 0.04625 0.0
C749 C 0.09836 0.81523 0.04124 0.0
C750 C 0.12527 0.81875 0.04317 0.0
C751 C 0.13951 0.80304 0.06101 0.0
C752 C 0.16488 0.80644 0.06305 0.0
C753 C 0.17621 0.82542 0.04719 0.0
C754 C 0.16221 0.84095 0.02913 0.0
C755 C 0.13685 0.83758 0.02695 0.0
H756 H 0.19585 0.82804 0.04885 0.0
H757 H 0.95092 0.80137 0.01007 0.0
H758 H 0.61986 0.16784 0.06251 0.0
H759 H 0.65853 0.14904 0.04722 0.0
H760 H 0.63545 0.0801 0.08521 0.0
H761 H 0.59659 0.09883 0.10072 0.0
H762 H 0.68777 0.09046 0.09045 0.0
H763 H 0.62253 0.08945 0.01908 0.0
H764 H 0.58979 0.1068 0.98764 0.0
H765 H 0.64269 0.15128 0.94156 0.0
H766 H 0.67576 0.13434 0.97301 0.0
H767 H 0.77116 0.02182 0.99822 0.0
H768 H 0.73433 0.03556 0.02502 0.0
H769 H 0.73809 0.10522 0.97933 0.0
H770 H 0.77406 0.09133 0.95192 0.0
H771 H 0.69332 0.09012 0.97966 0.0
H772 H 0.75743 0.09618 0.05417 0.0
H773 H 0.79083 0.08029 0.08593 0.0
H774 H 0.74119 0.02867 0.12594 0.0
H775 H 0.70756 0.04407 0.09412 0.0
C776 C 0.62325 0.14885 0.06833 0.0
C777 C 0.60509 0.13468 0.0824 0.0
C778 C 0.64536 0.13817 0.05962 0.0
C779 C 0.64959 0.11313 0.06471 0.0
C780 C 0.63245 0.09945 0.0811 0.0
C781 C 0.61025 0.11016 0.08984 0.0
C782 C 0.67011 0.10074 0.04929 0.0
C783 C 0.68894 0.09009 0.06623 0.0
C784 C 0.67154 0.1005 0.01769 0.0
C785 C 0.65165 0.11063 0.99854 0.0
C786 C 0.6272 0.10297 0.00233 0.0
C787 C 0.60856 0.11275 0.9845 0.0
C788 C 0.61415 0.13016 0.96262 0.0
C789 C 0.63839 0.13778 0.95851 0.0
C790 C 0.6571 0.12806 0.97632 0.0
C791 C 0.764 0.04001 0.99388 0.0
C792 C 0.77542 0.05549 0.97298 0.0
C793 C 0.74308 0.0479 0.00932 0.0
C794 C 0.73359 0.07155 0.00445 0.0
C795 C 0.745 0.08688 0.98343 0.0
C796 C 0.7656 0.07892 0.96778 0.0
C797 C 0.71163 0.08057 0.02074 0.0
C798 C 0.69227 0.09041 0.00389 0.0
C799 C 0.70989 0.08027 0.05236 0.0
C800 C 0.73007 0.07108 0.07154 0.0
C801 C 0.75369 0.08132 0.06958 0.0
C802 C 0.77266 0.07242 0.08762 0.0
C803 C 0.76816 0.05343 0.10787 0.0
C804 C 0.74466 0.04335 0.1102 0.0
C805 C 0.72564 0.05216 0.09219 0.0
H806 H 0.78286 0.04657 0.12182 0.0
H807 H 0.5997 0.13773 0.94883 0.0
H808 H 0.48317 0.72397 0.48924 0.0
H809 H 0.47034 0.76051 0.46114 0.0
H810 H 0.39921 0.75723 0.5034 0.0
H811 H 0.41161 0.72074 0.5307 0.0
H812 H 0.39369 0.76746 0.447 0.0
H813 H 0.44564 0.79617 0.52728 0.0
H814 H 0.4837 0.80001 0.55671 0.0
H815 H 0.52178 0.82685 0.47927 0.0
H816 H 0.48399 0.8228 0.44925 0.0
H817 H 0.34732 0.88641 0.46474 0.0
H818 H 0.36665 0.84634 0.47078 0.0
H819 H 0.41916 0.8643 0.40202 0.0
H820 H 0.39949 0.9046 0.39544 0.0
H821 H 0.43893 0.84579 0.45932 0.0
H822 H 0.38101 0.82397 0.38316 0.0
H823 H 0.34015 0.8233 0.35952 0.0
H824 H 0.31054 0.78586 0.43589 0.0
H825 H 0.35114 0.78659 0.46018 0.0
C826 C 0.46475 0.73098 0.49225 0.0
C827 C 0.44841 0.71956 0.51219 0.0
C828 C 0.45748 0.75188 0.47631 0.0
C829 C 0.43386 0.76172 0.48033 0.0
C830 C 0.41747 0.74994 0.49979 0.0
C831 C 0.42463 0.7291 0.5155 0.0
C832 C 0.42603 0.78465 0.46522 0.0
C833 C 0.40366 0.78456 0.44963 0.0
C834 C 0.43926 0.80691 0.46806 0.0
C835 C 0.46211 0.80879 0.4859 0.0
C836 C 0.46221 0.80259 0.51643 0.0
C837 C 0.48371 0.80487 0.53324 0.0
C838 C 0.50518 0.81357 0.51984 0.0
C839 C 0.50517 0.82003 0.4896 0.0
C840 C 0.48372 0.81772 0.47267 0.0
C841 C 0.36284 0.88177 0.45069 0.0
C842 C 0.37194 0.89855 0.42962 0.0
C843 C 0.37381 0.85887 0.45411 0.0
C844 C 0.39421 0.8524 0.43673 0.0
C845 C 0.40334 0.86902 0.41551 0.0
C846 C 0.39208 0.8919 0.41172 0.0
C847 C 0.40634 0.82857 0.4421 0.0
C848 C 0.42943 0.82852 0.45588 0.0
C849 C 0.39353 0.80627 0.43828 0.0
C850 C 0.36914 0.80541 0.42352 0.0
C851 C 0.36576 0.8157 0.39498 0.0
C852 C 0.34264 0.8153 0.38146 0.0
C853 C 0.32276 0.80456 0.3962 0.0
C854 C 0.32596 0.79414 0.42448 0.0
C855 C 0.34904 0.79451 0.43811 0.0
H856 H 0.30487 0.80428 0.3857 0.0
H857 H 0.52179 0.81539 0.53291 0.0
H858 H 0.75531 0.495 0.52104 0.0
H859 H 0.71499 0.48277 0.50232 0.0
H860 H 0.74922 0.43233 0.44087 0.0
H861 H 0.78964 0.44426 0.45967 0.0
H862 H 0.70158 0.45587 0.42087 0.0
H863 H 0.73994 0.40958 0.50255 0.0
H864 H 0.76076 0.40835 0.55151 0.0
H865 H 0.69868 0.44326 0.59257 0.0
H866 H 0.67771 0.44514 0.54366 0.0
H867 H 0.6125 0.36102 0.40771 0.0
H868 H 0.65004 0.38538 0.41309 0.0
H869 H 0.62106 0.41802 0.49369 0.0
H870 H 0.58415 0.39308 0.48904 0.0
H871 H 0.66554 0.40636 0.50306 0.0
H872 H 0.62455 0.44959 0.42499 0.0
H873 H 0.60333 0.45507 0.37676 0.0
H874 H 0.66754 0.43031 0.33 0.0
H875 H 0.68905 0.42437 0.378 0.0
C876 C 0.75432 0.48203 0.50273 0.0
C877 C 0.77553 0.47022 0.49217 0.0
C878 C 0.73128 0.47509 0.49205 0.0
C879 C 0.72924 0.45645 0.47055 0.0
C880 C 0.7505 0.44676 0.45747 0.0
C881 C 0.77355 0.45351 0.46834 0.0
C882 C 0.70562 0.44368 0.46632 0.0
C883 C 0.69365 0.44491 0.43865 0.0
C884 C 0.69523 0.42982 0.48985 0.0
C885 C 0.70738 0.42771 0.51944 0.0
C886 C 0.7308 0.4171 0.522 0.0
C887 C 0.74262 0.4163 0.54972 0.0
C888 C 0.73108 0.42578 0.57513 0.0
C889 C 0.70762 0.43596 0.57287 0.0
C890 C 0.69575 0.4369 0.54515 0.0
C891 C 0.61424 0.37338 0.42656 0.0
C892 C 0.59551 0.37508 0.44803 0.0
C893 C 0.63557 0.38745 0.42949 0.0
C894 C 0.63827 0.40382 0.4536 0.0
C895 C 0.61946 0.40553 0.47494 0.0
C896 C 0.59837 0.39124 0.47226 0.0
C897 C 0.66103 0.41846 0.45742 0.0
C898 C 0.6731 0.41744 0.48514 0.0
C899 C 0.6712 0.43279 0.43403 0.0
C900 C 0.65833 0.43631 0.40511 0.0
C901 C 0.63408 0.44512 0.40443 0.0
C902 C 0.62201 0.44835 0.37714 0.0
C903 C 0.63406 0.44297 0.35034 0.0
C904 C 0.65822 0.43443 0.35078 0.0
C905 C 0.67037 0.43115 0.37802 0.0
H906 H 0.62468 0.44548 0.32922 0.0
H907 H 0.74028 0.4252 0.59656 0.0
H908 H 0.09924 0.58914 0.48344 0.0
H909 H 0.0737 0.62593 0.48333 0.0
H910 H 0.10685 0.64906 0.40042 0.0
H911 H 0.13235 0.61194 0.40013 0.0
H912 H 0.10781 0.68449 0.44634 0.0
H913 H 0.04609 0.63608 0.39541 0.0
H914 H 0.02017 0.59963 0.38695 0.0
H915 H 0.99202 0.60516 0.47639 0.0
H916 H 0.01724 0.64214 0.48504 0.0
H917 H 0.04019 0.79197 0.45508 0.0
H918 H 0.05217 0.75333 0.43142 0.0
H919 H 0.01933 0.71313 0.50427 0.0
H920 H 0.00649 0.75162 0.52738 0.0
H921 H 0.01699 0.68663 0.45434 0.0
H922 H 0.07907 0.73219 0.50748 0.0
H923 H 0.1042 0.76873 0.51849 0.0
H924 H 0.13396 0.76673 0.42959 0.0
H925 H 0.10866 0.73039 0.41791 0.0
C926 C 0.10098 0.60195 0.46504 0.0
C927 C 0.11785 0.59774 0.44184 0.0
C928 C 0.0862 0.62283 0.46487 0.0
C929 C 0.0882 0.64003 0.44168 0.0
C930 C 0.10492 0.63585 0.41836 0.0
C931 C 0.1195 0.61473 0.41829 0.0
C932 C 0.0745 0.66339 0.44363 0.0
C933 C 0.08792 0.68511 0.44726 0.0
C934 C 0.04864 0.66399 0.44581 0.0
C935 C 0.03361 0.64173 0.44089 0.0
C936 C 0.0344 0.62947 0.41327 0.0
C937 C 0.01975 0.60881 0.4084 0.0
C938 C 0.00458 0.59997 0.43119 0.0
C939 C 0.00379 0.612 0.45877 0.0
C940 C 0.01809 0.63294 0.46358 0.0
C941 C 0.03479 0.77486 0.46549 0.0
C942 C 0.0228 0.77475 0.49329 0.0
C943 C 0.04173 0.75281 0.45202 0.0
C944 C 0.03731 0.73041 0.46657 0.0
C945 C 0.0231 0.73021 0.49276 0.0
C946 C 0.01579 0.75224 0.50598 0.0
C947 C 0.05031 0.7078 0.45715 0.0
C948 C 0.03683 0.68619 0.45253 0.0
C949 C 0.07624 0.70719 0.45458 0.0
C950 C 0.09177 0.72878 0.4617 0.0
C951 C 0.09087 0.73964 0.49023 0.0
C952 C 0.10514 0.7603 0.49659 0.0
C953 C 0.12061 0.77009 0.47472 0.0
C954 C 0.12192 0.75916 0.44648 0.0
C955 C 0.10761 0.73854 0.43997 0.0
H956 H 0.13163 0.7861 0.47969 0.0
H957 H 0.99343 0.58383 0.42745 0.0
H958 H 0.73165 0.0106 0.50251 0.0
H959 H 0.77072 0.0217 0.47865 0.0
H960 H 0.76458 0.09492 0.51454 0.0
H961 H 0.7258 0.08405 0.53823 0.0
H962 H 0.77925 0.09556 0.45666 0.0
H963 H 0.79902 0.05266 0.54826 0.0
H964 H 0.79961 0.01762 0.58311 0.0
H965 H 0.83602 0.9735 0.51706 0.0
H966 H 0.83518 0.00816 0.48157 0.0
H967 H 0.91377 0.11784 0.49428 0.0
H968 H 0.87495 0.09699 0.5032 0.0
H969 H 0.86099 0.09504 0.40822 0.0
H970 H 0.8999 0.11649 0.39912 0.0
H971 H 0.856 0.05394 0.48791 0.0
H972 H 0.79868 0.10274 0.39857 0.0
H973 H 0.79902 0.14081 0.36868 0.0
H974 H 0.83875 0.17773 0.43836 0.0
H975 H 0.83838 0.13997 0.46875 0.0
C976 C 0.73861 0.02909 0.5051 0.0
C977 C 0.72577 0.04645 0.52231 0.0
C978 C 0.7609 0.03538 0.49152 0.0
C979 C 0.77053 0.05911 0.49492 0.0
C980 C 0.7574 0.07654 0.51153 0.0
C981 C 0.73531 0.07026 0.52519 0.0
C982 C 0.79472 0.06591 0.48232 0.0
C983 C 0.79602 0.08624 0.46314 0.0
C984 C 0.81658 0.05383 0.49094 0.0
C985 C 0.81665 0.03287 0.51208 0.0
C986 C 0.80684 0.03538 0.54101 0.0
C987 C 0.80727 0.01561 0.56091 0.0
C988 C 0.81773 0.99331 0.55225 0.0
C989 C 0.82782 0.99075 0.52369 0.0
C990 C 0.82734 0.01044 0.50366 0.0
C991 C 0.90253 0.11288 0.47523 0.0
C992 C 0.90974 0.11899 0.44601 0.0
C993 C 0.88041 0.10081 0.48036 0.0
C994 C 0.86501 0.09458 0.45641 0.0
C995 C 0.87251 0.09991 0.42705 0.0
C996 C 0.8947 0.11213 0.42189 0.0
C997 C 0.84056 0.08391 0.46279 0.0
C998 C 0.83919 0.06281 0.48072 0.0
C999 C 0.81865 0.09559 0.45359 0.0
C1000 C 0.81877 0.11847 0.43571 0.0
C1001 C 0.80744 0.11901 0.4075 0.0
C1002 C 0.80764 0.14053 0.39048 0.0
C1003 C 0.81898 0.16165 0.40156 0.0
C1004 C 0.83006 0.16133 0.42974 0.0
C1005 C 0.82988 0.13988 0.44686 0.0
H1006 H 0.81913 0.17828 0.38834 0.0
H1007 H 0.81811 0.97805 0.56772 0.0
H1008 H 0.47868 0.8927 0.01245 0.0
H1009 H 0.48496 0.93547 0.0268 0.0
H1010 H 0.51527 0.95087 0.93968 0.0
H1011 H 0.50932 0.90797 0.92525 0.0
H1012 H 0.53854 0.97642 0.98319 0.0
H1013 H 0.4563 0.96199 0.95201 0.0
H1014 H 0.4161 0.94126 0.95112 0.0
H1015 H 0.40428 0.96063 0.04308 0.0
H1016 H 0.44462 0.98115 0.04468 0.0
H1017 H 0.52235 0.10492 0.99664 0.0
H1018 H 0.51774 0.06325 0.97711 0.0
H1019 H 0.48489 0.04061 0.06048 0.0
H1020 H 0.48888 0.08232 0.07981 0.0
H1021 H 0.46247 0.01933 0.01459 0.0
H1022 H 0.54747 0.03307 0.04413 0.0
H1023 H 0.58866 0.05187 0.04248 0.0
H1024 H 0.59485 0.03382 0.94932 0.0
H1025 H 0.55359 0.0153 0.95026 0.0
C1026 C 0.48729 0.90504 0.99662 0.0
C1027 C 0.49326 0.89711 0.96762 0.0
C1028 C 0.49067 0.92949 0.00476 0.0
C1029 C 0.49992 0.9464 0.98398 0.0
C1030 C 0.50786 0.9381 0.9559 0.0
C1031 C 0.50454 0.91359 0.94775 0.0
C1032 C 0.49976 0.97293 0.99091 0.0
C1033 C 0.52188 0.98593 0.9897 0.0
C1034 C 0.47795 0.9852 0.99939 0.0
C1035 C 0.45362 0.97291 0.99854 0.0
C1036 C 0.44523 0.96165 0.97213 0.0
C1037 C 0.4224 0.94996 0.97148 0.0
C1038 C 0.40767 0.94957 0.99704 0.0
C1039 C 0.41573 0.96091 0.0233 0.0
C1040 C 0.43858 0.97259 0.02409 0.0
C1041 C 0.5137 0.09116 0.01056 0.0
C1042 C 0.5061 0.0968 0.03982 0.0
C1043 C 0.51128 0.06732 0.99948 0.0
C1044 C 0.50152 0.04871 0.01762 0.0
C1045 C 0.49263 0.05466 0.04617 0.0
C1046 C 0.49487 0.07852 0.05718 0.0
C1047 C 0.50141 0.02282 0.00754 0.0
C1048 C 0.47914 0.0099 0.00801 0.0
C1049 C 0.52305 0.01072 0.99795 0.0
C1050 C 0.54736 0.02297 0.99722 0.0
C1051 C 0.55749 0.0334 0.02321 0.0
C1052 C 0.58088 0.04394 0.02241 0.0
C1053 C 0.59436 0.04394 0.99582 0.0
C1054 C 0.58439 0.03375 0.96989 0.0
C1055 C 0.56101 0.02326 0.97054 0.0
H1056 H 0.61264 0.05161 0.99529 0.0
H1057 H 0.38999 0.94054 0.99648 0.0
H1058 H 0.39286 0.4943 0.00284 0.0
H1059 H 0.43402 0.49053 0.9815 0.0
H1060 H 0.46488 0.48808 0.07026 0.0
H1061 H 0.42385 0.49172 0.09175 0.0
H1062 H 0.48393 0.52541 0.03548 0.0
H1063 H 0.46922 0.43894 0.02743 0.0
H1064 H 0.44679 0.40152 0.01284 0.0
H1065 H 0.45216 0.42204 0.92037 0.0
H1066 H 0.4744 0.45974 0.93443 0.0
H1067 H 0.60845 0.49865 0.99959 0.0
H1068 H 0.56661 0.50282 0.0184 0.0
H1069 H 0.53881 0.49957 0.92814 0.0
H1070 H 0.58061 0.49502 0.9092 0.0
H1071 H 0.51755 0.46577 0.96246 0.0
H1072 H 0.53322 0.55171 0.97014 0.0
H1073 H 0.5557 0.58914 0.98455 0.0
H1074 H 0.54823 0.57015 0.07729 0.0
H1075 H 0.526 0.53241 0.06343 0.0
C1076 C 0.40833 0.49214 0.0178 0.0
C1077 C 0.40516 0.49351 0.04896 0.0
C1078 C 0.43184 0.49006 0.00558 0.0
C1079 C 0.45246 0.4893 0.02435 0.0
C1080 C 0.44917 0.48883 0.05544 0.0
C1081 C 0.4257 0.49074 0.06766 0.0
C1082 C 0.47744 0.49165 0.01169 0.0
C1083 C 0.49148 0.51219 0.01984 0.0
C1084 C 0.4868 0.47485 0.99053 0.0
C1085 C 0.47324 0.45231 0.98202 0.0
C1086 C 0.4654 0.4356 0.004 0.0
C1087 C 0.45278 0.4143 0.99582 0.0
C1088 C 0.44799 0.40944 0.9657 0.0
C1089 C 0.45586 0.42585 0.94369 0.0
C1090 C 0.46849 0.44717 0.95176 0.0
C1091 C 0.5935 0.49961 0.98368 0.0
C1092 C 0.59778 0.49632 0.95295 0.0
C1093 C 0.56956 0.50197 0.99446 0.0
C1094 C 0.54957 0.50134 0.97467 0.0
C1095 C 0.55397 0.49992 0.9438 0.0
C1096 C 0.57788 0.4975 0.93301 0.0
C1097 C 0.52419 0.49951 0.98634 0.0
C1098 C 0.51002 0.47907 0.97801 0.0
C1099 C 0.51467 0.51645 0.00729 0.0
C1100 C 0.52814 0.53909 0.01572 0.0
C1101 C 0.53656 0.55539 0.9936 0.0
C1102 C 0.54922 0.5767 0.00167 0.0
C1103 C 0.55344 0.58199 0.03181 0.0
C1104 C 0.54497 0.56601 0.05395 0.0
C1105 C 0.53232 0.54467 0.046 0.0
H1106 H 0.56324 0.5985 0.03801 0.0
H1107 H 0.43823 0.39293 0.95941 0.0
H1108 H 0.99787 0.58225 0.91348 0.0
H1109 H 0.99581 0.53997 0.93146 0.0
H1110 H 0.00887 0.56502 0.02159 0.0
H1111 H 0.01093 0.60736 0.0038 0.0
H1112 H 0.04298 0.5313 0.00208 0.0
H1113 H 0.9554 0.53951 0.00462 0.0
H1114 H 0.91412 0.54872 0.98511 0.0
H1115 H 0.92293 0.49365 0.91728 0.0
H1116 H 0.96443 0.48433 0.93613 0.0
H1117 H 0.01952 0.41969 0.08186 0.0
H1118 H 0.02419 0.46096 0.06125 0.0
H1119 H 0.01373 0.43235 0.97222 0.0
H1120 H 0.00935 0.39098 0.99261 0.0
H1121 H 0.9792 0.46736 0.98894 0.0
H1122 H 0.06565 0.45753 0.98779 0.0
H1123 H 0.10735 0.4487 0.00606 0.0
H1124 H 0.10125 0.50696 0.07026 0.0
H1125 H 0.0593 0.51587 0.05279 0.0
C1126 C -0.00049 0.57883 0.93726 0.0
C1127 C 0.0048 0.59804 0.95722 0.0
C1128 C 0.99835 0.55467 0.94749 0.0
C1129 C 0.00244 0.54942 0.97779 0.0
C1130 C 0.00583 0.56875 0.99808 0.0
C1131 C 0.00683 0.59293 0.98791 0.0
C1132 C 0.00601 0.52381 0.98765 0.0
C1133 C 0.02889 0.51735 -0.00024 0.0
C1134 C 0.98797 0.50556 0.9833 0.0
C1135 C 0.96316 0.51142 0.97159 0.0
C1136 C 0.94866 0.52955 0.98533 0.0
C1137 C 0.92519 0.53474 0.97444 0.0
C1138 C 0.91593 0.52182 0.94992 0.0
C1139 C 0.93014 0.50367 0.93625 0.0
C1140 C 0.95363 0.49842 0.94704 0.0
C1141 C 0.01912 0.42207 0.05782 0.0
C1142 C 0.01382 0.4022 0.03885 0.0
C1143 C 0.02177 0.44565 0.04608 0.0
C1144 C 0.01904 0.44965 0.01527 0.0
C1145 C 0.01579 0.42956 0.99608 0.0
C1146 C 0.01344 0.40594 0.00776 0.0
C1147 C 0.01605 0.47489 0.00383 0.0
C1148 C 0.9933 0.48128 0.99132 0.0
C1149 C 0.03422 0.49307 0.00782 0.0
C1150 C 0.05912 0.48714 0.01923 0.0
C1151 C 0.07299 0.46819 0.00616 0.0
C1152 C 0.09674 0.46324 0.01629 0.0
C1153 C 0.10691 0.47719 0.03939 0.0
C1154 C 0.09333 0.49611 0.05243 0.0
C1155 C 0.06956 0.50112 0.04242 0.0
H1156 H 0.12534 0.4734 0.04711 0.0
H1157 H 0.89773 0.52583 0.94157 0.0
H1158 H 0.10589 0.00999 0.00037 0.0
H1159 H 0.06343 0.01581 0.98466 0.0
H1160 H 0.04082 0.02017 0.07698 0.0
H1161 H 0.08326 0.01412 0.09288 0.0
H1162 H 0.01738 0.98413 0.04811 0.0
H1163 H 0.03272 0.06892 0.03059 0.0
H1164 H 0.0541 0.10543 0.01113 0.0
H1165 H 0.04265 0.08038 0.92116 0.0
H1166 H 0.02142 0.04356 0.94008 0.0
H1167 H 0.89096 0.00669 0.01012 0.0
H1168 H 0.93268 0.00572 0.03025 0.0
H1169 H 0.96169 0.99894 0.94087 0.0
H1170 H 0.92012 -2e-05 0.92059 0.0
H1171 H 0.98083 0.03818 0.97092 0.0
H1172 H 0.96716 0.95238 0.98916 0.0
H1173 H 0.94536 0.91625 0.00902 0.0
H1174 H 0.95353 0.94389 0.09841 0.0
H1175 H 0.97511 0.98036 0.07904 0.0
C1176 C 0.09203 0.0131 0.01732 0.0
C1177 C 0.09783 0.01128 0.04785 0.0
C1178 C 0.06773 0.01642 0.0083 0.0
C1179 C 0.04894 0.01817 0.02968 0.0
C1180 C 0.05504 0.01866 0.06015 0.0
C1181 C 0.07933 0.01536 0.06918 0.0
C1182 C 0.02297 0.01599 0.02034 0.0
C1183 C 0.0092 0.99628 0.03168 0.0
C1184 C 0.01259 0.03138 0.99829 0.0
C1185 C 0.02565 0.05335 0.98679 0.0
C1186 C 0.03496 0.07106 0.00667 0.0
C1187 C 0.047 0.09185 0.99573 0.0
C1188 C 0.04978 0.09519 0.96494 0.0
C1189 C 0.0405 0.07776 0.94501 0.0
C1190 C 0.02842 0.05694 0.95583 0.0
C1191 C 0.90618 0.00419 0.99484 0.0
C1192 C 0.90231 0.00361 0.96377 0.0
C1193 C 0.93001 0.00373 0.00637 0.0
C1194 C 0.95024 0.00254 0.98699 0.0
C1195 C 0.9463 0.0001 0.95614 0.0
C1196 C 0.92253 0.00051 0.94463 0.0
C1197 C 0.97542 0.0062 0.99848 0.0
C1198 C 0.989 0.02618 0.98752 0.0
C1199 C 0.9856 0.9911 0.02093 0.0
C1200 C 0.97251 0.96924 0.03261 0.0
C1201 C 0.9641 0.95088 0.01303 0.0
C1202 C 0.95183 0.9303 0.0242 0.0
C1203 C 0.948 0.92781 0.05495 0.0
C1204 C 0.95647 0.94586 0.07459 0.0
C1205 C 0.96874 0.96648 0.06353 0.0
H1206 H 0.93851 0.91186 0.06356 0.0
H1207 H 0.05909 0.11131 0.95651 0.0
H1208 H 0.51384 0.58696 0.57587 0.0
H1209 H 0.51583 0.54433 0.55922 0.0
H1210 H 0.49927 0.56698 0.46907 0.0
H1211 H 0.49694 0.60972 0.4856 0.0
H1212 H 0.47349 0.52245 0.53462 0.0
H1213 H 0.52601 0.52245 0.42219 0.0
H1214 H 0.56109 0.5434 0.39844 0.0
H1215 H 0.59245 0.55765 0.4848 0.0
H1216 H 0.55778 0.53649 0.50903 0.0
H1217 H 0.48987 0.41552 0.41687 0.0
H1218 H 0.48735 0.4587 0.43118 0.0
H1219 H 0.49353 0.43839 0.52414 0.0
H1220 H 0.49557 0.39518 0.51 0.0
H1221 H 0.52408 0.48233 0.4565 0.0
H1222 H 0.46996 0.48285 0.56857 0.0
H1223 H 0.43415 0.46245 0.59137 0.0
H1224 H 0.40452 0.44794 0.50417 0.0
H1225 H 0.43997 0.46852 0.48086 0.0
C1226 C 0.51139 0.583 0.55231 0.0
C1227 C 0.505 0.60165 0.53206 0.0
C1228 C 0.51237 0.5586 0.54291 0.0
C1229 C 0.50744 0.55255 0.51304 0.0
C1230 C 0.50317 0.57133 0.49223 0.0
C1231 C 0.50192 0.59574 0.50169 0.0
C1232 C 0.50398 0.52661 0.50438 0.0
C1233 C 0.48477 0.51349 0.51786 0.0
C1234 C 0.51814 0.51539 0.48176 0.0
C1235 C 0.53912 0.52814 0.46742 0.0
C1236 C 0.54042 0.53001 0.4361 0.0
C1237 C 0.56023 0.54192 0.42256 0.0
C1238 C 0.57894 0.55194 0.44011 0.0
C1239 C 0.5779 0.55 0.47124 0.0
C1240 C 0.55813 0.53809 0.48489 0.0
C1241 C 0.48987 0.42021 0.44042 0.0
C1242 C 0.49305 0.402 0.46233 0.0
C1243 C 0.48861 0.4449 0.44854 0.0
C1244 C 0.49045 0.4518 0.47869 0.0
C1245 C 0.49183 0.43351 0.50075 0.0
C1246 C 0.49295 0.40878 0.49264 0.0
C1247 C 0.49358 0.478 0.48679 0.0
C1248 C 0.51271 0.49122 0.47321 0.0
C1249 C 0.47921 0.4894 0.50917 0.0
C1250 C 0.45778 0.477 0.52298 0.0
C1251 C 0.45577 0.47536 0.55426 0.0
C1252 C 0.43554 0.46376 0.56727 0.0
C1253 C 0.41711 0.45384 0.54922 0.0
C1254 C 0.41886 0.45554 0.51812 0.0
C1255 C 0.43905 0.46713 0.505 0.0
H1256 H 0.40146 0.44487 0.55934 0.0
H1257 H 0.59426 0.56114 0.42958 0.0
H1258 H 0.09003 0.48595 0.41905 0.0
H1259 H 0.04646 0.48079 0.43041 0.0
H1260 H 0.06109 0.49456 0.52372 0.0
H1261 H 0.10469 0.49907 0.5127 0.0
H1262 H 0.02253 0.46265 0.51564 0.0
H1263 H 0.04928 0.54202 0.47714 0.0
H1264 H 0.07088 0.56604 0.43854 0.0
H1265 H 0.02019 0.54063 0.372 0.0
H1266 H 0.99856 0.51597 0.41007 0.0
H1267 H 0.91172 0.50981 0.56572 0.0
H1268 H 0.95492 0.5119 0.55135 0.0
H1269 H 0.93525 0.49807 0.45946 0.0
H1270 H 0.89197 0.49612 0.47359 0.0
H1271 H 0.97573 0.52865 0.46451 0.0
H1272 H 0.94647 0.45249 0.50269 0.0
H1273 H 0.927 0.42434 0.53835 0.0
H1274 H 0.98267 0.44049 0.60339 0.0
H1275 H 0.00216 0.46942 0.56826 0.0
C1276 C 0.08409 0.48697 0.44214 0.0
C1277 C 0.10063 0.49339 0.46492 0.0
C1278 C 0.05919 0.48415 0.44856 0.0
C1279 C 0.05054 0.48809 0.47774 0.0
C1280 C 0.0674 0.49171 0.501 0.0
C1281 C 0.09233 0.49428 0.49466 0.0
C1282 C 0.02408 0.49189 0.48344 0.0
C1283 C 0.01232 0.4772 0.50473 0.0
C1284 C 0.01074 0.51063 0.46867 0.0
C1285 C 0.02247 0.52698 0.44636 0.0
C1286 C 0.04273 0.54158 0.45427 0.0
C1287 C 0.05505 0.55521 0.43249 0.0
C1288 C 0.04707 0.55468 0.40282 0.0
C1289 C 0.02648 0.54085 0.39495 0.0
C1290 C 0.01416 0.52706 0.41662 0.0
C1291 C 0.9165 0.50804 0.5423 0.0
C1292 C 0.89855 0.50237 0.52084 0.0
C1293 C 0.94119 0.50914 0.53416 0.0
C1294 C 0.94823 0.50451 0.5045 0.0
C1295 C 0.93015 0.50149 0.4825 0.0
C1296 C 0.90544 0.50037 0.49063 0.0
C1297 C 0.97424 0.49965 0.49719 0.0
C1298 C 0.9859 0.51413 0.47554 0.0
C1299 C 0.98745 0.48059 0.51154 0.0
C1300 C 0.9756 0.46343 0.53293 0.0
C1301 C 0.95435 0.45042 0.52477 0.0
C1302 C 0.9433 0.43427 0.54493 0.0
C1303 C 0.95353 0.43064 0.57322 0.0
C1304 C 0.97475 0.44331 0.58147 0.0
C1305 C 0.98579 0.45964 0.56145 0.0
H1306 H 0.94509 0.41795 0.58871 0.0
H1307 H 0.05671 0.5652 0.38598 0.0
H1308 H 0.98932 0.91241 0.57097 0.0
H1309 H 0.98899 0.95581 0.55717 0.0
H1310 H 0.00137 0.93626 0.46492 0.0
H1311 H 0.00159 0.89286 0.47848 0.0
H1312 H 0.03704 0.96692 0.48829 0.0
H1313 H 0.94945 0.96288 0.48308 0.0
H1314 H 0.90733 0.95446 0.50033 0.0
H1315 H 0.91698 0.0046 0.57345 0.0
H1316 H 0.95932 0.01308 0.55689 0.0
H1317 H 0.02033 0.0836 0.41842 0.0
H1318 H 0.02324 0.04123 0.43582 0.0
H1319 H 0.0109 0.0653 0.52648 0.0
H1320 H 0.00816 0.10777 0.50928 0.0
H1321 H 0.97599 0.03268 0.50631 0.0
H1322 H 0.06284 0.03804 0.51065 0.0
H1323 H 0.10536 0.04582 0.49455 0.0
H1324 H 0.09755 0.99296 0.424 0.0
H1325 H 0.05482 0.98512 0.43935 0.0
C1326 C 0.99113 0.91732 0.54761 0.0
C1327 C 0.99571 0.89929 0.52583 0.0
C1328 C 0.99098 0.94212 0.53977 0.0
C1329 C 0.99542 0.94917 0.51009 0.0
C1330 C 0.99806 0.93112 0.48798 0.0
C1331 C 0.99802 0.90634 0.49574 0.0
C1332 C 0.00026 0.97516 0.5028 0.0
C1333 C 0.02358 0.98131 0.49174 0.0
C1334 C 0.98298 0.99387 0.50851 0.0
C1335 C 0.9577 0.98839 0.51893 0.0
C1336 C 0.94272 0.97189 0.50306 0.0
C1337 C 0.91877 0.96716 0.51266 0.0
C1338 C 0.90951 0.97894 0.53802 0.0
C1339 C 0.92419 0.99546 0.55384 0.0
C1340 C 0.94817 0.00024 0.54434 0.0
C1341 C 0.01918 0.07997 0.4422 0.0
C1342 C 0.01375 0.09892 0.46245 0.0
C1343 C 0.02083 0.05575 0.45211 0.0
C1344 C 0.01701 0.05017 0.48238 0.0
C1345 C 0.01378 0.06929 0.503 0.0
C1346 C 0.01239 0.09355 0.49315 0.0
C1347 C 0.01273 0.02446 0.49153 0.0
C1348 C 0.98951 0.01833 0.50295 0.0
C1349 C 0.03012 0.00576 0.48615 0.0
C1350 C 0.05545 0.01125 0.47591 0.0
C1351 C 0.07002 0.02837 0.49138 0.0
C1352 C 0.09422 0.03271 0.48247 0.0
C1353 C 0.10412 0.01996 0.4582 0.0
C1354 C 0.08983 0.00287 0.44275 0.0
C1355 C 0.06561 0.99848 0.45154 0.0
H1356 H 0.12289 0.02327 0.45142 0.0
H1357 H 0.89093 0.97531 0.54535 0.0
H1358 H 0.58689 0.98072 0.58172 0.0
H1359 H 0.54417 0.97758 0.56542 0.0
H1360 H 0.56596 0.99503 0.47518 0.0
H1361 H 0.60872 0.99798 0.49122 0.0
H1362 H 0.53216 0.0279 0.49999 0.0
H1363 H 0.54219 0.94121 0.48781 0.0
H1364 H 0.55285 0.89888 0.50216 0.0
H1365 H 0.49988 0.9013 0.57318 0.0
H1366 H 0.48913 0.9438 0.55952 0.0
H1367 H 0.41848 0.01292 0.42424 0.0
H1368 H 0.46025 0.01497 0.44364 0.0
H1369 H 0.43452 0.99126 0.53019 0.0
H1370 H 0.3926 0.98898 0.5108 0.0
H1371 H 0.47009 0.96189 0.50937 0.0
H1372 H 0.4589 0.04792 0.52091 0.0
H1373 H 0.44838 0.09047 0.5074 0.0
H1374 H 0.50359 0.08997 0.43892 0.0
H1375 H 0.51417 0.04724 0.45164 0.0
C1376 C 0.58269 0.983 0.5582 0.0
C1377 C 0.60108 0.98982 0.53778 0.0
C1378 C 0.55828 0.98124 0.54894 0.0
C1379 C 0.55195 0.98636 0.51919 0.0
C1380 C 0.57053 0.99116 0.49829 0.0
C1381 C 0.59497 0.99265 0.50745 0.0
C1382 C 0.52595 0.98992 0.51085 0.0
C1383 C 0.5186 0.01338 0.50153 0.0
C1384 C 0.50824 0.9712 0.51415 0.0
C1385 C 0.51506 0.94582 0.52285 0.0
C1386 C 0.53302 0.93284 0.50673 0.0
C1387 C 0.53903 0.90878 0.51467 0.0
C1388 C 0.5271 0.89742 0.53862 0.0
C1389 C 0.50914 0.91013 0.55467 0.0
C1390 C 0.50307 0.9342 0.54682 0.0
C1391 C 0.42159 0.00886 0.44765 0.0
C1392 C 0.40234 0.00059 0.46595 0.0
C1393 C 0.44549 0.01008 0.45873 0.0
C1394 C 0.45051 0.00314 0.48832 0.0
C1395 C 0.43103 0.99659 0.50724 0.0
C1396 C 0.40708 0.99546 0.49619 0.0
C1397 C 0.47624 -0.00012 0.49821 0.0
C1398 C 0.48358 0.97647 0.50789 0.0
C1399 C 0.49394 0.0187 0.49534 0.0
C1400 C 0.48716 0.04422 0.48705 0.0
C1401 C 0.4686 0.05675 0.50271 0.0
C1402 C 0.46267 0.08094 0.49524 0.0
C1403 C 0.47527 0.0929 0.47227 0.0
C1404 C 0.49381 0.08067 0.45668 0.0
C1405 C 0.49979 0.05646 0.46402 0.0
H1406 H 0.47072 0.11166 0.46661 0.0
H1407 H 0.53172 0.87877 0.54468 0.0
H1408 H 0.51809 0.33376 0.33181 0.0
H1409 H 0.50934 0.31007 0.28669 0.0
H1410 H 0.4726 0.25522 0.34004 0.0
H1411 H 0.4804 0.27946 0.38504 0.0
H1412 H 0.52802 0.26874 0.27507 0.0
H1413 H 0.43451 0.22027 0.29774 0.0
H1414 H 0.39443 0.22979 0.32059 0.0
H1415 H 0.40589 0.30654 0.30419 0.0
H1416 H 0.44587 0.29747 0.28088 0.0
H1417 H 0.52754 0.16387 0.19035 0.0
H1418 H 0.51841 0.18879 0.23437 0.0
H1419 H 0.46492 0.22974 0.18378 0.0
H1420 H 0.47354 0.20441 0.13976 0.0
H1421 H 0.4519 0.22602 0.24352 0.0
H1422 H 0.52114 0.25046 0.18488 0.0
H1423 H 0.56014 0.24411 0.15801 0.0
H1424 H 0.59518 0.223 0.24006 0.0
H1425 H 0.55625 0.22883 0.26734 0.0
C1426 C 0.50761 0.31696 0.33377 0.0
C1427 C 0.50003 0.30835 0.36186 0.0
C1428 C 0.50266 0.3034 0.30801 0.0
C1429 C 0.49035 0.2808 0.30989 0.0
C1430 C 0.48174 0.27277 0.33785 0.0
C1431 C 0.48631 0.28658 0.3636 0.0
C1432 C 0.48927 0.26441 0.28338 0.0
C1433 C 0.51128 0.25959 0.26818 0.0
C1434 C 0.46743 0.25256 0.27404 0.0
C1435 C 0.4433 0.25818 0.2878 0.0
C1436 C 0.42844 0.23917 0.2989 0.0
C1437 C 0.40574 0.24449 0.31196 0.0
C1438 C 0.39766 0.26876 0.31393 0.0
C1439 C 0.41222 0.28776 0.30276 0.0
C1440 C 0.43492 0.28254 0.28967 0.0
C1441 C 0.51332 0.1777 0.18885 0.0
C1442 C 0.50152 0.18249 0.16157 0.0
C1443 C 0.50813 0.19192 0.21398 0.0
C1444 C 0.4914 0.21144 0.21208 0.0
C1445 C 0.47796 0.21482 0.18565 0.0
C1446 C 0.48295 0.20037 0.16052 0.0
C1447 C 0.49067 0.23021 0.23599 0.0
C1448 C 0.46848 0.23539 0.25057 0.0
C1449 C 0.51217 0.24304 0.24432 0.0
C1450 C 0.53573 0.23988 0.2281 0.0
C1451 C 0.53713 0.24432 0.19716 0.0
C1452 C 0.55922 0.24082 0.18185 0.0
C1453 C 0.58011 0.23311 0.19731 0.0
C1454 C 0.57897 0.22895 0.22812 0.0
C1455 C 0.5569 0.23235 0.24351 0.0
H1456 H 0.5972 0.23041 0.18543 0.0
H1457 H 0.38009 0.27284 0.32405 0.0
H1458 H 0.2163 0.4811 0.3885 0.0
H1459 H 0.24352 0.47246 0.34613 0.0
H1460 H 0.21253 0.53363 0.29803 0.0
H1461 H 0.18563 0.54259 0.34031 0.0
H1462 H 0.23787 0.46224 0.28615 0.0
H1463 H 0.25803 0.56548 0.2663 0.0
H1464 H 0.25949 0.60396 0.29532 0.0
H1465 H 0.2748 0.56327 0.37537 0.0
H1466 H 0.27381 0.5246 0.34676 0.0
H1467 H 0.28537 0.48873 0.14219 0.0
H1468 H 0.26399 0.48233 0.1895 0.0
H1469 H 0.32805 0.50715 0.23759 0.0
H1470 H 0.3491 0.51456 0.19018 0.0
H1471 H 0.29125 0.53151 0.25537 0.0
H1472 H 0.30567 0.44637 0.24223 0.0
H1473 H 0.30675 0.40662 0.21596 0.0
H1474 H 0.22837 0.40812 0.20665 0.0
H1475 H 0.22683 0.44806 0.2325 0.0
C1476 C 0.21511 0.4925 0.36873 0.0
C1477 C 0.19908 0.5127 0.3678 0.0
C1478 C 0.2306 0.48749 0.34455 0.0
C1479 C 0.23027 0.50264 0.31921 0.0
C1480 C 0.21331 0.52197 0.31762 0.0
C1481 C 0.19794 0.52704 0.34176 0.0
C1482 C 0.24868 0.49949 0.29519 0.0
C1483 C 0.24966 0.47728 0.27938 0.0
C1484 C 0.26456 0.5189 0.28711 0.0
C1485 C 0.26564 0.54213 0.3044 0.0
C1486 C 0.26184 0.56476 0.29006 0.0
C1487 C 0.26256 0.5866 0.30644 0.0
C1488 C 0.26717 0.58605 0.33718 0.0
C1489 C 0.27116 0.56366 0.35158 0.0
C1490 C 0.2705 0.54178 0.3353 0.0
C1491 C 0.29507 0.49227 0.16288 0.0
C1492 C 0.31878 0.50236 0.16258 0.0
C1493 C 0.28289 0.48847 0.18996 0.0
C1494 C 0.29441 0.49419 0.21719 0.0
C1495 C 0.31873 0.50272 0.21688 0.0
C1496 C 0.33077 0.5069 0.18981 0.0
C1497 C 0.28011 0.4944 0.24545 0.0
C1498 C 0.27981 0.51621 0.26216 0.0
C1499 C 0.26535 0.47439 0.25467 0.0
C1500 C 0.26616 0.45032 0.23916 0.0
C1501 C 0.28867 0.43832 0.2344 0.0
C1502 C 0.28937 0.41573 0.21961 0.0
C1503 C 0.26765 0.40487 0.2096 0.0
C1504 C 0.24518 0.41656 0.21442 0.0
C1505 C 0.24439 0.43916 0.22918 0.0
H1506 H 0.26823 0.38738 0.19815 0.0
H1507 H 0.26769 0.60298 0.34982 0.0
H1508 H 0.03135 0.30003 0.13569 0.0
H1509 H 0.04005 0.27601 0.18079 0.0
H1510 H 0.97149 0.29989 0.21932 0.0
H1511 H 0.96299 0.32423 0.17481 0.0
H1512 H 0.00571 0.29787 0.26117 0.0
H1513 H 0.97641 0.24526 0.18132 0.0
H1514 H 0.97787 0.22685 0.13093 0.0
H1515 H 0.04907 0.19688 0.14975 0.0
H1516 H 0.04814 0.2154 0.20013 0.0
H1517 H 0.96807 0.17558 0.32828 0.0
H1518 H 0.97639 0.20064 0.28424 0.0
H1519 H 0.03751 0.23447 0.32964 0.0
H1520 H 0.02904 0.20959 0.3741 0.0
H1521 H 0.0138 0.20801 0.2462 0.0
H1522 H 0.03628 0.29596 0.31173 0.0
H1523 H 0.02935 0.31403 0.36167 0.0
H1524 H 0.96287 0.27243 0.37084 0.0
H1525 H 0.96924 0.25441 0.32082 0.0
C1526 C 0.01836 0.30047 0.15403 0.0
C1527 C 0.99639 0.31382 0.15166 0.0
C1528 C 0.02331 0.28668 0.1797 0.0
C1529 C 0.00625 0.28589 0.20322 0.0
C1530 C 0.98492 0.30023 0.20146 0.0
C1531 C 0.98004 0.31407 0.17594 0.0
C1532 C 0.0094 0.26884 0.22875 0.0
C1533 C 0.00785 0.27826 0.2579 0.0
C1534 C 0.01185 0.24321 0.2245 0.0
C1535 C 0.01234 0.23195 0.19432 0.0
C1536 C 0.99245 0.23488 0.17462 0.0
C1537 C 0.99317 0.22441 0.14608 0.0
C1538 C 0.01358 0.21077 0.13711 0.0
C1539 C 0.03329 0.2075 0.1567 0.0
C1540 C 0.03268 0.21797 0.18524 0.0
C1541 C 0.98351 0.18809 0.32876 0.0
C1542 C 0.99775 0.19084 0.35472 0.0
C1543 C 0.98832 0.20232 0.30351 0.0
C1544 C 0.00738 0.2196 0.30379 0.0
C1545 C 0.02253 0.22141 0.3291 0.0
C1546 C 0.01771 0.20717 0.35443 0.0
C1547 C 0.00982 0.23703 0.27855 0.0
C1548 C 0.01239 0.22768 0.24948 0.0
C1549 C 0.00763 0.26267 0.28282 0.0
C1550 C 0.00343 0.27361 0.31275 0.0
C1551 C 0.02017 0.29073 0.3244 0.0
C1552 C 0.01633 0.30096 0.35271 0.0
C1553 C 0.99574 0.2943 0.36947 0.0
C1554 C 0.97886 0.27749 0.35789 0.0
C1555 C 0.98259 0.26725 0.32959 0.0
H1556 H 0.99282 0.30221 0.39138 0.0
H1557 H 0.01411 0.20267 0.11501 0.0
H1558 H 0.28674 0.02212 0.37452 0.0
H1559 H 0.2616 0.03093 0.33043 0.0
H1560 H 0.31361 0.99265 0.27474 0.0
H1561 H 0.33854 0.98322 0.31881 0.0
H1562 H 0.28824 0.03926 0.24951 0.0
H1563 H 0.27428 0.95861 0.29724 0.0
H1564 H 0.26553 0.93403 0.34232 0.0
H1565 H 0.19903 0.97462 0.3566 0.0
H1566 H 0.20767 -0.00026 0.31186 0.0
H1567 H 0.22917 0.99072 0.12359 0.0
H1568 H 0.25327 0.00088 0.16777 0.0
H1569 H 0.18678 0.00617 0.21999 0.0
H1570 H 0.16276 0.99424 0.17603 0.0
H1571 H 0.21669 0.98292 0.25044 0.0
H1572 H 0.22462 0.05831 0.19876 0.0
H1573 H 0.23247 0.08627 0.15651 0.0
H1574 H 0.30711 0.06138 0.15191 0.0
H1575 H 0.29964 0.03301 0.19389 0.0
C1576 C 0.2932 0.01624 0.35276 0.0
C1577 C 0.31442 0.00177 0.35002 0.0
C1578 C 0.27885 0.02132 0.32765 0.0
C1579 C 0.2858 0.01235 0.2995 0.0
C1580 C 0.3081 -0.00019 0.29632 0.0
C1581 C 0.32221 0.99433 0.32149 0.0
C1582 C 0.26813 0.0123 0.27455 0.0
C1583 C 0.27257 0.027 0.24947 0.0
C1584 C 0.24733 0.99686 0.27522 0.0
C1585 C 0.24174 0.9812 0.30144 0.0
C1586 C 0.25788 0.96238 0.31011 0.0
C1587 C 0.25294 0.94835 0.33558 0.0
C1588 C 0.23178 0.95281 0.35237 0.0
C1589 C 0.21544 0.97122 0.34361 0.0
C1590 C 0.22035 0.98535 0.3182 0.0
C1591 C 0.21971 0.99429 0.14446 0.0
C1592 C 0.19416 0.99172 0.14651 0.0
C1593 C 0.23348 0.00035 0.16969 0.0
C1594 C 0.22189 0.00486 0.19724 0.0
C1595 C 0.19621 0.00284 0.19905 0.0
C1596 C 0.18248 0.99606 0.17397 0.0
C1597 C 0.23675 0.0097 0.22451 0.0
C1598 C 0.23192 0.99572 0.25025 0.0
C1599 C 0.25684 0.02628 0.22458 0.0
C1600 C 0.26151 0.04341 0.19939 0.0
C1601 C 0.24267 0.05868 0.18863 0.0
C1602 C 0.24706 0.07462 0.16474 0.0
C1603 C 0.27026 0.07557 0.15151 0.0
C1604 C 0.28915 0.06062 0.16219 0.0
C1605 C 0.28485 0.04464 0.18607 0.0
H1606 H 0.27362 0.08791 0.133 0.0
H1607 H 0.22801 0.94197 0.37212 0.0
H1608 H 0.48223 0.76828 0.87258 0.0
H1609 H 0.49448 0.74809 0.82632 0.0
H1610 H 0.49873 0.81842 0.78218 0.0
H1611 H 0.48529 0.83862 0.8283 0.0
H1612 H 0.4757 0.78918 0.74838 0.0
H1613 H 0.55143 0.78239 0.79925 0.0
H1614 H 0.57994 0.77353 0.84065 0.0
H1615 H 0.5596 0.69747 0.83793 0.0
H1616 H 0.53069 0.70591 0.7968 0.0
H1617 H 0.51326 0.72639 0.61783 0.0
H1618 H 0.52072 0.75164 0.66223 0.0
H1619 H 0.4945 0.69299 0.71849 0.0
H1620 H 0.48676 0.66774 0.67425 0.0
H1621 H 0.5358 0.72094 0.74263 0.0
H1622 H 0.45456 0.73211 0.69732 0.0
H1623 H 0.42778 0.74185 0.65446 0.0
H1624 H 0.46232 0.81229 0.64564 0.0
H1625 H 0.48954 0.80278 0.68823 0.0
C1626 C 0.486 0.77946 0.85309 0.0
C1627 C 0.48275 0.80499 0.85395 0.0
C1628 C 0.49325 0.76792 0.82668 0.0
C1629 C 0.49801 0.78173 0.8008 0.0
C1630 C 0.49526 0.80736 0.80186 0.0
C1631 C 0.48757 0.81888 0.82818 0.0
C1632 C 0.50374 0.76915 0.77217 0.0
C1633 C 0.48933 0.77472 0.74704 0.0
C1634 C 0.52136 0.75007 0.77026 0.0
C1635 C 0.53876 0.74483 0.79501 0.0
C1636 C 0.5529 0.7638 0.80761 0.0
C1637 C 0.56915 0.75885 0.83101 0.0
C1638 C 0.57155 0.73496 0.84194 0.0
C1639 C 0.55772 0.71597 0.82944 0.0
C1640 C 0.54143 0.72082 0.80604 0.0
C1641 C 0.50966 0.71867 0.63971 0.0
C1642 C 0.49916 0.69524 0.64265 0.0
C1643 C 0.51394 0.7331 0.665 0.0
C1644 C 0.50796 0.72419 0.69351 0.0
C1645 C 0.49927 0.70012 0.69663 0.0
C1646 C 0.49474 0.68579 0.67136 0.0
C1647 C 0.50748 0.74082 0.71958 0.0
C1648 C 0.52272 0.73589 0.74407 0.0
C1649 C 0.49094 0.76075 0.72084 0.0
C1650 C 0.47423 0.76664 0.6957 0.0
C1651 C 0.45653 0.74961 0.68611 0.0
C1652 C 0.44127 0.75509 0.66189 0.0
C1653 C 0.4434 0.77765 0.64728 0.0
C1654 C 0.46072 0.79481 0.65695 0.0
C1655 C 0.47606 0.78939 0.68113 0.0
H1656 H 0.43159 0.78185 0.62851 0.0
H1657 H 0.58415 0.73116 0.86006 0.0
H1658 H 0.80666 0.51651 0.63396 0.0
H1659 H 0.78184 0.52228 0.67924 0.0
H1660 H 0.75887 0.44661 0.67478 0.0
H1661 H 0.78339 0.44078 0.62971 0.0
H1662 H 0.72049 0.4776 0.68516 0.0
H1663 H 0.80318 0.46466 0.72292 0.0
H1664 H 0.84719 0.47443 0.72778 0.0
H1665 H 0.82923 0.54625 0.76063 0.0
H1666 H 0.78509 0.537 0.75559 0.0
H1667 H 0.68252 0.43837 0.82611 0.0
H1668 H 0.70281 0.44632 0.77856 0.0
H1669 H 0.71815 0.52058 0.80632 0.0
H1670 H 0.69808 0.51257 0.85448 0.0
H1671 H 0.75808 0.49927 0.78271 0.0
H1672 H 0.67531 0.50977 0.75266 0.0
H1673 H 0.6313 0.49993 0.74843 0.0
H1674 H 0.64873 0.43367 0.70102 0.0
H1675 H 0.69287 0.44291 0.70535 0.0
C1676 C 0.79634 0.50113 0.64273 0.0
C1677 C 0.79704 0.47817 0.62844 0.0
C1678 C 0.78222 0.50444 0.66856 0.0
C1679 C 0.76861 0.48484 0.68037 0.0
C1680 C 0.76919 0.46199 0.66596 0.0
C1681 C 0.78332 0.45865 0.64031 0.0
C1682 C 0.7538 0.48773 0.70789 0.0
C1683 C 0.72868 0.48226 0.70654 0.0
C1684 C 0.76436 0.49473 0.7355 0.0
C1685 C 0.79087 0.50026 0.73851 0.0
C1686 C 0.80863 0.48261 0.73092 0.0
C1687 C 0.83359 0.48804 0.73376 0.0
C1688 C 0.841 0.51097 0.7444 0.0
C1689 C 0.82346 0.52851 0.75232 0.0
C1690 C 0.79848 0.52319 0.74949 0.0
C1691 C 0.69001 0.45648 0.82204 0.0
C1692 C 0.68869 0.47487 0.84398 0.0
C1693 C 0.70148 0.46104 0.79476 0.0
C1694 C 0.71168 0.48416 0.78872 0.0
C1695 C 0.71027 0.50266 0.8105 0.0
C1696 C 0.69877 0.49808 0.83792 0.0
C1697 C 0.72489 0.48826 0.76019 0.0
C1698 C 0.7497 0.49511 0.76129 0.0
C1699 C 0.71402 0.4826 0.73229 0.0
C1700 C 0.68744 0.47699 0.72948 0.0
C1701 C 0.66978 0.49301 0.74151 0.0
C1702 C 0.6448 0.48755 0.73907 0.0
C1703 C 0.63723 0.46618 0.7245 0.0
C1704 C 0.65462 0.45023 0.7123 0.0
C1705 C 0.67963 0.45559 0.71469 0.0
H1706 H 0.61788 0.46198 0.72264 0.0
H1707 H 0.86033 0.51513 0.7466 0.0
H1708 H 0.9786 0.81024 0.63696 0.0
H1709 H 0.97116 0.78555 0.68201 0.0
H1710 H 0.04451 0.75628 0.67611 0.0
H1711 H 0.05214 0.78091 0.63149 0.0
H1712 H 0.00775 0.72036 0.68494 0.0
H1713 H 0.03331 0.79976 0.72458 0.0
H1714 H 0.02944 0.84452 0.73108 0.0
H1715 H 0.95701 0.83514 0.76709 0.0
H1716 H 0.96035 0.79031 0.76041 0.0
H1717 H 0.05112 0.67642 0.82076 0.0
H1718 H 0.0415 0.6971 0.77398 0.0
H1719 H 0.97201 0.72067 0.81024 0.0
H1720 H 0.98176 0.70013 0.85763 0.0
H1721 H 0.99593 0.75812 0.78489 0.0
H1722 H 0.97312 0.67843 0.75437 0.0
H1723 H 0.97634 0.6336 0.74827 0.0
H1724 H 0.04121 0.64269 0.69492 0.0
H1725 H 0.03861 0.68757 0.70105 0.0
C1726 C 0.99313 0.79859 0.6454 0.0
C1727 C 0.01597 0.79751 0.63082 0.0
C1728 C 0.98885 0.78453 0.67104 0.0
C1729 C 0.00728 0.7691 0.68224 0.0
C1730 C 0.03003 0.768 0.66767 0.0
C1731 C 0.0344 0.78219 0.64231 0.0
C1732 C 0.00329 0.7541 0.70933 0.0
C1733 C 0.00519 0.72853 0.70684 0.0
C1734 C 0.99892 0.76483 0.73761 0.0
C1735 C 0.99695 0.79174 0.74162 0.0
C1736 C 0.01647 0.80727 0.73361 0.0
C1737 C 0.0144 0.83264 0.73739 0.0
C1738 C 0.99296 0.84268 0.74939 0.0
C1739 C 0.97358 0.82735 0.75772 0.0
C1740 C 0.97555 0.80196 0.75396 0.0
C1741 C 0.03364 0.68572 0.8187 0.0
C1742 C 0.0172 0.6867 0.84284 0.0
C1743 C 0.02808 0.69741 0.79185 0.0
C1744 C 0.0059 0.71018 0.78848 0.0
C1745 C 0.98918 0.7108 0.81236 0.0
C1746 C 0.99474 0.69903 0.83933 0.0
C1747 C 0.00139 0.72431 0.76073 0.0
C1748 C 0.99785 0.74975 0.76299 0.0
C1749 C 0.00404 0.71343 0.73217 0.0
C1750 C 0.00571 0.68641 0.7283 0.0
C1751 C 0.98817 0.67088 0.7415 0.0
C1752 C 0.98988 0.64545 0.73801 0.0
C1753 C 0.00898 0.63531 0.72124 0.0
C1754 C 0.02641 0.65058 0.70789 0.0
C1755 C 0.0248 0.67602 0.71132 0.0
H1756 H 0.01027 0.61561 0.71857 0.0
H1757 H 0.99139 0.86233 0.75231 0.0
H1758 H 0.72838 0.99716 0.62332 0.0
H1759 H 0.751 0.98975 0.6694 0.0
H1760 H 0.68402 0.99774 0.72021 0.0
H1761 H 0.66176 0.00711 0.67405 0.0
H1762 H 0.71523 0.02198 0.74635 0.0
H1763 H 0.71797 0.94019 0.71077 0.0
H1764 H 0.72418 0.90626 0.6751 0.0
H1765 H 0.80057 0.9246 0.66811 0.0
H1766 H 0.79478 0.95886 0.70344 0.0
H1767 H 0.78069 0.98766 0.87884 0.0
H1768 H 0.75577 0.97779 0.83479 0.0
H1769 H 0.80935 0.01255 0.77796 0.0
H1770 H 0.83398 0.02323 0.82196 0.0
H1771 H 0.78221 0.96122 0.75917 0.0
H1772 H 0.77289 0.04888 0.78888 0.0
H1773 H 0.76488 0.0799 0.82788 0.0
H1774 H 0.69674 0.04454 0.84948 0.0
H1775 H 0.7046 0.01309 0.81086 0.0
C1776 C 0.71845 0.99694 0.64431 0.0
C1777 C 0.69339 0.00271 0.64526 0.0
C1778 C 0.73136 0.99247 0.6707 0.0
C1779 C 0.71924 0.99273 0.69847 0.0
C1780 C 0.69387 0.99746 0.69917 0.0
C1781 C 0.68112 0.00273 0.67283 0.0
C1782 C 0.73345 0.9906 0.72678 0.0
C1783 C 0.72944 0.00825 0.74919 0.0
C1784 C 0.75225 0.97287 0.73084 0.0
C1785 C 0.75589 0.95221 0.70964 0.0
C1786 C 0.73607 0.93709 0.70149 0.0
C1787 C 0.73952 0.91778 0.68134 0.0
C1788 C 0.76274 0.9133 0.66931 0.0
C1789 C 0.78259 0.92809 0.67745 0.0
C1790 C 0.77924 0.94744 0.69758 0.0
C1791 C 0.78742 0.99269 0.85689 0.0
C1792 C 0.80914 0.00634 0.85371 0.0
C1793 C 0.77322 0.987 0.83183 0.0
C1794 C 0.78085 0.99442 0.8033 0.0
C1795 C 0.80335 0.00655 0.79987 0.0
C1796 C 0.81728 0.01274 0.82496 0.0
C1797 C 0.76393 0.99267 0.77769 0.0
C1798 C 0.76756 0.97445 0.75607 0.0
C1799 C 0.74437 0.00939 0.77458 0.0
C1800 C 0.73945 0.02854 0.79729 0.0
C1801 C 0.75631 0.04763 0.80213 0.0
C1802 C 0.75179 0.0653 0.82412 0.0
C1803 C 0.73035 0.06415 0.84122 0.0
C1804 C 0.71335 0.04538 0.83626 0.0
C1805 C 0.71783 0.02764 0.81433 0.0
H1806 H 0.72688 0.07784 0.85824 0.0
H1807 H 0.76537 0.89835 0.6537 0.0
loop_
_geom_bond_atom_site_label_1
_geom_bond_atom_site_label_2
_geom_bond_distance
_geom_bond_site_symmetry_2
_ccdc_geom_bond_type
In0 O1 2.294 . S
In0 O2 2.326 . S
In0 O6 2.266 . S
In0 O7 2.326 . S
In0 O8 2.266 . S
In0 O9 2.326 . S
In0 O11 2.294 . S
In0 O12 2.326 . S
O1 In0 2.294 . S
O1 C10 1.240 . S
O2 In0 2.326 . S
O2 C10 1.252 . S
C3 O6 1.252 . S
C3 O7 1.260 . S
C4 O11 1.240 . S
C4 O12 1.252 . S
C5 O8 1.252 . S
C5 O9 1.260 . S
O6 In0 2.266 . S
O6 C3 1.252 . S
O7 In0 2.326 . S
O7 C3 1.260 . S
O8 In0 2.266 . S
O8 C5 1.252 . S
O9 In0 2.326 . S
O9 C5 1.260 . S
C10 O1 1.240 . S
C10 O2 1.252 . S
O11 In0 2.294 . S
O11 C4 1.240 . S
O12 In0 2.326 . S
O12 C4 1.252 . S
In13 O14 2.294 . S
In13 O15 2.326 . S
In13 O19 2.266 . S
In13 O20 2.326 . S
In13 O21 2.266 . S
In13 O22 2.326 . S
In13 O24 2.294 . S
In13 O25 2.326 . S
O14 In13 2.294 . S
O14 C23 1.240 . S
O15 In13 2.326 . S
O15 C23 1.252 . S
C16 O19 1.252 . S
C16 O20 1.260 . S
C17 O24 1.240 . S
C17 O25 1.252 . S
C18 O21 1.252 . S
C18 O22 1.260 . S
O19 In13 2.266 . S
O19 C16 1.252 . S
O20 In13 2.326 . S
O20 C16 1.260 . S
O21 In13 2.266 . S
O21 C18 1.252 . S
O22 In13 2.326 . S
O22 C18 1.260 . S
C23 O14 1.240 . S
C23 O15 1.252 . S
O24 In13 2.294 . S
O24 C17 1.240 . S
O25 In13 2.326 . S
O25 C17 1.252 . S
In26 O27 2.294 . S
In26 O28 2.326 . S
In26 O32 2.266 . S
In26 O33 2.326 . S
In26 O34 2.266 . S
In26 O35 2.326 . S
In26 O37 2.294 . S
In26 O38 2.326 . S
O27 In26 2.294 . S
O27 C36 1.240 . S
O28 In26 2.326 . S
O28 C36 1.252 . S
C29 O32 1.252 . S
C29 O33 1.260 . S
C30 O37 1.240 . S
C30 O38 1.252 . S
C31 O34 1.252 . S
C31 O35 1.260 . S
O32 In26 2.266 . S
O32 C29 1.252 . S
O33 In26 2.326 . S
O33 C29 1.260 . S
O34 In26 2.266 . S
O34 C31 1.252 . S
O35 In26 2.326 . S
O35 C31 1.260 . S
C36 O27 1.240 . S
C36 O28 1.252 . S
O37 In26 2.294 . S
O37 C30 1.240 . S
O38 In26 2.326 . S
O38 C30 1.252 . S
In39 O40 2.294 . S
In39 O41 2.326 . S
In39 O45 2.266 . S
In39 O46 2.326 . S
In39 O47 2.266 . S
In39 O48 2.326 . S
In39 O50 2.294 . S
In39 O51 2.326 . S
O40 In39 2.294 . S
O40 C49 1.240 . S
O41 In39 2.326 . S
O41 C49 1.252 . S
C42 O45 1.252 . S
C42 O46 1.260 . S
C43 O50 1.240 . S
C43 O51 1.252 . S
C44 O47 1.252 . S
C44 O48 1.260 . S
O45 In39 2.266 . S
O45 C42 1.252 . S
O46 In39 2.326 . S
O46 C42 1.260 . S
O47 In39 2.266 . S
O47 C44 1.252 . S
O48 In39 2.326 . S
O48 C44 1.260 . S
C49 O40 1.240 . S
C49 O41 1.252 . S
O50 In39 2.294 . S
O50 C43 1.240 . S
O51 In39 2.326 . S
O51 C43 1.252 . S
In52 O53 2.294 . S
In52 O54 2.326 . S
In52 O58 2.266 . S
In52 O59 2.326 . S
In52 O60 2.266 . S
In52 O61 2.326 . S
In52 O63 2.294 . S
In52 O64 2.326 . S
O53 In52 2.294 . S
O53 C62 1.240 . S
O54 In52 2.326 . S
O54 C62 1.252 . S
C55 O58 1.252 . S
C55 O59 1.260 . S
C56 O63 1.240 . S
C56 O64 1.252 . S
C57 O60 1.252 . S
C57 O61 1.260 . S
O58 In52 2.266 . S
O58 C55 1.252 . S
O59 In52 2.326 . S
O59 C55 1.260 . S
O60 In52 2.266 . S
O60 C57 1.252 . S
O61 In52 2.326 . S
O61 C57 1.260 . S
C62 O53 1.240 . S
C62 O54 1.252 . S
O63 In52 2.294 . S
O63 C56 1.240 . S
O64 In52 2.326 . S
O64 C56 1.252 . S
In65 O66 2.294 . S
In65 O67 2.326 . S
In65 O71 2.266 . S
In65 O72 2.326 . S
In65 O73 2.266 . S
In65 O74 2.326 . S
In65 O76 2.294 . S
In65 O77 2.326 . S
O66 In65 2.294 . S
O66 C75 1.240 . S
O67 In65 2.326 . S
O67 C75 1.252 . S
C68 O71 1.252 . S
C68 O72 1.260 . S
C69 O76 1.240 . S
C69 O77 1.252 . S
C70 O73 1.252 . S
C70 O74 1.260 . S
O71 In65 2.266 . S
O71 C68 1.252 . S
O72 In65 2.326 . S
O72 C68 1.260 . S
O73 In65 2.266 . S
O73 C70 1.252 . S
O74 In65 2.326 . S
O74 C70 1.260 . S
C75 O66 1.240 . S
C75 O67 1.252 . S
O76 In65 2.294 . S
O76 C69 1.240 . S
O77 In65 2.326 . S
O77 C69 1.252 . S
In78 O79 2.294 . S
In78 O80 2.326 . S
In78 O84 2.266 . S
In78 O85 2.326 . S
In78 O86 2.266 . S
In78 O87 2.326 . S
In78 O89 2.294 . S
In78 O90 2.326 . S
O79 In78 2.294 . S
O79 C88 1.240 . S
O80 In78 2.326 . S
O80 C88 1.252 . S
C81 O84 1.252 . S
C81 O85 1.260 . S
C82 O89 1.240 . S
C82 O90 1.252 . S
C83 O86 1.252 . S
C83 O87 1.260 . S
O84 In78 2.266 . S
O84 C81 1.252 . S
O85 In78 2.326 . S
O85 C81 1.260 . S
O86 In78 2.266 . S
O86 C83 1.252 . S
O87 In78 2.326 . S
O87 C83 1.260 . S
C88 O79 1.240 . S
C88 O80 1.252 . S
O89 In78 2.294 . S
O89 C82 1.240 . S
O90 In78 2.326 . S
O90 C82 1.252 . S
In91 O92 2.294 . S
In91 O93 2.326 . S
In91 O97 2.266 . S
In91 O98 2.326 . S
In91 O99 2.266 . S
In91 O100 2.326 . S
In91 O102 2.294 . S
In91 O103 2.326 . S
O92 In91 2.294 . S
O92 C101 1.240 . S
O93 In91 2.326 . S
O93 C101 1.252 . S
C94 O97 1.252 . S
C94 O98 1.260 . S
C95 O102 1.240 . S
C95 O103 1.252 . S
C96 O99 1.252 . S
C96 O100 1.260 . S
O97 In91 2.266 . S
O97 C94 1.252 . S
O98 In91 2.326 . S
O98 C94 1.260 . S
O99 In91 2.266 . S
O99 C96 1.252 . S
O100 In91 2.326 . S
O100 C96 1.260 . S
C101 O92 1.240 . S
C101 O93 1.252 . S
O102 In91 2.294 . S
O102 C95 1.240 . S
O103 In91 2.326 . S
O103 C95 1.252 . S
In104 O105 2.294 . S
In104 O106 2.326 . S
In104 O110 2.266 . S
In104 O111 2.326 . S
In104 O112 2.266 . S
In104 O113 2.326 . S
In104 O115 2.294 . S
In104 O116 2.326 . S
O105 In104 2.294 . S
O105 C114 1.240 . S
O106 In104 2.326 . S
O106 C114 1.252 . S
C107 O110 1.252 . S
C107 O111 1.260 . S
C108 O115 1.240 . S
C108 O116 1.252 . S
C109 O112 1.252 . S
C109 O113 1.260 . S
O110 In104 2.266 . S
O110 C107 1.252 . S
O111 In104 2.326 . S
O111 C107 1.260 . S
O112 In104 2.266 . S
O112 C109 1.252 . S
O113 In104 2.326 . S
O113 C109 1.260 . S
C114 O105 1.240 . S
C114 O106 1.252 . S
O115 In104 2.294 . S
O115 C108 1.240 . S
O116 In104 2.326 . S
O116 C108 1.252 . S
In117 O118 2.294 . S
In117 O119 2.326 . S
In117 O123 2.266 . S
In117 O124 2.326 . S
In117 O125 2.266 . S
In117 O126 2.326 . S
In117 O128 2.294 . S
In117 O129 2.326 . S
O118 In117 2.294 . S
O118 C127 1.240 . S
O119 In117 2.326 . S
O119 C127 1.252 . S
C120 O123 1.252 . S
C120 O124 1.260 . S
C121 O128 1.240 . S
C121 O129 1.252 . S
C122 O125 1.252 . S
C122 O126 1.260 . S
O123 In117 2.266 . S
O123 C120 1.252 . S
O124 In117 2.326 . S
O124 C120 1.260 . S
O125 In117 2.266 . S
O125 C122 1.252 . S
O126 In117 2.326 . S
O126 C122 1.260 . S
C127 O118 1.240 . S
C127 O119 1.252 . S
O128 In117 2.294 . S
O128 C121 1.240 . S
O129 In117 2.326 . S
O129 C121 1.252 . S
In130 O131 2.294 . S
In130 O132 2.326 . S
In130 O136 2.266 . S
In130 O137 2.326 . S
In130 O138 2.266 . S
In130 O139 2.326 . S
In130 O141 2.294 . S
In130 O142 2.326 . S
O131 In130 2.294 . S
O131 C140 1.240 . S
O132 In130 2.326 . S
O132 C140 1.252 . S
C133 O136 1.252 . S
C133 O137 1.260 . S
C134 O141 1.240 . S
C134 O142 1.252 . S
C135 O138 1.252 . S
C135 O139 1.260 . S
O136 In130 2.266 . S
O136 C133 1.252 . S
O137 In130 2.326 . S
O137 C133 1.260 . S
O138 In130 2.266 . S
O138 C135 1.252 . S
O139 In130 2.326 . S
O139 C135 1.260 . S
C140 O131 1.240 . S
C140 O132 1.252 . S
O141 In130 2.294 . S
O141 C134 1.240 . S
O142 In130 2.326 . S
O142 C134 1.252 . S
In143 O144 2.294 . S
In143 O145 2.326 . S
In143 O149 2.266 . S
In143 O150 2.326 . S
In143 O151 2.266 . S
In143 O152 2.326 . S
In143 O154 2.294 . S
In143 O155 2.326 . S
O144 In143 2.294 . S
O144 C153 1.240 . S
O145 In143 2.326 . S
O145 C153 1.252 . S
C146 O149 1.252 . S
C146 O150 1.260 . S
C147 O154 1.240 . S
C147 O155 1.252 . S
C148 O151 1.252 . S
C148 O152 1.260 . S
O149 In143 2.266 . S
O149 C146 1.252 . S
O150 In143 2.326 . S
O150 C146 1.260 . S
O151 In143 2.266 . S
O151 C148 1.252 . S
O152 In143 2.326 . S
O152 C148 1.260 . S
C153 O144 1.240 . S
C153 O145 1.252 . S
O154 In143 2.294 . S
O154 C147 1.240 . S
O155 In143 2.326 . S
O155 C147 1.252 . S
In156 O157 2.294 . S
In156 O158 2.326 . S
In156 O162 2.266 . S
In156 O163 2.326 . S
In156 O164 2.266 . S
In156 O165 2.326 . S
In156 O167 2.294 . S
In156 O168 2.326 . S
O157 In156 2.294 . S
O157 C166 1.240 . S
O158 In156 2.326 . S
O158 C166 1.252 . S
C159 O162 1.252 . S
C159 O163 1.260 . S
C160 O167 1.240 . S
C160 O168 1.252 . S
C161 O164 1.252 . S
C161 O165 1.260 . S
O162 In156 2.266 . S
O162 C159 1.252 . S
O163 In156 2.326 . S
O163 C159 1.260 . S
O164 In156 2.266 . S
O164 C161 1.252 . S
O165 In156 2.326 . S
O165 C161 1.260 . S
C166 O157 1.240 . S
C166 O158 1.252 . S
O167 In156 2.294 . S
O167 C160 1.240 . S
O168 In156 2.326 . S
O168 C160 1.252 . S
In169 O170 2.294 . S
In169 O171 2.326 . S
In169 O175 2.266 . S
In169 O176 2.326 . S
In169 O177 2.266 . S
In169 O178 2.326 . S
In169 O180 2.294 . S
In169 O181 2.326 . S
O170 In169 2.294 . S
O170 C179 1.240 . S
O171 In169 2.326 . S
O171 C179 1.252 . S
C172 O175 1.252 . S
C172 O176 1.260 . S
C173 O180 1.240 . S
C173 O181 1.252 . S
C174 O177 1.252 . S
C174 O178 1.260 . S
O175 In169 2.266 . S
O175 C172 1.252 . S
O176 In169 2.326 . S
O176 C172 1.260 . S
O177 In169 2.266 . S
O177 C174 1.252 . S
O178 In169 2.326 . S
O178 C174 1.260 . S
C179 O170 1.240 . S
C179 O171 1.252 . S
O180 In169 2.294 . S
O180 C173 1.240 . S
O181 In169 2.326 . S
O181 C173 1.252 . S
In182 O183 2.294 . S
In182 O184 2.326 . S
In182 O188 2.266 . S
In182 O189 2.326 . S
In182 O190 2.266 . S
In182 O191 2.326 . S
In182 O193 2.294 . S
In182 O194 2.326 . S
O183 In182 2.294 . S
O183 C192 1.240 . S
O184 In182 2.326 . S
O184 C192 1.252 . S
C185 O188 1.252 . S
C185 O189 1.260 . S
C186 O193 1.240 . S
C186 O194 1.252 . S
C187 O190 1.252 . S
C187 O191 1.260 . S
O188 In182 2.266 . S
O188 C185 1.252 . S
O189 In182 2.326 . S
O189 C185 1.260 . S
O190 In182 2.266 . S
O190 C187 1.252 . S
O191 In182 2.326 . S
O191 C187 1.260 . S
C192 O183 1.240 . S
C192 O184 1.252 . S
O193 In182 2.294 . S
O193 C186 1.240 . S
O194 In182 2.326 . S
O194 C186 1.252 . S
In195 O196 2.294 . S
In195 O197 2.326 . S
In195 O201 2.266 . S
In195 O202 2.326 . S
In195 O203 2.266 . S
In195 O204 2.326 . S
In195 O206 2.294 . S
In195 O207 2.326 . S
O196 In195 2.294 . S
O196 C205 1.240 . S
O197 In195 2.326 . S
O197 C205 1.252 . S
C198 O201 1.252 . S
C198 O202 1.260 . S
C199 O206 1.240 . S
C199 O207 1.252 . S
C200 O203 1.252 . S
C200 O204 1.260 . S
O201 In195 2.266 . S
O201 C198 1.252 . S
O202 In195 2.326 . S
O202 C198 1.260 . S
O203 In195 2.266 . S
O203 C200 1.252 . S
O204 In195 2.326 . S
O204 C200 1.260 . S
C205 O196 1.240 . S
C205 O197 1.252 . S
O206 In195 2.294 . S
O206 C199 1.240 . S
O207 In195 2.326 . S
O207 C199 1.252 . S
H208 C226 0.951 . S
H209 C228 0.951 . S
H210 C230 0.950 . S
H211 C231 0.950 . S
H212 C233 0.950 . S
H213 C236 0.950 . S
H214 C237 0.950 . S
H215 C239 0.950 . S
H216 C240 0.950 . S
H217 C241 0.951 . S
H218 C243 0.951 . S
H219 C245 0.950 . S
H220 C246 0.950 . S
H221 C248 0.950 . S
H222 C251 0.950 . S
H223 C252 0.950 . S
H224 C254 0.950 . S
H225 C255 0.950 . S
C226 H208 0.951 . S
C226 C227 1.366 . S
C226 C228 1.388 . S
C227 C226 1.366 . S
C227 C231 1.385 1_554 S
C228 H209 0.951 . S
C228 C226 1.388 . S
C228 C229 1.366 . S
C229 C228 1.366 . S
C229 C230 1.414 1_554 S
C229 C232 1.499 . S
C230 H210 0.950 . S
C230 C229 1.414 1_556 S
C230 C231 1.374 . S
C231 H211 0.950 . S
C231 C227 1.385 1_556 S
C231 C230 1.374 . S
C232 C229 1.499 . S
C232 C233 1.373 1_554 S
C232 C234 1.389 . S
C233 H212 0.950 . S
C233 C232 1.373 1_556 S
C233 C249 1.377 . S
C234 C232 1.389 . S
C234 C235 1.524 . S
C234 C248 1.377 . S
C235 C234 1.524 . S
C235 C236 1.397 . S
C235 C240 1.363 . S
C236 H213 0.950 . S
C236 C235 1.397 . S
C236 C237 1.334 . S
C237 H214 0.950 . S
C237 C236 1.334 . S
C237 C238 1.287 . S
C238 C237 1.287 . S
C238 C239 1.524 . S
C238 H257 0.913 . S
C239 H215 0.950 . S
C239 C238 1.524 . S
C239 C240 1.415 . S
C240 H216 0.950 . S
C240 C235 1.363 . S
C240 C239 1.415 . S
C241 H217 0.951 . S
C241 C242 1.366 . S
C241 C243 1.388 . S
C242 C241 1.366 . S
C242 C246 1.385 1_556 S
C243 H218 0.951 . S
C243 C241 1.388 . S
C243 C244 1.366 . S
C244 C243 1.366 . S
C244 C245 1.414 1_556 S
C244 C247 1.499 . S
C245 H219 0.950 . S
C245 C244 1.414 1_554 S
C245 C246 1.374 . S
C246 H220 0.950 . S
C246 C242 1.385 1_554 S
C246 C245 1.374 . S
C247 C244 1.499 . S
C247 C248 1.373 1_556 S
C247 C249 1.389 . S
C248 H221 0.950 . S
C248 C234 1.377 . S
C248 C247 1.373 1_554 S
C249 C233 1.377 . S
C249 C247 1.389 . S
C249 C250 1.524 . S
C250 C249 1.524 . S
C250 C251 1.397 . S
C250 C255 1.363 . S
C251 H222 0.950 . S
C251 C250 1.397 . S
C251 C252 1.334 . S
C252 H223 0.950 . S
C252 C251 1.334 . S
C252 C253 1.287 . S
C253 C252 1.287 . S
C253 C254 1.524 . S
C253 H256 0.999 . S
C254 H224 0.950 . S
C254 C253 1.524 . S
C254 C255 1.415 . S
C255 H225 0.950 . S
C255 C250 1.363 . S
C255 C254 1.415 . S
H256 C253 0.999 . S
H257 C238 0.913 . S
H258 C276 0.951 . S
H259 C278 0.951 . S
H260 C280 0.950 . S
H261 C281 0.950 . S
H262 C283 0.950 . S
H263 C286 0.950 . S
H264 C287 0.950 . S
H265 C289 0.950 . S
H266 C290 0.950 . S
H267 C291 0.951 . S
H268 C293 0.951 . S
H269 C295 0.950 . S
H270 C296 0.950 . S
H271 C298 0.950 . S
H272 C301 0.950 . S
H273 C302 0.950 . S
H274 C304 0.950 . S
H275 C305 0.950 . S
C276 H258 0.951 . S
C276 C277 1.366 . S
C276 C278 1.388 . S
C277 C276 1.366 . S
C277 C281 1.385 1_556 S
C278 H259 0.951 . S
C278 C276 1.388 . S
C278 C279 1.366 . S
C279 C278 1.366 . S
C279 C280 1.414 1_556 S
C279 C282 1.499 . S
C280 H260 0.950 . S
C280 C279 1.414 1_554 S
C280 C281 1.374 . S
C281 H261 0.950 . S
C281 C277 1.385 1_554 S
C281 C280 1.374 . S
C282 C279 1.499 . S
C282 C283 1.373 1_556 S
C282 C284 1.389 . S
C283 H262 0.950 . S
C283 C282 1.373 1_554 S
C283 C299 1.377 . S
C284 C282 1.389 . S
C284 C285 1.524 . S
C284 C298 1.377 . S
C285 C284 1.524 . S
C285 C286 1.397 . S
C285 C290 1.363 . S
C286 H263 0.950 . S
C286 C285 1.397 . S
C286 C287 1.334 . S
C287 H264 0.950 . S
C287 C286 1.334 . S
C287 C288 1.287 . S
C288 C287 1.287 . S
C288 C289 1.524 . S
C288 H307 0.913 . S
C289 H265 0.950 . S
C289 C288 1.524 . S
C289 C290 1.415 . S
C290 H266 0.950 . S
C290 C285 1.363 . S
C290 C289 1.415 . S
C291 H267 0.951 . S
C291 C292 1.366 . S
C291 C293 1.388 . S
C292 C291 1.366 . S
C292 C296 1.385 1_554 S
C293 H268 0.951 . S
C293 C291 1.388 . S
C293 C294 1.366 . S
C294 C293 1.366 . S
C294 C295 1.414 1_554 S
C294 C297 1.499 . S
C295 H269 0.950 . S
C295 C294 1.414 1_556 S
C295 C296 1.374 . S
C296 H270 0.950 . S
C296 C292 1.385 1_556 S
C296 C295 1.374 . S
C297 C294 1.499 . S
C297 C298 1.373 1_554 S
C297 C299 1.389 . S
C298 H271 0.950 . S
C298 C284 1.377 . S
C298 C297 1.373 1_556 S
C299 C283 1.377 . S
C299 C297 1.389 . S
C299 C300 1.524 . S
C300 C299 1.524 . S
C300 C301 1.397 . S
C300 C305 1.363 . S
C301 H272 0.950 . S
C301 C300 1.397 . S
C301 C302 1.334 . S
C302 H273 0.950 . S
C302 C301 1.334 . S
C302 C303 1.287 . S
C303 C302 1.287 . S
C303 C304 1.524 . S
C303 H306 0.999 . S
C304 H274 0.950 . S
C304 C303 1.524 . S
C304 C305 1.415 . S
C305 H275 0.950 . S
C305 C300 1.363 . S
C305 C304 1.415 . S
H306 C303 0.999 . S
H307 C288 0.913 . S
H308 C326 0.951 1_554 S
H309 C328 0.962 . S
H310 C330 0.950 . S
H311 C331 0.950 . S
H312 C333 0.950 . S
H313 C336 0.950 . S
H314 C337 0.950 . S
H315 C339 0.950 1_554 S
H316 C340 0.952 . S
H317 C341 0.951 1_556 S
H318 C343 0.951 . S
H319 C345 0.950 . S
H320 C346 0.950 . S
H321 C348 0.952 . S
H322 C351 0.950 . S
H323 C352 0.950 . S
H324 C354 0.950 1_556 S
H325 C355 0.977 . S
C326 H308 0.951 1_556 S
C326 C327 1.366 . S
C326 C328 1.385 1_556 S
C327 C326 1.366 . S
C327 C331 1.385 . S
C328 H309 0.962 . S
C328 C326 1.385 1_554 S
C328 C329 1.357 1_554 S
C329 C328 1.357 1_556 S
C329 C330 1.414 . S
C329 C332 1.499 . S
C330 H310 0.950 . S
C330 C329 1.414 . S
C330 C331 1.374 . S
C331 H311 0.950 . S
C331 C327 1.385 . S
C331 C330 1.374 . S
C332 C329 1.499 . S
C332 C333 1.373 . S
C332 C334 1.389 . S
C333 H312 0.950 . S
C333 C332 1.373 . S
C333 C349 1.377 1_556 S
C334 C332 1.389 . S
C334 C335 1.524 . S
C334 C348 1.370 1_556 S
C335 C334 1.524 . S
C335 C336 1.397 . S
C335 C340 1.362 1_556 S
C336 H313 0.950 . S
C336 C335 1.397 . S
C336 C337 1.334 . S
C337 H314 0.950 . S
C337 C336 1.334 . S
C337 C338 1.287 . S
C338 C337 1.287 . S
C338 C339 1.524 . S
C338 H357 0.913 . S
C339 H315 0.950 1_556 S
C339 C338 1.524 . S
C339 C340 1.414 1_556 S
C340 H316 0.952 . S
C340 C335 1.362 1_554 S
C340 C339 1.414 1_554 S
C341 H317 0.951 1_554 S
C341 C342 1.366 . S
C341 C343 1.388 1_554 S
C342 C341 1.366 . S
C342 C346 1.385 . S
C343 H318 0.951 . S
C343 C341 1.388 1_556 S
C343 C344 1.366 1_556 S
C344 C343 1.366 1_554 S
C344 C345 1.414 . S
C344 C347 1.499 . S
C345 H319 0.950 . S
C345 C344 1.414 . S
C345 C346 1.374 . S
C346 H320 0.950 . S
C346 C342 1.385 . S
C346 C345 1.374 . S
C347 C344 1.499 . S
C347 C348 1.380 . S
C347 C349 1.389 . S
C348 H321 0.952 . S
C348 C334 1.370 1_554 S
C348 C347 1.380 . S
C349 C333 1.377 1_554 S
C349 C347 1.389 . S
C349 C350 1.524 . S
C350 C349 1.524 . S
C350 C351 1.397 . S
C350 C355 1.346 1_554 S
C351 H322 0.950 . S
C351 C350 1.397 . S
C351 C352 1.334 . S
C352 H323 0.950 . S
C352 C351 1.334 . S
C352 C353 1.287 1_655 S
C353 C352 1.287 1_455 S
C353 C354 1.524 . S
C353 H356 0.999 . S
C354 H324 0.950 1_554 S
C354 C353 1.524 . S
C354 C355 1.406 1_454 S
C355 H325 0.977 . S
C355 C350 1.346 1_556 S
C355 C354 1.406 1_656 S
H356 C353 0.999 . S
H357 C338 0.913 . S
H358 C376 0.951 . S
H359 C378 0.951 . S
H360 C380 0.950 . S
H361 C381 0.950 . S
H362 C383 0.950 . S
H363 C386 0.950 . S
H364 C387 0.950 . S
H365 C389 0.950 . S
H366 C390 0.950 . S
H367 C391 0.951 . S
H368 C393 0.951 . S
H369 C395 0.950 . S
H370 C396 0.950 . S
H371 C398 0.950 . S
H372 C401 0.950 . S
H373 C402 0.950 . S
H374 C404 0.950 . S
H375 C405 0.950 . S
C376 H358 0.951 . S
C376 C377 1.366 . S
C376 C378 1.388 . S
C377 C376 1.366 . S
C377 C381 1.385 . S
C378 H359 0.951 . S
C378 C376 1.388 . S
C378 C379 1.366 . S
C379 C378 1.366 . S
C379 C380 1.414 . S
C379 C382 1.499 . S
C380 H360 0.950 . S
C380 C379 1.414 . S
C380 C381 1.374 . S
C381 H361 0.950 . S
C381 C377 1.385 . S
C381 C380 1.374 . S
C382 C379 1.499 . S
C382 C383 1.373 1_556 S
C382 C384 1.389 . S
C383 H362 0.950 . S
C383 C382 1.373 1_554 S
C383 C399 1.377 . S
C384 C382 1.389 . S
C384 C385 1.524 . S
C384 C398 1.377 . S
C385 C384 1.524 . S
C385 C386 1.397 . S
C385 C390 1.363 . S
C386 H363 0.950 . S
C386 C385 1.397 . S
C386 C387 1.334 . S
C387 H364 0.950 . S
C387 C386 1.334 . S
C387 C388 1.287 . S
C388 C387 1.287 . S
C388 C389 1.524 . S
C388 H407 0.913 . S
C389 H365 0.950 . S
C389 C388 1.524 . S
C389 C390 1.415 . S
C390 H366 0.950 . S
C390 C385 1.363 . S
C390 C389 1.415 . S
C391 H367 0.951 . S
C391 C392 1.366 . S
C391 C393 1.388 . S
C392 C391 1.366 . S
C392 C396 1.385 . S
C393 H368 0.951 . S
C393 C391 1.388 . S
C393 C394 1.366 . S
C394 C393 1.366 . S
C394 C395 1.414 . S
C394 C397 1.499 . S
C395 H369 0.950 . S
C395 C394 1.414 . S
C395 C396 1.374 . S
C396 H370 0.950 . S
C396 C392 1.385 . S
C396 C395 1.374 . S
C397 C394 1.499 . S
C397 C398 1.373 1_554 S
C397 C399 1.389 . S
C398 H371 0.950 . S
C398 C384 1.377 . S
C398 C397 1.373 1_556 S
C399 C383 1.377 . S
C399 C397 1.389 . S
C399 C400 1.524 . S
C400 C399 1.524 . S
C400 C401 1.397 . S
C400 C405 1.363 . S
C401 H372 0.950 . S
C401 C400 1.397 . S
C401 C402 1.334 . S
C402 H373 0.950 . S
C402 C401 1.334 . S
C402 C403 1.287 . S
C403 C402 1.287 . S
C403 C404 1.524 . S
C403 H406 0.999 . S
C404 H374 0.950 . S
C404 C403 1.524 . S
C404 C405 1.415 . S
C405 H375 0.950 . S
C405 C400 1.363 . S
C405 C404 1.415 . S
H406 C403 0.999 . S
H407 C388 0.913 . S
H408 C426 0.951 . S
H409 C428 0.951 . S
H410 C430 0.950 . S
H411 C431 0.950 . S
H412 C433 0.950 . S
H413 C436 0.950 . S
H414 C437 0.950 . S
H415 C439 0.950 . S
H416 C440 0.950 . S
H417 C441 0.951 . S
H418 C443 0.951 . S
H419 C445 0.950 . S
H420 C446 0.950 . S
H421 C448 0.950 . S
H422 C451 0.950 . S
H423 C452 0.950 . S
H424 C454 0.950 . S
H425 C455 0.950 . S
C426 H408 0.951 . S
C426 C427 1.366 . S
C426 C428 1.388 . S
C427 C426 1.366 . S
C427 C431 1.385 . S
C428 H409 0.951 . S
C428 C426 1.388 . S
C428 C429 1.366 . S
C429 C428 1.366 . S
C429 C430 1.414 . S
C429 C432 1.499 . S
C430 H410 0.950 . S
C430 C429 1.414 . S
C430 C431 1.374 . S
C431 H411 0.950 . S
C431 C427 1.385 . S
C431 C430 1.374 . S
C432 C429 1.499 . S
C432 C433 1.373 . S
C432 C434 1.389 . S
C433 H412 0.950 . S
C433 C432 1.373 . S
C433 C449 1.377 . S
C434 C432 1.389 . S
C434 C435 1.524 . S
C434 C448 1.377 . S
C435 C434 1.524 . S
C435 C436 1.397 . S
C435 C440 1.363 . S
C436 H413 0.950 . S
C436 C435 1.397 . S
C436 C437 1.334 . S
C437 H414 0.950 . S
C437 C436 1.334 . S
C437 C438 1.287 . S
C438 C437 1.287 . S
C438 C439 1.524 . S
C438 H457 0.913 . S
C439 H415 0.950 . S
C439 C438 1.524 . S
C439 C440 1.415 . S
C440 H416 0.950 . S
C440 C435 1.363 . S
C440 C439 1.415 . S
C441 H417 0.951 . S
C441 C442 1.366 . S
C441 C443 1.388 . S
C442 C441 1.366 . S
C442 C446 1.385 . S
C443 H418 0.951 . S
C443 C441 1.388 . S
C443 C444 1.366 . S
C444 C443 1.366 . S
C444 C445 1.414 . S
C444 C447 1.499 . S
C445 H419 0.950 . S
C445 C444 1.414 . S
C445 C446 1.374 . S
C446 H420 0.950 . S
C446 C442 1.385 . S
C446 C445 1.374 . S
C447 C444 1.499 . S
C447 C448 1.373 . S
C447 C449 1.389 . S
C448 H421 0.950 . S
C448 C434 1.377 . S
C448 C447 1.373 . S
C449 C433 1.377 . S
C449 C447 1.389 . S
C449 C450 1.524 . S
C450 C449 1.524 . S
C450 C451 1.397 . S
C450 C455 1.363 . S
C451 H422 0.950 . S
C451 C450 1.397 . S
C451 C452 1.334 . S
C452 H423 0.950 . S
C452 C451 1.334 . S
C452 C453 1.287 . S
C453 C452 1.287 . S
C453 C454 1.524 . S
C453 H456 0.999 . S
C454 H424 0.950 . S
C454 C453 1.524 . S
C454 C455 1.415 . S
C455 H425 0.950 . S
C455 C450 1.363 . S
C455 C454 1.415 . S
H456 C453 0.999 . S
H457 C438 0.913 . S
H458 C476 0.951 . S
H459 C478 0.951 . S
H460 C480 0.950 . S
H461 C481 0.950 . S
H462 C483 0.950 . S
H463 C486 0.950 . S
H464 C487 0.950 . S
H465 C489 0.950 . S
H466 C490 0.950 . S
H467 C491 0.951 . S
H468 C493 0.951 . S
H469 C495 0.950 . S
H470 C496 0.950 . S
H471 C498 0.950 . S
H472 C501 0.950 . S
H473 C502 0.950 . S
H474 C504 0.950 . S
H475 C505 0.950 . S
C476 H458 0.951 . S
C476 C477 1.366 . S
C476 C478 1.388 . S
C477 C476 1.366 . S
C477 C481 1.385 . S
C478 H459 0.951 . S
C478 C476 1.388 . S
C478 C479 1.366 . S
C479 C478 1.366 . S
C479 C480 1.414 . S
C479 C482 1.499 . S
C480 H460 0.950 . S
C480 C479 1.414 . S
C480 C481 1.374 . S
C481 H461 0.950 . S
C481 C477 1.385 . S
C481 C480 1.374 . S
C482 C479 1.499 . S
C482 C483 1.373 . S
C482 C484 1.389 . S
C483 H462 0.950 . S
C483 C482 1.373 . S
C483 C499 1.377 . S
C484 C482 1.389 . S
C484 C485 1.524 . S
C484 C498 1.377 . S
C485 C484 1.524 . S
C485 C486 1.397 . S
C485 C490 1.363 . S
C486 H463 0.950 . S
C486 C485 1.397 . S
C486 C487 1.334 . S
C487 H464 0.950 . S
C487 C486 1.334 . S
C487 C488 1.287 . S
C488 C487 1.287 . S
C488 C489 1.524 . S
C488 H507 0.913 . S
C489 H465 0.950 . S
C489 C488 1.524 . S
C489 C490 1.415 . S
C490 H466 0.950 . S
C490 C485 1.363 . S
C490 C489 1.415 . S
C491 H467 0.951 . S
C491 C492 1.366 . S
C491 C493 1.388 . S
C492 C491 1.366 . S
C492 C496 1.385 . S
C493 H468 0.951 . S
C493 C491 1.388 . S
C493 C494 1.366 . S
C494 C493 1.366 . S
C494 C495 1.414 . S
C494 C497 1.499 . S
C495 H469 0.950 . S
C495 C494 1.414 . S
C495 C496 1.374 . S
C496 H470 0.950 . S
C496 C492 1.385 . S
C496 C495 1.374 . S
C497 C494 1.499 . S
C497 C498 1.373 . S
C497 C499 1.389 . S
C498 H471 0.950 . S
C498 C484 1.377 . S
C498 C497 1.373 . S
C499 C483 1.377 . S
C499 C497 1.389 . S
C499 C500 1.524 . S
C500 C499 1.524 . S
C500 C501 1.397 . S
C500 C505 1.363 . S
C501 H472 0.950 . S
C501 C500 1.397 . S
C501 C502 1.334 . S
C502 H473 0.950 . S
C502 C501 1.334 . S
C502 C503 1.287 . S
C503 C502 1.287 . S
C503 C504 1.524 . S
C503 H506 0.999 . S
C504 H474 0.950 . S
C504 C503 1.524 . S
C504 C505 1.415 . S
C505 H475 0.950 . S
C505 C500 1.363 . S
C505 C504 1.415 . S
H506 C503 0.999 . S
H507 C488 0.913 . S
H508 C526 0.951 . S
H509 C528 0.951 . S
H510 C530 0.950 . S
H511 C531 0.950 . S
H512 C533 0.950 . S
H513 C536 0.950 . S
H514 C537 0.950 . S
H515 C539 0.950 . S
H516 C540 0.950 . S
H517 C541 0.951 . S
H518 C543 0.951 . S
H519 C545 0.950 . S
H520 C546 0.950 . S
H521 C548 0.950 . S
H522 C551 0.950 . S
H523 C552 0.950 . S
H524 C554 0.950 . S
H525 C555 0.950 . S
C526 H508 0.951 . S
C526 C527 1.366 . S
C526 C528 1.388 . S
C527 C526 1.366 . S
C527 C531 1.385 . S
C528 H509 0.951 . S
C528 C526 1.388 . S
C528 C529 1.366 . S
C529 C528 1.366 . S
C529 C530 1.414 . S
C529 C532 1.499 . S
C530 H510 0.950 . S
C530 C529 1.414 . S
C530 C531 1.374 . S
C531 H511 0.950 . S
C531 C527 1.385 . S
C531 C530 1.374 . S
C532 C529 1.499 . S
C532 C533 1.373 . S
C532 C534 1.389 . S
C533 H512 0.950 . S
C533 C532 1.373 . S
C533 C549 1.377 . S
C534 C532 1.389 . S
C534 C535 1.524 . S
C534 C548 1.377 . S
C535 C534 1.524 . S
C535 C536 1.397 . S
C535 C540 1.363 . S
C536 H513 0.950 . S
C536 C535 1.397 . S
C536 C537 1.334 . S
C537 H514 0.950 . S
C537 C536 1.334 . S
C537 C538 1.287 . S
C538 C537 1.287 . S
C538 C539 1.524 . S
C538 H557 0.913 . S
C539 H515 0.950 . S
C539 C538 1.524 . S
C539 C540 1.415 . S
C540 H516 0.950 . S
C540 C535 1.363 . S
C540 C539 1.415 . S
C541 H517 0.951 . S
C541 C542 1.366 . S
C541 C543 1.388 . S
C542 C541 1.366 . S
C542 C546 1.385 . S
C543 H518 0.951 . S
C543 C541 1.388 . S
C543 C544 1.366 . S
C544 C543 1.366 . S
C544 C545 1.414 . S
C544 C547 1.499 . S
C545 H519 0.950 . S
C545 C544 1.414 . S
C545 C546 1.374 . S
C546 H520 0.950 . S
C546 C542 1.385 . S
C546 C545 1.374 . S
C547 C544 1.499 . S
C547 C548 1.373 . S
C547 C549 1.389 . S
C548 H521 0.950 . S
C548 C534 1.377 . S
C548 C547 1.373 . S
C549 C533 1.377 . S
C549 C547 1.389 . S
C549 C550 1.524 . S
C550 C549 1.524 . S
C550 C551 1.397 . S
C550 C555 1.363 . S
C551 H522 0.950 . S
C551 C550 1.397 . S
C551 C552 1.334 . S
C552 H523 0.950 . S
C552 C551 1.334 . S
C552 C553 1.287 . S
C553 C552 1.287 . S
C553 C554 1.524 . S
C553 H556 0.999 . S
C554 H524 0.950 . S
C554 C553 1.524 . S
C554 C555 1.415 . S
C555 H525 0.950 . S
C555 C550 1.363 . S
C555 C554 1.415 . S
H556 C553 0.999 . S
H557 C538 0.913 . S
H558 C576 0.951 . S
H559 C578 0.951 . S
H560 C580 0.950 . S
H561 C581 0.950 . S
H562 C583 0.950 . S
H563 C586 0.950 . S
H564 C587 0.950 . S
H565 C589 0.950 . S
H566 C590 0.950 . S
H567 C591 0.951 . S
H568 C593 0.951 . S
H569 C595 0.950 . S
H570 C596 0.950 . S
H571 C598 0.950 . S
H572 C601 0.950 . S
H573 C602 0.950 . S
H574 C604 0.950 . S
H575 C605 0.950 . S
C576 H558 0.951 . S
C576 C577 1.366 . S
C576 C578 1.388 . S
C577 C576 1.366 . S
C577 C581 1.385 . S
C578 H559 0.951 . S
C578 C576 1.388 . S
C578 C579 1.366 . S
C579 C578 1.366 . S
C579 C580 1.414 . S
C579 C582 1.499 . S
C580 H560 0.950 . S
C580 C579 1.414 . S
C580 C581 1.374 . S
C581 H561 0.950 . S
C581 C577 1.385 . S
C581 C580 1.374 . S
C582 C579 1.499 . S
C582 C583 1.373 . S
C582 C584 1.389 . S
C583 H562 0.950 . S
C583 C582 1.373 . S
C583 C599 1.377 . S
C584 C582 1.389 . S
C584 C585 1.524 . S
C584 C598 1.377 . S
C585 C584 1.524 . S
C585 C586 1.397 . S
C585 C590 1.363 . S
C586 H563 0.950 . S
C586 C585 1.397 . S
C586 C587 1.334 . S
C587 H564 0.950 . S
C587 C586 1.334 . S
C587 C588 1.287 . S
C588 C587 1.287 . S
C588 C589 1.524 . S
C588 H607 0.913 . S
C589 H565 0.950 . S
C589 C588 1.524 . S
C589 C590 1.415 . S
C590 H566 0.950 . S
C590 C585 1.363 . S
C590 C589 1.415 . S
C591 H567 0.951 . S
C591 C592 1.366 . S
C591 C593 1.388 . S
C592 C591 1.366 . S
C592 C596 1.385 . S
C593 H568 0.951 . S
C593 C591 1.388 . S
C593 C594 1.366 . S
C594 C593 1.366 . S
C594 C595 1.414 . S
C594 C597 1.499 . S
C595 H569 0.950 . S
C595 C594 1.414 . S
C595 C596 1.374 . S
C596 H570 0.950 . S
C596 C592 1.385 . S
C596 C595 1.374 . S
C597 C594 1.499 . S
C597 C598 1.373 . S
C597 C599 1.389 . S
C598 H571 0.950 . S
C598 C584 1.377 . S
C598 C597 1.373 . S
C599 C583 1.377 . S
C599 C597 1.389 . S
C599 C600 1.524 . S
C600 C599 1.524 . S
C600 C601 1.397 . S
C600 C605 1.363 . S
C601 H572 0.950 . S
C601 C600 1.397 . S
C601 C602 1.334 . S
C602 H573 0.950 . S
C602 C601 1.334 . S
C602 C603 1.287 . S
C603 C602 1.287 . S
C603 C604 1.524 . S
C603 H606 0.999 . S
C604 H574 0.950 . S
C604 C603 1.524 . S
C604 C605 1.415 . S
C605 H575 0.950 . S
C605 C600 1.363 . S
C605 C604 1.415 . S
H606 C603 0.999 . S
H607 C588 0.913 . S
H608 C626 0.951 . S
H609 C628 0.951 . S
H610 C630 0.950 . S
H611 C631 0.950 . S
H612 C633 0.950 . S
H613 C636 0.950 . S
H614 C637 0.950 . S
H615 C639 0.950 . S
H616 C640 0.950 . S
H617 C641 0.951 . S
H618 C643 0.951 . S
H619 C645 0.950 . S
H620 C646 0.950 . S
H621 C648 0.950 . S
H622 C651 0.950 . S
H623 C652 0.950 . S
H624 C654 0.950 . S
H625 C655 0.950 . S
C626 H608 0.951 . S
C626 C627 1.366 . S
C626 C628 1.388 . S
C627 C626 1.366 . S
C627 C631 1.385 . S
C628 H609 0.951 . S
C628 C626 1.388 . S
C628 C629 1.366 . S
C629 C628 1.366 . S
C629 C630 1.414 . S
C629 C632 1.499 . S
C630 H610 0.950 . S
C630 C629 1.414 . S
C630 C631 1.374 . S
C631 H611 0.950 . S
C631 C627 1.385 . S
C631 C630 1.374 . S
C632 C629 1.499 . S
C632 C633 1.373 . S
C632 C634 1.389 1_556 S
C633 H612 0.950 . S
C633 C632 1.373 . S
C633 C649 1.377 . S
C634 C632 1.389 1_554 S
C634 C635 1.524 . S
C634 C648 1.377 . S
C635 C634 1.524 . S
C635 C636 1.397 . S
C635 C640 1.363 . S
C636 H613 0.950 . S
C636 C635 1.397 . S
C636 C637 1.334 . S
C637 H614 0.950 . S
C637 C636 1.334 . S
C637 C638 1.287 . S
C638 C637 1.287 . S
C638 C639 1.524 . S
C638 H657 0.913 . S
C639 H615 0.950 . S
C639 C638 1.524 . S
C639 C640 1.415 . S
C640 H616 0.950 . S
C640 C635 1.363 . S
C640 C639 1.415 . S
C641 H617 0.951 . S
C641 C642 1.366 . S
C641 C643 1.388 . S
C642 C641 1.366 . S
C642 C646 1.385 . S
C643 H618 0.951 . S
C643 C641 1.388 . S
C643 C644 1.366 . S
C644 C643 1.366 . S
C644 C645 1.414 . S
C644 C647 1.499 . S
C645 H619 0.950 . S
C645 C644 1.414 . S
C645 C646 1.374 . S
C646 H620 0.950 . S
C646 C642 1.385 . S
C646 C645 1.374 . S
C647 C644 1.499 . S
C647 C648 1.373 . S
C647 C649 1.389 1_554 S
C648 H621 0.950 . S
C648 C634 1.377 . S
C648 C647 1.373 . S
C649 C633 1.377 . S
C649 C647 1.389 1_556 S
C649 C650 1.524 . S
C650 C649 1.524 . S
C650 C651 1.397 . S
C650 C655 1.363 . S
C651 H622 0.950 . S
C651 C650 1.397 . S
C651 C652 1.334 . S
C652 H623 0.950 . S
C652 C651 1.334 . S
C652 C653 1.287 . S
C653 C652 1.287 . S
C653 C654 1.524 . S
C653 H656 0.999 . S
C654 H624 0.950 . S
C654 C653 1.524 . S
C654 C655 1.415 . S
C655 H625 0.950 . S
C655 C650 1.363 . S
C655 C654 1.415 . S
H656 C653 0.999 . S
H657 C638 0.913 . S
H658 C676 0.951 . S
H659 C678 0.951 . S
H660 C680 0.950 . S
H661 C681 0.950 . S
H662 C683 0.950 . S
H663 C686 0.950 . S
H664 C687 0.950 . S
H665 C689 0.950 . S
H666 C690 0.950 . S
H667 C691 0.951 . S
H668 C693 0.951 . S
H669 C695 0.950 . S
H670 C696 0.950 . S
H671 C698 0.950 . S
H672 C701 0.950 . S
H673 C702 0.950 . S
H674 C704 0.950 . S
H675 C705 0.950 . S
C676 H658 0.951 . S
C676 C677 1.366 . S
C676 C678 1.388 . S
C677 C676 1.366 . S
C677 C681 1.385 . S
C678 H659 0.951 . S
C678 C676 1.388 . S
C678 C679 1.366 . S
C679 C678 1.366 . S
C679 C680 1.414 . S
C679 C682 1.499 . S
C680 H660 0.950 . S
C680 C679 1.414 . S
C680 C681 1.374 . S
C681 H661 0.950 . S
C681 C677 1.385 . S
C681 C680 1.374 . S
C682 C679 1.499 . S
C682 C683 1.373 1_556 S
C682 C684 1.389 . S
C683 H662 0.950 . S
C683 C682 1.373 1_554 S
C683 C699 1.377 . S
C684 C682 1.389 . S
C684 C685 1.524 . S
C684 C698 1.377 . S
C685 C684 1.524 . S
C685 C686 1.397 . S
C685 C690 1.363 . S
C686 H663 0.950 . S
C686 C685 1.397 . S
C686 C687 1.334 . S
C687 H664 0.950 . S
C687 C686 1.334 . S
C687 C688 1.287 . S
C688 C687 1.287 . S
C688 C689 1.524 . S
C688 H707 0.913 . S
C689 H665 0.950 . S
C689 C688 1.524 . S
C689 C690 1.415 . S
C690 H666 0.950 . S
C690 C685 1.363 . S
C690 C689 1.415 . S
C691 H667 0.951 . S
C691 C692 1.366 . S
C691 C693 1.388 . S
C692 C691 1.366 . S
C692 C696 1.385 . S
C693 H668 0.951 . S
C693 C691 1.388 . S
C693 C694 1.366 . S
C694 C693 1.366 . S
C694 C695 1.414 . S
C694 C697 1.499 . S
C695 H669 0.950 . S
C695 C694 1.414 . S
C695 C696 1.374 . S
C696 H670 0.950 . S
C696 C692 1.385 . S
C696 C695 1.374 . S
C697 C694 1.499 . S
C697 C698 1.373 1_554 S
C697 C699 1.389 . S
C698 H671 0.950 . S
C698 C684 1.377 . S
C698 C697 1.373 1_556 S
C699 C683 1.377 . S
C699 C697 1.389 . S
C699 C700 1.524 . S
C700 C699 1.524 . S
C700 C701 1.397 . S
C700 C705 1.363 . S
C701 H672 0.950 . S
C701 C700 1.397 . S
C701 C702 1.334 . S
C702 H673 0.950 . S
C702 C701 1.334 . S
C702 C703 1.287 . S
C703 C702 1.287 . S
C703 C704 1.524 . S
C703 H706 0.999 . S
C704 H674 0.950 . S
C704 C703 1.524 . S
C704 C705 1.415 . S
C705 H675 0.950 . S
C705 C700 1.363 . S
C705 C704 1.415 . S
H706 C703 0.999 . S
H707 C688 0.913 . S
H708 C726 0.937 1_554 S
H709 C728 0.951 . S
H710 C730 0.950 . S
H711 C731 0.950 . S
H712 C733 0.950 . S
H713 C736 0.950 . S
H714 C737 0.950 . S
H715 C739 0.950 . S
H716 C740 0.950 . S
H717 C741 0.951 1_556 S
H718 C743 0.951 . S
H719 C745 0.950 . S
H720 C746 0.950 . S
H721 C748 0.950 . S
H722 C751 0.950 . S
H723 C752 0.950 . S
H724 C754 0.950 . S
H725 C755 0.950 . S
C726 H708 0.937 1_556 S
C726 C727 1.384 . S
C726 C728 1.384 1_556 S
C727 C726 1.384 . S
C727 C731 1.385 . S
C728 H709 0.951 . S
C728 C726 1.384 1_554 S
C728 C729 1.366 1_554 S
C729 C728 1.366 1_556 S
C729 C730 1.414 . S
C729 C732 1.499 . S
C730 H710 0.950 . S
C730 C729 1.414 . S
C730 C731 1.374 . S
C731 H711 0.950 . S
C731 C727 1.385 . S
C731 C730 1.374 . S
C732 C729 1.499 . S
C732 C733 1.373 . S
C732 C734 1.389 . S
C733 H712 0.950 . S
C733 C732 1.373 . S
C733 C749 1.377 1_556 S
C734 C732 1.389 . S
C734 C735 1.524 . S
C734 C748 1.377 1_556 S
C735 C734 1.524 . S
C735 C736 1.397 . S
C735 C740 1.363 1_556 S
C736 H713 0.950 . S
C736 C735 1.397 . S
C736 C737 1.334 1_455 S
C737 H714 0.950 . S
C737 C736 1.334 1_655 S
C737 C738 1.287 . S
C738 C737 1.287 . S
C738 C739 1.524 1_556 S
C738 H757 0.913 . S
C739 H715 0.950 . S
C739 C738 1.524 1_554 S
C739 C740 1.415 1_655 S
C740 H716 0.950 . S
C740 C735 1.363 1_554 S
C740 C739 1.415 1_455 S
C741 H717 0.951 1_554 S
C741 C742 1.366 . S
C741 C743 1.388 1_554 S
C742 C741 1.366 . S
C742 C746 1.385 . S
C743 H718 0.951 . S
C743 C741 1.388 1_556 S
C743 C744 1.366 1_556 S
C744 C743 1.366 1_554 S
C744 C745 1.414 . S
C744 C747 1.499 . S
C745 H719 0.950 . S
C745 C744 1.414 . S
C745 C746 1.374 . S
C746 H720 0.950 . S
C746 C742 1.385 . S
C746 C745 1.374 . S
C747 C744 1.499 . S
C747 C748 1.373 . S
C747 C749 1.389 . S
C748 H721 0.950 . S
C748 C734 1.377 1_554 S
C748 C747 1.373 . S
C749 C733 1.377 1_554 S
C749 C747 1.389 . S
C749 C750 1.524 . S
C750 C749 1.524 . S
C750 C751 1.397 . S
C750 C755 1.363 1_554 S
C751 H722 0.950 . S
C751 C750 1.397 . S
C751 C752 1.334 . S
C752 H723 0.950 . S
C752 C751 1.334 . S
C752 C753 1.287 . S
C753 C752 1.287 . S
C753 C754 1.524 1_554 S
C753 H756 0.999 . S
C754 H724 0.950 . S
C754 C753 1.524 1_556 S
C754 C755 1.415 . S
C755 H725 0.950 . S
C755 C750 1.363 1_556 S
C755 C754 1.415 . S
H756 C753 0.999 . S
H757 C738 0.913 . S
H758 C776 0.951 . S
H759 C778 0.951 . S
H760 C780 0.950 . S
H761 C781 0.950 . S
H762 C783 0.950 . S
H763 C786 0.950 . S
H764 C787 0.950 . S
H765 C789 0.950 . S
H766 C790 0.950 . S
H767 C791 0.951 . S
H768 C793 0.951 . S
H769 C795 0.950 . S
H770 C796 0.950 . S
H771 C798 0.950 . S
H772 C801 0.950 . S
H773 C802 0.950 . S
H774 C804 0.950 . S
H775 C805 0.950 . S
C776 H758 0.951 . S
C776 C777 1.366 . S
C776 C778 1.388 . S
C777 C776 1.366 . S
C777 C781 1.385 . S
C778 H759 0.951 . S
C778 C776 1.388 . S
C778 C779 1.366 . S
C779 C778 1.366 . S
C779 C780 1.414 . S
C779 C782 1.499 . S
C780 H760 0.950 . S
C780 C779 1.414 . S
C780 C781 1.374 . S
C781 H761 0.950 . S
C781 C777 1.385 . S
C781 C780 1.374 . S
C782 C779 1.499 . S
C782 C783 1.373 . S
C782 C784 1.389 1_554 S
C783 H762 0.950 . S
C783 C782 1.373 . S
C783 C799 1.377 . S
C784 C782 1.389 1_556 S
C784 C785 1.524 . S
C784 C798 1.377 . S
C785 C784 1.524 . S
C785 C786 1.397 . S
C785 C790 1.363 . S
C786 H763 0.950 . S
C786 C785 1.397 . S
C786 C787 1.334 . S
C787 H764 0.950 . S
C787 C786 1.334 . S
C787 C788 1.287 . S
C788 C787 1.287 . S
C788 C789 1.524 . S
C788 H807 0.913 . S
C789 H765 0.950 . S
C789 C788 1.524 . S
C789 C790 1.415 . S
C790 H766 0.950 . S
C790 C785 1.363 . S
C790 C789 1.415 . S
C791 H767 0.951 . S
C791 C792 1.366 . S
C791 C793 1.388 . S
C792 C791 1.366 . S
C792 C796 1.385 . S
C793 H768 0.951 . S
C793 C791 1.388 . S
C793 C794 1.366 . S
C794 C793 1.366 . S
C794 C795 1.414 . S
C794 C797 1.499 . S
C795 H769 0.950 . S
C795 C794 1.414 . S
C795 C796 1.374 . S
C796 H770 0.950 . S
C796 C792 1.385 . S
C796 C795 1.374 . S
C797 C794 1.499 . S
C797 C798 1.373 . S
C797 C799 1.389 1_556 S
C798 H771 0.950 . S
C798 C784 1.377 . S
C798 C797 1.373 . S
C799 C783 1.377 . S
C799 C797 1.389 1_554 S
C799 C800 1.524 . S
C800 C799 1.524 . S
C800 C801 1.397 . S
C800 C805 1.363 . S
C801 H772 0.950 . S
C801 C800 1.397 . S
C801 C802 1.334 . S
C802 H773 0.950 . S
C802 C801 1.334 . S
C802 C803 1.287 . S
C803 C802 1.287 . S
C803 C804 1.524 . S
C803 H806 0.999 . S
C804 H774 0.950 . S
C804 C803 1.524 . S
C804 C805 1.415 . S
C805 H775 0.950 . S
C805 C800 1.363 . S
C805 C804 1.415 . S
H806 C803 0.999 . S
H807 C788 0.913 . S
H808 C826 0.951 . S
H809 C828 0.951 . S
H810 C830 0.950 . S
H811 C831 0.950 . S
H812 C833 0.950 . S
H813 C836 0.950 . S
H814 C837 0.950 . S
H815 C839 0.950 . S
H816 C840 0.950 . S
H817 C841 0.951 . S
H818 C843 0.951 . S
H819 C845 0.950 . S
H820 C846 0.950 . S
H821 C848 0.950 . S
H822 C851 0.950 . S
H823 C852 0.950 . S
H824 C854 0.950 . S
H825 C855 0.950 . S
C826 H808 0.951 . S
C826 C827 1.366 . S
C826 C828 1.388 . S
C827 C826 1.366 . S
C827 C831 1.385 . S
C828 H809 0.951 . S
C828 C826 1.388 . S
C828 C829 1.366 . S
C829 C828 1.366 . S
C829 C830 1.414 . S
C829 C832 1.499 . S
C830 H810 0.950 . S
C830 C829 1.414 . S
C830 C831 1.374 . S
C831 H811 0.950 . S
C831 C827 1.385 . S
C831 C830 1.374 . S
C832 C829 1.499 . S
C832 C833 1.373 . S
C832 C834 1.389 . S
C833 H812 0.950 . S
C833 C832 1.373 . S
C833 C849 1.377 . S
C834 C832 1.389 . S
C834 C835 1.524 . S
C834 C848 1.377 . S
C835 C834 1.524 . S
C835 C836 1.397 . S
C835 C840 1.363 . S
C836 H813 0.950 . S
C836 C835 1.397 . S
C836 C837 1.334 . S
C837 H814 0.950 . S
C837 C836 1.334 . S
C837 C838 1.287 . S
C838 C837 1.287 . S
C838 C839 1.524 . S
C838 H857 0.913 . S
C839 H815 0.950 . S
C839 C838 1.524 . S
C839 C840 1.415 . S
C840 H816 0.950 . S
C840 C835 1.363 . S
C840 C839 1.415 . S
C841 H817 0.951 . S
C841 C842 1.366 . S
C841 C843 1.388 . S
C842 C841 1.366 . S
C842 C846 1.385 . S
C843 H818 0.951 . S
C843 C841 1.388 . S
C843 C844 1.366 . S
C844 C843 1.366 . S
C844 C845 1.414 . S
C844 C847 1.499 . S
C845 H819 0.950 . S
C845 C844 1.414 . S
C845 C846 1.374 . S
C846 H820 0.950 . S
C846 C842 1.385 . S
C846 C845 1.374 . S
C847 C844 1.499 . S
C847 C848 1.373 . S
C847 C849 1.389 . S
C848 H821 0.950 . S
C848 C834 1.377 . S
C848 C847 1.373 . S
C849 C833 1.377 . S
C849 C847 1.389 . S
C849 C850 1.524 . S
C850 C849 1.524 . S
C850 C851 1.397 . S
C850 C855 1.363 . S
C851 H822 0.950 . S
C851 C850 1.397 . S
C851 C852 1.334 . S
C852 H823 0.950 . S
C852 C851 1.334 . S
C852 C853 1.287 . S
C853 C852 1.287 . S
C853 C854 1.524 . S
C853 H856 0.999 . S
C854 H824 0.950 . S
C854 C853 1.524 . S
C854 C855 1.415 . S
C855 H825 0.950 . S
C855 C850 1.363 . S
C855 C854 1.415 . S
H856 C853 0.999 . S
H857 C838 0.913 . S
H858 C876 0.951 . S
H859 C878 0.951 . S
H860 C880 0.950 . S
H861 C881 0.950 . S
H862 C883 0.950 . S
H863 C886 0.950 . S
H864 C887 0.950 . S
H865 C889 0.950 . S
H866 C890 0.950 . S
H867 C891 0.951 . S
H868 C893 0.951 . S
H869 C895 0.950 . S
H870 C896 0.950 . S
H871 C898 0.950 . S
H872 C901 0.950 . S
H873 C902 0.950 . S
H874 C904 0.950 . S
H875 C905 0.950 . S
C876 H858 0.951 . S
C876 C877 1.366 . S
C876 C878 1.388 . S
C877 C876 1.366 . S
C877 C881 1.385 . S
C878 H859 0.951 . S
C878 C876 1.388 . S
C878 C879 1.366 . S
C879 C878 1.366 . S
C879 C880 1.414 . S
C879 C882 1.499 . S
C880 H860 0.950 . S
C880 C879 1.414 . S
C880 C881 1.374 . S
C881 H861 0.950 . S
C881 C877 1.385 . S
C881 C880 1.374 . S
C882 C879 1.499 . S
C882 C883 1.373 . S
C882 C884 1.389 . S
C883 H862 0.950 . S
C883 C882 1.373 . S
C883 C899 1.377 . S
C884 C882 1.389 . S
C884 C885 1.524 . S
C884 C898 1.377 . S
C885 C884 1.524 . S
C885 C886 1.397 . S
C885 C890 1.363 . S
C886 H863 0.950 . S
C886 C885 1.397 . S
C886 C887 1.334 . S
C887 H864 0.950 . S
C887 C886 1.334 . S
C887 C888 1.287 . S
C888 C887 1.287 . S
C888 C889 1.524 . S
C888 H907 0.913 . S
C889 H865 0.950 . S
C889 C888 1.524 . S
C889 C890 1.415 . S
C890 H866 0.950 . S
C890 C885 1.363 . S
C890 C889 1.415 . S
C891 H867 0.951 . S
C891 C892 1.366 . S
C891 C893 1.388 . S
C892 C891 1.366 . S
C892 C896 1.385 . S
C893 H868 0.951 . S
C893 C891 1.388 . S
C893 C894 1.366 . S
C894 C893 1.366 . S
C894 C895 1.414 . S
C894 C897 1.499 . S
C895 H869 0.950 . S
C895 C894 1.414 . S
C895 C896 1.374 . S
C896 H870 0.950 . S
C896 C892 1.385 . S
C896 C895 1.374 . S
C897 C894 1.499 . S
C897 C898 1.373 . S
C897 C899 1.389 . S
C898 H871 0.950 . S
C898 C884 1.377 . S
C898 C897 1.373 . S
C899 C883 1.377 . S
C899 C897 1.389 . S
C899 C900 1.524 . S
C900 C899 1.524 . S
C900 C901 1.397 . S
C900 C905 1.363 . S
C901 H872 0.950 . S
C901 C900 1.397 . S
C901 C902 1.334 . S
C902 H873 0.950 . S
C902 C901 1.334 . S
C902 C903 1.287 . S
C903 C902 1.287 . S
C903 C904 1.524 . S
C903 H906 0.999 . S
C904 H874 0.950 . S
C904 C903 1.524 . S
C904 C905 1.415 . S
C905 H875 0.950 . S
C905 C900 1.363 . S
C905 C904 1.415 . S
H906 C903 0.999 . S
H907 C888 0.913 . S
H908 C926 0.951 . S
H909 C928 0.951 . S
H910 C930 0.950 . S
H911 C931 0.950 . S
H912 C933 0.950 . S
H913 C936 0.950 . S
H914 C937 0.950 . S
H915 C939 0.950 . S
H916 C940 0.950 . S
H917 C941 0.951 . S
H918 C943 0.951 . S
H919 C945 0.950 . S
H920 C946 0.950 . S
H921 C948 0.950 . S
H922 C951 0.950 . S
H923 C952 0.950 . S
H924 C954 0.950 . S
H925 C955 0.950 . S
C926 H908 0.951 . S
C926 C927 1.366 . S
C926 C928 1.388 . S
C927 C926 1.366 . S
C927 C931 1.385 . S
C928 H909 0.951 . S
C928 C926 1.388 . S
C928 C929 1.366 . S
C929 C928 1.366 . S
C929 C930 1.414 . S
C929 C932 1.499 . S
C930 H910 0.950 . S
C930 C929 1.414 . S
C930 C931 1.374 . S
C931 H911 0.950 . S
C931 C927 1.385 . S
C931 C930 1.374 . S
C932 C929 1.499 . S
C932 C933 1.373 . S
C932 C934 1.389 . S
C933 H912 0.950 . S
C933 C932 1.373 . S
C933 C949 1.377 . S
C934 C932 1.389 . S
C934 C935 1.524 . S
C934 C948 1.377 . S
C935 C934 1.524 . S
C935 C936 1.397 . S
C935 C940 1.363 . S
C936 H913 0.950 . S
C936 C935 1.397 . S
C936 C937 1.334 . S
C937 H914 0.950 . S
C937 C936 1.334 . S
C937 C938 1.287 . S
C938 C937 1.287 . S
C938 C939 1.524 . S
C938 H957 0.913 . S
C939 H915 0.950 . S
C939 C938 1.524 . S
C939 C940 1.415 . S
C940 H916 0.950 . S
C940 C935 1.363 . S
C940 C939 1.415 . S
C941 H917 0.951 . S
C941 C942 1.366 . S
C941 C943 1.388 . S
C942 C941 1.366 . S
C942 C946 1.385 . S
C943 H918 0.951 . S
C943 C941 1.388 . S
C943 C944 1.366 . S
C944 C943 1.366 . S
C944 C945 1.414 . S
C944 C947 1.499 . S
C945 H919 0.950 . S
C945 C944 1.414 . S
C945 C946 1.374 . S
C946 H920 0.950 . S
C946 C942 1.385 . S
C946 C945 1.374 . S
C947 C944 1.499 . S
C947 C948 1.373 . S
C947 C949 1.389 . S
C948 H921 0.950 . S
C948 C934 1.377 . S
C948 C947 1.373 . S
C949 C933 1.377 . S
C949 C947 1.389 . S
C949 C950 1.524 . S
C950 C949 1.524 . S
C950 C951 1.397 . S
C950 C955 1.363 . S
C951 H922 0.950 . S
C951 C950 1.397 . S
C951 C952 1.334 . S
C952 H923 0.950 . S
C952 C951 1.334 . S
C952 C953 1.287 . S
C953 C952 1.287 . S
C953 C954 1.524 . S
C953 H956 0.999 . S
C954 H924 0.950 . S
C954 C953 1.524 . S
C954 C955 1.415 . S
C955 H925 0.950 . S
C955 C950 1.363 . S
C955 C954 1.415 . S
H956 C953 0.999 . S
H957 C938 0.913 . S
H958 C976 0.951 . S
H959 C978 0.951 . S
H960 C980 0.950 . S
H961 C981 0.950 . S
H962 C983 0.950 . S
H963 C986 0.950 . S
H964 C987 0.950 . S
H965 C989 0.950 . S
H966 C990 0.950 . S
H967 C991 0.951 . S
H968 C993 0.951 . S
H969 C995 0.950 . S
H970 C996 0.950 . S
H971 C998 0.950 . S
H972 C1001 0.950 . S
H973 C1002 0.950 . S
H974 C1004 0.950 . S
H975 C1005 0.950 . S
C976 H958 0.951 . S
C976 C977 1.366 . S
C976 C978 1.388 . S
C977 C976 1.366 . S
C977 C981 1.385 . S
C978 H959 0.951 . S
C978 C976 1.388 . S
C978 C979 1.366 . S
C979 C978 1.366 . S
C979 C980 1.414 . S
C979 C982 1.499 . S
C980 H960 0.950 . S
C980 C979 1.414 . S
C980 C981 1.374 . S
C981 H961 0.950 . S
C981 C977 1.385 . S
C981 C980 1.374 . S
C982 C979 1.499 . S
C982 C983 1.373 . S
C982 C984 1.389 . S
C983 H962 0.950 . S
C983 C982 1.373 . S
C983 C999 1.377 . S
C984 C982 1.389 . S
C984 C985 1.524 . S
C984 C998 1.377 . S
C985 C984 1.524 . S
C985 C986 1.397 . S
C985 C990 1.363 . S
C986 H963 0.950 . S
C986 C985 1.397 . S
C986 C987 1.334 . S
C987 H964 0.950 . S
C987 C986 1.334 . S
C987 C988 1.287 . S
C988 C987 1.287 . S
C988 C989 1.524 . S
C988 H1007 0.913 . S
C989 H965 0.950 . S
C989 C988 1.524 . S
C989 C990 1.415 . S
C990 H966 0.950 . S
C990 C985 1.363 . S
C990 C989 1.415 . S
C991 H967 0.951 . S
C991 C992 1.366 . S
C991 C993 1.388 . S
C992 C991 1.366 . S
C992 C996 1.385 . S
C993 H968 0.951 . S
C993 C991 1.388 . S
C993 C994 1.366 . S
C994 C993 1.366 . S
C994 C995 1.414 . S
C994 C997 1.499 . S
C995 H969 0.950 . S
C995 C994 1.414 . S
C995 C996 1.374 . S
C996 H970 0.950 . S
C996 C992 1.385 . S
C996 C995 1.374 . S
C997 C994 1.499 . S
C997 C998 1.373 . S
C997 C999 1.389 . S
C998 H971 0.950 . S
C998 C984 1.377 . S
C998 C997 1.373 . S
C999 C983 1.377 . S
C999 C997 1.389 . S
C999 C1000 1.524 . S
C1000 C999 1.524 . S
C1000 C1001 1.397 . S
C1000 C1005 1.363 . S
C1001 H972 0.950 . S
C1001 C1000 1.397 . S
C1001 C1002 1.334 . S
C1002 H973 0.950 . S
C1002 C1001 1.334 . S
C1002 C1003 1.287 . S
C1003 C1002 1.287 . S
C1003 C1004 1.524 . S
C1003 H1006 0.999 . S
C1004 H974 0.950 . S
C1004 C1003 1.524 . S
C1004 C1005 1.415 . S
C1005 H975 0.950 . S
C1005 C1000 1.363 . S
C1005 C1004 1.415 . S
H1006 C1003 0.999 . S
H1007 C988 0.913 . S
H1008 C1026 0.951 1_554 S
H1009 C1028 0.951 . S
H1010 C1030 0.950 . S
H1011 C1031 0.950 . S
H1012 C1033 0.950 . S
H1013 C1036 0.950 1_556 S
H1014 C1037 0.950 1_556 S
H1015 C1039 0.950 . S
H1016 C1040 0.950 . S
H1017 C1041 0.951 1_556 S
H1018 C1043 0.951 . S
H1019 C1045 0.950 . S
H1020 C1046 0.950 . S
H1021 C1048 0.950 . S
H1022 C1051 0.950 1_554 S
H1023 C1052 0.950 1_554 S
H1024 C1054 0.950 . S
H1025 C1055 0.950 . S
C1026 H1008 0.951 1_556 S
C1026 C1027 1.366 . S
C1026 C1028 1.388 1_556 S
C1027 C1026 1.366 . S
C1027 C1031 1.385 . S
C1028 H1009 0.951 . S
C1028 C1026 1.388 1_554 S
C1028 C1029 1.366 1_554 S
C1029 C1028 1.366 1_556 S
C1029 C1030 1.414 . S
C1029 C1032 1.499 . S
C1030 H1010 0.950 . S
C1030 C1029 1.414 . S
C1030 C1031 1.374 . S
C1031 H1011 0.950 . S
C1031 C1027 1.385 . S
C1031 C1030 1.374 . S
C1032 C1029 1.499 . S
C1032 C1033 1.373 . S
C1032 C1034 1.389 1_556 S
C1033 H1012 0.950 . S
C1033 C1032 1.373 . S
C1033 C1049 1.377 1_565 S
C1034 C1032 1.389 1_554 S
C1034 C1035 1.524 . S
C1034 C1048 1.377 1_565 S
C1035 C1034 1.524 . S
C1035 C1036 1.397 . S
C1035 C1040 1.363 . S
C1036 H1013 0.950 1_554 S
C1036 C1035 1.397 . S
C1036 C1037 1.334 . S
C1037 H1014 0.950 1_554 S
C1037 C1036 1.334 . S
C1037 C1038 1.287 . S
C1038 C1037 1.287 . S
C1038 C1039 1.524 . S
C1038 H1057 0.913 . S
C1039 H1015 0.950 . S
C1039 C1038 1.524 . S
C1039 C1040 1.415 . S
C1040 H1016 0.950 . S
C1040 C1035 1.363 . S
C1040 C1039 1.415 . S
C1041 H1017 0.951 1_554 S
C1041 C1042 1.366 . S
C1041 C1043 1.388 1_554 S
C1042 C1041 1.366 . S
C1042 C1046 1.385 . S
C1043 H1018 0.951 . S
C1043 C1041 1.388 1_556 S
C1043 C1044 1.366 1_556 S
C1044 C1043 1.366 1_554 S
C1044 C1045 1.414 . S
C1044 C1047 1.499 . S
C1045 H1019 0.950 . S
C1045 C1044 1.414 . S
C1045 C1046 1.374 . S
C1046 H1020 0.950 . S
C1046 C1042 1.385 . S
C1046 C1045 1.374 . S
C1047 C1044 1.499 . S
C1047 C1048 1.373 . S
C1047 C1049 1.389 1_554 S
C1048 H1021 0.950 . S
C1048 C1034 1.377 1_545 S
C1048 C1047 1.373 . S
C1049 C1033 1.377 1_545 S
C1049 C1047 1.389 1_556 S
C1049 C1050 1.524 . S
C1050 C1049 1.524 . S
C1050 C1051 1.397 . S
C1050 C1055 1.363 . S
C1051 H1022 0.950 1_556 S
C1051 C1050 1.397 . S
C1051 C1052 1.334 . S
C1052 H1023 0.950 1_556 S
C1052 C1051 1.334 . S
C1052 C1053 1.287 . S
C1053 C1052 1.287 . S
C1053 C1054 1.524 . S
C1053 H1056 0.999 . S
C1054 H1024 0.950 . S
C1054 C1053 1.524 . S
C1054 C1055 1.415 . S
C1055 H1025 0.950 . S
C1055 C1050 1.363 . S
C1055 C1054 1.415 . S
H1056 C1053 0.999 . S
H1057 C1038 0.913 . S
H1058 C1076 0.951 1_556 S
H1059 C1078 0.951 . S
H1060 C1080 0.950 . S
H1061 C1081 0.950 . S
H1062 C1083 0.950 . S
H1063 C1086 0.950 . S
H1064 C1087 0.946 1_554 S
H1065 C1089 0.950 . S
H1066 C1090 0.950 . S
H1067 C1091 0.951 1_554 S
H1068 C1093 0.951 . S
H1069 C1095 0.950 . S
H1070 C1096 0.950 . S
H1071 C1098 0.950 . S
H1072 C1101 0.950 . S
H1073 C1102 0.946 1_556 S
H1074 C1104 0.950 . S
H1075 C1105 0.950 . S
C1076 H1058 0.951 1_554 S
C1076 C1077 1.366 . S
C1076 C1078 1.388 1_554 S
C1077 C1076 1.366 . S
C1077 C1081 1.385 . S
C1078 H1059 0.951 . S
C1078 C1076 1.388 1_556 S
C1078 C1079 1.366 1_556 S
C1079 C1078 1.366 1_554 S
C1079 C1080 1.414 . S
C1079 C1082 1.499 . S
C1080 H1060 0.950 . S
C1080 C1079 1.414 . S
C1080 C1081 1.374 . S
C1081 H1061 0.950 . S
C1081 C1077 1.385 . S
C1081 C1080 1.374 . S
C1082 C1079 1.499 . S
C1082 C1083 1.373 . S
C1082 C1084 1.389 1_554 S
C1083 H1062 0.950 . S
C1083 C1082 1.373 . S
C1083 C1099 1.377 . S
C1084 C1082 1.389 1_556 S
C1084 C1085 1.524 . S
C1084 C1098 1.377 . S
C1085 C1084 1.524 . S
C1085 C1086 1.397 1_556 S
C1085 C1090 1.363 . S
C1086 H1063 0.950 . S
C1086 C1085 1.397 1_554 S
C1086 C1087 1.333 1_554 S
C1087 H1064 0.946 1_556 S
C1087 C1086 1.333 1_556 S
C1087 C1088 1.293 . S
C1088 C1087 1.293 . S
C1088 C1089 1.524 . S
C1088 H1107 0.913 . S
C1089 H1065 0.950 . S
C1089 C1088 1.524 . S
C1089 C1090 1.415 . S
C1090 H1066 0.950 . S
C1090 C1085 1.363 . S
C1090 C1089 1.415 . S
C1091 H1067 0.951 1_556 S
C1091 C1092 1.366 . S
C1091 C1093 1.388 1_556 S
C1092 C1091 1.366 . S
C1092 C1096 1.385 . S
C1093 H1068 0.951 . S
C1093 C1091 1.388 1_554 S
C1093 C1094 1.366 1_554 S
C1094 C1093 1.366 1_556 S
C1094 C1095 1.414 . S
C1094 C1097 1.499 . S
C1095 H1069 0.950 . S
C1095 C1094 1.414 . S
C1095 C1096 1.374 . S
C1096 H1070 0.950 . S
C1096 C1092 1.385 . S
C1096 C1095 1.374 . S
C1097 C1094 1.499 . S
C1097 C1098 1.373 . S
C1097 C1099 1.389 1_556 S
C1098 H1071 0.950 . S
C1098 C1084 1.377 . S
C1098 C1097 1.373 . S
C1099 C1083 1.377 . S
C1099 C1097 1.389 1_554 S
C1099 C1100 1.524 . S
C1100 C1099 1.524 . S
C1100 C1101 1.397 1_554 S
C1100 C1105 1.363 . S
C1101 H1072 0.950 . S
C1101 C1100 1.397 1_556 S
C1101 C1102 1.333 1_556 S
C1102 H1073 0.946 1_554 S
C1102 C1101 1.333 1_554 S
C1102 C1103 1.293 . S
C1103 C1102 1.293 . S
C1103 C1104 1.524 . S
C1103 H1106 0.999 . S
C1104 H1074 0.950 . S
C1104 C1103 1.524 . S
C1104 C1105 1.415 . S
C1105 H1075 0.950 . S
C1105 C1100 1.363 . S
C1105 C1104 1.415 . S
H1106 C1103 0.999 . S
H1107 C1088 0.913 . S
H1108 C1126 0.953 . S
H1109 C1128 0.954 . S
H1110 C1130 0.950 . S
H1111 C1131 0.950 1_554 S
H1112 C1133 0.950 . S
H1113 C1136 0.950 . S
H1114 C1137 0.950 . S
H1115 C1139 0.950 . S
H1116 C1140 0.950 . S
H1117 C1141 0.953 . S
H1118 C1143 0.954 . S
H1119 C1145 0.950 . S
H1120 C1146 0.950 1_556 S
H1121 C1148 0.950 . S
H1122 C1151 0.950 . S
H1123 C1152 0.950 . S
H1124 C1154 0.950 . S
H1125 C1155 0.950 . S
C1126 H1108 0.953 . S
C1126 C1127 1.364 1_455 S
C1126 C1128 1.388 . S
C1127 C1126 1.364 1_655 S
C1127 C1131 1.385 . S
C1128 H1109 0.954 . S
C1128 C1126 1.388 . S
C1128 C1129 1.363 1_455 S
C1129 C1128 1.363 1_655 S
C1129 C1130 1.414 1_556 S
C1129 C1132 1.499 . S
C1130 H1110 0.950 . S
C1130 C1129 1.414 1_554 S
C1130 C1131 1.374 1_554 S
C1131 H1111 0.950 1_556 S
C1131 C1127 1.385 . S
C1131 C1130 1.374 1_556 S
C1132 C1129 1.499 . S
C1132 C1133 1.373 1_656 S
C1132 C1134 1.389 . S
C1133 H1112 0.950 . S
C1133 C1132 1.373 1_454 S
C1133 C1149 1.377 . S
C1134 C1132 1.389 . S
C1134 C1135 1.524 . S
C1134 C1148 1.377 . S
C1135 C1134 1.524 . S
C1135 C1136 1.397 . S
C1135 C1140 1.363 . S
C1136 H1113 0.950 . S
C1136 C1135 1.397 . S
C1136 C1137 1.334 . S
C1137 H1114 0.950 . S
C1137 C1136 1.334 . S
C1137 C1138 1.287 . S
C1138 C1137 1.287 . S
C1138 C1139 1.524 . S
C1138 H1157 0.913 . S
C1139 H1115 0.950 . S
C1139 C1138 1.524 . S
C1139 C1140 1.415 . S
C1140 H1116 0.950 . S
C1140 C1135 1.363 . S
C1140 C1139 1.415 . S
C1141 H1117 0.953 . S
C1141 C1142 1.364 1_655 S
C1141 C1143 1.388 . S
C1142 C1141 1.364 1_455 S
C1142 C1146 1.385 . S
C1143 H1118 0.954 . S
C1143 C1141 1.388 . S
C1143 C1144 1.363 1_655 S
C1144 C1143 1.363 1_455 S
C1144 C1145 1.414 1_554 S
C1144 C1147 1.499 . S
C1145 H1119 0.950 . S
C1145 C1144 1.414 1_556 S
C1145 C1146 1.374 1_556 S
C1146 H1120 0.950 1_554 S
C1146 C1142 1.385 . S
C1146 C1145 1.374 1_554 S
C1147 C1144 1.499 . S
C1147 C1148 1.373 1_454 S
C1147 C1149 1.389 . S
C1148 H1121 0.950 . S
C1148 C1134 1.377 . S
C1148 C1147 1.373 1_656 S
C1149 C1133 1.377 . S
C1149 C1147 1.389 . S
C1149 C1150 1.524 . S
C1150 C1149 1.524 . S
C1150 C1151 1.397 . S
C1150 C1155 1.363 . S
C1151 H1122 0.950 . S
C1151 C1150 1.397 . S
C1151 C1152 1.334 . S
C1152 H1123 0.950 . S
C1152 C1151 1.334 . S
C1152 C1153 1.287 . S
C1153 C1152 1.287 . S
C1153 C1154 1.524 . S
C1153 H1156 0.999 . S
C1154 H1124 0.950 . S
C1154 C1153 1.524 . S
C1154 C1155 1.415 . S
C1155 H1125 0.950 . S
C1155 C1150 1.363 . S
C1155 C1154 1.415 . S
H1156 C1153 0.999 . S
H1157 C1138 0.913 . S
H1158 C1176 0.938 1_556 S
H1159 C1178 0.951 1_556 S
H1160 C1180 0.950 . S
H1161 C1181 0.950 . S
H1162 C1183 0.950 . S
H1163 C1186 0.950 . S
H1164 C1187 0.950 . S
H1165 C1189 0.950 . S
H1166 C1190 0.950 . S
H1167 C1191 0.938 1_554 S
H1168 C1193 0.951 1_554 S
H1169 C1195 0.950 . S
H1170 C1196 0.950 . S
H1171 C1198 0.950 . S
H1172 C1201 0.950 . S
H1173 C1202 0.950 . S
H1174 C1204 0.950 . S
H1175 C1205 0.950 . S
C1176 H1158 0.938 1_554 S
C1176 C1177 1.366 1_565 S
C1176 C1178 1.388 . S
C1177 C1176 1.366 1_545 S
C1177 C1181 1.385 . S
C1178 H1159 0.951 1_554 S
C1178 C1176 1.388 . S
C1178 C1179 1.366 1_565 S
C1179 C1178 1.366 1_545 S
C1179 C1180 1.414 . S
C1179 C1182 1.499 . S
C1180 H1160 0.950 . S
C1180 C1179 1.414 . S
C1180 C1181 1.374 . S
C1181 H1161 0.950 . S
C1181 C1177 1.385 . S
C1181 C1180 1.374 . S
C1182 C1179 1.499 . S
C1182 C1183 1.371 1_545 S
C1182 C1184 1.389 1_554 S
C1183 H1162 0.950 . S
C1183 C1182 1.371 1_565 S
C1183 C1199 1.378 1_455 S
C1184 C1182 1.389 1_556 S
C1184 C1185 1.524 . S
C1184 C1198 1.378 1_455 S
C1185 C1184 1.524 . S
C1185 C1186 1.397 . S
C1185 C1190 1.363 1_545 S
C1186 H1163 0.950 . S
C1186 C1185 1.397 . S
C1186 C1187 1.334 . S
C1187 H1164 0.950 . S
C1187 C1186 1.334 . S
C1187 C1188 1.287 . S
C1188 C1187 1.287 . S
C1188 C1189 1.524 1_545 S
C1188 H1207 0.913 . S
C1189 H1165 0.950 . S
C1189 C1188 1.524 1_565 S
C1189 C1190 1.415 . S
C1190 H1166 0.950 . S
C1190 C1185 1.363 1_565 S
C1190 C1189 1.415 . S
C1191 H1167 0.938 1_556 S
C1191 C1192 1.366 1_545 S
C1191 C1193 1.388 . S
C1192 C1191 1.366 1_565 S
C1192 C1196 1.385 . S
C1193 H1168 0.951 1_556 S
C1193 C1191 1.388 . S
C1193 C1194 1.366 1_545 S
C1194 C1193 1.366 1_565 S
C1194 C1195 1.414 . S
C1194 C1197 1.499 . S
C1195 H1169 0.950 . S
C1195 C1194 1.414 . S
C1195 C1196 1.374 . S
C1196 H1170 0.950 . S
C1196 C1192 1.385 . S
C1196 C1195 1.374 . S
C1197 C1194 1.499 . S
C1197 C1198 1.371 1_565 S
C1197 C1199 1.389 1_556 S
C1198 H1171 0.950 . S
C1198 C1184 1.378 1_655 S
C1198 C1197 1.371 1_545 S
C1199 C1183 1.378 1_655 S
C1199 C1197 1.389 1_554 S
C1199 C1200 1.524 . S
C1200 C1199 1.524 . S
C1200 C1201 1.397 . S
C1200 C1205 1.363 1_565 S
C1201 H1172 0.950 . S
C1201 C1200 1.397 . S
C1201 C1202 1.334 . S
C1202 H1173 0.950 . S
C1202 C1201 1.334 . S
C1202 C1203 1.287 . S
C1203 C1202 1.287 . S
C1203 C1204 1.524 1_565 S
C1203 H1206 0.999 . S
C1204 H1174 0.950 . S
C1204 C1203 1.524 1_545 S
C1204 C1205 1.415 . S
C1205 H1175 0.950 . S
C1205 C1200 1.363 1_545 S
C1205 C1204 1.415 . S
H1206 C1203 0.999 . S
H1207 C1188 0.913 . S
H1208 C1226 0.951 . S
H1209 C1228 0.951 . S
H1210 C1230 0.950 . S
H1211 C1231 0.950 . S
H1212 C1233 0.950 . S
H1213 C1236 0.950 . S
H1214 C1237 0.950 . S
H1215 C1239 0.950 . S
H1216 C1240 0.950 . S
H1217 C1241 0.951 . S
H1218 C1243 0.951 . S
H1219 C1245 0.950 . S
H1220 C1246 0.950 . S
H1221 C1248 0.950 . S
H1222 C1251 0.950 . S
H1223 C1252 0.950 . S
H1224 C1254 0.950 . S
H1225 C1255 0.950 . S
C1226 H1208 0.951 . S
C1226 C1227 1.366 . S
C1226 C1228 1.388 . S
C1227 C1226 1.366 . S
C1227 C1231 1.385 . S
C1228 H1209 0.951 . S
C1228 C1226 1.388 . S
C1228 C1229 1.366 . S
C1229 C1228 1.366 . S
C1229 C1230 1.414 . S
C1229 C1232 1.499 . S
C1230 H1210 0.950 . S
C1230 C1229 1.414 . S
C1230 C1231 1.374 . S
C1231 H1211 0.950 . S
C1231 C1227 1.385 . S
C1231 C1230 1.374 . S
C1232 C1229 1.499 . S
C1232 C1233 1.373 . S
C1232 C1234 1.389 . S
C1233 H1212 0.950 . S
C1233 C1232 1.373 . S
C1233 C1249 1.377 . S
C1234 C1232 1.389 . S
C1234 C1235 1.524 . S
C1234 C1248 1.377 . S
C1235 C1234 1.524 . S
C1235 C1236 1.397 . S
C1235 C1240 1.363 . S
C1236 H1213 0.950 . S
C1236 C1235 1.397 . S
C1236 C1237 1.334 . S
C1237 H1214 0.950 . S
C1237 C1236 1.334 . S
C1237 C1238 1.287 . S
C1238 C1237 1.287 . S
C1238 C1239 1.524 . S
C1238 H1257 0.913 . S
C1239 H1215 0.950 . S
C1239 C1238 1.524 . S
C1239 C1240 1.415 . S
C1240 H1216 0.950 . S
C1240 C1235 1.363 . S
C1240 C1239 1.415 . S
C1241 H1217 0.951 . S
C1241 C1242 1.366 . S
C1241 C1243 1.388 . S
C1242 C1241 1.366 . S
C1242 C1246 1.385 . S
C1243 H1218 0.951 . S
C1243 C1241 1.388 . S
C1243 C1244 1.366 . S
C1244 C1243 1.366 . S
C1244 C1245 1.414 . S
C1244 C1247 1.499 . S
C1245 H1219 0.950 . S
C1245 C1244 1.414 . S
C1245 C1246 1.374 . S
C1246 H1220 0.950 . S
C1246 C1242 1.385 . S
C1246 C1245 1.374 . S
C1247 C1244 1.499 . S
C1247 C1248 1.373 . S
C1247 C1249 1.389 . S
C1248 H1221 0.950 . S
C1248 C1234 1.377 . S
C1248 C1247 1.373 . S
C1249 C1233 1.377 . S
C1249 C1247 1.389 . S
C1249 C1250 1.524 . S
C1250 C1249 1.524 . S
C1250 C1251 1.397 . S
C1250 C1255 1.363 . S
C1251 H1222 0.950 . S
C1251 C1250 1.397 . S
C1251 C1252 1.334 . S
C1252 H1223 0.950 . S
C1252 C1251 1.334 . S
C1252 C1253 1.287 . S
C1253 C1252 1.287 . S
C1253 C1254 1.524 . S
C1253 H1256 0.999 . S
C1254 H1224 0.950 . S
C1254 C1253 1.524 . S
C1254 C1255 1.415 . S
C1255 H1225 0.950 . S
C1255 C1250 1.363 . S
C1255 C1254 1.415 . S
H1256 C1253 0.999 . S
H1257 C1238 0.913 . S
H1258 C1276 0.951 . S
H1259 C1278 0.951 . S
H1260 C1280 0.950 . S
H1261 C1281 0.950 . S
H1262 C1283 0.950 . S
H1263 C1286 0.950 . S
H1264 C1287 0.950 . S
H1265 C1289 0.947 1_655 S
H1266 C1290 0.950 1_655 S
H1267 C1291 0.951 . S
H1268 C1293 0.951 . S
H1269 C1295 0.950 . S
H1270 C1296 0.950 . S
H1271 C1298 0.950 . S
H1272 C1301 0.950 . S
H1273 C1302 0.950 . S
H1274 C1304 0.947 1_455 S
H1275 C1305 0.950 1_455 S
C1276 H1258 0.951 . S
C1276 C1277 1.366 . S
C1276 C1278 1.388 . S
C1277 C1276 1.366 . S
C1277 C1281 1.385 . S
C1278 H1259 0.951 . S
C1278 C1276 1.388 . S
C1278 C1279 1.366 . S
C1279 C1278 1.366 . S
C1279 C1280 1.414 . S
C1279 C1282 1.499 . S
C1280 H1260 0.950 . S
C1280 C1279 1.414 . S
C1280 C1281 1.374 . S
C1281 H1261 0.950 . S
C1281 C1277 1.385 . S
C1281 C1280 1.374 . S
C1282 C1279 1.499 . S
C1282 C1283 1.373 . S
C1282 C1284 1.389 . S
C1283 H1262 0.950 . S
C1283 C1282 1.373 . S
C1283 C1299 1.377 1_455 S
C1284 C1282 1.389 . S
C1284 C1285 1.524 . S
C1284 C1298 1.377 1_455 S
C1285 C1284 1.524 . S
C1285 C1286 1.397 . S
C1285 C1290 1.363 . S
C1286 H1263 0.950 . S
C1286 C1285 1.397 . S
C1286 C1287 1.334 . S
C1287 H1264 0.950 . S
C1287 C1286 1.334 . S
C1287 C1288 1.287 . S
C1288 C1287 1.287 . S
C1288 C1289 1.524 . S
C1288 H1307 0.913 . S
C1289 H1265 0.947 1_455 S
C1289 C1288 1.524 . S
C1289 C1290 1.415 . S
C1290 H1266 0.950 1_455 S
C1290 C1285 1.363 . S
C1290 C1289 1.415 . S
C1291 H1267 0.951 . S
C1291 C1292 1.366 . S
C1291 C1293 1.388 . S
C1292 C1291 1.366 . S
C1292 C1296 1.385 . S
C1293 H1268 0.951 . S
C1293 C1291 1.388 . S
C1293 C1294 1.366 . S
C1294 C1293 1.366 . S
C1294 C1295 1.414 . S
C1294 C1297 1.499 . S
C1295 H1269 0.950 . S
C1295 C1294 1.414 . S
C1295 C1296 1.374 . S
C1296 H1270 0.950 . S
C1296 C1292 1.385 . S
C1296 C1295 1.374 . S
C1297 C1294 1.499 . S
C1297 C1298 1.373 . S
C1297 C1299 1.389 . S
C1298 H1271 0.950 . S
C1298 C1284 1.377 1_655 S
C1298 C1297 1.373 . S
C1299 C1283 1.377 1_655 S
C1299 C1297 1.389 . S
C1299 C1300 1.524 . S
C1300 C1299 1.524 . S
C1300 C1301 1.397 . S
C1300 C1305 1.363 . S
C1301 H1272 0.950 . S
C1301 C1300 1.397 . S
C1301 C1302 1.334 . S
C1302 H1273 0.950 . S
C1302 C1301 1.334 . S
C1302 C1303 1.287 . S
C1303 C1302 1.287 . S
C1303 C1304 1.524 . S
C1303 H1306 0.999 . S
C1304 H1274 0.947 1_655 S
C1304 C1303 1.524 . S
C1304 C1305 1.415 . S
C1305 H1275 0.950 1_655 S
C1305 C1300 1.363 . S
C1305 C1304 1.415 . S
H1306 C1303 0.999 . S
H1307 C1288 0.913 . S
H1308 C1326 0.951 . S
H1309 C1328 0.951 . S
H1310 C1330 0.950 . S
H1311 C1331 0.950 . S
H1312 C1333 0.950 . S
H1313 C1336 0.950 . S
H1314 C1337 0.950 . S
H1315 C1339 0.950 . S
H1316 C1340 0.950 1_545 S
H1317 C1341 0.951 . S
H1318 C1343 0.951 . S
H1319 C1345 0.950 . S
H1320 C1346 0.950 . S
H1321 C1348 0.950 . S
H1322 C1351 0.950 . S
H1323 C1352 0.950 . S
H1324 C1354 0.950 . S
H1325 C1355 0.950 1_565 S
C1326 H1308 0.951 . S
C1326 C1327 1.366 . S
C1326 C1328 1.388 . S
C1327 C1326 1.366 . S
C1327 C1331 1.385 1_655 S
C1328 H1309 0.951 . S
C1328 C1326 1.388 . S
C1328 C1329 1.366 . S
C1329 C1328 1.366 . S
C1329 C1330 1.414 1_655 S
C1329 C1332 1.499 . S
C1330 H1310 0.950 . S
C1330 C1329 1.414 1_455 S
C1330 C1331 1.374 . S
C1331 H1311 0.950 . S
C1331 C1327 1.385 1_455 S
C1331 C1330 1.374 . S
C1332 C1329 1.499 . S
C1332 C1333 1.373 1_655 S
C1332 C1334 1.389 . S
C1333 H1312 0.950 . S
C1333 C1332 1.373 1_455 S
C1333 C1349 1.377 1_565 S
C1334 C1332 1.389 . S
C1334 C1335 1.524 . S
C1334 C1348 1.377 1_565 S
C1335 C1334 1.524 . S
C1335 C1336 1.397 . S
C1335 C1340 1.363 . S
C1336 H1313 0.950 . S
C1336 C1335 1.397 . S
C1336 C1337 1.334 . S
C1337 H1314 0.950 . S
C1337 C1336 1.334 . S
C1337 C1338 1.287 . S
C1338 C1337 1.287 . S
C1338 C1339 1.524 . S
C1338 H1357 0.913 . S
C1339 H1315 0.950 . S
C1339 C1338 1.524 . S
C1339 C1340 1.415 . S
C1340 H1316 0.950 1_565 S
C1340 C1335 1.363 . S
C1340 C1339 1.415 . S
C1341 H1317 0.951 . S
C1341 C1342 1.366 . S
C1341 C1343 1.388 . S
C1342 C1341 1.366 . S
C1342 C1346 1.385 1_455 S
C1343 H1318 0.951 . S
C1343 C1341 1.388 . S
C1343 C1344 1.366 . S
C1344 C1343 1.366 . S
C1344 C1345 1.414 1_455 S
C1344 C1347 1.499 . S
C1345 H1319 0.950 . S
C1345 C1344 1.414 1_655 S
C1345 C1346 1.374 . S
C1346 H1320 0.950 . S
C1346 C1342 1.385 1_655 S
C1346 C1345 1.374 . S
C1347 C1344 1.499 . S
C1347 C1348 1.373 1_455 S
C1347 C1349 1.389 . S
C1348 H1321 0.950 . S
C1348 C1334 1.377 1_545 S
C1348 C1347 1.373 1_655 S
C1349 C1333 1.377 1_545 S
C1349 C1347 1.389 . S
C1349 C1350 1.524 . S
C1350 C1349 1.524 . S
C1350 C1351 1.397 . S
C1350 C1355 1.363 . S
C1351 H1322 0.950 . S
C1351 C1350 1.397 . S
C1351 C1352 1.334 . S
C1352 H1323 0.950 . S
C1352 C1351 1.334 . S
C1352 C1353 1.287 . S
C1353 C1352 1.287 . S
C1353 C1354 1.524 . S
C1353 H1356 0.999 . S
C1354 H1324 0.950 . S
C1354 C1353 1.524 . S
C1354 C1355 1.415 . S
C1355 H1325 0.950 1_545 S
C1355 C1350 1.363 . S
C1355 C1354 1.415 . S
H1356 C1353 0.999 . S
H1357 C1338 0.913 . S
H1358 C1376 0.951 . S
H1359 C1378 0.951 . S
H1360 C1380 0.950 . S
H1361 C1381 0.950 . S
H1362 C1383 0.950 . S
H1363 C1386 0.950 . S
H1364 C1387 0.950 . S
H1365 C1389 0.950 . S
H1366 C1390 0.950 . S
H1367 C1391 0.951 . S
H1368 C1393 0.951 . S
H1369 C1395 0.950 . S
H1370 C1396 0.950 . S
H1371 C1398 0.950 . S
H1372 C1401 0.950 . S
H1373 C1402 0.950 . S
H1374 C1404 0.950 . S
H1375 C1405 0.950 . S
C1376 H1358 0.951 . S
C1376 C1377 1.366 . S
C1376 C1378 1.388 . S
C1377 C1376 1.366 . S
C1377 C1381 1.385 1_565 S
C1378 H1359 0.951 . S
C1378 C1376 1.388 . S
C1378 C1379 1.366 . S
C1379 C1378 1.366 . S
C1379 C1380 1.414 1_565 S
C1379 C1382 1.499 . S
C1380 H1360 0.950 . S
C1380 C1379 1.414 1_545 S
C1380 C1381 1.374 . S
C1381 H1361 0.950 . S
C1381 C1377 1.385 1_545 S
C1381 C1380 1.374 . S
C1382 C1379 1.499 . S
C1382 C1383 1.363 1_565 S
C1382 C1384 1.399 . S
C1383 H1362 0.950 . S
C1383 C1382 1.363 1_545 S
C1383 C1399 1.377 . S
C1384 C1382 1.399 . S
C1384 C1385 1.524 . S
C1384 C1398 1.377 . S
C1385 C1384 1.524 . S
C1385 C1386 1.397 . S
C1385 C1390 1.363 . S
C1386 H1363 0.950 . S
C1386 C1385 1.397 . S
C1386 C1387 1.334 . S
C1387 H1364 0.950 . S
C1387 C1386 1.334 . S
C1387 C1388 1.287 . S
C1388 C1387 1.287 . S
C1388 C1389 1.524 . S
C1388 H1407 0.913 . S
C1389 H1365 0.950 . S
C1389 C1388 1.524 . S
C1389 C1390 1.415 . S
C1390 H1366 0.950 . S
C1390 C1385 1.363 . S
C1390 C1389 1.415 . S
C1391 H1367 0.951 . S
C1391 C1392 1.366 . S
C1391 C1393 1.388 . S
C1392 C1391 1.366 . S
C1392 C1396 1.385 1_545 S
C1393 H1368 0.951 . S
C1393 C1391 1.388 . S
C1393 C1394 1.366 . S
C1394 C1393 1.366 . S
C1394 C1395 1.414 1_545 S
C1394 C1397 1.499 . S
C1395 H1369 0.950 . S
C1395 C1394 1.414 1_565 S
C1395 C1396 1.374 . S
C1396 H1370 0.950 . S
C1396 C1392 1.385 1_565 S
C1396 C1395 1.374 . S
C1397 C1394 1.499 . S
C1397 C1398 1.363 1_545 S
C1397 C1399 1.399 . S
C1398 H1371 0.950 . S
C1398 C1384 1.377 . S
C1398 C1397 1.363 1_565 S
C1399 C1383 1.377 . S
C1399 C1397 1.399 . S
C1399 C1400 1.524 . S
C1400 C1399 1.524 . S
C1400 C1401 1.397 . S
C1400 C1405 1.363 . S
C1401 H1372 0.950 . S
C1401 C1400 1.397 . S
C1401 C1402 1.334 . S
C1402 H1373 0.950 . S
C1402 C1401 1.334 . S
C1402 C1403 1.287 . S
C1403 C1402 1.287 . S
C1403 C1404 1.524 . S
C1403 H1406 0.999 . S
C1404 H1374 0.950 . S
C1404 C1403 1.524 . S
C1404 C1405 1.415 . S
C1405 H1375 0.950 . S
C1405 C1400 1.363 . S
C1405 C1404 1.415 . S
H1406 C1403 0.999 . S
H1407 C1388 0.913 . S
H1408 C1426 0.951 . S
H1409 C1428 0.951 . S
H1410 C1430 0.950 . S
H1411 C1431 0.950 . S
H1412 C1433 0.950 . S
H1413 C1436 0.950 . S
H1414 C1437 0.950 . S
H1415 C1439 0.950 . S
H1416 C1440 0.950 . S
H1417 C1441 0.951 . S
H1418 C1443 0.951 . S
H1419 C1445 0.950 . S
H1420 C1446 0.950 . S
H1421 C1448 0.950 . S
H1422 C1451 0.950 . S
H1423 C1452 0.950 . S
H1424 C1454 0.950 . S
H1425 C1455 0.950 . S
C1426 H1408 0.951 . S
C1426 C1427 1.366 . S
C1426 C1428 1.388 . S
C1427 C1426 1.366 . S
C1427 C1431 1.385 . S
C1428 H1409 0.951 . S
C1428 C1426 1.388 . S
C1428 C1429 1.366 . S
C1429 C1428 1.366 . S
C1429 C1430 1.414 . S
C1429 C1432 1.499 . S
C1430 H1410 0.950 . S
C1430 C1429 1.414 . S
C1430 C1431 1.374 . S
C1431 H1411 0.950 . S
C1431 C1427 1.385 . S
C1431 C1430 1.374 . S
C1432 C1429 1.499 . S
C1432 C1433 1.373 . S
C1432 C1434 1.389 . S
C1433 H1412 0.950 . S
C1433 C1432 1.373 . S
C1433 C1449 1.377 . S
C1434 C1432 1.389 . S
C1434 C1435 1.524 . S
C1434 C1448 1.377 . S
C1435 C1434 1.524 . S
C1435 C1436 1.397 . S
C1435 C1440 1.363 . S
C1436 H1413 0.950 . S
C1436 C1435 1.397 . S
C1436 C1437 1.334 . S
C1437 H1414 0.950 . S
C1437 C1436 1.334 . S
C1437 C1438 1.287 . S
C1438 C1437 1.287 . S
C1438 C1439 1.524 . S
C1438 H1457 0.913 . S
C1439 H1415 0.950 . S
C1439 C1438 1.524 . S
C1439 C1440 1.415 . S
C1440 H1416 0.950 . S
C1440 C1435 1.363 . S
C1440 C1439 1.415 . S
C1441 H1417 0.951 . S
C1441 C1442 1.366 . S
C1441 C1443 1.388 . S
C1442 C1441 1.366 . S
C1442 C1446 1.385 . S
C1443 H1418 0.951 . S
C1443 C1441 1.388 . S
C1443 C1444 1.366 . S
C1444 C1443 1.366 . S
C1444 C1445 1.414 . S
C1444 C1447 1.499 . S
C1445 H1419 0.950 . S
C1445 C1444 1.414 . S
C1445 C1446 1.374 . S
C1446 H1420 0.950 . S
C1446 C1442 1.385 . S
C1446 C1445 1.374 . S
C1447 C1444 1.499 . S
C1447 C1448 1.373 . S
C1447 C1449 1.389 . S
C1448 H1421 0.950 . S
C1448 C1434 1.377 . S
C1448 C1447 1.373 . S
C1449 C1433 1.377 . S
C1449 C1447 1.389 . S
C1449 C1450 1.524 . S
C1450 C1449 1.524 . S
C1450 C1451 1.397 . S
C1450 C1455 1.363 . S
C1451 H1422 0.950 . S
C1451 C1450 1.397 . S
C1451 C1452 1.334 . S
C1452 H1423 0.950 . S
C1452 C1451 1.334 . S
C1452 C1453 1.287 . S
C1453 C1452 1.287 . S
C1453 C1454 1.524 . S
C1453 H1456 0.999 . S
C1454 H1424 0.950 . S
C1454 C1453 1.524 . S
C1454 C1455 1.415 . S
C1455 H1425 0.950 . S
C1455 C1450 1.363 . S
C1455 C1454 1.415 . S
H1456 C1453 0.999 . S
H1457 C1438 0.913 . S
H1458 C1476 0.951 . S
H1459 C1478 0.951 . S
H1460 C1480 0.950 . S
H1461 C1481 0.950 . S
H1462 C1483 0.950 . S
H1463 C1486 0.950 . S
H1464 C1487 0.950 . S
H1465 C1489 0.950 . S
H1466 C1490 0.950 . S
H1467 C1491 0.951 . S
H1468 C1493 0.951 . S
H1469 C1495 0.950 . S
H1470 C1496 0.950 . S
H1471 C1498 0.950 . S
H1472 C1501 0.950 . S
H1473 C1502 0.950 . S
H1474 C1504 0.950 . S
H1475 C1505 0.950 . S
C1476 H1458 0.951 . S
C1476 C1477 1.366 . S
C1476 C1478 1.388 . S
C1477 C1476 1.366 . S
C1477 C1481 1.385 . S
C1478 H1459 0.951 . S
C1478 C1476 1.388 . S
C1478 C1479 1.366 . S
C1479 C1478 1.366 . S
C1479 C1480 1.414 . S
C1479 C1482 1.499 . S
C1480 H1460 0.950 . S
C1480 C1479 1.414 . S
C1480 C1481 1.374 . S
C1481 H1461 0.950 . S
C1481 C1477 1.385 . S
C1481 C1480 1.374 . S
C1482 C1479 1.499 . S
C1482 C1483 1.373 . S
C1482 C1484 1.389 . S
C1483 H1462 0.950 . S
C1483 C1482 1.373 . S
C1483 C1499 1.377 . S
C1484 C1482 1.389 . S
C1484 C1485 1.524 . S
C1484 C1498 1.377 . S
C1485 C1484 1.524 . S
C1485 C1486 1.397 . S
C1485 C1490 1.363 . S
C1486 H1463 0.950 . S
C1486 C1485 1.397 . S
C1486 C1487 1.334 . S
C1487 H1464 0.950 . S
C1487 C1486 1.334 . S
C1487 C1488 1.287 . S
C1488 C1487 1.287 . S
C1488 C1489 1.524 . S
C1488 H1507 0.913 . S
C1489 H1465 0.950 . S
C1489 C1488 1.524 . S
C1489 C1490 1.415 . S
C1490 H1466 0.950 . S
C1490 C1485 1.363 . S
C1490 C1489 1.415 . S
C1491 H1467 0.951 . S
C1491 C1492 1.366 . S
C1491 C1493 1.388 . S
C1492 C1491 1.366 . S
C1492 C1496 1.385 . S
C1493 H1468 0.951 . S
C1493 C1491 1.388 . S
C1493 C1494 1.366 . S
C1494 C1493 1.366 . S
C1494 C1495 1.414 . S
C1494 C1497 1.499 . S
C1495 H1469 0.950 . S
C1495 C1494 1.414 . S
C1495 C1496 1.374 . S
C1496 H1470 0.950 . S
C1496 C1492 1.385 . S
C1496 C1495 1.374 . S
C1497 C1494 1.499 . S
C1497 C1498 1.373 . S
C1497 C1499 1.389 . S
C1498 H1471 0.950 . S
C1498 C1484 1.377 . S
C1498 C1497 1.373 . S
C1499 C1483 1.377 . S
C1499 C1497 1.389 . S
C1499 C1500 1.524 . S
C1500 C1499 1.524 . S
C1500 C1501 1.397 . S
C1500 C1505 1.363 . S
C1501 H1472 0.950 . S
C1501 C1500 1.397 . S
C1501 C1502 1.334 . S
C1502 H1473 0.950 . S
C1502 C1501 1.334 . S
C1502 C1503 1.287 . S
C1503 C1502 1.287 . S
C1503 C1504 1.524 . S
C1503 H1506 0.999 . S
C1504 H1474 0.950 . S
C1504 C1503 1.524 . S
C1504 C1505 1.415 . S
C1505 H1475 0.950 . S
C1505 C1500 1.363 . S
C1505 C1504 1.415 . S
H1506 C1503 0.999 . S
H1507 C1488 0.913 . S
H1508 C1526 0.951 . S
H1509 C1528 0.951 . S
H1510 C1530 0.950 . S
H1511 C1531 0.950 . S
H1512 C1533 0.950 . S
H1513 C1536 0.950 . S
H1514 C1537 0.950 . S
H1515 C1539 0.950 . S
H1516 C1540 0.950 . S
H1517 C1541 0.951 . S
H1518 C1543 0.951 . S
H1519 C1545 0.950 . S
H1520 C1546 0.950 . S
H1521 C1548 0.950 1_455 S
H1522 C1551 0.950 1_455 S
H1523 C1552 0.950 . S
H1524 C1554 0.950 . S
H1525 C1555 0.950 . S
C1526 H1508 0.951 . S
C1526 C1527 1.366 1_455 S
C1526 C1528 1.388 . S
C1527 C1526 1.366 1_655 S
C1527 C1531 1.385 . S
C1528 H1509 0.951 . S
C1528 C1526 1.388 . S
C1528 C1529 1.366 1_455 S
C1529 C1528 1.366 1_655 S
C1529 C1530 1.414 . S
C1529 C1532 1.499 . S
C1530 H1510 0.950 . S
C1530 C1529 1.414 . S
C1530 C1531 1.374 . S
C1531 H1511 0.950 . S
C1531 C1527 1.385 . S
C1531 C1530 1.374 . S
C1532 C1529 1.499 . S
C1532 C1533 1.373 . S
C1532 C1534 1.389 . S
C1533 H1512 0.950 . S
C1533 C1532 1.373 . S
C1533 C1549 1.377 . S
C1534 C1532 1.389 . S
C1534 C1535 1.524 1_655 S
C1534 C1548 1.377 . S
C1535 C1534 1.524 1_455 S
C1535 C1536 1.397 1_455 S
C1535 C1540 1.363 . S
C1536 H1513 0.950 . S
C1536 C1535 1.397 1_655 S
C1536 C1537 1.334 . S
C1537 H1514 0.950 . S
C1537 C1536 1.334 . S
C1537 C1538 1.287 1_655 S
C1538 C1537 1.287 1_455 S
C1538 C1539 1.524 . S
C1538 H1557 0.913 . S
C1539 H1515 0.950 . S
C1539 C1538 1.524 . S
C1539 C1540 1.415 . S
C1540 H1516 0.950 . S
C1540 C1535 1.363 . S
C1540 C1539 1.415 . S
C1541 H1517 0.951 . S
C1541 C1542 1.366 . S
C1541 C1543 1.388 . S
C1542 C1541 1.366 . S
C1542 C1546 1.385 1_655 S
C1543 H1518 0.951 . S
C1543 C1541 1.388 . S
C1543 C1544 1.366 . S
C1544 C1543 1.366 . S
C1544 C1545 1.414 1_655 S
C1544 C1547 1.499 . S
C1545 H1519 0.950 . S
C1545 C1544 1.414 1_455 S
C1545 C1546 1.374 . S
C1546 H1520 0.950 . S
C1546 C1542 1.385 1_455 S
C1546 C1545 1.374 . S
C1547 C1544 1.499 . S
C1547 C1548 1.373 . S
C1547 C1549 1.389 . S
C1548 H1521 0.950 1_655 S
C1548 C1534 1.377 . S
C1548 C1547 1.373 . S
C1549 C1533 1.377 . S
C1549 C1547 1.389 . S
C1549 C1550 1.524 . S
C1550 C1549 1.524 . S
C1550 C1551 1.397 . S
C1550 C1555 1.363 . S
C1551 H1522 0.950 1_655 S
C1551 C1550 1.397 . S
C1551 C1552 1.334 . S
C1552 H1523 0.950 . S
C1552 C1551 1.334 . S
C1552 C1553 1.287 . S
C1553 C1552 1.287 . S
C1553 C1554 1.524 . S
C1553 H1556 0.999 . S
C1554 H1524 0.950 . S
C1554 C1553 1.524 . S
C1554 C1555 1.415 . S
C1555 H1525 0.950 . S
C1555 C1550 1.363 . S
C1555 C1554 1.415 . S
H1556 C1553 0.999 . S
H1557 C1538 0.913 . S
H1558 C1576 0.951 1_545 S
H1559 C1578 0.951 1_545 S
H1560 C1580 0.950 . S
H1561 C1581 0.950 . S
H1562 C1583 0.951 1_545 S
H1563 C1586 0.950 . S
H1564 C1587 0.950 . S
H1565 C1589 0.950 . S
H1566 C1590 0.950 . S
H1567 C1591 0.951 . S
H1568 C1593 0.951 . S
H1569 C1595 0.933 1_545 S
H1570 C1596 0.950 1_545 S
H1571 C1598 0.950 . S
H1572 C1601 0.950 . S
H1573 C1602 0.950 . S
H1574 C1604 0.950 . S
H1575 C1605 0.950 1_565 S
C1576 H1558 0.951 1_565 S
C1576 C1577 1.366 . S
C1576 C1578 1.388 . S
C1577 C1576 1.366 . S
C1577 C1581 1.385 . S
C1578 H1559 0.951 1_565 S
C1578 C1576 1.388 . S
C1578 C1579 1.366 . S
C1579 C1578 1.366 . S
C1579 C1580 1.414 . S
C1579 C1582 1.499 . S
C1580 H1560 0.950 . S
C1580 C1579 1.414 . S
C1580 C1581 1.374 . S
C1581 H1561 0.950 . S
C1581 C1577 1.385 . S
C1581 C1580 1.374 . S
C1582 C1579 1.499 . S
C1582 C1583 1.373 . S
C1582 C1584 1.389 . S
C1583 H1562 0.951 1_565 S
C1583 C1582 1.373 . S
C1583 C1599 1.377 . S
C1584 C1582 1.389 . S
C1584 C1585 1.524 . S
C1584 C1598 1.377 . S
C1585 C1584 1.524 . S
C1585 C1586 1.397 . S
C1585 C1590 1.363 . S
C1586 H1563 0.950 . S
C1586 C1585 1.397 . S
C1586 C1587 1.334 . S
C1587 H1564 0.950 . S
C1587 C1586 1.334 . S
C1587 C1588 1.287 . S
C1588 C1587 1.287 . S
C1588 C1589 1.524 . S
C1588 H1607 0.913 . S
C1589 H1565 0.950 . S
C1589 C1588 1.524 . S
C1589 C1590 1.415 . S
C1590 H1566 0.950 . S
C1590 C1585 1.363 . S
C1590 C1589 1.415 . S
C1591 H1567 0.951 . S
C1591 C1592 1.366 . S
C1591 C1593 1.388 . S
C1592 C1591 1.366 . S
C1592 C1596 1.385 . S
C1593 H1568 0.951 . S
C1593 C1591 1.388 . S
C1593 C1594 1.366 . S
C1594 C1593 1.366 . S
C1594 C1595 1.433 . S
C1594 C1597 1.499 . S
C1595 H1569 0.933 1_565 S
C1595 C1594 1.433 . S
C1595 C1596 1.375 . S
C1596 H1570 0.950 1_565 S
C1596 C1592 1.385 . S
C1596 C1595 1.375 . S
C1597 C1594 1.499 . S
C1597 C1598 1.373 . S
C1597 C1599 1.389 . S
C1598 H1571 0.950 . S
C1598 C1584 1.377 . S
C1598 C1597 1.373 . S
C1599 C1583 1.377 . S
C1599 C1597 1.389 . S
C1599 C1600 1.524 1_565 S
C1600 C1599 1.524 1_545 S
C1600 C1601 1.397 . S
C1600 C1605 1.363 . S
C1601 H1572 0.950 . S
C1601 C1600 1.397 . S
C1601 C1602 1.334 . S
C1602 H1573 0.950 . S
C1602 C1601 1.334 . S
C1602 C1603 1.287 . S
C1603 C1602 1.287 . S
C1603 C1604 1.524 . S
C1603 H1606 0.999 . S
C1604 H1574 0.950 . S
C1604 C1603 1.524 . S
C1604 C1605 1.415 . S
C1605 H1575 0.950 1_545 S
C1605 C1600 1.363 . S
C1605 C1604 1.415 . S
H1606 C1603 0.999 . S
H1607 C1588 0.913 . S
H1608 C1626 0.951 . S
H1609 C1628 0.951 . S
H1610 C1630 0.950 . S
H1611 C1631 0.950 . S
H1612 C1633 0.950 . S
H1613 C1636 0.950 . S
H1614 C1637 0.950 . S
H1615 C1639 0.950 . S
H1616 C1640 0.950 . S
H1617 C1641 0.951 . S
H1618 C1643 0.951 . S
H1619 C1645 0.950 . S
H1620 C1646 0.950 . S
H1621 C1648 0.950 . S
H1622 C1651 0.950 . S
H1623 C1652 0.950 . S
H1624 C1654 0.950 . S
H1625 C1655 0.950 . S
C1626 H1608 0.951 . S
C1626 C1627 1.366 . S
C1626 C1628 1.388 . S
C1627 C1626 1.366 . S
C1627 C1631 1.385 . S
C1628 H1609 0.951 . S
C1628 C1626 1.388 . S
C1628 C1629 1.366 . S
C1629 C1628 1.366 . S
C1629 C1630 1.414 . S
C1629 C1632 1.499 . S
C1630 H1610 0.950 . S
C1630 C1629 1.414 . S
C1630 C1631 1.374 . S
C1631 H1611 0.950 . S
C1631 C1627 1.385 . S
C1631 C1630 1.374 . S
C1632 C1629 1.499 . S
C1632 C1633 1.373 . S
C1632 C1634 1.389 . S
C1633 H1612 0.950 . S
C1633 C1632 1.373 . S
C1633 C1649 1.377 . S
C1634 C1632 1.389 . S
C1634 C1635 1.524 . S
C1634 C1648 1.377 . S
C1635 C1634 1.524 . S
C1635 C1636 1.397 . S
C1635 C1640 1.363 . S
C1636 H1613 0.950 . S
C1636 C1635 1.397 . S
C1636 C1637 1.334 . S
C1637 H1614 0.950 . S
C1637 C1636 1.334 . S
C1637 C1638 1.287 . S
C1638 C1637 1.287 . S
C1638 C1639 1.524 . S
C1638 H1657 0.913 . S
C1639 H1615 0.950 . S
C1639 C1638 1.524 . S
C1639 C1640 1.415 . S
C1640 H1616 0.950 . S
C1640 C1635 1.363 . S
C1640 C1639 1.415 . S
C1641 H1617 0.951 . S
C1641 C1642 1.366 . S
C1641 C1643 1.388 . S
C1642 C1641 1.366 . S
C1642 C1646 1.385 . S
C1643 H1618 0.951 . S
C1643 C1641 1.388 . S
C1643 C1644 1.366 . S
C1644 C1643 1.366 . S
C1644 C1645 1.414 . S
C1644 C1647 1.499 . S
C1645 H1619 0.950 . S
C1645 C1644 1.414 . S
C1645 C1646 1.374 . S
C1646 H1620 0.950 . S
C1646 C1642 1.385 . S
C1646 C1645 1.374 . S
C1647 C1644 1.499 . S
C1647 C1648 1.373 . S
C1647 C1649 1.389 . S
C1648 H1621 0.950 . S
C1648 C1634 1.377 . S
C1648 C1647 1.373 . S
C1649 C1633 1.377 . S
C1649 C1647 1.389 . S
C1649 C1650 1.524 . S
C1650 C1649 1.524 . S
C1650 C1651 1.397 . S
C1650 C1655 1.363 . S
C1651 H1622 0.950 . S
C1651 C1650 1.397 . S
C1651 C1652 1.334 . S
C1652 H1623 0.950 . S
C1652 C1651 1.334 . S
C1652 C1653 1.287 . S
C1653 C1652 1.287 . S
C1653 C1654 1.524 . S
C1653 H1656 0.999 . S
C1654 H1624 0.950 . S
C1654 C1653 1.524 . S
C1654 C1655 1.415 . S
C1655 H1625 0.950 . S
C1655 C1650 1.363 . S
C1655 C1654 1.415 . S
H1656 C1653 0.999 . S
H1657 C1638 0.913 . S
H1658 C1676 0.951 . S
H1659 C1678 0.951 . S
H1660 C1680 0.950 . S
H1661 C1681 0.950 . S
H1662 C1683 0.950 . S
H1663 C1686 0.950 . S
H1664 C1687 0.950 . S
H1665 C1689 0.950 . S
H1666 C1690 0.950 . S
H1667 C1691 0.951 . S
H1668 C1693 0.951 . S
H1669 C1695 0.950 . S
H1670 C1696 0.950 . S
H1671 C1698 0.950 . S
H1672 C1701 0.950 . S
H1673 C1702 0.950 . S
H1674 C1704 0.950 . S
H1675 C1705 0.950 . S
C1676 H1658 0.951 . S
C1676 C1677 1.366 . S
C1676 C1678 1.388 . S
C1677 C1676 1.366 . S
C1677 C1681 1.385 . S
C1678 H1659 0.951 . S
C1678 C1676 1.388 . S
C1678 C1679 1.366 . S
C1679 C1678 1.366 . S
C1679 C1680 1.414 . S
C1679 C1682 1.499 . S
C1680 H1660 0.950 . S
C1680 C1679 1.414 . S
C1680 C1681 1.374 . S
C1681 H1661 0.950 . S
C1681 C1677 1.385 . S
C1681 C1680 1.374 . S
C1682 C1679 1.499 . S
C1682 C1683 1.373 . S
C1682 C1684 1.389 . S
C1683 H1662 0.950 . S
C1683 C1682 1.373 . S
C1683 C1699 1.377 . S
C1684 C1682 1.389 . S
C1684 C1685 1.524 . S
C1684 C1698 1.377 . S
C1685 C1684 1.524 . S
C1685 C1686 1.397 . S
C1685 C1690 1.363 . S
C1686 H1663 0.950 . S
C1686 C1685 1.397 . S
C1686 C1687 1.334 . S
C1687 H1664 0.950 . S
C1687 C1686 1.334 . S
C1687 C1688 1.287 . S
C1688 C1687 1.287 . S
C1688 C1689 1.524 . S
C1688 H1707 0.913 . S
C1689 H1665 0.950 . S
C1689 C1688 1.524 . S
C1689 C1690 1.415 . S
C1690 H1666 0.950 . S
C1690 C1685 1.363 . S
C1690 C1689 1.415 . S
C1691 H1667 0.951 . S
C1691 C1692 1.366 . S
C1691 C1693 1.388 . S
C1692 C1691 1.366 . S
C1692 C1696 1.385 . S
C1693 H1668 0.951 . S
C1693 C1691 1.388 . S
C1693 C1694 1.366 . S
C1694 C1693 1.366 . S
C1694 C1695 1.414 . S
C1694 C1697 1.499 . S
C1695 H1669 0.950 . S
C1695 C1694 1.414 . S
C1695 C1696 1.374 . S
C1696 H1670 0.950 . S
C1696 C1692 1.385 . S
C1696 C1695 1.374 . S
C1697 C1694 1.499 . S
C1697 C1698 1.373 . S
C1697 C1699 1.389 . S
C1698 H1671 0.950 . S
C1698 C1684 1.377 . S
C1698 C1697 1.373 . S
C1699 C1683 1.377 . S
C1699 C1697 1.389 . S
C1699 C1700 1.524 . S
C1700 C1699 1.524 . S
C1700 C1701 1.397 . S
C1700 C1705 1.363 . S
C1701 H1672 0.950 . S
C1701 C1700 1.397 . S
C1701 C1702 1.334 . S
C1702 H1673 0.950 . S
C1702 C1701 1.334 . S
C1702 C1703 1.287 . S
C1703 C1702 1.287 . S
C1703 C1704 1.524 . S
C1703 H1706 0.999 . S
C1704 H1674 0.950 . S
C1704 C1703 1.524 . S
C1704 C1705 1.415 . S
C1705 H1675 0.950 . S
C1705 C1700 1.363 . S
C1705 C1704 1.415 . S
H1706 C1703 0.999 . S
H1707 C1688 0.913 . S
H1708 C1726 0.951 . S
H1709 C1728 0.951 . S
H1710 C1730 0.950 . S
H1711 C1731 0.950 . S
H1712 C1733 0.950 . S
H1713 C1736 0.950 . S
H1714 C1737 0.950 . S
H1715 C1739 0.950 1_655 S
H1716 C1740 0.957 . S
H1717 C1741 0.951 . S
H1718 C1743 0.951 . S
H1719 C1745 0.950 . S
H1720 C1746 0.950 . S
H1721 C1748 0.950 . S
H1722 C1751 0.950 . S
H1723 C1752 0.950 . S
H1724 C1754 0.950 . S
H1725 C1755 0.950 . S
C1726 H1708 0.951 . S
C1726 C1727 1.366 1_655 S
C1726 C1728 1.388 . S
C1727 C1726 1.366 1_455 S
C1727 C1731 1.385 . S
C1728 H1709 0.951 . S
C1728 C1726 1.388 . S
C1728 C1729 1.366 1_655 S
C1729 C1728 1.366 1_455 S
C1729 C1730 1.414 . S
C1729 C1732 1.499 . S
C1730 H1710 0.950 . S
C1730 C1729 1.414 . S
C1730 C1731 1.374 . S
C1731 H1711 0.950 . S
C1731 C1727 1.385 . S
C1731 C1730 1.374 . S
C1732 C1729 1.499 . S
C1732 C1733 1.373 . S
C1732 C1734 1.389 . S
C1733 H1712 0.950 . S
C1733 C1732 1.373 . S
C1733 C1749 1.377 . S
C1734 C1732 1.389 . S
C1734 C1735 1.524 . S
C1734 C1748 1.377 . S
C1735 C1734 1.524 . S
C1735 C1736 1.397 . S
C1735 C1740 1.357 1_455 S
C1736 H1713 0.950 . S
C1736 C1735 1.397 . S
C1736 C1737 1.334 . S
C1737 H1714 0.950 . S
C1737 C1736 1.334 . S
C1737 C1738 1.287 . S
C1738 C1737 1.287 . S
C1738 C1739 1.524 . S
C1738 H1757 0.913 . S
C1739 H1715 0.950 1_455 S
C1739 C1738 1.524 . S
C1739 C1740 1.414 1_455 S
C1740 H1716 0.957 . S
C1740 C1735 1.357 1_655 S
C1740 C1739 1.414 1_655 S
C1741 H1717 0.951 . S
C1741 C1742 1.366 . S
C1741 C1743 1.388 . S
C1742 C1741 1.366 . S
C1742 C1746 1.385 1_455 S
C1743 H1718 0.951 . S
C1743 C1741 1.388 . S
C1743 C1744 1.366 . S
C1744 C1743 1.366 . S
C1744 C1745 1.414 1_455 S
C1744 C1747 1.499 . S
C1745 H1719 0.950 . S
C1745 C1744 1.414 1_655 S
C1745 C1746 1.374 . S
C1746 H1720 0.950 . S
C1746 C1742 1.385 1_655 S
C1746 C1745 1.374 . S
C1747 C1744 1.499 . S
C1747 C1748 1.373 . S
C1747 C1749 1.389 . S
C1748 H1721 0.950 . S
C1748 C1734 1.377 . S
C1748 C1747 1.373 . S
C1749 C1733 1.377 . S
C1749 C1747 1.389 . S
C1749 C1750 1.524 . S
C1750 C1749 1.524 . S
C1750 C1751 1.397 1_455 S
C1750 C1755 1.363 . S
C1751 H1722 0.950 . S
C1751 C1750 1.397 1_655 S
C1751 C1752 1.334 . S
C1752 H1723 0.950 . S
C1752 C1751 1.334 . S
C1752 C1753 1.287 . S
C1753 C1752 1.287 . S
C1753 C1754 1.524 1_655 S
C1753 H1756 0.999 . S
C1754 H1724 0.950 . S
C1754 C1753 1.524 1_455 S
C1754 C1755 1.415 . S
C1755 H1725 0.950 . S
C1755 C1750 1.363 . S
C1755 C1754 1.415 . S
H1756 C1753 0.999 . S
H1757 C1738 0.913 . S
H1758 C1776 0.951 . S
H1759 C1778 0.951 . S
H1760 C1780 0.950 . S
H1761 C1781 0.950 . S
H1762 C1783 0.950 . S
H1763 C1786 0.950 . S
H1764 C1787 0.950 . S
H1765 C1789 0.950 . S
H1766 C1790 0.950 . S
H1767 C1791 0.951 . S
H1768 C1793 0.951 . S
H1769 C1795 0.950 . S
H1770 C1796 0.950 . S
H1771 C1798 0.974 . S
H1772 C1801 0.950 . S
H1773 C1802 0.950 . S
H1774 C1804 0.950 . S
H1775 C1805 0.950 . S
C1776 H1758 0.951 . S
C1776 C1777 1.366 . S
C1776 C1778 1.388 . S
C1777 C1776 1.366 . S
C1777 C1781 1.385 . S
C1778 H1759 0.951 . S
C1778 C1776 1.388 . S
C1778 C1779 1.366 . S
C1779 C1778 1.366 . S
C1779 C1780 1.414 . S
C1779 C1782 1.499 . S
C1780 H1760 0.950 . S
C1780 C1779 1.414 . S
C1780 C1781 1.374 . S
C1781 H1761 0.950 . S
C1781 C1777 1.385 . S
C1781 C1780 1.374 . S
C1782 C1779 1.499 . S
C1782 C1783 1.373 . S
C1782 C1784 1.389 1_545 S
C1783 H1762 0.950 . S
C1783 C1782 1.373 . S
C1783 C1799 1.377 . S
C1784 C1782 1.389 1_565 S
C1784 C1785 1.524 . S
C1784 C1798 1.380 . S
C1785 C1784 1.524 . S
C1785 C1786 1.397 . S
C1785 C1790 1.363 . S
C1786 H1763 0.950 . S
C1786 C1785 1.397 . S
C1786 C1787 1.334 . S
C1787 H1764 0.950 . S
C1787 C1786 1.334 . S
C1787 C1788 1.287 . S
C1788 C1787 1.287 . S
C1788 C1789 1.524 . S
C1788 H1807 0.913 . S
C1789 H1765 0.950 . S
C1789 C1788 1.524 . S
C1789 C1790 1.415 . S
C1790 H1766 0.950 . S
C1790 C1785 1.363 . S
C1790 C1789 1.415 . S
C1791 H1767 0.951 . S
C1791 C1792 1.366 . S
C1791 C1793 1.388 . S
C1792 C1791 1.366 . S
C1792 C1796 1.385 . S
C1793 H1768 0.951 . S
C1793 C1791 1.388 . S
C1793 C1794 1.366 . S
C1794 C1793 1.366 . S
C1794 C1795 1.414 . S
C1794 C1797 1.499 . S
C1795 H1769 0.950 . S
C1795 C1794 1.414 . S
C1795 C1796 1.374 . S
C1796 H1770 0.950 . S
C1796 C1792 1.385 . S
C1796 C1795 1.374 . S
C1797 C1794 1.499 . S
C1797 C1798 1.348 1_545 S
C1797 C1799 1.389 . S
C1798 H1771 0.974 . S
C1798 C1784 1.380 . S
C1798 C1797 1.348 1_565 S
C1799 C1783 1.377 . S
C1799 C1797 1.389 . S
C1799 C1800 1.524 . S
C1800 C1799 1.524 . S
C1800 C1801 1.397 . S
C1800 C1805 1.363 . S
C1801 H1772 0.950 . S
C1801 C1800 1.397 . S
C1801 C1802 1.334 . S
C1802 H1773 0.950 . S
C1802 C1801 1.334 . S
C1802 C1803 1.287 . S
C1803 C1802 1.287 . S
C1803 C1804 1.524 . S
C1803 H1806 0.999 . S
C1804 H1774 0.950 . S
C1804 C1803 1.524 . S
C1804 C1805 1.415 . S
C1805 H1775 0.950 . S
C1805 C1800 1.363 . S
C1805 C1804 1.415 . S
H1806 C1803 0.999 . S
H1807 C1788 0.913 . S
C227 C5 1.076 . S
C242 C127 1.102 . S
C277 C140 1.102 . S
C292 C18 1.077 . S
C327 C147 1.102 . S
C342 C31 1.077 . S
C377 C114 1.102 . S
C392 C42 1.077 . S
C427 C57 1.076 . S
C442 C205 1.102 . S
C477 C160 1.102 . S
C492 C70 1.076 . S
C527 C173 1.102 . S
C542 C81 1.077 . S
C577 C186 1.102 . S
C592 C96 1.077 . S
C627 C109 1.077 . S
C642 C23 1.102 . S
C677 C122 1.077 . S
C692 C36 1.102 . S
C727 C135 1.076 . S
C742 C43 1.102 . S
C777 C10 1.102 . S
C792 C146 1.076 . S
C827 C159 1.076 . S
C842 C101 1.102 . S
C877 C172 1.077 . S
C892 C62 1.102 . S
C927 C75 1.102 . S
C942 C185 1.077 . S
C977 C200 1.077 . S
C992 C82 1.102 . S
C1027 C108 1.560 . S
C1042 C4 1.560 . S
C1077 C17 1.559 . S
C1092 C121 1.559 . S
C1127 C134 1.559 1_655 S
C1142 C30 1.559 1_455 S
C1177 C49 1.559 1_545 S
C1192 C153 1.559 1_565 S
C1227 C166 1.559 . S
C1242 C56 1.559 . S
C1277 C69 1.560 . S
C1292 C179 1.560 . S
C1327 C192 1.558 1_655 S
C1342 C88 1.558 1_455 S
C1377 C199 1.559 1_565 S
C1392 C95 1.559 1_545 S
C1427 C55 1.745 . S
C1442 C3 1.746 . S
C1477 C68 1.746 . S
C1492 C16 1.745 . S
C1527 C29 1.745 . S
C1542 C83 1.745 . S
C1577 C94 1.745 . S
C1592 C44 1.745 . S
C1627 C107 1.745 . S
C1642 C161 1.746 . S
C1677 C174 1.745 . S
C1692 C120 1.745 . S
C1727 C187 1.745 . S
C1742 C133 1.745 . S
C1777 C198 1.745 . S
C1792 C148 1.745 . S
