# Generated by pormake.
# Topology gis, (4)-cn, num edge types: 1
# Building blocks:
#     Node 0, Type 0, BuildingBlock: GALJAG_clean_sbu_0, # of connection points: 4
#     Node 1, Type 0, BuildingBlock: GALJAG_clean_sbu_0, # of connection points: 4
#     Node 2, Type 0, BuildingBlock: GALJAG_clean_sbu_0, # of connection points: 4
#     Node 3, Type 0, BuildingBlock: GALJAG_clean_sbu_0, # of connection points: 4
#     Node 4, Type 0, BuildingBlock: GALJAG_clean_sbu_0, # of connection points: 4
#     Node 5, Type 0, BuildingBlock: GALJAG_clean_sbu_0, # of connection points: 4
#     Node 6, Type 0, BuildingBlock: GALJAG_clean_sbu_0, # of connection points: 4
#     Node 7, Type 0, BuildingBlock: GALJAG_clean_sbu_0, # of connection points: 4
#     Node 8, Type 0, BuildingBlock: GALJAG_clean_sbu_0, # of connection points: 4
#     Node 9, Type 0, BuildingBlock: GALJAG_clean_sbu_0, # of connection points: 4
#     Node 10, Type 0, BuildingBlock: GALJAG_clean_sbu_0, # of connection points: 4
#     Node 11, Type 0, BuildingBlock: GALJAG_clean_sbu_0, # of connection points: 4
#     Node 12, Type 0, BuildingBlock: GALJAG_clean_sbu_0, # of connection points: 4
#     Node 13, Type 0, BuildingBlock: GALJAG_clean_sbu_0, # of connection points: 4
#     Node 14, Type 0, BuildingBlock: GALJAG_clean_sbu_0, # of connection points: 4
#     Node 15, Type 0, BuildingBlock: GALJAG_clean_sbu_0, # of connection points: 4
#     Edge 16, Type (0, 0), BuildingBlock: KIFKEQ_clean_linker_1, # of connection points: 2
#     Edge 17, Type (0, 0), BuildingBlock: KIFKEQ_clean_linker_1, # of connection points: 2
#     Edge 18, Type (0, 0), BuildingBlock: KIFKEQ_clean_linker_1, # of connection points: 2
#     Edge 19, Type (0, 0), BuildingBlock: KIFKEQ_clean_linker_1, # of connection points: 2
#     Edge 20, Type (0, 0), BuildingBlock: KIFKEQ_clean_linker_1, # of connection points: 2
#     Edge 21, Type (0, 0), BuildingBlock: KIFKEQ_clean_linker_1, # of connection points: 2
#     Edge 22, Type (0, 0), BuildingBlock: KIFKEQ_clean_linker_1, # of connection points: 2
#     Edge 23, Type (0, 0), BuildingBlock: KIFKEQ_clean_linker_1, # of connection points: 2
#     Edge 24, Type (0, 0), BuildingBlock: KIFKEQ_clean_linker_1, # of connection points: 2
#     Edge 25, Type (0, 0), BuildingBlock: KIFKEQ_clean_linker_1, # of connection points: 2
#     Edge 26, Type (0, 0), BuildingBlock: KIFKEQ_clean_linker_1, # of connection points: 2
#     Edge 27, Type (0, 0), BuildingBlock: KIFKEQ_clean_linker_1, # of connection points: 2
#     Edge 28, Type (0, 0), BuildingBlock: KIFKEQ_clean_linker_1, # of connection points: 2
#     Edge 29, Type (0, 0), BuildingBlock: KIFKEQ_clean_linker_1, # of connection points: 2
#     Edge 30, Type (0, 0), BuildingBlock: KIFKEQ_clean_linker_1, # of connection points: 2
#     Edge 31, Type (0, 0), BuildingBlock: KIFKEQ_clean_linker_1, # of connection points: 2
#     Edge 32, Type (0, 0), BuildingBlock: KIFKEQ_clean_linker_1, # of connection points: 2
#     Edge 33, Type (0, 0), BuildingBlock: KIFKEQ_clean_linker_1, # of connection points: 2
#     Edge 34, Type (0, 0), BuildingBlock: KIFKEQ_clean_linker_1, # of connection points: 2
#     Edge 35, Type (0, 0), BuildingBlock: KIFKEQ_clean_linker_1, # of connection points: 2
#     Edge 36, Type (0, 0), BuildingBlock: KIFKEQ_clean_linker_1, # of connection points: 2
#     Edge 37, Type (0, 0), BuildingBlock: KIFKEQ_clean_linker_1, # of connection points: 2
#     Edge 38, Type (0, 0), BuildingBlock: KIFKEQ_clean_linker_1, # of connection points: 2
#     Edge 39, Type (0, 0), BuildingBlock: KIFKEQ_clean_linker_1, # of connection points: 2
#     Edge 40, Type (0, 0), BuildingBlock: KIFKEQ_clean_linker_1, # of connection points: 2
#     Edge 41, Type (0, 0), BuildingBlock: KIFKEQ_clean_linker_1, # of connection points: 2
#     Edge 42, Type (0, 0), BuildingBlock: KIFKEQ_clean_linker_1, # of connection points: 2
#     Edge 43, Type (0, 0), BuildingBlock: KIFKEQ_clean_linker_1, # of connection points: 2
#     Edge 44, Type (0, 0), BuildingBlock: KIFKEQ_clean_linker_1, # of connection points: 2
#     Edge 45, Type (0, 0), BuildingBlock: KIFKEQ_clean_linker_1, # of connection points: 2
#     Edge 46, Type (0, 0), BuildingBlock: KIFKEQ_clean_linker_1, # of connection points: 2
#     Edge 47, Type (0, 0), BuildingBlock: KIFKEQ_clean_linker_1, # of connection points: 2
# Relax obj value: 0.052
# Max RMSD: 0.088
# Mean RMSD: 0.088
data_MOF--net-gis--node1-GALJAG_clean_sbu_0--edge1-KIFKEQ_clean_linker_1
_symmetry_space_group_name_H-M    P1
_symmetry_Int_Tables_number       1
_symmetry_cell_setting            triclinic
loop_
_symmetry_equiv_pos_as_xyz
'x, y, z'
_cell_length_a     54.698788
_cell_length_b     54.703825
_cell_length_c     38.046318
_cell_angle_alpha  90.11075
_cell_angle_beta   90.156796
_cell_angle_gamma 89.900899
loop_
_atom_site_label
_atom_site_type_symbol
_atom_site_fract_x
_atom_site_fract_y
_atom_site_fract_z
_atom_type_partial_charge
In0 In 0.1381 0.61324 0.11786 0.0
O1 O 0.15391 0.60458 0.17213 0.0
O2 O 0.17811 0.61677 0.13202 0.0
C3 C 0.08969 0.60606 0.12496 0.0
C4 C 0.13818 0.66204 0.10914 0.0
C5 C 0.14829 0.5758 0.07435 0.0
O6 O 0.10437 0.60255 0.15024 0.0
O7 O 0.09957 0.61274 0.09666 0.0
O8 O 0.14569 0.59743 0.06323 0.0
O9 O 0.14586 0.57328 0.10708 0.0
C10 C 0.1756 0.60976 0.16338 0.0
O11 O 0.14756 0.64782 0.08661 0.0
O12 O 0.12911 0.65157 0.13557 0.0
In13 In 0.63924 0.88832 0.37242 0.0
O14 O 0.64935 0.85406 0.40408 0.0
O15 O 0.63457 0.84984 0.3525 0.0
C16 C 0.64485 0.92668 0.41588 0.0
C17 C 0.67697 0.8947 0.32844 0.0
C18 C 0.59049 0.89114 0.36504 0.0
O19 O 0.64702 0.90488 0.42658 0.0
O20 O 0.6403 0.92886 0.38353 0.0
O21 O 0.60475 0.89691 0.34025 0.0
O22 O 0.60094 0.88423 0.39292 0.0
C23 C 0.64262 0.8396 0.3799 0.0
O24 O 0.65505 0.89787 0.31871 0.0
O25 O 0.67963 0.88849 0.36015 0.0
In26 In 0.35995 0.38694 0.62201 0.0
O27 O 0.34861 0.40272 0.5688 0.0
O28 O 0.36021 0.42724 0.6091 0.0
C29 C 0.35554 0.33822 0.61538 0.0
C30 C 0.40894 0.38937 0.62761 0.0
C31 C 0.32267 0.39445 0.66669 0.0
O32 O 0.35064 0.35252 0.5902 0.0
O33 O 0.36258 0.34859 0.64327 0.0
O34 O 0.34472 0.39692 0.67624 0.0
O35 O 0.31973 0.38847 0.63494 0.0
C36 C 0.35257 0.4246 0.578 0.0
O37 O 0.3951 0.39539 0.6528 0.0
O38 O 0.39799 0.38235 0.60016 0.0
In39 In 0.85807 0.10455 0.86533 0.0
O40 O 0.88896 0.10203 0.82491 0.0
O41 O 0.898 0.09892 0.87917 0.0
C42 C 0.81757 0.09775 0.82653 0.0
C43 C 0.85156 0.06677 0.90909 0.0
C44 C 0.85713 0.15324 0.87655 0.0
O45 O 0.83873 0.09384 0.81443 0.0
O46 O 0.81698 0.10486 0.85808 0.0
O47 O 0.85741 0.13827 0.90183 0.0
O48 O 0.85731 0.14355 0.84652 0.0
C49 C 0.90544 0.09919 0.84786 0.0
O50 O 0.849 0.08871 0.91912 0.0
O51 O 0.85735 0.0641 0.8772 0.0
In52 In 0.13981 0.39149 0.8734 0.0
O53 O 0.14684 0.35671 0.90584 0.0
O54 O 0.13154 0.35324 0.85462 0.0
C55 C 0.15085 0.42813 0.91767 0.0
C56 C 0.17805 0.39559 0.82962 0.0
C57 C 0.09178 0.40083 0.86461 0.0
O58 O 0.14729 0.40654 0.92841 0.0
O59 O 0.14914 0.43096 0.88484 0.0
O60 O 0.106 0.39839 0.83868 0.0
O61 O 0.10186 0.39871 0.89428 0.0
C62 C 0.139 0.3426 0.88198 0.0
O63 O 0.15682 0.4027 0.82106 0.0
O64 O 0.17975 0.38645 0.85996 0.0
In65 In 0.85786 0.88622 0.11913 0.0
O66 O 0.84915 0.85125 0.08811 0.0
O67 O 0.86376 0.84811 0.13991 0.0
C68 C 0.85069 0.9235 0.07433 0.0
C69 C 0.82023 0.89278 0.16344 0.0
C70 C 0.90648 0.89064 0.12656 0.0
O71 O 0.84771 0.90149 0.065 0.0
O72 O 0.85702 0.92643 0.10595 0.0
O73 O 0.89196 0.89621 0.15116 0.0
O74 O 0.89637 0.88308 0.09873 0.0
C75 C 0.85624 0.8373 0.11264 0.0
O76 O 0.84212 0.89658 0.17273 0.0
O77 O 0.81754 0.88576 0.13207 0.0
In78 In 0.35801 0.60699 0.37315 0.0
O79 O 0.34753 0.59082 0.42626 0.0
O80 O 0.35353 0.56652 0.38324 0.0
C81 C 0.35973 0.65555 0.38452 0.0
C82 C 0.40631 0.59934 0.366 0.0
C83 C 0.32008 0.60434 0.3281 0.0
O84 O 0.35011 0.64119 0.40651 0.0
O85 O 0.36822 0.64535 0.35743 0.0
O86 O 0.34148 0.59814 0.31921 0.0
O87 O 0.31805 0.6117 0.35937 0.0
C88 C 0.34826 0.56896 0.41534 0.0
O89 O 0.39215 0.60006 0.33963 0.0
O90 O 0.39599 0.60221 0.39535 0.0
In91 In 0.63354 0.10964 0.62352 0.0
O92 O 0.60078 0.09374 0.65343 0.0
O93 O 0.59796 0.12992 0.63407 0.0
C94 C 0.66848 0.10112 0.67217 0.0
C95 C 0.63464 0.07302 0.57582 0.0
C96 C 0.6425 0.1537 0.59469 0.0
O97 O 0.64978 0.11385 0.67876 0.0
O98 O 0.66933 0.09263 0.64142 0.0
O99 O 0.65518 0.14503 0.61949 0.0
O100 O 0.6258 0.13974 0.58351 0.0
C101 C 0.58768 0.11256 0.64983 0.0
O102 O 0.64573 0.09295 0.5711 0.0
O103 O 0.6226 0.07195 0.60392 0.0
In104 In 0.86022 0.38553 0.87392 0.0
O105 O 0.84868 0.40105 0.92716 0.0
O106 O 0.85584 0.42587 0.88536 0.0
C107 C 0.86204 0.33685 0.88322 0.0
C108 C 0.90851 0.39343 0.86726 0.0
C109 C 0.82222 0.38794 0.82897 0.0
O110 O 0.85363 0.35097 0.90664 0.0
O111 O 0.86926 0.34735 0.85565 0.0
O112 O 0.84375 0.39324 0.81965 0.0
O113 O 0.82009 0.38157 0.86064 0.0
C114 C 0.84971 0.42303 0.91702 0.0
O115 O 0.89389 0.39651 0.84178 0.0
O116 O 0.89863 0.38665 0.89555 0.0
In117 In 0.35727 0.10701 0.6277 0.0
O118 O 0.35206 0.14058 0.59232 0.0
O119 O 0.3484 0.14494 0.64763 0.0
C120 C 0.35426 0.0696 0.582 0.0
C121 C 0.31992 0.09552 0.67017 0.0
C122 C 0.40552 0.1088 0.6419 0.0
O123 O 0.3467 0.09081 0.57447 0.0
O124 O 0.3636 0.06751 0.6122 0.0
O125 O 0.3905 0.09933 0.66305 0.0
O126 O 0.39614 0.11703 0.61402 0.0
C127 C 0.34804 0.1549 0.61778 0.0
O128 O 0.34127 0.09921 0.68186 0.0
O129 O 0.31765 0.09741 0.63728 0.0
In130 In 0.63891 0.60706 0.37621 0.0
O131 O 0.60456 0.59866 0.34355 0.0
O132 O 0.60028 0.61325 0.39509 0.0
C133 C 0.67643 0.59784 0.33281 0.0
C134 C 0.64514 0.56938 0.42059 0.0
C135 C 0.64476 0.65566 0.38251 0.0
O136 O 0.65442 0.59616 0.32275 0.0
O137 O 0.67928 0.60395 0.36457 0.0
O138 O 0.64509 0.64175 0.40905 0.0
O139 O 0.64148 0.64499 0.35346 0.0
C140 C 0.59006 0.6056 0.36744 0.0
O141 O 0.65052 0.59105 0.42934 0.0
O142 O 0.63665 0.56705 0.38993 0.0
In143 In 0.13866 0.89484 0.12122 0.0
O144 O 0.10425 0.90034 0.15485 0.0
O145 O 0.10037 0.89629 0.09941 0.0
C146 C 0.17674 0.90134 0.16475 0.0
C147 C 0.14618 0.93309 0.07863 0.0
C148 C 0.14124 0.84603 0.11283 0.0
O149 O 0.15497 0.90552 0.1743 0.0
O150 O 0.17908 0.89417 0.13337 0.0
O151 O 0.14493 0.86048 0.08746 0.0
O152 O 0.13631 0.85629 0.14165 0.0
C153 C 0.09001 0.8995 0.12861 0.0
O154 O 0.14849 0.91125 0.06802 0.0
O155 O 0.14057 0.9354 0.11063 0.0
In156 In 0.85716 0.60438 0.12413 0.0
O157 O 0.8415 0.59261 0.17712 0.0
O158 O 0.81697 0.60508 0.13731 0.0
C159 C 0.90594 0.59939 0.13065 0.0
C160 C 0.85428 0.65319 0.11609 0.0
C161 C 0.84778 0.56661 0.08116 0.0
O162 O 0.89207 0.59942 0.1572 0.0
O163 O 0.89518 0.60201 0.10155 0.0
O164 O 0.84444 0.58853 0.0716 0.0
O165 O 0.85561 0.56401 0.11218 0.0
C166 C 0.81964 0.59709 0.16818 0.0
O167 O 0.85204 0.63878 0.09024 0.0
O168 O 0.85808 0.64292 0.14524 0.0
In169 In 0.13308 0.11107 0.86406 0.0
O170 O 0.10205 0.09527 0.83058 0.0
O171 O 0.09379 0.12482 0.86489 0.0
C172 C 0.17077 0.09948 0.82181 0.0
C173 C 0.13504 0.07613 0.91385 0.0
C174 C 0.14106 0.15894 0.87626 0.0
O175 O 0.15016 0.10589 0.8099 0.0
O176 O 0.17225 0.09883 0.85486 0.0
O177 O 0.13407 0.14466 0.90032 0.0
O178 O 0.14417 0.14895 0.8467 0.0
C179 C 0.08604 0.10964 0.84255 0.0
O180 O 0.1441 0.0971 0.91872 0.0
O181 O 0.12467 0.07324 0.88455 0.0
In182 In 0.64131 0.38206 0.61603 0.0
O183 O 0.60712 0.38583 0.65045 0.0
O184 O 0.60334 0.38923 0.5949 0.0
C185 C 0.67816 0.3835 0.66324 0.0
C186 C 0.65095 0.42162 0.57661 0.0
C187 C 0.64099 0.33457 0.59681 0.0
O188 O 0.65655 0.38942 0.67132 0.0
O189 O 0.68089 0.37672 0.63185 0.0
O190 O 0.6527 0.35048 0.57977 0.0
O191 O 0.6296 0.34263 0.62317 0.0
C192 C 0.59301 0.38935 0.62452 0.0
O193 O 0.65095 0.40022 0.56399 0.0
O194 O 0.64642 0.42291 0.60906 0.0
In195 In 0.35823 0.88821 0.37344 0.0
O196 O 0.34761 0.90384 0.42699 0.0
O197 O 0.35608 0.92855 0.38548 0.0
C198 C 0.3563 0.83937 0.38168 0.0
C199 C 0.40676 0.89364 0.36551 0.0
C200 C 0.32042 0.89556 0.32961 0.0
O201 O 0.3526 0.85383 0.4071 0.0
O202 O 0.36086 0.84962 0.35279 0.0
O203 O 0.34223 0.89999 0.3207 0.0
O204 O 0.31788 0.88748 0.36043 0.0
C205 C 0.34997 0.92582 0.41718 0.0
O206 O 0.39239 0.89376 0.33942 0.0
O207 O 0.39661 0.89067 0.39489 0.0
H208 H 0.14381 0.81801 0.05281 0.0
H209 H 0.14102 0.81333 0.16604 0.0
H210 H 0.14278 0.77322 0.049 0.0
H211 H 0.14074 0.7691 0.16239 0.0
H212 H 0.11136 0.69406 0.14726 0.0
H213 H 0.11219 0.73837 0.14516 0.0
H214 H 0.16577 0.73546 0.06197 0.0
H215 H 0.16429 0.69064 0.06336 0.0
C216 C 0.14321 0.80742 0.07681 0.0
C217 C 0.14222 0.81913 0.10969 0.0
C218 C 0.14271 0.78182 0.07466 0.0
C219 C 0.1413 0.76759 0.10538 0.0
C220 C 0.14116 0.77946 0.13817 0.0
C221 C 0.14148 0.80486 0.14028 0.0
C222 C 0.12325 0.70283 0.12838 0.0
C223 C 0.13797 0.68891 0.10574 0.0
C224 C 0.12383 0.72826 0.1273 0.0
C225 C 0.13939 0.74049 0.10385 0.0
C226 C 0.15355 0.72659 0.08028 0.0
C227 C 0.15279 0.70097 0.08117 0.0
H228 H 0.43536 0.88831 0.30679 0.0
H229 H 0.43841 0.90492 0.41772 0.0
H230 H 0.48017 0.88869 0.30442 0.0
H231 H 0.48272 0.90617 0.41522 0.0
H232 H 0.5579 0.87368 0.41198 0.0
H233 H 0.5137 0.87568 0.40948 0.0
H234 H 0.51762 0.91339 0.30993 0.0
H235 H 0.56239 0.91068 0.31201 0.0
C236 C 0.44561 0.8924 0.33047 0.0
C237 C 0.4335 0.89621 0.36254 0.0
C238 C 0.47121 0.89272 0.32912 0.0
C239 C 0.48501 0.89704 0.35977 0.0
C240 C 0.47269 0.9021 0.39133 0.0
C241 C 0.44728 0.90151 0.39275 0.0
C242 C 0.5494 0.88241 0.3895 0.0
C243 C 0.5636 0.89219 0.3623 0.0
C244 C 0.52402 0.8837 0.38817 0.0
C245 C 0.5121 0.89506 0.35978 0.0
C246 C 0.52626 0.90447 0.33212 0.0
C247 C 0.55185 0.90302 0.33336 0.0
H248 H 0.33813 0.31064 0.56031 0.0
H249 H 0.36767 0.30518 0.66543 0.0
H250 H 0.33341 0.26606 0.55838 0.0
H251 H 0.36351 0.26109 0.66326 0.0
H252 H 0.3317 0.18682 0.66696 0.0
H253 H 0.33122 0.23119 0.6639 0.0
H254 H 0.35784 0.22787 0.55716 0.0
H255 H 0.35765 0.18312 0.55997 0.0
C256 C 0.34368 0.29993 0.58288 0.0
C257 C 0.35312 0.31138 0.61309 0.0
C258 C 0.34106 0.27445 0.58174 0.0
C259 C 0.3478 0.26007 0.61083 0.0
C260 C 0.35759 0.27164 0.64072 0.0
C261 C 0.36015 0.29694 0.64186 0.0
C262 C 0.33716 0.19553 0.64267 0.0
C263 C 0.34498 0.18156 0.61383 0.0
C264 C 0.33703 0.22096 0.64098 0.0
C265 C 0.34495 0.23307 0.61053 0.0
C266 C 0.35158 0.21908 0.58097 0.0
C267 C 0.35154 0.19349 0.58259 0.0
H268 H 0.06149 0.06906 0.82072 0.0
H269 H 0.05172 0.14553 0.84548 0.0
H270 H 0.01701 0.06439 0.8151 0.0
H271 H 0.00741 0.14097 0.83858 0.0
H272 H 0.92929 0.12009 0.79267 0.0
H273 H 0.97378 0.12183 0.7837 0.0
H274 H 0.98468 0.07616 0.87472 0.0
H275 H 0.94049 0.07516 0.88453 0.0
C276 C 0.04988 0.08497 0.82397 0.0
C277 C 0.0599 0.10763 0.8337 0.0
C278 C 0.02455 0.08228 0.82077 0.0
C279 C 0.00904 0.10237 0.82623 0.0
C280 C 0.01915 0.12532 0.83392 0.0
C281 C 0.04439 0.12787 0.83802 0.0
C282 C 0.94123 0.11011 0.81033 0.0
C283 C 0.93162 0.09757 0.83935 0.0
C284 C 0.96654 0.11114 0.80522 0.0
C285 C 0.98239 0.099 0.82845 0.0
C286 C 0.97269 0.08545 0.85635 0.0
C287 C 0.94751 0.08498 0.86201 0.0
H288 H 0.12392 0.31023 0.83257 0.0
H289 H 0.15474 0.31406 0.93712 0.0
H290 H 0.12601 0.26595 0.83436 0.0
H291 H 0.15701 0.26921 0.93878 0.0
H292 H 0.12916 0.18672 0.93399 0.0
H293 H 0.12949 0.23149 0.93827 0.0
H294 H 0.1596 0.23571 0.83364 0.0
H295 H 0.15899 0.19139 0.8292 0.0
C296 C 0.13113 0.3016 0.85602 0.0
C297 C 0.13932 0.31565 0.88463 0.0
C298 C 0.13246 0.27619 0.85694 0.0
C299 C 0.142 0.26412 0.88651 0.0
C300 C 0.14958 0.27806 0.91565 0.0
C301 C 0.14834 0.30367 0.91466 0.0
C302 C 0.13611 0.19728 0.91214 0.0
C303 C 0.14377 0.1856 0.8811 0.0
C304 C 0.13636 0.22285 0.91463 0.0
C305 C 0.14421 0.23708 0.88607 0.0
C306 C 0.15296 0.22525 0.8558 0.0
C307 C 0.15271 0.19985 0.85332 0.0
H308 H 0.94004 0.87408 0.08007 0.0
H309 H 0.93347 0.91155 0.17965 0.0
H310 H 0.98415 0.87769 0.08313 0.0
H311 H 0.97807 0.91589 0.18229 0.0
H312 H 0.05837 0.90944 0.07585 0.0
H313 H 0.01403 0.90915 0.07761 0.0
H314 H 0.01637 0.89266 0.18864 0.0
H315 H 0.06119 0.89384 0.187 0.0
C316 C 0.94805 0.88325 0.10257 0.0
C317 C 0.93331 0.89268 0.12951 0.0
C318 C 0.97337 0.88547 0.10423 0.0
C319 C 0.98465 0.89743 0.13269 0.0
C320 C 0.96994 0.90651 0.16007 0.0
C321 C 0.94445 0.90413 0.1585 0.0
C322 C 0.04945 0.90594 0.10072 0.0
C323 C 0.06318 0.90137 0.13121 0.0
C324 C 0.02402 0.90563 0.10171 0.0
C325 C 0.01164 0.90038 0.13311 0.0
C326 C 0.02536 0.89681 0.16405 0.0
C327 C 0.05098 0.8974 0.16311 0.0
H328 H 0.38796 0.68731 0.34853 0.0
H329 H 0.33344 0.68421 0.43027 0.0
H330 H 0.3874 0.73164 0.35111 0.0
H331 H 0.33225 0.72904 0.43214 0.0
H332 H 0.35793 0.80638 0.32866 0.0
H333 H 0.35879 0.76218 0.3326 0.0
H334 H 0.35499 0.76689 0.44586 0.0
H335 H 0.35343 0.81164 0.44175 0.0
C336 C 0.37583 0.69616 0.3671 0.0
C337 C 0.36053 0.68234 0.38891 0.0
C338 C 0.3754 0.72159 0.36845 0.0
C339 C 0.35941 0.73391 0.39132 0.0
C340 C 0.34479 0.72009 0.41427 0.0
C341 C 0.3454 0.69447 0.41314 0.0
C342 C 0.35722 0.79805 0.35445 0.0
C343 C 0.3558 0.81248 0.38491 0.0
C344 C 0.35788 0.77267 0.35674 0.0
C345 C 0.35739 0.76098 0.38959 0.0
C346 C 0.35535 0.77536 0.42016 0.0
C347 C 0.35455 0.80093 0.41783 0.0
H348 H 0.55753 0.15205 0.64803 0.0
H349 H 0.55861 0.07482 0.67149 0.0
H350 H 0.51312 0.15224 0.65244 0.0
H351 H 0.51396 0.07493 0.6753 0.0
H352 H 0.4392 0.13255 0.60271 0.0
H353 H 0.48307 0.1345 0.6118 0.0
H354 H 0.47616 0.09054 0.70546 0.0
H355 H 0.43178 0.08841 0.69611 0.0
C356 C 0.54829 0.13518 0.6547 0.0
C357 C 0.56148 0.11335 0.65896 0.0
C358 C 0.52285 0.13527 0.65705 0.0
C359 C 0.51004 0.11351 0.66357 0.0
C360 C 0.52333 0.09199 0.67032 0.0
C361 C 0.54888 0.09192 0.66805 0.0
C362 C 0.44695 0.12338 0.62538 0.0
C363 C 0.43207 0.1103 0.64868 0.0
C364 C 0.4721 0.12468 0.63076 0.0
C365 C 0.48306 0.11287 0.65954 0.0
C366 C 0.4682 0.09979 0.68302 0.0
C367 C 0.44286 0.09863 0.67773 0.0
H368 H 0.85241 0.18693 0.82511 0.0
H369 H 0.86156 0.18016 0.9375 0.0
H370 H 0.85402 0.23104 0.83017 0.0
H371 H 0.86368 0.2249 0.94255 0.0
H372 H 0.84002 0.30808 0.93306 0.0
H373 H 0.83885 0.26323 0.93447 0.0
H374 H 0.88563 0.2607 0.84321 0.0
H375 H 0.88627 0.30504 0.84131 0.0
C376 C 0.85483 0.19489 0.85098 0.0
C377 C 0.85707 0.18007 0.88089 0.0
C378 C 0.8559 0.22022 0.85385 0.0
C379 C 0.8594 0.23146 0.88669 0.0
C380 C 0.86096 0.21673 0.9169 0.0
C381 C 0.85983 0.19118 0.91401 0.0
C382 C 0.85017 0.29784 0.91354 0.0
C383 C 0.86293 0.31 0.88676 0.0
C384 C 0.84959 0.27222 0.91443 0.0
C385 C 0.86181 0.25846 0.88859 0.0
C386 C 0.87551 0.27077 0.86296 0.0
C387 C 0.87596 0.2962 0.86195 0.0
H388 H 0.64153 0.6851 0.44087 0.0
H389 H 0.65378 0.6867 0.32882 0.0
H390 H 0.64198 0.72992 0.44229 0.0
H391 H 0.65505 0.73103 0.33032 0.0
H392 H 0.62333 0.8066 0.33465 0.0
H393 H 0.62516 0.76241 0.33768 0.0
H394 H 0.66658 0.76713 0.43436 0.0
H395 H 0.66407 0.81189 0.43178 0.0
C396 C 0.64466 0.69503 0.4167 0.0
C397 C 0.64729 0.68248 0.38467 0.0
C398 C 0.64502 0.72065 0.41751 0.0
C399 C 0.64816 0.73407 0.38632 0.0
C400 C 0.65193 0.72132 0.35468 0.0
C401 C 0.65134 0.69588 0.35383 0.0
C402 C 0.63285 0.79828 0.3566 0.0
C403 C 0.64372 0.81271 0.38285 0.0
C404 C 0.63404 0.77289 0.35823 0.0
C405 C 0.64635 0.76119 0.38597 0.0
C406 C 0.65689 0.77559 0.41269 0.0
C407 C 0.65556 0.80117 0.41116 0.0
H408 H 0.85602 0.6814 0.05645 0.0
H409 H 0.84895 0.68558 0.16932 0.0
H410 H 0.8563 0.72619 0.05335 0.0
H411 H 0.84832 0.72985 0.16625 0.0
H412 H 0.87815 0.80544 0.15702 0.0
H413 H 0.87724 0.76117 0.15532 0.0
H414 H 0.83235 0.76357 0.0617 0.0
H415 H 0.83403 0.80837 0.0628 0.0
C416 C 0.85426 0.69189 0.08048 0.0
C417 C 0.85278 0.68006 0.11315 0.0
C418 C 0.8543 0.7175 0.07873 0.0
C419 C 0.85271 0.73163 0.10961 0.0
C420 C 0.85027 0.7196 0.14203 0.0
C421 C 0.85048 0.69418 0.14379 0.0
C422 C 0.8681 0.79658 0.136 0.0
C423 C 0.85597 0.81036 0.11022 0.0
C424 C 0.86745 0.77114 0.13514 0.0
C425 C 0.85437 0.75876 0.10871 0.0
C426 C 0.84266 0.77253 0.08234 0.0
C427 C 0.84352 0.79815 0.08305 0.0
H428 H 0.67552 0.30913 0.55981 0.0
H429 H 0.60672 0.30096 0.61388 0.0
H430 H 0.67725 0.26468 0.55053 0.0
H431 H 0.60817 0.25691 0.60389 0.0
H432 H 0.6089 0.18086 0.55892 0.0
H433 H 0.60888 0.22527 0.55144 0.0
H434 H 0.68067 0.22913 0.59842 0.0
H435 H 0.68058 0.18478 0.60651 0.0
C436 C 0.6606 0.29789 0.56908 0.0
C437 C 0.64105 0.30837 0.58771 0.0
C438 C 0.66161 0.27256 0.56384 0.0
C439 C 0.64278 0.25749 0.57635 0.0
C440 C 0.62277 0.26816 0.59362 0.0
C441 C 0.62203 0.29332 0.59954 0.0
C442 C 0.62493 0.19111 0.56683 0.0
C443 C 0.64466 0.17944 0.58358 0.0
C444 C 0.62486 0.21649 0.56266 0.0
C445 C 0.64471 0.23054 0.57453 0.0
C446 C 0.66522 0.21867 0.58884 0.0
C447 C 0.66511 0.19333 0.59359 0.0
H448 H 0.06112 0.41863 0.91414 0.0
H449 H 0.0624 0.39099 0.80781 0.0
H450 H 0.01673 0.42005 0.9124 0.0
H451 H 0.0176 0.39147 0.80641 0.0
H452 H 0.93511 0.40976 0.81076 0.0
H453 H 0.97958 0.41504 0.80759 0.0
H454 H 0.98624 0.38921 0.91449 0.0
H455 H 0.94228 0.38468 0.91788 0.0
C456 C 0.05184 0.41296 0.89029 0.0
C457 C 0.06514 0.40443 0.86126 0.0
C458 C 0.02639 0.41362 0.88934 0.0
C459 C 0.01355 0.40537 0.85955 0.0
C460 C 0.02691 0.39803 0.82974 0.0
C461 C 0.05253 0.39767 0.83055 0.0
C462 C 0.94617 0.40538 0.83356 0.0
C463 C 0.93522 0.39693 0.86462 0.0
C464 C 0.97161 0.40829 0.8317 0.0
C465 C 0.98649 0.40279 0.8609 0.0
C466 C 0.97537 0.39421 0.89177 0.0
C467 C 0.95011 0.39142 0.89364 0.0
H468 H 0.55671 0.62353 0.41329 0.0
H469 H 0.56268 0.58493 0.31452 0.0
H470 H 0.51253 0.62037 0.41044 0.0
H471 H 0.51803 0.58119 0.31203 0.0
H472 H 0.43508 0.60432 0.30745 0.0
H473 H 0.47988 0.60503 0.30555 0.0
H474 H 0.48239 0.58882 0.41662 0.0
H475 H 0.43802 0.58884 0.41864 0.0
C476 C 0.54855 0.61428 0.39096 0.0
C477 C 0.56317 0.60434 0.36424 0.0
C478 C 0.52319 0.61231 0.38944 0.0
C479 C 0.51173 0.60018 0.36129 0.0
C480 C 0.5263 0.5907 0.33403 0.0
C481 C 0.55183 0.59277 0.3355 0.0
C482 C 0.4453 0.60066 0.33129 0.0
C483 C 0.43311 0.59684 0.36327 0.0
C484 C 0.47092 0.601 0.33021 0.0
C485 C 0.4847 0.59742 0.36107 0.0
C486 C 0.47236 0.59232 0.39257 0.0
C487 C 0.4469 0.59217 0.39369 0.0
H488 H 0.56431 0.38129 0.68242 0.0
H489 H 0.56134 0.40411 0.57389 0.0
H490 H 0.51955 0.38243 0.6851 0.0
H491 H 0.51701 0.40593 0.57678 0.0
H492 H 0.44095 0.37437 0.57776 0.0
H493 H 0.48523 0.37587 0.57937 0.0
H494 H 0.48268 0.4084 0.6829 0.0
H495 H 0.43789 0.40632 0.68157 0.0
C496 C 0.55411 0.38688 0.65935 0.0
C497 C 0.56626 0.39231 0.62783 0.0
C498 C 0.52851 0.38764 0.66091 0.0
C499 C 0.51469 0.39392 0.63099 0.0
C500 C 0.52704 0.40042 0.60004 0.0
C501 C 0.55248 0.39951 0.59844 0.0
C502 C 0.44976 0.38186 0.60091 0.0
C503 C 0.43592 0.39033 0.62947 0.0
C504 C 0.4752 0.38288 0.60174 0.0
C505 C 0.48754 0.39255 0.63108 0.0
C506 C 0.47373 0.40076 0.65997 0.0
C507 C 0.44811 0.39967 0.65916 0.0
H508 H 0.0558 0.61842 0.07617 0.0
H509 H 0.06305 0.58803 0.18038 0.0
H510 H 0.01176 0.6151 0.07996 0.0
H511 H 0.01848 0.58384 0.18383 0.0
H512 H 0.9359 0.60723 0.18758 0.0
H513 H 0.98073 0.6073 0.18805 0.0
H514 H 0.98083 0.58506 0.07895 0.0
H515 H 0.93647 0.58604 0.07823 0.0
C516 C 0.04796 0.61076 0.09982 0.0
C517 C 0.0629 0.60337 0.12791 0.0
C518 C 0.02264 0.60868 0.10192 0.0
C519 C 0.01151 0.59888 0.13202 0.0
C520 C 0.02645 0.59158 0.16033 0.0
C521 C 0.05195 0.59385 0.15831 0.0
C522 C 0.94562 0.6022 0.16387 0.0
C523 C 0.93278 0.597 0.13274 0.0
C524 C 0.97126 0.60213 0.16415 0.0
C525 C 0.98441 0.5966 0.13336 0.0
C526 C 0.97136 0.59011 0.10286 0.0
C527 C 0.9459 0.59053 0.10247 0.0
H528 H 0.14205 0.57342 0.00325 0.0
H529 H 0.16421 0.53056 0.09305 0.0
H530 H 0.14547 0.53736 0.96587 0.0
H531 H 0.16883 0.49473 0.05558 0.0
H532 H 0.14219 0.43031 0.98816 0.0
H533 H 0.14418 0.46627 0.02589 0.0
H534 H 0.17149 0.50884 0.93874 0.0
H535 H 0.16829 0.47309 0.90077 0.0
C536 C 0.1481 0.55636 0.01482 0.0
C537 C 0.15268 0.55471 0.05102 0.0
C538 C 0.15022 0.53568 0.9934 0.0
C539 C 0.15732 0.513 0.00768 0.0
C540 C 0.16281 0.5117 0.04376 0.0
C541 C 0.16033 0.53228 0.06522 0.0
C542 C 0.14886 0.44731 0.97725 0.0
C543 C 0.15491 0.44899 0.94155 0.0
C544 C 0.15013 0.46795 -0.00111 0.0
C545 C 0.15784 0.49061 0.98536 0.0
C546 C 0.16493 0.49189 0.94991 0.0
C547 C 0.1633 0.47135 0.92819 0.0
H548 H 0.67673 0.91015 0.26014 0.0
H549 H 0.72468 0.88489 0.34289 0.0
H550 H 0.71155 0.91263 0.22024 0.0
H551 H 0.75925 0.88662 0.30294 0.0
H552 H 0.82048 0.90999 0.23097 0.0
H553 H 0.7857 0.91346 0.27083 0.0
H554 H 0.7381 0.88481 0.1898 0.0
H555 H 0.77263 0.88208 0.14985 0.0
C556 C 0.69471 0.90515 0.26977 0.0
C557 C 0.69799 0.89724 0.30454 0.0
C558 C 0.71463 0.90645 0.24692 0.0
C559 C 0.73819 0.89974 0.25835 0.0
C560 C 0.74145 0.89227 0.29338 0.0
C561 C 0.72159 0.8911 0.31622 0.0
C562 C 0.80254 0.90461 0.2217 0.0
C563 C 0.79926 0.89569 0.1874 0.0
C564 C 0.78264 0.90648 0.24453 0.0
C565 C 0.75911 0.89936 0.23354 0.0
C566 C 0.75587 0.89082 0.19898 0.0
C567 C 0.77571 0.88906 0.17616 0.0
H568 H 0.33274 0.42474 0.51189 0.0
H569 H 0.36442 0.472 0.59079 0.0
H570 H 0.32791 0.45972 0.47261 0.0
H571 H 0.36041 0.50667 0.55138 0.0
H572 H 0.35459 0.52097 0.39882 0.0
H573 H 0.35308 0.48606 0.4382 0.0
H574 H 0.33218 0.53381 0.52372 0.0
H575 H 0.33456 0.56893 0.48438 0.0
C576 C 0.33868 0.44259 0.52079 0.0
C577 C 0.34902 0.44564 0.55431 0.0
C578 C 0.33602 0.46262 0.49828 0.0
C579 C 0.34379 0.48604 0.50881 0.0
C580 C 0.35382 0.48903 0.54259 0.0
C581 C 0.35633 0.46909 0.56511 0.0
C582 C 0.34946 0.52399 0.42596 0.0
C583 C 0.34489 0.5477 0.43862 0.0
C584 C 0.34843 0.50393 0.44852 0.0
C585 C 0.34264 0.50711 0.48421 0.0
C586 C 0.33714 0.53077 0.49652 0.0
C587 C 0.33835 0.55087 0.47398 0.0
H588 H 0.67604 0.12528 0.73404 0.0
H589 H 0.70662 0.06942 0.66681 0.0
H590 H 0.71171 0.12248 0.77241 0.0
H591 H 0.74184 0.06589 0.70577 0.0
H592 H 0.8142 0.0903 0.7558 0.0
H593 H 0.77717 0.08924 0.72009 0.0
H594 H 0.73334 0.09784 0.81374 0.0
H595 H 0.77045 0.09979 0.84919 0.0
C596 C 0.6902 0.1121 0.72785 0.0
C597 C 0.68868 0.09769 0.69738 0.0
C598 C 0.7106 0.11039 0.74989 0.0
C599 C 0.72976 0.09406 0.74205 0.0
C600 C 0.72769 0.07901 0.71221 0.0
C601 C 0.70743 0.0809 0.69002 0.0
C602 C 0.79663 0.09179 0.76872 0.0
C603 C 0.79518 0.09525 0.80519 0.0
C604 C 0.77538 0.09104 0.74831 0.0
C605 C 0.75224 0.0935 0.76403 0.0
C606 C 0.75085 0.0963 0.80071 0.0
C607 C 0.77211 0.09727 0.82105 0.0
H608 H 0.83347 0.42227 0.98492 0.0
H609 H 0.85606 0.47118 0.9022 0.0
H610 H 0.82875 0.45706 0.02467 0.0
H611 H 0.85222 0.50575 0.94203 0.0
H612 H 0.82898 0.56646 0.01442 0.0
H613 H 0.82522 0.53148 0.97471 0.0
H614 H 0.85533 0.48438 0.05512 0.0
H615 H 0.85823 0.51902 0.0949 0.0
C616 C 0.83735 0.44046 0.97524 0.0
C617 C 0.84527 0.44402 0.94058 0.0
C618 C 0.83477 0.46038 -0.00198 0.0
C619 C 0.84025 0.48421 0.98663 0.0
C620 C 0.8475 0.48774 0.95159 0.0
C621 C 0.84989 0.46788 0.92881 0.0
C622 C 0.83452 0.54856 0.02362 0.0
C623 C 0.84401 0.54547 0.05764 0.0
C624 C 0.8325 0.52854 0.00087 0.0
C625 C 0.84007 0.50511 0.01166 0.0
C626 C 0.84896 0.50204 0.04606 0.0
C627 C 0.85082 0.52197 0.06881 0.0
H628 H 0.21448 0.07949 0.84073 0.0
H629 H 0.17495 0.10864 0.75175 0.0
H630 H 0.25065 0.07414 0.80417 0.0
H631 H 0.21128 0.10427 0.71549 0.0
H632 H 0.27468 0.08 0.65065 0.0
H633 H 0.23841 0.07673 0.68732 0.0
H634 H 0.28086 0.09925 0.77779 0.0
H635 H 0.3173 0.10151 0.74125 0.0
C636 C 0.21354 0.08469 0.8133 0.0
C637 C 0.19198 0.09458 0.79906 0.0
C638 C 0.23429 0.08177 0.79241 0.0
C639 C 0.23398 0.08892 0.75693 0.0
C640 C 0.21212 0.09821 0.74255 0.0
C641 C 0.19131 0.10088 0.76336 0.0
C642 C 0.27629 0.08392 0.67849 0.0
C643 C 0.29873 0.09117 0.69312 0.0
C644 C 0.25548 0.08222 0.69946 0.0
C645 C 0.25661 0.08801 0.73544 0.0
C646 C 0.27934 0.09438 0.75027 0.0
C647 C 0.30022 0.09581 0.72933 0.0
H648 H 0.66597 0.5682 0.4862 0.0
H649 H 0.6316 0.52256 0.40763 0.0
H650 H 0.671 0.53254 0.52433 0.0
H651 H 0.63591 0.48732 0.44578 0.0
H652 H 0.66367 0.42368 0.5074 0.0
H653 H 0.66545 0.45985 0.47012 0.0
H654 H 0.64633 0.50524 0.55908 0.0
H655 H 0.64537 0.46916 0.59648 0.0
C656 C 0.65946 0.55058 0.47715 0.0
C657 C 0.64839 0.54814 0.44399 0.0
C658 C 0.66226 0.53019 0.49898 0.0
C659 C 0.65397 0.50703 0.48804 0.0
C660 C 0.64298 0.50473 0.45478 0.0
C661 C 0.64029 0.52501 0.433 0.0
C662 C 0.66014 0.44143 0.51902 0.0
C663 C 0.6542 0.4436 0.55474 0.0
C664 C 0.66102 0.46214 0.49766 0.0
C665 C 0.65575 0.48543 0.51152 0.0
C666 C 0.65071 0.48764 0.5476 0.0
C667 C 0.65001 0.46694 0.569 0.0
H668 H 0.27275 0.88496 0.34265 0.0
H669 H 0.32062 0.91405 0.26293 0.0
H670 H 0.23812 0.88883 0.30276 0.0
H671 H 0.28578 0.91854 0.22316 0.0
H672 H 0.17698 0.91655 0.23325 0.0
H673 H 0.21195 0.91805 0.2733 0.0
H674 H 0.25898 0.89194 0.19013 0.0
H675 H 0.22427 0.89107 0.15007 0.0
C676 C 0.27582 0.89242 0.31668 0.0
C677 C 0.29939 0.89907 0.3058 0.0
C678 C 0.25593 0.89483 0.29391 0.0
C679 C 0.25917 0.90401 0.25978 0.0
C680 C 0.28273 0.91112 0.24915 0.0
C681 C 0.30266 0.90864 0.27193 0.0
C682 C 0.19485 0.91136 0.22353 0.0
C683 C 0.1979 0.90361 0.18862 0.0
C684 C 0.21484 0.91209 0.24647 0.0
C685 C 0.23824 0.90503 0.23493 0.0
C686 C 0.2413 0.89782 0.19975 0.0
C687 C 0.22136 0.89716 0.17684 0.0
H688 H 0.61327 0.02843 0.58255 0.0
H689 H 0.6609 0.07003 0.51494 0.0
H690 H 0.61769 0.99303 0.54414 0.0
H691 H 0.66563 0.0344 0.47667 0.0
H692 H 0.64238 0.97456 0.39725 0.0
H693 H 0.64089 0.01007 0.43584 0.0
H694 H 0.64868 0.96295 0.52621 0.0
H695 H 0.64978 0.92724 0.48746 0.0
C696 C 0.62469 0.03 0.55945 0.0
C697 C 0.63668 0.05201 0.55165 0.0
C698 C 0.6274 0.00965 0.53763 0.0
C699 C 0.64214 0.01087 0.50751 0.0
C700 C 0.65401 0.03296 0.49957 0.0
C701 C 0.65133 0.05334 0.52146 0.0
C702 C 0.64397 0.97178 0.42535 0.0
C703 C 0.64608 0.94812 0.43939 0.0
C704 C 0.64325 0.99215 0.44744 0.0
C705 C 0.64455 0.98931 0.48406 0.0
C706 C 0.64729 0.96567 0.49809 0.0
C707 C 0.64809 0.94526 0.47594 0.0
H708 H 0.27455 0.38878 0.65096 0.0
H709 H 0.32345 0.40656 0.73659 0.0
H710 H 0.23988 0.39101 0.69066 0.0
H711 H 0.28851 0.4094 0.7764 0.0
H712 H 0.22441 0.37976 0.84226 0.0
H713 H 0.25952 0.38174 0.80322 0.0
H714 H 0.2153 0.41864 0.72529 0.0
H715 H 0.17993 0.41608 0.76418 0.0
C716 C 0.27786 0.39345 0.67825 0.0
C717 C 0.30173 0.39739 0.69073 0.0
C718 C 0.25794 0.39489 0.70096 0.0
C719 C 0.2614 0.40038 0.73672 0.0
C720 C 0.28527 0.40483 0.74908 0.0
C721 C 0.30525 0.40334 0.72629 0.0
C722 C 0.2222 0.38836 0.81683 0.0
C723 C 0.19939 0.39764 0.80616 0.0
C724 C 0.24239 0.38968 0.79456 0.0
C725 C 0.24025 0.40036 0.76113 0.0
C726 C 0.21749 0.41001 0.75071 0.0
C727 C 0.19725 0.40864 0.77299 0.0
H728 H 0.86134 0.01902 0.89479 0.0
H729 H 0.83529 0.06696 0.97693 0.0
H730 H 0.85884 0.98437 0.93459 0.0
H731 H 0.83194 0.03211 0.01658 0.0
H732 H 0.86074 0.97115 0.08812 0.0
H733 H 0.85877 0.00555 0.04798 0.0
H734 H 0.83189 0.95779 0.96591 0.0
H735 H 0.8347 0.92305 0.00606 0.0
C736 C 0.85479 0.02209 0.92128 0.0
C737 C 0.84867 0.04571 0.93287 0.0
C738 C 0.85316 0.00218 0.94403 0.0
C739 C 0.84522 0.00542 0.97884 0.0
C740 C 0.8385 0.02902 0.99012 0.0
C741 C 0.84031 0.04897 0.96739 0.0
C742 C 0.85428 0.96799 0.06156 0.0
C743 C 0.84798 0.94439 0.05015 0.0
C744 C 0.85297 0.98778 0.03859 0.0
C745 C 0.84515 0.98449 0.00369 0.0
C746 C 0.83832 0.96091 0.99249 0.0
C747 C 0.83979 0.94103 0.01548 0.0
H748 H 0.17563 0.59399 0.23157 0.0
H749 H 0.22309 0.62083 0.14973 0.0
H750 H 0.21068 0.59078 0.27128 0.0
H751 H 0.25793 0.61814 0.18949 0.0
H752 H 0.31906 0.58918 0.25949 0.0
H753 H 0.28388 0.58879 0.21971 0.0
H754 H 0.23834 0.61779 0.3026 0.0
H755 H 0.27325 0.61767 0.34237 0.0
C756 C 0.19353 0.59925 0.22212 0.0
C757 C 0.19662 0.60771 0.18761 0.0
C758 C 0.21358 0.59751 0.24487 0.0
C759 C 0.23711 0.6042 0.23354 0.0
C760 C 0.24014 0.61249 0.1989 0.0
C761 C 0.22013 0.61421 0.1762 0.0
C762 C 0.30149 0.59535 0.26917 0.0
C763 C 0.29891 0.60349 0.30398 0.0
C764 C 0.28138 0.59524 0.24639 0.0
C765 C 0.2583 0.60328 0.25799 0.0
C766 C 0.25575 0.61115 0.29296 0.0
C767 C 0.27581 0.61124 0.31568 0.0
H768 H 0.33251 0.0686 0.51728 0.0
H769 H 0.37054 0.02315 0.59245 0.0
H770 H 0.32845 0.03358 0.47779 0.0
H771 H 0.36702 0.98837 0.55276 0.0
H772 H 0.33886 0.92526 0.48725 0.0
H773 H 0.33756 0.96019 0.52739 0.0
H774 H 0.35464 0.00858 0.44124 0.0
H775 H 0.35536 0.97389 0.40121 0.0
C776 C 0.34007 0.05115 0.52528 0.0
C777 C 0.35192 0.04861 0.55785 0.0
C778 C 0.3378 0.03112 0.50266 0.0
C779 C 0.34738 0.00818 0.51216 0.0
C780 C 0.35908 0.00567 0.54489 0.0
C781 C 0.3613 0.02566 0.56749 0.0
C782 C 0.34206 0.94341 0.47692 0.0
C783 C 0.34731 0.94686 0.44118 0.0
C784 C 0.34148 0.96338 0.49989 0.0
C785 C 0.34613 0.98715 0.48752 0.0
C786 C 0.35069 0.99058 0.45156 0.0
C787 C 0.35125 0.97066 0.42864 0.0
H788 H 0.8196 0.57832 0.23483 0.0
H789 H 0.77225 0.609 0.15522 0.0
H790 H 0.78477 0.5749 0.27463 0.0
H791 H 0.73774 0.60633 0.19508 0.0
H792 H 0.67571 0.58269 0.26428 0.0
H793 H 0.71047 0.579 0.22445 0.0
H794 H 0.75908 0.60186 0.30801 0.0
H795 H 0.72454 0.60475 0.34789 0.0
C796 C 0.80176 0.58429 0.22586 0.0
C797 C 0.79864 0.594 0.19202 0.0
C798 C 0.78183 0.58245 0.24866 0.0
C799 C 0.75845 0.59038 0.23807 0.0
C800 C 0.75537 0.59967 0.20393 0.0
C801 C 0.77521 0.60139 0.18116 0.0
C802 C 0.69387 0.58667 0.27414 0.0
C803 C 0.69741 0.59412 0.3091 0.0
C804 C 0.71376 0.58469 0.25132 0.0
C805 C 0.73757 0.59026 0.26297 0.0
C806 C 0.74108 0.5971 0.29825 0.0
C807 C 0.72124 0.59894 0.32107 0.0
H808 H 0.14195 0.98114 0.09636 0.0
H809 H 0.15432 0.93317 0.00781 0.0
H810 H 0.14064 0.01619 0.05697 0.0
H811 H 0.15345 0.96835 0.96839 0.0
H812 H 0.1164 0.03037 0.90772 0.0
H813 H 0.12152 0.99615 0.94777 0.0
H814 H 0.16489 0.04152 0.01693 0.0
H815 H 0.15938 0.07608 0.97688 0.0
C816 C 0.14473 0.97813 0.0685 0.0
C817 C 0.14805 0.95441 0.05509 0.0
C818 C 0.1441 -0.00176 0.04598 0.0
C819 C 0.14674 0.99502 0.00955 0.0
C820 C 0.15096 0.97136 -0.0037 0.0
C821 C 0.15162 0.95124 0.01886 0.0
C822 C 0.12697 0.03309 0.93152 0.0
C823 C 0.13747 0.05591 0.93922 0.0
C824 C 0.13011 0.01341 0.9543 0.0
C825 C 0.14382 0.01605 0.98533 0.0
C826 C 0.15412 0.03897 0.99328 0.0
C827 C 0.15099 0.05873 0.97039 0.0
H828 H 0.72529 0.37039 0.65078 0.0
H829 H 0.67804 0.39959 0.73144 0.0
H830 H 0.75992 0.37251 0.69092 0.0
H831 H 0.71293 0.40224 0.77157 0.0
H832 H 0.82139 0.40161 0.75984 0.0
H833 H 0.78623 0.40185 0.72008 0.0
H834 H 0.74024 0.3755 0.80402 0.0
H835 H 0.77517 0.37581 0.84379 0.0
C836 C 0.72233 0.37737 0.67709 0.0
C837 C 0.69894 0.38478 0.68802 0.0
C838 C 0.74224 0.37877 0.70001 0.0
C839 C 0.73924 0.38765 0.7344 0.0
C840 C 0.7158 0.39508 0.74535 0.0
C841 C 0.69584 0.39364 0.72237 0.0
C842 C 0.80374 0.39598 0.76976 0.0
C843 C 0.80103 0.38865 0.80486 0.0
C844 C 0.78362 0.39599 0.74698 0.0
C845 C 0.76043 0.38864 0.75887 0.0
C846 C 0.75775 0.38158 0.79413 0.0
C847 C 0.77782 0.3816 0.81686 0.0
loop_
_geom_bond_atom_site_label_1
_geom_bond_atom_site_label_2
_geom_bond_distance
_geom_bond_site_symmetry_2
_ccdc_geom_bond_type
In0 O1 2.294 . S
In0 O2 2.326 . S
In0 O6 2.266 . S
In0 O7 2.326 . S
In0 O8 2.266 . S
In0 O9 2.326 . S
In0 O11 2.294 . S
In0 O12 2.326 . S
O1 In0 2.294 . S
O1 C10 1.240 . S
O2 In0 2.326 . S
O2 C10 1.252 . S
C3 O6 1.252 . S
C3 O7 1.260 . S
C4 O11 1.240 . S
C4 O12 1.252 . S
C5 O8 1.252 . S
C5 O9 1.260 . S
O6 In0 2.266 . S
O6 C3 1.252 . S
O7 In0 2.326 . S
O7 C3 1.260 . S
O8 In0 2.266 . S
O8 C5 1.252 . S
O9 In0 2.326 . S
O9 C5 1.260 . S
C10 O1 1.240 . S
C10 O2 1.252 . S
O11 In0 2.294 . S
O11 C4 1.240 . S
O12 In0 2.326 . S
O12 C4 1.252 . S
In13 O14 2.294 . S
In13 O15 2.326 . S
In13 O19 2.266 . S
In13 O20 2.326 . S
In13 O21 2.266 . S
In13 O22 2.326 . S
In13 O24 2.294 . S
In13 O25 2.326 . S
O14 In13 2.294 . S
O14 C23 1.240 . S
O15 In13 2.326 . S
O15 C23 1.252 . S
C16 O19 1.252 . S
C16 O20 1.260 . S
C17 O24 1.240 . S
C17 O25 1.252 . S
C18 O21 1.252 . S
C18 O22 1.260 . S
O19 In13 2.266 . S
O19 C16 1.252 . S
O20 In13 2.326 . S
O20 C16 1.260 . S
O21 In13 2.266 . S
O21 C18 1.252 . S
O22 In13 2.326 . S
O22 C18 1.260 . S
C23 O14 1.240 . S
C23 O15 1.252 . S
O24 In13 2.294 . S
O24 C17 1.240 . S
O25 In13 2.326 . S
O25 C17 1.252 . S
In26 O27 2.294 . S
In26 O28 2.326 . S
In26 O32 2.266 . S
In26 O33 2.326 . S
In26 O34 2.266 . S
In26 O35 2.326 . S
In26 O37 2.294 . S
In26 O38 2.326 . S
O27 In26 2.294 . S
O27 C36 1.240 . S
O28 In26 2.326 . S
O28 C36 1.252 . S
C29 O32 1.252 . S
C29 O33 1.260 . S
C30 O37 1.240 . S
C30 O38 1.252 . S
C31 O34 1.252 . S
C31 O35 1.260 . S
O32 In26 2.266 . S
O32 C29 1.252 . S
O33 In26 2.326 . S
O33 C29 1.260 . S
O34 In26 2.266 . S
O34 C31 1.252 . S
O35 In26 2.326 . S
O35 C31 1.260 . S
C36 O27 1.240 . S
C36 O28 1.252 . S
O37 In26 2.294 . S
O37 C30 1.240 . S
O38 In26 2.326 . S
O38 C30 1.252 . S
In39 O40 2.294 . S
In39 O41 2.326 . S
In39 O45 2.266 . S
In39 O46 2.326 . S
In39 O47 2.266 . S
In39 O48 2.326 . S
In39 O50 2.294 . S
In39 O51 2.326 . S
O40 In39 2.294 . S
O40 C49 1.240 . S
O41 In39 2.326 . S
O41 C49 1.252 . S
C42 O45 1.252 . S
C42 O46 1.260 . S
C43 O50 1.240 . S
C43 O51 1.252 . S
C44 O47 1.252 . S
C44 O48 1.260 . S
O45 In39 2.266 . S
O45 C42 1.252 . S
O46 In39 2.326 . S
O46 C42 1.260 . S
O47 In39 2.266 . S
O47 C44 1.252 . S
O48 In39 2.326 . S
O48 C44 1.260 . S
C49 O40 1.240 . S
C49 O41 1.252 . S
O50 In39 2.294 . S
O50 C43 1.240 . S
O51 In39 2.326 . S
O51 C43 1.252 . S
In52 O53 2.294 . S
In52 O54 2.326 . S
In52 O58 2.266 . S
In52 O59 2.326 . S
In52 O60 2.266 . S
In52 O61 2.326 . S
In52 O63 2.294 . S
In52 O64 2.326 . S
O53 In52 2.294 . S
O53 C62 1.240 . S
O54 In52 2.326 . S
O54 C62 1.252 . S
C55 O58 1.252 . S
C55 O59 1.260 . S
C56 O63 1.240 . S
C56 O64 1.252 . S
C57 O60 1.252 . S
C57 O61 1.260 . S
O58 In52 2.266 . S
O58 C55 1.252 . S
O59 In52 2.326 . S
O59 C55 1.260 . S
O60 In52 2.266 . S
O60 C57 1.252 . S
O61 In52 2.326 . S
O61 C57 1.260 . S
C62 O53 1.240 . S
C62 O54 1.252 . S
O63 In52 2.294 . S
O63 C56 1.240 . S
O64 In52 2.326 . S
O64 C56 1.252 . S
In65 O66 2.294 . S
In65 O67 2.326 . S
In65 O71 2.266 . S
In65 O72 2.326 . S
In65 O73 2.266 . S
In65 O74 2.326 . S
In65 O76 2.294 . S
In65 O77 2.326 . S
O66 In65 2.294 . S
O66 C75 1.240 . S
O67 In65 2.326 . S
O67 C75 1.252 . S
C68 O71 1.252 . S
C68 O72 1.260 . S
C69 O76 1.240 . S
C69 O77 1.252 . S
C70 O73 1.252 . S
C70 O74 1.260 . S
O71 In65 2.266 . S
O71 C68 1.252 . S
O72 In65 2.326 . S
O72 C68 1.260 . S
O73 In65 2.266 . S
O73 C70 1.252 . S
O74 In65 2.326 . S
O74 C70 1.260 . S
C75 O66 1.240 . S
C75 O67 1.252 . S
O76 In65 2.294 . S
O76 C69 1.240 . S
O77 In65 2.326 . S
O77 C69 1.252 . S
In78 O79 2.294 . S
In78 O80 2.326 . S
In78 O84 2.266 . S
In78 O85 2.326 . S
In78 O86 2.266 . S
In78 O87 2.326 . S
In78 O89 2.294 . S
In78 O90 2.326 . S
O79 In78 2.294 . S
O79 C88 1.240 . S
O80 In78 2.326 . S
O80 C88 1.252 . S
C81 O84 1.252 . S
C81 O85 1.260 . S
C82 O89 1.240 . S
C82 O90 1.252 . S
C83 O86 1.252 . S
C83 O87 1.260 . S
O84 In78 2.266 . S
O84 C81 1.252 . S
O85 In78 2.326 . S
O85 C81 1.260 . S
O86 In78 2.266 . S
O86 C83 1.252 . S
O87 In78 2.326 . S
O87 C83 1.260 . S
C88 O79 1.240 . S
C88 O80 1.252 . S
O89 In78 2.294 . S
O89 C82 1.240 . S
O90 In78 2.326 . S
O90 C82 1.252 . S
In91 O92 2.294 . S
In91 O93 2.326 . S
In91 O97 2.266 . S
In91 O98 2.326 . S
In91 O99 2.266 . S
In91 O100 2.326 . S
In91 O102 2.294 . S
In91 O103 2.326 . S
O92 In91 2.294 . S
O92 C101 1.240 . S
O93 In91 2.326 . S
O93 C101 1.252 . S
C94 O97 1.252 . S
C94 O98 1.260 . S
C95 O102 1.240 . S
C95 O103 1.252 . S
C96 O99 1.252 . S
C96 O100 1.260 . S
O97 In91 2.266 . S
O97 C94 1.252 . S
O98 In91 2.326 . S
O98 C94 1.260 . S
O99 In91 2.266 . S
O99 C96 1.252 . S
O100 In91 2.326 . S
O100 C96 1.260 . S
C101 O92 1.240 . S
C101 O93 1.252 . S
O102 In91 2.294 . S
O102 C95 1.240 . S
O103 In91 2.326 . S
O103 C95 1.252 . S
In104 O105 2.294 . S
In104 O106 2.326 . S
In104 O110 2.266 . S
In104 O111 2.326 . S
In104 O112 2.266 . S
In104 O113 2.326 . S
In104 O115 2.294 . S
In104 O116 2.326 . S
O105 In104 2.294 . S
O105 C114 1.240 . S
O106 In104 2.326 . S
O106 C114 1.252 . S
C107 O110 1.252 . S
C107 O111 1.260 . S
C108 O115 1.240 . S
C108 O116 1.252 . S
C109 O112 1.252 . S
C109 O113 1.260 . S
O110 In104 2.266 . S
O110 C107 1.252 . S
O111 In104 2.326 . S
O111 C107 1.260 . S
O112 In104 2.266 . S
O112 C109 1.252 . S
O113 In104 2.326 . S
O113 C109 1.260 . S
C114 O105 1.240 . S
C114 O106 1.252 . S
O115 In104 2.294 . S
O115 C108 1.240 . S
O116 In104 2.326 . S
O116 C108 1.252 . S
In117 O118 2.294 . S
In117 O119 2.326 . S
In117 O123 2.266 . S
In117 O124 2.326 . S
In117 O125 2.266 . S
In117 O126 2.326 . S
In117 O128 2.294 . S
In117 O129 2.326 . S
O118 In117 2.294 . S
O118 C127 1.240 . S
O119 In117 2.326 . S
O119 C127 1.252 . S
C120 O123 1.252 . S
C120 O124 1.260 . S
C121 O128 1.240 . S
C121 O129 1.252 . S
C122 O125 1.252 . S
C122 O126 1.260 . S
O123 In117 2.266 . S
O123 C120 1.252 . S
O124 In117 2.326 . S
O124 C120 1.260 . S
O125 In117 2.266 . S
O125 C122 1.252 . S
O126 In117 2.326 . S
O126 C122 1.260 . S
C127 O118 1.240 . S
C127 O119 1.252 . S
O128 In117 2.294 . S
O128 C121 1.240 . S
O129 In117 2.326 . S
O129 C121 1.252 . S
In130 O131 2.294 . S
In130 O132 2.326 . S
In130 O136 2.266 . S
In130 O137 2.326 . S
In130 O138 2.266 . S
In130 O139 2.326 . S
In130 O141 2.294 . S
In130 O142 2.326 . S
O131 In130 2.294 . S
O131 C140 1.240 . S
O132 In130 2.326 . S
O132 C140 1.252 . S
C133 O136 1.252 . S
C133 O137 1.260 . S
C134 O141 1.240 . S
C134 O142 1.252 . S
C135 O138 1.252 . S
C135 O139 1.260 . S
O136 In130 2.266 . S
O136 C133 1.252 . S
O137 In130 2.326 . S
O137 C133 1.260 . S
O138 In130 2.266 . S
O138 C135 1.252 . S
O139 In130 2.326 . S
O139 C135 1.260 . S
C140 O131 1.240 . S
C140 O132 1.252 . S
O141 In130 2.294 . S
O141 C134 1.240 . S
O142 In130 2.326 . S
O142 C134 1.252 . S
In143 O144 2.294 . S
In143 O145 2.326 . S
In143 O149 2.266 . S
In143 O150 2.326 . S
In143 O151 2.266 . S
In143 O152 2.326 . S
In143 O154 2.294 . S
In143 O155 2.326 . S
O144 In143 2.294 . S
O144 C153 1.240 . S
O145 In143 2.326 . S
O145 C153 1.252 . S
C146 O149 1.252 . S
C146 O150 1.260 . S
C147 O154 1.240 . S
C147 O155 1.252 . S
C148 O151 1.252 . S
C148 O152 1.260 . S
O149 In143 2.266 . S
O149 C146 1.252 . S
O150 In143 2.326 . S
O150 C146 1.260 . S
O151 In143 2.266 . S
O151 C148 1.252 . S
O152 In143 2.326 . S
O152 C148 1.260 . S
C153 O144 1.240 . S
C153 O145 1.252 . S
O154 In143 2.294 . S
O154 C147 1.240 . S
O155 In143 2.326 . S
O155 C147 1.252 . S
In156 O157 2.294 . S
In156 O158 2.326 . S
In156 O162 2.266 . S
In156 O163 2.326 . S
In156 O164 2.266 . S
In156 O165 2.326 . S
In156 O167 2.294 . S
In156 O168 2.326 . S
O157 In156 2.294 . S
O157 C166 1.240 . S
O158 In156 2.326 . S
O158 C166 1.252 . S
C159 O162 1.252 . S
C159 O163 1.260 . S
C160 O167 1.240 . S
C160 O168 1.252 . S
C161 O164 1.252 . S
C161 O165 1.260 . S
O162 In156 2.266 . S
O162 C159 1.252 . S
O163 In156 2.326 . S
O163 C159 1.260 . S
O164 In156 2.266 . S
O164 C161 1.252 . S
O165 In156 2.326 . S
O165 C161 1.260 . S
C166 O157 1.240 . S
C166 O158 1.252 . S
O167 In156 2.294 . S
O167 C160 1.240 . S
O168 In156 2.326 . S
O168 C160 1.252 . S
In169 O170 2.294 . S
In169 O171 2.326 . S
In169 O175 2.266 . S
In169 O176 2.326 . S
In169 O177 2.266 . S
In169 O178 2.326 . S
In169 O180 2.294 . S
In169 O181 2.326 . S
O170 In169 2.294 . S
O170 C179 1.240 . S
O171 In169 2.326 . S
O171 C179 1.252 . S
C172 O175 1.252 . S
C172 O176 1.260 . S
C173 O180 1.240 . S
C173 O181 1.252 . S
C174 O177 1.252 . S
C174 O178 1.260 . S
O175 In169 2.266 . S
O175 C172 1.252 . S
O176 In169 2.326 . S
O176 C172 1.260 . S
O177 In169 2.266 . S
O177 C174 1.252 . S
O178 In169 2.326 . S
O178 C174 1.260 . S
C179 O170 1.240 . S
C179 O171 1.252 . S
O180 In169 2.294 . S
O180 C173 1.240 . S
O181 In169 2.326 . S
O181 C173 1.252 . S
In182 O183 2.294 . S
In182 O184 2.326 . S
In182 O188 2.266 . S
In182 O189 2.326 . S
In182 O190 2.266 . S
In182 O191 2.326 . S
In182 O193 2.294 . S
In182 O194 2.326 . S
O183 In182 2.294 . S
O183 C192 1.240 . S
O184 In182 2.326 . S
O184 C192 1.252 . S
C185 O188 1.252 . S
C185 O189 1.260 . S
C186 O193 1.240 . S
C186 O194 1.252 . S
C187 O190 1.252 . S
C187 O191 1.260 . S
O188 In182 2.266 . S
O188 C185 1.252 . S
O189 In182 2.326 . S
O189 C185 1.260 . S
O190 In182 2.266 . S
O190 C187 1.252 . S
O191 In182 2.326 . S
O191 C187 1.260 . S
C192 O183 1.240 . S
C192 O184 1.252 . S
O193 In182 2.294 . S
O193 C186 1.240 . S
O194 In182 2.326 . S
O194 C186 1.252 . S
In195 O196 2.294 . S
In195 O197 2.326 . S
In195 O201 2.266 . S
In195 O202 2.326 . S
In195 O203 2.266 . S
In195 O204 2.326 . S
In195 O206 2.294 . S
In195 O207 2.326 . S
O196 In195 2.294 . S
O196 C205 1.240 . S
O197 In195 2.326 . S
O197 C205 1.252 . S
C198 O201 1.252 . S
C198 O202 1.260 . S
C199 O206 1.240 . S
C199 O207 1.252 . S
C200 O203 1.252 . S
C200 O204 1.260 . S
O201 In195 2.266 . S
O201 C198 1.252 . S
O202 In195 2.326 . S
O202 C198 1.260 . S
O203 In195 2.266 . S
O203 C200 1.252 . S
O204 In195 2.326 . S
O204 C200 1.260 . S
C205 O196 1.240 . S
C205 O197 1.252 . S
O206 In195 2.294 . S
O206 C199 1.240 . S
O207 In195 2.326 . S
O207 C199 1.252 . S
H208 C216 0.950 . S
H209 C221 0.950 . S
H210 C218 0.950 . S
H211 C220 0.950 . S
H212 C222 0.950 . S
H213 C224 0.950 . S
H214 C226 0.950 . S
H215 C227 0.950 . S
C216 H208 0.950 . S
C216 C217 1.386 . S
C216 C218 1.391 . S
C217 C216 1.386 . S
C217 C221 1.393 . S
C218 H210 0.950 . S
C218 C216 1.391 . S
C218 C219 1.400 . S
C219 C218 1.400 . S
C219 C220 1.398 . S
C219 C225 1.491 . S
C220 H211 0.950 . S
C220 C219 1.398 . S
C220 C221 1.391 . S
C221 H209 0.950 . S
C221 C217 1.393 . S
C221 C220 1.391 . S
C222 H212 0.950 . S
C222 C223 1.386 . S
C222 C224 1.391 . S
C223 C222 1.386 . S
C223 C227 1.393 . S
C224 H213 0.950 . S
C224 C222 1.391 . S
C224 C225 1.400 . S
C225 C219 1.491 . S
C225 C224 1.400 . S
C225 C226 1.398 . S
C226 H214 0.950 . S
C226 C225 1.398 . S
C226 C227 1.391 . S
C227 H215 0.950 . S
C227 C223 1.393 . S
C227 C226 1.391 . S
H228 C236 0.950 . S
H229 C241 0.950 . S
H230 C238 0.950 . S
H231 C240 0.950 . S
H232 C242 0.950 . S
H233 C244 0.950 . S
H234 C246 0.950 . S
H235 C247 0.950 . S
C236 H228 0.950 . S
C236 C237 1.386 . S
C236 C238 1.391 . S
C237 C236 1.386 . S
C237 C241 1.393 . S
C238 H230 0.950 . S
C238 C236 1.391 . S
C238 C239 1.400 . S
C239 C238 1.400 . S
C239 C240 1.398 . S
C239 C245 1.491 . S
C240 H231 0.950 . S
C240 C239 1.398 . S
C240 C241 1.391 . S
C241 H229 0.950 . S
C241 C237 1.393 . S
C241 C240 1.391 . S
C242 H232 0.950 . S
C242 C243 1.386 . S
C242 C244 1.391 . S
C243 C242 1.386 . S
C243 C247 1.393 . S
C244 H233 0.950 . S
C244 C242 1.391 . S
C244 C245 1.400 . S
C245 C239 1.491 . S
C245 C244 1.400 . S
C245 C246 1.398 . S
C246 H234 0.950 . S
C246 C245 1.398 . S
C246 C247 1.391 . S
C247 H235 0.950 . S
C247 C243 1.393 . S
C247 C246 1.391 . S
H248 C256 0.950 . S
H249 C261 0.950 . S
H250 C258 0.950 . S
H251 C260 0.950 . S
H252 C262 0.950 . S
H253 C264 0.950 . S
H254 C266 0.950 . S
H255 C267 0.950 . S
C256 H248 0.950 . S
C256 C257 1.386 . S
C256 C258 1.391 . S
C257 C256 1.386 . S
C257 C261 1.393 . S
C258 H250 0.950 . S
C258 C256 1.391 . S
C258 C259 1.400 . S
C259 C258 1.400 . S
C259 C260 1.398 . S
C259 C265 1.491 . S
C260 H251 0.950 . S
C260 C259 1.398 . S
C260 C261 1.391 . S
C261 H249 0.950 . S
C261 C257 1.393 . S
C261 C260 1.391 . S
C262 H252 0.950 . S
C262 C263 1.386 . S
C262 C264 1.391 . S
C263 C262 1.386 . S
C263 C267 1.393 . S
C264 H253 0.950 . S
C264 C262 1.391 . S
C264 C265 1.400 . S
C265 C259 1.491 . S
C265 C264 1.400 . S
C265 C266 1.398 . S
C266 H254 0.950 . S
C266 C265 1.398 . S
C266 C267 1.391 . S
C267 H255 0.950 . S
C267 C263 1.393 . S
C267 C266 1.391 . S
H268 C276 0.950 . S
H269 C281 0.950 . S
H270 C278 0.950 . S
H271 C280 0.950 . S
H272 C282 0.950 . S
H273 C284 0.950 . S
H274 C286 0.950 . S
H275 C287 0.950 . S
C276 H268 0.950 . S
C276 C277 1.386 . S
C276 C278 1.391 . S
C277 C276 1.386 . S
C277 C281 1.393 . S
C278 H270 0.950 . S
C278 C276 1.391 . S
C278 C279 1.400 . S
C279 C278 1.400 . S
C279 C280 1.398 . S
C279 C285 1.491 1_455 S
C280 H271 0.950 . S
C280 C279 1.398 . S
C280 C281 1.391 . S
C281 H269 0.950 . S
C281 C277 1.393 . S
C281 C280 1.391 . S
C282 H272 0.950 . S
C282 C283 1.386 . S
C282 C284 1.391 . S
C283 C282 1.386 . S
C283 C287 1.393 . S
C284 H273 0.950 . S
C284 C282 1.391 . S
C284 C285 1.400 . S
C285 C279 1.491 1_655 S
C285 C284 1.400 . S
C285 C286 1.398 . S
C286 H274 0.950 . S
C286 C285 1.398 . S
C286 C287 1.391 . S
C287 H275 0.950 . S
C287 C283 1.393 . S
C287 C286 1.391 . S
H288 C296 0.950 . S
H289 C301 0.950 . S
H290 C298 0.950 . S
H291 C300 0.950 . S
H292 C302 0.950 . S
H293 C304 0.950 . S
H294 C306 0.950 . S
H295 C307 0.950 . S
C296 H288 0.950 . S
C296 C297 1.386 . S
C296 C298 1.391 . S
C297 C296 1.386 . S
C297 C301 1.393 . S
C298 H290 0.950 . S
C298 C296 1.391 . S
C298 C299 1.400 . S
C299 C298 1.400 . S
C299 C300 1.398 . S
C299 C305 1.491 . S
C300 H291 0.950 . S
C300 C299 1.398 . S
C300 C301 1.391 . S
C301 H289 0.950 . S
C301 C297 1.393 . S
C301 C300 1.391 . S
C302 H292 0.950 . S
C302 C303 1.386 . S
C302 C304 1.391 . S
C303 C302 1.386 . S
C303 C307 1.393 . S
C304 H293 0.950 . S
C304 C302 1.391 . S
C304 C305 1.400 . S
C305 C299 1.491 . S
C305 C304 1.400 . S
C305 C306 1.398 . S
C306 H294 0.950 . S
C306 C305 1.398 . S
C306 C307 1.391 . S
C307 H295 0.950 . S
C307 C303 1.393 . S
C307 C306 1.391 . S
H308 C316 0.950 . S
H309 C321 0.950 . S
H310 C318 0.950 . S
H311 C320 0.950 . S
H312 C322 0.950 . S
H313 C324 0.950 . S
H314 C326 0.950 . S
H315 C327 0.950 . S
C316 H308 0.950 . S
C316 C317 1.386 . S
C316 C318 1.391 . S
C317 C316 1.386 . S
C317 C321 1.393 . S
C318 H310 0.950 . S
C318 C316 1.391 . S
C318 C319 1.400 . S
C319 C318 1.400 . S
C319 C320 1.398 . S
C319 C325 1.491 1_655 S
C320 H311 0.950 . S
C320 C319 1.398 . S
C320 C321 1.391 . S
C321 H309 0.950 . S
C321 C317 1.393 . S
C321 C320 1.391 . S
C322 H312 0.950 . S
C322 C323 1.386 . S
C322 C324 1.391 . S
C323 C322 1.386 . S
C323 C327 1.393 . S
C324 H313 0.950 . S
C324 C322 1.391 . S
C324 C325 1.400 . S
C325 C319 1.491 1_455 S
C325 C324 1.400 . S
C325 C326 1.398 . S
C326 H314 0.950 . S
C326 C325 1.398 . S
C326 C327 1.391 . S
C327 H315 0.950 . S
C327 C323 1.393 . S
C327 C326 1.391 . S
H328 C336 0.950 . S
H329 C341 0.950 . S
H330 C338 0.950 . S
H331 C340 0.950 . S
H332 C342 0.950 . S
H333 C344 0.950 . S
H334 C346 0.950 . S
H335 C347 0.950 . S
C336 H328 0.950 . S
C336 C337 1.386 . S
C336 C338 1.391 . S
C337 C336 1.386 . S
C337 C341 1.393 . S
C338 H330 0.950 . S
C338 C336 1.391 . S
C338 C339 1.400 . S
C339 C338 1.400 . S
C339 C340 1.398 . S
C339 C345 1.491 . S
C340 H331 0.950 . S
C340 C339 1.398 . S
C340 C341 1.391 . S
C341 H329 0.950 . S
C341 C337 1.393 . S
C341 C340 1.391 . S
C342 H332 0.950 . S
C342 C343 1.386 . S
C342 C344 1.391 . S
C343 C342 1.386 . S
C343 C347 1.393 . S
C344 H333 0.950 . S
C344 C342 1.391 . S
C344 C345 1.400 . S
C345 C339 1.491 . S
C345 C344 1.400 . S
C345 C346 1.398 . S
C346 H334 0.950 . S
C346 C345 1.398 . S
C346 C347 1.391 . S
C347 H335 0.950 . S
C347 C343 1.393 . S
C347 C346 1.391 . S
H348 C356 0.950 . S
H349 C361 0.950 . S
H350 C358 0.950 . S
H351 C360 0.950 . S
H352 C362 0.950 . S
H353 C364 0.950 . S
H354 C366 0.950 . S
H355 C367 0.950 . S
C356 H348 0.950 . S
C356 C357 1.386 . S
C356 C358 1.391 . S
C357 C356 1.386 . S
C357 C361 1.393 . S
C358 H350 0.950 . S
C358 C356 1.391 . S
C358 C359 1.400 . S
C359 C358 1.400 . S
C359 C360 1.398 . S
C359 C365 1.491 . S
C360 H351 0.950 . S
C360 C359 1.398 . S
C360 C361 1.391 . S
C361 H349 0.950 . S
C361 C357 1.393 . S
C361 C360 1.391 . S
C362 H352 0.950 . S
C362 C363 1.386 . S
C362 C364 1.391 . S
C363 C362 1.386 . S
C363 C367 1.393 . S
C364 H353 0.950 . S
C364 C362 1.391 . S
C364 C365 1.400 . S
C365 C359 1.491 . S
C365 C364 1.400 . S
C365 C366 1.398 . S
C366 H354 0.950 . S
C366 C365 1.398 . S
C366 C367 1.391 . S
C367 H355 0.950 . S
C367 C363 1.393 . S
C367 C366 1.391 . S
H368 C376 0.950 . S
H369 C381 0.950 . S
H370 C378 0.950 . S
H371 C380 0.950 . S
H372 C382 0.950 . S
H373 C384 0.950 . S
H374 C386 0.950 . S
H375 C387 0.950 . S
C376 H368 0.950 . S
C376 C377 1.386 . S
C376 C378 1.391 . S
C377 C376 1.386 . S
C377 C381 1.393 . S
C378 H370 0.950 . S
C378 C376 1.391 . S
C378 C379 1.400 . S
C379 C378 1.400 . S
C379 C380 1.398 . S
C379 C385 1.491 . S
C380 H371 0.950 . S
C380 C379 1.398 . S
C380 C381 1.391 . S
C381 H369 0.950 . S
C381 C377 1.393 . S
C381 C380 1.391 . S
C382 H372 0.950 . S
C382 C383 1.386 . S
C382 C384 1.391 . S
C383 C382 1.386 . S
C383 C387 1.393 . S
C384 H373 0.950 . S
C384 C382 1.391 . S
C384 C385 1.400 . S
C385 C379 1.491 . S
C385 C384 1.400 . S
C385 C386 1.398 . S
C386 H374 0.950 . S
C386 C385 1.398 . S
C386 C387 1.391 . S
C387 H375 0.950 . S
C387 C383 1.393 . S
C387 C386 1.391 . S
H388 C396 0.950 . S
H389 C401 0.950 . S
H390 C398 0.950 . S
H391 C400 0.950 . S
H392 C402 0.950 . S
H393 C404 0.950 . S
H394 C406 0.950 . S
H395 C407 0.950 . S
C396 H388 0.950 . S
C396 C397 1.386 . S
C396 C398 1.391 . S
C397 C396 1.386 . S
C397 C401 1.393 . S
C398 H390 0.950 . S
C398 C396 1.391 . S
C398 C399 1.400 . S
C399 C398 1.400 . S
C399 C400 1.398 . S
C399 C405 1.491 . S
C400 H391 0.950 . S
C400 C399 1.398 . S
C400 C401 1.391 . S
C401 H389 0.950 . S
C401 C397 1.393 . S
C401 C400 1.391 . S
C402 H392 0.950 . S
C402 C403 1.386 . S
C402 C404 1.391 . S
C403 C402 1.386 . S
C403 C407 1.393 . S
C404 H393 0.950 . S
C404 C402 1.391 . S
C404 C405 1.400 . S
C405 C399 1.491 . S
C405 C404 1.400 . S
C405 C406 1.398 . S
C406 H394 0.950 . S
C406 C405 1.398 . S
C406 C407 1.391 . S
C407 H395 0.950 . S
C407 C403 1.393 . S
C407 C406 1.391 . S
H408 C416 0.950 . S
H409 C421 0.950 . S
H410 C418 0.950 . S
H411 C420 0.950 . S
H412 C422 0.950 . S
H413 C424 0.950 . S
H414 C426 0.950 . S
H415 C427 0.950 . S
C416 H408 0.950 . S
C416 C417 1.386 . S
C416 C418 1.391 . S
C417 C416 1.386 . S
C417 C421 1.393 . S
C418 H410 0.950 . S
C418 C416 1.391 . S
C418 C419 1.400 . S
C419 C418 1.400 . S
C419 C420 1.398 . S
C419 C425 1.491 . S
C420 H411 0.950 . S
C420 C419 1.398 . S
C420 C421 1.391 . S
C421 H409 0.950 . S
C421 C417 1.393 . S
C421 C420 1.391 . S
C422 H412 0.950 . S
C422 C423 1.386 . S
C422 C424 1.391 . S
C423 C422 1.386 . S
C423 C427 1.393 . S
C424 H413 0.950 . S
C424 C422 1.391 . S
C424 C425 1.400 . S
C425 C419 1.491 . S
C425 C424 1.400 . S
C425 C426 1.398 . S
C426 H414 0.950 . S
C426 C425 1.398 . S
C426 C427 1.391 . S
C427 H415 0.950 . S
C427 C423 1.393 . S
C427 C426 1.391 . S
H428 C436 0.950 . S
H429 C441 0.950 . S
H430 C438 0.950 . S
H431 C440 0.950 . S
H432 C442 0.950 . S
H433 C444 0.950 . S
H434 C446 0.950 . S
H435 C447 0.950 . S
C436 H428 0.950 . S
C436 C437 1.386 . S
C436 C438 1.391 . S
C437 C436 1.386 . S
C437 C441 1.393 . S
C438 H430 0.950 . S
C438 C436 1.391 . S
C438 C439 1.400 . S
C439 C438 1.400 . S
C439 C440 1.398 . S
C439 C445 1.491 . S
C440 H431 0.950 . S
C440 C439 1.398 . S
C440 C441 1.391 . S
C441 H429 0.950 . S
C441 C437 1.393 . S
C441 C440 1.391 . S
C442 H432 0.950 . S
C442 C443 1.386 . S
C442 C444 1.391 . S
C443 C442 1.386 . S
C443 C447 1.393 . S
C444 H433 0.950 . S
C444 C442 1.391 . S
C444 C445 1.400 . S
C445 C439 1.491 . S
C445 C444 1.400 . S
C445 C446 1.398 . S
C446 H434 0.950 . S
C446 C445 1.398 . S
C446 C447 1.391 . S
C447 H435 0.950 . S
C447 C443 1.393 . S
C447 C446 1.391 . S
H448 C456 0.950 . S
H449 C461 0.950 . S
H450 C458 0.950 . S
H451 C460 0.950 . S
H452 C462 0.950 . S
H453 C464 0.950 . S
H454 C466 0.950 . S
H455 C467 0.950 . S
C456 H448 0.950 . S
C456 C457 1.386 . S
C456 C458 1.391 . S
C457 C456 1.386 . S
C457 C461 1.393 . S
C458 H450 0.950 . S
C458 C456 1.391 . S
C458 C459 1.400 . S
C459 C458 1.400 . S
C459 C460 1.398 . S
C459 C465 1.491 1_455 S
C460 H451 0.950 . S
C460 C459 1.398 . S
C460 C461 1.391 . S
C461 H449 0.950 . S
C461 C457 1.393 . S
C461 C460 1.391 . S
C462 H452 0.950 . S
C462 C463 1.386 . S
C462 C464 1.391 . S
C463 C462 1.386 . S
C463 C467 1.393 . S
C464 H453 0.950 . S
C464 C462 1.391 . S
C464 C465 1.400 . S
C465 C459 1.491 1_655 S
C465 C464 1.400 . S
C465 C466 1.398 . S
C466 H454 0.950 . S
C466 C465 1.398 . S
C466 C467 1.391 . S
C467 H455 0.950 . S
C467 C463 1.393 . S
C467 C466 1.391 . S
H468 C476 0.950 . S
H469 C481 0.950 . S
H470 C478 0.950 . S
H471 C480 0.950 . S
H472 C482 0.950 . S
H473 C484 0.950 . S
H474 C486 0.950 . S
H475 C487 0.950 . S
C476 H468 0.950 . S
C476 C477 1.386 . S
C476 C478 1.391 . S
C477 C476 1.386 . S
C477 C481 1.393 . S
C478 H470 0.950 . S
C478 C476 1.391 . S
C478 C479 1.400 . S
C479 C478 1.400 . S
C479 C480 1.398 . S
C479 C485 1.491 . S
C480 H471 0.950 . S
C480 C479 1.398 . S
C480 C481 1.391 . S
C481 H469 0.950 . S
C481 C477 1.393 . S
C481 C480 1.391 . S
C482 H472 0.950 . S
C482 C483 1.386 . S
C482 C484 1.391 . S
C483 C482 1.386 . S
C483 C487 1.393 . S
C484 H473 0.950 . S
C484 C482 1.391 . S
C484 C485 1.400 . S
C485 C479 1.491 . S
C485 C484 1.400 . S
C485 C486 1.398 . S
C486 H474 0.950 . S
C486 C485 1.398 . S
C486 C487 1.391 . S
C487 H475 0.950 . S
C487 C483 1.393 . S
C487 C486 1.391 . S
H488 C496 0.950 . S
H489 C501 0.950 . S
H490 C498 0.950 . S
H491 C500 0.950 . S
H492 C502 0.950 . S
H493 C504 0.950 . S
H494 C506 0.950 . S
H495 C507 0.950 . S
C496 H488 0.950 . S
C496 C497 1.386 . S
C496 C498 1.391 . S
C497 C496 1.386 . S
C497 C501 1.393 . S
C498 H490 0.950 . S
C498 C496 1.391 . S
C498 C499 1.400 . S
C499 C498 1.400 . S
C499 C500 1.398 . S
C499 C505 1.491 . S
C500 H491 0.950 . S
C500 C499 1.398 . S
C500 C501 1.391 . S
C501 H489 0.950 . S
C501 C497 1.393 . S
C501 C500 1.391 . S
C502 H492 0.950 . S
C502 C503 1.386 . S
C502 C504 1.391 . S
C503 C502 1.386 . S
C503 C507 1.393 . S
C504 H493 0.950 . S
C504 C502 1.391 . S
C504 C505 1.400 . S
C505 C499 1.491 . S
C505 C504 1.400 . S
C505 C506 1.398 . S
C506 H494 0.950 . S
C506 C505 1.398 . S
C506 C507 1.391 . S
C507 H495 0.950 . S
C507 C503 1.393 . S
C507 C506 1.391 . S
H508 C516 0.950 . S
H509 C521 0.950 . S
H510 C518 0.950 . S
H511 C520 0.950 . S
H512 C522 0.950 . S
H513 C524 0.950 . S
H514 C526 0.950 . S
H515 C527 0.950 . S
C516 H508 0.950 . S
C516 C517 1.386 . S
C516 C518 1.391 . S
C517 C516 1.386 . S
C517 C521 1.393 . S
C518 H510 0.950 . S
C518 C516 1.391 . S
C518 C519 1.400 . S
C519 C518 1.400 . S
C519 C520 1.398 . S
C519 C525 1.491 1_455 S
C520 H511 0.950 . S
C520 C519 1.398 . S
C520 C521 1.391 . S
C521 H509 0.950 . S
C521 C517 1.393 . S
C521 C520 1.391 . S
C522 H512 0.950 . S
C522 C523 1.386 . S
C522 C524 1.391 . S
C523 C522 1.386 . S
C523 C527 1.393 . S
C524 H513 0.950 . S
C524 C522 1.391 . S
C524 C525 1.400 . S
C525 C519 1.491 1_655 S
C525 C524 1.400 . S
C525 C526 1.398 . S
C526 H514 0.950 . S
C526 C525 1.398 . S
C526 C527 1.391 . S
C527 H515 0.950 . S
C527 C523 1.393 . S
C527 C526 1.391 . S
H528 C536 0.950 . S
H529 C541 0.950 . S
H530 C538 0.955 . S
H531 C540 0.950 . S
H532 C542 0.950 . S
H533 C544 0.961 . S
H534 C546 0.950 . S
H535 C547 0.950 . S
C536 H528 0.950 . S
C536 C537 1.386 . S
C536 C538 1.391 . S
C537 C536 1.386 . S
C537 C541 1.393 . S
C538 H530 0.955 . S
C538 C536 1.391 . S
C538 C539 1.400 . S
C539 C538 1.400 . S
C539 C540 1.398 . S
C539 C545 1.491 1_554 S
C540 H531 0.950 . S
C540 C539 1.398 . S
C540 C541 1.391 . S
C541 H529 0.950 . S
C541 C537 1.393 . S
C541 C540 1.391 . S
C542 H532 0.950 . S
C542 C543 1.386 . S
C542 C544 1.391 . S
C543 C542 1.386 . S
C543 C547 1.393 . S
C544 H533 0.961 . S
C544 C542 1.391 . S
C544 C545 1.400 . S
C545 C539 1.491 1_556 S
C545 C544 1.400 . S
C545 C546 1.398 . S
C546 H534 0.950 . S
C546 C545 1.398 . S
C546 C547 1.391 . S
C547 H535 0.950 . S
C547 C543 1.393 . S
C547 C546 1.391 . S
H548 C556 0.950 . S
H549 C561 0.950 . S
H550 C558 0.950 . S
H551 C560 0.950 . S
H552 C562 0.950 . S
H553 C564 0.950 . S
H554 C566 0.950 . S
H555 C567 0.950 . S
C556 H548 0.950 . S
C556 C557 1.386 . S
C556 C558 1.391 . S
C557 C556 1.386 . S
C557 C561 1.393 . S
C558 H550 0.950 . S
C558 C556 1.391 . S
C558 C559 1.400 . S
C559 C558 1.400 . S
C559 C560 1.398 . S
C559 C565 1.491 . S
C560 H551 0.950 . S
C560 C559 1.398 . S
C560 C561 1.391 . S
C561 H549 0.950 . S
C561 C557 1.393 . S
C561 C560 1.391 . S
C562 H552 0.950 . S
C562 C563 1.386 . S
C562 C564 1.391 . S
C563 C562 1.386 . S
C563 C567 1.393 . S
C564 H553 0.950 . S
C564 C562 1.391 . S
C564 C565 1.400 . S
C565 C559 1.491 . S
C565 C564 1.400 . S
C565 C566 1.398 . S
C566 H554 0.950 . S
C566 C565 1.398 . S
C566 C567 1.391 . S
C567 H555 0.950 . S
C567 C563 1.393 . S
C567 C566 1.391 . S
H568 C576 0.950 . S
H569 C581 0.950 . S
H570 C578 0.950 . S
H571 C580 0.950 . S
H572 C582 0.950 . S
H573 C584 0.950 . S
H574 C586 0.950 . S
H575 C587 0.950 . S
C576 H568 0.950 . S
C576 C577 1.386 . S
C576 C578 1.391 . S
C577 C576 1.386 . S
C577 C581 1.393 . S
C578 H570 0.950 . S
C578 C576 1.391 . S
C578 C579 1.400 . S
C579 C578 1.400 . S
C579 C580 1.398 . S
C579 C585 1.491 . S
C580 H571 0.950 . S
C580 C579 1.398 . S
C580 C581 1.391 . S
C581 H569 0.950 . S
C581 C577 1.393 . S
C581 C580 1.391 . S
C582 H572 0.950 . S
C582 C583 1.386 . S
C582 C584 1.391 . S
C583 C582 1.386 . S
C583 C587 1.393 . S
C584 H573 0.950 . S
C584 C582 1.391 . S
C584 C585 1.400 . S
C585 C579 1.491 . S
C585 C584 1.400 . S
C585 C586 1.398 . S
C586 H574 0.950 . S
C586 C585 1.398 . S
C586 C587 1.391 . S
C587 H575 0.950 . S
C587 C583 1.393 . S
C587 C586 1.391 . S
H588 C596 0.950 . S
H589 C601 0.950 . S
H590 C598 0.950 . S
H591 C600 0.950 . S
H592 C602 0.950 . S
H593 C604 0.950 . S
H594 C606 0.950 . S
H595 C607 0.950 . S
C596 H588 0.950 . S
C596 C597 1.386 . S
C596 C598 1.391 . S
C597 C596 1.386 . S
C597 C601 1.393 . S
C598 H590 0.950 . S
C598 C596 1.391 . S
C598 C599 1.400 . S
C599 C598 1.400 . S
C599 C600 1.398 . S
C599 C605 1.491 . S
C600 H591 0.950 . S
C600 C599 1.398 . S
C600 C601 1.391 . S
C601 H589 0.950 . S
C601 C597 1.393 . S
C601 C600 1.391 . S
C602 H592 0.950 . S
C602 C603 1.386 . S
C602 C604 1.391 . S
C603 C602 1.386 . S
C603 C607 1.393 . S
C604 H593 0.950 . S
C604 C602 1.391 . S
C604 C605 1.400 . S
C605 C599 1.491 . S
C605 C604 1.400 . S
C605 C606 1.398 . S
C606 H594 0.950 . S
C606 C605 1.398 . S
C606 C607 1.391 . S
C607 H595 0.950 . S
C607 C603 1.393 . S
C607 C606 1.391 . S
H608 C616 0.950 . S
H609 C621 0.950 . S
H610 C618 0.950 1_554 S
H611 C620 0.950 . S
H612 C622 0.950 . S
H613 C624 0.950 1_556 S
H614 C626 0.950 . S
H615 C627 0.950 . S
C616 H608 0.950 . S
C616 C617 1.386 . S
C616 C618 1.391 . S
C617 C616 1.386 . S
C617 C621 1.393 . S
C618 H610 0.950 1_556 S
C618 C616 1.391 . S
C618 C619 1.400 . S
C619 C618 1.400 . S
C619 C620 1.398 . S
C619 C625 1.491 1_556 S
C620 H611 0.950 . S
C620 C619 1.398 . S
C620 C621 1.391 . S
C621 H609 0.950 . S
C621 C617 1.393 . S
C621 C620 1.391 . S
C622 H612 0.950 . S
C622 C623 1.386 . S
C622 C624 1.391 . S
C623 C622 1.386 . S
C623 C627 1.393 . S
C624 H613 0.950 1_554 S
C624 C622 1.391 . S
C624 C625 1.400 . S
C625 C619 1.491 1_554 S
C625 C624 1.400 . S
C625 C626 1.398 . S
C626 H614 0.950 . S
C626 C625 1.398 . S
C626 C627 1.391 . S
C627 H615 0.950 . S
C627 C623 1.393 . S
C627 C626 1.391 . S
H628 C636 0.950 . S
H629 C641 0.950 . S
H630 C638 0.950 . S
H631 C640 0.950 . S
H632 C642 0.950 . S
H633 C644 0.950 . S
H634 C646 0.950 . S
H635 C647 0.950 . S
C636 H628 0.950 . S
C636 C637 1.386 . S
C636 C638 1.391 . S
C637 C636 1.386 . S
C637 C641 1.393 . S
C638 H630 0.950 . S
C638 C636 1.391 . S
C638 C639 1.400 . S
C639 C638 1.400 . S
C639 C640 1.398 . S
C639 C645 1.491 . S
C640 H631 0.950 . S
C640 C639 1.398 . S
C640 C641 1.391 . S
C641 H629 0.950 . S
C641 C637 1.393 . S
C641 C640 1.391 . S
C642 H632 0.950 . S
C642 C643 1.386 . S
C642 C644 1.391 . S
C643 C642 1.386 . S
C643 C647 1.393 . S
C644 H633 0.950 . S
C644 C642 1.391 . S
C644 C645 1.400 . S
C645 C639 1.491 . S
C645 C644 1.400 . S
C645 C646 1.398 . S
C646 H634 0.950 . S
C646 C645 1.398 . S
C646 C647 1.391 . S
C647 H635 0.950 . S
C647 C643 1.393 . S
C647 C646 1.391 . S
H648 C656 0.950 . S
H649 C661 0.950 . S
H650 C658 0.950 . S
H651 C660 0.950 . S
H652 C662 0.950 . S
H653 C664 0.950 . S
H654 C666 0.950 . S
H655 C667 0.950 . S
C656 H648 0.950 . S
C656 C657 1.386 . S
C656 C658 1.391 . S
C657 C656 1.386 . S
C657 C661 1.393 . S
C658 H650 0.950 . S
C658 C656 1.391 . S
C658 C659 1.400 . S
C659 C658 1.400 . S
C659 C660 1.398 . S
C659 C665 1.491 . S
C660 H651 0.950 . S
C660 C659 1.398 . S
C660 C661 1.391 . S
C661 H649 0.950 . S
C661 C657 1.393 . S
C661 C660 1.391 . S
C662 H652 0.950 . S
C662 C663 1.386 . S
C662 C664 1.391 . S
C663 C662 1.386 . S
C663 C667 1.393 . S
C664 H653 0.950 . S
C664 C662 1.391 . S
C664 C665 1.400 . S
C665 C659 1.491 . S
C665 C664 1.400 . S
C665 C666 1.398 . S
C666 H654 0.950 . S
C666 C665 1.398 . S
C666 C667 1.391 . S
C667 H655 0.950 . S
C667 C663 1.393 . S
C667 C666 1.391 . S
H668 C676 0.950 . S
H669 C681 0.950 . S
H670 C678 0.950 . S
H671 C680 0.950 . S
H672 C682 0.950 . S
H673 C684 0.950 . S
H674 C686 0.950 . S
H675 C687 0.950 . S
C676 H668 0.950 . S
C676 C677 1.386 . S
C676 C678 1.391 . S
C677 C676 1.386 . S
C677 C681 1.393 . S
C678 H670 0.950 . S
C678 C676 1.391 . S
C678 C679 1.400 . S
C679 C678 1.400 . S
C679 C680 1.398 . S
C679 C685 1.491 . S
C680 H671 0.950 . S
C680 C679 1.398 . S
C680 C681 1.391 . S
C681 H669 0.950 . S
C681 C677 1.393 . S
C681 C680 1.391 . S
C682 H672 0.950 . S
C682 C683 1.386 . S
C682 C684 1.391 . S
C683 C682 1.386 . S
C683 C687 1.393 . S
C684 H673 0.950 . S
C684 C682 1.391 . S
C684 C685 1.400 . S
C685 C679 1.491 . S
C685 C684 1.400 . S
C685 C686 1.398 . S
C686 H674 0.950 . S
C686 C685 1.398 . S
C686 C687 1.391 . S
C687 H675 0.950 . S
C687 C683 1.393 . S
C687 C686 1.391 . S
H688 C696 0.950 . S
H689 C701 0.950 . S
H690 C698 0.950 . S
H691 C700 0.950 . S
H692 C702 0.950 . S
H693 C704 0.950 . S
H694 C706 0.950 . S
H695 C707 0.950 . S
C696 H688 0.950 . S
C696 C697 1.386 . S
C696 C698 1.391 . S
C697 C696 1.386 . S
C697 C701 1.393 . S
C698 H690 0.950 . S
C698 C696 1.391 . S
C698 C699 1.400 . S
C699 C698 1.400 . S
C699 C700 1.398 . S
C699 C705 1.491 1_545 S
C700 H691 0.950 . S
C700 C699 1.398 . S
C700 C701 1.391 . S
C701 H689 0.950 . S
C701 C697 1.393 . S
C701 C700 1.391 . S
C702 H692 0.950 . S
C702 C703 1.386 . S
C702 C704 1.391 . S
C703 C702 1.386 . S
C703 C707 1.393 . S
C704 H693 0.950 . S
C704 C702 1.391 . S
C704 C705 1.400 . S
C705 C699 1.491 1_565 S
C705 C704 1.400 . S
C705 C706 1.398 . S
C706 H694 0.950 . S
C706 C705 1.398 . S
C706 C707 1.391 . S
C707 H695 0.950 . S
C707 C703 1.393 . S
C707 C706 1.391 . S
H708 C716 0.950 . S
H709 C721 0.950 . S
H710 C718 0.950 . S
H711 C720 0.950 . S
H712 C722 0.950 . S
H713 C724 0.950 . S
H714 C726 0.950 . S
H715 C727 0.950 . S
C716 H708 0.950 . S
C716 C717 1.386 . S
C716 C718 1.391 . S
C717 C716 1.386 . S
C717 C721 1.393 . S
C718 H710 0.950 . S
C718 C716 1.391 . S
C718 C719 1.400 . S
C719 C718 1.400 . S
C719 C720 1.398 . S
C719 C725 1.491 . S
C720 H711 0.950 . S
C720 C719 1.398 . S
C720 C721 1.391 . S
C721 H709 0.950 . S
C721 C717 1.393 . S
C721 C720 1.391 . S
C722 H712 0.950 . S
C722 C723 1.386 . S
C722 C724 1.391 . S
C723 C722 1.386 . S
C723 C727 1.393 . S
C724 H713 0.950 . S
C724 C722 1.391 . S
C724 C725 1.400 . S
C725 C719 1.491 . S
C725 C724 1.400 . S
C725 C726 1.398 . S
C726 H714 0.950 . S
C726 C725 1.398 . S
C726 C727 1.391 . S
C727 H715 0.950 . S
C727 C723 1.393 . S
C727 C726 1.391 . S
H728 C736 0.950 . S
H729 C741 0.950 . S
H730 C738 0.950 . S
H731 C740 0.950 1_554 S
H732 C742 0.950 . S
H733 C744 0.950 . S
H734 C746 0.950 1_556 S
H735 C747 0.950 . S
C736 H728 0.950 . S
C736 C737 1.386 . S
C736 C738 1.391 . S
C737 C736 1.386 . S
C737 C741 1.393 . S
C738 H730 0.950 . S
C738 C736 1.391 . S
C738 C739 1.400 . S
C739 C738 1.400 . S
C739 C740 1.398 . S
C739 C745 1.491 1_546 S
C740 H731 0.950 1_556 S
C740 C739 1.398 . S
C740 C741 1.391 . S
C741 H729 0.950 . S
C741 C737 1.393 . S
C741 C740 1.391 . S
C742 H732 0.950 . S
C742 C743 1.386 . S
C742 C744 1.391 . S
C743 C742 1.386 . S
C743 C747 1.393 . S
C744 H733 0.950 . S
C744 C742 1.391 . S
C744 C745 1.400 . S
C745 C739 1.491 1_564 S
C745 C744 1.400 . S
C745 C746 1.398 . S
C746 H734 0.950 1_554 S
C746 C745 1.398 . S
C746 C747 1.391 . S
C747 H735 0.950 . S
C747 C743 1.393 . S
C747 C746 1.391 . S
H748 C756 0.950 . S
H749 C761 0.950 . S
H750 C758 0.950 . S
H751 C760 0.950 . S
H752 C762 0.950 . S
H753 C764 0.950 . S
H754 C766 0.950 . S
H755 C767 0.950 . S
C756 H748 0.950 . S
C756 C757 1.386 . S
C756 C758 1.391 . S
C757 C756 1.386 . S
C757 C761 1.393 . S
C758 H750 0.950 . S
C758 C756 1.391 . S
C758 C759 1.400 . S
C759 C758 1.400 . S
C759 C760 1.398 . S
C759 C765 1.491 . S
C760 H751 0.950 . S
C760 C759 1.398 . S
C760 C761 1.391 . S
C761 H749 0.950 . S
C761 C757 1.393 . S
C761 C760 1.391 . S
C762 H752 0.950 . S
C762 C763 1.386 . S
C762 C764 1.391 . S
C763 C762 1.386 . S
C763 C767 1.393 . S
C764 H753 0.950 . S
C764 C762 1.391 . S
C764 C765 1.400 . S
C765 C759 1.491 . S
C765 C764 1.400 . S
C765 C766 1.398 . S
C766 H754 0.950 . S
C766 C765 1.398 . S
C766 C767 1.391 . S
C767 H755 0.950 . S
C767 C763 1.393 . S
C767 C766 1.391 . S
H768 C776 0.950 . S
H769 C781 0.950 . S
H770 C778 0.950 . S
H771 C780 0.950 1_565 S
H772 C782 0.950 . S
H773 C784 0.950 . S
H774 C786 0.950 1_545 S
H775 C787 0.950 . S
C776 H768 0.950 . S
C776 C777 1.386 . S
C776 C778 1.391 . S
C777 C776 1.386 . S
C777 C781 1.393 . S
C778 H770 0.950 . S
C778 C776 1.391 . S
C778 C779 1.400 . S
C779 C778 1.400 . S
C779 C780 1.398 . S
C779 C785 1.491 1_545 S
C780 H771 0.950 1_545 S
C780 C779 1.398 . S
C780 C781 1.391 . S
C781 H769 0.950 . S
C781 C777 1.393 . S
C781 C780 1.391 . S
C782 H772 0.950 . S
C782 C783 1.386 . S
C782 C784 1.391 . S
C783 C782 1.386 . S
C783 C787 1.393 . S
C784 H773 0.950 . S
C784 C782 1.391 . S
C784 C785 1.400 . S
C785 C779 1.491 1_565 S
C785 C784 1.400 . S
C785 C786 1.398 . S
C786 H774 0.950 1_565 S
C786 C785 1.398 . S
C786 C787 1.391 . S
C787 H775 0.950 . S
C787 C783 1.393 . S
C787 C786 1.391 . S
H788 C796 0.950 . S
H789 C801 0.950 . S
H790 C798 0.950 . S
H791 C800 0.950 . S
H792 C802 0.950 . S
H793 C804 0.950 . S
H794 C806 0.950 . S
H795 C807 0.950 . S
C796 H788 0.950 . S
C796 C797 1.386 . S
C796 C798 1.391 . S
C797 C796 1.386 . S
C797 C801 1.393 . S
C798 H790 0.950 . S
C798 C796 1.391 . S
C798 C799 1.400 . S
C799 C798 1.400 . S
C799 C800 1.398 . S
C799 C805 1.491 . S
C800 H791 0.950 . S
C800 C799 1.398 . S
C800 C801 1.391 . S
C801 H789 0.950 . S
C801 C797 1.393 . S
C801 C800 1.391 . S
C802 H792 0.950 . S
C802 C803 1.386 . S
C802 C804 1.391 . S
C803 C802 1.386 . S
C803 C807 1.393 . S
C804 H793 0.950 . S
C804 C802 1.391 . S
C804 C805 1.400 . S
C805 C799 1.491 . S
C805 C804 1.400 . S
C805 C806 1.398 . S
C806 H794 0.950 . S
C806 C805 1.398 . S
C806 C807 1.391 . S
C807 H795 0.950 . S
C807 C803 1.393 . S
C807 C806 1.391 . S
H808 C816 0.950 . S
H809 C821 0.950 . S
H810 C818 0.950 1_545 S
H811 C820 0.950 1_556 S
H812 C822 0.950 . S
H813 C824 0.950 1_565 S
H814 C826 0.950 1_554 S
H815 C827 0.950 . S
C816 H808 0.950 . S
C816 C817 1.386 . S
C816 C818 1.391 . S
C817 C816 1.386 . S
C817 C821 1.393 . S
C818 H810 0.950 1_565 S
C818 C816 1.391 . S
C818 C819 1.400 . S
C819 C818 1.400 . S
C819 C820 1.398 . S
C819 C825 1.491 1_564 S
C820 H811 0.950 1_554 S
C820 C819 1.398 . S
C820 C821 1.391 . S
C821 H809 0.950 . S
C821 C817 1.393 . S
C821 C820 1.391 . S
C822 H812 0.950 . S
C822 C823 1.386 . S
C822 C824 1.391 . S
C823 C822 1.386 . S
C823 C827 1.393 . S
C824 H813 0.950 1_545 S
C824 C822 1.391 . S
C824 C825 1.400 . S
C825 C819 1.491 1_546 S
C825 C824 1.400 . S
C825 C826 1.398 . S
C826 H814 0.950 1_556 S
C826 C825 1.398 . S
C826 C827 1.391 . S
C827 H815 0.950 . S
C827 C823 1.393 . S
C827 C826 1.391 . S
H828 C836 0.950 . S
H829 C841 0.950 . S
H830 C838 0.950 . S
H831 C840 0.950 . S
H832 C842 0.950 . S
H833 C844 0.950 . S
H834 C846 0.950 . S
H835 C847 0.950 . S
C836 H828 0.950 . S
C836 C837 1.386 . S
C836 C838 1.391 . S
C837 C836 1.386 . S
C837 C841 1.393 . S
C838 H830 0.950 . S
C838 C836 1.391 . S
C838 C839 1.400 . S
C839 C838 1.400 . S
C839 C840 1.398 . S
C839 C845 1.491 . S
C840 H831 0.950 . S
C840 C839 1.398 . S
C840 C841 1.391 . S
C841 H829 0.950 . S
C841 C837 1.393 . S
C841 C840 1.391 . S
C842 H832 0.950 . S
C842 C843 1.386 . S
C842 C844 1.391 . S
C843 C842 1.386 . S
C843 C847 1.393 . S
C844 H833 0.950 . S
C844 C842 1.391 . S
C844 C845 1.400 . S
C845 C839 1.491 . S
C845 C844 1.400 . S
C845 C846 1.398 . S
C846 H834 0.950 . S
C846 C845 1.398 . S
C846 C847 1.391 . S
C847 H835 0.950 . S
C847 C843 1.393 . S
C847 C846 1.391 . S
C217 C148 1.468 . S
C223 C4 1.473 . S
C237 C199 1.477 . S
C243 C18 1.473 . S
C257 C29 1.468 . S
C263 C127 1.474 . S
C277 C179 1.464 . S
C283 C49 1.470 . S
C297 C62 1.476 . S
C303 C174 1.465 . S
C317 C70 1.472 . S
C323 C153 1.480 . S
C337 C81 1.477 . S
C343 C198 1.483 . S
C357 C101 1.474 . S
C363 C122 1.478 . S
C377 C44 1.473 . S
C383 C107 1.477 . S
C397 C135 1.472 . S
C403 C23 1.480 . S
C417 C160 1.469 . S
C423 C75 1.464 . S
C437 C187 1.472 . S
C443 C96 1.478 . S
C457 C57 1.473 . S
C463 C108 1.469 . S
C477 C140 1.470 . S
C483 C82 1.473 . S
C497 C192 1.470 . S
C503 C30 1.474 . S
C517 C3 1.485 . S
C523 C159 1.476 . S
C537 C5 1.399 . S
C543 C55 1.397 . S
C557 C17 1.383 . S
C563 C69 1.378 . S
C577 C36 1.385 . S
C583 C88 1.386 . S
C597 C94 1.397 . S
C603 C42 1.395 . S
C617 C114 1.383 . S
C623 C161 1.386 . S
C637 C172 1.389 . S
C643 C121 1.387 . S
C657 C134 1.387 . S
C663 C186 1.392 . S
C677 C200 1.398 . S
C683 C146 1.397 . S
C697 C95 1.390 . S
C703 C16 1.394 . S
C717 C31 1.391 . S
C723 C56 1.392 . S
C737 C43 1.395 . S
C743 C68 1.399 . S
C757 C10 1.388 . S
C763 C83 1.384 . S
C777 C120 1.393 . S
C783 C205 1.397 . S
C797 C166 1.392 . S
C803 C133 1.396 . S
C817 C147 1.385 . S
C823 C173 1.380 . S
C837 C185 1.389 . S
C843 C109 1.389 . S
