# Generated by pormake.
# Topology ukf, (4)-cn, num edge types: 1
# Building blocks:
#     Node 0, Type 0, BuildingBlock: ESEHIV_clean_sbu_0, # of connection points: 4
#     Node 1, Type 0, BuildingBlock: ESEHIV_clean_sbu_0, # of connection points: 4
#     Node 2, Type 0, BuildingBlock: ESEHIV_clean_sbu_0, # of connection points: 4
#     Node 3, Type 0, BuildingBlock: ESEHIV_clean_sbu_0, # of connection points: 4
#     Node 4, Type 0, BuildingBlock: ESEHIV_clean_sbu_0, # of connection points: 4
#     Node 5, Type 0, BuildingBlock: ESEHIV_clean_sbu_0, # of connection points: 4
#     Node 6, Type 0, BuildingBlock: ESEHIV_clean_sbu_0, # of connection points: 4
#     Node 7, Type 0, BuildingBlock: ESEHIV_clean_sbu_0, # of connection points: 4
#     Node 8, Type 0, BuildingBlock: ESEHIV_clean_sbu_0, # of connection points: 4
#     Node 9, Type 0, BuildingBlock: ESEHIV_clean_sbu_0, # of connection points: 4
#     Node 10, Type 0, BuildingBlock: ESEHIV_clean_sbu_0, # of connection points: 4
#     Node 11, Type 0, BuildingBlock: ESEHIV_clean_sbu_0, # of connection points: 4
#     Edge 12, Type (0, 0), BuildingBlock: MIFKUJ_clean_linker_0, # of connection points: 2
#     Edge 13, Type (0, 0), BuildingBlock: MIFKUJ_clean_linker_0, # of connection points: 2
#     Edge 14, Type (0, 0), BuildingBlock: MIFKUJ_clean_linker_0, # of connection points: 2
#     Edge 15, Type (0, 0), BuildingBlock: MIFKUJ_clean_linker_0, # of connection points: 2
#     Edge 16, Type (0, 0), BuildingBlock: MIFKUJ_clean_linker_0, # of connection points: 2
#     Edge 17, Type (0, 0), BuildingBlock: MIFKUJ_clean_linker_0, # of connection points: 2
#     Edge 18, Type (0, 0), BuildingBlock: MIFKUJ_clean_linker_0, # of connection points: 2
#     Edge 19, Type (0, 0), BuildingBlock: MIFKUJ_clean_linker_0, # of connection points: 2
#     Edge 20, Type (0, 0), BuildingBlock: MIFKUJ_clean_linker_0, # of connection points: 2
#     Edge 21, Type (0, 0), BuildingBlock: MIFKUJ_clean_linker_0, # of connection points: 2
#     Edge 22, Type (0, 0), BuildingBlock: MIFKUJ_clean_linker_0, # of connection points: 2
#     Edge 23, Type (0, 0), BuildingBlock: MIFKUJ_clean_linker_0, # of connection points: 2
#     Edge 24, Type (0, 0), BuildingBlock: MIFKUJ_clean_linker_0, # of connection points: 2
#     Edge 25, Type (0, 0), BuildingBlock: MIFKUJ_clean_linker_0, # of connection points: 2
#     Edge 26, Type (0, 0), BuildingBlock: MIFKUJ_clean_linker_0, # of connection points: 2
#     Edge 27, Type (0, 0), BuildingBlock: MIFKUJ_clean_linker_0, # of connection points: 2
#     Edge 28, Type (0, 0), BuildingBlock: MIFKUJ_clean_linker_0, # of connection points: 2
#     Edge 29, Type (0, 0), BuildingBlock: MIFKUJ_clean_linker_0, # of connection points: 2
#     Edge 30, Type (0, 0), BuildingBlock: MIFKUJ_clean_linker_0, # of connection points: 2
#     Edge 31, Type (0, 0), BuildingBlock: MIFKUJ_clean_linker_0, # of connection points: 2
#     Edge 32, Type (0, 0), BuildingBlock: MIFKUJ_clean_linker_0, # of connection points: 2
#     Edge 33, Type (0, 0), BuildingBlock: MIFKUJ_clean_linker_0, # of connection points: 2
#     Edge 34, Type (0, 0), BuildingBlock: MIFKUJ_clean_linker_0, # of connection points: 2
#     Edge 35, Type (0, 0), BuildingBlock: MIFKUJ_clean_linker_0, # of connection points: 2
# Relax obj value: 0.095
# Max RMSD: 0.292
# Mean RMSD: 0.290
data_MOF--net-ukf--node1-ESEHIV_clean_sbu_0--edge1-MIFKUJ_clean_linker_0
_symmetry_space_group_name_H-M    P1
_symmetry_Int_Tables_number       1
_symmetry_cell_setting            triclinic
loop_
_symmetry_equiv_pos_as_xyz
'x, y, z'
_cell_length_a     45.914438
_cell_length_b     46.191151
_cell_length_c     91.554673
_cell_angle_alpha  89.879597
_cell_angle_beta   89.826863
_cell_angle_gamma 119.87934
loop_
_atom_site_label
_atom_site_type_symbol
_atom_site_fract_x
_atom_site_fract_y
_atom_site_fract_z
_atom_type_partial_charge
Cu0 Cu 0.46781 0.25228 0.07815 0.0
N1 N 0.42976 0.2126 0.07243 0.0
N2 N 0.3953 0.16525 0.06071 0.0
C3 C 0.42666 0.19193 0.0614 0.0
C4 C 0.37806 0.16952 0.07166 0.0
C5 C 0.39936 0.19866 0.07886 0.0
O6 O 0.50706 0.25594 0.06834 0.0
C7 C 0.49934 0.26474 0.10606 0.0
O8 O 0.52755 0.27969 0.09857 0.0
H9 H 0.4469 0.19647 0.05398 0.0
H10 H 0.39325 0.20891 0.08822 0.0
N11 N 0.46252 0.28817 0.07233 0.0
N12 N 0.46922 0.33928 0.0696 0.0
C13 C 0.4786 0.32001 0.07711 0.0
C14 C 0.44226 0.28726 0.06156 0.0
C15 C 0.44631 0.31866 0.05985 0.0
C16 C 0.51321 0.23197 0.06819 0.0
O17 O 0.4936 0.20457 0.07558 0.0
H18 H 0.4974 0.32901 0.08562 0.0
H19 H 0.42595 0.26529 0.05527 0.0
O20 O 0.4715 0.2518 0.09929 0.0
H21 H 0.3521 0.15242 0.07451 0.0
H22 H 0.4333 0.32573 0.05203 0.0
Cu23 Cu 0.23811 0.47105 0.41008 0.0
N24 N 0.19682 0.46429 0.4033 0.0
N25 N 0.15064 0.46866 0.40043 0.0
C26 C 0.17849 0.47751 0.40852 0.0
C27 C 0.15179 0.4491 0.38972 0.0
C28 C 0.18018 0.4465 0.39153 0.0
O29 O 0.24064 0.47901 0.43108 0.0
C30 C 0.30289 0.51353 0.3976 0.0
O31 O 0.31052 0.4919 0.4031 0.0
H32 H 0.1857 0.49341 0.41804 0.0
H33 H 0.18851 0.4331 0.38458 0.0
N34 N 0.24146 0.4328 0.40653 0.0
N35 N 0.25633 0.39757 0.39682 0.0
C36 C 0.25398 0.42532 0.39467 0.0
C37 C 0.23498 0.40856 0.41633 0.0
C38 C 0.24421 0.38691 0.41042 0.0
C39 C 0.26464 0.48092 0.43873 0.0
O40 O 0.28885 0.47846 0.43224 0.0
H41 H 0.26289 0.44089 0.38499 0.0
H42 H 0.22531 0.40742 0.42723 0.0
O43 O 0.27363 0.50942 0.39971 0.0
H44 H 0.13397 0.43809 0.38092 0.0
H45 H 0.24266 0.3653 0.41581 0.0
Cu46 Cu 0.79107 0.22371 0.74511 0.0
N47 N 0.83214 0.22775 0.73938 0.0
N48 N 0.88227 0.24554 0.72877 0.0
C49 C 0.85329 0.24651 0.72858 0.0
C50 C 0.87893 0.22512 0.74001 0.0
C51 C 0.8481 0.21424 0.7465 0.0
O52 O 0.7847 0.257 0.73489 0.0
C53 C 0.77301 0.23634 0.77333 0.0
O54 O 0.74941 0.23895 0.76639 0.0
H55 H 0.8481 0.26155 0.72111 0.0
H56 H 0.83821 0.19818 0.75599 0.0
N57 N 0.75613 0.18079 0.74069 0.0
N58 N 0.70529 0.13519 0.73885 0.0
C59 C 0.72282 0.16757 0.74301 0.0
C60 C 0.75974 0.15609 0.73484 0.0
C61 C 0.72854 0.12801 0.73369 0.0
C62 C 0.80714 0.28768 0.7354 0.0
O63 O 0.83383 0.29667 0.74352 0.0
H64 H 0.71181 0.18123 0.74788 0.0
H65 H 0.78349 0.15832 0.73167 0.0
O66 O 0.79303 0.23022 0.76611 0.0
H67 H 0.89755 0.21863 0.74338 0.0
H68 H 0.72339 0.10424 0.72925 0.0
Cu69 Cu 0.58911 0.77772 0.07608 0.0
N70 N 0.62764 0.81682 0.07017 0.0
N71 N 0.66178 0.86685 0.06005 0.0
C72 C 0.62959 0.84342 0.06314 0.0
C73 C 0.68053 0.85416 0.06542 0.0
C74 C 0.65948 0.8235 0.07164 0.0
O75 O 0.55141 0.7745 0.06524 0.0
C76 C 0.55725 0.76126 0.10422 0.0
O77 O 0.53004 0.74019 0.09712 0.0
H78 H 0.60774 0.84536 0.06037 0.0
H79 H 0.66679 0.80689 0.07668 0.0
N80 N 0.59384 0.74117 0.07085 0.0
N81 N 0.58549 0.68937 0.06861 0.0
C82 C 0.57832 0.70989 0.07642 0.0
C83 C 0.61145 0.74034 0.05925 0.0
C84 C 0.60637 0.70851 0.05784 0.0
C85 C 0.53402 0.78786 0.06883 0.0
O86 O 0.54031 0.80443 0.08114 0.0
H87 H 0.561 0.702 0.08556 0.0
H88 H 0.62616 0.76127 0.05205 0.0
O89 O 0.58435 0.77916 0.09715 0.0
H90 H 0.70755 0.86569 0.06468 0.0
H91 H 0.61684 0.69996 0.0494 0.0
Cu92 Cu 0.81636 0.56915 0.41072 0.0
N93 N 0.85962 0.57956 0.40499 0.0
N94 N 0.90646 0.57649 0.40209 0.0
C95 C 0.87596 0.5631 0.40862 0.0
C96 C 0.90929 0.60242 0.3941 0.0
C97 C 0.88043 0.60424 0.39593 0.0
O98 O 0.81316 0.56523 0.43191 0.0
C99 C 0.75293 0.51605 0.40224 0.0
O100 O 0.7413 0.53219 0.40988 0.0
H101 H 0.86531 0.54128 0.41563 0.0
H102 H 0.87484 0.62213 0.39091 0.0
N103 N 0.80803 0.60365 0.40547 0.0
N104 N 0.78749 0.63383 0.39524 0.0
C105 C 0.79078 0.60635 0.39409 0.0
C106 C 0.81608 0.63037 0.41391 0.0
C107 C 0.80348 0.64893 0.40767 0.0
C108 C 0.80093 0.53788 0.43899 0.0
O109 O 0.78963 0.5097 0.43183 0.0
H110 H 0.77977 0.58798 0.3855 0.0
H111 H 0.82951 0.63548 0.42413 0.0
O112 O 0.78447 0.52778 0.40137 0.0
H113 H 0.93078 0.61907 0.38748 0.0
H114 H 0.8057 0.67174 0.41201 0.0
Cu115 Cu 0.26684 0.81476 0.74555 0.0
N116 N 0.22411 0.80947 0.74282 0.0
N117 N 0.17234 0.7908 0.73408 0.0
C118 C 0.20269 0.79346 0.73178 0.0
C119 C 0.17491 0.80585 0.74701 0.0
C120 C 0.20685 0.81737 0.75235 0.0
O121 O 0.26945 0.78134 0.73377 0.0
C122 C 0.2523 0.78482 0.77372 0.0
O123 O 0.22666 0.75999 0.76713 0.0
H124 H 0.20876 0.78273 0.72258 0.0
H125 H 0.21654 0.82971 0.76269 0.0
N126 N 0.30007 0.85729 0.73954 0.0
N127 N 0.35017 0.90356 0.73681 0.0
C128 C 0.33322 0.87227 0.74241 0.0
C129 C 0.29581 0.87971 0.73184 0.0
C130 C 0.32661 0.90825 0.73014 0.0
C131 C 0.2867 0.76751 0.73678 0.0
O132 O 0.30469 0.77588 0.74877 0.0
H133 H 0.3445 0.8606 0.74873 0.0
H134 H 0.27193 0.87561 0.72781 0.0
O135 O 0.27298 0.81004 0.76624 0.0
H136 H 0.155 0.80809 0.7523 0.0
H137 H 0.33127 0.93056 0.72431 0.0
Cu138 Cu 0.79428 0.57592 0.62395 0.0
N139 N 0.75925 0.58413 0.62831 0.0
N140 N 0.70821 0.57898 0.63002 0.0
C141 C 0.72607 0.56423 0.62592 0.0
C142 C 0.73114 0.6092 0.63522 0.0
C143 C 0.76249 0.61227 0.63415 0.0
O144 O 0.79593 0.57071 0.60295 0.0
C145 C 0.81092 0.52904 0.63475 0.0
O146 O 0.83869 0.5473 0.62727 0.0
H147 H 0.71539 0.53975 0.62103 0.0
H148 H 0.78608 0.63361 0.63734 0.0
N149 N 0.83525 0.61275 0.62946 0.0
N150 N 0.88423 0.64542 0.6406 0.0
C151 C 0.85476 0.61624 0.64109 0.0
C152 C 0.85276 0.64074 0.62149 0.0
C153 C 0.88291 0.66089 0.6283 0.0
C154 C 0.7791 0.54317 0.59626 0.0
O155 O 0.7593 0.51603 0.60375 0.0
H156 H 0.84808 0.59724 0.6494 0.0
H157 H 0.84441 0.64574 0.61124 0.0
O158 O 0.78781 0.5366 0.63446 0.0
H159 H 0.72568 0.6277 0.63963 0.0
H160 H 0.90247 0.68498 0.62442 0.0
Cu161 Cu 0.23073 0.77993 0.95936 0.0
N162 N 0.23236 0.8205 0.96295 0.0
N163 N 0.24706 0.87065 0.97229 0.0
C164 C 0.25385 0.84534 0.97174 0.0
C165 C 0.22036 0.86129 0.96345 0.0
C166 C 0.2114 0.83042 0.9577 0.0
O167 O 0.26456 0.77838 0.97147 0.0
C168 C 0.25839 0.80027 0.93094 0.0
O169 O 0.27811 0.82887 0.93737 0.0
H170 H 0.27353 0.84447 0.97786 0.0
H171 H 0.19086 0.816 0.95032 0.0
N172 N 0.18864 0.74508 0.96503 0.0
N173 N 0.14312 0.69447 0.96745 0.0
C174 C 0.17304 0.71299 0.96062 0.0
C175 C 0.16794 0.74698 0.97491 0.0
C176 C 0.13989 0.71588 0.97643 0.0
C177 C 0.28909 0.77532 0.96693 0.0
O178 O 0.29256 0.77216 0.95287 0.0
H179 H 0.18378 0.70332 0.95282 0.0
H180 H 0.17304 0.76944 0.98067 0.0
O181 O 0.23696 0.77581 0.93858 0.0
H182 H 0.20823 0.87579 0.96123 0.0
H183 H 0.11868 0.70961 0.98355 0.0
Cu184 Cu 0.46437 0.22137 0.29119 0.0
N185 N 0.42601 0.22368 0.29603 0.0
N186 N 0.39236 0.24061 0.30585 0.0
C187 C 0.42272 0.24254 0.30641 0.0
C188 C 0.37599 0.21961 0.29474 0.0
C189 C 0.39677 0.20919 0.28873 0.0
O190 O 0.50167 0.25685 0.3018 0.0
C191 C 0.49765 0.23774 0.26324 0.0
O192 O 0.52529 0.24621 0.27056 0.0
H193 H 0.44263 0.25838 0.31383 0.0
H194 H 0.39133 0.19289 0.27944 0.0
N195 N 0.45816 0.17957 0.29664 0.0
N196 N 0.46365 0.13414 0.29829 0.0
C197 C 0.47425 0.16388 0.29156 0.0
C198 C 0.4366 0.15909 0.30685 0.0
C199 C 0.43988 0.13109 0.30789 0.0
C200 C 0.5277 0.25604 0.30593 0.0
O201 O 0.53142 0.23058 0.30229 0.0
H202 H 0.49338 0.17416 0.28313 0.0
H203 H 0.41993 0.16438 0.31323 0.0
O204 O 0.47 0.2269 0.27011 0.0
H205 H 0.35086 0.21248 0.29115 0.0
H206 H 0.42642 0.11051 0.31543 0.0
Cu207 Cu 0.27019 0.46528 0.62443 0.0
N208 N 0.30269 0.4535 0.62878 0.0
N209 N 0.3525 0.45593 0.63071 0.0
C210 C 0.33595 0.47163 0.62607 0.0
C211 C 0.32851 0.42681 0.63657 0.0
C212 C 0.2979 0.42542 0.63536 0.0
O213 O 0.27429 0.47687 0.6037 0.0
C214 C 0.26037 0.51673 0.63618 0.0
O215 O 0.23605 0.50636 0.62658 0.0
H216 H 0.34761 0.49571 0.62068 0.0
H217 H 0.27385 0.40543 0.63911 0.0
N218 N 0.2273 0.42908 0.62821 0.0
N219 N 0.17596 0.39724 0.63765 0.0
C220 C 0.20615 0.42512 0.63929 0.0
C221 C 0.21003 0.40261 0.61943 0.0
C222 C 0.17828 0.38306 0.62517 0.0
C223 C 0.24995 0.47414 0.59602 0.0
O224 O 0.22077 0.46455 0.6023 0.0
H225 H 0.2123 0.44289 0.64806 0.0
H226 H 0.2196 0.39844 0.60932 0.0
O227 O 0.27812 0.50265 0.6368 0.0
H228 H 0.33273 0.40803 0.64162 0.0
H229 H 0.15834 0.3603 0.62049 0.0
Cu230 Cu 0.82225 0.25583 0.95828 0.0
N231 N 0.82139 0.2167 0.9644 0.0
N232 N 0.80819 0.16908 0.97607 0.0
C233 C 0.80009 0.19314 0.97386 0.0
C234 C 0.83567 0.17792 0.96774 0.0
C235 C 0.84369 0.20722 0.96055 0.0
O236 O 0.78629 0.25899 0.96799 0.0
C237 C 0.80131 0.26567 0.93025 0.0
O238 O 0.78553 0.27808 0.93765 0.0
H239 H 0.7796 0.19399 0.97931 0.0
H240 H 0.86453 0.22091 0.95311 0.0
N241 N 0.86311 0.29212 0.96409 0.0
N242 N 0.90852 0.34298 0.96607 0.0
C243 C 0.88027 0.3232 0.95839 0.0
C244 C 0.88089 0.29221 0.97573 0.0
C245 C 0.90877 0.32337 0.97699 0.0
C246 C 0.75568 0.23619 0.96713 0.0
O247 O 0.74755 0.21018 0.95878 0.0
H248 H 0.87207 0.33102 0.94886 0.0
H249 H 0.8737 0.27112 0.98295 0.0
O250 O 0.81842 0.25523 0.93709 0.0
H251 H 0.84887 0.16404 0.96682 0.0
H252 H 0.92724 0.33109 0.98559 0.0
Cu253 Cu 0.59241 0.82122 0.28818 0.0
N254 N 0.6298 0.81768 0.2937 0.0
N255 N 0.66255 0.80053 0.30424 0.0
C256 C 0.63274 0.79981 0.30471 0.0
C257 C 0.679 0.81985 0.2926 0.0
C258 C 0.65879 0.83035 0.28615 0.0
O259 O 0.55326 0.78875 0.29905 0.0
C260 C 0.55875 0.80064 0.26064 0.0
O261 O 0.53111 0.79173 0.26815 0.0
H262 H 0.6129 0.78542 0.3125 0.0
H263 H 0.6644 0.84546 0.27639 0.0
N264 N 0.60054 0.86437 0.29201 0.0
N265 N 0.59467 0.90958 0.29345 0.0
C266 C 0.5795 0.87661 0.29032 0.0
C267 C 0.62984 0.89034 0.2964 0.0
C268 C 0.62633 0.91821 0.29729 0.0
C269 C 0.54481 0.75802 0.29887 0.0
O270 O 0.56201 0.74841 0.29071 0.0
H271 H 0.5539 0.86183 0.28653 0.0
H272 H 0.65233 0.88914 0.29867 0.0
O273 O 0.58675 0.81339 0.26726 0.0
H274 H 0.70375 0.82567 0.28889 0.0
H275 H 0.64559 0.94287 0.30061 0.0
H276 H 0.2202 0.90645 0.98345 0.0
H277 H 0.24887 0.95789 0.99755 0.0
H278 H 0.34138 0.95538 0.99452 0.0
H279 H 0.31252 0.90345 0.98054 0.0
H280 H 0.33443 0.97237 0.02111 0.0
H281 H 0.32735 1.01008 0.97352 0.0
H282 H 0.3001 1.01176 0.95062 0.0
H283 H 0.23614 0.03812 0.97453 0.0
H284 H 0.26269 0.03614 0.99761 0.0
H285 H 0.43097 0.14002 0.04756 0.0
H286 H 0.40913 0.09132 0.03148 0.0
H287 H 0.30964 0.0782 0.03544 0.0
H288 H 0.33137 0.12706 0.05129 0.0
H289 H 0.32498 0.07121 1.00716 0.0
H290 H 0.33159 0.03013 0.055 0.0
H291 H 0.36056 0.02916 0.07748 0.0
H292 H 0.42844 1.01066 0.05215 0.0
H293 H 0.40013 1.01198 0.0295 0.0
C294 C 0.2467 0.91696 0.98567 0.0
C295 C 0.2641 0.90093 0.98075 0.0
C296 C 0.26313 0.94645 0.99374 0.0
C297 C 0.29751 0.96098 0.9969 0.0
C298 C 0.31488 0.94477 0.9922 0.0
C299 C 0.29834 0.91504 0.98423 0.0
C300 C 0.31506 0.99286 1.00522 0.0
C301 C 0.33283 0.99415 0.0179 0.0
C302 C 0.31278 0.0213 1.00118 0.0
C303 C 0.29684 0.02269 0.98731 0.0
C304 C 0.30731 1.01601 0.97391 0.0
C305 C 0.29201 1.01705 0.96089 0.0
C306 C 0.26635 0.02497 0.96112 0.0
C307 C 0.256 0.03196 0.97437 0.0
C308 C 0.27119 0.03092 0.98742 0.0
C309 C 0.40452 0.12699 0.04487 0.0
C310 C 0.38288 0.13737 0.05077 0.0
C311 C 0.39202 0.09899 0.03578 0.0
C312 C 0.35766 0.08089 0.03237 0.0
C313 C 0.3362 0.09169 0.03795 0.0
C314 C 0.34862 0.1195 0.04711 0.0
C315 C 0.34378 0.05044 0.02313 0.0
C316 C 0.32677 0.04947 1.01027 0.0
C317 C 0.34707 0.02247 0.02693 0.0
C318 C 0.36398 0.02152 0.04055 0.0
C319 C 0.35287 0.02613 0.05422 0.0
C320 C 0.36914 0.02547 0.06699 0.0
C321 C 0.39639 0.01996 0.06624 0.0
C322 C 0.40737 1.01499 0.05272 0.0
C323 C 0.39121 1.01567 0.03991 0.0
H324 H 0.40895 0.01945 0.07615 0.0
H325 H 0.25454 0.02576 0.95103 0.0
H326 H 0.2557 0.39682 0.3672 0.0
H327 H 0.28058 0.37237 0.35109 0.0
H328 H 0.31636 0.34324 0.38871 0.0
H329 H 0.29158 0.3675 0.40479 0.0
H330 H 0.36487 0.37292 0.36607 0.0
H331 H 0.24916 0.28618 0.37262 0.0
H332 H 0.18781 0.26296 0.37192 0.0
H333 H 0.19318 0.28271 0.32585 0.0
H334 H 0.25467 0.30648 0.32632 0.0
H335 H 0.40595 0.25747 0.33435 0.0
H336 H 0.38431 0.28637 0.34944 0.0
H337 H 0.33095 0.29401 0.31224 0.0
H338 H 0.35164 0.26415 0.29734 0.0
H339 H 0.29185 0.27737 0.3342 0.0
H340 H 0.4059 0.36251 0.32662 0.0
H341 H 0.46754 0.38776 0.32651 0.0
H342 H 0.46661 0.37469 0.37299 0.0
H343 H 0.40489 0.34893 0.37335 0.0
C344 C 0.26902 0.38535 0.372 0.0
C345 C 0.27141 0.38383 0.38726 0.0
C346 C 0.28311 0.3713 0.36281 0.0
C347 C 0.30019 0.35583 0.36871 0.0
C348 C 0.30327 0.355 0.38392 0.0
C349 C 0.28883 0.36861 0.3931 0.0
C350 C 0.31419 0.33977 0.3591 0.0
C351 C 0.34894 0.35182 0.35919 0.0
C352 C 0.2935 0.31286 0.34984 0.0
C353 C 0.25654 0.29843 0.34953 0.0
C354 C 0.23729 0.28583 0.36236 0.0
C355 C 0.20249 0.27252 0.362 0.0
C356 C 0.18661 0.27145 0.34885 0.0
C357 C 0.20551 0.2836 0.33603 0.0
C358 C 0.24033 0.29698 0.33633 0.0
C359 C 0.38979 0.26554 0.3294 0.0
C360 C 0.38045 0.25849 0.31467 0.0
C361 C 0.3775 0.2822 0.33801 0.0
C362 C 0.35628 0.29291 0.33198 0.0
C363 C 0.34715 0.286 0.31722 0.0
C364 C 0.35897 0.26888 0.30869 0.0
C365 C 0.34278 0.31043 0.34109 0.0
C366 C 0.30802 0.29861 0.34096 0.0
C367 C 0.36359 0.3379 0.35015 0.0
C368 C 0.40073 0.35349 0.34999 0.0
C369 C 0.41881 0.3648 0.3368 0.0
C370 C 0.45377 0.37924 0.3367 0.0
C371 C 0.47097 0.38274 0.34973 0.0
C372 C 0.45325 0.37191 0.3629 0.0
C373 C 0.41828 0.35742 0.36306 0.0
H374 H 0.49804 0.39392 0.34962 0.0
H375 H 0.15967 0.26113 0.3486 0.0
H376 H 0.88385 0.265 0.70062 0.0
H377 H 0.93354 0.29445 0.68485 0.0
H378 H 0.99654 0.29682 0.72019 0.0
H379 H 0.94719 0.26783 0.736 0.0
H380 H 1.02353 0.3574 0.70515 0.0
H381 H 0.97501 0.23961 0.69412 0.0
H382 H 0.92919 0.18438 0.68656 0.0
H383 H 0.92132 0.22583 0.64572 0.0
H384 H 0.96683 0.28143 0.65314 0.0
H385 H 0.1737 0.39541 0.66714 0.0
H386 H 0.12334 0.37232 0.68262 0.0
H387 H 0.06179 0.35122 0.64417 0.0
H388 H 0.11202 0.37247 0.62878 0.0
H389 H 0.03238 0.30164 0.66049 0.0
H390 H 0.08073 0.41836 0.66999 0.0
H391 H 0.12492 0.47495 0.67693 0.0
H392 H 0.13113 0.43892 0.71942 0.0
H393 H 0.08729 0.38201 0.71267 0.0
C394 C 0.90831 0.27205 0.70506 0.0
C395 C 0.91148 0.26376 0.71953 0.0
C396 C 0.93667 0.28873 0.69602 0.0
C397 C 0.96875 0.2976 0.70131 0.0
C398 C 0.97206 0.29016 0.71586 0.0
C399 C 0.94375 0.27328 0.72484 0.0
C400 C 0.99885 0.31372 0.69163 0.0
C401 C 1.02567 0.34518 0.69543 0.0
C402 C 1.00122 0.29818 0.67874 0.0
C403 C 0.97408 0.26471 0.67424 0.0
C404 C 0.96334 0.23699 0.68358 0.0
C405 C 0.93745 0.20561 0.67931 0.0
C406 C 0.92229 0.20162 0.66568 0.0
C407 C 0.93305 0.22897 0.65628 0.0
C408 C 0.95891 0.26041 0.66051 0.0
C409 C 0.14937 0.38602 0.66208 0.0
C410 C 0.14665 0.38563 0.6468 0.0
C411 C 0.12055 0.373 0.6709 0.0
C412 C 0.08851 0.36039 0.66464 0.0
C413 C 0.08602 0.3606 0.64934 0.0
C414 C 0.11471 0.3728 0.64053 0.0
C415 C 0.05748 0.34567 0.67391 0.0
C416 C 0.03039 0.31428 0.67009 0.0
C417 C 0.05468 0.36161 0.68664 0.0
C418 C 0.08092 0.39585 0.69077 0.0
C419 C 0.09167 0.42246 0.68078 0.0
C420 C 0.11664 0.4546 0.68469 0.0
C421 C 0.13088 0.46051 0.6986 0.0
C422 C 0.1201 0.4343 0.70865 0.0
C423 C 0.09517 0.4021 0.70479 0.0
H424 H 0.15021 0.4854 0.7016 0.0
H425 H 0.90225 0.17731 0.6624 0.0
H426 H 0.72596 0.91921 0.05891 0.0
H427 H 0.74662 0.97088 0.04531 0.0
H428 H 0.64618 0.93981 0.03059 0.0
H429 H 0.62535 0.88689 0.04354 0.0
H430 H 0.68727 0.96656 1.0088 0.0
H431 H 0.68631 1.00121 0.05744 0.0
H432 H 0.6973 1.00674 0.08392 0.0
H433 H 0.80354 0.05886 0.07563 0.0
H434 H 0.79321 0.05323 0.04909 0.0
H435 H 0.7414 0.13254 0.98166 0.0
H436 H 0.71262 0.08186 0.99678 0.0
H437 H 0.80792 0.08941 1.00668 0.0
H438 H 0.83667 0.13981 0.99153 0.0
H439 H 0.76431 0.07591 0.03147 0.0
H440 H 0.76219 0.03624 0.98222 0.0
H441 H 0.7488 0.03146 0.95596 0.0
H442 H 0.64411 0.98996 0.96619 0.0
H443 H 0.65697 0.99495 0.99253 0.0
C444 C 0.70807 0.92293 0.05273 0.0
C445 C 0.6738 0.89836 0.05241 0.0
C446 C 0.71998 0.95295 0.04507 0.0
C447 C 0.69795 0.95968 0.03709 0.0
C448 C 0.66373 0.93536 0.03672 0.0
C449 C 0.65178 0.90508 0.04427 0.0
C450 C 0.711 0.99166 0.02881 0.0
C451 C 0.70358 0.99048 1.01386 0.0
C452 C 0.73257 0.02304 0.0353 0.0
C453 C 0.73896 0.02655 0.05126 0.0
C454 C 0.71202 1.01363 0.06126 0.0
C455 C 0.71814 1.01682 0.07628 0.0
C456 C 0.7511 0.03308 0.08146 0.0
C457 C 0.77802 0.04625 0.07161 0.0
C458 C 0.77205 0.0431 0.05657 0.0
C459 C 0.75617 0.1235 0.98716 0.0
C460 C 0.79127 0.14004 0.98537 0.0
C461 C 0.73972 0.0945 0.99573 0.0
C462 C 0.75815 0.08182 1.0028 0.0
C463 C 0.79324 0.09876 1.00131 0.0
C464 C 0.80961 0.1274 0.99258 0.0
C465 C 0.74098 0.05052 1.01153 0.0
C466 C 0.74766 0.05192 0.02653 0.0
C467 C 0.71832 0.01947 1.00515 0.0
C468 C 0.71059 1.01634 0.98933 0.0
C469 C 0.73635 0.02639 0.97887 0.0
C470 C 0.72885 0.02358 0.96397 0.0
C471 C 0.69564 1.01051 0.95941 0.0
C472 C 0.66984 1.00013 0.96974 0.0
C473 C 0.67721 1.00293 0.98465 0.0
H474 H 0.68988 1.00835 0.94787 0.0
H475 H 0.75578 0.03552 0.09309 0.0
H476 H 0.64754 0.78431 0.33287 0.0
H477 H 0.66682 0.7538 0.3484 0.0
H478 H 0.72174 0.74521 0.31197 0.0
H479 H 0.70253 0.77546 0.29646 0.0
H480 H 0.68391 0.68541 0.3271 0.0
H481 H 0.7635 0.80042 0.33765 0.0
H482 H 0.78051 0.85784 0.3453 0.0
H483 H 0.73284 0.82127 0.38698 0.0
H484 H 0.71513 0.76355 0.37949 0.0
H485 H 0.78469 0.63141 0.36561 0.0
H486 H 0.76011 0.65643 0.34969 0.0
H487 H 0.72473 0.68513 0.38771 0.0
H488 H 0.75027 0.66134 0.40346 0.0
H489 H 0.75219 0.73521 0.37147 0.0
H490 H 0.67052 0.621 0.36164 0.0
H491 H 0.64456 0.56254 0.35345 0.0
H492 H 0.68999 0.59532 0.31113 0.0
H493 H 0.71639 0.65397 0.31909 0.0
C494 C 0.66363 0.77581 0.32818 0.0
C495 C 0.67366 0.7825 0.31345 0.0
C496 C 0.6748 0.75857 0.33708 0.0
C497 C 0.69594 0.74744 0.33137 0.0
C498 C 0.70556 0.75367 0.31662 0.0
C499 C 0.69475 0.77119 0.3078 0.0
C500 C 0.70784 0.72896 0.34066 0.0
C501 C 0.69922 0.69635 0.33672 0.0
C502 C 0.72693 0.74295 0.35342 0.0
C503 C 0.7377 0.77764 0.35795 0.0
C504 C 0.7564 0.8046 0.3484 0.0
C505 C 0.76621 0.8372 0.35272 0.0
C506 C 0.75768 0.84319 0.3666 0.0
C507 C 0.73939 0.81659 0.37622 0.0
C508 C 0.72948 0.78393 0.37195 0.0
C509 C 0.77122 0.64266 0.37049 0.0
C510 C 0.76972 0.64476 0.38576 0.0
C511 C 0.75701 0.65686 0.3614 0.0
C512 C 0.74038 0.6728 0.36743 0.0
C513 C 0.73767 0.67343 0.38271 0.0
C514 C 0.75229 0.6598 0.39174 0.0
C515 C 0.72804 0.69105 0.35805 0.0
C516 C 0.73678 0.72391 0.36191 0.0
C517 C 0.70865 0.67706 0.34529 0.0
C518 C 0.69566 0.64184 0.34101 0.0
C519 C 0.67544 0.61572 0.35067 0.0
C520 C 0.66044 0.58256 0.34603 0.0
C521 C 0.66546 0.57527 0.33174 0.0
C522 C 0.68601 0.60104 0.32216 0.0
C523 C 0.70099 0.63421 0.32673 0.0
H524 H 0.65346 0.54965 0.32807 0.0
H525 H 0.76531 0.86845 0.36992 0.0
H526 H 0.95023 0.68396 0.63397 0.0
H527 H 0.99766 0.70492 0.65075 0.0
H528 H 0.92973 0.65411 0.68655 0.0
H529 H 0.88189 0.63309 0.66973 0.0
H530 H 0.97793 0.72128 0.69257 0.0
H531 H 0.97506 0.62286 0.67417 0.0
H532 H 0.9732 0.58443 0.65507 0.0
H533 H 0.06713 0.66132 0.63762 0.0
H534 H 0.06932 0.70039 0.65649 0.0
H535 H 0.10766 0.7561 0.7432 0.0
H536 H 0.05752 0.7279 0.72801 0.0
H537 H 0.11975 0.75949 0.68928 0.0
H538 H 0.17006 0.78676 0.70456 0.0
H539 H 0.0721 0.6989 0.68554 0.0
H540 H 0.0741 0.79843 0.70218 0.0
H541 H 0.07634 0.8388 0.72037 0.0
H542 H 0.98498 0.76263 0.74003 0.0
H543 H 0.98242 0.72168 0.72206 0.0
C544 C 0.94529 0.67734 0.64542 0.0
C545 C 0.91222 0.65699 0.65052 0.0
C546 C 0.97249 0.68912 0.65498 0.0
C547 C 0.96728 0.68096 0.66989 0.0
C548 C 0.93432 0.66067 0.67507 0.0
C549 C 0.90704 0.64853 0.66545 0.0
C550 C 0.99636 0.69437 0.68003 0.0
C551 C 0.99828 0.71595 0.69121 0.0
C552 C 1.02333 0.68816 0.67798 0.0
C553 C 1.0222 0.66464 0.66668 0.0
C554 C 0.99519 0.63167 0.66619 0.0
C555 C 0.9941 0.60975 0.65542 0.0
C556 C 1.02 0.62045 0.64512 0.0
C557 C 0.04708 0.65307 0.6456 0.0
C558 C 0.04827 0.67511 0.65634 0.0
C559 C 0.11062 0.75716 0.73145 0.0
C560 C 0.1428 0.77391 0.72507 0.0
C561 C 0.0819 0.74107 0.72275 0.0
C562 C 0.08462 0.74206 0.70743 0.0
C563 C 0.11684 0.75835 0.70105 0.0
C564 C 0.14562 0.77397 0.70978 0.0
C565 C 0.05399 0.72622 0.69807 0.0
C566 C 0.05174 0.70417 0.687 0.0
C567 C 1.02686 0.73231 0.70011 0.0
C568 C 0.02827 0.75692 0.71087 0.0
C569 C 0.05462 0.79024 0.71045 0.0
C570 C 0.05592 0.81323 0.7207 0.0
C571 C 0.03087 0.80327 0.73137 0.0
C572 C 1.00439 0.7703 0.73177 0.0
C573 C 1.00299 0.7472 0.72155 0.0
H574 H 0.03193 0.8211 0.7393 0.0
H575 H 1.01911 0.60345 0.63679 0.0
H576 H 0.69293 0.18523 0.97394 0.0
H577 H 0.65232 0.18648 0.99081 0.0
H578 H 0.71942 0.29156 0.99816 0.0
H579 H 0.76073 0.29012 0.9817 0.0
H580 H 0.69581 0.26333 0.02291 0.0
H581 H 0.64544 0.26083 0.97725 0.0
H582 H 0.62342 0.24102 0.95254 0.0
H583 H 0.54967 0.14617 0.97021 0.0
H584 H 0.57155 0.16524 0.99502 0.0
H585 H 0.56734 0.2876 0.05679 0.0
H586 H 0.60944 0.28975 0.03959 0.0
H587 H 0.56064 0.18226 0.04014 0.0
H588 H 0.51888 0.17989 0.05753 0.0
H589 H 0.57487 0.21407 1.01124 0.0
H590 H 0.62861 0.21954 0.05735 0.0
H591 H 0.65076 0.24301 0.08164 0.0
H592 H 0.71852 0.33783 0.06205 0.0
H593 H 0.6964 0.31504 0.03764 0.0
C594 C 0.69891 0.20869 0.97903 0.0
C595 C 0.73002 0.2376 0.97646 0.0
C596 C 0.67558 0.20942 0.98865 0.0
C597 C 0.68252 0.23923 0.99565 0.0
C598 C 0.71343 0.26824 0.99293 0.0
C599 C 0.73699 0.26742 0.98347 0.0
C600 C 0.65812 0.23979 1.00624 0.0
C601 C 0.66949 0.25303 0.02023 0.0
C602 C 0.62359 0.22599 1.00289 0.0
C603 C 0.61036 0.21437 0.98799 0.0
C604 C 0.6247 0.23565 0.97586 0.0
C605 C 0.61221 0.22457 0.96183 0.0
C606 C 0.58522 0.19233 0.9598 0.0
C607 C 0.57061 0.17112 0.9718 0.0
C608 C 0.58302 0.18207 0.98585 0.0
C609 C 0.56576 0.26445 0.05334 0.0
C610 C 0.53988 0.23358 0.05854 0.0
C611 C 0.58981 0.26573 0.04353 0.0
C612 C 0.58806 0.23616 0.03861 0.0
C613 C 0.56235 0.20533 0.04382 0.0
C614 C 0.53866 0.20405 0.05382 0.0
C615 C 0.61266 0.23731 0.02779 0.0
C616 C 0.60127 0.22445 1.0138 0.0
C617 C 0.64722 0.252 0.03103 0.0
C618 C 0.66058 0.26569 0.04569 0.0
C619 C 0.648 0.24549 0.05823 0.0
C620 C 0.6606 0.25864 0.07202 0.0
C621 C 0.68596 0.29192 0.07339 0.0
C622 C 0.69884 0.31208 0.06097 0.0
C623 C 0.68629 0.29905 0.04716 0.0
H624 H 0.6957 0.30205 0.08407 0.0
H625 H 0.57558 0.1838 0.94894 0.0
H626 H 0.36076 0.52072 0.38589 0.0
H627 H 0.40047 0.56486 0.36976 0.0
H628 H 0.34127 0.61368 0.37219 0.0
H629 H 0.30056 0.56866 0.38798 0.0
H630 H 0.3601 0.61529 0.34538 0.0
H631 H 0.41803 0.64393 0.3906 0.0
H632 H 0.44138 0.63545 0.41337 0.0
H633 H 0.50526 0.61047 0.38857 0.0
H634 H 0.48196 0.61834 0.36563 0.0
H635 H 0.49666 0.76558 0.31335 0.0
H636 H 0.45401 0.72622 0.33048 0.0
H637 H 0.49017 0.6571 0.32398 0.0
H638 H 0.53244 0.69593 0.30673 0.0
H639 H 0.4829 0.67064 0.35393 0.0
H640 H 0.42057 0.64017 0.30857 0.0
H641 H 0.39737 0.65146 0.28642 0.0
H642 H 0.34229 0.6846 0.31288 0.0
H643 H 0.36557 0.67394 0.33519 0.0
C644 C 0.35624 0.54094 0.38309 0.0
C645 C 0.32757 0.54126 0.38829 0.0
C646 C 0.37911 0.56631 0.37389 0.0
C647 C 0.3743 0.59304 0.36994 0.0
C648 C 0.34564 0.59342 0.37511 0.0
C649 C 0.32244 0.56773 0.38417 0.0
C650 C 0.39879 0.61993 0.36009 0.0
C651 C 0.3869 0.6278 0.34742 0.0
C652 C 0.43387 0.63619 0.36262 0.0
C653 C 0.44803 0.63147 0.37639 0.0
C654 C 0.43688 0.63639 0.39 0.0
C655 C 0.45013 0.63173 0.40294 0.0
C656 C 0.47473 0.62236 0.40242 0.0
C657 C 0.48618 0.6177 0.38895 0.0
C658 C 0.47299 0.6223 0.37598 0.0
C659 C 0.49536 0.7419 0.3155 0.0
C660 C 0.5179 0.73384 0.30867 0.0
C661 C 0.47097 0.71945 0.32526 0.0
C662 C 0.46899 0.68879 0.32847 0.0
C663 C 0.49135 0.68067 0.32164 0.0
C664 C 0.51537 0.70283 0.31174 0.0
C665 C 0.44415 0.66533 0.3392 0.0
C666 C 0.45604 0.65825 0.35203 0.0
C667 C 0.40914 0.65028 0.33694 0.0
C668 C 0.39513 0.65664 0.32353 0.0
C669 C 0.40377 0.65017 0.30966 0.0
C670 C 0.39055 0.65639 0.29708 0.0
C671 C 0.36846 0.66884 0.29824 0.0
C672 C 0.35946 0.67501 0.31199 0.0
C673 C 0.37264 0.66887 0.32461 0.0
H674 H 0.35824 0.67363 0.28848 0.0
H675 H 0.48497 0.61877 0.41245 0.0
H676 H 0.75161 0.28187 0.7216 0.0
H677 H 0.74895 0.32204 0.70499 0.0
H678 H 0.85531 0.38885 0.71053 0.0
H679 H 0.85774 0.34951 0.72761 0.0
H680 H 0.8268 0.42404 0.70988 0.0
H681 H 0.81994 0.33647 0.67961 0.0
H682 H 0.79748 0.2786 0.6711 0.0
H683 H 0.70213 0.27123 0.66247 0.0
H684 H 0.72392 0.32895 0.67112 0.0
H685 H 0.86137 0.51923 0.64455 0.0
H686 H 0.85716 0.47693 0.66188 0.0
H687 H 0.74981 0.43525 0.6642 0.0
H688 H 0.75382 0.47798 0.64701 0.0
H689 H 0.77555 0.38722 0.66092 0.0
H690 H 0.78749 0.47906 0.69061 0.0
H691 H 0.815 0.53853 0.69739 0.0
H692 H 0.90729 0.53888 0.70534 0.0
H693 H 0.88044 0.4795 0.69839 0.0
C694 C 0.77436 0.30523 0.71934 0.0
C695 C 0.8049 0.31247 0.72589 0.0
C696 C 0.77288 0.32811 0.70976 0.0
C697 C 0.80207 0.35831 0.70624 0.0
C698 C 0.83242 0.36579 0.71303 0.0
C699 C 0.83379 0.34321 0.7228 0.0
C700 C 0.80127 0.38201 0.69539 0.0
C701 C 0.81582 0.4159 0.69915 0.0
C702 C 0.78661 0.37157 0.68139 0.0
C703 C 0.77344 0.33688 0.67617 0.0
C704 C 0.79411 0.32241 0.676 0.0
C705 C 0.78151 0.28966 0.67114 0.0
C706 C 0.74837 0.27122 0.66629 0.0
C707 C 0.72778 0.28553 0.66626 0.0
C708 C 0.74024 0.31826 0.67113 0.0
C709 C 0.83681 0.50091 0.64863 0.0
C710 C 0.80792 0.50198 0.64444 0.0
C711 C 0.83448 0.47684 0.65856 0.0
C712 C 0.8032 0.45313 0.66434 0.0
C713 C 0.77416 0.45338 0.65984 0.0
C714 C 0.77652 0.47784 0.65007 0.0
C715 C 0.80119 0.42887 0.67546 0.0
C716 C 0.78621 0.39505 0.67173 0.0
C717 C 0.81606 0.43943 0.68935 0.0
C718 C 0.83203 0.47492 0.69386 0.0
C719 C 0.81371 0.49188 0.69371 0.0
C720 C 0.82917 0.52556 0.6976 0.0
C721 C 0.8629 0.5425 0.70176 0.0
C722 C 0.88118 0.52574 0.7021 0.0
C723 C 0.86584 0.49206 0.6982 0.0
H724 H 0.87484 0.56859 0.70474 0.0
H725 H 0.73866 0.24587 0.66252 0.0
H726 H 0.34481 0.76981 0.96127 0.0
H727 H 0.3857 0.77153 0.97884 0.0
H728 H 0.33021 0.78386 1.01404 0.0
H729 H 0.2895 0.78259 0.99657 0.0
H730 H 0.39693 0.82646 1.01662 0.0
H731 H 0.3252 0.70869 1.00795 0.0
H732 H 0.29625 0.65828 0.99269 0.0
H733 H 0.3912 0.67521 0.97625 0.0
H734 H 0.4207 0.72599 0.99128 0.0
H735 H 0.48158 0.79837 0.07501 0.0
H736 H 0.43887 0.79524 0.05812 0.0
H737 H 0.48587 0.77129 0.02289 0.0
H738 H 0.52755 0.7729 0.03982 0.0
H739 H 0.42235 0.7342 0.02052 0.0
H740 H 0.49463 0.85188 0.02814 0.0
H741 H 0.52495 0.90349 0.04257 0.0
H742 H 0.43147 0.88866 0.05991 0.0
H743 H 0.4006 0.83671 0.04572 0.0
C744 C 0.34125 0.77281 0.97275 0.0
C745 C 0.31379 0.77593 0.97751 0.0
C746 C 0.3646 0.77369 0.98279 0.0
C747 C 0.36083 0.77749 0.99778 0.0
C748 C 0.33361 0.78088 1.00254 0.0
C749 C 0.31028 0.78002 0.99252 0.0
C750 C 0.38535 0.77816 1.00853 0.0
C751 C 0.40221 0.80611 1.01762 0.0
C752 C 0.39283 0.75199 1.00958 0.0
C753 C 0.37513 0.7213 1.00064 0.0
C754 C 0.33989 0.70179 1.001 0.0
C755 C 0.32339 0.67313 0.99241 0.0
C756 C 0.34187 0.66359 0.98348 0.0
C757 C 0.37691 0.68264 0.98316 0.0
C758 C 0.39353 0.71134 0.99173 0.0
C759 C 0.48274 0.7924 0.06367 0.0
C760 C 0.50795 0.78592 0.05875 0.0
C761 C 0.45842 0.79081 0.05399 0.0
C762 C 0.45938 0.78357 0.03913 0.0
C763 C 0.48448 0.77689 0.03427 0.0
C764 C 0.50837 0.77788 0.04398 0.0
C765 C 0.43424 0.78266 0.02862 0.0
C766 C 0.41717 0.75462 0.01957 0.0
C767 C 0.42684 0.80893 0.0275 0.0
C768 C 0.44534 0.84024 0.03598 0.0
C769 C 0.48056 0.85951 0.03511 0.0
C770 C 0.49784 0.88884 0.04323 0.0
C771 C 0.48016 0.8993 0.05218 0.0
C772 C 0.44514 0.8805 0.05299 0.0
C773 C 0.42774 0.85113 0.0449 0.0
H774 H 0.49358 0.92201 0.05846 0.0
H775 H 0.32905 0.6414 0.97683 0.0
H776 H 0.58852 0.26515 0.31496 0.0
H777 H 0.62819 0.3076 0.33169 0.0
H778 H 0.56237 0.3488 0.33572 0.0
H779 H 0.52304 0.30702 0.31874 0.0
H780 H 0.62491 0.39743 0.33334 0.0
H781 H 0.56717 0.29724 0.36242 0.0
H782 H 0.54691 0.23818 0.36853 0.0
H783 H 0.64856 0.25761 0.37004 0.0
H784 H 0.66941 0.31672 0.36375 0.0
H785 H 0.6858 0.49072 0.39762 0.0
H786 H 0.64875 0.44343 0.38222 0.0
H787 H 0.73019 0.42505 0.37286 0.0
H788 H 0.76763 0.47253 0.3882 0.0
H789 H 0.66253 0.36461 0.37806 0.0
H790 H 0.71953 0.46333 0.34744 0.0
H791 H 0.74041 0.52344 0.34369 0.0
H792 H 0.63953 0.50602 0.3468 0.0
H793 H 0.61819 0.44589 0.35052 0.0
C794 C 0.58255 0.28333 0.31936 0.0
C795 C 0.55254 0.28261 0.31554 0.0
C796 C 0.60518 0.30749 0.32899 0.0
C797 C 0.59804 0.3311 0.33517 0.0
C798 C 0.56843 0.33083 0.33113 0.0
C799 C 0.54593 0.30687 0.32142 0.0
C800 C 0.62129 0.35609 0.34586 0.0
C801 C 0.6328 0.39005 0.34315 0.0
C802 C 0.6323 0.34677 0.35857 0.0
C803 C 0.61982 0.31132 0.36247 0.0
C804 C 0.58519 0.28886 0.36396 0.0
C805 C 0.5736 0.25539 0.36747 0.0
C806 C 0.59643 0.24413 0.36963 0.0
C807 C 0.63091 0.26635 0.36834 0.0
C808 C 0.64262 0.29985 0.36482 0.0
C809 C 0.69578 0.4764 0.39246 0.0
C810 C 0.72975 0.4856 0.39402 0.0
C811 C 0.67455 0.44934 0.38369 0.0
C812 C 0.68681 0.43085 0.3764 0.0
C813 C 0.72026 0.43894 0.37847 0.0
C814 C 0.74163 0.46622 0.38714 0.0
C815 C 0.66555 0.40543 0.36551 0.0
C816 C 0.6546 0.37165 0.36817 0.0
C817 C 0.65499 0.41472 0.35275 0.0
C818 C 0.66731 0.45026 0.34926 0.0
C819 C 0.70184 0.47238 0.34721 0.0
C820 C 0.71376 0.50643 0.34511 0.0
C821 C 0.69136 0.5186 0.34501 0.0
C822 C 0.65691 0.49664 0.34681 0.0
C823 C 0.64485 0.46253 0.34885 0.0
H824 H 0.7008 0.54505 0.34359 0.0
H825 H 0.58741 0.2182 0.37234 0.0
H826 H 0.23252 0.55698 0.63563 0.0
H827 H 0.24099 0.60059 0.65298 0.0
H828 H 0.30941 0.58113 0.67758 0.0
H829 H 0.30113 0.53739 0.66022 0.0
H830 H 0.26262 0.58599 0.69513 0.0
H831 H 0.34062 0.64914 0.6572 0.0
H832 H 0.3592 0.66775 0.63191 0.0
H833 H 0.28927 0.70358 0.62866 0.0
H834 H 0.2699 0.68473 0.65388 0.0
H835 H 0.31838 0.73077 0.74001 0.0
H836 H 0.31711 0.68887 0.72325 0.0
H837 H 0.25257 0.7048 0.69421 0.0
H838 H 0.25392 0.74677 0.71075 0.0
H839 H 0.30173 0.70251 0.67929 0.0
H840 H 0.22122 0.6366 0.71635 0.0
H841 H 0.20121 0.61717 0.74143 0.0
H842 H 0.27452 0.58595 0.74616 0.0
H843 H 0.29528 0.60563 0.72115 0.0
C844 C 0.24947 0.56201 0.64469 0.0
C845 C 0.26621 0.54374 0.64651 0.0
C846 C 0.25436 0.58703 0.65458 0.0
C847 C 0.27602 0.59427 0.66651 0.0
C848 C 0.29264 0.57597 0.66843 0.0
C849 C 0.28797 0.55109 0.65847 0.0
C850 C 0.28078 0.62059 0.67707 0.0
C851 C 0.27174 0.61162 0.69174 0.0
C852 C 0.292 0.65383 0.67256 0.0
C853 C 0.3036 0.66524 0.65739 0.0
C854 C 0.329 0.66073 0.65105 0.0
C855 C 0.33971 0.67137 0.63674 0.0
C856 C 0.32537 0.68677 0.62867 0.0
C857 C 0.30033 0.69162 0.63492 0.0
C858 C 0.28949 0.68099 0.64923 0.0
C859 C 0.30392 0.72536 0.73005 0.0
C860 C 0.28622 0.74212 0.72674 0.0
C861 C 0.30313 0.70131 0.72051 0.0
C862 C 0.28454 0.69352 0.70752 0.0
C863 C 0.26711 0.71042 0.70415 0.0
C864 C 0.26784 0.73436 0.71367 0.0
C865 C 0.28319 0.66786 0.69734 0.0
C866 C 0.29288 0.67696 0.68273 0.0
C867 C 0.27243 0.6347 0.7019 0.0
C868 C 0.26007 0.62296 0.71695 0.0
C869 C 0.23328 0.62588 0.72279 0.0
C870 C 0.22176 0.61477 0.73698 0.0
C871 C 0.23666 0.60044 0.7454 0.0
C872 C 0.26306 0.59712 0.73963 0.0
C873 C 0.2747 0.60824 0.72545 0.0
H874 H 0.22769 0.59183 0.75638 0.0
H875 H 0.33371 0.695 0.61759 0.0
H876 H 0.44574 0.23867 0.12492 0.0
H877 H 0.44661 0.23497 0.15153 0.0
H878 H 0.55467 0.2822 0.15053 0.0
H879 H 0.55405 0.28582 0.12387 0.0
H880 H 0.52677 0.22827 0.16885 0.0
H881 H 0.51727 0.32596 0.1608 0.0
H882 H 0.49256 0.35816 0.15044 0.0
H883 H 0.39884 0.29306 0.17186 0.0
H884 H 0.42286 0.26017 0.18219 0.0
H885 H 0.55241 0.26197 0.245 0.0
H886 H 0.55347 0.26712 0.21839 0.0
H887 H 0.44593 0.22521 0.2182 0.0
H888 H 0.44471 0.22053 0.2448 0.0
H889 H 0.47468 0.27743 0.20039 0.0
H890 H 0.48283 0.17904 0.20805 0.0
H891 H 0.50633 0.14559 0.21823 0.0
H892 H 0.60103 0.21034 0.19745 0.0
H893 H 0.57821 0.24447 0.18731 0.0
C894 C 0.46973 0.24833 0.13034 0.0
C895 C 0.49985 0.26265 0.12223 0.0
C896 C 0.47018 0.24629 0.14557 0.0
C897 C 0.50073 0.2586 0.15305 0.0
C898 C 0.53081 0.27258 0.145 0.0
C899 C 0.5304 0.27473 0.12975 0.0
C900 C 0.50125 0.25671 0.16927 0.0
C901 C 0.51583 0.23944 0.17576 0.0
C902 C 0.48623 0.27057 0.17828 0.0
C903 C 0.47178 0.29042 0.17216 0.0
C904 C 0.49131 0.31836 0.16321 0.0
C905 C 0.47744 0.33676 0.15736 0.0
C906 C 0.44413 0.32761 0.16046 0.0
C907 C 0.42464 0.30009 0.16945 0.0
C908 C 0.43837 0.28158 0.17532 0.0
C909 C 0.52896 0.2538 0.23931 0.0
C910 C 0.49847 0.24076 0.24706 0.0
C911 C 0.52959 0.25664 0.22406 0.0
C912 C 0.49972 0.24622 0.21624 0.0
C913 C 0.4693 0.23343 0.22397 0.0
C914 C 0.46865 0.23067 0.2392 0.0
C915 C 0.50012 0.24888 0.20001 0.0
C916 C 0.4857 0.26631 0.1935 0.0
C917 C 0.51514 0.23501 0.19098 0.0
C918 C 0.52891 0.21451 0.19705 0.0
C919 C 0.50875 0.18631 0.20575 0.0
C920 C 0.52193 0.1672 0.21149 0.0
C921 C 0.55518 0.17589 0.20852 0.0
C922 C 0.57529 0.20367 0.19976 0.0
C923 C 0.56224 0.22289 0.194 0.0
H924 H 0.56534 0.16106 0.21297 0.0
H925 H 0.43343 0.34189 0.15592 0.0
H926 H 0.21552 0.48001 0.45624 0.0
H927 H 0.21465 0.48214 0.48294 0.0
H928 H 0.31269 0.49103 0.48443 0.0
H929 H 0.31346 0.48827 0.45782 0.0
H930 H 0.27259 0.44641 0.5037 0.0
H931 H 0.30077 0.5583 0.49122 0.0
H932 H 0.29384 0.60191 0.47881 0.0
H933 H 0.19804 0.56599 0.49974 0.0
H934 H 0.2042 0.52186 0.51213 0.0
H935 H 0.30422 0.48712 0.57882 0.0
H936 H 0.30828 0.49168 0.55216 0.0
H937 H 0.20792 0.47688 0.55018 0.0
H938 H 0.20373 0.47257 0.57679 0.0
H939 H 0.25 0.52554 0.53128 0.0
H940 H 0.22146 0.41301 0.54324 0.0
H941 H 0.22843 0.36946 0.55568 0.0
H942 H 0.32535 0.40697 0.53561 0.0
H943 H 0.31914 0.45106 0.52319 0.0
C944 C 0.237 0.48265 0.46225 0.0
C945 C 0.26456 0.48398 0.45487 0.0
C946 C 0.23652 0.48399 0.47752 0.0
C947 C 0.26375 0.48705 0.48573 0.0
C948 C 0.29137 0.48864 0.47836 0.0
C949 C 0.2918 0.48715 0.46312 0.0
C950 C 0.26309 0.48751 0.502 0.0
C951 C 0.26817 0.46408 0.50971 0.0
C952 C 0.25653 0.51001 0.50989 0.0
C953 C 0.25281 0.53658 0.50249 0.0
C954 C 0.27811 0.55954 0.49309 0.0
C955 C 0.27434 0.58438 0.48607 0.0
C956 C 0.24548 0.58666 0.48845 0.0
C957 C 0.22036 0.56416 0.49789 0.0
C958 C 0.22399 0.53925 0.50492 0.0
C959 C 0.2831 0.4851 0.57273 0.0
C960 C 0.25357 0.47927 0.57996 0.0
C961 C 0.28541 0.48758 0.55748 0.0
C962 C 0.25824 0.48421 0.54915 0.0
C963 C 0.22918 0.4795 0.55637 0.0
C964 C 0.22681 0.47693 0.5716 0.0
C965 C 0.25964 0.48456 0.53291 0.0
C966 C 0.25459 0.50802 0.52523 0.0
C967 C 0.26626 0.46212 0.52502 0.0
C968 C 0.26999 0.43554 0.53241 0.0
C969 C 0.24437 0.41213 0.54157 0.0
C970 C 0.24817 0.38733 0.5486 0.0
C971 C 0.27736 0.38551 0.54647 0.0
C972 C 0.30278 0.40844 0.53727 0.0
C973 C 0.29913 0.43333 0.53022 0.0
H974 H 0.28025 0.36628 0.55192 0.0
H975 H 0.24261 0.60591 0.48301 0.0
H976 H 0.83722 0.24956 0.91124 0.0
H977 H 0.83253 0.24537 0.88461 0.0
H978 H 0.75482 0.27185 0.88602 0.0
H979 H 0.75938 0.27621 0.91264 0.0
H980 H 0.73878 0.21762 0.868 0.0
H981 H 0.83136 0.32858 0.87536 0.0
H982 H 0.88608 0.37078 0.88528 0.0
H983 H 0.93434 0.32383 0.86331 0.0
H984 H 0.87979 0.28103 0.85342 0.0
H985 H 0.73442 0.24908 0.79228 0.0
H986 H 0.73941 0.25443 0.81886 0.0
H987 H 0.82322 0.23681 0.81751 0.0
H988 H 0.81874 0.23192 0.79094 0.0
H989 H 0.83614 0.28666 0.83562 0.0
H990 H 0.74517 0.17569 0.82846 0.0
H991 H 0.69096 0.13198 0.81873 0.0
H992 H 0.64022 0.17671 0.84046 0.0
H993 H 0.69424 0.22099 0.85015 0.0
C994 C 0.81915 0.25455 0.9059 0.0
C995 C 0.79874 0.26332 0.91409 0.0
C996 C 0.81658 0.25223 0.89067 0.0
C997 C 0.79347 0.25851 0.88332 0.0
C998 C 0.77283 0.26693 0.89146 0.0
C999 C 0.77558 0.26953 0.90668 0.0
C1000 C 0.79074 0.25616 0.86713 0.0
C1001 C 0.75992 0.23304 0.86091 0.0
C1002 C 0.81858 0.27563 0.85789 0.0
C1003 C 0.85143 0.30141 0.86377 0.0
C1004 C 0.85359 0.32709 0.87274 0.0
C1005 C 0.88459 0.35114 0.87834 0.0
C1006 C 0.91366 0.34993 0.87496 0.0
C1007 C 0.9118 0.3247 0.86594 0.0
C1008 C 0.88085 0.30056 0.86033 0.0
C1009 C 0.75394 0.24636 0.79762 0.0
C1010 C 0.77611 0.23996 0.78945 0.0
C1011 C 0.75668 0.24929 0.81284 0.0
C1012 C 0.78146 0.24564 0.82023 0.0
C1013 C 0.80388 0.23969 0.81207 0.0
C1014 C 0.8012 0.2368 0.79687 0.0
C1015 C 0.78411 0.24812 0.83644 0.0
C1016 C 0.81494 0.27125 0.84269 0.0
C1017 C 0.75634 0.22844 0.84571 0.0
C1018 C 0.72381 0.20186 0.8399 0.0
C1019 C 0.7225 0.17637 0.83106 0.0
C1020 C 0.69179 0.15146 0.82557 0.0
C1021 C 0.66218 0.15162 0.82894 0.0
C1022 C 0.66319 0.17665 0.83784 0.0
C1023 C 0.69384 0.20165 0.84334 0.0
H1024 H 0.63843 0.13231 0.82469 0.0
H1025 H 0.93764 0.36858 0.87931 0.0
H1026 H 0.50231 0.73401 0.1224 0.0
H1027 H 0.50134 0.73983 0.14896 0.0
H1028 H 0.60924 0.80132 0.14908 0.0
H1029 H 0.61047 0.79572 0.12256 0.0
H1030 H 0.58598 0.75323 0.17075 0.0
H1031 H 0.56203 0.83691 0.15258 0.0
H1032 H 0.53135 0.85807 0.13808 0.0
H1033 H 0.44028 0.79258 0.16123 0.0
H1034 H 0.47035 0.77068 0.17573 0.0
H1035 H 0.61164 0.82136 0.24166 0.0
H1036 H 0.60978 0.81348 0.21526 0.0
H1037 H 0.50146 0.7608 0.21673 0.0
H1038 H 0.50312 0.7693 0.24317 0.0
H1039 H 0.52304 0.80232 0.19421 0.0
H1040 H 0.54639 0.71918 0.21276 0.0
H1041 H 0.57636 0.69721 0.22725 0.0
H1042 H 0.66725 0.75991 0.20342 0.0
H1043 H 0.63792 0.78261 0.18892 0.0
C1044 C 0.52585 0.74877 0.12807 0.0
C1045 C 0.55647 0.76446 0.12033 0.0
C1046 C 0.52523 0.75216 0.14325 0.0
C1047 C 0.55521 0.7712 0.151 0.0
C1048 C 0.58582 0.78653 0.14333 0.0
C1049 C 0.58644 0.78338 0.12815 0.0
C1050 C 0.55476 0.77511 0.1671 0.0
C1051 C 0.57254 0.76431 0.17588 0.0
C1052 C 0.53647 0.78873 0.17382 0.0
C1053 C 0.51836 0.80189 0.16513 0.0
C1054 C 0.5354 0.8268 0.15449 0.0
C1055 C 0.51813 0.83897 0.14629 0.0
C1056 C 0.48386 0.82661 0.1487 0.0
C1057 C 0.46681 0.8021 0.15935 0.0
C1058 C 0.48396 0.78981 0.16757 0.0
C1059 C 0.58737 0.80805 0.2364 0.0
C1060 C 0.55751 0.79583 0.24457 0.0
C1061 C 0.58635 0.80342 0.22128 0.0
C1062 C 0.55547 0.78606 0.21399 0.0
C1063 C 0.5256 0.77419 0.22209 0.0
C1064 C 0.5266 0.779 0.23723 0.0
C1065 C 0.55443 0.7806 0.19792 0.0
C1066 C 0.53638 0.79109 0.18912 0.0
C1067 C 0.57232 0.76651 0.19119 0.0
C1068 C 0.59002 0.75282 0.19985 0.0
C1069 C 0.57283 0.72847 0.21068 0.0
C1070 C 0.58969 0.71585 0.21889 0.0
C1071 C 0.62371 0.72721 0.21628 0.0
C1072 C 0.64091 0.75116 0.20544 0.0
C1073 C 0.62417 0.76388 0.19722 0.0
H1074 H 0.63672 0.71742 0.22264 0.0
H1075 H 0.47054 0.83607 0.14234 0.0
H1076 H 0.81463 0.59536 0.57741 0.0
H1077 H 0.8181 0.59351 0.55083 0.0
H1078 H 0.75277 0.48671 0.55183 0.0
H1079 H 0.74929 0.48827 0.57849 0.0
H1080 H 0.80652 0.50541 0.53341 0.0
H1081 H 0.72249 0.5368 0.54173 0.0
H1082 H 0.69981 0.57069 0.5522 0.0
H1083 H 0.77734 0.65804 0.53071 0.0
H1084 H 0.80078 0.62474 0.52026 0.0
H1085 H 0.77023 0.48401 0.45746 0.0
H1086 H 0.76652 0.48432 0.4841 0.0
H1087 H 0.82424 0.59195 0.48387 0.0
H1088 H 0.82731 0.59187 0.45723 0.0
H1089 H 0.77373 0.57212 0.50205 0.0
H1090 H 0.85866 0.54245 0.49401 0.0
H1091 H 0.88312 0.50996 0.48373 0.0
H1092 H 0.80649 0.42132 0.5048 0.0
H1093 H 0.78129 0.45321 0.51506 0.0
C1094 C 0.80099 0.57143 0.57201 0.0
C1095 C 0.78155 0.54196 0.58011 0.0
C1096 C 0.80292 0.57045 0.55678 0.0
C1097 C 0.7854 0.54002 0.54931 0.0
C1098 C 0.76644 0.51048 0.55736 0.0
C1099 C 0.76439 0.51144 0.57261 0.0
C1100 C 0.78686 0.53908 0.53309 0.0
C1101 C 0.7989 0.51962 0.52654 0.0
C1102 C 0.77775 0.5583 0.52412 0.0
C1103 C 0.76357 0.57833 0.53032 0.0
C1104 C 0.73486 0.56328 0.53932 0.0
C1105 C 0.72184 0.58238 0.54524 0.0
C1106 C 0.73717 0.61651 0.54215 0.0
C1107 C 0.76551 0.6316 0.5331 0.0
C1108 C 0.77865 0.61262 0.52717 0.0
C1109 C 0.78222 0.50776 0.46308 0.0
C1110 C 0.79914 0.53791 0.45519 0.0
C1111 C 0.78021 0.50789 0.47833 0.0
C1112 C 0.79547 0.53815 0.48606 0.0
C1113 C 0.81226 0.56828 0.47819 0.0
C1114 C 0.81408 0.56817 0.46294 0.0
C1115 C 0.79352 0.53851 0.50231 0.0
C1116 C 0.78134 0.55787 0.50889 0.0
C1117 C 0.80276 0.51939 0.5113 0.0
C1118 C 0.81789 0.50016 0.50518 0.0
C1119 C 0.84687 0.51598 0.49636 0.0
C1120 C 0.8609 0.49768 0.49055 0.0
C1121 C 0.84631 0.46358 0.49357 0.0
C1122 C 0.81773 0.44772 0.50245 0.0
C1123 C 0.80358 0.46591 0.50827 0.0
H1124 H 0.85721 0.44945 0.48907 0.0
H1125 H 0.72706 0.63125 0.54675 0.0
H1126 H 0.3018 0.84729 0.91156 0.0
H1127 H 0.30257 0.84318 0.88499 0.0
H1128 H 0.21914 0.74242 0.8872 0.0
H1129 H 0.21856 0.74612 0.91385 0.0
H1130 H 0.26448 0.7469 0.86749 0.0
H1131 H 0.20736 0.80753 0.87784 0.0
H1132 H 0.19972 0.85199 0.88884 0.0
H1133 H 0.28694 0.92635 0.86596 0.0
H1134 H 0.29538 0.88232 0.85497 0.0
H1135 H 0.21311 0.73485 0.79301 0.0
H1136 H 0.21644 0.73625 0.81968 0.0
H1137 H 0.30202 0.83576 0.81766 0.0
H1138 H 0.29876 0.83468 0.791 0.0
H1139 H 0.25577 0.8315 0.83725 0.0
H1140 H 0.31165 0.7696 0.82643 0.0
H1141 H 0.31779 0.72436 0.81531 0.0
H1142 H 0.23093 0.6514 0.83886 0.0
H1143 H 0.22398 0.69622 0.84997 0.0
C1144 C 0.2837 0.82417 0.90643 0.0
C1145 C 0.25997 0.79711 0.91486 0.0
C1146 C 0.28409 0.82191 0.8912 0.0
C1147 C 0.26057 0.79267 0.88405 0.0
C1148 C 0.23747 0.76527 0.89245 0.0
C1149 C 0.23713 0.76747 0.9077 0.0
C1150 C 0.25967 0.79096 0.8678 0.0
C1151 C 0.26217 0.76517 0.86088 0.0
C1152 C 0.25723 0.8151 0.85914 0.0
C1153 C 0.2522 0.84164 0.86571 0.0
C1154 C 0.22507 0.83337 0.87525 0.0
C1155 C 0.22057 0.8585 0.88146 0.0
C1156 C 0.24288 0.89198 0.87813 0.0
C1157 C 0.2697 0.90041 0.86855 0.0
C1158 C 0.27434 0.87538 0.86231 0.0
C1159 C 0.23283 0.75694 0.79822 0.0
C1160 C 0.25565 0.78466 0.78984 0.0
C1161 C 0.23477 0.75765 0.81348 0.0
C1162 C 0.2596 0.78605 0.82069 0.0
C1163 C 0.28264 0.81359 0.81235 0.0
C1164 C 0.2808 0.81287 0.79709 0.0
C1165 C 0.26078 0.78757 0.83692 0.0
C1166 C 0.25821 0.81329 0.84385 0.0
C1167 C 0.26294 0.76325 0.84556 0.0
C1168 C 0.26711 0.73626 0.83892 0.0
C1169 C 0.29369 0.7439 0.82915 0.0
C1170 C 0.29735 0.71833 0.82286 0.0
C1171 C 0.27471 0.68502 0.82634 0.0
C1172 C 0.24842 0.67721 0.83615 0.0
C1173 C 0.24463 0.70269 0.84246 0.0
H1174 H 0.27759 0.66526 0.82146 0.0
H1175 H 0.23935 0.9114 0.88295 0.0
H1176 H 0.57152 0.65487 0.09412 0.0
H1177 H 0.55022 0.59456 0.09703 0.0
H1178 H 0.54713 0.58372 0.0502 0.0
H1179 H 0.56857 0.64362 0.04728 0.0
H1180 H 0.48795 0.53528 0.06505 0.0
H1181 H 0.60933 0.58537 0.06735 0.0
H1182 H 0.66522 0.62322 0.07764 0.0
H1183 H 0.6326 0.57501 0.11942 0.0
H1184 H 0.57632 0.53716 0.10941 0.0
H1185 H 0.47572 0.38263 0.04827 0.0
H1186 H 0.49394 0.44172 0.05083 0.0
H1187 H 0.5088 0.43571 0.097 0.0
H1188 H 0.49095 0.37622 0.09439 0.0
H1189 H 0.55838 0.49218 0.08625 0.0
H1190 H 0.4395 0.43853 0.08418 0.0
H1191 H 0.38266 0.40061 0.07482 0.0
H1192 H 0.40792 0.45517 0.03437 0.0
H1193 H 0.4651 0.49314 0.0434 0.0
C1194 C 0.56609 0.63949 0.08449 0.0
C1195 C 0.5719 0.65393 0.07048 0.0
C1196 C 0.5541 0.60516 0.08615 0.0
C1197 C 0.54724 0.58472 0.07382 0.0
C1198 C 0.55231 0.59903 0.05985 0.0
C1199 C 0.56476 0.63328 0.0582 0.0
C1200 C 0.53504 0.54841 0.07526 0.0
C1201 C 0.50337 0.52581 0.06961 0.0
C1202 C 0.55469 0.53606 0.0817 0.0
C1203 C 0.58851 0.55873 0.08769 0.0
C1204 C 0.61398 0.58305 0.07877 0.0
C1205 C 0.64574 0.60446 0.08454 0.0
C1206 C 0.65242 0.6016 0.09919 0.0
C1207 C 0.62737 0.57725 0.10809 0.0
C1208 C 0.59554 0.55581 0.10237 0.0
C1209 C 0.48265 0.39377 0.05899 0.0
C1210 C 0.48145 0.37459 0.07116 0.0
C1211 C 0.49306 0.42762 0.06046 0.0
C1212 C 0.50201 0.44311 0.07418 0.0
C1213 C 0.50181 0.42431 0.08632 0.0
C1214 C 0.49167 0.39035 0.08482 0.0
C1215 C 0.51151 0.4789 0.07566 0.0
C1216 C 0.54264 0.50145 0.08187 0.0
C1217 C 0.49112 0.49124 0.06992 0.0
C1218 C 0.45669 0.46856 0.06444 0.0
C1219 C 0.43302 0.44231 0.07325 0.0
C1220 C 0.40072 0.42082 0.06801 0.0
C1221 C 0.3917 0.42544 0.054 0.0
C1222 C 0.41495 0.45161 0.04521 0.0
C1223 C 0.44729 0.47316 0.0504 0.0
H1224 H 0.36669 0.40878 0.04996 0.0
H1225 H 0.67704 0.61819 0.10364 0.0
H1226 H 0.91524 0.54343 0.42472 0.0
H1227 H 0.95707 0.52543 0.42652 0.0
H1228 H 0.99406 0.56541 0.38351 0.0
H1229 H 0.95265 0.58365 0.38172 0.0
H1230 H 0.96841 0.48334 0.41201 0.0
H1231 H 0.07712 0.59496 0.38087 0.0
H1232 H 0.09859 0.65514 0.37702 0.0
H1233 H 0.05319 0.65979 0.41736 0.0
H1234 H 0.03185 0.59977 0.42156 0.0
H1235 H 0.08822 0.44044 0.38832 0.0
H1236 H 0.04742 0.45909 0.39052 0.0
H1237 H 0.11367 0.53763 0.41959 0.0
H1238 H 0.15557 0.52028 0.41685 0.0
H1239 H 0.08874 0.56194 0.4014 0.0
H1240 H 0.04105 0.4656 0.43193 0.0
H1241 H 1.02066 0.40688 0.43873 0.0
H1242 H 0.94618 0.3743 0.40503 0.0
H1243 H 0.96641 0.43282 0.3979 0.0
C1244 C 0.93218 0.54826 0.41562 0.0
C1245 C 0.9307 0.56526 0.40312 0.0
C1246 C 0.95615 0.53799 0.41667 0.0
C1247 C 0.97916 0.54448 0.40525 0.0
C1248 C 0.97721 0.5608 0.39264 0.0
C1249 C 0.95345 0.57125 0.39162 0.0
C1250 C 1.00503 0.53402 0.40641 0.0
C1251 C 0.99472 0.50055 0.40971 0.0
C1252 C 0.03958 0.55657 0.4038 0.0
C1253 C 0.05263 0.59279 0.40145 0.0
C1254 C 0.07184 0.60886 0.38895 0.0
C1255 C 0.08397 0.64294 0.3867 0.0
C1256 C 0.07717 0.66125 0.39692 0.0
C1257 C 0.05833 0.64555 0.40943 0.0
C1258 C 0.04618 0.61149 0.41174 0.0
C1259 C 0.09447 0.46185 0.39511 0.0
C1260 C 0.12561 0.4788 0.40234 0.0
C1261 C 0.07073 0.47226 0.39651 0.0
C1262 C 0.07712 0.49954 0.40539 0.0
C1263 C 0.10801 0.51645 0.4127 0.0
C1264 C 0.13194 0.50623 0.41121 0.0
C1265 C 0.05202 0.51103 0.40662 0.0
C1266 C 0.06246 0.54471 0.40376 0.0
C1267 C 1.01776 0.48886 0.41003 0.0
C1268 C 1.00543 0.45361 0.41431 0.0
C1269 C 1.02047 0.44591 0.4259 0.0
C1270 C 1.00892 0.41266 0.42983 0.0
C1271 C 0.98219 0.38687 0.4223 0.0
C1272 C 0.9669 0.39429 0.41085 0.0
C1273 C 0.97837 0.42751 0.40687 0.0
H1274 H 0.97328 0.36115 0.42536 0.0
H1275 H 0.08656 0.68763 0.39515 0.0
H1276 H 0.67317 0.06784 0.74177 0.0
H1277 H 0.61272 0.02938 0.74205 0.0
H1278 H 0.59499 0.11241 0.73823 0.0
H1279 H 0.65575 0.1512 0.73803 0.0
H1280 H 0.55192 0.06741 0.75736 0.0
H1281 H 0.58757 0.06339 0.70855 0.0
H1282 H 0.62201 0.05692 0.68952 0.0
H1283 H 0.58858 0.95681 0.70422 0.0
H1284 H 0.55428 0.96285 0.72347 0.0
H1285 H 0.38083 0.97126 0.73552 0.0
H1286 H 0.44102 1.01099 0.73656 0.0
H1287 H 0.46095 0.92963 0.74161 0.0
H1288 H 0.40074 0.88964 0.74021 0.0
H1289 H 0.50269 0.9744 0.72175 0.0
H1290 H 0.46669 0.97868 0.77056 0.0
H1291 H 0.43212 0.98545 0.78942 0.0
H1292 H 0.46583 0.0854 0.77443 0.0
H1293 H 0.50026 0.07907 0.75533 0.0
C1294 C 0.65649 0.07799 0.74089 0.0
C1295 C 0.66942 0.11266 0.7397 0.0
C1296 C 0.62184 0.05591 0.74107 0.0
C1297 C 0.59918 0.06787 0.73988 0.0
C1298 C 0.61193 0.10253 0.73911 0.0
C1299 C 0.64669 0.12471 0.73902 0.0
C1300 C 0.56229 0.0441 0.73928 0.0
C1301 C 0.54111 0.04737 0.74943 0.0
C1302 C 0.54812 1.01745 0.72915 0.0
C1303 C 0.5686 1.01369 0.71754 0.0
C1304 C 0.58775 0.04008 0.70779 0.0
C1305 C 0.60722 0.03648 0.69695 0.0
C1306 C 0.60755 1.0065 0.69568 0.0
C1307 C 0.58833 0.98003 0.70522 0.0
C1308 C 0.56885 0.98352 0.71609 0.0
C1309 C 0.39795 0.96173 0.73677 0.0
C1310 C 0.38579 0.92714 0.73777 0.0
C1311 C 0.43242 0.98455 0.73751 0.0
C1312 C 0.45559 0.97338 0.73931 0.0
C1313 C 0.44358 0.93889 0.74027 0.0
C1314 C 0.40908 0.91603 0.73957 0.0
C1315 C 0.49235 0.9976 0.73987 0.0
C1316 C 0.51349 0.99444 0.72968 0.0
C1317 C 0.50642 0.02438 0.74993 0.0
C1318 C 0.48579 0.02828 0.76142 0.0
C1319 C 0.46652 1.00201 0.77121 0.0
C1320 C 0.44699 1.00579 0.78196 0.0
C1321 C 0.4467 0.03581 0.7831 0.0
C1322 C 0.46603 0.06215 0.77352 0.0
C1323 C 0.48558 0.05849 0.76274 0.0
H1324 H 0.43157 0.03868 0.79143 0.0
H1325 H 0.62264 1.00376 0.68729 0.0
H1326 H 0.67564 0.61405 0.62706 0.0
H1327 H 0.6151 0.59207 0.62657 0.0
H1328 H 0.5983 0.49179 0.63033 0.0
H1329 H 0.65913 0.51374 0.63074 0.0
H1330 H 0.55589 0.49418 0.61095 0.0
H1331 H 0.58918 0.53245 0.65998 0.0
H1332 H 0.62255 0.57285 0.67912 0.0
H1333 H 0.58857 0.63923 0.6643 0.0
H1334 H 0.55534 0.59941 0.64494 0.0
H1335 H 0.38345 0.41875 0.63131 0.0
H1336 H 0.44369 0.43898 0.63064 0.0
H1337 H 0.46337 0.54028 0.62707 0.0
H1338 H 0.40317 0.52035 0.62828 0.0
H1339 H 0.5042 0.53641 0.64649 0.0
H1340 H 0.47083 0.49795 0.59742 0.0
H1341 H 0.43743 0.4574 0.57834 0.0
H1342 H 0.47127 0.39105 0.59335 0.0
H1343 H 0.50454 0.43103 0.61266 0.0
C1344 C 0.65914 0.58733 0.62788 0.0
C1345 C 0.67233 0.5657 0.62911 0.0
C1346 C 0.62445 0.57476 0.62758 0.0
C1347 C 0.60202 0.54028 0.62868 0.0
C1348 C 0.61506 0.5185 0.6295 0.0
C1349 C 0.64986 0.53108 0.62972 0.0
C1350 C 0.56506 0.52712 0.62913 0.0
C1351 C 0.54453 0.50307 0.61886 0.0
C1352 C 0.5502 0.53917 0.63924 0.0
C1353 C 0.57001 0.56308 0.65093 0.0
C1354 C 0.58901 0.55577 0.66074 0.0
C1355 C 0.60787 0.57855 0.67163 0.0
C1356 C 0.60775 0.60862 0.6729 0.0
C1357 C 0.58868 0.61594 0.6633 0.0
C1358 C 0.56979 0.59327 0.65237 0.0
C1359 C 0.40049 0.44536 0.63048 0.0
C1360 C 0.38821 0.46785 0.62986 0.0
C1361 C 0.43503 0.45689 0.62994 0.0
C1362 C 0.45817 0.49117 0.62863 0.0
C1363 C 0.44605 0.5137 0.62803 0.0
C1364 C 0.41151 0.5022 0.6286 0.0
C1365 C 0.49501 0.50362 0.62826 0.0
C1366 C 0.51553 0.5275 0.63858 0.0
C1367 C 0.5098 0.49137 0.61821 0.0
C1368 C 0.48992 0.46735 0.60658 0.0
C1369 C 0.47095 0.4746 0.59672 0.0
C1370 C 0.45207 0.45174 0.58585 0.0
C1371 C 0.45216 0.42163 0.58466 0.0
C1372 C 0.47119 0.41436 0.5943 0.0
C1373 C 0.49009 0.43713 0.6052 0.0
H1374 H 0.43753 0.40396 0.57623 0.0
H1375 H 0.62237 0.62623 0.68135 0.0
H1376 H 0.09967 0.65257 0.98788 0.0
H1377 H 0.05997 0.59309 0.98534 0.0
H1378 H 0.09326 0.59631 0.94095 0.0
H1379 H 0.13341 0.65605 0.9435 0.0
H1380 H 1.00773 0.55897 0.96883 0.0
H1381 H 0.08572 0.52061 0.93242 0.0
H1382 H 0.14506 0.53837 0.92714 0.0
H1383 H 0.17307 0.58154 0.96987 0.0
H1384 H 0.11388 0.56366 0.97546 0.0
H1385 H 0.90026 0.38876 0.95038 0.0
H1386 H 0.94038 0.44835 0.9478 0.0
H1387 H 1.01143 0.43686 0.97435 0.0
H1388 H 0.97246 0.37728 0.9763 0.0
H1389 H 0.04404 0.47874 0.95367 0.0
H1390 H 0.95887 0.4659 0.98827 0.0
H1391 H 0.90105 0.44746 0.9966 0.0
H1392 H 0.89022 0.50589 0.96276 0.0
H1393 H 0.94787 0.52436 0.95413 0.0
C1394 C 0.09845 0.64075 0.97753 0.0
C1395 C 0.11978 0.65917 0.96589 0.0
C1396 C 0.0757 0.60665 0.97609 0.0
C1397 C 0.07364 0.59003 0.96298 0.0
C1398 C 0.09469 0.60838 0.95126 0.0
C1399 C 0.11768 0.64255 0.95273 0.0
C1400 C 0.04954 0.55353 0.96175 0.0
C1401 C 1.01568 0.54148 0.96543 0.0
C1402 C 0.05981 0.53051 0.95747 0.0
C1403 C 0.09544 0.54115 0.95427 0.0
C1404 C 0.10455 0.53383 0.94069 0.0
C1405 C 0.13815 0.54392 0.93765 0.0
C1406 C 0.16283 0.56119 0.94814 0.0
C1407 C 0.15395 0.56829 0.96173 0.0
C1408 C 0.12039 0.55822 0.96483 0.0
C1409 C 0.92458 0.39871 0.95548 0.0
C1410 C 0.93272 0.37797 0.96374 0.0
C1411 C 0.94745 0.43297 0.95411 0.0
C1412 C 0.97879 0.44736 0.96111 0.0
C1413 C 0.98741 0.42653 0.96889 0.0
C1414 C 0.96477 0.39234 0.97016 0.0
C1415 C 1.00228 0.48415 0.96088 0.0
C1416 C 0.036 0.49628 0.95689 0.0
C1417 C 0.99209 0.50718 0.96526 0.0
C1418 C 0.95751 0.4962 0.97046 0.0
C1419 C 0.94406 0.47462 0.98255 0.0
C1420 C 0.91135 0.4642 0.98733 0.0
C1421 C 0.89194 0.47542 0.98018 0.0
C1422 C 0.90525 0.49717 0.96827 0.0
C1423 C 0.93795 0.50763 0.96343 0.0
H1424 H 0.86661 0.46732 0.9839 0.0
H1425 H 0.18883 0.569 0.94576 0.0
H1426 H 0.52962 0.89298 0.29779 0.0
H1427 H 0.50651 0.93067 0.29746 0.0
H1428 H 0.60461 1.01329 0.2869 0.0
H1429 H 0.62779 0.97586 0.28745 0.0
H1430 H 0.57774 0.0317 0.30716 0.0
H1431 H 0.5393 0.97599 0.26124 0.0
H1432 H 0.51095 0.92775 0.24473 0.0
H1433 H 0.41738 0.89606 0.26703 0.0
H1434 H 0.44527 0.94389 0.2838 0.0
H1435 H 0.52573 0.14852 0.28895 0.0
H1436 H 0.54727 0.10977 0.28679 0.0
H1437 H 0.45166 0.02882 0.30125 0.0
H1438 H 0.42973 0.06725 0.30309 0.0
H1439 H 0.47711 1.00981 0.27867 0.0
H1440 H 0.51668 0.0658 0.32474 0.0
H1441 H 0.54549 0.11477 0.34084 0.0
H1442 H 0.63792 0.14669 0.31753 0.0
H1443 H 0.60953 0.09813 0.30115 0.0
C1444 C 0.54615 0.91911 0.29525 0.0
C1445 C 0.58057 0.93139 0.29268 0.0
C1446 C 0.53292 0.94068 0.29505 0.0
C1447 C 0.55371 0.9749 0.29202 0.0
C1448 C 0.58802 0.98708 0.28933 0.0
C1449 C 0.60128 0.96563 0.28967 0.0
C1450 C 0.5401 0.99828 0.29206 0.0
C1451 C 0.55603 0.02709 0.30074 0.0
C1452 C 0.51131 0.99208 0.28396 0.0
C1453 C 0.49445 0.96335 0.27387 0.0
C1454 C 0.51273 0.95859 0.26269 0.0
C1455 C 0.49673 0.93135 0.25327 0.0
C1456 C 0.4624 0.9088 0.25485 0.0
C1457 C 0.44398 0.91351 0.26583 0.0
C1458 C 0.45986 0.94071 0.27529 0.0
C1459 C 0.50913 0.12242 0.29148 0.0
C1460 C 0.47602 0.1111 0.2963 0.0
C1461 C 0.52158 0.10031 0.29036 0.0
C1462 C 0.50123 0.06642 0.29404 0.0
C1463 C 0.46789 0.05486 0.29841 0.0
C1464 C 0.45547 0.07695 0.29958 0.0
C1465 C 0.51487 0.04315 0.2937 0.0
C1466 C 0.4989 1.01438 0.28502 0.0
C1467 C 0.54373 0.04944 0.30173 0.0
C1468 C 0.5609 0.07851 0.31164 0.0
C1469 C 0.54309 0.0834 0.32298 0.0
C1470 C 0.55935 0.11106 0.33216 0.0
C1471 C 0.59349 0.13388 0.33018 0.0
C1472 C 0.61147 0.12902 0.31904 0.0
C1473 C 0.59531 0.10142 0.30981 0.0
H1474 H 0.60604 0.15528 0.3373 0.0
H1475 H 0.45006 0.88772 0.24755 0.0
loop_
_geom_bond_atom_site_label_1
_geom_bond_atom_site_label_2
_geom_bond_distance
_geom_bond_site_symmetry_2
_ccdc_geom_bond_type
Cu0 N1 1.999 . S
Cu0 O6 1.974 . S
Cu0 N11 1.985 . S
Cu0 O20 1.959 . S
N1 Cu0 1.999 . S
N1 C3 1.263 . S
N1 C5 1.389 . S
N2 C3 1.358 . S
N2 C4 1.400 . S
C3 N1 1.263 . S
C3 N2 1.358 . S
C3 H9 0.930 . S
C4 N2 1.400 . S
C4 C5 1.351 . S
C4 H21 0.930 . S
C5 N1 1.389 . S
C5 C4 1.351 . S
C5 H10 0.930 . S
O6 Cu0 1.974 . S
O6 C16 1.282 . S
C7 O8 1.261 . S
C7 O20 1.251 . S
O8 C7 1.261 . S
H9 C3 0.930 . S
H10 C5 0.930 . S
N11 Cu0 1.985 . S
N11 C13 1.335 . S
N11 C14 1.390 . S
N12 C13 1.345 . S
N12 C15 1.336 . S
C13 N11 1.335 . S
C13 N12 1.345 . S
C13 H18 0.930 . S
C14 N11 1.390 . S
C14 C15 1.346 . S
C14 H19 0.930 . S
C15 N12 1.336 . S
C15 C14 1.346 . S
C15 H22 0.929 . S
C16 O6 1.282 . S
C16 O17 1.216 . S
O17 C16 1.216 . S
H18 C13 0.930 . S
H19 C14 0.930 . S
O20 Cu0 1.959 . S
O20 C7 1.251 . S
H21 C4 0.930 . S
H22 C15 0.929 . S
Cu23 N24 1.999 . S
Cu23 O29 1.974 . S
Cu23 N34 1.985 . S
Cu23 O43 1.959 . S
N24 Cu23 1.999 . S
N24 C26 1.263 . S
N24 C28 1.389 . S
N25 C26 1.358 . S
N25 C27 1.400 . S
C26 N24 1.263 . S
C26 N25 1.358 . S
C26 H32 0.930 . S
C27 N25 1.400 . S
C27 C28 1.351 . S
C27 H44 0.930 . S
C28 N24 1.389 . S
C28 C27 1.351 . S
C28 H33 0.930 . S
O29 Cu23 1.974 . S
O29 C39 1.282 . S
C30 O31 1.261 . S
C30 O43 1.251 . S
O31 C30 1.261 . S
H32 C26 0.930 . S
H33 C28 0.930 . S
N34 Cu23 1.985 . S
N34 C36 1.335 . S
N34 C37 1.390 . S
N35 C36 1.345 . S
N35 C38 1.336 . S
C36 N34 1.335 . S
C36 N35 1.345 . S
C36 H41 0.930 . S
C37 N34 1.390 . S
C37 C38 1.346 . S
C37 H42 0.930 . S
C38 N35 1.336 . S
C38 C37 1.346 . S
C38 H45 0.929 . S
C39 O29 1.282 . S
C39 O40 1.216 . S
O40 C39 1.216 . S
H41 C36 0.930 . S
H42 C37 0.930 . S
O43 Cu23 1.959 . S
O43 C30 1.251 . S
H44 C27 0.930 . S
H45 C38 0.929 . S
Cu46 N47 1.999 . S
Cu46 O52 1.974 . S
Cu46 N57 1.985 . S
Cu46 O66 1.959 . S
N47 Cu46 1.999 . S
N47 C49 1.263 . S
N47 C51 1.389 . S
N48 C49 1.358 . S
N48 C50 1.400 . S
C49 N47 1.263 . S
C49 N48 1.358 . S
C49 H55 0.930 . S
C50 N48 1.400 . S
C50 C51 1.351 . S
C50 H67 0.930 . S
C51 N47 1.389 . S
C51 C50 1.351 . S
C51 H56 0.930 . S
O52 Cu46 1.974 . S
O52 C62 1.282 . S
C53 O54 1.261 . S
C53 O66 1.251 . S
O54 C53 1.261 . S
H55 C49 0.930 . S
H56 C51 0.930 . S
N57 Cu46 1.985 . S
N57 C59 1.335 . S
N57 C60 1.390 . S
N58 C59 1.345 . S
N58 C61 1.336 . S
C59 N57 1.335 . S
C59 N58 1.345 . S
C59 H64 0.930 . S
C60 N57 1.390 . S
C60 C61 1.346 . S
C60 H65 0.930 . S
C61 N58 1.336 . S
C61 C60 1.346 . S
C61 H68 0.929 . S
C62 O52 1.282 . S
C62 O63 1.216 . S
O63 C62 1.216 . S
H64 C59 0.930 . S
H65 C60 0.930 . S
O66 Cu46 1.959 . S
O66 C53 1.251 . S
H67 C50 0.930 . S
H68 C61 0.929 . S
Cu69 N70 1.999 . S
Cu69 O75 1.974 . S
Cu69 N80 1.985 . S
Cu69 O89 1.959 . S
N70 Cu69 1.999 . S
N70 C72 1.263 . S
N70 C74 1.389 . S
N71 C72 1.358 . S
N71 C73 1.400 . S
C72 N70 1.263 . S
C72 N71 1.358 . S
C72 H78 0.930 . S
C73 N71 1.400 . S
C73 C74 1.351 . S
C73 H90 0.930 . S
C74 N70 1.389 . S
C74 C73 1.351 . S
C74 H79 0.930 . S
O75 Cu69 1.974 . S
O75 C85 1.282 . S
C76 O77 1.261 . S
C76 O89 1.251 . S
O77 C76 1.261 . S
H78 C72 0.930 . S
H79 C74 0.930 . S
N80 Cu69 1.985 . S
N80 C82 1.335 . S
N80 C83 1.390 . S
N81 C82 1.345 . S
N81 C84 1.336 . S
C82 N80 1.335 . S
C82 N81 1.345 . S
C82 H87 0.930 . S
C83 N80 1.390 . S
C83 C84 1.346 . S
C83 H88 0.930 . S
C84 N81 1.336 . S
C84 C83 1.346 . S
C84 H91 0.929 . S
C85 O75 1.282 . S
C85 O86 1.216 . S
O86 C85 1.216 . S
H87 C82 0.930 . S
H88 C83 0.930 . S
O89 Cu69 1.959 . S
O89 C76 1.251 . S
H90 C73 0.930 . S
H91 C84 0.929 . S
Cu92 N93 1.999 . S
Cu92 O98 1.974 . S
Cu92 N103 1.985 . S
Cu92 O112 1.959 . S
N93 Cu92 1.999 . S
N93 C95 1.263 . S
N93 C97 1.389 . S
N94 C95 1.358 . S
N94 C96 1.400 . S
C95 N93 1.263 . S
C95 N94 1.358 . S
C95 H101 0.930 . S
C96 N94 1.400 . S
C96 C97 1.351 . S
C96 H113 0.930 . S
C97 N93 1.389 . S
C97 C96 1.351 . S
C97 H102 0.930 . S
O98 Cu92 1.974 . S
O98 C108 1.282 . S
C99 O100 1.261 . S
C99 O112 1.251 . S
O100 C99 1.261 . S
H101 C95 0.930 . S
H102 C97 0.930 . S
N103 Cu92 1.985 . S
N103 C105 1.335 . S
N103 C106 1.390 . S
N104 C105 1.345 . S
N104 C107 1.336 . S
C105 N103 1.335 . S
C105 N104 1.345 . S
C105 H110 0.930 . S
C106 N103 1.390 . S
C106 C107 1.346 . S
C106 H111 0.930 . S
C107 N104 1.336 . S
C107 C106 1.346 . S
C107 H114 0.929 . S
C108 O98 1.282 . S
C108 O109 1.216 . S
O109 C108 1.216 . S
H110 C105 0.930 . S
H111 C106 0.930 . S
O112 Cu92 1.959 . S
O112 C99 1.251 . S
H113 C96 0.930 . S
H114 C107 0.929 . S
Cu115 N116 1.999 . S
Cu115 O121 1.974 . S
Cu115 N126 1.985 . S
Cu115 O135 1.959 . S
N116 Cu115 1.999 . S
N116 C118 1.263 . S
N116 C120 1.389 . S
N117 C118 1.358 . S
N117 C119 1.400 . S
C118 N116 1.263 . S
C118 N117 1.358 . S
C118 H124 0.930 . S
C119 N117 1.400 . S
C119 C120 1.351 . S
C119 H136 0.930 . S
C120 N116 1.389 . S
C120 C119 1.351 . S
C120 H125 0.930 . S
O121 Cu115 1.974 . S
O121 C131 1.282 . S
C122 O123 1.261 . S
C122 O135 1.251 . S
O123 C122 1.261 . S
H124 C118 0.930 . S
H125 C120 0.930 . S
N126 Cu115 1.985 . S
N126 C128 1.335 . S
N126 C129 1.390 . S
N127 C128 1.345 . S
N127 C130 1.336 . S
C128 N126 1.335 . S
C128 N127 1.345 . S
C128 H133 0.930 . S
C129 N126 1.390 . S
C129 C130 1.346 . S
C129 H134 0.930 . S
C130 N127 1.336 . S
C130 C129 1.346 . S
C130 H137 0.929 . S
C131 O121 1.282 . S
C131 O132 1.216 . S
O132 C131 1.216 . S
H133 C128 0.930 . S
H134 C129 0.930 . S
O135 Cu115 1.959 . S
O135 C122 1.251 . S
H136 C119 0.930 . S
H137 C130 0.929 . S
Cu138 N139 1.999 . S
Cu138 O144 1.974 . S
Cu138 N149 1.985 . S
Cu138 O158 1.959 . S
N139 Cu138 1.999 . S
N139 C141 1.263 . S
N139 C143 1.389 . S
N140 C141 1.358 . S
N140 C142 1.400 . S
C141 N139 1.263 . S
C141 N140 1.358 . S
C141 H147 0.930 . S
C142 N140 1.400 . S
C142 C143 1.351 . S
C142 H159 0.930 . S
C143 N139 1.389 . S
C143 C142 1.351 . S
C143 H148 0.930 . S
O144 Cu138 1.974 . S
O144 C154 1.282 . S
C145 O146 1.261 . S
C145 O158 1.251 . S
O146 C145 1.261 . S
H147 C141 0.930 . S
H148 C143 0.930 . S
N149 Cu138 1.985 . S
N149 C151 1.335 . S
N149 C152 1.390 . S
N150 C151 1.345 . S
N150 C153 1.336 . S
C151 N149 1.335 . S
C151 N150 1.345 . S
C151 H156 0.930 . S
C152 N149 1.390 . S
C152 C153 1.346 . S
C152 H157 0.930 . S
C153 N150 1.336 . S
C153 C152 1.346 . S
C153 H160 0.929 . S
C154 O144 1.282 . S
C154 O155 1.216 . S
O155 C154 1.216 . S
H156 C151 0.930 . S
H157 C152 0.930 . S
O158 Cu138 1.959 . S
O158 C145 1.251 . S
H159 C142 0.930 . S
H160 C153 0.929 . S
Cu161 N162 1.999 . S
Cu161 O167 1.974 . S
Cu161 N172 1.985 . S
Cu161 O181 1.959 . S
N162 Cu161 1.999 . S
N162 C164 1.263 . S
N162 C166 1.389 . S
N163 C164 1.358 . S
N163 C165 1.400 . S
C164 N162 1.263 . S
C164 N163 1.358 . S
C164 H170 0.930 . S
C165 N163 1.400 . S
C165 C166 1.351 . S
C165 H182 0.930 . S
C166 N162 1.389 . S
C166 C165 1.351 . S
C166 H171 0.930 . S
O167 Cu161 1.974 . S
O167 C177 1.282 . S
C168 O169 1.261 . S
C168 O181 1.251 . S
O169 C168 1.261 . S
H170 C164 0.930 . S
H171 C166 0.930 . S
N172 Cu161 1.985 . S
N172 C174 1.335 . S
N172 C175 1.390 . S
N173 C174 1.345 . S
N173 C176 1.336 . S
C174 N172 1.335 . S
C174 N173 1.345 . S
C174 H179 0.930 . S
C175 N172 1.390 . S
C175 C176 1.346 . S
C175 H180 0.930 . S
C176 N173 1.336 . S
C176 C175 1.346 . S
C176 H183 0.929 . S
C177 O167 1.282 . S
C177 O178 1.216 . S
O178 C177 1.216 . S
H179 C174 0.930 . S
H180 C175 0.930 . S
O181 Cu161 1.959 . S
O181 C168 1.251 . S
H182 C165 0.930 . S
H183 C176 0.929 . S
Cu184 N185 1.999 . S
Cu184 O190 1.974 . S
Cu184 N195 1.985 . S
Cu184 O204 1.959 . S
N185 Cu184 1.999 . S
N185 C187 1.263 . S
N185 C189 1.389 . S
N186 C187 1.358 . S
N186 C188 1.400 . S
C187 N185 1.263 . S
C187 N186 1.358 . S
C187 H193 0.930 . S
C188 N186 1.400 . S
C188 C189 1.351 . S
C188 H205 0.930 . S
C189 N185 1.389 . S
C189 C188 1.351 . S
C189 H194 0.930 . S
O190 Cu184 1.974 . S
O190 C200 1.282 . S
C191 O192 1.261 . S
C191 O204 1.251 . S
O192 C191 1.261 . S
H193 C187 0.930 . S
H194 C189 0.930 . S
N195 Cu184 1.985 . S
N195 C197 1.335 . S
N195 C198 1.390 . S
N196 C197 1.345 . S
N196 C199 1.336 . S
C197 N195 1.335 . S
C197 N196 1.345 . S
C197 H202 0.930 . S
C198 N195 1.390 . S
C198 C199 1.346 . S
C198 H203 0.930 . S
C199 N196 1.336 . S
C199 C198 1.346 . S
C199 H206 0.929 . S
C200 O190 1.282 . S
C200 O201 1.216 . S
O201 C200 1.216 . S
H202 C197 0.930 . S
H203 C198 0.930 . S
O204 Cu184 1.959 . S
O204 C191 1.251 . S
H205 C188 0.930 . S
H206 C199 0.929 . S
Cu207 N208 1.999 . S
Cu207 O213 1.974 . S
Cu207 N218 1.985 . S
Cu207 O227 1.959 . S
N208 Cu207 1.999 . S
N208 C210 1.263 . S
N208 C212 1.389 . S
N209 C210 1.358 . S
N209 C211 1.400 . S
C210 N208 1.263 . S
C210 N209 1.358 . S
C210 H216 0.930 . S
C211 N209 1.400 . S
C211 C212 1.351 . S
C211 H228 0.930 . S
C212 N208 1.389 . S
C212 C211 1.351 . S
C212 H217 0.930 . S
O213 Cu207 1.974 . S
O213 C223 1.282 . S
C214 O215 1.261 . S
C214 O227 1.251 . S
O215 C214 1.261 . S
H216 C210 0.930 . S
H217 C212 0.930 . S
N218 Cu207 1.985 . S
N218 C220 1.335 . S
N218 C221 1.390 . S
N219 C220 1.345 . S
N219 C222 1.336 . S
C220 N218 1.335 . S
C220 N219 1.345 . S
C220 H225 0.930 . S
C221 N218 1.390 . S
C221 C222 1.346 . S
C221 H226 0.930 . S
C222 N219 1.336 . S
C222 C221 1.346 . S
C222 H229 0.929 . S
C223 O213 1.282 . S
C223 O224 1.216 . S
O224 C223 1.216 . S
H225 C220 0.930 . S
H226 C221 0.930 . S
O227 Cu207 1.959 . S
O227 C214 1.251 . S
H228 C211 0.930 . S
H229 C222 0.929 . S
Cu230 N231 1.999 . S
Cu230 O236 1.974 . S
Cu230 N241 1.985 . S
Cu230 O250 1.959 . S
N231 Cu230 1.999 . S
N231 C233 1.263 . S
N231 C235 1.389 . S
N232 C233 1.358 . S
N232 C234 1.400 . S
C233 N231 1.263 . S
C233 N232 1.358 . S
C233 H239 0.930 . S
C234 N232 1.400 . S
C234 C235 1.351 . S
C234 H251 0.930 . S
C235 N231 1.389 . S
C235 C234 1.351 . S
C235 H240 0.930 . S
O236 Cu230 1.974 . S
O236 C246 1.282 . S
C237 O238 1.261 . S
C237 O250 1.251 . S
O238 C237 1.261 . S
H239 C233 0.930 . S
H240 C235 0.930 . S
N241 Cu230 1.985 . S
N241 C243 1.335 . S
N241 C244 1.390 . S
N242 C243 1.345 . S
N242 C245 1.336 . S
C243 N241 1.335 . S
C243 N242 1.345 . S
C243 H248 0.930 . S
C244 N241 1.390 . S
C244 C245 1.346 . S
C244 H249 0.930 . S
C245 N242 1.336 . S
C245 C244 1.346 . S
C245 H252 0.929 . S
C246 O236 1.282 . S
C246 O247 1.216 . S
O247 C246 1.216 . S
H248 C243 0.930 . S
H249 C244 0.930 . S
O250 Cu230 1.959 . S
O250 C237 1.251 . S
H251 C234 0.930 . S
H252 C245 0.929 . S
Cu253 N254 1.999 . S
Cu253 O259 1.974 . S
Cu253 N264 1.985 . S
Cu253 O273 1.959 . S
N254 Cu253 1.999 . S
N254 C256 1.263 . S
N254 C258 1.389 . S
N255 C256 1.358 . S
N255 C257 1.400 . S
C256 N254 1.263 . S
C256 N255 1.358 . S
C256 H262 0.930 . S
C257 N255 1.400 . S
C257 C258 1.351 . S
C257 H274 0.930 . S
C258 N254 1.389 . S
C258 C257 1.351 . S
C258 H263 0.930 . S
O259 Cu253 1.974 . S
O259 C269 1.282 . S
C260 O261 1.261 . S
C260 O273 1.251 . S
O261 C260 1.261 . S
H262 C256 0.930 . S
H263 C258 0.930 . S
N264 Cu253 1.985 . S
N264 C266 1.335 . S
N264 C267 1.390 . S
N265 C266 1.345 . S
N265 C268 1.336 . S
C266 N264 1.335 . S
C266 N265 1.345 . S
C266 H271 0.930 . S
C267 N264 1.390 . S
C267 C268 1.346 . S
C267 H272 0.930 . S
C268 N265 1.336 . S
C268 C267 1.346 . S
C268 H275 0.929 . S
C269 O259 1.282 . S
C269 O270 1.216 . S
O270 C269 1.216 . S
H271 C266 0.930 . S
H272 C267 0.930 . S
O273 Cu253 1.959 . S
O273 C260 1.251 . S
H274 C257 0.930 . S
H275 C268 0.929 . S
H276 C294 0.951 . S
H277 C296 0.951 . S
H278 C298 0.950 . S
H279 C299 0.950 . S
H280 C301 0.955 . S
H281 C304 0.950 . S
H282 C305 0.950 . S
H283 C307 0.950 . S
H284 C308 0.950 . S
H285 C309 0.951 . S
H286 C311 0.951 . S
H287 C313 0.950 . S
H288 C314 0.950 . S
H289 C316 0.955 . S
H290 C319 0.950 . S
H291 C320 0.950 . S
H292 C322 0.950 . S
H293 C323 0.950 . S
C294 H276 0.951 . S
C294 C295 1.366 . S
C294 C296 1.388 . S
C295 C294 1.366 . S
C295 C299 1.385 . S
C296 H277 0.951 . S
C296 C294 1.388 . S
C296 C297 1.366 . S
C297 C296 1.366 . S
C297 C298 1.414 . S
C297 C300 1.499 . S
C298 H278 0.950 . S
C298 C297 1.414 . S
C298 C299 1.374 . S
C299 H279 0.950 . S
C299 C295 1.385 . S
C299 C298 1.374 . S
C300 C297 1.499 . S
C300 C301 1.333 1_556 S
C300 C302 1.389 1_565 S
C301 H280 0.955 . S
C301 C300 1.333 1_554 S
C301 C317 1.415 . S
C302 C300 1.389 1_545 S
C302 C303 1.524 . S
C302 C316 1.415 . S
C303 C302 1.524 . S
C303 C304 1.397 . S
C303 C308 1.363 . S
C304 H281 0.950 . S
C304 C303 1.397 . S
C304 C305 1.334 . S
C305 H282 0.950 . S
C305 C304 1.334 . S
C305 C306 1.287 . S
C306 C305 1.287 . S
C306 C307 1.524 . S
C306 H325 0.913 . S
C307 H283 0.950 . S
C307 C306 1.524 . S
C307 C308 1.415 . S
C308 H284 0.950 . S
C308 C303 1.363 . S
C308 C307 1.415 . S
C309 H285 0.951 . S
C309 C310 1.366 . S
C309 C311 1.388 . S
C310 C309 1.366 . S
C310 C314 1.385 . S
C311 H286 0.951 . S
C311 C309 1.388 . S
C311 C312 1.366 . S
C312 C311 1.366 . S
C312 C313 1.414 . S
C312 C315 1.499 . S
C313 H287 0.950 . S
C313 C312 1.414 . S
C313 C314 1.374 . S
C314 H288 0.950 . S
C314 C310 1.385 . S
C314 C313 1.374 . S
C315 C312 1.499 . S
C315 C316 1.333 1_554 S
C315 C317 1.389 1_545 S
C316 H289 0.955 . S
C316 C302 1.415 . S
C316 C315 1.333 1_556 S
C317 C301 1.415 . S
C317 C315 1.389 1_565 S
C317 C318 1.524 . S
C318 C317 1.524 . S
C318 C319 1.397 . S
C318 C323 1.363 . S
C319 H290 0.950 . S
C319 C318 1.397 . S
C319 C320 1.334 . S
C320 H291 0.950 . S
C320 C319 1.334 . S
C320 C321 1.287 . S
C321 C320 1.287 . S
C321 C322 1.524 . S
C321 H324 0.999 . S
C322 H292 0.950 . S
C322 C321 1.524 . S
C322 C323 1.415 . S
C323 H293 0.950 . S
C323 C318 1.363 . S
C323 C322 1.415 . S
H324 C321 0.999 . S
H325 C306 0.913 . S
H326 C344 0.951 . S
H327 C346 0.951 . S
H328 C348 0.950 . S
H329 C349 0.950 . S
H330 C351 0.950 . S
H331 C354 0.950 . S
H332 C355 0.950 . S
H333 C357 0.950 . S
H334 C358 0.950 . S
H335 C359 0.951 . S
H336 C361 0.951 . S
H337 C363 0.950 . S
H338 C364 0.950 . S
H339 C366 0.950 . S
H340 C369 0.950 . S
H341 C370 0.950 . S
H342 C372 0.950 . S
H343 C373 0.950 . S
C344 H326 0.951 . S
C344 C345 1.366 . S
C344 C346 1.388 . S
C345 C344 1.366 . S
C345 C349 1.385 . S
C346 H327 0.951 . S
C346 C344 1.388 . S
C346 C347 1.366 . S
C347 C346 1.366 . S
C347 C348 1.414 . S
C347 C350 1.499 . S
C348 H328 0.950 . S
C348 C347 1.414 . S
C348 C349 1.374 . S
C349 H329 0.950 . S
C349 C345 1.385 . S
C349 C348 1.374 . S
C350 C347 1.499 . S
C350 C351 1.373 . S
C350 C352 1.389 . S
C351 H330 0.950 . S
C351 C350 1.373 . S
C351 C367 1.377 . S
C352 C350 1.389 . S
C352 C353 1.524 . S
C352 C366 1.377 . S
C353 C352 1.524 . S
C353 C354 1.397 . S
C353 C358 1.363 . S
C354 H331 0.950 . S
C354 C353 1.397 . S
C354 C355 1.334 . S
C355 H332 0.950 . S
C355 C354 1.334 . S
C355 C356 1.287 . S
C356 C355 1.287 . S
C356 C357 1.524 . S
C356 H375 0.913 . S
C357 H333 0.950 . S
C357 C356 1.524 . S
C357 C358 1.415 . S
C358 H334 0.950 . S
C358 C353 1.363 . S
C358 C357 1.415 . S
C359 H335 0.951 . S
C359 C360 1.366 . S
C359 C361 1.388 . S
C360 C359 1.366 . S
C360 C364 1.385 . S
C361 H336 0.951 . S
C361 C359 1.388 . S
C361 C362 1.366 . S
C362 C361 1.366 . S
C362 C363 1.414 . S
C362 C365 1.499 . S
C363 H337 0.950 . S
C363 C362 1.414 . S
C363 C364 1.374 . S
C364 H338 0.950 . S
C364 C360 1.385 . S
C364 C363 1.374 . S
C365 C362 1.499 . S
C365 C366 1.373 . S
C365 C367 1.389 . S
C366 H339 0.950 . S
C366 C352 1.377 . S
C366 C365 1.373 . S
C367 C351 1.377 . S
C367 C365 1.389 . S
C367 C368 1.524 . S
C368 C367 1.524 . S
C368 C369 1.397 . S
C368 C373 1.363 . S
C369 H340 0.950 . S
C369 C368 1.397 . S
C369 C370 1.334 . S
C370 H341 0.950 . S
C370 C369 1.334 . S
C370 C371 1.287 . S
C371 C370 1.287 . S
C371 C372 1.524 . S
C371 H374 0.999 . S
C372 H342 0.950 . S
C372 C371 1.524 . S
C372 C373 1.415 . S
C373 H343 0.950 . S
C373 C368 1.363 . S
C373 C372 1.415 . S
H374 C371 0.999 . S
H375 C356 0.913 . S
H376 C394 0.951 . S
H377 C396 0.951 . S
H378 C398 0.950 . S
H379 C399 0.950 . S
H380 C401 0.950 . S
H381 C404 0.950 . S
H382 C405 0.950 . S
H383 C407 0.950 . S
H384 C408 0.950 . S
H385 C409 0.951 . S
H386 C411 0.951 . S
H387 C413 0.950 . S
H388 C414 0.950 . S
H389 C416 0.950 . S
H390 C419 0.950 . S
H391 C420 0.950 . S
H392 C422 0.950 . S
H393 C423 0.950 . S
C394 H376 0.951 . S
C394 C395 1.366 . S
C394 C396 1.388 . S
C395 C394 1.366 . S
C395 C399 1.385 . S
C396 H377 0.951 . S
C396 C394 1.388 . S
C396 C397 1.366 . S
C397 C396 1.366 . S
C397 C398 1.414 . S
C397 C400 1.499 . S
C398 H378 0.950 . S
C398 C397 1.414 . S
C398 C399 1.374 . S
C399 H379 0.950 . S
C399 C395 1.385 . S
C399 C398 1.374 . S
C400 C397 1.499 . S
C400 C401 1.373 1_655 S
C400 C402 1.389 . S
C401 H380 0.950 . S
C401 C400 1.373 1_455 S
C401 C417 1.377 . S
C402 C400 1.389 . S
C402 C403 1.524 . S
C402 C416 1.377 . S
C403 C402 1.524 . S
C403 C404 1.397 . S
C403 C408 1.363 . S
C404 H381 0.950 . S
C404 C403 1.397 . S
C404 C405 1.334 . S
C405 H382 0.950 . S
C405 C404 1.334 . S
C405 C406 1.287 . S
C406 C405 1.287 . S
C406 C407 1.524 . S
C406 H425 0.913 . S
C407 H383 0.950 . S
C407 C406 1.524 . S
C407 C408 1.415 . S
C408 H384 0.950 . S
C408 C403 1.363 . S
C408 C407 1.415 . S
C409 H385 0.951 . S
C409 C410 1.366 . S
C409 C411 1.388 . S
C410 C409 1.366 . S
C410 C414 1.385 . S
C411 H386 0.951 . S
C411 C409 1.388 . S
C411 C412 1.366 . S
C412 C411 1.366 . S
C412 C413 1.414 . S
C412 C415 1.499 . S
C413 H387 0.950 . S
C413 C412 1.414 . S
C413 C414 1.374 . S
C414 H388 0.950 . S
C414 C410 1.385 . S
C414 C413 1.374 . S
C415 C412 1.499 . S
C415 C416 1.373 1_455 S
C415 C417 1.389 . S
C416 H389 0.950 . S
C416 C402 1.377 . S
C416 C415 1.373 1_655 S
C417 C401 1.377 . S
C417 C415 1.389 . S
C417 C418 1.524 . S
C418 C417 1.524 . S
C418 C419 1.397 . S
C418 C423 1.363 . S
C419 H390 0.950 . S
C419 C418 1.397 . S
C419 C420 1.334 . S
C420 H391 0.950 . S
C420 C419 1.334 . S
C420 C421 1.287 . S
C421 C420 1.287 . S
C421 C422 1.524 . S
C421 H424 0.999 . S
C422 H392 0.950 . S
C422 C421 1.524 . S
C422 C423 1.415 . S
C423 H393 0.950 . S
C423 C418 1.363 . S
C423 C422 1.415 . S
H424 C421 0.999 . S
H425 C406 0.913 . S
H426 C444 0.951 . S
H427 C446 0.951 . S
H428 C448 0.950 . S
H429 C449 0.950 . S
H430 C451 0.950 . S
H431 C454 0.950 1_565 S
H432 C455 0.950 . S
H433 C457 0.950 . S
H434 C458 0.950 . S
H435 C459 0.951 . S
H436 C461 0.951 . S
H437 C463 0.950 . S
H438 C464 0.950 . S
H439 C466 0.950 . S
H440 C469 0.950 1_545 S
H441 C470 0.950 . S
H442 C472 0.950 . S
H443 C473 0.950 . S
C444 H426 0.951 . S
C444 C445 1.366 . S
C444 C446 1.388 . S
C445 C444 1.366 . S
C445 C449 1.385 . S
C446 H427 0.951 . S
C446 C444 1.388 . S
C446 C447 1.366 . S
C447 C446 1.366 . S
C447 C448 1.414 . S
C447 C450 1.499 . S
C448 H428 0.950 . S
C448 C447 1.414 . S
C448 C449 1.374 . S
C449 H429 0.950 . S
C449 C445 1.385 . S
C449 C448 1.374 . S
C450 C447 1.499 . S
C450 C451 1.373 1_554 S
C450 C452 1.389 1_565 S
C451 H430 0.950 . S
C451 C450 1.373 1_556 S
C451 C467 1.377 . S
C452 C450 1.389 1_545 S
C452 C453 1.524 . S
C452 C466 1.377 . S
C453 C452 1.524 . S
C453 C454 1.397 . S
C453 C458 1.363 . S
C454 H431 0.950 1_545 S
C454 C453 1.397 . S
C454 C455 1.334 . S
C455 H432 0.950 . S
C455 C454 1.334 . S
C455 C456 1.287 . S
C456 C455 1.287 . S
C456 C457 1.524 . S
C456 H475 0.913 . S
C457 H433 0.950 . S
C457 C456 1.524 . S
C457 C458 1.415 . S
C458 H434 0.950 . S
C458 C453 1.363 . S
C458 C457 1.415 . S
C459 H435 0.951 . S
C459 C460 1.366 . S
C459 C461 1.388 . S
C460 C459 1.366 . S
C460 C464 1.385 . S
C461 H436 0.951 . S
C461 C459 1.388 . S
C461 C462 1.366 . S
C462 C461 1.366 . S
C462 C463 1.414 . S
C462 C465 1.499 . S
C463 H437 0.950 . S
C463 C462 1.414 . S
C463 C464 1.374 . S
C464 H438 0.950 . S
C464 C460 1.385 . S
C464 C463 1.374 . S
C465 C462 1.499 . S
C465 C466 1.373 1_556 S
C465 C467 1.389 1_545 S
C466 H439 0.950 . S
C466 C452 1.377 . S
C466 C465 1.373 1_554 S
C467 C451 1.377 . S
C467 C465 1.389 1_565 S
C467 C468 1.524 . S
C468 C467 1.524 . S
C468 C469 1.397 . S
C468 C473 1.363 . S
C469 H440 0.950 1_565 S
C469 C468 1.397 . S
C469 C470 1.334 . S
C470 H441 0.950 . S
C470 C469 1.334 . S
C470 C471 1.287 . S
C471 C470 1.287 . S
C471 C472 1.524 . S
C471 H474 0.999 . S
C472 H442 0.950 . S
C472 C471 1.524 . S
C472 C473 1.415 . S
C473 H443 0.950 . S
C473 C468 1.363 . S
C473 C472 1.415 . S
H474 C471 0.999 . S
H475 C456 0.913 . S
H476 C494 0.951 . S
H477 C496 0.951 . S
H478 C498 0.950 . S
H479 C499 0.950 . S
H480 C501 0.950 . S
H481 C504 0.950 . S
H482 C505 0.950 . S
H483 C507 0.950 . S
H484 C508 0.950 . S
H485 C509 0.951 . S
H486 C511 0.951 . S
H487 C513 0.950 . S
H488 C514 0.950 . S
H489 C516 0.950 . S
H490 C519 0.950 . S
H491 C520 0.950 . S
H492 C522 0.950 . S
H493 C523 0.950 . S
C494 H476 0.951 . S
C494 C495 1.366 . S
C494 C496 1.388 . S
C495 C494 1.366 . S
C495 C499 1.385 . S
C496 H477 0.951 . S
C496 C494 1.388 . S
C496 C497 1.366 . S
C497 C496 1.366 . S
C497 C498 1.414 . S
C497 C500 1.499 . S
C498 H478 0.950 . S
C498 C497 1.414 . S
C498 C499 1.374 . S
C499 H479 0.950 . S
C499 C495 1.385 . S
C499 C498 1.374 . S
C500 C497 1.499 . S
C500 C501 1.373 . S
C500 C502 1.389 . S
C501 H480 0.950 . S
C501 C500 1.373 . S
C501 C517 1.377 . S
C502 C500 1.389 . S
C502 C503 1.524 . S
C502 C516 1.377 . S
C503 C502 1.524 . S
C503 C504 1.397 . S
C503 C508 1.363 . S
C504 H481 0.950 . S
C504 C503 1.397 . S
C504 C505 1.334 . S
C505 H482 0.950 . S
C505 C504 1.334 . S
C505 C506 1.287 . S
C506 C505 1.287 . S
C506 C507 1.524 . S
C506 H525 0.913 . S
C507 H483 0.950 . S
C507 C506 1.524 . S
C507 C508 1.415 . S
C508 H484 0.950 . S
C508 C503 1.363 . S
C508 C507 1.415 . S
C509 H485 0.951 . S
C509 C510 1.366 . S
C509 C511 1.388 . S
C510 C509 1.366 . S
C510 C514 1.385 . S
C511 H486 0.951 . S
C511 C509 1.388 . S
C511 C512 1.366 . S
C512 C511 1.366 . S
C512 C513 1.414 . S
C512 C515 1.499 . S
C513 H487 0.950 . S
C513 C512 1.414 . S
C513 C514 1.374 . S
C514 H488 0.950 . S
C514 C510 1.385 . S
C514 C513 1.374 . S
C515 C512 1.499 . S
C515 C516 1.373 . S
C515 C517 1.389 . S
C516 H489 0.950 . S
C516 C502 1.377 . S
C516 C515 1.373 . S
C517 C501 1.377 . S
C517 C515 1.389 . S
C517 C518 1.524 . S
C518 C517 1.524 . S
C518 C519 1.397 . S
C518 C523 1.363 . S
C519 H490 0.950 . S
C519 C518 1.397 . S
C519 C520 1.334 . S
C520 H491 0.950 . S
C520 C519 1.334 . S
C520 C521 1.287 . S
C521 C520 1.287 . S
C521 C522 1.524 . S
C521 H524 0.999 . S
C522 H492 0.950 . S
C522 C521 1.524 . S
C522 C523 1.415 . S
C523 H493 0.950 . S
C523 C518 1.363 . S
C523 C522 1.415 . S
H524 C521 0.999 . S
H525 C506 0.913 . S
H526 C544 0.951 . S
H527 C546 0.951 . S
H528 C548 0.950 . S
H529 C549 0.950 . S
H530 C551 0.950 . S
H531 C554 0.950 . S
H532 C555 0.950 . S
H533 C557 0.950 . S
H534 C558 0.950 . S
H535 C559 0.951 . S
H536 C561 0.951 . S
H537 C563 0.950 . S
H538 C564 0.950 . S
H539 C566 0.950 . S
H540 C569 0.950 . S
H541 C570 0.950 . S
H542 C572 0.950 . S
H543 C573 0.950 . S
C544 H526 0.951 . S
C544 C545 1.366 . S
C544 C546 1.388 . S
C545 C544 1.366 . S
C545 C549 1.385 . S
C546 H527 0.951 . S
C546 C544 1.388 . S
C546 C547 1.366 . S
C547 C546 1.366 . S
C547 C548 1.414 . S
C547 C550 1.499 . S
C548 H528 0.950 . S
C548 C547 1.414 . S
C548 C549 1.374 . S
C549 H529 0.950 . S
C549 C545 1.385 . S
C549 C548 1.374 . S
C550 C547 1.499 . S
C550 C551 1.373 . S
C550 C552 1.389 1_655 S
C551 H530 0.950 . S
C551 C550 1.373 . S
C551 C567 1.377 . S
C552 C550 1.389 1_455 S
C552 C553 1.524 . S
C552 C566 1.377 . S
C553 C552 1.524 . S
C553 C554 1.397 1_455 S
C553 C558 1.363 . S
C554 H531 0.950 . S
C554 C553 1.397 1_655 S
C554 C555 1.334 . S
C555 H532 0.950 . S
C555 C554 1.334 . S
C555 C556 1.287 1_655 S
C556 C555 1.287 1_455 S
C556 C557 1.524 . S
C556 H575 0.913 . S
C557 H533 0.950 . S
C557 C556 1.524 . S
C557 C558 1.415 . S
C558 H534 0.950 . S
C558 C553 1.363 . S
C558 C557 1.415 . S
C559 H535 0.951 . S
C559 C560 1.366 . S
C559 C561 1.388 . S
C560 C559 1.366 . S
C560 C564 1.385 . S
C561 H536 0.951 . S
C561 C559 1.388 . S
C561 C562 1.366 . S
C562 C561 1.366 . S
C562 C563 1.414 . S
C562 C565 1.499 . S
C563 H537 0.950 . S
C563 C562 1.414 . S
C563 C564 1.374 . S
C564 H538 0.950 . S
C564 C560 1.385 . S
C564 C563 1.374 . S
C565 C562 1.499 . S
C565 C566 1.373 . S
C565 C567 1.389 1_455 S
C566 H539 0.950 . S
C566 C552 1.377 . S
C566 C565 1.373 . S
C567 C551 1.377 . S
C567 C565 1.389 1_655 S
C567 C568 1.524 . S
C568 C567 1.524 . S
C568 C569 1.397 1_655 S
C568 C573 1.363 . S
C569 H540 0.950 . S
C569 C568 1.397 1_455 S
C569 C570 1.334 . S
C570 H541 0.950 . S
C570 C569 1.334 . S
C570 C571 1.287 1_455 S
C571 C570 1.287 1_655 S
C571 C572 1.524 . S
C571 H574 0.999 . S
C572 H542 0.950 . S
C572 C571 1.524 . S
C572 C573 1.415 . S
C573 H543 0.950 . S
C573 C568 1.363 . S
C573 C572 1.415 . S
H574 C571 0.999 . S
H575 C556 0.913 . S
H576 C594 0.951 . S
H577 C596 0.951 . S
H578 C598 0.950 . S
H579 C599 0.950 . S
H580 C601 0.950 . S
H581 C604 0.950 . S
H582 C605 0.950 . S
H583 C607 0.950 . S
H584 C608 0.950 . S
H585 C609 0.951 . S
H586 C611 0.951 . S
H587 C613 0.950 . S
H588 C614 0.950 . S
H589 C616 0.950 . S
H590 C619 0.950 . S
H591 C620 0.950 . S
H592 C622 0.950 . S
H593 C623 0.950 . S
C594 H576 0.951 . S
C594 C595 1.366 . S
C594 C596 1.388 . S
C595 C594 1.366 . S
C595 C599 1.385 . S
C596 H577 0.951 . S
C596 C594 1.388 . S
C596 C597 1.366 . S
C597 C596 1.366 . S
C597 C598 1.414 . S
C597 C600 1.499 . S
C598 H578 0.950 . S
C598 C597 1.414 . S
C598 C599 1.374 . S
C599 H579 0.950 . S
C599 C595 1.385 . S
C599 C598 1.374 . S
C600 C597 1.499 . S
C600 C601 1.373 1_556 S
C600 C602 1.389 . S
C601 H580 0.950 . S
C601 C600 1.373 1_554 S
C601 C617 1.377 . S
C602 C600 1.389 . S
C602 C603 1.524 . S
C602 C616 1.377 . S
C603 C602 1.524 . S
C603 C604 1.397 . S
C603 C608 1.363 . S
C604 H581 0.950 . S
C604 C603 1.397 . S
C604 C605 1.334 . S
C605 H582 0.950 . S
C605 C604 1.334 . S
C605 C606 1.287 . S
C606 C605 1.287 . S
C606 C607 1.524 . S
C606 H625 0.913 . S
C607 H583 0.950 . S
C607 C606 1.524 . S
C607 C608 1.415 . S
C608 H584 0.950 . S
C608 C603 1.363 . S
C608 C607 1.415 . S
C609 H585 0.951 . S
C609 C610 1.366 . S
C609 C611 1.388 . S
C610 C609 1.366 . S
C610 C614 1.385 . S
C611 H586 0.951 . S
C611 C609 1.388 . S
C611 C612 1.366 . S
C612 C611 1.366 . S
C612 C613 1.414 . S
C612 C615 1.499 . S
C613 H587 0.950 . S
C613 C612 1.414 . S
C613 C614 1.374 . S
C614 H588 0.950 . S
C614 C610 1.385 . S
C614 C613 1.374 . S
C615 C612 1.499 . S
C615 C616 1.373 1_554 S
C615 C617 1.389 . S
C616 H589 0.950 . S
C616 C602 1.377 . S
C616 C615 1.373 1_556 S
C617 C601 1.377 . S
C617 C615 1.389 . S
C617 C618 1.524 . S
C618 C617 1.524 . S
C618 C619 1.397 . S
C618 C623 1.363 . S
C619 H590 0.950 . S
C619 C618 1.397 . S
C619 C620 1.334 . S
C620 H591 0.950 . S
C620 C619 1.334 . S
C620 C621 1.287 . S
C621 C620 1.287 . S
C621 C622 1.524 . S
C621 H624 0.999 . S
C622 H592 0.950 . S
C622 C621 1.524 . S
C622 C623 1.415 . S
C623 H593 0.950 . S
C623 C618 1.363 . S
C623 C622 1.415 . S
H624 C621 0.999 . S
H625 C606 0.913 . S
H626 C644 0.951 . S
H627 C646 0.951 . S
H628 C648 0.950 . S
H629 C649 0.950 . S
H630 C651 0.950 . S
H631 C654 0.950 . S
H632 C655 0.950 . S
H633 C657 0.950 . S
H634 C658 0.950 . S
H635 C659 0.951 . S
H636 C661 0.951 . S
H637 C663 0.950 . S
H638 C664 0.950 . S
H639 C666 0.950 . S
H640 C669 0.950 . S
H641 C670 0.950 . S
H642 C672 0.950 . S
H643 C673 0.950 . S
C644 H626 0.951 . S
C644 C645 1.366 . S
C644 C646 1.388 . S
C645 C644 1.366 . S
C645 C649 1.385 . S
C646 H627 0.951 . S
C646 C644 1.388 . S
C646 C647 1.366 . S
C647 C646 1.366 . S
C647 C648 1.414 . S
C647 C650 1.499 . S
C648 H628 0.950 . S
C648 C647 1.414 . S
C648 C649 1.374 . S
C649 H629 0.950 . S
C649 C645 1.385 . S
C649 C648 1.374 . S
C650 C647 1.499 . S
C650 C651 1.373 . S
C650 C652 1.389 . S
C651 H630 0.950 . S
C651 C650 1.373 . S
C651 C667 1.377 . S
C652 C650 1.389 . S
C652 C653 1.524 . S
C652 C666 1.377 . S
C653 C652 1.524 . S
C653 C654 1.397 . S
C653 C658 1.363 . S
C654 H631 0.950 . S
C654 C653 1.397 . S
C654 C655 1.334 . S
C655 H632 0.950 . S
C655 C654 1.334 . S
C655 C656 1.287 . S
C656 C655 1.287 . S
C656 C657 1.524 . S
C656 H675 0.913 . S
C657 H633 0.950 . S
C657 C656 1.524 . S
C657 C658 1.415 . S
C658 H634 0.950 . S
C658 C653 1.363 . S
C658 C657 1.415 . S
C659 H635 0.951 . S
C659 C660 1.366 . S
C659 C661 1.388 . S
C660 C659 1.366 . S
C660 C664 1.385 . S
C661 H636 0.951 . S
C661 C659 1.388 . S
C661 C662 1.366 . S
C662 C661 1.366 . S
C662 C663 1.414 . S
C662 C665 1.499 . S
C663 H637 0.950 . S
C663 C662 1.414 . S
C663 C664 1.374 . S
C664 H638 0.950 . S
C664 C660 1.385 . S
C664 C663 1.374 . S
C665 C662 1.499 . S
C665 C666 1.373 . S
C665 C667 1.389 . S
C666 H639 0.950 . S
C666 C652 1.377 . S
C666 C665 1.373 . S
C667 C651 1.377 . S
C667 C665 1.389 . S
C667 C668 1.524 . S
C668 C667 1.524 . S
C668 C669 1.397 . S
C668 C673 1.363 . S
C669 H640 0.950 . S
C669 C668 1.397 . S
C669 C670 1.334 . S
C670 H641 0.950 . S
C670 C669 1.334 . S
C670 C671 1.287 . S
C671 C670 1.287 . S
C671 C672 1.524 . S
C671 H674 0.999 . S
C672 H642 0.950 . S
C672 C671 1.524 . S
C672 C673 1.415 . S
C673 H643 0.950 . S
C673 C668 1.363 . S
C673 C672 1.415 . S
H674 C671 0.999 . S
H675 C656 0.913 . S
H676 C694 0.951 . S
H677 C696 0.951 . S
H678 C698 0.950 . S
H679 C699 0.950 . S
H680 C701 0.950 . S
H681 C704 0.950 . S
H682 C705 0.950 . S
H683 C707 0.950 . S
H684 C708 0.950 . S
H685 C709 0.951 . S
H686 C711 0.951 . S
H687 C713 0.950 . S
H688 C714 0.950 . S
H689 C716 0.950 . S
H690 C719 0.950 . S
H691 C720 0.950 . S
H692 C722 0.950 . S
H693 C723 0.950 . S
C694 H676 0.951 . S
C694 C695 1.366 . S
C694 C696 1.388 . S
C695 C694 1.366 . S
C695 C699 1.385 . S
C696 H677 0.951 . S
C696 C694 1.388 . S
C696 C697 1.366 . S
C697 C696 1.366 . S
C697 C698 1.414 . S
C697 C700 1.499 . S
C698 H678 0.950 . S
C698 C697 1.414 . S
C698 C699 1.374 . S
C699 H679 0.950 . S
C699 C695 1.385 . S
C699 C698 1.374 . S
C700 C697 1.499 . S
C700 C701 1.373 . S
C700 C702 1.389 . S
C701 H680 0.950 . S
C701 C700 1.373 . S
C701 C717 1.377 . S
C702 C700 1.389 . S
C702 C703 1.524 . S
C702 C716 1.377 . S
C703 C702 1.524 . S
C703 C704 1.397 . S
C703 C708 1.363 . S
C704 H681 0.950 . S
C704 C703 1.397 . S
C704 C705 1.334 . S
C705 H682 0.950 . S
C705 C704 1.334 . S
C705 C706 1.287 . S
C706 C705 1.287 . S
C706 C707 1.524 . S
C706 H725 0.913 . S
C707 H683 0.950 . S
C707 C706 1.524 . S
C707 C708 1.415 . S
C708 H684 0.950 . S
C708 C703 1.363 . S
C708 C707 1.415 . S
C709 H685 0.951 . S
C709 C710 1.366 . S
C709 C711 1.388 . S
C710 C709 1.366 . S
C710 C714 1.385 . S
C711 H686 0.951 . S
C711 C709 1.388 . S
C711 C712 1.366 . S
C712 C711 1.366 . S
C712 C713 1.414 . S
C712 C715 1.499 . S
C713 H687 0.950 . S
C713 C712 1.414 . S
C713 C714 1.374 . S
C714 H688 0.950 . S
C714 C710 1.385 . S
C714 C713 1.374 . S
C715 C712 1.499 . S
C715 C716 1.373 . S
C715 C717 1.389 . S
C716 H689 0.950 . S
C716 C702 1.377 . S
C716 C715 1.373 . S
C717 C701 1.377 . S
C717 C715 1.389 . S
C717 C718 1.524 . S
C718 C717 1.524 . S
C718 C719 1.397 . S
C718 C723 1.363 . S
C719 H690 0.950 . S
C719 C718 1.397 . S
C719 C720 1.334 . S
C720 H691 0.950 . S
C720 C719 1.334 . S
C720 C721 1.287 . S
C721 C720 1.287 . S
C721 C722 1.524 . S
C721 H724 0.999 . S
C722 H692 0.950 . S
C722 C721 1.524 . S
C722 C723 1.415 . S
C723 H693 0.950 . S
C723 C718 1.363 . S
C723 C722 1.415 . S
H724 C721 0.999 . S
H725 C706 0.913 . S
H726 C744 0.951 . S
H727 C746 0.951 . S
H728 C748 0.950 1_554 S
H729 C749 0.950 . S
H730 C751 0.950 . S
H731 C754 0.950 . S
H732 C755 0.950 . S
H733 C757 0.950 . S
H734 C758 0.950 . S
H735 C759 0.951 . S
H736 C761 0.951 . S
H737 C763 0.950 1_556 S
H738 C764 0.950 . S
H739 C766 0.950 . S
H740 C769 0.950 . S
H741 C770 0.950 . S
H742 C772 0.950 . S
H743 C773 0.950 . S
C744 H726 0.951 . S
C744 C745 1.366 . S
C744 C746 1.388 . S
C745 C744 1.366 . S
C745 C749 1.385 . S
C746 H727 0.951 . S
C746 C744 1.388 . S
C746 C747 1.366 . S
C747 C746 1.366 . S
C747 C748 1.414 . S
C747 C750 1.499 . S
C748 H728 0.950 1_556 S
C748 C747 1.414 . S
C748 C749 1.374 . S
C749 H729 0.950 . S
C749 C745 1.385 . S
C749 C748 1.374 . S
C750 C747 1.499 . S
C750 C751 1.373 1_556 S
C750 C752 1.389 . S
C751 H730 0.950 . S
C751 C750 1.373 1_554 S
C751 C767 1.377 . S
C752 C750 1.389 . S
C752 C753 1.524 . S
C752 C766 1.377 . S
C753 C752 1.524 . S
C753 C754 1.397 . S
C753 C758 1.363 . S
C754 H731 0.950 . S
C754 C753 1.397 . S
C754 C755 1.334 . S
C755 H732 0.950 . S
C755 C754 1.334 . S
C755 C756 1.287 . S
C756 C755 1.287 . S
C756 C757 1.524 . S
C756 H775 0.913 . S
C757 H733 0.950 . S
C757 C756 1.524 . S
C757 C758 1.415 . S
C758 H734 0.950 . S
C758 C753 1.363 . S
C758 C757 1.415 . S
C759 H735 0.951 . S
C759 C760 1.366 . S
C759 C761 1.388 . S
C760 C759 1.366 . S
C760 C764 1.385 . S
C761 H736 0.951 . S
C761 C759 1.388 . S
C761 C762 1.366 . S
C762 C761 1.366 . S
C762 C763 1.414 . S
C762 C765 1.499 . S
C763 H737 0.950 1_554 S
C763 C762 1.414 . S
C763 C764 1.374 . S
C764 H738 0.950 . S
C764 C760 1.385 . S
C764 C763 1.374 . S
C765 C762 1.499 . S
C765 C766 1.373 1_554 S
C765 C767 1.389 . S
C766 H739 0.950 . S
C766 C752 1.377 . S
C766 C765 1.373 1_556 S
C767 C751 1.377 . S
C767 C765 1.389 . S
C767 C768 1.524 . S
C768 C767 1.524 . S
C768 C769 1.397 . S
C768 C773 1.363 . S
C769 H740 0.950 . S
C769 C768 1.397 . S
C769 C770 1.334 . S
C770 H741 0.950 . S
C770 C769 1.334 . S
C770 C771 1.287 . S
C771 C770 1.287 . S
C771 C772 1.524 . S
C771 H774 0.999 . S
C772 H742 0.950 . S
C772 C771 1.524 . S
C772 C773 1.415 . S
C773 H743 0.950 . S
C773 C768 1.363 . S
C773 C772 1.415 . S
H774 C771 0.999 . S
H775 C756 0.913 . S
H776 C794 0.951 . S
H777 C796 0.951 . S
H778 C798 0.950 . S
H779 C799 0.950 . S
H780 C801 0.950 . S
H781 C804 0.950 . S
H782 C805 0.950 . S
H783 C807 0.950 . S
H784 C808 0.950 . S
H785 C809 0.951 . S
H786 C811 0.951 . S
H787 C813 0.950 . S
H788 C814 0.950 . S
H789 C816 0.950 . S
H790 C819 0.950 . S
H791 C820 0.950 . S
H792 C822 0.950 . S
H793 C823 0.950 . S
C794 H776 0.951 . S
C794 C795 1.366 . S
C794 C796 1.388 . S
C795 C794 1.366 . S
C795 C799 1.385 . S
C796 H777 0.951 . S
C796 C794 1.388 . S
C796 C797 1.366 . S
C797 C796 1.366 . S
C797 C798 1.414 . S
C797 C800 1.499 . S
C798 H778 0.950 . S
C798 C797 1.414 . S
C798 C799 1.374 . S
C799 H779 0.950 . S
C799 C795 1.385 . S
C799 C798 1.374 . S
C800 C797 1.499 . S
C800 C801 1.373 . S
C800 C802 1.389 . S
C801 H780 0.950 . S
C801 C800 1.373 . S
C801 C817 1.377 . S
C802 C800 1.389 . S
C802 C803 1.524 . S
C802 C816 1.377 . S
C803 C802 1.524 . S
C803 C804 1.397 . S
C803 C808 1.363 . S
C804 H781 0.950 . S
C804 C803 1.397 . S
C804 C805 1.334 . S
C805 H782 0.950 . S
C805 C804 1.334 . S
C805 C806 1.287 . S
C806 C805 1.287 . S
C806 C807 1.524 . S
C806 H825 0.913 . S
C807 H783 0.950 . S
C807 C806 1.524 . S
C807 C808 1.415 . S
C808 H784 0.950 . S
C808 C803 1.363 . S
C808 C807 1.415 . S
C809 H785 0.951 . S
C809 C810 1.366 . S
C809 C811 1.388 . S
C810 C809 1.366 . S
C810 C814 1.385 . S
C811 H786 0.951 . S
C811 C809 1.388 . S
C811 C812 1.366 . S
C812 C811 1.366 . S
C812 C813 1.414 . S
C812 C815 1.499 . S
C813 H787 0.950 . S
C813 C812 1.414 . S
C813 C814 1.374 . S
C814 H788 0.950 . S
C814 C810 1.385 . S
C814 C813 1.374 . S
C815 C812 1.499 . S
C815 C816 1.373 . S
C815 C817 1.389 . S
C816 H789 0.950 . S
C816 C802 1.377 . S
C816 C815 1.373 . S
C817 C801 1.377 . S
C817 C815 1.389 . S
C817 C818 1.524 . S
C818 C817 1.524 . S
C818 C819 1.397 . S
C818 C823 1.363 . S
C819 H790 0.950 . S
C819 C818 1.397 . S
C819 C820 1.334 . S
C820 H791 0.950 . S
C820 C819 1.334 . S
C820 C821 1.287 . S
C821 C820 1.287 . S
C821 C822 1.524 . S
C821 H824 0.999 . S
C822 H792 0.950 . S
C822 C821 1.524 . S
C822 C823 1.415 . S
C823 H793 0.950 . S
C823 C818 1.363 . S
C823 C822 1.415 . S
H824 C821 0.999 . S
H825 C806 0.913 . S
H826 C844 0.951 . S
H827 C846 0.951 . S
H828 C848 0.950 . S
H829 C849 0.950 . S
H830 C851 0.950 . S
H831 C854 0.950 . S
H832 C855 0.950 . S
H833 C857 0.950 . S
H834 C858 0.950 . S
H835 C859 0.951 . S
H836 C861 0.951 . S
H837 C863 0.950 . S
H838 C864 0.950 . S
H839 C866 0.950 . S
H840 C869 0.950 . S
H841 C870 0.950 . S
H842 C872 0.950 . S
H843 C873 0.950 . S
C844 H826 0.951 . S
C844 C845 1.366 . S
C844 C846 1.388 . S
C845 C844 1.366 . S
C845 C849 1.385 . S
C846 H827 0.951 . S
C846 C844 1.388 . S
C846 C847 1.366 . S
C847 C846 1.366 . S
C847 C848 1.414 . S
C847 C850 1.499 . S
C848 H828 0.950 . S
C848 C847 1.414 . S
C848 C849 1.374 . S
C849 H829 0.950 . S
C849 C845 1.385 . S
C849 C848 1.374 . S
C850 C847 1.499 . S
C850 C851 1.373 . S
C850 C852 1.389 . S
C851 H830 0.950 . S
C851 C850 1.373 . S
C851 C867 1.377 . S
C852 C850 1.389 . S
C852 C853 1.524 . S
C852 C866 1.377 . S
C853 C852 1.524 . S
C853 C854 1.397 . S
C853 C858 1.363 . S
C854 H831 0.950 . S
C854 C853 1.397 . S
C854 C855 1.334 . S
C855 H832 0.950 . S
C855 C854 1.334 . S
C855 C856 1.287 . S
C856 C855 1.287 . S
C856 C857 1.524 . S
C856 H875 0.913 . S
C857 H833 0.950 . S
C857 C856 1.524 . S
C857 C858 1.415 . S
C858 H834 0.950 . S
C858 C853 1.363 . S
C858 C857 1.415 . S
C859 H835 0.951 . S
C859 C860 1.366 . S
C859 C861 1.388 . S
C860 C859 1.366 . S
C860 C864 1.385 . S
C861 H836 0.951 . S
C861 C859 1.388 . S
C861 C862 1.366 . S
C862 C861 1.366 . S
C862 C863 1.414 . S
C862 C865 1.499 . S
C863 H837 0.950 . S
C863 C862 1.414 . S
C863 C864 1.374 . S
C864 H838 0.950 . S
C864 C860 1.385 . S
C864 C863 1.374 . S
C865 C862 1.499 . S
C865 C866 1.373 . S
C865 C867 1.389 . S
C866 H839 0.950 . S
C866 C852 1.377 . S
C866 C865 1.373 . S
C867 C851 1.377 . S
C867 C865 1.389 . S
C867 C868 1.524 . S
C868 C867 1.524 . S
C868 C869 1.397 . S
C868 C873 1.363 . S
C869 H840 0.950 . S
C869 C868 1.397 . S
C869 C870 1.334 . S
C870 H841 0.950 . S
C870 C869 1.334 . S
C870 C871 1.287 . S
C871 C870 1.287 . S
C871 C872 1.524 . S
C871 H874 0.999 . S
C872 H842 0.950 . S
C872 C871 1.524 . S
C872 C873 1.415 . S
C873 H843 0.950 . S
C873 C868 1.363 . S
C873 C872 1.415 . S
H874 C871 0.999 . S
H875 C856 0.913 . S
H876 C894 0.951 . S
H877 C896 0.951 . S
H878 C898 0.950 . S
H879 C899 0.950 . S
H880 C901 0.950 . S
H881 C904 0.950 . S
H882 C905 0.950 . S
H883 C907 0.950 . S
H884 C908 0.950 . S
H885 C909 0.951 . S
H886 C911 0.951 . S
H887 C913 0.950 . S
H888 C914 0.950 . S
H889 C916 0.950 . S
H890 C919 0.950 . S
H891 C920 0.950 . S
H892 C922 0.950 . S
H893 C923 0.950 . S
C894 H876 0.951 . S
C894 C895 1.366 . S
C894 C896 1.388 . S
C895 C894 1.366 . S
C895 C899 1.385 . S
C896 H877 0.951 . S
C896 C894 1.388 . S
C896 C897 1.366 . S
C897 C896 1.366 . S
C897 C898 1.414 . S
C897 C900 1.499 . S
C898 H878 0.950 . S
C898 C897 1.414 . S
C898 C899 1.374 . S
C899 H879 0.950 . S
C899 C895 1.385 . S
C899 C898 1.374 . S
C900 C897 1.499 . S
C900 C901 1.373 . S
C900 C902 1.389 . S
C901 H880 0.950 . S
C901 C900 1.373 . S
C901 C917 1.377 . S
C902 C900 1.389 . S
C902 C903 1.524 . S
C902 C916 1.377 . S
C903 C902 1.524 . S
C903 C904 1.397 . S
C903 C908 1.363 . S
C904 H881 0.950 . S
C904 C903 1.397 . S
C904 C905 1.334 . S
C905 H882 0.950 . S
C905 C904 1.334 . S
C905 C906 1.287 . S
C906 C905 1.287 . S
C906 C907 1.524 . S
C906 H925 0.913 . S
C907 H883 0.950 . S
C907 C906 1.524 . S
C907 C908 1.415 . S
C908 H884 0.950 . S
C908 C903 1.363 . S
C908 C907 1.415 . S
C909 H885 0.951 . S
C909 C910 1.366 . S
C909 C911 1.388 . S
C910 C909 1.366 . S
C910 C914 1.385 . S
C911 H886 0.951 . S
C911 C909 1.388 . S
C911 C912 1.366 . S
C912 C911 1.366 . S
C912 C913 1.414 . S
C912 C915 1.499 . S
C913 H887 0.950 . S
C913 C912 1.414 . S
C913 C914 1.374 . S
C914 H888 0.950 . S
C914 C910 1.385 . S
C914 C913 1.374 . S
C915 C912 1.499 . S
C915 C916 1.373 . S
C915 C917 1.389 . S
C916 H889 0.950 . S
C916 C902 1.377 . S
C916 C915 1.373 . S
C917 C901 1.377 . S
C917 C915 1.389 . S
C917 C918 1.524 . S
C918 C917 1.524 . S
C918 C919 1.397 . S
C918 C923 1.363 . S
C919 H890 0.950 . S
C919 C918 1.397 . S
C919 C920 1.334 . S
C920 H891 0.950 . S
C920 C919 1.334 . S
C920 C921 1.287 . S
C921 C920 1.287 . S
C921 C922 1.524 . S
C921 H924 0.999 . S
C922 H892 0.950 . S
C922 C921 1.524 . S
C922 C923 1.415 . S
C923 H893 0.950 . S
C923 C918 1.363 . S
C923 C922 1.415 . S
H924 C921 0.999 . S
H925 C906 0.913 . S
H926 C944 0.951 . S
H927 C946 0.951 . S
H928 C948 0.950 . S
H929 C949 0.950 . S
H930 C951 0.950 . S
H931 C954 0.950 . S
H932 C955 0.950 . S
H933 C957 0.950 . S
H934 C958 0.950 . S
H935 C959 0.951 . S
H936 C961 0.951 . S
H937 C963 0.950 . S
H938 C964 0.950 . S
H939 C966 0.950 . S
H940 C969 0.950 . S
H941 C970 0.950 . S
H942 C972 0.950 . S
H943 C973 0.950 . S
C944 H926 0.951 . S
C944 C945 1.366 . S
C944 C946 1.388 . S
C945 C944 1.366 . S
C945 C949 1.385 . S
C946 H927 0.951 . S
C946 C944 1.388 . S
C946 C947 1.366 . S
C947 C946 1.366 . S
C947 C948 1.414 . S
C947 C950 1.499 . S
C948 H928 0.950 . S
C948 C947 1.414 . S
C948 C949 1.374 . S
C949 H929 0.950 . S
C949 C945 1.385 . S
C949 C948 1.374 . S
C950 C947 1.499 . S
C950 C951 1.373 . S
C950 C952 1.389 . S
C951 H930 0.950 . S
C951 C950 1.373 . S
C951 C967 1.377 . S
C952 C950 1.389 . S
C952 C953 1.524 . S
C952 C966 1.377 . S
C953 C952 1.524 . S
C953 C954 1.397 . S
C953 C958 1.363 . S
C954 H931 0.950 . S
C954 C953 1.397 . S
C954 C955 1.334 . S
C955 H932 0.950 . S
C955 C954 1.334 . S
C955 C956 1.287 . S
C956 C955 1.287 . S
C956 C957 1.524 . S
C956 H975 0.913 . S
C957 H933 0.950 . S
C957 C956 1.524 . S
C957 C958 1.415 . S
C958 H934 0.950 . S
C958 C953 1.363 . S
C958 C957 1.415 . S
C959 H935 0.951 . S
C959 C960 1.366 . S
C959 C961 1.388 . S
C960 C959 1.366 . S
C960 C964 1.385 . S
C961 H936 0.951 . S
C961 C959 1.388 . S
C961 C962 1.366 . S
C962 C961 1.366 . S
C962 C963 1.414 . S
C962 C965 1.499 . S
C963 H937 0.950 . S
C963 C962 1.414 . S
C963 C964 1.374 . S
C964 H938 0.950 . S
C964 C960 1.385 . S
C964 C963 1.374 . S
C965 C962 1.499 . S
C965 C966 1.373 . S
C965 C967 1.389 . S
C966 H939 0.950 . S
C966 C952 1.377 . S
C966 C965 1.373 . S
C967 C951 1.377 . S
C967 C965 1.389 . S
C967 C968 1.524 . S
C968 C967 1.524 . S
C968 C969 1.397 . S
C968 C973 1.363 . S
C969 H940 0.950 . S
C969 C968 1.397 . S
C969 C970 1.334 . S
C970 H941 0.950 . S
C970 C969 1.334 . S
C970 C971 1.287 . S
C971 C970 1.287 . S
C971 C972 1.524 . S
C971 H974 0.999 . S
C972 H942 0.950 . S
C972 C971 1.524 . S
C972 C973 1.415 . S
C973 H943 0.950 . S
C973 C968 1.363 . S
C973 C972 1.415 . S
H974 C971 0.999 . S
H975 C956 0.913 . S
H976 C994 0.951 . S
H977 C996 0.951 . S
H978 C998 0.950 . S
H979 C999 0.950 . S
H980 C1001 0.950 . S
H981 C1004 0.950 . S
H982 C1005 0.950 . S
H983 C1007 0.950 . S
H984 C1008 0.950 . S
H985 C1009 0.951 . S
H986 C1011 0.951 . S
H987 C1013 0.950 . S
H988 C1014 0.950 . S
H989 C1016 0.950 . S
H990 C1019 0.950 . S
H991 C1020 0.950 . S
H992 C1022 0.950 . S
H993 C1023 0.950 . S
C994 H976 0.951 . S
C994 C995 1.366 . S
C994 C996 1.388 . S
C995 C994 1.366 . S
C995 C999 1.385 . S
C996 H977 0.951 . S
C996 C994 1.388 . S
C996 C997 1.366 . S
C997 C996 1.366 . S
C997 C998 1.414 . S
C997 C1000 1.499 . S
C998 H978 0.950 . S
C998 C997 1.414 . S
C998 C999 1.374 . S
C999 H979 0.950 . S
C999 C995 1.385 . S
C999 C998 1.374 . S
C1000 C997 1.499 . S
C1000 C1001 1.373 . S
C1000 C1002 1.389 . S
C1001 H980 0.950 . S
C1001 C1000 1.373 . S
C1001 C1017 1.377 . S
C1002 C1000 1.389 . S
C1002 C1003 1.524 . S
C1002 C1016 1.377 . S
C1003 C1002 1.524 . S
C1003 C1004 1.397 . S
C1003 C1008 1.363 . S
C1004 H981 0.950 . S
C1004 C1003 1.397 . S
C1004 C1005 1.334 . S
C1005 H982 0.950 . S
C1005 C1004 1.334 . S
C1005 C1006 1.287 . S
C1006 C1005 1.287 . S
C1006 C1007 1.524 . S
C1006 H1025 0.913 . S
C1007 H983 0.950 . S
C1007 C1006 1.524 . S
C1007 C1008 1.415 . S
C1008 H984 0.950 . S
C1008 C1003 1.363 . S
C1008 C1007 1.415 . S
C1009 H985 0.951 . S
C1009 C1010 1.366 . S
C1009 C1011 1.388 . S
C1010 C1009 1.366 . S
C1010 C1014 1.385 . S
C1011 H986 0.951 . S
C1011 C1009 1.388 . S
C1011 C1012 1.366 . S
C1012 C1011 1.366 . S
C1012 C1013 1.414 . S
C1012 C1015 1.499 . S
C1013 H987 0.950 . S
C1013 C1012 1.414 . S
C1013 C1014 1.374 . S
C1014 H988 0.950 . S
C1014 C1010 1.385 . S
C1014 C1013 1.374 . S
C1015 C1012 1.499 . S
C1015 C1016 1.373 . S
C1015 C1017 1.389 . S
C1016 H989 0.950 . S
C1016 C1002 1.377 . S
C1016 C1015 1.373 . S
C1017 C1001 1.377 . S
C1017 C1015 1.389 . S
C1017 C1018 1.524 . S
C1018 C1017 1.524 . S
C1018 C1019 1.397 . S
C1018 C1023 1.363 . S
C1019 H990 0.950 . S
C1019 C1018 1.397 . S
C1019 C1020 1.334 . S
C1020 H991 0.950 . S
C1020 C1019 1.334 . S
C1020 C1021 1.287 . S
C1021 C1020 1.287 . S
C1021 C1022 1.524 . S
C1021 H1024 0.999 . S
C1022 H992 0.950 . S
C1022 C1021 1.524 . S
C1022 C1023 1.415 . S
C1023 H993 0.950 . S
C1023 C1018 1.363 . S
C1023 C1022 1.415 . S
H1024 C1021 0.999 . S
H1025 C1006 0.913 . S
H1026 C1044 0.951 . S
H1027 C1046 0.951 . S
H1028 C1048 0.950 . S
H1029 C1049 0.950 . S
H1030 C1051 0.950 . S
H1031 C1054 0.950 . S
H1032 C1055 0.950 . S
H1033 C1057 0.950 . S
H1034 C1058 0.950 . S
H1035 C1059 0.951 . S
H1036 C1061 0.951 . S
H1037 C1063 0.950 . S
H1038 C1064 0.950 . S
H1039 C1066 0.950 . S
H1040 C1069 0.950 . S
H1041 C1070 0.950 . S
H1042 C1072 0.950 . S
H1043 C1073 0.950 . S
C1044 H1026 0.951 . S
C1044 C1045 1.366 . S
C1044 C1046 1.388 . S
C1045 C1044 1.366 . S
C1045 C1049 1.385 . S
C1046 H1027 0.951 . S
C1046 C1044 1.388 . S
C1046 C1047 1.366 . S
C1047 C1046 1.366 . S
C1047 C1048 1.414 . S
C1047 C1050 1.499 . S
C1048 H1028 0.950 . S
C1048 C1047 1.414 . S
C1048 C1049 1.374 . S
C1049 H1029 0.950 . S
C1049 C1045 1.385 . S
C1049 C1048 1.374 . S
C1050 C1047 1.499 . S
C1050 C1051 1.373 . S
C1050 C1052 1.389 . S
C1051 H1030 0.950 . S
C1051 C1050 1.373 . S
C1051 C1067 1.377 . S
C1052 C1050 1.389 . S
C1052 C1053 1.524 . S
C1052 C1066 1.377 . S
C1053 C1052 1.524 . S
C1053 C1054 1.397 . S
C1053 C1058 1.363 . S
C1054 H1031 0.950 . S
C1054 C1053 1.397 . S
C1054 C1055 1.334 . S
C1055 H1032 0.950 . S
C1055 C1054 1.334 . S
C1055 C1056 1.287 . S
C1056 C1055 1.287 . S
C1056 C1057 1.524 . S
C1056 H1075 0.913 . S
C1057 H1033 0.950 . S
C1057 C1056 1.524 . S
C1057 C1058 1.415 . S
C1058 H1034 0.950 . S
C1058 C1053 1.363 . S
C1058 C1057 1.415 . S
C1059 H1035 0.951 . S
C1059 C1060 1.366 . S
C1059 C1061 1.388 . S
C1060 C1059 1.366 . S
C1060 C1064 1.385 . S
C1061 H1036 0.951 . S
C1061 C1059 1.388 . S
C1061 C1062 1.366 . S
C1062 C1061 1.366 . S
C1062 C1063 1.414 . S
C1062 C1065 1.499 . S
C1063 H1037 0.950 . S
C1063 C1062 1.414 . S
C1063 C1064 1.374 . S
C1064 H1038 0.950 . S
C1064 C1060 1.385 . S
C1064 C1063 1.374 . S
C1065 C1062 1.499 . S
C1065 C1066 1.373 . S
C1065 C1067 1.389 . S
C1066 H1039 0.950 . S
C1066 C1052 1.377 . S
C1066 C1065 1.373 . S
C1067 C1051 1.377 . S
C1067 C1065 1.389 . S
C1067 C1068 1.524 . S
C1068 C1067 1.524 . S
C1068 C1069 1.397 . S
C1068 C1073 1.363 . S
C1069 H1040 0.950 . S
C1069 C1068 1.397 . S
C1069 C1070 1.334 . S
C1070 H1041 0.950 . S
C1070 C1069 1.334 . S
C1070 C1071 1.287 . S
C1071 C1070 1.287 . S
C1071 C1072 1.524 . S
C1071 H1074 0.999 . S
C1072 H1042 0.950 . S
C1072 C1071 1.524 . S
C1072 C1073 1.415 . S
C1073 H1043 0.950 . S
C1073 C1068 1.363 . S
C1073 C1072 1.415 . S
H1074 C1071 0.999 . S
H1075 C1056 0.913 . S
H1076 C1094 0.951 . S
H1077 C1096 0.951 . S
H1078 C1098 0.950 . S
H1079 C1099 0.950 . S
H1080 C1101 0.950 . S
H1081 C1104 0.950 . S
H1082 C1105 0.950 . S
H1083 C1107 0.950 . S
H1084 C1108 0.950 . S
H1085 C1109 0.951 . S
H1086 C1111 0.951 . S
H1087 C1113 0.950 . S
H1088 C1114 0.950 . S
H1089 C1116 0.950 . S
H1090 C1119 0.950 . S
H1091 C1120 0.950 . S
H1092 C1122 0.950 . S
H1093 C1123 0.950 . S
C1094 H1076 0.951 . S
C1094 C1095 1.366 . S
C1094 C1096 1.388 . S
C1095 C1094 1.366 . S
C1095 C1099 1.385 . S
C1096 H1077 0.951 . S
C1096 C1094 1.388 . S
C1096 C1097 1.366 . S
C1097 C1096 1.366 . S
C1097 C1098 1.414 . S
C1097 C1100 1.499 . S
C1098 H1078 0.950 . S
C1098 C1097 1.414 . S
C1098 C1099 1.374 . S
C1099 H1079 0.950 . S
C1099 C1095 1.385 . S
C1099 C1098 1.374 . S
C1100 C1097 1.499 . S
C1100 C1101 1.373 . S
C1100 C1102 1.389 . S
C1101 H1080 0.950 . S
C1101 C1100 1.373 . S
C1101 C1117 1.377 . S
C1102 C1100 1.389 . S
C1102 C1103 1.524 . S
C1102 C1116 1.377 . S
C1103 C1102 1.524 . S
C1103 C1104 1.397 . S
C1103 C1108 1.363 . S
C1104 H1081 0.950 . S
C1104 C1103 1.397 . S
C1104 C1105 1.334 . S
C1105 H1082 0.950 . S
C1105 C1104 1.334 . S
C1105 C1106 1.287 . S
C1106 C1105 1.287 . S
C1106 C1107 1.524 . S
C1106 H1125 0.913 . S
C1107 H1083 0.950 . S
C1107 C1106 1.524 . S
C1107 C1108 1.415 . S
C1108 H1084 0.950 . S
C1108 C1103 1.363 . S
C1108 C1107 1.415 . S
C1109 H1085 0.951 . S
C1109 C1110 1.366 . S
C1109 C1111 1.388 . S
C1110 C1109 1.366 . S
C1110 C1114 1.385 . S
C1111 H1086 0.951 . S
C1111 C1109 1.388 . S
C1111 C1112 1.366 . S
C1112 C1111 1.366 . S
C1112 C1113 1.414 . S
C1112 C1115 1.499 . S
C1113 H1087 0.950 . S
C1113 C1112 1.414 . S
C1113 C1114 1.374 . S
C1114 H1088 0.950 . S
C1114 C1110 1.385 . S
C1114 C1113 1.374 . S
C1115 C1112 1.499 . S
C1115 C1116 1.373 . S
C1115 C1117 1.389 . S
C1116 H1089 0.950 . S
C1116 C1102 1.377 . S
C1116 C1115 1.373 . S
C1117 C1101 1.377 . S
C1117 C1115 1.389 . S
C1117 C1118 1.524 . S
C1118 C1117 1.524 . S
C1118 C1119 1.397 . S
C1118 C1123 1.363 . S
C1119 H1090 0.950 . S
C1119 C1118 1.397 . S
C1119 C1120 1.334 . S
C1120 H1091 0.950 . S
C1120 C1119 1.334 . S
C1120 C1121 1.287 . S
C1121 C1120 1.287 . S
C1121 C1122 1.524 . S
C1121 H1124 0.999 . S
C1122 H1092 0.950 . S
C1122 C1121 1.524 . S
C1122 C1123 1.415 . S
C1123 H1093 0.950 . S
C1123 C1118 1.363 . S
C1123 C1122 1.415 . S
H1124 C1121 0.999 . S
H1125 C1106 0.913 . S
H1126 C1144 0.951 . S
H1127 C1146 0.951 . S
H1128 C1148 0.950 . S
H1129 C1149 0.950 . S
H1130 C1151 0.950 . S
H1131 C1154 0.950 . S
H1132 C1155 0.950 . S
H1133 C1157 0.950 . S
H1134 C1158 0.950 . S
H1135 C1159 0.951 . S
H1136 C1161 0.951 . S
H1137 C1163 0.950 . S
H1138 C1164 0.950 . S
H1139 C1166 0.950 . S
H1140 C1169 0.950 . S
H1141 C1170 0.950 . S
H1142 C1172 0.950 . S
H1143 C1173 0.950 . S
C1144 H1126 0.951 . S
C1144 C1145 1.366 . S
C1144 C1146 1.388 . S
C1145 C1144 1.366 . S
C1145 C1149 1.385 . S
C1146 H1127 0.951 . S
C1146 C1144 1.388 . S
C1146 C1147 1.366 . S
C1147 C1146 1.366 . S
C1147 C1148 1.414 . S
C1147 C1150 1.499 . S
C1148 H1128 0.950 . S
C1148 C1147 1.414 . S
C1148 C1149 1.374 . S
C1149 H1129 0.950 . S
C1149 C1145 1.385 . S
C1149 C1148 1.374 . S
C1150 C1147 1.499 . S
C1150 C1151 1.373 . S
C1150 C1152 1.389 . S
C1151 H1130 0.950 . S
C1151 C1150 1.373 . S
C1151 C1167 1.377 . S
C1152 C1150 1.389 . S
C1152 C1153 1.524 . S
C1152 C1166 1.377 . S
C1153 C1152 1.524 . S
C1153 C1154 1.397 . S
C1153 C1158 1.363 . S
C1154 H1131 0.950 . S
C1154 C1153 1.397 . S
C1154 C1155 1.334 . S
C1155 H1132 0.950 . S
C1155 C1154 1.334 . S
C1155 C1156 1.287 . S
C1156 C1155 1.287 . S
C1156 C1157 1.524 . S
C1156 H1175 0.913 . S
C1157 H1133 0.950 . S
C1157 C1156 1.524 . S
C1157 C1158 1.415 . S
C1158 H1134 0.950 . S
C1158 C1153 1.363 . S
C1158 C1157 1.415 . S
C1159 H1135 0.951 . S
C1159 C1160 1.366 . S
C1159 C1161 1.388 . S
C1160 C1159 1.366 . S
C1160 C1164 1.385 . S
C1161 H1136 0.951 . S
C1161 C1159 1.388 . S
C1161 C1162 1.366 . S
C1162 C1161 1.366 . S
C1162 C1163 1.414 . S
C1162 C1165 1.499 . S
C1163 H1137 0.950 . S
C1163 C1162 1.414 . S
C1163 C1164 1.374 . S
C1164 H1138 0.950 . S
C1164 C1160 1.385 . S
C1164 C1163 1.374 . S
C1165 C1162 1.499 . S
C1165 C1166 1.373 . S
C1165 C1167 1.389 . S
C1166 H1139 0.950 . S
C1166 C1152 1.377 . S
C1166 C1165 1.373 . S
C1167 C1151 1.377 . S
C1167 C1165 1.389 . S
C1167 C1168 1.524 . S
C1168 C1167 1.524 . S
C1168 C1169 1.397 . S
C1168 C1173 1.363 . S
C1169 H1140 0.950 . S
C1169 C1168 1.397 . S
C1169 C1170 1.334 . S
C1170 H1141 0.950 . S
C1170 C1169 1.334 . S
C1170 C1171 1.287 . S
C1171 C1170 1.287 . S
C1171 C1172 1.524 . S
C1171 H1174 0.999 . S
C1172 H1142 0.950 . S
C1172 C1171 1.524 . S
C1172 C1173 1.415 . S
C1173 H1143 0.950 . S
C1173 C1168 1.363 . S
C1173 C1172 1.415 . S
H1174 C1171 0.999 . S
H1175 C1156 0.913 . S
H1176 C1194 0.951 . S
H1177 C1196 0.951 . S
H1178 C1198 0.950 . S
H1179 C1199 0.950 . S
H1180 C1201 0.950 . S
H1181 C1204 0.950 . S
H1182 C1205 0.950 . S
H1183 C1207 0.950 . S
H1184 C1208 0.950 . S
H1185 C1209 0.951 . S
H1186 C1211 0.951 . S
H1187 C1213 0.950 . S
H1188 C1214 0.950 . S
H1189 C1216 0.950 . S
H1190 C1219 0.950 . S
H1191 C1220 0.950 . S
H1192 C1222 0.950 . S
H1193 C1223 0.950 . S
C1194 H1176 0.951 . S
C1194 C1195 1.366 . S
C1194 C1196 1.388 . S
C1195 C1194 1.366 . S
C1195 C1199 1.385 . S
C1196 H1177 0.951 . S
C1196 C1194 1.388 . S
C1196 C1197 1.366 . S
C1197 C1196 1.366 . S
C1197 C1198 1.414 . S
C1197 C1200 1.499 . S
C1198 H1178 0.950 . S
C1198 C1197 1.414 . S
C1198 C1199 1.374 . S
C1199 H1179 0.950 . S
C1199 C1195 1.385 . S
C1199 C1198 1.374 . S
C1200 C1197 1.499 . S
C1200 C1201 1.373 . S
C1200 C1202 1.389 . S
C1201 H1180 0.950 . S
C1201 C1200 1.373 . S
C1201 C1217 1.377 . S
C1202 C1200 1.389 . S
C1202 C1203 1.524 . S
C1202 C1216 1.377 . S
C1203 C1202 1.524 . S
C1203 C1204 1.397 . S
C1203 C1208 1.363 . S
C1204 H1181 0.950 . S
C1204 C1203 1.397 . S
C1204 C1205 1.334 . S
C1205 H1182 0.950 . S
C1205 C1204 1.334 . S
C1205 C1206 1.287 . S
C1206 C1205 1.287 . S
C1206 C1207 1.524 . S
C1206 H1225 0.913 . S
C1207 H1183 0.950 . S
C1207 C1206 1.524 . S
C1207 C1208 1.415 . S
C1208 H1184 0.950 . S
C1208 C1203 1.363 . S
C1208 C1207 1.415 . S
C1209 H1185 0.951 . S
C1209 C1210 1.366 . S
C1209 C1211 1.388 . S
C1210 C1209 1.366 . S
C1210 C1214 1.385 . S
C1211 H1186 0.951 . S
C1211 C1209 1.388 . S
C1211 C1212 1.366 . S
C1212 C1211 1.366 . S
C1212 C1213 1.414 . S
C1212 C1215 1.499 . S
C1213 H1187 0.950 . S
C1213 C1212 1.414 . S
C1213 C1214 1.374 . S
C1214 H1188 0.950 . S
C1214 C1210 1.385 . S
C1214 C1213 1.374 . S
C1215 C1212 1.499 . S
C1215 C1216 1.373 . S
C1215 C1217 1.389 . S
C1216 H1189 0.950 . S
C1216 C1202 1.377 . S
C1216 C1215 1.373 . S
C1217 C1201 1.377 . S
C1217 C1215 1.389 . S
C1217 C1218 1.524 . S
C1218 C1217 1.524 . S
C1218 C1219 1.397 . S
C1218 C1223 1.363 . S
C1219 H1190 0.950 . S
C1219 C1218 1.397 . S
C1219 C1220 1.334 . S
C1220 H1191 0.950 . S
C1220 C1219 1.334 . S
C1220 C1221 1.287 . S
C1221 C1220 1.287 . S
C1221 C1222 1.524 . S
C1221 H1224 0.999 . S
C1222 H1192 0.950 . S
C1222 C1221 1.524 . S
C1222 C1223 1.415 . S
C1223 H1193 0.950 . S
C1223 C1218 1.363 . S
C1223 C1222 1.415 . S
H1224 C1221 0.999 . S
H1225 C1206 0.913 . S
H1226 C1244 0.951 . S
H1227 C1246 0.951 . S
H1228 C1248 0.950 . S
H1229 C1249 0.950 . S
H1230 C1251 0.950 . S
H1231 C1254 0.950 . S
H1232 C1255 0.950 . S
H1233 C1257 0.950 . S
H1234 C1258 0.950 . S
H1235 C1259 0.951 . S
H1236 C1261 0.951 . S
H1237 C1263 0.950 . S
H1238 C1264 0.950 . S
H1239 C1266 0.950 . S
H1240 C1269 0.950 . S
H1241 C1270 0.950 . S
H1242 C1272 0.950 . S
H1243 C1273 0.950 . S
C1244 H1226 0.951 . S
C1244 C1245 1.366 . S
C1244 C1246 1.388 . S
C1245 C1244 1.366 . S
C1245 C1249 1.385 . S
C1246 H1227 0.951 . S
C1246 C1244 1.388 . S
C1246 C1247 1.366 . S
C1247 C1246 1.366 . S
C1247 C1248 1.414 . S
C1247 C1250 1.499 . S
C1248 H1228 0.950 . S
C1248 C1247 1.414 . S
C1248 C1249 1.374 . S
C1249 H1229 0.950 . S
C1249 C1245 1.385 . S
C1249 C1248 1.374 . S
C1250 C1247 1.499 . S
C1250 C1251 1.373 . S
C1250 C1252 1.389 1_655 S
C1251 H1230 0.950 . S
C1251 C1250 1.373 . S
C1251 C1267 1.377 . S
C1252 C1250 1.389 1_455 S
C1252 C1253 1.524 . S
C1252 C1266 1.377 . S
C1253 C1252 1.524 . S
C1253 C1254 1.397 1_455 S
C1253 C1258 1.363 . S
C1254 H1231 0.950 . S
C1254 C1253 1.397 1_655 S
C1254 C1255 1.334 . S
C1255 H1232 0.950 . S
C1255 C1254 1.334 . S
C1255 C1256 1.287 1_655 S
C1256 C1255 1.287 1_455 S
C1256 C1257 1.524 . S
C1256 H1275 0.913 . S
C1257 H1233 0.950 . S
C1257 C1256 1.524 . S
C1257 C1258 1.415 . S
C1258 H1234 0.950 . S
C1258 C1253 1.363 . S
C1258 C1257 1.415 . S
C1259 H1235 0.951 . S
C1259 C1260 1.366 . S
C1259 C1261 1.388 . S
C1260 C1259 1.366 . S
C1260 C1264 1.385 . S
C1261 H1236 0.951 . S
C1261 C1259 1.388 . S
C1261 C1262 1.366 . S
C1262 C1261 1.366 . S
C1262 C1263 1.414 . S
C1262 C1265 1.499 . S
C1263 H1237 0.950 . S
C1263 C1262 1.414 . S
C1263 C1264 1.374 . S
C1264 H1238 0.950 . S
C1264 C1260 1.385 . S
C1264 C1263 1.374 . S
C1265 C1262 1.499 . S
C1265 C1266 1.373 . S
C1265 C1267 1.389 1_455 S
C1266 H1239 0.950 . S
C1266 C1252 1.377 . S
C1266 C1265 1.373 . S
C1267 C1251 1.377 . S
C1267 C1265 1.389 1_655 S
C1267 C1268 1.524 . S
C1268 C1267 1.524 . S
C1268 C1269 1.397 1_655 S
C1268 C1273 1.363 . S
C1269 H1240 0.950 . S
C1269 C1268 1.397 1_455 S
C1269 C1270 1.334 . S
C1270 H1241 0.950 . S
C1270 C1269 1.334 . S
C1270 C1271 1.287 1_455 S
C1271 C1270 1.287 1_655 S
C1271 C1272 1.524 . S
C1271 H1274 0.999 . S
C1272 H1242 0.950 . S
C1272 C1271 1.524 . S
C1272 C1273 1.415 . S
C1273 H1243 0.950 . S
C1273 C1268 1.363 . S
C1273 C1272 1.415 . S
H1274 C1271 0.999 . S
H1275 C1256 0.913 . S
H1276 C1294 0.951 . S
H1277 C1296 0.951 . S
H1278 C1298 0.950 . S
H1279 C1299 0.950 . S
H1280 C1301 0.950 . S
H1281 C1304 0.950 . S
H1282 C1305 0.950 . S
H1283 C1307 0.950 . S
H1284 C1308 0.950 . S
H1285 C1309 0.951 . S
H1286 C1311 0.951 . S
H1287 C1313 0.950 . S
H1288 C1314 0.950 . S
H1289 C1316 0.950 . S
H1290 C1319 0.950 . S
H1291 C1320 0.950 . S
H1292 C1322 0.950 . S
H1293 C1323 0.950 . S
C1294 H1276 0.951 . S
C1294 C1295 1.366 . S
C1294 C1296 1.388 . S
C1295 C1294 1.366 . S
C1295 C1299 1.385 . S
C1296 H1277 0.951 . S
C1296 C1294 1.388 . S
C1296 C1297 1.366 . S
C1297 C1296 1.366 . S
C1297 C1298 1.414 . S
C1297 C1300 1.499 . S
C1298 H1278 0.950 . S
C1298 C1297 1.414 . S
C1298 C1299 1.374 . S
C1299 H1279 0.950 . S
C1299 C1295 1.385 . S
C1299 C1298 1.374 . S
C1300 C1297 1.499 . S
C1300 C1301 1.373 . S
C1300 C1302 1.419 . S
C1301 H1280 0.950 . S
C1301 C1300 1.373 . S
C1301 C1317 1.360 1_545 S
C1302 C1300 1.419 . S
C1302 C1303 1.514 . S
C1302 C1316 1.360 1_545 S
C1303 C1302 1.514 . S
C1303 C1304 1.401 . S
C1303 C1308 1.356 1_545 S
C1304 H1281 0.950 . S
C1304 C1303 1.401 . S
C1304 C1305 1.334 . S
C1305 H1282 0.950 . S
C1305 C1304 1.334 . S
C1305 C1306 1.287 . S
C1306 C1305 1.287 . S
C1306 C1307 1.524 1_545 S
C1306 H1325 0.913 . S
C1307 H1283 0.950 . S
C1307 C1306 1.524 1_565 S
C1307 C1308 1.415 . S
C1308 H1284 0.950 . S
C1308 C1303 1.356 1_565 S
C1308 C1307 1.415 . S
C1309 H1285 0.951 . S
C1309 C1310 1.366 . S
C1309 C1311 1.388 . S
C1310 C1309 1.366 . S
C1310 C1314 1.385 . S
C1311 H1286 0.951 . S
C1311 C1309 1.388 . S
C1311 C1312 1.366 . S
C1312 C1311 1.366 . S
C1312 C1313 1.414 . S
C1312 C1315 1.499 . S
C1313 H1287 0.950 . S
C1313 C1312 1.414 . S
C1313 C1314 1.374 . S
C1314 H1288 0.950 . S
C1314 C1310 1.385 . S
C1314 C1313 1.374 . S
C1315 C1312 1.499 . S
C1315 C1316 1.373 . S
C1315 C1317 1.419 . S
C1316 H1289 0.950 . S
C1316 C1302 1.360 1_565 S
C1316 C1315 1.373 . S
C1317 C1301 1.360 1_565 S
C1317 C1315 1.419 . S
C1317 C1318 1.514 . S
C1318 C1317 1.514 . S
C1318 C1319 1.401 . S
C1318 C1323 1.356 1_565 S
C1319 H1290 0.950 . S
C1319 C1318 1.401 . S
C1319 C1320 1.334 . S
C1320 H1291 0.950 . S
C1320 C1319 1.334 . S
C1320 C1321 1.287 . S
C1321 C1320 1.287 . S
C1321 C1322 1.524 1_565 S
C1321 H1324 0.999 . S
C1322 H1292 0.950 . S
C1322 C1321 1.524 1_545 S
C1322 C1323 1.415 . S
C1323 H1293 0.950 . S
C1323 C1318 1.356 1_545 S
C1323 C1322 1.415 . S
H1324 C1321 0.999 . S
H1325 C1306 0.913 . S
H1326 C1344 0.951 . S
H1327 C1346 0.951 . S
H1328 C1348 0.950 . S
H1329 C1349 0.950 . S
H1330 C1351 0.950 . S
H1331 C1354 0.950 . S
H1332 C1355 0.950 . S
H1333 C1357 0.950 . S
H1334 C1358 0.950 . S
H1335 C1359 0.951 . S
H1336 C1361 0.951 . S
H1337 C1363 0.950 . S
H1338 C1364 0.950 . S
H1339 C1366 0.950 . S
H1340 C1369 0.950 . S
H1341 C1370 0.950 . S
H1342 C1372 0.950 . S
H1343 C1373 0.950 . S
C1344 H1326 0.951 . S
C1344 C1345 1.366 . S
C1344 C1346 1.388 . S
C1345 C1344 1.366 . S
C1345 C1349 1.385 . S
C1346 H1327 0.951 . S
C1346 C1344 1.388 . S
C1346 C1347 1.366 . S
C1347 C1346 1.366 . S
C1347 C1348 1.414 . S
C1347 C1350 1.499 . S
C1348 H1328 0.950 . S
C1348 C1347 1.414 . S
C1348 C1349 1.374 . S
C1349 H1329 0.950 . S
C1349 C1345 1.385 . S
C1349 C1348 1.374 . S
C1350 C1347 1.499 . S
C1350 C1351 1.373 . S
C1350 C1352 1.389 . S
C1351 H1330 0.950 . S
C1351 C1350 1.373 . S
C1351 C1367 1.377 . S
C1352 C1350 1.389 . S
C1352 C1353 1.524 . S
C1352 C1366 1.377 . S
C1353 C1352 1.524 . S
C1353 C1354 1.397 . S
C1353 C1358 1.363 . S
C1354 H1331 0.950 . S
C1354 C1353 1.397 . S
C1354 C1355 1.334 . S
C1355 H1332 0.950 . S
C1355 C1354 1.334 . S
C1355 C1356 1.287 . S
C1356 C1355 1.287 . S
C1356 C1357 1.524 . S
C1356 H1375 0.913 . S
C1357 H1333 0.950 . S
C1357 C1356 1.524 . S
C1357 C1358 1.415 . S
C1358 H1334 0.950 . S
C1358 C1353 1.363 . S
C1358 C1357 1.415 . S
C1359 H1335 0.951 . S
C1359 C1360 1.366 . S
C1359 C1361 1.388 . S
C1360 C1359 1.366 . S
C1360 C1364 1.385 . S
C1361 H1336 0.951 . S
C1361 C1359 1.388 . S
C1361 C1362 1.366 . S
C1362 C1361 1.366 . S
C1362 C1363 1.414 . S
C1362 C1365 1.499 . S
C1363 H1337 0.950 . S
C1363 C1362 1.414 . S
C1363 C1364 1.374 . S
C1364 H1338 0.950 . S
C1364 C1360 1.385 . S
C1364 C1363 1.374 . S
C1365 C1362 1.499 . S
C1365 C1366 1.373 . S
C1365 C1367 1.389 . S
C1366 H1339 0.950 . S
C1366 C1352 1.377 . S
C1366 C1365 1.373 . S
C1367 C1351 1.377 . S
C1367 C1365 1.389 . S
C1367 C1368 1.524 . S
C1368 C1367 1.524 . S
C1368 C1369 1.397 . S
C1368 C1373 1.363 . S
C1369 H1340 0.950 . S
C1369 C1368 1.397 . S
C1369 C1370 1.334 . S
C1370 H1341 0.950 . S
C1370 C1369 1.334 . S
C1370 C1371 1.287 . S
C1371 C1370 1.287 . S
C1371 C1372 1.524 . S
C1371 H1374 0.999 . S
C1372 H1342 0.950 . S
C1372 C1371 1.524 . S
C1372 C1373 1.415 . S
C1373 H1343 0.950 . S
C1373 C1368 1.363 . S
C1373 C1372 1.415 . S
H1374 C1371 0.999 . S
H1375 C1356 0.913 . S
H1376 C1394 0.951 . S
H1377 C1396 0.951 . S
H1378 C1398 0.950 . S
H1379 C1399 0.950 . S
H1380 C1401 0.950 . S
H1381 C1404 0.950 . S
H1382 C1405 0.950 . S
H1383 C1407 0.950 . S
H1384 C1408 0.950 . S
H1385 C1409 0.951 . S
H1386 C1411 0.951 . S
H1387 C1413 0.950 . S
H1388 C1414 0.950 . S
H1389 C1416 0.950 . S
H1390 C1419 0.950 . S
H1391 C1420 0.950 . S
H1392 C1422 0.950 . S
H1393 C1423 0.950 . S
C1394 H1376 0.951 . S
C1394 C1395 1.366 . S
C1394 C1396 1.388 . S
C1395 C1394 1.366 . S
C1395 C1399 1.385 . S
C1396 H1377 0.951 . S
C1396 C1394 1.388 . S
C1396 C1397 1.366 . S
C1397 C1396 1.366 . S
C1397 C1398 1.414 . S
C1397 C1400 1.499 . S
C1398 H1378 0.950 . S
C1398 C1397 1.414 . S
C1398 C1399 1.374 . S
C1399 H1379 0.950 . S
C1399 C1395 1.385 . S
C1399 C1398 1.374 . S
C1400 C1397 1.499 . S
C1400 C1401 1.373 1_455 S
C1400 C1402 1.389 . S
C1401 H1380 0.950 . S
C1401 C1400 1.373 1_655 S
C1401 C1417 1.377 . S
C1402 C1400 1.389 . S
C1402 C1403 1.524 . S
C1402 C1416 1.377 . S
C1403 C1402 1.524 . S
C1403 C1404 1.397 . S
C1403 C1408 1.363 . S
C1404 H1381 0.950 . S
C1404 C1403 1.397 . S
C1404 C1405 1.334 . S
C1405 H1382 0.950 . S
C1405 C1404 1.334 . S
C1405 C1406 1.287 . S
C1406 C1405 1.287 . S
C1406 C1407 1.524 . S
C1406 H1425 0.913 . S
C1407 H1383 0.950 . S
C1407 C1406 1.524 . S
C1407 C1408 1.415 . S
C1408 H1384 0.950 . S
C1408 C1403 1.363 . S
C1408 C1407 1.415 . S
C1409 H1385 0.951 . S
C1409 C1410 1.366 . S
C1409 C1411 1.388 . S
C1410 C1409 1.366 . S
C1410 C1414 1.385 . S
C1411 H1386 0.951 . S
C1411 C1409 1.388 . S
C1411 C1412 1.366 . S
C1412 C1411 1.366 . S
C1412 C1413 1.414 . S
C1412 C1415 1.499 . S
C1413 H1387 0.950 . S
C1413 C1412 1.414 . S
C1413 C1414 1.374 . S
C1414 H1388 0.950 . S
C1414 C1410 1.385 . S
C1414 C1413 1.374 . S
C1415 C1412 1.499 . S
C1415 C1416 1.373 1_655 S
C1415 C1417 1.389 . S
C1416 H1389 0.950 . S
C1416 C1402 1.377 . S
C1416 C1415 1.373 1_455 S
C1417 C1401 1.377 . S
C1417 C1415 1.389 . S
C1417 C1418 1.524 . S
C1418 C1417 1.524 . S
C1418 C1419 1.397 . S
C1418 C1423 1.363 . S
C1419 H1390 0.950 . S
C1419 C1418 1.397 . S
C1419 C1420 1.334 . S
C1420 H1391 0.950 . S
C1420 C1419 1.334 . S
C1420 C1421 1.287 . S
C1421 C1420 1.287 . S
C1421 C1422 1.524 . S
C1421 H1424 0.999 . S
C1422 H1392 0.950 . S
C1422 C1421 1.524 . S
C1422 C1423 1.415 . S
C1423 H1393 0.950 . S
C1423 C1418 1.363 . S
C1423 C1422 1.415 . S
H1424 C1421 0.999 . S
H1425 C1406 0.913 . S
H1426 C1444 0.951 . S
H1427 C1446 0.951 . S
H1428 C1448 0.950 . S
H1429 C1449 0.950 . S
H1430 C1451 0.950 . S
H1431 C1454 0.950 . S
H1432 C1455 0.950 . S
H1433 C1457 0.950 . S
H1434 C1458 0.950 . S
H1435 C1459 0.951 . S
H1436 C1461 0.951 . S
H1437 C1463 0.950 . S
H1438 C1464 0.950 . S
H1439 C1466 0.950 . S
H1440 C1469 0.950 . S
H1441 C1470 0.950 . S
H1442 C1472 0.950 . S
H1443 C1473 0.950 . S
C1444 H1426 0.951 . S
C1444 C1445 1.366 . S
C1444 C1446 1.388 . S
C1445 C1444 1.366 . S
C1445 C1449 1.385 . S
C1446 H1427 0.951 . S
C1446 C1444 1.388 . S
C1446 C1447 1.366 . S
C1447 C1446 1.366 . S
C1447 C1448 1.414 . S
C1447 C1450 1.499 . S
C1448 H1428 0.950 . S
C1448 C1447 1.414 . S
C1448 C1449 1.374 . S
C1449 H1429 0.950 . S
C1449 C1445 1.385 . S
C1449 C1448 1.374 . S
C1450 C1447 1.499 . S
C1450 C1451 1.373 . S
C1450 C1452 1.389 . S
C1451 H1430 0.950 . S
C1451 C1450 1.373 . S
C1451 C1467 1.377 1_565 S
C1452 C1450 1.389 . S
C1452 C1453 1.524 . S
C1452 C1466 1.377 1_565 S
C1453 C1452 1.524 . S
C1453 C1454 1.397 . S
C1453 C1458 1.363 . S
C1454 H1431 0.950 . S
C1454 C1453 1.397 . S
C1454 C1455 1.334 . S
C1455 H1432 0.950 . S
C1455 C1454 1.334 . S
C1455 C1456 1.287 . S
C1456 C1455 1.287 . S
C1456 C1457 1.524 . S
C1456 H1475 0.913 . S
C1457 H1433 0.950 . S
C1457 C1456 1.524 . S
C1457 C1458 1.415 . S
C1458 H1434 0.950 . S
C1458 C1453 1.363 . S
C1458 C1457 1.415 . S
C1459 H1435 0.951 . S
C1459 C1460 1.366 . S
C1459 C1461 1.388 . S
C1460 C1459 1.366 . S
C1460 C1464 1.385 . S
C1461 H1436 0.951 . S
C1461 C1459 1.388 . S
C1461 C1462 1.366 . S
C1462 C1461 1.366 . S
C1462 C1463 1.414 . S
C1462 C1465 1.499 . S
C1463 H1437 0.950 . S
C1463 C1462 1.414 . S
C1463 C1464 1.374 . S
C1464 H1438 0.950 . S
C1464 C1460 1.385 . S
C1464 C1463 1.374 . S
C1465 C1462 1.499 . S
C1465 C1466 1.373 . S
C1465 C1467 1.389 . S
C1466 H1439 0.950 . S
C1466 C1452 1.377 1_545 S
C1466 C1465 1.373 . S
C1467 C1451 1.377 1_545 S
C1467 C1465 1.389 . S
C1467 C1468 1.524 . S
C1468 C1467 1.524 . S
C1468 C1469 1.397 . S
C1468 C1473 1.363 . S
C1469 H1440 0.950 . S
C1469 C1468 1.397 . S
C1469 C1470 1.334 . S
C1470 H1441 0.950 . S
C1470 C1469 1.334 . S
C1470 C1471 1.287 . S
C1471 C1470 1.287 . S
C1471 C1472 1.524 . S
C1471 H1474 0.999 . S
C1472 H1442 0.950 . S
C1472 C1471 1.524 . S
C1472 C1473 1.415 . S
C1473 H1443 0.950 . S
C1473 C1468 1.363 . S
C1473 C1472 1.415 . S
H1474 C1471 0.999 . S
H1475 C1456 0.913 . S
C295 N163 1.834 . S
C310 N2 1.834 . S
C345 N35 1.885 . S
C360 N186 1.794 . S
C395 N48 1.796 . S
C410 N219 1.885 . S
C445 N71 1.834 . S
C460 N232 1.834 . S
C495 N255 1.796 . S
C510 N104 1.885 . S
C545 N150 1.885 . S
C560 N117 1.795 . S
C595 C246 1.519 . S
C610 C16 1.519 . S
C645 C30 1.602 . S
C660 C269 1.554 . S
C695 C62 1.553 . S
C710 C145 1.602 . S
C745 C177 1.519 . S
C760 C85 1.519 . S
C795 C200 1.552 . S
C810 C99 1.601 . S
C845 C214 1.603 . S
C860 C131 1.554 . S
C895 C7 1.855 . S
C910 C191 1.858 . S
C945 C39 1.844 . S
C960 C223 1.843 . S
C995 C237 1.855 . S
C1010 C53 1.858 . S
C1045 C76 1.856 . S
C1060 C260 1.858 . S
C1095 C154 1.843 . S
C1110 C108 1.844 . S
C1145 C168 1.855 . S
C1160 C122 1.859 . S
C1195 N81 2.098 . S
C1210 N12 2.098 . S
C1245 N94 2.040 . S
C1260 N25 2.039 . S
C1295 N58 2.091 . S
C1310 N127 2.090 . S
C1345 N140 2.040 . S
C1360 N209 2.039 . S
C1395 N173 2.099 . S
C1410 N242 2.099 . S
C1445 N265 2.090 . S
C1460 N196 2.091 . S
