# Generated by pormake.
# Topology uns, (4)-cn, num edge types: 1
# Building blocks:
#     Node 0, Type 0, BuildingBlock: CEKHIL_clean_sbu_0, # of connection points: 4
#     Node 1, Type 0, BuildingBlock: CEKHIL_clean_sbu_0, # of connection points: 4
#     Node 2, Type 0, BuildingBlock: CEKHIL_clean_sbu_0, # of connection points: 4
#     Node 3, Type 0, BuildingBlock: CEKHIL_clean_sbu_0, # of connection points: 4
#     Node 4, Type 0, BuildingBlock: CEKHIL_clean_sbu_0, # of connection points: 4
#     Node 5, Type 0, BuildingBlock: CEKHIL_clean_sbu_0, # of connection points: 4
#     Node 6, Type 0, BuildingBlock: CEKHIL_clean_sbu_0, # of connection points: 4
#     Node 7, Type 0, BuildingBlock: CEKHIL_clean_sbu_0, # of connection points: 4
#     Node 8, Type 0, BuildingBlock: CEKHIL_clean_sbu_0, # of connection points: 4
#     Node 9, Type 0, BuildingBlock: CEKHIL_clean_sbu_0, # of connection points: 4
#     Node 10, Type 0, BuildingBlock: CEKHIL_clean_sbu_0, # of connection points: 4
#     Node 11, Type 0, BuildingBlock: CEKHIL_clean_sbu_0, # of connection points: 4
#     Node 12, Type 0, BuildingBlock: CEKHIL_clean_sbu_0, # of connection points: 4
#     Node 13, Type 0, BuildingBlock: CEKHIL_clean_sbu_0, # of connection points: 4
#     Node 14, Type 0, BuildingBlock: CEKHIL_clean_sbu_0, # of connection points: 4
#     Node 15, Type 0, BuildingBlock: CEKHIL_clean_sbu_0, # of connection points: 4
#     Node 16, Type 0, BuildingBlock: CEKHIL_clean_sbu_0, # of connection points: 4
#     Node 17, Type 0, BuildingBlock: CEKHIL_clean_sbu_0, # of connection points: 4
#     Node 18, Type 0, BuildingBlock: CEKHIL_clean_sbu_0, # of connection points: 4
#     Node 19, Type 0, BuildingBlock: CEKHIL_clean_sbu_0, # of connection points: 4
#     Node 20, Type 0, BuildingBlock: CEKHIL_clean_sbu_0, # of connection points: 4
#     Node 21, Type 0, BuildingBlock: CEKHIL_clean_sbu_0, # of connection points: 4
#     Node 22, Type 0, BuildingBlock: CEKHIL_clean_sbu_0, # of connection points: 4
#     Node 23, Type 0, BuildingBlock: CEKHIL_clean_sbu_0, # of connection points: 4
#     Node 24, Type 0, BuildingBlock: CEKHIL_clean_sbu_0, # of connection points: 4
#     Node 25, Type 0, BuildingBlock: CEKHIL_clean_sbu_0, # of connection points: 4
#     Node 26, Type 0, BuildingBlock: CEKHIL_clean_sbu_0, # of connection points: 4
#     Node 27, Type 0, BuildingBlock: CEKHIL_clean_sbu_0, # of connection points: 4
#     Node 28, Type 0, BuildingBlock: CEKHIL_clean_sbu_0, # of connection points: 4
#     Node 29, Type 0, BuildingBlock: CEKHIL_clean_sbu_0, # of connection points: 4
#     Node 30, Type 0, BuildingBlock: CEKHIL_clean_sbu_0, # of connection points: 4
#     Node 31, Type 0, BuildingBlock: CEKHIL_clean_sbu_0, # of connection points: 4
#     Node 32, Type 0, BuildingBlock: CEKHIL_clean_sbu_0, # of connection points: 4
#     Node 33, Type 0, BuildingBlock: CEKHIL_clean_sbu_0, # of connection points: 4
#     Node 34, Type 0, BuildingBlock: CEKHIL_clean_sbu_0, # of connection points: 4
#     Node 35, Type 0, BuildingBlock: CEKHIL_clean_sbu_0, # of connection points: 4
#     Edge 36, Type (0, 0), BuildingBlock: XUDNAN_clean_linker_2, # of connection points: 2
#     Edge 37, Type (0, 0), BuildingBlock: XUDNAN_clean_linker_2, # of connection points: 2
#     Edge 38, Type (0, 0), BuildingBlock: XUDNAN_clean_linker_2, # of connection points: 2
#     Edge 39, Type (0, 0), BuildingBlock: XUDNAN_clean_linker_2, # of connection points: 2
#     Edge 40, Type (0, 0), BuildingBlock: XUDNAN_clean_linker_2, # of connection points: 2
#     Edge 41, Type (0, 0), BuildingBlock: XUDNAN_clean_linker_2, # of connection points: 2
#     Edge 42, Type (0, 0), BuildingBlock: XUDNAN_clean_linker_2, # of connection points: 2
#     Edge 43, Type (0, 0), BuildingBlock: XUDNAN_clean_linker_2, # of connection points: 2
#     Edge 44, Type (0, 0), BuildingBlock: XUDNAN_clean_linker_2, # of connection points: 2
#     Edge 45, Type (0, 0), BuildingBlock: XUDNAN_clean_linker_2, # of connection points: 2
#     Edge 46, Type (0, 0), BuildingBlock: XUDNAN_clean_linker_2, # of connection points: 2
#     Edge 47, Type (0, 0), BuildingBlock: XUDNAN_clean_linker_2, # of connection points: 2
#     Edge 48, Type (0, 0), BuildingBlock: XUDNAN_clean_linker_2, # of connection points: 2
#     Edge 49, Type (0, 0), BuildingBlock: XUDNAN_clean_linker_2, # of connection points: 2
#     Edge 50, Type (0, 0), BuildingBlock: XUDNAN_clean_linker_2, # of connection points: 2
#     Edge 51, Type (0, 0), BuildingBlock: XUDNAN_clean_linker_2, # of connection points: 2
#     Edge 52, Type (0, 0), BuildingBlock: XUDNAN_clean_linker_2, # of connection points: 2
#     Edge 53, Type (0, 0), BuildingBlock: XUDNAN_clean_linker_2, # of connection points: 2
#     Edge 54, Type (0, 0), BuildingBlock: XUDNAN_clean_linker_2, # of connection points: 2
#     Edge 55, Type (0, 0), BuildingBlock: XUDNAN_clean_linker_2, # of connection points: 2
#     Edge 56, Type (0, 0), BuildingBlock: XUDNAN_clean_linker_2, # of connection points: 2
#     Edge 57, Type (0, 0), BuildingBlock: XUDNAN_clean_linker_2, # of connection points: 2
#     Edge 58, Type (0, 0), BuildingBlock: XUDNAN_clean_linker_2, # of connection points: 2
#     Edge 59, Type (0, 0), BuildingBlock: XUDNAN_clean_linker_2, # of connection points: 2
#     Edge 60, Type (0, 0), BuildingBlock: XUDNAN_clean_linker_2, # of connection points: 2
#     Edge 61, Type (0, 0), BuildingBlock: XUDNAN_clean_linker_2, # of connection points: 2
#     Edge 62, Type (0, 0), BuildingBlock: XUDNAN_clean_linker_2, # of connection points: 2
#     Edge 63, Type (0, 0), BuildingBlock: XUDNAN_clean_linker_2, # of connection points: 2
#     Edge 64, Type (0, 0), BuildingBlock: XUDNAN_clean_linker_2, # of connection points: 2
#     Edge 65, Type (0, 0), BuildingBlock: XUDNAN_clean_linker_2, # of connection points: 2
#     Edge 66, Type (0, 0), BuildingBlock: XUDNAN_clean_linker_2, # of connection points: 2
#     Edge 67, Type (0, 0), BuildingBlock: XUDNAN_clean_linker_2, # of connection points: 2
#     Edge 68, Type (0, 0), BuildingBlock: XUDNAN_clean_linker_2, # of connection points: 2
#     Edge 69, Type (0, 0), BuildingBlock: XUDNAN_clean_linker_2, # of connection points: 2
#     Edge 70, Type (0, 0), BuildingBlock: XUDNAN_clean_linker_2, # of connection points: 2
#     Edge 71, Type (0, 0), BuildingBlock: XUDNAN_clean_linker_2, # of connection points: 2
#     Edge 72, Type (0, 0), BuildingBlock: XUDNAN_clean_linker_2, # of connection points: 2
#     Edge 73, Type (0, 0), BuildingBlock: XUDNAN_clean_linker_2, # of connection points: 2
#     Edge 74, Type (0, 0), BuildingBlock: XUDNAN_clean_linker_2, # of connection points: 2
#     Edge 75, Type (0, 0), BuildingBlock: XUDNAN_clean_linker_2, # of connection points: 2
#     Edge 76, Type (0, 0), BuildingBlock: XUDNAN_clean_linker_2, # of connection points: 2
#     Edge 77, Type (0, 0), BuildingBlock: XUDNAN_clean_linker_2, # of connection points: 2
#     Edge 78, Type (0, 0), BuildingBlock: XUDNAN_clean_linker_2, # of connection points: 2
#     Edge 79, Type (0, 0), BuildingBlock: XUDNAN_clean_linker_2, # of connection points: 2
#     Edge 80, Type (0, 0), BuildingBlock: XUDNAN_clean_linker_2, # of connection points: 2
#     Edge 81, Type (0, 0), BuildingBlock: XUDNAN_clean_linker_2, # of connection points: 2
#     Edge 82, Type (0, 0), BuildingBlock: XUDNAN_clean_linker_2, # of connection points: 2
#     Edge 83, Type (0, 0), BuildingBlock: XUDNAN_clean_linker_2, # of connection points: 2
#     Edge 84, Type (0, 0), BuildingBlock: XUDNAN_clean_linker_2, # of connection points: 2
#     Edge 85, Type (0, 0), BuildingBlock: XUDNAN_clean_linker_2, # of connection points: 2
#     Edge 86, Type (0, 0), BuildingBlock: XUDNAN_clean_linker_2, # of connection points: 2
#     Edge 87, Type (0, 0), BuildingBlock: XUDNAN_clean_linker_2, # of connection points: 2
#     Edge 88, Type (0, 0), BuildingBlock: XUDNAN_clean_linker_2, # of connection points: 2
#     Edge 89, Type (0, 0), BuildingBlock: XUDNAN_clean_linker_2, # of connection points: 2
#     Edge 90, Type (0, 0), BuildingBlock: XUDNAN_clean_linker_2, # of connection points: 2
#     Edge 91, Type (0, 0), BuildingBlock: XUDNAN_clean_linker_2, # of connection points: 2
#     Edge 92, Type (0, 0), BuildingBlock: XUDNAN_clean_linker_2, # of connection points: 2
#     Edge 93, Type (0, 0), BuildingBlock: XUDNAN_clean_linker_2, # of connection points: 2
#     Edge 94, Type (0, 0), BuildingBlock: XUDNAN_clean_linker_2, # of connection points: 2
#     Edge 95, Type (0, 0), BuildingBlock: XUDNAN_clean_linker_2, # of connection points: 2
#     Edge 96, Type (0, 0), BuildingBlock: XUDNAN_clean_linker_2, # of connection points: 2
#     Edge 97, Type (0, 0), BuildingBlock: XUDNAN_clean_linker_2, # of connection points: 2
#     Edge 98, Type (0, 0), BuildingBlock: XUDNAN_clean_linker_2, # of connection points: 2
#     Edge 99, Type (0, 0), BuildingBlock: XUDNAN_clean_linker_2, # of connection points: 2
#     Edge 100, Type (0, 0), BuildingBlock: XUDNAN_clean_linker_2, # of connection points: 2
#     Edge 101, Type (0, 0), BuildingBlock: XUDNAN_clean_linker_2, # of connection points: 2
#     Edge 102, Type (0, 0), BuildingBlock: XUDNAN_clean_linker_2, # of connection points: 2
#     Edge 103, Type (0, 0), BuildingBlock: XUDNAN_clean_linker_2, # of connection points: 2
#     Edge 104, Type (0, 0), BuildingBlock: XUDNAN_clean_linker_2, # of connection points: 2
#     Edge 105, Type (0, 0), BuildingBlock: XUDNAN_clean_linker_2, # of connection points: 2
#     Edge 106, Type (0, 0), BuildingBlock: XUDNAN_clean_linker_2, # of connection points: 2
#     Edge 107, Type (0, 0), BuildingBlock: XUDNAN_clean_linker_2, # of connection points: 2
# Relax obj value: 0.114
# Max RMSD: 0.262
# Mean RMSD: 0.246
data_MOF--net-uns--node1-CEKHIL_clean_sbu_0--edge1-XUDNAN_clean_linker_2
_symmetry_space_group_name_H-M    P1
_symmetry_Int_Tables_number       1
_symmetry_cell_setting            triclinic
loop_
_symmetry_equiv_pos_as_xyz
'x, y, z'
_cell_length_a     54.950392
_cell_length_b     54.044179
_cell_length_c     55.539971
_cell_angle_alpha  91.332843
_cell_angle_beta   90.000781
_cell_angle_gamma 120.58255
loop_
_atom_site_label
_atom_site_type_symbol
_atom_site_fract_x
_atom_site_fract_y
_atom_site_fract_z
_atom_type_partial_charge
Co0 Co 0.28225 0.19852 0.05412 0.0
O1 O 0.2959 0.17885 0.07319 0.0
O2 O 0.27403 0.20077 0.08777 0.0
C3 C 0.26247 0.16592 0.02412 0.0
O4 O 0.26484 0.2204 0.03943 0.0
Co5 Co 0.30999 0.22043 0.00525 0.0
O6 O 0.28298 0.23452 0.0025 0.0
C7 C 0.34309 0.24519 0.04895 0.0
C8 C 0.28784 0.18752 0.09188 0.0
C9 C 0.26645 0.23265 0.01938 0.0
O10 O 0.31937 0.23452 0.05963 0.0
O11 O 0.34486 0.24027 0.02658 0.0
O12 O 0.24869 0.16294 0.04392 0.0
O13 O 0.28877 0.18609 0.02432 0.0
Co14 Co 0.82351 0.0976 0.05955 0.0
O15 O 0.86219 0.11422 0.04996 0.0
O16 O 0.82663 0.10529 0.02541 0.0
C17 C 0.8294 0.12481 0.09242 0.0
O18 O 0.78104 0.08132 0.06412 0.0
Co19 Co 0.80635 0.06396 0.10679 0.0
O20 O 0.77236 0.06722 0.10258 0.0
C21 C 0.81166 0.03557 0.0635 0.0
C22 C 0.85352 0.11497 0.02843 0.0
C23 C 0.76476 0.07257 0.08262 0.0
O24 O 0.81718 0.05817 0.05208 0.0
O25 O 0.80759 0.03343 0.08623 0.0
O26 O 0.82996 0.13436 0.07109 0.0
O27 O 0.8307 0.10148 0.09306 0.0
Co28 Co 0.90672 0.73026 0.05786 0.0
O29 O 0.88811 0.75101 0.05038 0.0
O30 O 0.89242 0.72166 0.02469 0.0
C31 C 0.88662 0.71292 0.09332 0.0
O32 O 0.92418 0.70469 0.06104 0.0
Co33 Co 0.94889 0.75484 0.10085 0.0
O34 O 0.94597 0.717 0.09744 0.0
C35 C 0.96796 0.78178 0.05456 0.0
C36 C 0.88317 0.73926 0.02901 0.0
C37 C 0.93704 0.70062 0.07868 0.0
O38 O 0.94351 0.76291 0.04614 0.0
O39 O 0.97477 0.78349 0.07681 0.0
O40 O 0.87337 0.70082 0.07325 0.0
O41 O 0.9093 0.73801 0.09137 0.0
Co42 Co 0.18596 0.27573 0.4414 0.0
O43 O 0.14756 0.24981 0.45032 0.0
O44 O 0.18196 0.2771 0.47622 0.0
C45 C 0.17779 0.29762 0.41104 0.0
O46 O 0.22796 0.3058 0.43762 0.0
Co47 Co 0.2046 0.26598 0.39105 0.0
O48 O 0.23673 0.30511 0.39804 0.0
C49 C 0.20509 0.23189 0.43128 0.0
C50 C 0.15531 0.25823 0.47248 0.0
C51 C 0.24407 0.31634 0.41917 0.0
O52 O 0.19569 0.2446 0.44498 0.0
O53 O 0.20913 0.23649 0.40872 0.0
O54 O 0.17689 0.30481 0.43331 0.0
O55 O 0.17852 0.27413 0.40796 0.0
Co56 Co 0.73228 0.90906 0.43868 0.0
O57 O 0.75622 0.89424 0.4464 0.0
O58 O 0.72759 0.89798 0.47228 0.0
C59 C 0.7146 0.88452 0.40388 0.0
O60 O 0.70366 0.9225 0.43555 0.0
Co61 Co 0.74815 0.94734 0.39403 0.0
O62 O 0.70883 0.93881 0.39784 0.0
C63 C 0.78031 0.97242 0.43861 0.0
C64 C 0.74638 0.89056 0.46803 0.0
C65 C 0.69514 0.93087 0.41743 0.0
O66 O 0.76321 0.9487 0.44868 0.0
O67 O 0.7791 0.97642 0.41613 0.0
O68 O 0.70446 0.87249 0.42431 0.0
O69 O 0.73771 0.9094 0.4053 0.0
Co70 Co 0.09348 0.80608 0.43767 0.0
O71 O 0.12666 0.81837 0.41878 0.0
O72 O 0.08285 0.79174 0.40458 0.0
C73 C 0.10678 0.84785 0.45732 0.0
O74 O 0.05436 0.78974 0.45274 0.0
Co75 Co 0.10102 0.80412 0.49252 0.0
O76 O 0.06189 0.79722 0.49282 0.0
C77 C 0.10227 0.76071 0.46169 0.0
C78 C 0.10992 0.80336 0.40103 0.0
C79 C 0.04558 0.78954 0.47435 0.0
O80 O 0.09415 0.77045 0.44465 0.0
O81 O 0.10817 0.7721 0.48292 0.0
O82 O 0.09592 0.84308 0.43569 0.0
O83 O 0.11272 0.82901 0.46486 0.0
Co84 Co 0.72407 0.81498 0.92773 0.0
O85 O 0.70205 0.82864 0.91212 0.0
O86 O 0.74521 0.8398 0.90162 0.0
C87 C 0.68968 0.76876 0.92757 0.0
O88 O 0.75234 0.80343 0.93917 0.0
Co89 Co 0.70661 0.78946 0.97819 0.0
O90 O 0.7356 0.77854 0.9732 0.0
C91 C 0.73735 0.85216 0.97393 0.0
C92 C 0.72274 0.8414 0.89728 0.0
C93 C 0.75342 0.78821 0.95624 0.0
O94 O 0.74015 0.84866 0.95132 0.0
O95 O 0.72278 0.83113 0.98778 0.0
O96 O 0.70487 0.77977 0.90868 0.0
O97 O 0.69346 0.78653 0.94523 0.0
Co98 Co 0.16671 0.93858 0.93261 0.0
O99 O 0.12704 0.92204 0.93738 0.0
O100 O 0.15271 0.90563 0.9536 0.0
C101 C 0.17813 0.98428 0.93966 0.0
O102 O 0.20877 0.95154 0.93121 0.0
Co103 Co 0.19311 0.97978 0.88975 0.0
O104 O 0.22863 0.9898 0.9071 0.0
C105 C 0.16332 0.91712 0.88057 0.0
C106 C 0.12812 0.90348 0.95094 0.0
C107 C 0.23051 0.97321 0.92198 0.0
O108 O 0.15928 0.91307 0.9033 0.0
O109 O 0.17471 0.94202 0.87132 0.0
O110 O 0.17523 0.96789 0.95744 0.0
O111 O 0.17107 0.97189 0.91859 0.0
Co112 Co 0.07715 0.25291 0.93989 0.0
O113 O 0.09689 0.2353 0.95302 0.0
O114 O 0.11004 0.28115 0.95852 0.0
C115 C 0.033 0.21833 0.94959 0.0
O116 O 0.06065 0.27761 0.9295 0.0
Co117 Co 0.03717 0.22154 0.89604 0.0
O118 O 0.02618 0.2507 0.9022 0.0
C119 C 0.09778 0.25807 0.88756 0.0
C120 C 0.11481 0.26028 0.96239 0.0
C121 C 0.03982 0.27315 0.91568 0.0
O122 O 0.10136 0.26412 0.91026 0.0
O123 O 0.07375 0.23999 0.87811 0.0
O124 O 0.04938 0.23765 0.96552 0.0
O125 O 0.04497 0.21823 0.92953 0.0
Co126 Co 0.82878 0.75053 0.55944 0.0
O127 O 0.86834 0.76874 0.55274 0.0
O128 O 0.83629 0.7254 0.53895 0.0
C129 C 0.82359 0.78821 0.55109 0.0
O130 O 0.78573 0.72595 0.56291 0.0
Co131 Co 0.81166 0.77539 0.60303 0.0
O132 O 0.77377 0.75142 0.58798 0.0
C133 C 0.83309 0.73641 0.61199 0.0
C134 C 0.86264 0.74606 0.53993 0.0
C135 C 0.76721 0.73044 0.57326 0.0
O136 O 0.83433 0.73318 0.58911 0.0
O137 O 0.82622 0.75381 0.62145 0.0
O138 O 0.82356 0.77142 0.53402 0.0
O139 O 0.83044 0.784 0.57229 0.0
Co140 Co 0.24072 0.07354 0.55247 0.0
O141 O 0.22612 0.09843 0.54613 0.0
O142 O 0.26804 0.1066 0.53467 0.0
C143 C 0.20157 0.03266 0.53981 0.0
O144 O 0.26225 0.05197 0.55559 0.0
Co145 Co 0.21051 0.02563 0.5904 0.0
O146 O 0.2366 0.01325 0.57833 0.0
C147 C 0.25495 0.08473 0.606 0.0
C148 C 0.24903 0.11419 0.5343 0.0
C149 C 0.25802 0.02869 0.5654 0.0
O150 O 0.2578 0.09385 0.58438 0.0
O151 O 0.2367 0.05909 0.61192 0.0
O152 O 0.22003 0.04951 0.52454 0.0
O153 O 0.20563 0.04218 0.56187 0.0
Co154 Co 0.92662 0.17893 0.58424 0.0
O155 O 0.89118 0.16734 0.59938 0.0
O156 O 0.91869 0.14985 0.60797 0.0
C157 C 0.94315 0.22622 0.58906 0.0
O158 O 0.96544 0.18742 0.57223 0.0
Co159 Co 0.93761 0.21007 0.5366 0.0
O160 O 0.97598 0.21595 0.54025 0.0
C161 C 0.90052 0.14772 0.53597 0.0
C162 C 0.8958 0.15067 0.61248 0.0
C163 C 0.98243 0.20308 0.55566 0.0
O164 O 0.90673 0.14849 0.55836 0.0
O165 O 0.90904 0.17046 0.52382 0.0
O166 O 0.94543 0.21151 0.60605 0.0
O167 O 0.92842 0.21151 0.57023 0.0
Co168 Co 0.95587 0.52769 0.39973 0.0
O169 O 0.97296 0.51204 0.41967 0.0
O170 O 0.94877 0.5319 0.43333 0.0
C171 C 0.93694 0.49152 0.37217 0.0
O172 O 0.93493 0.54568 0.38408 0.0
Co173 Co 0.97863 0.54579 0.34862 0.0
O174 O 0.94436 0.54889 0.34446 0.0
C175 C 0.01352 0.57951 0.38988 0.0
C176 C 0.96439 0.52075 0.43799 0.0
C177 C 0.93068 0.55063 0.36232 0.0
O178 O 0.99155 0.56562 0.40275 0.0
O179 O 0.01389 0.57424 0.36734 0.0
O180 O 0.92395 0.48969 0.39223 0.0
O181 O 0.96209 0.51375 0.37053 0.0
Co182 Co 0.49996 0.42864 0.39695 0.0
O183 O 0.53804 0.44134 0.38801 0.0
O184 O 0.50574 0.44009 0.36342 0.0
C185 C 0.50929 0.4535 0.43197 0.0
O186 O 0.45867 0.41775 0.40162 0.0
Co187 Co 0.47748 0.39064 0.44177 0.0
O188 O 0.4497 0.40362 0.44011 0.0
C189 C 0.47978 0.36386 0.39617 0.0
C190 C 0.53174 0.4463 0.36689 0.0
C191 C 0.44367 0.41189 0.42086 0.0
O192 O 0.48817 0.38815 0.38635 0.0
O193 O 0.47542 0.36021 0.41879 0.0
O194 O 0.51155 0.46582 0.41165 0.0
O195 O 0.50601 0.42797 0.43019 0.0
Co196 Co 0.56991 0.05795 0.38313 0.0
O197 O 0.55991 0.08457 0.37093 0.0
O198 O 0.55803 0.04875 0.34938 0.0
C199 C 0.54538 0.04756 0.41766 0.0
O200 O 0.57826 0.02619 0.39118 0.0
Co201 Co 0.60641 0.07692 0.43027 0.0
O202 O 0.59333 0.03522 0.42995 0.0
C203 C 0.63417 0.09998 0.38438 0.0
C204 C 0.5538 0.0704 0.35057 0.0
C205 C 0.58474 0.0189 0.41112 0.0
O206 O 0.61054 0.08345 0.37332 0.0
O207 O 0.63676 0.10258 0.40734 0.0
O208 O 0.53279 0.03539 0.39738 0.0
O209 O 0.57106 0.06877 0.4157 0.0
Co210 Co 0.84546 0.59938 0.77279 0.0
O211 O 0.80795 0.5739 0.78425 0.0
O212 O 0.84338 0.6069 0.80689 0.0
C213 C 0.83303 0.61342 0.73938 0.0
O214 O 0.88666 0.62982 0.76646 0.0
Co215 Co 0.86367 0.58454 0.724 0.0
O216 O 0.89574 0.62445 0.72775 0.0
C217 C 0.86667 0.55684 0.76819 0.0
C218 C 0.81696 0.58666 0.80511 0.0
C219 C 0.90284 0.63821 0.7479 0.0
O220 O 0.85733 0.57066 0.78053 0.0
O221 O 0.86959 0.55848 0.7453 0.0
O222 O 0.83363 0.625 0.76027 0.0
O223 O 0.83616 0.59126 0.73984 0.0
Co224 Co 0.39808 0.235 0.76752 0.0
O225 O 0.42308 0.22157 0.77571 0.0
O226 O 0.39273 0.22307 0.80097 0.0
C227 C 0.38282 0.21038 0.73239 0.0
O228 O 0.36815 0.24665 0.76398 0.0
Co229 Co 0.41268 0.2735 0.72383 0.0
O230 O 0.37213 0.26119 0.72582 0.0
C231 C 0.44318 0.29946 0.76899 0.0
C232 C 0.41228 0.21664 0.79699 0.0
C233 C 0.35855 0.25307 0.7454 0.0
O234 O 0.42739 0.27498 0.77848 0.0
O235 O 0.44179 0.30373 0.7466 0.0
O236 O 0.37195 0.19825 0.75259 0.0
O237 O 0.40501 0.23597 0.73404 0.0
Co238 Co 0.76251 0.13231 0.7877 0.0
O239 O 0.79862 0.14881 0.77278 0.0
O240 O 0.75786 0.12263 0.75326 0.0
C241 C 0.77112 0.17102 0.81013 0.0
O242 O 0.72106 0.11238 0.79842 0.0
Co243 Co 0.76222 0.12303 0.84203 0.0
O244 O 0.72246 0.11359 0.83895 0.0
C245 C 0.76955 0.08469 0.80974 0.0
C246 C 0.78542 0.13595 0.75294 0.0
C247 C 0.70885 0.10817 0.81906 0.0
O248 O 0.76432 0.09683 0.79268 0.0
O249 O 0.77112 0.09241 0.83187 0.0
O250 O 0.76305 0.16838 0.78773 0.0
O251 O 0.77719 0.15211 0.81731 0.0
Co252 Co 0.3887 0.14104 0.26121 0.0
O253 O 0.36103 0.15077 0.25203 0.0
O254 O 0.40165 0.16587 0.23347 0.0
C255 C 0.35846 0.09358 0.26404 0.0
O256 O 0.42157 0.13371 0.26618 0.0
Co257 Co 0.38359 0.1174 0.31252 0.0
O258 O 0.41234 0.10865 0.30034 0.0
C259 C 0.40698 0.17929 0.30714 0.0
C260 C 0.37762 0.16517 0.23473 0.0
C261 C 0.42675 0.1192 0.28143 0.0
O262 O 0.40669 0.17536 0.28418 0.0
O263 O 0.39654 0.15854 0.32183 0.0
O264 O 0.36836 0.10477 0.24334 0.0
O265 O 0.36446 0.11179 0.28183 0.0
Co266 Co 0.84514 0.25847 0.27864 0.0
O267 O 0.80685 0.24217 0.28929 0.0
O268 O 0.83385 0.22338 0.2958 0.0
C269 C 0.8594 0.30405 0.29049 0.0
O270 O 0.88607 0.27061 0.27093 0.0
Co271 Co 0.86531 0.30315 0.23769 0.0
O272 O 0.90251 0.30719 0.24499 0.0
C273 C 0.8295 0.2416 0.22568 0.0
C274 C 0.80969 0.22205 0.29865 0.0
C275 C 0.90591 0.29027 0.25833 0.0
O276 O 0.8321 0.23552 0.2474 0.0
O277 O 0.83858 0.26723 0.21874 0.0
O278 O 0.85824 0.28579 0.30592 0.0
O279 O 0.84907 0.29344 0.26936 0.0
Co280 Co 0.75489 0.59107 0.2737 0.0
O281 O 0.77356 0.57068 0.28257 0.0
O282 O 0.78853 0.61592 0.29327 0.0
C283 C 0.71078 0.55657 0.28345 0.0
O284 O 0.73974 0.61806 0.26752 0.0
Co285 Co 0.71195 0.56449 0.23057 0.0
O286 O 0.7043 0.59549 0.23991 0.0
C287 C 0.77283 0.59562 0.22129 0.0
C288 C 0.79205 0.59385 0.29404 0.0
C289 C 0.71944 0.61637 0.25452 0.0
O290 O 0.77776 0.60411 0.24345 0.0
O291 O 0.74826 0.57723 0.21293 0.0
O292 O 0.72831 0.57403 0.29983 0.0
O293 O 0.72153 0.55817 0.26242 0.0
Co294 Co 0.49267 0.07471 0.89157 0.0
O295 O 0.53084 0.09038 0.88096 0.0
O296 O 0.49656 0.04559 0.87329 0.0
C297 C 0.48715 0.11141 0.88003 0.0
O298 O 0.45054 0.05256 0.90002 0.0
Co299 Co 0.48441 0.10932 0.93344 0.0
O300 O 0.44417 0.08235 0.92501 0.0
C301 C 0.50804 0.07271 0.94413 0.0
C302 C 0.52295 0.06557 0.87091 0.0
C303 C 0.43454 0.05926 0.91221 0.0
O304 O 0.50229 0.06233 0.92246 0.0
O305 O 0.50521 0.09374 0.95146 0.0
O306 O 0.48413 0.09162 0.86461 0.0
O307 O 0.49702 0.11043 0.90089 0.0
Co308 Co 0.90356 0.40436 0.89626 0.0
O309 O 0.88609 0.4257 0.88663 0.0
O310 O 0.93016 0.43767 0.87854 0.0
C311 C 0.86776 0.36098 0.88403 0.0
O312 O 0.92829 0.38703 0.90266 0.0
Co313 Co 0.87566 0.35836 0.93567 0.0
O314 O 0.90352 0.34762 0.92483 0.0
C315 C 0.90825 0.42008 0.94964 0.0
C316 C 0.90962 0.44287 0.87609 0.0
C317 C 0.92512 0.36427 0.91255 0.0
O318 O 0.91639 0.42671 0.92782 0.0
O319 O 0.89014 0.39453 0.9559 0.0
O320 O 0.8862 0.37794 0.86874 0.0
O321 O 0.86975 0.3716 0.90549 0.0
Co322 Co 0.58675 0.5151 0.90953 0.0
O323 O 0.55246 0.50255 0.92711 0.0
O324 O 0.58403 0.48994 0.9351 0.0
C325 C 0.59934 0.56174 0.91025 0.0
O326 O 0.62525 0.52518 0.89568 0.0
Co327 Co 0.5935 0.54173 0.85976 0.0
O328 O 0.63408 0.55527 0.8653 0.0
C329 C 0.55903 0.47885 0.86371 0.0
C330 C 0.56058 0.489 0.94085 0.0
C331 C 0.64206 0.54303 0.88008 0.0
O332 O 0.56644 0.48156 0.88605 0.0
O333 O 0.5661 0.5004 0.85031 0.0
O334 O 0.60516 0.55081 0.92835 0.0
O335 O 0.58415 0.54376 0.89312 0.0
Co336 Co 0.62446 0.86682 0.71299 0.0
O337 O 0.6464 0.85194 0.72592 0.0
O338 O 0.6201 0.86368 0.74795 0.0
C339 C 0.60618 0.83614 0.68129 0.0
O340 O 0.59881 0.88264 0.70412 0.0
Co341 Co 0.64572 0.89677 0.66528 0.0
O342 O 0.6114 0.90009 0.66686 0.0
C343 C 0.67895 0.92451 0.70809 0.0
C344 C 0.63893 0.85574 0.74711 0.0
C345 C 0.59552 0.89412 0.68516 0.0
O346 O 0.65702 0.90637 0.71932 0.0
O347 O 0.68065 0.92333 0.68519 0.0
O348 O 0.59482 0.82899 0.70239 0.0
O349 O 0.63048 0.85975 0.68076 0.0
Co350 Co 0.161 0.76067 0.72376 0.0
O351 O 0.19848 0.77756 0.71151 0.0
O352 O 0.16035 0.76466 0.68899 0.0
C353 C 0.17166 0.79164 0.75528 0.0
O354 O 0.11915 0.74415 0.73153 0.0
Co355 Co 0.14989 0.73431 0.77478 0.0
O356 O 0.11597 0.73808 0.7717 0.0
C357 C 0.15491 0.7023 0.73339 0.0
C358 C 0.18769 0.77624 0.69048 0.0
C359 C 0.1058 0.73979 0.75158 0.0
O360 O 0.15522 0.72079 0.71899 0.0
O361 O 0.15527 0.70518 0.75635 0.0
O362 O 0.16807 0.79866 0.73392 0.0
O363 O 0.17225 0.76809 0.75611 0.0
Co364 Co 0.24698 0.39831 0.72806 0.0
O365 O 0.23561 0.42448 0.71708 0.0
O366 O 0.23793 0.39201 0.69382 0.0
C367 C 0.22001 0.38337 0.76124 0.0
O368 O 0.25678 0.36705 0.73372 0.0
Co369 Co 0.27921 0.41109 0.77712 0.0
O370 O 0.26998 0.37077 0.77266 0.0
C371 C 0.31076 0.44095 0.73391 0.0
C372 C 0.2319 0.41235 0.69591 0.0
C373 C 0.26334 0.35752 0.75227 0.0
O374 O 0.28797 0.4271 0.72104 0.0
O375 O 0.31141 0.43862 0.75676 0.0
O376 O 0.20916 0.37261 0.74012 0.0
O377 O 0.24542 0.40537 0.76116 0.0
Co378 Co 0.50584 0.93374 0.10645 0.0
O379 O 0.46746 0.9065 0.11461 0.0
O380 O 0.49916 0.93938 0.14 0.0
C381 C 0.49852 0.94968 0.07178 0.0
O382 O 0.54745 0.96542 0.10313 0.0
Co383 Co 0.52928 0.91731 0.06239 0.0
O384 O 0.55899 0.95835 0.06561 0.0
C385 C 0.52746 0.89077 0.10776 0.0
C386 C 0.47356 0.91796 0.13612 0.0
C387 C 0.56425 0.97347 0.08495 0.0
O388 O 0.51782 0.90611 0.11675 0.0
O389 O 0.53242 0.89047 0.08528 0.0
O390 O 0.49467 0.95882 0.09242 0.0
O391 O 0.50113 0.92708 0.07272 0.0
Co392 Co 0.06898 0.57357 0.10326 0.0
O393 O 0.09502 0.56097 0.11002 0.0
O394 O 0.07308 0.5717 0.13803 0.0
C395 C 0.04261 0.53955 0.07524 0.0
O396 O 0.03942 0.58603 0.1013 0.0
Co397 Co 0.07099 0.59615 0.05194 0.0
O398 O 0.03286 0.58785 0.06139 0.0
C399 C 0.11201 0.63536 0.08857 0.0
C400 C 0.09 0.56215 0.13264 0.0
C401 C 0.02529 0.58722 0.08317 0.0
O402 O 0.1005 0.61518 0.10391 0.0
O403 O 0.10442 0.63168 0.06635 0.0
O404 O 0.0389 0.53413 0.09798 0.0
O405 O 0.06521 0.56355 0.07016 0.0
Co406 Co 0.43531 0.45617 0.12591 0.0
O407 O 0.47187 0.47045 0.11205 0.0
O408 O 0.43182 0.45052 0.09099 0.0
C409 C 0.44688 0.49376 0.15096 0.0
O410 O 0.39369 0.43974 0.13496 0.0
Co411 Co 0.42947 0.44095 0.1795 0.0
O412 O 0.39093 0.43473 0.17521 0.0
C413 C 0.43678 0.4044 0.14485 0.0
C414 C 0.45914 0.46146 0.09134 0.0
C415 C 0.37975 0.43375 0.15482 0.0
O416 O 0.43239 0.41796 0.12843 0.0
O417 O 0.43814 0.41087 0.16728 0.0
O418 O 0.44065 0.49432 0.12847 0.0
O419 O 0.44917 0.47195 0.15686 0.0
Co420 Co 0.06761 0.48214 0.60672 0.0
O421 O 0.04109 0.49376 0.59855 0.0
O422 O 0.0822 0.50931 0.58069 0.0
C423 C 0.03547 0.43479 0.6064 0.0
O424 O 0.0997 0.47344 0.61077 0.0
Co425 Co 0.05968 0.45055 0.6549 0.0
O426 O 0.08681 0.44109 0.64017 0.0
C427 C 0.08679 0.51405 0.65531 0.0
C428 C 0.05836 0.50901 0.58193 0.0
C429 C 0.10304 0.4554 0.62313 0.0
O430 O 0.08545 0.51397 0.63215 0.0
O431 O 0.07643 0.49112 0.66753 0.0
O432 O 0.04684 0.44747 0.58651 0.0
O433 O 0.04193 0.45145 0.62529 0.0
Co434 Co 0.50258 0.59874 0.60715 0.0
O435 O 0.46461 0.57962 0.61907 0.0
O436 O 0.49696 0.56855 0.62869 0.0
C437 C 0.51263 0.64422 0.61383 0.0
O438 O 0.54407 0.61466 0.59851 0.0
Co439 Co 0.51599 0.63601 0.56181 0.0
O440 O 0.55549 0.65016 0.5724 0.0
C441 C 0.49023 0.57312 0.55584 0.0
C442 C 0.47137 0.56378 0.63124 0.0
C443 C 0.56229 0.63607 0.58622 0.0
O444 O 0.49061 0.57097 0.57881 0.0
O445 O 0.49783 0.59693 0.54557 0.0
O446 O 0.51443 0.62952 0.63115 0.0
O447 O 0.50112 0.62985 0.59402 0.0
Co448 Co 0.40961 0.91605 0.60028 0.0
O449 O 0.42862 0.89714 0.61219 0.0
O450 O 0.44201 0.94266 0.62037 0.0
C451 C 0.36537 0.88133 0.60926 0.0
O452 O 0.3934 0.9416 0.59164 0.0
Co453 Co 0.36869 0.88779 0.55649 0.0
O454 O 0.35505 0.91341 0.56828 0.0
C455 C 0.4297 0.92458 0.54788 0.0
C456 C 0.4458 0.92102 0.62347 0.0
C457 C 0.37027 0.9362 0.58097 0.0
O458 O 0.43403 0.9289 0.57076 0.0
O459 O 0.40525 0.90761 0.53851 0.0
O460 O 0.382 0.89977 0.62558 0.0
O461 O 0.3772 0.8819 0.58893 0.0
Co462 Co 0.16889 0.41709 0.22742 0.0
O463 O 0.20714 0.43563 0.21603 0.0
O464 O 0.17559 0.38946 0.20996 0.0
C465 C 0.15941 0.45108 0.21522 0.0
O466 O 0.12716 0.39135 0.23583 0.0
Co467 Co 0.15458 0.44827 0.26805 0.0
O468 O 0.11543 0.4165 0.26143 0.0
C469 C 0.18406 0.41751 0.28049 0.0
C470 C 0.20099 0.41098 0.20656 0.0
C471 C 0.10894 0.39407 0.24855 0.0
O472 O 0.18054 0.40735 0.25876 0.0
O473 O 0.17777 0.43639 0.28716 0.0
O474 O 0.15779 0.43154 0.20017 0.0
O475 O 0.16974 0.45142 0.2362 0.0
Co476 Co 0.57272 0.73365 0.22469 0.0
O477 O 0.55151 0.75155 0.21681 0.0
O478 O 0.59447 0.76567 0.20335 0.0
C479 C 0.53751 0.68799 0.21803 0.0
O480 O 0.60013 0.71889 0.22983 0.0
Co481 Co 0.55237 0.69509 0.26995 0.0
O482 O 0.58127 0.68603 0.25891 0.0
C483 C 0.58665 0.75795 0.2765 0.0
C484 C 0.57274 0.76925 0.20408 0.0
C485 C 0.60023 0.69973 0.24332 0.0
O486 O 0.58972 0.76036 0.25358 0.0
O487 O 0.57063 0.73395 0.28653 0.0
O488 O 0.55221 0.70356 0.20023 0.0
O489 O 0.54222 0.70155 0.23851 0.0
Co490 Co 0.23886 0.8376 0.23223 0.0
O491 O 0.20189 0.8244 0.24485 0.0
O492 O 0.22701 0.80366 0.25129 0.0
C493 C 0.25632 0.8838 0.24406 0.0
O494 O 0.27865 0.84694 0.22239 0.0
Co495 Co 0.25961 0.88077 0.19109 0.0
O496 O 0.29705 0.88775 0.20166 0.0
C497 C 0.22129 0.81902 0.17952 0.0
C498 C 0.20441 0.80499 0.25588 0.0
C499 C 0.29974 0.86881 0.21261 0.0
O500 O 0.22192 0.81344 0.20183 0.0
O501 O 0.23375 0.8447 0.17173 0.0
O502 O 0.25538 0.86517 0.25881 0.0
O503 O 0.24428 0.87355 0.22321 0.0
H504 H 0.32776 0.17369 0.10304 0.0
H505 H 0.2731 0.20099 0.1355 0.0
H506 H 0.29429 0.20342 0.1755 0.0
H507 H 0.32572 0.12923 0.14973 0.0
H508 H 0.36231 0.13938 0.14697 0.0
H509 H 0.34315 0.14061 0.12121 0.0
H510 H 0.3812 0.19426 0.11598 0.0
H511 H 0.40028 0.1932 0.14196 0.0
H512 H 0.38943 0.21951 0.14077 0.0
H513 H 0.31936 0.19976 0.21205 0.0
H514 H 0.34506 0.18887 0.24254 0.0
H515 H 0.38543 0.16675 0.18588 0.0
C516 C 0.32 0.17995 0.11856 0.0
C517 C 0.29842 0.18674 0.11621 0.0
C518 C 0.28934 0.19536 0.13693 0.0
C519 C 0.30143 0.19703 0.15966 0.0
C520 C 0.32288 0.19046 0.16126 0.0
C521 C 0.33209 0.18213 0.14124 0.0
C522 C 0.35508 0.17571 0.14777 0.0
C523 C 0.34601 0.14437 0.14103 0.0
C524 C 0.38316 0.19694 0.13592 0.0
C525 C 0.35673 0.18073 0.17482 0.0
C526 C 0.33816 0.1895 0.18218 0.0
C527 C 0.33428 0.19337 0.20645 0.0
C528 C 0.34902 0.18721 0.22363 0.0
C529 C 0.36758 0.17751 0.2165 0.0
C530 C 0.37207 0.17501 0.19178 0.0
H531 H 0.84506 0.13143 0.14061 0.0
H532 H 0.79266 0.14357 0.08941 0.0
H533 H 0.78047 0.16805 0.12073 0.0
H534 H 0.80037 0.12345 0.19554 0.0
H535 H 0.83124 0.14338 0.21462 0.0
H536 H 0.83176 0.12177 0.18961 0.0
H537 H 0.87611 0.16632 0.17305 0.0
H538 H 0.8757 0.18799 0.19791 0.0
H539 H 0.87493 0.19842 0.16745 0.0
H540 H 0.78114 0.19886 0.154 0.0
H541 H 0.79324 0.23274 0.1887 0.0
H542 H 0.84324 0.20007 0.22008 0.0
C543 C 0.83035 0.13848 0.13636 0.0
C544 C 0.81986 0.13574 0.11266 0.0
C545 C 0.80113 0.14573 0.10745 0.0
C546 C 0.79386 0.15945 0.12517 0.0
C547 C 0.80534 0.16294 0.14814 0.0
C548 C 0.82295 0.15255 0.15397 0.0
C549 C 0.83475 0.16209 0.17936 0.0
C550 C 0.82387 0.13612 0.19575 0.0
C551 C 0.86729 0.17976 0.17943 0.0
C552 C 0.82221 0.18061 0.18624 0.0
C553 C 0.80499 0.18043 0.16803 0.0
C554 C 0.79383 0.19855 0.16876 0.0
C555 C 0.80085 0.21777 0.18843 0.0
C556 C 0.81855 0.21842 0.20717 0.0
C557 C 0.82879 0.19915 0.20633 0.0
H558 H 0.8074 0.65299 0.21556 0.0
H559 H 0.78911 0.56962 0.18777 0.0
H560 H 0.82506 0.59325 0.15633 0.0
H561 H 0.80968 0.68062 0.16019 0.0
H562 H 0.83727 0.71699 0.16731 0.0
H563 H 0.81536 0.69437 0.19084 0.0
H564 H 0.85993 0.70306 0.21426 0.0
H565 H 0.88205 0.72573 0.19067 0.0
H566 H 0.88476 0.69538 0.19968 0.0
H567 H 0.85696 0.62429 0.12532 0.0
H568 H 0.87913 0.65994 0.09382 0.0
H569 H 0.87614 0.7243 0.13969 0.0
C570 C 0.81182 0.6399 0.20331 0.0
C571 C 0.79615 0.6096 0.20423 0.0
C572 C 0.8013 0.59288 0.18741 0.0
C573 C 0.82178 0.60615 0.16967 0.0
C574 C 0.83657 0.63611 0.16888 0.0
C575 C 0.83171 0.65284 0.1851 0.0
C576 C 0.84705 0.68411 0.17791 0.0
C577 C 0.82609 0.69462 0.17381 0.0
C578 C 0.8698 0.7032 0.19676 0.0
C579 C 0.8603 0.68214 0.15453 0.0
C580 C 0.85459 0.65433 0.15015 0.0
C581 C 0.86208 0.64623 0.12877 0.0
C582 C 0.87471 0.66667 0.11099 0.0
C583 C 0.87979 0.69494 0.1146 0.0
C584 C 0.87331 0.70309 0.1369 0.0
H585 H 0.16478 0.28949 0.36205 0.0
H586 H 0.20888 0.35507 0.41799 0.0
H587 H 0.22112 0.3928 0.38867 0.0
H588 H 0.21238 0.33066 0.31146 0.0
H589 H 0.18346 0.31815 0.29018 0.0
H590 H 0.18127 0.29571 0.3146 0.0
H591 H 0.13443 0.29192 0.32826 0.0
H592 H 0.13642 0.31417 0.30385 0.0
H593 H 0.13352 0.32435 0.33438 0.0
H594 H 0.22416 0.42337 0.35557 0.0
H595 H 0.21622 0.44521 0.32019 0.0
H596 H 0.17048 0.36131 0.28438 0.0
C597 C 0.17745 0.31181 0.36788 0.0
C598 C 0.18582 0.31936 0.39229 0.0
C599 C 0.20199 0.34877 0.39944 0.0
C600 C 0.20932 0.37042 0.38286 0.0
C601 C 0.20031 0.36246 0.35909 0.0
C602 C 0.1847 0.33394 0.35148 0.0
C603 C 0.17549 0.33162 0.32531 0.0
C604 C 0.18896 0.31824 0.30945 0.0
C605 C 0.14305 0.31451 0.32282 0.0
C606 C 0.18755 0.36317 0.31984 0.0
C607 C 0.20217 0.38052 0.33954 0.0
C608 C 0.21323 0.41014 0.33982 0.0
C609 C 0.2086 0.42236 0.31967 0.0
C610 C 0.19313 0.40505 0.29946 0.0
C611 C 0.1831 0.37516 0.29932 0.0
H612 H 0.5895 0.76111 0.32577 0.0
H613 H 0.62633 0.81232 0.26247 0.0
H614 H 0.66218 0.85193 0.28835 0.0
H615 H 0.60286 0.82126 0.36748 0.0
H616 H 0.61058 0.80519 0.39219 0.0
H617 H 0.58586 0.78269 0.36888 0.0
H618 H 0.61529 0.75801 0.36159 0.0
H619 H 0.64034 0.78073 0.38453 0.0
H620 H 0.65224 0.77969 0.35449 0.0
H621 H 0.6974 0.88409 0.32113 0.0
H622 H 0.72641 0.9065 0.35821 0.0
H623 H 0.66595 0.83326 0.39882 0.0
C624 C 0.60459 0.78084 0.31732 0.0
C625 C 0.60501 0.78348 0.29207 0.0
C626 C 0.62546 0.80972 0.28182 0.0
C627 C 0.64599 0.83239 0.29634 0.0
C628 C 0.64563 0.82857 0.32109 0.0
C629 C 0.62518 0.80357 0.33148 0.0
C630 C 0.63025 0.80394 0.35824 0.0
C631 C 0.60595 0.80324 0.37253 0.0
C632 C 0.63481 0.77913 0.36509 0.0
C633 C 0.65715 0.83271 0.36121 0.0
C634 C 0.66571 0.84681 0.3397 0.0
C635 C 0.69069 0.87336 0.33812 0.0
C636 C 0.70711 0.88584 0.35918 0.0
C637 C 0.69843 0.87161 0.38132 0.0
C638 C 0.67316 0.84475 0.38218 0.0
H639 H 0.09856 0.80229 0.35228 0.0
H640 H 0.14817 0.78658 0.4037 0.0
H641 H 0.17002 0.77402 0.37059 0.0
H642 H 0.09136 0.74833 0.3042 0.0
H643 H 0.09656 0.77251 0.28032 0.0
H644 H 0.07984 0.77402 0.30782 0.0
H645 H 0.11709 0.82819 0.3136 0.0
H646 H 0.13354 0.82687 0.28603 0.0
H647 H 0.15414 0.83951 0.31356 0.0
H648 H 0.19075 0.7687 0.33266 0.0
H649 H 0.21405 0.77865 0.29317 0.0
H650 H 0.15375 0.80064 0.26567 0.0
C651 C 0.11345 0.79544 0.35642 0.0
C652 C 0.12138 0.79491 0.38047 0.0
C653 C 0.14168 0.78688 0.38533 0.0
C654 C 0.15403 0.77944 0.36666 0.0
C655 C 0.14622 0.78053 0.34307 0.0
C656 C 0.12671 0.78873 0.33782 0.0
C657 C 0.12565 0.79273 0.31098 0.0
C658 C 0.09662 0.77057 0.3002 0.0
C659 C 0.13307 0.82366 0.30575 0.0
C660 C 0.14845 0.78682 0.30226 0.0
C661 C 0.15932 0.77879 0.32094 0.0
C662 C 0.18215 0.77453 0.31776 0.0
C663 C 0.19518 0.78005 0.2952 0.0
C664 C 0.18567 0.7903 0.27633 0.0
C665 C 0.16125 0.79243 0.27968 0.0
H666 H 0.62664 0.85351 0.79612 0.0
H667 H 0.69037 0.86086 0.74577 0.0
H668 H 0.72126 0.86518 0.77931 0.0
H669 H 0.67646 0.90217 0.84361 0.0
H670 H 0.65521 0.88026 0.86788 0.0
H671 H 0.63858 0.88079 0.84006 0.0
H672 H 0.61442 0.82533 0.83558 0.0
H673 H 0.63063 0.82465 0.86351 0.0
H674 H 0.63583 0.80883 0.83652 0.0
H675 H 0.74498 0.8667 0.81743 0.0
H676 H 0.75706 0.85847 0.85808 0.0
H677 H 0.67815 0.84804 0.88467 0.0
C678 C 0.64712 0.85614 0.79226 0.0
C679 C 0.65591 0.85672 0.76825 0.0
C680 C 0.68287 0.86003 0.76394 0.0
C681 C 0.70086 0.86288 0.78291 0.0
C682 C 0.69171 0.86223 0.80629 0.0
C683 C 0.66538 0.85854 0.81116 0.0
C684 C 0.66002 0.85599 0.83804 0.0
C685 C 0.65741 0.88131 0.84798 0.0
C686 C 0.63367 0.82697 0.84374 0.0
C687 C 0.68696 0.85776 0.8472 0.0
C688 C 0.70525 0.8622 0.8286 0.0
C689 C 0.73096 0.86342 0.83225 0.0
C690 C 0.73772 0.85885 0.85544 0.0
C691 C 0.71863 0.85267 0.87456 0.0
C692 C 0.69332 0.85298 0.87046 0.0
H693 H 0.16419 0.9145 0.83106 0.0
H694 H 0.15144 0.86389 0.89451 0.0
H695 H 0.15117 0.82584 0.86909 0.0
H696 H 0.11977 0.8523 0.78971 0.0
H697 H 0.14302 0.86896 0.76477 0.0
H698 H 0.13937 0.89092 0.78773 0.0
H699 H 0.19367 0.9187 0.79467 0.0
H700 H 0.19743 0.89648 0.77211 0.0
H701 H 0.21105 0.89914 0.80218 0.0
H702 H 0.15871 0.79643 0.83787 0.0
H703 H 0.16651 0.77409 0.80175 0.0
H704 H 0.17196 0.84241 0.75827 0.0
C705 C 0.16068 0.89515 0.83958 0.0
C706 C 0.15792 0.8923 0.86482 0.0
C707 C 0.15348 0.86662 0.87521 0.0
C708 C 0.15343 0.84488 0.86095 0.0
C709 C 0.15737 0.84892 0.83628 0.0
C710 C 0.16026 0.87308 0.82558 0.0
C711 C 0.16489 0.87242 0.79874 0.0
C712 C 0.14029 0.87106 0.78439 0.0
C713 C 0.19346 0.89822 0.79152 0.0
C714 C 0.16496 0.84451 0.7962 0.0
C715 C 0.16069 0.83136 0.81808 0.0
C716 C 0.16148 0.80619 0.82053 0.0
C717 C 0.16609 0.79376 0.79993 0.0
C718 C 0.16947 0.80632 0.77717 0.0
C719 C 0.16913 0.83216 0.77539 0.0
H720 H 0.09712 0.26061 0.83812 0.0
H721 H 0.15278 0.29654 0.90077 0.0
H722 H 0.19048 0.33194 0.87514 0.0
H723 H 0.1525 0.27119 0.79461 0.0
H724 H 0.13616 0.28011 0.77086 0.0
H725 H 0.11468 0.25577 0.79381 0.0
H726 H 0.09358 0.28818 0.80329 0.0
H727 H 0.11536 0.31291 0.78073 0.0
H728 H 0.11694 0.32559 0.81132 0.0
H729 H 0.22049 0.36675 0.84345 0.0
H730 H 0.2421 0.39516 0.80719 0.0
H731 H 0.16713 0.33618 0.7653 0.0
C732 C 0.11745 0.27538 0.8464 0.0
C733 C 0.12188 0.27566 0.87153 0.0
C734 C 0.14877 0.29576 0.8816 0.0
C735 C 0.17035 0.31606 0.86718 0.0
C736 C 0.16487 0.31591 0.84269 0.0
C737 C 0.13924 0.2958 0.83229 0.0
C738 C 0.13835 0.30102 0.80571 0.0
C739 C 0.13525 0.27551 0.79034 0.0
C740 C 0.11465 0.3073 0.79994 0.0
C741 C 0.16726 0.3275 0.80289 0.0
C742 C 0.18225 0.33577 0.82441 0.0
C743 C 0.20909 0.36024 0.82642 0.0
C744 C 0.22113 0.37635 0.80576 0.0
C745 C 0.20638 0.36783 0.7834 0.0
C746 C 0.17901 0.34319 0.78211 0.0
H747 H 0.8294 0.7334 0.66143 0.0
H748 H 0.84605 0.69533 0.59845 0.0
H749 H 0.84797 0.65976 0.62409 0.0
H750 H 0.87515 0.72339 0.70311 0.0
H751 H 0.85133 0.71549 0.72789 0.0
H752 H 0.85291 0.73896 0.70466 0.0
H753 H 0.79891 0.70639 0.69736 0.0
H754 H 0.79722 0.68263 0.72032 0.0
H755 H 0.78432 0.66868 0.6903 0.0
H756 H 0.84499 0.62616 0.6563 0.0
H757 H 0.8409 0.59963 0.69326 0.0
H758 H 0.82679 0.66006 0.73488 0.0
C759 C 0.83388 0.7179 0.65301 0.0
C760 C 0.83753 0.71726 0.62785 0.0
C761 C 0.84318 0.69639 0.61766 0.0
C762 C 0.84426 0.67599 0.63207 0.0
C763 C 0.83984 0.67679 0.65668 0.0
C764 C 0.83511 0.69742 0.66712 0.0
C765 C 0.83056 0.6933 0.69394 0.0
C766 C 0.85388 0.71933 0.70824 0.0
C767 C 0.80099 0.68739 0.70087 0.0
C768 C 0.83306 0.6669 0.69688 0.0
C769 C 0.8384 0.65766 0.6752 0.0
C770 C 0.84102 0.63333 0.67343 0.0
C771 C 0.83854 0.61832 0.69447 0.0
C772 C 0.83359 0.6278 0.71692 0.0
C773 C 0.83064 0.65229 0.71799 0.0
H774 H 0.35772 0.21862 0.69282 0.0
H775 H 0.38324 0.16192 0.72301 0.0
H776 H 0.35629 0.12551 0.69118 0.0
H777 H 0.28936 0.16746 0.68061 0.0
H778 H 0.28498 0.18033 0.65221 0.0
H779 H 0.31068 0.20505 0.67389 0.0
H780 H 0.35056 0.22131 0.64283 0.0
H781 H 0.32497 0.19737 0.62058 0.0
H782 H 0.35573 0.1948 0.62713 0.0
H783 H 0.32071 0.09257 0.66224 0.0
H784 H 0.28185 0.06555 0.63309 0.0
H785 H 0.27905 0.14273 0.61895 0.0
C786 C 0.35865 0.1991 0.69191 0.0
C787 C 0.37301 0.19316 0.70991 0.0
C788 C 0.37279 0.16692 0.709 0.0
C789 C 0.35748 0.14612 0.69107 0.0
C790 C 0.34252 0.15196 0.67415 0.0
C791 C 0.34332 0.17794 0.67398 0.0
C792 C 0.32318 0.17734 0.65484 0.0
C793 C 0.30072 0.18286 0.66608 0.0
C794 C 0.33959 0.19899 0.63517 0.0
C795 C 0.31012 0.14659 0.64518 0.0
C796 C 0.3218 0.13255 0.65667 0.0
C797 C 0.31181 0.10344 0.65271 0.0
C798 C 0.2895 0.08821 0.63634 0.0
C799 C 0.27747 0.10207 0.62389 0.0
C800 C 0.28809 0.13175 0.62813 0.0
H801 H 0.843 0.1418 0.62037 0.0
H802 H 0.90889 0.13133 0.65283 0.0
H803 H 0.88397 0.12082 0.69164 0.0
H804 H 0.83521 0.17894 0.66638 0.0
H805 H 0.79734 0.16277 0.66451 0.0
H806 H 0.81676 0.16368 0.63817 0.0
H807 H 0.78605 0.10837 0.63268 0.0
H808 H 0.76602 0.10725 0.65878 0.0
H809 H 0.78255 0.08577 0.65739 0.0
H810 H 0.85841 0.12243 0.72783 0.0
H811 H 0.82998 0.12885 0.75874 0.0
H812 H 0.77776 0.13478 0.70328 0.0
C813 C 0.85162 0.13621 0.63543 0.0
C814 C 0.87785 0.13725 0.63361 0.0
C815 C 0.88869 0.13027 0.65374 0.0
C816 C 0.87472 0.12441 0.67587 0.0
C817 C 0.84967 0.12505 0.67736 0.0
C818 C 0.83776 0.13002 0.65754 0.0
C819 C 0.81189 0.13177 0.66442 0.0
C820 C 0.81554 0.16103 0.65799 0.0
C821 C 0.78503 0.1068 0.65262 0.0
C822 C 0.81197 0.1286 0.69146 0.0
C823 C 0.83395 0.12465 0.69843 0.0
C824 C 0.84061 0.12454 0.72254 0.0
C825 C 0.8244 0.1284 0.73997 0.0
C826 C 0.80138 0.13182 0.73339 0.0
C827 C 0.79483 0.13154 0.70877 0.0
H828 H 0.00591 0.50961 0.45001 0.0
H829 H 0.94943 0.53547 0.48093 0.0
H830 H 0.97179 0.54104 0.52099 0.0
H831 H 0.00643 0.46875 0.49887 0.0
H832 H 0.04323 0.47988 0.49573 0.0
H833 H 0.02293 0.47869 0.46986 0.0
H834 H 0.05962 0.53216 0.46227 0.0
H835 H 0.07976 0.53369 0.48846 0.0
H836 H 0.0676 0.55885 0.4858 0.0
H837 H 0.99861 0.54103 0.55784 0.0
H838 H 0.02567 0.53276 0.58895 0.0
H839 H 0.06643 0.50965 0.53339 0.0
C840 C 0.99803 0.51626 0.46521 0.0
C841 C 0.97571 0.52185 0.46241 0.0
C842 C 0.96635 0.53086 0.48271 0.0
C843 C 0.97908 0.5343 0.50546 0.0
C844 C 1.00137 0.52904 0.50746 0.0
C845 C 0.0107 0.52014 0.48786 0.0
C846 C 0.03452 0.51519 0.49481 0.0
C847 C 0.02627 0.48376 0.48951 0.0
C848 C 0.062 0.53623 0.48208 0.0
C849 C 0.03669 0.52189 0.5216 0.0
C850 C 0.01754 0.5301 0.5285 0.0
C851 C 0.01399 0.53512 0.5526 0.0
C852 C 0.02954 0.53053 0.57012 0.0
C853 C 0.04856 0.52124 0.56347 0.0
C854 C 0.05282 0.51778 0.53888 0.0
H855 H 0.50893 0.50329 0.43636 0.0
H856 H 0.49816 0.43133 0.47772 0.0
H857 H 0.48691 0.45163 0.51375 0.0
H858 H 0.5423 0.55707 0.48178 0.0
H859 H 0.5251 0.57635 0.47287 0.0
H860 H 0.53124 0.55523 0.4509 0.0
H861 H 0.47773 0.52702 0.44003 0.0
H862 H 0.47131 0.54772 0.46233 0.0
H863 H 0.4523 0.50903 0.46333 0.0
H864 H 0.47851 0.48159 0.54546 0.0
H865 H 0.47735 0.51942 0.57036 0.0
H866 H 0.49246 0.5702 0.50668 0.0
C867 C 0.50427 0.49169 0.45296 0.0
C868 C 0.5045 0.46575 0.45429 0.0
C869 C 0.49824 0.45132 0.47638 0.0
C870 C 0.49161 0.46258 0.49682 0.0
C871 C 0.49118 0.48807 0.49468 0.0
C872 C 0.49748 0.50241 0.47326 0.0
C873 C 0.49654 0.52981 0.47551 0.0
C874 C 0.52551 0.55616 0.46995 0.0
C875 C 0.47307 0.52829 0.45934 0.0
C876 C 0.48944 0.52924 0.50181 0.0
C877 C 0.48608 0.50488 0.51258 0.0
C878 C 0.48088 0.50059 0.53713 0.0
C879 C 0.48015 0.52221 0.55112 0.0
C880 C 0.48479 0.5479 0.54052 0.0
C881 C 0.48856 0.55082 0.51539 0.0
H882 H 0.49386 -0.00019 0.42394 0.0
H883 H 0.56917 0.06295 0.46327 0.0
H884 H 0.54938 0.03613 0.50075 0.0
H885 H 0.44422 0.98878 0.46991 0.0
H886 H 0.42229 0.95087 0.46297 0.0
H887 H 0.4429 0.97512 0.43971 0.0
H888 H 0.46622 0.94457 0.43091 0.0
H889 H 0.44601 0.92047 0.45443 0.0
H890 H 0.48403 0.93791 0.45494 0.0
H891 H 0.52059 0.00183 0.53398 0.0
H892 H 0.48425 0.96603 0.56045 0.0
H893 H 0.42841 0.92561 0.49846 0.0
C894 C 0.50622 0.00818 0.44043 0.0
C895 C 0.53308 0.03351 0.4407 0.0
C896 C 0.54851 0.04364 0.46267 0.0
C897 C 0.53751 0.02844 0.48399 0.0
C898 C 0.51111 0.00319 0.48294 0.0
C899 C 0.49564 0.99332 0.46171 0.0
C900 C 0.4676 0.96604 0.46527 0.0
C901 C 0.44279 0.97049 0.45911 0.0
C902 C 0.46588 0.94076 0.45051 0.0
C903 C 0.46938 0.96223 0.49197 0.0
C904 C 0.49473 0.98365 0.50185 0.0
C905 C 0.50072 0.98494 0.52638 0.0
C906 C 0.47992 0.96438 0.54128 0.0
C907 C 0.45334 0.94285 0.53163 0.0
C908 C 0.44848 0.94153 0.50651 0.0
H909 H 0.48909 0.0151 0.94748 0.0
H910 H 0.54461 0.09832 0.98184 0.0
H911 H 0.55383 0.07462 0.01506 0.0
H912 H 0.4562 0.98098 0.99915 0.0
H913 H 0.45261 0.9466 0.99176 0.0
H914 H 0.45467 0.96972 0.96809 0.0
H915 H 0.49738 0.96828 0.95002 0.0
H916 H 0.49535 0.94494 0.97361 0.0
H917 H 0.52794 0.97811 0.96874 0.0
H918 H 0.55087 0.04333 0.04695 0.0
H919 H 0.53647 0.00582 0.07665 0.0
H920 H 0.48305 0.94083 0.02311 0.0
C921 C 0.50397 0.02828 0.96161 0.0
C922 C 0.51648 0.05858 0.96202 0.0
C923 C 0.535 0.07514 0.98116 0.0
C924 C 0.54046 0.06186 1.00002 0.0
C925 C 0.52716 0.03195 0.99952 0.0
C926 C 0.50936 0.01524 0.98084 0.0
C927 C 0.49514 0.98343 0.98639 0.0
C928 C 0.46274 0.96937 0.98635 0.0
C929 C 0.50452 0.96776 0.96863 0.0
C930 C 0.50675 0.98501 0.01157 0.0
C931 C 0.52555 0.01332 0.01844 0.0
C932 C 0.53685 0.02106 0.04159 0.0
C933 C 0.52846 -0.0005 0.05836 0.0
C934 C 0.50926 0.97031 0.05201 0.0
C935 C 0.49858 0.96283 0.02815 0.0
H936 H 0.96281 0.4655 0.95093 0.0
H937 H 0.88609 0.42286 0.9927 0.0
H938 H 0.91193 0.45323 0.02815 0.0
H939 H 0.00715 0.46708 0.9947 0.0
H940 H 0.03715 0.50192 0.98858 0.0
H941 H 0.01207 0.48136 0.96492 0.0
H942 H 0.00366 0.52356 0.95739 0.0
H943 H 0.02915 0.54453 0.9808 0.0
H944 H 0.99387 0.53877 0.98213 0.0
H945 H 0.94637 0.48138 0.06004 0.0
H946 H 0.98747 0.50862 0.08692 0.0
H947 H 0.04328 0.53449 0.0255 0.0
C948 C 0.95126 0.46343 0.96728 0.0
C949 C 0.92238 0.44205 0.96906 0.0
C950 C 0.90815 0.43921 0.99096 0.0
C951 C 0.92264 0.4564 0.01116 0.0
C952 C 0.95135 0.47638 0.00915 0.0
C953 C 0.96554 0.48033 0.98775 0.0
C954 C 0.99703 0.50125 0.99129 0.0
C955 C 0.01435 0.48704 0.98447 0.0
C956 C 0.00648 0.52866 0.97706 0.0
C957 C 0.99839 0.50737 0.01821 0.0
C958 C 0.97166 0.49298 0.02796 0.0
C959 C 0.96735 0.49318 0.05259 0.0
C960 C 0.99093 0.50849 0.06773 0.0
C961 C 0.01858 0.52357 0.05827 0.0
C962 C 0.02235 0.52333 0.03313 0.0
H963 H 0.50943 0.48127 0.9547 0.0
H964 H 0.57842 0.47024 0.97868 0.0
H965 H 0.55736 0.45813 0.01912 0.0
H966 H 0.50514 0.51576 0.00601 0.0
H967 H 0.46718 0.49894 0.00611 0.0
H968 H 0.48518 0.50274 0.97818 0.0
H969 H 0.4548 0.44788 0.96956 0.0
H970 H 0.43634 0.4439 0.99734 0.0
H971 H 0.45334 0.42332 0.99172 0.0
H972 H 0.53322 0.45479 0.05795 0.0
H973 H 0.50494 0.45538 0.0921 0.0
H974 H 0.44981 0.46622 0.04306 0.0
C975 C 0.51972 0.47552 0.96826 0.0
C976 C 0.54556 0.4766 0.96352 0.0
C977 C 0.55851 0.46929 0.98183 0.0
C978 C 0.54673 0.46248 0.00487 0.0
C979 C 0.5218 0.46266 0.00917 0.0
C980 C 0.50811 0.46845 0.99127 0.0
C981 C 0.48245 0.46883 0.00098 0.0
C982 C 0.48517 0.49832 0.99762 0.0
C983 C 0.45511 0.44453 0.9892 0.0
C984 C 0.48439 0.46334 0.02735 0.0
C985 C 0.50726 0.45984 0.03161 0.0
C986 C 0.51494 0.4569 0.05476 0.0
C987 C 0.49884 0.45749 0.07405 0.0
C988 C 0.4751 0.46067 0.07018 0.0
C989 C 0.46758 0.4633 0.04647 0.0
H990 H 0.22948 0.02182 0.95886 0.0
H991 H 0.15314 0.01538 0.93026 0.0
H992 H 0.17002 0.06558 0.9441 0.0
H993 H 0.23523 0.05842 0.01043 0.0
H994 H 0.27311 0.08172 0.01083 0.0
H995 H 0.25736 0.04749 0.99517 0.0
H996 H 0.28209 0.07227 0.9558 0.0
H997 H 0.29836 0.10671 0.97146 0.0
H998 H 0.27766 0.10073 0.94446 0.0
H999 H 0.1901 0.1112 0.96893 0.0
H1000 H 0.21489 0.15175 0.99849 0.0
H1001 H 0.28077 0.13105 0.00704 0.0
C1002 C 0.21688 0.03147 0.95486 0.0
C1003 C 0.19021 0.01522 0.94352 0.0
C1004 C 0.17384 0.02794 0.93871 0.0
C1005 C 0.18325 0.05631 0.94651 0.0
C1006 C 0.2094 0.07168 0.95836 0.0
C1007 C 0.22636 0.05996 0.9619 0.0
C1008 C 0.25267 0.0802 0.97645 0.0
C1009 C 0.25467 0.06611 0.99958 0.0
C1010 C 0.27927 0.0906 0.96113 0.0
C1011 C 0.24696 0.10433 0.98198 0.0
C1012 C 0.22195 0.09909 0.97129 0.0
C1013 C 0.21023 0.11617 0.97663 0.0
C1014 C 0.22429 0.13899 0.99345 0.0
C1015 C 0.24994 0.1447 0.00428 0.0
C1016 C 0.2617 0.1276 0.99814 0.0
H1017 H 0.00238 0.16575 0.96982 0.0
H1018 H 0.99543 0.23544 0.94101 0.0
H1019 H 0.94514 0.21109 0.95135 0.0
H1020 H 0.9271 0.10584 0.95641 0.0
H1021 H 0.92488 0.08942 0.98483 0.0
H1022 H 0.95831 0.10854 0.96973 0.0
H1023 H 0.98092 0.14081 0.00796 0.0
H1024 H 0.94769 0.12187 0.0231 0.0
H1025 H 0.96523 0.16038 0.02067 0.0
H1026 H 0.89695 0.18177 0.9685 0.0
H1027 H 0.85711 0.15358 0.99589 0.0
H1028 H 0.89672 0.10587 0.01808 0.0
C1029 C 0.9898 0.1751 0.96481 0.0
C1030 C 0.00222 0.20159 0.95312 0.0
C1031 C 0.98582 0.21431 0.9483 0.0
C1032 C 0.95723 0.20068 0.9544 0.0
C1033 C 0.94543 0.17452 0.96591 0.0
C1034 C 0.96127 0.16197 0.97134 0.0
C1035 C 0.94484 0.13627 0.98717 0.0
C1036 C 0.9384 0.10836 0.97373 0.0
C1037 C 0.96061 0.14009 0.01114 0.0
C1038 C 0.91808 0.1374 0.99086 0.0
C1039 C 0.91835 0.15888 0.97764 0.0
C1040 C 0.89633 0.16467 0.97874 0.0
C1041 C 0.87378 0.14855 0.99423 0.0
C1042 C 0.87399 0.12765 0.00889 0.0
C1043 C 0.89612 0.12168 0.00685 0.0
H1044 H 0.86753 0.77921 0.03408 0.0
H1045 H 0.86256 0.71412 0.98384 0.0
H1046 H 0.833 0.72393 0.95624 0.0
H1047 H 0.79805 0.76192 0.02835 0.0
H1048 H 0.80564 0.79847 0.03121 0.0
H1049 H 0.82894 0.78853 0.04491 0.0
H1050 H 0.87113 0.82843 0.02169 0.0
H1051 H 0.84784 0.83841 0.00779 0.0
H1052 H 0.86911 0.82906 0.98934 0.0
H1053 H 0.79979 0.73852 0.93607 0.0
H1054 H 0.76561 0.75445 0.92687 0.0
H1055 H 0.79314 0.80895 0.99121 0.0
C1056 C 0.86065 0.76722 0.01712 0.0
C1057 C 0.86739 0.74589 0.0111 0.0
C1058 C 0.85776 0.73066 0.98876 0.0
C1059 C 0.84103 0.73617 0.97298 0.0
C1060 C 0.83441 0.75714 0.97975 0.0
C1061 C 0.84412 0.77244 0.00133 0.0
C1062 C 0.83264 0.79229 0.00563 0.0
C1063 C 0.81528 0.78483 0.02888 0.0
C1064 C 0.85661 0.82392 0.00613 0.0
C1065 C 0.8141 0.78522 0.98349 0.0
C1066 C 0.81564 0.7653 0.96844 0.0
C1067 C 0.79887 0.75446 0.94755 0.0
C1068 C 0.77968 0.76372 0.94235 0.0
C1069 C 0.77735 0.78331 0.95812 0.0
C1070 C 0.7951 0.79445 0.97862 0.0
H1071 H 0.99816 0.1838 0.51726 0.0
H1072 H 0.0292 0.22993 0.58544 0.0
H1073 H 0.07833 0.24463 0.57377 0.0
H1074 H 0.05273 0.16111 0.51019 0.0
H1075 H 0.05373 0.16607 0.47815 0.0
H1076 H 0.02138 0.1547 0.49424 0.0
H1077 H 0.01892 0.19771 0.47743 0.0
H1078 H 0.05137 0.20951 0.46168 0.0
H1079 H 0.04828 0.23372 0.48262 0.0
H1080 H 0.12465 0.26115 0.5509 0.0
H1081 H 0.16234 0.27558 0.52051 0.0
H1082 H 0.09962 0.21765 0.46794 0.0
C1083 C 0.01524 0.19587 0.53016 0.0
C1084 C 0.01004 0.20521 0.55243 0.0
C1085 C 0.03282 0.22191 0.56858 0.0
C1086 C 0.06075 0.23047 0.56199 0.0
C1087 C 0.06533 0.22181 0.53933 0.0
C1088 C 0.04299 0.20435 0.5239 0.0
C1089 C 0.05321 0.20024 0.49968 0.0
C1090 C 0.04476 0.16865 0.49532 0.0
C1091 C 0.04231 0.21095 0.47917 0.0
C1092 C 0.08479 0.21919 0.50335 0.0
C1093 C 0.09159 0.23122 0.52637 0.0
C1094 C 0.11951 0.25132 0.53301 0.0
C1095 C 0.1408 0.25946 0.51564 0.0
C1096 C 0.13398 0.24768 0.49186 0.0
C1097 C 0.10566 0.2269 0.48599 0.0
H1098 H 0.82775 0.81284 0.50868 0.0
H1099 H 0.79773 0.80924 0.58137 0.0
H1100 H 0.77556 0.83734 0.56903 0.0
H1101 H 0.84301 0.88593 0.49651 0.0
H1102 H 0.8321 0.87649 0.46542 0.0
H1103 H 0.84726 0.85864 0.48113 0.0
H1104 H 0.80296 0.80932 0.47008 0.0
H1105 H 0.78749 0.82697 0.45465 0.0
H1106 H 0.76848 0.80267 0.47845 0.0
H1107 H 0.75226 0.86191 0.5462 0.0
H1108 H 0.7342 0.88301 0.51677 0.0
H1109 H 0.78178 0.8703 0.46047 0.0
C1110 C 0.81696 0.8184 0.52217 0.0
C1111 C 0.81427 0.8088 0.5459 0.0
C1112 C 0.80007 0.81652 0.56307 0.0
C1113 C 0.78736 0.83237 0.55617 0.0
C1114 C 0.78966 0.84071 0.53224 0.0
C1115 C 0.80464 0.83434 0.51571 0.0
C1116 C 0.80359 0.84464 0.49095 0.0
C1117 C 0.83325 0.86781 0.48305 0.0
C1118 C 0.7898 0.81939 0.47246 0.0
C1119 C 0.78501 0.85719 0.49577 0.0
C1120 C 0.77708 0.85493 0.5196 0.0
C1121 C 0.75872 0.86409 0.52759 0.0
C1122 C 0.74847 0.87592 0.51078 0.0
C1123 C 0.75665 0.87841 0.48635 0.0
C1124 C 0.77522 0.86896 0.47902 0.0
H1125 H 0.19645 0.98053 0.54722 0.0
H1126 H 0.15655 0.02197 0.51256 0.0
H1127 H 0.12276 0.97601 0.49184 0.0
H1128 H 0.19662 0.94257 0.49789 0.0
H1129 H 0.18963 0.91036 0.51278 0.0
H1130 H 0.20641 0.94422 0.52914 0.0
H1131 H 0.16735 0.92328 0.56125 0.0
H1132 H 0.15053 0.88907 0.54519 0.0
H1133 H 0.13076 0.90657 0.55206 0.0
H1134 H 0.09899 0.92887 0.47026 0.0
H1135 H 0.08604 0.88309 0.44921 0.0
H1136 H 0.14157 0.87148 0.49718 0.0
C1137 C 0.17971 0.97945 0.53618 0.0
C1138 C 0.1783 0.00432 0.53198 0.0
C1139 C 0.15726 0.00278 0.51639 0.0
C1140 C 0.13807 0.97682 0.50458 0.0
C1141 C 0.14042 0.95273 0.5085 0.0
C1142 C 0.16057 0.95369 0.52406 0.0
C1143 C 0.1609 0.92579 0.52269 0.0
C1144 C 0.19012 0.93107 0.51517 0.0
C1145 C 0.15184 0.91026 0.54673 0.0
C1146 C 0.13874 0.90955 0.50315 0.0
C1147 C 0.12689 0.92534 0.49555 0.0
C1148 C 0.10767 0.91604 0.47636 0.0
C1149 C 0.10058 0.89008 0.46443 0.0
C1150 C 0.11271 0.87373 0.47165 0.0
C1151 C 0.13163 0.88335 0.49155 0.0
H1152 H 0.73355 0.87074 0.01986 0.0
H1153 H 0.77637 0.90104 0.95176 0.0
H1154 H 0.80306 0.95024 0.96892 0.0
H1155 H 0.72576 0.93118 0.03272 0.0
H1156 H 0.73165 0.93174 0.06471 0.0
H1157 H 0.71702 0.89842 0.0476 0.0
H1158 H 0.75734 0.89118 0.06326 0.0
H1159 H 0.77224 0.92466 0.08026 0.0
H1160 H 0.79361 0.91882 0.05887 0.0
H1161 H 0.82382 0.99622 0.99239 0.0
H1162 H 0.83512 0.03701 0.02007 0.0
H1163 H 0.77918 0.97789 0.07334 0.0
C1164 C 0.74864 0.88767 0.00859 0.0
C1165 C 0.75282 0.88186 0.98442 0.0
C1166 C 0.77265 0.90479 0.97027 0.0
C1167 C 0.7881 0.93286 0.9799 0.0
C1168 C 0.78356 0.9378 0.00373 0.0
C1169 C 0.76422 0.91596 0.01789 0.0
C1170 C 0.76244 0.92752 0.0426 0.0
C1171 C 0.73244 0.92188 0.04716 0.0
C1172 C 0.77198 0.91478 0.06242 0.0
C1173 C 0.78345 0.95932 0.03991 0.0
C1174 C 0.79557 0.96463 0.0174 0.0
C1175 C 0.81462 0.99235 0.01013 0.0
C1176 C 0.82089 0.01538 0.026 0.0
C1177 C 0.80813 0.01065 0.04891 0.0
C1178 C 0.78965 0.98215 0.05613 0.0
H1179 H 0.1213 0.8796 0.99599 0.0
H1180 H 0.07575 0.87891 0.9319 0.0
H1181 H 0.03054 0.84822 0.95181 0.0
H1182 H 0.06998 0.80471 0.0134 0.0
H1183 H 0.07392 0.81382 0.04514 0.0
H1184 H 0.10307 0.83376 0.02524 0.0
H1185 H 0.10612 0.88103 0.04016 0.0
H1186 H 0.07668 0.86119 0.05979 0.0
H1187 H 0.07533 0.8846 0.03792 0.0
H1188 H 0.99072 0.82103 0.97854 0.0
H1189 H 0.957 0.7944 0.0103 0.0
H1190 H 0.02661 0.81186 0.05848 0.0
C1191 C 0.10175 0.87228 0.98605 0.0
C1192 C 0.10195 0.88144 0.96234 0.0
C1193 C 0.07602 0.87209 0.95004 0.0
C1194 C 0.05023 0.8547 0.9612 0.0
C1195 C 0.0506 0.84685 0.98479 0.0
C1196 C 0.07553 0.85494 0.9971 0.0
C1197 C 0.06945 0.84409 0.0227 0.0
C1198 C 0.07971 0.82283 0.02686 0.0
C1199 C 0.08269 0.86923 0.04123 0.0
C1200 C 0.03734 0.82901 0.02274 0.0
C1201 C 0.02711 0.83098 0.0006 0.0
C1202 C 0.99839 0.81909 0.99593 0.0
C1203 C 0.97939 0.80406 0.01417 0.0
C1204 C 0.98907 0.80096 0.03693 0.0
C1205 C 0.01855 0.81405 0.04137 0.0
H1206 H 0.12016 0.22028 0.98701 0.0
H1207 H 0.16701 0.30926 0.96595 0.0
H1208 H 0.21111 0.31346 0.982 0.0
H1209 H 0.16189 0.23086 0.04341 0.0
H1210 H 0.15914 0.19632 0.03945 0.0
H1211 H 0.13116 0.20153 0.02867 0.0
H1212 H 0.13572 0.18397 0.98601 0.0
H1213 H 0.1638 0.17895 0.99657 0.0
H1214 H 0.16951 0.20166 0.97139 0.0
H1215 H 0.25077 0.30512 0.99416 0.0
H1216 H 0.28213 0.28665 0.00553 0.0
H1217 H 0.20895 0.20445 0.02194 0.0
C1218 C 0.13961 0.24085 0.98631 0.0
C1219 C 0.14026 0.2645 0.97531 0.0
C1220 C 0.16606 0.29101 0.97456 0.0
C1221 C 0.19119 0.29353 0.98355 0.0
C1222 C 0.18994 0.26952 0.99373 0.0
C1223 C 0.16467 0.24387 0.99564 0.0
C1224 C 0.16909 0.22093 0.0065 0.0
C1225 C 0.15445 0.21189 0.03096 0.0
C1226 C 0.15893 0.19486 0.98907 0.0
C1227 C 0.20094 0.23727 0.00951 0.0
C1228 C 0.21262 0.26527 0.00201 0.0
C1229 C 0.24182 0.28354 0.00072 0.0
C1230 C 0.25945 0.27289 0.00714 0.0
C1231 C 0.24786 0.24445 0.01514 0.0
C1232 C 0.21827 0.22659 0.01665 0.0
H1233 H 0.91788 0.77358 0.55289 0.0
H1234 H 0.85938 0.71718 0.49723 0.0
H1235 H 0.89982 0.72188 0.47341 0.0
H1236 H 0.97153 0.82176 0.51555 0.0
H1237 H 1.00011 0.82652 0.53477 0.0
H1238 H 0.96652 0.81724 0.54757 0.0
H1239 H 0.96326 0.77244 0.5669 0.0
H1240 H 0.99707 0.78183 0.55447 0.0
H1241 H 0.96674 0.74673 0.54819 0.0
H1242 H 0.94856 0.73682 0.45447 0.0
H1243 H 0.99906 0.75567 0.44475 0.0
H1244 H 0.02352 0.80065 0.51417 0.0
C1245 C 0.9135 0.7619 0.53581 0.0
C1246 C 0.88558 0.74506 0.52683 0.0
C1247 C 0.88067 0.73001 0.50448 0.0
C1248 C 0.90351 0.73274 0.49081 0.0
C1249 C 0.93097 0.75022 0.49998 0.0
C1250 C 0.93584 0.76407 0.52223 0.0
C1251 C 0.967 0.78155 0.52839 0.0
C1252 C 0.97685 0.81366 0.53176 0.0
C1253 C 0.97392 0.76993 0.55081 0.0
C1254 C 0.97917 0.77599 0.50595 0.0
C1255 C 0.95827 0.75799 0.48962 0.0
C1256 C 0.965 0.75068 0.4673 0.0
C1257 C 0.99373 0.76163 0.46185 0.0
C1258 C 0.0153 0.77949 0.47873 0.0
C1259 C 0.00765 0.78681 0.50091 0.0
H1260 H 0.18925 0.20575 0.47505 0.0
H1261 H 0.2428 0.2171 0.41387 0.0
H1262 H 0.2628 0.19162 0.43503 0.0
H1263 H 0.23863 0.21507 0.52137 0.0
H1264 H 0.21257 0.18757 0.54011 0.0
H1265 H 0.20247 0.20686 0.5203 0.0
H1266 H 0.16406 0.15889 0.50023 0.0
H1267 H 0.17366 0.13946 0.52029 0.0
H1268 H 0.17384 0.13394 0.48817 0.0
H1269 H 0.27844 0.1664 0.4638 0.0
H1270 H 0.28285 0.13691 0.49503 0.0
H1271 H 0.21778 0.14051 0.53649 0.0
C1272 C 0.20503 0.2027 0.466 0.0
C1273 C 0.21443 0.21348 0.44276 0.0
C1274 C 0.23504 0.20887 0.43156 0.0
C1275 C 0.24676 0.19466 0.44355 0.0
C1276 C 0.23747 0.1849 0.46665 0.0
C1277 C 0.21667 0.18823 0.47756 0.0
C1278 C 0.20951 0.17468 0.50206 0.0
C1279 C 0.2162 0.19741 0.52214 0.0
C1280 C 0.17843 0.15029 0.50271 0.0
C1281 C 0.22951 0.16316 0.50322 0.0
C1282 C 0.2458 0.16967 0.48282 0.0
C1283 C 0.26572 0.16113 0.47983 0.0
C1284 C 0.26828 0.1446 0.49776 0.0
C1285 C 0.25074 0.13649 0.51821 0.0
C1286 C 0.23159 0.14649 0.52111 0.0
H1287 H 0.808 0.03119 0.43193 0.0
H1288 H 0.80024 0.96658 0.48149 0.0
H1289 H 0.83139 0.00461 0.51056 0.0
H1290 H 0.88278 0.08487 0.44708 0.0
H1291 H 0.87731 0.11491 0.44479 0.0
H1292 H 0.85624 0.08273 0.42665 0.0
H1293 H 0.81067 0.079 0.44377 0.0
H1294 H 0.83157 0.11097 0.46212 0.0
H1295 H 0.80584 0.0781 0.47591 0.0
H1296 H 0.85959 0.04816 0.53552 0.0
H1297 H 0.88621 0.09603 0.55484 0.0
H1298 H 0.87709 0.13411 0.48983 0.0
C1299 C 0.81338 0.02514 0.44869 0.0
C1300 C 0.80165 0.99589 0.45442 0.0
C1301 C 0.80882 0.9888 0.47671 0.0
C1302 C 0.82657 0.01025 0.49336 0.0
C1303 C 0.83712 0.03877 0.4875 0.0
C1304 C 0.83111 0.04642 0.46569 0.0
C1305 C 0.84445 0.07884 0.46463 0.0
C1306 C 0.86651 0.09106 0.4446 0.0
C1307 C 0.82177 0.08721 0.46142 0.0
C1308 C 0.85837 0.08799 0.48941 0.0
C1309 C 0.85385 0.0644 0.50216 0.0
C1310 C 0.86358 0.06689 0.52568 0.0
C1311 C 0.87859 0.09427 0.53653 0.0
C1312 C 0.88387 0.11901 0.5239 0.0
C1313 C 0.87357 0.11572 0.49995 0.0
H1314 H 0.89865 0.43559 0.3804 0.0
H1315 H 0.95075 0.49271 0.32456 0.0
H1316 H 0.93394 0.45092 0.29612 0.0
H1317 H 0.9138 0.38135 0.36686 0.0
H1318 H 0.87907 0.35209 0.37382 0.0
H1319 H 0.89235 0.38668 0.38853 0.0
H1320 H 0.84837 0.3882 0.37378 0.0
H1321 H 0.83485 0.35349 0.3591 0.0
H1322 H 0.83958 0.38359 0.34209 0.0
H1323 H 0.91162 0.402 0.27418 0.0
H1324 H 0.88943 0.35047 0.26193 0.0
H1325 H 0.85619 0.32629 0.33377 0.0
C1326 C 0.90608 0.4394 0.36204 0.0
C1327 C 0.92566 0.46733 0.35449 0.0
C1328 C 0.93555 0.47141 0.33056 0.0
C1329 C 0.92607 0.44785 0.31432 0.0
C1330 C 0.90702 0.42044 0.32248 0.0
C1331 C 0.89736 0.41617 0.34587 0.0
C1332 C 0.87898 0.38456 0.35095 0.0
C1333 C 0.89183 0.37566 0.37123 0.0
C1334 C 0.84865 0.37702 0.35682 0.0
C1335 C 0.88011 0.37157 0.32691 0.0
C1336 C 0.89582 0.39253 0.31049 0.0
C1337 C 0.89936 0.38546 0.28693 0.0
C1338 C 0.8867 0.35622 0.28012 0.0
C1339 C 0.87142 0.33464 0.29702 0.0
C1340 C 0.86806 0.34248 0.32061 0.0
H1341 H 0.58777 0.46844 0.37415 0.0
H1342 H 0.5265 0.45505 0.31855 0.0
H1343 H 0.56559 0.47915 0.28933 0.0
H1344 H 0.63912 0.53806 0.35813 0.0
H1345 H 0.66849 0.5335 0.36569 0.0
H1346 H 0.63545 0.51322 0.38093 0.0
H1347 H 0.63358 0.46576 0.36828 0.0
H1348 H 0.66663 0.48592 0.35292 0.0
H1349 H 0.63597 0.45818 0.33687 0.0
H1350 H 0.61332 0.50624 0.26652 0.0
H1351 H 0.66345 0.53602 0.25404 0.0
H1352 H 0.69106 0.53243 0.32625 0.0
C1353 C 0.58234 0.47017 0.35577 0.0
C1354 C 0.55405 0.45965 0.34856 0.0
C1355 C 0.54807 0.46286 0.32441 0.0
C1356 C 0.57012 0.47643 0.30772 0.0
C1357 C 0.59791 0.48672 0.31559 0.0
C1358 C 0.60388 0.48378 0.33917 0.0
C1359 C 0.63525 0.49793 0.34395 0.0
C1360 C 0.64514 0.52211 0.36331 0.0
C1361 C 0.64332 0.47561 0.35091 0.0
C1362 C 0.6463 0.50975 0.31947 0.0
C1363 C 0.62465 0.5028 0.30309 0.0
C1364 C 0.63032 0.51172 0.27927 0.0
C1365 C 0.65878 0.52849 0.2723 0.0
C1366 C 0.68095 0.5365 0.28926 0.0
C1367 C 0.67448 0.52671 0.31296 0.0
H1368 H 0.54991 0.11837 0.34796 0.0
H1369 H 0.52646 0.03853 0.30938 0.0
H1370 H 0.49764 0.04805 0.28082 0.0
H1371 H 0.48516 0.11099 0.34743 0.0
H1372 H 0.49691 0.14852 0.34409 0.0
H1373 H 0.51996 0.13828 0.35775 0.0
H1374 H 0.55837 0.16746 0.32636 0.0
H1375 H 0.53524 0.1777 0.31248 0.0
H1376 H 0.5499 0.16023 0.29467 0.0
H1377 H 0.46453 0.06216 0.26143 0.0
H1378 H 0.43036 0.07846 0.25437 0.0
H1379 H 0.47617 0.14899 0.30553 0.0
C1380 C 0.53943 0.10325 0.33307 0.0
C1381 C 0.54054 0.07775 0.33083 0.0
C1382 C 0.52617 0.05837 0.31129 0.0
C1383 C 0.50978 0.06365 0.29497 0.0
C1384 C 0.50835 0.08862 0.29825 0.0
C1385 C 0.52311 0.10823 0.31675 0.0
C1386 C 0.51565 0.13159 0.31844 0.0
C1387 C 0.5037 0.13235 0.34339 0.0
C1388 C 0.54133 0.16099 0.31263 0.0
C1389 C 0.49323 0.12136 0.29884 0.0
C1390 C 0.48966 0.0969 0.28696 0.0
C1391 C 0.4678 0.0818 0.27008 0.0
C1392 C 0.44861 0.0913 0.26598 0.0
C1393 C 0.45142 0.11559 0.27873 0.0
C1394 C 0.47445 0.13118 0.29476 0.0
H1395 H 0.6873 0.58963 0.86066 0.0
H1396 H 0.66231 0.50774 0.8926 0.0
H1397 H 0.70864 0.51345 0.88192 0.0
H1398 H 0.71938 0.58135 0.81114 0.0
H1399 H 0.74775 0.61822 0.81011 0.0
H1400 H 0.71484 0.60979 0.8237 0.0
H1401 H 0.74134 0.636 0.86329 0.0
H1402 H 0.77447 0.6446 0.84975 0.0
H1403 H 0.76419 0.62574 0.87767 0.0
H1404 H 0.75407 0.52426 0.86113 0.0
H1405 H 0.79524 0.5405 0.83422 0.0
H1406 H 0.79136 0.61627 0.81786 0.0
C1407 C 0.69181 0.5732 0.86596 0.0
C1408 C 0.67117 0.54821 0.87747 0.0
C1409 C 0.67787 0.52717 0.88399 0.0
C1410 C 0.70414 0.53024 0.87795 0.0
C1411 C 0.72367 0.55476 0.86587 0.0
C1412 C 0.71794 0.57611 0.86034 0.0
C1413 C 0.7414 0.59932 0.84575 0.0
C1414 C 0.73016 0.60232 0.82123 0.0
C1415 C 0.75623 0.62812 0.85997 0.0
C1416 C 0.76066 0.5871 0.84286 0.0
C1417 C 0.75028 0.5615 0.85478 0.0
C1418 C 0.76285 0.5447 0.8524 0.0
C1419 C 0.78622 0.55406 0.83717 0.0
C1420 C 0.79686 0.58005 0.8248 0.0
C1421 C 0.78424 0.59694 0.82801 0.0
H1422 H 0.4423 0.19056 0.78805 0.0
H1423 H 0.40395 0.21288 0.8464 0.0
H1424 H 0.4218 0.19115 0.87544 0.0
H1425 H 0.42506 0.12254 0.80897 0.0
H1426 H 0.45735 0.12524 0.79849 0.0
H1427 H 0.44286 0.14403 0.78335 0.0
H1428 H 0.49033 0.19201 0.78986 0.0
H1429 H 0.50491 0.17337 0.8052 0.0
H1430 H 0.5048 0.2034 0.8199 0.0
H1431 H 0.44518 0.16649 0.89788 0.0
H1432 H 0.46652 0.13768 0.91029 0.0
H1433 H 0.4862 0.13048 0.83584 0.0
C1434 C 0.43774 0.19116 0.80695 0.0
C1435 C 0.42193 0.20362 0.81502 0.0
C1436 C 0.4161 0.20347 0.83987 0.0
C1437 C 0.42627 0.19132 0.85645 0.0
C1438 C 0.44201 0.17931 0.84776 0.0
C1439 C 0.44737 0.17899 0.82348 0.0
C1440 C 0.46338 0.16368 0.81811 0.0
C1441 C 0.44612 0.13731 0.80125 0.0
C1442 C 0.49258 0.18436 0.80766 0.0
C1443 C 0.46602 0.15495 0.84312 0.0
C1444 C 0.4541 0.1645 0.86018 0.0
C1445 C 0.45443 0.15889 0.88459 0.0
C1446 C 0.46667 0.14262 0.8915 0.0
C1447 C 0.47776 0.13172 0.87396 0.0
C1448 C 0.47771 0.1384 0.84961 0.0
H1449 H 0.86864 0.31143 0.88926 0.0
H1450 H 0.81859 0.34573 0.86124 0.0
H1451 H 0.78391 0.29767 0.84412 0.0
H1452 H 0.86202 0.26925 0.8398 0.0
H1453 H 0.85976 0.23954 0.85584 0.0
H1454 H 0.8778 0.27506 0.8694 0.0
H1455 H 0.84553 0.25631 0.90653 0.0
H1456 H 0.82728 0.22059 0.89309 0.0
H1457 H 0.80767 0.23751 0.90246 0.0
H1458 H 0.75903 0.24884 0.82538 0.0
H1459 H 0.74524 0.20201 0.8058 0.0
H1460 H 0.81059 0.19817 0.8464 0.0
C1461 C 0.84982 0.30842 0.88025 0.0
C1462 C 0.84567 0.3318 0.8769 0.0
C1463 C 0.82158 0.32771 0.86425 0.0
C1464 C 0.80185 0.30056 0.85456 0.0
C1465 C 0.80661 0.27785 0.85781 0.0
C1466 C 0.8299 0.28139 0.87048 0.0
C1467 C 0.83154 0.25421 0.86925 0.0
C1468 C 0.85942 0.25987 0.85788 0.0
C1469 C 0.82777 0.2414 0.89433 0.0
C1470 C 0.80629 0.2353 0.85297 0.0
C1471 C 0.792 0.24926 0.84693 0.0
C1472 C 0.76962 0.23741 0.83037 0.0
C1473 C 0.76199 0.21086 0.8193 0.0
C1474 C 0.77664 0.19643 0.82485 0.0
C1475 C 0.79859 0.20846 0.84234 0.0
H1476 H 0.40771 0.19812 0.35406 0.0
H1477 H 0.4377 0.2287 0.28223 0.0
H1478 H 0.46134 0.27861 0.2979 0.0
H1479 H 0.39311 0.2537 0.37078 0.0
H1480 H 0.40448 0.25655 0.40168 0.0
H1481 H 0.39063 0.22292 0.38512 0.0
H1482 H 0.43641 0.2222 0.39467 0.0
H1483 H 0.45046 0.25592 0.41117 0.0
H1484 H 0.47017 0.25238 0.38673 0.0
H1485 H 0.48117 0.32501 0.32068 0.0
H1486 H 0.49426 0.36561 0.34897 0.0
H1487 H 0.45129 0.30589 0.40642 0.0
C1488 C 0.41933 0.21529 0.34162 0.0
C1489 C 0.42083 0.20933 0.31686 0.0
C1490 C 0.43613 0.23254 0.30124 0.0
C1491 C 0.44977 0.26104 0.30997 0.0
C1492 C 0.44792 0.26612 0.3344 0.0
C1493 C 0.43301 0.24399 0.35003 0.0
C1494 C 0.43368 0.2556 0.37533 0.0
C1495 C 0.40369 0.24666 0.38371 0.0
C1496 C 0.44857 0.24595 0.39302 0.0
C1497 C 0.45114 0.2877 0.37138 0.0
C1498 C 0.45925 0.29318 0.34764 0.0
C1499 C 0.475 0.32103 0.33933 0.0
C1500 C 0.4823 0.34398 0.35561 0.0
C1501 C 0.47382 0.33907 0.38 0.0
C1502 C 0.45832 0.31045 0.38799 0.0
H1503 H 0.6762 0.15689 0.38481 0.0
H1504 H 0.65027 0.0737 0.35141 0.0
H1505 H 0.69459 0.09516 0.32825 0.0
H1506 H 0.70502 0.19638 0.33075 0.0
H1507 H 0.73341 0.22739 0.34618 0.0
H1508 H 0.70079 0.20496 0.36146 0.0
H1509 H 0.72863 0.19786 0.39563 0.0
H1510 H 0.76132 0.22004 0.38028 0.0
H1511 H 0.75155 0.18406 0.38832 0.0
H1512 H 0.74268 0.12559 0.3097 0.0
H1513 H 0.78692 0.16417 0.29194 0.0
H1514 H 0.77878 0.22808 0.33391 0.0
C1515 C 0.68001 0.1433 0.37265 0.0
C1516 C 0.66006 0.11369 0.3699 0.0
C1517 C 0.66538 0.0965 0.35362 0.0
C1518 C 0.69055 0.10843 0.34057 0.0
C1519 C 0.70994 0.13772 0.34368 0.0
C1520 C 0.70468 0.15506 0.35892 0.0
C1521 C 0.72788 0.18627 0.35746 0.0
C1522 C 0.71607 0.20484 0.34842 0.0
C1523 C 0.74325 0.19772 0.38188 0.0
C1524 C 0.74689 0.18376 0.33901 0.0
C1525 C 0.73657 0.15549 0.33174 0.0
C1526 C 0.75088 0.14783 0.31516 0.0
C1527 C 0.77603 0.16975 0.30529 0.0
C1528 C 0.78604 0.19886 0.31164 0.0
C1529 C 0.77143 0.20588 0.32883 0.0
H1530 H 0.89713 0.53757 0.32244 0.0
H1531 H 0.91748 0.58431 0.39094 0.0
H1532 H 0.88581 0.60282 0.38043 0.0
H1533 H 0.89302 0.58902 0.28664 0.0
H1534 H 0.86331 0.56263 0.26877 0.0
H1535 H 0.88766 0.55348 0.28173 0.0
H1536 H 0.84637 0.51031 0.30295 0.0
H1537 H 0.82186 0.51909 0.28978 0.0
H1538 H 0.82315 0.51627 0.32198 0.0
H1539 H 0.85345 0.61846 0.3605 0.0
H1540 H 0.81848 0.62369 0.33606 0.0
H1541 H 0.81769 0.56371 0.28247 0.0
C1542 C 0.89485 0.55163 0.33528 0.0
C1543 C 0.90987 0.55969 0.35744 0.0
C1544 C 0.90605 0.5778 0.37391 0.0
C1545 C 0.88829 0.58856 0.36799 0.0
C1546 C 0.87415 0.58058 0.34574 0.0
C1547 C 0.87685 0.56201 0.3299 0.0
C1548 C 0.8586 0.5556 0.30759 0.0
C1549 C 0.87674 0.5658 0.28485 0.0
C1550 C 0.83616 0.52341 0.30547 0.0
C1551 C 0.84532 0.57362 0.31314 0.0
C1552 C 0.85477 0.58828 0.33502 0.0
C1553 C 0.84576 0.60685 0.34345 0.0
C1554 C 0.8261 0.60989 0.32941 0.0
C1555 C 0.81538 0.59403 0.30748 0.0
C1556 C 0.82542 0.57597 0.29926 0.0
H1557 H 0.56897 0.06801 0.89034 0.0
H1558 H 0.52559 0.05679 0.82243 0.0
H1559 H 0.56766 0.06276 0.80054 0.0
H1560 H 0.63357 0.12207 0.8743 0.0
H1561 H 0.65415 0.11047 0.8907 0.0
H1562 H 0.61934 0.10064 0.90065 0.0
H1563 H 0.60407 0.04668 0.8984 0.0
H1564 H 0.6391 0.05635 0.88886 0.0
H1565 H 0.60877 0.03142 0.87083 0.0
H1566 H 0.61821 0.07738 0.78652 0.0
H1567 H 0.66945 0.09503 0.78218 0.0
H1568 H 0.67758 0.09508 0.85994 0.0
C1569 C 0.56797 0.0656 0.87088 0.0
C1570 C 0.54397 0.06124 0.858 0.0
C1571 C 0.54358 0.05925 0.83255 0.0
C1572 C 0.56747 0.06287 0.82002 0.0
C1573 C 0.59132 0.06808 0.8333 0.0
C1574 C 0.59136 0.06878 0.85824 0.0
C1575 C 0.61989 0.07646 0.86854 0.0
C1576 C 0.63246 0.10405 0.88447 0.0
C1577 C 0.61783 0.05122 0.88248 0.0
C1578 C 0.63637 0.08125 0.84562 0.0
C1579 C 0.61971 0.07615 0.82538 0.0
C1580 C 0.63124 0.08093 0.80231 0.0
C1581 C 0.66042 0.09106 0.79999 0.0
C1582 C 0.67776 0.09647 0.82065 0.0
C1583 C 0.66518 0.09115 0.84364 0.0
H1584 H 0.87619 0.46676 0.87599 0.0
H1585 H 0.94585 0.46739 0.83868 0.0
H1586 H 0.94276 0.49726 0.8071 0.0
H1587 H 0.83564 0.4605 0.82565 0.0
H1588 H 0.82393 0.48424 0.83685 0.0
H1589 H 0.83304 0.46508 0.85763 0.0
H1590 H 0.86945 0.513 0.87909 0.0
H1591 H 0.86006 0.5323 0.85864 0.0
H1592 H 0.89641 0.54152 0.86168 0.0
H1593 H 0.92798 0.52167 0.77723 0.0
H1594 H 0.90767 0.5455 0.75411 0.0
H1595 H 0.8494 0.53142 0.8121 0.0
C1596 C 0.8912 0.47373 0.86144 0.0
C1597 C 0.91128 0.46481 0.85973 0.0
C1598 C 0.9305 0.47422 0.84042 0.0
C1599 C 0.92876 0.49101 0.82234 0.0
C1600 C 0.90804 0.49859 0.82413 0.0
C1601 C 0.89006 0.49086 0.84349 0.0
C1602 C 0.86947 0.50151 0.84101 0.0
C1603 C 0.83871 0.47633 0.84024 0.0
C1604 C 0.87414 0.52339 0.86131 0.0
C1605 C 0.87815 0.51578 0.81689 0.0
C1606 C 0.9003 0.51367 0.80737 0.0
C1607 C 0.91095 0.52386 0.78467 0.0
C1608 C 0.89907 0.5371 0.77158 0.0
C1609 C 0.87697 0.54035 0.78132 0.0
C1610 C 0.8664 0.52943 0.80427 0.0
H1611 H 0.53677 0.46274 0.8175 0.0
H1612 H 0.54329 0.42799 0.88543 0.0
H1613 H 0.51656 0.37908 0.86766 0.0
H1614 H 0.46584 0.40672 0.80292 0.0
H1615 H 0.47202 0.40634 0.77108 0.0
H1616 H 0.49239 0.43894 0.78884 0.0
H1617 H 0.53865 0.44206 0.7743 0.0
H1618 H 0.51841 0.40936 0.75659 0.0
H1619 H 0.54383 0.41208 0.7786 0.0
H1620 H 0.48899 0.33416 0.84325 0.0
H1621 H 0.46003 0.29519 0.81404 0.0
H1622 H 0.47054 0.35809 0.76143 0.0
C1623 C 0.53263 0.44488 0.82866 0.0
C1624 C 0.54227 0.44938 0.85292 0.0
C1625 C 0.53622 0.42528 0.86684 0.0
C1626 C 0.5211 0.39734 0.85689 0.0
C1627 C 0.5121 0.39373 0.83297 0.0
C1628 C 0.51746 0.41674 0.81902 0.0
C1629 C 0.50467 0.40664 0.79393 0.0
C1630 C 0.48241 0.41517 0.78891 0.0
C1631 C 0.52777 0.41823 0.77472 0.0
C1632 C 0.49113 0.37435 0.79608 0.0
C1633 C 0.49589 0.36751 0.81875 0.0
C1634 C 0.48513 0.33921 0.82542 0.0
C1635 C 0.46865 0.31721 0.80864 0.0
C1636 C 0.46292 0.32349 0.78537 0.0
C1637 C 0.47472 0.35255 0.77895 0.0
H1638 H 0.55923 0.67893 0.64075 0.0
H1639 H 0.4989 0.68055 0.59157 0.0
H1640 H 0.52158 0.73334 0.59876 0.0
H1641 H 0.5608 0.72571 0.68366 0.0
H1642 H 0.59811 0.74298 0.69037 0.0
H1643 H 0.57948 0.70669 0.67856 0.0
H1644 H 0.61479 0.72138 0.64327 0.0
H1645 H 0.63357 0.75787 0.65506 0.0
H1646 H 0.62037 0.75049 0.62445 0.0
H1647 H 0.54646 0.78444 0.61683 0.0
H1648 H 0.57153 0.82844 0.64305 0.0
H1649 H 0.61664 0.79288 0.6783 0.0
C1650 C 0.55104 0.69048 0.63121 0.0
C1651 C 0.52721 0.67584 0.61583 0.0
C1652 C 0.51721 0.69155 0.60344 0.0
C1653 C 0.53001 0.72147 0.60738 0.0
C1654 C 0.55321 0.73524 0.62319 0.0
C1655 C 0.56387 0.72019 0.63456 0.0
C1656 C 0.58778 0.73927 0.65179 0.0
C1657 C 0.58112 0.72799 0.67761 0.0
C1658 C 0.61579 0.74244 0.64312 0.0
C1659 C 0.58785 0.76712 0.64961 0.0
C1660 C 0.56815 0.76467 0.63272 0.0
C1661 C 0.5625 0.78685 0.62954 0.0
C1662 C 0.57684 0.81176 0.64437 0.0
C1663 C 0.59647 0.81409 0.662 0.0
C1664 C 0.60242 0.79183 0.66427 0.0
H1665 H 0.23214 0.8297 0.6908 0.0
H1666 H 0.18716 0.75291 0.6456 0.0
H1667 H 0.2262 0.77399 0.61599 0.0
H1668 H 0.26514 0.88195 0.6403 0.0
H1669 H 0.29691 0.90339 0.658 0.0
H1670 H 0.2632 0.88422 0.67261 0.0
H1671 H 0.28262 0.85932 0.69947 0.0
H1672 H 0.31614 0.87799 0.68481 0.0
H1673 H 0.2971 0.83928 0.68543 0.0
H1674 H 0.27458 0.80154 0.5948 0.0
H1675 H 0.32519 0.83255 0.58417 0.0
H1676 H 0.33634 0.89027 0.64417 0.0
C1677 C 0.2301 0.81777 0.67422 0.0
C1678 C 0.20676 0.78995 0.6702 0.0
C1679 C 0.20479 0.77456 0.64865 0.0
C1680 C 0.22689 0.78635 0.63185 0.0
C1681 C 0.25032 0.81366 0.63682 0.0
C1682 C 0.25162 0.82933 0.65735 0.0
C1683 C 0.2797 0.85697 0.65995 0.0
C1684 C 0.27601 0.88318 0.65757 0.0
C1685 C 0.29476 0.85844 0.68381 0.0
C1686 C 0.29482 0.85376 0.63852 0.0
C1687 C 0.27759 0.82906 0.62498 0.0
C1688 C 0.28802 0.82114 0.60511 0.0
C1689 C 0.31676 0.83877 0.59923 0.0
C1690 C 0.33466 0.86363 0.61347 0.0
C1691 C 0.32324 0.87131 0.63299 0.0
H1692 H 0.22538 0.45898 0.69412 0.0
H1693 H 0.20849 0.38238 0.65334 0.0
H1694 H 0.18033 0.39142 0.6238 0.0
H1695 H 0.15975 0.44897 0.69037 0.0
H1696 H 0.17021 0.48626 0.68771 0.0
H1697 H 0.19339 0.47689 0.70236 0.0
H1698 H 0.2333 0.50852 0.6729 0.0
H1699 H 0.21001 0.51786 0.65801 0.0
H1700 H 0.22701 0.5023 0.64088 0.0
H1701 H 0.14619 0.40327 0.60395 0.0
H1702 H 0.11018 0.41688 0.59604 0.0
H1703 H 0.15118 0.48693 0.64839 0.0
C1704 C 0.2165 0.44458 0.67856 0.0
C1705 C 0.2192 0.42002 0.67598 0.0
C1706 C 0.20694 0.40149 0.65556 0.0
C1707 C 0.19094 0.40651 0.63866 0.0
C1708 C 0.18789 0.43047 0.64219 0.0
C1709 C 0.20073 0.44943 0.66151 0.0
C1710 C 0.19183 0.47172 0.66293 0.0
C1711 C 0.17796 0.47087 0.68726 0.0
C1712 C 0.21704 0.50189 0.6584 0.0
C1713 C 0.17063 0.46139 0.64228 0.0
C1714 C 0.16897 0.43788 0.63018 0.0
C1715 C 0.14805 0.42229 0.61266 0.0
C1716 C 0.12781 0.43027 0.6081 0.0
C1717 C 0.1288 0.4537 0.62086 0.0
C1718 C 0.15098 0.46992 0.63752 0.0
H1719 H 0.35102 0.91764 0.20881 0.0
H1720 H 0.31117 0.8249 0.21077 0.0
H1721 H 0.35585 0.82851 0.19754 0.0
H1722 H 0.385 0.92677 0.15692 0.0
H1723 H 0.417 0.9598 0.16502 0.0
H1724 H 0.38458 0.95074 0.17984 0.0
H1725 H 0.408 0.95504 0.22138 0.0
H1726 H 0.44078 0.96455 0.2067 0.0
H1727 H 0.42515 0.93473 0.22674 0.0
H1728 H 0.40015 0.8413 0.17513 0.0
H1729 H 0.44212 0.86252 0.14905 0.0
H1730 H 0.45472 0.94731 0.16354 0.0
C1731 C 0.35203 0.89817 0.20735 0.0
C1732 C 0.32767 0.87097 0.21089 0.0
C1733 C 0.32966 0.84595 0.2085 0.0
C1734 C 0.35496 0.84783 0.2009 0.0
C1735 C 0.37819 0.87493 0.19634 0.0
C1736 C 0.37714 0.89974 0.20004 0.0
C1737 C 0.40388 0.92595 0.19152 0.0
C1738 C 0.39719 0.94171 0.17218 0.0
C1739 C 0.42044 0.94626 0.21286 0.0
C1740 C 0.41946 0.91187 0.18102 0.0
C1741 C 0.40441 0.88244 0.18423 0.0
C1742 C 0.41258 0.86437 0.17328 0.0
C1743 C 0.43636 0.87656 0.15845 0.0
C1744 C 0.45192 0.90654 0.15493 0.0
C1745 C 0.44376 0.92447 0.16679 0.0
H1746 H 0.15198 0.46423 0.17001 0.0
H1747 H 0.14505 0.48299 0.24515 0.0
H1748 H 0.12728 0.51496 0.23291 0.0
H1749 H 0.1766 0.53585 0.14922 0.0
H1750 H 0.15759 0.52305 0.12095 0.0
H1751 H 0.16962 0.50201 0.13604 0.0
H1752 H 0.11842 0.45832 0.13549 0.0
H1753 H 0.10625 0.4792 0.12038 0.0
H1754 H 0.09043 0.46233 0.14828 0.0
H1755 H 0.10732 0.54319 0.21118 0.0
H1756 H 0.09036 0.56618 0.18263 0.0
H1757 H 0.11395 0.53006 0.12277 0.0
C1758 C 0.14677 0.47508 0.18394 0.0
C1759 C 0.14973 0.47105 0.20851 0.0
C1760 C 0.14296 0.48585 0.22618 0.0
C1761 C 0.13281 0.50399 0.21938 0.0
C1762 C 0.13001 0.50738 0.19487 0.0
C1763 C 0.13714 0.49349 0.17749 0.0
C1764 C 0.13268 0.50068 0.15239 0.0
C1765 C 0.1608 0.51633 0.13886 0.0
C1766 C 0.11063 0.47352 0.13832 0.0
C1767 C 0.12156 0.52053 0.15818 0.0
C1768 C 0.11991 0.52417 0.18271 0.0
C1769 C 0.10889 0.54071 0.19195 0.0
C1770 C 0.0993 0.55369 0.17565 0.0
C1771 C 0.10113 0.55025 0.15048 0.0
C1772 C 0.11263 0.5336 0.14188 0.0
H1773 H 0.51038 0.65935 0.17706 0.0
H1774 H 0.52298 0.6463 0.25166 0.0
H1775 H 0.49678 0.59354 0.24389 0.0
H1776 H 0.43832 0.595 0.17029 0.0
H1777 H 0.44478 0.58871 0.13957 0.0
H1778 H 0.46177 0.62485 0.15205 0.0
H1779 H 0.51067 0.63203 0.14061 0.0
H1780 H 0.49392 0.59597 0.12828 0.0
H1781 H 0.52081 0.60729 0.15139 0.0
H1782 H 0.47517 0.54254 0.22577 0.0
H1783 H 0.45705 0.49838 0.19995 0.0
H1784 H 0.45637 0.54601 0.13843 0.0
C1785 C 0.50712 0.64534 0.19188 0.0
C1786 C 0.51872 0.65671 0.21488 0.0
C1787 C 0.5141 0.63788 0.2339 0.0
C1788 C 0.49928 0.60794 0.22964 0.0
C1789 C 0.4887 0.59739 0.20645 0.0
C1790 C 0.49197 0.61562 0.18806 0.0
C1791 C 0.47981 0.59935 0.16452 0.0
C1792 C 0.45467 0.60214 0.15612 0.0
C1793 C 0.50267 0.60925 0.14507 0.0
C1794 C 0.47024 0.56918 0.1722 0.0
C1795 C 0.47537 0.56827 0.19644 0.0
C1796 C 0.47048 0.54291 0.20691 0.0
C1797 C 0.4603 0.518 0.19214 0.0
C1798 C 0.4551 0.51877 0.16729 0.0
C1799 C 0.45968 0.54459 0.15745 0.0
H1800 H 0.13549 0.6777 0.68822 0.0
H1801 H 0.16689 0.6654 0.75599 0.0
H1802 H 0.1564 0.61754 0.74157 0.0
H1803 H 0.07799 0.6083 0.68206 0.0
H1804 H 0.0799 0.60476 0.64987 0.0
H1805 H 0.09333 0.63978 0.66383 0.0
H1806 H 0.14219 0.6573 0.64459 0.0
H1807 H 0.12882 0.62237 0.63033 0.0
H1808 H 0.16005 0.63754 0.64925 0.0
H1809 H 0.13754 0.56949 0.72251 0.0
H1810 H 0.11334 0.52413 0.69875 0.0
H1811 H 0.09438 0.56661 0.64257 0.0
C1812 C 0.14087 0.66525 0.69975 0.0
C1813 C 0.15208 0.67536 0.72324 0.0
C1814 C 0.15826 0.65814 0.73796 0.0
C1815 C 0.15246 0.63093 0.72991 0.0
C1816 C 0.1406 0.62123 0.70703 0.0
C1817 C 0.13509 0.63788 0.692 0.0
C1818 C 0.1204 0.62133 0.66892 0.0
C1819 C 0.09118 0.61837 0.66602 0.0
C1820 C 0.13898 0.63548 0.64697 0.0
C1821 C 0.1178 0.59256 0.67372 0.0
C1822 C 0.12978 0.59316 0.69577 0.0
C1823 C 0.12846 0.56882 0.70504 0.0
C1824 C 0.11446 0.5431 0.69148 0.0
C1825 C 0.10201 0.54185 0.6688 0.0
C1826 C 0.10403 0.56704 0.6597 0.0
H1827 H 0.32002 0.46821 0.69065 0.0
H1828 H 0.36314 0.45388 0.74939 0.0
H1829 H 0.40847 0.48136 0.72844 0.0
H1830 H 0.36155 0.46403 0.64217 0.0
H1831 H 0.36224 0.49268 0.62564 0.0
H1832 H 0.33284 0.47097 0.64477 0.0
H1833 H 0.34088 0.51673 0.66799 0.0
H1834 H 0.37014 0.53859 0.64879 0.0
H1835 H 0.37521 0.54127 0.68102 0.0
H1836 H 0.44913 0.50931 0.70054 0.0
H1837 H 0.4829 0.54076 0.66999 0.0
H1838 H 0.41394 0.53939 0.63076 0.0
C1839 C 0.33901 0.47086 0.69907 0.0
C1840 C 0.338 0.45884 0.72164 0.0
C1841 C 0.36338 0.46304 0.73219 0.0
C1842 C 0.38923 0.47844 0.72035 0.0
C1843 C 0.3895 0.48985 0.69807 0.0
C1844 C 0.36514 0.48665 0.6877 0.0
C1845 C 0.3715 0.50235 0.66419 0.0
C1846 C 0.35612 0.48124 0.64294 0.0
C1847 C 0.36399 0.52615 0.66559 0.0
C1848 C 0.4032 0.51483 0.66301 0.0
C1849 C 0.41311 0.50699 0.68252 0.0
C1850 C 0.44164 0.5157 0.68522 0.0
C1851 C 0.46065 0.53342 0.66774 0.0
C1852 C 0.45105 0.54255 0.64811 0.0
C1853 C 0.4219 0.53283 0.64566 0.0
H1854 H 0.58977 0.92853 0.65311 0.0
H1855 H 0.54791 0.87325 0.71323 0.0
H1856 H 0.50694 0.87988 0.70718 0.0
H1857 H 0.56228 0.97809 0.66357 0.0
H1858 H 0.55896 0.98162 0.63172 0.0
H1859 H 0.58625 0.97556 0.64289 0.0
H1860 H 0.56794 0.93076 0.61443 0.0
H1861 H 0.54068 0.93667 0.6032 0.0
H1862 H 0.53141 0.90255 0.61577 0.0
H1863 H 0.46814 0.88711 0.69082 0.0
H1864 H 0.43521 0.89481 0.66607 0.0
H1865 H 0.5029 0.94646 0.6174 0.0
C1866 C 0.57223 0.91817 0.66534 0.0
C1867 C 0.5721 0.9003 0.68368 0.0
C1868 C 0.54863 0.88717 0.69919 0.0
C1869 C 0.52527 0.89085 0.69587 0.0
C1870 C 0.52591 0.90809 0.67723 0.0
C1871 C 0.54896 0.92177 0.66239 0.0
C1872 C 0.54375 0.9375 0.64262 0.0
C1873 C 0.56402 0.97013 0.64537 0.0
C1874 C 0.54607 0.92618 0.61753 0.0
C1875 C 0.51364 0.92955 0.64793 0.0
C1876 C 0.50384 0.91287 0.66818 0.0
C1877 C 0.47584 0.90075 0.67536 0.0
C1878 C 0.45732 0.90528 0.66127 0.0
C1879 C 0.46688 0.92195 0.64039 0.0
C1880 C 0.49547 0.93461 0.63385 0.0
H1881 H 0.23475 0.38985 0.21941 0.0
H1882 H 0.21603 0.4297 0.16124 0.0
H1883 H 0.25696 0.43434 0.13861 0.0
H1884 H 0.30667 0.43538 0.2192 0.0
H1885 H 0.3162 0.40893 0.22605 0.0
H1886 H 0.28267 0.40378 0.23546 0.0
H1887 H 0.25679 0.3543 0.21293 0.0
H1888 H 0.29035 0.35922 0.20354 0.0
H1889 H 0.26338 0.35195 0.1814 0.0
H1890 H 0.30323 0.43957 0.12447 0.0
H1891 H 0.35132 0.44661 0.12101 0.0
H1892 H 0.34037 0.40474 0.18916 0.0
C1893 C 0.23872 0.39846 0.20149 0.0
C1894 C 0.22191 0.40862 0.19162 0.0
C1895 C 0.22836 0.42111 0.16869 0.0
C1896 C 0.25155 0.42386 0.15577 0.0
C1897 C 0.26821 0.41416 0.16614 0.0
C1898 C 0.262 0.4016 0.18848 0.0
C1899 C 0.28487 0.39586 0.19681 0.0
C1900 C 0.2984 0.41196 0.22079 0.0
C1901 C 0.27314 0.3634 0.19878 0.0
C1902 C 0.3054 0.40814 0.17619 0.0
C1903 C 0.29522 0.41805 0.1584 0.0
C1904 C 0.31124 0.43153 0.13816 0.0
C1905 C 0.33852 0.4354 0.1363 0.0
C1906 C 0.34969 0.42627 0.15478 0.0
C1907 C 0.33252 0.41198 0.17468 0.0
H1908 H 0.54898 0.85429 0.09892 0.0
H1909 H 0.52225 0.89094 0.15642 0.0
H1910 H 0.53611 0.86791 0.1863 0.0
H1911 H 0.52346 0.78593 0.12673 0.0
H1912 H 0.55239 0.78158 0.11699 0.0
H1913 H 0.54185 0.80225 0.09944 0.0
H1914 H 0.59302 0.84567 0.10221 0.0
H1915 H 0.60362 0.82521 0.12006 0.0
H1916 H 0.60945 0.85937 0.13137 0.0
H1917 H 0.55106 0.84097 0.21038 0.0
H1918 H 0.56227 0.80635 0.22762 0.0
H1919 H 0.5795 0.78514 0.15628 0.0
C1920 C 0.54607 0.85744 0.11778 0.0
C1921 C 0.53461 0.87472 0.1251 0.0
C1922 C 0.53101 0.87803 0.15006 0.0
C1923 C 0.539 0.86513 0.16736 0.0
C1924 C 0.55053 0.84872 0.15966 0.0
C1925 C 0.5538 0.8444 0.13555 0.0
C1926 C 0.56537 0.8242 0.13257 0.0
C1927 C 0.54452 0.79686 0.11808 0.0
C1928 C 0.59461 0.83953 0.12085 0.0
C1929 C 0.56753 0.81764 0.15875 0.0
C1930 C 0.55919 0.83251 0.17393 0.0
C1931 C 0.5579 0.82937 0.19876 0.0
C1932 C 0.56439 0.80977 0.2084 0.0
C1933 C 0.57219 0.79359 0.19332 0.0
C1934 C 0.57439 0.79794 0.1682 0.0
H1935 H 0.18952 0.76105 0.18857 0.0
H1936 H 0.22004 0.8214 0.13021 0.0
H1937 H 0.19781 0.78092 0.10072 0.0
H1938 H 0.19918 0.70653 0.15921 0.0
H1939 H 0.16736 0.67699 0.17109 0.0
H1940 H 0.18593 0.71065 0.18781 0.0
H1941 H 0.14036 0.71366 0.18896 0.0
H1942 H 0.12161 0.67988 0.17247 0.0
H1943 H 0.12222 0.71118 0.16115 0.0
H1944 H 0.17216 0.73387 0.07739 0.0
H1945 H 0.14233 0.68394 0.06212 0.0
H1946 H 0.12838 0.65414 0.13558 0.0
C1947 C 0.19154 0.76584 0.1696 0.0
C1948 C 0.20664 0.79457 0.16181 0.0
C1949 C 0.20859 0.7997 0.13675 0.0
C1950 C 0.19613 0.77681 0.1198 0.0
C1951 C 0.1817 0.74882 0.1281 0.0
C1952 C 0.17916 0.74324 0.1524 0.0
C1953 C 0.16188 0.71119 0.15656 0.0
C1954 C 0.17966 0.70074 0.16943 0.0
C1955 C 0.13492 0.70354 0.17061 0.0
C1956 C 0.15502 0.69964 0.13078 0.0
C1957 C 0.16681 0.72169 0.11465 0.0
C1958 C 0.16287 0.71641 0.08986 0.0
C1959 C 0.14592 0.6879 0.08135 0.0
C1960 C 0.13297 0.66491 0.09756 0.0
C1961 C 0.1381 0.67103 0.12261 0.0
H1962 H 0.34657 0.25226 0.09753 0.0
H1963 H 0.39674 0.28342 0.03307 0.0
H1964 H 0.43573 0.32204 0.05745 0.0
H1965 H 0.35758 0.3135 0.11762 0.0
H1966 H 0.35918 0.30836 0.14943 0.0
H1967 H 0.34044 0.2778 0.12953 0.0
H1968 H 0.37092 0.25717 0.14444 0.0
H1969 H 0.39005 0.28793 0.16457 0.0
H1970 H 0.40892 0.27857 0.14317 0.0
H1971 H 0.46233 0.36325 0.08489 0.0
H1972 H 0.47167 0.4047 0.11082 0.0
H1973 H 0.40414 0.34883 0.15785 0.0
C1974 C 0.36612 0.26666 0.08861 0.0
C1975 C 0.36857 0.26507 0.06336 0.0
C1976 C 0.39443 0.28423 0.05239 0.0
C1977 C 0.41677 0.30607 0.06619 0.0
C1978 C 0.41299 0.30815 0.09091 0.0
C1979 C 0.38828 0.2887 0.10206 0.0
C1980 C 0.38675 0.29868 0.12744 0.0
C1981 C 0.35941 0.29968 0.13117 0.0
C1982 C 0.38933 0.27945 0.146 0.0
C1983 C 0.41285 0.32842 0.12787 0.0
C1984 C 0.42852 0.33277 0.10714 0.0
C1985 C 0.45086 0.35984 0.1015 0.0
C1986 C 0.45606 0.3833 0.11634 0.0
C1987 C 0.43884 0.37961 0.13643 0.0
C1988 C 0.41817 0.35177 0.1431 0.0
H1989 H 0.60482 0.99204 0.12014 0.0
H1990 H 0.58643 0.01292 0.05025 0.0
H1991 H 0.63682 0.04827 0.04497 0.0
H1992 H 0.66985 0.06693 0.13566 0.0
H1993 H 0.68749 0.0502 0.14924 0.0
H1994 H 0.64957 0.03341 0.15083 0.0
H1995 H 0.6444 0.98673 0.13181 0.0
H1996 H 0.68208 0.00342 0.12963 0.0
H1997 H 0.66016 0.9881 0.10302 0.0
H1998 H 0.68914 0.07164 0.04263 0.0
H1999 H 0.73916 0.08428 0.04532 0.0
H2000 H 0.72383 0.04808 0.11653 0.0
C2001 C 0.61131 0.00544 0.1045 0.0
C2002 C 0.59178 0.0004 0.08591 0.0
C2003 C 0.60106 0.01708 0.06497 0.0
C2004 C 0.6297 0.03714 0.06175 0.0
C2005 C 0.64885 0.04031 0.07967 0.0
C2006 C 0.64002 0.02535 0.10089 0.0
C2007 C 0.66503 0.02925 0.11554 0.0
C2008 C 0.66817 0.04595 0.13922 0.0
C2009 C 0.66277 0.00015 0.12025 0.0
C2010 C 0.68891 0.04709 0.09857 0.0
C2011 C 0.67931 0.05374 0.07818 0.0
C2012 C 0.6971 0.0673 0.05884 0.0
C2013 C 0.72542 0.07421 0.06042 0.0
C2014 C 0.73555 0.06732 0.08113 0.0
C2015 C 0.717 0.05406 0.10052 0.0
H2016 H 0.97187 0.69323 0.1086 0.0
H2017 H 0.91426 0.65291 0.04768 0.0
H2018 H 0.9241 0.61289 0.04798 0.0
H2019 H 0.02327 0.67987 0.08873 0.0
H2020 H 0.03292 0.6741 0.1182 0.0
H2021 H 0.01789 0.69659 0.11505 0.0
H2022 H 0.97855 0.66496 0.14498 0.0
H2023 H 0.9933 0.64203 0.14789 0.0
H2024 H 0.9568 0.62683 0.13894 0.0
H2025 H 0.94416 0.58042 0.0525 0.0
H2026 H 0.97662 0.56184 0.05703 0.0
H2027 H 0.02096 0.62388 0.11506 0.0
C2028 C 0.96079 0.67579 0.09551 0.0
C2029 C 0.94211 0.67616 0.07815 0.0
C2030 C 0.92864 0.65311 0.06112 0.0
C2031 C 0.93388 0.63017 0.06137 0.0
C2032 C 0.95246 0.63062 0.07883 0.0
C2033 C 0.96581 0.65301 0.09548 0.0
C2034 C 0.98723 0.65039 0.11066 0.0
C2035 C 0.01707 0.67678 0.10797 0.0
C2036 C 0.97843 0.64577 0.13719 0.0
C2037 C 0.98493 0.6236 0.09927 0.0
C2038 C 0.96419 0.61207 0.08137 0.0
C2039 C 0.96004 0.58896 0.06672 0.0
C2040 C 0.97849 0.57848 0.0695 0.0
C2041 C 1.00098 0.59127 0.08663 0.0
C2042 C 0.00337 0.61315 0.10244 0.0
H2043 H 0.28502 0.33707 0.3852 0.0
H2044 H 0.26993 0.35047 0.4598 0.0
H2045 H 0.32071 0.38689 0.46496 0.0
H2046 H 0.3436 0.33471 0.39588 0.0
H2047 H 0.36189 0.35203 0.36884 0.0
H2048 H 0.32402 0.33326 0.3693 0.0
H2049 H 0.3247 0.37936 0.35626 0.0
H2050 H 0.36281 0.39839 0.3558 0.0
H2051 H 0.34486 0.41231 0.37371 0.0
H2052 H 0.37332 0.41488 0.46389 0.0
H2053 H 0.42289 0.42793 0.45839 0.0
H2054 H 0.40382 0.39453 0.38486 0.0
C2055 C 0.29205 0.34826 0.40249 0.0
C2056 C 0.27335 0.34098 0.4221 0.0
C2057 C 0.28376 0.35577 0.44449 0.0
C2058 C 0.31254 0.37664 0.44749 0.0
C2059 C 0.33052 0.38252 0.42792 0.0
C2060 C 0.32059 0.36869 0.40583 0.0
C2061 C 0.34452 0.375 0.38882 0.0
C2062 C 0.34343 0.3471 0.38024 0.0
C2063 C 0.3442 0.3923 0.36738 0.0
C2064 C 0.36968 0.39315 0.40524 0.0
C2065 C 0.36115 0.39809 0.42745 0.0
C2066 C 0.38024 0.41162 0.44648 0.0
C2067 C 0.40834 0.4189 0.44318 0.0
C2068 C 0.41703 0.41225 0.42114 0.0
C2069 C 0.39781 0.4005 0.40161 0.0
H2070 H 0.60415 0.99681 0.37667 0.0
H2071 H 0.57166 0.98387 0.44914 0.0
H2072 H 0.58932 0.95088 0.45641 0.0
H2073 H 0.59578 0.92137 0.36715 0.0
H2074 H 0.62852 0.93722 0.35093 0.0
H2075 H 0.60585 0.95222 0.34893 0.0
H2076 H 0.6478 0.00194 0.36253 0.0
H2077 H 0.67038 0.98714 0.36509 0.0
H2078 H 0.66573 0.00537 0.3907 0.0
H2079 H 0.62086 0.93033 0.45943 0.0
H2080 H 0.66036 0.92085 0.4565 0.0
H2081 H 0.67186 0.94664 0.38196 0.0
C2082 C 0.59926 0.98559 0.39348 0.0
C2083 C 0.58632 0.99253 0.41223 0.0
C2084 C 0.58133 0.97853 0.43447 0.0
C2085 C 0.59129 0.95975 0.43877 0.0
C2086 C 0.60593 0.95496 0.42054 0.0
C2087 C 0.60933 0.96695 0.39809 0.0
C2088 C 0.62952 0.96214 0.38293 0.0
C2089 C 0.61398 0.94203 0.3612 0.0
C2090 C 0.65484 0.99085 0.37488 0.0
C2091 C 0.63847 0.94758 0.40093 0.0
C2092 C 0.62425 0.943 0.42234 0.0
C2093 C 0.63154 0.93298 0.44249 0.0
C2094 C 0.65413 0.92781 0.44074 0.0
C2095 C 0.6693 0.93298 0.41905 0.0
C2096 C 0.66067 0.94223 0.39882 0.0
H2097 H 0.10587 0.74153 0.41734 0.0
H2098 H 0.09772 0.71917 0.4925 0.0
H2099 H 0.08609 0.66997 0.48031 0.0
H2100 H 0.0484 0.68616 0.39846 0.0
H2101 H 0.05987 0.68041 0.36954 0.0
H2102 H 0.07769 0.7155 0.38353 0.0
H2103 H 0.12546 0.71717 0.38132 0.0
H2104 H 0.10793 0.68206 0.36674 0.0
H2105 H 0.12887 0.68853 0.39367 0.0
H2106 H 0.06325 0.62195 0.46049 0.0
H2107 H 0.03035 0.57967 0.43565 0.0
H2108 H 0.05146 0.63258 0.37289 0.0
C2109 C 0.10295 0.72671 0.43133 0.0
C2110 C 0.10272 0.73413 0.45586 0.0
C2111 C 0.09831 0.71402 0.47362 0.0
C2112 C 0.09177 0.68606 0.4668 0.0
C2113 C 0.09022 0.67888 0.44224 0.0
C2114 C 0.09615 0.69888 0.42476 0.0
C2115 C 0.08777 0.68497 0.3998 0.0
C2116 C 0.06721 0.69217 0.38714 0.0
C2117 C 0.11408 0.69369 0.38448 0.0
C2118 C 0.07353 0.65362 0.40613 0.0
C2119 C 0.07627 0.65064 0.43057 0.0
C2120 C 0.06167 0.624 0.4413 0.0
C2121 C 0.04288 0.60013 0.42705 0.0
C2122 C 0.03856 0.60305 0.40236 0.0
C2123 C 0.05503 0.6298 0.39154 0.0
H2124 H 0.63642 0.60418 0.94126 0.0
H2125 H 0.58133 0.58826 0.87961 0.0
H2126 H 0.59411 0.63925 0.88121 0.0
H2127 H 0.62361 0.65594 0.97326 0.0
H2128 H 0.65989 0.67813 0.98313 0.0
H2129 H 0.64506 0.64001 0.97825 0.0
H2130 H 0.68506 0.64959 0.94843 0.0
H2131 H 0.70021 0.68766 0.95353 0.0
H2132 H 0.69129 0.67257 0.92333 0.0
H2133 H 0.61477 0.69192 0.88794 0.0
H2134 H 0.64528 0.74394 0.89699 0.0
H2135 H 0.68658 0.72581 0.95457 0.0
C2136 C 0.62689 0.61139 0.92819 0.0
C2137 C 0.60775 0.59232 0.91039 0.0
C2138 C 0.59603 0.60257 0.89339 0.0
C2139 C 0.60298 0.63139 0.8943 0.0
C2140 C 0.62167 0.64956 0.91228 0.0
C2141 C 0.63371 0.64006 0.92877 0.0
C2142 C 0.65476 0.66442 0.94517 0.0
C2143 C 0.64525 0.65931 0.97152 0.0
C2144 C 0.68459 0.66882 0.94244 0.0
C2145 C 0.653 0.68925 0.93512 0.0
C2146 C 0.6335 0.68009 0.91633 0.0
C2147 C 0.62968 0.69929 0.90289 0.0
C2148 C 0.64692 0.7287 0.90821 0.0
C2149 C 0.66747 0.73848 0.92688 0.0
C2150 C 0.67015 0.7186 0.94088 0.0
H2151 H 0.27747 0.0244 0.93181 0.0
H2152 H 0.24805 0.93395 0.92014 0.0
H2153 H 0.29778 0.94531 0.91689 0.0
H2154 H 0.33015 0.05069 0.89052 0.0
H2155 H 0.35512 0.08204 0.90796 0.0
H2156 H 0.31785 0.06642 0.91284 0.0
H2157 H 0.3245 0.06059 0.95811 0.0
H2158 H 0.362 0.07705 0.9536 0.0
H2159 H 0.34263 0.04217 0.96683 0.0
H2160 H 0.35142 0.9685 0.90928 0.0
H2161 H 0.40328 0.00018 0.90415 0.0
H2162 H 0.39544 0.07452 0.92131 0.0
C2163 C 0.28159 0.00691 0.92941 0.0
C2164 C 0.25915 0.97833 0.92647 0.0
C2165 C 0.26512 0.95594 0.92293 0.0
C2166 C 0.29325 0.96226 0.92081 0.0
C2167 C 0.31498 0.99098 0.92266 0.0
C2168 C 0.30935 0.01281 0.92753 0.0
C2169 C 0.33597 0.04198 0.92784 0.0
C2170 C 0.33467 0.0614 0.90864 0.0
C2171 C 0.34161 0.05628 0.9531 0.0
C2172 C 0.35745 0.0334 0.92158 0.0
C2173 C 0.34521 0.00397 0.91866 0.0
C2174 C 0.36123 0.99154 0.9119 0.0
C2175 C 0.39058 0.00966 0.90876 0.0
C2176 C 0.40345 0.03978 0.91247 0.0
C2177 C 0.38639 0.05155 0.91861 0.0
H2178 H 0.98533 0.25901 0.9103 0.0
H2179 H 0.06963 0.33236 0.92232 0.0
H2180 H 0.04998 0.36488 0.92055 0.0
H2181 H 0.95868 0.2896 0.87022 0.0
H2182 H 0.92396 0.27228 0.88319 0.0
H2183 H 0.94507 0.25555 0.88459 0.0
H2184 H 0.94056 0.25336 0.93107 0.0
H2185 H 0.91916 0.26977 0.92977 0.0
H2186 H 0.95063 0.28582 0.94844 0.0
H2187 H 0.01996 0.38895 0.91531 0.0
H2188 H 0.98248 0.40169 0.91332 0.0
H2189 H 0.91863 0.31119 0.90832 0.0
C2190 C 0.9998 0.28191 0.91268 0.0
C2191 C 0.02905 0.29325 0.91631 0.0
C2192 C 0.04713 0.32331 0.91955 0.0
C2193 C 0.03616 0.34185 0.91842 0.0
C2194 C 0.00709 0.3298 0.91456 0.0
C2195 C 0.98919 0.30041 0.91226 0.0
C2196 C 0.95864 0.29228 0.90971 0.0
C2197 C 0.94585 0.27651 0.88548 0.0
C2198 C 0.94123 0.27426 0.93102 0.0
C2199 C 0.96195 0.32174 0.91051 0.0
C2200 C 0.99 0.34324 0.91297 0.0
C2201 C 0.99796 0.37224 0.91358 0.0
C2202 C 0.97662 0.37928 0.91225 0.0
C2203 C 0.94779 0.35737 0.91077 0.0
C2204 C 0.94053 0.32834 0.90962 0.0
H2205 H 0.72625 0.74379 0.5699 0.0
H2206 H 0.73945 0.67131 0.57088 0.0
H2207 H 0.6877 0.63827 0.57508 0.0
H2208 H 0.67495 0.72059 0.614 0.0
H2209 H 0.65428 0.7337 0.59994 0.0
H2210 H 0.69166 0.75102 0.59463 0.0
H2211 H 0.68251 0.74308 0.54851 0.0
H2212 H 0.64513 0.72644 0.55366 0.0
H2213 H 0.65863 0.70742 0.53647 0.0
H2214 H 0.63445 0.61418 0.58396 0.0
H2215 H 0.58438 0.60062 0.5899 0.0
H2216 H 0.60776 0.68966 0.58225 0.0
C2217 C 0.71816 0.72086 0.57036 0.0
C2218 C 0.73667 0.70997 0.56993 0.0
C2219 C 0.72547 0.67994 0.57077 0.0
C2220 C 0.69619 0.66113 0.57345 0.0
C2221 C 0.67862 0.6728 0.57494 0.0
C2222 C 0.68924 0.70197 0.57286 0.0
C2223 C 0.66639 0.70952 0.57543 0.0
C2224 C 0.67218 0.72991 0.5973 0.0
C2225 C 0.66296 0.72236 0.55213 0.0
C2226 C 0.64115 0.6801 0.57956 0.0
C2227 C 0.64848 0.65913 0.57949 0.0
C2228 C 0.62849 0.63043 0.58376 0.0
C2229 C 0.60021 0.62296 0.58738 0.0
C2230 C 0.5923 0.6441 0.58644 0.0
C2231 C 0.6132 0.67301 0.58288 0.0
H2232 H 0.25087 0.97596 0.57361 0.0
H2233 H 0.31476 0.06279 0.55539 0.0
H2234 H 0.35181 0.04985 0.56001 0.0
H2235 H 0.29072 0.96666 0.61904 0.0
H2236 H 0.27722 0.92927 0.61141 0.0
H2237 H 0.2559 0.94515 0.60579 0.0
H2238 H 0.25068 0.92951 0.56067 0.0
H2239 H 0.27133 0.91293 0.56632 0.0
H2240 H 0.28194 0.93941 0.54336 0.0
H2241 H 0.38217 0.02698 0.56892 0.0
H2242 H 0.40147 0.99478 0.57544 0.0
H2243 H 0.31676 0.924 0.58766 0.0
C2244 C 0.27261 0.99228 0.57033 0.0
C2245 C 0.27991 0.02042 0.56414 0.0
C2246 C 0.30863 0.04101 0.55991 0.0
C2247 C 0.32983 0.03393 0.56277 0.0
C2248 C 0.3219 0.00619 0.56978 0.0
C2249 C 0.29385 0.98563 0.57312 0.0
C2250 C 0.29045 0.95728 0.58034 0.0
C2251 C 0.27783 0.94913 0.60564 0.0
C2252 C 0.27255 0.93338 0.56154 0.0
C2253 C 0.32094 0.96484 0.58031 0.0
C2254 C 0.33896 0.99322 0.57456 0.0
C2255 C 0.36819 0.00474 0.57342 0.0
C2256 C 0.37902 0.98646 0.57739 0.0
C2257 C 0.36055 0.95707 0.58213 0.0
C2258 C 0.33132 0.94646 0.58413 0.0
H2259 H 0.02209 0.39507 0.56964 0.0
H2260 H 0.00888 0.4036 0.64576 0.0
H2261 H 0.98006 0.35084 0.64811 0.0
H2262 H 0.95174 0.33231 0.5563 0.0
H2263 H 0.96526 0.31607 0.5357 0.0
H2264 H 0.98311 0.35465 0.53935 0.0
H2265 H 0.02976 0.35612 0.54998 0.0
H2266 H 0.01211 0.31761 0.54633 0.0
H2267 H 0.03027 0.33478 0.57423 0.0
H2268 H 0.95628 0.29831 0.64329 0.0
H2269 H 0.9388 0.24776 0.63183 0.0
H2270 H 0.96608 0.27196 0.55843 0.0
C2271 C 0.01284 0.38581 0.58672 0.0
C2272 C 0.01759 0.40334 0.60753 0.0
C2273 C 0.00543 0.39053 0.62962 0.0
C2274 C 0.98895 0.36062 0.6311 0.0
C2275 C 0.98478 0.34394 0.61031 0.0
C2276 C 0.9963 0.35596 0.58852 0.0
C2277 C 0.98976 0.33294 0.56926 0.0
C2278 C 0.97137 0.33407 0.54895 0.0
C2279 C 0.0171 0.33552 0.55938 0.0
C2280 C 0.9733 0.30611 0.58383 0.0
C2281 C 0.97059 0.31313 0.60741 0.0
C2282 C 0.95792 0.29248 0.62484 0.0
C2283 C 0.94817 0.26388 0.61816 0.0
C2284 C 0.951 0.25614 0.59423 0.0
C2285 C 0.96322 0.27739 0.57669 0.0
H2286 H 0.94476 0.65586 0.71466 0.0
H2287 H 0.92793 0.67533 0.78691 0.0
H2288 H 0.97877 0.71088 0.7926 0.0
H2289 H 0.00326 0.65381 0.72927 0.0
H2290 H 0.02255 0.66937 0.70216 0.0
H2291 H 0.98461 0.65063 0.7016 0.0
H2292 H 0.9857 0.69563 0.68508 0.0
H2293 H 0.02381 0.71455 0.68543 0.0
H2294 H 0.00547 0.72966 0.70115 0.0
H2295 H 0.03139 0.73775 0.79291 0.0
H2296 H 0.08164 0.75294 0.78849 0.0
H2297 H 0.06454 0.71518 0.71625 0.0
C2298 C 0.95149 0.66822 0.73144 0.0
C2299 C 0.93221 0.66286 0.75032 0.0
C2300 C 0.94218 0.67914 0.77214 0.0
C2301 C 0.97103 0.69947 0.77548 0.0
C2302 C 0.98956 0.70337 0.75679 0.0
C2303 C 0.98013 0.6883 0.73513 0.0
C2304 C 0.00456 0.69349 0.71911 0.0
C2305 C 0.00368 0.66515 0.71268 0.0
C2306 C 0.0049 0.70928 0.69635 0.0
C2307 C 0.02931 0.71269 0.73564 0.0
C2308 C 0.02017 0.71866 0.75706 0.0
C2309 C 0.0388 0.73368 0.77606 0.0
C2310 C 0.06728 0.74206 0.77341 0.0
C2311 C 0.07692 0.73524 0.75198 0.0
C2312 C 0.05783 0.72118 0.73259 0.0
H2313 H 0.28524 0.33736 0.78541 0.0
H2314 H 0.24903 0.32001 0.71321 0.0
H2315 H 0.2605 0.28159 0.70764 0.0
H2316 H 0.34306 0.33509 0.77082 0.0
H2317 H 0.34572 0.31884 0.79792 0.0
H2318 H 0.32827 0.33927 0.79854 0.0
H2319 H 0.28316 0.29552 0.81509 0.0
H2320 H 0.30057 0.27484 0.8145 0.0
H2321 H 0.26724 0.26143 0.79892 0.0
H2322 H 0.2837 0.25243 0.70699 0.0
H2323 H 0.31908 0.23746 0.71012 0.0
H2324 H 0.34105 0.27408 0.78253 0.0
C2325 C 0.27878 0.32487 0.76867 0.0
C2326 C 0.26607 0.33166 0.74976 0.0
C2327 C 0.25863 0.31516 0.728 0.0
C2328 C 0.2649 0.29315 0.72476 0.0
C2329 C 0.2784 0.28778 0.7435 0.0
C2330 C 0.28515 0.30315 0.7651 0.0
C2331 C 0.30351 0.29657 0.78095 0.0
C2332 C 0.3318 0.32406 0.7874 0.0
C2333 C 0.28766 0.28117 0.80371 0.0
C2334 C 0.30764 0.2765 0.76429 0.0
C2335 C 0.29223 0.27099 0.74307 0.0
C2336 C 0.29526 0.25597 0.72373 0.0
C2337 C 0.31541 0.24756 0.72565 0.0
C2338 C 0.33243 0.25434 0.74669 0.0
C2339 C 0.32762 0.26784 0.76661 0.0
H2340 H 0.67684 0.93555 0.75575 0.0
H2341 H 0.73301 0.96587 0.69463 0.0
H2342 H 0.76972 0.005 0.72067 0.0
H2343 H 0.69001 0.00033 0.77558 0.0
H2344 H 0.6871 0.9925 0.80719 0.0
H2345 H 0.66891 0.96384 0.78536 0.0
H2346 H 0.69395 0.93821 0.8027 0.0
H2347 H 0.71266 0.96734 0.82441 0.0
H2348 H 0.73199 0.95694 0.80447 0.0
H2349 H 0.79678 0.04433 0.75119 0.0
H2350 H 0.80778 0.0843 0.77973 0.0
H2351 H 0.73308 0.0292 0.82024 0.0
C2352 C 0.69708 0.94992 0.74779 0.0
C2353 C 0.70207 0.94753 0.72307 0.0
C2354 C 0.72871 0.96722 0.71349 0.0
C2355 C 0.74977 0.98925 0.72825 0.0
C2356 C 0.74388 0.9911 0.75253 0.0
C2357 C 0.71799 0.97199 0.76211 0.0
C2358 C 0.71477 0.98108 0.78733 0.0
C2359 C 0.6887 0.98468 0.78892 0.0
C2360 C 0.71326 0.95962 0.80582 0.0
C2361 C 0.74216 0.00957 0.78995 0.0
C2362 C 0.75923 0.0143 0.77013 0.0
C2363 C 0.78393 0.04056 0.76699 0.0
C2364 C 0.79016 0.06314 0.78339 0.0
C2365 C 0.77145 0.05952 0.80228 0.0
C2366 C 0.74823 0.03202 0.80652 0.0
H2367 H 0.27645 0.93091 0.21531 0.0
H2368 H 0.2666 0.90543 0.28984 0.0
H2369 H 0.29021 0.95627 0.30333 0.0
H2370 H 0.34577 0.99214 0.22338 0.0
H2371 H 0.34037 0.01391 0.2024 0.0
H2372 H 0.3211 0.97536 0.19857 0.0
H2373 H 0.2738 0.97513 0.19899 0.0
H2374 H 0.29294 0.01371 0.20281 0.0
H2375 H 0.26619 0.99181 0.22406 0.0
H2376 H 0.31541 0.00997 0.30888 0.0
H2377 H 0.34226 0.063 0.30565 0.0
H2378 H 0.33721 0.05329 0.2277 0.0
C2379 C 0.279 0.93609 0.23443 0.0
C2380 C 0.26959 0.91432 0.25153 0.0
C2381 C 0.2737 0.92186 0.27643 0.0
C2382 C 0.28701 0.95065 0.2843 0.0
C2383 C 0.2963 0.97168 0.26704 0.0
C2384 C 0.29264 0.96482 0.24263 0.0
C2385 C 0.30584 0.99164 0.22785 0.0
C2386 C 0.32969 0.99336 0.21213 0.0
C2387 C 0.28334 0.99315 0.21253 0.0
C2388 C 0.31739 0.01453 0.24776 0.0
C2389 C 0.31152 0.00263 0.27024 0.0
C2390 C 0.32015 0.0196 0.29136 0.0
C2391 C 0.33532 0.04962 0.28939 0.0
C2392 C 0.34181 0.06215 0.26648 0.0
C2393 C 0.33262 0.0443 0.24549 0.0
H2394 H 0.94955 0.32496 0.28823 0.0
H2395 H 0.92612 0.26624 0.22683 0.0
H2396 H 0.97657 0.28219 0.22022 0.0
H2397 H 0.00544 0.38106 0.26304 0.0
H2398 H 0.028 0.39442 0.28944 0.0
H2399 H 0.9903 0.374 0.29267 0.0
H2400 H 0.99459 0.33761 0.31929 0.0
H2401 H 0.0325 0.35824 0.31651 0.0
H2402 H 0.01344 0.32051 0.30826 0.0
H2403 H 0.03005 0.31043 0.21661 0.0
H2404 H 0.08111 0.34727 0.21707 0.0
H2405 H 0.0687 0.38755 0.28069 0.0
C2406 C 0.95509 0.31451 0.2742 0.0
C2407 C 0.9342 0.29379 0.2585 0.0
C2408 C 0.94199 0.28151 0.23946 0.0
C2409 C 0.97055 0.29054 0.23553 0.0
C2410 C 0.99094 0.31184 0.25087 0.0
C2411 C 0.98347 0.32335 0.27006 0.0
C2412 C 0.00927 0.34812 0.28225 0.0
C2413 C 0.00817 0.37603 0.2818 0.0
C2414 C 0.01265 0.34067 0.30811 0.0
C2415 C 0.03227 0.34976 0.26622 0.0
C2416 C 0.02149 0.32839 0.24848 0.0
C2417 C 0.03877 0.32695 0.23071 0.0
C2418 C 0.06773 0.34799 0.23105 0.0
C2419 C 0.07897 0.37039 0.24883 0.0
C2420 C 0.06089 0.3708 0.26678 0.0
H2421 H 0.67853 0.61682 0.28088 0.0
H2422 H 0.74242 0.6647 0.2282 0.0
H2423 H 0.72079 0.69451 0.22078 0.0
H2424 H 0.62303 0.61055 0.24925 0.0
H2425 H 0.60423 0.61429 0.27434 0.0
H2426 H 0.62777 0.60087 0.27901 0.0
H2427 H 0.65614 0.64105 0.31121 0.0
H2428 H 0.6322 0.6542 0.30714 0.0
H2429 H 0.66969 0.67809 0.30386 0.0
H2430 H 0.6873 0.71417 0.21517 0.0
H2431 H 0.64783 0.72406 0.21447 0.0
H2432 H 0.60635 0.6618 0.27045 0.0
C2433 C 0.68874 0.6346 0.26875 0.0
C2434 C 0.71262 0.63932 0.25574 0.0
C2435 C 0.72469 0.66163 0.23896 0.0
C2436 C 0.71237 0.67842 0.23448 0.0
C2437 C 0.68803 0.67252 0.24698 0.0
C2438 C 0.67671 0.65145 0.26412 0.0
C2439 C 0.64918 0.6474 0.27359 0.0
C2440 C 0.62463 0.61646 0.26874 0.0
C2441 C 0.65198 0.65569 0.30055 0.0
C2442 C 0.64619 0.66867 0.25854 0.0
C2443 C 0.6688 0.68325 0.24343 0.0
C2444 C 0.6697 0.70313 0.22722 0.0
C2445 C 0.6471 0.70847 0.22681 0.0
C2446 C 0.62386 0.69378 0.24235 0.0
C2447 C 0.62366 0.6736 0.25828 0.0
loop_
_geom_bond_atom_site_label_1
_geom_bond_atom_site_label_2
_geom_bond_distance
_geom_bond_site_symmetry_2
_ccdc_geom_bond_type
Co0 O1 2.216 . S
Co0 O2 2.091 . S
Co0 O4 2.004 . S
Co0 O10 2.021 . S
Co0 O12 2.137 . S
Co0 O13 2.244 . S
O1 Co0 2.216 . S
O1 C8 1.247 . S
O2 Co0 2.091 . S
O2 C8 1.261 . S
C3 O12 1.247 . S
C3 O13 1.272 . S
O4 Co0 2.004 . S
O4 C9 1.259 . S
Co5 O6 2.061 . S
Co5 O11 2.052 . S
Co5 O13 2.135 . S
O6 Co5 2.061 . S
O6 C9 1.235 . S
C7 O10 1.238 . S
C7 O11 1.241 . S
C8 O1 1.247 . S
C8 O2 1.261 . S
C9 O4 1.259 . S
C9 O6 1.235 . S
O10 Co0 2.021 . S
O10 C7 1.238 . S
O11 Co5 2.052 . S
O11 C7 1.241 . S
O12 Co0 2.137 . S
O12 C3 1.247 . S
O13 Co0 2.244 . S
O13 C3 1.272 . S
O13 Co5 2.135 . S
Co14 O15 2.216 . S
Co14 O16 2.091 . S
Co14 O18 2.004 . S
Co14 O24 2.021 . S
Co14 O26 2.137 . S
Co14 O27 2.244 . S
O15 Co14 2.216 . S
O15 C22 1.247 . S
O16 Co14 2.091 . S
O16 C22 1.261 . S
C17 O26 1.247 . S
C17 O27 1.272 . S
O18 Co14 2.004 . S
O18 C23 1.259 . S
Co19 O20 2.061 . S
Co19 O25 2.052 . S
Co19 O27 2.135 . S
O20 Co19 2.061 . S
O20 C23 1.235 . S
C21 O24 1.238 . S
C21 O25 1.241 . S
C22 O15 1.247 . S
C22 O16 1.261 . S
C23 O18 1.259 . S
C23 O20 1.235 . S
O24 Co14 2.021 . S
O24 C21 1.238 . S
O25 Co19 2.052 . S
O25 C21 1.241 . S
O26 Co14 2.137 . S
O26 C17 1.247 . S
O27 Co14 2.244 . S
O27 C17 1.272 . S
O27 Co19 2.135 . S
Co28 O29 2.216 . S
Co28 O30 2.091 . S
Co28 O32 2.004 . S
Co28 O38 2.021 . S
Co28 O40 2.137 . S
Co28 O41 2.244 . S
O29 Co28 2.216 . S
O29 C36 1.247 . S
O30 Co28 2.091 . S
O30 C36 1.261 . S
C31 O40 1.247 . S
C31 O41 1.272 . S
O32 Co28 2.004 . S
O32 C37 1.259 . S
Co33 O34 2.061 . S
Co33 O39 2.052 . S
Co33 O41 2.135 . S
O34 Co33 2.061 . S
O34 C37 1.235 . S
C35 O38 1.238 . S
C35 O39 1.241 . S
C36 O29 1.247 . S
C36 O30 1.261 . S
C37 O32 1.259 . S
C37 O34 1.235 . S
O38 Co28 2.021 . S
O38 C35 1.238 . S
O39 Co33 2.052 . S
O39 C35 1.241 . S
O40 Co28 2.137 . S
O40 C31 1.247 . S
O41 Co28 2.244 . S
O41 C31 1.272 . S
O41 Co33 2.135 . S
Co42 O43 2.216 . S
Co42 O44 2.091 . S
Co42 O46 2.004 . S
Co42 O52 2.021 . S
Co42 O54 2.137 . S
Co42 O55 2.244 . S
O43 Co42 2.216 . S
O43 C50 1.247 . S
O44 Co42 2.091 . S
O44 C50 1.261 . S
C45 O54 1.247 . S
C45 O55 1.272 . S
O46 Co42 2.004 . S
O46 C51 1.259 . S
Co47 O48 2.061 . S
Co47 O53 2.052 . S
Co47 O55 2.135 . S
O48 Co47 2.061 . S
O48 C51 1.235 . S
C49 O52 1.238 . S
C49 O53 1.241 . S
C50 O43 1.247 . S
C50 O44 1.261 . S
C51 O46 1.259 . S
C51 O48 1.235 . S
O52 Co42 2.021 . S
O52 C49 1.238 . S
O53 Co47 2.052 . S
O53 C49 1.241 . S
O54 Co42 2.137 . S
O54 C45 1.247 . S
O55 Co42 2.244 . S
O55 C45 1.272 . S
O55 Co47 2.135 . S
Co56 O57 2.216 . S
Co56 O58 2.091 . S
Co56 O60 2.004 . S
Co56 O66 2.021 . S
Co56 O68 2.137 . S
Co56 O69 2.244 . S
O57 Co56 2.216 . S
O57 C64 1.247 . S
O58 Co56 2.091 . S
O58 C64 1.261 . S
C59 O68 1.247 . S
C59 O69 1.272 . S
O60 Co56 2.004 . S
O60 C65 1.259 . S
Co61 O62 2.061 . S
Co61 O67 2.052 . S
Co61 O69 2.135 . S
O62 Co61 2.061 . S
O62 C65 1.235 . S
C63 O66 1.238 . S
C63 O67 1.241 . S
C64 O57 1.247 . S
C64 O58 1.261 . S
C65 O60 1.259 . S
C65 O62 1.235 . S
O66 Co56 2.021 . S
O66 C63 1.238 . S
O67 Co61 2.052 . S
O67 C63 1.241 . S
O68 Co56 2.137 . S
O68 C59 1.247 . S
O69 Co56 2.244 . S
O69 C59 1.272 . S
O69 Co61 2.135 . S
Co70 O71 2.216 . S
Co70 O72 2.091 . S
Co70 O74 2.004 . S
Co70 O80 2.021 . S
Co70 O82 2.137 . S
Co70 O83 2.244 . S
O71 Co70 2.216 . S
O71 C78 1.247 . S
O72 Co70 2.091 . S
O72 C78 1.261 . S
C73 O82 1.247 . S
C73 O83 1.272 . S
O74 Co70 2.004 . S
O74 C79 1.259 . S
Co75 O76 2.061 . S
Co75 O81 2.052 . S
Co75 O83 2.135 . S
O76 Co75 2.061 . S
O76 C79 1.235 . S
C77 O80 1.238 . S
C77 O81 1.241 . S
C78 O71 1.247 . S
C78 O72 1.261 . S
C79 O74 1.259 . S
C79 O76 1.235 . S
O80 Co70 2.021 . S
O80 C77 1.238 . S
O81 Co75 2.052 . S
O81 C77 1.241 . S
O82 Co70 2.137 . S
O82 C73 1.247 . S
O83 Co70 2.244 . S
O83 C73 1.272 . S
O83 Co75 2.135 . S
Co84 O85 2.216 . S
Co84 O86 2.091 . S
Co84 O88 2.004 . S
Co84 O94 2.021 . S
Co84 O96 2.137 . S
Co84 O97 2.244 . S
O85 Co84 2.216 . S
O85 C92 1.247 . S
O86 Co84 2.091 . S
O86 C92 1.261 . S
C87 O96 1.247 . S
C87 O97 1.272 . S
O88 Co84 2.004 . S
O88 C93 1.259 . S
Co89 O90 2.061 . S
Co89 O95 2.052 . S
Co89 O97 2.135 . S
O90 Co89 2.061 . S
O90 C93 1.235 . S
C91 O94 1.238 . S
C91 O95 1.241 . S
C92 O85 1.247 . S
C92 O86 1.261 . S
C93 O88 1.259 . S
C93 O90 1.235 . S
O94 Co84 2.021 . S
O94 C91 1.238 . S
O95 Co89 2.052 . S
O95 C91 1.241 . S
O96 Co84 2.137 . S
O96 C87 1.247 . S
O97 Co84 2.244 . S
O97 C87 1.272 . S
O97 Co89 2.135 . S
Co98 O99 2.216 . S
Co98 O100 2.091 . S
Co98 O102 2.004 . S
Co98 O108 2.021 . S
Co98 O110 2.137 . S
Co98 O111 2.244 . S
O99 Co98 2.216 . S
O99 C106 1.247 . S
O100 Co98 2.091 . S
O100 C106 1.261 . S
C101 O110 1.247 . S
C101 O111 1.272 . S
O102 Co98 2.004 . S
O102 C107 1.259 . S
Co103 O104 2.061 . S
Co103 O109 2.052 . S
Co103 O111 2.135 . S
O104 Co103 2.061 . S
O104 C107 1.235 . S
C105 O108 1.238 . S
C105 O109 1.241 . S
C106 O99 1.247 . S
C106 O100 1.261 . S
C107 O102 1.259 . S
C107 O104 1.235 . S
O108 Co98 2.021 . S
O108 C105 1.238 . S
O109 Co103 2.052 . S
O109 C105 1.241 . S
O110 Co98 2.137 . S
O110 C101 1.247 . S
O111 Co98 2.244 . S
O111 C101 1.272 . S
O111 Co103 2.135 . S
Co112 O113 2.216 . S
Co112 O114 2.091 . S
Co112 O116 2.004 . S
Co112 O122 2.021 . S
Co112 O124 2.137 . S
Co112 O125 2.244 . S
O113 Co112 2.216 . S
O113 C120 1.247 . S
O114 Co112 2.091 . S
O114 C120 1.261 . S
C115 O124 1.247 . S
C115 O125 1.272 . S
O116 Co112 2.004 . S
O116 C121 1.259 . S
Co117 O118 2.061 . S
Co117 O123 2.052 . S
Co117 O125 2.135 . S
O118 Co117 2.061 . S
O118 C121 1.235 . S
C119 O122 1.238 . S
C119 O123 1.241 . S
C120 O113 1.247 . S
C120 O114 1.261 . S
C121 O116 1.259 . S
C121 O118 1.235 . S
O122 Co112 2.021 . S
O122 C119 1.238 . S
O123 Co117 2.052 . S
O123 C119 1.241 . S
O124 Co112 2.137 . S
O124 C115 1.247 . S
O125 Co112 2.244 . S
O125 C115 1.272 . S
O125 Co117 2.135 . S
Co126 O127 2.216 . S
Co126 O128 2.091 . S
Co126 O130 2.004 . S
Co126 O136 2.021 . S
Co126 O138 2.137 . S
Co126 O139 2.244 . S
O127 Co126 2.216 . S
O127 C134 1.247 . S
O128 Co126 2.091 . S
O128 C134 1.261 . S
C129 O138 1.247 . S
C129 O139 1.272 . S
O130 Co126 2.004 . S
O130 C135 1.259 . S
Co131 O132 2.061 . S
Co131 O137 2.052 . S
Co131 O139 2.135 . S
O132 Co131 2.061 . S
O132 C135 1.235 . S
C133 O136 1.238 . S
C133 O137 1.241 . S
C134 O127 1.247 . S
C134 O128 1.261 . S
C135 O130 1.259 . S
C135 O132 1.235 . S
O136 Co126 2.021 . S
O136 C133 1.238 . S
O137 Co131 2.052 . S
O137 C133 1.241 . S
O138 Co126 2.137 . S
O138 C129 1.247 . S
O139 Co126 2.244 . S
O139 C129 1.272 . S
O139 Co131 2.135 . S
Co140 O141 2.216 . S
Co140 O142 2.091 . S
Co140 O144 2.004 . S
Co140 O150 2.021 . S
Co140 O152 2.137 . S
Co140 O153 2.244 . S
O141 Co140 2.216 . S
O141 C148 1.247 . S
O142 Co140 2.091 . S
O142 C148 1.261 . S
C143 O152 1.247 . S
C143 O153 1.272 . S
O144 Co140 2.004 . S
O144 C149 1.259 . S
Co145 O146 2.061 . S
Co145 O151 2.052 . S
Co145 O153 2.135 . S
O146 Co145 2.061 . S
O146 C149 1.235 . S
C147 O150 1.238 . S
C147 O151 1.241 . S
C148 O141 1.247 . S
C148 O142 1.261 . S
C149 O144 1.259 . S
C149 O146 1.235 . S
O150 Co140 2.021 . S
O150 C147 1.238 . S
O151 Co145 2.052 . S
O151 C147 1.241 . S
O152 Co140 2.137 . S
O152 C143 1.247 . S
O153 Co140 2.244 . S
O153 C143 1.272 . S
O153 Co145 2.135 . S
Co154 O155 2.216 . S
Co154 O156 2.091 . S
Co154 O158 2.004 . S
Co154 O164 2.021 . S
Co154 O166 2.137 . S
Co154 O167 2.244 . S
O155 Co154 2.216 . S
O155 C162 1.247 . S
O156 Co154 2.091 . S
O156 C162 1.261 . S
C157 O166 1.247 . S
C157 O167 1.272 . S
O158 Co154 2.004 . S
O158 C163 1.259 . S
Co159 O160 2.061 . S
Co159 O165 2.052 . S
Co159 O167 2.135 . S
O160 Co159 2.061 . S
O160 C163 1.235 . S
C161 O164 1.238 . S
C161 O165 1.241 . S
C162 O155 1.247 . S
C162 O156 1.261 . S
C163 O158 1.259 . S
C163 O160 1.235 . S
O164 Co154 2.021 . S
O164 C161 1.238 . S
O165 Co159 2.052 . S
O165 C161 1.241 . S
O166 Co154 2.137 . S
O166 C157 1.247 . S
O167 Co154 2.244 . S
O167 C157 1.272 . S
O167 Co159 2.135 . S
Co168 O169 2.216 . S
Co168 O170 2.091 . S
Co168 O172 2.004 . S
Co168 O178 2.021 . S
Co168 O180 2.137 . S
Co168 O181 2.244 . S
O169 Co168 2.216 . S
O169 C176 1.247 . S
O170 Co168 2.091 . S
O170 C176 1.261 . S
C171 O180 1.247 . S
C171 O181 1.272 . S
O172 Co168 2.004 . S
O172 C177 1.259 . S
Co173 O174 2.061 . S
Co173 O179 2.052 . S
Co173 O181 2.135 . S
O174 Co173 2.061 . S
O174 C177 1.235 . S
C175 O178 1.238 . S
C175 O179 1.241 . S
C176 O169 1.247 . S
C176 O170 1.261 . S
C177 O172 1.259 . S
C177 O174 1.235 . S
O178 Co168 2.021 . S
O178 C175 1.238 . S
O179 Co173 2.052 . S
O179 C175 1.241 . S
O180 Co168 2.137 . S
O180 C171 1.247 . S
O181 Co168 2.244 . S
O181 C171 1.272 . S
O181 Co173 2.135 . S
Co182 O183 2.216 . S
Co182 O184 2.091 . S
Co182 O186 2.004 . S
Co182 O192 2.021 . S
Co182 O194 2.137 . S
Co182 O195 2.244 . S
O183 Co182 2.216 . S
O183 C190 1.247 . S
O184 Co182 2.091 . S
O184 C190 1.261 . S
C185 O194 1.247 . S
C185 O195 1.272 . S
O186 Co182 2.004 . S
O186 C191 1.259 . S
Co187 O188 2.061 . S
Co187 O193 2.052 . S
Co187 O195 2.135 . S
O188 Co187 2.061 . S
O188 C191 1.235 . S
C189 O192 1.238 . S
C189 O193 1.241 . S
C190 O183 1.247 . S
C190 O184 1.261 . S
C191 O186 1.259 . S
C191 O188 1.235 . S
O192 Co182 2.021 . S
O192 C189 1.238 . S
O193 Co187 2.052 . S
O193 C189 1.241 . S
O194 Co182 2.137 . S
O194 C185 1.247 . S
O195 Co182 2.244 . S
O195 C185 1.272 . S
O195 Co187 2.135 . S
Co196 O197 2.216 . S
Co196 O198 2.091 . S
Co196 O200 2.004 . S
Co196 O206 2.021 . S
Co196 O208 2.137 . S
Co196 O209 2.244 . S
O197 Co196 2.216 . S
O197 C204 1.247 . S
O198 Co196 2.091 . S
O198 C204 1.261 . S
C199 O208 1.247 . S
C199 O209 1.272 . S
O200 Co196 2.004 . S
O200 C205 1.259 . S
Co201 O202 2.061 . S
Co201 O207 2.052 . S
Co201 O209 2.135 . S
O202 Co201 2.061 . S
O202 C205 1.235 . S
C203 O206 1.238 . S
C203 O207 1.241 . S
C204 O197 1.247 . S
C204 O198 1.261 . S
C205 O200 1.259 . S
C205 O202 1.235 . S
O206 Co196 2.021 . S
O206 C203 1.238 . S
O207 Co201 2.052 . S
O207 C203 1.241 . S
O208 Co196 2.137 . S
O208 C199 1.247 . S
O209 Co196 2.244 . S
O209 C199 1.272 . S
O209 Co201 2.135 . S
Co210 O211 2.216 . S
Co210 O212 2.091 . S
Co210 O214 2.004 . S
Co210 O220 2.021 . S
Co210 O222 2.137 . S
Co210 O223 2.244 . S
O211 Co210 2.216 . S
O211 C218 1.247 . S
O212 Co210 2.091 . S
O212 C218 1.261 . S
C213 O222 1.247 . S
C213 O223 1.272 . S
O214 Co210 2.004 . S
O214 C219 1.259 . S
Co215 O216 2.061 . S
Co215 O221 2.052 . S
Co215 O223 2.135 . S
O216 Co215 2.061 . S
O216 C219 1.235 . S
C217 O220 1.238 . S
C217 O221 1.241 . S
C218 O211 1.247 . S
C218 O212 1.261 . S
C219 O214 1.259 . S
C219 O216 1.235 . S
O220 Co210 2.021 . S
O220 C217 1.238 . S
O221 Co215 2.052 . S
O221 C217 1.241 . S
O222 Co210 2.137 . S
O222 C213 1.247 . S
O223 Co210 2.244 . S
O223 C213 1.272 . S
O223 Co215 2.135 . S
Co224 O225 2.216 . S
Co224 O226 2.091 . S
Co224 O228 2.004 . S
Co224 O234 2.021 . S
Co224 O236 2.137 . S
Co224 O237 2.244 . S
O225 Co224 2.216 . S
O225 C232 1.247 . S
O226 Co224 2.091 . S
O226 C232 1.261 . S
C227 O236 1.247 . S
C227 O237 1.272 . S
O228 Co224 2.004 . S
O228 C233 1.259 . S
Co229 O230 2.061 . S
Co229 O235 2.052 . S
Co229 O237 2.135 . S
O230 Co229 2.061 . S
O230 C233 1.235 . S
C231 O234 1.238 . S
C231 O235 1.241 . S
C232 O225 1.247 . S
C232 O226 1.261 . S
C233 O228 1.259 . S
C233 O230 1.235 . S
O234 Co224 2.021 . S
O234 C231 1.238 . S
O235 Co229 2.052 . S
O235 C231 1.241 . S
O236 Co224 2.137 . S
O236 C227 1.247 . S
O237 Co224 2.244 . S
O237 C227 1.272 . S
O237 Co229 2.135 . S
Co238 O239 2.216 . S
Co238 O240 2.091 . S
Co238 O242 2.004 . S
Co238 O248 2.021 . S
Co238 O250 2.137 . S
Co238 O251 2.244 . S
O239 Co238 2.216 . S
O239 C246 1.247 . S
O240 Co238 2.091 . S
O240 C246 1.261 . S
C241 O250 1.247 . S
C241 O251 1.272 . S
O242 Co238 2.004 . S
O242 C247 1.259 . S
Co243 O244 2.061 . S
Co243 O249 2.052 . S
Co243 O251 2.135 . S
O244 Co243 2.061 . S
O244 C247 1.235 . S
C245 O248 1.238 . S
C245 O249 1.241 . S
C246 O239 1.247 . S
C246 O240 1.261 . S
C247 O242 1.259 . S
C247 O244 1.235 . S
O248 Co238 2.021 . S
O248 C245 1.238 . S
O249 Co243 2.052 . S
O249 C245 1.241 . S
O250 Co238 2.137 . S
O250 C241 1.247 . S
O251 Co238 2.244 . S
O251 C241 1.272 . S
O251 Co243 2.135 . S
Co252 O253 2.216 . S
Co252 O254 2.091 . S
Co252 O256 2.004 . S
Co252 O262 2.021 . S
Co252 O264 2.137 . S
Co252 O265 2.244 . S
O253 Co252 2.216 . S
O253 C260 1.247 . S
O254 Co252 2.091 . S
O254 C260 1.261 . S
C255 O264 1.247 . S
C255 O265 1.272 . S
O256 Co252 2.004 . S
O256 C261 1.259 . S
Co257 O258 2.061 . S
Co257 O263 2.052 . S
Co257 O265 2.135 . S
O258 Co257 2.061 . S
O258 C261 1.235 . S
C259 O262 1.238 . S
C259 O263 1.241 . S
C260 O253 1.247 . S
C260 O254 1.261 . S
C261 O256 1.259 . S
C261 O258 1.235 . S
O262 Co252 2.021 . S
O262 C259 1.238 . S
O263 Co257 2.052 . S
O263 C259 1.241 . S
O264 Co252 2.137 . S
O264 C255 1.247 . S
O265 Co252 2.244 . S
O265 C255 1.272 . S
O265 Co257 2.135 . S
Co266 O267 2.216 . S
Co266 O268 2.091 . S
Co266 O270 2.004 . S
Co266 O276 2.021 . S
Co266 O278 2.137 . S
Co266 O279 2.244 . S
O267 Co266 2.216 . S
O267 C274 1.247 . S
O268 Co266 2.091 . S
O268 C274 1.261 . S
C269 O278 1.247 . S
C269 O279 1.272 . S
O270 Co266 2.004 . S
O270 C275 1.259 . S
Co271 O272 2.061 . S
Co271 O277 2.052 . S
Co271 O279 2.135 . S
O272 Co271 2.061 . S
O272 C275 1.235 . S
C273 O276 1.238 . S
C273 O277 1.241 . S
C274 O267 1.247 . S
C274 O268 1.261 . S
C275 O270 1.259 . S
C275 O272 1.235 . S
O276 Co266 2.021 . S
O276 C273 1.238 . S
O277 Co271 2.052 . S
O277 C273 1.241 . S
O278 Co266 2.137 . S
O278 C269 1.247 . S
O279 Co266 2.244 . S
O279 C269 1.272 . S
O279 Co271 2.135 . S
Co280 O281 2.216 . S
Co280 O282 2.091 . S
Co280 O284 2.004 . S
Co280 O290 2.021 . S
Co280 O292 2.137 . S
Co280 O293 2.244 . S
O281 Co280 2.216 . S
O281 C288 1.247 . S
O282 Co280 2.091 . S
O282 C288 1.261 . S
C283 O292 1.247 . S
C283 O293 1.272 . S
O284 Co280 2.004 . S
O284 C289 1.259 . S
Co285 O286 2.061 . S
Co285 O291 2.052 . S
Co285 O293 2.135 . S
O286 Co285 2.061 . S
O286 C289 1.235 . S
C287 O290 1.238 . S
C287 O291 1.241 . S
C288 O281 1.247 . S
C288 O282 1.261 . S
C289 O284 1.259 . S
C289 O286 1.235 . S
O290 Co280 2.021 . S
O290 C287 1.238 . S
O291 Co285 2.052 . S
O291 C287 1.241 . S
O292 Co280 2.137 . S
O292 C283 1.247 . S
O293 Co280 2.244 . S
O293 C283 1.272 . S
O293 Co285 2.135 . S
Co294 O295 2.216 . S
Co294 O296 2.091 . S
Co294 O298 2.004 . S
Co294 O304 2.021 . S
Co294 O306 2.137 . S
Co294 O307 2.244 . S
O295 Co294 2.216 . S
O295 C302 1.247 . S
O296 Co294 2.091 . S
O296 C302 1.261 . S
C297 O306 1.247 . S
C297 O307 1.272 . S
O298 Co294 2.004 . S
O298 C303 1.259 . S
Co299 O300 2.061 . S
Co299 O305 2.052 . S
Co299 O307 2.135 . S
O300 Co299 2.061 . S
O300 C303 1.235 . S
C301 O304 1.238 . S
C301 O305 1.241 . S
C302 O295 1.247 . S
C302 O296 1.261 . S
C303 O298 1.259 . S
C303 O300 1.235 . S
O304 Co294 2.021 . S
O304 C301 1.238 . S
O305 Co299 2.052 . S
O305 C301 1.241 . S
O306 Co294 2.137 . S
O306 C297 1.247 . S
O307 Co294 2.244 . S
O307 C297 1.272 . S
O307 Co299 2.135 . S
Co308 O309 2.216 . S
Co308 O310 2.091 . S
Co308 O312 2.004 . S
Co308 O318 2.021 . S
Co308 O320 2.137 . S
Co308 O321 2.244 . S
O309 Co308 2.216 . S
O309 C316 1.247 . S
O310 Co308 2.091 . S
O310 C316 1.261 . S
C311 O320 1.247 . S
C311 O321 1.272 . S
O312 Co308 2.004 . S
O312 C317 1.259 . S
Co313 O314 2.061 . S
Co313 O319 2.052 . S
Co313 O321 2.135 . S
O314 Co313 2.061 . S
O314 C317 1.235 . S
C315 O318 1.238 . S
C315 O319 1.241 . S
C316 O309 1.247 . S
C316 O310 1.261 . S
C317 O312 1.259 . S
C317 O314 1.235 . S
O318 Co308 2.021 . S
O318 C315 1.238 . S
O319 Co313 2.052 . S
O319 C315 1.241 . S
O320 Co308 2.137 . S
O320 C311 1.247 . S
O321 Co308 2.244 . S
O321 C311 1.272 . S
O321 Co313 2.135 . S
Co322 O323 2.216 . S
Co322 O324 2.091 . S
Co322 O326 2.004 . S
Co322 O332 2.021 . S
Co322 O334 2.137 . S
Co322 O335 2.244 . S
O323 Co322 2.216 . S
O323 C330 1.247 . S
O324 Co322 2.091 . S
O324 C330 1.261 . S
C325 O334 1.247 . S
C325 O335 1.272 . S
O326 Co322 2.004 . S
O326 C331 1.259 . S
Co327 O328 2.061 . S
Co327 O333 2.052 . S
Co327 O335 2.135 . S
O328 Co327 2.061 . S
O328 C331 1.235 . S
C329 O332 1.238 . S
C329 O333 1.241 . S
C330 O323 1.247 . S
C330 O324 1.261 . S
C331 O326 1.259 . S
C331 O328 1.235 . S
O332 Co322 2.021 . S
O332 C329 1.238 . S
O333 Co327 2.052 . S
O333 C329 1.241 . S
O334 Co322 2.137 . S
O334 C325 1.247 . S
O335 Co322 2.244 . S
O335 C325 1.272 . S
O335 Co327 2.135 . S
Co336 O337 2.216 . S
Co336 O338 2.091 . S
Co336 O340 2.004 . S
Co336 O346 2.021 . S
Co336 O348 2.137 . S
Co336 O349 2.244 . S
O337 Co336 2.216 . S
O337 C344 1.247 . S
O338 Co336 2.091 . S
O338 C344 1.261 . S
C339 O348 1.247 . S
C339 O349 1.272 . S
O340 Co336 2.004 . S
O340 C345 1.259 . S
Co341 O342 2.061 . S
Co341 O347 2.052 . S
Co341 O349 2.135 . S
O342 Co341 2.061 . S
O342 C345 1.235 . S
C343 O346 1.238 . S
C343 O347 1.241 . S
C344 O337 1.247 . S
C344 O338 1.261 . S
C345 O340 1.259 . S
C345 O342 1.235 . S
O346 Co336 2.021 . S
O346 C343 1.238 . S
O347 Co341 2.052 . S
O347 C343 1.241 . S
O348 Co336 2.137 . S
O348 C339 1.247 . S
O349 Co336 2.244 . S
O349 C339 1.272 . S
O349 Co341 2.135 . S
Co350 O351 2.216 . S
Co350 O352 2.091 . S
Co350 O354 2.004 . S
Co350 O360 2.021 . S
Co350 O362 2.137 . S
Co350 O363 2.244 . S
O351 Co350 2.216 . S
O351 C358 1.247 . S
O352 Co350 2.091 . S
O352 C358 1.261 . S
C353 O362 1.247 . S
C353 O363 1.272 . S
O354 Co350 2.004 . S
O354 C359 1.259 . S
Co355 O356 2.061 . S
Co355 O361 2.052 . S
Co355 O363 2.135 . S
O356 Co355 2.061 . S
O356 C359 1.235 . S
C357 O360 1.238 . S
C357 O361 1.241 . S
C358 O351 1.247 . S
C358 O352 1.261 . S
C359 O354 1.259 . S
C359 O356 1.235 . S
O360 Co350 2.021 . S
O360 C357 1.238 . S
O361 Co355 2.052 . S
O361 C357 1.241 . S
O362 Co350 2.137 . S
O362 C353 1.247 . S
O363 Co350 2.244 . S
O363 C353 1.272 . S
O363 Co355 2.135 . S
Co364 O365 2.216 . S
Co364 O366 2.091 . S
Co364 O368 2.004 . S
Co364 O374 2.021 . S
Co364 O376 2.137 . S
Co364 O377 2.244 . S
O365 Co364 2.216 . S
O365 C372 1.247 . S
O366 Co364 2.091 . S
O366 C372 1.261 . S
C367 O376 1.247 . S
C367 O377 1.272 . S
O368 Co364 2.004 . S
O368 C373 1.259 . S
Co369 O370 2.061 . S
Co369 O375 2.052 . S
Co369 O377 2.135 . S
O370 Co369 2.061 . S
O370 C373 1.235 . S
C371 O374 1.238 . S
C371 O375 1.241 . S
C372 O365 1.247 . S
C372 O366 1.261 . S
C373 O368 1.259 . S
C373 O370 1.235 . S
O374 Co364 2.021 . S
O374 C371 1.238 . S
O375 Co369 2.052 . S
O375 C371 1.241 . S
O376 Co364 2.137 . S
O376 C367 1.247 . S
O377 Co364 2.244 . S
O377 C367 1.272 . S
O377 Co369 2.135 . S
Co378 O379 2.216 . S
Co378 O380 2.091 . S
Co378 O382 2.004 . S
Co378 O388 2.021 . S
Co378 O390 2.137 . S
Co378 O391 2.244 . S
O379 Co378 2.216 . S
O379 C386 1.247 . S
O380 Co378 2.091 . S
O380 C386 1.261 . S
C381 O390 1.247 . S
C381 O391 1.272 . S
O382 Co378 2.004 . S
O382 C387 1.259 . S
Co383 O384 2.061 . S
Co383 O389 2.052 . S
Co383 O391 2.135 . S
O384 Co383 2.061 . S
O384 C387 1.235 . S
C385 O388 1.238 . S
C385 O389 1.241 . S
C386 O379 1.247 . S
C386 O380 1.261 . S
C387 O382 1.259 . S
C387 O384 1.235 . S
O388 Co378 2.021 . S
O388 C385 1.238 . S
O389 Co383 2.052 . S
O389 C385 1.241 . S
O390 Co378 2.137 . S
O390 C381 1.247 . S
O391 Co378 2.244 . S
O391 C381 1.272 . S
O391 Co383 2.135 . S
Co392 O393 2.216 . S
Co392 O394 2.091 . S
Co392 O396 2.004 . S
Co392 O402 2.021 . S
Co392 O404 2.137 . S
Co392 O405 2.244 . S
O393 Co392 2.216 . S
O393 C400 1.247 . S
O394 Co392 2.091 . S
O394 C400 1.261 . S
C395 O404 1.247 . S
C395 O405 1.272 . S
O396 Co392 2.004 . S
O396 C401 1.259 . S
Co397 O398 2.061 . S
Co397 O403 2.052 . S
Co397 O405 2.135 . S
O398 Co397 2.061 . S
O398 C401 1.235 . S
C399 O402 1.238 . S
C399 O403 1.241 . S
C400 O393 1.247 . S
C400 O394 1.261 . S
C401 O396 1.259 . S
C401 O398 1.235 . S
O402 Co392 2.021 . S
O402 C399 1.238 . S
O403 Co397 2.052 . S
O403 C399 1.241 . S
O404 Co392 2.137 . S
O404 C395 1.247 . S
O405 Co392 2.244 . S
O405 C395 1.272 . S
O405 Co397 2.135 . S
Co406 O407 2.216 . S
Co406 O408 2.091 . S
Co406 O410 2.004 . S
Co406 O416 2.021 . S
Co406 O418 2.137 . S
Co406 O419 2.244 . S
O407 Co406 2.216 . S
O407 C414 1.247 . S
O408 Co406 2.091 . S
O408 C414 1.261 . S
C409 O418 1.247 . S
C409 O419 1.272 . S
O410 Co406 2.004 . S
O410 C415 1.259 . S
Co411 O412 2.061 . S
Co411 O417 2.052 . S
Co411 O419 2.135 . S
O412 Co411 2.061 . S
O412 C415 1.235 . S
C413 O416 1.238 . S
C413 O417 1.241 . S
C414 O407 1.247 . S
C414 O408 1.261 . S
C415 O410 1.259 . S
C415 O412 1.235 . S
O416 Co406 2.021 . S
O416 C413 1.238 . S
O417 Co411 2.052 . S
O417 C413 1.241 . S
O418 Co406 2.137 . S
O418 C409 1.247 . S
O419 Co406 2.244 . S
O419 C409 1.272 . S
O419 Co411 2.135 . S
Co420 O421 2.216 . S
Co420 O422 2.091 . S
Co420 O424 2.004 . S
Co420 O430 2.021 . S
Co420 O432 2.137 . S
Co420 O433 2.244 . S
O421 Co420 2.216 . S
O421 C428 1.247 . S
O422 Co420 2.091 . S
O422 C428 1.261 . S
C423 O432 1.247 . S
C423 O433 1.272 . S
O424 Co420 2.004 . S
O424 C429 1.259 . S
Co425 O426 2.061 . S
Co425 O431 2.052 . S
Co425 O433 2.135 . S
O426 Co425 2.061 . S
O426 C429 1.235 . S
C427 O430 1.238 . S
C427 O431 1.241 . S
C428 O421 1.247 . S
C428 O422 1.261 . S
C429 O424 1.259 . S
C429 O426 1.235 . S
O430 Co420 2.021 . S
O430 C427 1.238 . S
O431 Co425 2.052 . S
O431 C427 1.241 . S
O432 Co420 2.137 . S
O432 C423 1.247 . S
O433 Co420 2.244 . S
O433 C423 1.272 . S
O433 Co425 2.135 . S
Co434 O435 2.216 . S
Co434 O436 2.091 . S
Co434 O438 2.004 . S
Co434 O444 2.021 . S
Co434 O446 2.137 . S
Co434 O447 2.244 . S
O435 Co434 2.216 . S
O435 C442 1.247 . S
O436 Co434 2.091 . S
O436 C442 1.261 . S
C437 O446 1.247 . S
C437 O447 1.272 . S
O438 Co434 2.004 . S
O438 C443 1.259 . S
Co439 O440 2.061 . S
Co439 O445 2.052 . S
Co439 O447 2.135 . S
O440 Co439 2.061 . S
O440 C443 1.235 . S
C441 O444 1.238 . S
C441 O445 1.241 . S
C442 O435 1.247 . S
C442 O436 1.261 . S
C443 O438 1.259 . S
C443 O440 1.235 . S
O444 Co434 2.021 . S
O444 C441 1.238 . S
O445 Co439 2.052 . S
O445 C441 1.241 . S
O446 Co434 2.137 . S
O446 C437 1.247 . S
O447 Co434 2.244 . S
O447 C437 1.272 . S
O447 Co439 2.135 . S
Co448 O449 2.216 . S
Co448 O450 2.091 . S
Co448 O452 2.004 . S
Co448 O458 2.021 . S
Co448 O460 2.137 . S
Co448 O461 2.244 . S
O449 Co448 2.216 . S
O449 C456 1.247 . S
O450 Co448 2.091 . S
O450 C456 1.261 . S
C451 O460 1.247 . S
C451 O461 1.272 . S
O452 Co448 2.004 . S
O452 C457 1.259 . S
Co453 O454 2.061 . S
Co453 O459 2.052 . S
Co453 O461 2.135 . S
O454 Co453 2.061 . S
O454 C457 1.235 . S
C455 O458 1.238 . S
C455 O459 1.241 . S
C456 O449 1.247 . S
C456 O450 1.261 . S
C457 O452 1.259 . S
C457 O454 1.235 . S
O458 Co448 2.021 . S
O458 C455 1.238 . S
O459 Co453 2.052 . S
O459 C455 1.241 . S
O460 Co448 2.137 . S
O460 C451 1.247 . S
O461 Co448 2.244 . S
O461 C451 1.272 . S
O461 Co453 2.135 . S
Co462 O463 2.216 . S
Co462 O464 2.091 . S
Co462 O466 2.004 . S
Co462 O472 2.021 . S
Co462 O474 2.137 . S
Co462 O475 2.244 . S
O463 Co462 2.216 . S
O463 C470 1.247 . S
O464 Co462 2.091 . S
O464 C470 1.261 . S
C465 O474 1.247 . S
C465 O475 1.272 . S
O466 Co462 2.004 . S
O466 C471 1.259 . S
Co467 O468 2.061 . S
Co467 O473 2.052 . S
Co467 O475 2.135 . S
O468 Co467 2.061 . S
O468 C471 1.235 . S
C469 O472 1.238 . S
C469 O473 1.241 . S
C470 O463 1.247 . S
C470 O464 1.261 . S
C471 O466 1.259 . S
C471 O468 1.235 . S
O472 Co462 2.021 . S
O472 C469 1.238 . S
O473 Co467 2.052 . S
O473 C469 1.241 . S
O474 Co462 2.137 . S
O474 C465 1.247 . S
O475 Co462 2.244 . S
O475 C465 1.272 . S
O475 Co467 2.135 . S
Co476 O477 2.216 . S
Co476 O478 2.091 . S
Co476 O480 2.004 . S
Co476 O486 2.021 . S
Co476 O488 2.137 . S
Co476 O489 2.244 . S
O477 Co476 2.216 . S
O477 C484 1.247 . S
O478 Co476 2.091 . S
O478 C484 1.261 . S
C479 O488 1.247 . S
C479 O489 1.272 . S
O480 Co476 2.004 . S
O480 C485 1.259 . S
Co481 O482 2.061 . S
Co481 O487 2.052 . S
Co481 O489 2.135 . S
O482 Co481 2.061 . S
O482 C485 1.235 . S
C483 O486 1.238 . S
C483 O487 1.241 . S
C484 O477 1.247 . S
C484 O478 1.261 . S
C485 O480 1.259 . S
C485 O482 1.235 . S
O486 Co476 2.021 . S
O486 C483 1.238 . S
O487 Co481 2.052 . S
O487 C483 1.241 . S
O488 Co476 2.137 . S
O488 C479 1.247 . S
O489 Co476 2.244 . S
O489 C479 1.272 . S
O489 Co481 2.135 . S
Co490 O491 2.216 . S
Co490 O492 2.091 . S
Co490 O494 2.004 . S
Co490 O500 2.021 . S
Co490 O502 2.137 . S
Co490 O503 2.244 . S
O491 Co490 2.216 . S
O491 C498 1.247 . S
O492 Co490 2.091 . S
O492 C498 1.261 . S
C493 O502 1.247 . S
C493 O503 1.272 . S
O494 Co490 2.004 . S
O494 C499 1.259 . S
Co495 O496 2.061 . S
Co495 O501 2.052 . S
Co495 O503 2.135 . S
O496 Co495 2.061 . S
O496 C499 1.235 . S
C497 O500 1.238 . S
C497 O501 1.241 . S
C498 O491 1.247 . S
C498 O492 1.261 . S
C499 O494 1.259 . S
C499 O496 1.235 . S
O500 Co490 2.021 . S
O500 C497 1.238 . S
O501 Co495 2.052 . S
O501 C497 1.241 . S
O502 Co490 2.137 . S
O502 C493 1.247 . S
O503 Co490 2.244 . S
O503 C493 1.272 . S
O503 Co495 2.135 . S
H504 C516 0.930 . S
H505 C518 0.930 . S
H506 C519 0.930 . S
H507 C523 0.959 . S
H508 C523 0.959 . S
H509 C523 0.961 . S
H510 C524 0.960 . S
H511 C524 0.961 . S
H512 C524 0.959 . S
H513 C527 0.929 . S
H514 C528 0.931 . S
H515 C530 0.930 . S
C516 H504 0.930 . S
C516 C517 1.399 . S
C516 C521 1.399 . S
C517 C516 1.399 . S
C517 C518 1.376 . S
C518 H505 0.930 . S
C518 C517 1.376 . S
C518 C519 1.388 . S
C519 H506 0.930 . S
C519 C518 1.388 . S
C519 C520 1.390 . S
C520 C519 1.390 . S
C520 C521 1.394 . S
C520 C526 1.465 . S
C521 C516 1.399 . S
C521 C520 1.394 . S
C521 C522 1.516 . S
C522 C521 1.516 . S
C522 C523 1.502 . S
C522 C524 1.561 . S
C522 C525 1.526 . S
C523 H507 0.959 . S
C523 H508 0.959 . S
C523 H509 0.961 . S
C523 C522 1.502 . S
C524 H510 0.960 . S
C524 H511 0.961 . S
C524 H512 0.959 . S
C524 C522 1.561 . S
C525 C522 1.526 . S
C525 C526 1.396 . S
C525 C530 1.390 . S
C526 C520 1.465 . S
C526 C525 1.396 . S
C526 C527 1.399 . S
C527 H513 0.929 . S
C527 C526 1.399 . S
C527 C528 1.385 . S
C528 H514 0.931 . S
C528 C527 1.385 . S
C528 C529 1.389 . S
C529 C528 1.389 . S
C529 C530 1.387 . S
C530 H515 0.930 . S
C530 C525 1.390 . S
C530 C529 1.387 . S
H531 C543 0.930 . S
H532 C545 0.930 . S
H533 C546 0.930 . S
H534 C550 0.959 . S
H535 C550 0.959 . S
H536 C550 0.961 . S
H537 C551 0.960 . S
H538 C551 0.961 . S
H539 C551 0.959 . S
H540 C554 0.929 . S
H541 C555 0.931 . S
H542 C557 0.930 . S
C543 H531 0.930 . S
C543 C544 1.399 . S
C543 C548 1.399 . S
C544 C543 1.399 . S
C544 C545 1.376 . S
C545 H532 0.930 . S
C545 C544 1.376 . S
C545 C546 1.388 . S
C546 H533 0.930 . S
C546 C545 1.388 . S
C546 C547 1.390 . S
C547 C546 1.390 . S
C547 C548 1.394 . S
C547 C553 1.465 . S
C548 C543 1.399 . S
C548 C547 1.394 . S
C548 C549 1.516 . S
C549 C548 1.516 . S
C549 C550 1.502 . S
C549 C551 1.561 . S
C549 C552 1.526 . S
C550 H534 0.959 . S
C550 H535 0.959 . S
C550 H536 0.961 . S
C550 C549 1.502 . S
C551 H537 0.960 . S
C551 H538 0.961 . S
C551 H539 0.959 . S
C551 C549 1.561 . S
C552 C549 1.526 . S
C552 C553 1.396 . S
C552 C557 1.390 . S
C553 C547 1.465 . S
C553 C552 1.396 . S
C553 C554 1.399 . S
C554 H540 0.929 . S
C554 C553 1.399 . S
C554 C555 1.385 . S
C555 H541 0.931 . S
C555 C554 1.385 . S
C555 C556 1.389 . S
C556 C555 1.389 . S
C556 C557 1.387 . S
C557 H542 0.930 . S
C557 C552 1.390 . S
C557 C556 1.387 . S
H558 C570 0.930 . S
H559 C572 0.930 . S
H560 C573 0.930 . S
H561 C577 0.959 . S
H562 C577 0.959 . S
H563 C577 0.961 . S
H564 C578 0.960 . S
H565 C578 0.961 . S
H566 C578 0.959 . S
H567 C581 0.929 . S
H568 C582 0.931 . S
H569 C584 0.930 . S
C570 H558 0.930 . S
C570 C571 1.399 . S
C570 C575 1.399 . S
C571 C570 1.399 . S
C571 C572 1.376 . S
C572 H559 0.930 . S
C572 C571 1.376 . S
C572 C573 1.388 . S
C573 H560 0.930 . S
C573 C572 1.388 . S
C573 C574 1.390 . S
C574 C573 1.390 . S
C574 C575 1.394 . S
C574 C580 1.465 . S
C575 C570 1.399 . S
C575 C574 1.394 . S
C575 C576 1.516 . S
C576 C575 1.516 . S
C576 C577 1.502 . S
C576 C578 1.561 . S
C576 C579 1.526 . S
C577 H561 0.959 . S
C577 H562 0.959 . S
C577 H563 0.961 . S
C577 C576 1.502 . S
C578 H564 0.960 . S
C578 H565 0.961 . S
C578 H566 0.959 . S
C578 C576 1.561 . S
C579 C576 1.526 . S
C579 C580 1.396 . S
C579 C584 1.390 . S
C580 C574 1.465 . S
C580 C579 1.396 . S
C580 C581 1.399 . S
C581 H567 0.929 . S
C581 C580 1.399 . S
C581 C582 1.385 . S
C582 H568 0.931 . S
C582 C581 1.385 . S
C582 C583 1.389 . S
C583 C582 1.389 . S
C583 C584 1.387 . S
C584 H569 0.930 . S
C584 C579 1.390 . S
C584 C583 1.387 . S
H585 C597 0.930 . S
H586 C599 0.930 . S
H587 C600 0.930 . S
H588 C604 0.959 . S
H589 C604 0.959 . S
H590 C604 0.961 . S
H591 C605 0.960 . S
H592 C605 0.961 . S
H593 C605 0.959 . S
H594 C608 0.929 . S
H595 C609 0.931 . S
H596 C611 0.930 . S
C597 H585 0.930 . S
C597 C598 1.399 . S
C597 C602 1.399 . S
C598 C597 1.399 . S
C598 C599 1.376 . S
C599 H586 0.930 . S
C599 C598 1.376 . S
C599 C600 1.388 . S
C600 H587 0.930 . S
C600 C599 1.388 . S
C600 C601 1.390 . S
C601 C600 1.390 . S
C601 C602 1.394 . S
C601 C607 1.465 . S
C602 C597 1.399 . S
C602 C601 1.394 . S
C602 C603 1.516 . S
C603 C602 1.516 . S
C603 C604 1.502 . S
C603 C605 1.561 . S
C603 C606 1.526 . S
C604 H588 0.959 . S
C604 H589 0.959 . S
C604 H590 0.961 . S
C604 C603 1.502 . S
C605 H591 0.960 . S
C605 H592 0.961 . S
C605 H593 0.959 . S
C605 C603 1.561 . S
C606 C603 1.526 . S
C606 C607 1.396 . S
C606 C611 1.390 . S
C607 C601 1.465 . S
C607 C606 1.396 . S
C607 C608 1.399 . S
C608 H594 0.929 . S
C608 C607 1.399 . S
C608 C609 1.385 . S
C609 H595 0.931 . S
C609 C608 1.385 . S
C609 C610 1.389 . S
C610 C609 1.389 . S
C610 C611 1.387 . S
C611 H596 0.930 . S
C611 C606 1.390 . S
C611 C610 1.387 . S
H612 C624 0.930 . S
H613 C626 0.930 . S
H614 C627 0.930 . S
H615 C631 0.959 . S
H616 C631 0.959 . S
H617 C631 0.961 . S
H618 C632 0.960 . S
H619 C632 0.961 . S
H620 C632 0.959 . S
H621 C635 0.929 . S
H622 C636 0.931 . S
H623 C638 0.930 . S
C624 H612 0.930 . S
C624 C625 1.399 . S
C624 C629 1.399 . S
C625 C624 1.399 . S
C625 C626 1.376 . S
C626 H613 0.930 . S
C626 C625 1.376 . S
C626 C627 1.388 . S
C627 H614 0.930 . S
C627 C626 1.388 . S
C627 C628 1.390 . S
C628 C627 1.390 . S
C628 C629 1.394 . S
C628 C634 1.465 . S
C629 C624 1.399 . S
C629 C628 1.394 . S
C629 C630 1.516 . S
C630 C629 1.516 . S
C630 C631 1.502 . S
C630 C632 1.561 . S
C630 C633 1.526 . S
C631 H615 0.959 . S
C631 H616 0.959 . S
C631 H617 0.961 . S
C631 C630 1.502 . S
C632 H618 0.960 . S
C632 H619 0.961 . S
C632 H620 0.959 . S
C632 C630 1.561 . S
C633 C630 1.526 . S
C633 C634 1.396 . S
C633 C638 1.390 . S
C634 C628 1.465 . S
C634 C633 1.396 . S
C634 C635 1.399 . S
C635 H621 0.929 . S
C635 C634 1.399 . S
C635 C636 1.385 . S
C636 H622 0.931 . S
C636 C635 1.385 . S
C636 C637 1.389 . S
C637 C636 1.389 . S
C637 C638 1.387 . S
C638 H623 0.930 . S
C638 C633 1.390 . S
C638 C637 1.387 . S
H639 C651 0.930 . S
H640 C653 0.930 . S
H641 C654 0.930 . S
H642 C658 0.959 . S
H643 C658 0.959 . S
H644 C658 0.961 . S
H645 C659 0.960 . S
H646 C659 0.961 . S
H647 C659 0.959 . S
H648 C662 0.929 . S
H649 C663 0.931 . S
H650 C665 0.930 . S
C651 H639 0.930 . S
C651 C652 1.399 . S
C651 C656 1.399 . S
C652 C651 1.399 . S
C652 C653 1.376 . S
C653 H640 0.930 . S
C653 C652 1.376 . S
C653 C654 1.388 . S
C654 H641 0.930 . S
C654 C653 1.388 . S
C654 C655 1.390 . S
C655 C654 1.390 . S
C655 C656 1.394 . S
C655 C661 1.465 . S
C656 C651 1.399 . S
C656 C655 1.394 . S
C656 C657 1.516 . S
C657 C656 1.516 . S
C657 C658 1.502 . S
C657 C659 1.561 . S
C657 C660 1.526 . S
C658 H642 0.959 . S
C658 H643 0.959 . S
C658 H644 0.961 . S
C658 C657 1.502 . S
C659 H645 0.960 . S
C659 H646 0.961 . S
C659 H647 0.959 . S
C659 C657 1.561 . S
C660 C657 1.526 . S
C660 C661 1.396 . S
C660 C665 1.390 . S
C661 C655 1.465 . S
C661 C660 1.396 . S
C661 C662 1.399 . S
C662 H648 0.929 . S
C662 C661 1.399 . S
C662 C663 1.385 . S
C663 H649 0.931 . S
C663 C662 1.385 . S
C663 C664 1.389 . S
C664 C663 1.389 . S
C664 C665 1.387 . S
C665 H650 0.930 . S
C665 C660 1.390 . S
C665 C664 1.387 . S
H666 C678 0.930 . S
H667 C680 0.930 . S
H668 C681 0.930 . S
H669 C685 0.959 . S
H670 C685 0.959 . S
H671 C685 0.961 . S
H672 C686 0.960 . S
H673 C686 0.961 . S
H674 C686 0.959 . S
H675 C689 0.929 . S
H676 C690 0.931 . S
H677 C692 0.930 . S
C678 H666 0.930 . S
C678 C679 1.399 . S
C678 C683 1.399 . S
C679 C678 1.399 . S
C679 C680 1.376 . S
C680 H667 0.930 . S
C680 C679 1.376 . S
C680 C681 1.388 . S
C681 H668 0.930 . S
C681 C680 1.388 . S
C681 C682 1.390 . S
C682 C681 1.390 . S
C682 C683 1.394 . S
C682 C688 1.465 . S
C683 C678 1.399 . S
C683 C682 1.394 . S
C683 C684 1.516 . S
C684 C683 1.516 . S
C684 C685 1.502 . S
C684 C686 1.561 . S
C684 C687 1.526 . S
C685 H669 0.959 . S
C685 H670 0.959 . S
C685 H671 0.961 . S
C685 C684 1.502 . S
C686 H672 0.960 . S
C686 H673 0.961 . S
C686 H674 0.959 . S
C686 C684 1.561 . S
C687 C684 1.526 . S
C687 C688 1.396 . S
C687 C692 1.390 . S
C688 C682 1.465 . S
C688 C687 1.396 . S
C688 C689 1.399 . S
C689 H675 0.929 . S
C689 C688 1.399 . S
C689 C690 1.385 . S
C690 H676 0.931 . S
C690 C689 1.385 . S
C690 C691 1.389 . S
C691 C690 1.389 . S
C691 C692 1.387 . S
C692 H677 0.930 . S
C692 C687 1.390 . S
C692 C691 1.387 . S
H693 C705 0.930 . S
H694 C707 0.930 . S
H695 C708 0.930 . S
H696 C712 0.959 . S
H697 C712 0.959 . S
H698 C712 0.961 . S
H699 C713 0.960 . S
H700 C713 0.961 . S
H701 C713 0.959 . S
H702 C716 0.929 . S
H703 C717 0.931 . S
H704 C719 0.930 . S
C705 H693 0.930 . S
C705 C706 1.399 . S
C705 C710 1.399 . S
C706 C705 1.399 . S
C706 C707 1.376 . S
C707 H694 0.930 . S
C707 C706 1.376 . S
C707 C708 1.388 . S
C708 H695 0.930 . S
C708 C707 1.388 . S
C708 C709 1.390 . S
C709 C708 1.390 . S
C709 C710 1.394 . S
C709 C715 1.465 . S
C710 C705 1.399 . S
C710 C709 1.394 . S
C710 C711 1.516 . S
C711 C710 1.516 . S
C711 C712 1.502 . S
C711 C713 1.561 . S
C711 C714 1.526 . S
C712 H696 0.959 . S
C712 H697 0.959 . S
C712 H698 0.961 . S
C712 C711 1.502 . S
C713 H699 0.960 . S
C713 H700 0.961 . S
C713 H701 0.959 . S
C713 C711 1.561 . S
C714 C711 1.526 . S
C714 C715 1.396 . S
C714 C719 1.390 . S
C715 C709 1.465 . S
C715 C714 1.396 . S
C715 C716 1.399 . S
C716 H702 0.929 . S
C716 C715 1.399 . S
C716 C717 1.385 . S
C717 H703 0.931 . S
C717 C716 1.385 . S
C717 C718 1.389 . S
C718 C717 1.389 . S
C718 C719 1.387 . S
C719 H704 0.930 . S
C719 C714 1.390 . S
C719 C718 1.387 . S
H720 C732 0.930 . S
H721 C734 0.930 . S
H722 C735 0.930 . S
H723 C739 0.959 . S
H724 C739 0.959 . S
H725 C739 0.961 . S
H726 C740 0.960 . S
H727 C740 0.961 . S
H728 C740 0.959 . S
H729 C743 0.929 . S
H730 C744 0.931 . S
H731 C746 0.930 . S
C732 H720 0.930 . S
C732 C733 1.399 . S
C732 C737 1.399 . S
C733 C732 1.399 . S
C733 C734 1.376 . S
C734 H721 0.930 . S
C734 C733 1.376 . S
C734 C735 1.388 . S
C735 H722 0.930 . S
C735 C734 1.388 . S
C735 C736 1.390 . S
C736 C735 1.390 . S
C736 C737 1.394 . S
C736 C742 1.465 . S
C737 C732 1.399 . S
C737 C736 1.394 . S
C737 C738 1.516 . S
C738 C737 1.516 . S
C738 C739 1.502 . S
C738 C740 1.561 . S
C738 C741 1.526 . S
C739 H723 0.959 . S
C739 H724 0.959 . S
C739 H725 0.961 . S
C739 C738 1.502 . S
C740 H726 0.960 . S
C740 H727 0.961 . S
C740 H728 0.959 . S
C740 C738 1.561 . S
C741 C738 1.526 . S
C741 C742 1.396 . S
C741 C746 1.390 . S
C742 C736 1.465 . S
C742 C741 1.396 . S
C742 C743 1.399 . S
C743 H729 0.929 . S
C743 C742 1.399 . S
C743 C744 1.385 . S
C744 H730 0.931 . S
C744 C743 1.385 . S
C744 C745 1.389 . S
C745 C744 1.389 . S
C745 C746 1.387 . S
C746 H731 0.930 . S
C746 C741 1.390 . S
C746 C745 1.387 . S
H747 C759 0.930 . S
H748 C761 0.930 . S
H749 C762 0.930 . S
H750 C766 0.959 . S
H751 C766 0.959 . S
H752 C766 0.961 . S
H753 C767 0.960 . S
H754 C767 0.961 . S
H755 C767 0.959 . S
H756 C770 0.929 . S
H757 C771 0.931 . S
H758 C773 0.930 . S
C759 H747 0.930 . S
C759 C760 1.399 . S
C759 C764 1.399 . S
C760 C759 1.399 . S
C760 C761 1.376 . S
C761 H748 0.930 . S
C761 C760 1.376 . S
C761 C762 1.388 . S
C762 H749 0.930 . S
C762 C761 1.388 . S
C762 C763 1.390 . S
C763 C762 1.390 . S
C763 C764 1.394 . S
C763 C769 1.465 . S
C764 C759 1.399 . S
C764 C763 1.394 . S
C764 C765 1.516 . S
C765 C764 1.516 . S
C765 C766 1.502 . S
C765 C767 1.561 . S
C765 C768 1.526 . S
C766 H750 0.959 . S
C766 H751 0.959 . S
C766 H752 0.961 . S
C766 C765 1.502 . S
C767 H753 0.960 . S
C767 H754 0.961 . S
C767 H755 0.959 . S
C767 C765 1.561 . S
C768 C765 1.526 . S
C768 C769 1.396 . S
C768 C773 1.390 . S
C769 C763 1.465 . S
C769 C768 1.396 . S
C769 C770 1.399 . S
C770 H756 0.929 . S
C770 C769 1.399 . S
C770 C771 1.385 . S
C771 H757 0.931 . S
C771 C770 1.385 . S
C771 C772 1.389 . S
C772 C771 1.389 . S
C772 C773 1.387 . S
C773 H758 0.930 . S
C773 C768 1.390 . S
C773 C772 1.387 . S
H774 C786 0.930 . S
H775 C788 0.930 . S
H776 C789 0.930 . S
H777 C793 0.959 . S
H778 C793 0.959 . S
H779 C793 0.961 . S
H780 C794 0.960 . S
H781 C794 0.961 . S
H782 C794 0.959 . S
H783 C797 0.929 . S
H784 C798 0.931 . S
H785 C800 0.930 . S
C786 H774 0.930 . S
C786 C787 1.399 . S
C786 C791 1.399 . S
C787 C786 1.399 . S
C787 C788 1.376 . S
C788 H775 0.930 . S
C788 C787 1.376 . S
C788 C789 1.388 . S
C789 H776 0.930 . S
C789 C788 1.388 . S
C789 C790 1.390 . S
C790 C789 1.390 . S
C790 C791 1.394 . S
C790 C796 1.465 . S
C791 C786 1.399 . S
C791 C790 1.394 . S
C791 C792 1.516 . S
C792 C791 1.516 . S
C792 C793 1.502 . S
C792 C794 1.561 . S
C792 C795 1.526 . S
C793 H777 0.959 . S
C793 H778 0.959 . S
C793 H779 0.961 . S
C793 C792 1.502 . S
C794 H780 0.960 . S
C794 H781 0.961 . S
C794 H782 0.959 . S
C794 C792 1.561 . S
C795 C792 1.526 . S
C795 C796 1.396 . S
C795 C800 1.390 . S
C796 C790 1.465 . S
C796 C795 1.396 . S
C796 C797 1.399 . S
C797 H783 0.929 . S
C797 C796 1.399 . S
C797 C798 1.385 . S
C798 H784 0.931 . S
C798 C797 1.385 . S
C798 C799 1.389 . S
C799 C798 1.389 . S
C799 C800 1.387 . S
C800 H785 0.930 . S
C800 C795 1.390 . S
C800 C799 1.387 . S
H801 C813 0.930 . S
H802 C815 0.930 . S
H803 C816 0.930 . S
H804 C820 0.959 . S
H805 C820 0.959 . S
H806 C820 0.961 . S
H807 C821 0.960 . S
H808 C821 0.961 . S
H809 C821 0.959 . S
H810 C824 0.929 . S
H811 C825 0.931 . S
H812 C827 0.930 . S
C813 H801 0.930 . S
C813 C814 1.399 . S
C813 C818 1.399 . S
C814 C813 1.399 . S
C814 C815 1.376 . S
C815 H802 0.930 . S
C815 C814 1.376 . S
C815 C816 1.388 . S
C816 H803 0.930 . S
C816 C815 1.388 . S
C816 C817 1.390 . S
C817 C816 1.390 . S
C817 C818 1.394 . S
C817 C823 1.465 . S
C818 C813 1.399 . S
C818 C817 1.394 . S
C818 C819 1.516 . S
C819 C818 1.516 . S
C819 C820 1.502 . S
C819 C821 1.561 . S
C819 C822 1.526 . S
C820 H804 0.959 . S
C820 H805 0.959 . S
C820 H806 0.961 . S
C820 C819 1.502 . S
C821 H807 0.960 . S
C821 H808 0.961 . S
C821 H809 0.959 . S
C821 C819 1.561 . S
C822 C819 1.526 . S
C822 C823 1.396 . S
C822 C827 1.390 . S
C823 C817 1.465 . S
C823 C822 1.396 . S
C823 C824 1.399 . S
C824 H810 0.929 . S
C824 C823 1.399 . S
C824 C825 1.385 . S
C825 H811 0.931 . S
C825 C824 1.385 . S
C825 C826 1.389 . S
C826 C825 1.389 . S
C826 C827 1.387 . S
C827 H812 0.930 . S
C827 C822 1.390 . S
C827 C826 1.387 . S
H828 C840 0.930 . S
H829 C842 0.930 . S
H830 C843 0.930 . S
H831 C847 0.959 . S
H832 C847 0.959 . S
H833 C847 0.961 . S
H834 C848 0.960 . S
H835 C848 0.961 . S
H836 C848 0.959 . S
H837 C851 0.929 . S
H838 C852 0.931 . S
H839 C854 0.930 . S
C840 H828 0.930 . S
C840 C841 1.399 . S
C840 C845 1.399 . S
C841 C840 1.399 . S
C841 C842 1.376 . S
C842 H829 0.930 . S
C842 C841 1.376 . S
C842 C843 1.388 . S
C843 H830 0.930 . S
C843 C842 1.388 . S
C843 C844 1.390 . S
C844 C843 1.390 . S
C844 C845 1.394 . S
C844 C850 1.465 1_655 S
C845 C840 1.399 . S
C845 C844 1.394 . S
C845 C846 1.516 1_655 S
C846 C845 1.516 1_455 S
C846 C847 1.502 . S
C846 C848 1.561 . S
C846 C849 1.526 . S
C847 H831 0.959 . S
C847 H832 0.959 . S
C847 H833 0.961 . S
C847 C846 1.502 . S
C848 H834 0.960 . S
C848 H835 0.961 . S
C848 H836 0.959 . S
C848 C846 1.561 . S
C849 C846 1.526 . S
C849 C850 1.396 . S
C849 C854 1.390 . S
C850 C844 1.465 1_455 S
C850 C849 1.396 . S
C850 C851 1.399 1_455 S
C851 H837 0.929 . S
C851 C850 1.399 1_655 S
C851 C852 1.385 1_655 S
C852 H838 0.931 . S
C852 C851 1.385 1_455 S
C852 C853 1.389 . S
C853 C852 1.389 . S
C853 C854 1.387 . S
C854 H839 0.930 . S
C854 C849 1.390 . S
C854 C853 1.387 . S
H855 C867 0.930 . S
H856 C869 0.930 . S
H857 C870 0.930 . S
H858 C874 0.959 . S
H859 C874 0.959 . S
H860 C874 0.961 . S
H861 C875 0.960 . S
H862 C875 0.961 . S
H863 C875 0.959 . S
H864 C878 0.929 . S
H865 C879 0.931 . S
H866 C881 0.930 . S
C867 H855 0.930 . S
C867 C868 1.399 . S
C867 C872 1.399 . S
C868 C867 1.399 . S
C868 C869 1.376 . S
C869 H856 0.930 . S
C869 C868 1.376 . S
C869 C870 1.388 . S
C870 H857 0.930 . S
C870 C869 1.388 . S
C870 C871 1.390 . S
C871 C870 1.390 . S
C871 C872 1.394 . S
C871 C877 1.465 . S
C872 C867 1.399 . S
C872 C871 1.394 . S
C872 C873 1.516 . S
C873 C872 1.516 . S
C873 C874 1.502 . S
C873 C875 1.561 . S
C873 C876 1.526 . S
C874 H858 0.959 . S
C874 H859 0.959 . S
C874 H860 0.961 . S
C874 C873 1.502 . S
C875 H861 0.960 . S
C875 H862 0.961 . S
C875 H863 0.959 . S
C875 C873 1.561 . S
C876 C873 1.526 . S
C876 C877 1.396 . S
C876 C881 1.390 . S
C877 C871 1.465 . S
C877 C876 1.396 . S
C877 C878 1.399 . S
C878 H864 0.929 . S
C878 C877 1.399 . S
C878 C879 1.385 . S
C879 H865 0.931 . S
C879 C878 1.385 . S
C879 C880 1.389 . S
C880 C879 1.389 . S
C880 C881 1.387 . S
C881 H866 0.930 . S
C881 C876 1.390 . S
C881 C880 1.387 . S
H882 C894 0.930 . S
H883 C896 0.930 . S
H884 C897 0.930 . S
H885 C901 0.959 . S
H886 C901 0.959 . S
H887 C901 0.961 . S
H888 C902 0.960 . S
H889 C902 0.961 . S
H890 C902 0.959 . S
H891 C905 0.921 1_545 S
H892 C906 0.931 . S
H893 C908 0.930 . S
C894 H882 0.930 . S
C894 C895 1.399 . S
C894 C899 1.399 . S
C895 C894 1.399 . S
C895 C896 1.376 . S
C896 H883 0.930 . S
C896 C895 1.376 . S
C896 C897 1.388 . S
C897 H884 0.930 . S
C897 C896 1.388 . S
C897 C898 1.390 . S
C898 C897 1.390 . S
C898 C899 1.394 . S
C898 C904 1.465 1_545 S
C899 C894 1.399 . S
C899 C898 1.394 . S
C899 C900 1.516 1_545 S
C900 C899 1.516 1_565 S
C900 C901 1.502 . S
C900 C902 1.561 . S
C900 C903 1.526 . S
C901 H885 0.959 . S
C901 H886 0.959 . S
C901 H887 0.961 . S
C901 C900 1.502 . S
C902 H888 0.960 . S
C902 H889 0.961 . S
C902 H890 0.959 . S
C902 C900 1.561 . S
C903 C900 1.526 . S
C903 C904 1.396 . S
C903 C908 1.390 . S
C904 C898 1.465 1_565 S
C904 C903 1.396 . S
C904 C905 1.401 . S
C905 H891 0.921 1_565 S
C905 C904 1.401 . S
C905 C906 1.391 . S
C906 H892 0.931 . S
C906 C905 1.391 . S
C906 C907 1.389 . S
C907 C906 1.389 . S
C907 C908 1.387 . S
C908 H893 0.930 . S
C908 C903 1.390 . S
C908 C907 1.387 . S
H909 C921 0.930 . S
H910 C923 0.930 . S
H911 C924 0.917 1_554 S
H912 C928 0.959 1_554 S
H913 C928 0.959 . S
H914 C928 0.961 . S
H915 C929 0.960 . S
H916 C929 0.961 . S
H917 C929 0.959 . S
H918 C932 0.929 . S
H919 C933 0.931 . S
H920 C935 0.930 . S
C921 H909 0.930 . S
C921 C922 1.399 . S
C921 C926 1.399 . S
C922 C921 1.399 . S
C922 C923 1.376 . S
C923 H910 0.930 . S
C923 C922 1.376 . S
C923 C924 1.404 . S
C924 H911 0.917 1_556 S
C924 C923 1.404 . S
C924 C925 1.387 1_556 S
C925 C924 1.387 1_554 S
C925 C926 1.379 1_554 S
C925 C931 1.481 . S
C926 C921 1.399 . S
C926 C925 1.379 1_556 S
C926 C927 1.516 1_545 S
C927 C926 1.516 1_565 S
C927 C928 1.502 . S
C927 C929 1.561 . S
C927 C930 1.526 1_556 S
C928 H912 0.959 1_556 S
C928 H913 0.959 . S
C928 H914 0.961 . S
C928 C927 1.502 . S
C929 H915 0.960 . S
C929 H916 0.961 . S
C929 H917 0.959 . S
C929 C927 1.561 . S
C930 C927 1.526 1_554 S
C930 C931 1.396 1_565 S
C930 C935 1.390 . S
C931 C925 1.481 . S
C931 C930 1.396 1_545 S
C931 C932 1.399 . S
C932 H918 0.929 . S
C932 C931 1.399 . S
C932 C933 1.385 1_545 S
C933 H919 0.931 . S
C933 C932 1.385 1_565 S
C933 C934 1.389 . S
C934 C933 1.389 . S
C934 C935 1.387 . S
C935 H920 0.930 . S
C935 C930 1.390 . S
C935 C934 1.387 . S
H936 C948 0.930 . S
H937 C950 0.930 . S
H938 C951 0.930 . S
H939 C955 0.959 . S
H940 C955 0.959 . S
H941 C955 0.961 . S
H942 C956 0.960 . S
H943 C956 0.961 1_455 S
H944 C956 0.959 . S
H945 C959 0.929 1_655 S
H946 C960 0.931 . S
H947 C962 0.930 . S
C948 H936 0.930 . S
C948 C949 1.399 . S
C948 C953 1.399 . S
C949 C948 1.399 . S
C949 C950 1.376 . S
C950 H937 0.930 . S
C950 C949 1.376 . S
C950 C951 1.388 1_556 S
C951 H938 0.930 . S
C951 C950 1.388 1_554 S
C951 C952 1.390 . S
C952 C951 1.390 . S
C952 C953 1.394 1_554 S
C952 C958 1.474 . S
C953 C948 1.399 . S
C953 C952 1.394 1_556 S
C953 C954 1.516 1_655 S
C954 C953 1.516 1_455 S
C954 C955 1.502 . S
C954 C956 1.561 1_455 S
C954 C957 1.526 1_556 S
C955 H939 0.959 . S
C955 H940 0.959 . S
C955 H941 0.961 . S
C955 C954 1.502 . S
C956 H942 0.960 . S
C956 H943 0.961 1_655 S
C956 H944 0.959 . S
C956 C954 1.561 1_655 S
C957 C954 1.526 1_554 S
C957 C958 1.392 1_455 S
C957 C962 1.390 . S
C958 C952 1.474 . S
C958 C957 1.392 1_655 S
C958 C959 1.394 1_655 S
C959 H945 0.929 1_455 S
C959 C958 1.394 1_455 S
C959 C960 1.385 . S
C960 H946 0.931 . S
C960 C959 1.385 . S
C960 C961 1.389 . S
C961 C960 1.389 . S
C961 C962 1.387 . S
C962 H947 0.930 . S
C962 C957 1.390 . S
C962 C961 1.387 . S
H963 C975 0.930 . S
H964 C977 0.930 . S
H965 C978 0.936 . S
H966 C982 0.959 . S
H967 C982 0.959 . S
H968 C982 0.961 . S
H969 C983 0.960 . S
H970 C983 0.961 . S
H971 C983 0.959 . S
H972 C986 0.929 . S
H973 C987 0.931 . S
H974 C989 0.930 . S
C975 H963 0.930 . S
C975 C976 1.399 . S
C975 C980 1.399 . S
C976 C975 1.399 . S
C976 C977 1.376 . S
C977 H964 0.930 . S
C977 C976 1.376 . S
C977 C978 1.388 . S
C978 H965 0.936 . S
C978 C977 1.388 . S
C978 C979 1.385 1_556 S
C979 C978 1.385 1_554 S
C979 C980 1.388 1_554 S
C979 C985 1.475 . S
C980 C975 1.399 . S
C980 C979 1.388 1_556 S
C980 C981 1.516 1_556 S
C981 C980 1.516 1_554 S
C981 C982 1.502 1_554 S
C981 C983 1.561 . S
C981 C984 1.526 . S
C982 H966 0.959 . S
C982 H967 0.959 . S
C982 H968 0.961 . S
C982 C981 1.502 1_556 S
C983 H969 0.960 . S
C983 H970 0.961 . S
C983 H971 0.959 . S
C983 C981 1.561 . S
C984 C981 1.526 . S
C984 C985 1.396 . S
C984 C989 1.390 . S
C985 C979 1.475 . S
C985 C984 1.396 . S
C985 C986 1.399 . S
C986 H972 0.929 . S
C986 C985 1.399 . S
C986 C987 1.385 . S
C987 H973 0.931 . S
C987 C986 1.385 . S
C987 C988 1.389 . S
C988 C987 1.389 . S
C988 C989 1.387 . S
C989 H974 0.930 . S
C989 C984 1.390 . S
C989 C988 1.387 . S
H990 C1002 0.930 . S
H991 C1004 0.930 . S
H992 C1005 0.930 1_554 S
H993 C1009 0.959 . S
H994 C1009 0.959 . S
H995 C1009 0.961 . S
H996 C1010 0.960 . S
H997 C1010 0.961 . S
H998 C1010 0.959 . S
H999 C1013 0.929 . S
H1000 C1014 0.931 . S
H1001 C1016 0.930 . S
C1002 H990 0.930 . S
C1002 C1003 1.399 1_545 S
C1002 C1007 1.399 . S
C1003 C1002 1.399 1_565 S
C1003 C1004 1.376 . S
C1004 H991 0.930 . S
C1004 C1003 1.376 . S
C1004 C1005 1.388 1_565 S
C1005 H992 0.930 1_556 S
C1005 C1004 1.388 1_545 S
C1005 C1006 1.390 . S
C1006 C1005 1.390 . S
C1006 C1007 1.394 . S
C1006 C1012 1.448 1_556 S
C1007 C1002 1.399 . S
C1007 C1006 1.394 . S
C1007 C1008 1.516 . S
C1008 C1007 1.516 . S
C1008 C1009 1.502 . S
C1008 C1010 1.561 . S
C1008 C1011 1.526 . S
C1009 H993 0.959 . S
C1009 H994 0.959 . S
C1009 H995 0.961 . S
C1009 C1008 1.502 . S
C1010 H996 0.960 . S
C1010 H997 0.961 . S
C1010 H998 0.959 . S
C1010 C1008 1.561 . S
C1011 C1008 1.526 . S
C1011 C1012 1.371 1_556 S
C1011 C1016 1.390 . S
C1012 C1006 1.448 1_554 S
C1012 C1011 1.371 1_554 S
C1012 C1013 1.435 . S
C1013 H999 0.929 . S
C1013 C1012 1.435 . S
C1013 C1014 1.385 . S
C1014 H1000 0.931 . S
C1014 C1013 1.385 . S
C1014 C1015 1.389 . S
C1015 C1014 1.389 . S
C1015 C1016 1.387 1_554 S
C1016 H1001 0.930 . S
C1016 C1011 1.390 . S
C1016 C1015 1.387 1_556 S
H1017 C1029 0.930 . S
H1018 C1031 0.930 . S
H1019 C1032 0.930 1_554 S
H1020 C1036 0.959 . S
H1021 C1036 0.959 . S
H1022 C1036 0.961 . S
H1023 C1037 0.960 . S
H1024 C1037 0.961 . S
H1025 C1037 0.959 . S
H1026 C1040 0.929 . S
H1027 C1041 0.931 . S
H1028 C1043 0.930 . S
C1029 H1017 0.930 . S
C1029 C1030 1.399 1_655 S
C1029 C1034 1.399 . S
C1030 C1029 1.399 1_455 S
C1030 C1031 1.376 . S
C1031 H1018 0.930 . S
C1031 C1030 1.376 . S
C1031 C1032 1.388 1_455 S
C1032 H1019 0.930 1_556 S
C1032 C1031 1.388 1_655 S
C1032 C1033 1.390 . S
C1033 C1032 1.390 . S
C1033 C1034 1.394 . S
C1033 C1039 1.492 . S
C1034 C1029 1.399 . S
C1034 C1033 1.394 . S
C1034 C1035 1.516 . S
C1035 C1034 1.516 . S
C1035 C1036 1.502 . S
C1035 C1037 1.561 . S
C1035 C1038 1.526 . S
C1036 H1020 0.959 . S
C1036 H1021 0.959 . S
C1036 H1022 0.961 . S
C1036 C1035 1.502 . S
C1037 H1023 0.960 . S
C1037 H1024 0.961 . S
C1037 H1025 0.959 . S
C1037 C1035 1.561 . S
C1038 C1035 1.526 . S
C1038 C1039 1.427 . S
C1038 C1043 1.390 . S
C1039 C1033 1.492 . S
C1039 C1038 1.427 . S
C1039 C1040 1.350 1_556 S
C1040 H1026 0.929 . S
C1040 C1039 1.350 1_554 S
C1040 C1041 1.385 . S
C1041 H1027 0.931 . S
C1041 C1040 1.385 . S
C1041 C1042 1.389 . S
C1042 C1041 1.389 . S
C1042 C1043 1.387 1_554 S
C1043 H1028 0.930 . S
C1043 C1038 1.390 . S
C1043 C1042 1.387 1_556 S
H1044 C1056 0.930 . S
H1045 C1058 0.930 . S
H1046 C1059 0.930 . S
H1047 C1063 0.959 . S
H1048 C1063 0.959 . S
H1049 C1063 0.961 . S
H1050 C1064 0.960 . S
H1051 C1064 0.961 . S
H1052 C1064 0.959 . S
H1053 C1067 0.929 . S
H1054 C1068 0.931 . S
H1055 C1070 0.930 . S
C1056 H1044 0.930 . S
C1056 C1057 1.399 . S
C1056 C1061 1.399 . S
C1057 C1056 1.399 . S
C1057 C1058 1.376 . S
C1058 H1045 0.930 . S
C1058 C1057 1.376 . S
C1058 C1059 1.388 1_554 S
C1059 H1046 0.930 . S
C1059 C1058 1.388 1_556 S
C1059 C1060 1.390 . S
C1060 C1059 1.390 . S
C1060 C1061 1.394 1_556 S
C1060 C1066 1.465 . S
C1061 C1056 1.399 . S
C1061 C1060 1.394 1_554 S
C1061 C1062 1.516 1_554 S
C1062 C1061 1.516 1_556 S
C1062 C1063 1.499 1_556 S
C1062 C1064 1.563 . S
C1062 C1065 1.528 . S
C1063 H1047 0.959 . S
C1063 H1048 0.959 . S
C1063 H1049 0.961 . S
C1063 C1062 1.499 1_554 S
C1064 H1050 0.960 . S
C1064 H1051 0.961 . S
C1064 H1052 0.959 . S
C1064 C1062 1.563 . S
C1065 C1062 1.528 . S
C1065 C1066 1.396 . S
C1065 C1070 1.390 . S
C1066 C1060 1.465 . S
C1066 C1065 1.396 . S
C1066 C1067 1.399 . S
C1067 H1053 0.929 . S
C1067 C1066 1.399 . S
C1067 C1068 1.385 . S
C1068 H1054 0.931 . S
C1068 C1067 1.385 . S
C1068 C1069 1.389 . S
C1069 C1068 1.389 . S
C1069 C1070 1.387 . S
C1070 H1055 0.930 . S
C1070 C1065 1.390 . S
C1070 C1069 1.387 . S
H1071 C1083 0.931 1_655 S
H1072 C1085 0.930 . S
H1073 C1086 0.930 . S
H1074 C1090 0.959 . S
H1075 C1090 0.959 . S
H1076 C1090 0.961 . S
H1077 C1091 0.960 . S
H1078 C1091 0.961 . S
H1079 C1091 0.959 . S
H1080 C1094 0.929 . S
H1081 C1095 0.931 . S
H1082 C1097 0.930 . S
C1083 H1071 0.931 1_455 S
C1083 C1084 1.399 1_455 S
C1083 C1088 1.399 . S
C1084 C1083 1.399 1_655 S
C1084 C1085 1.376 1_655 S
C1085 H1072 0.930 . S
C1085 C1084 1.376 1_455 S
C1085 C1086 1.388 . S
C1086 H1073 0.930 . S
C1086 C1085 1.388 . S
C1086 C1087 1.390 . S
C1087 C1086 1.390 . S
C1087 C1088 1.394 . S
C1087 C1093 1.465 . S
C1088 C1083 1.399 . S
C1088 C1087 1.394 . S
C1088 C1089 1.516 . S
C1089 C1088 1.516 . S
C1089 C1090 1.502 . S
C1089 C1091 1.561 . S
C1089 C1092 1.526 . S
C1090 H1074 0.959 . S
C1090 H1075 0.959 . S
C1090 H1076 0.961 . S
C1090 C1089 1.502 . S
C1091 H1077 0.960 . S
C1091 H1078 0.961 . S
C1091 H1079 0.959 . S
C1091 C1089 1.561 . S
C1092 C1089 1.526 . S
C1092 C1093 1.396 . S
C1092 C1097 1.390 . S
C1093 C1087 1.465 . S
C1093 C1092 1.396 . S
C1093 C1094 1.399 . S
C1094 H1080 0.929 . S
C1094 C1093 1.399 . S
C1094 C1095 1.385 . S
C1095 H1081 0.931 . S
C1095 C1094 1.385 . S
C1095 C1096 1.389 . S
C1096 C1095 1.389 . S
C1096 C1097 1.387 . S
C1097 H1082 0.930 . S
C1097 C1092 1.390 . S
C1097 C1096 1.387 . S
H1098 C1110 0.930 . S
H1099 C1112 0.930 . S
H1100 C1113 0.930 . S
H1101 C1117 0.959 . S
H1102 C1117 0.959 . S
H1103 C1117 0.961 . S
H1104 C1118 0.960 . S
H1105 C1118 0.961 . S
H1106 C1118 0.959 . S
H1107 C1121 0.929 . S
H1108 C1122 0.931 . S
H1109 C1124 0.930 . S
C1110 H1098 0.930 . S
C1110 C1111 1.399 . S
C1110 C1115 1.399 . S
C1111 C1110 1.399 . S
C1111 C1112 1.376 . S
C1112 H1099 0.930 . S
C1112 C1111 1.376 . S
C1112 C1113 1.388 . S
C1113 H1100 0.930 . S
C1113 C1112 1.388 . S
C1113 C1114 1.390 . S
C1114 C1113 1.390 . S
C1114 C1115 1.394 . S
C1114 C1120 1.465 . S
C1115 C1110 1.399 . S
C1115 C1114 1.394 . S
C1115 C1116 1.516 . S
C1116 C1115 1.516 . S
C1116 C1117 1.502 . S
C1116 C1118 1.561 . S
C1116 C1119 1.526 . S
C1117 H1101 0.959 . S
C1117 H1102 0.959 . S
C1117 H1103 0.961 . S
C1117 C1116 1.502 . S
C1118 H1104 0.960 . S
C1118 H1105 0.961 . S
C1118 H1106 0.959 . S
C1118 C1116 1.561 . S
C1119 C1116 1.526 . S
C1119 C1120 1.396 . S
C1119 C1124 1.390 . S
C1120 C1114 1.465 . S
C1120 C1119 1.396 . S
C1120 C1121 1.399 . S
C1121 H1107 0.929 . S
C1121 C1120 1.399 . S
C1121 C1122 1.385 . S
C1122 H1108 0.931 . S
C1122 C1121 1.385 . S
C1122 C1123 1.389 . S
C1123 C1122 1.389 . S
C1123 C1124 1.387 . S
C1124 H1109 0.930 . S
C1124 C1119 1.390 . S
C1124 C1123 1.387 . S
H1125 C1137 0.930 . S
H1126 C1139 0.930 . S
H1127 C1140 0.930 . S
H1128 C1144 0.959 . S
H1129 C1144 0.959 . S
H1130 C1144 0.961 . S
H1131 C1145 0.960 . S
H1132 C1145 0.961 . S
H1133 C1145 0.959 . S
H1134 C1148 0.929 . S
H1135 C1149 0.931 . S
H1136 C1151 0.930 . S
C1137 H1125 0.930 . S
C1137 C1138 1.399 1_565 S
C1137 C1142 1.399 . S
C1138 C1137 1.399 1_545 S
C1138 C1139 1.376 . S
C1139 H1126 0.930 . S
C1139 C1138 1.376 . S
C1139 C1140 1.388 1_545 S
C1140 H1127 0.930 . S
C1140 C1139 1.388 1_565 S
C1140 C1141 1.390 . S
C1141 C1140 1.390 . S
C1141 C1142 1.394 . S
C1141 C1147 1.465 . S
C1142 C1137 1.399 . S
C1142 C1141 1.394 . S
C1142 C1143 1.516 . S
C1143 C1142 1.516 . S
C1143 C1144 1.502 . S
C1143 C1145 1.561 . S
C1143 C1146 1.526 . S
C1144 H1128 0.959 . S
C1144 H1129 0.959 . S
C1144 H1130 0.961 . S
C1144 C1143 1.502 . S
C1145 H1131 0.960 . S
C1145 H1132 0.961 . S
C1145 H1133 0.959 . S
C1145 C1143 1.561 . S
C1146 C1143 1.526 . S
C1146 C1147 1.396 . S
C1146 C1151 1.390 . S
C1147 C1141 1.465 . S
C1147 C1146 1.396 . S
C1147 C1148 1.399 . S
C1148 H1134 0.929 . S
C1148 C1147 1.399 . S
C1148 C1149 1.385 . S
C1149 H1135 0.931 . S
C1149 C1148 1.385 . S
C1149 C1150 1.389 . S
C1150 C1149 1.389 . S
C1150 C1151 1.387 . S
C1151 H1136 0.930 . S
C1151 C1146 1.390 . S
C1151 C1150 1.387 . S
H1152 C1164 0.930 1_554 S
H1153 C1166 0.930 . S
H1154 C1167 0.930 . S
H1155 C1171 0.959 . S
H1156 C1171 0.959 . S
H1157 C1171 0.961 . S
H1158 C1172 0.960 . S
H1159 C1172 0.961 . S
H1160 C1172 0.959 . S
H1161 C1175 0.929 . S
H1162 C1176 0.931 . S
H1163 C1178 0.930 . S
C1164 H1152 0.930 1_556 S
C1164 C1165 1.399 . S
C1164 C1169 1.399 1_556 S
C1165 C1164 1.399 . S
C1165 C1166 1.376 . S
C1166 H1153 0.930 . S
C1166 C1165 1.376 . S
C1166 C1167 1.388 . S
C1167 H1154 0.930 . S
C1167 C1166 1.388 . S
C1167 C1168 1.390 . S
C1168 C1167 1.390 . S
C1168 C1169 1.394 1_556 S
C1168 C1174 1.453 1_556 S
C1169 C1164 1.399 1_554 S
C1169 C1168 1.394 1_554 S
C1169 C1170 1.516 . S
C1170 C1169 1.516 . S
C1170 C1171 1.502 . S
C1170 C1172 1.561 . S
C1170 C1173 1.526 . S
C1171 H1155 0.959 . S
C1171 H1156 0.959 . S
C1171 H1157 0.961 . S
C1171 C1170 1.502 . S
C1172 H1158 0.960 . S
C1172 H1159 0.961 . S
C1172 H1160 0.959 . S
C1172 C1170 1.561 . S
C1173 C1170 1.526 . S
C1173 C1174 1.421 . S
C1173 C1178 1.390 . S
C1174 C1168 1.453 1_554 S
C1174 C1173 1.421 . S
C1174 C1175 1.390 1_554 S
C1175 H1161 0.929 . S
C1175 C1174 1.390 1_556 S
C1175 C1176 1.385 1_566 S
C1176 H1162 0.931 . S
C1176 C1175 1.385 1_544 S
C1176 C1177 1.389 . S
C1177 C1176 1.389 . S
C1177 C1178 1.387 1_545 S
C1178 H1163 0.930 . S
C1178 C1173 1.390 . S
C1178 C1177 1.387 1_565 S
H1179 C1191 0.930 1_554 S
H1180 C1193 0.930 . S
H1181 C1194 0.930 . S
H1182 C1198 0.959 . S
H1183 C1198 0.959 . S
H1184 C1198 0.961 . S
H1185 C1199 0.960 . S
H1186 C1199 0.961 . S
H1187 C1199 0.959 . S
H1188 C1202 0.933 . S
H1189 C1203 0.931 . S
H1190 C1205 0.930 . S
C1191 H1179 0.930 1_556 S
C1191 C1192 1.399 . S
C1191 C1196 1.399 1_556 S
C1192 C1191 1.399 . S
C1192 C1193 1.376 . S
C1193 H1180 0.930 . S
C1193 C1192 1.376 . S
C1193 C1194 1.388 . S
C1194 H1181 0.930 . S
C1194 C1193 1.388 . S
C1194 C1195 1.390 . S
C1195 C1194 1.390 . S
C1195 C1196 1.394 1_556 S
C1195 C1201 1.465 1_556 S
C1196 C1191 1.399 1_554 S
C1196 C1195 1.394 1_554 S
C1196 C1197 1.516 . S
C1197 C1196 1.516 . S
C1197 C1198 1.502 . S
C1197 C1199 1.561 . S
C1197 C1200 1.526 . S
C1198 H1182 0.959 . S
C1198 H1183 0.959 . S
C1198 H1184 0.961 . S
C1198 C1197 1.502 . S
C1199 H1185 0.960 . S
C1199 H1186 0.961 . S
C1199 H1187 0.959 . S
C1199 C1197 1.561 . S
C1200 C1197 1.526 . S
C1200 C1201 1.396 . S
C1200 C1205 1.390 . S
C1201 C1195 1.465 1_554 S
C1201 C1200 1.396 . S
C1201 C1202 1.399 1_554 S
C1202 H1188 0.933 . S
C1202 C1201 1.399 1_556 S
C1202 C1203 1.385 1_456 S
C1203 H1189 0.931 . S
C1203 C1202 1.385 1_654 S
C1203 C1204 1.389 . S
C1204 C1203 1.389 . S
C1204 C1205 1.387 1_655 S
C1205 H1190 0.930 . S
C1205 C1200 1.390 . S
C1205 C1204 1.387 1_455 S
H1206 C1218 0.930 1_554 S
H1207 C1220 0.930 . S
H1208 C1221 0.930 . S
H1209 C1225 0.959 . S
H1210 C1225 0.959 . S
H1211 C1225 0.961 . S
H1212 C1226 0.960 . S
H1213 C1226 0.961 . S
H1214 C1226 0.959 . S
H1215 C1229 0.929 . S
H1216 C1230 0.931 1_556 S
H1217 C1232 0.930 . S
C1218 H1206 0.930 1_556 S
C1218 C1219 1.399 . S
C1218 C1223 1.399 . S
C1219 C1218 1.399 . S
C1219 C1220 1.376 . S
C1220 H1207 0.930 . S
C1220 C1219 1.376 . S
C1220 C1221 1.388 . S
C1221 H1208 0.930 . S
C1221 C1220 1.388 . S
C1221 C1222 1.390 . S
C1222 C1221 1.390 . S
C1222 C1223 1.394 . S
C1222 C1228 1.465 . S
C1223 C1218 1.399 . S
C1223 C1222 1.394 . S
C1223 C1224 1.516 1_556 S
C1224 C1223 1.516 1_554 S
C1224 C1225 1.502 . S
C1224 C1226 1.561 . S
C1224 C1227 1.526 . S
C1225 H1209 0.959 . S
C1225 H1210 0.959 . S
C1225 H1211 0.961 . S
C1225 C1224 1.502 . S
C1226 H1212 0.960 . S
C1226 H1213 0.961 . S
C1226 H1214 0.959 . S
C1226 C1224 1.561 . S
C1227 C1224 1.526 . S
C1227 C1228 1.396 1_554 S
C1227 C1232 1.390 . S
C1228 C1222 1.465 . S
C1228 C1227 1.396 1_556 S
C1228 C1229 1.399 . S
C1229 H1215 0.929 . S
C1229 C1228 1.399 . S
C1229 C1230 1.385 1_556 S
C1230 H1216 0.931 1_554 S
C1230 C1229 1.385 1_554 S
C1230 C1231 1.389 . S
C1231 C1230 1.389 . S
C1231 C1232 1.387 . S
C1232 H1217 0.930 . S
C1232 C1227 1.390 . S
C1232 C1231 1.387 . S
H1233 C1245 0.930 . S
H1234 C1247 0.930 . S
H1235 C1248 0.930 . S
H1236 C1252 0.959 . S
H1237 C1252 0.959 . S
H1238 C1252 0.961 . S
H1239 C1253 0.960 . S
H1240 C1253 0.961 . S
H1241 C1253 0.959 . S
H1242 C1256 0.929 . S
H1243 C1257 0.931 . S
H1244 C1259 0.930 . S
C1245 H1233 0.930 . S
C1245 C1246 1.399 . S
C1245 C1250 1.399 . S
C1246 C1245 1.399 . S
C1246 C1247 1.376 . S
C1247 H1234 0.930 . S
C1247 C1246 1.376 . S
C1247 C1248 1.388 . S
C1248 H1235 0.930 . S
C1248 C1247 1.388 . S
C1248 C1249 1.390 . S
C1249 C1248 1.390 . S
C1249 C1250 1.394 . S
C1249 C1255 1.465 . S
C1250 C1245 1.399 . S
C1250 C1249 1.394 . S
C1250 C1251 1.516 . S
C1251 C1250 1.516 . S
C1251 C1252 1.502 . S
C1251 C1253 1.561 . S
C1251 C1254 1.526 . S
C1252 H1236 0.959 . S
C1252 H1237 0.959 . S
C1252 H1238 0.961 . S
C1252 C1251 1.502 . S
C1253 H1239 0.960 . S
C1253 H1240 0.961 . S
C1253 H1241 0.959 . S
C1253 C1251 1.561 . S
C1254 C1251 1.526 . S
C1254 C1255 1.396 . S
C1254 C1259 1.390 . S
C1255 C1249 1.465 . S
C1255 C1254 1.396 . S
C1255 C1256 1.399 . S
C1256 H1242 0.929 . S
C1256 C1255 1.399 . S
C1256 C1257 1.385 1_655 S
C1257 H1243 0.931 . S
C1257 C1256 1.385 1_455 S
C1257 C1258 1.389 . S
C1258 C1257 1.389 . S
C1258 C1259 1.387 1_455 S
C1259 H1244 0.930 . S
C1259 C1254 1.390 . S
C1259 C1258 1.387 1_655 S
H1260 C1272 0.930 . S
H1261 C1274 0.930 . S
H1262 C1275 0.930 . S
H1263 C1279 0.959 . S
H1264 C1279 0.959 . S
H1265 C1279 0.961 . S
H1266 C1280 0.960 . S
H1267 C1280 0.961 . S
H1268 C1280 0.959 . S
H1269 C1283 0.929 . S
H1270 C1284 0.931 . S
H1271 C1286 0.930 . S
C1272 H1260 0.930 . S
C1272 C1273 1.399 . S
C1272 C1277 1.399 . S
C1273 C1272 1.399 . S
C1273 C1274 1.376 . S
C1274 H1261 0.930 . S
C1274 C1273 1.376 . S
C1274 C1275 1.388 . S
C1275 H1262 0.930 . S
C1275 C1274 1.388 . S
C1275 C1276 1.390 . S
C1276 C1275 1.390 . S
C1276 C1277 1.394 . S
C1276 C1282 1.465 . S
C1277 C1272 1.399 . S
C1277 C1276 1.394 . S
C1277 C1278 1.516 . S
C1278 C1277 1.516 . S
C1278 C1279 1.502 . S
C1278 C1280 1.561 . S
C1278 C1281 1.526 . S
C1279 H1263 0.959 . S
C1279 H1264 0.959 . S
C1279 H1265 0.961 . S
C1279 C1278 1.502 . S
C1280 H1266 0.960 . S
C1280 H1267 0.961 . S
C1280 H1268 0.959 . S
C1280 C1278 1.561 . S
C1281 C1278 1.526 . S
C1281 C1282 1.396 . S
C1281 C1286 1.390 . S
C1282 C1276 1.465 . S
C1282 C1281 1.396 . S
C1282 C1283 1.399 . S
C1283 H1269 0.929 . S
C1283 C1282 1.399 . S
C1283 C1284 1.385 . S
C1284 H1270 0.931 . S
C1284 C1283 1.385 . S
C1284 C1285 1.389 . S
C1285 C1284 1.389 . S
C1285 C1286 1.387 . S
C1286 H1271 0.930 . S
C1286 C1281 1.390 . S
C1286 C1285 1.387 . S
H1287 C1299 0.930 . S
H1288 C1301 0.930 . S
H1289 C1302 0.930 . S
H1290 C1306 0.959 . S
H1291 C1306 0.959 . S
H1292 C1306 0.961 . S
H1293 C1307 0.960 . S
H1294 C1307 0.961 . S
H1295 C1307 0.959 . S
H1296 C1310 0.929 . S
H1297 C1311 0.931 . S
H1298 C1313 0.930 . S
C1299 H1287 0.930 . S
C1299 C1300 1.399 1_545 S
C1299 C1304 1.399 . S
C1300 C1299 1.399 1_565 S
C1300 C1301 1.376 . S
C1301 H1288 0.930 . S
C1301 C1300 1.376 . S
C1301 C1302 1.388 1_565 S
C1302 H1289 0.930 . S
C1302 C1301 1.388 1_545 S
C1302 C1303 1.390 . S
C1303 C1302 1.390 . S
C1303 C1304 1.394 . S
C1303 C1309 1.465 . S
C1304 C1299 1.399 . S
C1304 C1303 1.394 . S
C1304 C1305 1.516 . S
C1305 C1304 1.516 . S
C1305 C1306 1.502 . S
C1305 C1307 1.561 . S
C1305 C1308 1.526 . S
C1306 H1290 0.959 . S
C1306 H1291 0.959 . S
C1306 H1292 0.961 . S
C1306 C1305 1.502 . S
C1307 H1293 0.960 . S
C1307 H1294 0.961 . S
C1307 H1295 0.959 . S
C1307 C1305 1.561 . S
C1308 C1305 1.526 . S
C1308 C1309 1.396 . S
C1308 C1313 1.390 . S
C1309 C1303 1.465 . S
C1309 C1308 1.396 . S
C1309 C1310 1.399 . S
C1310 H1296 0.929 . S
C1310 C1309 1.399 . S
C1310 C1311 1.385 . S
C1311 H1297 0.931 . S
C1311 C1310 1.385 . S
C1311 C1312 1.389 . S
C1312 C1311 1.389 . S
C1312 C1313 1.387 . S
C1313 H1298 0.930 . S
C1313 C1308 1.390 . S
C1313 C1312 1.387 . S
H1314 C1326 0.930 . S
H1315 C1328 0.930 . S
H1316 C1329 0.930 . S
H1317 C1333 0.959 . S
H1318 C1333 0.959 . S
H1319 C1333 0.961 . S
H1320 C1334 0.960 . S
H1321 C1334 0.961 . S
H1322 C1334 0.959 . S
H1323 C1337 0.929 . S
H1324 C1338 0.931 . S
H1325 C1340 0.930 . S
C1326 H1314 0.930 . S
C1326 C1327 1.399 . S
C1326 C1331 1.399 . S
C1327 C1326 1.399 . S
C1327 C1328 1.376 . S
C1328 H1315 0.930 . S
C1328 C1327 1.376 . S
C1328 C1329 1.388 . S
C1329 H1316 0.930 . S
C1329 C1328 1.388 . S
C1329 C1330 1.390 . S
C1330 C1329 1.390 . S
C1330 C1331 1.394 . S
C1330 C1336 1.465 . S
C1331 C1326 1.399 . S
C1331 C1330 1.394 . S
C1331 C1332 1.516 . S
C1332 C1331 1.516 . S
C1332 C1333 1.502 . S
C1332 C1334 1.561 . S
C1332 C1335 1.526 . S
C1333 H1317 0.959 . S
C1333 H1318 0.959 . S
C1333 H1319 0.961 . S
C1333 C1332 1.502 . S
C1334 H1320 0.960 . S
C1334 H1321 0.961 . S
C1334 H1322 0.959 . S
C1334 C1332 1.561 . S
C1335 C1332 1.526 . S
C1335 C1336 1.396 . S
C1335 C1340 1.390 . S
C1336 C1330 1.465 . S
C1336 C1335 1.396 . S
C1336 C1337 1.399 . S
C1337 H1323 0.929 . S
C1337 C1336 1.399 . S
C1337 C1338 1.385 . S
C1338 H1324 0.931 . S
C1338 C1337 1.385 . S
C1338 C1339 1.389 . S
C1339 C1338 1.389 . S
C1339 C1340 1.387 . S
C1340 H1325 0.930 . S
C1340 C1335 1.390 . S
C1340 C1339 1.387 . S
H1341 C1353 0.930 . S
H1342 C1355 0.930 . S
H1343 C1356 0.930 . S
H1344 C1360 0.959 . S
H1345 C1360 0.959 . S
H1346 C1360 0.961 . S
H1347 C1361 0.960 . S
H1348 C1361 0.961 . S
H1349 C1361 0.959 . S
H1350 C1364 0.929 . S
H1351 C1365 0.931 . S
H1352 C1367 0.930 . S
C1353 H1341 0.930 . S
C1353 C1354 1.399 . S
C1353 C1358 1.399 . S
C1354 C1353 1.399 . S
C1354 C1355 1.376 . S
C1355 H1342 0.930 . S
C1355 C1354 1.376 . S
C1355 C1356 1.388 . S
C1356 H1343 0.930 . S
C1356 C1355 1.388 . S
C1356 C1357 1.390 . S
C1357 C1356 1.390 . S
C1357 C1358 1.394 . S
C1357 C1363 1.465 . S
C1358 C1353 1.399 . S
C1358 C1357 1.394 . S
C1358 C1359 1.516 . S
C1359 C1358 1.516 . S
C1359 C1360 1.502 . S
C1359 C1361 1.561 . S
C1359 C1362 1.526 . S
C1360 H1344 0.959 . S
C1360 H1345 0.959 . S
C1360 H1346 0.961 . S
C1360 C1359 1.502 . S
C1361 H1347 0.960 . S
C1361 H1348 0.961 . S
C1361 H1349 0.959 . S
C1361 C1359 1.561 . S
C1362 C1359 1.526 . S
C1362 C1363 1.396 . S
C1362 C1367 1.390 . S
C1363 C1357 1.465 . S
C1363 C1362 1.396 . S
C1363 C1364 1.399 . S
C1364 H1350 0.929 . S
C1364 C1363 1.399 . S
C1364 C1365 1.385 . S
C1365 H1351 0.931 . S
C1365 C1364 1.385 . S
C1365 C1366 1.389 . S
C1366 C1365 1.389 . S
C1366 C1367 1.387 . S
C1367 H1352 0.930 . S
C1367 C1362 1.390 . S
C1367 C1366 1.387 . S
H1368 C1380 0.930 . S
H1369 C1382 0.930 . S
H1370 C1383 0.930 . S
H1371 C1387 0.959 . S
H1372 C1387 0.959 . S
H1373 C1387 0.961 . S
H1374 C1388 0.960 . S
H1375 C1388 0.961 . S
H1376 C1388 0.959 . S
H1377 C1391 0.929 . S
H1378 C1392 0.931 . S
H1379 C1394 0.930 . S
C1380 H1368 0.930 . S
C1380 C1381 1.399 . S
C1380 C1385 1.399 . S
C1381 C1380 1.399 . S
C1381 C1382 1.376 . S
C1382 H1369 0.930 . S
C1382 C1381 1.376 . S
C1382 C1383 1.388 . S
C1383 H1370 0.930 . S
C1383 C1382 1.388 . S
C1383 C1384 1.390 . S
C1384 C1383 1.390 . S
C1384 C1385 1.394 . S
C1384 C1390 1.465 . S
C1385 C1380 1.399 . S
C1385 C1384 1.394 . S
C1385 C1386 1.516 . S
C1386 C1385 1.516 . S
C1386 C1387 1.502 . S
C1386 C1388 1.561 . S
C1386 C1389 1.526 . S
C1387 H1371 0.959 . S
C1387 H1372 0.959 . S
C1387 H1373 0.961 . S
C1387 C1386 1.502 . S
C1388 H1374 0.960 . S
C1388 H1375 0.961 . S
C1388 H1376 0.959 . S
C1388 C1386 1.561 . S
C1389 C1386 1.526 . S
C1389 C1390 1.396 . S
C1389 C1394 1.390 . S
C1390 C1384 1.465 . S
C1390 C1389 1.396 . S
C1390 C1391 1.399 . S
C1391 H1377 0.929 . S
C1391 C1390 1.399 . S
C1391 C1392 1.385 . S
C1392 H1378 0.931 . S
C1392 C1391 1.385 . S
C1392 C1393 1.389 . S
C1393 C1392 1.389 . S
C1393 C1394 1.387 . S
C1394 H1379 0.930 . S
C1394 C1389 1.390 . S
C1394 C1393 1.387 . S
H1395 C1407 0.930 . S
H1396 C1409 0.930 . S
H1397 C1410 0.930 . S
H1398 C1414 0.959 . S
H1399 C1414 0.959 . S
H1400 C1414 0.961 . S
H1401 C1415 0.960 . S
H1402 C1415 0.961 . S
H1403 C1415 0.959 . S
H1404 C1418 0.929 . S
H1405 C1419 0.931 . S
H1406 C1421 0.930 . S
C1407 H1395 0.930 . S
C1407 C1408 1.399 . S
C1407 C1412 1.399 . S
C1408 C1407 1.399 . S
C1408 C1409 1.376 . S
C1409 H1396 0.930 . S
C1409 C1408 1.376 . S
C1409 C1410 1.388 . S
C1410 H1397 0.930 . S
C1410 C1409 1.388 . S
C1410 C1411 1.390 . S
C1411 C1410 1.390 . S
C1411 C1412 1.394 . S
C1411 C1417 1.465 . S
C1412 C1407 1.399 . S
C1412 C1411 1.394 . S
C1412 C1413 1.516 . S
C1413 C1412 1.516 . S
C1413 C1414 1.502 . S
C1413 C1415 1.561 . S
C1413 C1416 1.526 . S
C1414 H1398 0.959 . S
C1414 H1399 0.959 . S
C1414 H1400 0.961 . S
C1414 C1413 1.502 . S
C1415 H1401 0.960 . S
C1415 H1402 0.961 . S
C1415 H1403 0.959 . S
C1415 C1413 1.561 . S
C1416 C1413 1.526 . S
C1416 C1417 1.396 . S
C1416 C1421 1.390 . S
C1417 C1411 1.465 . S
C1417 C1416 1.396 . S
C1417 C1418 1.399 . S
C1418 H1404 0.929 . S
C1418 C1417 1.399 . S
C1418 C1419 1.385 . S
C1419 H1405 0.931 . S
C1419 C1418 1.385 . S
C1419 C1420 1.389 . S
C1420 C1419 1.389 . S
C1420 C1421 1.387 . S
C1421 H1406 0.930 . S
C1421 C1416 1.390 . S
C1421 C1420 1.387 . S
H1422 C1434 0.930 . S
H1423 C1436 0.930 . S
H1424 C1437 0.930 . S
H1425 C1441 0.959 . S
H1426 C1441 0.959 . S
H1427 C1441 0.961 . S
H1428 C1442 0.960 . S
H1429 C1442 0.961 . S
H1430 C1442 0.959 . S
H1431 C1445 0.929 . S
H1432 C1446 0.931 . S
H1433 C1448 0.930 . S
C1434 H1422 0.930 . S
C1434 C1435 1.399 . S
C1434 C1439 1.399 . S
C1435 C1434 1.399 . S
C1435 C1436 1.376 . S
C1436 H1423 0.930 . S
C1436 C1435 1.376 . S
C1436 C1437 1.388 . S
C1437 H1424 0.930 . S
C1437 C1436 1.388 . S
C1437 C1438 1.390 . S
C1438 C1437 1.390 . S
C1438 C1439 1.394 . S
C1438 C1444 1.465 . S
C1439 C1434 1.399 . S
C1439 C1438 1.394 . S
C1439 C1440 1.516 . S
C1440 C1439 1.516 . S
C1440 C1441 1.502 . S
C1440 C1442 1.561 . S
C1440 C1443 1.526 . S
C1441 H1425 0.959 . S
C1441 H1426 0.959 . S
C1441 H1427 0.961 . S
C1441 C1440 1.502 . S
C1442 H1428 0.960 . S
C1442 H1429 0.961 . S
C1442 H1430 0.959 . S
C1442 C1440 1.561 . S
C1443 C1440 1.526 . S
C1443 C1444 1.396 . S
C1443 C1448 1.390 . S
C1444 C1438 1.465 . S
C1444 C1443 1.396 . S
C1444 C1445 1.399 . S
C1445 H1431 0.929 . S
C1445 C1444 1.399 . S
C1445 C1446 1.385 . S
C1446 H1432 0.931 . S
C1446 C1445 1.385 . S
C1446 C1447 1.389 . S
C1447 C1446 1.389 . S
C1447 C1448 1.387 . S
C1448 H1433 0.930 . S
C1448 C1443 1.390 . S
C1448 C1447 1.387 . S
H1449 C1461 0.930 . S
H1450 C1463 0.930 . S
H1451 C1464 0.930 . S
H1452 C1468 0.959 . S
H1453 C1468 0.959 . S
H1454 C1468 0.961 . S
H1455 C1469 0.960 . S
H1456 C1469 0.961 . S
H1457 C1469 0.959 . S
H1458 C1472 0.929 . S
H1459 C1473 0.931 . S
H1460 C1475 0.930 . S
C1461 H1449 0.930 . S
C1461 C1462 1.399 . S
C1461 C1466 1.399 . S
C1462 C1461 1.399 . S
C1462 C1463 1.376 . S
C1463 H1450 0.930 . S
C1463 C1462 1.376 . S
C1463 C1464 1.388 . S
C1464 H1451 0.930 . S
C1464 C1463 1.388 . S
C1464 C1465 1.390 . S
C1465 C1464 1.390 . S
C1465 C1466 1.394 . S
C1465 C1471 1.465 . S
C1466 C1461 1.399 . S
C1466 C1465 1.394 . S
C1466 C1467 1.516 . S
C1467 C1466 1.516 . S
C1467 C1468 1.502 . S
C1467 C1469 1.561 . S
C1467 C1470 1.526 . S
C1468 H1452 0.959 . S
C1468 H1453 0.959 . S
C1468 H1454 0.961 . S
C1468 C1467 1.502 . S
C1469 H1455 0.960 . S
C1469 H1456 0.961 . S
C1469 H1457 0.959 . S
C1469 C1467 1.561 . S
C1470 C1467 1.526 . S
C1470 C1471 1.396 . S
C1470 C1475 1.390 . S
C1471 C1465 1.465 . S
C1471 C1470 1.396 . S
C1471 C1472 1.399 . S
C1472 H1458 0.929 . S
C1472 C1471 1.399 . S
C1472 C1473 1.385 . S
C1473 H1459 0.931 . S
C1473 C1472 1.385 . S
C1473 C1474 1.389 . S
C1474 C1473 1.389 . S
C1474 C1475 1.387 . S
C1475 H1460 0.930 . S
C1475 C1470 1.390 . S
C1475 C1474 1.387 . S
H1476 C1488 0.930 . S
H1477 C1490 0.930 . S
H1478 C1491 0.930 . S
H1479 C1495 0.959 . S
H1480 C1495 0.959 . S
H1481 C1495 0.961 . S
H1482 C1496 0.960 . S
H1483 C1496 0.961 . S
H1484 C1496 0.959 . S
H1485 C1499 0.929 . S
H1486 C1500 0.931 . S
H1487 C1502 0.930 . S
C1488 H1476 0.930 . S
C1488 C1489 1.399 . S
C1488 C1493 1.399 . S
C1489 C1488 1.399 . S
C1489 C1490 1.376 . S
C1490 H1477 0.930 . S
C1490 C1489 1.376 . S
C1490 C1491 1.388 . S
C1491 H1478 0.930 . S
C1491 C1490 1.388 . S
C1491 C1492 1.390 . S
C1492 C1491 1.390 . S
C1492 C1493 1.394 . S
C1492 C1498 1.465 . S
C1493 C1488 1.399 . S
C1493 C1492 1.394 . S
C1493 C1494 1.516 . S
C1494 C1493 1.516 . S
C1494 C1495 1.502 . S
C1494 C1496 1.561 . S
C1494 C1497 1.526 . S
C1495 H1479 0.959 . S
C1495 H1480 0.959 . S
C1495 H1481 0.961 . S
C1495 C1494 1.502 . S
C1496 H1482 0.960 . S
C1496 H1483 0.961 . S
C1496 H1484 0.959 . S
C1496 C1494 1.561 . S
C1497 C1494 1.526 . S
C1497 C1498 1.396 . S
C1497 C1502 1.390 . S
C1498 C1492 1.465 . S
C1498 C1497 1.396 . S
C1498 C1499 1.399 . S
C1499 H1485 0.929 . S
C1499 C1498 1.399 . S
C1499 C1500 1.385 . S
C1500 H1486 0.931 . S
C1500 C1499 1.385 . S
C1500 C1501 1.389 . S
C1501 C1500 1.389 . S
C1501 C1502 1.387 . S
C1502 H1487 0.930 . S
C1502 C1497 1.390 . S
C1502 C1501 1.387 . S
H1503 C1515 0.930 . S
H1504 C1517 0.930 . S
H1505 C1518 0.930 . S
H1506 C1522 0.959 . S
H1507 C1522 0.959 . S
H1508 C1522 0.961 . S
H1509 C1523 0.960 . S
H1510 C1523 0.961 . S
H1511 C1523 0.959 . S
H1512 C1526 0.929 . S
H1513 C1527 0.931 . S
H1514 C1529 0.930 . S
C1515 H1503 0.930 . S
C1515 C1516 1.399 . S
C1515 C1520 1.399 . S
C1516 C1515 1.399 . S
C1516 C1517 1.376 . S
C1517 H1504 0.930 . S
C1517 C1516 1.376 . S
C1517 C1518 1.388 . S
C1518 H1505 0.930 . S
C1518 C1517 1.388 . S
C1518 C1519 1.390 . S
C1519 C1518 1.390 . S
C1519 C1520 1.394 . S
C1519 C1525 1.465 . S
C1520 C1515 1.399 . S
C1520 C1519 1.394 . S
C1520 C1521 1.516 . S
C1521 C1520 1.516 . S
C1521 C1522 1.502 . S
C1521 C1523 1.561 . S
C1521 C1524 1.526 . S
C1522 H1506 0.959 . S
C1522 H1507 0.959 . S
C1522 H1508 0.961 . S
C1522 C1521 1.502 . S
C1523 H1509 0.960 . S
C1523 H1510 0.961 . S
C1523 H1511 0.959 . S
C1523 C1521 1.561 . S
C1524 C1521 1.526 . S
C1524 C1525 1.396 . S
C1524 C1529 1.390 . S
C1525 C1519 1.465 . S
C1525 C1524 1.396 . S
C1525 C1526 1.399 . S
C1526 H1512 0.929 . S
C1526 C1525 1.399 . S
C1526 C1527 1.385 . S
C1527 H1513 0.931 . S
C1527 C1526 1.385 . S
C1527 C1528 1.389 . S
C1528 C1527 1.389 . S
C1528 C1529 1.387 . S
C1529 H1514 0.930 . S
C1529 C1524 1.390 . S
C1529 C1528 1.387 . S
H1530 C1542 0.930 . S
H1531 C1544 0.930 . S
H1532 C1545 0.930 . S
H1533 C1549 0.959 . S
H1534 C1549 0.959 . S
H1535 C1549 0.961 . S
H1536 C1550 0.960 . S
H1537 C1550 0.961 . S
H1538 C1550 0.959 . S
H1539 C1553 0.929 . S
H1540 C1554 0.931 . S
H1541 C1556 0.930 . S
C1542 H1530 0.930 . S
C1542 C1543 1.399 . S
C1542 C1547 1.399 . S
C1543 C1542 1.399 . S
C1543 C1544 1.376 . S
C1544 H1531 0.930 . S
C1544 C1543 1.376 . S
C1544 C1545 1.388 . S
C1545 H1532 0.930 . S
C1545 C1544 1.388 . S
C1545 C1546 1.390 . S
C1546 C1545 1.390 . S
C1546 C1547 1.394 . S
C1546 C1552 1.465 . S
C1547 C1542 1.399 . S
C1547 C1546 1.394 . S
C1547 C1548 1.516 . S
C1548 C1547 1.516 . S
C1548 C1549 1.502 . S
C1548 C1550 1.561 . S
C1548 C1551 1.526 . S
C1549 H1533 0.959 . S
C1549 H1534 0.959 . S
C1549 H1535 0.961 . S
C1549 C1548 1.502 . S
C1550 H1536 0.960 . S
C1550 H1537 0.961 . S
C1550 H1538 0.959 . S
C1550 C1548 1.561 . S
C1551 C1548 1.526 . S
C1551 C1552 1.396 . S
C1551 C1556 1.390 . S
C1552 C1546 1.465 . S
C1552 C1551 1.396 . S
C1552 C1553 1.399 . S
C1553 H1539 0.929 . S
C1553 C1552 1.399 . S
C1553 C1554 1.385 . S
C1554 H1540 0.931 . S
C1554 C1553 1.385 . S
C1554 C1555 1.389 . S
C1555 C1554 1.389 . S
C1555 C1556 1.387 . S
C1556 H1541 0.930 . S
C1556 C1551 1.390 . S
C1556 C1555 1.387 . S
H1557 C1569 0.930 . S
H1558 C1571 0.930 . S
H1559 C1572 0.930 . S
H1560 C1576 0.959 . S
H1561 C1576 0.959 . S
H1562 C1576 0.961 . S
H1563 C1577 0.960 . S
H1564 C1577 0.961 . S
H1565 C1577 0.959 . S
H1566 C1580 0.929 . S
H1567 C1581 0.931 . S
H1568 C1583 0.930 . S
C1569 H1557 0.930 . S
C1569 C1570 1.399 . S
C1569 C1574 1.399 . S
C1570 C1569 1.399 . S
C1570 C1571 1.376 . S
C1571 H1558 0.930 . S
C1571 C1570 1.376 . S
C1571 C1572 1.388 . S
C1572 H1559 0.930 . S
C1572 C1571 1.388 . S
C1572 C1573 1.390 . S
C1573 C1572 1.390 . S
C1573 C1574 1.394 . S
C1573 C1579 1.465 . S
C1574 C1569 1.399 . S
C1574 C1573 1.394 . S
C1574 C1575 1.516 . S
C1575 C1574 1.516 . S
C1575 C1576 1.502 . S
C1575 C1577 1.561 . S
C1575 C1578 1.526 . S
C1576 H1560 0.959 . S
C1576 H1561 0.959 . S
C1576 H1562 0.961 . S
C1576 C1575 1.502 . S
C1577 H1563 0.960 . S
C1577 H1564 0.961 . S
C1577 H1565 0.959 . S
C1577 C1575 1.561 . S
C1578 C1575 1.526 . S
C1578 C1579 1.396 . S
C1578 C1583 1.390 . S
C1579 C1573 1.465 . S
C1579 C1578 1.396 . S
C1579 C1580 1.399 . S
C1580 H1566 0.929 . S
C1580 C1579 1.399 . S
C1580 C1581 1.385 . S
C1581 H1567 0.931 . S
C1581 C1580 1.385 . S
C1581 C1582 1.389 . S
C1582 C1581 1.389 . S
C1582 C1583 1.387 . S
C1583 H1568 0.930 . S
C1583 C1578 1.390 . S
C1583 C1582 1.387 . S
H1584 C1596 0.930 . S
H1585 C1598 0.930 . S
H1586 C1599 0.930 . S
H1587 C1603 0.959 . S
H1588 C1603 0.959 . S
H1589 C1603 0.961 . S
H1590 C1604 0.960 . S
H1591 C1604 0.961 . S
H1592 C1604 0.959 . S
H1593 C1607 0.929 . S
H1594 C1608 0.931 . S
H1595 C1610 0.930 . S
C1596 H1584 0.930 . S
C1596 C1597 1.399 . S
C1596 C1601 1.399 . S
C1597 C1596 1.399 . S
C1597 C1598 1.376 . S
C1598 H1585 0.930 . S
C1598 C1597 1.376 . S
C1598 C1599 1.388 . S
C1599 H1586 0.930 . S
C1599 C1598 1.388 . S
C1599 C1600 1.390 . S
C1600 C1599 1.390 . S
C1600 C1601 1.394 . S
C1600 C1606 1.465 . S
C1601 C1596 1.399 . S
C1601 C1600 1.394 . S
C1601 C1602 1.516 . S
C1602 C1601 1.516 . S
C1602 C1603 1.502 . S
C1602 C1604 1.561 . S
C1602 C1605 1.526 . S
C1603 H1587 0.959 . S
C1603 H1588 0.959 . S
C1603 H1589 0.961 . S
C1603 C1602 1.502 . S
C1604 H1590 0.960 . S
C1604 H1591 0.961 . S
C1604 H1592 0.959 . S
C1604 C1602 1.561 . S
C1605 C1602 1.526 . S
C1605 C1606 1.396 . S
C1605 C1610 1.390 . S
C1606 C1600 1.465 . S
C1606 C1605 1.396 . S
C1606 C1607 1.399 . S
C1607 H1593 0.929 . S
C1607 C1606 1.399 . S
C1607 C1608 1.385 . S
C1608 H1594 0.931 . S
C1608 C1607 1.385 . S
C1608 C1609 1.389 . S
C1609 C1608 1.389 . S
C1609 C1610 1.387 . S
C1610 H1595 0.930 . S
C1610 C1605 1.390 . S
C1610 C1609 1.387 . S
H1611 C1623 0.930 . S
H1612 C1625 0.930 . S
H1613 C1626 0.930 . S
H1614 C1630 0.959 . S
H1615 C1630 0.959 . S
H1616 C1630 0.961 . S
H1617 C1631 0.960 . S
H1618 C1631 0.961 . S
H1619 C1631 0.959 . S
H1620 C1634 0.929 . S
H1621 C1635 0.931 . S
H1622 C1637 0.930 . S
C1623 H1611 0.930 . S
C1623 C1624 1.399 . S
C1623 C1628 1.399 . S
C1624 C1623 1.399 . S
C1624 C1625 1.376 . S
C1625 H1612 0.930 . S
C1625 C1624 1.376 . S
C1625 C1626 1.388 . S
C1626 H1613 0.930 . S
C1626 C1625 1.388 . S
C1626 C1627 1.390 . S
C1627 C1626 1.390 . S
C1627 C1628 1.394 . S
C1627 C1633 1.465 . S
C1628 C1623 1.399 . S
C1628 C1627 1.394 . S
C1628 C1629 1.516 . S
C1629 C1628 1.516 . S
C1629 C1630 1.502 . S
C1629 C1631 1.561 . S
C1629 C1632 1.526 . S
C1630 H1614 0.959 . S
C1630 H1615 0.959 . S
C1630 H1616 0.961 . S
C1630 C1629 1.502 . S
C1631 H1617 0.960 . S
C1631 H1618 0.961 . S
C1631 H1619 0.959 . S
C1631 C1629 1.561 . S
C1632 C1629 1.526 . S
C1632 C1633 1.396 . S
C1632 C1637 1.390 . S
C1633 C1627 1.465 . S
C1633 C1632 1.396 . S
C1633 C1634 1.399 . S
C1634 H1620 0.929 . S
C1634 C1633 1.399 . S
C1634 C1635 1.385 . S
C1635 H1621 0.931 . S
C1635 C1634 1.385 . S
C1635 C1636 1.389 . S
C1636 C1635 1.389 . S
C1636 C1637 1.387 . S
C1637 H1622 0.930 . S
C1637 C1632 1.390 . S
C1637 C1636 1.387 . S
H1638 C1650 0.930 . S
H1639 C1652 0.930 . S
H1640 C1653 0.930 . S
H1641 C1657 0.959 . S
H1642 C1657 0.959 . S
H1643 C1657 0.961 . S
H1644 C1658 0.960 . S
H1645 C1658 0.961 . S
H1646 C1658 0.959 . S
H1647 C1661 0.929 . S
H1648 C1662 0.931 . S
H1649 C1664 0.930 . S
C1650 H1638 0.930 . S
C1650 C1651 1.399 . S
C1650 C1655 1.399 . S
C1651 C1650 1.399 . S
C1651 C1652 1.376 . S
C1652 H1639 0.930 . S
C1652 C1651 1.376 . S
C1652 C1653 1.388 . S
C1653 H1640 0.930 . S
C1653 C1652 1.388 . S
C1653 C1654 1.390 . S
C1654 C1653 1.390 . S
C1654 C1655 1.394 . S
C1654 C1660 1.465 . S
C1655 C1650 1.399 . S
C1655 C1654 1.394 . S
C1655 C1656 1.516 . S
C1656 C1655 1.516 . S
C1656 C1657 1.502 . S
C1656 C1658 1.561 . S
C1656 C1659 1.526 . S
C1657 H1641 0.959 . S
C1657 H1642 0.959 . S
C1657 H1643 0.961 . S
C1657 C1656 1.502 . S
C1658 H1644 0.960 . S
C1658 H1645 0.961 . S
C1658 H1646 0.959 . S
C1658 C1656 1.561 . S
C1659 C1656 1.526 . S
C1659 C1660 1.396 . S
C1659 C1664 1.390 . S
C1660 C1654 1.465 . S
C1660 C1659 1.396 . S
C1660 C1661 1.399 . S
C1661 H1647 0.929 . S
C1661 C1660 1.399 . S
C1661 C1662 1.385 . S
C1662 H1648 0.931 . S
C1662 C1661 1.385 . S
C1662 C1663 1.389 . S
C1663 C1662 1.389 . S
C1663 C1664 1.387 . S
C1664 H1649 0.930 . S
C1664 C1659 1.390 . S
C1664 C1663 1.387 . S
H1665 C1677 0.930 . S
H1666 C1679 0.930 . S
H1667 C1680 0.930 . S
H1668 C1684 0.959 . S
H1669 C1684 0.959 . S
H1670 C1684 0.961 . S
H1671 C1685 0.960 . S
H1672 C1685 0.961 . S
H1673 C1685 0.959 . S
H1674 C1688 0.929 . S
H1675 C1689 0.931 . S
H1676 C1691 0.930 . S
C1677 H1665 0.930 . S
C1677 C1678 1.399 . S
C1677 C1682 1.399 . S
C1678 C1677 1.399 . S
C1678 C1679 1.376 . S
C1679 H1666 0.930 . S
C1679 C1678 1.376 . S
C1679 C1680 1.388 . S
C1680 H1667 0.930 . S
C1680 C1679 1.388 . S
C1680 C1681 1.390 . S
C1681 C1680 1.390 . S
C1681 C1682 1.394 . S
C1681 C1687 1.465 . S
C1682 C1677 1.399 . S
C1682 C1681 1.394 . S
C1682 C1683 1.516 . S
C1683 C1682 1.516 . S
C1683 C1684 1.502 . S
C1683 C1685 1.561 . S
C1683 C1686 1.526 . S
C1684 H1668 0.959 . S
C1684 H1669 0.959 . S
C1684 H1670 0.961 . S
C1684 C1683 1.502 . S
C1685 H1671 0.960 . S
C1685 H1672 0.961 . S
C1685 H1673 0.959 . S
C1685 C1683 1.561 . S
C1686 C1683 1.526 . S
C1686 C1687 1.396 . S
C1686 C1691 1.390 . S
C1687 C1681 1.465 . S
C1687 C1686 1.396 . S
C1687 C1688 1.399 . S
C1688 H1674 0.929 . S
C1688 C1687 1.399 . S
C1688 C1689 1.385 . S
C1689 H1675 0.931 . S
C1689 C1688 1.385 . S
C1689 C1690 1.389 . S
C1690 C1689 1.389 . S
C1690 C1691 1.387 . S
C1691 H1676 0.930 . S
C1691 C1686 1.390 . S
C1691 C1690 1.387 . S
H1692 C1704 0.930 . S
H1693 C1706 0.930 . S
H1694 C1707 0.930 . S
H1695 C1711 0.959 . S
H1696 C1711 0.959 . S
H1697 C1711 0.961 . S
H1698 C1712 0.960 . S
H1699 C1712 0.961 . S
H1700 C1712 0.959 . S
H1701 C1715 0.929 . S
H1702 C1716 0.931 . S
H1703 C1718 0.930 . S
C1704 H1692 0.930 . S
C1704 C1705 1.399 . S
C1704 C1709 1.399 . S
C1705 C1704 1.399 . S
C1705 C1706 1.376 . S
C1706 H1693 0.930 . S
C1706 C1705 1.376 . S
C1706 C1707 1.388 . S
C1707 H1694 0.930 . S
C1707 C1706 1.388 . S
C1707 C1708 1.390 . S
C1708 C1707 1.390 . S
C1708 C1709 1.394 . S
C1708 C1714 1.465 . S
C1709 C1704 1.399 . S
C1709 C1708 1.394 . S
C1709 C1710 1.516 . S
C1710 C1709 1.516 . S
C1710 C1711 1.502 . S
C1710 C1712 1.561 . S
C1710 C1713 1.526 . S
C1711 H1695 0.959 . S
C1711 H1696 0.959 . S
C1711 H1697 0.961 . S
C1711 C1710 1.502 . S
C1712 H1698 0.960 . S
C1712 H1699 0.961 . S
C1712 H1700 0.959 . S
C1712 C1710 1.561 . S
C1713 C1710 1.526 . S
C1713 C1714 1.396 . S
C1713 C1718 1.390 . S
C1714 C1708 1.465 . S
C1714 C1713 1.396 . S
C1714 C1715 1.399 . S
C1715 H1701 0.929 . S
C1715 C1714 1.399 . S
C1715 C1716 1.385 . S
C1716 H1702 0.931 . S
C1716 C1715 1.385 . S
C1716 C1717 1.389 . S
C1717 C1716 1.389 . S
C1717 C1718 1.387 . S
C1718 H1703 0.930 . S
C1718 C1713 1.390 . S
C1718 C1717 1.387 . S
H1719 C1731 0.930 . S
H1720 C1733 0.930 . S
H1721 C1734 0.930 . S
H1722 C1738 0.959 . S
H1723 C1738 0.959 . S
H1724 C1738 0.961 . S
H1725 C1739 0.960 . S
H1726 C1739 0.961 . S
H1727 C1739 0.959 . S
H1728 C1742 0.929 . S
H1729 C1743 0.931 . S
H1730 C1745 0.930 . S
C1731 H1719 0.930 . S
C1731 C1732 1.399 . S
C1731 C1736 1.399 . S
C1732 C1731 1.399 . S
C1732 C1733 1.376 . S
C1733 H1720 0.930 . S
C1733 C1732 1.376 . S
C1733 C1734 1.388 . S
C1734 H1721 0.930 . S
C1734 C1733 1.388 . S
C1734 C1735 1.390 . S
C1735 C1734 1.390 . S
C1735 C1736 1.394 . S
C1735 C1741 1.465 . S
C1736 C1731 1.399 . S
C1736 C1735 1.394 . S
C1736 C1737 1.516 . S
C1737 C1736 1.516 . S
C1737 C1738 1.502 . S
C1737 C1739 1.561 . S
C1737 C1740 1.526 . S
C1738 H1722 0.959 . S
C1738 H1723 0.959 . S
C1738 H1724 0.961 . S
C1738 C1737 1.502 . S
C1739 H1725 0.960 . S
C1739 H1726 0.961 . S
C1739 H1727 0.959 . S
C1739 C1737 1.561 . S
C1740 C1737 1.526 . S
C1740 C1741 1.396 . S
C1740 C1745 1.390 . S
C1741 C1735 1.465 . S
C1741 C1740 1.396 . S
C1741 C1742 1.399 . S
C1742 H1728 0.929 . S
C1742 C1741 1.399 . S
C1742 C1743 1.385 . S
C1743 H1729 0.931 . S
C1743 C1742 1.385 . S
C1743 C1744 1.389 . S
C1744 C1743 1.389 . S
C1744 C1745 1.387 . S
C1745 H1730 0.930 . S
C1745 C1740 1.390 . S
C1745 C1744 1.387 . S
H1746 C1758 0.930 . S
H1747 C1760 0.930 . S
H1748 C1761 0.930 . S
H1749 C1765 0.959 . S
H1750 C1765 0.959 . S
H1751 C1765 0.961 . S
H1752 C1766 0.960 . S
H1753 C1766 0.961 . S
H1754 C1766 0.959 . S
H1755 C1769 0.929 . S
H1756 C1770 0.931 . S
H1757 C1772 0.930 . S
C1758 H1746 0.930 . S
C1758 C1759 1.399 . S
C1758 C1763 1.399 . S
C1759 C1758 1.399 . S
C1759 C1760 1.376 . S
C1760 H1747 0.930 . S
C1760 C1759 1.376 . S
C1760 C1761 1.388 . S
C1761 H1748 0.930 . S
C1761 C1760 1.388 . S
C1761 C1762 1.390 . S
C1762 C1761 1.390 . S
C1762 C1763 1.394 . S
C1762 C1768 1.465 . S
C1763 C1758 1.399 . S
C1763 C1762 1.394 . S
C1763 C1764 1.516 . S
C1764 C1763 1.516 . S
C1764 C1765 1.502 . S
C1764 C1766 1.561 . S
C1764 C1767 1.526 . S
C1765 H1749 0.959 . S
C1765 H1750 0.959 . S
C1765 H1751 0.961 . S
C1765 C1764 1.502 . S
C1766 H1752 0.960 . S
C1766 H1753 0.961 . S
C1766 H1754 0.959 . S
C1766 C1764 1.561 . S
C1767 C1764 1.526 . S
C1767 C1768 1.396 . S
C1767 C1772 1.390 . S
C1768 C1762 1.465 . S
C1768 C1767 1.396 . S
C1768 C1769 1.399 . S
C1769 H1755 0.929 . S
C1769 C1768 1.399 . S
C1769 C1770 1.385 . S
C1770 H1756 0.931 . S
C1770 C1769 1.385 . S
C1770 C1771 1.389 . S
C1771 C1770 1.389 . S
C1771 C1772 1.387 . S
C1772 H1757 0.930 . S
C1772 C1767 1.390 . S
C1772 C1771 1.387 . S
H1773 C1785 0.930 . S
H1774 C1787 0.930 . S
H1775 C1788 0.930 . S
H1776 C1792 0.959 . S
H1777 C1792 0.959 . S
H1778 C1792 0.961 . S
H1779 C1793 0.960 . S
H1780 C1793 0.961 . S
H1781 C1793 0.959 . S
H1782 C1796 0.929 . S
H1783 C1797 0.931 . S
H1784 C1799 0.930 . S
C1785 H1773 0.930 . S
C1785 C1786 1.399 . S
C1785 C1790 1.399 . S
C1786 C1785 1.399 . S
C1786 C1787 1.376 . S
C1787 H1774 0.930 . S
C1787 C1786 1.376 . S
C1787 C1788 1.388 . S
C1788 H1775 0.930 . S
C1788 C1787 1.388 . S
C1788 C1789 1.390 . S
C1789 C1788 1.390 . S
C1789 C1790 1.394 . S
C1789 C1795 1.465 . S
C1790 C1785 1.399 . S
C1790 C1789 1.394 . S
C1790 C1791 1.516 . S
C1791 C1790 1.516 . S
C1791 C1792 1.502 . S
C1791 C1793 1.561 . S
C1791 C1794 1.526 . S
C1792 H1776 0.959 . S
C1792 H1777 0.959 . S
C1792 H1778 0.961 . S
C1792 C1791 1.502 . S
C1793 H1779 0.960 . S
C1793 H1780 0.961 . S
C1793 H1781 0.959 . S
C1793 C1791 1.561 . S
C1794 C1791 1.526 . S
C1794 C1795 1.396 . S
C1794 C1799 1.390 . S
C1795 C1789 1.465 . S
C1795 C1794 1.396 . S
C1795 C1796 1.399 . S
C1796 H1782 0.929 . S
C1796 C1795 1.399 . S
C1796 C1797 1.385 . S
C1797 H1783 0.931 . S
C1797 C1796 1.385 . S
C1797 C1798 1.389 . S
C1798 C1797 1.389 . S
C1798 C1799 1.387 . S
C1799 H1784 0.930 . S
C1799 C1794 1.390 . S
C1799 C1798 1.387 . S
H1800 C1812 0.930 . S
H1801 C1814 0.930 . S
H1802 C1815 0.930 . S
H1803 C1819 0.959 . S
H1804 C1819 0.959 . S
H1805 C1819 0.961 . S
H1806 C1820 0.960 . S
H1807 C1820 0.961 . S
H1808 C1820 0.959 . S
H1809 C1823 0.929 . S
H1810 C1824 0.931 . S
H1811 C1826 0.930 . S
C1812 H1800 0.930 . S
C1812 C1813 1.399 . S
C1812 C1817 1.399 . S
C1813 C1812 1.399 . S
C1813 C1814 1.376 . S
C1814 H1801 0.930 . S
C1814 C1813 1.376 . S
C1814 C1815 1.388 . S
C1815 H1802 0.930 . S
C1815 C1814 1.388 . S
C1815 C1816 1.390 . S
C1816 C1815 1.390 . S
C1816 C1817 1.394 . S
C1816 C1822 1.465 . S
C1817 C1812 1.399 . S
C1817 C1816 1.394 . S
C1817 C1818 1.516 . S
C1818 C1817 1.516 . S
C1818 C1819 1.502 . S
C1818 C1820 1.561 . S
C1818 C1821 1.526 . S
C1819 H1803 0.959 . S
C1819 H1804 0.959 . S
C1819 H1805 0.961 . S
C1819 C1818 1.502 . S
C1820 H1806 0.960 . S
C1820 H1807 0.961 . S
C1820 H1808 0.959 . S
C1820 C1818 1.561 . S
C1821 C1818 1.526 . S
C1821 C1822 1.396 . S
C1821 C1826 1.390 . S
C1822 C1816 1.465 . S
C1822 C1821 1.396 . S
C1822 C1823 1.399 . S
C1823 H1809 0.929 . S
C1823 C1822 1.399 . S
C1823 C1824 1.385 . S
C1824 H1810 0.931 . S
C1824 C1823 1.385 . S
C1824 C1825 1.389 . S
C1825 C1824 1.389 . S
C1825 C1826 1.387 . S
C1826 H1811 0.930 . S
C1826 C1821 1.390 . S
C1826 C1825 1.387 . S
H1827 C1839 0.930 . S
H1828 C1841 0.930 . S
H1829 C1842 0.930 . S
H1830 C1846 0.959 . S
H1831 C1846 0.959 . S
H1832 C1846 0.961 . S
H1833 C1847 0.960 . S
H1834 C1847 0.961 . S
H1835 C1847 0.959 . S
H1836 C1850 0.929 . S
H1837 C1851 0.931 . S
H1838 C1853 0.930 . S
C1839 H1827 0.930 . S
C1839 C1840 1.399 . S
C1839 C1844 1.399 . S
C1840 C1839 1.399 . S
C1840 C1841 1.376 . S
C1841 H1828 0.930 . S
C1841 C1840 1.376 . S
C1841 C1842 1.388 . S
C1842 H1829 0.930 . S
C1842 C1841 1.388 . S
C1842 C1843 1.390 . S
C1843 C1842 1.390 . S
C1843 C1844 1.394 . S
C1843 C1849 1.465 . S
C1844 C1839 1.399 . S
C1844 C1843 1.394 . S
C1844 C1845 1.516 . S
C1845 C1844 1.516 . S
C1845 C1846 1.502 . S
C1845 C1847 1.561 . S
C1845 C1848 1.526 . S
C1846 H1830 0.959 . S
C1846 H1831 0.959 . S
C1846 H1832 0.961 . S
C1846 C1845 1.502 . S
C1847 H1833 0.960 . S
C1847 H1834 0.961 . S
C1847 H1835 0.959 . S
C1847 C1845 1.561 . S
C1848 C1845 1.526 . S
C1848 C1849 1.396 . S
C1848 C1853 1.390 . S
C1849 C1843 1.465 . S
C1849 C1848 1.396 . S
C1849 C1850 1.399 . S
C1850 H1836 0.929 . S
C1850 C1849 1.399 . S
C1850 C1851 1.385 . S
C1851 H1837 0.931 . S
C1851 C1850 1.385 . S
C1851 C1852 1.389 . S
C1852 C1851 1.389 . S
C1852 C1853 1.387 . S
C1853 H1838 0.930 . S
C1853 C1848 1.390 . S
C1853 C1852 1.387 . S
H1854 C1866 0.930 . S
H1855 C1868 0.930 . S
H1856 C1869 0.930 . S
H1857 C1873 0.959 . S
H1858 C1873 0.959 . S
H1859 C1873 0.961 . S
H1860 C1874 0.960 . S
H1861 C1874 0.961 . S
H1862 C1874 0.959 . S
H1863 C1877 0.929 . S
H1864 C1878 0.931 . S
H1865 C1880 0.930 . S
C1866 H1854 0.930 . S
C1866 C1867 1.399 . S
C1866 C1871 1.399 . S
C1867 C1866 1.399 . S
C1867 C1868 1.376 . S
C1868 H1855 0.930 . S
C1868 C1867 1.376 . S
C1868 C1869 1.388 . S
C1869 H1856 0.930 . S
C1869 C1868 1.388 . S
C1869 C1870 1.390 . S
C1870 C1869 1.390 . S
C1870 C1871 1.394 . S
C1870 C1876 1.465 . S
C1871 C1866 1.399 . S
C1871 C1870 1.394 . S
C1871 C1872 1.516 . S
C1872 C1871 1.516 . S
C1872 C1873 1.502 . S
C1872 C1874 1.561 . S
C1872 C1875 1.526 . S
C1873 H1857 0.959 . S
C1873 H1858 0.959 . S
C1873 H1859 0.961 . S
C1873 C1872 1.502 . S
C1874 H1860 0.960 . S
C1874 H1861 0.961 . S
C1874 H1862 0.959 . S
C1874 C1872 1.561 . S
C1875 C1872 1.526 . S
C1875 C1876 1.396 . S
C1875 C1880 1.390 . S
C1876 C1870 1.465 . S
C1876 C1875 1.396 . S
C1876 C1877 1.399 . S
C1877 H1863 0.929 . S
C1877 C1876 1.399 . S
C1877 C1878 1.385 . S
C1878 H1864 0.931 . S
C1878 C1877 1.385 . S
C1878 C1879 1.389 . S
C1879 C1878 1.389 . S
C1879 C1880 1.387 . S
C1880 H1865 0.930 . S
C1880 C1875 1.390 . S
C1880 C1879 1.387 . S
H1881 C1893 0.930 . S
H1882 C1895 0.930 . S
H1883 C1896 0.930 . S
H1884 C1900 0.959 . S
H1885 C1900 0.959 . S
H1886 C1900 0.961 . S
H1887 C1901 0.960 . S
H1888 C1901 0.961 . S
H1889 C1901 0.959 . S
H1890 C1904 0.929 . S
H1891 C1905 0.931 . S
H1892 C1907 0.930 . S
C1893 H1881 0.930 . S
C1893 C1894 1.399 . S
C1893 C1898 1.399 . S
C1894 C1893 1.399 . S
C1894 C1895 1.376 . S
C1895 H1882 0.930 . S
C1895 C1894 1.376 . S
C1895 C1896 1.388 . S
C1896 H1883 0.930 . S
C1896 C1895 1.388 . S
C1896 C1897 1.390 . S
C1897 C1896 1.390 . S
C1897 C1898 1.394 . S
C1897 C1903 1.465 . S
C1898 C1893 1.399 . S
C1898 C1897 1.394 . S
C1898 C1899 1.516 . S
C1899 C1898 1.516 . S
C1899 C1900 1.502 . S
C1899 C1901 1.561 . S
C1899 C1902 1.526 . S
C1900 H1884 0.959 . S
C1900 H1885 0.959 . S
C1900 H1886 0.961 . S
C1900 C1899 1.502 . S
C1901 H1887 0.960 . S
C1901 H1888 0.961 . S
C1901 H1889 0.959 . S
C1901 C1899 1.561 . S
C1902 C1899 1.526 . S
C1902 C1903 1.396 . S
C1902 C1907 1.390 . S
C1903 C1897 1.465 . S
C1903 C1902 1.396 . S
C1903 C1904 1.399 . S
C1904 H1890 0.929 . S
C1904 C1903 1.399 . S
C1904 C1905 1.385 . S
C1905 H1891 0.931 . S
C1905 C1904 1.385 . S
C1905 C1906 1.389 . S
C1906 C1905 1.389 . S
C1906 C1907 1.387 . S
C1907 H1892 0.930 . S
C1907 C1902 1.390 . S
C1907 C1906 1.387 . S
H1908 C1920 0.930 . S
H1909 C1922 0.930 . S
H1910 C1923 0.930 . S
H1911 C1927 0.959 . S
H1912 C1927 0.959 . S
H1913 C1927 0.961 . S
H1914 C1928 0.960 . S
H1915 C1928 0.961 . S
H1916 C1928 0.959 . S
H1917 C1931 0.929 . S
H1918 C1932 0.931 . S
H1919 C1934 0.930 . S
C1920 H1908 0.930 . S
C1920 C1921 1.399 . S
C1920 C1925 1.399 . S
C1921 C1920 1.399 . S
C1921 C1922 1.376 . S
C1922 H1909 0.930 . S
C1922 C1921 1.376 . S
C1922 C1923 1.388 . S
C1923 H1910 0.930 . S
C1923 C1922 1.388 . S
C1923 C1924 1.390 . S
C1924 C1923 1.390 . S
C1924 C1925 1.394 . S
C1924 C1930 1.465 . S
C1925 C1920 1.399 . S
C1925 C1924 1.394 . S
C1925 C1926 1.516 . S
C1926 C1925 1.516 . S
C1926 C1927 1.502 . S
C1926 C1928 1.561 . S
C1926 C1929 1.526 . S
C1927 H1911 0.959 . S
C1927 H1912 0.959 . S
C1927 H1913 0.961 . S
C1927 C1926 1.502 . S
C1928 H1914 0.960 . S
C1928 H1915 0.961 . S
C1928 H1916 0.959 . S
C1928 C1926 1.561 . S
C1929 C1926 1.526 . S
C1929 C1930 1.396 . S
C1929 C1934 1.390 . S
C1930 C1924 1.465 . S
C1930 C1929 1.396 . S
C1930 C1931 1.399 . S
C1931 H1917 0.929 . S
C1931 C1930 1.399 . S
C1931 C1932 1.385 . S
C1932 H1918 0.931 . S
C1932 C1931 1.385 . S
C1932 C1933 1.389 . S
C1933 C1932 1.389 . S
C1933 C1934 1.387 . S
C1934 H1919 0.930 . S
C1934 C1929 1.390 . S
C1934 C1933 1.387 . S
H1935 C1947 0.930 . S
H1936 C1949 0.930 . S
H1937 C1950 0.930 . S
H1938 C1954 0.959 . S
H1939 C1954 0.959 . S
H1940 C1954 0.961 . S
H1941 C1955 0.960 . S
H1942 C1955 0.961 . S
H1943 C1955 0.959 . S
H1944 C1958 0.929 . S
H1945 C1959 0.931 . S
H1946 C1961 0.930 . S
C1947 H1935 0.930 . S
C1947 C1948 1.399 . S
C1947 C1952 1.399 . S
C1948 C1947 1.399 . S
C1948 C1949 1.376 . S
C1949 H1936 0.930 . S
C1949 C1948 1.376 . S
C1949 C1950 1.388 . S
C1950 H1937 0.930 . S
C1950 C1949 1.388 . S
C1950 C1951 1.390 . S
C1951 C1950 1.390 . S
C1951 C1952 1.394 . S
C1951 C1957 1.465 . S
C1952 C1947 1.399 . S
C1952 C1951 1.394 . S
C1952 C1953 1.516 . S
C1953 C1952 1.516 . S
C1953 C1954 1.502 . S
C1953 C1955 1.561 . S
C1953 C1956 1.526 . S
C1954 H1938 0.959 . S
C1954 H1939 0.959 . S
C1954 H1940 0.961 . S
C1954 C1953 1.502 . S
C1955 H1941 0.960 . S
C1955 H1942 0.961 . S
C1955 H1943 0.959 . S
C1955 C1953 1.561 . S
C1956 C1953 1.526 . S
C1956 C1957 1.396 . S
C1956 C1961 1.390 . S
C1957 C1951 1.465 . S
C1957 C1956 1.396 . S
C1957 C1958 1.399 . S
C1958 H1944 0.929 . S
C1958 C1957 1.399 . S
C1958 C1959 1.385 . S
C1959 H1945 0.931 . S
C1959 C1958 1.385 . S
C1959 C1960 1.389 . S
C1960 C1959 1.389 . S
C1960 C1961 1.387 . S
C1961 H1946 0.930 . S
C1961 C1956 1.390 . S
C1961 C1960 1.387 . S
H1962 C1974 0.930 . S
H1963 C1976 0.930 . S
H1964 C1977 0.930 . S
H1965 C1981 0.959 . S
H1966 C1981 0.959 . S
H1967 C1981 0.961 . S
H1968 C1982 0.960 . S
H1969 C1982 0.961 . S
H1970 C1982 0.959 . S
H1971 C1985 0.929 . S
H1972 C1986 0.931 . S
H1973 C1988 0.930 . S
C1974 H1962 0.930 . S
C1974 C1975 1.399 . S
C1974 C1979 1.399 . S
C1975 C1974 1.399 . S
C1975 C1976 1.376 . S
C1976 H1963 0.930 . S
C1976 C1975 1.376 . S
C1976 C1977 1.388 . S
C1977 H1964 0.930 . S
C1977 C1976 1.388 . S
C1977 C1978 1.390 . S
C1978 C1977 1.390 . S
C1978 C1979 1.394 . S
C1978 C1984 1.465 . S
C1979 C1974 1.399 . S
C1979 C1978 1.394 . S
C1979 C1980 1.516 . S
C1980 C1979 1.516 . S
C1980 C1981 1.502 . S
C1980 C1982 1.561 . S
C1980 C1983 1.526 . S
C1981 H1965 0.959 . S
C1981 H1966 0.959 . S
C1981 H1967 0.961 . S
C1981 C1980 1.502 . S
C1982 H1968 0.960 . S
C1982 H1969 0.961 . S
C1982 H1970 0.959 . S
C1982 C1980 1.561 . S
C1983 C1980 1.526 . S
C1983 C1984 1.396 . S
C1983 C1988 1.390 . S
C1984 C1978 1.465 . S
C1984 C1983 1.396 . S
C1984 C1985 1.399 . S
C1985 H1971 0.929 . S
C1985 C1984 1.399 . S
C1985 C1986 1.385 . S
C1986 H1972 0.931 . S
C1986 C1985 1.385 . S
C1986 C1987 1.389 . S
C1987 C1986 1.389 . S
C1987 C1988 1.387 . S
C1988 H1973 0.930 . S
C1988 C1983 1.390 . S
C1988 C1987 1.387 . S
H1989 C2001 0.930 . S
H1990 C2003 0.930 . S
H1991 C2004 0.930 . S
H1992 C2008 0.959 . S
H1993 C2008 0.959 . S
H1994 C2008 0.961 . S
H1995 C2009 0.960 . S
H1996 C2009 0.961 . S
H1997 C2009 0.926 1_565 S
H1998 C2012 0.932 . S
H1999 C2013 0.931 . S
H2000 C2015 0.930 . S
C2001 H1989 0.930 . S
C2001 C2002 1.399 1_545 S
C2001 C2006 1.399 . S
C2002 C2001 1.399 1_565 S
C2002 C2003 1.376 . S
C2003 H1990 0.930 . S
C2003 C2002 1.376 . S
C2003 C2004 1.388 . S
C2004 H1991 0.930 . S
C2004 C2003 1.388 . S
C2004 C2005 1.387 1_565 S
C2005 C2004 1.387 1_545 S
C2005 C2006 1.398 . S
C2005 C2011 1.465 . S
C2006 C2001 1.399 . S
C2006 C2005 1.398 . S
C2006 C2007 1.516 . S
C2007 C2006 1.516 . S
C2007 C2008 1.502 . S
C2007 C2009 1.561 . S
C2007 C2010 1.526 . S
C2008 H1992 0.959 . S
C2008 H1993 0.959 . S
C2008 H1994 0.961 . S
C2008 C2007 1.502 . S
C2009 H1995 0.960 . S
C2009 H1996 0.961 . S
C2009 H1997 0.926 1_545 S
C2009 C2007 1.561 . S
C2010 C2007 1.526 . S
C2010 C2011 1.396 . S
C2010 C2015 1.390 . S
C2011 C2005 1.465 . S
C2011 C2010 1.396 . S
C2011 C2012 1.399 . S
C2012 H1998 0.932 . S
C2012 C2011 1.399 . S
C2012 C2013 1.385 . S
C2013 H1999 0.931 . S
C2013 C2012 1.385 . S
C2013 C2014 1.389 . S
C2014 C2013 1.389 . S
C2014 C2015 1.387 . S
C2015 H2000 0.930 . S
C2015 C2010 1.390 . S
C2015 C2014 1.387 . S
H2016 C2028 0.930 . S
H2017 C2030 0.930 . S
H2018 C2031 0.930 . S
H2019 C2035 0.959 . S
H2020 C2035 0.959 . S
H2021 C2035 0.961 . S
H2022 C2036 0.960 . S
H2023 C2036 0.961 . S
H2024 C2036 0.959 . S
H2025 C2039 0.929 . S
H2026 C2040 0.931 . S
H2027 C2042 0.930 . S
C2028 H2016 0.930 . S
C2028 C2029 1.399 . S
C2028 C2033 1.399 . S
C2029 C2028 1.399 . S
C2029 C2030 1.376 . S
C2030 H2017 0.930 . S
C2030 C2029 1.376 . S
C2030 C2031 1.388 . S
C2031 H2018 0.930 . S
C2031 C2030 1.388 . S
C2031 C2032 1.390 . S
C2032 C2031 1.390 . S
C2032 C2033 1.394 . S
C2032 C2038 1.465 . S
C2033 C2028 1.399 . S
C2033 C2032 1.394 . S
C2033 C2034 1.516 1_655 S
C2034 C2033 1.516 1_455 S
C2034 C2035 1.502 . S
C2034 C2036 1.561 . S
C2034 C2037 1.526 . S
C2035 H2019 0.959 . S
C2035 H2020 0.959 . S
C2035 H2021 0.961 . S
C2035 C2034 1.502 . S
C2036 H2022 0.960 . S
C2036 H2023 0.961 . S
C2036 H2024 0.959 . S
C2036 C2034 1.561 . S
C2037 C2034 1.526 . S
C2037 C2038 1.396 1_455 S
C2037 C2042 1.390 . S
C2038 C2032 1.465 . S
C2038 C2037 1.396 1_655 S
C2038 C2039 1.399 . S
C2039 H2025 0.929 . S
C2039 C2038 1.399 . S
C2039 C2040 1.385 . S
C2040 H2026 0.931 . S
C2040 C2039 1.385 . S
C2040 C2041 1.389 1_655 S
C2041 C2040 1.389 1_455 S
C2041 C2042 1.387 . S
C2042 H2027 0.930 . S
C2042 C2037 1.390 . S
C2042 C2041 1.387 . S
H2043 C2055 0.930 . S
H2044 C2057 0.930 . S
H2045 C2058 0.930 . S
H2046 C2062 0.959 . S
H2047 C2062 0.959 . S
H2048 C2062 0.961 . S
H2049 C2063 0.960 . S
H2050 C2063 0.961 . S
H2051 C2063 0.959 . S
H2052 C2066 0.929 . S
H2053 C2067 0.931 . S
H2054 C2069 0.930 . S
C2055 H2043 0.930 . S
C2055 C2056 1.399 . S
C2055 C2060 1.399 . S
C2056 C2055 1.399 . S
C2056 C2057 1.376 . S
C2057 H2044 0.930 . S
C2057 C2056 1.376 . S
C2057 C2058 1.388 . S
C2058 H2045 0.930 . S
C2058 C2057 1.388 . S
C2058 C2059 1.390 . S
C2059 C2058 1.390 . S
C2059 C2060 1.394 . S
C2059 C2065 1.465 . S
C2060 C2055 1.399 . S
C2060 C2059 1.394 . S
C2060 C2061 1.516 . S
C2061 C2060 1.516 . S
C2061 C2062 1.502 . S
C2061 C2063 1.561 . S
C2061 C2064 1.526 . S
C2062 H2046 0.959 . S
C2062 H2047 0.959 . S
C2062 H2048 0.961 . S
C2062 C2061 1.502 . S
C2063 H2049 0.960 . S
C2063 H2050 0.961 . S
C2063 H2051 0.959 . S
C2063 C2061 1.561 . S
C2064 C2061 1.526 . S
C2064 C2065 1.396 . S
C2064 C2069 1.390 . S
C2065 C2059 1.465 . S
C2065 C2064 1.396 . S
C2065 C2066 1.399 . S
C2066 H2052 0.929 . S
C2066 C2065 1.399 . S
C2066 C2067 1.385 . S
C2067 H2053 0.931 . S
C2067 C2066 1.385 . S
C2067 C2068 1.389 . S
C2068 C2067 1.389 . S
C2068 C2069 1.387 . S
C2069 H2054 0.930 . S
C2069 C2064 1.390 . S
C2069 C2068 1.387 . S
H2070 C2082 0.930 . S
H2071 C2084 0.930 . S
H2072 C2085 0.930 . S
H2073 C2089 0.959 . S
H2074 C2089 0.959 . S
H2075 C2089 0.961 . S
H2076 C2090 0.960 . S
H2077 C2090 0.961 . S
H2078 C2090 0.959 . S
H2079 C2093 0.929 1_545 S
H2080 C2094 0.931 . S
H2081 C2096 0.930 . S
C2082 H2070 0.930 . S
C2082 C2083 1.399 1_565 S
C2082 C2087 1.399 . S
C2083 C2082 1.399 1_545 S
C2083 C2084 1.376 . S
C2084 H2071 0.930 . S
C2084 C2083 1.376 . S
C2084 C2085 1.388 . S
C2085 H2072 0.930 . S
C2085 C2084 1.388 . S
C2085 C2086 1.390 . S
C2086 C2085 1.390 . S
C2086 C2087 1.394 1_545 S
C2086 C2092 1.465 1_545 S
C2087 C2082 1.399 . S
C2087 C2086 1.394 1_565 S
C2087 C2088 1.516 . S
C2088 C2087 1.516 . S
C2088 C2089 1.502 . S
C2088 C2090 1.561 . S
C2088 C2091 1.526 . S
C2089 H2073 0.959 . S
C2089 H2074 0.959 . S
C2089 H2075 0.961 . S
C2089 C2088 1.502 . S
C2090 H2076 0.960 . S
C2090 H2077 0.961 . S
C2090 H2078 0.959 . S
C2090 C2088 1.561 . S
C2091 C2088 1.526 . S
C2091 C2092 1.396 . S
C2091 C2096 1.390 . S
C2092 C2086 1.465 1_565 S
C2092 C2091 1.396 . S
C2092 C2093 1.399 . S
C2093 H2079 0.929 1_565 S
C2093 C2092 1.399 . S
C2093 C2094 1.385 . S
C2094 H2080 0.931 . S
C2094 C2093 1.385 . S
C2094 C2095 1.389 . S
C2095 C2094 1.389 . S
C2095 C2096 1.387 . S
C2096 H2081 0.930 . S
C2096 C2091 1.390 . S
C2096 C2095 1.387 . S
H2097 C2109 0.930 . S
H2098 C2111 0.930 . S
H2099 C2112 0.930 . S
H2100 C2116 0.959 . S
H2101 C2116 0.959 . S
H2102 C2116 0.961 . S
H2103 C2117 0.960 . S
H2104 C2117 0.961 . S
H2105 C2117 0.959 . S
H2106 C2120 0.929 . S
H2107 C2121 0.931 . S
H2108 C2123 0.930 . S
C2109 H2097 0.930 . S
C2109 C2110 1.399 . S
C2109 C2114 1.399 . S
C2110 C2109 1.399 . S
C2110 C2111 1.376 . S
C2111 H2098 0.930 . S
C2111 C2110 1.376 . S
C2111 C2112 1.388 . S
C2112 H2099 0.930 . S
C2112 C2111 1.388 . S
C2112 C2113 1.390 . S
C2113 C2112 1.390 . S
C2113 C2114 1.394 . S
C2113 C2119 1.465 . S
C2114 C2109 1.399 . S
C2114 C2113 1.394 . S
C2114 C2115 1.516 . S
C2115 C2114 1.516 . S
C2115 C2116 1.502 1_455 S
C2115 C2117 1.561 . S
C2115 C2118 1.526 . S
C2116 H2100 0.959 . S
C2116 H2101 0.959 . S
C2116 H2102 0.961 . S
C2116 C2115 1.502 1_655 S
C2117 H2103 0.960 . S
C2117 H2104 0.961 . S
C2117 H2105 0.959 . S
C2117 C2115 1.561 . S
C2118 C2115 1.526 . S
C2118 C2119 1.396 . S
C2118 C2123 1.390 1_455 S
C2119 C2113 1.465 . S
C2119 C2118 1.396 . S
C2119 C2120 1.399 . S
C2120 H2106 0.929 . S
C2120 C2119 1.399 . S
C2120 C2121 1.385 1_455 S
C2121 H2107 0.931 . S
C2121 C2120 1.385 1_655 S
C2121 C2122 1.389 . S
C2122 C2121 1.389 . S
C2122 C2123 1.387 . S
C2123 H2108 0.930 . S
C2123 C2118 1.390 1_655 S
C2123 C2122 1.387 . S
H2124 C2136 0.930 . S
H2125 C2138 0.930 . S
H2126 C2139 0.930 . S
H2127 C2143 0.959 . S
H2128 C2143 0.959 . S
H2129 C2143 0.961 . S
H2130 C2144 0.960 . S
H2131 C2144 0.961 . S
H2132 C2144 0.959 . S
H2133 C2147 0.929 . S
H2134 C2148 0.931 . S
H2135 C2150 0.930 . S
C2136 H2124 0.930 . S
C2136 C2137 1.399 . S
C2136 C2141 1.399 . S
C2137 C2136 1.399 . S
C2137 C2138 1.376 . S
C2138 H2125 0.930 . S
C2138 C2137 1.376 . S
C2138 C2139 1.388 . S
C2139 H2126 0.930 . S
C2139 C2138 1.388 . S
C2139 C2140 1.390 . S
C2140 C2139 1.390 . S
C2140 C2141 1.394 . S
C2140 C2146 1.465 . S
C2141 C2136 1.399 . S
C2141 C2140 1.394 . S
C2141 C2142 1.516 . S
C2142 C2141 1.516 . S
C2142 C2143 1.502 . S
C2142 C2144 1.561 . S
C2142 C2145 1.526 . S
C2143 H2127 0.959 . S
C2143 H2128 0.959 . S
C2143 H2129 0.961 . S
C2143 C2142 1.502 . S
C2144 H2130 0.960 . S
C2144 H2131 0.961 . S
C2144 H2132 0.959 . S
C2144 C2142 1.561 . S
C2145 C2142 1.526 . S
C2145 C2146 1.396 . S
C2145 C2150 1.390 . S
C2146 C2140 1.465 . S
C2146 C2145 1.396 . S
C2146 C2147 1.399 . S
C2147 H2133 0.929 . S
C2147 C2146 1.399 . S
C2147 C2148 1.385 . S
C2148 H2134 0.931 . S
C2148 C2147 1.385 . S
C2148 C2149 1.389 . S
C2149 C2148 1.389 . S
C2149 C2150 1.387 . S
C2150 H2135 0.930 . S
C2150 C2145 1.390 . S
C2150 C2149 1.387 . S
H2151 C2163 0.930 . S
H2152 C2165 0.930 . S
H2153 C2166 0.930 . S
H2154 C2170 0.959 . S
H2155 C2170 0.959 . S
H2156 C2170 0.961 . S
H2157 C2171 0.960 . S
H2158 C2171 0.963 . S
H2159 C2171 0.959 . S
H2160 C2174 0.929 . S
H2161 C2175 0.935 . S
H2162 C2177 0.930 . S
C2163 H2151 0.930 . S
C2163 C2164 1.399 . S
C2163 C2168 1.399 . S
C2164 C2163 1.399 . S
C2164 C2165 1.376 . S
C2165 H2152 0.930 . S
C2165 C2164 1.376 . S
C2165 C2166 1.388 . S
C2166 H2153 0.930 . S
C2166 C2165 1.388 . S
C2166 C2167 1.390 . S
C2167 C2166 1.390 . S
C2167 C2168 1.394 . S
C2167 C2173 1.465 . S
C2168 C2163 1.399 . S
C2168 C2167 1.394 . S
C2168 C2169 1.510 1_565 S
C2169 C2168 1.510 1_545 S
C2169 C2170 1.533 . S
C2169 C2171 1.541 1_545 S
C2169 C2172 1.518 . S
C2170 H2154 0.959 . S
C2170 H2155 0.959 . S
C2170 H2156 0.961 . S
C2170 C2169 1.533 . S
C2171 H2157 0.960 . S
C2171 H2158 0.963 . S
C2171 H2159 0.959 . S
C2171 C2169 1.541 1_565 S
C2172 C2169 1.518 . S
C2172 C2173 1.396 1_545 S
C2172 C2177 1.390 . S
C2173 C2167 1.465 . S
C2173 C2172 1.396 1_565 S
C2173 C2174 1.399 . S
C2174 H2160 0.929 . S
C2174 C2173 1.399 . S
C2174 C2175 1.385 1_565 S
C2175 H2161 0.935 . S
C2175 C2174 1.385 1_545 S
C2175 C2176 1.389 . S
C2176 C2175 1.389 . S
C2176 C2177 1.387 . S
C2177 H2162 0.930 . S
C2177 C2172 1.390 . S
C2177 C2176 1.387 . S
H2178 C2190 0.930 . S
H2179 C2192 0.930 . S
H2180 C2193 0.930 . S
H2181 C2197 0.959 . S
H2182 C2197 0.959 . S
H2183 C2197 0.961 . S
H2184 C2198 0.960 . S
H2185 C2198 0.961 . S
H2186 C2198 0.959 1_455 S
H2187 C2201 0.929 . S
H2188 C2202 0.931 . S
H2189 C2204 0.930 . S
C2190 H2178 0.930 . S
C2190 C2191 1.399 . S
C2190 C2195 1.399 . S
C2191 C2190 1.399 . S
C2191 C2192 1.376 . S
C2192 H2179 0.930 . S
C2192 C2191 1.376 . S
C2192 C2193 1.388 . S
C2193 H2180 0.930 . S
C2193 C2192 1.388 . S
C2193 C2194 1.390 . S
C2194 C2193 1.390 . S
C2194 C2195 1.394 . S
C2194 C2200 1.465 . S
C2195 C2190 1.399 . S
C2195 C2194 1.394 . S
C2195 C2196 1.516 1_455 S
C2196 C2195 1.516 1_655 S
C2196 C2197 1.502 . S
C2196 C2198 1.561 . S
C2196 C2199 1.526 . S
C2197 H2181 0.959 . S
C2197 H2182 0.959 . S
C2197 H2183 0.961 . S
C2197 C2196 1.502 . S
C2198 H2184 0.960 . S
C2198 H2185 0.961 . S
C2198 H2186 0.959 1_655 S
C2198 C2196 1.561 . S
C2199 C2196 1.526 . S
C2199 C2200 1.396 1_655 S
C2199 C2204 1.390 . S
C2200 C2194 1.465 . S
C2200 C2199 1.396 1_455 S
C2200 C2201 1.399 . S
C2201 H2187 0.929 . S
C2201 C2200 1.399 . S
C2201 C2202 1.385 . S
C2202 H2188 0.931 . S
C2202 C2201 1.385 . S
C2202 C2203 1.389 1_455 S
C2203 C2202 1.389 1_655 S
C2203 C2204 1.387 . S
C2204 H2189 0.930 . S
C2204 C2199 1.390 . S
C2204 C2203 1.387 . S
H2205 C2217 0.930 . S
H2206 C2219 0.930 . S
H2207 C2220 0.930 . S
H2208 C2224 0.959 . S
H2209 C2224 0.959 . S
H2210 C2224 0.961 . S
H2211 C2225 0.960 . S
H2212 C2225 0.961 . S
H2213 C2225 0.959 . S
H2214 C2228 0.929 . S
H2215 C2229 0.931 . S
H2216 C2231 0.930 . S
C2217 H2205 0.930 . S
C2217 C2218 1.399 . S
C2217 C2222 1.399 . S
C2218 C2217 1.399 . S
C2218 C2219 1.376 . S
C2219 H2206 0.930 . S
C2219 C2218 1.376 . S
C2219 C2220 1.388 . S
C2220 H2207 0.930 . S
C2220 C2219 1.388 . S
C2220 C2221 1.390 . S
C2221 C2220 1.390 . S
C2221 C2222 1.394 . S
C2221 C2227 1.465 . S
C2222 C2217 1.399 . S
C2222 C2221 1.394 . S
C2222 C2223 1.516 . S
C2223 C2222 1.516 . S
C2223 C2224 1.502 . S
C2223 C2225 1.561 . S
C2223 C2226 1.526 . S
C2224 H2208 0.959 . S
C2224 H2209 0.959 . S
C2224 H2210 0.961 . S
C2224 C2223 1.502 . S
C2225 H2211 0.960 . S
C2225 H2212 0.961 . S
C2225 H2213 0.959 . S
C2225 C2223 1.561 . S
C2226 C2223 1.526 . S
C2226 C2227 1.396 . S
C2226 C2231 1.390 . S
C2227 C2221 1.465 . S
C2227 C2226 1.396 . S
C2227 C2228 1.399 . S
C2228 H2214 0.929 . S
C2228 C2227 1.399 . S
C2228 C2229 1.385 . S
C2229 H2215 0.931 . S
C2229 C2228 1.385 . S
C2229 C2230 1.389 . S
C2230 C2229 1.389 . S
C2230 C2231 1.387 . S
C2231 H2216 0.930 . S
C2231 C2226 1.390 . S
C2231 C2230 1.387 . S
H2232 C2244 0.930 . S
H2233 C2246 0.930 . S
H2234 C2247 0.935 . S
H2235 C2251 0.959 . S
H2236 C2251 0.959 . S
H2237 C2251 0.961 . S
H2238 C2252 0.960 . S
H2239 C2252 0.961 . S
H2240 C2252 0.959 . S
H2241 C2255 0.929 . S
H2242 C2256 0.931 . S
H2243 C2258 0.930 . S
C2244 H2232 0.930 . S
C2244 C2245 1.399 . S
C2244 C2249 1.399 . S
C2245 C2244 1.399 . S
C2245 C2246 1.376 . S
C2246 H2233 0.930 . S
C2246 C2245 1.376 . S
C2246 C2247 1.382 1_545 S
C2247 H2234 0.935 . S
C2247 C2246 1.382 1_565 S
C2247 C2248 1.391 1_565 S
C2248 C2247 1.391 1_545 S
C2248 C2249 1.394 . S
C2248 C2254 1.465 1_545 S
C2249 C2244 1.399 . S
C2249 C2248 1.394 . S
C2249 C2250 1.516 . S
C2250 C2249 1.516 . S
C2250 C2251 1.502 . S
C2250 C2252 1.561 . S
C2250 C2253 1.526 . S
C2251 H2235 0.959 . S
C2251 H2236 0.959 . S
C2251 H2237 0.961 . S
C2251 C2250 1.502 . S
C2252 H2238 0.960 . S
C2252 H2239 0.961 . S
C2252 H2240 0.959 . S
C2252 C2250 1.561 . S
C2253 C2250 1.526 . S
C2253 C2254 1.396 1_545 S
C2253 C2258 1.390 . S
C2254 C2248 1.465 1_565 S
C2254 C2253 1.396 1_565 S
C2254 C2255 1.399 . S
C2255 H2241 0.929 . S
C2255 C2254 1.399 . S
C2255 C2256 1.385 . S
C2256 H2242 0.931 . S
C2256 C2255 1.385 . S
C2256 C2257 1.389 . S
C2257 C2256 1.389 . S
C2257 C2258 1.387 1_565 S
C2258 H2243 0.930 . S
C2258 C2253 1.390 . S
C2258 C2257 1.387 1_545 S
H2259 C2271 0.930 1_655 S
H2260 C2273 0.930 . S
H2261 C2274 0.930 . S
H2262 C2278 0.959 . S
H2263 C2278 0.959 . S
H2264 C2278 0.961 . S
H2265 C2279 0.960 . S
H2266 C2279 0.961 . S
H2267 C2279 0.959 . S
H2268 C2282 0.929 1_455 S
H2269 C2283 0.931 . S
H2270 C2285 0.930 . S
C2271 H2259 0.930 1_455 S
C2271 C2272 1.399 . S
C2271 C2276 1.399 1_455 S
C2272 C2271 1.399 . S
C2272 C2273 1.376 . S
C2273 H2260 0.930 . S
C2273 C2272 1.376 . S
C2273 C2274 1.388 . S
C2274 H2261 0.930 . S
C2274 C2273 1.388 . S
C2274 C2275 1.390 . S
C2275 C2274 1.390 . S
C2275 C2276 1.394 1_455 S
C2275 C2281 1.465 1_455 S
C2276 C2271 1.399 1_655 S
C2276 C2275 1.394 1_655 S
C2276 C2277 1.516 . S
C2277 C2276 1.516 . S
C2277 C2278 1.502 . S
C2277 C2279 1.561 . S
C2277 C2280 1.526 . S
C2278 H2262 0.959 . S
C2278 H2263 0.959 . S
C2278 H2264 0.961 . S
C2278 C2277 1.502 . S
C2279 H2265 0.960 . S
C2279 H2266 0.961 . S
C2279 H2267 0.959 . S
C2279 C2277 1.561 . S
C2280 C2277 1.526 . S
C2280 C2281 1.396 . S
C2280 C2285 1.390 . S
C2281 C2275 1.465 1_655 S
C2281 C2280 1.396 . S
C2281 C2282 1.399 . S
C2282 H2268 0.929 1_655 S
C2282 C2281 1.399 . S
C2282 C2283 1.385 . S
C2283 H2269 0.931 . S
C2283 C2282 1.385 . S
C2283 C2284 1.389 . S
C2284 C2283 1.389 . S
C2284 C2285 1.387 . S
C2285 H2270 0.930 . S
C2285 C2280 1.390 . S
C2285 C2284 1.387 . S
H2286 C2298 0.930 . S
H2287 C2300 0.930 . S
H2288 C2301 0.930 . S
H2289 C2305 0.959 1_455 S
H2290 C2305 0.959 1_455 S
H2291 C2305 0.961 . S
H2292 C2306 0.960 . S
H2293 C2306 0.961 . S
H2294 C2306 0.959 . S
H2295 C2309 0.929 . S
H2296 C2310 0.931 . S
H2297 C2312 0.930 . S
C2298 H2286 0.930 . S
C2298 C2299 1.399 . S
C2298 C2303 1.399 . S
C2299 C2298 1.399 . S
C2299 C2300 1.376 . S
C2300 H2287 0.930 . S
C2300 C2299 1.376 . S
C2300 C2301 1.388 . S
C2301 H2288 0.930 . S
C2301 C2300 1.388 . S
C2301 C2302 1.390 . S
C2302 C2301 1.390 . S
C2302 C2303 1.394 . S
C2302 C2308 1.465 1_655 S
C2303 C2298 1.399 . S
C2303 C2302 1.394 . S
C2303 C2304 1.516 . S
C2304 C2303 1.516 . S
C2304 C2305 1.502 . S
C2304 C2306 1.561 . S
C2304 C2307 1.526 1_655 S
C2305 H2289 0.959 1_655 S
C2305 H2290 0.959 1_655 S
C2305 H2291 0.961 . S
C2305 C2304 1.502 . S
C2306 H2292 0.960 . S
C2306 H2293 0.961 . S
C2306 H2294 0.959 . S
C2306 C2304 1.561 . S
C2307 C2304 1.526 1_455 S
C2307 C2308 1.396 . S
C2307 C2312 1.390 . S
C2308 C2302 1.465 1_455 S
C2308 C2307 1.396 . S
C2308 C2309 1.399 . S
C2309 H2295 0.929 . S
C2309 C2308 1.399 . S
C2309 C2310 1.385 . S
C2310 H2296 0.931 . S
C2310 C2309 1.385 . S
C2310 C2311 1.389 . S
C2311 C2310 1.389 . S
C2311 C2312 1.387 . S
C2312 H2297 0.930 . S
C2312 C2307 1.390 . S
C2312 C2311 1.387 . S
H2313 C2325 0.930 . S
H2314 C2327 0.930 . S
H2315 C2328 0.930 . S
H2316 C2332 0.959 . S
H2317 C2332 0.959 . S
H2318 C2332 0.961 . S
H2319 C2333 0.960 . S
H2320 C2333 0.961 . S
H2321 C2333 0.959 . S
H2322 C2336 0.929 . S
H2323 C2337 0.931 . S
H2324 C2339 0.930 . S
C2325 H2313 0.930 . S
C2325 C2326 1.399 . S
C2325 C2330 1.399 . S
C2326 C2325 1.399 . S
C2326 C2327 1.376 . S
C2327 H2314 0.930 . S
C2327 C2326 1.376 . S
C2327 C2328 1.388 . S
C2328 H2315 0.930 . S
C2328 C2327 1.388 . S
C2328 C2329 1.390 . S
C2329 C2328 1.390 . S
C2329 C2330 1.394 . S
C2329 C2335 1.465 . S
C2330 C2325 1.399 . S
C2330 C2329 1.394 . S
C2330 C2331 1.516 . S
C2331 C2330 1.516 . S
C2331 C2332 1.502 . S
C2331 C2333 1.561 . S
C2331 C2334 1.526 . S
C2332 H2316 0.959 . S
C2332 H2317 0.959 . S
C2332 H2318 0.961 . S
C2332 C2331 1.502 . S
C2333 H2319 0.960 . S
C2333 H2320 0.961 . S
C2333 H2321 0.959 . S
C2333 C2331 1.561 . S
C2334 C2331 1.526 . S
C2334 C2335 1.396 . S
C2334 C2339 1.390 . S
C2335 C2329 1.465 . S
C2335 C2334 1.396 . S
C2335 C2336 1.399 . S
C2336 H2322 0.929 . S
C2336 C2335 1.399 . S
C2336 C2337 1.385 . S
C2337 H2323 0.931 . S
C2337 C2336 1.385 . S
C2337 C2338 1.389 . S
C2338 C2337 1.389 . S
C2338 C2339 1.387 . S
C2339 H2324 0.930 . S
C2339 C2334 1.390 . S
C2339 C2338 1.387 . S
H2340 C2352 0.930 . S
H2341 C2354 0.930 . S
H2342 C2355 0.930 . S
H2343 C2359 0.959 . S
H2344 C2359 0.959 . S
H2345 C2359 0.961 . S
H2346 C2360 0.960 . S
H2347 C2360 0.961 . S
H2348 C2360 0.959 . S
H2349 C2363 0.929 . S
H2350 C2364 0.931 . S
H2351 C2366 0.930 . S
C2352 H2340 0.930 . S
C2352 C2353 1.399 . S
C2352 C2357 1.399 . S
C2353 C2352 1.399 . S
C2353 C2354 1.376 . S
C2354 H2341 0.930 . S
C2354 C2353 1.376 . S
C2354 C2355 1.388 . S
C2355 H2342 0.930 . S
C2355 C2354 1.388 . S
C2355 C2356 1.390 . S
C2356 C2355 1.390 . S
C2356 C2357 1.394 . S
C2356 C2362 1.465 1_565 S
C2357 C2352 1.399 . S
C2357 C2356 1.394 . S
C2357 C2358 1.516 . S
C2358 C2357 1.516 . S
C2358 C2359 1.502 . S
C2358 C2360 1.561 . S
C2358 C2361 1.526 1_565 S
C2359 H2343 0.959 . S
C2359 H2344 0.959 . S
C2359 H2345 0.961 . S
C2359 C2358 1.502 . S
C2360 H2346 0.960 . S
C2360 H2347 0.961 . S
C2360 H2348 0.959 . S
C2360 C2358 1.561 . S
C2361 C2358 1.526 1_545 S
C2361 C2362 1.396 . S
C2361 C2366 1.390 . S
C2362 C2356 1.465 1_545 S
C2362 C2361 1.396 . S
C2362 C2363 1.399 . S
C2363 H2349 0.929 . S
C2363 C2362 1.399 . S
C2363 C2364 1.385 . S
C2364 H2350 0.931 . S
C2364 C2363 1.385 . S
C2364 C2365 1.389 . S
C2365 C2364 1.389 . S
C2365 C2366 1.387 . S
C2366 H2351 0.930 . S
C2366 C2361 1.390 . S
C2366 C2365 1.387 . S
H2367 C2379 0.930 . S
H2368 C2381 0.930 . S
H2369 C2382 0.930 . S
H2370 C2386 0.959 . S
H2371 C2386 0.959 . S
H2372 C2386 0.976 . S
H2373 C2387 0.960 1_565 S
H2374 C2387 0.961 . S
H2375 C2387 0.959 . S
H2376 C2390 0.929 . S
H2377 C2391 0.931 . S
H2378 C2393 0.930 . S
C2379 H2367 0.930 . S
C2379 C2380 1.399 . S
C2379 C2384 1.399 . S
C2380 C2379 1.399 . S
C2380 C2381 1.376 . S
C2381 H2368 0.930 . S
C2381 C2380 1.376 . S
C2381 C2382 1.388 . S
C2382 H2369 0.930 . S
C2382 C2381 1.388 . S
C2382 C2383 1.390 . S
C2383 C2382 1.390 . S
C2383 C2384 1.394 . S
C2383 C2389 1.465 1_565 S
C2384 C2379 1.399 . S
C2384 C2383 1.394 . S
C2384 C2385 1.516 1_565 S
C2385 C2384 1.516 1_545 S
C2385 C2386 1.502 . S
C2385 C2387 1.561 . S
C2385 C2388 1.526 . S
C2386 H2370 0.959 . S
C2386 H2371 0.959 . S
C2386 H2372 0.976 . S
C2386 C2385 1.502 . S
C2387 H2373 0.960 1_545 S
C2387 H2374 0.961 . S
C2387 H2375 0.959 . S
C2387 C2385 1.561 . S
C2388 C2385 1.526 . S
C2388 C2389 1.396 . S
C2388 C2393 1.390 . S
C2389 C2383 1.465 1_545 S
C2389 C2388 1.396 . S
C2389 C2390 1.399 . S
C2390 H2376 0.929 . S
C2390 C2389 1.399 . S
C2390 C2391 1.385 . S
C2391 H2377 0.931 . S
C2391 C2390 1.385 . S
C2391 C2392 1.389 . S
C2392 C2391 1.389 . S
C2392 C2393 1.387 . S
C2393 H2378 0.930 . S
C2393 C2388 1.390 . S
C2393 C2392 1.387 . S
H2394 C2406 0.930 . S
H2395 C2408 0.930 . S
H2396 C2409 0.930 . S
H2397 C2413 0.957 1_455 S
H2398 C2413 0.937 1_455 S
H2399 C2413 0.973 . S
H2400 C2414 0.960 . S
H2401 C2414 0.961 1_455 S
H2402 C2414 0.959 . S
H2403 C2417 0.929 . S
H2404 C2418 0.931 . S
H2405 C2420 0.930 . S
C2406 H2394 0.930 . S
C2406 C2407 1.399 . S
C2406 C2411 1.399 . S
C2407 C2406 1.399 . S
C2407 C2408 1.376 . S
C2408 H2395 0.930 . S
C2408 C2407 1.376 . S
C2408 C2409 1.388 . S
C2409 H2396 0.930 . S
C2409 C2408 1.388 . S
C2409 C2410 1.390 . S
C2410 C2409 1.390 . S
C2410 C2411 1.394 . S
C2410 C2416 1.465 1_655 S
C2411 C2406 1.399 . S
C2411 C2410 1.394 . S
C2411 C2412 1.516 . S
C2412 C2411 1.516 . S
C2412 C2413 1.515 . S
C2412 C2414 1.561 . S
C2412 C2415 1.526 1_655 S
C2413 H2397 0.957 1_655 S
C2413 H2398 0.937 1_655 S
C2413 H2399 0.973 . S
C2413 C2412 1.515 . S
C2414 H2400 0.960 . S
C2414 H2401 0.961 1_655 S
C2414 H2402 0.959 . S
C2414 C2412 1.561 . S
C2415 C2412 1.526 1_455 S
C2415 C2416 1.396 . S
C2415 C2420 1.390 . S
C2416 C2410 1.465 1_455 S
C2416 C2415 1.396 . S
C2416 C2417 1.399 . S
C2417 H2403 0.929 . S
C2417 C2416 1.399 . S
C2417 C2418 1.385 . S
C2418 H2404 0.931 . S
C2418 C2417 1.385 . S
C2418 C2419 1.389 . S
C2419 C2418 1.389 . S
C2419 C2420 1.387 . S
C2420 H2405 0.930 . S
C2420 C2415 1.390 . S
C2420 C2419 1.387 . S
H2421 C2433 0.930 . S
H2422 C2435 0.930 . S
H2423 C2436 0.930 . S
H2424 C2440 0.959 . S
H2425 C2440 0.959 . S
H2426 C2440 0.961 . S
H2427 C2441 0.960 . S
H2428 C2441 0.961 . S
H2429 C2441 0.959 . S
H2430 C2444 0.929 . S
H2431 C2445 0.931 . S
H2432 C2447 0.930 . S
C2433 H2421 0.930 . S
C2433 C2434 1.399 . S
C2433 C2438 1.399 . S
C2434 C2433 1.399 . S
C2434 C2435 1.376 . S
C2435 H2422 0.930 . S
C2435 C2434 1.376 . S
C2435 C2436 1.388 . S
C2436 H2423 0.930 . S
C2436 C2435 1.388 . S
C2436 C2437 1.390 . S
C2437 C2436 1.390 . S
C2437 C2438 1.394 . S
C2437 C2443 1.465 . S
C2438 C2433 1.399 . S
C2438 C2437 1.394 . S
C2438 C2439 1.516 . S
C2439 C2438 1.516 . S
C2439 C2440 1.502 . S
C2439 C2441 1.561 . S
C2439 C2442 1.526 . S
C2440 H2424 0.959 . S
C2440 H2425 0.959 . S
C2440 H2426 0.961 . S
C2440 C2439 1.502 . S
C2441 H2427 0.960 . S
C2441 H2428 0.961 . S
C2441 H2429 0.959 . S
C2441 C2439 1.561 . S
C2442 C2439 1.526 . S
C2442 C2443 1.396 . S
C2442 C2447 1.390 . S
C2443 C2437 1.465 . S
C2443 C2442 1.396 . S
C2443 C2444 1.399 . S
C2444 H2430 0.929 . S
C2444 C2443 1.399 . S
C2444 C2445 1.385 . S
C2445 H2431 0.931 . S
C2445 C2444 1.385 . S
C2445 C2446 1.389 . S
C2446 C2445 1.389 . S
C2446 C2447 1.387 . S
C2447 H2432 0.930 . S
C2447 C2442 1.390 . S
C2447 C2446 1.387 . S
C517 C8 1.377 . S
C529 C260 1.311 . S
C544 C17 1.451 . S
C556 C273 1.443 . S
C571 C287 1.501 . S
C583 C31 1.399 . S
C598 C45 1.402 . S
C610 C469 1.481 . S
C625 C483 1.444 . S
C637 C59 1.490 . S
C652 C78 1.376 . S
C664 C498 1.312 . S
C679 C344 1.375 . S
C691 C92 1.313 . S
C706 C105 1.487 . S
C718 C353 1.452 . S
C733 C119 1.432 . S
C745 C367 1.474 . S
C760 C133 1.432 . S
C772 C213 1.477 . S
C787 C227 1.438 . S
C799 C147 1.454 . S
C814 C162 1.371 . S
C826 C246 1.323 . S
C841 C176 1.377 . S
C853 C428 1.311 . S
C868 C185 1.434 . S
C880 C441 1.496 . S
C895 C199 1.477 . S
C907 C455 1.455 . S
C922 C301 1.502 . S
C934 C381 1.404 . S
C949 C315 1.473 . S
C961 C395 1.421 . S
C976 C330 1.339 . S
C988 C414 1.351 . S
C1003 C101 1.311 . S
C1015 C3 1.278 . S
C1030 C115 1.347 . S
C1042 C22 1.401 . S
C1057 C36 1.334 . S
C1069 C93 1.233 . S
C1084 C163 1.204 . S
C1096 C50 1.335 . S
C1111 C129 1.335 . S
C1123 C64 1.405 . S
C1138 C143 1.317 . S
C1150 C73 1.276 . S
C1165 C91 1.334 . S
C1177 C21 1.343 . S
C1192 C106 1.416 . S
C1204 C35 1.392 . S
C1219 C120 1.324 . S
C1231 C9 1.245 . S
C1246 C134 1.310 . S
C1258 C79 1.313 . S
C1273 C49 1.422 . S
C1285 C148 1.398 . S
C1300 C63 1.335 . S
C1312 C161 1.341 . S
C1327 C171 1.318 . S
C1339 C269 1.266 . S
C1354 C190 1.424 . S
C1366 C283 1.321 . S
C1381 C204 1.325 . S
C1393 C261 1.274 . S
C1408 C331 1.279 . S
C1420 C218 1.296 . S
C1435 C232 1.421 . S
C1447 C297 1.319 . S
C1462 C311 1.303 . S
C1474 C241 1.281 . S
C1489 C259 1.345 . S
C1501 C189 1.330 . S
C1516 C203 1.344 . S
C1528 C274 1.439 . S
C1543 C177 1.304 . S
C1555 C288 1.343 . S
C1570 C302 1.312 . S
C1582 C247 1.322 . S
C1597 C316 1.418 . S
C1609 C217 1.378 . S
C1624 C329 1.331 . S
C1636 C231 1.345 . S
C1651 C437 1.302 . S
C1663 C339 1.282 . S
C1678 C358 1.391 . S
C1690 C451 1.393 . S
C1705 C372 1.332 . S
C1717 C429 1.246 . S
C1732 C499 1.226 . S
C1744 C386 1.308 . S
C1759 C465 1.378 . S
C1771 C400 1.415 . S
C1786 C479 1.297 . S
C1798 C409 1.347 . S
C1813 C357 1.324 . S
C1825 C427 1.311 . S
C1840 C371 1.339 . S
C1852 C442 1.441 . S
C1867 C345 1.264 . S
C1879 C456 1.316 . S
C1894 C470 1.311 . S
C1906 C415 1.285 . S
C1921 C385 1.375 . S
C1933 C484 1.424 . S
C1948 C497 1.356 . S
C1960 C399 1.273 . S
C1975 C7 1.009 . S
C1987 C413 1.001 . S
C2002 C387 0.902 . S
C2014 C23 1.001 . S
C2029 C37 0.985 . S
C2041 C401 1.011 . S
C2056 C51 1.006 . S
C2068 C191 0.992 . S
C2083 C205 0.907 . S
C2095 C65 0.987 . S
C2110 C77 1.015 . S
C2122 C175 1.009 . S
C2137 C325 1.021 . S
C2149 C87 0.946 . S
C2164 C107 0.988 . S
C2176 C303 1.037 . S
C2191 C121 1.011 . S
C2203 C317 1.038 . S
C2218 C135 1.040 . S
C2230 C443 1.003 . S
C2245 C149 0.946 . S
C2257 C457 0.919 . S
C2272 C423 0.959 . S
C2284 C157 0.932 . S
C2299 C219 1.009 . S
C2311 C359 0.988 . S
C2326 C373 1.018 . S
C2338 C233 0.977 . S
C2353 C343 1.007 . S
C2365 C245 1.000 . S
C2380 C493 0.937 . S
C2392 C255 1.013 . S
C2407 C275 0.927 . S
C2419 C471 0.931 . S
C2434 C289 1.009 . S
C2446 C485 1.039 . S
