# Generated by pormake.
# Topology gsi, (4)-cn, num edge types: 1
# Building blocks:
#     Node 0, Type 0, BuildingBlock: TATPOV_clean_sbu_0, # of connection points: 4
#     Node 1, Type 0, BuildingBlock: TATPOV_clean_sbu_0, # of connection points: 4
#     Node 2, Type 0, BuildingBlock: TATPOV_clean_sbu_0, # of connection points: 4
#     Node 3, Type 0, BuildingBlock: TATPOV_clean_sbu_0, # of connection points: 4
#     Node 4, Type 0, BuildingBlock: TATPOV_clean_sbu_0, # of connection points: 4
#     Node 5, Type 0, BuildingBlock: TATPOV_clean_sbu_0, # of connection points: 4
#     Node 6, Type 0, BuildingBlock: TATPOV_clean_sbu_0, # of connection points: 4
#     Node 7, Type 0, BuildingBlock: TATPOV_clean_sbu_0, # of connection points: 4
#     Node 8, Type 0, BuildingBlock: TATPOV_clean_sbu_0, # of connection points: 4
#     Node 9, Type 0, BuildingBlock: TATPOV_clean_sbu_0, # of connection points: 4
#     Node 10, Type 0, BuildingBlock: TATPOV_clean_sbu_0, # of connection points: 4
#     Node 11, Type 0, BuildingBlock: TATPOV_clean_sbu_0, # of connection points: 4
#     Node 12, Type 0, BuildingBlock: TATPOV_clean_sbu_0, # of connection points: 4
#     Node 13, Type 0, BuildingBlock: TATPOV_clean_sbu_0, # of connection points: 4
#     Node 14, Type 0, BuildingBlock: TATPOV_clean_sbu_0, # of connection points: 4
#     Node 15, Type 0, BuildingBlock: TATPOV_clean_sbu_0, # of connection points: 4
#     Edge 16, Type (0, 0), BuildingBlock: TEMPAE_clean_linker_10, # of connection points: 2
#     Edge 17, Type (0, 0), BuildingBlock: TEMPAE_clean_linker_10, # of connection points: 2
#     Edge 18, Type (0, 0), BuildingBlock: TEMPAE_clean_linker_10, # of connection points: 2
#     Edge 19, Type (0, 0), BuildingBlock: TEMPAE_clean_linker_10, # of connection points: 2
#     Edge 20, Type (0, 0), BuildingBlock: TEMPAE_clean_linker_10, # of connection points: 2
#     Edge 21, Type (0, 0), BuildingBlock: TEMPAE_clean_linker_10, # of connection points: 2
#     Edge 22, Type (0, 0), BuildingBlock: TEMPAE_clean_linker_10, # of connection points: 2
#     Edge 23, Type (0, 0), BuildingBlock: TEMPAE_clean_linker_10, # of connection points: 2
#     Edge 24, Type (0, 0), BuildingBlock: TEMPAE_clean_linker_10, # of connection points: 2
#     Edge 25, Type (0, 0), BuildingBlock: TEMPAE_clean_linker_10, # of connection points: 2
#     Edge 26, Type (0, 0), BuildingBlock: TEMPAE_clean_linker_10, # of connection points: 2
#     Edge 27, Type (0, 0), BuildingBlock: TEMPAE_clean_linker_10, # of connection points: 2
#     Edge 28, Type (0, 0), BuildingBlock: TEMPAE_clean_linker_10, # of connection points: 2
#     Edge 29, Type (0, 0), BuildingBlock: TEMPAE_clean_linker_10, # of connection points: 2
#     Edge 30, Type (0, 0), BuildingBlock: TEMPAE_clean_linker_10, # of connection points: 2
#     Edge 31, Type (0, 0), BuildingBlock: TEMPAE_clean_linker_10, # of connection points: 2
#     Edge 32, Type (0, 0), BuildingBlock: TEMPAE_clean_linker_10, # of connection points: 2
#     Edge 33, Type (0, 0), BuildingBlock: TEMPAE_clean_linker_10, # of connection points: 2
#     Edge 34, Type (0, 0), BuildingBlock: TEMPAE_clean_linker_10, # of connection points: 2
#     Edge 35, Type (0, 0), BuildingBlock: TEMPAE_clean_linker_10, # of connection points: 2
#     Edge 36, Type (0, 0), BuildingBlock: TEMPAE_clean_linker_10, # of connection points: 2
#     Edge 37, Type (0, 0), BuildingBlock: TEMPAE_clean_linker_10, # of connection points: 2
#     Edge 38, Type (0, 0), BuildingBlock: TEMPAE_clean_linker_10, # of connection points: 2
#     Edge 39, Type (0, 0), BuildingBlock: TEMPAE_clean_linker_10, # of connection points: 2
#     Edge 40, Type (0, 0), BuildingBlock: TEMPAE_clean_linker_10, # of connection points: 2
#     Edge 41, Type (0, 0), BuildingBlock: TEMPAE_clean_linker_10, # of connection points: 2
#     Edge 42, Type (0, 0), BuildingBlock: TEMPAE_clean_linker_10, # of connection points: 2
#     Edge 43, Type (0, 0), BuildingBlock: TEMPAE_clean_linker_10, # of connection points: 2
#     Edge 44, Type (0, 0), BuildingBlock: TEMPAE_clean_linker_10, # of connection points: 2
#     Edge 45, Type (0, 0), BuildingBlock: TEMPAE_clean_linker_10, # of connection points: 2
#     Edge 46, Type (0, 0), BuildingBlock: TEMPAE_clean_linker_10, # of connection points: 2
#     Edge 47, Type (0, 0), BuildingBlock: TEMPAE_clean_linker_10, # of connection points: 2
# Relax obj value: 0.042
# Max RMSD: 0.070
# Mean RMSD: 0.054
data_MOF--net-gsi--node1-TATPOV_clean_sbu_0--edge1-TEMPAE_clean_linker_10
_symmetry_space_group_name_H-M    P1
_symmetry_Int_Tables_number       1
_symmetry_cell_setting            triclinic
loop_
_symmetry_equiv_pos_as_xyz
'x, y, z'
_cell_length_a     42.286554
_cell_length_b     42.685861
_cell_length_c     43.595991
_cell_angle_alpha  90.748421
_cell_angle_beta   90.286234
_cell_angle_gamma 92.795441
loop_
_atom_site_label
_atom_site_type_symbol
_atom_site_fract_x
_atom_site_fract_y
_atom_site_fract_z
_atom_type_partial_charge
Zn0 Zn 0.08841 0.13676 0.20007 0.0
Zn1 Zn 0.13043 0.13053 0.15599 0.0
O2 O 0.12152 0.08499 0.17197 0.0
O3 O 0.08253 0.09069 0.20453 0.0
O4 O 0.16217 0.12717 0.12147 0.0
O5 O 0.06033 0.1596 0.17222 0.0
O6 O 0.09421 0.15346 0.13482 0.0
C7 C 0.10144 0.07319 0.19097 0.0
C8 C 0.14822 0.16693 0.21513 0.0
O9 O 0.15464 0.15819 0.18791 0.0
O10 O 0.12136 0.16002 0.22656 0.0
C11 C 0.1919 0.12574 0.12556 0.0
O12 O 0.20312 0.12445 0.15365 0.0
C13 C 0.06825 0.16375 0.14457 0.0
Zn14 Zn 0.93945 0.36428 0.1889 0.0
Zn15 Zn 0.8998 0.37665 0.14344 0.0
O16 O 0.91008 0.42102 0.16228 0.0
O17 O 0.94205 0.40974 0.20024 0.0
O18 O 0.86961 0.38175 0.10783 0.0
O19 O 0.97061 0.34778 0.15963 0.0
O20 O 0.93602 0.35305 0.12246 0.0
C21 C 0.92725 0.42971 0.18537 0.0
C22 C 0.87861 0.33411 0.19668 0.0
O23 O 0.87291 0.34949 0.17262 0.0
O24 O 0.90623 0.33493 0.2081 0.0
C25 C 0.84021 0.38617 0.11074 0.0
O26 O 0.82856 0.39033 0.1383 0.0
C27 C 0.96271 0.34407 0.13177 0.0
Zn28 Zn 0.22491 0.88825 0.35816 0.0
Zn29 Zn 0.17214 0.85394 0.37296 0.0
O30 O 0.1933 0.86533 0.41529 0.0
O31 O 0.23636 0.89328 0.40262 0.0
O32 O 0.1301 0.83112 0.38292 0.0
O33 O 0.20012 0.92062 0.33748 0.0
O34 O 0.15776 0.88953 0.34486 0.0
C35 C 0.21869 0.88101 0.42297 0.0
C36 C 0.22175 0.82515 0.33258 0.0
O37 O 0.19629 0.82216 0.34797 0.0
O38 O 0.2379 0.85095 0.33279 0.0
C39 C 0.12683 0.8016 0.38653 0.0
O40 O 0.15198 0.78474 0.38518 0.0
C41 C 0.17094 0.9141 0.33323 0.0
Zn42 Zn 0.80962 0.6092 0.36273 0.0
Zn43 Zn 0.85722 0.65143 0.36926 0.0
O44 O 0.84132 0.64281 0.41413 0.0
O45 O 0.80342 0.60599 0.40781 0.0
O46 O 0.8968 0.68044 0.37329 0.0
O47 O 0.83546 0.57857 0.34067 0.0
O48 O 0.87408 0.61503 0.34267 0.0
C49 C 0.8201 0.62396 0.42536 0.0
C50 C 0.79903 0.66823 0.33307 0.0
O51 O 0.82617 0.67652 0.34415 0.0
O52 O 0.78702 0.641 0.33804 0.0
C53 C 0.91121 0.68843 0.3981 0.0
O54 O 0.89967 0.67852 0.42436 0.0
C55 C 0.86318 0.58809 0.33352 0.0
Zn56 Zn 0.43011 0.85064 0.70426 0.0
Zn57 Zn 0.39498 0.86682 0.6565 0.0
O58 O 0.40586 0.90989 0.67748 0.0
O59 O 0.43353 0.8957 0.7175 0.0
O60 O 0.36731 0.8751 0.61981 0.0
O61 O 0.46245 0.83417 0.67619 0.0
O62 O 0.43183 0.84327 0.63669 0.0
C63 C 0.4212 0.91695 0.70213 0.0
C64 C 0.36794 0.82279 0.70645 0.0
O65 O 0.36491 0.83947 0.68272 0.0
O66 O 0.39447 0.82187 0.71987 0.0
C67 C 0.33864 0.88254 0.6222 0.0
O68 O 0.32688 0.88742 0.6496 0.0
C69 C 0.45711 0.83259 0.64763 0.0
Zn70 Zn 0.88491 0.82723 0.83027 0.0
Zn71 Zn 0.85108 0.84663 0.87567 0.0
O72 O 0.89099 0.82745 0.89615 0.0
O73 O 0.92079 0.81683 0.85639 0.0
O74 O 0.82368 0.85729 0.91257 0.0
O75 O 0.88532 0.8691 0.81119 0.0
O76 O 0.85852 0.88775 0.85002 0.0
C77 C 0.91675 0.8179 0.88502 0.0
C78 C 0.82554 0.79519 0.83028 0.0
O79 O 0.8214 0.81484 0.85198 0.0
O80 O 0.85227 0.79394 0.81759 0.0
C81 C 0.81587 0.83435 0.92986 0.0
O82 O 0.82634 0.80663 0.92304 0.0
C83 C 0.87249 0.8918 0.82427 0.0
Zn84 Zn 0.11084 0.677 0.77752 0.0
Zn85 Zn 0.14112 0.65698 0.82734 0.0
O86 O 0.10293 0.67865 0.84632 0.0
O87 O 0.07887 0.69587 0.80544 0.0
O88 O 0.16468 0.64181 0.86438 0.0
O89 O 0.10418 0.63302 0.76158 0.0
O90 O 0.13094 0.61663 0.80125 0.0
C91 C 0.08047 0.69324 0.83431 0.0
C92 C 0.17454 0.70225 0.78242 0.0
O93 O 0.17408 0.68721 0.80747 0.0
O94 O 0.1505 0.70139 0.76497 0.0
C95 C 0.17188 0.66135 0.88587 0.0
O96 O 0.16356 0.69046 0.88324 0.0
C97 C 0.11623 0.61093 0.77596 0.0
Zn98 Zn 0.77063 0.0779 0.63814 0.0
Zn99 Zn 0.82541 0.11149 0.63169 0.0
O100 O 0.83596 0.07317 0.65813 0.0
O101 O 0.79244 0.04265 0.65803 0.0
O102 O 0.86815 0.1344 0.62606 0.0
O103 O 0.76266 0.0785 0.59254 0.0
O104 O 0.80803 0.10534 0.58727 0.0
C105 C 0.82094 0.048 0.6663 0.0
C106 C 0.77353 0.13798 0.67048 0.0
O107 O 0.8003 0.14182 0.65744 0.0
O108 O 0.75673 0.11286 0.66632 0.0
C109 C 0.87036 0.16236 0.61625 0.0
O110 O 0.84435 0.17635 0.6092 0.0
C111 C 0.78293 0.09229 0.57548 0.0
Zn112 Zn 0.1034 0.32664 0.70912 0.0
Zn113 Zn 0.13093 0.33276 0.65721 0.0
O114 O 0.09045 0.30341 0.64683 0.0
O115 O 0.07116 0.29547 0.69297 0.0
O116 O 0.15372 0.33986 0.61643 0.0
O117 O 0.09288 0.37109 0.71302 0.0
O118 O 0.12237 0.37848 0.67208 0.0
C119 C 0.06971 0.29024 0.66439 0.0
C120 C 0.16616 0.30763 0.71291 0.0
O121 O 0.16499 0.31223 0.68406 0.0
O122 O 0.14257 0.31315 0.72945 0.0
C123 C 0.16825 0.31822 0.60293 0.0
O124 O 0.16748 0.29016 0.61503 0.0
C125 C 0.10618 0.3895 0.69408 0.0
Zn126 Zn 0.629 0.18172 0.27083 0.0
Zn127 Zn 0.65669 0.16281 0.3221 0.0
O128 O 0.61765 0.18536 0.33823 0.0
O129 O 0.59538 0.20154 0.29598 0.0
O130 O 0.67736 0.14962 0.36152 0.0
O131 O 0.62295 0.13745 0.25581 0.0
O132 O 0.64745 0.12141 0.29702 0.0
C133 C 0.59572 0.19962 0.32494 0.0
C134 C 0.69261 0.20658 0.27752 0.0
O135 O 0.69113 0.19209 0.30287 0.0
O136 O 0.66917 0.20563 0.25933 0.0
C137 C 0.70185 0.1335 0.3628 0.0
O138 O 0.71449 0.12366 0.33716 0.0
C139 C 0.63391 0.11545 0.27116 0.0
Zn140 Zn 0.59875 0.63687 0.6983 0.0
Zn141 Zn 0.64105 0.63246 0.65437 0.0
O142 O 0.63476 0.58673 0.67072 0.0
O143 O 0.59709 0.59109 0.70494 0.0
O144 O 0.6726 0.62995 0.61969 0.0
O145 O 0.5682 0.6555 0.66979 0.0
O146 O 0.60338 0.65303 0.633 0.0
C147 C 0.61631 0.57437 0.69085 0.0
C148 C 0.65656 0.67149 0.7125 0.0
O149 O 0.66404 0.6618 0.68586 0.0
O150 O 0.62969 0.66394 0.72359 0.0
C151 C 0.70235 0.62831 0.62344 0.0
O152 O 0.71389 0.62672 0.65139 0.0
C153 C 0.57619 0.6605 0.6423 0.0
Zn154 Zn 0.73306 0.3658 0.84795 0.0
Zn155 Zn 0.67423 0.34223 0.86103 0.0
O156 O 0.69465 0.35264 0.90417 0.0
O157 O 0.74096 0.37525 0.89236 0.0
O158 O 0.62947 0.32475 0.8691 0.0
O159 O 0.7146 0.39864 0.82156 0.0
O160 O 0.66667 0.37931 0.83245 0.0
C161 C 0.7209 0.36651 0.9123 0.0
C162 C 0.72113 0.30275 0.82584 0.0
O163 O 0.69366 0.30679 0.83658 0.0
O164 O 0.74305 0.32384 0.82909 0.0
C165 C 0.62192 0.30533 0.89005 0.0
O166 O 0.64398 0.29631 0.90886 0.0
C167 C 0.68486 0.39901 0.81846 0.0
Zn168 Zn 0.30401 0.11288 0.86659 0.0
Zn169 Zn 0.3549 0.15015 0.87484 0.0
O170 O 0.33692 0.14331 0.91938 0.0
O171 O 0.2963 0.10981 0.91138 0.0
O172 O 0.39687 0.17488 0.8804 0.0
O173 O 0.32706 0.0797 0.84517 0.0
O174 O 0.36935 0.11157 0.84984 0.0
C175 C 0.31382 0.12609 0.92967 0.0
C176 C 0.30041 0.17254 0.8364 0.0
O177 O 0.32794 0.17804 0.84792 0.0
O178 O 0.28538 0.14678 0.84162 0.0
C179 C 0.40127 0.20164 0.89334 0.0
O180 O 0.37696 0.21543 0.90519 0.0
C181 C 0.35604 0.0859 0.83996 0.0
Zn182 Zn 0.38134 0.31981 0.32179 0.0
Zn183 Zn 0.35113 0.33897 0.3702 0.0
O184 O 0.39368 0.32212 0.38733 0.0
O185 O 0.41996 0.31161 0.34516 0.0
O186 O 0.32624 0.34845 0.40917 0.0
O187 O 0.37732 0.36147 0.30277 0.0
O188 O 0.35465 0.38003 0.34413 0.0
C189 C 0.41867 0.3133 0.37404 0.0
C190 C 0.32391 0.28565 0.32718 0.0
O191 O 0.32125 0.30559 0.3489 0.0
O192 O 0.34936 0.2849 0.31217 0.0
C193 C 0.2961 0.34868 0.4086 0.0
O194 O 0.28141 0.34576 0.38202 0.0
C195 C 0.36535 0.38401 0.31696 0.0
Zn196 Zn 0.25451 0.59275 0.15312 0.0
Zn197 Zn 0.31318 0.61779 0.14176 0.0
O198 O 0.32253 0.57751 0.16534 0.0
O199 O 0.2747 0.55661 0.17384 0.0
O200 O 0.35582 0.63907 0.13164 0.0
O201 O 0.24364 0.59164 0.10827 0.0
O202 O 0.29065 0.61382 0.09917 0.0
C203 C 0.30447 0.556 0.17692 0.0
C204 C 0.2675 0.65206 0.18338 0.0
O205 O 0.29455 0.64959 0.17114 0.0
O206 O 0.24549 0.6314 0.1784 0.0
C207 C 0.3795 0.6386 0.14971 0.0
O208 O 0.3768 0.62245 0.1751 0.0
C209 C 0.26357 0.60324 0.08951 0.0
Zn210 Zn 0.59364 0.82978 0.21092 0.0
Zn211 Zn 0.62513 0.83193 0.15934 0.0
O212 O 0.58337 0.80484 0.14854 0.0
O213 O 0.55741 0.80511 0.19223 0.0
O214 O 0.64953 0.83475 0.11897 0.0
O215 O 0.59196 0.87582 0.21461 0.0
O216 O 0.62101 0.87894 0.17288 0.0
C217 C 0.55896 0.79679 0.16437 0.0
C218 C 0.65353 0.80222 0.21625 0.0
O219 O 0.65539 0.80912 0.18792 0.0
O220 O 0.62917 0.80862 0.23139 0.0
C221 C 0.67792 0.84626 0.11886 0.0
O222 O 0.69064 0.8565 0.1449 0.0
C223 C 0.60698 0.89223 0.1951 0.0
C224 C 0.17356 0.17995 0.26569 0.0
C225 C 0.1725 0.18422 0.23388 0.0
C226 C 0.19734 0.19517 0.28373 0.0
C227 C 0.21986 0.21586 0.26968 0.0
C228 C 0.21838 0.22082 0.23764 0.0
C229 C 0.195 0.20449 0.22002 0.0
C230 C 0.19881 0.18854 0.31764 0.0
C231 C 0.24152 0.24336 0.22196 0.0
C232 C 0.26616 0.27771 0.31703 0.0
C233 C 0.2964 0.26572 0.31697 0.0
C234 C 0.24067 0.26133 0.30236 0.0
C235 C 0.2455 0.2319 0.28821 0.0
C236 C 0.27556 0.21879 0.28996 0.0
C237 C 0.30083 0.23615 0.30387 0.0
C238 C 0.20917 0.2764 0.30033 0.0
C239 C 0.28135 0.187 0.27606 0.0
H240 H 0.15632 0.16397 0.27635 0.0
H241 H 0.19403 0.20789 0.19543 0.0
H242 H 0.22185 0.1786 0.32335 0.0
H243 H 0.19734 0.21063 0.33111 0.0
H244 H 0.17945 0.17183 0.325 0.0
H245 H 0.23591 0.24597 0.19723 0.0
H246 H 0.24145 0.26679 0.2333 0.0
H247 H 0.26586 0.235 0.22404 0.0
H248 H 0.26285 0.30076 0.32689 0.0
H249 H 0.32425 0.22686 0.30399 0.0
H250 H 0.18981 0.25997 0.3081 0.0
H251 H 0.20412 0.28204 0.27607 0.0
H252 H 0.20872 0.29834 0.31429 0.0
H253 H 0.26276 0.16947 0.2834 0.0
H254 H 0.30488 0.17861 0.2826 0.0
H255 H 0.28012 0.18824 0.25069 0.0
C256 C 0.82196 0.32606 0.21088 0.0
C257 C 0.85281 0.31556 0.21141 0.0
C258 C 0.79698 0.30855 0.22441 0.0
C259 C 0.80288 0.27933 0.23779 0.0
C260 C 0.83408 0.2687 0.23852 0.0
C261 C 0.85883 0.28726 0.22574 0.0
C262 C 0.76419 0.32107 0.22391 0.0
C263 C 0.84108 0.23722 0.25168 0.0
C264 C 0.73989 0.24208 0.28953 0.0
C265 C 0.72199 0.22371 0.26833 0.0
C266 C 0.76658 0.26026 0.28003 0.0
C267 C 0.77596 0.25901 0.2489 0.0
C268 C 0.75866 0.23933 0.22778 0.0
C269 C 0.73154 0.22235 0.23766 0.0
C270 C 0.78395 0.28168 0.30297 0.0
C271 C 0.76846 0.23659 0.1946 0.0
H272 H 0.81742 0.34815 0.20009 0.0
H273 H 0.88272 0.27911 0.22599 0.0
H274 H 0.74845 0.30597 0.20888 0.0
H275 H 0.7539 0.32054 0.24728 0.0
H276 H 0.7642 0.34548 0.21537 0.0
H277 H 0.8668 0.23299 0.25165 0.0
H278 H 0.83228 0.23546 0.27554 0.0
H279 H 0.82848 0.21831 0.23804 0.0
H280 H 0.7323 0.24317 0.31323 0.0
H281 H 0.7178 0.2078 0.22137 0.0
H282 H 0.78211 0.30643 0.29596 0.0
H283 H 0.80948 0.27685 0.30345 0.0
H284 H 0.77434 0.27907 0.32652 0.0
H285 H 0.76579 0.25929 0.18302 0.0
H286 H 0.75409 0.21816 0.18188 0.0
H287 H 0.79378 0.23105 0.19313 0.0
C288 C 0.28648 0.68933 0.22459 0.0
C289 C 0.26216 0.67815 0.2048 0.0
C290 C 0.28111 0.71268 0.24662 0.0
C291 C 0.25105 0.72582 0.24805 0.0
C292 C 0.22665 0.71512 0.22755 0.0
C293 C 0.23236 0.69096 0.2065 0.0
C294 C 0.30737 0.72287 0.2687 0.0
C295 C 0.19462 0.7293 0.22771 0.0
C296 C 0.22375 0.76813 0.31956 0.0
C297 C 0.23108 0.79946 0.31219 0.0
C298 C 0.23117 0.74375 0.29933 0.0
C299 C 0.24516 0.7511 0.27068 0.0
C300 C 0.25261 0.78275 0.2632 0.0
C301 C 0.24595 0.80653 0.28429 0.0
C302 C 0.2238 0.7102 0.30845 0.0
C303 C 0.26661 0.79157 0.2325 0.0
H304 H 0.30941 0.67908 0.22349 0.0
H305 H 0.21362 0.68233 0.19107 0.0
H306 H 0.31362 0.74822 0.26605 0.0
H307 H 0.29926 0.71949 0.29266 0.0
H308 H 0.32903 0.70959 0.26515 0.0
H309 H 0.1787 0.71918 0.20941 0.0
H310 H 0.18304 0.72542 0.2502 0.0
H311 H 0.19745 0.75504 0.22451 0.0
H312 H 0.21235 0.7627 0.34121 0.0
H313 H 0.25125 0.83082 0.27841 0.0
H314 H 0.24524 0.69638 0.3061 0.0
H315 H 0.20542 0.6993 0.29293 0.0
H316 H 0.21518 0.7084 0.33243 0.0
H317 H 0.28928 0.78004 0.22905 0.0
H318 H 0.27103 0.81731 0.2303 0.0
H319 H 0.25029 0.78316 0.21381 0.0
C320 C 0.75304 0.67899 0.29948 0.0
C321 C 0.78135 0.68984 0.31384 0.0
C322 C 0.73533 0.69889 0.2817 0.0
C323 C 0.74604 0.73054 0.27821 0.0
C324 C 0.77499 0.74154 0.29192 0.0
C325 C 0.79237 0.72101 0.30961 0.0
C326 C 0.70458 0.68622 0.26743 0.0
C327 C 0.78708 0.77518 0.28867 0.0
C328 C 0.7038 0.77317 0.21529 0.0
C329 C 0.67937 0.78644 0.23192 0.0
C330 C 0.72681 0.7561 0.23022 0.0
C331 C 0.72531 0.75242 0.26243 0.0
C332 C 0.70163 0.76708 0.27942 0.0
C333 C 0.67896 0.78382 0.26397 0.0
C334 C 0.75178 0.74079 0.21139 0.0
C335 C 0.69928 0.76385 0.31383 0.0
H336 H 0.74444 0.65487 0.30233 0.0
H337 H 0.81429 0.72953 0.32048 0.0
H338 H 0.68446 0.69822 0.27782 0.0
H339 H 0.70431 0.69101 0.24248 0.0
H340 H 0.70064 0.66056 0.27069 0.0
H341 H 0.81128 0.77934 0.29839 0.0
H342 H 0.78739 0.78183 0.26415 0.0
H343 H 0.77092 0.79092 0.30067 0.0
H344 H 0.70438 0.77527 0.19054 0.0
H345 H 0.66045 0.79438 0.27709 0.0
H346 H 0.74718 0.71497 0.21125 0.0
H347 H 0.77557 0.74571 0.22169 0.0
H348 H 0.75206 0.74893 0.18728 0.0
H349 H 0.69277 0.73912 0.31953 0.0
H350 H 0.68129 0.77901 0.3239 0.0
H351 H 0.7225 0.76998 0.32486 0.0
C352 C 0.31039 0.81797 0.71787 0.0
C353 C 0.34021 0.80513 0.7188 0.0
C354 C 0.28379 0.80175 0.73002 0.0
C355 C 0.28699 0.77152 0.74229 0.0
C356 C 0.31708 0.75834 0.74302 0.0
C357 C 0.3435 0.77561 0.73175 0.0
C358 C 0.25227 0.81695 0.72968 0.0
C359 C 0.32119 0.72571 0.75492 0.0
C360 C 0.2227 0.73661 0.79396 0.0
C361 C 0.2036 0.71959 0.77268 0.0
C362 C 0.24987 0.75396 0.78438 0.0
C363 C 0.25857 0.75315 0.75305 0.0
C364 C 0.23976 0.73518 0.73169 0.0
C365 C 0.21215 0.71908 0.7417 0.0
C366 C 0.26882 0.77368 0.8076 0.0
C367 C 0.24881 0.73288 0.69828 0.0
H368 H 0.30799 0.84099 0.70813 0.0
H369 H 0.36661 0.76569 0.73228 0.0
H370 H 0.23539 0.80333 0.71452 0.0
H371 H 0.24201 0.81693 0.75307 0.0
H372 H 0.25432 0.8415 0.72149 0.0
H373 H 0.34619 0.71892 0.75388 0.0
H374 H 0.31307 0.7241 0.77901 0.0
H375 H 0.30635 0.70848 0.74121 0.0
H376 H 0.21589 0.73705 0.8179 0.0
H377 H 0.19749 0.70556 0.72534 0.0
H378 H 0.26975 0.79861 0.8006 0.0
H379 H 0.29355 0.76621 0.80848 0.0
H380 H 0.25863 0.77205 0.83099 0.0
H381 H 0.2483 0.7563 0.68762 0.0
H382 H 0.23268 0.71632 0.6851 0.0
H383 H 0.27335 0.725 0.69621 0.0
C384 C 0.67929 0.68797 0.7633 0.0
C385 C 0.6797 0.69034 0.73125 0.0
C386 C 0.70202 0.70449 0.78154 0.0
C387 C 0.72505 0.72455 0.7674 0.0
C388 C 0.72502 0.72769 0.73508 0.0
C389 C 0.70262 0.7101 0.71732 0.0
C390 C 0.70191 0.69981 0.81582 0.0
C391 C 0.74874 0.74949 0.71926 0.0
C392 C 0.7688 0.78797 0.81512 0.0
C393 C 0.79876 0.77564 0.81781 0.0
C394 C 0.74434 0.77143 0.79902 0.0
C395 C 0.74986 0.74153 0.78625 0.0
C396 C 0.7796 0.7283 0.79041 0.0
C397 C 0.8039 0.74578 0.80571 0.0
C398 C 0.71318 0.78659 0.79439 0.0
C399 C 0.78605 0.69604 0.778 0.0
H400 H 0.66175 0.67241 0.77407 0.0
H401 H 0.7028 0.71207 0.69255 0.0
H402 H 0.72466 0.69026 0.82314 0.0
H403 H 0.69983 0.72261 0.82795 0.0
H404 H 0.68222 0.68351 0.82323 0.0
H405 H 0.74418 0.75079 0.6942 0.0
H406 H 0.74813 0.77345 0.72936 0.0
H407 H 0.773 0.74138 0.72279 0.0
H408 H 0.76501 0.81126 0.82417 0.0
H409 H 0.8271 0.73625 0.80794 0.0
H410 H 0.69332 0.77088 0.80232 0.0
H411 H 0.70935 0.79056 0.76956 0.0
H412 H 0.7123 0.80943 0.80679 0.0
H413 H 0.76729 0.67875 0.78544 0.0
H414 H 0.80938 0.68804 0.78567 0.0
H415 H 0.78565 0.69621 0.75256 0.0
C416 C 0.70308 0.26444 0.7853 0.0
C417 C 0.72658 0.2753 0.80613 0.0
C418 C 0.70939 0.2416 0.76304 0.0
C419 C 0.73956 0.22862 0.76241 0.0
C420 C 0.76283 0.23839 0.78446 0.0
C421 C 0.75625 0.26212 0.80572 0.0
C422 C 0.68432 0.23245 0.73936 0.0
C423 C 0.79486 0.22426 0.78521 0.0
C424 C 0.74732 0.15161 0.71941 0.0
C425 C 0.7633 0.16149 0.69287 0.0
C426 C 0.73963 0.17319 0.74236 0.0
C427 C 0.74714 0.2055 0.73812 0.0
C428 C 0.7624 0.21569 0.71089 0.0
C429 C 0.77087 0.19344 0.6888 0.0
C430 C 0.72436 0.16134 0.77152 0.0
C431 C 0.76989 0.25006 0.70515 0.0
H432 H 0.68029 0.27503 0.78534 0.0
H433 H 0.77438 0.27058 0.82189 0.0
H434 H 0.69312 0.23864 0.71616 0.0
H435 H 0.67918 0.20673 0.73936 0.0
H436 H 0.66189 0.24433 0.74341 0.0
H437 H 0.80916 0.23239 0.8055 0.0
H438 H 0.79204 0.19828 0.78555 0.0
H439 H 0.80822 0.23068 0.7642 0.0
H440 H 0.74188 0.12681 0.72275 0.0
H441 H 0.78319 0.20101 0.66823 0.0
H442 H 0.70136 0.17222 0.77505 0.0
H443 H 0.73969 0.16816 0.79149 0.0
H444 H 0.72025 0.13543 0.77126 0.0
H445 H 0.74815 0.26341 0.7076 0.0
H446 H 0.77984 0.2542 0.68193 0.0
H447 H 0.78723 0.2596 0.72244 0.0
C448 C 0.19868 0.29926 0.75935 0.0
C449 C 0.19412 0.2947 0.72769 0.0
C450 C 0.22128 0.28298 0.77538 0.0
C451 C 0.2397 0.26143 0.75937 0.0
C452 C 0.23719 0.25876 0.72698 0.0
C453 C 0.21438 0.27557 0.71142 0.0
C454 C 0.2233 0.28678 0.80985 0.0
C455 C 0.2567 0.23627 0.70908 0.0
C456 C 0.30253 0.22284 0.80675 0.0
C457 C 0.28578 0.19545 0.81615 0.0
C458 C 0.28837 0.24418 0.78721 0.0
C459 C 0.25677 0.23799 0.77714 0.0
C460 C 0.24002 0.21016 0.7862 0.0
C461 C 0.2547 0.1893 0.80549 0.0
C462 C 0.30696 0.27355 0.77783 0.0
C463 C 0.20616 0.20271 0.77618 0.0
H464 H 0.18351 0.31459 0.77195 0.0
H465 H 0.2111 0.27219 0.68689 0.0
H466 H 0.21224 0.26562 0.82075 0.0
H467 H 0.24833 0.28903 0.8176 0.0
H468 H 0.21093 0.3076 0.81817 0.0
H469 H 0.25654 0.24125 0.68414 0.0
H470 H 0.28156 0.23731 0.71745 0.0
H471 H 0.24689 0.21197 0.71238 0.0
H472 H 0.32664 0.22764 0.81467 0.0
H473 H 0.24154 0.16819 0.81248 0.0
H474 H 0.29631 0.29438 0.78825 0.0
H475 H 0.30591 0.27623 0.75257 0.0
H476 H 0.33216 0.27343 0.78512 0.0
H477 H 0.19068 0.22079 0.78544 0.0
H478 H 0.19701 0.17938 0.78413 0.0
H479 H 0.20428 0.20314 0.7508 0.0
C480 C 0.15991 0.96592 0.31166 0.0
C481 C 0.15354 0.93347 0.31185 0.0
C482 C 0.14743 0.98443 0.28871 0.0
C483 C 0.12894 0.96995 0.26477 0.0
C484 C 0.12191 0.93718 0.26516 0.0
C485 C 0.13401 0.91932 0.28902 0.0
C486 C 0.15468 0.01945 0.28974 0.0
C487 C 0.10302 0.9208 0.23968 0.0
C488 C 0.08168 0.02938 0.22397 0.0
C489 C 0.10382 0.04082 0.20239 0.0
C490 C 0.08829 0.00421 0.24286 0.0
C491 C 0.11739 0.98963 0.23956 0.0
C492 C 0.13785 -0.00171 0.2151 0.0
C493 C 0.13093 0.02403 0.19686 0.0
C494 C 0.06577 -0.0042 0.26859 0.0
C495 C 0.16853 0.98241 0.2101 0.0
H496 H 0.17512 0.97677 0.3293 0.0
H497 H 0.12965 0.89408 0.28886 0.0
H498 H 0.16923 0.0265 0.26964 0.0
H499 H 0.13241 0.0321 0.2885 0.0
H500 H 0.16771 0.02717 0.31092 0.0
H501 H 0.09637 0.89603 0.24525 0.0
H502 H 0.08117 0.93321 0.23472 0.0
H503 H 0.11732 0.92107 0.21841 0.0
H504 H 0.06029 0.04178 0.228 0.0
H505 H 0.14798 0.03239 0.17999 0.0
H506 H 0.07571 0.00554 0.29052 0.0
H507 H 0.06275 0.97001 0.27105 0.0
H508 H 0.04212 0.00543 0.26496 0.0
H509 H 0.18611 0.99098 0.22763 0.0
H510 H 0.17851 0.9874 0.18705 0.0
H511 H 0.16506 0.95665 0.21265 0.0
C512 C 0.94919 0.47163 0.22067 0.0
C513 C 0.92657 0.46185 0.19842 0.0
C514 C 0.94419 0.49712 0.24031 0.0
C515 C 0.91596 0.51328 0.23746 0.0
C516 C 0.89502 0.50601 0.21259 0.0
C517 C 0.90056 0.48024 0.19329 0.0
C518 C 0.96735 0.5043 0.26622 0.0
C519 C 0.86506 0.52328 0.20832 0.0
C520 C 0.87471 0.53647 0.31052 0.0
C521 C 0.88092 0.56897 0.31174 0.0
C522 C 0.88684 0.51814 0.28693 0.0
C523 C 0.9053 0.53275 0.26362 0.0
C524 C 0.91273 0.56544 0.26532 0.0
C525 C 0.90057 0.58321 0.28958 0.0
C526 C 0.87897 0.48321 0.28645 0.0
C527 C 0.93209 0.58187 0.24081 0.0
H528 H 0.96974 0.45788 0.22436 0.0
H529 H 0.88313 0.473 0.17596 0.0
H530 H 0.97122 0.52997 0.26983 0.0
H531 H 0.95752 0.49438 0.28777 0.0
H532 H 0.99056 0.49399 0.26192 0.0
H533 H 0.85454 0.51895 0.18515 0.0
H534 H 0.84744 0.51528 0.22567 0.0
H535 H 0.8697 0.54889 0.21176 0.0
H536 H 0.85961 0.52542 0.32771 0.0
H537 H 0.90505 0.60844 0.29025 0.0
H538 H 0.901 0.47018 0.28513 0.0
H539 H 0.86452 0.47672 0.2658 0.0
H540 H 0.8656 0.47539 0.30707 0.0
H541 H 0.95335 0.56874 0.23518 0.0
H542 H 0.93975 0.6062 0.2478 0.0
H543 H 0.91768 0.5829 0.21954 0.0
C544 C 0.30691 0.15353 0.9803 0.0
C545 C 0.30529 0.1259 0.96254 0.0
C546 C 0.29208 0.15465 0.00916 0.0
C547 C 0.27573 0.1274 0.02047 0.0
C548 C 0.27632 0.09891 1.00358 0.0
C549 C 0.29086 0.09859 0.97478 0.0
C550 C 0.29197 0.18549 0.02644 0.0
C551 C 0.25972 0.06917 0.01493 0.0
C552 C 0.24605 0.12173 0.10273 0.0
C553 C 0.21372 0.12691 0.09894 0.0
C554 C 0.26681 0.12265 0.07758 0.0
C555 C 0.25502 0.12915 0.048 0.0
C556 C 0.22256 0.13508 0.0442 0.0
C557 C 0.20233 0.13373 0.06963 0.0
C558 C 0.30115 0.11591 0.08254 0.0
C559 C 0.20901 0.14227 0.01309 0.0
H560 H 0.31785 0.17473 0.9708 0.0
H561 H 0.28979 0.0771 0.96118 0.0
H562 H 0.26797 0.19483 0.02517 0.0
H563 H 0.29759 0.18223 0.05104 0.0
H564 H 0.3092 0.20321 0.01687 0.0
H565 H 0.26555 0.04831 1.00094 0.0
H566 H 0.26622 0.06501 0.03917 0.0
H567 H 0.23372 0.07154 0.01401 0.0
H568 H 0.25511 0.11652 0.12529 0.0
H569 H 0.17749 0.13807 0.06648 0.0
H570 H 0.3167 0.13497 0.07288 0.0
H571 H 0.30659 0.0939 0.07026 0.0
H572 H 0.30709 0.1134 0.10721 0.0
H573 H 0.22282 0.16212 1.00265 0.0
H574 H 0.18379 0.1483 0.01432 0.0
H575 H 0.21079 0.12164 0.99755 0.0
C576 C 0.78773 0.3937 0.08523 0.0
C577 C 0.81897 0.3841 0.08349 0.0
C578 C 0.76739 0.39131 0.05956 0.0
C579 C 0.77841 0.3786 0.03164 0.0
C580 C 0.80974 0.36838 0.02996 0.0
C581 C 0.82966 0.37147 0.05577 0.0
C582 C 0.73435 0.40292 0.06212 0.0
C583 C 0.82239 0.35441 1.00074 0.0
C584 C 0.72439 0.34813 0.96654 0.0
C585 C 0.72954 0.37177 0.94491 0.0
C586 C 0.73881 0.35065 0.99574 0.0
C587 C 0.75823 0.3777 1.00345 0.0
C588 C 0.76126 0.40264 0.98244 0.0
C589 C 0.7472 0.3992 0.95334 0.0
C590 C 0.73519 0.32343 0.01738 0.0
C591 C 0.7811 0.43217 0.98988 0.0
H592 H 0.77926 0.40344 0.10657 0.0
H593 H 0.85362 0.36367 0.05427 0.0
H594 H 0.73162 0.42279 0.04632 0.0
H595 H 0.71666 0.38412 0.05511 0.0
H596 H 0.72888 0.41088 0.08579 0.0
H597 H 0.84658 0.34584 1.00374 0.0
H598 H 0.80644 0.33456 0.99265 0.0
H599 H 0.82312 0.37227 0.98246 0.0
H600 H 0.71094 0.32681 0.95995 0.0
H601 H 0.75101 0.41762 0.93666 0.0
H602 H 0.72985 0.33178 0.0409 0.0
H603 H 0.75781 0.31137 0.01855 0.0
H604 H 0.71618 0.30611 0.00983 0.0
H605 H 0.77525 0.44131 0.013 0.0
H606 H 0.77767 0.45086 0.97286 0.0
H607 H 0.80652 0.42682 0.99014 0.0
C608 C 0.32838 0.87103 0.56652 0.0
C609 C 0.31813 0.88336 0.59453 0.0
C610 C 0.30897 0.87064 0.5403 0.0
C611 C 0.27866 0.8833 0.54193 0.0
C612 C 0.26812 0.8958 0.57012 0.0
C613 C 0.28791 0.89551 0.59614 0.0
C614 C 0.32103 0.85685 0.51075 0.0
C615 C 0.23617 0.90989 0.57265 0.0
C616 C 0.24919 0.90937 0.46462 0.0
C617 C 0.2293 0.88369 0.45535 0.0
C618 C 0.26384 0.91038 0.49355 0.0
C619 C 0.25896 0.8848 0.51358 0.0
C620 C 0.23761 0.85951 0.50501 0.0
C621 C 0.22277 0.85938 0.47602 0.0
C622 C 0.2859 0.9381 0.50196 0.0
C623 C 0.23196 0.83169 0.52563 0.0
H624 H 0.35155 0.86132 0.56509 0.0
H625 H 0.27978 0.90506 0.6177 0.0
H626 H 0.30393 0.83834 0.50185 0.0
H627 H 0.32325 0.87531 0.49311 0.0
H628 H 0.34445 0.84652 0.51369 0.0
H629 H 0.23104 0.91774 0.59643 0.0
H630 H 0.23519 0.93033 0.55727 0.0
H631 H 0.21724 0.89256 0.56508 0.0
H632 H 0.25406 0.92839 0.44881 0.0
H633 H 0.20754 0.83941 0.46888 0.0
H634 H 0.31067 0.93066 0.50236 0.0
H635 H 0.28048 0.94707 0.52525 0.0
H636 H 0.28432 0.95757 0.48544 0.0
H637 H 0.25377 0.8183 0.52682 0.0
H638 H 0.21221 0.81567 0.51723 0.0
H639 H 0.2266 0.83956 0.5493 0.0
C640 C 0.75608 0.6236 0.59986 0.0
C641 C 0.72376 0.62902 0.59652 0.0
C642 C 0.77634 0.62377 0.57435 0.0
C643 C 0.76404 0.6297 0.54484 0.0
C644 C 0.73161 0.63592 0.54147 0.0
C645 C 0.71189 0.63537 0.56727 0.0
C646 C 0.8107 0.61681 0.57885 0.0
C647 C 0.71753 0.64253 0.51044 0.0
C648 C 0.81446 0.65232 0.47569 0.0
C649 C 0.81223 0.62437 0.45842 0.0
C650 C 0.80039 0.65411 0.50484 0.0
C651 C 0.78417 0.6272 0.51699 0.0
C652 C 0.78419 0.59837 0.50061 0.0
C653 C 0.79802 0.59737 0.47149 0.0
C654 C 0.80092 0.68528 0.52159 0.0
C655 C 0.76768 0.56897 0.51285 0.0
H656 H 0.7655 0.61875 0.62238 0.0
H657 H 0.68704 0.63987 0.56444 0.0
H658 H 0.81566 0.59443 0.56701 0.0
H659 H 0.82622 0.63545 0.56846 0.0
H660 H 0.81711 0.61487 0.60347 0.0
H661 H 0.69238 0.64879 0.51196 0.0
H662 H 0.73127 0.66204 0.49936 0.0
H663 H 0.71885 0.62154 0.49529 0.0
H664 H 0.82529 0.67328 0.46561 0.0
H665 H 0.79652 0.57561 0.45833 0.0
H666 H 0.80699 0.68245 0.54615 0.0
H667 H 0.777 0.69484 0.52057 0.0
H668 H 0.8181 0.70264 0.51139 0.0
H669 H 0.77465 0.5653 0.53705 0.0
H670 H 0.7731 0.54779 0.49915 0.0
H671 H 0.74169 0.57149 0.51236 0.0
C672 C 0.01388 0.32057 0.12128 0.0
C673 C 0.98242 0.32426 0.11238 0.0
C674 C 0.02932 0.29347 0.11318 0.0
C675 C 0.01292 0.26988 0.09534 0.0
C676 C 0.98389 0.27661 0.08113 0.0
C677 C 0.96854 0.30372 0.09022 0.0
C678 C 0.06111 0.28816 0.12767 0.0
C679 C 0.9673 0.25353 0.05931 0.0
C680 C 0.06125 0.19787 0.09854 0.0
C681 C 0.04925 0.18451 0.12562 0.0
C682 C 0.04701 0.22371 0.08544 0.0
C683 C 0.02094 0.23678 0.10036 0.0
C684 C 0.00664 0.2209 0.12549 0.0
C685 C 0.0207 0.19471 0.13741 0.0
C686 C 0.06154 0.23813 0.05711 0.0
C687 C 0.97854 0.23347 0.14219 0.0
H688 H 0.02515 0.33716 0.13746 0.0
H689 H 0.94454 0.30693 0.08242 0.0
H690 H 0.05842 0.26963 0.14523 0.0
H691 H 0.07784 0.2801 0.11012 0.0
H692 H 0.07167 0.30975 0.1389 0.0
H693 H 0.95297 0.2659 0.04228 0.0
H694 H 0.98449 0.23913 0.047 0.0
H695 H 0.95095 0.23755 0.07226 0.0
H696 H 0.08285 0.18959 0.08868 0.0
H697 H 0.01065 0.18381 0.15771 0.0
H698 H 0.08395 0.25131 0.06338 0.0
H699 H 0.04554 0.25423 0.04563 0.0
H700 H 0.06765 0.2194 0.04054 0.0
H701 H 0.98501 0.25695 0.15226 0.0
H702 H 0.97009 0.21792 0.16099 0.0
H703 H 0.95859 0.23615 0.12604 0.0
C704 C 0.95614 0.71452 0.36907 0.0
C705 C 0.94178 0.70718 0.39722 0.0
C706 C 0.98582 0.73078 0.36789 0.0
C707 C 1.00155 0.74015 0.39552 0.0
C708 C 0.98691 0.73341 0.42399 0.0
C709 C 0.95728 0.71696 0.4245 0.0
C710 C 1.00062 0.73742 0.33706 0.0
C711 C 0.00279 0.74315 0.45395 0.0
C712 C 0.09119 0.75336 0.39254 0.0
C713 C 0.09483 0.78612 0.39034 0.0
C714 C 0.06103 0.73819 0.39462 0.0
C715 C 0.03374 0.75615 0.39457 0.0
C716 C 0.03724 0.78925 0.39289 0.0
C717 C 0.0677 0.80383 0.39078 0.0
C718 C 0.05837 0.70285 0.39636 0.0
C719 C 0.00876 0.80926 0.39288 0.0
H720 H 0.94443 0.70708 0.34784 0.0
H721 H 0.94639 0.71153 0.44637 0.0
H722 H 0.00615 0.76295 0.33475 0.0
H723 H 0.02329 0.72551 0.33517 0.0
H724 H 0.98496 0.72935 0.31769 0.0
H725 H 0.98776 0.73726 0.47409 0.0
H726 H 0.02545 0.73132 0.45632 0.0
H727 H 0.00855 0.76879 0.45426 0.0
H728 H 0.11193 0.73942 0.39224 0.0
H729 H 0.0702 0.82914 0.38912 0.0
H730 H 0.04486 0.69305 0.37627 0.0
H731 H 0.04513 0.69561 0.41721 0.0
H732 H 0.08188 0.69233 0.39688 0.0
H733 H 0.99367 0.80328 0.37254 0.0
H734 H 0.0155 0.83473 0.39249 0.0
H735 H 0.99416 0.8044 0.41351 0.0
C736 C 0.52429 0.68314 0.63284 0.0
C737 C 0.5555 0.6795 0.62331 0.0
C738 C 0.50759 0.70885 0.62353 0.0
C739 C 0.52232 0.73107 0.60365 0.0
C740 C 0.55131 0.72422 0.58953 0.0
C741 C 0.56797 0.6986 0.5999 0.0
C742 C 0.4761 0.71435 0.63843 0.0
C743 C 0.56635 0.74555 0.56589 0.0
C744 C 0.46759 0.79788 0.60218 0.0
C745 C 0.47856 0.8143 0.62853 0.0
C746 C 0.48445 0.77286 0.59023 0.0
C747 C 0.51212 0.7639 0.60561 0.0
C748 C 0.52547 0.78348 0.6293 0.0
C749 C 0.50864 0.80866 0.64018 0.0
C750 C 0.47092 0.75449 0.56306 0.0
C751 C 0.55542 0.77562 0.64603 0.0
H752 H 0.51405 0.66762 0.65004 0.0
H753 H 0.59174 0.69535 0.59163 0.0
H754 H 0.47847 0.7351 0.65404 0.0
H755 H 0.45812 0.71917 0.62077 0.0
H756 H 0.4672 0.69391 0.65197 0.0
H757 H 0.57877 0.73163 0.54837 0.0
H758 H 0.5486 0.75968 0.55426 0.0
H759 H 0.58433 0.76174 0.57709 0.0
H760 H 0.44472 0.80269 0.59245 0.0
H761 H 0.51774 0.82213 0.65985 0.0
H762 H 0.45093 0.7387 0.57063 0.0
H763 H 0.48887 0.74017 0.55177 0.0
H764 H 0.46131 0.77065 0.54596 0.0
H765 H 0.55152 0.75315 0.65832 0.0
H766 H 0.56319 0.79405 0.66304 0.0
H767 H 0.5749 0.77269 0.62951 0.0
C768 C 0.8565 0.03905 0.71111 0.0
C769 C 0.83469 0.02704 0.68906 0.0
C770 C 0.86552 0.02072 0.73598 0.0
C771 C 0.85286 0.98953 0.73846 0.0
C772 C 0.83181 0.97697 0.71555 0.0
C773 C 0.82277 -0.00404 0.69134 0.0
C774 C 0.88771 0.03503 0.76011 0.0
C775 C 0.81837 0.94356 0.71686 0.0
C776 C 0.89249 0.92657 0.7826 0.0
C777 C 0.87152 0.92154 0.80715 0.0
C778 C 0.88793 0.95009 0.76115 0.0
C779 C 0.86192 0.9694 0.76444 0.0
C780 C 0.84235 0.96639 0.7907 0.0
C781 C 0.84734 0.94237 0.8118 0.0
C782 C 0.9094 0.9524 0.73359 0.0
C783 C 0.81477 0.98703 0.79535 0.0
H784 H 0.86538 0.06324 0.70975 0.0
H785 H 0.80589 0.9866 0.67437 0.0
H786 H 0.87527 0.03609 0.78242 0.0
H787 H 0.90827 0.02021 0.76335 0.0
H788 H 0.89658 0.0591 0.75415 0.0
H789 H 0.80298 0.93715 0.6968 0.0
H790 H 0.83788 0.92712 0.71771 0.0
H791 H 0.80427 0.94023 0.73806 0.0
H792 H 0.91159 0.91088 0.77908 0.0
H793 H 0.83111 0.93871 0.83073 0.0
H794 H 0.91712 0.97715 0.72934 0.0
H795 H 0.89622 0.94352 0.71292 0.0
H796 H 0.93074 0.9385 0.73637 0.0
H797 H 0.82198 0.01192 0.79104 0.0
H798 H 0.80499 0.98513 0.81889 0.0
H799 H 0.79569 0.98007 0.77871 0.0
C800 C 0.09795 0.57327 0.73441 0.0
C801 C 0.11424 0.57891 0.76227 0.0
C802 C 0.09648 0.54348 0.72042 0.0
C803 C 0.11163 0.51863 0.7346 0.0
C804 C 0.12826 0.52411 0.76262 0.0
C805 C 0.12935 0.5542 0.77614 0.0
C806 C 0.07838 0.53851 0.69065 0.0
C807 C 0.14463 0.49809 0.77845 0.0
C808 C 0.0819 0.43473 0.7197 0.0
C809 C 0.10518 0.42361 0.70009 0.0
C810 C 0.08322 0.46586 0.73029 0.0
C811 C 0.10853 0.48645 0.72112 0.0
C812 C 0.13127 0.47588 0.7001 0.0
C813 C 0.12927 0.4445 0.6897 0.0
C814 C 0.05825 0.47632 0.75234 0.0
C815 C 0.15849 0.49728 0.68971 0.0
H816 H 0.08625 0.59219 0.7234 0.0
H817 H 0.14212 0.55835 0.79754 0.0
H818 H 0.09388 0.52864 0.67288 0.0
H819 H 0.05823 0.52126 0.69395 0.0
H820 H 0.06899 0.56058 0.68195 0.0
H821 H 0.15758 0.50645 0.79947 0.0
H822 H 0.12695 0.4793 0.7849 0.0
H823 H 0.16165 0.48745 0.76259 0.0
H824 H 0.06304 0.41875 0.72761 0.0
H825 H 0.14741 0.43599 0.67468 0.0
H826 H 0.0475 0.49778 0.74387 0.0
H827 H 0.0693 0.48227 0.77495 0.0
H828 H 0.03911 0.45795 0.75574 0.0
H829 H 0.14958 0.51945 0.68082 0.0
H830 H 0.17275 0.48624 0.67157 0.0
H831 H 0.1742 0.50352 0.70954 0.0
C832 C 0.68353 0.83773 0.06184 0.0
C833 C 0.69699 0.84715 0.09019 0.0
C834 C 0.70185 0.83748 0.03494 0.0
C835 C 0.73452 0.84664 0.03638 0.0
C836 C 0.74807 0.85672 0.06482 0.0
C837 C 0.72919 0.85695 0.09127 0.0
C838 C 0.6864 0.82675 1.00508 0.0
C839 C 0.7828 0.86646 0.0675 0.0
C840 C 0.78953 0.81282 0.97694 0.0
C841 C 0.79508 0.83808 0.95704 0.0
C842 C 0.76983 0.81532 1.00262 0.0
C843 C 0.755 0.84376 0.00867 0.0
C844 C 0.76035 0.86938 0.98864 0.0
C845 C 0.7804 0.86629 0.96313 0.0
C846 C 0.76506 0.78748 0.02343 0.0
C847 C 0.74488 0.90005 0.99419 0.0
H848 H 0.65868 0.83026 0.06068 0.0
H849 H 0.7399 0.86431 0.11298 0.0
H850 H 0.69097 0.84461 0.98716 0.0
H851 H 0.69683 0.80479 0.99698 0.0
H852 H 0.66041 0.82237 0.00733 0.0
H853 H 0.78941 0.87514 0.09091 0.0
H854 H 0.79728 0.84622 0.0618 0.0
H855 H 0.78901 0.88518 0.05086 0.0
H856 H 0.80073 0.79091 0.97257 0.0
H857 H 0.78442 0.88591 0.94787 0.0
H858 H 0.73952 0.78037 0.02471 0.0
H859 H 0.77312 0.79396 0.04703 0.0
H860 H 0.77816 0.76697 0.01548 0.0
H861 H 0.71877 0.89602 0.99484 0.0
H862 H 0.7509 0.91752 0.97621 0.0
H863 H 0.75241 0.9101 0.01681 0.0
C864 C 0.19068 0.67135 0.93972 0.0
C865 C 0.18866 0.65148 0.91383 0.0
C866 C 0.20534 0.66208 0.96685 0.0
C867 C 0.21871 0.63234 0.96809 0.0
C868 C 0.2176 0.61252 0.94176 0.0
C869 C 0.20238 0.62223 0.91499 0.0
C870 C 0.20565 0.68377 0.99452 0.0
C871 C 0.23196 0.58083 0.94205 0.0
C872 C 0.27431 0.6218 0.03578 0.0
C873 C 0.25384 0.60711 0.05702 0.0
C874 C 0.26368 0.62886 0.00613 0.0
C875 C 0.23178 0.62134 0.99766 0.0
C876 C 0.21145 0.60531 0.01854 0.0
C877 C 0.22275 0.59826 0.04781 0.0
C878 C 0.2862 0.64551 0.98431 0.0
C879 C 0.17723 0.59699 0.01055 0.0
H880 H 0.18015 0.69398 0.93906 0.0
H881 H 0.20115 0.60684 0.895 0.0
H882 H 0.19203 0.67244 0.01341 0.0
H883 H 0.23025 0.68842 1.00292 0.0
H884 H 0.19523 0.70655 0.98948 0.0
H885 H 0.23138 0.56934 0.91903 0.0
H886 H 0.25688 0.58322 0.95018 0.0
H887 H 0.21885 0.56526 0.95829 0.0
H888 H 0.29838 0.62861 0.04258 0.0
H889 H 0.20671 0.58678 0.06391 0.0
H890 H 0.27889 0.66983 0.9809 0.0
H891 H 0.28543 0.63356 0.96154 0.0
H892 H 0.31099 0.64653 0.99298 0.0
H893 H 0.16437 0.61879 0.00742 0.0
H894 H 0.16507 0.58286 0.02861 0.0
H895 H 0.17556 0.5836 0.98859 0.0
C896 C 0.74116 0.10607 0.395 0.0
C897 C 0.71627 0.12656 0.39294 0.0
C898 C 0.75477 0.09927 0.42351 0.0
C899 C 0.7434 0.11346 0.45057 0.0
C900 C 0.71858 0.13447 0.44856 0.0
C901 C 0.70526 0.14065 0.41985 0.0
C902 C 0.78101 0.07656 0.42474 0.0
C903 C 0.70586 0.15025 0.47683 0.0
C904 C 0.75138 0.07633 0.52868 0.0
C905 C 0.77587 0.09518 0.54227 0.0
C906 C 0.74159 0.08112 0.49837 0.0
C907 C 0.75641 0.10558 0.48122 0.0
C908 C 0.78204 0.12386 0.49432 0.0
C909 C 0.79158 0.11833 0.52466 0.0
C910 C 0.71447 0.06082 0.48517 0.0
C911 C 0.79837 0.15024 0.47682 0.0
H912 H 0.74984 0.09507 0.37435 0.0
H913 H 0.68619 0.15665 0.41852 0.0
H914 H 0.80222 0.08781 0.43617 0.0
H915 H 0.77341 0.05594 0.4386 0.0
H916 H 0.78782 0.06821 0.40156 0.0
H917 H 0.68732 0.16687 0.47125 0.0
H918 H 0.6956 0.1323 0.49258 0.0
H919 H 0.72537 0.16325 0.48938 0.0
H920 H 0.73927 0.0582 0.54201 0.0
H921 H 0.81047 0.13305 0.53498 0.0
H922 H 0.72101 0.05106 0.46249 0.0
H923 H 0.69368 0.07524 0.48155 0.0
H924 H 0.70736 0.04109 0.50043 0.0
H925 H 0.80572 0.14182 0.45389 0.0
H926 H 0.81955 0.16048 0.48918 0.0
H927 H 0.78162 0.16907 0.47312 0.0
C928 C 0.19141 0.3553 0.56351 0.0
C929 C 0.18674 0.32463 0.57448 0.0
C930 C 0.2095 0.36153 0.53703 0.0
C931 C 0.22309 0.33651 0.52092 0.0
C932 C 0.21834 0.30552 0.53183 0.0
C933 C 0.20038 0.29999 0.55844 0.0
C934 C 0.21412 0.39491 0.5263 0.0
C935 C 0.23214 0.27809 0.51527 0.0
C936 C 0.24431 0.34442 0.43643 0.0
C937 C 0.27746 0.34855 0.43754 0.0
C938 C 0.22633 0.34126 0.46336 0.0
C939 C 0.24174 0.34244 0.4923 0.0
C940 C 0.27509 0.34768 0.49367 0.0
C941 C 0.29255 0.35056 0.46632 0.0
C942 C 0.19088 0.33559 0.46076 0.0
C943 C 0.29244 0.34938 0.52403 0.0
H944 H 0.18113 0.37454 0.57576 0.0
H945 H 0.19694 0.27621 0.56663 0.0
H946 H 0.23976 0.40164 0.52518 0.0
H947 H 0.20431 0.39696 0.50281 0.0
H948 H 0.2025 0.41182 0.54164 0.0
H949 H 0.22638 0.25544 0.52672 0.0
H950 H 0.22299 0.27652 0.49137 0.0
H951 H 0.25827 0.28161 0.51399 0.0
H952 H 0.23232 0.34282 0.4144 0.0
H953 H 0.31811 0.3538 0.4675 0.0
H954 H 0.17867 0.35311 0.47483 0.0
H955 H 0.18394 0.31208 0.4698 0.0
H956 H 0.18231 0.33683 0.4367 0.0
H957 H 0.28194 0.36695 0.53941 0.0
H958 H 0.31807 0.35571 0.52135 0.0
H959 H 0.28991 0.32636 0.53551 0.0
C960 C 0.02977 0.71995 0.83949 0.0
C961 C 0.05652 0.70827 0.85361 0.0
C962 C 0.00804 0.73692 0.85614 0.0
C963 C 0.01294 0.74242 0.88801 0.0
C964 C 0.03903 0.72938 0.90285 0.0
C965 C 0.06065 0.71251 0.88541 0.0
C966 C 0.98043 0.75 0.83913 0.0
C967 C 0.04508 0.73419 0.93675 0.0
C968 C 0.97225 0.81645 0.90094 0.0
C969 C 0.94116 0.80408 0.90389 0.0
C970 C 0.99779 0.79669 0.90125 0.0
C971 C 0.99169 0.76397 0.9042 0.0
C972 C 0.9612 0.75256 0.91331 0.0
C973 C 0.93602 0.7729 0.91295 0.0
C974 C 0.03021 0.81014 0.89296 0.0
C975 C 0.9541 0.71809 0.91838 0.0
H976 H 0.02607 0.71643 0.81504 0.0
H977 H 0.08122 0.70347 0.89657 0.0
H978 H 0.95778 0.74194 0.84981 0.0
H979 H 0.98203 0.77601 0.84042 0.0
H980 H 0.97966 0.7428 0.81455 0.0
H981 H 0.05801 0.71448 0.94636 0.0
H982 H 0.06004 0.75601 0.9404 0.0
H983 H 0.02277 0.73653 0.94968 0.0
H984 H 0.9762 0.84066 0.89411 0.0
H985 H 0.91194 0.76331 0.91534 0.0
H986 H 0.03433 0.80605 0.86813 0.0
H987 H 0.04886 0.79849 0.90592 0.0
H988 H 0.03253 0.83581 0.89763 0.0
H989 H 0.94967 0.70614 0.89589 0.0
H990 H 0.93269 0.71412 0.93275 0.0
H991 H 0.97443 0.70719 0.9295 0.0
C992 C 0.03888 0.26274 0.62097 0.0
C993 C 0.04287 0.2697 0.65235 0.0
C994 C 0.01243 0.24418 0.61028 0.0
C995 C 0.98943 0.23266 0.63145 0.0
C996 C 0.99365 0.23933 0.6631 0.0
C997 C 0.02022 0.25752 0.67308 0.0
C998 C 0.00888 0.2372 0.5764 0.0
C999 C 0.96974 0.22773 0.68655 0.0
C1000 C 0.90317 0.21263 0.61246 0.0
C1001 C 0.90156 0.1799 0.61544 0.0
C1002 C 0.93211 0.23004 0.61544 0.0
C1003 C 0.96026 0.21433 0.62114 0.0
C1004 C 0.9591 0.18113 0.62196 0.0
C1005 C 0.92975 0.16432 0.61935 0.0
C1006 C 0.93215 0.26539 0.61474 0.0
C1007 C 0.98858 0.16341 0.62752 0.0
H1008 H 0.05623 0.27194 0.60479 0.0
H1009 H 0.02291 0.26257 0.69741 0.0
H1010 H 0.00551 0.21153 0.57236 0.0
H1011 H 0.98749 0.24812 0.56744 0.0
H1012 H 0.02974 0.24611 0.56317 0.0
H1013 H 0.97662 0.23492 0.71034 0.0
H1014 H 0.94626 0.23701 0.68141 0.0
H1015 H 0.967 0.20176 0.68548 0.0
H1016 H 0.88157 0.2249 0.60928 0.0
H1017 H 0.92882 0.139 0.62124 0.0
H1018 H 0.95151 0.27497 0.6 0.0
H1019 H 0.93643 0.27501 0.63825 0.0
H1020 H 0.90931 0.27384 0.60621 0.0
H1021 H 0.00839 0.17287 0.61325 0.0
H1022 H 0.98471 0.13794 0.62244 0.0
H1023 H 0.99592 0.16635 0.65189 0.0
C1024 C 0.57358 0.22009 0.37457 0.0
C1025 C 0.5706 0.21451 0.34283 0.0
C1026 C 0.55043 0.23617 0.39079 0.0
C1027 C 0.52383 0.24682 0.37482 0.0
C1028 C 0.52029 0.24019 0.34299 0.0
C1029 C 0.54366 0.22425 0.3275 0.0
C1030 C 0.55521 0.24269 0.42462 0.0
C1031 C 0.49216 0.25068 0.3249 0.0
C1032 C 0.44373 0.26999 0.39984 0.0
C1033 C 0.44558 0.3014 0.39092 0.0
C1034 C 0.47084 0.2522 0.39953 0.0
C1035 C 0.50008 0.26641 0.39003 0.0
C1036 C 0.50282 0.29936 0.38651 0.0
C1037 C 0.47534 0.31649 0.3867 0.0
C1038 C 0.4671 0.21734 0.40458 0.0
C1039 C 0.53375 0.31573 0.37757 0.0
H1040 H 0.59435 0.21265 0.3866 0.0
H1041 H 0.54091 0.21973 0.30309 0.0
H1042 H 0.56611 0.26668 0.42788 0.0
H1043 H 0.5324 0.24155 0.43711 0.0
H1044 H 0.57127 0.2259 0.43505 0.0
H1045 H 0.49247 0.2426 0.30059 0.0
H1046 H 0.46979 0.24153 0.33541 0.0
H1047 H 0.49195 0.27667 0.32528 0.0
H1048 H 0.42065 0.25826 0.40295 0.0
H1049 H 0.47672 0.34082 0.37972 0.0
H1050 H 0.4884 0.20849 0.41589 0.0
H1051 H 0.46408 0.20511 0.38205 0.0
H1052 H 0.44597 0.21127 0.41876 0.0
H1053 H 0.55383 0.30604 0.39019 0.0
H1054 H 0.53366 0.3414 0.38213 0.0
H1055 H 0.53773 0.31195 0.35267 0.0
C1056 C 0.60239 0.53139 0.72712 0.0
C1057 C 0.62035 0.54211 0.70197 0.0
C1058 C 0.61055 0.50491 0.74338 0.0
C1059 C 0.63671 0.48802 0.7337 0.0
C1060 C 0.65283 0.49665 0.70643 0.0
C1061 C 0.64471 0.52391 0.69102 0.0
C1062 C 0.59302 0.49695 0.77262 0.0
C1063 C 0.68006 0.4784 0.69472 0.0
C1064 C 0.68441 0.45253 0.79707 0.0
C1065 C 0.6717 0.42168 0.79737 0.0
C1066 C 0.67327 0.47426 0.77631 0.0
C1067 C 0.64969 0.46448 0.75453 0.0
C1068 C 0.63732 0.43305 0.75424 0.0
C1069 C 0.64808 0.41209 0.77614 0.0
C1070 C 0.68634 0.50782 0.77809 0.0
C1071 C 0.61305 0.42154 0.73067 0.0
H1072 H 0.5832 0.54497 0.7356 0.0
H1073 H 0.65849 0.53177 0.67142 0.0
H1074 H 0.58616 0.47158 0.77328 0.0
H1075 H 0.60882 0.50237 0.7926 0.0
H1076 H 0.57135 0.51041 0.7753 0.0
H1077 H 0.6858 0.4841 0.67052 0.0
H1078 H 0.7014 0.48415 0.70899 0.0
H1079 H 0.67458 0.45279 0.69639 0.0
H1080 H 0.70278 0.45979 0.81348 0.0
H1081 H 0.63876 0.38797 0.77607 0.0
H1082 H 0.6668 0.52381 0.78204 0.0
H1083 H 0.69764 0.51445 0.75606 0.0
H1084 H 0.70411 0.51167 0.79678 0.0
H1085 H 0.59099 0.43427 0.73344 0.0
H1086 H 0.60716 0.39598 0.73248 0.0
H1087 H 0.62203 0.42644 0.70725 0.0
C1088 C 0.39732 0.07531 0.80064 0.0
C1089 C 0.37313 0.06419 0.82015 0.0
C1090 C 0.41016 0.0554 0.77847 0.0
C1091 C 0.39873 0.02371 0.77622 0.0
C1092 C 0.37529 0.01216 0.79684 0.0
C1093 C 0.36266 0.03259 0.81836 0.0
C1094 C 0.4349 0.06857 0.75671 0.0
C1095 C 0.36292 0.97833 0.79572 0.0
C1096 C 0.39875 0.97005 0.70671 0.0
C1097 C 0.42126 0.94892 0.71571 0.0
C1098 C 0.39326 -0.00328 0.72477 0.0
C1099 C 0.41063 0.00213 0.75238 0.0
C1100 C 0.43569 0.98275 0.75969 0.0
C1101 C 0.44077 0.95643 0.74119 0.0
C1102 C 0.3668 0.01733 0.71585 0.0
C1103 C 0.45494 0.98776 0.78876 0.0
H1104 H 0.40519 0.09985 0.80176 0.0
H1105 H 0.34407 0.02391 0.83354 0.0
H1106 H 0.4552 0.05312 0.75534 0.0
H1107 H 0.42454 0.06962 0.73333 0.0
H1108 H 0.44382 0.09254 0.76366 0.0
H1109 H 0.34556 0.97288 0.81417 0.0
H1110 H 0.35126 0.97306 0.77326 0.0
H1111 H 0.3828 0.96247 0.79797 0.0
H1112 H 0.38379 0.9646 0.68689 0.0
H1113 H 0.45869 0.94053 0.74798 0.0
H1114 H 0.37394 0.04244 0.7196 0.0
H1115 H 0.3459 0.01185 0.73048 0.0
H1116 H 0.35961 0.01363 0.69148 0.0
H1117 H 0.46158 0.01298 0.79251 0.0
H1118 H 0.47684 0.9744 0.78834 0.0
H1119 H 0.4405 0.9798 0.80863 0.0
C1120 C 0.43891 0.24644 0.90923 0.0
C1121 C 0.43348 0.21733 0.89427 0.0
C1122 C 0.46919 0.26168 0.90973 0.0
C1123 C 0.49468 0.24757 0.89482 0.0
C1124 C 0.48938 0.21813 0.87982 0.0
C1125 C 0.45894 0.20338 0.87978 0.0
C1126 C 0.47387 0.29297 0.92608 0.0
C1127 C 0.51586 0.20231 0.86356 0.0
C1128 C 0.56635 0.29819 0.86964 0.0
C1129 C 0.58891 0.29179 0.89215 0.0
C1130 C 0.53551 0.28433 0.87048 0.0
C1131 C 0.52686 0.26367 0.89451 0.0
C1132 C 0.5493 0.25761 0.91766 0.0
C1133 C 0.58004 0.27164 0.91616 0.0
C1134 C 0.51238 0.29132 0.84527 0.0
C1135 C 0.54098 0.2359 0.94379 0.0
H1136 H 0.41946 0.25743 0.92053 0.0
H1137 H 0.45507 0.18093 0.86812 0.0
H1138 H 0.4925 0.29169 0.94398 0.0
H1139 H 0.4821 0.31116 0.90961 0.0
H1140 H 0.45181 0.30054 0.93706 0.0
H1141 H 0.50792 0.17934 0.85317 0.0
H1142 H 0.52559 0.21764 0.84518 0.0
H1143 H 0.53545 0.19849 0.8799 0.0
H1144 H 0.57291 0.31368 0.85097 0.0
H1145 H 0.59722 0.2666 0.93373 0.0
H1146 H 0.49058 0.30059 0.85524 0.0
H1147 H 0.50529 0.26937 0.83257 0.0
H1148 H 0.52246 0.30861 0.82871 0.0
H1149 H 0.51973 0.24385 0.95589 0.0
H1150 H 0.56064 0.23466 0.96066 0.0
H1151 H 0.53507 0.21192 0.93468 0.0
C1152 C 0.34508 0.53854 0.21422 0.0
C1153 C 0.3175 0.53189 0.19684 0.0
C1154 C 0.35522 0.51731 0.23619 0.0
C1155 C 0.33775 0.48851 0.24032 0.0
C1156 C 0.31036 0.48141 0.22222 0.0
C1157 C 0.3004 0.50331 0.20098 0.0
C1158 C 0.38425 0.5259 0.25538 0.0
C1159 C 0.29153 0.45062 0.22527 0.0
C1160 C 0.37604 0.417 0.27106 0.0
C1161 C 0.36201 0.41372 0.3001 0.0
C1162 C 0.3695 0.44205 0.25202 0.0
C1163 C 0.34874 0.46486 0.26231 0.0
C1164 C 0.33619 0.46301 0.2924 0.0
C1165 C 0.34284 0.43732 0.31095 0.0
C1166 C 0.38322 0.44289 0.22007 0.0
C1167 C 0.31448 0.48732 0.30439 0.0
H1168 H 0.35806 0.56084 0.21146 0.0
H1169 H 0.27906 0.4981 0.18761 0.0
H1170 H 0.37795 0.52583 0.28006 0.0
H1171 H 0.40232 0.50821 0.252 0.0
H1172 H 0.39495 0.54937 0.24965 0.0
H1173 H 0.27097 0.44862 0.20929 0.0
H1174 H 0.30694 0.43082 0.2206 0.0
H1175 H 0.28271 0.44807 0.24907 0.0
H1176 H 0.39125 0.39918 0.26251 0.0
H1177 H 0.33203 0.43511 0.33335 0.0
H1178 H 0.39461 0.46628 0.21545 0.0
H1179 H 0.36391 0.43871 0.20295 0.0
H1180 H 0.40098 0.42487 0.2165 0.0
H1181 H 0.32461 0.51128 0.29992 0.0
H1182 H 0.31019 0.48497 0.3294 0.0
H1183 H 0.29138 0.48477 0.29222 0.0
C1184 C 0.64425 0.05797 0.27345 0.0
C1185 C 0.63143 0.08313 0.25811 0.0
C1186 C 0.64177 0.02744 0.26086 0.0
C1187 C 0.62606 0.02199 0.23234 0.0
C1188 C 0.61363 0.04736 0.21652 0.0
C1189 C 0.61644 0.07754 0.22957 0.0
C1190 C 0.65532 0.00089 0.2784 0.0
C1191 C 0.59659 0.04251 0.18616 0.0
C1192 C 0.63669 0.94431 0.19045 0.0
C1193 C 0.6101 0.92652 0.20053 0.0
C1194 C 0.6421 0.97568 0.20024 0.0
C1195 C 0.62025 0.98943 0.2203 0.0
C1196 C 0.59266 0.97195 0.2293 0.0
C1197 C 0.58798 0.94076 0.21937 0.0
C1198 C 0.67172 -0.0063 0.1901 0.0
C1199 C 0.56851 0.98586 0.25025 0.0
H1200 H 0.65605 0.06208 0.29536 0.0
H1201 H 0.60657 0.09678 0.21737 0.0
H1202 H 0.6359 0.98417 0.2855 0.0
H1203 H 0.67141 0.98777 0.26349 0.0
H1204 H 0.66861 0.00928 0.29921 0.0
H1205 H 0.59014 0.06499 0.17581 0.0
H1206 H 0.61158 0.02996 0.16971 0.0
H1207 H 0.57461 0.02767 0.18942 0.0
H1208 H 0.65398 0.93332 0.17611 0.0
H1209 H 0.56725 0.92717 0.22707 0.0
H1210 H 0.68713 -0.00066 0.2103 0.0
H1211 H 0.66563 0.01629 0.17984 0.0
H1212 H 0.68537 0.98031 0.1731 0.0
H1213 H 0.5796 0.99209 0.27277 0.0
H1214 H 0.54774 0.96947 0.25415 0.0
H1215 H 0.56001 0.00777 0.24038 0.0
C1216 C 0.50226 0.77905 0.16393 0.0
C1217 C 0.53266 0.77624 0.15182 0.0
C1218 C 0.47798 0.75627 0.15799 0.0
C1219 C 0.48421 0.72974 0.13959 0.0
C1220 C 0.51423 0.72784 0.12545 0.0
C1221 C 0.53818 0.75127 0.13166 0.0
C1222 C 0.44627 0.7596 0.17322 0.0
C1223 C 0.52173 0.70008 0.10549 0.0
C1224 C 0.43417 0.65859 0.16452 0.0
C1225 C 0.40848 0.6588 0.14406 0.0
C1226 C 0.46005 0.68027 0.16196 0.0
C1227 C 0.46034 0.70281 0.13838 0.0
C1228 C 0.43545 0.70188 0.11648 0.0
C1229 C 0.40979 0.6799 0.11959 0.0
C1230 C 0.48616 0.68025 0.18573 0.0
C1231 C 0.43494 0.72529 0.09087 0.0
H1232 H 0.49781 0.79852 0.17929 0.0
H1233 H 0.56169 0.74893 0.12237 0.0
H1234 H 0.4268 0.75606 0.1562 0.0
H1235 H 0.44279 0.74134 0.19094 0.0
H1236 H 0.44432 0.78296 0.1844 0.0
H1237 H 0.54374 0.70458 0.09211 0.0
H1238 H 0.52491 0.6794 0.12015 0.0
H1239 H 0.50192 0.69398 0.08937 0.0
H1240 H 0.43361 0.64219 0.1833 0.0
H1241 H 0.39019 0.68013 0.10349 0.0
H1242 H 0.48519 0.70152 0.20055 0.0
H1243 H 0.50966 0.68102 0.17449 0.0
H1244 H 0.48419 0.65928 0.20055 0.0
H1245 H 0.42927 0.74858 0.10039 0.0
H1246 H 0.41697 0.71837 0.07305 0.0
H1247 H 0.45851 0.72795 0.07988 0.0
loop_
_geom_bond_atom_site_label_1
_geom_bond_atom_site_label_2
_geom_bond_distance
_geom_bond_site_symmetry_2
_ccdc_geom_bond_type
Zn0 O3 2.031 . S
Zn0 O5 2.049 . S
Zn0 O10 2.067 . S
Zn1 O2 1.962 . S
Zn1 O4 1.986 . S
Zn1 O6 1.996 . S
Zn1 O9 1.943 . S
O2 Zn1 1.962 . S
O2 C7 1.254 . S
O3 Zn0 2.031 . S
O3 C7 1.269 . S
O4 Zn1 1.986 . S
O4 C11 1.262 . S
O5 Zn0 2.049 . S
O5 C13 1.260 . S
O6 Zn1 1.996 . S
O6 C13 1.257 . S
C7 O2 1.254 . S
C7 O3 1.269 . S
C8 O9 1.249 . S
C8 O10 1.270 . S
O9 Zn1 1.943 . S
O9 C8 1.249 . S
O10 Zn0 2.067 . S
O10 C8 1.270 . S
C11 O4 1.262 . S
C11 O12 1.232 . S
O12 C11 1.232 . S
C13 O5 1.260 . S
C13 O6 1.257 . S
Zn14 O17 2.031 . S
Zn14 O19 2.049 . S
Zn14 O24 2.067 . S
Zn15 O16 1.962 . S
Zn15 O18 1.986 . S
Zn15 O20 1.996 . S
Zn15 O23 1.943 . S
O16 Zn15 1.962 . S
O16 C21 1.254 . S
O17 Zn14 2.031 . S
O17 C21 1.269 . S
O18 Zn15 1.986 . S
O18 C25 1.262 . S
O19 Zn14 2.049 . S
O19 C27 1.260 . S
O20 Zn15 1.996 . S
O20 C27 1.257 . S
C21 O16 1.254 . S
C21 O17 1.269 . S
C22 O23 1.249 . S
C22 O24 1.270 . S
O23 Zn15 1.943 . S
O23 C22 1.249 . S
O24 Zn14 2.067 . S
O24 C22 1.270 . S
C25 O18 1.262 . S
C25 O26 1.232 . S
O26 C25 1.232 . S
C27 O19 1.260 . S
C27 O20 1.257 . S
Zn28 O31 2.031 . S
Zn28 O33 2.049 . S
Zn28 O38 2.067 . S
Zn29 O30 1.962 . S
Zn29 O32 1.986 . S
Zn29 O34 1.996 . S
Zn29 O37 1.943 . S
O30 Zn29 1.962 . S
O30 C35 1.254 . S
O31 Zn28 2.031 . S
O31 C35 1.269 . S
O32 Zn29 1.986 . S
O32 C39 1.262 . S
O33 Zn28 2.049 . S
O33 C41 1.260 . S
O34 Zn29 1.996 . S
O34 C41 1.257 . S
C35 O30 1.254 . S
C35 O31 1.269 . S
C36 O37 1.249 . S
C36 O38 1.270 . S
O37 Zn29 1.943 . S
O37 C36 1.249 . S
O38 Zn28 2.067 . S
O38 C36 1.270 . S
C39 O32 1.262 . S
C39 O40 1.232 . S
O40 C39 1.232 . S
C41 O33 1.260 . S
C41 O34 1.257 . S
Zn42 O45 2.031 . S
Zn42 O47 2.049 . S
Zn42 O52 2.067 . S
Zn43 O44 1.962 . S
Zn43 O46 1.986 . S
Zn43 O48 1.996 . S
Zn43 O51 1.943 . S
O44 Zn43 1.962 . S
O44 C49 1.254 . S
O45 Zn42 2.031 . S
O45 C49 1.269 . S
O46 Zn43 1.986 . S
O46 C53 1.262 . S
O47 Zn42 2.049 . S
O47 C55 1.260 . S
O48 Zn43 1.996 . S
O48 C55 1.257 . S
C49 O44 1.254 . S
C49 O45 1.269 . S
C50 O51 1.249 . S
C50 O52 1.270 . S
O51 Zn43 1.943 . S
O51 C50 1.249 . S
O52 Zn42 2.067 . S
O52 C50 1.270 . S
C53 O46 1.262 . S
C53 O54 1.232 . S
O54 C53 1.232 . S
C55 O47 1.260 . S
C55 O48 1.257 . S
Zn56 O59 2.031 . S
Zn56 O61 2.049 . S
Zn56 O66 2.067 . S
Zn57 O58 1.962 . S
Zn57 O60 1.986 . S
Zn57 O62 1.996 . S
Zn57 O65 1.943 . S
O58 Zn57 1.962 . S
O58 C63 1.254 . S
O59 Zn56 2.031 . S
O59 C63 1.269 . S
O60 Zn57 1.986 . S
O60 C67 1.262 . S
O61 Zn56 2.049 . S
O61 C69 1.260 . S
O62 Zn57 1.996 . S
O62 C69 1.257 . S
C63 O58 1.254 . S
C63 O59 1.269 . S
C64 O65 1.249 . S
C64 O66 1.270 . S
O65 Zn57 1.943 . S
O65 C64 1.249 . S
O66 Zn56 2.067 . S
O66 C64 1.270 . S
C67 O60 1.262 . S
C67 O68 1.232 . S
O68 C67 1.232 . S
C69 O61 1.260 . S
C69 O62 1.257 . S
Zn70 O73 2.031 . S
Zn70 O75 2.049 . S
Zn70 O80 2.067 . S
Zn71 O72 1.962 . S
Zn71 O74 1.986 . S
Zn71 O76 1.996 . S
Zn71 O79 1.943 . S
O72 Zn71 1.962 . S
O72 C77 1.254 . S
O73 Zn70 2.031 . S
O73 C77 1.269 . S
O74 Zn71 1.986 . S
O74 C81 1.262 . S
O75 Zn70 2.049 . S
O75 C83 1.260 . S
O76 Zn71 1.996 . S
O76 C83 1.257 . S
C77 O72 1.254 . S
C77 O73 1.269 . S
C78 O79 1.249 . S
C78 O80 1.270 . S
O79 Zn71 1.943 . S
O79 C78 1.249 . S
O80 Zn70 2.067 . S
O80 C78 1.270 . S
C81 O74 1.262 . S
C81 O82 1.232 . S
O82 C81 1.232 . S
C83 O75 1.260 . S
C83 O76 1.257 . S
Zn84 O87 2.031 . S
Zn84 O89 2.049 . S
Zn84 O94 2.067 . S
Zn85 O86 1.962 . S
Zn85 O88 1.986 . S
Zn85 O90 1.996 . S
Zn85 O93 1.943 . S
O86 Zn85 1.962 . S
O86 C91 1.254 . S
O87 Zn84 2.031 . S
O87 C91 1.269 . S
O88 Zn85 1.986 . S
O88 C95 1.262 . S
O89 Zn84 2.049 . S
O89 C97 1.260 . S
O90 Zn85 1.996 . S
O90 C97 1.257 . S
C91 O86 1.254 . S
C91 O87 1.269 . S
C92 O93 1.249 . S
C92 O94 1.270 . S
O93 Zn85 1.943 . S
O93 C92 1.249 . S
O94 Zn84 2.067 . S
O94 C92 1.270 . S
C95 O88 1.262 . S
C95 O96 1.232 . S
O96 C95 1.232 . S
C97 O89 1.260 . S
C97 O90 1.257 . S
Zn98 O101 2.031 . S
Zn98 O103 2.049 . S
Zn98 O108 2.067 . S
Zn99 O100 1.962 . S
Zn99 O102 1.986 . S
Zn99 O104 1.996 . S
Zn99 O107 1.943 . S
O100 Zn99 1.962 . S
O100 C105 1.254 . S
O101 Zn98 2.031 . S
O101 C105 1.269 . S
O102 Zn99 1.986 . S
O102 C109 1.262 . S
O103 Zn98 2.049 . S
O103 C111 1.260 . S
O104 Zn99 1.996 . S
O104 C111 1.257 . S
C105 O100 1.254 . S
C105 O101 1.269 . S
C106 O107 1.249 . S
C106 O108 1.270 . S
O107 Zn99 1.943 . S
O107 C106 1.249 . S
O108 Zn98 2.067 . S
O108 C106 1.270 . S
C109 O102 1.262 . S
C109 O110 1.232 . S
O110 C109 1.232 . S
C111 O103 1.260 . S
C111 O104 1.257 . S
Zn112 O115 2.031 . S
Zn112 O117 2.049 . S
Zn112 O122 2.067 . S
Zn113 O114 1.962 . S
Zn113 O116 1.986 . S
Zn113 O118 1.996 . S
Zn113 O121 1.943 . S
O114 Zn113 1.962 . S
O114 C119 1.254 . S
O115 Zn112 2.031 . S
O115 C119 1.269 . S
O116 Zn113 1.986 . S
O116 C123 1.262 . S
O117 Zn112 2.049 . S
O117 C125 1.260 . S
O118 Zn113 1.996 . S
O118 C125 1.257 . S
C119 O114 1.254 . S
C119 O115 1.269 . S
C120 O121 1.249 . S
C120 O122 1.270 . S
O121 Zn113 1.943 . S
O121 C120 1.249 . S
O122 Zn112 2.067 . S
O122 C120 1.270 . S
C123 O116 1.262 . S
C123 O124 1.232 . S
O124 C123 1.232 . S
C125 O117 1.260 . S
C125 O118 1.257 . S
Zn126 O129 2.031 . S
Zn126 O131 2.049 . S
Zn126 O136 2.067 . S
Zn127 O128 1.962 . S
Zn127 O130 1.986 . S
Zn127 O132 1.996 . S
Zn127 O135 1.943 . S
O128 Zn127 1.962 . S
O128 C133 1.254 . S
O129 Zn126 2.031 . S
O129 C133 1.269 . S
O130 Zn127 1.986 . S
O130 C137 1.262 . S
O131 Zn126 2.049 . S
O131 C139 1.260 . S
O132 Zn127 1.996 . S
O132 C139 1.257 . S
C133 O128 1.254 . S
C133 O129 1.269 . S
C134 O135 1.249 . S
C134 O136 1.270 . S
O135 Zn127 1.943 . S
O135 C134 1.249 . S
O136 Zn126 2.067 . S
O136 C134 1.270 . S
C137 O130 1.262 . S
C137 O138 1.232 . S
O138 C137 1.232 . S
C139 O131 1.260 . S
C139 O132 1.257 . S
Zn140 O143 2.031 . S
Zn140 O145 2.049 . S
Zn140 O150 2.067 . S
Zn141 O142 1.962 . S
Zn141 O144 1.986 . S
Zn141 O146 1.996 . S
Zn141 O149 1.943 . S
O142 Zn141 1.962 . S
O142 C147 1.254 . S
O143 Zn140 2.031 . S
O143 C147 1.269 . S
O144 Zn141 1.986 . S
O144 C151 1.262 . S
O145 Zn140 2.049 . S
O145 C153 1.260 . S
O146 Zn141 1.996 . S
O146 C153 1.257 . S
C147 O142 1.254 . S
C147 O143 1.269 . S
C148 O149 1.249 . S
C148 O150 1.270 . S
O149 Zn141 1.943 . S
O149 C148 1.249 . S
O150 Zn140 2.067 . S
O150 C148 1.270 . S
C151 O144 1.262 . S
C151 O152 1.232 . S
O152 C151 1.232 . S
C153 O145 1.260 . S
C153 O146 1.257 . S
Zn154 O157 2.031 . S
Zn154 O159 2.049 . S
Zn154 O164 2.067 . S
Zn155 O156 1.962 . S
Zn155 O158 1.986 . S
Zn155 O160 1.996 . S
Zn155 O163 1.943 . S
O156 Zn155 1.962 . S
O156 C161 1.254 . S
O157 Zn154 2.031 . S
O157 C161 1.269 . S
O158 Zn155 1.986 . S
O158 C165 1.262 . S
O159 Zn154 2.049 . S
O159 C167 1.260 . S
O160 Zn155 1.996 . S
O160 C167 1.257 . S
C161 O156 1.254 . S
C161 O157 1.269 . S
C162 O163 1.249 . S
C162 O164 1.270 . S
O163 Zn155 1.943 . S
O163 C162 1.249 . S
O164 Zn154 2.067 . S
O164 C162 1.270 . S
C165 O158 1.262 . S
C165 O166 1.232 . S
O166 C165 1.232 . S
C167 O159 1.260 . S
C167 O160 1.257 . S
Zn168 O171 2.031 . S
Zn168 O173 2.049 . S
Zn168 O178 2.067 . S
Zn169 O170 1.962 . S
Zn169 O172 1.986 . S
Zn169 O174 1.996 . S
Zn169 O177 1.943 . S
O170 Zn169 1.962 . S
O170 C175 1.254 . S
O171 Zn168 2.031 . S
O171 C175 1.269 . S
O172 Zn169 1.986 . S
O172 C179 1.262 . S
O173 Zn168 2.049 . S
O173 C181 1.260 . S
O174 Zn169 1.996 . S
O174 C181 1.257 . S
C175 O170 1.254 . S
C175 O171 1.269 . S
C176 O177 1.249 . S
C176 O178 1.270 . S
O177 Zn169 1.943 . S
O177 C176 1.249 . S
O178 Zn168 2.067 . S
O178 C176 1.270 . S
C179 O172 1.262 . S
C179 O180 1.232 . S
O180 C179 1.232 . S
C181 O173 1.260 . S
C181 O174 1.257 . S
Zn182 O185 2.031 . S
Zn182 O187 2.049 . S
Zn182 O192 2.067 . S
Zn183 O184 1.962 . S
Zn183 O186 1.986 . S
Zn183 O188 1.996 . S
Zn183 O191 1.943 . S
O184 Zn183 1.962 . S
O184 C189 1.254 . S
O185 Zn182 2.031 . S
O185 C189 1.269 . S
O186 Zn183 1.986 . S
O186 C193 1.262 . S
O187 Zn182 2.049 . S
O187 C195 1.260 . S
O188 Zn183 1.996 . S
O188 C195 1.257 . S
C189 O184 1.254 . S
C189 O185 1.269 . S
C190 O191 1.249 . S
C190 O192 1.270 . S
O191 Zn183 1.943 . S
O191 C190 1.249 . S
O192 Zn182 2.067 . S
O192 C190 1.270 . S
C193 O186 1.262 . S
C193 O194 1.232 . S
O194 C193 1.232 . S
C195 O187 1.260 . S
C195 O188 1.257 . S
Zn196 O199 2.031 . S
Zn196 O201 2.049 . S
Zn196 O206 2.067 . S
Zn197 O198 1.962 . S
Zn197 O200 1.986 . S
Zn197 O202 1.996 . S
Zn197 O205 1.943 . S
O198 Zn197 1.962 . S
O198 C203 1.254 . S
O199 Zn196 2.031 . S
O199 C203 1.269 . S
O200 Zn197 1.986 . S
O200 C207 1.262 . S
O201 Zn196 2.049 . S
O201 C209 1.260 . S
O202 Zn197 1.996 . S
O202 C209 1.257 . S
C203 O198 1.254 . S
C203 O199 1.269 . S
C204 O205 1.249 . S
C204 O206 1.270 . S
O205 Zn197 1.943 . S
O205 C204 1.249 . S
O206 Zn196 2.067 . S
O206 C204 1.270 . S
C207 O200 1.262 . S
C207 O208 1.232 . S
O208 C207 1.232 . S
C209 O201 1.260 . S
C209 O202 1.257 . S
Zn210 O213 2.031 . S
Zn210 O215 2.049 . S
Zn210 O220 2.067 . S
Zn211 O212 1.962 . S
Zn211 O214 1.986 . S
Zn211 O216 1.996 . S
Zn211 O219 1.943 . S
O212 Zn211 1.962 . S
O212 C217 1.254 . S
O213 Zn210 2.031 . S
O213 C217 1.269 . S
O214 Zn211 1.986 . S
O214 C221 1.262 . S
O215 Zn210 2.049 . S
O215 C223 1.260 . S
O216 Zn211 1.996 . S
O216 C223 1.257 . S
C217 O212 1.254 . S
C217 O213 1.269 . S
C218 O219 1.249 . S
C218 O220 1.270 . S
O219 Zn211 1.943 . S
O219 C218 1.249 . S
O220 Zn210 2.067 . S
O220 C218 1.270 . S
C221 O214 1.262 . S
C221 O222 1.232 . S
O222 C221 1.232 . S
C223 O215 1.260 . S
C223 O216 1.257 . S
C224 C225 1.391 . S
C224 C226 1.394 . S
C224 H240 0.931 . S
C225 C224 1.391 . S
C225 C229 1.376 . S
C226 C224 1.394 . S
C226 C227 1.369 . S
C226 C230 1.531 . S
C227 C226 1.369 . S
C227 C228 1.410 . S
C227 C235 1.503 . S
C228 C227 1.410 . S
C228 C229 1.392 . S
C228 C231 1.511 . S
C229 C225 1.376 . S
C229 C228 1.392 . S
C229 H241 0.929 . S
C230 C226 1.531 . S
C230 H242 0.960 . S
C230 H243 0.962 . S
C230 H244 0.960 . S
C231 C228 1.511 . S
C231 H245 0.961 . S
C231 H246 0.961 . S
C231 H247 0.961 . S
C232 C233 1.370 . S
C232 C234 1.363 . S
C232 H248 0.931 . S
C233 C232 1.370 . S
C233 C237 1.408 . S
C234 C232 1.363 . S
C234 C235 1.370 . S
C234 C238 1.524 . S
C235 C227 1.503 . S
C235 C234 1.370 . S
C235 C236 1.403 . S
C236 C235 1.403 . S
C236 C237 1.404 . S
C236 C239 1.539 . S
C237 C233 1.408 . S
C237 C236 1.404 . S
C237 H249 0.930 . S
C238 C234 1.524 . S
C238 H250 0.956 . S
C238 H251 0.961 . S
C238 H252 0.961 . S
C239 C236 1.539 . S
C239 H253 0.958 . S
C239 H254 0.961 . S
C239 H255 0.960 . S
H240 C224 0.931 . S
H241 C229 0.929 . S
H242 C230 0.960 . S
H243 C230 0.962 . S
H244 C230 0.960 . S
H245 C231 0.961 . S
H246 C231 0.961 . S
H247 C231 0.961 . S
H248 C232 0.931 . S
H249 C237 0.930 . S
H250 C238 0.956 . S
H251 C238 0.961 . S
H252 C238 0.961 . S
H253 C239 0.958 . S
H254 C239 0.961 . S
H255 C239 0.960 . S
C256 C257 1.391 . S
C256 C258 1.394 . S
C256 H272 0.931 . S
C257 C256 1.391 . S
C257 C261 1.376 . S
C258 C256 1.394 . S
C258 C259 1.369 . S
C258 C262 1.531 . S
C259 C258 1.369 . S
C259 C260 1.410 . S
C259 C267 1.503 . S
C260 C259 1.410 . S
C260 C261 1.392 . S
C260 C263 1.511 . S
C261 C257 1.376 . S
C261 C260 1.392 . S
C261 H273 0.929 . S
C262 C258 1.531 . S
C262 H274 0.960 . S
C262 H275 0.962 . S
C262 H276 0.960 . S
C263 C260 1.511 . S
C263 H277 0.961 . S
C263 H278 0.961 . S
C263 H279 0.961 . S
C264 C265 1.370 . S
C264 C266 1.363 . S
C264 H280 0.931 . S
C265 C264 1.370 . S
C265 C269 1.408 . S
C266 C264 1.363 . S
C266 C267 1.370 . S
C266 C270 1.524 . S
C267 C259 1.503 . S
C267 C266 1.370 . S
C267 C268 1.403 . S
C268 C267 1.403 . S
C268 C269 1.404 . S
C268 C271 1.539 . S
C269 C265 1.408 . S
C269 C268 1.404 . S
C269 H281 0.930 . S
C270 C266 1.524 . S
C270 H282 0.956 . S
C270 H283 0.961 . S
C270 H284 0.961 . S
C271 C268 1.539 . S
C271 H285 0.958 . S
C271 H286 0.961 . S
C271 H287 0.960 . S
H272 C256 0.931 . S
H273 C261 0.929 . S
H274 C262 0.960 . S
H275 C262 0.962 . S
H276 C262 0.960 . S
H277 C263 0.961 . S
H278 C263 0.961 . S
H279 C263 0.961 . S
H280 C264 0.931 . S
H281 C269 0.930 . S
H282 C270 0.956 . S
H283 C270 0.961 . S
H284 C270 0.961 . S
H285 C271 0.958 . S
H286 C271 0.961 . S
H287 C271 0.960 . S
C288 C289 1.391 . S
C288 C290 1.394 . S
C288 H304 0.931 . S
C289 C288 1.391 . S
C289 C293 1.376 . S
C290 C288 1.394 . S
C290 C291 1.369 . S
C290 C294 1.531 . S
C291 C290 1.369 . S
C291 C292 1.410 . S
C291 C299 1.503 . S
C292 C291 1.410 . S
C292 C293 1.392 . S
C292 C295 1.511 . S
C293 C289 1.376 . S
C293 C292 1.392 . S
C293 H305 0.929 . S
C294 C290 1.531 . S
C294 H306 0.960 . S
C294 H307 0.962 . S
C294 H308 0.960 . S
C295 C292 1.511 . S
C295 H309 0.961 . S
C295 H310 0.961 . S
C295 H311 0.961 . S
C296 C297 1.370 . S
C296 C298 1.363 . S
C296 H312 0.931 . S
C297 C296 1.370 . S
C297 C301 1.408 . S
C298 C296 1.363 . S
C298 C299 1.370 . S
C298 C302 1.524 . S
C299 C291 1.503 . S
C299 C298 1.370 . S
C299 C300 1.403 . S
C300 C299 1.403 . S
C300 C301 1.404 . S
C300 C303 1.539 . S
C301 C297 1.408 . S
C301 C300 1.404 . S
C301 H313 0.930 . S
C302 C298 1.524 . S
C302 H314 0.956 . S
C302 H315 0.961 . S
C302 H316 0.961 . S
C303 C300 1.539 . S
C303 H317 0.958 . S
C303 H318 0.961 . S
C303 H319 0.960 . S
H304 C288 0.931 . S
H305 C293 0.929 . S
H306 C294 0.960 . S
H307 C294 0.962 . S
H308 C294 0.960 . S
H309 C295 0.961 . S
H310 C295 0.961 . S
H311 C295 0.961 . S
H312 C296 0.931 . S
H313 C301 0.930 . S
H314 C302 0.956 . S
H315 C302 0.961 . S
H316 C302 0.961 . S
H317 C303 0.958 . S
H318 C303 0.961 . S
H319 C303 0.960 . S
C320 C321 1.391 . S
C320 C322 1.394 . S
C320 H336 0.931 . S
C321 C320 1.391 . S
C321 C325 1.376 . S
C322 C320 1.394 . S
C322 C323 1.369 . S
C322 C326 1.531 . S
C323 C322 1.369 . S
C323 C324 1.410 . S
C323 C331 1.503 . S
C324 C323 1.410 . S
C324 C325 1.392 . S
C324 C327 1.511 . S
C325 C321 1.376 . S
C325 C324 1.392 . S
C325 H337 0.929 . S
C326 C322 1.531 . S
C326 H338 0.960 . S
C326 H339 0.962 . S
C326 H340 0.960 . S
C327 C324 1.511 . S
C327 H341 0.961 . S
C327 H342 0.961 . S
C327 H343 0.961 . S
C328 C329 1.370 . S
C328 C330 1.363 . S
C328 H344 0.931 . S
C329 C328 1.370 . S
C329 C333 1.408 . S
C330 C328 1.363 . S
C330 C331 1.370 . S
C330 C334 1.524 . S
C331 C323 1.503 . S
C331 C330 1.370 . S
C331 C332 1.403 . S
C332 C331 1.403 . S
C332 C333 1.404 . S
C332 C335 1.539 . S
C333 C329 1.408 . S
C333 C332 1.404 . S
C333 H345 0.930 . S
C334 C330 1.524 . S
C334 H346 0.956 . S
C334 H347 0.961 . S
C334 H348 0.961 . S
C335 C332 1.539 . S
C335 H349 0.958 . S
C335 H350 0.961 . S
C335 H351 0.960 . S
H336 C320 0.931 . S
H337 C325 0.929 . S
H338 C326 0.960 . S
H339 C326 0.962 . S
H340 C326 0.960 . S
H341 C327 0.961 . S
H342 C327 0.961 . S
H343 C327 0.961 . S
H344 C328 0.931 . S
H345 C333 0.930 . S
H346 C334 0.956 . S
H347 C334 0.961 . S
H348 C334 0.961 . S
H349 C335 0.958 . S
H350 C335 0.961 . S
H351 C335 0.960 . S
C352 C353 1.391 . S
C352 C354 1.394 . S
C352 H368 0.931 . S
C353 C352 1.391 . S
C353 C357 1.376 . S
C354 C352 1.394 . S
C354 C355 1.369 . S
C354 C358 1.531 . S
C355 C354 1.369 . S
C355 C356 1.410 . S
C355 C363 1.503 . S
C356 C355 1.410 . S
C356 C357 1.392 . S
C356 C359 1.511 . S
C357 C353 1.376 . S
C357 C356 1.392 . S
C357 H369 0.929 . S
C358 C354 1.531 . S
C358 H370 0.960 . S
C358 H371 0.962 . S
C358 H372 0.960 . S
C359 C356 1.511 . S
C359 H373 0.961 . S
C359 H374 0.961 . S
C359 H375 0.961 . S
C360 C361 1.370 . S
C360 C362 1.363 . S
C360 H376 0.931 . S
C361 C360 1.370 . S
C361 C365 1.408 . S
C362 C360 1.363 . S
C362 C363 1.370 . S
C362 C366 1.524 . S
C363 C355 1.503 . S
C363 C362 1.370 . S
C363 C364 1.403 . S
C364 C363 1.403 . S
C364 C365 1.404 . S
C364 C367 1.539 . S
C365 C361 1.408 . S
C365 C364 1.404 . S
C365 H377 0.930 . S
C366 C362 1.524 . S
C366 H378 0.956 . S
C366 H379 0.961 . S
C366 H380 0.961 . S
C367 C364 1.539 . S
C367 H381 0.958 . S
C367 H382 0.961 . S
C367 H383 0.960 . S
H368 C352 0.931 . S
H369 C357 0.929 . S
H370 C358 0.960 . S
H371 C358 0.962 . S
H372 C358 0.960 . S
H373 C359 0.961 . S
H374 C359 0.961 . S
H375 C359 0.961 . S
H376 C360 0.931 . S
H377 C365 0.930 . S
H378 C366 0.956 . S
H379 C366 0.961 . S
H380 C366 0.961 . S
H381 C367 0.958 . S
H382 C367 0.961 . S
H383 C367 0.960 . S
C384 C385 1.391 . S
C384 C386 1.394 . S
C384 H400 0.931 . S
C385 C384 1.391 . S
C385 C389 1.376 . S
C386 C384 1.394 . S
C386 C387 1.369 . S
C386 C390 1.531 . S
C387 C386 1.369 . S
C387 C388 1.410 . S
C387 C395 1.503 . S
C388 C387 1.410 . S
C388 C389 1.392 . S
C388 C391 1.511 . S
C389 C385 1.376 . S
C389 C388 1.392 . S
C389 H401 0.929 . S
C390 C386 1.531 . S
C390 H402 0.960 . S
C390 H403 0.962 . S
C390 H404 0.960 . S
C391 C388 1.511 . S
C391 H405 0.961 . S
C391 H406 0.961 . S
C391 H407 0.961 . S
C392 C393 1.370 . S
C392 C394 1.363 . S
C392 H408 0.931 . S
C393 C392 1.370 . S
C393 C397 1.408 . S
C394 C392 1.363 . S
C394 C395 1.370 . S
C394 C398 1.524 . S
C395 C387 1.503 . S
C395 C394 1.370 . S
C395 C396 1.403 . S
C396 C395 1.403 . S
C396 C397 1.404 . S
C396 C399 1.539 . S
C397 C393 1.408 . S
C397 C396 1.404 . S
C397 H409 0.930 . S
C398 C394 1.524 . S
C398 H410 0.956 . S
C398 H411 0.961 . S
C398 H412 0.961 . S
C399 C396 1.539 . S
C399 H413 0.958 . S
C399 H414 0.961 . S
C399 H415 0.960 . S
H400 C384 0.931 . S
H401 C389 0.929 . S
H402 C390 0.960 . S
H403 C390 0.962 . S
H404 C390 0.960 . S
H405 C391 0.961 . S
H406 C391 0.961 . S
H407 C391 0.961 . S
H408 C392 0.931 . S
H409 C397 0.930 . S
H410 C398 0.956 . S
H411 C398 0.961 . S
H412 C398 0.961 . S
H413 C399 0.958 . S
H414 C399 0.961 . S
H415 C399 0.960 . S
C416 C417 1.391 . S
C416 C418 1.394 . S
C416 H432 0.931 . S
C417 C416 1.391 . S
C417 C421 1.376 . S
C418 C416 1.394 . S
C418 C419 1.369 . S
C418 C422 1.531 . S
C419 C418 1.369 . S
C419 C420 1.410 . S
C419 C427 1.503 . S
C420 C419 1.410 . S
C420 C421 1.392 . S
C420 C423 1.511 . S
C421 C417 1.376 . S
C421 C420 1.392 . S
C421 H433 0.929 . S
C422 C418 1.531 . S
C422 H434 0.960 . S
C422 H435 0.962 . S
C422 H436 0.960 . S
C423 C420 1.511 . S
C423 H437 0.961 . S
C423 H438 0.961 . S
C423 H439 0.961 . S
C424 C425 1.370 . S
C424 C426 1.363 . S
C424 H440 0.931 . S
C425 C424 1.370 . S
C425 C429 1.408 . S
C426 C424 1.363 . S
C426 C427 1.370 . S
C426 C430 1.524 . S
C427 C419 1.503 . S
C427 C426 1.370 . S
C427 C428 1.403 . S
C428 C427 1.403 . S
C428 C429 1.404 . S
C428 C431 1.539 . S
C429 C425 1.408 . S
C429 C428 1.404 . S
C429 H441 0.930 . S
C430 C426 1.524 . S
C430 H442 0.956 . S
C430 H443 0.961 . S
C430 H444 0.961 . S
C431 C428 1.539 . S
C431 H445 0.958 . S
C431 H446 0.961 . S
C431 H447 0.960 . S
H432 C416 0.931 . S
H433 C421 0.929 . S
H434 C422 0.960 . S
H435 C422 0.962 . S
H436 C422 0.960 . S
H437 C423 0.961 . S
H438 C423 0.961 . S
H439 C423 0.961 . S
H440 C424 0.931 . S
H441 C429 0.930 . S
H442 C430 0.956 . S
H443 C430 0.961 . S
H444 C430 0.961 . S
H445 C431 0.958 . S
H446 C431 0.961 . S
H447 C431 0.960 . S
C448 C449 1.391 . S
C448 C450 1.394 . S
C448 H464 0.931 . S
C449 C448 1.391 . S
C449 C453 1.376 . S
C450 C448 1.394 . S
C450 C451 1.369 . S
C450 C454 1.531 . S
C451 C450 1.369 . S
C451 C452 1.410 . S
C451 C459 1.503 . S
C452 C451 1.410 . S
C452 C453 1.392 . S
C452 C455 1.511 . S
C453 C449 1.376 . S
C453 C452 1.392 . S
C453 H465 0.929 . S
C454 C450 1.531 . S
C454 H466 0.960 . S
C454 H467 0.962 . S
C454 H468 0.960 . S
C455 C452 1.511 . S
C455 H469 0.961 . S
C455 H470 0.961 . S
C455 H471 0.961 . S
C456 C457 1.370 . S
C456 C458 1.363 . S
C456 H472 0.931 . S
C457 C456 1.370 . S
C457 C461 1.408 . S
C458 C456 1.363 . S
C458 C459 1.370 . S
C458 C462 1.524 . S
C459 C451 1.503 . S
C459 C458 1.370 . S
C459 C460 1.403 . S
C460 C459 1.403 . S
C460 C461 1.404 . S
C460 C463 1.539 . S
C461 C457 1.408 . S
C461 C460 1.404 . S
C461 H473 0.930 . S
C462 C458 1.524 . S
C462 H474 0.956 . S
C462 H475 0.961 . S
C462 H476 0.961 . S
C463 C460 1.539 . S
C463 H477 0.958 . S
C463 H478 0.961 . S
C463 H479 0.960 . S
H464 C448 0.931 . S
H465 C453 0.929 . S
H466 C454 0.960 . S
H467 C454 0.962 . S
H468 C454 0.960 . S
H469 C455 0.961 . S
H470 C455 0.961 . S
H471 C455 0.961 . S
H472 C456 0.931 . S
H473 C461 0.930 . S
H474 C462 0.956 . S
H475 C462 0.961 . S
H476 C462 0.961 . S
H477 C463 0.958 . S
H478 C463 0.961 . S
H479 C463 0.960 . S
C480 C481 1.391 . S
C480 C482 1.394 . S
C480 H496 0.931 . S
C481 C480 1.391 . S
C481 C485 1.376 . S
C482 C480 1.394 . S
C482 C483 1.369 . S
C482 C486 1.531 1_565 S
C483 C482 1.369 . S
C483 C484 1.410 . S
C483 C491 1.503 1_565 S
C484 C483 1.410 . S
C484 C485 1.392 . S
C484 C487 1.511 . S
C485 C481 1.376 . S
C485 C484 1.392 . S
C485 H497 0.929 . S
C486 C482 1.531 1_545 S
C486 H498 0.960 . S
C486 H499 0.962 . S
C486 H500 0.960 . S
C487 C484 1.511 . S
C487 H501 0.961 . S
C487 H502 0.961 . S
C487 H503 0.961 . S
C488 C489 1.370 . S
C488 C490 1.363 . S
C488 H504 0.931 . S
C489 C488 1.370 . S
C489 C493 1.408 . S
C490 C488 1.363 . S
C490 C491 1.370 . S
C490 C494 1.524 . S
C491 C483 1.503 1_545 S
C491 C490 1.370 . S
C491 C492 1.403 . S
C492 C491 1.403 . S
C492 C493 1.404 . S
C492 C495 1.539 . S
C493 C489 1.408 . S
C493 C492 1.404 . S
C493 H505 0.930 . S
C494 C490 1.524 . S
C494 H506 0.956 . S
C494 H507 0.961 1_545 S
C494 H508 0.961 . S
C495 C492 1.539 . S
C495 H509 0.958 . S
C495 H510 0.961 . S
C495 H511 0.960 1_545 S
H496 C480 0.931 . S
H497 C485 0.929 . S
H498 C486 0.960 . S
H499 C486 0.962 . S
H500 C486 0.960 . S
H501 C487 0.961 . S
H502 C487 0.961 . S
H503 C487 0.961 . S
H504 C488 0.931 . S
H505 C493 0.930 . S
H506 C494 0.956 . S
H507 C494 0.961 1_565 S
H508 C494 0.961 . S
H509 C495 0.958 . S
H510 C495 0.961 . S
H511 C495 0.960 1_565 S
C512 C513 1.391 . S
C512 C514 1.394 . S
C512 H528 0.931 . S
C513 C512 1.391 . S
C513 C517 1.376 . S
C514 C512 1.394 . S
C514 C515 1.369 . S
C514 C518 1.531 . S
C515 C514 1.369 . S
C515 C516 1.410 . S
C515 C523 1.503 . S
C516 C515 1.410 . S
C516 C517 1.392 . S
C516 C519 1.511 . S
C517 C513 1.376 . S
C517 C516 1.392 . S
C517 H529 0.929 . S
C518 C514 1.531 . S
C518 H530 0.960 . S
C518 H531 0.962 . S
C518 H532 0.960 . S
C519 C516 1.511 . S
C519 H533 0.961 . S
C519 H534 0.961 . S
C519 H535 0.961 . S
C520 C521 1.370 . S
C520 C522 1.363 . S
C520 H536 0.931 . S
C521 C520 1.370 . S
C521 C525 1.408 . S
C522 C520 1.363 . S
C522 C523 1.370 . S
C522 C526 1.524 . S
C523 C515 1.503 . S
C523 C522 1.370 . S
C523 C524 1.403 . S
C524 C523 1.403 . S
C524 C525 1.404 . S
C524 C527 1.539 . S
C525 C521 1.408 . S
C525 C524 1.404 . S
C525 H537 0.930 . S
C526 C522 1.524 . S
C526 H538 0.956 . S
C526 H539 0.961 . S
C526 H540 0.961 . S
C527 C524 1.539 . S
C527 H541 0.958 . S
C527 H542 0.961 . S
C527 H543 0.960 . S
H528 C512 0.931 . S
H529 C517 0.929 . S
H530 C518 0.960 . S
H531 C518 0.962 . S
H532 C518 0.960 . S
H533 C519 0.961 . S
H534 C519 0.961 . S
H535 C519 0.961 . S
H536 C520 0.931 . S
H537 C525 0.930 . S
H538 C526 0.956 . S
H539 C526 0.961 . S
H540 C526 0.961 . S
H541 C527 0.958 . S
H542 C527 0.961 . S
H543 C527 0.960 . S
C544 C545 1.391 . S
C544 C546 1.394 . S
C544 H560 0.931 . S
C545 C544 1.391 . S
C545 C549 1.376 . S
C546 C544 1.394 . S
C546 C547 1.369 . S
C546 C550 1.531 . S
C547 C546 1.369 . S
C547 C548 1.410 . S
C547 C555 1.505 1_556 S
C548 C547 1.410 . S
C548 C549 1.392 . S
C548 C551 1.511 . S
C549 C545 1.376 . S
C549 C548 1.392 . S
C549 H561 0.929 . S
C550 C546 1.531 . S
C550 H562 0.960 . S
C550 H563 0.962 . S
C550 H564 0.960 . S
C551 C548 1.511 . S
C551 H565 0.961 . S
C551 H566 0.961 . S
C551 H567 0.961 . S
C552 C553 1.370 . S
C552 C554 1.363 . S
C552 H568 0.931 . S
C553 C552 1.370 . S
C553 C557 1.408 . S
C554 C552 1.363 . S
C554 C555 1.369 . S
C554 C558 1.524 . S
C555 C547 1.505 1_554 S
C555 C554 1.369 . S
C555 C556 1.402 . S
C556 C555 1.402 . S
C556 C557 1.404 . S
C556 C559 1.539 1_554 S
C557 C553 1.408 . S
C557 C556 1.404 . S
C557 H569 0.930 . S
C558 C554 1.524 . S
C558 H570 0.956 . S
C558 H571 0.961 . S
C558 H572 0.961 . S
C559 C556 1.539 1_556 S
C559 H573 0.958 . S
C559 H574 0.961 . S
C559 H575 0.960 . S
H560 C544 0.931 . S
H561 C549 0.929 . S
H562 C550 0.960 . S
H563 C550 0.962 . S
H564 C550 0.960 . S
H565 C551 0.961 . S
H566 C551 0.961 . S
H567 C551 0.961 . S
H568 C552 0.931 . S
H569 C557 0.930 . S
H570 C558 0.956 . S
H571 C558 0.961 . S
H572 C558 0.961 . S
H573 C559 0.958 . S
H574 C559 0.961 . S
H575 C559 0.960 . S
C576 C577 1.391 . S
C576 C578 1.394 . S
C576 H592 0.931 . S
C577 C576 1.391 . S
C577 C581 1.376 . S
C578 C576 1.394 . S
C578 C579 1.401 . S
C578 C582 1.531 . S
C579 C578 1.401 . S
C579 C580 1.407 1_554 S
C579 C587 1.474 1_554 S
C580 C579 1.407 1_556 S
C580 C581 1.370 1_556 S
C580 C583 1.535 . S
C581 C577 1.376 . S
C581 C580 1.370 1_554 S
C581 H593 0.929 . S
C582 C578 1.531 . S
C582 H594 0.960 . S
C582 H595 0.962 . S
C582 H596 0.960 . S
C583 C580 1.535 . S
C583 H597 0.961 . S
C583 H598 0.961 . S
C583 H599 0.961 . S
C584 C585 1.370 . S
C584 C586 1.363 . S
C584 H600 0.931 . S
C585 C584 1.370 . S
C585 C589 1.408 . S
C586 C584 1.363 . S
C586 C587 1.370 . S
C586 C590 1.524 . S
C587 C579 1.474 1_556 S
C587 C586 1.370 . S
C587 C588 1.403 . S
C588 C587 1.403 . S
C588 C589 1.404 . S
C588 C591 1.539 . S
C589 C585 1.408 . S
C589 C588 1.404 . S
C589 H601 0.930 . S
C590 C586 1.524 . S
C590 H602 0.956 1_556 S
C590 H603 0.961 . S
C590 H604 0.961 . S
C591 C588 1.539 . S
C591 H605 0.958 . S
C591 H606 0.961 . S
C591 H607 0.960 . S
H592 C576 0.931 . S
H593 C581 0.929 . S
H594 C582 0.960 . S
H595 C582 0.962 . S
H596 C582 0.960 . S
H597 C583 0.961 . S
H598 C583 0.961 . S
H599 C583 0.961 . S
H600 C584 0.931 . S
H601 C589 0.930 . S
H602 C590 0.956 1_554 S
H603 C590 0.961 . S
H604 C590 0.961 . S
H605 C591 0.958 . S
H606 C591 0.961 . S
H607 C591 0.960 . S
C608 C609 1.391 . S
C608 C610 1.394 . S
C608 H624 0.931 . S
C609 C608 1.391 . S
C609 C613 1.376 . S
C610 C608 1.394 . S
C610 C611 1.369 . S
C610 C614 1.531 . S
C611 C610 1.369 . S
C611 C612 1.410 . S
C611 C619 1.503 . S
C612 C611 1.410 . S
C612 C613 1.392 . S
C612 C615 1.511 . S
C613 C609 1.376 . S
C613 C612 1.392 . S
C613 H625 0.929 . S
C614 C610 1.531 . S
C614 H626 0.960 . S
C614 H627 0.962 . S
C614 H628 0.960 . S
C615 C612 1.511 . S
C615 H629 0.961 . S
C615 H630 0.961 . S
C615 H631 0.961 . S
C616 C617 1.370 . S
C616 C618 1.363 . S
C616 H632 0.931 . S
C617 C616 1.370 . S
C617 C621 1.408 . S
C618 C616 1.363 . S
C618 C619 1.370 . S
C618 C622 1.524 . S
C619 C611 1.503 . S
C619 C618 1.370 . S
C619 C620 1.403 . S
C620 C619 1.403 . S
C620 C621 1.404 . S
C620 C623 1.539 . S
C621 C617 1.408 . S
C621 C620 1.404 . S
C621 H633 0.930 . S
C622 C618 1.524 . S
C622 H634 0.956 . S
C622 H635 0.961 . S
C622 H636 0.961 . S
C623 C620 1.539 . S
C623 H637 0.958 . S
C623 H638 0.961 . S
C623 H639 0.960 . S
H624 C608 0.931 . S
H625 C613 0.929 . S
H626 C614 0.960 . S
H627 C614 0.962 . S
H628 C614 0.960 . S
H629 C615 0.961 . S
H630 C615 0.961 . S
H631 C615 0.961 . S
H632 C616 0.931 . S
H633 C621 0.930 . S
H634 C622 0.956 . S
H635 C622 0.961 . S
H636 C622 0.961 . S
H637 C623 0.958 . S
H638 C623 0.961 . S
H639 C623 0.960 . S
C640 C641 1.391 . S
C640 C642 1.394 . S
C640 H656 0.931 . S
C641 C640 1.391 . S
C641 C645 1.376 . S
C642 C640 1.394 . S
C642 C643 1.369 . S
C642 C646 1.531 . S
C643 C642 1.369 . S
C643 C644 1.410 . S
C643 C651 1.503 . S
C644 C643 1.410 . S
C644 C645 1.392 . S
C644 C647 1.511 . S
C645 C641 1.376 . S
C645 C644 1.392 . S
C645 H657 0.929 . S
C646 C642 1.531 . S
C646 H658 0.960 . S
C646 H659 0.962 . S
C646 H660 0.960 . S
C647 C644 1.511 . S
C647 H661 0.961 . S
C647 H662 0.961 . S
C647 H663 0.961 . S
C648 C649 1.370 . S
C648 C650 1.363 . S
C648 H664 0.931 . S
C649 C648 1.370 . S
C649 C653 1.408 . S
C650 C648 1.363 . S
C650 C651 1.370 . S
C650 C654 1.524 . S
C651 C643 1.503 . S
C651 C650 1.370 . S
C651 C652 1.403 . S
C652 C651 1.403 . S
C652 C653 1.404 . S
C652 C655 1.539 . S
C653 C649 1.408 . S
C653 C652 1.404 . S
C653 H665 0.930 . S
C654 C650 1.524 . S
C654 H666 0.956 . S
C654 H667 0.961 . S
C654 H668 0.961 . S
C655 C652 1.539 . S
C655 H669 0.958 . S
C655 H670 0.961 . S
C655 H671 0.960 . S
H656 C640 0.931 . S
H657 C645 0.929 . S
H658 C646 0.960 . S
H659 C646 0.962 . S
H660 C646 0.960 . S
H661 C647 0.961 . S
H662 C647 0.961 . S
H663 C647 0.961 . S
H664 C648 0.931 . S
H665 C653 0.930 . S
H666 C654 0.956 . S
H667 C654 0.961 . S
H668 C654 0.961 . S
H669 C655 0.958 . S
H670 C655 0.961 . S
H671 C655 0.960 . S
C672 C673 1.391 . S
C672 C674 1.394 . S
C672 H688 0.931 . S
C673 C672 1.391 . S
C673 C677 1.376 . S
C674 C672 1.394 . S
C674 C675 1.369 . S
C674 C678 1.531 1_655 S
C675 C674 1.369 . S
C675 C676 1.410 . S
C675 C683 1.503 1_655 S
C676 C675 1.410 . S
C676 C677 1.392 . S
C676 C679 1.511 . S
C677 C673 1.376 . S
C677 C676 1.392 . S
C677 H689 0.929 . S
C678 C674 1.531 1_455 S
C678 H690 0.960 . S
C678 H691 0.962 . S
C678 H692 0.960 1_455 S
C679 C676 1.511 . S
C679 H693 0.961 . S
C679 H694 0.961 . S
C679 H695 0.961 . S
C680 C681 1.370 . S
C680 C682 1.363 . S
C680 H696 0.931 . S
C681 C680 1.370 . S
C681 C685 1.408 . S
C682 C680 1.363 . S
C682 C683 1.370 . S
C682 C686 1.524 . S
C683 C675 1.503 1_455 S
C683 C682 1.370 . S
C683 C684 1.403 . S
C684 C683 1.403 . S
C684 C685 1.404 . S
C684 C687 1.539 1_455 S
C685 C681 1.408 . S
C685 C684 1.404 . S
C685 H697 0.930 . S
C686 C682 1.524 . S
C686 H698 0.956 . S
C686 H699 0.961 . S
C686 H700 0.961 . S
C687 C684 1.539 1_655 S
C687 H701 0.958 . S
C687 H702 0.961 . S
C687 H703 0.960 . S
H688 C672 0.931 . S
H689 C677 0.929 . S
H690 C678 0.960 . S
H691 C678 0.962 . S
H692 C678 0.960 1_655 S
H693 C679 0.961 . S
H694 C679 0.961 . S
H695 C679 0.961 . S
H696 C680 0.931 . S
H697 C685 0.930 . S
H698 C686 0.956 . S
H699 C686 0.961 . S
H700 C686 0.961 . S
H701 C687 0.958 . S
H702 C687 0.961 . S
H703 C687 0.960 . S
C704 C705 1.391 . S
C704 C706 1.394 . S
C704 H720 0.931 . S
C705 C704 1.391 . S
C705 C709 1.376 . S
C706 C704 1.394 . S
C706 C707 1.369 . S
C706 C710 1.531 . S
C707 C706 1.369 . S
C707 C708 1.410 . S
C707 C715 1.503 1_655 S
C708 C707 1.410 . S
C708 C709 1.392 . S
C708 C711 1.511 . S
C709 C705 1.376 . S
C709 C708 1.392 . S
C709 H721 0.929 . S
C710 C706 1.531 . S
C710 H722 0.960 . S
C710 H723 0.962 . S
C710 H724 0.960 . S
C711 C708 1.511 . S
C711 H725 0.961 . S
C711 H726 0.961 1_655 S
C711 H727 0.961 . S
C712 C713 1.370 . S
C712 C714 1.363 . S
C712 H728 0.931 . S
C713 C712 1.370 . S
C713 C717 1.408 . S
C714 C712 1.363 . S
C714 C715 1.370 . S
C714 C718 1.524 . S
C715 C707 1.503 1_455 S
C715 C714 1.370 . S
C715 C716 1.403 . S
C716 C715 1.403 . S
C716 C717 1.404 . S
C716 C719 1.539 1_455 S
C717 C713 1.408 . S
C717 C716 1.404 . S
C717 H729 0.930 . S
C718 C714 1.524 . S
C718 H730 0.956 . S
C718 H731 0.961 . S
C718 H732 0.961 . S
C719 C716 1.539 1_655 S
C719 H733 0.958 . S
C719 H734 0.961 . S
C719 H735 0.960 . S
H720 C704 0.931 . S
H721 C709 0.929 . S
H722 C710 0.960 . S
H723 C710 0.962 . S
H724 C710 0.960 . S
H725 C711 0.961 . S
H726 C711 0.961 1_455 S
H727 C711 0.961 . S
H728 C712 0.931 . S
H729 C717 0.930 . S
H730 C718 0.956 . S
H731 C718 0.961 . S
H732 C718 0.961 . S
H733 C719 0.958 . S
H734 C719 0.961 . S
H735 C719 0.960 . S
C736 C737 1.391 . S
C736 C738 1.394 . S
C736 H752 0.931 . S
C737 C736 1.391 . S
C737 C741 1.376 . S
C738 C736 1.394 . S
C738 C739 1.369 . S
C738 C742 1.531 . S
C739 C738 1.369 . S
C739 C740 1.410 . S
C739 C747 1.503 . S
C740 C739 1.410 . S
C740 C741 1.392 . S
C740 C743 1.511 . S
C741 C737 1.376 . S
C741 C740 1.392 . S
C741 H753 0.929 . S
C742 C738 1.531 . S
C742 H754 0.960 . S
C742 H755 0.962 . S
C742 H756 0.960 . S
C743 C740 1.511 . S
C743 H757 0.961 . S
C743 H758 0.961 . S
C743 H759 0.961 . S
C744 C745 1.370 . S
C744 C746 1.363 . S
C744 H760 0.931 . S
C745 C744 1.370 . S
C745 C749 1.408 . S
C746 C744 1.363 . S
C746 C747 1.370 . S
C746 C750 1.524 . S
C747 C739 1.503 . S
C747 C746 1.370 . S
C747 C748 1.403 . S
C748 C747 1.403 . S
C748 C749 1.404 . S
C748 C751 1.539 . S
C749 C745 1.408 . S
C749 C748 1.404 . S
C749 H761 0.930 . S
C750 C746 1.524 . S
C750 H762 0.956 . S
C750 H763 0.961 . S
C750 H764 0.961 . S
C751 C748 1.539 . S
C751 H765 0.958 . S
C751 H766 0.961 . S
C751 H767 0.960 . S
H752 C736 0.931 . S
H753 C741 0.929 . S
H754 C742 0.960 . S
H755 C742 0.962 . S
H756 C742 0.960 . S
H757 C743 0.961 . S
H758 C743 0.961 . S
H759 C743 0.961 . S
H760 C744 0.931 . S
H761 C749 0.930 . S
H762 C750 0.956 . S
H763 C750 0.961 . S
H764 C750 0.961 . S
H765 C751 0.958 . S
H766 C751 0.961 . S
H767 C751 0.960 . S
C768 C769 1.391 . S
C768 C770 1.394 . S
C768 H784 0.931 . S
C769 C768 1.391 . S
C769 C773 1.376 . S
C770 C768 1.394 . S
C770 C771 1.369 . S
C770 C774 1.531 . S
C771 C770 1.369 . S
C771 C772 1.410 . S
C771 C779 1.503 1_545 S
C772 C771 1.410 . S
C772 C773 1.392 . S
C772 C775 1.511 1_545 S
C773 C769 1.376 . S
C773 C772 1.392 . S
C773 H785 0.929 . S
C774 C770 1.531 . S
C774 H786 0.960 . S
C774 H787 0.962 . S
C774 H788 0.960 . S
C775 C772 1.511 1_565 S
C775 H789 0.961 . S
C775 H790 0.961 . S
C775 H791 0.961 . S
C776 C777 1.370 . S
C776 C778 1.363 . S
C776 H792 0.931 . S
C777 C776 1.370 . S
C777 C781 1.408 . S
C778 C776 1.363 . S
C778 C779 1.370 . S
C778 C782 1.524 . S
C779 C771 1.503 1_565 S
C779 C778 1.370 . S
C779 C780 1.403 . S
C780 C779 1.403 . S
C780 C781 1.404 . S
C780 C783 1.539 1_565 S
C781 C777 1.408 . S
C781 C780 1.404 . S
C781 H793 0.930 . S
C782 C778 1.524 . S
C782 H794 0.956 . S
C782 H795 0.961 . S
C782 H796 0.961 . S
C783 C780 1.539 1_545 S
C783 H797 0.958 . S
C783 H798 0.961 1_545 S
C783 H799 0.960 . S
H784 C768 0.931 . S
H785 C773 0.929 . S
H786 C774 0.960 . S
H787 C774 0.962 . S
H788 C774 0.960 . S
H789 C775 0.961 . S
H790 C775 0.961 . S
H791 C775 0.961 . S
H792 C776 0.931 . S
H793 C781 0.930 . S
H794 C782 0.956 . S
H795 C782 0.961 . S
H796 C782 0.961 . S
H797 C783 0.958 . S
H798 C783 0.961 1_565 S
H799 C783 0.960 . S
C800 C801 1.391 . S
C800 C802 1.394 . S
C800 H816 0.931 . S
C801 C800 1.391 . S
C801 C805 1.376 . S
C802 C800 1.394 . S
C802 C803 1.369 . S
C802 C806 1.531 . S
C803 C802 1.369 . S
C803 C804 1.410 . S
C803 C811 1.503 . S
C804 C803 1.410 . S
C804 C805 1.392 . S
C804 C807 1.511 . S
C805 C801 1.376 . S
C805 C804 1.392 . S
C805 H817 0.929 . S
C806 C802 1.531 . S
C806 H818 0.960 . S
C806 H819 0.962 . S
C806 H820 0.960 . S
C807 C804 1.511 . S
C807 H821 0.961 . S
C807 H822 0.961 . S
C807 H823 0.961 . S
C808 C809 1.370 . S
C808 C810 1.363 . S
C808 H824 0.931 . S
C809 C808 1.370 . S
C809 C813 1.408 . S
C810 C808 1.363 . S
C810 C811 1.370 . S
C810 C814 1.524 . S
C811 C803 1.503 . S
C811 C810 1.370 . S
C811 C812 1.403 . S
C812 C811 1.403 . S
C812 C813 1.404 . S
C812 C815 1.539 . S
C813 C809 1.408 . S
C813 C812 1.404 . S
C813 H825 0.930 . S
C814 C810 1.524 . S
C814 H826 0.956 . S
C814 H827 0.961 . S
C814 H828 0.961 . S
C815 C812 1.539 . S
C815 H829 0.958 . S
C815 H830 0.961 . S
C815 H831 0.960 . S
H816 C800 0.931 . S
H817 C805 0.929 . S
H818 C806 0.960 . S
H819 C806 0.962 . S
H820 C806 0.960 . S
H821 C807 0.961 . S
H822 C807 0.961 . S
H823 C807 0.961 . S
H824 C808 0.931 . S
H825 C813 0.930 . S
H826 C814 0.956 . S
H827 C814 0.961 . S
H828 C814 0.961 . S
H829 C815 0.958 . S
H830 C815 0.961 . S
H831 C815 0.960 . S
C832 C833 1.391 . S
C832 C834 1.394 . S
C832 H848 0.931 . S
C833 C832 1.391 . S
C833 C837 1.376 . S
C834 C832 1.394 . S
C834 C835 1.369 . S
C834 C838 1.549 . S
C835 C834 1.369 . S
C835 C836 1.410 . S
C835 C843 1.503 1_554 S
C836 C835 1.410 . S
C836 C837 1.392 . S
C836 C839 1.511 . S
C837 C833 1.376 . S
C837 C836 1.392 . S
C837 H849 0.929 . S
C838 C834 1.549 . S
C838 H850 0.949 1_554 S
C838 H851 0.945 1_554 S
C838 H852 0.970 . S
C839 C836 1.511 . S
C839 H853 0.961 . S
C839 H854 0.961 . S
C839 H855 0.961 . S
C840 C841 1.370 . S
C840 C842 1.363 . S
C840 H856 0.931 . S
C841 C840 1.370 . S
C841 C845 1.408 . S
C842 C840 1.363 . S
C842 C843 1.370 . S
C842 C846 1.524 . S
C843 C835 1.503 1_556 S
C843 C842 1.370 . S
C843 C844 1.403 . S
C844 C843 1.403 . S
C844 C845 1.404 . S
C844 C847 1.539 1_556 S
C845 C841 1.408 . S
C845 C844 1.404 . S
C845 H857 0.930 . S
C846 C842 1.524 . S
C846 H858 0.956 . S
C846 H859 0.961 . S
C846 H860 0.961 . S
C847 C844 1.539 1_554 S
C847 H861 0.958 . S
C847 H862 0.961 . S
C847 H863 0.960 . S
H848 C832 0.931 . S
H849 C837 0.929 . S
H850 C838 0.949 1_556 S
H851 C838 0.945 1_556 S
H852 C838 0.970 . S
H853 C839 0.961 . S
H854 C839 0.961 . S
H855 C839 0.961 . S
H856 C840 0.931 . S
H857 C845 0.930 . S
H858 C846 0.956 . S
H859 C846 0.961 . S
H860 C846 0.961 . S
H861 C847 0.958 . S
H862 C847 0.961 . S
H863 C847 0.960 . S
C864 C865 1.391 . S
C864 C866 1.394 . S
C864 H880 0.931 . S
C865 C864 1.391 . S
C865 C869 1.376 . S
C866 C864 1.394 . S
C866 C867 1.369 . S
C866 C870 1.531 . S
C867 C866 1.369 . S
C867 C868 1.410 . S
C867 C875 1.503 1_556 S
C868 C867 1.410 . S
C868 C869 1.392 . S
C868 C871 1.511 1_556 S
C869 C865 1.376 . S
C869 C868 1.392 . S
C869 H881 0.929 . S
C870 C866 1.531 . S
C870 H882 0.960 1_556 S
C870 H883 0.962 . S
C870 H884 0.960 . S
C871 C868 1.511 1_554 S
C871 H885 0.941 1_554 S
C871 H886 0.961 . S
C871 H887 0.961 . S
C872 C873 1.370 . S
C872 C874 1.363 . S
C872 H888 0.931 . S
C873 C872 1.370 . S
C873 C877 1.408 . S
C874 C872 1.363 . S
C874 C875 1.370 . S
C874 C878 1.524 1_554 S
C875 C867 1.503 1_554 S
C875 C874 1.370 . S
C875 C876 1.403 . S
C876 C875 1.403 . S
C876 C877 1.404 . S
C876 C879 1.539 . S
C877 C873 1.408 . S
C877 C876 1.404 . S
C877 H889 0.930 . S
C878 C874 1.524 1_556 S
C878 H890 0.956 . S
C878 H891 0.961 . S
C878 H892 0.961 . S
C879 C876 1.539 . S
C879 H893 0.958 . S
C879 H894 0.961 . S
C879 H895 0.960 . S
H880 C864 0.931 . S
H881 C869 0.929 . S
H882 C870 0.960 1_554 S
H883 C870 0.962 . S
H884 C870 0.960 . S
H885 C871 0.941 1_556 S
H886 C871 0.961 . S
H887 C871 0.961 . S
H888 C872 0.931 . S
H889 C877 0.930 . S
H890 C878 0.956 . S
H891 C878 0.961 . S
H892 C878 0.961 . S
H893 C879 0.958 . S
H894 C879 0.961 . S
H895 C879 0.960 . S
C896 C897 1.391 . S
C896 C898 1.394 . S
C896 H912 0.931 . S
C897 C896 1.391 . S
C897 C901 1.376 . S
C898 C896 1.394 . S
C898 C899 1.369 . S
C898 C902 1.531 . S
C899 C898 1.369 . S
C899 C900 1.410 . S
C899 C907 1.503 . S
C900 C899 1.410 . S
C900 C901 1.392 . S
C900 C903 1.511 . S
C901 C897 1.376 . S
C901 C900 1.392 . S
C901 H913 0.929 . S
C902 C898 1.531 . S
C902 H914 0.960 . S
C902 H915 0.962 . S
C902 H916 0.960 . S
C903 C900 1.511 . S
C903 H917 0.961 . S
C903 H918 0.961 . S
C903 H919 0.961 . S
C904 C905 1.370 . S
C904 C906 1.363 . S
C904 H920 0.931 . S
C905 C904 1.370 . S
C905 C909 1.408 . S
C906 C904 1.363 . S
C906 C907 1.370 . S
C906 C910 1.524 . S
C907 C899 1.503 . S
C907 C906 1.370 . S
C907 C908 1.403 . S
C908 C907 1.403 . S
C908 C909 1.404 . S
C908 C911 1.539 . S
C909 C905 1.408 . S
C909 C908 1.404 . S
C909 H921 0.930 . S
C910 C906 1.524 . S
C910 H922 0.956 . S
C910 H923 0.961 . S
C910 H924 0.961 . S
C911 C908 1.539 . S
C911 H925 0.958 . S
C911 H926 0.961 . S
C911 H927 0.960 . S
H912 C896 0.931 . S
H913 C901 0.929 . S
H914 C902 0.960 . S
H915 C902 0.962 . S
H916 C902 0.960 . S
H917 C903 0.961 . S
H918 C903 0.961 . S
H919 C903 0.961 . S
H920 C904 0.931 . S
H921 C909 0.930 . S
H922 C910 0.956 . S
H923 C910 0.961 . S
H924 C910 0.961 . S
H925 C911 0.958 . S
H926 C911 0.961 . S
H927 C911 0.960 . S
C928 C929 1.391 . S
C928 C930 1.394 . S
C928 H944 0.931 . S
C929 C928 1.391 . S
C929 C933 1.376 . S
C930 C928 1.394 . S
C930 C931 1.369 . S
C930 C934 1.531 . S
C931 C930 1.369 . S
C931 C932 1.410 . S
C931 C939 1.503 . S
C932 C931 1.410 . S
C932 C933 1.392 . S
C932 C935 1.511 . S
C933 C929 1.376 . S
C933 C932 1.392 . S
C933 H945 0.929 . S
C934 C930 1.531 . S
C934 H946 0.960 . S
C934 H947 0.962 . S
C934 H948 0.960 . S
C935 C932 1.511 . S
C935 H949 0.961 . S
C935 H950 0.961 . S
C935 H951 0.961 . S
C936 C937 1.370 . S
C936 C938 1.363 . S
C936 H952 0.931 . S
C937 C936 1.370 . S
C937 C941 1.408 . S
C938 C936 1.363 . S
C938 C939 1.370 . S
C938 C942 1.524 . S
C939 C931 1.503 . S
C939 C938 1.370 . S
C939 C940 1.403 . S
C940 C939 1.403 . S
C940 C941 1.404 . S
C940 C943 1.539 . S
C941 C937 1.408 . S
C941 C940 1.404 . S
C941 H953 0.930 . S
C942 C938 1.524 . S
C942 H954 0.956 . S
C942 H955 0.961 . S
C942 H956 0.961 . S
C943 C940 1.539 . S
C943 H957 0.958 . S
C943 H958 0.961 . S
C943 H959 0.960 . S
H944 C928 0.931 . S
H945 C933 0.929 . S
H946 C934 0.960 . S
H947 C934 0.962 . S
H948 C934 0.960 . S
H949 C935 0.961 . S
H950 C935 0.961 . S
H951 C935 0.961 . S
H952 C936 0.931 . S
H953 C941 0.930 . S
H954 C942 0.956 . S
H955 C942 0.961 . S
H956 C942 0.961 . S
H957 C943 0.958 . S
H958 C943 0.961 . S
H959 C943 0.960 . S
C960 C961 1.391 . S
C960 C962 1.394 . S
C960 H976 0.931 . S
C961 C960 1.391 . S
C961 C965 1.376 . S
C962 C960 1.394 . S
C962 C963 1.369 . S
C962 C966 1.531 1_455 S
C963 C962 1.369 . S
C963 C964 1.410 . S
C963 C971 1.503 1_455 S
C964 C963 1.410 . S
C964 C965 1.392 . S
C964 C967 1.511 . S
C965 C961 1.376 . S
C965 C964 1.392 . S
C965 H977 0.929 . S
C966 C962 1.531 1_655 S
C966 H978 0.960 . S
C966 H979 0.962 . S
C966 H980 0.960 . S
C967 C964 1.511 . S
C967 H981 0.961 . S
C967 H982 0.961 . S
C967 H983 0.961 . S
C968 C969 1.370 . S
C968 C970 1.363 . S
C968 H984 0.931 . S
C969 C968 1.370 . S
C969 C973 1.408 . S
C970 C968 1.363 . S
C970 C971 1.370 . S
C970 C974 1.524 . S
C971 C963 1.503 1_655 S
C971 C970 1.370 . S
C971 C972 1.403 . S
C972 C971 1.403 . S
C972 C973 1.404 . S
C972 C975 1.539 1_655 S
C973 C969 1.408 . S
C973 C972 1.404 . S
C973 H985 0.930 . S
C974 C970 1.524 . S
C974 H986 0.956 . S
C974 H987 0.961 1_655 S
C974 H988 0.961 . S
C975 C972 1.539 1_455 S
C975 H989 0.958 1_455 S
C975 H990 0.961 1_455 S
C975 H991 0.960 . S
H976 C960 0.931 . S
H977 C965 0.929 . S
H978 C966 0.960 . S
H979 C966 0.962 . S
H980 C966 0.960 . S
H981 C967 0.961 . S
H982 C967 0.961 . S
H983 C967 0.961 . S
H984 C968 0.931 . S
H985 C973 0.930 . S
H986 C974 0.956 . S
H987 C974 0.961 1_455 S
H988 C974 0.961 . S
H989 C975 0.958 1_655 S
H990 C975 0.961 1_655 S
H991 C975 0.960 . S
C992 C993 1.391 . S
C992 C994 1.394 . S
C992 H1008 0.931 . S
C993 C992 1.391 . S
C993 C997 1.376 . S
C994 C992 1.394 . S
C994 C995 1.369 . S
C994 C998 1.531 . S
C995 C994 1.369 . S
C995 C996 1.410 . S
C995 C1003 1.503 1_455 S
C996 C995 1.410 . S
C996 C997 1.392 . S
C996 C999 1.511 . S
C997 C993 1.376 . S
C997 C996 1.392 . S
C997 H1009 0.929 . S
C998 C994 1.531 . S
C998 H1010 0.960 . S
C998 H1011 0.985 . S
C998 H1012 0.960 . S
C999 C996 1.511 . S
C999 H1013 0.961 . S
C999 H1014 0.961 . S
C999 H1015 0.961 . S
C1000 C1001 1.370 . S
C1000 C1002 1.363 . S
C1000 H1016 0.931 . S
C1001 C1000 1.370 . S
C1001 C1005 1.408 . S
C1002 C1000 1.363 . S
C1002 C1003 1.370 . S
C1002 C1006 1.524 . S
C1003 C995 1.503 1_655 S
C1003 C1002 1.370 . S
C1003 C1004 1.403 . S
C1004 C1003 1.403 . S
C1004 C1005 1.404 . S
C1004 C1007 1.539 1_655 S
C1005 C1001 1.408 . S
C1005 C1004 1.404 . S
C1005 H1017 0.930 . S
C1006 C1002 1.524 . S
C1006 H1018 0.956 . S
C1006 H1019 0.961 . S
C1006 H1020 0.961 . S
C1007 C1004 1.539 1_455 S
C1007 H1021 0.958 . S
C1007 H1022 0.961 . S
C1007 H1023 0.960 . S
H1008 C992 0.931 . S
H1009 C997 0.929 . S
H1010 C998 0.960 . S
H1011 C998 0.985 . S
H1012 C998 0.960 . S
H1013 C999 0.961 . S
H1014 C999 0.961 . S
H1015 C999 0.961 . S
H1016 C1000 0.931 . S
H1017 C1005 0.930 . S
H1018 C1006 0.956 . S
H1019 C1006 0.961 . S
H1020 C1006 0.961 . S
H1021 C1007 0.958 . S
H1022 C1007 0.961 . S
H1023 C1007 0.960 . S
C1024 C1025 1.391 . S
C1024 C1026 1.394 . S
C1024 H1040 0.931 . S
C1025 C1024 1.391 . S
C1025 C1029 1.376 . S
C1026 C1024 1.394 . S
C1026 C1027 1.369 . S
C1026 C1030 1.531 . S
C1027 C1026 1.369 . S
C1027 C1028 1.410 . S
C1027 C1035 1.503 . S
C1028 C1027 1.410 . S
C1028 C1029 1.392 . S
C1028 C1031 1.511 . S
C1029 C1025 1.376 . S
C1029 C1028 1.392 . S
C1029 H1041 0.929 . S
C1030 C1026 1.531 . S
C1030 H1042 0.960 . S
C1030 H1043 0.962 . S
C1030 H1044 0.960 . S
C1031 C1028 1.511 . S
C1031 H1045 0.961 . S
C1031 H1046 0.961 . S
C1031 H1047 0.961 . S
C1032 C1033 1.370 . S
C1032 C1034 1.363 . S
C1032 H1048 0.931 . S
C1033 C1032 1.370 . S
C1033 C1037 1.408 . S
C1034 C1032 1.363 . S
C1034 C1035 1.370 . S
C1034 C1038 1.524 . S
C1035 C1027 1.503 . S
C1035 C1034 1.370 . S
C1035 C1036 1.403 . S
C1036 C1035 1.403 . S
C1036 C1037 1.404 . S
C1036 C1039 1.539 . S
C1037 C1033 1.408 . S
C1037 C1036 1.404 . S
C1037 H1049 0.930 . S
C1038 C1034 1.524 . S
C1038 H1050 0.956 . S
C1038 H1051 0.961 . S
C1038 H1052 0.961 . S
C1039 C1036 1.539 . S
C1039 H1053 0.958 . S
C1039 H1054 0.961 . S
C1039 H1055 0.960 . S
H1040 C1024 0.931 . S
H1041 C1029 0.929 . S
H1042 C1030 0.960 . S
H1043 C1030 0.962 . S
H1044 C1030 0.960 . S
H1045 C1031 0.961 . S
H1046 C1031 0.961 . S
H1047 C1031 0.961 . S
H1048 C1032 0.931 . S
H1049 C1037 0.930 . S
H1050 C1038 0.956 . S
H1051 C1038 0.961 . S
H1052 C1038 0.961 . S
H1053 C1039 0.958 . S
H1054 C1039 0.961 . S
H1055 C1039 0.960 . S
C1056 C1057 1.391 . S
C1056 C1058 1.394 . S
C1056 H1072 0.931 . S
C1057 C1056 1.391 . S
C1057 C1061 1.376 . S
C1058 C1056 1.394 . S
C1058 C1059 1.369 . S
C1058 C1062 1.531 . S
C1059 C1058 1.369 . S
C1059 C1060 1.410 . S
C1059 C1067 1.503 . S
C1060 C1059 1.410 . S
C1060 C1061 1.392 . S
C1060 C1063 1.511 . S
C1061 C1057 1.376 . S
C1061 C1060 1.392 . S
C1061 H1073 0.929 . S
C1062 C1058 1.531 . S
C1062 H1074 0.960 . S
C1062 H1075 0.962 . S
C1062 H1076 0.960 . S
C1063 C1060 1.511 . S
C1063 H1077 0.961 . S
C1063 H1078 0.961 . S
C1063 H1079 0.961 . S
C1064 C1065 1.370 . S
C1064 C1066 1.363 . S
C1064 H1080 0.931 . S
C1065 C1064 1.370 . S
C1065 C1069 1.408 . S
C1066 C1064 1.363 . S
C1066 C1067 1.370 . S
C1066 C1070 1.524 . S
C1067 C1059 1.503 . S
C1067 C1066 1.370 . S
C1067 C1068 1.403 . S
C1068 C1067 1.403 . S
C1068 C1069 1.404 . S
C1068 C1071 1.539 . S
C1069 C1065 1.408 . S
C1069 C1068 1.404 . S
C1069 H1081 0.930 . S
C1070 C1066 1.524 . S
C1070 H1082 0.956 . S
C1070 H1083 0.961 . S
C1070 H1084 0.961 . S
C1071 C1068 1.539 . S
C1071 H1085 0.958 . S
C1071 H1086 0.961 . S
C1071 H1087 0.960 . S
H1072 C1056 0.931 . S
H1073 C1061 0.929 . S
H1074 C1062 0.960 . S
H1075 C1062 0.962 . S
H1076 C1062 0.960 . S
H1077 C1063 0.961 . S
H1078 C1063 0.961 . S
H1079 C1063 0.961 . S
H1080 C1064 0.931 . S
H1081 C1069 0.930 . S
H1082 C1070 0.956 . S
H1083 C1070 0.961 . S
H1084 C1070 0.961 . S
H1085 C1071 0.958 . S
H1086 C1071 0.961 . S
H1087 C1071 0.960 . S
C1088 C1089 1.391 . S
C1088 C1090 1.394 . S
C1088 H1104 0.931 . S
C1089 C1088 1.391 . S
C1089 C1093 1.376 . S
C1090 C1088 1.394 . S
C1090 C1091 1.369 . S
C1090 C1094 1.518 1_545 S
C1091 C1090 1.369 . S
C1091 C1092 1.410 . S
C1091 C1099 1.503 1_545 S
C1092 C1091 1.410 . S
C1092 C1093 1.392 . S
C1092 C1095 1.511 . S
C1093 C1089 1.376 . S
C1093 C1092 1.392 . S
C1093 H1105 0.929 . S
C1094 C1090 1.518 1_565 S
C1094 H1106 0.984 . S
C1094 H1107 0.954 1_565 S
C1094 H1108 0.958 1_565 S
C1095 C1092 1.511 . S
C1095 H1109 0.961 . S
C1095 H1110 0.974 . S
C1095 H1111 0.961 1_545 S
C1096 C1097 1.370 . S
C1096 C1098 1.363 . S
C1096 H1112 0.931 . S
C1097 C1096 1.370 . S
C1097 C1101 1.408 . S
C1098 C1096 1.363 . S
C1098 C1099 1.370 . S
C1098 C1102 1.524 1_565 S
C1099 C1091 1.503 1_565 S
C1099 C1098 1.370 . S
C1099 C1100 1.403 . S
C1100 C1099 1.403 . S
C1100 C1101 1.404 . S
C1100 C1103 1.539 . S
C1101 C1097 1.408 . S
C1101 C1100 1.404 . S
C1101 H1113 0.930 . S
C1102 C1098 1.524 1_545 S
C1102 H1114 0.956 . S
C1102 H1115 0.961 . S
C1102 H1116 0.961 . S
C1103 C1100 1.539 . S
C1103 H1117 0.958 . S
C1103 H1118 0.961 . S
C1103 H1119 0.960 . S
H1104 C1088 0.931 . S
H1105 C1093 0.929 . S
H1106 C1094 0.984 . S
H1107 C1094 0.954 1_545 S
H1108 C1094 0.958 1_545 S
H1109 C1095 0.961 . S
H1110 C1095 0.974 . S
H1111 C1095 0.961 1_565 S
H1112 C1096 0.931 . S
H1113 C1101 0.930 . S
H1114 C1102 0.956 . S
H1115 C1102 0.961 . S
H1116 C1102 0.961 . S
H1117 C1103 0.958 . S
H1118 C1103 0.961 . S
H1119 C1103 0.960 . S
C1120 C1121 1.391 . S
C1120 C1122 1.394 . S
C1120 H1136 0.931 . S
C1121 C1120 1.391 . S
C1121 C1125 1.376 . S
C1122 C1120 1.394 . S
C1122 C1123 1.369 . S
C1122 C1126 1.531 . S
C1123 C1122 1.369 . S
C1123 C1124 1.410 . S
C1123 C1131 1.503 . S
C1124 C1123 1.410 . S
C1124 C1125 1.392 . S
C1124 C1127 1.511 . S
C1125 C1121 1.376 . S
C1125 C1124 1.392 . S
C1125 H1137 0.929 . S
C1126 C1122 1.531 . S
C1126 H1138 0.960 . S
C1126 H1139 0.962 . S
C1126 H1140 0.960 . S
C1127 C1124 1.511 . S
C1127 H1141 0.961 . S
C1127 H1142 0.961 . S
C1127 H1143 0.961 . S
C1128 C1129 1.370 . S
C1128 C1130 1.363 . S
C1128 H1144 0.931 . S
C1129 C1128 1.370 . S
C1129 C1133 1.408 . S
C1130 C1128 1.363 . S
C1130 C1131 1.370 . S
C1130 C1134 1.524 . S
C1131 C1123 1.503 . S
C1131 C1130 1.370 . S
C1131 C1132 1.403 . S
C1132 C1131 1.403 . S
C1132 C1133 1.404 . S
C1132 C1135 1.539 . S
C1133 C1129 1.408 . S
C1133 C1132 1.404 . S
C1133 H1145 0.930 . S
C1134 C1130 1.524 . S
C1134 H1146 0.956 . S
C1134 H1147 0.961 . S
C1134 H1148 0.961 . S
C1135 C1132 1.539 . S
C1135 H1149 0.958 . S
C1135 H1150 0.961 . S
C1135 H1151 0.960 . S
H1136 C1120 0.931 . S
H1137 C1125 0.929 . S
H1138 C1126 0.960 . S
H1139 C1126 0.962 . S
H1140 C1126 0.960 . S
H1141 C1127 0.961 . S
H1142 C1127 0.961 . S
H1143 C1127 0.961 . S
H1144 C1128 0.931 . S
H1145 C1133 0.930 . S
H1146 C1134 0.956 . S
H1147 C1134 0.961 . S
H1148 C1134 0.961 . S
H1149 C1135 0.958 . S
H1150 C1135 0.961 . S
H1151 C1135 0.960 . S
C1152 C1153 1.391 . S
C1152 C1154 1.394 . S
C1152 H1168 0.931 . S
C1153 C1152 1.391 . S
C1153 C1157 1.376 . S
C1154 C1152 1.394 . S
C1154 C1155 1.369 . S
C1154 C1158 1.531 . S
C1155 C1154 1.369 . S
C1155 C1156 1.410 . S
C1155 C1163 1.503 . S
C1156 C1155 1.410 . S
C1156 C1157 1.392 . S
C1156 C1159 1.511 . S
C1157 C1153 1.376 . S
C1157 C1156 1.392 . S
C1157 H1169 0.929 . S
C1158 C1154 1.531 . S
C1158 H1170 0.960 . S
C1158 H1171 0.962 . S
C1158 H1172 0.960 . S
C1159 C1156 1.511 . S
C1159 H1173 0.961 . S
C1159 H1174 0.961 . S
C1159 H1175 0.961 . S
C1160 C1161 1.370 . S
C1160 C1162 1.363 . S
C1160 H1176 0.931 . S
C1161 C1160 1.370 . S
C1161 C1165 1.408 . S
C1162 C1160 1.363 . S
C1162 C1163 1.370 . S
C1162 C1166 1.524 . S
C1163 C1155 1.503 . S
C1163 C1162 1.370 . S
C1163 C1164 1.403 . S
C1164 C1163 1.403 . S
C1164 C1165 1.404 . S
C1164 C1167 1.539 . S
C1165 C1161 1.408 . S
C1165 C1164 1.404 . S
C1165 H1177 0.930 . S
C1166 C1162 1.524 . S
C1166 H1178 0.956 . S
C1166 H1179 0.961 . S
C1166 H1180 0.961 . S
C1167 C1164 1.539 . S
C1167 H1181 0.958 . S
C1167 H1182 0.961 . S
C1167 H1183 0.960 . S
H1168 C1152 0.931 . S
H1169 C1157 0.929 . S
H1170 C1158 0.960 . S
H1171 C1158 0.962 . S
H1172 C1158 0.960 . S
H1173 C1159 0.961 . S
H1174 C1159 0.961 . S
H1175 C1159 0.961 . S
H1176 C1160 0.931 . S
H1177 C1165 0.930 . S
H1178 C1166 0.956 . S
H1179 C1166 0.961 . S
H1180 C1166 0.961 . S
H1181 C1167 0.958 . S
H1182 C1167 0.961 . S
H1183 C1167 0.960 . S
C1184 C1185 1.391 . S
C1184 C1186 1.394 . S
C1184 H1200 0.931 . S
C1185 C1184 1.391 . S
C1185 C1189 1.376 . S
C1186 C1184 1.394 . S
C1186 C1187 1.369 . S
C1186 C1190 1.531 1_545 S
C1187 C1186 1.369 . S
C1187 C1188 1.410 . S
C1187 C1195 1.503 1_545 S
C1188 C1187 1.410 . S
C1188 C1189 1.392 . S
C1188 C1191 1.511 . S
C1189 C1185 1.376 . S
C1189 C1188 1.392 . S
C1189 H1201 0.929 . S
C1190 C1186 1.531 1_565 S
C1190 H1202 0.960 . S
C1190 H1203 0.962 . S
C1190 H1204 0.960 . S
C1191 C1188 1.511 . S
C1191 H1205 0.961 . S
C1191 H1206 0.961 . S
C1191 H1207 0.961 . S
C1192 C1193 1.370 . S
C1192 C1194 1.363 . S
C1192 H1208 0.931 . S
C1193 C1192 1.370 . S
C1193 C1197 1.408 . S
C1194 C1192 1.363 . S
C1194 C1195 1.370 . S
C1194 C1198 1.524 . S
C1195 C1187 1.503 1_565 S
C1195 C1194 1.370 . S
C1195 C1196 1.403 . S
C1196 C1195 1.403 . S
C1196 C1197 1.404 . S
C1196 C1199 1.539 . S
C1197 C1193 1.408 . S
C1197 C1196 1.404 . S
C1197 H1209 0.930 . S
C1198 C1194 1.524 . S
C1198 H1210 0.956 . S
C1198 H1211 0.961 1_565 S
C1198 H1212 0.961 . S
C1199 C1196 1.539 . S
C1199 H1213 0.958 . S
C1199 H1214 0.961 . S
C1199 H1215 0.960 1_565 S
H1200 C1184 0.931 . S
H1201 C1189 0.929 . S
H1202 C1190 0.960 . S
H1203 C1190 0.962 . S
H1204 C1190 0.960 . S
H1205 C1191 0.961 . S
H1206 C1191 0.961 . S
H1207 C1191 0.961 . S
H1208 C1192 0.931 . S
H1209 C1197 0.930 . S
H1210 C1198 0.956 . S
H1211 C1198 0.961 1_545 S
H1212 C1198 0.961 . S
H1213 C1199 0.958 . S
H1214 C1199 0.961 . S
H1215 C1199 0.960 1_545 S
C1216 C1217 1.391 . S
C1216 C1218 1.394 . S
C1216 H1232 0.931 . S
C1217 C1216 1.391 . S
C1217 C1221 1.376 . S
C1218 C1216 1.394 . S
C1218 C1219 1.369 . S
C1218 C1222 1.531 . S
C1219 C1218 1.369 . S
C1219 C1220 1.410 . S
C1219 C1227 1.503 . S
C1220 C1219 1.410 . S
C1220 C1221 1.392 . S
C1220 C1223 1.511 . S
C1221 C1217 1.376 . S
C1221 C1220 1.392 . S
C1221 H1233 0.929 . S
C1222 C1218 1.531 . S
C1222 H1234 0.960 . S
C1222 H1235 0.962 . S
C1222 H1236 0.960 . S
C1223 C1220 1.511 . S
C1223 H1237 0.961 . S
C1223 H1238 0.961 . S
C1223 H1239 0.961 . S
C1224 C1225 1.370 . S
C1224 C1226 1.363 . S
C1224 H1240 0.931 . S
C1225 C1224 1.370 . S
C1225 C1229 1.408 . S
C1226 C1224 1.363 . S
C1226 C1227 1.370 . S
C1226 C1230 1.524 . S
C1227 C1219 1.503 . S
C1227 C1226 1.370 . S
C1227 C1228 1.403 . S
C1228 C1227 1.403 . S
C1228 C1229 1.404 . S
C1228 C1231 1.539 . S
C1229 C1225 1.408 . S
C1229 C1228 1.404 . S
C1229 H1241 0.930 . S
C1230 C1226 1.524 . S
C1230 H1242 0.956 . S
C1230 H1243 0.961 . S
C1230 H1244 0.961 . S
C1231 C1228 1.539 . S
C1231 H1245 0.958 . S
C1231 H1246 0.961 . S
C1231 H1247 0.960 . S
H1232 C1216 0.931 . S
H1233 C1221 0.929 . S
H1234 C1222 0.960 . S
H1235 C1222 0.962 . S
H1236 C1222 0.960 . S
H1237 C1223 0.961 . S
H1238 C1223 0.961 . S
H1239 C1223 0.961 . S
H1240 C1224 0.931 . S
H1241 C1229 0.930 . S
H1242 C1230 0.956 . S
H1243 C1230 0.961 . S
H1244 C1230 0.961 . S
H1245 C1231 0.958 . S
H1246 C1231 0.961 . S
H1247 C1231 0.960 . S
C225 C8 1.377 . S
C233 C190 1.367 . S
C257 C22 1.198 . S
C265 C134 1.175 . S
C289 C204 1.017 . S
C297 C36 1.040 . S
C321 C50 1.005 . S
C329 C218 1.001 . S
C353 C64 1.195 . S
C361 C92 1.175 . S
C385 C148 1.379 . S
C393 C78 1.366 . S
C417 C162 1.017 . S
C425 C106 1.040 . S
C449 C120 1.034 . S
C457 C176 0.994 . S
C481 C41 1.565 . S
C489 C7 1.710 . S
C513 C21 1.528 . S
C521 C55 1.464 . S
C545 C175 1.458 . S
C553 C11 1.479 . S
C577 C25 1.458 . S
C585 C161 1.454 . S
C609 C67 1.465 . S
C617 C35 1.465 . S
C641 C151 1.476 . S
C649 C49 1.464 . S
C673 C27 1.502 . S
C681 C13 1.520 . S
C705 C53 1.443 . S
C713 C39 1.466 . S
C737 C153 1.488 . S
C745 C69 1.510 . S
C769 C105 1.470 . S
C777 C83 1.370 . S
C801 C97 1.404 . S
C809 C125 1.367 . S
C833 C221 1.566 . S
C841 C81 1.568 . S
C865 C95 1.626 . S
C873 C209 1.496 . S
C897 C137 1.622 . S
C905 C111 1.505 . S
C929 C123 1.561 . S
C937 C193 1.566 . S
C961 C91 1.765 . S
C969 C77 1.760 . S
C993 C119 1.345 . S
C1001 C109 1.347 . S
C1025 C133 1.754 . S
C1033 C189 1.753 . S
C1057 C147 1.715 . S
C1065 C167 1.594 . S
C1089 C181 1.431 . S
C1097 C63 1.520 . S
C1121 C179 1.454 . S
C1129 C165 1.458 . S
C1153 C203 1.475 . S
C1161 C195 1.373 . S
C1185 C139 1.336 . S
C1193 C223 1.362 . S
C1217 C217 1.355 . S
C1225 C207 1.351 . S
