# Generated by pormake.
# Topology tzs, (4)-cn, num edge types: 1
# Building blocks:
#     Node 0, Type 0, BuildingBlock: NAHDIM_clean_sbu_0, # of connection points: 4
#     Node 1, Type 0, BuildingBlock: NAHDIM_clean_sbu_0, # of connection points: 4
#     Node 2, Type 0, BuildingBlock: NAHDIM_clean_sbu_0, # of connection points: 4
#     Node 3, Type 0, BuildingBlock: NAHDIM_clean_sbu_0, # of connection points: 4
#     Node 4, Type 0, BuildingBlock: NAHDIM_clean_sbu_0, # of connection points: 4
#     Node 5, Type 0, BuildingBlock: NAHDIM_clean_sbu_0, # of connection points: 4
#     Node 6, Type 0, BuildingBlock: NAHDIM_clean_sbu_0, # of connection points: 4
#     Node 7, Type 0, BuildingBlock: NAHDIM_clean_sbu_0, # of connection points: 4
#     Node 8, Type 0, BuildingBlock: NAHDIM_clean_sbu_0, # of connection points: 4
#     Node 9, Type 0, BuildingBlock: NAHDIM_clean_sbu_0, # of connection points: 4
#     Node 10, Type 0, BuildingBlock: NAHDIM_clean_sbu_0, # of connection points: 4
#     Node 11, Type 0, BuildingBlock: NAHDIM_clean_sbu_0, # of connection points: 4
#     Node 12, Type 0, BuildingBlock: NAHDIM_clean_sbu_0, # of connection points: 4
#     Node 13, Type 0, BuildingBlock: NAHDIM_clean_sbu_0, # of connection points: 4
#     Node 14, Type 0, BuildingBlock: NAHDIM_clean_sbu_0, # of connection points: 4
#     Node 15, Type 0, BuildingBlock: NAHDIM_clean_sbu_0, # of connection points: 4
#     Edge 16, Type (0, 0), BuildingBlock: UVAHIK_clean_linker_0, # of connection points: 2
#     Edge 17, Type (0, 0), BuildingBlock: UVAHIK_clean_linker_0, # of connection points: 2
#     Edge 18, Type (0, 0), BuildingBlock: UVAHIK_clean_linker_0, # of connection points: 2
#     Edge 19, Type (0, 0), BuildingBlock: UVAHIK_clean_linker_0, # of connection points: 2
#     Edge 20, Type (0, 0), BuildingBlock: UVAHIK_clean_linker_0, # of connection points: 2
#     Edge 21, Type (0, 0), BuildingBlock: UVAHIK_clean_linker_0, # of connection points: 2
#     Edge 22, Type (0, 0), BuildingBlock: UVAHIK_clean_linker_0, # of connection points: 2
#     Edge 23, Type (0, 0), BuildingBlock: UVAHIK_clean_linker_0, # of connection points: 2
#     Edge 24, Type (0, 0), BuildingBlock: UVAHIK_clean_linker_0, # of connection points: 2
#     Edge 25, Type (0, 0), BuildingBlock: UVAHIK_clean_linker_0, # of connection points: 2
#     Edge 26, Type (0, 0), BuildingBlock: UVAHIK_clean_linker_0, # of connection points: 2
#     Edge 27, Type (0, 0), BuildingBlock: UVAHIK_clean_linker_0, # of connection points: 2
#     Edge 28, Type (0, 0), BuildingBlock: UVAHIK_clean_linker_0, # of connection points: 2
#     Edge 29, Type (0, 0), BuildingBlock: UVAHIK_clean_linker_0, # of connection points: 2
#     Edge 30, Type (0, 0), BuildingBlock: UVAHIK_clean_linker_0, # of connection points: 2
#     Edge 31, Type (0, 0), BuildingBlock: UVAHIK_clean_linker_0, # of connection points: 2
#     Edge 32, Type (0, 0), BuildingBlock: UVAHIK_clean_linker_0, # of connection points: 2
#     Edge 33, Type (0, 0), BuildingBlock: UVAHIK_clean_linker_0, # of connection points: 2
#     Edge 34, Type (0, 0), BuildingBlock: UVAHIK_clean_linker_0, # of connection points: 2
#     Edge 35, Type (0, 0), BuildingBlock: UVAHIK_clean_linker_0, # of connection points: 2
#     Edge 36, Type (0, 0), BuildingBlock: UVAHIK_clean_linker_0, # of connection points: 2
#     Edge 37, Type (0, 0), BuildingBlock: UVAHIK_clean_linker_0, # of connection points: 2
#     Edge 38, Type (0, 0), BuildingBlock: UVAHIK_clean_linker_0, # of connection points: 2
#     Edge 39, Type (0, 0), BuildingBlock: UVAHIK_clean_linker_0, # of connection points: 2
#     Edge 40, Type (0, 0), BuildingBlock: UVAHIK_clean_linker_0, # of connection points: 2
#     Edge 41, Type (0, 0), BuildingBlock: UVAHIK_clean_linker_0, # of connection points: 2
#     Edge 42, Type (0, 0), BuildingBlock: UVAHIK_clean_linker_0, # of connection points: 2
#     Edge 43, Type (0, 0), BuildingBlock: UVAHIK_clean_linker_0, # of connection points: 2
#     Edge 44, Type (0, 0), BuildingBlock: UVAHIK_clean_linker_0, # of connection points: 2
#     Edge 45, Type (0, 0), BuildingBlock: UVAHIK_clean_linker_0, # of connection points: 2
#     Edge 46, Type (0, 0), BuildingBlock: UVAHIK_clean_linker_0, # of connection points: 2
#     Edge 47, Type (0, 0), BuildingBlock: UVAHIK_clean_linker_0, # of connection points: 2
# Relax obj value: 0.068
# Max RMSD: 0.082
# Mean RMSD: 0.082
data_MOF--net-tzs--node1-NAHDIM_clean_sbu_0--edge1-UVAHIK_clean_linker_0
_symmetry_space_group_name_H-M    P1
_symmetry_Int_Tables_number       1
_symmetry_cell_setting            triclinic
loop_
_symmetry_equiv_pos_as_xyz
'x, y, z'
_cell_length_a     63.461456
_cell_length_b     63.530781
_cell_length_c     51.075868
_cell_angle_alpha  89.969846
_cell_angle_beta   90.069642
_cell_angle_gamma 89.993584
loop_
_atom_site_label
_atom_site_type_symbol
_atom_site_fract_x
_atom_site_fract_y
_atom_site_fract_z
_atom_type_partial_charge
C0 C 0.17259 0.3279 0.19025 0.0
O1 O 0.17801 0.34467 0.17678 0.0
O2 O 0.14452 0.37617 0.20303 0.0
Zn3 Zn 0.13349 0.34895 0.1883 0.0
O4 O 0.13107 0.35045 0.14926 0.0
C5 C 0.10132 0.34778 0.22742 0.0
O6 O 0.11663 0.35539 0.24193 0.0
O7 O 0.1536 0.32593 0.19769 0.0
C8 C 0.11797 0.36254 0.13794 0.0
O9 O 0.10563 0.37455 0.15218 0.0
C10 C 0.15279 0.39076 0.18946 0.0
O11 O 0.15455 0.38846 0.164 0.0
O12 O 0.10496 0.34331 0.20362 0.0
C13 C 0.66067 0.17491 0.19399 0.0
O14 O 0.64662 0.18025 0.17628 0.0
O15 O 0.61177 0.1407 0.20681 0.0
Zn16 Zn 0.63951 0.13566 0.18906 0.0
O17 O 0.63636 0.13954 0.15024 0.0
C18 C 0.64422 0.09117 0.1812 0.0
O19 O 0.6342 0.09554 0.15934 0.0
O20 O 0.66078 0.15619 0.20275 0.0
C21 C 0.65236 0.13896 0.13536 0.0
O22 O 0.67107 0.13582 0.14568 0.0
C23 C 0.59719 0.15162 0.19649 0.0
O24 O 0.60027 0.16026 0.17344 0.0
O25 O 0.64858 0.106 0.197 0.0
C26 C 0.81547 0.66817 0.1846 0.0
O27 O 0.81108 0.65433 0.16628 0.0
O28 O 0.84307 0.61724 0.19821 0.0
Zn29 Zn 0.85353 0.64505 0.18465 0.0
O30 O 0.85516 0.64412 0.1455 0.0
C31 C 0.88833 0.64102 0.22 0.0
O32 O 0.87486 0.62888 0.23236 0.0
O33 O 0.8334 0.66759 0.19564 0.0
C34 C 0.86723 0.63098 0.13428 0.0
O35 O 0.87877 0.61827 0.14868 0.0
C36 C 0.8323 0.60404 0.18518 0.0
O37 O 0.82695 0.6084 0.16092 0.0
O38 O 0.88253 0.65039 0.19921 0.0
C39 C 0.33134 0.81388 0.1995 0.0
O40 O 0.34998 0.80896 0.19016 0.0
O41 O 0.37564 0.84836 0.20564 0.0
Zn42 Zn 0.34702 0.85526 0.19084 0.0
O43 O 0.34827 0.85637 0.15168 0.0
C44 C 0.3404 0.88738 0.22883 0.0
O45 O 0.34804 0.87273 0.24434 0.0
O46 O 0.32633 0.83315 0.20171 0.0
C47 C 0.35898 0.87041 0.14001 0.0
O48 O 0.36912 0.88456 0.15392 0.0
C49 C 0.39032 0.84022 0.19211 0.0
O50 O 0.3869 0.83575 0.16736 0.0
O51 O 0.33808 0.88337 0.20464 0.0
C52 C 0.18781 0.6538 0.2875 0.0
O53 O 0.1949 0.63513 0.29415 0.0
O54 O 0.1588 0.60714 0.29146 0.0
Zn55 Zn 0.14903 0.63554 0.30415 0.0
O56 O 0.14919 0.63693 0.34357 0.0
C57 C 0.10742 0.62474 0.28723 0.0
O58 O 0.11481 0.60567 0.29108 0.0
O59 O 0.16831 0.65781 0.29007 0.0
C60 C 0.13647 0.6258 0.35689 0.0
O61 O 0.12341 0.61313 0.34467 0.0
C62 C 0.16733 0.59321 0.30585 0.0
O63 O 0.17077 0.59724 0.33071 0.0
O64 O 0.1194 0.64048 0.29113 0.0
C65 C 0.33005 0.18185 0.27885 0.0
O66 O 0.3501 0.18688 0.27757 0.0
O67 O 0.37475 0.15187 0.29586 0.0
Zn68 Zn 0.34536 0.14621 0.3086 0.0
O69 O 0.34384 0.15117 0.3473 0.0
C70 C 0.34328 0.10115 0.31541 0.0
O71 O 0.35344 0.10535 0.33722 0.0
O72 O 0.3246 0.16521 0.29085 0.0
C73 C 0.32777 0.14544 0.36027 0.0
O74 O 0.31202 0.13633 0.34799 0.0
C75 C 0.39048 0.14703 0.31003 0.0
O76 O 0.38724 0.1386 0.33317 0.0
O77 O 0.33805 0.11618 0.30031 0.0
C78 C 0.80333 0.33136 0.29351 0.0
O79 O 0.79675 0.34427 0.31185 0.0
O80 O 0.83138 0.38359 0.28694 0.0
Zn81 Zn 0.84016 0.35546 0.30113 0.0
O82 O 0.83638 0.35456 0.34014 0.0
C83 C 0.88484 0.3588 0.30654 0.0
O84 O 0.87924 0.37042 0.32663 0.0
O85 O 0.82209 0.33308 0.28514 0.0
C86 C 0.84411 0.33932 0.35307 0.0
O87 O 0.85442 0.32447 0.34058 0.0
C88 C 0.83283 0.40019 0.30066 0.0
O89 O 0.83993 0.39885 0.32478 0.0
O90 O 0.87063 0.3505 0.29235 0.0
C91 C 0.65719 0.81303 0.27438 0.0
O92 O 0.63851 0.81384 0.26331 0.0
O93 O 0.6112 0.8388 0.2946 0.0
Zn94 Zn 0.64033 0.84584 0.3076 0.0
O95 O 0.64165 0.84524 0.34679 0.0
C96 C 0.64706 0.87788 0.26999 0.0
O97 O 0.64198 0.86225 0.25437 0.0
O98 O 0.66129 0.82515 0.2935 0.0
C99 C 0.63323 0.8595 0.3607 0.0
O100 O 0.62329 0.8751 0.34915 0.0
C101 C 0.59557 0.83408 0.30898 0.0
O102 O 0.59797 0.83318 0.33449 0.0
O103 O 0.64771 0.87466 0.29452 0.0
C104 C 0.82731 0.66197 0.76908 0.0
O105 O 0.8449 0.65986 0.75581 0.0
O106 O 0.87528 0.6417 0.7888 0.0
Zn107 Zn 0.84725 0.63143 0.80203 0.0
O108 O 0.84737 0.6305 0.84125 0.0
C109 C 0.84697 0.5988 0.7639 0.0
O110 O 0.85431 0.61421 0.74937 0.0
O111 O 0.82459 0.65111 0.7897 0.0
C112 C 0.85832 0.61694 0.85348 0.0
O113 O 0.86938 0.60318 0.84009 0.0
C114 C 0.88968 0.64987 0.80277 0.0
O115 O 0.88682 0.65201 0.82809 0.0
O116 O 0.84229 0.60246 0.78764 0.0
C117 C 0.31515 0.82488 0.8055 0.0
O118 O 0.31036 0.84214 0.81833 0.0
O119 O 0.3468 0.87111 0.79365 0.0
Zn120 Zn 0.35543 0.84337 0.80928 0.0
O121 O 0.357 0.84539 0.84834 0.0
C122 C 0.38761 0.83975 0.77103 0.0
O123 O 0.37233 0.84696 0.75613 0.0
O124 O 0.33422 0.82154 0.79926 0.0
C125 C 0.3697 0.85801 0.85945 0.0
O126 O 0.38201 0.86989 0.84498 0.0
C127 C 0.33783 0.88599 0.80595 0.0
O128 O 0.33335 0.88366 0.83088 0.0
O129 O 0.38393 0.83614 0.79505 0.0
C130 C 0.16963 0.31364 0.81114 0.0
O131 O 0.15336 0.30967 0.82623 0.0
O132 O 0.12164 0.34281 0.79203 0.0
Zn133 Zn 0.14863 0.3526 0.80874 0.0
O134 O 0.14487 0.35449 0.84757 0.0
C135 C 0.14907 0.38634 0.7719 0.0
O136 O 0.13903 0.37227 0.75776 0.0
O137 O 0.17139 0.33177 0.80088 0.0
C138 C 0.13253 0.3679 0.85779 0.0
O139 O 0.12222 0.38103 0.84257 0.0
C140 C 0.10668 0.33362 0.80396 0.0
O141 O 0.10853 0.32955 0.82908 0.0
O142 O 0.15567 0.38127 0.79454 0.0
C143 C 0.66135 0.18108 0.79619 0.0
O144 O 0.65098 0.18669 0.81732 0.0
O145 O 0.64745 0.11357 0.79075 0.0
Zn146 Zn 0.63822 0.14232 0.80216 0.0
O147 O 0.63987 0.14432 0.84132 0.0
C148 C 0.60463 0.14193 0.76554 0.0
O149 O 0.61977 0.13427 0.75082 0.0
O150 O 0.65801 0.16309 0.78621 0.0
C151 C 0.62416 0.14763 0.85614 0.0
O152 O 0.60538 0.15013 0.84576 0.0
C153 C 0.65848 0.10125 0.80477 0.0
O154 O 0.66422 0.10714 0.82837 0.0
O155 O 0.60881 0.14716 0.78899 0.0
C156 C 0.83291 0.30344 0.69358 0.0
O157 O 0.84375 0.29622 0.67361 0.0
O158 O 0.88792 0.33023 0.69774 0.0
Zn159 Zn 0.85927 0.33902 0.68514 0.0
O160 O 0.85687 0.33542 0.64621 0.0
C161 C 0.86216 0.38389 0.67999 0.0
O162 O 0.87295 0.37881 0.65898 0.0
O163 O 0.83704 0.32164 0.70245 0.0
C164 C 0.84117 0.34324 0.63419 0.0
O165 O 0.82675 0.35343 0.64758 0.0
C166 C 0.90386 0.33145 0.6828 0.0
O167 O 0.90132 0.33801 0.6586 0.0
O168 O 0.85474 0.36937 0.69438 0.0
C169 C 0.68437 0.82708 0.69576 0.0
O170 O 0.69025 0.84053 0.67764 0.0
O171 O 0.65891 0.88026 0.70926 0.0
Zn172 Zn 0.64832 0.85305 0.69419 0.0
O173 O 0.6493 0.85406 0.65491 0.0
C174 C 0.60389 0.85841 0.69346 0.0
O175 O 0.60901 0.87144 0.67452 0.0
O176 O 0.66646 0.8293 0.70645 0.0
C177 C 0.63972 0.84026 0.64142 0.0
O178 O 0.62952 0.82509 0.65346 0.0
C179 C 0.65893 0.89695 0.69554 0.0
O180 O 0.65218 0.89615 0.67124 0.0
O181 O 0.61838 0.84853 0.70547 0.0
C182 C 0.15351 0.68438 0.71435 0.0
O183 O 0.13373 0.69047 0.71378 0.0
O184 O 0.10764 0.65565 0.70337 0.0
Zn185 Zn 0.13642 0.64688 0.69084 0.0
O186 O 0.13805 0.64731 0.65143 0.0
C187 C 0.12673 0.60472 0.70663 0.0
O188 O 0.10743 0.61143 0.70252 0.0
O189 O 0.15837 0.66632 0.70554 0.0
C190 C 0.12633 0.63525 0.63792 0.0
O191 O 0.11284 0.62293 0.64993 0.0
C192 C 0.09387 0.66483 0.68937 0.0
O193 O 0.09824 0.6696 0.66495 0.0
O194 O 0.14208 0.61731 0.70337 0.0
C195 C 0.31173 0.15164 0.728 0.0
O196 O 0.30875 0.13172 0.73379 0.0
O197 O 0.33582 0.10595 0.70435 0.0
Zn198 Zn 0.34306 0.13514 0.69223 0.0
O199 O 0.33732 0.13781 0.65374 0.0
C200 C 0.38779 0.13162 0.6857 0.0
O201 O 0.38206 0.11962 0.666 0.0
O202 O 0.3256 0.15659 0.71116 0.0
C203 C 0.34596 0.15211 0.64007 0.0
O204 O 0.35886 0.16548 0.6514 0.0
C205 C 0.336 0.09031 0.68887 0.0
O206 O 0.34076 0.09328 0.66412 0.0
O207 O 0.3737 0.14025 0.69971 0.0
C208 C 0.3196 0.21416 0.25385 0.0
C209 C 0.31383 0.19577 0.26736 0.0
C210 C 0.30417 0.22767 0.24389 0.0
C211 C 0.24905 0.24287 0.25406 0.0
H212 H 0.25389 0.26822 0.18525 0.0
C213 C 0.18251 0.29333 0.21028 0.0
C214 C 0.18848 0.31186 0.19724 0.0
C215 C 0.19763 0.27847 0.21754 0.0
C216 C 0.25242 0.26142 0.20461 0.0
H217 H 0.28736 0.1769 0.28054 0.0
H218 H 0.26051 0.20045 0.26313 0.0
H219 H 0.28082 0.24354 0.20027 0.0
H220 H 0.21497 0.32924 0.18132 0.0
H221 H 0.24139 0.30348 0.1944 0.0
H222 H 0.22087 0.26091 0.25866 0.0
C223 C 0.27694 0.20453 0.26048 0.0
C224 C 0.26783 0.24729 0.21318 0.0
C225 C 0.29234 0.191 0.27034 0.0
C226 C 0.20985 0.3151 0.19131 0.0
C227 C 0.22498 0.30027 0.19866 0.0
C228 C 0.23371 0.25704 0.24556 0.0
C229 C 0.28269 0.22309 0.24736 0.0
C230 C 0.26628 0.23788 0.238 0.0
C231 C 0.21906 0.28185 0.21201 0.0
C232 C 0.23522 0.26649 0.22074 0.0
H233 H 0.33602 0.21827 0.25121 0.0
H234 H 0.30905 0.24196 0.23405 0.0
H235 H 0.24762 0.23614 0.27347 0.0
H236 H 0.16614 0.29031 0.21498 0.0
H237 H 0.19251 0.26429 0.22743 0.0
C238 C 0.79562 0.30205 0.26215 0.0
C239 C 0.78915 0.31499 0.28297 0.0
C240 C 0.78217 0.28657 0.25227 0.0
C241 C 0.73627 0.2543 0.26986 0.0
H242 H 0.72998 0.24748 0.19479 0.0
C243 C 0.68996 0.18536 0.22416 0.0
C244 C 0.67606 0.19051 0.2037 0.0
C245 C 0.70428 0.20023 0.23359 0.0
C246 C 0.73153 0.24926 0.21579 0.0
H247 H 0.76352 0.32183 0.30973 0.0
H248 H 0.74006 0.29483 0.29243 0.0
H249 H 0.75386 0.27432 0.21188 0.0
H250 H 0.66641 0.21523 0.17691 0.0
H251 H 0.6914 0.24118 0.19342 0.0
H252 H 0.71373 0.22945 0.27379 0.0
C253 C 0.75559 0.29656 0.28391 0.0
C254 C 0.74533 0.26448 0.22556 0.0
C255 C 0.76899 0.31211 0.29371 0.0
C256 C 0.6769 0.21077 0.1927 0.0
C257 C 0.6913 0.2256 0.20204 0.0
C258 C 0.72256 0.23901 0.26009 0.0
C259 C 0.76204 0.28365 0.26309 0.0
C260 C 0.74775 0.26721 0.25269 0.0
C261 C 0.70506 0.22051 0.22265 0.0
C262 C 0.71998 0.23641 0.23296 0.0
H263 H 0.81108 0.30387 0.25347 0.0
H264 H 0.78762 0.27671 0.23637 0.0
H265 H 0.73798 0.25592 0.29086 0.0
H266 H 0.68974 0.16986 0.23302 0.0
H267 H 0.71486 0.1958 0.24931 0.0
C268 C 0.80386 0.698 0.21313 0.0
C269 C 0.79949 0.68372 0.19284 0.0
C270 C 0.78851 0.71224 0.22146 0.0
C271 C 0.73915 0.73806 0.20106 0.0
H272 H 0.73145 0.74634 0.27567 0.0
C273 C 0.66896 0.78458 0.24379 0.0
C274 C 0.67338 0.79826 0.26469 0.0
C275 C 0.68432 0.77064 0.2347 0.0
C276 C 0.73356 0.74437 0.25477 0.0
H277 H 0.7757 0.67334 0.16515 0.0
H278 H 0.74889 0.69813 0.17983 0.0
H279 H 0.75852 0.72218 0.26019 0.0
H280 H 0.69741 0.80814 0.29236 0.0
H281 H 0.72421 0.78399 0.27635 0.0
H282 H 0.71417 0.76028 0.19566 0.0
C283 C 0.76423 0.69842 0.18913 0.0
C284 C 0.74907 0.73054 0.24591 0.0
C285 C 0.77957 0.68416 0.18082 0.0
C286 C 0.69346 0.79775 0.27629 0.0
C287 C 0.7088 0.78382 0.26721 0.0
C288 C 0.72363 0.75192 0.20993 0.0
C289 C 0.76851 0.71252 0.20965 0.0
C290 C 0.75205 0.72726 0.21897 0.0
C291 C 0.70439 0.7701 0.24635 0.0
C292 C 0.7207 0.75524 0.23688 0.0
H293 H 0.81908 0.69811 0.22273 0.0
H294 H 0.79236 0.72311 0.23708 0.0
H295 H 0.74125 0.73604 0.18017 0.0
H296 H 0.65362 0.78457 0.23447 0.0
H297 H 0.68038 0.76008 0.21879 0.0
C298 C 0.32287 0.77605 0.20803 0.0
C299 C 0.31646 0.79722 0.20751 0.0
C300 C 0.3089 0.76032 0.21594 0.0
C301 C 0.25262 0.74839 0.22287 0.0
H302 H 0.27174 0.70636 0.2726 0.0
C303 C 0.19547 0.69075 0.27342 0.0
C304 C 0.20238 0.66999 0.27737 0.0
C305 C 0.20937 0.7061 0.26424 0.0
C306 C 0.26622 0.71779 0.25842 0.0
H307 H 0.29032 0.81848 0.21463 0.0
H308 H 0.26592 0.79095 0.22838 0.0
H309 H 0.2961 0.7334 0.25748 0.0
H310 H 0.22919 0.64893 0.2744 0.0
H311 H 0.25331 0.67559 0.25789 0.0
H312 H 0.2228 0.73272 0.22359 0.0
C313 C 0.28173 0.78655 0.22256 0.0
C314 C 0.28017 0.73329 0.24982 0.0
C315 C 0.29574 0.80231 0.21484 0.0
C316 C 0.22341 0.66483 0.27172 0.0
C317 C 0.23727 0.68014 0.26239 0.0
C318 C 0.23869 0.7328 0.23134 0.0
C319 C 0.28821 0.76542 0.2233 0.0
C320 C 0.27349 0.74878 0.23204 0.0
C321 C 0.23045 0.70098 0.25867 0.0
C322 C 0.24531 0.71736 0.24929 0.0
H323 H 0.33873 0.77161 0.20247 0.0
H324 H 0.31424 0.74412 0.21609 0.0
H325 H 0.24713 0.76 0.20889 0.0
H326 H 0.17937 0.69524 0.27769 0.0
H327 H 0.20367 0.72207 0.26195 0.0
C328 C 0.71745 0.80621 0.69017 0.0
C329 C 0.69826 0.80943 0.70326 0.0
C330 C 0.7305 0.7894 0.69701 0.0
C331 C 0.74256 0.75317 0.75093 0.0
H332 H 0.76923 0.72001 0.69652 0.0
C333 C 0.79229 0.67958 0.77451 0.0
C334 C 0.8113 0.67744 0.76068 0.0
C335 C 0.77753 0.69477 0.76708 0.0
C336 C 0.76204 0.72924 0.71194 0.0
H337 H 0.67771 0.79756 0.73383 0.0
H338 H 0.70054 0.76817 0.74574 0.0
H339 H 0.74539 0.74854 0.6845 0.0
H340 H 0.82964 0.68937 0.72806 0.0
H341 H 0.80406 0.71602 0.71537 0.0
H342 H 0.75942 0.7341 0.77838 0.0
C343 C 0.70552 0.77875 0.73031 0.0
C344 C 0.7484 0.74556 0.70505 0.0
C345 C 0.69242 0.79553 0.7234 0.0
C346 C 0.81512 0.69058 0.73908 0.0
C347 C 0.8004 0.70579 0.7317 0.0
C348 C 0.75626 0.73689 0.75783 0.0
C349 C 0.72466 0.7755 0.71714 0.0
C350 C 0.73863 0.75777 0.72447 0.0
C351 C 0.7815 0.70814 0.74571 0.0
C352 C 0.76626 0.72484 0.7384 0.0
H353 H 0.72242 0.81665 0.67458 0.0
H354 H 0.7453 0.78743 0.68675 0.0
H355 H 0.73544 0.76249 0.76632 0.0
H356 H 0.78883 0.66962 0.79117 0.0
H357 H 0.76299 0.69601 0.77805 0.0
C358 C 0.16443 0.7177 0.73661 0.0
C359 C 0.16995 0.69845 0.72496 0.0
C360 C 0.17998 0.73109 0.74645 0.0
C361 C 0.23565 0.73205 0.76799 0.0
H362 H 0.23036 0.7921 0.75596 0.0
C363 C 0.30364 0.79079 0.7855 0.0
C364 C 0.29848 0.80988 0.79782 0.0
C365 C 0.28781 0.77688 0.77768 0.0
C366 C 0.23193 0.77539 0.75972 0.0
H367 H 0.19611 0.67813 0.71447 0.0
H368 H 0.22324 0.70167 0.73121 0.0
H369 H 0.20298 0.76841 0.74013 0.0
H370 H 0.27268 0.82925 0.81185 0.0
H371 H 0.24507 0.80494 0.79816 0.0
H372 H 0.26479 0.7391 0.78725 0.0
C373 C 0.20688 0.70626 0.73317 0.0
C374 C 0.21624 0.76182 0.75069 0.0
C375 C 0.19133 0.69283 0.72343 0.0
C376 C 0.27718 0.81469 0.80236 0.0
C377 C 0.26136 0.80084 0.79441 0.0
C378 C 0.25139 0.74563 0.77691 0.0
C379 C 0.20138 0.72556 0.74474 0.0
C380 C 0.21793 0.73999 0.75469 0.0
C381 C 0.26651 0.78184 0.7819 0.0
C382 C 0.24969 0.76743 0.77283 0.0
H383 H 0.14809 0.72243 0.73823 0.0
H384 H 0.1752 0.7457 0.7556 0.0
H385 H 0.23726 0.71535 0.77175 0.0
H386 H 0.31991 0.78663 0.78173 0.0
H387 H 0.29222 0.76243 0.76786 0.0
C388 C 0.18267 0.27669 0.81589 0.0
C389 C 0.18532 0.29705 0.80566 0.0
C390 C 0.19711 0.2608 0.81006 0.0
C391 C 0.25121 0.25161 0.78632 0.0
H392 H 0.22922 0.1971 0.76574 0.0
C393 C 0.30144 0.18939 0.73334 0.0
C394 C 0.29849 0.16813 0.74002 0.0
C395 C 0.28834 0.20491 0.74373 0.0
C396 C 0.23564 0.21212 0.77184 0.0
H397 H 0.20538 0.31681 0.7816 0.0
H398 H 0.23051 0.28902 0.77128 0.0
H399 H 0.20501 0.22469 0.77956 0.0
H400 H 0.27979 0.14654 0.76332 0.0
H401 H 0.25701 0.17372 0.78163 0.0
H402 H 0.28183 0.2391 0.7783 0.0
C403 C 0.21737 0.2854 0.78402 0.0
C404 C 0.22176 0.22793 0.77973 0.0
C405 C 0.20289 0.30128 0.78979 0.0
C406 C 0.28242 0.16277 0.7577 0.0
C407 C 0.2693 0.17831 0.76809 0.0
C408 C 0.26509 0.23579 0.77846 0.0
C409 C 0.21454 0.26496 0.79393 0.0
C410 C 0.22939 0.2479 0.78681 0.0
C411 C 0.27201 0.19953 0.76103 0.0
C412 C 0.25744 0.21594 0.77089 0.0
H413 H 0.16933 0.27293 0.82826 0.0
H414 H 0.19466 0.24525 0.81822 0.0
H415 H 0.25755 0.26675 0.79205 0.0
H416 H 0.31367 0.19405 0.71975 0.0
H417 H 0.29067 0.22108 0.73764 0.0
C418 C 0.68918 0.18835 0.76286 0.0
C419 C 0.67783 0.19484 0.78505 0.0
C420 C 0.70565 0.20059 0.75317 0.0
C421 C 0.72796 0.25401 0.75343 0.0
H422 H 0.77946 0.22511 0.73393 0.0
C423 C 0.80418 0.29853 0.72654 0.0
C424 C 0.81559 0.29091 0.70496 0.0
C425 C 0.78742 0.28696 0.73684 0.0
C426 C 0.76512 0.23339 0.73903 0.0
H427 H 0.67454 0.21952 0.81411 0.0
H428 H 0.70345 0.24091 0.79716 0.0
H429 H 0.7497 0.20495 0.75056 0.0
H430 H 0.81843 0.26514 0.67733 0.0
H431 H 0.78906 0.24506 0.69514 0.0
H432 H 0.74338 0.28245 0.74176 0.0
C433 C 0.69948 0.22638 0.78722 0.0
C434 C 0.74808 0.22185 0.74855 0.0
C435 C 0.68298 0.2141 0.79697 0.0
C436 C 0.81001 0.27141 0.69403 0.0
C437 C 0.79324 0.25986 0.70431 0.0
C438 C 0.74501 0.26557 0.74385 0.0
C439 C 0.71115 0.2196 0.76542 0.0
C440 C 0.72929 0.23202 0.75572 0.0
C441 C 0.78172 0.26754 0.72577 0.0
C442 C 0.76374 0.25536 0.73644 0.0
H443 H 0.68554 0.17366 0.7531 0.0
H444 H 0.71412 0.19515 0.73606 0.0
H445 H 0.7136 0.26224 0.75856 0.0
H446 H 0.80813 0.31348 0.73547 0.0
H447 H 0.77904 0.29316 0.75361 0.0
C448 C 0.11556 0.38264 0.89816 0.0
C449 C 0.12932 0.36809 0.88644 0.0
C450 C 0.11234 0.38242 0.92524 0.0
C451 C 0.11747 0.34779 0.98294 0.0
H452 H 0.1177 0.39985 0.02255 0.0
C453 C 0.12947 0.34946 0.09414 0.0
C454 C 0.11711 0.36332 0.10905 0.0
C455 C 0.12898 0.35023 0.06687 0.0
C456 C 0.11729 0.38521 0.0117 0.0
H457 H 0.1506 0.34202 0.89398 0.0
H458 H 0.14514 0.3418 0.94106 0.0
H459 H 0.12057 0.401 0.97486 0.0
H460 H 0.09448 0.38888 0.10702 0.0
H461 H 0.09363 0.3902 0.05917 0.0
H462 H 0.11454 0.33197 0.01972 0.0
C463 C 0.1366 0.35317 0.92934 0.0
C464 C 0.11894 0.38586 0.98442 0.0
C465 C 0.13984 0.35341 0.90235 0.0
C466 C 0.10418 0.37798 0.09607 0.0
C467 C 0.10377 0.37881 0.06871 0.0
C468 C 0.11585 0.34713 0.01015 0.0
C469 C 0.12274 0.3676 0.94108 0.0
C470 C 0.11941 0.36713 0.96981 0.0
C471 C 0.11615 0.36491 0.05385 0.0
C472 C 0.1161 0.36581 0.02486 0.0
H473 H 0.1072 0.39413 0.88642 0.0
H474 H 0.10147 0.39365 0.93372 0.0
H475 H 0.11733 0.3331 0.97217 0.0
H476 H 0.13964 0.33801 0.10351 0.0
H477 H 0.13894 0.33953 0.05596 0.0
C478 C 0.60987 0.15106 0.90168 0.0
C479 C 0.62711 0.14814 0.88485 0.0
C480 C 0.61273 0.15098 0.92883 0.0
C481 C 0.64944 0.13221 0.97971 0.0
H482 H 0.62008 0.17205 0.02412 0.0
C483 C 0.66724 0.13958 0.09 0.0
C484 C 0.64978 0.14125 0.10675 0.0
C485 C 0.66467 0.14119 0.0629 0.0
C486 C 0.62824 0.16071 0.01198 0.0
H487 H 0.66094 0.14319 0.88328 0.0
H488 H 0.66591 0.14326 0.9305 0.0
H489 H 0.61507 0.17343 0.97675 0.0
H490 H 0.61596 0.14618 0.10824 0.0
H491 H 0.61148 0.14884 0.06098 0.0
H492 H 0.66256 0.11944 0.01488 0.0
C493 C 0.65014 0.1453 0.92278 0.0
C494 C 0.62536 0.16149 0.98487 0.0
C495 C 0.64729 0.14538 0.8957 0.0
C496 C 0.62974 0.14483 0.09587 0.0
C497 C 0.62718 0.14648 0.0688 0.0
C498 C 0.65233 0.13144 0.00678 0.0
C499 C 0.63289 0.14795 0.93966 0.0
C500 C 0.63593 0.14724 0.96845 0.0
C501 C 0.6446 0.14456 0.05201 0.0
C502 C 0.64175 0.14567 0.02322 0.0
H503 H 0.59412 0.15321 0.89394 0.0
H504 H 0.59909 0.15286 0.94133 0.0
H505 H 0.65753 0.12078 0.96763 0.0
H506 H 0.6829 0.13689 0.09777 0.0
H507 H 0.67843 0.13991 0.05048 0.0
C508 C 0.87258 0.60344 0.89609 0.0
C509 C 0.8595 0.6175 0.88238 0.0
C510 C 0.87422 0.60456 0.92335 0.0
C511 C 0.86606 0.64117 0.97844 0.0
H512 H 0.86614 0.59049 0.0208 0.0
C513 C 0.85517 0.64314 0.09017 0.0
C514 C 0.86766 0.62957 0.10541 0.0
C515 C 0.85517 0.64158 0.06293 0.0
C516 C 0.86642 0.60477 0.0092 0.0
H517 H 0.83761 0.64354 0.88656 0.0
H518 H 0.84029 0.64531 0.93403 0.0
H519 H 0.86404 0.58768 0.9732 0.0
H520 H 0.89007 0.6038 0.10398 0.0
H521 H 0.89015 0.60117 0.05629 0.0
H522 H 0.86829 0.65827 0.01439 0.0
C523 C 0.84955 0.63364 0.92371 0.0
C524 C 0.8652 0.60316 0.98196 0.0
C525 C 0.84791 0.63252 0.89651 0.0
C526 C 0.88024 0.61447 0.09279 0.0
C527 C 0.88021 0.61288 0.0655 0.0
C528 C 0.86727 0.64277 0.00564 0.0
C529 C 0.86283 0.61978 0.93743 0.0
C530 C 0.86482 0.62136 0.9663 0.0
C531 C 0.86764 0.6264 0.05029 0.0
C532 C 0.86728 0.6246 0.02134 0.0
H533 H 0.88175 0.59171 0.88577 0.0
H534 H 0.88472 0.59377 0.93335 0.0
H535 H 0.86622 0.65547 0.96689 0.0
H536 H 0.84524 0.65491 0.09928 0.0
H537 H 0.8451 0.65204 0.05177 0.0
C538 C 0.37374 0.8846 0.09804 0.0
C539 C 0.3608 0.87008 0.11116 0.0
C540 C 0.37591 0.88375 0.07082 0.0
C541 C 0.36945 0.84739 0.01504 0.0
H542 H 0.36858 0.89836 0.97323 0.0
C543 C 0.35773 0.84602 0.90359 0.0
C544 C 0.37018 0.85956 0.8883 0.0
C545 C 0.35791 0.84753 0.93082 0.0
C546 C 0.36913 0.88402 0.98469 0.0
H547 H 0.33973 0.84349 0.10598 0.0
H548 H 0.3433 0.84219 0.05863 0.0
H549 H 0.36623 0.90078 0.02087 0.0
H550 H 0.3926 0.88532 0.88963 0.0
H551 H 0.39292 0.88792 0.93736 0.0
H552 H 0.37207 0.83061 0.9789 0.0
C553 C 0.35207 0.85401 0.06936 0.0
C554 C 0.36778 0.88539 0.01195 0.0
C555 C 0.34991 0.85485 0.0965 0.0
C556 C 0.38284 0.87466 0.90086 0.0
C557 C 0.38294 0.87623 0.92817 0.0
C558 C 0.37075 0.84601 0.98783 0.0
C559 C 0.3652 0.86834 0.05622 0.0
C560 C 0.36767 0.86707 0.02739 0.0
C561 C 0.3705 0.86265 0.94341 0.0
C562 C 0.37035 0.86428 0.97235 0.0
H563 H 0.38237 0.8965 0.10879 0.0
H564 H 0.38627 0.8949 0.06128 0.0
H565 H 0.36985 0.833 0.02641 0.0
H566 H 0.34775 0.83425 0.89453 0.0
H567 H 0.34792 0.83705 0.94203 0.0
C568 C 0.14249 0.64781 0.59595 0.0
C569 C 0.12794 0.63489 0.60906 0.0
C570 C 0.1442 0.64707 0.56868 0.0
C571 C 0.13267 0.61279 0.51222 0.0
H572 H 0.13775 0.66424 0.47182 0.0
C573 C 0.1225 0.61435 0.40035 0.0
C574 C 0.13642 0.62693 0.38579 0.0
C575 C 0.12229 0.61541 0.42763 0.0
C576 C 0.1366 0.64973 0.48286 0.0
H577 H 0.1036 0.61127 0.60383 0.0
H578 H 0.10644 0.61015 0.55635 0.0
H579 H 0.13578 0.66607 0.51949 0.0
H580 H 0.16111 0.65046 0.38845 0.0
H581 H 0.16083 0.6522 0.43619 0.0
H582 H 0.13337 0.59645 0.47564 0.0
C583 C 0.11675 0.62062 0.56714 0.0
C584 C 0.13547 0.65078 0.51015 0.0
C585 C 0.11504 0.62136 0.59435 0.0
C586 C 0.15016 0.64059 0.39911 0.0
C587 C 0.14993 0.64167 0.42643 0.0
C588 C 0.13379 0.61175 0.48497 0.0
C589 C 0.13141 0.63339 0.55401 0.0
C590 C 0.13332 0.63232 0.5251 0.0
C591 C 0.136 0.62907 0.44098 0.0
C592 C 0.1356 0.63021 0.46998 0.0
H593 H 0.15269 0.65839 0.60673 0.0
H594 H 0.15577 0.65697 0.55913 0.0
H595 H 0.13142 0.59827 0.52322 0.0
H596 H 0.11166 0.6037 0.3907 0.0
H597 H 0.11117 0.60572 0.43827 0.0
C598 C 0.35434 0.16616 0.5955 0.0
C599 C 0.34201 0.15316 0.61159 0.0
C600 C 0.35113 0.16648 0.56843 0.0
C601 C 0.32815 0.13455 0.51503 0.0
H602 H 0.33466 0.18599 0.47493 0.0
C603 C 0.31153 0.13847 0.40407 0.0
C604 C 0.32734 0.14808 0.38899 0.0
C605 C 0.31178 0.14012 0.43134 0.0
C606 C 0.33287 0.1715 0.4859 0.0
H607 H 0.31623 0.13074 0.61207 0.0
H608 H 0.31028 0.13167 0.565 0.0
H609 H 0.33772 0.18705 0.52255 0.0
H610 H 0.35552 0.1674 0.39063 0.0
H611 H 0.35587 0.17034 0.43822 0.0
H612 H 0.32324 0.11905 0.47834 0.0
C613 C 0.32278 0.14125 0.57315 0.0
C614 C 0.3347 0.17208 0.51315 0.0
C615 C 0.32612 0.1408 0.60016 0.0
C616 C 0.34313 0.15978 0.4017 0.0
C617 C 0.34327 0.16158 0.42893 0.0
C618 C 0.32616 0.13402 0.48782 0.0
C619 C 0.33539 0.15392 0.55691 0.0
C620 C 0.33255 0.15357 0.52803 0.0
C621 C 0.32774 0.15157 0.44403 0.0
C622 C 0.32869 0.15245 0.47298 0.0
H623 H 0.36678 0.1758 0.60371 0.0
H624 H 0.36134 0.17619 0.5565 0.0
H625 H 0.32678 0.11993 0.52579 0.0
H626 H 0.29914 0.12937 0.39485 0.0
H627 H 0.29952 0.1324 0.44253 0.0
C628 C 0.85377 0.32415 0.39666 0.0
C629 C 0.84208 0.33868 0.38186 0.0
C630 C 0.85234 0.32398 0.42394 0.0
C631 C 0.8367 0.35765 0.47973 0.0
H632 H 0.83904 0.30511 0.51834 0.0
C633 C 0.82455 0.35334 0.59156 0.0
C634 C 0.83964 0.34158 0.60541 0.0
C635 C 0.82366 0.35241 0.56426 0.0
C636 C 0.83847 0.3199 0.50779 0.0
H637 H 0.81935 0.36412 0.38397 0.0
H638 H 0.81646 0.3635 0.4315 0.0
H639 H 0.83938 0.30451 0.47057 0.0
H640 H 0.86534 0.31926 0.60158 0.0
H641 H 0.86367 0.31754 0.5539 0.0
H642 H 0.83564 0.37298 0.51701 0.0
C643 C 0.82712 0.35255 0.42212 0.0
C644 C 0.83873 0.31958 0.48044 0.0
C645 C 0.82868 0.35283 0.39485 0.0
C646 C 0.85355 0.32854 0.59146 0.0
C647 C 0.85253 0.32746 0.56419 0.0
C648 C 0.83626 0.35794 0.50705 0.0
C649 C 0.83906 0.33823 0.43701 0.0
C650 C 0.83802 0.33847 0.46608 0.0
C651 C 0.8377 0.33952 0.55031 0.0
C652 C 0.8373 0.33909 0.52134 0.0
H653 H 0.86432 0.31311 0.38722 0.0
H654 H 0.86201 0.31296 0.43479 0.0
H655 H 0.8365 0.37251 0.46934 0.0
H656 H 0.8136 0.36353 0.60175 0.0
H657 H 0.81196 0.36173 0.55404 0.0
C658 C 0.62646 0.82843 0.59767 0.0
C659 C 0.63929 0.84189 0.61257 0.0
C660 C 0.6256 0.83042 0.57045 0.0
C661 C 0.63659 0.86809 0.51691 0.0
H662 H 0.63434 0.81809 0.47352 0.0
C663 C 0.6224 0.87199 0.40522 0.0
C664 C 0.634 0.85801 0.38955 0.0
C665 C 0.62282 0.87016 0.43249 0.0
C666 C 0.63514 0.83221 0.48533 0.0
H667 H 0.6615 0.86782 0.61062 0.0
H668 H 0.66032 0.87099 0.56314 0.0
H669 H 0.63609 0.81449 0.52091 0.0
H670 H 0.6554 0.83136 0.39019 0.0
H671 H 0.65645 0.82845 0.43764 0.0
H672 H 0.63627 0.8858 0.48128 0.0
C673 C 0.65059 0.85918 0.57249 0.0
C674 C 0.63586 0.83015 0.51253 0.0
C675 C 0.65138 0.85725 0.5997 0.0
C676 C 0.64618 0.84231 0.4017 0.0
C677 C 0.64667 0.84055 0.42892 0.0
C678 C 0.63594 0.87015 0.48969 0.0
C679 C 0.63762 0.84585 0.55755 0.0
C680 C 0.63665 0.84806 0.52864 0.0
C681 C 0.63491 0.85437 0.44464 0.0
C682 C 0.63527 0.85223 0.47359 0.0
H683 H 0.61687 0.81651 0.60702 0.0
H684 H 0.61523 0.82008 0.55956 0.0
H685 H 0.6369 0.88221 0.52876 0.0
H686 H 0.6128 0.8842 0.39645 0.0
H687 H 0.61338 0.8809 0.44403 0.0
C688 C 0.17591 0.55502 0.31163 0.0
C689 C 0.17182 0.57216 0.29497 0.0
C690 C 0.17808 0.53475 0.30138 0.0
C691 C 0.18782 0.50476 0.24079 0.0
H692 H 0.15126 0.463 0.27238 0.0
C693 C 0.16325 0.4287 0.18738 0.0
C694 C 0.15948 0.4105 0.20225 0.0
C695 C 0.1681 0.44772 0.19971 0.0
C696 C 0.16193 0.47427 0.26359 0.0
H697 H 0.16785 0.58167 0.25445 0.0
H698 H 0.17177 0.54631 0.23661 0.0
H699 H 0.15457 0.49754 0.29241 0.0
H700 H 0.15888 0.39765 0.2416 0.0
H701 H 0.16794 0.43063 0.26306 0.0
H702 H 0.19511 0.48155 0.21185 0.0
C703 C 0.17328 0.54855 0.25756 0.0
C704 C 0.16377 0.4941 0.27509 0.0
C705 C 0.17089 0.56876 0.2678 0.0
C706 C 0.16144 0.41149 0.22962 0.0
C707 C 0.16654 0.43043 0.24193 0.0
C708 C 0.18615 0.48483 0.22941 0.0
C709 C 0.17646 0.53129 0.27428 0.0
C710 C 0.17644 0.50965 0.26356 0.0
C711 C 0.16952 0.44888 0.22718 0.0
C712 C 0.17288 0.46946 0.24041 0.0
H713 H 0.17675 0.55714 0.33264 0.0
H714 H 0.18068 0.52171 0.31467 0.0
H715 H 0.19786 0.51643 0.23166 0.0
H716 H 0.16181 0.42843 0.16625 0.0
H717 H 0.17 0.46165 0.18772 0.0
C718 C 0.55952 0.16343 0.19724 0.0
C719 C 0.57664 0.1537 0.20984 0.0
C720 C 0.53982 0.16436 0.20939 0.0
C721 C 0.50857 0.13758 0.26026 0.0
H722 H 0.47215 0.18635 0.25398 0.0
C723 C 0.42951 0.14299 0.31489 0.0
C724 C 0.41216 0.14997 0.30013 0.0
C725 C 0.44993 0.14482 0.30501 0.0
C726 C 0.48211 0.17258 0.25574 0.0
H727 H 0.5867 0.13794 0.24544 0.0
H728 H 0.55247 0.13986 0.26674 0.0
H729 H 0.50736 0.1872 0.23473 0.0
H730 H 0.40268 0.16483 0.2637 0.0
H731 H 0.43835 0.16792 0.24643 0.0
H732 H 0.48335 0.12293 0.28115 0.0
C733 C 0.55414 0.14639 0.24726 0.0
C734 C 0.50225 0.17305 0.2447 0.0
C735 C 0.57379 0.14539 0.23509 0.0
C736 C 0.41571 0.15926 0.27555 0.0
C737 C 0.43615 0.16116 0.26571 0.0
C738 C 0.4885 0.13715 0.27135 0.0
C739 C 0.53685 0.15563 0.23442 0.0
C740 C 0.51568 0.15551 0.24675 0.0
C741 C 0.45345 0.15373 0.28021 0.0
C742 C 0.47502 0.15459 0.26913 0.0
H743 H 0.5612 0.16996 0.17776 0.0
H744 H 0.52678 0.17139 0.19885 0.0
H745 H 0.51835 0.12366 0.26178 0.0
H746 H 0.42733 0.13584 0.33395 0.0
H747 H 0.46299 0.13921 0.31678 0.0
C748 C 0.8316 0.57951 0.22342 0.0
C749 C 0.827 0.58345 0.19694 0.0
C750 C 0.82796 0.55969 0.23427 0.0
C751 C 0.82482 0.50434 0.21567 0.0
H752 H 0.8046 0.49703 0.28673 0.0
C753 C 0.81982 0.42233 0.26341 0.0
C754 C 0.8277 0.42091 0.28909 0.0
C755 C 0.81618 0.44196 0.25192 0.0
C756 C 0.81036 0.49883 0.2669 0.0
H757 H 0.81437 0.56985 0.16127 0.0
H758 H 0.80805 0.53511 0.1803 0.0
H759 H 0.80432 0.53199 0.26687 0.0
H760 H 0.83739 0.43895 0.32308 0.0
H761 H 0.83138 0.47315 0.3029 0.0
H762 H 0.83149 0.47136 0.21591 0.0
C763 C 0.8146 0.54739 0.19256 0.0
C764 C 0.81016 0.51883 0.25553 0.0
C765 C 0.81814 0.56729 0.18172 0.0
C766 C 0.83131 0.4395 0.30326 0.0
C767 C 0.82772 0.45912 0.29175 0.0
C768 C 0.82508 0.48436 0.22707 0.0
C769 C 0.81972 0.54333 0.21887 0.0
C770 C 0.81774 0.52185 0.22996 0.0
C771 C 0.82037 0.46058 0.26583 0.0
C772 C 0.8182 0.48144 0.25297 0.0
H773 H 0.8384 0.59163 0.23572 0.0
H774 H 0.83231 0.55699 0.25451 0.0
H775 H 0.83103 0.50621 0.19606 0.0
H776 H 0.81671 0.4083 0.25202 0.0
H777 H 0.81022 0.44254 0.23205 0.0
C778 C 0.55635 0.8309 0.31249 0.0
C779 C 0.57462 0.83089 0.297 0.0
C780 C 0.53646 0.82946 0.30085 0.0
C781 C 0.50989 0.83876 0.23743 0.0
H782 H 0.46329 0.80976 0.27071 0.0
C783 C 0.42851 0.83092 0.18822 0.0
C784 C 0.41121 0.83639 0.20397 0.0
C785 C 0.44847 0.82827 0.19929 0.0
C786 C 0.47617 0.81797 0.26127 0.0
H787 H 0.58645 0.82839 0.25728 0.0
H788 H 0.55185 0.82529 0.23708 0.0
H789 H 0.49833 0.80824 0.29049 0.0
H790 H 0.40116 0.84279 0.24378 0.0
H791 H 0.43603 0.83805 0.26309 0.0
H792 H 0.48773 0.84843 0.2082 0.0
C793 C 0.55279 0.82703 0.25814 0.0
C794 C 0.49621 0.81717 0.27261 0.0
C795 C 0.57264 0.82868 0.26974 0.0
C796 C 0.41419 0.83864 0.23111 0.0
C797 C 0.43411 0.8358 0.2422 0.0
C798 C 0.48992 0.83941 0.226 0.0
C799 C 0.53443 0.82778 0.27349 0.0
C800 C 0.51329 0.82771 0.26093 0.0
C801 C 0.45148 0.83083 0.22636 0.0
C802 C 0.47283 0.82917 0.23791 0.0
H803 H 0.55736 0.83265 0.33354 0.0
H804 H 0.52266 0.83034 0.31326 0.0
H805 H 0.52254 0.84742 0.22815 0.0
H806 H 0.42672 0.82904 0.16726 0.0
H807 H 0.46157 0.82426 0.18667 0.0
C808 C 0.83818 0.56057 0.76884 0.0
C809 C 0.84558 0.57722 0.75324 0.0
C810 C 0.83816 0.53997 0.75927 0.0
C811 C 0.86521 0.50663 0.71145 0.0
H812 H 0.81931 0.46775 0.72457 0.0
C813 C 0.86553 0.42231 0.67001 0.0
C814 C 0.85878 0.40621 0.6869 0.0
C815 C 0.86263 0.44341 0.67675 0.0
C816 C 0.83234 0.47837 0.72095 0.0
H817 H 0.85817 0.58542 0.71508 0.0
H818 H 0.85808 0.54949 0.6984 0.0
H819 H 0.81625 0.50431 0.73876 0.0
H820 H 0.84356 0.39962 0.72404 0.0
H821 H 0.83887 0.43642 0.736 0.0
H822 H 0.8815 0.4807 0.69412 0.0
C823 C 0.85252 0.55234 0.71813 0.0
C824 C 0.83056 0.4993 0.72904 0.0
C825 C 0.85246 0.57293 0.72765 0.0
C826 C 0.8489 0.41166 0.71056 0.0
C827 C 0.84607 0.43276 0.71734 0.0
C828 C 0.86702 0.4857 0.70346 0.0
C829 C 0.84561 0.53562 0.73394 0.0
C830 C 0.84702 0.51361 0.72448 0.0
C831 C 0.85299 0.44888 0.70057 0.0
C832 C 0.85066 0.4713 0.70824 0.0
H833 H 0.83275 0.56335 0.78864 0.0
H834 H 0.83292 0.52738 0.77199 0.0
H835 H 0.8783 0.51721 0.70803 0.0
H836 H 0.87307 0.41864 0.65156 0.0
H837 H 0.86786 0.45546 0.66322 0.0
C838 C 0.56551 0.86334 0.68435 0.0
C839 C 0.58153 0.85502 0.70028 0.0
C840 C 0.54436 0.86013 0.69065 0.0
C841 C 0.50901 0.82669 0.73083 0.0
H842 H 0.47003 0.87307 0.72116 0.0
C843 C 0.42561 0.82999 0.7764 0.0
C844 C 0.40929 0.83805 0.7607 0.0
C845 C 0.44642 0.83025 0.76752 0.0
C846 C 0.48067 0.85989 0.72365 0.0
H847 H 0.58797 0.83682 0.73533 0.0
H848 H 0.55104 0.83167 0.74672 0.0
H849 H 0.50684 0.87745 0.70906 0.0
H850 H 0.40189 0.85198 0.72298 0.0
H851 H 0.43824 0.85248 0.70757 0.0
H852 H 0.48277 0.80937 0.74608 0.0
C853 C 0.5548 0.8403 0.72904 0.0
C854 C 0.50177 0.86237 0.7167 0.0
C855 C 0.57597 0.84338 0.72262 0.0
C856 C 0.4141 0.84572 0.7356 0.0
C857 C 0.43492 0.84612 0.72681 0.0
C858 C 0.4879 0.82427 0.73798 0.0
C859 C 0.53874 0.84868 0.71315 0.0
C860 C 0.51622 0.84583 0.72023 0.0
C861 C 0.45131 0.83871 0.74286 0.0
C862 C 0.47354 0.84086 0.73448 0.0
H863 H 0.56927 0.87223 0.66687 0.0
H864 H 0.53241 0.86651 0.67774 0.0
H865 H 0.51964 0.81352 0.73343 0.0
H866 H 0.4224 0.82393 0.79582 0.0
H867 H 0.45876 0.82455 0.78036 0.0
C868 C 0.16348 0.42295 0.77563 0.0
C869 C 0.15016 0.40843 0.76305 0.0
C870 C 0.16286 0.44427 0.76883 0.0
C871 C 0.12623 0.48341 0.74679 0.0
H872 H 0.17412 0.51686 0.72474 0.0
C873 C 0.11495 0.56737 0.70835 0.0
C874 C 0.13047 0.58251 0.71362 0.0
C875 C 0.11839 0.54625 0.71444 0.0
C876 C 0.16064 0.50787 0.73131 0.0
H877 H 0.12622 0.40473 0.73301 0.0
H878 H 0.12483 0.44202 0.72169 0.0
H879 H 0.17894 0.47957 0.73512 0.0
H880 H 0.16171 0.58754 0.7296 0.0
H881 H 0.16742 0.55072 0.74136 0.0
H882 H 0.10795 0.51148 0.74406 0.0
C883 C 0.13581 0.43683 0.73662 0.0
C884 C 0.16343 0.48651 0.73707 0.0
C885 C 0.13669 0.41551 0.74304 0.0
C886 C 0.1495 0.57615 0.72523 0.0
C887 C 0.15281 0.55502 0.73179 0.0
C888 C 0.1235 0.50477 0.74155 0.0
C889 C 0.14865 0.4514 0.74971 0.0
C890 C 0.14616 0.4741 0.74447 0.0
C891 C 0.13728 0.53978 0.72646 0.0
C892 C 0.14059 0.51724 0.73333 0.0
H893 H 0.17406 0.41792 0.79106 0.0
H894 H 0.17286 0.4553 0.77919 0.0
H895 H 0.11275 0.47416 0.7529 0.0
H896 H 0.10023 0.57176 0.69907 0.0
H897 H 0.10626 0.53497 0.70937 0.0
C898 C 0.426 0.12601 0.67571 0.0
C899 C 0.41035 0.13455 0.69199 0.0
C900 C 0.44729 0.12819 0.68212 0.0
C901 C 0.48411 0.15893 0.72363 0.0
H902 H 0.5205 0.11047 0.71432 0.0
C903 C 0.56666 0.15189 0.77084 0.0
C904 C 0.58282 0.14322 0.75545 0.0
C905 C 0.54588 0.15209 0.76177 0.0
C906 C 0.5106 0.12423 0.71673 0.0
H907 H 0.40479 0.15226 0.72764 0.0
H908 H 0.44188 0.15571 0.73905 0.0
H909 H 0.48372 0.10844 0.70092 0.0
H910 H 0.58991 0.12835 0.71823 0.0
H911 H 0.55364 0.12872 0.70246 0.0
H912 H 0.51101 0.17454 0.73994 0.0
C913 C 0.43774 0.14764 0.7211 0.0
C914 C 0.48952 0.12308 0.70902 0.0
C915 C 0.41646 0.14554 0.71463 0.0
C916 C 0.57783 0.1351 0.73061 0.0
C917 C 0.55704 0.1352 0.72162 0.0
C918 C 0.50519 0.16004 0.73147 0.0
C919 C 0.45341 0.13887 0.70501 0.0
C920 C 0.476 0.14039 0.71246 0.0
C921 C 0.54083 0.14353 0.73719 0.0
C922 C 0.51862 0.14267 0.72818 0.0
H923 H 0.42182 0.11756 0.65804 0.0
H924 H 0.45897 0.12153 0.66909 0.0
H925 H 0.47421 0.17266 0.72619 0.0
H926 H 0.57 0.15827 0.79007 0.0
H927 H 0.53369 0.15845 0.77431 0.0
C928 C 0.66073 0.07534 0.76816 0.0
C929 C 0.66434 0.08029 0.79459 0.0
C930 C 0.66534 0.05532 0.7586 0.0
C931 C 0.66875 0.00083 0.77972 0.0
H932 H 0.6922 0.99219 0.71045 0.0
C933 C 0.67235 0.91831 0.73328 0.0
C934 C 0.6652 0.91727 0.70725 0.0
C935 C 0.67682 0.93774 0.74484 0.0
C936 C 0.68559 -0.00565 0.72981 0.0
H937 H 0.67609 0.06829 0.83161 0.0
H938 H 0.68394 0.03308 0.81485 0.0
H939 H 0.69178 0.02748 0.72933 0.0
H940 H 0.6578 0.93573 0.67268 0.0
H941 H 0.66519 0.96953 0.69294 0.0
H942 H 0.6617 0.96794 0.77982 0.0
C943 C 0.67753 0.04478 0.80161 0.0
C944 C 0.6854 0.01453 0.74062 0.0
C945 C 0.67308 0.06492 0.81116 0.0
C946 C 0.66327 0.93598 0.69278 0.0
C947 C 0.66767 0.95537 0.70435 0.0
C948 C 0.66884 0.98067 0.76886 0.0
C949 C 0.67354 0.03975 0.77528 0.0
C950 C 0.6765 0.01804 0.7654 0.0
C951 C 0.6742 0.95651 0.73063 0.0
C952 C 0.67676 0.9773 0.7435 0.0
H953 H 0.65408 0.08685 0.75485 0.0
H954 H 0.66183 0.05182 0.7383 0.0
H955 H 0.66161 0.00311 0.79876 0.0
H956 H 0.67416 0.90416 0.74489 0.0
H957 H 0.68208 0.93807 0.76502 0.0
C958 C 0.92784 0.65953 0.80584 0.0
C959 C 0.90978 0.65616 0.79052 0.0
C960 C 0.94714 0.66409 0.79398 0.0
C961 C 0.97448 0.65811 0.7305 0.0
H962 H 0.01658 0.69347 0.76362 0.0
C963 C 0.05559 0.67316 0.68352 0.0
C964 C 0.07267 0.66878 0.70018 0.0
C965 C 0.03522 0.67496 0.69366 0.0
C966 C 0.00493 0.68359 0.75416 0.0
H967 H 0.89747 0.65592 0.75088 0.0
H968 H 0.93092 0.66449 0.73025 0.0
H969 H 0.98149 0.69067 0.78292 0.0
H970 H 0.08201 0.66385 0.74061 0.0
H971 H 0.04649 0.66718 0.75827 0.0
H972 H -0.00203 0.65103 0.70181 0.0
C973 C 0.93041 0.66299 0.75136 0.0
C974 C 0.98489 0.68188 0.76526 0.0
C975 C 0.9112 0.65817 0.76319 0.0
C976 C 0.06914 0.66712 0.72726 0.0
C977 C 0.04884 0.66917 0.73741 0.0
C978 C 0.99443 0.66001 0.71928 0.0
C979 C 0.94871 0.66562 0.76655 0.0
C980 C 0.96952 0.66884 0.75379 0.0
C981 C 0.03164 0.6727 0.72066 0.0
C982 C 0.00994 0.6725 0.73122 0.0
H983 H 0.92723 0.65802 0.82695 0.0
H984 H 0.96094 0.66572 0.80629 0.0
H985 H 0.96323 0.64762 0.72136 0.0
H986 H 0.05783 0.67453 0.66257 0.0
H987 H 0.02222 0.67782 0.68037 0.0
C988 C 0.32688 0.06573 0.72545 0.0
C989 C 0.33208 0.06887 0.69898 0.0
C990 C 0.32451 0.0454 0.73543 0.0
C991 C 0.34215 0.99147 0.72342 0.0
H992 H 0.29929 0.97668 0.77429 0.0
C993 C 0.33661 0.90781 0.76526 0.0
C994 C 0.33355 0.90611 0.79242 0.0
C995 C 0.33391 0.92709 0.75259 0.0
C996 C 0.31143 0.98063 0.76024 0.0
H997 H 0.33813 0.05316 0.66203 0.0
H998 H 0.33395 0.01767 0.67949 0.0
H999 H 0.29894 0.01159 0.75417 0.0
H1000 H 0.32468 0.92316 0.8275 0.0
H1001 H 0.32037 0.95695 0.80545 0.0
H1002 H 0.35499 0.96083 0.72985 0.0
C1003 C 0.33194 0.03095 0.69255 0.0
C1004 C 0.31121 0.00058 0.7487 0.0
C1005 C 0.33425 0.05128 0.68254 0.0
C1006 C 0.32715 0.92396 0.80654 0.0
C1007 C 0.32456 0.9433 0.79387 0.0
C1008 C 0.34242 0.97158 0.735 0.0
C1009 C 0.32735 0.02779 0.71918 0.0
C1010 C 0.32667 0.00625 0.73031 0.0
C1011 C 0.32822 0.94514 0.76681 0.0
C1012 C 0.32716 0.96596 0.75367 0.0
H1013 H 0.32504 0.07895 0.73862 0.0
H1014 H 0.32117 0.04347 0.75608 0.0
H1015 H 0.35449 -0.00451 0.70967 0.0
H1016 H 0.34134 0.8943 0.75376 0.0
H1017 H 0.33647 0.92787 0.73165 0.0
C1018 C 0.06892 0.32207 0.8035 0.0
C1019 C 0.08687 0.32893 0.78988 0.0
C1020 C 0.04978 0.31927 0.79036 0.0
C1021 C 0.02198 0.3376 0.73136 0.0
H1022 H 0.98229 0.29332 0.7486 0.0
C1023 C 0.943 0.32987 0.67717 0.0
C1024 C 0.9252 0.3271 0.69313 0.0
C1025 C 0.96324 0.32743 0.6875 0.0
C1026 C 0.9932 0.30581 0.74368 0.0
H1027 H 0.0991 0.33728 0.75158 0.0
H1028 H 0.06587 0.33209 0.72867 0.0
H1029 H 0.01697 0.29377 0.76946 0.0
H1030 H 0.91465 0.31878 0.7322 0.0
H1031 H 0.94998 0.3147 0.75024 0.0
H1032 H -0.00179 0.34983 0.70592 0.0
C1033 C 0.06643 0.32931 0.74959 0.0
C1034 C 0.01303 0.30609 0.75563 0.0
C1035 C 0.0855 0.33218 0.76272 0.0
C1036 C 0.92805 0.32108 0.71939 0.0
C1037 C 0.94829 0.31861 0.7297 0.0
C1038 C 0.00222 0.33729 0.7194 0.0
C1039 C 0.04825 0.32321 0.76333 0.0
C1040 C 0.02758 0.32209 0.74975 0.0
C1041 C 0.96611 0.32212 0.71398 0.0
C1042 C 0.98754 0.32151 0.72557 0.0
H1043 H 0.06947 0.31943 0.82445 0.0
H1044 H 0.03603 0.31475 0.80157 0.0
H1045 H 0.03264 0.35038 0.72676 0.0
H1046 H 0.94135 0.33437 0.65681 0.0
H1047 H 0.97667 0.32994 0.6748 0.0
C1048 C 0.34494 0.06241 0.32424 0.0
C1049 C 0.33887 0.07913 0.30786 0.0
C1050 C 0.34187 0.04157 0.31639 0.0
C1051 C 0.33663 0.00981 0.25693 0.0
H1052 H 0.31904 0.96585 0.30487 0.0
C1053 C 0.32745 0.92424 0.22249 0.0
C1054 C 0.33609 0.90874 0.23894 0.0
C1055 C 0.32488 0.94485 0.23141 0.0
C1056 C 0.3241 0.97794 0.2913 0.0
H1057 H 0.32419 0.08709 0.27074 0.0
H1058 H 0.3188 0.05073 0.25712 0.0
H1059 H 0.3199 0.0024 0.31969 0.0
H1060 H 0.3482 0.90256 0.27794 0.0
H1061 H 0.34407 0.93859 0.29335 0.0
H1062 H 0.34133 0.98545 0.22874 0.0
C1063 C 0.32615 0.05375 0.2759 0.0
C1064 C 0.32457 -0.00115 0.29978 0.0
C1065 C 0.32917 0.07458 0.28376 0.0
C1066 C 0.34149 0.91413 0.26477 0.0
C1067 C 0.339 0.93477 0.27366 0.0
C1068 C 0.33622 0.98893 0.24848 0.0
C1069 C 0.33271 0.03703 0.29197 0.0
C1070 C 0.33101 0.01497 0.28273 0.0
C1071 C 0.33099 0.95044 0.25694 0.0
C1072 C 0.33012 0.97273 0.26562 0.0
H1073 H 0.35242 0.06538 0.34295 0.0
H1074 H 0.34727 0.02902 0.32909 0.0
H1075 H 0.34199 0.02183 0.24345 0.0
H1076 H 0.32296 0.92056 0.20254 0.0
H1077 H 0.31832 0.95647 0.21819 0.0
C1078 C 0.91348 0.34504 0.2775 0.0
C1079 C 0.90738 0.35566 0.3004 0.0
C1080 C 0.9348 0.3426 0.2714 0.0
C1081 C 0.98693 0.36574 0.28538 0.0
H1082 H 0.00771 0.31453 0.25315 0.0
C1083 C 0.07505 0.35338 0.26328 0.0
C1084 C 0.07974 0.34591 0.23806 0.0
C1085 C 0.05436 0.35302 0.27259 0.0
C1086 C 0.00209 0.32896 0.26203 0.0
H1087 H 0.91885 0.37161 0.33516 0.0
H1088 H 0.956 0.36706 0.32472 0.0
H1089 H 0.97082 0.31685 0.26636 0.0
H1090 H 0.06652 0.33158 0.20315 0.0
H1091 H 0.03044 0.33098 0.21942 0.0
H1092 H 0.01816 0.37787 0.28094 0.0
C1093 C 0.94433 0.36097 0.31122 0.0
C1094 C 0.98097 0.33031 0.26954 0.0
C1095 C 0.92302 0.36348 0.31726 0.0
C1096 C 0.06342 0.33748 0.22266 0.0
C1097 C 0.04277 0.33702 0.23203 0.0
C1098 C 0.00805 0.36435 0.27798 0.0
C1099 C 0.95047 0.35065 0.28811 0.0
C1100 C 0.9731 0.34879 0.2811 0.0
C1101 C 0.03797 0.34507 0.25694 0.0
C1102 C 0.01582 0.34601 0.26604 0.0
H1103 H 0.9018 0.33886 0.26407 0.0
H1104 H 0.93897 0.33483 0.25327 0.0
H1105 H 0.98132 0.38033 0.29382 0.0
H1106 H 0.08726 0.35991 0.27567 0.0
H1107 H 0.05117 0.35909 0.292 0.0
C1108 C 0.65598 0.91601 0.27586 0.0
C1109 C 0.65078 0.89916 0.25924 0.0
C1110 C 0.65824 0.93635 0.26583 0.0
C1111 C 0.64032 0.96903 0.21118 0.0
H1112 H 0.68373 0.00764 0.23467 0.0
C1113 C 0.64553 0.05291 0.16988 0.0
C1114 C 0.64893 0.06908 0.18815 0.0
C1115 C 0.64838 0.03189 0.17701 0.0
C1116 C 0.67143 -0.00292 0.22806 0.0
H1117 H 0.64456 0.89033 0.21892 0.0
H1118 H 0.64852 0.92581 0.20146 0.0
H1119 H 0.68391 0.97124 0.25018 0.0
H1120 H 0.65864 0.07593 0.22799 0.0
H1121 H 0.66318 0.03923 0.24059 0.0
H1122 H 0.62746 -0.00517 0.18964 0.0
C1123 C 0.65062 0.92331 0.22229 0.0
C1124 C 0.67156 0.97625 0.23692 0.0
C1125 C 0.64844 0.90298 0.23229 0.0
C1126 C 0.6559 0.06383 0.21345 0.0
C1127 C 0.65862 0.04278 0.22063 0.0
C1128 C 0.64013 0.98983 0.20244 0.0
C1129 C 0.65527 0.94026 0.23899 0.0
C1130 C 0.65592 0.96206 0.22869 0.0
C1131 C 0.65455 0.02655 0.20261 0.0
C1132 C 0.65559 0.00415 0.21089 0.0
H1133 H 0.65793 0.91358 0.29672 0.0
H1134 H 0.66163 0.94913 0.27922 0.0
H1135 H 0.62784 0.95857 0.20484 0.0
H1136 H 0.64037 0.05646 0.15015 0.0
H1137 H 0.64551 0.01979 0.16251 0.0
C1138 C 0.07801 0.64697 0.26951 0.0
C1139 C 0.08515 0.62772 0.27977 0.0
C1140 C 0.05684 0.64956 0.26256 0.0
C1141 C 0.00833 0.61848 0.24857 0.0
H1142 H 0.98 0.67179 0.26007 0.0
C1143 C 0.91836 0.62674 0.24609 0.0
C1144 C 0.91053 0.64194 0.22861 0.0
C1145 C 0.93974 0.62625 0.25244 0.0
C1146 C 0.98782 0.65688 0.25666 0.0
H1147 H 0.07567 0.59629 0.29141 0.0
H1148 H 0.0388 0.601 0.28033 0.0
H1149 H 0.01742 0.66832 0.27081 0.0
H1150 H 0.91875 0.6691 0.20497 0.0
H1151 H 0.95621 0.66848 0.21668 0.0
H1152 H 0.9785 0.6069 0.23531 0.0
C1153 C 0.04954 0.61391 0.27669 0.0
C1154 C 0.00924 0.65489 0.26264 0.0
C1155 C 0.07071 0.61123 0.28323 0.0
C1156 C 0.92436 0.65717 0.21843 0.0
C1157 C 0.94573 0.65687 0.22516 0.0
C1158 C 0.98691 0.62039 0.24304 0.0
C1159 C 0.04232 0.63304 0.26608 0.0
C1160 C 0.01974 0.63559 0.25885 0.0
C1161 C 0.95363 0.64114 0.24179 0.0
C1162 C 0.97644 0.63954 0.24718 0.0
H1163 H 0.08883 0.65994 0.26656 0.0
H1164 H 0.05193 0.66441 0.25413 0.0
H1165 H 0.01594 0.60355 0.2447 0.0
H1166 H 0.90812 0.61479 0.25425 0.0
H1167 H 0.94548 0.61408 0.26549 0.0
loop_
_geom_bond_atom_site_label_1
_geom_bond_atom_site_label_2
_geom_bond_distance
_geom_bond_site_symmetry_2
_ccdc_geom_bond_type
C0 O1 1.160 . S
C0 O7 1.185 . S
O1 C0 1.160 . S
O2 Zn3 1.899 . S
O2 C10 1.284 . S
Zn3 O2 1.899 . S
Zn3 O4 2.032 . S
Zn3 O7 2.086 . S
Zn3 O12 1.977 . S
O4 Zn3 2.032 . S
O4 C8 1.278 . S
C5 O6 1.203 . S
C5 O12 1.267 . S
O6 C5 1.203 . S
O7 C0 1.185 . S
O7 Zn3 2.086 . S
C8 O4 1.278 . S
C8 O9 1.211 . S
O9 C8 1.211 . S
C10 O2 1.284 . S
C10 O11 1.273 . S
O11 C10 1.273 . S
O12 Zn3 1.977 . S
O12 C5 1.267 . S
C13 O14 1.160 . S
C13 O20 1.185 . S
O14 C13 1.160 . S
O15 Zn16 1.899 . S
O15 C23 1.284 . S
Zn16 O15 1.899 . S
Zn16 O17 2.032 . S
Zn16 O20 2.086 . S
Zn16 O25 1.977 . S
O17 Zn16 2.032 . S
O17 C21 1.278 . S
C18 O19 1.203 . S
C18 O25 1.267 . S
O19 C18 1.203 . S
O20 C13 1.185 . S
O20 Zn16 2.086 . S
C21 O17 1.278 . S
C21 O22 1.211 . S
O22 C21 1.211 . S
C23 O15 1.284 . S
C23 O24 1.273 . S
O24 C23 1.273 . S
O25 Zn16 1.977 . S
O25 C18 1.267 . S
C26 O27 1.160 . S
C26 O33 1.185 . S
O27 C26 1.160 . S
O28 Zn29 1.899 . S
O28 C36 1.284 . S
Zn29 O28 1.899 . S
Zn29 O30 2.032 . S
Zn29 O33 2.086 . S
Zn29 O38 1.977 . S
O30 Zn29 2.032 . S
O30 C34 1.278 . S
C31 O32 1.203 . S
C31 O38 1.267 . S
O32 C31 1.203 . S
O33 C26 1.185 . S
O33 Zn29 2.086 . S
C34 O30 1.278 . S
C34 O35 1.211 . S
O35 C34 1.211 . S
C36 O28 1.284 . S
C36 O37 1.273 . S
O37 C36 1.273 . S
O38 Zn29 1.977 . S
O38 C31 1.267 . S
C39 O40 1.160 . S
C39 O46 1.185 . S
O40 C39 1.160 . S
O41 Zn42 1.899 . S
O41 C49 1.284 . S
Zn42 O41 1.899 . S
Zn42 O43 2.032 . S
Zn42 O46 2.086 . S
Zn42 O51 1.977 . S
O43 Zn42 2.032 . S
O43 C47 1.278 . S
C44 O45 1.203 . S
C44 O51 1.267 . S
O45 C44 1.203 . S
O46 C39 1.185 . S
O46 Zn42 2.086 . S
C47 O43 1.278 . S
C47 O48 1.211 . S
O48 C47 1.211 . S
C49 O41 1.284 . S
C49 O50 1.273 . S
O50 C49 1.273 . S
O51 Zn42 1.977 . S
O51 C44 1.267 . S
C52 O53 1.160 . S
C52 O59 1.185 . S
O53 C52 1.160 . S
O54 Zn55 1.899 . S
O54 C62 1.284 . S
Zn55 O54 1.899 . S
Zn55 O56 2.032 . S
Zn55 O59 2.086 . S
Zn55 O64 1.977 . S
O56 Zn55 2.032 . S
O56 C60 1.278 . S
C57 O58 1.203 . S
C57 O64 1.267 . S
O58 C57 1.203 . S
O59 C52 1.185 . S
O59 Zn55 2.086 . S
C60 O56 1.278 . S
C60 O61 1.211 . S
O61 C60 1.211 . S
C62 O54 1.284 . S
C62 O63 1.273 . S
O63 C62 1.273 . S
O64 Zn55 1.977 . S
O64 C57 1.267 . S
C65 O66 1.160 . S
C65 O72 1.185 . S
O66 C65 1.160 . S
O67 Zn68 1.899 . S
O67 C75 1.284 . S
Zn68 O67 1.899 . S
Zn68 O69 2.032 . S
Zn68 O72 2.086 . S
Zn68 O77 1.977 . S
O69 Zn68 2.032 . S
O69 C73 1.278 . S
C70 O71 1.203 . S
C70 O77 1.267 . S
O71 C70 1.203 . S
O72 C65 1.185 . S
O72 Zn68 2.086 . S
C73 O69 1.278 . S
C73 O74 1.211 . S
O74 C73 1.211 . S
C75 O67 1.284 . S
C75 O76 1.273 . S
O76 C75 1.273 . S
O77 Zn68 1.977 . S
O77 C70 1.267 . S
C78 O79 1.160 . S
C78 O85 1.185 . S
O79 C78 1.160 . S
O80 Zn81 1.899 . S
O80 C88 1.284 . S
Zn81 O80 1.899 . S
Zn81 O82 2.032 . S
Zn81 O85 2.086 . S
Zn81 O90 1.977 . S
O82 Zn81 2.032 . S
O82 C86 1.278 . S
C83 O84 1.203 . S
C83 O90 1.267 . S
O84 C83 1.203 . S
O85 C78 1.185 . S
O85 Zn81 2.086 . S
C86 O82 1.278 . S
C86 O87 1.211 . S
O87 C86 1.211 . S
C88 O80 1.284 . S
C88 O89 1.273 . S
O89 C88 1.273 . S
O90 Zn81 1.977 . S
O90 C83 1.267 . S
C91 O92 1.160 . S
C91 O98 1.185 . S
O92 C91 1.160 . S
O93 Zn94 1.899 . S
O93 C101 1.284 . S
Zn94 O93 1.899 . S
Zn94 O95 2.032 . S
Zn94 O98 2.086 . S
Zn94 O103 1.977 . S
O95 Zn94 2.032 . S
O95 C99 1.278 . S
C96 O97 1.203 . S
C96 O103 1.267 . S
O97 C96 1.203 . S
O98 C91 1.185 . S
O98 Zn94 2.086 . S
C99 O95 1.278 . S
C99 O100 1.211 . S
O100 C99 1.211 . S
C101 O93 1.284 . S
C101 O102 1.273 . S
O102 C101 1.273 . S
O103 Zn94 1.977 . S
O103 C96 1.267 . S
C104 O105 1.160 . S
C104 O111 1.185 . S
O105 C104 1.160 . S
O106 Zn107 1.899 . S
O106 C114 1.284 . S
Zn107 O106 1.899 . S
Zn107 O108 2.032 . S
Zn107 O111 2.086 . S
Zn107 O116 1.977 . S
O108 Zn107 2.032 . S
O108 C112 1.278 . S
C109 O110 1.203 . S
C109 O116 1.267 . S
O110 C109 1.203 . S
O111 C104 1.185 . S
O111 Zn107 2.086 . S
C112 O108 1.278 . S
C112 O113 1.211 . S
O113 C112 1.211 . S
C114 O106 1.284 . S
C114 O115 1.273 . S
O115 C114 1.273 . S
O116 Zn107 1.977 . S
O116 C109 1.267 . S
C117 O118 1.160 . S
C117 O124 1.185 . S
O118 C117 1.160 . S
O119 Zn120 1.899 . S
O119 C127 1.284 . S
Zn120 O119 1.899 . S
Zn120 O121 2.032 . S
Zn120 O124 2.086 . S
Zn120 O129 1.977 . S
O121 Zn120 2.032 . S
O121 C125 1.278 . S
C122 O123 1.203 . S
C122 O129 1.267 . S
O123 C122 1.203 . S
O124 C117 1.185 . S
O124 Zn120 2.086 . S
C125 O121 1.278 . S
C125 O126 1.211 . S
O126 C125 1.211 . S
C127 O119 1.284 . S
C127 O128 1.273 . S
O128 C127 1.273 . S
O129 Zn120 1.977 . S
O129 C122 1.267 . S
C130 O131 1.160 . S
C130 O137 1.185 . S
O131 C130 1.160 . S
O132 Zn133 1.899 . S
O132 C140 1.284 . S
Zn133 O132 1.899 . S
Zn133 O134 2.032 . S
Zn133 O137 2.086 . S
Zn133 O142 1.977 . S
O134 Zn133 2.032 . S
O134 C138 1.278 . S
C135 O136 1.203 . S
C135 O142 1.267 . S
O136 C135 1.203 . S
O137 C130 1.185 . S
O137 Zn133 2.086 . S
C138 O134 1.278 . S
C138 O139 1.211 . S
O139 C138 1.211 . S
C140 O132 1.284 . S
C140 O141 1.273 . S
O141 C140 1.273 . S
O142 Zn133 1.977 . S
O142 C135 1.267 . S
C143 O144 1.160 . S
C143 O150 1.185 . S
O144 C143 1.160 . S
O145 Zn146 1.899 . S
O145 C153 1.284 . S
Zn146 O145 1.899 . S
Zn146 O147 2.032 . S
Zn146 O150 2.086 . S
Zn146 O155 1.977 . S
O147 Zn146 2.032 . S
O147 C151 1.278 . S
C148 O149 1.203 . S
C148 O155 1.267 . S
O149 C148 1.203 . S
O150 C143 1.185 . S
O150 Zn146 2.086 . S
C151 O147 1.278 . S
C151 O152 1.211 . S
O152 C151 1.211 . S
C153 O145 1.284 . S
C153 O154 1.273 . S
O154 C153 1.273 . S
O155 Zn146 1.977 . S
O155 C148 1.267 . S
C156 O157 1.160 . S
C156 O163 1.185 . S
O157 C156 1.160 . S
O158 Zn159 1.899 . S
O158 C166 1.284 . S
Zn159 O158 1.899 . S
Zn159 O160 2.032 . S
Zn159 O163 2.086 . S
Zn159 O168 1.977 . S
O160 Zn159 2.032 . S
O160 C164 1.278 . S
C161 O162 1.203 . S
C161 O168 1.267 . S
O162 C161 1.203 . S
O163 C156 1.185 . S
O163 Zn159 2.086 . S
C164 O160 1.278 . S
C164 O165 1.211 . S
O165 C164 1.211 . S
C166 O158 1.284 . S
C166 O167 1.273 . S
O167 C166 1.273 . S
O168 Zn159 1.977 . S
O168 C161 1.267 . S
C169 O170 1.160 . S
C169 O176 1.185 . S
O170 C169 1.160 . S
O171 Zn172 1.899 . S
O171 C179 1.284 . S
Zn172 O171 1.899 . S
Zn172 O173 2.032 . S
Zn172 O176 2.086 . S
Zn172 O181 1.977 . S
O173 Zn172 2.032 . S
O173 C177 1.278 . S
C174 O175 1.203 . S
C174 O181 1.267 . S
O175 C174 1.203 . S
O176 C169 1.185 . S
O176 Zn172 2.086 . S
C177 O173 1.278 . S
C177 O178 1.211 . S
O178 C177 1.211 . S
C179 O171 1.284 . S
C179 O180 1.273 . S
O180 C179 1.273 . S
O181 Zn172 1.977 . S
O181 C174 1.267 . S
C182 O183 1.160 . S
C182 O189 1.185 . S
O183 C182 1.160 . S
O184 Zn185 1.899 . S
O184 C192 1.284 . S
Zn185 O184 1.899 . S
Zn185 O186 2.032 . S
Zn185 O189 2.086 . S
Zn185 O194 1.977 . S
O186 Zn185 2.032 . S
O186 C190 1.278 . S
C187 O188 1.203 . S
C187 O194 1.267 . S
O188 C187 1.203 . S
O189 C182 1.185 . S
O189 Zn185 2.086 . S
C190 O186 1.278 . S
C190 O191 1.211 . S
O191 C190 1.211 . S
C192 O184 1.284 . S
C192 O193 1.273 . S
O193 C192 1.273 . S
O194 Zn185 1.977 . S
O194 C187 1.267 . S
C195 O196 1.160 . S
C195 O202 1.185 . S
O196 C195 1.160 . S
O197 Zn198 1.899 . S
O197 C205 1.284 . S
Zn198 O197 1.899 . S
Zn198 O199 2.032 . S
Zn198 O202 2.086 . S
Zn198 O207 1.977 . S
O199 Zn198 2.032 . S
O199 C203 1.278 . S
C200 O201 1.203 . S
C200 O207 1.267 . S
O201 C200 1.203 . S
O202 C195 1.185 . S
O202 Zn198 2.086 . S
C203 O199 1.278 . S
C203 O204 1.211 . S
O204 C203 1.211 . S
C205 O197 1.284 . S
C205 O206 1.273 . S
O206 C205 1.273 . S
O207 Zn198 1.977 . S
O207 C200 1.267 . S
C208 C209 1.349 . S
C208 C210 1.327 . S
C208 H233 0.950 . S
C209 C208 1.349 . S
C209 C225 1.349 . S
C210 C208 1.327 . S
C210 C229 1.429 . S
C210 H234 0.950 . S
C211 C228 1.574 . S
C211 C230 1.368 . S
C211 H235 0.949 . S
H212 C216 0.949 . S
C213 C214 1.349 . S
C213 C215 1.327 . S
C213 H236 0.950 . S
C214 C213 1.349 . S
C214 C226 1.349 . S
C215 C213 1.327 . S
C215 C231 1.429 . S
C215 H237 0.950 . S
C216 H212 0.949 . S
C216 C224 1.574 . S
C216 C232 1.368 . S
H217 C225 0.950 . S
H218 C223 0.950 . S
H219 C224 0.949 . S
H220 C226 0.950 . S
H221 C227 0.950 . S
H222 C228 0.949 . S
C223 H218 0.950 . S
C223 C225 1.327 . S
C223 C229 1.429 . S
C224 C216 1.574 . S
C224 H219 0.949 . S
C224 C230 1.368 . S
C225 C209 1.349 . S
C225 H217 0.950 . S
C225 C223 1.327 . S
C226 C214 1.349 . S
C226 H220 0.950 . S
C226 C227 1.327 . S
C227 H221 0.950 . S
C227 C226 1.327 . S
C227 C231 1.429 . S
C228 C211 1.574 . S
C228 H222 0.949 . S
C228 C232 1.368 . S
C229 C210 1.429 . S
C229 C223 1.429 . S
C229 C230 1.523 . S
C230 C211 1.368 . S
C230 C224 1.368 . S
C230 C229 1.523 . S
C231 C215 1.429 . S
C231 C227 1.429 . S
C231 C232 1.523 . S
C232 C216 1.368 . S
C232 C228 1.368 . S
C232 C231 1.523 . S
H233 C208 0.950 . S
H234 C210 0.950 . S
H235 C211 0.949 . S
H236 C213 0.950 . S
H237 C215 0.950 . S
C238 C239 1.349 . S
C238 C240 1.327 . S
C238 H263 0.950 . S
C239 C238 1.349 . S
C239 C255 1.349 . S
C240 C238 1.327 . S
C240 C259 1.429 . S
C240 H264 0.950 . S
C241 C258 1.574 . S
C241 C260 1.368 . S
C241 H265 0.949 . S
H242 C246 0.949 . S
C243 C244 1.349 . S
C243 C245 1.327 . S
C243 H266 0.950 . S
C244 C243 1.349 . S
C244 C256 1.349 . S
C245 C243 1.327 . S
C245 C261 1.429 . S
C245 H267 0.950 . S
C246 H242 0.949 . S
C246 C254 1.574 . S
C246 C262 1.368 . S
H247 C255 0.950 . S
H248 C253 0.950 . S
H249 C254 0.949 . S
H250 C256 0.950 . S
H251 C257 0.950 . S
H252 C258 0.949 . S
C253 H248 0.950 . S
C253 C255 1.327 . S
C253 C259 1.429 . S
C254 C246 1.574 . S
C254 H249 0.949 . S
C254 C260 1.368 . S
C255 C239 1.349 . S
C255 H247 0.950 . S
C255 C253 1.327 . S
C256 C244 1.349 . S
C256 H250 0.950 . S
C256 C257 1.327 . S
C257 H251 0.950 . S
C257 C256 1.327 . S
C257 C261 1.429 . S
C258 C241 1.574 . S
C258 H252 0.949 . S
C258 C262 1.368 . S
C259 C240 1.429 . S
C259 C253 1.429 . S
C259 C260 1.523 . S
C260 C241 1.368 . S
C260 C254 1.368 . S
C260 C259 1.523 . S
C261 C245 1.429 . S
C261 C257 1.429 . S
C261 C262 1.523 . S
C262 C246 1.368 . S
C262 C258 1.368 . S
C262 C261 1.523 . S
H263 C238 0.950 . S
H264 C240 0.950 . S
H265 C241 0.949 . S
H266 C243 0.950 . S
H267 C245 0.950 . S
C268 C269 1.349 . S
C268 C270 1.327 . S
C268 H293 0.950 . S
C269 C268 1.349 . S
C269 C285 1.349 . S
C270 C268 1.327 . S
C270 C289 1.429 . S
C270 H294 0.950 . S
C271 C288 1.574 . S
C271 C290 1.368 . S
C271 H295 0.949 . S
H272 C276 0.949 . S
C273 C274 1.349 . S
C273 C275 1.327 . S
C273 H296 0.950 . S
C274 C273 1.349 . S
C274 C286 1.349 . S
C275 C273 1.327 . S
C275 C291 1.429 . S
C275 H297 0.950 . S
C276 H272 0.949 . S
C276 C284 1.574 . S
C276 C292 1.368 . S
H277 C285 0.950 . S
H278 C283 0.950 . S
H279 C284 0.949 . S
H280 C286 0.950 . S
H281 C287 0.950 . S
H282 C288 0.949 . S
C283 H278 0.950 . S
C283 C285 1.327 . S
C283 C289 1.429 . S
C284 C276 1.574 . S
C284 H279 0.949 . S
C284 C290 1.368 . S
C285 C269 1.349 . S
C285 H277 0.950 . S
C285 C283 1.327 . S
C286 C274 1.349 . S
C286 H280 0.950 . S
C286 C287 1.327 . S
C287 H281 0.950 . S
C287 C286 1.327 . S
C287 C291 1.429 . S
C288 C271 1.574 . S
C288 H282 0.949 . S
C288 C292 1.368 . S
C289 C270 1.429 . S
C289 C283 1.429 . S
C289 C290 1.523 . S
C290 C271 1.368 . S
C290 C284 1.368 . S
C290 C289 1.523 . S
C291 C275 1.429 . S
C291 C287 1.429 . S
C291 C292 1.523 . S
C292 C276 1.368 . S
C292 C288 1.368 . S
C292 C291 1.523 . S
H293 C268 0.950 . S
H294 C270 0.950 . S
H295 C271 0.949 . S
H296 C273 0.950 . S
H297 C275 0.950 . S
C298 C299 1.349 . S
C298 C300 1.327 . S
C298 H323 0.950 . S
C299 C298 1.349 . S
C299 C315 1.349 . S
C300 C298 1.327 . S
C300 C319 1.429 . S
C300 H324 0.950 . S
C301 C318 1.574 . S
C301 C320 1.368 . S
C301 H325 0.949 . S
H302 C306 0.949 . S
C303 C304 1.349 . S
C303 C305 1.327 . S
C303 H326 0.950 . S
C304 C303 1.349 . S
C304 C316 1.349 . S
C305 C303 1.327 . S
C305 C321 1.429 . S
C305 H327 0.950 . S
C306 H302 0.949 . S
C306 C314 1.574 . S
C306 C322 1.368 . S
H307 C315 0.950 . S
H308 C313 0.950 . S
H309 C314 0.949 . S
H310 C316 0.950 . S
H311 C317 0.950 . S
H312 C318 0.949 . S
C313 H308 0.950 . S
C313 C315 1.327 . S
C313 C319 1.429 . S
C314 C306 1.574 . S
C314 H309 0.949 . S
C314 C320 1.368 . S
C315 C299 1.349 . S
C315 H307 0.950 . S
C315 C313 1.327 . S
C316 C304 1.349 . S
C316 H310 0.950 . S
C316 C317 1.327 . S
C317 H311 0.950 . S
C317 C316 1.327 . S
C317 C321 1.429 . S
C318 C301 1.574 . S
C318 H312 0.949 . S
C318 C322 1.368 . S
C319 C300 1.429 . S
C319 C313 1.429 . S
C319 C320 1.523 . S
C320 C301 1.368 . S
C320 C314 1.368 . S
C320 C319 1.523 . S
C321 C305 1.429 . S
C321 C317 1.429 . S
C321 C322 1.523 . S
C322 C306 1.368 . S
C322 C318 1.368 . S
C322 C321 1.523 . S
H323 C298 0.950 . S
H324 C300 0.950 . S
H325 C301 0.949 . S
H326 C303 0.950 . S
H327 C305 0.950 . S
C328 C329 1.349 . S
C328 C330 1.327 . S
C328 H353 0.950 . S
C329 C328 1.349 . S
C329 C345 1.349 . S
C330 C328 1.327 . S
C330 C349 1.429 . S
C330 H354 0.950 . S
C331 C348 1.574 . S
C331 C350 1.368 . S
C331 H355 0.949 . S
H332 C336 0.949 . S
C333 C334 1.349 . S
C333 C335 1.327 . S
C333 H356 0.950 . S
C334 C333 1.349 . S
C334 C346 1.349 . S
C335 C333 1.327 . S
C335 C351 1.429 . S
C335 H357 0.950 . S
C336 H332 0.949 . S
C336 C344 1.574 . S
C336 C352 1.368 . S
H337 C345 0.950 . S
H338 C343 0.950 . S
H339 C344 0.949 . S
H340 C346 0.950 . S
H341 C347 0.950 . S
H342 C348 0.949 . S
C343 H338 0.950 . S
C343 C345 1.327 . S
C343 C349 1.429 . S
C344 C336 1.574 . S
C344 H339 0.949 . S
C344 C350 1.368 . S
C345 C329 1.349 . S
C345 H337 0.950 . S
C345 C343 1.327 . S
C346 C334 1.349 . S
C346 H340 0.950 . S
C346 C347 1.327 . S
C347 H341 0.950 . S
C347 C346 1.327 . S
C347 C351 1.429 . S
C348 C331 1.574 . S
C348 H342 0.949 . S
C348 C352 1.368 . S
C349 C330 1.429 . S
C349 C343 1.429 . S
C349 C350 1.523 . S
C350 C331 1.368 . S
C350 C344 1.368 . S
C350 C349 1.523 . S
C351 C335 1.429 . S
C351 C347 1.429 . S
C351 C352 1.523 . S
C352 C336 1.368 . S
C352 C348 1.368 . S
C352 C351 1.523 . S
H353 C328 0.950 . S
H354 C330 0.950 . S
H355 C331 0.949 . S
H356 C333 0.950 . S
H357 C335 0.950 . S
C358 C359 1.349 . S
C358 C360 1.327 . S
C358 H383 0.950 . S
C359 C358 1.349 . S
C359 C375 1.349 . S
C360 C358 1.327 . S
C360 C379 1.429 . S
C360 H384 0.950 . S
C361 C378 1.574 . S
C361 C380 1.368 . S
C361 H385 0.949 . S
H362 C366 0.949 . S
C363 C364 1.349 . S
C363 C365 1.327 . S
C363 H386 0.950 . S
C364 C363 1.349 . S
C364 C376 1.349 . S
C365 C363 1.327 . S
C365 C381 1.429 . S
C365 H387 0.950 . S
C366 H362 0.949 . S
C366 C374 1.574 . S
C366 C382 1.368 . S
H367 C375 0.950 . S
H368 C373 0.950 . S
H369 C374 0.949 . S
H370 C376 0.950 . S
H371 C377 0.950 . S
H372 C378 0.949 . S
C373 H368 0.950 . S
C373 C375 1.327 . S
C373 C379 1.429 . S
C374 C366 1.574 . S
C374 H369 0.949 . S
C374 C380 1.368 . S
C375 C359 1.349 . S
C375 H367 0.950 . S
C375 C373 1.327 . S
C376 C364 1.349 . S
C376 H370 0.950 . S
C376 C377 1.327 . S
C377 H371 0.950 . S
C377 C376 1.327 . S
C377 C381 1.429 . S
C378 C361 1.574 . S
C378 H372 0.949 . S
C378 C382 1.368 . S
C379 C360 1.429 . S
C379 C373 1.429 . S
C379 C380 1.523 . S
C380 C361 1.368 . S
C380 C374 1.368 . S
C380 C379 1.523 . S
C381 C365 1.429 . S
C381 C377 1.429 . S
C381 C382 1.523 . S
C382 C366 1.368 . S
C382 C378 1.368 . S
C382 C381 1.523 . S
H383 C358 0.950 . S
H384 C360 0.950 . S
H385 C361 0.949 . S
H386 C363 0.950 . S
H387 C365 0.950 . S
C388 C389 1.349 . S
C388 C390 1.327 . S
C388 H413 0.950 . S
C389 C388 1.349 . S
C389 C405 1.349 . S
C390 C388 1.327 . S
C390 C409 1.429 . S
C390 H414 0.950 . S
C391 C408 1.574 . S
C391 C410 1.368 . S
C391 H415 0.949 . S
H392 C396 0.949 . S
C393 C394 1.349 . S
C393 C395 1.327 . S
C393 H416 0.950 . S
C394 C393 1.349 . S
C394 C406 1.349 . S
C395 C393 1.327 . S
C395 C411 1.429 . S
C395 H417 0.950 . S
C396 H392 0.949 . S
C396 C404 1.574 . S
C396 C412 1.368 . S
H397 C405 0.950 . S
H398 C403 0.950 . S
H399 C404 0.949 . S
H400 C406 0.950 . S
H401 C407 0.950 . S
H402 C408 0.949 . S
C403 H398 0.950 . S
C403 C405 1.327 . S
C403 C409 1.429 . S
C404 C396 1.574 . S
C404 H399 0.949 . S
C404 C410 1.368 . S
C405 C389 1.349 . S
C405 H397 0.950 . S
C405 C403 1.327 . S
C406 C394 1.349 . S
C406 H400 0.950 . S
C406 C407 1.327 . S
C407 H401 0.950 . S
C407 C406 1.327 . S
C407 C411 1.429 . S
C408 C391 1.574 . S
C408 H402 0.949 . S
C408 C412 1.368 . S
C409 C390 1.429 . S
C409 C403 1.429 . S
C409 C410 1.523 . S
C410 C391 1.368 . S
C410 C404 1.368 . S
C410 C409 1.523 . S
C411 C395 1.429 . S
C411 C407 1.429 . S
C411 C412 1.523 . S
C412 C396 1.368 . S
C412 C408 1.368 . S
C412 C411 1.523 . S
H413 C388 0.950 . S
H414 C390 0.950 . S
H415 C391 0.949 . S
H416 C393 0.950 . S
H417 C395 0.950 . S
C418 C419 1.349 . S
C418 C420 1.327 . S
C418 H443 0.950 . S
C419 C418 1.349 . S
C419 C435 1.349 . S
C420 C418 1.327 . S
C420 C439 1.429 . S
C420 H444 0.950 . S
C421 C438 1.574 . S
C421 C440 1.368 . S
C421 H445 0.949 . S
H422 C426 0.949 . S
C423 C424 1.349 . S
C423 C425 1.327 . S
C423 H446 0.950 . S
C424 C423 1.349 . S
C424 C436 1.349 . S
C425 C423 1.327 . S
C425 C441 1.429 . S
C425 H447 0.950 . S
C426 H422 0.949 . S
C426 C434 1.574 . S
C426 C442 1.368 . S
H427 C435 0.950 . S
H428 C433 0.950 . S
H429 C434 0.949 . S
H430 C436 0.950 . S
H431 C437 0.950 . S
H432 C438 0.949 . S
C433 H428 0.950 . S
C433 C435 1.327 . S
C433 C439 1.429 . S
C434 C426 1.574 . S
C434 H429 0.949 . S
C434 C440 1.368 . S
C435 C419 1.349 . S
C435 H427 0.950 . S
C435 C433 1.327 . S
C436 C424 1.349 . S
C436 H430 0.950 . S
C436 C437 1.327 . S
C437 H431 0.950 . S
C437 C436 1.327 . S
C437 C441 1.429 . S
C438 C421 1.574 . S
C438 H432 0.949 . S
C438 C442 1.368 . S
C439 C420 1.429 . S
C439 C433 1.429 . S
C439 C440 1.523 . S
C440 C421 1.368 . S
C440 C434 1.368 . S
C440 C439 1.523 . S
C441 C425 1.429 . S
C441 C437 1.429 . S
C441 C442 1.523 . S
C442 C426 1.368 . S
C442 C438 1.368 . S
C442 C441 1.523 . S
H443 C418 0.950 . S
H444 C420 0.950 . S
H445 C421 0.949 . S
H446 C423 0.950 . S
H447 C425 0.950 . S
C448 C449 1.349 . S
C448 C450 1.327 . S
C448 H473 0.950 . S
C449 C448 1.349 . S
C449 C465 1.349 . S
C450 C448 1.327 . S
C450 C469 1.429 . S
C450 H474 0.950 . S
C451 C468 1.574 1_556 S
C451 C470 1.368 . S
C451 H475 0.949 . S
H452 C456 0.949 . S
C453 C454 1.349 . S
C453 C455 1.327 . S
C453 H476 0.950 . S
C454 C453 1.349 . S
C454 C466 1.349 . S
C455 C453 1.327 . S
C455 C471 1.429 . S
C455 H477 0.950 . S
C456 H452 0.949 . S
C456 C464 1.574 1_554 S
C456 C472 1.368 . S
H457 C465 0.950 . S
H458 C463 0.950 . S
H459 C464 0.949 . S
H460 C466 0.950 . S
H461 C467 0.950 . S
H462 C468 0.949 . S
C463 H458 0.950 . S
C463 C465 1.327 . S
C463 C469 1.429 . S
C464 C456 1.574 1_556 S
C464 H459 0.949 . S
C464 C470 1.368 . S
C465 C449 1.349 . S
C465 H457 0.950 . S
C465 C463 1.327 . S
C466 C454 1.349 . S
C466 H460 0.950 . S
C466 C467 1.327 . S
C467 H461 0.950 . S
C467 C466 1.327 . S
C467 C471 1.429 . S
C468 C451 1.574 1_554 S
C468 H462 0.949 . S
C468 C472 1.368 . S
C469 C450 1.429 . S
C469 C463 1.429 . S
C469 C470 1.523 . S
C470 C451 1.368 . S
C470 C464 1.368 . S
C470 C469 1.523 . S
C471 C455 1.429 . S
C471 C467 1.429 . S
C471 C472 1.523 . S
C472 C456 1.368 . S
C472 C468 1.368 . S
C472 C471 1.523 . S
H473 C448 0.950 . S
H474 C450 0.950 . S
H475 C451 0.949 . S
H476 C453 0.950 . S
H477 C455 0.950 . S
C478 C479 1.349 . S
C478 C480 1.327 . S
C478 H503 0.950 . S
C479 C478 1.349 . S
C479 C495 1.349 . S
C480 C478 1.327 . S
C480 C499 1.429 . S
C480 H504 0.950 . S
C481 C498 1.574 1_556 S
C481 C500 1.368 . S
C481 H505 0.949 . S
H482 C486 0.949 . S
C483 C484 1.349 . S
C483 C485 1.327 . S
C483 H506 0.950 . S
C484 C483 1.349 . S
C484 C496 1.349 . S
C485 C483 1.327 . S
C485 C501 1.429 . S
C485 H507 0.950 . S
C486 H482 0.949 . S
C486 C494 1.574 1_554 S
C486 C502 1.368 . S
H487 C495 0.950 . S
H488 C493 0.950 . S
H489 C494 0.949 . S
H490 C496 0.950 . S
H491 C497 0.950 . S
H492 C498 0.949 . S
C493 H488 0.950 . S
C493 C495 1.327 . S
C493 C499 1.429 . S
C494 C486 1.574 1_556 S
C494 H489 0.949 . S
C494 C500 1.368 . S
C495 C479 1.349 . S
C495 H487 0.950 . S
C495 C493 1.327 . S
C496 C484 1.349 . S
C496 H490 0.950 . S
C496 C497 1.327 . S
C497 H491 0.950 . S
C497 C496 1.327 . S
C497 C501 1.429 . S
C498 C481 1.574 1_554 S
C498 H492 0.949 . S
C498 C502 1.368 . S
C499 C480 1.429 . S
C499 C493 1.429 . S
C499 C500 1.523 . S
C500 C481 1.368 . S
C500 C494 1.368 . S
C500 C499 1.523 . S
C501 C485 1.429 . S
C501 C497 1.429 . S
C501 C502 1.523 . S
C502 C486 1.368 . S
C502 C498 1.368 . S
C502 C501 1.523 . S
H503 C478 0.950 . S
H504 C480 0.950 . S
H505 C481 0.949 . S
H506 C483 0.950 . S
H507 C485 0.950 . S
C508 C509 1.349 . S
C508 C510 1.327 . S
C508 H533 0.950 . S
C509 C508 1.349 . S
C509 C525 1.349 . S
C510 C508 1.327 . S
C510 C529 1.429 . S
C510 H534 0.950 . S
C511 C528 1.574 1_556 S
C511 C530 1.368 . S
C511 H535 0.949 . S
H512 C516 0.949 . S
C513 C514 1.349 . S
C513 C515 1.327 . S
C513 H536 0.950 . S
C514 C513 1.349 . S
C514 C526 1.349 . S
C515 C513 1.327 . S
C515 C531 1.429 . S
C515 H537 0.950 . S
C516 H512 0.949 . S
C516 C524 1.574 1_554 S
C516 C532 1.368 . S
H517 C525 0.950 . S
H518 C523 0.950 . S
H519 C524 0.949 . S
H520 C526 0.950 . S
H521 C527 0.950 . S
H522 C528 0.949 . S
C523 H518 0.950 . S
C523 C525 1.327 . S
C523 C529 1.429 . S
C524 C516 1.574 1_556 S
C524 H519 0.949 . S
C524 C530 1.368 . S
C525 C509 1.349 . S
C525 H517 0.950 . S
C525 C523 1.327 . S
C526 C514 1.349 . S
C526 H520 0.950 . S
C526 C527 1.327 . S
C527 H521 0.950 . S
C527 C526 1.327 . S
C527 C531 1.429 . S
C528 C511 1.574 1_554 S
C528 H522 0.949 . S
C528 C532 1.368 . S
C529 C510 1.429 . S
C529 C523 1.429 . S
C529 C530 1.523 . S
C530 C511 1.368 . S
C530 C524 1.368 . S
C530 C529 1.523 . S
C531 C515 1.429 . S
C531 C527 1.429 . S
C531 C532 1.523 . S
C532 C516 1.368 . S
C532 C528 1.368 . S
C532 C531 1.523 . S
H533 C508 0.950 . S
H534 C510 0.950 . S
H535 C511 0.949 . S
H536 C513 0.950 . S
H537 C515 0.950 . S
C538 C539 1.349 . S
C538 C540 1.327 . S
C538 H563 0.950 . S
C539 C538 1.349 . S
C539 C555 1.349 . S
C540 C538 1.327 . S
C540 C559 1.429 . S
C540 H564 0.950 . S
C541 C558 1.574 1_554 S
C541 C560 1.368 . S
C541 H565 0.949 . S
H542 C546 0.949 . S
C543 C544 1.349 . S
C543 C545 1.327 . S
C543 H566 0.950 . S
C544 C543 1.349 . S
C544 C556 1.349 . S
C545 C543 1.327 . S
C545 C561 1.429 . S
C545 H567 0.950 . S
C546 H542 0.949 . S
C546 C554 1.574 1_556 S
C546 C562 1.368 . S
H547 C555 0.950 . S
H548 C553 0.950 . S
H549 C554 0.949 . S
H550 C556 0.950 . S
H551 C557 0.950 . S
H552 C558 0.949 . S
C553 H548 0.950 . S
C553 C555 1.327 . S
C553 C559 1.429 . S
C554 C546 1.574 1_554 S
C554 H549 0.949 . S
C554 C560 1.368 . S
C555 C539 1.349 . S
C555 H547 0.950 . S
C555 C553 1.327 . S
C556 C544 1.349 . S
C556 H550 0.950 . S
C556 C557 1.327 . S
C557 H551 0.950 . S
C557 C556 1.327 . S
C557 C561 1.429 . S
C558 C541 1.574 1_556 S
C558 H552 0.949 . S
C558 C562 1.368 . S
C559 C540 1.429 . S
C559 C553 1.429 . S
C559 C560 1.523 . S
C560 C541 1.368 . S
C560 C554 1.368 . S
C560 C559 1.523 . S
C561 C545 1.429 . S
C561 C557 1.429 . S
C561 C562 1.523 . S
C562 C546 1.368 . S
C562 C558 1.368 . S
C562 C561 1.523 . S
H563 C538 0.950 . S
H564 C540 0.950 . S
H565 C541 0.949 . S
H566 C543 0.950 . S
H567 C545 0.950 . S
C568 C569 1.349 . S
C568 C570 1.327 . S
C568 H593 0.950 . S
C569 C568 1.349 . S
C569 C585 1.349 . S
C570 C568 1.327 . S
C570 C589 1.429 . S
C570 H594 0.950 . S
C571 C588 1.574 . S
C571 C590 1.368 . S
C571 H595 0.949 . S
H572 C576 0.949 . S
C573 C574 1.349 . S
C573 C575 1.327 . S
C573 H596 0.950 . S
C574 C573 1.349 . S
C574 C586 1.349 . S
C575 C573 1.327 . S
C575 C591 1.429 . S
C575 H597 0.950 . S
C576 H572 0.949 . S
C576 C584 1.574 . S
C576 C592 1.368 . S
H577 C585 0.950 . S
H578 C583 0.950 . S
H579 C584 0.949 . S
H580 C586 0.950 . S
H581 C587 0.950 . S
H582 C588 0.949 . S
C583 H578 0.950 . S
C583 C585 1.327 . S
C583 C589 1.429 . S
C584 C576 1.574 . S
C584 H579 0.949 . S
C584 C590 1.368 . S
C585 C569 1.349 . S
C585 H577 0.950 . S
C585 C583 1.327 . S
C586 C574 1.349 . S
C586 H580 0.950 . S
C586 C587 1.327 . S
C587 H581 0.950 . S
C587 C586 1.327 . S
C587 C591 1.429 . S
C588 C571 1.574 . S
C588 H582 0.949 . S
C588 C592 1.368 . S
C589 C570 1.429 . S
C589 C583 1.429 . S
C589 C590 1.523 . S
C590 C571 1.368 . S
C590 C584 1.368 . S
C590 C589 1.523 . S
C591 C575 1.429 . S
C591 C587 1.429 . S
C591 C592 1.523 . S
C592 C576 1.368 . S
C592 C588 1.368 . S
C592 C591 1.523 . S
H593 C568 0.950 . S
H594 C570 0.950 . S
H595 C571 0.949 . S
H596 C573 0.950 . S
H597 C575 0.950 . S
C598 C599 1.349 . S
C598 C600 1.327 . S
C598 H623 0.950 . S
C599 C598 1.349 . S
C599 C615 1.349 . S
C600 C598 1.327 . S
C600 C619 1.429 . S
C600 H624 0.950 . S
C601 C618 1.574 . S
C601 C620 1.368 . S
C601 H625 0.949 . S
H602 C606 0.949 . S
C603 C604 1.349 . S
C603 C605 1.327 . S
C603 H626 0.950 . S
C604 C603 1.349 . S
C604 C616 1.349 . S
C605 C603 1.327 . S
C605 C621 1.429 . S
C605 H627 0.950 . S
C606 H602 0.949 . S
C606 C614 1.574 . S
C606 C622 1.368 . S
H607 C615 0.950 . S
H608 C613 0.950 . S
H609 C614 0.949 . S
H610 C616 0.950 . S
H611 C617 0.950 . S
H612 C618 0.949 . S
C613 H608 0.950 . S
C613 C615 1.327 . S
C613 C619 1.429 . S
C614 C606 1.574 . S
C614 H609 0.949 . S
C614 C620 1.368 . S
C615 C599 1.349 . S
C615 H607 0.950 . S
C615 C613 1.327 . S
C616 C604 1.349 . S
C616 H610 0.950 . S
C616 C617 1.327 . S
C617 H611 0.950 . S
C617 C616 1.327 . S
C617 C621 1.429 . S
C618 C601 1.574 . S
C618 H612 0.949 . S
C618 C622 1.368 . S
C619 C600 1.429 . S
C619 C613 1.429 . S
C619 C620 1.523 . S
C620 C601 1.368 . S
C620 C614 1.368 . S
C620 C619 1.523 . S
C621 C605 1.429 . S
C621 C617 1.429 . S
C621 C622 1.523 . S
C622 C606 1.368 . S
C622 C618 1.368 . S
C622 C621 1.523 . S
H623 C598 0.950 . S
H624 C600 0.950 . S
H625 C601 0.949 . S
H626 C603 0.950 . S
H627 C605 0.950 . S
C628 C629 1.349 . S
C628 C630 1.327 . S
C628 H653 0.950 . S
C629 C628 1.349 . S
C629 C645 1.349 . S
C630 C628 1.327 . S
C630 C649 1.429 . S
C630 H654 0.950 . S
C631 C648 1.574 . S
C631 C650 1.368 . S
C631 H655 0.949 . S
H632 C636 0.949 . S
C633 C634 1.349 . S
C633 C635 1.327 . S
C633 H656 0.950 . S
C634 C633 1.349 . S
C634 C646 1.349 . S
C635 C633 1.327 . S
C635 C651 1.429 . S
C635 H657 0.950 . S
C636 H632 0.949 . S
C636 C644 1.574 . S
C636 C652 1.368 . S
H637 C645 0.950 . S
H638 C643 0.950 . S
H639 C644 0.949 . S
H640 C646 0.950 . S
H641 C647 0.950 . S
H642 C648 0.949 . S
C643 H638 0.950 . S
C643 C645 1.327 . S
C643 C649 1.429 . S
C644 C636 1.574 . S
C644 H639 0.949 . S
C644 C650 1.368 . S
C645 C629 1.349 . S
C645 H637 0.950 . S
C645 C643 1.327 . S
C646 C634 1.349 . S
C646 H640 0.950 . S
C646 C647 1.327 . S
C647 H641 0.950 . S
C647 C646 1.327 . S
C647 C651 1.429 . S
C648 C631 1.574 . S
C648 H642 0.949 . S
C648 C652 1.368 . S
C649 C630 1.429 . S
C649 C643 1.429 . S
C649 C650 1.523 . S
C650 C631 1.368 . S
C650 C644 1.368 . S
C650 C649 1.523 . S
C651 C635 1.429 . S
C651 C647 1.429 . S
C651 C652 1.523 . S
C652 C636 1.368 . S
C652 C648 1.368 . S
C652 C651 1.523 . S
H653 C628 0.950 . S
H654 C630 0.950 . S
H655 C631 0.949 . S
H656 C633 0.950 . S
H657 C635 0.950 . S
C658 C659 1.349 . S
C658 C660 1.327 . S
C658 H683 0.950 . S
C659 C658 1.349 . S
C659 C675 1.349 . S
C660 C658 1.327 . S
C660 C679 1.429 . S
C660 H684 0.950 . S
C661 C678 1.574 . S
C661 C680 1.368 . S
C661 H685 0.949 . S
H662 C666 0.949 . S
C663 C664 1.349 . S
C663 C665 1.327 . S
C663 H686 0.950 . S
C664 C663 1.349 . S
C664 C676 1.349 . S
C665 C663 1.327 . S
C665 C681 1.429 . S
C665 H687 0.950 . S
C666 H662 0.949 . S
C666 C674 1.574 . S
C666 C682 1.368 . S
H667 C675 0.950 . S
H668 C673 0.950 . S
H669 C674 0.949 . S
H670 C676 0.950 . S
H671 C677 0.950 . S
H672 C678 0.949 . S
C673 H668 0.950 . S
C673 C675 1.327 . S
C673 C679 1.429 . S
C674 C666 1.574 . S
C674 H669 0.949 . S
C674 C680 1.368 . S
C675 C659 1.349 . S
C675 H667 0.950 . S
C675 C673 1.327 . S
C676 C664 1.349 . S
C676 H670 0.950 . S
C676 C677 1.327 . S
C677 H671 0.950 . S
C677 C676 1.327 . S
C677 C681 1.429 . S
C678 C661 1.574 . S
C678 H672 0.949 . S
C678 C682 1.368 . S
C679 C660 1.429 . S
C679 C673 1.429 . S
C679 C680 1.523 . S
C680 C661 1.368 . S
C680 C674 1.368 . S
C680 C679 1.523 . S
C681 C665 1.429 . S
C681 C677 1.429 . S
C681 C682 1.523 . S
C682 C666 1.368 . S
C682 C678 1.368 . S
C682 C681 1.523 . S
H683 C658 0.950 . S
H684 C660 0.950 . S
H685 C661 0.949 . S
H686 C663 0.950 . S
H687 C665 0.950 . S
C688 C689 1.349 . S
C688 C690 1.327 . S
C688 H713 0.950 . S
C689 C688 1.349 . S
C689 C705 1.349 . S
C690 C688 1.327 . S
C690 C709 1.429 . S
C690 H714 0.950 . S
C691 C708 1.574 . S
C691 C710 1.368 . S
C691 H715 0.949 . S
H692 C696 0.949 . S
C693 C694 1.349 . S
C693 C695 1.327 . S
C693 H716 0.950 . S
C694 C693 1.349 . S
C694 C706 1.349 . S
C695 C693 1.327 . S
C695 C711 1.429 . S
C695 H717 0.950 . S
C696 H692 0.949 . S
C696 C704 1.574 . S
C696 C712 1.368 . S
H697 C705 0.950 . S
H698 C703 0.950 . S
H699 C704 0.949 . S
H700 C706 0.950 . S
H701 C707 0.950 . S
H702 C708 0.949 . S
C703 H698 0.950 . S
C703 C705 1.327 . S
C703 C709 1.429 . S
C704 C696 1.574 . S
C704 H699 0.949 . S
C704 C710 1.368 . S
C705 C689 1.349 . S
C705 H697 0.950 . S
C705 C703 1.327 . S
C706 C694 1.349 . S
C706 H700 0.950 . S
C706 C707 1.327 . S
C707 H701 0.950 . S
C707 C706 1.327 . S
C707 C711 1.429 . S
C708 C691 1.574 . S
C708 H702 0.949 . S
C708 C712 1.368 . S
C709 C690 1.429 . S
C709 C703 1.429 . S
C709 C710 1.523 . S
C710 C691 1.368 . S
C710 C704 1.368 . S
C710 C709 1.523 . S
C711 C695 1.429 . S
C711 C707 1.429 . S
C711 C712 1.523 . S
C712 C696 1.368 . S
C712 C708 1.368 . S
C712 C711 1.523 . S
H713 C688 0.950 . S
H714 C690 0.950 . S
H715 C691 0.949 . S
H716 C693 0.950 . S
H717 C695 0.950 . S
C718 C719 1.349 . S
C718 C720 1.327 . S
C718 H743 0.950 . S
C719 C718 1.349 . S
C719 C735 1.349 . S
C720 C718 1.327 . S
C720 C739 1.429 . S
C720 H744 0.950 . S
C721 C738 1.574 . S
C721 C740 1.368 . S
C721 H745 0.949 . S
H722 C726 0.949 . S
C723 C724 1.349 . S
C723 C725 1.327 . S
C723 H746 0.950 . S
C724 C723 1.349 . S
C724 C736 1.349 . S
C725 C723 1.327 . S
C725 C741 1.429 . S
C725 H747 0.950 . S
C726 H722 0.949 . S
C726 C734 1.574 . S
C726 C742 1.368 . S
H727 C735 0.950 . S
H728 C733 0.950 . S
H729 C734 0.949 . S
H730 C736 0.950 . S
H731 C737 0.950 . S
H732 C738 0.949 . S
C733 H728 0.950 . S
C733 C735 1.327 . S
C733 C739 1.429 . S
C734 C726 1.574 . S
C734 H729 0.949 . S
C734 C740 1.368 . S
C735 C719 1.349 . S
C735 H727 0.950 . S
C735 C733 1.327 . S
C736 C724 1.349 . S
C736 H730 0.950 . S
C736 C737 1.327 . S
C737 H731 0.950 . S
C737 C736 1.327 . S
C737 C741 1.429 . S
C738 C721 1.574 . S
C738 H732 0.949 . S
C738 C742 1.368 . S
C739 C720 1.429 . S
C739 C733 1.429 . S
C739 C740 1.523 . S
C740 C721 1.368 . S
C740 C734 1.368 . S
C740 C739 1.523 . S
C741 C725 1.429 . S
C741 C737 1.429 . S
C741 C742 1.523 . S
C742 C726 1.368 . S
C742 C738 1.368 . S
C742 C741 1.523 . S
H743 C718 0.950 . S
H744 C720 0.950 . S
H745 C721 0.949 . S
H746 C723 0.950 . S
H747 C725 0.950 . S
C748 C749 1.349 . S
C748 C750 1.327 . S
C748 H773 0.950 . S
C749 C748 1.349 . S
C749 C765 1.349 . S
C750 C748 1.327 . S
C750 C769 1.429 . S
C750 H774 0.950 . S
C751 C768 1.574 . S
C751 C770 1.368 . S
C751 H775 0.949 . S
H752 C756 0.949 . S
C753 C754 1.349 . S
C753 C755 1.327 . S
C753 H776 0.950 . S
C754 C753 1.349 . S
C754 C766 1.349 . S
C755 C753 1.327 . S
C755 C771 1.429 . S
C755 H777 0.950 . S
C756 H752 0.949 . S
C756 C764 1.574 . S
C756 C772 1.368 . S
H757 C765 0.950 . S
H758 C763 0.950 . S
H759 C764 0.949 . S
H760 C766 0.950 . S
H761 C767 0.950 . S
H762 C768 0.949 . S
C763 H758 0.950 . S
C763 C765 1.327 . S
C763 C769 1.429 . S
C764 C756 1.574 . S
C764 H759 0.949 . S
C764 C770 1.368 . S
C765 C749 1.349 . S
C765 H757 0.950 . S
C765 C763 1.327 . S
C766 C754 1.349 . S
C766 H760 0.950 . S
C766 C767 1.327 . S
C767 H761 0.950 . S
C767 C766 1.327 . S
C767 C771 1.429 . S
C768 C751 1.574 . S
C768 H762 0.949 . S
C768 C772 1.368 . S
C769 C750 1.429 . S
C769 C763 1.429 . S
C769 C770 1.523 . S
C770 C751 1.368 . S
C770 C764 1.368 . S
C770 C769 1.523 . S
C771 C755 1.429 . S
C771 C767 1.429 . S
C771 C772 1.523 . S
C772 C756 1.368 . S
C772 C768 1.368 . S
C772 C771 1.523 . S
H773 C748 0.950 . S
H774 C750 0.950 . S
H775 C751 0.949 . S
H776 C753 0.950 . S
H777 C755 0.950 . S
C778 C779 1.349 . S
C778 C780 1.327 . S
C778 H803 0.950 . S
C779 C778 1.349 . S
C779 C795 1.349 . S
C780 C778 1.327 . S
C780 C799 1.429 . S
C780 H804 0.950 . S
C781 C798 1.574 . S
C781 C800 1.368 . S
C781 H805 0.949 . S
H782 C786 0.949 . S
C783 C784 1.349 . S
C783 C785 1.327 . S
C783 H806 0.950 . S
C784 C783 1.349 . S
C784 C796 1.349 . S
C785 C783 1.327 . S
C785 C801 1.429 . S
C785 H807 0.950 . S
C786 H782 0.949 . S
C786 C794 1.574 . S
C786 C802 1.368 . S
H787 C795 0.950 . S
H788 C793 0.950 . S
H789 C794 0.949 . S
H790 C796 0.950 . S
H791 C797 0.950 . S
H792 C798 0.949 . S
C793 H788 0.950 . S
C793 C795 1.327 . S
C793 C799 1.429 . S
C794 C786 1.574 . S
C794 H789 0.949 . S
C794 C800 1.368 . S
C795 C779 1.349 . S
C795 H787 0.950 . S
C795 C793 1.327 . S
C796 C784 1.349 . S
C796 H790 0.950 . S
C796 C797 1.327 . S
C797 H791 0.950 . S
C797 C796 1.327 . S
C797 C801 1.429 . S
C798 C781 1.574 . S
C798 H792 0.949 . S
C798 C802 1.368 . S
C799 C780 1.429 . S
C799 C793 1.429 . S
C799 C800 1.523 . S
C800 C781 1.368 . S
C800 C794 1.368 . S
C800 C799 1.523 . S
C801 C785 1.429 . S
C801 C797 1.429 . S
C801 C802 1.523 . S
C802 C786 1.368 . S
C802 C798 1.368 . S
C802 C801 1.523 . S
H803 C778 0.950 . S
H804 C780 0.950 . S
H805 C781 0.949 . S
H806 C783 0.950 . S
H807 C785 0.950 . S
C808 C809 1.349 . S
C808 C810 1.327 . S
C808 H833 0.950 . S
C809 C808 1.349 . S
C809 C825 1.349 . S
C810 C808 1.327 . S
C810 C829 1.429 . S
C810 H834 0.950 . S
C811 C828 1.574 . S
C811 C830 1.368 . S
C811 H835 0.949 . S
H812 C816 0.949 . S
C813 C814 1.349 . S
C813 C815 1.327 . S
C813 H836 0.950 . S
C814 C813 1.349 . S
C814 C826 1.349 . S
C815 C813 1.327 . S
C815 C831 1.429 . S
C815 H837 0.950 . S
C816 H812 0.949 . S
C816 C824 1.574 . S
C816 C832 1.368 . S
H817 C825 0.950 . S
H818 C823 0.950 . S
H819 C824 0.949 . S
H820 C826 0.950 . S
H821 C827 0.950 . S
H822 C828 0.949 . S
C823 H818 0.950 . S
C823 C825 1.327 . S
C823 C829 1.429 . S
C824 C816 1.574 . S
C824 H819 0.949 . S
C824 C830 1.368 . S
C825 C809 1.349 . S
C825 H817 0.950 . S
C825 C823 1.327 . S
C826 C814 1.349 . S
C826 H820 0.950 . S
C826 C827 1.327 . S
C827 H821 0.950 . S
C827 C826 1.327 . S
C827 C831 1.429 . S
C828 C811 1.574 . S
C828 H822 0.949 . S
C828 C832 1.368 . S
C829 C810 1.429 . S
C829 C823 1.429 . S
C829 C830 1.523 . S
C830 C811 1.368 . S
C830 C824 1.368 . S
C830 C829 1.523 . S
C831 C815 1.429 . S
C831 C827 1.429 . S
C831 C832 1.523 . S
C832 C816 1.368 . S
C832 C828 1.368 . S
C832 C831 1.523 . S
H833 C808 0.950 . S
H834 C810 0.950 . S
H835 C811 0.949 . S
H836 C813 0.950 . S
H837 C815 0.950 . S
C838 C839 1.349 . S
C838 C840 1.327 . S
C838 H863 0.950 . S
C839 C838 1.349 . S
C839 C855 1.349 . S
C840 C838 1.327 . S
C840 C859 1.429 . S
C840 H864 0.950 . S
C841 C858 1.574 . S
C841 C860 1.368 . S
C841 H865 0.949 . S
H842 C846 0.949 . S
C843 C844 1.349 . S
C843 C845 1.327 . S
C843 H866 0.950 . S
C844 C843 1.349 . S
C844 C856 1.349 . S
C845 C843 1.327 . S
C845 C861 1.429 . S
C845 H867 0.950 . S
C846 H842 0.949 . S
C846 C854 1.574 . S
C846 C862 1.368 . S
H847 C855 0.950 . S
H848 C853 0.950 . S
H849 C854 0.949 . S
H850 C856 0.950 . S
H851 C857 0.950 . S
H852 C858 0.949 . S
C853 H848 0.950 . S
C853 C855 1.327 . S
C853 C859 1.429 . S
C854 C846 1.574 . S
C854 H849 0.949 . S
C854 C860 1.368 . S
C855 C839 1.349 . S
C855 H847 0.950 . S
C855 C853 1.327 . S
C856 C844 1.349 . S
C856 H850 0.950 . S
C856 C857 1.327 . S
C857 H851 0.950 . S
C857 C856 1.327 . S
C857 C861 1.429 . S
C858 C841 1.574 . S
C858 H852 0.949 . S
C858 C862 1.368 . S
C859 C840 1.429 . S
C859 C853 1.429 . S
C859 C860 1.523 . S
C860 C841 1.368 . S
C860 C854 1.368 . S
C860 C859 1.523 . S
C861 C845 1.429 . S
C861 C857 1.429 . S
C861 C862 1.523 . S
C862 C846 1.368 . S
C862 C858 1.368 . S
C862 C861 1.523 . S
H863 C838 0.950 . S
H864 C840 0.950 . S
H865 C841 0.949 . S
H866 C843 0.950 . S
H867 C845 0.950 . S
C868 C869 1.349 . S
C868 C870 1.327 . S
C868 H893 0.950 . S
C869 C868 1.349 . S
C869 C885 1.349 . S
C870 C868 1.327 . S
C870 C889 1.429 . S
C870 H894 0.950 . S
C871 C888 1.574 . S
C871 C890 1.368 . S
C871 H895 0.949 . S
H872 C876 0.949 . S
C873 C874 1.349 . S
C873 C875 1.327 . S
C873 H896 0.950 . S
C874 C873 1.349 . S
C874 C886 1.349 . S
C875 C873 1.327 . S
C875 C891 1.429 . S
C875 H897 0.950 . S
C876 H872 0.949 . S
C876 C884 1.574 . S
C876 C892 1.368 . S
H877 C885 0.950 . S
H878 C883 0.950 . S
H879 C884 0.949 . S
H880 C886 0.950 . S
H881 C887 0.950 . S
H882 C888 0.949 . S
C883 H878 0.950 . S
C883 C885 1.327 . S
C883 C889 1.429 . S
C884 C876 1.574 . S
C884 H879 0.949 . S
C884 C890 1.368 . S
C885 C869 1.349 . S
C885 H877 0.950 . S
C885 C883 1.327 . S
C886 C874 1.349 . S
C886 H880 0.950 . S
C886 C887 1.327 . S
C887 H881 0.950 . S
C887 C886 1.327 . S
C887 C891 1.429 . S
C888 C871 1.574 . S
C888 H882 0.949 . S
C888 C892 1.368 . S
C889 C870 1.429 . S
C889 C883 1.429 . S
C889 C890 1.523 . S
C890 C871 1.368 . S
C890 C884 1.368 . S
C890 C889 1.523 . S
C891 C875 1.429 . S
C891 C887 1.429 . S
C891 C892 1.523 . S
C892 C876 1.368 . S
C892 C888 1.368 . S
C892 C891 1.523 . S
H893 C868 0.950 . S
H894 C870 0.950 . S
H895 C871 0.949 . S
H896 C873 0.950 . S
H897 C875 0.950 . S
C898 C899 1.349 . S
C898 C900 1.327 . S
C898 H923 0.950 . S
C899 C898 1.349 . S
C899 C915 1.349 . S
C900 C898 1.327 . S
C900 C919 1.429 . S
C900 H924 0.950 . S
C901 C918 1.574 . S
C901 C920 1.368 . S
C901 H925 0.949 . S
H902 C906 0.949 . S
C903 C904 1.349 . S
C903 C905 1.327 . S
C903 H926 0.950 . S
C904 C903 1.349 . S
C904 C916 1.349 . S
C905 C903 1.327 . S
C905 C921 1.429 . S
C905 H927 0.950 . S
C906 H902 0.949 . S
C906 C914 1.574 . S
C906 C922 1.368 . S
H907 C915 0.950 . S
H908 C913 0.950 . S
H909 C914 0.949 . S
H910 C916 0.950 . S
H911 C917 0.950 . S
H912 C918 0.949 . S
C913 H908 0.950 . S
C913 C915 1.327 . S
C913 C919 1.429 . S
C914 C906 1.574 . S
C914 H909 0.949 . S
C914 C920 1.368 . S
C915 C899 1.349 . S
C915 H907 0.950 . S
C915 C913 1.327 . S
C916 C904 1.349 . S
C916 H910 0.950 . S
C916 C917 1.327 . S
C917 H911 0.950 . S
C917 C916 1.327 . S
C917 C921 1.429 . S
C918 C901 1.574 . S
C918 H912 0.949 . S
C918 C922 1.368 . S
C919 C900 1.429 . S
C919 C913 1.429 . S
C919 C920 1.523 . S
C920 C901 1.368 . S
C920 C914 1.368 . S
C920 C919 1.523 . S
C921 C905 1.429 . S
C921 C917 1.429 . S
C921 C922 1.523 . S
C922 C906 1.368 . S
C922 C918 1.368 . S
C922 C921 1.523 . S
H923 C898 0.950 . S
H924 C900 0.950 . S
H925 C901 0.949 . S
H926 C903 0.950 . S
H927 C905 0.950 . S
C928 C929 1.349 . S
C928 C930 1.327 . S
C928 H953 0.950 . S
C929 C928 1.349 . S
C929 C945 1.349 . S
C930 C928 1.327 . S
C930 C949 1.429 . S
C930 H954 0.950 . S
C931 C948 1.574 1_545 S
C931 C950 1.368 . S
C931 H955 0.949 . S
H932 C936 0.949 . S
C933 C934 1.349 . S
C933 C935 1.327 . S
C933 H956 0.950 . S
C934 C933 1.349 . S
C934 C946 1.349 . S
C935 C933 1.327 . S
C935 C951 1.429 . S
C935 H957 0.950 . S
C936 H932 0.949 . S
C936 C944 1.574 1_565 S
C936 C952 1.368 . S
H937 C945 0.950 . S
H938 C943 0.950 . S
H939 C944 0.949 . S
H940 C946 0.950 . S
H941 C947 0.950 . S
H942 C948 0.949 . S
C943 H938 0.950 . S
C943 C945 1.327 . S
C943 C949 1.429 . S
C944 C936 1.574 1_545 S
C944 H939 0.949 . S
C944 C950 1.368 . S
C945 C929 1.349 . S
C945 H937 0.950 . S
C945 C943 1.327 . S
C946 C934 1.349 . S
C946 H940 0.950 . S
C946 C947 1.327 . S
C947 H941 0.950 . S
C947 C946 1.327 . S
C947 C951 1.429 . S
C948 C931 1.574 1_565 S
C948 H942 0.949 . S
C948 C952 1.368 . S
C949 C930 1.429 . S
C949 C943 1.429 . S
C949 C950 1.523 . S
C950 C931 1.368 . S
C950 C944 1.368 . S
C950 C949 1.523 . S
C951 C935 1.429 . S
C951 C947 1.429 . S
C951 C952 1.523 . S
C952 C936 1.368 . S
C952 C948 1.368 . S
C952 C951 1.523 . S
H953 C928 0.950 . S
H954 C930 0.950 . S
H955 C931 0.949 . S
H956 C933 0.950 . S
H957 C935 0.950 . S
C958 C959 1.349 . S
C958 C960 1.327 . S
C958 H983 0.950 . S
C959 C958 1.349 . S
C959 C975 1.349 . S
C960 C958 1.327 . S
C960 C979 1.429 . S
C960 H984 0.950 . S
C961 C978 1.574 1_655 S
C961 C980 1.368 . S
C961 H985 0.949 . S
H962 C966 0.949 . S
C963 C964 1.349 . S
C963 C965 1.327 . S
C963 H986 0.950 . S
C964 C963 1.349 . S
C964 C976 1.349 . S
C965 C963 1.327 . S
C965 C981 1.429 . S
C965 H987 0.950 . S
C966 H962 0.949 . S
C966 C974 1.574 1_455 S
C966 C982 1.368 . S
H967 C975 0.950 . S
H968 C973 0.950 . S
H969 C974 0.949 . S
H970 C976 0.950 . S
H971 C977 0.950 . S
H972 C978 0.949 . S
C973 H968 0.950 . S
C973 C975 1.327 . S
C973 C979 1.429 . S
C974 C966 1.574 1_655 S
C974 H969 0.949 . S
C974 C980 1.368 . S
C975 C959 1.349 . S
C975 H967 0.950 . S
C975 C973 1.327 . S
C976 C964 1.349 . S
C976 H970 0.950 . S
C976 C977 1.327 . S
C977 H971 0.950 . S
C977 C976 1.327 . S
C977 C981 1.429 . S
C978 C961 1.574 1_455 S
C978 H972 0.949 . S
C978 C982 1.368 . S
C979 C960 1.429 . S
C979 C973 1.429 . S
C979 C980 1.523 . S
C980 C961 1.368 . S
C980 C974 1.368 . S
C980 C979 1.523 . S
C981 C965 1.429 . S
C981 C977 1.429 . S
C981 C982 1.523 . S
C982 C966 1.368 . S
C982 C978 1.368 . S
C982 C981 1.523 . S
H983 C958 0.950 . S
H984 C960 0.950 . S
H985 C961 0.949 . S
H986 C963 0.950 . S
H987 C965 0.950 . S
C988 C989 1.349 . S
C988 C990 1.327 . S
C988 H1013 0.950 . S
C989 C988 1.349 . S
C989 C1005 1.349 . S
C990 C988 1.327 . S
C990 C1009 1.429 . S
C990 H1014 0.950 . S
C991 C1008 1.574 1_545 S
C991 C1010 1.368 . S
C991 H1015 0.949 . S
H992 C996 0.949 . S
C993 C994 1.349 . S
C993 C995 1.327 . S
C993 H1016 0.950 . S
C994 C993 1.349 . S
C994 C1006 1.349 . S
C995 C993 1.327 . S
C995 C1011 1.429 . S
C995 H1017 0.950 . S
C996 H992 0.949 . S
C996 C1004 1.574 1_565 S
C996 C1012 1.368 . S
H997 C1005 0.950 . S
H998 C1003 0.950 . S
H999 C1004 0.949 . S
H1000 C1006 0.950 . S
H1001 C1007 0.950 . S
H1002 C1008 0.949 . S
C1003 H998 0.950 . S
C1003 C1005 1.327 . S
C1003 C1009 1.429 . S
C1004 C996 1.574 1_545 S
C1004 H999 0.949 . S
C1004 C1010 1.368 . S
C1005 C989 1.349 . S
C1005 H997 0.950 . S
C1005 C1003 1.327 . S
C1006 C994 1.349 . S
C1006 H1000 0.950 . S
C1006 C1007 1.327 . S
C1007 H1001 0.950 . S
C1007 C1006 1.327 . S
C1007 C1011 1.429 . S
C1008 C991 1.574 1_565 S
C1008 H1002 0.949 . S
C1008 C1012 1.368 . S
C1009 C990 1.429 . S
C1009 C1003 1.429 . S
C1009 C1010 1.523 . S
C1010 C991 1.368 . S
C1010 C1004 1.368 . S
C1010 C1009 1.523 . S
C1011 C995 1.429 . S
C1011 C1007 1.429 . S
C1011 C1012 1.523 . S
C1012 C996 1.368 . S
C1012 C1008 1.368 . S
C1012 C1011 1.523 . S
H1013 C988 0.950 . S
H1014 C990 0.950 . S
H1015 C991 0.949 . S
H1016 C993 0.950 . S
H1017 C995 0.950 . S
C1018 C1019 1.349 . S
C1018 C1020 1.327 . S
C1018 H1043 0.950 . S
C1019 C1018 1.349 . S
C1019 C1035 1.349 . S
C1020 C1018 1.327 . S
C1020 C1039 1.429 . S
C1020 H1044 0.950 . S
C1021 C1038 1.574 1_455 S
C1021 C1040 1.368 . S
C1021 H1045 0.949 . S
H1022 C1026 0.949 . S
C1023 C1024 1.349 . S
C1023 C1025 1.327 . S
C1023 H1046 0.950 . S
C1024 C1023 1.349 . S
C1024 C1036 1.349 . S
C1025 C1023 1.327 . S
C1025 C1041 1.429 . S
C1025 H1047 0.950 . S
C1026 H1022 0.949 . S
C1026 C1034 1.574 1_655 S
C1026 C1042 1.368 . S
H1027 C1035 0.950 . S
H1028 C1033 0.950 . S
H1029 C1034 0.949 . S
H1030 C1036 0.950 . S
H1031 C1037 0.950 . S
H1032 C1038 0.949 . S
C1033 H1028 0.950 . S
C1033 C1035 1.327 . S
C1033 C1039 1.429 . S
C1034 C1026 1.574 1_455 S
C1034 H1029 0.949 . S
C1034 C1040 1.368 . S
C1035 C1019 1.349 . S
C1035 H1027 0.950 . S
C1035 C1033 1.327 . S
C1036 C1024 1.349 . S
C1036 H1030 0.950 . S
C1036 C1037 1.327 . S
C1037 H1031 0.950 . S
C1037 C1036 1.327 . S
C1037 C1041 1.429 . S
C1038 C1021 1.574 1_655 S
C1038 H1032 0.949 . S
C1038 C1042 1.368 . S
C1039 C1020 1.429 . S
C1039 C1033 1.429 . S
C1039 C1040 1.523 . S
C1040 C1021 1.368 . S
C1040 C1034 1.368 . S
C1040 C1039 1.523 . S
C1041 C1025 1.429 . S
C1041 C1037 1.429 . S
C1041 C1042 1.523 . S
C1042 C1026 1.368 . S
C1042 C1038 1.368 . S
C1042 C1041 1.523 . S
H1043 C1018 0.950 . S
H1044 C1020 0.950 . S
H1045 C1021 0.949 . S
H1046 C1023 0.950 . S
H1047 C1025 0.950 . S
C1048 C1049 1.349 . S
C1048 C1050 1.327 . S
C1048 H1073 0.950 . S
C1049 C1048 1.349 . S
C1049 C1065 1.349 . S
C1050 C1048 1.327 . S
C1050 C1069 1.429 . S
C1050 H1074 0.950 . S
C1051 C1068 1.574 1_545 S
C1051 C1070 1.368 . S
C1051 H1075 0.949 . S
H1052 C1056 0.949 . S
C1053 C1054 1.349 . S
C1053 C1055 1.327 . S
C1053 H1076 0.950 . S
C1054 C1053 1.349 . S
C1054 C1066 1.349 . S
C1055 C1053 1.327 . S
C1055 C1071 1.429 . S
C1055 H1077 0.950 . S
C1056 H1052 0.949 . S
C1056 C1064 1.574 1_565 S
C1056 C1072 1.368 . S
H1057 C1065 0.950 . S
H1058 C1063 0.950 . S
H1059 C1064 0.949 . S
H1060 C1066 0.950 . S
H1061 C1067 0.950 . S
H1062 C1068 0.949 . S
C1063 H1058 0.950 . S
C1063 C1065 1.327 . S
C1063 C1069 1.429 . S
C1064 C1056 1.574 1_545 S
C1064 H1059 0.949 . S
C1064 C1070 1.368 . S
C1065 C1049 1.349 . S
C1065 H1057 0.950 . S
C1065 C1063 1.327 . S
C1066 C1054 1.349 . S
C1066 H1060 0.950 . S
C1066 C1067 1.327 . S
C1067 H1061 0.950 . S
C1067 C1066 1.327 . S
C1067 C1071 1.429 . S
C1068 C1051 1.574 1_565 S
C1068 H1062 0.949 . S
C1068 C1072 1.368 . S
C1069 C1050 1.429 . S
C1069 C1063 1.429 . S
C1069 C1070 1.523 . S
C1070 C1051 1.368 . S
C1070 C1064 1.368 . S
C1070 C1069 1.523 . S
C1071 C1055 1.429 . S
C1071 C1067 1.429 . S
C1071 C1072 1.523 . S
C1072 C1056 1.368 . S
C1072 C1068 1.368 . S
C1072 C1071 1.523 . S
H1073 C1048 0.950 . S
H1074 C1050 0.950 . S
H1075 C1051 0.949 . S
H1076 C1053 0.950 . S
H1077 C1055 0.950 . S
C1078 C1079 1.349 . S
C1078 C1080 1.327 . S
C1078 H1103 0.950 . S
C1079 C1078 1.349 . S
C1079 C1095 1.349 . S
C1080 C1078 1.327 . S
C1080 C1099 1.429 . S
C1080 H1104 0.950 . S
C1081 C1098 1.574 1_655 S
C1081 C1100 1.368 . S
C1081 H1105 0.949 . S
H1082 C1086 0.949 . S
C1083 C1084 1.349 . S
C1083 C1085 1.327 . S
C1083 H1106 0.950 . S
C1084 C1083 1.349 . S
C1084 C1096 1.349 . S
C1085 C1083 1.327 . S
C1085 C1101 1.429 . S
C1085 H1107 0.950 . S
C1086 H1082 0.949 . S
C1086 C1094 1.574 1_455 S
C1086 C1102 1.368 . S
H1087 C1095 0.950 . S
H1088 C1093 0.950 . S
H1089 C1094 0.949 . S
H1090 C1096 0.950 . S
H1091 C1097 0.950 . S
H1092 C1098 0.949 . S
C1093 H1088 0.950 . S
C1093 C1095 1.327 . S
C1093 C1099 1.429 . S
C1094 C1086 1.574 1_655 S
C1094 H1089 0.949 . S
C1094 C1100 1.368 . S
C1095 C1079 1.349 . S
C1095 H1087 0.950 . S
C1095 C1093 1.327 . S
C1096 C1084 1.349 . S
C1096 H1090 0.950 . S
C1096 C1097 1.327 . S
C1097 H1091 0.950 . S
C1097 C1096 1.327 . S
C1097 C1101 1.429 . S
C1098 C1081 1.574 1_455 S
C1098 H1092 0.949 . S
C1098 C1102 1.368 . S
C1099 C1080 1.429 . S
C1099 C1093 1.429 . S
C1099 C1100 1.523 . S
C1100 C1081 1.368 . S
C1100 C1094 1.368 . S
C1100 C1099 1.523 . S
C1101 C1085 1.429 . S
C1101 C1097 1.429 . S
C1101 C1102 1.523 . S
C1102 C1086 1.368 . S
C1102 C1098 1.368 . S
C1102 C1101 1.523 . S
H1103 C1078 0.950 . S
H1104 C1080 0.950 . S
H1105 C1081 0.949 . S
H1106 C1083 0.950 . S
H1107 C1085 0.950 . S
C1108 C1109 1.349 . S
C1108 C1110 1.327 . S
C1108 H1133 0.950 . S
C1109 C1108 1.349 . S
C1109 C1125 1.349 . S
C1110 C1108 1.327 . S
C1110 C1129 1.429 . S
C1110 H1134 0.950 . S
C1111 C1128 1.574 1_565 S
C1111 C1130 1.368 . S
C1111 H1135 0.949 . S
H1112 C1116 0.949 . S
C1113 C1114 1.349 . S
C1113 C1115 1.327 . S
C1113 H1136 0.950 . S
C1114 C1113 1.349 . S
C1114 C1126 1.349 . S
C1115 C1113 1.327 . S
C1115 C1131 1.429 . S
C1115 H1137 0.950 . S
C1116 H1112 0.949 . S
C1116 C1124 1.574 1_545 S
C1116 C1132 1.368 . S
H1117 C1125 0.950 . S
H1118 C1123 0.950 . S
H1119 C1124 0.949 . S
H1120 C1126 0.950 . S
H1121 C1127 0.950 . S
H1122 C1128 0.949 . S
C1123 H1118 0.950 . S
C1123 C1125 1.327 . S
C1123 C1129 1.429 . S
C1124 C1116 1.574 1_565 S
C1124 H1119 0.949 . S
C1124 C1130 1.368 . S
C1125 C1109 1.349 . S
C1125 H1117 0.950 . S
C1125 C1123 1.327 . S
C1126 C1114 1.349 . S
C1126 H1120 0.950 . S
C1126 C1127 1.327 . S
C1127 H1121 0.950 . S
C1127 C1126 1.327 . S
C1127 C1131 1.429 . S
C1128 C1111 1.574 1_545 S
C1128 H1122 0.949 . S
C1128 C1132 1.368 . S
C1129 C1110 1.429 . S
C1129 C1123 1.429 . S
C1129 C1130 1.523 . S
C1130 C1111 1.368 . S
C1130 C1124 1.368 . S
C1130 C1129 1.523 . S
C1131 C1115 1.429 . S
C1131 C1127 1.429 . S
C1131 C1132 1.523 . S
C1132 C1116 1.368 . S
C1132 C1128 1.368 . S
C1132 C1131 1.523 . S
H1133 C1108 0.950 . S
H1134 C1110 0.950 . S
H1135 C1111 0.949 . S
H1136 C1113 0.950 . S
H1137 C1115 0.950 . S
C1138 C1139 1.349 . S
C1138 C1140 1.327 . S
C1138 H1163 0.950 . S
C1139 C1138 1.349 . S
C1139 C1155 1.349 . S
C1140 C1138 1.327 . S
C1140 C1159 1.429 . S
C1140 H1164 0.950 . S
C1141 C1158 1.574 1_455 S
C1141 C1160 1.368 . S
C1141 H1165 0.949 . S
H1142 C1146 0.949 . S
C1143 C1144 1.349 . S
C1143 C1145 1.327 . S
C1143 H1166 0.950 . S
C1144 C1143 1.349 . S
C1144 C1156 1.349 . S
C1145 C1143 1.327 . S
C1145 C1161 1.429 . S
C1145 H1167 0.950 . S
C1146 H1142 0.949 . S
C1146 C1154 1.574 1_655 S
C1146 C1162 1.368 . S
H1147 C1155 0.950 . S
H1148 C1153 0.950 . S
H1149 C1154 0.949 . S
H1150 C1156 0.950 . S
H1151 C1157 0.950 . S
H1152 C1158 0.949 . S
C1153 H1148 0.950 . S
C1153 C1155 1.327 . S
C1153 C1159 1.429 . S
C1154 C1146 1.574 1_455 S
C1154 H1149 0.949 . S
C1154 C1160 1.368 . S
C1155 C1139 1.349 . S
C1155 H1147 0.950 . S
C1155 C1153 1.327 . S
C1156 C1144 1.349 . S
C1156 H1150 0.950 . S
C1156 C1157 1.327 . S
C1157 H1151 0.950 . S
C1157 C1156 1.327 . S
C1157 C1161 1.429 . S
C1158 C1141 1.574 1_655 S
C1158 H1152 0.949 . S
C1158 C1162 1.368 . S
C1159 C1140 1.429 . S
C1159 C1153 1.429 . S
C1159 C1160 1.523 . S
C1160 C1141 1.368 . S
C1160 C1154 1.368 . S
C1160 C1159 1.523 . S
C1161 C1145 1.429 . S
C1161 C1157 1.429 . S
C1161 C1162 1.523 . S
C1162 C1146 1.368 . S
C1162 C1158 1.368 . S
C1162 C1161 1.523 . S
H1163 C1138 0.950 . S
H1164 C1140 0.950 . S
H1165 C1141 0.949 . S
H1166 C1143 0.950 . S
H1167 C1145 0.950 . S
C209 C65 1.177 . S
C214 C0 1.177 . S
C239 C78 1.177 . S
C244 C13 1.177 . S
C269 C26 1.177 . S
C274 C91 1.177 . S
C299 C39 1.177 . S
C304 C52 1.177 . S
C329 C169 1.177 . S
C334 C104 1.177 . S
C359 C182 1.177 . S
C364 C117 1.177 . S
C389 C130 1.177 . S
C394 C195 1.177 . S
C419 C143 1.177 . S
C424 C156 1.177 . S
C449 C138 1.470 . S
C454 C8 1.470 . S
C479 C151 1.470 . S
C484 C21 1.470 . S
C509 C112 1.470 . S
C514 C34 1.470 . S
C539 C47 1.470 . S
C544 C125 1.470 . S
C569 C190 1.470 . S
C574 C60 1.470 . S
C599 C203 1.470 . S
C604 C73 1.470 . S
C629 C86 1.470 . S
C634 C164 1.470 . S
C659 C177 1.470 . S
C664 C99 1.470 . S
C689 C62 1.276 . S
C694 C10 1.276 . S
C719 C23 1.276 . S
C724 C75 1.276 . S
C749 C36 1.276 . S
C754 C88 1.276 . S
C779 C101 1.276 . S
C784 C49 1.276 . S
C809 C109 1.417 . S
C814 C161 1.417 . S
C839 C174 1.417 . S
C844 C122 1.417 . S
C869 C135 1.417 . S
C874 C187 1.417 . S
C899 C200 1.417 . S
C904 C148 1.417 . S
C929 C153 1.276 . S
C934 C179 1.276 . S
C959 C114 1.276 . S
C964 C192 1.276 . S
C989 C205 1.276 . S
C994 C127 1.276 . S
C1019 C140 1.276 . S
C1024 C166 1.276 . S
C1049 C70 1.417 . S
C1054 C44 1.417 . S
C1079 C83 1.417 . S
C1084 C5 1.417 . S
C1109 C96 1.417 . S
C1114 C18 1.417 . S
C1139 C57 1.417 . S
C1144 C31 1.417 . S
