# Generated by pormake.
# Topology smd, (6)-cn, num edge types: 1
# Building blocks:
#     Node 0, Type 0, BuildingBlock: FUNLAD_clean_sbu_0, # of connection points: 6
#     Node 1, Type 0, BuildingBlock: FUNLAD_clean_sbu_0, # of connection points: 6
#     Node 2, Type 0, BuildingBlock: FUNLAD_clean_sbu_0, # of connection points: 6
#     Node 3, Type 0, BuildingBlock: FUNLAD_clean_sbu_0, # of connection points: 6
#     Node 4, Type 0, BuildingBlock: FUNLAD_clean_sbu_0, # of connection points: 6
#     Node 5, Type 0, BuildingBlock: FUNLAD_clean_sbu_0, # of connection points: 6
#     Node 6, Type 0, BuildingBlock: FUNLAD_clean_sbu_0, # of connection points: 6
#     Node 7, Type 0, BuildingBlock: FUNLAD_clean_sbu_0, # of connection points: 6
#     Node 8, Type 0, BuildingBlock: FUNLAD_clean_sbu_0, # of connection points: 6
#     Node 9, Type 0, BuildingBlock: FUNLAD_clean_sbu_0, # of connection points: 6
#     Node 10, Type 0, BuildingBlock: FUNLAD_clean_sbu_0, # of connection points: 6
#     Node 11, Type 0, BuildingBlock: FUNLAD_clean_sbu_0, # of connection points: 6
#     Node 12, Type 0, BuildingBlock: FUNLAD_clean_sbu_0, # of connection points: 6
#     Node 13, Type 0, BuildingBlock: FUNLAD_clean_sbu_0, # of connection points: 6
#     Node 14, Type 0, BuildingBlock: FUNLAD_clean_sbu_0, # of connection points: 6
#     Node 15, Type 0, BuildingBlock: FUNLAD_clean_sbu_0, # of connection points: 6
#     Node 16, Type 0, BuildingBlock: FUNLAD_clean_sbu_0, # of connection points: 6
#     Node 17, Type 0, BuildingBlock: FUNLAD_clean_sbu_0, # of connection points: 6
#     Edge 18, Type (0, 0), BuildingBlock: AJUNOK_clean_linker_0, # of connection points: 2
#     Edge 19, Type (0, 0), BuildingBlock: AJUNOK_clean_linker_0, # of connection points: 2
#     Edge 20, Type (0, 0), BuildingBlock: AJUNOK_clean_linker_0, # of connection points: 2
#     Edge 21, Type (0, 0), BuildingBlock: AJUNOK_clean_linker_0, # of connection points: 2
#     Edge 22, Type (0, 0), BuildingBlock: AJUNOK_clean_linker_0, # of connection points: 2
#     Edge 23, Type (0, 0), BuildingBlock: AJUNOK_clean_linker_0, # of connection points: 2
#     Edge 24, Type (0, 0), BuildingBlock: AJUNOK_clean_linker_0, # of connection points: 2
#     Edge 25, Type (0, 0), BuildingBlock: AJUNOK_clean_linker_0, # of connection points: 2
#     Edge 26, Type (0, 0), BuildingBlock: AJUNOK_clean_linker_0, # of connection points: 2
#     Edge 27, Type (0, 0), BuildingBlock: AJUNOK_clean_linker_0, # of connection points: 2
#     Edge 28, Type (0, 0), BuildingBlock: AJUNOK_clean_linker_0, # of connection points: 2
#     Edge 29, Type (0, 0), BuildingBlock: AJUNOK_clean_linker_0, # of connection points: 2
#     Edge 30, Type (0, 0), BuildingBlock: AJUNOK_clean_linker_0, # of connection points: 2
#     Edge 31, Type (0, 0), BuildingBlock: AJUNOK_clean_linker_0, # of connection points: 2
#     Edge 32, Type (0, 0), BuildingBlock: AJUNOK_clean_linker_0, # of connection points: 2
#     Edge 33, Type (0, 0), BuildingBlock: AJUNOK_clean_linker_0, # of connection points: 2
#     Edge 34, Type (0, 0), BuildingBlock: AJUNOK_clean_linker_0, # of connection points: 2
#     Edge 35, Type (0, 0), BuildingBlock: AJUNOK_clean_linker_0, # of connection points: 2
#     Edge 36, Type (0, 0), BuildingBlock: AJUNOK_clean_linker_0, # of connection points: 2
#     Edge 37, Type (0, 0), BuildingBlock: AJUNOK_clean_linker_0, # of connection points: 2
#     Edge 38, Type (0, 0), BuildingBlock: AJUNOK_clean_linker_0, # of connection points: 2
#     Edge 39, Type (0, 0), BuildingBlock: AJUNOK_clean_linker_0, # of connection points: 2
#     Edge 40, Type (0, 0), BuildingBlock: AJUNOK_clean_linker_0, # of connection points: 2
#     Edge 41, Type (0, 0), BuildingBlock: AJUNOK_clean_linker_0, # of connection points: 2
#     Edge 42, Type (0, 0), BuildingBlock: AJUNOK_clean_linker_0, # of connection points: 2
#     Edge 43, Type (0, 0), BuildingBlock: AJUNOK_clean_linker_0, # of connection points: 2
#     Edge 44, Type (0, 0), BuildingBlock: AJUNOK_clean_linker_0, # of connection points: 2
#     Edge 45, Type (0, 0), BuildingBlock: AJUNOK_clean_linker_0, # of connection points: 2
#     Edge 46, Type (0, 0), BuildingBlock: AJUNOK_clean_linker_0, # of connection points: 2
#     Edge 47, Type (0, 0), BuildingBlock: AJUNOK_clean_linker_0, # of connection points: 2
#     Edge 48, Type (0, 0), BuildingBlock: AJUNOK_clean_linker_0, # of connection points: 2
#     Edge 49, Type (0, 0), BuildingBlock: AJUNOK_clean_linker_0, # of connection points: 2
#     Edge 50, Type (0, 0), BuildingBlock: AJUNOK_clean_linker_0, # of connection points: 2
#     Edge 51, Type (0, 0), BuildingBlock: AJUNOK_clean_linker_0, # of connection points: 2
#     Edge 52, Type (0, 0), BuildingBlock: AJUNOK_clean_linker_0, # of connection points: 2
#     Edge 53, Type (0, 0), BuildingBlock: AJUNOK_clean_linker_0, # of connection points: 2
#     Edge 54, Type (0, 0), BuildingBlock: AJUNOK_clean_linker_0, # of connection points: 2
#     Edge 55, Type (0, 0), BuildingBlock: AJUNOK_clean_linker_0, # of connection points: 2
#     Edge 56, Type (0, 0), BuildingBlock: AJUNOK_clean_linker_0, # of connection points: 2
#     Edge 57, Type (0, 0), BuildingBlock: AJUNOK_clean_linker_0, # of connection points: 2
#     Edge 58, Type (0, 0), BuildingBlock: AJUNOK_clean_linker_0, # of connection points: 2
#     Edge 59, Type (0, 0), BuildingBlock: AJUNOK_clean_linker_0, # of connection points: 2
#     Edge 60, Type (0, 0), BuildingBlock: AJUNOK_clean_linker_0, # of connection points: 2
#     Edge 61, Type (0, 0), BuildingBlock: AJUNOK_clean_linker_0, # of connection points: 2
#     Edge 62, Type (0, 0), BuildingBlock: AJUNOK_clean_linker_0, # of connection points: 2
#     Edge 63, Type (0, 0), BuildingBlock: AJUNOK_clean_linker_0, # of connection points: 2
#     Edge 64, Type (0, 0), BuildingBlock: AJUNOK_clean_linker_0, # of connection points: 2
#     Edge 65, Type (0, 0), BuildingBlock: AJUNOK_clean_linker_0, # of connection points: 2
#     Edge 66, Type (0, 0), BuildingBlock: AJUNOK_clean_linker_0, # of connection points: 2
#     Edge 67, Type (0, 0), BuildingBlock: AJUNOK_clean_linker_0, # of connection points: 2
#     Edge 68, Type (0, 0), BuildingBlock: AJUNOK_clean_linker_0, # of connection points: 2
#     Edge 69, Type (0, 0), BuildingBlock: AJUNOK_clean_linker_0, # of connection points: 2
#     Edge 70, Type (0, 0), BuildingBlock: AJUNOK_clean_linker_0, # of connection points: 2
#     Edge 71, Type (0, 0), BuildingBlock: AJUNOK_clean_linker_0, # of connection points: 2
# Relax obj value: 0.302
# Max RMSD: 0.207
# Mean RMSD: 0.207
data_MOF--net-smd--node1-FUNLAD_clean_sbu_0--edge1-AJUNOK_clean_linker_0
_symmetry_space_group_name_H-M    P1
_symmetry_Int_Tables_number       1
_symmetry_cell_setting            triclinic
loop_
_symmetry_equiv_pos_as_xyz
'x, y, z'
_cell_length_a     66.463634
_cell_length_b     66.363896
_cell_length_c     11.233208
_cell_angle_alpha  89.926612
_cell_angle_beta   90.073013
_cell_angle_gamma 120.05368
loop_
_atom_site_label
_atom_site_type_symbol
_atom_site_fract_x
_atom_site_fract_y
_atom_site_fract_z
_atom_type_partial_charge
C0 C 0.04482 0.26121 0.18185 0.0
N1 N 0.08738 0.24863 0.41363 0.0
C2 C 0.10275 0.25751 0.32176 0.0
C3 C 0.12299 0.25612 0.32248 0.0
C4 C 0.12777 0.2459 0.41968 0.0
C5 C 0.11083 0.23522 0.50873 0.0
C6 C 0.09059 0.23678 0.5039 0.0
Zn7 Zn 0.063 0.25905 0.42533 0.0
C8 C 0.08575 0.31002 0.37836 0.0
N9 N 0.01483 0.28446 0.45046 0.0
C10 C 0.99121 0.27077 0.44631 0.0
C11 C 0.02479 0.30603 0.5008 0.0
C12 C 1.01126 0.31405 0.55395 0.0
C13 C 0.98711 0.2996 0.5605 0.0
C14 C 0.97691 0.27805 0.50128 0.0
Zn15 Zn 0.03738 0.27165 0.42336 0.0
O16 O 0.05803 0.25622 0.24115 0.0
C17 C 0.01414 0.22017 0.4583 0.0
O18 O 0.03219 0.2677 0.23638 0.0
H19 H 0.04339 0.31665 0.5085 0.0
H20 H 0.10018 0.2671 0.25134 0.0
H21 H 0.98343 0.25362 0.40711 0.0
O22 O 0.03485 0.22389 0.4479 0.0
O23 O 1.0106 0.23727 0.45237 0.0
H24 H 0.07819 0.22981 0.57608 0.0
O25 O 0.04296 0.27544 0.60961 0.0
O26 O 0.06711 0.26213 0.6107 0.0
O27 O 0.06484 0.30527 0.38714 0.0
O28 O 0.09081 0.29427 0.39911 0.0
C29 C 0.05544 0.26933 0.66734 0.0
H30 H 0.13542 0.26414 0.25086 0.0
H31 H 0.11388 0.22709 0.58496 0.0
H32 H 0.01983 0.33115 0.59466 0.0
H33 H 0.95826 0.2665 0.50275 0.0
C34 C 0.84437 0.83081 0.25446 0.0
N35 N 0.85439 0.88465 0.49042 0.0
C36 C 0.87115 0.90067 0.41734 0.0
C37 C 0.87404 0.92306 0.4063 0.0
C38 C 0.85943 0.92868 0.47064 0.0
C39 C 0.84304 0.91217 0.54856 0.0
C40 C 0.84079 0.89022 0.55714 0.0
Zn41 Zn 0.84552 0.85019 0.49629 0.0
C42 C 0.79485 0.81951 0.44793 0.0
N43 N 0.82358 0.77741 0.51672 0.0
C44 C 0.83542 0.76657 0.48157 0.0
C45 C 0.80359 0.76575 0.58102 0.0
C46 C 0.79468 0.74255 0.6117 0.0
C47 C 0.8064 0.73097 0.5772 0.0
C48 C 0.82702 0.74307 0.51115 0.0
Zn49 Zn 0.835 0.81249 0.4972 0.0
O50 O 0.84854 0.84919 0.3103 0.0
C51 C 0.88589 0.84238 0.53045 0.0
O52 O 0.83928 0.81235 0.31244 0.0
H53 H 0.79464 0.77459 0.61171 0.0
H54 H 0.88166 0.89584 0.36437 0.0
H55 H 0.85148 0.77618 0.43242 0.0
O56 O 0.88125 0.85876 0.51844 0.0
O57 O 0.8695 0.82133 0.52583 0.0
H58 H 0.82743 0.87726 0.61377 0.0
O59 O 0.83096 0.81321 0.68035 0.0
O60 O 0.84236 0.85028 0.68485 0.0
O61 O 0.80087 0.80433 0.46224 0.0
O62 O 0.80961 0.84079 0.46688 0.0
C63 C 0.83594 0.83128 0.73974 0.0
H64 H 0.88674 0.93542 0.34457 0.0
H65 H 0.83144 0.91595 0.5991 0.0
H66 H 0.77872 0.73368 0.66272 0.0
H67 H 0.83639 0.73447 0.48268 0.0
C68 C 0.26857 0.0558 0.22907 0.0
N69 N 0.2145 0.01199 0.46402 0.0
C70 C 0.19858 0.01223 0.38822 0.0
C71 C 0.17647 0.99239 0.37628 0.0
C72 C 0.17105 0.97235 0.44253 0.0
C73 C 0.1874 0.97299 0.52322 0.0
C74 C 0.20906 0.99301 0.53261 0.0
Zn75 Zn 0.2488 0.03776 0.47121 0.0
C76 C 0.27965 0.01815 0.43121 0.0
N77 N 0.32149 0.0889 0.49432 0.0
C78 C 0.33363 0.11141 0.45584 0.0
C79 C 0.33198 0.07987 0.56318 0.0
C80 C 0.35522 0.09311 0.59444 0.0
C81 C 0.3682 0.11612 0.55576 0.0
C82 C 0.35729 0.12551 0.48604 0.0
Zn83 Zn 0.28625 0.06567 0.47176 0.0
O84 O 0.25027 0.04152 0.28517 0.0
C85 C 0.2562 0.08629 0.49615 0.0
O86 O 0.28696 0.06953 0.28653 0.0
H87 H 0.32224 0.06228 0.59663 0.0
H88 H 0.20332 0.02742 0.33374 0.0
H89 H 0.325 0.11848 0.40294 0.0
O90 O 0.2402 0.06498 0.48834 0.0
O91 O 0.27741 0.09146 0.49369 0.0
H92 H 0.22193 0.99296 0.59127 0.0
O93 O 0.28487 0.06138 0.65568 0.0
O94 O 0.24816 0.03473 0.65972 0.0
O95 O 0.29428 0.03957 0.44303 0.0
O96 O 0.25825 0.01118 0.44739 0.0
C97 C 0.26697 0.04778 0.71472 0.0
H98 H 0.1642 0.99232 0.31251 0.0
H99 H 0.18375 0.95778 0.57533 0.0
H100 H 0.36304 0.08537 0.64898 0.0
H101 H 0.36695 0.14331 0.45457 0.0
C102 C 0.05069 0.83016 0.22997 0.0
N103 N 0.09217 0.81642 0.44999 0.0
C104 C 0.08252 0.79351 0.4195 0.0
C105 C 0.09593 0.78486 0.3714 0.0
C106 C 0.11958 0.79982 0.34953 0.0
C107 C 0.12973 0.82298 0.38879 0.0
C108 C 0.11562 0.83098 0.43913 0.0
Zn109 Zn 0.06889 0.8289 0.47239 0.0
C110 C 0.09055 0.87988 0.43622 0.0
N111 N 0.01704 0.84962 0.48017 0.0
C112 C 0.99786 0.83654 0.41219 0.0
C113 C 0.01784 0.86584 0.55741 0.0
C114 C 0.99834 0.86853 0.57214 0.0
C115 C 0.97807 0.85434 0.50682 0.0
C116 C 0.97817 0.83865 0.42407 0.0
Zn117 Zn 0.04203 0.84002 0.47345 0.0
O118 O 0.06356 0.82443 0.28678 0.0
C119 C 0.02091 0.78956 0.52329 0.0
O120 O 0.03868 0.83684 0.28749 0.0
H121 H 0.03317 0.87592 0.61141 0.0
H122 H 0.06409 0.78178 0.42384 0.0
H123 H 0.99732 0.82349 0.35272 0.0
O124 O 0.04206 0.79548 0.51028 0.0
O125 O 0.01467 0.80445 0.50305 0.0
H126 H 0.12332 0.84913 0.46266 0.0
O127 O 0.04636 0.84311 0.65707 0.0
O128 O 0.0737 0.83357 0.6599 0.0
O129 O 0.06968 0.87551 0.45003 0.0
O130 O 0.09491 0.86331 0.441 0.0
C131 C 0.06039 0.83911 0.71535 0.0
H132 H 0.08751 0.76667 0.34608 0.0
H133 H 0.14807 0.83503 0.37507 0.0
H134 H 0.99868 0.88066 0.63763 0.0
H135 H 0.96273 0.82735 0.37287 0.0
C136 C 0.26758 0.26202 0.26378 0.0
N137 N 0.28635 0.31862 0.47939 0.0
C138 C 0.30711 0.3292 0.42098 0.0
C139 C 0.31662 0.35188 0.37892 0.0
C140 C 0.3044 0.36389 0.39159 0.0
C141 C 0.28344 0.3531 0.4562 0.0
C142 C 0.27468 0.33032 0.49967 0.0
Zn143 Zn 0.27195 0.28293 0.50568 0.0
C144 C 0.22004 0.25691 0.47915 0.0
N145 N 0.24468 0.20883 0.52248 0.0
C146 C 0.23351 0.1937 0.4315 0.0
C147 C 0.25211 0.20207 0.61963 0.0
C148 C 0.24976 0.18005 0.62486 0.0
C149 C 0.24008 0.16478 0.52838 0.0
C150 C 0.23107 0.17143 0.4325 0.0
Zn151 Zn 0.25673 0.2441 0.50766 0.0
O152 O 0.27386 0.28051 0.32228 0.0
C153 C 0.30832 0.27003 0.53975 0.0
O154 O 0.25965 0.24279 0.31908 0.0
H155 H 0.26147 0.21428 0.69009 0.0
H156 H 0.31603 0.31981 0.40087 0.0
H157 H 0.22787 0.19935 0.3545 0.0
O158 O 0.30528 0.2873 0.52805 0.0
O159 O 0.29107 0.24954 0.53324 0.0
H160 H 0.2581 0.32171 0.54489 0.0
O161 O 0.25425 0.24682 0.69318 0.0
O162 O 0.27004 0.28493 0.69189 0.0
O163 O 0.22256 0.23911 0.4857 0.0
O164 O 0.23789 0.27715 0.48617 0.0
C165 C 0.26183 0.26587 0.74944 0.0
H166 H 0.33326 0.3597 0.334 0.0
H167 H 0.27353 0.36182 0.46921 0.0
H168 H 0.25684 0.17555 0.70063 0.0
H169 H 0.22373 0.16026 0.35557 0.0
C170 C 0.83999 0.05052 0.25169 0.0
N171 N 0.78522 1.00881 0.46975 0.0
C172 C 0.77438 0.01791 0.40431 0.0
C173 C 0.75134 1.00422 0.37 0.0
C174 C 0.73906 0.98073 0.40176 0.0
C175 C 0.75036 0.97137 0.46832 0.0
C176 C 0.77373 0.9859 0.50184 0.0
Zn177 Zn 0.8203 0.03191 0.49466 0.0
C178 C 0.84958 0.0104 0.46122 0.0
N179 N 0.89262 0.0845 0.50781 0.0
C180 C 0.90781 0.08905 0.41657 0.0
C181 C 0.89869 0.09907 0.60312 0.0
C182 C 0.92002 0.11971 0.60588 0.0
C183 C 0.93513 0.12586 0.50833 0.0
C184 C 0.92931 0.1098 0.415 0.0
Zn185 Zn 0.85806 0.05903 0.4949 0.0
O186 O 0.82205 0.03706 0.31104 0.0
C187 C 0.82776 0.07949 0.5393 0.0
O188 O 0.85894 0.0633 0.30648 0.0
H189 H 0.88643 0.09555 0.6742 0.0
H190 H 0.78374 0.03582 0.37531 0.0
H191 H 0.90275 0.07733 0.34144 0.0
O192 O 0.81269 0.05821 0.52667 0.0
O193 O 0.84907 0.08596 0.52264 0.0
H194 H 0.78272 0.97882 0.55161 0.0
O195 O 0.85604 0.05387 0.68095 0.0
O196 O 0.81899 0.02707 0.68009 0.0
O197 O 0.86616 0.03141 0.47179 0.0
O198 O 0.82866 1.00596 0.46801 0.0
C199 C 0.83761 0.04014 0.73749 0.0
H200 H 0.74316 0.01194 0.31814 0.0
H201 H 0.74124 0.95323 0.49445 0.0
H202 H 0.92409 0.13139 0.68082 0.0
H203 H 0.94055 0.1139 0.33827 0.0
C204 C 0.71103 0.58913 0.55679 0.0
N205 N 0.7534 0.57618 0.78829 0.0
C206 C 0.76928 0.58578 0.69896 0.0
C207 C 0.78914 0.58369 0.69853 0.0
C208 C 0.79273 0.57163 0.79076 0.0
C209 C 0.77549 0.56059 0.87782 0.0
C210 C 0.75574 0.56308 0.87483 0.0
Zn211 Zn 0.72896 0.58655 0.80004 0.0
C212 C 0.75116 0.63781 0.75671 0.0
N213 N 0.6804 0.6112 0.821 0.0
C214 C 0.6577 0.59975 0.78598 0.0
C215 C 0.68911 0.63102 0.88725 0.0
C216 C 0.67505 0.63999 0.92121 0.0
C217 C 0.65167 0.62852 0.88771 0.0
C218 C 0.64287 0.60823 0.81855 0.0
Zn219 Zn 0.70309 0.59874 0.7987 0.0
O220 O 0.72434 0.58388 0.61364 0.0
C221 C 0.68002 0.54737 0.83109 0.0
O222 O 0.69836 0.59517 0.61389 0.0
H223 H 0.70694 0.63967 0.91729 0.0
H224 H 0.76738 0.59638 0.6318 0.0
H225 H 0.65097 0.58385 0.73499 0.0
O226 O 0.70077 0.55117 0.82147 0.0
O227 O 0.67638 0.56443 0.82543 0.0
H228 H 0.74303 0.55573 0.9455 0.0
O229 O 0.70816 0.60214 -0.01775 0.0
O230 O 0.73287 0.58953 -0.0119 0.0
O231 O 0.73013 0.63267 0.76646 0.0
O232 O 0.75656 0.6222 0.77471 0.0
C233 C 0.72082 0.59665 0.04224 0.0
H234 H 0.80231 0.5927 0.63107 0.0
H235 H 0.77798 0.55149 0.95133 0.0
H236 H 0.68235 0.65574 0.97423 0.0
H237 H 0.62486 0.5991 0.79058 0.0
C238 C 0.51051 0.16451 0.54095 0.0
N239 N 0.52022 0.21913 0.77073 0.0
C240 C 0.51196 0.2251 0.67406 0.0
C241 C 0.51332 0.24673 0.66823 0.0
C242 C 0.52257 0.26221 0.76438 0.0
C243 C 0.53234 0.25634 0.85976 0.0
C244 C 0.53103 0.23457 0.86101 0.0
Zn245 Zn 0.51231 0.18486 0.78358 0.0
C246 C 0.46105 0.15262 0.74242 0.0
N247 N 0.49294 0.11261 0.80838 0.0
C248 C 0.50473 0.10839 0.89535 0.0
C249 C 0.47323 0.09484 0.75986 0.0
C250 C 0.46379 0.07221 0.80519 0.0
C251 C 0.47494 0.06788 0.89979 0.0
C252 C 0.49603 0.08604 0.94211 0.0
Zn253 Zn 0.50185 0.14706 0.78363 0.0
O254 O 0.51555 0.18305 0.59741 0.0
C255 C 0.5533 0.17878 0.81293 0.0
O256 O 0.50479 0.14586 0.59843 0.0
H257 H 0.46392 0.09843 0.6919 0.0
H258 H 0.5032 0.21269 0.60347 0.0
H259 H 0.51994 0.12265 0.93587 0.0
O260 O 0.54835 0.19499 0.80676 0.0
O261 O 0.53708 0.15774 0.80447 0.0
H262 H 0.53762 0.22963 0.93694 0.0
O263 O 0.49872 0.14858 0.96698 0.0
O264 O 0.50874 0.18537 0.97173 0.0
O265 O 0.46698 0.13736 0.7579 0.0
O266 O 0.47609 0.17405 0.75557 0.0
C267 C 0.5029 0.16644 0.02637 0.0
H268 H 0.50607 0.25081 0.59168 0.0
H269 H 0.53969 0.26784 0.93554 0.0
H270 H 0.44728 0.05852 0.77154 0.0
H271 H 0.50482 0.08334 0.01647 0.0
C272 C 0.93826 0.38703 0.57225 0.0
N273 N 0.88308 0.34671 0.80736 0.0
C274 C 0.86762 0.34687 0.72795 0.0
C275 C 0.84533 0.32724 0.71609 0.0
C276 C 0.83921 0.30745 0.78617 0.0
C277 C 0.85508 0.3083 0.87085 0.0
C278 C 0.87694 0.32807 0.87984 0.0
Zn279 Zn 0.91788 0.3715 0.81291 0.0
C280 C 0.94648 0.34806 0.78779 0.0
N281 N 0.9915 0.41928 0.83624 0.0
C282 C 1.00316 0.44161 0.79482 0.0
C283 C 1.00231 0.41104 0.90811 0.0
C284 C 0.02543 0.42506 0.94035 0.0
C285 C 0.03785 0.44802 0.89961 0.0
C286 C 0.02659 0.45646 0.82601 0.0
Zn287 Zn 0.95623 0.39649 0.81623 0.0
O288 O 0.91924 0.37475 0.62763 0.0
C289 C 0.92849 0.42073 0.83032 0.0
O290 O 0.9571 0.39881 0.63033 0.0
H291 H 0.99285 0.39362 0.94392 0.0
H292 H 0.87291 0.36173 0.67009 0.0
H293 H 0.99426 0.44801 0.73935 0.0
O294 O 0.91111 0.40003 0.82763 0.0
O295 O 0.94893 0.42368 0.82742 0.0
H296 H 0.88944 0.32795 0.94092 0.0
O297 O 0.95476 0.3938 -0.00057 0.0
O298 O 0.91748 0.36898 0.00196 0.0
O299 O 0.96283 0.36882 0.80119 0.0
O300 O 0.92557 0.34369 0.79102 0.0
C301 C 0.93644 0.38111 0.05761 0.0
H302 H 0.83353 0.32708 0.64902 0.0
H303 H 0.85095 0.29335 0.92643 0.0
H304 H 0.03357 0.41804 -0.00236 0.0
H305 H 0.03582 0.47414 0.79258 0.0
C306 C 0.71866 0.16577 0.54841 0.0
N307 N 0.75946 0.15211 0.77319 0.0
C308 C 0.75088 0.1326 0.70483 0.0
C309 C 0.76458 0.1231 0.67458 0.0
C310 C 0.7876 0.13358 0.71429 0.0
C311 C 0.79644 0.15388 0.78378 0.0
C312 C 0.78189 0.16296 0.81255 0.0
Zn313 Zn 0.73615 0.16388 0.79164 0.0
C314 C 0.75783 0.21504 0.76334 0.0
N315 N 0.684 0.18389 0.79573 0.0
C316 C 0.66514 0.17052 0.72642 0.0
C317 C 0.68452 0.20049 0.86911 0.0
C318 C 0.66504 0.20342 0.87778 0.0
C319 C 0.64508 0.18903 0.81053 0.0
C320 C 0.64553 0.17286 0.73224 0.0
Zn321 Zn 0.70929 0.17471 0.79139 0.0
O322 O 0.73197 0.16065 0.60507 0.0
C323 C 0.68849 0.1237 0.83522 0.0
O324 O 0.70622 0.17187 0.60597 0.0
H325 H 0.69963 0.21083 0.92407 0.0
H326 H 0.73333 0.12445 0.67086 0.0
H327 H 0.66484 0.15725 0.66962 0.0
O328 O 0.70965 0.12953 0.82256 0.0
O329 O 0.68238 0.13882 0.81847 0.0
H330 H 0.78858 0.1787 0.86488 0.0
O331 O 0.71295 0.17753 0.97468 0.0
O332 O 0.7399 0.16751 -0.02094 0.0
O333 O 0.73678 0.21041 0.77129 0.0
O334 O 0.76226 0.19849 0.76774 0.0
C335 C 0.7266 0.17313 0.03372 0.0
H336 H 0.7572 0.1076 0.61964 0.0
H337 H 0.81415 0.16239 0.81636 0.0
H338 H 0.66518 0.21595 0.93993 0.0
H339 H 0.63045 0.16149 0.67892 0.0
C340 C 0.93457 0.59667 0.59132 0.0
N341 N 0.94951 0.65223 0.80652 0.0
C342 C 0.96781 0.66213 0.72974 0.0
C343 C 0.97686 0.68488 0.6918 0.0
C344 C 0.96724 0.6981 0.73245 0.0
C345 C 0.94819 0.68777 0.81073 0.0
C346 C 0.93949 0.66451 0.8471 0.0
Zn347 Zn 0.93818 0.61733 0.83473 0.0
C348 C 0.88697 0.58749 0.82226 0.0
N349 N 0.91899 0.54516 0.84929 0.0
C350 C 0.90589 0.52884 0.76621 0.0
C351 C 0.92961 0.5401 0.93871 0.0
C352 C 0.92844 0.51856 0.94321 0.0
C353 C 0.91648 0.50203 0.85411 0.0
C354 C 0.90434 0.50695 0.76715 0.0
Zn355 Zn 0.92778 0.5796 0.8337 0.0
O356 O 0.93854 0.61438 0.65118 0.0
C357 C 0.97935 0.6108 0.85567 0.0
O358 O 0.92946 0.57788 0.64538 0.0
H359 H 0.9402 0.55326 0.00323 0.0
H360 H 0.97528 0.65223 0.69449 0.0
H361 H 0.89766 0.53319 0.69549 0.0
O362 O 0.97283 0.62568 0.84861 0.0
O363 O 0.96413 0.58929 0.8502 0.0
H364 H 0.92472 0.6563 0.90644 0.0
O365 O 0.92631 0.58224 0.01936 0.0
O366 O 0.93742 0.61954 0.01995 0.0
O367 O 0.89171 0.57105 0.82131 0.0
O368 O 0.90348 0.60849 0.82558 0.0
C369 C 0.93162 0.60077 0.07647 0.0
H370 H 0.9914 0.69214 0.63044 0.0
H371 H 0.94041 0.69759 0.84425 0.0
H372 H 0.93786 0.5153 0.01225 0.0
H373 H 0.89499 0.4946 0.69677 0.0
C374 C 0.49916 0.38162 0.584 0.0
N375 N 0.44495 0.34073 0.80486 0.0
C376 C 0.43347 0.34893 0.73793 0.0
C377 C 0.41125 0.33407 0.69572 0.0
C378 C 0.40055 0.3102 0.71911 0.0
C379 C 0.41206 0.30202 0.79289 0.0
C380 C 0.43454 0.31774 0.83477 0.0
Zn381 Zn 0.47984 0.36462 0.82635 0.0
C382 C 0.50926 0.34263 0.80128 0.0
N383 N 0.55217 0.41697 0.83236 0.0
C384 C 0.55719 0.43567 0.76243 0.0
C385 C 0.56869 0.41692 0.90424 0.0
C386 C 0.5911 0.43659 0.90974 0.0
C387 C 0.59626 0.45634 0.84115 0.0
C388 C 0.5791 0.45548 0.76532 0.0
Zn389 Zn 0.51774 0.3911 0.82829 0.0
O390 O 0.48092 0.36852 0.64209 0.0
C391 C 0.48677 0.41184 0.86234 0.0
O392 O 0.51804 0.39393 0.63982 0.0
H393 H 0.56432 0.40196 0.95986 0.0
H394 H 0.44197 0.36691 0.71049 0.0
H395 H 0.54391 0.4356 0.70662 0.0
O396 O 0.47162 0.3906 0.85102 0.0
O397 O 0.50812 0.41781 0.85247 0.0
H398 H 0.44399 0.3114 0.88631 0.0
O399 O 0.51665 0.38757 0.01423 0.0
O400 O 0.47934 0.36119 0.01199 0.0
O401 O 0.52615 0.36354 0.80964 0.0
O402 O 0.48857 0.33887 0.80615 0.0
C403 C 0.49796 0.37409 0.06984 0.0
H404 H 0.40275 0.34119 0.64188 0.0
H405 H 0.40416 0.28368 0.81388 0.0
H406 H 0.60388 0.43672 0.97011 0.0
H407 H 0.58244 0.4703 0.71065 0.0
C408 C 0.38324 0.92939 0.91783 0.0
N409 N 0.42582 0.91754 0.15241 0.0
C410 C 0.42533 0.90121 0.07702 0.0
C411 C 0.44495 0.8986 0.06522 0.0
C412 C 0.46506 0.91306 0.13112 0.0
C413 C 0.46469 0.92899 0.21131 0.0
C414 C 0.44487 0.93095 0.22064 0.0
Zn415 Zn 0.40022 0.92633 0.15936 0.0
C416 C 0.42102 0.97809 0.12827 0.0
N417 N 0.34996 0.9487 0.18248 0.0
C418 C 0.32759 0.93779 0.1421 0.0
C419 C 0.35812 0.96767 0.25458 0.0
C420 C 0.34405 0.97656 0.2878 0.0
C421 C 0.32112 0.96602 0.24705 0.0
C422 C 0.31269 0.94628 0.17366 0.0
Zn423 Zn 0.37355 0.93743 0.16098 0.0
O424 O 0.39667 0.92419 0.97384 0.0
C425 C 0.35167 0.88605 0.18307 0.0
O426 O 0.37036 0.93512 0.97534 0.0
H427 H 0.37557 0.97582 0.28972 0.0
H428 H 0.4101 0.89086 0.0228 0.0
H429 H 0.32124 0.92245 0.08689 0.0
O430 O 0.37264 0.89032 0.17604 0.0
O431 O 0.34759 0.90281 0.17839 0.0
H432 H 0.44511 0.94399 0.27909 0.0
O433 O 0.37712 0.93944 0.34452 0.0
O434 O 0.40316 0.92861 0.34816 0.0
O435 O 0.39981 0.97203 0.13959 0.0
O436 O 0.42693 0.96262 0.13633 0.0
C437 C 0.39041 0.93469 0.40332 0.0
H438 H 0.44479 0.88624 0.00182 0.0
H439 H 0.47996 0.94044 0.26319 0.0
H440 H 0.3511 0.99163 0.34573 0.0
H441 H 0.29503 0.93777 0.14029 0.0
C442 C 0.18041 0.50252 0.88359 0.0
N443 N 0.19035 0.55585 0.12063 0.0
C444 C 0.20721 0.57204 0.04861 0.0
C445 C 0.21012 0.59445 0.03888 0.0
C446 C 0.19548 0.59994 0.10376 0.0
C447 C 0.17893 0.58324 0.18036 0.0
C448 C 0.17663 0.56125 0.18743 0.0
Zn449 Zn 0.18186 0.52151 0.12651 0.0
C450 C 0.13123 0.48996 0.08709 0.0
N451 N 0.16145 0.44921 0.14462 0.0
C452 C 0.17133 0.4375 0.09485 0.0
C453 C 0.14312 0.43828 0.22072 0.0
C454 C 0.13402 0.41501 0.24969 0.0
C455 C 0.1437 0.40253 0.2002 0.0
C456 C 0.16254 0.41381 0.12142 0.0
Zn457 Zn 0.17258 0.48415 0.12513 0.0
O458 O 0.18499 0.52065 0.94264 0.0
C459 C 0.22325 0.51465 0.14723 0.0
O460 O 0.1746 0.48351 0.93806 0.0
H461 H 0.13547 0.44767 0.26066 0.0
H462 H 0.21783 0.56735 -0.00429 0.0
H463 H 0.18598 0.44649 0.03532 0.0
O464 O 0.21777 0.53055 0.14853 0.0
O465 O 0.2075 0.4934 0.13835 0.0
H466 H 0.16319 0.54818 0.24327 0.0
O467 O 0.17108 0.48573 0.31235 0.0
O468 O 0.17872 0.52179 0.31152 0.0
O469 O 0.13789 0.47535 0.10394 0.0
O470 O 0.14579 0.51153 0.09826 0.0
C471 C 0.17458 0.50369 0.36894 0.0
H472 H 0.2229 0.60695 -0.0221 0.0
H473 H 0.16727 0.58691 0.23098 0.0
H474 H 0.11934 0.4067 0.30985 0.0
H475 H 0.1702 0.40443 0.08082 0.0
C476 C 0.60632 0.72398 0.87494 0.0
N477 N 0.55104 0.68259 0.10676 0.0
C478 C 0.54413 0.66665 0.01736 0.0
C479 C 0.52211 0.64686 0.01934 0.0
C480 C 0.50711 0.64322 0.11493 0.0
C481 C 0.51382 0.66075 0.20096 0.0
C482 C 0.53606 0.68049 0.19511 0.0
Zn483 Zn 0.58605 0.70644 0.11779 0.0
C484 C 0.61404 0.68317 0.07588 0.0
N485 N 0.65956 0.75391 0.14224 0.0
C486 C 0.6712 0.77714 0.11663 0.0
C487 C 0.67003 0.74419 0.20579 0.0
C488 C 0.69278 0.75759 0.24529 0.0
C489 C 0.7051 0.78146 0.22153 0.0
C490 C 0.6942 0.7914 0.15625 0.0
Zn491 Zn 0.62429 0.73176 0.11705 0.0
O492 O 0.588 0.71116 0.93412 0.0
C493 C 0.597 0.75581 0.14657 0.0
O494 O 0.62554 0.73625 0.92956 0.0
H495 H 0.66047 0.72606 0.23088 0.0
H496 H 0.55624 0.66841 0.94844 0.0
H497 H 0.66249 0.78474 0.0687 0.0
O498 O 0.57974 0.73514 0.13889 0.0
O499 O 0.61749 0.759 0.14086 0.0
H500 H 0.54185 0.69333 0.26535 0.0
O501 O 0.62234 0.72688 0.30332 0.0
O502 O 0.58495 0.70236 0.30326 0.0
O503 O 0.63027 0.70407 0.0864 0.0
O504 O 0.59313 0.67823 0.09195 0.0
C505 C 0.60375 0.71424 0.36042 0.0
H506 H 0.51745 0.63372 0.95114 0.0
H507 H 0.50269 0.65844 0.27625 0.0
H508 H 0.70059 0.74941 0.29642 0.0
H509 H 0.70332 0.80985 0.13642 0.0
C510 C 0.38839 0.50211 0.95457 0.0
N511 N 0.42855 0.48783 0.17956 0.0
C512 C 0.44592 0.49957 0.09888 0.0
C513 C 0.45893 0.48989 0.05597 0.0
C514 C 0.45374 0.46779 0.09501 0.0
C515 C 0.43702 0.4568 0.18478 0.0
C516 C 0.42462 0.46726 0.22666 0.0
Zn517 Zn 0.40415 0.49819 0.19631 0.0
C518 C 0.427 0.55019 0.1798 0.0
N519 N 0.35363 0.52036 0.20263 0.0
C520 C 0.35239 0.53353 0.11292 0.0
C521 C 0.33703 0.51129 0.28895 0.0
C522 C 0.3178 0.51449 0.28432 0.0
C523 C 0.31542 0.52674 0.1888 0.0
C524 C 0.33321 0.53678 0.10369 0.0
Zn525 Zn 0.37856 0.51059 0.19786 0.0
O526 O 0.40232 0.49775 0.01052 0.0
C527 C 0.35653 0.45841 0.21956 0.0
O528 O 0.37514 0.50713 0.01256 0.0
H529 H 0.33808 0.50058 0.35847 0.0
H530 H 0.44846 0.51555 0.05966 0.0
H531 H 0.36573 0.54063 0.04523 0.0
O532 O 0.37736 0.46332 0.20227 0.0
O533 O 0.35171 0.4747 0.22295 0.0
H534 H 0.41068 0.45808 0.28988 0.0
O535 O 0.38241 0.5137 0.3805 0.0
O536 O 0.40538 0.49874 0.38469 0.0
O537 O 0.40617 0.54632 0.1768 0.0
O538 O 0.43037 0.53309 0.19141 0.0
C539 C 0.39391 0.50655 0.43944 0.0
H540 H 0.47151 0.49868 -0.01427 0.0
H541 H 0.43257 0.43964 0.21649 0.0
H542 H 0.30424 0.50627 0.35068 0.0
H543 H 0.33185 0.54628 0.02857 0.0
C544 C 0.60649 0.93256 0.91514 0.0
N545 N 0.61991 0.98755 0.13146 0.0
C546 C 0.64047 0.99879 0.07148 0.0
C547 C 0.64931 0.02152 0.03209 0.0
C548 C 0.63685 0.03301 0.0523 0.0
C549 C 0.61565 0.02133 0.11389 0.0
C550 C 0.60743 0.99837 0.15336 0.0
Zn551 Zn 0.60782 0.95241 0.15835 0.0
C552 C 0.55673 0.92326 0.12234 0.0
N553 N 0.58677 0.8797 0.17235 0.0
C554 C 0.57589 0.86424 0.0822 0.0
C555 C 0.59495 0.87366 0.2692 0.0
C556 C 0.59357 0.85204 0.27506 0.0
C557 C 0.58427 0.83657 0.17906 0.0
C558 C 0.57446 0.84242 0.08376 0.0
Zn559 Zn 0.59634 0.91441 0.15763 0.0
O560 O 0.61167 0.95061 0.97534 0.0
C561 C 0.64717 0.94405 0.20572 0.0
O562 O 0.59962 0.91337 0.96923 0.0
H563 H 0.60391 0.88611 0.33937 0.0
H564 H 0.64979 0.98986 0.04927 0.0
H565 H 0.56951 0.86929 0.00579 0.0
O566 O 0.64171 0.9597 0.19447 0.0
O567 O 0.63197 0.92295 0.18581 0.0
H568 H 0.59085 0.98905 0.19835 0.0
O569 O 0.59333 0.91672 0.34374 0.0
O570 O 0.60385 0.95385 0.34322 0.0
O571 O 0.56085 0.90653 0.13419 0.0
O572 O 0.57345 0.94414 0.12845 0.0
C573 C 0.59812 0.93516 0.40052 0.0
H574 H 0.66563 0.02999 -0.016 0.0
H575 H 0.60563 0.02981 0.13099 0.0
H576 H 0.60093 0.84799 0.35124 0.0
H577 H 0.56709 0.83089 0.00808 0.0
C578 C 0.17314 0.7186 0.87355 0.0
N579 N 0.11955 0.67684 0.09927 0.0
C580 C 0.11386 0.66038 0.01315 0.0
C581 C 0.09074 0.64612 -0.02147 0.0
C582 C 0.07337 0.64896 0.03243 0.0
C583 C 0.07941 0.66508 0.12547 0.0
C584 C 0.10277 0.67886 0.15826 0.0
Zn585 Zn 0.15409 0.70216 0.11442 0.0
C586 C 0.18507 0.68134 0.0942 0.0
N587 N 0.22618 0.75503 0.12424 0.0
C588 C 0.23173 0.7743 0.05796 0.0
C589 C 0.24207 0.75437 0.19862 0.0
C590 C 0.26424 0.77405 0.21193 0.0
C591 C 0.26981 0.79443 0.14867 0.0
C592 C 0.25349 0.79424 0.06896 0.0
Zn593 Zn 0.19198 0.72885 0.11816 0.0
O594 O 0.15501 0.70507 0.93146 0.0
C595 C 0.16024 0.74907 0.1426 0.0
O596 O 0.19193 0.73152 0.9294 0.0
H597 H 0.23727 0.73894 0.25109 0.0
H598 H 0.12738 0.65938 0.96497 0.0
H599 H 0.21889 0.77459 -8e-05 0.0
O600 O 0.1447 0.72794 0.1281 0.0
O601 O 0.18154 0.75465 0.14105 0.0
H602 H 0.10759 0.69217 0.22543 0.0
O603 O 0.1911 0.72554 0.30366 0.0
O604 O 0.15369 0.69987 0.30046 0.0
O605 O 0.20153 0.70241 0.10046 0.0
O606 O 0.16414 0.67685 0.10089 0.0
C607 C 0.17229 0.71242 0.35888 0.0
H608 H 0.08668 0.63416 0.90488 0.0
H609 H 0.06636 0.66788 0.1676 0.0
H610 H 0.27643 0.77373 0.2749 0.0
H611 H 0.25724 0.80971 0.01896 0.0
C612 C 0.13889 0.36969 0.32951 0.0
C613 C 0.13242 0.37744 0.22741 0.0
C614 C 0.12435 0.34722 0.37588 0.0
C615 C 0.10272 0.33228 0.32294 0.0
H616 H 0.15461 0.3815 0.3773 0.0
H617 H 0.1294 0.34206 0.45698 0.0
S618 S 0.07905 0.34365 0.04785 0.0
N619 N 0.10407 0.36784 0.06991 0.0
N620 N 0.07662 0.32593 0.15726 0.0
C621 C 0.09676 0.33947 0.2174 0.0
C622 C 0.11164 0.36201 0.16958 0.0
C623 C 0.75705 0.81944 0.41877 0.0
C624 C 0.77299 0.81257 0.38269 0.0
C625 C 0.73538 0.8106 0.36085 0.0
C626 C 0.72939 0.79507 0.26429 0.0
H627 H 0.76087 0.83074 0.49514 0.0
H628 H 0.72284 0.81498 0.39531 0.0
S629 S 0.76665 0.775 0.12413 0.0
N630 N 0.78232 0.79154 0.23601 0.0
N631 N 0.74199 0.77533 0.12787 0.0
C632 C 0.74587 0.78949 0.22291 0.0
C633 C 0.7676 0.79817 0.28192 0.0
C634 C 0.30774 0.01375 0.30582 0.0
C635 C 0.28784 1.00309 0.37862 0.0
C636 C 0.31716 1.00106 0.25659 0.0
C637 C 0.30731 0.97714 0.27867 0.0
H638 H 0.3164 0.03226 0.2873 0.0
H639 H 0.33293 0.01027 0.20436 0.0
S640 S 0.254 0.94034 0.45422 0.0
N641 N 0.25737 0.96674 0.46239 0.0
N642 N 0.27571 0.94277 0.37182 0.0
C643 C 0.28673 0.96586 0.34605 0.0
C644 C 0.27685 0.97887 0.39563 0.0
C645 C 0.40172 0.14613 0.67649 0.0
C646 C 0.39323 0.12911 0.5863 0.0
C647 C 0.42408 0.15444 0.72542 0.0
C648 C 0.43822 0.14548 0.68722 0.0
H649 H 0.39063 0.1522 0.71318 0.0
H650 H 0.42988 0.1671 0.79677 0.0
S651 S 0.42501 0.10309 0.44248 0.0
N652 N 0.40151 0.10547 0.45294 0.0
N653 N 0.44312 0.12069 0.54476 0.0
C654 C 0.43029 0.12942 0.59274 0.0
C655 C 0.40788 0.12131 0.54237 0.0
C656 C 0.94336 0.31847 0.64077 0.0
C657 C 0.95243 0.33048 0.74852 0.0
C658 C 0.95367 0.30707 0.58315 0.0
C659 C 0.97326 0.30724 0.63211 0.0
H660 H 0.92943 0.31947 0.59601 0.0
H661 H 0.94724 0.29946 0.4963 0.0
S662 S 1.00041 0.33223 0.9246 0.0
N663 N 0.98003 0.33934 0.90904 0.0
N664 N 0.99872 0.3171 0.80463 0.0
C665 C 0.98094 0.31728 0.74557 0.0
C666 C 0.97073 0.32915 0.80272 0.0
C667 C 0.8027 0.69876 0.7094 0.0
C668 C 0.79574 0.70599 0.60704 0.0
C669 C 0.78894 0.67608 0.75546 0.0
C670 C 0.76768 0.66033 0.70143 0.0
H671 H 0.81815 0.71107 0.75753 0.0
H672 H 0.79425 0.67132 0.83699 0.0
S673 S 0.74324 0.67017 0.42479 0.0
N674 N 0.76748 0.69507 0.44804 0.0
N675 N 0.74156 0.65278 0.53436 0.0
C676 C 0.76133 0.66705 0.59557 0.0
C677 C 0.77537 0.68984 0.54844 0.0
C678 C 0.0158 0.75812 0.66007 0.0
C679 C 1.00547 0.76704 0.58265 0.0
C680 C 1.00273 0.73661 0.71573 0.0
C681 C 0.97874 0.72285 0.69576 0.0
H682 H 0.03435 0.76771 0.67708 0.0
H683 H 1.01169 0.73017 0.77092 0.0
S684 S 0.94273 0.73887 0.51 0.0
N685 N 0.96938 0.76132 0.49686 0.0
N686 N 0.94469 0.72011 0.59949 0.0
C687 C 0.96781 0.73192 0.6238 0.0
C688 C 0.98121 0.75421 0.56766 0.0
C689 C 0.3355 0.27031 0.69246 0.0
C690 C 0.33143 0.27433 0.57423 0.0
C691 C 0.35826 0.28034 0.73744 0.0
C692 C 0.37748 0.29457 0.665 0.0
H693 H 0.32102 0.26094 0.75288 0.0
H694 H 0.36071 0.27843 0.83128 0.0
S695 S 0.37573 0.3067 0.3436 0.0
N696 N 0.34814 0.29103 0.38256 0.0
N697 N 0.3909 0.30907 0.46467 0.0
C698 C 0.3735 0.29672 0.54363 0.0
C699 C 0.35044 0.28687 0.49886 0.0
C700 C 0.79094 0.09809 0.70983 0.0
C701 C 0.80111 0.12197 0.6853 0.0
C702 C 0.80012 0.08495 0.66333 0.0
C703 C 0.82009 0.09508 0.59089 0.0
H704 H 0.77511 0.08925 0.76185 0.0
H705 H 0.79119 0.06649 0.68337 0.0
S706 S 0.85483 0.15752 0.51014 0.0
N707 N 0.83318 0.15574 0.59069 0.0
N708 N 0.85101 0.13092 0.50525 0.0
C709 C 0.83143 0.11926 0.57176 0.0
C710 C 0.82181 0.13274 0.61857 0.0
C711 C 0.6847 0.94323 0.2199 0.0
C712 C 0.66945 0.95031 0.26462 0.0
C713 C 0.70696 0.95175 0.27035 0.0
C714 C 0.71424 0.9671 0.36809 0.0
H715 H 0.67989 0.93211 0.1422 0.0
H716 H 0.71896 0.94731 0.22905 0.0
S717 S 0.67936 0.98779 0.52848 0.0
N718 N 0.66224 0.97145 0.4198 0.0
N719 N 0.70371 0.98706 0.51427 0.0
C720 C 0.69849 0.97288 0.41804 0.0
C721 C 0.67616 0.96455 0.36641 0.0
C722 C 0.1535 0.79307 0.32728 0.0
C723 C 0.13276 0.79089 0.28184 0.0
C724 C 0.16357 0.78089 0.27536 0.0
C725 C 0.15308 0.76606 0.17713 0.0
H726 H 0.1612 0.80307 0.40743 0.0
H727 H 0.17869 0.78182 0.31744 0.0
S728 S 0.1013 0.7579 0.01158 0.0
N729 N 0.10429 0.7757 0.12151 0.0
N730 N 0.12267 0.75223 0.02772 0.0
C731 C 0.13341 0.76516 0.12587 0.0
C732 C 0.12341 0.77776 0.17717 0.0
C733 C 0.3273 0.42907 0.35932 0.0
C734 C 0.33906 0.43419 0.24962 0.0
C735 C 0.31498 0.40608 0.40256 0.0
C736 C 0.31387 0.38746 0.33686 0.0
H737 H 0.32897 0.44307 0.41565 0.0
H738 H 0.30745 0.40307 0.49076 0.0
S739 S 0.33815 0.39163 0.03395 0.0
N740 N 0.34674 0.41884 0.07065 0.0
N741 N 0.32262 0.37562 0.14765 0.0
C742 C 0.32394 0.39234 0.22232 0.0
C743 C 0.33681 0.4157 0.17988 0.0
C744 C 0.07065 0.47993 0.01667 0.0
C745 C 0.06276 0.46202 0.93119 0.0
C746 C 0.09324 0.48979 0.06514 0.0
C747 C 0.10825 0.48163 0.03077 0.0
H748 H 0.05896 0.48553 0.05007 0.0
H749 H 0.09857 0.50303 0.13329 0.0
S750 S 0.0967 0.43737 0.7981 0.0
N751 N 0.0724 0.43835 0.80596 0.0
N752 N 0.11448 0.45653 0.89627 0.0
C753 C 0.10085 0.46467 0.94051 0.0
C754 C 0.07818 0.45493 0.89098 0.0
C755 C 0.62482 0.6326 0.02966 0.0
C756 C 0.63742 0.63895 0.9221 0.0
C757 C 0.61581 0.64611 0.07732 0.0
C758 C 0.6196 0.6665 0.01934 0.0
H759 H 0.62299 0.61784 0.08006 0.0
H760 H 0.60708 0.64137 0.16267 0.0
S761 S 0.6497 0.68931 0.73095 0.0
N762 N 0.65171 0.66583 0.75575 0.0
N763 N 0.63512 0.69129 0.84494 0.0
C764 C 0.63115 0.67225 0.90908 0.0
C765 C 0.64002 0.65846 0.86052 0.0
C766 C 0.46853 0.02817 0.95146 0.0
C767 C 0.4628 0.04572 0.96673 0.0
C768 C 0.45601 1.00668 0.01106 0.0
C769 C 0.43744 1.00217 0.0878 0.0
H770 H 0.48226 0.03082 0.89044 0.0
H771 H 0.46012 0.99314 -0.00786 0.0
S772 S 0.41802 0.04401 0.16902 0.0
N773 N 0.4391 0.05823 0.07165 0.0
N774 N 0.41571 0.01817 0.18422 0.0
C775 C 0.43259 0.02025 0.10848 0.0
C776 C 0.44522 0.04194 0.04769 0.0
C777 C 0.65149 0.08475 0.85172 0.0
C778 C 0.67314 0.10162 0.89784 0.0
C779 C 0.63867 0.06276 0.90696 0.0
C780 C 0.64703 0.05735 0.01052 0.0
H781 H 0.64506 0.08812 0.76985 0.0
H782 H 0.6228 0.04957 0.86529 0.0
S783 S 0.701 0.0968 0.17464 0.0
N784 N 0.70108 0.11224 0.05913 0.0
N785 N 0.67698 0.07129 0.1623 0.0
C786 C 0.66784 0.07465 0.06094 0.0
C787 C 0.68089 0.09673 0.00476 0.0
C788 C 0.03307 0.61497 0.00079 0.0
C789 C 0.04997 0.63827 -0.02164 0.0
C790 C 1.01041 0.60547 0.95425 0.0
C791 C 1.0041 0.61905 0.88394 0.0
H792 H 0.03718 0.60429 0.05739 0.0
H793 H 0.99752 0.58781 -0.0218 0.0
S794 S 0.04334 0.68014 0.78783 0.0
N795 N 0.05974 0.67395 0.87346 0.0
N796 N 0.01753 0.65634 0.78521 0.0
C797 C 0.02141 0.642 0.85602 0.0
C798 C 0.04426 0.65156 0.90355 0.0
C799 C 0.48648 0.46179 0.02711 0.0
C800 C 0.46267 0.45467 0.02842 0.0
C801 C 0.49461 0.44866 0.96668 0.0
C802 C 0.47918 0.4282 0.90457 0.0
H803 H 0.49873 0.47715 0.07607 0.0
H804 H 0.51288 0.45403 0.97302 0.0
S805 S 0.41565 0.40456 0.86658 0.0
N806 N 0.42422 0.42751 0.95316 0.0
N807 N 0.43926 0.40315 0.83788 0.0
C808 C 0.45553 0.4219 0.8995 0.0
C809 C 0.44733 0.43504 0.96196 0.0
C810 C 0.15412 0.22949 0.45781 0.0
C811 C 0.15128 0.24872 0.43384 0.0
C812 C 0.17639 0.2322 0.47143 0.0
C813 C 0.19661 0.25429 0.46312 0.0
H814 H 0.13905 0.21223 0.46496 0.0
H815 H 0.17772 0.21687 0.48933 0.0
S816 S 0.19826 0.31035 0.4072 0.0
N817 N 0.17035 0.29064 0.40684 0.0
N818 N 0.21201 0.29581 0.43114 0.0
C819 C 0.19385 0.27367 0.44029 0.0
C820 C 0.17126 0.27087 0.42604 0.0
C821 C 0.87432 0.99185 0.49118 0.0
C822 C 0.854 0.99074 0.44582 0.0
C823 C 0.87679 0.97196 0.49325 0.0
C824 C 0.85909 0.95051 0.4493 0.0
H825 H 0.88782 1.00781 0.53081 0.0
H826 H 0.89206 0.97309 0.53447 0.0
S827 S 0.80421 0.93916 0.30546 0.0
N828 N 0.81712 0.96686 0.34395 0.0
N829 N 0.82186 0.9298 0.34876 0.0
C830 C 0.83948 0.94958 0.39709 0.0
C831 C 0.83691 0.96963 0.39501 0.0
C832 C 0.10842 0.9232 0.46252 0.0
C833 C 0.11005 0.90407 0.42029 0.0
C834 C 0.12796 0.94579 0.46335 0.0
C835 C 0.14959 0.94987 0.42131 0.0
H836 H 0.09231 0.92056 0.50052 0.0
H837 H 0.12642 0.95989 0.50225 0.0
S838 S 0.16235 0.90662 0.28603 0.0
N839 N 0.13464 0.89145 0.32333 0.0
N840 N 0.17109 0.93369 0.32619 0.0
C841 C 0.15107 0.93124 0.37232 0.0
C842 C 0.13136 0.90838 0.37138 0.0
C843 C 0.26489 0.14663 0.54421 0.0
C844 C 0.24287 0.14394 0.52158 0.0
C845 C 0.26875 0.12783 0.53696 0.0
C846 C 0.25074 0.10537 0.50691 0.0
H847 H 0.2795 0.16359 0.56597 0.0
H848 H 0.28615 0.13108 0.55475 0.0
S849 S 0.18963 0.0889 0.44059 0.0
N850 N 0.20263 0.11709 0.46902 0.0
N851 N 0.20982 0.08147 0.45499 0.0
C852 C 0.2285 0.1023 0.48474 0.0
C853 C 0.2246 0.12165 0.49164 0.0
C854 C 0.97764 0.1538 0.46954 0.0
C855 C 0.95537 0.14988 0.49866 0.0
C856 C 0.99669 0.17654 0.45873 0.0
C857 C 0.9941 0.19619 0.4752 0.0
H858 H 0.98036 0.13919 0.45558 0.0
H859 H 1.01348 0.17871 0.43574 0.0
S860 S 0.93902 0.1951 0.54934 0.0
N861 N 0.93165 0.16744 0.54046 0.0
N862 N 0.9672 0.2099 0.52252 0.0
C863 C 0.97182 0.19237 0.50445 0.0
C864 C 0.95255 0.16931 0.51547 0.0
C865 C 0.95147 0.87092 0.49154 0.0
C866 C 0.95583 0.85345 0.53251 0.0
C867 C 0.92895 0.86791 0.49707 0.0
C868 C 0.91016 0.84725 0.54292 0.0
H869 H 0.96525 0.88644 0.44989 0.0
H870 H 0.92603 0.88127 0.4596 0.0
S871 S 0.91365 0.79777 0.67561 0.0
N872 N 0.94038 0.81601 0.63039 0.0
N873 N 0.89825 0.81024 0.64161 0.0
C874 C 0.91482 0.83036 0.59068 0.0
C875 C 0.93761 0.83348 0.58515 0.0
C876 C 0.84399 0.56095 0.78543 0.0
C877 C 0.86258 0.58276 0.8212 0.0
C878 C 0.8211 0.55698 0.77829 0.0
C879 C 0.81616 0.57466 0.80716 0.0
H880 H 0.84721 0.54707 0.76016 0.0
H881 H 0.80732 0.54024 0.74757 0.0
S882 S 0.85775 0.63388 0.91606 0.0
N883 N 0.87375 0.62163 0.89373 0.0
N884 N 0.83101 0.614 0.87913 0.0
C885 C 0.83432 0.59613 0.84652 0.0
C886 C 0.85745 0.60023 0.85388 0.0
C887 C 0.53494 0.32459 0.80689 0.0
C888 C 0.51299 0.32241 0.78713 0.0
C889 C 0.5381 0.30515 0.79942 0.0
C890 C 0.51948 0.28292 0.77052 0.0
H891 H 0.54971 0.34133 0.83007 0.0
H892 H 0.55522 0.30753 0.8159 0.0
S893 S 0.45846 0.26763 0.71199 0.0
N894 N 0.47234 0.29591 0.73664 0.0
N895 N 0.47827 0.25975 0.72558 0.0
C896 C 0.49752 0.28054 0.75046 0.0
C897 C 0.49428 0.30017 0.75787 0.0
C898 C 0.80004 0.24305 0.73351 0.0
C899 C 0.77756 0.23938 0.75491 0.0
C900 C 0.81961 0.26529 0.73864 0.0
C901 C 0.81765 0.28493 0.76479 0.0
H902 H 0.80273 0.22853 0.7158 0.0
H903 H 0.83658 0.26708 0.72514 0.0
S904 S 0.76298 0.28547 0.81938 0.0
N905 N 0.75446 0.25773 0.79663 0.0
N906 N 0.79158 0.29973 0.80584 0.0
C907 C 0.79534 0.28187 0.78059 0.0
C908 C 0.77522 0.25906 0.77579 0.0
C909 C 0.90005 0.45855 0.84434 0.0
C910 C 0.91931 0.48126 0.84478 0.0
C911 C 0.90303 0.43898 0.84001 0.0
C912 C 0.92539 0.44148 0.83492 0.0
H913 H 0.88261 0.45591 0.84936 0.0
H914 H 0.88772 0.42181 0.84106 0.0
S915 S 0.98136 0.49768 0.82386 0.0
N916 N 0.96128 0.50527 0.8327 0.0
N917 N 0.96709 0.46897 0.82484 0.0
C918 C 0.94473 0.46429 0.83258 0.0
C919 C 0.94164 0.48403 0.83733 0.0
C920 C 0.61779 0.49907 0.87627 0.0
C921 C 0.61853 0.47866 0.85303 0.0
C922 C 0.6379 0.52095 0.87287 0.0
C923 C 0.65975 0.52348 0.84579 0.0
H924 H 0.60135 0.49817 0.89453 0.0
H925 H 0.6361 0.53606 0.88909 0.0
S926 S 0.67126 0.47517 0.7854 0.0
N927 N 0.6429 0.46202 0.8079 0.0
N928 N 0.68101 0.50332 0.80168 0.0
C929 C 0.66093 0.50309 0.82752 0.0
C930 C 0.64027 0.48065 0.83121 0.0
C931 C 0.60311 0.16747 0.85962 0.0
C932 C 0.62281 0.18864 0.82827 0.0
C933 C 0.58098 0.16498 0.85929 0.0
C934 C 0.57751 0.18354 0.8272 0.0
H935 H 0.60475 0.15242 0.88093 0.0
H936 H 0.56638 0.14803 0.88122 0.0
S937 S 0.62386 0.24329 0.74738 0.0
N938 N 0.63794 0.22902 0.77194 0.0
N939 N 0.59608 0.22445 0.77128 0.0
C940 C 0.59726 0.20526 0.80196 0.0
C941 C 0.61998 0.20778 0.8025 0.0
C942 C 0.5134 0.89838 0.14988 0.0
C943 C 0.5327 0.91898 0.10712 0.0
C944 C 0.49103 0.8958 0.15159 0.0
C945 C 0.48732 0.91367 0.10991 0.0
H946 H 0.51576 0.88468 0.18761 0.0
H947 H 0.47681 0.88026 0.19075 0.0
S948 S 0.53111 0.9694 0.97334 0.0
N949 N 0.54586 0.95639 0.01018 0.0
N950 N 0.50402 0.95144 0.01433 0.0
C951 C 0.50611 0.93362 0.0604 0.0
C952 C 0.52875 0.9363 0.05866 0.0
C953 C 0.20968 0.66282 0.12998 0.0
C954 C 0.18965 0.66175 0.08078 0.0
C955 C 0.21232 0.64304 0.1318 0.0
C956 C 0.19512 0.62177 0.0835 0.0
H957 H 0.22279 0.67865 0.17243 0.0
H958 H 0.22732 0.64407 0.17584 0.0
S959 S 0.14127 0.61072 0.92921 0.0
N960 N 0.15367 0.6382 0.97124 0.0
N961 N 0.15872 0.60133 0.97546 0.0
C962 C 0.17583 0.62092 0.02787 0.0
C963 C 0.17308 0.64085 0.02622 0.0
C964 C 0.46397 0.61628 0.1423 0.0
C965 C 0.48662 0.61978 0.13406 0.0
C966 C 0.44467 0.59377 0.15752 0.0
C967 C 0.44744 0.57408 0.16675 0.0
H968 H 0.46116 0.63096 0.13497 0.0
H969 H 0.42749 0.59179 0.16164 0.0
S970 S 0.50379 0.57472 0.1595 0.0
N971 N 0.51098 0.6022 0.14212 0.0
N972 N 0.47523 0.56021 0.17149 0.0
C973 C 0.47025 0.57768 0.16154 0.0
C974 C 0.48968 0.60043 0.14511 0.0
C975 C 0.57161 0.77408 0.1421 0.0
C976 C 0.59366 0.77628 0.15913 0.0
C977 C 0.56855 0.79357 0.14824 0.0
C978 C 0.58736 0.81589 0.17313 0.0
H979 H 0.55666 0.75725 0.12227 0.0
H980 H 0.55135 0.79115 0.13414 0.0
S981 S 0.64867 0.83132 0.2227 0.0
N982 N 0.63463 0.80291 0.20173 0.0
N983 N 0.62883 0.83921 0.21137 0.0
C984 C 0.60943 0.81832 0.19029 0.0
C985 C 0.61258 0.79863 0.1839 0.0
C986 C 0.33318 0.84282 0.14749 0.0
C987 C 0.33164 0.86192 0.19101 0.0
C988 C 0.31328 0.82053 0.13881 0.0
C989 C 0.29132 0.81673 0.17354 0.0
H990 H 0.34961 0.8453 0.11491 0.0
H991 H 0.31488 0.80646 0.10007 0.0
S992 S 0.2784 0.85986 0.30902 0.0
N993 N 0.30656 0.87466 0.28134 0.0
N994 N 0.26951 0.83305 0.26363 0.0
C995 C 0.28982 0.83528 0.22343 0.0
C996 C 0.3099 0.8578 0.2326 0.0
C997 C 0.28478 0.53591 0.25538 0.0
C998 C 0.29313 0.52629 0.17044 0.0
C999 C 0.26248 0.53329 0.24435 0.0
C1000 C 0.24773 0.52041 0.14995 0.0
H1001 H 0.29537 0.5451 0.33174 0.0
H1002 H 0.25636 0.54041 0.31276 0.0
S1003 S 0.26161 0.4923 0.90351 0.0
N1004 N 0.28523 0.50421 -0.01286 0.0
N1005 N 0.24321 0.49866 0.96862 0.0
C1006 C 0.25609 0.51115 0.06364 0.0
C1007 C 0.27884 0.51425 0.07332 0.0
C1008 C 0.03801 0.27401 -0.01656 0.0
C1009 C 0.04655 0.26197 0.05028 0.0
C1010 C 0.04159 0.27692 0.8602 0.0
C1011 C 0.05392 0.26796 0.79896 0.0
H1012 H 0.02883 0.28162 0.02669 0.0
H1013 H 0.03454 0.28622 0.81263 0.0
S1014 S 0.07936 0.23448 0.93241 0.0
N1015 N 0.06744 0.2405 0.0454 0.0
N1016 N 0.07439 0.24625 0.81481 0.0
C1017 C 0.06253 0.25586 0.86479 0.0
C1018 C 0.05875 0.25275 -0.01001 0.0
C1019 C 0.84853 0.85111 0.06096 0.0
C1020 C 0.84292 0.83048 0.12294 0.0
C1021 C 0.84556 0.85111 0.93763 0.0
C1022 C 0.8368 0.83047 0.87124 0.0
H1023 H 0.8552 0.86748 0.10796 0.0
H1024 H 0.85045 0.86751 0.89407 0.0
S1025 S 0.81897 0.77156 -0.00916 0.0
N1026 N 0.82797 0.78875 0.10838 0.0
N1027 N 0.82213 0.78864 0.87712 0.0
C1028 C 0.83091 0.80963 0.93218 0.0
C1029 C 0.8341 0.80967 0.0577 0.0
C1030 C 0.24758 0.04217 0.03561 0.0
C1031 C 0.26873 0.05467 0.09785 0.0
C1032 C 0.24715 0.0394 0.91204 0.0
C1033 C 0.26786 0.04901 0.84601 0.0
H1034 H 0.23115 0.03444 0.08259 0.0
H1035 H 0.23044 0.03 0.86794 0.0
S1036 S 0.32793 0.08206 0.96712 0.0
N1037 N 0.31097 0.07594 0.0846 0.0
N1038 N 0.31021 0.07071 0.85255 0.0
C1039 C 0.28917 0.06125 0.90732 0.0
C1040 C 0.2896 0.06414 0.0331 0.0
C1041 C 0.06866 0.8272 0.91268 0.0
C1042 C 0.05893 0.83827 0.84698 0.0
C1043 C 0.06533 0.82405 0.03596 0.0
C1044 C 0.0521 0.83181 0.0984 0.0
H1045 H 0.07859 0.82051 0.86848 0.0
H1046 H 0.0733 0.81552 0.08257 0.0
S1047 S 0.02354 0.86265 0.96836 0.0
N1048 N 0.03602 0.85766 0.85431 0.0
N1049 N 0.0296 0.85152 0.08505 0.0
C1050 C 0.04237 0.84303 0.0338 0.0
C1051 C 0.04587 0.84636 0.90854 0.0
C1052 C 0.25292 0.24308 0.066 0.0
C1053 C 0.26751 0.2631 0.1324 0.0
C1054 C 0.25077 0.24431 0.94256 0.0
C1055 C 0.26311 0.2656 0.88082 0.0
H1056 H 0.24269 0.22642 0.10982 0.0
H1057 H 0.23929 0.22839 0.89525 0.0
S1058 S 0.30508 0.32276 0.01263 0.0
N1059 N 0.29552 0.30467 0.12672 0.0
N1060 N 0.29138 0.30693 0.89499 0.0
C1061 C 0.27806 0.28568 0.94598 0.0
C1062 C 0.28032 0.28443 0.07158 0.0
C1063 C 0.85955 0.05764 0.05366 0.0
C1064 C 0.83897 0.04894 0.12018 0.0
C1065 C 0.85888 0.05409 0.93049 0.0
C1066 C 0.83761 0.04167 0.86895 0.0
H1067 H 0.87634 0.06687 0.09715 0.0
H1068 H 0.87524 0.06121 0.88322 0.0
S1069 S 0.77868 0.01648 0.00103 0.0
N1070 N 0.79661 0.02816 0.11459 0.0
N1071 N 0.79542 0.02146 0.88358 0.0
C1072 C 0.81688 0.0331 0.93421 0.0
C1073 C 0.81755 0.0368 0.05952 0.0
C1074 C 0.72888 0.58523 0.24103 0.0
C1075 C 0.71921 0.59615 0.17374 0.0
C1076 C 0.7256 0.58253 0.36433 0.0
C1077 C 0.71246 0.59057 0.42532 0.0
H1078 H 0.73878 0.57836 0.19814 0.0
H1079 H 0.73352 0.57407 0.4121 0.0
S1080 S 0.68414 0.62125 0.29095 0.0
N1081 N 0.6965 0.61578 0.17795 0.0
N1082 N 0.69017 0.61045 0.40913 0.0
C1083 C 0.70281 0.60168 0.35927 0.0
C1084 C 0.70628 0.60459 0.23381 0.0
C1085 C 0.51678 0.18557 0.34799 0.0
C1086 C 0.50897 0.16442 0.40949 0.0
C1087 C 0.51404 0.18606 0.22465 0.0
C1088 C 0.50335 0.1654 0.15785 0.0
H1089 H 0.52509 0.20199 0.39537 0.0
H1090 H 0.52074 0.2028 0.1813 0.0
S1091 S 0.47874 0.10524 0.27644 0.0
N1092 N 0.4894 0.12217 0.39431 0.0
N1093 N 0.48408 0.12301 0.16293 0.0
C1094 C 0.49511 0.14405 0.21838 0.0
C1095 C 0.49801 0.14358 0.34393 0.0
C1096 C 0.91664 0.37324 0.25453 0.0
C1097 C 0.93728 0.38191 0.18873 0.0
C1098 C 0.91719 0.37535 0.37844 0.0
C1099 C 0.93841 0.38619 0.4411 0.0
H1100 H 0.89992 0.36509 0.21008 0.0
H1101 H 0.9008 0.36845 0.42525 0.0
S1102 S 0.99738 0.41058 0.31053 0.0
N1103 N 0.97957 0.40091 0.1955 0.0
N1104 N 0.98056 0.40492 0.42826 0.0
C1105 C 0.95919 0.39468 0.37646 0.0
C1106 C 0.95863 0.39248 0.25034 0.0
C1107 C 0.73678 0.16337 0.23149 0.0
C1108 C 0.72506 0.1723 0.1651 0.0
C1109 C 0.73409 0.16072 0.35503 0.0
C1110 C 0.71957 0.16691 0.41701 0.0
H1111 H 0.74792 0.15809 0.18779 0.0
H1112 H 0.74362 0.15389 0.40219 0.0
S1113 S 0.68497 0.19122 0.28483 0.0
N1114 N 0.69839 0.1875 0.17089 0.0
N1115 N 0.69326 0.18234 0.40253 0.0
C1116 C 0.70766 0.17579 0.35171 0.0
C1117 C 0.71047 0.17859 0.22604 0.0
C1118 C 0.92341 0.57883 0.26745 0.0
C1119 C 0.93225 0.60032 0.2077 0.0
C1120 C 0.92467 0.57776 0.39138 0.0
C1121 C 0.93481 0.59813 0.46018 0.0
H1122 H 0.91537 0.56261 0.21831 0.0
H1123 H 0.91733 0.56083 0.43344 0.0
S1124 S 0.96169 0.6589 0.34677 0.0
N1125 N 0.9522 0.64249 0.22657 0.0
N1126 N 0.9547 0.64058 0.45917 0.0
C1127 C 0.94402 0.61979 0.40144 0.0
C1128 C 0.94268 0.62085 0.27533 0.0
C1129 C 0.51877 0.38552 0.26459 0.0
C1130 C 0.49768 0.3752 0.20097 0.0
C1131 C 0.51919 0.3882 0.38825 0.0
C1132 C 0.49854 0.38068 0.45278 0.0
H1133 H 0.53513 0.39154 0.21865 0.0
H1134 H 0.5358 0.39581 0.43365 0.0
S1135 S 0.43895 0.35447 0.32727 0.0
N1136 N 0.45574 0.35865 0.211 0.0
N1137 N 0.45651 0.3637 0.44336 0.0
C1138 C 0.47736 0.37076 0.39003 0.0
C1139 C 0.47693 0.36797 0.2642 0.0
C1140 C 0.39864 0.92315 0.60088 0.0
C1141 C 0.38935 0.93453 0.53451 0.0
C1142 C 0.39613 0.92117 0.72463 0.0
C1143 C 0.38424 0.9305 0.78662 0.0
H1144 H 0.40758 0.91536 0.55697 0.0
H1145 H 0.40358 0.91221 0.7719 0.0
S1146 S 0.35782 0.96318 0.65461 0.0
N1147 N 0.36858 0.95612 0.54024 0.0
N1148 N 0.36382 0.9523 0.7726 0.0
C1149 C 0.37508 0.94216 0.72144 0.0
C1150 C 0.3777 0.94425 0.59552 0.0
C1151 C 0.16985 0.48257 0.68633 0.0
C1152 C 0.17998 0.50335 0.75231 0.0
C1153 C 0.16777 0.48284 0.56252 0.0
C1154 C 0.17566 0.50388 0.50011 0.0
H1155 H 0.16318 0.46591 0.73053 0.0
H1156 H 0.15988 0.46638 0.51552 0.0
S1157 S 0.20421 0.56323 0.63073 0.0
N1158 N 0.19854 0.54568 0.74557 0.0
N1159 N 0.19444 0.54609 0.51316 0.0
C1160 C 0.18589 0.52481 0.56485 0.0
C1161 C 0.18814 0.52457 0.69082 0.0
C1162 C 0.62585 0.73126 0.67663 0.0
C1163 C 0.60528 0.72235 0.74345 0.0
C1164 C 0.62516 0.72795 0.55328 0.0
C1165 C 0.60388 0.71557 0.4919 0.0
H1166 H 0.64265 0.74054 0.71993 0.0
H1167 H 0.64151 0.73525 0.50574 0.0
S1168 S 0.54494 0.6892 0.62513 0.0
N1169 N 0.56289 0.70101 0.73845 0.0
N1170 N 0.56169 0.69465 0.50735 0.0
C1171 C 0.58316 0.70659 0.55761 0.0
C1172 C 0.58384 0.71007 0.68302 0.0
C1173 C 0.40375 0.49705 0.76148 0.0
C1174 C 0.38883 0.50271 0.82335 0.0
C1175 C 0.40552 0.49861 0.63749 0.0
C1176 C 0.39251 0.50598 0.57065 0.0
H1177 H 0.41431 0.49146 0.80901 0.0
H1178 H 0.41718 0.49398 0.59398 0.0
S1179 S 0.35057 0.52255 0.68995 0.0
N1180 N 0.36055 0.51569 0.80848 0.0
N1181 N 0.36393 0.51884 0.57573 0.0
C1182 C 0.37743 0.51166 0.63145 0.0
C1183 C 0.37555 0.50993 0.75767 0.0
C1184 C 0.59529 0.91325 0.71575 0.0
C1185 C 0.6058 0.93379 0.78351 0.0
C1186 C 0.59229 0.91388 0.59264 0.0
C1187 C 0.59961 0.93507 0.53215 0.0
H1188 H 0.58898 0.89647 0.75814 0.0
H1189 H 0.58421 0.89754 0.54459 0.0
S1190 S 0.62881 0.99399 0.66795 0.0
N1191 N 0.62415 0.97614 0.78024 0.0
N1192 N 0.61826 0.9772 0.54953 0.0
C1193 C 0.61026 0.95578 0.5987 0.0
C1194 C 0.61347 0.95518 0.72398 0.0
C1195 C 0.19298 0.72544 0.55329 0.0
C1196 C 0.17192 0.71326 0.49008 0.0
C1197 C 0.19324 0.72764 0.67711 0.0
C1198 C 0.17244 0.71773 0.74237 0.0
H1199 H 0.20949 0.73336 0.50697 0.0
H1200 H 0.20989 0.73686 0.72193 0.0
S1201 S 0.11251 0.68512 0.61907 0.0
N1202 N 0.12964 0.69183 0.5019 0.0
N1203 N 0.13008 0.696 0.73447 0.0
C1204 C 0.1512 0.70577 0.68023 0.0
C1205 C 0.15095 0.70348 0.55418 0.0
loop_
_geom_bond_atom_site_label_1
_geom_bond_atom_site_label_2
_geom_bond_distance
_geom_bond_site_symmetry_2
_ccdc_geom_bond_type
C0 O16 1.251 . S
C0 O18 1.254 . S
N1 C2 1.333 . S
N1 C6 1.307 . S
N1 Zn7 2.020 . S
C2 N1 1.333 . S
C2 C3 1.379 . S
C2 H20 0.952 . S
C3 C2 1.379 . S
C3 C4 1.390 . S
C3 H30 0.949 . S
C4 C3 1.390 . S
C4 C5 1.357 . S
C5 C4 1.357 . S
C5 C6 1.370 . S
C5 H31 0.950 . S
C6 N1 1.307 . S
C6 C5 1.370 . S
C6 H24 0.948 . S
Zn7 N1 2.020 . S
Zn7 O16 2.039 . S
Zn7 O22 2.034 . S
Zn7 O26 2.025 . S
Zn7 O28 2.024 . S
C8 O27 1.246 . S
C8 O28 1.249 . S
N9 C10 1.307 . S
N9 C11 1.333 . S
N9 Zn15 2.020 1_655 S
C10 N9 1.307 . S
C10 C14 1.370 . S
C10 H21 0.948 . S
C11 N9 1.333 . S
C11 C12 1.379 . S
C11 H19 0.952 1_655 S
C12 C11 1.379 . S
C12 C13 1.390 . S
C12 H32 0.949 . S
C13 C12 1.390 . S
C13 C14 1.357 . S
C14 C10 1.370 . S
C14 C13 1.357 . S
C14 H33 0.950 . S
Zn15 N9 2.020 1_455 S
Zn15 O18 2.025 . S
Zn15 O23 2.024 . S
Zn15 O25 2.039 . S
Zn15 O27 2.034 . S
O16 C0 1.251 . S
O16 Zn7 2.039 . S
C17 O22 1.246 . S
C17 O23 1.249 . S
O18 C0 1.254 . S
O18 Zn15 2.025 . S
H19 C11 0.952 1_455 S
H20 C2 0.952 . S
H21 C10 0.948 . S
O22 Zn7 2.034 . S
O22 C17 1.246 . S
O23 Zn15 2.024 . S
O23 C17 1.249 . S
H24 C6 0.948 . S
O25 Zn15 2.039 . S
O25 C29 1.251 . S
O26 Zn7 2.025 . S
O26 C29 1.254 . S
O27 C8 1.246 . S
O27 Zn15 2.034 . S
O28 Zn7 2.024 . S
O28 C8 1.249 . S
C29 O25 1.251 . S
C29 O26 1.254 . S
H30 C3 0.949 . S
H31 C5 0.950 . S
H32 C12 0.949 . S
H33 C14 0.950 . S
C34 O50 1.251 . S
C34 O52 1.254 . S
N35 C36 1.333 . S
N35 C40 1.307 . S
N35 Zn41 2.020 . S
C36 N35 1.333 . S
C36 C37 1.379 . S
C36 H54 0.952 . S
C37 C36 1.379 . S
C37 C38 1.390 . S
C37 H64 0.949 . S
C38 C37 1.390 . S
C38 C39 1.357 . S
C39 C38 1.357 . S
C39 C40 1.370 . S
C39 H65 0.950 . S
C40 N35 1.307 . S
C40 C39 1.370 . S
C40 H58 0.948 . S
Zn41 N35 2.020 . S
Zn41 O50 2.039 . S
Zn41 O56 2.034 . S
Zn41 O60 2.025 . S
Zn41 O62 2.024 . S
C42 O61 1.246 . S
C42 O62 1.249 . S
N43 C44 1.307 . S
N43 C45 1.333 . S
N43 Zn49 2.020 . S
C44 N43 1.307 . S
C44 C48 1.370 . S
C44 H55 0.948 . S
C45 N43 1.333 . S
C45 C46 1.379 . S
C45 H53 0.952 . S
C46 C45 1.379 . S
C46 C47 1.390 . S
C46 H66 0.949 . S
C47 C46 1.390 . S
C47 C48 1.357 . S
C48 C44 1.370 . S
C48 C47 1.357 . S
C48 H67 0.950 . S
Zn49 N43 2.020 . S
Zn49 O52 2.025 . S
Zn49 O57 2.024 . S
Zn49 O59 2.039 . S
Zn49 O61 2.034 . S
O50 C34 1.251 . S
O50 Zn41 2.039 . S
C51 O56 1.246 . S
C51 O57 1.249 . S
O52 C34 1.254 . S
O52 Zn49 2.025 . S
H53 C45 0.952 . S
H54 C36 0.952 . S
H55 C44 0.948 . S
O56 Zn41 2.034 . S
O56 C51 1.246 . S
O57 Zn49 2.024 . S
O57 C51 1.249 . S
H58 C40 0.948 . S
O59 Zn49 2.039 . S
O59 C63 1.251 . S
O60 Zn41 2.025 . S
O60 C63 1.254 . S
O61 C42 1.246 . S
O61 Zn49 2.034 . S
O62 Zn41 2.024 . S
O62 C42 1.249 . S
C63 O59 1.251 . S
C63 O60 1.254 . S
H64 C37 0.949 . S
H65 C39 0.950 . S
H66 C46 0.949 . S
H67 C48 0.950 . S
C68 O84 1.251 . S
C68 O86 1.254 . S
N69 C70 1.333 . S
N69 C74 1.307 . S
N69 Zn75 2.020 1_565 S
C70 N69 1.333 . S
C70 C71 1.379 . S
C70 H88 0.952 1_565 S
C71 C70 1.379 . S
C71 C72 1.390 . S
C71 H98 0.949 . S
C72 C71 1.390 . S
C72 C73 1.357 . S
C73 C72 1.357 . S
C73 C74 1.370 . S
C73 H99 0.950 . S
C74 N69 1.307 . S
C74 C73 1.370 . S
C74 H92 0.948 . S
Zn75 N69 2.020 1_545 S
Zn75 O84 2.039 . S
Zn75 O90 2.034 . S
Zn75 O94 2.025 . S
Zn75 O96 2.024 . S
C76 O95 1.246 . S
C76 O96 1.249 . S
N77 C78 1.307 . S
N77 C79 1.333 . S
N77 Zn83 2.020 . S
C78 N77 1.307 . S
C78 C82 1.370 . S
C78 H89 0.948 . S
C79 N77 1.333 . S
C79 C80 1.379 . S
C79 H87 0.952 . S
C80 C79 1.379 . S
C80 C81 1.390 . S
C80 H100 0.949 . S
C81 C80 1.390 . S
C81 C82 1.357 . S
C82 C78 1.370 . S
C82 C81 1.357 . S
C82 H101 0.950 . S
Zn83 N77 2.020 . S
Zn83 O86 2.025 . S
Zn83 O91 2.024 . S
Zn83 O93 2.039 . S
Zn83 O95 2.034 . S
O84 C68 1.251 . S
O84 Zn75 2.039 . S
C85 O90 1.246 . S
C85 O91 1.249 . S
O86 C68 1.254 . S
O86 Zn83 2.025 . S
H87 C79 0.952 . S
H88 C70 0.952 1_545 S
H89 C78 0.948 . S
O90 Zn75 2.034 . S
O90 C85 1.246 . S
O91 Zn83 2.024 . S
O91 C85 1.249 . S
H92 C74 0.948 . S
O93 Zn83 2.039 . S
O93 C97 1.251 . S
O94 Zn75 2.025 . S
O94 C97 1.254 . S
O95 C76 1.246 . S
O95 Zn83 2.034 . S
O96 Zn75 2.024 . S
O96 C76 1.249 . S
C97 O93 1.251 . S
C97 O94 1.254 . S
H98 C71 0.949 . S
H99 C73 0.950 . S
H100 C80 0.949 . S
H101 C82 0.950 . S
C102 O118 1.251 . S
C102 O120 1.254 . S
N103 C104 1.333 . S
N103 C108 1.307 . S
N103 Zn109 2.020 . S
C104 N103 1.333 . S
C104 C105 1.379 . S
C104 H122 0.952 . S
C105 C104 1.379 . S
C105 C106 1.390 . S
C105 H132 0.949 . S
C106 C105 1.390 . S
C106 C107 1.357 . S
C107 C106 1.357 . S
C107 C108 1.370 . S
C107 H133 0.950 . S
C108 N103 1.307 . S
C108 C107 1.370 . S
C108 H126 0.948 . S
Zn109 N103 2.020 . S
Zn109 O118 2.039 . S
Zn109 O124 2.034 . S
Zn109 O128 2.025 . S
Zn109 O130 2.024 . S
C110 O129 1.246 . S
C110 O130 1.249 . S
N111 C112 1.307 . S
N111 C113 1.333 . S
N111 Zn117 2.020 1_655 S
C112 N111 1.307 . S
C112 C116 1.370 . S
C112 H123 0.948 . S
C113 N111 1.333 . S
C113 C114 1.379 . S
C113 H121 0.952 1_655 S
C114 C113 1.379 . S
C114 C115 1.390 . S
C114 H134 0.949 . S
C115 C114 1.390 . S
C115 C116 1.357 . S
C116 C112 1.370 . S
C116 C115 1.357 . S
C116 H135 0.950 . S
Zn117 N111 2.020 1_455 S
Zn117 O120 2.025 . S
Zn117 O125 2.024 . S
Zn117 O127 2.039 . S
Zn117 O129 2.034 . S
O118 C102 1.251 . S
O118 Zn109 2.039 . S
C119 O124 1.246 . S
C119 O125 1.249 . S
O120 C102 1.254 . S
O120 Zn117 2.025 . S
H121 C113 0.952 1_455 S
H122 C104 0.952 . S
H123 C112 0.948 . S
O124 Zn109 2.034 . S
O124 C119 1.246 . S
O125 Zn117 2.024 . S
O125 C119 1.249 . S
H126 C108 0.948 . S
O127 Zn117 2.039 . S
O127 C131 1.251 . S
O128 Zn109 2.025 . S
O128 C131 1.254 . S
O129 C110 1.246 . S
O129 Zn117 2.034 . S
O130 Zn109 2.024 . S
O130 C110 1.249 . S
C131 O127 1.251 . S
C131 O128 1.254 . S
H132 C105 0.949 . S
H133 C107 0.950 . S
H134 C114 0.949 . S
H135 C116 0.950 . S
C136 O152 1.251 . S
C136 O154 1.254 . S
N137 C138 1.333 . S
N137 C142 1.307 . S
N137 Zn143 2.020 . S
C138 N137 1.333 . S
C138 C139 1.379 . S
C138 H156 0.952 . S
C139 C138 1.379 . S
C139 C140 1.390 . S
C139 H166 0.949 . S
C140 C139 1.390 . S
C140 C141 1.357 . S
C141 C140 1.357 . S
C141 C142 1.370 . S
C141 H167 0.950 . S
C142 N137 1.307 . S
C142 C141 1.370 . S
C142 H160 0.948 . S
Zn143 N137 2.020 . S
Zn143 O152 2.039 . S
Zn143 O158 2.034 . S
Zn143 O162 2.025 . S
Zn143 O164 2.024 . S
C144 O163 1.246 . S
C144 O164 1.249 . S
N145 C146 1.307 . S
N145 C147 1.333 . S
N145 Zn151 2.020 . S
C146 N145 1.307 . S
C146 C150 1.370 . S
C146 H157 0.948 . S
C147 N145 1.333 . S
C147 C148 1.379 . S
C147 H155 0.952 . S
C148 C147 1.379 . S
C148 C149 1.390 . S
C148 H168 0.949 . S
C149 C148 1.390 . S
C149 C150 1.357 . S
C150 C146 1.370 . S
C150 C149 1.357 . S
C150 H169 0.950 . S
Zn151 N145 2.020 . S
Zn151 O154 2.025 . S
Zn151 O159 2.024 . S
Zn151 O161 2.039 . S
Zn151 O163 2.034 . S
O152 C136 1.251 . S
O152 Zn143 2.039 . S
C153 O158 1.246 . S
C153 O159 1.249 . S
O154 C136 1.254 . S
O154 Zn151 2.025 . S
H155 C147 0.952 . S
H156 C138 0.952 . S
H157 C146 0.948 . S
O158 Zn143 2.034 . S
O158 C153 1.246 . S
O159 Zn151 2.024 . S
O159 C153 1.249 . S
H160 C142 0.948 . S
O161 Zn151 2.039 . S
O161 C165 1.251 . S
O162 Zn143 2.025 . S
O162 C165 1.254 . S
O163 C144 1.246 . S
O163 Zn151 2.034 . S
O164 Zn143 2.024 . S
O164 C144 1.249 . S
C165 O161 1.251 . S
C165 O162 1.254 . S
H166 C139 0.949 . S
H167 C141 0.950 . S
H168 C148 0.949 . S
H169 C150 0.950 . S
C170 O186 1.251 . S
C170 O188 1.254 . S
N171 C172 1.333 . S
N171 C176 1.307 . S
N171 Zn177 2.020 1_565 S
C172 N171 1.333 . S
C172 C173 1.379 . S
C172 H190 0.952 1_565 S
C173 C172 1.379 . S
C173 C174 1.390 . S
C173 H200 0.949 . S
C174 C173 1.390 . S
C174 C175 1.357 . S
C175 C174 1.357 . S
C175 C176 1.370 . S
C175 H201 0.950 . S
C176 N171 1.307 . S
C176 C175 1.370 . S
C176 H194 0.948 . S
Zn177 N171 2.020 1_545 S
Zn177 O186 2.039 . S
Zn177 O192 2.034 . S
Zn177 O196 2.025 . S
Zn177 O198 2.064 . S
C178 O197 1.246 . S
C178 O198 1.243 . S
N179 C180 1.307 . S
N179 C181 1.333 . S
N179 Zn185 2.020 . S
C180 N179 1.307 . S
C180 C184 1.370 . S
C180 H191 0.948 . S
C181 N179 1.333 . S
C181 C182 1.379 . S
C181 H189 0.952 . S
C182 C181 1.379 . S
C182 C183 1.390 . S
C182 H202 0.949 . S
C183 C182 1.390 . S
C183 C184 1.357 . S
C184 C180 1.370 . S
C184 C183 1.357 . S
C184 H203 0.950 . S
Zn185 N179 2.020 . S
Zn185 O188 2.025 . S
Zn185 O193 2.024 . S
Zn185 O195 2.039 . S
Zn185 O197 2.034 . S
O186 C170 1.251 . S
O186 Zn177 2.039 . S
C187 O192 1.246 . S
C187 O193 1.249 . S
O188 C170 1.254 . S
O188 Zn185 2.025 . S
H189 C181 0.952 . S
H190 C172 0.952 1_545 S
H191 C180 0.948 . S
O192 Zn177 2.034 . S
O192 C187 1.246 . S
O193 Zn185 2.024 . S
O193 C187 1.249 . S
H194 C176 0.948 . S
O195 Zn185 2.039 . S
O195 C199 1.251 . S
O196 Zn177 2.025 . S
O196 C199 1.254 . S
O197 C178 1.246 . S
O197 Zn185 2.034 . S
O198 Zn177 2.064 . S
O198 C178 1.243 . S
C199 O195 1.251 . S
C199 O196 1.254 . S
H200 C173 0.949 . S
H201 C175 0.950 . S
H202 C182 0.949 . S
H203 C184 0.950 . S
C204 O220 1.251 . S
C204 O222 1.254 . S
N205 C206 1.333 . S
N205 C210 1.307 . S
N205 Zn211 2.020 . S
C206 N205 1.333 . S
C206 C207 1.379 . S
C206 H224 0.952 . S
C207 C206 1.379 . S
C207 C208 1.390 . S
C207 H234 0.949 . S
C208 C207 1.390 . S
C208 C209 1.357 . S
C209 C208 1.357 . S
C209 C210 1.370 . S
C209 H235 0.950 . S
C210 N205 1.307 . S
C210 C209 1.370 . S
C210 H228 0.948 . S
Zn211 N205 2.020 . S
Zn211 O220 2.039 . S
Zn211 O226 2.034 . S
Zn211 O230 2.029 . S
Zn211 O232 2.024 . S
C212 O231 1.246 . S
C212 O232 1.249 . S
N213 C214 1.307 . S
N213 C215 1.333 . S
N213 Zn219 2.020 . S
C214 N213 1.307 . S
C214 C218 1.370 . S
C214 H225 0.948 . S
C215 N213 1.333 . S
C215 C216 1.379 . S
C215 H223 0.952 . S
C216 C215 1.379 . S
C216 C217 1.390 . S
C216 H236 0.949 1_556 S
C217 C216 1.390 . S
C217 C218 1.357 . S
C218 C214 1.370 . S
C218 C217 1.357 . S
C218 H237 0.950 . S
Zn219 N213 2.020 . S
Zn219 O222 2.025 . S
Zn219 O227 2.024 . S
Zn219 O229 2.039 1_556 S
Zn219 O231 2.034 . S
O220 C204 1.251 . S
O220 Zn211 2.039 . S
C221 O226 1.246 . S
C221 O227 1.249 . S
O222 C204 1.254 . S
O222 Zn219 2.025 . S
H223 C215 0.952 . S
H224 C206 0.952 . S
H225 C214 0.948 . S
O226 Zn211 2.034 . S
O226 C221 1.246 . S
O227 Zn219 2.024 . S
O227 C221 1.249 . S
H228 C210 0.948 . S
O229 Zn219 2.039 1_554 S
O229 C233 1.251 . S
O230 Zn211 2.029 . S
O230 C233 1.252 1_556 S
O231 C212 1.246 . S
O231 Zn219 2.034 . S
O232 Zn211 2.024 . S
O232 C212 1.249 . S
C233 O229 1.251 . S
C233 O230 1.252 1_554 S
H234 C207 0.949 . S
H235 C209 0.950 . S
H236 C216 0.949 1_554 S
H237 C218 0.950 . S
C238 O254 1.251 . S
C238 O256 1.254 . S
N239 C240 1.333 . S
N239 C244 1.307 . S
N239 Zn245 2.020 . S
C240 N239 1.333 . S
C240 C241 1.379 . S
C240 H258 0.952 . S
C241 C240 1.379 . S
C241 C242 1.390 . S
C241 H268 0.949 . S
C242 C241 1.390 . S
C242 C243 1.357 . S
C243 C242 1.357 . S
C243 C244 1.370 . S
C243 H269 0.950 . S
C244 N239 1.307 . S
C244 C243 1.370 . S
C244 H262 0.948 . S
Zn245 N239 2.020 . S
Zn245 O254 2.039 . S
Zn245 O260 2.034 . S
Zn245 O264 2.029 . S
Zn245 O266 2.024 . S
C246 O265 1.246 . S
C246 O266 1.249 . S
N247 C248 1.307 . S
N247 C249 1.333 . S
N247 Zn253 2.020 . S
C248 N247 1.307 . S
C248 C252 1.370 . S
C248 H259 0.948 . S
C249 N247 1.333 . S
C249 C250 1.379 . S
C249 H257 0.952 . S
C250 C249 1.379 . S
C250 C251 1.390 . S
C250 H270 0.949 1_556 S
C251 C250 1.390 . S
C251 C252 1.357 . S
C252 C248 1.370 . S
C252 C251 1.357 . S
C252 H271 0.950 . S
Zn253 N247 2.020 . S
Zn253 O256 2.025 . S
Zn253 O261 2.024 . S
Zn253 O263 2.039 1_556 S
Zn253 O265 2.034 . S
O254 C238 1.251 . S
O254 Zn245 2.039 . S
C255 O260 1.246 . S
C255 O261 1.249 . S
O256 C238 1.254 . S
O256 Zn253 2.025 . S
H257 C249 0.952 . S
H258 C240 0.952 . S
H259 C248 0.948 . S
O260 Zn245 2.034 . S
O260 C255 1.246 . S
O261 Zn253 2.024 . S
O261 C255 1.249 . S
H262 C244 0.948 . S
O263 Zn253 2.039 1_554 S
O263 C267 1.251 . S
O264 Zn245 2.029 . S
O264 C267 1.252 1_556 S
O265 C246 1.246 . S
O265 Zn253 2.034 . S
O266 Zn245 2.024 . S
O266 C246 1.249 . S
C267 O263 1.251 . S
C267 O264 1.252 1_554 S
H268 C241 0.949 . S
H269 C243 0.950 . S
H270 C250 0.949 1_554 S
H271 C252 0.950 . S
C272 O288 1.251 . S
C272 O290 1.254 . S
N273 C274 1.333 . S
N273 C278 1.307 . S
N273 Zn279 2.020 . S
C274 N273 1.333 . S
C274 C275 1.379 . S
C274 H292 0.952 . S
C275 C274 1.379 . S
C275 C276 1.390 . S
C275 H302 0.949 . S
C276 C275 1.390 . S
C276 C277 1.357 . S
C277 C276 1.357 . S
C277 C278 1.370 . S
C277 H303 0.950 . S
C278 N273 1.307 . S
C278 C277 1.370 . S
C278 H296 0.948 . S
Zn279 N273 2.020 . S
Zn279 O288 2.039 . S
Zn279 O294 2.034 . S
Zn279 O298 2.029 . S
Zn279 O300 2.024 . S
C280 O299 1.246 . S
C280 O300 1.249 . S
N281 C282 1.307 . S
N281 C283 1.333 . S
N281 Zn287 2.020 . S
C282 N281 1.307 . S
C282 C286 1.370 1_655 S
C282 H293 0.948 . S
C283 N281 1.333 . S
C283 C284 1.379 1_655 S
C283 H291 0.952 . S
C284 C283 1.379 1_455 S
C284 C285 1.390 . S
C284 H304 0.949 1_556 S
C285 C284 1.390 . S
C285 C286 1.357 . S
C286 C282 1.370 1_455 S
C286 C285 1.357 . S
C286 H305 0.950 . S
Zn287 N281 2.020 . S
Zn287 O290 2.025 . S
Zn287 O295 2.024 . S
Zn287 O297 2.039 1_556 S
Zn287 O299 2.034 . S
O288 C272 1.251 . S
O288 Zn279 2.039 . S
C289 O294 1.246 . S
C289 O295 1.249 . S
O290 C272 1.254 . S
O290 Zn287 2.025 . S
H291 C283 0.952 . S
H292 C274 0.952 . S
H293 C282 0.948 . S
O294 Zn279 2.034 . S
O294 C289 1.246 . S
O295 Zn287 2.024 . S
O295 C289 1.249 . S
H296 C278 0.948 . S
O297 Zn287 2.039 1_554 S
O297 C301 1.251 . S
O298 Zn279 2.029 . S
O298 C301 1.252 1_556 S
O299 C280 1.246 . S
O299 Zn287 2.034 . S
O300 Zn279 2.024 . S
O300 C280 1.249 . S
C301 O297 1.251 . S
C301 O298 1.252 1_554 S
H302 C275 0.949 . S
H303 C277 0.950 . S
H304 C284 0.949 1_554 S
H305 C286 0.950 . S
C306 O322 1.251 . S
C306 O324 1.254 . S
N307 C308 1.333 . S
N307 C312 1.307 . S
N307 Zn313 2.020 . S
C308 N307 1.333 . S
C308 C309 1.379 . S
C308 H326 0.952 . S
C309 C308 1.379 . S
C309 C310 1.390 . S
C309 H336 0.949 . S
C310 C309 1.390 . S
C310 C311 1.357 . S
C311 C310 1.357 . S
C311 C312 1.370 . S
C311 H337 0.950 . S
C312 N307 1.307 . S
C312 C311 1.370 . S
C312 H330 0.948 . S
Zn313 N307 2.020 . S
Zn313 O322 2.039 . S
Zn313 O328 2.034 . S
Zn313 O332 2.025 1_556 S
Zn313 O334 2.024 . S
C314 O333 1.246 . S
C314 O334 1.249 . S
N315 C316 1.307 . S
N315 C317 1.333 . S
N315 Zn321 2.020 . S
C316 N315 1.307 . S
C316 C320 1.370 . S
C316 H327 0.948 . S
C317 N315 1.333 . S
C317 C318 1.379 . S
C317 H325 0.952 1_556 S
C318 C317 1.379 . S
C318 C319 1.390 . S
C318 H338 0.949 1_556 S
C319 C318 1.390 . S
C319 C320 1.357 . S
C320 C316 1.370 . S
C320 C319 1.357 . S
C320 H339 0.950 . S
Zn321 N315 2.020 . S
Zn321 O324 2.025 . S
Zn321 O329 2.024 . S
Zn321 O331 2.039 1_556 S
Zn321 O333 2.034 . S
O322 C306 1.251 . S
O322 Zn313 2.039 . S
C323 O328 1.246 . S
C323 O329 1.249 . S
O324 C306 1.254 . S
O324 Zn321 2.025 . S
H325 C317 0.952 1_554 S
H326 C308 0.952 . S
H327 C316 0.948 . S
O328 Zn313 2.034 . S
O328 C323 1.246 . S
O329 Zn321 2.024 . S
O329 C323 1.249 . S
H330 C312 0.948 . S
O331 Zn321 2.039 1_554 S
O331 C335 1.251 . S
O332 Zn313 2.025 1_554 S
O332 C335 1.254 . S
O333 C314 1.246 . S
O333 Zn321 2.034 . S
O334 Zn313 2.024 . S
O334 C314 1.249 . S
C335 O331 1.251 . S
C335 O332 1.254 . S
H336 C309 0.949 . S
H337 C311 0.950 . S
H338 C318 0.949 1_554 S
H339 C320 0.950 . S
C340 O356 1.251 . S
C340 O358 1.254 . S
N341 C342 1.333 . S
N341 C346 1.307 . S
N341 Zn347 2.020 . S
C342 N341 1.333 . S
C342 C343 1.379 . S
C342 H360 0.952 . S
C343 C342 1.379 . S
C343 C344 1.390 . S
C343 H370 0.949 . S
C344 C343 1.390 . S
C344 C345 1.357 . S
C345 C344 1.357 . S
C345 C346 1.370 . S
C345 H371 0.950 . S
C346 N341 1.307 . S
C346 C345 1.370 . S
C346 H364 0.948 . S
Zn347 N341 2.020 . S
Zn347 O356 2.039 . S
Zn347 O362 2.034 . S
Zn347 O366 2.025 1_556 S
Zn347 O368 2.024 . S
C348 O367 1.246 . S
C348 O368 1.249 . S
N349 C350 1.307 . S
N349 C351 1.333 . S
N349 Zn355 2.020 . S
C350 N349 1.307 . S
C350 C354 1.370 . S
C350 H361 0.948 . S
C351 N349 1.333 . S
C351 C352 1.379 . S
C351 H359 0.952 1_556 S
C352 C351 1.379 . S
C352 C353 1.390 . S
C352 H372 0.949 1_556 S
C353 C352 1.390 . S
C353 C354 1.357 . S
C354 C350 1.370 . S
C354 C353 1.357 . S
C354 H373 0.950 . S
Zn355 N349 2.020 . S
Zn355 O358 2.025 . S
Zn355 O363 2.024 . S
Zn355 O365 2.039 1_556 S
Zn355 O367 2.034 . S
O356 C340 1.251 . S
O356 Zn347 2.039 . S
C357 O362 1.246 . S
C357 O363 1.249 . S
O358 C340 1.254 . S
O358 Zn355 2.025 . S
H359 C351 0.952 1_554 S
H360 C342 0.952 . S
H361 C350 0.948 . S
O362 Zn347 2.034 . S
O362 C357 1.246 . S
O363 Zn355 2.024 . S
O363 C357 1.249 . S
H364 C346 0.948 . S
O365 Zn355 2.039 1_554 S
O365 C369 1.251 . S
O366 Zn347 2.025 1_554 S
O366 C369 1.254 . S
O367 C348 1.246 . S
O367 Zn355 2.034 . S
O368 Zn347 2.024 . S
O368 C348 1.249 . S
C369 O365 1.251 . S
C369 O366 1.254 . S
H370 C343 0.949 . S
H371 C345 0.950 . S
H372 C352 0.949 1_554 S
H373 C354 0.950 . S
C374 O390 1.251 . S
C374 O392 1.254 . S
N375 C376 1.333 . S
N375 C380 1.307 . S
N375 Zn381 2.020 . S
C376 N375 1.333 . S
C376 C377 1.379 . S
C376 H394 0.952 . S
C377 C376 1.379 . S
C377 C378 1.390 . S
C377 H404 0.949 . S
C378 C377 1.390 . S
C378 C379 1.357 . S
C379 C378 1.357 . S
C379 C380 1.370 . S
C379 H405 0.950 . S
C380 N375 1.307 . S
C380 C379 1.370 . S
C380 H398 0.948 . S
Zn381 N375 2.020 . S
Zn381 O390 2.039 . S
Zn381 O396 2.034 . S
Zn381 O400 2.025 1_556 S
Zn381 O402 2.024 . S
C382 O401 1.246 . S
C382 O402 1.249 . S
N383 C384 1.307 . S
N383 C385 1.333 . S
N383 Zn389 2.020 . S
C384 N383 1.307 . S
C384 C388 1.370 . S
C384 H395 0.948 . S
C385 N383 1.333 . S
C385 C386 1.379 . S
C385 H393 0.952 1_556 S
C386 C385 1.379 . S
C386 C387 1.390 . S
C386 H406 0.949 1_556 S
C387 C386 1.390 . S
C387 C388 1.357 . S
C388 C384 1.370 . S
C388 C387 1.357 . S
C388 H407 0.950 . S
Zn389 N383 2.020 . S
Zn389 O392 2.025 . S
Zn389 O397 2.024 . S
Zn389 O399 2.039 1_556 S
Zn389 O401 2.034 . S
O390 C374 1.251 . S
O390 Zn381 2.039 . S
C391 O396 1.246 . S
C391 O397 1.249 . S
O392 C374 1.254 . S
O392 Zn389 2.025 . S
H393 C385 0.952 1_554 S
H394 C376 0.952 . S
H395 C384 0.948 . S
O396 Zn381 2.034 . S
O396 C391 1.246 . S
O397 Zn389 2.024 . S
O397 C391 1.249 . S
H398 C380 0.948 . S
O399 Zn389 2.039 1_554 S
O399 C403 1.251 . S
O400 Zn381 2.025 1_554 S
O400 C403 1.254 . S
O401 C382 1.246 . S
O401 Zn389 2.034 . S
O402 Zn381 2.024 . S
O402 C382 1.249 . S
C403 O399 1.251 . S
C403 O400 1.254 . S
H404 C377 0.949 . S
H405 C379 0.950 . S
H406 C386 0.949 1_554 S
H407 C388 0.950 . S
C408 O424 1.251 . S
C408 O426 1.254 . S
N409 C410 1.333 . S
N409 C414 1.307 . S
N409 Zn415 2.020 . S
C410 N409 1.333 . S
C410 C411 1.379 . S
C410 H428 0.952 1_554 S
C411 C410 1.379 . S
C411 C412 1.390 . S
C411 H438 0.949 1_554 S
C412 C411 1.390 . S
C412 C413 1.357 . S
C413 C412 1.357 . S
C413 C414 1.370 . S
C413 H439 0.950 . S
C414 N409 1.307 . S
C414 C413 1.370 . S
C414 H432 0.948 . S
Zn415 N409 2.020 . S
Zn415 O424 2.039 1_554 S
Zn415 O430 2.034 . S
Zn415 O434 2.025 . S
Zn415 O436 2.024 . S
C416 O435 1.246 . S
C416 O436 1.249 . S
N417 C418 1.307 . S
N417 C419 1.333 . S
N417 Zn423 2.020 . S
C418 N417 1.307 . S
C418 C422 1.370 . S
C418 H429 0.948 . S
C419 N417 1.333 . S
C419 C420 1.379 . S
C419 H427 0.952 . S
C420 C419 1.379 . S
C420 C421 1.390 . S
C420 H440 0.949 . S
C421 C420 1.390 . S
C421 C422 1.357 . S
C422 C418 1.370 . S
C422 C421 1.357 . S
C422 H441 0.950 . S
Zn423 N417 2.020 . S
Zn423 O426 2.025 1_554 S
Zn423 O431 2.024 . S
Zn423 O433 2.039 . S
Zn423 O435 2.034 . S
O424 C408 1.251 . S
O424 Zn415 2.039 1_556 S
C425 O430 1.246 . S
C425 O431 1.249 . S
O426 C408 1.254 . S
O426 Zn423 2.025 1_556 S
H427 C419 0.952 . S
H428 C410 0.952 1_556 S
H429 C418 0.948 . S
O430 Zn415 2.034 . S
O430 C425 1.246 . S
O431 Zn423 2.024 . S
O431 C425 1.249 . S
H432 C414 0.948 . S
O433 Zn423 2.039 . S
O433 C437 1.251 . S
O434 Zn415 2.025 . S
O434 C437 1.254 . S
O435 C416 1.246 . S
O435 Zn423 2.034 . S
O436 Zn415 2.024 . S
O436 C416 1.249 . S
C437 O433 1.251 . S
C437 O434 1.254 . S
H438 C411 0.949 1_556 S
H439 C413 0.950 . S
H440 C420 0.949 . S
H441 C422 0.950 . S
C442 O458 1.251 . S
C442 O460 1.254 . S
N443 C444 1.333 . S
N443 C448 1.307 . S
N443 Zn449 2.020 . S
C444 N443 1.333 . S
C444 C445 1.379 . S
C444 H462 0.952 1_554 S
C445 C444 1.379 . S
C445 C446 1.390 . S
C445 H472 0.949 1_554 S
C446 C445 1.390 . S
C446 C447 1.357 . S
C447 C446 1.357 . S
C447 C448 1.370 . S
C447 H473 0.950 . S
C448 N443 1.307 . S
C448 C447 1.370 . S
C448 H466 0.948 . S
Zn449 N443 2.020 . S
Zn449 O458 2.039 1_554 S
Zn449 O464 2.034 . S
Zn449 O468 2.025 . S
Zn449 O470 2.024 . S
C450 O469 1.246 . S
C450 O470 1.249 . S
N451 C452 1.307 . S
N451 C453 1.333 . S
N451 Zn457 2.020 . S
C452 N451 1.307 . S
C452 C456 1.370 . S
C452 H463 0.948 . S
C453 N451 1.333 . S
C453 C454 1.379 . S
C453 H461 0.952 . S
C454 C453 1.379 . S
C454 C455 1.390 . S
C454 H474 0.949 . S
C455 C454 1.390 . S
C455 C456 1.357 . S
C456 C452 1.370 . S
C456 C455 1.357 . S
C456 H475 0.950 . S
Zn457 N451 2.020 . S
Zn457 O460 2.025 1_554 S
Zn457 O465 2.024 . S
Zn457 O467 2.039 . S
Zn457 O469 2.034 . S
O458 C442 1.251 . S
O458 Zn449 2.039 1_556 S
C459 O464 1.246 . S
C459 O465 1.249 . S
O460 C442 1.254 . S
O460 Zn457 2.025 1_556 S
H461 C453 0.952 . S
H462 C444 0.952 1_556 S
H463 C452 0.948 . S
O464 Zn449 2.034 . S
O464 C459 1.246 . S
O465 Zn457 2.024 . S
O465 C459 1.249 . S
H466 C448 0.948 . S
O467 Zn457 2.039 . S
O467 C471 1.251 . S
O468 Zn449 2.025 . S
O468 C471 1.254 . S
O469 C450 1.246 . S
O469 Zn457 2.034 . S
O470 Zn449 2.024 . S
O470 C450 1.249 . S
C471 O467 1.251 . S
C471 O468 1.254 . S
H472 C445 0.949 1_556 S
H473 C447 0.950 . S
H474 C454 0.949 . S
H475 C456 0.950 . S
C476 O492 1.251 . S
C476 O494 1.254 . S
N477 C478 1.333 . S
N477 C482 1.307 . S
N477 Zn483 2.020 . S
C478 N477 1.333 . S
C478 C479 1.379 . S
C478 H496 0.952 1_554 S
C479 C478 1.379 . S
C479 C480 1.390 . S
C479 H506 0.949 1_554 S
C480 C479 1.390 . S
C480 C481 1.357 . S
C481 C480 1.357 . S
C481 C482 1.370 . S
C481 H507 0.950 . S
C482 N477 1.307 . S
C482 C481 1.370 . S
C482 H500 0.948 . S
Zn483 N477 2.020 . S
Zn483 O492 2.039 1_554 S
Zn483 O498 2.034 . S
Zn483 O502 2.025 . S
Zn483 O504 2.024 . S
C484 O503 1.246 . S
C484 O504 1.249 . S
N485 C486 1.307 . S
N485 C487 1.333 . S
N485 Zn491 2.020 . S
C486 N485 1.307 . S
C486 C490 1.370 . S
C486 H497 0.948 . S
C487 N485 1.333 . S
C487 C488 1.379 . S
C487 H495 0.952 . S
C488 C487 1.379 . S
C488 C489 1.390 . S
C488 H508 0.949 . S
C489 C488 1.390 . S
C489 C490 1.357 . S
C490 C486 1.370 . S
C490 C489 1.357 . S
C490 H509 0.950 . S
Zn491 N485 2.020 . S
Zn491 O494 2.025 1_554 S
Zn491 O499 2.024 . S
Zn491 O501 2.039 . S
Zn491 O503 2.034 . S
O492 C476 1.251 . S
O492 Zn483 2.039 1_556 S
C493 O498 1.246 . S
C493 O499 1.249 . S
O494 C476 1.254 . S
O494 Zn491 2.025 1_556 S
H495 C487 0.952 . S
H496 C478 0.952 1_556 S
H497 C486 0.948 . S
O498 Zn483 2.034 . S
O498 C493 1.246 . S
O499 Zn491 2.024 . S
O499 C493 1.249 . S
H500 C482 0.948 . S
O501 Zn491 2.039 . S
O501 C505 1.251 . S
O502 Zn483 2.025 . S
O502 C505 1.254 . S
O503 C484 1.246 . S
O503 Zn491 2.034 . S
O504 Zn483 2.024 . S
O504 C484 1.249 . S
C505 O501 1.251 . S
C505 O502 1.254 . S
H506 C479 0.949 1_556 S
H507 C481 0.950 . S
H508 C488 0.949 . S
H509 C490 0.950 . S
C510 O526 1.251 . S
C510 O528 1.252 1_556 S
N511 C512 1.333 . S
N511 C516 1.307 . S
N511 Zn517 2.020 . S
C512 N511 1.333 . S
C512 C513 1.379 . S
C512 H530 0.952 . S
C513 C512 1.379 . S
C513 C514 1.390 . S
C513 H540 0.949 1_554 S
C514 C513 1.390 . S
C514 C515 1.357 . S
C515 C514 1.357 . S
C515 C516 1.370 . S
C515 H541 0.950 . S
C516 N511 1.307 . S
C516 C515 1.370 . S
C516 H534 0.948 . S
Zn517 N511 2.020 . S
Zn517 O526 2.039 1_554 S
Zn517 O532 2.034 . S
Zn517 O536 2.025 . S
Zn517 O538 2.024 . S
C518 O537 1.246 . S
C518 O538 1.249 . S
N519 C520 1.307 . S
N519 C521 1.333 . S
N519 Zn525 2.020 . S
C520 N519 1.307 . S
C520 C524 1.370 . S
C520 H531 0.948 . S
C521 N519 1.333 . S
C521 C522 1.379 . S
C521 H529 0.952 . S
C522 C521 1.379 . S
C522 C523 1.390 . S
C522 H542 0.949 . S
C523 C522 1.390 . S
C523 C524 1.357 . S
C524 C520 1.370 . S
C524 C523 1.357 . S
C524 H543 0.950 . S
Zn525 N519 2.020 . S
Zn525 O528 2.029 . S
Zn525 O533 2.024 . S
Zn525 O535 2.039 . S
Zn525 O537 2.034 . S
O526 C510 1.251 . S
O526 Zn517 2.039 1_556 S
C527 O532 1.246 . S
C527 O533 1.249 . S
O528 C510 1.252 1_554 S
O528 Zn525 2.029 . S
H529 C521 0.952 . S
H530 C512 0.952 . S
H531 C520 0.948 . S
O532 Zn517 2.034 . S
O532 C527 1.246 . S
O533 Zn525 2.024 . S
O533 C527 1.249 . S
H534 C516 0.948 . S
O535 Zn525 2.039 . S
O535 C539 1.251 . S
O536 Zn517 2.025 . S
O536 C539 1.254 . S
O537 C518 1.246 . S
O537 Zn525 2.034 . S
O538 Zn517 2.024 . S
O538 C518 1.249 . S
C539 O535 1.251 . S
C539 O536 1.254 . S
H540 C513 0.949 1_556 S
H541 C515 0.950 . S
H542 C522 0.949 . S
H543 C524 0.950 . S
C544 O560 1.251 . S
C544 O562 1.252 1_556 S
N545 C546 1.333 . S
N545 C550 1.307 . S
N545 Zn551 2.020 . S
C546 N545 1.333 . S
C546 C547 1.379 1_565 S
C546 H564 0.952 . S
C547 C546 1.379 1_545 S
C547 C548 1.390 . S
C547 H574 0.949 1_554 S
C548 C547 1.390 . S
C548 C549 1.357 . S
C549 C548 1.357 . S
C549 C550 1.370 1_545 S
C549 H575 0.950 . S
C550 N545 1.307 . S
C550 C549 1.370 1_565 S
C550 H568 0.948 . S
Zn551 N545 2.020 . S
Zn551 O560 2.039 1_554 S
Zn551 O566 2.034 . S
Zn551 O570 2.025 . S
Zn551 O572 2.024 . S
C552 O571 1.246 . S
C552 O572 1.249 . S
N553 C554 1.307 . S
N553 C555 1.333 . S
N553 Zn559 2.020 . S
C554 N553 1.307 . S
C554 C558 1.370 . S
C554 H565 0.948 . S
C555 N553 1.333 . S
C555 C556 1.379 . S
C555 H563 0.952 . S
C556 C555 1.379 . S
C556 C557 1.390 . S
C556 H576 0.949 . S
C557 C556 1.390 . S
C557 C558 1.357 . S
C558 C554 1.370 . S
C558 C557 1.357 . S
C558 H577 0.950 . S
Zn559 N553 2.020 . S
Zn559 O562 2.029 . S
Zn559 O567 2.024 . S
Zn559 O569 2.039 . S
Zn559 O571 2.034 . S
O560 C544 1.251 . S
O560 Zn551 2.039 1_556 S
C561 O566 1.246 . S
C561 O567 1.249 . S
O562 C544 1.252 1_554 S
O562 Zn559 2.029 . S
H563 C555 0.952 . S
H564 C546 0.952 . S
H565 C554 0.948 . S
O566 Zn551 2.034 . S
O566 C561 1.246 . S
O567 Zn559 2.024 . S
O567 C561 1.249 . S
H568 C550 0.948 . S
O569 Zn559 2.039 . S
O569 C573 1.251 . S
O570 Zn551 2.025 . S
O570 C573 1.254 . S
O571 C552 1.246 . S
O571 Zn559 2.034 . S
O572 Zn551 2.024 . S
O572 C552 1.249 . S
C573 O569 1.251 . S
C573 O570 1.254 . S
H574 C547 0.949 1_556 S
H575 C549 0.950 . S
H576 C556 0.949 . S
H577 C558 0.950 . S
C578 O594 1.251 . S
C578 O596 1.253 1_556 S
N579 C580 1.333 . S
N579 C584 1.307 . S
N579 Zn585 2.020 . S
C580 N579 1.333 . S
C580 C581 1.379 . S
C580 H598 0.952 . S
C581 C580 1.379 . S
C581 C582 1.390 . S
C581 H608 0.949 1_554 S
C582 C581 1.390 . S
C582 C583 1.357 . S
C583 C582 1.357 . S
C583 C584 1.370 . S
C583 H609 0.950 . S
C584 N579 1.307 . S
C584 C583 1.370 . S
C584 H602 0.948 . S
Zn585 N579 2.020 . S
Zn585 O594 2.039 1_554 S
Zn585 O600 2.034 . S
Zn585 O604 2.025 . S
Zn585 O606 2.024 . S
C586 O605 1.246 . S
C586 O606 1.249 . S
N587 C588 1.307 . S
N587 C589 1.333 . S
N587 Zn593 2.020 . S
C588 N587 1.307 . S
C588 C592 1.370 . S
C588 H599 0.948 . S
C589 N587 1.333 . S
C589 C590 1.379 . S
C589 H597 0.952 . S
C590 C589 1.379 . S
C590 C591 1.390 . S
C590 H610 0.949 . S
C591 C590 1.390 . S
C591 C592 1.357 . S
C592 C588 1.370 . S
C592 C591 1.357 . S
C592 H611 0.950 . S
Zn593 N587 2.020 . S
Zn593 O596 2.028 . S
Zn593 O601 2.024 . S
Zn593 O603 2.039 . S
Zn593 O605 2.034 . S
O594 C578 1.251 . S
O594 Zn585 2.039 1_556 S
C595 O600 1.246 . S
C595 O601 1.249 . S
O596 C578 1.253 1_554 S
O596 Zn593 2.028 . S
H597 C589 0.952 . S
H598 C580 0.952 . S
H599 C588 0.948 . S
O600 Zn585 2.034 . S
O600 C595 1.246 . S
O601 Zn593 2.024 . S
O601 C595 1.249 . S
H602 C584 0.948 . S
O603 Zn593 2.039 . S
O603 C607 1.251 . S
O604 Zn585 2.025 . S
O604 C607 1.254 . S
O605 C586 1.246 . S
O605 Zn593 2.034 . S
O606 Zn585 2.024 . S
O606 C586 1.249 . S
C607 O603 1.251 . S
C607 O604 1.254 . S
H608 C581 0.949 1_556 S
H609 C583 0.950 . S
H610 C590 0.949 . S
H611 C592 0.950 . S
C612 C613 1.369 . S
C612 C614 1.419 . S
C612 H616 0.930 . S
C613 C612 1.369 . S
C613 C622 1.429 . S
C614 C612 1.419 . S
C614 C615 1.363 . S
C614 H617 0.929 . S
C615 C614 1.363 . S
C615 C621 1.428 . S
H616 C612 0.930 . S
H617 C614 0.929 . S
S618 N619 1.613 . S
S618 N620 1.610 . S
N619 S618 1.613 . S
N619 C622 1.350 . S
N620 S618 1.610 . S
N620 C621 1.351 . S
C621 C615 1.428 . S
C621 N620 1.351 . S
C621 C622 1.434 . S
C622 C613 1.429 . S
C622 N619 1.350 . S
C622 C621 1.434 . S
C623 C624 1.369 . S
C623 C625 1.419 . S
C623 H627 0.930 . S
C624 C623 1.369 . S
C624 C633 1.429 . S
C625 C623 1.419 . S
C625 C626 1.363 . S
C625 H628 0.929 . S
C626 C625 1.363 . S
C626 C632 1.428 . S
H627 C623 0.930 . S
H628 C625 0.929 . S
S629 N630 1.613 . S
S629 N631 1.610 . S
N630 S629 1.613 . S
N630 C633 1.350 . S
N631 S629 1.610 . S
N631 C632 1.351 . S
C632 C626 1.428 . S
C632 N631 1.351 . S
C632 C633 1.434 . S
C633 C624 1.429 . S
C633 N630 1.350 . S
C633 C632 1.434 . S
C634 C635 1.369 . S
C634 C636 1.419 . S
C634 H638 0.930 1_565 S
C635 C634 1.369 . S
C635 C644 1.429 . S
C636 C634 1.419 . S
C636 C637 1.363 . S
C636 H639 0.929 . S
C637 C636 1.363 . S
C637 C643 1.428 . S
H638 C634 0.930 1_545 S
H639 C636 0.929 . S
S640 N641 1.613 . S
S640 N642 1.610 . S
N641 S640 1.613 . S
N641 C644 1.350 . S
N642 S640 1.610 . S
N642 C643 1.351 . S
C643 C637 1.428 . S
C643 N642 1.351 . S
C643 C644 1.434 . S
C644 C635 1.429 . S
C644 N641 1.350 . S
C644 C643 1.434 . S
C645 C646 1.369 . S
C645 C647 1.419 . S
C645 H649 0.930 . S
C646 C645 1.369 . S
C646 C655 1.429 . S
C647 C645 1.419 . S
C647 C648 1.363 . S
C647 H650 0.929 . S
C648 C647 1.363 . S
C648 C654 1.428 . S
H649 C645 0.930 . S
H650 C647 0.929 . S
S651 N652 1.613 . S
S651 N653 1.610 . S
N652 S651 1.613 . S
N652 C655 1.350 . S
N653 S651 1.610 . S
N653 C654 1.351 . S
C654 C648 1.428 . S
C654 N653 1.351 . S
C654 C655 1.434 . S
C655 C646 1.429 . S
C655 N652 1.350 . S
C655 C654 1.434 . S
C656 C657 1.369 . S
C656 C658 1.419 . S
C656 H660 0.930 . S
C657 C656 1.369 . S
C657 C666 1.429 . S
C658 C656 1.419 . S
C658 C659 1.363 . S
C658 H661 0.929 . S
C659 C658 1.363 . S
C659 C665 1.428 . S
H660 C656 0.930 . S
H661 C658 0.929 . S
S662 N663 1.613 . S
S662 N664 1.610 . S
N663 S662 1.613 . S
N663 C666 1.350 . S
N664 S662 1.610 . S
N664 C665 1.351 . S
C665 C659 1.428 . S
C665 N664 1.351 . S
C665 C666 1.434 . S
C666 C657 1.429 . S
C666 N663 1.350 . S
C666 C665 1.434 . S
C667 C668 1.369 . S
C667 C669 1.419 . S
C667 H671 0.930 . S
C668 C667 1.369 . S
C668 C677 1.429 . S
C669 C667 1.419 . S
C669 C670 1.363 . S
C669 H672 0.929 . S
C670 C669 1.363 . S
C670 C676 1.428 . S
H671 C667 0.930 . S
H672 C669 0.929 . S
S673 N674 1.613 . S
S673 N675 1.610 . S
N674 S673 1.613 . S
N674 C677 1.350 . S
N675 S673 1.610 . S
N675 C676 1.351 . S
C676 C670 1.428 . S
C676 N675 1.351 . S
C676 C677 1.434 . S
C677 C668 1.429 . S
C677 N674 1.350 . S
C677 C676 1.434 . S
C678 C679 1.403 . S
C678 C680 1.428 . S
C678 H682 0.886 1_655 S
C679 C678 1.403 . S
C679 C688 1.429 . S
C680 C678 1.428 . S
C680 C681 1.363 . S
C680 H683 0.929 . S
C681 C680 1.363 . S
C681 C687 1.428 . S
H682 C678 0.886 1_455 S
H683 C680 0.929 . S
S684 N685 1.613 . S
S684 N686 1.610 . S
N685 S684 1.613 . S
N685 C688 1.350 . S
N686 S684 1.610 . S
N686 C687 1.351 . S
C687 C681 1.428 . S
C687 N686 1.351 . S
C687 C688 1.434 . S
C688 C679 1.429 . S
C688 N685 1.350 . S
C688 C687 1.434 . S
C689 C690 1.369 . S
C689 C691 1.419 . S
C689 H693 0.930 . S
C690 C689 1.369 . S
C690 C699 1.429 . S
C691 C689 1.419 . S
C691 C692 1.363 . S
C691 H694 0.929 . S
C692 C691 1.363 . S
C692 C698 1.428 . S
H693 C689 0.930 . S
H694 C691 0.929 . S
S695 N696 1.613 . S
S695 N697 1.610 . S
N696 S695 1.613 . S
N696 C699 1.350 . S
N697 S695 1.610 . S
N697 C698 1.351 . S
C698 C692 1.428 . S
C698 N697 1.351 . S
C698 C699 1.434 . S
C699 C690 1.429 . S
C699 N696 1.350 . S
C699 C698 1.434 . S
C700 C701 1.369 . S
C700 C702 1.419 . S
C700 H704 0.930 . S
C701 C700 1.369 . S
C701 C710 1.429 . S
C702 C700 1.419 . S
C702 C703 1.363 . S
C702 H705 0.929 . S
C703 C702 1.363 . S
C703 C709 1.428 . S
H704 C700 0.930 . S
H705 C702 0.929 . S
S706 N707 1.613 . S
S706 N708 1.610 . S
N707 S706 1.613 . S
N707 C710 1.350 . S
N708 S706 1.610 . S
N708 C709 1.351 . S
C709 C703 1.428 . S
C709 N708 1.351 . S
C709 C710 1.434 . S
C710 C701 1.429 . S
C710 N707 1.350 . S
C710 C709 1.434 . S
C711 C712 1.369 . S
C711 C713 1.419 . S
C711 H715 0.930 . S
C712 C711 1.369 . S
C712 C721 1.429 . S
C713 C711 1.419 . S
C713 C714 1.363 . S
C713 H716 0.929 . S
C714 C713 1.363 . S
C714 C720 1.428 . S
H715 C711 0.930 . S
H716 C713 0.929 . S
S717 N718 1.613 1_545 S
S717 N719 1.610 1_545 S
N718 S717 1.613 1_565 S
N718 C721 1.350 . S
N719 S717 1.610 1_565 S
N719 C720 1.351 . S
C720 C714 1.428 . S
C720 N719 1.351 . S
C720 C721 1.434 . S
C721 C712 1.429 . S
C721 N718 1.350 . S
C721 C720 1.434 . S
C722 C723 1.369 . S
C722 C724 1.419 . S
C722 H726 0.930 . S
C723 C722 1.369 . S
C723 C732 1.429 . S
C724 C722 1.419 . S
C724 C725 1.363 . S
C724 H727 0.929 . S
C725 C724 1.363 . S
C725 C731 1.428 . S
H726 C722 0.930 . S
H727 C724 0.929 . S
S728 N729 1.613 . S
S728 N730 1.610 . S
N729 S728 1.613 . S
N729 C732 1.350 . S
N730 S728 1.610 . S
N730 C731 1.351 . S
C731 C725 1.428 . S
C731 N730 1.351 . S
C731 C732 1.434 . S
C732 C723 1.429 . S
C732 N729 1.350 . S
C732 C731 1.434 . S
C733 C734 1.369 . S
C733 C735 1.419 . S
C733 H737 0.930 . S
C734 C733 1.369 . S
C734 C743 1.429 . S
C735 C733 1.419 . S
C735 C736 1.363 . S
C735 H738 0.929 . S
C736 C735 1.363 . S
C736 C742 1.428 . S
H737 C733 0.930 . S
H738 C735 0.929 . S
S739 N740 1.613 . S
S739 N741 1.610 . S
N740 S739 1.613 . S
N740 C743 1.350 . S
N741 S739 1.610 . S
N741 C742 1.351 . S
C742 C736 1.428 . S
C742 N741 1.351 . S
C742 C743 1.434 . S
C743 C734 1.429 . S
C743 N740 1.350 . S
C743 C742 1.434 . S
C744 C745 1.369 . S
C744 C746 1.419 1_556 S
C744 H748 0.930 . S
C745 C744 1.369 . S
C745 C754 1.429 . S
C746 C744 1.419 1_554 S
C746 C747 1.363 . S
C746 H749 0.929 . S
C747 C746 1.363 . S
C747 C753 1.428 . S
H748 C744 0.930 . S
H749 C746 0.929 . S
S750 N751 1.613 1_554 S
S750 N752 1.610 . S
N751 S750 1.613 1_556 S
N751 C754 1.350 . S
N752 S750 1.610 . S
N752 C753 1.351 . S
C753 C747 1.428 . S
C753 N752 1.351 . S
C753 C754 1.434 1_554 S
C754 C745 1.429 . S
C754 N751 1.350 . S
C754 C753 1.434 1_556 S
C755 C756 1.369 1_554 S
C755 C757 1.419 . S
C755 H759 0.930 . S
C756 C755 1.369 1_556 S
C756 C765 1.429 . S
C757 C755 1.419 . S
C757 C758 1.363 . S
C757 H760 0.929 . S
C758 C757 1.363 . S
C758 C764 1.428 1_554 S
H759 C755 0.930 . S
H760 C757 0.929 . S
S761 N762 1.613 . S
S761 N763 1.610 . S
N762 S761 1.613 . S
N762 C765 1.350 . S
N763 S761 1.610 . S
N763 C764 1.351 . S
C764 C758 1.428 1_556 S
C764 N763 1.351 . S
C764 C765 1.434 . S
C765 C756 1.429 . S
C765 N762 1.350 . S
C765 C764 1.434 . S
C766 C767 1.369 . S
C766 C768 1.419 1_545 S
C766 H770 0.930 . S
C767 C766 1.369 . S
C767 C776 1.429 1_556 S
C768 C766 1.419 1_565 S
C768 C769 1.363 1_556 S
C768 H771 0.929 . S
C769 C768 1.363 1_554 S
C769 C775 1.428 1_565 S
H770 C766 0.930 . S
H771 C768 0.929 . S
S772 N773 1.613 . S
S772 N774 1.610 . S
N773 S772 1.613 . S
N773 C776 1.350 . S
N774 S772 1.610 . S
N774 C775 1.351 . S
C775 C769 1.428 1_545 S
C775 N774 1.351 . S
C775 C776 1.434 . S
C776 C767 1.429 1_554 S
C776 N773 1.350 . S
C776 C775 1.434 . S
C777 C778 1.369 . S
C777 C779 1.419 1_556 S
C777 H781 0.930 . S
C778 C777 1.369 . S
C778 C787 1.429 . S
C779 C777 1.419 1_554 S
C779 C780 1.363 . S
C779 H782 0.929 . S
C780 C779 1.363 . S
C780 C786 1.428 . S
H781 C777 0.930 . S
H782 C779 0.929 . S
S783 N784 1.613 . S
S783 N785 1.610 1_556 S
N784 S783 1.613 . S
N784 C787 1.350 . S
N785 S783 1.610 1_554 S
N785 C786 1.351 . S
C786 C780 1.428 . S
C786 N785 1.351 . S
C786 C787 1.434 1_554 S
C787 C778 1.429 . S
C787 N784 1.350 . S
C787 C786 1.434 1_556 S
C788 C789 1.369 . S
C788 C790 1.419 1_455 S
C788 H792 0.930 . S
C789 C788 1.369 . S
C789 C798 1.429 1_554 S
C790 C788 1.419 1_655 S
C790 C791 1.363 1_554 S
C790 H793 0.929 . S
C791 C790 1.363 1_556 S
C791 C797 1.428 1_655 S
H792 C788 0.930 . S
H793 C790 0.929 . S
S794 N795 1.613 . S
S794 N796 1.610 . S
N795 S794 1.613 . S
N795 C798 1.350 . S
N796 S794 1.610 . S
N796 C797 1.351 . S
C797 C791 1.428 1_455 S
C797 N796 1.351 . S
C797 C798 1.434 . S
C798 C789 1.429 1_556 S
C798 N795 1.350 . S
C798 C797 1.434 . S
C799 C800 1.369 . S
C799 C801 1.419 . S
C799 H803 0.930 . S
C800 C799 1.369 . S
C800 C809 1.429 1_554 S
C801 C799 1.419 . S
C801 C802 1.363 1_554 S
C801 H804 0.929 . S
C802 C801 1.363 1_556 S
C802 C808 1.428 . S
H803 C799 0.930 . S
H804 C801 0.929 . S
S805 N806 1.613 . S
S805 N807 1.610 . S
N806 S805 1.613 . S
N806 C809 1.350 . S
N807 S805 1.610 . S
N807 C808 1.351 . S
C808 C802 1.428 . S
C808 N807 1.351 . S
C808 C809 1.434 . S
C809 C800 1.429 1_556 S
C809 N806 1.350 . S
C809 C808 1.434 . S
C810 C811 1.369 . S
C810 C812 1.419 . S
C810 H814 0.930 . S
C811 C810 1.369 . S
C811 C820 1.429 . S
C812 C810 1.419 . S
C812 C813 1.363 . S
C812 H815 0.929 . S
C813 C812 1.363 . S
C813 C819 1.428 . S
H814 C810 0.930 . S
H815 C812 0.929 . S
S816 N817 1.613 . S
S816 N818 1.610 . S
N817 S816 1.613 . S
N817 C820 1.350 . S
N818 S816 1.610 . S
N818 C819 1.351 . S
C819 C813 1.428 . S
C819 N818 1.351 . S
C819 C820 1.434 . S
C820 C811 1.429 . S
C820 N817 1.350 . S
C820 C819 1.434 . S
C821 C822 1.369 . S
C821 C823 1.419 . S
C821 H825 0.920 1_565 S
C822 C821 1.369 . S
C822 C831 1.429 . S
C823 C821 1.419 . S
C823 C824 1.363 . S
C823 H826 0.929 . S
C824 C823 1.363 . S
C824 C830 1.428 . S
H825 C821 0.920 1_545 S
H826 C823 0.929 . S
S827 N828 1.613 . S
S827 N829 1.610 . S
N828 S827 1.613 . S
N828 C831 1.350 . S
N829 S827 1.610 . S
N829 C830 1.351 . S
C830 C824 1.428 . S
C830 N829 1.351 . S
C830 C831 1.434 . S
C831 C822 1.429 . S
C831 N828 1.350 . S
C831 C830 1.434 . S
C832 C833 1.369 . S
C832 C834 1.419 . S
C832 H836 0.930 . S
C833 C832 1.369 . S
C833 C842 1.429 . S
C834 C832 1.419 . S
C834 C835 1.363 . S
C834 H837 0.929 . S
C835 C834 1.363 . S
C835 C841 1.428 . S
H836 C832 0.930 . S
H837 C834 0.929 . S
S838 N839 1.613 . S
S838 N840 1.610 . S
N839 S838 1.613 . S
N839 C842 1.350 . S
N840 S838 1.610 . S
N840 C841 1.351 . S
C841 C835 1.428 . S
C841 N840 1.351 . S
C841 C842 1.434 . S
C842 C833 1.429 . S
C842 N839 1.350 . S
C842 C841 1.434 . S
C843 C844 1.369 . S
C843 C845 1.419 . S
C843 H847 0.930 . S
C844 C843 1.369 . S
C844 C853 1.429 . S
C845 C843 1.419 . S
C845 C846 1.363 . S
C845 H848 0.929 . S
C846 C845 1.363 . S
C846 C852 1.428 . S
H847 C843 0.930 . S
H848 C845 0.929 . S
S849 N850 1.613 . S
S849 N851 1.610 . S
N850 S849 1.613 . S
N850 C853 1.350 . S
N851 S849 1.610 . S
N851 C852 1.351 . S
C852 C846 1.428 . S
C852 N851 1.351 . S
C852 C853 1.434 . S
C853 C844 1.429 . S
C853 N850 1.350 . S
C853 C852 1.434 . S
C854 C855 1.369 . S
C854 C856 1.419 . S
C854 H858 0.930 . S
C855 C854 1.369 . S
C855 C864 1.429 . S
C856 C854 1.419 . S
C856 C857 1.363 . S
C856 H859 0.929 1_655 S
C857 C856 1.363 . S
C857 C863 1.428 . S
H858 C854 0.930 . S
H859 C856 0.929 1_455 S
S860 N861 1.613 . S
S860 N862 1.610 . S
N861 S860 1.613 . S
N861 C864 1.350 . S
N862 S860 1.610 . S
N862 C863 1.351 . S
C863 C857 1.428 . S
C863 N862 1.351 . S
C863 C864 1.434 . S
C864 C855 1.429 . S
C864 N861 1.350 . S
C864 C863 1.434 . S
C865 C866 1.369 . S
C865 C867 1.419 . S
C865 H869 0.930 . S
C866 C865 1.369 . S
C866 C875 1.429 . S
C867 C865 1.419 . S
C867 C868 1.363 . S
C867 H870 0.929 . S
C868 C867 1.363 . S
C868 C874 1.428 . S
H869 C865 0.930 . S
H870 C867 0.929 . S
S871 N872 1.613 . S
S871 N873 1.610 . S
N872 S871 1.613 . S
N872 C875 1.350 . S
N873 S871 1.610 . S
N873 C874 1.351 . S
C874 C868 1.428 . S
C874 N873 1.351 . S
C874 C875 1.434 . S
C875 C866 1.429 . S
C875 N872 1.350 . S
C875 C874 1.434 . S
C876 C877 1.369 . S
C876 C878 1.419 . S
C876 H880 0.930 . S
C877 C876 1.369 . S
C877 C886 1.429 . S
C878 C876 1.419 . S
C878 C879 1.363 . S
C878 H881 0.929 . S
C879 C878 1.363 . S
C879 C885 1.428 . S
H880 C876 0.930 . S
H881 C878 0.929 . S
S882 N883 1.613 1_554 S
S882 N884 1.610 1_554 S
N883 S882 1.613 1_556 S
N883 C886 1.350 . S
N884 S882 1.610 1_556 S
N884 C885 1.351 . S
C885 C879 1.428 . S
C885 N884 1.351 . S
C885 C886 1.434 . S
C886 C877 1.429 . S
C886 N883 1.350 . S
C886 C885 1.434 . S
C887 C888 1.369 . S
C887 C889 1.419 . S
C887 H891 0.930 . S
C888 C887 1.369 . S
C888 C897 1.429 . S
C889 C887 1.419 . S
C889 C890 1.363 . S
C889 H892 0.929 . S
C890 C889 1.363 . S
C890 C896 1.428 . S
H891 C887 0.930 . S
H892 C889 0.929 . S
S893 N894 1.613 . S
S893 N895 1.610 . S
N894 S893 1.613 . S
N894 C897 1.350 . S
N895 S893 1.610 . S
N895 C896 1.351 . S
C896 C890 1.428 . S
C896 N895 1.351 . S
C896 C897 1.434 . S
C897 C888 1.429 . S
C897 N894 1.350 . S
C897 C896 1.434 . S
C898 C899 1.369 . S
C898 C900 1.419 . S
C898 H902 0.930 . S
C899 C898 1.369 . S
C899 C908 1.429 . S
C900 C898 1.419 . S
C900 C901 1.363 . S
C900 H903 0.929 . S
C901 C900 1.363 . S
C901 C907 1.428 . S
H902 C898 0.930 . S
H903 C900 0.929 . S
S904 N905 1.613 . S
S904 N906 1.610 . S
N905 S904 1.613 . S
N905 C908 1.350 . S
N906 S904 1.610 . S
N906 C907 1.351 . S
C907 C901 1.428 . S
C907 N906 1.351 . S
C907 C908 1.434 . S
C908 C899 1.429 . S
C908 N905 1.350 . S
C908 C907 1.434 . S
C909 C910 1.369 . S
C909 C911 1.419 . S
C909 H913 0.930 1_556 S
C910 C909 1.369 . S
C910 C919 1.429 . S
C911 C909 1.419 . S
C911 C912 1.363 . S
C911 H914 0.929 1_556 S
C912 C911 1.363 . S
C912 C918 1.428 . S
H913 C909 0.930 1_554 S
H914 C911 0.929 1_554 S
S915 N916 1.613 . S
S915 N917 1.610 . S
N916 S915 1.613 . S
N916 C919 1.350 . S
N917 S915 1.610 . S
N917 C918 1.351 . S
C918 C912 1.428 . S
C918 N917 1.351 . S
C918 C919 1.434 . S
C919 C910 1.429 . S
C919 N916 1.350 . S
C919 C918 1.434 . S
C920 C921 1.369 . S
C920 C922 1.419 . S
C920 H924 0.930 1_556 S
C921 C920 1.369 . S
C921 C930 1.429 . S
C922 C920 1.419 . S
C922 C923 1.363 . S
C922 H925 0.929 1_556 S
C923 C922 1.363 . S
C923 C929 1.428 . S
H924 C920 0.930 1_554 S
H925 C922 0.929 1_554 S
S926 N927 1.613 . S
S926 N928 1.610 . S
N927 S926 1.613 . S
N927 C930 1.350 . S
N928 S926 1.610 . S
N928 C929 1.351 . S
C929 C923 1.428 . S
C929 N928 1.351 . S
C929 C930 1.434 . S
C930 C921 1.429 . S
C930 N927 1.350 . S
C930 C929 1.434 . S
C931 C932 1.369 . S
C931 C933 1.419 . S
C931 H935 0.930 . S
C932 C931 1.369 . S
C932 C941 1.429 . S
C933 C931 1.419 . S
C933 C934 1.363 . S
C933 H936 0.929 . S
C934 C933 1.363 . S
C934 C940 1.428 . S
H935 C931 0.930 . S
H936 C933 0.929 . S
S937 N938 1.613 . S
S937 N939 1.610 . S
N938 S937 1.613 . S
N938 C941 1.350 . S
N939 S937 1.610 . S
N939 C940 1.351 . S
C940 C934 1.428 . S
C940 N939 1.351 . S
C940 C941 1.434 . S
C941 C932 1.429 . S
C941 N938 1.350 . S
C941 C940 1.434 . S
C942 C943 1.369 . S
C942 C944 1.419 . S
C942 H946 0.930 . S
C943 C942 1.369 . S
C943 C952 1.429 . S
C944 C942 1.419 . S
C944 C945 1.363 . S
C944 H947 0.929 . S
C945 C944 1.363 . S
C945 C951 1.428 1_554 S
H946 C942 0.930 . S
H947 C944 0.929 . S
S948 N949 1.613 . S
S948 N950 1.610 . S
N949 S948 1.613 . S
N949 C952 1.350 1_556 S
N950 S948 1.610 . S
N950 C951 1.351 . S
C951 C945 1.428 1_556 S
C951 N950 1.351 . S
C951 C952 1.434 1_556 S
C952 C943 1.429 . S
C952 N949 1.350 1_554 S
C952 C951 1.434 1_554 S
C953 C954 1.369 . S
C953 C955 1.419 . S
C953 H957 0.930 . S
C954 C953 1.369 . S
C954 C963 1.429 . S
C955 C953 1.419 . S
C955 C956 1.363 . S
C955 H958 0.929 . S
C956 C955 1.363 . S
C956 C962 1.428 . S
H957 C953 0.930 . S
H958 C955 0.929 . S
S959 N960 1.613 . S
S959 N961 1.610 . S
N960 S959 1.613 . S
N960 C963 1.350 . S
N961 S959 1.610 . S
N961 C962 1.351 . S
C962 C956 1.428 . S
C962 N961 1.351 . S
C962 C963 1.434 . S
C963 C954 1.429 . S
C963 N960 1.350 . S
C963 C962 1.434 . S
C964 C965 1.369 . S
C964 C966 1.419 . S
C964 H968 0.930 1_554 S
C965 C964 1.369 . S
C965 C974 1.429 . S
C966 C964 1.419 . S
C966 C967 1.363 . S
C966 H969 0.929 . S
C967 C966 1.363 . S
C967 C973 1.428 . S
H968 C964 0.930 1_556 S
H969 C966 0.929 . S
S970 N971 1.613 . S
S970 N972 1.610 . S
N971 S970 1.613 . S
N971 C974 1.350 . S
N972 S970 1.610 . S
N972 C973 1.351 . S
C973 C967 1.428 . S
C973 N972 1.351 . S
C973 C974 1.434 . S
C974 C965 1.429 . S
C974 N971 1.350 . S
C974 C973 1.434 . S
C975 C976 1.369 . S
C975 C977 1.419 . S
C975 H979 0.930 . S
C976 C975 1.369 . S
C976 C985 1.429 . S
C977 C975 1.419 . S
C977 C978 1.363 . S
C977 H980 0.929 . S
C978 C977 1.363 . S
C978 C984 1.428 . S
H979 C975 0.930 . S
H980 C977 0.929 . S
S981 N982 1.613 . S
S981 N983 1.610 . S
N982 S981 1.613 . S
N982 C985 1.350 . S
N983 S981 1.610 . S
N983 C984 1.351 . S
C984 C978 1.428 . S
C984 N983 1.351 . S
C984 C985 1.434 . S
C985 C976 1.429 . S
C985 N982 1.350 . S
C985 C984 1.434 . S
C986 C987 1.369 . S
C986 C988 1.419 . S
C986 H990 0.930 . S
C987 C986 1.369 . S
C987 C996 1.429 . S
C988 C986 1.419 . S
C988 C989 1.363 . S
C988 H991 0.929 . S
C989 C988 1.363 . S
C989 C995 1.428 . S
H990 C986 0.930 . S
H991 C988 0.929 . S
S992 N993 1.613 . S
S992 N994 1.610 . S
N993 S992 1.613 . S
N993 C996 1.350 . S
N994 S992 1.610 . S
N994 C995 1.351 . S
C995 C989 1.428 . S
C995 N994 1.351 . S
C995 C996 1.434 . S
C996 C987 1.429 . S
C996 N993 1.350 . S
C996 C995 1.434 . S
C997 C998 1.369 . S
C997 C999 1.419 . S
C997 H1001 0.930 . S
C998 C997 1.369 . S
C998 C1007 1.429 . S
C999 C997 1.419 . S
C999 C1000 1.363 . S
C999 H1002 0.929 . S
C1000 C999 1.363 . S
C1000 C1006 1.428 . S
H1001 C997 0.930 . S
H1002 C999 0.929 . S
S1003 N1004 1.613 1_556 S
S1003 N1005 1.610 1_556 S
N1004 S1003 1.613 1_554 S
N1004 C1007 1.350 . S
N1005 S1003 1.610 1_554 S
N1005 C1006 1.351 . S
C1006 C1000 1.428 . S
C1006 N1005 1.351 . S
C1006 C1007 1.434 . S
C1007 C998 1.429 . S
C1007 N1004 1.350 . S
C1007 C1006 1.434 . S
C1008 C1009 1.369 . S
C1008 C1010 1.419 1_554 S
C1008 H1012 0.930 . S
C1009 C1008 1.369 . S
C1009 C1018 1.429 . S
C1010 C1008 1.419 1_556 S
C1010 C1011 1.363 . S
C1010 H1013 0.929 . S
C1011 C1010 1.363 . S
C1011 C1017 1.428 . S
H1012 C1008 0.930 . S
H1013 C1010 0.929 . S
S1014 N1015 1.613 1_556 S
S1014 N1016 1.610 . S
N1015 S1014 1.613 1_554 S
N1015 C1018 1.350 . S
N1016 S1014 1.610 . S
N1016 C1017 1.351 . S
C1017 C1011 1.428 . S
C1017 N1016 1.351 . S
C1017 C1018 1.434 1_556 S
C1018 C1009 1.429 . S
C1018 N1015 1.350 . S
C1018 C1017 1.434 1_554 S
C1019 C1020 1.369 . S
C1019 C1021 1.419 1_554 S
C1019 H1023 0.930 . S
C1020 C1019 1.369 . S
C1020 C1029 1.429 . S
C1021 C1019 1.419 1_556 S
C1021 C1022 1.363 . S
C1021 H1024 0.929 . S
C1022 C1021 1.363 . S
C1022 C1028 1.428 . S
H1023 C1019 0.930 . S
H1024 C1021 0.929 . S
S1025 N1026 1.613 1_556 S
S1025 N1027 1.610 . S
N1026 S1025 1.613 1_554 S
N1026 C1029 1.350 . S
N1027 S1025 1.610 . S
N1027 C1028 1.351 . S
C1028 C1022 1.428 . S
C1028 N1027 1.351 . S
C1028 C1029 1.434 1_556 S
C1029 C1020 1.429 . S
C1029 N1026 1.350 . S
C1029 C1028 1.434 1_554 S
C1030 C1031 1.369 . S
C1030 C1032 1.419 1_554 S
C1030 H1034 0.930 . S
C1031 C1030 1.369 . S
C1031 C1040 1.429 . S
C1032 C1030 1.419 1_556 S
C1032 C1033 1.363 . S
C1032 H1035 0.929 . S
C1033 C1032 1.363 . S
C1033 C1039 1.428 . S
H1034 C1030 0.930 . S
H1035 C1032 0.929 . S
S1036 N1037 1.613 1_556 S
S1036 N1038 1.610 . S
N1037 S1036 1.613 1_554 S
N1037 C1040 1.350 . S
N1038 S1036 1.610 . S
N1038 C1039 1.351 . S
C1039 C1033 1.428 . S
C1039 N1038 1.351 . S
C1039 C1040 1.434 1_556 S
C1040 C1031 1.429 . S
C1040 N1037 1.350 . S
C1040 C1039 1.434 1_554 S
C1041 C1042 1.369 . S
C1041 C1043 1.419 1_556 S
C1041 H1045 0.930 . S
C1042 C1041 1.369 . S
C1042 C1051 1.429 . S
C1043 C1041 1.419 1_554 S
C1043 C1044 1.363 . S
C1043 H1046 0.929 . S
C1044 C1043 1.363 . S
C1044 C1050 1.428 . S
H1045 C1041 0.930 . S
H1046 C1043 0.929 . S
S1047 N1048 1.613 1_554 S
S1047 N1049 1.610 . S
N1048 S1047 1.613 1_556 S
N1048 C1051 1.350 . S
N1049 S1047 1.610 . S
N1049 C1050 1.351 . S
C1050 C1044 1.428 . S
C1050 N1049 1.351 . S
C1050 C1051 1.434 1_554 S
C1051 C1042 1.429 . S
C1051 N1048 1.350 . S
C1051 C1050 1.434 1_556 S
C1052 C1053 1.369 . S
C1052 C1054 1.419 1_554 S
C1052 H1056 0.930 . S
C1053 C1052 1.369 . S
C1053 C1062 1.429 . S
C1054 C1052 1.419 1_556 S
C1054 C1055 1.363 . S
C1054 H1057 0.929 . S
C1055 C1054 1.363 . S
C1055 C1061 1.428 . S
H1056 C1052 0.930 . S
H1057 C1054 0.929 . S
S1058 N1059 1.613 . S
S1058 N1060 1.610 1_554 S
N1059 S1058 1.613 . S
N1059 C1062 1.350 . S
N1060 S1058 1.610 1_556 S
N1060 C1061 1.351 . S
C1061 C1055 1.428 . S
C1061 N1060 1.351 . S
C1061 C1062 1.434 1_556 S
C1062 C1053 1.429 . S
C1062 N1059 1.350 . S
C1062 C1061 1.434 1_554 S
C1063 C1064 1.369 . S
C1063 C1065 1.419 1_554 S
C1063 H1067 0.930 . S
C1064 C1063 1.369 . S
C1064 C1073 1.429 . S
C1065 C1063 1.419 1_556 S
C1065 C1066 1.363 . S
C1065 H1068 0.929 . S
C1066 C1065 1.363 . S
C1066 C1072 1.428 . S
H1067 C1063 0.930 . S
H1068 C1065 0.929 . S
S1069 N1070 1.613 . S
S1069 N1071 1.610 1_554 S
N1070 S1069 1.613 . S
N1070 C1073 1.350 . S
N1071 S1069 1.610 1_556 S
N1071 C1072 1.351 . S
C1072 C1066 1.428 . S
C1072 N1071 1.351 . S
C1072 C1073 1.434 1_556 S
C1073 C1064 1.429 . S
C1073 N1070 1.350 . S
C1073 C1072 1.434 1_554 S
C1074 C1075 1.369 . S
C1074 C1076 1.419 . S
C1074 H1078 0.930 . S
C1075 C1074 1.369 . S
C1075 C1084 1.429 . S
C1076 C1074 1.419 . S
C1076 C1077 1.363 . S
C1076 H1079 0.929 . S
C1077 C1076 1.363 . S
C1077 C1083 1.428 . S
H1078 C1074 0.930 . S
H1079 C1076 0.929 . S
S1080 N1081 1.613 . S
S1080 N1082 1.610 . S
N1081 S1080 1.613 . S
N1081 C1084 1.350 . S
N1082 S1080 1.610 . S
N1082 C1083 1.351 . S
C1083 C1077 1.428 . S
C1083 N1082 1.351 . S
C1083 C1084 1.434 . S
C1084 C1075 1.429 . S
C1084 N1081 1.350 . S
C1084 C1083 1.434 . S
C1085 C1086 1.369 . S
C1085 C1087 1.419 . S
C1085 H1089 0.930 . S
C1086 C1085 1.369 . S
C1086 C1095 1.429 . S
C1087 C1085 1.419 . S
C1087 C1088 1.363 . S
C1087 H1090 0.929 . S
C1088 C1087 1.363 . S
C1088 C1094 1.428 . S
H1089 C1085 0.930 . S
H1090 C1087 0.929 . S
S1091 N1092 1.613 . S
S1091 N1093 1.610 . S
N1092 S1091 1.613 . S
N1092 C1095 1.350 . S
N1093 S1091 1.610 . S
N1093 C1094 1.351 . S
C1094 C1088 1.428 . S
C1094 N1093 1.351 . S
C1094 C1095 1.434 . S
C1095 C1086 1.429 . S
C1095 N1092 1.350 . S
C1095 C1094 1.434 . S
C1096 C1097 1.369 . S
C1096 C1098 1.419 . S
C1096 H1100 0.930 . S
C1097 C1096 1.369 . S
C1097 C1106 1.429 . S
C1098 C1096 1.419 . S
C1098 C1099 1.363 . S
C1098 H1101 0.929 . S
C1099 C1098 1.363 . S
C1099 C1105 1.428 . S
H1100 C1096 0.930 . S
H1101 C1098 0.929 . S
S1102 N1103 1.613 . S
S1102 N1104 1.610 . S
N1103 S1102 1.613 . S
N1103 C1106 1.350 . S
N1104 S1102 1.610 . S
N1104 C1105 1.351 . S
C1105 C1099 1.428 . S
C1105 N1104 1.351 . S
C1105 C1106 1.434 . S
C1106 C1097 1.429 . S
C1106 N1103 1.350 . S
C1106 C1105 1.434 . S
C1107 C1108 1.369 . S
C1107 C1109 1.419 . S
C1107 H1111 0.930 . S
C1108 C1107 1.369 . S
C1108 C1117 1.429 . S
C1109 C1107 1.419 . S
C1109 C1110 1.363 . S
C1109 H1112 0.929 . S
C1110 C1109 1.363 . S
C1110 C1116 1.428 . S
H1111 C1107 0.930 . S
H1112 C1109 0.929 . S
S1113 N1114 1.613 . S
S1113 N1115 1.610 . S
N1114 S1113 1.613 . S
N1114 C1117 1.350 . S
N1115 S1113 1.610 . S
N1115 C1116 1.351 . S
C1116 C1110 1.428 . S
C1116 N1115 1.351 . S
C1116 C1117 1.434 . S
C1117 C1108 1.429 . S
C1117 N1114 1.350 . S
C1117 C1116 1.434 . S
C1118 C1119 1.369 . S
C1118 C1120 1.419 . S
C1118 H1122 0.930 . S
C1119 C1118 1.369 . S
C1119 C1128 1.429 . S
C1120 C1118 1.419 . S
C1120 C1121 1.363 . S
C1120 H1123 0.929 . S
C1121 C1120 1.363 . S
C1121 C1127 1.428 . S
H1122 C1118 0.930 . S
H1123 C1120 0.929 . S
S1124 N1125 1.613 . S
S1124 N1126 1.610 . S
N1125 S1124 1.613 . S
N1125 C1128 1.350 . S
N1126 S1124 1.610 . S
N1126 C1127 1.351 . S
C1127 C1121 1.428 . S
C1127 N1126 1.351 . S
C1127 C1128 1.434 . S
C1128 C1119 1.429 . S
C1128 N1125 1.350 . S
C1128 C1127 1.434 . S
C1129 C1130 1.369 . S
C1129 C1131 1.419 . S
C1129 H1133 0.930 . S
C1130 C1129 1.369 . S
C1130 C1139 1.429 . S
C1131 C1129 1.419 . S
C1131 C1132 1.363 . S
C1131 H1134 0.929 . S
C1132 C1131 1.363 . S
C1132 C1138 1.428 . S
H1133 C1129 0.930 . S
H1134 C1131 0.929 . S
S1135 N1136 1.613 . S
S1135 N1137 1.610 . S
N1136 S1135 1.613 . S
N1136 C1139 1.350 . S
N1137 S1135 1.610 . S
N1137 C1138 1.351 . S
C1138 C1132 1.428 . S
C1138 N1137 1.351 . S
C1138 C1139 1.434 . S
C1139 C1130 1.429 . S
C1139 N1136 1.350 . S
C1139 C1138 1.434 . S
C1140 C1141 1.369 . S
C1140 C1142 1.419 . S
C1140 H1144 0.930 . S
C1141 C1140 1.369 . S
C1141 C1150 1.429 . S
C1142 C1140 1.419 . S
C1142 C1143 1.363 . S
C1142 H1145 0.929 . S
C1143 C1142 1.363 . S
C1143 C1149 1.428 . S
H1144 C1140 0.930 . S
H1145 C1142 0.929 . S
S1146 N1147 1.613 . S
S1146 N1148 1.610 . S
N1147 S1146 1.613 . S
N1147 C1150 1.350 . S
N1148 S1146 1.610 . S
N1148 C1149 1.351 . S
C1149 C1143 1.428 . S
C1149 N1148 1.351 . S
C1149 C1150 1.434 . S
C1150 C1141 1.429 . S
C1150 N1147 1.350 . S
C1150 C1149 1.434 . S
C1151 C1152 1.369 . S
C1151 C1153 1.419 . S
C1151 H1155 0.930 . S
C1152 C1151 1.369 . S
C1152 C1161 1.429 . S
C1153 C1151 1.419 . S
C1153 C1154 1.363 . S
C1153 H1156 0.929 . S
C1154 C1153 1.363 . S
C1154 C1160 1.428 . S
H1155 C1151 0.930 . S
H1156 C1153 0.929 . S
S1157 N1158 1.613 . S
S1157 N1159 1.610 . S
N1158 S1157 1.613 . S
N1158 C1161 1.350 . S
N1159 S1157 1.610 . S
N1159 C1160 1.351 . S
C1160 C1154 1.428 . S
C1160 N1159 1.351 . S
C1160 C1161 1.434 . S
C1161 C1152 1.429 . S
C1161 N1158 1.350 . S
C1161 C1160 1.434 . S
C1162 C1163 1.369 . S
C1162 C1164 1.419 . S
C1162 H1166 0.930 . S
C1163 C1162 1.369 . S
C1163 C1172 1.429 . S
C1164 C1162 1.419 . S
C1164 C1165 1.363 . S
C1164 H1167 0.929 . S
C1165 C1164 1.363 . S
C1165 C1171 1.428 . S
H1166 C1162 0.930 . S
H1167 C1164 0.929 . S
S1168 N1169 1.613 . S
S1168 N1170 1.610 . S
N1169 S1168 1.613 . S
N1169 C1172 1.350 . S
N1170 S1168 1.610 . S
N1170 C1171 1.351 . S
C1171 C1165 1.428 . S
C1171 N1170 1.351 . S
C1171 C1172 1.434 . S
C1172 C1163 1.429 . S
C1172 N1169 1.350 . S
C1172 C1171 1.434 . S
C1173 C1174 1.369 . S
C1173 C1175 1.419 . S
C1173 H1177 0.930 . S
C1174 C1173 1.369 . S
C1174 C1183 1.429 . S
C1175 C1173 1.419 . S
C1175 C1176 1.363 . S
C1175 H1178 0.929 . S
C1176 C1175 1.363 . S
C1176 C1182 1.428 . S
H1177 C1173 0.930 . S
H1178 C1175 0.929 . S
S1179 N1180 1.613 . S
S1179 N1181 1.610 . S
N1180 S1179 1.613 . S
N1180 C1183 1.350 . S
N1181 S1179 1.610 . S
N1181 C1182 1.351 . S
C1182 C1176 1.428 . S
C1182 N1181 1.351 . S
C1182 C1183 1.434 . S
C1183 C1174 1.429 . S
C1183 N1180 1.350 . S
C1183 C1182 1.434 . S
C1184 C1185 1.369 . S
C1184 C1186 1.419 . S
C1184 H1188 0.930 . S
C1185 C1184 1.369 . S
C1185 C1194 1.429 . S
C1186 C1184 1.419 . S
C1186 C1187 1.363 . S
C1186 H1189 0.929 . S
C1187 C1186 1.363 . S
C1187 C1193 1.428 . S
H1188 C1184 0.930 . S
H1189 C1186 0.929 . S
S1190 N1191 1.613 . S
S1190 N1192 1.610 . S
N1191 S1190 1.613 . S
N1191 C1194 1.350 . S
N1192 S1190 1.610 . S
N1192 C1193 1.351 . S
C1193 C1187 1.428 . S
C1193 N1192 1.351 . S
C1193 C1194 1.434 . S
C1194 C1185 1.429 . S
C1194 N1191 1.350 . S
C1194 C1193 1.434 . S
C1195 C1196 1.369 . S
C1195 C1197 1.419 . S
C1195 H1199 0.930 . S
C1196 C1195 1.369 . S
C1196 C1205 1.429 . S
C1197 C1195 1.419 . S
C1197 C1198 1.363 . S
C1197 H1200 0.929 . S
C1198 C1197 1.363 . S
C1198 C1204 1.428 . S
H1199 C1195 0.930 . S
H1200 C1197 0.929 . S
S1201 N1202 1.613 . S
S1201 N1203 1.610 . S
N1202 S1201 1.613 . S
N1202 C1205 1.350 . S
N1203 S1201 1.610 . S
N1203 C1204 1.351 . S
C1204 C1198 1.428 . S
C1204 N1203 1.351 . S
C1204 C1205 1.434 . S
C1205 C1196 1.429 . S
C1205 N1202 1.350 . S
C1205 C1204 1.434 . S
C613 C455 1.725 . S
C615 C8 1.773 . S
C624 C42 1.771 . S
C626 C489 1.729 . S
C635 C76 1.774 1_565 S
C637 C421 1.729 . S
C646 C81 1.726 . S
C648 C246 1.772 . S
C657 C280 1.774 . S
C659 C13 1.726 . S
C668 C47 1.725 . S
C670 C212 1.773 . S
C679 C119 1.772 1_655 S
C681 C344 1.731 . S
C690 C153 1.775 . S
C692 C378 1.727 . S
C701 C310 1.732 . S
C703 C187 1.772 . S
C712 C561 1.774 . S
C714 C174 1.726 . S
C723 C106 1.725 . S
C725 C595 1.774 . S
C734 C527 1.774 . S
C736 C140 1.728 . S
C745 C285 1.725 . S
C747 C450 1.774 . S
C756 C217 1.726 . S
C758 C484 1.773 . S
C767 C251 1.726 . S
C769 C416 1.774 . S
C778 C323 1.774 . S
C780 C548 1.726 . S
C789 C582 1.725 . S
C791 C357 1.773 . S
C800 C514 1.725 . S
C802 C391 1.773 . S
C811 C4 1.558 . S
C813 C144 1.630 . S
C822 C178 1.631 1_565 S
C824 C38 1.561 . S
C833 C110 1.632 . S
C835 C72 1.565 . S
C844 C149 1.567 . S
C846 C85 1.632 . S
C855 C183 1.558 . S
C857 C17 1.630 1_655 S
C866 C115 1.559 . S
C868 C51 1.631 . S
C877 C348 1.630 . S
C879 C208 1.560 . S
C888 C382 1.630 . S
C890 C242 1.559 . S
C899 C314 1.632 . S
C901 C276 1.566 . S
C910 C353 1.559 . S
C912 C289 1.630 . S
C921 C387 1.563 . S
C923 C221 1.631 . S
C932 C319 1.566 . S
C934 C255 1.632 . S
C943 C552 1.631 . S
C945 C412 1.563 . S
C954 C586 1.630 . S
C956 C446 1.559 . S
C965 C480 1.558 . S
C967 C518 1.631 . S
C976 C493 1.630 . S
C978 C557 1.559 . S
C987 C425 1.631 . S
C989 C591 1.563 . S
C998 C523 1.559 . S
C1000 C459 1.630 . S
C1009 C0 1.323 . S
C1011 C29 1.323 . S
C1020 C34 1.323 . S
C1022 C63 1.322 . S
C1031 C68 1.324 . S
C1033 C97 1.322 . S
C1042 C131 1.323 . S
C1044 C102 1.323 . S
C1053 C136 1.323 . S
C1055 C165 1.323 . S
C1064 C170 1.322 . S
C1066 C199 1.323 . S
C1075 C233 1.323 . S
C1077 C204 1.322 . S
C1086 C238 1.323 . S
C1088 C267 1.322 . S
C1097 C301 1.323 . S
C1099 C272 1.323 . S
C1108 C335 1.322 . S
C1110 C306 1.323 . S
C1119 C369 1.323 . S
C1121 C340 1.323 . S
C1130 C403 1.322 . S
C1132 C374 1.323 . S
C1141 C437 1.323 . S
C1143 C408 1.322 . S
C1152 C442 1.323 . S
C1154 C471 1.323 . S
C1163 C476 1.322 . S
C1165 C505 1.323 . S
C1174 C510 1.323 . S
C1176 C539 1.322 . S
C1185 C544 1.322 . S
C1187 C573 1.323 . S
C1196 C607 1.322 . S
C1198 C578 1.323 . S
