# Generated by pormake.
# Topology ukd, (4)-cn, num edge types: 1
# Building blocks:
#     Node 0, Type 0, BuildingBlock: ICAMEG_clean_sbu_1, # of connection points: 4
#     Node 1, Type 0, BuildingBlock: ICAMEG_clean_sbu_1, # of connection points: 4
#     Node 2, Type 0, BuildingBlock: ICAMEG_clean_sbu_1, # of connection points: 4
#     Node 3, Type 0, BuildingBlock: ICAMEG_clean_sbu_1, # of connection points: 4
#     Node 4, Type 0, BuildingBlock: ICAMEG_clean_sbu_1, # of connection points: 4
#     Node 5, Type 0, BuildingBlock: ICAMEG_clean_sbu_1, # of connection points: 4
#     Node 6, Type 0, BuildingBlock: ICAMEG_clean_sbu_1, # of connection points: 4
#     Node 7, Type 0, BuildingBlock: ICAMEG_clean_sbu_1, # of connection points: 4
#     Node 8, Type 0, BuildingBlock: ICAMEG_clean_sbu_1, # of connection points: 4
#     Node 9, Type 0, BuildingBlock: ICAMEG_clean_sbu_1, # of connection points: 4
#     Node 10, Type 0, BuildingBlock: ICAMEG_clean_sbu_1, # of connection points: 4
#     Node 11, Type 0, BuildingBlock: ICAMEG_clean_sbu_1, # of connection points: 4
#     Node 12, Type 0, BuildingBlock: ICAMEG_clean_sbu_1, # of connection points: 4
#     Node 13, Type 0, BuildingBlock: ICAMEG_clean_sbu_1, # of connection points: 4
#     Node 14, Type 0, BuildingBlock: ICAMEG_clean_sbu_1, # of connection points: 4
#     Node 15, Type 0, BuildingBlock: ICAMEG_clean_sbu_1, # of connection points: 4
#     Node 16, Type 0, BuildingBlock: ICAMEG_clean_sbu_1, # of connection points: 4
#     Node 17, Type 0, BuildingBlock: ICAMEG_clean_sbu_1, # of connection points: 4
#     Node 18, Type 0, BuildingBlock: ICAMEG_clean_sbu_1, # of connection points: 4
#     Node 19, Type 0, BuildingBlock: ICAMEG_clean_sbu_1, # of connection points: 4
#     Node 20, Type 0, BuildingBlock: ICAMEG_clean_sbu_1, # of connection points: 4
#     Node 21, Type 0, BuildingBlock: ICAMEG_clean_sbu_1, # of connection points: 4
#     Node 22, Type 0, BuildingBlock: ICAMEG_clean_sbu_1, # of connection points: 4
#     Node 23, Type 0, BuildingBlock: ICAMEG_clean_sbu_1, # of connection points: 4
#     Node 24, Type 0, BuildingBlock: ICAMEG_clean_sbu_1, # of connection points: 4
#     Node 25, Type 0, BuildingBlock: ICAMEG_clean_sbu_1, # of connection points: 4
#     Node 26, Type 0, BuildingBlock: ICAMEG_clean_sbu_1, # of connection points: 4
#     Node 27, Type 0, BuildingBlock: ICAMEG_clean_sbu_1, # of connection points: 4
#     Node 28, Type 0, BuildingBlock: ICAMEG_clean_sbu_1, # of connection points: 4
#     Node 29, Type 0, BuildingBlock: ICAMEG_clean_sbu_1, # of connection points: 4
#     Node 30, Type 0, BuildingBlock: ICAMEG_clean_sbu_1, # of connection points: 4
#     Node 31, Type 0, BuildingBlock: ICAMEG_clean_sbu_1, # of connection points: 4
#     Edge 32, Type (0, 0), BuildingBlock: CIFDUS_clean_linker_0, # of connection points: 2
#     Edge 33, Type (0, 0), BuildingBlock: CIFDUS_clean_linker_0, # of connection points: 2
#     Edge 34, Type (0, 0), BuildingBlock: CIFDUS_clean_linker_0, # of connection points: 2
#     Edge 35, Type (0, 0), BuildingBlock: CIFDUS_clean_linker_0, # of connection points: 2
#     Edge 36, Type (0, 0), BuildingBlock: CIFDUS_clean_linker_0, # of connection points: 2
#     Edge 37, Type (0, 0), BuildingBlock: CIFDUS_clean_linker_0, # of connection points: 2
#     Edge 38, Type (0, 0), BuildingBlock: CIFDUS_clean_linker_0, # of connection points: 2
#     Edge 39, Type (0, 0), BuildingBlock: CIFDUS_clean_linker_0, # of connection points: 2
#     Edge 40, Type (0, 0), BuildingBlock: CIFDUS_clean_linker_0, # of connection points: 2
#     Edge 41, Type (0, 0), BuildingBlock: CIFDUS_clean_linker_0, # of connection points: 2
#     Edge 42, Type (0, 0), BuildingBlock: CIFDUS_clean_linker_0, # of connection points: 2
#     Edge 43, Type (0, 0), BuildingBlock: CIFDUS_clean_linker_0, # of connection points: 2
#     Edge 44, Type (0, 0), BuildingBlock: CIFDUS_clean_linker_0, # of connection points: 2
#     Edge 45, Type (0, 0), BuildingBlock: CIFDUS_clean_linker_0, # of connection points: 2
#     Edge 46, Type (0, 0), BuildingBlock: CIFDUS_clean_linker_0, # of connection points: 2
#     Edge 47, Type (0, 0), BuildingBlock: CIFDUS_clean_linker_0, # of connection points: 2
#     Edge 48, Type (0, 0), BuildingBlock: CIFDUS_clean_linker_0, # of connection points: 2
#     Edge 49, Type (0, 0), BuildingBlock: CIFDUS_clean_linker_0, # of connection points: 2
#     Edge 50, Type (0, 0), BuildingBlock: CIFDUS_clean_linker_0, # of connection points: 2
#     Edge 51, Type (0, 0), BuildingBlock: CIFDUS_clean_linker_0, # of connection points: 2
#     Edge 52, Type (0, 0), BuildingBlock: CIFDUS_clean_linker_0, # of connection points: 2
#     Edge 53, Type (0, 0), BuildingBlock: CIFDUS_clean_linker_0, # of connection points: 2
#     Edge 54, Type (0, 0), BuildingBlock: CIFDUS_clean_linker_0, # of connection points: 2
#     Edge 55, Type (0, 0), BuildingBlock: CIFDUS_clean_linker_0, # of connection points: 2
#     Edge 56, Type (0, 0), BuildingBlock: CIFDUS_clean_linker_0, # of connection points: 2
#     Edge 57, Type (0, 0), BuildingBlock: CIFDUS_clean_linker_0, # of connection points: 2
#     Edge 58, Type (0, 0), BuildingBlock: CIFDUS_clean_linker_0, # of connection points: 2
#     Edge 59, Type (0, 0), BuildingBlock: CIFDUS_clean_linker_0, # of connection points: 2
#     Edge 60, Type (0, 0), BuildingBlock: CIFDUS_clean_linker_0, # of connection points: 2
#     Edge 61, Type (0, 0), BuildingBlock: CIFDUS_clean_linker_0, # of connection points: 2
#     Edge 62, Type (0, 0), BuildingBlock: CIFDUS_clean_linker_0, # of connection points: 2
#     Edge 63, Type (0, 0), BuildingBlock: CIFDUS_clean_linker_0, # of connection points: 2
#     Edge 64, Type (0, 0), BuildingBlock: CIFDUS_clean_linker_0, # of connection points: 2
#     Edge 65, Type (0, 0), BuildingBlock: CIFDUS_clean_linker_0, # of connection points: 2
#     Edge 66, Type (0, 0), BuildingBlock: CIFDUS_clean_linker_0, # of connection points: 2
#     Edge 67, Type (0, 0), BuildingBlock: CIFDUS_clean_linker_0, # of connection points: 2
#     Edge 68, Type (0, 0), BuildingBlock: CIFDUS_clean_linker_0, # of connection points: 2
#     Edge 69, Type (0, 0), BuildingBlock: CIFDUS_clean_linker_0, # of connection points: 2
#     Edge 70, Type (0, 0), BuildingBlock: CIFDUS_clean_linker_0, # of connection points: 2
#     Edge 71, Type (0, 0), BuildingBlock: CIFDUS_clean_linker_0, # of connection points: 2
#     Edge 72, Type (0, 0), BuildingBlock: CIFDUS_clean_linker_0, # of connection points: 2
#     Edge 73, Type (0, 0), BuildingBlock: CIFDUS_clean_linker_0, # of connection points: 2
#     Edge 74, Type (0, 0), BuildingBlock: CIFDUS_clean_linker_0, # of connection points: 2
#     Edge 75, Type (0, 0), BuildingBlock: CIFDUS_clean_linker_0, # of connection points: 2
#     Edge 76, Type (0, 0), BuildingBlock: CIFDUS_clean_linker_0, # of connection points: 2
#     Edge 77, Type (0, 0), BuildingBlock: CIFDUS_clean_linker_0, # of connection points: 2
#     Edge 78, Type (0, 0), BuildingBlock: CIFDUS_clean_linker_0, # of connection points: 2
#     Edge 79, Type (0, 0), BuildingBlock: CIFDUS_clean_linker_0, # of connection points: 2
#     Edge 80, Type (0, 0), BuildingBlock: CIFDUS_clean_linker_0, # of connection points: 2
#     Edge 81, Type (0, 0), BuildingBlock: CIFDUS_clean_linker_0, # of connection points: 2
#     Edge 82, Type (0, 0), BuildingBlock: CIFDUS_clean_linker_0, # of connection points: 2
#     Edge 83, Type (0, 0), BuildingBlock: CIFDUS_clean_linker_0, # of connection points: 2
#     Edge 84, Type (0, 0), BuildingBlock: CIFDUS_clean_linker_0, # of connection points: 2
#     Edge 85, Type (0, 0), BuildingBlock: CIFDUS_clean_linker_0, # of connection points: 2
#     Edge 86, Type (0, 0), BuildingBlock: CIFDUS_clean_linker_0, # of connection points: 2
#     Edge 87, Type (0, 0), BuildingBlock: CIFDUS_clean_linker_0, # of connection points: 2
#     Edge 88, Type (0, 0), BuildingBlock: CIFDUS_clean_linker_0, # of connection points: 2
#     Edge 89, Type (0, 0), BuildingBlock: CIFDUS_clean_linker_0, # of connection points: 2
#     Edge 90, Type (0, 0), BuildingBlock: CIFDUS_clean_linker_0, # of connection points: 2
#     Edge 91, Type (0, 0), BuildingBlock: CIFDUS_clean_linker_0, # of connection points: 2
#     Edge 92, Type (0, 0), BuildingBlock: CIFDUS_clean_linker_0, # of connection points: 2
#     Edge 93, Type (0, 0), BuildingBlock: CIFDUS_clean_linker_0, # of connection points: 2
#     Edge 94, Type (0, 0), BuildingBlock: CIFDUS_clean_linker_0, # of connection points: 2
#     Edge 95, Type (0, 0), BuildingBlock: CIFDUS_clean_linker_0, # of connection points: 2
# Relax obj value: 0.007
# Max RMSD: 0.026
# Mean RMSD: 0.026
data_MOF--net-ukd--node1-ICAMEG_clean_sbu_1--edge1-CIFDUS_clean_linker_0
_symmetry_space_group_name_H-M    P1
_symmetry_Int_Tables_number       1
_symmetry_cell_setting            triclinic
loop_
_symmetry_equiv_pos_as_xyz
'x, y, z'
_cell_length_a     42.555145
_cell_length_b     42.555931
_cell_length_c     70.10045
_cell_angle_alpha  90.052294
_cell_angle_beta   89.967809
_cell_angle_gamma 90.018356
loop_
_atom_site_label
_atom_site_type_symbol
_atom_site_fract_x
_atom_site_fract_y
_atom_site_fract_z
_atom_type_partial_charge
Co0 Co 0.17694 0.18279 0.32013 0.0
Co1 Co 0.20791 0.17694 0.36565 0.0
O2 O 0.21119 0.17323 0.33782 0.0
C3 C 0.20613 0.22739 0.29282 0.0
O4 O 0.18229 0.24613 0.29633 0.0
C5 C 0.23197 0.11226 0.35868 0.0
O6 O 0.21212 0.11014 0.34443 0.0
O7 O 0.16778 0.15265 0.36602 0.0
O8 O 0.145 0.1642 0.33795 0.0
H9 H 0.15279 0.19972 0.42755 0.0
H10 H 0.23256 0.14789 0.30601 0.0
O11 O 0.20857 0.2014 0.30183 0.0
H12 H 0.14258 0.07711 0.29513 0.0
H13 H 0.12477 0.1876 0.25558 0.0
H14 H 0.11346 0.21039 0.32423 0.0
H15 H 0.13463 0.12964 0.30917 0.0
H16 H 0.16777 0.17552 0.27797 0.0
O17 O 0.23275 0.13698 0.36894 0.0
H18 H 0.15736 0.19528 0.39259 0.0
H19 H 0.25236 0.16601 0.39789 0.0
H20 H 0.06985 0.22282 0.30233 0.0
H21 H 0.24155 0.0958 0.29159 0.0
H22 H 0.07537 0.21142 0.26773 0.0
H23 H 0.19638 0.05993 0.28616 0.0
O24 O 0.17096 0.22485 0.33233 0.0
H25 H 0.31984 0.19841 0.34682 0.0
H26 H 0.22851 0.23749 0.38309 0.0
H27 H 0.27745 0.26852 0.38261 0.0
H28 H 0.3236 0.24895 0.36444 0.0
H29 H 0.27034 0.16826 0.34755 0.0
H30 H 0.24875 0.16989 0.43293 0.0
H31 H 0.19872 0.18695 0.44798 0.0
O32 O 0.18356 0.21695 0.36311 0.0
C33 C 0.1443 0.15231 0.35469 0.0
C34 C 0.17474 0.19231 0.42116 0.0
C35 C 0.22858 0.17553 0.42418 0.0
N36 N 0.20511 0.18049 0.39319 0.0
C37 C 0.17749 0.18982 0.40137 0.0
C38 C 0.23045 0.17328 0.40433 0.0
C39 C 0.20051 0.18512 0.43262 0.0
C40 C 0.21273 0.13258 0.30349 0.0
N41 N 0.18308 0.14181 0.30849 0.0
C42 C 0.21799 0.10304 0.29541 0.0
C43 C 0.19265 0.08289 0.2924 0.0
C44 C 0.16247 0.0925 0.29747 0.0
C45 C 0.15811 0.12219 0.30555 0.0
C46 C 0.12207 0.19265 0.27062 0.0
C47 C 0.11601 0.20532 0.30919 0.0
C48 C 0.14632 0.18584 0.28338 0.0
N49 N 0.1431 0.1922 0.30241 0.0
C50 C 0.09125 0.21242 0.29686 0.0
C51 C 0.09436 0.20602 0.27745 0.0
C52 C 0.17246 0.2339 0.34969 0.0
C53 C 0.29992 0.20714 0.35484 0.0
C54 C 0.24844 0.22887 0.37509 0.0
C55 C 0.27612 0.24651 0.37491 0.0
C56 C 0.30201 0.23551 0.36471 0.0
N57 N 0.24664 0.20098 0.36546 0.0
C58 C 0.27187 0.19012 0.35535 0.0
Co59 Co 0.06306 0.93395 0.58529 0.0
Co60 Co 0.06754 0.97114 0.62906 0.0
O61 O 0.07107 0.97156 0.601 0.0
C62 C 0.03499 0.98797 0.56265 0.0
O63 O 0.04129 0.00816 0.57626 0.0
C64 C 0.13068 1.00031 0.62348 0.0
O65 O 0.13664 0.97983 0.60994 0.0
O66 O 0.0967 0.93475 0.6309 0.0
O67 O 0.08323 0.9067 0.60508 0.0
H68 H 0.05356 0.92032 0.69322 0.0
H69 H 0.09802 0.9888 0.56931 0.0
O70 O 0.04214 0.95906 0.56444 0.0
H71 H 0.16911 0.89831 0.56179 0.0
H72 H 0.05802 0.87103 0.52441 0.0
H73 H 0.0406 0.86958 0.59396 0.0
H74 H 0.11672 0.89149 0.57614 0.0
H75 H 0.06825 0.9183 0.54381 0.0
O76 O 0.10402 1.00063 0.63171 0.0
H77 H 0.05773 0.92146 0.65815 0.0
H78 H 0.07072 0.02039 0.65936 0.0
H79 H 0.03042 0.82169 0.57512 0.0
H80 H 0.14991 0.99659 0.55463 0.0
H81 H 0.03912 0.82222 0.54008 0.0
H82 H 0.18599 0.95117 0.55081 0.0
O83 O 0.02111 0.92796 0.59751 0.0
H84 H 0.03381 0.07837 0.60728 0.0
H85 H 0.0038 0.98511 0.6448 0.0
H86 H 0.96702 0.02967 0.64239 0.0
H87 H 0.98198 0.07678 0.62357 0.0
H88 H 0.06972 0.03307 0.60985 0.0
H89 H 0.06695 0.0203 0.69446 0.0
H90 H 0.05818 0.97001 0.71163 0.0
O91 O 0.03127 0.94149 0.62783 0.0
C92 C 0.09712 0.90949 0.62113 0.0
C93 C 0.05724 0.9424 0.6859 0.0
C94 C 0.06479 0.99851 0.6866 0.0
N95 N 0.06411 0.97098 0.65668 0.0
C96 C 0.0595 0.94321 0.66603 0.0
C97 C 0.06694 0.9984 0.66672 0.0
C98 C 0.05987 0.97029 0.69622 0.0
C99 C 0.1132 0.96878 0.56744 0.0
N100 N 0.10397 0.93962 0.57336 0.0
C101 C 0.14275 0.9734 0.55923 0.0
C102 C 0.16301 0.94792 0.55713 0.0
C103 C 0.15356 0.91828 0.5633 0.0
C104 C 0.12386 0.91457 0.57147 0.0
C105 C 0.05416 0.8705 0.53967 0.0
C106 C 0.0446 0.86996 0.57873 0.0
C107 C 0.05981 0.89723 0.55072 0.0
N108 N 0.05519 0.89667 0.57003 0.0
C109 C 0.03872 0.84279 0.56813 0.0
C110 C 0.04358 0.84311 0.54847 0.0
C111 C 0.01406 0.92862 0.61518 0.0
C112 C 0.02703 0.05799 0.61553 0.0
C113 C 0.01038 0.00538 0.63643 0.0
C114 C 0.98951 0.03062 0.6352 0.0
C115 C 0.99794 0.05706 0.62465 0.0
N116 N 0.03886 0.00645 0.62741 0.0
C117 C 0.04731 0.03232 0.6171 0.0
Co118 Co 0.32918 0.82003 0.81674 0.0
Co119 Co 0.3018 0.82484 0.86309 0.0
O120 O 0.29603 0.83008 0.83536 0.0
C121 C 0.27713 0.78186 0.79957 0.0
O122 O 0.27229 0.76826 0.81613 0.0
C123 C 0.27479 0.88983 0.85952 0.0
O124 O 0.2891 0.89357 0.8431 0.0
O125 O 0.34156 0.84974 0.86262 0.0
O126 O 0.36228 0.83658 0.83431 0.0
H127 H 0.36348 0.80005 0.9223 0.0
H128 H 0.27433 0.85764 0.80453 0.0
O129 O 0.29752 0.80359 0.79803 0.0
H130 H 0.36636 0.92525 0.79257 0.0
H131 H 0.37723 0.8142 0.7511 0.0
H132 H 0.39235 0.79112 0.81941 0.0
H133 H 0.373 0.87191 0.80562 0.0
H134 H 0.33608 0.82745 0.77453 0.0
O135 O 0.27736 0.86418 0.86871 0.0
H136 H 0.35545 0.8068 0.88771 0.0
H137 H 0.26011 0.83198 0.89713 0.0
H138 H 0.43428 0.77781 0.79648 0.0
H139 H 0.26656 0.91064 0.79111 0.0
H140 H 0.42683 0.78932 0.76205 0.0
H141 H 0.31279 0.94492 0.78515 0.0
O142 O 0.33428 0.77694 0.82773 0.0
H143 H 0.18877 0.80333 0.84712 0.0
H144 H 0.28314 0.76296 0.87971 0.0
H145 H 0.23459 0.73132 0.8797 0.0
H146 H 0.18693 0.75151 0.86336 0.0
H147 H 0.23792 0.8341 0.84734 0.0
H148 H 0.26719 0.82577 0.93184 0.0
H149 H 0.31914 0.80957 0.94463 0.0
O150 O 0.326 0.7853 0.85892 0.0
C151 C 0.36431 0.8492 0.85077 0.0
C152 C 0.3407 0.80703 0.9169 0.0
C153 C 0.28667 0.8215 0.92225 0.0
N154 N 0.3073 0.81954 0.89038 0.0
C155 C 0.33599 0.81081 0.89732 0.0
C156 C 0.28283 0.82504 0.90259 0.0
C157 C 0.31582 0.8124 0.92942 0.0
C158 C 0.29458 0.87233 0.80183 0.0
N159 N 0.3241 0.86178 0.80602 0.0
C160 C 0.29002 0.90236 0.7943 0.0
C161 C 0.31596 0.92159 0.79098 0.0
C162 C 0.34601 0.9106 0.79518 0.0
C163 C 0.34965 0.88045 0.80272 0.0
C164 C 0.38076 0.80907 0.76607 0.0
C165 C 0.38899 0.79634 0.80446 0.0
C166 C 0.35748 0.81641 0.7794 0.0
N167 N 0.36182 0.81013 0.79834 0.0
C168 C 0.41279 0.78869 0.79154 0.0
C169 C 0.40859 0.79513 0.77222 0.0
C170 C 0.33474 0.76792 0.84509 0.0
C171 C 0.20935 0.79432 0.85434 0.0
C172 C 0.26253 0.77188 0.87252 0.0
C173 C 0.23509 0.75388 0.8726 0.0
C174 C 0.20835 0.76523 0.86343 0.0
N175 N 0.26329 0.80045 0.86362 0.0
C176 C 0.23721 0.81169 0.85457 0.0
Co177 Co 0.44019 0.07329 0.06879 0.0
Co178 Co 0.43288 0.0477 0.11539 0.0
O179 O 0.43074 0.04096 0.08775 0.0
C180 C 0.48663 0.04224 0.04354 0.0
O181 O 0.50484 0.06671 0.04642 0.0
C182 C 0.36887 0.02308 0.10837 0.0
O183 O 0.36742 0.04216 0.09372 0.0
O184 O 0.40768 0.08706 0.11359 0.0
O185 O 0.41993 0.10661 0.08478 0.0
H186 H 0.45082 0.11077 0.17503 0.0
H187 H 0.40738 0.01512 0.05672 0.0
O188 O 0.46035 0.0402 0.05226 0.0
H189 H 0.33478 0.10145 0.04079 0.0
H190 H 0.44666 0.11778 1.0022 0.0
H191 H 0.46593 0.13786 0.0705 0.0
H192 H 0.38642 0.11261 0.05517 0.0
H193 H 0.43463 0.07723 0.02624 0.0
O194 O 0.39322 0.02263 0.11894 0.0
H195 H 0.44831 0.1019 0.14029 0.0
H196 H 0.42126 0.00699 0.1493 0.0
H197 H 0.47826 0.17907 0.04693 0.0
H198 H 0.35621 1.0029 0.04202 0.0
H199 H 0.46863 0.16914 0.0125 0.0
H200 H 0.31941 0.04623 0.03405 0.0
O201 O 0.48144 0.08197 0.08135 0.0
H202 H 0.45741 0.93427 0.10208 0.0
H203 H 0.49291 0.03062 0.13474 0.0
H204 H 0.52489 0.98245 0.13699 0.0
H205 H 0.50711 0.93379 0.12063 0.0
H206 H 0.42628 0.98305 0.10006 0.0
H207 H 0.42322 0.01489 0.18415 0.0
H208 H 0.4382 0.06706 0.19722 0.0
O209 O 0.47254 0.07252 0.11246 0.0
C210 C 0.40707 0.10895 0.10118 0.0
C211 C 0.44435 0.0879 0.16951 0.0
C212 C 0.42881 0.0341 0.17462 0.0
N213 N 0.43486 0.05391 0.14278 0.0
C214 C 0.44297 0.08272 0.14985 0.0
C215 C 0.42767 0.02979 0.15488 0.0
C216 C 0.43724 0.06338 0.18195 0.0
C217 C 0.39169 0.03415 0.05308 0.0
N218 N 0.39993 0.06459 0.05683 0.0
C219 C 0.36266 0.02706 0.04485 0.0
C220 C 0.34199 0.05138 0.04042 0.0
C221 C 0.35058 0.08235 0.04423 0.0
C222 C 0.37979 0.08855 0.0525 0.0
C223 C 0.45093 0.1224 0.01716 0.0
C224 C 0.46163 0.13338 0.05554 0.0
C225 C 0.44415 0.09954 0.03084 0.0
N226 N 0.44953 0.1052 0.04977 0.0
C227 C 0.46867 0.1568 0.04226 0.0
C228 C 0.46327 0.15121 0.02295 0.0
C229 C 0.48981 0.08258 0.09885 0.0
C230 C 0.46535 0.9553 0.10931 0.0
C231 C 0.48508 0.00958 0.12751 0.0
C232 C 0.50325 0.98236 0.12888 0.0
C233 C 0.49326 0.95506 0.11971 0.0
N234 N 0.45766 0.00959 0.11737 0.0
C235 C 0.44778 0.98296 0.10827 0.0
Co236 Co 0.18313 0.82825 0.18036 0.0
Co237 Co 0.22009 0.83098 0.13661 0.0
O238 O 0.21985 0.83664 0.16437 0.0
C239 C 0.20884 0.78687 0.21055 0.0
O240 O 0.18581 0.76743 0.20646 0.0
C241 C 0.24312 0.89589 0.14265 0.0
O242 O 0.22095 0.8991 0.15551 0.0
O243 O 0.18113 0.85636 0.13378 0.0
O244 O 0.15382 0.84414 0.16014 0.0
H245 H 0.17224 0.80654 0.07279 0.0
H246 H 0.23542 0.86572 0.19664 0.0
O247 O 0.21207 0.8122 0.20097 0.0
H248 H 0.14317 0.93574 0.19836 0.0
H249 H 0.12119 0.82915 0.24174 0.0
H250 H 0.12091 0.799 0.17379 0.0
H251 H 0.13848 0.88172 0.18598 0.0
H252 H 0.16739 0.83956 0.22143 0.0
O253 O 0.24613 0.87013 0.13356 0.0
H254 H 0.17234 0.81333 0.10773 0.0
H255 H 0.26906 0.83787 0.10644 0.0
H256 H 0.07419 0.7882 0.19357 0.0
H257 H 0.24103 0.91942 0.20942 0.0
H258 H 0.07415 0.80331 0.2278 0.0
H259 H 0.19471 0.95489 0.21026 0.0
O260 O 0.17976 0.78505 0.16951 0.0
H261 H 0.32858 0.80812 0.16117 0.0
H262 H 0.24098 0.76861 0.12185 0.0
H263 H 0.28873 0.73635 0.12552 0.0
H264 H 0.33301 0.75613 0.14525 0.0
H265 H 0.28027 0.83949 0.15725 0.0
H266 H 0.26995 0.83165 0.07145 0.0
H267 H 0.22131 0.81573 0.05441 0.0
O268 O 0.19411 0.79181 0.1389 0.0
C269 C 0.15579 0.85616 0.14348 0.0
C270 C 0.19362 0.81335 0.08006 0.0
C271 C 0.24844 0.82749 0.07931 0.0
N272 N 0.22075 0.82565 0.10913 0.0
C273 C 0.19384 0.81712 0.09985 0.0
C274 C 0.24778 0.83103 0.09912 0.0
C275 C 0.22115 0.81855 0.06975 0.0
C276 C 0.21505 0.88085 0.1972 0.0
N277 N 0.18663 0.8705 0.19064 0.0
C278 C 0.21841 0.91131 0.20434 0.0
C279 C 0.19244 0.93122 0.20477 0.0
C280 C 0.16352 0.92051 0.19807 0.0
C281 C 0.16105 0.88992 0.19099 0.0
C282 C 0.12091 0.82248 0.22683 0.0
C283 C 0.12106 0.80567 0.18867 0.0
C284 C 0.14699 0.82833 0.21527 0.0
N285 N 0.14682 0.81995 0.19643 0.0
C286 C 0.09454 0.79948 0.1998 0.0
C287 C 0.09453 0.80797 0.21901 0.0
C288 C 0.18213 0.77542 0.15232 0.0
C289 C 0.30949 0.79928 0.1525 0.0
C290 C 0.26009 0.77732 0.13053 0.0
C291 C 0.2871 0.75898 0.13251 0.0
C292 C 0.31194 0.7701 0.14358 0.0
N293 N 0.25793 0.80598 0.13925 0.0
C294 C 0.28212 0.81698 0.15018 0.0
Co295 Co 0.43009 0.92834 0.42917 0.0
Co296 Co 0.42964 0.96869 0.38656 0.0
O297 O 0.42187 0.96618 0.41416 0.0
C298 C 0.46572 0.97456 0.45291 0.0
O299 O 0.48242 0.9823 0.43787 0.0
C300 C 0.36373 0.98982 0.39145 0.0
O301 O 0.36023 0.96661 0.40355 0.0
O302 O 0.40529 0.92942 0.38175 0.0
O303 O 0.41641 0.90079 0.40767 0.0
H304 H 0.46048 0.92665 0.32222 0.0
H305 H 0.38994 0.97821 0.44577 0.0
O306 O 0.44361 0.95455 0.45147 0.0
H307 H 0.32298 0.88369 0.44351 0.0
H308 H 0.42937 0.86243 0.48883 0.0
H309 H 0.46014 0.86692 0.42105 0.0
H310 H 0.37789 0.88161 0.43237 0.0
H311 H 0.41852 0.90975 0.46965 0.0
O312 O 0.39004 0.99414 0.38314 0.0
H313 H 0.45091 0.92379 0.35689 0.0
H314 H 0.42383 0.01983 0.35771 0.0
H315 H 0.47115 0.81903 0.43967 0.0
H316 H 0.33525 0.98123 0.45731 0.0
H317 H 0.45572 0.81658 0.47381 0.0
H318 H 0.30133 0.93376 0.45614 0.0
O319 O 0.47411 0.92682 0.41955 0.0
H320 H 0.44827 0.07514 0.41545 0.0
H321 H 0.49255 0.9922 0.37427 0.0
H322 H 0.52355 0.04004 0.38065 0.0
H323 H 0.50139 0.08196 0.40134 0.0
H324 H 0.41816 0.0268 0.40881 0.0
H325 H 0.43283 0.02367 0.32302 0.0
H326 H 0.45141 0.97688 0.30506 0.0
O327 O 0.46946 0.94348 0.38922 0.0
C328 C 0.40527 0.90354 0.39088 0.0
C329 C 0.45248 0.94723 0.3299 0.0
C330 C 0.43692 1.00167 0.33034 0.0
N331 N 0.4371 0.97168 0.35933 0.0
C332 C 0.44712 0.94578 0.34954 0.0
C333 C 0.43181 0.99934 0.34997 0.0
C334 C 0.44736 0.97541 0.32028 0.0
C335 C 0.37542 0.95737 0.44542 0.0
N336 N 0.38712 0.92977 0.43841 0.0
C337 C 0.34443 0.95926 0.45189 0.0
C338 C 0.3254 0.93263 0.45119 0.0
C339 C 0.33752 0.90454 0.44408 0.0
C340 C 0.3686 0.90354 0.4377 0.0
C341 C 0.43615 0.8632 0.47395 0.0
C342 C 0.45321 0.86598 0.43588 0.0
C343 C 0.43015 0.88996 0.46303 0.0
N344 N 0.43849 0.89102 0.4442 0.0
C345 C 0.45957 0.83882 0.44636 0.0
C346 C 0.45094 0.83747 0.46552 0.0
C347 C 0.48517 0.93098 0.4028 0.0
C348 C 0.45814 0.05709 0.40637 0.0
C349 C 0.48277 0.0103 0.38333 0.0
C350 C 0.50041 0.03736 0.38686 0.0
C351 C 0.48796 0.06088 0.39846 0.0
N352 N 0.4535 0.00681 0.39108 0.0
C353 C 0.44116 0.02972 0.40251 0.0
Co354 Co 0.33669 0.19569 0.67886 0.0
Co355 Co 0.30041 0.1854 0.6349 0.0
O356 O 0.30005 0.18425 0.66307 0.0
C357 C 0.28659 0.23654 0.69607 0.0
O358 O 0.27797 0.2457 0.67897 0.0
C359 C 0.26749 0.12427 0.64459 0.0
O360 O 0.2771 0.12555 0.66233 0.0
O361 O 0.33953 0.15969 0.63397 0.0
O362 O 0.36554 0.17349 0.66067 0.0
H363 H 0.35086 0.19996 0.57067 0.0
H364 H 0.28226 0.16331 0.69644 0.0
O365 O 0.30905 0.21711 0.69803 0.0
H366 H 0.37348 0.09545 0.70984 0.0
H367 H 0.39558 0.21252 0.74044 0.0
H368 H 0.40063 0.21916 0.67027 0.0
H369 H 0.38004 0.14528 0.69234 0.0
H370 H 0.35009 0.1971 0.72079 0.0
O371 O 0.27467 0.14586 0.63281 0.0
H372 H 0.3493 0.19847 0.60582 0.0
H373 H 0.25236 0.1748 0.60447 0.0
H374 H 0.44682 0.23449 0.68938 0.0
H375 H 0.27462 0.11409 0.71442 0.0
H376 H 0.44446 0.23125 0.72473 0.0
H377 H 0.32042 0.07963 0.72108 0.0
O378 O 0.34221 0.23627 0.66475 0.0
H379 H 0.19177 0.2128 0.65769 0.0
H380 H 0.27977 0.24495 0.61628 0.0
H381 H 0.23221 0.27792 0.61789 0.0
H382 H 0.18774 0.26185 0.63867 0.0
H383 H 0.23986 0.18071 0.65579 0.0
H384 H 0.25292 0.17583 0.5693 0.0
H385 H 0.3024 0.1886 0.55217 0.0
O386 O 0.3259 0.22455 0.63521 0.0
C387 C 0.36381 0.15929 0.64463 0.0
C388 C 0.32913 0.19445 0.57797 0.0
C389 C 0.27417 0.18088 0.57721 0.0
N390 N 0.30076 0.18676 0.60721 0.0
C391 C 0.3281 0.19362 0.59788 0.0
C392 C 0.27403 0.18027 0.59713 0.0
C393 C 0.30194 0.18805 0.5676 0.0
C394 C 0.30231 0.14846 0.69931 0.0
N395 N 0.33147 0.15672 0.69289 0.0
C396 C 0.29783 0.1206 0.70948 0.0
C397 C 0.32352 0.10126 0.7132 0.0
C398 C 0.35328 0.11007 0.70684 0.0
C399 C 0.35683 0.13809 0.69671 0.0
C400 C 0.39691 0.21402 0.72504 0.0
C401 C 0.39949 0.21749 0.68564 0.0
C402 C 0.37117 0.20544 0.71384 0.0
N403 N 0.37273 0.2071 0.69438 0.0
C404 C 0.42569 0.22629 0.69639 0.0
C405 C 0.42433 0.2245 0.71622 0.0
C406 C 0.33906 0.24292 0.64711 0.0
C407 C 0.21092 0.21996 0.6485 0.0
C408 C 0.26053 0.23778 0.62536 0.0
C409 C 0.23364 0.25654 0.6262 0.0
C410 C 0.20869 0.24751 0.63786 0.0
N411 N 0.26246 0.21068 0.63575 0.0
C412 C 0.23816 0.20177 0.64728 0.0
Co413 Co 0.08183 0.07417 0.93231 0.0
Co414 Co 0.0816 0.04561 0.88595 0.0
O415 O 0.08864 0.04046 0.91352 0.0
C416 C 0.03925 0.04584 0.96097 0.0
O417 O 0.02104 0.07025 0.95798 0.0
C418 C 0.14662 0.01869 0.88804 0.0
O419 O 0.15174 0.03444 0.90384 0.0
O420 O 0.10701 0.08497 0.88536 0.0
O421 O 0.09921 0.10636 0.91428 0.0
H422 H 0.0533 0.10615 0.8269 0.0
H423 H 0.11644 0.01706 0.94413 0.0
O424 O 0.06427 0.04243 0.95103 0.0
H425 H 0.19134 0.10434 0.95276 0.0
H426 H 0.08643 0.12365 0.99769 0.0
H427 H 0.05575 0.1386 0.93048 0.0
H428 H 0.13761 0.11444 0.9412 0.0
H429 H 0.09444 0.08131 0.97414 0.0
O430 O 0.12018 0.02046 0.87963 0.0
H431 H 0.06235 0.09886 0.86135 0.0
H432 H 0.08595 1.00306 0.85213 0.0
H433 H 0.04735 0.18157 0.95357 0.0
H434 H 0.16979 0.00593 0.95606 0.0
H435 H 0.06272 0.17422 0.98744 0.0
H436 H 0.20771 0.04974 0.96036 0.0
O437 O 0.03856 0.08205 0.92213 0.0
H438 H 0.05993 0.93299 0.90288 0.0
H439 H 0.01828 0.02763 0.8712 0.0
H440 H 0.98618 0.97941 0.87208 0.0
H441 H 0.00703 0.9316 0.88795 0.0
H442 H 0.09115 0.98184 0.90182 0.0
H443 H 0.07742 0.00939 0.81755 0.0
H444 H 0.06085 0.0612 0.80473 0.0
O445 O 0.04291 0.07054 0.891 0.0
C446 C 0.10932 0.10772 0.89714 0.0
C447 C 0.06043 0.08343 0.83231 0.0
C448 C 0.074 0.02914 0.82707 0.0
N449 N 0.07445 0.05052 0.85877 0.0
C450 C 0.06551 0.07914 0.85182 0.0
C451 C 0.07887 0.02572 0.84666 0.0
C452 C 0.06469 0.05821 0.81989 0.0
C453 C 0.13268 0.0363 0.94617 0.0
N454 N 0.12387 0.06638 0.94197 0.0
C455 C 0.16292 0.02983 0.95284 0.0
C456 C 0.1842 0.05441 0.95521 0.0
C457 C 0.17505 0.08504 0.95092 0.0
C458 C 0.14463 0.09061 0.94426 0.0
C459 C 0.07965 0.12715 0.98297 0.0
C460 C 0.06253 0.13524 0.9452 0.0
C461 C 0.08415 0.10327 0.96956 0.0
N462 N 0.07559 0.10749 0.95094 0.0
C463 C 0.05771 0.15964 0.9582 0.0
C464 C 0.06634 0.15551 0.97721 0.0
C465 C 0.02769 0.08153 0.90517 0.0
C466 C 0.05063 0.95365 0.89588 0.0
C467 C 0.02747 0.00698 0.87821 0.0
C468 C 0.00921 0.97971 0.87862 0.0
C469 C 0.02093 0.95289 0.88752 0.0
N470 N 0.05664 0.00748 0.88637 0.0
C471 C 0.06823 0.98133 0.89519 0.0
Co472 Co 0.82993 0.81535 0.68074 0.0
Co473 Co 0.78597 0.82632 0.64023 0.0
O474 O 0.79029 0.82685 0.66819 0.0
C475 C 0.78766 0.77416 0.70485 0.0
O476 O 0.78028 0.75682 0.69 0.0
C477 C 0.75408 0.88612 0.65261 0.0
O478 O 0.7703 0.88636 0.66848 0.0
O479 O 0.82283 0.85472 0.63754 0.0
O480 O 0.85515 0.83381 0.65932 0.0
H481 H 0.8263 0.81843 0.573 0.0
H482 H 0.78303 0.85143 0.70322 0.0
O483 O 0.80609 0.79754 0.70301 0.0
H484 H 0.87807 0.91771 0.7021 0.0
H485 H 0.90266 0.80234 0.73688 0.0
H486 H 0.89007 0.78763 0.66753 0.0
H487 H 0.87757 0.86623 0.68602 0.0
H488 H 0.85336 0.81753 0.72091 0.0
O489 O 0.75737 0.86399 0.64054 0.0
H490 H 0.83062 0.81856 0.60807 0.0
H491 H 0.73239 0.83412 0.61314 0.0
H492 H 0.93985 0.77238 0.68291 0.0
H493 H 0.78273 0.90247 0.71988 0.0
H494 H 0.94639 0.77971 0.71784 0.0
H495 H 0.83043 0.93611 0.71929 0.0
O496 O 0.83007 0.77381 0.66739 0.0
H497 H 0.68364 0.79117 0.6689 0.0
H498 H 0.76646 0.76586 0.62211 0.0
H499 H 0.72161 0.72973 0.62609 0.0
H500 H 0.67975 0.74236 0.64959 0.0
H501 H 0.72903 0.82652 0.66455 0.0
H502 H 0.72705 0.83446 0.57811 0.0
H503 H 0.77421 0.82643 0.55779 0.0
O504 O 0.81436 0.7889 0.63828 0.0
C505 C 0.85004 0.85122 0.64482 0.0
C506 C 0.80555 0.82179 0.5817 0.0
C507 C 0.74986 0.83083 0.58457 0.0
N508 N 0.78176 0.82593 0.61266 0.0
C509 C 0.80784 0.82176 0.60157 0.0
C510 C 0.75304 0.83065 0.6044 0.0
C511 C 0.77633 0.82633 0.57317 0.0
C512 C 0.80399 0.86577 0.70304 0.0
N513 N 0.83021 0.8559 0.69351 0.0
C514 C 0.80363 0.89473 0.71243 0.0
C515 C 0.83038 0.91361 0.71207 0.0
C516 C 0.85709 0.90333 0.7024 0.0
C517 C 0.85659 0.87424 0.69317 0.0
C518 C 0.9001 0.79906 0.72165 0.0
C519 C 0.89275 0.79102 0.68272 0.0
C520 C 0.87219 0.80753 0.71253 0.0
N521 N 0.86886 0.80361 0.69327 0.0
C522 C 0.92099 0.78228 0.69136 0.0
C523 C 0.92464 0.78637 0.71096 0.0
C524 C 0.82736 0.76915 0.64947 0.0
C525 C 0.70166 0.78548 0.65856 0.0
C526 C 0.74836 0.77149 0.63239 0.0
C527 C 0.723 0.75097 0.63456 0.0
C528 C 0.69952 0.75807 0.64774 0.0
N529 N 0.7502 0.79843 0.64297 0.0
C530 C 0.72735 0.80547 0.65598 0.0
Co531 Co 0.93879 0.08712 0.43838 0.0
Co532 Co 0.93115 0.05173 0.39379 0.0
O533 O 0.93129 0.05041 0.42193 0.0
C534 C 0.99166 0.06981 0.46323 0.0
O535 O 0.00509 0.09507 0.45625 0.0
C536 C 0.86812 0.02545 0.40361 0.0
O537 O 0.86701 0.04502 0.41807 0.0
O538 O 0.90455 0.09047 0.39326 0.0
O539 O 0.91264 0.11418 0.42144 0.0
H540 H 0.94358 0.10331 0.32978 0.0
H541 H 0.91544 0.028 0.4554 0.0
O542 O 0.96525 0.06081 0.45641 0.0
H543 H 0.8337 0.10677 0.46951 0.0
H544 H 0.9455 0.14561 0.50096 0.0
H545 H 0.95577 0.15347 0.43105 0.0
H546 H 0.88191 0.12176 0.45225 0.0
H547 H 0.93655 0.09925 0.48056 0.0
O548 O 0.89201 0.02503 0.39265 0.0
H549 H 0.94332 0.10115 0.36494 0.0
H550 H 0.91915 0.00434 0.3632 0.0
H551 H 0.96487 0.20044 0.45094 0.0
H552 H 0.86784 0.01203 0.47299 0.0
H553 H 0.95978 0.19667 0.48616 0.0
H554 H 0.82647 0.05153 0.48006 0.0
O555 O 0.97731 0.09832 0.42326 0.0
H556 H 0.95983 0.94233 0.41425 0.0
H557 H 0.99064 0.03269 0.3744 0.0
H558 H 0.02391 0.98526 0.37476 0.0
H559 H 0.00849 0.9396 0.39473 0.0
H560 H 0.92739 0.99037 0.4136 0.0
H561 H 0.91888 0.00552 0.32803 0.0
H562 H 0.93128 0.05525 0.31108 0.0
O563 O 0.97009 0.07797 0.39398 0.0
C564 C 0.90053 0.11327 0.40483 0.0
C565 C 0.93822 0.08148 0.337 0.0
C566 C 0.92431 0.02661 0.33602 0.0
N567 N 0.93139 0.05262 0.36611 0.0
C568 C 0.93811 0.0801 0.3569 0.0
C569 C 0.92442 0.02611 0.35594 0.0
C570 C 0.93128 0.05452 0.32652 0.0
C571 C 0.89769 0.04539 0.45859 0.0
N572 N 0.90142 0.07579 0.45274 0.0
C573 C 0.87072 0.03618 0.46848 0.0
C574 C 0.8475 0.05834 0.47241 0.0
C575 C 0.85151 0.08932 0.46646 0.0
C576 C 0.87876 0.09765 0.45657 0.0
C577 C 0.94776 0.14756 0.48563 0.0
C578 C 0.95345 0.15165 0.44637 0.0
C579 C 0.94269 0.1214 0.47399 0.0
N580 N 0.94561 0.12364 0.4546 0.0
C581 C 0.95865 0.17832 0.45756 0.0
C582 C 0.95578 0.17619 0.47732 0.0
C583 C 0.98607 0.09381 0.40602 0.0
C584 C 0.96675 0.96205 0.40545 0.0
C585 C 0.98385 0.01299 0.38321 0.0
C586 C 1.00274 0.98615 0.38331 0.0
C587 C 0.99407 0.96054 0.39451 0.0
N588 N 0.95701 0.01422 0.39391 0.0
C589 C 0.94843 0.98926 0.40499 0.0
Co590 Co 0.68249 0.18493 0.17743 0.0
Co591 Co 0.70891 0.18128 0.1308 0.0
O592 O 0.71526 0.17665 0.15839 0.0
C593 C 0.71289 0.22917 0.20426 0.0
O594 O 0.68867 0.24765 0.20128 0.0
C595 C 0.73423 0.11644 0.13494 0.0
O596 O 0.7164 0.11294 0.15006 0.0
O597 O 0.66967 0.15575 0.13166 0.0
O598 O 0.64934 0.16651 0.16049 0.0
H599 H 0.64608 0.20392 0.07173 0.0
H600 H 0.73989 0.15052 0.18901 0.0
O601 O 0.71525 0.20339 0.19499 0.0
H602 H 0.65236 0.07735 0.20136 0.0
H603 H 0.63623 0.18587 0.24371 0.0
H604 H 0.61823 0.21148 0.176 0.0
H605 H 0.64216 0.13036 0.18866 0.0
H606 H 0.67731 0.17562 0.21967 0.0
O607 O 0.73403 0.1422 0.12571 0.0
H608 H 0.6547 0.1982 0.10633 0.0
H609 H 0.7501 0.17357 0.09662 0.0
H610 H 0.57649 0.22207 0.19957 0.0
H611 H 0.75113 0.09789 0.20201 0.0
H612 H 0.58538 0.20925 0.2337 0.0
H613 H 0.70719 0.06084 0.20818 0.0
O614 O 0.67461 0.2274 0.16617 0.0
H615 H 0.82208 0.20484 0.14534 0.0
H616 H 0.72603 0.24314 0.11364 0.0
H617 H 0.77413 0.27544 0.11274 0.0
H618 H 0.82264 0.25627 0.12861 0.0
H619 H 0.77335 0.17341 0.14604 0.0
H620 H 0.74245 0.17877 0.06189 0.0
H621 H 0.69016 0.19417 0.04924 0.0
O622 O 0.68398 0.22044 0.13492 0.0
C623 C 0.64737 0.15463 0.14381 0.0
C624 C 0.669 0.1973 0.07706 0.0
C625 C 0.72308 0.18314 0.07155 0.0
N626 N 0.70292 0.18581 0.1035 0.0
C627 C 0.67405 0.19411 0.09665 0.0
C628 C 0.72725 0.18017 0.09122 0.0
C629 C 0.69374 0.19179 0.06446 0.0
C630 C 0.7206 0.13468 0.19187 0.0
N631 N 0.69038 0.14356 0.18809 0.0
C632 C 0.72713 0.10484 0.19914 0.0
C633 C 0.70248 0.08404 0.20256 0.0
C634 C 0.67172 0.09327 0.19871 0.0
C635 C 0.66608 0.12328 0.19141 0.0
C636 C 0.63206 0.19153 0.22888 0.0
C637 C 0.62225 0.2058 0.19082 0.0
C638 C 0.65523 0.18577 0.2152 0.0
N639 N 0.65015 0.1929 0.19643 0.0
C640 C 0.59854 0.21186 0.20411 0.0
C641 C 0.60354 0.20466 0.22325 0.0
C642 C 0.6741 0.2369 0.1489 0.0
C643 C 0.80112 0.2134 0.13832 0.0
C644 C 0.747 0.23469 0.12066 0.0
C645 C 0.77419 0.25306 0.12005 0.0
C646 C 0.80141 0.24227 0.12895 0.0
N647 N 0.74695 0.20633 0.1298 0.0
C648 C 0.77349 0.19567 0.13863 0.0
Co649 Co 0.57976 0.92011 0.92026 0.0
Co650 Co 0.58005 0.95504 0.87578 0.0
O651 O 0.58709 0.956 0.90339 0.0
C652 C 0.53851 0.94691 0.95019 0.0
O653 O 0.51955 0.92312 0.94696 0.0
C654 C 0.64555 0.97798 0.88011 0.0
O655 O 0.64932 0.95716 0.8937 0.0
O656 O 0.60468 0.91552 0.87306 0.0
O657 O 0.59597 0.88998 0.90058 0.0
H658 H 0.55108 0.90457 0.8134 0.0
H659 H 0.61635 0.9744 0.93479 0.0
O660 O 0.56351 0.95001 0.94028 0.0
H661 H 0.68854 0.88399 0.93832 0.0
H662 H 0.58334 0.86233 0.98301 0.0
H663 H 0.55194 0.85683 0.91538 0.0
H664 H 0.63435 0.87714 0.92665 0.0
H665 H 0.59226 0.90738 0.96156 0.0
O666 O 0.61938 0.98023 0.87141 0.0
H667 H 0.55996 0.90624 0.84815 0.0
H668 H 0.58604 1.00241 0.84463 0.0
H669 H 0.54264 0.81121 0.93633 0.0
H670 H 0.67021 0.9822 0.94683 0.0
H671 H 0.55838 0.8138 0.97041 0.0
H672 H 0.70678 0.93682 0.94857 0.0
O673 O 0.53626 0.91495 0.90996 0.0
H674 H 0.56031 0.06503 0.89897 0.0
H675 H 0.51727 0.97632 0.86196 0.0
H676 H 0.48602 0.02478 0.8655 0.0
H677 H 0.50758 0.06961 0.88406 0.0
H678 H 0.59066 0.01601 0.89521 0.0
H679 H 0.57774 1.0017 0.80981 0.0
H680 H 0.56 0.95256 0.79398 0.0
O681 O 0.54069 0.93004 0.87935 0.0
C682 C 0.60633 0.89103 0.88348 0.0
C683 C 0.5587 0.92616 0.82013 0.0
C684 C 0.57371 0.98066 0.81812 0.0
N685 N 0.57321 0.95446 0.84843 0.0
C686 C 0.56366 0.92728 0.83981 0.0
C687 C 0.57843 0.9809 0.83783 0.0
C688 C 0.56374 0.95308 0.80925 0.0
C689 C 0.63196 0.95444 0.93574 0.0
N690 N 0.62213 0.92532 0.93006 0.0
C691 C 0.66251 0.95905 0.94247 0.0
C692 C 0.68303 0.93359 0.9434 0.0
C693 C 0.67283 0.90396 0.93762 0.0
C694 C 0.64215 0.90024 0.93093 0.0
C695 C 0.5764 0.86091 0.96818 0.0
C696 C 0.55889 0.85812 0.93019 0.0
C697 C 0.5814 0.88633 0.95597 0.0
N698 N 0.57267 0.88471 0.93722 0.0
C699 C 0.55355 0.83222 0.94198 0.0
C700 C 0.56239 0.83369 0.9611 0.0
C701 C 0.52532 0.9177 0.89308 0.0
C702 C 0.55071 0.04569 0.8908 0.0
C703 C 0.52676 0.99568 0.87013 0.0
C704 C 0.50898 0.02308 0.87204 0.0
C705 C 0.5211 0.04823 0.88245 0.0
N706 N 0.55584 0.99343 0.87828 0.0
C707 C 0.56782 0.01792 0.88858 0.0
Co708 Co 0.82981 0.1788 0.83039 0.0
Co709 Co 0.80327 0.17273 0.87688 0.0
O710 O 0.79727 0.16894 0.84922 0.0
C711 C 0.79839 0.2223 0.80375 0.0
O712 O 0.82187 0.24165 0.80695 0.0
C713 C 0.77993 0.10766 0.87103 0.0
O714 O 0.79807 0.10583 0.85595 0.0
O715 O 0.84352 0.14875 0.87586 0.0
O716 O 0.86333 0.16101 0.84714 0.0
H717 H 0.86441 0.19606 0.93653 0.0
H718 H 0.77353 0.14302 0.81819 0.0
O719 O 0.79663 0.19655 0.81302 0.0
H720 H 0.86328 0.07308 0.80492 0.0
H721 H 0.87664 0.18312 0.76428 0.0
H722 H 0.8931 0.20753 0.83233 0.0
H723 H 0.8718 0.12589 0.81842 0.0
H724 H 0.83573 0.17075 0.78804 0.0
O725 O 0.77951 0.13251 0.88116 0.0
H726 H 0.85643 0.19118 0.90181 0.0
H727 H 0.76215 0.16187 0.91074 0.0
H728 H 0.93464 0.22026 0.80903 0.0
H729 H 0.76395 0.09062 0.80436 0.0
H730 H 0.92653 0.20806 0.77473 0.0
H731 H 0.80901 0.05516 0.79773 0.0
O732 O 0.8363 0.22111 0.84223 0.0
H733 H 0.68945 0.1927 0.86221 0.0
H734 H 0.78372 0.23319 0.89492 0.0
H735 H 0.73448 0.26366 0.89612 0.0
H736 H 0.68686 0.24338 0.87974 0.0
H737 H 0.73927 0.16311 0.86122 0.0
H738 H 0.76919 0.16618 0.94558 0.0
H739 H 0.82058 0.18351 0.95867 0.0
O740 O 0.82677 0.21296 0.87338 0.0
C741 C 0.86581 0.14883 0.86369 0.0
C742 C 0.84188 0.18857 0.931 0.0
C743 C 0.78845 0.17176 0.93607 0.0
N744 N 0.8088 0.17646 0.90426 0.0
C745 C 0.8372 0.18584 0.91135 0.0
C746 C 0.78463 0.16928 0.91634 0.0
C747 C 0.81729 0.1815 0.94341 0.0
C748 C 0.79331 0.12791 0.81513 0.0
N749 N 0.82323 0.13755 0.81916 0.0
C750 C 0.78771 0.09818 0.80739 0.0
C751 C 0.813 0.07827 0.80372 0.0
C752 C 0.84344 0.08829 0.80779 0.0
C753 C 0.84813 0.11815 0.81556 0.0
C754 C 0.88047 0.18853 0.77919 0.0
C755 C 0.88941 0.20211 0.81743 0.0
C756 C 0.8574 0.18156 0.79271 0.0
N757 N 0.86203 0.18838 0.81158 0.0
C758 C 0.91301 0.20938 0.8043 0.0
C759 C 0.90845 0.20253 0.78506 0.0
C760 C 0.8363 0.23015 0.85962 0.0
C761 C 0.71001 0.20174 0.86945 0.0
C762 C 0.76314 0.22426 0.88768 0.0
C763 C 0.7353 0.24159 0.88846 0.0
C764 C 0.70859 0.23019 0.87927 0.0
N765 N 0.76431 0.1963 0.87809 0.0
C766 C 0.73826 0.18504 0.86898 0.0
Co767 Co 0.5769 0.08378 0.57477 0.0
Co768 Co 0.57083 0.04129 0.61666 0.0
O769 O 0.58045 0.04466 0.58933 0.0
C770 C 0.5368 0.04221 0.55046 0.0
O771 O 0.51963 0.03528 0.56546 0.0
C772 C 0.63549 0.01615 0.61334 0.0
O773 O 0.64149 0.03922 0.60149 0.0
O774 O 0.59722 0.0787 0.62292 0.0
O775 O 0.59366 0.10856 0.59666 0.0
H776 H 0.53788 0.08213 0.6809 0.0
H777 H 0.61083 0.02948 0.5582 0.0
O778 O 0.56052 0.06021 0.55211 0.0
H779 H 0.68875 0.11516 0.56073 0.0
H780 H 0.58612 0.15103 0.51591 0.0
H781 H 0.55487 0.14823 0.58364 0.0
H782 H 0.63435 0.1239 0.57159 0.0
H783 H 0.59096 0.10213 0.53453 0.0
O784 O 0.60826 0.01329 0.62069 0.0
H785 H 0.55024 0.08604 0.64661 0.0
H786 H 0.57121 0.98851 0.64465 0.0
H787 H 0.54994 0.19771 0.5656 0.0
H788 H 0.66489 0.01978 0.54694 0.0
H789 H 0.56562 0.19931 0.53148 0.0
H790 H 0.70432 0.06278 0.54825 0.0
O791 O 0.53312 0.09071 0.58423 0.0
H792 H 0.54753 0.93772 0.58528 0.0
H793 H 0.50569 0.02141 0.62683 0.0
H794 H 0.47215 0.97606 0.61872 0.0
H795 H 0.49307 0.93377 0.59782 0.0
H796 H 0.58019 0.98362 0.59364 0.0
H797 H 0.55937 0.9836 0.67897 0.0
H798 H 0.54243 0.03061 0.69731 0.0
O799 O 0.53337 0.069 0.61345 0.0
C800 C 0.60195 0.10431 0.61395 0.0
C801 C 0.54514 0.06145 0.67306 0.0
C802 C 0.55725 0.00616 0.67197 0.0
N803 N 0.5612 0.03749 0.64361 0.0
C804 C 0.55209 0.0635 0.65362 0.0
C805 C 0.56399 0.0091 0.65255 0.0
C806 C 0.54773 0.03255 0.68226 0.0
C807 C 0.62779 0.04839 0.55866 0.0
N808 N 0.61946 0.07721 0.56562 0.0
C809 C 0.65839 0.04272 0.55233 0.0
C810 C 0.68052 0.06684 0.5531 0.0
C811 C 0.67181 0.09622 0.56013 0.0
C812 C 0.641 0.101 0.56637 0.0
C813 C 0.57925 0.15063 0.53078 0.0
C814 C 0.5619 0.14878 0.56883 0.0
C815 C 0.58185 0.12299 0.54138 0.0
N816 N 0.57338 0.12237 0.56019 0.0
C817 C 0.55898 0.17685 0.55867 0.0
C818 C 0.56776 0.17772 0.53952 0.0
C819 C 0.52033 0.08531 0.60039 0.0
C820 C 0.53818 0.95594 0.59444 0.0
C821 C 0.51494 1.00314 0.6177 0.0
C822 C 0.49586 0.97749 0.61318 0.0
C823 C 0.50762 0.95377 0.60146 0.0
N824 N 0.54493 0.00505 0.6108 0.0
C825 C 0.5566 0.98193 0.59927 0.0
Co826 Co 0.68392 0.82155 0.33478 0.0
Co827 Co 0.70975 0.83949 0.38011 0.0
O828 O 0.71657 0.83591 0.35252 0.0
C829 C 0.71605 0.77297 0.31128 0.0
O830 O 0.69278 0.75393 0.31555 0.0
C831 C 0.7384 0.90116 0.36938 0.0
O832 O 0.72109 0.90108 0.3539 0.0
O833 O 0.67118 0.86533 0.37608 0.0
O834 O 0.65014 0.84311 0.34996 0.0
H835 H 0.64535 0.83619 0.44018 0.0
H836 H 0.73997 0.85464 0.3197 0.0
O837 O 0.71733 0.80021 0.31893 0.0
H838 H 0.64967 0.91981 0.3004 0.0
H839 H 0.6368 0.8017 0.2698 0.0
H840 H 0.62084 0.79317 0.33928 0.0
H841 H 0.64156 0.87068 0.31831 0.0
H842 H 0.67773 0.81971 0.29216 0.0
O843 O 0.73635 0.87865 0.38127 0.0
H844 H 0.65471 0.83136 0.40559 0.0
H845 H 0.75064 0.85582 0.41329 0.0
H846 H 0.57929 0.77488 0.31742 0.0
H847 H 0.74916 0.90326 0.30145 0.0
H848 H 0.58715 0.77908 0.2824 0.0
H849 H 0.70383 0.93633 0.29176 0.0
O850 O 0.67766 0.78226 0.35016 0.0
H851 H 0.82224 0.80851 0.36915 0.0
H852 H 0.72462 0.78322 0.40384 0.0
H853 H 0.77161 0.75025 0.40859 0.0
H854 H 0.82091 0.76289 0.39122 0.0
H855 H 0.7746 0.8407 0.36469 0.0
H856 H 0.74227 0.86112 0.44795 0.0
H857 H 0.68934 0.85117 0.46163 0.0
O858 O 0.68357 0.80045 0.38002 0.0
C859 C 0.64832 0.86102 0.36457 0.0
C860 C 0.66854 0.8405 0.43441 0.0
C861 C 0.72293 0.85454 0.43876 0.0
N862 N 0.70321 0.84313 0.40743 0.0
C863 C 0.674 0.83774 0.41483 0.0
C864 C 0.7275 0.85157 0.41911 0.0
C865 C 0.69322 0.84894 0.44643 0.0
C866 C 0.72007 0.86869 0.31536 0.0
N867 N 0.69022 0.85982 0.32015 0.0
C868 C 0.72545 0.8963 0.3051 0.0
C869 C 0.70001 0.91487 0.29971 0.0
C870 C 0.66963 0.90565 0.30458 0.0
C871 C 0.66517 0.87792 0.31487 0.0
C872 C 0.63309 0.79975 0.28503 0.0
C873 C 0.62445 0.79507 0.32407 0.0
C874 C 0.65618 0.80992 0.29777 0.0
N875 N 0.65171 0.80747 0.31704 0.0
C876 C 0.60083 0.78469 0.31175 0.0
C877 C 0.60525 0.78705 0.29211 0.0
C878 C 0.6752 0.77913 0.36824 0.0
C879 C 0.80093 0.80282 0.37684 0.0
C880 C 0.74594 0.78881 0.39617 0.0
C881 C 0.7725 0.77009 0.39895 0.0
C882 C 0.80015 0.77721 0.38921 0.0
N883 N 0.74694 0.81399 0.38409 0.0
C884 C 0.77392 0.82102 0.37442 0.0
Co885 Co 0.93949 0.92673 0.08196 0.0
Co886 Co 0.92638 0.95445 0.12758 0.0
O887 O 0.92727 0.96023 0.09979 0.0
C888 C 0.98695 0.95697 0.05679 0.0
O889 O 0.00563 0.93329 0.06075 0.0
C890 C 0.86382 0.98338 0.11905 0.0
O891 O 0.86247 0.96754 0.10301 0.0
O892 O 0.89992 0.9161 0.12499 0.0
O893 O 0.91854 0.8939 0.09819 0.0
H894 H 0.93472 0.89196 0.18816 0.0
H895 H 0.90646 0.98292 0.06713 0.0
O896 O 0.96028 0.95914 0.0651 0.0
H897 H 0.83762 0.89346 0.05124 0.0
H898 H 0.95271 0.87719 0.017 0.0
H899 H 0.96682 0.86318 0.0863 0.0
H900 H 0.888 0.8849 0.06774 0.0
H901 H 0.93758 0.91921 0.03943 0.0
O902 O 0.88754 0.98091 0.12999 0.0
H903 H 0.93616 0.90011 0.15335 0.0
H904 H 0.91408 0.99667 0.16082 0.0
H905 H 0.98224 0.82054 0.06436 0.0
H906 H 0.85658 0.99253 0.05026 0.0
H907 H 0.97523 0.82742 0.02944 0.0
H908 H 0.82166 0.94762 0.04229 0.0
O909 O 0.97993 0.92015 0.0961 0.0
H910 H 0.95652 0.06641 0.11419 0.0
H911 H 0.98513 0.96985 0.14891 0.0
H912 H 0.0187 0.01685 0.15182 0.0
H913 H 0.00439 0.06562 0.13444 0.0
H914 H 0.92376 0.01875 0.11154 0.0
H915 H 0.91219 0.98952 0.1957 0.0
H916 H 0.92266 0.93689 0.2096 0.0
O917 O 0.96504 0.92809 0.12645 0.0
C918 C 0.90231 0.89292 0.11353 0.0
C919 C 0.93023 0.91504 0.18229 0.0
C920 C 0.91753 0.96978 0.18652 0.0
N921 N 0.92547 0.94887 0.15505 0.0
C922 C 0.9311 0.91982 0.16259 0.0
C923 C 0.91859 0.97367 0.16674 0.0
C924 C 0.92342 0.94025 0.1943 0.0
C925 C 0.89159 0.9632 0.06353 0.0
N926 N 0.90015 0.93335 0.06848 0.0
C927 C 0.86328 0.96882 0.05405 0.0
C928 C 0.84367 0.94362 0.04962 0.0
C929 C 0.85258 0.91324 0.05468 0.0
C930 C 0.88105 0.90853 0.06416 0.0
C931 C 0.95588 0.8739 0.03219 0.0
C932 C 0.96369 0.86636 0.07112 0.0
C933 C 0.94734 0.89761 0.04497 0.0
N934 N 0.95133 0.89368 0.06418 0.0
C935 C 0.97246 0.84212 0.05877 0.0
C936 C 0.96851 0.84599 0.03918 0.0
C937 C 0.98486 0.91868 0.11406 0.0
C938 C 0.96295 0.04533 0.12187 0.0
C939 C 0.97882 0.99093 0.14123 0.0
C940 C 0.99788 0.0175 0.14298 0.0
C941 C 0.98983 0.04486 0.13322 0.0
N942 N 0.9524 0.99164 0.13015 0.0
C943 C 0.94444 0.01832 0.12047 0.0
Co944 Co 0.67054 0.67099 0.82706 0.0
Co945 Co 0.71067 0.66228 0.86925 0.0
O946 O 0.70848 0.65932 0.8413 0.0
C947 C 0.71524 0.70988 0.80325 0.0
O948 O 0.72114 0.7284 0.81782 0.0
C949 C 0.73577 0.59826 0.86088 0.0
O950 O 0.7148 0.59524 0.8473 0.0
O951 O 0.67203 0.63617 0.87197 0.0
O952 O 0.64273 0.65501 0.84802 0.0
H953 H 0.66644 0.67931 0.93494 0.0
H954 H 0.71884 0.63159 0.80817 0.0
O955 O 0.69696 0.68639 0.80517 0.0
H956 H 0.62182 0.56825 0.80688 0.0
H957 H 0.60375 0.68145 0.76808 0.0
H958 H 0.61021 0.70156 0.83725 0.0
H959 H 0.6219 0.62124 0.82109 0.0
H960 H 0.6509 0.66611 0.78624 0.0
O961 O 0.73733 0.62343 0.87065 0.0
H962 H 0.66447 0.67599 0.89984 0.0
H963 H 0.76173 0.65378 0.89798 0.0
H964 H 0.5625 0.717 0.81967 0.0
H965 H 0.7197 0.5789 0.79351 0.0
H966 H 0.55905 0.70697 0.78482 0.0
H967 H 0.67097 0.54677 0.79289 0.0
O968 O 0.67043 0.71358 0.83918 0.0
H969 H 0.8168 0.68912 0.84244 0.0
H970 H 0.73212 0.72332 0.88579 0.0
H971 H 0.7791 0.75664 0.88182 0.0
H972 H 0.82189 0.73954 0.86005 0.0
H973 H 0.76927 0.65663 0.84672 0.0
H974 H 0.76468 0.65659 0.93308 0.0
H975 H 0.71683 0.66957 0.95179 0.0
O976 O 0.6844 0.70123 0.8691 0.0
C977 C 0.64573 0.63949 0.86349 0.0
C978 C 0.68748 0.67376 0.92694 0.0
C979 C 0.74261 0.66097 0.9259 0.0
N980 N 0.713 0.66502 0.89685 0.0
C981 C 0.68653 0.67194 0.90705 0.0
C982 C 0.74077 0.65936 0.90603 0.0
C983 C 0.71575 0.66826 0.93639 0.0
C984 C 0.69746 0.61788 0.80779 0.0
N985 N 0.67036 0.62948 0.81554 0.0
C986 C 0.69813 0.588 0.79954 0.0
C987 C 0.67079 0.56997 0.79923 0.0
C988 C 0.64322 0.58199 0.8071 0.0
C989 C 0.64345 0.61195 0.81524 0.0
C990 C 0.60495 0.68592 0.78326 0.0
C991 C 0.60885 0.69698 0.82211 0.0
C992 C 0.63164 0.67737 0.79362 0.0
N993 N 0.63327 0.68279 0.81282 0.0
C994 C 0.58179 0.70584 0.81222 0.0
C995 C 0.57988 0.70022 0.79266 0.0
C996 C 0.67299 0.72027 0.85688 0.0
C997 C 0.79835 0.69678 0.85201 0.0
C998 C 0.7506 0.71576 0.87625 0.0
C999 C 0.77717 0.73469 0.87409 0.0
C1000 C 0.80118 0.72508 0.86188 0.0
N1001 N 0.74807 0.68796 0.86658 0.0
C1002 C 0.77145 0.67843 0.85454 0.0
Co1003 Co 0.5674 0.43004 0.07419 0.0
Co1004 Co 0.58039 0.45889 0.11953 0.0
O1005 O 0.57965 0.46382 0.0917 0.0
C1006 C 0.52077 0.46 0.04857 0.0
O1007 O 0.50164 0.43683 0.05288 0.0
C1008 C 0.64313 0.48563 0.11006 0.0
O1009 O 0.64399 0.46718 0.09508 0.0
O1010 O 0.60614 0.41988 0.11752 0.0
O1011 O 0.58758 0.39751 0.09079 0.0
H1012 H 0.57023 0.39897 0.18097 0.0
H1013 H 0.60128 0.48549 0.05896 0.0
O1014 O 0.54733 0.46216 0.05695 0.0
H1015 H 0.66935 0.39492 0.04427 0.0
H1016 H 0.55449 0.37888 0.00967 0.0
H1017 H 0.53915 0.36696 0.07902 0.0
H1018 H 0.61862 0.38731 0.06059 0.0
H1019 H 0.56987 0.42131 0.03175 0.0
O1020 O 0.61968 0.48497 0.12133 0.0
H1021 H 0.56893 0.40585 0.14605 0.0
H1022 H 0.59403 0.50195 0.15214 0.0
H1023 H 0.52345 0.32395 0.05744 0.0
H1024 H 0.65151 0.49414 0.04225 0.0
H1025 H 0.53108 0.32977 0.02249 0.0
H1026 H 0.68604 0.44866 0.03489 0.0
O1027 O 0.52684 0.42424 0.08828 0.0
H1028 H 0.55211 0.57086 0.10473 0.0
H1029 H 0.52202 0.47601 0.14074 0.0
H1030 H 0.48928 0.52366 0.14314 0.0
H1031 H 0.50434 0.57157 0.1251 0.0
H1032 H 0.58403 0.52259 0.10261 0.0
H1033 H 0.59581 0.49606 0.18712 0.0
H1034 H 0.58375 0.4443 0.20176 0.0
O1035 O 0.54116 0.43313 0.11866 0.0
C1036 C 0.60341 0.39649 0.10624 0.0
C1037 C 0.57544 0.42167 0.17477 0.0
C1038 C 0.58984 0.47615 0.17822 0.0
N1039 N 0.5812 0.4543 0.14707 0.0
C1040 C 0.57467 0.42573 0.15501 0.0
C1041 C 0.58886 0.47932 0.1584 0.0
C1042 C 0.58306 0.4471 0.18642 0.0
C1043 C 0.61596 0.46552 0.0556 0.0
N1044 N 0.60699 0.43589 0.06081 0.0
C1045 C 0.64448 0.47059 0.04623 0.0
C1046 C 0.66387 0.44508 0.04214 0.0
C1047 C 0.65455 0.41493 0.04743 0.0
C1048 C 0.62589 0.41077 0.05681 0.0
C1049 C 0.55105 0.37606 0.02487 0.0
C1050 C 0.54255 0.36968 0.06383 0.0
C1051 C 0.55974 0.39999 0.03745 0.0
N1052 N 0.5554 0.39664 0.05668 0.0
C1053 C 0.53362 0.34524 0.05168 0.0
C1054 C 0.53791 0.34852 0.03207 0.0
C1055 C 0.5215 0.42345 0.10622 0.0
C1056 C 0.54536 0.55016 0.1127 0.0
C1057 C 0.52866 0.49672 0.13278 0.0
C1058 C 0.51007 0.52366 0.13423 0.0
C1059 C 0.51854 0.55053 0.12412 0.0
N1060 N 0.55502 0.4966 0.12163 0.0
C1061 C 0.56339 0.5228 0.1116 0.0
Co1062 Co 0.82839 0.32081 0.33032 0.0
Co1063 Co 0.78843 0.32451 0.37309 0.0
O1064 O 0.7911 0.33024 0.34547 0.0
C1065 C 0.80299 0.27966 0.2998 0.0
O1066 O 0.82541 0.2597 0.30413 0.0
C1067 C 0.7718 0.39121 0.36727 0.0
O1068 O 0.7973 0.39306 0.35678 0.0
O1069 O 0.82872 0.34746 0.37728 0.0
O1070 O 0.85678 0.33646 0.35099 0.0
H1071 H 0.82905 0.29627 0.43814 0.0
H1072 H 0.77752 0.35948 0.3135 0.0
O1073 O 0.80012 0.30514 0.30929 0.0
H1074 H 0.87149 0.42729 0.31289 0.0
H1075 H 0.89337 0.3194 0.27014 0.0
H1076 H 0.8896 0.29042 0.3382 0.0
H1077 H 0.87457 0.37305 0.32504 0.0
H1078 H 0.84641 0.33115 0.28953 0.0
O1079 O 0.76457 0.36525 0.37523 0.0
H1080 H 0.83236 0.3033 0.40327 0.0
H1081 H 0.7377 0.33477 0.40175 0.0
H1082 H 0.93702 0.27827 0.31934 0.0
H1083 H 0.77349 0.41348 0.30102 0.0
H1084 H 0.93911 0.29279 0.28505 0.0
H1085 H 0.82068 0.44784 0.30074 0.0
O1086 O 0.83042 0.27771 0.34142 0.0
H1087 H 0.68074 0.30837 0.34537 0.0
H1088 H 0.76267 0.26347 0.38693 0.0
H1089 H 0.71336 0.23419 0.38179 0.0
H1090 H 0.67194 0.25669 0.36092 0.0
H1091 H 0.73052 0.33674 0.35077 0.0
H1092 H 0.73344 0.32839 0.43664 0.0
H1093 H 0.7793 0.30887 0.45505 0.0
O1094 O 0.81214 0.28382 0.37132 0.0
C1095 C 0.85434 0.34767 0.36783 0.0
C1096 C 0.80887 0.3047 0.43026 0.0
C1097 C 0.75522 0.32276 0.42943 0.0
N1098 N 0.78517 0.31917 0.40048 0.0
C1099 C 0.81058 0.30863 0.41051 0.0
C1100 C 0.75779 0.3264 0.40969 0.0
C1101 C 0.78096 0.3118 0.43975 0.0
C1102 C 0.79826 0.37413 0.3132 0.0
N1103 N 0.82628 0.36301 0.31988 0.0
C1104 C 0.79579 0.40476 0.30621 0.0
C1105 C 0.82226 0.42404 0.30609 0.0
C1106 C 0.85077 0.41254 0.31292 0.0
C1107 C 0.85234 0.38181 0.31984 0.0
C1108 C 0.89275 0.31298 0.28507 0.0
C1109 C 0.89034 0.29683 0.32329 0.0
C1110 C 0.86625 0.31958 0.29612 0.0
N1111 N 0.8653 0.31153 0.31499 0.0
C1112 C 0.91725 0.28989 0.31268 0.0
C1113 C 0.9184 0.29804 0.29345 0.0
C1114 C 0.82553 0.26752 0.3583 0.0
C1115 C 0.69858 0.29836 0.35453 0.0
C1116 C 0.74481 0.27336 0.37777 0.0
C1117 C 0.71691 0.2567 0.37495 0.0
C1118 C 0.69367 0.26935 0.36325 0.0
N1119 N 0.74938 0.30187 0.36923 0.0
C1120 C 0.72677 0.31436 0.35768 0.0
Co1121 Co 0.93712 0.58481 0.57725 0.0
Co1122 Co 0.9285 0.54193 0.61838 0.0
O1123 O 0.92545 0.54664 0.59086 0.0
C1124 C 0.97922 0.55863 0.54675 0.0
O1125 O 1.00033 0.57992 0.55124 0.0
C1126 C 0.8647 0.51976 0.62822 0.0
O1127 O 0.86352 0.543 0.64055 0.0
O1128 O 0.90348 0.58089 0.62212 0.0
O1129 O 0.91994 0.61225 0.59831 0.0
H1130 H 0.94457 0.57957 0.68565 0.0
H1131 H 0.89799 0.53598 0.55848 0.0
O1132 O 0.95344 0.55715 0.55604 0.0
H1133 H 0.83462 0.63289 0.55627 0.0
H1134 H 0.94673 0.65327 0.51886 0.0
H1135 H 0.96777 0.64479 0.58784 0.0
H1136 H 0.88742 0.63316 0.57069 0.0
H1137 H 0.93171 0.60552 0.53661 0.0
O1138 O 0.88896 0.51617 0.61772 0.0
H1139 H 0.94136 0.58503 0.65068 0.0
H1140 H 0.92059 0.48785 0.64515 0.0
H1141 H 0.98311 0.69299 0.57066 0.0
H1142 H 0.84546 0.53475 0.54368 0.0
H1143 H 0.9726 0.69743 0.53592 0.0
H1144 H 0.81335 0.58344 0.54254 0.0
O1145 O 0.97945 0.58506 0.58986 0.0
H1146 H 0.95307 0.4375 0.58835 0.0
H1147 H 0.98936 0.51814 0.63386 0.0
H1148 H 0.02169 0.47089 0.62841 0.0
H1149 H 0.00352 0.4301 0.60557 0.0
H1150 H 0.92161 0.48526 0.59408 0.0
H1151 H 0.9235 0.48132 0.68007 0.0
H1152 H 0.9356 0.5274 0.70056 0.0
O1153 O 0.96766 0.56757 0.61924 0.0
C1154 C 0.90533 0.60769 0.61405 0.0
C1155 C 0.93937 0.55929 0.67687 0.0
C1156 C 0.92754 0.50415 0.67374 0.0
N1157 N 0.93106 0.53676 0.64587 0.0
C1158 C 0.9376 0.56223 0.65706 0.0
C1159 C 0.92597 0.50798 0.65398 0.0
C1160 C 0.93432 0.53002 0.68523 0.0
C1161 C 0.88428 0.55733 0.55792 0.0
N1162 N 0.89587 0.58465 0.56539 0.0
C1163 C 0.85449 0.55646 0.54958 0.0
C1164 C 0.83648 0.58377 0.54896 0.0
C1165 C 0.84838 0.61152 0.55667 0.0
C1166 C 0.87826 0.6115 0.56491 0.0
C1167 C 0.95143 0.65161 0.534 0.0
C1168 C 0.9631 0.64657 0.57272 0.0
C1169 C 0.94301 0.62464 0.54412 0.0
N1170 N 0.94887 0.62239 0.56324 0.0
C1171 C 0.97185 0.67391 0.56307 0.0
C1172 C 0.96594 0.67638 0.54358 0.0
C1173 C 0.98621 0.58093 0.60745 0.0
C1174 C 0.96118 0.45505 0.59839 0.0
C1175 C 0.98134 0.50056 0.62383 0.0
C1176 C 0.99972 0.47382 0.62085 0.0
C1177 C 0.9895 0.45093 0.60804 0.0
N1178 N 0.95348 0.50433 0.61441 0.0
C1179 C 0.94341 0.48209 0.60175 0.0
Co1180 Co 0.67989 0.31183 0.6811 0.0
Co1181 Co 0.71119 0.32826 0.63692 0.0
O1182 O 0.71403 0.32632 0.66467 0.0
C1183 C 0.71122 0.26528 0.70621 0.0
O1184 O 0.68871 0.24538 0.70189 0.0
C1185 C 0.73013 0.3929 0.64734 0.0
O1186 O 0.70708 0.39297 0.6598 0.0
O1187 O 0.67071 0.35165 0.63825 0.0
O1188 O 0.64751 0.33186 0.66441 0.0
H1189 H 0.65694 0.31874 0.57353 0.0
H1190 H 0.73352 0.34759 0.69721 0.0
O1191 O 0.71213 0.29221 0.69825 0.0
H1192 H 0.63961 0.41054 0.71259 0.0
H1193 H 0.62669 0.29297 0.74443 0.0
H1194 H 0.6181 0.28173 0.6746 0.0
H1195 H 0.63459 0.36004 0.69563 0.0
H1196 H 0.6694 0.31126 0.72339 0.0
O1197 O 0.73499 0.3688 0.63699 0.0
H1198 H 0.66098 0.31582 0.60858 0.0
H1199 H 0.75603 0.34602 0.60603 0.0
H1200 H 0.57482 0.26314 0.69511 0.0
H1201 H 0.73961 0.39772 0.71444 0.0
H1202 H 0.57897 0.2687 0.7303 0.0
H1203 H 0.69245 0.42967 0.72216 0.0
O1204 O 0.67615 0.27185 0.66606 0.0
H1205 H 0.82342 0.30552 0.65436 0.0
H1206 H 0.73314 0.27208 0.6152 0.0
H1207 H 0.78272 0.2422 0.61354 0.0
H1208 H 0.82834 0.25896 0.63317 0.0
H1209 H 0.77329 0.33456 0.65571 0.0
H1210 H 0.75295 0.34949 0.57095 0.0
H1211 H 0.70316 0.33567 0.55447 0.0
O1212 O 0.68766 0.28792 0.63633 0.0
C1213 C 0.64692 0.34814 0.64913 0.0
C1214 C 0.67879 0.32472 0.58054 0.0
C1215 C 0.73267 0.34202 0.57909 0.0
N1216 N 0.70878 0.33049 0.60932 0.0
C1217 C 0.68125 0.32303 0.60037 0.0
C1218 C 0.73425 0.34007 0.59896 0.0
C1219 C 0.70473 0.33426 0.56986 0.0
C1220 C 0.71283 0.36118 0.70067 0.0
N1221 N 0.68369 0.35086 0.69535 0.0
C1222 C 0.71645 0.38963 0.71037 0.0
C1223 C 0.68999 0.40757 0.71466 0.0
C1224 C 0.66035 0.39687 0.70927 0.0
C1225 C 0.65764 0.36833 0.69955 0.0
C1226 C 0.6246 0.29042 0.72912 0.0
C1227 C 0.62008 0.28424 0.6899 0.0
C1228 C 0.6487 0.30074 0.71713 0.0
N1229 N 0.64626 0.29755 0.69777 0.0
C1230 C 0.59549 0.27367 0.70144 0.0
C1231 C 0.59784 0.2768 0.72118 0.0
C1232 C 0.67733 0.26741 0.64802 0.0
C1233 C 0.80374 0.29803 0.6457 0.0
C1234 C 0.75284 0.27943 0.62385 0.0
C1235 C 0.78088 0.26247 0.62282 0.0
C1236 C 0.80647 0.27189 0.63382 0.0
N1237 N 0.75039 0.30514 0.63547 0.0
C1238 C 0.77533 0.31443 0.64637 0.0
Co1239 Co 0.93657 0.42372 0.93729 0.0
Co1240 Co 0.92822 0.45258 0.89139 0.0
O1241 O 0.92671 0.45745 0.91922 0.0
C1242 C 0.98332 0.45119 0.96361 0.0
O1243 O 1.00007 0.42578 0.96052 0.0
C1244 C 0.86391 0.47659 0.89886 0.0
O1245 O 0.86262 0.45766 0.9136 0.0
O1246 O 0.90322 0.41295 0.89234 0.0
O1247 O 0.9159 0.39169 0.9206 0.0
H1248 H 0.94529 0.39338 0.8302 0.0
H1249 H 0.90466 0.48114 0.9513 0.0
O1250 O 0.95755 0.45541 0.95461 0.0
H1251 H 0.83098 0.39453 0.96478 0.0
H1252 H 0.94246 0.37365 1.00246 0.0
H1253 H 0.96222 0.35932 0.93367 0.0
H1254 H 0.88239 0.38391 0.94993 0.0
H1255 H 0.93072 0.41619 0.9797 0.0
O1256 O 0.88841 0.47752 0.88845 0.0
H1257 H 0.94312 0.39998 0.86513 0.0
H1258 H 0.91638 0.4955 0.85851 0.0
H1259 H 0.97427 0.31616 0.95595 0.0
H1260 H 0.8537 0.49278 0.96647 0.0
H1261 H 0.96441 0.32319 0.99062 0.0
H1262 H 0.81637 0.44931 0.97323 0.0
O1263 O 0.97771 0.41567 0.92417 0.0
H1264 H 0.95225 0.56522 0.90722 0.0
H1265 H 0.98802 0.47119 0.87224 0.0
H1266 H 0.01975 0.51967 0.87102 0.0
H1267 H 1.00183 0.56716 0.88854 0.0
H1268 H 0.92138 0.51615 0.90819 0.0
H1269 H 0.91799 0.48986 0.8235 0.0
H1270 H 0.93266 0.43854 0.80913 0.0
O1271 O 0.96783 0.42783 0.89352 0.0
C1272 C 0.90292 0.39027 0.90422 0.0
C1273 C 0.93897 0.41589 0.83629 0.0
C1274 C 0.9236 0.47003 0.83253 0.0
N1275 N 0.92988 0.44815 0.86385 0.0
C1276 C 0.93779 0.4198 0.85606 0.0
C1277 C 0.92266 0.47306 0.85237 0.0
C1278 C 0.93184 0.44123 0.82448 0.0
C1279 C 0.88873 0.46204 0.9544 0.0
N1280 N 0.89656 0.43185 0.94972 0.0
C1281 C 0.85982 0.4688 0.9629 0.0
C1282 C 0.83886 0.44441 0.96665 0.0
C1283 C 0.84702 0.41368 0.96189 0.0
C1284 C 0.87611 0.40781 0.95336 0.0
C1285 C 0.94683 0.37028 0.98738 0.0
C1286 C 0.95785 0.36256 0.94874 0.0
C1287 C 0.94018 0.39426 0.97442 0.0
N1288 N 0.94579 0.39026 0.95535 0.0
C1289 C 0.96471 0.33803 0.96128 0.0
C1290 C 0.95916 0.34199 0.98073 0.0
C1291 C 0.98546 0.41652 0.90654 0.0
C1292 C 0.96026 0.54471 0.89948 0.0
C1293 C 0.98014 0.49172 0.87997 0.0
C1294 C 0.99817 0.51912 0.87919 0.0
C1295 C 0.98809 0.54577 0.88901 0.0
N1296 N 0.95278 0.49092 0.89019 0.0
C1297 C 0.94283 0.5169 0.89993 0.0
Co1298 Co 0.8269 0.68113 0.18326 0.0
Co1299 Co 0.78799 0.68042 0.14001 0.0
O1300 O 0.78955 0.67354 0.16764 0.0
C1301 C 0.80257 0.72184 0.21441 0.0
O1302 O 0.82569 0.74117 0.21034 0.0
C1303 C 0.7665 0.61475 0.14506 0.0
O1304 O 0.78922 0.6114 0.15753 0.0
O1305 O 0.8272 0.65586 0.13605 0.0
O1306 O 0.8554 0.66531 0.1625 0.0
H1307 H 0.83266 0.70874 0.07592 0.0
H1308 H 0.77453 0.6438 0.19955 0.0
O1309 O 0.79874 0.69695 0.20445 0.0
H1310 H 0.86599 0.5727 0.19971 0.0
H1311 H 0.89071 0.67788 0.24385 0.0
H1312 H 0.88924 0.70979 0.17624 0.0
H1313 H 0.87107 0.62704 0.18798 0.0
H1314 H 0.84377 0.66851 0.22401 0.0
O1315 O 0.76251 0.64094 0.13661 0.0
H1316 H 0.83417 0.70029 0.11071 0.0
H1317 H 0.73786 0.6741 0.11052 0.0
H1318 H 0.93668 0.71956 0.19556 0.0
H1319 H 0.76853 0.58977 0.21169 0.0
H1320 H 0.93761 0.70356 0.22962 0.0
H1321 H 0.81444 0.55376 0.21174 0.0
O1322 O 0.83054 0.72465 0.17283 0.0
H1323 H 0.68018 0.70014 0.16668 0.0
H1324 H 0.76546 0.74311 0.1268 0.0
H1325 H 0.71732 0.77431 0.13183 0.0
H1326 H 0.67421 0.75279 0.15184 0.0
H1327 H 0.72886 0.66985 0.1614 0.0
H1328 H 0.73537 0.68197 0.07569 0.0
H1329 H 0.78298 0.69955 0.05817 0.0
O1330 O 0.81339 0.71988 0.14261 0.0
C1331 C 0.85273 0.65467 0.14552 0.0
C1332 C 0.81172 0.7012 0.0834 0.0
C1333 C 0.75713 0.68613 0.08327 0.0
N1334 N 0.78606 0.68704 0.11266 0.0
C1335 C 0.81241 0.69649 0.10311 0.0
C1336 C 0.7587 0.68166 0.10299 0.0
C1337 C 0.78385 0.696 0.07345 0.0
C1338 C 0.79473 0.62842 0.19976 0.0
N1339 N 0.82315 0.63865 0.19312 0.0
C1340 C 0.79114 0.59779 0.20655 0.0
C1341 C 0.81689 0.57757 0.20653 0.0
C1342 C 0.8458 0.58817 0.19976 0.0
C1343 C 0.84851 0.61894 0.19305 0.0
C1344 C 0.8906 0.68494 0.22902 0.0
C1345 C 0.88948 0.70274 0.19105 0.0
C1346 C 0.8641 0.67968 0.21771 0.0
N1347 N 0.86379 0.68856 0.19897 0.0
C1348 C 0.9164 0.70834 0.20192 0.0
C1349 C 0.9169 0.69935 0.22103 0.0
C1350 C 0.82668 0.73538 0.15598 0.0
C1351 C 0.69876 0.70973 0.15789 0.0
C1352 C 0.74686 0.73364 0.13559 0.0
C1353 C 0.71963 0.75139 0.13835 0.0
C1354 C 0.69544 0.73929 0.14957 0.0
N1355 N 0.74987 0.70461 0.14372 0.0
C1356 C 0.72633 0.69265 0.15481 0.0
Co1357 Co 0.57364 0.59052 0.43861 0.0
Co1358 Co 0.57767 0.54813 0.39679 0.0
O1359 O 0.58253 0.55206 0.42443 0.0
C1360 C 0.53444 0.54348 0.45875 0.0
O1361 O 0.52415 0.53475 0.4419 0.0
C1362 C 0.64035 0.52259 0.38584 0.0
O1363 O 0.64286 0.5459 0.37367 0.0
O1364 O 0.60403 0.5864 0.39252 0.0
O1365 O 0.59211 0.6168 0.4177 0.0
H1366 H 0.55791 0.58729 0.33027 0.0
H1367 H 0.60903 0.53903 0.45713 0.0
O1368 O 0.55496 0.5652 0.46004 0.0
H1369 H 0.67953 0.63096 0.45932 0.0
H1370 H 0.56717 0.65742 0.49777 0.0
H1371 H 0.54841 0.65319 0.4284 0.0
H1372 H 0.62679 0.63514 0.44499 0.0
H1373 H 0.57899 0.60927 0.4795 0.0
O1374 O 0.61617 0.52058 0.39656 0.0
H1375 H 0.56354 0.59206 0.36517 0.0
H1376 H 0.58265 0.49437 0.36947 0.0
H1377 H 0.53656 0.70192 0.44607 0.0
H1378 H 0.66149 0.53384 0.47178 0.0
H1379 H 0.54594 0.70423 0.48102 0.0
H1380 H 0.69715 0.58004 0.47291 0.0
O1381 O 0.53144 0.59376 0.42657 0.0
H1382 H 0.55068 0.44443 0.42695 0.0
H1383 H 0.5152 0.52667 0.38238 0.0
H1384 H 0.48126 0.4808 0.38844 0.0
H1385 H 0.49898 0.43923 0.41083 0.0
H1386 H 0.58375 0.49087 0.42066 0.0
H1387 H 0.57733 0.48855 0.3346 0.0
H1388 H 0.56483 0.53524 0.31476 0.0
O1389 O 0.53895 0.57504 0.39691 0.0
C1390 C 0.60463 0.61269 0.40132 0.0
C1391 C 0.56333 0.56676 0.33876 0.0
C1392 C 0.57424 0.51135 0.34119 0.0
N1393 N 0.57334 0.54352 0.36935 0.0
C1394 C 0.56652 0.56932 0.35853 0.0
C1395 C 0.57723 0.51479 0.36092 0.0
C1396 C 0.56722 0.53755 0.33007 0.0
C1397 C 0.62437 0.55926 0.45767 0.0
N1398 N 0.61484 0.58736 0.45027 0.0
C1399 C 0.65406 0.55617 0.46594 0.0
C1400 C 0.67407 0.58209 0.46655 0.0
C1401 C 0.66421 0.61066 0.45892 0.0
C1402 C 0.63436 0.61286 0.45076 0.0
C1403 C 0.56304 0.65672 0.48254 0.0
C1404 C 0.55273 0.65409 0.44358 0.0
C1405 C 0.56961 0.6295 0.47213 0.0
N1406 N 0.5646 0.62852 0.45288 0.0
C1407 C 0.5459 0.68171 0.45352 0.0
C1408 C 0.55113 0.68298 0.47313 0.0
C1409 C 0.52223 0.58892 0.4095 0.0
C1410 C 0.54275 0.46233 0.4171 0.0
C1411 C 0.52306 0.50874 0.39219 0.0
C1412 C 0.50376 0.48278 0.39553 0.0
C1413 C 0.51372 0.45945 0.40808 0.0
N1414 N 0.55156 0.51137 0.40105 0.0
C1415 C 0.56145 0.48861 0.41341 0.0
Co1416 Co 0.32423 0.32222 0.16836 0.0
Co1417 Co 0.29088 0.31984 0.12345 0.0
O1418 O 0.2886 0.32758 0.15098 0.0
C1419 C 0.29842 0.28042 0.19838 0.0
O1420 O 0.32292 0.26234 0.19532 0.0
C1421 C 0.2655 0.38483 0.1259 0.0
O1422 O 0.28629 0.39066 0.13927 0.0
O1423 O 0.32923 0.34635 0.12103 0.0
O1424 O 0.35426 0.33931 0.14889 0.0
H1425 H 0.34503 0.29203 0.062 0.0
H1426 H 0.26787 0.35684 0.18163 0.0
O1427 O 0.29447 0.30511 0.18829 0.0
H1428 H 0.35497 0.43299 0.18575 0.0
H1429 H 0.37976 0.32999 0.23174 0.0
H1430 H 0.38884 0.29719 0.16447 0.0
H1431 H 0.36461 0.37876 0.17485 0.0
H1432 H 0.33506 0.33633 0.20968 0.0
O1433 O 0.26396 0.35765 0.11832 0.0
H1434 H 0.34165 0.30168 0.09664 0.0
H1435 H 0.24437 0.32238 0.09164 0.0
H1436 H 0.43414 0.29049 0.18602 0.0
H1437 H 0.25725 0.41074 0.19284 0.0
H1438 H 0.42974 0.30694 0.21993 0.0
H1439 H 0.30097 0.44928 0.19488 0.0
O1440 O 0.33171 0.27876 0.15848 0.0
H1441 H 0.18118 0.29529 0.14536 0.0
H1442 H 0.27323 0.25565 0.11 0.0
H1443 H 0.22625 0.22212 0.11323 0.0
H1444 H 0.17975 0.24196 0.13097 0.0
H1445 H 0.22878 0.32795 0.14192 0.0
H1446 H 0.24676 0.31325 0.05692 0.0
H1447 H 0.29734 0.29781 0.04189 0.0
O1448 O 0.31764 0.28194 0.12766 0.0
C1449 C 0.35328 0.34934 0.13173 0.0
C1450 C 0.32283 0.29864 0.06839 0.0
C1451 C 0.26769 0.31058 0.06553 0.0
N1452 N 0.29279 0.31229 0.09618 0.0
C1453 C 0.32075 0.30403 0.088 0.0
C1454 C 0.26649 0.31578 0.08519 0.0
C1455 C 0.29607 0.30192 0.05711 0.0
C1456 C 0.28709 0.37336 0.1827 0.0
N1457 N 0.31685 0.36458 0.17766 0.0
C1458 C 0.2809 0.4039 0.18896 0.0
C1459 C 0.30543 0.42553 0.19007 0.0
C1460 C 0.33572 0.41641 0.18492 0.0
C1461 C 0.34102 0.38569 0.17869 0.0
C1462 C 0.38197 0.32275 0.21699 0.0
C1463 C 0.38677 0.30444 0.1792 0.0
C1464 C 0.35675 0.32628 0.20444 0.0
N1465 N 0.35936 0.31717 0.18579 0.0
C1466 C 0.41248 0.30057 0.19134 0.0
C1467 C 0.41 0.30981 0.21036 0.0
C1468 C 0.33021 0.26743 0.14163 0.0
C1469 C 0.20126 0.28642 0.13756 0.0
C1470 C 0.25314 0.2644 0.11781 0.0
C1471 C 0.22657 0.24534 0.11955 0.0
C1472 C 0.20049 0.25648 0.12949 0.0
N1473 N 0.25366 0.2938 0.12569 0.0
C1474 C 0.22823 0.30484 0.13552 0.0
Co1475 Co 0.42806 0.57212 0.9235 0.0
Co1476 Co 0.41471 0.54223 0.87848 0.0
O1477 O 0.41485 0.53821 0.90637 0.0
C1478 C 0.47321 0.54152 0.94974 0.0
O1479 O 0.4931 0.56389 0.94514 0.0
C1480 C 0.35088 0.51822 0.88784 0.0
O1481 O 0.35039 0.53758 0.9024 0.0
O1482 O 0.39022 0.58213 0.8798 0.0
O1483 O 0.40954 0.60475 0.90626 0.0
H1484 H 0.42732 0.59955 0.81629 0.0
H1485 H 0.39181 0.51864 0.93928 0.0
O1486 O 0.44661 0.53994 0.94135 0.0
H1487 H 0.32692 0.6123 0.95203 0.0
H1488 H 0.44165 0.62519 0.9874 0.0
H1489 H 0.45873 0.63393 0.91802 0.0
H1490 H 0.37822 0.6173 0.936 0.0
H1491 H 0.42514 0.58252 0.96579 0.0
O1492 O 0.37462 0.51731 0.87679 0.0
H1493 H 0.4278 0.59398 0.8513 0.0
H1494 H 0.40048 0.49832 0.84639 0.0
H1495 H 0.47556 0.67715 0.93912 0.0
H1496 H 0.34092 0.51259 0.95569 0.0
H1497 H 0.46707 0.67293 0.97409 0.0
H1498 H 0.308 0.55963 0.96208 0.0
O1499 O 0.46909 0.57579 0.90966 0.0
H1500 H 0.43926 0.42997 0.89488 0.0
H1501 H 0.47297 0.52265 0.85797 0.0
H1502 H 0.50433 0.47399 0.85644 0.0
H1503 H 0.48744 0.42717 0.87494 0.0
H1504 H 0.40874 0.47923 0.89613 0.0
H1505 H 0.39947 0.50291 0.81132 0.0
H1506 H 0.41307 0.55377 0.79605 0.0
O1507 O 0.45467 0.56691 0.87927 0.0
C1508 C 0.39396 0.60586 0.89071 0.0
C1509 C 0.42147 0.57722 0.82277 0.0
C1510 C 0.40578 0.523 0.81999 0.0
N1511 N 0.41445 0.54581 0.85088 0.0
C1512 C 0.4218 0.5739 0.84259 0.0
C1513 C 0.40635 0.52057 0.83985 0.0
C1514 C 0.41343 0.55154 0.81142 0.0
C1515 C 0.37782 0.53928 0.94221 0.0
N1516 N 0.38802 0.56832 0.93664 0.0
C1517 C 0.34893 0.53568 0.95142 0.0
C1518 C 0.33044 0.56207 0.95496 0.0
C1519 C 0.34102 0.59161 0.94929 0.0
C1520 C 0.37001 0.5943 0.94009 0.0
C1521 C 0.44547 0.62731 0.97219 0.0
C1522 C 0.45494 0.63191 0.93322 0.0
C1523 C 0.43616 0.60324 0.95987 0.0
N1524 N 0.44098 0.60571 0.94064 0.0
C1525 C 0.46452 0.65647 0.9451 0.0
C1526 C 0.45974 0.65408 0.96471 0.0
C1527 C 0.47451 0.57619 0.89173 0.0
C1528 C 0.4468 0.45019 0.88672 0.0
C1529 C 0.46554 0.50242 0.86612 0.0
C1530 C 0.48335 0.4749 0.86516 0.0
C1531 C 0.47386 0.44864 0.87554 0.0
N1532 N 0.43894 0.5037 0.87704 0.0
C1533 C 0.42957 0.4781 0.88732 0.0
Co1534 Co 0.17205 0.69064 0.67509 0.0
Co1535 Co 0.21359 0.68741 0.6327 0.0
O1536 O 0.21081 0.68294 0.66058 0.0
C1537 C 0.21741 0.73207 0.69535 0.0
O1538 O 0.22588 0.74319 0.67864 0.0
C1539 C 0.24175 0.6243 0.64021 0.0
O1540 O 0.22252 0.62033 0.65463 0.0
O1541 O 0.17618 0.65998 0.6289 0.0
O1542 O 0.14623 0.6706 0.6545 0.0
H1543 H 0.1706 0.70595 0.5669 0.0
H1544 H 0.22524 0.6584 0.69403 0.0
O1545 O 0.19666 0.71059 0.69634 0.0
H1546 H 0.13696 0.58347 0.69698 0.0
H1547 H 0.10576 0.69514 0.7346 0.0
H1548 H 0.10816 0.71286 0.66511 0.0
H1549 H 0.13016 0.6355 0.68211 0.0
H1550 H 0.1541 0.68508 0.71616 0.0
O1551 O 0.24151 0.64962 0.63059 0.0
H1552 H 0.16771 0.70046 0.60188 0.0
H1553 H 0.26587 0.68302 0.60441 0.0
H1554 H 0.05923 0.72291 0.68297 0.0
H1555 H 0.23298 0.60682 0.70934 0.0
H1556 H 0.05784 0.71406 0.71798 0.0
H1557 H 0.18867 0.56888 0.7108 0.0
O1558 O 0.16645 0.7327 0.66284 0.0
H1559 H 0.31792 0.71642 0.66116 0.0
H1560 H 0.23295 0.75039 0.61804 0.0
H1561 H 0.27838 0.78528 0.62343 0.0
H1562 H 0.3213 0.76832 0.6451 0.0
H1563 H 0.27191 0.68238 0.65548 0.0
H1564 H 0.26979 0.68804 0.56944 0.0
H1565 H 0.22194 0.69972 0.55045 0.0
O1566 O 0.18581 0.72508 0.6334 0.0
C1567 C 0.15034 0.65828 0.63805 0.0
C1568 C 0.19165 0.70101 0.57503 0.0
C1569 C 0.24731 0.69092 0.57645 0.0
N1570 N 0.21664 0.69185 0.60521 0.0
C1571 C 0.19017 0.69802 0.59484 0.0
C1572 C 0.24493 0.68808 0.59624 0.0
C1573 C 0.22045 0.69748 0.5658 0.0
C1574 C 0.20577 0.64212 0.69475 0.0
N1575 N 0.17731 0.6499 0.68709 0.0
C1576 C 0.21033 0.6129 0.70338 0.0
C1577 C 0.18548 0.59161 0.70416 0.0
C1578 C 0.15648 0.59975 0.69638 0.0
C1579 C 0.15281 0.62918 0.68786 0.0
C1580 C 0.10607 0.69905 0.71935 0.0
C1581 C 0.10768 0.70878 0.68032 0.0
C1582 C 0.1334 0.69348 0.70883 0.0
N1583 N 0.1339 0.69821 0.68955 0.0
C1584 C 0.07994 0.71459 0.69037 0.0
C1585 C 0.07918 0.70965 0.71001 0.0
C1586 C 0.17076 0.74137 0.64562 0.0
C1587 C 0.29942 0.72403 0.65164 0.0
C1588 C 0.2515 0.74287 0.62753 0.0
C1589 C 0.2772 0.7627 0.63049 0.0
C1590 C 0.30128 0.75316 0.64264 0.0
N1591 N 0.2499 0.71429 0.63636 0.0
C1592 C 0.27339 0.7048 0.64831 0.0
Co1593 Co 0.0697 0.42879 0.42631 0.0
Co1594 Co 0.08003 0.45448 0.38018 0.0
O1595 O 0.08109 0.4614 0.4078 0.0
C1596 C 0.02515 0.4619 0.45227 0.0
O1597 O 0.00527 0.43882 0.44919 0.0
C1598 C 0.14353 0.48192 0.38646 0.0
O1599 O 0.14635 0.46465 0.40186 0.0
O1600 O 0.10666 0.41632 0.38271 0.0
O1601 O 0.08849 0.39488 0.40984 0.0
H1602 H 0.06838 0.38953 0.32069 0.0
H1603 H 0.10555 0.48468 0.43925 0.0
O1604 O 0.05132 0.46248 0.44333 0.0
H1605 H 0.17319 0.39392 0.45413 0.0
H1606 H 0.06039 0.3824 0.49228 0.0
H1607 H 0.04087 0.36559 0.42369 0.0
H1608 H 0.1212 0.38614 0.4394 0.0
H1609 H 0.07463 0.42311 0.4688 0.0
O1610 O 0.11851 0.48093 0.37656 0.0
H1611 H 0.06918 0.39903 0.35538 0.0
H1612 H 0.08976 0.49547 0.34614 0.0
H1613 H 0.0263 0.32424 0.44669 0.0
H1614 H 0.15715 0.49351 0.45429 0.0
H1615 H 0.03605 0.33253 0.48126 0.0
H1616 H 0.19144 0.44793 0.46175 0.0
O1617 O 0.02802 0.42241 0.41342 0.0
H1618 H 0.05038 0.56687 0.39271 0.0
H1619 H 0.01977 0.46871 0.3602 0.0
H1620 H 0.98577 0.51543 0.35751 0.0
H1621 H 1.00108 0.56499 0.37378 0.0
H1622 H 0.08355 0.51948 0.39517 0.0
H1623 H 0.0894 0.48699 0.31133 0.0
H1624 H 0.07853 0.43373 0.29839 0.0
O1625 O 0.04171 0.42797 0.38268 0.0
C1626 C 0.10411 0.39331 0.39427 0.0
C1627 C 0.073 0.41288 0.32614 0.0
C1628 C 0.08484 0.46757 0.3209 0.0
N1629 N 0.07916 0.44782 0.35279 0.0
C1630 C 0.07337 0.41842 0.34578 0.0
C1631 C 0.08505 0.47221 0.34062 0.0
C1632 C 0.07874 0.43768 0.31364 0.0
C1633 C 0.12015 0.46468 0.44265 0.0
N1634 N 0.11029 0.43489 0.43845 0.0
C1635 C 0.14943 0.46985 0.45108 0.0
C1636 C 0.16869 0.44428 0.45523 0.0
C1637 C 0.15848 0.41397 0.45092 0.0
C1638 C 0.12907 0.40971 0.44248 0.0
C1639 C 0.05603 0.37851 0.47726 0.0
C1640 C 0.04518 0.36938 0.43871 0.0
C1641 C 0.06404 0.40147 0.46389 0.0
N1642 N 0.05856 0.39675 0.44488 0.0
C1643 C 0.03689 0.34588 0.45167 0.0
C1644 C 0.04237 0.35054 0.47106 0.0
C1645 C 0.02247 0.4193 0.39559 0.0
C1646 C 0.04351 0.54543 0.38551 0.0
C1647 C 0.02652 0.49015 0.36739 0.0
C1648 C 0.00722 0.51655 0.36577 0.0
C1649 C 0.01583 0.54435 0.3749 0.0
N1650 N 0.05371 0.49145 0.37775 0.0
C1651 C 0.06224 0.51857 0.3868 0.0
Co1652 Co 0.32849 0.68747 0.3312 0.0
Co1653 Co 0.30098 0.67711 0.37711 0.0
O1654 O 0.29517 0.67643 0.34937 0.0
C1655 C 0.29801 0.73432 0.30597 0.0
O1656 O 0.32181 0.75298 0.30975 0.0
C1657 C 0.27402 0.61352 0.37002 0.0
O1658 O 0.29118 0.61123 0.35452 0.0
O1659 O 0.33954 0.65087 0.37505 0.0
O1660 O 0.36135 0.66719 0.34759 0.0
H1661 H 0.36327 0.68885 0.43759 0.0
H1662 H 0.27174 0.65406 0.31738 0.0
O1663 O 0.29597 0.70768 0.31427 0.0
H1664 H 0.36042 0.58376 0.30228 0.0
H1665 H 0.37652 0.69743 0.26566 0.0
H1666 H 0.3925 0.71421 0.33459 0.0
H1667 H 0.36966 0.63498 0.31772 0.0
H1668 H 0.33491 0.68372 0.28869 0.0
O1669 O 0.27487 0.63828 0.38018 0.0
H1670 H 0.35522 0.68841 0.40276 0.0
H1671 H 0.25872 0.6664 0.4105 0.0
H1672 H 0.43475 0.72822 0.31205 0.0
H1673 H 0.26146 0.60327 0.30162 0.0
H1674 H 0.42688 0.71986 0.2773 0.0
H1675 H 0.30598 0.56765 0.29405 0.0
O1676 O 0.33584 0.72851 0.34457 0.0
H1677 H 0.18873 0.70547 0.36326 0.0
H1678 H 0.28524 0.73698 0.39718 0.0
H1679 H 0.23797 0.77029 0.39947 0.0
H1680 H 0.18923 0.75452 0.38249 0.0
H1681 H 0.23665 0.67299 0.36122 0.0
H1682 H 0.26575 0.66637 0.44541 0.0
H1683 H 0.31831 0.67776 0.45918 0.0
O1684 O 0.32713 0.71573 0.37519 0.0
C1685 C 0.36253 0.6523 0.36338 0.0
C1686 C 0.34022 0.68399 0.43177 0.0
C1687 C 0.2855 0.67132 0.43616 0.0
N1688 N 0.30649 0.67772 0.40459 0.0
C1689 C 0.3355 0.68382 0.41206 0.0
C1690 C 0.28168 0.67134 0.41637 0.0
C1691 C 0.315 0.67773 0.44388 0.0
C1692 C 0.29129 0.63886 0.31394 0.0
N1693 N 0.3213 0.64753 0.31848 0.0
C1694 C 0.2853 0.61005 0.3051 0.0
C1695 C 0.31028 0.59005 0.30089 0.0
C1696 C 0.34082 0.59905 0.30553 0.0
C1697 C 0.34591 0.62802 0.31439 0.0
C1698 C 0.38024 0.70118 0.28076 0.0
C1699 C 0.38891 0.71048 0.31949 0.0
C1700 C 0.35677 0.69344 0.29387 0.0
N1701 N 0.36127 0.69816 0.31298 0.0
C1702 C 0.41291 0.71846 0.3068 0.0
C1703 C 0.40848 0.71376 0.28731 0.0
C1704 C 0.33721 0.73449 0.36241 0.0
C1705 C 0.2098 0.71254 0.37077 0.0
C1706 C 0.26417 0.73003 0.38967 0.0
C1707 C 0.23745 0.74895 0.39107 0.0
C1708 C 0.2101 0.74008 0.38154 0.0
N1709 N 0.26362 0.70297 0.37916 0.0
C1710 C 0.23695 0.6942 0.36971 0.0
Co1711 Co 0.06299 0.5892 0.07727 0.0
Co1712 Co 0.08261 0.55693 0.12092 0.0
O1713 O 0.07946 0.55439 0.09291 0.0
C1714 C 0.0293 0.53252 0.0625 0.0
O1715 O 0.02717 0.52183 0.08001 0.0
C1716 C 0.14189 0.52307 0.10823 0.0
O1717 O 0.13613 0.52916 0.09025 0.0
O1718 O 0.10686 0.59678 0.11904 0.0
O1719 O 0.08361 0.621 0.09436 0.0
H1720 H 0.07671 0.61253 0.1841 0.0
H1721 H 0.09807 0.53795 0.05808 0.0
O1722 O 0.0423 0.55889 0.05925 0.0
H1723 H 0.15747 0.63457 0.04374 0.0
H1724 H 0.03521 0.64394 0.01584 0.0
H1725 H 0.03384 0.65075 0.08607 0.0
H1726 H 0.10901 0.63673 0.06294 0.0
H1727 H 0.05653 0.60081 0.0354 0.0
O1728 O 0.1233 0.5326 0.12127 0.0
H1729 H 0.07251 0.6079 0.14913 0.0
H1730 H 0.09999 0.51206 0.15196 0.0
H1731 H 0.01251 0.69454 0.06704 0.0
H1732 H 0.14608 0.5347 0.03847 0.0
H1733 H 0.01311 0.69129 0.03166 0.0
H1734 H 0.17627 0.58323 0.03128 0.0
O1735 O 0.02382 0.59095 0.09297 0.0
H1736 H 0.05579 0.44511 0.10395 0.0
H1737 H 0.02719 0.53632 0.14375 0.0
H1738 H 0.99607 0.48763 0.14605 0.0
H1739 H 0.01039 0.44151 0.12612 0.0
H1740 H 0.08592 0.49435 0.10187 0.0
H1741 H 0.10469 0.51573 0.18695 0.0
H1742 H 0.0929 0.56621 0.20326 0.0
O1743 O 0.04245 0.5812 0.12227 0.0
C1744 C 0.10178 0.62108 0.10887 0.0
C1745 C 0.08181 0.59038 0.17717 0.0
C1746 C 0.09755 0.53606 0.17876 0.0
N1747 N 0.08574 0.55969 0.14851 0.0
C1748 C 0.07939 0.58758 0.15737 0.0
C1749 C 0.0949 0.53415 0.15894 0.0
C1750 C 0.09092 0.56439 0.1879 0.0
C1751 C 0.11096 0.55921 0.05493 0.0
N1752 N 0.10093 0.58747 0.06189 0.0
C1753 C 0.13819 0.5572 0.04386 0.0
C1754 C 0.15513 0.58443 0.03985 0.0
C1755 C 0.14465 0.61322 0.04687 0.0
C1756 C 0.11733 0.61429 0.0579 0.0
C1757 C 0.03486 0.64565 0.03125 0.0
C1758 C 0.03435 0.64923 0.07068 0.0
C1759 C 0.04683 0.62127 0.04241 0.0
N1760 N 0.04662 0.62334 0.06187 0.0
C1761 C 0.02216 0.67407 0.05998 0.0
C1762 C 0.02248 0.67222 0.04013 0.0
C1763 C 0.02075 0.59046 0.11108 0.0
C1764 C 0.04945 0.46497 0.11281 0.0
C1765 C 0.03356 0.51641 0.13498 0.0
C1766 C 0.01587 0.48886 0.13638 0.0
C1767 C 0.02393 0.46299 0.12521 0.0
N1768 N 0.0587 0.51814 0.12286 0.0
C1769 C 0.06663 0.49289 0.11181 0.0
Co1770 Co 0.16719 0.3181 0.81798 0.0
Co1771 Co 0.20315 0.32533 0.86199 0.0
O1772 O 0.20323 0.32923 0.83404 0.0
C1773 C 0.2188 0.28198 0.7993 0.0
O1774 O 0.22709 0.27151 0.81618 0.0
C1775 C 0.22419 0.39088 0.85479 0.0
O1776 O 0.20294 0.39259 0.84128 0.0
O1777 O 0.16276 0.34889 0.86413 0.0
O1778 O 0.13724 0.33536 0.83734 0.0
H1779 H 0.15525 0.30179 0.92593 0.0
H1780 H 0.2193 0.35565 0.80175 0.0
O1781 O 0.19585 0.30094 0.79775 0.0
H1782 H 0.1249 0.42172 0.79451 0.0
H1783 H 0.10844 0.308 0.75589 0.0
H1784 H 0.10493 0.28934 0.82528 0.0
H1785 H 0.12113 0.36892 0.80875 0.0
H1786 H 0.15334 0.32259 0.77629 0.0
O1787 O 0.22726 0.36581 0.86451 0.0
H1788 H 0.1558 0.30662 0.89087 0.0
H1789 H 0.25105 0.33639 0.89234 0.0
H1790 H 0.05938 0.27465 0.80544 0.0
H1791 H 0.22414 0.40814 0.78714 0.0
H1792 H 0.06097 0.28397 0.77047 0.0
H1793 H 0.17673 0.44164 0.78354 0.0
O1794 O 0.16441 0.27569 0.83013 0.0
H1795 H 0.31285 0.30631 0.83811 0.0
H1796 H 0.22696 0.265 0.87815 0.0
H1797 H 0.27614 0.23478 0.8751 0.0
H1798 H 0.31954 0.25545 0.85499 0.0
H1799 H 0.26316 0.33565 0.84145 0.0
H1800 H 0.25145 0.33215 0.92744 0.0
H1801 H 0.20333 0.31461 0.94445 0.0
O1802 O 0.17945 0.28478 0.86036 0.0
C1803 C 0.13805 0.34802 0.85385 0.0
C1804 C 0.17639 0.30937 0.91867 0.0
C1805 C 0.23037 0.32644 0.91952 0.0
N1806 N 0.20349 0.32155 0.88956 0.0
C1807 C 0.17687 0.31206 0.89882 0.0
C1808 C 0.22998 0.32887 0.89965 0.0
C1809 C 0.20336 0.31659 0.92906 0.0
C1810 C 0.19851 0.36998 0.80007 0.0
N1811 N 0.16996 0.35928 0.8062 0.0
C1812 C 0.20142 0.39973 0.79186 0.0
C1813 C 0.17482 0.41853 0.78987 0.0
C1814 C 0.14575 0.4074 0.79606 0.0
C1815 C 0.14376 0.37754 0.80423 0.0
C1816 C 0.10745 0.30386 0.77111 0.0
C1817 C 0.10573 0.29362 0.8101 0.0
C1818 C 0.13284 0.31199 0.78273 0.0
N1819 N 0.13168 0.30699 0.80198 0.0
C1820 C 0.07989 0.28519 0.79892 0.0
C1821 C 0.08082 0.29039 0.77931 0.0
C1822 C 0.16773 0.26709 0.84747 0.0
C1823 C 0.29415 0.2971 0.84697 0.0
C1824 C 0.2457 0.27412 0.86934 0.0
C1825 C 0.27353 0.25693 0.86769 0.0
C1826 C 0.29787 0.26855 0.85641 0.0
N1827 N 0.24227 0.30216 0.86007 0.0
C1828 C 0.26601 0.31367 0.84896 0.0
Co1829 Co 0.43816 0.43697 0.58114 0.0
Co1830 Co 0.44208 0.47281 0.62541 0.0
O1831 O 0.43369 0.47362 0.59788 0.0
C1832 C 0.47873 0.48411 0.56193 0.0
O1833 O 0.49079 0.49048 0.57874 0.0
C1834 C 0.37752 0.49858 0.62271 0.0
O1835 O 0.3719 0.47799 0.60919 0.0
O1836 O 0.41545 0.43477 0.62896 0.0
O1837 O 0.41987 0.40884 0.60118 0.0
H1838 H 0.47078 0.42217 0.68774 0.0
H1839 H 0.40571 0.49369 0.5667 0.0
O1840 O 0.45672 0.46394 0.56047 0.0
H1841 H 0.32696 0.40883 0.5634 0.0
H1842 H 0.43247 0.37968 0.51834 0.0
H1843 H 0.45918 0.37117 0.58659 0.0
H1844 H 0.38064 0.39806 0.5749 0.0
H1845 H 0.42677 0.42539 0.53972 0.0
O1846 O 0.40453 0.50009 0.63046 0.0
H1847 H 0.46002 0.42347 0.65318 0.0
H1848 H 0.44116 0.52133 0.65615 0.0
H1849 H 0.4649 0.32477 0.56575 0.0
H1850 H 0.35238 0.50546 0.55492 0.0
H1851 H 0.45151 0.32888 0.53136 0.0
H1852 H 0.31255 0.46287 0.55329 0.0
O1853 O 0.48126 0.42835 0.59103 0.0
H1854 H 0.46679 0.58071 0.60057 0.0
H1855 H 0.50691 0.49068 0.6375 0.0
H1856 H 0.54091 0.53687 0.63242 0.0
H1857 H 0.52087 0.58233 0.61386 0.0
H1858 H 0.43367 0.53392 0.60586 0.0
H1859 H 0.4514 0.52106 0.69078 0.0
H1860 H 0.46649 0.47125 0.70678 0.0
O1861 O 0.47955 0.44547 0.62136 0.0
C1862 C 0.41104 0.41057 0.61857 0.0
C1863 C 0.46438 0.44406 0.68092 0.0
C1864 C 0.45346 0.49955 0.68263 0.0
N1865 N 0.45038 0.4725 0.65262 0.0
C1866 C 0.45839 0.44496 0.66134 0.0
C1867 C 0.44765 0.49955 0.66302 0.0
C1868 C 0.46193 0.47159 0.6916 0.0
C1869 C 0.38858 0.47498 0.56585 0.0
N1870 N 0.39628 0.44522 0.57146 0.0
C1871 C 0.35839 0.48181 0.55925 0.0
C1872 C 0.33604 0.45791 0.55836 0.0
C1873 C 0.3441 0.4276 0.56406 0.0
C1874 C 0.3745 0.42165 0.57062 0.0
C1875 C 0.43834 0.37759 0.5333 0.0
C1876 C 0.45314 0.37308 0.57166 0.0
C1877 C 0.43525 0.40341 0.54547 0.0
N1878 N 0.44246 0.40089 0.56441 0.0
C1879 C 0.45651 0.34676 0.55992 0.0
C1880 C 0.44901 0.34909 0.54062 0.0
C1881 C 0.49309 0.43111 0.60766 0.0
C1882 C 0.47575 0.56109 0.60874 0.0
C1883 C 0.49803 0.51035 0.62938 0.0
C1884 C 0.51738 0.53646 0.62658 0.0
C1885 C 0.50611 0.56197 0.61617 0.0
N1886 N 0.46827 0.5097 0.62207 0.0
C1887 C 0.45706 0.5346 0.61184 0.0
H1888 H 0.12399 0.3738 0.35906 0.0
H1889 H 0.11578 0.34323 0.41759 0.0
H1890 H 0.13709 0.29205 0.40902 0.0
H1891 H 0.15668 0.25537 0.38494 0.0
H1892 H 0.16134 0.28399 0.32595 0.0
H1893 H 0.14243 0.33633 0.33467 0.0
C1894 C 0.127 0.35604 0.36998 0.0
C1895 C 0.1185 0.36267 0.38901 0.0
C1896 C 0.13838 0.32614 0.36485 0.0
C1897 C 0.1223 0.33908 0.40288 0.0
C1898 C 0.1344 0.30967 0.39798 0.0
C1899 C 0.15368 0.27302 0.37395 0.0
C1900 C 0.1606 0.26566 0.3548 0.0
C1901 C 0.14231 0.30286 0.379 0.0
C1902 C 0.15618 0.28887 0.34078 0.0
C1903 C 0.14544 0.31888 0.34577 0.0
H1904 H 0.9557 0.92446 0.5986 0.0
H1905 H 0.00988 0.89444 0.6473 0.0
H1906 H 0.96432 0.86757 0.66037 0.0
H1907 H 0.90945 0.85331 0.65851 0.0
H1908 H 0.85278 0.88468 0.61115 0.0
H1909 H 0.8989 0.9102 0.59701 0.0
C1910 C 0.9574 0.91186 0.612 0.0
C1911 C 0.98604 0.91156 0.62203 0.0
C1912 C 0.9307 0.89685 0.61973 0.0
C1913 C 0.98801 0.89535 0.63944 0.0
C1914 C 0.96199 0.87988 0.64691 0.0
C1915 C 0.9069 0.86584 0.64514 0.0
C1916 C 0.8775 0.86721 0.63603 0.0
C1917 C 0.93321 0.88072 0.63729 0.0
C1918 C 0.87504 0.8834 0.61859 0.0
C1919 C 0.90144 0.89794 0.61046 0.0
H1920 H 0.37565 0.62533 0.85497 0.0
H1921 H 0.38443 0.65698 0.91332 0.0
H1922 H 0.36664 0.70896 0.90425 0.0
H1923 H 0.35008 0.74599 0.88006 0.0
H1924 H 0.34363 0.71711 0.82116 0.0
H1925 H 0.35958 0.6637 0.83012 0.0
C1926 C 0.37342 0.64351 0.86572 0.0
C1927 C 0.38108 0.63688 0.88489 0.0
C1928 C 0.364 0.67402 0.86029 0.0
C1929 C 0.37843 0.66102 0.89853 0.0
C1930 C 0.36841 0.69096 0.89334 0.0
C1931 C 0.35206 0.72813 0.86908 0.0
C1932 C 0.34553 0.73567 0.84994 0.0
C1933 C 0.36138 0.69777 0.87429 0.0
C1934 C 0.3486 0.71207 0.83599 0.0
C1935 C 0.35758 0.68148 0.84114 0.0
H1936 H 0.51209 0.09586 0.13431 0.0
H1937 H 0.53816 0.09919 0.0748 0.0
H1938 H 0.58961 0.12043 0.08344 0.0
H1939 H 0.62707 0.13871 0.10796 0.0
H1940 H 0.59898 0.13756 0.1672 0.0
H1941 H 0.54868 0.11463 0.1585 0.0
C1942 C 0.52895 0.10111 0.12315 0.0
C1943 C 0.52112 0.09573 0.1039 0.0
C1944 C 0.55832 0.11366 0.12818 0.0
C1945 C 0.54341 0.103 0.08973 0.0
C1946 C 0.57291 0.11515 0.09467 0.0
C1947 C 0.61006 0.13325 0.11899 0.0
C1948 C 0.61716 0.13963 0.13826 0.0
C1949 C 0.58064 0.12061 0.11386 0.0
C1950 C 0.5945 0.13274 0.15229 0.0
C1951 C 0.56556 0.11968 0.14733 0.0
H1952 H 0.15872 0.75723 0.11823 0.0
H1953 H 0.17571 0.72369 0.17533 0.0
H1954 H 0.15369 0.67234 0.16676 0.0
H1955 H 0.12894 0.63723 0.14297 0.0
H1956 H 0.10794 0.67366 0.08691 0.0
H1957 H 0.13245 0.72335 0.09512 0.0
C1958 C 0.15783 0.73864 0.12879 0.0
C1959 C 0.16909 0.74419 0.14733 0.0
C1960 C 0.14448 0.70958 0.12392 0.0
C1961 C 0.16719 0.72002 0.16094 0.0
C1962 C 0.15465 0.69064 0.15604 0.0
C1963 C 0.12989 0.65596 0.13251 0.0
C1964 C 0.11707 0.65126 0.11418 0.0
C1965 C 0.14314 0.68517 0.13755 0.0
C1966 C 0.11802 0.67615 0.10098 0.0
C1967 C 0.13194 0.70478 0.10569 0.0
H1968 H 0.50982 0.91446 0.36847 0.0
H1969 H 0.53353 0.92283 0.42808 0.0
H1970 H 0.58682 0.90417 0.42138 0.0
H1971 H 0.62634 0.88401 0.39862 0.0
H1972 H 0.60012 0.87119 0.33964 0.0
H1973 H 0.54859 0.89341 0.34603 0.0
C1974 C 0.52668 0.91241 0.38 0.0
C1975 C 0.51767 0.92017 0.39873 0.0
C1976 C 0.55701 0.90094 0.37613 0.0
C1977 C 0.53978 0.91694 0.41352 0.0
C1978 C 0.5703 0.90633 0.4097 0.0
C1979 C 0.60947 0.8863 0.38713 0.0
C1980 C 0.61751 0.87624 0.36859 0.0
C1981 C 0.57916 0.89807 0.39105 0.0
C1982 C 0.59499 0.87902 0.35398 0.0
C1983 C 0.56531 0.89161 0.35764 0.0
H1984 H 0.35793 0.29589 0.66675 0.0
H1985 H 0.34829 0.25785 0.60986 0.0
H1986 H 0.36876 0.30598 0.59634 0.0
H1987 H 0.39016 0.35844 0.60021 0.0
H1988 H 0.399 0.39869 0.65649 0.0
H1989 H 0.37796 0.35043 0.67053 0.0
C1990 C 0.36035 0.29816 0.65142 0.0
C1991 C 0.35162 0.27299 0.63944 0.0
C1992 C 0.37191 0.32642 0.64352 0.0
C1993 C 0.35472 0.27659 0.61955 0.0
C1994 C 0.36647 0.30422 0.61171 0.0
C1995 C 0.38735 0.3569 0.61555 0.0
C1996 C 0.39623 0.3823 0.62721 0.0
C1997 C 0.37519 0.32923 0.62352 0.0
C1998 C 0.39228 0.37963 0.64709 0.0
C1999 C 0.38035 0.35193 0.65517 0.0
H2000 H 1.00278 0.09447 0.8706 0.0
H2001 H 0.98082 0.09759 0.93069 0.0
H2002 H 0.92811 0.1174 0.92325 0.0
H2003 H 0.88833 0.13411 0.89937 0.0
H2004 H 0.91343 0.13303 0.83961 0.0
H2005 H 0.96465 0.11181 0.84734 0.0
C2006 C 0.98659 0.09936 0.88218 0.0
C2007 C 0.99585 0.09432 0.9012 0.0
C2008 C 0.95668 0.11097 0.87783 0.0
C2009 C 0.97442 0.1012 0.91591 0.0
C2010 C 0.94422 0.11247 0.91165 0.0
C2011 C 0.90492 0.12899 0.88804 0.0
C2012 C 0.89662 0.13482 0.86888 0.0
C2013 C 0.93505 0.11741 0.89262 0.0
C2014 C 0.91874 0.12851 0.85444 0.0
C2015 C 0.94825 0.11647 0.85884 0.0
H2016 H 0.89239 0.66513 0.59886 0.0
H2017 H 0.88425 0.61186 0.65099 0.0
H2018 H 0.86021 0.657 0.66685 0.0
H2019 H 0.84119 0.7121 0.6659 0.0
H2020 H 0.84682 0.76317 0.61281 0.0
H2021 H 0.87177 0.71852 0.59748 0.0
C2022 C 0.88527 0.66322 0.61366 0.0
C2023 C 0.8902 0.635 0.62363 0.0
C2024 C 0.87085 0.68902 0.62261 0.0
C2025 C 0.88073 0.6332 0.64287 0.0
C2026 C 0.86698 0.65906 0.652 0.0
C2027 C 0.84789 0.71338 0.65099 0.0
C2028 C 0.84203 0.74105 0.64058 0.0
C2029 C 0.86188 0.68717 0.64201 0.0
C2030 C 0.85072 0.7422 0.6212 0.0
C2031 C 0.86515 0.71665 0.61238 0.0
H2032 H 0.12338 0.14682 0.39143 0.0
H2033 H 0.0964 0.12843 0.33315 0.0
H2034 H 0.04567 0.10863 0.34386 0.0
H2035 H 0.0085 0.0972 0.36961 0.0
H2036 H 0.03341 0.11965 0.42773 0.0
H2037 H 0.08504 0.1375 0.41721 0.0
C2038 C 0.10652 0.13829 0.38107 0.0
C2039 C 0.11404 0.13882 0.36148 0.0
C2040 C 0.07678 0.12788 0.38729 0.0
C2041 C 0.09154 0.12812 0.34829 0.0
C2042 C 0.06237 0.11687 0.3544 0.0
C2043 C 0.02512 0.10599 0.38005 0.0
C2044 C 0.01693 0.1066 0.39955 0.0
C2045 C 0.05466 0.11679 0.37385 0.0
C2046 C 0.03889 0.11854 0.4127 0.0
C2047 C 0.06856 0.12878 0.40668 0.0
H2048 H 0.62368 0.3767 0.14144 0.0
H2049 H 0.61521 0.34688 0.08274 0.0
H2050 H 0.63691 0.29591 0.09078 0.0
H2051 H 0.65697 0.25913 0.11425 0.0
H2052 H 0.6626 0.28617 0.17351 0.0
H2053 H 0.64296 0.33862 0.16548 0.0
C2054 C 0.62682 0.35915 0.13039 0.0
C2055 C 0.61816 0.36602 0.11142 0.0
C2056 C 0.6385 0.32919 0.13522 0.0
C2057 C 0.62196 0.34266 0.09738 0.0
C2058 C 0.63425 0.3133 0.10198 0.0
C2059 C 0.65403 0.27641 0.12549 0.0
C2060 C 0.66146 0.26862 0.14447 0.0
C2061 C 0.6424 0.30624 0.12083 0.0
C2062 C 0.65708 0.29141 0.15878 0.0
C2063 C 0.64592 0.32148 0.15418 0.0
H2064 H 0.50131 0.90406 0.85834 0.0
H2065 H 0.47749 0.90338 0.91817 0.0
H2066 H 0.42493 0.8835 0.91047 0.0
H2067 H 0.38582 0.8657 0.88646 0.0
H2068 H 0.41296 0.86335 0.82706 0.0
H2069 H 0.46379 0.88529 0.83494 0.0
C2070 C 0.48468 0.89973 0.86977 0.0
C2071 C 0.49339 0.90543 0.8888 0.0
C2072 C 0.45486 0.88785 0.86529 0.0
C2073 C 0.47149 0.89921 0.90337 0.0
C2074 C 0.44138 0.88789 0.89897 0.0
C2075 C 0.40277 0.87022 0.87524 0.0
C2076 C 0.39506 0.86332 0.85611 0.0
C2077 C 0.43277 0.88208 0.87993 0.0
C2078 C 0.4177 0.86882 0.84185 0.0
C2079 C 0.44703 0.88126 0.84633 0.0
H2080 H 0.88806 0.36934 0.86828 0.0
H2081 H 0.88496 0.34248 0.92767 0.0
H2082 H 0.86336 0.29163 0.91905 0.0
H2083 H 0.84696 0.25401 0.89495 0.0
H2084 H 0.8524 0.27838 0.83526 0.0
H2085 H 0.87166 0.33077 0.84375 0.0
C2086 C 0.88238 0.35248 0.87935 0.0
C2087 C 0.88793 0.36007 0.89865 0.0
C2088 C 0.87064 0.32265 0.87425 0.0
C2089 C 0.8808 0.33763 0.91274 0.0
C2090 C 0.86851 0.30836 0.90782 0.0
C2091 C 0.85222 0.27069 0.8837 0.0
C2092 C 0.84808 0.2621 0.86446 0.0
C2093 C 0.86361 0.30052 0.88865 0.0
C2094 C 0.85531 0.28421 0.85019 0.0
C2095 C 0.86631 0.31424 0.85504 0.0
H2096 H 0.38955 0.1559 0.60886 0.0
H2097 H 0.40083 0.12211 0.6664 0.0
H2098 H 0.44919 0.09556 0.65758 0.0
H2099 H 0.48933 0.08362 0.63416 0.0
H2100 H 0.48084 0.11849 0.57656 0.0
H2101 H 0.43035 0.14275 0.58471 0.0
C2102 C 0.40251 0.14248 0.61937 0.0
C2103 C 0.39174 0.1413 0.63837 0.0
C2104 C 0.43088 0.12756 0.61421 0.0
C2105 C 0.40884 0.12396 0.65185 0.0
C2106 C 0.43649 0.10859 0.64677 0.0
C2107 C 0.47653 0.09637 0.62326 0.0
C2108 C 0.48906 0.09919 0.60475 0.0
C2109 C 0.44794 0.1106 0.62809 0.0
C2110 C 0.47188 0.11594 0.59094 0.0
C2111 C 0.44298 0.12983 0.5956 0.0
H2112 H 0.6651 0.72151 0.35096 0.0
H2113 H 0.6542 0.77089 0.40447 0.0
H2114 H 0.63223 0.72428 0.41906 0.0
H2115 H 0.61573 0.66989 0.4171 0.0
H2116 H 0.62693 0.61835 0.36448 0.0
H2117 H 0.64917 0.66519 0.34926 0.0
C2118 C 0.65785 0.72205 0.36578 0.0
C2119 C 0.66142 0.74994 0.37649 0.0
C2120 C 0.64535 0.69469 0.37436 0.0
C2121 C 0.65199 0.74998 0.39576 0.0
C2122 C 0.63932 0.72323 0.40421 0.0
C2123 C 0.62313 0.66863 0.40231 0.0
C2124 C 0.61962 0.64042 0.39203 0.0
C2125 C 0.63593 0.6955 0.3937 0.0
C2126 C 0.62943 0.63961 0.37284 0.0
C2127 C 0.64207 0.66648 0.36409 0.0
H2128 H 0.09874 0.86295 0.16033 0.0
H2129 H 0.1471 0.87871 0.10703 0.0
H2130 H 0.09844 0.89839 0.0928 0.0
H2131 H 0.04166 0.91134 0.09562 0.0
H2132 H 0.99511 0.89576 0.14958 0.0
H2133 H 0.0434 0.87572 0.1632 0.0
C2134 C 0.09885 0.87076 0.14561 0.0
C2135 C 0.12673 0.86938 0.13486 0.0
C2136 C 0.0709 0.88202 0.13752 0.0
C2137 C 0.1261 0.87962 0.11575 0.0
C2138 C 0.09821 0.89079 0.10755 0.0
C2139 C 0.0421 0.90338 0.1103 0.0
C2140 C 0.01463 0.9052 0.1215 0.0
C2141 C 0.07037 0.89207 0.1183 0.0
C2142 C 0.01576 0.89492 0.14058 0.0
C2143 C 0.04345 0.88339 0.14846 0.0
H2144 H 0.65856 0.77409 0.83685 0.0
H2145 H 0.66058 0.73527 0.89378 0.0
H2146 H 0.64069 0.78416 0.90674 0.0
H2147 H 0.62201 0.83755 0.90231 0.0
H2148 H 0.62117 0.87853 0.84601 0.0
H2149 H 0.64129 0.82941 0.83256 0.0
C2150 C 0.65463 0.77637 0.85207 0.0
C2151 C 0.66108 0.75081 0.86423 0.0
C2152 C 0.64342 0.80502 0.85964 0.0
C2153 C 0.65601 0.75437 0.88398 0.0
C2154 C 0.64455 0.78241 0.89149 0.0
C2155 C 0.62636 0.83597 0.8871 0.0
C2156 C 0.62005 0.86186 0.87525 0.0
C2157 C 0.63813 0.80784 0.87948 0.0
C2158 C 0.6259 0.85909 0.85554 0.0
C2159 C 0.63734 0.83093 0.84781 0.0
H2160 H 0.46816 0.40776 0.08606 0.0
H2161 H 0.50705 0.40897 0.14301 0.0
H2162 H 0.45892 0.38675 0.15564 0.0
H2163 H 0.40614 0.36633 0.15089 0.0
H2164 H 0.36541 0.36587 0.0945 0.0
H2165 H 0.41371 0.38844 0.08145 0.0
C2166 C 0.46609 0.40318 0.10122 0.0
C2167 C 0.49146 0.41008 0.11347 0.0
C2168 C 0.43793 0.39054 0.10859 0.0
C2169 C 0.48813 0.40405 0.13313 0.0
C2170 C 0.46052 0.39126 0.14045 0.0
C2171 C 0.40761 0.37127 0.13575 0.0
C2172 C 0.382 0.36437 0.12377 0.0
C2173 C 0.43531 0.38437 0.12834 0.0
C2174 C 0.38461 0.37101 0.10415 0.0
C2175 C 0.41231 0.38386 0.09663 0.0
H2176 H 0.88931 0.13389 0.36842 0.0
H2177 H 0.87044 0.15572 0.42747 0.0
H2178 H 0.84379 0.20378 0.41816 0.0
H2179 H 0.82852 0.24135 0.39365 0.0
H2180 H 0.84996 0.22215 0.33457 0.0
H2181 H 0.87268 0.17153 0.3435 0.0
C2182 C 0.87901 0.14896 0.37922 0.0
C2183 C 0.8819 0.14099 0.39866 0.0
C2184 C 0.86431 0.17728 0.37378 0.0
C2185 C 0.86869 0.16109 0.41244 0.0
C2186 C 0.85343 0.18872 0.40713 0.0
C2187 C 0.83789 0.22608 0.38264 0.0
C2188 C 0.83746 0.23576 0.36344 0.0
C2189 C 0.85153 0.19731 0.38789 0.0
C2190 C 0.84993 0.21548 0.34947 0.0
C2191 C 0.863 0.18646 0.35457 0.0
H2192 H 0.09673 0.63926 0.65538 0.0
H2193 H 0.14224 0.64141 0.60039 0.0
H2194 H 0.09552 0.61795 0.58571 0.0
H2195 H 0.04073 0.59773 0.5886 0.0
H2196 H 0.99819 0.59394 0.64455 0.0
H2197 H 0.04473 0.61691 0.6586 0.0
C2198 C 0.09674 0.6344 0.64021 0.0
C2199 C 0.12309 0.64216 0.62908 0.0
C2200 C 0.07013 0.6206 0.63195 0.0
C2201 C 0.12237 0.63562 0.60938 0.0
C2202 C 0.09559 0.62227 0.60095 0.0
C2203 C 0.04176 0.60187 0.60385 0.0
C2204 C 0.01578 0.59406 0.61542 0.0
C2205 C 0.06916 0.61482 0.61209 0.0
C2206 C 0.01767 0.59945 0.63521 0.0
C2207 C 0.04435 0.61273 0.64334 0.0
H2208 H 0.62504 0.15698 0.59774 0.0
H2209 H 0.61286 0.11249 0.65252 0.0
H2210 H 0.63532 0.15891 0.66826 0.0
H2211 H 0.65723 0.21325 0.66621 0.0
H2212 H 0.67008 0.25458 0.61036 0.0
H2213 H 0.64871 0.20817 0.59547 0.0
C2214 C 0.62748 0.15705 0.61311 0.0
C2215 C 0.61725 0.13114 0.62386 0.0
C2216 C 0.64051 0.18346 0.62196 0.0
C2217 C 0.62065 0.13203 0.64383 0.0
C2218 C 0.6334 0.15864 0.65285 0.0
C2219 C 0.65545 0.212 0.6508 0.0
C2220 C 0.66521 0.23773 0.63955 0.0
C2221 C 0.64324 0.18468 0.64204 0.0
C2222 C 0.66281 0.23548 0.61955 0.0
C2223 C 0.65052 0.20882 0.61089 0.0
H2224 H 0.12291 0.36404 0.89083 0.0
H2225 H 0.08547 0.36211 0.83354 0.0
H2226 H 0.03613 0.38346 0.84484 0.0
H2227 H 1.00307 0.40193 0.87057 0.0
H2228 H 0.03732 0.40173 0.9285 0.0
H2229 H 0.08821 0.38166 0.91736 0.0
C2230 C 0.10403 0.3685 0.88082 0.0
C2231 C 0.10834 0.36184 0.86125 0.0
C2232 C 0.07498 0.38016 0.88752 0.0
C2233 C 0.08328 0.3673 0.84858 0.0
C2234 C 0.05484 0.37942 0.85504 0.0
C2235 C 0.02156 0.39762 0.88087 0.0
C2236 C 0.01629 0.40356 0.90036 0.0
C2237 C 0.0504 0.38584 0.87443 0.0
C2238 C 0.04064 0.39739 0.91341 0.0
C2239 C 0.06979 0.38599 0.90703 0.0
H2240 H 0.881 0.8735 0.14849 0.0
H2241 H 0.889 0.84383 0.08975 0.0
H2242 H 0.86484 0.79371 0.09759 0.0
H2243 H 0.84302 0.75742 0.12109 0.0
H2244 H 0.83896 0.78438 0.18037 0.0
H2245 H 0.86023 0.83621 0.17238 0.0
C2246 C 0.87728 0.85617 0.13737 0.0
C2247 C 0.88651 0.86282 0.11847 0.0
C2248 C 0.86428 0.82673 0.1421 0.0
C2249 C 0.88188 0.83975 0.10435 0.0
C2250 C 0.86815 0.8109 0.10883 0.0
C2251 C 0.84657 0.77465 0.13228 0.0
C2252 C 0.8392 0.76702 0.1513 0.0
C2253 C 0.85945 0.80406 0.12765 0.0
C2254 C 0.84445 0.78957 0.16563 0.0
C2255 C 0.85656 0.81925 0.16105 0.0
H2256 H 0.50028 0.59977 0.37368 0.0
H2257 H 0.47258 0.60237 0.43291 0.0
H2258 H 0.42002 0.6199 0.42377 0.0
H2259 H 0.38228 0.6356 0.39901 0.0
H2260 H 0.41169 0.63695 0.34006 0.0
H2261 H 0.46293 0.61625 0.34904 0.0
C2262 C 0.48273 0.60405 0.38461 0.0
C2263 C 0.49041 0.59973 0.40395 0.0
C2264 C 0.45273 0.61467 0.37929 0.0
C2265 C 0.4674 0.60568 0.41791 0.0
C2266 C 0.43728 0.61559 0.4127 0.0
C2267 C 0.39978 0.63118 0.3881 0.0
C2268 C 0.39288 0.63766 0.36885 0.0
C2269 C 0.42971 0.6203 0.39343 0.0
C2270 C 0.4161 0.63203 0.35496 0.0
C2271 C 0.44555 0.6203 0.36009 0.0
H2272 H 0.39065 0.1314 0.13652 0.0
H2273 H 0.38859 0.15498 0.0766 0.0
H2274 H 0.36388 0.20495 0.08391 0.0
H2275 H 0.34386 0.24255 0.10701 0.0
H2276 H 0.34845 0.22182 0.16721 0.0
H2277 H 0.37133 0.17032 0.16006 0.0
C2278 C 0.38459 0.14737 0.12505 0.0
C2279 C 0.39119 0.13905 0.10598 0.0
C2280 C 0.37102 0.17673 0.12939 0.0
C2281 C 0.38359 0.16038 0.09137 0.0
C2282 C 0.36951 0.18914 0.09553 0.0
C2283 C 0.3497 0.22683 0.11865 0.0
C2284 C 0.34422 0.23611 0.13764 0.0
C2285 C 0.36325 0.1976 0.11446 0.0
C2286 C 0.35237 0.21538 0.15245 0.0
C2287 C 0.36542 0.18587 0.14837 0.0
H2288 H 0.53181 0.58018 0.90994 0.0
H2289 H 0.48475 0.60179 0.85697 0.0
H2290 H 0.53305 0.62303 0.84393 0.0
H2291 H 0.58818 0.63567 0.84719 0.0
H2292 H 0.63774 0.61273 0.89904 0.0
H2293 H 0.58902 0.59191 0.91283 0.0
C2294 C 0.5322 0.58963 0.89558 0.0
C2295 C 0.50456 0.5893 0.88448 0.0
C2296 C 0.56051 0.6015 0.88791 0.0
C2297 C 0.50556 0.60144 0.86583 0.0
C2298 C 0.53323 0.61371 0.85832 0.0
C2299 C 0.58863 0.62594 0.86147 0.0
C2300 C 0.61679 0.6257 0.87197 0.0
C2301 C 0.5608 0.61377 0.86918 0.0
C2302 C 0.6165 0.61309 0.89054 0.0
C2303 C 0.58859 0.60126 0.89846 0.0
H2304 H 0.15824 0.79522 0.66597 0.0
H2305 H 0.15198 0.7544 0.60968 0.0
H2306 H 0.12947 0.80262 0.59733 0.0
H2307 H 0.11098 0.85577 0.60223 0.0
H2308 H 0.11857 0.89919 0.6577 0.0
H2309 H 0.14123 0.85072 0.67058 0.0
C2310 C 0.15183 0.79696 0.65104 0.0
C2311 C 0.15676 0.77115 0.6388 0.0
C2312 C 0.13927 0.82525 0.64382 0.0
C2313 C 0.14865 0.77386 0.61942 0.0
C2314 C 0.1357 0.80146 0.61231 0.0
C2315 C 0.11778 0.85493 0.61712 0.0
C2316 C 0.11304 0.88123 0.62892 0.0
C2317 C 0.13094 0.82725 0.62434 0.0
C2318 C 0.12205 0.8794 0.64821 0.0
C2319 C 0.13489 0.85161 0.65562 0.0
H2320 H 0.96586 0.41122 0.41451 0.0
H2321 H 0.01322 0.39214 0.36118 0.0
H2322 H 0.96619 0.36841 0.3484 0.0
H2323 H 0.91169 0.35381 0.35156 0.0
H2324 H 0.86177 0.3727 0.40394 0.0
H2325 H 0.90952 0.39559 0.41774 0.0
C2326 C 0.96584 0.40173 0.40015 0.0
C2327 C 0.99319 0.40381 0.38885 0.0
C2328 C 0.93818 0.38814 0.39259 0.0
C2329 C 0.99264 0.39135 0.37023 0.0
C2330 C 0.96566 0.37762 0.36282 0.0
C2331 C 0.911 0.36292 0.36601 0.0
C2332 C 0.88298 0.36161 0.37659 0.0
C2333 C 0.93829 0.37612 0.37377 0.0
C2334 C 0.88293 0.37349 0.39536 0.0
C2335 C 0.91027 0.38657 0.40329 0.0
H2336 H 0.34499 0.79099 0.34353 0.0
H2337 H 0.36314 0.74412 0.39707 0.0
H2338 H 0.38573 0.79162 0.41007 0.0
H2339 H 0.39954 0.84618 0.40697 0.0
H2340 H 0.38131 0.89586 0.35447 0.0
H2341 H 0.35966 0.84764 0.34042 0.0
C2342 C 0.35407 0.79123 0.35798 0.0
C2343 C 0.35211 0.76391 0.36929 0.0
C2344 C 0.3669 0.81915 0.36565 0.0
C2345 C 0.36392 0.7647 0.38803 0.0
C2346 C 0.37697 0.79193 0.39554 0.0
C2347 C 0.39082 0.84677 0.39244 0.0
C2348 C 0.39195 0.87482 0.38189 0.0
C2349 C 0.37834 0.81928 0.38457 0.0
C2350 C 0.38061 0.87469 0.36302 0.0
C2351 C 0.36827 0.84708 0.35496 0.0
H2352 H 0.96399 0.60311 0.09391 0.0
H2353 H 0.01076 0.60365 0.14861 0.0
H2354 H 0.96338 0.62304 0.16385 0.0
H2355 H 0.90897 0.6406 0.16195 0.0
H2356 H 0.86066 0.63884 0.10782 0.0
H2357 H 0.90813 0.61918 0.09224 0.0
C2358 C 0.9638 0.60745 0.10916 0.0
C2359 C 0.99114 0.60193 0.11999 0.0
C2360 C 0.93611 0.61839 0.11804 0.0
C2361 C 0.99026 0.60757 0.1398 0.0
C2362 C 0.96308 0.61873 0.14861 0.0
C2363 C 0.90863 0.63579 0.14676 0.0
C2364 C 0.88111 0.64125 0.13615 0.0
C2365 C 0.93591 0.62429 0.13789 0.0
C2366 C 0.88138 0.63479 0.11644 0.0
C2367 C 0.9086 0.62361 0.10747 0.0
H2368 H 0.16264 0.24425 0.88353 0.0
H2369 H 0.14895 0.21785 0.82464 0.0
H2370 H 0.13141 0.16561 0.83469 0.0
H2371 H 0.1188 0.12778 0.86037 0.0
H2372 H 0.13014 0.15642 0.91911 0.0
H2373 H 0.15003 0.20719 0.90885 0.0
C2374 C 0.15596 0.22714 0.8728 0.0
C2375 C 0.15722 0.23513 0.85331 0.0
C2376 C 0.14554 0.19737 0.87866 0.0
C2377 C 0.14821 0.21249 0.83973 0.0
C2378 C 0.1382 0.18255 0.84547 0.0
C2379 C 0.12589 0.145 0.87094 0.0
C2380 C 0.12316 0.13795 0.89054 0.0
C2381 C 0.13666 0.17474 0.86493 0.0
C2382 C 0.13211 0.16087 0.90396 0.0
C2383 C 0.14342 0.19008 0.89811 0.0
H2384 H 0.51289 0.40936 0.6416 0.0
H2385 H 0.54173 0.41885 0.58292 0.0
H2386 H 0.59268 0.39492 0.59061 0.0
H2387 H 0.62891 0.37139 0.61432 0.0
H2388 H 0.59659 0.35868 0.67226 0.0
H2389 H 0.54727 0.38409 0.66454 0.0
C2390 C 0.53032 0.40637 0.63047 0.0
C2391 C 0.52369 0.41615 0.61178 0.0
C2392 C 0.55903 0.39214 0.6349 0.0
C2393 C 0.54633 0.4115 0.59745 0.0
C2394 C 0.57545 0.39792 0.60185 0.0
C2395 C 0.61113 0.37432 0.62527 0.0
C2396 C 0.61689 0.36361 0.64397 0.0
C2397 C 0.58209 0.38818 0.62058 0.0
C2398 C 0.59325 0.36707 0.65786 0.0
C2399 C 0.56484 0.38152 0.65344 0.0
H2400 H 0.30426 0.23416 0.22508 0.0
H2401 H 0.24586 0.31292 0.20933 0.0
H2402 H 0.21309 0.30422 0.23745 0.0
H2403 H 0.20089 0.2743 0.26651 0.0
H2404 H 0.25909 0.19535 0.28215 0.0
H2405 H 0.29216 0.20435 0.25419 0.0
C2406 C 0.28428 0.24937 0.2277 0.0
C2407 C 0.27755 0.27412 0.21498 0.0
C2408 C 0.2656 0.24437 0.244 0.0
C2409 C 0.25161 0.29363 0.21877 0.0
C2410 C 0.23287 0.28874 0.23491 0.0
C2411 C 0.22094 0.25917 0.26392 0.0
C2412 C 0.22749 0.23423 0.27654 0.0
C2413 C 0.2397 0.26425 0.24767 0.0
C2414 C 0.25347 0.21477 0.27277 0.0
C2415 C 0.27237 0.21984 0.25673 0.0
H2416 H 0.04879 0.04256 0.54473 0.0
H2417 H 0.99499 0.9574 0.53856 0.0
H2418 H 0.97654 0.97469 0.50713 0.0
H2419 H 0.97588 0.01446 0.48122 0.0
H2420 H 0.03389 0.09723 0.48697 0.0
H2421 H 0.05061 0.08035 0.51841 0.0
C2422 C 0.03279 0.02796 0.53656 0.0
C2423 C 0.02283 0.99905 0.54405 0.0
C2424 C 0.02326 0.03749 0.51825 0.0
C2425 C 1.00276 0.97993 0.53312 0.0
C2426 C 0.99228 0.98976 0.51514 0.0
C2427 C 0.99237 0.02861 0.48931 0.0
C2428 C 0.00354 0.05708 0.48161 0.0
C2429 C 1.00247 0.0185 0.50749 0.0
C2430 C 0.02498 0.0751 0.49234 0.0
C2431 C 0.03448 0.06559 0.51046 0.0
H2432 H 0.20431 0.71481 0.73205 0.0
H2433 H 0.26155 0.77844 0.69892 0.0
H2434 H 0.28379 0.80012 0.72821 0.0
H2435 H 0.2875 0.80075 0.76302 0.0
H2436 H 0.23133 0.73661 0.7964 0.0
H2437 H 0.20789 0.71569 0.76714 0.0
C2438 C 0.22166 0.73343 0.73119 0.0
C2439 C 0.23122 0.74492 0.71321 0.0
C2440 C 0.23444 0.74582 0.74813 0.0
C2441 C 0.25373 0.76907 0.71248 0.0
C2442 C 0.26645 0.78154 0.72925 0.0
C2443 C 0.27004 0.78228 0.764 0.0
C2444 C 0.26126 0.77031 0.782 0.0
C2445 C 0.257 0.77009 0.74713 0.0
C2446 C 0.23857 0.74633 0.78282 0.0
C2447 C 0.22521 0.73428 0.76606 0.0
H2448 H 0.53356 0.04645 0.01718 0.0
H2449 H 0.4554 0.98817 0.03427 0.0
H2450 H 0.46421 0.95402 0.00678 0.0
H2451 H 0.49323 0.94132 0.97749 0.0
H2452 H 0.57123 0.99972 0.96028 0.0
H2453 H 0.5631 0.03329 0.98812 0.0
C2454 C 0.51861 0.02611 0.01503 0.0
C2455 C 0.49389 0.01992 0.02785 0.0
C2456 C 0.52354 0.00675 0.99903 0.0
C2457 C 0.47465 0.99354 0.02469 0.0
C2458 C 0.47959 0.97403 0.00891 0.0
C2459 C 0.5084 0.96147 0.97975 0.0
C2460 C 0.53271 0.96802 0.9667 0.0
C2461 C 0.50375 0.98058 0.99588 0.0
C2462 C 0.55225 0.99413 0.97001 0.0
C2463 C 0.54769 0.01331 0.98598 0.0
H2464 H 0.30304 0.78228 0.28033 0.0
H2465 H 0.24554 0.70211 0.29474 0.0
H2466 H 0.21341 0.71097 0.26641 0.0
H2467 H 0.20231 0.74061 0.23713 0.0
H2468 H 0.25989 0.82064 0.2226 0.0
H2469 H 0.29139 0.81247 0.25129 0.0
C2470 C 0.28329 0.7669 0.27741 0.0
C2471 C 0.27674 0.74159 0.28975 0.0
C2472 C 0.26509 0.77188 0.26093 0.0
C2473 C 0.25115 0.72181 0.28557 0.0
C2474 C 0.23281 0.72678 0.26931 0.0
C2475 C 0.22183 0.75622 0.24016 0.0
C2476 C 0.22877 0.78111 0.2276 0.0
C2477 C 0.23974 0.75154 0.25678 0.0
C2478 C 0.25403 0.80121 0.23192 0.0
C2479 C 0.27203 0.79661 0.24838 0.0
H2480 H 0.51816 0.00719 0.46348 0.0
H2481 H 0.43161 0.96895 0.48571 0.0
H2482 H 0.44606 0.98571 0.51779 0.0
H2483 H 0.48358 0.01068 0.5398 0.0
H2484 H 0.57029 0.04853 0.51751 0.0
H2485 H 0.55552 0.03232 0.48542 0.0
C2486 C 0.50234 1.00275 0.47531 0.0
C2487 C 0.47384 0.98686 0.47211 0.0
C2488 C 0.51091 0.01216 0.49384 0.0
C2489 C 0.45375 0.98111 0.48769 0.0
C2490 C 0.462 0.99062 0.5061 0.0
C2491 C 0.49931 0.01525 0.52795 0.0
C2492 C 0.528 0.0308 0.53116 0.0
C2493 C 0.49063 0.00598 0.50939 0.0
C2494 C 0.54801 0.03664 0.51554 0.0
C2495 C 0.53958 0.02743 0.49712 0.0
H2496 H 0.20578 0.29764 0.76236 0.0
H2497 H 0.26901 0.24198 0.79667 0.0
H2498 H 0.2953 0.22331 0.76782 0.0
H2499 H 0.30001 0.22224 0.73302 0.0
H2500 H 0.23696 0.27768 0.6985 0.0
H2501 H 0.21086 0.2969 0.72737 0.0
C2502 C 0.22536 0.28146 0.76359 0.0
C2503 C 0.23533 0.27122 0.78176 0.0
C2504 C 0.24035 0.27072 0.74691 0.0
C2505 C 0.26076 0.25026 0.78295 0.0
C2506 C 0.27582 0.23954 0.76644 0.0
C2507 C 0.28059 0.23858 0.73171 0.0
C2508 C 0.27053 0.24848 0.7135 0.0
C2509 C 0.26574 0.24952 0.74835 0.0
C2510 C 0.24526 0.26964 0.71225 0.0
C2511 C 0.23032 0.28065 0.72878 0.0
H2512 H 0.99346 0.05244 0.98783 0.0
H2513 H 0.07177 0.9933 0.97221 0.0
H2514 H 0.06347 0.9616 1.00087 0.0
H2515 H 0.03391 0.95061 0.03041 0.0
H2516 H 0.95561 0.00999 0.04577 0.0
H2517 H 0.96432 0.04182 0.01731 0.0
C2518 C 0.00866 0.03251 0.99057 0.0
C2519 C 0.03313 0.02524 0.97773 0.0
C2520 C 0.00397 0.01457 0.00719 0.0
C2521 C 0.05265 0.99941 0.98173 0.0
C2522 C 0.048 0.98132 0.99819 0.0
C2523 C 0.01892 0.9707 0.02766 0.0
C2524 C 0.99419 0.9779 0.04036 0.0
C2525 C 0.02381 0.98876 0.01107 0.0
C2526 C 0.97487 0.00388 0.03636 0.0
C2527 C 0.97975 0.02206 0.02001 0.0
H2528 H 0.75479 0.72202 0.71634 0.0
H2529 H 0.79375 0.80917 0.73727 0.0
H2530 H 0.77585 0.79681 0.76938 0.0
H2531 H 0.74889 0.76145 0.79181 0.0
H2532 H 0.71003 0.67421 0.77099 0.0
H2533 H 0.7282 0.68639 0.73887 0.0
C2534 C 0.75927 0.73837 0.7279 0.0
C2535 C 0.7756 0.7665 0.72425 0.0
C2536 C 0.74902 0.73106 0.74652 0.0
C2537 C 0.78129 0.78729 0.73953 0.0
C2538 C 0.77107 0.78025 0.75799 0.0
C2539 C 0.74455 0.745 0.78029 0.0
C2540 C 0.72806 0.71696 0.78395 0.0
C2541 C 0.75496 0.75219 0.7617 0.0
C2542 C 0.72259 0.69603 0.76871 0.0
C2543 C 0.73295 0.70297 0.75025 0.0
H2544 H 0.7089 0.27685 0.23007 0.0
H2545 H 0.76466 0.19559 0.21541 0.0
H2546 H 0.79703 0.20373 0.24377 0.0
H2547 H 0.8088 0.2332 0.27315 0.0
H2548 H 0.75268 0.31426 0.28775 0.0
H2549 H 0.72106 0.30666 0.25909 0.0
C2550 C 0.72829 0.26103 0.23294 0.0
C2551 C 0.73431 0.23567 0.22053 0.0
C2552 C 0.74659 0.2656 0.24941 0.0
C2553 C 0.75949 0.21536 0.22463 0.0
C2554 C 0.77796 0.21992 0.24091 0.0
C2555 C 0.78957 0.24915 0.27013 0.0
C2556 C 0.7831 0.27419 0.2827 0.0
C2557 C 0.77154 0.24479 0.2535 0.0
C2558 C 0.7582 0.29473 0.27841 0.0
C2559 C 0.74012 0.29046 0.26197 0.0
H2560 H 0.80533 0.26575 0.77567 0.0
H2561 H 0.7457 0.18926 0.79372 0.0
H2562 H 0.71454 0.19455 0.76462 0.0
H2563 H 0.70428 0.22088 0.73396 0.0
H2564 H 0.76426 0.29725 0.71611 0.0
H2565 H 0.79546 0.29163 0.74508 0.0
C2566 C 0.78534 0.2504 0.77337 0.0
C2567 C 0.77777 0.22729 0.78697 0.0
C2568 C 0.76781 0.25325 0.75649 0.0
C2569 C 0.75198 0.20738 0.78357 0.0
C2570 C 0.73423 0.21028 0.76687 0.0
C2571 C 0.72442 0.23603 0.73628 0.0
C2572 C 0.73197 0.25935 0.7228 0.0
C2573 C 0.74205 0.23299 0.75316 0.0
C2574 C 0.75793 0.27904 0.7262 0.0
C2575 C 0.77572 0.27596 0.74282 0.0
H2576 H 0.71046 0.72513 0.28547 0.0
H2577 H 0.76851 0.80493 0.29982 0.0
H2578 H 0.79989 0.79645 0.27111 0.0
H2579 H 0.81005 0.76741 0.24143 0.0
H2580 H 0.75184 0.68785 0.22684 0.0
H2581 H 0.72128 0.69543 0.25601 0.0
C2582 C 0.73021 0.74046 0.28247 0.0
C2583 C 0.73711 0.76559 0.29492 0.0
C2584 C 0.74795 0.73574 0.26573 0.0
C2585 C 0.76264 0.78536 0.2906 0.0
C2586 C 0.78055 0.78061 0.2741 0.0
C2587 C 0.7906 0.75176 0.24455 0.0
C2588 C 0.78322 0.72719 0.23182 0.0
C2589 C 0.77321 0.75611 0.26145 0.0
C2590 C 0.75804 0.70705 0.23628 0.0
C2591 C 0.74058 0.7113 0.25302 0.0
H2592 H 0.4746 0.45242 0.02194 0.0
H2593 H 0.55364 0.51144 0.03639 0.0
H2594 H 0.54681 0.54075 0.00677 0.0
H2595 H 0.51892 0.54932 0.97655 0.0
H2596 H 0.43976 0.4905 0.96208 0.0
H2597 H 0.44645 0.46124 0.99178 0.0
C2598 C 0.49015 0.47191 0.01874 0.0
C2599 C 0.51452 0.47975 0.0315 0.0
C2600 C 0.48636 0.48847 1.00152 0.0
C2601 C 0.5346 0.50491 0.02693 0.0
C2602 C 0.53082 0.52162 0.00992 0.0
C2603 C 0.50329 0.5299 0.97976 0.0
C2604 C 0.479 0.52203 0.96696 0.0
C2605 C 0.50697 0.51344 0.99702 0.0
C2606 C 0.45876 0.49702 0.97157 0.0
C2607 C 0.46247 0.48034 0.98862 0.0
H2608 H 0.97743 0.46125 0.47834 0.0
H2609 H 0.06105 0.51257 0.46269 0.0
H2610 H 0.05466 0.54656 0.49052 0.0
H2611 H 0.02594 0.56117 0.51983 0.0
H2612 H 0.94249 0.50943 0.53538 0.0
H2613 H 0.94842 0.47624 0.50725 0.0
C2614 C 0.99414 0.48004 0.48088 0.0
C2615 C 0.01964 0.48428 0.4683 0.0
C2616 C 0.99055 0.49935 0.49708 0.0
C2617 C 0.04112 0.5087 0.47202 0.0
C2618 C 0.03757 0.52813 0.48802 0.0
C2619 C 0.00911 0.54256 0.51712 0.0
C2620 C 0.98386 0.53786 0.52985 0.0
C2621 C 0.01252 0.52352 0.50076 0.0
C2622 C 0.96219 0.51369 0.52594 0.0
C2623 C 0.96552 0.49466 0.50979 0.0
H2624 H 0.01034 0.55254 0.02754 0.0
H2625 H 0.02638 0.46858 0.06056 0.0
H2626 H 0.01477 0.43615 0.03258 0.0
H2627 H 1.00132 0.43169 0.99851 0.0
H2628 H 0.98066 0.51517 0.96614 0.0
H2629 H 0.99294 0.54792 0.99403 0.0
C2630 C 0.01111 0.52713 0.02862 0.0
C2631 C 0.01936 0.51296 0.04608 0.0
C2632 C 0.00386 0.50864 0.01255 0.0
C2633 C 0.01994 0.48003 0.04733 0.0
C2634 C 0.01349 0.46149 0.03131 0.0
C2635 C 0.99975 0.45709 0.99757 0.0
C2636 C 0.9908 0.47116 0.98025 0.0
C2637 C 0.00574 0.47555 0.01381 0.0
C2638 C 0.98786 0.50396 0.9793 0.0
C2639 C 0.99481 0.5226 0.99523 0.0
H2640 H 0.54826 0.55788 0.49581 0.0
H2641 H 0.49097 0.49635 0.46128 0.0
H2642 H 0.46835 0.47321 0.49002 0.0
H2643 H 0.46469 0.47032 0.52492 0.0
H2644 H 0.52222 0.53139 0.55956 0.0
H2645 H 0.54469 0.55485 0.53081 0.0
C2646 C 0.53087 0.53936 0.49454 0.0
C2647 C 0.52137 0.52893 0.47633 0.0
C2648 C 0.51787 0.52611 0.51116 0.0
C2649 C 0.49877 0.50491 0.47505 0.0
C2650 C 0.48575 0.49165 0.4915 0.0
C2651 C 0.48205 0.48885 0.52623 0.0
C2652 C 0.49167 0.49907 0.54445 0.0
C2653 C 0.49506 0.5021 0.50963 0.0
C2654 C 0.51434 0.52302 0.54578 0.0
C2655 C 0.52725 0.53645 0.52932 0.0
H2656 H 0.25379 0.08972 0.39243 0.0
H2657 H 0.26375 0.07953 0.33155 0.0
H2658 H 0.30628 0.04152 0.33617 0.0
H2659 H 0.34166 0.01196 0.35768 0.0
H2660 H 0.32745 0.0175 0.41844 0.0
H2661 H 0.28569 0.05641 0.41384 0.0
C2662 C 0.26519 0.07896 0.38022 0.0
C2663 C 0.25583 0.08746 0.36168 0.0
C2664 C 0.28896 0.05639 0.383 0.0
C2665 C 0.27049 0.0732 0.34595 0.0
C2666 C 0.2949 0.05159 0.34859 0.0
C2667 C 0.32929 0.02171 0.36986 0.0
C2668 C 0.33771 0.01224 0.38837 0.0
C2669 C 0.3045 0.04316 0.36705 0.0
C2670 C 0.32129 0.02454 0.40407 0.0
C2671 C 0.29749 0.04679 0.40144 0.0
H2672 H 0.18 0.02492 0.60345 0.0
H2673 H 0.13658 0.02468 0.65907 0.0
H2674 H 0.17642 0.06093 0.67097 0.0
H2675 H 0.22276 0.09427 0.66542 0.0
H2676 H 0.26347 0.09853 0.60917 0.0
H2677 H 0.22596 0.05921 0.59774 0.0
C2678 C 0.17943 0.03274 0.61818 0.0
C2679 C 0.15538 0.02211 0.63034 0.0
C2680 C 0.20202 0.05434 0.62485 0.0
C2681 C 0.15471 0.03268 0.64936 0.0
C2682 C 0.17756 0.05334 0.65622 0.0
C2683 C 0.2236 0.08627 0.65073 0.0
C2684 C 0.246 0.09901 0.63821 0.0
C2685 C 0.20123 0.06451 0.64408 0.0
C2686 C 0.24645 0.08896 0.6191 0.0
C2687 C 0.22499 0.06652 0.61254 0.0
H2688 H 0.2375 0.9311 0.84032 0.0
H2689 H 0.26665 0.90432 0.8969 0.0
H2690 H 0.23157 0.94367 0.9108 0.0
H2691 H 0.19048 0.98408 0.90697 0.0
H2692 H 0.1573 0.00676 0.85055 0.0
H2693 H 0.19587 0.97097 0.83652 0.0
C2694 C 0.23636 0.93419 0.85567 0.0
C2695 C 0.25477 0.91504 0.86756 0.0
C2696 C 0.21522 0.95609 0.86361 0.0
C2697 C 0.25269 0.91883 0.88745 0.0
C2698 C 0.23262 0.94131 0.89541 0.0
C2699 C 0.19198 0.98138 0.89161 0.0
C2700 C 0.17125 0.99816 0.87981 0.0
C2701 C 0.21349 0.95985 0.88366 0.0
C2702 C 0.17303 0.99405 0.85993 0.0
C2703 C 0.19508 0.9736 0.85189 0.0
H2704 H 0.26609 0.91601 0.10873 0.0
H2705 H 0.27058 0.9333 0.16924 0.0
H2706 H 0.31047 0.974 0.16413 0.0
H2707 H 0.34508 0.00382 0.14235 0.0
H2708 H 0.3362 0.99053 0.08163 0.0
H2709 H 0.29695 0.94932 0.0868 0.0
C2710 C 0.27578 0.92884 0.12074 0.0
C2711 C 0.26575 0.9216 0.13933 0.0
C2712 C 0.29787 0.9529 0.11762 0.0
C2713 C 0.27802 0.93858 0.15481 0.0
C2714 C 0.30085 0.96176 0.15189 0.0
C2715 C 0.33435 0.99196 0.13029 0.0
C2716 C 0.34356 0.99995 0.11165 0.0
C2717 C 0.3111 0.96899 0.13337 0.0
C2718 C 0.32933 0.98479 0.0961 0.0
C2719 C 0.30701 0.96116 0.09905 0.0
H2720 H 0.74339 0.91469 0.61881 0.0
H2721 H 0.7135 0.91379 0.67755 0.0
H2722 H 0.67331 0.95341 0.67049 0.0
H2723 H 0.64614 0.9877 0.64734 0.0
H2724 H 0.67993 0.9926 0.58943 0.0
H2725 H 0.71924 0.95215 0.59635 0.0
C2726 C 0.7281 0.92332 0.63004 0.0
C2727 C 0.73112 0.91129 0.64863 0.0
C2728 C 0.70581 0.94676 0.62599 0.0
C2729 C 0.71157 0.92284 0.66316 0.0
C2730 C 0.68857 0.94537 0.6591 0.0
C2731 C 0.6622 0.97989 0.63628 0.0
C2732 C 0.66005 0.99281 0.61786 0.0
C2733 C 0.68538 0.9574 0.64055 0.0
C2734 C 0.68122 0.98295 0.60371 0.0
C2735 C 0.70361 0.9598 0.60765 0.0
H2736 H 0.84663 1.00331 0.36961 0.0
H2737 H 0.83113 0.99716 0.43028 0.0
H2738 H 0.78983 0.95796 0.42513 0.0
H2739 H 0.75886 0.92444 0.40334 0.0
H2740 H 0.77099 0.93417 0.34256 0.0
H2741 H 0.81262 0.973 0.34772 0.0
C2742 C 0.83411 0.9934 0.38168 0.0
C2743 C 0.84208 1.0029 0.40031 0.0
C2744 C 0.80976 0.97154 0.37857 0.0
C2745 C 0.8254 0.99026 0.41581 0.0
C2746 C 0.80184 0.96778 0.41287 0.0
C2747 C 0.77055 0.9352 0.39124 0.0
C2748 C 0.762 0.9263 0.37259 0.0
C2749 C 0.79393 0.95811 0.39432 0.0
C2750 C 0.77706 0.9407 0.35704 0.0
C2751 C 0.80096 0.96281 0.35999 0.0
H2752 H 0.76402 0.07358 0.15722 0.0
H2753 H 0.75289 0.10285 0.09875 0.0
H2754 H 0.79005 0.06245 0.08836 0.0
H2755 H 0.8277 0.02016 0.09606 0.0
H2756 H 0.8428 0.99491 0.15489 0.0
H2757 H 0.8022 0.03203 0.16496 0.0
C2758 C 0.76954 0.07084 0.1422 0.0
C2759 C 0.75561 0.09097 0.12876 0.0
C2760 C 0.79178 0.04829 0.13639 0.0
C2761 C 0.76336 0.0876 0.10937 0.0
C2762 C 0.78459 0.0645 0.10341 0.0
C2763 C 0.8218 0.02262 0.11105 0.0
C2764 C 0.838 0.00471 0.1247 0.0
C2765 C 0.79921 0.04489 0.11681 0.0
C2766 C 0.8306 0.00848 0.14412 0.0
C2767 C 0.8074 0.02969 0.14989 0.0
H2768 H 0.68646 0.00622 0.90434 0.0
H2769 H 0.66156 0.99917 0.8449 0.0
H2770 H 0.70303 0.03666 0.83658 0.0
H2771 H 0.74505 0.07318 0.8464 0.0
H2772 H 0.76532 0.08521 0.90618 0.0
H2773 H 0.72725 0.0441 0.91426 0.0
C2774 C 0.69039 0.01275 0.88957 0.0
C2775 C 0.67131 0.99981 0.87521 0.0
C2776 C 0.71341 0.03528 0.885 0.0
C2777 C 0.67608 0.00885 0.85616 0.0
C2778 C 0.69976 0.03025 0.85141 0.0
C2779 C 0.7413 0.06647 0.86116 0.0
C2780 C 0.75814 0.08178 0.87569 0.0
C2781 C 0.71841 0.04382 0.86572 0.0
C2782 C 0.75265 0.07354 0.89479 0.0
C2783 C 0.7309 0.0501 0.8994 0.0
H2784 H 0.75665 0.57886 0.89535 0.0
H2785 H 0.76578 0.56089 0.83509 0.0
H2786 H 0.80671 0.5217 0.84145 0.0
H2787 H 0.84122 0.49391 0.86426 0.0
H2788 H 0.82808 0.50811 0.92464 0.0
H2789 H 0.7873 0.54731 0.91822 0.0
C2790 C 0.76752 0.56617 0.88365 0.0
C2791 C 0.75852 0.57284 0.86477 0.0
C2792 C 0.7903 0.5431 0.88747 0.0
C2793 C 0.77236 0.55604 0.84972 0.0
C2794 C 0.79581 0.53376 0.85336 0.0
C2795 C 0.82924 0.50551 0.87597 0.0
C2796 C 0.83773 0.49842 0.89488 0.0
C2797 C 0.80517 0.5273 0.87217 0.0
C2798 C 0.82184 0.5132 0.90998 0.0
C2799 C 0.79863 0.53566 0.90631 0.0
H2800 H 0.74316 0.59545 0.11098 0.0
H2801 H 0.74076 0.57547 0.17123 0.0
H2802 H 0.70204 0.53379 0.16581 0.0
H2803 H 0.66776 0.50394 0.14393 0.0
H2804 H 0.6744 0.51992 0.08336 0.0
H2805 H 0.71269 0.56203 0.08878 0.0
C2806 C 0.73416 0.58183 0.12287 0.0
C2807 C 0.74444 0.5886 0.14149 0.0
C2808 C 0.71275 0.5572 0.11955 0.0
C2809 C 0.73311 0.57059 0.15678 0.0
C2810 C 0.71095 0.54684 0.15369 0.0
C2811 C 0.67781 0.51655 0.13195 0.0
C2812 C 0.66821 0.50908 0.11329 0.0
C2813 C 0.70046 0.54006 0.13515 0.0
C2814 C 0.68158 0.52525 0.09784 0.0
C2815 C 0.70333 0.54939 0.10094 0.0
H2816 H 0.72124 0.39813 0.39089 0.0
H2817 H 0.77541 0.44695 0.34808 0.0
H2818 H 0.74042 0.49221 0.35054 0.0
H2819 H 0.69349 0.51751 0.36414 0.0
H2820 H 0.6395 0.46869 0.40706 0.0
H2821 H 0.67543 0.42417 0.40531 0.0
C2822 C 0.72546 0.41869 0.38212 0.0
C2823 C 0.75094 0.41901 0.36929 0.0
C2824 C 0.70525 0.44476 0.38363 0.0
C2825 C 0.75606 0.44598 0.35812 0.0
C2826 C 0.73601 0.47192 0.35949 0.0
C2827 C 0.68966 0.49724 0.37322 0.0
C2828 C 0.66368 0.49657 0.38567 0.0
C2829 C 0.71041 0.47153 0.37211 0.0
C2830 C 0.65923 0.47001 0.39732 0.0
C2831 C 0.67975 0.44441 0.39631 0.0
H2832 H 0.81439 0.51494 0.65216 0.0
H2833 H 0.85921 0.46957 0.60419 0.0
H2834 H 0.82091 0.42704 0.60558 0.0
H2835 H 0.77636 0.4015 0.62119 0.0
H2836 H 0.73164 0.44603 0.66945 0.0
H2837 H 0.76826 0.49016 0.6671 0.0
C2838 C 0.81563 0.4959 0.6419 0.0
C2839 C 0.83977 0.49546 0.62814 0.0
C2840 C 0.79368 0.47126 0.64288 0.0
C2841 C 0.84099 0.47054 0.61497 0.0
C2842 C 0.81912 0.44613 0.61576 0.0
C2843 C 0.77449 0.42087 0.63119 0.0
C2844 C 0.75134 0.42035 0.64554 0.0
C2845 C 0.79565 0.44605 0.62981 0.0
C2846 C 0.74922 0.44579 0.65827 0.0
C2847 C 0.77019 0.47103 0.65696 0.0
H2848 H 0.16747 0.4761 0.08698 0.0
H2849 H 0.17392 0.5216 0.14183 0.0
H2850 H 0.21412 0.484 0.15184 0.0
H2851 H 0.2458 0.43657 0.14553 0.0
H2852 H 0.2359 0.38869 0.0916 0.0
H2853 H 0.19884 0.42863 0.08075 0.0
C2854 C 0.178 0.47801 0.10102 0.0
C2855 C 0.16795 0.50176 0.11357 0.0
C2856 C 0.20034 0.45566 0.10692 0.0
C2857 C 0.18134 0.50356 0.13188 0.0
C2858 C 0.20429 0.48204 0.13763 0.0
C2859 C 0.23568 0.43505 0.13136 0.0
C2860 C 0.24365 0.40973 0.11939 0.0
C2861 C 0.21372 0.45774 0.12536 0.0
C2862 C 0.23005 0.40785 0.10114 0.0
C2863 C 0.20889 0.43074 0.09489 0.0
H2864 H 0.32607 0.49891 0.85417 0.0
H2865 H 0.31781 0.48679 0.915 0.0
H2866 H 0.27795 0.44597 0.91023 0.0
H2867 H 0.24682 0.41227 0.88858 0.0
H2868 H 0.25111 0.42825 0.82793 0.0
H2869 H 0.29096 0.46907 0.83271 0.0
C2870 C 0.31531 0.48743 0.86635 0.0
C2871 C 0.32494 0.49559 0.8849 0.0
C2872 C 0.29178 0.46466 0.8635 0.0
C2873 C 0.31066 0.48091 0.9006 0.0
C2874 C 0.28799 0.4575 0.89787 0.0
C2875 C 0.25639 0.4249 0.87646 0.0
C2876 C 0.24631 0.41718 0.85792 0.0
C2877 C 0.27858 0.44897 0.87937 0.0
C2878 C 0.2585 0.43389 0.84232 0.0
C2879 C 0.28135 0.45712 0.84505 0.0
H2880 H 0.33174 0.52545 0.6013 0.0
H2881 H 0.36783 0.52037 0.65866 0.0
H2882 H 0.32714 0.55678 0.66964 0.0
H2883 H 0.28219 0.59172 0.66266 0.0
H2884 H 0.25047 0.60155 0.60463 0.0
H2885 H 0.28817 0.56166 0.59414 0.0
C2886 C 0.33048 0.5322 0.61621 0.0
C2887 C 0.35251 0.52015 0.62919 0.0
C2888 C 0.30775 0.55404 0.62228 0.0
C2889 C 0.35107 0.52943 0.64842 0.0
C2890 C 0.3278 0.55019 0.6547 0.0
C2891 C 0.28344 0.58478 0.64779 0.0
C2892 C 0.26349 0.59909 0.63444 0.0
C2893 C 0.30612 0.56284 0.64175 0.0
C2894 C 0.26562 0.5906 0.61512 0.0
C2895 C 0.28716 0.56787 0.60913 0.0
H2896 H 0.18387 0.5147 0.409 0.0
H2897 H 0.15985 0.49713 0.35021 0.0
H2898 H 0.20012 0.53431 0.33973 0.0
H2899 H 0.24047 0.574 0.34732 0.0
H2900 H 0.2604 0.59559 0.40618 0.0
H2901 H 0.22377 0.55479 0.41659 0.0
C2902 C 0.18776 0.51883 0.39391 0.0
C2903 C 0.16912 0.50314 0.38039 0.0
C2904 C 0.21018 0.54111 0.388 0.0
C2905 C 0.17394 0.50902 0.36088 0.0
C2906 C 0.19695 0.53026 0.35487 0.0
C2907 C 0.23697 0.56946 0.3624 0.0
C2908 C 0.25317 0.58756 0.37596 0.0
C2909 C 0.21498 0.54674 0.3683 0.0
C2910 C 0.24811 0.58191 0.39548 0.0
C2911 C 0.22718 0.5586 0.40145 0.0
loop_
_geom_bond_atom_site_label_1
_geom_bond_atom_site_label_2
_geom_bond_distance
_geom_bond_site_symmetry_2
_ccdc_geom_bond_type
Co0 O2 2.143 . S
Co0 O8 2.074 . S
Co0 O11 2.093 . S
Co0 O24 2.097 . S
Co0 N41 2.151 . S
Co0 N49 2.214 . S
Co1 O2 2.160 . S
Co1 O7 2.058 . S
Co1 O17 2.057 . S
Co1 O32 2.037 . S
Co1 N36 2.145 . S
Co1 N57 2.257 . S
O2 Co0 2.143 . S
O2 Co1 2.160 . S
C3 O4 1.278 . S
C3 O11 1.224 . S
O4 C3 1.278 . S
C5 O6 1.245 . S
C5 O17 1.232 . S
O6 C5 1.245 . S
O7 Co1 2.058 . S
O7 C33 1.269 . S
O8 Co0 2.074 . S
O8 C33 1.257 . S
H9 C34 0.930 . S
H10 C40 0.930 . S
O11 Co0 2.093 . S
O11 C3 1.224 . S
H12 C44 0.929 . S
H13 C46 0.930 . S
H14 C47 0.930 . S
H15 C45 0.929 . S
H16 C48 0.928 . S
O17 Co1 2.057 . S
O17 C5 1.232 . S
H18 C37 0.929 . S
H19 C38 0.929 . S
H20 C50 0.931 . S
H21 C42 0.929 . S
H22 C51 0.930 . S
H23 C43 0.931 . S
O24 Co0 2.097 . S
O24 C52 1.214 . S
H25 C53 0.929 . S
H26 C54 0.929 . S
H27 C55 0.930 . S
H28 C56 0.929 . S
H29 C58 0.930 . S
H30 C35 0.930 . S
H31 C39 0.930 . S
O32 Co1 2.037 . S
O32 C52 1.234 . S
C33 O7 1.269 . S
C33 O8 1.257 . S
C34 H9 0.930 . S
C34 C37 1.388 . S
C34 C39 1.418 . S
C35 H30 0.930 . S
C35 C38 1.404 . S
C35 C39 1.353 . S
N36 Co1 2.145 . S
N36 C37 1.397 . S
N36 C38 1.334 . S
C37 H18 0.929 . S
C37 C34 1.388 . S
C37 N36 1.397 . S
C38 H19 0.929 . S
C38 C35 1.404 . S
C38 N36 1.334 . S
C39 H31 0.930 . S
C39 C34 1.418 . S
C39 C35 1.353 . S
C40 H10 0.930 . S
C40 N41 1.330 . S
C40 C42 1.446 . S
N41 Co0 2.151 . S
N41 C40 1.330 . S
N41 C45 1.418 . S
C42 H21 0.929 . S
C42 C40 1.446 . S
C42 C43 1.332 . S
C43 H23 0.931 . S
C43 C42 1.332 . S
C43 C44 1.267 . S
C44 H12 0.929 . S
C44 C43 1.267 . S
C44 C45 1.251 . S
C45 H15 0.929 . S
C45 N41 1.418 . S
C45 C44 1.251 . S
C46 H13 0.930 . S
C46 C48 1.406 . S
C46 C51 1.261 . S
C47 H14 0.930 . S
C47 N49 1.325 . S
C47 C50 1.357 . S
C48 H16 0.928 . S
C48 C46 1.406 . S
C48 N49 1.261 . S
N49 Co0 2.214 . S
N49 C47 1.325 . S
N49 C48 1.261 . S
C50 H20 0.931 . S
C50 C47 1.357 . S
C50 C51 1.312 . S
C51 H22 0.930 . S
C51 C46 1.261 . S
C51 C50 1.312 . S
C52 O24 1.214 . S
C52 O32 1.234 . S
C53 H25 0.929 . S
C53 C56 1.391 . S
C53 C58 1.391 . S
C54 H26 0.929 . S
C54 C55 1.390 . S
C54 N57 1.391 . S
C55 H27 0.930 . S
C55 C54 1.390 . S
C55 C56 1.392 . S
C56 H28 0.929 . S
C56 C53 1.391 . S
C56 C55 1.392 . S
N57 Co1 2.257 . S
N57 C54 1.391 . S
N57 C58 1.388 . S
C58 H29 0.930 . S
C58 C53 1.391 . S
C58 N57 1.388 . S
Co59 O61 2.143 . S
Co59 O67 2.074 . S
Co59 O70 2.093 . S
Co59 O83 2.097 . S
Co59 N100 2.151 . S
Co59 N108 2.214 . S
Co60 O61 2.160 . S
Co60 O66 2.058 . S
Co60 O76 2.057 . S
Co60 O91 2.037 . S
Co60 N95 2.145 . S
Co60 N116 2.257 1_565 S
O61 Co59 2.143 . S
O61 Co60 2.160 . S
C62 O63 1.278 . S
C62 O70 1.224 . S
O63 C62 1.278 . S
C64 O65 1.245 1_545 S
C64 O76 1.232 1_545 S
O65 C64 1.245 1_565 S
O66 Co60 2.058 . S
O66 C92 1.269 . S
O67 Co59 2.074 . S
O67 C92 1.257 . S
H68 C93 0.930 . S
H69 C99 0.930 . S
O70 Co59 2.093 . S
O70 C62 1.224 . S
H71 C103 0.929 . S
H72 C105 0.930 . S
H73 C106 0.930 . S
H74 C104 0.929 . S
H75 C107 0.928 . S
O76 Co60 2.057 . S
O76 C64 1.232 1_565 S
H77 C96 0.929 . S
H78 C97 0.929 1_545 S
H79 C109 0.931 . S
H80 C101 0.929 . S
H81 C110 0.930 . S
H82 C102 0.931 . S
O83 Co59 2.097 . S
O83 C111 1.214 . S
H84 C112 0.929 . S
H85 C113 0.938 1_655 S
H86 C114 0.930 . S
H87 C115 0.929 . S
H88 C117 0.930 . S
H89 C94 0.930 1_545 S
H90 C98 0.930 . S
O91 Co60 2.037 . S
O91 C111 1.234 . S
C92 O66 1.269 . S
C92 O67 1.257 . S
C93 H68 0.930 . S
C93 C96 1.388 . S
C93 C98 1.418 . S
C94 H89 0.930 1_565 S
C94 C97 1.404 . S
C94 C98 1.353 . S
N95 Co60 2.145 . S
N95 C96 1.397 . S
N95 C97 1.334 . S
C96 H77 0.929 . S
C96 C93 1.388 . S
C96 N95 1.397 . S
C97 H78 0.929 1_565 S
C97 C94 1.404 . S
C97 N95 1.334 . S
C98 H90 0.930 . S
C98 C93 1.418 . S
C98 C94 1.353 . S
C99 H69 0.930 . S
C99 N100 1.330 . S
C99 C101 1.446 . S
N100 Co59 2.151 . S
N100 C99 1.330 . S
N100 C104 1.418 . S
C101 H80 0.929 . S
C101 C99 1.446 . S
C101 C102 1.332 . S
C102 H82 0.931 . S
C102 C101 1.332 . S
C102 C103 1.267 . S
C103 H71 0.929 . S
C103 C102 1.267 . S
C103 C104 1.251 . S
C104 H74 0.929 . S
C104 N100 1.418 . S
C104 C103 1.251 . S
C105 H72 0.930 . S
C105 C107 1.406 . S
C105 C110 1.261 . S
C106 H73 0.930 . S
C106 N108 1.325 . S
C106 C109 1.357 . S
C107 H75 0.928 . S
C107 C105 1.406 . S
C107 N108 1.261 . S
N108 Co59 2.214 . S
N108 C106 1.325 . S
N108 C107 1.261 . S
C109 H79 0.931 . S
C109 C106 1.357 . S
C109 C110 1.312 . S
C110 H81 0.930 . S
C110 C105 1.261 . S
C110 C109 1.312 . S
C111 O83 1.214 . S
C111 O91 1.234 . S
C112 H84 0.929 . S
C112 C115 1.391 1_455 S
C112 C117 1.391 . S
C113 H85 0.938 1_455 S
C113 C114 1.380 1_465 S
C113 N116 1.391 1_565 S
C114 H86 0.930 . S
C114 C113 1.380 1_645 S
C114 C115 1.392 . S
C115 H87 0.929 . S
C115 C112 1.391 1_655 S
C115 C114 1.392 . S
N116 Co60 2.257 1_545 S
N116 C113 1.391 1_545 S
N116 C117 1.388 . S
C117 H88 0.930 . S
C117 C112 1.391 . S
C117 N116 1.388 . S
Co118 O120 2.143 . S
Co118 O126 2.074 . S
Co118 O129 2.093 . S
Co118 O142 2.097 . S
Co118 N159 2.151 . S
Co118 N167 2.214 . S
Co119 O120 2.160 . S
Co119 O125 2.058 . S
Co119 O135 2.057 . S
Co119 O150 2.037 . S
Co119 N154 2.145 . S
Co119 N175 2.257 . S
O120 Co118 2.143 . S
O120 Co119 2.160 . S
C121 O122 1.278 . S
C121 O129 1.224 . S
O122 C121 1.278 . S
C123 O124 1.245 . S
C123 O135 1.232 . S
O124 C123 1.245 . S
O125 Co119 2.058 . S
O125 C151 1.269 . S
O126 Co118 2.074 . S
O126 C151 1.257 . S
H127 C152 0.930 . S
H128 C158 0.930 . S
O129 Co118 2.093 . S
O129 C121 1.224 . S
H130 C162 0.929 . S
H131 C164 0.930 . S
H132 C165 0.930 . S
H133 C163 0.929 . S
H134 C166 0.928 . S
O135 Co119 2.057 . S
O135 C123 1.232 . S
H136 C155 0.929 . S
H137 C156 0.929 . S
H138 C168 0.931 . S
H139 C160 0.929 . S
H140 C169 0.930 . S
H141 C161 0.931 . S
O142 Co118 2.097 . S
O142 C170 1.214 . S
H143 C171 0.929 . S
H144 C172 0.929 . S
H145 C173 0.930 . S
H146 C174 0.929 . S
H147 C176 0.930 . S
H148 C153 0.930 . S
H149 C157 0.930 . S
O150 Co119 2.037 . S
O150 C170 1.234 . S
C151 O125 1.269 . S
C151 O126 1.257 . S
C152 H127 0.930 . S
C152 C155 1.388 . S
C152 C157 1.418 . S
C153 H148 0.930 . S
C153 C156 1.404 . S
C153 C157 1.353 . S
N154 Co119 2.145 . S
N154 C155 1.397 . S
N154 C156 1.334 . S
C155 H136 0.929 . S
C155 C152 1.388 . S
C155 N154 1.397 . S
C156 H137 0.929 . S
C156 C153 1.404 . S
C156 N154 1.334 . S
C157 H149 0.930 . S
C157 C152 1.418 . S
C157 C153 1.353 . S
C158 H128 0.930 . S
C158 N159 1.330 . S
C158 C160 1.446 . S
N159 Co118 2.151 . S
N159 C158 1.330 . S
N159 C163 1.418 . S
C160 H139 0.929 . S
C160 C158 1.446 . S
C160 C161 1.332 . S
C161 H141 0.931 . S
C161 C160 1.332 . S
C161 C162 1.267 . S
C162 H130 0.929 . S
C162 C161 1.267 . S
C162 C163 1.251 . S
C163 H133 0.929 . S
C163 N159 1.418 . S
C163 C162 1.251 . S
C164 H131 0.930 . S
C164 C166 1.406 . S
C164 C169 1.261 . S
C165 H132 0.930 . S
C165 N167 1.325 . S
C165 C168 1.357 . S
C166 H134 0.928 . S
C166 C164 1.406 . S
C166 N167 1.261 . S
N167 Co118 2.214 . S
N167 C165 1.325 . S
N167 C166 1.261 . S
C168 H138 0.931 . S
C168 C165 1.357 . S
C168 C169 1.312 . S
C169 H140 0.930 . S
C169 C164 1.261 . S
C169 C168 1.312 . S
C170 O142 1.214 . S
C170 O150 1.234 . S
C171 H143 0.929 . S
C171 C174 1.391 . S
C171 C176 1.391 . S
C172 H144 0.929 . S
C172 C173 1.390 . S
C172 N175 1.391 . S
C173 H145 0.930 . S
C173 C172 1.390 . S
C173 C174 1.392 . S
C174 H146 0.929 . S
C174 C171 1.391 . S
C174 C173 1.392 . S
N175 Co119 2.257 . S
N175 C172 1.391 . S
N175 C176 1.388 . S
C176 H147 0.930 . S
C176 C171 1.391 . S
C176 N175 1.388 . S
Co177 O179 2.143 . S
Co177 O185 2.074 . S
Co177 O188 2.093 . S
Co177 O201 2.097 . S
Co177 N218 2.151 . S
Co177 N226 2.214 . S
Co178 O179 2.160 . S
Co178 O184 2.058 . S
Co178 O194 2.057 . S
Co178 O209 2.037 . S
Co178 N213 2.145 . S
Co178 N234 2.257 1_545 S
O179 Co177 2.143 . S
O179 Co178 2.160 . S
C180 O181 1.278 . S
C180 O188 1.224 . S
O181 C180 1.278 . S
C182 O183 1.245 1_565 S
C182 O194 1.232 1_565 S
O183 C182 1.245 1_545 S
O184 Co178 2.058 . S
O184 C210 1.269 . S
O185 Co177 2.074 . S
O185 C210 1.257 . S
H186 C211 0.930 . S
H187 C217 0.930 . S
O188 Co177 2.093 . S
O188 C180 1.224 . S
H189 C221 0.929 . S
H190 C223 0.930 . S
H191 C224 0.930 . S
H192 C222 0.929 . S
H193 C225 0.928 . S
O194 Co178 2.057 . S
O194 C182 1.232 1_545 S
H195 C214 0.929 . S
H196 C215 0.929 1_565 S
H197 C227 0.931 . S
H198 C219 0.929 . S
H199 C228 0.930 . S
H200 C220 0.931 . S
O201 Co177 2.097 . S
O201 C229 1.214 . S
H202 C230 0.929 . S
H203 C231 0.939 . S
H204 C232 0.930 . S
H205 C233 0.929 . S
H206 C235 0.930 . S
H207 C212 0.930 1_565 S
H208 C216 0.930 . S
O209 Co178 2.037 . S
O209 C229 1.234 . S
C210 O184 1.269 . S
C210 O185 1.257 . S
C211 H186 0.930 . S
C211 C214 1.388 . S
C211 C216 1.418 . S
C212 H207 0.930 1_545 S
C212 C215 1.404 . S
C212 C216 1.353 . S
N213 Co178 2.145 . S
N213 C214 1.397 . S
N213 C215 1.334 . S
C214 H195 0.929 . S
C214 C211 1.388 . S
C214 N213 1.397 . S
C215 H196 0.929 1_545 S
C215 C212 1.404 . S
C215 N213 1.334 . S
C216 H208 0.930 . S
C216 C211 1.418 . S
C216 C212 1.353 . S
C217 H187 0.930 . S
C217 N218 1.330 . S
C217 C219 1.446 . S
N218 Co177 2.151 . S
N218 C217 1.330 . S
N218 C222 1.418 . S
C219 H198 0.929 . S
C219 C217 1.446 . S
C219 C220 1.332 . S
C220 H200 0.931 . S
C220 C219 1.332 . S
C220 C221 1.267 . S
C221 H189 0.929 . S
C221 C220 1.267 . S
C221 C222 1.251 . S
C222 H192 0.929 . S
C222 N218 1.418 . S
C222 C221 1.251 . S
C223 H190 0.930 . S
C223 C225 1.406 . S
C223 C228 1.261 . S
C224 H191 0.930 . S
C224 N226 1.325 . S
C224 C227 1.357 . S
C225 H193 0.928 . S
C225 C223 1.406 . S
C225 N226 1.261 . S
N226 Co177 2.214 . S
N226 C224 1.325 . S
N226 C225 1.261 . S
C227 H197 0.931 . S
C227 C224 1.357 . S
C227 C228 1.312 . S
C228 H199 0.930 . S
C228 C223 1.261 . S
C228 C227 1.312 . S
C229 O201 1.214 . S
C229 O209 1.234 . S
C230 H202 0.929 . S
C230 C233 1.391 . S
C230 C235 1.391 . S
C231 H203 0.939 . S
C231 C232 1.381 1_545 S
C231 N234 1.391 1_545 S
C232 H204 0.930 . S
C232 C231 1.381 1_565 S
C232 C233 1.392 . S
C233 H205 0.929 . S
C233 C230 1.391 . S
C233 C232 1.392 . S
N234 Co178 2.257 1_565 S
N234 C231 1.391 1_565 S
N234 C235 1.388 . S
C235 H206 0.930 . S
C235 C230 1.391 . S
C235 N234 1.388 . S
Co236 O238 2.143 . S
Co236 O244 2.074 . S
Co236 O247 2.093 . S
Co236 O260 2.097 . S
Co236 N277 2.151 . S
Co236 N285 2.214 . S
Co237 O238 2.160 . S
Co237 O243 2.058 . S
Co237 O253 2.057 . S
Co237 O268 2.037 . S
Co237 N272 2.145 . S
Co237 N293 2.257 . S
O238 Co236 2.143 . S
O238 Co237 2.160 . S
C239 O240 1.278 . S
C239 O247 1.224 . S
O240 C239 1.278 . S
C241 O242 1.245 . S
C241 O253 1.232 . S
O242 C241 1.245 . S
O243 Co237 2.058 . S
O243 C269 1.269 . S
O244 Co236 2.074 . S
O244 C269 1.257 . S
H245 C270 0.930 . S
H246 C276 0.930 . S
O247 Co236 2.093 . S
O247 C239 1.224 . S
H248 C280 0.929 . S
H249 C282 0.930 . S
H250 C283 0.930 . S
H251 C281 0.929 . S
H252 C284 0.928 . S
O253 Co237 2.057 . S
O253 C241 1.232 . S
H254 C273 0.929 . S
H255 C274 0.929 . S
H256 C286 0.931 . S
H257 C278 0.929 . S
H258 C287 0.930 . S
H259 C279 0.931 . S
O260 Co236 2.097 . S
O260 C288 1.214 . S
H261 C289 0.929 . S
H262 C290 0.929 . S
H263 C291 0.930 . S
H264 C292 0.929 . S
H265 C294 0.930 . S
H266 C271 0.930 . S
H267 C275 0.930 . S
O268 Co237 2.037 . S
O268 C288 1.234 . S
C269 O243 1.269 . S
C269 O244 1.257 . S
C270 H245 0.930 . S
C270 C273 1.388 . S
C270 C275 1.418 . S
C271 H266 0.930 . S
C271 C274 1.404 . S
C271 C275 1.353 . S
N272 Co237 2.145 . S
N272 C273 1.397 . S
N272 C274 1.334 . S
C273 H254 0.929 . S
C273 C270 1.388 . S
C273 N272 1.397 . S
C274 H255 0.929 . S
C274 C271 1.404 . S
C274 N272 1.334 . S
C275 H267 0.930 . S
C275 C270 1.418 . S
C275 C271 1.353 . S
C276 H246 0.930 . S
C276 N277 1.330 . S
C276 C278 1.446 . S
N277 Co236 2.151 . S
N277 C276 1.330 . S
N277 C281 1.418 . S
C278 H257 0.929 . S
C278 C276 1.446 . S
C278 C279 1.332 . S
C279 H259 0.931 . S
C279 C278 1.332 . S
C279 C280 1.267 . S
C280 H248 0.929 . S
C280 C279 1.267 . S
C280 C281 1.251 . S
C281 H251 0.929 . S
C281 N277 1.418 . S
C281 C280 1.251 . S
C282 H249 0.930 . S
C282 C284 1.406 . S
C282 C287 1.261 . S
C283 H250 0.930 . S
C283 N285 1.325 . S
C283 C286 1.357 . S
C284 H252 0.928 . S
C284 C282 1.406 . S
C284 N285 1.261 . S
N285 Co236 2.214 . S
N285 C283 1.325 . S
N285 C284 1.261 . S
C286 H256 0.931 . S
C286 C283 1.357 . S
C286 C287 1.312 . S
C287 H258 0.930 . S
C287 C282 1.261 . S
C287 C286 1.312 . S
C288 O260 1.214 . S
C288 O268 1.234 . S
C289 H261 0.929 . S
C289 C292 1.391 . S
C289 C294 1.391 . S
C290 H262 0.929 . S
C290 C291 1.390 . S
C290 N293 1.391 . S
C291 H263 0.930 . S
C291 C290 1.390 . S
C291 C292 1.392 . S
C292 H264 0.929 . S
C292 C289 1.391 . S
C292 C291 1.392 . S
N293 Co237 2.257 . S
N293 C290 1.391 . S
N293 C294 1.388 . S
C294 H265 0.930 . S
C294 C289 1.391 . S
C294 N293 1.388 . S
Co295 O297 2.143 . S
Co295 O303 2.074 . S
Co295 O306 2.093 . S
Co295 O319 2.097 . S
Co295 N336 2.151 . S
Co295 N344 2.214 . S
Co296 O297 2.160 . S
Co296 O302 2.058 . S
Co296 O312 2.057 . S
Co296 O327 2.037 . S
Co296 N331 2.145 . S
Co296 N352 2.257 1_565 S
O297 Co295 2.143 . S
O297 Co296 2.160 . S
C298 O299 1.278 . S
C298 O306 1.224 . S
O299 C298 1.278 . S
C300 O301 1.245 1_545 S
C300 O312 1.232 1_545 S
O301 C300 1.245 1_565 S
O302 Co296 2.058 . S
O302 C328 1.269 . S
O303 Co295 2.074 . S
O303 C328 1.257 . S
H304 C329 0.930 . S
H305 C335 0.930 . S
O306 Co295 2.093 . S
O306 C298 1.224 . S
H307 C339 0.929 . S
H308 C341 0.930 . S
H309 C342 0.930 . S
H310 C340 0.929 . S
H311 C343 0.928 . S
O312 Co296 2.057 . S
O312 C300 1.232 1_565 S
H313 C332 0.929 . S
H314 C333 0.929 1_545 S
H315 C345 0.931 . S
H316 C337 0.929 . S
H317 C346 0.930 . S
H318 C338 0.931 . S
O319 Co295 2.097 . S
O319 C347 1.214 . S
H320 C348 0.929 . S
H321 C349 0.939 . S
H322 C350 0.930 . S
H323 C351 0.929 . S
H324 C353 0.930 . S
H325 C330 0.930 1_545 S
H326 C334 0.930 . S
O327 Co296 2.037 . S
O327 C347 1.234 . S
C328 O302 1.269 . S
C328 O303 1.257 . S
C329 H304 0.930 . S
C329 C332 1.388 . S
C329 C334 1.418 . S
C330 H325 0.930 1_565 S
C330 C333 1.404 . S
C330 C334 1.353 . S
N331 Co296 2.145 . S
N331 C332 1.397 . S
N331 C333 1.334 . S
C332 H313 0.929 . S
C332 C329 1.388 . S
C332 N331 1.397 . S
C333 H314 0.929 1_565 S
C333 C330 1.404 . S
C333 N331 1.334 . S
C334 H326 0.930 . S
C334 C329 1.418 . S
C334 C330 1.353 . S
C335 H305 0.930 . S
C335 N336 1.330 . S
C335 C337 1.446 . S
N336 Co295 2.151 . S
N336 C335 1.330 . S
N336 C340 1.418 . S
C337 H316 0.929 . S
C337 C335 1.446 . S
C337 C338 1.332 . S
C338 H318 0.931 . S
C338 C337 1.332 . S
C338 C339 1.267 . S
C339 H307 0.929 . S
C339 C338 1.267 . S
C339 C340 1.251 . S
C340 H310 0.929 . S
C340 N336 1.418 . S
C340 C339 1.251 . S
C341 H308 0.930 . S
C341 C343 1.406 . S
C341 C346 1.261 . S
C342 H309 0.930 . S
C342 N344 1.325 . S
C342 C345 1.357 . S
C343 H311 0.928 . S
C343 C341 1.406 . S
C343 N344 1.261 . S
N344 Co295 2.214 . S
N344 C342 1.325 . S
N344 C343 1.261 . S
C345 H315 0.931 . S
C345 C342 1.357 . S
C345 C346 1.312 . S
C346 H317 0.930 . S
C346 C341 1.261 . S
C346 C345 1.312 . S
C347 O319 1.214 . S
C347 O327 1.234 . S
C348 H320 0.929 . S
C348 C351 1.391 . S
C348 C353 1.391 . S
C349 H321 0.939 . S
C349 C350 1.381 1_565 S
C349 N352 1.391 1_565 S
C350 H322 0.930 . S
C350 C349 1.381 1_545 S
C350 C351 1.392 . S
C351 H323 0.929 . S
C351 C348 1.391 . S
C351 C350 1.392 . S
N352 Co296 2.257 1_545 S
N352 C349 1.391 1_545 S
N352 C353 1.388 . S
C353 H324 0.930 . S
C353 C348 1.391 . S
C353 N352 1.388 . S
Co354 O356 2.143 . S
Co354 O362 2.074 . S
Co354 O365 2.093 . S
Co354 O378 2.097 . S
Co354 N395 2.151 . S
Co354 N403 2.214 . S
Co355 O356 2.160 . S
Co355 O361 2.058 . S
Co355 O371 2.057 . S
Co355 O386 2.037 . S
Co355 N390 2.145 . S
Co355 N411 2.257 . S
O356 Co354 2.143 . S
O356 Co355 2.160 . S
C357 O358 1.278 . S
C357 O365 1.224 . S
O358 C357 1.278 . S
C359 O360 1.245 . S
C359 O371 1.232 . S
O360 C359 1.245 . S
O361 Co355 2.058 . S
O361 C387 1.269 . S
O362 Co354 2.074 . S
O362 C387 1.257 . S
H363 C388 0.930 . S
H364 C394 0.930 . S
O365 Co354 2.093 . S
O365 C357 1.224 . S
H366 C398 0.929 . S
H367 C400 0.930 . S
H368 C401 0.930 . S
H369 C399 0.929 . S
H370 C402 0.928 . S
O371 Co355 2.057 . S
O371 C359 1.232 . S
H372 C391 0.929 . S
H373 C392 0.929 . S
H374 C404 0.931 . S
H375 C396 0.929 . S
H376 C405 0.930 . S
H377 C397 0.931 . S
O378 Co354 2.097 . S
O378 C406 1.214 . S
H379 C407 0.929 . S
H380 C408 0.929 . S
H381 C409 0.930 . S
H382 C410 0.929 . S
H383 C412 0.930 . S
H384 C389 0.930 . S
H385 C393 0.930 . S
O386 Co355 2.037 . S
O386 C406 1.234 . S
C387 O361 1.269 . S
C387 O362 1.257 . S
C388 H363 0.930 . S
C388 C391 1.388 . S
C388 C393 1.418 . S
C389 H384 0.930 . S
C389 C392 1.404 . S
C389 C393 1.353 . S
N390 Co355 2.145 . S
N390 C391 1.397 . S
N390 C392 1.334 . S
C391 H372 0.929 . S
C391 C388 1.388 . S
C391 N390 1.397 . S
C392 H373 0.929 . S
C392 C389 1.404 . S
C392 N390 1.334 . S
C393 H385 0.930 . S
C393 C388 1.418 . S
C393 C389 1.353 . S
C394 H364 0.930 . S
C394 N395 1.330 . S
C394 C396 1.446 . S
N395 Co354 2.151 . S
N395 C394 1.330 . S
N395 C399 1.418 . S
C396 H375 0.929 . S
C396 C394 1.446 . S
C396 C397 1.332 . S
C397 H377 0.931 . S
C397 C396 1.332 . S
C397 C398 1.267 . S
C398 H366 0.929 . S
C398 C397 1.267 . S
C398 C399 1.251 . S
C399 H369 0.929 . S
C399 N395 1.418 . S
C399 C398 1.251 . S
C400 H367 0.930 . S
C400 C402 1.406 . S
C400 C405 1.261 . S
C401 H368 0.930 . S
C401 N403 1.325 . S
C401 C404 1.357 . S
C402 H370 0.928 . S
C402 C400 1.406 . S
C402 N403 1.261 . S
N403 Co354 2.214 . S
N403 C401 1.325 . S
N403 C402 1.261 . S
C404 H374 0.931 . S
C404 C401 1.357 . S
C404 C405 1.312 . S
C405 H376 0.930 . S
C405 C400 1.261 . S
C405 C404 1.312 . S
C406 O378 1.214 . S
C406 O386 1.234 . S
C407 H379 0.929 . S
C407 C410 1.391 . S
C407 C412 1.391 . S
C408 H380 0.929 . S
C408 C409 1.390 . S
C408 N411 1.391 . S
C409 H381 0.930 . S
C409 C408 1.390 . S
C409 C410 1.392 . S
C410 H382 0.929 . S
C410 C407 1.391 . S
C410 C409 1.392 . S
N411 Co355 2.257 . S
N411 C408 1.391 . S
N411 C412 1.388 . S
C412 H383 0.930 . S
C412 C407 1.391 . S
C412 N411 1.388 . S
Co413 O415 2.143 . S
Co413 O421 2.074 . S
Co413 O424 2.093 . S
Co413 O437 2.097 . S
Co413 N454 2.151 . S
Co413 N462 2.214 . S
Co414 O415 2.160 . S
Co414 O420 2.058 . S
Co414 O430 2.057 . S
Co414 O445 2.037 . S
Co414 N449 2.145 . S
Co414 N470 2.257 1_545 S
O415 Co413 2.143 . S
O415 Co414 2.160 . S
C416 O417 1.278 . S
C416 O424 1.224 . S
O417 C416 1.278 . S
C418 O419 1.245 1_565 S
C418 O430 1.232 1_565 S
O419 C418 1.245 1_545 S
O420 Co414 2.058 . S
O420 C446 1.269 . S
O421 Co413 2.074 . S
O421 C446 1.257 . S
H422 C447 0.930 . S
H423 C453 0.930 . S
O424 Co413 2.093 . S
O424 C416 1.224 . S
H425 C457 0.929 . S
H426 C459 0.930 . S
H427 C460 0.930 . S
H428 C458 0.929 . S
H429 C461 0.928 . S
O430 Co414 2.057 . S
O430 C418 1.232 1_545 S
H431 C450 0.929 . S
H432 C451 0.929 1_565 S
H433 C463 0.931 . S
H434 C455 0.929 . S
H435 C464 0.930 . S
H436 C456 0.931 . S
O437 Co413 2.097 . S
O437 C465 1.214 . S
H438 C466 0.929 . S
H439 C467 0.938 1_655 S
H440 C468 0.930 . S
H441 C469 0.929 . S
H442 C471 0.930 . S
H443 C448 0.930 1_565 S
H444 C452 0.930 . S
O445 Co414 2.037 . S
O445 C465 1.234 . S
C446 O420 1.269 . S
C446 O421 1.257 . S
C447 H422 0.930 . S
C447 C450 1.388 . S
C447 C452 1.418 . S
C448 H443 0.930 1_545 S
C448 C451 1.404 . S
C448 C452 1.353 . S
N449 Co414 2.145 . S
N449 C450 1.397 . S
N449 C451 1.334 . S
C450 H431 0.929 . S
C450 C447 1.388 . S
C450 N449 1.397 . S
C451 H432 0.929 1_545 S
C451 C448 1.404 . S
C451 N449 1.334 . S
C452 H444 0.930 . S
C452 C447 1.418 . S
C452 C448 1.353 . S
C453 H423 0.930 . S
C453 N454 1.330 . S
C453 C455 1.446 . S
N454 Co413 2.151 . S
N454 C453 1.330 . S
N454 C458 1.418 . S
C455 H434 0.929 . S
C455 C453 1.446 . S
C455 C456 1.332 . S
C456 H436 0.931 . S
C456 C455 1.332 . S
C456 C457 1.267 . S
C457 H425 0.929 . S
C457 C456 1.267 . S
C457 C458 1.251 . S
C458 H428 0.929 . S
C458 N454 1.418 . S
C458 C457 1.251 . S
C459 H426 0.930 . S
C459 C461 1.406 . S
C459 C464 1.261 . S
C460 H427 0.930 . S
C460 N462 1.325 . S
C460 C463 1.357 . S
C461 H429 0.928 . S
C461 C459 1.406 . S
C461 N462 1.261 . S
N462 Co413 2.214 . S
N462 C460 1.325 . S
N462 C461 1.261 . S
C463 H433 0.931 . S
C463 C460 1.357 . S
C463 C464 1.312 . S
C464 H435 0.930 . S
C464 C459 1.261 . S
C464 C463 1.312 . S
C465 O437 1.214 . S
C465 O445 1.234 . S
C466 H438 0.929 . S
C466 C469 1.391 1_455 S
C466 C471 1.391 . S
C467 H439 0.938 1_455 S
C467 C468 1.380 1_445 S
C467 N470 1.391 1_545 S
C468 H440 0.930 . S
C468 C467 1.380 1_665 S
C468 C469 1.392 . S
C469 H441 0.929 . S
C469 C466 1.391 1_655 S
C469 C468 1.392 . S
N470 Co414 2.257 1_565 S
N470 C467 1.391 1_565 S
N470 C471 1.388 . S
C471 H442 0.930 . S
C471 C466 1.391 . S
C471 N470 1.388 . S
Co472 O474 2.143 . S
Co472 O480 2.074 . S
Co472 O483 2.093 . S
Co472 O496 2.097 . S
Co472 N513 2.151 . S
Co472 N521 2.214 . S
Co473 O474 2.160 . S
Co473 O479 2.058 . S
Co473 O489 2.057 . S
Co473 O504 2.037 . S
Co473 N508 2.145 . S
Co473 N529 2.257 . S
O474 Co472 2.143 . S
O474 Co473 2.160 . S
C475 O476 1.278 . S
C475 O483 1.224 . S
O476 C475 1.278 . S
C477 O478 1.245 . S
C477 O489 1.232 . S
O478 C477 1.245 . S
O479 Co473 2.058 . S
O479 C505 1.269 . S
O480 Co472 2.074 . S
O480 C505 1.257 . S
H481 C506 0.930 . S
H482 C512 0.930 . S
O483 Co472 2.093 . S
O483 C475 1.224 . S
H484 C516 0.929 . S
H485 C518 0.930 . S
H486 C519 0.930 . S
H487 C517 0.929 . S
H488 C520 0.928 . S
O489 Co473 2.057 . S
O489 C477 1.232 . S
H490 C509 0.929 . S
H491 C510 0.929 . S
H492 C522 0.931 . S
H493 C514 0.929 . S
H494 C523 0.930 . S
H495 C515 0.931 . S
O496 Co472 2.097 . S
O496 C524 1.214 . S
H497 C525 0.929 . S
H498 C526 0.929 . S
H499 C527 0.930 . S
H500 C528 0.929 . S
H501 C530 0.930 . S
H502 C507 0.930 . S
H503 C511 0.930 . S
O504 Co473 2.037 . S
O504 C524 1.234 . S
C505 O479 1.269 . S
C505 O480 1.257 . S
C506 H481 0.930 . S
C506 C509 1.388 . S
C506 C511 1.418 . S
C507 H502 0.930 . S
C507 C510 1.404 . S
C507 C511 1.353 . S
N508 Co473 2.145 . S
N508 C509 1.397 . S
N508 C510 1.334 . S
C509 H490 0.929 . S
C509 C506 1.388 . S
C509 N508 1.397 . S
C510 H491 0.929 . S
C510 C507 1.404 . S
C510 N508 1.334 . S
C511 H503 0.930 . S
C511 C506 1.418 . S
C511 C507 1.353 . S
C512 H482 0.930 . S
C512 N513 1.330 . S
C512 C514 1.446 . S
N513 Co472 2.151 . S
N513 C512 1.330 . S
N513 C517 1.418 . S
C514 H493 0.929 . S
C514 C512 1.446 . S
C514 C515 1.332 . S
C515 H495 0.931 . S
C515 C514 1.332 . S
C515 C516 1.267 . S
C516 H484 0.929 . S
C516 C515 1.267 . S
C516 C517 1.251 . S
C517 H487 0.929 . S
C517 N513 1.418 . S
C517 C516 1.251 . S
C518 H485 0.930 . S
C518 C520 1.406 . S
C518 C523 1.261 . S
C519 H486 0.930 . S
C519 N521 1.325 . S
C519 C522 1.357 . S
C520 H488 0.928 . S
C520 C518 1.406 . S
C520 N521 1.261 . S
N521 Co472 2.214 . S
N521 C519 1.325 . S
N521 C520 1.261 . S
C522 H492 0.931 . S
C522 C519 1.357 . S
C522 C523 1.312 . S
C523 H494 0.930 . S
C523 C518 1.261 . S
C523 C522 1.312 . S
C524 O496 1.214 . S
C524 O504 1.234 . S
C525 H497 0.929 . S
C525 C528 1.391 . S
C525 C530 1.391 . S
C526 H498 0.929 . S
C526 C527 1.390 . S
C526 N529 1.391 . S
C527 H499 0.930 . S
C527 C526 1.390 . S
C527 C528 1.392 . S
C528 H500 0.929 . S
C528 C525 1.391 . S
C528 C527 1.392 . S
N529 Co473 2.257 . S
N529 C526 1.391 . S
N529 C530 1.388 . S
C530 H501 0.930 . S
C530 C525 1.391 . S
C530 N529 1.388 . S
Co531 O533 2.143 . S
Co531 O539 2.074 . S
Co531 O542 2.093 . S
Co531 O555 2.097 . S
Co531 N572 2.151 . S
Co531 N580 2.214 . S
Co532 O533 2.160 . S
Co532 O538 2.058 . S
Co532 O548 2.057 . S
Co532 O563 2.037 . S
Co532 N567 2.145 . S
Co532 N588 2.257 1_545 S
O533 Co531 2.143 . S
O533 Co532 2.160 . S
C534 O535 1.278 . S
C534 O542 1.224 . S
O535 C534 1.278 . S
C536 O537 1.245 1_565 S
C536 O548 1.232 1_565 S
O537 C536 1.245 1_545 S
O538 Co532 2.058 . S
O538 C564 1.269 . S
O539 Co531 2.074 . S
O539 C564 1.257 . S
H540 C565 0.930 . S
H541 C571 0.930 . S
O542 Co531 2.093 . S
O542 C534 1.224 . S
H543 C575 0.929 . S
H544 C577 0.930 . S
H545 C578 0.930 . S
H546 C576 0.929 . S
H547 C579 0.928 . S
O548 Co532 2.057 . S
O548 C536 1.232 1_545 S
H549 C568 0.929 . S
H550 C569 0.929 1_565 S
H551 C581 0.931 . S
H552 C573 0.929 . S
H553 C582 0.930 . S
H554 C574 0.931 . S
O555 Co531 2.097 . S
O555 C583 1.214 . S
H556 C584 0.929 . S
H557 C585 0.938 1_455 S
H558 C586 0.930 . S
H559 C587 0.929 . S
H560 C589 0.930 . S
H561 C566 0.930 1_565 S
H562 C570 0.930 . S
O563 Co532 2.037 . S
O563 C583 1.234 . S
C564 O538 1.269 . S
C564 O539 1.257 . S
C565 H540 0.930 . S
C565 C568 1.388 . S
C565 C570 1.418 . S
C566 H561 0.930 1_545 S
C566 C569 1.404 . S
C566 C570 1.353 . S
N567 Co532 2.145 . S
N567 C568 1.397 . S
N567 C569 1.334 . S
C568 H549 0.929 . S
C568 C565 1.388 . S
C568 N567 1.397 . S
C569 H550 0.929 1_545 S
C569 C566 1.404 . S
C569 N567 1.334 . S
C570 H562 0.930 . S
C570 C565 1.418 . S
C570 C566 1.353 . S
C571 H541 0.930 . S
C571 N572 1.330 . S
C571 C573 1.446 . S
N572 Co531 2.151 . S
N572 C571 1.330 . S
N572 C576 1.418 . S
C573 H552 0.929 . S
C573 C571 1.446 . S
C573 C574 1.332 . S
C574 H554 0.931 . S
C574 C573 1.332 . S
C574 C575 1.267 . S
C575 H543 0.929 . S
C575 C574 1.267 . S
C575 C576 1.251 . S
C576 H546 0.929 . S
C576 N572 1.418 . S
C576 C575 1.251 . S
C577 H544 0.930 . S
C577 C579 1.406 . S
C577 C582 1.261 . S
C578 H545 0.930 . S
C578 N580 1.325 . S
C578 C581 1.357 . S
C579 H547 0.928 . S
C579 C577 1.406 . S
C579 N580 1.261 . S
N580 Co531 2.214 . S
N580 C578 1.325 . S
N580 C579 1.261 . S
C581 H551 0.931 . S
C581 C578 1.357 . S
C581 C582 1.312 . S
C582 H553 0.930 . S
C582 C577 1.261 . S
C582 C581 1.312 . S
C583 O555 1.214 . S
C583 O563 1.234 . S
C584 H556 0.929 . S
C584 C587 1.391 1_655 S
C584 C589 1.391 . S
C585 H557 0.938 1_655 S
C585 C586 1.380 1_645 S
C585 N588 1.391 1_545 S
C586 H558 0.930 . S
C586 C585 1.380 1_465 S
C586 C587 1.392 . S
C587 H559 0.929 . S
C587 C584 1.391 1_455 S
C587 C586 1.392 . S
N588 Co532 2.257 1_565 S
N588 C585 1.391 1_565 S
N588 C589 1.388 . S
C589 H560 0.930 . S
C589 C584 1.391 . S
C589 N588 1.388 . S
Co590 O592 2.143 . S
Co590 O598 2.074 . S
Co590 O601 2.093 . S
Co590 O614 2.097 . S
Co590 N631 2.151 . S
Co590 N639 2.214 . S
Co591 O592 2.160 . S
Co591 O597 2.058 . S
Co591 O607 2.057 . S
Co591 O622 2.037 . S
Co591 N626 2.145 . S
Co591 N647 2.257 . S
O592 Co590 2.143 . S
O592 Co591 2.160 . S
C593 O594 1.278 . S
C593 O601 1.224 . S
O594 C593 1.278 . S
C595 O596 1.245 . S
C595 O607 1.232 . S
O596 C595 1.245 . S
O597 Co591 2.058 . S
O597 C623 1.269 . S
O598 Co590 2.074 . S
O598 C623 1.257 . S
H599 C624 0.930 . S
H600 C630 0.930 . S
O601 Co590 2.093 . S
O601 C593 1.224 . S
H602 C634 0.929 . S
H603 C636 0.930 . S
H604 C637 0.930 . S
H605 C635 0.929 . S
H606 C638 0.928 . S
O607 Co591 2.057 . S
O607 C595 1.232 . S
H608 C627 0.929 . S
H609 C628 0.929 . S
H610 C640 0.931 . S
H611 C632 0.929 . S
H612 C641 0.930 . S
H613 C633 0.931 . S
O614 Co590 2.097 . S
O614 C642 1.214 . S
H615 C643 0.929 . S
H616 C644 0.929 . S
H617 C645 0.930 . S
H618 C646 0.929 . S
H619 C648 0.930 . S
H620 C625 0.930 . S
H621 C629 0.930 . S
O622 Co591 2.037 . S
O622 C642 1.234 . S
C623 O597 1.269 . S
C623 O598 1.257 . S
C624 H599 0.930 . S
C624 C627 1.388 . S
C624 C629 1.418 . S
C625 H620 0.930 . S
C625 C628 1.404 . S
C625 C629 1.353 . S
N626 Co591 2.145 . S
N626 C627 1.397 . S
N626 C628 1.334 . S
C627 H608 0.929 . S
C627 C624 1.388 . S
C627 N626 1.397 . S
C628 H609 0.929 . S
C628 C625 1.404 . S
C628 N626 1.334 . S
C629 H621 0.930 . S
C629 C624 1.418 . S
C629 C625 1.353 . S
C630 H600 0.930 . S
C630 N631 1.330 . S
C630 C632 1.446 . S
N631 Co590 2.151 . S
N631 C630 1.330 . S
N631 C635 1.418 . S
C632 H611 0.929 . S
C632 C630 1.446 . S
C632 C633 1.332 . S
C633 H613 0.931 . S
C633 C632 1.332 . S
C633 C634 1.267 . S
C634 H602 0.929 . S
C634 C633 1.267 . S
C634 C635 1.251 . S
C635 H605 0.929 . S
C635 N631 1.418 . S
C635 C634 1.251 . S
C636 H603 0.930 . S
C636 C638 1.406 . S
C636 C641 1.261 . S
C637 H604 0.930 . S
C637 N639 1.325 . S
C637 C640 1.357 . S
C638 H606 0.928 . S
C638 C636 1.406 . S
C638 N639 1.261 . S
N639 Co590 2.214 . S
N639 C637 1.325 . S
N639 C638 1.261 . S
C640 H610 0.931 . S
C640 C637 1.357 . S
C640 C641 1.312 . S
C641 H612 0.930 . S
C641 C636 1.261 . S
C641 C640 1.312 . S
C642 O614 1.214 . S
C642 O622 1.234 . S
C643 H615 0.929 . S
C643 C646 1.391 . S
C643 C648 1.391 . S
C644 H616 0.929 . S
C644 C645 1.390 . S
C644 N647 1.391 . S
C645 H617 0.930 . S
C645 C644 1.390 . S
C645 C646 1.392 . S
C646 H618 0.929 . S
C646 C643 1.391 . S
C646 C645 1.392 . S
N647 Co591 2.257 . S
N647 C644 1.391 . S
N647 C648 1.388 . S
C648 H619 0.930 . S
C648 C643 1.391 . S
C648 N647 1.388 . S
Co649 O651 2.143 . S
Co649 O657 2.074 . S
Co649 O660 2.093 . S
Co649 O673 2.097 . S
Co649 N690 2.151 . S
Co649 N698 2.214 . S
Co650 O651 2.160 . S
Co650 O656 2.058 . S
Co650 O666 2.057 . S
Co650 O681 2.037 . S
Co650 N685 2.145 . S
Co650 N706 2.257 1_565 S
O651 Co649 2.143 . S
O651 Co650 2.160 . S
C652 O653 1.278 . S
C652 O660 1.224 . S
O653 C652 1.278 . S
C654 O655 1.245 1_545 S
C654 O666 1.232 1_545 S
O655 C654 1.245 1_565 S
O656 Co650 2.058 . S
O656 C682 1.269 . S
O657 Co649 2.074 . S
O657 C682 1.257 . S
H658 C683 0.930 . S
H659 C689 0.930 . S
O660 Co649 2.093 . S
O660 C652 1.224 . S
H661 C693 0.929 . S
H662 C695 0.930 . S
H663 C696 0.930 . S
H664 C694 0.929 . S
H665 C697 0.928 . S
O666 Co650 2.057 . S
O666 C654 1.232 1_565 S
H667 C686 0.929 . S
H668 C687 0.929 1_545 S
H669 C699 0.931 . S
H670 C691 0.929 . S
H671 C700 0.930 . S
H672 C692 0.931 . S
O673 Co649 2.097 . S
O673 C701 1.214 . S
H674 C702 0.929 . S
H675 C703 0.939 . S
H676 C704 0.930 . S
H677 C705 0.929 . S
H678 C707 0.930 . S
H679 C684 0.930 1_545 S
H680 C688 0.930 . S
O681 Co650 2.037 . S
O681 C701 1.234 . S
C682 O656 1.269 . S
C682 O657 1.257 . S
C683 H658 0.930 . S
C683 C686 1.388 . S
C683 C688 1.418 . S
C684 H679 0.930 1_565 S
C684 C687 1.404 . S
C684 C688 1.353 . S
N685 Co650 2.145 . S
N685 C686 1.397 . S
N685 C687 1.334 . S
C686 H667 0.929 . S
C686 C683 1.388 . S
C686 N685 1.397 . S
C687 H668 0.929 1_565 S
C687 C684 1.404 . S
C687 N685 1.334 . S
C688 H680 0.930 . S
C688 C683 1.418 . S
C688 C684 1.353 . S
C689 H659 0.930 . S
C689 N690 1.330 . S
C689 C691 1.446 . S
N690 Co649 2.151 . S
N690 C689 1.330 . S
N690 C694 1.418 . S
C691 H670 0.929 . S
C691 C689 1.446 . S
C691 C692 1.332 . S
C692 H672 0.931 . S
C692 C691 1.332 . S
C692 C693 1.267 . S
C693 H661 0.929 . S
C693 C692 1.267 . S
C693 C694 1.251 . S
C694 H664 0.929 . S
C694 N690 1.418 . S
C694 C693 1.251 . S
C695 H662 0.930 . S
C695 C697 1.406 . S
C695 C700 1.261 . S
C696 H663 0.930 . S
C696 N698 1.325 . S
C696 C699 1.357 . S
C697 H665 0.928 . S
C697 C695 1.406 . S
C697 N698 1.261 . S
N698 Co649 2.214 . S
N698 C696 1.325 . S
N698 C697 1.261 . S
C699 H669 0.931 . S
C699 C696 1.357 . S
C699 C700 1.312 . S
C700 H671 0.930 . S
C700 C695 1.261 . S
C700 C699 1.312 . S
C701 O673 1.214 . S
C701 O681 1.234 . S
C702 H674 0.929 . S
C702 C705 1.391 . S
C702 C707 1.391 . S
C703 H675 0.939 . S
C703 C704 1.381 1_565 S
C703 N706 1.391 1_565 S
C704 H676 0.930 . S
C704 C703 1.381 1_545 S
C704 C705 1.392 . S
C705 H677 0.929 . S
C705 C702 1.391 . S
C705 C704 1.392 . S
N706 Co650 2.257 1_545 S
N706 C703 1.391 1_545 S
N706 C707 1.388 . S
C707 H678 0.930 . S
C707 C702 1.391 . S
C707 N706 1.388 . S
Co708 O710 2.143 . S
Co708 O716 2.074 . S
Co708 O719 2.093 . S
Co708 O732 2.097 . S
Co708 N749 2.151 . S
Co708 N757 2.214 . S
Co709 O710 2.160 . S
Co709 O715 2.058 . S
Co709 O725 2.057 . S
Co709 O740 2.037 . S
Co709 N744 2.145 . S
Co709 N765 2.257 . S
O710 Co708 2.143 . S
O710 Co709 2.160 . S
C711 O712 1.278 . S
C711 O719 1.224 . S
O712 C711 1.278 . S
C713 O714 1.245 . S
C713 O725 1.232 . S
O714 C713 1.245 . S
O715 Co709 2.058 . S
O715 C741 1.269 . S
O716 Co708 2.074 . S
O716 C741 1.257 . S
H717 C742 0.930 . S
H718 C748 0.930 . S
O719 Co708 2.093 . S
O719 C711 1.224 . S
H720 C752 0.929 . S
H721 C754 0.930 . S
H722 C755 0.930 . S
H723 C753 0.929 . S
H724 C756 0.928 . S
O725 Co709 2.057 . S
O725 C713 1.232 . S
H726 C745 0.929 . S
H727 C746 0.929 . S
H728 C758 0.931 . S
H729 C750 0.929 . S
H730 C759 0.930 . S
H731 C751 0.931 . S
O732 Co708 2.097 . S
O732 C760 1.214 . S
H733 C761 0.929 . S
H734 C762 0.929 . S
H735 C763 0.930 . S
H736 C764 0.929 . S
H737 C766 0.930 . S
H738 C743 0.930 . S
H739 C747 0.930 . S
O740 Co709 2.037 . S
O740 C760 1.234 . S
C741 O715 1.269 . S
C741 O716 1.257 . S
C742 H717 0.930 . S
C742 C745 1.388 . S
C742 C747 1.418 . S
C743 H738 0.930 . S
C743 C746 1.404 . S
C743 C747 1.353 . S
N744 Co709 2.145 . S
N744 C745 1.397 . S
N744 C746 1.334 . S
C745 H726 0.929 . S
C745 C742 1.388 . S
C745 N744 1.397 . S
C746 H727 0.929 . S
C746 C743 1.404 . S
C746 N744 1.334 . S
C747 H739 0.930 . S
C747 C742 1.418 . S
C747 C743 1.353 . S
C748 H718 0.930 . S
C748 N749 1.330 . S
C748 C750 1.446 . S
N749 Co708 2.151 . S
N749 C748 1.330 . S
N749 C753 1.418 . S
C750 H729 0.929 . S
C750 C748 1.446 . S
C750 C751 1.332 . S
C751 H731 0.931 . S
C751 C750 1.332 . S
C751 C752 1.267 . S
C752 H720 0.929 . S
C752 C751 1.267 . S
C752 C753 1.251 . S
C753 H723 0.929 . S
C753 N749 1.418 . S
C753 C752 1.251 . S
C754 H721 0.930 . S
C754 C756 1.406 . S
C754 C759 1.261 . S
C755 H722 0.930 . S
C755 N757 1.325 . S
C755 C758 1.357 . S
C756 H724 0.928 . S
C756 C754 1.406 . S
C756 N757 1.261 . S
N757 Co708 2.214 . S
N757 C755 1.325 . S
N757 C756 1.261 . S
C758 H728 0.931 . S
C758 C755 1.357 . S
C758 C759 1.312 . S
C759 H730 0.930 . S
C759 C754 1.261 . S
C759 C758 1.312 . S
C760 O732 1.214 . S
C760 O740 1.234 . S
C761 H733 0.929 . S
C761 C764 1.391 . S
C761 C766 1.391 . S
C762 H734 0.929 . S
C762 C763 1.390 . S
C762 N765 1.391 . S
C763 H735 0.930 . S
C763 C762 1.390 . S
C763 C764 1.392 . S
C764 H736 0.929 . S
C764 C761 1.391 . S
C764 C763 1.392 . S
N765 Co709 2.257 . S
N765 C762 1.391 . S
N765 C766 1.388 . S
C766 H737 0.930 . S
C766 C761 1.391 . S
C766 N765 1.388 . S
Co767 O769 2.143 . S
Co767 O775 2.074 . S
Co767 O778 2.093 . S
Co767 O791 2.097 . S
Co767 N808 2.151 . S
Co767 N816 2.214 . S
Co768 O769 2.160 . S
Co768 O774 2.058 . S
Co768 O784 2.057 . S
Co768 O799 2.037 . S
Co768 N803 2.145 . S
Co768 N824 2.257 1_545 S
O769 Co767 2.143 . S
O769 Co768 2.160 . S
C770 O771 1.278 . S
C770 O778 1.224 . S
O771 C770 1.278 . S
C772 O773 1.245 1_565 S
C772 O784 1.232 1_565 S
O773 C772 1.245 1_545 S
O774 Co768 2.058 . S
O774 C800 1.269 . S
O775 Co767 2.074 . S
O775 C800 1.257 . S
H776 C801 0.930 . S
H777 C807 0.930 . S
O778 Co767 2.093 . S
O778 C770 1.224 . S
H779 C811 0.929 . S
H780 C813 0.930 . S
H781 C814 0.930 . S
H782 C812 0.929 . S
H783 C815 0.928 . S
O784 Co768 2.057 . S
O784 C772 1.232 1_545 S
H785 C804 0.929 . S
H786 C805 0.929 1_565 S
H787 C817 0.931 . S
H788 C809 0.929 . S
H789 C818 0.930 . S
H790 C810 0.931 . S
O791 Co767 2.097 . S
O791 C819 1.214 . S
H792 C820 0.929 . S
H793 C821 0.939 . S
H794 C822 0.930 . S
H795 C823 0.929 . S
H796 C825 0.930 . S
H797 C802 0.930 1_565 S
H798 C806 0.930 . S
O799 Co768 2.037 . S
O799 C819 1.234 . S
C800 O774 1.269 . S
C800 O775 1.257 . S
C801 H776 0.930 . S
C801 C804 1.388 . S
C801 C806 1.418 . S
C802 H797 0.930 1_545 S
C802 C805 1.404 . S
C802 C806 1.353 . S
N803 Co768 2.145 . S
N803 C804 1.397 . S
N803 C805 1.334 . S
C804 H785 0.929 . S
C804 C801 1.388 . S
C804 N803 1.397 . S
C805 H786 0.929 1_545 S
C805 C802 1.404 . S
C805 N803 1.334 . S
C806 H798 0.930 . S
C806 C801 1.418 . S
C806 C802 1.353 . S
C807 H777 0.930 . S
C807 N808 1.330 . S
C807 C809 1.446 . S
N808 Co767 2.151 . S
N808 C807 1.330 . S
N808 C812 1.418 . S
C809 H788 0.929 . S
C809 C807 1.446 . S
C809 C810 1.332 . S
C810 H790 0.931 . S
C810 C809 1.332 . S
C810 C811 1.267 . S
C811 H779 0.929 . S
C811 C810 1.267 . S
C811 C812 1.251 . S
C812 H782 0.929 . S
C812 N808 1.418 . S
C812 C811 1.251 . S
C813 H780 0.930 . S
C813 C815 1.406 . S
C813 C818 1.261 . S
C814 H781 0.930 . S
C814 N816 1.325 . S
C814 C817 1.357 . S
C815 H783 0.928 . S
C815 C813 1.406 . S
C815 N816 1.261 . S
N816 Co767 2.214 . S
N816 C814 1.325 . S
N816 C815 1.261 . S
C817 H787 0.931 . S
C817 C814 1.357 . S
C817 C818 1.312 . S
C818 H789 0.930 . S
C818 C813 1.261 . S
C818 C817 1.312 . S
C819 O791 1.214 . S
C819 O799 1.234 . S
C820 H792 0.929 . S
C820 C823 1.391 . S
C820 C825 1.391 . S
C821 H793 0.939 . S
C821 C822 1.381 1_545 S
C821 N824 1.391 1_545 S
C822 H794 0.930 . S
C822 C821 1.381 1_565 S
C822 C823 1.392 . S
C823 H795 0.929 . S
C823 C820 1.391 . S
C823 C822 1.392 . S
N824 Co768 2.257 1_565 S
N824 C821 1.391 1_565 S
N824 C825 1.388 . S
C825 H796 0.930 . S
C825 C820 1.391 . S
C825 N824 1.388 . S
Co826 O828 2.143 . S
Co826 O834 2.074 . S
Co826 O837 2.093 . S
Co826 O850 2.097 . S
Co826 N867 2.151 . S
Co826 N875 2.214 . S
Co827 O828 2.160 . S
Co827 O833 2.058 . S
Co827 O843 2.057 . S
Co827 O858 2.037 . S
Co827 N862 2.145 . S
Co827 N883 2.257 . S
O828 Co826 2.143 . S
O828 Co827 2.160 . S
C829 O830 1.278 . S
C829 O837 1.224 . S
O830 C829 1.278 . S
C831 O832 1.245 . S
C831 O843 1.232 . S
O832 C831 1.245 . S
O833 Co827 2.058 . S
O833 C859 1.269 . S
O834 Co826 2.074 . S
O834 C859 1.257 . S
H835 C860 0.930 . S
H836 C866 0.930 . S
O837 Co826 2.093 . S
O837 C829 1.224 . S
H838 C870 0.929 . S
H839 C872 0.930 . S
H840 C873 0.930 . S
H841 C871 0.929 . S
H842 C874 0.928 . S
O843 Co827 2.057 . S
O843 C831 1.232 . S
H844 C863 0.929 . S
H845 C864 0.929 . S
H846 C876 0.931 . S
H847 C868 0.929 . S
H848 C877 0.930 . S
H849 C869 0.931 . S
O850 Co826 2.097 . S
O850 C878 1.214 . S
H851 C879 0.929 . S
H852 C880 0.929 . S
H853 C881 0.930 . S
H854 C882 0.929 . S
H855 C884 0.930 . S
H856 C861 0.930 . S
H857 C865 0.930 . S
O858 Co827 2.037 . S
O858 C878 1.234 . S
C859 O833 1.269 . S
C859 O834 1.257 . S
C860 H835 0.930 . S
C860 C863 1.388 . S
C860 C865 1.418 . S
C861 H856 0.930 . S
C861 C864 1.404 . S
C861 C865 1.353 . S
N862 Co827 2.145 . S
N862 C863 1.397 . S
N862 C864 1.334 . S
C863 H844 0.929 . S
C863 C860 1.388 . S
C863 N862 1.397 . S
C864 H845 0.929 . S
C864 C861 1.404 . S
C864 N862 1.334 . S
C865 H857 0.930 . S
C865 C860 1.418 . S
C865 C861 1.353 . S
C866 H836 0.930 . S
C866 N867 1.330 . S
C866 C868 1.446 . S
N867 Co826 2.151 . S
N867 C866 1.330 . S
N867 C871 1.418 . S
C868 H847 0.929 . S
C868 C866 1.446 . S
C868 C869 1.332 . S
C869 H849 0.931 . S
C869 C868 1.332 . S
C869 C870 1.267 . S
C870 H838 0.929 . S
C870 C869 1.267 . S
C870 C871 1.251 . S
C871 H841 0.929 . S
C871 N867 1.418 . S
C871 C870 1.251 . S
C872 H839 0.930 . S
C872 C874 1.406 . S
C872 C877 1.261 . S
C873 H840 0.930 . S
C873 N875 1.325 . S
C873 C876 1.357 . S
C874 H842 0.928 . S
C874 C872 1.406 . S
C874 N875 1.261 . S
N875 Co826 2.214 . S
N875 C873 1.325 . S
N875 C874 1.261 . S
C876 H846 0.931 . S
C876 C873 1.357 . S
C876 C877 1.312 . S
C877 H848 0.930 . S
C877 C872 1.261 . S
C877 C876 1.312 . S
C878 O850 1.214 . S
C878 O858 1.234 . S
C879 H851 0.929 . S
C879 C882 1.391 . S
C879 C884 1.391 . S
C880 H852 0.929 . S
C880 C881 1.390 . S
C880 N883 1.391 . S
C881 H853 0.930 . S
C881 C880 1.390 . S
C881 C882 1.392 . S
C882 H854 0.929 . S
C882 C879 1.391 . S
C882 C881 1.392 . S
N883 Co827 2.257 . S
N883 C880 1.391 . S
N883 C884 1.388 . S
C884 H855 0.930 . S
C884 C879 1.391 . S
C884 N883 1.388 . S
Co885 O887 2.143 . S
Co885 O893 2.074 . S
Co885 O896 2.093 . S
Co885 O909 2.097 . S
Co885 N926 2.151 . S
Co885 N934 2.214 . S
Co886 O887 2.160 . S
Co886 O892 2.058 . S
Co886 O902 2.057 . S
Co886 O917 2.037 . S
Co886 N921 2.145 . S
Co886 N942 2.257 1_565 S
O887 Co885 2.143 . S
O887 Co886 2.160 . S
C888 O889 1.278 . S
C888 O896 1.224 . S
O889 C888 1.278 . S
C890 O891 1.245 1_545 S
C890 O902 1.232 1_545 S
O891 C890 1.245 1_565 S
O892 Co886 2.058 . S
O892 C918 1.269 . S
O893 Co885 2.074 . S
O893 C918 1.257 . S
H894 C919 0.930 . S
H895 C925 0.930 . S
O896 Co885 2.093 . S
O896 C888 1.224 . S
H897 C929 0.929 . S
H898 C931 0.930 . S
H899 C932 0.930 . S
H900 C930 0.929 . S
H901 C933 0.928 . S
O902 Co886 2.057 . S
O902 C890 1.232 1_565 S
H903 C922 0.929 . S
H904 C923 0.929 1_545 S
H905 C935 0.931 . S
H906 C927 0.929 . S
H907 C936 0.930 . S
H908 C928 0.931 . S
O909 Co885 2.097 . S
O909 C937 1.214 . S
H910 C938 0.929 . S
H911 C939 0.938 1_455 S
H912 C940 0.930 . S
H913 C941 0.929 . S
H914 C943 0.930 . S
H915 C920 0.930 1_545 S
H916 C924 0.930 . S
O917 Co886 2.037 . S
O917 C937 1.234 . S
C918 O892 1.269 . S
C918 O893 1.257 . S
C919 H894 0.930 . S
C919 C922 1.388 . S
C919 C924 1.418 . S
C920 H915 0.930 1_565 S
C920 C923 1.404 . S
C920 C924 1.353 . S
N921 Co886 2.145 . S
N921 C922 1.397 . S
N921 C923 1.334 . S
C922 H903 0.929 . S
C922 C919 1.388 . S
C922 N921 1.397 . S
C923 H904 0.929 1_565 S
C923 C920 1.404 . S
C923 N921 1.334 . S
C924 H916 0.930 . S
C924 C919 1.418 . S
C924 C920 1.353 . S
C925 H895 0.930 . S
C925 N926 1.330 . S
C925 C927 1.446 . S
N926 Co885 2.151 . S
N926 C925 1.330 . S
N926 C930 1.418 . S
C927 H906 0.929 . S
C927 C925 1.446 . S
C927 C928 1.332 . S
C928 H908 0.931 . S
C928 C927 1.332 . S
C928 C929 1.267 . S
C929 H897 0.929 . S
C929 C928 1.267 . S
C929 C930 1.251 . S
C930 H900 0.929 . S
C930 N926 1.418 . S
C930 C929 1.251 . S
C931 H898 0.930 . S
C931 C933 1.406 . S
C931 C936 1.261 . S
C932 H899 0.930 . S
C932 N934 1.325 . S
C932 C935 1.357 . S
C933 H901 0.928 . S
C933 C931 1.406 . S
C933 N934 1.261 . S
N934 Co885 2.214 . S
N934 C932 1.325 . S
N934 C933 1.261 . S
C935 H905 0.931 . S
C935 C932 1.357 . S
C935 C936 1.312 . S
C936 H907 0.930 . S
C936 C931 1.261 . S
C936 C935 1.312 . S
C937 O909 1.214 . S
C937 O917 1.234 . S
C938 H910 0.929 . S
C938 C941 1.391 1_655 S
C938 C943 1.391 . S
C939 H911 0.938 1_655 S
C939 C940 1.380 1_665 S
C939 N942 1.391 1_565 S
C940 H912 0.930 . S
C940 C939 1.380 1_445 S
C940 C941 1.392 . S
C941 H913 0.929 . S
C941 C938 1.391 1_455 S
C941 C940 1.392 . S
N942 Co886 2.257 1_545 S
N942 C939 1.391 1_545 S
N942 C943 1.388 . S
C943 H914 0.930 . S
C943 C938 1.391 . S
C943 N942 1.388 . S
Co944 O946 2.143 . S
Co944 O952 2.074 . S
Co944 O955 2.093 . S
Co944 O968 2.097 . S
Co944 N985 2.151 . S
Co944 N993 2.214 . S
Co945 O946 2.160 . S
Co945 O951 2.058 . S
Co945 O961 2.057 . S
Co945 O976 2.037 . S
Co945 N980 2.145 . S
Co945 N1001 2.257 . S
O946 Co944 2.143 . S
O946 Co945 2.160 . S
C947 O948 1.278 . S
C947 O955 1.224 . S
O948 C947 1.278 . S
C949 O950 1.245 . S
C949 O961 1.232 . S
O950 C949 1.245 . S
O951 Co945 2.058 . S
O951 C977 1.269 . S
O952 Co944 2.074 . S
O952 C977 1.257 . S
H953 C978 0.930 . S
H954 C984 0.930 . S
O955 Co944 2.093 . S
O955 C947 1.224 . S
H956 C988 0.929 . S
H957 C990 0.930 . S
H958 C991 0.930 . S
H959 C989 0.929 . S
H960 C992 0.928 . S
O961 Co945 2.057 . S
O961 C949 1.232 . S
H962 C981 0.929 . S
H963 C982 0.929 . S
H964 C994 0.931 . S
H965 C986 0.929 . S
H966 C995 0.930 . S
H967 C987 0.931 . S
O968 Co944 2.097 . S
O968 C996 1.214 . S
H969 C997 0.929 . S
H970 C998 0.929 . S
H971 C999 0.930 . S
H972 C1000 0.929 . S
H973 C1002 0.930 . S
H974 C979 0.930 . S
H975 C983 0.930 . S
O976 Co945 2.037 . S
O976 C996 1.234 . S
C977 O951 1.269 . S
C977 O952 1.257 . S
C978 H953 0.930 . S
C978 C981 1.388 . S
C978 C983 1.418 . S
C979 H974 0.930 . S
C979 C982 1.404 . S
C979 C983 1.353 . S
N980 Co945 2.145 . S
N980 C981 1.397 . S
N980 C982 1.334 . S
C981 H962 0.929 . S
C981 C978 1.388 . S
C981 N980 1.397 . S
C982 H963 0.929 . S
C982 C979 1.404 . S
C982 N980 1.334 . S
C983 H975 0.930 . S
C983 C978 1.418 . S
C983 C979 1.353 . S
C984 H954 0.930 . S
C984 N985 1.330 . S
C984 C986 1.446 . S
N985 Co944 2.151 . S
N985 C984 1.330 . S
N985 C989 1.418 . S
C986 H965 0.929 . S
C986 C984 1.446 . S
C986 C987 1.332 . S
C987 H967 0.931 . S
C987 C986 1.332 . S
C987 C988 1.267 . S
C988 H956 0.929 . S
C988 C987 1.267 . S
C988 C989 1.251 . S
C989 H959 0.929 . S
C989 N985 1.418 . S
C989 C988 1.251 . S
C990 H957 0.930 . S
C990 C992 1.406 . S
C990 C995 1.261 . S
C991 H958 0.930 . S
C991 N993 1.325 . S
C991 C994 1.357 . S
C992 H960 0.928 . S
C992 C990 1.406 . S
C992 N993 1.261 . S
N993 Co944 2.214 . S
N993 C991 1.325 . S
N993 C992 1.261 . S
C994 H964 0.931 . S
C994 C991 1.357 . S
C994 C995 1.312 . S
C995 H966 0.930 . S
C995 C990 1.261 . S
C995 C994 1.312 . S
C996 O968 1.214 . S
C996 O976 1.234 . S
C997 H969 0.929 . S
C997 C1000 1.391 . S
C997 C1002 1.391 . S
C998 H970 0.929 . S
C998 C999 1.390 . S
C998 N1001 1.391 . S
C999 H971 0.930 . S
C999 C998 1.390 . S
C999 C1000 1.392 . S
C1000 H972 0.929 . S
C1000 C997 1.391 . S
C1000 C999 1.392 . S
N1001 Co945 2.257 . S
N1001 C998 1.391 . S
N1001 C1002 1.388 . S
C1002 H973 0.930 . S
C1002 C997 1.391 . S
C1002 N1001 1.388 . S
Co1003 O1005 2.143 . S
Co1003 O1011 2.074 . S
Co1003 O1014 2.093 . S
Co1003 O1027 2.097 . S
Co1003 N1044 2.151 . S
Co1003 N1052 2.214 . S
Co1004 O1005 2.160 . S
Co1004 O1010 2.058 . S
Co1004 O1020 2.057 . S
Co1004 O1035 2.037 . S
Co1004 N1039 2.145 . S
Co1004 N1060 2.257 . S
O1005 Co1003 2.143 . S
O1005 Co1004 2.160 . S
C1006 O1007 1.278 . S
C1006 O1014 1.224 . S
O1007 C1006 1.278 . S
C1008 O1009 1.245 . S
C1008 O1020 1.232 . S
O1009 C1008 1.245 . S
O1010 Co1004 2.058 . S
O1010 C1036 1.269 . S
O1011 Co1003 2.074 . S
O1011 C1036 1.257 . S
H1012 C1037 0.930 . S
H1013 C1043 0.930 . S
O1014 Co1003 2.093 . S
O1014 C1006 1.224 . S
H1015 C1047 0.929 . S
H1016 C1049 0.930 . S
H1017 C1050 0.930 . S
H1018 C1048 0.929 . S
H1019 C1051 0.928 . S
O1020 Co1004 2.057 . S
O1020 C1008 1.232 . S
H1021 C1040 0.929 . S
H1022 C1041 0.929 . S
H1023 C1053 0.931 . S
H1024 C1045 0.929 . S
H1025 C1054 0.930 . S
H1026 C1046 0.931 . S
O1027 Co1003 2.097 . S
O1027 C1055 1.214 . S
H1028 C1056 0.929 . S
H1029 C1057 0.929 . S
H1030 C1058 0.930 . S
H1031 C1059 0.929 . S
H1032 C1061 0.930 . S
H1033 C1038 0.930 . S
H1034 C1042 0.930 . S
O1035 Co1004 2.037 . S
O1035 C1055 1.234 . S
C1036 O1010 1.269 . S
C1036 O1011 1.257 . S
C1037 H1012 0.930 . S
C1037 C1040 1.388 . S
C1037 C1042 1.418 . S
C1038 H1033 0.930 . S
C1038 C1041 1.404 . S
C1038 C1042 1.353 . S
N1039 Co1004 2.145 . S
N1039 C1040 1.397 . S
N1039 C1041 1.334 . S
C1040 H1021 0.929 . S
C1040 C1037 1.388 . S
C1040 N1039 1.397 . S
C1041 H1022 0.929 . S
C1041 C1038 1.404 . S
C1041 N1039 1.334 . S
C1042 H1034 0.930 . S
C1042 C1037 1.418 . S
C1042 C1038 1.353 . S
C1043 H1013 0.930 . S
C1043 N1044 1.330 . S
C1043 C1045 1.446 . S
N1044 Co1003 2.151 . S
N1044 C1043 1.330 . S
N1044 C1048 1.418 . S
C1045 H1024 0.929 . S
C1045 C1043 1.446 . S
C1045 C1046 1.332 . S
C1046 H1026 0.931 . S
C1046 C1045 1.332 . S
C1046 C1047 1.267 . S
C1047 H1015 0.929 . S
C1047 C1046 1.267 . S
C1047 C1048 1.251 . S
C1048 H1018 0.929 . S
C1048 N1044 1.418 . S
C1048 C1047 1.251 . S
C1049 H1016 0.930 . S
C1049 C1051 1.406 . S
C1049 C1054 1.261 . S
C1050 H1017 0.930 . S
C1050 N1052 1.325 . S
C1050 C1053 1.357 . S
C1051 H1019 0.928 . S
C1051 C1049 1.406 . S
C1051 N1052 1.261 . S
N1052 Co1003 2.214 . S
N1052 C1050 1.325 . S
N1052 C1051 1.261 . S
C1053 H1023 0.931 . S
C1053 C1050 1.357 . S
C1053 C1054 1.312 . S
C1054 H1025 0.930 . S
C1054 C1049 1.261 . S
C1054 C1053 1.312 . S
C1055 O1027 1.214 . S
C1055 O1035 1.234 . S
C1056 H1028 0.929 . S
C1056 C1059 1.391 . S
C1056 C1061 1.391 . S
C1057 H1029 0.929 . S
C1057 C1058 1.390 . S
C1057 N1060 1.391 . S
C1058 H1030 0.930 . S
C1058 C1057 1.390 . S
C1058 C1059 1.392 . S
C1059 H1031 0.929 . S
C1059 C1056 1.391 . S
C1059 C1058 1.392 . S
N1060 Co1004 2.257 . S
N1060 C1057 1.391 . S
N1060 C1061 1.388 . S
C1061 H1032 0.930 . S
C1061 C1056 1.391 . S
C1061 N1060 1.388 . S
Co1062 O1064 2.143 . S
Co1062 O1070 2.074 . S
Co1062 O1073 2.093 . S
Co1062 O1086 2.097 . S
Co1062 N1103 2.151 . S
Co1062 N1111 2.214 . S
Co1063 O1064 2.160 . S
Co1063 O1069 2.058 . S
Co1063 O1079 2.057 . S
Co1063 O1094 2.037 . S
Co1063 N1098 2.145 . S
Co1063 N1119 2.257 . S
O1064 Co1062 2.143 . S
O1064 Co1063 2.160 . S
C1065 O1066 1.278 . S
C1065 O1073 1.224 . S
O1066 C1065 1.278 . S
C1067 O1068 1.245 . S
C1067 O1079 1.232 . S
O1068 C1067 1.245 . S
O1069 Co1063 2.058 . S
O1069 C1095 1.269 . S
O1070 Co1062 2.074 . S
O1070 C1095 1.257 . S
H1071 C1096 0.930 . S
H1072 C1102 0.930 . S
O1073 Co1062 2.093 . S
O1073 C1065 1.224 . S
H1074 C1106 0.929 . S
H1075 C1108 0.930 . S
H1076 C1109 0.930 . S
H1077 C1107 0.929 . S
H1078 C1110 0.928 . S
O1079 Co1063 2.057 . S
O1079 C1067 1.232 . S
H1080 C1099 0.929 . S
H1081 C1100 0.929 . S
H1082 C1112 0.931 . S
H1083 C1104 0.929 . S
H1084 C1113 0.930 . S
H1085 C1105 0.931 . S
O1086 Co1062 2.097 . S
O1086 C1114 1.214 . S
H1087 C1115 0.929 . S
H1088 C1116 0.929 . S
H1089 C1117 0.930 . S
H1090 C1118 0.929 . S
H1091 C1120 0.930 . S
H1092 C1097 0.930 . S
H1093 C1101 0.930 . S
O1094 Co1063 2.037 . S
O1094 C1114 1.234 . S
C1095 O1069 1.269 . S
C1095 O1070 1.257 . S
C1096 H1071 0.930 . S
C1096 C1099 1.388 . S
C1096 C1101 1.418 . S
C1097 H1092 0.930 . S
C1097 C1100 1.404 . S
C1097 C1101 1.353 . S
N1098 Co1063 2.145 . S
N1098 C1099 1.397 . S
N1098 C1100 1.334 . S
C1099 H1080 0.929 . S
C1099 C1096 1.388 . S
C1099 N1098 1.397 . S
C1100 H1081 0.929 . S
C1100 C1097 1.404 . S
C1100 N1098 1.334 . S
C1101 H1093 0.930 . S
C1101 C1096 1.418 . S
C1101 C1097 1.353 . S
C1102 H1072 0.930 . S
C1102 N1103 1.330 . S
C1102 C1104 1.446 . S
N1103 Co1062 2.151 . S
N1103 C1102 1.330 . S
N1103 C1107 1.418 . S
C1104 H1083 0.929 . S
C1104 C1102 1.446 . S
C1104 C1105 1.332 . S
C1105 H1085 0.931 . S
C1105 C1104 1.332 . S
C1105 C1106 1.267 . S
C1106 H1074 0.929 . S
C1106 C1105 1.267 . S
C1106 C1107 1.251 . S
C1107 H1077 0.929 . S
C1107 N1103 1.418 . S
C1107 C1106 1.251 . S
C1108 H1075 0.930 . S
C1108 C1110 1.406 . S
C1108 C1113 1.261 . S
C1109 H1076 0.930 . S
C1109 N1111 1.325 . S
C1109 C1112 1.357 . S
C1110 H1078 0.928 . S
C1110 C1108 1.406 . S
C1110 N1111 1.261 . S
N1111 Co1062 2.214 . S
N1111 C1109 1.325 . S
N1111 C1110 1.261 . S
C1112 H1082 0.931 . S
C1112 C1109 1.357 . S
C1112 C1113 1.312 . S
C1113 H1084 0.930 . S
C1113 C1108 1.261 . S
C1113 C1112 1.312 . S
C1114 O1086 1.214 . S
C1114 O1094 1.234 . S
C1115 H1087 0.929 . S
C1115 C1118 1.391 . S
C1115 C1120 1.391 . S
C1116 H1088 0.929 . S
C1116 C1117 1.390 . S
C1116 N1119 1.391 . S
C1117 H1089 0.930 . S
C1117 C1116 1.390 . S
C1117 C1118 1.392 . S
C1118 H1090 0.929 . S
C1118 C1115 1.391 . S
C1118 C1117 1.392 . S
N1119 Co1063 2.257 . S
N1119 C1116 1.391 . S
N1119 C1120 1.388 . S
C1120 H1091 0.930 . S
C1120 C1115 1.391 . S
C1120 N1119 1.388 . S
Co1121 O1123 2.143 . S
Co1121 O1129 2.074 . S
Co1121 O1132 2.093 . S
Co1121 O1145 2.097 . S
Co1121 N1162 2.151 . S
Co1121 N1170 2.214 . S
Co1122 O1123 2.160 . S
Co1122 O1128 2.058 . S
Co1122 O1138 2.057 . S
Co1122 O1153 2.037 . S
Co1122 N1157 2.145 . S
Co1122 N1178 2.257 . S
O1123 Co1121 2.143 . S
O1123 Co1122 2.160 . S
C1124 O1125 1.278 . S
C1124 O1132 1.224 . S
O1125 C1124 1.278 . S
C1126 O1127 1.245 . S
C1126 O1138 1.232 . S
O1127 C1126 1.245 . S
O1128 Co1122 2.058 . S
O1128 C1154 1.269 . S
O1129 Co1121 2.074 . S
O1129 C1154 1.257 . S
H1130 C1155 0.930 . S
H1131 C1161 0.930 . S
O1132 Co1121 2.093 . S
O1132 C1124 1.224 . S
H1133 C1165 0.929 . S
H1134 C1167 0.930 . S
H1135 C1168 0.930 . S
H1136 C1166 0.929 . S
H1137 C1169 0.928 . S
O1138 Co1122 2.057 . S
O1138 C1126 1.232 . S
H1139 C1158 0.929 . S
H1140 C1159 0.929 . S
H1141 C1171 0.931 . S
H1142 C1163 0.929 . S
H1143 C1172 0.930 . S
H1144 C1164 0.931 . S
O1145 Co1121 2.097 . S
O1145 C1173 1.214 . S
H1146 C1174 0.929 . S
H1147 C1175 0.927 1_455 S
H1148 C1176 0.930 . S
H1149 C1177 0.929 . S
H1150 C1179 0.930 . S
H1151 C1156 0.930 . S
H1152 C1160 0.930 . S
O1153 Co1122 2.037 . S
O1153 C1173 1.234 . S
C1154 O1128 1.269 . S
C1154 O1129 1.257 . S
C1155 H1130 0.930 . S
C1155 C1158 1.388 . S
C1155 C1160 1.418 . S
C1156 H1151 0.930 . S
C1156 C1159 1.404 . S
C1156 C1160 1.353 . S
N1157 Co1122 2.145 . S
N1157 C1158 1.397 . S
N1157 C1159 1.334 . S
C1158 H1139 0.929 . S
C1158 C1155 1.388 . S
C1158 N1157 1.397 . S
C1159 H1140 0.929 . S
C1159 C1156 1.404 . S
C1159 N1157 1.334 . S
C1160 H1152 0.930 . S
C1160 C1155 1.418 . S
C1160 C1156 1.353 . S
C1161 H1131 0.930 . S
C1161 N1162 1.330 . S
C1161 C1163 1.446 . S
N1162 Co1121 2.151 . S
N1162 C1161 1.330 . S
N1162 C1166 1.418 . S
C1163 H1142 0.929 . S
C1163 C1161 1.446 . S
C1163 C1164 1.332 . S
C1164 H1144 0.931 . S
C1164 C1163 1.332 . S
C1164 C1165 1.267 . S
C1165 H1133 0.929 . S
C1165 C1164 1.267 . S
C1165 C1166 1.251 . S
C1166 H1136 0.929 . S
C1166 N1162 1.418 . S
C1166 C1165 1.251 . S
C1167 H1134 0.930 . S
C1167 C1169 1.406 . S
C1167 C1172 1.261 . S
C1168 H1135 0.930 . S
C1168 N1170 1.325 . S
C1168 C1171 1.357 . S
C1169 H1137 0.928 . S
C1169 C1167 1.406 . S
C1169 N1170 1.261 . S
N1170 Co1121 2.214 . S
N1170 C1168 1.325 . S
N1170 C1169 1.261 . S
C1171 H1141 0.931 . S
C1171 C1168 1.357 . S
C1171 C1172 1.312 . S
C1172 H1143 0.930 . S
C1172 C1167 1.261 . S
C1172 C1171 1.312 . S
C1173 O1145 1.214 . S
C1173 O1153 1.234 . S
C1174 H1146 0.929 . S
C1174 C1177 1.391 1_655 S
C1174 C1179 1.391 . S
C1175 H1147 0.927 1_655 S
C1175 C1176 1.390 1_655 S
C1175 N1178 1.391 . S
C1176 H1148 0.930 . S
C1176 C1175 1.390 1_455 S
C1176 C1177 1.392 . S
C1177 H1149 0.929 . S
C1177 C1174 1.391 1_455 S
C1177 C1176 1.392 . S
N1178 Co1122 2.257 . S
N1178 C1175 1.391 . S
N1178 C1179 1.388 . S
C1179 H1150 0.930 . S
C1179 C1174 1.391 . S
C1179 N1178 1.388 . S
Co1180 O1182 2.143 . S
Co1180 O1188 2.074 . S
Co1180 O1191 2.093 . S
Co1180 O1204 2.097 . S
Co1180 N1221 2.151 . S
Co1180 N1229 2.214 . S
Co1181 O1182 2.160 . S
Co1181 O1187 2.058 . S
Co1181 O1197 2.057 . S
Co1181 O1212 2.037 . S
Co1181 N1216 2.145 . S
Co1181 N1237 2.257 . S
O1182 Co1180 2.143 . S
O1182 Co1181 2.160 . S
C1183 O1184 1.278 . S
C1183 O1191 1.224 . S
O1184 C1183 1.278 . S
C1185 O1186 1.245 . S
C1185 O1197 1.232 . S
O1186 C1185 1.245 . S
O1187 Co1181 2.058 . S
O1187 C1213 1.269 . S
O1188 Co1180 2.074 . S
O1188 C1213 1.257 . S
H1189 C1214 0.930 . S
H1190 C1220 0.930 . S
O1191 Co1180 2.093 . S
O1191 C1183 1.224 . S
H1192 C1224 0.929 . S
H1193 C1226 0.930 . S
H1194 C1227 0.930 . S
H1195 C1225 0.929 . S
H1196 C1228 0.928 . S
O1197 Co1181 2.057 . S
O1197 C1185 1.232 . S
H1198 C1217 0.929 . S
H1199 C1218 0.929 . S
H1200 C1230 0.931 . S
H1201 C1222 0.929 . S
H1202 C1231 0.930 . S
H1203 C1223 0.931 . S
O1204 Co1180 2.097 . S
O1204 C1232 1.214 . S
H1205 C1233 0.929 . S
H1206 C1234 0.929 . S
H1207 C1235 0.930 . S
H1208 C1236 0.929 . S
H1209 C1238 0.930 . S
H1210 C1215 0.930 . S
H1211 C1219 0.930 . S
O1212 Co1181 2.037 . S
O1212 C1232 1.234 . S
C1213 O1187 1.269 . S
C1213 O1188 1.257 . S
C1214 H1189 0.930 . S
C1214 C1217 1.388 . S
C1214 C1219 1.418 . S
C1215 H1210 0.930 . S
C1215 C1218 1.404 . S
C1215 C1219 1.353 . S
N1216 Co1181 2.145 . S
N1216 C1217 1.397 . S
N1216 C1218 1.334 . S
C1217 H1198 0.929 . S
C1217 C1214 1.388 . S
C1217 N1216 1.397 . S
C1218 H1199 0.929 . S
C1218 C1215 1.404 . S
C1218 N1216 1.334 . S
C1219 H1211 0.930 . S
C1219 C1214 1.418 . S
C1219 C1215 1.353 . S
C1220 H1190 0.930 . S
C1220 N1221 1.330 . S
C1220 C1222 1.446 . S
N1221 Co1180 2.151 . S
N1221 C1220 1.330 . S
N1221 C1225 1.418 . S
C1222 H1201 0.929 . S
C1222 C1220 1.446 . S
C1222 C1223 1.332 . S
C1223 H1203 0.931 . S
C1223 C1222 1.332 . S
C1223 C1224 1.267 . S
C1224 H1192 0.929 . S
C1224 C1223 1.267 . S
C1224 C1225 1.251 . S
C1225 H1195 0.929 . S
C1225 N1221 1.418 . S
C1225 C1224 1.251 . S
C1226 H1193 0.930 . S
C1226 C1228 1.406 . S
C1226 C1231 1.261 . S
C1227 H1194 0.930 . S
C1227 N1229 1.325 . S
C1227 C1230 1.357 . S
C1228 H1196 0.928 . S
C1228 C1226 1.406 . S
C1228 N1229 1.261 . S
N1229 Co1180 2.214 . S
N1229 C1227 1.325 . S
N1229 C1228 1.261 . S
C1230 H1200 0.931 . S
C1230 C1227 1.357 . S
C1230 C1231 1.312 . S
C1231 H1202 0.930 . S
C1231 C1226 1.261 . S
C1231 C1230 1.312 . S
C1232 O1204 1.214 . S
C1232 O1212 1.234 . S
C1233 H1205 0.929 . S
C1233 C1236 1.391 . S
C1233 C1238 1.391 . S
C1234 H1206 0.929 . S
C1234 C1235 1.390 . S
C1234 N1237 1.391 . S
C1235 H1207 0.930 . S
C1235 C1234 1.390 . S
C1235 C1236 1.392 . S
C1236 H1208 0.929 . S
C1236 C1233 1.391 . S
C1236 C1235 1.392 . S
N1237 Co1181 2.257 . S
N1237 C1234 1.391 . S
N1237 C1238 1.388 . S
C1238 H1209 0.930 . S
C1238 C1233 1.391 . S
C1238 N1237 1.388 . S
Co1239 O1241 2.143 . S
Co1239 O1247 2.074 . S
Co1239 O1250 2.093 . S
Co1239 O1263 2.097 . S
Co1239 N1280 2.151 . S
Co1239 N1288 2.214 . S
Co1240 O1241 2.160 . S
Co1240 O1246 2.058 . S
Co1240 O1256 2.057 . S
Co1240 O1271 2.037 . S
Co1240 N1275 2.145 . S
Co1240 N1296 2.257 . S
O1241 Co1239 2.143 . S
O1241 Co1240 2.160 . S
C1242 O1243 1.278 . S
C1242 O1250 1.224 . S
O1243 C1242 1.278 . S
C1244 O1245 1.245 . S
C1244 O1256 1.232 . S
O1245 C1244 1.245 . S
O1246 Co1240 2.058 . S
O1246 C1272 1.269 . S
O1247 Co1239 2.074 . S
O1247 C1272 1.257 . S
H1248 C1273 0.930 . S
H1249 C1279 0.930 . S
O1250 Co1239 2.093 . S
O1250 C1242 1.224 . S
H1251 C1283 0.929 . S
H1252 C1285 0.930 . S
H1253 C1286 0.930 . S
H1254 C1284 0.929 . S
H1255 C1287 0.928 . S
O1256 Co1240 2.057 . S
O1256 C1244 1.232 . S
H1257 C1276 0.929 . S
H1258 C1277 0.929 . S
H1259 C1289 0.931 . S
H1260 C1281 0.929 . S
H1261 C1290 0.930 . S
H1262 C1282 0.931 . S
O1263 Co1239 2.097 . S
O1263 C1291 1.214 . S
H1264 C1292 0.929 . S
H1265 C1293 0.927 1_455 S
H1266 C1294 0.930 . S
H1267 C1295 0.929 . S
H1268 C1297 0.930 . S
H1269 C1274 0.930 . S
H1270 C1278 0.930 . S
O1271 Co1240 2.037 . S
O1271 C1291 1.234 . S
C1272 O1246 1.269 . S
C1272 O1247 1.257 . S
C1273 H1248 0.930 . S
C1273 C1276 1.388 . S
C1273 C1278 1.418 . S
C1274 H1269 0.930 . S
C1274 C1277 1.404 . S
C1274 C1278 1.353 . S
N1275 Co1240 2.145 . S
N1275 C1276 1.397 . S
N1275 C1277 1.334 . S
C1276 H1257 0.929 . S
C1276 C1273 1.388 . S
C1276 N1275 1.397 . S
C1277 H1258 0.929 . S
C1277 C1274 1.404 . S
C1277 N1275 1.334 . S
C1278 H1270 0.930 . S
C1278 C1273 1.418 . S
C1278 C1274 1.353 . S
C1279 H1249 0.930 . S
C1279 N1280 1.330 . S
C1279 C1281 1.446 . S
N1280 Co1239 2.151 . S
N1280 C1279 1.330 . S
N1280 C1284 1.418 . S
C1281 H1260 0.929 . S
C1281 C1279 1.446 . S
C1281 C1282 1.332 . S
C1282 H1262 0.931 . S
C1282 C1281 1.332 . S
C1282 C1283 1.267 . S
C1283 H1251 0.929 . S
C1283 C1282 1.267 . S
C1283 C1284 1.251 . S
C1284 H1254 0.929 . S
C1284 N1280 1.418 . S
C1284 C1283 1.251 . S
C1285 H1252 0.930 . S
C1285 C1287 1.406 . S
C1285 C1290 1.261 . S
C1286 H1253 0.930 . S
C1286 N1288 1.325 . S
C1286 C1289 1.357 . S
C1287 H1255 0.928 . S
C1287 C1285 1.406 . S
C1287 N1288 1.261 . S
N1288 Co1239 2.214 . S
N1288 C1286 1.325 . S
N1288 C1287 1.261 . S
C1289 H1259 0.931 . S
C1289 C1286 1.357 . S
C1289 C1290 1.312 . S
C1290 H1261 0.930 . S
C1290 C1285 1.261 . S
C1290 C1289 1.312 . S
C1291 O1263 1.214 . S
C1291 O1271 1.234 . S
C1292 H1264 0.929 . S
C1292 C1295 1.391 1_655 S
C1292 C1297 1.391 . S
C1293 H1265 0.927 1_655 S
C1293 C1294 1.390 1_655 S
C1293 N1296 1.391 . S
C1294 H1266 0.930 . S
C1294 C1293 1.390 1_455 S
C1294 C1295 1.392 . S
C1295 H1267 0.929 . S
C1295 C1292 1.391 1_455 S
C1295 C1294 1.392 . S
N1296 Co1240 2.257 . S
N1296 C1293 1.391 . S
N1296 C1297 1.388 . S
C1297 H1268 0.930 . S
C1297 C1292 1.391 . S
C1297 N1296 1.388 . S
Co1298 O1300 2.143 . S
Co1298 O1306 2.074 . S
Co1298 O1309 2.093 . S
Co1298 O1322 2.097 . S
Co1298 N1339 2.151 . S
Co1298 N1347 2.214 . S
Co1299 O1300 2.160 . S
Co1299 O1305 2.058 . S
Co1299 O1315 2.057 . S
Co1299 O1330 2.037 . S
Co1299 N1334 2.145 . S
Co1299 N1355 2.257 . S
O1300 Co1298 2.143 . S
O1300 Co1299 2.160 . S
C1301 O1302 1.278 . S
C1301 O1309 1.224 . S
O1302 C1301 1.278 . S
C1303 O1304 1.245 . S
C1303 O1315 1.232 . S
O1304 C1303 1.245 . S
O1305 Co1299 2.058 . S
O1305 C1331 1.269 . S
O1306 Co1298 2.074 . S
O1306 C1331 1.257 . S
H1307 C1332 0.930 . S
H1308 C1338 0.930 . S
O1309 Co1298 2.093 . S
O1309 C1301 1.224 . S
H1310 C1342 0.929 . S
H1311 C1344 0.930 . S
H1312 C1345 0.930 . S
H1313 C1343 0.929 . S
H1314 C1346 0.928 . S
O1315 Co1299 2.057 . S
O1315 C1303 1.232 . S
H1316 C1335 0.929 . S
H1317 C1336 0.929 . S
H1318 C1348 0.931 . S
H1319 C1340 0.929 . S
H1320 C1349 0.930 . S
H1321 C1341 0.931 . S
O1322 Co1298 2.097 . S
O1322 C1350 1.214 . S
H1323 C1351 0.929 . S
H1324 C1352 0.929 . S
H1325 C1353 0.930 . S
H1326 C1354 0.929 . S
H1327 C1356 0.930 . S
H1328 C1333 0.930 . S
H1329 C1337 0.930 . S
O1330 Co1299 2.037 . S
O1330 C1350 1.234 . S
C1331 O1305 1.269 . S
C1331 O1306 1.257 . S
C1332 H1307 0.930 . S
C1332 C1335 1.388 . S
C1332 C1337 1.418 . S
C1333 H1328 0.930 . S
C1333 C1336 1.404 . S
C1333 C1337 1.353 . S
N1334 Co1299 2.145 . S
N1334 C1335 1.397 . S
N1334 C1336 1.334 . S
C1335 H1316 0.929 . S
C1335 C1332 1.388 . S
C1335 N1334 1.397 . S
C1336 H1317 0.929 . S
C1336 C1333 1.404 . S
C1336 N1334 1.334 . S
C1337 H1329 0.930 . S
C1337 C1332 1.418 . S
C1337 C1333 1.353 . S
C1338 H1308 0.930 . S
C1338 N1339 1.330 . S
C1338 C1340 1.446 . S
N1339 Co1298 2.151 . S
N1339 C1338 1.330 . S
N1339 C1343 1.418 . S
C1340 H1319 0.929 . S
C1340 C1338 1.446 . S
C1340 C1341 1.332 . S
C1341 H1321 0.931 . S
C1341 C1340 1.332 . S
C1341 C1342 1.267 . S
C1342 H1310 0.929 . S
C1342 C1341 1.267 . S
C1342 C1343 1.251 . S
C1343 H1313 0.929 . S
C1343 N1339 1.418 . S
C1343 C1342 1.251 . S
C1344 H1311 0.930 . S
C1344 C1346 1.406 . S
C1344 C1349 1.261 . S
C1345 H1312 0.930 . S
C1345 N1347 1.325 . S
C1345 C1348 1.357 . S
C1346 H1314 0.928 . S
C1346 C1344 1.406 . S
C1346 N1347 1.261 . S
N1347 Co1298 2.214 . S
N1347 C1345 1.325 . S
N1347 C1346 1.261 . S
C1348 H1318 0.931 . S
C1348 C1345 1.357 . S
C1348 C1349 1.312 . S
C1349 H1320 0.930 . S
C1349 C1344 1.261 . S
C1349 C1348 1.312 . S
C1350 O1322 1.214 . S
C1350 O1330 1.234 . S
C1351 H1323 0.929 . S
C1351 C1354 1.391 . S
C1351 C1356 1.391 . S
C1352 H1324 0.929 . S
C1352 C1353 1.390 . S
C1352 N1355 1.391 . S
C1353 H1325 0.930 . S
C1353 C1352 1.390 . S
C1353 C1354 1.392 . S
C1354 H1326 0.929 . S
C1354 C1351 1.391 . S
C1354 C1353 1.392 . S
N1355 Co1299 2.257 . S
N1355 C1352 1.391 . S
N1355 C1356 1.388 . S
C1356 H1327 0.930 . S
C1356 C1351 1.391 . S
C1356 N1355 1.388 . S
Co1357 O1359 2.143 . S
Co1357 O1365 2.074 . S
Co1357 O1368 2.093 . S
Co1357 O1381 2.097 . S
Co1357 N1398 2.151 . S
Co1357 N1406 2.214 . S
Co1358 O1359 2.160 . S
Co1358 O1364 2.058 . S
Co1358 O1374 2.057 . S
Co1358 O1389 2.037 . S
Co1358 N1393 2.145 . S
Co1358 N1414 2.257 . S
O1359 Co1357 2.143 . S
O1359 Co1358 2.160 . S
C1360 O1361 1.278 . S
C1360 O1368 1.224 . S
O1361 C1360 1.278 . S
C1362 O1363 1.245 . S
C1362 O1374 1.232 . S
O1363 C1362 1.245 . S
O1364 Co1358 2.058 . S
O1364 C1390 1.269 . S
O1365 Co1357 2.074 . S
O1365 C1390 1.257 . S
H1366 C1391 0.930 . S
H1367 C1397 0.930 . S
O1368 Co1357 2.093 . S
O1368 C1360 1.224 . S
H1369 C1401 0.929 . S
H1370 C1403 0.930 . S
H1371 C1404 0.930 . S
H1372 C1402 0.929 . S
H1373 C1405 0.928 . S
O1374 Co1358 2.057 . S
O1374 C1362 1.232 . S
H1375 C1394 0.929 . S
H1376 C1395 0.929 . S
H1377 C1407 0.931 . S
H1378 C1399 0.929 . S
H1379 C1408 0.930 . S
H1380 C1400 0.931 . S
O1381 Co1357 2.097 . S
O1381 C1409 1.214 . S
H1382 C1410 0.929 . S
H1383 C1411 0.929 . S
H1384 C1412 0.930 . S
H1385 C1413 0.929 . S
H1386 C1415 0.930 . S
H1387 C1392 0.930 . S
H1388 C1396 0.930 . S
O1389 Co1358 2.037 . S
O1389 C1409 1.234 . S
C1390 O1364 1.269 . S
C1390 O1365 1.257 . S
C1391 H1366 0.930 . S
C1391 C1394 1.388 . S
C1391 C1396 1.418 . S
C1392 H1387 0.930 . S
C1392 C1395 1.404 . S
C1392 C1396 1.353 . S
N1393 Co1358 2.145 . S
N1393 C1394 1.397 . S
N1393 C1395 1.334 . S
C1394 H1375 0.929 . S
C1394 C1391 1.388 . S
C1394 N1393 1.397 . S
C1395 H1376 0.929 . S
C1395 C1392 1.404 . S
C1395 N1393 1.334 . S
C1396 H1388 0.930 . S
C1396 C1391 1.418 . S
C1396 C1392 1.353 . S
C1397 H1367 0.930 . S
C1397 N1398 1.330 . S
C1397 C1399 1.446 . S
N1398 Co1357 2.151 . S
N1398 C1397 1.330 . S
N1398 C1402 1.418 . S
C1399 H1378 0.929 . S
C1399 C1397 1.446 . S
C1399 C1400 1.332 . S
C1400 H1380 0.931 . S
C1400 C1399 1.332 . S
C1400 C1401 1.267 . S
C1401 H1369 0.929 . S
C1401 C1400 1.267 . S
C1401 C1402 1.251 . S
C1402 H1372 0.929 . S
C1402 N1398 1.418 . S
C1402 C1401 1.251 . S
C1403 H1370 0.930 . S
C1403 C1405 1.406 . S
C1403 C1408 1.261 . S
C1404 H1371 0.930 . S
C1404 N1406 1.325 . S
C1404 C1407 1.357 . S
C1405 H1373 0.928 . S
C1405 C1403 1.406 . S
C1405 N1406 1.261 . S
N1406 Co1357 2.214 . S
N1406 C1404 1.325 . S
N1406 C1405 1.261 . S
C1407 H1377 0.931 . S
C1407 C1404 1.357 . S
C1407 C1408 1.312 . S
C1408 H1379 0.930 . S
C1408 C1403 1.261 . S
C1408 C1407 1.312 . S
C1409 O1381 1.214 . S
C1409 O1389 1.234 . S
C1410 H1382 0.929 . S
C1410 C1413 1.391 . S
C1410 C1415 1.391 . S
C1411 H1383 0.929 . S
C1411 C1412 1.390 . S
C1411 N1414 1.391 . S
C1412 H1384 0.930 . S
C1412 C1411 1.390 . S
C1412 C1413 1.392 . S
C1413 H1385 0.929 . S
C1413 C1410 1.391 . S
C1413 C1412 1.392 . S
N1414 Co1358 2.257 . S
N1414 C1411 1.391 . S
N1414 C1415 1.388 . S
C1415 H1386 0.930 . S
C1415 C1410 1.391 . S
C1415 N1414 1.388 . S
Co1416 O1418 2.143 . S
Co1416 O1424 2.074 . S
Co1416 O1427 2.093 . S
Co1416 O1440 2.097 . S
Co1416 N1457 2.151 . S
Co1416 N1465 2.214 . S
Co1417 O1418 2.160 . S
Co1417 O1423 2.058 . S
Co1417 O1433 2.057 . S
Co1417 O1448 2.037 . S
Co1417 N1452 2.145 . S
Co1417 N1473 2.257 . S
O1418 Co1416 2.143 . S
O1418 Co1417 2.160 . S
C1419 O1420 1.278 . S
C1419 O1427 1.224 . S
O1420 C1419 1.278 . S
C1421 O1422 1.245 . S
C1421 O1433 1.232 . S
O1422 C1421 1.245 . S
O1423 Co1417 2.058 . S
O1423 C1449 1.269 . S
O1424 Co1416 2.074 . S
O1424 C1449 1.257 . S
H1425 C1450 0.930 . S
H1426 C1456 0.930 . S
O1427 Co1416 2.093 . S
O1427 C1419 1.224 . S
H1428 C1460 0.929 . S
H1429 C1462 0.930 . S
H1430 C1463 0.930 . S
H1431 C1461 0.929 . S
H1432 C1464 0.928 . S
O1433 Co1417 2.057 . S
O1433 C1421 1.232 . S
H1434 C1453 0.929 . S
H1435 C1454 0.929 . S
H1436 C1466 0.931 . S
H1437 C1458 0.929 . S
H1438 C1467 0.930 . S
H1439 C1459 0.931 . S
O1440 Co1416 2.097 . S
O1440 C1468 1.214 . S
H1441 C1469 0.929 . S
H1442 C1470 0.929 . S
H1443 C1471 0.930 . S
H1444 C1472 0.929 . S
H1445 C1474 0.930 . S
H1446 C1451 0.930 . S
H1447 C1455 0.930 . S
O1448 Co1417 2.037 . S
O1448 C1468 1.234 . S
C1449 O1423 1.269 . S
C1449 O1424 1.257 . S
C1450 H1425 0.930 . S
C1450 C1453 1.388 . S
C1450 C1455 1.418 . S
C1451 H1446 0.930 . S
C1451 C1454 1.404 . S
C1451 C1455 1.353 . S
N1452 Co1417 2.145 . S
N1452 C1453 1.397 . S
N1452 C1454 1.334 . S
C1453 H1434 0.929 . S
C1453 C1450 1.388 . S
C1453 N1452 1.397 . S
C1454 H1435 0.929 . S
C1454 C1451 1.404 . S
C1454 N1452 1.334 . S
C1455 H1447 0.930 . S
C1455 C1450 1.418 . S
C1455 C1451 1.353 . S
C1456 H1426 0.930 . S
C1456 N1457 1.330 . S
C1456 C1458 1.446 . S
N1457 Co1416 2.151 . S
N1457 C1456 1.330 . S
N1457 C1461 1.418 . S
C1458 H1437 0.929 . S
C1458 C1456 1.446 . S
C1458 C1459 1.332 . S
C1459 H1439 0.931 . S
C1459 C1458 1.332 . S
C1459 C1460 1.267 . S
C1460 H1428 0.929 . S
C1460 C1459 1.267 . S
C1460 C1461 1.251 . S
C1461 H1431 0.929 . S
C1461 N1457 1.418 . S
C1461 C1460 1.251 . S
C1462 H1429 0.930 . S
C1462 C1464 1.406 . S
C1462 C1467 1.261 . S
C1463 H1430 0.930 . S
C1463 N1465 1.325 . S
C1463 C1466 1.357 . S
C1464 H1432 0.928 . S
C1464 C1462 1.406 . S
C1464 N1465 1.261 . S
N1465 Co1416 2.214 . S
N1465 C1463 1.325 . S
N1465 C1464 1.261 . S
C1466 H1436 0.931 . S
C1466 C1463 1.357 . S
C1466 C1467 1.312 . S
C1467 H1438 0.930 . S
C1467 C1462 1.261 . S
C1467 C1466 1.312 . S
C1468 O1440 1.214 . S
C1468 O1448 1.234 . S
C1469 H1441 0.929 . S
C1469 C1472 1.391 . S
C1469 C1474 1.391 . S
C1470 H1442 0.929 . S
C1470 C1471 1.390 . S
C1470 N1473 1.391 . S
C1471 H1443 0.930 . S
C1471 C1470 1.390 . S
C1471 C1472 1.392 . S
C1472 H1444 0.929 . S
C1472 C1469 1.391 . S
C1472 C1471 1.392 . S
N1473 Co1417 2.257 . S
N1473 C1470 1.391 . S
N1473 C1474 1.388 . S
C1474 H1445 0.930 . S
C1474 C1469 1.391 . S
C1474 N1473 1.388 . S
Co1475 O1477 2.143 . S
Co1475 O1483 2.074 . S
Co1475 O1486 2.093 . S
Co1475 O1499 2.097 . S
Co1475 N1516 2.151 . S
Co1475 N1524 2.214 . S
Co1476 O1477 2.160 . S
Co1476 O1482 2.058 . S
Co1476 O1492 2.057 . S
Co1476 O1507 2.037 . S
Co1476 N1511 2.145 . S
Co1476 N1532 2.257 . S
O1477 Co1475 2.143 . S
O1477 Co1476 2.160 . S
C1478 O1479 1.278 . S
C1478 O1486 1.224 . S
O1479 C1478 1.278 . S
C1480 O1481 1.245 . S
C1480 O1492 1.232 . S
O1481 C1480 1.245 . S
O1482 Co1476 2.058 . S
O1482 C1508 1.269 . S
O1483 Co1475 2.074 . S
O1483 C1508 1.257 . S
H1484 C1509 0.930 . S
H1485 C1515 0.930 . S
O1486 Co1475 2.093 . S
O1486 C1478 1.224 . S
H1487 C1519 0.929 . S
H1488 C1521 0.930 . S
H1489 C1522 0.930 . S
H1490 C1520 0.929 . S
H1491 C1523 0.928 . S
O1492 Co1476 2.057 . S
O1492 C1480 1.232 . S
H1493 C1512 0.929 . S
H1494 C1513 0.929 . S
H1495 C1525 0.931 . S
H1496 C1517 0.929 . S
H1497 C1526 0.930 . S
H1498 C1518 0.931 . S
O1499 Co1475 2.097 . S
O1499 C1527 1.214 . S
H1500 C1528 0.929 . S
H1501 C1529 0.929 . S
H1502 C1530 0.930 . S
H1503 C1531 0.929 . S
H1504 C1533 0.930 . S
H1505 C1510 0.930 . S
H1506 C1514 0.930 . S
O1507 Co1476 2.037 . S
O1507 C1527 1.234 . S
C1508 O1482 1.269 . S
C1508 O1483 1.257 . S
C1509 H1484 0.930 . S
C1509 C1512 1.388 . S
C1509 C1514 1.418 . S
C1510 H1505 0.930 . S
C1510 C1513 1.404 . S
C1510 C1514 1.353 . S
N1511 Co1476 2.145 . S
N1511 C1512 1.397 . S
N1511 C1513 1.334 . S
C1512 H1493 0.929 . S
C1512 C1509 1.388 . S
C1512 N1511 1.397 . S
C1513 H1494 0.929 . S
C1513 C1510 1.404 . S
C1513 N1511 1.334 . S
C1514 H1506 0.930 . S
C1514 C1509 1.418 . S
C1514 C1510 1.353 . S
C1515 H1485 0.930 . S
C1515 N1516 1.330 . S
C1515 C1517 1.446 . S
N1516 Co1475 2.151 . S
N1516 C1515 1.330 . S
N1516 C1520 1.418 . S
C1517 H1496 0.929 . S
C1517 C1515 1.446 . S
C1517 C1518 1.332 . S
C1518 H1498 0.931 . S
C1518 C1517 1.332 . S
C1518 C1519 1.267 . S
C1519 H1487 0.929 . S
C1519 C1518 1.267 . S
C1519 C1520 1.251 . S
C1520 H1490 0.929 . S
C1520 N1516 1.418 . S
C1520 C1519 1.251 . S
C1521 H1488 0.930 . S
C1521 C1523 1.406 . S
C1521 C1526 1.261 . S
C1522 H1489 0.930 . S
C1522 N1524 1.325 . S
C1522 C1525 1.357 . S
C1523 H1491 0.928 . S
C1523 C1521 1.406 . S
C1523 N1524 1.261 . S
N1524 Co1475 2.214 . S
N1524 C1522 1.325 . S
N1524 C1523 1.261 . S
C1525 H1495 0.931 . S
C1525 C1522 1.357 . S
C1525 C1526 1.312 . S
C1526 H1497 0.930 . S
C1526 C1521 1.261 . S
C1526 C1525 1.312 . S
C1527 O1499 1.214 . S
C1527 O1507 1.234 . S
C1528 H1500 0.929 . S
C1528 C1531 1.391 . S
C1528 C1533 1.391 . S
C1529 H1501 0.929 . S
C1529 C1530 1.390 . S
C1529 N1532 1.391 . S
C1530 H1502 0.930 . S
C1530 C1529 1.390 . S
C1530 C1531 1.392 . S
C1531 H1503 0.929 . S
C1531 C1528 1.391 . S
C1531 C1530 1.392 . S
N1532 Co1476 2.257 . S
N1532 C1529 1.391 . S
N1532 C1533 1.388 . S
C1533 H1504 0.930 . S
C1533 C1528 1.391 . S
C1533 N1532 1.388 . S
Co1534 O1536 2.143 . S
Co1534 O1542 2.074 . S
Co1534 O1545 2.093 . S
Co1534 O1558 2.097 . S
Co1534 N1575 2.151 . S
Co1534 N1583 2.214 . S
Co1535 O1536 2.160 . S
Co1535 O1541 2.058 . S
Co1535 O1551 2.057 . S
Co1535 O1566 2.037 . S
Co1535 N1570 2.145 . S
Co1535 N1591 2.257 . S
O1536 Co1534 2.143 . S
O1536 Co1535 2.160 . S
C1537 O1538 1.278 . S
C1537 O1545 1.224 . S
O1538 C1537 1.278 . S
C1539 O1540 1.245 . S
C1539 O1551 1.232 . S
O1540 C1539 1.245 . S
O1541 Co1535 2.058 . S
O1541 C1567 1.269 . S
O1542 Co1534 2.074 . S
O1542 C1567 1.257 . S
H1543 C1568 0.930 . S
H1544 C1574 0.930 . S
O1545 Co1534 2.093 . S
O1545 C1537 1.224 . S
H1546 C1578 0.929 . S
H1547 C1580 0.930 . S
H1548 C1581 0.930 . S
H1549 C1579 0.929 . S
H1550 C1582 0.928 . S
O1551 Co1535 2.057 . S
O1551 C1539 1.232 . S
H1552 C1571 0.929 . S
H1553 C1572 0.929 . S
H1554 C1584 0.931 . S
H1555 C1576 0.929 . S
H1556 C1585 0.930 . S
H1557 C1577 0.931 . S
O1558 Co1534 2.097 . S
O1558 C1586 1.214 . S
H1559 C1587 0.929 . S
H1560 C1588 0.929 . S
H1561 C1589 0.930 . S
H1562 C1590 0.929 . S
H1563 C1592 0.930 . S
H1564 C1569 0.930 . S
H1565 C1573 0.930 . S
O1566 Co1535 2.037 . S
O1566 C1586 1.234 . S
C1567 O1541 1.269 . S
C1567 O1542 1.257 . S
C1568 H1543 0.930 . S
C1568 C1571 1.388 . S
C1568 C1573 1.418 . S
C1569 H1564 0.930 . S
C1569 C1572 1.404 . S
C1569 C1573 1.353 . S
N1570 Co1535 2.145 . S
N1570 C1571 1.397 . S
N1570 C1572 1.334 . S
C1571 H1552 0.929 . S
C1571 C1568 1.388 . S
C1571 N1570 1.397 . S
C1572 H1553 0.929 . S
C1572 C1569 1.404 . S
C1572 N1570 1.334 . S
C1573 H1565 0.930 . S
C1573 C1568 1.418 . S
C1573 C1569 1.353 . S
C1574 H1544 0.930 . S
C1574 N1575 1.330 . S
C1574 C1576 1.446 . S
N1575 Co1534 2.151 . S
N1575 C1574 1.330 . S
N1575 C1579 1.418 . S
C1576 H1555 0.929 . S
C1576 C1574 1.446 . S
C1576 C1577 1.332 . S
C1577 H1557 0.931 . S
C1577 C1576 1.332 . S
C1577 C1578 1.267 . S
C1578 H1546 0.929 . S
C1578 C1577 1.267 . S
C1578 C1579 1.251 . S
C1579 H1549 0.929 . S
C1579 N1575 1.418 . S
C1579 C1578 1.251 . S
C1580 H1547 0.930 . S
C1580 C1582 1.406 . S
C1580 C1585 1.261 . S
C1581 H1548 0.930 . S
C1581 N1583 1.325 . S
C1581 C1584 1.357 . S
C1582 H1550 0.928 . S
C1582 C1580 1.406 . S
C1582 N1583 1.261 . S
N1583 Co1534 2.214 . S
N1583 C1581 1.325 . S
N1583 C1582 1.261 . S
C1584 H1554 0.931 . S
C1584 C1581 1.357 . S
C1584 C1585 1.312 . S
C1585 H1556 0.930 . S
C1585 C1580 1.261 . S
C1585 C1584 1.312 . S
C1586 O1558 1.214 . S
C1586 O1566 1.234 . S
C1587 H1559 0.929 . S
C1587 C1590 1.391 . S
C1587 C1592 1.391 . S
C1588 H1560 0.929 . S
C1588 C1589 1.390 . S
C1588 N1591 1.391 . S
C1589 H1561 0.930 . S
C1589 C1588 1.390 . S
C1589 C1590 1.392 . S
C1590 H1562 0.929 . S
C1590 C1587 1.391 . S
C1590 C1589 1.392 . S
N1591 Co1535 2.257 . S
N1591 C1588 1.391 . S
N1591 C1592 1.388 . S
C1592 H1563 0.930 . S
C1592 C1587 1.391 . S
C1592 N1591 1.388 . S
Co1593 O1595 2.143 . S
Co1593 O1601 2.074 . S
Co1593 O1604 2.093 . S
Co1593 O1617 2.097 . S
Co1593 N1634 2.151 . S
Co1593 N1642 2.214 . S
Co1594 O1595 2.160 . S
Co1594 O1600 2.058 . S
Co1594 O1610 2.057 . S
Co1594 O1625 2.037 . S
Co1594 N1629 2.145 . S
Co1594 N1650 2.257 . S
O1595 Co1593 2.143 . S
O1595 Co1594 2.160 . S
C1596 O1597 1.278 . S
C1596 O1604 1.224 . S
O1597 C1596 1.278 . S
C1598 O1599 1.245 . S
C1598 O1610 1.232 . S
O1599 C1598 1.245 . S
O1600 Co1594 2.058 . S
O1600 C1626 1.269 . S
O1601 Co1593 2.074 . S
O1601 C1626 1.257 . S
H1602 C1627 0.930 . S
H1603 C1633 0.930 . S
O1604 Co1593 2.093 . S
O1604 C1596 1.224 . S
H1605 C1637 0.929 . S
H1606 C1639 0.930 . S
H1607 C1640 0.930 . S
H1608 C1638 0.929 . S
H1609 C1641 0.928 . S
O1610 Co1594 2.057 . S
O1610 C1598 1.232 . S
H1611 C1630 0.929 . S
H1612 C1631 0.929 . S
H1613 C1643 0.931 . S
H1614 C1635 0.929 . S
H1615 C1644 0.930 . S
H1616 C1636 0.931 . S
O1617 Co1593 2.097 . S
O1617 C1645 1.214 . S
H1618 C1646 0.929 . S
H1619 C1647 0.927 1_655 S
H1620 C1648 0.930 . S
H1621 C1649 0.929 . S
H1622 C1651 0.930 . S
H1623 C1628 0.930 . S
H1624 C1632 0.930 . S
O1625 Co1594 2.037 . S
O1625 C1645 1.234 . S
C1626 O1600 1.269 . S
C1626 O1601 1.257 . S
C1627 H1602 0.930 . S
C1627 C1630 1.388 . S
C1627 C1632 1.418 . S
C1628 H1623 0.930 . S
C1628 C1631 1.404 . S
C1628 C1632 1.353 . S
N1629 Co1594 2.145 . S
N1629 C1630 1.397 . S
N1629 C1631 1.334 . S
C1630 H1611 0.929 . S
C1630 C1627 1.388 . S
C1630 N1629 1.397 . S
C1631 H1612 0.929 . S
C1631 C1628 1.404 . S
C1631 N1629 1.334 . S
C1632 H1624 0.930 . S
C1632 C1627 1.418 . S
C1632 C1628 1.353 . S
C1633 H1603 0.930 . S
C1633 N1634 1.330 . S
C1633 C1635 1.446 . S
N1634 Co1593 2.151 . S
N1634 C1633 1.330 . S
N1634 C1638 1.418 . S
C1635 H1614 0.929 . S
C1635 C1633 1.446 . S
C1635 C1636 1.332 . S
C1636 H1616 0.931 . S
C1636 C1635 1.332 . S
C1636 C1637 1.267 . S
C1637 H1605 0.929 . S
C1637 C1636 1.267 . S
C1637 C1638 1.251 . S
C1638 H1608 0.929 . S
C1638 N1634 1.418 . S
C1638 C1637 1.251 . S
C1639 H1606 0.930 . S
C1639 C1641 1.406 . S
C1639 C1644 1.261 . S
C1640 H1607 0.930 . S
C1640 N1642 1.325 . S
C1640 C1643 1.357 . S
C1641 H1609 0.928 . S
C1641 C1639 1.406 . S
C1641 N1642 1.261 . S
N1642 Co1593 2.214 . S
N1642 C1640 1.325 . S
N1642 C1641 1.261 . S
C1643 H1613 0.931 . S
C1643 C1640 1.357 . S
C1643 C1644 1.312 . S
C1644 H1615 0.930 . S
C1644 C1639 1.261 . S
C1644 C1643 1.312 . S
C1645 O1617 1.214 . S
C1645 O1625 1.234 . S
C1646 H1618 0.929 . S
C1646 C1649 1.391 1_455 S
C1646 C1651 1.391 . S
C1647 H1619 0.927 1_455 S
C1647 C1648 1.390 1_455 S
C1647 N1650 1.391 . S
C1648 H1620 0.930 . S
C1648 C1647 1.390 1_655 S
C1648 C1649 1.392 . S
C1649 H1621 0.929 . S
C1649 C1646 1.391 1_655 S
C1649 C1648 1.392 . S
N1650 Co1594 2.257 . S
N1650 C1647 1.391 . S
N1650 C1651 1.388 . S
C1651 H1622 0.930 . S
C1651 C1646 1.391 . S
C1651 N1650 1.388 . S
Co1652 O1654 2.143 . S
Co1652 O1660 2.074 . S
Co1652 O1663 2.093 . S
Co1652 O1676 2.097 . S
Co1652 N1693 2.151 . S
Co1652 N1701 2.214 . S
Co1653 O1654 2.160 . S
Co1653 O1659 2.058 . S
Co1653 O1669 2.057 . S
Co1653 O1684 2.037 . S
Co1653 N1688 2.145 . S
Co1653 N1709 2.257 . S
O1654 Co1652 2.143 . S
O1654 Co1653 2.160 . S
C1655 O1656 1.278 . S
C1655 O1663 1.224 . S
O1656 C1655 1.278 . S
C1657 O1658 1.245 . S
C1657 O1669 1.232 . S
O1658 C1657 1.245 . S
O1659 Co1653 2.058 . S
O1659 C1685 1.269 . S
O1660 Co1652 2.074 . S
O1660 C1685 1.257 . S
H1661 C1686 0.930 . S
H1662 C1692 0.930 . S
O1663 Co1652 2.093 . S
O1663 C1655 1.224 . S
H1664 C1696 0.929 . S
H1665 C1698 0.930 . S
H1666 C1699 0.930 . S
H1667 C1697 0.929 . S
H1668 C1700 0.928 . S
O1669 Co1653 2.057 . S
O1669 C1657 1.232 . S
H1670 C1689 0.929 . S
H1671 C1690 0.929 . S
H1672 C1702 0.931 . S
H1673 C1694 0.929 . S
H1674 C1703 0.930 . S
H1675 C1695 0.931 . S
O1676 Co1652 2.097 . S
O1676 C1704 1.214 . S
H1677 C1705 0.929 . S
H1678 C1706 0.929 . S
H1679 C1707 0.930 . S
H1680 C1708 0.929 . S
H1681 C1710 0.930 . S
H1682 C1687 0.930 . S
H1683 C1691 0.930 . S
O1684 Co1653 2.037 . S
O1684 C1704 1.234 . S
C1685 O1659 1.269 . S
C1685 O1660 1.257 . S
C1686 H1661 0.930 . S
C1686 C1689 1.388 . S
C1686 C1691 1.418 . S
C1687 H1682 0.930 . S
C1687 C1690 1.404 . S
C1687 C1691 1.353 . S
N1688 Co1653 2.145 . S
N1688 C1689 1.397 . S
N1688 C1690 1.334 . S
C1689 H1670 0.929 . S
C1689 C1686 1.388 . S
C1689 N1688 1.397 . S
C1690 H1671 0.929 . S
C1690 C1687 1.404 . S
C1690 N1688 1.334 . S
C1691 H1683 0.930 . S
C1691 C1686 1.418 . S
C1691 C1687 1.353 . S
C1692 H1662 0.930 . S
C1692 N1693 1.330 . S
C1692 C1694 1.446 . S
N1693 Co1652 2.151 . S
N1693 C1692 1.330 . S
N1693 C1697 1.418 . S
C1694 H1673 0.929 . S
C1694 C1692 1.446 . S
C1694 C1695 1.332 . S
C1695 H1675 0.931 . S
C1695 C1694 1.332 . S
C1695 C1696 1.267 . S
C1696 H1664 0.929 . S
C1696 C1695 1.267 . S
C1696 C1697 1.251 . S
C1697 H1667 0.929 . S
C1697 N1693 1.418 . S
C1697 C1696 1.251 . S
C1698 H1665 0.930 . S
C1698 C1700 1.406 . S
C1698 C1703 1.261 . S
C1699 H1666 0.930 . S
C1699 N1701 1.325 . S
C1699 C1702 1.357 . S
C1700 H1668 0.928 . S
C1700 C1698 1.406 . S
C1700 N1701 1.261 . S
N1701 Co1652 2.214 . S
N1701 C1699 1.325 . S
N1701 C1700 1.261 . S
C1702 H1672 0.931 . S
C1702 C1699 1.357 . S
C1702 C1703 1.312 . S
C1703 H1674 0.930 . S
C1703 C1698 1.261 . S
C1703 C1702 1.312 . S
C1704 O1676 1.214 . S
C1704 O1684 1.234 . S
C1705 H1677 0.929 . S
C1705 C1708 1.391 . S
C1705 C1710 1.391 . S
C1706 H1678 0.929 . S
C1706 C1707 1.390 . S
C1706 N1709 1.391 . S
C1707 H1679 0.930 . S
C1707 C1706 1.390 . S
C1707 C1708 1.392 . S
C1708 H1680 0.929 . S
C1708 C1705 1.391 . S
C1708 C1707 1.392 . S
N1709 Co1653 2.257 . S
N1709 C1706 1.391 . S
N1709 C1710 1.388 . S
C1710 H1681 0.930 . S
C1710 C1705 1.391 . S
C1710 N1709 1.388 . S
Co1711 O1713 2.143 . S
Co1711 O1719 2.074 . S
Co1711 O1722 2.093 . S
Co1711 O1735 2.097 . S
Co1711 N1752 2.151 . S
Co1711 N1760 2.214 . S
Co1712 O1713 2.160 . S
Co1712 O1718 2.058 . S
Co1712 O1728 2.057 . S
Co1712 O1743 2.037 . S
Co1712 N1747 2.145 . S
Co1712 N1768 2.257 . S
O1713 Co1711 2.143 . S
O1713 Co1712 2.160 . S
C1714 O1715 1.278 . S
C1714 O1722 1.224 . S
O1715 C1714 1.278 . S
C1716 O1717 1.245 . S
C1716 O1728 1.232 . S
O1717 C1716 1.245 . S
O1718 Co1712 2.058 . S
O1718 C1744 1.269 . S
O1719 Co1711 2.074 . S
O1719 C1744 1.257 . S
H1720 C1745 0.930 . S
H1721 C1751 0.930 . S
O1722 Co1711 2.093 . S
O1722 C1714 1.224 . S
H1723 C1755 0.929 . S
H1724 C1757 0.930 . S
H1725 C1758 0.930 . S
H1726 C1756 0.929 . S
H1727 C1759 0.928 . S
O1728 Co1712 2.057 . S
O1728 C1716 1.232 . S
H1729 C1748 0.929 . S
H1730 C1749 0.929 . S
H1731 C1761 0.931 . S
H1732 C1753 0.929 . S
H1733 C1762 0.930 . S
H1734 C1754 0.931 . S
O1735 Co1711 2.097 . S
O1735 C1763 1.214 . S
H1736 C1764 0.929 . S
H1737 C1765 0.927 1_655 S
H1738 C1766 0.930 . S
H1739 C1767 0.929 . S
H1740 C1769 0.930 . S
H1741 C1746 0.930 . S
H1742 C1750 0.930 . S
O1743 Co1712 2.037 . S
O1743 C1763 1.234 . S
C1744 O1718 1.269 . S
C1744 O1719 1.257 . S
C1745 H1720 0.930 . S
C1745 C1748 1.388 . S
C1745 C1750 1.418 . S
C1746 H1741 0.930 . S
C1746 C1749 1.404 . S
C1746 C1750 1.353 . S
N1747 Co1712 2.145 . S
N1747 C1748 1.397 . S
N1747 C1749 1.334 . S
C1748 H1729 0.929 . S
C1748 C1745 1.388 . S
C1748 N1747 1.397 . S
C1749 H1730 0.929 . S
C1749 C1746 1.404 . S
C1749 N1747 1.334 . S
C1750 H1742 0.930 . S
C1750 C1745 1.418 . S
C1750 C1746 1.353 . S
C1751 H1721 0.930 . S
C1751 N1752 1.330 . S
C1751 C1753 1.446 . S
N1752 Co1711 2.151 . S
N1752 C1751 1.330 . S
N1752 C1756 1.418 . S
C1753 H1732 0.929 . S
C1753 C1751 1.446 . S
C1753 C1754 1.332 . S
C1754 H1734 0.931 . S
C1754 C1753 1.332 . S
C1754 C1755 1.267 . S
C1755 H1723 0.929 . S
C1755 C1754 1.267 . S
C1755 C1756 1.251 . S
C1756 H1726 0.929 . S
C1756 N1752 1.418 . S
C1756 C1755 1.251 . S
C1757 H1724 0.930 . S
C1757 C1759 1.406 . S
C1757 C1762 1.261 . S
C1758 H1725 0.930 . S
C1758 N1760 1.325 . S
C1758 C1761 1.357 . S
C1759 H1727 0.928 . S
C1759 C1757 1.406 . S
C1759 N1760 1.261 . S
N1760 Co1711 2.214 . S
N1760 C1758 1.325 . S
N1760 C1759 1.261 . S
C1761 H1731 0.931 . S
C1761 C1758 1.357 . S
C1761 C1762 1.312 . S
C1762 H1733 0.930 . S
C1762 C1757 1.261 . S
C1762 C1761 1.312 . S
C1763 O1735 1.214 . S
C1763 O1743 1.234 . S
C1764 H1736 0.929 . S
C1764 C1767 1.391 1_455 S
C1764 C1769 1.391 . S
C1765 H1737 0.927 1_455 S
C1765 C1766 1.390 1_455 S
C1765 N1768 1.391 . S
C1766 H1738 0.930 . S
C1766 C1765 1.390 1_655 S
C1766 C1767 1.392 . S
C1767 H1739 0.929 . S
C1767 C1764 1.391 1_655 S
C1767 C1766 1.392 . S
N1768 Co1712 2.257 . S
N1768 C1765 1.391 . S
N1768 C1769 1.388 . S
C1769 H1740 0.930 . S
C1769 C1764 1.391 . S
C1769 N1768 1.388 . S
Co1770 O1772 2.143 . S
Co1770 O1778 2.074 . S
Co1770 O1781 2.093 . S
Co1770 O1794 2.097 . S
Co1770 N1811 2.151 . S
Co1770 N1819 2.214 . S
Co1771 O1772 2.160 . S
Co1771 O1777 2.058 . S
Co1771 O1787 2.057 . S
Co1771 O1802 2.037 . S
Co1771 N1806 2.145 . S
Co1771 N1827 2.257 . S
O1772 Co1770 2.143 . S
O1772 Co1771 2.160 . S
C1773 O1774 1.278 . S
C1773 O1781 1.224 . S
O1774 C1773 1.278 . S
C1775 O1776 1.245 . S
C1775 O1787 1.232 . S
O1776 C1775 1.245 . S
O1777 Co1771 2.058 . S
O1777 C1803 1.269 . S
O1778 Co1770 2.074 . S
O1778 C1803 1.257 . S
H1779 C1804 0.930 . S
H1780 C1810 0.930 . S
O1781 Co1770 2.093 . S
O1781 C1773 1.224 . S
H1782 C1814 0.929 . S
H1783 C1816 0.930 . S
H1784 C1817 0.930 . S
H1785 C1815 0.929 . S
H1786 C1818 0.928 . S
O1787 Co1771 2.057 . S
O1787 C1775 1.232 . S
H1788 C1807 0.929 . S
H1789 C1808 0.929 . S
H1790 C1820 0.931 . S
H1791 C1812 0.929 . S
H1792 C1821 0.930 . S
H1793 C1813 0.931 . S
O1794 Co1770 2.097 . S
O1794 C1822 1.214 . S
H1795 C1823 0.929 . S
H1796 C1824 0.929 . S
H1797 C1825 0.930 . S
H1798 C1826 0.929 . S
H1799 C1828 0.930 . S
H1800 C1805 0.930 . S
H1801 C1809 0.930 . S
O1802 Co1771 2.037 . S
O1802 C1822 1.234 . S
C1803 O1777 1.269 . S
C1803 O1778 1.257 . S
C1804 H1779 0.930 . S
C1804 C1807 1.388 . S
C1804 C1809 1.418 . S
C1805 H1800 0.930 . S
C1805 C1808 1.404 . S
C1805 C1809 1.353 . S
N1806 Co1771 2.145 . S
N1806 C1807 1.397 . S
N1806 C1808 1.334 . S
C1807 H1788 0.929 . S
C1807 C1804 1.388 . S
C1807 N1806 1.397 . S
C1808 H1789 0.929 . S
C1808 C1805 1.404 . S
C1808 N1806 1.334 . S
C1809 H1801 0.930 . S
C1809 C1804 1.418 . S
C1809 C1805 1.353 . S
C1810 H1780 0.930 . S
C1810 N1811 1.330 . S
C1810 C1812 1.446 . S
N1811 Co1770 2.151 . S
N1811 C1810 1.330 . S
N1811 C1815 1.418 . S
C1812 H1791 0.929 . S
C1812 C1810 1.446 . S
C1812 C1813 1.332 . S
C1813 H1793 0.931 . S
C1813 C1812 1.332 . S
C1813 C1814 1.267 . S
C1814 H1782 0.929 . S
C1814 C1813 1.267 . S
C1814 C1815 1.251 . S
C1815 H1785 0.929 . S
C1815 N1811 1.418 . S
C1815 C1814 1.251 . S
C1816 H1783 0.930 . S
C1816 C1818 1.406 . S
C1816 C1821 1.261 . S
C1817 H1784 0.930 . S
C1817 N1819 1.325 . S
C1817 C1820 1.357 . S
C1818 H1786 0.928 . S
C1818 C1816 1.406 . S
C1818 N1819 1.261 . S
N1819 Co1770 2.214 . S
N1819 C1817 1.325 . S
N1819 C1818 1.261 . S
C1820 H1790 0.931 . S
C1820 C1817 1.357 . S
C1820 C1821 1.312 . S
C1821 H1792 0.930 . S
C1821 C1816 1.261 . S
C1821 C1820 1.312 . S
C1822 O1794 1.214 . S
C1822 O1802 1.234 . S
C1823 H1795 0.929 . S
C1823 C1826 1.391 . S
C1823 C1828 1.391 . S
C1824 H1796 0.929 . S
C1824 C1825 1.390 . S
C1824 N1827 1.391 . S
C1825 H1797 0.930 . S
C1825 C1824 1.390 . S
C1825 C1826 1.392 . S
C1826 H1798 0.929 . S
C1826 C1823 1.391 . S
C1826 C1825 1.392 . S
N1827 Co1771 2.257 . S
N1827 C1824 1.391 . S
N1827 C1828 1.388 . S
C1828 H1799 0.930 . S
C1828 C1823 1.391 . S
C1828 N1827 1.388 . S
Co1829 O1831 2.143 . S
Co1829 O1837 2.074 . S
Co1829 O1840 2.093 . S
Co1829 O1853 2.097 . S
Co1829 N1870 2.151 . S
Co1829 N1878 2.214 . S
Co1830 O1831 2.160 . S
Co1830 O1836 2.058 . S
Co1830 O1846 2.057 . S
Co1830 O1861 2.037 . S
Co1830 N1865 2.145 . S
Co1830 N1886 2.257 . S
O1831 Co1829 2.143 . S
O1831 Co1830 2.160 . S
C1832 O1833 1.278 . S
C1832 O1840 1.224 . S
O1833 C1832 1.278 . S
C1834 O1835 1.245 . S
C1834 O1846 1.232 . S
O1835 C1834 1.245 . S
O1836 Co1830 2.058 . S
O1836 C1862 1.269 . S
O1837 Co1829 2.074 . S
O1837 C1862 1.257 . S
H1838 C1863 0.930 . S
H1839 C1869 0.930 . S
O1840 Co1829 2.093 . S
O1840 C1832 1.224 . S
H1841 C1873 0.929 . S
H1842 C1875 0.930 . S
H1843 C1876 0.930 . S
H1844 C1874 0.929 . S
H1845 C1877 0.928 . S
O1846 Co1830 2.057 . S
O1846 C1834 1.232 . S
H1847 C1866 0.929 . S
H1848 C1867 0.929 . S
H1849 C1879 0.931 . S
H1850 C1871 0.929 . S
H1851 C1880 0.930 . S
H1852 C1872 0.931 . S
O1853 Co1829 2.097 . S
O1853 C1881 1.214 . S
H1854 C1882 0.929 . S
H1855 C1883 0.929 . S
H1856 C1884 0.930 . S
H1857 C1885 0.929 . S
H1858 C1887 0.930 . S
H1859 C1864 0.930 . S
H1860 C1868 0.930 . S
O1861 Co1830 2.037 . S
O1861 C1881 1.234 . S
C1862 O1836 1.269 . S
C1862 O1837 1.257 . S
C1863 H1838 0.930 . S
C1863 C1866 1.388 . S
C1863 C1868 1.418 . S
C1864 H1859 0.930 . S
C1864 C1867 1.404 . S
C1864 C1868 1.353 . S
N1865 Co1830 2.145 . S
N1865 C1866 1.397 . S
N1865 C1867 1.334 . S
C1866 H1847 0.929 . S
C1866 C1863 1.388 . S
C1866 N1865 1.397 . S
C1867 H1848 0.929 . S
C1867 C1864 1.404 . S
C1867 N1865 1.334 . S
C1868 H1860 0.930 . S
C1868 C1863 1.418 . S
C1868 C1864 1.353 . S
C1869 H1839 0.930 . S
C1869 N1870 1.330 . S
C1869 C1871 1.446 . S
N1870 Co1829 2.151 . S
N1870 C1869 1.330 . S
N1870 C1874 1.418 . S
C1871 H1850 0.929 . S
C1871 C1869 1.446 . S
C1871 C1872 1.332 . S
C1872 H1852 0.931 . S
C1872 C1871 1.332 . S
C1872 C1873 1.267 . S
C1873 H1841 0.929 . S
C1873 C1872 1.267 . S
C1873 C1874 1.251 . S
C1874 H1844 0.929 . S
C1874 N1870 1.418 . S
C1874 C1873 1.251 . S
C1875 H1842 0.930 . S
C1875 C1877 1.406 . S
C1875 C1880 1.261 . S
C1876 H1843 0.930 . S
C1876 N1878 1.325 . S
C1876 C1879 1.357 . S
C1877 H1845 0.928 . S
C1877 C1875 1.406 . S
C1877 N1878 1.261 . S
N1878 Co1829 2.214 . S
N1878 C1876 1.325 . S
N1878 C1877 1.261 . S
C1879 H1849 0.931 . S
C1879 C1876 1.357 . S
C1879 C1880 1.312 . S
C1880 H1851 0.930 . S
C1880 C1875 1.261 . S
C1880 C1879 1.312 . S
C1881 O1853 1.214 . S
C1881 O1861 1.234 . S
C1882 H1854 0.929 . S
C1882 C1885 1.391 . S
C1882 C1887 1.391 . S
C1883 H1855 0.929 . S
C1883 C1884 1.390 . S
C1883 N1886 1.391 . S
C1884 H1856 0.930 . S
C1884 C1883 1.390 . S
C1884 C1885 1.392 . S
C1885 H1857 0.929 . S
C1885 C1882 1.391 . S
C1885 C1884 1.392 . S
N1886 Co1830 2.257 . S
N1886 C1883 1.391 . S
N1886 C1887 1.388 . S
C1887 H1858 0.930 . S
C1887 C1882 1.391 . S
C1887 N1886 1.388 . S
H1888 C1894 0.930 . S
H1889 C1897 0.930 . S
H1890 C1898 0.930 . S
H1891 C1899 0.930 . S
H1892 C1902 0.930 . S
H1893 C1903 0.930 . S
C1894 H1888 0.930 . S
C1894 C1895 1.355 . S
C1894 C1896 1.415 . S
C1895 C1894 1.355 . S
C1895 C1897 1.419 . S
C1896 C1894 1.415 . S
C1896 C1901 1.425 . S
C1896 C1903 1.409 . S
C1897 H1889 0.930 . S
C1897 C1895 1.419 . S
C1897 C1898 1.362 . S
C1898 H1890 0.930 . S
C1898 C1897 1.362 . S
C1898 C1901 1.409 . S
C1899 H1891 0.930 . S
C1899 C1900 1.355 . S
C1899 C1901 1.415 . S
C1900 C1899 1.355 . S
C1900 C1902 1.419 . S
C1901 C1896 1.425 . S
C1901 C1898 1.409 . S
C1901 C1899 1.415 . S
C1902 H1892 0.930 . S
C1902 C1900 1.419 . S
C1902 C1903 1.362 . S
C1903 H1893 0.930 . S
C1903 C1896 1.409 . S
C1903 C1902 1.362 . S
H1904 C1910 0.930 . S
H1905 C1913 0.930 . S
H1906 C1914 0.930 . S
H1907 C1915 0.930 . S
H1908 C1918 0.930 . S
H1909 C1919 0.930 . S
C1910 H1904 0.930 . S
C1910 C1911 1.355 . S
C1910 C1912 1.415 . S
C1911 C1910 1.355 . S
C1911 C1913 1.419 . S
C1912 C1910 1.415 . S
C1912 C1917 1.425 . S
C1912 C1919 1.409 . S
C1913 H1905 0.930 . S
C1913 C1911 1.419 . S
C1913 C1914 1.362 . S
C1914 H1906 0.930 . S
C1914 C1913 1.362 . S
C1914 C1917 1.409 . S
C1915 H1907 0.930 . S
C1915 C1916 1.355 . S
C1915 C1917 1.415 . S
C1916 C1915 1.355 . S
C1916 C1918 1.419 . S
C1917 C1912 1.425 . S
C1917 C1914 1.409 . S
C1917 C1915 1.415 . S
C1918 H1908 0.930 . S
C1918 C1916 1.419 . S
C1918 C1919 1.362 . S
C1919 H1909 0.930 . S
C1919 C1912 1.409 . S
C1919 C1918 1.362 . S
H1920 C1926 0.930 . S
H1921 C1929 0.930 . S
H1922 C1930 0.930 . S
H1923 C1931 0.930 . S
H1924 C1934 0.930 . S
H1925 C1935 0.930 . S
C1926 H1920 0.930 . S
C1926 C1927 1.355 . S
C1926 C1928 1.415 . S
C1927 C1926 1.355 . S
C1927 C1929 1.419 . S
C1928 C1926 1.415 . S
C1928 C1933 1.425 . S
C1928 C1935 1.409 . S
C1929 H1921 0.930 . S
C1929 C1927 1.419 . S
C1929 C1930 1.362 . S
C1930 H1922 0.930 . S
C1930 C1929 1.362 . S
C1930 C1933 1.409 . S
C1931 H1923 0.930 . S
C1931 C1932 1.355 . S
C1931 C1933 1.415 . S
C1932 C1931 1.355 . S
C1932 C1934 1.419 . S
C1933 C1928 1.425 . S
C1933 C1930 1.409 . S
C1933 C1931 1.415 . S
C1934 H1924 0.930 . S
C1934 C1932 1.419 . S
C1934 C1935 1.362 . S
C1935 H1925 0.930 . S
C1935 C1928 1.409 . S
C1935 C1934 1.362 . S
H1936 C1942 0.930 . S
H1937 C1945 0.930 . S
H1938 C1946 0.930 . S
H1939 C1947 0.930 . S
H1940 C1950 0.930 . S
H1941 C1951 0.930 . S
C1942 H1936 0.930 . S
C1942 C1943 1.355 . S
C1942 C1944 1.415 . S
C1943 C1942 1.355 . S
C1943 C1945 1.419 . S
C1944 C1942 1.415 . S
C1944 C1949 1.425 . S
C1944 C1951 1.409 . S
C1945 H1937 0.930 . S
C1945 C1943 1.419 . S
C1945 C1946 1.362 . S
C1946 H1938 0.930 . S
C1946 C1945 1.362 . S
C1946 C1949 1.409 . S
C1947 H1939 0.930 . S
C1947 C1948 1.355 . S
C1947 C1949 1.415 . S
C1948 C1947 1.355 . S
C1948 C1950 1.419 . S
C1949 C1944 1.425 . S
C1949 C1946 1.409 . S
C1949 C1947 1.415 . S
C1950 H1940 0.930 . S
C1950 C1948 1.419 . S
C1950 C1951 1.362 . S
C1951 H1941 0.930 . S
C1951 C1944 1.409 . S
C1951 C1950 1.362 . S
H1952 C1958 0.930 . S
H1953 C1961 0.930 . S
H1954 C1962 0.930 . S
H1955 C1963 0.930 . S
H1956 C1966 0.930 . S
H1957 C1967 0.930 . S
C1958 H1952 0.930 . S
C1958 C1959 1.355 . S
C1958 C1960 1.415 . S
C1959 C1958 1.355 . S
C1959 C1961 1.419 . S
C1960 C1958 1.415 . S
C1960 C1965 1.425 . S
C1960 C1967 1.409 . S
C1961 H1953 0.930 . S
C1961 C1959 1.419 . S
C1961 C1962 1.362 . S
C1962 H1954 0.930 . S
C1962 C1961 1.362 . S
C1962 C1965 1.409 . S
C1963 H1955 0.930 . S
C1963 C1964 1.355 . S
C1963 C1965 1.415 . S
C1964 C1963 1.355 . S
C1964 C1966 1.419 . S
C1965 C1960 1.425 . S
C1965 C1962 1.409 . S
C1965 C1963 1.415 . S
C1966 H1956 0.930 . S
C1966 C1964 1.419 . S
C1966 C1967 1.362 . S
C1967 H1957 0.930 . S
C1967 C1960 1.409 . S
C1967 C1966 1.362 . S
H1968 C1974 0.930 . S
H1969 C1977 0.930 . S
H1970 C1978 0.930 . S
H1971 C1979 0.930 . S
H1972 C1982 0.930 . S
H1973 C1983 0.930 . S
C1974 H1968 0.930 . S
C1974 C1975 1.355 . S
C1974 C1976 1.415 . S
C1975 C1974 1.355 . S
C1975 C1977 1.419 . S
C1976 C1974 1.415 . S
C1976 C1981 1.425 . S
C1976 C1983 1.409 . S
C1977 H1969 0.930 . S
C1977 C1975 1.419 . S
C1977 C1978 1.362 . S
C1978 H1970 0.930 . S
C1978 C1977 1.362 . S
C1978 C1981 1.409 . S
C1979 H1971 0.930 . S
C1979 C1980 1.355 . S
C1979 C1981 1.415 . S
C1980 C1979 1.355 . S
C1980 C1982 1.419 . S
C1981 C1976 1.425 . S
C1981 C1978 1.409 . S
C1981 C1979 1.415 . S
C1982 H1972 0.930 . S
C1982 C1980 1.419 . S
C1982 C1983 1.362 . S
C1983 H1973 0.930 . S
C1983 C1976 1.409 . S
C1983 C1982 1.362 . S
H1984 C1990 0.930 . S
H1985 C1993 0.930 . S
H1986 C1994 0.930 . S
H1987 C1995 0.930 . S
H1988 C1998 0.930 . S
H1989 C1999 0.930 . S
C1990 H1984 0.930 . S
C1990 C1991 1.355 . S
C1990 C1992 1.415 . S
C1991 C1990 1.355 . S
C1991 C1993 1.419 . S
C1992 C1990 1.415 . S
C1992 C1997 1.425 . S
C1992 C1999 1.409 . S
C1993 H1985 0.930 . S
C1993 C1991 1.419 . S
C1993 C1994 1.362 . S
C1994 H1986 0.930 . S
C1994 C1993 1.362 . S
C1994 C1997 1.409 . S
C1995 H1987 0.930 . S
C1995 C1996 1.355 . S
C1995 C1997 1.415 . S
C1996 C1995 1.355 . S
C1996 C1998 1.419 . S
C1997 C1992 1.425 . S
C1997 C1994 1.409 . S
C1997 C1995 1.415 . S
C1998 H1988 0.930 . S
C1998 C1996 1.419 . S
C1998 C1999 1.362 . S
C1999 H1989 0.930 . S
C1999 C1992 1.409 . S
C1999 C1998 1.362 . S
H2000 C2006 0.930 . S
H2001 C2009 0.930 . S
H2002 C2010 0.930 . S
H2003 C2011 0.930 . S
H2004 C2014 0.930 . S
H2005 C2015 0.930 . S
C2006 H2000 0.930 . S
C2006 C2007 1.355 . S
C2006 C2008 1.415 . S
C2007 C2006 1.355 . S
C2007 C2009 1.419 . S
C2008 C2006 1.415 . S
C2008 C2013 1.425 . S
C2008 C2015 1.409 . S
C2009 H2001 0.930 . S
C2009 C2007 1.419 . S
C2009 C2010 1.362 . S
C2010 H2002 0.930 . S
C2010 C2009 1.362 . S
C2010 C2013 1.409 . S
C2011 H2003 0.930 . S
C2011 C2012 1.355 . S
C2011 C2013 1.415 . S
C2012 C2011 1.355 . S
C2012 C2014 1.419 . S
C2013 C2008 1.425 . S
C2013 C2010 1.409 . S
C2013 C2011 1.415 . S
C2014 H2004 0.930 . S
C2014 C2012 1.419 . S
C2014 C2015 1.362 . S
C2015 H2005 0.930 . S
C2015 C2008 1.409 . S
C2015 C2014 1.362 . S
H2016 C2022 0.930 . S
H2017 C2025 0.930 . S
H2018 C2026 0.930 . S
H2019 C2027 0.930 . S
H2020 C2030 0.930 . S
H2021 C2031 0.930 . S
C2022 H2016 0.930 . S
C2022 C2023 1.355 . S
C2022 C2024 1.415 . S
C2023 C2022 1.355 . S
C2023 C2025 1.419 . S
C2024 C2022 1.415 . S
C2024 C2029 1.425 . S
C2024 C2031 1.409 . S
C2025 H2017 0.930 . S
C2025 C2023 1.419 . S
C2025 C2026 1.362 . S
C2026 H2018 0.930 . S
C2026 C2025 1.362 . S
C2026 C2029 1.409 . S
C2027 H2019 0.930 . S
C2027 C2028 1.355 . S
C2027 C2029 1.415 . S
C2028 C2027 1.355 . S
C2028 C2030 1.419 . S
C2029 C2024 1.425 . S
C2029 C2026 1.409 . S
C2029 C2027 1.415 . S
C2030 H2020 0.930 . S
C2030 C2028 1.419 . S
C2030 C2031 1.362 . S
C2031 H2021 0.930 . S
C2031 C2024 1.409 . S
C2031 C2030 1.362 . S
H2032 C2038 0.930 . S
H2033 C2041 0.930 . S
H2034 C2042 0.930 . S
H2035 C2043 0.930 . S
H2036 C2046 0.930 . S
H2037 C2047 0.930 . S
C2038 H2032 0.930 . S
C2038 C2039 1.355 . S
C2038 C2040 1.415 . S
C2039 C2038 1.355 . S
C2039 C2041 1.419 . S
C2040 C2038 1.415 . S
C2040 C2045 1.425 . S
C2040 C2047 1.409 . S
C2041 H2033 0.930 . S
C2041 C2039 1.419 . S
C2041 C2042 1.362 . S
C2042 H2034 0.930 . S
C2042 C2041 1.362 . S
C2042 C2045 1.409 . S
C2043 H2035 0.930 . S
C2043 C2044 1.355 . S
C2043 C2045 1.415 . S
C2044 C2043 1.355 . S
C2044 C2046 1.419 . S
C2045 C2040 1.425 . S
C2045 C2042 1.409 . S
C2045 C2043 1.415 . S
C2046 H2036 0.930 . S
C2046 C2044 1.419 . S
C2046 C2047 1.362 . S
C2047 H2037 0.930 . S
C2047 C2040 1.409 . S
C2047 C2046 1.362 . S
H2048 C2054 0.930 . S
H2049 C2057 0.930 . S
H2050 C2058 0.930 . S
H2051 C2059 0.930 . S
H2052 C2062 0.930 . S
H2053 C2063 0.930 . S
C2054 H2048 0.930 . S
C2054 C2055 1.355 . S
C2054 C2056 1.415 . S
C2055 C2054 1.355 . S
C2055 C2057 1.419 . S
C2056 C2054 1.415 . S
C2056 C2061 1.425 . S
C2056 C2063 1.409 . S
C2057 H2049 0.930 . S
C2057 C2055 1.419 . S
C2057 C2058 1.362 . S
C2058 H2050 0.930 . S
C2058 C2057 1.362 . S
C2058 C2061 1.409 . S
C2059 H2051 0.930 . S
C2059 C2060 1.355 . S
C2059 C2061 1.415 . S
C2060 C2059 1.355 . S
C2060 C2062 1.419 . S
C2061 C2056 1.425 . S
C2061 C2058 1.409 . S
C2061 C2059 1.415 . S
C2062 H2052 0.930 . S
C2062 C2060 1.419 . S
C2062 C2063 1.362 . S
C2063 H2053 0.930 . S
C2063 C2056 1.409 . S
C2063 C2062 1.362 . S
H2064 C2070 0.930 . S
H2065 C2073 0.930 . S
H2066 C2074 0.930 . S
H2067 C2075 0.930 . S
H2068 C2078 0.930 . S
H2069 C2079 0.930 . S
C2070 H2064 0.930 . S
C2070 C2071 1.355 . S
C2070 C2072 1.415 . S
C2071 C2070 1.355 . S
C2071 C2073 1.419 . S
C2072 C2070 1.415 . S
C2072 C2077 1.425 . S
C2072 C2079 1.409 . S
C2073 H2065 0.930 . S
C2073 C2071 1.419 . S
C2073 C2074 1.362 . S
C2074 H2066 0.930 . S
C2074 C2073 1.362 . S
C2074 C2077 1.409 . S
C2075 H2067 0.930 . S
C2075 C2076 1.355 . S
C2075 C2077 1.415 . S
C2076 C2075 1.355 . S
C2076 C2078 1.419 . S
C2077 C2072 1.425 . S
C2077 C2074 1.409 . S
C2077 C2075 1.415 . S
C2078 H2068 0.930 . S
C2078 C2076 1.419 . S
C2078 C2079 1.362 . S
C2079 H2069 0.930 . S
C2079 C2072 1.409 . S
C2079 C2078 1.362 . S
H2080 C2086 0.930 . S
H2081 C2089 0.930 . S
H2082 C2090 0.930 . S
H2083 C2091 0.930 . S
H2084 C2094 0.930 . S
H2085 C2095 0.930 . S
C2086 H2080 0.930 . S
C2086 C2087 1.355 . S
C2086 C2088 1.415 . S
C2087 C2086 1.355 . S
C2087 C2089 1.419 . S
C2088 C2086 1.415 . S
C2088 C2093 1.425 . S
C2088 C2095 1.409 . S
C2089 H2081 0.930 . S
C2089 C2087 1.419 . S
C2089 C2090 1.362 . S
C2090 H2082 0.930 . S
C2090 C2089 1.362 . S
C2090 C2093 1.409 . S
C2091 H2083 0.930 . S
C2091 C2092 1.355 . S
C2091 C2093 1.415 . S
C2092 C2091 1.355 . S
C2092 C2094 1.419 . S
C2093 C2088 1.425 . S
C2093 C2090 1.409 . S
C2093 C2091 1.415 . S
C2094 H2084 0.930 . S
C2094 C2092 1.419 . S
C2094 C2095 1.362 . S
C2095 H2085 0.930 . S
C2095 C2088 1.409 . S
C2095 C2094 1.362 . S
H2096 C2102 0.930 . S
H2097 C2105 0.930 . S
H2098 C2106 0.930 . S
H2099 C2107 0.930 . S
H2100 C2110 0.930 . S
H2101 C2111 0.930 . S
C2102 H2096 0.930 . S
C2102 C2103 1.355 . S
C2102 C2104 1.415 . S
C2103 C2102 1.355 . S
C2103 C2105 1.419 . S
C2104 C2102 1.415 . S
C2104 C2109 1.425 . S
C2104 C2111 1.409 . S
C2105 H2097 0.930 . S
C2105 C2103 1.419 . S
C2105 C2106 1.362 . S
C2106 H2098 0.930 . S
C2106 C2105 1.362 . S
C2106 C2109 1.409 . S
C2107 H2099 0.930 . S
C2107 C2108 1.355 . S
C2107 C2109 1.415 . S
C2108 C2107 1.355 . S
C2108 C2110 1.419 . S
C2109 C2104 1.425 . S
C2109 C2106 1.409 . S
C2109 C2107 1.415 . S
C2110 H2100 0.930 . S
C2110 C2108 1.419 . S
C2110 C2111 1.362 . S
C2111 H2101 0.930 . S
C2111 C2104 1.409 . S
C2111 C2110 1.362 . S
H2112 C2118 0.930 . S
H2113 C2121 0.930 . S
H2114 C2122 0.930 . S
H2115 C2123 0.930 . S
H2116 C2126 0.930 . S
H2117 C2127 0.930 . S
C2118 H2112 0.930 . S
C2118 C2119 1.355 . S
C2118 C2120 1.415 . S
C2119 C2118 1.355 . S
C2119 C2121 1.419 . S
C2120 C2118 1.415 . S
C2120 C2125 1.425 . S
C2120 C2127 1.409 . S
C2121 H2113 0.930 . S
C2121 C2119 1.419 . S
C2121 C2122 1.362 . S
C2122 H2114 0.930 . S
C2122 C2121 1.362 . S
C2122 C2125 1.409 . S
C2123 H2115 0.930 . S
C2123 C2124 1.355 . S
C2123 C2125 1.415 . S
C2124 C2123 1.355 . S
C2124 C2126 1.419 . S
C2125 C2120 1.425 . S
C2125 C2122 1.409 . S
C2125 C2123 1.415 . S
C2126 H2116 0.930 . S
C2126 C2124 1.419 . S
C2126 C2127 1.362 . S
C2127 H2117 0.930 . S
C2127 C2120 1.409 . S
C2127 C2126 1.362 . S
H2128 C2134 0.930 . S
H2129 C2137 0.930 . S
H2130 C2138 0.930 . S
H2131 C2139 0.930 . S
H2132 C2142 0.930 1_655 S
H2133 C2143 0.930 . S
C2134 H2128 0.930 . S
C2134 C2135 1.355 . S
C2134 C2136 1.415 . S
C2135 C2134 1.355 . S
C2135 C2137 1.419 . S
C2136 C2134 1.415 . S
C2136 C2141 1.425 . S
C2136 C2143 1.409 . S
C2137 H2129 0.930 . S
C2137 C2135 1.419 . S
C2137 C2138 1.362 . S
C2138 H2130 0.930 . S
C2138 C2137 1.362 . S
C2138 C2141 1.409 . S
C2139 H2131 0.930 . S
C2139 C2140 1.355 . S
C2139 C2141 1.415 . S
C2140 C2139 1.355 . S
C2140 C2142 1.419 . S
C2141 C2136 1.425 . S
C2141 C2138 1.409 . S
C2141 C2139 1.415 . S
C2142 H2132 0.930 1_455 S
C2142 C2140 1.419 . S
C2142 C2143 1.362 . S
C2143 H2133 0.930 . S
C2143 C2136 1.409 . S
C2143 C2142 1.362 . S
H2144 C2150 0.930 . S
H2145 C2153 0.930 . S
H2146 C2154 0.930 . S
H2147 C2155 0.930 . S
H2148 C2158 0.930 . S
H2149 C2159 0.930 . S
C2150 H2144 0.930 . S
C2150 C2151 1.355 . S
C2150 C2152 1.415 . S
C2151 C2150 1.355 . S
C2151 C2153 1.419 . S
C2152 C2150 1.415 . S
C2152 C2157 1.425 . S
C2152 C2159 1.409 . S
C2153 H2145 0.930 . S
C2153 C2151 1.419 . S
C2153 C2154 1.362 . S
C2154 H2146 0.930 . S
C2154 C2153 1.362 . S
C2154 C2157 1.409 . S
C2155 H2147 0.930 . S
C2155 C2156 1.355 . S
C2155 C2157 1.415 . S
C2156 C2155 1.355 . S
C2156 C2158 1.419 . S
C2157 C2152 1.425 . S
C2157 C2154 1.409 . S
C2157 C2155 1.415 . S
C2158 H2148 0.930 . S
C2158 C2156 1.419 . S
C2158 C2159 1.362 . S
C2159 H2149 0.930 . S
C2159 C2152 1.409 . S
C2159 C2158 1.362 . S
H2160 C2166 0.930 . S
H2161 C2169 0.930 . S
H2162 C2170 0.930 . S
H2163 C2171 0.930 . S
H2164 C2174 0.930 . S
H2165 C2175 0.930 . S
C2166 H2160 0.930 . S
C2166 C2167 1.355 . S
C2166 C2168 1.415 . S
C2167 C2166 1.355 . S
C2167 C2169 1.419 . S
C2168 C2166 1.415 . S
C2168 C2173 1.425 . S
C2168 C2175 1.409 . S
C2169 H2161 0.930 . S
C2169 C2167 1.419 . S
C2169 C2170 1.362 . S
C2170 H2162 0.930 . S
C2170 C2169 1.362 . S
C2170 C2173 1.409 . S
C2171 H2163 0.930 . S
C2171 C2172 1.355 . S
C2171 C2173 1.415 . S
C2172 C2171 1.355 . S
C2172 C2174 1.419 . S
C2173 C2168 1.425 . S
C2173 C2170 1.409 . S
C2173 C2171 1.415 . S
C2174 H2164 0.930 . S
C2174 C2172 1.419 . S
C2174 C2175 1.362 . S
C2175 H2165 0.930 . S
C2175 C2168 1.409 . S
C2175 C2174 1.362 . S
H2176 C2182 0.930 . S
H2177 C2185 0.930 . S
H2178 C2186 0.930 . S
H2179 C2187 0.930 . S
H2180 C2190 0.930 . S
H2181 C2191 0.930 . S
C2182 H2176 0.930 . S
C2182 C2183 1.355 . S
C2182 C2184 1.415 . S
C2183 C2182 1.355 . S
C2183 C2185 1.419 . S
C2184 C2182 1.415 . S
C2184 C2189 1.425 . S
C2184 C2191 1.409 . S
C2185 H2177 0.930 . S
C2185 C2183 1.419 . S
C2185 C2186 1.362 . S
C2186 H2178 0.930 . S
C2186 C2185 1.362 . S
C2186 C2189 1.409 . S
C2187 H2179 0.930 . S
C2187 C2188 1.355 . S
C2187 C2189 1.415 . S
C2188 C2187 1.355 . S
C2188 C2190 1.419 . S
C2189 C2184 1.425 . S
C2189 C2186 1.409 . S
C2189 C2187 1.415 . S
C2190 H2180 0.930 . S
C2190 C2188 1.419 . S
C2190 C2191 1.362 . S
C2191 H2181 0.930 . S
C2191 C2184 1.409 . S
C2191 C2190 1.362 . S
H2192 C2198 0.930 . S
H2193 C2201 0.930 . S
H2194 C2202 0.930 . S
H2195 C2203 0.930 . S
H2196 C2206 0.930 1_655 S
H2197 C2207 0.930 . S
C2198 H2192 0.930 . S
C2198 C2199 1.355 . S
C2198 C2200 1.415 . S
C2199 C2198 1.355 . S
C2199 C2201 1.419 . S
C2200 C2198 1.415 . S
C2200 C2205 1.425 . S
C2200 C2207 1.409 . S
C2201 H2193 0.930 . S
C2201 C2199 1.419 . S
C2201 C2202 1.362 . S
C2202 H2194 0.930 . S
C2202 C2201 1.362 . S
C2202 C2205 1.409 . S
C2203 H2195 0.930 . S
C2203 C2204 1.355 . S
C2203 C2205 1.415 . S
C2204 C2203 1.355 . S
C2204 C2206 1.419 . S
C2205 C2200 1.425 . S
C2205 C2202 1.409 . S
C2205 C2203 1.415 . S
C2206 H2196 0.930 1_455 S
C2206 C2204 1.419 . S
C2206 C2207 1.362 . S
C2207 H2197 0.930 . S
C2207 C2200 1.409 . S
C2207 C2206 1.362 . S
H2208 C2214 0.930 . S
H2209 C2217 0.930 . S
H2210 C2218 0.930 . S
H2211 C2219 0.930 . S
H2212 C2222 0.930 . S
H2213 C2223 0.930 . S
C2214 H2208 0.930 . S
C2214 C2215 1.355 . S
C2214 C2216 1.415 . S
C2215 C2214 1.355 . S
C2215 C2217 1.419 . S
C2216 C2214 1.415 . S
C2216 C2221 1.425 . S
C2216 C2223 1.409 . S
C2217 H2209 0.930 . S
C2217 C2215 1.419 . S
C2217 C2218 1.362 . S
C2218 H2210 0.930 . S
C2218 C2217 1.362 . S
C2218 C2221 1.409 . S
C2219 H2211 0.930 . S
C2219 C2220 1.355 . S
C2219 C2221 1.415 . S
C2220 C2219 1.355 . S
C2220 C2222 1.419 . S
C2221 C2216 1.425 . S
C2221 C2218 1.409 . S
C2221 C2219 1.415 . S
C2222 H2212 0.930 . S
C2222 C2220 1.419 . S
C2222 C2223 1.362 . S
C2223 H2213 0.930 . S
C2223 C2216 1.409 . S
C2223 C2222 1.362 . S
H2224 C2230 0.930 . S
H2225 C2233 0.930 . S
H2226 C2234 0.930 . S
H2227 C2235 0.930 . S
H2228 C2238 0.930 . S
H2229 C2239 0.930 . S
C2230 H2224 0.930 . S
C2230 C2231 1.355 . S
C2230 C2232 1.415 . S
C2231 C2230 1.355 . S
C2231 C2233 1.419 . S
C2232 C2230 1.415 . S
C2232 C2237 1.425 . S
C2232 C2239 1.409 . S
C2233 H2225 0.930 . S
C2233 C2231 1.419 . S
C2233 C2234 1.362 . S
C2234 H2226 0.930 . S
C2234 C2233 1.362 . S
C2234 C2237 1.409 . S
C2235 H2227 0.930 . S
C2235 C2236 1.355 . S
C2235 C2237 1.415 . S
C2236 C2235 1.355 . S
C2236 C2238 1.419 . S
C2237 C2232 1.425 . S
C2237 C2234 1.409 . S
C2237 C2235 1.415 . S
C2238 H2228 0.930 . S
C2238 C2236 1.419 . S
C2238 C2239 1.362 . S
C2239 H2229 0.930 . S
C2239 C2232 1.409 . S
C2239 C2238 1.362 . S
H2240 C2246 0.930 . S
H2241 C2249 0.930 . S
H2242 C2250 0.930 . S
H2243 C2251 0.930 . S
H2244 C2254 0.930 . S
H2245 C2255 0.930 . S
C2246 H2240 0.930 . S
C2246 C2247 1.355 . S
C2246 C2248 1.415 . S
C2247 C2246 1.355 . S
C2247 C2249 1.419 . S
C2248 C2246 1.415 . S
C2248 C2253 1.425 . S
C2248 C2255 1.409 . S
C2249 H2241 0.930 . S
C2249 C2247 1.419 . S
C2249 C2250 1.362 . S
C2250 H2242 0.930 . S
C2250 C2249 1.362 . S
C2250 C2253 1.409 . S
C2251 H2243 0.930 . S
C2251 C2252 1.355 . S
C2251 C2253 1.415 . S
C2252 C2251 1.355 . S
C2252 C2254 1.419 . S
C2253 C2248 1.425 . S
C2253 C2250 1.409 . S
C2253 C2251 1.415 . S
C2254 H2244 0.930 . S
C2254 C2252 1.419 . S
C2254 C2255 1.362 . S
C2255 H2245 0.930 . S
C2255 C2248 1.409 . S
C2255 C2254 1.362 . S
H2256 C2262 0.930 . S
H2257 C2265 0.930 . S
H2258 C2266 0.930 . S
H2259 C2267 0.930 . S
H2260 C2270 0.930 . S
H2261 C2271 0.930 . S
C2262 H2256 0.930 . S
C2262 C2263 1.355 . S
C2262 C2264 1.415 . S
C2263 C2262 1.355 . S
C2263 C2265 1.419 . S
C2264 C2262 1.415 . S
C2264 C2269 1.425 . S
C2264 C2271 1.409 . S
C2265 H2257 0.930 . S
C2265 C2263 1.419 . S
C2265 C2266 1.362 . S
C2266 H2258 0.930 . S
C2266 C2265 1.362 . S
C2266 C2269 1.409 . S
C2267 H2259 0.930 . S
C2267 C2268 1.355 . S
C2267 C2269 1.415 . S
C2268 C2267 1.355 . S
C2268 C2270 1.419 . S
C2269 C2264 1.425 . S
C2269 C2266 1.409 . S
C2269 C2267 1.415 . S
C2270 H2260 0.930 . S
C2270 C2268 1.419 . S
C2270 C2271 1.362 . S
C2271 H2261 0.930 . S
C2271 C2264 1.409 . S
C2271 C2270 1.362 . S
H2272 C2278 0.930 . S
H2273 C2281 0.930 . S
H2274 C2282 0.930 . S
H2275 C2283 0.930 . S
H2276 C2286 0.930 . S
H2277 C2287 0.930 . S
C2278 H2272 0.930 . S
C2278 C2279 1.355 . S
C2278 C2280 1.415 . S
C2279 C2278 1.355 . S
C2279 C2281 1.419 . S
C2280 C2278 1.415 . S
C2280 C2285 1.425 . S
C2280 C2287 1.409 . S
C2281 H2273 0.930 . S
C2281 C2279 1.419 . S
C2281 C2282 1.362 . S
C2282 H2274 0.930 . S
C2282 C2281 1.362 . S
C2282 C2285 1.409 . S
C2283 H2275 0.930 . S
C2283 C2284 1.355 . S
C2283 C2285 1.415 . S
C2284 C2283 1.355 . S
C2284 C2286 1.419 . S
C2285 C2280 1.425 . S
C2285 C2282 1.409 . S
C2285 C2283 1.415 . S
C2286 H2276 0.930 . S
C2286 C2284 1.419 . S
C2286 C2287 1.362 . S
C2287 H2277 0.930 . S
C2287 C2280 1.409 . S
C2287 C2286 1.362 . S
H2288 C2294 0.930 . S
H2289 C2297 0.930 . S
H2290 C2298 0.930 . S
H2291 C2299 0.930 . S
H2292 C2302 0.930 . S
H2293 C2303 0.930 . S
C2294 H2288 0.930 . S
C2294 C2295 1.355 . S
C2294 C2296 1.415 . S
C2295 C2294 1.355 . S
C2295 C2297 1.419 . S
C2296 C2294 1.415 . S
C2296 C2301 1.425 . S
C2296 C2303 1.409 . S
C2297 H2289 0.930 . S
C2297 C2295 1.419 . S
C2297 C2298 1.362 . S
C2298 H2290 0.930 . S
C2298 C2297 1.362 . S
C2298 C2301 1.409 . S
C2299 H2291 0.930 . S
C2299 C2300 1.355 . S
C2299 C2301 1.415 . S
C2300 C2299 1.355 . S
C2300 C2302 1.419 . S
C2301 C2296 1.425 . S
C2301 C2298 1.409 . S
C2301 C2299 1.415 . S
C2302 H2292 0.930 . S
C2302 C2300 1.419 . S
C2302 C2303 1.362 . S
C2303 H2293 0.930 . S
C2303 C2296 1.409 . S
C2303 C2302 1.362 . S
H2304 C2310 0.930 . S
H2305 C2313 0.930 . S
H2306 C2314 0.930 . S
H2307 C2315 0.930 . S
H2308 C2318 0.930 . S
H2309 C2319 0.930 . S
C2310 H2304 0.930 . S
C2310 C2311 1.355 . S
C2310 C2312 1.415 . S
C2311 C2310 1.355 . S
C2311 C2313 1.419 . S
C2312 C2310 1.415 . S
C2312 C2317 1.425 . S
C2312 C2319 1.409 . S
C2313 H2305 0.930 . S
C2313 C2311 1.419 . S
C2313 C2314 1.362 . S
C2314 H2306 0.930 . S
C2314 C2313 1.362 . S
C2314 C2317 1.409 . S
C2315 H2307 0.930 . S
C2315 C2316 1.355 . S
C2315 C2317 1.415 . S
C2316 C2315 1.355 . S
C2316 C2318 1.419 . S
C2317 C2312 1.425 . S
C2317 C2314 1.409 . S
C2317 C2315 1.415 . S
C2318 H2308 0.930 . S
C2318 C2316 1.419 . S
C2318 C2319 1.362 . S
C2319 H2309 0.930 . S
C2319 C2312 1.409 . S
C2319 C2318 1.362 . S
H2320 C2326 0.930 . S
H2321 C2329 0.930 1_455 S
H2322 C2330 0.930 . S
H2323 C2331 0.930 . S
H2324 C2334 0.930 . S
H2325 C2335 0.930 . S
C2326 H2320 0.930 . S
C2326 C2327 1.355 . S
C2326 C2328 1.415 . S
C2327 C2326 1.355 . S
C2327 C2329 1.419 . S
C2328 C2326 1.415 . S
C2328 C2333 1.425 . S
C2328 C2335 1.409 . S
C2329 H2321 0.930 1_655 S
C2329 C2327 1.419 . S
C2329 C2330 1.362 . S
C2330 H2322 0.930 . S
C2330 C2329 1.362 . S
C2330 C2333 1.409 . S
C2331 H2323 0.930 . S
C2331 C2332 1.355 . S
C2331 C2333 1.415 . S
C2332 C2331 1.355 . S
C2332 C2334 1.419 . S
C2333 C2328 1.425 . S
C2333 C2330 1.409 . S
C2333 C2331 1.415 . S
C2334 H2324 0.930 . S
C2334 C2332 1.419 . S
C2334 C2335 1.362 . S
C2335 H2325 0.930 . S
C2335 C2328 1.409 . S
C2335 C2334 1.362 . S
H2336 C2342 0.930 . S
H2337 C2345 0.930 . S
H2338 C2346 0.930 . S
H2339 C2347 0.930 . S
H2340 C2350 0.930 . S
H2341 C2351 0.930 . S
C2342 H2336 0.930 . S
C2342 C2343 1.355 . S
C2342 C2344 1.415 . S
C2343 C2342 1.355 . S
C2343 C2345 1.419 . S
C2344 C2342 1.415 . S
C2344 C2349 1.425 . S
C2344 C2351 1.409 . S
C2345 H2337 0.930 . S
C2345 C2343 1.419 . S
C2345 C2346 1.362 . S
C2346 H2338 0.930 . S
C2346 C2345 1.362 . S
C2346 C2349 1.409 . S
C2347 H2339 0.930 . S
C2347 C2348 1.355 . S
C2347 C2349 1.415 . S
C2348 C2347 1.355 . S
C2348 C2350 1.419 . S
C2349 C2344 1.425 . S
C2349 C2346 1.409 . S
C2349 C2347 1.415 . S
C2350 H2340 0.930 . S
C2350 C2348 1.419 . S
C2350 C2351 1.362 . S
C2351 H2341 0.930 . S
C2351 C2344 1.409 . S
C2351 C2350 1.362 . S
H2352 C2358 0.930 . S
H2353 C2361 0.930 . S
H2354 C2362 0.930 . S
H2355 C2363 0.930 . S
H2356 C2366 0.930 . S
H2357 C2367 0.930 . S
C2358 H2352 0.930 . S
C2358 C2359 1.355 . S
C2358 C2360 1.415 . S
C2359 C2358 1.355 . S
C2359 C2361 1.419 . S
C2360 C2358 1.415 . S
C2360 C2365 1.425 . S
C2360 C2367 1.409 . S
C2361 H2353 0.930 . S
C2361 C2359 1.419 . S
C2361 C2362 1.362 . S
C2362 H2354 0.930 . S
C2362 C2361 1.362 . S
C2362 C2365 1.409 . S
C2363 H2355 0.930 . S
C2363 C2364 1.355 . S
C2363 C2365 1.415 . S
C2364 C2363 1.355 . S
C2364 C2366 1.419 . S
C2365 C2360 1.425 . S
C2365 C2362 1.409 . S
C2365 C2363 1.415 . S
C2366 H2356 0.930 . S
C2366 C2364 1.419 . S
C2366 C2367 1.362 . S
C2367 H2357 0.930 . S
C2367 C2360 1.409 . S
C2367 C2366 1.362 . S
H2368 C2374 0.930 . S
H2369 C2377 0.930 . S
H2370 C2378 0.930 . S
H2371 C2379 0.930 . S
H2372 C2382 0.930 . S
H2373 C2383 0.930 . S
C2374 H2368 0.930 . S
C2374 C2375 1.355 . S
C2374 C2376 1.415 . S
C2375 C2374 1.355 . S
C2375 C2377 1.419 . S
C2376 C2374 1.415 . S
C2376 C2381 1.425 . S
C2376 C2383 1.409 . S
C2377 H2369 0.930 . S
C2377 C2375 1.419 . S
C2377 C2378 1.362 . S
C2378 H2370 0.930 . S
C2378 C2377 1.362 . S
C2378 C2381 1.409 . S
C2379 H2371 0.930 . S
C2379 C2380 1.355 . S
C2379 C2381 1.415 . S
C2380 C2379 1.355 . S
C2380 C2382 1.419 . S
C2381 C2376 1.425 . S
C2381 C2378 1.409 . S
C2381 C2379 1.415 . S
C2382 H2372 0.930 . S
C2382 C2380 1.419 . S
C2382 C2383 1.362 . S
C2383 H2373 0.930 . S
C2383 C2376 1.409 . S
C2383 C2382 1.362 . S
H2384 C2390 0.930 . S
H2385 C2393 0.930 . S
H2386 C2394 0.930 . S
H2387 C2395 0.930 . S
H2388 C2398 0.930 . S
H2389 C2399 0.930 . S
C2390 H2384 0.930 . S
C2390 C2391 1.355 . S
C2390 C2392 1.415 . S
C2391 C2390 1.355 . S
C2391 C2393 1.419 . S
C2392 C2390 1.415 . S
C2392 C2397 1.425 . S
C2392 C2399 1.409 . S
C2393 H2385 0.930 . S
C2393 C2391 1.419 . S
C2393 C2394 1.362 . S
C2394 H2386 0.930 . S
C2394 C2393 1.362 . S
C2394 C2397 1.409 . S
C2395 H2387 0.930 . S
C2395 C2396 1.355 . S
C2395 C2397 1.415 . S
C2396 C2395 1.355 . S
C2396 C2398 1.419 . S
C2397 C2392 1.425 . S
C2397 C2394 1.409 . S
C2397 C2395 1.415 . S
C2398 H2388 0.930 . S
C2398 C2396 1.419 . S
C2398 C2399 1.362 . S
C2399 H2389 0.930 . S
C2399 C2392 1.409 . S
C2399 C2398 1.362 . S
H2400 C2406 0.930 . S
H2401 C2409 0.930 . S
H2402 C2410 0.930 . S
H2403 C2411 0.930 . S
H2404 C2414 0.930 . S
H2405 C2415 0.930 . S
C2406 H2400 0.930 . S
C2406 C2407 1.355 . S
C2406 C2408 1.415 . S
C2407 C2406 1.355 . S
C2407 C2409 1.419 . S
C2408 C2406 1.415 . S
C2408 C2413 1.425 . S
C2408 C2415 1.409 . S
C2409 H2401 0.930 . S
C2409 C2407 1.419 . S
C2409 C2410 1.362 . S
C2410 H2402 0.930 . S
C2410 C2409 1.362 . S
C2410 C2413 1.409 . S
C2411 H2403 0.930 . S
C2411 C2412 1.355 . S
C2411 C2413 1.415 . S
C2412 C2411 1.355 . S
C2412 C2414 1.419 . S
C2413 C2408 1.425 . S
C2413 C2410 1.409 . S
C2413 C2411 1.415 . S
C2414 H2404 0.930 . S
C2414 C2412 1.419 . S
C2414 C2415 1.362 . S
C2415 H2405 0.930 . S
C2415 C2408 1.409 . S
C2415 C2414 1.362 . S
H2416 C2422 0.930 . S
H2417 C2425 0.930 . S
H2418 C2426 0.930 . S
H2419 C2427 0.930 . S
H2420 C2430 0.930 . S
H2421 C2431 0.930 . S
C2422 H2416 0.930 . S
C2422 C2423 1.355 1_545 S
C2422 C2424 1.415 . S
C2423 C2422 1.355 1_565 S
C2423 C2425 1.419 1_455 S
C2424 C2422 1.415 . S
C2424 C2429 1.425 1_445 S
C2424 C2431 1.409 . S
C2425 H2417 0.930 . S
C2425 C2423 1.419 1_655 S
C2425 C2426 1.362 . S
C2426 H2418 0.930 . S
C2426 C2425 1.362 . S
C2426 C2429 1.409 . S
C2427 H2419 0.930 . S
C2427 C2428 1.355 1_565 S
C2427 C2429 1.415 . S
C2428 C2427 1.355 1_545 S
C2428 C2430 1.419 1_655 S
C2429 C2424 1.425 1_665 S
C2429 C2426 1.409 . S
C2429 C2427 1.415 . S
C2430 H2420 0.930 . S
C2430 C2428 1.419 1_455 S
C2430 C2431 1.362 . S
C2431 H2421 0.930 . S
C2431 C2424 1.409 . S
C2431 C2430 1.362 . S
H2432 C2438 0.930 . S
H2433 C2441 0.930 . S
H2434 C2442 0.930 . S
H2435 C2443 0.930 . S
H2436 C2446 0.930 . S
H2437 C2447 0.930 . S
C2438 H2432 0.930 . S
C2438 C2439 1.355 . S
C2438 C2440 1.415 . S
C2439 C2438 1.355 . S
C2439 C2441 1.419 . S
C2440 C2438 1.415 . S
C2440 C2445 1.425 . S
C2440 C2447 1.409 . S
C2441 H2433 0.930 . S
C2441 C2439 1.419 . S
C2441 C2442 1.362 . S
C2442 H2434 0.930 . S
C2442 C2441 1.362 . S
C2442 C2445 1.409 . S
C2443 H2435 0.930 . S
C2443 C2444 1.355 . S
C2443 C2445 1.415 . S
C2444 C2443 1.355 . S
C2444 C2446 1.419 . S
C2445 C2440 1.425 . S
C2445 C2442 1.409 . S
C2445 C2443 1.415 . S
C2446 H2436 0.930 . S
C2446 C2444 1.419 . S
C2446 C2447 1.362 . S
C2447 H2437 0.930 . S
C2447 C2440 1.409 . S
C2447 C2446 1.362 . S
H2448 C2454 0.930 . S
H2449 C2457 0.930 . S
H2450 C2458 0.910 1_556 S
H2451 C2459 0.930 . S
H2452 C2462 0.930 . S
H2453 C2463 0.910 1_554 S
C2454 H2448 0.930 . S
C2454 C2455 1.355 1_565 S
C2454 C2456 1.415 . S
C2455 C2454 1.355 1_545 S
C2455 C2457 1.419 . S
C2456 C2454 1.415 . S
C2456 C2461 1.425 1_564 S
C2456 C2463 1.409 1_554 S
C2457 H2449 0.930 . S
C2457 C2455 1.419 . S
C2457 C2458 1.362 . S
C2458 H2450 0.910 1_554 S
C2458 C2457 1.362 . S
C2458 C2461 1.409 1_554 S
C2459 H2451 0.930 . S
C2459 C2460 1.355 1_545 S
C2459 C2461 1.415 . S
C2460 C2459 1.355 1_565 S
C2460 C2462 1.419 . S
C2461 C2456 1.425 1_546 S
C2461 C2458 1.409 1_556 S
C2461 C2459 1.415 . S
C2462 H2452 0.930 . S
C2462 C2460 1.419 . S
C2462 C2463 1.362 . S
C2463 H2453 0.910 1_556 S
C2463 C2456 1.409 1_556 S
C2463 C2462 1.362 . S
H2464 C2470 0.930 . S
H2465 C2473 0.930 . S
H2466 C2474 0.930 . S
H2467 C2475 0.930 . S
H2468 C2478 0.930 . S
H2469 C2479 0.930 . S
C2470 H2464 0.930 . S
C2470 C2471 1.355 . S
C2470 C2472 1.415 . S
C2471 C2470 1.355 . S
C2471 C2473 1.419 . S
C2472 C2470 1.415 . S
C2472 C2477 1.425 . S
C2472 C2479 1.409 . S
C2473 H2465 0.930 . S
C2473 C2471 1.419 . S
C2473 C2474 1.362 . S
C2474 H2466 0.930 . S
C2474 C2473 1.362 . S
C2474 C2477 1.409 . S
C2475 H2467 0.930 . S
C2475 C2476 1.355 . S
C2475 C2477 1.415 . S
C2476 C2475 1.355 . S
C2476 C2478 1.419 . S
C2477 C2472 1.425 . S
C2477 C2474 1.409 . S
C2477 C2475 1.415 . S
C2478 H2468 0.930 . S
C2478 C2476 1.419 . S
C2478 C2479 1.362 . S
C2479 H2469 0.930 . S
C2479 C2472 1.409 . S
C2479 C2478 1.362 . S
H2480 C2486 0.930 . S
H2481 C2489 0.930 . S
H2482 C2490 0.930 . S
H2483 C2491 0.930 . S
H2484 C2494 0.930 . S
H2485 C2495 0.930 . S
C2486 H2480 0.930 . S
C2486 C2487 1.355 1_545 S
C2486 C2488 1.415 . S
C2487 C2486 1.355 1_565 S
C2487 C2489 1.419 . S
C2488 C2486 1.415 . S
C2488 C2493 1.425 1_545 S
C2488 C2495 1.409 . S
C2489 H2481 0.930 . S
C2489 C2487 1.419 . S
C2489 C2490 1.362 . S
C2490 H2482 0.930 . S
C2490 C2489 1.362 . S
C2490 C2493 1.409 . S
C2491 H2483 0.930 . S
C2491 C2492 1.355 1_565 S
C2491 C2493 1.415 . S
C2492 C2491 1.355 1_545 S
C2492 C2494 1.419 . S
C2493 C2488 1.425 1_565 S
C2493 C2490 1.409 . S
C2493 C2491 1.415 . S
C2494 H2484 0.930 . S
C2494 C2492 1.419 . S
C2494 C2495 1.362 . S
C2495 H2485 0.930 . S
C2495 C2488 1.409 . S
C2495 C2494 1.362 . S
H2496 C2502 0.930 . S
H2497 C2505 0.930 . S
H2498 C2506 0.930 . S
H2499 C2507 0.930 . S
H2500 C2510 0.930 . S
H2501 C2511 0.930 . S
C2502 H2496 0.930 . S
C2502 C2503 1.355 . S
C2502 C2504 1.415 . S
C2503 C2502 1.355 . S
C2503 C2505 1.419 . S
C2504 C2502 1.415 . S
C2504 C2509 1.425 . S
C2504 C2511 1.409 . S
C2505 H2497 0.930 . S
C2505 C2503 1.419 . S
C2505 C2506 1.362 . S
C2506 H2498 0.930 . S
C2506 C2505 1.362 . S
C2506 C2509 1.409 . S
C2507 H2499 0.930 . S
C2507 C2508 1.355 . S
C2507 C2509 1.415 . S
C2508 C2507 1.355 . S
C2508 C2510 1.419 . S
C2509 C2504 1.425 . S
C2509 C2506 1.409 . S
C2509 C2507 1.415 . S
C2510 H2500 0.930 . S
C2510 C2508 1.419 . S
C2510 C2511 1.362 . S
C2511 H2501 0.930 . S
C2511 C2504 1.409 . S
C2511 C2510 1.362 . S
H2512 C2518 0.930 . S
H2513 C2521 0.930 . S
H2514 C2522 0.930 . S
H2515 C2523 0.930 . S
H2516 C2526 0.930 . S
H2517 C2527 0.930 . S
C2518 H2512 0.930 . S
C2518 C2519 1.355 1_565 S
C2518 C2520 1.415 . S
C2519 C2518 1.355 1_545 S
C2519 C2521 1.419 1_455 S
C2520 C2518 1.415 . S
C2520 C2525 1.425 1_466 S
C2520 C2527 1.409 1_556 S
C2521 H2513 0.930 . S
C2521 C2519 1.419 1_655 S
C2521 C2522 1.362 . S
C2522 H2514 0.930 . S
C2522 C2521 1.362 . S
C2522 C2525 1.409 1_556 S
C2523 H2515 0.930 . S
C2523 C2524 1.355 1_545 S
C2523 C2525 1.415 . S
C2524 C2523 1.355 1_565 S
C2524 C2526 1.419 1_655 S
C2525 C2520 1.425 1_644 S
C2525 C2522 1.409 1_554 S
C2525 C2523 1.415 . S
C2526 H2516 0.930 . S
C2526 C2524 1.419 1_455 S
C2526 C2527 1.362 . S
C2527 H2517 0.930 . S
C2527 C2520 1.409 1_554 S
C2527 C2526 1.362 . S
H2528 C2534 0.930 . S
H2529 C2537 0.930 . S
H2530 C2538 0.930 . S
H2531 C2539 0.930 . S
H2532 C2542 0.930 . S
H2533 C2543 0.930 . S
C2534 H2528 0.930 . S
C2534 C2535 1.355 . S
C2534 C2536 1.415 . S
C2535 C2534 1.355 . S
C2535 C2537 1.419 . S
C2536 C2534 1.415 . S
C2536 C2541 1.425 . S
C2536 C2543 1.409 . S
C2537 H2529 0.930 . S
C2537 C2535 1.419 . S
C2537 C2538 1.362 . S
C2538 H2530 0.930 . S
C2538 C2537 1.362 . S
C2538 C2541 1.409 . S
C2539 H2531 0.930 . S
C2539 C2540 1.355 . S
C2539 C2541 1.415 . S
C2540 C2539 1.355 . S
C2540 C2542 1.419 . S
C2541 C2536 1.425 . S
C2541 C2538 1.409 . S
C2541 C2539 1.415 . S
C2542 H2532 0.930 . S
C2542 C2540 1.419 . S
C2542 C2543 1.362 . S
C2543 H2533 0.930 . S
C2543 C2536 1.409 . S
C2543 C2542 1.362 . S
H2544 C2550 0.930 . S
H2545 C2553 0.930 . S
H2546 C2554 0.930 . S
H2547 C2555 0.930 . S
H2548 C2558 0.930 . S
H2549 C2559 0.930 . S
C2550 H2544 0.930 . S
C2550 C2551 1.355 . S
C2550 C2552 1.415 . S
C2551 C2550 1.355 . S
C2551 C2553 1.419 . S
C2552 C2550 1.415 . S
C2552 C2557 1.425 . S
C2552 C2559 1.409 . S
C2553 H2545 0.930 . S
C2553 C2551 1.419 . S
C2553 C2554 1.362 . S
C2554 H2546 0.930 . S
C2554 C2553 1.362 . S
C2554 C2557 1.409 . S
C2555 H2547 0.930 . S
C2555 C2556 1.355 . S
C2555 C2557 1.415 . S
C2556 C2555 1.355 . S
C2556 C2558 1.419 . S
C2557 C2552 1.425 . S
C2557 C2554 1.409 . S
C2557 C2555 1.415 . S
C2558 H2548 0.930 . S
C2558 C2556 1.419 . S
C2558 C2559 1.362 . S
C2559 H2549 0.930 . S
C2559 C2552 1.409 . S
C2559 C2558 1.362 . S
H2560 C2566 0.930 . S
H2561 C2569 0.930 . S
H2562 C2570 0.930 . S
H2563 C2571 0.930 . S
H2564 C2574 0.930 . S
H2565 C2575 0.930 . S
C2566 H2560 0.930 . S
C2566 C2567 1.355 . S
C2566 C2568 1.415 . S
C2567 C2566 1.355 . S
C2567 C2569 1.419 . S
C2568 C2566 1.415 . S
C2568 C2573 1.425 . S
C2568 C2575 1.409 . S
C2569 H2561 0.930 . S
C2569 C2567 1.419 . S
C2569 C2570 1.362 . S
C2570 H2562 0.930 . S
C2570 C2569 1.362 . S
C2570 C2573 1.409 . S
C2571 H2563 0.930 . S
C2571 C2572 1.355 . S
C2571 C2573 1.415 . S
C2572 C2571 1.355 . S
C2572 C2574 1.419 . S
C2573 C2568 1.425 . S
C2573 C2570 1.409 . S
C2573 C2571 1.415 . S
C2574 H2564 0.930 . S
C2574 C2572 1.419 . S
C2574 C2575 1.362 . S
C2575 H2565 0.930 . S
C2575 C2568 1.409 . S
C2575 C2574 1.362 . S
H2576 C2582 0.930 . S
H2577 C2585 0.930 . S
H2578 C2586 0.930 . S
H2579 C2587 0.930 . S
H2580 C2590 0.930 . S
H2581 C2591 0.930 . S
C2582 H2576 0.930 . S
C2582 C2583 1.355 . S
C2582 C2584 1.415 . S
C2583 C2582 1.355 . S
C2583 C2585 1.419 . S
C2584 C2582 1.415 . S
C2584 C2589 1.425 . S
C2584 C2591 1.409 . S
C2585 H2577 0.930 . S
C2585 C2583 1.419 . S
C2585 C2586 1.362 . S
C2586 H2578 0.930 . S
C2586 C2585 1.362 . S
C2586 C2589 1.409 . S
C2587 H2579 0.930 . S
C2587 C2588 1.355 . S
C2587 C2589 1.415 . S
C2588 C2587 1.355 . S
C2588 C2590 1.419 . S
C2589 C2584 1.425 . S
C2589 C2586 1.409 . S
C2589 C2587 1.415 . S
C2590 H2580 0.930 . S
C2590 C2588 1.419 . S
C2590 C2591 1.362 . S
C2591 H2581 0.930 . S
C2591 C2584 1.409 . S
C2591 C2590 1.362 . S
H2592 C2598 0.930 . S
H2593 C2601 0.930 . S
H2594 C2602 0.930 . S
H2595 C2603 0.930 . S
H2596 C2606 0.930 . S
H2597 C2607 0.930 . S
C2598 H2592 0.930 . S
C2598 C2599 1.355 . S
C2598 C2600 1.415 . S
C2599 C2598 1.355 . S
C2599 C2601 1.419 . S
C2600 C2598 1.415 . S
C2600 C2605 1.425 1_554 S
C2600 C2607 1.409 1_554 S
C2601 H2593 0.930 . S
C2601 C2599 1.419 . S
C2601 C2602 1.362 . S
C2602 H2594 0.930 . S
C2602 C2601 1.362 . S
C2602 C2605 1.409 1_554 S
C2603 H2595 0.930 . S
C2603 C2604 1.355 . S
C2603 C2605 1.415 . S
C2604 C2603 1.355 . S
C2604 C2606 1.419 . S
C2605 C2600 1.425 1_556 S
C2605 C2602 1.409 1_556 S
C2605 C2603 1.415 . S
C2606 H2596 0.930 . S
C2606 C2604 1.419 . S
C2606 C2607 1.362 . S
C2607 H2597 0.930 . S
C2607 C2600 1.409 1_556 S
C2607 C2606 1.362 . S
H2608 C2614 0.930 . S
H2609 C2617 0.930 . S
H2610 C2618 0.930 . S
H2611 C2619 0.930 . S
H2612 C2622 0.930 . S
H2613 C2623 0.930 . S
C2614 H2608 0.930 . S
C2614 C2615 1.355 . S
C2614 C2616 1.412 1_455 S
C2615 C2614 1.355 . S
C2615 C2617 1.419 . S
C2616 C2614 1.412 1_655 S
C2616 C2621 1.425 1_655 S
C2616 C2623 1.412 . S
C2617 H2609 0.930 . S
C2617 C2615 1.419 . S
C2617 C2618 1.362 . S
C2618 H2610 0.930 . S
C2618 C2617 1.362 . S
C2618 C2621 1.412 . S
C2619 H2611 0.930 . S
C2619 C2620 1.355 . S
C2619 C2621 1.412 1_655 S
C2620 C2619 1.355 . S
C2620 C2622 1.419 . S
C2621 C2616 1.425 1_455 S
C2621 C2618 1.412 . S
C2621 C2619 1.412 1_455 S
C2622 H2612 0.930 . S
C2622 C2620 1.419 . S
C2622 C2623 1.362 . S
C2623 H2613 0.930 . S
C2623 C2616 1.412 . S
C2623 C2622 1.362 . S
H2624 C2630 0.930 . S
H2625 C2633 0.930 . S
H2626 C2634 0.908 1_556 S
H2627 C2635 0.930 . S
H2628 C2638 0.930 . S
H2629 C2639 0.908 1_554 S
C2630 H2624 0.930 . S
C2630 C2631 1.355 1_655 S
C2630 C2632 1.415 . S
C2631 C2630 1.355 1_455 S
C2631 C2633 1.419 . S
C2632 C2630 1.415 . S
C2632 C2637 1.425 1_654 S
C2632 C2639 1.397 1_554 S
C2633 H2625 0.930 . S
C2633 C2631 1.419 . S
C2633 C2634 1.397 . S
C2634 H2626 0.908 1_554 S
C2634 C2633 1.397 . S
C2634 C2637 1.397 1_554 S
C2635 H2627 0.930 . S
C2635 C2636 1.355 1_455 S
C2635 C2637 1.415 . S
C2636 C2635 1.355 1_655 S
C2636 C2638 1.419 . S
C2637 C2632 1.425 1_456 S
C2637 C2634 1.397 1_556 S
C2637 C2635 1.415 . S
C2638 H2628 0.930 . S
C2638 C2636 1.419 . S
C2638 C2639 1.397 . S
C2639 H2629 0.908 1_556 S
C2639 C2632 1.397 1_556 S
C2639 C2638 1.397 . S
H2640 C2646 0.930 . S
H2641 C2649 0.930 . S
H2642 C2650 0.930 . S
H2643 C2651 0.930 . S
H2644 C2654 0.930 . S
H2645 C2655 0.930 . S
C2646 H2640 0.930 . S
C2646 C2647 1.355 . S
C2646 C2648 1.415 . S
C2647 C2646 1.355 . S
C2647 C2649 1.419 . S
C2648 C2646 1.415 . S
C2648 C2653 1.425 . S
C2648 C2655 1.409 . S
C2649 H2641 0.930 . S
C2649 C2647 1.419 . S
C2649 C2650 1.362 . S
C2650 H2642 0.930 . S
C2650 C2649 1.362 . S
C2650 C2653 1.409 . S
C2651 H2643 0.930 . S
C2651 C2652 1.355 . S
C2651 C2653 1.415 . S
C2652 C2651 1.355 . S
C2652 C2654 1.419 . S
C2653 C2648 1.425 . S
C2653 C2650 1.409 . S
C2653 C2651 1.415 . S
C2654 H2644 0.930 . S
C2654 C2652 1.419 . S
C2654 C2655 1.362 . S
C2655 H2645 0.930 . S
C2655 C2648 1.409 . S
C2655 C2654 1.362 . S
H2656 C2662 0.930 . S
H2657 C2665 0.930 . S
H2658 C2666 0.930 . S
H2659 C2667 0.930 . S
H2660 C2670 0.930 . S
H2661 C2671 0.930 . S
C2662 H2656 0.930 . S
C2662 C2663 1.355 . S
C2662 C2664 1.415 . S
C2663 C2662 1.355 . S
C2663 C2665 1.419 . S
C2664 C2662 1.415 . S
C2664 C2669 1.425 . S
C2664 C2671 1.409 . S
C2665 H2657 0.930 . S
C2665 C2663 1.419 . S
C2665 C2666 1.362 . S
C2666 H2658 0.930 . S
C2666 C2665 1.362 . S
C2666 C2669 1.409 . S
C2667 H2659 0.930 . S
C2667 C2668 1.355 . S
C2667 C2669 1.415 . S
C2668 C2667 1.355 . S
C2668 C2670 1.419 . S
C2669 C2664 1.425 . S
C2669 C2666 1.409 . S
C2669 C2667 1.415 . S
C2670 H2660 0.930 . S
C2670 C2668 1.419 . S
C2670 C2671 1.362 . S
C2671 H2661 0.930 . S
C2671 C2664 1.409 . S
C2671 C2670 1.362 . S
H2672 C2678 0.930 . S
H2673 C2681 0.930 1_565 S
H2674 C2682 0.930 . S
H2675 C2683 0.930 . S
H2676 C2686 0.930 . S
H2677 C2687 0.930 . S
C2678 H2672 0.930 . S
C2678 C2679 1.355 . S
C2678 C2680 1.415 . S
C2679 C2678 1.355 . S
C2679 C2681 1.419 . S
C2680 C2678 1.415 . S
C2680 C2685 1.425 . S
C2680 C2687 1.409 . S
C2681 H2673 0.930 1_545 S
C2681 C2679 1.419 . S
C2681 C2682 1.362 . S
C2682 H2674 0.930 . S
C2682 C2681 1.362 . S
C2682 C2685 1.409 . S
C2683 H2675 0.930 . S
C2683 C2684 1.355 . S
C2683 C2685 1.415 . S
C2684 C2683 1.355 . S
C2684 C2686 1.419 . S
C2685 C2680 1.425 . S
C2685 C2682 1.409 . S
C2685 C2683 1.415 . S
C2686 H2676 0.930 . S
C2686 C2684 1.419 . S
C2686 C2687 1.362 . S
C2687 H2677 0.930 . S
C2687 C2680 1.409 . S
C2687 C2686 1.362 . S
H2688 C2694 0.930 . S
H2689 C2697 0.930 . S
H2690 C2698 0.930 . S
H2691 C2699 0.930 . S
H2692 C2702 0.930 . S
H2693 C2703 0.930 . S
C2694 H2688 0.930 . S
C2694 C2695 1.355 . S
C2694 C2696 1.415 . S
C2695 C2694 1.355 . S
C2695 C2697 1.419 . S
C2696 C2694 1.415 . S
C2696 C2701 1.425 . S
C2696 C2703 1.409 . S
C2697 H2689 0.930 . S
C2697 C2695 1.419 . S
C2697 C2698 1.362 . S
C2698 H2690 0.930 . S
C2698 C2697 1.362 . S
C2698 C2701 1.409 . S
C2699 H2691 0.930 . S
C2699 C2700 1.355 . S
C2699 C2701 1.415 . S
C2700 C2699 1.355 . S
C2700 C2702 1.419 . S
C2701 C2696 1.425 . S
C2701 C2698 1.409 . S
C2701 C2699 1.415 . S
C2702 H2692 0.930 . S
C2702 C2700 1.419 . S
C2702 C2703 1.362 . S
C2703 H2693 0.930 . S
C2703 C2696 1.409 . S
C2703 C2702 1.362 . S
H2704 C2710 0.930 . S
H2705 C2713 0.930 . S
H2706 C2714 0.930 . S
H2707 C2715 0.930 . S
H2708 C2718 0.930 . S
H2709 C2719 0.930 . S
C2710 H2704 0.930 . S
C2710 C2711 1.355 . S
C2710 C2712 1.415 . S
C2711 C2710 1.355 . S
C2711 C2713 1.419 . S
C2712 C2710 1.415 . S
C2712 C2717 1.425 . S
C2712 C2719 1.409 . S
C2713 H2705 0.930 . S
C2713 C2711 1.419 . S
C2713 C2714 1.362 . S
C2714 H2706 0.930 . S
C2714 C2713 1.362 . S
C2714 C2717 1.409 . S
C2715 H2707 0.930 . S
C2715 C2716 1.355 . S
C2715 C2717 1.415 . S
C2716 C2715 1.355 . S
C2716 C2718 1.419 . S
C2717 C2712 1.425 . S
C2717 C2714 1.409 . S
C2717 C2715 1.415 . S
C2718 H2708 0.930 . S
C2718 C2716 1.419 . S
C2718 C2719 1.362 . S
C2719 H2709 0.930 . S
C2719 C2712 1.409 . S
C2719 C2718 1.362 . S
H2720 C2726 0.930 . S
H2721 C2729 0.930 . S
H2722 C2730 0.930 . S
H2723 C2731 0.930 . S
H2724 C2734 0.930 1_545 S
H2725 C2735 0.930 . S
C2726 H2720 0.930 . S
C2726 C2727 1.355 . S
C2726 C2728 1.415 . S
C2727 C2726 1.355 . S
C2727 C2729 1.419 . S
C2728 C2726 1.415 . S
C2728 C2733 1.425 . S
C2728 C2735 1.409 . S
C2729 H2721 0.930 . S
C2729 C2727 1.419 . S
C2729 C2730 1.362 . S
C2730 H2722 0.930 . S
C2730 C2729 1.362 . S
C2730 C2733 1.409 . S
C2731 H2723 0.930 . S
C2731 C2732 1.355 . S
C2731 C2733 1.415 . S
C2732 C2731 1.355 . S
C2732 C2734 1.419 . S
C2733 C2728 1.425 . S
C2733 C2730 1.409 . S
C2733 C2731 1.415 . S
C2734 H2724 0.930 1_565 S
C2734 C2732 1.419 . S
C2734 C2735 1.362 . S
C2735 H2725 0.930 . S
C2735 C2728 1.409 . S
C2735 C2734 1.362 . S
H2736 C2742 0.930 . S
H2737 C2745 0.930 . S
H2738 C2746 0.930 . S
H2739 C2747 0.930 . S
H2740 C2750 0.930 . S
H2741 C2751 0.930 . S
C2742 H2736 0.930 . S
C2742 C2743 1.355 . S
C2742 C2744 1.415 . S
C2743 C2742 1.355 . S
C2743 C2745 1.419 . S
C2744 C2742 1.415 . S
C2744 C2749 1.425 . S
C2744 C2751 1.409 . S
C2745 H2737 0.930 . S
C2745 C2743 1.419 . S
C2745 C2746 1.362 . S
C2746 H2738 0.930 . S
C2746 C2745 1.362 . S
C2746 C2749 1.409 . S
C2747 H2739 0.930 . S
C2747 C2748 1.355 . S
C2747 C2749 1.415 . S
C2748 C2747 1.355 . S
C2748 C2750 1.419 . S
C2749 C2744 1.425 . S
C2749 C2746 1.409 . S
C2749 C2747 1.415 . S
C2750 H2740 0.930 . S
C2750 C2748 1.419 . S
C2750 C2751 1.362 . S
C2751 H2741 0.930 . S
C2751 C2744 1.409 . S
C2751 C2750 1.362 . S
H2752 C2758 0.930 . S
H2753 C2761 0.930 . S
H2754 C2762 0.930 . S
H2755 C2763 0.930 . S
H2756 C2766 0.930 . S
H2757 C2767 0.930 . S
C2758 H2752 0.930 . S
C2758 C2759 1.355 . S
C2758 C2760 1.415 . S
C2759 C2758 1.355 . S
C2759 C2761 1.419 . S
C2760 C2758 1.415 . S
C2760 C2765 1.425 . S
C2760 C2767 1.409 . S
C2761 H2753 0.930 . S
C2761 C2759 1.419 . S
C2761 C2762 1.362 . S
C2762 H2754 0.930 . S
C2762 C2761 1.362 . S
C2762 C2765 1.409 . S
C2763 H2755 0.930 . S
C2763 C2764 1.355 . S
C2763 C2765 1.415 . S
C2764 C2763 1.355 . S
C2764 C2766 1.419 . S
C2765 C2760 1.425 . S
C2765 C2762 1.409 . S
C2765 C2763 1.415 . S
C2766 H2756 0.930 . S
C2766 C2764 1.419 . S
C2766 C2767 1.362 . S
C2767 H2757 0.930 . S
C2767 C2760 1.409 . S
C2767 C2766 1.362 . S
H2768 C2774 0.930 . S
H2769 C2777 0.930 . S
H2770 C2778 0.930 . S
H2771 C2779 0.930 . S
H2772 C2782 0.930 . S
H2773 C2783 0.930 . S
C2774 H2768 0.930 . S
C2774 C2775 1.355 . S
C2774 C2776 1.415 . S
C2775 C2774 1.355 . S
C2775 C2777 1.419 . S
C2776 C2774 1.415 . S
C2776 C2781 1.425 . S
C2776 C2783 1.409 . S
C2777 H2769 0.930 . S
C2777 C2775 1.419 . S
C2777 C2778 1.362 . S
C2778 H2770 0.930 . S
C2778 C2777 1.362 . S
C2778 C2781 1.409 . S
C2779 H2771 0.930 . S
C2779 C2780 1.355 . S
C2779 C2781 1.415 . S
C2780 C2779 1.355 . S
C2780 C2782 1.419 . S
C2781 C2776 1.425 . S
C2781 C2778 1.409 . S
C2781 C2779 1.415 . S
C2782 H2772 0.930 . S
C2782 C2780 1.419 . S
C2782 C2783 1.362 . S
C2783 H2773 0.930 . S
C2783 C2776 1.409 . S
C2783 C2782 1.362 . S
H2784 C2790 0.930 . S
H2785 C2793 0.930 . S
H2786 C2794 0.930 . S
H2787 C2795 0.930 . S
H2788 C2798 0.930 . S
H2789 C2799 0.930 . S
C2790 H2784 0.930 . S
C2790 C2791 1.355 . S
C2790 C2792 1.415 . S
C2791 C2790 1.355 . S
C2791 C2793 1.419 . S
C2792 C2790 1.415 . S
C2792 C2797 1.425 . S
C2792 C2799 1.409 . S
C2793 H2785 0.930 . S
C2793 C2791 1.419 . S
C2793 C2794 1.362 . S
C2794 H2786 0.930 . S
C2794 C2793 1.362 . S
C2794 C2797 1.409 . S
C2795 H2787 0.930 . S
C2795 C2796 1.355 . S
C2795 C2797 1.415 . S
C2796 C2795 1.355 . S
C2796 C2798 1.419 . S
C2797 C2792 1.425 . S
C2797 C2794 1.409 . S
C2797 C2795 1.415 . S
C2798 H2788 0.930 . S
C2798 C2796 1.419 . S
C2798 C2799 1.362 . S
C2799 H2789 0.930 . S
C2799 C2792 1.409 . S
C2799 C2798 1.362 . S
H2800 C2806 0.930 . S
H2801 C2809 0.930 . S
H2802 C2810 0.930 . S
H2803 C2811 0.930 . S
H2804 C2814 0.930 . S
H2805 C2815 0.930 . S
C2806 H2800 0.930 . S
C2806 C2807 1.355 . S
C2806 C2808 1.415 . S
C2807 C2806 1.355 . S
C2807 C2809 1.419 . S
C2808 C2806 1.415 . S
C2808 C2813 1.425 . S
C2808 C2815 1.409 . S
C2809 H2801 0.930 . S
C2809 C2807 1.419 . S
C2809 C2810 1.362 . S
C2810 H2802 0.930 . S
C2810 C2809 1.362 . S
C2810 C2813 1.409 . S
C2811 H2803 0.930 . S
C2811 C2812 1.355 . S
C2811 C2813 1.415 . S
C2812 C2811 1.355 . S
C2812 C2814 1.419 . S
C2813 C2808 1.425 . S
C2813 C2810 1.409 . S
C2813 C2811 1.415 . S
C2814 H2804 0.930 . S
C2814 C2812 1.419 . S
C2814 C2815 1.362 . S
C2815 H2805 0.930 . S
C2815 C2808 1.409 . S
C2815 C2814 1.362 . S
H2816 C2822 0.930 . S
H2817 C2825 0.930 . S
H2818 C2826 0.930 . S
H2819 C2827 0.930 . S
H2820 C2830 0.930 . S
H2821 C2831 0.930 . S
C2822 H2816 0.930 . S
C2822 C2823 1.355 . S
C2822 C2824 1.415 . S
C2823 C2822 1.355 . S
C2823 C2825 1.419 . S
C2824 C2822 1.415 . S
C2824 C2829 1.425 . S
C2824 C2831 1.409 . S
C2825 H2817 0.930 . S
C2825 C2823 1.419 . S
C2825 C2826 1.362 . S
C2826 H2818 0.930 . S
C2826 C2825 1.362 . S
C2826 C2829 1.409 . S
C2827 H2819 0.930 . S
C2827 C2828 1.355 . S
C2827 C2829 1.415 . S
C2828 C2827 1.355 . S
C2828 C2830 1.419 . S
C2829 C2824 1.425 . S
C2829 C2826 1.409 . S
C2829 C2827 1.415 . S
C2830 H2820 0.930 . S
C2830 C2828 1.419 . S
C2830 C2831 1.362 . S
C2831 H2821 0.930 . S
C2831 C2824 1.409 . S
C2831 C2830 1.362 . S
H2832 C2838 0.930 . S
H2833 C2841 0.930 . S
H2834 C2842 0.930 . S
H2835 C2843 0.930 . S
H2836 C2846 0.930 . S
H2837 C2847 0.930 . S
C2838 H2832 0.930 . S
C2838 C2839 1.355 . S
C2838 C2840 1.415 . S
C2839 C2838 1.355 . S
C2839 C2841 1.419 . S
C2840 C2838 1.415 . S
C2840 C2845 1.425 . S
C2840 C2847 1.409 . S
C2841 H2833 0.930 . S
C2841 C2839 1.419 . S
C2841 C2842 1.362 . S
C2842 H2834 0.930 . S
C2842 C2841 1.362 . S
C2842 C2845 1.409 . S
C2843 H2835 0.930 . S
C2843 C2844 1.355 . S
C2843 C2845 1.415 . S
C2844 C2843 1.355 . S
C2844 C2846 1.419 . S
C2845 C2840 1.425 . S
C2845 C2842 1.409 . S
C2845 C2843 1.415 . S
C2846 H2836 0.930 . S
C2846 C2844 1.419 . S
C2846 C2847 1.362 . S
C2847 H2837 0.930 . S
C2847 C2840 1.409 . S
C2847 C2846 1.362 . S
H2848 C2854 0.930 . S
H2849 C2857 0.930 . S
H2850 C2858 0.930 . S
H2851 C2859 0.930 . S
H2852 C2862 0.930 . S
H2853 C2863 0.930 . S
C2854 H2848 0.930 . S
C2854 C2855 1.355 . S
C2854 C2856 1.415 . S
C2855 C2854 1.355 . S
C2855 C2857 1.419 . S
C2856 C2854 1.415 . S
C2856 C2861 1.425 . S
C2856 C2863 1.409 . S
C2857 H2849 0.930 . S
C2857 C2855 1.419 . S
C2857 C2858 1.362 . S
C2858 H2850 0.930 . S
C2858 C2857 1.362 . S
C2858 C2861 1.409 . S
C2859 H2851 0.930 . S
C2859 C2860 1.355 . S
C2859 C2861 1.415 . S
C2860 C2859 1.355 . S
C2860 C2862 1.419 . S
C2861 C2856 1.425 . S
C2861 C2858 1.409 . S
C2861 C2859 1.415 . S
C2862 H2852 0.930 . S
C2862 C2860 1.419 . S
C2862 C2863 1.362 . S
C2863 H2853 0.930 . S
C2863 C2856 1.409 . S
C2863 C2862 1.362 . S
H2864 C2870 0.930 . S
H2865 C2873 0.930 . S
H2866 C2874 0.930 . S
H2867 C2875 0.930 . S
H2868 C2878 0.930 . S
H2869 C2879 0.930 . S
C2870 H2864 0.930 . S
C2870 C2871 1.355 . S
C2870 C2872 1.415 . S
C2871 C2870 1.355 . S
C2871 C2873 1.419 . S
C2872 C2870 1.415 . S
C2872 C2877 1.425 . S
C2872 C2879 1.409 . S
C2873 H2865 0.930 . S
C2873 C2871 1.419 . S
C2873 C2874 1.362 . S
C2874 H2866 0.930 . S
C2874 C2873 1.362 . S
C2874 C2877 1.409 . S
C2875 H2867 0.930 . S
C2875 C2876 1.355 . S
C2875 C2877 1.415 . S
C2876 C2875 1.355 . S
C2876 C2878 1.419 . S
C2877 C2872 1.425 . S
C2877 C2874 1.409 . S
C2877 C2875 1.415 . S
C2878 H2868 0.930 . S
C2878 C2876 1.419 . S
C2878 C2879 1.362 . S
C2879 H2869 0.930 . S
C2879 C2872 1.409 . S
C2879 C2878 1.362 . S
H2880 C2886 0.930 . S
H2881 C2889 0.930 . S
H2882 C2890 0.930 . S
H2883 C2891 0.930 . S
H2884 C2894 0.930 . S
H2885 C2895 0.930 . S
C2886 H2880 0.930 . S
C2886 C2887 1.355 . S
C2886 C2888 1.415 . S
C2887 C2886 1.355 . S
C2887 C2889 1.419 . S
C2888 C2886 1.415 . S
C2888 C2893 1.425 . S
C2888 C2895 1.409 . S
C2889 H2881 0.930 . S
C2889 C2887 1.419 . S
C2889 C2890 1.362 . S
C2890 H2882 0.930 . S
C2890 C2889 1.362 . S
C2890 C2893 1.409 . S
C2891 H2883 0.930 . S
C2891 C2892 1.355 . S
C2891 C2893 1.415 . S
C2892 C2891 1.355 . S
C2892 C2894 1.419 . S
C2893 C2888 1.425 . S
C2893 C2890 1.409 . S
C2893 C2891 1.415 . S
C2894 H2884 0.930 . S
C2894 C2892 1.419 . S
C2894 C2895 1.362 . S
C2895 H2885 0.930 . S
C2895 C2888 1.409 . S
C2895 C2894 1.362 . S
H2896 C2902 0.930 . S
H2897 C2905 0.930 . S
H2898 C2906 0.930 . S
H2899 C2907 0.930 . S
H2900 C2910 0.930 . S
H2901 C2911 0.930 . S
C2902 H2896 0.930 . S
C2902 C2903 1.355 . S
C2902 C2904 1.415 . S
C2903 C2902 1.355 . S
C2903 C2905 1.419 . S
C2904 C2902 1.415 . S
C2904 C2909 1.425 . S
C2904 C2911 1.409 . S
C2905 H2897 0.930 . S
C2905 C2903 1.419 . S
C2905 C2906 1.362 . S
C2906 H2898 0.930 . S
C2906 C2905 1.362 . S
C2906 C2909 1.409 . S
C2907 H2899 0.930 . S
C2907 C2908 1.355 . S
C2907 C2909 1.415 . S
C2908 C2907 1.355 . S
C2908 C2910 1.419 . S
C2909 C2904 1.425 . S
C2909 C2906 1.409 . S
C2909 C2907 1.415 . S
C2910 H2900 0.930 . S
C2910 C2908 1.419 . S
C2910 C2911 1.362 . S
C2911 H2901 0.930 . S
C2911 C2904 1.409 . S
C2911 C2910 1.362 . S
C1895 C1626 1.443 . S
C1900 C52 1.438 . S
C1911 C111 1.441 1_655 S
C1916 C505 1.436 . S
C1927 C1508 1.436 . S
C1932 C170 1.441 . S
C1943 C229 1.437 . S
C1948 C623 1.440 . S
C1959 C288 1.438 . S
C1964 C1744 1.442 . S
C1975 C347 1.442 . S
C1980 C859 1.446 . S
C1991 C406 1.444 . S
C1996 C1862 1.438 . S
C2007 C465 1.437 1_655 S
C2012 C741 1.438 . S
C2023 C1154 1.443 . S
C2028 C524 1.446 . S
C2039 C33 1.441 . S
C2044 C583 1.437 1_455 S
C2055 C1036 1.446 . S
C2060 C642 1.441 . S
C2071 C701 1.437 . S
C2076 C151 1.436 . S
C2087 C1272 1.436 . S
C2092 C760 1.438 . S
C2103 C387 1.446 . S
C2108 C819 1.442 . S
C2119 C878 1.446 . S
C2124 C1390 1.443 . S
C2135 C269 1.445 . S
C2140 C937 1.445 1_455 S
C2151 C996 1.441 . S
C2156 C682 1.436 . S
C2167 C1055 1.446 . S
C2172 C1449 1.444 . S
C2183 C564 1.435 . S
C2188 C1114 1.439 . S
C2199 C1567 1.446 . S
C2204 C1173 1.445 1_455 S
C2215 C800 1.446 . S
C2220 C1232 1.442 . S
C2231 C1803 1.436 . S
C2236 C1291 1.437 1_455 S
C2247 C918 1.444 . S
C2252 C1350 1.439 . S
C2263 C1409 1.442 . S
C2268 C1685 1.446 . S
C2279 C210 1.444 . S
C2284 C1468 1.440 . S
C2295 C1527 1.444 . S
C2300 C977 1.446 . S
C2311 C1586 1.442 . S
C2316 C92 1.446 . S
C2327 C1645 1.446 1_655 S
C2332 C1095 1.444 . S
C2343 C1704 1.446 . S
C2348 C328 1.443 . S
C2359 C1763 1.445 1_655 S
C2364 C1331 1.441 . S
C2375 C1822 1.439 . S
C2380 C446 1.435 . S
C2391 C1881 1.440 . S
C2396 C1213 1.445 . S
C2407 C1419 1.509 . S
C2412 C3 1.509 . S
C2423 C62 1.476 . S
C2428 C534 1.476 . S
C2439 C1537 1.514 . S
C2444 C121 1.514 . S
C2455 C180 1.471 . S
C2460 C652 1.471 . S
C2471 C1655 1.508 . S
C2476 C239 1.508 . S
C2487 C298 1.472 . S
C2492 C770 1.472 . S
C2503 C1773 1.472 . S
C2508 C357 1.472 . S
C2519 C416 1.471 . S
C2524 C888 1.471 . S
C2535 C475 1.474 . S
C2540 C947 1.474 . S
C2551 C593 1.513 . S
C2556 C1065 1.513 . S
C2567 C711 1.481 . S
C2572 C1183 1.481 . S
C2583 C829 1.471 . S
C2588 C1301 1.471 . S
C2599 C1006 1.474 . S
C2604 C1478 1.474 . S
C2615 C1596 1.486 . S
C2620 C1124 1.486 . S
C2631 C1714 1.513 . S
C2636 C1242 1.513 . S
C2647 C1360 1.513 . S
C2652 C1832 1.513 . S
C2663 C5 1.632 . S
C2668 C300 1.621 . S
C2679 C64 1.618 . S
C2684 C359 1.630 . S
C2695 C123 1.619 . S
C2700 C418 1.623 . S
C2711 C241 1.627 . S
C2716 C182 1.633 . S
C2727 C477 1.633 . S
C2732 C772 1.624 . S
C2743 C536 1.633 . S
C2748 C831 1.625 . S
C2759 C595 1.621 . S
C2764 C890 1.620 . S
C2775 C654 1.621 . S
C2780 C713 1.620 . S
C2791 C949 1.632 . S
C2796 C1244 1.621 . S
C2807 C1303 1.633 . S
C2812 C1008 1.621 . S
C2823 C1067 1.623 . S
C2828 C1362 1.633 . S
C2839 C1126 1.629 . S
C2844 C1185 1.618 . S
C2855 C1716 1.631 . S
C2860 C1421 1.619 . S
C2871 C1480 1.619 . S
C2876 C1775 1.631 . S
C2887 C1834 1.631 . S
C2892 C1539 1.619 . S
C2903 C1598 1.629 . S
C2908 C1657 1.618 . S
