# Generated by pormake.
# Topology sml, (6)-cn, num edge types: 1
# Building blocks:
#     Node 0, Type 0, BuildingBlock: BETFEN_clean_sbu_0, # of connection points: 6
#     Node 1, Type 0, BuildingBlock: BETFEN_clean_sbu_0, # of connection points: 6
#     Node 2, Type 0, BuildingBlock: BETFEN_clean_sbu_0, # of connection points: 6
#     Node 3, Type 0, BuildingBlock: BETFEN_clean_sbu_0, # of connection points: 6
#     Node 4, Type 0, BuildingBlock: BETFEN_clean_sbu_0, # of connection points: 6
#     Node 5, Type 0, BuildingBlock: BETFEN_clean_sbu_0, # of connection points: 6
#     Edge 6, Type (0, 0), BuildingBlock: KIFKEQ_clean_linker_1, # of connection points: 2
#     Edge 7, Type (0, 0), BuildingBlock: KIFKEQ_clean_linker_1, # of connection points: 2
#     Edge 8, Type (0, 0), BuildingBlock: KIFKEQ_clean_linker_1, # of connection points: 2
#     Edge 9, Type (0, 0), BuildingBlock: KIFKEQ_clean_linker_1, # of connection points: 2
#     Edge 10, Type (0, 0), BuildingBlock: KIFKEQ_clean_linker_1, # of connection points: 2
#     Edge 11, Type (0, 0), BuildingBlock: KIFKEQ_clean_linker_1, # of connection points: 2
#     Edge 12, Type (0, 0), BuildingBlock: KIFKEQ_clean_linker_1, # of connection points: 2
#     Edge 13, Type (0, 0), BuildingBlock: KIFKEQ_clean_linker_1, # of connection points: 2
#     Edge 14, Type (0, 0), BuildingBlock: KIFKEQ_clean_linker_1, # of connection points: 2
#     Edge 15, Type (0, 0), BuildingBlock: KIFKEQ_clean_linker_1, # of connection points: 2
#     Edge 16, Type (0, 0), BuildingBlock: KIFKEQ_clean_linker_1, # of connection points: 2
#     Edge 17, Type (0, 0), BuildingBlock: KIFKEQ_clean_linker_1, # of connection points: 2
#     Edge 18, Type (0, 0), BuildingBlock: KIFKEQ_clean_linker_1, # of connection points: 2
#     Edge 19, Type (0, 0), BuildingBlock: KIFKEQ_clean_linker_1, # of connection points: 2
#     Edge 20, Type (0, 0), BuildingBlock: KIFKEQ_clean_linker_1, # of connection points: 2
#     Edge 21, Type (0, 0), BuildingBlock: KIFKEQ_clean_linker_1, # of connection points: 2
#     Edge 22, Type (0, 0), BuildingBlock: KIFKEQ_clean_linker_1, # of connection points: 2
#     Edge 23, Type (0, 0), BuildingBlock: KIFKEQ_clean_linker_1, # of connection points: 2
# Relax obj value: 0.189
# Max RMSD: 0.220
# Mean RMSD: 0.220
data_MOF--net-sml--node1-BETFEN_clean_sbu_0--edge1-KIFKEQ_clean_linker_1
_symmetry_space_group_name_H-M    P1
_symmetry_Int_Tables_number       1
_symmetry_cell_setting            triclinic
loop_
_symmetry_equiv_pos_as_xyz
'x, y, z'
_cell_length_a     33.165088
_cell_length_b     33.036946
_cell_length_c     25.479405
_cell_angle_alpha  89.678486
_cell_angle_beta   90.070945
_cell_angle_gamma 119.99957
loop_
_atom_site_label
_atom_site_type_symbol
_atom_site_fract_x
_atom_site_fract_y
_atom_site_fract_z
_atom_type_partial_charge
Pr0 Pr 0.26894 0.41641 0.22835 0.0
Pr1 Pr 0.20141 0.38527 0.13221 0.0
C2 C 0.3115 0.44097 0.32248 0.0
C3 C 0.29962 0.43519 0.37881 0.0
C4 C 0.32629 0.42529 0.41373 0.0
C5 C 0.31548 0.41888 0.46723 0.0
C6 C 0.27781 0.42246 0.48696 0.0
C7 C 0.25114 0.43253 0.45185 0.0
C8 C 0.2618 0.43862 0.39819 0.0
C9 C 0.27866 0.35787 0.15769 0.0
C10 C 0.15661 0.33285 0.2421 0.0
C11 C 0.15993 0.35821 0.0377 0.0
C12 C 0.17338 0.36238 0.98215 0.0
C13 C 0.13907 0.34862 0.94346 0.0
C14 C 0.15124 0.3542 0.89036 0.0
C15 C 0.19813 0.37398 0.87484 0.0
C16 C 0.23242 0.3869 0.91399 0.0
C17 C 0.22012 0.38113 0.96722 0.0
C18 C 0.19313 0.44614 0.20081 0.0
C19 C 0.31142 0.47222 0.11835 0.0
O20 O 0.30101 0.46796 0.29484 0.0
O21 O 0.30393 0.40332 0.29753 0.0
O22 O 0.24042 0.35341 0.17285 0.0
O23 O 0.3135 0.39185 0.18197 0.0
O24 O 0.15245 0.3279 0.19074 0.0
O25 O 0.19476 0.36621 0.26447 0.0
O26 O 0.16983 0.3319 0.06732 0.0
O27 O 0.16786 0.39682 0.06066 0.0
O28 O 0.23107 0.44935 0.18658 0.0
O29 O 0.15783 0.41247 0.17666 0.0
O30 O 0.31651 0.47631 0.16988 0.0
O31 O 0.27433 0.4373 0.09635 0.0
H32 H 0.35557 0.42245 0.39955 0.0
H33 H 0.33699 0.41167 0.49328 0.0
H34 H 0.22158 0.43498 0.46575 0.0
H35 H 0.24038 0.44579 0.37191 0.0
H36 H 0.1028 0.33385 0.95434 0.0
H37 H 0.1238 0.34292 0.86144 0.0
H38 H 0.26886 0.40252 0.90361 0.0
H39 H 0.2471 0.39186 0.99668 0.0
Pr40 Pr 0.75754 0.18323 0.45408 0.0
Pr41 Pr 0.81484 0.23513 0.55417 0.0
C42 C 0.7111 0.16108 0.36225 0.0
C43 C 0.72379 0.17011 0.30628 0.0
C44 C 0.69013 0.16409 0.26905 0.0
C45 C 0.70192 0.17292 0.2158 0.0
C46 C 0.74765 0.18784 0.1988 0.0
C47 C 0.78137 0.1941 0.23646 0.0
C48 C 0.76959 0.18549 0.28971 0.0
C49 C 0.758 0.12494 0.53332 0.0
C50 C 0.86827 0.21382 0.45583 0.0
C51 C 0.86167 0.25989 0.64578 0.0
C52 C 0.84976 0.25351 0.70208 0.0
C53 C 0.88345 0.28071 0.73939 0.0
C54 C 0.87258 0.27458 0.793 0.0
C55 C 0.82776 0.24087 0.81042 0.0
C56 C 0.79404 0.21384 0.77257 0.0
C57 C 0.80489 0.2203 0.71899 0.0
C58 C 0.81248 0.2922 0.47445 0.0
C59 C 0.7048 0.20504 0.55364 0.0
O60 O 0.71871 0.19744 0.39005 0.0
O61 O 0.72258 0.13336 0.38677 0.0
O62 O 0.75473 0.1609 0.54008 0.0
O63 O 0.75734 0.1156 0.48369 0.0
O64 O 0.86885 0.22343 0.50626 0.0
O65 O 0.8319 0.20308 0.4257 0.0
O66 O 0.85284 0.22215 0.61994 0.0
O67 O 0.85075 0.28726 0.61959 0.0
O68 O 0.81712 0.25706 0.46829 0.0
O69 O 0.81234 0.30147 0.52398 0.0
O70 O 0.7039 0.1958 0.50293 0.0
O71 O 0.7409 0.21432 0.58344 0.0
H72 H 0.65465 0.15243 0.28114 0.0
H73 H 0.67502 0.16734 0.18783 0.0
H74 H 0.81702 0.20617 0.22483 0.0
H75 H 0.79623 0.19086 0.31798 0.0
H76 H 0.9182 0.30678 0.72706 0.0
H77 H 0.89923 0.29664 0.82074 0.0
H78 H 0.75937 0.18716 0.78427 0.0
H79 H 0.77828 0.19923 0.69075 0.0
Pr80 Pr 0.55286 0.81325 0.87173 0.0
Pr81 Pr 0.57787 0.77058 0.77425 0.0
C82 C 0.51821 0.82683 0.96143 0.0
C83 C 0.52511 0.82204 0.01806 0.0
C84 C 0.52412 0.85342 0.05414 0.0
C85 C 0.53064 0.84919 0.10785 0.0
C86 C 0.53821 0.81334 0.12672 0.0
C87 C 0.53927 0.78201 0.09019 0.0
C88 C 0.53299 0.78641 0.03653 0.0
C89 C 0.62413 0.87735 0.80638 0.0
C90 C 0.63913 0.79175 0.88075 0.0
C91 C 0.59864 0.75116 0.67871 0.0
C92 C 0.5932 0.76008 0.62304 0.0
C93 C 0.6164 0.74967 0.58412 0.0
C94 C 0.61107 0.75719 0.53104 0.0
C95 C 0.58224 0.77517 0.51572 0.0
C96 C 0.55919 0.7858 0.55504 0.0
C97 C 0.56477 0.77849 0.6082 0.0
C98 C 0.5276 0.70779 0.85461 0.0
C99 C 0.4926 0.79722 0.76272 0.0
O100 O 0.49738 0.78802 0.93457 0.0
O101 O 0.55313 0.86084 0.93611 0.0
O102 O 0.58706 0.84209 0.79199 0.0
O103 O 0.62465 0.88263 0.857 0.0
O104 O 0.64264 0.79482 0.82897 0.0
O105 O 0.60308 0.78946 0.90552 0.0
O106 O 0.62805 0.78734 0.70641 0.0
O107 O 0.56039 0.72286 0.70432 0.0
O108 O 0.52133 0.73989 0.83716 0.0
O109 O 0.55966 0.70508 0.82812 0.0
O110 O 0.49974 0.81383 0.81113 0.0
O111 O 0.51678 0.77938 0.74192 0.0
H112 H 0.51841 0.88134 0.04076 0.0
H113 H 0.53034 0.87446 0.13448 0.0
H114 H 0.54434 0.75358 0.10306 0.0
H115 H 0.53412 0.76179 1.00948 0.0
H116 H 0.63845 0.7354 0.59478 0.0
H117 H 0.62891 0.74809 0.5019 0.0
H118 H 0.5372 0.80021 0.54478 0.0
H119 H 0.54683 0.78712 0.63767 0.0
Pr120 Pr 0.80072 0.5525 0.09094 0.0
Pr121 Pr 0.75301 0.57624 0.19165 0.0
C122 C 0.81827 0.52127 1.00146 0.0
C123 C 0.81355 0.52791 0.94459 0.0
C124 C 0.83718 0.57258 0.92126 0.0
C125 C 0.83217 0.57845 0.86769 0.0
C126 C 0.80325 0.53989 0.8361 0.0
C127 C 0.77943 0.49524 0.85954 0.0
C128 C 0.78466 0.48934 0.91315 0.0
C129 C 0.86056 0.61247 0.16741 0.0
C130 C 0.782 0.64199 0.0847 0.0
C131 C 0.74131 0.6053 0.28588 0.0
C132 C 0.74958 0.60029 0.34227 0.0
C133 C 0.71187 0.57059 0.37468 0.0
C134 C 0.71865 0.56497 0.42778 0.0
C135 C 0.76336 0.5891 0.4501 0.0
C136 C 0.80114 0.61915 0.41777 0.0
C137 C 0.7943 0.62489 0.36454 0.0
C138 C 0.68808 0.52991 0.11115 0.0
C139 C 0.76675 0.48214 0.19703 0.0
O140 O 0.77957 0.49699 0.02816 0.0
O141 O 0.85019 0.5574 0.02722 0.0
O142 O 0.82129 0.57696 0.1753 0.0
O143 O 0.87218 0.61643 0.11803 0.0
O144 O 0.77921 0.64191 0.13665 0.0
O145 O 0.78357 0.60831 0.05844 0.0
O146 O 0.77751 0.63092 0.25565 0.0
O147 O 0.7089 0.56765 0.26268 0.0
O148 O 0.73031 0.5417 0.11272 0.0
O149 O 0.67694 0.54239 0.15464 0.0
O150 O 0.78466 0.49013 0.14891 0.0
O151 O 0.75358 0.5094 0.22033 0.0
H152 H 0.85941 0.6032 0.94436 0.0
H153 H 0.85045 0.61339 0.85116 0.0
H154 H 0.75718 0.46473 0.83631 0.0
H155 H 0.76604 0.45455 0.93009 0.0
H156 H 0.67692 0.55144 0.35889 0.0
H157 H 0.68881 0.54113 0.45122 0.0
H158 H 0.83595 0.63882 0.43376 0.0
H159 H 0.82402 0.6487 0.341 0.0
Pr160 Pr 0.16093 0.73237 0.53097 0.0
Pr161 Pr 0.19882 0.79649 0.43337 0.0
C162 C 0.14288 0.69022 0.62581 0.0
C163 C 0.14996 0.70288 0.68146 0.0
C164 C 0.13796 0.66793 0.71949 0.0
C165 C 0.14381 0.67927 0.77274 0.0
C166 C 0.16169 0.72584 0.78878 0.0
C167 C 0.17397 0.76086 0.75033 0.0
C168 C 0.16824 0.74945 0.69705 0.0
C169 C 0.09314 0.71759 0.45746 0.0
C170 C 0.18705 0.84432 0.5376 0.0
C171 C 0.21964 0.83868 0.33858 0.0
C172 C 0.21136 0.82622 0.28287 0.0
C173 C 0.2434 0.85631 0.24552 0.0
C174 C 0.23657 0.84507 0.1923 0.0
C175 C 0.1974 0.80348 0.17544 0.0
C176 C 0.16531 0.77329 0.21321 0.0
C177 C 0.17229 0.78452 0.26654 0.0
C178 C 0.26525 0.80469 0.50674 0.0
C179 C 0.17581 0.68672 0.4255 0.0
O180 O 0.18028 0.70073 0.59857 0.0
O181 O 0.11343 0.69866 0.60066 0.0
O182 O 0.12594 0.7575 0.47039 0.0
O183 O 0.09308 0.68441 0.48502 0.0
O184 O 0.18579 0.84555 0.48602 0.0
O185 O 0.1843 0.80797 0.56305 0.0
O186 O 0.1836 0.83185 0.36638 0.0
O187 O 0.24695 0.82706 0.36335 0.0
O188 O 0.23129 0.76745 0.49056 0.0
O189 O 0.26748 0.84081 0.48337 0.0
O190 O 0.17729 0.68546 0.47723 0.0
O191 O 0.17552 0.72166 0.40032 0.0
H192 H 0.12375 0.63179 0.708 0.0
H193 H 0.13354 0.65146 0.80139 0.0
H194 H 0.18837 0.7971 0.76142 0.0
H195 H 0.17791 0.77686 0.66804 0.0
H196 H 0.27391 0.88846 0.25757 0.0
H197 H 0.26237 0.86868 0.16443 0.0
H198 H 0.13456 0.74123 0.20153 0.0
H199 H 0.14723 0.76075 0.29496 0.0
Pr200 Pr 0.40658 0.26246 0.73786 0.0
Pr201 Pr 0.38113 0.19705 0.83549 0.0
C202 C 0.43191 0.30505 0.64331 0.0
C203 C 0.42669 0.29284 0.58746 0.0
C204 C 0.45001 0.32803 0.5498 0.0
C205 C 0.44432 0.31724 0.49637 0.0
C206 C 0.41505 0.27099 0.47972 0.0
C207 C 0.39205 0.23571 0.51781 0.0
C208 C 0.39789 0.24656 0.57126 0.0
C209 C 0.34691 0.27039 0.80816 0.0
C210 C 0.32589 0.14821 0.72942 0.0
C211 C 0.36139 0.15509 0.93046 0.0
C212 C 0.36413 0.16799 0.98595 0.0
C213 C 0.36485 0.138 0.02446 0.0
C214 C 0.3686 0.14996 0.07743 0.0
C215 C 0.37153 0.19218 0.09295 0.0
C216 C 0.37076 0.22224 0.054 0.0
C217 C 0.36725 0.21029 1.0009 0.0
C218 C 0.44454 0.19482 0.76508 0.0
C219 C 0.45913 0.30986 0.84752 0.0
O220 O 0.45828 0.29396 0.67098 0.0
O221 O 0.39397 0.29694 0.66792 0.0
O222 O 0.34464 0.2323 0.79559 0.0
O223 O 0.37826 0.30516 0.78074 0.0
O224 O 0.32216 0.14599 0.78092 0.0
O225 O 0.35829 0.1861 0.70496 0.0
O226 O 0.33064 0.1587 0.90166 0.0
O227 O 0.40113 0.1695 0.90646 0.0
O228 O 0.44459 0.23085 0.78072 0.0
O229 O 0.41167 0.15743 0.78748 0.0
O230 O 0.46458 0.31321 0.79595 0.0
O231 O 0.42524 0.2721 0.8701 0.0
H232 H 0.47228 0.36398 0.56173 0.0
H233 H 0.46209 0.34528 0.46807 0.0
H234 H 0.36976 0.19967 0.50631 0.0
H235 H 0.37974 0.21896 0.59993 0.0
H236 H 0.36294 0.10543 0.01351 0.0
H237 H 0.37001 0.12642 0.10616 0.0
H238 H 0.37252 0.2548 0.06454 0.0
H239 H 0.36712 0.23408 0.97155 0.0
H240 H 0.36058 0.35294 0.84464 0.0
H241 H 0.28809 0.20517 0.88013 0.0
H242 H 0.33932 0.36879 0.93014 0.0
H243 H 0.26739 0.22137 0.96711 0.0
H244 H 0.2118 0.2854 0.10003 0.0
H245 H 0.22186 0.25976 0.01299 0.0
H246 H 0.36928 0.35853 0.02011 0.0
H247 H 0.35929 0.38449 0.10576 0.0
C248 C 0.33968 0.32372 0.87056 0.0
C249 C 0.32695 0.27787 0.85634 0.0
C250 C 0.32774 0.33288 0.9196 0.0
C251 C 0.30268 0.29639 0.95549 0.0
C252 C 0.287 0.25009 0.94011 0.0
C253 C 0.2991 0.24088 0.89069 0.0
C254 C 0.24627 0.30138 0.08285 0.0
C255 C 0.2846 0.3375 0.10903 0.0
C256 C 0.25202 0.28653 0.03342 0.0
C257 C 0.29618 0.3078 1.0097 0.0
C258 C 0.33471 0.34222 0.03719 0.0
C259 C 0.32902 0.35682 0.08637 0.0
H260 H 0.06608 0.28449 0.21111 0.0
H261 H 0.15366 0.31736 0.34807 0.0
H262 H -0.00249 0.24834 0.26628 0.0
H263 H 0.08463 0.27847 0.40367 0.0
H264 H 0.95782 0.27263 0.4859 0.0
H265 H 0.02818 0.29334 0.4364 0.0
H266 H 0.94604 0.18898 0.32047 0.0
H267 H 0.8755 0.17074 0.36855 0.0
C268 C 0.07065 0.28275 0.25301 0.0
C269 C 0.11531 0.30412 0.27524 0.0
C270 C 0.03112 0.26164 0.28487 0.0
C271 C 0.03517 0.26054 0.33981 0.0
C272 C 0.07999 0.27954 0.36172 0.0
C273 C 0.11963 0.3015 0.32983 0.0
C274 C 0.95498 0.25368 0.45023 0.0
C275 C 0.91123 0.22052 0.43069 0.0
C276 C -0.00457 0.26533 0.42185 0.0
C277 C -0.00694 0.24334 0.37379 0.0
C278 C 0.9493 0.20773 0.35638 0.0
C279 C 0.90882 0.19692 0.38414 0.0
H280 H 0.74008 0.13149 0.63589 0.0
H281 H 0.75951 0.04324 0.52674 0.0
H282 H 0.71872 0.07262 0.70436 0.0
H283 H 0.73894 0.98427 0.59565 0.0
H284 H 0.69571 0.96584 0.82694 0.0
H285 H 0.73985 0.02795 0.76254 0.0
H286 H 0.666 0.93145 0.63691 0.0
H287 H 0.62306 0.86995 0.70069 0.0
C288 C 0.74082 0.09988 0.62695 0.0
C289 C 0.75094 0.09166 0.57595 0.0
C290 C 0.72884 0.06619 0.66629 0.0
C291 C 0.72678 0.02351 0.65544 0.0
C292 C 0.73948 0.01647 0.60505 0.0
C293 C 0.75136 0.05022 0.56564 0.0
C294 C 0.68977 0.9579 0.7855 0.0
C295 C 0.65576 0.9133 0.76877 0.0
C296 C 0.71479 0.99342 0.74865 0.0
C297 C 0.70626 0.98478 0.69454 0.0
C298 C 0.674 0.93932 0.6781 0.0
C299 C 0.64908 0.90405 0.71477 0.0
H300 H 0.63762 0.77642 0.98607 0.0
H301 H 0.71701 0.79084 0.84573 0.0
H302 H 0.6844 0.75197 0.0349 0.0
H303 H 0.76534 0.7678 0.8955 0.0
H304 H 0.77475 0.64675 0.97841 0.0
H305 H 0.75156 0.69492 0.92985 0.0
H306 H 0.75618 0.76744 0.07242 0.0
H307 H 0.77778 0.71769 0.12173 0.0
C308 C 0.66583 0.77546 0.96581 0.0
C309 C 0.67303 0.78484 0.91169 0.0
C310 C 0.69308 0.7618 0.9941 0.0
C311 C 0.72851 0.75749 0.96913 0.0
C312 C 0.73778 0.76993 0.91574 0.0
C313 C 0.71022 0.78335 0.88725 0.0
C314 C 0.77166 0.67347 0.99945 0.0
C315 C 0.7772 0.67765 0.05424 0.0
C316 C 0.75869 0.7015 0.97136 0.0
C317 C 0.75133 0.73472 0.99726 0.0
C318 C 0.76053 0.74146 0.05142 0.0
C319 C 0.77316 0.71309 0.07967 0.0
H320 H 0.01714 0.63472 0.43583 0.0
H321 H 0.0906 0.77936 0.38645 0.0
H322 H 0.96043 0.61658 0.3667 0.0
H323 H 0.03318 0.76099 0.31618 0.0
H324 H 0.95236 0.68061 0.16022 0.0
H325 H 0.00848 0.71262 0.23244 0.0
H326 H 0.89793 0.63297 0.34344 0.0
H327 H 0.84249 0.60034 0.27169 0.0
C328 C 0.02096 0.66279 0.41034 0.0
C329 C 0.05824 0.70847 0.41651 0.0
C330 C 0.98825 0.65243 0.37088 0.0
C331 C -0.00791 0.68745 0.33633 0.0
C332 C 0.02944 0.73334 0.34231 0.0
C333 C 0.06213 0.74386 0.38245 0.0
C334 C 0.94008 0.67068 0.20017 0.0
C335 C 0.89324 0.63768 0.21041 0.0
C336 C 0.97209 0.68916 0.24146 0.0
C337 C 0.95763 0.6748 0.29346 0.0
C338 C 0.91021 0.64407 0.30367 0.0
C339 C 0.87841 0.6256 0.2626 0.0
H340 H 0.25306 0.06594 0.76541 0.0
H341 H 0.33272 0.13233 0.62522 0.0
H342 H 0.21184 0.9919 0.71918 0.0
H343 H 0.29195 0.05804 0.57932 0.0
H344 H 0.19182 0.924 0.49894 0.0
H345 H 0.21794 -0.00241 0.54444 0.0
H346 H 0.23289 0.93561 0.68756 0.0
H347 H 0.20606 0.86177 0.64239 0.0
C348 C 0.26148 0.06493 0.72456 0.0
C349 C 0.2965 0.1051 0.69915 0.0
C350 C 0.23798 0.02235 0.69817 0.0
C351 C 0.2489 0.01889 0.64574 0.0
C352 C 0.28236 0.05954 0.61957 0.0
C353 C 0.30587 0.10219 0.64596 0.0
C354 C 0.20007 0.92581 0.54031 0.0
C355 C 0.19712 0.88698 0.56692 0.0
C356 C 0.21529 0.96814 0.56629 0.0
C357 C 0.2279 0.97266 0.61949 0.0
C358 C 0.22301 0.93324 0.64668 0.0
C359 C 0.20775 0.89087 0.6207 0.0
H360 H 0.16082 0.40335 0.7978 0.0
H361 H 0.26474 0.36288 0.82316 0.0
H362 H 0.17963 0.4141 0.70486 0.0
H363 H 0.28545 0.37622 0.73035 0.0
H364 H 0.27492 0.35497 0.5522 0.0
H365 H 0.25662 0.34385 0.64564 0.0
H366 H 0.23788 0.46427 0.64432 0.0
H367 H 0.25532 0.4747 0.55065 0.0
C368 C 0.1877 0.39668 0.78359 0.0
C369 C 0.21097 0.38187 0.81811 0.0
C370 C 0.199 0.40355 0.73024 0.0
C371 C 0.23417 0.39615 0.70987 0.0
C372 C 0.25778 0.38173 0.74444 0.0
C373 C 0.24631 0.37463 0.79788 0.0
C374 C 0.26713 0.3792 0.57198 0.0
C375 C 0.26651 0.41568 0.54397 0.0
C376 C 0.25678 0.37293 0.62564 0.0
C377 C 0.24578 0.40316 0.65276 0.0
C378 C 0.24538 0.43979 0.62467 0.0
C379 C 0.25544 0.44585 0.57093 0.0
H380 H 0.80144 0.16244 0.14195 0.0
H381 H 0.72175 0.2327 0.12706 0.0
H382 H 0.82064 0.17532 0.04882 0.0
H383 H 0.74155 0.24638 0.03407 0.0
H384 H 0.74582 0.22114 0.85892 0.0
H385 H 0.7266 0.20772 0.95184 0.0
H386 H 0.8653 0.2338 0.98539 0.0
H387 H 0.88363 0.24448 0.89215 0.0
C388 C 0.78844 0.18112 0.11889 0.0
C389 C 0.76 0.19648 0.14201 0.0
C390 C 0.79952 0.18861 0.06541 0.0
C391 C 0.7827 0.21194 0.03362 0.0
C392 C 0.75449 0.22756 0.05693 0.0
C393 C 0.74319 0.21981 0.11036 0.0
C394 C 0.7721 0.22344 0.88595 0.0
C395 C 0.81631 0.23381 0.86767 0.0
C396 C 0.76125 0.21638 0.93952 0.0
C397 C 0.79437 0.21972 0.97645 0.0
C398 C 0.83865 0.23033 0.95821 0.0
C399 C 0.84942 0.23715 0.90462 0.0
H400 H 0.64872 0.81103 0.43832 0.0
H401 H 0.50167 0.75543 0.46439 0.0
H402 H 0.63846 0.82122 0.34541 0.0
H403 H 0.49115 0.76493 0.37129 0.0
H404 H 0.49458 0.8278 0.21039 0.0
H405 H 0.50618 0.82084 0.30365 0.0
H406 H 0.60688 0.77862 0.26673 0.0
H407 H 0.59719 0.78807 0.17364 0.0
C408 C 0.61409 0.80062 0.42416 0.0
C409 C 0.57602 0.78232 0.45897 0.0
C410 C 0.60815 0.80637 0.37072 0.0
C411 C 0.56391 0.79378 0.35043 0.0
C412 C 0.52588 0.77575 0.38539 0.0
C413 C 0.53188 0.77022 0.43891 0.0
C414 C 0.51969 0.81765 0.22207 0.0
C415 C 0.54496 0.80861 0.1841 0.0
C416 C 0.52589 0.81301 0.27575 0.0
C417 C 0.55745 0.79905 0.29311 0.0
C418 C 0.58269 0.79001 0.25512 0.0
C419 C 0.57662 0.79481 0.20148 0.0
H420 H 0.87098 0.5958 0.76553 0.0
H421 H 0.72328 0.49887 0.77748 0.0
H422 H 0.86187 0.60841 0.67287 0.0
H423 H 0.71437 0.51034 0.68441 0.0
H424 H 0.70794 0.58256 0.53321 0.0
H425 H 0.71779 0.57019 0.62557 0.0
H426 H 0.84426 0.56912 0.58833 0.0
H427 H 0.83435 0.58141 0.49573 0.0
C428 C 0.83655 0.57717 0.74839 0.0
C429 C 0.79784 0.54642 0.77907 0.0
C430 C 0.8314 0.58402 0.69508 0.0
C431 C 0.78738 0.56046 0.67107 0.0
C432 C 0.74871 0.52949 0.70169 0.0
C433 C 0.75389 0.52249 0.75496 0.0
C434 C 0.73767 0.57931 0.54457 0.0
C435 C 0.77024 0.58282 0.50684 0.0
C436 C 0.7433 0.57217 0.59763 0.0
C437 C 0.7817 0.56842 0.61449 0.0
C438 C 0.81456 0.5724 0.57687 0.0
C439 C 0.8089 0.5795 0.52373 0.0
H440 H 0.19567 0.69336 0.86606 0.0
H441 H 0.13948 0.78479 0.83955 0.0
H442 H 0.2033 0.71181 0.95933 0.0
H443 H 0.14667 0.80295 0.9329 0.0
H444 H 0.21272 0.86233 0.09232 0.0
H445 H 0.20483 0.84385 0.9992 0.0
H446 H 0.1565 0.69901 0.03695 0.0
H447 H 0.16651 0.71793 0.1301 0.0
C448 C 0.18461 0.71712 0.88026 0.0
C449 C 0.16698 0.73762 0.84544 0.0
C450 C 0.18887 0.72762 0.93372 0.0
C451 C 0.17548 0.75877 0.95366 0.0
C452 C 0.15794 0.77934 0.91876 0.0
C453 C 0.15382 0.76895 0.86526 0.0
C454 C 0.2008 0.82661 0.08077 0.0
C455 C 0.19048 0.79166 0.11871 0.0
C456 C 0.19573 0.8159 0.02736 0.0
C457 C 0.18007 0.76995 1.01056 0.0
C458 C 0.16921 0.73488 0.04851 0.0
C459 C 0.17437 0.74561 0.10196 0.0
H460 H 0.48078 0.30366 0.40175 0.0
H461 H 0.33352 0.21321 0.42902 0.0
H462 H 0.46923 0.28561 0.30839 0.0
H463 H 0.32184 0.19544 0.33564 0.0
H464 H 0.32724 0.13462 0.17672 0.0
H465 H 0.33806 0.15394 0.26954 0.0
H466 H 0.43527 0.29809 0.23037 0.0
H467 H 0.42616 0.27827 0.13742 0.0
C468 C 0.44587 0.28023 0.38772 0.0
C469 C 0.40809 0.25979 0.42284 0.0
C470 C 0.43921 0.26996 0.33417 0.0
C471 C 0.39458 0.2391 0.31441 0.0
C472 C 0.35679 0.21879 0.34958 0.0
C473 C 0.36348 0.22895 0.40314 0.0
C474 C 0.35122 0.17039 0.18785 0.0
C475 C 0.37606 0.2048 0.14951 0.0
C476 C 0.35699 0.1816 0.24113 0.0
C477 C 0.38759 0.22758 0.25752 0.0
C478 C 0.41187 0.2622 0.21918 0.0
C479 C 0.40618 0.25095 0.16581 0.0
H480 H 0.26216 0.51579 0.25845 0.0
H481 H 0.11593 0.45237 0.22153 0.0
H482 H 0.25589 0.57161 0.31583 0.0
H483 H 0.11007 0.50912 0.27759 0.0
H484 H 0.14529 0.66122 0.32515 0.0
H485 H 0.14807 0.60094 0.27261 0.0
H486 H 0.20977 0.5674 0.40278 0.0
H487 H 0.20629 0.62716 0.4559 0.0
C488 C 0.2287 0.51363 0.26285 0.0
C489 C 0.18952 0.47966 0.23578 0.0
C490 C 0.22511 0.5455 0.29564 0.0
C491 C 0.1825 0.54456 0.30101 0.0
C492 C 0.14335 0.51066 0.27386 0.0
C493 C 0.14672 0.47821 0.24193 0.0
C494 C 0.15918 0.64079 0.34268 0.0
C495 C 0.17556 0.64886 0.39463 0.0
C496 C 0.16058 0.60623 0.31269 0.0
C497 C 0.17921 0.57971 0.33372 0.0
C498 C 0.19546 0.5876 0.38567 0.0
C499 C 0.1932 0.62155 0.41606 0.0
H500 H 0.61318 0.15996 0.52168 0.0
H501 H 0.70522 0.24808 0.64388 0.0
H502 H 0.54673 0.15681 0.56834 0.0
H503 H 0.63961 0.24523 0.68951 0.0
H504 H 0.52191 0.27148 0.72835 0.0
H505 H 0.5822 0.27414 0.67131 0.0
H506 H 0.506 0.12362 0.66062 0.0
H507 H 0.44531 0.12087 0.71818 0.0
C508 C 0.61925 0.17889 0.5581 0.0
C509 C 0.66436 0.20417 0.57916 0.0
C510 C 0.58131 0.17687 0.58485 0.0
C511 C 0.58819 0.20094 0.63236 0.0
C512 C 0.63337 0.22675 0.65272 0.0
C513 C 0.67091 0.22812 0.62665 0.0
C514 C 0.51778 0.23895 0.71352 0.0
C515 C 0.47925 0.19592 0.72809 0.0
C516 C 0.55229 0.2405 0.68093 0.0
C517 C 0.5488 0.19908 0.66181 0.0
C518 C 0.50934 0.15605 0.67462 0.0
C519 C 0.47491 0.15447 0.70781 0.0
H520 H 0.29982 0.48733 0.01616 0.0
H521 H 0.40272 0.53801 0.13988 0.0
H522 H 0.35571 0.54656 0.9569 0.0
H523 H 0.45942 0.59749 0.07913 0.0
H524 H 0.54629 0.64871 0.91194 0.0
H525 H 0.49739 0.59365 0.98103 0.0
H526 H 0.39812 0.64088 0.96282 0.0
H527 H 0.44676 0.69589 0.89473 0.0
C528 C 0.3345 0.51091 0.03074 0.0
C529 C 0.34678 0.50801 0.08293 0.0
C530 C 0.3664 0.54494 0.99671 0.0
C531 C 0.41162 0.57654 0.01364 0.0
C532 C 0.42463 0.57332 0.06534 0.0
C533 C 0.39222 0.53954 0.09999 0.0
C534 C 0.51418 0.64744 0.92313 0.0
C535 C 0.50002 0.67617 0.89781 0.0
C536 C 0.48653 0.61635 0.96279 0.0
C537 C 0.44411 0.61315 0.97693 0.0
C538 C 0.43066 0.64271 0.95243 0.0
C539 C 0.45849 0.67413 0.91354 0.0
H540 H 0.81113 0.27573 0.36936 0.0
H541 H 0.79671 0.36524 0.48145 0.0
H542 H 0.7952 0.31526 0.29765 0.0
H543 H 0.78206 0.40555 0.41004 0.0
H544 H 0.71285 0.4402 0.2827 0.0
H545 H 0.72172 0.39053 0.34681 0.0
H546 H 0.82978 0.39117 0.25169 0.0
H547 H 0.82024 0.44052 0.1866 0.0
C548 C 0.80478 0.30403 0.3786 0.0
C549 C 0.80493 0.31736 0.43096 0.0
C550 C 0.79585 0.32677 0.33753 0.0
C551 C 0.78694 0.36329 0.3481 0.0
C552 C 0.78781 0.37691 0.40056 0.0
C553 C 0.79662 0.35414 0.4415 0.0
C554 C 0.73801 0.42916 0.27492 0.0
C555 C 0.76622 0.44474 0.22981 0.0
C556 C 0.74334 0.40096 0.31194 0.0
C557 C 0.77722 0.38779 0.30502 0.0
C558 C 0.80336 0.40073 0.25821 0.0
C559 C 0.79784 0.42892 0.22085 0.0
H560 H 0.26671 0.73041 0.54923 0.0
H561 H 0.3353 0.88101 0.55688 0.0
H562 H 0.31934 0.73008 0.61536 0.0
H563 H 0.38909 0.88069 0.6233 0.0
H564 H 0.44685 0.84678 0.77779 0.0
H565 H 0.39063 0.85094 0.71825 0.0
H566 H 0.40438 0.75766 0.61126 0.0
H567 H 0.45937 0.75303 0.66987 0.0
C568 C 0.29301 0.76351 0.56526 0.0
C569 C 0.29721 0.80579 0.54767 0.0
C570 C 0.32324 0.7633 0.60303 0.0
C571 C 0.35851 0.80537 0.62413 0.0
C572 C 0.36202 0.84776 0.60778 0.0
C573 C 0.33163 0.84798 0.56957 0.0
C574 C 0.43756 0.827 0.74169 0.0
C575 C 0.4575 0.79946 0.72875 0.0
C576 C 0.40574 0.8297 0.70752 0.0
C577 C 0.39302 0.80442 0.66035 0.0
C578 C 0.41303 0.77704 0.64766 0.0
C579 C 0.44481 0.7746 0.6813 0.0
H580 H 0.59562 0.50007 0.10758 0.0
H581 H 0.70724 0.50426 0.01669 0.0
H582 H 0.5402 0.45367 0.0396 0.0
H583 H 0.65162 0.45579 0.94947 0.0
H584 H 0.54162 0.38909 0.82139 0.0
H585 H 0.59732 0.44849 0.88141 0.0
H586 H 0.50636 0.37494 0.01203 0.0
H587 H 0.45078 0.31716 0.9527 0.0
C588 C 0.60829 0.49097 0.07299 0.0
C589 C 0.65555 0.50476 0.06791 0.0
C590 C 0.57651 0.46416 0.03412 0.0
C591 C 0.59122 0.4502 0.98939 0.0
C592 C 0.639 0.46593 0.98326 0.0
C593 C 0.67085 0.49313 0.02208 0.0
C594 C 0.53338 0.38609 0.86285 0.0
C595 C 0.49185 0.34822 0.88216 0.0
C596 C 0.56542 0.41991 0.89729 0.0
C597 C 0.5564 0.41657 0.95163 0.0
C598 C 0.51428 0.37924 0.97045 0.0
C599 C 0.48246 0.34569 0.93627 0.0
loop_
_geom_bond_atom_site_label_1
_geom_bond_atom_site_label_2
_geom_bond_distance
_geom_bond_site_symmetry_2
_ccdc_geom_bond_type
Pr0 C2 2.880 . S
Pr0 O20 2.562 . S
Pr0 O21 2.490 . S
Pr0 O22 2.695 . S
Pr0 O23 2.512 . S
Pr0 O25 2.437 . S
Pr0 O28 2.436 . S
Pr0 O30 2.438 . S
Pr1 C11 2.880 1_554 S
Pr1 O22 2.436 . S
Pr1 O24 2.438 . S
Pr1 O26 2.562 1_554 S
Pr1 O27 2.490 1_554 S
Pr1 O28 2.695 . S
Pr1 O29 2.512 . S
Pr1 O31 2.437 1_554 S
C2 Pr0 2.880 . S
C2 C3 1.491 . S
C2 O20 1.254 . S
C2 O21 1.225 . S
C3 C2 1.491 . S
C3 C4 1.392 . S
C3 C8 1.356 . S
C4 C3 1.392 . S
C4 C5 1.368 . S
C4 H32 0.929 . S
C5 C4 1.368 . S
C5 C6 1.386 . S
C5 H33 0.929 . S
C6 C5 1.386 . S
C6 C7 1.373 . S
C7 C6 1.373 . S
C7 C8 1.409 . S
C7 H34 0.931 . S
C8 C3 1.356 . S
C8 C7 1.409 . S
C8 H35 0.930 . S
C9 O22 1.270 . S
C9 O23 1.248 . S
C10 O24 1.267 . S
C10 O25 1.278 . S
C11 Pr1 2.880 1_556 S
C11 C12 1.491 . S
C11 O26 1.254 . S
C11 O27 1.225 . S
C12 C11 1.491 . S
C12 C13 1.392 . S
C12 C17 1.356 . S
C13 C12 1.392 . S
C13 C14 1.368 . S
C13 H36 0.929 . S
C14 C13 1.368 . S
C14 C15 1.386 . S
C14 H37 0.929 . S
C15 C14 1.386 . S
C15 C16 1.373 . S
C16 C15 1.373 . S
C16 C17 1.409 . S
C16 H38 0.931 . S
C17 C12 1.356 . S
C17 C16 1.409 . S
C17 H39 0.930 . S
C18 O28 1.270 . S
C18 O29 1.248 . S
C19 O30 1.267 1_556 S
C19 O31 1.278 . S
O20 Pr0 2.562 . S
O20 C2 1.254 . S
O21 Pr0 2.490 . S
O21 C2 1.225 . S
O22 Pr0 2.695 . S
O22 Pr1 2.436 . S
O22 C9 1.270 . S
O23 Pr0 2.512 . S
O23 C9 1.248 . S
O24 Pr1 2.438 . S
O24 C10 1.267 . S
O25 Pr0 2.437 . S
O25 C10 1.278 . S
O26 Pr1 2.562 1_556 S
O26 C11 1.254 . S
O27 Pr1 2.490 1_556 S
O27 C11 1.225 . S
O28 Pr0 2.436 . S
O28 Pr1 2.695 . S
O28 C18 1.270 . S
O29 Pr1 2.512 . S
O29 C18 1.248 . S
O30 Pr0 2.438 . S
O30 C19 1.267 1_554 S
O31 Pr1 2.437 1_556 S
O31 C19 1.278 . S
H32 C4 0.929 . S
H33 C5 0.929 . S
H34 C7 0.931 . S
H35 C8 0.930 . S
H36 C13 0.929 . S
H37 C14 0.929 . S
H38 C16 0.931 . S
H39 C17 0.930 . S
Pr40 C42 2.880 . S
Pr40 O60 2.562 . S
Pr40 O61 2.490 . S
Pr40 O62 2.695 . S
Pr40 O63 2.512 . S
Pr40 O65 2.437 . S
Pr40 O68 2.436 . S
Pr40 O70 2.438 . S
Pr41 C51 2.880 . S
Pr41 O62 2.436 . S
Pr41 O64 2.438 . S
Pr41 O66 2.562 . S
Pr41 O67 2.490 . S
Pr41 O68 2.695 . S
Pr41 O69 2.512 . S
Pr41 O71 2.437 . S
C42 Pr40 2.880 . S
C42 C43 1.491 . S
C42 O60 1.254 . S
C42 O61 1.225 . S
C43 C42 1.491 . S
C43 C44 1.392 . S
C43 C48 1.356 . S
C44 C43 1.392 . S
C44 C45 1.368 . S
C44 H72 0.929 . S
C45 C44 1.368 . S
C45 C46 1.386 . S
C45 H73 0.929 . S
C46 C45 1.386 . S
C46 C47 1.373 . S
C47 C46 1.373 . S
C47 C48 1.409 . S
C47 H74 0.931 . S
C48 C43 1.356 . S
C48 C47 1.409 . S
C48 H75 0.930 . S
C49 O62 1.270 . S
C49 O63 1.248 . S
C50 O64 1.267 . S
C50 O65 1.278 . S
C51 Pr41 2.880 . S
C51 C52 1.491 . S
C51 O66 1.254 . S
C51 O67 1.225 . S
C52 C51 1.491 . S
C52 C53 1.392 . S
C52 C57 1.356 . S
C53 C52 1.392 . S
C53 C54 1.368 . S
C53 H76 0.929 . S
C54 C53 1.368 . S
C54 C55 1.386 . S
C54 H77 0.929 . S
C55 C54 1.386 . S
C55 C56 1.373 . S
C56 C55 1.373 . S
C56 C57 1.409 . S
C56 H78 0.931 . S
C57 C52 1.356 . S
C57 C56 1.409 . S
C57 H79 0.930 . S
C58 O68 1.270 . S
C58 O69 1.248 . S
C59 O70 1.267 . S
C59 O71 1.278 . S
O60 Pr40 2.562 . S
O60 C42 1.254 . S
O61 Pr40 2.490 . S
O61 C42 1.225 . S
O62 Pr40 2.695 . S
O62 Pr41 2.436 . S
O62 C49 1.270 . S
O63 Pr40 2.512 . S
O63 C49 1.248 . S
O64 Pr41 2.438 . S
O64 C50 1.267 . S
O65 Pr40 2.437 . S
O65 C50 1.278 . S
O66 Pr41 2.562 . S
O66 C51 1.254 . S
O67 Pr41 2.490 . S
O67 C51 1.225 . S
O68 Pr40 2.436 . S
O68 Pr41 2.695 . S
O68 C58 1.270 . S
O69 Pr41 2.512 . S
O69 C58 1.248 . S
O70 Pr40 2.438 . S
O70 C59 1.267 . S
O71 Pr41 2.437 . S
O71 C59 1.278 . S
H72 C44 0.929 . S
H73 C45 0.929 . S
H74 C47 0.931 . S
H75 C48 0.930 . S
H76 C53 0.929 . S
H77 C54 0.929 . S
H78 C56 0.931 . S
H79 C57 0.930 . S
Pr80 C82 2.880 . S
Pr80 O100 2.562 . S
Pr80 O101 2.490 . S
Pr80 O102 2.695 . S
Pr80 O103 2.512 . S
Pr80 O105 2.437 . S
Pr80 O108 2.436 . S
Pr80 O110 2.438 . S
Pr81 C91 2.880 . S
Pr81 O102 2.436 . S
Pr81 O104 2.438 . S
Pr81 O106 2.562 . S
Pr81 O107 2.490 . S
Pr81 O108 2.695 . S
Pr81 O109 2.512 . S
Pr81 O111 2.437 . S
C82 Pr80 2.880 . S
C82 C83 1.491 . S
C82 O100 1.254 . S
C82 O101 1.225 . S
C83 C82 1.491 . S
C83 C84 1.392 . S
C83 C88 1.356 . S
C84 C83 1.392 . S
C84 C85 1.368 1_556 S
C84 H112 0.929 . S
C85 C84 1.368 1_554 S
C85 C86 1.386 . S
C85 H113 0.929 . S
C86 C85 1.386 . S
C86 C87 1.373 . S
C87 C86 1.373 . S
C87 C88 1.409 1_554 S
C87 H114 0.931 . S
C88 C83 1.356 . S
C88 C87 1.409 1_556 S
C88 H115 0.930 . S
C89 O102 1.270 . S
C89 O103 1.248 . S
C90 O104 1.267 . S
C90 O105 1.278 . S
C91 Pr81 2.880 . S
C91 C92 1.491 . S
C91 O106 1.254 . S
C91 O107 1.225 . S
C92 C91 1.491 . S
C92 C93 1.392 . S
C92 C97 1.356 . S
C93 C92 1.392 . S
C93 C94 1.368 . S
C93 H116 0.929 . S
C94 C93 1.368 . S
C94 C95 1.386 . S
C94 H117 0.929 . S
C95 C94 1.386 . S
C95 C96 1.373 . S
C96 C95 1.373 . S
C96 C97 1.409 . S
C96 H118 0.931 . S
C97 C92 1.356 . S
C97 C96 1.409 . S
C97 H119 0.930 . S
C98 O108 1.270 . S
C98 O109 1.248 . S
C99 O110 1.267 . S
C99 O111 1.278 . S
O100 Pr80 2.562 . S
O100 C82 1.254 . S
O101 Pr80 2.490 . S
O101 C82 1.225 . S
O102 Pr80 2.695 . S
O102 Pr81 2.436 . S
O102 C89 1.270 . S
O103 Pr80 2.512 . S
O103 C89 1.248 . S
O104 Pr81 2.438 . S
O104 C90 1.267 . S
O105 Pr80 2.437 . S
O105 C90 1.278 . S
O106 Pr81 2.562 . S
O106 C91 1.254 . S
O107 Pr81 2.490 . S
O107 C91 1.225 . S
O108 Pr80 2.436 . S
O108 Pr81 2.695 . S
O108 C98 1.270 . S
O109 Pr81 2.512 . S
O109 C98 1.248 . S
O110 Pr80 2.438 . S
O110 C99 1.267 . S
O111 Pr81 2.437 . S
O111 C99 1.278 . S
H112 C84 0.929 . S
H113 C85 0.929 . S
H114 C87 0.931 . S
H115 C88 0.930 . S
H116 C93 0.929 . S
H117 C94 0.929 . S
H118 C96 0.931 . S
H119 C97 0.930 . S
Pr120 C122 2.880 . S
Pr120 O140 2.562 . S
Pr120 O141 2.490 . S
Pr120 O142 2.695 . S
Pr120 O143 2.512 . S
Pr120 O145 2.437 . S
Pr120 O148 2.436 . S
Pr120 O150 2.438 . S
Pr121 C131 2.880 . S
Pr121 O142 2.436 . S
Pr121 O144 2.438 . S
Pr121 O146 2.562 . S
Pr121 O147 2.490 . S
Pr121 O148 2.695 . S
Pr121 O149 2.512 . S
Pr121 O151 2.437 . S
C122 Pr120 2.880 . S
C122 C123 1.493 1_554 S
C122 O140 1.254 . S
C122 O141 1.225 . S
C123 C122 1.493 1_556 S
C123 C124 1.391 . S
C123 C128 1.354 . S
C124 C123 1.391 . S
C124 C125 1.368 . S
C124 H152 0.929 . S
C125 C124 1.368 . S
C125 C126 1.386 . S
C125 H153 0.929 . S
C126 C125 1.386 . S
C126 C127 1.373 . S
C127 C126 1.373 . S
C127 C128 1.409 . S
C127 H154 0.931 . S
C128 C123 1.354 . S
C128 C127 1.409 . S
C128 H155 0.930 . S
C129 O142 1.270 . S
C129 O143 1.248 . S
C130 O144 1.267 . S
C130 O145 1.278 . S
C131 Pr121 2.880 . S
C131 C132 1.491 . S
C131 O146 1.254 . S
C131 O147 1.225 . S
C132 C131 1.491 . S
C132 C133 1.392 . S
C132 C137 1.356 . S
C133 C132 1.392 . S
C133 C134 1.368 . S
C133 H156 0.929 . S
C134 C133 1.368 . S
C134 C135 1.386 . S
C134 H157 0.929 . S
C135 C134 1.386 . S
C135 C136 1.373 . S
C136 C135 1.373 . S
C136 C137 1.409 . S
C136 H158 0.931 . S
C137 C132 1.356 . S
C137 C136 1.409 . S
C137 H159 0.930 . S
C138 O148 1.270 . S
C138 O149 1.248 . S
C139 O150 1.267 . S
C139 O151 1.278 . S
O140 Pr120 2.562 . S
O140 C122 1.254 . S
O141 Pr120 2.490 . S
O141 C122 1.225 . S
O142 Pr120 2.695 . S
O142 Pr121 2.436 . S
O142 C129 1.270 . S
O143 Pr120 2.512 . S
O143 C129 1.248 . S
O144 Pr121 2.438 . S
O144 C130 1.267 . S
O145 Pr120 2.437 . S
O145 C130 1.278 . S
O146 Pr121 2.562 . S
O146 C131 1.254 . S
O147 Pr121 2.490 . S
O147 C131 1.225 . S
O148 Pr120 2.436 . S
O148 Pr121 2.695 . S
O148 C138 1.270 . S
O149 Pr121 2.512 . S
O149 C138 1.248 . S
O150 Pr120 2.438 . S
O150 C139 1.267 . S
O151 Pr121 2.437 . S
O151 C139 1.278 . S
H152 C124 0.929 . S
H153 C125 0.929 . S
H154 C127 0.931 . S
H155 C128 0.930 . S
H156 C133 0.929 . S
H157 C134 0.929 . S
H158 C136 0.931 . S
H159 C137 0.930 . S
Pr160 C162 2.880 . S
Pr160 O180 2.562 . S
Pr160 O181 2.490 . S
Pr160 O182 2.695 . S
Pr160 O183 2.512 . S
Pr160 O185 2.437 . S
Pr160 O188 2.436 . S
Pr160 O190 2.438 . S
Pr161 C171 2.880 . S
Pr161 O182 2.436 . S
Pr161 O184 2.438 . S
Pr161 O186 2.562 . S
Pr161 O187 2.490 . S
Pr161 O188 2.695 . S
Pr161 O189 2.512 . S
Pr161 O191 2.437 . S
C162 Pr160 2.880 . S
C162 C163 1.491 . S
C162 O180 1.254 . S
C162 O181 1.225 . S
C163 C162 1.491 . S
C163 C164 1.392 . S
C163 C168 1.356 . S
C164 C163 1.392 . S
C164 C165 1.368 . S
C164 H192 0.929 . S
C165 C164 1.368 . S
C165 C166 1.386 . S
C165 H193 0.929 . S
C166 C165 1.386 . S
C166 C167 1.373 . S
C167 C166 1.373 . S
C167 C168 1.409 . S
C167 H194 0.931 . S
C168 C163 1.356 . S
C168 C167 1.409 . S
C168 H195 0.930 . S
C169 O182 1.270 . S
C169 O183 1.248 . S
C170 O184 1.267 . S
C170 O185 1.278 . S
C171 Pr161 2.880 . S
C171 C172 1.491 . S
C171 O186 1.254 . S
C171 O187 1.225 . S
C172 C171 1.491 . S
C172 C173 1.392 . S
C172 C177 1.356 . S
C173 C172 1.392 . S
C173 C174 1.368 . S
C173 H196 0.929 . S
C174 C173 1.368 . S
C174 C175 1.386 . S
C174 H197 0.929 . S
C175 C174 1.386 . S
C175 C176 1.373 . S
C176 C175 1.373 . S
C176 C177 1.409 . S
C176 H198 0.931 . S
C177 C172 1.356 . S
C177 C176 1.409 . S
C177 H199 0.930 . S
C178 O188 1.270 . S
C178 O189 1.248 . S
C179 O190 1.267 . S
C179 O191 1.278 . S
O180 Pr160 2.562 . S
O180 C162 1.254 . S
O181 Pr160 2.490 . S
O181 C162 1.225 . S
O182 Pr160 2.695 . S
O182 Pr161 2.436 . S
O182 C169 1.270 . S
O183 Pr160 2.512 . S
O183 C169 1.248 . S
O184 Pr161 2.438 . S
O184 C170 1.267 . S
O185 Pr160 2.437 . S
O185 C170 1.278 . S
O186 Pr161 2.562 . S
O186 C171 1.254 . S
O187 Pr161 2.490 . S
O187 C171 1.225 . S
O188 Pr160 2.436 . S
O188 Pr161 2.695 . S
O188 C178 1.270 . S
O189 Pr161 2.512 . S
O189 C178 1.248 . S
O190 Pr160 2.438 . S
O190 C179 1.267 . S
O191 Pr161 2.437 . S
O191 C179 1.278 . S
H192 C164 0.929 . S
H193 C165 0.929 . S
H194 C167 0.931 . S
H195 C168 0.930 . S
H196 C173 0.929 . S
H197 C174 0.929 . S
H198 C176 0.931 . S
H199 C177 0.930 . S
Pr200 C202 2.880 . S
Pr200 O220 2.562 . S
Pr200 O221 2.490 . S
Pr200 O222 2.695 . S
Pr200 O223 2.512 . S
Pr200 O225 2.437 . S
Pr200 O228 2.436 . S
Pr200 O230 2.438 . S
Pr201 C211 2.880 1_556 S
Pr201 O222 2.436 . S
Pr201 O224 2.438 . S
Pr201 O226 2.562 1_556 S
Pr201 O227 2.490 1_556 S
Pr201 O228 2.695 . S
Pr201 O229 2.512 . S
Pr201 O231 2.437 . S
C202 Pr200 2.880 . S
C202 C203 1.491 . S
C202 O220 1.254 . S
C202 O221 1.225 . S
C203 C202 1.491 . S
C203 C204 1.392 . S
C203 C208 1.356 . S
C204 C203 1.392 . S
C204 C205 1.368 . S
C204 H232 0.929 . S
C205 C204 1.368 . S
C205 C206 1.386 . S
C205 H233 0.929 . S
C206 C205 1.386 . S
C206 C207 1.373 . S
C207 C206 1.373 . S
C207 C208 1.409 . S
C207 H234 0.931 . S
C208 C203 1.356 . S
C208 C207 1.409 . S
C208 H235 0.930 . S
C209 O222 1.270 . S
C209 O223 1.248 . S
C210 O224 1.267 . S
C210 O225 1.278 . S
C211 Pr201 2.880 1_554 S
C211 C212 1.491 . S
C211 O226 1.254 . S
C211 O227 1.225 . S
C212 C211 1.491 . S
C212 C213 1.392 . S
C212 C217 1.356 . S
C213 C212 1.392 . S
C213 C214 1.368 . S
C213 H236 0.929 . S
C214 C213 1.368 . S
C214 C215 1.386 . S
C214 H237 0.929 . S
C215 C214 1.386 . S
C215 C216 1.373 . S
C216 C215 1.373 . S
C216 C217 1.409 . S
C216 H238 0.931 . S
C217 C212 1.356 . S
C217 C216 1.409 . S
C217 H239 0.930 . S
C218 O228 1.270 . S
C218 O229 1.248 . S
C219 O230 1.267 . S
C219 O231 1.278 . S
O220 Pr200 2.562 . S
O220 C202 1.254 . S
O221 Pr200 2.490 . S
O221 C202 1.225 . S
O222 Pr200 2.695 . S
O222 Pr201 2.436 . S
O222 C209 1.270 . S
O223 Pr200 2.512 . S
O223 C209 1.248 . S
O224 Pr201 2.438 . S
O224 C210 1.267 . S
O225 Pr200 2.437 . S
O225 C210 1.278 . S
O226 Pr201 2.562 1_554 S
O226 C211 1.254 . S
O227 Pr201 2.490 1_554 S
O227 C211 1.225 . S
O228 Pr200 2.436 . S
O228 Pr201 2.695 . S
O228 C218 1.270 . S
O229 Pr201 2.512 . S
O229 C218 1.248 . S
O230 Pr200 2.438 . S
O230 C219 1.267 . S
O231 Pr201 2.437 . S
O231 C219 1.278 . S
H232 C204 0.929 . S
H233 C205 0.929 . S
H234 C207 0.931 . S
H235 C208 0.930 . S
H236 C213 0.929 . S
H237 C214 0.929 . S
H238 C216 0.931 . S
H239 C217 0.930 . S
H240 C248 0.950 . S
H241 C253 0.942 1_554 S
H242 C250 0.950 . S
H243 C252 0.950 1_554 S
H244 C254 0.950 . S
H245 C256 0.950 . S
H246 C258 0.950 . S
H247 C259 0.950 . S
C248 H240 0.950 . S
C248 C249 1.386 . S
C248 C250 1.391 . S
C249 C248 1.386 . S
C249 C253 1.393 . S
C250 H242 0.950 . S
C250 C248 1.391 . S
C250 C251 1.400 . S
C251 C250 1.400 . S
C251 C252 1.398 . S
C251 C257 1.491 . S
C252 H243 0.950 1_556 S
C252 C251 1.398 . S
C252 C253 1.391 . S
C253 H241 0.942 1_556 S
C253 C249 1.393 . S
C253 C252 1.391 . S
C254 H244 0.950 . S
C254 C255 1.386 . S
C254 C256 1.391 . S
C255 C254 1.386 . S
C255 C259 1.393 1_554 S
C256 H245 0.950 . S
C256 C254 1.391 . S
C256 C257 1.400 1_554 S
C257 C251 1.491 . S
C257 C256 1.400 1_556 S
C257 C258 1.398 . S
C258 H246 0.950 . S
C258 C257 1.398 . S
C258 C259 1.391 . S
C259 H247 0.950 . S
C259 C255 1.393 1_556 S
C259 C258 1.391 . S
H260 C268 0.950 1_655 S
H261 C273 0.950 . S
H262 C270 0.950 . S
H263 C272 0.950 . S
H264 C274 0.950 1_455 S
H265 C276 0.950 . S
H266 C278 0.950 . S
H267 C279 0.950 . S
C268 H260 0.950 1_455 S
C268 C269 1.386 . S
C268 C270 1.391 1_455 S
C269 C268 1.386 . S
C269 C273 1.393 . S
C270 H262 0.950 . S
C270 C268 1.391 1_655 S
C270 C271 1.400 1_655 S
C271 C270 1.400 1_455 S
C271 C272 1.398 . S
C271 C277 1.491 1_455 S
C272 H263 0.950 . S
C272 C271 1.398 . S
C272 C273 1.391 . S
C273 H261 0.950 . S
C273 C269 1.393 . S
C273 C272 1.391 . S
C274 H264 0.950 1_655 S
C274 C275 1.386 . S
C274 C276 1.391 1_655 S
C275 C274 1.386 . S
C275 C279 1.393 . S
C276 H265 0.950 . S
C276 C274 1.391 1_455 S
C276 C277 1.400 1_455 S
C277 C271 1.491 1_655 S
C277 C276 1.400 1_655 S
C277 C278 1.398 . S
C278 H266 0.950 . S
C278 C277 1.398 . S
C278 C279 1.391 . S
C279 H267 0.950 . S
C279 C275 1.393 . S
C279 C278 1.391 . S
H280 C288 0.950 . S
H281 C293 0.950 . S
H282 C290 0.950 . S
H283 C292 0.950 . S
H284 C294 0.950 . S
H285 C296 0.950 . S
H286 C298 0.950 . S
H287 C299 0.950 . S
C288 H280 0.950 . S
C288 C289 1.386 . S
C288 C290 1.391 . S
C289 C288 1.386 . S
C289 C293 1.393 . S
C290 H282 0.950 . S
C290 C288 1.391 . S
C290 C291 1.400 . S
C291 C290 1.400 . S
C291 C292 1.398 . S
C291 C297 1.491 1_545 S
C292 H283 0.950 . S
C292 C291 1.398 . S
C292 C293 1.391 . S
C293 H281 0.950 . S
C293 C289 1.393 . S
C293 C292 1.391 . S
C294 H284 0.950 . S
C294 C295 1.386 . S
C294 C296 1.391 . S
C295 C294 1.386 . S
C295 C299 1.393 . S
C296 H285 0.950 . S
C296 C294 1.391 . S
C296 C297 1.400 . S
C297 C291 1.491 1_565 S
C297 C296 1.400 . S
C297 C298 1.398 . S
C298 H286 0.950 . S
C298 C297 1.398 . S
C298 C299 1.391 . S
C299 H287 0.950 . S
C299 C295 1.393 . S
C299 C298 1.391 . S
H300 C308 0.950 . S
H301 C313 0.950 . S
H302 C310 0.950 . S
H303 C312 0.950 . S
H304 C314 0.950 . S
H305 C316 0.950 1_556 S
H306 C318 0.950 . S
H307 C319 0.950 . S
C308 H300 0.950 . S
C308 C309 1.386 . S
C308 C310 1.391 . S
C309 C308 1.386 . S
C309 C313 1.393 . S
C310 H302 0.950 . S
C310 C308 1.391 . S
C310 C311 1.400 . S
C311 C310 1.400 . S
C311 C312 1.398 . S
C311 C317 1.491 1_556 S
C312 H303 0.950 . S
C312 C311 1.398 . S
C312 C313 1.391 . S
C313 H301 0.950 . S
C313 C309 1.393 . S
C313 C312 1.391 . S
C314 H304 0.950 . S
C314 C315 1.386 . S
C314 C316 1.391 . S
C315 C314 1.386 . S
C315 C319 1.393 . S
C316 H305 0.950 1_554 S
C316 C314 1.391 . S
C316 C317 1.400 . S
C317 C311 1.491 1_554 S
C317 C316 1.400 . S
C317 C318 1.398 . S
C318 H306 0.950 . S
C318 C317 1.398 . S
C318 C319 1.391 . S
C319 H307 0.950 . S
C319 C315 1.393 . S
C319 C318 1.391 . S
H320 C328 0.950 . S
H321 C333 0.950 . S
H322 C330 0.950 . S
H323 C332 0.950 . S
H324 C334 0.950 . S
H325 C336 0.950 . S
H326 C338 0.950 . S
H327 C339 0.950 . S
C328 H320 0.950 . S
C328 C329 1.386 . S
C328 C330 1.391 . S
C329 C328 1.386 . S
C329 C333 1.393 . S
C330 H322 0.950 . S
C330 C328 1.391 . S
C330 C331 1.400 . S
C331 C330 1.400 . S
C331 C332 1.398 . S
C331 C337 1.491 1_455 S
C332 H323 0.950 . S
C332 C331 1.398 . S
C332 C333 1.391 . S
C333 H321 0.950 . S
C333 C329 1.393 . S
C333 C332 1.391 . S
C334 H324 0.950 . S
C334 C335 1.386 . S
C334 C336 1.391 . S
C335 C334 1.386 . S
C335 C339 1.393 . S
C336 H325 0.950 . S
C336 C334 1.391 . S
C336 C337 1.400 . S
C337 C331 1.491 1_655 S
C337 C336 1.400 . S
C337 C338 1.398 . S
C338 H326 0.950 . S
C338 C337 1.398 . S
C338 C339 1.391 . S
C339 H327 0.950 . S
C339 C335 1.393 . S
C339 C338 1.391 . S
H340 C348 0.950 . S
H341 C353 0.950 . S
H342 C350 0.950 . S
H343 C352 0.950 . S
H344 C354 0.950 . S
H345 C356 0.950 . S
H346 C358 0.950 . S
H347 C359 0.950 . S
C348 H340 0.950 . S
C348 C349 1.386 . S
C348 C350 1.391 1_545 S
C349 C348 1.386 . S
C349 C353 1.393 . S
C350 H342 0.950 . S
C350 C348 1.391 1_565 S
C350 C351 1.400 1_565 S
C351 C350 1.400 1_545 S
C351 C352 1.398 . S
C351 C357 1.491 1_545 S
C352 H343 0.950 . S
C352 C351 1.398 . S
C352 C353 1.391 . S
C353 H341 0.950 . S
C353 C349 1.393 . S
C353 C352 1.391 . S
C354 H344 0.950 . S
C354 C355 1.386 . S
C354 C356 1.391 1_565 S
C355 C354 1.386 . S
C355 C359 1.393 . S
C356 H345 0.950 . S
C356 C354 1.391 1_545 S
C356 C357 1.400 1_545 S
C357 C351 1.491 1_565 S
C357 C356 1.400 1_565 S
C357 C358 1.398 . S
C358 H346 0.950 . S
C358 C357 1.398 . S
C358 C359 1.391 . S
C359 H347 0.950 . S
C359 C355 1.393 . S
C359 C358 1.391 . S
H360 C368 0.950 . S
H361 C373 0.950 . S
H362 C370 0.950 . S
H363 C372 0.950 . S
H364 C374 0.950 . S
H365 C376 0.950 . S
H366 C378 0.950 . S
H367 C379 0.950 . S
C368 H360 0.950 . S
C368 C369 1.386 . S
C368 C370 1.391 . S
C369 C368 1.386 . S
C369 C373 1.393 . S
C370 H362 0.950 . S
C370 C368 1.391 . S
C370 C371 1.400 . S
C371 C370 1.400 . S
C371 C372 1.398 . S
C371 C377 1.491 . S
C372 H363 0.950 . S
C372 C371 1.398 . S
C372 C373 1.391 . S
C373 H361 0.950 . S
C373 C369 1.393 . S
C373 C372 1.391 . S
C374 H364 0.950 . S
C374 C375 1.386 . S
C374 C376 1.391 . S
C375 C374 1.386 . S
C375 C379 1.393 . S
C376 H365 0.950 . S
C376 C374 1.391 . S
C376 C377 1.400 . S
C377 C371 1.491 . S
C377 C376 1.400 . S
C377 C378 1.398 . S
C378 H366 0.950 . S
C378 C377 1.398 . S
C378 C379 1.391 . S
C379 H367 0.950 . S
C379 C375 1.393 . S
C379 C378 1.391 . S
H380 C388 0.950 . S
H381 C393 0.950 . S
H382 C390 0.950 . S
H383 C392 0.950 . S
H384 C394 0.950 . S
H385 C396 0.956 . S
H386 C398 0.950 . S
H387 C399 0.950 . S
C388 H380 0.950 . S
C388 C389 1.386 . S
C388 C390 1.391 . S
C389 C388 1.386 . S
C389 C393 1.393 . S
C390 H382 0.950 . S
C390 C388 1.391 . S
C390 C391 1.400 . S
C391 C390 1.400 . S
C391 C392 1.398 . S
C391 C397 1.491 . S
C392 H383 0.950 . S
C392 C391 1.398 . S
C392 C393 1.391 . S
C393 H381 0.950 . S
C393 C389 1.393 . S
C393 C392 1.391 . S
C394 H384 0.950 . S
C394 C395 1.386 . S
C394 C396 1.376 1_556 S
C395 C394 1.386 . S
C395 C399 1.393 . S
C396 H385 0.956 . S
C396 C394 1.376 1_554 S
C396 C397 1.410 . S
C397 C391 1.491 . S
C397 C396 1.410 . S
C397 C398 1.398 . S
C398 H386 0.950 . S
C398 C397 1.398 . S
C398 C399 1.391 1_554 S
C399 H387 0.950 . S
C399 C395 1.393 . S
C399 C398 1.391 1_556 S
H400 C408 0.950 . S
H401 C413 0.950 . S
H402 C410 0.950 . S
H403 C412 0.950 . S
H404 C414 0.950 . S
H405 C416 0.950 . S
H406 C418 0.950 . S
H407 C419 0.950 . S
C408 H400 0.950 . S
C408 C409 1.386 . S
C408 C410 1.391 . S
C409 C408 1.386 . S
C409 C413 1.393 . S
C410 H402 0.950 . S
C410 C408 1.391 . S
C410 C411 1.400 . S
C411 C410 1.400 . S
C411 C412 1.398 . S
C411 C417 1.491 . S
C412 H403 0.950 . S
C412 C411 1.398 . S
C412 C413 1.391 . S
C413 H401 0.950 . S
C413 C409 1.393 . S
C413 C412 1.391 . S
C414 H404 0.950 . S
C414 C415 1.386 . S
C414 C416 1.391 . S
C415 C414 1.386 . S
C415 C419 1.393 . S
C416 H405 0.950 . S
C416 C414 1.391 . S
C416 C417 1.400 . S
C417 C411 1.491 . S
C417 C416 1.400 . S
C417 C418 1.398 . S
C418 H406 0.950 . S
C418 C417 1.398 . S
C418 C419 1.391 . S
C419 H407 0.950 . S
C419 C415 1.393 . S
C419 C418 1.391 . S
H420 C428 0.950 . S
H421 C433 0.950 . S
H422 C430 0.950 . S
H423 C432 0.950 . S
H424 C434 0.950 . S
H425 C436 0.950 . S
H426 C438 0.950 . S
H427 C439 0.950 . S
C428 H420 0.950 . S
C428 C429 1.386 . S
C428 C430 1.391 . S
C429 C428 1.386 . S
C429 C433 1.393 . S
C430 H422 0.950 . S
C430 C428 1.391 . S
C430 C431 1.400 . S
C431 C430 1.400 . S
C431 C432 1.398 . S
C431 C437 1.491 . S
C432 H423 0.950 . S
C432 C431 1.398 . S
C432 C433 1.391 . S
C433 H421 0.950 . S
C433 C429 1.393 . S
C433 C432 1.391 . S
C434 H424 0.950 . S
C434 C435 1.386 . S
C434 C436 1.391 . S
C435 C434 1.386 . S
C435 C439 1.393 . S
C436 H425 0.950 . S
C436 C434 1.391 . S
C436 C437 1.400 . S
C437 C431 1.491 . S
C437 C436 1.400 . S
C437 C438 1.398 . S
C438 H426 0.950 . S
C438 C437 1.398 . S
C438 C439 1.391 . S
C439 H427 0.950 . S
C439 C435 1.393 . S
C439 C438 1.391 . S
H440 C448 0.950 . S
H441 C453 0.950 . S
H442 C450 0.950 . S
H443 C452 0.950 . S
H444 C454 0.950 . S
H445 C456 0.950 . S
H446 C458 0.950 . S
H447 C459 0.950 . S
C448 H440 0.950 . S
C448 C449 1.386 . S
C448 C450 1.391 . S
C449 C448 1.386 . S
C449 C453 1.393 . S
C450 H442 0.950 . S
C450 C448 1.391 . S
C450 C451 1.400 . S
C451 C450 1.400 . S
C451 C452 1.398 . S
C451 C457 1.491 . S
C452 H443 0.950 . S
C452 C451 1.398 . S
C452 C453 1.391 . S
C453 H441 0.950 . S
C453 C449 1.393 . S
C453 C452 1.391 . S
C454 H444 0.950 . S
C454 C455 1.386 1_556 S
C454 C456 1.391 . S
C455 C454 1.386 1_554 S
C455 C459 1.393 . S
C456 H445 0.950 . S
C456 C454 1.391 . S
C456 C457 1.400 . S
C457 C451 1.491 . S
C457 C456 1.400 . S
C457 C458 1.398 . S
C458 H446 0.950 . S
C458 C457 1.398 . S
C458 C459 1.391 1_556 S
C459 H447 0.950 . S
C459 C455 1.393 . S
C459 C458 1.391 1_554 S
H460 C468 0.950 . S
H461 C473 0.950 . S
H462 C470 0.950 . S
H463 C472 0.950 . S
H464 C474 0.950 . S
H465 C476 0.950 . S
H466 C478 0.950 . S
H467 C479 0.950 . S
C468 H460 0.950 . S
C468 C469 1.386 . S
C468 C470 1.391 . S
C469 C468 1.386 . S
C469 C473 1.393 . S
C470 H462 0.950 . S
C470 C468 1.391 . S
C470 C471 1.400 . S
C471 C470 1.400 . S
C471 C472 1.398 . S
C471 C477 1.491 . S
C472 H463 0.950 . S
C472 C471 1.398 . S
C472 C473 1.391 . S
C473 H461 0.950 . S
C473 C469 1.393 . S
C473 C472 1.391 . S
C474 H464 0.950 . S
C474 C475 1.386 . S
C474 C476 1.391 . S
C475 C474 1.386 . S
C475 C479 1.393 . S
C476 H465 0.950 . S
C476 C474 1.391 . S
C476 C477 1.400 . S
C477 C471 1.491 . S
C477 C476 1.400 . S
C477 C478 1.398 . S
C478 H466 0.950 . S
C478 C477 1.398 . S
C478 C479 1.391 . S
C479 H467 0.950 . S
C479 C475 1.393 . S
C479 C478 1.391 . S
H480 C488 0.950 . S
H481 C493 0.950 . S
H482 C490 0.950 . S
H483 C492 0.950 . S
H484 C494 0.950 . S
H485 C496 0.950 . S
H486 C498 0.950 . S
H487 C499 0.950 . S
C488 H480 0.950 . S
C488 C489 1.386 . S
C488 C490 1.391 . S
C489 C488 1.386 . S
C489 C493 1.393 . S
C490 H482 0.950 . S
C490 C488 1.391 . S
C490 C491 1.400 . S
C491 C490 1.400 . S
C491 C492 1.398 . S
C491 C497 1.491 . S
C492 H483 0.950 . S
C492 C491 1.398 . S
C492 C493 1.391 . S
C493 H481 0.950 . S
C493 C489 1.393 . S
C493 C492 1.391 . S
C494 H484 0.950 . S
C494 C495 1.386 . S
C494 C496 1.391 . S
C495 C494 1.386 . S
C495 C499 1.393 . S
C496 H485 0.950 . S
C496 C494 1.391 . S
C496 C497 1.400 . S
C497 C491 1.491 . S
C497 C496 1.400 . S
C497 C498 1.398 . S
C498 H486 0.950 . S
C498 C497 1.398 . S
C498 C499 1.391 . S
C499 H487 0.950 . S
C499 C495 1.393 . S
C499 C498 1.391 . S
H500 C508 0.950 . S
H501 C513 0.950 . S
H502 C510 0.950 . S
H503 C512 0.950 . S
H504 C514 0.950 . S
H505 C516 0.950 . S
H506 C518 0.950 . S
H507 C519 0.950 . S
C508 H500 0.950 . S
C508 C509 1.386 . S
C508 C510 1.391 . S
C509 C508 1.386 . S
C509 C513 1.393 . S
C510 H502 0.950 . S
C510 C508 1.391 . S
C510 C511 1.400 . S
C511 C510 1.400 . S
C511 C512 1.398 . S
C511 C517 1.491 . S
C512 H503 0.950 . S
C512 C511 1.398 . S
C512 C513 1.391 . S
C513 H501 0.950 . S
C513 C509 1.393 . S
C513 C512 1.391 . S
C514 H504 0.950 . S
C514 C515 1.386 . S
C514 C516 1.391 . S
C515 C514 1.386 . S
C515 C519 1.393 . S
C516 H505 0.950 . S
C516 C514 1.391 . S
C516 C517 1.400 . S
C517 C511 1.491 . S
C517 C516 1.400 . S
C517 C518 1.398 . S
C518 H506 0.950 . S
C518 C517 1.398 . S
C518 C519 1.391 . S
C519 H507 0.950 . S
C519 C515 1.393 . S
C519 C518 1.391 . S
H520 C528 0.950 . S
H521 C533 0.950 . S
H522 C530 0.950 . S
H523 C532 0.950 . S
H524 C534 0.950 . S
H525 C536 0.950 . S
H526 C538 0.950 . S
H527 C539 0.950 . S
C528 H520 0.950 . S
C528 C529 1.386 . S
C528 C530 1.391 . S
C529 C528 1.386 . S
C529 C533 1.393 . S
C530 H522 0.950 . S
C530 C528 1.391 . S
C530 C531 1.400 . S
C531 C530 1.400 . S
C531 C532 1.398 . S
C531 C537 1.491 . S
C532 H523 0.950 . S
C532 C531 1.398 . S
C532 C533 1.391 . S
C533 H521 0.950 . S
C533 C529 1.393 . S
C533 C532 1.391 . S
C534 H524 0.950 . S
C534 C535 1.386 . S
C534 C536 1.391 . S
C535 C534 1.386 . S
C535 C539 1.393 . S
C536 H525 0.950 . S
C536 C534 1.391 . S
C536 C537 1.400 . S
C537 C531 1.491 . S
C537 C536 1.400 . S
C537 C538 1.398 . S
C538 H526 0.950 . S
C538 C537 1.398 . S
C538 C539 1.391 . S
C539 H527 0.950 . S
C539 C535 1.393 . S
C539 C538 1.391 . S
H540 C548 0.950 . S
H541 C553 0.950 . S
H542 C550 0.950 . S
H543 C552 0.950 . S
H544 C554 0.950 . S
H545 C556 0.950 . S
H546 C558 0.950 . S
H547 C559 0.950 . S
C548 H540 0.950 . S
C548 C549 1.386 . S
C548 C550 1.391 . S
C549 C548 1.386 . S
C549 C553 1.393 . S
C550 H542 0.950 . S
C550 C548 1.391 . S
C550 C551 1.400 . S
C551 C550 1.400 . S
C551 C552 1.398 . S
C551 C557 1.491 . S
C552 H543 0.950 . S
C552 C551 1.398 . S
C552 C553 1.391 . S
C553 H541 0.950 . S
C553 C549 1.393 . S
C553 C552 1.391 . S
C554 H544 0.950 . S
C554 C555 1.386 . S
C554 C556 1.391 . S
C555 C554 1.386 . S
C555 C559 1.393 . S
C556 H545 0.950 . S
C556 C554 1.391 . S
C556 C557 1.400 . S
C557 C551 1.491 . S
C557 C556 1.400 . S
C557 C558 1.398 . S
C558 H546 0.950 . S
C558 C557 1.398 . S
C558 C559 1.391 . S
C559 H547 0.950 . S
C559 C555 1.393 . S
C559 C558 1.391 . S
H560 C568 0.950 . S
H561 C573 0.950 . S
H562 C570 0.950 . S
H563 C572 0.950 . S
H564 C574 0.950 . S
H565 C576 0.950 . S
H566 C578 0.950 . S
H567 C579 0.950 . S
C568 H560 0.950 . S
C568 C569 1.386 . S
C568 C570 1.391 . S
C569 C568 1.386 . S
C569 C573 1.393 . S
C570 H562 0.950 . S
C570 C568 1.391 . S
C570 C571 1.400 . S
C571 C570 1.400 . S
C571 C572 1.398 . S
C571 C577 1.491 . S
C572 H563 0.950 . S
C572 C571 1.398 . S
C572 C573 1.391 . S
C573 H561 0.950 . S
C573 C569 1.393 . S
C573 C572 1.391 . S
C574 H564 0.950 . S
C574 C575 1.386 . S
C574 C576 1.391 . S
C575 C574 1.386 . S
C575 C579 1.393 . S
C576 H565 0.950 . S
C576 C574 1.391 . S
C576 C577 1.400 . S
C577 C571 1.491 . S
C577 C576 1.400 . S
C577 C578 1.398 . S
C578 H566 0.950 . S
C578 C577 1.398 . S
C578 C579 1.391 . S
C579 H567 0.950 . S
C579 C575 1.393 . S
C579 C578 1.391 . S
H580 C588 0.950 . S
H581 C593 0.950 . S
H582 C590 0.950 . S
H583 C592 0.950 . S
H584 C594 0.950 . S
H585 C596 0.950 . S
H586 C598 0.950 . S
H587 C599 0.950 . S
C588 H580 0.950 . S
C588 C589 1.386 . S
C588 C590 1.391 . S
C589 C588 1.386 . S
C589 C593 1.393 . S
C590 H582 0.950 . S
C590 C588 1.391 . S
C590 C591 1.400 . S
C591 C590 1.400 . S
C591 C592 1.398 . S
C591 C597 1.491 . S
C592 H583 0.950 . S
C592 C591 1.398 . S
C592 C593 1.391 . S
C593 H581 0.950 . S
C593 C589 1.393 . S
C593 C592 1.391 . S
C594 H584 0.950 . S
C594 C595 1.386 1_556 S
C594 C596 1.391 1_556 S
C595 C594 1.386 1_554 S
C595 C599 1.393 . S
C596 H585 0.950 . S
C596 C594 1.391 1_554 S
C596 C597 1.400 . S
C597 C591 1.491 . S
C597 C596 1.400 . S
C597 C598 1.398 . S
C598 H586 0.950 . S
C598 C597 1.398 . S
C598 C599 1.391 . S
C599 H587 0.950 . S
C599 C595 1.393 . S
C599 C598 1.391 . S
C249 C209 1.407 . S
C255 C9 1.378 . S
C269 C10 1.761 . S
C275 C50 1.760 . S
C289 C49 1.388 . S
C295 C89 1.384 . S
C309 C90 1.764 . S
C315 C130 1.765 . S
C329 C169 1.413 . S
C335 C129 1.394 . S
C349 C210 1.757 . S
C355 C170 1.756 . S
C369 C15 1.256 . S
C375 C6 1.256 . S
C389 C46 1.280 . S
C395 C55 1.280 . S
C409 C95 1.279 . S
C415 C86 1.279 . S
C429 C126 1.257 . S
C435 C135 1.257 . S
C449 C166 1.250 . S
C455 C175 1.250 . S
C469 C206 1.251 . S
C475 C215 1.251 . S
C489 C18 1.848 . S
C495 C179 1.839 . S
C509 C59 1.841 . S
C515 C218 1.848 . S
C529 C19 1.832 . S
C535 C98 1.848 . S
C549 C58 1.848 . S
C555 C139 1.840 . S
C569 C178 1.849 . S
C575 C99 1.832 . S
C589 C138 1.848 . S
C595 C219 1.836 1_554 S
