# Generated by pormake.
# Topology wmt, (6)-cn, num edge types: 1
# Building blocks:
#     Node 0, Type 0, BuildingBlock: MIFKUJ_clean_sbu_0, # of connection points: 6
#     Node 1, Type 0, BuildingBlock: MIFKUJ_clean_sbu_0, # of connection points: 6
#     Node 2, Type 0, BuildingBlock: MIFKUJ_clean_sbu_0, # of connection points: 6
#     Node 3, Type 0, BuildingBlock: MIFKUJ_clean_sbu_0, # of connection points: 6
#     Node 4, Type 0, BuildingBlock: MIFKUJ_clean_sbu_0, # of connection points: 6
#     Node 5, Type 0, BuildingBlock: MIFKUJ_clean_sbu_0, # of connection points: 6
#     Node 6, Type 0, BuildingBlock: MIFKUJ_clean_sbu_0, # of connection points: 6
#     Node 7, Type 0, BuildingBlock: MIFKUJ_clean_sbu_0, # of connection points: 6
#     Node 8, Type 0, BuildingBlock: MIFKUJ_clean_sbu_0, # of connection points: 6
#     Node 9, Type 0, BuildingBlock: MIFKUJ_clean_sbu_0, # of connection points: 6
#     Node 10, Type 0, BuildingBlock: MIFKUJ_clean_sbu_0, # of connection points: 6
#     Node 11, Type 0, BuildingBlock: MIFKUJ_clean_sbu_0, # of connection points: 6
#     Node 12, Type 0, BuildingBlock: MIFKUJ_clean_sbu_0, # of connection points: 6
#     Node 13, Type 0, BuildingBlock: MIFKUJ_clean_sbu_0, # of connection points: 6
#     Node 14, Type 0, BuildingBlock: MIFKUJ_clean_sbu_0, # of connection points: 6
#     Node 15, Type 0, BuildingBlock: MIFKUJ_clean_sbu_0, # of connection points: 6
#     Node 16, Type 0, BuildingBlock: MIFKUJ_clean_sbu_0, # of connection points: 6
#     Node 17, Type 0, BuildingBlock: MIFKUJ_clean_sbu_0, # of connection points: 6
#     Node 18, Type 0, BuildingBlock: MIFKUJ_clean_sbu_0, # of connection points: 6
#     Node 19, Type 0, BuildingBlock: MIFKUJ_clean_sbu_0, # of connection points: 6
#     Node 20, Type 0, BuildingBlock: MIFKUJ_clean_sbu_0, # of connection points: 6
#     Node 21, Type 0, BuildingBlock: MIFKUJ_clean_sbu_0, # of connection points: 6
#     Node 22, Type 0, BuildingBlock: MIFKUJ_clean_sbu_0, # of connection points: 6
#     Node 23, Type 0, BuildingBlock: MIFKUJ_clean_sbu_0, # of connection points: 6
#     Node 24, Type 0, BuildingBlock: MIFKUJ_clean_sbu_0, # of connection points: 6
#     Node 25, Type 0, BuildingBlock: MIFKUJ_clean_sbu_0, # of connection points: 6
#     Node 26, Type 0, BuildingBlock: MIFKUJ_clean_sbu_0, # of connection points: 6
#     Node 27, Type 0, BuildingBlock: MIFKUJ_clean_sbu_0, # of connection points: 6
#     Node 28, Type 0, BuildingBlock: MIFKUJ_clean_sbu_0, # of connection points: 6
#     Node 29, Type 0, BuildingBlock: MIFKUJ_clean_sbu_0, # of connection points: 6
#     Node 30, Type 0, BuildingBlock: MIFKUJ_clean_sbu_0, # of connection points: 6
#     Node 31, Type 0, BuildingBlock: MIFKUJ_clean_sbu_0, # of connection points: 6
#     Node 32, Type 0, BuildingBlock: MIFKUJ_clean_sbu_0, # of connection points: 6
#     Node 33, Type 0, BuildingBlock: MIFKUJ_clean_sbu_0, # of connection points: 6
#     Node 34, Type 0, BuildingBlock: MIFKUJ_clean_sbu_0, # of connection points: 6
#     Node 35, Type 0, BuildingBlock: MIFKUJ_clean_sbu_0, # of connection points: 6
#     Edge 36, Type (0, 0), None
#     Edge 37, Type (0, 0), None
#     Edge 38, Type (0, 0), None
#     Edge 39, Type (0, 0), None
#     Edge 40, Type (0, 0), None
#     Edge 41, Type (0, 0), None
#     Edge 42, Type (0, 0), None
#     Edge 43, Type (0, 0), None
#     Edge 44, Type (0, 0), None
#     Edge 45, Type (0, 0), None
#     Edge 46, Type (0, 0), None
#     Edge 47, Type (0, 0), None
#     Edge 48, Type (0, 0), None
#     Edge 49, Type (0, 0), None
#     Edge 50, Type (0, 0), None
#     Edge 51, Type (0, 0), None
#     Edge 52, Type (0, 0), None
#     Edge 53, Type (0, 0), None
#     Edge 54, Type (0, 0), None
#     Edge 55, Type (0, 0), None
#     Edge 56, Type (0, 0), None
#     Edge 57, Type (0, 0), None
#     Edge 58, Type (0, 0), None
#     Edge 59, Type (0, 0), None
#     Edge 60, Type (0, 0), None
#     Edge 61, Type (0, 0), None
#     Edge 62, Type (0, 0), None
#     Edge 63, Type (0, 0), None
#     Edge 64, Type (0, 0), None
#     Edge 65, Type (0, 0), None
#     Edge 66, Type (0, 0), None
#     Edge 67, Type (0, 0), None
#     Edge 68, Type (0, 0), None
#     Edge 69, Type (0, 0), None
#     Edge 70, Type (0, 0), None
#     Edge 71, Type (0, 0), None
#     Edge 72, Type (0, 0), None
#     Edge 73, Type (0, 0), None
#     Edge 74, Type (0, 0), None
#     Edge 75, Type (0, 0), None
#     Edge 76, Type (0, 0), None
#     Edge 77, Type (0, 0), None
#     Edge 78, Type (0, 0), None
#     Edge 79, Type (0, 0), None
#     Edge 80, Type (0, 0), None
#     Edge 81, Type (0, 0), None
#     Edge 82, Type (0, 0), None
#     Edge 83, Type (0, 0), None
#     Edge 84, Type (0, 0), None
#     Edge 85, Type (0, 0), None
#     Edge 86, Type (0, 0), None
#     Edge 87, Type (0, 0), None
#     Edge 88, Type (0, 0), None
#     Edge 89, Type (0, 0), None
#     Edge 90, Type (0, 0), None
#     Edge 91, Type (0, 0), None
#     Edge 92, Type (0, 0), None
#     Edge 93, Type (0, 0), None
#     Edge 94, Type (0, 0), None
#     Edge 95, Type (0, 0), None
#     Edge 96, Type (0, 0), None
#     Edge 97, Type (0, 0), None
#     Edge 98, Type (0, 0), None
#     Edge 99, Type (0, 0), None
#     Edge 100, Type (0, 0), None
#     Edge 101, Type (0, 0), None
#     Edge 102, Type (0, 0), None
#     Edge 103, Type (0, 0), None
#     Edge 104, Type (0, 0), None
#     Edge 105, Type (0, 0), None
#     Edge 106, Type (0, 0), None
#     Edge 107, Type (0, 0), None
#     Edge 108, Type (0, 0), None
#     Edge 109, Type (0, 0), None
#     Edge 110, Type (0, 0), None
#     Edge 111, Type (0, 0), None
#     Edge 112, Type (0, 0), None
#     Edge 113, Type (0, 0), None
#     Edge 114, Type (0, 0), None
#     Edge 115, Type (0, 0), None
#     Edge 116, Type (0, 0), None
#     Edge 117, Type (0, 0), None
#     Edge 118, Type (0, 0), None
#     Edge 119, Type (0, 0), None
#     Edge 120, Type (0, 0), None
#     Edge 121, Type (0, 0), None
#     Edge 122, Type (0, 0), None
#     Edge 123, Type (0, 0), None
#     Edge 124, Type (0, 0), None
#     Edge 125, Type (0, 0), None
#     Edge 126, Type (0, 0), None
#     Edge 127, Type (0, 0), None
#     Edge 128, Type (0, 0), None
#     Edge 129, Type (0, 0), None
#     Edge 130, Type (0, 0), None
#     Edge 131, Type (0, 0), None
#     Edge 132, Type (0, 0), None
#     Edge 133, Type (0, 0), None
#     Edge 134, Type (0, 0), None
#     Edge 135, Type (0, 0), None
#     Edge 136, Type (0, 0), None
#     Edge 137, Type (0, 0), None
#     Edge 138, Type (0, 0), None
#     Edge 139, Type (0, 0), None
#     Edge 140, Type (0, 0), None
#     Edge 141, Type (0, 0), None
#     Edge 142, Type (0, 0), None
#     Edge 143, Type (0, 0), None
# Relax obj value: 0.312
# Max RMSD: 0.225
# Mean RMSD: 0.225
data_MOF--net-wmt--node1-MIFKUJ_clean_sbu_0--edge1-none
_symmetry_space_group_name_H-M    P1
_symmetry_Int_Tables_number       1
_symmetry_cell_setting            triclinic
loop_
_symmetry_equiv_pos_as_xyz
'x, y, z'
_cell_length_a     34.521305
_cell_length_b     34.001457
_cell_length_c     16.454075
_cell_angle_alpha  90.70591
_cell_angle_beta   90.212153
_cell_angle_gamma 119.82887
loop_
_atom_site_label
_atom_site_type_symbol
_atom_site_fract_x
_atom_site_fract_y
_atom_site_fract_z
_atom_type_partial_charge
Zn0 Zn -0.01407 0.45841 0.82866 0.0
Zn1 Zn 0.03795 0.46992 0.06409 0.0
C2 C 0.05601 0.51949 0.73256 0.0
O3 O 0.06539 0.48662 0.73606 0.0
C4 C -0.01805 0.39636 0.19532 0.0
O5 O 0.01765 0.40024 0.23154 0.0
O6 O 0.95133 0.40498 0.75803 0.0
O7 O 0.03191 0.44986 0.89029 0.0
O8 O 0.07373 0.44935 0.9904 0.0
C9 C 0.94796 0.36753 0.77787 0.0
O10 O -0.03535 0.36385 0.84726 0.0
O11 O 0.01996 0.51393 0.76293 0.0
C12 C 0.07786 0.53061 0.20278 0.0
O13 O 0.07264 0.49404 0.23856 0.0
O14 O 0.07156 0.52935 0.12673 0.0
O15 O 0.00797 0.48754 0.98137 0.0
O16 O 0.94711 0.46585 0.91251 0.0
O17 O -0.01396 0.41906 0.13139 0.0
C18 C 0.06222 0.44237 0.91504 0.0
C19 C -0.03226 0.4776 0.98028 0.0
Zn20 Zn 0.48818 0.54422 0.86045 0.0
Zn21 Zn 0.47516 0.56553 0.09211 0.0
C22 C 0.41408 0.52532 0.75831 0.0
O23 O 0.42249 0.49446 0.72849 0.0
C24 C 0.54329 0.57203 0.21371 0.0
O25 O 0.53279 0.59856 0.2552 0.0
O26 O 0.53358 0.55525 0.77752 0.0
O27 O 0.51516 0.58898 0.95214 0.0
O28 O 0.49417 0.62548 0.03347 0.0
C29 C 0.57403 0.58491 0.7909 0.0
O30 O 0.58628 0.60682 0.86085 0.0
O31 O 0.43838 0.55128 0.81529 0.0
C32 C 0.42099 0.5595 0.23464 0.0
O33 O 0.44928 0.60244 0.25056 0.0
O34 O 0.42471 0.54132 0.16994 0.0
O35 O 0.44858 0.52252 0.99799 0.0
O36 O 0.46483 0.48348 0.9143 0.0
O37 O 0.52618 0.55799 0.14298 0.0
C38 C 0.50668 0.62076 0.96284 0.0
C39 C 0.45369 0.4888 0.98528 0.0
Zn40 Zn 0.406 0.95445 0.8417 0.0
Zn41 Zn 0.37729 0.89628 0.06013 0.0
C42 C 0.39467 0.88253 0.73237 0.0
O43 O 0.35774 0.88164 0.71025 0.0
C44 C 0.36962 0.95647 0.19771 0.0
O45 O 0.34913 0.9212 0.24474 0.0
O46 O 0.3921 -0.00939 0.76706 0.0
O47 O 0.35388 0.91915 0.91603 0.0
O48 O 0.32271 0.8571 0.98548 0.0
C49 C 0.35885 -0.00424 0.7816 0.0
O50 O 0.33533 -0.02092 0.84751 0.0
O51 O 0.42082 0.91204 0.78349 0.0
C52 C 0.39676 0.85239 0.19412 0.0
O53 O 0.35995 0.84751 0.22635 0.0
O54 O 0.40616 0.86624 0.12197 0.0
O55 O 0.42228 0.92676 0.97479 0.0
O56 O 0.45594 -0.00694 0.9203 0.0
O57 O 0.37857 0.95089 0.1246 0.0
C58 C 0.32612 0.8771 0.9182 0.0
C59 C 0.45032 0.96839 0.98143 0.0
Zn60 Zn 0.43604 0.05597 0.64448 0.0
Zn61 Zn 0.43399 0.05545 0.39935 0.0
C62 C 0.48542 0.09893 0.80369 0.0
O63 O 0.45007 0.09685 0.83756 0.0
C64 C 0.39206 0.00281 0.23507 0.0
O65 O 0.41834 0.03793 0.19098 0.0
O66 O 0.37078 0.03899 0.66461 0.0
O67 O 0.4559 0.09539 0.55106 0.0
O68 O 0.40741 0.08863 0.46007 0.0
C69 C 0.34478 0.01686 0.7215 0.0
O70 O 0.3045 0.01175 0.72388 0.0
O71 O 0.48323 0.08521 0.73107 0.0
C72 C 0.52755 0.10939 0.34204 0.0
O73 O 0.56467 0.14817 0.33374 0.0
O74 O 0.49245 0.10914 0.36468 0.0
O75 O 0.44549 0.01501 0.47664 0.0
O76 O 0.44152 0.00282 0.60972 0.0
O77 O 0.39353 0.00685 0.31247 0.0
C78 C 0.42672 0.10493 0.5283 0.0
C79 C 0.44934 -0.00553 0.53799 0.0
Zn80 Zn 0.88625 0.37589 0.63149 0.0
Zn81 Zn 0.891 0.36609 0.39908 0.0
C82 C 0.83973 0.38768 0.78722 0.0
O83 O 0.82188 0.34698 0.81806 0.0
C84 C 0.93838 0.37436 0.23782 0.0
O85 O 0.90279 0.36993 0.20022 0.0
O86 O 0.90943 0.33196 0.65702 0.0
O87 O 0.84021 0.34785 0.54521 0.0
O88 O 0.86648 0.31218 0.47517 0.0
C89 C 0.93093 0.33082 0.71851 0.0
O90 O 0.94003 0.29781 0.72544 0.0
O91 O 0.86254 0.39705 0.72288 0.0
C92 C 0.82424 0.3871 0.32786 0.0
O93 O 0.78267 0.37597 0.31209 0.0
O94 O 0.83281 0.35713 0.35279 0.0
O95 O 0.92657 0.42894 0.45657 0.0
O96 O 0.93424 0.4348 0.59169 0.0
O97 O 0.93747 0.36908 0.31473 0.0
C98 C 0.84019 0.31136 0.53027 0.0
C99 C 0.94289 0.45247 0.52191 0.0
Zn100 Zn 0.55166 0.50488 0.6558 0.0
Zn101 Zn 0.56672 0.50651 0.41701 0.0
C102 C 0.53541 0.43031 0.76335 0.0
O103 O 0.54964 0.41509 0.70351 0.0
C104 C 0.56471 0.54948 0.25644 0.0
O105 O 0.56888 0.51766 0.21837 0.0
O106 O 0.59813 0.57252 0.66464 0.0
O107 O 0.57535 0.4795 0.57738 0.0
O108 O 0.62098 0.52942 0.49333 0.0
C109 C 0.60515 0.59916 0.72441 0.0
O110 O 0.6398 0.64032 0.7246 0.0
O111 O 0.53709 0.46852 0.75795 0.0
C112 C 0.53455 0.42219 0.31452 0.0
O113 O 0.53971 0.38873 0.28668 0.0
O114 O 0.56322 0.45075 0.36422 0.0
O115 O 0.50876 0.49078 0.47789 0.0
O116 O 0.4936 0.49347 0.60857 0.0
O117 O 0.56838 0.55283 0.33387 0.0
C118 C 0.61471 0.50934 0.56091 0.0
C119 C 0.4813 0.48543 0.53433 0.0
Zn120 Zn 0.87498 0.48232 0.97569 0.0
Zn121 Zn 0.92899 0.4924 0.20984 0.0
C122 C 0.93447 0.55877 0.84942 0.0
O123 O 0.90026 0.55959 0.8161 0.0
C124 C 0.85999 0.43254 0.30998 0.0
O125 O 0.85138 0.46595 0.30887 0.0
O126 O 0.83811 0.42423 0.90984 0.0
O127 O 0.90377 0.46112 0.05535 0.0
O128 O -0.03475 0.48343 0.12339 0.0
C129 C 0.84224 0.42613 0.8333 0.0
O130 O 0.86091 0.46587 0.79889 0.0
O131 O 0.92835 0.533 0.90979 0.0
C132 C -0.03072 0.5836 0.25887 0.0
O133 O 0.951 0.58673 0.19101 0.0
O134 O -0.03418 0.54615 0.27893 0.0
O135 O 0.88374 0.50152 0.14838 0.0
O136 O 0.84055 0.50333 0.05291 0.0
O137 O 0.89503 0.43729 0.27644 0.0
C138 C 0.94412 0.47121 0.05603 0.0
C139 C 0.85328 0.5096 0.12762 0.0
Zn140 Zn 0.43508 0.38689 0.94945 0.0
Zn141 Zn 0.42462 0.41072 0.17989 0.0
C142 C 0.36843 0.37996 0.83055 0.0
O143 O 0.38255 0.35621 0.78957 0.0
C144 C 0.49711 0.42699 0.28534 0.0
O145 O 0.48795 0.45655 0.31889 0.0
O146 O 0.48256 0.40973 0.86559 0.0
O147 O 0.46348 0.43105 0.04126 0.0
O148 O 0.4479 0.4708 0.12458 0.0
C149 C 0.50871 0.39992 0.82826 0.0
O150 O 0.50725 0.3611 0.84023 0.0
O151 O 0.38308 0.39316 0.90276 0.0
C152 C 0.33966 0.3711 0.25202 0.0
O153 O 0.32624 0.34962 0.18184 0.0
O154 O 0.3803 0.40057 0.26388 0.0
O155 O 0.39635 0.36518 0.08986 0.0
O156 O 0.41659 0.32766 0.00954 0.0
O157 O 0.47422 0.40335 0.22494 0.0
C158 C 0.45865 0.46498 0.0536 0.0
C159 C 0.40411 0.33287 0.07985 0.0
Zn160 Zn 0.54246 0.06101 0.98533 0.0
Zn161 Zn 0.51122 -0.00019 0.20055 0.0
C162 C 0.55497 0.00152 0.84826 0.0
O163 O 0.58487 0.03641 0.80777 0.0
C164 C 0.52606 0.06756 0.31794 0.0
O165 O 0.55738 0.05932 0.34293 0.0
O166 O 0.51625 0.09487 0.92862 0.0
O167 O 0.49697 0.02954 0.06868 0.0
O168 O 0.461 0.96326 0.12245 0.0
C169 C 0.5227 0.1033 0.85369 0.0
O170 O 0.55521 0.10042 0.81818 0.0
O171 O 0.53972 0.00792 0.91473 0.0
C172 C 0.55561 0.95736 0.26752 0.0
O173 O 0.57962 0.97207 0.2016 0.0
O174 O 0.52231 0.9629 0.27802 0.0
O175 O 0.56436 0.03296 0.12738 0.0
O176 O 0.59647 0.09654 0.06167 0.0
O177 O 0.50062 0.04481 0.25922 0.0
C178 C 0.46786 -0.01172 0.0614 0.0
C179 C 0.5927 0.07492 0.12708 0.0
Zn180 Zn 0.48945 0.90313 0.6508 0.0
Zn181 Zn 0.47953 0.90215 0.41063 0.0
C182 C 0.53134 0.9558 0.8088 0.0
O183 O 0.49935 0.92191 0.84809 0.0
C184 C 0.43344 0.85847 0.24782 0.0
O185 O 0.46845 0.85783 0.21847 0.0
O186 O 0.43691 0.84757 0.69774 0.0
O187 O 0.4692 0.9418 0.58781 0.0
O188 O 0.46988 0.95143 0.45368 0.0
C189 C 0.39958 0.84302 0.71815 0.0
O190 O 0.36645 0.80259 0.73516 0.0
O191 O 0.53503 0.95171 0.73239 0.0
C192 C 0.57129 0.94184 0.33474 0.0
O193 O 0.61263 0.94985 0.33652 0.0
O194 O 0.5462 0.92351 0.39488 0.0
O195 O 0.45953 0.85675 0.49471 0.0
O196 O 0.51454 0.87289 0.57804 0.0
O197 O 0.43517 0.87482 0.31824 0.0
C198 C 0.46255 0.95995 0.52566 0.0
C199 C 0.49225 0.85199 0.51444 0.0
Zn200 Zn 0.02503 0.58708 0.644 0.0
Zn201 Zn 0.03442 0.57717 0.40817 0.0
C202 C -0.02223 0.57862 0.80605 0.0
O203 O 0.01258 0.58074 0.84281 0.0
C204 C 0.07494 0.56544 0.25186 0.0
O205 O 0.07331 0.5991 0.21684 0.0
O206 O 0.08281 0.59503 0.69041 0.0
O207 O -0.01054 0.52531 0.58219 0.0
O208 O -0.0154 0.51881 0.44657 0.0
C209 C 0.09155 0.56519 0.71548 0.0
O210 O 0.13316 0.57665 0.73182 0.0
O211 O -0.02118 0.58453 0.72925 0.0
C212 C -0.01052 0.62163 0.3154 0.0
O213 O -0.01806 0.65567 0.30789 0.0
O214 O 0.01275 0.62126 0.37465 0.0
O215 O 0.07636 0.60539 0.50035 0.0
O216 O 0.0506 0.64176 0.5698 0.0
O217 O 0.06234 0.55561 0.32466 0.0
C218 C -0.02588 0.50157 0.51667 0.0
C219 C 0.0765 0.64202 0.51446 0.0
Zn220 Zn 0.3475 0.44572 0.62675 0.0
Zn221 Zn 0.36362 0.44939 0.39066 0.0
C222 C 0.34659 0.40144 0.78623 0.0
O223 O 0.33983 0.43177 0.82371 0.0
C224 C 0.39468 0.5293 0.29998 0.0
O225 O 0.39819 0.54616 0.3736 0.0
O226 O 0.34757 0.49969 0.67979 0.0
O227 O 0.40696 0.46427 0.56967 0.0
O228 O 0.42228 0.4631 0.43875 0.0
C229 C 0.37576 0.52871 0.72952 0.0
O230 O 0.3694 0.56139 0.75749 0.0
O231 O 0.3456 0.39939 0.70873 0.0
C232 C 0.31039 0.35543 0.32109 0.0
O233 O 0.2767 0.31372 0.32191 0.0
O234 O 0.31895 0.38109 0.38288 0.0
O235 O 0.33677 0.47303 0.4657 0.0
O236 O 0.2944 0.42061 0.54935 0.0
O237 O 0.37746 0.48654 0.2898 0.0
C238 C 0.43458 0.47085 0.51294 0.0
C239 C 0.29857 0.441 0.48285 0.0
Zn240 Zn 0.67537 0.791 0.21742 0.0
Zn241 Zn 0.71511 0.80412 0.44796 0.0
C242 C 0.74646 0.84213 0.11237 0.0
O243 O 0.73416 0.80185 0.08095 0.0
C244 C 0.65438 0.73371 0.56971 0.0
O245 O 0.69004 0.74245 0.61252 0.0
O246 O 0.64043 0.74924 0.12458 0.0
O247 O 0.68968 0.75846 0.30232 0.0
O248 O 0.7499 0.78136 0.37529 0.0
C249 C 0.62643 0.70722 0.13227 0.0
O250 O 0.63299 0.69212 0.20094 0.0
O251 O 0.73187 0.84437 0.18153 0.0
C252 C 0.727 0.86509 0.58019 0.0
O253 O 0.69239 0.82896 0.6087 0.0
O254 O 0.74737 0.86136 0.51869 0.0
O255 O 0.69285 0.82621 0.35861 0.0
O256 O 0.64116 0.81652 0.27327 0.0
O257 O 0.65876 0.75332 0.50201 0.0
C258 C 0.72943 0.7665 0.30714 0.0
C259 C 0.65694 0.82626 0.34504 0.0
Zn260 Zn 0.15427 0.86263 0.17264 0.0
Zn261 Zn 0.13043 0.8996 0.39159 0.0
C262 C 0.09704 0.87409 0.0601 0.0
O263 O 0.13414 0.90908 0.0356 0.0
C264 C 0.20355 0.91358 0.52469 0.0
O265 O 0.20307 0.94764 0.5621 0.0
O266 O 0.20307 0.87543 0.09737 0.0
O267 O 0.17292 0.91542 0.24911 0.0
O268 O 0.15285 0.95644 0.31713 0.0
C269 C 0.24135 0.90871 0.11418 0.0
O270 O 0.24874 0.93119 0.18312 0.0
O271 O 0.09825 0.84905 0.1151 0.0
C272 C 0.07326 0.87823 0.52968 0.0
O273 O 0.11125 0.90559 0.56647 0.0
O274 O 0.07208 0.87634 0.45268 0.0
O275 O 0.11213 0.84958 0.30894 0.0
O276 O 0.14144 0.8131 0.25016 0.0
O277 O 0.17957 0.89583 0.46088 0.0
C278 C 0.1655 0.94811 0.24938 0.0
C279 C 0.12446 0.82034 0.31307 0.0
Zn280 Zn 0.05519 0.25947 0.17567 0.0
Zn281 Zn 0.03506 0.21926 0.40886 0.0
C282 C 0.03002 0.18839 0.05862 0.0
O283 O 0.00486 0.20416 0.03036 0.0
C284 C 0.02336 0.28334 0.52314 0.0
O285 O -0.00795 0.24754 0.55966 0.0
O286 O 0.04969 0.29927 0.09142 0.0
O287 O 0.01174 0.24253 0.26703 0.0
O288 O -0.02347 0.18267 0.34278 0.0
C289 C 0.0222 0.31317 0.10317 0.0
O290 O -0.00044 0.30319 0.17096 0.0
O291 O 0.05073 0.20409 0.12529 0.0
C292 C 0.07828 0.20741 0.54755 0.0
O293 O 0.0642 0.23274 0.58246 0.0
O294 O 0.06285 0.19002 0.47778 0.0
O295 O 0.07521 0.23723 0.31478 0.0
O296 O 0.1147 0.29097 0.232 0.0
O297 O 0.04238 0.27815 0.46092 0.0
C298 C -0.01951 0.20211 0.27453 0.0
C299 C 0.11056 0.2737 0.30144 0.0
Zn300 Zn 0.10072 0.37539 0.94438 0.0
Zn301 Zn 0.09125 0.38348 0.71365 0.0
C302 C 0.15257 0.41687 0.10047 0.0
O303 O 0.11998 0.42161 0.13083 0.0
C304 C 0.04462 0.32793 0.56502 0.0
O305 O 0.07034 0.36455 0.52386 0.0
O306 O 0.0365 0.35424 0.97932 0.0
O307 O 0.11904 0.42731 0.87394 0.0
O308 O 0.06138 0.4042 0.7939 0.0
C309 C 0.01017 0.33364 0.03729 0.0
O310 O -0.0294 0.33031 0.03743 0.0
O311 O 0.14803 0.39803 0.03134 0.0
C312 C 0.16276 0.45234 0.60942 0.0
O313 O 0.18421 0.49374 0.58132 0.0
O314 O 0.12727 0.44001 0.64929 0.0
O315 O 0.13358 0.36339 0.76222 0.0
O316 O 0.10619 0.32804 0.87989 0.0
O317 O 0.04606 0.32969 0.64252 0.0
C318 C 0.08364 0.42729 0.85553 0.0
C319 C 0.13061 0.33597 0.81752 0.0
Zn320 Zn 0.56342 0.72305 0.97694 0.0
Zn321 Zn 0.55151 0.69963 0.74974 0.0
C322 C 0.52346 0.72612 0.13698 0.0
O323 O 0.52519 0.69043 0.16139 0.0
C324 C 0.60989 0.71074 0.60775 0.0
O325 O 0.5743 0.69988 0.56304 0.0
O326 O 0.59146 0.68371 0.00204 0.0
O327 O 0.51022 0.68633 0.9091 0.0
O328 O 0.53249 0.64973 0.83243 0.0
C329 C 0.61115 0.67726 0.06125 0.0
O330 O 0.61744 0.64222 0.05857 0.0
O331 O 0.54007 0.74398 0.06938 0.0
C332 C 0.48301 0.69906 0.63805 0.0
O333 O 0.44296 0.67726 0.60485 0.0
O334 O 0.49667 0.67691 0.67925 0.0
O335 O 0.56743 0.76301 0.79409 0.0
O336 O 0.60468 0.77687 0.91237 0.0
O337 O 0.60681 0.70969 0.68504 0.0
C338 C 0.5113 0.65045 0.89477 0.0
C339 C 0.59695 0.79001 0.84516 0.0
Zn340 Zn 0.22948 0.83322 0.96255 0.0
Zn341 Zn 0.23492 0.85015 0.72448 0.0
C342 C 0.21942 0.78386 0.12169 0.0
O343 O 0.25066 0.82105 0.15725 0.0
C344 C 0.2237 0.8892 0.56553 0.0
O345 O 0.22537 0.85615 0.52665 0.0
O346 O 0.27199 0.90009 0.99289 0.0
O347 O 0.25641 0.81938 0.86852 0.0
O348 O 0.2903 0.88021 0.79677 0.0
C349 C 0.27525 0.92528 0.05263 0.0
O350 O 0.30819 0.9674 0.05583 0.0
O351 O 0.21029 0.78424 0.04702 0.0
C352 C 0.20928 0.75848 0.65078 0.0
O353 O 0.21975 0.72698 0.63499 0.0
O354 O 0.23932 0.79705 0.67706 0.0
O355 O 0.17693 0.82834 0.78937 0.0
O356 O 0.17137 0.82513 0.92471 0.0
O357 O 0.23089 0.89401 0.64216 0.0
C358 C 0.29188 0.85585 0.85347 0.0
C359 C 0.15417 0.82045 0.8544 0.0
Zn360 Zn 0.55378 0.82583 0.30693 0.0
Zn361 Zn 0.58641 0.82412 0.55442 0.0
C362 C 0.59996 0.87503 0.14901 0.0
O363 O 0.56253 0.85042 0.10858 0.0
C364 C 0.51104 0.74779 0.624 0.0
O365 O 0.49168 0.77059 0.60055 0.0
O366 O 0.53207 0.76368 0.2603 0.0
O367 O 0.5938 0.8266 0.3918 0.0
O368 O 0.63716 0.82571 0.48477 0.0
C369 C 0.51136 0.75171 0.1931 0.0
O370 O 0.49365 0.77504 0.16407 0.0
O371 O 0.60024 0.87327 0.22669 0.0
C372 C 0.61674 0.9172 0.58173 0.0
O373 O 0.61126 0.91673 0.50278 0.0
O374 O 0.60949 0.88131 0.61764 0.0
O375 O 0.54267 0.82765 0.47895 0.0
O376 O 0.50641 0.83445 0.37724 0.0
O377 O 0.55314 0.76554 0.61732 0.0
C378 C 0.62899 0.82671 0.40986 0.0
C379 C 0.5125 0.83513 0.45457 0.0
Zn380 Zn 0.12505 0.7269 0.30836 0.0
Zn381 Zn 0.10148 0.76053 0.53175 0.0
C382 C 0.05415 0.7136 0.17321 0.0
O383 O 0.06093 0.68447 0.13149 0.0
C384 C 0.16416 0.74938 0.63325 0.0
O385 O 0.13005 0.70924 0.64772 0.0
O386 O 0.18333 0.75363 0.24576 0.0
O387 O 0.1417 0.77477 0.39453 0.0
O388 O 0.11211 0.81043 0.45508 0.0
C389 C 0.18598 0.74644 0.1707 0.0
O390 O 0.15174 0.71238 0.13387 0.0
O391 O 0.07408 0.72892 0.24158 0.0
C392 C 0.01497 0.71361 0.5941 0.0
O393 O 0.00625 0.6915 0.52446 0.0
O394 O 0.05357 0.74676 0.60934 0.0
O395 O 0.08209 0.70759 0.45402 0.0
O396 O 0.1062 0.67064 0.38173 0.0
O397 O 0.15913 0.77644 0.5881 0.0
C398 C 0.12885 0.80357 0.39143 0.0
C399 C 0.09116 0.67598 0.44962 0.0
Zn400 Zn 0.21615 0.37684 0.26558 0.0
Zn401 Zn 0.17811 0.34508 0.51588 0.0
C402 C 0.19257 0.31678 0.1146 0.0
O403 O 0.16498 0.33206 0.10208 0.0
C404 C 0.18 0.42156 0.59264 0.0
O405 O 0.22255 0.43891 0.57709 0.0
O406 O 0.18088 0.40466 0.22078 0.0
O407 O 0.17576 0.33591 0.34844 0.0
O408 O 0.13076 0.29377 0.44159 0.0
C409 C 0.18996 0.42279 0.15159 0.0
O410 O 0.22698 0.43007 0.11631 0.0
O411 O 0.21969 0.33235 0.17597 0.0
C412 C 0.23691 0.31353 0.55279 0.0
O413 O 0.24142 0.3165 0.47375 0.0
O414 O 0.20925 0.32256 0.58698 0.0
O415 O 0.22579 0.388 0.44112 0.0
O416 O 0.27093 0.42358 0.34229 0.0
O417 O 0.1534 0.37987 0.57668 0.0
C418 C 0.14015 0.30119 0.36656 0.0
C419 C 0.26363 0.41857 0.41932 0.0
Zn420 Zn 0.12287 0.22271 0.90185 0.0
Zn421 Zn 0.1935 0.27263 0.71283 0.0
C422 C 0.18749 0.27873 0.06087 0.0
O423 O 0.20748 0.25571 0.07923 0.0
C424 C 0.12005 0.21111 0.57816 0.0
O425 O 0.14042 0.19347 0.53716 0.0
O426 O 0.05918 0.19095 0.933 0.0
O427 O 0.1249 0.26444 0.8087 0.0
O428 O 0.18466 0.32229 0.7568 0.0
C429 C 0.05086 0.17197 0.00124 0.0
O430 O 0.07846 0.15933 0.03009 0.0
O431 O 0.15941 0.26565 0.00122 0.0
C432 C 0.26611 0.30361 0.60174 0.0
O433 O 0.30481 0.31138 0.57366 0.0
O434 O 0.25448 0.28837 0.67251 0.0
O435 O 0.18216 0.23814 0.80825 0.0
O436 O 0.1363 0.17321 0.85472 0.0
O437 O 0.13975 0.23873 0.63694 0.0
C438 C 0.15013 0.30722 0.80157 0.0
C439 C 0.16392 0.19601 0.8006 0.0
Zn440 Zn 0.69386 0.89496 0.95268 0.0
Zn441 Zn 0.66369 0.91704 0.73164 0.0
C442 C 0.64274 0.89542 0.10398 0.0
O443 O 0.68074 0.91318 0.14444 0.0
C444 C 0.73514 0.90973 0.60808 0.0
O445 O 0.76824 0.94694 0.57857 0.0
O446 O 0.7217 0.86238 0.00069 0.0
O447 O 0.66648 0.85693 0.84699 0.0
O448 O 0.61504 0.85421 0.76423 0.0
C449 C 0.7506 0.87683 0.05715 0.0
O450 O 0.76762 0.9189 0.08343 0.0
O451 O 0.64228 0.88801 0.02742 0.0
C452 C 0.62772 0.95776 0.62955 0.0
O453 O 0.61833 -0.01178 0.60223 0.0
O454 O 0.64565 0.96286 0.69891 0.0
O455 O 0.69303 0.93647 0.83292 0.0
O456 O 0.74323 0.96097 0.92495 0.0
O457 O 0.7075 0.91234 0.65571 0.0
C458 C 0.626 0.83718 0.82264 0.0
C459 C 0.73144 0.96557 0.85451 0.0
Zn460 Zn 0.02461 0.7786 0.97291 0.0
Zn461 Zn 0.03081 0.78941 0.73773 0.0
C462 C 0.0327 0.73703 0.13302 0.0
O463 O 0.02884 0.76841 0.17342 0.0
C464 C 0.0382 0.84085 0.57611 0.0
O465 O 7e-05 0.81128 0.5419 0.0
O466 O 0.02151 0.8327 0.01798 0.0
O467 O 0.08398 0.79996 0.9129 0.0
O468 O 0.08907 0.79959 0.77776 0.0
C469 C 0.05424 0.87036 0.04105 0.0
O470 O 0.04803 0.90478 0.05665 0.0
O471 O 0.02746 0.73405 0.05583 0.0
C472 C -0.01699 0.69611 0.65899 0.0
O473 O 0.95109 0.65351 0.65795 0.0
O474 O -0.01227 0.72115 0.71987 0.0
O475 O 0.00503 0.80987 0.82343 0.0
O476 O -0.03001 0.75049 0.89823 0.0
O477 O 0.04944 0.83303 0.6449 0.0
C478 C 0.10655 0.80628 0.84811 0.0
C479 C -0.03096 0.77441 0.83999 0.0
Zn480 Zn 0.33236 0.13355 0.48831 0.0
Zn481 Zn 0.37028 0.13875 0.73462 0.0
C482 C 0.40668 0.21374 0.42483 0.0
O483 O 0.42865 0.19545 0.45707 0.0
C484 C 0.32139 0.07805 0.89147 0.0
O485 O 0.35724 0.08333 0.92934 0.0
O486 O 0.30929 0.07589 0.42697 0.0
O487 O 0.37697 0.13047 0.56209 0.0
O488 O 0.41501 0.12652 0.66392 0.0
C489 C 0.30211 0.04122 0.46717 0.0
O490 O 0.30697 0.04401 0.54649 0.0
O491 O 0.36419 0.19183 0.42427 0.0
C492 C 0.40401 0.20427 0.85445 0.0
O493 O 0.41026 0.1728 0.88694 0.0
O494 O 0.3957 0.20182 0.77917 0.0
O495 O 0.3295 0.13757 0.65046 0.0
O496 O 0.28195 0.13159 0.55942 0.0
O497 O 0.32466 0.09514 0.8211 0.0
C498 C 0.40717 0.12314 0.58687 0.0
C499 C 0.29248 0.13385 0.63404 0.0
Zn500 Zn 0.81681 0.19307 0.51371 0.0
Zn501 Zn 0.79545 0.22786 0.73819 0.0
C502 C 0.75368 0.20271 0.41162 0.0
O503 O 0.78755 0.243 0.397 0.0
C504 C 0.86634 0.24258 0.87194 0.0
O505 O 0.85658 0.26943 0.9142 0.0
O506 O 0.86446 0.20719 0.43558 0.0
O507 O 0.83574 0.24622 0.5906 0.0
O508 O 0.81271 0.28356 0.66433 0.0
C509 C 0.903 0.24065 0.44973 0.0
O510 O 0.91214 0.26295 0.51924 0.0
O511 O 0.75896 0.17609 0.45752 0.0
C512 C 0.73325 0.20847 0.87584 0.0
O513 O 0.76578 0.24404 0.91296 0.0
O514 O 0.73779 0.20044 0.80209 0.0
O515 O 0.7781 0.17932 0.6533 0.0
O516 O 0.80692 0.14357 0.59075 0.0
O517 O 0.84784 0.22752 0.80246 0.0
C518 C 0.82661 0.27778 0.59556 0.0
C519 C 0.79077 0.15036 0.65528 0.0
Zn520 Zn 0.73523 0.60008 0.53139 0.0
Zn521 Zn 0.69555 0.56858 0.77872 0.0
C522 C 0.73549 0.52267 0.46351 0.0
O523 O 0.69472 0.5033 0.49144 0.0
C524 C 0.71798 0.62396 0.93265 0.0
O525 O 0.74641 0.60927 0.94039 0.0
O526 O 0.70271 0.62169 0.46302 0.0
O527 O 0.68842 0.55836 0.60788 0.0
O528 O 0.64042 0.52352 0.70228 0.0
C529 C 0.67801 0.63344 0.5009 0.0
O530 O 0.67812 0.63402 0.58048 0.0
O531 O 0.75998 0.56552 0.46925 0.0
C532 C 0.72002 0.51726 0.88514 0.0
O533 O 0.68107 0.50506 0.91789 0.0
O534 O 0.73009 0.53948 0.82003 0.0
O535 O 0.73837 0.61206 0.69987 0.0
O536 O 0.78238 0.65263 0.60387 0.0
O537 O 0.69053 0.60967 0.87192 0.0
C538 C 0.64919 0.52937 0.62606 0.0
C539 C 0.77322 0.6472 0.67929 0.0
Zn540 Zn 0.71582 0.67068 0.33966 0.0
Zn541 Zn 0.78552 0.71693 0.14714 0.0
C542 C 0.79217 0.73451 0.46917 0.0
O543 O 0.77249 0.75244 0.51152 0.0
C544 C 0.72247 0.66022 0.99037 0.0
O545 O 0.70119 0.68252 0.97683 0.0
O546 O 0.6559 0.65616 0.38394 0.0
O547 O 0.7245 0.70289 0.24102 0.0
O548 O 0.77077 0.76622 0.18873 0.0
C549 C 0.64692 0.64234 0.45602 0.0
O550 O 0.60917 0.63465 0.48864 0.0
O551 O 0.77129 0.70613 0.41187 0.0
C552 C 0.85914 0.77388 0.05594 0.0
O553 O 0.83163 0.78806 0.03358 0.0
O554 O 0.84936 0.74886 0.11742 0.0
O555 O 0.7814 0.67765 0.24466 0.0
O556 O 0.72357 0.61938 0.29851 0.0
O557 O 0.75124 0.67271 0.04859 0.0
C558 C 0.74337 0.74522 0.24444 0.0
C559 C 0.75666 0.63486 0.25032 0.0
Zn560 Zn 0.25899 0.03683 0.30704 0.0
Zn561 Zn 0.2261 0.05252 0.08872 0.0
C562 C 0.1927 0.04479 0.43131 0.0
O563 O 0.17914 0.00709 0.47132 0.0
C564 C 0.27882 0.0616 0.93662 0.0
O565 O 0.2442 0.05927 0.89875 0.0
O566 O 0.27497 -0.00786 0.35388 0.0
O567 O 0.2302 0.01249 0.20573 0.0
O568 O 0.17551 -0.01238 0.12274 0.0
C569 C 0.29179 -0.00059 0.42453 0.0
O570 O 0.30089 0.96998 0.45779 0.0
O571 O 0.22087 0.05524 0.3744 0.0
C572 C 0.16815 0.07095 0.98546 0.0
O573 O 0.14894 0.02846 0.96063 0.0
O574 O 0.19904 0.0853 0.03827 0.0
O575 O 0.25441 0.0926 0.19213 0.0
O576 O 0.30883 0.09754 0.26923 0.0
O577 O 0.27746 0.05701 0.01392 0.0
C578 C 0.19038 -0.01597 0.19088 0.0
C579 C 0.29535 0.11408 0.2138 0.0
Zn580 Zn 0.88589 0.16539 0.30506 0.0
Zn581 Zn 0.89574 0.1786 0.07318 0.0
C582 C 0.88002 0.11309 0.46672 0.0
O583 O 0.91974 0.13972 0.49868 0.0
C584 C 0.889 0.22055 0.91267 0.0
O585 O 0.89437 0.19001 0.87249 0.0
O586 O 0.92779 0.23429 0.32081 0.0
O587 O 0.91226 0.14479 0.22062 0.0
O588 O 0.94778 0.20647 0.1516 0.0
C589 C 0.93373 0.25882 0.38309 0.0
O590 O -0.03459 0.30153 0.38395 0.0
O591 O 0.86863 0.12306 0.40002 0.0
C592 C 0.87188 0.08959 0.00757 0.0
O593 O 0.87882 0.05563 0.992 0.0
O594 O 0.90416 0.12774 0.02896 0.0
O595 O 0.83441 0.15406 0.12871 0.0
O596 O 0.82741 0.15323 0.2636 0.0
O597 O 0.89325 0.22318 0.99005 0.0
C598 C 0.94817 0.18098 0.20736 0.0
C599 C 0.81077 0.14637 0.19252 0.0
Zn600 Zn 0.1974 0.13986 0.59796 0.0
Zn601 Zn 0.24089 0.16201 0.82688 0.0
C602 C 0.25506 0.21418 0.47337 0.0
O603 O 0.21938 0.20726 0.43259 0.0
C604 C 0.17107 0.1055 0.93123 0.0
O605 O 0.18044 0.1447 0.96405 0.0
O606 O 0.17083 0.07968 0.5341 0.0
O607 O 0.22525 0.12521 0.68835 0.0
O608 O 0.2802 0.14282 0.77115 0.0
C609 C 0.18391 0.08053 0.46163 0.0
O610 O 0.20173 0.11883 0.42255 0.0
O611 O 0.25088 0.1924 0.53852 0.0
C612 C 0.28378 0.2456 0.91514 0.0
O613 O 0.27516 0.26013 0.84773 0.0
O614 O 0.27308 0.20428 0.9207 0.0
O615 O 0.2217 0.19041 0.74108 0.0
O616 O 0.15933 0.15859 0.67133 0.0
O617 O 0.18754 0.1053 0.86287 0.0
C618 C 0.26374 0.13084 0.70022 0.0
C619 C 0.18053 0.17742 0.73754 0.0
Zn620 Zn 0.78861 0.0546 0.65259 0.0
Zn621 Zn 0.77449 0.09787 0.88516 0.0
C622 C 0.71491 0.03936 0.52135 0.0
O623 O 0.71423 0.00387 0.4874 0.0
C624 C 0.8287 0.08514 0.99014 0.0
O625 O 0.79285 0.04498 0.99077 0.0
O626 O 0.84659 0.07653 0.59008 0.0
O627 O 0.80754 0.10369 0.73494 0.0
O628 O 0.78283 0.14279 0.79838 0.0
C629 C 0.84451 0.07605 0.51307 0.0
O630 O 0.80582 0.05057 0.47704 0.0
O631 O 0.73979 0.05863 0.58352 0.0
C632 C 0.68477 0.04613 0.93036 0.0
O633 O 0.68237 0.02323 0.86402 0.0
O634 O 0.72103 0.0812 0.95083 0.0
O635 O 0.76674 0.04257 0.82589 0.0
O636 O 0.7642 -0.00195 0.72669 0.0
O637 O 0.82759 0.11742 0.95467 0.0
C638 C 0.79626 0.1336 0.7329 0.0
C639 C 0.75816 0.00375 0.80182 0.0
Zn640 Zn 0.881 0.73093 0.6352 0.0
Zn641 Zn 0.85698 0.69602 0.87303 0.0
C642 C 0.8934 0.66627 0.52364 0.0
O643 O 0.92373 0.7017 0.4848 0.0
C644 C 0.88305 0.76459 0.99306 0.0
O645 O 0.90952 0.74915 0.01535 0.0
O646 O 0.8522 0.75854 0.56459 0.0
O647 O 0.83957 0.71177 0.72643 0.0
O648 O 0.79717 0.66431 0.81519 0.0
C649 C 0.83456 0.73866 0.49736 0.0
O650 O 0.84713 0.71163 0.46423 0.0
O651 O 0.87481 0.67207 0.58586 0.0
C652 C 0.88713 0.64082 0.94684 0.0
O653 O 0.91236 0.65285 0.8822 0.0
O654 O 0.85935 0.6545 0.95667 0.0
O655 O 0.90334 0.71215 0.78611 0.0
O656 O 0.93874 0.76924 0.70456 0.0
O657 O 0.86279 0.75165 0.9253 0.0
C658 C 0.80287 0.67742 0.74237 0.0
C659 C 0.93497 0.75208 0.77521 0.0
Zn660 Zn 0.82654 0.56568 0.33563 0.0
Zn661 Zn 0.80163 0.56339 0.0974 0.0
C662 C 0.87225 0.621 0.48422 0.0
O663 O 0.84402 0.58548 0.52541 0.0
C664 C 0.75716 0.52376 0.93779 0.0
O665 O 0.79671 0.53709 0.9068 0.0
O666 O 0.78874 0.50814 0.3967 0.0
O667 O 0.79017 0.59228 0.28571 0.0
O668 O 0.78512 0.60501 0.1537 0.0
C669 C 0.75414 0.49386 0.44004 0.0
O670 O 0.73471 0.45188 0.46536 0.0
O671 O 0.87301 0.61809 0.40704 0.0
C672 C 0.89654 0.61826 0.01234 0.0
O673 O 0.93665 0.62311 0.01834 0.0
O674 O 0.86712 0.59333 0.06303 0.0
O675 O 0.79486 0.51991 0.17949 0.0
O676 O 0.85554 0.54555 0.25269 0.0
O677 O 0.75393 0.53047 0.0127 0.0
C678 C 0.77595 0.60681 0.22809 0.0
C679 C 0.83251 0.52324 0.19108 0.0
Zn680 Zn 0.35916 0.25333 0.29282 0.0
Zn681 Zn 0.34865 0.23108 0.06835 0.0
C682 C 0.29958 0.23867 0.4354 0.0
O683 O 0.33533 0.2503 0.48011 0.0
C684 C 0.38984 0.2296 0.90694 0.0
O685 O 0.38946 0.26576 0.88104 0.0
O686 O 0.41469 0.28069 0.36265 0.0
O687 O 0.34634 0.19018 0.2507 0.0
O688 O 0.31031 0.1755 0.13102 0.0
C689 C 0.43121 0.26222 0.40676 0.0
O690 O 0.47091 0.2878 0.43968 0.0
O691 O 0.30287 0.24063 0.35808 0.0
C692 C 0.29782 0.27472 0.98739 0.0
O693 O 0.28946 0.30838 0.99193 0.0
O694 O 0.31804 0.26859 0.0462 0.0
O695 O 0.40232 0.26857 0.13481 0.0
O696 O 0.37587 0.30235 0.20856 0.0
O697 O 0.37248 0.21219 0.97438 0.0
C698 C 0.32062 0.16247 0.19571 0.0
C699 C 0.39927 0.30338 0.1484 0.0
Zn700 Zn 0.68314 0.10107 0.31908 0.0
Zn701 Zn 0.68841 0.12068 0.07855 0.0
C702 C 0.69477 0.06312 0.47849 0.0
O703 O 0.69207 0.0959 0.51617 0.0
C704 C 0.69993 0.17081 0.92445 0.0
O705 O 0.67255 0.13179 0.88892 0.0
O706 O 0.67893 0.15438 0.36631 0.0
O707 O 0.73945 0.12244 0.24864 0.0
O708 O 0.74667 0.1278 0.11359 0.0
C709 C 0.70846 0.193 0.39334 0.0
O710 O 0.69734 0.22401 0.40916 0.0
O711 O 0.68846 0.0581 0.4017 0.0
C712 C 0.6466 0.0299 0.98308 0.0
O713 O 0.61322 -0.01179 0.97481 0.0
O714 O 0.64587 0.05515 0.03942 0.0
O715 O 0.6627 0.13091 0.17823 0.0
O716 O 0.62678 0.07042 0.24998 0.0
O717 O 0.70659 0.17242 0.00058 0.0
C718 C 0.76304 0.13137 0.18441 0.0
C719 C 0.62664 0.09488 0.19222 0.0
loop_
_geom_bond_atom_site_label_1
_geom_bond_atom_site_label_2
_geom_bond_distance
_geom_bond_site_symmetry_2
_ccdc_geom_bond_type
Zn0 O6 1.969 1_455 S
Zn0 O7 1.965 . S
Zn0 O11 2.024 . S
Zn0 O16 1.969 . S
Zn1 O8 1.969 . S
Zn1 O14 1.969 . S
Zn1 O15 1.965 . S
Zn1 O17 2.024 . S
C2 O3 1.229 . S
C2 O11 1.058 . S
O3 C2 1.229 . S
C4 O5 1.229 . S
C4 O17 1.058 . S
O5 C4 1.229 . S
O6 Zn0 1.969 1_655 S
O6 C9 1.267 1_655 S
O7 Zn0 1.965 . S
O7 C18 1.260 1_556 S
O8 Zn1 1.969 . S
O8 C18 1.258 . S
C9 O6 1.267 1_455 S
C9 O10 1.228 . S
O10 C9 1.228 . S
O11 Zn0 2.024 . S
O11 C2 1.058 . S
C12 O13 1.228 . S
C12 O14 1.267 . S
O13 C12 1.228 . S
O14 Zn1 1.969 . S
O14 C12 1.267 . S
O15 Zn1 1.965 . S
O15 C19 1.260 . S
O16 Zn0 1.969 . S
O16 C19 1.258 1_556 S
O17 Zn1 2.024 . S
O17 C4 1.058 . S
C18 O7 1.260 1_554 S
C18 O8 1.258 . S
C19 O15 1.260 . S
C19 O16 1.258 1_554 S
Zn20 O26 1.969 . S
Zn20 O27 1.965 . S
Zn20 O31 2.024 . S
Zn20 O36 1.969 . S
Zn21 O28 1.969 . S
Zn21 O34 1.969 . S
Zn21 O35 1.965 . S
Zn21 O37 2.024 . S
C22 O23 1.229 . S
C22 O31 1.058 . S
O23 C22 1.229 . S
C24 O25 1.229 . S
C24 O37 1.058 . S
O25 C24 1.229 . S
O26 Zn20 1.969 . S
O26 C29 1.267 . S
O27 Zn20 1.965 . S
O27 C38 1.260 1_556 S
O28 Zn21 1.969 . S
O28 C38 1.258 . S
C29 O26 1.267 . S
C29 O30 1.228 . S
O30 C29 1.228 . S
O31 Zn20 2.024 . S
O31 C22 1.058 . S
C32 O33 1.228 . S
C32 O34 1.267 . S
O33 C32 1.228 . S
O34 Zn21 1.969 . S
O34 C32 1.267 . S
O35 Zn21 1.965 . S
O35 C39 1.260 . S
O36 Zn20 1.969 . S
O36 C39 1.258 1_556 S
O37 Zn21 2.024 . S
O37 C24 1.058 . S
C38 O27 1.260 1_554 S
C38 O28 1.258 . S
C39 O35 1.260 . S
C39 O36 1.258 1_554 S
Zn40 O46 1.969 1_565 S
Zn40 O47 1.965 . S
Zn40 O51 2.024 . S
Zn40 O56 1.969 . S
Zn41 O48 1.969 . S
Zn41 O54 1.969 . S
Zn41 O55 1.965 . S
Zn41 O57 2.024 . S
C42 O43 1.229 . S
C42 O51 1.058 . S
O43 C42 1.229 . S
C44 O45 1.229 . S
C44 O57 1.058 . S
O45 C44 1.229 . S
O46 Zn40 1.969 1_545 S
O46 C49 1.267 1_545 S
O47 Zn40 1.965 . S
O47 C58 1.260 1_556 S
O48 Zn41 1.969 . S
O48 C58 1.258 . S
C49 O46 1.267 1_565 S
C49 O50 1.228 . S
O50 C49 1.228 . S
O51 Zn40 2.024 . S
O51 C42 1.058 . S
C52 O53 1.228 . S
C52 O54 1.267 . S
O53 C52 1.228 . S
O54 Zn41 1.969 . S
O54 C52 1.267 . S
O55 Zn41 1.965 . S
O55 C59 1.260 . S
O56 Zn40 1.969 . S
O56 C59 1.258 1_556 S
O57 Zn41 2.024 . S
O57 C44 1.058 . S
C58 O47 1.260 1_554 S
C58 O48 1.258 . S
C59 O55 1.260 . S
C59 O56 1.258 1_554 S
Zn60 O66 1.969 1_545 S
Zn60 O67 1.965 . S
Zn60 O71 2.024 . S
Zn60 O76 1.969 . S
Zn61 O68 1.969 . S
Zn61 O74 1.969 . S
Zn61 O75 1.965 . S
Zn61 O77 2.024 . S
C62 O63 1.229 . S
C62 O71 1.058 . S
O63 C62 1.229 . S
C64 O65 1.229 . S
C64 O77 1.058 . S
O65 C64 1.229 . S
O66 Zn60 1.969 1_565 S
O66 C69 1.267 1_565 S
O67 Zn60 1.965 . S
O67 C78 1.260 . S
O68 Zn61 1.969 . S
O68 C78 1.258 . S
C69 O66 1.267 1_545 S
C69 O70 1.228 . S
O70 C69 1.228 . S
O71 Zn60 2.024 . S
O71 C62 1.058 . S
C72 O73 1.228 . S
C72 O74 1.267 . S
O73 C72 1.228 . S
O74 Zn61 1.969 . S
O74 C72 1.267 . S
O75 Zn61 1.965 . S
O75 C79 1.260 . S
O76 Zn60 1.969 . S
O76 C79 1.258 . S
O77 Zn61 2.024 . S
O77 C64 1.058 . S
C78 O67 1.260 . S
C78 O68 1.258 . S
C79 O75 1.260 . S
C79 O76 1.258 . S
Zn80 O86 1.969 1_655 S
Zn80 O87 1.965 . S
Zn80 O91 2.024 . S
Zn80 O96 1.969 . S
Zn81 O88 1.969 . S
Zn81 O94 1.969 . S
Zn81 O95 1.965 . S
Zn81 O97 2.024 . S
C82 O83 1.229 . S
C82 O91 1.058 . S
O83 C82 1.229 . S
C84 O85 1.229 . S
C84 O97 1.058 . S
O85 C84 1.229 . S
O86 Zn80 1.969 1_455 S
O86 C89 1.267 1_455 S
O87 Zn80 1.965 . S
O87 C98 1.260 . S
O88 Zn81 1.969 . S
O88 C98 1.258 . S
C89 O86 1.267 1_655 S
C89 O90 1.228 . S
O90 C89 1.228 . S
O91 Zn80 2.024 . S
O91 C82 1.058 . S
C92 O93 1.228 . S
C92 O94 1.267 . S
O93 C92 1.228 . S
O94 Zn81 1.969 . S
O94 C92 1.267 . S
O95 Zn81 1.965 . S
O95 C99 1.260 . S
O96 Zn80 1.969 . S
O96 C99 1.258 . S
O97 Zn81 2.024 . S
O97 C84 1.058 . S
C98 O87 1.260 . S
C98 O88 1.258 . S
C99 O95 1.260 . S
C99 O96 1.258 . S
Zn100 O106 1.969 . S
Zn100 O107 1.965 . S
Zn100 O111 2.024 . S
Zn100 O116 1.969 . S
Zn101 O108 1.969 . S
Zn101 O114 1.969 . S
Zn101 O115 1.965 . S
Zn101 O117 2.024 . S
C102 O103 1.229 . S
C102 O111 1.058 . S
O103 C102 1.229 . S
C104 O105 1.229 . S
C104 O117 1.058 . S
O105 C104 1.229 . S
O106 Zn100 1.969 . S
O106 C109 1.267 . S
O107 Zn100 1.965 . S
O107 C118 1.260 . S
O108 Zn101 1.969 . S
O108 C118 1.258 . S
C109 O106 1.267 . S
C109 O110 1.228 . S
O110 C109 1.228 . S
O111 Zn100 2.024 . S
O111 C102 1.058 . S
C112 O113 1.228 . S
C112 O114 1.267 . S
O113 C112 1.228 . S
O114 Zn101 1.969 . S
O114 C112 1.267 . S
O115 Zn101 1.965 . S
O115 C119 1.260 . S
O116 Zn100 1.969 . S
O116 C119 1.258 . S
O117 Zn101 2.024 . S
O117 C104 1.058 . S
C118 O107 1.260 . S
C118 O108 1.258 . S
C119 O115 1.260 . S
C119 O116 1.258 . S
Zn120 O126 1.969 . S
Zn120 O127 1.965 . S
Zn120 O131 2.024 . S
Zn120 O136 1.969 . S
Zn121 O128 1.969 . S
Zn121 O134 1.969 1_655 S
Zn121 O135 1.965 . S
Zn121 O137 2.024 . S
C122 O123 1.229 . S
C122 O131 1.058 . S
O123 C122 1.229 . S
C124 O125 1.229 . S
C124 O137 1.058 . S
O125 C124 1.229 . S
O126 Zn120 1.969 . S
O126 C129 1.267 . S
O127 Zn120 1.965 . S
O127 C138 1.260 1_556 S
O128 Zn121 1.969 . S
O128 C138 1.258 . S
C129 O126 1.267 . S
C129 O130 1.228 . S
O130 C129 1.228 . S
O131 Zn120 2.024 . S
O131 C122 1.058 . S
C132 O133 1.228 . S
C132 O134 1.267 1_655 S
O133 C132 1.228 . S
O134 Zn121 1.969 1_455 S
O134 C132 1.267 1_455 S
O135 Zn121 1.965 . S
O135 C139 1.260 . S
O136 Zn120 1.969 . S
O136 C139 1.258 1_556 S
O137 Zn121 2.024 . S
O137 C124 1.058 . S
C138 O127 1.260 1_554 S
C138 O128 1.258 . S
C139 O135 1.260 . S
C139 O136 1.258 1_554 S
Zn140 O146 1.969 . S
Zn140 O147 1.965 . S
Zn140 O151 2.024 . S
Zn140 O156 1.969 . S
Zn141 O148 1.969 . S
Zn141 O154 1.969 . S
Zn141 O155 1.965 . S
Zn141 O157 2.024 . S
C142 O143 1.229 . S
C142 O151 1.058 . S
O143 C142 1.229 . S
C144 O145 1.229 . S
C144 O157 1.058 . S
O145 C144 1.229 . S
O146 Zn140 1.969 . S
O146 C149 1.267 . S
O147 Zn140 1.965 . S
O147 C158 1.260 1_556 S
O148 Zn141 1.969 . S
O148 C158 1.258 . S
C149 O146 1.267 . S
C149 O150 1.228 . S
O150 C149 1.228 . S
O151 Zn140 2.024 . S
O151 C142 1.058 . S
C152 O153 1.228 . S
C152 O154 1.267 . S
O153 C152 1.228 . S
O154 Zn141 1.969 . S
O154 C152 1.267 . S
O155 Zn141 1.965 . S
O155 C159 1.260 . S
O156 Zn140 1.969 . S
O156 C159 1.258 1_556 S
O157 Zn141 2.024 . S
O157 C144 1.058 . S
C158 O147 1.260 1_554 S
C158 O148 1.258 . S
C159 O155 1.260 . S
C159 O156 1.258 1_554 S
Zn160 O166 1.969 . S
Zn160 O167 1.965 . S
Zn160 O171 2.024 . S
Zn160 O176 1.969 . S
Zn161 O168 1.969 . S
Zn161 O174 1.969 1_545 S
Zn161 O175 1.965 . S
Zn161 O177 2.024 . S
C162 O163 1.229 . S
C162 O171 1.058 . S
O163 C162 1.229 . S
C164 O165 1.229 . S
C164 O177 1.058 . S
O165 C164 1.229 . S
O166 Zn160 1.969 . S
O166 C169 1.267 . S
O167 Zn160 1.965 . S
O167 C178 1.260 1_556 S
O168 Zn161 1.969 . S
O168 C178 1.258 . S
C169 O166 1.267 . S
C169 O170 1.228 . S
O170 C169 1.228 . S
O171 Zn160 2.024 . S
O171 C162 1.058 . S
C172 O173 1.228 . S
C172 O174 1.267 1_545 S
O173 C172 1.228 . S
O174 Zn161 1.969 1_565 S
O174 C172 1.267 1_565 S
O175 Zn161 1.965 . S
O175 C179 1.260 . S
O176 Zn160 1.969 . S
O176 C179 1.258 1_556 S
O177 Zn161 2.024 . S
O177 C164 1.058 . S
C178 O167 1.260 1_554 S
C178 O168 1.258 . S
C179 O175 1.260 . S
C179 O176 1.258 1_554 S
Zn180 O186 1.969 . S
Zn180 O187 1.965 . S
Zn180 O191 2.024 . S
Zn180 O196 1.969 . S
Zn181 O188 1.969 . S
Zn181 O194 1.969 1_565 S
Zn181 O195 1.965 . S
Zn181 O197 2.024 . S
C182 O183 1.229 . S
C182 O191 1.058 . S
O183 C182 1.229 . S
C184 O185 1.229 . S
C184 O197 1.058 . S
O185 C184 1.229 . S
O186 Zn180 1.969 . S
O186 C189 1.267 . S
O187 Zn180 1.965 . S
O187 C198 1.260 . S
O188 Zn181 1.969 . S
O188 C198 1.258 . S
C189 O186 1.267 . S
C189 O190 1.228 . S
O190 C189 1.228 . S
O191 Zn180 2.024 . S
O191 C182 1.058 . S
C192 O193 1.228 . S
C192 O194 1.267 1_565 S
O193 C192 1.228 . S
O194 Zn181 1.969 1_545 S
O194 C192 1.267 1_545 S
O195 Zn181 1.965 . S
O195 C199 1.260 . S
O196 Zn180 1.969 . S
O196 C199 1.258 . S
O197 Zn181 2.024 . S
O197 C184 1.058 . S
C198 O187 1.260 . S
C198 O188 1.258 . S
C199 O195 1.260 . S
C199 O196 1.258 . S
Zn200 O206 1.969 . S
Zn200 O207 1.965 . S
Zn200 O211 2.024 . S
Zn200 O216 1.969 . S
Zn201 O208 1.969 . S
Zn201 O214 1.969 1_455 S
Zn201 O215 1.965 . S
Zn201 O217 2.024 . S
C202 O203 1.229 . S
C202 O211 1.058 . S
O203 C202 1.229 . S
C204 O205 1.229 . S
C204 O217 1.058 . S
O205 C204 1.229 . S
O206 Zn200 1.969 . S
O206 C209 1.267 . S
O207 Zn200 1.965 . S
O207 C218 1.260 . S
O208 Zn201 1.969 . S
O208 C218 1.258 . S
C209 O206 1.267 . S
C209 O210 1.228 . S
O210 C209 1.228 . S
O211 Zn200 2.024 . S
O211 C202 1.058 . S
C212 O213 1.228 . S
C212 O214 1.267 1_455 S
O213 C212 1.228 . S
O214 Zn201 1.969 1_655 S
O214 C212 1.267 1_655 S
O215 Zn201 1.965 . S
O215 C219 1.260 . S
O216 Zn200 1.969 . S
O216 C219 1.258 . S
O217 Zn201 2.024 . S
O217 C204 1.058 . S
C218 O207 1.260 . S
C218 O208 1.258 . S
C219 O215 1.260 . S
C219 O216 1.258 . S
Zn220 O226 1.969 . S
Zn220 O227 1.965 . S
Zn220 O231 2.024 . S
Zn220 O236 1.969 . S
Zn221 O228 1.969 . S
Zn221 O234 1.969 . S
Zn221 O235 1.965 . S
Zn221 O237 2.024 . S
C222 O223 1.229 . S
C222 O231 1.058 . S
O223 C222 1.229 . S
C224 O225 1.229 . S
C224 O237 1.058 . S
O225 C224 1.229 . S
O226 Zn220 1.969 . S
O226 C229 1.267 . S
O227 Zn220 1.965 . S
O227 C238 1.260 . S
O228 Zn221 1.969 . S
O228 C238 1.258 . S
C229 O226 1.267 . S
C229 O230 1.228 . S
O230 C229 1.228 . S
O231 Zn220 2.024 . S
O231 C222 1.058 . S
C232 O233 1.228 . S
C232 O234 1.267 . S
O233 C232 1.228 . S
O234 Zn221 1.969 . S
O234 C232 1.267 . S
O235 Zn221 1.965 . S
O235 C239 1.260 . S
O236 Zn220 1.969 . S
O236 C239 1.258 . S
O237 Zn221 2.024 . S
O237 C224 1.058 . S
C238 O227 1.260 . S
C238 O228 1.258 . S
C239 O235 1.260 . S
C239 O236 1.258 . S
Zn240 O246 1.969 . S
Zn240 O247 1.965 . S
Zn240 O251 2.024 . S
Zn240 O256 1.969 . S
Zn241 O248 1.969 . S
Zn241 O254 1.969 . S
Zn241 O255 1.965 . S
Zn241 O257 2.024 . S
C242 O243 1.229 . S
C242 O251 1.058 . S
O243 C242 1.229 . S
C244 O245 1.229 . S
C244 O257 1.058 . S
O245 C244 1.229 . S
O246 Zn240 1.969 . S
O246 C249 1.267 . S
O247 Zn240 1.965 . S
O247 C258 1.260 . S
O248 Zn241 1.969 . S
O248 C258 1.258 . S
C249 O246 1.267 . S
C249 O250 1.228 . S
O250 C249 1.228 . S
O251 Zn240 2.024 . S
O251 C242 1.058 . S
C252 O253 1.228 . S
C252 O254 1.267 . S
O253 C252 1.228 . S
O254 Zn241 1.969 . S
O254 C252 1.267 . S
O255 Zn241 1.965 . S
O255 C259 1.260 . S
O256 Zn240 1.969 . S
O256 C259 1.258 . S
O257 Zn241 2.024 . S
O257 C244 1.058 . S
C258 O247 1.260 . S
C258 O248 1.258 . S
C259 O255 1.260 . S
C259 O256 1.258 . S
Zn260 O266 1.969 . S
Zn260 O267 1.965 . S
Zn260 O271 2.024 . S
Zn260 O276 1.969 . S
Zn261 O268 1.969 . S
Zn261 O274 1.969 . S
Zn261 O275 1.965 . S
Zn261 O277 2.024 . S
C262 O263 1.229 . S
C262 O271 1.058 . S
O263 C262 1.229 . S
C264 O265 1.229 . S
C264 O277 1.058 . S
O265 C264 1.229 . S
O266 Zn260 1.969 . S
O266 C269 1.267 . S
O267 Zn260 1.965 . S
O267 C278 1.260 1_565 S
O268 Zn261 1.969 . S
O268 C278 1.258 1_565 S
C269 O266 1.267 . S
C269 O270 1.228 . S
O270 C269 1.228 . S
O271 Zn260 2.024 . S
O271 C262 1.058 . S
C272 O273 1.228 . S
C272 O274 1.267 . S
O273 C272 1.228 . S
O274 Zn261 1.969 . S
O274 C272 1.267 . S
O275 Zn261 1.965 . S
O275 C279 1.260 . S
O276 Zn260 1.969 . S
O276 C279 1.258 . S
O277 Zn261 2.024 . S
O277 C264 1.058 . S
C278 O267 1.260 1_545 S
C278 O268 1.258 1_545 S
C279 O275 1.260 . S
C279 O276 1.258 . S
Zn280 O286 1.969 . S
Zn280 O287 1.965 . S
Zn280 O291 2.024 . S
Zn280 O296 1.969 . S
Zn281 O288 1.969 . S
Zn281 O294 1.969 . S
Zn281 O295 1.965 . S
Zn281 O297 2.024 . S
C282 O283 1.229 . S
C282 O291 1.058 . S
O283 C282 1.229 . S
C284 O285 1.229 . S
C284 O297 1.058 . S
O285 C284 1.229 . S
O286 Zn280 1.969 . S
O286 C289 1.267 . S
O287 Zn280 1.965 . S
O287 C298 1.260 1_455 S
O288 Zn281 1.969 . S
O288 C298 1.258 1_455 S
C289 O286 1.267 . S
C289 O290 1.228 . S
O290 C289 1.228 . S
O291 Zn280 2.024 . S
O291 C282 1.058 . S
C292 O293 1.228 . S
C292 O294 1.267 . S
O293 C292 1.228 . S
O294 Zn281 1.969 . S
O294 C292 1.267 . S
O295 Zn281 1.965 . S
O295 C299 1.260 . S
O296 Zn280 1.969 . S
O296 C299 1.258 . S
O297 Zn281 2.024 . S
O297 C284 1.058 . S
C298 O287 1.260 1_655 S
C298 O288 1.258 1_655 S
C299 O295 1.260 . S
C299 O296 1.258 . S
Zn300 O306 1.969 1_556 S
Zn300 O307 1.965 . S
Zn300 O311 2.024 1_556 S
Zn300 O316 1.969 . S
Zn301 O308 1.969 . S
Zn301 O314 1.969 . S
Zn301 O315 1.965 . S
Zn301 O317 2.024 . S
C302 O303 1.229 . S
C302 O311 1.058 . S
O303 C302 1.229 . S
C304 O305 1.229 . S
C304 O317 1.058 . S
O305 C304 1.229 . S
O306 Zn300 1.969 1_554 S
O306 C309 1.267 . S
O307 Zn300 1.965 . S
O307 C318 1.260 . S
O308 Zn301 1.969 . S
O308 C318 1.258 . S
C309 O306 1.267 . S
C309 O310 1.228 . S
O310 C309 1.228 . S
O311 Zn300 2.024 1_554 S
O311 C302 1.058 . S
C312 O313 1.228 . S
C312 O314 1.267 . S
O313 C312 1.228 . S
O314 Zn301 1.969 . S
O314 C312 1.267 . S
O315 Zn301 1.965 . S
O315 C319 1.260 . S
O316 Zn300 1.969 . S
O316 C319 1.258 . S
O317 Zn301 2.024 . S
O317 C304 1.058 . S
C318 O307 1.260 . S
C318 O308 1.258 . S
C319 O315 1.260 . S
C319 O316 1.258 . S
Zn320 O326 1.969 1_556 S
Zn320 O327 1.965 . S
Zn320 O331 2.024 1_556 S
Zn320 O336 1.969 . S
Zn321 O328 1.969 . S
Zn321 O334 1.969 . S
Zn321 O335 1.965 . S
Zn321 O337 2.024 . S
C322 O323 1.229 . S
C322 O331 1.058 . S
O323 C322 1.229 . S
C324 O325 1.229 . S
C324 O337 1.058 . S
O325 C324 1.229 . S
O326 Zn320 1.969 1_554 S
O326 C329 1.267 . S
O327 Zn320 1.965 . S
O327 C338 1.260 . S
O328 Zn321 1.969 . S
O328 C338 1.258 . S
C329 O326 1.267 . S
C329 O330 1.228 . S
O330 C329 1.228 . S
O331 Zn320 2.024 1_554 S
O331 C322 1.058 . S
C332 O333 1.228 . S
C332 O334 1.267 . S
O333 C332 1.228 . S
O334 Zn321 1.969 . S
O334 C332 1.267 . S
O335 Zn321 1.965 . S
O335 C339 1.260 . S
O336 Zn320 1.969 . S
O336 C339 1.258 . S
O337 Zn321 2.024 . S
O337 C324 1.058 . S
C338 O327 1.260 . S
C338 O328 1.258 . S
C339 O335 1.260 . S
C339 O336 1.258 . S
Zn340 O346 1.969 1_556 S
Zn340 O347 1.965 . S
Zn340 O351 2.024 1_556 S
Zn340 O356 1.969 . S
Zn341 O348 1.969 . S
Zn341 O354 1.969 . S
Zn341 O355 1.965 . S
Zn341 O357 2.024 . S
C342 O343 1.229 . S
C342 O351 1.058 . S
O343 C342 1.229 . S
C344 O345 1.229 . S
C344 O357 1.058 . S
O345 C344 1.229 . S
O346 Zn340 1.969 1_554 S
O346 C349 1.267 . S
O347 Zn340 1.965 . S
O347 C358 1.260 . S
O348 Zn341 1.969 . S
O348 C358 1.258 . S
C349 O346 1.267 . S
C349 O350 1.228 . S
O350 C349 1.228 . S
O351 Zn340 2.024 1_554 S
O351 C342 1.058 . S
C352 O353 1.228 . S
C352 O354 1.267 . S
O353 C352 1.228 . S
O354 Zn341 1.969 . S
O354 C352 1.267 . S
O355 Zn341 1.965 . S
O355 C359 1.260 . S
O356 Zn340 1.969 . S
O356 C359 1.258 . S
O357 Zn341 2.024 . S
O357 C344 1.058 . S
C358 O347 1.260 . S
C358 O348 1.258 . S
C359 O355 1.260 . S
C359 O356 1.258 . S
Zn360 O366 1.969 . S
Zn360 O367 1.965 . S
Zn360 O371 2.024 . S
Zn360 O376 1.969 . S
Zn361 O368 1.969 . S
Zn361 O374 1.969 . S
Zn361 O375 1.965 . S
Zn361 O377 2.024 . S
C362 O363 1.229 . S
C362 O371 1.058 . S
O363 C362 1.229 . S
C364 O365 1.229 . S
C364 O377 1.058 . S
O365 C364 1.229 . S
O366 Zn360 1.969 . S
O366 C369 1.267 . S
O367 Zn360 1.965 . S
O367 C378 1.260 . S
O368 Zn361 1.969 . S
O368 C378 1.258 . S
C369 O366 1.267 . S
C369 O370 1.228 . S
O370 C369 1.228 . S
O371 Zn360 2.024 . S
O371 C362 1.058 . S
C372 O373 1.228 . S
C372 O374 1.267 . S
O373 C372 1.228 . S
O374 Zn361 1.969 . S
O374 C372 1.267 . S
O375 Zn361 1.965 . S
O375 C379 1.260 . S
O376 Zn360 1.969 . S
O376 C379 1.258 . S
O377 Zn361 2.024 . S
O377 C364 1.058 . S
C378 O367 1.260 . S
C378 O368 1.258 . S
C379 O375 1.260 . S
C379 O376 1.258 . S
Zn380 O386 1.969 . S
Zn380 O387 1.965 . S
Zn380 O391 2.024 . S
Zn380 O396 1.969 . S
Zn381 O388 1.969 . S
Zn381 O394 1.969 . S
Zn381 O395 1.965 . S
Zn381 O397 2.024 . S
C382 O383 1.229 . S
C382 O391 1.058 . S
O383 C382 1.229 . S
C384 O385 1.229 . S
C384 O397 1.058 . S
O385 C384 1.229 . S
O386 Zn380 1.969 . S
O386 C389 1.267 . S
O387 Zn380 1.965 . S
O387 C398 1.260 . S
O388 Zn381 1.969 . S
O388 C398 1.258 . S
C389 O386 1.267 . S
C389 O390 1.228 . S
O390 C389 1.228 . S
O391 Zn380 2.024 . S
O391 C382 1.058 . S
C392 O393 1.228 . S
C392 O394 1.267 . S
O393 C392 1.228 . S
O394 Zn381 1.969 . S
O394 C392 1.267 . S
O395 Zn381 1.965 . S
O395 C399 1.260 . S
O396 Zn380 1.969 . S
O396 C399 1.258 . S
O397 Zn381 2.024 . S
O397 C384 1.058 . S
C398 O387 1.260 . S
C398 O388 1.258 . S
C399 O395 1.260 . S
C399 O396 1.258 . S
Zn400 O406 1.969 . S
Zn400 O407 1.965 . S
Zn400 O411 2.024 . S
Zn400 O416 1.969 . S
Zn401 O408 1.969 . S
Zn401 O414 1.969 . S
Zn401 O415 1.965 . S
Zn401 O417 2.024 . S
C402 O403 1.229 . S
C402 O411 1.058 . S
O403 C402 1.229 . S
C404 O405 1.229 . S
C404 O417 1.058 . S
O405 C404 1.229 . S
O406 Zn400 1.969 . S
O406 C409 1.267 . S
O407 Zn400 1.965 . S
O407 C418 1.260 . S
O408 Zn401 1.969 . S
O408 C418 1.258 . S
C409 O406 1.267 . S
C409 O410 1.228 . S
O410 C409 1.228 . S
O411 Zn400 2.024 . S
O411 C402 1.058 . S
C412 O413 1.228 . S
C412 O414 1.267 . S
O413 C412 1.228 . S
O414 Zn401 1.969 . S
O414 C412 1.267 . S
O415 Zn401 1.965 . S
O415 C419 1.260 . S
O416 Zn400 1.969 . S
O416 C419 1.258 . S
O417 Zn401 2.024 . S
O417 C404 1.058 . S
C418 O407 1.260 . S
C418 O408 1.258 . S
C419 O415 1.260 . S
C419 O416 1.258 . S
Zn420 O426 1.969 1_556 S
Zn420 O427 1.965 . S
Zn420 O431 2.024 1_556 S
Zn420 O436 1.969 . S
Zn421 O428 1.969 . S
Zn421 O434 1.969 . S
Zn421 O435 1.965 . S
Zn421 O437 2.024 . S
C422 O423 1.229 . S
C422 O431 1.058 . S
O423 C422 1.229 . S
C424 O425 1.229 . S
C424 O437 1.058 . S
O425 C424 1.229 . S
O426 Zn420 1.969 1_554 S
O426 C429 1.267 . S
O427 Zn420 1.965 . S
O427 C438 1.260 . S
O428 Zn421 1.969 . S
O428 C438 1.258 . S
C429 O426 1.267 . S
C429 O430 1.228 . S
O430 C429 1.228 . S
O431 Zn420 2.024 1_554 S
O431 C422 1.058 . S
C432 O433 1.228 . S
C432 O434 1.267 . S
O433 C432 1.228 . S
O434 Zn421 1.969 . S
O434 C432 1.267 . S
O435 Zn421 1.965 . S
O435 C439 1.260 . S
O436 Zn420 1.969 . S
O436 C439 1.258 . S
O437 Zn421 2.024 . S
O437 C424 1.058 . S
C438 O427 1.260 . S
C438 O428 1.258 . S
C439 O435 1.260 . S
C439 O436 1.258 . S
Zn440 O446 1.969 1_556 S
Zn440 O447 1.965 . S
Zn440 O451 2.024 1_556 S
Zn440 O456 1.969 . S
Zn441 O448 1.969 . S
Zn441 O454 1.969 . S
Zn441 O455 1.965 . S
Zn441 O457 2.024 . S
C442 O443 1.229 . S
C442 O451 1.058 . S
O443 C442 1.229 . S
C444 O445 1.229 . S
C444 O457 1.058 . S
O445 C444 1.229 . S
O446 Zn440 1.969 1_554 S
O446 C449 1.267 . S
O447 Zn440 1.965 . S
O447 C458 1.260 . S
O448 Zn441 1.969 . S
O448 C458 1.258 . S
C449 O446 1.267 . S
C449 O450 1.228 . S
O450 C449 1.228 . S
O451 Zn440 2.024 1_554 S
O451 C442 1.058 . S
C452 O453 1.228 . S
C452 O454 1.267 . S
O453 C452 1.228 . S
O454 Zn441 1.969 . S
O454 C452 1.267 . S
O455 Zn441 1.965 . S
O455 C459 1.260 1_565 S
O456 Zn440 1.969 . S
O456 C459 1.258 1_565 S
O457 Zn441 2.024 . S
O457 C444 1.058 . S
C458 O447 1.260 . S
C458 O448 1.258 . S
C459 O455 1.260 1_545 S
C459 O456 1.258 1_545 S
Zn460 O466 1.969 1_556 S
Zn460 O467 1.965 . S
Zn460 O471 2.024 1_556 S
Zn460 O476 1.969 . S
Zn461 O468 1.969 . S
Zn461 O474 1.969 . S
Zn461 O475 1.965 . S
Zn461 O477 2.024 . S
C462 O463 1.229 . S
C462 O471 1.058 . S
O463 C462 1.229 . S
C464 O465 1.229 . S
C464 O477 1.058 . S
O465 C464 1.229 . S
O466 Zn460 1.969 1_554 S
O466 C469 1.267 . S
O467 Zn460 1.965 . S
O467 C478 1.260 . S
O468 Zn461 1.969 . S
O468 C478 1.258 . S
C469 O466 1.267 . S
C469 O470 1.228 . S
O470 C469 1.228 . S
O471 Zn460 2.024 1_554 S
O471 C462 1.058 . S
C472 O473 1.228 . S
C472 O474 1.267 . S
O473 C472 1.228 . S
O474 Zn461 1.969 . S
O474 C472 1.267 . S
O475 Zn461 1.965 . S
O475 C479 1.260 1_455 S
O476 Zn460 1.969 . S
O476 C479 1.258 1_455 S
O477 Zn461 2.024 . S
O477 C464 1.058 . S
C478 O467 1.260 . S
C478 O468 1.258 . S
C479 O475 1.260 1_655 S
C479 O476 1.258 1_655 S
Zn480 O486 1.969 . S
Zn480 O487 1.965 . S
Zn480 O491 2.024 . S
Zn480 O496 1.969 . S
Zn481 O488 1.969 . S
Zn481 O494 1.969 . S
Zn481 O495 1.965 . S
Zn481 O497 2.024 . S
C482 O483 1.229 . S
C482 O491 1.058 . S
O483 C482 1.229 . S
C484 O485 1.229 . S
C484 O497 1.058 . S
O485 C484 1.229 . S
O486 Zn480 1.969 . S
O486 C489 1.267 . S
O487 Zn480 1.965 . S
O487 C498 1.260 . S
O488 Zn481 1.969 . S
O488 C498 1.258 . S
C489 O486 1.267 . S
C489 O490 1.228 . S
O490 C489 1.228 . S
O491 Zn480 2.024 . S
O491 C482 1.058 . S
C492 O493 1.228 . S
C492 O494 1.267 . S
O493 C492 1.228 . S
O494 Zn481 1.969 . S
O494 C492 1.267 . S
O495 Zn481 1.965 . S
O495 C499 1.260 . S
O496 Zn480 1.969 . S
O496 C499 1.258 . S
O497 Zn481 2.024 . S
O497 C484 1.058 . S
C498 O487 1.260 . S
C498 O488 1.258 . S
C499 O495 1.260 . S
C499 O496 1.258 . S
Zn500 O506 1.969 . S
Zn500 O507 1.965 . S
Zn500 O511 2.024 . S
Zn500 O516 1.969 . S
Zn501 O508 1.969 . S
Zn501 O514 1.969 . S
Zn501 O515 1.965 . S
Zn501 O517 2.024 . S
C502 O503 1.229 . S
C502 O511 1.058 . S
O503 C502 1.229 . S
C504 O505 1.229 . S
C504 O517 1.058 . S
O505 C504 1.229 . S
O506 Zn500 1.969 . S
O506 C509 1.267 . S
O507 Zn500 1.965 . S
O507 C518 1.260 . S
O508 Zn501 1.969 . S
O508 C518 1.258 . S
C509 O506 1.267 . S
C509 O510 1.228 . S
O510 C509 1.228 . S
O511 Zn500 2.024 . S
O511 C502 1.058 . S
C512 O513 1.228 . S
C512 O514 1.267 . S
O513 C512 1.228 . S
O514 Zn501 1.969 . S
O514 C512 1.267 . S
O515 Zn501 1.965 . S
O515 C519 1.260 . S
O516 Zn500 1.969 . S
O516 C519 1.258 . S
O517 Zn501 2.024 . S
O517 C504 1.058 . S
C518 O507 1.260 . S
C518 O508 1.258 . S
C519 O515 1.260 . S
C519 O516 1.258 . S
Zn520 O526 1.969 . S
Zn520 O527 1.965 . S
Zn520 O531 2.024 . S
Zn520 O536 1.969 . S
Zn521 O528 1.969 . S
Zn521 O534 1.969 . S
Zn521 O535 1.965 . S
Zn521 O537 2.024 . S
C522 O523 1.229 . S
C522 O531 1.058 . S
O523 C522 1.229 . S
C524 O525 1.229 . S
C524 O537 1.058 . S
O525 C524 1.229 . S
O526 Zn520 1.969 . S
O526 C529 1.267 . S
O527 Zn520 1.965 . S
O527 C538 1.260 . S
O528 Zn521 1.969 . S
O528 C538 1.258 . S
C529 O526 1.267 . S
C529 O530 1.228 . S
O530 C529 1.228 . S
O531 Zn520 2.024 . S
O531 C522 1.058 . S
C532 O533 1.228 . S
C532 O534 1.267 . S
O533 C532 1.228 . S
O534 Zn521 1.969 . S
O534 C532 1.267 . S
O535 Zn521 1.965 . S
O535 C539 1.260 . S
O536 Zn520 1.969 . S
O536 C539 1.258 . S
O537 Zn521 2.024 . S
O537 C524 1.058 . S
C538 O527 1.260 . S
C538 O528 1.258 . S
C539 O535 1.260 . S
C539 O536 1.258 . S
Zn540 O546 1.969 . S
Zn540 O547 1.965 . S
Zn540 O551 2.024 . S
Zn540 O556 1.969 . S
Zn541 O548 1.969 . S
Zn541 O554 1.969 . S
Zn541 O555 1.965 . S
Zn541 O557 2.024 . S
C542 O543 1.229 . S
C542 O551 1.058 . S
O543 C542 1.229 . S
C544 O545 1.229 . S
C544 O557 1.058 1_556 S
O545 C544 1.229 . S
O546 Zn540 1.969 . S
O546 C549 1.267 . S
O547 Zn540 1.965 . S
O547 C558 1.260 . S
O548 Zn541 1.969 . S
O548 C558 1.258 . S
C549 O546 1.267 . S
C549 O550 1.228 . S
O550 C549 1.228 . S
O551 Zn540 2.024 . S
O551 C542 1.058 . S
C552 O553 1.228 . S
C552 O554 1.267 1_556 S
O553 C552 1.228 . S
O554 Zn541 1.969 . S
O554 C552 1.267 1_554 S
O555 Zn541 1.965 . S
O555 C559 1.260 . S
O556 Zn540 1.969 . S
O556 C559 1.258 . S
O557 Zn541 2.024 . S
O557 C544 1.058 1_554 S
C558 O547 1.260 . S
C558 O548 1.258 . S
C559 O555 1.260 . S
C559 O556 1.258 . S
Zn560 O566 1.969 . S
Zn560 O567 1.965 . S
Zn560 O571 2.024 . S
Zn560 O576 1.969 . S
Zn561 O568 1.969 . S
Zn561 O574 1.969 . S
Zn561 O575 1.965 . S
Zn561 O577 2.024 . S
C562 O563 1.229 . S
C562 O571 1.058 . S
O563 C562 1.229 . S
C564 O565 1.229 . S
C564 O577 1.058 1_556 S
O565 C564 1.229 . S
O566 Zn560 1.969 . S
O566 C569 1.267 . S
O567 Zn560 1.965 . S
O567 C578 1.260 1_545 S
O568 Zn561 1.969 . S
O568 C578 1.258 1_545 S
C569 O566 1.267 . S
C569 O570 1.228 . S
O570 C569 1.228 . S
O571 Zn560 2.024 . S
O571 C562 1.058 . S
C572 O573 1.228 . S
C572 O574 1.267 1_556 S
O573 C572 1.228 . S
O574 Zn561 1.969 . S
O574 C572 1.267 1_554 S
O575 Zn561 1.965 . S
O575 C579 1.260 . S
O576 Zn560 1.969 . S
O576 C579 1.258 . S
O577 Zn561 2.024 . S
O577 C564 1.058 1_554 S
C578 O567 1.260 1_565 S
C578 O568 1.258 1_565 S
C579 O575 1.260 . S
C579 O576 1.258 . S
Zn580 O586 1.969 . S
Zn580 O587 1.965 . S
Zn580 O591 2.024 . S
Zn580 O596 1.969 . S
Zn581 O588 1.969 . S
Zn581 O594 1.969 . S
Zn581 O595 1.965 . S
Zn581 O597 2.024 . S
C582 O583 1.229 . S
C582 O591 1.058 . S
O583 C582 1.229 . S
C584 O585 1.229 . S
C584 O597 1.058 1_556 S
O585 C584 1.229 . S
O586 Zn580 1.969 . S
O586 C589 1.267 . S
O587 Zn580 1.965 . S
O587 C598 1.260 1_655 S
O588 Zn581 1.969 . S
O588 C598 1.258 1_655 S
C589 O586 1.267 . S
C589 O590 1.228 . S
O590 C589 1.228 . S
O591 Zn580 2.024 . S
O591 C582 1.058 . S
C592 O593 1.228 . S
C592 O594 1.267 1_556 S
O593 C592 1.228 . S
O594 Zn581 1.969 . S
O594 C592 1.267 1_554 S
O595 Zn581 1.965 . S
O595 C599 1.260 . S
O596 Zn580 1.969 . S
O596 C599 1.258 . S
O597 Zn581 2.024 . S
O597 C584 1.058 1_554 S
C598 O587 1.260 1_455 S
C598 O588 1.258 1_455 S
C599 O595 1.260 . S
C599 O596 1.258 . S
Zn600 O606 1.969 . S
Zn600 O607 1.965 . S
Zn600 O611 2.024 . S
Zn600 O616 1.969 . S
Zn601 O608 1.969 . S
Zn601 O614 1.969 . S
Zn601 O615 1.965 . S
Zn601 O617 2.024 . S
C602 O603 1.229 . S
C602 O611 1.058 . S
O603 C602 1.229 . S
C604 O605 1.229 . S
C604 O617 1.058 . S
O605 C604 1.229 . S
O606 Zn600 1.969 . S
O606 C609 1.267 . S
O607 Zn600 1.965 . S
O607 C618 1.260 . S
O608 Zn601 1.969 . S
O608 C618 1.258 . S
C609 O606 1.267 . S
C609 O610 1.228 . S
O610 C609 1.228 . S
O611 Zn600 2.024 . S
O611 C602 1.058 . S
C612 O613 1.228 . S
C612 O614 1.267 . S
O613 C612 1.228 . S
O614 Zn601 1.969 . S
O614 C612 1.267 . S
O615 Zn601 1.965 . S
O615 C619 1.260 . S
O616 Zn600 1.969 . S
O616 C619 1.258 . S
O617 Zn601 2.024 . S
O617 C604 1.058 . S
C618 O607 1.260 . S
C618 O608 1.258 . S
C619 O615 1.260 . S
C619 O616 1.258 . S
Zn620 O626 1.969 . S
Zn620 O627 1.965 . S
Zn620 O631 2.024 . S
Zn620 O636 1.969 . S
Zn621 O628 1.969 . S
Zn621 O634 1.969 . S
Zn621 O635 1.965 . S
Zn621 O637 2.024 . S
C622 O623 1.229 . S
C622 O631 1.058 . S
O623 C622 1.229 . S
C624 O625 1.229 . S
C624 O637 1.058 . S
O625 C624 1.229 . S
O626 Zn620 1.969 . S
O626 C629 1.267 . S
O627 Zn620 1.965 . S
O627 C638 1.260 . S
O628 Zn621 1.969 . S
O628 C638 1.258 . S
C629 O626 1.267 . S
C629 O630 1.228 . S
O630 C629 1.228 . S
O631 Zn620 2.024 . S
O631 C622 1.058 . S
C632 O633 1.228 . S
C632 O634 1.267 . S
O633 C632 1.228 . S
O634 Zn621 1.969 . S
O634 C632 1.267 . S
O635 Zn621 1.965 . S
O635 C639 1.260 1_545 S
O636 Zn620 1.969 . S
O636 C639 1.258 1_545 S
O637 Zn621 2.024 . S
O637 C624 1.058 . S
C638 O627 1.260 . S
C638 O628 1.258 . S
C639 O635 1.260 1_565 S
C639 O636 1.258 1_565 S
Zn640 O646 1.969 . S
Zn640 O647 1.965 . S
Zn640 O651 2.024 . S
Zn640 O656 1.969 . S
Zn641 O648 1.969 . S
Zn641 O654 1.969 . S
Zn641 O655 1.965 . S
Zn641 O657 2.024 . S
C642 O643 1.229 . S
C642 O651 1.058 . S
O643 C642 1.229 . S
C644 O645 1.229 . S
C644 O657 1.058 . S
O645 C644 1.229 . S
O646 Zn640 1.969 . S
O646 C649 1.267 . S
O647 Zn640 1.965 . S
O647 C658 1.260 . S
O648 Zn641 1.969 . S
O648 C658 1.258 . S
C649 O646 1.267 . S
C649 O650 1.228 . S
O650 C649 1.228 . S
O651 Zn640 2.024 . S
O651 C642 1.058 . S
C652 O653 1.228 . S
C652 O654 1.267 . S
O653 C652 1.228 . S
O654 Zn641 1.969 . S
O654 C652 1.267 . S
O655 Zn641 1.965 . S
O655 C659 1.260 1_655 S
O656 Zn640 1.969 . S
O656 C659 1.258 1_655 S
O657 Zn641 2.024 . S
O657 C644 1.058 . S
C658 O647 1.260 . S
C658 O648 1.258 . S
C659 O655 1.260 1_455 S
C659 O656 1.258 1_455 S
Zn660 O666 1.969 . S
Zn660 O667 1.965 . S
Zn660 O671 2.024 . S
Zn660 O676 1.969 . S
Zn661 O668 1.969 . S
Zn661 O674 1.969 . S
Zn661 O675 1.965 . S
Zn661 O677 2.024 . S
C662 O663 1.229 . S
C662 O671 1.058 . S
O663 C662 1.229 . S
C664 O665 1.229 . S
C664 O677 1.058 1_556 S
O665 C664 1.229 . S
O666 Zn660 1.969 . S
O666 C669 1.267 . S
O667 Zn660 1.965 . S
O667 C678 1.260 . S
O668 Zn661 1.969 . S
O668 C678 1.258 . S
C669 O666 1.267 . S
C669 O670 1.228 . S
O670 C669 1.228 . S
O671 Zn660 2.024 . S
O671 C662 1.058 . S
C672 O673 1.228 . S
C672 O674 1.267 1_556 S
O673 C672 1.228 . S
O674 Zn661 1.969 . S
O674 C672 1.267 1_554 S
O675 Zn661 1.965 . S
O675 C679 1.260 . S
O676 Zn660 1.969 . S
O676 C679 1.258 . S
O677 Zn661 2.024 . S
O677 C664 1.058 1_554 S
C678 O667 1.260 . S
C678 O668 1.258 . S
C679 O675 1.260 . S
C679 O676 1.258 . S
Zn680 O686 1.969 . S
Zn680 O687 1.965 . S
Zn680 O691 2.024 . S
Zn680 O696 1.969 . S
Zn681 O688 1.969 . S
Zn681 O694 1.969 . S
Zn681 O695 1.965 . S
Zn681 O697 2.024 . S
C682 O683 1.229 . S
C682 O691 1.058 . S
O683 C682 1.229 . S
C684 O685 1.229 . S
C684 O697 1.058 1_556 S
O685 C684 1.229 . S
O686 Zn680 1.969 . S
O686 C689 1.267 . S
O687 Zn680 1.965 . S
O687 C698 1.260 . S
O688 Zn681 1.969 . S
O688 C698 1.258 . S
C689 O686 1.267 . S
C689 O690 1.228 . S
O690 C689 1.228 . S
O691 Zn680 2.024 . S
O691 C682 1.058 . S
C692 O693 1.228 . S
C692 O694 1.267 1_556 S
O693 C692 1.228 . S
O694 Zn681 1.969 . S
O694 C692 1.267 1_554 S
O695 Zn681 1.965 . S
O695 C699 1.260 . S
O696 Zn680 1.969 . S
O696 C699 1.258 . S
O697 Zn681 2.024 . S
O697 C684 1.058 1_554 S
C698 O687 1.260 . S
C698 O688 1.258 . S
C699 O695 1.260 . S
C699 O696 1.258 . S
Zn700 O706 1.969 . S
Zn700 O707 1.965 . S
Zn700 O711 2.024 . S
Zn700 O716 1.969 . S
Zn701 O708 1.969 . S
Zn701 O714 1.969 . S
Zn701 O715 1.965 . S
Zn701 O717 2.024 . S
C702 O703 1.229 . S
C702 O711 1.058 . S
O703 C702 1.229 . S
C704 O705 1.229 . S
C704 O717 1.058 1_556 S
O705 C704 1.229 . S
O706 Zn700 1.969 . S
O706 C709 1.267 . S
O707 Zn700 1.965 . S
O707 C718 1.260 . S
O708 Zn701 1.969 . S
O708 C718 1.258 . S
C709 O706 1.267 . S
C709 O710 1.228 . S
O710 C709 1.228 . S
O711 Zn700 2.024 . S
O711 C702 1.058 . S
C712 O713 1.228 . S
C712 O714 1.267 1_556 S
O713 C712 1.228 . S
O714 Zn701 1.969 . S
O714 C712 1.267 1_554 S
O715 Zn701 1.965 . S
O715 C719 1.260 . S
O716 Zn700 1.969 . S
O716 C719 1.258 . S
O717 Zn701 2.024 . S
O717 C704 1.058 1_554 S
C718 O707 1.260 . S
C718 O708 1.258 . S
C719 O715 1.260 . S
C719 O716 1.258 . S
C318 C18 2.336 1_556 S
C338 C38 2.337 1_556 S
C58 C358 2.337 1_554 S
C78 C498 2.336 . S
C98 C518 2.337 . S
C118 C538 2.337 . S
C679 C139 2.336 . S
C699 C159 2.337 . S
C179 C719 2.337 . S
C379 C199 2.336 . S
C219 C399 2.337 . S
C239 C419 2.337 . S
C558 C258 2.336 . S
C278 C578 2.337 1_545 S
C598 C298 2.337 1_455 S
C619 C439 2.336 . S
C639 C459 2.337 1_565 S
C479 C659 2.337 1_655 S
C9 C89 0.700 1_455 S
C29 C109 0.700 . S
C49 C69 0.700 1_565 S
C132 C212 0.700 1_655 S
C152 C232 0.700 . S
C172 C192 0.700 1_545 S
C249 C329 0.700 . S
C349 C269 0.700 . S
C289 C309 0.700 . S
C372 C452 0.700 . S
C392 C472 0.700 . S
C432 C412 0.700 . S
C489 C569 0.700 . S
C589 C509 0.700 . S
C529 C549 0.700 . S
C612 C692 0.700 . S
C632 C712 0.700 . S
C652 C672 0.700 . S
C209 C2 1.413 . S
C22 C229 1.412 . S
C42 C189 1.412 . S
C62 C169 1.413 . S
C82 C129 1.412 . S
C149 C102 1.412 . S
C124 C92 1.413 . S
C112 C144 1.412 . S
C164 C72 1.412 . S
C184 C52 1.413 . S
C12 C204 1.412 . S
C32 C224 1.412 . S
C449 C242 1.413 . S
C469 C262 1.412 . S
C429 C282 1.412 . S
C409 C302 1.413 . S
C322 C369 1.412 . S
C389 C342 1.412 . S
C332 C364 1.413 . S
C384 C352 1.412 . S
C404 C312 1.413 . S
C292 C424 1.413 . S
C444 C252 1.412 . S
C464 C272 1.412 . S
C482 C689 1.413 . S
C502 C709 1.412 . S
C669 C522 1.412 . S
C649 C542 1.413 . S
C562 C609 1.413 . S
C629 C582 1.412 . S
C604 C572 1.413 . S
C592 C624 1.412 . S
C644 C552 1.413 . S
C664 C532 1.413 . S
C492 C684 1.412 . S
C512 C704 1.412 . S
C4 C84 2.100 1_455 S
C104 C24 2.100 . S
C44 C64 2.100 1_565 S
C122 C202 2.100 1_655 S
C222 C142 2.100 . S
C162 C182 2.100 1_545 S
C324 C244 2.100 . S
C344 C264 2.100 . S
C304 C284 2.100 . S
C442 C362 2.100 . S
C382 C462 2.100 . S
C422 C402 2.100 . S
C564 C484 2.100 . S
C504 C584 2.100 . S
C524 C544 2.100 . S
C682 C602 2.100 . S
C622 C702 2.100 . S
C642 C662 2.100 . S
C19 C138 1.565 1_455 S
C39 C158 1.565 . S
C178 C59 1.565 1_545 S
C198 C79 1.565 1_565 S
C99 C218 1.565 1_655 S
C119 C238 1.565 . S
C378 C259 1.565 . S
C279 C398 1.565 . S
C418 C299 1.565 . S
C438 C319 1.565 . S
C458 C339 1.565 . S
C478 C359 1.565 . S
C618 C499 1.566 . S
C519 C638 1.565 . S
C658 C539 1.565 . S
C678 C559 1.565 . S
C698 C579 1.565 . S
C599 C718 1.565 . S
