# Generated by pormake.
# Topology snk, (6)-cn, num edge types: 1
# Building blocks:
#     Node 0, Type 0, BuildingBlock: UKALOJ_clean_sbu_0, # of connection points: 6
#     Node 1, Type 0, BuildingBlock: UKALOJ_clean_sbu_0, # of connection points: 6
#     Node 2, Type 0, BuildingBlock: UKALOJ_clean_sbu_0, # of connection points: 6
#     Node 3, Type 0, BuildingBlock: UKALOJ_clean_sbu_0, # of connection points: 6
#     Node 4, Type 0, BuildingBlock: UKALOJ_clean_sbu_0, # of connection points: 6
#     Node 5, Type 0, BuildingBlock: UKALOJ_clean_sbu_0, # of connection points: 6
#     Node 6, Type 0, BuildingBlock: UKALOJ_clean_sbu_0, # of connection points: 6
#     Node 7, Type 0, BuildingBlock: UKALOJ_clean_sbu_0, # of connection points: 6
#     Edge 8, Type (0, 0), BuildingBlock: UVAHIK_clean_linker_0, # of connection points: 2
#     Edge 9, Type (0, 0), BuildingBlock: UVAHIK_clean_linker_0, # of connection points: 2
#     Edge 10, Type (0, 0), BuildingBlock: UVAHIK_clean_linker_0, # of connection points: 2
#     Edge 11, Type (0, 0), BuildingBlock: UVAHIK_clean_linker_0, # of connection points: 2
#     Edge 12, Type (0, 0), BuildingBlock: UVAHIK_clean_linker_0, # of connection points: 2
#     Edge 13, Type (0, 0), BuildingBlock: UVAHIK_clean_linker_0, # of connection points: 2
#     Edge 14, Type (0, 0), BuildingBlock: UVAHIK_clean_linker_0, # of connection points: 2
#     Edge 15, Type (0, 0), BuildingBlock: UVAHIK_clean_linker_0, # of connection points: 2
#     Edge 16, Type (0, 0), BuildingBlock: UVAHIK_clean_linker_0, # of connection points: 2
#     Edge 17, Type (0, 0), BuildingBlock: UVAHIK_clean_linker_0, # of connection points: 2
#     Edge 18, Type (0, 0), BuildingBlock: UVAHIK_clean_linker_0, # of connection points: 2
#     Edge 19, Type (0, 0), BuildingBlock: UVAHIK_clean_linker_0, # of connection points: 2
#     Edge 20, Type (0, 0), BuildingBlock: UVAHIK_clean_linker_0, # of connection points: 2
#     Edge 21, Type (0, 0), BuildingBlock: UVAHIK_clean_linker_0, # of connection points: 2
#     Edge 22, Type (0, 0), BuildingBlock: UVAHIK_clean_linker_0, # of connection points: 2
#     Edge 23, Type (0, 0), BuildingBlock: UVAHIK_clean_linker_0, # of connection points: 2
#     Edge 24, Type (0, 0), BuildingBlock: UVAHIK_clean_linker_0, # of connection points: 2
#     Edge 25, Type (0, 0), BuildingBlock: UVAHIK_clean_linker_0, # of connection points: 2
#     Edge 26, Type (0, 0), BuildingBlock: UVAHIK_clean_linker_0, # of connection points: 2
#     Edge 27, Type (0, 0), BuildingBlock: UVAHIK_clean_linker_0, # of connection points: 2
#     Edge 28, Type (0, 0), BuildingBlock: UVAHIK_clean_linker_0, # of connection points: 2
#     Edge 29, Type (0, 0), BuildingBlock: UVAHIK_clean_linker_0, # of connection points: 2
#     Edge 30, Type (0, 0), BuildingBlock: UVAHIK_clean_linker_0, # of connection points: 2
#     Edge 31, Type (0, 0), BuildingBlock: UVAHIK_clean_linker_0, # of connection points: 2
# Relax obj value: 0.097
# Max RMSD: 0.097
# Mean RMSD: 0.088
data_MOF--net-snk--node1-UKALOJ_clean_sbu_0--edge1-UVAHIK_clean_linker_0
_symmetry_space_group_name_H-M    P1
_symmetry_Int_Tables_number       1
_symmetry_cell_setting            triclinic
loop_
_symmetry_equiv_pos_as_xyz
'x, y, z'
_cell_length_a     59.895611
_cell_length_b     59.950773
_cell_length_c     19.728931
_cell_angle_alpha  82.414995
_cell_angle_beta   81.977985
_cell_angle_gamma 92.869407
loop_
_atom_site_label
_atom_site_type_symbol
_atom_site_fract_x
_atom_site_fract_y
_atom_site_fract_z
_atom_type_partial_charge
Zn0 Zn 0.03524 1.00851 0.49093 0.0
O1 O 0.03676 1.00948 0.59581 0.0
C2 C 0.98893 0.98457 0.52661 0.0
Zn3 Zn 1.00884 0.0334 0.49245 0.0
C4 C 0.02423 0.02224 0.62825 0.0
O5 O 1.01093 0.03422 0.59687 0.0
C6 C 0.01979 0.01968 0.35519 0.0
O7 O 0.0343 0.06138 0.46492 0.0
O8 O 0.06027 0.03688 0.46437 0.0
N9 N 0.98316 0.05462 0.49891 0.0
C10 C 0.97825 0.07318 0.45855 0.0
C11 C 0.95035 0.06452 0.53915 0.0
N12 N 0.96586 0.04942 0.54914 0.0
N13 N 0.95769 0.07969 0.48274 0.0
C14 C 0.0664 0.9698 0.52892 0.0
C15 C 0.09046 0.97296 0.43718 0.0
N16 N 0.06066 0.98693 0.48455 0.0
N17 N 0.07564 0.98882 0.42765 0.0
N18 N 0.08515 0.96082 0.50044 0.0
H19 H 0.03511 0.9652 0.60003 0.0
H20 H 0.06016 0.96945 0.63829 0.0
H21 H 0.05388 0.94271 0.6106 0.0
C22 C 0.053 0.96122 0.59823 0.0
C23 C 0.99299 0.08414 0.39381 0.0
H24 H 1.0013 0.10004 0.40407 0.0
H25 H 0.98261 0.08837 0.35208 0.0
H26 H 1.00638 0.07327 0.37641 0.0
O27 O 1.00694 0.03203 0.38819 0.0
O28 O 0.03344 1.00803 0.38606 0.0
C29 C 0.05515 0.05736 0.45651 0.0
O30 O 1.00974 0.98055 0.51686 0.0
O31 O 0.98385 1.00505 0.52016 0.0
Zn32 Zn 0.26154 0.76041 0.7597 0.0
O33 O 0.23534 0.78235 0.74629 0.0
C34 C 0.27708 0.76739 0.60947 0.0
Zn35 Zn 0.28782 0.78838 0.73084 0.0
C36 C 0.24077 0.8032 0.72639 0.0
O37 O 0.26152 0.81021 0.71679 0.0
C38 C 0.30849 0.74535 0.76312 0.0
O39 O 0.28605 0.79441 0.83537 0.0
O40 O 0.26012 0.76638 0.86225 0.0
N41 N 0.31093 0.81458 0.69721 0.0
C42 C 0.33057 0.81995 0.71862 0.0
C43 C 0.32607 0.84566 0.63707 0.0
N44 N 0.30822 0.83042 0.64602 0.0
N45 N 0.34056 0.83914 0.68098 0.0
C46 C 0.22363 0.72342 0.76501 0.0
C47 C 0.22673 0.70226 0.85839 0.0
N48 N 0.23925 0.73369 0.79494 0.0
N49 N 0.24093 0.72073 0.85361 0.0
N50 N 0.21557 0.70371 0.8036 0.0
H51 H 0.21961 0.75036 0.68445 0.0
H52 H 0.19952 0.72614 0.69361 0.0
H53 H 0.22823 0.72433 0.65542 0.0
C54 C 0.21734 0.73172 0.69566 0.0
C55 C 0.33918 0.80764 0.78016 0.0
H56 H 0.3267 0.79472 0.81064 0.0
H57 H 0.34393 0.81976 0.81452 0.0
H58 H 0.35459 0.79929 0.76212 0.0
O59 O 0.31388 0.76618 0.74377 0.0
O60 O 0.28776 0.73846 0.77316 0.0
C61 C 0.27235 0.78165 0.88082 0.0
O62 O 0.26326 0.75464 0.65472 0.0
O63 O 0.28937 0.78255 0.62836 0.0
Zn64 Zn 0.53747 0.03645 0.97126 0.0
O65 O 0.51531 0.06262 0.9852 0.0
C66 C 0.53071 0.02243 0.11934 0.0
Zn67 Zn 0.50862 1.01108 -0.00192 0.0
C68 C 0.49423 0.05774 0.00257 0.0
O69 O 0.48667 0.03725 0.01089 0.0
C70 C 0.55177 0.9897 0.9667 0.0
O71 O 0.5021 1.01167 0.89503 0.0
O72 O 0.53083 0.03692 0.86927 0.0
N73 N 0.48258 0.9883 0.03719 0.0
C74 C 0.47713 0.96768 0.0224 0.0
C75 C 0.45332 0.97352 0.10818 0.0
N76 N 0.4679 0.99188 0.09077 0.0
N77 N 0.45908 0.95792 0.06697 0.0
C78 C 0.57016 0.07892 0.95222 0.0
C79 C 0.59414 0.07324 0.86671 0.0
N80 N 0.56364 0.05922 0.93313 0.0
N81 N 0.57838 0.05581 0.8795 0.0
N82 N 0.58909 0.08819 0.91082 0.0
H83 H 0.55124 0.10401 -0.00261 0.0
H84 H 0.57201 0.09262 0.04691 0.0
H85 H 0.54591 0.07642 0.04644 0.0
C86 C 0.55913 0.08829 0.01455 0.0
C87 C 0.48852 0.95768 0.96186 0.0
H88 H 0.49916 0.97048 0.92404 0.0
H89 H 0.47575 0.94964 0.9354 0.0
H90 H 0.4994 0.94448 0.98068 0.0
O91 O 0.5307 0.98499 0.98457 0.0
O92 O 0.55947 1.01017 0.95791 0.0
C93 C 0.51539 0.02503 0.85005 0.0
O94 O 0.54409 0.03566 0.07435 0.0
O95 O 0.51516 1.01071 0.10011 0.0
Zn96 Zn 0.28407 0.25859 0.23983 0.0
O97 O 0.28283 0.2558 0.13564 0.0
C98 C 0.3071 0.30553 0.20186 0.0
Zn99 Zn 0.25889 0.28473 0.23967 0.0
C100 C 0.26996 0.2682 0.10383 0.0
O101 O 0.25823 0.28168 0.1356 0.0
C102 C 0.27293 0.27508 0.37569 0.0
O103 O 0.23164 0.25852 0.26895 0.0
O104 O 0.25644 0.23283 0.2693 0.0
N105 N 0.23618 0.30906 0.23169 0.0
C106 C 0.21979 0.31577 0.27716 0.0
C107 C 0.2194 0.33596 0.17995 0.0
N108 N 0.23585 0.32162 0.17135 0.0
N109 N 0.20913 0.33262 0.24594 0.0
C110 C 0.32338 0.22816 0.20083 0.0
C111 C 0.32385 0.20714 0.29655 0.0
N112 N 0.3069 0.23435 0.24705 0.0
N113 N 0.30729 0.2213 0.30652 0.0
N114 N 0.33415 0.21112 0.2306 0.0
H115 H 0.31992 0.2308 0.09407 0.0
H116 H 0.34797 0.23819 0.10978 0.0
H117 H 0.32598 0.25745 0.12311 0.0
C118 C 0.32974 0.23945 0.12782 0.0
C119 C 0.21345 0.30514 0.35084 0.0
H120 H 0.21687 0.28705 0.35683 0.0
H121 H 0.19531 0.30685 0.36904 0.0
H122 H 0.22359 0.31394 0.38347 0.0
O123 O 0.26008 0.28751 0.34382 0.0
O124 O 0.28471 0.26161 0.34396 0.0
C125 C 0.23585 0.23777 0.27779 0.0
O126 O 0.31128 0.28479 0.2107 0.0
O127 O 0.28653 0.3105 0.21022 0.0
Zn128 Zn 0.75902 0.25928 0.26863 0.0
O129 O 0.7344 0.28301 0.25431 0.0
C130 C 0.77471 0.26643 0.11859 0.0
Zn131 Zn 0.78575 0.28684 0.24038 0.0
C132 C 0.74013 0.30382 0.23516 0.0
O133 O 0.76096 0.31046 0.22582 0.0
C134 C 0.80457 0.24219 0.27319 0.0
O135 O 0.78398 0.29234 0.34529 0.0
O136 O 0.75752 0.26479 0.37148 0.0
N137 N 0.81044 0.31173 0.20912 0.0
C138 C 0.82997 0.31577 0.233 0.0
C139 C 0.82763 0.34233 0.15161 0.0
N140 N 0.80908 0.32809 0.15798 0.0
N141 N 0.84121 0.33463 0.19711 0.0
C142 C 0.71549 0.22868 0.27774 0.0
C143 C 0.71854 0.20388 0.36335 0.0
N144 N 0.73466 0.23425 0.30152 0.0
N145 N 0.73642 0.21901 0.35527 0.0
N146 N 0.70497 0.20981 0.31603 0.0
H147 H 0.72013 0.25437 0.18702 0.0
H148 H 0.69155 0.24783 0.22821 0.0
H149 H 0.70526 0.2283 0.1777 0.0
C150 C 0.70792 0.24056 0.21383 0.0
C151 C 0.83728 0.3026 0.29547 0.0
H152 H 0.82426 0.28975 0.32336 0.0
H153 H 0.84162 0.31422 0.33178 0.0
H154 H 0.85272 0.29406 0.27899 0.0
O155 O 0.81034 0.26295 0.25375 0.0
O156 O 0.78373 0.23567 0.28342 0.0
C157 C 0.77004 0.27974 0.39043 0.0
O158 O 0.76086 0.25371 0.16378 0.0
O159 O 0.78715 0.28148 0.13747 0.0
Zn160 Zn 0.78403 0.75845 0.74118 0.0
O161 O 0.78265 0.75596 0.63722 0.0
C162 C 0.80777 0.8048 0.7035 0.0
Zn163 Zn 0.75907 0.78475 0.74083 0.0
C164 C 0.76997 0.76846 0.60502 0.0
O165 O 0.75822 0.78201 0.63649 0.0
C166 C 0.77333 0.77458 0.87703 0.0
O167 O 0.73124 0.75919 0.76982 0.0
O168 O 0.7558 0.73333 0.77022 0.0
N169 N 0.73696 0.80963 0.73364 0.0
C170 C 0.72063 0.81629 0.77939 0.0
C171 C 0.72067 0.83714 0.68305 0.0
N172 N 0.7369 0.82261 0.67383 0.0
N173 N 0.71028 0.83352 0.7489 0.0
C174 C 0.8246 0.72874 0.70732 0.0
C175 C 0.8163 0.70093 0.78777 0.0
N176 N 0.80562 0.73319 0.74735 0.0
N177 N 0.80063 0.71595 0.79747 0.0
N178 N 0.83161 0.70853 0.73169 0.0
H179 H 0.82407 0.7561 0.62408 0.0
H180 H 0.84098 0.73322 0.60168 0.0
H181 H 0.85072 0.7529 0.65422 0.0
C182 C 0.83552 0.74358 0.64287 0.0
C183 C 0.71402 0.80529 0.85261 0.0
H184 H 0.69582 0.80691 0.87025 0.0
H185 H 0.72394 0.81392 0.88616 0.0
H186 H 0.71747 0.78721 0.85799 0.0
O187 O 0.76056 0.78714 0.84523 0.0
O188 O 0.78497 0.76102 0.84523 0.0
C189 C 0.73528 0.73841 0.77864 0.0
O190 O 0.81181 0.78401 0.7125 0.0
O191 O 0.78725 0.80993 0.71162 0.0
Zn192 Zn 0.53494 0.50908 -0.0072 0.0
O193 O 0.53622 0.51039 0.09774 0.0
C194 C 0.48851 0.48523 0.02816 0.0
Zn195 Zn 0.50854 0.53398 -0.00606 0.0
C196 C 0.52362 0.52316 0.12994 0.0
O197 O 0.51028 0.53501 0.09835 0.0
C198 C 0.51984 0.5201 0.85678 0.0
O199 O 0.53406 0.56186 0.96675 0.0
O200 O 0.56005 0.53738 0.9661 0.0
N201 N 0.483 0.55538 -0.0012 0.0
C202 C 0.47873 0.57418 0.95824 0.0
C203 C 0.45014 0.56575 0.03654 0.0
N204 N 0.46526 0.55031 0.0476 0.0
N205 N 0.45817 0.58099 0.98092 0.0
C206 C 0.5662 0.47075 0.03339 0.0
C207 C 0.59034 0.4733 0.94201 0.0
N208 N 0.56036 0.48743 -0.01233 0.0
N209 N 0.57538 0.48894 0.93096 0.0
N210 N 0.58505 0.46171 0.00606 0.0
H211 H 0.5597 0.47132 0.14229 0.0
H212 H 0.55392 0.44415 0.11684 0.0
H213 H 0.5348 0.46622 0.10393 0.0
C214 C 0.55276 0.46257 0.10293 0.0
C215 C 0.49409 0.58508 0.89467 0.0
H216 H 0.50294 0.60046 0.90659 0.0
H217 H 0.48415 0.59018 0.85245 0.0
H218 H 0.50705 0.57379 0.877 0.0
O219 O 0.50698 0.53246 0.8897 0.0
O220 O 0.53339 0.50837 0.8878 0.0
C221 C 0.5549 0.55786 0.9583 0.0
O222 O 0.50932 0.48116 0.01892 0.0
O223 O 0.48347 0.50572 0.02137 0.0
Zn224 Zn 1.00875 0.51285 0.48286 0.0
O225 O 1.00164 0.51364 0.38005 0.0
C226 C 0.05111 0.49095 0.45133 0.0
Zn227 Zn 0.03741 0.53836 0.45494 0.0
C228 C 1.01501 0.52678 0.33459 0.0
O229 O 0.03069 0.53849 0.35322 0.0
C230 C 0.03107 0.52428 0.6034 0.0
O231 O 1.01597 0.56523 0.46723 0.0
O232 O 0.98772 0.53955 0.49733 0.0
N233 N 0.06434 0.55998 0.41588 0.0
C234 C 0.07434 0.57689 0.4414 0.0
C235 C 0.09589 0.57126 0.3507 0.0
N236 N 0.07754 0.55671 0.35882 0.0
N237 N 0.09407 0.58432 0.40134 0.0
C238 C 0.97697 0.4697 0.51114 0.0
C239 C 0.95349 0.47627 0.59676 0.0
N240 N 0.9823 0.49069 0.52317 0.0
N241 N 0.96778 0.49476 0.5765 0.0
N242 N 0.95927 0.46017 0.55748 0.0
H243 H 0.99745 0.47186 0.41057 0.0
H244 H 0.97548 0.44935 0.42935 0.0
H245 H 1.00033 0.44723 0.47067 0.0
C246 C 0.98819 0.45907 0.45171 0.0
C247 C 0.06631 0.58431 0.50978 0.0
H248 H 0.04777 0.58115 0.5239 0.0
H249 H 0.07096 0.60253 0.50828 0.0
H250 H 0.0747 0.57483 0.55015 0.0
O251 O 0.04395 0.53797 0.55829 0.0
O252 O 1.01584 0.51212 0.58435 0.0
C253 C 0.99503 0.56015 0.48752 0.0
O254 O 0.03003 0.48631 0.46843 0.0
O255 O 0.05886 0.51138 0.44325 0.0
C256 C 0.06812 0.09897 0.42868 0.0
C257 C 0.07336 0.07622 0.4379 0.0
C258 C 0.08531 0.11655 0.4114 0.0
C259 C 0.14687 0.12818 0.33934 0.0
H260 H 0.14022 0.18407 0.41652 0.0
C261 C 0.22167 0.19659 0.30611 0.0
C262 C 0.21704 0.21952 0.29698 0.0
C263 C 0.2041 0.17944 0.32317 0.0
C264 C 0.14234 0.16872 0.39365 0.0
H265 H 0.10118 0.05441 0.43602 0.0
H266 H 0.13093 0.0848 0.40675 0.0
H267 H 0.11003 0.15404 0.44569 0.0
H268 H 0.18988 0.24211 0.29917 0.0
H269 H 0.15935 0.21235 0.32812 0.0
H270 H 0.17913 0.14281 0.28726 0.0
C271 C 0.11352 0.08918 0.41186 0.0
C272 C 0.12491 0.15138 0.41049 0.0
C273 C 0.09635 0.07164 0.42921 0.0
C274 C 0.19422 0.22471 0.30584 0.0
C275 C 0.17663 0.20755 0.32296 0.0
C276 C 0.16427 0.1455 0.32249 0.0
C277 C 0.10835 0.11198 0.40257 0.0
C278 C 0.12687 0.13075 0.38383 0.0
C279 C 0.18123 0.18457 0.33175 0.0
C280 C 0.16239 0.16608 0.34947 0.0
H281 H 0.05066 0.10326 0.43464 0.0
H282 H 0.08047 0.13376 0.40395 0.0
H283 H 0.14901 0.11284 0.31645 0.0
H284 H 0.23896 0.19182 0.30006 0.0
H285 H 0.20854 0.16209 0.33047 0.0
C286 C 0.10222 0.94104 0.5969 0.0
C287 C 0.09773 0.94285 0.52843 0.0
C288 C 0.11607 0.92465 0.62159 0.0
C289 C 0.16258 0.89164 0.5596 0.0
H290 H 0.1494 0.85632 0.7417 0.0
C291 C 0.22983 0.84143 0.68083 0.0
C292 C 0.22336 0.81904 0.71088 0.0
C293 C 0.21368 0.85606 0.66159 0.0
C294 C 0.15323 0.866 0.69061 0.0
H295 H 0.10415 0.92901 0.43227 0.0
H296 H 0.12842 0.90042 0.47509 0.0
H297 H 0.12199 0.88211 0.70165 0.0
H298 H 0.19472 0.79466 0.74595 0.0
H299 H 0.16644 0.82039 0.71263 0.0
H300 H 0.19377 0.87566 0.54837 0.0
C301 C 0.12122 0.91162 0.50977 0.0
C302 C 0.13764 0.88086 0.66792 0.0
C303 C 0.1073 0.9279 0.48531 0.0
C304 C 0.20027 0.81181 0.72294 0.0
C305 C 0.18406 0.82654 0.70411 0.0
C306 C 0.17821 0.87698 0.58247 0.0
C307 C 0.12598 0.90998 0.57795 0.0
C308 C 0.14217 0.89383 0.60212 0.0
C309 C 0.19066 0.84872 0.67229 0.0
C310 C 0.17376 0.86405 0.64827 0.0
H311 H 0.09583 0.95284 0.63056 0.0
H312 H 0.11975 0.92406 0.674 0.0
H313 H 0.16667 0.90158 0.50894 0.0
H314 H 0.24746 0.84759 0.67091 0.0
H315 H 0.21924 0.87315 0.63806 0.0
C316 C 0.3523 0.87276 0.72697 0.0
C317 C 0.35801 0.85293 0.70044 0.0
C318 C 0.36554 0.88166 0.77081 0.0
C319 C 0.41857 0.88088 0.84124 0.0
H320 H 0.37966 0.88734 0.01133 0.0
C321 C 0.45616 0.91809 0.05047 0.0
C322 C 0.44575 0.93802 0.06124 0.0
C323 C 0.4449 0.90131 0.0229 0.0
C324 C 0.39073 0.88539 0.96445 0.0
H325 H 0.38325 0.82863 0.68959 0.0
H326 H 0.40685 0.84443 0.76605 0.0
H327 H 0.36327 0.87441 0.91572 0.0
H328 H 0.41467 0.95485 0.06264 0.0
H329 H 0.39482 0.92568 0.01481 0.0
H330 H 0.44591 0.8929 0.88848 0.0
C331 C 0.392 0.85284 0.75401 0.0
C332 C 0.38137 0.87824 0.90965 0.0
C333 C 0.37867 0.84391 0.71021 0.0
C334 C 0.42296 0.93961 0.05403 0.0
C335 C 0.41165 0.92286 0.02675 0.0
C336 C 0.42794 0.8882 0.89596 0.0
C337 C 0.38468 0.87088 0.78792 0.0
C338 C 0.39513 0.87672 0.84691 0.0
C339 C 0.42307 0.90432 0.00666 0.0
C340 C 0.41398 0.89124 0.95716 0.0
H341 H 0.33637 0.87985 0.71994 0.0
H342 H 0.35994 0.89596 0.79532 0.0
H343 H 0.42946 0.87957 0.79345 0.0
H344 H 0.47359 0.91637 0.05801 0.0
H345 H 0.45385 0.8869 0.00931 0.0
C346 C 0.48627 0.09525 0.03939 0.0
C347 C 0.47868 0.07551 0.01598 0.0
C348 C 0.47108 0.11118 0.05765 0.0
C349 C 0.40905 0.11687 0.10247 0.0
H350 H 0.42807 0.18033 0.08796 0.0
C351 C 0.3479 0.18742 0.14312 0.0
C352 C 0.35145 0.19838 0.19967 0.0
C353 C 0.36396 0.17349 0.11648 0.0
C354 C 0.42262 0.16263 0.09213 0.0
H355 H 0.44959 0.05739 -0.01004 0.0
H356 H 0.42335 0.08566 0.01757 0.0
H357 H 0.45495 0.15411 0.04607 0.0
H358 H 0.37435 0.20394 0.2722 0.0
H359 H 0.40306 0.1801 0.22377 0.0
H360 H 0.37646 0.1258 0.14621 0.0
C361 C 0.44075 0.08853 0.02519 0.0
C362 C 0.43801 0.14753 0.06873 0.0
C363 C 0.45583 0.07237 0.00864 0.0
C364 C 0.37147 0.19567 0.22829 0.0
C365 C 0.38779 0.18217 0.20061 0.0
C366 C 0.39358 0.13206 0.12427 0.0
C367 C 0.44802 0.10797 0.05139 0.0
C368 C 0.4315 0.12436 0.07401 0.0
C369 C 0.38398 0.17073 0.14517 0.0
C370 C 0.40029 0.15499 0.11973 0.0
H371 H 0.50381 0.09799 0.04607 0.0
H372 H 0.47737 0.12565 0.0786 0.0
H373 H 0.40341 0.09917 0.10932 0.0
H374 H 0.33238 0.18909 0.12116 0.0
H375 H 0.36069 0.16473 0.07383 0.0
C376 C 0.94774 0.97036 0.55475 0.0
C377 C 0.97071 0.96573 0.54505 0.0
C378 C 0.93056 0.95284 0.57192 0.0
C379 C 0.91897 0.89079 0.57113 0.0
H380 H 0.86514 0.89907 0.6965 0.0
C381 C 0.84947 0.81757 0.67525 0.0
C382 C 0.8267 0.82292 0.68451 0.0
C383 C 0.86716 0.83464 0.65831 0.0
C384 C 0.87989 0.89647 0.66068 0.0
H385 H 0.99337 0.93866 0.54632 0.0
H386 H 0.96354 0.90818 0.5768 0.0
H387 H 0.89533 0.92897 0.6676 0.0
H388 H 0.80496 0.85076 0.6823 0.0
H389 H 0.83554 0.88032 0.65228 0.0
H390 H 0.90347 0.85826 0.56428 0.0
C391 C 0.95872 0.92541 0.57024 0.0
C392 C 0.89733 0.91374 0.644 0.0
C393 C 0.97593 0.94297 0.55309 0.0
C394 C 0.82221 0.84588 0.67594 0.0
C395 C 0.83986 0.86293 0.6591 0.0
C396 C 0.9015 0.87349 0.58784 0.0
C397 C 0.93571 0.93002 0.58008 0.0
C398 C 0.91717 0.91128 0.5987 0.0
C399 C 0.86268 0.85765 0.65017 0.0
C400 C 0.88159 0.87605 0.63274 0.0
H401 H 0.94294 0.98761 0.54883 0.0
H402 H 0.91316 0.95725 0.57782 0.0
H403 H 0.93372 0.88822 0.53532 0.0
H404 H 0.85369 0.80013 0.68144 0.0
H405 H 0.8844 0.82974 0.65278 0.0
C406 C 0.95365 0.11862 0.42761 0.0
C407 C 0.94439 0.0966 0.45256 0.0
C408 C 0.94013 0.13503 0.4009 0.0
C409 C 0.88585 0.14155 0.33219 0.0
H410 H 0.88976 0.20118 0.38727 0.0
C411 C 0.81554 0.2029 0.30666 0.0
C412 C 0.82188 0.22593 0.2857 0.0
C413 C 0.83176 0.18767 0.32082 0.0
C414 C 0.88867 0.18472 0.37057 0.0
H415 H 0.91386 0.07449 0.46993 0.0
H416 H 0.89021 0.10302 0.42422 0.0
H417 H 0.91612 0.17369 0.42248 0.0
H418 H 0.85032 0.25098 0.26238 0.0
H419 H 0.87862 0.22434 0.28688 0.0
H420 H 0.85819 0.15242 0.28129 0.0
C421 C 0.90795 0.10762 0.42384 0.0
C422 C 0.9038 0.16896 0.3907 0.0
C423 C 0.92141 0.09132 0.45059 0.0
C424 C 0.84485 0.23335 0.27856 0.0
C425 C 0.86107 0.21811 0.29295 0.0
C426 C 0.87074 0.15727 0.31215 0.0
C427 C 0.9171 0.12969 0.39875 0.0
C428 C 0.90233 0.14708 0.37263 0.0
C429 C 0.8547 0.19511 0.3145 0.0
C430 C 0.87175 0.17893 0.33194 0.0
H431 H 0.97114 0.1233 0.43028 0.0
H432 H 0.94769 0.15188 0.38194 0.0
H433 H 0.88454 0.12497 0.31629 0.0
H434 H 0.79799 0.19663 0.31288 0.0
H435 H 0.82624 0.17011 0.33823 0.0
C436 C 0.69374 0.17394 0.28092 0.0
C437 C 0.68817 0.19533 0.29596 0.0
C438 C 0.68058 0.16226 0.24261 0.0
C439 C 0.6475 0.13854 0.17004 0.0
H440 H 0.63568 0.17757 0.00744 0.0
C441 C 0.62547 0.09993 0.94137 0.0
C442 C 0.60418 0.1055 0.92554 0.0
C443 C 0.6371 0.11348 0.97875 0.0
C444 C 0.63888 0.16655 0.05267 0.0
H445 H 0.66325 0.22014 0.29187 0.0
H446 H 0.6399 0.19961 0.22461 0.0
H447 H 0.64932 0.19412 0.1021 0.0
H448 H 0.57985 0.13092 0.92564 0.0
H449 H 0.60011 0.15476 -0.00809 0.0
H450 H 0.63743 0.11098 0.12025 0.0
C451 C 0.65476 0.19217 0.24068 0.0
C452 C 0.64639 0.17596 0.10711 0.0
C453 C 0.66796 0.20383 0.27915 0.0
C454 C 0.59611 0.12627 0.93881 0.0
C455 C 0.60771 0.13986 0.97634 0.0
C456 C 0.64015 0.12916 0.11556 0.0
C457 C 0.66162 0.17183 0.21924 0.0
C458 C 0.65098 0.162 0.16595 0.0
C459 C 0.62753 0.13274 0.00031 0.0
C460 C 0.63607 0.14307 0.05611 0.0
H461 H 0.70935 0.16721 0.29338 0.0
H462 H 0.68634 0.14665 0.22667 0.0
H463 H 0.65068 0.12742 0.21509 0.0
H464 H 0.63196 0.08397 0.93113 0.0
H465 H 0.65266 0.10797 -0.0045 0.0
C466 C 0.69631 0.85817 0.83328 0.0
C467 C 0.69285 0.84635 0.77855 0.0
C468 C 0.68012 0.87227 0.85818 0.0
C469 C 0.63019 0.90178 0.80725 0.0
H470 H 0.62311 0.91366 -0.00265 0.0
C471 C 0.55878 0.9518 0.93179 0.0
C472 C 0.56702 0.9717 0.9531 0.0
C473 C 0.57346 0.93539 0.91427 0.0
C474 C 0.62498 0.91042 0.94418 0.0
H475 H 0.66986 0.83914 0.70802 0.0
H476 H 0.64078 0.86258 0.75379 0.0
H477 H 0.64923 0.88608 0.96059 0.0
H478 H 0.59688 0.98976 0.97493 0.0
H479 H 0.62247 0.96054 0.94651 0.0
H480 H 0.6052 0.92563 0.79221 0.0
C481 C 0.65629 0.86189 0.77611 0.0
C482 C 0.64005 0.89477 0.92276 0.0
C483 C 0.67276 0.84826 0.75021 0.0
C484 C 0.59011 0.97459 0.95853 0.0
C485 C 0.60469 0.95791 0.9426 0.0
C486 C 0.61476 0.91699 0.82918 0.0
C487 C 0.6599 0.87447 0.82963 0.0
C488 C 0.64307 0.89037 0.85372 0.0
C489 C 0.59652 0.93836 0.9194 0.0
C490 C 0.6122 0.92157 0.89755 0.0
H491 H 0.71193 0.85709 0.85495 0.0
H492 H 0.68386 0.88192 0.89835 0.0
H493 H 0.63231 0.89941 0.75336 0.0
H494 H 0.54111 0.94923 0.92658 0.0
H495 H 0.56686 0.92042 0.89639 0.0
C496 C 0.56774 0.59948 0.93084 0.0
C497 C 0.57307 0.57675 0.93986 0.0
C498 C 0.58487 0.61711 0.91394 0.0
C499 C 0.64687 0.6298 0.91524 0.0
H500 H 0.63866 0.68336 0.79057 0.0
C501 C 0.721 0.69731 0.80734 0.0
C502 C 0.7164 0.72024 0.79801 0.0
C503 C 0.70343 0.68019 0.82509 0.0
C504 C 0.64122 0.66868 0.82618 0.0
H505 H 0.60096 0.55502 0.93732 0.0
H506 H 0.6306 0.5855 0.90734 0.0
H507 H 0.60859 0.65323 0.82007 0.0
H508 H 0.68931 0.7429 0.80056 0.0
H509 H 0.65874 0.71318 0.83197 0.0
H510 H 0.67948 0.64519 0.92133 0.0
C511 C 0.61318 0.58985 0.91435 0.0
C512 C 0.62386 0.65129 0.84321 0.0
C513 C 0.59608 0.57225 0.93119 0.0
C514 C 0.6936 0.72549 0.80705 0.0
C515 C 0.67599 0.70834 0.82473 0.0
C516 C 0.66421 0.64716 0.8982 0.0
C517 C 0.60793 0.61262 0.90555 0.0
C518 C 0.62639 0.63147 0.88788 0.0
C519 C 0.68058 0.68537 0.83413 0.0
C520 C 0.66176 0.66691 0.85315 0.0
H521 H 0.55027 0.60371 0.93711 0.0
H522 H 0.57998 0.63432 0.90854 0.0
H523 H 0.64946 0.61513 0.95086 0.0
H524 H 0.73828 0.69249 0.80067 0.0
H525 H 0.70782 0.66282 0.83067 0.0
C526 C 0.72911 0.3428 0.19706 0.0
C527 C 0.72282 0.3199 0.22086 0.0
C528 C 0.71291 0.35771 0.17984 0.0
C529 C 0.65619 0.35864 0.12721 0.0
H530 H 0.65965 0.4202 0.16744 0.0
C531 C 0.60715 0.42847 -0.00373 0.0
C532 C 0.59788 0.44436 0.03631 0.0
C533 C 0.62098 0.41252 0.02329 0.0
C534 C 0.65827 0.40299 0.15645 0.0
H535 H 0.69444 0.29482 0.24658 0.0
H536 H 0.66617 0.32088 0.21728 0.0
H537 H 0.68628 0.39398 0.20846 0.0
H538 H 0.59647 0.45655 0.13526 0.0
H539 H 0.6201 0.42832 0.18346 0.0
H540 H 0.62808 0.3676 0.07564 0.0
C541 C 0.68369 0.32725 0.21101 0.0
C542 C 0.67372 0.38804 0.17926 0.0
C543 C 0.69989 0.31234 0.22825 0.0
C544 C 0.60276 0.44405 0.10401 0.0
C545 C 0.61662 0.42811 0.13112 0.0
C546 C 0.64076 0.3736 0.10435 0.0
C547 C 0.69002 0.35008 0.186 0.0
C548 C 0.67298 0.36573 0.16446 0.0
C549 C 0.62604 0.41225 0.0909 0.0
C550 C 0.64172 0.39601 0.1182 0.0
H551 H 0.74664 0.34918 0.19055 0.0
H552 H 0.71842 0.37511 0.15994 0.0
H553 H 0.65526 0.34165 0.11429 0.0
H554 H 0.60382 0.42856 0.94367 0.0
H555 H 0.62823 0.40081 -0.00953 0.0
C556 C 0.95835 0.41957 0.55075 0.0
C557 C 0.9469 0.43917 0.55764 0.0
C558 C 0.94756 0.40103 0.53008 0.0
C559 C 0.89314 0.37982 0.48316 0.0
H560 H 0.93053 0.37274 0.31096 0.0
C561 C 0.85359 0.36706 0.24763 0.0
C562 C 0.8588 0.34734 0.2198 0.0
C563 C 0.86687 0.37513 0.29275 0.0
C564 C 0.92005 0.37429 0.35928 0.0
H565 H 0.9147 0.45391 0.55939 0.0
H566 H 0.89569 0.42171 0.52312 0.0
H567 H 0.94761 0.38839 0.40116 0.0
H568 H 0.88309 0.32209 0.20921 0.0
H569 H 0.90692 0.33657 0.28761 0.0
H570 H 0.86534 0.36707 0.43902 0.0
C571 C 0.91295 0.42044 0.53306 0.0
C572 C 0.92979 0.38297 0.41129 0.0
C573 C 0.92377 0.43894 0.55357 0.0
C574 C 0.87893 0.33735 0.23062 0.0
C575 C 0.89236 0.34549 0.27557 0.0
C576 C 0.8834 0.37134 0.43099 0.0
C577 C 0.9252 0.40196 0.51668 0.0
C578 C 0.91623 0.38675 0.47243 0.0
C579 C 0.88561 0.36363 0.30984 0.0
C580 C 0.89664 0.36946 0.36769 0.0
H581 H 0.97608 0.41932 0.55606 0.0
H582 H 0.95721 0.38676 0.51926 0.0
H583 H 0.88239 0.38227 0.53015 0.0
H584 H 0.83802 0.37484 0.24001 0.0
H585 H 0.86173 0.3895 0.3176 0.0
C586 C 0.87111 0.70569 0.6773 0.0
C587 C 0.84926 0.69575 0.70221 0.0
C588 C 0.88827 0.69262 0.65172 0.0
C589 C 0.90341 0.63344 0.66329 0.0
H590 H 0.94457 0.65344 0.49377 0.0
C591 C 0.95634 0.57142 0.52708 0.0
C592 C 0.97935 0.57765 0.50413 0.0
C593 C 0.94168 0.58723 0.54898 0.0
C594 C 0.93335 0.64776 0.54159 0.0
H595 H 0.82815 0.6646 0.71962 0.0
H596 H 0.85784 0.64184 0.67478 0.0
H597 H 0.91672 0.6787 0.53728 0.0
H598 H 1.00487 0.60564 0.48396 0.0
H599 H 0.97904 0.63343 0.52234 0.0
H600 H 0.9197 0.6025 0.6675 0.0
C601 C 0.86192 0.65961 0.67555 0.0
C602 C 0.91744 0.66221 0.56652 0.0
C603 C 0.84488 0.67262 0.70096 0.0
C604 C 0.98722 0.60031 0.50133 0.0
C605 C 0.97245 0.61622 0.52316 0.0
C606 C 0.9192 0.61906 0.63841 0.0
C607 C 0.88388 0.66937 0.65128 0.0
C608 C 0.90201 0.655 0.62698 0.0
C609 C 0.94962 0.6097 0.5485 0.0
C610 C 0.93405 0.62587 0.57664 0.0
H611 H 0.8751 0.72335 0.67946 0.0
H612 H 0.90509 0.70057 0.6341 0.0
H613 H 0.89217 0.62759 0.71095 0.0
H614 H 0.94964 0.55416 0.5295 0.0
H615 H 0.92408 0.58179 0.56691 0.0
C616 C 0.32142 0.34669 0.17423 0.0
C617 C 0.32596 0.32373 0.1828 0.0
C618 C 0.33905 0.36377 0.1571 0.0
C619 C 0.40135 0.37481 0.15657 0.0
H620 H 0.39346 0.42901 0.03415 0.0
C621 C 0.47536 0.44364 0.05402 0.0
C622 C 0.47022 0.46643 0.04615 0.0
C623 C 0.45808 0.42613 0.07034 0.0
C624 C 0.39596 0.41415 0.06914 0.0
H625 H 0.35301 0.30101 0.17939 0.0
H626 H 0.38363 0.33064 0.149 0.0
H627 H 0.36321 0.39915 0.06259 0.0
H628 H 0.44253 0.4884 0.05011 0.0
H629 H 0.41265 0.45815 0.07905 0.0
H630 H 0.43412 0.38986 0.1631 0.0
C631 C 0.3664 0.33553 0.15644 0.0
C632 C 0.37848 0.3969 0.08556 0.0
C633 C 0.34875 0.31844 0.17352 0.0
C634 C 0.44726 0.47113 0.05537 0.0
C635 C 0.43002 0.45366 0.0716 0.0
C636 C 0.41884 0.39208 0.14013 0.0
C637 C 0.36189 0.35853 0.14793 0.0
C638 C 0.3808 0.37693 0.12975 0.0
C639 C 0.43507 0.43082 0.07924 0.0
C640 C 0.41645 0.41211 0.09627 0.0
H641 H 0.30416 0.35153 0.18112 0.0
H642 H 0.33472 0.38117 0.15214 0.0
H643 H 0.40381 0.35995 0.19157 0.0
H644 H 0.49278 0.43927 0.04728 0.0
H645 H 0.46281 0.40887 0.07487 0.0
C646 C 0.45539 0.62027 0.92659 0.0
C647 C 0.44555 0.59836 0.94991 0.0
C648 C 0.44256 0.6371 0.89858 0.0
C649 C 0.3899 0.64502 0.82209 0.0
H650 H 0.39301 0.70407 0.88159 0.0
C651 C 0.31984 0.70617 0.79454 0.0
C652 C 0.32598 0.72932 0.7757 0.0
C653 C 0.33609 0.69102 0.80877 0.0
C654 C 0.39219 0.68779 0.8636 0.0
H655 H 0.41471 0.57687 0.96314 0.0
H656 H 0.39225 0.60613 0.91498 0.0
H657 H 0.41868 0.6761 0.91889 0.0
H658 H 0.3541 0.7547 0.75641 0.0
H659 H 0.38255 0.72814 0.78116 0.0
H660 H 0.36317 0.6565 0.76787 0.0
C661 C 0.40992 0.61032 0.91697 0.0
C662 C 0.40691 0.67177 0.88495 0.0
C663 C 0.42269 0.59362 0.9451 0.0
C664 C 0.34882 0.73696 0.77081 0.0
C665 C 0.3651 0.72178 0.78534 0.0
C666 C 0.37521 0.661 0.8008 0.0
C667 C 0.41967 0.63228 0.89338 0.0
C668 C 0.40563 0.65006 0.8655 0.0
C669 C 0.35889 0.69863 0.80466 0.0
C670 C 0.37589 0.68242 0.82234 0.0
H671 H 0.47281 0.62451 0.93142 0.0
H672 H 0.45055 0.65386 0.8809 0.0
H673 H 0.38879 0.6286 0.80507 0.0
H674 H 0.30241 0.69971 0.79899 0.0
H675 H 0.33068 0.67336 0.82453 0.0
C676 C 0.18296 0.67776 0.80069 0.0
C677 C 0.20561 0.68505 0.77822 0.0
C678 C 0.17226 0.66256 0.76571 0.0
C679 C 0.18248 0.62641 0.62561 0.0
H680 H 0.12466 0.64654 0.58515 0.0
C681 C 0.11356 0.61867 0.42386 0.0
C682 C 0.11252 0.59531 0.42485 0.0
C683 C 0.12767 0.6287 0.46341 0.0
C684 C 0.14098 0.64097 0.59501 0.0
H685 H 0.23558 0.6815 0.70692 0.0
H686 H 0.21701 0.65558 0.64411 0.0
H687 H 0.14287 0.66293 0.67081 0.0
H688 H 0.12564 0.564 0.46344 0.0
H689 H 0.15 0.58122 0.53411 0.0
H690 H 0.18111 0.60537 0.54672 0.0
C691 C 0.20736 0.66097 0.68895 0.0
C692 C 0.15115 0.64995 0.64551 0.0
C693 C 0.21799 0.6759 0.72431 0.0
C694 C 0.12672 0.58217 0.4616 0.0
C695 C 0.14055 0.59206 0.50197 0.0
C696 C 0.17245 0.61766 0.57427 0.0
C697 C 0.18416 0.6548 0.70758 0.0
C698 C 0.17212 0.64294 0.6609 0.0
C699 C 0.14046 0.6153 0.50548 0.0
C700 C 0.15169 0.62503 0.55801 0.0
H701 H 0.17335 0.68475 0.84258 0.0
H702 H 0.15446 0.65773 0.78205 0.0
H703 H 0.19855 0.62052 0.63679 0.0
H704 H 0.10245 0.62885 0.39599 0.0
H705 H 0.12769 0.64675 0.46379 0.0
C706 C 0.17161 0.3473 0.24638 0.0
C707 C 0.19166 0.34554 0.27499 0.0
C708 C 0.15521 0.36121 0.27105 0.0
C709 C 0.13909 0.39546 0.41439 0.0
H710 H 0.10476 0.42559 0.281 0.0
C711 C 0.08933 0.47561 0.44537 0.0
C712 C 0.06637 0.47291 0.43829 0.0
C713 C 0.1039 0.45881 0.43056 0.0
C714 C 0.11417 0.41716 0.31877 0.0
H715 H 0.21074 0.35681 0.35068 0.0
H716 H 0.18278 0.38208 0.39195 0.0
H717 H 0.1317 0.39885 0.2449 0.0
H718 H 0.04067 0.45066 0.40974 0.0
H719 H 0.06638 0.42162 0.38162 0.0
H720 H 0.12217 0.41504 0.48698 0.0
C721 C 0.17902 0.37212 0.35252 0.0
C722 C 0.1295 0.40165 0.29843 0.0
C723 C 0.19514 0.35775 0.32886 0.0
C724 C 0.05823 0.45309 0.41627 0.0
C725 C 0.07291 0.43655 0.3999 0.0
C726 C 0.12411 0.4114 0.43422 0.0
C727 C 0.15887 0.37422 0.32353 0.0
C728 C 0.14217 0.39048 0.34595 0.0
C729 C 0.09584 0.43931 0.40684 0.0
C730 C 0.11151 0.42229 0.38657 0.0
H731 H 0.1687 0.3379 0.20481 0.0
H732 H 0.13975 0.36181 0.24849 0.0
H733 H 0.14812 0.38698 0.45299 0.0
H734 H 0.09602 0.49072 0.46234 0.0
H735 H 0.12158 0.46129 0.43586 0.0
C736 C 0.0391 1.00947 0.73775 0.0
C737 C 0.02463 0.0228 0.70226 0.0
C738 C 0.03875 1.00934 0.80851 0.0
C739 C 0.02241 0.04194 0.94954 0.0
H740 H 0.02059 0.98419 0.06576 0.0
C741 C 1.00512 0.03299 0.24581 0.0
C742 C 0.01936 0.0193 0.28116 0.0
C743 C 1.00539 0.03321 0.17504 0.0
C744 C 0.02129 1.00042 0.0338 0.0
H745 H 0.99876 0.04678 0.71247 0.0
H746 H 0.99814 0.04644 0.83618 0.0
H747 H 0.0226 0.98544 0.94098 0.0
H748 H 0.04482 0.99492 0.27068 0.0
H749 H 0.04537 0.9955 0.14694 0.0
H750 H 0.02115 0.05694 0.04233 0.0
C751 C 1.00982 0.03623 0.80914 0.0
C752 C 0.02248 1.00114 0.96258 0.0
C753 C 1.01012 0.03632 0.73846 0.0
C754 C 0.03363 1.00562 0.24478 0.0
C755 C 0.03387 1.00585 0.17408 0.0
C756 C 0.02125 0.04123 0.02076 0.0
C757 C 0.024 0.0226 0.84478 0.0
C758 C 0.02306 0.0219 0.91994 0.0
C759 C 0.01987 0.01975 0.13859 0.0
C760 C 0.02069 0.02046 0.06342 0.0
H761 H 0.05059 0.99902 0.7111 0.0
H762 H 0.05006 0.99892 0.83483 0.0
H763 H 0.0231 0.05817 0.91754 0.0
H764 H 0.99392 0.04368 0.2726 0.0
H765 H 0.99423 0.04387 0.14885 0.0
C766 C 0.26102 0.7538 0.51014 0.0
C767 C 0.27797 0.76609 0.53493 0.0
C768 C 0.26064 0.75501 0.43903 0.0
C769 C 0.29566 0.77162 0.26804 0.0
H770 H 0.23794 0.7811 0.20488 0.0
C771 C 0.28854 0.7956 0.97934 0.0
C772 C 0.27157 0.78312 0.95518 0.0
C773 C 0.28901 0.7946 0.05036 0.0
C774 C 0.25415 0.77832 0.22175 0.0
H775 H 0.30839 0.78848 0.50464 0.0
H776 H 0.30766 0.79062 0.38124 0.0
H777 H 0.2399 0.77505 0.32852 0.0
H778 H 0.24128 0.76061 -0.01367 0.0
H779 H 0.24217 0.75886 0.10953 0.0
H780 H 0.3099 0.77489 0.16123 0.0
C781 C 0.29471 0.77998 0.41642 0.0
C782 C 0.25526 0.77473 0.29252 0.0
C783 C 0.29504 0.77883 0.48726 0.0
C784 C 0.25462 0.77039 0.00327 0.0
C785 C 0.25504 0.76948 0.07398 0.0
C786 C 0.29456 0.77521 0.19725 0.0
C787 C 0.27728 0.76844 0.39153 0.0
C788 C 0.27602 0.77133 0.31642 0.0
C789 C 0.27246 0.78122 0.09832 0.0
C790 C 0.27379 0.77857 0.17337 0.0
H791 H 0.24763 0.74386 0.5455 0.0
H792 H 0.24717 0.74568 0.42123 0.0
H793 H 0.31187 0.76882 0.28491 0.0
H794 H 0.30184 0.80553 0.94348 0.0
H795 H 0.30248 0.80406 0.06775 0.0
C796 C 0.50157 1.00943 0.75026 0.0
C797 C 0.51428 0.02599 0.77545 0.0
C798 C 0.5028 1.00919 0.679 0.0
C799 C 0.52025 0.04436 0.50905 0.0
H800 H 0.52828 0.98683 0.4425 0.0
C801 C 0.54462 0.03794 0.21914 0.0
C802 C 0.53183 0.02144 0.19393 0.0
C803 C 0.54341 0.03815 0.2904 0.0
C804 C 0.52591 1.003 0.46032 0.0
H805 H 0.5375 0.0558 0.74586 0.0
H806 H 0.53965 0.0553 0.62236 0.0
H807 H 0.52216 0.98837 0.56659 0.0
H808 H 0.50852 0.9917 0.22347 0.0
H809 H 0.50642 0.99215 0.347 0.0
H810 H 0.52401 0.059 0.40277 0.0
C811 C 0.52867 0.04257 0.65724 0.0
C812 C 0.52228 1.00386 0.53136 0.0
C813 C 0.52752 0.04276 0.72815 0.0
C814 C 0.51855 1.00469 0.2412 0.0
C815 C 0.51743 1.00485 0.31212 0.0
C816 C 0.52389 0.0435 0.43801 0.0
C817 C 0.51664 0.02559 0.63184 0.0
C818 C 0.51942 0.02455 0.55648 0.0
C819 C 0.52952 0.02179 0.33754 0.0
C820 C 0.52674 0.02281 0.41289 0.0
H821 H 0.49125 0.99627 0.78548 0.0
H822 H 0.49311 0.99605 0.66082 0.0
H823 H 0.51787 0.06053 0.52686 0.0
H824 H 0.55497 0.05107 0.18393 0.0
H825 H 0.55313 0.05126 0.30861 0.0
C826 C 0.28234 0.25324 -0.00658 0.0
C827 C 0.26912 0.26768 0.02997 0.0
C828 C 0.28243 0.25379 0.92257 0.0
C829 C 0.27172 0.29124 0.77042 0.0
H830 H 0.2698 0.23629 0.68674 0.0
C831 C 0.26025 0.28985 0.4862 0.0
C832 C 0.27362 0.27551 0.44966 0.0
C833 C 0.26 0.28921 0.55714 0.0
C834 C 0.27059 0.25176 0.70943 0.0
H835 H 0.24507 0.29351 0.02167 0.0
H836 H 0.24507 0.29422 0.89815 0.0
H837 H 0.2681 0.23391 0.81175 0.0
H838 H 0.29773 0.24975 0.45813 0.0
H839 H 0.29745 0.24888 0.58184 0.0
H840 H 0.27422 0.30908 0.6681 0.0
C841 C 0.25565 0.28279 0.92407 0.0
C842 C 0.26959 0.25039 0.78079 0.0
C843 C 0.25556 0.28226 -0.00519 0.0
C844 C 0.28714 0.26093 0.48496 0.0
C845 C 0.28689 0.26031 0.55581 0.0
C846 C 0.27271 0.2926 0.69907 0.0
C847 C 0.26928 0.26876 0.88724 0.0
C848 C 0.27015 0.27012 0.81184 0.0
C849 C 0.27313 0.27426 0.59258 0.0
C850 C 0.27218 0.27287 0.66802 0.0
H851 H 0.29285 0.24174 0.01919 0.0
H852 H 0.29321 0.24289 0.89517 0.0
H853 H 0.27253 0.30671 0.79308 0.0
H854 H 0.24974 0.30132 0.46035 0.0
H855 H 0.24913 0.30004 0.58451 0.0
C856 C 0.79247 0.27784 -0.00376 0.0
C857 C 0.77549 0.26509 0.04419 0.0
C858 C 0.79209 0.27878 0.92551 0.0
C859 C 0.75271 0.27295 0.802 0.0
H860 H 0.80741 0.27279 0.67115 0.0
C861 C 0.75227 0.26834 0.51278 0.0
C862 C 0.76926 0.28107 0.46484 0.0
C863 C 0.75265 0.2674 0.58351 0.0
C864 C 0.79205 0.27319 0.70704 0.0
H865 H 0.74525 0.24266 0.05567 0.0
H866 H 0.7447 0.24415 0.9314 0.0
H867 H 0.80931 0.26701 0.79487 0.0
H868 H 0.79955 0.30345 0.45336 0.0
H869 H 0.8001 0.30195 0.57763 0.0
H870 H 0.73545 0.27914 0.71417 0.0
C871 C 0.75813 0.25363 0.94889 0.0
C872 C 0.79312 0.26976 0.77783 0.0
C873 C 0.75855 0.25262 0.01991 0.0
C874 C 0.78623 0.29351 0.48912 0.0
C875 C 0.78665 0.2925 0.56014 0.0
C876 C 0.75165 0.27638 0.7312 0.0
C877 C 0.77472 0.26701 0.90107 0.0
C878 C 0.77346 0.26962 0.82603 0.0
C879 C 0.77005 0.27914 0.60796 0.0
C880 C 0.77131 0.27652 0.683 0.0
H881 H 0.80579 0.28762 0.01329 0.0
H882 H 0.80498 0.28939 0.89003 0.0
H883 H 0.73735 0.27335 0.83789 0.0
H884 H 0.73893 0.25859 0.49573 0.0
H885 H 0.73975 0.2568 0.61899 0.0
C886 C 0.78363 0.75418 0.49456 0.0
C887 C 0.7695 0.76795 0.53103 0.0
C888 C 0.78403 0.75469 0.4236 0.0
C889 C 0.7724 0.79131 0.27122 0.0
H890 H 0.77214 0.73624 0.18784 0.0
C891 C 0.76064 0.78919 -0.01224 0.0
C892 C 0.77417 0.77506 0.9509 0.0
C893 C 0.76061 0.78868 0.05856 0.0
C894 C 0.77249 0.75175 0.2104 0.0
H895 H 0.74432 0.79261 0.52249 0.0
H896 H 0.74493 0.79332 0.39863 0.0
H897 H 0.7705 0.73406 0.31278 0.0
H898 H 0.79881 0.7498 0.95864 0.0
H899 H 0.79895 0.74916 0.0821 0.0
H900 H 0.77442 0.80901 0.1689 0.0
C901 C 0.75589 0.78241 0.42478 0.0
C902 C 0.77152 0.75049 0.28173 0.0
C903 C 0.75547 0.78189 0.49566 0.0
C904 C 0.78808 0.7608 0.98575 0.0
C905 C 0.78807 0.76031 0.05645 0.0
C906 C 0.7734 0.79257 0.19989 0.0
C907 C 0.77034 0.76899 0.3881 0.0
C908 C 0.77141 0.77026 0.31268 0.0
C909 C 0.77416 0.77406 0.09357 0.0
C910 C 0.77343 0.7728 0.16892 0.0
H911 H 0.79467 0.74331 0.52051 0.0
H912 H 0.79545 0.74432 0.39625 0.0
H913 H 0.77268 0.80681 0.29386 0.0
H914 H 0.74982 0.8004 0.96229 0.0
H915 H 0.74959 0.79932 0.08617 0.0
C916 C 0.53407 0.50658 0.74575 0.0
C917 C 0.51956 0.51993 0.78258 0.0
C918 C 0.5345 0.50715 0.67484 0.0
C919 C 0.54215 0.52378 0.5213 0.0
H920 H 0.48628 0.52104 0.44327 0.0
C921 C 0.50937 0.53733 0.2399 0.0
C922 C 0.52408 0.52396 0.2038 0.0
C923 C 0.5092 0.53749 0.31043 0.0
C924 C 0.502 0.5221 0.46434 0.0
H925 H 0.49393 0.54415 0.77459 0.0
H926 H 0.49478 0.54515 0.65042 0.0
H927 H 0.48486 0.51961 0.5679 0.0
H928 H 0.55051 0.50072 0.21265 0.0
H929 H 0.54992 0.50073 0.33622 0.0
H930 H 0.5593 0.52627 0.41775 0.0
C931 C 0.50566 0.53415 0.67661 0.0
C932 C 0.50118 0.52124 0.53548 0.0
C933 C 0.50525 0.53362 0.74752 0.0
C934 C 0.5389 0.51108 0.23919 0.0
C935 C 0.53869 0.51122 0.30977 0.0
C936 C 0.54298 0.52466 0.45014 0.0
C937 C 0.5204 0.52103 0.6397 0.0
C938 C 0.52125 0.52202 0.56448 0.0
C939 C 0.52371 0.52429 0.34603 0.0
C940 C 0.5229 0.52378 0.42113 0.0
H941 H 0.54525 0.49582 0.77149 0.0
H942 H 0.54579 0.49666 0.64752 0.0
H943 H 0.55786 0.52474 0.54248 0.0
H944 H 0.49784 0.54754 0.2139 0.0
H945 H 0.49772 0.54796 0.33711 0.0
C946 C 0.04447 0.54018 0.70346 0.0
C947 C 0.03228 0.52329 0.67802 0.0
C948 C 0.04314 0.54037 0.77479 0.0
C949 C 0.0263 0.50483 0.94469 0.0
H950 H 1.01654 0.56207 0.01144 0.0
C951 C 1.00138 0.51085 0.23494 0.0
C952 C 1.01373 0.5277 0.26007 0.0
C953 C 1.00263 0.51059 0.16364 0.0
C954 C 0.01939 0.54598 -0.00642 0.0
H955 H 1.00996 0.49283 0.70729 0.0
H956 H 1.00764 0.49324 0.83086 0.0
H957 H 0.023 0.56062 0.88734 0.0
H958 H 0.03626 0.558 0.23038 0.0
H959 H 0.03842 0.55748 0.10689 0.0
H960 H 0.02269 0.4902 0.05096 0.0
C961 C 1.01828 0.50627 0.79614 0.0
C962 C 0.02322 0.54518 0.92251 0.0
C963 C 0.01953 0.50613 0.72516 0.0
C964 C 0.02657 0.54473 0.21271 0.0
C965 C 0.02772 0.54453 0.14179 0.0
C966 C 0.02247 0.50564 0.01577 0.0
C967 C 0.02973 0.5236 0.82182 0.0
C968 C 0.02672 0.52459 0.89727 0.0
C969 C 1.01611 0.52726 0.1164 0.0
C970 C 0.019 0.52623 0.04099 0.0
H971 H 0.05442 0.55363 0.66842 0.0
H972 H 0.05239 0.55378 0.79315 0.0
H973 H 0.02917 0.48874 0.92684 0.0
H974 H 0.99138 0.49749 0.27021 0.0
H975 H 0.99327 0.49721 0.14548 0.0
loop_
_geom_bond_atom_site_label_1
_geom_bond_atom_site_label_2
_geom_bond_distance
_geom_bond_site_symmetry_2
_ccdc_geom_bond_type
Zn0 O1 2.055 . S
Zn0 O8 2.046 1_565 S
Zn0 N16 2.036 . S
Zn0 O28 2.053 . S
Zn0 O30 2.036 1_455 S
O1 Zn0 2.055 . S
O1 C4 1.259 1_565 S
C2 O30 1.294 . S
C2 O31 1.244 . S
Zn3 O5 2.046 . S
Zn3 O7 2.055 1_655 S
Zn3 N9 2.036 . S
Zn3 O27 2.066 . S
Zn3 O31 2.053 1_545 S
C4 O1 1.259 1_545 S
C4 O5 1.254 1_455 S
O5 Zn3 2.046 . S
O5 C4 1.254 1_655 S
C6 O27 1.256 1_455 S
C6 O28 1.244 1_545 S
O7 Zn3 2.055 1_455 S
O7 C29 1.259 . S
O8 Zn0 2.046 1_545 S
O8 C29 1.254 . S
N9 Zn3 2.036 . S
N9 C10 1.298 . S
N9 N12 1.398 . S
C10 N9 1.298 . S
C10 N13 1.367 . S
C10 C23 1.481 . S
C11 N12 1.299 . S
C11 N13 1.379 . S
N12 N9 1.398 . S
N12 C11 1.299 . S
N13 C10 1.367 . S
N13 C11 1.379 . S
C14 N16 1.298 . S
C14 N18 1.367 . S
C14 C22 1.481 . S
C15 N17 1.299 . S
C15 N18 1.379 . S
N16 Zn0 2.036 . S
N16 C14 1.298 . S
N16 N17 1.398 . S
N17 C15 1.299 . S
N17 N16 1.398 . S
N18 C14 1.367 . S
N18 C15 1.379 . S
H19 C22 0.980 . S
H20 C22 0.981 . S
H21 C22 0.981 . S
C22 C14 1.481 . S
C22 H19 0.980 . S
C22 H20 0.981 . S
C22 H21 0.981 . S
C23 C10 1.481 . S
C23 H24 0.980 . S
C23 H25 0.981 . S
C23 H26 0.981 . S
H24 C23 0.980 . S
H25 C23 0.981 . S
H26 C23 0.981 . S
O27 Zn3 2.066 . S
O27 C6 1.256 1_655 S
O28 Zn0 2.053 . S
O28 C6 1.244 1_565 S
C29 O7 1.259 . S
C29 O8 1.254 . S
O30 Zn0 2.036 1_655 S
O30 C2 1.294 . S
O31 C2 1.244 . S
O31 Zn3 2.053 1_565 S
Zn32 O33 2.055 . S
Zn32 O40 2.046 . S
Zn32 N48 2.036 . S
Zn32 O60 2.053 . S
Zn32 O62 2.066 . S
O33 Zn32 2.055 . S
O33 C36 1.259 . S
C34 O62 1.256 . S
C34 O63 1.244 . S
Zn35 O37 2.046 . S
Zn35 O39 2.055 . S
Zn35 N41 2.036 . S
Zn35 O59 2.066 . S
Zn35 O63 2.053 . S
C36 O33 1.259 . S
C36 O37 1.254 . S
O37 Zn35 2.046 . S
O37 C36 1.254 . S
C38 O59 1.256 . S
C38 O60 1.244 . S
O39 Zn35 2.055 . S
O39 C61 1.259 . S
O40 Zn32 2.046 . S
O40 C61 1.254 . S
N41 Zn35 2.036 . S
N41 C42 1.298 . S
N41 N44 1.398 . S
C42 N41 1.298 . S
C42 N45 1.367 . S
C42 C55 1.481 . S
C43 N44 1.299 . S
C43 N45 1.379 . S
N44 N41 1.398 . S
N44 C43 1.299 . S
N45 C42 1.367 . S
N45 C43 1.379 . S
C46 N48 1.298 . S
C46 N50 1.367 . S
C46 C54 1.481 . S
C47 N49 1.299 . S
C47 N50 1.379 . S
N48 Zn32 2.036 . S
N48 C46 1.298 . S
N48 N49 1.398 . S
N49 C47 1.299 . S
N49 N48 1.398 . S
N50 C46 1.367 . S
N50 C47 1.379 . S
H51 C54 0.980 . S
H52 C54 0.981 . S
H53 C54 0.981 . S
C54 C46 1.481 . S
C54 H51 0.980 . S
C54 H52 0.981 . S
C54 H53 0.981 . S
C55 C42 1.481 . S
C55 H56 0.980 . S
C55 H57 0.981 . S
C55 H58 0.981 . S
H56 C55 0.980 . S
H57 C55 0.981 . S
H58 C55 0.981 . S
O59 Zn35 2.066 . S
O59 C38 1.256 . S
O60 Zn32 2.053 . S
O60 C38 1.244 . S
C61 O39 1.259 . S
C61 O40 1.254 . S
O62 Zn32 2.066 . S
O62 C34 1.256 . S
O63 C34 1.244 . S
O63 Zn35 2.053 . S
Zn64 O65 2.055 1_556 S
Zn64 O72 2.046 . S
Zn64 N80 2.036 . S
Zn64 O92 2.053 1_545 S
Zn64 O94 2.066 1_556 S
O65 Zn64 2.055 1_554 S
O65 C68 1.259 . S
C66 O94 1.256 . S
C66 O95 1.244 1_545 S
Zn67 O69 2.044 1_566 S
Zn67 O71 2.055 . S
Zn67 N73 2.036 . S
Zn67 O91 2.066 . S
Zn67 O95 2.053 1_556 S
C68 O65 1.259 . S
C68 O69 1.259 . S
O69 Zn67 2.044 1_544 S
O69 C68 1.259 . S
C70 O91 1.256 . S
C70 O92 1.244 . S
O71 Zn67 2.055 . S
O71 C93 1.259 1_565 S
O72 Zn64 2.046 . S
O72 C93 1.254 . S
N73 Zn67 2.036 . S
N73 C74 1.301 . S
N73 N76 1.394 1_556 S
C74 N73 1.301 . S
C74 N77 1.367 . S
C74 C87 1.481 . S
C75 N76 1.299 . S
C75 N77 1.379 1_554 S
N76 N73 1.394 1_554 S
N76 C75 1.299 . S
N77 C74 1.367 . S
N77 C75 1.379 1_556 S
C78 N80 1.298 1_554 S
C78 N82 1.367 . S
C78 C86 1.481 . S
C79 N81 1.299 . S
C79 N82 1.379 1_556 S
N80 Zn64 2.036 . S
N80 C78 1.298 1_556 S
N80 N81 1.398 . S
N81 C79 1.299 . S
N81 N80 1.398 . S
N82 C78 1.367 . S
N82 C79 1.379 1_554 S
H83 C86 0.980 . S
H84 C86 0.981 . S
H85 C86 0.981 . S
C86 C78 1.481 . S
C86 H83 0.980 . S
C86 H84 0.981 . S
C86 H85 0.981 . S
C87 C74 1.481 . S
C87 H88 0.980 . S
C87 H89 0.981 . S
C87 H90 0.981 . S
H88 C87 0.980 . S
H89 C87 0.981 . S
H90 C87 0.981 . S
O91 Zn67 2.066 . S
O91 C70 1.256 . S
O92 Zn64 2.053 1_565 S
O92 C70 1.244 . S
C93 O71 1.259 1_545 S
C93 O72 1.254 . S
O94 Zn64 2.066 1_554 S
O94 C66 1.256 . S
O95 C66 1.244 1_565 S
O95 Zn67 2.053 1_554 S
Zn96 O97 2.055 . S
Zn96 O104 2.046 . S
Zn96 N112 2.036 . S
Zn96 O124 2.053 . S
Zn96 O126 2.066 . S
O97 Zn96 2.055 . S
O97 C100 1.259 . S
C98 O126 1.256 . S
C98 O127 1.244 . S
Zn99 O101 2.046 . S
Zn99 O103 2.055 . S
Zn99 N105 2.036 . S
Zn99 O123 2.066 . S
Zn99 O127 2.053 . S
C100 O97 1.259 . S
C100 O101 1.254 . S
O101 Zn99 2.046 . S
O101 C100 1.254 . S
C102 O123 1.256 . S
C102 O124 1.244 . S
O103 Zn99 2.055 . S
O103 C125 1.259 . S
O104 Zn96 2.046 . S
O104 C125 1.254 . S
N105 Zn99 2.036 . S
N105 C106 1.298 . S
N105 N108 1.398 . S
C106 N105 1.298 . S
C106 N109 1.367 . S
C106 C119 1.481 . S
C107 N108 1.299 . S
C107 N109 1.379 . S
N108 N105 1.398 . S
N108 C107 1.299 . S
N109 C106 1.367 . S
N109 C107 1.379 . S
C110 N112 1.298 . S
C110 N114 1.367 . S
C110 C118 1.481 . S
C111 N113 1.299 . S
C111 N114 1.379 . S
N112 Zn96 2.036 . S
N112 C110 1.298 . S
N112 N113 1.398 . S
N113 C111 1.299 . S
N113 N112 1.398 . S
N114 C110 1.367 . S
N114 C111 1.379 . S
H115 C118 0.980 . S
H116 C118 0.981 . S
H117 C118 0.981 . S
C118 C110 1.481 . S
C118 H115 0.980 . S
C118 H116 0.981 . S
C118 H117 0.981 . S
C119 C106 1.481 . S
C119 H120 0.980 . S
C119 H121 0.981 . S
C119 H122 0.981 . S
H120 C119 0.980 . S
H121 C119 0.981 . S
H122 C119 0.981 . S
O123 Zn99 2.066 . S
O123 C102 1.256 . S
O124 Zn96 2.053 . S
O124 C102 1.244 . S
C125 O103 1.259 . S
C125 O104 1.254 . S
O126 Zn96 2.066 . S
O126 C98 1.256 . S
O127 C98 1.244 . S
O127 Zn99 2.053 . S
Zn128 O129 2.055 . S
Zn128 O136 2.046 . S
Zn128 N144 2.036 . S
Zn128 O156 2.053 . S
Zn128 O158 2.066 . S
O129 Zn128 2.055 . S
O129 C132 1.259 . S
C130 O158 1.256 . S
C130 O159 1.244 . S
Zn131 O133 2.046 . S
Zn131 O135 2.055 . S
Zn131 N137 2.036 . S
Zn131 O155 2.066 . S
Zn131 O159 2.053 . S
C132 O129 1.259 . S
C132 O133 1.254 . S
O133 Zn131 2.046 . S
O133 C132 1.254 . S
C134 O155 1.256 . S
C134 O156 1.244 . S
O135 Zn131 2.055 . S
O135 C157 1.259 . S
O136 Zn128 2.046 . S
O136 C157 1.254 . S
N137 Zn131 2.036 . S
N137 C138 1.298 . S
N137 N140 1.398 . S
C138 N137 1.298 . S
C138 N141 1.367 . S
C138 C151 1.481 . S
C139 N140 1.299 . S
C139 N141 1.379 . S
N140 N137 1.398 . S
N140 C139 1.299 . S
N141 C138 1.367 . S
N141 C139 1.379 . S
C142 N144 1.298 . S
C142 N146 1.367 . S
C142 C150 1.481 . S
C143 N145 1.299 . S
C143 N146 1.379 . S
N144 Zn128 2.036 . S
N144 C142 1.298 . S
N144 N145 1.398 . S
N145 C143 1.299 . S
N145 N144 1.398 . S
N146 C142 1.367 . S
N146 C143 1.379 . S
H147 C150 0.980 . S
H148 C150 0.981 . S
H149 C150 0.981 . S
C150 C142 1.481 . S
C150 H147 0.980 . S
C150 H148 0.981 . S
C150 H149 0.981 . S
C151 C138 1.481 . S
C151 H152 0.980 . S
C151 H153 0.981 . S
C151 H154 0.981 . S
H152 C151 0.980 . S
H153 C151 0.981 . S
H154 C151 0.981 . S
O155 Zn131 2.066 . S
O155 C134 1.256 . S
O156 Zn128 2.053 . S
O156 C134 1.244 . S
C157 O135 1.259 . S
C157 O136 1.254 . S
O158 Zn128 2.066 . S
O158 C130 1.256 . S
O159 C130 1.244 . S
O159 Zn131 2.053 . S
Zn160 O161 2.055 . S
Zn160 O168 2.046 . S
Zn160 N176 2.036 . S
Zn160 O188 2.053 . S
Zn160 O190 2.066 . S
O161 Zn160 2.055 . S
O161 C164 1.259 . S
C162 O190 1.256 . S
C162 O191 1.244 . S
Zn163 O165 2.046 . S
Zn163 O167 2.055 . S
Zn163 N169 2.036 . S
Zn163 O187 2.066 . S
Zn163 O191 2.053 . S
C164 O161 1.259 . S
C164 O165 1.254 . S
O165 Zn163 2.046 . S
O165 C164 1.254 . S
C166 O187 1.256 . S
C166 O188 1.244 . S
O167 Zn163 2.055 . S
O167 C189 1.259 . S
O168 Zn160 2.046 . S
O168 C189 1.254 . S
N169 Zn163 2.036 . S
N169 C170 1.298 . S
N169 N172 1.398 . S
C170 N169 1.298 . S
C170 N173 1.367 . S
C170 C183 1.481 . S
C171 N172 1.299 . S
C171 N173 1.379 . S
N172 N169 1.398 . S
N172 C171 1.299 . S
N173 C170 1.367 . S
N173 C171 1.379 . S
C174 N176 1.298 . S
C174 N178 1.367 . S
C174 C182 1.481 . S
C175 N177 1.299 . S
C175 N178 1.379 . S
N176 Zn160 2.036 . S
N176 C174 1.298 . S
N176 N177 1.398 . S
N177 C175 1.299 . S
N177 N176 1.398 . S
N178 C174 1.367 . S
N178 C175 1.379 . S
H179 C182 0.980 . S
H180 C182 0.981 . S
H181 C182 0.981 . S
C182 C174 1.481 . S
C182 H179 0.980 . S
C182 H180 0.981 . S
C182 H181 0.981 . S
C183 C170 1.481 . S
C183 H184 0.980 . S
C183 H185 0.981 . S
C183 H186 0.981 . S
H184 C183 0.980 . S
H185 C183 0.981 . S
H186 C183 0.981 . S
O187 Zn163 2.066 . S
O187 C166 1.256 . S
O188 Zn160 2.053 . S
O188 C166 1.244 . S
C189 O167 1.259 . S
C189 O168 1.254 . S
O190 Zn160 2.066 . S
O190 C162 1.256 . S
O191 C162 1.244 . S
O191 Zn163 2.053 . S
Zn192 O193 2.055 . S
Zn192 O200 2.046 . S
Zn192 N208 2.036 . S
Zn192 O220 2.053 1_554 S
Zn192 O222 2.066 . S
O193 Zn192 2.055 . S
O193 C196 1.259 . S
C194 O222 1.256 . S
C194 O223 1.244 . S
Zn195 O197 2.046 . S
Zn195 O199 2.055 1_554 S
Zn195 N201 2.036 . S
Zn195 O219 2.066 1_554 S
Zn195 O223 2.053 . S
C196 O193 1.259 . S
C196 O197 1.254 . S
O197 Zn195 2.046 . S
O197 C196 1.254 . S
C198 O219 1.256 . S
C198 O220 1.244 . S
O199 Zn195 2.055 1_556 S
O199 C221 1.259 . S
O200 Zn192 2.046 . S
O200 C221 1.254 1_554 S
N201 Zn195 2.036 . S
N201 C202 1.298 1_554 S
N201 N204 1.398 . S
C202 N201 1.298 1_556 S
C202 N205 1.367 . S
C202 C215 1.481 . S
C203 N204 1.299 . S
C203 N205 1.379 1_554 S
N204 N201 1.398 . S
N204 C203 1.299 . S
N205 C202 1.367 . S
N205 C203 1.379 1_556 S
C206 N208 1.298 . S
C206 N210 1.367 . S
C206 C214 1.481 . S
C207 N209 1.299 . S
C207 N210 1.379 1_556 S
N208 Zn192 2.036 . S
N208 C206 1.298 . S
N208 N209 1.398 1_554 S
N209 C207 1.299 . S
N209 N208 1.398 1_556 S
N210 C206 1.367 . S
N210 C207 1.379 1_554 S
H211 C214 0.980 . S
H212 C214 0.981 . S
H213 C214 0.981 . S
C214 C206 1.481 . S
C214 H211 0.980 . S
C214 H212 0.981 . S
C214 H213 0.981 . S
C215 C202 1.481 . S
C215 H216 0.980 . S
C215 H217 0.981 . S
C215 H218 0.981 . S
H216 C215 0.980 . S
H217 C215 0.981 . S
H218 C215 0.981 . S
O219 Zn195 2.066 1_556 S
O219 C198 1.256 . S
O220 Zn192 2.053 1_556 S
O220 C198 1.244 . S
C221 O199 1.259 . S
C221 O200 1.254 1_556 S
O222 Zn192 2.066 . S
O222 C194 1.256 . S
O223 C194 1.244 . S
O223 Zn195 2.053 . S
Zn224 O225 2.055 . S
Zn224 O232 2.046 . S
Zn224 N240 2.036 . S
Zn224 O252 2.053 . S
Zn224 O254 2.066 1_655 S
O225 Zn224 2.055 . S
O225 C228 1.259 1_655 S
C226 O254 1.256 . S
C226 O255 1.244 . S
Zn227 O229 2.046 . S
Zn227 O231 2.055 1_455 S
Zn227 N233 2.036 . S
Zn227 O251 2.066 . S
Zn227 O255 2.053 . S
C228 O225 1.259 1_455 S
C228 O229 1.254 . S
O229 Zn227 2.046 . S
O229 C228 1.254 . S
C230 O251 1.256 . S
C230 O252 1.244 1_455 S
O231 Zn227 2.055 1_655 S
O231 C253 1.259 . S
O232 Zn224 2.046 . S
O232 C253 1.254 . S
N233 Zn227 2.036 . S
N233 C234 1.298 . S
N233 N236 1.398 . S
C234 N233 1.298 . S
C234 N237 1.367 . S
C234 C247 1.481 . S
C235 N236 1.299 . S
C235 N237 1.379 . S
N236 N233 1.398 . S
N236 C235 1.299 . S
N237 C234 1.367 . S
N237 C235 1.379 . S
C238 N240 1.298 . S
C238 N242 1.367 . S
C238 C246 1.481 . S
C239 N241 1.299 . S
C239 N242 1.379 . S
N240 Zn224 2.036 . S
N240 C238 1.298 . S
N240 N241 1.398 . S
N241 C239 1.299 . S
N241 N240 1.398 . S
N242 C238 1.367 . S
N242 C239 1.379 . S
H243 C246 0.980 . S
H244 C246 0.981 . S
H245 C246 0.981 . S
C246 C238 1.481 . S
C246 H243 0.980 . S
C246 H244 0.981 . S
C246 H245 0.981 . S
C247 C234 1.481 . S
C247 H248 0.980 . S
C247 H249 0.981 . S
C247 H250 0.981 . S
H248 C247 0.980 . S
H249 C247 0.981 . S
H250 C247 0.981 . S
O251 Zn227 2.066 . S
O251 C230 1.256 . S
O252 Zn224 2.053 . S
O252 C230 1.244 1_655 S
C253 O231 1.259 . S
C253 O232 1.254 . S
O254 Zn224 2.066 1_455 S
O254 C226 1.256 . S
O255 C226 1.244 . S
O255 Zn227 2.053 . S
C256 C257 1.349 . S
C256 C258 1.327 . S
C256 H281 0.950 . S
C257 C256 1.349 . S
C257 C273 1.349 . S
C258 C256 1.327 . S
C258 C277 1.429 . S
C258 H282 0.950 . S
C259 C276 1.574 . S
C259 C278 1.368 . S
C259 H283 0.949 . S
H260 C264 0.949 . S
C261 C262 1.349 . S
C261 C263 1.327 . S
C261 H284 0.950 . S
C262 C261 1.349 . S
C262 C274 1.349 . S
C263 C261 1.327 . S
C263 C279 1.429 . S
C263 H285 0.950 . S
C264 H260 0.949 . S
C264 C272 1.574 . S
C264 C280 1.368 . S
H265 C273 0.950 . S
H266 C271 0.950 . S
H267 C272 0.949 . S
H268 C274 0.950 . S
H269 C275 0.950 . S
H270 C276 0.949 . S
C271 H266 0.950 . S
C271 C273 1.327 . S
C271 C277 1.429 . S
C272 C264 1.574 . S
C272 H267 0.949 . S
C272 C278 1.368 . S
C273 C257 1.349 . S
C273 H265 0.950 . S
C273 C271 1.327 . S
C274 C262 1.349 . S
C274 H268 0.950 . S
C274 C275 1.327 . S
C275 H269 0.950 . S
C275 C274 1.327 . S
C275 C279 1.429 . S
C276 C259 1.574 . S
C276 H270 0.949 . S
C276 C280 1.368 . S
C277 C258 1.429 . S
C277 C271 1.429 . S
C277 C278 1.523 . S
C278 C259 1.368 . S
C278 C272 1.368 . S
C278 C277 1.523 . S
C279 C263 1.429 . S
C279 C275 1.429 . S
C279 C280 1.523 . S
C280 C264 1.368 . S
C280 C276 1.368 . S
C280 C279 1.523 . S
H281 C256 0.950 . S
H282 C258 0.950 . S
H283 C259 0.949 . S
H284 C261 0.950 . S
H285 C263 0.950 . S
C286 C287 1.349 . S
C286 C288 1.327 . S
C286 H311 0.950 . S
C287 C286 1.349 . S
C287 C303 1.349 . S
C288 C286 1.327 . S
C288 C307 1.429 . S
C288 H312 0.950 . S
C289 C306 1.574 . S
C289 C308 1.368 . S
C289 H313 0.949 . S
H290 C294 0.949 . S
C291 C292 1.349 . S
C291 C293 1.327 . S
C291 H314 0.950 . S
C292 C291 1.349 . S
C292 C304 1.349 . S
C293 C291 1.327 . S
C293 C309 1.429 . S
C293 H315 0.950 . S
C294 H290 0.949 . S
C294 C302 1.574 . S
C294 C310 1.368 . S
H295 C303 0.950 . S
H296 C301 0.950 . S
H297 C302 0.949 . S
H298 C304 0.950 . S
H299 C305 0.950 . S
H300 C306 0.949 . S
C301 H296 0.950 . S
C301 C303 1.327 . S
C301 C307 1.429 . S
C302 C294 1.574 . S
C302 H297 0.949 . S
C302 C308 1.368 . S
C303 C287 1.349 . S
C303 H295 0.950 . S
C303 C301 1.327 . S
C304 C292 1.349 . S
C304 H298 0.950 . S
C304 C305 1.327 . S
C305 H299 0.950 . S
C305 C304 1.327 . S
C305 C309 1.429 . S
C306 C289 1.574 . S
C306 H300 0.949 . S
C306 C310 1.368 . S
C307 C288 1.429 . S
C307 C301 1.429 . S
C307 C308 1.523 . S
C308 C289 1.368 . S
C308 C302 1.368 . S
C308 C307 1.523 . S
C309 C293 1.429 . S
C309 C305 1.429 . S
C309 C310 1.523 . S
C310 C294 1.368 . S
C310 C306 1.368 . S
C310 C309 1.523 . S
H311 C286 0.950 . S
H312 C288 0.950 . S
H313 C289 0.949 . S
H314 C291 0.950 . S
H315 C293 0.950 . S
C316 C317 1.349 . S
C316 C318 1.327 . S
C316 H341 0.950 . S
C317 C316 1.349 . S
C317 C333 1.349 . S
C318 C316 1.327 . S
C318 C337 1.429 . S
C318 H342 0.950 . S
C319 C336 1.574 . S
C319 C338 1.368 . S
C319 H343 0.949 . S
H320 C324 0.949 . S
C321 C322 1.349 . S
C321 C323 1.327 . S
C321 H344 0.950 . S
C322 C321 1.349 . S
C322 C334 1.349 . S
C323 C321 1.327 . S
C323 C339 1.429 . S
C323 H345 0.950 . S
C324 H320 0.949 . S
C324 C332 1.574 . S
C324 C340 1.368 . S
H325 C333 0.950 . S
H326 C331 0.950 . S
H327 C332 0.949 . S
H328 C334 0.950 . S
H329 C335 0.950 . S
H330 C336 0.949 . S
C331 H326 0.950 . S
C331 C333 1.327 . S
C331 C337 1.429 . S
C332 C324 1.574 . S
C332 H327 0.949 . S
C332 C338 1.368 . S
C333 C317 1.349 . S
C333 H325 0.950 . S
C333 C331 1.327 . S
C334 C322 1.349 . S
C334 H328 0.950 . S
C334 C335 1.327 . S
C335 H329 0.950 . S
C335 C334 1.327 . S
C335 C339 1.429 . S
C336 C319 1.574 . S
C336 H330 0.949 . S
C336 C340 1.368 . S
C337 C318 1.429 . S
C337 C331 1.429 . S
C337 C338 1.523 . S
C338 C319 1.368 . S
C338 C332 1.368 . S
C338 C337 1.523 . S
C339 C323 1.429 . S
C339 C335 1.429 . S
C339 C340 1.523 . S
C340 C324 1.368 . S
C340 C336 1.368 . S
C340 C339 1.523 . S
H341 C316 0.950 . S
H342 C318 0.950 . S
H343 C319 0.949 . S
H344 C321 0.950 . S
H345 C323 0.950 . S
C346 C347 1.349 . S
C346 C348 1.327 . S
C346 H371 0.950 . S
C347 C346 1.349 . S
C347 C363 1.349 . S
C348 C346 1.327 . S
C348 C367 1.429 . S
C348 H372 0.950 . S
C349 C366 1.574 . S
C349 C368 1.368 . S
C349 H373 0.949 . S
H350 C354 0.949 . S
C351 C352 1.349 . S
C351 C353 1.327 . S
C351 H374 0.950 . S
C352 C351 1.349 . S
C352 C364 1.349 . S
C353 C351 1.327 . S
C353 C369 1.429 . S
C353 H375 0.950 . S
C354 H350 0.949 . S
C354 C362 1.574 . S
C354 C370 1.368 . S
H355 C363 0.950 1_556 S
H356 C361 0.950 . S
H357 C362 0.949 . S
H358 C364 0.950 . S
H359 C365 0.950 . S
H360 C366 0.949 . S
C361 H356 0.950 . S
C361 C363 1.327 . S
C361 C367 1.429 . S
C362 C354 1.574 . S
C362 H357 0.949 . S
C362 C368 1.368 . S
C363 C347 1.349 . S
C363 H355 0.950 1_554 S
C363 C361 1.327 . S
C364 C352 1.349 . S
C364 H358 0.950 . S
C364 C365 1.327 . S
C365 H359 0.950 . S
C365 C364 1.327 . S
C365 C369 1.429 . S
C366 C349 1.574 . S
C366 H360 0.949 . S
C366 C370 1.368 . S
C367 C348 1.429 . S
C367 C361 1.429 . S
C367 C368 1.523 . S
C368 C349 1.368 . S
C368 C362 1.368 . S
C368 C367 1.523 . S
C369 C353 1.429 . S
C369 C365 1.429 . S
C369 C370 1.523 . S
C370 C354 1.368 . S
C370 C366 1.368 . S
C370 C369 1.523 . S
H371 C346 0.950 . S
H372 C348 0.950 . S
H373 C349 0.949 . S
H374 C351 0.950 . S
H375 C353 0.950 . S
C376 C377 1.349 . S
C376 C378 1.327 . S
C376 H401 0.950 . S
C377 C376 1.349 . S
C377 C393 1.349 . S
C378 C376 1.327 . S
C378 C397 1.429 . S
C378 H402 0.950 . S
C379 C396 1.574 . S
C379 C398 1.368 . S
C379 H403 0.949 . S
H380 C384 0.949 . S
C381 C382 1.349 . S
C381 C383 1.327 . S
C381 H404 0.950 . S
C382 C381 1.349 . S
C382 C394 1.349 . S
C383 C381 1.327 . S
C383 C399 1.429 . S
C383 H405 0.950 . S
C384 H380 0.949 . S
C384 C392 1.574 . S
C384 C400 1.368 . S
H385 C393 0.950 . S
H386 C391 0.950 . S
H387 C392 0.949 . S
H388 C394 0.950 . S
H389 C395 0.950 . S
H390 C396 0.949 . S
C391 H386 0.950 . S
C391 C393 1.327 . S
C391 C397 1.429 . S
C392 C384 1.574 . S
C392 H387 0.949 . S
C392 C398 1.368 . S
C393 C377 1.349 . S
C393 H385 0.950 . S
C393 C391 1.327 . S
C394 C382 1.349 . S
C394 H388 0.950 . S
C394 C395 1.327 . S
C395 H389 0.950 . S
C395 C394 1.327 . S
C395 C399 1.429 . S
C396 C379 1.574 . S
C396 H390 0.949 . S
C396 C400 1.368 . S
C397 C378 1.429 . S
C397 C391 1.429 . S
C397 C398 1.523 . S
C398 C379 1.368 . S
C398 C392 1.368 . S
C398 C397 1.523 . S
C399 C383 1.429 . S
C399 C395 1.429 . S
C399 C400 1.523 . S
C400 C384 1.368 . S
C400 C396 1.368 . S
C400 C399 1.523 . S
H401 C376 0.950 . S
H402 C378 0.950 . S
H403 C379 0.949 . S
H404 C381 0.950 . S
H405 C383 0.950 . S
C406 C407 1.349 . S
C406 C408 1.327 . S
C406 H431 0.950 . S
C407 C406 1.349 . S
C407 C423 1.349 . S
C408 C406 1.327 . S
C408 C427 1.429 . S
C408 H432 0.950 . S
C409 C426 1.574 . S
C409 C428 1.368 . S
C409 H433 0.949 . S
H410 C414 0.949 . S
C411 C412 1.349 . S
C411 C413 1.327 . S
C411 H434 0.950 . S
C412 C411 1.349 . S
C412 C424 1.349 . S
C413 C411 1.327 . S
C413 C429 1.429 . S
C413 H435 0.950 . S
C414 H410 0.949 . S
C414 C422 1.574 . S
C414 C430 1.368 . S
H415 C423 0.950 . S
H416 C421 0.950 . S
H417 C422 0.949 . S
H418 C424 0.950 . S
H419 C425 0.950 . S
H420 C426 0.949 . S
C421 H416 0.950 . S
C421 C423 1.327 . S
C421 C427 1.429 . S
C422 C414 1.574 . S
C422 H417 0.949 . S
C422 C428 1.368 . S
C423 C407 1.349 . S
C423 H415 0.950 . S
C423 C421 1.327 . S
C424 C412 1.349 . S
C424 H418 0.950 . S
C424 C425 1.327 . S
C425 H419 0.950 . S
C425 C424 1.327 . S
C425 C429 1.429 . S
C426 C409 1.574 . S
C426 H420 0.949 . S
C426 C430 1.368 . S
C427 C408 1.429 . S
C427 C421 1.429 . S
C427 C428 1.523 . S
C428 C409 1.368 . S
C428 C422 1.368 . S
C428 C427 1.523 . S
C429 C413 1.429 . S
C429 C425 1.429 . S
C429 C430 1.523 . S
C430 C414 1.368 . S
C430 C426 1.368 . S
C430 C429 1.523 . S
H431 C406 0.950 . S
H432 C408 0.950 . S
H433 C409 0.949 . S
H434 C411 0.950 . S
H435 C413 0.950 . S
C436 C437 1.349 . S
C436 C438 1.327 . S
C436 H461 0.950 . S
C437 C436 1.349 . S
C437 C453 1.349 . S
C438 C436 1.327 . S
C438 C457 1.429 . S
C438 H462 0.950 . S
C439 C456 1.574 . S
C439 C458 1.368 . S
C439 H463 0.949 . S
H440 C444 0.949 . S
C441 C442 1.349 . S
C441 C443 1.327 . S
C441 H464 0.950 . S
C442 C441 1.349 . S
C442 C454 1.349 1_554 S
C443 C441 1.327 . S
C443 C459 1.429 . S
C443 H465 0.950 . S
C444 H440 0.949 . S
C444 C452 1.574 . S
C444 C460 1.368 . S
H445 C453 0.950 . S
H446 C451 0.950 . S
H447 C452 0.949 . S
H448 C454 0.950 . S
H449 C455 0.950 1_556 S
H450 C456 0.949 . S
C451 H446 0.950 . S
C451 C453 1.327 . S
C451 C457 1.429 . S
C452 C444 1.574 . S
C452 H447 0.949 . S
C452 C458 1.368 . S
C453 C437 1.349 . S
C453 H445 0.950 . S
C453 C451 1.327 . S
C454 C442 1.349 1_556 S
C454 H448 0.950 . S
C454 C455 1.327 1_556 S
C455 H449 0.950 1_554 S
C455 C454 1.327 1_554 S
C455 C459 1.429 . S
C456 C439 1.574 . S
C456 H450 0.949 . S
C456 C460 1.368 . S
C457 C438 1.429 . S
C457 C451 1.429 . S
C457 C458 1.523 . S
C458 C439 1.368 . S
C458 C452 1.368 . S
C458 C457 1.523 . S
C459 C443 1.429 . S
C459 C455 1.429 . S
C459 C460 1.523 . S
C460 C444 1.368 . S
C460 C456 1.368 . S
C460 C459 1.523 . S
H461 C436 0.950 . S
H462 C438 0.950 . S
H463 C439 0.949 . S
H464 C441 0.950 . S
H465 C443 0.950 . S
C466 C467 1.349 . S
C466 C468 1.327 . S
C466 H491 0.950 . S
C467 C466 1.349 . S
C467 C483 1.349 . S
C468 C466 1.327 . S
C468 C487 1.429 . S
C468 H492 0.950 . S
C469 C486 1.574 . S
C469 C488 1.368 . S
C469 H493 0.949 . S
H470 C474 0.949 1_554 S
C471 C472 1.349 . S
C471 C473 1.327 . S
C471 H494 0.950 . S
C472 C471 1.349 . S
C472 C484 1.349 1_556 S
C473 C471 1.327 . S
C473 C489 1.429 . S
C473 H495 0.950 . S
C474 H470 0.949 1_556 S
C474 C482 1.574 . S
C474 C490 1.368 . S
H475 C483 0.950 . S
H476 C481 0.950 . S
H477 C482 0.949 . S
H478 C484 0.950 . S
H479 C485 0.950 1_554 S
H480 C486 0.949 . S
C481 H476 0.950 . S
C481 C483 1.327 . S
C481 C487 1.429 . S
C482 C474 1.574 . S
C482 H477 0.949 . S
C482 C488 1.368 . S
C483 C467 1.349 . S
C483 H475 0.950 . S
C483 C481 1.327 . S
C484 C472 1.349 1_554 S
C484 H478 0.950 . S
C484 C485 1.327 1_554 S
C485 H479 0.950 1_556 S
C485 C484 1.327 1_556 S
C485 C489 1.429 . S
C486 C469 1.574 . S
C486 H480 0.949 . S
C486 C490 1.368 . S
C487 C468 1.429 . S
C487 C481 1.429 . S
C487 C488 1.523 . S
C488 C469 1.368 . S
C488 C482 1.368 . S
C488 C487 1.523 . S
C489 C473 1.429 . S
C489 C485 1.429 . S
C489 C490 1.523 . S
C490 C474 1.368 . S
C490 C486 1.368 . S
C490 C489 1.523 . S
H491 C466 0.950 . S
H492 C468 0.950 . S
H493 C469 0.949 . S
H494 C471 0.950 . S
H495 C473 0.950 . S
C496 C497 1.349 . S
C496 C498 1.327 . S
C496 H521 0.950 . S
C497 C496 1.349 . S
C497 C513 1.349 . S
C498 C496 1.327 . S
C498 C517 1.429 . S
C498 H522 0.950 . S
C499 C516 1.574 . S
C499 C518 1.368 . S
C499 H523 0.963 . S
H500 C504 0.949 . S
C501 C502 1.349 . S
C501 C503 1.327 . S
C501 H524 0.950 . S
C502 C501 1.349 . S
C502 C514 1.349 . S
C503 C501 1.327 . S
C503 C519 1.429 . S
C503 H525 0.950 . S
C504 H500 0.949 . S
C504 C512 1.574 . S
C504 C520 1.368 . S
H505 C513 0.950 1_554 S
H506 C511 0.950 1_554 S
H507 C512 0.949 . S
H508 C514 0.950 . S
H509 C515 0.950 . S
H510 C516 0.949 . S
C511 H506 0.950 1_556 S
C511 C513 1.327 . S
C511 C517 1.429 . S
C512 C504 1.574 . S
C512 H507 0.949 . S
C512 C518 1.368 . S
C513 C497 1.349 . S
C513 H505 0.950 1_556 S
C513 C511 1.327 . S
C514 C502 1.349 . S
C514 H508 0.950 . S
C514 C515 1.327 . S
C515 H509 0.950 . S
C515 C514 1.327 . S
C515 C519 1.429 . S
C516 C499 1.574 . S
C516 H510 0.949 . S
C516 C520 1.368 . S
C517 C498 1.429 . S
C517 C511 1.429 . S
C517 C518 1.523 . S
C518 C499 1.368 . S
C518 C512 1.368 . S
C518 C517 1.523 . S
C519 C503 1.429 . S
C519 C515 1.429 . S
C519 C520 1.523 . S
C520 C504 1.368 . S
C520 C516 1.368 . S
C520 C519 1.523 . S
H521 C496 0.950 . S
H522 C498 0.950 . S
H523 C499 0.963 . S
H524 C501 0.950 . S
H525 C503 0.950 . S
C526 C527 1.349 . S
C526 C528 1.327 . S
C526 H551 0.950 . S
C527 C526 1.349 . S
C527 C543 1.349 . S
C528 C526 1.327 . S
C528 C547 1.429 . S
C528 H552 0.950 . S
C529 C546 1.574 . S
C529 C548 1.368 . S
C529 H553 0.949 . S
H530 C534 0.949 . S
C531 C532 1.349 . S
C531 C533 1.327 . S
C531 H554 0.950 . S
C532 C531 1.349 . S
C532 C544 1.349 . S
C533 C531 1.327 . S
C533 C549 1.429 . S
C533 H555 0.950 . S
C534 H530 0.949 . S
C534 C542 1.574 . S
C534 C550 1.368 . S
H535 C543 0.950 . S
H536 C541 0.950 . S
H537 C542 0.949 . S
H538 C544 0.950 . S
H539 C545 0.950 . S
H540 C546 0.949 . S
C541 H536 0.950 . S
C541 C543 1.327 . S
C541 C547 1.429 . S
C542 C534 1.574 . S
C542 H537 0.949 . S
C542 C548 1.368 . S
C543 C527 1.349 . S
C543 H535 0.950 . S
C543 C541 1.327 . S
C544 C532 1.349 . S
C544 H538 0.950 . S
C544 C545 1.327 . S
C545 H539 0.950 . S
C545 C544 1.327 . S
C545 C549 1.429 . S
C546 C529 1.574 . S
C546 H540 0.949 . S
C546 C550 1.368 . S
C547 C528 1.429 . S
C547 C541 1.429 . S
C547 C548 1.523 . S
C548 C529 1.368 . S
C548 C542 1.368 . S
C548 C547 1.523 . S
C549 C533 1.429 . S
C549 C545 1.429 . S
C549 C550 1.523 . S
C550 C534 1.368 . S
C550 C546 1.368 . S
C550 C549 1.523 . S
H551 C526 0.950 . S
H552 C528 0.950 . S
H553 C529 0.949 . S
H554 C531 0.950 . S
H555 C533 0.950 . S
C556 C557 1.349 . S
C556 C558 1.327 . S
C556 H581 0.950 . S
C557 C556 1.349 . S
C557 C573 1.349 . S
C558 C556 1.327 . S
C558 C577 1.429 . S
C558 H582 0.950 . S
C559 C576 1.574 . S
C559 C578 1.368 . S
C559 H583 0.949 . S
H560 C564 0.949 . S
C561 C562 1.349 . S
C561 C563 1.327 . S
C561 H584 0.950 . S
C562 C561 1.349 . S
C562 C574 1.349 . S
C563 C561 1.327 . S
C563 C579 1.429 . S
C563 H585 0.950 . S
C564 H560 0.949 . S
C564 C572 1.574 . S
C564 C580 1.368 . S
H565 C573 0.950 . S
H566 C571 0.950 . S
H567 C572 0.949 . S
H568 C574 0.950 . S
H569 C575 0.950 . S
H570 C576 0.949 . S
C571 H566 0.950 . S
C571 C573 1.327 . S
C571 C577 1.429 . S
C572 C564 1.574 . S
C572 H567 0.949 . S
C572 C578 1.368 . S
C573 C557 1.349 . S
C573 H565 0.950 . S
C573 C571 1.327 . S
C574 C562 1.349 . S
C574 H568 0.950 . S
C574 C575 1.327 . S
C575 H569 0.950 . S
C575 C574 1.327 . S
C575 C579 1.429 . S
C576 C559 1.574 . S
C576 H570 0.949 . S
C576 C580 1.368 . S
C577 C558 1.429 . S
C577 C571 1.429 . S
C577 C578 1.523 . S
C578 C559 1.368 . S
C578 C572 1.368 . S
C578 C577 1.523 . S
C579 C563 1.429 . S
C579 C575 1.429 . S
C579 C580 1.523 . S
C580 C564 1.368 . S
C580 C576 1.368 . S
C580 C579 1.523 . S
H581 C556 0.950 . S
H582 C558 0.950 . S
H583 C559 0.949 . S
H584 C561 0.950 . S
H585 C563 0.950 . S
C586 C587 1.349 . S
C586 C588 1.327 . S
C586 H611 0.950 . S
C587 C586 1.349 . S
C587 C603 1.349 . S
C588 C586 1.327 . S
C588 C607 1.429 . S
C588 H612 0.950 . S
C589 C606 1.574 . S
C589 C608 1.368 . S
C589 H613 0.949 . S
H590 C594 0.949 . S
C591 C592 1.349 . S
C591 C593 1.327 . S
C591 H614 0.950 . S
C592 C591 1.349 . S
C592 C604 1.349 . S
C593 C591 1.327 . S
C593 C609 1.429 . S
C593 H615 0.950 . S
C594 H590 0.949 . S
C594 C602 1.574 . S
C594 C610 1.368 . S
H595 C603 0.950 . S
H596 C601 0.950 . S
H597 C602 0.949 . S
H598 C604 0.950 . S
H599 C605 0.950 . S
H600 C606 0.949 . S
C601 H596 0.950 . S
C601 C603 1.327 . S
C601 C607 1.429 . S
C602 C594 1.574 . S
C602 H597 0.949 . S
C602 C608 1.368 . S
C603 C587 1.349 . S
C603 H595 0.950 . S
C603 C601 1.327 . S
C604 C592 1.349 . S
C604 H598 0.950 . S
C604 C605 1.327 . S
C605 H599 0.950 . S
C605 C604 1.327 . S
C605 C609 1.429 . S
C606 C589 1.574 . S
C606 H600 0.949 . S
C606 C610 1.368 . S
C607 C588 1.429 . S
C607 C601 1.429 . S
C607 C608 1.523 . S
C608 C589 1.368 . S
C608 C602 1.368 . S
C608 C607 1.523 . S
C609 C593 1.429 . S
C609 C605 1.429 . S
C609 C610 1.523 . S
C610 C594 1.368 . S
C610 C606 1.368 . S
C610 C609 1.523 . S
H611 C586 0.950 . S
H612 C588 0.950 . S
H613 C589 0.949 . S
H614 C591 0.950 . S
H615 C593 0.950 . S
C616 C617 1.349 . S
C616 C618 1.327 . S
C616 H641 0.950 . S
C617 C616 1.349 . S
C617 C633 1.349 . S
C618 C616 1.327 . S
C618 C637 1.429 . S
C618 H642 0.950 . S
C619 C636 1.574 . S
C619 C638 1.368 . S
C619 H643 0.949 . S
H620 C624 0.949 . S
C621 C622 1.349 . S
C621 C623 1.327 . S
C621 H644 0.950 . S
C622 C621 1.349 . S
C622 C634 1.349 . S
C623 C621 1.327 . S
C623 C639 1.429 . S
C623 H645 0.950 . S
C624 H620 0.949 . S
C624 C632 1.574 . S
C624 C640 1.368 . S
H625 C633 0.950 . S
H626 C631 0.950 . S
H627 C632 0.949 . S
H628 C634 0.950 . S
H629 C635 0.950 . S
H630 C636 0.949 . S
C631 H626 0.950 . S
C631 C633 1.327 . S
C631 C637 1.429 . S
C632 C624 1.574 . S
C632 H627 0.949 . S
C632 C638 1.368 . S
C633 C617 1.349 . S
C633 H625 0.950 . S
C633 C631 1.327 . S
C634 C622 1.349 . S
C634 H628 0.950 . S
C634 C635 1.327 . S
C635 H629 0.950 . S
C635 C634 1.327 . S
C635 C639 1.429 . S
C636 C619 1.574 . S
C636 H630 0.949 . S
C636 C640 1.368 . S
C637 C618 1.429 . S
C637 C631 1.429 . S
C637 C638 1.523 . S
C638 C619 1.368 . S
C638 C632 1.368 . S
C638 C637 1.523 . S
C639 C623 1.429 . S
C639 C635 1.429 . S
C639 C640 1.523 . S
C640 C624 1.368 . S
C640 C636 1.368 . S
C640 C639 1.523 . S
H641 C616 0.950 . S
H642 C618 0.950 . S
H643 C619 0.949 . S
H644 C621 0.950 . S
H645 C623 0.950 . S
C646 C647 1.349 . S
C646 C648 1.327 . S
C646 H671 0.950 . S
C647 C646 1.349 . S
C647 C663 1.349 . S
C648 C646 1.327 . S
C648 C667 1.429 . S
C648 H672 0.950 . S
C649 C666 1.574 . S
C649 C668 1.368 . S
C649 H673 0.949 . S
H650 C654 0.949 . S
C651 C652 1.349 . S
C651 C653 1.327 . S
C651 H674 0.950 . S
C652 C651 1.349 . S
C652 C664 1.349 . S
C653 C651 1.327 . S
C653 C669 1.429 . S
C653 H675 0.950 . S
C654 H650 0.949 . S
C654 C662 1.574 . S
C654 C670 1.368 . S
H655 C663 0.950 . S
H656 C661 0.950 . S
H657 C662 0.949 . S
H658 C664 0.950 . S
H659 C665 0.950 . S
H660 C666 0.949 . S
C661 H656 0.950 . S
C661 C663 1.327 . S
C661 C667 1.429 . S
C662 C654 1.574 . S
C662 H657 0.949 . S
C662 C668 1.368 . S
C663 C647 1.349 . S
C663 H655 0.950 . S
C663 C661 1.327 . S
C664 C652 1.349 . S
C664 H658 0.950 . S
C664 C665 1.327 . S
C665 H659 0.950 . S
C665 C664 1.327 . S
C665 C669 1.429 . S
C666 C649 1.574 . S
C666 H660 0.949 . S
C666 C670 1.368 . S
C667 C648 1.429 . S
C667 C661 1.429 . S
C667 C668 1.523 . S
C668 C649 1.368 . S
C668 C662 1.368 . S
C668 C667 1.523 . S
C669 C653 1.429 . S
C669 C665 1.429 . S
C669 C670 1.523 . S
C670 C654 1.368 . S
C670 C666 1.368 . S
C670 C669 1.523 . S
H671 C646 0.950 . S
H672 C648 0.950 . S
H673 C649 0.949 . S
H674 C651 0.950 . S
H675 C653 0.950 . S
C676 C677 1.349 . S
C676 C678 1.327 . S
C676 H701 0.950 . S
C677 C676 1.349 . S
C677 C693 1.349 . S
C678 C676 1.327 . S
C678 C697 1.429 . S
C678 H702 0.950 . S
C679 C696 1.574 . S
C679 C698 1.368 . S
C679 H703 0.949 . S
H680 C684 0.949 . S
C681 C682 1.349 . S
C681 C683 1.327 . S
C681 H704 0.950 . S
C682 C681 1.349 . S
C682 C694 1.349 . S
C683 C681 1.327 . S
C683 C699 1.429 . S
C683 H705 0.950 . S
C684 H680 0.949 . S
C684 C692 1.574 . S
C684 C700 1.368 . S
H685 C693 0.950 . S
H686 C691 0.950 . S
H687 C692 0.949 . S
H688 C694 0.950 . S
H689 C695 0.950 . S
H690 C696 0.949 . S
C691 H686 0.950 . S
C691 C693 1.327 . S
C691 C697 1.429 . S
C692 C684 1.574 . S
C692 H687 0.949 . S
C692 C698 1.368 . S
C693 C677 1.349 . S
C693 H685 0.950 . S
C693 C691 1.327 . S
C694 C682 1.349 . S
C694 H688 0.950 . S
C694 C695 1.327 . S
C695 H689 0.950 . S
C695 C694 1.327 . S
C695 C699 1.429 . S
C696 C679 1.574 . S
C696 H690 0.949 . S
C696 C700 1.368 . S
C697 C678 1.429 . S
C697 C691 1.429 . S
C697 C698 1.523 . S
C698 C679 1.368 . S
C698 C692 1.368 . S
C698 C697 1.523 . S
C699 C683 1.429 . S
C699 C695 1.429 . S
C699 C700 1.523 . S
C700 C684 1.368 . S
C700 C696 1.368 . S
C700 C699 1.523 . S
H701 C676 0.950 . S
H702 C678 0.950 . S
H703 C679 0.949 . S
H704 C681 0.950 . S
H705 C683 0.950 . S
C706 C707 1.349 . S
C706 C708 1.327 . S
C706 H731 0.950 . S
C707 C706 1.349 . S
C707 C723 1.349 . S
C708 C706 1.327 . S
C708 C727 1.429 . S
C708 H732 0.950 . S
C709 C726 1.574 . S
C709 C728 1.368 . S
C709 H733 0.949 . S
H710 C714 0.949 . S
C711 C712 1.349 . S
C711 C713 1.327 . S
C711 H734 0.950 . S
C712 C711 1.349 . S
C712 C724 1.349 . S
C713 C711 1.327 . S
C713 C729 1.429 . S
C713 H735 0.950 . S
C714 H710 0.949 . S
C714 C722 1.574 . S
C714 C730 1.368 . S
H715 C723 0.950 . S
H716 C721 0.950 . S
H717 C722 0.949 . S
H718 C724 0.950 . S
H719 C725 0.950 . S
H720 C726 0.949 . S
C721 H716 0.950 . S
C721 C723 1.327 . S
C721 C727 1.429 . S
C722 C714 1.574 . S
C722 H717 0.949 . S
C722 C728 1.368 . S
C723 C707 1.349 . S
C723 H715 0.950 . S
C723 C721 1.327 . S
C724 C712 1.349 . S
C724 H718 0.950 . S
C724 C725 1.327 . S
C725 H719 0.950 . S
C725 C724 1.327 . S
C725 C729 1.429 . S
C726 C709 1.574 . S
C726 H720 0.949 . S
C726 C730 1.368 . S
C727 C708 1.429 . S
C727 C721 1.429 . S
C727 C728 1.523 . S
C728 C709 1.368 . S
C728 C722 1.368 . S
C728 C727 1.523 . S
C729 C713 1.429 . S
C729 C725 1.429 . S
C729 C730 1.523 . S
C730 C714 1.368 . S
C730 C726 1.368 . S
C730 C729 1.523 . S
H731 C706 0.950 . S
H732 C708 0.950 . S
H733 C709 0.949 . S
H734 C711 0.950 . S
H735 C713 0.950 . S
C736 C737 1.349 1_565 S
C736 C738 1.327 . S
C736 H761 0.950 . S
C737 C736 1.349 1_545 S
C737 C753 1.349 1_455 S
C738 C736 1.327 . S
C738 C757 1.429 1_565 S
C738 H762 0.950 . S
C739 C756 1.574 1_556 S
C739 C758 1.368 1_655 S
C739 H763 0.949 . S
H740 C744 0.949 . S
C741 C742 1.349 1_655 S
C741 C743 1.327 . S
C741 H764 0.950 . S
C742 C741 1.349 1_455 S
C742 C754 1.349 1_545 S
C743 C741 1.327 . S
C743 C759 1.429 1_655 S
C743 H765 0.950 . S
C744 H740 0.949 . S
C744 C752 1.574 1_554 S
C744 C760 1.368 1_565 S
H745 C753 0.950 . S
H746 C751 0.950 . S
H747 C752 0.949 . S
H748 C754 0.950 . S
H749 C755 0.950 . S
H750 C756 0.949 . S
C751 H746 0.950 . S
C751 C753 1.327 . S
C751 C757 1.429 1_655 S
C752 C744 1.574 1_556 S
C752 H747 0.949 . S
C752 C758 1.368 1_565 S
C753 C737 1.349 1_655 S
C753 H745 0.950 . S
C753 C751 1.327 . S
C754 C742 1.349 1_565 S
C754 H748 0.950 . S
C754 C755 1.327 . S
C755 H749 0.950 . S
C755 C754 1.327 . S
C755 C759 1.429 1_565 S
C756 C739 1.574 1_554 S
C756 H750 0.949 . S
C756 C760 1.368 1_655 S
C757 C738 1.429 1_545 S
C757 C751 1.429 1_455 S
C757 C758 1.523 . S
C758 C739 1.368 1_455 S
C758 C752 1.368 1_545 S
C758 C757 1.523 . S
C759 C743 1.429 1_455 S
C759 C755 1.429 1_545 S
C759 C760 1.523 . S
C760 C744 1.368 1_545 S
C760 C756 1.368 1_455 S
C760 C759 1.523 . S
H761 C736 0.950 . S
H762 C738 0.950 . S
H763 C739 0.949 . S
H764 C741 0.950 . S
H765 C743 0.950 . S
C766 C767 1.349 . S
C766 C768 1.327 . S
C766 H791 0.950 . S
C767 C766 1.349 . S
C767 C783 1.349 . S
C768 C766 1.327 . S
C768 C787 1.429 . S
C768 H792 0.950 . S
C769 C786 1.574 . S
C769 C788 1.368 . S
C769 H793 0.949 . S
H770 C774 0.949 . S
C771 C772 1.347 1_554 S
C771 C773 1.330 . S
C771 H794 0.948 1_554 S
C772 C771 1.347 1_556 S
C772 C784 1.349 1_556 S
C773 C771 1.330 . S
C773 C789 1.429 . S
C773 H795 0.950 . S
C774 H770 0.949 . S
C774 C782 1.574 . S
C774 C790 1.368 . S
H775 C783 0.950 . S
H776 C781 0.950 . S
H777 C782 0.949 . S
H778 C784 0.948 1_556 S
H779 C785 0.950 . S
H780 C786 0.949 . S
C781 H776 0.950 . S
C781 C783 1.327 . S
C781 C787 1.429 . S
C782 C774 1.574 . S
C782 H777 0.949 . S
C782 C788 1.368 . S
C783 C767 1.349 . S
C783 H775 0.950 . S
C783 C781 1.327 . S
C784 C772 1.349 1_554 S
C784 H778 0.948 1_554 S
C784 C785 1.327 . S
C785 H779 0.950 . S
C785 C784 1.327 . S
C785 C789 1.429 . S
C786 C769 1.574 . S
C786 H780 0.949 . S
C786 C790 1.368 . S
C787 C768 1.429 . S
C787 C781 1.429 . S
C787 C788 1.523 . S
C788 C769 1.368 . S
C788 C782 1.368 . S
C788 C787 1.523 . S
C789 C773 1.429 . S
C789 C785 1.429 . S
C789 C790 1.523 . S
C790 C774 1.368 . S
C790 C786 1.368 . S
C790 C789 1.523 . S
H791 C766 0.950 . S
H792 C768 0.950 . S
H793 C769 0.949 . S
H794 C771 0.948 1_556 S
H795 C773 0.950 . S
C796 C797 1.349 1_565 S
C796 C798 1.327 . S
C796 H821 0.950 . S
C797 C796 1.349 1_545 S
C797 C813 1.349 . S
C798 C796 1.327 . S
C798 C817 1.429 1_565 S
C798 H822 0.950 . S
C799 C816 1.574 . S
C799 C818 1.368 . S
C799 H823 0.949 . S
H800 C804 0.949 . S
C801 C802 1.349 . S
C801 C803 1.327 . S
C801 H824 0.950 . S
C802 C801 1.349 . S
C802 C814 1.349 1_545 S
C803 C801 1.327 . S
C803 C819 1.429 . S
C803 H825 0.950 . S
C804 H800 0.949 . S
C804 C812 1.574 . S
C804 C820 1.368 1_565 S
H805 C813 0.950 . S
H806 C811 0.950 . S
H807 C812 0.949 . S
H808 C814 0.950 . S
H809 C815 0.950 . S
H810 C816 0.949 . S
C811 H806 0.950 . S
C811 C813 1.327 . S
C811 C817 1.429 . S
C812 C804 1.574 . S
C812 H807 0.949 . S
C812 C818 1.368 1_565 S
C813 C797 1.349 . S
C813 H805 0.950 . S
C813 C811 1.327 . S
C814 C802 1.349 1_565 S
C814 H808 0.950 . S
C814 C815 1.327 . S
C815 H809 0.950 . S
C815 C814 1.327 . S
C815 C819 1.429 1_565 S
C816 C799 1.574 . S
C816 H810 0.949 . S
C816 C820 1.368 . S
C817 C798 1.429 1_545 S
C817 C811 1.429 . S
C817 C818 1.523 . S
C818 C799 1.368 . S
C818 C812 1.368 1_545 S
C818 C817 1.523 . S
C819 C803 1.429 . S
C819 C815 1.429 1_545 S
C819 C820 1.523 . S
C820 C804 1.368 1_545 S
C820 C816 1.368 . S
C820 C819 1.523 . S
H821 C796 0.950 . S
H822 C798 0.950 . S
H823 C799 0.949 . S
H824 C801 0.950 . S
H825 C803 0.950 . S
C826 C827 1.349 . S
C826 C828 1.327 1_554 S
C826 H851 0.950 . S
C827 C826 1.349 . S
C827 C843 1.349 1_554 S
C828 C826 1.327 1_556 S
C828 C847 1.429 . S
C828 H852 0.950 . S
C829 C846 1.574 . S
C829 C848 1.368 . S
C829 H853 0.949 . S
H830 C834 0.949 . S
C831 C832 1.349 . S
C831 C833 1.327 . S
C831 H854 0.950 . S
C832 C831 1.349 . S
C832 C844 1.349 . S
C833 C831 1.327 . S
C833 C849 1.429 . S
C833 H855 0.950 . S
C834 H830 0.949 . S
C834 C842 1.574 . S
C834 C850 1.368 . S
H835 C843 0.950 1_554 S
H836 C841 0.950 . S
H837 C842 0.949 . S
H838 C844 0.950 . S
H839 C845 0.950 . S
H840 C846 0.949 . S
C841 H836 0.950 . S
C841 C843 1.327 . S
C841 C847 1.429 . S
C842 C834 1.574 . S
C842 H837 0.949 . S
C842 C848 1.368 . S
C843 C827 1.349 1_556 S
C843 H835 0.950 1_556 S
C843 C841 1.327 . S
C844 C832 1.349 . S
C844 H838 0.950 . S
C844 C845 1.327 . S
C845 H839 0.950 . S
C845 C844 1.327 . S
C845 C849 1.429 . S
C846 C829 1.574 . S
C846 H840 0.949 . S
C846 C850 1.368 . S
C847 C828 1.429 . S
C847 C841 1.429 . S
C847 C848 1.523 . S
C848 C829 1.368 . S
C848 C842 1.368 . S
C848 C847 1.523 . S
C849 C833 1.429 . S
C849 C845 1.429 . S
C849 C850 1.523 . S
C850 C834 1.368 . S
C850 C846 1.368 . S
C850 C849 1.523 . S
H851 C826 0.950 . S
H852 C828 0.950 . S
H853 C829 0.949 . S
H854 C831 0.950 . S
H855 C833 0.950 . S
C856 C857 1.349 . S
C856 C858 1.327 1_554 S
C856 H881 0.950 . S
C857 C856 1.349 . S
C857 C873 1.349 . S
C858 C856 1.327 1_556 S
C858 C877 1.429 . S
C858 H882 0.950 . S
C859 C876 1.574 . S
C859 C878 1.368 . S
C859 H883 0.949 . S
H860 C864 0.949 . S
C861 C862 1.349 . S
C861 C863 1.327 . S
C861 H884 0.950 . S
C862 C861 1.349 . S
C862 C874 1.349 . S
C863 C861 1.327 . S
C863 C879 1.429 . S
C863 H885 0.950 . S
C864 H860 0.949 . S
C864 C872 1.574 . S
C864 C880 1.368 . S
H865 C873 0.950 . S
H866 C871 0.950 . S
H867 C872 0.949 . S
H868 C874 0.950 . S
H869 C875 0.950 . S
H870 C876 0.949 . S
C871 H866 0.950 . S
C871 C873 1.327 1_556 S
C871 C877 1.429 . S
C872 C864 1.574 . S
C872 H867 0.949 . S
C872 C878 1.368 . S
C873 C857 1.349 . S
C873 H865 0.950 . S
C873 C871 1.327 1_554 S
C874 C862 1.349 . S
C874 H868 0.950 . S
C874 C875 1.327 . S
C875 H869 0.950 . S
C875 C874 1.327 . S
C875 C879 1.429 . S
C876 C859 1.574 . S
C876 H870 0.949 . S
C876 C880 1.368 . S
C877 C858 1.429 . S
C877 C871 1.429 . S
C877 C878 1.523 . S
C878 C859 1.368 . S
C878 C872 1.368 . S
C878 C877 1.523 . S
C879 C863 1.429 . S
C879 C875 1.429 . S
C879 C880 1.523 . S
C880 C864 1.368 . S
C880 C876 1.368 . S
C880 C879 1.523 . S
H881 C856 0.950 . S
H882 C858 0.950 . S
H883 C859 0.949 . S
H884 C861 0.950 . S
H885 C863 0.950 . S
C886 C887 1.349 . S
C886 C888 1.327 . S
C886 H911 0.950 . S
C887 C886 1.349 . S
C887 C903 1.349 . S
C888 C886 1.327 . S
C888 C907 1.429 . S
C888 H912 0.950 . S
C889 C906 1.574 . S
C889 C908 1.368 . S
C889 H913 0.949 . S
H890 C894 0.949 . S
C891 C892 1.349 . S
C891 C893 1.327 1_556 S
C891 H914 0.950 . S
C892 C891 1.349 . S
C892 C904 1.349 . S
C893 C891 1.327 1_554 S
C893 C909 1.429 . S
C893 H915 0.950 . S
C894 H890 0.949 . S
C894 C902 1.574 . S
C894 C910 1.368 . S
H895 C903 0.950 . S
H896 C901 0.950 . S
H897 C902 0.949 . S
H898 C904 0.950 . S
H899 C905 0.950 . S
H900 C906 0.949 . S
C901 H896 0.950 . S
C901 C903 1.327 . S
C901 C907 1.429 . S
C902 C894 1.574 . S
C902 H897 0.949 . S
C902 C908 1.368 . S
C903 C887 1.349 . S
C903 H895 0.950 . S
C903 C901 1.327 . S
C904 C892 1.349 . S
C904 H898 0.950 . S
C904 C905 1.327 1_556 S
C905 H899 0.950 . S
C905 C904 1.327 1_554 S
C905 C909 1.429 . S
C906 C889 1.574 . S
C906 H900 0.949 . S
C906 C910 1.368 . S
C907 C888 1.429 . S
C907 C901 1.429 . S
C907 C908 1.523 . S
C908 C889 1.368 . S
C908 C902 1.368 . S
C908 C907 1.523 . S
C909 C893 1.429 . S
C909 C905 1.429 . S
C909 C910 1.523 . S
C910 C894 1.368 . S
C910 C906 1.368 . S
C910 C909 1.523 . S
H911 C886 0.950 . S
H912 C888 0.950 . S
H913 C889 0.949 . S
H914 C891 0.950 . S
H915 C893 0.950 . S
C916 C917 1.349 . S
C916 C918 1.327 . S
C916 H941 0.950 . S
C917 C916 1.349 . S
C917 C933 1.349 . S
C918 C916 1.327 . S
C918 C937 1.429 . S
C918 H942 0.950 . S
C919 C936 1.574 . S
C919 C938 1.368 . S
C919 H943 0.949 . S
H920 C924 0.949 . S
C921 C922 1.349 . S
C921 C923 1.327 . S
C921 H944 0.950 . S
C922 C921 1.349 . S
C922 C934 1.349 . S
C923 C921 1.327 . S
C923 C939 1.429 . S
C923 H945 0.950 . S
C924 H920 0.949 . S
C924 C932 1.574 . S
C924 C940 1.368 . S
H925 C933 0.950 . S
H926 C931 0.950 . S
H927 C932 0.949 . S
H928 C934 0.950 . S
H929 C935 0.950 . S
H930 C936 0.949 . S
C931 H926 0.950 . S
C931 C933 1.327 . S
C931 C937 1.429 . S
C932 C924 1.574 . S
C932 H927 0.949 . S
C932 C938 1.368 . S
C933 C917 1.349 . S
C933 H925 0.950 . S
C933 C931 1.327 . S
C934 C922 1.349 . S
C934 H928 0.950 . S
C934 C935 1.327 . S
C935 H929 0.950 . S
C935 C934 1.327 . S
C935 C939 1.429 . S
C936 C919 1.574 . S
C936 H930 0.949 . S
C936 C940 1.368 . S
C937 C918 1.429 . S
C937 C931 1.429 . S
C937 C938 1.523 . S
C938 C919 1.368 . S
C938 C932 1.368 . S
C938 C937 1.523 . S
C939 C923 1.429 . S
C939 C935 1.429 . S
C939 C940 1.523 . S
C940 C924 1.368 . S
C940 C936 1.368 . S
C940 C939 1.523 . S
H941 C916 0.950 . S
H942 C918 0.950 . S
H943 C919 0.949 . S
H944 C921 0.950 . S
H945 C923 0.950 . S
C946 C947 1.349 1_655 S
C946 C948 1.327 . S
C946 H971 0.950 . S
C947 C946 1.349 1_455 S
C947 C963 1.349 . S
C948 C946 1.327 . S
C948 C967 1.429 1_655 S
C948 H972 0.950 . S
C949 C966 1.574 1_556 S
C949 C968 1.368 . S
C949 H973 0.949 . S
H950 C954 0.949 . S
C951 C952 1.349 . S
C951 C953 1.327 . S
C951 H974 0.950 . S
C952 C951 1.349 . S
C952 C964 1.349 1_455 S
C953 C951 1.327 . S
C953 C969 1.429 . S
C953 H975 0.950 . S
C954 H950 0.949 . S
C954 C962 1.574 1_554 S
C954 C970 1.368 1_655 S
H955 C963 0.950 . S
H956 C961 0.950 . S
H957 C962 0.949 . S
H958 C964 0.950 . S
H959 C965 0.950 . S
H960 C966 0.949 . S
C961 H956 0.950 . S
C961 C963 1.327 . S
C961 C967 1.429 . S
C962 C954 1.574 1_556 S
C962 H957 0.949 . S
C962 C968 1.368 1_655 S
C963 C947 1.349 . S
C963 H955 0.950 . S
C963 C961 1.327 . S
C964 C952 1.349 1_655 S
C964 H958 0.950 . S
C964 C965 1.327 . S
C965 H959 0.950 . S
C965 C964 1.327 . S
C965 C969 1.429 1_655 S
C966 C949 1.574 1_554 S
C966 H960 0.949 . S
C966 C970 1.368 . S
C967 C948 1.429 1_455 S
C967 C961 1.429 . S
C967 C968 1.523 . S
C968 C949 1.368 . S
C968 C962 1.368 1_455 S
C968 C967 1.523 . S
C969 C953 1.429 . S
C969 C965 1.429 1_455 S
C969 C970 1.523 . S
C970 C954 1.368 1_455 S
C970 C966 1.368 . S
C970 C969 1.523 . S
H971 C946 0.950 . S
H972 C948 0.950 . S
H973 C949 0.949 . S
H974 C951 0.950 . S
H975 C953 0.950 . S
C257 C29 2.668 . S
C262 C125 2.668 . S
C287 N18 1.485 . S
C292 C36 1.528 . S
C317 N45 0.614 . S
C322 N77 0.614 . S
C347 C68 1.528 . S
C352 N114 1.485 . S
C377 C2 3.052 . S
C382 C162 3.052 . S
C407 N13 1.453 . S
C412 C134 1.491 . S
C437 N146 0.286 . S
C442 N82 0.286 . S
C467 N173 1.453 . S
C472 C70 1.492 . S
C497 C221 2.668 . S
C502 C189 2.668 . S
C527 C132 1.528 . S
C532 N210 1.485 . S
C557 N242 0.614 . S
C562 N141 0.614 . S
C587 N178 1.485 . S
C592 C253 1.528 . S
C617 C98 3.052 . S
C622 C194 3.052 . S
C647 N205 1.453 . S
C652 C38 1.491 . S
C677 N50 0.286 . S
C682 N237 0.286 . S
C707 N109 1.453 . S
C712 C226 1.492 . S
C737 C4 1.291 . S
C742 C6 1.294 . S
C767 C34 1.311 . S
C772 C61 1.311 . S
C797 C93 1.311 . S
C802 C66 1.311 . S
C827 C100 1.291 . S
C832 C102 1.294 . S
C857 C130 1.311 . S
C862 C157 1.311 . S
C887 C164 1.291 . S
C892 C166 1.294 . S
C917 C198 1.294 . S
C922 C196 1.291 . S
C947 C230 1.311 . S
C952 C228 1.311 . S
