# Generated by pormake.
# Topology uon, (4)-cn, num edge types: 1
# Building blocks:
#     Node 0, Type 0, BuildingBlock: NAWXER_clean_sbu_0, # of connection points: 4
#     Node 1, Type 0, BuildingBlock: NAWXER_clean_sbu_0, # of connection points: 4
#     Node 2, Type 0, BuildingBlock: NAWXER_clean_sbu_0, # of connection points: 4
#     Node 3, Type 0, BuildingBlock: NAWXER_clean_sbu_0, # of connection points: 4
#     Node 4, Type 0, BuildingBlock: NAWXER_clean_sbu_0, # of connection points: 4
#     Node 5, Type 0, BuildingBlock: NAWXER_clean_sbu_0, # of connection points: 4
#     Edge 6, Type (0, 0), BuildingBlock: XUDNAN_clean_linker_2, # of connection points: 2
#     Edge 7, Type (0, 0), BuildingBlock: XUDNAN_clean_linker_2, # of connection points: 2
#     Edge 8, Type (0, 0), BuildingBlock: XUDNAN_clean_linker_2, # of connection points: 2
#     Edge 9, Type (0, 0), BuildingBlock: XUDNAN_clean_linker_2, # of connection points: 2
#     Edge 10, Type (0, 0), BuildingBlock: XUDNAN_clean_linker_2, # of connection points: 2
#     Edge 11, Type (0, 0), BuildingBlock: XUDNAN_clean_linker_2, # of connection points: 2
#     Edge 12, Type (0, 0), BuildingBlock: XUDNAN_clean_linker_2, # of connection points: 2
#     Edge 13, Type (0, 0), BuildingBlock: XUDNAN_clean_linker_2, # of connection points: 2
#     Edge 14, Type (0, 0), BuildingBlock: XUDNAN_clean_linker_2, # of connection points: 2
#     Edge 15, Type (0, 0), BuildingBlock: XUDNAN_clean_linker_2, # of connection points: 2
#     Edge 16, Type (0, 0), BuildingBlock: XUDNAN_clean_linker_2, # of connection points: 2
#     Edge 17, Type (0, 0), BuildingBlock: XUDNAN_clean_linker_2, # of connection points: 2
# Relax obj value: 0.135
# Max RMSD: 0.134
# Mean RMSD: 0.134
data_MOF--net-uon--node1-NAWXER_clean_sbu_0--edge1-XUDNAN_clean_linker_2
_symmetry_space_group_name_H-M    P1
_symmetry_Int_Tables_number       1
_symmetry_cell_setting            triclinic
loop_
_symmetry_equiv_pos_as_xyz
'x, y, z'
_cell_length_a     34.460367
_cell_length_b     34.37359
_cell_length_c     21.740311
_cell_angle_alpha  90.519821
_cell_angle_beta   89.485081
_cell_angle_gamma 120.1988
loop_
_atom_site_label
_atom_site_type_symbol
_atom_site_fract_x
_atom_site_fract_y
_atom_site_fract_z
_atom_type_partial_charge
C0 C 0.14721 0.38534 0.06806 0.0
C1 C 0.29985 0.50382 0.01534 0.0
O2 O 0.18183 0.40208 0.10195 0.0
Zn3 Zn 0.22505 0.4428 0.04185 0.0
O4 O 0.15082 0.39877 0.01229 0.0
Zn5 Zn 0.20221 0.44757 0.9527 0.0
O6 O 0.20719 0.41285 0.88477 0.0
O7 O 0.22956 0.39995 0.97315 0.0
O8 O 0.27155 0.49454 0.97194 0.0
O9 O 0.28789 0.48086 0.06457 0.0
O10 O 0.20542 0.49267 0.03233 0.0
O11 O 0.18055 0.48923 0.93777 0.0
C12 C 0.22271 0.39235 0.91524 0.0
C13 C 0.18937 0.507 0.99114 0.0
C14 C 0.79665 0.16508 0.44946 0.0
C15 C 0.81802 0.30612 0.36662 0.0
O16 O 0.81593 0.20351 0.47531 0.0
Zn17 Zn 0.81243 0.23784 0.40719 0.0
O18 O 0.78325 0.16111 0.39376 0.0
Zn19 Zn 0.78128 0.2035 0.32403 0.0
O20 O 0.81761 0.20158 0.25805 0.0
O21 O 0.8592 0.24132 0.33646 0.0
O22 O 0.80119 0.27323 0.3283 0.0
O23 O 0.83004 0.30089 0.41967 0.0
O24 O 0.74126 0.21117 0.40148 0.0
O25 O 0.71724 0.17885 0.3107 0.0
C26 C 0.8562 0.22601 0.28144 0.0
C27 C 0.7093 0.1906 0.36282 0.0
C28 C 0.64295 0.88336 0.67841 0.0
C29 C 0.54034 0.75642 0.8089 0.0
O30 O 0.63455 0.84492 0.65781 0.0
Zn31 Zn 0.59502 0.77598 0.68089 0.0
O32 O 0.62354 0.88523 0.72742 0.0
Zn33 Zn 0.58859 0.82015 0.74361 0.0
O34 O 0.63876 0.80211 0.76636 0.0
O35 O 0.64004 0.75946 0.69032 0.0
O36 O 0.55061 0.79729 0.81643 0.0
O37 O 0.55407 0.74474 0.761 0.0
O38 O 0.55413 0.75042 0.61302 0.0
O39 O 0.53901 0.79378 0.67183 0.0
C40 C 0.65447 0.77865 0.74209 0.0
C41 C 0.52984 0.76764 0.62503 0.0
C42 C 0.76645 0.63459 0.01339 0.0
C43 C 0.76338 0.51978 0.14889 0.0
O44 O 0.7943 0.62178 0.99868 0.0
Zn45 Zn 0.81483 0.57676 0.02825 0.0
O46 O 0.74142 0.61773 0.06046 0.0
Zn47 Zn 0.76257 0.5766 0.08365 0.0
O48 O 0.82935 0.61994 0.11541 0.0
O49 O 0.87725 0.61606 0.05119 0.0
O50 O 0.73902 0.53773 0.15567 0.0
O51 O 0.79106 0.53129 0.10372 0.0
O52 O 0.79894 0.53656 0.95813 0.0
O53 O 0.73962 0.52852 0.0093 0.0
C54 C 0.86978 0.6316 0.10042 0.0
C55 C 0.75653 0.51688 0.96495 0.0
C56 C 0.27252 0.75309 0.41624 0.0
C57 C 0.13973 0.75705 0.35063 0.0
O58 O 0.28107 0.78191 0.37368 0.0
Zn59 Zn 0.24619 0.80837 0.32372 0.0
O60 O 0.23326 0.73122 0.43907 0.0
Zn61 Zn 0.20588 0.75696 0.38859 0.0
O62 O 0.2086 0.73419 0.2968 0.0
O63 O 0.25398 0.79307 0.23968 0.0
O64 O 0.14228 0.73521 0.39585 0.0
O65 O 0.17543 0.78505 0.32161 0.0
O66 O 0.27361 0.8713 0.35153 0.0
O67 O 0.23448 0.82304 0.42437 0.0
C68 C 0.2273 0.75084 0.24488 0.0
C69 C 0.25943 0.86372 0.40679 0.0
C70 C 0.50205 0.28099 0.73457 0.0
C71 C 0.37913 0.14099 0.6534 0.0
O72 O 0.48561 0.28705 0.68524 0.0
Zn73 Zn 0.42877 0.24744 0.62585 0.0
O74 O 0.48277 0.24265 0.76014 0.0
Zn75 Zn 0.43619 0.21164 0.69966 0.0
O76 O 0.47446 0.21829 0.61714 0.0
O77 O 0.45976 0.25565 0.54751 0.0
O78 O 0.39908 0.14708 0.70452 0.0
O79 O 0.38646 0.1751 0.62108 0.0
O80 O 0.38827 0.27172 0.63922 0.0
O81 O 0.39093 0.23479 0.71949 0.0
C82 C 0.48019 0.23496 0.56299 0.0
C83 C 0.37548 0.25742 0.69354 0.0
H84 H 0.25762 0.39825 0.79869 0.0
H85 H 0.21813 0.31805 0.9648 0.0
H86 H 0.24651 0.27067 0.92073 0.0
H87 H 0.23558 0.30588 0.68811 0.0
H88 H 0.28464 0.34133 0.64242 0.0
H89 H 0.25576 0.36538 0.68302 0.0
H90 H 0.32988 0.42193 0.73714 0.0
H91 H 0.35891 0.39798 0.69701 0.0
H92 H 0.3602 0.40106 0.77984 0.0
H93 H 0.28421 0.23621 0.86405 0.0
H94 H 0.33103 0.21719 0.79905 0.0
H95 H 0.34958 0.32039 0.66889 0.0
C96 C 0.25385 0.36989 0.82488 0.0
C97 C 0.23505 0.36132 0.88485 0.0
C98 C 0.23208 0.32493 0.91867 0.0
C99 C 0.24801 0.29778 0.89395 0.0
C100 C 0.26723 0.30761 0.8354 0.0
C101 C 0.27035 0.34275 0.80113 0.0
C102 C 0.2963 0.34832 0.74173 0.0
C103 C 0.26627 0.33971 0.68549 0.0
C104 C 0.33884 0.3951 0.73879 0.0
C105 C 0.30795 0.3114 0.74868 0.0
C106 C 0.29026 0.28811 0.80281 0.0
C107 C 0.29789 0.2539 0.82127 0.0
C108 C 0.32474 0.24345 0.78395 0.0
C109 C 0.34405 0.26718 0.72864 0.0
C110 C 0.33491 0.30125 0.71044 0.0
H111 H 0.94497 0.28451 0.31179 0.0
H112 H 0.86014 0.19888 0.16407 0.0
H113 H 0.92642 0.22629 0.09651 0.0
H114 H 0.01544 0.37762 0.22002 0.0
H115 H 0.06637 0.39289 0.26117 0.0
H116 H 0.01304 0.36374 0.30027 0.0
H117 H 0.02951 0.30111 0.33238 0.0
H118 H 0.08305 0.33018 0.2935 0.0
H119 H 0.04353 0.2724 0.27425 0.0
H120 H 0.99986 0.26842 0.04134 0.0
H121 H 0.07675 0.32009 1.00375 0.0
H122 H 0.11582 0.3767 0.18714 0.0
C123 C 0.94044 0.27086 0.26562 0.0
C124 C 0.89714 0.23935 0.24347 0.0
C125 C 0.89278 0.22287 0.18239 0.0
C126 C 0.93031 0.23823 0.14353 0.0
C127 C 0.97226 0.26987 0.16634 0.0
C128 C 0.97771 0.28572 0.22612 0.0
C129 C 0.02636 0.32116 0.23808 0.0
C130 C 0.03053 0.36653 0.25592 0.0
C131 C 0.04682 0.30525 0.28749 0.0
C132 C 0.04709 0.32343 0.1753 0.0
C133 C 0.01519 0.29347 0.1347 0.0
C134 C 0.02531 0.29146 0.07295 0.0
C135 C 0.06905 0.32102 0.05197 0.0
C136 C 0.1024 0.35197 0.09262 0.0
C137 C 0.0913 0.35268 0.15532 0.0
H138 H 0.75707 0.13898 0.56299 0.0
H139 H 0.80983 0.09771 0.41003 0.0
H140 H 0.78267 0.02374 0.45886 0.0
H141 H 0.7752 0.07466 0.6866 0.0
H142 H 0.72259 0.05961 0.72391 0.0
H143 H 0.7527 0.11192 0.68264 0.0
H144 H 0.68219 0.0893 0.6167 0.0
H145 H 0.65201 0.03683 0.65729 0.0
H146 H 0.65686 0.03683 0.57467 0.0
H147 H 0.74437 0.953 0.51759 0.0
H148 H 0.69515 0.88769 0.58124 0.0
H149 H 0.66244 0.97168 0.69565 0.0
C150 C 0.76422 0.11481 0.54115 0.0
C151 C 0.78649 0.12416 0.48359 0.0
C152 C 0.79352 0.09123 0.45464 0.0
C153 C 0.77824 0.04924 0.48204 0.0
C154 C 0.75541 0.04049 0.53804 0.0
C155 C 0.74825 0.07219 0.5674 0.0
C156 C 0.71837 0.05218 0.62372 0.0
C157 C 0.74374 0.07602 0.68272 0.0
C158 C 0.67478 0.05389 0.61769 0.0
C159 C 0.70917 1.0041 0.62059 0.0
C160 C 0.7315 0.99853 0.57122 0.0
C161 C 0.72704 0.95701 0.55673 0.0
C162 C 0.69874 0.92 0.59322 0.0
C163 C 0.67475 0.92436 0.64365 0.0
C164 C 0.68054 0.96726 0.65783 0.0
H165 H 0.70751 0.66713 0.022 0.0
H166 H 0.81507 0.67268 0.90953 0.0
H167 H 0.80316 0.71729 0.8326 0.0
H168 H 0.63529 0.65317 0.90225 0.0
H169 H 0.61531 0.68846 0.93432 0.0
H170 H 0.63522 0.66096 0.98438 0.0
H171 H 0.69228 0.73814 0.03225 0.0
H172 H 0.67242 0.76577 0.982 0.0
H173 H 0.73121 0.78301 0.98293 0.0
H174 H 0.77236 0.75009 0.7603 0.0
H175 H 0.7281 0.77571 0.7016 0.0
H176 H 0.64505 0.75572 0.86249 0.0
C177 C 0.7292 0.67864 0.9819 0.0
C178 C 0.76213 0.6662 0.97198 0.0
C179 C 0.78954 0.6816 0.91845 0.0
C180 C 0.78316 0.70713 0.8743 0.0
C181 C 0.74974 0.71779 0.88454 0.0
C182 C 0.72364 0.70476 0.93738 0.0
C183 C 0.68856 0.71899 0.93524 0.0
C184 C 0.64079 0.67795 0.93926 0.0
C185 C 0.69662 0.75354 0.98613 0.0
C186 C 0.6981 0.74042 0.87212 0.0
C187 C 0.73353 0.73933 0.84366 0.0
C188 C 0.74542 0.75245 0.78261 0.0
C189 C 0.72016 0.76681 0.7496 0.0
C190 C 0.68418 0.76867 0.77821 0.0
C191 C 0.67352 0.75603 0.84042 0.0
H192 H 0.96152 0.67532 0.08156 0.0
H193 H 0.8597 0.64588 0.22132 0.0
H194 H 0.91831 0.68036 0.3002 0.0
H195 H 0.03166 0.652 0.16956 0.0
H196 H 0.08345 0.6975 0.13946 0.0
H197 H 0.03348 0.67342 0.09353 0.0
H198 H 0.04287 0.75289 0.08176 0.0
H199 H 0.09264 0.77665 0.12854 0.0
H200 H 0.04672 0.78516 0.14962 0.0
H201 H 0.98639 0.7071 0.36629 0.0
H202 H 0.0611 0.73293 0.41254 0.0
H203 H 0.11928 0.75206 0.2299 0.0
C204 C 0.9517 0.677 0.12852 0.0
C205 C 0.90602 0.65792 0.1451 0.0
C206 C 0.89448 0.66056 0.20721 0.0
C207 C 0.92753 0.67999 0.25257 0.0
C208 C 0.97214 0.69755 0.23506 0.0
C209 C 0.98442 0.69715 0.17438 0.0
C210 C 0.03473 0.71736 0.16827 0.0
C211 C 0.04648 0.683 0.14114 0.0
C212 C 0.05546 0.76059 0.12977 0.0
C213 C 0.04843 0.72764 0.23513 0.0
C214 C 0.01183 0.71575 0.27305 0.0
C215 C 0.01557 0.71777 0.33707 0.0
C216 C 0.05793 0.73229 0.36297 0.0
C217 C 0.09583 0.74536 0.32474 0.0
C218 C 0.09098 0.74353 0.26014 0.0
H219 H 0.36717 0.11721 0.53189 0.0
H220 H 0.33346 0.06141 0.71577 0.0
H221 H 0.2959 0.98452 0.67144 0.0
H222 H 0.26597 0.0307 0.4534 0.0
H223 H 0.29671 0.0311 0.38565 0.0
H224 H 0.31654 0.08148 0.43145 0.0
H225 H 0.3935 0.08612 0.44316 0.0
H226 H 0.37385 0.03561 0.39786 0.0
H227 H 0.39563 0.03871 0.47394 0.0
H228 H 0.26527 0.91446 0.60798 0.0
H229 H 0.24492 0.85496 0.53042 0.0
H230 H 0.30196 0.95584 0.38671 0.0
C231 C 0.35086 0.08879 0.56275 0.0
C232 C 0.35245 0.09515 0.6273 0.0
C233 C 0.33216 0.05719 0.66625 0.0
C234 C 0.31079 0.01348 0.64146 0.0
C235 C 0.31055 0.00838 0.5777 0.0
C236 C 0.33014 0.04496 0.53881 0.0
C237 C 0.32813 0.03021 0.47229 0.0
C238 C 0.30016 0.0442 0.43341 0.0
C239 C 0.3756 0.04876 0.44525 0.0
C240 C 0.30449 0.97954 0.47985 0.0
C241 C 0.29433 0.96781 0.54102 0.0
C242 C 0.2729 0.92321 0.55994 0.0
C243 C 0.26148 0.88963 0.51532 0.0
C244 C 0.27178 0.9006 0.45223 0.0
C245 C 0.29364 0.94631 0.43444 0.0
H246 H 0.28119 0.73739 0.16414 0.0
H247 H 0.14257 0.6935 0.20896 0.0
H248 H 0.1172 0.63388 0.12979 0.0
H249 H 0.26381 0.7057 0.99511 0.0
H250 H 0.30208 0.68453 0.99557 0.0
H251 H 0.31189 0.73098 0.04514 0.0
H252 H 0.31352 0.68874 0.14122 0.0
H253 H 0.30555 0.64226 0.09382 0.0
H254 H 0.26731 0.63296 0.15649 0.0
H255 H 0.1066 0.57196 0.05861 0.0
H256 H 0.11231 0.51005 0.00789 0.0
H257 H 0.25708 0.59089 0.01379 0.0
C258 C 0.24563 0.7163 0.1552 0.0
C259 C 0.21372 0.7205 0.1912 0.0
C260 C 0.16738 0.69115 0.18073 0.0
C261 C 0.15269 0.65732 0.13575 0.0
C262 C 0.18482 0.65292 0.10198 0.0
C263 C 0.23041 0.68157 0.11122 0.0
C264 C 0.25775 0.66531 0.07602 0.0
C265 C 0.28556 0.69864 0.02497 0.0
C266 C 0.28776 0.6568 0.11948 0.0
C267 C 0.22049 0.62182 0.04894 0.0
C268 C 0.17867 0.61603 0.06247 0.0
C269 C 0.13917 0.57659 0.04646 0.0
C270 C 0.14259 0.54168 0.01751 0.0
C271 C 0.18514 0.54643 0.00608 0.0
C272 C 0.22433 0.58722 0.02072 0.0
H273 H 0.54427 0.21465 0.59225 0.0
H274 H 0.48253 0.23956 0.436 0.0
H275 H 0.52938 0.22275 0.3654 0.0
H276 H 0.65448 0.26645 0.53024 0.0
H277 H 0.66721 0.22672 0.56481 0.0
H278 H 0.6272 0.23873 0.60089 0.0
H279 H 0.56788 0.15354 0.59883 0.0
H280 H 0.60756 0.1414 0.56164 0.0
H281 H 0.55386 0.12338 0.52666 0.0
H282 H 0.58469 0.20319 0.31247 0.0
H283 H 0.64867 0.19268 0.28348 0.0
H284 H 0.67296 0.1823 0.47625 0.0
C285 C 0.54034 0.21644 0.54316 0.0
C286 C 0.5096 0.22818 0.51954 0.0
C287 C 0.50603 0.23077 0.45503 0.0
C288 C 0.53219 0.22089 0.41469 0.0
C289 C 0.56176 0.20871 0.43977 0.0
C290 C 0.5662 0.20708 0.50266 0.0
C291 C 0.60188 0.19573 0.51881 0.0
C292 C 0.63994 0.2342 0.55584 0.0
C293 C 0.58156 0.15084 0.55353 0.0
C294 C 0.61742 0.19163 0.4552 0.0
C295 C 0.59357 0.19848 0.40993 0.0
C296 C 0.60334 0.19757 0.34762 0.0
C297 C 0.63942 0.19115 0.33151 0.0
C298 C 0.66547 0.18642 0.37767 0.0
C299 C 0.65339 0.1855 0.43999 0.0
H300 H 0.46339 0.73981 0.86946 0.0
H301 H 0.55964 0.69443 0.85123 0.0
H302 H 0.51386 0.63084 0.92071 0.0
H303 H 0.42735 0.70029 0.03221 0.0
H304 H 0.36933 0.68153 0.017 0.0
H305 H 0.41286 0.72931 0.97638 0.0
H306 H 0.38045 0.69194 0.87132 0.0
H307 H 0.33548 0.64484 0.91046 0.0
H308 H 0.37007 0.63584 0.85608 0.0
H309 H 0.45327 0.56697 0.98112 0.0
H310 H 0.37979 0.50499 0.01813 0.0
H311 H 0.321 0.58879 0.98987 0.0
C312 C 0.47535 0.71725 0.88196 0.0
C313 C 0.51518 0.72217 0.85607 0.0
C314 C 0.52928 0.69124 0.8713 0.0
C315 C 0.50366 0.65522 0.91097 0.0
C316 C 0.46376 0.65034 0.93463 0.0
C317 C 0.44954 0.68041 0.92046 0.0
C318 C 0.40255 0.66412 0.94469 0.0
C319 C 0.40307 0.69572 0.99556 0.0
C320 C 0.37026 0.65885 0.89252 0.0
C321 C 0.3916 0.61903 0.97096 0.0
C322 C 0.4279 0.61242 0.96707 0.0
C323 C 0.42483 0.57207 0.98538 0.0
C324 C 0.38316 0.53713 0.00649 0.0
C325 C 0.34525 0.54266 0.00739 0.0
C326 C 0.34985 0.5843 0.99063 0.0
H327 H 0.7822 0.454 0.12504 0.0
H328 H 0.74746 0.51565 0.27411 0.0
H329 H 0.76279 0.47103 0.34946 0.0
H330 H 0.73445 0.34299 0.19214 0.0
H331 H 0.77844 0.33478 0.16084 0.0
H332 H 0.76201 0.36994 0.12124 0.0
H333 H 0.84478 0.43524 0.12375 0.0
H334 H 0.86119 0.4007 0.16509 0.0
H335 H 0.87302 0.45423 0.19659 0.0
H336 H 0.78676 0.42114 0.40808 0.0
H337 H 0.80585 0.36399 0.44219 0.0
H338 H 0.82546 0.33861 0.25206 0.0
C339 C 0.77712 0.45768 0.17352 0.0
C340 C 0.7636 0.4881 0.19394 0.0
C341 C 0.75726 0.49198 0.25764 0.0
C342 C 0.76641 0.46721 0.30063 0.0
C343 C 0.78154 0.43875 0.27878 0.0
C344 C 0.78595 0.43342 0.21648 0.0
C345 C 0.80239 0.40092 0.20376 0.0
C346 C 0.76722 0.35972 0.16738 0.0
C347 C 0.84805 0.42419 0.17034 0.0
C348 C 0.80686 0.38866 0.26865 0.0
C349 C 0.79509 0.41085 0.31166 0.0
C350 C 0.79603 0.40368 0.37466 0.0
C351 C 0.80745 0.37163 0.39371 0.0
C352 C 0.81737 0.34721 0.34969 0.0
C353 C 0.81828 0.357 0.28674 0.0
H354 H 0.30123 0.75886 0.53444 0.0
H355 H 0.32701 0.73484 0.34657 0.0
H356 H 0.39273 0.72999 0.38107 0.0
H357 H 0.41499 0.83265 0.57009 0.0
H358 H 0.41089 0.8149 0.64881 0.0
H359 H 0.36239 0.81012 0.61108 0.0
H360 H 0.3174 0.72495 0.63596 0.0
H361 H 0.36576 0.72951 0.67408 0.0
H362 H 0.33942 0.68932 0.61255 0.0
H363 H 0.45681 0.73021 0.43546 0.0
H364 H 0.51858 0.74188 0.50418 0.0
H365 H 0.4551 0.77271 0.65523 0.0
C366 C 0.32017 0.75142 0.50107 0.0
C367 C 0.30882 0.74616 0.43818 0.0
C368 C 0.3351 0.73828 0.39509 0.0
C369 C 0.37232 0.73542 0.41428 0.0
C370 C 0.3832 0.7414 0.47656 0.0
C371 C 0.35818 0.74968 0.51928 0.0
C372 C 0.37971 0.7594 0.58227 0.0
C373 C 0.39277 0.8071 0.60433 0.0
C374 C 0.34872 0.72366 0.62897 0.0
C375 C 0.42086 0.75565 0.56816 0.0
C376 C 0.42177 0.7444 0.5072 0.0
C377 C 0.45646 0.73901 0.4833 0.0
C378 C 0.49134 0.74564 0.52266 0.0
C379 C 0.49171 0.75841 0.58485 0.0
C380 C 0.45584 0.76325 0.60776 0.0
H381 H 0.52511 0.30559 0.85504 0.0
H382 H 0.5752 0.3393 0.66809 0.0
H383 H 0.64808 0.40015 0.70713 0.0
H384 H 0.57565 0.4202 0.90675 0.0
H385 H 0.58741 0.40861 0.98289 0.0
H386 H 0.5407 0.36552 0.94041 0.0
H387 H 0.57252 0.31197 0.95365 0.0
H388 H 0.6195 0.35506 0.99585 0.0
H389 H 0.62905 0.32989 0.92861 0.0
H390 H 0.71615 0.45635 0.76702 0.0
H391 H 0.77058 0.51055 0.84212 0.0
H392 H 0.67355 0.44481 0.98891 0.0
C393 C 0.55163 0.32565 0.82255 0.0
C394 C 0.54491 0.31771 0.75868 0.0
C395 C 0.57987 0.34505 0.71723 0.0
C396 C 0.6214 0.37943 0.73898 0.0
C397 C 0.62708 0.38653 0.80228 0.0
C398 C 0.59289 0.36096 0.84343 0.0
C399 C 0.60649 0.37782 0.90875 0.0
C400 C 0.57574 0.39401 0.9363 0.0
C401 C 0.60692 0.34152 0.94908 0.0
C402 C 0.6536 0.41678 0.89789 0.0
C403 C 0.66521 0.42069 0.83633 0.0
C404 C 0.70735 0.45378 0.81531 0.0
C405 C 0.73811 0.48423 0.85823 0.0
C406 C 0.72612 0.48192 0.92106 0.0
C407 C 0.68346 0.44749 0.94101 0.0
loop_
_geom_bond_atom_site_label_1
_geom_bond_atom_site_label_2
_geom_bond_distance
_geom_bond_site_symmetry_2
_ccdc_geom_bond_type
C0 O2 1.247 . S
C0 O4 1.258 . S
C1 O8 1.247 . S
C1 O9 1.258 1_556 S
O2 C0 1.247 . S
O2 Zn3 2.028 . S
Zn3 O2 2.028 . S
Zn3 O7 2.035 . S
Zn3 O9 2.035 . S
Zn3 O10 2.028 . S
O4 C0 1.258 . S
O4 Zn5 2.035 1_554 S
Zn5 O4 2.035 1_556 S
Zn5 O6 2.028 . S
Zn5 O8 2.028 . S
Zn5 O11 2.035 1_556 S
O6 Zn5 2.028 . S
O6 C12 1.247 . S
O7 Zn3 2.035 . S
O7 C12 1.258 1_554 S
O8 C1 1.247 . S
O8 Zn5 2.028 . S
O9 C1 1.258 1_554 S
O9 Zn3 2.035 . S
O10 Zn3 2.028 . S
O10 C13 1.247 . S
O11 Zn5 2.035 1_554 S
O11 C13 1.258 . S
C12 O6 1.247 . S
C12 O7 1.258 1_556 S
C13 O10 1.247 . S
C13 O11 1.258 . S
C14 O16 1.247 . S
C14 O18 1.258 . S
C15 O22 1.247 . S
C15 O23 1.258 . S
O16 C14 1.247 . S
O16 Zn17 2.028 . S
Zn17 O16 2.028 . S
Zn17 O21 2.035 . S
Zn17 O23 2.035 . S
Zn17 O24 2.028 . S
O18 C14 1.258 . S
O18 Zn19 2.035 . S
Zn19 O18 2.035 . S
Zn19 O20 2.028 . S
Zn19 O22 2.028 . S
Zn19 O25 2.035 . S
O20 Zn19 2.028 . S
O20 C26 1.247 . S
O21 Zn17 2.035 . S
O21 C26 1.258 . S
O22 C15 1.247 . S
O22 Zn19 2.028 . S
O23 C15 1.258 . S
O23 Zn17 2.035 . S
O24 Zn17 2.028 . S
O24 C27 1.247 . S
O25 Zn19 2.035 . S
O25 C27 1.258 . S
C26 O20 1.247 . S
C26 O21 1.258 . S
C27 O24 1.247 . S
C27 O25 1.258 . S
C28 O30 1.247 . S
C28 O32 1.258 . S
C29 O36 1.247 . S
C29 O37 1.258 . S
O30 C28 1.247 . S
O30 Zn31 2.028 . S
Zn31 O30 2.028 . S
Zn31 O35 2.035 . S
Zn31 O37 2.035 . S
Zn31 O38 2.028 . S
O32 C28 1.258 . S
O32 Zn33 2.035 . S
Zn33 O32 2.035 . S
Zn33 O34 2.028 . S
Zn33 O36 2.028 . S
Zn33 O39 2.035 . S
O34 Zn33 2.028 . S
O34 C40 1.247 . S
O35 Zn31 2.035 . S
O35 C40 1.258 . S
O36 C29 1.247 . S
O36 Zn33 2.028 . S
O37 C29 1.258 . S
O37 Zn31 2.035 . S
O38 Zn31 2.028 . S
O38 C41 1.247 . S
O39 Zn33 2.035 . S
O39 C41 1.258 . S
C40 O34 1.247 . S
C40 O35 1.258 . S
C41 O38 1.247 . S
C41 O39 1.258 . S
C42 O44 1.247 . S
C42 O46 1.258 1_556 S
C43 O50 1.247 . S
C43 O51 1.258 . S
O44 C42 1.247 . S
O44 Zn45 2.028 . S
Zn45 O44 2.028 . S
Zn45 O49 2.035 1_556 S
Zn45 O51 2.035 1_556 S
Zn45 O52 2.028 . S
O46 C42 1.258 1_554 S
O46 Zn47 2.035 . S
Zn47 O46 2.035 . S
Zn47 O48 2.028 . S
Zn47 O50 2.028 . S
Zn47 O53 2.035 . S
O48 Zn47 2.028 . S
O48 C54 1.247 . S
O49 Zn45 2.035 1_554 S
O49 C54 1.258 . S
O50 C43 1.247 . S
O50 Zn47 2.028 . S
O51 C43 1.258 . S
O51 Zn45 2.035 1_554 S
O52 Zn45 2.028 . S
O52 C55 1.247 . S
O53 Zn47 2.035 . S
O53 C55 1.258 1_554 S
C54 O48 1.247 . S
C54 O49 1.258 . S
C55 O52 1.247 . S
C55 O53 1.258 1_556 S
C56 O58 1.247 . S
C56 O60 1.258 . S
C57 O64 1.247 . S
C57 O65 1.258 . S
O58 C56 1.247 . S
O58 Zn59 2.028 . S
Zn59 O58 2.028 . S
Zn59 O63 2.035 . S
Zn59 O65 2.035 . S
Zn59 O66 2.028 . S
O60 C56 1.258 . S
O60 Zn61 2.035 . S
Zn61 O60 2.035 . S
Zn61 O62 2.028 . S
Zn61 O64 2.028 . S
Zn61 O67 2.035 . S
O62 Zn61 2.028 . S
O62 C68 1.247 . S
O63 Zn59 2.035 . S
O63 C68 1.258 . S
O64 C57 1.247 . S
O64 Zn61 2.028 . S
O65 C57 1.258 . S
O65 Zn59 2.035 . S
O66 Zn59 2.028 . S
O66 C69 1.247 . S
O67 Zn61 2.035 . S
O67 C69 1.258 . S
C68 O62 1.247 . S
C68 O63 1.258 . S
C69 O66 1.247 . S
C69 O67 1.258 . S
C70 O72 1.247 . S
C70 O74 1.258 . S
C71 O78 1.247 . S
C71 O79 1.258 . S
O72 C70 1.247 . S
O72 Zn73 2.028 . S
Zn73 O72 2.028 . S
Zn73 O77 2.035 . S
Zn73 O79 2.035 . S
Zn73 O80 2.028 . S
O74 C70 1.258 . S
O74 Zn75 2.035 . S
Zn75 O74 2.035 . S
Zn75 O76 2.028 . S
Zn75 O78 2.028 . S
Zn75 O81 2.035 . S
O76 Zn75 2.028 . S
O76 C82 1.247 . S
O77 Zn73 2.035 . S
O77 C82 1.258 . S
O78 C71 1.247 . S
O78 Zn75 2.028 . S
O79 C71 1.258 . S
O79 Zn73 2.035 . S
O80 Zn73 2.028 . S
O80 C83 1.247 . S
O81 Zn75 2.035 . S
O81 C83 1.258 . S
C82 O76 1.247 . S
C82 O77 1.258 . S
C83 O80 1.247 . S
C83 O81 1.258 . S
H84 C96 0.930 . S
H85 C98 0.930 1_554 S
H86 C99 0.930 . S
H87 C103 0.959 . S
H88 C103 0.959 . S
H89 C103 0.961 . S
H90 C104 0.960 . S
H91 C104 0.961 . S
H92 C104 0.959 . S
H93 C107 0.929 . S
H94 C108 0.931 . S
H95 C110 0.930 . S
C96 H84 0.930 . S
C96 C97 1.399 . S
C96 C101 1.399 . S
C97 C96 1.399 . S
C97 C98 1.376 . S
C98 H85 0.930 1_556 S
C98 C97 1.376 . S
C98 C99 1.388 . S
C99 H86 0.930 . S
C99 C98 1.388 . S
C99 C100 1.390 . S
C100 C99 1.390 . S
C100 C101 1.394 . S
C100 C106 1.465 . S
C101 C96 1.399 . S
C101 C100 1.394 . S
C101 C102 1.516 . S
C102 C101 1.516 . S
C102 C103 1.502 . S
C102 C104 1.561 . S
C102 C105 1.526 . S
C103 H87 0.959 . S
C103 H88 0.959 . S
C103 H89 0.961 . S
C103 C102 1.502 . S
C104 H90 0.960 . S
C104 H91 0.961 . S
C104 H92 0.959 . S
C104 C102 1.561 . S
C105 C102 1.526 . S
C105 C106 1.396 . S
C105 C110 1.390 . S
C106 C100 1.465 . S
C106 C105 1.396 . S
C106 C107 1.399 . S
C107 H93 0.929 . S
C107 C106 1.399 . S
C107 C108 1.385 . S
C108 H94 0.931 . S
C108 C107 1.385 . S
C108 C109 1.389 . S
C109 C108 1.389 . S
C109 C110 1.387 . S
C110 H95 0.930 . S
C110 C105 1.390 . S
C110 C109 1.387 . S
H111 C123 0.930 . S
H112 C125 0.930 . S
H113 C126 0.930 . S
H114 C130 0.959 . S
H115 C130 0.959 . S
H116 C130 0.976 . S
H117 C131 0.960 . S
H118 C131 0.961 . S
H119 C131 0.959 . S
H120 C134 0.929 . S
H121 C135 0.931 . S
H122 C137 0.930 . S
C123 H111 0.930 . S
C123 C124 1.399 . S
C123 C128 1.399 . S
C124 C123 1.399 . S
C124 C125 1.376 . S
C125 H112 0.930 . S
C125 C124 1.376 . S
C125 C126 1.388 . S
C126 H113 0.930 . S
C126 C125 1.388 . S
C126 C127 1.390 . S
C127 C126 1.390 . S
C127 C128 1.394 . S
C127 C133 1.465 1_655 S
C128 C123 1.399 . S
C128 C127 1.394 . S
C128 C129 1.516 1_655 S
C129 C128 1.516 1_455 S
C129 C130 1.502 . S
C129 C131 1.561 . S
C129 C132 1.526 . S
C130 H114 0.959 . S
C130 H115 0.959 . S
C130 H116 0.976 . S
C130 C129 1.502 . S
C131 H117 0.960 . S
C131 H118 0.961 . S
C131 H119 0.959 . S
C131 C129 1.561 . S
C132 C129 1.526 . S
C132 C133 1.396 . S
C132 C137 1.390 . S
C133 C127 1.465 1_455 S
C133 C132 1.396 . S
C133 C134 1.399 . S
C134 H120 0.929 . S
C134 C133 1.399 . S
C134 C135 1.385 . S
C135 H121 0.931 . S
C135 C134 1.385 . S
C135 C136 1.389 . S
C136 C135 1.389 . S
C136 C137 1.387 . S
C137 H122 0.930 . S
C137 C132 1.390 . S
C137 C136 1.387 . S
H138 C150 0.930 . S
H139 C152 0.930 . S
H140 C153 0.930 1_565 S
H141 C157 0.959 . S
H142 C157 0.959 . S
H143 C157 0.961 . S
H144 C158 0.960 . S
H145 C158 0.961 . S
H146 C158 0.959 . S
H147 C161 0.929 . S
H148 C162 0.931 . S
H149 C164 0.930 . S
C150 H138 0.930 . S
C150 C151 1.399 . S
C150 C155 1.399 . S
C151 C150 1.399 . S
C151 C152 1.376 . S
C152 H139 0.930 . S
C152 C151 1.376 . S
C152 C153 1.388 . S
C153 H140 0.930 1_545 S
C153 C152 1.388 . S
C153 C154 1.390 . S
C154 C153 1.390 . S
C154 C155 1.394 . S
C154 C160 1.465 1_545 S
C155 C150 1.399 . S
C155 C154 1.394 . S
C155 C156 1.516 . S
C156 C155 1.516 . S
C156 C157 1.502 . S
C156 C158 1.561 . S
C156 C159 1.526 1_545 S
C157 H141 0.959 . S
C157 H142 0.959 . S
C157 H143 0.961 . S
C157 C156 1.502 . S
C158 H144 0.960 . S
C158 H145 0.961 . S
C158 H146 0.959 . S
C158 C156 1.561 . S
C159 C156 1.526 1_565 S
C159 C160 1.396 . S
C159 C164 1.390 . S
C160 C154 1.465 1_565 S
C160 C159 1.396 . S
C160 C161 1.399 . S
C161 H147 0.929 . S
C161 C160 1.399 . S
C161 C162 1.385 . S
C162 H148 0.931 . S
C162 C161 1.385 . S
C162 C163 1.389 . S
C163 C162 1.389 . S
C163 C164 1.387 . S
C164 H149 0.930 . S
C164 C159 1.390 . S
C164 C163 1.387 . S
H165 C177 0.930 . S
H166 C179 0.930 . S
H167 C180 0.930 . S
H168 C184 0.959 . S
H169 C184 0.959 . S
H170 C184 0.962 1_554 S
H171 C185 0.960 . S
H172 C185 0.961 . S
H173 C185 0.959 . S
H174 C188 0.929 . S
H175 C189 0.931 . S
H176 C191 0.930 . S
C177 H165 0.930 . S
C177 C178 1.399 . S
C177 C182 1.399 . S
C178 C177 1.399 . S
C178 C179 1.376 . S
C179 H166 0.930 . S
C179 C178 1.376 . S
C179 C180 1.388 . S
C180 H167 0.930 . S
C180 C179 1.388 . S
C180 C181 1.390 . S
C181 C180 1.390 . S
C181 C182 1.394 . S
C181 C187 1.465 . S
C182 C177 1.399 . S
C182 C181 1.394 . S
C182 C183 1.516 . S
C183 C182 1.516 . S
C183 C184 1.502 . S
C183 C185 1.561 . S
C183 C186 1.526 . S
C184 H168 0.959 . S
C184 H169 0.959 . S
C184 H170 0.962 1_556 S
C184 C183 1.502 . S
C185 H171 0.960 . S
C185 H172 0.961 . S
C185 H173 0.959 . S
C185 C183 1.561 . S
C186 C183 1.526 . S
C186 C187 1.396 . S
C186 C191 1.390 . S
C187 C181 1.465 . S
C187 C186 1.396 . S
C187 C188 1.399 . S
C188 H174 0.929 . S
C188 C187 1.399 . S
C188 C189 1.385 . S
C189 H175 0.931 . S
C189 C188 1.385 . S
C189 C190 1.389 . S
C190 C189 1.389 . S
C190 C191 1.387 . S
C191 H176 0.930 . S
C191 C186 1.390 . S
C191 C190 1.387 . S
H192 C204 0.930 . S
H193 C206 0.930 . S
H194 C207 0.930 . S
H195 C211 0.959 . S
H196 C211 0.959 . S
H197 C211 0.961 . S
H198 C212 0.960 . S
H199 C212 0.961 . S
H200 C212 0.959 . S
H201 C215 0.927 1_655 S
H202 C216 0.931 . S
H203 C218 0.930 . S
C204 H192 0.930 . S
C204 C205 1.399 . S
C204 C209 1.399 . S
C205 C204 1.399 . S
C205 C206 1.376 . S
C206 H193 0.930 . S
C206 C205 1.376 . S
C206 C207 1.388 . S
C207 H194 0.930 . S
C207 C206 1.388 . S
C207 C208 1.390 . S
C208 C207 1.390 . S
C208 C209 1.394 . S
C208 C214 1.465 1_655 S
C209 C204 1.399 . S
C209 C208 1.394 . S
C209 C210 1.516 1_655 S
C210 C209 1.516 1_455 S
C210 C211 1.502 . S
C210 C212 1.561 . S
C210 C213 1.526 . S
C211 H195 0.959 . S
C211 H196 0.959 . S
C211 H197 0.961 . S
C211 C210 1.502 . S
C212 H198 0.960 . S
C212 H199 0.961 . S
C212 H200 0.959 . S
C212 C210 1.561 . S
C213 C210 1.526 . S
C213 C214 1.396 . S
C213 C218 1.390 . S
C214 C208 1.465 1_455 S
C214 C213 1.396 . S
C214 C215 1.399 . S
C215 H201 0.927 1_455 S
C215 C214 1.399 . S
C215 C216 1.385 . S
C216 H202 0.931 . S
C216 C215 1.385 . S
C216 C217 1.389 . S
C217 C216 1.389 . S
C217 C218 1.387 . S
C218 H203 0.930 . S
C218 C213 1.390 . S
C218 C217 1.387 . S
H219 C231 0.930 . S
H220 C233 0.930 . S
H221 C234 0.930 . S
H222 C238 0.959 1_565 S
H223 C238 0.959 1_565 S
H224 C238 0.961 . S
H225 C239 0.960 . S
H226 C239 0.961 . S
H227 C239 0.959 . S
H228 C242 0.929 . S
H229 C243 0.931 . S
H230 C245 0.930 . S
C231 H219 0.930 . S
C231 C232 1.399 . S
C231 C236 1.399 . S
C232 C231 1.399 . S
C232 C233 1.376 . S
C233 H220 0.930 . S
C233 C232 1.376 . S
C233 C234 1.388 . S
C234 H221 0.930 . S
C234 C233 1.388 . S
C234 C235 1.390 . S
C235 C234 1.390 . S
C235 C236 1.394 . S
C235 C241 1.465 1_545 S
C236 C231 1.399 . S
C236 C235 1.394 . S
C236 C237 1.516 . S
C237 C236 1.516 . S
C237 C238 1.502 . S
C237 C239 1.561 . S
C237 C240 1.526 1_545 S
C238 H222 0.959 1_545 S
C238 H223 0.959 1_545 S
C238 H224 0.961 . S
C238 C237 1.502 . S
C239 H225 0.960 . S
C239 H226 0.961 . S
C239 H227 0.959 . S
C239 C237 1.561 . S
C240 C237 1.526 1_565 S
C240 C241 1.396 . S
C240 C245 1.390 . S
C241 C235 1.465 1_565 S
C241 C240 1.396 . S
C241 C242 1.399 . S
C242 H228 0.929 . S
C242 C241 1.399 . S
C242 C243 1.385 . S
C243 H229 0.931 . S
C243 C242 1.385 . S
C243 C244 1.389 . S
C244 C243 1.389 . S
C244 C245 1.387 . S
C245 H230 0.930 . S
C245 C240 1.390 . S
C245 C244 1.387 . S
H246 C258 0.930 . S
H247 C260 0.930 . S
H248 C261 0.930 . S
H249 C265 0.959 . S
H250 C265 0.959 . S
H251 C265 0.961 . S
H252 C266 0.960 . S
H253 C266 0.961 . S
H254 C266 0.959 . S
H255 C269 0.929 . S
H256 C270 0.931 . S
H257 C272 0.930 . S
C258 H246 0.930 . S
C258 C259 1.399 . S
C258 C263 1.399 . S
C259 C258 1.399 . S
C259 C260 1.376 . S
C260 H247 0.930 . S
C260 C259 1.376 . S
C260 C261 1.388 . S
C261 H248 0.930 . S
C261 C260 1.388 . S
C261 C262 1.390 . S
C262 C261 1.390 . S
C262 C263 1.394 . S
C262 C268 1.465 . S
C263 C258 1.399 . S
C263 C262 1.394 . S
C263 C264 1.516 . S
C264 C263 1.516 . S
C264 C265 1.502 . S
C264 C266 1.561 . S
C264 C267 1.526 . S
C265 H249 0.959 . S
C265 H250 0.959 . S
C265 H251 0.961 . S
C265 C264 1.502 . S
C266 H252 0.960 . S
C266 H253 0.961 . S
C266 H254 0.959 . S
C266 C264 1.561 . S
C267 C264 1.526 . S
C267 C268 1.396 . S
C267 C272 1.390 . S
C268 C262 1.465 . S
C268 C267 1.396 . S
C268 C269 1.399 . S
C269 H255 0.929 . S
C269 C268 1.399 . S
C269 C270 1.385 . S
C270 H256 0.931 . S
C270 C269 1.385 . S
C270 C271 1.389 . S
C271 C270 1.389 . S
C271 C272 1.387 . S
C272 H257 0.930 . S
C272 C267 1.390 . S
C272 C271 1.387 . S
H273 C285 0.930 . S
H274 C287 0.930 . S
H275 C288 0.930 . S
H276 C292 0.959 . S
H277 C292 0.959 . S
H278 C292 0.961 . S
H279 C293 0.960 . S
H280 C293 0.961 . S
H281 C293 0.959 . S
H282 C296 0.929 . S
H283 C297 0.931 . S
H284 C299 0.930 . S
C285 H273 0.930 . S
C285 C286 1.399 . S
C285 C290 1.399 . S
C286 C285 1.399 . S
C286 C287 1.376 . S
C287 H274 0.930 . S
C287 C286 1.376 . S
C287 C288 1.388 . S
C288 H275 0.930 . S
C288 C287 1.388 . S
C288 C289 1.390 . S
C289 C288 1.390 . S
C289 C290 1.394 . S
C289 C295 1.465 . S
C290 C285 1.399 . S
C290 C289 1.394 . S
C290 C291 1.516 . S
C291 C290 1.516 . S
C291 C292 1.502 . S
C291 C293 1.561 . S
C291 C294 1.526 . S
C292 H276 0.959 . S
C292 H277 0.959 . S
C292 H278 0.961 . S
C292 C291 1.502 . S
C293 H279 0.960 . S
C293 H280 0.961 . S
C293 H281 0.959 . S
C293 C291 1.561 . S
C294 C291 1.526 . S
C294 C295 1.396 . S
C294 C299 1.390 . S
C295 C289 1.465 . S
C295 C294 1.396 . S
C295 C296 1.399 . S
C296 H282 0.929 . S
C296 C295 1.399 . S
C296 C297 1.385 . S
C297 H283 0.931 . S
C297 C296 1.385 . S
C297 C298 1.389 . S
C298 C297 1.389 . S
C298 C299 1.387 . S
C299 H284 0.930 . S
C299 C294 1.390 . S
C299 C298 1.387 . S
H300 C312 0.930 . S
H301 C314 0.930 . S
H302 C315 0.930 . S
H303 C319 0.959 . S
H304 C319 0.948 1_554 S
H305 C319 0.961 . S
H306 C320 0.960 . S
H307 C320 0.961 . S
H308 C320 0.959 . S
H309 C323 0.929 . S
H310 C324 0.931 . S
H311 C326 0.930 . S
C312 H300 0.930 . S
C312 C313 1.399 . S
C312 C317 1.399 . S
C313 C312 1.399 . S
C313 C314 1.376 . S
C314 H301 0.930 . S
C314 C313 1.376 . S
C314 C315 1.388 . S
C315 H302 0.930 . S
C315 C314 1.388 . S
C315 C316 1.390 . S
C316 C315 1.390 . S
C316 C317 1.394 . S
C316 C322 1.465 . S
C317 C312 1.399 . S
C317 C316 1.394 . S
C317 C318 1.516 . S
C318 C317 1.516 . S
C318 C319 1.502 . S
C318 C320 1.561 . S
C318 C321 1.526 . S
C319 H303 0.959 . S
C319 H304 0.948 1_556 S
C319 H305 0.961 . S
C319 C318 1.502 . S
C320 H306 0.960 . S
C320 H307 0.961 . S
C320 H308 0.959 . S
C320 C318 1.561 . S
C321 C318 1.526 . S
C321 C322 1.396 . S
C321 C326 1.390 . S
C322 C316 1.465 . S
C322 C321 1.396 . S
C322 C323 1.399 . S
C323 H309 0.929 . S
C323 C322 1.399 . S
C323 C324 1.385 . S
C324 H310 0.931 . S
C324 C323 1.385 . S
C324 C325 1.389 . S
C325 C324 1.389 . S
C325 C326 1.387 . S
C326 H311 0.930 . S
C326 C321 1.390 . S
C326 C325 1.387 . S
H327 C339 0.930 . S
H328 C341 0.930 . S
H329 C342 0.930 . S
H330 C346 0.959 . S
H331 C346 0.959 . S
H332 C346 0.961 . S
H333 C347 0.960 . S
H334 C347 0.961 . S
H335 C347 0.959 . S
H336 C350 0.929 . S
H337 C351 0.931 . S
H338 C353 0.930 . S
C339 H327 0.930 . S
C339 C340 1.399 . S
C339 C344 1.399 . S
C340 C339 1.399 . S
C340 C341 1.376 . S
C341 H328 0.930 . S
C341 C340 1.376 . S
C341 C342 1.388 . S
C342 H329 0.930 . S
C342 C341 1.388 . S
C342 C343 1.390 . S
C343 C342 1.390 . S
C343 C344 1.394 . S
C343 C349 1.465 . S
C344 C339 1.399 . S
C344 C343 1.394 . S
C344 C345 1.516 . S
C345 C344 1.516 . S
C345 C346 1.502 . S
C345 C347 1.561 . S
C345 C348 1.526 . S
C346 H330 0.959 . S
C346 H331 0.959 . S
C346 H332 0.961 . S
C346 C345 1.502 . S
C347 H333 0.960 . S
C347 H334 0.961 . S
C347 H335 0.959 . S
C347 C345 1.561 . S
C348 C345 1.526 . S
C348 C349 1.396 . S
C348 C353 1.390 . S
C349 C343 1.465 . S
C349 C348 1.396 . S
C349 C350 1.399 . S
C350 H336 0.929 . S
C350 C349 1.399 . S
C350 C351 1.385 . S
C351 H337 0.931 . S
C351 C350 1.385 . S
C351 C352 1.389 . S
C352 C351 1.389 . S
C352 C353 1.387 . S
C353 H338 0.930 . S
C353 C348 1.390 . S
C353 C352 1.387 . S
H354 C366 0.930 . S
H355 C368 0.930 . S
H356 C369 0.930 . S
H357 C373 0.959 . S
H358 C373 0.959 . S
H359 C373 0.961 . S
H360 C374 0.960 . S
H361 C374 0.961 . S
H362 C374 0.959 . S
H363 C377 0.929 . S
H364 C378 0.931 . S
H365 C380 0.930 . S
C366 H354 0.930 . S
C366 C367 1.399 . S
C366 C371 1.399 . S
C367 C366 1.399 . S
C367 C368 1.376 . S
C368 H355 0.930 . S
C368 C367 1.376 . S
C368 C369 1.388 . S
C369 H356 0.930 . S
C369 C368 1.388 . S
C369 C370 1.390 . S
C370 C369 1.390 . S
C370 C371 1.394 . S
C370 C376 1.465 . S
C371 C366 1.399 . S
C371 C370 1.394 . S
C371 C372 1.516 . S
C372 C371 1.516 . S
C372 C373 1.502 . S
C372 C374 1.561 . S
C372 C375 1.526 . S
C373 H357 0.959 . S
C373 H358 0.959 . S
C373 H359 0.961 . S
C373 C372 1.502 . S
C374 H360 0.960 . S
C374 H361 0.961 . S
C374 H362 0.959 . S
C374 C372 1.561 . S
C375 C372 1.526 . S
C375 C376 1.396 . S
C375 C380 1.390 . S
C376 C370 1.465 . S
C376 C375 1.396 . S
C376 C377 1.399 . S
C377 H363 0.929 . S
C377 C376 1.399 . S
C377 C378 1.385 . S
C378 H364 0.931 . S
C378 C377 1.385 . S
C378 C379 1.389 . S
C379 C378 1.389 . S
C379 C380 1.387 . S
C380 H365 0.930 . S
C380 C375 1.390 . S
C380 C379 1.387 . S
H381 C393 0.930 . S
H382 C395 0.930 . S
H383 C396 0.930 . S
H384 C400 0.959 . S
H385 C400 0.959 . S
H386 C400 0.961 . S
H387 C401 0.960 . S
H388 C401 0.961 1_554 S
H389 C401 0.959 . S
H390 C404 0.929 . S
H391 C405 0.931 . S
H392 C407 0.930 . S
C393 H381 0.930 . S
C393 C394 1.399 . S
C393 C398 1.399 . S
C394 C393 1.399 . S
C394 C395 1.376 . S
C395 H382 0.930 . S
C395 C394 1.376 . S
C395 C396 1.388 . S
C396 H383 0.930 . S
C396 C395 1.388 . S
C396 C397 1.390 . S
C397 C396 1.390 . S
C397 C398 1.394 . S
C397 C403 1.465 . S
C398 C393 1.399 . S
C398 C397 1.394 . S
C398 C399 1.516 . S
C399 C398 1.516 . S
C399 C400 1.502 . S
C399 C401 1.561 . S
C399 C402 1.526 . S
C400 H384 0.959 . S
C400 H385 0.959 . S
C400 H386 0.961 . S
C400 C399 1.502 . S
C401 H387 0.960 . S
C401 H388 0.961 1_556 S
C401 H389 0.959 . S
C401 C399 1.561 . S
C402 C399 1.526 . S
C402 C403 1.396 . S
C402 C407 1.390 . S
C403 C397 1.465 . S
C403 C402 1.396 . S
C403 C404 1.399 . S
C404 H390 0.929 . S
C404 C403 1.399 . S
C404 C405 1.385 . S
C405 H391 0.931 . S
C405 C404 1.385 . S
C405 C406 1.389 . S
C406 C405 1.389 . S
C406 C407 1.387 . S
C407 H392 0.930 . S
C407 C402 1.390 . S
C407 C406 1.387 . S
C97 C12 1.406 . S
C109 C83 1.418 . S
C124 C26 1.427 . S
C136 C0 1.422 . S
C151 C14 1.401 . S
C163 C28 1.413 . S
C178 C42 1.415 . S
C190 C40 1.404 . S
C205 C54 1.414 . S
C217 C57 1.401 . S
C232 C71 1.395 . S
C244 C69 1.398 . S
C259 C68 1.466 . S
C271 C13 1.479 . S
C286 C82 1.478 . S
C298 C27 1.492 . S
C313 C29 1.470 . S
C325 C1 1.484 . S
C340 C43 1.466 . S
C352 C15 1.478 . S
C367 C56 1.491 . S
C379 C41 1.499 . S
C394 C70 1.465 . S
C406 C55 1.477 . S
