# Generated by pormake.
# Topology uka, (4)-cn, num edge types: 1
# Building blocks:
#     Node 0, Type 0, BuildingBlock: GALJAG_clean_sbu_0, # of connection points: 4
#     Node 1, Type 0, BuildingBlock: GALJAG_clean_sbu_0, # of connection points: 4
#     Node 2, Type 0, BuildingBlock: GALJAG_clean_sbu_0, # of connection points: 4
#     Node 3, Type 0, BuildingBlock: GALJAG_clean_sbu_0, # of connection points: 4
#     Node 4, Type 0, BuildingBlock: GALJAG_clean_sbu_0, # of connection points: 4
#     Node 5, Type 0, BuildingBlock: GALJAG_clean_sbu_0, # of connection points: 4
#     Node 6, Type 0, BuildingBlock: GALJAG_clean_sbu_0, # of connection points: 4
#     Node 7, Type 0, BuildingBlock: GALJAG_clean_sbu_0, # of connection points: 4
#     Node 8, Type 0, BuildingBlock: GALJAG_clean_sbu_0, # of connection points: 4
#     Node 9, Type 0, BuildingBlock: GALJAG_clean_sbu_0, # of connection points: 4
#     Node 10, Type 0, BuildingBlock: GALJAG_clean_sbu_0, # of connection points: 4
#     Node 11, Type 0, BuildingBlock: GALJAG_clean_sbu_0, # of connection points: 4
#     Node 12, Type 0, BuildingBlock: GALJAG_clean_sbu_0, # of connection points: 4
#     Node 13, Type 0, BuildingBlock: GALJAG_clean_sbu_0, # of connection points: 4
#     Node 14, Type 0, BuildingBlock: GALJAG_clean_sbu_0, # of connection points: 4
#     Node 15, Type 0, BuildingBlock: GALJAG_clean_sbu_0, # of connection points: 4
#     Node 16, Type 0, BuildingBlock: GALJAG_clean_sbu_0, # of connection points: 4
#     Node 17, Type 0, BuildingBlock: GALJAG_clean_sbu_0, # of connection points: 4
#     Node 18, Type 0, BuildingBlock: GALJAG_clean_sbu_0, # of connection points: 4
#     Node 19, Type 0, BuildingBlock: GALJAG_clean_sbu_0, # of connection points: 4
#     Node 20, Type 0, BuildingBlock: GALJAG_clean_sbu_0, # of connection points: 4
#     Node 21, Type 0, BuildingBlock: GALJAG_clean_sbu_0, # of connection points: 4
#     Node 22, Type 0, BuildingBlock: GALJAG_clean_sbu_0, # of connection points: 4
#     Node 23, Type 0, BuildingBlock: GALJAG_clean_sbu_0, # of connection points: 4
#     Node 24, Type 0, BuildingBlock: GALJAG_clean_sbu_0, # of connection points: 4
#     Node 25, Type 0, BuildingBlock: GALJAG_clean_sbu_0, # of connection points: 4
#     Node 26, Type 0, BuildingBlock: GALJAG_clean_sbu_0, # of connection points: 4
#     Node 27, Type 0, BuildingBlock: GALJAG_clean_sbu_0, # of connection points: 4
#     Node 28, Type 0, BuildingBlock: GALJAG_clean_sbu_0, # of connection points: 4
#     Node 29, Type 0, BuildingBlock: GALJAG_clean_sbu_0, # of connection points: 4
#     Node 30, Type 0, BuildingBlock: GALJAG_clean_sbu_0, # of connection points: 4
#     Node 31, Type 0, BuildingBlock: GALJAG_clean_sbu_0, # of connection points: 4
#     Edge 32, Type (0, 0), BuildingBlock: XUDNAN_clean_linker_2, # of connection points: 2
#     Edge 33, Type (0, 0), BuildingBlock: XUDNAN_clean_linker_2, # of connection points: 2
#     Edge 34, Type (0, 0), BuildingBlock: XUDNAN_clean_linker_2, # of connection points: 2
#     Edge 35, Type (0, 0), BuildingBlock: XUDNAN_clean_linker_2, # of connection points: 2
#     Edge 36, Type (0, 0), BuildingBlock: XUDNAN_clean_linker_2, # of connection points: 2
#     Edge 37, Type (0, 0), BuildingBlock: XUDNAN_clean_linker_2, # of connection points: 2
#     Edge 38, Type (0, 0), BuildingBlock: XUDNAN_clean_linker_2, # of connection points: 2
#     Edge 39, Type (0, 0), BuildingBlock: XUDNAN_clean_linker_2, # of connection points: 2
#     Edge 40, Type (0, 0), BuildingBlock: XUDNAN_clean_linker_2, # of connection points: 2
#     Edge 41, Type (0, 0), BuildingBlock: XUDNAN_clean_linker_2, # of connection points: 2
#     Edge 42, Type (0, 0), BuildingBlock: XUDNAN_clean_linker_2, # of connection points: 2
#     Edge 43, Type (0, 0), BuildingBlock: XUDNAN_clean_linker_2, # of connection points: 2
#     Edge 44, Type (0, 0), BuildingBlock: XUDNAN_clean_linker_2, # of connection points: 2
#     Edge 45, Type (0, 0), BuildingBlock: XUDNAN_clean_linker_2, # of connection points: 2
#     Edge 46, Type (0, 0), BuildingBlock: XUDNAN_clean_linker_2, # of connection points: 2
#     Edge 47, Type (0, 0), BuildingBlock: XUDNAN_clean_linker_2, # of connection points: 2
#     Edge 48, Type (0, 0), BuildingBlock: XUDNAN_clean_linker_2, # of connection points: 2
#     Edge 49, Type (0, 0), BuildingBlock: XUDNAN_clean_linker_2, # of connection points: 2
#     Edge 50, Type (0, 0), BuildingBlock: XUDNAN_clean_linker_2, # of connection points: 2
#     Edge 51, Type (0, 0), BuildingBlock: XUDNAN_clean_linker_2, # of connection points: 2
#     Edge 52, Type (0, 0), BuildingBlock: XUDNAN_clean_linker_2, # of connection points: 2
#     Edge 53, Type (0, 0), BuildingBlock: XUDNAN_clean_linker_2, # of connection points: 2
#     Edge 54, Type (0, 0), BuildingBlock: XUDNAN_clean_linker_2, # of connection points: 2
#     Edge 55, Type (0, 0), BuildingBlock: XUDNAN_clean_linker_2, # of connection points: 2
#     Edge 56, Type (0, 0), BuildingBlock: XUDNAN_clean_linker_2, # of connection points: 2
#     Edge 57, Type (0, 0), BuildingBlock: XUDNAN_clean_linker_2, # of connection points: 2
#     Edge 58, Type (0, 0), BuildingBlock: XUDNAN_clean_linker_2, # of connection points: 2
#     Edge 59, Type (0, 0), BuildingBlock: XUDNAN_clean_linker_2, # of connection points: 2
#     Edge 60, Type (0, 0), BuildingBlock: XUDNAN_clean_linker_2, # of connection points: 2
#     Edge 61, Type (0, 0), BuildingBlock: XUDNAN_clean_linker_2, # of connection points: 2
#     Edge 62, Type (0, 0), BuildingBlock: XUDNAN_clean_linker_2, # of connection points: 2
#     Edge 63, Type (0, 0), BuildingBlock: XUDNAN_clean_linker_2, # of connection points: 2
#     Edge 64, Type (0, 0), BuildingBlock: XUDNAN_clean_linker_2, # of connection points: 2
#     Edge 65, Type (0, 0), BuildingBlock: XUDNAN_clean_linker_2, # of connection points: 2
#     Edge 66, Type (0, 0), BuildingBlock: XUDNAN_clean_linker_2, # of connection points: 2
#     Edge 67, Type (0, 0), BuildingBlock: XUDNAN_clean_linker_2, # of connection points: 2
#     Edge 68, Type (0, 0), BuildingBlock: XUDNAN_clean_linker_2, # of connection points: 2
#     Edge 69, Type (0, 0), BuildingBlock: XUDNAN_clean_linker_2, # of connection points: 2
#     Edge 70, Type (0, 0), BuildingBlock: XUDNAN_clean_linker_2, # of connection points: 2
#     Edge 71, Type (0, 0), BuildingBlock: XUDNAN_clean_linker_2, # of connection points: 2
#     Edge 72, Type (0, 0), BuildingBlock: XUDNAN_clean_linker_2, # of connection points: 2
#     Edge 73, Type (0, 0), BuildingBlock: XUDNAN_clean_linker_2, # of connection points: 2
#     Edge 74, Type (0, 0), BuildingBlock: XUDNAN_clean_linker_2, # of connection points: 2
#     Edge 75, Type (0, 0), BuildingBlock: XUDNAN_clean_linker_2, # of connection points: 2
#     Edge 76, Type (0, 0), BuildingBlock: XUDNAN_clean_linker_2, # of connection points: 2
#     Edge 77, Type (0, 0), BuildingBlock: XUDNAN_clean_linker_2, # of connection points: 2
#     Edge 78, Type (0, 0), BuildingBlock: XUDNAN_clean_linker_2, # of connection points: 2
#     Edge 79, Type (0, 0), BuildingBlock: XUDNAN_clean_linker_2, # of connection points: 2
#     Edge 80, Type (0, 0), BuildingBlock: XUDNAN_clean_linker_2, # of connection points: 2
#     Edge 81, Type (0, 0), BuildingBlock: XUDNAN_clean_linker_2, # of connection points: 2
#     Edge 82, Type (0, 0), BuildingBlock: XUDNAN_clean_linker_2, # of connection points: 2
#     Edge 83, Type (0, 0), BuildingBlock: XUDNAN_clean_linker_2, # of connection points: 2
#     Edge 84, Type (0, 0), BuildingBlock: XUDNAN_clean_linker_2, # of connection points: 2
#     Edge 85, Type (0, 0), BuildingBlock: XUDNAN_clean_linker_2, # of connection points: 2
#     Edge 86, Type (0, 0), BuildingBlock: XUDNAN_clean_linker_2, # of connection points: 2
#     Edge 87, Type (0, 0), BuildingBlock: XUDNAN_clean_linker_2, # of connection points: 2
#     Edge 88, Type (0, 0), BuildingBlock: XUDNAN_clean_linker_2, # of connection points: 2
#     Edge 89, Type (0, 0), BuildingBlock: XUDNAN_clean_linker_2, # of connection points: 2
#     Edge 90, Type (0, 0), BuildingBlock: XUDNAN_clean_linker_2, # of connection points: 2
#     Edge 91, Type (0, 0), BuildingBlock: XUDNAN_clean_linker_2, # of connection points: 2
#     Edge 92, Type (0, 0), BuildingBlock: XUDNAN_clean_linker_2, # of connection points: 2
#     Edge 93, Type (0, 0), BuildingBlock: XUDNAN_clean_linker_2, # of connection points: 2
#     Edge 94, Type (0, 0), BuildingBlock: XUDNAN_clean_linker_2, # of connection points: 2
#     Edge 95, Type (0, 0), BuildingBlock: XUDNAN_clean_linker_2, # of connection points: 2
# Relax obj value: 0.105
# Max RMSD: 0.149
# Mean RMSD: 0.149
data_MOF--net-uka--node1-GALJAG_clean_sbu_0--edge1-XUDNAN_clean_linker_2
_symmetry_space_group_name_H-M    P1
_symmetry_Int_Tables_number       1
_symmetry_cell_setting            triclinic
loop_
_symmetry_equiv_pos_as_xyz
'x, y, z'
_cell_length_a     56.703544
_cell_length_b     56.685624
_cell_length_c     46.672006
_cell_angle_alpha  89.974
_cell_angle_beta   89.986209
_cell_angle_gamma 89.894216
loop_
_atom_site_label
_atom_site_type_symbol
_atom_site_fract_x
_atom_site_fract_y
_atom_site_fract_z
_atom_type_partial_charge
In0 In 0.11544 0.26364 0.25899 0.0
O1 O 0.15503 0.26869 0.26372 0.0
O2 O 0.14269 0.24294 0.234 0.0
C3 C 0.09709 0.28845 0.30257 0.0
C4 C 0.10108 0.28912 0.21349 0.0
C5 C 0.1047 0.22199 0.28283 0.0
O6 O 0.11891 0.28877 0.29693 0.0
O7 O 0.08467 0.27639 0.28559 0.0
O8 O 0.09434 0.229 0.26027 0.0
O9 O 0.12027 0.23575 0.29235 0.0
C10 C 0.16014 0.25255 0.24608 0.0
O11 O 0.09387 0.26826 0.21759 0.0
O12 O 0.11548 0.29658 0.23197 0.0
In13 In 0.97098 0.88128 0.51758 0.0
O14 O 0.97369 0.86431 0.4729 0.0
O15 O 0.93988 0.87435 0.48871 0.0
C16 C 0.01405 0.87451 0.54073 0.0
C17 C 0.9674 0.92837 0.51184 0.0
C18 C 0.94743 0.8534 0.55409 0.0
O19 O 0.00931 0.8678 0.51553 0.0
O20 O 0.99734 0.88472 0.55348 0.0
O21 O 0.94911 0.87536 0.55814 0.0
O22 O 0.95774 0.84567 0.53208 0.0
C23 C 0.95159 0.86459 0.46901 0.0
O24 O 0.95296 0.91648 0.52646 0.0
O25 O 0.98318 0.91641 0.49945 0.0
In26 In 0.36877 0.70918 0.76494 0.0
O27 O 0.38864 0.7101 0.72193 0.0
O28 O 0.37524 0.6773 0.73664 0.0
C29 C 0.37136 0.75384 0.7842 0.0
C30 C 0.32216 0.70869 0.75546 0.0
C31 C 0.38999 0.68973 0.81104 0.0
O32 O 0.38693 0.74537 0.76766 0.0
O33 O 0.35463 0.74008 0.78991 0.0
O34 O 0.36901 0.68503 0.80413 0.0
O35 O 0.40056 0.70331 0.79397 0.0
C36 C 0.3862 0.68828 0.71732 0.0
O37 O 0.33206 0.69496 0.77312 0.0
O38 O 0.33601 0.72184 0.74148 0.0
In39 In 0.52352 0.11864 0.00301 0.0
O40 O 0.53091 0.07955 0.99628 0.0
O41 O 0.50225 0.09485 0.97353 0.0
C42 C 0.55781 0.11648 0.04296 0.0
C43 C 0.5317 0.15036 0.96098 0.0
C44 C 0.4877 0.13237 0.03685 0.0
O45 O 0.53736 0.10853 0.04684 0.0
O46 O 0.56155 0.12459 0.01817 0.0
O47 O 0.50631 0.14431 0.0339 0.0
O48 O 0.48665 0.11402 0.02159 0.0
C49 C 0.51395 0.0765 0.97922 0.0
O50 O 0.51581 0.15309 0.97956 0.0
O51 O 0.54348 0.13158 0.9635 0.0
In52 In 0.11889 0.73003 0.23856 0.0
O53 O 0.15335 0.71156 0.24772 0.0
O54 O 0.15222 0.7487 0.2541 0.0
C55 C 0.11209 0.69592 0.19934 0.0
C56 C 0.09066 0.72029 0.28377 0.0
C57 C 0.10978 0.76954 0.20787 0.0
O58 O 0.13016 0.70878 0.19971 0.0
O59 O 0.09767 0.6997 0.21944 0.0
O60 O 0.10921 0.76972 0.23495 0.0
O61 O 0.11469 0.74985 0.19707 0.0
C62 C 0.16446 0.73005 0.25411 0.0
O63 O 0.08307 0.73005 0.26127 0.0
O64 O 0.11252 0.71617 0.28377 0.0
In65 In 0.52031 0.87074 0.49239 0.0
O66 O 0.52406 0.86184 0.54032 0.0
O67 O 0.54192 0.84031 0.51011 0.0
C68 C 0.47761 0.85279 0.4797 0.0
C69 C 0.52763 0.91672 0.50317 0.0
C70 C 0.53775 0.8683 0.43874 0.0
O71 O 0.49608 0.84045 0.48121 0.0
O72 O 0.48029 0.87405 0.48703 0.0
O73 O 0.54997 0.8632 0.46051 0.0
O74 O 0.51712 0.87523 0.44416 0.0
C75 C 0.53725 0.84423 0.53605 0.0
O76 O 0.54354 0.90332 0.49356 0.0
O77 O 0.50831 0.90665 0.50873 0.0
In78 In 0.38473 0.27119 0.72896 0.0
O79 O 0.40818 0.2761 0.76854 0.0
O80 O 0.38406 0.30342 0.75776 0.0
C81 C 0.40082 0.23151 0.70459 0.0
C82 C 0.34245 0.25416 0.74445 0.0
C83 C 0.39602 0.2977 0.68329 0.0
O84 O 0.41032 0.23987 0.72695 0.0
O85 O 0.38329 0.24292 0.69534 0.0
O86 O 0.37527 0.29728 0.69319 0.0
O87 O 0.41098 0.28598 0.6974 0.0
C88 C 0.39978 0.29611 0.77469 0.0
O89 O 0.34452 0.27154 0.72768 0.0
O90 O 0.36159 0.24621 0.75425 0.0
In91 In 0.96834 0.1282 0.99515 0.0
O92 O 0.94921 0.0931 0.99452 0.0
O93 O 0.98353 0.09404 0.01293 0.0
C94 C 0.93901 0.14936 0.95791 0.0
C95 C 0.96249 0.15453 0.04303 0.0
C96 C 0.00657 0.12629 0.96109 0.0
O97 O 0.93401 0.1298 0.96938 0.0
O98 O 0.95797 0.15855 0.96649 0.0
O99 O 0.00848 0.12994 0.98774 0.0
O100 O 0.98579 0.12348 0.95228 0.0
C101 C 0.96604 0.08169 0.00558 0.0
O102 O 0.9784 0.15864 0.02486 0.0
O103 O 0.95004 0.13668 0.0376 0.0
In104 In 0.87604 0.72107 0.74582 0.0
O105 O 0.83695 0.71257 0.74954 0.0
O106 O 0.84887 0.74608 0.76428 0.0
C107 C 0.8931 0.68787 0.71058 0.0
C108 C 0.89727 0.71314 0.7965 0.0
C109 C 0.88178 0.75344 0.70461 0.0
O110 O 0.87257 0.6863 0.72104 0.0
O111 O 0.90527 0.70481 0.71992 0.0
O112 O 0.89366 0.7543 0.7276 0.0
O113 O 0.86667 0.73719 0.70349 0.0
C114 C 0.83164 0.73247 0.75997 0.0
O115 O 0.90106 0.73155 0.78194 0.0
O116 O 0.88294 0.6988 0.78537 0.0
In117 In 0.01995 0.13972 0.48892 0.0
O118 O 0.01616 0.16156 0.52948 0.0
O119 O 0.04828 0.14278 0.52378 0.0
C120 C 0.99259 0.17224 0.4633 0.0
C121 C 0.00285 0.09704 0.50286 0.0
C122 C 0.04631 0.135 0.44123 0.0
O123 O 0.01324 0.17659 0.47185 0.0
O124 O 0.98521 0.15178 0.46915 0.0
O125 O 0.02609 0.1261 0.4439 0.0
O126 O 0.05394 0.1453 0.46339 0.0
C127 C 0.03626 0.15653 0.53929 0.0
O128 O 0.99063 0.11559 0.50515 0.0
O129 O 0.02374 0.10021 0.49443 0.0
In130 In 0.61643 0.2443 0.22864 0.0
O131 O 0.65367 0.25932 0.22901 0.0
O132 O 0.6461 0.23027 0.25644 0.0
C133 C 0.59822 0.27041 0.18579 0.0
C134 C 0.59236 0.25692 0.27621 0.0
C135 C 0.61665 0.20324 0.19962 0.0
O136 O 0.61824 0.27465 0.19649 0.0
O137 O 0.58722 0.25358 0.19734 0.0
O138 O 0.6004 0.20839 0.21713 0.0
O139 O 0.63267 0.21849 0.19747 0.0
C140 C 0.66134 0.24448 0.24696 0.0
O141 O 0.59495 0.23566 0.26876 0.0
O142 O 0.60176 0.27174 0.2596 0.0
In143 In 0.45958 0.86486 0.97581 0.0
O144 O 0.45067 0.90095 0.95767 0.0
O145 O 0.4808 0.89822 0.98461 0.0
C146 C 0.43079 0.85301 0.93224 0.0
C147 C 0.44321 0.85612 0.02944 0.0
C148 C 0.49888 0.84071 0.96216 0.0
O149 O 0.45203 0.85876 0.92886 0.0
O150 O 0.42364 0.85345 0.95788 0.0
O151 O 0.49951 0.8615 0.97184 0.0
O152 O 0.4786 0.83161 0.96147 0.0
C153 C 0.46792 0.91125 0.96919 0.0
O154 O 0.45614 0.8417 0.01615 0.0
O155 O 0.43852 0.87464 0.01569 0.0
In156 In 0.86925 0.27803 0.76835 0.0
O157 O 0.88851 0.26477 0.7283 0.0
O158 O 0.87305 0.29883 0.72676 0.0
C159 C 0.88187 0.23685 0.79245 0.0
C160 C 0.82213 0.28341 0.77065 0.0
C161 C 0.89023 0.30806 0.80505 0.0
O162 O 0.89659 0.25262 0.78582 0.0
O163 O 0.86087 0.24122 0.78516 0.0
O164 O 0.87916 0.29004 0.8132 0.0
O165 O 0.89032 0.31134 0.77831 0.0
C166 C 0.88486 0.28324 0.7139 0.0
O167 O 0.83613 0.29702 0.78346 0.0
O168 O 0.83191 0.26746 0.756 0.0
In169 In 0.49728 0.13347 0.50904 0.0
O170 O 0.50094 0.15872 0.47121 0.0
O171 O 0.47078 0.13667 0.47227 0.0
C172 C 0.53115 0.15928 0.53421 0.0
C173 C 0.50871 0.08827 0.49827 0.0
C174 C 0.46912 0.13573 0.55547 0.0
O175 O 0.51047 0.1668 0.53026 0.0
O176 O 0.53528 0.13915 0.52373 0.0
O177 O 0.48808 0.12413 0.55506 0.0
O178 O 0.46362 0.14512 0.53185 0.0
C179 C 0.48184 0.15282 0.45947 0.0
O180 O 0.48898 0.09431 0.5084 0.0
O181 O 0.52239 0.10515 0.49245 0.0
In182 In 0.61789 0.74104 0.26325 0.0
O183 O 0.65712 0.735 0.26892 0.0
O184 O 0.64629 0.76145 0.23927 0.0
C185 C 0.60284 0.71808 0.31045 0.0
C186 C 0.60547 0.71499 0.21724 0.0
C187 C 0.60228 0.78332 0.28105 0.0
O188 O 0.62435 0.71925 0.3037 0.0
O189 O 0.58893 0.7275 0.29273 0.0
O190 O 0.59156 0.77175 0.26188 0.0
O191 O 0.62105 0.77391 0.28997 0.0
C192 C 0.66316 0.75079 0.25133 0.0
O193 O 0.59861 0.73603 0.22039 0.0
O194 O 0.61809 0.70722 0.23735 0.0
In195 In 0.02013 0.86977 0.00977 0.0
O196 O 0.02682 0.90958 0.00931 0.0
O197 O 0.99541 0.89647 0.99011 0.0
C198 C 0.0524 0.86568 0.05205 0.0
C199 C 0.03109 0.84985 0.95887 0.0
C200 C 0.9842 0.84995 0.03893 0.0
O201 O 0.03635 0.88109 0.05237 0.0
O202 O 0.05311 0.8534 0.0295 0.0
O203 O 0.0035 0.83941 0.03486 0.0
O204 O 0.9827 0.86986 0.02716 0.0
C205 C 0.00747 0.91423 0.99705 0.0
O206 O 0.01373 0.8435 0.97386 0.0
O207 O 0.0432 0.86628 0.9696 0.0
In208 In 0.6144 0.75577 0.76268 0.0
O209 O 0.60544 0.74815 0.71587 0.0
O210 O 0.59613 0.78175 0.73223 0.0
C211 C 0.60808 0.71303 0.78663 0.0
C212 C 0.66135 0.7604 0.75649 0.0
C213 C 0.59437 0.77936 0.80643 0.0
O214 O 0.59558 0.72007 0.76589 0.0
O215 O 0.62388 0.72723 0.79446 0.0
O216 O 0.615 0.78361 0.79773 0.0
O217 O 0.58339 0.76399 0.79214 0.0
C218 C 0.59637 0.76806 0.71098 0.0
O219 O 0.64845 0.77694 0.76554 0.0
O220 O 0.65044 0.74192 0.74951 0.0
In221 In 0.46589 0.36547 0.01538 0.0
O222 O 0.45657 0.4014 0.03369 0.0
O223 O 0.4857 0.39939 0.00508 0.0
C224 C 0.43359 0.35225 0.05451 0.0
C225 C 0.45214 0.35699 0.9608 0.0
C226 C 0.50452 0.34197 0.03351 0.0
O227 O 0.45309 0.36139 0.06108 0.0
O228 O 0.43 0.35018 0.02793 0.0
O229 O 0.4844 0.33262 0.03222 0.0
O230 O 0.5055 0.36271 0.0238 0.0
C231 C 0.47295 0.41216 0.02096 0.0
O232 O 0.46663 0.34382 0.97369 0.0
O233 O 0.44479 0.37419 0.97536 0.0
In234 In 0.8793 0.25466 0.25837 0.0
O235 O 0.84816 0.23185 0.27063 0.0
O236 O 0.84284 0.25808 0.23845 0.0
C237 C 0.90787 0.24058 0.30138 0.0
C238 C 0.89925 0.24 0.20885 0.0
C239 C 0.87342 0.29865 0.27897 0.0
O240 O 0.88912 0.22977 0.2952 0.0
O241 O 0.91258 0.2577 0.28519 0.0
O242 O 0.8893 0.29375 0.26088 0.0
O243 O 0.86 0.28173 0.28519 0.0
C244 C 0.83391 0.24205 0.25387 0.0
O245 O 0.89589 0.26156 0.21431 0.0
O246 O 0.89231 0.22604 0.22806 0.0
In247 In 0.00531 0.62852 0.50315 0.0
O248 O 0.02474 0.594 0.50923 0.0
O249 O 0.99238 0.59331 0.48593 0.0
C250 C 0.03221 0.64794 0.54434 0.0
C251 C 0.01567 0.64764 0.45143 0.0
C252 C 0.96486 0.63471 0.53289 0.0
O253 O 0.03457 0.62672 0.5367 0.0
O254 O 0.01697 0.65944 0.5305 0.0
O255 O 0.97491 0.65124 0.51957 0.0
O256 O 0.97427 0.61477 0.52955 0.0
C257 C 0.00944 0.58176 0.49643 0.0
O258 O 0.99471 0.64419 0.45949 0.0
O259 O 0.0311 0.64105 0.46909 0.0
In260 In 0.60648 0.26113 0.7495 0.0
O261 O 0.58282 0.26519 0.78909 0.0
O262 O 0.59711 0.23138 0.7799 0.0
C263 C 0.59781 0.30126 0.72046 0.0
C264 C 0.65069 0.26723 0.76808 0.0
C265 C 0.59686 0.23309 0.70447 0.0
O266 O 0.58191 0.29064 0.73433 0.0
O267 O 0.6181 0.29239 0.72278 0.0
O268 O 0.61683 0.2333 0.71637 0.0
O269 O 0.58161 0.24617 0.71609 0.0
C270 C 0.58458 0.24379 0.79631 0.0
O271 O 0.64492 0.25093 0.75104 0.0
O272 O 0.6339 0.28023 0.77644 0.0
In273 In 0.04207 0.37108 0.97768 0.0
O274 O 0.03399 0.35119 0.01932 0.0
O275 O 0.06187 0.37646 0.01904 0.0
C276 C 0.0048 0.36411 0.94312 0.0
C277 C 0.03821 0.418 0.98096 0.0
C278 C 0.07526 0.3452 0.95099 0.0
O279 O 0.00539 0.35521 0.96799 0.0
O280 O 0.02286 0.37556 0.93612 0.0
O281 O 0.07207 0.36671 0.94533 0.0
O282 O 0.06211 0.33693 0.97025 0.0
C283 C 0.05025 0.36142 0.03313 0.0
O284 O 0.05649 0.40802 0.97115 0.0
O285 O 0.02241 0.40423 0.99015 0.0
In286 In 0.88177 0.76318 0.24785 0.0
O287 O 0.84852 0.78465 0.2399 0.0
O288 O 0.84481 0.75055 0.25855 0.0
C289 C 0.9011 0.78992 0.20675 0.0
C290 C 0.89706 0.77616 0.30067 0.0
C291 C 0.88911 0.7207 0.22311 0.0
O292 O 0.88146 0.79484 0.21805 0.0
O293 O 0.91152 0.77222 0.21728 0.0
O294 O 0.89999 0.72663 0.24563 0.0
O295 O 0.87428 0.73558 0.21445 0.0
C296 C 0.83478 0.76892 0.24922 0.0
O297 O 0.88022 0.76208 0.29677 0.0
O298 O 0.90701 0.7829 0.27801 0.0
In299 In 0.47947 0.62546 0.48624 0.0
O300 O 0.47467 0.64597 0.52846 0.0
O301 O 0.45174 0.61734 0.52017 0.0
C302 C 0.51514 0.65433 0.47137 0.0
C303 C 0.49416 0.58031 0.48776 0.0
C304 C 0.45442 0.63306 0.43797 0.0
O305 O 0.49376 0.66026 0.4696 0.0
O306 O 0.51867 0.6345 0.4829 0.0
O307 O 0.47256 0.62021 0.43863 0.0
O308 O 0.44812 0.64108 0.46203 0.0
C309 C 0.45761 0.63362 0.53704 0.0
O310 O 0.47456 0.58631 0.47716 0.0
O311 O 0.50607 0.59702 0.49821 0.0
In312 In 0.37427 0.21579 0.23956 0.0
O313 O 0.39643 0.22958 0.27679 0.0
O314 O 0.38546 0.19383 0.27826 0.0
C315 C 0.37318 0.25437 0.20588 0.0
C316 C 0.32795 0.21256 0.25076 0.0
C317 C 0.39729 0.18772 0.20219 0.0
O318 O 0.3869 0.25274 0.22713 0.0
O319 O 0.35983 0.23689 0.20223 0.0
O320 O 0.37735 0.18248 0.21227 0.0
O321 O 0.40595 0.20654 0.21186 0.0
C322 C 0.39691 0.21021 0.29005 0.0
O323 O 0.3394 0.19652 0.23819 0.0
O324 O 0.34019 0.22982 0.25923 0.0
In325 In 0.52804 0.6226 0.9932 0.0
O326 O 0.53235 0.65004 0.02903 0.0
O327 O 0.55719 0.62206 0.02649 0.0
C328 C 0.48982 0.64531 0.97229 0.0
C329 C 0.51592 0.57897 0.01011 0.0
C330 C 0.55396 0.62235 0.94482 0.0
O331 O 0.51042 0.65336 0.96976 0.0
O332 O 0.48839 0.62673 0.987 0.0
O333 O 0.53579 0.60981 0.94794 0.0
O334 O 0.55964 0.63426 0.9666 0.0
C335 C 0.55038 0.64027 0.03959 0.0
O336 O 0.5317 0.58263 0.99155 0.0
O337 O 0.50654 0.59732 0.02036 0.0
In338 In 0.11681 0.78023 0.72718 0.0
O339 O 0.08604 0.77689 0.75802 0.0
O340 O 0.11144 0.80344 0.76687 0.0
C341 C 0.09727 0.74347 0.69933 0.0
C342 C 0.15968 0.7666 0.74563 0.0
C343 C 0.11629 0.8124 0.68442 0.0
O344 O 0.08741 0.76337 0.7009 0.0
O345 O 0.1165 0.74189 0.71266 0.0
O346 O 0.10631 0.8159 0.70822 0.0
O347 O 0.12785 0.79341 0.68301 0.0
C348 C 0.0926 0.7933 0.7744 0.0
O349 O 0.15708 0.78352 0.72826 0.0
O350 O 0.14075 0.75757 0.75446 0.0
In351 In 0.9632 0.36828 0.48636 0.0
O352 O 0.95768 0.40797 0.48621 0.0
O353 O 0.98769 0.39465 0.50816 0.0
C354 C 0.93229 0.37142 0.44263 0.0
C355 C 0.94802 0.34342 0.53245 0.0
C356 C -0.00033 0.34679 0.46024 0.0
O357 O 0.95377 0.37668 0.44037 0.0
O358 O 0.926 0.36496 0.46739 0.0
O359 O 0.97856 0.34032 0.45698 0.0
O360 O 0.00256 0.36343 0.47785 0.0
C361 C 0.97617 0.41252 0.5001 0.0
O362 O 0.96171 0.33494 0.51387 0.0
O363 O 0.94199 0.3645 0.52793 0.0
In364 In 0.37793 0.77719 0.26675 0.0
O365 O 0.39846 0.77909 0.22432 0.0
O366 O 0.37931 0.80933 0.23771 0.0
C367 C 0.39297 0.73672 0.2905 0.0
C368 C 0.3333 0.76441 0.25564 0.0
C369 C 0.39228 0.8029 0.31177 0.0
O370 O 0.40237 0.74485 0.26794 0.0
O371 O 0.37598 0.74869 0.30017 0.0
O372 O 0.37117 0.80329 0.30319 0.0
O373 O 0.40621 0.79083 0.29659 0.0
C374 C 0.39232 0.80005 0.21894 0.0
O375 O 0.33821 0.78259 0.27 0.0
O376 O 0.35086 0.75333 0.24594 0.0
In377 In 0.97638 0.62359 0.02004 0.0
O378 O 0.96909 0.58499 0.00888 0.0
O379 O 0.00069 0.6007 0.99358 0.0
C380 C 0.94572 0.62915 0.06375 0.0
C381 C 0.96002 0.65044 0.97688 0.0
C382 C 0.01582 0.63358 0.04957 0.0
O383 O 0.95587 0.60978 0.05869 0.0
O384 O 0.94988 0.64524 0.04577 0.0
O385 O 0.01207 0.64225 0.02507 0.0
O386 O -0.00017 0.62027 0.05879 0.0
C387 C 0.98824 0.5824 0.9954 0.0
O388 O 0.97653 0.65699 0.9932 0.0
O389 O 0.95143 0.63041 0.98267 0.0
In390 In 0.13395 0.1972 0.77359 0.0
O391 O 0.10812 0.21179 0.74078 0.0
O392 O 0.12564 0.17958 0.7308 0.0
C393 C 0.13282 0.23171 0.81332 0.0
C394 C 0.17959 0.19923 0.75872 0.0
C395 C 0.11278 0.16429 0.80623 0.0
O396 O 0.12305 0.23416 0.78915 0.0
O397 O 0.14313 0.21227 0.81693 0.0
O398 O 0.13479 0.16454 0.80227 0.0
O399 O 0.10148 0.17975 0.79245 0.0
C400 C 0.11101 0.19518 0.7231 0.0
O401 O 0.17013 0.1805 0.76776 0.0
O402 O 0.16575 0.21654 0.75601 0.0
In403 In 0.51629 0.36371 0.49109 0.0
O404 O 0.51979 0.35563 0.44283 0.0
O405 O 0.53177 0.32997 0.47248 0.0
C406 C 0.47381 0.34875 0.50967 0.0
C407 C 0.52075 0.4099 0.47911 0.0
C408 C 0.54052 0.36133 0.54078 0.0
O409 O 0.49087 0.33507 0.5047 0.0
O410 O 0.47753 0.37003 0.50306 0.0
O411 O 0.5508 0.3612 0.51678 0.0
O412 O 0.51842 0.36291 0.53955 0.0
C413 C 0.52891 0.33557 0.44664 0.0
O414 O 0.53759 0.39743 0.48829 0.0
O415 O 0.50178 0.3988 0.47467 0.0
H416 H 0.08781 0.15703 0.42876 0.0
H417 H 0.02956 0.11943 0.38978 0.0
H418 H 0.04292 0.13217 0.34198 0.0
H419 H 0.08339 0.20562 0.38978 0.0
H420 H 0.11439 0.21184 0.38588 0.0
H421 H 0.10425 0.19496 0.41595 0.0
H422 H 0.13248 0.16072 0.40238 0.0
H423 H 0.14302 0.17769 0.37232 0.0
H424 H 0.13148 0.14844 0.36678 0.0
H425 H 0.05657 0.1567 0.30051 0.0
H426 H 0.07148 0.18845 0.26882 0.0
H427 H 0.1217 0.20854 0.33446 0.0
C428 C 0.07852 0.1506 0.41007 0.0
C429 C 0.05773 0.13723 0.41294 0.0
C430 C 0.04568 0.12956 0.38805 0.0
C431 C 0.05314 0.1367 0.36077 0.0
C432 C 0.07296 0.15109 0.35872 0.0
C433 C 0.08582 0.15749 0.3827 0.0
C434 C 0.10458 0.1754 0.37529 0.0
C435 C 0.10143 0.19829 0.39274 0.0
C436 C 0.12936 0.16493 0.37943 0.0
C437 C 0.09922 0.17924 0.3439 0.0
C438 C 0.08119 0.16484 0.3345 0.0
C439 C 0.07122 0.16754 0.30731 0.0
C440 C 0.0797 0.18565 0.28949 0.0
C441 C 0.09786 0.20076 0.2991 0.0
C442 C 0.1081 0.19697 0.32628 0.0
H443 H 0.02537 0.88551 0.5956 0.0
H444 H 0.05269 0.85057 0.51989 0.0
H445 H 0.08739 0.83713 0.54773 0.0
H446 H 0.08375 0.9017 0.62868 0.0
H447 H 0.07272 0.89552 0.66412 0.0
H448 H 0.05306 0.90658 0.63686 0.0
H449 H 0.02543 0.87077 0.64482 0.0
H450 H 0.04489 0.85968 0.67198 0.0
H451 H 0.03728 0.84134 0.64184 0.0
H452 H 0.11522 0.82217 0.58555 0.0
H453 H 0.13232 0.80544 0.62976 0.0
H454 H 0.08635 0.84997 0.68071 0.0
C455 C 0.03901 0.87566 0.58459 0.0
C456 C 0.03646 0.8692 0.55555 0.0
C457 C 0.05443 0.85587 0.54208 0.0
C458 C 0.07423 0.84826 0.55771 0.0
C459 C 0.07582 0.85434 0.58665 0.0
C460 C 0.05869 0.86787 0.59988 0.0
C461 C 0.06267 0.86939 0.63188 0.0
C462 C 0.0684 0.89481 0.64091 0.0
C463 C 0.04131 0.8597 0.64859 0.0
C464 C 0.08401 0.85356 0.63492 0.0
C465 C 0.09173 0.84551 0.60854 0.0
C466 C 0.10967 0.82876 0.60624 0.0
C467 C 0.1193 0.81937 0.6315 0.0
C468 C 0.11075 0.82654 0.65867 0.0
C469 C 0.09355 0.8445 0.66027 0.0
H470 H 0.44644 0.83765 0.8806 0.0
H471 H 0.38269 0.84885 0.9301 0.0
H472 H 0.35913 0.83146 0.89081 0.0
H473 H 0.42014 0.84558 0.80712 0.0
H474 H 0.438 0.82205 0.79274 0.0
H475 H 0.44911 0.84003 0.82159 0.0
H476 H 0.45646 0.8026 0.85204 0.0
H477 H 0.44557 0.78451 0.82345 0.0
H478 H 0.43251 0.78243 0.85858 0.0
H479 H 0.34355 0.80814 0.85006 0.0
H480 H 0.33737 0.77722 0.81381 0.0
H481 H 0.41154 0.77979 0.79141 0.0
C482 C 0.42743 0.83714 0.88275 0.0
C483 C 0.41625 0.84484 0.90811 0.0
C484 C 0.39148 0.84319 0.91067 0.0
C485 C 0.378 0.83353 0.88839 0.0
C486 C 0.38963 0.82563 0.86383 0.0
C487 C 0.41383 0.82724 0.86095 0.0
C488 C 0.42247 0.81426 0.8346 0.0
C489 C 0.43305 0.83152 0.81271 0.0
C490 C 0.44027 0.79479 0.84267 0.0
C491 C 0.3995 0.80404 0.82384 0.0
C492 C 0.38068 0.81143 0.84051 0.0
C493 C 0.35804 0.80259 0.83654 0.0
C494 C 0.35472 0.78501 0.81591 0.0
C495 C 0.374 0.77626 0.79978 0.0
C496 C 0.39644 0.78657 0.803 0.0
H497 H 0.43858 0.19803 0.17497 0.0
H498 H 0.38074 0.14799 0.17576 0.0
H499 H 0.39729 0.12854 0.13278 0.0
H500 H 0.4414 0.20535 0.10005 0.0
H501 H 0.47309 0.20741 0.09851 0.0
H502 H 0.45764 0.21646 0.13037 0.0
H503 H 0.48267 0.18753 0.16102 0.0
H504 H 0.49849 0.17891 0.12924 0.0
H505 H 0.48419 0.15686 0.15095 0.0
H506 H 0.4193 0.11573 0.08855 0.0
H507 H 0.4466 0.10888 0.04805 0.0
H508 H 0.48946 0.16784 0.07626 0.0
C509 C 0.42958 0.18275 0.16638 0.0
C510 C 0.40844 0.17443 0.17868 0.0
C511 C 0.39704 0.15454 0.16669 0.0
C512 C 0.40625 0.14346 0.14226 0.0
C513 C 0.42684 0.15249 0.13022 0.0
C514 C 0.43849 0.17154 0.14205 0.0
C515 C 0.46004 0.17813 0.12472 0.0
C516 C 0.4579 0.20333 0.1127 0.0
C517 C 0.48268 0.17517 0.14255 0.0
C518 C 0.45859 0.15992 0.10115 0.0
C519 C 0.43934 0.14528 0.10467 0.0
C520 C 0.43446 0.12704 0.08558 0.0
C521 C 0.44997 0.12336 0.0626 0.0
C522 C 0.47001 0.13791 0.05897 0.0
C523 C 0.47415 0.15657 0.07833 0.0
H524 H 0.11418 0.77176 0.15019 0.0
H525 H 0.09313 0.81343 0.22382 0.0
H526 H 0.08133 0.84604 0.19128 0.0
H527 H 0.13592 0.82092 0.1052 0.0
H528 H 0.12455 0.80756 0.07301 0.0
H529 H 0.13427 0.78925 0.10232 0.0
H530 H 0.09345 0.7687 0.10355 0.0
H531 H 0.08369 0.78681 0.07426 0.0
H532 H 0.06718 0.7864 0.10727 0.0
H533 H 0.06737 0.87179 0.14995 0.0
H534 H 0.05153 0.88755 0.10442 0.0
H535 H 0.08255 0.82862 0.05861 0.0
C536 C 0.10754 0.78792 0.1596 0.0
C537 C 0.1046 0.79015 0.18952 0.0
C538 C 0.09563 0.81146 0.20094 0.0
C539 C 0.08897 0.83005 0.18262 0.0
C540 C 0.09171 0.82705 0.15308 0.0
C541 C 0.10092 0.80649 0.14175 0.0
C542 C 0.10019 0.80654 0.10937 0.0
C543 C 0.12522 0.80605 0.09674 0.0
C544 C 0.08523 0.7859 0.09797 0.0
C545 C 0.08835 0.83002 0.10408 0.0
C546 C 0.08387 0.84181 0.12947 0.0
C547 C 0.07121 0.86292 0.12995 0.0
C548 C 0.06232 0.87176 0.10397 0.0
C549 C 0.06602 0.85941 0.07796 0.0
C550 C 0.07983 0.83871 0.07805 0.0
H551 H 0.42868 0.78815 0.34468 0.0
H552 H 0.37186 0.83935 0.34165 0.0
H553 H 0.38417 0.85476 0.38914 0.0
H554 H 0.42419 0.77611 0.42159 0.0
H555 H 0.45562 0.77254 0.42546 0.0
H556 H 0.44151 0.76513 0.39207 0.0
H557 H 0.46945 0.79361 0.36476 0.0
H558 H 0.48386 0.80066 0.39793 0.0
H559 H 0.47158 0.82392 0.37619 0.0
H560 H 0.40592 0.86708 0.43436 0.0
H561 H 0.43512 0.8754 0.47247 0.0
H562 H 0.47477 0.81328 0.44733 0.0
C563 C 0.41885 0.80265 0.35398 0.0
C564 C 0.39959 0.81287 0.33947 0.0
C565 C 0.38682 0.83147 0.35248 0.0
C566 C 0.39359 0.84018 0.37945 0.0
C567 C 0.4127 0.82959 0.39329 0.0
C568 C 0.42498 0.81109 0.38101 0.0
C569 C 0.44524 0.80309 0.39964 0.0
C570 C 0.4414 0.77771 0.41032 0.0
C571 C 0.46891 0.80548 0.38368 0.0
C572 C 0.44315 0.82066 0.42384 0.0
C573 C 0.4242 0.83574 0.42001 0.0
C574 C 0.42046 0.85505 0.43798 0.0
C575 C 0.43706 0.8596 0.45963 0.0
C576 C 0.45699 0.84479 0.46309 0.0
C577 C 0.4594 0.82457 0.44573 0.0
H578 H 0.39068 0.21957 0.64986 0.0
H579 H 0.4333 0.19864 0.72273 0.0
H580 H 0.45126 0.16678 0.69353 0.0
H581 H 0.38196 0.1607 0.61773 0.0
H582 H 0.38497 0.17211 0.58186 0.0
H583 H 0.3729 0.19049 0.60977 0.0
H584 H 0.40464 0.22236 0.59937 0.0
H585 H 0.41657 0.20418 0.57135 0.0
H586 H 0.43536 0.21414 0.60001 0.0
H587 H 0.46712 0.14002 0.65492 0.0
H588 H 0.48213 0.12308 0.60972 0.0
H589 H 0.42974 0.16288 0.56214 0.0
C590 C 0.40332 0.20788 0.65995 0.0
C591 C 0.4104 0.21125 0.68863 0.0
C592 C 0.42753 0.19613 0.70083 0.0
C593 C 0.43769 0.17796 0.68446 0.0
C594 C 0.43051 0.17533 0.65602 0.0
C595 C 0.4138 0.19001 0.64388 0.0
C596 C 0.41116 0.1856 0.6121 0.0
C597 C 0.38627 0.17669 0.60495 0.0
C598 C 0.41731 0.20788 0.5947 0.0
C599 C 0.42938 0.16643 0.608 0.0
C600 C 0.44006 0.16041 0.63364 0.0
C601 C 0.45864 0.14433 0.63481 0.0
C602 C 0.467 0.13476 0.60903 0.0
C603 C 0.45696 0.14158 0.58248 0.0
C604 C 0.43749 0.15705 0.58214 0.0
H605 H 0.06601 0.1551 0.81244 0.0
H606 H 0.13412 0.14342 0.85223 0.0
H607 H 0.11432 0.12845 0.89579 0.0
H608 H 0.03791 0.17724 0.87061 0.0
H609 H 0.00975 0.16346 0.86437 0.0
H610 H 0.02911 0.16935 0.83476 0.0
H611 H 0.02821 0.12523 0.82015 0.0
H612 H 0.00845 0.11927 0.84952 0.0
H613 H 0.03563 0.10294 0.84622 0.0
H614 H 0.08683 0.12221 0.93796 0.0
H615 H 0.05379 0.12019 0.97281 0.0
H616 H 0.00423 0.13394 0.90403 0.0
C617 C 0.07675 0.14859 0.82995 0.0
C618 C 0.10153 0.15029 0.82902 0.0
C619 C 0.11508 0.14196 0.85243 0.0
C620 C 0.10399 0.13355 0.8773 0.0
C621 C 0.07941 0.13313 0.87806 0.0
C622 C 0.06599 0.13988 0.85467 0.0
C623 C 0.03993 0.13929 0.86144 0.0
C624 C 0.02853 0.16379 0.85757 0.0
C625 C 0.02732 0.12056 0.84326 0.0
C626 C 0.04082 0.1322 0.89261 0.0
C627 C 0.06368 0.12867 0.90193 0.0
C628 C 0.06881 0.12429 0.93073 0.0
C629 C 0.05003 0.12334 0.95038 0.0
C630 C 0.02655 0.12659 0.94096 0.0
C631 C 0.022 0.13085 0.91171 0.0
H632 H 0.94423 0.85477 0.61263 0.0
H633 H 0.92069 0.81656 0.53744 0.0
H634 H 0.89863 0.7889 0.56827 0.0
H635 H 0.95496 0.80344 0.65433 0.0
H636 H 0.94575 0.81628 0.68785 0.0
H637 H 0.95748 0.8348 0.65995 0.0
H638 H 0.91963 0.86047 0.6614 0.0
H639 H 0.90777 0.842 0.68932 0.0
H640 H 0.89126 0.84668 0.6568 0.0
H641 H 0.88016 0.76521 0.60633 0.0
H642 H 0.86894 0.7439 0.65008 0.0
H643 H 0.90687 0.79507 0.70165 0.0
C644 C 0.93405 0.84079 0.6028 0.0
C645 C 0.93376 0.83781 0.5728 0.0
C646 C 0.92092 0.81904 0.56046 0.0
C647 C 0.9083 0.80338 0.57774 0.0
C648 C 0.90906 0.80658 0.60729 0.0
C649 C 0.9218 0.82458 0.61984 0.0
C650 C 0.92136 0.82262 0.65225 0.0
C651 C 0.94637 0.81907 0.66429 0.0
C652 C 0.90928 0.84423 0.66573 0.0
C653 C 0.9065 0.80061 0.65585 0.0
C654 C 0.89928 0.79199 0.62958 0.0
C655 C 0.88558 0.77181 0.62706 0.0
C656 C 0.87924 0.75989 0.65207 0.0
C657 C 0.88695 0.76794 0.67922 0.0
C658 C 0.90067 0.78864 0.68115 0.0
H659 H 0.95207 0.16335 0.43351 0.0
H660 H 0.00502 0.21712 0.44856 0.0
H661 H 0.98767 0.24147 0.41012 0.0
H662 H 0.95284 0.16674 0.3595 0.0
H663 H 0.92165 0.16234 0.35436 0.0
H664 H 0.93599 0.15044 0.38558 0.0
H665 H 0.90674 0.17274 0.41859 0.0
H666 H 0.892 0.18441 0.38744 0.0
H667 H 0.90306 0.20416 0.41453 0.0
H668 H 0.96764 0.25775 0.36659 0.0
H669 H 0.94416 0.26636 0.32332 0.0
H670 H 0.90416 0.20205 0.33656 0.0
C671 C 0.95957 0.18056 0.42928 0.0
C672 C 0.97977 0.18845 0.44411 0.0
C673 C 0.98943 0.21083 0.43757 0.0
C674 C 0.97975 0.22476 0.41572 0.0
C675 C 0.96037 0.21607 0.40076 0.0
C676 C 0.95017 0.19465 0.40749 0.0
C677 C 0.93036 0.18872 0.38698 0.0
C678 C 0.93554 0.1657 0.37064 0.0
C679 C 0.90663 0.18744 0.40284 0.0
C680 C 0.93138 0.2099 0.36728 0.0
C681 C 0.94877 0.2255 0.37565 0.0
C682 C 0.95379 0.24582 0.36004 0.0
C683 C 0.94047 0.25046 0.33539 0.0
C684 C 0.92237 0.23485 0.32665 0.0
C685 C 0.91781 0.21433 0.34284 0.0
H686 H 0.54617 0.11911 0.099 0.0
H687 H 0.60539 0.1246 0.04072 0.0
H688 H 0.63022 0.1395 0.0803 0.0
H689 H 0.55356 0.17175 0.12815 0.0
H690 H 0.54464 0.16452 0.16417 0.0
H691 H 0.53386 0.1474 0.13468 0.0
H692 H 0.55013 0.10923 0.15794 0.0
H693 H 0.56088 0.12625 0.18784 0.0
H694 H 0.58078 0.10755 0.16801 0.0
H695 H 0.64587 0.16081 0.12239 0.0
H696 H 0.65049 0.18909 0.16199 0.0
H697 H 0.58019 0.17224 0.19224 0.0
C698 C 0.56469 0.12234 0.09494 0.0
C699 C 0.57409 0.12031 0.06705 0.0
C700 C 0.59805 0.12572 0.06211 0.0
C701 C 0.61226 0.13408 0.08449 0.0
C702 C 0.60214 0.13702 0.11154 0.0
C703 C 0.57885 0.13126 0.11685 0.0
C704 C 0.57084 0.14022 0.14585 0.0
C705 C 0.54949 0.15697 0.14301 0.0
C706 C 0.56534 0.11958 0.16611 0.0
C707 C 0.59277 0.15322 0.15529 0.0
C708 C 0.61088 0.15044 0.13567 0.0
C709 C 0.63203 0.1627 0.1382 0.0
C710 C 0.63445 0.1788 0.16073 0.0
C711 C 0.61568 0.18278 0.18017 0.0
C712 C 0.59495 0.16921 0.17798 0.0
H713 H 0.49827 0.8022 0.92727 0.0
H714 H 0.54446 0.85638 0.96111 0.0
H715 H 0.57545 0.8443 0.92688 0.0
H716 H 0.54553 0.75776 0.90931 0.0
H717 H 0.53027 0.74911 0.87713 0.0
H718 H 0.51377 0.75889 0.90793 0.0
H719 H 0.49326 0.79028 0.87653 0.0
H720 H 0.51 0.78123 0.84571 0.0
H721 H 0.51078 0.81156 0.85728 0.0
H722 H 0.59897 0.83028 0.88476 0.0
H723 H 0.61454 0.81342 0.83974 0.0
H724 H 0.55233 0.76931 0.83252 0.0
C725 C 0.51524 0.81089 0.92828 0.0
C726 C 0.5191 0.83006 0.94701 0.0
C727 C 0.54127 0.84147 0.94712 0.0
C728 C 0.55894 0.83478 0.92771 0.0
C729 C 0.55412 0.8166 0.90849 0.0
C730 C 0.53295 0.80455 0.90891 0.0
C731 C 0.53127 0.78728 0.88424 0.0
C732 C 0.53016 0.76175 0.89532 0.0
C733 C 0.51008 0.79296 0.86478 0.0
C734 C 0.55441 0.79214 0.86927 0.0
C735 C 0.56748 0.80887 0.88379 0.0
C736 C 0.58906 0.81693 0.87342 0.0
C737 C 0.59767 0.80738 0.84775 0.0
C738 C 0.5846 0.79014 0.83264 0.0
C739 C 0.56269 0.78251 0.84359 0.0
H740 H 0.92276 0.2314 0.82198 0.0
H741 H 0.85402 0.19973 0.80891 0.0
H742 H 0.86159 0.17232 0.8492 0.0
H743 H 0.95437 0.17735 0.8456 0.0
H744 H 0.97126 0.1937 0.87154 0.0
H745 H 0.96173 0.20779 0.83892 0.0
H746 H 0.94176 0.24062 0.869 0.0
H747 H 0.95058 0.22637 0.90172 0.0
H748 H 0.91988 0.23277 0.89534 0.0
H749 H 0.87561 0.15073 0.89382 0.0
H750 H 0.89552 0.136 0.93767 0.0
H751 H 0.95352 0.18417 0.92219 0.0
C752 C 0.90961 0.21818 0.82693 0.0
C753 C 0.88793 0.21746 0.81217 0.0
C754 C 0.87088 0.20035 0.8198 0.0
C755 C 0.87499 0.18479 0.84269 0.0
C756 C 0.89619 0.18669 0.85764 0.0
C757 C 0.91329 0.20283 0.84985 0.0
C758 C 0.9337 0.2028 0.87066 0.0
C759 C 0.95662 0.19493 0.85579 0.0
C760 C 0.93662 0.22707 0.88503 0.0
C761 C 0.92521 0.18449 0.89174 0.0
C762 C 0.90371 0.17513 0.88379 0.0
C763 C 0.89249 0.15788 0.90019 0.0
C764 C 0.90382 0.14973 0.92509 0.0
C765 C 0.92588 0.15914 0.93341 0.0
C766 C 0.9365 0.17685 0.91658 0.0
H767 H 0.5578 0.2366 0.67084 0.0
H768 H 0.62534 0.20089 0.67752 0.0
H769 H 0.61764 0.18063 0.63147 0.0
H770 H 0.52566 0.1886 0.64182 0.0
H771 H 0.50797 0.20687 0.61861 0.0
H772 H 0.51946 0.21878 0.65146 0.0
H773 H 0.53914 0.25264 0.62288 0.0
H774 H 0.52807 0.2406 0.5898 0.0
H775 H 0.55924 0.24568 0.59415 0.0
H776 H 0.6013 0.16266 0.58607 0.0
H777 H 0.57704 0.14745 0.54607 0.0
H778 H 0.52136 0.19667 0.56861 0.0
C779 C 0.57097 0.22448 0.66266 0.0
C780 C 0.5921 0.22016 0.67773 0.0
C781 C 0.60899 0.20434 0.66627 0.0
C782 C 0.60483 0.19288 0.64011 0.0
C783 C 0.58385 0.1977 0.62564 0.0
C784 C 0.56721 0.21312 0.63656 0.0
C785 C 0.54581 0.21482 0.61737 0.0
C786 C 0.52342 0.20678 0.63326 0.0
C787 C 0.54292 0.23993 0.60533 0.0
C788 C 0.55278 0.19757 0.59417 0.0
C789 C 0.57481 0.18794 0.59918 0.0
C790 C 0.58418 0.17032 0.58169 0.0
C791 C 0.57034 0.16185 0.55899 0.0
C792 C 0.54749 0.17109 0.55408 0.0
C793 C 0.53897 0.1896 0.57146 0.0
H794 H 0.62014 0.80604 0.3272 0.0
H795 H 0.56064 0.80608 0.26887 0.0
H796 H 0.54013 0.83488 0.29997 0.0
H797 H 0.58817 0.80242 0.38702 0.0
H798 H 0.60664 0.8206 0.40934 0.0
H799 H 0.61917 0.80542 0.37923 0.0
H800 H 0.63474 0.84493 0.35871 0.0
H801 H 0.62247 0.86033 0.38907 0.0
H802 H 0.6146 0.86916 0.35321 0.0
H803 H 0.52343 0.85737 0.34146 0.0
H804 H 0.5117 0.87098 0.38963 0.0
H805 H 0.5817 0.85473 0.42154 0.0
C806 C 0.6032 0.81284 0.32032 0.0
C807 C 0.59204 0.80405 0.29552 0.0
C808 C 0.5696 0.81284 0.28763 0.0
C809 C 0.55786 0.82922 0.30516 0.0
C810 C 0.56892 0.83665 0.3303 0.0
C811 C 0.59122 0.82885 0.33772 0.0
C812 C 0.59784 0.83642 0.36773 0.0
C813 C 0.60325 0.81494 0.38694 0.0
C814 C 0.61865 0.85375 0.36713 0.0
C815 C 0.57533 0.84863 0.3767 0.0
C816 C 0.55906 0.84914 0.3546 0.0
C817 C 0.53621 0.85757 0.35868 0.0
C818 C 0.5297 0.86522 0.38613 0.0
C819 C 0.54589 0.864 0.4092 0.0
C820 C 0.56911 0.85615 0.40418 0.0
H821 H 0.9411 0.78002 0.1764 0.0
H822 H 0.8808 0.82728 0.17909 0.0
H823 H 0.89395 0.84574 0.13387 0.0
H824 H 0.9826 0.822 0.14914 0.0
H825 H -0.00234 0.80076 0.12695 0.0
H826 H 0.98317 0.79131 0.15927 0.0
H827 H 0.9589 0.76107 0.12986 0.0
H828 H 0.97306 0.77073 0.09735 0.0
H829 H 0.94135 0.77117 0.10007 0.0
H830 H 0.91385 0.85926 0.08891 0.0
H831 H 0.94087 0.86911 0.04919 0.0
H832 H 0.98778 0.81255 0.07561 0.0
C833 C 0.93075 0.79436 0.16759 0.0
C834 C 0.90999 0.80231 0.18123 0.0
C835 C 0.89683 0.82102 0.169 0.0
C836 C 0.90406 0.83149 0.14326 0.0
C837 C 0.9244 0.82295 0.13008 0.0
C838 C 0.93766 0.80495 0.14192 0.0
C839 C 0.95911 0.79941 0.12383 0.0
C840 C 0.98198 0.80363 0.14081 0.0
C841 C 0.95802 0.77409 0.11208 0.0
C842 C 0.95603 0.81738 0.10016 0.0
C843 C 0.93578 0.83062 0.10401 0.0
C844 C 0.92968 0.84894 0.08554 0.0
C845 C 0.94508 0.85434 0.06302 0.0
C846 C 0.9663 0.84149 0.0593 0.0
C847 C 0.9715 0.82244 0.07771 0.0
H848 H 0.59327 0.64818 0.9331 0.0
H849 H 0.53892 0.60586 0.89295 0.0
H850 H 0.55209 0.6195 0.84537 0.0
H851 H 0.58587 0.69628 0.89309 0.0
H852 H 0.61641 0.70474 0.89025 0.0
H853 H 0.60674 0.68745 0.92023 0.0
H854 H 0.63782 0.65532 0.90832 0.0
H855 H 0.64781 0.67269 0.87832 0.0
H856 H 0.63863 0.64259 0.87293 0.0
H857 H 0.56481 0.64458 0.80407 0.0
H858 H 0.57802 0.67697 0.77234 0.0
H859 H 0.62523 0.70152 0.83898 0.0
C860 C 0.5848 0.64103 0.91422 0.0
C861 C 0.56517 0.62593 0.91664 0.0
C862 C 0.55416 0.61729 0.89154 0.0
C863 C 0.56153 0.62493 0.8644 0.0
C864 C 0.58022 0.64082 0.86278 0.0
C865 C 0.59204 0.64838 0.88703 0.0
C866 C 0.6096 0.66757 0.87996 0.0
C867 C 0.60431 0.69034 0.89687 0.0
C868 C 0.63497 0.65902 0.88519 0.0
C869 C 0.60476 0.67066 0.84833 0.0
C870 C 0.58802 0.65488 0.83864 0.0
C871 C 0.57849 0.65652 0.81112 0.0
C872 C 0.586 0.675 0.79329 0.0
C873 C 0.60284 0.69149 0.80312 0.0
C874 C 0.61276 0.6888 0.83064 0.0
H875 H 0.55587 0.26351 0.15928 0.0
H876 H 0.61932 0.3061 0.15568 0.0
H877 H 0.60376 0.32668 0.11288 0.0
H878 H 0.54766 0.25721 0.08261 0.0
H879 H 0.51599 0.25933 0.08479 0.0
H880 H 0.53252 0.24734 0.11438 0.0
H881 H 0.51378 0.27815 0.1486 0.0
H882 H 0.497 0.29 0.11921 0.0
H883 H 0.5158 0.30908 0.13994 0.0
H884 H 0.58034 0.34385 0.07195 0.0
H885 H 0.55003 0.35765 0.03769 0.0
H886 H 0.50254 0.30301 0.06765 0.0
C887 C 0.56653 0.27713 0.14946 0.0
C888 C 0.58879 0.28325 0.16075 0.0
C889 C 0.60219 0.30119 0.14735 0.0
C890 C 0.59356 0.31286 0.12298 0.0
C891 C 0.57159 0.30629 0.11227 0.0
C892 C 0.55822 0.28889 0.12516 0.0
C893 C 0.53475 0.28577 0.1102 0.0
C894 C 0.53262 0.26094 0.09722 0.0
C895 C 0.51413 0.29108 0.1307 0.0
C896 C 0.53685 0.30438 0.0871 0.0
C897 C 0.55827 0.31592 0.0885 0.0
C898 C 0.56362 0.33476 0.07042 0.0
C899 C 0.54635 0.34242 0.05098 0.0
C900 C 0.52407 0.33123 0.04981 0.0
C901 C 0.51958 0.31161 0.06764 0.0
H902 H 0.9105 0.32816 0.28729 0.0
H903 H 0.83822 0.31551 0.31295 0.0
H904 H 0.84346 0.34181 0.35443 0.0
H905 H 0.93366 0.32123 0.35026 0.0
H906 H 0.95627 0.3435 0.34872 0.0
H907 H 0.94517 0.33093 0.31622 0.0
H908 H 0.93395 0.37241 0.29724 0.0
H909 H 0.94555 0.3853 0.32962 0.0
H910 H 0.91569 0.39154 0.31871 0.0
H911 H 0.85943 0.35853 0.39924 0.0
H912 H 0.8841 0.36755 0.44152 0.0
H913 H 0.94592 0.37046 0.38702 0.0
C914 C 0.8954 0.33212 0.30067 0.0
C915 C 0.87393 0.32004 0.29687 0.0
C916 C 0.85476 0.32483 0.31539 0.0
C917 C 0.85759 0.33976 0.33903 0.0
C918 C 0.87961 0.34995 0.34362 0.0
C919 C 0.89809 0.34679 0.32455 0.0
C920 C 0.92097 0.35618 0.33674 0.0
C921 C 0.9401 0.3368 0.33807 0.0
C922 C 0.92954 0.37764 0.31955 0.0
C923 C 0.91285 0.36337 0.36636 0.0
C924 C 0.88886 0.36012 0.36977 0.0
C925 C 0.87806 0.36204 0.39657 0.0
C926 C 0.89218 0.36701 0.4205 0.0
C927 C 0.91678 0.37002 0.41737 0.0
C928 C 0.92703 0.36891 0.38985 0.0
H929 H 0.92062 0.70442 0.66816 0.0
H930 H 0.88119 0.64262 0.69438 0.0
H931 H 0.8925 0.62261 0.64894 0.0
H932 H 0.90352 0.70177 0.59387 0.0
H933 H 0.93157 0.71251 0.58127 0.0
H934 H 0.92073 0.72132 0.61595 0.0
H935 H 0.95912 0.70591 0.6397 0.0
H936 H 0.9701 0.6972 0.60513 0.0
H937 H 0.96828 0.67585 0.63364 0.0
H938 H 0.91127 0.60884 0.60183 0.0
H939 H 0.93452 0.60295 0.5574 0.0
H940 H 0.95732 0.67582 0.56096 0.0
C941 C 0.9146 0.68653 0.66455 0.0
C942 C 0.90053 0.67475 0.68491 0.0
C943 C 0.89229 0.65171 0.67907 0.0
C944 C 0.89852 0.64035 0.65333 0.0
C945 C 0.91233 0.65263 0.63353 0.0
C946 C 0.92002 0.67532 0.63884 0.0
C947 C 0.93422 0.68507 0.61417 0.0
C948 C 0.92176 0.70643 0.60051 0.0
C949 C 0.95942 0.69136 0.62376 0.0
C950 C 0.93408 0.66404 0.59434 0.0
C951 C 0.92142 0.64543 0.60579 0.0
C952 C 0.92078 0.62344 0.5924 0.0
C953 C 0.93394 0.62027 0.56717 0.0
C954 C 0.94725 0.63909 0.5555 0.0
C955 C 0.9467 0.66136 0.56888 0.0
H956 H 0.52185 0.34598 0.5909 0.0
H957 H 0.58714 0.36985 0.55226 0.0
H958 H 0.60783 0.36343 0.59839 0.0
H959 H 0.53145 0.36832 0.66409 0.0
H960 H 0.51898 0.34229 0.68028 0.0
H961 H 0.50864 0.35212 0.64575 0.0
H962 H 0.51839 0.31116 0.62368 0.0
H963 H 0.52801 0.30117 0.6583 0.0
H964 H 0.54759 0.29913 0.62797 0.0
H965 H 0.62194 0.35057 0.6468 0.0
H966 H 0.62935 0.3287 0.69164 0.0
H967 H 0.55481 0.31258 0.6982 0.0
C968 C 0.54039 0.35042 0.59237 0.0
C969 C 0.55292 0.35873 0.56829 0.0
C970 C 0.57728 0.36361 0.57063 0.0
C971 C 0.58908 0.36019 0.59676 0.0
C972 C 0.57622 0.35178 0.62012 0.0
C973 C 0.55244 0.34674 0.61804 0.0
C974 C 0.54329 0.33501 0.64494 0.0
C975 C 0.52448 0.35036 0.65963 0.0
C976 C 0.53377 0.31015 0.63833 0.0
C977 C 0.5657 0.3339 0.66244 0.0
C978 C 0.58443 0.34397 0.64793 0.0
C979 C 0.60736 0.34301 0.65857 0.0
C980 C 0.61139 0.33059 0.68409 0.0
C981 C 0.5926 0.3192 0.69849 0.0
C982 C 0.56939 0.32166 0.68805 0.0
H983 H 0.97016 0.33004 0.94196 0.0
H984 H 0.99498 0.39309 0.89875 0.0
H985 H 0.96455 0.38818 0.86172 0.0
H986 H 0.96111 0.29709 0.88037 0.0
H987 H 0.93481 0.2823 0.89248 0.0
H988 H 0.95608 0.29258 0.91813 0.0
H989 H 0.92342 0.31672 0.94378 0.0
H990 H 0.90209 0.30642 0.91804 0.0
H991 H 0.90612 0.33763 0.92358 0.0
H992 H 0.93564 0.37407 0.82629 0.0
H993 H 0.90929 0.35134 0.79453 0.0
H994 H 0.90243 0.29752 0.86015 0.0
C995 C 0.96869 0.34309 0.9251 0.0
C996 C 0.9848 0.36196 0.9232 0.0
C997 C 0.98279 0.37846 0.90053 0.0
C998 C 0.96549 0.37592 0.87948 0.0
C999 C 0.95026 0.35682 0.88141 0.0
C1000 C 0.95154 0.3407 0.90366 0.0
C1001 C 0.9344 0.32058 0.89905 0.0
C1002 C 0.94739 0.29674 0.8974 0.0
C1003 C 0.91538 0.32034 0.92251 0.0
C1004 C 0.92406 0.32751 0.87029 0.0
C1005 C 0.93324 0.34864 0.86072 0.0
C1006 C 0.92792 0.35773 0.83373 0.0
C1007 C 0.91304 0.3447 0.81582 0.0
C1008 C 0.9037 0.32288 0.82505 0.0
C1009 C 0.90896 0.31443 0.85281 0.0
H1010 H 0.91048 0.6608 0.07359 0.0
H1011 H 0.95579 0.60994 0.1158 0.0
H1012 H 0.94256 0.62468 0.16304 0.0
H1013 H 0.92036 0.70712 0.11752 0.0
H1014 H 0.89066 0.71849 0.11792 0.0
H1015 H 0.90078 0.70147 0.08788 0.0
H1016 H 0.86608 0.67222 0.0946 0.0
H1017 H 0.85568 0.68934 0.12461 0.0
H1018 H 0.86164 0.6583 0.12891 0.0
H1019 H 0.93035 0.65058 0.20497 0.0
H1020 H 0.9166 0.68227 0.23771 0.0
H1021 H 0.87674 0.71335 0.16794 0.0
C1022 C 0.91691 0.65223 0.09282 0.0
C1023 C 0.93393 0.63416 0.0912 0.0
C1024 C 0.94237 0.62355 0.11669 0.0
C1025 C 0.93504 0.63188 0.14359 0.0
C1026 C 0.91878 0.65034 0.14453 0.0
C1027 C 0.90934 0.65992 0.11975 0.0
C1028 C 0.89324 0.68048 0.12636 0.0
C1029 C 0.90179 0.70321 0.11155 0.0
C1030 C 0.86764 0.67473 0.11813 0.0
C1031 C 0.89612 0.68184 0.15851 0.0
C1032 C 0.91083 0.66432 0.16876 0.0
C1033 C 0.91819 0.66391 0.19735 0.0
C1034 C 0.91039 0.68197 0.21577 0.0
C1035 C 0.89529 0.69997 0.20548 0.0
C1036 C 0.88777 0.69948 0.17666 0.0
H1037 H 0.55884 0.72158 0.3337 0.0
H1038 H 0.6285 0.69252 0.34935 0.0
H1039 H 0.61481 0.67686 0.39598 0.0
H1040 H 0.54666 0.73869 0.40773 0.0
H1041 H 0.51589 0.73103 0.40528 0.0
H1042 H 0.53152 0.7409 0.37387 0.0
H1043 H 0.51957 0.70272 0.34692 0.0
H1044 H 0.50365 0.69298 0.37806 0.0
H1045 H 0.52619 0.67443 0.3627 0.0
H1046 H 0.59245 0.66167 0.43896 0.0
H1047 H 0.56292 0.64714 0.47377 0.0
H1048 H 0.50881 0.68827 0.43098 0.0
C1049 C 0.57124 0.71195 0.34695 0.0
C1050 C 0.59468 0.70811 0.33791 0.0
C1051 C 0.61042 0.69557 0.3559 0.0
C1052 C 0.60285 0.68675 0.38246 0.0
C1053 C 0.57961 0.69096 0.39082 0.0
C1054 C 0.56406 0.70331 0.37359 0.0
C1055 C 0.53979 0.70468 0.38693 0.0
C1056 C 0.53308 0.73035 0.39386 0.0
C1057 C 0.52122 0.693 0.36751 0.0
C1058 C 0.5439 0.69056 0.41398 0.0
C1059 C 0.56701 0.68293 0.416 0.0
C1060 C 0.57442 0.66788 0.43789 0.0
C1061 C 0.55757 0.65979 0.45762 0.0
C1062 C 0.5337 0.66686 0.45531 0.0
C1063 C 0.52704 0.68304 0.43376 0.0
H1064 H 0.4432 0.34509 0.11089 0.0
H1065 H 0.38835 0.3366 0.04698 0.0
H1066 H 0.36366 0.31579 0.0826 0.0
H1067 H 0.43925 0.28939 0.13795 0.0
H1068 H 0.44508 0.29707 0.17474 0.0
H1069 H 0.45627 0.31531 0.14636 0.0
H1070 H 0.43524 0.35172 0.1683 0.0
H1071 H 0.424 0.33356 0.19692 0.0
H1072 H 0.40398 0.35064 0.17521 0.0
H1073 H 0.3477 0.29124 0.12243 0.0
H1074 H 0.34214 0.26364 0.16275 0.0
H1075 H 0.40774 0.28761 0.20052 0.0
C1076 C 0.42567 0.33954 0.10466 0.0
C1077 C 0.4175 0.34265 0.07635 0.0
C1078 C 0.3948 0.33453 0.06868 0.0
C1079 C 0.38064 0.32281 0.08879 0.0
C1080 C 0.3895 0.31943 0.11638 0.0
C1081 C 0.41149 0.32762 0.12434 0.0
C1082 C 0.41822 0.31916 0.15401 0.0
C1083 C 0.44104 0.30435 0.15319 0.0
C1084 C 0.42048 0.34002 0.17484 0.0
C1085 C 0.39697 0.30417 0.1611 0.0
C1086 C 0.3804 0.30492 0.13935 0.0
C1087 C 0.36029 0.29087 0.13985 0.0
C1088 C 0.35732 0.27522 0.1628 0.0
C1089 C 0.37444 0.27367 0.1848 0.0
C1090 C 0.39415 0.2888 0.18429 0.0
H1091 H 0.49132 0.67696 0.92816 0.0
H1092 H 0.44365 0.63219 0.97636 0.0
H1093 H 0.41201 0.64053 0.94144 0.0
H1094 H 0.44635 0.72086 0.90366 0.0
H1095 H 0.46017 0.72372 0.86906 0.0
H1096 H 0.47781 0.71716 0.90018 0.0
H1097 H 0.49438 0.68015 0.87461 0.0
H1098 H 0.47653 0.68627 0.84362 0.0
H1099 H 0.47428 0.6581 0.86134 0.0
H1100 H 0.38721 0.64975 0.89845 0.0
H1101 H 0.36998 0.66165 0.85199 0.0
H1102 H 0.43408 0.69982 0.83143 0.0
C1103 C 0.47399 0.66959 0.93192 0.0
C1104 C 0.46983 0.65411 0.95509 0.0
C1105 C 0.44711 0.64427 0.95887 0.0
C1106 C 0.42906 0.64886 0.93912 0.0
C1107 C 0.43402 0.66338 0.9158 0.0
C1108 C 0.45583 0.67388 0.9123 0.0
C1109 C 0.45717 0.68728 0.88426 0.0
C1110 C 0.46056 0.71383 0.88962 0.0
C1111 C 0.47674 0.67734 0.86482 0.0
C1112 C 0.43293 0.68214 0.8722 0.0
C1113 C 0.4198 0.66847 0.8908 0.0
C1114 C 0.3972 0.66071 0.88386 0.0
C1115 C 0.38763 0.66741 0.85737 0.0
C1116 C 0.40071 0.6816 0.83813 0.0
C1117 C 0.42366 0.68895 0.8457 0.0
H1118 H 0.06157 0.74615 0.66034 0.0
H1119 H 0.11391 0.69832 0.69559 0.0
H1120 H 0.10232 0.66799 0.66027 0.0
H1121 H 0.01665 0.70157 0.64262 0.0
H1122 H 0.00864 0.71696 0.61022 0.0
H1123 H 0.01962 0.7332 0.64051 0.0
H1124 H 0.0518 0.75118 0.60734 0.0
H1125 H 0.0412 0.73409 0.57753 0.0
H1126 H 0.07161 0.73176 0.5884 0.0
H1127 H 0.0866 0.64386 0.61927 0.0
H1128 H 0.06689 0.62722 0.57653 0.0
H1129 H 0.02576 0.69148 0.5678 0.0
C1130 C 0.07023 0.72911 0.66105 0.0
C1131 C 0.08848 0.72444 0.68078 0.0
C1132 C 0.09975 0.70214 0.6807 0.0
C1133 C 0.09333 0.68484 0.66073 0.0
C1134 C 0.07566 0.69023 0.64104 0.0
C1135 C 0.06417 0.71176 0.64117 0.0
C1136 C 0.04668 0.71363 0.61683 0.0
C1137 C 0.0214 0.71649 0.62826 0.0
C1138 C 0.05323 0.73386 0.59632 0.0
C1139 C 0.05023 0.68984 0.60286 0.0
C1140 C 0.06695 0.67655 0.61716 0.0
C1141 C 0.07339 0.65405 0.60796 0.0
C1142 C 0.0622 0.64479 0.58365 0.0
C1143 C 0.04492 0.65812 0.56887 0.0
C1144 C 0.03901 0.68094 0.57859 0.0
H1145 H 0.99557 0.31719 0.4146 0.0
H1146 H 0.0468 0.35697 0.46381 0.0
H1147 H 0.07789 0.34585 0.42907 0.0
H1148 H 0.03502 0.26936 0.39224 0.0
H1149 H 0.02149 0.26745 0.35736 0.0
H1150 H 0.00438 0.27702 0.38774 0.0
H1151 H 0.99306 0.31496 0.3602 0.0
H1152 H 0.01072 0.30598 0.33008 0.0
H1153 H 0.016 0.33407 0.34697 0.0
H1154 H 0.10277 0.33211 0.38723 0.0
H1155 H 0.11976 0.31557 0.34264 0.0
H1156 H 0.05152 0.28603 0.32083 0.0
C1157 C 0.01343 0.32316 0.41844 0.0
C1158 C 0.01887 0.33777 0.44198 0.0
C1159 C 0.04234 0.3456 0.44598 0.0
C1160 C 0.06007 0.33943 0.42635 0.0
C1161 C 0.05394 0.32552 0.40289 0.0
C1162 C 0.03121 0.31736 0.399 0.0
C1163 C 0.02887 0.30357 0.37143 0.0
C1164 C 0.02206 0.27781 0.37756 0.0
C1165 C 0.01112 0.31536 0.35097 0.0
C1166 C 0.05381 0.30542 0.36023 0.0
C1167 C 0.06807 0.31804 0.37868 0.0
C1168 C 0.0918 0.32212 0.37267 0.0
C1169 C 0.10126 0.31277 0.34729 0.0
C1170 C 0.08693 0.29964 0.32829 0.0
C1171 C 0.0629 0.2961 0.33487 0.0
H1172 H 0.4171 0.66301 0.43119 0.0
H1173 H 0.46921 0.6229 0.38358 0.0
H1174 H 0.45655 0.64251 0.33886 0.0
H1175 H 0.37122 0.6648 0.37417 0.0
H1176 H 0.36292 0.69456 0.38339 0.0
H1177 H 0.37386 0.67487 0.41067 0.0
H1178 H 0.4062 0.70534 0.42375 0.0
H1179 H 0.39557 0.72498 0.39637 0.0
H1180 H 0.42598 0.71569 0.39625 0.0
H1181 H 0.44215 0.67085 0.30075 0.0
H1182 H 0.42518 0.70363 0.27213 0.0
H1183 H 0.382 0.72391 0.34482 0.0
C1184 C 0.42533 0.6578 0.41123 0.0
C1185 C 0.44398 0.64132 0.41079 0.0
C1186 C 0.45468 0.63531 0.38433 0.0
C1187 C 0.44766 0.6464 0.35883 0.0
C1188 C 0.42974 0.66322 0.36015 0.0
C1189 C 0.4185 0.66863 0.38564 0.0
C1190 C 0.40105 0.68857 0.38182 0.0
C1191 C 0.37576 0.68019 0.38786 0.0
C1192 C 0.40761 0.70989 0.40066 0.0
C1193 C 0.40461 0.6939 0.3504 0.0
C1194 C 0.42118 0.67913 0.33816 0.0
C1195 C 0.42876 0.68217 0.30993 0.0
C1196 C 0.41912 0.70084 0.29387 0.0
C1197 C 0.40208 0.71604 0.30616 0.0
C1198 C 0.39463 0.71225 0.33463 0.0
H1199 H 0.02022 0.6273 0.10671 0.0
H1200 H 0.05758 0.65336 0.0321 0.0
H1201 H 0.09099 0.66517 0.06314 0.0
H1202 H 0.033 0.67393 0.14943 0.0
H1203 H 0.03564 0.6574 0.18229 0.0
H1204 H 0.01749 0.64641 0.15379 0.0
H1205 H 0.04114 0.60721 0.15379 0.0
H1206 H 0.05952 0.61819 0.18234 0.0
H1207 H 0.07273 0.60788 0.14951 0.0
H1208 H 0.11776 0.6782 0.10263 0.0
H1209 H 0.13333 0.69595 0.14697 0.0
H1210 H 0.07702 0.66329 0.19568 0.0
C1211 C 0.03574 0.63487 0.09679 0.0
C1212 C 0.03658 0.63922 0.06708 0.0
C1213 C 0.05678 0.6498 0.05488 0.0
C1214 C 0.07586 0.65633 0.07229 0.0
C1215 C 0.07429 0.65216 0.10171 0.0
C1216 C 0.05463 0.6418 0.11385 0.0
C1217 C 0.05553 0.64248 0.14621 0.0
C1218 C 0.03416 0.65586 0.15863 0.0
C1219 C 0.05735 0.61745 0.15869 0.0
C1220 C 0.07821 0.65594 0.15047 0.0
C1221 C 0.08921 0.66062 0.12461 0.0
C1222 C 0.10952 0.67434 0.12301 0.0
C1223 C 0.11824 0.68431 0.14832 0.0
C1224 C 0.1063 0.68093 0.17465 0.0
C1225 C 0.08657 0.66592 0.17583 0.0
H1226 H 0.11221 0.27568 0.81163 0.0
H1227 H 0.14917 0.22696 0.86771 0.0
H1228 H 0.14291 0.25386 0.90838 0.0
H1229 H 0.13347 0.33093 0.84769 0.0
H1230 H 0.10554 0.34557 0.84256 0.0
H1231 H 0.11559 0.32401 0.8169 0.0
H1232 H 0.07682 0.3005 0.82364 0.0
H1233 H 0.0667 0.32191 0.84927 0.0
H1234 H 0.06829 0.2912 0.8591 0.0
H1235 H 0.12696 0.28193 0.94401 0.0
H1236 H 0.10438 0.31138 0.97196 0.0
H1237 H 0.08038 0.34392 0.89318 0.0
C1238 C 0.11945 0.27099 0.83234 0.0
C1239 C 0.13117 0.24927 0.83654 0.0
C1240 C 0.14019 0.24356 0.86399 0.0
C1241 C 0.1368 0.25875 0.88723 0.0
C1242 C 0.1247 0.27978 0.88259 0.0
C1243 C 0.11645 0.28613 0.85578 0.0
C1244 C 0.10261 0.30899 0.85713 0.0
C1245 C 0.11505 0.32853 0.84006 0.0
C1246 C 0.0771 0.30542 0.84668 0.0
C1247 C 0.1035 0.31387 0.88902 0.0
C1248 C 0.11645 0.29683 0.90328 0.0
C1249 C 0.11741 0.29583 0.9331 0.0
C1250 C 0.10454 0.31251 0.94879 0.0
C1251 C 0.0913 0.33009 0.93457 0.0
C1252 C 0.09117 0.33111 0.90439 0.0
H1253 H 0.47186 0.30933 0.5422 0.0
H1254 H 0.43307 0.37316 0.52197 0.0
H1255 H 0.40582 0.36512 0.56233 0.0
H1256 H 0.42199 0.2732 0.5707 0.0
H1257 H 0.44055 0.26112 0.59842 0.0
H1258 H 0.45309 0.2691 0.5643 0.0
H1259 H 0.48327 0.29579 0.59045 0.0
H1260 H 0.47052 0.2884 0.62453 0.0
H1261 H 0.47277 0.31886 0.6138 0.0
H1262 H 0.38544 0.35185 0.60852 0.0
H1263 H 0.37477 0.33524 0.65609 0.0
H1264 H 0.43028 0.28307 0.64728 0.0
C1265 C 0.45703 0.32111 0.54543 0.0
C1266 C 0.45426 0.34163 0.52865 0.0
C1267 C 0.43521 0.35712 0.53431 0.0
C1268 C 0.41972 0.35271 0.55722 0.0
C1269 C 0.42372 0.33287 0.5743 0.0
C1270 C 0.44191 0.31729 0.56851 0.0
C1271 C 0.4447 0.29915 0.592 0.0
C1272 C 0.43978 0.27417 0.58067 0.0
C1273 C 0.46925 0.30066 0.60601 0.0
C1274 C 0.42561 0.30721 0.61229 0.0
C1275 C 0.41328 0.32634 0.60158 0.0
C1276 C 0.39494 0.33683 0.61701 0.0
C1277 C 0.38907 0.3274 0.64398 0.0
C1278 C 0.40198 0.30819 0.65538 0.0
C1279 C 0.42039 0.29805 0.63924 0.0
H1280 H 0.29886 0.24646 0.27339 0.0
H1281 H 0.29849 0.17962 0.22798 0.0
H1282 H 0.25546 0.18295 0.22146 0.0
H1283 H 0.24177 0.23806 0.30984 0.0
H1284 H 0.234 0.2688 0.30667 0.0
H1285 H 0.26452 0.26024 0.30945 0.0
H1286 H 0.27343 0.28273 0.26232 0.0
H1287 H 0.24286 0.29097 0.25908 0.0
H1288 H 0.25727 0.27542 0.23028 0.0
H1289 H 0.21342 0.19512 0.216 0.0
H1290 H 0.17371 0.21294 0.21739 0.0
H1291 H 0.20103 0.27138 0.26741 0.0
C1292 C 0.28963 0.23229 0.26263 0.0
C1293 C 0.30196 0.21277 0.25122 0.0
C1294 C 0.28935 0.19468 0.23702 0.0
C1295 C 0.26494 0.19646 0.23307 0.0
C1296 C 0.25343 0.21632 0.24369 0.0
C1297 C 0.26523 0.23371 0.25865 0.0
C1298 C 0.24865 0.25338 0.26749 0.0
C1299 C 0.24714 0.25522 0.30031 0.0
C1300 C 0.256 0.27702 0.25398 0.0
C1301 C 0.22578 0.24447 0.25478 0.0
C1302 C 0.22899 0.22314 0.241 0.0
C1303 C 0.21061 0.2117 0.22698 0.0
C1304 C 0.18818 0.22204 0.22771 0.0
C1305 C 0.18433 0.2435 0.24253 0.0
C1306 C 0.20347 0.25496 0.25594 0.0
H1307 H 0.00099 0.95742 0.48963 0.0
H1308 H 0.9335 0.9579 0.53347 0.0
H1309 H 0.9348 0.0015 0.53571 0.0
H1310 H 0.02711 0.00288 0.53031 0.0
H1311 H 0.04309 0.01544 0.50062 0.0
H1312 H 0.03601 0.9845 0.50069 0.0
H1313 H 0.01493 0.98901 0.45168 0.0
H1314 H 0.02217 0.01993 0.45132 0.0
H1315 H 0.99191 0.01073 0.44768 0.0
H1316 H 0.94415 0.04519 0.53392 0.0
H1317 H 0.96085 0.08529 0.52821 0.0
H1318 H 0.02278 0.05527 0.48743 0.0
C1319 C 0.98631 0.9667 0.49934 0.0
C1320 C 0.96707 0.95436 0.51121 0.0
C1321 C 0.94836 0.96709 0.52411 0.0
C1322 C 0.94895 0.99181 0.52551 0.0
C1323 C 0.96842 0.00343 0.51401 0.0
C1324 C 0.98673 0.99126 0.50113 0.0
C1325 C 0.00603 0.00773 0.49131 0.0
C1326 C 0.02944 0.00231 0.50666 0.0
C1327 C 0.00892 0.00679 0.45855 0.0
C1328 C 0.99586 0.03108 0.50088 0.0
C1329 C 0.97407 0.02832 0.51373 0.0
C1330 C 0.9612 0.04756 0.52392 0.0
C1331 C 0.97082 0.07021 0.52065 0.0
C1332 C 0.99314 0.07328 0.5076 0.0
C1333 C 0.00578 0.05342 0.49779 0.0
H1334 H 0.29712 0.74172 0.72531 0.0
H1335 H 0.28914 0.68349 0.78495 0.0
H1336 H 0.24672 0.6926 0.78951 0.0
H1337 H 0.25913 0.78125 0.76078 0.0
H1338 H 0.24678 0.79392 0.72867 0.0
H1339 H 0.2762 0.7819 0.72819 0.0
H1340 H 0.26494 0.75411 0.6863 0.0
H1341 H 0.23561 0.76637 0.68627 0.0
H1342 H 0.23976 0.73498 0.68993 0.0
H1343 H 0.20602 0.70945 0.78998 0.0
H1344 H 0.16847 0.73065 0.78283 0.0
H1345 H 0.20286 0.77814 0.72302 0.0
C1346 C 0.28635 0.73058 0.73886 0.0
C1347 C 0.29635 0.71183 0.75469 0.0
C1348 C 0.28177 0.69785 0.7725 0.0
C1349 C 0.25771 0.70296 0.77535 0.0
C1350 C 0.24855 0.72205 0.76017 0.0
C1351 C 0.26231 0.73546 0.74198 0.0
C1352 C 0.24818 0.7553 0.72858 0.0
C1353 C 0.25817 0.77952 0.73707 0.0
C1354 C 0.24705 0.75251 0.69583 0.0
C1355 C 0.22436 0.75106 0.74227 0.0
C1356 C 0.22501 0.73183 0.76048 0.0
C1357 C 0.20524 0.72446 0.77567 0.0
C1358 C 0.18404 0.73669 0.77157 0.0
C1359 C 0.1828 0.75605 0.75242 0.0
C1360 C 0.20334 0.76351 0.73794 0.0
H1361 H 0.53161 0.03398 0.99643 0.0
H1362 H 0.47929 0.06596 0.9407 0.0
H1363 H 0.46357 0.02647 0.92923 0.0
H1364 H 0.54099 0.97949 0.95369 0.0
H1365 H 0.54392 0.96153 0.98537 0.0
H1366 H 0.55298 0.99198 0.98606 0.0
H1367 H 0.52549 -0.00062 0.02953 0.0
H1368 H 0.51613 0.96909 0.02877 0.0
H1369 H 0.49457 0.99243 0.02663 0.0
H1370 H 0.45101 0.98424 0.92787 0.0
H1371 H 0.44323 0.94184 0.93539 0.0
H1372 H 0.50351 0.93753 0.99248 0.0
C1373 C 0.51725 0.03262 0.98122 0.0
C1374 C 0.50673 0.05295 0.96928 0.0
C1375 C 0.48767 0.05055 0.94993 0.0
C1376 C 0.47864 0.02822 0.94329 0.0
C1377 C 0.48896 0.00855 0.95612 0.0
C1378 C 0.50797 0.0105 0.97449 0.0
C1379 C 0.51472 0.98682 0.98705 0.0
C1380 C 0.53963 0.97953 0.97746 0.0
C1381 C 0.51259 0.98696 0.01993 0.0
C1382 C 0.49612 0.97135 0.9735 0.0
C1383 C 0.48158 0.98418 0.95552 0.0
C1384 C 0.46245 0.97393 0.94159 0.0
C1385 C 0.45812 0.94989 0.94611 0.0
C1386 C 0.47279 0.93646 0.96449 0.0
C1387 C 0.49208 0.94735 0.97821 0.0
H1388 H 0.19304 0.76737 0.26793 0.0
H1389 H 0.19414 0.69285 0.24644 0.0
H1390 H 0.23753 0.69375 0.24443 0.0
H1391 H 0.23919 0.78487 0.22269 0.0
H1392 H 0.25192 0.80589 0.24716 0.0
H1393 H 0.2209 0.79933 0.24899 0.0
H1394 H 0.22502 0.78788 0.30253 0.0
H1395 H 0.25599 0.7948 0.30101 0.0
H1396 H 0.24657 0.76607 0.31292 0.0
H1397 H 0.2801 0.70343 0.23995 0.0
H1398 H 0.32024 0.72015 0.23981 0.0
H1399 H 0.29199 0.78795 0.26632 0.0
C1400 C 0.20246 0.75116 0.26337 0.0
C1401 C 0.19028 0.73005 0.25732 0.0
C1402 C 0.20315 0.7092 0.25125 0.0
C1403 C 0.22778 0.70955 0.24992 0.0
C1404 C 0.23924 0.7308 0.25508 0.0
C1405 C 0.22711 0.75112 0.26225 0.0
C1406 C 0.24379 0.77165 0.26653 0.0
C1407 C 0.23863 0.79161 0.24506 0.0
C1408 C 0.24278 0.78062 0.2976 0.0
C1409 C 0.26711 0.75974 0.26013 0.0
C1410 C 0.26403 0.73623 0.25336 0.0
C1411 C 0.28282 0.72175 0.24556 0.0
C1412 C 0.30549 0.73144 0.24533 0.0
C1413 C 0.30913 0.75528 0.25312 0.0
C1414 C 0.28967 0.76963 0.2604 0.0
H1415 H 0.49437 0.94955 0.51787 0.0
H1416 H 0.56698 0.94215 0.48976 0.0
H1417 H 0.57013 0.98546 0.4853 0.0
H1418 H 0.47886 0.99534 0.47064 0.0
H1419 H 0.46031 0.01081 0.49578 0.0
H1420 H 0.4642 0.97939 0.49892 0.0
H1421 H 0.47858 0.98427 0.5513 0.0
H1422 H 0.47437 0.01569 0.54848 0.0
H1423 H 0.50268 0.00399 0.55892 0.0
H1424 H 0.56452 0.02934 0.48102 0.0
H1425 H 0.55142 0.07098 0.48075 0.0
H1426 H 0.48248 0.04938 0.51143 0.0
C1427 C 0.51107 0.95706 0.51131 0.0
C1428 C 0.53047 0.94255 0.50427 0.0
C1429 C 0.55194 0.953 0.49542 0.0
C1430 C 0.55387 0.97755 0.49271 0.0
C1431 C 0.53419 0.99133 0.49904 0.0
C1432 C 0.51329 0.9815 0.50847 0.0
C1433 C 0.49459 0.00016 0.51319 0.0
C1434 C 0.47323 0.99618 0.49345 0.0
C1435 C 0.48712 0.00108 0.54485 0.0
C1436 C 0.50816 0.022 0.50464 0.0
C1437 C 0.53096 0.01656 0.49653 0.0
C1438 C 0.54674 0.03385 0.48748 0.0
C1439 C 0.53912 0.0574 0.48725 0.0
C1440 C 0.51596 0.06335 0.49601 0.0
C1441 C 0.50028 0.04535 0.50453 0.0
H1442 H 0.2033 0.23678 0.73619 0.0
H1443 H 0.2137 0.16766 0.77425 0.0
H1444 H 0.25675 0.17433 0.77479 0.0
H1445 H 0.25631 0.23565 0.69089 0.0
H1446 H 0.26183 0.26668 0.69595 0.0
H1447 H 0.23206 0.25565 0.69695 0.0
H1448 H 0.22646 0.27434 0.74718 0.0
H1449 H 0.25632 0.28507 0.74657 0.0
H1450 H 0.24652 0.26661 0.77567 0.0
H1451 H 0.29802 0.18995 0.77516 0.0
H1452 H 0.33555 0.21154 0.77005 0.0
H1453 H 0.29827 0.27001 0.73041 0.0
C1454 C 0.21467 0.22287 0.74415 0.0
C1455 C 0.20526 0.2017 0.75516 0.0
C1456 C 0.22063 0.18395 0.76555 0.0
C1457 C 0.24505 0.18763 0.76608 0.0
C1458 C 0.25372 0.20902 0.75586 0.0
C1459 C 0.23906 0.22617 0.74462 0.0
C1460 C 0.25283 0.24772 0.73535 0.0
C1461 C 0.25063 0.25164 0.70285 0.0
C1462 C 0.24506 0.26973 0.75221 0.0
C1463 C 0.2775 0.24014 0.74355 0.0
C1464 C 0.2776 0.21782 0.7555 0.0
C1465 C 0.29821 0.20733 0.76555 0.0
C1466 C 0.31939 0.21979 0.76274 0.0
C1467 C 0.31975 0.24239 0.7498 0.0
C1468 C 0.29849 0.25273 0.74032 0.0
H1469 H 0.00219 0.05316 0.02337 0.0
H1470 H 0.93165 0.05169 0.98726 0.0
H1471 H 0.93498 0.00862 0.98062 0.0
H1472 H 0.02753 0.01182 0.97652 0.0
H1473 H 0.04597 -0.00216 0.00304 0.0
H1474 H 0.0376 0.0283 0.00719 0.0
H1475 H 0.01995 0.01933 0.05724 0.0
H1476 H 0.02868 0.98892 0.0535 0.0
H1477 H -0.00165 0.99624 0.06095 0.0
H1478 H 0.94699 0.9666 0.97451 0.0
H1479 H 0.96525 0.92712 0.97409 0.0
H1480 H 0.02797 0.95567 0.01453 0.0
C1481 C 0.98726 0.0437 0.01463 0.0
C1482 C 0.96663 0.0557 0.00589 0.0
C1483 C 0.94756 0.04278 0.99423 0.0
C1484 C 0.94933 0.01836 0.99025 0.0
C1485 C 0.97022 0.00718 0.99819 0.0
C1486 C 0.98871 0.01931 0.01055 0.0
C1487 C 0.00937 0.00309 0.01666 0.0
C1488 C 0.03141 0.01073 -0.00016 0.0
C1489 C 0.01437 0.00182 0.04901 0.0
C1490 C -0.00031 0.98 0.00548 0.0
C1491 C 0.97711 0.9828 0.99483 0.0
C1492 C 0.96459 0.96412 0.98298 0.0
C1493 C 0.97518 0.9418 0.98269 0.0
C1494 C -0.00198 0.93837 0.99426 0.0
C1495 C 0.01053 0.95781 0.00544 0.0
H1496 H 0.79145 0.7083 0.74647 0.0
H1497 H 0.81648 0.77462 0.78147 0.0
H1498 H 0.77555 0.78949 0.78326 0.0
H1499 H 0.7473 0.73275 0.70145 0.0
H1500 H 0.72634 0.70938 0.70736 0.0
H1501 H 0.75747 0.70343 0.71001 0.0
H1502 H 0.75183 0.68727 0.76153 0.0
H1503 H 0.72062 0.69283 0.75888 0.0
H1504 H 0.73731 0.70534 0.788 0.0
H1505 H 0.73211 0.79762 0.77961 0.0
H1506 H 0.68876 0.79734 0.77395 0.0
H1507 H 0.6924 0.72581 0.74102 0.0
C1508 C 0.78828 0.72582 0.75489 0.0
C1509 C 0.80707 0.7403 0.76392 0.0
C1510 C 0.80228 0.76321 0.77454 0.0
C1511 C 0.77913 0.77185 0.77554 0.0
C1512 C 0.76104 0.75732 0.76584 0.0
C1513 C 0.76531 0.73473 0.75597 0.0
C1514 C 0.74278 0.72279 0.74655 0.0
C1515 C 0.74353 0.71674 0.71444 0.0
C1516 C 0.73785 0.70076 0.76484 0.0
C1517 C 0.72517 0.74222 0.75264 0.0
C1518 C 0.73605 0.76203 0.76366 0.0
C1519 C 0.72336 0.7822 0.77105 0.0
C1520 C 0.6988 0.78192 0.76764 0.0
C1521 C 0.68729 0.76159 0.75699 0.0
C1522 C 0.70074 0.74165 0.74907 0.0
H1523 H 0.69821 0.26922 0.224 0.0
H1524 H 0.68147 0.21363 0.28466 0.0
H1525 H 0.72396 0.20633 0.29216 0.0
H1526 H 0.74683 0.24047 0.19138 0.0
H1527 H 0.76417 0.26685 0.18706 0.0
H1528 H 0.73246 0.26868 0.18746 0.0
H1529 H 0.73411 0.2988 0.2292 0.0
H1530 H 0.76584 0.29734 0.22863 0.0
H1531 H 0.75007 0.29137 0.26137 0.0
H1532 H 0.76807 0.20401 0.29162 0.0
H1533 H 0.81107 0.20877 0.28571 0.0
H1534 H 0.79901 0.26562 0.22507 0.0
C1535 C 0.70349 0.25576 0.23919 0.0
C1536 C 0.6866 0.24203 0.25383 0.0
C1537 C 0.69416 0.22441 0.27331 0.0
C1538 C 0.71823 0.22007 0.27762 0.0
C1539 C 0.73445 0.23352 0.26231 0.0
C1540 C 0.72744 0.25116 0.24371 0.0
C1541 C 0.74844 0.26287 0.22965 0.0
C1542 C 0.74793 0.2595 0.19695 0.0
C1543 C 0.74969 0.28915 0.23771 0.0
C1544 C 0.76835 0.24899 0.24318 0.0
C1545 C 0.75989 0.23211 0.2619 0.0
C1546 C 0.77492 0.21719 0.27707 0.0
C1547 C 0.79929 0.21996 0.27347 0.0
C1548 C 0.80833 0.23749 0.25486 0.0
C1549 C 0.7926 0.25194 0.23927 0.0
H1550 H 0.68926 0.24325 0.74913 0.0
H1551 H 0.66806 0.30243 0.80226 0.0
H1552 H 0.71001 0.31274 0.80966 0.0
H1553 H 0.74229 0.22744 0.78935 0.0
H1554 H 0.75847 0.21993 0.75737 0.0
H1555 H 0.72692 0.21636 0.75835 0.0
H1556 H 0.72307 0.24272 0.71318 0.0
H1557 H 0.75455 0.24663 0.71225 0.0
H1558 H 0.73539 0.27202 0.71352 0.0
H1559 H 0.75418 0.31781 0.80872 0.0
H1560 H 0.79733 0.31627 0.80124 0.0
H1561 H 0.78893 0.25405 0.74808 0.0
C1562 C 0.69342 0.25815 0.76272 0.0
C1563 C 0.67549 0.27202 0.77523 0.0
C1564 C 0.68161 0.29152 0.79262 0.0
C1565 C 0.70534 0.29753 0.79688 0.0
C1566 C 0.72259 0.28379 0.78363 0.0
C1567 C 0.71691 0.2644 0.7671 0.0
C1568 C 0.73862 0.25302 0.75432 0.0
C1569 C 0.74176 0.22769 0.76553 0.0
C1570 C 0.73785 0.25365 0.72137 0.0
C1571 C 0.75744 0.26923 0.76593 0.0
C1572 C 0.74789 0.28682 0.78288 0.0
C1573 C 0.76187 0.30405 0.79562 0.0
C1574 C 0.78631 0.30309 0.79116 0.0
C1575 C 0.79638 0.28508 0.77404 0.0
C1576 C 0.7817 0.26805 0.76121 0.0
H1577 H 0.80192 0.73906 0.27175 0.0
H1578 H 0.80942 0.80356 0.22247 0.0
H1579 H 0.76611 0.80571 0.21684 0.0
H1580 H 0.75483 0.7144 0.23132 0.0
H1581 H 0.73993 0.70214 0.26201 0.0
H1582 H 0.77145 0.70594 0.26262 0.0
H1583 H 0.76803 0.73099 0.30891 0.0
H1584 H 0.73652 0.72709 0.30859 0.0
H1585 H 0.74884 0.75638 0.30936 0.0
H1586 H 0.72207 0.79993 0.21521 0.0
H1587 H 0.68033 0.78811 0.22058 0.0
H1588 H 0.70203 0.72789 0.2717 0.0
C1589 C 0.79444 0.75372 0.25994 0.0
C1590 C 0.80894 0.77115 0.24753 0.0
C1591 C 0.79855 0.79007 0.23224 0.0
C1592 C 0.77401 0.7914 0.22883 0.0
C1593 C 0.76022 0.77373 0.24102 0.0
C1594 C 0.77004 0.75539 0.2565 0.0
C1595 C 0.75134 0.73875 0.26762 0.0
C1596 C 0.75459 0.71384 0.25514 0.0
C1597 C 0.75118 0.73829 0.30057 0.0
C1598 C 0.72946 0.75053 0.25585 0.0
C1599 C 0.73492 0.77061 0.24044 0.0
C1600 C 0.71756 0.78429 0.22733 0.0
C1601 C 0.69395 0.77741 0.2304 0.0
C1602 C 0.68802 0.75713 0.24657 0.0
C1603 C 0.70605 0.7435 0.25925 0.0
H1604 H 0.50537 0.43968 0.99332 0.0
H1605 H 0.44949 0.44207 0.05685 0.0
H1606 H 0.45594 0.48485 0.06291 0.0
H1607 H 0.54381 0.48263 0.0272 0.0
H1608 H 0.55298 0.49544 0.99366 0.0
H1609 H 0.54469 0.4648 0.99523 0.0
H1610 H 0.51365 0.47175 0.95531 0.0
H1611 H 0.5219 0.50237 0.95356 0.0
H1612 H 0.4916 0.49438 0.95999 0.0
H1613 H 0.4675 0.52739 0.06089 0.0
H1614 H 0.48273 0.56718 0.04997 0.0
H1615 H 0.53101 0.537 0.98771 0.0
C1616 C 0.4946 0.44919 0.00863 0.0
C1617 C 0.47696 0.43763 0.02466 0.0
C1618 C 0.4631 0.45065 0.04435 0.0
C1619 C 0.46667 0.4749 0.04801 0.0
C1620 C 0.48418 0.4858 0.03182 0.0
C1621 C 0.49789 0.4734 0.01249 0.0
C1622 C 0.51494 0.48948 0.99702 0.0
C1623 C 0.54063 0.48268 0.00369 0.0
C1624 C 0.51023 0.48949 0.96455 0.0
C1625 C 0.50848 0.5129 0.01044 0.0
C1626 C 0.49081 0.51037 0.0306 0.0
C1627 C 0.48143 0.5296 0.04528 0.0
C1628 C 0.49019 0.5521 0.03893 0.0
C1629 C 0.50806 0.5551 0.01807 0.0
C1630 C 0.51745 0.5352 0.00391 0.0
H1631 H 0.95522 0.45312 0.48164 0.0
H1632 H 0.01691 0.4266 0.5264 0.0
H1633 H 0.03303 0.46707 0.52864 0.0
H1634 H 0.98523 0.49546 0.43866 0.0
H1635 H 0.96206 0.51721 0.44072 0.0
H1636 H 0.95503 0.48631 0.44335 0.0
H1637 H 0.93431 0.49348 0.49211 0.0
H1638 H 0.94096 0.52445 0.48943 0.0
H1639 H 0.95018 0.50798 0.52053 0.0
H1640 H 0.04266 0.51027 0.525 0.0
H1641 H 0.04388 0.55353 0.51885 0.0
H1642 H 0.97596 0.55143 0.47606 0.0
C1643 C 0.97201 0.45585 0.49219 0.0
C1644 C 0.98482 0.4368 0.50394 0.0
C1645 C 0.00678 0.44102 0.51739 0.0
C1646 C 0.01612 0.46389 0.51863 0.0
C1647 C 0.00324 0.48223 0.5063 0.0
C1648 C 0.98157 0.47849 0.49356 0.0
C1649 C 0.97124 0.50118 0.48195 0.0
C1650 C 0.96822 0.49995 0.44923 0.0
C1651 C 0.94779 0.50712 0.49691 0.0
C1652 C 0.99045 0.51833 0.49022 0.0
C1653 C 0.00881 0.50704 0.50411 0.0
C1654 C 0.0284 0.5193 0.51414 0.0
C1655 C 0.02897 0.54383 0.51044 0.0
C1656 C 0.01005 0.55577 0.49689 0.0
C1657 C 0.99076 0.54275 0.48628 0.0
H1658 H 0.00109 0.44311 0.00245 0.0
H1659 H 0.06707 0.45079 0.95622 0.0
H1660 H 0.05966 0.49359 0.95141 0.0
H1661 H 0.96761 0.48568 0.96183 0.0
H1662 H 0.95178 0.49662 0.99259 0.0
H1663 H 0.96194 0.46649 0.99185 0.0
H1664 H 0.98459 0.47295 0.03947 0.0
H1665 H 0.97423 0.50296 0.04054 0.0
H1666 H 0.00541 0.49685 0.04211 0.0
H1667 H 0.04541 0.53538 0.95237 0.0
H1668 H 0.02691 0.57395 0.96232 0.0
H1669 H 0.97011 0.53887 0.00774 0.0
C1670 C 0.01401 0.4538 0.99136 0.0
C1671 C 0.03466 0.44371 0.9797 0.0
C1672 C 0.05118 0.45824 0.96539 0.0
C1673 C 0.04704 0.4825 0.96239 0.0
C1674 C 0.02633 0.49184 0.97381 0.0
C1675 C 0.01018 0.478 0.98822 0.0
C1676 C 0.98976 0.49252 -0.00057 0.0
C1677 C 0.96639 0.48487 0.98559 0.0
C1678 C 0.98843 0.49125 0.03233 0.0
C1679 C 0.99706 0.51679 0.98933 0.0
C1680 C 0.0181 0.51596 0.97437 0.0
C1681 C 0.02888 0.53625 0.9639 0.0
C1682 C 0.01821 0.55805 0.96961 0.0
C1683 C 0.99705 0.55932 0.98566 0.0
C1684 C 0.9861 0.53837 0.99506 0.0
H1685 H 0.48584 0.44123 0.46456 0.0
H1686 H 0.55927 0.43709 0.49037 0.0
H1687 H 0.56083 0.4805 0.49371 0.0
H1688 H 0.4913 0.49612 0.42219 0.0
H1689 H 0.46278 0.50673 0.43344 0.0
H1690 H 0.46814 0.47548 0.43053 0.0
H1691 H 0.45498 0.47004 0.4833 0.0
H1692 H 0.44988 0.50128 0.4865 0.0
H1693 H 0.46952 0.4866 0.51112 0.0
H1694 H 0.55341 0.52382 0.49879 0.0
H1695 H 0.53827 0.56465 0.50162 0.0
H1696 H 0.46989 0.54073 0.47174 0.0
C1697 C 0.50238 0.44949 0.47029 0.0
C1698 C 0.52246 0.43583 0.47711 0.0
C1699 C 0.54371 0.44725 0.48491 0.0
C1700 C 0.54476 0.47188 0.48692 0.0
C1701 C 0.52447 0.48482 0.48086 0.0
C1702 C 0.50376 0.47408 0.47233 0.0
C1703 C 0.48424 0.49201 0.46814 0.0
C1704 C 0.47615 0.49262 0.4367 0.0
C1705 C 0.46344 0.48719 0.48848 0.0
C1706 C 0.49707 0.51443 0.47624 0.0
C1707 C 0.52027 0.50989 0.48349 0.0
C1708 C 0.53536 0.52766 0.49283 0.0
C1709 C 0.52658 0.55075 0.49452 0.0
C1710 C 0.50296 0.55582 0.48683 0.0
C1711 C 0.48807 0.53738 0.47759 0.0
H1712 H 0.04069 0.32063 0.06298 0.0
H1713 H 0.07439 0.38904 0.07027 0.0
H1714 H 0.08854 0.37861 0.11856 0.0
H1715 H 0.0239 0.31447 0.13956 0.0
H1716 H 0.03046 0.28335 0.14019 0.0
H1717 H 0.02052 0.29708 0.1075 0.0
H1718 H 0.05765 0.28144 0.08128 0.0
H1719 H 0.06779 0.26784 0.11389 0.0
H1720 H 0.08646 0.28844 0.09518 0.0
H1721 H 0.10169 0.36021 0.16368 0.0
H1722 H 0.11314 0.33477 0.20404 0.0
H1723 H 0.07191 0.27742 0.16821 0.0
C1724 C 0.05057 0.33356 0.07509 0.0
C1725 C 0.05632 0.35571 0.06307 0.0
C1726 C 0.06976 0.37201 0.07917 0.0
C1727 C 0.07782 0.36627 0.10662 0.0
C1728 C 0.07237 0.34413 0.11764 0.0
C1729 C 0.05901 0.328 0.10253 0.0
C1730 C 0.0572 0.30481 0.11869 0.0
C1731 C 0.03149 0.29963 0.12698 0.0
C1732 C 0.06792 0.28443 0.10122 0.0
C1733 C 0.07203 0.31035 0.1449 0.0
C1734 C 0.08037 0.33323 0.14386 0.0
C1735 C 0.09511 0.34233 0.16492 0.0
C1736 C 0.10158 0.32768 0.18771 0.0
C1737 C 0.09341 0.30411 0.18929 0.0
C1738 C 0.07832 0.2954 0.16764 0.0
H1739 H 0.93734 0.79945 0.3174 0.0
H1740 H 0.86881 0.77624 0.34766 0.0
H1741 H 0.87537 0.79702 0.39336 0.0
H1742 H 0.96707 0.79307 0.38697 0.0
H1743 H 0.98552 0.81854 0.3815 0.0
H1744 H 0.97563 0.80153 0.35122 0.0
H1745 H 0.95784 0.83933 0.32865 0.0
H1746 H 0.9674 0.85641 0.35902 0.0
H1747 H 0.93676 0.85648 0.34876 0.0
H1748 H 0.8875 0.82289 0.43357 0.0
H1749 H 0.90708 0.84759 0.46978 0.0
H1750 H 0.96943 0.85181 0.41605 0.0
C1751 C 0.92389 0.79853 0.33384 0.0
C1752 C 0.90255 0.78627 0.32904 0.0
C1753 C 0.88534 0.7854 0.35098 0.0
C1754 C 0.88883 0.79727 0.37693 0.0
C1755 C 0.90982 0.80957 0.38079 0.0
C1756 C 0.92731 0.80989 0.36019 0.0
C1757 C 0.94843 0.82409 0.37026 0.0
C1758 C 0.97047 0.80836 0.37264 0.0
C1759 C 0.95286 0.84534 0.35049 0.0
C1760 C 0.93988 0.83195 0.39956 0.0
C1761 C 0.91741 0.82361 0.4049 0.0
C1762 C 0.90521 0.82928 0.42983 0.0
C1763 C 0.91643 0.84347 0.45016 0.0
C1764 C 0.93978 0.85154 0.44572 0.0
C1765 C 0.95163 0.84575 0.42003 0.0
H1766 H 0.4172 0.70526 0.67675 0.0
H1767 H 0.37491 0.6442 0.69909 0.0
H1768 H 0.38877 0.62376 0.65562 0.0
H1769 H 0.40862 0.70223 0.60044 0.0
H1770 H 0.43841 0.71069 0.59176 0.0
H1771 H 0.42507 0.72078 0.62459 0.0
H1772 H 0.45974 0.70289 0.65357 0.0
H1773 H 0.47318 0.69275 0.62082 0.0
H1774 H 0.46699 0.67212 0.64924 0.0
H1775 H 0.40604 0.6103 0.60941 0.0
H1776 H 0.42724 0.60384 0.56392 0.0
H1777 H 0.45995 0.67269 0.57196 0.0
C1778 C 0.41087 0.68761 0.67242 0.0
C1779 C 0.39492 0.67633 0.69123 0.0
C1780 C 0.38715 0.65316 0.685 0.0
C1781 C 0.39489 0.64141 0.66034 0.0
C1782 C 0.4106 0.65297 0.64224 0.0
C1783 C 0.41867 0.67546 0.648 0.0
C1784 C 0.43583 0.68363 0.62511 0.0
C1785 C 0.42641 0.70563 0.60956 0.0
C1786 C 0.46039 0.68811 0.63796 0.0
C1787 C 0.43596 0.66227 0.60554 0.0
C1788 C 0.42117 0.64486 0.61582 0.0
C1789 C 0.4178 0.62372 0.60121 0.0
C1790 C 0.42988 0.62024 0.57538 0.0
C1791 C 0.44531 0.6377 0.56452 0.0
C1792 C 0.44843 0.65895 0.5799 0.0
H1793 H 0.5915 0.20008 0.81907 0.0
H1794 H 0.55254 0.26517 0.83197 0.0
H1795 H 0.53415 0.24818 0.87548 0.0
H1796 H 0.54604 0.16027 0.84218 0.0
H1797 H 0.56636 0.14038 0.85953 0.0
H1798 H 0.57589 0.15759 0.82923 0.0
H1799 H 0.61021 0.17468 0.85942 0.0
H1800 H 0.60078 0.15754 0.88981 0.0
H1801 H 0.60382 0.18908 0.89298 0.0
H1802 H 0.52003 0.2237 0.9175 0.0
H1803 H 0.51214 0.19426 0.95543 0.0
H1804 H 0.5614 0.14588 0.91516 0.0
C1805 C 0.57902 0.21076 0.83096 0.0
C1806 C 0.57333 0.2339 0.82216 0.0
C1807 C 0.55709 0.24738 0.8384 0.0
C1808 C 0.54657 0.23787 0.86307 0.0
C1809 C 0.55263 0.21496 0.87119 0.0
C1810 C 0.56855 0.20164 0.85565 0.0
C1811 C 0.5725 0.17768 0.86914 0.0
C1812 C 0.56473 0.15781 0.84881 0.0
C1813 C 0.59836 0.17458 0.87839 0.0
C1814 C 0.5563 0.17955 0.89476 0.0
C1815 C 0.54489 0.20112 0.89552 0.0
C1816 C 0.5289 0.20678 0.91714 0.0
C1817 C 0.52452 0.18996 0.93854 0.0
C1818 C 0.53621 0.16785 0.93822 0.0
C1819 C 0.55227 0.16267 0.91601 0.0
H1820 H 0.05979 0.6551 0.43006 0.0
H1821 H 0.98573 0.66686 0.41145 0.0
H1822 H 0.99675 0.68793 0.36691 0.0
H1823 H 0.08088 0.71087 0.40499 0.0
H1824 H 0.10768 0.69886 0.39014 0.0
H1825 H 0.09387 0.68469 0.42032 0.0
H1826 H 0.09213 0.64531 0.39219 0.0
H1827 H 0.10609 0.6593 0.36201 0.0
H1828 H 0.07817 0.64462 0.3575 0.0
H1829 H 0.01629 0.7081 0.32445 0.0
H1830 H 0.04249 0.72394 0.28666 0.0
H1831 H 0.10349 0.69858 0.33367 0.0
C1832 C 0.04585 0.66204 0.4166 0.0
C1833 C 0.0219 0.65936 0.42417 0.0
C1834 C 0.0042 0.66868 0.40598 0.0
C1835 C 0.0103 0.68073 0.38072 0.0
C1836 C 0.03414 0.68323 0.37402 0.0
C1837 C 0.05161 0.67402 0.39139 0.0
C1838 C 0.07591 0.67882 0.37936 0.0
C1839 C 0.09043 0.69423 0.39993 0.0
C1840 C 0.08883 0.65564 0.37234 0.0
C1841 C 0.06945 0.69219 0.35244 0.0
C1842 C 0.04529 0.69467 0.34974 0.0
C1843 C 0.03522 0.70626 0.32638 0.0
C1844 C 0.05023 0.71526 0.30508 0.0
C1845 C 0.07501 0.71254 0.30729 0.0
C1846 C 0.08463 0.70103 0.33144 0.0
H1847 H 0.57342 0.80896 0.69609 0.0
H1848 H 0.59961 0.7429 0.66133 0.0
H1849 H 0.58651 0.755 0.61306 0.0
H1850 H 0.52135 0.81286 0.65065 0.0
H1851 H 0.52326 0.84445 0.64684 0.0
H1852 H 0.53419 0.83039 0.67883 0.0
H1853 H 0.57502 0.84979 0.67088 0.0
H1854 H 0.56424 0.86385 0.63884 0.0
H1855 H 0.59015 0.84542 0.63731 0.0
H1856 H 0.57259 0.77493 0.56846 0.0
H1857 H 0.5569 0.8007 0.53034 0.0
H1858 H 0.53836 0.85342 0.59393 0.0
C1859 C 0.57625 0.79699 0.67834 0.0
C1860 C 0.58754 0.77499 0.68241 0.0
C1861 C 0.59096 0.75981 0.65868 0.0
C1862 C 0.58361 0.76653 0.6312 0.0
C1863 C 0.57271 0.78841 0.62785 0.0
C1864 C 0.56886 0.80335 0.65076 0.0
C1865 C 0.55688 0.82597 0.64121 0.0
C1866 C 0.53247 0.82856 0.65521 0.0
C1867 C 0.57251 0.84752 0.64743 0.0
C1868 C 0.55483 0.82148 0.6093 0.0
C1869 C 0.56415 0.79973 0.60209 0.0
C1870 C 0.56506 0.79191 0.57385 0.0
C1871 C 0.55617 0.8067 0.55236 0.0
C1872 C 0.54634 0.82898 0.55923 0.0
C1873 C 0.54558 0.83638 0.58811 0.0
H1874 H 0.42998 0.28252 0.81783 0.0
H1875 H 0.38574 0.34048 0.78914 0.0
H1876 H 0.39607 0.36297 0.83253 0.0
H1877 H 0.415 0.2865 0.89141 0.0
H1878 H 0.44411 0.27955 0.90447 0.0
H1879 H 0.4346 0.26848 0.87023 0.0
H1880 H 0.47088 0.28769 0.84592 0.0
H1881 H 0.48054 0.29878 0.88013 0.0
H1882 H 0.47618 0.31881 0.85058 0.0
H1883 H 0.40919 0.37831 0.87974 0.0
H1884 H 0.42464 0.38581 0.92824 0.0
H1885 H 0.46067 0.31817 0.92689 0.0
C1886 C 0.42271 0.30005 0.82055 0.0
C1887 C 0.4071 0.3098 0.80009 0.0
C1888 C 0.39775 0.33269 0.80452 0.0
C1889 C 0.40354 0.34562 0.82907 0.0
C1890 C 0.41875 0.33544 0.84897 0.0
C1891 C 0.42829 0.31323 0.84502 0.0
C1892 C 0.44348 0.3061 0.87036 0.0
C1893 C 0.4337 0.28384 0.88498 0.0
C1894 C 0.4693 0.30265 0.86119 0.0
C1895 C 0.44066 0.32766 0.88929 0.0
C1896 C 0.42641 0.34438 0.87641 0.0
C1897 C 0.42053 0.36545 0.88998 0.0
C1898 C 0.42935 0.36952 0.91755 0.0
C1899 C 0.4439 0.35261 0.93127 0.0
C1900 C 0.44975 0.33149 0.91682 0.0
H1901 H 0.8975 0.19577 0.18599 0.0
H1902 H 0.92748 0.26523 0.1725 0.0
H1903 H 0.94862 0.25038 0.12968 0.0
H1904 H 0.94767 0.16163 0.16391 0.0
H1905 H 0.93033 0.1394 0.14612 0.0
H1906 H 0.91816 0.15534 0.17607 0.0
H1907 H 0.88252 0.16826 0.14501 0.0
H1908 H 0.89447 0.15221 0.11505 0.0
H1909 H 0.88768 0.18315 0.11144 0.0
H1910 H 0.96728 0.22742 0.08909 0.0
H1911 H 0.97866 0.19943 0.05085 0.0
H1912 H 0.9346 0.14569 0.08968 0.0
C1913 C 0.90854 0.20784 0.17403 0.0
C1914 C 0.91102 0.2316 0.18256 0.0
C1915 C 0.92536 0.24697 0.16623 0.0
C1916 C 0.93751 0.23866 0.14201 0.0
C1917 C 0.93484 0.21504 0.1343 0.0
C1918 C 0.92044 0.19995 0.1496 0.0
C1919 C 0.91974 0.17566 0.13616 0.0
C1920 C 0.92957 0.15691 0.1568 0.0
C1921 C 0.89461 0.16947 0.12633 0.0
C1922 C 0.93605 0.17939 0.1109 0.0
C1923 C 0.94482 0.20212 0.1104 0.0
C1924 C 0.96043 0.20962 0.08921 0.0
C1925 C 0.96688 0.19357 0.06767 0.0
C1926 C 0.95747 0.17045 0.06732 0.0
C1927 C 0.94203 0.16328 0.08939 0.0
H1928 H 0.92625 0.63912 0.93732 0.0
H1929 H 0.97633 0.69372 0.96036 0.0
H1930 H 0.96485 0.71652 0.91741 0.0
H1931 H 0.9364 0.64083 0.86267 0.0
H1932 H 0.90603 0.63601 0.85292 0.0
H1933 H 0.91713 0.62472 0.88636 0.0
H1934 H 0.88428 0.64711 0.91386 0.0
H1935 H 0.87298 0.65838 0.88046 0.0
H1936 H 0.88094 0.67847 0.90877 0.0
H1937 H 0.94908 0.73249 0.87072 0.0
H1938 H 0.92983 0.74057 0.82415 0.0
H1939 H 0.89035 0.67536 0.83186 0.0
C1940 C 0.93462 0.65599 0.9335 0.0
C1941 C 0.95214 0.66469 0.95217 0.0
C1942 C 0.96281 0.68676 0.94635 0.0
C1943 C 0.95641 0.69983 0.92202 0.0
C1944 C 0.93927 0.69061 0.90383 0.0
C1945 C 0.92845 0.66924 0.90935 0.0
C1946 C 0.91105 0.66293 0.88602 0.0
C1947 C 0.91809 0.63975 0.87111 0.0
C1948 C 0.88582 0.66165 0.898 0.0
C1949 C 0.91404 0.68388 0.86627 0.0
C1950 C 0.93029 0.69974 0.87698 0.0
C1951 C 0.93623 0.72027 0.8622 0.0
C1952 C 0.92525 0.72469 0.83578 0.0
C1953 C 0.90862 0.7086 0.82444 0.0
C1954 C 0.90298 0.688 0.84 0.0
H1955 H 0.11739 0.16378 0.67901 0.0
H1956 H 0.07465 0.2234 0.7059 0.0
H1957 H 0.0514 0.22038 0.66133 0.0
H1958 H 0.11883 0.17904 0.60333 0.0
H1959 H 0.11731 0.14878 0.59161 0.0
H1960 H 0.13086 0.15587 0.62543 0.0
H1961 H 0.10255 0.127 0.65125 0.0
H1962 H 0.08888 0.11986 0.61755 0.0
H1963 H 0.07115 0.13049 0.6469 0.0
H1964 H 0.03162 0.20973 0.61523 0.0
H1965 H 0.01771 0.19335 0.56926 0.0
H1966 H 0.07415 0.14156 0.5712 0.0
C1967 C 0.10321 0.17626 0.67544 0.0
C1968 C 0.09776 0.1938 0.69591 0.0
C1969 C 0.07912 0.20984 0.69047 0.0
C1970 C 0.06581 0.20826 0.66525 0.0
C1971 C 0.07151 0.19067 0.64559 0.0
C1972 C 0.08987 0.17506 0.65024 0.0
C1973 C 0.09227 0.15777 0.62564 0.0
C1974 C 0.11624 0.16054 0.61061 0.0
C1975 C 0.08848 0.13227 0.63596 0.0
C1976 C 0.07222 0.16593 0.60659 0.0
C1977 C 0.06044 0.18488 0.61858 0.0
C1978 C 0.04081 0.19502 0.60551 0.0
C1979 C 0.03301 0.18556 0.57946 0.0
C1980 C 0.04492 0.16628 0.56666 0.0
C1981 C 0.06484 0.15644 0.58039 0.0
H1982 H 0.54059 0.34742 0.39141 0.0
H1983 H 0.53313 0.28786 0.44904 0.0
H1984 H 0.54593 0.26087 0.4105 0.0
H1985 H 0.52231 0.31756 0.32549 0.0
H1986 H 0.54406 0.33232 0.30378 0.0
H1987 H 0.53217 0.34674 0.33503 0.0
H1988 H 0.57444 0.35246 0.35491 0.0
H1989 H 0.58644 0.33807 0.32377 0.0
H1990 H 0.59346 0.32716 0.35904 0.0
H1991 H 0.56052 0.24048 0.36625 0.0
H1992 H 0.57861 0.22839 0.32033 0.0
H1993 H 0.57882 0.3014 0.2923 0.0
C1994 C 0.54133 0.32866 0.3957 0.0
C1995 C 0.5357 0.31964 0.42304 0.0
C1996 C 0.53735 0.29507 0.42816 0.0
C1997 C 0.5445 0.27961 0.4064 0.0
C1998 C 0.5502 0.28904 0.37973 0.0
C1999 C 0.54889 0.313 0.37433 0.0
C2000 C 0.55767 0.31872 0.34447 0.0
C2001 C 0.53787 0.32947 0.32611 0.0
C2002 C 0.57929 0.33506 0.34563 0.0
C2003 C 0.56431 0.29428 0.33405 0.0
C2004 C 0.55952 0.27737 0.35457 0.0
C2005 C 0.56433 0.25354 0.34999 0.0
C2006 C 0.57456 0.24684 0.32386 0.0
C2007 C 0.58015 0.26395 0.30284 0.0
C2008 C 0.57477 0.28793 0.30801 0.0
H2009 H 0.44819 0.8162 0.06255 0.0
H2010 H 0.41803 0.88665 0.06252 0.0
H2011 H 0.40285 0.88019 0.1114 0.0
H2012 H 0.4006 0.78829 0.10019 0.0
H2013 H 0.41939 0.76869 0.12034 0.0
H2014 H 0.42855 0.779 0.08558 0.0
H2015 H 0.46723 0.79512 0.1076 0.0
H2016 H 0.45817 0.78489 0.14245 0.0
H2017 H 0.46574 0.81546 0.13724 0.0
H2018 H 0.39051 0.86621 0.15968 0.0
H2019 H 0.38092 0.84515 0.2044 0.0
H2020 H 0.41866 0.78346 0.17357 0.0
C2021 C 0.43846 0.83027 0.0729 0.0
C2022 C 0.43431 0.85196 0.05877 0.0
C2023 C 0.42141 0.86991 0.07294 0.0
C2024 C 0.41275 0.86643 0.10072 0.0
C2025 C 0.4171 0.84488 0.11405 0.0
C2026 C 0.42959 0.82706 0.10067 0.0
C2027 C 0.43132 0.80541 0.11968 0.0
C2028 C 0.41924 0.78409 0.1056 0.0
C2029 C 0.45715 0.7999 0.12719 0.0
C2030 C 0.41776 0.81385 0.14575 0.0
C2031 C 0.40982 0.83671 0.14203 0.0
C2032 C 0.39666 0.84832 0.1629 0.0
C2033 C 0.39131 0.8362 0.18823 0.0
C2034 C 0.39906 0.81269 0.19247 0.0
C2035 C 0.41257 0.80145 0.17096 0.0
H2036 H 0.91885 0.35831 0.57561 0.0
H2037 H 0.95879 0.2977 0.54587 0.0
H2038 H 0.9456 0.27497 0.58813 0.0
H2039 H 0.93127 0.35101 0.6498 0.0
H2040 H 0.90241 0.36024 0.66154 0.0
H2041 H 0.91425 0.37132 0.62839 0.0
H2042 H 0.87733 0.35621 0.60132 0.0
H2043 H 0.86539 0.34503 0.63442 0.0
H2044 H 0.86914 0.32558 0.60421 0.0
H2045 H 0.92906 0.25932 0.63452 0.0
H2046 H 0.91073 0.25212 0.68182 0.0
H2047 H 0.88153 0.32294 0.68086 0.0
C2048 C 0.92472 0.34022 0.57791 0.0
C2049 C 0.93982 0.32974 0.55748 0.0
C2050 C 0.9472 0.30606 0.56129 0.0
C2051 C 0.93977 0.293 0.58517 0.0
C2052 C 0.92493 0.30388 0.60499 0.0
C2053 C 0.91747 0.32694 0.60159 0.0
C2054 C 0.90202 0.3347 0.62632 0.0
C2055 C 0.91316 0.35555 0.64247 0.0
C2056 C 0.87699 0.34073 0.61594 0.0
C2057 C 0.90217 0.31248 0.64432 0.0
C2058 C 0.91539 0.29486 0.6316 0.0
C2059 C 0.91855 0.27294 0.64461 0.0
C2060 C 0.90808 0.26901 0.67144 0.0
C2061 C 0.89466 0.28693 0.68492 0.0
C2062 C 0.89156 0.30884 0.67099 0.0
H2063 H 0.39528 0.17261 0.3268 0.0
H2064 H 0.43078 0.23925 0.31192 0.0
H2065 H 0.45673 0.23161 0.35347 0.0
H2066 H 0.39666 0.17592 0.40468 0.0
H2067 H 0.40126 0.14464 0.40896 0.0
H2068 H 0.38535 0.15564 0.37833 0.0
H2069 H 0.41446 0.13384 0.34463 0.0
H2070 H 0.43059 0.12295 0.37514 0.0
H2071 H 0.44564 0.13947 0.34768 0.0
H2072 H 0.48023 0.21561 0.39485 0.0
H2073 H 0.49723 0.19414 0.43608 0.0
H2074 H 0.44521 0.1388 0.42524 0.0
C2075 C 0.4084 0.18567 0.33244 0.0
C2076 C 0.4111 0.20649 0.31617 0.0
C2077 C 0.4284 0.22321 0.3242 0.0
C2078 C 0.44326 0.21899 0.34767 0.0
C2079 C 0.44038 0.1981 0.36302 0.0
C2080 C 0.42317 0.18187 0.35599 0.0
C2081 C 0.42358 0.16095 0.37619 0.0
C2082 C 0.40033 0.1592 0.39304 0.0
C2083 C 0.42889 0.13795 0.35993 0.0
C2084 C 0.44388 0.16783 0.39548 0.0
C2085 C 0.45345 0.18923 0.38739 0.0
C2086 C 0.47277 0.19893 0.40153 0.0
C2087 C 0.48237 0.18656 0.42481 0.0
C2088 C 0.47248 0.16487 0.43384 0.0
C2089 C 0.45305 0.1554 0.41887 0.0
H2090 H 0.54163 0.68103 0.0699 0.0
H2091 H 0.5855 0.61817 0.0689 0.0
H2092 H 0.60418 0.63065 0.11406 0.0
H2093 H 0.58663 0.72033 0.09823 0.0
H2094 H 0.56613 0.73686 0.11992 0.0
H2095 H 0.55628 0.72317 0.08723 0.0
H2096 H 0.52379 0.701 0.11544 0.0
H2097 H 0.53361 0.71453 0.14823 0.0
H2098 H 0.53194 0.68285 0.1456 0.0
H2099 H 0.61693 0.64873 0.15995 0.0
H2100 H 0.62487 0.67274 0.20287 0.0
H2101 H 0.57389 0.72481 0.17398 0.0
C2102 C 0.55525 0.66998 0.07915 0.0
C2103 C 0.5621 0.64861 0.06594 0.0
C2104 C 0.58 0.63463 0.07863 0.0
C2105 C 0.59069 0.64153 0.10431 0.0
C2106 C 0.58341 0.66256 0.11693 0.0
C2107 C 0.56628 0.67672 0.10473 0.0
C2108 C 0.56188 0.69854 0.12278 0.0
C2109 C 0.56811 0.72106 0.10604 0.0
C2110 C 0.53629 0.69926 0.13365 0.0
C2111 C 0.57909 0.69427 0.14711 0.0
C2112 C 0.59122 0.67334 0.14329 0.0
C2113 C 0.60767 0.66524 0.16312 0.0
C2114 C 0.612 0.67897 0.18746 0.0
C2115 C 0.60004 0.70064 0.19169 0.0
C2116 C 0.58337 0.70836 0.17121 0.0
H2117 H 0.10388 0.82687 0.81463 0.0
H2118 H 0.05171 0.77367 0.79355 0.0
H2119 H 0.03015 0.78284 0.83808 0.0
H2120 H 0.1053 0.81572 0.88997 0.0
H2121 H 0.10842 0.84628 0.89993 0.0
H2122 H 0.11947 0.83615 0.8659 0.0
H2123 H 0.09433 0.86774 0.83978 0.0
H2124 H 0.08324 0.87802 0.87374 0.0
H2125 H 0.06298 0.86899 0.84611 0.0
H2126 H 0.01483 0.79681 0.88519 0.0
H2127 H 0.00623 0.8153 0.93187 0.0
H2128 H 0.06813 0.85964 0.92273 0.0
C2129 C 0.08784 0.81727 0.81933 0.0
C2130 C 0.07944 0.79957 0.80064 0.0
C2131 C 0.05845 0.78731 0.80755 0.0
C2132 C 0.04608 0.79239 0.83279 0.0
C2133 C 0.0549 0.80979 0.85086 0.0
C2134 C 0.07524 0.82212 0.84447 0.0
C2135 C 0.08102 0.83976 0.86784 0.0
C2136 C 0.10497 0.83413 0.88173 0.0
C2137 C 0.08034 0.86513 0.85617 0.0
C2138 C 0.06084 0.83527 0.88842 0.0
C2139 C 0.04599 0.81793 0.87815 0.0
C2140 C 0.02627 0.81047 0.89343 0.0
C2141 C 0.02156 0.82106 0.91994 0.0
C2142 C 0.0365 0.83891 0.9309 0.0
C2143 C 0.05638 0.84607 0.91486 0.0
loop_
_geom_bond_atom_site_label_1
_geom_bond_atom_site_label_2
_geom_bond_distance
_geom_bond_site_symmetry_2
_ccdc_geom_bond_type
In0 O1 2.294 . S
In0 O2 2.326 . S
In0 O6 2.266 . S
In0 O7 2.326 . S
In0 O8 2.266 . S
In0 O9 2.326 . S
In0 O11 2.294 . S
In0 O12 2.326 . S
O1 In0 2.294 . S
O1 C10 1.240 . S
O2 In0 2.326 . S
O2 C10 1.252 . S
C3 O6 1.252 . S
C3 O7 1.260 . S
C4 O11 1.240 . S
C4 O12 1.252 . S
C5 O8 1.252 . S
C5 O9 1.260 . S
O6 In0 2.266 . S
O6 C3 1.252 . S
O7 In0 2.326 . S
O7 C3 1.260 . S
O8 In0 2.266 . S
O8 C5 1.252 . S
O9 In0 2.326 . S
O9 C5 1.260 . S
C10 O1 1.240 . S
C10 O2 1.252 . S
O11 In0 2.294 . S
O11 C4 1.240 . S
O12 In0 2.326 . S
O12 C4 1.252 . S
In13 O14 2.294 . S
In13 O15 2.326 . S
In13 O19 2.266 . S
In13 O20 2.326 . S
In13 O21 2.266 . S
In13 O22 2.326 . S
In13 O24 2.294 . S
In13 O25 2.326 . S
O14 In13 2.294 . S
O14 C23 1.240 . S
O15 In13 2.326 . S
O15 C23 1.252 . S
C16 O19 1.252 . S
C16 O20 1.260 . S
C17 O24 1.240 . S
C17 O25 1.252 . S
C18 O21 1.252 . S
C18 O22 1.260 . S
O19 In13 2.266 . S
O19 C16 1.252 . S
O20 In13 2.326 . S
O20 C16 1.260 . S
O21 In13 2.266 . S
O21 C18 1.252 . S
O22 In13 2.326 . S
O22 C18 1.260 . S
C23 O14 1.240 . S
C23 O15 1.252 . S
O24 In13 2.294 . S
O24 C17 1.240 . S
O25 In13 2.326 . S
O25 C17 1.252 . S
In26 O27 2.294 . S
In26 O28 2.326 . S
In26 O32 2.266 . S
In26 O33 2.326 . S
In26 O34 2.266 . S
In26 O35 2.326 . S
In26 O37 2.294 . S
In26 O38 2.326 . S
O27 In26 2.294 . S
O27 C36 1.240 . S
O28 In26 2.326 . S
O28 C36 1.252 . S
C29 O32 1.252 . S
C29 O33 1.260 . S
C30 O37 1.240 . S
C30 O38 1.252 . S
C31 O34 1.252 . S
C31 O35 1.260 . S
O32 In26 2.266 . S
O32 C29 1.252 . S
O33 In26 2.326 . S
O33 C29 1.260 . S
O34 In26 2.266 . S
O34 C31 1.252 . S
O35 In26 2.326 . S
O35 C31 1.260 . S
C36 O27 1.240 . S
C36 O28 1.252 . S
O37 In26 2.294 . S
O37 C30 1.240 . S
O38 In26 2.326 . S
O38 C30 1.252 . S
In39 O40 2.294 . S
In39 O41 2.326 . S
In39 O45 2.266 . S
In39 O46 2.326 . S
In39 O47 2.266 . S
In39 O48 2.326 . S
In39 O50 2.294 1_554 S
In39 O51 2.326 1_554 S
O40 In39 2.294 . S
O40 C49 1.240 . S
O41 In39 2.326 . S
O41 C49 1.252 . S
C42 O45 1.252 . S
C42 O46 1.260 . S
C43 O50 1.240 . S
C43 O51 1.252 . S
C44 O47 1.252 . S
C44 O48 1.260 . S
O45 In39 2.266 . S
O45 C42 1.252 . S
O46 In39 2.326 . S
O46 C42 1.260 . S
O47 In39 2.266 . S
O47 C44 1.252 . S
O48 In39 2.326 . S
O48 C44 1.260 . S
C49 O40 1.240 . S
C49 O41 1.252 . S
O50 In39 2.294 1_556 S
O50 C43 1.240 . S
O51 In39 2.326 1_556 S
O51 C43 1.252 . S
In52 O53 2.294 . S
In52 O54 2.326 . S
In52 O58 2.266 . S
In52 O59 2.326 . S
In52 O60 2.266 . S
In52 O61 2.326 . S
In52 O63 2.294 . S
In52 O64 2.326 . S
O53 In52 2.294 . S
O53 C62 1.240 . S
O54 In52 2.326 . S
O54 C62 1.252 . S
C55 O58 1.252 . S
C55 O59 1.260 . S
C56 O63 1.240 . S
C56 O64 1.252 . S
C57 O60 1.252 . S
C57 O61 1.260 . S
O58 In52 2.266 . S
O58 C55 1.252 . S
O59 In52 2.326 . S
O59 C55 1.260 . S
O60 In52 2.266 . S
O60 C57 1.252 . S
O61 In52 2.326 . S
O61 C57 1.260 . S
C62 O53 1.240 . S
C62 O54 1.252 . S
O63 In52 2.294 . S
O63 C56 1.240 . S
O64 In52 2.326 . S
O64 C56 1.252 . S
In65 O66 2.294 . S
In65 O67 2.326 . S
In65 O71 2.266 . S
In65 O72 2.326 . S
In65 O73 2.266 . S
In65 O74 2.326 . S
In65 O76 2.294 . S
In65 O77 2.326 . S
O66 In65 2.294 . S
O66 C75 1.240 . S
O67 In65 2.326 . S
O67 C75 1.252 . S
C68 O71 1.252 . S
C68 O72 1.260 . S
C69 O76 1.240 . S
C69 O77 1.252 . S
C70 O73 1.252 . S
C70 O74 1.260 . S
O71 In65 2.266 . S
O71 C68 1.252 . S
O72 In65 2.326 . S
O72 C68 1.260 . S
O73 In65 2.266 . S
O73 C70 1.252 . S
O74 In65 2.326 . S
O74 C70 1.260 . S
C75 O66 1.240 . S
C75 O67 1.252 . S
O76 In65 2.294 . S
O76 C69 1.240 . S
O77 In65 2.326 . S
O77 C69 1.252 . S
In78 O79 2.294 . S
In78 O80 2.326 . S
In78 O84 2.266 . S
In78 O85 2.326 . S
In78 O86 2.266 . S
In78 O87 2.326 . S
In78 O89 2.294 . S
In78 O90 2.326 . S
O79 In78 2.294 . S
O79 C88 1.240 . S
O80 In78 2.326 . S
O80 C88 1.252 . S
C81 O84 1.252 . S
C81 O85 1.260 . S
C82 O89 1.240 . S
C82 O90 1.252 . S
C83 O86 1.252 . S
C83 O87 1.260 . S
O84 In78 2.266 . S
O84 C81 1.252 . S
O85 In78 2.326 . S
O85 C81 1.260 . S
O86 In78 2.266 . S
O86 C83 1.252 . S
O87 In78 2.326 . S
O87 C83 1.260 . S
C88 O79 1.240 . S
C88 O80 1.252 . S
O89 In78 2.294 . S
O89 C82 1.240 . S
O90 In78 2.326 . S
O90 C82 1.252 . S
In91 O92 2.294 . S
In91 O93 2.326 . S
In91 O97 2.266 . S
In91 O98 2.326 . S
In91 O99 2.266 . S
In91 O100 2.326 . S
In91 O102 2.294 1_556 S
In91 O103 2.326 1_556 S
O92 In91 2.294 . S
O92 C101 1.240 . S
O93 In91 2.326 . S
O93 C101 1.252 . S
C94 O97 1.252 . S
C94 O98 1.260 . S
C95 O102 1.240 . S
C95 O103 1.252 . S
C96 O99 1.252 . S
C96 O100 1.260 . S
O97 In91 2.266 . S
O97 C94 1.252 . S
O98 In91 2.326 . S
O98 C94 1.260 . S
O99 In91 2.266 . S
O99 C96 1.252 . S
O100 In91 2.326 . S
O100 C96 1.260 . S
C101 O92 1.240 . S
C101 O93 1.252 . S
O102 In91 2.294 1_554 S
O102 C95 1.240 . S
O103 In91 2.326 1_554 S
O103 C95 1.252 . S
In104 O105 2.294 . S
In104 O106 2.326 . S
In104 O110 2.266 . S
In104 O111 2.326 . S
In104 O112 2.266 . S
In104 O113 2.326 . S
In104 O115 2.294 . S
In104 O116 2.326 . S
O105 In104 2.294 . S
O105 C114 1.240 . S
O106 In104 2.326 . S
O106 C114 1.252 . S
C107 O110 1.252 . S
C107 O111 1.260 . S
C108 O115 1.240 . S
C108 O116 1.252 . S
C109 O112 1.252 . S
C109 O113 1.260 . S
O110 In104 2.266 . S
O110 C107 1.252 . S
O111 In104 2.326 . S
O111 C107 1.260 . S
O112 In104 2.266 . S
O112 C109 1.252 . S
O113 In104 2.326 . S
O113 C109 1.260 . S
C114 O105 1.240 . S
C114 O106 1.252 . S
O115 In104 2.294 . S
O115 C108 1.240 . S
O116 In104 2.326 . S
O116 C108 1.252 . S
In117 O118 2.294 . S
In117 O119 2.326 . S
In117 O123 2.266 . S
In117 O124 2.326 . S
In117 O125 2.266 . S
In117 O126 2.326 . S
In117 O128 2.294 . S
In117 O129 2.326 . S
O118 In117 2.294 . S
O118 C127 1.240 . S
O119 In117 2.326 . S
O119 C127 1.252 . S
C120 O123 1.252 . S
C120 O124 1.260 . S
C121 O128 1.240 . S
C121 O129 1.252 . S
C122 O125 1.252 . S
C122 O126 1.260 . S
O123 In117 2.266 . S
O123 C120 1.252 . S
O124 In117 2.326 . S
O124 C120 1.260 . S
O125 In117 2.266 . S
O125 C122 1.252 . S
O126 In117 2.326 . S
O126 C122 1.260 . S
C127 O118 1.240 . S
C127 O119 1.252 . S
O128 In117 2.294 . S
O128 C121 1.240 . S
O129 In117 2.326 . S
O129 C121 1.252 . S
In130 O131 2.294 . S
In130 O132 2.326 . S
In130 O136 2.266 . S
In130 O137 2.326 . S
In130 O138 2.266 . S
In130 O139 2.326 . S
In130 O141 2.294 . S
In130 O142 2.326 . S
O131 In130 2.294 . S
O131 C140 1.240 . S
O132 In130 2.326 . S
O132 C140 1.252 . S
C133 O136 1.252 . S
C133 O137 1.260 . S
C134 O141 1.240 . S
C134 O142 1.252 . S
C135 O138 1.252 . S
C135 O139 1.260 . S
O136 In130 2.266 . S
O136 C133 1.252 . S
O137 In130 2.326 . S
O137 C133 1.260 . S
O138 In130 2.266 . S
O138 C135 1.252 . S
O139 In130 2.326 . S
O139 C135 1.260 . S
C140 O131 1.240 . S
C140 O132 1.252 . S
O141 In130 2.294 . S
O141 C134 1.240 . S
O142 In130 2.326 . S
O142 C134 1.252 . S
In143 O144 2.294 . S
In143 O145 2.326 . S
In143 O149 2.266 . S
In143 O150 2.326 . S
In143 O151 2.266 . S
In143 O152 2.326 . S
In143 O154 2.294 1_556 S
In143 O155 2.326 1_556 S
O144 In143 2.294 . S
O144 C153 1.240 . S
O145 In143 2.326 . S
O145 C153 1.252 . S
C146 O149 1.252 . S
C146 O150 1.260 . S
C147 O154 1.240 . S
C147 O155 1.252 . S
C148 O151 1.252 . S
C148 O152 1.260 . S
O149 In143 2.266 . S
O149 C146 1.252 . S
O150 In143 2.326 . S
O150 C146 1.260 . S
O151 In143 2.266 . S
O151 C148 1.252 . S
O152 In143 2.326 . S
O152 C148 1.260 . S
C153 O144 1.240 . S
C153 O145 1.252 . S
O154 In143 2.294 1_554 S
O154 C147 1.240 . S
O155 In143 2.326 1_554 S
O155 C147 1.252 . S
In156 O157 2.294 . S
In156 O158 2.326 . S
In156 O162 2.266 . S
In156 O163 2.326 . S
In156 O164 2.266 . S
In156 O165 2.326 . S
In156 O167 2.294 . S
In156 O168 2.326 . S
O157 In156 2.294 . S
O157 C166 1.240 . S
O158 In156 2.326 . S
O158 C166 1.252 . S
C159 O162 1.252 . S
C159 O163 1.260 . S
C160 O167 1.240 . S
C160 O168 1.252 . S
C161 O164 1.252 . S
C161 O165 1.260 . S
O162 In156 2.266 . S
O162 C159 1.252 . S
O163 In156 2.326 . S
O163 C159 1.260 . S
O164 In156 2.266 . S
O164 C161 1.252 . S
O165 In156 2.326 . S
O165 C161 1.260 . S
C166 O157 1.240 . S
C166 O158 1.252 . S
O167 In156 2.294 . S
O167 C160 1.240 . S
O168 In156 2.326 . S
O168 C160 1.252 . S
In169 O170 2.294 . S
In169 O171 2.326 . S
In169 O175 2.266 . S
In169 O176 2.326 . S
In169 O177 2.266 . S
In169 O178 2.326 . S
In169 O180 2.294 . S
In169 O181 2.326 . S
O170 In169 2.294 . S
O170 C179 1.240 . S
O171 In169 2.326 . S
O171 C179 1.252 . S
C172 O175 1.252 . S
C172 O176 1.260 . S
C173 O180 1.240 . S
C173 O181 1.252 . S
C174 O177 1.252 . S
C174 O178 1.260 . S
O175 In169 2.266 . S
O175 C172 1.252 . S
O176 In169 2.326 . S
O176 C172 1.260 . S
O177 In169 2.266 . S
O177 C174 1.252 . S
O178 In169 2.326 . S
O178 C174 1.260 . S
C179 O170 1.240 . S
C179 O171 1.252 . S
O180 In169 2.294 . S
O180 C173 1.240 . S
O181 In169 2.326 . S
O181 C173 1.252 . S
In182 O183 2.294 . S
In182 O184 2.326 . S
In182 O188 2.266 . S
In182 O189 2.326 . S
In182 O190 2.266 . S
In182 O191 2.326 . S
In182 O193 2.294 . S
In182 O194 2.326 . S
O183 In182 2.294 . S
O183 C192 1.240 . S
O184 In182 2.326 . S
O184 C192 1.252 . S
C185 O188 1.252 . S
C185 O189 1.260 . S
C186 O193 1.240 . S
C186 O194 1.252 . S
C187 O190 1.252 . S
C187 O191 1.260 . S
O188 In182 2.266 . S
O188 C185 1.252 . S
O189 In182 2.326 . S
O189 C185 1.260 . S
O190 In182 2.266 . S
O190 C187 1.252 . S
O191 In182 2.326 . S
O191 C187 1.260 . S
C192 O183 1.240 . S
C192 O184 1.252 . S
O193 In182 2.294 . S
O193 C186 1.240 . S
O194 In182 2.326 . S
O194 C186 1.252 . S
In195 O196 2.294 . S
In195 O197 2.326 . S
In195 O201 2.266 . S
In195 O202 2.326 . S
In195 O203 2.266 . S
In195 O204 2.326 . S
In195 O206 2.294 1_554 S
In195 O207 2.326 1_554 S
O196 In195 2.294 . S
O196 C205 1.240 . S
O197 In195 2.326 . S
O197 C205 1.252 . S
C198 O201 1.252 . S
C198 O202 1.260 . S
C199 O206 1.240 . S
C199 O207 1.252 . S
C200 O203 1.252 . S
C200 O204 1.260 . S
O201 In195 2.266 . S
O201 C198 1.252 . S
O202 In195 2.326 . S
O202 C198 1.260 . S
O203 In195 2.266 . S
O203 C200 1.252 . S
O204 In195 2.326 . S
O204 C200 1.260 . S
C205 O196 1.240 . S
C205 O197 1.252 . S
O206 In195 2.294 1_556 S
O206 C199 1.240 . S
O207 In195 2.326 1_556 S
O207 C199 1.252 . S
In208 O209 2.294 . S
In208 O210 2.326 . S
In208 O214 2.266 . S
In208 O215 2.326 . S
In208 O216 2.266 . S
In208 O217 2.326 . S
In208 O219 2.294 . S
In208 O220 2.326 . S
O209 In208 2.294 . S
O209 C218 1.240 . S
O210 In208 2.326 . S
O210 C218 1.252 . S
C211 O214 1.252 . S
C211 O215 1.260 . S
C212 O219 1.240 . S
C212 O220 1.252 . S
C213 O216 1.252 . S
C213 O217 1.260 . S
O214 In208 2.266 . S
O214 C211 1.252 . S
O215 In208 2.326 . S
O215 C211 1.260 . S
O216 In208 2.266 . S
O216 C213 1.252 . S
O217 In208 2.326 . S
O217 C213 1.260 . S
C218 O209 1.240 . S
C218 O210 1.252 . S
O219 In208 2.294 . S
O219 C212 1.240 . S
O220 In208 2.326 . S
O220 C212 1.252 . S
In221 O222 2.294 . S
In221 O223 2.326 . S
In221 O227 2.266 . S
In221 O228 2.326 . S
In221 O229 2.266 . S
In221 O230 2.326 . S
In221 O232 2.294 1_554 S
In221 O233 2.326 1_554 S
O222 In221 2.294 . S
O222 C231 1.240 . S
O223 In221 2.326 . S
O223 C231 1.252 . S
C224 O227 1.252 . S
C224 O228 1.260 . S
C225 O232 1.240 . S
C225 O233 1.252 . S
C226 O229 1.252 . S
C226 O230 1.260 . S
O227 In221 2.266 . S
O227 C224 1.252 . S
O228 In221 2.326 . S
O228 C224 1.260 . S
O229 In221 2.266 . S
O229 C226 1.252 . S
O230 In221 2.326 . S
O230 C226 1.260 . S
C231 O222 1.240 . S
C231 O223 1.252 . S
O232 In221 2.294 1_556 S
O232 C225 1.240 . S
O233 In221 2.326 1_556 S
O233 C225 1.252 . S
In234 O235 2.294 . S
In234 O236 2.326 . S
In234 O240 2.266 . S
In234 O241 2.326 . S
In234 O242 2.266 . S
In234 O243 2.326 . S
In234 O245 2.294 . S
In234 O246 2.326 . S
O235 In234 2.294 . S
O235 C244 1.240 . S
O236 In234 2.326 . S
O236 C244 1.252 . S
C237 O240 1.252 . S
C237 O241 1.260 . S
C238 O245 1.240 . S
C238 O246 1.252 . S
C239 O242 1.252 . S
C239 O243 1.260 . S
O240 In234 2.266 . S
O240 C237 1.252 . S
O241 In234 2.326 . S
O241 C237 1.260 . S
O242 In234 2.266 . S
O242 C239 1.252 . S
O243 In234 2.326 . S
O243 C239 1.260 . S
C244 O235 1.240 . S
C244 O236 1.252 . S
O245 In234 2.294 . S
O245 C238 1.240 . S
O246 In234 2.326 . S
O246 C238 1.252 . S
In247 O248 2.294 . S
In247 O249 2.326 . S
In247 O253 2.266 . S
In247 O254 2.326 . S
In247 O255 2.266 . S
In247 O256 2.326 . S
In247 O258 2.294 . S
In247 O259 2.326 . S
O248 In247 2.294 . S
O248 C257 1.240 . S
O249 In247 2.326 . S
O249 C257 1.252 . S
C250 O253 1.252 . S
C250 O254 1.260 . S
C251 O258 1.240 . S
C251 O259 1.252 . S
C252 O255 1.252 . S
C252 O256 1.260 . S
O253 In247 2.266 . S
O253 C250 1.252 . S
O254 In247 2.326 . S
O254 C250 1.260 . S
O255 In247 2.266 . S
O255 C252 1.252 . S
O256 In247 2.326 . S
O256 C252 1.260 . S
C257 O248 1.240 . S
C257 O249 1.252 . S
O258 In247 2.294 . S
O258 C251 1.240 . S
O259 In247 2.326 . S
O259 C251 1.252 . S
In260 O261 2.294 . S
In260 O262 2.326 . S
In260 O266 2.266 . S
In260 O267 2.326 . S
In260 O268 2.266 . S
In260 O269 2.326 . S
In260 O271 2.294 . S
In260 O272 2.326 . S
O261 In260 2.294 . S
O261 C270 1.240 . S
O262 In260 2.326 . S
O262 C270 1.252 . S
C263 O266 1.252 . S
C263 O267 1.260 . S
C264 O271 1.240 . S
C264 O272 1.252 . S
C265 O268 1.252 . S
C265 O269 1.260 . S
O266 In260 2.266 . S
O266 C263 1.252 . S
O267 In260 2.326 . S
O267 C263 1.260 . S
O268 In260 2.266 . S
O268 C265 1.252 . S
O269 In260 2.326 . S
O269 C265 1.260 . S
C270 O261 1.240 . S
C270 O262 1.252 . S
O271 In260 2.294 . S
O271 C264 1.240 . S
O272 In260 2.326 . S
O272 C264 1.252 . S
In273 O274 2.294 1_556 S
In273 O275 2.326 1_556 S
In273 O279 2.266 . S
In273 O280 2.326 . S
In273 O281 2.266 . S
In273 O282 2.326 . S
In273 O284 2.294 . S
In273 O285 2.326 . S
O274 In273 2.294 1_554 S
O274 C283 1.240 . S
O275 In273 2.326 1_554 S
O275 C283 1.252 . S
C276 O279 1.252 . S
C276 O280 1.260 . S
C277 O284 1.240 . S
C277 O285 1.252 . S
C278 O281 1.252 . S
C278 O282 1.260 . S
O279 In273 2.266 . S
O279 C276 1.252 . S
O280 In273 2.326 . S
O280 C276 1.260 . S
O281 In273 2.266 . S
O281 C278 1.252 . S
O282 In273 2.326 . S
O282 C278 1.260 . S
C283 O274 1.240 . S
C283 O275 1.252 . S
O284 In273 2.294 . S
O284 C277 1.240 . S
O285 In273 2.326 . S
O285 C277 1.252 . S
In286 O287 2.294 . S
In286 O288 2.326 . S
In286 O292 2.266 . S
In286 O293 2.326 . S
In286 O294 2.266 . S
In286 O295 2.326 . S
In286 O297 2.294 . S
In286 O298 2.326 . S
O287 In286 2.294 . S
O287 C296 1.240 . S
O288 In286 2.326 . S
O288 C296 1.252 . S
C289 O292 1.252 . S
C289 O293 1.260 . S
C290 O297 1.240 . S
C290 O298 1.252 . S
C291 O294 1.252 . S
C291 O295 1.260 . S
O292 In286 2.266 . S
O292 C289 1.252 . S
O293 In286 2.326 . S
O293 C289 1.260 . S
O294 In286 2.266 . S
O294 C291 1.252 . S
O295 In286 2.326 . S
O295 C291 1.260 . S
C296 O287 1.240 . S
C296 O288 1.252 . S
O297 In286 2.294 . S
O297 C290 1.240 . S
O298 In286 2.326 . S
O298 C290 1.252 . S
In299 O300 2.294 . S
In299 O301 2.326 . S
In299 O305 2.266 . S
In299 O306 2.326 . S
In299 O307 2.266 . S
In299 O308 2.326 . S
In299 O310 2.294 . S
In299 O311 2.326 . S
O300 In299 2.294 . S
O300 C309 1.240 . S
O301 In299 2.326 . S
O301 C309 1.252 . S
C302 O305 1.252 . S
C302 O306 1.260 . S
C303 O310 1.240 . S
C303 O311 1.252 . S
C304 O307 1.252 . S
C304 O308 1.260 . S
O305 In299 2.266 . S
O305 C302 1.252 . S
O306 In299 2.326 . S
O306 C302 1.260 . S
O307 In299 2.266 . S
O307 C304 1.252 . S
O308 In299 2.326 . S
O308 C304 1.260 . S
C309 O300 1.240 . S
C309 O301 1.252 . S
O310 In299 2.294 . S
O310 C303 1.240 . S
O311 In299 2.326 . S
O311 C303 1.252 . S
In312 O313 2.294 . S
In312 O314 2.326 . S
In312 O318 2.266 . S
In312 O319 2.326 . S
In312 O320 2.266 . S
In312 O321 2.326 . S
In312 O323 2.294 . S
In312 O324 2.326 . S
O313 In312 2.294 . S
O313 C322 1.240 . S
O314 In312 2.326 . S
O314 C322 1.252 . S
C315 O318 1.252 . S
C315 O319 1.260 . S
C316 O323 1.240 . S
C316 O324 1.252 . S
C317 O320 1.252 . S
C317 O321 1.260 . S
O318 In312 2.266 . S
O318 C315 1.252 . S
O319 In312 2.326 . S
O319 C315 1.260 . S
O320 In312 2.266 . S
O320 C317 1.252 . S
O321 In312 2.326 . S
O321 C317 1.260 . S
C322 O313 1.240 . S
C322 O314 1.252 . S
O323 In312 2.294 . S
O323 C316 1.240 . S
O324 In312 2.326 . S
O324 C316 1.252 . S
In325 O326 2.294 1_556 S
In325 O327 2.326 1_556 S
In325 O331 2.266 . S
In325 O332 2.326 . S
In325 O333 2.266 . S
In325 O334 2.326 . S
In325 O336 2.294 . S
In325 O337 2.326 . S
O326 In325 2.294 1_554 S
O326 C335 1.240 . S
O327 In325 2.326 1_554 S
O327 C335 1.252 . S
C328 O331 1.252 . S
C328 O332 1.260 . S
C329 O336 1.240 . S
C329 O337 1.252 . S
C330 O333 1.252 . S
C330 O334 1.260 . S
O331 In325 2.266 . S
O331 C328 1.252 . S
O332 In325 2.326 . S
O332 C328 1.260 . S
O333 In325 2.266 . S
O333 C330 1.252 . S
O334 In325 2.326 . S
O334 C330 1.260 . S
C335 O326 1.240 . S
C335 O327 1.252 . S
O336 In325 2.294 . S
O336 C329 1.240 . S
O337 In325 2.326 . S
O337 C329 1.252 . S
In338 O339 2.294 . S
In338 O340 2.326 . S
In338 O344 2.266 . S
In338 O345 2.326 . S
In338 O346 2.266 . S
In338 O347 2.326 . S
In338 O349 2.294 . S
In338 O350 2.326 . S
O339 In338 2.294 . S
O339 C348 1.240 . S
O340 In338 2.326 . S
O340 C348 1.252 . S
C341 O344 1.252 . S
C341 O345 1.260 . S
C342 O349 1.240 . S
C342 O350 1.252 . S
C343 O346 1.252 . S
C343 O347 1.260 . S
O344 In338 2.266 . S
O344 C341 1.252 . S
O345 In338 2.326 . S
O345 C341 1.260 . S
O346 In338 2.266 . S
O346 C343 1.252 . S
O347 In338 2.326 . S
O347 C343 1.260 . S
C348 O339 1.240 . S
C348 O340 1.252 . S
O349 In338 2.294 . S
O349 C342 1.240 . S
O350 In338 2.326 . S
O350 C342 1.252 . S
In351 O352 2.294 . S
In351 O353 2.326 . S
In351 O357 2.266 . S
In351 O358 2.326 . S
In351 O359 2.266 . S
In351 O360 2.326 . S
In351 O362 2.294 . S
In351 O363 2.326 . S
O352 In351 2.294 . S
O352 C361 1.240 . S
O353 In351 2.326 . S
O353 C361 1.252 . S
C354 O357 1.252 . S
C354 O358 1.260 . S
C355 O362 1.240 . S
C355 O363 1.252 . S
C356 O359 1.252 . S
C356 O360 1.260 . S
O357 In351 2.266 . S
O357 C354 1.252 . S
O358 In351 2.326 . S
O358 C354 1.260 . S
O359 In351 2.266 . S
O359 C356 1.252 . S
O360 In351 2.326 . S
O360 C356 1.260 . S
C361 O352 1.240 . S
C361 O353 1.252 . S
O362 In351 2.294 . S
O362 C355 1.240 . S
O363 In351 2.326 . S
O363 C355 1.252 . S
In364 O365 2.294 . S
In364 O366 2.326 . S
In364 O370 2.266 . S
In364 O371 2.326 . S
In364 O372 2.266 . S
In364 O373 2.326 . S
In364 O375 2.294 . S
In364 O376 2.326 . S
O365 In364 2.294 . S
O365 C374 1.240 . S
O366 In364 2.326 . S
O366 C374 1.252 . S
C367 O370 1.252 . S
C367 O371 1.260 . S
C368 O375 1.240 . S
C368 O376 1.252 . S
C369 O372 1.252 . S
C369 O373 1.260 . S
O370 In364 2.266 . S
O370 C367 1.252 . S
O371 In364 2.326 . S
O371 C367 1.260 . S
O372 In364 2.266 . S
O372 C369 1.252 . S
O373 In364 2.326 . S
O373 C369 1.260 . S
C374 O365 1.240 . S
C374 O366 1.252 . S
O375 In364 2.294 . S
O375 C368 1.240 . S
O376 In364 2.326 . S
O376 C368 1.252 . S
In377 O378 2.294 . S
In377 O379 2.326 . S
In377 O383 2.266 . S
In377 O384 2.326 . S
In377 O385 2.266 . S
In377 O386 2.326 . S
In377 O388 2.294 1_554 S
In377 O389 2.326 1_554 S
O378 In377 2.294 . S
O378 C387 1.240 . S
O379 In377 2.326 . S
O379 C387 1.252 . S
C380 O383 1.252 . S
C380 O384 1.260 . S
C381 O388 1.240 . S
C381 O389 1.252 . S
C382 O385 1.252 . S
C382 O386 1.260 . S
O383 In377 2.266 . S
O383 C380 1.252 . S
O384 In377 2.326 . S
O384 C380 1.260 . S
O385 In377 2.266 . S
O385 C382 1.252 . S
O386 In377 2.326 . S
O386 C382 1.260 . S
C387 O378 1.240 . S
C387 O379 1.252 . S
O388 In377 2.294 1_556 S
O388 C381 1.240 . S
O389 In377 2.326 1_556 S
O389 C381 1.252 . S
In390 O391 2.294 . S
In390 O392 2.326 . S
In390 O396 2.266 . S
In390 O397 2.326 . S
In390 O398 2.266 . S
In390 O399 2.326 . S
In390 O401 2.294 . S
In390 O402 2.326 . S
O391 In390 2.294 . S
O391 C400 1.240 . S
O392 In390 2.326 . S
O392 C400 1.252 . S
C393 O396 1.252 . S
C393 O397 1.260 . S
C394 O401 1.240 . S
C394 O402 1.252 . S
C395 O398 1.252 . S
C395 O399 1.260 . S
O396 In390 2.266 . S
O396 C393 1.252 . S
O397 In390 2.326 . S
O397 C393 1.260 . S
O398 In390 2.266 . S
O398 C395 1.252 . S
O399 In390 2.326 . S
O399 C395 1.260 . S
C400 O391 1.240 . S
C400 O392 1.252 . S
O401 In390 2.294 . S
O401 C394 1.240 . S
O402 In390 2.326 . S
O402 C394 1.252 . S
In403 O404 2.294 . S
In403 O405 2.326 . S
In403 O409 2.266 . S
In403 O410 2.326 . S
In403 O411 2.266 . S
In403 O412 2.326 . S
In403 O414 2.294 . S
In403 O415 2.326 . S
O404 In403 2.294 . S
O404 C413 1.240 . S
O405 In403 2.326 . S
O405 C413 1.252 . S
C406 O409 1.252 . S
C406 O410 1.260 . S
C407 O414 1.240 . S
C407 O415 1.252 . S
C408 O411 1.252 . S
C408 O412 1.260 . S
O409 In403 2.266 . S
O409 C406 1.252 . S
O410 In403 2.326 . S
O410 C406 1.260 . S
O411 In403 2.266 . S
O411 C408 1.252 . S
O412 In403 2.326 . S
O412 C408 1.260 . S
C413 O404 1.240 . S
C413 O405 1.252 . S
O414 In403 2.294 . S
O414 C407 1.240 . S
O415 In403 2.326 . S
O415 C407 1.252 . S
H416 C428 0.930 . S
H417 C430 0.930 . S
H418 C431 0.930 . S
H419 C435 0.959 . S
H420 C435 0.959 . S
H421 C435 0.961 . S
H422 C436 0.960 . S
H423 C436 0.961 . S
H424 C436 0.959 . S
H425 C439 0.929 . S
H426 C440 0.931 . S
H427 C442 0.930 . S
C428 H416 0.930 . S
C428 C429 1.399 . S
C428 C433 1.399 . S
C429 C428 1.399 . S
C429 C430 1.376 . S
C430 H417 0.930 . S
C430 C429 1.376 . S
C430 C431 1.388 . S
C431 H418 0.930 . S
C431 C430 1.388 . S
C431 C432 1.390 . S
C432 C431 1.390 . S
C432 C433 1.394 . S
C432 C438 1.465 . S
C433 C428 1.399 . S
C433 C432 1.394 . S
C433 C434 1.516 . S
C434 C433 1.516 . S
C434 C435 1.502 . S
C434 C436 1.561 . S
C434 C437 1.526 . S
C435 H419 0.959 . S
C435 H420 0.959 . S
C435 H421 0.961 . S
C435 C434 1.502 . S
C436 H422 0.960 . S
C436 H423 0.961 . S
C436 H424 0.959 . S
C436 C434 1.561 . S
C437 C434 1.526 . S
C437 C438 1.396 . S
C437 C442 1.390 . S
C438 C432 1.465 . S
C438 C437 1.396 . S
C438 C439 1.399 . S
C439 H425 0.929 . S
C439 C438 1.399 . S
C439 C440 1.385 . S
C440 H426 0.931 . S
C440 C439 1.385 . S
C440 C441 1.389 . S
C441 C440 1.389 . S
C441 C442 1.387 . S
C442 H427 0.930 . S
C442 C437 1.390 . S
C442 C441 1.387 . S
H443 C455 0.930 . S
H444 C457 0.930 . S
H445 C458 0.930 . S
H446 C462 0.959 . S
H447 C462 0.959 . S
H448 C462 0.961 . S
H449 C463 0.960 . S
H450 C463 0.961 . S
H451 C463 0.959 . S
H452 C466 0.929 . S
H453 C467 0.931 . S
H454 C469 0.930 . S
C455 H443 0.930 . S
C455 C456 1.399 1_455 S
C455 C460 1.399 . S
C456 C455 1.399 1_655 S
C456 C457 1.376 . S
C457 H444 0.930 . S
C457 C456 1.376 . S
C457 C458 1.388 1_655 S
C458 H445 0.930 . S
C458 C457 1.388 1_455 S
C458 C459 1.390 . S
C459 C458 1.390 . S
C459 C460 1.394 . S
C459 C465 1.465 . S
C460 C455 1.399 . S
C460 C459 1.394 . S
C460 C461 1.516 . S
C461 C460 1.516 . S
C461 C462 1.502 . S
C461 C463 1.561 . S
C461 C464 1.526 . S
C462 H446 0.959 . S
C462 H447 0.959 . S
C462 H448 0.961 . S
C462 C461 1.502 . S
C463 H449 0.960 . S
C463 H450 0.961 . S
C463 H451 0.959 . S
C463 C461 1.561 . S
C464 C461 1.526 . S
C464 C465 1.396 . S
C464 C469 1.390 . S
C465 C459 1.465 . S
C465 C464 1.396 . S
C465 C466 1.399 . S
C466 H452 0.929 . S
C466 C465 1.399 . S
C466 C467 1.385 . S
C467 H453 0.931 . S
C467 C466 1.385 . S
C467 C468 1.389 . S
C468 C467 1.389 . S
C468 C469 1.387 . S
C469 H454 0.930 . S
C469 C464 1.390 . S
C469 C468 1.387 . S
H470 C482 0.930 . S
H471 C484 0.930 . S
H472 C485 0.930 . S
H473 C489 0.959 . S
H474 C489 0.959 . S
H475 C489 0.961 . S
H476 C490 0.960 . S
H477 C490 0.961 . S
H478 C490 0.959 . S
H479 C493 0.929 . S
H480 C494 0.931 . S
H481 C496 0.930 . S
C482 H470 0.930 . S
C482 C483 1.399 . S
C482 C487 1.399 . S
C483 C482 1.399 . S
C483 C484 1.376 . S
C484 H471 0.930 . S
C484 C483 1.376 . S
C484 C485 1.388 . S
C485 H472 0.930 . S
C485 C484 1.388 . S
C485 C486 1.390 . S
C486 C485 1.390 . S
C486 C487 1.394 . S
C486 C492 1.465 . S
C487 C482 1.399 . S
C487 C486 1.394 . S
C487 C488 1.516 . S
C488 C487 1.516 . S
C488 C489 1.502 . S
C488 C490 1.561 . S
C488 C491 1.526 . S
C489 H473 0.959 . S
C489 H474 0.959 . S
C489 H475 0.961 . S
C489 C488 1.502 . S
C490 H476 0.960 . S
C490 H477 0.961 . S
C490 H478 0.959 . S
C490 C488 1.561 . S
C491 C488 1.526 . S
C491 C492 1.396 . S
C491 C496 1.390 . S
C492 C486 1.465 . S
C492 C491 1.396 . S
C492 C493 1.399 . S
C493 H479 0.929 . S
C493 C492 1.399 . S
C493 C494 1.385 . S
C494 H480 0.931 . S
C494 C493 1.385 . S
C494 C495 1.389 . S
C495 C494 1.389 . S
C495 C496 1.387 . S
C496 H481 0.930 . S
C496 C491 1.390 . S
C496 C495 1.387 . S
H497 C509 0.930 . S
H498 C511 0.930 . S
H499 C512 0.930 . S
H500 C516 0.959 . S
H501 C516 0.959 . S
H502 C516 0.961 . S
H503 C517 0.960 . S
H504 C517 0.961 . S
H505 C517 0.959 . S
H506 C520 0.929 . S
H507 C521 0.931 . S
H508 C523 0.930 . S
C509 H497 0.930 . S
C509 C510 1.399 . S
C509 C514 1.399 . S
C510 C509 1.399 . S
C510 C511 1.376 . S
C511 H498 0.930 . S
C511 C510 1.376 . S
C511 C512 1.388 . S
C512 H499 0.930 . S
C512 C511 1.388 . S
C512 C513 1.390 . S
C513 C512 1.390 . S
C513 C514 1.394 . S
C513 C519 1.465 . S
C514 C509 1.399 . S
C514 C513 1.394 . S
C514 C515 1.516 . S
C515 C514 1.516 . S
C515 C516 1.502 . S
C515 C517 1.561 . S
C515 C518 1.526 . S
C516 H500 0.959 . S
C516 H501 0.959 . S
C516 H502 0.961 . S
C516 C515 1.502 . S
C517 H503 0.960 . S
C517 H504 0.961 . S
C517 H505 0.959 . S
C517 C515 1.561 . S
C518 C515 1.526 . S
C518 C519 1.396 . S
C518 C523 1.390 . S
C519 C513 1.465 . S
C519 C518 1.396 . S
C519 C520 1.399 . S
C520 H506 0.929 . S
C520 C519 1.399 . S
C520 C521 1.385 . S
C521 H507 0.931 . S
C521 C520 1.385 . S
C521 C522 1.389 . S
C522 C521 1.389 . S
C522 C523 1.387 . S
C523 H508 0.930 . S
C523 C518 1.390 . S
C523 C522 1.387 . S
H524 C536 0.930 . S
H525 C538 0.930 . S
H526 C539 0.930 . S
H527 C543 0.959 . S
H528 C543 0.959 . S
H529 C543 0.961 . S
H530 C544 0.960 . S
H531 C544 0.961 . S
H532 C544 0.959 . S
H533 C547 0.929 . S
H534 C548 0.931 . S
H535 C550 0.930 . S
C536 H524 0.930 . S
C536 C537 1.399 . S
C536 C541 1.399 . S
C537 C536 1.399 . S
C537 C538 1.376 . S
C538 H525 0.930 . S
C538 C537 1.376 . S
C538 C539 1.388 . S
C539 H526 0.930 . S
C539 C538 1.388 . S
C539 C540 1.390 . S
C540 C539 1.390 . S
C540 C541 1.394 . S
C540 C546 1.465 . S
C541 C536 1.399 . S
C541 C540 1.394 . S
C541 C542 1.516 . S
C542 C541 1.516 . S
C542 C543 1.502 . S
C542 C544 1.561 . S
C542 C545 1.526 . S
C543 H527 0.959 . S
C543 H528 0.959 . S
C543 H529 0.961 . S
C543 C542 1.502 . S
C544 H530 0.960 . S
C544 H531 0.961 . S
C544 H532 0.959 . S
C544 C542 1.561 . S
C545 C542 1.526 . S
C545 C546 1.396 . S
C545 C550 1.390 . S
C546 C540 1.465 . S
C546 C545 1.396 . S
C546 C547 1.399 . S
C547 H533 0.929 . S
C547 C546 1.399 . S
C547 C548 1.385 . S
C548 H534 0.931 . S
C548 C547 1.385 . S
C548 C549 1.389 . S
C549 C548 1.389 . S
C549 C550 1.387 . S
C550 H535 0.930 . S
C550 C545 1.390 . S
C550 C549 1.387 . S
H551 C563 0.930 . S
H552 C565 0.930 . S
H553 C566 0.930 . S
H554 C570 0.959 . S
H555 C570 0.959 . S
H556 C570 0.961 . S
H557 C571 0.960 . S
H558 C571 0.961 . S
H559 C571 0.959 . S
H560 C574 0.929 . S
H561 C575 0.931 . S
H562 C577 0.930 . S
C563 H551 0.930 . S
C563 C564 1.399 . S
C563 C568 1.399 . S
C564 C563 1.399 . S
C564 C565 1.376 . S
C565 H552 0.930 . S
C565 C564 1.376 . S
C565 C566 1.388 . S
C566 H553 0.930 . S
C566 C565 1.388 . S
C566 C567 1.390 . S
C567 C566 1.390 . S
C567 C568 1.394 . S
C567 C573 1.465 . S
C568 C563 1.399 . S
C568 C567 1.394 . S
C568 C569 1.516 . S
C569 C568 1.516 . S
C569 C570 1.502 . S
C569 C571 1.561 . S
C569 C572 1.526 . S
C570 H554 0.959 . S
C570 H555 0.959 . S
C570 H556 0.961 . S
C570 C569 1.502 . S
C571 H557 0.960 . S
C571 H558 0.961 . S
C571 H559 0.959 . S
C571 C569 1.561 . S
C572 C569 1.526 . S
C572 C573 1.396 . S
C572 C577 1.390 . S
C573 C567 1.465 . S
C573 C572 1.396 . S
C573 C574 1.399 . S
C574 H560 0.929 . S
C574 C573 1.399 . S
C574 C575 1.385 . S
C575 H561 0.931 . S
C575 C574 1.385 . S
C575 C576 1.389 . S
C576 C575 1.389 . S
C576 C577 1.387 . S
C577 H562 0.930 . S
C577 C572 1.390 . S
C577 C576 1.387 . S
H578 C590 0.930 . S
H579 C592 0.930 . S
H580 C593 0.930 . S
H581 C597 0.959 . S
H582 C597 0.959 . S
H583 C597 0.961 . S
H584 C598 0.960 . S
H585 C598 0.961 . S
H586 C598 0.959 . S
H587 C601 0.929 . S
H588 C602 0.931 . S
H589 C604 0.930 . S
C590 H578 0.930 . S
C590 C591 1.399 . S
C590 C595 1.399 . S
C591 C590 1.399 . S
C591 C592 1.376 . S
C592 H579 0.930 . S
C592 C591 1.376 . S
C592 C593 1.388 . S
C593 H580 0.930 . S
C593 C592 1.388 . S
C593 C594 1.390 . S
C594 C593 1.390 . S
C594 C595 1.394 . S
C594 C600 1.465 . S
C595 C590 1.399 . S
C595 C594 1.394 . S
C595 C596 1.516 . S
C596 C595 1.516 . S
C596 C597 1.502 . S
C596 C598 1.561 . S
C596 C599 1.526 . S
C597 H581 0.959 . S
C597 H582 0.959 . S
C597 H583 0.961 . S
C597 C596 1.502 . S
C598 H584 0.960 . S
C598 H585 0.961 . S
C598 H586 0.959 . S
C598 C596 1.561 . S
C599 C596 1.526 . S
C599 C600 1.396 . S
C599 C604 1.390 . S
C600 C594 1.465 . S
C600 C599 1.396 . S
C600 C601 1.399 . S
C601 H587 0.929 . S
C601 C600 1.399 . S
C601 C602 1.385 . S
C602 H588 0.931 . S
C602 C601 1.385 . S
C602 C603 1.389 . S
C603 C602 1.389 . S
C603 C604 1.387 . S
C604 H589 0.930 . S
C604 C599 1.390 . S
C604 C603 1.387 . S
H605 C617 0.930 . S
H606 C619 0.930 . S
H607 C620 0.930 . S
H608 C624 0.959 . S
H609 C624 0.959 . S
H610 C624 0.961 . S
H611 C625 0.960 . S
H612 C625 0.962 . S
H613 C625 0.959 . S
H614 C628 0.929 . S
H615 C629 0.931 . S
H616 C631 0.930 1_655 S
C617 H605 0.930 . S
C617 C618 1.399 . S
C617 C622 1.399 . S
C618 C617 1.399 . S
C618 C619 1.376 . S
C619 H606 0.930 . S
C619 C618 1.376 . S
C619 C620 1.388 . S
C620 H607 0.930 . S
C620 C619 1.388 . S
C620 C621 1.390 . S
C621 C620 1.390 . S
C621 C622 1.394 . S
C621 C627 1.465 . S
C622 C617 1.399 . S
C622 C621 1.394 . S
C622 C623 1.516 . S
C623 C622 1.516 . S
C623 C624 1.502 . S
C623 C625 1.561 . S
C623 C626 1.526 . S
C624 H608 0.959 . S
C624 H609 0.959 . S
C624 H610 0.961 . S
C624 C623 1.502 . S
C625 H611 0.960 . S
C625 H612 0.962 . S
C625 H613 0.959 . S
C625 C623 1.561 . S
C626 C623 1.526 . S
C626 C627 1.396 . S
C626 C631 1.390 . S
C627 C621 1.465 . S
C627 C626 1.396 . S
C627 C628 1.399 . S
C628 H614 0.929 . S
C628 C627 1.399 . S
C628 C629 1.385 . S
C629 H615 0.931 . S
C629 C628 1.385 . S
C629 C630 1.389 . S
C630 C629 1.389 . S
C630 C631 1.387 . S
C631 H616 0.930 1_455 S
C631 C626 1.390 . S
C631 C630 1.387 . S
H632 C644 0.930 . S
H633 C646 0.930 . S
H634 C647 0.930 . S
H635 C651 0.959 . S
H636 C651 0.959 . S
H637 C651 0.961 . S
H638 C652 0.960 . S
H639 C652 0.961 . S
H640 C652 0.959 . S
H641 C655 0.929 . S
H642 C656 0.931 . S
H643 C658 0.930 . S
C644 H632 0.930 . S
C644 C645 1.399 . S
C644 C649 1.399 . S
C645 C644 1.399 . S
C645 C646 1.376 . S
C646 H633 0.930 . S
C646 C645 1.376 . S
C646 C647 1.388 . S
C647 H634 0.930 . S
C647 C646 1.388 . S
C647 C648 1.390 . S
C648 C647 1.390 . S
C648 C649 1.394 . S
C648 C654 1.465 . S
C649 C644 1.399 . S
C649 C648 1.394 . S
C649 C650 1.516 . S
C650 C649 1.516 . S
C650 C651 1.502 . S
C650 C652 1.561 . S
C650 C653 1.526 . S
C651 H635 0.959 . S
C651 H636 0.959 . S
C651 H637 0.961 . S
C651 C650 1.502 . S
C652 H638 0.960 . S
C652 H639 0.961 . S
C652 H640 0.959 . S
C652 C650 1.561 . S
C653 C650 1.526 . S
C653 C654 1.396 . S
C653 C658 1.390 . S
C654 C648 1.465 . S
C654 C653 1.396 . S
C654 C655 1.399 . S
C655 H641 0.929 . S
C655 C654 1.399 . S
C655 C656 1.385 . S
C656 H642 0.931 . S
C656 C655 1.385 . S
C656 C657 1.389 . S
C657 C656 1.389 . S
C657 C658 1.387 . S
C658 H643 0.930 . S
C658 C653 1.390 . S
C658 C657 1.387 . S
H659 C671 0.930 . S
H660 C673 0.930 . S
H661 C674 0.930 . S
H662 C678 0.959 . S
H663 C678 0.959 . S
H664 C678 0.961 . S
H665 C679 0.960 . S
H666 C679 0.961 . S
H667 C679 0.959 . S
H668 C682 0.929 . S
H669 C683 0.931 . S
H670 C685 0.930 . S
C671 H659 0.930 . S
C671 C672 1.372 1_655 S
C671 C676 1.399 . S
C672 C671 1.372 1_455 S
C672 C673 1.383 . S
C673 H660 0.930 . S
C673 C672 1.383 . S
C673 C674 1.388 1_455 S
C674 H661 0.930 . S
C674 C673 1.388 1_655 S
C674 C675 1.390 . S
C675 C674 1.390 . S
C675 C676 1.394 . S
C675 C681 1.465 . S
C676 C671 1.399 . S
C676 C675 1.394 . S
C676 C677 1.516 . S
C677 C676 1.516 . S
C677 C678 1.502 . S
C677 C679 1.561 . S
C677 C680 1.526 . S
C678 H662 0.959 . S
C678 H663 0.959 . S
C678 H664 0.961 . S
C678 C677 1.502 . S
C679 H665 0.960 . S
C679 H666 0.961 . S
C679 H667 0.959 . S
C679 C677 1.561 . S
C680 C677 1.526 . S
C680 C681 1.396 . S
C680 C685 1.390 . S
C681 C675 1.465 . S
C681 C680 1.396 . S
C681 C682 1.399 . S
C682 H668 0.929 . S
C682 C681 1.399 . S
C682 C683 1.385 . S
C683 H669 0.931 . S
C683 C682 1.385 . S
C683 C684 1.389 . S
C684 C683 1.389 . S
C684 C685 1.387 . S
C685 H670 0.930 . S
C685 C680 1.390 . S
C685 C684 1.387 . S
H686 C698 0.930 . S
H687 C700 0.930 . S
H688 C701 0.930 . S
H689 C705 0.959 . S
H690 C705 0.959 . S
H691 C705 0.961 . S
H692 C706 0.960 . S
H693 C706 0.961 . S
H694 C706 0.959 . S
H695 C709 0.929 . S
H696 C710 0.931 . S
H697 C712 0.930 . S
C698 H686 0.930 . S
C698 C699 1.399 . S
C698 C703 1.399 . S
C699 C698 1.399 . S
C699 C700 1.376 . S
C700 H687 0.930 . S
C700 C699 1.376 . S
C700 C701 1.388 . S
C701 H688 0.930 . S
C701 C700 1.388 . S
C701 C702 1.390 . S
C702 C701 1.390 . S
C702 C703 1.394 . S
C702 C708 1.465 . S
C703 C698 1.399 . S
C703 C702 1.394 . S
C703 C704 1.516 . S
C704 C703 1.516 . S
C704 C705 1.502 . S
C704 C706 1.561 . S
C704 C707 1.526 . S
C705 H689 0.959 . S
C705 H690 0.959 . S
C705 H691 0.961 . S
C705 C704 1.502 . S
C706 H692 0.960 . S
C706 H693 0.961 . S
C706 H694 0.959 . S
C706 C704 1.561 . S
C707 C704 1.526 . S
C707 C708 1.396 . S
C707 C712 1.390 . S
C708 C702 1.465 . S
C708 C707 1.396 . S
C708 C709 1.399 . S
C709 H695 0.929 . S
C709 C708 1.399 . S
C709 C710 1.385 . S
C710 H696 0.931 . S
C710 C709 1.385 . S
C710 C711 1.389 . S
C711 C710 1.389 . S
C711 C712 1.387 . S
C712 H697 0.930 . S
C712 C707 1.390 . S
C712 C711 1.387 . S
H713 C725 0.930 . S
H714 C727 0.930 . S
H715 C728 0.930 . S
H716 C732 0.959 . S
H717 C732 0.959 . S
H718 C732 0.961 . S
H719 C733 0.960 . S
H720 C733 0.961 . S
H721 C733 0.959 . S
H722 C736 0.929 . S
H723 C737 0.931 . S
H724 C739 0.930 . S
C725 H713 0.930 . S
C725 C726 1.399 . S
C725 C730 1.399 . S
C726 C725 1.399 . S
C726 C727 1.376 . S
C727 H714 0.930 . S
C727 C726 1.376 . S
C727 C728 1.388 . S
C728 H715 0.930 . S
C728 C727 1.388 . S
C728 C729 1.390 . S
C729 C728 1.390 . S
C729 C730 1.394 . S
C729 C735 1.465 . S
C730 C725 1.399 . S
C730 C729 1.394 . S
C730 C731 1.516 . S
C731 C730 1.516 . S
C731 C732 1.502 . S
C731 C733 1.561 . S
C731 C734 1.526 . S
C732 H716 0.959 . S
C732 H717 0.959 . S
C732 H718 0.961 . S
C732 C731 1.502 . S
C733 H719 0.960 . S
C733 H720 0.961 . S
C733 H721 0.959 . S
C733 C731 1.561 . S
C734 C731 1.526 . S
C734 C735 1.396 . S
C734 C739 1.390 . S
C735 C729 1.465 . S
C735 C734 1.396 . S
C735 C736 1.399 . S
C736 H722 0.929 . S
C736 C735 1.399 . S
C736 C737 1.385 . S
C737 H723 0.931 . S
C737 C736 1.385 . S
C737 C738 1.389 . S
C738 C737 1.389 . S
C738 C739 1.387 . S
C739 H724 0.930 . S
C739 C734 1.390 . S
C739 C738 1.387 . S
H740 C752 0.930 . S
H741 C754 0.930 . S
H742 C755 0.930 . S
H743 C759 0.959 . S
H744 C759 0.959 . S
H745 C759 0.961 . S
H746 C760 0.960 . S
H747 C760 0.961 . S
H748 C760 0.959 . S
H749 C763 0.929 . S
H750 C764 0.931 . S
H751 C766 0.930 . S
C752 H740 0.930 . S
C752 C753 1.399 . S
C752 C757 1.399 . S
C753 C752 1.399 . S
C753 C754 1.376 . S
C754 H741 0.930 . S
C754 C753 1.376 . S
C754 C755 1.388 . S
C755 H742 0.930 . S
C755 C754 1.388 . S
C755 C756 1.390 . S
C756 C755 1.390 . S
C756 C757 1.394 . S
C756 C762 1.465 . S
C757 C752 1.399 . S
C757 C756 1.394 . S
C757 C758 1.516 . S
C758 C757 1.516 . S
C758 C759 1.502 . S
C758 C760 1.561 . S
C758 C761 1.526 . S
C759 H743 0.959 . S
C759 H744 0.959 . S
C759 H745 0.961 . S
C759 C758 1.502 . S
C760 H746 0.960 . S
C760 H747 0.961 . S
C760 H748 0.959 . S
C760 C758 1.561 . S
C761 C758 1.526 . S
C761 C762 1.396 . S
C761 C766 1.390 . S
C762 C756 1.465 . S
C762 C761 1.396 . S
C762 C763 1.399 . S
C763 H749 0.929 . S
C763 C762 1.399 . S
C763 C764 1.385 . S
C764 H750 0.931 . S
C764 C763 1.385 . S
C764 C765 1.389 . S
C765 C764 1.389 . S
C765 C766 1.387 . S
C766 H751 0.930 . S
C766 C761 1.390 . S
C766 C765 1.387 . S
H767 C779 0.930 . S
H768 C781 0.930 . S
H769 C782 0.930 . S
H770 C786 0.959 . S
H771 C786 0.959 . S
H772 C786 0.961 . S
H773 C787 0.960 . S
H774 C787 0.961 . S
H775 C787 0.959 . S
H776 C790 0.929 . S
H777 C791 0.931 . S
H778 C793 0.930 . S
C779 H767 0.930 . S
C779 C780 1.399 . S
C779 C784 1.399 . S
C780 C779 1.399 . S
C780 C781 1.376 . S
C781 H768 0.930 . S
C781 C780 1.376 . S
C781 C782 1.388 . S
C782 H769 0.930 . S
C782 C781 1.388 . S
C782 C783 1.390 . S
C783 C782 1.390 . S
C783 C784 1.394 . S
C783 C789 1.465 . S
C784 C779 1.399 . S
C784 C783 1.394 . S
C784 C785 1.516 . S
C785 C784 1.516 . S
C785 C786 1.502 . S
C785 C787 1.561 . S
C785 C788 1.526 . S
C786 H770 0.959 . S
C786 H771 0.959 . S
C786 H772 0.961 . S
C786 C785 1.502 . S
C787 H773 0.960 . S
C787 H774 0.961 . S
C787 H775 0.959 . S
C787 C785 1.561 . S
C788 C785 1.526 . S
C788 C789 1.396 . S
C788 C793 1.390 . S
C789 C783 1.465 . S
C789 C788 1.396 . S
C789 C790 1.399 . S
C790 H776 0.929 . S
C790 C789 1.399 . S
C790 C791 1.385 . S
C791 H777 0.931 . S
C791 C790 1.385 . S
C791 C792 1.389 . S
C792 C791 1.389 . S
C792 C793 1.387 . S
C793 H778 0.930 . S
C793 C788 1.390 . S
C793 C792 1.387 . S
H794 C806 0.930 . S
H795 C808 0.930 . S
H796 C809 0.930 . S
H797 C813 0.959 . S
H798 C813 0.959 . S
H799 C813 0.961 . S
H800 C814 0.960 . S
H801 C814 0.961 . S
H802 C814 0.959 . S
H803 C817 0.929 . S
H804 C818 0.931 . S
H805 C820 0.930 . S
C806 H794 0.930 . S
C806 C807 1.399 . S
C806 C811 1.399 . S
C807 C806 1.399 . S
C807 C808 1.376 . S
C808 H795 0.930 . S
C808 C807 1.376 . S
C808 C809 1.388 . S
C809 H796 0.930 . S
C809 C808 1.388 . S
C809 C810 1.390 . S
C810 C809 1.390 . S
C810 C811 1.394 . S
C810 C816 1.465 . S
C811 C806 1.399 . S
C811 C810 1.394 . S
C811 C812 1.516 . S
C812 C811 1.516 . S
C812 C813 1.502 . S
C812 C814 1.561 . S
C812 C815 1.526 . S
C813 H797 0.959 . S
C813 H798 0.959 . S
C813 H799 0.961 . S
C813 C812 1.502 . S
C814 H800 0.960 . S
C814 H801 0.961 . S
C814 H802 0.959 . S
C814 C812 1.561 . S
C815 C812 1.526 . S
C815 C816 1.396 . S
C815 C820 1.390 . S
C816 C810 1.465 . S
C816 C815 1.396 . S
C816 C817 1.399 . S
C817 H803 0.929 . S
C817 C816 1.399 . S
C817 C818 1.385 . S
C818 H804 0.931 . S
C818 C817 1.385 . S
C818 C819 1.389 . S
C819 C818 1.389 . S
C819 C820 1.387 . S
C820 H805 0.930 . S
C820 C815 1.390 . S
C820 C819 1.387 . S
H821 C833 0.930 . S
H822 C835 0.930 . S
H823 C836 0.930 . S
H824 C840 0.959 . S
H825 C840 0.959 . S
H826 C840 0.961 . S
H827 C841 0.960 . S
H828 C841 0.961 . S
H829 C841 0.959 . S
H830 C844 0.929 . S
H831 C845 0.931 . S
H832 C847 0.930 1_455 S
C833 H821 0.930 . S
C833 C834 1.399 . S
C833 C838 1.399 . S
C834 C833 1.399 . S
C834 C835 1.376 . S
C835 H822 0.930 . S
C835 C834 1.376 . S
C835 C836 1.388 . S
C836 H823 0.930 . S
C836 C835 1.388 . S
C836 C837 1.390 . S
C837 C836 1.390 . S
C837 C838 1.394 . S
C837 C843 1.465 . S
C838 C833 1.399 . S
C838 C837 1.394 . S
C838 C839 1.516 . S
C839 C838 1.516 . S
C839 C840 1.502 . S
C839 C841 1.561 . S
C839 C842 1.526 . S
C840 H824 0.959 . S
C840 H825 0.959 . S
C840 H826 0.961 . S
C840 C839 1.502 . S
C841 H827 0.960 . S
C841 H828 0.961 . S
C841 H829 0.959 . S
C841 C839 1.561 . S
C842 C839 1.526 . S
C842 C843 1.396 . S
C842 C847 1.390 . S
C843 C837 1.465 . S
C843 C842 1.396 . S
C843 C844 1.399 . S
C844 H830 0.929 . S
C844 C843 1.399 . S
C844 C845 1.385 . S
C845 H831 0.931 . S
C845 C844 1.385 . S
C845 C846 1.389 . S
C846 C845 1.389 . S
C846 C847 1.387 . S
C847 H832 0.930 1_655 S
C847 C842 1.390 . S
C847 C846 1.387 . S
H848 C860 0.930 . S
H849 C862 0.930 . S
H850 C863 0.930 . S
H851 C867 0.959 . S
H852 C867 0.959 . S
H853 C867 0.961 . S
H854 C868 0.960 . S
H855 C868 0.961 . S
H856 C868 0.959 . S
H857 C871 0.929 . S
H858 C872 0.931 . S
H859 C874 0.930 . S
C860 H848 0.930 . S
C860 C861 1.399 . S
C860 C865 1.399 . S
C861 C860 1.399 . S
C861 C862 1.376 . S
C862 H849 0.930 . S
C862 C861 1.376 . S
C862 C863 1.388 . S
C863 H850 0.930 . S
C863 C862 1.388 . S
C863 C864 1.390 . S
C864 C863 1.390 . S
C864 C865 1.394 . S
C864 C870 1.465 . S
C865 C860 1.399 . S
C865 C864 1.394 . S
C865 C866 1.516 . S
C866 C865 1.516 . S
C866 C867 1.502 . S
C866 C868 1.561 . S
C866 C869 1.526 . S
C867 H851 0.959 . S
C867 H852 0.959 . S
C867 H853 0.961 . S
C867 C866 1.502 . S
C868 H854 0.960 . S
C868 H855 0.961 . S
C868 H856 0.959 . S
C868 C866 1.561 . S
C869 C866 1.526 . S
C869 C870 1.396 . S
C869 C874 1.390 . S
C870 C864 1.465 . S
C870 C869 1.396 . S
C870 C871 1.399 . S
C871 H857 0.929 . S
C871 C870 1.399 . S
C871 C872 1.385 . S
C872 H858 0.931 . S
C872 C871 1.385 . S
C872 C873 1.389 . S
C873 C872 1.389 . S
C873 C874 1.387 . S
C874 H859 0.930 . S
C874 C869 1.390 . S
C874 C873 1.387 . S
H875 C887 0.930 . S
H876 C889 0.930 . S
H877 C890 0.930 . S
H878 C894 0.959 . S
H879 C894 0.959 . S
H880 C894 0.961 . S
H881 C895 0.960 . S
H882 C895 0.961 . S
H883 C895 0.959 . S
H884 C898 0.929 . S
H885 C899 0.931 . S
H886 C901 0.930 . S
C887 H875 0.930 . S
C887 C888 1.399 . S
C887 C892 1.399 . S
C888 C887 1.399 . S
C888 C889 1.376 . S
C889 H876 0.930 . S
C889 C888 1.376 . S
C889 C890 1.388 . S
C890 H877 0.930 . S
C890 C889 1.388 . S
C890 C891 1.390 . S
C891 C890 1.390 . S
C891 C892 1.394 . S
C891 C897 1.465 . S
C892 C887 1.399 . S
C892 C891 1.394 . S
C892 C893 1.516 . S
C893 C892 1.516 . S
C893 C894 1.502 . S
C893 C895 1.561 . S
C893 C896 1.526 . S
C894 H878 0.959 . S
C894 H879 0.959 . S
C894 H880 0.961 . S
C894 C893 1.502 . S
C895 H881 0.960 . S
C895 H882 0.961 . S
C895 H883 0.959 . S
C895 C893 1.561 . S
C896 C893 1.526 . S
C896 C897 1.396 . S
C896 C901 1.390 . S
C897 C891 1.465 . S
C897 C896 1.396 . S
C897 C898 1.399 . S
C898 H884 0.929 . S
C898 C897 1.399 . S
C898 C899 1.385 . S
C899 H885 0.931 . S
C899 C898 1.385 . S
C899 C900 1.389 . S
C900 C899 1.389 . S
C900 C901 1.387 . S
C901 H886 0.930 . S
C901 C896 1.390 . S
C901 C900 1.387 . S
H902 C914 0.930 . S
H903 C916 0.930 . S
H904 C917 0.930 . S
H905 C921 0.959 . S
H906 C921 0.959 . S
H907 C921 0.961 . S
H908 C922 0.960 . S
H909 C922 0.961 . S
H910 C922 0.959 . S
H911 C925 0.929 . S
H912 C926 0.931 . S
H913 C928 0.930 . S
C914 H902 0.930 . S
C914 C915 1.399 . S
C914 C919 1.399 . S
C915 C914 1.399 . S
C915 C916 1.376 . S
C916 H903 0.930 . S
C916 C915 1.376 . S
C916 C917 1.388 . S
C917 H904 0.930 . S
C917 C916 1.388 . S
C917 C918 1.390 . S
C918 C917 1.390 . S
C918 C919 1.394 . S
C918 C924 1.465 . S
C919 C914 1.399 . S
C919 C918 1.394 . S
C919 C920 1.516 . S
C920 C919 1.516 . S
C920 C921 1.502 . S
C920 C922 1.561 . S
C920 C923 1.526 . S
C921 H905 0.959 . S
C921 H906 0.959 . S
C921 H907 0.961 . S
C921 C920 1.502 . S
C922 H908 0.960 . S
C922 H909 0.961 . S
C922 H910 0.959 . S
C922 C920 1.561 . S
C923 C920 1.526 . S
C923 C924 1.396 . S
C923 C928 1.390 . S
C924 C918 1.465 . S
C924 C923 1.396 . S
C924 C925 1.399 . S
C925 H911 0.929 . S
C925 C924 1.399 . S
C925 C926 1.385 . S
C926 H912 0.931 . S
C926 C925 1.385 . S
C926 C927 1.389 . S
C927 C926 1.389 . S
C927 C928 1.387 . S
C928 H913 0.930 . S
C928 C923 1.390 . S
C928 C927 1.387 . S
H929 C941 0.930 . S
H930 C943 0.930 . S
H931 C944 0.930 . S
H932 C948 0.959 . S
H933 C948 0.959 . S
H934 C948 0.961 . S
H935 C949 0.960 . S
H936 C949 0.961 . S
H937 C949 0.959 . S
H938 C952 0.929 . S
H939 C953 0.931 . S
H940 C955 0.930 . S
C941 H929 0.930 . S
C941 C942 1.399 . S
C941 C946 1.399 . S
C942 C941 1.399 . S
C942 C943 1.376 . S
C943 H930 0.930 . S
C943 C942 1.376 . S
C943 C944 1.388 . S
C944 H931 0.930 . S
C944 C943 1.388 . S
C944 C945 1.390 . S
C945 C944 1.390 . S
C945 C946 1.394 . S
C945 C951 1.465 . S
C946 C941 1.399 . S
C946 C945 1.394 . S
C946 C947 1.516 . S
C947 C946 1.516 . S
C947 C948 1.502 . S
C947 C949 1.561 . S
C947 C950 1.526 . S
C948 H932 0.959 . S
C948 H933 0.959 . S
C948 H934 0.961 . S
C948 C947 1.502 . S
C949 H935 0.960 . S
C949 H936 0.961 . S
C949 H937 0.959 . S
C949 C947 1.561 . S
C950 C947 1.526 . S
C950 C951 1.396 . S
C950 C955 1.390 . S
C951 C945 1.465 . S
C951 C950 1.396 . S
C951 C952 1.399 . S
C952 H938 0.929 . S
C952 C951 1.399 . S
C952 C953 1.385 1_655 S
C953 H939 0.931 . S
C953 C952 1.385 1_455 S
C953 C954 1.389 . S
C954 C953 1.389 . S
C954 C955 1.387 1_455 S
C955 H940 0.930 . S
C955 C950 1.390 . S
C955 C954 1.387 1_655 S
H956 C968 0.930 . S
H957 C970 0.930 . S
H958 C971 0.930 . S
H959 C975 0.959 . S
H960 C975 0.959 . S
H961 C975 0.961 . S
H962 C976 0.960 . S
H963 C976 0.961 . S
H964 C976 0.959 . S
H965 C979 0.929 . S
H966 C980 0.931 . S
H967 C982 0.930 . S
C968 H956 0.930 . S
C968 C969 1.399 . S
C968 C973 1.399 . S
C969 C968 1.399 . S
C969 C970 1.376 . S
C970 H957 0.930 . S
C970 C969 1.376 . S
C970 C971 1.388 . S
C971 H958 0.930 . S
C971 C970 1.388 . S
C971 C972 1.390 . S
C972 C971 1.390 . S
C972 C973 1.394 . S
C972 C978 1.465 . S
C973 C968 1.399 . S
C973 C972 1.394 . S
C973 C974 1.516 . S
C974 C973 1.516 . S
C974 C975 1.502 . S
C974 C976 1.561 . S
C974 C977 1.526 . S
C975 H959 0.959 . S
C975 H960 0.959 . S
C975 H961 0.961 . S
C975 C974 1.502 . S
C976 H962 0.960 . S
C976 H963 0.961 . S
C976 H964 0.959 . S
C976 C974 1.561 . S
C977 C974 1.526 . S
C977 C978 1.396 . S
C977 C982 1.390 . S
C978 C972 1.465 . S
C978 C977 1.396 . S
C978 C979 1.399 . S
C979 H965 0.929 . S
C979 C978 1.399 . S
C979 C980 1.385 . S
C980 H966 0.931 . S
C980 C979 1.385 . S
C980 C981 1.389 . S
C981 C980 1.389 . S
C981 C982 1.387 . S
C982 H967 0.930 . S
C982 C977 1.390 . S
C982 C981 1.387 . S
H983 C995 0.930 . S
H984 C997 0.930 . S
H985 C998 0.933 . S
H986 C1002 0.959 . S
H987 C1002 0.959 . S
H988 C1002 0.961 . S
H989 C1003 0.960 . S
H990 C1003 0.961 . S
H991 C1003 0.959 . S
H992 C1006 0.929 . S
H993 C1007 0.931 . S
H994 C1009 0.930 . S
C995 H983 0.930 . S
C995 C996 1.399 1_655 S
C995 C1000 1.399 . S
C996 C995 1.399 1_455 S
C996 C997 1.376 . S
C997 H984 0.930 . S
C997 C996 1.376 . S
C997 C998 1.388 1_455 S
C998 H985 0.933 . S
C998 C997 1.388 1_655 S
C998 C999 1.390 . S
C999 C998 1.390 . S
C999 C1000 1.394 . S
C999 C1005 1.465 . S
C1000 C995 1.399 . S
C1000 C999 1.394 . S
C1000 C1001 1.516 . S
C1001 C1000 1.516 . S
C1001 C1002 1.502 . S
C1001 C1003 1.561 . S
C1001 C1004 1.526 . S
C1002 H986 0.959 . S
C1002 H987 0.959 . S
C1002 H988 0.961 . S
C1002 C1001 1.502 . S
C1003 H989 0.960 . S
C1003 H990 0.961 . S
C1003 H991 0.959 . S
C1003 C1001 1.561 . S
C1004 C1001 1.526 . S
C1004 C1005 1.396 . S
C1004 C1009 1.390 . S
C1005 C999 1.465 . S
C1005 C1004 1.396 . S
C1005 C1006 1.399 . S
C1006 H992 0.929 . S
C1006 C1005 1.399 . S
C1006 C1007 1.385 . S
C1007 H993 0.931 . S
C1007 C1006 1.385 . S
C1007 C1008 1.389 . S
C1008 C1007 1.389 . S
C1008 C1009 1.387 . S
C1009 H994 0.930 . S
C1009 C1004 1.390 . S
C1009 C1008 1.387 . S
H1010 C1022 0.930 . S
H1011 C1024 0.930 . S
H1012 C1025 0.930 . S
H1013 C1029 0.959 . S
H1014 C1029 0.959 . S
H1015 C1029 0.961 . S
H1016 C1030 0.960 . S
H1017 C1030 0.961 . S
H1018 C1030 0.959 . S
H1019 C1033 0.929 . S
H1020 C1034 0.931 . S
H1021 C1036 0.930 . S
C1022 H1010 0.930 . S
C1022 C1023 1.399 . S
C1022 C1027 1.399 . S
C1023 C1022 1.399 . S
C1023 C1024 1.376 . S
C1024 H1011 0.930 . S
C1024 C1023 1.376 . S
C1024 C1025 1.388 . S
C1025 H1012 0.930 . S
C1025 C1024 1.388 . S
C1025 C1026 1.390 . S
C1026 C1025 1.390 . S
C1026 C1027 1.394 . S
C1026 C1032 1.465 . S
C1027 C1022 1.399 . S
C1027 C1026 1.394 . S
C1027 C1028 1.516 . S
C1028 C1027 1.516 . S
C1028 C1029 1.502 . S
C1028 C1030 1.561 . S
C1028 C1031 1.526 . S
C1029 H1013 0.959 . S
C1029 H1014 0.959 . S
C1029 H1015 0.961 . S
C1029 C1028 1.502 . S
C1030 H1016 0.960 . S
C1030 H1017 0.961 . S
C1030 H1018 0.959 . S
C1030 C1028 1.561 . S
C1031 C1028 1.526 . S
C1031 C1032 1.396 . S
C1031 C1036 1.390 . S
C1032 C1026 1.465 . S
C1032 C1031 1.396 . S
C1032 C1033 1.399 . S
C1033 H1019 0.929 . S
C1033 C1032 1.399 . S
C1033 C1034 1.385 . S
C1034 H1020 0.931 . S
C1034 C1033 1.385 . S
C1034 C1035 1.389 . S
C1035 C1034 1.389 . S
C1035 C1036 1.387 . S
C1036 H1021 0.930 . S
C1036 C1031 1.390 . S
C1036 C1035 1.387 . S
H1037 C1049 0.930 . S
H1038 C1051 0.930 . S
H1039 C1052 0.930 . S
H1040 C1056 0.959 . S
H1041 C1056 0.959 . S
H1042 C1056 0.961 . S
H1043 C1057 0.960 . S
H1044 C1057 0.961 . S
H1045 C1057 0.959 . S
H1046 C1060 0.929 . S
H1047 C1061 0.931 . S
H1048 C1063 0.930 . S
C1049 H1037 0.930 . S
C1049 C1050 1.399 . S
C1049 C1054 1.399 . S
C1050 C1049 1.399 . S
C1050 C1051 1.376 . S
C1051 H1038 0.930 . S
C1051 C1050 1.376 . S
C1051 C1052 1.388 . S
C1052 H1039 0.930 . S
C1052 C1051 1.388 . S
C1052 C1053 1.390 . S
C1053 C1052 1.390 . S
C1053 C1054 1.394 . S
C1053 C1059 1.465 . S
C1054 C1049 1.399 . S
C1054 C1053 1.394 . S
C1054 C1055 1.516 . S
C1055 C1054 1.516 . S
C1055 C1056 1.502 . S
C1055 C1057 1.561 . S
C1055 C1058 1.526 . S
C1056 H1040 0.959 . S
C1056 H1041 0.959 . S
C1056 H1042 0.961 . S
C1056 C1055 1.502 . S
C1057 H1043 0.960 . S
C1057 H1044 0.961 . S
C1057 H1045 0.959 . S
C1057 C1055 1.561 . S
C1058 C1055 1.526 . S
C1058 C1059 1.396 . S
C1058 C1063 1.390 . S
C1059 C1053 1.465 . S
C1059 C1058 1.396 . S
C1059 C1060 1.399 . S
C1060 H1046 0.929 . S
C1060 C1059 1.399 . S
C1060 C1061 1.385 . S
C1061 H1047 0.931 . S
C1061 C1060 1.385 . S
C1061 C1062 1.389 . S
C1062 C1061 1.389 . S
C1062 C1063 1.387 . S
C1063 H1048 0.930 . S
C1063 C1058 1.390 . S
C1063 C1062 1.387 . S
H1064 C1076 0.930 . S
H1065 C1078 0.930 . S
H1066 C1079 0.930 . S
H1067 C1083 0.959 . S
H1068 C1083 0.959 . S
H1069 C1083 0.961 . S
H1070 C1084 0.960 . S
H1071 C1084 0.961 . S
H1072 C1084 0.959 . S
H1073 C1087 0.929 . S
H1074 C1088 0.931 . S
H1075 C1090 0.930 . S
C1076 H1064 0.930 . S
C1076 C1077 1.399 . S
C1076 C1081 1.399 . S
C1077 C1076 1.399 . S
C1077 C1078 1.376 . S
C1078 H1065 0.930 . S
C1078 C1077 1.376 . S
C1078 C1079 1.388 . S
C1079 H1066 0.930 . S
C1079 C1078 1.388 . S
C1079 C1080 1.390 . S
C1080 C1079 1.390 . S
C1080 C1081 1.394 . S
C1080 C1086 1.465 . S
C1081 C1076 1.399 . S
C1081 C1080 1.394 . S
C1081 C1082 1.516 . S
C1082 C1081 1.516 . S
C1082 C1083 1.502 . S
C1082 C1084 1.561 . S
C1082 C1085 1.526 . S
C1083 H1067 0.959 . S
C1083 H1068 0.959 . S
C1083 H1069 0.961 . S
C1083 C1082 1.502 . S
C1084 H1070 0.960 . S
C1084 H1071 0.961 . S
C1084 H1072 0.959 . S
C1084 C1082 1.561 . S
C1085 C1082 1.526 . S
C1085 C1086 1.396 . S
C1085 C1090 1.390 . S
C1086 C1080 1.465 . S
C1086 C1085 1.396 . S
C1086 C1087 1.399 . S
C1087 H1073 0.929 . S
C1087 C1086 1.399 . S
C1087 C1088 1.385 . S
C1088 H1074 0.931 . S
C1088 C1087 1.385 . S
C1088 C1089 1.389 . S
C1089 C1088 1.389 . S
C1089 C1090 1.387 . S
C1090 H1075 0.930 . S
C1090 C1085 1.390 . S
C1090 C1089 1.387 . S
H1091 C1103 0.930 . S
H1092 C1105 0.930 . S
H1093 C1106 0.930 . S
H1094 C1110 0.959 . S
H1095 C1110 0.959 . S
H1096 C1110 0.961 . S
H1097 C1111 0.960 . S
H1098 C1111 0.961 . S
H1099 C1111 0.959 . S
H1100 C1114 0.929 . S
H1101 C1115 0.931 . S
H1102 C1117 0.930 . S
C1103 H1091 0.930 . S
C1103 C1104 1.399 . S
C1103 C1108 1.399 . S
C1104 C1103 1.399 . S
C1104 C1105 1.376 . S
C1105 H1092 0.930 . S
C1105 C1104 1.376 . S
C1105 C1106 1.388 . S
C1106 H1093 0.930 . S
C1106 C1105 1.388 . S
C1106 C1107 1.390 . S
C1107 C1106 1.390 . S
C1107 C1108 1.394 . S
C1107 C1113 1.465 . S
C1108 C1103 1.399 . S
C1108 C1107 1.394 . S
C1108 C1109 1.516 . S
C1109 C1108 1.516 . S
C1109 C1110 1.502 . S
C1109 C1111 1.561 . S
C1109 C1112 1.526 . S
C1110 H1094 0.959 . S
C1110 H1095 0.959 . S
C1110 H1096 0.961 . S
C1110 C1109 1.502 . S
C1111 H1097 0.960 . S
C1111 H1098 0.961 . S
C1111 H1099 0.959 . S
C1111 C1109 1.561 . S
C1112 C1109 1.526 . S
C1112 C1113 1.396 . S
C1112 C1117 1.390 . S
C1113 C1107 1.465 . S
C1113 C1112 1.396 . S
C1113 C1114 1.399 . S
C1114 H1100 0.929 . S
C1114 C1113 1.399 . S
C1114 C1115 1.385 . S
C1115 H1101 0.931 . S
C1115 C1114 1.385 . S
C1115 C1116 1.389 . S
C1116 C1115 1.389 . S
C1116 C1117 1.387 . S
C1117 H1102 0.930 . S
C1117 C1112 1.390 . S
C1117 C1116 1.387 . S
H1118 C1130 0.930 . S
H1119 C1132 0.930 . S
H1120 C1133 0.930 . S
H1121 C1137 0.959 . S
H1122 C1137 0.959 . S
H1123 C1137 0.961 . S
H1124 C1138 0.960 . S
H1125 C1138 0.961 . S
H1126 C1138 0.959 . S
H1127 C1141 0.929 . S
H1128 C1142 0.931 . S
H1129 C1144 0.930 . S
C1130 H1118 0.930 . S
C1130 C1131 1.399 . S
C1130 C1135 1.399 . S
C1131 C1130 1.399 . S
C1131 C1132 1.376 . S
C1132 H1119 0.930 . S
C1132 C1131 1.376 . S
C1132 C1133 1.388 . S
C1133 H1120 0.930 . S
C1133 C1132 1.388 . S
C1133 C1134 1.390 . S
C1134 C1133 1.390 . S
C1134 C1135 1.394 . S
C1134 C1140 1.465 . S
C1135 C1130 1.399 . S
C1135 C1134 1.394 . S
C1135 C1136 1.516 . S
C1136 C1135 1.516 . S
C1136 C1137 1.502 . S
C1136 C1138 1.561 . S
C1136 C1139 1.526 . S
C1137 H1121 0.959 . S
C1137 H1122 0.959 . S
C1137 H1123 0.961 . S
C1137 C1136 1.502 . S
C1138 H1124 0.960 . S
C1138 H1125 0.961 . S
C1138 H1126 0.959 . S
C1138 C1136 1.561 . S
C1139 C1136 1.526 . S
C1139 C1140 1.396 . S
C1139 C1144 1.390 . S
C1140 C1134 1.465 . S
C1140 C1139 1.396 . S
C1140 C1141 1.399 . S
C1141 H1127 0.929 . S
C1141 C1140 1.399 . S
C1141 C1142 1.385 . S
C1142 H1128 0.931 . S
C1142 C1141 1.385 . S
C1142 C1143 1.389 . S
C1143 C1142 1.389 . S
C1143 C1144 1.387 . S
C1144 H1129 0.930 . S
C1144 C1139 1.390 . S
C1144 C1143 1.387 . S
H1145 C1157 0.930 . S
H1146 C1159 0.930 . S
H1147 C1160 0.930 . S
H1148 C1164 0.959 . S
H1149 C1164 0.959 . S
H1150 C1164 0.961 . S
H1151 C1165 0.960 . S
H1152 C1165 0.961 . S
H1153 C1165 0.959 . S
H1154 C1168 0.929 . S
H1155 C1169 0.931 . S
H1156 C1171 0.930 . S
C1157 H1145 0.930 . S
C1157 C1158 1.396 1_455 S
C1157 C1162 1.399 . S
C1158 C1157 1.396 1_655 S
C1158 C1159 1.373 1_655 S
C1159 H1146 0.930 . S
C1159 C1158 1.373 1_455 S
C1159 C1160 1.388 . S
C1160 H1147 0.930 . S
C1160 C1159 1.388 . S
C1160 C1161 1.390 . S
C1161 C1160 1.390 . S
C1161 C1162 1.394 . S
C1161 C1167 1.465 . S
C1162 C1157 1.399 . S
C1162 C1161 1.394 . S
C1162 C1163 1.516 . S
C1163 C1162 1.516 . S
C1163 C1164 1.502 . S
C1163 C1165 1.561 . S
C1163 C1166 1.526 . S
C1164 H1148 0.959 . S
C1164 H1149 0.959 . S
C1164 H1150 0.961 . S
C1164 C1163 1.502 . S
C1165 H1151 0.960 . S
C1165 H1152 0.961 . S
C1165 H1153 0.959 . S
C1165 C1163 1.561 . S
C1166 C1163 1.526 . S
C1166 C1167 1.396 . S
C1166 C1171 1.390 . S
C1167 C1161 1.465 . S
C1167 C1166 1.396 . S
C1167 C1168 1.399 . S
C1168 H1154 0.929 . S
C1168 C1167 1.399 . S
C1168 C1169 1.385 . S
C1169 H1155 0.931 . S
C1169 C1168 1.385 . S
C1169 C1170 1.389 . S
C1170 C1169 1.389 . S
C1170 C1171 1.387 . S
C1171 H1156 0.930 . S
C1171 C1166 1.390 . S
C1171 C1170 1.387 . S
H1172 C1184 0.930 . S
H1173 C1186 0.930 . S
H1174 C1187 0.930 . S
H1175 C1191 0.959 . S
H1176 C1191 0.959 . S
H1177 C1191 0.961 . S
H1178 C1192 0.960 . S
H1179 C1192 0.961 . S
H1180 C1192 0.959 . S
H1181 C1195 0.929 . S
H1182 C1196 0.931 . S
H1183 C1198 0.930 . S
C1184 H1172 0.930 . S
C1184 C1185 1.399 . S
C1184 C1189 1.399 . S
C1185 C1184 1.399 . S
C1185 C1186 1.376 . S
C1186 H1173 0.930 . S
C1186 C1185 1.376 . S
C1186 C1187 1.388 . S
C1187 H1174 0.930 . S
C1187 C1186 1.388 . S
C1187 C1188 1.390 . S
C1188 C1187 1.390 . S
C1188 C1189 1.394 . S
C1188 C1194 1.465 . S
C1189 C1184 1.399 . S
C1189 C1188 1.394 . S
C1189 C1190 1.516 . S
C1190 C1189 1.516 . S
C1190 C1191 1.502 . S
C1190 C1192 1.561 . S
C1190 C1193 1.526 . S
C1191 H1175 0.959 . S
C1191 H1176 0.959 . S
C1191 H1177 0.961 . S
C1191 C1190 1.502 . S
C1192 H1178 0.960 . S
C1192 H1179 0.961 . S
C1192 H1180 0.959 . S
C1192 C1190 1.561 . S
C1193 C1190 1.526 . S
C1193 C1194 1.396 . S
C1193 C1198 1.390 . S
C1194 C1188 1.465 . S
C1194 C1193 1.396 . S
C1194 C1195 1.399 . S
C1195 H1181 0.929 . S
C1195 C1194 1.399 . S
C1195 C1196 1.385 . S
C1196 H1182 0.931 . S
C1196 C1195 1.385 . S
C1196 C1197 1.389 . S
C1197 C1196 1.389 . S
C1197 C1198 1.387 . S
C1198 H1183 0.930 . S
C1198 C1193 1.390 . S
C1198 C1197 1.387 . S
H1199 C1211 0.938 . S
H1200 C1213 0.930 . S
H1201 C1214 0.930 . S
H1202 C1218 0.959 . S
H1203 C1218 0.959 . S
H1204 C1218 0.961 . S
H1205 C1219 0.960 . S
H1206 C1219 0.961 . S
H1207 C1219 0.959 . S
H1208 C1222 0.929 . S
H1209 C1223 0.931 . S
H1210 C1225 0.930 . S
C1211 H1199 0.938 . S
C1211 C1212 1.399 . S
C1211 C1216 1.399 . S
C1212 C1211 1.399 . S
C1212 C1213 1.376 . S
C1213 H1200 0.930 . S
C1213 C1212 1.376 . S
C1213 C1214 1.388 . S
C1214 H1201 0.930 . S
C1214 C1213 1.388 . S
C1214 C1215 1.390 . S
C1215 C1214 1.390 . S
C1215 C1216 1.394 . S
C1215 C1221 1.465 . S
C1216 C1211 1.399 . S
C1216 C1215 1.394 . S
C1216 C1217 1.516 . S
C1217 C1216 1.516 . S
C1217 C1218 1.502 . S
C1217 C1219 1.561 . S
C1217 C1220 1.526 . S
C1218 H1202 0.959 . S
C1218 H1203 0.959 . S
C1218 H1204 0.961 . S
C1218 C1217 1.502 . S
C1219 H1205 0.960 . S
C1219 H1206 0.961 . S
C1219 H1207 0.959 . S
C1219 C1217 1.561 . S
C1220 C1217 1.526 . S
C1220 C1221 1.396 . S
C1220 C1225 1.390 . S
C1221 C1215 1.465 . S
C1221 C1220 1.396 . S
C1221 C1222 1.399 . S
C1222 H1208 0.929 . S
C1222 C1221 1.399 . S
C1222 C1223 1.385 . S
C1223 H1209 0.931 . S
C1223 C1222 1.385 . S
C1223 C1224 1.389 . S
C1224 C1223 1.389 . S
C1224 C1225 1.387 . S
C1225 H1210 0.930 . S
C1225 C1220 1.390 . S
C1225 C1224 1.387 . S
H1226 C1238 0.930 . S
H1227 C1240 0.930 . S
H1228 C1241 0.930 . S
H1229 C1245 0.959 . S
H1230 C1245 0.959 . S
H1231 C1245 0.961 . S
H1232 C1246 0.960 . S
H1233 C1246 0.961 . S
H1234 C1246 0.959 . S
H1235 C1249 0.929 . S
H1236 C1250 0.931 . S
H1237 C1252 0.930 . S
C1238 H1226 0.930 . S
C1238 C1239 1.399 . S
C1238 C1243 1.399 . S
C1239 C1238 1.399 . S
C1239 C1240 1.376 . S
C1240 H1227 0.930 . S
C1240 C1239 1.376 . S
C1240 C1241 1.388 . S
C1241 H1228 0.930 . S
C1241 C1240 1.388 . S
C1241 C1242 1.390 . S
C1242 C1241 1.390 . S
C1242 C1243 1.394 . S
C1242 C1248 1.465 . S
C1243 C1238 1.399 . S
C1243 C1242 1.394 . S
C1243 C1244 1.516 . S
C1244 C1243 1.516 . S
C1244 C1245 1.502 . S
C1244 C1246 1.561 . S
C1244 C1247 1.526 . S
C1245 H1229 0.959 . S
C1245 H1230 0.959 . S
C1245 H1231 0.961 . S
C1245 C1244 1.502 . S
C1246 H1232 0.960 . S
C1246 H1233 0.961 . S
C1246 H1234 0.959 . S
C1246 C1244 1.561 . S
C1247 C1244 1.526 . S
C1247 C1248 1.396 . S
C1247 C1252 1.390 . S
C1248 C1242 1.465 . S
C1248 C1247 1.396 . S
C1248 C1249 1.399 . S
C1249 H1235 0.929 . S
C1249 C1248 1.399 . S
C1249 C1250 1.385 . S
C1250 H1236 0.931 . S
C1250 C1249 1.385 . S
C1250 C1251 1.389 . S
C1251 C1250 1.389 . S
C1251 C1252 1.387 . S
C1252 H1237 0.930 . S
C1252 C1247 1.390 . S
C1252 C1251 1.387 . S
H1253 C1265 0.930 . S
H1254 C1267 0.930 . S
H1255 C1268 0.930 . S
H1256 C1272 0.959 . S
H1257 C1272 0.959 . S
H1258 C1272 0.961 . S
H1259 C1273 0.960 . S
H1260 C1273 0.961 . S
H1261 C1273 0.959 . S
H1262 C1276 0.929 . S
H1263 C1277 0.931 . S
H1264 C1279 0.930 . S
C1265 H1253 0.930 . S
C1265 C1266 1.399 . S
C1265 C1270 1.399 . S
C1266 C1265 1.399 . S
C1266 C1267 1.376 . S
C1267 H1254 0.930 . S
C1267 C1266 1.376 . S
C1267 C1268 1.388 . S
C1268 H1255 0.930 . S
C1268 C1267 1.388 . S
C1268 C1269 1.390 . S
C1269 C1268 1.390 . S
C1269 C1270 1.394 . S
C1269 C1275 1.465 . S
C1270 C1265 1.399 . S
C1270 C1269 1.394 . S
C1270 C1271 1.516 . S
C1271 C1270 1.516 . S
C1271 C1272 1.502 . S
C1271 C1273 1.561 . S
C1271 C1274 1.526 . S
C1272 H1256 0.959 . S
C1272 H1257 0.959 . S
C1272 H1258 0.961 . S
C1272 C1271 1.502 . S
C1273 H1259 0.960 . S
C1273 H1260 0.961 . S
C1273 H1261 0.959 . S
C1273 C1271 1.561 . S
C1274 C1271 1.526 . S
C1274 C1275 1.396 . S
C1274 C1279 1.390 . S
C1275 C1269 1.465 . S
C1275 C1274 1.396 . S
C1275 C1276 1.399 . S
C1276 H1262 0.929 . S
C1276 C1275 1.399 . S
C1276 C1277 1.385 . S
C1277 H1263 0.931 . S
C1277 C1276 1.385 . S
C1277 C1278 1.389 . S
C1278 C1277 1.389 . S
C1278 C1279 1.387 . S
C1279 H1264 0.930 . S
C1279 C1274 1.390 . S
C1279 C1278 1.387 . S
H1280 C1292 0.930 . S
H1281 C1294 0.930 . S
H1282 C1295 0.930 . S
H1283 C1299 0.959 . S
H1284 C1299 0.959 . S
H1285 C1299 0.961 . S
H1286 C1300 0.960 . S
H1287 C1300 0.961 . S
H1288 C1300 0.959 . S
H1289 C1303 0.929 . S
H1290 C1304 0.931 . S
H1291 C1306 0.930 . S
C1292 H1280 0.930 . S
C1292 C1293 1.399 . S
C1292 C1297 1.399 . S
C1293 C1292 1.399 . S
C1293 C1294 1.376 . S
C1294 H1281 0.930 . S
C1294 C1293 1.376 . S
C1294 C1295 1.388 . S
C1295 H1282 0.930 . S
C1295 C1294 1.388 . S
C1295 C1296 1.390 . S
C1296 C1295 1.390 . S
C1296 C1297 1.394 . S
C1296 C1302 1.465 . S
C1297 C1292 1.399 . S
C1297 C1296 1.394 . S
C1297 C1298 1.516 . S
C1298 C1297 1.516 . S
C1298 C1299 1.502 . S
C1298 C1300 1.561 . S
C1298 C1301 1.526 . S
C1299 H1283 0.959 . S
C1299 H1284 0.959 . S
C1299 H1285 0.961 . S
C1299 C1298 1.502 . S
C1300 H1286 0.960 . S
C1300 H1287 0.961 . S
C1300 H1288 0.959 . S
C1300 C1298 1.561 . S
C1301 C1298 1.526 . S
C1301 C1302 1.396 . S
C1301 C1306 1.390 . S
C1302 C1296 1.465 . S
C1302 C1301 1.396 . S
C1302 C1303 1.399 . S
C1303 H1289 0.929 . S
C1303 C1302 1.399 . S
C1303 C1304 1.385 . S
C1304 H1290 0.931 . S
C1304 C1303 1.385 . S
C1304 C1305 1.389 . S
C1305 C1304 1.389 . S
C1305 C1306 1.387 . S
C1306 H1291 0.930 . S
C1306 C1301 1.390 . S
C1306 C1305 1.387 . S
H1307 C1319 0.930 . S
H1308 C1321 0.930 . S
H1309 C1322 0.930 1_455 S
H1310 C1326 0.979 1_455 S
H1311 C1326 0.931 1_545 S
H1312 C1326 0.982 . S
H1313 C1327 0.960 . S
H1314 C1327 0.961 . S
H1315 C1327 0.959 . S
H1316 C1330 0.929 . S
H1317 C1331 0.931 . S
H1318 C1333 0.930 . S
C1319 H1307 0.930 . S
C1319 C1320 1.399 . S
C1319 C1324 1.399 . S
C1320 C1319 1.399 . S
C1320 C1321 1.376 . S
C1321 H1308 0.930 . S
C1321 C1320 1.376 . S
C1321 C1322 1.388 . S
C1322 H1309 0.930 1_655 S
C1322 C1321 1.388 . S
C1322 C1323 1.390 . S
C1323 C1322 1.390 . S
C1323 C1324 1.394 . S
C1323 C1329 1.465 1_665 S
C1324 C1319 1.399 . S
C1324 C1323 1.394 . S
C1324 C1325 1.516 1_565 S
C1325 C1324 1.516 1_545 S
C1325 C1326 1.492 1_545 S
C1325 C1327 1.561 . S
C1325 C1328 1.526 1_655 S
C1326 H1310 0.979 1_655 S
C1326 H1311 0.931 1_565 S
C1326 H1312 0.982 . S
C1326 C1325 1.492 1_565 S
C1327 H1313 0.960 . S
C1327 H1314 0.961 . S
C1327 H1315 0.959 . S
C1327 C1325 1.561 . S
C1328 C1325 1.526 1_455 S
C1328 C1329 1.396 . S
C1328 C1333 1.390 . S
C1329 C1323 1.465 1_445 S
C1329 C1328 1.396 . S
C1329 C1330 1.399 . S
C1330 H1316 0.929 . S
C1330 C1329 1.399 . S
C1330 C1331 1.385 . S
C1331 H1317 0.931 . S
C1331 C1330 1.385 . S
C1331 C1332 1.389 . S
C1332 C1331 1.389 . S
C1332 C1333 1.387 . S
C1333 H1318 0.930 . S
C1333 C1328 1.390 . S
C1333 C1332 1.387 . S
H1334 C1346 0.930 . S
H1335 C1348 0.930 . S
H1336 C1349 0.930 . S
H1337 C1353 0.959 . S
H1338 C1353 0.959 . S
H1339 C1353 0.961 . S
H1340 C1354 0.960 . S
H1341 C1354 0.961 . S
H1342 C1354 0.959 . S
H1343 C1357 0.929 . S
H1344 C1358 0.931 . S
H1345 C1360 0.930 . S
C1346 H1334 0.930 . S
C1346 C1347 1.399 . S
C1346 C1351 1.399 . S
C1347 C1346 1.399 . S
C1347 C1348 1.376 . S
C1348 H1335 0.930 . S
C1348 C1347 1.376 . S
C1348 C1349 1.388 . S
C1349 H1336 0.930 . S
C1349 C1348 1.388 . S
C1349 C1350 1.390 . S
C1350 C1349 1.390 . S
C1350 C1351 1.394 . S
C1350 C1356 1.465 . S
C1351 C1346 1.399 . S
C1351 C1350 1.394 . S
C1351 C1352 1.516 . S
C1352 C1351 1.516 . S
C1352 C1353 1.502 . S
C1352 C1354 1.561 . S
C1352 C1355 1.526 . S
C1353 H1337 0.959 . S
C1353 H1338 0.959 . S
C1353 H1339 0.961 . S
C1353 C1352 1.502 . S
C1354 H1340 0.960 . S
C1354 H1341 0.961 . S
C1354 H1342 0.959 . S
C1354 C1352 1.561 . S
C1355 C1352 1.526 . S
C1355 C1356 1.396 . S
C1355 C1360 1.390 . S
C1356 C1350 1.465 . S
C1356 C1355 1.396 . S
C1356 C1357 1.399 . S
C1357 H1343 0.929 . S
C1357 C1356 1.399 . S
C1357 C1358 1.385 . S
C1358 H1344 0.931 . S
C1358 C1357 1.385 . S
C1358 C1359 1.389 . S
C1359 C1358 1.389 . S
C1359 C1360 1.387 . S
C1360 H1345 0.930 . S
C1360 C1355 1.390 . S
C1360 C1359 1.387 . S
H1361 C1373 0.930 . S
H1362 C1375 0.930 . S
H1363 C1376 0.930 . S
H1364 C1380 0.959 . S
H1365 C1380 0.959 . S
H1366 C1380 0.961 . S
H1367 C1381 0.960 . S
H1368 C1381 0.961 1_565 S
H1369 C1381 0.959 . S
H1370 C1384 0.929 . S
H1371 C1385 0.931 . S
H1372 C1387 0.930 . S
C1373 H1361 0.930 . S
C1373 C1374 1.399 . S
C1373 C1378 1.399 . S
C1374 C1373 1.399 . S
C1374 C1375 1.376 1_554 S
C1375 H1362 0.930 . S
C1375 C1374 1.376 1_556 S
C1375 C1376 1.388 . S
C1376 H1363 0.930 . S
C1376 C1375 1.388 . S
C1376 C1377 1.390 . S
C1377 C1376 1.390 . S
C1377 C1378 1.394 1_556 S
C1377 C1383 1.465 1_545 S
C1378 C1373 1.399 . S
C1378 C1377 1.394 1_554 S
C1378 C1379 1.516 1_545 S
C1379 C1378 1.516 1_565 S
C1379 C1380 1.502 . S
C1379 C1381 1.561 1_565 S
C1379 C1382 1.526 . S
C1380 H1364 0.959 . S
C1380 H1365 0.959 . S
C1380 H1366 0.961 . S
C1380 C1379 1.502 . S
C1381 H1367 0.960 . S
C1381 H1368 0.961 1_545 S
C1381 H1369 0.959 . S
C1381 C1379 1.561 1_545 S
C1382 C1379 1.526 . S
C1382 C1383 1.396 1_554 S
C1382 C1387 1.390 . S
C1383 C1377 1.465 1_565 S
C1383 C1382 1.396 1_556 S
C1383 C1384 1.399 . S
C1384 H1370 0.929 . S
C1384 C1383 1.399 . S
C1384 C1385 1.385 . S
C1385 H1371 0.931 . S
C1385 C1384 1.385 . S
C1385 C1386 1.389 . S
C1386 C1385 1.389 . S
C1386 C1387 1.387 1_556 S
C1387 H1372 0.930 . S
C1387 C1382 1.390 . S
C1387 C1386 1.387 1_554 S
H1388 C1400 0.930 . S
H1389 C1402 0.930 . S
H1390 C1403 0.930 . S
H1391 C1407 0.959 . S
H1392 C1407 0.959 . S
H1393 C1407 0.961 . S
H1394 C1408 0.960 . S
H1395 C1408 0.961 . S
H1396 C1408 0.959 . S
H1397 C1411 0.929 . S
H1398 C1412 0.931 . S
H1399 C1414 0.930 . S
C1400 H1388 0.930 . S
C1400 C1401 1.399 . S
C1400 C1405 1.399 . S
C1401 C1400 1.399 . S
C1401 C1402 1.376 . S
C1402 H1389 0.930 . S
C1402 C1401 1.376 . S
C1402 C1403 1.388 . S
C1403 H1390 0.930 . S
C1403 C1402 1.388 . S
C1403 C1404 1.390 . S
C1404 C1403 1.390 . S
C1404 C1405 1.394 . S
C1404 C1410 1.465 . S
C1405 C1400 1.399 . S
C1405 C1404 1.394 . S
C1405 C1406 1.516 . S
C1406 C1405 1.516 . S
C1406 C1407 1.502 . S
C1406 C1408 1.561 . S
C1406 C1409 1.526 . S
C1407 H1391 0.959 . S
C1407 H1392 0.959 . S
C1407 H1393 0.961 . S
C1407 C1406 1.502 . S
C1408 H1394 0.960 . S
C1408 H1395 0.961 . S
C1408 H1396 0.959 . S
C1408 C1406 1.561 . S
C1409 C1406 1.526 . S
C1409 C1410 1.396 . S
C1409 C1414 1.390 . S
C1410 C1404 1.465 . S
C1410 C1409 1.396 . S
C1410 C1411 1.399 . S
C1411 H1397 0.929 . S
C1411 C1410 1.399 . S
C1411 C1412 1.385 . S
C1412 H1398 0.931 . S
C1412 C1411 1.385 . S
C1412 C1413 1.389 . S
C1413 C1412 1.389 . S
C1413 C1414 1.387 . S
C1414 H1399 0.930 . S
C1414 C1409 1.390 . S
C1414 C1413 1.387 . S
H1415 C1427 0.930 . S
H1416 C1429 0.930 . S
H1417 C1430 0.930 1_545 S
H1418 C1434 0.959 . S
H1419 C1434 0.959 . S
H1420 C1434 0.961 . S
H1421 C1435 0.960 . S
H1422 C1435 0.961 . S
H1423 C1435 0.959 . S
H1424 C1438 0.929 . S
H1425 C1439 0.931 . S
H1426 C1441 0.930 . S
C1427 H1415 0.930 . S
C1427 C1428 1.399 . S
C1427 C1432 1.399 . S
C1428 C1427 1.399 . S
C1428 C1429 1.376 . S
C1429 H1416 0.930 . S
C1429 C1428 1.376 . S
C1429 C1430 1.388 . S
C1430 H1417 0.930 1_565 S
C1430 C1429 1.388 . S
C1430 C1431 1.390 . S
C1431 C1430 1.390 . S
C1431 C1432 1.394 . S
C1431 C1437 1.465 1_565 S
C1432 C1427 1.399 . S
C1432 C1431 1.394 . S
C1432 C1433 1.516 . S
C1433 C1432 1.516 . S
C1433 C1434 1.502 . S
C1433 C1435 1.561 . S
C1433 C1436 1.526 1_565 S
C1434 H1418 0.959 . S
C1434 H1419 0.959 . S
C1434 H1420 0.961 . S
C1434 C1433 1.502 . S
C1435 H1421 0.960 . S
C1435 H1422 0.961 . S
C1435 H1423 0.959 . S
C1435 C1433 1.561 . S
C1436 C1433 1.526 1_545 S
C1436 C1437 1.396 . S
C1436 C1441 1.390 . S
C1437 C1431 1.465 1_545 S
C1437 C1436 1.396 . S
C1437 C1438 1.399 . S
C1438 H1424 0.929 . S
C1438 C1437 1.399 . S
C1438 C1439 1.385 . S
C1439 H1425 0.931 . S
C1439 C1438 1.385 . S
C1439 C1440 1.389 . S
C1440 C1439 1.389 . S
C1440 C1441 1.387 . S
C1441 H1426 0.930 . S
C1441 C1436 1.390 . S
C1441 C1440 1.387 . S
H1442 C1454 0.930 . S
H1443 C1456 0.930 . S
H1444 C1457 0.930 . S
H1445 C1461 0.959 . S
H1446 C1461 0.959 . S
H1447 C1461 0.961 . S
H1448 C1462 0.960 . S
H1449 C1462 0.961 . S
H1450 C1462 0.959 . S
H1451 C1465 0.929 . S
H1452 C1466 0.931 . S
H1453 C1468 0.930 . S
C1454 H1442 0.930 . S
C1454 C1455 1.399 . S
C1454 C1459 1.399 . S
C1455 C1454 1.399 . S
C1455 C1456 1.376 . S
C1456 H1443 0.930 . S
C1456 C1455 1.376 . S
C1456 C1457 1.388 . S
C1457 H1444 0.930 . S
C1457 C1456 1.388 . S
C1457 C1458 1.390 . S
C1458 C1457 1.390 . S
C1458 C1459 1.394 . S
C1458 C1464 1.465 . S
C1459 C1454 1.399 . S
C1459 C1458 1.394 . S
C1459 C1460 1.516 . S
C1460 C1459 1.516 . S
C1460 C1461 1.502 . S
C1460 C1462 1.561 . S
C1460 C1463 1.526 . S
C1461 H1445 0.959 . S
C1461 H1446 0.959 . S
C1461 H1447 0.961 . S
C1461 C1460 1.502 . S
C1462 H1448 0.960 . S
C1462 H1449 0.961 . S
C1462 H1450 0.959 . S
C1462 C1460 1.561 . S
C1463 C1460 1.526 . S
C1463 C1464 1.396 . S
C1463 C1468 1.390 . S
C1464 C1458 1.465 . S
C1464 C1463 1.396 . S
C1464 C1465 1.399 . S
C1465 H1451 0.929 . S
C1465 C1464 1.399 . S
C1465 C1466 1.385 . S
C1466 H1452 0.931 . S
C1466 C1465 1.385 . S
C1466 C1467 1.389 . S
C1467 C1466 1.389 . S
C1467 C1468 1.387 . S
C1468 H1453 0.930 . S
C1468 C1463 1.390 . S
C1468 C1467 1.387 . S
H1469 C1481 0.927 1_554 S
H1470 C1483 0.930 . S
H1471 C1484 0.930 1_565 S
H1472 C1488 0.959 1_556 S
H1473 C1488 0.959 . S
H1474 C1488 0.961 . S
H1475 C1489 0.960 . S
H1476 C1489 0.961 . S
H1477 C1489 0.959 . S
H1478 C1492 0.929 . S
H1479 C1493 0.940 . S
H1480 C1495 0.930 . S
C1481 H1469 0.927 1_556 S
C1481 C1482 1.404 . S
C1481 C1486 1.398 1_556 S
C1482 C1481 1.404 . S
C1482 C1483 1.376 . S
C1483 H1470 0.930 . S
C1483 C1482 1.376 . S
C1483 C1484 1.388 . S
C1484 H1471 0.930 1_545 S
C1484 C1483 1.388 . S
C1484 C1485 1.390 . S
C1485 C1484 1.390 . S
C1485 C1486 1.394 1_556 S
C1485 C1491 1.465 1_545 S
C1486 C1481 1.398 1_554 S
C1486 C1485 1.394 1_554 S
C1486 C1487 1.516 1_655 S
C1487 C1486 1.516 1_455 S
C1487 C1488 1.502 . S
C1487 C1489 1.561 . S
C1487 C1490 1.526 1_545 S
C1488 H1472 0.959 1_554 S
C1488 H1473 0.959 . S
C1488 H1474 0.961 . S
C1488 C1487 1.502 . S
C1489 H1475 0.960 . S
C1489 H1476 0.961 . S
C1489 H1477 0.959 . S
C1489 C1487 1.561 . S
C1490 C1487 1.526 1_565 S
C1490 C1491 1.396 1_454 S
C1490 C1495 1.390 . S
C1491 C1485 1.465 1_565 S
C1491 C1490 1.396 1_656 S
C1491 C1492 1.399 . S
C1492 H1478 0.929 . S
C1492 C1491 1.399 . S
C1492 C1493 1.394 1_655 S
C1493 H1479 0.940 . S
C1493 C1492 1.394 1_455 S
C1493 C1494 1.373 1_556 S
C1494 C1493 1.373 1_554 S
C1494 C1495 1.387 . S
C1495 H1480 0.930 . S
C1495 C1490 1.390 . S
C1495 C1494 1.387 . S
H1496 C1508 0.930 . S
H1497 C1510 0.930 . S
H1498 C1511 0.930 . S
H1499 C1515 0.959 . S
H1500 C1515 0.959 . S
H1501 C1515 0.961 . S
H1502 C1516 0.960 . S
H1503 C1516 0.961 . S
H1504 C1516 0.959 . S
H1505 C1519 0.929 . S
H1506 C1520 0.931 . S
H1507 C1522 0.930 . S
C1508 H1496 0.930 . S
C1508 C1509 1.399 . S
C1508 C1513 1.399 . S
C1509 C1508 1.399 . S
C1509 C1510 1.376 . S
C1510 H1497 0.930 . S
C1510 C1509 1.376 . S
C1510 C1511 1.388 . S
C1511 H1498 0.930 . S
C1511 C1510 1.388 . S
C1511 C1512 1.390 . S
C1512 C1511 1.390 . S
C1512 C1513 1.394 . S
C1512 C1518 1.465 . S
C1513 C1508 1.399 . S
C1513 C1512 1.394 . S
C1513 C1514 1.516 . S
C1514 C1513 1.516 . S
C1514 C1515 1.502 . S
C1514 C1516 1.561 . S
C1514 C1517 1.526 . S
C1515 H1499 0.959 . S
C1515 H1500 0.959 . S
C1515 H1501 0.961 . S
C1515 C1514 1.502 . S
C1516 H1502 0.960 . S
C1516 H1503 0.961 . S
C1516 H1504 0.959 . S
C1516 C1514 1.561 . S
C1517 C1514 1.526 . S
C1517 C1518 1.396 . S
C1517 C1522 1.390 . S
C1518 C1512 1.465 . S
C1518 C1517 1.396 . S
C1518 C1519 1.399 . S
C1519 H1505 0.929 . S
C1519 C1518 1.399 . S
C1519 C1520 1.385 . S
C1520 H1506 0.931 . S
C1520 C1519 1.385 . S
C1520 C1521 1.389 . S
C1521 C1520 1.389 . S
C1521 C1522 1.387 . S
C1522 H1507 0.930 . S
C1522 C1517 1.390 . S
C1522 C1521 1.387 . S
H1523 C1535 0.930 . S
H1524 C1537 0.930 . S
H1525 C1538 0.930 . S
H1526 C1542 0.959 . S
H1527 C1542 0.959 . S
H1528 C1542 0.961 . S
H1529 C1543 0.960 . S
H1530 C1543 0.961 . S
H1531 C1543 0.959 . S
H1532 C1546 0.929 . S
H1533 C1547 0.931 . S
H1534 C1549 0.930 . S
C1535 H1523 0.930 . S
C1535 C1536 1.399 . S
C1535 C1540 1.399 . S
C1536 C1535 1.399 . S
C1536 C1537 1.376 . S
C1537 H1524 0.930 . S
C1537 C1536 1.376 . S
C1537 C1538 1.388 . S
C1538 H1525 0.930 . S
C1538 C1537 1.388 . S
C1538 C1539 1.390 . S
C1539 C1538 1.390 . S
C1539 C1540 1.394 . S
C1539 C1545 1.465 . S
C1540 C1535 1.399 . S
C1540 C1539 1.394 . S
C1540 C1541 1.516 . S
C1541 C1540 1.516 . S
C1541 C1542 1.502 . S
C1541 C1543 1.561 . S
C1541 C1544 1.526 . S
C1542 H1526 0.959 . S
C1542 H1527 0.959 . S
C1542 H1528 0.961 . S
C1542 C1541 1.502 . S
C1543 H1529 0.960 . S
C1543 H1530 0.961 . S
C1543 H1531 0.959 . S
C1543 C1541 1.561 . S
C1544 C1541 1.526 . S
C1544 C1545 1.396 . S
C1544 C1549 1.390 . S
C1545 C1539 1.465 . S
C1545 C1544 1.396 . S
C1545 C1546 1.399 . S
C1546 H1532 0.929 . S
C1546 C1545 1.399 . S
C1546 C1547 1.385 . S
C1547 H1533 0.931 . S
C1547 C1546 1.385 . S
C1547 C1548 1.389 . S
C1548 C1547 1.389 . S
C1548 C1549 1.387 . S
C1549 H1534 0.930 . S
C1549 C1544 1.390 . S
C1549 C1548 1.387 . S
H1550 C1562 0.930 . S
H1551 C1564 0.930 . S
H1552 C1565 0.930 . S
H1553 C1569 0.959 . S
H1554 C1569 0.959 . S
H1555 C1569 0.961 . S
H1556 C1570 0.960 . S
H1557 C1570 0.961 . S
H1558 C1570 0.959 . S
H1559 C1573 0.929 . S
H1560 C1574 0.931 . S
H1561 C1576 0.930 . S
C1562 H1550 0.930 . S
C1562 C1563 1.399 . S
C1562 C1567 1.399 . S
C1563 C1562 1.399 . S
C1563 C1564 1.376 . S
C1564 H1551 0.930 . S
C1564 C1563 1.376 . S
C1564 C1565 1.388 . S
C1565 H1552 0.930 . S
C1565 C1564 1.388 . S
C1565 C1566 1.390 . S
C1566 C1565 1.390 . S
C1566 C1567 1.394 . S
C1566 C1572 1.465 . S
C1567 C1562 1.399 . S
C1567 C1566 1.394 . S
C1567 C1568 1.516 . S
C1568 C1567 1.516 . S
C1568 C1569 1.502 . S
C1568 C1570 1.561 . S
C1568 C1571 1.526 . S
C1569 H1553 0.959 . S
C1569 H1554 0.959 . S
C1569 H1555 0.961 . S
C1569 C1568 1.502 . S
C1570 H1556 0.960 . S
C1570 H1557 0.961 . S
C1570 H1558 0.959 . S
C1570 C1568 1.561 . S
C1571 C1568 1.526 . S
C1571 C1572 1.396 . S
C1571 C1576 1.390 . S
C1572 C1566 1.465 . S
C1572 C1571 1.396 . S
C1572 C1573 1.399 . S
C1573 H1559 0.929 . S
C1573 C1572 1.399 . S
C1573 C1574 1.385 . S
C1574 H1560 0.931 . S
C1574 C1573 1.385 . S
C1574 C1575 1.389 . S
C1575 C1574 1.389 . S
C1575 C1576 1.387 . S
C1576 H1561 0.930 . S
C1576 C1571 1.390 . S
C1576 C1575 1.387 . S
H1577 C1589 0.930 . S
H1578 C1591 0.930 . S
H1579 C1592 0.930 . S
H1580 C1596 0.959 . S
H1581 C1596 0.959 . S
H1582 C1596 0.961 . S
H1583 C1597 0.960 . S
H1584 C1597 0.961 . S
H1585 C1597 0.959 . S
H1586 C1600 0.929 . S
H1587 C1601 0.931 . S
H1588 C1603 0.930 . S
C1589 H1577 0.930 . S
C1589 C1590 1.399 . S
C1589 C1594 1.399 . S
C1590 C1589 1.399 . S
C1590 C1591 1.376 . S
C1591 H1578 0.930 . S
C1591 C1590 1.376 . S
C1591 C1592 1.388 . S
C1592 H1579 0.930 . S
C1592 C1591 1.388 . S
C1592 C1593 1.390 . S
C1593 C1592 1.390 . S
C1593 C1594 1.394 . S
C1593 C1599 1.465 . S
C1594 C1589 1.399 . S
C1594 C1593 1.394 . S
C1594 C1595 1.516 . S
C1595 C1594 1.516 . S
C1595 C1596 1.502 . S
C1595 C1597 1.561 . S
C1595 C1598 1.526 . S
C1596 H1580 0.959 . S
C1596 H1581 0.959 . S
C1596 H1582 0.961 . S
C1596 C1595 1.502 . S
C1597 H1583 0.960 . S
C1597 H1584 0.961 . S
C1597 H1585 0.959 . S
C1597 C1595 1.561 . S
C1598 C1595 1.526 . S
C1598 C1599 1.396 . S
C1598 C1603 1.390 . S
C1599 C1593 1.465 . S
C1599 C1598 1.396 . S
C1599 C1600 1.399 . S
C1600 H1586 0.929 . S
C1600 C1599 1.399 . S
C1600 C1601 1.385 . S
C1601 H1587 0.931 . S
C1601 C1600 1.385 . S
C1601 C1602 1.389 . S
C1602 C1601 1.389 . S
C1602 C1603 1.387 . S
C1603 H1588 0.930 . S
C1603 C1598 1.390 . S
C1603 C1602 1.387 . S
H1604 C1616 0.930 . S
H1605 C1618 0.930 . S
H1606 C1619 0.930 . S
H1607 C1623 0.959 . S
H1608 C1623 0.959 . S
H1609 C1623 0.961 . S
H1610 C1624 0.960 . S
H1611 C1624 0.961 . S
H1612 C1624 0.959 . S
H1613 C1627 0.929 . S
H1614 C1628 0.931 . S
H1615 C1630 0.930 . S
C1616 H1604 0.930 . S
C1616 C1617 1.399 1_556 S
C1616 C1621 1.399 . S
C1617 C1616 1.399 1_554 S
C1617 C1618 1.376 . S
C1618 H1605 0.930 . S
C1618 C1617 1.376 . S
C1618 C1619 1.388 . S
C1619 H1606 0.930 . S
C1619 C1618 1.388 . S
C1619 C1620 1.390 . S
C1620 C1619 1.390 . S
C1620 C1621 1.394 1_554 S
C1620 C1626 1.465 . S
C1621 C1616 1.399 . S
C1621 C1620 1.394 1_556 S
C1621 C1622 1.516 . S
C1622 C1621 1.516 . S
C1622 C1623 1.502 . S
C1622 C1624 1.561 . S
C1622 C1625 1.526 . S
C1623 H1607 0.959 . S
C1623 H1608 0.959 . S
C1623 H1609 0.961 . S
C1623 C1622 1.502 . S
C1624 H1610 0.960 . S
C1624 H1611 0.961 . S
C1624 H1612 0.959 . S
C1624 C1622 1.561 . S
C1625 C1622 1.526 . S
C1625 C1626 1.396 1_556 S
C1625 C1630 1.390 . S
C1626 C1620 1.465 . S
C1626 C1625 1.396 1_554 S
C1626 C1627 1.399 . S
C1627 H1613 0.929 . S
C1627 C1626 1.399 . S
C1627 C1628 1.385 . S
C1628 H1614 0.931 . S
C1628 C1627 1.385 . S
C1628 C1629 1.389 1_554 S
C1629 C1628 1.389 1_556 S
C1629 C1630 1.387 . S
C1630 H1615 0.930 . S
C1630 C1625 1.390 . S
C1630 C1629 1.387 . S
H1631 C1643 0.930 . S
H1632 C1645 0.930 . S
H1633 C1646 0.930 1_455 S
H1634 C1650 0.959 1_455 S
H1635 C1650 0.959 . S
H1636 C1650 0.961 . S
H1637 C1651 0.960 . S
H1638 C1651 0.961 . S
H1639 C1651 0.959 . S
H1640 C1654 0.929 . S
H1641 C1655 0.931 . S
H1642 C1657 0.930 . S
C1643 H1631 0.930 . S
C1643 C1644 1.399 . S
C1643 C1648 1.399 . S
C1644 C1643 1.399 . S
C1644 C1645 1.376 . S
C1645 H1632 0.930 . S
C1645 C1644 1.376 . S
C1645 C1646 1.388 . S
C1646 H1633 0.930 1_655 S
C1646 C1645 1.388 . S
C1646 C1647 1.390 . S
C1647 C1646 1.390 . S
C1647 C1648 1.394 . S
C1647 C1653 1.465 1_655 S
C1648 C1643 1.399 . S
C1648 C1647 1.394 . S
C1648 C1649 1.516 . S
C1649 C1648 1.516 . S
C1649 C1650 1.502 . S
C1649 C1651 1.561 . S
C1649 C1652 1.526 1_655 S
C1650 H1634 0.959 1_655 S
C1650 H1635 0.959 . S
C1650 H1636 0.961 . S
C1650 C1649 1.502 . S
C1651 H1637 0.960 . S
C1651 H1638 0.961 . S
C1651 H1639 0.959 . S
C1651 C1649 1.561 . S
C1652 C1649 1.526 1_455 S
C1652 C1653 1.396 . S
C1652 C1657 1.390 . S
C1653 C1647 1.465 1_455 S
C1653 C1652 1.396 . S
C1653 C1654 1.399 . S
C1654 H1640 0.929 . S
C1654 C1653 1.399 . S
C1654 C1655 1.385 . S
C1655 H1641 0.931 . S
C1655 C1654 1.385 . S
C1655 C1656 1.389 . S
C1656 C1655 1.389 . S
C1656 C1657 1.387 . S
C1657 H1642 0.930 . S
C1657 C1652 1.390 . S
C1657 C1656 1.387 . S
H1658 C1670 0.930 . S
H1659 C1672 0.930 . S
H1660 C1673 0.930 . S
H1661 C1677 0.959 . S
H1662 C1677 0.959 . S
H1663 C1677 0.961 . S
H1664 C1678 0.960 . S
H1665 C1678 0.961 . S
H1666 C1678 0.959 . S
H1667 C1681 0.929 . S
H1668 C1682 0.931 . S
H1669 C1684 0.930 . S
C1670 H1658 0.930 . S
C1670 C1671 1.399 1_554 S
C1670 C1675 1.399 . S
C1671 C1670 1.399 1_556 S
C1671 C1672 1.376 . S
C1672 H1659 0.930 . S
C1672 C1671 1.376 . S
C1672 C1673 1.388 . S
C1673 H1660 0.930 . S
C1673 C1672 1.388 . S
C1673 C1674 1.390 . S
C1674 C1673 1.390 . S
C1674 C1675 1.394 1_556 S
C1674 C1680 1.465 1_455 S
C1675 C1670 1.399 . S
C1675 C1674 1.394 1_554 S
C1675 C1676 1.516 . S
C1676 C1675 1.516 . S
C1676 C1677 1.502 1_455 S
C1676 C1678 1.561 . S
C1676 C1679 1.526 1_455 S
C1677 H1661 0.959 . S
C1677 H1662 0.959 . S
C1677 H1663 0.961 . S
C1677 C1676 1.502 1_655 S
C1678 H1664 0.960 . S
C1678 H1665 0.961 . S
C1678 H1666 0.959 . S
C1678 C1676 1.561 . S
C1679 C1676 1.526 1_655 S
C1679 C1680 1.396 1_554 S
C1679 C1684 1.390 . S
C1680 C1674 1.465 1_655 S
C1680 C1679 1.396 1_556 S
C1680 C1681 1.399 . S
C1681 H1667 0.929 . S
C1681 C1680 1.399 . S
C1681 C1682 1.385 . S
C1682 H1668 0.931 . S
C1682 C1681 1.385 . S
C1682 C1683 1.389 1_556 S
C1683 C1682 1.389 1_554 S
C1683 C1684 1.387 . S
C1684 H1669 0.930 . S
C1684 C1679 1.390 . S
C1684 C1683 1.387 . S
H1685 C1697 0.930 . S
H1686 C1699 0.930 . S
H1687 C1700 0.930 . S
H1688 C1704 0.959 . S
H1689 C1704 0.959 . S
H1690 C1704 0.961 . S
H1691 C1705 0.960 . S
H1692 C1705 0.961 . S
H1693 C1705 0.959 . S
H1694 C1708 0.929 . S
H1695 C1709 0.931 . S
H1696 C1711 0.930 . S
C1697 H1685 0.930 . S
C1697 C1698 1.399 . S
C1697 C1702 1.399 . S
C1698 C1697 1.399 . S
C1698 C1699 1.376 . S
C1699 H1686 0.930 . S
C1699 C1698 1.376 . S
C1699 C1700 1.388 . S
C1700 H1687 0.930 . S
C1700 C1699 1.388 . S
C1700 C1701 1.390 . S
C1701 C1700 1.390 . S
C1701 C1702 1.394 . S
C1701 C1707 1.465 . S
C1702 C1697 1.399 . S
C1702 C1701 1.394 . S
C1702 C1703 1.516 . S
C1703 C1702 1.516 . S
C1703 C1704 1.502 . S
C1703 C1705 1.561 . S
C1703 C1706 1.526 . S
C1704 H1688 0.959 . S
C1704 H1689 0.959 . S
C1704 H1690 0.961 . S
C1704 C1703 1.502 . S
C1705 H1691 0.960 . S
C1705 H1692 0.961 . S
C1705 H1693 0.959 . S
C1705 C1703 1.561 . S
C1706 C1703 1.526 . S
C1706 C1707 1.396 . S
C1706 C1711 1.390 . S
C1707 C1701 1.465 . S
C1707 C1706 1.396 . S
C1707 C1708 1.399 . S
C1708 H1694 0.929 . S
C1708 C1707 1.399 . S
C1708 C1709 1.385 . S
C1709 H1695 0.931 . S
C1709 C1708 1.385 . S
C1709 C1710 1.389 . S
C1710 C1709 1.389 . S
C1710 C1711 1.387 . S
C1711 H1696 0.930 . S
C1711 C1706 1.390 . S
C1711 C1710 1.387 . S
H1712 C1724 0.930 . S
H1713 C1726 0.930 . S
H1714 C1727 0.930 . S
H1715 C1731 0.959 . S
H1716 C1731 0.959 . S
H1717 C1731 0.961 . S
H1718 C1732 0.960 . S
H1719 C1732 0.961 . S
H1720 C1732 0.959 . S
H1721 C1735 0.929 . S
H1722 C1736 0.931 . S
H1723 C1738 0.930 . S
C1724 H1712 0.930 . S
C1724 C1725 1.399 . S
C1724 C1729 1.399 . S
C1725 C1724 1.399 . S
C1725 C1726 1.376 . S
C1726 H1713 0.930 . S
C1726 C1725 1.376 . S
C1726 C1727 1.388 . S
C1727 H1714 0.930 . S
C1727 C1726 1.388 . S
C1727 C1728 1.390 . S
C1728 C1727 1.390 . S
C1728 C1729 1.394 . S
C1728 C1734 1.465 . S
C1729 C1724 1.399 . S
C1729 C1728 1.394 . S
C1729 C1730 1.516 . S
C1730 C1729 1.516 . S
C1730 C1731 1.502 . S
C1730 C1732 1.561 . S
C1730 C1733 1.526 . S
C1731 H1715 0.959 . S
C1731 H1716 0.959 . S
C1731 H1717 0.961 . S
C1731 C1730 1.502 . S
C1732 H1718 0.960 . S
C1732 H1719 0.961 . S
C1732 H1720 0.959 . S
C1732 C1730 1.561 . S
C1733 C1730 1.526 . S
C1733 C1734 1.396 . S
C1733 C1738 1.390 . S
C1734 C1728 1.465 . S
C1734 C1733 1.396 . S
C1734 C1735 1.399 . S
C1735 H1721 0.929 . S
C1735 C1734 1.399 . S
C1735 C1736 1.385 . S
C1736 H1722 0.931 . S
C1736 C1735 1.385 . S
C1736 C1737 1.389 . S
C1737 C1736 1.389 . S
C1737 C1738 1.387 . S
C1738 H1723 0.930 . S
C1738 C1733 1.390 . S
C1738 C1737 1.387 . S
H1739 C1751 0.930 . S
H1740 C1753 0.930 . S
H1741 C1754 0.930 . S
H1742 C1758 0.959 . S
H1743 C1758 0.959 . S
H1744 C1758 0.961 . S
H1745 C1759 0.960 . S
H1746 C1759 0.961 . S
H1747 C1759 0.959 . S
H1748 C1762 0.929 . S
H1749 C1763 0.931 . S
H1750 C1765 0.930 . S
C1751 H1739 0.930 . S
C1751 C1752 1.399 . S
C1751 C1756 1.399 . S
C1752 C1751 1.399 . S
C1752 C1753 1.376 . S
C1753 H1740 0.930 . S
C1753 C1752 1.376 . S
C1753 C1754 1.388 . S
C1754 H1741 0.930 . S
C1754 C1753 1.388 . S
C1754 C1755 1.390 . S
C1755 C1754 1.390 . S
C1755 C1756 1.394 . S
C1755 C1761 1.465 . S
C1756 C1751 1.399 . S
C1756 C1755 1.394 . S
C1756 C1757 1.516 . S
C1757 C1756 1.516 . S
C1757 C1758 1.502 . S
C1757 C1759 1.561 . S
C1757 C1760 1.526 . S
C1758 H1742 0.959 . S
C1758 H1743 0.959 . S
C1758 H1744 0.961 . S
C1758 C1757 1.502 . S
C1759 H1745 0.960 . S
C1759 H1746 0.961 . S
C1759 H1747 0.959 . S
C1759 C1757 1.561 . S
C1760 C1757 1.526 . S
C1760 C1761 1.396 . S
C1760 C1765 1.390 . S
C1761 C1755 1.465 . S
C1761 C1760 1.396 . S
C1761 C1762 1.399 . S
C1762 H1748 0.929 . S
C1762 C1761 1.399 . S
C1762 C1763 1.385 . S
C1763 H1749 0.931 . S
C1763 C1762 1.385 . S
C1763 C1764 1.389 . S
C1764 C1763 1.389 . S
C1764 C1765 1.387 . S
C1765 H1750 0.930 . S
C1765 C1760 1.390 . S
C1765 C1764 1.387 . S
H1766 C1778 0.930 . S
H1767 C1780 0.930 . S
H1768 C1781 0.930 . S
H1769 C1785 0.959 . S
H1770 C1785 0.959 . S
H1771 C1785 0.961 . S
H1772 C1786 0.960 . S
H1773 C1786 0.961 . S
H1774 C1786 0.959 . S
H1775 C1789 0.929 . S
H1776 C1790 0.931 . S
H1777 C1792 0.930 . S
C1778 H1766 0.930 . S
C1778 C1779 1.399 . S
C1778 C1783 1.399 . S
C1779 C1778 1.399 . S
C1779 C1780 1.376 . S
C1780 H1767 0.930 . S
C1780 C1779 1.376 . S
C1780 C1781 1.388 . S
C1781 H1768 0.930 . S
C1781 C1780 1.388 . S
C1781 C1782 1.390 . S
C1782 C1781 1.390 . S
C1782 C1783 1.394 . S
C1782 C1788 1.465 . S
C1783 C1778 1.399 . S
C1783 C1782 1.394 . S
C1783 C1784 1.516 . S
C1784 C1783 1.516 . S
C1784 C1785 1.502 . S
C1784 C1786 1.561 . S
C1784 C1787 1.526 . S
C1785 H1769 0.959 . S
C1785 H1770 0.959 . S
C1785 H1771 0.961 . S
C1785 C1784 1.502 . S
C1786 H1772 0.960 . S
C1786 H1773 0.961 . S
C1786 H1774 0.959 . S
C1786 C1784 1.561 . S
C1787 C1784 1.526 . S
C1787 C1788 1.396 . S
C1787 C1792 1.390 . S
C1788 C1782 1.465 . S
C1788 C1787 1.396 . S
C1788 C1789 1.399 . S
C1789 H1775 0.929 . S
C1789 C1788 1.399 . S
C1789 C1790 1.385 . S
C1790 H1776 0.931 . S
C1790 C1789 1.385 . S
C1790 C1791 1.389 . S
C1791 C1790 1.389 . S
C1791 C1792 1.387 . S
C1792 H1777 0.930 . S
C1792 C1787 1.390 . S
C1792 C1791 1.387 . S
H1793 C1805 0.930 . S
H1794 C1807 0.930 . S
H1795 C1808 0.930 . S
H1796 C1812 0.959 . S
H1797 C1812 0.959 . S
H1798 C1812 0.961 . S
H1799 C1813 0.960 . S
H1800 C1813 0.961 . S
H1801 C1813 0.959 . S
H1802 C1816 0.929 . S
H1803 C1817 0.931 . S
H1804 C1819 0.930 . S
C1805 H1793 0.930 . S
C1805 C1806 1.399 . S
C1805 C1810 1.399 . S
C1806 C1805 1.399 . S
C1806 C1807 1.376 . S
C1807 H1794 0.930 . S
C1807 C1806 1.376 . S
C1807 C1808 1.388 . S
C1808 H1795 0.930 . S
C1808 C1807 1.388 . S
C1808 C1809 1.390 . S
C1809 C1808 1.390 . S
C1809 C1810 1.394 . S
C1809 C1815 1.465 . S
C1810 C1805 1.399 . S
C1810 C1809 1.394 . S
C1810 C1811 1.516 . S
C1811 C1810 1.516 . S
C1811 C1812 1.502 . S
C1811 C1813 1.561 . S
C1811 C1814 1.526 . S
C1812 H1796 0.959 . S
C1812 H1797 0.959 . S
C1812 H1798 0.961 . S
C1812 C1811 1.502 . S
C1813 H1799 0.960 . S
C1813 H1800 0.961 . S
C1813 H1801 0.959 . S
C1813 C1811 1.561 . S
C1814 C1811 1.526 . S
C1814 C1815 1.396 . S
C1814 C1819 1.390 . S
C1815 C1809 1.465 . S
C1815 C1814 1.396 . S
C1815 C1816 1.399 . S
C1816 H1802 0.929 . S
C1816 C1815 1.399 . S
C1816 C1817 1.385 . S
C1817 H1803 0.931 . S
C1817 C1816 1.385 . S
C1817 C1818 1.389 . S
C1818 C1817 1.389 . S
C1818 C1819 1.387 . S
C1819 H1804 0.930 . S
C1819 C1814 1.390 . S
C1819 C1818 1.387 . S
H1820 C1832 0.930 . S
H1821 C1834 0.930 . S
H1822 C1835 0.930 . S
H1823 C1839 0.959 . S
H1824 C1839 0.959 . S
H1825 C1839 0.961 . S
H1826 C1840 0.960 . S
H1827 C1840 0.961 . S
H1828 C1840 0.959 . S
H1829 C1843 0.929 . S
H1830 C1844 0.931 . S
H1831 C1846 0.930 . S
C1832 H1820 0.930 . S
C1832 C1833 1.399 . S
C1832 C1837 1.399 . S
C1833 C1832 1.399 . S
C1833 C1834 1.376 . S
C1834 H1821 0.930 . S
C1834 C1833 1.376 . S
C1834 C1835 1.388 . S
C1835 H1822 0.930 . S
C1835 C1834 1.388 . S
C1835 C1836 1.390 . S
C1836 C1835 1.390 . S
C1836 C1837 1.394 . S
C1836 C1842 1.465 . S
C1837 C1832 1.399 . S
C1837 C1836 1.394 . S
C1837 C1838 1.516 . S
C1838 C1837 1.516 . S
C1838 C1839 1.502 . S
C1838 C1840 1.561 . S
C1838 C1841 1.526 . S
C1839 H1823 0.959 . S
C1839 H1824 0.959 . S
C1839 H1825 0.961 . S
C1839 C1838 1.502 . S
C1840 H1826 0.960 . S
C1840 H1827 0.961 . S
C1840 H1828 0.959 . S
C1840 C1838 1.561 . S
C1841 C1838 1.526 . S
C1841 C1842 1.396 . S
C1841 C1846 1.390 . S
C1842 C1836 1.465 . S
C1842 C1841 1.396 . S
C1842 C1843 1.399 . S
C1843 H1829 0.929 . S
C1843 C1842 1.399 . S
C1843 C1844 1.385 . S
C1844 H1830 0.931 . S
C1844 C1843 1.385 . S
C1844 C1845 1.389 . S
C1845 C1844 1.389 . S
C1845 C1846 1.387 . S
C1846 H1831 0.930 . S
C1846 C1841 1.390 . S
C1846 C1845 1.387 . S
H1847 C1859 0.930 . S
H1848 C1861 0.930 . S
H1849 C1862 0.930 . S
H1850 C1866 0.959 . S
H1851 C1866 0.959 . S
H1852 C1866 0.961 . S
H1853 C1867 0.960 . S
H1854 C1867 0.961 . S
H1855 C1867 0.959 . S
H1856 C1870 0.929 . S
H1857 C1871 0.931 . S
H1858 C1873 0.930 . S
C1859 H1847 0.930 . S
C1859 C1860 1.399 . S
C1859 C1864 1.399 . S
C1860 C1859 1.399 . S
C1860 C1861 1.376 . S
C1861 H1848 0.930 . S
C1861 C1860 1.376 . S
C1861 C1862 1.388 . S
C1862 H1849 0.930 . S
C1862 C1861 1.388 . S
C1862 C1863 1.390 . S
C1863 C1862 1.390 . S
C1863 C1864 1.394 . S
C1863 C1869 1.465 . S
C1864 C1859 1.399 . S
C1864 C1863 1.394 . S
C1864 C1865 1.516 . S
C1865 C1864 1.516 . S
C1865 C1866 1.502 . S
C1865 C1867 1.561 . S
C1865 C1868 1.526 . S
C1866 H1850 0.959 . S
C1866 H1851 0.959 . S
C1866 H1852 0.961 . S
C1866 C1865 1.502 . S
C1867 H1853 0.960 . S
C1867 H1854 0.961 . S
C1867 H1855 0.959 . S
C1867 C1865 1.561 . S
C1868 C1865 1.526 . S
C1868 C1869 1.396 . S
C1868 C1873 1.390 . S
C1869 C1863 1.465 . S
C1869 C1868 1.396 . S
C1869 C1870 1.399 . S
C1870 H1856 0.929 . S
C1870 C1869 1.399 . S
C1870 C1871 1.385 . S
C1871 H1857 0.931 . S
C1871 C1870 1.385 . S
C1871 C1872 1.389 . S
C1872 C1871 1.389 . S
C1872 C1873 1.387 . S
C1873 H1858 0.930 . S
C1873 C1868 1.390 . S
C1873 C1872 1.387 . S
H1874 C1886 0.930 . S
H1875 C1888 0.930 . S
H1876 C1889 0.930 . S
H1877 C1893 0.959 . S
H1878 C1893 0.959 . S
H1879 C1893 0.961 . S
H1880 C1894 0.960 . S
H1881 C1894 0.961 . S
H1882 C1894 0.959 . S
H1883 C1897 0.929 . S
H1884 C1898 0.931 . S
H1885 C1900 0.930 . S
C1886 H1874 0.930 . S
C1886 C1887 1.399 . S
C1886 C1891 1.399 . S
C1887 C1886 1.399 . S
C1887 C1888 1.376 . S
C1888 H1875 0.930 . S
C1888 C1887 1.376 . S
C1888 C1889 1.388 . S
C1889 H1876 0.930 . S
C1889 C1888 1.388 . S
C1889 C1890 1.390 . S
C1890 C1889 1.390 . S
C1890 C1891 1.394 . S
C1890 C1896 1.465 . S
C1891 C1886 1.399 . S
C1891 C1890 1.394 . S
C1891 C1892 1.516 . S
C1892 C1891 1.516 . S
C1892 C1893 1.502 . S
C1892 C1894 1.561 . S
C1892 C1895 1.526 . S
C1893 H1877 0.959 . S
C1893 H1878 0.959 . S
C1893 H1879 0.961 . S
C1893 C1892 1.502 . S
C1894 H1880 0.960 . S
C1894 H1881 0.961 . S
C1894 H1882 0.959 . S
C1894 C1892 1.561 . S
C1895 C1892 1.526 . S
C1895 C1896 1.396 . S
C1895 C1900 1.390 . S
C1896 C1890 1.465 . S
C1896 C1895 1.396 . S
C1896 C1897 1.399 . S
C1897 H1883 0.929 . S
C1897 C1896 1.399 . S
C1897 C1898 1.385 . S
C1898 H1884 0.931 . S
C1898 C1897 1.385 . S
C1898 C1899 1.389 . S
C1899 C1898 1.389 . S
C1899 C1900 1.387 . S
C1900 H1885 0.930 . S
C1900 C1895 1.390 . S
C1900 C1899 1.387 . S
H1901 C1913 0.930 . S
H1902 C1915 0.930 . S
H1903 C1916 0.930 . S
H1904 C1920 0.959 . S
H1905 C1920 0.959 . S
H1906 C1920 0.961 . S
H1907 C1921 0.960 . S
H1908 C1921 0.961 . S
H1909 C1921 0.959 . S
H1910 C1924 0.929 . S
H1911 C1925 0.931 . S
H1912 C1927 0.930 . S
C1913 H1901 0.930 . S
C1913 C1914 1.399 . S
C1913 C1918 1.399 . S
C1914 C1913 1.399 . S
C1914 C1915 1.376 . S
C1915 H1902 0.930 . S
C1915 C1914 1.376 . S
C1915 C1916 1.388 . S
C1916 H1903 0.930 . S
C1916 C1915 1.388 . S
C1916 C1917 1.390 . S
C1917 C1916 1.390 . S
C1917 C1918 1.394 . S
C1917 C1923 1.465 . S
C1918 C1913 1.399 . S
C1918 C1917 1.394 . S
C1918 C1919 1.516 . S
C1919 C1918 1.516 . S
C1919 C1920 1.502 . S
C1919 C1921 1.561 . S
C1919 C1922 1.526 . S
C1920 H1904 0.959 . S
C1920 H1905 0.959 . S
C1920 H1906 0.961 . S
C1920 C1919 1.502 . S
C1921 H1907 0.960 . S
C1921 H1908 0.961 . S
C1921 H1909 0.959 . S
C1921 C1919 1.561 . S
C1922 C1919 1.526 . S
C1922 C1923 1.396 . S
C1922 C1927 1.390 . S
C1923 C1917 1.465 . S
C1923 C1922 1.396 . S
C1923 C1924 1.399 . S
C1924 H1910 0.929 . S
C1924 C1923 1.399 . S
C1924 C1925 1.385 . S
C1925 H1911 0.931 . S
C1925 C1924 1.385 . S
C1925 C1926 1.389 . S
C1926 C1925 1.389 . S
C1926 C1927 1.387 . S
C1927 H1912 0.930 . S
C1927 C1922 1.390 . S
C1927 C1926 1.387 . S
H1928 C1940 0.930 . S
H1929 C1942 0.930 . S
H1930 C1943 0.930 . S
H1931 C1947 0.959 . S
H1932 C1947 0.959 . S
H1933 C1947 0.961 . S
H1934 C1948 0.960 . S
H1935 C1948 0.961 . S
H1936 C1948 0.959 . S
H1937 C1951 0.929 . S
H1938 C1952 0.931 . S
H1939 C1954 0.930 . S
C1940 H1928 0.930 . S
C1940 C1941 1.399 . S
C1940 C1945 1.399 . S
C1941 C1940 1.399 . S
C1941 C1942 1.376 . S
C1942 H1929 0.930 . S
C1942 C1941 1.376 . S
C1942 C1943 1.388 . S
C1943 H1930 0.930 . S
C1943 C1942 1.388 . S
C1943 C1944 1.390 . S
C1944 C1943 1.390 . S
C1944 C1945 1.394 . S
C1944 C1950 1.465 . S
C1945 C1940 1.399 . S
C1945 C1944 1.394 . S
C1945 C1946 1.516 . S
C1946 C1945 1.516 . S
C1946 C1947 1.502 . S
C1946 C1948 1.561 . S
C1946 C1949 1.526 . S
C1947 H1931 0.959 . S
C1947 H1932 0.959 . S
C1947 H1933 0.961 . S
C1947 C1946 1.502 . S
C1948 H1934 0.960 . S
C1948 H1935 0.961 . S
C1948 H1936 0.959 . S
C1948 C1946 1.561 . S
C1949 C1946 1.526 . S
C1949 C1950 1.396 . S
C1949 C1954 1.390 . S
C1950 C1944 1.465 . S
C1950 C1949 1.396 . S
C1950 C1951 1.399 . S
C1951 H1937 0.929 . S
C1951 C1950 1.399 . S
C1951 C1952 1.385 . S
C1952 H1938 0.931 . S
C1952 C1951 1.385 . S
C1952 C1953 1.389 . S
C1953 C1952 1.389 . S
C1953 C1954 1.387 . S
C1954 H1939 0.930 . S
C1954 C1949 1.390 . S
C1954 C1953 1.387 . S
H1955 C1967 0.930 . S
H1956 C1969 0.930 . S
H1957 C1970 0.930 . S
H1958 C1974 0.959 . S
H1959 C1974 0.959 . S
H1960 C1974 0.961 . S
H1961 C1975 0.960 . S
H1962 C1975 0.961 . S
H1963 C1975 0.959 . S
H1964 C1978 0.929 . S
H1965 C1979 0.931 . S
H1966 C1981 0.930 . S
C1967 H1955 0.930 . S
C1967 C1968 1.399 . S
C1967 C1972 1.399 . S
C1968 C1967 1.399 . S
C1968 C1969 1.376 . S
C1969 H1956 0.930 . S
C1969 C1968 1.376 . S
C1969 C1970 1.388 . S
C1970 H1957 0.930 . S
C1970 C1969 1.388 . S
C1970 C1971 1.390 . S
C1971 C1970 1.390 . S
C1971 C1972 1.394 . S
C1971 C1977 1.465 . S
C1972 C1967 1.399 . S
C1972 C1971 1.394 . S
C1972 C1973 1.516 . S
C1973 C1972 1.516 . S
C1973 C1974 1.502 . S
C1973 C1975 1.561 . S
C1973 C1976 1.526 . S
C1974 H1958 0.959 . S
C1974 H1959 0.959 . S
C1974 H1960 0.961 . S
C1974 C1973 1.502 . S
C1975 H1961 0.960 . S
C1975 H1962 0.961 . S
C1975 H1963 0.959 . S
C1975 C1973 1.561 . S
C1976 C1973 1.526 . S
C1976 C1977 1.396 . S
C1976 C1981 1.390 . S
C1977 C1971 1.465 . S
C1977 C1976 1.396 . S
C1977 C1978 1.399 . S
C1978 H1964 0.929 . S
C1978 C1977 1.399 . S
C1978 C1979 1.385 . S
C1979 H1965 0.931 . S
C1979 C1978 1.385 . S
C1979 C1980 1.389 . S
C1980 C1979 1.389 . S
C1980 C1981 1.387 . S
C1981 H1966 0.930 . S
C1981 C1976 1.390 . S
C1981 C1980 1.387 . S
H1982 C1994 0.930 . S
H1983 C1996 0.930 . S
H1984 C1997 0.930 . S
H1985 C2001 0.959 . S
H1986 C2001 0.959 . S
H1987 C2001 0.961 . S
H1988 C2002 0.960 . S
H1989 C2002 0.961 . S
H1990 C2002 0.959 . S
H1991 C2005 0.929 . S
H1992 C2006 0.931 . S
H1993 C2008 0.930 . S
C1994 H1982 0.930 . S
C1994 C1995 1.399 . S
C1994 C1999 1.399 . S
C1995 C1994 1.399 . S
C1995 C1996 1.376 . S
C1996 H1983 0.930 . S
C1996 C1995 1.376 . S
C1996 C1997 1.388 . S
C1997 H1984 0.930 . S
C1997 C1996 1.388 . S
C1997 C1998 1.390 . S
C1998 C1997 1.390 . S
C1998 C1999 1.394 . S
C1998 C2004 1.465 . S
C1999 C1994 1.399 . S
C1999 C1998 1.394 . S
C1999 C2000 1.516 . S
C2000 C1999 1.516 . S
C2000 C2001 1.502 . S
C2000 C2002 1.561 . S
C2000 C2003 1.526 . S
C2001 H1985 0.959 . S
C2001 H1986 0.959 . S
C2001 H1987 0.961 . S
C2001 C2000 1.502 . S
C2002 H1988 0.960 . S
C2002 H1989 0.961 . S
C2002 H1990 0.959 . S
C2002 C2000 1.561 . S
C2003 C2000 1.526 . S
C2003 C2004 1.396 . S
C2003 C2008 1.390 . S
C2004 C1998 1.465 . S
C2004 C2003 1.396 . S
C2004 C2005 1.399 . S
C2005 H1991 0.929 . S
C2005 C2004 1.399 . S
C2005 C2006 1.385 . S
C2006 H1992 0.931 . S
C2006 C2005 1.385 . S
C2006 C2007 1.389 . S
C2007 C2006 1.389 . S
C2007 C2008 1.387 . S
C2008 H1993 0.930 . S
C2008 C2003 1.390 . S
C2008 C2007 1.387 . S
H2009 C2021 0.930 . S
H2010 C2023 0.930 . S
H2011 C2024 0.930 . S
H2012 C2028 0.959 . S
H2013 C2028 0.959 . S
H2014 C2028 0.961 . S
H2015 C2029 0.960 . S
H2016 C2029 0.961 . S
H2017 C2029 0.959 . S
H2018 C2032 0.929 . S
H2019 C2033 0.931 . S
H2020 C2035 0.930 . S
C2021 H2009 0.930 . S
C2021 C2022 1.399 . S
C2021 C2026 1.399 . S
C2022 C2021 1.399 . S
C2022 C2023 1.376 . S
C2023 H2010 0.930 . S
C2023 C2022 1.376 . S
C2023 C2024 1.388 . S
C2024 H2011 0.930 . S
C2024 C2023 1.388 . S
C2024 C2025 1.390 . S
C2025 C2024 1.390 . S
C2025 C2026 1.394 . S
C2025 C2031 1.465 . S
C2026 C2021 1.399 . S
C2026 C2025 1.394 . S
C2026 C2027 1.516 . S
C2027 C2026 1.516 . S
C2027 C2028 1.502 . S
C2027 C2029 1.561 . S
C2027 C2030 1.526 . S
C2028 H2012 0.959 . S
C2028 H2013 0.959 . S
C2028 H2014 0.961 . S
C2028 C2027 1.502 . S
C2029 H2015 0.960 . S
C2029 H2016 0.961 . S
C2029 H2017 0.959 . S
C2029 C2027 1.561 . S
C2030 C2027 1.526 . S
C2030 C2031 1.396 . S
C2030 C2035 1.390 . S
C2031 C2025 1.465 . S
C2031 C2030 1.396 . S
C2031 C2032 1.399 . S
C2032 H2018 0.929 . S
C2032 C2031 1.399 . S
C2032 C2033 1.385 . S
C2033 H2019 0.931 . S
C2033 C2032 1.385 . S
C2033 C2034 1.389 . S
C2034 C2033 1.389 . S
C2034 C2035 1.387 . S
C2035 H2020 0.930 . S
C2035 C2030 1.390 . S
C2035 C2034 1.387 . S
H2036 C2048 0.930 . S
H2037 C2050 0.930 . S
H2038 C2051 0.930 . S
H2039 C2055 0.959 . S
H2040 C2055 0.959 . S
H2041 C2055 0.961 . S
H2042 C2056 0.960 . S
H2043 C2056 0.961 . S
H2044 C2056 0.959 . S
H2045 C2059 0.929 . S
H2046 C2060 0.931 . S
H2047 C2062 0.930 . S
C2048 H2036 0.930 . S
C2048 C2049 1.399 . S
C2048 C2053 1.399 . S
C2049 C2048 1.399 . S
C2049 C2050 1.376 . S
C2050 H2037 0.930 . S
C2050 C2049 1.376 . S
C2050 C2051 1.388 . S
C2051 H2038 0.930 . S
C2051 C2050 1.388 . S
C2051 C2052 1.390 . S
C2052 C2051 1.390 . S
C2052 C2053 1.394 . S
C2052 C2058 1.465 . S
C2053 C2048 1.399 . S
C2053 C2052 1.394 . S
C2053 C2054 1.516 . S
C2054 C2053 1.516 . S
C2054 C2055 1.502 . S
C2054 C2056 1.561 . S
C2054 C2057 1.526 . S
C2055 H2039 0.959 . S
C2055 H2040 0.959 . S
C2055 H2041 0.961 . S
C2055 C2054 1.502 . S
C2056 H2042 0.960 . S
C2056 H2043 0.961 . S
C2056 H2044 0.959 . S
C2056 C2054 1.561 . S
C2057 C2054 1.526 . S
C2057 C2058 1.396 . S
C2057 C2062 1.390 . S
C2058 C2052 1.465 . S
C2058 C2057 1.396 . S
C2058 C2059 1.399 . S
C2059 H2045 0.929 . S
C2059 C2058 1.399 . S
C2059 C2060 1.385 . S
C2060 H2046 0.931 . S
C2060 C2059 1.385 . S
C2060 C2061 1.389 . S
C2061 C2060 1.389 . S
C2061 C2062 1.387 . S
C2062 H2047 0.930 . S
C2062 C2057 1.390 . S
C2062 C2061 1.387 . S
H2063 C2075 0.930 . S
H2064 C2077 0.930 . S
H2065 C2078 0.930 . S
H2066 C2082 0.959 . S
H2067 C2082 0.959 . S
H2068 C2082 0.961 . S
H2069 C2083 0.960 . S
H2070 C2083 0.961 . S
H2071 C2083 0.959 . S
H2072 C2086 0.929 . S
H2073 C2087 0.931 . S
H2074 C2089 0.930 . S
C2075 H2063 0.930 . S
C2075 C2076 1.399 . S
C2075 C2080 1.399 . S
C2076 C2075 1.399 . S
C2076 C2077 1.376 . S
C2077 H2064 0.930 . S
C2077 C2076 1.376 . S
C2077 C2078 1.388 . S
C2078 H2065 0.930 . S
C2078 C2077 1.388 . S
C2078 C2079 1.390 . S
C2079 C2078 1.390 . S
C2079 C2080 1.394 . S
C2079 C2085 1.465 . S
C2080 C2075 1.399 . S
C2080 C2079 1.394 . S
C2080 C2081 1.516 . S
C2081 C2080 1.516 . S
C2081 C2082 1.502 . S
C2081 C2083 1.561 . S
C2081 C2084 1.526 . S
C2082 H2066 0.959 . S
C2082 H2067 0.959 . S
C2082 H2068 0.961 . S
C2082 C2081 1.502 . S
C2083 H2069 0.960 . S
C2083 H2070 0.961 . S
C2083 H2071 0.959 . S
C2083 C2081 1.561 . S
C2084 C2081 1.526 . S
C2084 C2085 1.396 . S
C2084 C2089 1.390 . S
C2085 C2079 1.465 . S
C2085 C2084 1.396 . S
C2085 C2086 1.399 . S
C2086 H2072 0.929 . S
C2086 C2085 1.399 . S
C2086 C2087 1.385 . S
C2087 H2073 0.931 . S
C2087 C2086 1.385 . S
C2087 C2088 1.389 . S
C2088 C2087 1.389 . S
C2088 C2089 1.387 . S
C2089 H2074 0.930 . S
C2089 C2084 1.390 . S
C2089 C2088 1.387 . S
H2090 C2102 0.930 . S
H2091 C2104 0.930 . S
H2092 C2105 0.930 . S
H2093 C2109 0.959 . S
H2094 C2109 0.959 . S
H2095 C2109 0.961 . S
H2096 C2110 0.960 . S
H2097 C2110 0.961 . S
H2098 C2110 0.959 . S
H2099 C2113 0.929 . S
H2100 C2114 0.931 . S
H2101 C2116 0.930 . S
C2102 H2090 0.930 . S
C2102 C2103 1.399 . S
C2102 C2107 1.399 . S
C2103 C2102 1.399 . S
C2103 C2104 1.376 . S
C2104 H2091 0.930 . S
C2104 C2103 1.376 . S
C2104 C2105 1.388 . S
C2105 H2092 0.930 . S
C2105 C2104 1.388 . S
C2105 C2106 1.390 . S
C2106 C2105 1.390 . S
C2106 C2107 1.394 . S
C2106 C2112 1.465 . S
C2107 C2102 1.399 . S
C2107 C2106 1.394 . S
C2107 C2108 1.516 . S
C2108 C2107 1.516 . S
C2108 C2109 1.502 . S
C2108 C2110 1.561 . S
C2108 C2111 1.526 . S
C2109 H2093 0.959 . S
C2109 H2094 0.959 . S
C2109 H2095 0.961 . S
C2109 C2108 1.502 . S
C2110 H2096 0.960 . S
C2110 H2097 0.961 . S
C2110 H2098 0.959 . S
C2110 C2108 1.561 . S
C2111 C2108 1.526 . S
C2111 C2112 1.396 . S
C2111 C2116 1.390 . S
C2112 C2106 1.465 . S
C2112 C2111 1.396 . S
C2112 C2113 1.399 . S
C2113 H2099 0.929 . S
C2113 C2112 1.399 . S
C2113 C2114 1.385 . S
C2114 H2100 0.931 . S
C2114 C2113 1.385 . S
C2114 C2115 1.389 . S
C2115 C2114 1.389 . S
C2115 C2116 1.387 . S
C2116 H2101 0.930 . S
C2116 C2111 1.390 . S
C2116 C2115 1.387 . S
H2117 C2129 0.930 . S
H2118 C2131 0.930 . S
H2119 C2132 0.930 . S
H2120 C2136 0.959 . S
H2121 C2136 0.959 . S
H2122 C2136 0.961 . S
H2123 C2137 0.960 . S
H2124 C2137 0.961 . S
H2125 C2137 0.959 . S
H2126 C2140 0.929 . S
H2127 C2141 0.931 . S
H2128 C2143 0.930 . S
C2129 H2117 0.930 . S
C2129 C2130 1.399 . S
C2129 C2134 1.399 . S
C2130 C2129 1.399 . S
C2130 C2131 1.376 . S
C2131 H2118 0.930 . S
C2131 C2130 1.376 . S
C2131 C2132 1.388 . S
C2132 H2119 0.930 . S
C2132 C2131 1.388 . S
C2132 C2133 1.390 . S
C2133 C2132 1.390 . S
C2133 C2134 1.394 . S
C2133 C2139 1.465 . S
C2134 C2129 1.399 . S
C2134 C2133 1.394 . S
C2134 C2135 1.516 . S
C2135 C2134 1.516 . S
C2135 C2136 1.502 . S
C2135 C2137 1.561 . S
C2135 C2138 1.526 . S
C2136 H2120 0.959 . S
C2136 H2121 0.959 . S
C2136 H2122 0.961 . S
C2136 C2135 1.502 . S
C2137 H2123 0.960 . S
C2137 H2124 0.961 . S
C2137 H2125 0.959 . S
C2137 C2135 1.561 . S
C2138 C2135 1.526 . S
C2138 C2139 1.396 . S
C2138 C2143 1.390 . S
C2139 C2133 1.465 . S
C2139 C2138 1.396 . S
C2139 C2140 1.399 . S
C2140 H2126 0.929 . S
C2140 C2139 1.399 . S
C2140 C2141 1.385 . S
C2141 H2127 0.931 . S
C2141 C2140 1.385 . S
C2141 C2142 1.389 . S
C2142 C2141 1.389 . S
C2142 C2143 1.387 . S
C2143 H2128 0.930 . S
C2143 C2138 1.390 . S
C2143 C2142 1.387 . S
C429 C122 1.047 . S
C441 C5 1.110 . S
C456 C16 1.099 . S
C468 C343 1.022 . S
C483 C146 1.051 . S
C495 C29 1.091 . S
C510 C317 1.073 . S
C522 C44 1.089 . S
C537 C57 1.096 . S
C549 C198 1.030 . S
C564 C369 1.073 . S
C576 C68 1.089 . S
C591 C81 1.099 . S
C603 C174 1.024 . S
C618 C395 1.119 . S
C630 C96 1.095 1_455 S
C645 C18 1.084 . S
C657 C109 1.091 . S
C672 C120 1.129 . S
C684 C237 1.021 . S
C699 C42 1.056 . S
C711 C135 1.096 . S
C726 C148 1.107 . S
C738 C213 1.059 . S
C753 C159 1.089 . S
C765 C94 1.102 . S
C780 C265 1.118 . S
C792 C172 1.090 . S
C807 C187 1.110 . S
C819 C70 1.027 . S
C834 C289 1.108 . S
C846 C200 1.097 1_655 S
C861 C330 1.096 . S
C873 C211 1.107 . S
C888 C133 1.103 . S
C900 C226 1.089 . S
C915 C239 1.091 . S
C927 C354 1.053 . S
C942 C107 1.043 . S
C954 C252 1.092 . S
C969 C408 1.114 . S
C981 C263 1.092 . S
C996 C276 1.090 . S
C1008 C161 1.051 . S
C1023 C380 1.022 . S
C1035 C291 1.104 . S
C1050 C185 1.066 . S
C1062 C302 1.089 . S
C1077 C224 1.094 . S
C1089 C315 1.090 . S
C1104 C328 1.088 . S
C1116 C31 1.113 . S
C1131 C341 1.091 . S
C1143 C250 1.119 . S
C1158 C356 1.095 . S
C1170 C3 1.112 . S
C1185 C304 1.035 . S
C1197 C367 1.110 . S
C1212 C382 1.108 1_455 S
C1224 C55 1.054 . S
C1239 C393 1.099 . S
C1251 C278 1.041 . S
C1266 C406 1.088 . S
C1278 C83 1.109 . S
C1293 C316 1.534 . S
C1305 C10 1.505 . S
C1320 C17 1.520 . S
C1332 C121 1.539 . S
C1347 C30 1.546 . S
C1359 C342 1.512 . S
C1374 C49 1.508 . S
C1386 C153 1.532 . S
C1401 C62 1.544 . S
C1413 C368 1.513 . S
C1428 C69 1.557 . S
C1440 C173 1.496 . S
C1455 C394 1.537 . S
C1467 C82 1.503 . S
C1482 C101 1.558 . S
C1494 C205 1.494 . S
C1509 C114 1.521 . S
C1521 C212 1.537 . S
C1536 C140 1.490 . S
C1548 C244 1.554 . S
C1563 C264 1.497 . S
C1575 C160 1.543 . S
C1590 C296 1.528 . S
C1602 C192 1.531 . S
C1617 C231 1.555 . S
C1629 C329 1.500 . S
C1644 C361 1.519 . S
C1656 C257 1.540 . S
C1671 C277 1.542 . S
C1683 C387 1.518 . S
C1698 C407 1.512 . S
C1710 C303 1.528 . S
C1725 C283 1.992 . S
C1737 C4 1.987 . S
C1752 C290 1.992 . S
C1764 C23 1.982 . S
C1779 C36 1.982 . S
C1791 C309 1.993 . S
C1806 C270 1.992 . S
C1818 C43 1.982 . S
C1833 C251 1.983 . S
C1845 C56 1.985 . S
C1860 C218 1.992 . S
C1872 C75 1.983 . S
C1887 C88 1.982 . S
C1899 C225 1.993 . S
C1914 C238 1.990 . S
C1926 C95 1.981 . S
C1941 C381 1.986 . S
C1953 C108 1.981 . S
C1968 C400 1.981 . S
C1980 C127 1.986 . S
C1995 C413 1.984 . S
C2007 C134 1.992 . S
C2022 C147 1.991 . S
C2034 C374 1.984 . S
C2049 C355 1.983 . S
C2061 C166 1.991 . S
C2076 C322 1.981 . S
C2088 C179 1.984 . S
C2103 C335 1.993 . S
C2115 C186 1.988 . S
C2130 C348 1.981 . S
C2142 C199 1.986 . S
