# Generated by pormake.
# Topology snz, (6)-cn, num edge types: 1
# Building blocks:
#     Node 0, Type 0, BuildingBlock: CUWYAW_clean_sbu_0, # of connection points: 6
#     Node 1, Type 0, BuildingBlock: CUWYAW_clean_sbu_0, # of connection points: 6
#     Node 2, Type 0, BuildingBlock: CUWYAW_clean_sbu_0, # of connection points: 6
#     Node 3, Type 0, BuildingBlock: CUWYAW_clean_sbu_0, # of connection points: 6
#     Node 4, Type 0, BuildingBlock: CUWYAW_clean_sbu_0, # of connection points: 6
#     Node 5, Type 0, BuildingBlock: CUWYAW_clean_sbu_0, # of connection points: 6
#     Node 6, Type 0, BuildingBlock: CUWYAW_clean_sbu_0, # of connection points: 6
#     Node 7, Type 0, BuildingBlock: CUWYAW_clean_sbu_0, # of connection points: 6
#     Node 8, Type 0, BuildingBlock: CUWYAW_clean_sbu_0, # of connection points: 6
#     Edge 9, Type (0, 0), BuildingBlock: EZIPEK_clean_linker_0, # of connection points: 2
#     Edge 10, Type (0, 0), BuildingBlock: EZIPEK_clean_linker_0, # of connection points: 2
#     Edge 11, Type (0, 0), BuildingBlock: EZIPEK_clean_linker_0, # of connection points: 2
#     Edge 12, Type (0, 0), BuildingBlock: EZIPEK_clean_linker_0, # of connection points: 2
#     Edge 13, Type (0, 0), BuildingBlock: EZIPEK_clean_linker_0, # of connection points: 2
#     Edge 14, Type (0, 0), BuildingBlock: EZIPEK_clean_linker_0, # of connection points: 2
#     Edge 15, Type (0, 0), BuildingBlock: EZIPEK_clean_linker_0, # of connection points: 2
#     Edge 16, Type (0, 0), BuildingBlock: EZIPEK_clean_linker_0, # of connection points: 2
#     Edge 17, Type (0, 0), BuildingBlock: EZIPEK_clean_linker_0, # of connection points: 2
#     Edge 18, Type (0, 0), BuildingBlock: EZIPEK_clean_linker_0, # of connection points: 2
#     Edge 19, Type (0, 0), BuildingBlock: EZIPEK_clean_linker_0, # of connection points: 2
#     Edge 20, Type (0, 0), BuildingBlock: EZIPEK_clean_linker_0, # of connection points: 2
#     Edge 21, Type (0, 0), BuildingBlock: EZIPEK_clean_linker_0, # of connection points: 2
#     Edge 22, Type (0, 0), BuildingBlock: EZIPEK_clean_linker_0, # of connection points: 2
#     Edge 23, Type (0, 0), BuildingBlock: EZIPEK_clean_linker_0, # of connection points: 2
#     Edge 24, Type (0, 0), BuildingBlock: EZIPEK_clean_linker_0, # of connection points: 2
#     Edge 25, Type (0, 0), BuildingBlock: EZIPEK_clean_linker_0, # of connection points: 2
#     Edge 26, Type (0, 0), BuildingBlock: EZIPEK_clean_linker_0, # of connection points: 2
#     Edge 27, Type (0, 0), BuildingBlock: EZIPEK_clean_linker_0, # of connection points: 2
#     Edge 28, Type (0, 0), BuildingBlock: EZIPEK_clean_linker_0, # of connection points: 2
#     Edge 29, Type (0, 0), BuildingBlock: EZIPEK_clean_linker_0, # of connection points: 2
#     Edge 30, Type (0, 0), BuildingBlock: EZIPEK_clean_linker_0, # of connection points: 2
#     Edge 31, Type (0, 0), BuildingBlock: EZIPEK_clean_linker_0, # of connection points: 2
#     Edge 32, Type (0, 0), BuildingBlock: EZIPEK_clean_linker_0, # of connection points: 2
#     Edge 33, Type (0, 0), BuildingBlock: EZIPEK_clean_linker_0, # of connection points: 2
#     Edge 34, Type (0, 0), BuildingBlock: EZIPEK_clean_linker_0, # of connection points: 2
#     Edge 35, Type (0, 0), BuildingBlock: EZIPEK_clean_linker_0, # of connection points: 2
# Relax obj value: 0.186
# Max RMSD: 0.227
# Mean RMSD: 0.223
data_MOF--net-snz--node1-CUWYAW_clean_sbu_0--edge1-EZIPEK_clean_linker_0
_symmetry_space_group_name_H-M    P1
_symmetry_Int_Tables_number       1
_symmetry_cell_setting            triclinic
loop_
_symmetry_equiv_pos_as_xyz
'x, y, z'
_cell_length_a     53.623265
_cell_length_b     53.845718
_cell_length_c     10.883309
_cell_angle_alpha  90.08538
_cell_angle_beta   89.850563
_cell_angle_gamma 120.09429
loop_
_atom_site_label
_atom_site_type_symbol
_atom_site_fract_x
_atom_site_fract_y
_atom_site_fract_z
_atom_type_partial_charge
C0 C 0.13262 0.47036 0.99431 0.0
Eu1 Eu 0.17616 0.46279 0.0265 0.0
C2 C 0.12689 0.49417 0.00042 0.0
C3 C 0.10413 0.49128 0.07414 0.0
C4 C 0.09581 0.51193 0.06959 0.0
C5 C 0.11021 0.53545 0.99079 0.0
C6 C 0.13394 0.53929 0.92194 0.0
C7 C 0.14242 0.51879 0.92719 0.0
C8 C 0.19419 0.45666 0.25577 0.0
C9 C 0.23075 0.52632 0.05692 0.0
C10 C 0.27599 0.45912 0.07041 0.0
Eu11 Eu 0.23148 0.46561 0.01891 0.0
C12 C 0.30156 0.4554 0.09989 0.0
C13 C 0.32449 0.4636 0.01662 0.0
C14 C 0.34826 0.45994 0.0444 0.0
C15 C 0.34972 0.4463 0.15412 0.0
C16 C 0.32825 0.44195 0.24288 0.0
C17 C 0.30432 0.44524 0.21493 0.0
C18 C 0.21577 0.47369 0.78946 0.0
C19 C 0.16867 0.40275 0.95896 0.0
O20 O 0.14939 0.4712 0.90516 0.0
O21 O 0.1376 0.46162 0.09846 0.0
O22 O 0.16811 0.4415 0.21439 0.0
O23 O 0.20974 0.47429 0.17342 0.0
O24 O 0.2038 0.51089 0.02195 0.0
O25 O 0.2462 0.51329 0.07346 0.0
O26 O 0.25208 0.44723 0.13474 0.0
O27 O 0.27545 0.47413 0.9771 0.0
O28 O 0.2419 0.4874 0.83229 0.0
O29 O 0.19936 0.45574 0.86964 0.0
O30 O 0.19721 0.41593 0.98301 0.0
O31 O 0.1553 0.41737 0.96606 0.0
H32 H 0.09207 0.47249 0.13144 0.0
H33 H 0.07735 0.50888 0.12254 0.0
H34 H 0.14502 0.55745 0.86043 0.0
H35 H 0.16027 0.52166 0.87022 0.0
H36 H 0.32431 0.47324 0.9296 0.0
H37 H 0.36577 0.46874 0.97906 0.0
H38 H 0.32974 0.43683 0.33714 0.0
H39 H 0.28826 0.44052 0.28554 0.0
C40 C 0.82441 0.60338 0.02732 0.0
Eu41 Eu 0.82419 0.65146 0.03984 0.0
C42 C 0.80238 0.57315 0.01213 0.0
C43 C 0.79894 0.55357 0.10385 0.0
C44 C 0.78032 0.52435 0.08616 0.0
C45 C 0.76657 0.51383 0.97184 0.0
C46 C 0.76596 0.53417 0.89149 0.0
C47 C 0.78427 0.56348 0.90946 0.0
C48 C 0.82396 0.67057 0.27474 0.0
C49 C 0.76395 0.64197 0.06411 0.0
C50 C 0.82618 0.75275 0.11077 0.0
Eu51 Eu 0.82713 0.70569 0.04421 0.0
C52 C 0.83227 0.7835 0.12073 0.0
C53 C 0.82208 0.79585 0.03422 0.0
C54 C 0.82559 0.82354 0.0529 0.0
C55 C 0.83927 0.83991 0.15903 0.0
C56 C 0.84962 0.82762 0.2448 0.0
C57 C 0.84613 0.80001 0.22618 0.0
C58 C 0.82412 0.68811 0.8066 0.0
C59 C 0.88568 0.70359 0.95842 0.0
O60 O 0.82989 0.62035 0.93333 0.0
O61 O 0.82363 0.61518 0.13055 0.0
O62 O 0.80742 0.64509 0.23458 0.0
O63 O 0.84063 0.68599 0.18872 0.0
O64 O 0.7777 0.63252 0.99745 0.0
O65 O 0.77918 0.66934 0.10482 0.0
O66 O 0.84412 0.74531 0.155 0.0
O67 O 0.80925 0.73482 0.02669 0.0
O68 O 0.84008 0.71421 0.84535 0.0
O69 O 0.8096 0.67187 0.89601 0.0
O70 O 0.87532 0.72072 0.99092 0.0
O71 O 0.86931 0.67581 0.96887 0.0
H72 H 0.8109 0.56085 0.18904 0.0
H73 H 0.77725 0.51072 0.16361 0.0
H74 H 0.75194 0.52774 0.81235 0.0
H75 H 0.7846 0.57838 0.84189 0.0
H76 H 0.81104 0.78396 0.95251 0.0
H77 H 0.81742 0.83216 0.9843 0.0
H78 H 0.8603 0.83936 0.32736 0.0
H79 H 0.85386 0.79129 0.29633 0.0
C80 C 0.68915 0.15952 0.98855 0.0
Eu81 Eu 0.64125 0.11226 0.02833 0.0
C82 C 0.71947 0.16761 0.98657 0.0
C83 C 0.74015 0.19544 0.02181 0.0
C84 C 0.76931 0.20444 0.01055 0.0
C85 C 0.77781 0.18558 0.96401 0.0
C86 C 0.75724 0.1573 0.93385 0.0
C87 C 0.72807 0.14825 0.94562 0.0
C88 C 0.62269 0.09113 0.2606 0.0
C89 C 0.64758 0.05816 0.05506 0.0
C90 C 0.53615 1.01302 0.08392 0.0
Eu91 Eu 0.58529 0.05976 0.02899 0.0
C92 C 0.50774 0.98655 0.11726 0.0
C93 C 0.49914 0.95953 0.06372 0.0
C94 C 0.4719 0.93526 0.08988 0.0
C95 C 0.45221 0.93712 0.17021 0.0
C96 C 0.46079 0.96406 0.22405 0.0
C97 C 0.48805 0.98828 0.19839 0.0
C98 C 0.60361 0.07821 0.79428 0.0
C99 C 0.58761 0.12123 0.9638 0.0
O100 O 0.67332 0.14217 0.90103 0.0
O101 O 0.67654 0.15282 0.0959 0.0
O102 O 0.64892 0.10214 0.22141 0.0
O103 O 0.607 0.09248 0.17611 0.0
O104 O 0.6605 0.08453 0.01427 0.0
O105 O 0.61899 0.04457 0.07752 0.0
O106 O 0.5453 0.03782 0.13798 0.0
O107 O 0.55439 1.01328 0.0028 0.0
O108 O 0.577 0.06486 0.83006 0.0
O109 O 0.61956 0.07875 0.88211 0.0
O110 O 0.57054 0.09309 0.98358 0.0
O111 O 0.61541 0.13326 0.98145 0.0
H112 H 0.73371 0.21041 0.05454 0.0
H113 H 0.78521 0.22635 0.03369 0.0
H114 H 0.76379 0.14268 0.89755 0.0
H115 H 0.71234 0.12653 0.91912 0.0
H116 H 0.51337 0.95718 1.00001 0.0
H117 H 0.466 0.91503 0.04563 0.0
H118 H 0.44618 0.96647 0.28527 0.0
H119 H 0.49351 1.00859 0.24088 0.0
C120 C 0.81652 1.02251 0.2275 0.0
Eu121 Eu 0.86128 1.01973 0.30834 0.0
C122 C 0.7916 1.02765 0.20766 0.0
C123 C 0.78107 0.03853 0.29963 0.0
C124 C 0.757 0.04217 0.27746 0.0
C125 C 0.74224 0.03441 0.16364 0.0
C126 C 0.75279 1.0232 0.07302 0.0
C127 C 0.77711 1.0202 0.09418 0.0
C128 C 0.87684 1.01588 0.54671 0.0
C129 C 0.92507 0.07986 0.37524 0.0
C130 C 0.96314 1.01256 0.39206 0.0
Eu131 Eu 0.92179 1.01933 0.31246 0.0
C132 C 0.97358 0.99272 0.36947 0.0
C133 C 1.00295 1.00253 0.38427 0.0
C134 C 1.01285 0.98313 0.38202 0.0
C135 C 0.9933 0.95388 0.36525 0.0
C136 C 0.96416 0.94415 0.34279 0.0
C137 C 0.95429 0.9636 0.34419 0.0
C138 C 0.90528 1.02198 0.07349 0.0
C139 C 0.86451 0.95858 0.2598 0.0
O140 O 0.84317 0.0412 0.19587 0.0
O141 O 0.81461 1.00319 0.3062 0.0
O142 O 0.85345 1.0161 0.51682 0.0
O143 O 0.88964 1.01721 0.44653 0.0
O144 O 0.89647 0.06785 0.35395 0.0
O145 O 0.93887 0.06555 0.36071 0.0
O146 O 0.93787 1.00132 0.44603 0.0
O147 O 0.96676 1.03046 0.30289 0.0
O148 O 0.92862 1.02168 0.10342 0.0
O149 O 0.89268 1.02116 0.17355 0.0
O150 O 0.89218 0.97228 0.28593 0.0
O151 O 0.84881 0.97188 0.25901 0.0
H152 H 0.79148 0.04428 0.38857 0.0
H153 H 0.74983 0.051 0.34969 0.0
H154 H 0.74228 1.01695 0.98439 0.0
H155 H 0.78446 1.01165 0.02142 0.0
H156 H 1.01797 1.02496 0.40331 0.0
H157 H 1.03539 0.99063 0.40004 0.0
H158 H 0.94899 0.92148 0.33039 0.0
H159 H 0.93149 0.95569 0.33164 0.0
C160 C 0.26568 0.72978 0.25753 0.0
Eu161 Eu 0.27229 0.78066 0.3111 0.0
C162 C 0.26181 0.70049 0.22859 0.0
C163 C 0.25567 0.68 0.3218 0.0
C164 C 0.25169 0.65249 0.29473 0.0
C165 C 0.25473 0.64466 0.17385 0.0
C166 C 0.26142 0.66551 0.08114 0.0
C167 C 0.26437 0.69263 0.10759 0.0
C168 C 0.2793 0.80278 0.54296 0.0
C169 C 0.20964 0.78104 0.36611 0.0
C170 C 0.27809 0.88472 0.35697 0.0
Eu171 Eu 0.27118 0.83425 0.31428 0.0
C172 C 0.30066 0.9149 0.35346 0.0
C173 C 0.31629 0.92796 0.24581 0.0
C174 C 0.33759 0.95687 0.24715 0.0
C175 C 0.34294 0.97281 0.35551 0.0
C176 C 0.32748 0.95977 0.46277 0.0
C177 C 0.30651 0.93094 0.46177 0.0
C178 C 0.26752 0.81276 0.07888 0.0
C179 C 0.33389 0.84273 0.28664 0.0
O180 O 0.2566 0.74319 0.18612 0.0
O181 O 0.2783 0.74405 0.35746 0.0
O182 O 0.2934 0.7909 0.49934 0.0
O183 O 0.26185 0.80195 0.46242 0.0
O184 O 0.22218 0.7657 0.33248 0.0
O185 O 0.22556 0.80894 0.37565 0.0
O186 O 0.28141 0.86921 0.44041 0.0
O187 O 0.26848 0.87127 0.25247 0.0
O188 O 0.25261 0.82398 0.11977 0.0
O189 O 0.28356 0.81324 0.16477 0.0
O190 O 0.3191 0.85344 0.33669 0.0
O191 O 0.32012 0.81476 0.25642 0.0
H192 H 0.25347 0.6851 0.41607 0.0
H193 H 0.24629 0.63726 0.36901 0.0
H194 H 0.26403 0.66066 0.98699 0.0
H195 H 0.2691 0.70767 0.03307 0.0
H196 H 0.31192 0.91598 0.16103 0.0
H197 H 0.34962 0.96689 0.16409 0.0
H198 H 0.33165 0.97196 0.54707 0.0
H199 H 0.29471 0.92115 0.54562 0.0
C200 C 0.5599 0.47242 0.26499 0.0
Eu201 Eu 0.50887 0.42771 0.31588 0.0
C202 C 0.58919 0.49823 0.23687 0.0
C203 C 0.60214 0.52205 0.31699 0.0
C204 C 0.62935 0.54629 0.29048 0.0
C205 C 0.6444 0.54795 0.18144 0.0
C206 C 0.63114 0.52437 0.09992 0.0
C207 C 0.60419 0.49988 0.12763 0.0
C208 C 0.48659 0.41165 0.54826 0.0
C209 C 0.50806 0.36476 0.37798 0.0
C210 C 0.40444 0.3298 0.35492 0.0
Eu211 Eu 0.4556 0.373 0.31371 0.0
C212 C 0.37393 0.3201 0.34372 0.0
C213 C 0.36319 0.33107 0.25437 0.0
C214 C 0.33399 0.32287 0.25562 0.0
C215 C 0.3159 0.30423 0.34745 0.0
C216 C 0.32677 0.29339 0.43596 0.0
C217 C 0.35564 0.30126 0.43386 0.0
C218 C 0.47862 0.3908 0.08193 0.0
C219 C 0.44762 0.42764 0.27803 0.0
O220 O 0.5501 0.4473 0.21242 0.0
O221 O 0.54244 0.47277 0.34826 0.0
O222 O 0.49779 0.43757 0.50493 0.0
O223 O 0.48742 0.39569 0.46514 0.0
O224 O 0.52382 0.39302 0.35045 0.0
O225 O 0.47996 0.35202 0.37597 0.0
O226 O 0.41826 0.35102 0.43134 0.0
O227 O 0.4191 0.33205 0.25521 0.0
O228 O 0.46817 0.36492 0.12406 0.0
O229 O 0.47709 0.40619 0.16571 0.0
O230 O 0.43602 0.40142 0.32098 0.0
O231 O 0.47597 0.44213 0.25502 0.0
H232 H 0.59135 0.52185 0.40154 0.0
H233 H 0.63882 0.56375 0.35607 0.0
H234 H 0.64207 0.52459 0.01576 0.0
H235 H 0.59503 0.48224 0.06284 0.0
H236 H 0.37735 0.34622 0.186 0.0
H237 H 0.32566 0.33152 0.18776 0.0
H238 H 0.31294 0.27918 0.50772 0.0
H239 H 0.36391 0.29319 0.50468 0.0
C240 C 0.47355 0.16662 0.6457 0.0
Eu241 Eu 0.51533 0.21878 0.65953 0.0
C242 C 0.45392 0.14397 0.56301 0.0
C243 C 0.42527 0.12702 0.60085 0.0
C244 C 0.40775 0.10068 0.54507 0.0
C245 C 0.41885 0.09126 0.451 0.0
C246 C 0.44673 0.10911 0.40587 0.0
C247 C 0.46431 0.13555 0.46163 0.0
C248 C 0.52086 0.27045 0.58239 0.0
C249 C 0.55716 0.24158 0.42352 0.0
C250 C 0.6219 0.32057 0.70114 0.0
Eu251 Eu 0.58082 0.26815 0.6864 0.0
C252 C 0.6431 0.34346 0.77924 0.0
C253 C 0.67237 0.35285 0.7609 0.0
C254 C 0.69313 0.3792 0.80737 0.0
C255 C 0.68473 0.39636 0.87165 0.0
C256 C 0.65572 0.38626 0.8982 0.0
C257 C 0.63489 0.35975 0.85266 0.0
C258 C 0.57561 0.21673 0.76311 0.0
C259 C 0.5389 0.24509 0.92254 0.0
O260 O 0.50076 0.17404 0.637 0.0
O261 O 0.46913 0.18804 0.66907 0.0
O262 O 0.49662 0.24613 0.58625 0.0
O263 O 0.54014 0.26546 0.62464 0.0
O264 O 0.53219 0.22224 0.47025 0.0
O265 O 0.5796 0.26002 0.48719 0.0
O266 O 0.59481 0.3123 0.72256 0.0
O267 O 0.62643 0.29976 0.66621 0.0
O268 O 0.59983 0.2411 0.75917 0.0
O269 O 0.55614 0.22151 0.72131 0.0
O270 O 0.56412 0.26399 0.87633 0.0
O271 O 0.51629 0.22711 0.85854 0.0
H272 H 0.41711 0.13317 0.67939 0.0
H273 H 0.38616 0.08689 0.58023 0.0
H274 H 0.45534 0.10183 0.33299 0.0
H275 H 0.48646 0.14837 0.43103 0.0
H276 H 0.67915 0.34085 0.70344 0.0
H277 H 0.71564 0.38709 0.7863 0.0
H278 H 0.64919 0.39955 0.94771 0.0
H279 H 0.61242 0.35309 0.86768 0.0
C280 C 0.1223 0.23762 0.67282 0.0
Eu281 Eu 0.07181 0.23234 0.66012 0.0
C282 C 0.1464 0.24401 0.59168 0.0
C283 C 0.16314 0.23145 0.61734 0.0
C284 C 0.18921 0.24098 0.55679 0.0
C285 C 0.19852 0.26298 0.46961 0.0
C286 C 0.18092 0.27427 0.43745 0.0
C287 C 0.15491 0.2649 0.49893 0.0
C288 C 1.01941 0.18725 0.57808 0.0
C289 C 0.05721 0.25652 0.41529 0.0
C290 C 0.97254 0.24438 0.65931 0.0
Eu291 Eu 1.02319 0.2502 0.67053 0.0
C292 C 0.94866 0.23932 0.74023 0.0
C293 C 0.93985 0.25978 0.74462 0.0
C294 C 0.91363 0.25289 0.79844 0.0
C295 C 0.89597 0.22536 0.84648 0.0
C296 C 0.90564 0.20561 0.85087 0.0
C297 C 0.93206 0.21263 0.79887 0.0
C298 C 0.07532 0.29516 0.75486 0.0
C299 C 1.03745 0.22564 0.9151 0.0
O300 O 0.11741 0.25881 0.69163 0.0
O301 O 0.09883 0.21267 0.65954 0.0
O302 O 1.04322 0.18642 0.58415 0.0
O303 O 1.0255 0.21188 0.61823 0.0
O304 O 0.07566 0.25109 0.47271 0.0
O305 O 1.03525 0.25619 0.47192 0.0
O306 O 0.9775 0.22306 0.64735 0.0
O307 O 0.99601 0.26964 0.66362 0.0
O308 O 0.05148 0.29593 0.74804 0.0
O309 O 0.06946 0.27065 0.71383 0.0
O310 O 1.01946 0.23176 0.85814 0.0
O311 O 0.05924 0.22558 0.85846 0.0
H312 H 0.15676 0.21537 0.68875 0.0
H313 H 0.20276 0.23217 0.58193 0.0
H314 H 0.18809 0.29134 0.37022 0.0
H315 H 0.1423 0.27501 0.47889 0.0
H316 H 0.95238 0.28042 0.69994 0.0
H317 H 0.90618 0.26823 0.79498 0.0
H318 H 0.89207 0.1843 0.88831 0.0
H319 H 0.93849 0.1965 0.79804 0.0
C320 C 0.05011 0.81806 0.6536 0.0
Eu321 Eu 0.05797 0.77479 0.65996 0.0
C322 C 1.04924 0.839 0.57195 0.0
C323 C 0.06433 0.86784 0.60738 0.0
C324 C 0.05764 0.88723 0.55471 0.0
C325 C 1.03565 0.8777 0.46716 0.0
C326 C 1.02236 0.84951 0.42316 0.0
C327 C 1.02931 0.83017 0.47477 0.0
C328 C 0.10304 0.7677 0.57801 0.0
C329 C 1.03448 0.73325 0.42142 0.0
C330 C 1.04077 0.66203 0.68948 0.0
Eu331 Eu 1.03961 0.70939 0.68656 0.0
C332 C 0.05195 0.64753 0.76587 0.0
C333 C 1.03232 0.62268 0.8297 0.0
C334 C 1.04172 0.60574 0.88603 0.0
C335 C 0.07075 0.61346 0.8778 0.0
C336 C 0.0908 0.63925 0.82185 0.0
C337 C 0.08146 0.65636 0.76622 0.0
C338 C 0.99418 0.71712 0.75977 0.0
C339 C 0.06554 0.75115 0.92075 0.0
O340 O 1.02935 0.79142 0.64005 0.0
O341 O 0.0753 0.82088 0.68003 0.0
O342 O 0.10349 0.79212 0.58145 0.0
O343 O 0.07879 0.74889 0.62293 0.0
O344 O 1.04247 0.75861 0.47049 0.0
O345 O 1.03121 0.7112 0.48646 0.0
O346 O 0.05952 0.68482 0.629 0.0
O347 O 1.01962 0.66446 0.73607 0.0
O348 O 0.99307 0.69254 0.75364 0.0
O349 O 1.01913 0.73553 0.72119 0.0
O350 O 0.06176 0.72751 0.86634 0.0
O351 O 0.06366 0.77129 0.8605 0.0
H352 H 0.07959 0.87487 0.6826 0.0
H353 H 0.06787 0.90903 0.58929 0.0
H354 H 1.00529 0.84208 0.35553 0.0
H355 H 1.01745 0.80796 0.44547 0.0
H356 H 1.0095 0.61556 0.83053 0.0
H357 H 1.02614 0.58571 0.9289 0.0
H358 H 0.11331 0.64524 0.81529 0.0
H359 H 0.09707 0.67555 0.71834 0.0
C360 C 0.19859 0.48424 0.58816 0.0
C361 C 0.2101 0.46928 0.65255 0.0
C362 C 0.20991 0.44517 0.45793 0.0
C363 C 0.20042 0.46165 0.39197 0.0
N364 N 0.1895 0.49997 0.3921 0.0
N365 N 0.23176 0.43942 0.64287 0.0
C366 C 0.19589 0.48212 0.45664 0.0
C367 C 0.21719 0.45087 0.58558 0.0
N368 N 0.18967 0.50011 0.6532 0.0
N369 N 0.21132 0.42346 0.3992 0.0
H370 H 0.23683 0.44227 0.73613 0.0
H371 H 0.24051 0.42862 0.59653 0.0
H372 H 0.20682 0.41907 0.30589 0.0
H373 H 0.21469 0.40839 0.44463 0.0
H374 H 0.17826 0.50914 0.61494 0.0
H375 H 0.19182 0.50247 0.74828 0.0
H376 H 0.18923 0.51752 0.43084 0.0
H377 H 0.1865 0.49856 0.29717 0.0
C378 C 0.82113 0.65794 0.62006 0.0
C379 C 0.8192 0.68125 0.67025 0.0
C380 C 0.81807 0.69697 0.45725 0.0
C381 C 0.8258 0.67711 0.41024 0.0
N382 N 0.83921 0.64145 0.45341 0.0
N383 N 0.81405 0.72264 0.6325 0.0
C384 C 0.82868 0.65844 0.49387 0.0
C385 C 0.81752 0.70089 0.58738 0.0
N386 N 0.81474 0.63476 0.69139 0.0
N387 N 0.80888 0.71036 0.37833 0.0
H388 H 0.80849 0.72346 0.72369 0.0
H389 H 0.81701 0.74 0.57939 0.0
H390 H 0.80702 0.70633 0.28435 0.0
H391 H 0.80028 0.72301 0.40662 0.0
H392 H 0.8141 0.61631 0.65794 0.0
H393 H 0.80572 0.63243 0.77819 0.0
H394 H 0.84421 0.62935 0.51247 0.0
H395 H 0.84597 0.64198 0.36297 0.0
C396 C 0.62375 0.10967 0.60356 0.0
C397 C 0.61127 0.08203 0.65901 0.0
C398 C 0.60176 0.06027 0.45129 0.0
C399 C 0.61599 0.08796 0.39643 0.0
N400 N 0.64275 0.13934 0.42075 0.0
N401 N 0.59249 1.03129 0.63566 0.0
C402 C 0.62767 0.11271 0.473 0.0
C403 C 0.60141 0.05742 0.5825 0.0
N404 N 0.63083 0.13304 0.67543 0.0
N405 N 0.58802 0.03662 0.37768 0.0
H406 H 0.5924 1.02857 0.73061 0.0
H407 H 0.58772 1.01286 0.58635 0.0
H408 H 0.58792 0.03805 0.2822 0.0
H409 H 0.57483 1.0159 0.41066 0.0
H410 H 0.63634 0.15321 0.64138 0.0
H411 H 0.6295 0.13178 0.7705 0.0
H412 H 0.65519 0.15808 0.4706 0.0
H413 H 0.64391 0.14264 0.32601 0.0
C414 C 0.86326 0.99861 0.76656 0.0
C415 C 0.88542 1.01523 0.67975 0.0
C416 C 0.91877 0.03901 0.85374 0.0
C417 C 0.89665 1.02243 0.94053 0.0
N418 N 0.84574 0.99195 0.97664 0.0
N419 N 0.93639 0.04555 0.64449 0.0
C420 C 0.86828 1.00379 0.89611 0.0
C421 C 0.91378 0.03378 0.72446 0.0
N422 N 0.83784 0.9762 0.72504 0.0
N423 N 0.94416 0.06153 0.89493 0.0
H424 H 0.93387 0.04109 0.55149 0.0
H425 H 0.9579 0.05671 0.67152 0.0
H426 H 0.9479 0.06738 0.98737 0.0
H427 H 0.96003 0.07661 0.83719 0.0
H428 H 0.82183 0.9612 0.78246 0.0
H429 H 0.83417 0.9704 0.63252 0.0
H430 H 0.82423 0.98048 0.94988 0.0
H431 H 0.84821 0.99667 0.06972 0.0
C432 C 0.30049 0.8244 0.75041 0.0
C433 C 0.27613 0.8056 0.67951 0.0
C434 C 0.24638 0.79228 0.86852 0.0
C435 C 0.27124 0.80906 0.94217 0.0
N436 N 0.32362 0.83511 0.94814 0.0
N437 N 0.22774 0.76546 0.67995 0.0
C438 C 0.29878 0.82336 0.88185 0.0
C439 C 0.24951 0.78801 0.74079 0.0
N440 N 0.32535 0.84381 0.69231 0.0
N441 N 0.21955 0.77965 0.92042 0.0
H442 H 0.22995 0.7603 0.58994 0.0
H443 H 0.20915 0.74986 0.72368 0.0
H444 H 0.21602 0.77959 0.01468 0.0
H445 H 0.2007 0.7705 0.86843 0.0
H446 H 0.34277 0.86044 0.73814 0.0
H447 H 0.32751 0.84503 0.59685 0.0
H448 H 0.34396 0.84322 0.90866 0.0
H449 H 0.32397 0.83364 0.04244 0.0
C450 C 0.46368 0.37916 0.73603 0.0
C451 C 0.48573 0.40535 0.68465 0.0
C452 C 0.50218 0.4234 0.89539 0.0
C453 C 0.47972 0.39738 0.94612 0.0
N454 N 0.43287 0.35592 0.91103 0.0
N455 N 0.53244 0.44705 0.71889 0.0
C456 C 0.45878 0.37671 0.86538 0.0
C457 C 0.50666 0.42619 0.76534 0.0
N458 N 0.44863 0.35564 0.66334 0.0
N459 N 0.51854 0.44618 0.97032 0.0
H460 H 0.53818 0.44774 0.62689 0.0
H461 H 0.54976 0.46102 0.77363 0.0
H462 H 0.51493 0.44579 0.06414 0.0
H463 H 0.53317 0.4666 0.93779 0.0
H464 H 0.43402 0.33538 0.69761 0.0
H465 H 0.45408 0.35515 0.57244 0.0
H466 H 0.41565 0.34216 0.85524 0.0
H467 H 0.42707 0.35513 0.00304 0.0
C468 C 0.55816 0.2692 0.24163 0.0
C469 C 0.55775 0.24461 0.29168 0.0
C470 C 0.53786 0.21748 0.10408 0.0
C471 C 0.53818 0.24202 0.05427 0.0
N472 N 0.54293 0.28851 0.07508 0.0
N473 N 0.5531 0.19816 0.27051 0.0
C474 C 0.54674 0.26715 0.12322 0.0
C475 C 0.54923 0.21949 0.22257 0.0
N476 N 0.56922 0.29425 0.30701 0.0
N477 N 0.52694 0.19251 0.03818 0.0
H478 H 0.56295 0.20017 0.35549 0.0
H479 H 0.54874 0.17952 0.2243 0.0
H480 H 0.51917 0.19008 0.94903 0.0
H481 H 0.52388 0.17324 0.07342 0.0
H482 H 0.57245 0.31353 0.27118 0.0
H483 H 0.57694 0.2968 0.39624 0.0
H484 H 0.54741 0.30721 0.121 0.0
H485 H 0.53306 0.28648 0.99014 0.0
C486 C 0.07326 0.24559 0.21709 0.0
C487 C 0.05645 0.25532 0.27843 0.0
C488 C 1.021 0.23605 0.1133 0.0
C489 C 1.03787 0.22639 0.05195 0.0
N490 N 0.07226 0.21044 0.07663 0.0
N491 N 1.02192 0.27111 0.25419 0.0
C492 C 0.06174 0.22767 0.11325 0.0
C493 C 1.03247 0.25391 0.21745 0.0
N494 N 0.10097 0.25515 0.25278 0.0
N495 N 0.99337 0.22672 0.07661 0.0
H496 H 1.03216 0.28679 0.32175 0.0
H497 H 1.00585 0.27252 0.20644 0.0
H498 H 0.98327 0.21072 0.0102 0.0
H499 H 0.97951 0.23176 0.12357 0.0
H500 H 0.11477 0.24996 0.20628 0.0
H501 H 0.11115 0.27163 0.31699 0.0
H502 H 0.08829 0.209 0.1246 0.0
H503 H 0.06205 0.1948 0.00889 0.0
C504 C 1.03502 0.75485 0.22118 0.0
C505 C 1.03568 0.73237 0.28512 0.0
C506 C 0.06515 0.72893 0.12158 0.0
C507 C 0.06419 0.75121 0.05745 0.0
N508 N 0.06045 0.7939 0.07895 0.0
N509 N 1.04152 0.69073 0.26936 0.0
C510 C 0.05261 0.76675 0.11628 0.0
C511 C 1.04799 0.71724 0.22818 0.0
N512 N 1.0173 0.76457 0.26144 0.0
N513 N 0.08361 0.71997 0.08316 0.0
H514 H 1.02536 0.67938 0.33389 0.0
H515 H 1.0486 0.67815 0.22563 0.0
H516 H 0.09798 0.73001 0.0105 0.0
H517 H 0.08721 0.70545 0.1322 0.0
H518 H 1.01476 0.78012 0.21566 0.0
H519 H 1.00296 0.75473 0.3344 0.0
H520 H 0.05393 0.80678 0.12405 0.0
H521 H 0.07698 0.80506 0.0155 0.0
C522 C 0.42226 0.44437 0.12447 0.0
C523 C 0.42635 0.43782 0.24719 0.0
C524 C 0.37712 0.42826 0.29497 0.0
C525 C 0.37455 0.43951 0.17998 0.0
N526 N 0.38726 0.43768 0.96875 0.0
N527 N 0.40854 0.4288 0.45515 0.0
C528 C 0.3954 0.44257 0.08912 0.0
C529 C 0.40419 0.43191 0.33396 0.0
N530 N 0.44359 0.45156 0.03964 0.0
N531 N 0.35291 0.40862 0.35523 0.0
H532 H 0.42807 0.43162 0.48799 0.0
H533 H 0.39382 0.42648 0.52338 0.0
H534 H 0.33281 0.39857 0.31225 0.0
H535 H 0.35352 0.39864 0.43622 0.0
H536 H 0.44335 0.45975 0.95325 0.0
H537 H 0.46272 0.45184 0.05914 0.0
H538 H 0.40029 0.43748 0.89813 0.0
H539 H 0.36571 0.42863 0.94289 0.0
C540 C 0.8616 0.89323 0.10124 0.0
C541 C 0.84322 0.86993 0.17959 0.0
C542 C 0.83561 0.90437 0.30576 0.0
C543 C 0.85251 0.92719 0.22293 0.0
N544 N 0.87714 0.94156 0.02854 0.0
N545 N 0.80877 0.85288 0.34558 0.0
C546 C 0.86401 0.9209 0.11658 0.0
C547 C 0.82909 0.87545 0.27867 0.0
N548 N 0.87816 0.88945 0.01589 0.0
N549 N 0.82679 0.91051 0.41365 0.0
H550 H 0.80331 0.83168 0.32848 0.0
H551 H 0.79559 0.85483 0.41063 0.0
H552 H 0.83025 0.93095 0.43408 0.0
H553 H 0.81771 0.89593 0.48563 0.0
H554 H 0.89445 0.9062 0.96572 0.0
H555 H 0.87753 0.86995 0.00297 0.0
H556 H 0.88349 0.93786 0.94319 0.0
H557 H 0.879 0.96171 0.03626 0.0
C558 C 0.41762 0.88927 0.27747 0.0
C559 C 0.42214 0.91142 0.1931 0.0
C560 C 0.36924 0.88754 0.16382 0.0
C561 C 0.36456 0.8645 0.2445 0.0
N562 N 0.38517 0.842 0.36511 0.0
N563 N 0.40243 0.92825 0.03766 0.0
C564 C 0.38911 0.86489 0.29641 0.0
C565 C 0.39795 0.90946 0.13107 0.0
N566 N 0.44053 0.89217 0.34377 0.0
N567 N 0.34618 0.88907 0.11985 0.0
H568 H 0.42286 0.9448 0.01268 0.0
H569 H 0.38636 0.926 0.97751 0.0
H570 H 0.32482 0.87314 0.13346 0.0
H571 H 0.34809 0.90693 0.07439 0.0
H572 H 0.43868 0.87886 0.41665 0.0
H573 H 0.46145 0.90929 0.33141 0.0
H574 H 0.40196 0.83923 0.39601 0.0
H575 H 0.3648 0.82456 0.38397 0.0
C576 C 0.56677 0.14053 0.79948 0.0
C577 C 0.57703 0.14154 0.92155 0.0
C578 C 0.58374 0.19063 0.94269 0.0
C579 C 0.57277 0.18941 0.82162 0.0
N580 N 0.55125 0.16156 0.63946 0.0
N581 N 0.59095 0.16597 0.11542 0.0
C582 C 0.56313 0.16366 0.7525 0.0
C583 C 0.58411 0.16618 0.99451 0.0
N584 N 0.56248 0.11838 0.72462 0.0
N585 N 0.5944 0.21556 0.00836 0.0
H586 H 0.59066 0.14831 0.15643 0.0
H587 H 0.59464 0.18201 0.17824 0.0
H588 H 0.59201 0.23278 0.98097 0.0
H589 H 0.60647 0.21976 0.08826 0.0
H590 H 0.55918 0.11796 0.63028 0.0
H591 H 0.56377 0.10085 0.75623 0.0
H592 H 0.54055 0.14252 0.58974 0.0
H593 H 0.55067 0.17868 0.59788 0.0
C594 C 0.1289 0.33518 0.74978 0.0
C595 C 0.10276 0.31869 0.81718 0.0
C596 C 0.12446 0.35347 0.99062 0.0
C597 C 0.14962 0.37128 0.91978 0.0
N598 N 0.17716 0.37771 0.73679 0.0
N599 N 0.07618 0.31151 0.00485 0.0
C600 C 0.1523 0.36144 0.80114 0.0
C601 C 0.10094 0.32765 0.93898 0.0
N602 N 0.13073 0.32629 0.63408 0.0
N603 N 0.12346 0.36126 0.10952 0.0
H604 H 0.05994 0.2914 0.9756 0.0
H605 H 0.07117 0.31784 0.08712 0.0
H606 H 0.14054 0.37934 0.15026 0.0
H607 H 0.10702 0.34917 0.17149 0.0
H608 H 0.14818 0.33712 0.57511 0.0
H609 H 0.11429 0.30744 0.59553 0.0
H610 H 0.18153 0.37294 0.64968 0.0
H611 H 0.1944 0.39602 0.77434 0.0
C612 C 0.96832 0.73632 0.89992 0.0
C613 C 0.96814 0.7202 0.79513 0.0
C614 C 0.91535 0.70085 0.78085 0.0
C615 C 0.91486 0.71364 0.89547 0.0
N616 N 0.94148 0.7417 0.06976 0.0
N617 N 0.94038 0.68639 0.63654 0.0
C618 C 0.94161 0.73123 0.9556 0.0
C619 C 0.94128 0.70236 0.73608 0.0
N620 N 0.99408 0.75667 0.94654 0.0
N621 N 0.89089 0.6879 0.7117 0.0
H622 H 0.95885 0.68942 0.59101 0.0
H623 H 0.9214 0.6694 0.60167 0.0
H624 H 0.87207 0.68728 0.73957 0.0
H625 H 0.88996 0.68062 0.62226 0.0
H626 H 0.996 0.77146 0.0129 0.0
H627 H 1.01356 0.76069 0.90861 0.0
H628 H 0.9596 0.75162 0.12591 0.0
H629 H 0.92267 0.73872 0.11171 0.0
C630 C 0.09559 0.59693 0.02074 0.0
C631 C 0.07945 0.59265 0.91219 0.0
C632 C 0.07955 0.54834 0.86828 0.0
C633 C 0.09843 0.55436 0.96896 0.0
N634 N 0.12683 0.58498 0.13546 0.0
N635 N 0.05947 0.56712 0.72179 0.0
C636 C 0.10708 0.57879 0.04419 0.0
C637 C 0.07219 0.56904 0.83305 0.0
N638 N 0.09934 0.6179 0.10207 0.0
N639 N 0.06845 0.5227 0.80743 0.0
H640 H 0.05381 0.58199 0.69145 0.0
H641 H 0.05671 0.55216 0.65466 0.0
H642 H 0.07387 0.50712 0.82882 0.0
H643 H 0.05202 0.51581 0.7427 0.0
H644 H 0.10842 0.62024 0.18874 0.0
H645 H 0.09126 0.63169 0.0868 0.0
H646 H 0.13645 0.60419 0.18438 0.0
H647 H 0.13507 0.57162 0.15719 0.0
C648 C 0.74553 0.4605 0.02565 0.0
C649 C 0.7513 0.4823 0.93825 0.0
C650 C 0.71627 0.44617 0.79918 0.0
C651 C 0.70638 0.4262 0.89725 0.0
N652 N 0.71059 0.41418 0.10672 0.0
N653 N 0.75722 0.48873 0.71881 0.0
C654 C 0.72054 0.43335 0.01185 0.0
C655 C 0.74102 0.47328 0.81707 0.0
N656 N 0.76656 0.46341 0.10425 0.0
N657 N 0.7018 0.4395 0.68992 0.0
H658 H 0.77784 0.50645 0.72994 0.0
H659 H 0.75202 0.4818 0.62816 0.0
H660 H 0.68344 0.41969 0.6729 0.0
H661 H 0.70667 0.45459 0.62052 0.0
H662 H 0.76407 0.44722 0.16414 0.0
H663 H 0.78788 0.47984 0.09317 0.0
H664 H 0.71889 0.41977 0.19544 0.0
H665 H 0.69272 0.3936 0.09886 0.0
C666 C 0.84623 0.21142 0.78228 0.0
C667 C 0.86593 0.2159 0.87815 0.0
C668 C 0.82729 0.19838 0.03009 0.0
C669 C 0.80824 0.19633 0.93564 0.0
N670 N 0.80009 0.20586 0.7271 0.0
N671 N 0.87691 0.21781 0.09386 0.0
C672 C 0.81786 0.20437 0.81315 0.0
C673 C 0.85696 0.21055 0.0025 0.0
N674 N 0.85422 0.21261 0.66189 0.0
N675 N 0.81685 0.18809 0.14492 0.0
H676 H 0.89892 0.22683 0.07653 0.0
H677 H 0.87204 0.21708 0.1869 0.0
H678 H 0.79521 0.17951 0.16871 0.0
H679 H 0.82914 0.18611 0.21402 0.0
H680 H 0.83975 0.20648 0.58902 0.0
H681 H 0.87473 0.21714 0.63466 0.0
H682 H 0.80714 0.2148 0.64024 0.0
H683 H 0.77887 0.20047 0.74571 0.0
C684 C 0.69103 0.05407 0.99342 0.0
C685 C 0.66774 0.04608 0.07764 0.0
C686 C 0.69119 1.02629 0.21185 0.0
C687 C 0.71648 0.03862 0.13643 0.0
N688 N 0.74198 0.07105 0.96935 0.0
N689 N 0.64911 1.02839 0.28074 0.0
C690 C 0.71674 0.05435 0.03094 0.0
C691 C 0.66868 0.03306 0.19053 0.0
N692 N 0.68851 0.06116 0.87545 0.0
N693 N 0.68803 1.00728 0.3018 0.0
H694 H 0.63252 0.03286 0.26967 0.0
H695 H 0.65082 1.02223 0.36964 0.0
H696 H 0.70322 1.00096 0.31754 0.0
H697 H 0.66904 0.9956 0.35189 0.0
H698 H 0.7038 0.06506 0.80758 0.0
H699 H 0.66959 0.05973 0.84218 0.0
H700 H 0.74395 0.08517 0.89957 0.0
H701 H 0.76164 0.07342 0.9974 0.0
C702 C 0.26483 0.60269 0.20862 0.0
C703 C 0.25023 0.61472 0.14338 0.0
C704 C 0.23113 0.57264 0.00472 0.0
C705 C 0.24156 0.55828 0.08121 0.0
N706 N 0.26417 0.55922 0.27444 0.0
N707 N 0.21255 0.60532 0.99781 0.0
C708 C 0.25737 0.57323 0.18823 0.0
C709 C 0.23144 0.59802 0.04658 0.0
N710 N 0.28668 0.61954 0.28712 0.0
N711 N 0.22157 0.56252 0.88918 0.0
H712 H 0.21037 0.6223 0.0311 0.0
H713 H 0.19669 0.59238 0.9348 0.0
H714 H 0.22329 0.54566 0.85121 0.0
H715 H 0.21556 0.57318 0.82647 0.0
H716 H 0.29968 0.6127 0.32863 0.0
H717 H 0.29388 0.64129 0.29985 0.0
H718 H 0.27278 0.56814 0.35987 0.0
H719 H 0.25874 0.53784 0.26583 0.0
C720 C 0.70916 0.62364 0.09379 0.0
C721 C 0.73324 0.61937 0.10643 0.0
C722 C 0.69871 0.56837 0.16563 0.0
C723 C 0.67494 0.57298 0.15765 0.0
N724 N 0.65784 0.60613 0.12651 0.0
N725 N 0.74986 0.58743 0.17881 0.0
C726 C 0.68037 0.60105 0.12627 0.0
C727 C 0.72758 0.59165 0.14858 0.0
N728 N 0.71346 0.64872 0.0435 0.0
N729 N 0.69385 0.54128 0.18796 0.0
H730 H 0.77118 0.60195 0.16064 0.0
H731 H 0.74744 0.57005 0.23027 0.0
H732 H 0.67398 0.52426 0.21556 0.0
H733 H 0.70919 0.53515 0.17216 0.0
H734 H 0.69685 0.65227 0.0175 0.0
H735 H 0.73382 0.66547 0.01938 0.0
H736 H 0.6603 0.62651 0.1195 0.0
H737 H 0.63656 0.58998 0.14096 0.0
C738 C 1.02867 0.90911 0.31999 0.0
C739 C 1.02348 0.89592 0.43686 0.0
C740 C 0.99913 0.92125 0.50698 0.0
C741 C 1.00279 0.93316 0.38781 0.0
N742 N 1.01671 0.93575 0.17548 0.0
N743 N 0.99839 0.88389 0.63199 0.0
C744 C 1.01623 0.92623 0.29232 0.0
C745 C 1.00709 0.90033 0.52774 0.0
N746 N 1.04624 0.90604 0.23765 0.0
N747 N 0.98891 0.9306 0.60108 0.0
H748 H 1.00345 0.86791 0.65015 0.0
H749 H 0.9839 0.88417 0.69507 0.0
H750 H 0.98218 0.94556 0.58938 0.0
H751 H 0.98921 0.92523 0.69277 0.0
H752 H 0.05329 0.91754 0.15591 0.0
H753 H 0.05551 0.89337 0.25488 0.0
H754 H 1.02355 0.92902 0.09935 0.0
H755 H 1.0082 0.94884 0.15297 0.0
C756 C 0.40779 0.04061 0.46164 0.0
C757 C 0.40207 0.0614 0.40981 0.0
C758 C 0.35867 1.02405 0.3109 0.0
C759 C 0.36492 1.00335 0.35944 0.0
N760 N 0.3982 0.99165 0.45538 0.0
N761 N 0.37618 0.07427 0.26722 0.0
C762 C 0.3905 1.0116 0.42634 0.0
C763 C 0.37884 0.05352 0.32808 0.0
N764 N 0.42869 0.04835 0.54914 0.0
N765 N 0.33286 1.01554 0.25447 0.0
H766 H 0.39057 0.09616 0.2793 0.0
H767 H 0.36131 0.06987 0.19733 0.0
H768 H 0.31758 0.99406 0.23888 0.0
H769 H 0.3257 1.02961 0.23034 0.0
H770 H 0.43135 0.03356 0.60071 0.0
H771 H 0.44212 0.06952 0.57712 0.0
H772 H 0.41799 0.99687 0.49402 0.0
H773 H 0.38589 0.97011 0.43006 0.0
C774 C 0.23471 0.26031 0.33573 0.0
C775 C 0.228 0.2759 0.42146 0.0
C776 C 0.27841 0.31382 0.4297 0.0
C777 C 0.28555 0.29649 0.35665 0.0
N778 N 0.27171 0.25273 0.24544 0.0
N779 N 0.24317 0.31564 0.56256 0.0
C780 C 0.264 0.26967 0.30997 0.0
C781 C 0.24969 0.3024 0.47073 0.0
N782 N 0.21301 0.23675 0.27871 0.0
N783 N 0.29925 0.34097 0.46143 0.0
H784 H 0.22237 0.30793 0.59641 0.0
H785 H 0.25866 0.33312 0.6122 0.0
H786 H 0.32085 0.3494 0.43779 0.0
H787 H 0.29488 0.35586 0.50242 0.0
H788 H 0.21638 0.22593 0.20707 0.0
H789 H 0.19125 0.22935 0.29621 0.0
H790 H 0.25738 0.23142 0.22283 0.0
H791 H 0.29295 0.25957 0.21978 0.0
C792 C 0.53352 0.32371 0.59064 0.0
C793 C 0.52393 0.29778 0.52255 0.0
C794 C 0.51284 0.32075 0.34781 0.0
C795 C 0.52 0.34559 0.41937 0.0
N796 N 0.53375 0.36897 0.61586 0.0
N797 N 0.50217 0.27122 0.33675 0.0
C798 C 0.52992 0.34677 0.54207 0.0
C799 C 0.51304 0.29635 0.40113 0.0
N800 N 0.54514 0.32595 0.70435 0.0
N801 N 0.50569 0.32061 0.22709 0.0
H802 H 0.5044 0.25397 0.36515 0.0
H803 H 0.4901 0.26688 0.25679 0.0
H804 H 0.50598 0.33821 0.18543 0.0
H805 H 0.50163 0.30431 0.16513 0.0
H806 H 0.55568 0.34506 0.75371 0.0
H807 H 0.54556 0.30885 0.74693 0.0
H808 H 0.53712 0.36964 0.71023 0.0
H809 H 0.53196 0.38621 0.58322 0.0
C810 C 0.96809 0.12992 0.3428 0.0
C811 C 0.94435 0.1109 0.41825 0.0
C812 C 0.96646 0.14625 0.58969 0.0
C813 C 0.99168 0.16357 0.51835 0.0
N814 N 1.01652 0.17139 0.32523 0.0
N815 N 0.92264 0.09994 0.61905 0.0
C816 C 0.99229 0.15526 0.39409 0.0
C817 C 0.94382 0.11907 0.54275 0.0
N818 N 0.9673 0.12367 0.2205 0.0
N819 N 0.96427 0.1556 0.70371 0.0
H820 H 0.9055 0.08059 0.58766 0.0
H821 H 0.92287 0.10238 0.71402 0.0
H822 H 0.98056 0.17469 0.74142 0.0
H823 H 0.94557 0.14579 0.75666 0.0
H824 H 0.98229 0.1373 0.15622 0.0
H825 H 0.95001 0.1056 0.18073 0.0
H826 H 1.02053 0.16502 0.24074 0.0
H827 H 1.03343 0.19106 0.35514 0.0
C828 C 0.13598 0.77753 0.39272 0.0
C829 C 0.12588 0.76382 0.5089 0.0
C830 C 0.16382 0.75003 0.49746 0.0
C831 C 0.17756 0.76899 0.39661 0.0
N832 N 0.17511 0.80027 0.24492 0.0
N833 N 0.13162 0.7375 0.67424 0.0
C834 C 0.16296 0.78239 0.34328 0.0
C835 C 0.13997 0.74984 0.56107 0.0
N836 N 0.11908 0.78489 0.3262 0.0
N837 N 0.17287 0.73146 0.53033 0.0
H838 H 0.11419 0.73646 0.72167 0.0
H839 H 0.14312 0.73005 0.72404 0.0
H840 H 0.18874 0.72997 0.48092 0.0
H841 H 0.1625 0.71553 0.59648 0.0
H842 H 0.12359 0.79227 0.23596 0.0
H843 H 0.09873 0.7804 0.35589 0.0
H844 H 0.16831 0.81418 0.21368 0.0
H845 H 0.19276 0.80188 0.19713 0.0
loop_
_geom_bond_atom_site_label_1
_geom_bond_atom_site_label_2
_geom_bond_distance
_geom_bond_site_symmetry_2
_ccdc_geom_bond_type
C0 Eu1 2.835 . S
C0 C2 1.500 . S
C0 O20 1.257 . S
C0 O21 1.260 . S
Eu1 C0 2.835 . S
Eu1 O20 2.473 . S
Eu1 O21 2.480 . S
Eu1 O22 2.430 . S
Eu1 O23 2.670 . S
Eu1 O24 2.394 . S
Eu1 O29 2.355 1_554 S
Eu1 O31 2.374 . S
C2 C0 1.500 . S
C2 C3 1.377 . S
C2 C7 1.377 1_554 S
C3 C2 1.377 . S
C3 C4 1.395 . S
C3 H32 0.931 . S
C4 C3 1.395 . S
C4 C5 1.383 . S
C4 H33 0.931 . S
C5 C4 1.383 . S
C5 C6 1.394 1_554 S
C6 C5 1.394 1_556 S
C6 C7 1.378 . S
C6 H34 0.931 . S
C7 C2 1.377 1_556 S
C7 C6 1.378 . S
C7 H35 0.931 . S
C8 O22 1.259 . S
C8 O23 1.270 . S
C9 O24 1.251 . S
C9 O25 1.251 . S
C10 Eu11 2.835 . S
C10 C12 1.500 . S
C10 O26 1.257 . S
C10 O27 1.260 . S
Eu11 C10 2.835 . S
Eu11 O23 2.355 . S
Eu11 O25 2.374 . S
Eu11 O26 2.473 . S
Eu11 O27 2.480 . S
Eu11 O28 2.430 1_554 S
Eu11 O29 2.670 1_554 S
Eu11 O30 2.394 . S
C12 C10 1.500 . S
C12 C13 1.377 . S
C12 C17 1.377 . S
C13 C12 1.377 . S
C13 C14 1.395 . S
C13 H36 0.931 . S
C14 C13 1.395 . S
C14 C15 1.383 . S
C14 H37 0.931 . S
C15 C14 1.383 . S
C15 C16 1.394 . S
C16 C15 1.394 . S
C16 C17 1.378 . S
C16 H38 0.931 . S
C17 C12 1.377 . S
C17 C16 1.378 . S
C17 H39 0.931 . S
C18 O28 1.259 . S
C18 O29 1.270 . S
C19 O30 1.251 . S
C19 O31 1.251 . S
O20 C0 1.257 . S
O20 Eu1 2.473 . S
O21 C0 1.260 . S
O21 Eu1 2.480 . S
O22 Eu1 2.430 . S
O22 C8 1.259 . S
O23 Eu1 2.670 . S
O23 C8 1.270 . S
O23 Eu11 2.355 . S
O24 Eu1 2.394 . S
O24 C9 1.251 . S
O25 C9 1.251 . S
O25 Eu11 2.374 . S
O26 C10 1.257 . S
O26 Eu11 2.473 . S
O27 C10 1.260 . S
O27 Eu11 2.480 . S
O28 Eu11 2.430 1_556 S
O28 C18 1.259 . S
O29 Eu1 2.355 1_556 S
O29 Eu11 2.670 1_556 S
O29 C18 1.270 . S
O30 Eu11 2.394 . S
O30 C19 1.251 . S
O31 Eu1 2.374 . S
O31 C19 1.251 . S
H32 C3 0.931 . S
H33 C4 0.931 . S
H34 C6 0.931 . S
H35 C7 0.931 . S
H36 C13 0.931 . S
H37 C14 0.931 . S
H38 C16 0.931 . S
H39 C17 0.931 . S
C40 Eu41 2.835 . S
C40 C42 1.500 . S
C40 O60 1.257 . S
C40 O61 1.260 . S
Eu41 C40 2.835 . S
Eu41 O60 2.473 . S
Eu41 O61 2.480 . S
Eu41 O62 2.430 . S
Eu41 O63 2.670 . S
Eu41 O64 2.394 . S
Eu41 O69 2.355 1_554 S
Eu41 O71 2.374 . S
C42 C40 1.500 . S
C42 C43 1.377 . S
C42 C47 1.377 1_554 S
C43 C42 1.377 . S
C43 C44 1.395 . S
C43 H72 0.931 . S
C44 C43 1.395 . S
C44 C45 1.383 . S
C44 H73 0.931 . S
C45 C44 1.383 . S
C45 C46 1.394 1_554 S
C46 C45 1.394 1_556 S
C46 C47 1.378 . S
C46 H74 0.931 . S
C47 C42 1.377 1_556 S
C47 C46 1.378 . S
C47 H75 0.931 . S
C48 O62 1.259 . S
C48 O63 1.270 . S
C49 O64 1.251 . S
C49 O65 1.251 . S
C50 Eu51 2.835 . S
C50 C52 1.500 . S
C50 O66 1.257 . S
C50 O67 1.260 . S
Eu51 C50 2.835 . S
Eu51 O63 2.355 . S
Eu51 O65 2.374 . S
Eu51 O66 2.473 . S
Eu51 O67 2.480 . S
Eu51 O68 2.430 1_554 S
Eu51 O69 2.670 1_554 S
Eu51 O70 2.394 . S
C52 C50 1.500 . S
C52 C53 1.377 . S
C52 C57 1.377 . S
C53 C52 1.377 . S
C53 C54 1.395 . S
C53 H76 0.931 . S
C54 C53 1.395 . S
C54 C55 1.383 . S
C54 H77 0.931 . S
C55 C54 1.383 . S
C55 C56 1.394 . S
C56 C55 1.394 . S
C56 C57 1.378 . S
C56 H78 0.931 . S
C57 C52 1.377 . S
C57 C56 1.378 . S
C57 H79 0.931 . S
C58 O68 1.259 . S
C58 O69 1.270 . S
C59 O70 1.251 . S
C59 O71 1.251 . S
O60 C40 1.257 . S
O60 Eu41 2.473 . S
O61 C40 1.260 . S
O61 Eu41 2.480 . S
O62 Eu41 2.430 . S
O62 C48 1.259 . S
O63 Eu41 2.670 . S
O63 C48 1.270 . S
O63 Eu51 2.355 . S
O64 Eu41 2.394 . S
O64 C49 1.251 . S
O65 C49 1.251 . S
O65 Eu51 2.374 . S
O66 C50 1.257 . S
O66 Eu51 2.473 . S
O67 C50 1.260 . S
O67 Eu51 2.480 . S
O68 Eu51 2.430 1_556 S
O68 C58 1.259 . S
O69 Eu41 2.355 1_556 S
O69 Eu51 2.670 1_556 S
O69 C58 1.270 . S
O70 Eu51 2.394 . S
O70 C59 1.251 . S
O71 Eu41 2.374 . S
O71 C59 1.251 . S
H72 C43 0.931 . S
H73 C44 0.931 . S
H74 C46 0.931 . S
H75 C47 0.931 . S
H76 C53 0.931 . S
H77 C54 0.931 . S
H78 C56 0.931 . S
H79 C57 0.931 . S
C80 Eu81 2.835 . S
C80 C82 1.500 . S
C80 O100 1.257 . S
C80 O101 1.260 . S
Eu81 C80 2.835 . S
Eu81 O100 2.473 . S
Eu81 O101 2.480 . S
Eu81 O102 2.430 . S
Eu81 O103 2.670 . S
Eu81 O104 2.394 . S
Eu81 O109 2.355 1_554 S
Eu81 O111 2.374 . S
C82 C80 1.500 . S
C82 C83 1.377 . S
C82 C87 1.377 1_554 S
C83 C82 1.377 . S
C83 C84 1.395 . S
C83 H112 0.931 . S
C84 C83 1.395 . S
C84 C85 1.383 . S
C84 H113 0.931 . S
C85 C84 1.383 . S
C85 C86 1.394 1_554 S
C86 C85 1.394 1_556 S
C86 C87 1.378 . S
C86 H114 0.931 . S
C87 C82 1.377 1_556 S
C87 C86 1.378 . S
C87 H115 0.931 . S
C88 O102 1.259 . S
C88 O103 1.270 . S
C89 O104 1.251 . S
C89 O105 1.251 . S
C90 Eu91 2.835 . S
C90 C92 1.500 1_545 S
C90 O106 1.257 . S
C90 O107 1.260 . S
Eu91 C90 2.835 . S
Eu91 O103 2.355 . S
Eu91 O105 2.374 . S
Eu91 O106 2.473 . S
Eu91 O107 2.480 . S
Eu91 O108 2.430 1_554 S
Eu91 O109 2.670 1_554 S
Eu91 O110 2.394 . S
C92 C90 1.500 1_565 S
C92 C93 1.377 . S
C92 C97 1.377 1_565 S
C93 C92 1.377 . S
C93 C94 1.395 . S
C93 H116 0.931 . S
C94 C93 1.395 . S
C94 C95 1.383 . S
C94 H117 0.931 . S
C95 C94 1.383 . S
C95 C96 1.394 . S
C96 C95 1.394 . S
C96 C97 1.378 1_565 S
C96 H118 0.931 . S
C97 C92 1.377 1_545 S
C97 C96 1.378 1_545 S
C97 H119 0.931 . S
C98 O108 1.259 . S
C98 O109 1.270 . S
C99 O110 1.251 . S
C99 O111 1.251 . S
O100 C80 1.257 . S
O100 Eu81 2.473 . S
O101 C80 1.260 . S
O101 Eu81 2.480 . S
O102 Eu81 2.430 . S
O102 C88 1.259 . S
O103 Eu81 2.670 . S
O103 C88 1.270 . S
O103 Eu91 2.355 . S
O104 Eu81 2.394 . S
O104 C89 1.251 . S
O105 C89 1.251 . S
O105 Eu91 2.374 . S
O106 C90 1.257 . S
O106 Eu91 2.473 . S
O107 C90 1.260 . S
O107 Eu91 2.480 . S
O108 Eu91 2.430 1_556 S
O108 C98 1.259 . S
O109 Eu81 2.355 1_556 S
O109 Eu91 2.670 1_556 S
O109 C98 1.270 . S
O110 Eu91 2.394 . S
O110 C99 1.251 . S
O111 Eu81 2.374 . S
O111 C99 1.251 . S
H112 C83 0.931 . S
H113 C84 0.931 . S
H114 C86 0.931 . S
H115 C87 0.931 . S
H116 C93 0.931 . S
H117 C94 0.931 . S
H118 C96 0.931 . S
H119 C97 0.931 . S
C120 Eu121 2.835 1_545 S
C120 C122 1.500 . S
C120 O140 1.257 . S
C120 O141 1.260 . S
Eu121 C120 2.835 1_565 S
Eu121 O140 2.473 1_565 S
Eu121 O141 2.480 1_565 S
Eu121 O142 2.430 . S
Eu121 O143 2.670 . S
Eu121 O144 2.394 1_565 S
Eu121 O149 2.355 . S
Eu121 O151 2.374 . S
C122 C120 1.500 . S
C122 C123 1.377 . S
C122 C127 1.377 . S
C123 C122 1.377 . S
C123 C124 1.395 . S
C123 H152 0.931 . S
C124 C123 1.395 . S
C124 C125 1.383 . S
C124 H153 0.931 . S
C125 C124 1.383 . S
C125 C126 1.394 . S
C126 C125 1.394 . S
C126 C127 1.378 . S
C126 H154 0.931 1_554 S
C127 C122 1.377 . S
C127 C126 1.378 . S
C127 H155 0.931 1_554 S
C128 O142 1.259 . S
C128 O143 1.270 . S
C129 O144 1.251 . S
C129 O145 1.251 . S
C130 Eu131 2.835 . S
C130 C132 1.500 . S
C130 O146 1.257 . S
C130 O147 1.260 . S
Eu131 C130 2.835 . S
Eu131 O143 2.355 . S
Eu131 O145 2.374 1_565 S
Eu131 O146 2.473 . S
Eu131 O147 2.480 . S
Eu131 O148 2.430 1_554 S
Eu131 O149 2.670 . S
Eu131 O150 2.394 . S
C132 C130 1.500 . S
C132 C133 1.377 . S
C132 C137 1.377 . S
C133 C132 1.377 . S
C133 C134 1.395 . S
C133 H156 0.931 . S
C134 C133 1.395 . S
C134 C135 1.383 . S
C134 H157 0.931 . S
C135 C134 1.383 . S
C135 C136 1.394 . S
C136 C135 1.394 . S
C136 C137 1.378 . S
C136 H158 0.931 . S
C137 C132 1.377 . S
C137 C136 1.378 . S
C137 H159 0.931 . S
C138 O148 1.259 . S
C138 O149 1.270 1_556 S
C139 O150 1.251 . S
C139 O151 1.251 . S
O140 C120 1.257 . S
O140 Eu121 2.473 1_545 S
O141 C120 1.260 . S
O141 Eu121 2.480 1_545 S
O142 Eu121 2.430 . S
O142 C128 1.259 . S
O143 Eu121 2.670 . S
O143 C128 1.270 . S
O143 Eu131 2.355 . S
O144 Eu121 2.394 1_545 S
O144 C129 1.251 . S
O145 C129 1.251 . S
O145 Eu131 2.374 1_545 S
O146 C130 1.257 . S
O146 Eu131 2.473 . S
O147 C130 1.260 . S
O147 Eu131 2.480 . S
O148 Eu131 2.430 1_556 S
O148 C138 1.259 . S
O149 Eu121 2.355 . S
O149 Eu131 2.670 . S
O149 C138 1.270 1_554 S
O150 Eu131 2.394 . S
O150 C139 1.251 . S
O151 Eu121 2.374 . S
O151 C139 1.251 . S
H152 C123 0.931 . S
H153 C124 0.931 . S
H154 C126 0.931 1_556 S
H155 C127 0.931 1_556 S
H156 C133 0.931 . S
H157 C134 0.931 . S
H158 C136 0.931 . S
H159 C137 0.931 . S
C160 Eu161 2.835 . S
C160 C162 1.500 . S
C160 O180 1.257 . S
C160 O181 1.260 . S
Eu161 C160 2.835 . S
Eu161 O180 2.473 . S
Eu161 O181 2.480 . S
Eu161 O182 2.430 . S
Eu161 O183 2.670 . S
Eu161 O184 2.394 . S
Eu161 O189 2.355 . S
Eu161 O191 2.374 . S
C162 C160 1.500 . S
C162 C163 1.377 . S
C162 C167 1.377 . S
C163 C162 1.377 . S
C163 C164 1.395 . S
C163 H192 0.931 . S
C164 C163 1.395 . S
C164 C165 1.383 . S
C164 H193 0.931 . S
C165 C164 1.383 . S
C165 C166 1.394 . S
C166 C165 1.394 . S
C166 C167 1.378 . S
C166 H194 0.931 1_554 S
C167 C162 1.377 . S
C167 C166 1.378 . S
C167 H195 0.931 1_554 S
C168 O182 1.259 . S
C168 O183 1.270 . S
C169 O184 1.251 . S
C169 O185 1.251 . S
C170 Eu171 2.835 . S
C170 C172 1.500 . S
C170 O186 1.257 . S
C170 O187 1.260 . S
Eu171 C170 2.835 . S
Eu171 O183 2.355 . S
Eu171 O185 2.374 . S
Eu171 O186 2.473 . S
Eu171 O187 2.480 . S
Eu171 O188 2.430 1_554 S
Eu171 O189 2.670 . S
Eu171 O190 2.394 . S
C172 C170 1.500 . S
C172 C173 1.377 . S
C172 C177 1.377 . S
C173 C172 1.377 . S
C173 C174 1.395 . S
C173 H196 0.931 . S
C174 C173 1.395 . S
C174 C175 1.383 . S
C174 H197 0.931 . S
C175 C174 1.383 . S
C175 C176 1.394 . S
C176 C175 1.394 . S
C176 C177 1.378 . S
C176 H198 0.931 . S
C177 C172 1.377 . S
C177 C176 1.378 . S
C177 H199 0.931 . S
C178 O188 1.259 . S
C178 O189 1.270 1_556 S
C179 O190 1.251 . S
C179 O191 1.251 . S
O180 C160 1.257 . S
O180 Eu161 2.473 . S
O181 C160 1.260 . S
O181 Eu161 2.480 . S
O182 Eu161 2.430 . S
O182 C168 1.259 . S
O183 Eu161 2.670 . S
O183 C168 1.270 . S
O183 Eu171 2.355 . S
O184 Eu161 2.394 . S
O184 C169 1.251 . S
O185 C169 1.251 . S
O185 Eu171 2.374 . S
O186 C170 1.257 . S
O186 Eu171 2.473 . S
O187 C170 1.260 . S
O187 Eu171 2.480 . S
O188 Eu171 2.430 1_556 S
O188 C178 1.259 . S
O189 Eu161 2.355 . S
O189 Eu171 2.670 . S
O189 C178 1.270 1_554 S
O190 Eu171 2.394 . S
O190 C179 1.251 . S
O191 Eu161 2.374 . S
O191 C179 1.251 . S
H192 C163 0.931 . S
H193 C164 0.931 . S
H194 C166 0.931 1_556 S
H195 C167 0.931 1_556 S
H196 C173 0.931 . S
H197 C174 0.931 . S
H198 C176 0.931 . S
H199 C177 0.931 . S
C200 Eu201 2.835 . S
C200 C202 1.500 . S
C200 O220 1.257 . S
C200 O221 1.260 . S
Eu201 C200 2.835 . S
Eu201 O220 2.473 . S
Eu201 O221 2.480 . S
Eu201 O222 2.430 . S
Eu201 O223 2.670 . S
Eu201 O224 2.394 . S
Eu201 O229 2.355 . S
Eu201 O231 2.374 . S
C202 C200 1.500 . S
C202 C203 1.377 . S
C202 C207 1.377 . S
C203 C202 1.377 . S
C203 C204 1.395 . S
C203 H232 0.931 . S
C204 C203 1.395 . S
C204 C205 1.383 . S
C204 H233 0.931 . S
C205 C204 1.383 . S
C205 C206 1.394 . S
C206 C205 1.394 . S
C206 C207 1.378 . S
C206 H234 0.931 1_554 S
C207 C202 1.377 . S
C207 C206 1.378 . S
C207 H235 0.931 1_554 S
C208 O222 1.259 . S
C208 O223 1.270 . S
C209 O224 1.251 . S
C209 O225 1.251 . S
C210 Eu211 2.835 . S
C210 C212 1.500 . S
C210 O226 1.257 . S
C210 O227 1.260 . S
Eu211 C210 2.835 . S
Eu211 O223 2.355 . S
Eu211 O225 2.374 . S
Eu211 O226 2.473 . S
Eu211 O227 2.480 . S
Eu211 O228 2.430 1_554 S
Eu211 O229 2.670 . S
Eu211 O230 2.394 . S
C212 C210 1.500 . S
C212 C213 1.377 . S
C212 C217 1.377 . S
C213 C212 1.377 . S
C213 C214 1.395 . S
C213 H236 0.931 . S
C214 C213 1.395 . S
C214 C215 1.383 . S
C214 H237 0.931 . S
C215 C214 1.383 . S
C215 C216 1.394 . S
C216 C215 1.394 . S
C216 C217 1.378 . S
C216 H238 0.931 . S
C217 C212 1.377 . S
C217 C216 1.378 . S
C217 H239 0.931 . S
C218 O228 1.259 . S
C218 O229 1.270 1_556 S
C219 O230 1.251 . S
C219 O231 1.251 . S
O220 C200 1.257 . S
O220 Eu201 2.473 . S
O221 C200 1.260 . S
O221 Eu201 2.480 . S
O222 Eu201 2.430 . S
O222 C208 1.259 . S
O223 Eu201 2.670 . S
O223 C208 1.270 . S
O223 Eu211 2.355 . S
O224 Eu201 2.394 . S
O224 C209 1.251 . S
O225 C209 1.251 . S
O225 Eu211 2.374 . S
O226 C210 1.257 . S
O226 Eu211 2.473 . S
O227 C210 1.260 . S
O227 Eu211 2.480 . S
O228 Eu211 2.430 1_556 S
O228 C218 1.259 . S
O229 Eu201 2.355 . S
O229 Eu211 2.670 . S
O229 C218 1.270 1_554 S
O230 Eu211 2.394 . S
O230 C219 1.251 . S
O231 Eu201 2.374 . S
O231 C219 1.251 . S
H232 C203 0.931 . S
H233 C204 0.931 . S
H234 C206 0.931 1_556 S
H235 C207 0.931 1_556 S
H236 C213 0.931 . S
H237 C214 0.931 . S
H238 C216 0.931 . S
H239 C217 0.931 . S
C240 Eu241 2.835 . S
C240 C242 1.500 . S
C240 O260 1.257 . S
C240 O261 1.260 . S
Eu241 C240 2.835 . S
Eu241 O260 2.473 . S
Eu241 O261 2.480 . S
Eu241 O262 2.430 . S
Eu241 O263 2.670 . S
Eu241 O264 2.394 . S
Eu241 O269 2.355 . S
Eu241 O271 2.374 . S
C242 C240 1.500 . S
C242 C243 1.377 . S
C242 C247 1.377 . S
C243 C242 1.377 . S
C243 C244 1.395 . S
C243 H272 0.931 . S
C244 C243 1.395 . S
C244 C245 1.383 . S
C244 H273 0.931 . S
C245 C244 1.383 . S
C245 C246 1.394 . S
C246 C245 1.394 . S
C246 C247 1.378 . S
C246 H274 0.931 . S
C247 C242 1.377 . S
C247 C246 1.378 . S
C247 H275 0.931 . S
C248 O262 1.259 . S
C248 O263 1.270 . S
C249 O264 1.251 . S
C249 O265 1.251 . S
C250 Eu251 2.835 . S
C250 C252 1.500 . S
C250 O266 1.257 . S
C250 O267 1.260 . S
Eu251 C250 2.835 . S
Eu251 O263 2.355 . S
Eu251 O265 2.374 . S
Eu251 O266 2.473 . S
Eu251 O267 2.480 . S
Eu251 O268 2.430 . S
Eu251 O269 2.670 . S
Eu251 O270 2.394 . S
C252 C250 1.500 . S
C252 C253 1.377 . S
C252 C257 1.377 . S
C253 C252 1.377 . S
C253 C254 1.395 . S
C253 H276 0.931 . S
C254 C253 1.395 . S
C254 C255 1.383 . S
C254 H277 0.931 . S
C255 C254 1.383 . S
C255 C256 1.394 . S
C256 C255 1.394 . S
C256 C257 1.378 . S
C256 H278 0.931 . S
C257 C252 1.377 . S
C257 C256 1.378 . S
C257 H279 0.931 . S
C258 O268 1.259 . S
C258 O269 1.270 . S
C259 O270 1.251 . S
C259 O271 1.251 . S
O260 C240 1.257 . S
O260 Eu241 2.473 . S
O261 C240 1.260 . S
O261 Eu241 2.480 . S
O262 Eu241 2.430 . S
O262 C248 1.259 . S
O263 Eu241 2.670 . S
O263 C248 1.270 . S
O263 Eu251 2.355 . S
O264 Eu241 2.394 . S
O264 C249 1.251 . S
O265 C249 1.251 . S
O265 Eu251 2.374 . S
O266 C250 1.257 . S
O266 Eu251 2.473 . S
O267 C250 1.260 . S
O267 Eu251 2.480 . S
O268 Eu251 2.430 . S
O268 C258 1.259 . S
O269 Eu241 2.355 . S
O269 Eu251 2.670 . S
O269 C258 1.270 . S
O270 Eu251 2.394 . S
O270 C259 1.251 . S
O271 Eu241 2.374 . S
O271 C259 1.251 . S
H272 C243 0.931 . S
H273 C244 0.931 . S
H274 C246 0.931 . S
H275 C247 0.931 . S
H276 C253 0.931 . S
H277 C254 0.931 . S
H278 C256 0.931 . S
H279 C257 0.931 . S
C280 Eu281 2.835 . S
C280 C282 1.500 . S
C280 O300 1.257 . S
C280 O301 1.260 . S
Eu281 C280 2.835 . S
Eu281 O300 2.473 . S
Eu281 O301 2.480 . S
Eu281 O302 2.424 1_455 S
Eu281 O303 2.670 1_455 S
Eu281 O304 2.394 . S
Eu281 O309 2.355 . S
Eu281 O311 2.374 . S
C282 C280 1.500 . S
C282 C283 1.377 . S
C282 C287 1.377 . S
C283 C282 1.377 . S
C283 C284 1.395 . S
C283 H312 0.931 . S
C284 C283 1.395 . S
C284 C285 1.383 . S
C284 H313 0.931 . S
C285 C284 1.383 . S
C285 C286 1.394 . S
C286 C285 1.394 . S
C286 C287 1.378 . S
C286 H314 0.931 . S
C287 C282 1.377 . S
C287 C286 1.378 . S
C287 H315 0.931 . S
C288 O302 1.291 . S
C288 O303 1.270 . S
C289 O304 1.251 . S
C289 O305 1.251 1_455 S
C290 Eu291 2.835 . S
C290 C292 1.500 . S
C290 O306 1.257 . S
C290 O307 1.260 . S
Eu291 C290 2.835 . S
Eu291 O303 2.355 . S
Eu291 O305 2.374 . S
Eu291 O306 2.473 . S
Eu291 O307 2.480 . S
Eu291 O308 2.430 . S
Eu291 O309 2.670 1_655 S
Eu291 O310 2.394 . S
C292 C290 1.500 . S
C292 C293 1.377 . S
C292 C297 1.377 . S
C293 C292 1.377 . S
C293 C294 1.395 . S
C293 H316 0.931 . S
C294 C293 1.395 . S
C294 C295 1.383 . S
C294 H317 0.931 . S
C295 C294 1.383 . S
C295 C296 1.394 . S
C296 C295 1.394 . S
C296 C297 1.378 . S
C296 H318 0.931 . S
C297 C292 1.377 . S
C297 C296 1.378 . S
C297 H319 0.931 . S
C298 O308 1.259 1_455 S
C298 O309 1.270 . S
C299 O310 1.251 . S
C299 O311 1.251 1_655 S
O300 C280 1.257 . S
O300 Eu281 2.473 . S
O301 C280 1.260 . S
O301 Eu281 2.480 . S
O302 Eu281 2.424 1_655 S
O302 C288 1.291 . S
O303 Eu281 2.670 1_655 S
O303 C288 1.270 . S
O303 Eu291 2.355 . S
O304 Eu281 2.394 . S
O304 C289 1.251 . S
O305 C289 1.251 1_655 S
O305 Eu291 2.374 . S
O306 C290 1.257 . S
O306 Eu291 2.473 . S
O307 C290 1.260 . S
O307 Eu291 2.480 . S
O308 Eu291 2.430 . S
O308 C298 1.259 1_655 S
O309 Eu281 2.355 . S
O309 Eu291 2.670 1_455 S
O309 C298 1.270 . S
O310 Eu291 2.394 . S
O310 C299 1.251 . S
O311 Eu281 2.374 . S
O311 C299 1.251 1_455 S
H312 C283 0.931 . S
H313 C284 0.931 . S
H314 C286 0.931 . S
H315 C287 0.931 . S
H316 C293 0.931 . S
H317 C294 0.931 . S
H318 C296 0.931 . S
H319 C297 0.931 . S
C320 Eu321 2.835 1_655 S
C320 C322 1.500 . S
C320 O340 1.257 . S
C320 O341 1.260 1_655 S
Eu321 C320 2.835 1_455 S
Eu321 O340 2.473 1_455 S
Eu321 O341 2.480 . S
Eu321 O342 2.430 . S
Eu321 O343 2.670 . S
Eu321 O344 2.391 . S
Eu321 O349 2.355 1_455 S
Eu321 O351 2.374 . S
C322 C320 1.500 . S
C322 C323 1.377 . S
C322 C327 1.377 . S
C323 C322 1.377 . S
C323 C324 1.395 . S
C323 H352 0.931 1_655 S
C324 C323 1.395 . S
C324 C325 1.383 . S
C324 H353 0.931 1_655 S
C325 C324 1.383 . S
C325 C326 1.394 . S
C326 C325 1.394 . S
C326 C327 1.378 . S
C326 H354 0.931 . S
C327 C322 1.377 . S
C327 C326 1.378 . S
C327 H355 0.931 . S
C328 O342 1.259 . S
C328 O343 1.270 . S
C329 O344 1.250 1_655 S
C329 O345 1.251 . S
C330 Eu331 2.835 1_455 S
C330 C332 1.500 . S
C330 O346 1.257 . S
C330 O347 1.260 1_455 S
Eu331 C330 2.835 1_655 S
Eu331 O343 2.355 1_655 S
Eu331 O345 2.374 . S
Eu331 O346 2.473 1_655 S
Eu331 O347 2.480 . S
Eu331 O348 2.430 . S
Eu331 O349 2.670 . S
Eu331 O350 2.394 . S
C332 C330 1.500 . S
C332 C333 1.371 1_455 S
C332 C337 1.377 . S
C333 C332 1.371 1_655 S
C333 C334 1.381 1_655 S
C333 H356 0.951 . S
C334 C333 1.381 1_455 S
C334 C335 1.383 . S
C334 H357 0.931 1_455 S
C335 C334 1.383 . S
C335 C336 1.394 . S
C336 C335 1.394 . S
C336 C337 1.378 . S
C336 H358 0.931 . S
C337 C332 1.377 . S
C337 C336 1.378 . S
C337 H359 0.931 . S
C338 O348 1.259 . S
C338 O349 1.270 . S
C339 O350 1.251 1_455 S
C339 O351 1.251 . S
O340 C320 1.257 . S
O340 Eu321 2.473 1_655 S
O341 C320 1.260 1_455 S
O341 Eu321 2.480 . S
O342 Eu321 2.430 . S
O342 C328 1.259 . S
O343 Eu321 2.670 . S
O343 C328 1.270 . S
O343 Eu331 2.355 1_455 S
O344 Eu321 2.391 . S
O344 C329 1.250 1_455 S
O345 C329 1.251 . S
O345 Eu331 2.374 . S
O346 C330 1.257 . S
O346 Eu331 2.473 1_455 S
O347 C330 1.260 1_655 S
O347 Eu331 2.480 . S
O348 Eu331 2.430 . S
O348 C338 1.259 . S
O349 Eu321 2.355 1_655 S
O349 Eu331 2.670 . S
O349 C338 1.270 . S
O350 Eu331 2.394 . S
O350 C339 1.251 1_655 S
O351 Eu321 2.374 . S
O351 C339 1.251 . S
H352 C323 0.931 1_455 S
H353 C324 0.931 1_455 S
H354 C326 0.931 . S
H355 C327 0.931 . S
H356 C333 0.951 . S
H357 C334 0.931 1_655 S
H358 C336 0.931 . S
H359 C337 0.931 . S
C360 C361 1.363 . S
C360 C366 1.379 . S
C360 N368 1.356 . S
C361 C360 1.363 . S
C361 C367 1.363 . S
C362 C363 1.363 . S
C362 C367 1.379 . S
C362 N369 1.356 . S
C363 C362 1.363 . S
C363 C366 1.363 . S
N364 C366 1.356 . S
N364 H376 0.984 . S
N364 H377 0.985 . S
N365 C367 1.356 . S
N365 H370 0.984 . S
N365 H371 0.985 . S
C366 C360 1.379 . S
C366 C363 1.363 . S
C366 N364 1.356 . S
C367 C361 1.363 . S
C367 C362 1.379 . S
C367 N365 1.356 . S
N368 C360 1.356 . S
N368 H374 0.984 . S
N368 H375 0.984 . S
N369 C362 1.356 . S
N369 H372 0.984 . S
N369 H373 0.985 . S
H370 N365 0.984 . S
H371 N365 0.985 . S
H372 N369 0.984 . S
H373 N369 0.985 . S
H374 N368 0.984 . S
H375 N368 0.984 . S
H376 N364 0.984 . S
H377 N364 0.985 . S
C378 C379 1.363 . S
C378 C384 1.379 . S
C378 N386 1.356 . S
C379 C378 1.363 . S
C379 C385 1.363 . S
C380 C381 1.363 . S
C380 C385 1.379 . S
C380 N387 1.356 . S
C381 C380 1.363 . S
C381 C384 1.363 . S
N382 C384 1.356 . S
N382 H394 0.984 . S
N382 H395 0.985 . S
N383 C385 1.356 . S
N383 H388 0.984 . S
N383 H389 0.985 . S
C384 C378 1.379 . S
C384 C381 1.363 . S
C384 N382 1.356 . S
C385 C379 1.363 . S
C385 C380 1.379 . S
C385 N383 1.356 . S
N386 C378 1.356 . S
N386 H392 0.984 . S
N386 H393 0.984 . S
N387 C380 1.356 . S
N387 H390 0.984 . S
N387 H391 0.985 . S
H388 N383 0.984 . S
H389 N383 0.985 . S
H390 N387 0.984 . S
H391 N387 0.985 . S
H392 N386 0.984 . S
H393 N386 0.984 . S
H394 N382 0.984 . S
H395 N382 0.985 . S
C396 C397 1.363 . S
C396 C402 1.379 . S
C396 N404 1.356 . S
C397 C396 1.363 . S
C397 C403 1.363 . S
C398 C399 1.363 . S
C398 C403 1.379 . S
C398 N405 1.356 . S
C399 C398 1.363 . S
C399 C402 1.363 . S
N400 C402 1.356 . S
N400 H412 0.984 . S
N400 H413 0.985 . S
N401 C403 1.356 . S
N401 H406 0.984 . S
N401 H407 0.985 . S
C402 C396 1.379 . S
C402 C399 1.363 . S
C402 N400 1.356 . S
C403 C397 1.363 . S
C403 C398 1.379 . S
C403 N401 1.356 . S
N404 C396 1.356 . S
N404 H410 0.984 . S
N404 H411 0.984 . S
N405 C398 1.356 . S
N405 H408 0.984 . S
N405 H409 0.985 . S
H406 N401 0.984 . S
H407 N401 0.985 . S
H408 N405 0.984 . S
H409 N405 0.985 . S
H410 N404 0.984 . S
H411 N404 0.984 . S
H412 N400 0.984 . S
H413 N400 0.985 . S
C414 C415 1.363 . S
C414 C420 1.379 . S
C414 N422 1.356 . S
C415 C414 1.363 . S
C415 C421 1.363 1_565 S
C416 C417 1.363 1_545 S
C416 C421 1.379 . S
C416 N423 1.356 . S
C417 C416 1.363 1_565 S
C417 C420 1.363 . S
N418 C420 1.356 . S
N418 H430 0.984 . S
N418 H431 0.985 . S
N419 C421 1.356 . S
N419 H424 0.984 . S
N419 H425 0.985 . S
C420 C414 1.379 . S
C420 C417 1.363 . S
C420 N418 1.356 . S
C421 C415 1.363 1_545 S
C421 C416 1.379 . S
C421 N419 1.356 . S
N422 C414 1.356 . S
N422 H428 0.984 . S
N422 H429 0.984 . S
N423 C416 1.356 . S
N423 H426 0.984 . S
N423 H427 0.985 . S
H424 N419 0.984 . S
H425 N419 0.985 . S
H426 N423 0.984 . S
H427 N423 0.985 . S
H428 N422 0.984 . S
H429 N422 0.984 . S
H430 N418 0.984 . S
H431 N418 0.985 . S
C432 C433 1.363 . S
C432 C438 1.379 . S
C432 N440 1.356 . S
C433 C432 1.363 . S
C433 C439 1.363 . S
C434 C435 1.363 . S
C434 C439 1.379 . S
C434 N441 1.356 . S
C435 C434 1.363 . S
C435 C438 1.363 . S
N436 C438 1.356 . S
N436 H448 0.984 . S
N436 H449 0.985 . S
N437 C439 1.356 . S
N437 H442 0.984 . S
N437 H443 0.985 . S
C438 C432 1.379 . S
C438 C435 1.363 . S
C438 N436 1.356 . S
C439 C433 1.363 . S
C439 C434 1.379 . S
C439 N437 1.356 . S
N440 C432 1.356 . S
N440 H446 0.984 . S
N440 H447 0.984 . S
N441 C434 1.356 . S
N441 H444 0.984 . S
N441 H445 0.985 . S
H442 N437 0.984 . S
H443 N437 0.985 . S
H444 N441 0.984 . S
H445 N441 0.985 . S
H446 N440 0.984 . S
H447 N440 0.984 . S
H448 N436 0.984 . S
H449 N436 0.985 . S
C450 C451 1.363 . S
C450 C456 1.379 . S
C450 N458 1.356 . S
C451 C450 1.363 . S
C451 C457 1.363 . S
C452 C453 1.363 . S
C452 C457 1.379 . S
C452 N459 1.356 . S
C453 C452 1.363 . S
C453 C456 1.363 . S
N454 C456 1.356 . S
N454 H466 0.984 . S
N454 H467 0.985 . S
N455 C457 1.356 . S
N455 H460 0.984 . S
N455 H461 0.985 . S
C456 C450 1.379 . S
C456 C453 1.363 . S
C456 N454 1.356 . S
C457 C451 1.363 . S
C457 C452 1.379 . S
C457 N455 1.356 . S
N458 C450 1.356 . S
N458 H464 0.984 . S
N458 H465 0.984 . S
N459 C452 1.356 . S
N459 H462 0.984 . S
N459 H463 0.985 . S
H460 N455 0.984 . S
H461 N455 0.985 . S
H462 N459 0.984 . S
H463 N459 0.985 . S
H464 N458 0.984 . S
H465 N458 0.984 . S
H466 N454 0.984 . S
H467 N454 0.985 . S
C468 C469 1.363 . S
C468 C474 1.379 . S
C468 N476 1.356 . S
C469 C468 1.363 . S
C469 C475 1.363 . S
C470 C471 1.363 . S
C470 C475 1.379 . S
C470 N477 1.356 1_554 S
C471 C470 1.363 . S
C471 C474 1.363 . S
N472 C474 1.356 . S
N472 H484 0.984 . S
N472 H485 0.985 . S
N473 C475 1.356 . S
N473 H478 0.984 . S
N473 H479 0.985 . S
C474 C468 1.379 . S
C474 C471 1.363 . S
C474 N472 1.356 . S
C475 C469 1.363 . S
C475 C470 1.379 . S
C475 N473 1.356 . S
N476 C468 1.356 . S
N476 H482 0.984 . S
N476 H483 0.984 . S
N477 C470 1.356 1_556 S
N477 H480 0.984 . S
N477 H481 0.985 . S
H478 N473 0.984 . S
H479 N473 0.985 . S
H480 N477 0.984 . S
H481 N477 0.985 . S
H482 N476 0.984 . S
H483 N476 0.984 . S
H484 N472 0.984 . S
H485 N472 0.985 . S
C486 C487 1.363 . S
C486 C492 1.376 1_455 S
C486 N494 1.356 . S
C487 C486 1.363 . S
C487 C493 1.363 1_455 S
C488 C489 1.363 . S
C488 C493 1.379 . S
C488 N495 1.356 . S
C489 C488 1.363 . S
C489 C492 1.373 . S
N490 C492 1.352 . S
N490 H502 0.984 1_655 S
N490 H503 0.985 1_554 S
N491 C493 1.361 1_455 S
N491 H496 0.991 . S
N491 H497 0.974 1_455 S
C492 C486 1.376 1_655 S
C492 C489 1.373 . S
C492 N490 1.352 . S
C493 C487 1.363 1_655 S
C493 C488 1.379 . S
C493 N491 1.361 1_655 S
N494 C486 1.356 . S
N494 H500 0.984 . S
N494 H501 0.984 . S
N495 C488 1.356 . S
N495 H498 0.984 1_554 S
N495 H499 0.985 . S
H496 N491 0.991 . S
H497 N491 0.974 1_655 S
H498 N495 0.984 1_556 S
H499 N495 0.985 . S
H500 N494 0.984 . S
H501 N494 0.984 . S
H502 N490 0.984 1_455 S
H503 N490 0.985 1_556 S
C504 C505 1.363 . S
C504 C510 1.379 1_655 S
C504 N512 1.356 . S
C505 C504 1.363 . S
C505 C511 1.363 . S
C506 C507 1.363 . S
C506 C511 1.379 1_455 S
C506 N513 1.356 . S
C507 C506 1.363 . S
C507 C510 1.363 . S
N508 C510 1.356 1_556 S
N508 H520 0.984 . S
N508 H521 0.985 . S
N509 C511 1.356 . S
N509 H514 0.984 . S
N509 H515 0.985 . S
C510 C504 1.379 1_455 S
C510 C507 1.363 . S
C510 N508 1.356 1_554 S
C511 C505 1.363 . S
C511 C506 1.379 1_655 S
C511 N509 1.356 . S
N512 C504 1.356 . S
N512 H518 0.984 . S
N512 H519 0.984 . S
N513 C506 1.356 . S
N513 H516 0.984 1_554 S
N513 H517 0.985 . S
H514 N509 0.984 . S
H515 N509 0.985 . S
H516 N513 0.984 1_556 S
H517 N513 0.985 . S
H518 N512 0.984 . S
H519 N512 0.984 . S
H520 N508 0.984 . S
H521 N508 0.985 . S
C522 C523 1.363 . S
C522 C528 1.379 . S
C522 N530 1.356 . S
C523 C522 1.363 . S
C523 C529 1.363 . S
C524 C525 1.363 . S
C524 C529 1.379 . S
C524 N531 1.356 . S
C525 C524 1.363 . S
C525 C528 1.363 . S
N526 C528 1.356 . S
N526 H538 0.984 1_554 S
N526 H539 0.985 . S
N527 C529 1.356 . S
N527 H532 0.984 . S
N527 H533 0.985 . S
C528 C522 1.379 . S
C528 C525 1.363 . S
C528 N526 1.356 . S
C529 C523 1.363 . S
C529 C524 1.379 . S
C529 N527 1.356 . S
N530 C522 1.356 . S
N530 H536 0.984 1_554 S
N530 H537 0.984 . S
N531 C524 1.356 . S
N531 H534 0.984 . S
N531 H535 0.985 . S
H532 N527 0.984 . S
H533 N527 0.985 . S
H534 N531 0.984 . S
H535 N531 0.985 . S
H536 N530 0.984 1_556 S
H537 N530 0.984 . S
H538 N526 0.984 1_556 S
H539 N526 0.985 . S
C540 C541 1.363 . S
C540 C546 1.379 . S
C540 N548 1.356 . S
C541 C540 1.363 . S
C541 C547 1.363 . S
C542 C543 1.363 . S
C542 C547 1.379 . S
C542 N549 1.356 . S
C543 C542 1.363 . S
C543 C546 1.363 . S
N544 C546 1.356 . S
N544 H556 0.984 1_554 S
N544 H557 0.985 . S
N545 C547 1.356 . S
N545 H550 0.984 . S
N545 H551 0.985 . S
C546 C540 1.379 . S
C546 C543 1.363 . S
C546 N544 1.356 . S
C547 C541 1.363 . S
C547 C542 1.379 . S
C547 N545 1.356 . S
N548 C540 1.356 . S
N548 H554 0.984 . S
N548 H555 0.984 . S
N549 C542 1.356 . S
N549 H552 0.984 . S
N549 H553 0.985 . S
H550 N545 0.984 . S
H551 N545 0.985 . S
H552 N549 0.984 . S
H553 N549 0.985 . S
H554 N548 0.984 . S
H555 N548 0.984 . S
H556 N544 0.984 1_556 S
H557 N544 0.985 . S
C558 C559 1.363 . S
C558 C564 1.379 . S
C558 N566 1.356 . S
C559 C558 1.363 . S
C559 C565 1.363 . S
C560 C561 1.363 . S
C560 C565 1.379 . S
C560 N567 1.356 . S
C561 C560 1.363 . S
C561 C564 1.363 . S
N562 C564 1.356 . S
N562 H574 0.984 . S
N562 H575 0.985 . S
N563 C565 1.356 . S
N563 H568 0.984 . S
N563 H569 0.985 1_554 S
C564 C558 1.379 . S
C564 C561 1.363 . S
C564 N562 1.356 . S
C565 C559 1.363 . S
C565 C560 1.379 . S
C565 N563 1.356 . S
N566 C558 1.356 . S
N566 H572 0.984 . S
N566 H573 0.984 . S
N567 C560 1.356 . S
N567 H570 0.984 . S
N567 H571 0.985 1_554 S
H568 N563 0.984 . S
H569 N563 0.985 1_556 S
H570 N567 0.984 . S
H571 N567 0.985 1_556 S
H572 N566 0.984 . S
H573 N566 0.984 . S
H574 N562 0.984 . S
H575 N562 0.985 . S
C576 C577 1.359 1_556 S
C576 C582 1.379 . S
C576 N584 1.356 . S
C577 C576 1.359 1_554 S
C577 C583 1.364 . S
C578 C579 1.363 . S
C578 C583 1.379 1_556 S
C578 N585 1.356 . S
C579 C578 1.363 . S
C579 C582 1.363 . S
N580 C582 1.356 . S
N580 H592 0.984 . S
N580 H593 0.985 . S
N581 C583 1.356 . S
N581 H586 0.984 . S
N581 H587 0.985 . S
C582 C576 1.379 . S
C582 C579 1.363 . S
C582 N580 1.356 . S
C583 C577 1.364 . S
C583 C578 1.379 1_554 S
C583 N581 1.356 . S
N584 C576 1.356 . S
N584 H590 0.984 . S
N584 H591 0.984 . S
N585 C578 1.356 . S
N585 H588 0.984 . S
N585 H589 0.985 1_556 S
H586 N581 0.984 . S
H587 N581 0.985 . S
H588 N585 0.984 . S
H589 N585 0.985 1_554 S
H590 N584 0.984 . S
H591 N584 0.984 . S
H592 N580 0.984 . S
H593 N580 0.985 . S
C594 C595 1.363 . S
C594 C600 1.379 . S
C594 N602 1.356 . S
C595 C594 1.363 . S
C595 C601 1.363 . S
C596 C597 1.364 . S
C596 C601 1.379 1_554 S
C596 N603 1.356 . S
C597 C596 1.364 . S
C597 C600 1.360 1_554 S
N598 C600 1.356 . S
N598 H610 0.984 . S
N598 H611 0.985 . S
N599 C601 1.356 . S
N599 H604 0.984 . S
N599 H605 0.985 1_556 S
C600 C594 1.379 . S
C600 C597 1.360 1_556 S
C600 N598 1.356 . S
C601 C595 1.363 . S
C601 C596 1.379 1_556 S
C601 N599 1.356 . S
N602 C594 1.356 . S
N602 H608 0.984 . S
N602 H609 0.984 . S
N603 C596 1.356 . S
N603 H606 0.984 . S
N603 H607 0.985 . S
H604 N599 0.984 . S
H605 N599 0.985 1_554 S
H606 N603 0.984 . S
H607 N603 0.985 . S
H608 N602 0.984 . S
H609 N602 0.984 . S
H610 N598 0.984 . S
H611 N598 0.985 . S
C612 C613 1.363 . S
C612 C618 1.379 1_556 S
C612 N620 1.356 . S
C613 C612 1.363 . S
C613 C619 1.363 . S
C614 C615 1.362 1_556 S
C614 C619 1.379 . S
C614 N621 1.356 . S
C615 C614 1.362 1_554 S
C615 C618 1.363 . S
N616 C618 1.356 . S
N616 H628 0.984 . S
N616 H629 0.985 . S
N617 C619 1.356 . S
N617 H622 0.984 . S
N617 H623 0.985 . S
C618 C612 1.379 1_554 S
C618 C615 1.363 . S
C618 N616 1.356 . S
C619 C613 1.363 . S
C619 C614 1.379 . S
C619 N617 1.356 . S
N620 C612 1.356 . S
N620 H626 0.984 . S
N620 H627 0.984 . S
N621 C614 1.356 . S
N621 H624 0.984 . S
N621 H625 0.985 . S
H622 N617 0.984 . S
H623 N617 0.985 . S
H624 N621 0.984 . S
H625 N621 0.985 . S
H626 N620 0.984 . S
H627 N620 0.984 . S
H628 N616 0.984 . S
H629 N616 0.985 . S
C630 C631 1.363 . S
C630 C636 1.379 . S
C630 N638 1.356 . S
C631 C630 1.363 . S
C631 C637 1.363 1_554 S
C632 C633 1.363 1_556 S
C632 C637 1.379 . S
C632 N639 1.356 . S
C633 C632 1.363 1_554 S
C633 C636 1.363 . S
N634 C636 1.356 . S
N634 H646 0.984 . S
N634 H647 0.985 . S
N635 C637 1.356 . S
N635 H640 0.984 . S
N635 H641 0.985 . S
C636 C630 1.379 . S
C636 C633 1.363 . S
C636 N634 1.356 . S
C637 C631 1.363 1_556 S
C637 C632 1.379 . S
C637 N635 1.356 . S
N638 C630 1.356 . S
N638 H644 0.984 . S
N638 H645 0.984 . S
N639 C632 1.356 . S
N639 H642 0.984 . S
N639 H643 0.985 . S
H640 N635 0.984 . S
H641 N635 0.985 . S
H642 N639 0.984 . S
H643 N639 0.985 . S
H644 N638 0.984 . S
H645 N638 0.984 . S
H646 N634 0.984 . S
H647 N634 0.985 . S
C648 C649 1.363 . S
C648 C654 1.379 . S
C648 N656 1.356 . S
C649 C648 1.363 . S
C649 C655 1.363 1_554 S
C650 C651 1.363 1_556 S
C650 C655 1.379 . S
C650 N657 1.356 . S
C651 C650 1.363 1_554 S
C651 C654 1.363 . S
N652 C654 1.356 . S
N652 H664 0.984 . S
N652 H665 0.985 . S
N653 C655 1.356 . S
N653 H658 0.984 . S
N653 H659 0.985 . S
C654 C648 1.379 . S
C654 C651 1.363 . S
C654 N652 1.356 . S
C655 C649 1.363 1_556 S
C655 C650 1.379 . S
C655 N653 1.356 . S
N656 C648 1.356 . S
N656 H662 0.984 . S
N656 H663 0.984 . S
N657 C650 1.356 . S
N657 H660 0.984 . S
N657 H661 0.985 . S
H658 N653 0.984 . S
H659 N653 0.985 . S
H660 N657 0.984 . S
H661 N657 0.985 . S
H662 N656 0.984 . S
H663 N656 0.984 . S
H664 N652 0.984 . S
H665 N652 0.985 . S
C666 C667 1.363 1_556 S
C666 C672 1.379 . S
C666 N674 1.356 . S
C667 C666 1.363 1_554 S
C667 C673 1.363 . S
C668 C669 1.363 . S
C668 C673 1.379 . S
C668 N675 1.356 . S
C669 C668 1.363 . S
C669 C672 1.363 1_554 S
N670 C672 1.356 . S
N670 H682 0.984 . S
N670 H683 0.985 . S
N671 C673 1.356 . S
N671 H676 0.984 . S
N671 H677 0.985 . S
C672 C666 1.379 . S
C672 C669 1.363 1_556 S
C672 N670 1.356 . S
C673 C667 1.363 . S
C673 C668 1.379 . S
C673 N671 1.356 . S
N674 C666 1.356 . S
N674 H680 0.984 . S
N674 H681 0.984 . S
N675 C668 1.356 . S
N675 H678 0.984 . S
N675 H679 0.985 . S
H676 N671 0.984 . S
H677 N671 0.985 . S
H678 N675 0.984 . S
H679 N675 0.985 . S
H680 N674 0.984 . S
H681 N674 0.984 . S
H682 N670 0.984 . S
H683 N670 0.985 . S
C684 C685 1.363 . S
C684 C690 1.379 . S
C684 N692 1.356 . S
C685 C684 1.363 . S
C685 C691 1.363 . S
C686 C687 1.363 . S
C686 C691 1.379 . S
C686 N693 1.356 . S
C687 C686 1.363 . S
C687 C690 1.363 . S
N688 C690 1.356 . S
N688 H700 0.984 1_554 S
N688 H701 0.985 . S
N689 C691 1.356 . S
N689 H694 0.984 . S
N689 H695 0.985 1_545 S
C690 C684 1.379 . S
C690 C687 1.363 . S
C690 N688 1.356 . S
C691 C685 1.363 . S
C691 C686 1.379 . S
C691 N689 1.356 . S
N692 C684 1.356 . S
N692 H698 0.984 . S
N692 H699 0.984 . S
N693 C686 1.356 . S
N693 H696 0.984 . S
N693 H697 0.985 . S
H694 N689 0.984 . S
H695 N689 0.985 1_565 S
H696 N693 0.984 . S
H697 N693 0.985 . S
H698 N692 0.984 . S
H699 N692 0.984 . S
H700 N688 0.984 1_556 S
H701 N688 0.985 . S
C702 C703 1.363 . S
C702 C708 1.379 . S
C702 N710 1.356 . S
C703 C702 1.363 . S
C703 C709 1.363 . S
C704 C705 1.363 . S
C704 C709 1.379 . S
C704 N711 1.356 1_554 S
C705 C704 1.363 . S
C705 C708 1.363 . S
N706 C708 1.356 . S
N706 H718 0.984 . S
N706 H719 0.985 . S
N707 C709 1.356 1_556 S
N707 H712 0.984 . S
N707 H713 0.985 . S
C708 C702 1.379 . S
C708 C705 1.363 . S
C708 N706 1.356 . S
C709 C703 1.363 . S
C709 C704 1.379 . S
C709 N707 1.356 1_554 S
N710 C702 1.356 . S
N710 H716 0.984 . S
N710 H717 0.984 . S
N711 C704 1.356 1_556 S
N711 H714 0.984 1_556 S
N711 H715 0.985 . S
H712 N707 0.984 . S
H713 N707 0.985 . S
H714 N711 0.984 1_554 S
H715 N711 0.985 . S
H716 N710 0.984 . S
H717 N710 0.984 . S
H718 N706 0.984 . S
H719 N706 0.985 . S
C720 C721 1.363 . S
C720 C726 1.379 . S
C720 N728 1.356 . S
C721 C720 1.363 . S
C721 C727 1.363 . S
C722 C723 1.363 . S
C722 C727 1.379 . S
C722 N729 1.356 . S
C723 C722 1.363 . S
C723 C726 1.363 . S
N724 C726 1.356 . S
N724 H736 0.984 1_554 S
N724 H737 0.985 . S
N725 C727 1.356 . S
N725 H730 0.984 . S
N725 H731 0.985 . S
C726 C720 1.379 . S
C726 C723 1.363 . S
C726 N724 1.356 . S
C727 C721 1.363 . S
C727 C722 1.379 . S
C727 N725 1.356 . S
N728 C720 1.356 . S
N728 H734 0.984 1_554 S
N728 H735 0.984 . S
N729 C722 1.356 . S
N729 H732 0.984 . S
N729 H733 0.985 . S
H730 N725 0.984 . S
H731 N725 0.985 . S
H732 N729 0.984 . S
H733 N729 0.985 . S
H734 N728 0.984 1_556 S
H735 N728 0.984 . S
H736 N724 0.984 1_556 S
H737 N724 0.985 . S
C738 C739 1.363 . S
C738 C744 1.379 . S
C738 N746 1.356 . S
C739 C738 1.363 . S
C739 C745 1.363 . S
C740 C741 1.363 . S
C740 C745 1.379 . S
C740 N747 1.356 . S
C741 C740 1.363 . S
C741 C744 1.363 . S
N742 C744 1.356 . S
N742 H754 0.984 . S
N742 H755 0.985 . S
N743 C745 1.356 . S
N743 H748 0.984 . S
N743 H749 0.985 . S
C744 C738 1.379 . S
C744 C741 1.363 . S
C744 N742 1.356 . S
C745 C739 1.363 . S
C745 C740 1.379 . S
C745 N743 1.356 . S
N746 C738 1.356 . S
N746 H752 0.984 . S
N746 H753 0.984 . S
N747 C740 1.356 . S
N747 H750 0.984 . S
N747 H751 0.985 . S
H748 N743 0.984 . S
H749 N743 0.985 . S
H750 N747 0.984 . S
H751 N747 0.985 . S
H752 N746 0.984 . S
H753 N746 0.984 . S
H754 N742 0.984 . S
H755 N742 0.985 . S
C756 C757 1.363 . S
C756 C762 1.379 1_545 S
C756 N764 1.356 . S
C757 C756 1.363 . S
C757 C763 1.363 . S
C758 C759 1.363 1_545 S
C758 C763 1.379 . S
C758 N765 1.356 1_545 S
C759 C758 1.363 1_565 S
C759 C762 1.363 . S
N760 C762 1.356 . S
N760 H772 0.984 . S
N760 H773 0.985 . S
N761 C763 1.356 . S
N761 H766 0.984 . S
N761 H767 0.985 . S
C762 C756 1.379 1_565 S
C762 C759 1.363 . S
C762 N760 1.356 . S
C763 C757 1.363 . S
C763 C758 1.379 . S
C763 N761 1.356 . S
N764 C756 1.356 . S
N764 H770 0.984 . S
N764 H771 0.984 . S
N765 C758 1.356 1_565 S
N765 H768 0.984 . S
N765 H769 0.985 1_565 S
H766 N761 0.984 . S
H767 N761 0.985 . S
H768 N765 0.984 . S
H769 N765 0.985 1_545 S
H770 N764 0.984 . S
H771 N764 0.984 . S
H772 N760 0.984 . S
H773 N760 0.985 . S
C774 C775 1.363 . S
C774 C780 1.379 . S
C774 N782 1.356 . S
C775 C774 1.363 . S
C775 C781 1.363 . S
C776 C777 1.363 . S
C776 C781 1.379 . S
C776 N783 1.356 . S
C777 C776 1.363 . S
C777 C780 1.363 . S
N778 C780 1.356 . S
N778 H790 0.984 . S
N778 H791 0.985 . S
N779 C781 1.356 . S
N779 H784 0.984 . S
N779 H785 0.985 . S
C780 C774 1.379 . S
C780 C777 1.363 . S
C780 N778 1.356 . S
C781 C775 1.363 . S
C781 C776 1.379 . S
C781 N779 1.356 . S
N782 C774 1.356 . S
N782 H788 0.984 . S
N782 H789 0.984 . S
N783 C776 1.356 . S
N783 H786 0.984 . S
N783 H787 0.985 . S
H784 N779 0.984 . S
H785 N779 0.985 . S
H786 N783 0.984 . S
H787 N783 0.985 . S
H788 N782 0.984 . S
H789 N782 0.984 . S
H790 N778 0.984 . S
H791 N778 0.985 . S
C792 C793 1.363 . S
C792 C798 1.379 . S
C792 N800 1.356 . S
C793 C792 1.363 . S
C793 C799 1.363 . S
C794 C795 1.363 . S
C794 C799 1.379 . S
C794 N801 1.356 . S
C795 C794 1.363 . S
C795 C798 1.363 . S
N796 C798 1.356 . S
N796 H808 0.984 . S
N796 H809 0.985 . S
N797 C799 1.356 . S
N797 H802 0.984 . S
N797 H803 0.985 . S
C798 C792 1.379 . S
C798 C795 1.363 . S
C798 N796 1.356 . S
C799 C793 1.363 . S
C799 C794 1.379 . S
C799 N797 1.356 . S
N800 C792 1.356 . S
N800 H806 0.984 . S
N800 H807 0.984 . S
N801 C794 1.356 . S
N801 H804 0.984 . S
N801 H805 0.985 . S
H802 N797 0.984 . S
H803 N797 0.985 . S
H804 N801 0.984 . S
H805 N801 0.985 . S
H806 N800 0.984 . S
H807 N800 0.984 . S
H808 N796 0.984 . S
H809 N796 0.985 . S
C810 C811 1.363 . S
C810 C816 1.379 . S
C810 N818 1.356 . S
C811 C810 1.363 . S
C811 C817 1.363 . S
C812 C813 1.363 . S
C812 C817 1.379 . S
C812 N819 1.356 . S
C813 C812 1.363 . S
C813 C816 1.363 . S
N814 C816 1.356 . S
N814 H826 0.984 . S
N814 H827 0.985 . S
N815 C817 1.356 . S
N815 H820 0.984 . S
N815 H821 0.985 . S
C816 C810 1.379 . S
C816 C813 1.363 . S
C816 N814 1.356 . S
C817 C811 1.363 . S
C817 C812 1.379 . S
C817 N815 1.356 . S
N818 C810 1.356 . S
N818 H824 0.984 . S
N818 H825 0.984 . S
N819 C812 1.356 . S
N819 H822 0.984 . S
N819 H823 0.985 . S
H820 N815 0.984 . S
H821 N815 0.985 . S
H822 N819 0.984 . S
H823 N819 0.985 . S
H824 N818 0.984 . S
H825 N818 0.984 . S
H826 N814 0.984 . S
H827 N814 0.985 . S
C828 C829 1.363 . S
C828 C834 1.379 . S
C828 N836 1.356 . S
C829 C828 1.363 . S
C829 C835 1.363 . S
C830 C831 1.363 . S
C830 C835 1.379 . S
C830 N837 1.356 . S
C831 C830 1.363 . S
C831 C834 1.363 . S
N832 C834 1.356 . S
N832 H844 0.984 . S
N832 H845 0.985 . S
N833 C835 1.356 . S
N833 H838 0.984 . S
N833 H839 0.985 . S
C834 C828 1.379 . S
C834 C831 1.363 . S
C834 N832 1.356 . S
C835 C829 1.363 . S
C835 C830 1.379 . S
C835 N833 1.356 . S
N836 C828 1.356 . S
N836 H842 0.984 . S
N836 H843 0.984 . S
N837 C830 1.356 . S
N837 H840 0.984 . S
N837 H841 0.985 . S
H838 N833 0.984 . S
H839 N833 0.985 . S
H840 N837 0.984 . S
H841 N837 0.985 . S
H842 N836 0.984 . S
H843 N836 0.984 . S
H844 N832 0.984 . S
H845 N832 0.985 . S
C361 C18 1.575 . S
C363 C8 1.575 . S
C379 C58 1.575 . S
C381 C48 1.575 . S
C397 C98 1.575 . S
C399 C88 1.575 . S
C415 C128 1.575 . S
C417 C138 1.575 . S
C433 C168 1.575 . S
C435 C178 1.575 . S
C451 C208 1.575 . S
C453 C218 1.575 . S
C469 C249 1.479 . S
C471 C259 1.479 1_554 S
C487 C289 1.479 . S
C489 C299 1.479 1_554 S
C505 C329 1.479 . S
C507 C339 1.479 1_554 S
C523 C219 2.681 . S
C525 C15 2.601 . S
C541 C55 2.601 . S
C543 C139 2.681 . S
C559 C95 2.601 . S
C561 C179 2.680 . S
C577 C99 2.305 . S
C579 C258 2.532 . S
C595 C298 2.531 . S
C597 C19 2.304 . S
C613 C338 2.531 . S
C615 C59 2.303 . S
C631 C335 1.123 1_554 S
C633 C5 1.114 . S
C649 C45 1.114 . S
C651 C255 1.122 1_554 S
C667 C295 1.122 1_554 S
C669 C85 1.114 . S
C685 C89 2.681 . S
C687 C125 2.602 . S
C703 C165 2.601 . S
C705 C9 2.681 . S
C721 C49 2.681 . S
C723 C205 2.601 . S
C739 C325 1.122 . S
C741 C135 1.114 . S
C757 C245 1.122 . S
C759 C175 1.114 . S
C775 C285 1.122 . S
C777 C215 1.114 . S
C793 C248 2.532 . S
C795 C209 2.303 . S
C811 C129 2.303 . S
C813 C288 2.532 . S
C829 C328 2.531 . S
C831 C169 2.302 . S
