# Generated by pormake.
# Topology smk, (6)-cn, num edge types: 1
# Building blocks:
#     Node 0, Type 0, BuildingBlock: FUNLAD_clean_sbu_0, # of connection points: 6
#     Node 1, Type 0, BuildingBlock: FUNLAD_clean_sbu_0, # of connection points: 6
#     Node 2, Type 0, BuildingBlock: FUNLAD_clean_sbu_0, # of connection points: 6
#     Node 3, Type 0, BuildingBlock: FUNLAD_clean_sbu_0, # of connection points: 6
#     Node 4, Type 0, BuildingBlock: FUNLAD_clean_sbu_0, # of connection points: 6
#     Node 5, Type 0, BuildingBlock: FUNLAD_clean_sbu_0, # of connection points: 6
#     Edge 6, Type (0, 0), BuildingBlock: CIFDUS_clean_linker_0, # of connection points: 2
#     Edge 7, Type (0, 0), BuildingBlock: CIFDUS_clean_linker_0, # of connection points: 2
#     Edge 8, Type (0, 0), BuildingBlock: CIFDUS_clean_linker_0, # of connection points: 2
#     Edge 9, Type (0, 0), BuildingBlock: CIFDUS_clean_linker_0, # of connection points: 2
#     Edge 10, Type (0, 0), BuildingBlock: CIFDUS_clean_linker_0, # of connection points: 2
#     Edge 11, Type (0, 0), BuildingBlock: CIFDUS_clean_linker_0, # of connection points: 2
#     Edge 12, Type (0, 0), BuildingBlock: CIFDUS_clean_linker_0, # of connection points: 2
#     Edge 13, Type (0, 0), BuildingBlock: CIFDUS_clean_linker_0, # of connection points: 2
#     Edge 14, Type (0, 0), BuildingBlock: CIFDUS_clean_linker_0, # of connection points: 2
#     Edge 15, Type (0, 0), BuildingBlock: CIFDUS_clean_linker_0, # of connection points: 2
#     Edge 16, Type (0, 0), BuildingBlock: CIFDUS_clean_linker_0, # of connection points: 2
#     Edge 17, Type (0, 0), BuildingBlock: CIFDUS_clean_linker_0, # of connection points: 2
#     Edge 18, Type (0, 0), BuildingBlock: CIFDUS_clean_linker_0, # of connection points: 2
#     Edge 19, Type (0, 0), BuildingBlock: CIFDUS_clean_linker_0, # of connection points: 2
#     Edge 20, Type (0, 0), BuildingBlock: CIFDUS_clean_linker_0, # of connection points: 2
#     Edge 21, Type (0, 0), BuildingBlock: CIFDUS_clean_linker_0, # of connection points: 2
#     Edge 22, Type (0, 0), BuildingBlock: CIFDUS_clean_linker_0, # of connection points: 2
#     Edge 23, Type (0, 0), BuildingBlock: CIFDUS_clean_linker_0, # of connection points: 2
# Relax obj value: 0.426
# Max RMSD: 0.248
# Mean RMSD: 0.248
data_MOF--net-smk--node1-FUNLAD_clean_sbu_0--edge1-CIFDUS_clean_linker_0
_symmetry_space_group_name_H-M    P1
_symmetry_Int_Tables_number       1
_symmetry_cell_setting            triclinic
loop_
_symmetry_equiv_pos_as_xyz
'x, y, z'
_cell_length_a     42.841559
_cell_length_b     43.245311
_cell_length_c     13.431448
_cell_angle_alpha  90.477593
_cell_angle_beta   88.884427
_cell_angle_gamma 119.86114
loop_
_atom_site_label
_atom_site_type_symbol
_atom_site_fract_x
_atom_site_fract_y
_atom_site_fract_z
_atom_type_partial_charge
C0 C 0.48275 0.29671 0.32981 0.0
N1 N 0.54519 0.36858 0.54336 0.0
C2 C 0.57222 0.37176 0.48157 0.0
C3 C 0.6023 0.40469 0.46279 0.0
C4 C 0.60512 0.43537 0.50689 0.0
C5 C 0.57772 0.4317 0.57361 0.0
C6 C 0.54751 0.39772 0.59035 0.0
Zn7 Zn 0.50095 0.3178 0.54151 0.0
C8 C 0.4304 0.31653 0.54242 0.0
N9 N 0.41364 0.21042 0.50754 0.0
C10 C 0.42118 0.19446 0.43026 0.0
C11 C 0.38428 0.19126 0.56803 0.0
C12 C 0.36224 0.15427 0.55353 0.0
C13 C 0.37083 0.1375 0.47623 0.0
C14 C 0.39987 0.15834 0.41241 0.0
Zn15 Zn 0.45389 0.26262 0.52715 0.0
O16 O 0.50514 0.32157 0.38428 0.0
C17 C 0.52422 0.26352 0.54277 0.0
O18 O 0.45784 0.26885 0.37064 0.0
H19 H 0.37895 0.2042 0.62999 0.0
H20 H 0.57009 0.34882 0.44299 0.0
H21 H 0.44513 0.20916 0.38475 0.0
O22 O 0.53598 0.29677 0.54788 0.0
O23 O 0.49097 0.24286 0.52772 0.0
H24 H 0.52563 0.39482 0.63831 0.0
O25 O 0.45071 0.25836 0.6839 0.0
O26 O 0.496 0.31345 0.69747 0.0
O27 O 0.41751 0.28297 0.53295 0.0
O28 O 0.46443 0.33721 0.54276 0.0
C29 C 0.47207 0.28451 0.73805 0.0
H30 H 0.62313 0.40611 0.41272 0.0
H31 H 0.57911 0.45484 0.60963 0.0
H32 H 0.34014 0.13877 0.60495 0.0
H33 H 0.40741 0.14634 0.35231 0.0
C34 C 0.29527 0.46397 0.91762 0.0
N35 N 0.37713 0.53711 0.73374 0.0
C36 C 0.39902 0.53915 0.80882 0.0
C37 C 0.428 0.5721 0.83665 0.0
C38 C 0.43438 0.60317 0.78685 0.0
C39 C 0.41322 0.59978 0.70424 0.0
C40 C 0.38459 0.56638 0.67894 0.0
Zn41 Zn 0.3276 0.49191 0.72056 0.0
C42 C 0.33332 0.42567 0.71227 0.0
N43 N 0.22237 0.39886 0.70555 0.0
C44 C 0.20006 0.40138 0.77471 0.0
C45 C 0.21003 0.37006 0.64399 0.0
C46 C 0.17392 0.34251 0.65129 0.0
C47 C 0.1508 0.34455 0.72378 0.0
C48 C 0.16445 0.3745 0.78564 0.0
Zn49 Zn 0.27401 0.44236 0.70579 0.0
O50 O 0.32237 0.49013 0.8769 0.0
C51 C 0.27007 0.51 0.70051 0.0
O52 O 0.27146 0.44019 0.86321 0.0
H53 H 0.228 0.36856 0.58892 0.0
H54 H 0.3926 0.51561 0.85176 0.0
H55 H 0.20969 0.42465 0.82164 0.0
O56 O 0.30373 0.52395 0.71192 0.0
O57 O 0.25062 0.47624 0.70156 0.0
H58 H 0.36694 0.56426 0.61956 0.0
O59 O 0.27811 0.44542 0.54969 0.0
O60 O 0.33186 0.49299 0.56366 0.0
O61 O 0.29918 0.40988 0.70332 0.0
O62 O 0.35083 0.45929 0.72468 0.0
C63 C 0.30665 0.47038 0.50931 0.0
H64 H 0.44354 0.57349 0.90089 0.0
H65 H 0.41762 0.62302 0.66266 0.0
H66 H 0.16422 0.31991 0.60139 0.0
H67 H 0.1474 0.3777 0.84052 0.0
C68 C 0.80007 0.22106 0.69039 0.0
N69 N 0.71348 0.20217 0.87244 0.0
C70 C 0.69433 0.18469 0.79061 0.0
C71 C 0.66717 0.1907 0.75648 0.0
C72 C 0.65958 0.21475 0.8075 0.0
C73 C 0.67686 0.229 0.89816 0.0
C74 C 0.70393 0.22242 0.92927 0.0
Zn75 Zn 0.76434 0.20929 0.88708 0.0
C76 C 0.76621 0.14229 0.87953 0.0
N77 N 0.87348 0.23117 0.90384 0.0
C78 C 0.89645 0.25884 0.84422 0.0
C79 C 0.88503 0.21145 0.95336 0.0
C80 C 0.92093 0.21923 0.94255 0.0
C81 C 0.94472 0.24706 0.87884 0.0
C82 C 0.93205 0.26709 0.83025 0.0
Zn83 Zn 0.82083 0.22036 0.90263 0.0
O84 O 0.77058 0.21451 0.73157 0.0
C85 C 0.81536 0.28634 0.92172 0.0
O86 O 0.82582 0.22528 0.74451 0.0
H87 H 0.86636 0.18944 -2e-05 0.0
H88 H 0.7023 0.16871 0.74629 0.0
H89 H 0.88701 0.27436 0.8056 0.0
O90 O 0.78331 0.26322 0.90166 0.0
O91 O 0.83918 0.27694 0.92301 0.0
H92 H 0.71945 0.23614 -0.00604 0.0
O93 O 0.81492 0.2151 0.05785 0.0
O94 O 0.75917 0.20436 0.04491 0.0
O95 O 0.80001 0.16306 0.89007 0.0
O96 O 0.74549 0.15533 0.8746 0.0
C97 C 0.78521 0.20863 0.09882 0.0
H98 H 0.65455 0.17906 0.6864 0.0
H99 H 0.67123 0.247 0.94121 0.0
H100 H 0.92979 0.20327 -0.01819 0.0
H101 H 0.94965 0.28926 0.78229 0.0
C102 C 0.63006 0.8633 0.21508 0.0
N103 N 0.56207 0.86903 0.01358 0.0
C104 C 0.53974 0.84578 0.08442 0.0
C105 C 0.50732 0.84354 0.10956 0.0
C106 C 0.49597 0.86434 0.05958 0.0
C107 C 0.51921 0.88858 -0.01339 0.0
C108 C 0.55258 0.89058 -0.03532 0.0
Zn109 Zn 0.60926 0.86665 0.00415 0.0
C110 C 0.67653 0.93571 0.0061 0.0
N111 N 0.69999 0.85089 0.02495 0.0
C112 C 0.69519 0.82516 0.09098 0.0
C113 C 0.73113 0.86888 -0.02953 0.0
C114 C 0.75867 0.86048 -0.01946 0.0
C115 C 0.75358 0.83323 0.04654 0.0
C116 C 0.72163 0.81605 0.10322 0.0
Zn117 Zn 0.65652 0.85833 0.01668 0.0
O118 O 0.6091 0.86817 0.16104 0.0
C119 C 0.58848 0.78904 0.00064 0.0
O120 O 0.65371 0.85787 0.17394 0.0
H121 H 0.73442 0.88932 0.91854 0.0
H122 H 0.54703 0.82878 0.12402 0.0
H123 H 0.67046 0.81117 0.13407 0.0
O124 O 0.57688 0.81082 0.00079 0.0
O125 O 0.62201 0.8011 0.0099 0.0
H126 H 0.57069 0.90923 0.90931 0.0
O127 O 0.65881 0.85922 0.86056 0.0
O128 O 0.61124 0.86597 0.84764 0.0
O129 O 0.69005 0.91553 0.0176 0.0
O130 O 0.64251 0.92207 0.00085 0.0
C131 C 0.63647 0.86249 0.80681 0.0
H132 H 0.49131 0.82546 0.16897 0.0
H133 H 0.5116 0.90538 0.94665 0.0
H134 H 0.78309 0.87434 0.93576 0.0
H135 H 0.71693 0.79539 0.15638 0.0
C136 C 0.86727 0.60202 0.07548 0.0
N137 N 0.86362 0.52957 0.27677 0.0
C138 C 0.83796 0.50814 0.21137 0.0
C139 C 0.83642 0.47735 0.17526 0.0
C140 C 0.86039 0.46661 0.20913 0.0
C141 C 0.88576 0.48828 0.28073 0.0
C142 C 0.88721 0.52009 0.31282 0.0
Zn143 Zn 0.86778 0.57929 0.28631 0.0
C144 C 0.94331 0.63865 0.2733 0.0
N145 N 0.87228 0.68014 0.26595 0.0
C146 C 0.88939 0.70246 0.18768 0.0
C147 C 0.8488 0.6845 0.32587 0.0
C148 C 0.83833 0.70915 0.30068 0.0
C149 C 0.85232 0.72945 0.21354 0.0
C150 C 0.87968 0.72758 0.15981 0.0
Zn151 Zn 0.87077 0.63222 0.27296 0.0
O152 O 0.86682 0.57818 0.13018 0.0
C153 C 0.79508 0.57263 0.29428 0.0
O154 O 0.86864 0.62925 0.11574 0.0
H155 H 0.83533 0.66637 0.38724 0.0
H156 H 0.81998 0.51612 0.18041 0.0
H157 H 0.90789 0.69844 0.14088 0.0
O158 O 0.81116 0.55476 0.29642 0.0
O159 O 0.81312 0.60619 0.28305 0.0
H160 H 0.90801 0.53777 0.36305 0.0
O161 O 0.87274 0.63418 0.42865 0.0
O162 O 0.86927 0.58176 0.44315 0.0
O163 O 0.92808 0.65742 0.26682 0.0
O164 O 0.92412 0.60489 0.27994 0.0
C165 C 0.87143 0.60962 0.48314 0.0
H166 H 0.8174 0.46328 0.11703 0.0
H167 H 0.90481 0.48131 0.30998 0.0
H168 H 0.81699 0.7099 0.34334 0.0
H169 H 0.8907 0.74266 0.09161 0.0
C170 C 0.23395 0.78367 0.52937 0.0
N171 N 0.2147 0.69871 0.34834 0.0
C172 C 0.23591 0.68928 0.29467 0.0
C173 C 0.24141 0.66192 0.32827 0.0
C174 C 0.22491 0.64417 0.41781 0.0
C175 C 0.19982 0.65157 0.46489 0.0
C176 C 0.19509 0.67915 0.42861 0.0
Zn177 Zn 0.22339 0.74963 0.33326 0.0
C178 C 0.15615 0.75323 0.33836 0.0
N179 N 0.24708 0.85813 0.31704 0.0
C180 C 0.27435 0.87831 0.37982 0.0
C181 C 0.22958 0.87241 0.26839 0.0
C182 C 0.23966 0.90848 0.28266 0.0
C183 C 0.26757 0.9296 0.34869 0.0
C184 C 0.28436 0.91355 0.39836 0.0
Zn185 Zn 0.23459 0.80559 0.31703 0.0
O186 O 0.22758 0.75458 0.48924 0.0
C187 C 0.30126 0.80002 0.29801 0.0
O188 O 0.23826 0.80918 0.47444 0.0
H189 H 0.20772 0.85588 0.21939 0.0
H190 H 0.25126 0.70511 0.23109 0.0
H191 H 0.2881 0.86687 0.41834 0.0
O192 O 0.27841 0.76788 0.3183 0.0
O193 O 0.29103 0.82299 0.29713 0.0
H194 H 0.17846 0.68713 0.47051 0.0
O195 O 0.23024 0.8007 0.16149 0.0
O196 O 0.21945 0.74546 0.17655 0.0
O197 O 0.17787 0.78667 0.32991 0.0
O198 O 0.16853 0.73201 0.34405 0.0
C199 C 0.22384 0.77129 0.12175 0.0
H200 H 0.26042 0.6565 0.28859 0.0
H201 H 0.18654 0.63854 0.53404 0.0
H202 H 0.22593 0.91963 0.2423 0.0
H203 H 0.30498 0.92782 0.45283 0.0
H204 H 0.44024 0.24747 0.19457 0.0
H205 H 0.53186 0.35354 0.21939 0.0
H206 H 0.53649 0.35908 0.03827 0.0
H207 H 0.51456 0.33387 0.8734 0.0
H208 H 0.42309 0.22768 0.84873 0.0
H209 H 0.41842 0.22221 0.02976 0.0
C210 C 0.46121 0.27183 0.16044 0.0
C211 C 0.48561 0.30006 0.22035 0.0
C212 C 0.46377 0.27484 0.05645 0.0
C213 C 0.5127 0.3314 0.17494 0.0
C214 C 0.51538 0.33461 0.07141 0.0
C215 C 0.49357 0.30952 0.90751 0.0
C216 C 0.46921 0.28125 0.84759 0.0
C217 C 0.49105 0.3065 0.01152 0.0
C218 C 0.44221 0.24987 0.89309 0.0
C219 C 0.4395 0.24669 -0.0034 0.0
H220 H 0.25776 0.42816 0.37277 0.0
H221 H 0.36372 0.52038 0.40017 0.0
H222 H 0.3693 0.52677 0.21947 0.0
H223 H 0.34415 0.50629 0.05394 0.0
H224 H 0.23824 0.41403 0.02663 0.0
H225 H 0.23263 0.40769 0.20737 0.0
C226 C 0.28212 0.44962 0.3393 0.0
C227 C 0.31026 0.4737 0.39988 0.0
C228 C 0.28515 0.45323 0.23545 0.0
C229 C 0.34163 0.50141 0.35526 0.0
C230 C 0.34486 0.50515 0.25192 0.0
C231 C 0.31979 0.48486 0.08751 0.0
C232 C 0.29168 0.46071 0.02698 0.0
C233 C 0.31677 0.48125 0.19137 0.0
C234 C 0.26033 0.43298 0.07158 0.0
C235 C 0.25708 0.42931 0.17491 0.0
H236 H 0.8376 0.22434 0.23316 0.0
H237 H 0.72508 0.19242 0.2111 0.0
H238 H 0.72012 0.19443 0.39214 0.0
H239 H 0.74771 0.20546 0.55619 0.0
H240 H 0.86026 0.23749 0.57826 0.0
H241 H 0.86523 0.23551 0.39716 0.0
C242 C 0.81191 0.21762 0.26784 0.0
C243 C 0.78173 0.20812 0.20859 0.0
C244 C 0.80931 0.21912 0.37181 0.0
C245 C 0.74873 0.19973 0.25488 0.0
C246 C 0.74588 0.20097 0.3584 0.0
C247 C 0.7734 0.21221 0.52146 0.0
C248 C 0.80358 0.22167 0.58068 0.0
C249 C 0.77602 0.21076 0.41749 0.0
C250 C 0.83661 0.23015 0.53442 0.0
C251 C 0.83947 0.22894 0.4309 0.0
H252 H 0.67201 0.85665 0.35235 0.0
H253 H 0.57998 0.87129 0.32265 0.0
H254 H 0.57385 0.8724 0.50317 0.0
H255 H 0.59452 0.86921 0.66938 0.0
H256 H 0.68666 0.85471 0.69897 0.0
H257 H 0.69276 0.85359 0.51853 0.0
C258 C 0.65062 0.86008 0.38538 0.0
C259 C 0.62657 0.86392 0.32427 0.0
C260 C 0.64722 0.86074 0.48919 0.0
C261 C 0.59896 0.86835 0.36811 0.0
C262 C 0.59538 0.86897 0.47134 0.0
C263 C 0.61593 0.86581 0.63639 0.0
C264 C 0.64003 0.86204 0.69753 0.0
C265 C 0.61936 0.8652 0.53257 0.0
C266 C 0.66768 0.85768 0.6536 0.0
C267 C 0.67123 0.85702 0.55038 0.0
H268 H 0.86566 0.56194 0.6232 0.0
H269 H 0.87751 0.66648 0.588 0.0
H270 H 0.87678 0.6732 0.76799 0.0
H271 H 0.87281 0.64956 0.93559 0.0
H272 H 0.86089 0.545 -0.02907 0.0
H273 H 0.86152 0.53822 0.79085 0.0
C274 C 0.86817 0.58621 0.6549 0.0
C275 C 0.87169 0.61362 0.59227 0.0
C276 C 0.86762 0.58994 0.75856 0.0
C277 C 0.87481 0.64491 0.63452 0.0
C278 C 0.87435 0.64882 0.73751 0.0
C279 C 0.87025 0.62527 0.90385 0.0
C280 C 0.86684 0.59791 -0.03354 0.0
C281 C 0.87073 0.6215 0.80022 0.0
C282 C 0.86362 0.56657 0.92431 0.0
C283 C 0.86399 0.56261 0.8213 0.0
H284 H 0.23963 0.82283 -0.01611 0.0
H285 H 0.20679 0.71131 0.01396 0.0
H286 H 0.20784 0.70555 0.83329 0.0
H287 H 0.21822 0.73213 0.66704 0.0
H288 H 0.25118 0.84368 0.63701 0.0
H289 H 0.25016 0.84944 0.81773 0.0
C290 C 0.23253 0.79721 0.951 0.0
C291 C 0.22307 0.76755 0.01235 0.0
C292 C 0.23342 0.79411 0.84716 0.0
C293 C 0.21414 0.73459 -0.03154 0.0
C294 C 0.21479 0.73126 0.86514 0.0
C295 C 0.22535 0.75775 0.7 0.0
C296 C 0.23479 0.78741 0.63871 0.0
C297 C 0.22451 0.76086 0.80385 0.0
C298 C 0.2438 0.8204 0.68256 0.0
C299 C 0.24317 0.82373 0.78587 0.0
H300 H 0.29991 0.08753 0.4425 0.0
H301 H 0.40509 0.10021 0.48805 0.0
H302 H 0.38292 0.03816 0.44447 0.0
H303 H 0.33571 0.98213 0.38376 0.0
H304 H 0.2279 0.96446 0.35389 0.0
H305 H 0.24943 0.02717 0.39558 0.0
C306 C 0.31756 0.0763 0.44478 0.0
C307 C 0.35411 0.09834 0.46776 0.0
C308 C 0.30452 0.04018 0.41965 0.0
C309 C 0.37692 0.08372 0.46999 0.0
C310 C 0.36436 0.04835 0.44448 0.0
C311 C 0.31642 0.99139 0.38874 0.0
C312 C 0.28002 0.96812 0.36714 0.0
C313 C 0.32848 0.0266 0.41758 0.0
C314 C 0.25614 0.98165 0.36937 0.0
C315 C 0.26836 0.01745 0.3945 0.0
H316 H 0.44853 0.37821 0.63692 0.0
H317 H 0.35825 0.28741 0.50401 0.0
H318 H 0.31904 0.31172 0.55094 0.0
H319 H 0.31113 0.36008 0.62697 0.0
H320 H 0.40234 0.44918 0.76379 0.0
H321 H 0.44017 0.42383 0.7197 0.0
C322 C 0.42033 0.36381 0.61725 0.0
C323 C 0.40648 0.33137 0.56543 0.0
C324 C 0.39796 0.37744 0.64646 0.0
C325 C 0.36966 0.31265 0.54294 0.0
C326 C 0.34723 0.32647 0.57019 0.0
C327 C 0.33911 0.37358 0.64854 0.0
C328 C 0.35383 0.4066 0.69833 0.0
C329 C 0.3611 0.35892 0.62207 0.0
C330 C 0.39026 0.42386 0.72509 0.0
C331 C 0.41205 0.40947 0.69952 0.0
H332 H 0.98215 0.25934 0.70394 0.0
H333 H 0.99327 0.25668 0.02166 0.0
H334 H 0.0584 0.28236 4e-05 0.0
H335 H 0.11263 0.31263 0.89259 0.0
H336 H 0.10168 0.31661 0.57526 0.0
H337 H 0.03604 0.28276 0.59446 0.0
C338 C 0.99884 0.26398 0.76828 0.0
C339 C 0.983 0.2566 0.86444 0.0
C340 C 0.03627 0.27911 0.75525 0.0
C341 C 1.00479 0.26211 0.94701 0.0
C342 C 0.04205 0.27701 0.93466 0.0
C343 C 0.09582 0.3055 0.8275 0.0
C344 C 0.11194 0.31743 0.7327 0.0
C345 C 0.05816 0.28665 0.83945 0.0
C346 C 0.08994 0.30763 0.64886 0.0
C347 C 0.05241 0.2886 0.66 0.0
H348 H 0.66051 0.97765 0.89797 0.0
H349 H 0.74548 0.98014 0.07059 0.0
H350 H 0.78306 0.04448 0.03897 0.0
H351 H 0.78987 0.10084 -0.03109 0.0
H352 H 0.70403 0.09555 0.79311 0.0
H353 H 0.66907 0.03144 0.81754 0.0
C354 C 0.6872 0.99226 0.9292 0.0
C355 C 0.69992 0.9744 -0.01169 0.0
C356 C 0.70867 0.02874 0.9091 0.0
C357 C 0.73495 0.99348 0.02579 0.0
C358 C 0.75644 0.03019 0.00744 0.0
C359 C 0.76388 0.08545 0.93431 0.0
C360 C 0.74947 0.103 0.87988 0.0
C361 C 0.74344 0.04824 0.94976 0.0
C362 C 0.71562 0.08276 0.83599 0.0
C363 C 0.69548 0.04607 0.85025 0.0
H364 H 0.87463 0.79986 0.17591 0.0
H365 H 0.78522 0.69295 0.14667 0.0
H366 H 0.74853 0.71585 0.07756 0.0
H367 H 0.73999 0.76576 0.03921 0.0
H368 H 0.82643 0.87352 0.07819 0.0
H369 H 0.86667 0.8511 0.12656 0.0
C370 C 0.84721 0.78184 0.15358 0.0
C371 C 0.83225 0.74491 0.16739 0.0
C372 C 0.82591 0.79531 0.11539 0.0
C373 C 0.79687 0.72152 0.13787 0.0
C374 C 0.77599 0.73454 0.09808 0.0
C375 C 0.76777 0.78437 0.05749 0.0
C376 C 0.78017 0.82112 0.05669 0.0
C377 C 0.78995 0.77132 0.08859 0.0
C378 C 0.81635 0.84504 0.07836 0.0
C379 C 0.83918 0.83221 0.10697 0.0
H380 H 0.9927 0.70978 0.28818 0.0
H381 H 0.98288 0.60539 0.27613 0.0
H382 H 0.04724 0.63178 0.30007 0.0
H383 H 0.10591 0.68368 0.32543 0.0
H384 H 0.11785 0.78884 0.33434 0.0
H385 H 0.05286 0.7628 0.31193 0.0
C386 C 1.00472 0.69287 0.29002 0.0
C387 C 0.9829 0.65563 0.28024 0.0
C388 C 0.04199 0.70823 0.30437 0.0
C389 C 0.99891 0.63409 0.28335 0.0
C390 C 0.03576 0.64913 0.29741 0.0
C391 C 0.09442 0.70107 0.32325 0.0
C392 C 0.11673 0.73818 0.33217 0.0
C393 C 0.05744 0.68606 0.30862 0.0
C394 C 0.10126 0.76016 0.32819 0.0
C395 C 0.06414 0.74529 0.31491 0.0
H396 H 0.63185 0.46023 0.32288 0.0
H397 H 0.65039 0.48831 0.63332 0.0
H398 H 0.71027 0.53838 0.59126 0.0
H399 H 0.76074 0.56736 0.46873 0.0
H400 H 0.74314 0.53483 0.1615 0.0
H401 H 0.67949 0.49322 0.19895 0.0
C402 C 0.64881 0.47772 0.38115 0.0
C403 C 0.63705 0.47031 0.48121 0.0
C404 C 0.6835 0.50534 0.35672 0.0
C405 C 0.65888 0.49348 0.55585 0.0
C406 C 0.69324 0.52185 0.53182 0.0
C407 C 0.74252 0.55185 0.40989 0.0
C408 C 0.75607 0.55417 0.3124 0.0
C409 C 0.70634 0.52709 0.43299 0.0
C410 C 0.73287 0.53358 0.23661 0.0
C411 C 0.69666 0.50971 0.25825 0.0
H412 H 0.30747 0.57659 0.62559 0.0
H413 H 0.1992 0.49313 0.69428 0.0
H414 H 0.17521 0.52744 0.61363 0.0
H415 H 0.18536 0.57999 0.5146 0.0
H416 H 0.29429 0.6609 0.44014 0.0
H417 H 0.31756 0.62834 0.5302 0.0
C418 C 0.2786 0.56607 0.62471 0.0
C419 C 0.25518 0.53248 0.66684 0.0
C420 C 0.26508 0.58517 0.57499 0.0
C421 C 0.21783 0.51907 0.66312 0.0
C422 C 0.20412 0.53855 0.61632 0.0
C423 C 0.21415 0.59039 0.5182 0.0
C424 C 0.23799 0.62258 0.46926 0.0
C425 C 0.22751 0.57137 0.57028 0.0
C426 C 0.27527 0.63577 0.4748 0.0
C427 C 0.28867 0.61738 0.52732 0.0
H428 H 0.5968 0.17776 0.70358 0.0
H429 H 0.67448 0.28358 0.80157 0.0
H430 H 0.64134 0.30806 0.72021 0.0
H431 H 0.5899 0.29977 0.62549 0.0
H432 H 0.51042 0.19438 0.53026 0.0
H433 H 0.5453 0.16966 0.60331 0.0
C434 C 0.60647 0.20617 0.70687 0.0
C435 C 0.63782 0.22863 0.76024 0.0
C436 C 0.58728 0.22029 0.65917 0.0
C437 C 0.64995 0.26543 0.76362 0.0
C438 C 0.63125 0.2796 0.71598 0.0
C439 C 0.58038 0.27143 0.61909 0.0
C440 C 0.54764 0.24901 0.57193 0.0
C441 C 0.59986 0.25731 0.66395 0.0
C442 C 0.53563 0.2123 0.56564 0.0
C443 C 0.55543 0.19811 0.6081 0.0
H444 H 0.5188 0.76019 0.95053 0.0
H445 H 0.60179 0.73282 -0.00843 0.0
H446 H 0.56124 0.67232 0.93055 0.0
H447 H 0.50278 0.62817 0.85702 0.0
H448 H 0.42206 0.65845 0.8117 0.0
H449 H 0.46151 0.71706 0.88126 0.0
C450 C 0.52811 0.74101 0.94734 0.0
C451 C 0.56335 0.75111 -0.02404 0.0
C452 C 0.50519 0.7069 0.90962 0.0
C453 C 0.57477 0.72576 -0.02951 0.0
C454 C 0.55165 0.69123 0.93499 0.0
C455 C 0.4939 0.64764 0.86264 0.0
C456 C 0.45966 0.63903 0.82769 0.0
C457 C 0.51693 0.68166 0.90283 0.0
C458 C 0.44854 0.66456 0.83561 0.0
C459 C 0.47095 0.69802 0.87635 0.0
H460 H 0.80189 0.40755 0.13661 0.0
H461 H 0.91569 0.45082 0.18227 0.0
H462 H 0.91283 0.3994 0.09572 0.0
H463 H 0.87742 0.34224 0.0015 0.0
H464 H 0.76668 0.30858 0.9335 0.0
H465 H 0.77005 0.35784 0.02748 0.0
C466 C 0.82667 0.40693 0.12533 0.0
C467 C 0.85911 0.43399 0.1649 0.0
C468 C 0.82559 0.37913 0.06895 0.0
C469 C 0.89008 0.43057 0.15386 0.0
C470 C 0.88863 0.40134 0.10277 0.0
C471 C 0.85435 0.3462 0.00551 0.0
C472 C 0.82174 0.32121 -0.039 0.0
C473 C 0.85652 0.37561 0.05856 0.0
C474 C 0.79213 0.32693 -0.03286 0.0
C475 C 0.79382 0.35507 0.02175 0.0
H476 H 0.43534 0.80212 0.09619 0.0
H477 H 0.47526 0.91535 0.08497 0.0
H478 H 0.41819 0.90597 0.15907 0.0
H479 H 0.35812 0.86506 0.23785 0.0
H480 H 0.32484 0.7532 0.26614 0.0
H481 H 0.37912 0.76304 0.17996 0.0
C482 C 0.4319 0.82498 0.11074 0.0
C483 C 0.45989 0.85946 0.08679 0.0
C484 C 0.4005 0.81968 0.15919 0.0
C485 C 0.45418 0.88848 0.10245 0.0
C486 C 0.42176 0.88314 0.14626 0.0
C487 C 0.36307 0.843 0.22636 0.0
C488 C 0.33726 0.80843 0.25895 0.0
C489 C 0.39503 0.84886 0.17735 0.0
C490 C 0.34408 0.78013 0.24279 0.0
C491 C 0.37505 0.78559 0.19249 0.0
loop_
_geom_bond_atom_site_label_1
_geom_bond_atom_site_label_2
_geom_bond_distance
_geom_bond_site_symmetry_2
_ccdc_geom_bond_type
C0 O16 1.251 . S
C0 O18 1.254 . S
N1 C2 1.333 . S
N1 C6 1.307 . S
N1 Zn7 2.020 . S
C2 N1 1.333 . S
C2 C3 1.379 . S
C2 H20 0.952 . S
C3 C2 1.379 . S
C3 C4 1.390 . S
C3 H30 0.949 . S
C4 C3 1.390 . S
C4 C5 1.357 . S
C5 C4 1.357 . S
C5 C6 1.370 . S
C5 H31 0.950 . S
C6 N1 1.307 . S
C6 C5 1.370 . S
C6 H24 0.948 . S
Zn7 N1 2.020 . S
Zn7 O16 2.039 . S
Zn7 O22 2.034 . S
Zn7 O26 2.025 . S
Zn7 O28 2.024 . S
C8 O27 1.246 . S
C8 O28 1.249 . S
N9 C10 1.307 . S
N9 C11 1.333 . S
N9 Zn15 2.020 . S
C10 N9 1.307 . S
C10 C14 1.370 . S
C10 H21 0.948 . S
C11 N9 1.333 . S
C11 C12 1.379 . S
C11 H19 0.952 . S
C12 C11 1.379 . S
C12 C13 1.390 . S
C12 H32 0.949 . S
C13 C12 1.390 . S
C13 C14 1.357 . S
C14 C10 1.370 . S
C14 C13 1.357 . S
C14 H33 0.950 . S
Zn15 N9 2.020 . S
Zn15 O18 2.025 . S
Zn15 O23 2.024 . S
Zn15 O25 2.039 . S
Zn15 O27 2.034 . S
O16 C0 1.251 . S
O16 Zn7 2.039 . S
C17 O22 1.246 . S
C17 O23 1.249 . S
O18 C0 1.254 . S
O18 Zn15 2.025 . S
H19 C11 0.952 . S
H20 C2 0.952 . S
H21 C10 0.948 . S
O22 Zn7 2.034 . S
O22 C17 1.246 . S
O23 Zn15 2.024 . S
O23 C17 1.249 . S
H24 C6 0.948 . S
O25 Zn15 2.039 . S
O25 C29 1.251 . S
O26 Zn7 2.025 . S
O26 C29 1.254 . S
O27 C8 1.246 . S
O27 Zn15 2.034 . S
O28 Zn7 2.024 . S
O28 C8 1.249 . S
C29 O25 1.251 . S
C29 O26 1.254 . S
H30 C3 0.949 . S
H31 C5 0.950 . S
H32 C12 0.949 . S
H33 C14 0.950 . S
C34 O50 1.251 . S
C34 O52 1.254 . S
N35 C36 1.333 . S
N35 C40 1.307 . S
N35 Zn41 2.020 . S
C36 N35 1.333 . S
C36 C37 1.379 . S
C36 H54 0.952 . S
C37 C36 1.379 . S
C37 C38 1.390 . S
C37 H64 0.949 . S
C38 C37 1.390 . S
C38 C39 1.357 . S
C39 C38 1.357 . S
C39 C40 1.370 . S
C39 H65 0.950 . S
C40 N35 1.307 . S
C40 C39 1.370 . S
C40 H58 0.948 . S
Zn41 N35 2.020 . S
Zn41 O50 2.039 . S
Zn41 O56 2.034 . S
Zn41 O60 2.025 . S
Zn41 O62 2.024 . S
C42 O61 1.246 . S
C42 O62 1.249 . S
N43 C44 1.307 . S
N43 C45 1.333 . S
N43 Zn49 2.020 . S
C44 N43 1.307 . S
C44 C48 1.370 . S
C44 H55 0.948 . S
C45 N43 1.333 . S
C45 C46 1.379 . S
C45 H53 0.952 . S
C46 C45 1.379 . S
C46 C47 1.390 . S
C46 H66 0.949 . S
C47 C46 1.390 . S
C47 C48 1.357 . S
C48 C44 1.370 . S
C48 C47 1.357 . S
C48 H67 0.950 . S
Zn49 N43 2.020 . S
Zn49 O52 2.025 . S
Zn49 O57 2.024 . S
Zn49 O59 2.039 . S
Zn49 O61 2.034 . S
O50 C34 1.251 . S
O50 Zn41 2.039 . S
C51 O56 1.246 . S
C51 O57 1.249 . S
O52 C34 1.254 . S
O52 Zn49 2.025 . S
H53 C45 0.952 . S
H54 C36 0.952 . S
H55 C44 0.948 . S
O56 Zn41 2.034 . S
O56 C51 1.246 . S
O57 Zn49 2.024 . S
O57 C51 1.249 . S
H58 C40 0.948 . S
O59 Zn49 2.039 . S
O59 C63 1.251 . S
O60 Zn41 2.025 . S
O60 C63 1.254 . S
O61 C42 1.246 . S
O61 Zn49 2.034 . S
O62 Zn41 2.024 . S
O62 C42 1.249 . S
C63 O59 1.251 . S
C63 O60 1.254 . S
H64 C37 0.949 . S
H65 C39 0.950 . S
H66 C46 0.949 . S
H67 C48 0.950 . S
C68 O84 1.251 . S
C68 O86 1.254 . S
N69 C70 1.333 . S
N69 C74 1.307 1_556 S
N69 Zn75 2.020 . S
C70 N69 1.333 . S
C70 C71 1.379 . S
C70 H88 0.952 . S
C71 C70 1.379 . S
C71 C72 1.390 . S
C71 H98 0.949 . S
C72 C71 1.390 . S
C72 C73 1.356 1_556 S
C73 C72 1.356 1_554 S
C73 C74 1.370 . S
C73 H99 0.951 . S
C74 N69 1.307 1_554 S
C74 C73 1.370 . S
C74 H92 0.948 . S
Zn75 N69 2.020 . S
Zn75 O84 2.039 . S
Zn75 O90 2.034 . S
Zn75 O94 2.025 1_556 S
Zn75 O96 2.024 . S
C76 O95 1.246 . S
C76 O96 1.249 . S
N77 C78 1.307 . S
N77 C79 1.333 1_556 S
N77 Zn83 2.020 . S
C78 N77 1.307 . S
C78 C82 1.370 . S
C78 H89 0.948 . S
C79 N77 1.333 1_554 S
C79 C80 1.379 . S
C79 H87 0.952 . S
C80 C79 1.379 . S
C80 C81 1.390 1_554 S
C80 H100 0.949 . S
C81 C80 1.390 1_556 S
C81 C82 1.357 . S
C82 C78 1.370 . S
C82 C81 1.357 . S
C82 H101 0.950 . S
Zn83 N77 2.020 . S
Zn83 O86 2.025 . S
Zn83 O91 2.024 . S
Zn83 O93 2.039 1_556 S
Zn83 O95 2.034 . S
O84 C68 1.251 . S
O84 Zn75 2.039 . S
C85 O90 1.246 . S
C85 O91 1.249 . S
O86 C68 1.254 . S
O86 Zn83 2.025 . S
H87 C79 0.952 . S
H88 C70 0.952 . S
H89 C78 0.948 . S
O90 Zn75 2.034 . S
O90 C85 1.246 . S
O91 Zn83 2.024 . S
O91 C85 1.249 . S
H92 C74 0.948 . S
O93 Zn83 2.039 1_554 S
O93 C97 1.251 . S
O94 Zn75 2.025 1_554 S
O94 C97 1.254 . S
O95 C76 1.246 . S
O95 Zn83 2.034 . S
O96 Zn75 2.024 . S
O96 C76 1.249 . S
C97 O93 1.251 . S
C97 O94 1.254 . S
H98 C71 0.949 . S
H99 C73 0.951 . S
H100 C80 0.949 . S
H101 C82 0.950 . S
C102 O118 1.251 . S
C102 O120 1.254 . S
N103 C104 1.333 . S
N103 C108 1.307 1_554 S
N103 Zn109 2.020 . S
C104 N103 1.333 . S
C104 C105 1.379 . S
C104 H122 0.952 . S
C105 C104 1.379 . S
C105 C106 1.390 . S
C105 H132 0.949 . S
C106 C105 1.390 . S
C106 C107 1.357 . S
C107 C106 1.357 . S
C107 C108 1.370 1_554 S
C107 H133 0.950 1_554 S
C108 N103 1.307 1_556 S
C108 C107 1.370 1_556 S
C108 H126 0.948 . S
Zn109 N103 2.020 . S
Zn109 O118 2.039 . S
Zn109 O124 2.034 . S
Zn109 O128 2.025 1_554 S
Zn109 O130 2.024 . S
C110 O129 1.246 . S
C110 O130 1.249 . S
N111 C112 1.307 . S
N111 C113 1.333 1_554 S
N111 Zn117 2.020 . S
C112 N111 1.307 . S
C112 C116 1.370 . S
C112 H123 0.948 . S
C113 N111 1.333 1_556 S
C113 C114 1.379 . S
C113 H121 0.952 . S
C114 C113 1.379 . S
C114 C115 1.390 1_556 S
C114 H134 0.949 . S
C115 C114 1.390 1_554 S
C115 C116 1.357 . S
C116 C112 1.370 . S
C116 C115 1.357 . S
C116 H135 0.950 . S
Zn117 N111 2.020 . S
Zn117 O120 2.025 . S
Zn117 O125 2.024 . S
Zn117 O127 2.039 1_554 S
Zn117 O129 2.034 . S
O118 C102 1.251 . S
O118 Zn109 2.039 . S
C119 O124 1.246 . S
C119 O125 1.249 . S
O120 C102 1.254 . S
O120 Zn117 2.025 . S
H121 C113 0.952 . S
H122 C104 0.952 . S
H123 C112 0.948 . S
O124 Zn109 2.034 . S
O124 C119 1.246 . S
O125 Zn117 2.024 . S
O125 C119 1.249 . S
H126 C108 0.948 . S
O127 Zn117 2.039 1_556 S
O127 C131 1.251 . S
O128 Zn109 2.025 1_556 S
O128 C131 1.254 . S
O129 C110 1.246 . S
O129 Zn117 2.034 . S
O130 Zn109 2.024 . S
O130 C110 1.249 . S
C131 O127 1.251 . S
C131 O128 1.254 . S
H132 C105 0.949 . S
H133 C107 0.950 1_556 S
H134 C114 0.949 . S
H135 C116 0.950 . S
C136 O152 1.251 . S
C136 O154 1.254 . S
N137 C138 1.333 . S
N137 C142 1.307 . S
N137 Zn143 2.020 . S
C138 N137 1.333 . S
C138 C139 1.379 . S
C138 H156 0.952 . S
C139 C138 1.379 . S
C139 C140 1.390 . S
C139 H166 0.949 . S
C140 C139 1.390 . S
C140 C141 1.357 . S
C141 C140 1.357 . S
C141 C142 1.370 . S
C141 H167 0.950 . S
C142 N137 1.307 . S
C142 C141 1.370 . S
C142 H160 0.948 . S
Zn143 N137 2.020 . S
Zn143 O152 2.039 . S
Zn143 O158 2.034 . S
Zn143 O162 2.025 . S
Zn143 O164 2.024 . S
C144 O163 1.246 . S
C144 O164 1.249 . S
N145 C146 1.307 . S
N145 C147 1.333 . S
N145 Zn151 2.020 . S
C146 N145 1.307 . S
C146 C150 1.370 . S
C146 H157 0.948 . S
C147 N145 1.333 . S
C147 C148 1.379 . S
C147 H155 0.952 . S
C148 C147 1.379 . S
C148 C149 1.390 . S
C148 H168 0.949 . S
C149 C148 1.390 . S
C149 C150 1.357 . S
C150 C146 1.370 . S
C150 C149 1.357 . S
C150 H169 0.950 . S
Zn151 N145 2.020 . S
Zn151 O154 2.025 . S
Zn151 O159 2.024 . S
Zn151 O161 2.039 . S
Zn151 O163 2.034 . S
O152 C136 1.251 . S
O152 Zn143 2.039 . S
C153 O158 1.246 . S
C153 O159 1.249 . S
O154 C136 1.254 . S
O154 Zn151 2.025 . S
H155 C147 0.952 . S
H156 C138 0.952 . S
H157 C146 0.948 . S
O158 Zn143 2.034 . S
O158 C153 1.246 . S
O159 Zn151 2.024 . S
O159 C153 1.249 . S
H160 C142 0.948 . S
O161 Zn151 2.039 . S
O161 C165 1.251 . S
O162 Zn143 2.025 . S
O162 C165 1.254 . S
O163 C144 1.246 . S
O163 Zn151 2.034 . S
O164 Zn143 2.024 . S
O164 C144 1.249 . S
C165 O161 1.251 . S
C165 O162 1.254 . S
H166 C139 0.949 . S
H167 C141 0.950 . S
H168 C148 0.949 . S
H169 C150 0.950 . S
C170 O186 1.251 . S
C170 O188 1.254 . S
N171 C172 1.333 . S
N171 C176 1.307 . S
N171 Zn177 2.020 . S
C172 N171 1.333 . S
C172 C173 1.379 . S
C172 H190 0.952 . S
C173 C172 1.379 . S
C173 C174 1.390 . S
C173 H200 0.949 . S
C174 C173 1.390 . S
C174 C175 1.357 . S
C175 C174 1.357 . S
C175 C176 1.370 . S
C175 H201 0.950 . S
C176 N171 1.307 . S
C176 C175 1.370 . S
C176 H194 0.948 . S
Zn177 N171 2.020 . S
Zn177 O186 2.039 . S
Zn177 O192 2.034 . S
Zn177 O196 2.025 . S
Zn177 O198 2.024 . S
C178 O197 1.246 . S
C178 O198 1.249 . S
N179 C180 1.307 . S
N179 C181 1.333 . S
N179 Zn185 2.020 . S
C180 N179 1.307 . S
C180 C184 1.370 . S
C180 H191 0.948 . S
C181 N179 1.333 . S
C181 C182 1.379 . S
C181 H189 0.952 . S
C182 C181 1.379 . S
C182 C183 1.390 . S
C182 H202 0.949 . S
C183 C182 1.390 . S
C183 C184 1.357 . S
C184 C180 1.370 . S
C184 C183 1.357 . S
C184 H203 0.950 . S
Zn185 N179 2.020 . S
Zn185 O188 2.025 . S
Zn185 O193 2.024 . S
Zn185 O195 2.039 . S
Zn185 O197 2.034 . S
O186 C170 1.251 . S
O186 Zn177 2.039 . S
C187 O192 1.246 . S
C187 O193 1.249 . S
O188 C170 1.254 . S
O188 Zn185 2.025 . S
H189 C181 0.952 . S
H190 C172 0.952 . S
H191 C180 0.948 . S
O192 Zn177 2.034 . S
O192 C187 1.246 . S
O193 Zn185 2.024 . S
O193 C187 1.249 . S
H194 C176 0.948 . S
O195 Zn185 2.039 . S
O195 C199 1.251 . S
O196 Zn177 2.025 . S
O196 C199 1.254 . S
O197 C178 1.246 . S
O197 Zn185 2.034 . S
O198 Zn177 2.024 . S
O198 C178 1.249 . S
C199 O195 1.251 . S
C199 O196 1.254 . S
H200 C173 0.949 . S
H201 C175 0.950 . S
H202 C182 0.949 . S
H203 C184 0.950 . S
H204 C210 0.930 . S
H205 C213 0.930 . S
H206 C214 0.930 . S
H207 C215 0.930 . S
H208 C218 0.930 . S
H209 C219 0.930 . S
C210 H204 0.930 . S
C210 C211 1.355 . S
C210 C212 1.415 . S
C211 C210 1.355 . S
C211 C213 1.419 . S
C212 C210 1.415 . S
C212 C217 1.425 . S
C212 C219 1.409 . S
C213 H205 0.930 . S
C213 C211 1.419 . S
C213 C214 1.362 . S
C214 H206 0.930 . S
C214 C213 1.362 . S
C214 C217 1.409 . S
C215 H207 0.930 . S
C215 C216 1.355 . S
C215 C217 1.415 1_556 S
C216 C215 1.355 . S
C216 C218 1.419 . S
C217 C212 1.425 . S
C217 C214 1.409 . S
C217 C215 1.415 1_554 S
C218 H208 0.930 . S
C218 C216 1.419 . S
C218 C219 1.362 1_556 S
C219 H209 0.930 . S
C219 C212 1.409 . S
C219 C218 1.362 1_554 S
H220 C226 0.930 . S
H221 C229 0.930 . S
H222 C230 0.930 . S
H223 C231 0.930 . S
H224 C234 0.930 . S
H225 C235 0.930 . S
C226 H220 0.930 . S
C226 C227 1.355 . S
C226 C228 1.415 . S
C227 C226 1.355 . S
C227 C229 1.419 . S
C228 C226 1.415 . S
C228 C233 1.425 . S
C228 C235 1.409 . S
C229 H221 0.930 . S
C229 C227 1.419 . S
C229 C230 1.362 . S
C230 H222 0.930 . S
C230 C229 1.362 . S
C230 C233 1.409 . S
C231 H223 0.930 . S
C231 C232 1.355 . S
C231 C233 1.415 . S
C232 C231 1.355 . S
C232 C234 1.419 . S
C233 C228 1.425 . S
C233 C230 1.409 . S
C233 C231 1.415 . S
C234 H224 0.930 . S
C234 C232 1.419 . S
C234 C235 1.362 . S
C235 H225 0.930 . S
C235 C228 1.409 . S
C235 C234 1.362 . S
H236 C242 0.930 . S
H237 C245 0.930 . S
H238 C246 0.930 . S
H239 C247 0.930 . S
H240 C250 0.930 . S
H241 C251 0.930 . S
C242 H236 0.930 . S
C242 C243 1.355 . S
C242 C244 1.415 . S
C243 C242 1.355 . S
C243 C245 1.419 . S
C244 C242 1.415 . S
C244 C249 1.425 . S
C244 C251 1.409 . S
C245 H237 0.930 . S
C245 C243 1.419 . S
C245 C246 1.362 . S
C246 H238 0.930 . S
C246 C245 1.362 . S
C246 C249 1.409 . S
C247 H239 0.930 . S
C247 C248 1.355 . S
C247 C249 1.415 . S
C248 C247 1.355 . S
C248 C250 1.419 . S
C249 C244 1.425 . S
C249 C246 1.409 . S
C249 C247 1.415 . S
C250 H240 0.930 . S
C250 C248 1.419 . S
C250 C251 1.362 . S
C251 H241 0.930 . S
C251 C244 1.409 . S
C251 C250 1.362 . S
H252 C258 0.930 . S
H253 C261 0.930 . S
H254 C262 0.930 . S
H255 C263 0.930 . S
H256 C266 0.930 . S
H257 C267 0.930 . S
C258 H252 0.930 . S
C258 C259 1.355 . S
C258 C260 1.415 . S
C259 C258 1.355 . S
C259 C261 1.419 . S
C260 C258 1.415 . S
C260 C265 1.425 . S
C260 C267 1.409 . S
C261 H253 0.930 . S
C261 C259 1.419 . S
C261 C262 1.362 . S
C262 H254 0.930 . S
C262 C261 1.362 . S
C262 C265 1.409 . S
C263 H255 0.930 . S
C263 C264 1.355 . S
C263 C265 1.415 . S
C264 C263 1.355 . S
C264 C266 1.419 . S
C265 C260 1.425 . S
C265 C262 1.409 . S
C265 C263 1.415 . S
C266 H256 0.930 . S
C266 C264 1.419 . S
C266 C267 1.362 . S
C267 H257 0.930 . S
C267 C260 1.409 . S
C267 C266 1.362 . S
H268 C274 0.930 . S
H269 C277 0.930 . S
H270 C278 0.930 . S
H271 C279 0.930 . S
H272 C282 0.930 . S
H273 C283 0.930 . S
C274 H268 0.930 . S
C274 C275 1.355 . S
C274 C276 1.415 . S
C275 C274 1.355 . S
C275 C277 1.419 . S
C276 C274 1.415 . S
C276 C281 1.425 . S
C276 C283 1.409 . S
C277 H269 0.930 . S
C277 C275 1.419 . S
C277 C278 1.362 . S
C278 H270 0.930 . S
C278 C277 1.362 . S
C278 C281 1.409 . S
C279 H271 0.930 . S
C279 C280 1.355 . S
C279 C281 1.415 . S
C280 C279 1.355 . S
C280 C282 1.419 . S
C281 C276 1.425 . S
C281 C278 1.409 . S
C281 C279 1.415 . S
C282 H272 0.930 . S
C282 C280 1.419 . S
C282 C283 1.362 . S
C283 H273 0.930 . S
C283 C276 1.409 . S
C283 C282 1.362 . S
H284 C290 0.930 . S
H285 C293 0.930 . S
H286 C294 0.930 . S
H287 C295 0.930 . S
H288 C298 0.930 . S
H289 C299 0.930 . S
C290 H284 0.930 . S
C290 C291 1.355 . S
C290 C292 1.415 1_554 S
C291 C290 1.355 . S
C291 C293 1.419 . S
C292 C290 1.415 1_556 S
C292 C297 1.425 . S
C292 C299 1.409 . S
C293 H285 0.930 . S
C293 C291 1.419 . S
C293 C294 1.362 1_554 S
C294 H286 0.930 . S
C294 C293 1.362 1_556 S
C294 C297 1.409 . S
C295 H287 0.930 . S
C295 C296 1.355 . S
C295 C297 1.415 . S
C296 C295 1.355 . S
C296 C298 1.419 . S
C297 C292 1.425 . S
C297 C294 1.409 . S
C297 C295 1.415 . S
C298 H288 0.930 . S
C298 C296 1.419 . S
C298 C299 1.362 . S
C299 H289 0.930 . S
C299 C292 1.409 . S
C299 C298 1.362 . S
H300 C306 0.930 . S
H301 C309 0.930 . S
H302 C310 0.930 . S
H303 C311 0.930 . S
H304 C314 0.930 . S
H305 C315 0.930 . S
C306 H300 0.930 . S
C306 C307 1.355 . S
C306 C308 1.415 . S
C307 C306 1.355 . S
C307 C309 1.419 . S
C308 C306 1.415 . S
C308 C313 1.425 . S
C308 C315 1.409 1_545 S
C309 H301 0.930 . S
C309 C307 1.419 . S
C309 C310 1.362 . S
C310 H302 0.930 . S
C310 C309 1.362 . S
C310 C313 1.409 . S
C311 H303 0.930 . S
C311 C312 1.355 . S
C311 C313 1.415 1_565 S
C312 C311 1.355 . S
C312 C314 1.419 . S
C313 C308 1.425 . S
C313 C310 1.409 . S
C313 C311 1.415 1_545 S
C314 H304 0.930 . S
C314 C312 1.419 . S
C314 C315 1.362 . S
C315 H305 0.930 . S
C315 C308 1.409 1_565 S
C315 C314 1.362 . S
H316 C322 0.930 . S
H317 C325 0.930 . S
H318 C326 0.930 . S
H319 C327 0.930 . S
H320 C330 0.930 . S
H321 C331 0.930 . S
C322 H316 0.930 . S
C322 C323 1.355 . S
C322 C324 1.415 . S
C323 C322 1.355 . S
C323 C325 1.419 . S
C324 C322 1.415 . S
C324 C329 1.425 . S
C324 C331 1.409 . S
C325 H317 0.930 . S
C325 C323 1.419 . S
C325 C326 1.362 . S
C326 H318 0.930 . S
C326 C325 1.362 . S
C326 C329 1.409 . S
C327 H319 0.930 . S
C327 C328 1.355 . S
C327 C329 1.415 . S
C328 C327 1.355 . S
C328 C330 1.419 . S
C329 C324 1.425 . S
C329 C326 1.409 . S
C329 C327 1.415 . S
C330 H320 0.930 . S
C330 C328 1.419 . S
C330 C331 1.362 . S
C331 H321 0.930 . S
C331 C324 1.409 . S
C331 C330 1.362 . S
H332 C338 0.930 . S
H333 C341 0.930 . S
H334 C342 0.930 1_554 S
H335 C343 0.930 . S
H336 C346 0.930 . S
H337 C347 0.904 1_655 S
C338 H332 0.930 . S
C338 C339 1.355 . S
C338 C340 1.415 1_655 S
C339 C338 1.355 . S
C339 C341 1.419 1_556 S
C340 C338 1.415 1_455 S
C340 C345 1.425 . S
C340 C347 1.409 . S
C341 H333 0.930 . S
C341 C339 1.419 1_554 S
C341 C342 1.362 1_654 S
C342 H334 0.930 1_556 S
C342 C341 1.362 1_456 S
C342 C345 1.409 . S
C343 H335 0.930 . S
C343 C344 1.355 . S
C343 C345 1.415 . S
C344 C343 1.355 . S
C344 C346 1.419 . S
C345 C340 1.425 . S
C345 C342 1.409 . S
C345 C343 1.415 . S
C346 H336 0.930 . S
C346 C344 1.419 . S
C346 C347 1.362 . S
C347 H337 0.904 1_455 S
C347 C340 1.409 . S
C347 C346 1.362 . S
H348 C354 0.930 1_556 S
H349 C357 0.930 . S
H350 C358 0.930 . S
H351 C359 0.930 1_554 S
H352 C362 0.930 . S
H353 C363 0.930 . S
C354 H348 0.930 1_554 S
C354 C355 1.355 . S
C354 C356 1.415 1_564 S
C355 C354 1.355 . S
C355 C357 1.419 . S
C356 C354 1.415 1_546 S
C356 C361 1.425 1_556 S
C356 C363 1.409 . S
C357 H349 0.930 . S
C357 C355 1.419 . S
C357 C358 1.362 1_565 S
C358 H350 0.930 . S
C358 C357 1.362 1_545 S
C358 C361 1.409 . S
C359 H351 0.930 1_556 S
C359 C360 1.355 . S
C359 C361 1.415 1_556 S
C360 C359 1.355 . S
C360 C362 1.419 . S
C361 C356 1.425 1_554 S
C361 C358 1.409 . S
C361 C359 1.415 1_554 S
C362 H352 0.930 . S
C362 C360 1.419 . S
C362 C363 1.362 . S
C363 H353 0.930 . S
C363 C356 1.409 . S
C363 C362 1.362 . S
H364 C370 0.930 . S
H365 C373 0.930 . S
H366 C374 0.930 . S
H367 C375 0.930 . S
H368 C378 0.930 . S
H369 C379 0.930 . S
C370 H364 0.930 . S
C370 C371 1.355 . S
C370 C372 1.415 . S
C371 C370 1.355 . S
C371 C373 1.419 . S
C372 C370 1.415 . S
C372 C377 1.425 . S
C372 C379 1.409 . S
C373 H365 0.930 . S
C373 C371 1.419 . S
C373 C374 1.362 . S
C374 H366 0.930 . S
C374 C373 1.362 . S
C374 C377 1.409 . S
C375 H367 0.930 . S
C375 C376 1.355 . S
C375 C377 1.415 . S
C376 C375 1.355 . S
C376 C378 1.419 . S
C377 C372 1.425 . S
C377 C374 1.409 . S
C377 C375 1.415 . S
C378 H368 0.930 . S
C378 C376 1.419 . S
C378 C379 1.362 . S
C379 H369 0.930 . S
C379 C372 1.409 . S
C379 C378 1.362 . S
H380 C386 0.930 . S
H381 C389 0.930 . S
H382 C390 0.930 . S
H383 C391 0.930 . S
H384 C394 0.930 . S
H385 C395 0.930 . S
C386 H380 0.930 . S
C386 C387 1.355 . S
C386 C388 1.415 1_655 S
C387 C386 1.355 . S
C387 C389 1.419 . S
C388 C386 1.415 1_455 S
C388 C393 1.425 . S
C388 C395 1.409 . S
C389 H381 0.930 . S
C389 C387 1.419 . S
C389 C390 1.362 . S
C390 H382 0.930 . S
C390 C389 1.362 . S
C390 C393 1.409 1_655 S
C391 H383 0.930 . S
C391 C392 1.355 . S
C391 C393 1.415 . S
C392 C391 1.355 . S
C392 C394 1.419 . S
C393 C388 1.425 . S
C393 C390 1.409 1_455 S
C393 C391 1.415 . S
C394 H384 0.930 . S
C394 C392 1.419 . S
C394 C395 1.362 . S
C395 H385 0.930 . S
C395 C388 1.409 . S
C395 C394 1.362 . S
H396 C402 0.930 . S
H397 C405 0.930 . S
H398 C406 0.930 . S
H399 C407 0.930 . S
H400 C410 0.930 . S
H401 C411 0.930 . S
C402 H396 0.930 . S
C402 C403 1.355 . S
C402 C404 1.415 . S
C403 C402 1.355 . S
C403 C405 1.419 . S
C404 C402 1.415 . S
C404 C409 1.425 . S
C404 C411 1.409 . S
C405 H397 0.930 . S
C405 C403 1.419 . S
C405 C406 1.362 . S
C406 H398 0.930 . S
C406 C405 1.362 . S
C406 C409 1.409 . S
C407 H399 0.930 . S
C407 C408 1.355 . S
C407 C409 1.415 . S
C408 C407 1.355 . S
C408 C410 1.419 . S
C409 C404 1.425 . S
C409 C406 1.409 . S
C409 C407 1.415 . S
C410 H400 0.930 . S
C410 C408 1.419 . S
C410 C411 1.362 . S
C411 H401 0.930 . S
C411 C404 1.409 . S
C411 C410 1.362 . S
H412 C418 0.930 . S
H413 C421 0.930 . S
H414 C422 0.930 . S
H415 C423 0.930 . S
H416 C426 0.930 . S
H417 C427 0.930 . S
C418 H412 0.930 . S
C418 C419 1.355 . S
C418 C420 1.415 . S
C419 C418 1.355 . S
C419 C421 1.419 . S
C420 C418 1.415 . S
C420 C425 1.425 . S
C420 C427 1.409 . S
C421 H413 0.930 . S
C421 C419 1.419 . S
C421 C422 1.362 . S
C422 H414 0.930 . S
C422 C421 1.362 . S
C422 C425 1.409 . S
C423 H415 0.930 . S
C423 C424 1.355 . S
C423 C425 1.415 . S
C424 C423 1.355 . S
C424 C426 1.419 . S
C425 C420 1.425 . S
C425 C422 1.409 . S
C425 C423 1.415 . S
C426 H416 0.930 . S
C426 C424 1.419 . S
C426 C427 1.362 . S
C427 H417 0.930 . S
C427 C420 1.409 . S
C427 C426 1.362 . S
H428 C434 0.930 . S
H429 C437 0.930 . S
H430 C438 0.930 . S
H431 C439 0.930 . S
H432 C442 0.930 . S
H433 C443 0.930 . S
C434 H428 0.930 . S
C434 C435 1.355 . S
C434 C436 1.415 . S
C435 C434 1.355 . S
C435 C437 1.419 . S
C436 C434 1.415 . S
C436 C441 1.425 . S
C436 C443 1.409 . S
C437 H429 0.930 . S
C437 C435 1.419 . S
C437 C438 1.362 . S
C438 H430 0.930 . S
C438 C437 1.362 . S
C438 C441 1.409 . S
C439 H431 0.930 . S
C439 C440 1.355 . S
C439 C441 1.415 . S
C440 C439 1.355 . S
C440 C442 1.419 . S
C441 C436 1.425 . S
C441 C438 1.409 . S
C441 C439 1.415 . S
C442 H432 0.930 . S
C442 C440 1.419 . S
C442 C443 1.362 . S
C443 H433 0.930 . S
C443 C436 1.409 . S
C443 C442 1.362 . S
H444 C450 0.930 . S
H445 C453 0.930 . S
H446 C454 0.930 . S
H447 C455 0.930 . S
H448 C458 0.930 . S
H449 C459 0.930 . S
C450 H444 0.930 . S
C450 C451 1.354 . S
C450 C452 1.415 . S
C451 C450 1.354 . S
C451 C453 1.419 1_556 S
C452 C450 1.415 . S
C452 C457 1.425 . S
C452 C459 1.409 . S
C453 H445 0.930 . S
C453 C451 1.419 1_554 S
C453 C454 1.362 . S
C454 H446 0.930 . S
C454 C453 1.362 . S
C454 C457 1.409 1_554 S
C455 H447 0.930 . S
C455 C456 1.355 . S
C455 C457 1.415 . S
C456 C455 1.355 . S
C456 C458 1.419 . S
C457 C452 1.425 . S
C457 C454 1.409 1_556 S
C457 C455 1.415 . S
C458 H448 0.930 . S
C458 C456 1.419 . S
C458 C459 1.362 . S
C459 H449 0.930 . S
C459 C452 1.409 . S
C459 C458 1.362 . S
H460 C466 0.930 . S
H461 C469 0.930 . S
H462 C470 0.930 1_556 S
H463 C471 0.930 . S
H464 C474 0.930 . S
H465 C475 0.930 . S
C466 H460 0.930 . S
C466 C467 1.355 . S
C466 C468 1.415 . S
C467 C466 1.355 . S
C467 C469 1.419 . S
C468 C466 1.415 . S
C468 C473 1.425 . S
C468 C475 1.409 . S
C469 H461 0.930 . S
C469 C467 1.419 . S
C469 C470 1.362 . S
C470 H462 0.930 1_554 S
C470 C469 1.362 . S
C470 C473 1.409 . S
C471 H463 0.930 . S
C471 C472 1.355 1_556 S
C471 C473 1.415 1_556 S
C472 C471 1.355 1_554 S
C472 C474 1.419 . S
C473 C468 1.425 . S
C473 C470 1.409 . S
C473 C471 1.415 1_554 S
C474 H464 0.930 . S
C474 C472 1.419 . S
C474 C475 1.362 . S
C475 H465 0.930 . S
C475 C468 1.409 . S
C475 C474 1.362 . S
H476 C482 0.930 . S
H477 C485 0.930 . S
H478 C486 0.930 . S
H479 C487 0.930 . S
H480 C490 0.930 . S
H481 C491 0.930 . S
C482 H476 0.930 . S
C482 C483 1.355 . S
C482 C484 1.415 . S
C483 C482 1.355 . S
C483 C485 1.419 . S
C484 C482 1.415 . S
C484 C489 1.425 . S
C484 C491 1.409 . S
C485 H477 0.930 . S
C485 C483 1.419 . S
C485 C486 1.362 . S
C486 H478 0.930 . S
C486 C485 1.362 . S
C486 C489 1.409 . S
C487 H479 0.930 . S
C487 C488 1.355 . S
C487 C489 1.415 . S
C488 C487 1.355 . S
C488 C490 1.419 . S
C489 C484 1.425 . S
C489 C486 1.409 . S
C489 C487 1.415 . S
C490 H480 0.930 . S
C490 C488 1.419 . S
C490 C491 1.362 . S
C491 H481 0.930 . S
C491 C484 1.409 . S
C491 C490 1.362 . S
C211 C0 1.041 . S
C216 C29 1.041 . S
C227 C63 1.039 . S
C232 C34 1.039 1_554 S
C243 C97 1.038 . S
C248 C68 1.038 . S
C259 C102 1.040 . S
C264 C131 1.040 . S
C275 C165 1.041 . S
C280 C136 1.041 1_556 S
C291 C199 1.036 . S
C296 C170 1.036 . S
C307 C13 1.748 . S
C312 C183 1.785 . S
C323 C8 1.813 . S
C328 C42 1.793 . S
C339 C81 1.811 . S
C344 C47 1.788 . S
C355 C110 1.836 . S
C360 C76 1.809 . S
C371 C149 1.767 . S
C376 C115 1.802 . S
C387 C144 1.795 . S
C392 C178 1.818 . S
C403 C4 1.974 . S
C408 C153 2.071 . S
C419 C51 2.048 . S
C424 C174 1.954 . S
C435 C72 1.954 . S
C440 C17 2.048 . S
C451 C119 2.075 1_556 S
C456 C38 1.987 . S
C467 C140 1.998 . S
C472 C85 2.067 1_554 S
C483 C106 2.002 . S
C488 C187 2.069 . S
