# Generated by pormake.
# Topology uow, (4)-cn, num edge types: 1
# Building blocks:
#     Node 0, Type 0, BuildingBlock: AZAVOO_clean_sbu_0, # of connection points: 4
#     Node 1, Type 0, BuildingBlock: AZAVOO_clean_sbu_0, # of connection points: 4
#     Node 2, Type 0, BuildingBlock: AZAVOO_clean_sbu_0, # of connection points: 4
#     Node 3, Type 0, BuildingBlock: AZAVOO_clean_sbu_0, # of connection points: 4
#     Node 4, Type 0, BuildingBlock: AZAVOO_clean_sbu_0, # of connection points: 4
#     Node 5, Type 0, BuildingBlock: AZAVOO_clean_sbu_0, # of connection points: 4
#     Node 6, Type 0, BuildingBlock: AZAVOO_clean_sbu_0, # of connection points: 4
#     Node 7, Type 0, BuildingBlock: AZAVOO_clean_sbu_0, # of connection points: 4
#     Node 8, Type 0, BuildingBlock: AZAVOO_clean_sbu_0, # of connection points: 4
#     Node 9, Type 0, BuildingBlock: AZAVOO_clean_sbu_0, # of connection points: 4
#     Node 10, Type 0, BuildingBlock: AZAVOO_clean_sbu_0, # of connection points: 4
#     Node 11, Type 0, BuildingBlock: AZAVOO_clean_sbu_0, # of connection points: 4
#     Node 12, Type 0, BuildingBlock: AZAVOO_clean_sbu_0, # of connection points: 4
#     Node 13, Type 0, BuildingBlock: AZAVOO_clean_sbu_0, # of connection points: 4
#     Node 14, Type 0, BuildingBlock: AZAVOO_clean_sbu_0, # of connection points: 4
#     Node 15, Type 0, BuildingBlock: AZAVOO_clean_sbu_0, # of connection points: 4
#     Node 16, Type 0, BuildingBlock: AZAVOO_clean_sbu_0, # of connection points: 4
#     Node 17, Type 0, BuildingBlock: AZAVOO_clean_sbu_0, # of connection points: 4
#     Node 18, Type 0, BuildingBlock: AZAVOO_clean_sbu_0, # of connection points: 4
#     Node 19, Type 0, BuildingBlock: AZAVOO_clean_sbu_0, # of connection points: 4
#     Node 20, Type 0, BuildingBlock: AZAVOO_clean_sbu_0, # of connection points: 4
#     Node 21, Type 0, BuildingBlock: AZAVOO_clean_sbu_0, # of connection points: 4
#     Node 22, Type 0, BuildingBlock: AZAVOO_clean_sbu_0, # of connection points: 4
#     Node 23, Type 0, BuildingBlock: AZAVOO_clean_sbu_0, # of connection points: 4
#     Node 24, Type 0, BuildingBlock: AZAVOO_clean_sbu_0, # of connection points: 4
#     Node 25, Type 0, BuildingBlock: AZAVOO_clean_sbu_0, # of connection points: 4
#     Node 26, Type 0, BuildingBlock: AZAVOO_clean_sbu_0, # of connection points: 4
#     Node 27, Type 0, BuildingBlock: AZAVOO_clean_sbu_0, # of connection points: 4
#     Node 28, Type 0, BuildingBlock: AZAVOO_clean_sbu_0, # of connection points: 4
#     Node 29, Type 0, BuildingBlock: AZAVOO_clean_sbu_0, # of connection points: 4
#     Node 30, Type 0, BuildingBlock: AZAVOO_clean_sbu_0, # of connection points: 4
#     Node 31, Type 0, BuildingBlock: AZAVOO_clean_sbu_0, # of connection points: 4
#     Edge 32, Type (0, 0), BuildingBlock: CIFDUS_clean_linker_0, # of connection points: 2
#     Edge 33, Type (0, 0), BuildingBlock: CIFDUS_clean_linker_0, # of connection points: 2
#     Edge 34, Type (0, 0), BuildingBlock: CIFDUS_clean_linker_0, # of connection points: 2
#     Edge 35, Type (0, 0), BuildingBlock: CIFDUS_clean_linker_0, # of connection points: 2
#     Edge 36, Type (0, 0), BuildingBlock: CIFDUS_clean_linker_0, # of connection points: 2
#     Edge 37, Type (0, 0), BuildingBlock: CIFDUS_clean_linker_0, # of connection points: 2
#     Edge 38, Type (0, 0), BuildingBlock: CIFDUS_clean_linker_0, # of connection points: 2
#     Edge 39, Type (0, 0), BuildingBlock: CIFDUS_clean_linker_0, # of connection points: 2
#     Edge 40, Type (0, 0), BuildingBlock: CIFDUS_clean_linker_0, # of connection points: 2
#     Edge 41, Type (0, 0), BuildingBlock: CIFDUS_clean_linker_0, # of connection points: 2
#     Edge 42, Type (0, 0), BuildingBlock: CIFDUS_clean_linker_0, # of connection points: 2
#     Edge 43, Type (0, 0), BuildingBlock: CIFDUS_clean_linker_0, # of connection points: 2
#     Edge 44, Type (0, 0), BuildingBlock: CIFDUS_clean_linker_0, # of connection points: 2
#     Edge 45, Type (0, 0), BuildingBlock: CIFDUS_clean_linker_0, # of connection points: 2
#     Edge 46, Type (0, 0), BuildingBlock: CIFDUS_clean_linker_0, # of connection points: 2
#     Edge 47, Type (0, 0), BuildingBlock: CIFDUS_clean_linker_0, # of connection points: 2
#     Edge 48, Type (0, 0), BuildingBlock: CIFDUS_clean_linker_0, # of connection points: 2
#     Edge 49, Type (0, 0), BuildingBlock: CIFDUS_clean_linker_0, # of connection points: 2
#     Edge 50, Type (0, 0), BuildingBlock: CIFDUS_clean_linker_0, # of connection points: 2
#     Edge 51, Type (0, 0), BuildingBlock: CIFDUS_clean_linker_0, # of connection points: 2
#     Edge 52, Type (0, 0), BuildingBlock: CIFDUS_clean_linker_0, # of connection points: 2
#     Edge 53, Type (0, 0), BuildingBlock: CIFDUS_clean_linker_0, # of connection points: 2
#     Edge 54, Type (0, 0), BuildingBlock: CIFDUS_clean_linker_0, # of connection points: 2
#     Edge 55, Type (0, 0), BuildingBlock: CIFDUS_clean_linker_0, # of connection points: 2
#     Edge 56, Type (0, 0), BuildingBlock: CIFDUS_clean_linker_0, # of connection points: 2
#     Edge 57, Type (0, 0), BuildingBlock: CIFDUS_clean_linker_0, # of connection points: 2
#     Edge 58, Type (0, 0), BuildingBlock: CIFDUS_clean_linker_0, # of connection points: 2
#     Edge 59, Type (0, 0), BuildingBlock: CIFDUS_clean_linker_0, # of connection points: 2
#     Edge 60, Type (0, 0), BuildingBlock: CIFDUS_clean_linker_0, # of connection points: 2
#     Edge 61, Type (0, 0), BuildingBlock: CIFDUS_clean_linker_0, # of connection points: 2
#     Edge 62, Type (0, 0), BuildingBlock: CIFDUS_clean_linker_0, # of connection points: 2
#     Edge 63, Type (0, 0), BuildingBlock: CIFDUS_clean_linker_0, # of connection points: 2
#     Edge 64, Type (0, 0), BuildingBlock: CIFDUS_clean_linker_0, # of connection points: 2
#     Edge 65, Type (0, 0), BuildingBlock: CIFDUS_clean_linker_0, # of connection points: 2
#     Edge 66, Type (0, 0), BuildingBlock: CIFDUS_clean_linker_0, # of connection points: 2
#     Edge 67, Type (0, 0), BuildingBlock: CIFDUS_clean_linker_0, # of connection points: 2
#     Edge 68, Type (0, 0), BuildingBlock: CIFDUS_clean_linker_0, # of connection points: 2
#     Edge 69, Type (0, 0), BuildingBlock: CIFDUS_clean_linker_0, # of connection points: 2
#     Edge 70, Type (0, 0), BuildingBlock: CIFDUS_clean_linker_0, # of connection points: 2
#     Edge 71, Type (0, 0), BuildingBlock: CIFDUS_clean_linker_0, # of connection points: 2
#     Edge 72, Type (0, 0), BuildingBlock: CIFDUS_clean_linker_0, # of connection points: 2
#     Edge 73, Type (0, 0), BuildingBlock: CIFDUS_clean_linker_0, # of connection points: 2
#     Edge 74, Type (0, 0), BuildingBlock: CIFDUS_clean_linker_0, # of connection points: 2
#     Edge 75, Type (0, 0), BuildingBlock: CIFDUS_clean_linker_0, # of connection points: 2
#     Edge 76, Type (0, 0), BuildingBlock: CIFDUS_clean_linker_0, # of connection points: 2
#     Edge 77, Type (0, 0), BuildingBlock: CIFDUS_clean_linker_0, # of connection points: 2
#     Edge 78, Type (0, 0), BuildingBlock: CIFDUS_clean_linker_0, # of connection points: 2
#     Edge 79, Type (0, 0), BuildingBlock: CIFDUS_clean_linker_0, # of connection points: 2
#     Edge 80, Type (0, 0), BuildingBlock: CIFDUS_clean_linker_0, # of connection points: 2
#     Edge 81, Type (0, 0), BuildingBlock: CIFDUS_clean_linker_0, # of connection points: 2
#     Edge 82, Type (0, 0), BuildingBlock: CIFDUS_clean_linker_0, # of connection points: 2
#     Edge 83, Type (0, 0), BuildingBlock: CIFDUS_clean_linker_0, # of connection points: 2
#     Edge 84, Type (0, 0), BuildingBlock: CIFDUS_clean_linker_0, # of connection points: 2
#     Edge 85, Type (0, 0), BuildingBlock: CIFDUS_clean_linker_0, # of connection points: 2
#     Edge 86, Type (0, 0), BuildingBlock: CIFDUS_clean_linker_0, # of connection points: 2
#     Edge 87, Type (0, 0), BuildingBlock: CIFDUS_clean_linker_0, # of connection points: 2
#     Edge 88, Type (0, 0), BuildingBlock: CIFDUS_clean_linker_0, # of connection points: 2
#     Edge 89, Type (0, 0), BuildingBlock: CIFDUS_clean_linker_0, # of connection points: 2
#     Edge 90, Type (0, 0), BuildingBlock: CIFDUS_clean_linker_0, # of connection points: 2
#     Edge 91, Type (0, 0), BuildingBlock: CIFDUS_clean_linker_0, # of connection points: 2
#     Edge 92, Type (0, 0), BuildingBlock: CIFDUS_clean_linker_0, # of connection points: 2
#     Edge 93, Type (0, 0), BuildingBlock: CIFDUS_clean_linker_0, # of connection points: 2
#     Edge 94, Type (0, 0), BuildingBlock: CIFDUS_clean_linker_0, # of connection points: 2
#     Edge 95, Type (0, 0), BuildingBlock: CIFDUS_clean_linker_0, # of connection points: 2
# Relax obj value: 0.271
# Max RMSD: 0.244
# Mean RMSD: 0.244
data_MOF--net-uow--node1-AZAVOO_clean_sbu_0--edge1-CIFDUS_clean_linker_0
_symmetry_space_group_name_H-M    P1
_symmetry_Int_Tables_number       1
_symmetry_cell_setting            triclinic
loop_
_symmetry_equiv_pos_as_xyz
'x, y, z'
_cell_length_a     52.43757
_cell_length_b     52.395041
_cell_length_c     35.681091
_cell_angle_alpha  90.041435
_cell_angle_beta   90.054114
_cell_angle_gamma 89.932765
loop_
_atom_site_label
_atom_site_type_symbol
_atom_site_fract_x
_atom_site_fract_y
_atom_site_fract_z
_atom_type_partial_charge
Mg0 Mg 0.97114 0.36647 0.22487 0.0
O1 O 0.002 0.35989 0.26834 0.0
O2 O 0.04102 0.36422 0.24456 0.0
Mg3 Mg 0.03398 0.37626 0.18318 0.0
C4 C 0.02615 0.35944 0.27197 0.0
C5 C 0.92678 0.34661 0.2707 0.0
O6 O 0.9247 0.33447 0.23861 0.0
O7 O 0.97722 0.40936 0.2303 0.0
O8 O 0.01517 0.41414 0.20258 0.0
O9 O 0.974 0.32587 0.20814 0.0
O10 O 0.99656 0.3566 0.18163 0.0
C11 C 0.9955 0.42347 0.21889 0.0
C12 C 0.99155 0.33258 0.18475 0.0
O13 O 0.94295 0.36457 0.27328 0.0
Mg14 Mg 0.87466 0.74152 0.496 0.0
O15 O 0.88559 0.77629 0.53129 0.0
O16 O 0.87912 0.81273 0.50034 0.0
Mg17 Mg 0.85981 0.80077 0.44549 0.0
C18 C 0.88654 0.80057 0.52932 0.0
C19 C 0.87099 0.69922 0.56342 0.0
O20 O 0.84888 0.6918 0.54995 0.0
O21 O 0.83283 0.74852 0.51069 0.0
O22 O 0.82611 0.78503 0.47935 0.0
O23 O 0.91244 0.74269 0.46719 0.0
O24 O 0.87805 0.76291 0.44708 0.0
C25 C 0.81844 0.76705 0.50073 0.0
C26 C 0.90199 0.75817 0.44344 0.0
O27 O 0.883 0.71731 0.54763 0.0
Mg28 Mg 0.51774 0.63495 0.72291 0.0
O29 O 0.48316 0.6424 0.75954 0.0
O30 O 0.44623 0.63235 0.73255 0.0
Mg31 Mg 0.45852 0.61597 0.67555 0.0
C32 C 0.45892 0.64092 0.76035 0.0
C33 C 0.55909 0.63235 0.79188 0.0
O34 O 0.5673 0.61031 0.77909 0.0
O35 O 0.51479 0.59252 0.73645 0.0
O36 O 0.47861 0.58307 0.70611 0.0
O37 O 0.51277 0.67301 0.69643 0.0
O38 O 0.4947 0.63767 0.67534 0.0
C39 C 0.49768 0.57657 0.72633 0.0
C40 C 0.49732 0.66205 0.67313 0.0
O41 O 0.54146 0.64416 0.77464 0.0
Mg42 Mg 0.6155 0.27273 0.00082 0.0
O43 O 0.6051 0.2367 0.03331 0.0
O44 O 0.61311 0.202 0.99866 0.0
Mg45 Mg 0.62891 0.21648 0.94247 0.0
C46 C 0.60542 0.21252 0.02891 0.0
C47 C 0.5952 0.31449 0.05159 0.0
O48 O 0.58628 0.32022 0.01821 0.0
O49 O 0.65717 0.26391 0.01248 0.0
O50 O 0.66485 0.23165 0.97257 0.0
O51 O 0.57675 0.27438 0.97512 0.0
O52 O 0.6093 0.25307 0.95097 0.0
C53 C 0.67223 0.24786 0.9971 0.0
C54 C 0.58545 0.25886 0.95003 0.0
O55 O 0.6106 0.29586 0.05456 0.0
Mg56 Mg 0.99385 0.63308 0.24523 0.0
O57 O 0.02961 0.64239 0.20954 0.0
O58 O 0.06315 0.62806 0.24215 0.0
Mg59 Mg 0.04992 0.60995 0.29678 0.0
C60 C 0.05367 0.63915 0.21347 0.0
C61 C 0.95078 0.65917 0.20222 0.0
O62 O 0.94884 0.66852 0.23627 0.0
O63 O 0.99673 0.59078 0.22895 0.0
O64 O 0.03059 0.57827 0.26266 0.0
O65 O 0.99788 0.67051 0.27485 0.0
O66 O 0.01631 0.63472 0.29341 0.0
C67 C 0.01242 0.57365 0.23984 0.0
C68 C 0.0137 0.65905 0.297 0.0
O69 O 0.96779 0.64242 0.19573 0.0
Mg70 Mg 0.61183 0.72734 0.52302 0.0
O71 O 0.60333 0.75993 0.48154 0.0
O72 O 0.60938 0.79748 0.5099 0.0
Mg73 Mg 0.6229 0.78875 0.56966 0.0
C74 C 0.60318 0.78432 0.48118 0.0
C75 C 0.59365 0.68134 0.47799 0.0
O76 O 0.58188 0.67859 0.51023 0.0
O77 O 0.65445 0.73373 0.51613 0.0
O78 O 0.65983 0.7706 0.54683 0.0
O79 O 0.57185 0.72854 0.54413 0.0
O80 O 0.60354 0.75161 0.56731 0.0
C81 C 0.66874 0.75156 0.52857 0.0
C82 C 0.57965 0.74608 0.56691 0.0
O83 O 0.6097 0.69933 0.4745 0.0
Mg84 Mg 0.51467 0.3722 0.75841 0.0
O85 O 0.48388 0.36389 0.71541 0.0
O86 O 0.44462 0.36558 0.73911 0.0
Mg87 Mg 0.45088 0.37838 0.79993 0.0
C88 C 0.45981 0.36195 0.71172 0.0
C89 C 0.559 0.35491 0.7072 0.0
O90 O 0.56188 0.33986 0.73634 0.0
O91 O 0.50593 0.41465 0.75289 0.0
O92 O 0.46682 0.41636 0.77807 0.0
O93 O 0.51385 0.33143 0.7773 0.0
O94 O 0.48974 0.36181 0.8015 0.0
C95 C 0.48597 0.42704 0.76247 0.0
C96 C 0.49589 0.33804 0.80019 0.0
O97 O 0.54235 0.37251 0.70885 0.0
Mg98 Mg 0.88005 0.27327 0.0213 0.0
O99 O 0.88994 0.23743 0.98818 0.0
O100 O 0.88121 0.2023 0.02137 0.0
Mg101 Mg 0.86498 0.21641 0.0775 0.0
C102 C 0.8893 0.21322 0.99173 0.0
C103 C 0.90319 0.31355 0.9698 0.0
O104 O 0.91358 0.31834 0.00259 0.0
O105 O 0.83823 0.26562 0.00854 0.0
O106 O 0.82985 0.23275 0.04683 0.0
O107 O 0.91864 0.27342 0.04784 0.0
O108 O 0.88538 0.25275 0.07079 0.0
C109 C 0.82281 0.24949 0.02288 0.0
C110 C 0.90938 0.25776 0.07224 0.0
O111 O 0.88605 0.29648 0.96778 0.0
Mg112 Mg 0.01376 0.62626 0.76432 0.0
O113 O 0.98112 0.64224 0.72901 0.0
O114 O 0.94375 0.63339 0.75613 0.0
Mg115 Mg 0.95328 0.61492 0.81303 0.0
C116 C 0.95679 0.64289 0.72933 0.0
C117 C 0.05406 0.64942 0.71144 0.0
O118 O 0.05532 0.66484 0.74041 0.0
O119 O 0.00238 0.58597 0.74769 0.0
O120 O 0.96804 0.57869 0.78346 0.0
O121 O 0.01732 0.66351 0.79398 0.0
O122 O 0.9916 0.6324 0.81194 0.0
C123 C 0.98499 0.57126 0.76017 0.0
C124 C -0.00067 0.6556 0.81576 0.0
O125 O 0.03959 0.63003 0.71322 0.0
Mg126 Mg 0.1181 0.264 0.50975 0.0
O127 O 0.1093 0.22931 0.47327 0.0
O128 O 0.1178 0.19296 0.50338 0.0
Mg129 Mg 0.13522 0.20519 0.55962 0.0
C130 C 0.10981 0.205 0.47461 0.0
C131 C 0.09222 0.3021 0.45484 0.0
O132 O 0.07624 0.3027 0.48317 0.0
O133 O 0.16045 0.25918 0.49766 0.0
O134 O 0.16934 0.22332 0.5292 0.0
O135 O 0.07962 0.26066 0.5374 0.0
O136 O 0.11469 0.24198 0.55788 0.0
C137 C 0.17615 0.24204 0.50853 0.0
C138 C 0.09057 0.2456 0.56128 0.0
O139 O 0.1123 0.28866 0.45763 0.0
Mg140 Mg 0.47776 0.36159 0.27846 0.0
O141 O 0.51458 0.35482 0.24625 0.0
O142 O 0.54944 0.36338 0.27976 0.0
Mg143 Mg 0.53338 0.3806 0.33416 0.0
C144 C 0.53874 0.35573 0.24969 0.0
C145 C 0.44036 0.36036 0.20322 0.0
O146 O 0.42923 0.382 0.21216 0.0
O147 O 0.48109 0.40415 0.26537 0.0
O148 O 0.51551 0.4134 0.30005 0.0
O149 O 0.48154 0.32348 0.30511 0.0
O150 O 0.49748 0.3589 0.32936 0.0
C151 C 0.49774 0.41999 0.27744 0.0
C152 C 0.49508 0.33447 0.33078 0.0
O153 O 0.45769 0.35121 0.22413 0.0
Mg154 Mg 0.38179 0.71565 0.01973 0.0
O155 O 0.39587 0.74768 0.98237 0.0
O156 O 0.38854 0.78685 0.00377 0.0
Mg157 Mg 0.36832 0.77911 0.05993 0.0
C158 C 0.39726 0.77179 0.97877 0.0
C159 C 0.41428 0.69139 0.96113 0.0
O160 O 0.42888 0.70575 0.98229 0.0
O161 O 0.34126 0.7243 0.00042 0.0
O162 O 0.33411 0.76207 0.0279 0.0
O163 O 0.41791 0.71494 0.05279 0.0
O164 O 0.38556 0.74053 0.06568 0.0
C165 C 0.32667 0.74318 0.00796 0.0
C166 C 0.40872 0.73356 0.07222 0.0
O167 O 0.39077 0.68934 0.96964 0.0
Mg168 Mg 0.01556 0.36486 0.73636 0.0
O169 O 0.98089 0.35361 0.77116 0.0
O170 O 0.94476 0.36031 0.73937 0.0
Mg171 Mg 0.9572 0.37598 0.68188 0.0
C172 C 0.95662 0.3532 0.76886 0.0
C173 C 0.05644 0.34459 0.79145 0.0
O174 O 0.06194 0.33119 0.76138 0.0
O175 O 0.00555 0.40632 0.74795 0.0
O176 O 0.97178 0.41269 0.7104 0.0
O177 O 0.01783 0.32594 0.71102 0.0
O178 O 0.99488 0.35779 0.68795 0.0
C179 C 0.98847 0.42075 0.73369 0.0
C180 C 0.00137 0.3341 0.68682 0.0
O181 O 0.03925 0.36164 0.78943 0.0
Mg182 Mg 0.37875 0.26563 0.47438 0.0
O183 O 0.39357 0.2358 0.51595 0.0
O184 O 0.39068 0.19658 0.49168 0.0
Mg185 Mg 0.3753 0.20191 0.432 0.0
C186 C 0.39652 0.21167 0.51842 0.0
C187 C 0.39459 0.31024 0.52532 0.0
O188 O 0.41012 0.313 0.49676 0.0
O189 O 0.33783 0.25284 0.48416 0.0
O190 O 0.33684 0.21446 0.45657 0.0
O191 O 0.41807 0.26977 0.4512 0.0
O192 O 0.38965 0.2417 0.43088 0.0
C193 C 0.32598 0.23263 0.47436 0.0
C194 C 0.41262 0.25043 0.43015 0.0
O195 O 0.37721 0.29345 0.52335 0.0
Mg196 Mg 0.49132 0.62546 0.23809 0.0
O197 O 0.52494 0.63291 0.27762 0.0
O198 O 0.56218 0.62684 0.2484 0.0
Mg199 Mg 0.55198 0.61279 0.18951 0.0
C200 C 0.54929 0.6329 0.27738 0.0
C201 C 0.45011 0.64826 0.28942 0.0
O202 O 0.44871 0.66253 0.25923 0.0
O203 O 0.49722 0.58246 0.2459 0.0
O204 O 0.5344 0.57702 0.21605 0.0
O205 O 0.49373 0.6656 0.21657 0.0
O206 O 0.51531 0.63319 0.19268 0.0
C207 C 0.51558 0.56828 0.23476 0.0
C208 C 0.51087 0.65736 0.19355 0.0
O209 O 0.4649 0.629 0.28908 0.0
Mg210 Mg 0.12462 0.72879 0.96739 0.0
O211 O 0.11339 0.75442 0.01686 0.0
O212 O 0.11426 0.79516 0.99869 0.0
Mg213 Mg 0.12715 0.79538 0.93735 0.0
C214 C 0.11044 0.77817 0.02369 0.0
C215 C 0.13233 0.67785 0.03112 0.0
O216 O 0.15232 0.66285 0.02816 0.0
O217 O 0.16617 0.74006 0.9745 0.0
O218 O 0.16676 0.78074 0.95546 0.0
O219 O 0.08389 0.7279 0.94805 0.0
O220 O 0.11266 0.75612 0.92993 0.0
C221 C 0.17803 0.76084 0.96797 0.0
C222 C 0.08947 0.74817 0.92896 0.0
O223 O 0.12961 0.69613 0.00819 0.0
Mg224 Mg 0.48042 0.87302 0.73695 0.0
O225 O 0.51617 0.86447 0.77118 0.0
O226 O 0.55142 0.87425 0.73912 0.0
Mg227 Mg 0.5374 0.89151 0.68343 0.0
C228 C 0.54037 0.86567 0.76837 0.0
C229 C 0.45597 0.84241 0.80007 0.0
O230 O 0.46761 0.82531 0.7793 0.0
O231 O 0.48533 0.9151 0.75044 0.0
O232 O 0.51869 0.92539 0.71422 0.0
O233 O 0.48325 0.83499 0.70877 0.0
O234 O 0.50152 0.86991 0.68728 0.0
C235 C 0.50095 0.93144 0.73714 0.0
C236 C 0.49824 0.84565 0.68471 0.0
O237 O 0.4569 0.8657 0.79013 0.0
Mg238 Mg 0.38189 0.23315 0.98513 0.0
O239 O 0.38781 0.26878 0.02186 0.0
O240 O 0.37195 0.30322 0.99296 0.0
Mg241 Mg 0.35629 0.28958 0.93664 0.0
C242 C 0.38304 0.29271 0.02083 0.0
C243 C 0.4116 0.19351 0.0321 0.0
O244 O 0.4233 0.19235 0.99959 0.0
O245 O 0.33947 0.23291 0.00024 0.0
O246 O 0.32591 0.26757 0.96939 0.0
O247 O 0.41927 0.24021 0.95697 0.0
O248 O 0.38266 0.25682 0.9381 0.0
C249 C 0.32181 0.24838 0.99058 0.0
C250 C 0.40711 0.25567 0.93508 0.0
O251 O 0.39229 0.20804 0.03535 0.0
Mg252 Mg 0.0147 0.12903 0.23312 0.0
O253 O 0.98078 0.13644 0.27221 0.0
O254 O 0.94425 0.12761 0.24271 0.0
Mg255 Mg 0.95534 0.11102 0.18555 0.0
C256 C 0.95646 0.13556 0.27138 0.0
C257 C 0.05706 0.1542 0.27874 0.0
O258 O 0.05852 0.16549 0.24594 0.0
O259 O 0.01204 0.08613 0.24396 0.0
O260 O 0.97582 0.07718 0.21351 0.0
O261 O 0.00929 0.1679 0.2087 0.0
O262 O 0.99097 0.1331 0.18644 0.0
C263 C 0.99515 0.07024 0.23287 0.0
C264 C 0.99345 0.15752 0.18544 0.0
O265 O 0.04125 0.13605 0.28284 0.0
Mg266 Mg 0.12149 0.77076 0.48027 0.0
O267 O 0.11062 0.74105 0.52385 0.0
O268 O 0.11371 0.70136 0.50179 0.0
Mg269 Mg 0.12923 0.70601 0.44219 0.0
C270 C 0.10853 0.717 0.52812 0.0
C271 C 0.09988 0.81373 0.53051 0.0
O272 O 0.08297 0.81265 0.50338 0.0
O273 O 0.16357 0.76174 0.49054 0.0
O274 O 0.16629 0.72222 0.46678 0.0
O275 O 0.0818 0.76978 0.45681 0.0
O276 O 0.11309 0.7449 0.43736 0.0
C277 C 0.17632 0.74159 0.4828 0.0
C278 C 0.0894 0.75125 0.43561 0.0
O279 O 0.11986 0.80005 0.52799 0.0
Mg280 Mg 0.48429 0.14056 0.77053 0.0
O281 O 0.52124 0.14995 0.74006 0.0
O282 O 0.55473 0.1346 0.77185 0.0
Mg283 Mg 0.53855 0.11783 0.82643 0.0
C284 C 0.54512 0.14614 0.7437 0.0
C285 C 0.44625 0.13728 0.69984 0.0
O286 O 0.44008 0.1147 0.71299 0.0
O287 O 0.48874 0.09872 0.75364 0.0
O288 O 0.51964 0.08577 0.79282 0.0
O289 O 0.48717 0.1776 0.80075 0.0
O290 O 0.50386 0.14144 0.82129 0.0
C291 C 0.50295 0.08134 0.76758 0.0
C292 C 0.50138 0.16577 0.82486 0.0
O293 O 0.46267 0.1507 0.7171 0.0
Mg294 Mg 0.12037 0.22684 0.02814 0.0
O295 O 0.11487 0.25414 0.97812 0.0
O296 O 0.11477 0.29393 0.00152 0.0
Mg297 Mg 0.12222 0.2925 0.06443 0.0
C298 C 0.1129 0.27834 0.97411 0.0
C299 C 0.12782 0.17904 0.96122 0.0
O300 O 0.14387 0.16 0.95684 0.0
O301 O 0.16262 0.23709 0.0296 0.0
O302 O 0.16228 0.27685 0.05224 0.0
O303 O 0.07785 0.22719 0.03917 0.0
O304 O 0.10555 0.25435 0.06334 0.0
C305 C 0.17424 0.25729 0.04 0.0
C306 C 0.0823 0.24752 0.05876 0.0
O307 O 0.1302 0.19294 0.99025 0.0
Mg308 Mg 0.01638 0.86463 0.2665 0.0
O309 O 0.98418 0.85105 0.22774 0.0
O310 O 0.94614 0.85743 0.25425 0.0
Mg311 Mg 0.95415 0.87469 0.3121 0.0
C312 C 0.95986 0.84982 0.2269 0.0
C313 C 0.05444 0.83942 0.2115 0.0
O314 O 0.05187 0.82176 0.23729 0.0
O315 O 0.00659 0.90642 0.25332 0.0
O316 O 0.96916 0.91055 0.283 0.0
O317 O 0.01779 0.82632 0.29442 0.0
O318 O 0.99277 0.85798 0.31249 0.0
C319 C 0.9873 0.91973 0.26334 0.0
C320 C -0.00024 0.83456 0.31589 0.0
O321 O 0.04342 0.86085 0.21626 0.0
Mg322 Mg 0.38347 0.77973 0.50965 0.0
O323 O 0.39289 0.74812 0.46749 0.0
O324 O 0.38663 0.70953 0.49229 0.0
Mg325 Mg 0.3717 0.71696 0.55183 0.0
C326 C 0.39324 0.72381 0.46502 0.0
C327 C 0.40451 0.82482 0.46514 0.0
O328 O 0.41614 0.82708 0.4976 0.0
O329 O 0.34118 0.77325 0.49978 0.0
O330 O 0.33522 0.73553 0.52785 0.0
O331 O 0.42277 0.77822 0.53304 0.0
O332 O 0.39068 0.75447 0.5533 0.0
C333 C 0.32669 0.755 0.51019 0.0
C334 C 0.41452 0.76024 0.55463 0.0
O335 O 0.38714 0.80808 0.46173 0.0
Mg336 Mg 0.51761 0.12573 0.26602 0.0
O337 O 0.48426 0.13763 0.2283 0.0
O338 O 0.44694 0.13169 0.25702 0.0
Mg339 Mg 0.45674 0.11183 0.31238 0.0
C340 C 0.45998 0.13913 0.22891 0.0
C341 C 0.56056 0.15014 0.22135 0.0
O342 O 0.56343 0.15956 0.25523 0.0
O343 O 0.51061 0.08395 0.25093 0.0
O344 O 0.47306 0.07787 0.27963 0.0
O345 O 0.51592 0.16365 0.29492 0.0
O346 O 0.49481 0.12946 0.31339 0.0
C347 C 0.49163 0.06986 0.25965 0.0
C348 C 0.49963 0.15334 0.3175 0.0
O349 O 0.54382 0.13297 0.21619 0.0
Mg350 Mg 0.61338 0.77066 0.00983 0.0
O351 O 0.60055 0.73788 0.97177 0.0
O352 O 0.60699 0.70022 0.99961 0.0
Mg353 Mg 0.62356 0.70939 0.05747 0.0
C354 C 0.59951 0.71355 0.97179 0.0
C355 C 0.59446 0.816 0.96358 0.0
O356 O 0.58468 0.82006 0.99695 0.0
O357 O 0.65555 0.76158 0.99833 0.0
O358 O 0.65956 0.72445 0.02893 0.0
O359 O 0.57442 0.77124 0.03548 0.0
O360 O 0.60649 0.74799 0.05668 0.0
C361 C 0.66887 0.74251 0.00923 0.0
C362 C 0.58274 0.75414 0.05862 0.0
O363 O 0.60965 0.7973 0.95936 0.0
Mg364 Mg 0.9822 0.87569 0.76697 0.0
O365 O 0.0114 0.86986 0.72022 0.0
O366 O 0.051 0.87768 0.7401 0.0
Mg367 Mg 0.04657 0.89035 0.80149 0.0
C368 C 0.03538 0.87107 0.71442 0.0
C369 C 0.93635 0.85255 0.72604 0.0
O370 O 0.93693 0.83965 0.75759 0.0
O371 O 0.98515 0.91905 0.75987 0.0
O372 O 0.02416 0.92586 0.78319 0.0
O373 O 0.9882 0.83554 0.78666 0.0
O374 O 0.01074 0.86858 0.80642 0.0
C375 C 0.00329 0.9341 0.76912 0.0
C376 C 0.00703 0.8443 0.80618 0.0
O377 O 0.9514 0.87136 0.72221 0.0
Mg378 Mg 0.87837 0.2354 0.50875 0.0
O379 O 0.88788 0.26953 0.47113 0.0
O380 O 0.88039 0.3064 0.50071 0.0
Mg381 Mg 0.86185 0.29544 0.55634 0.0
C382 C 0.888 0.29389 0.47214 0.0
C383 C 0.90468 0.19323 0.46399 0.0
O384 O 0.91533 0.19192 0.49727 0.0
O385 O 0.83618 0.24078 0.49416 0.0
O386 O 0.8286 0.278 0.52325 0.0
O387 O 0.91637 0.23867 0.53706 0.0
O388 O 0.88151 0.25837 0.55621 0.0
C389 C 0.82137 0.25926 0.50293 0.0
C390 C 0.90558 0.25447 0.55997 0.0
O391 O 0.88644 0.20891 0.45904 0.0
Mg392 Mg 0.51894 0.86066 0.22925 0.0
O393 O 0.48363 0.85796 0.2667 0.0
O394 O 0.44823 0.86762 0.2347 0.0
Mg395 Mg 0.4618 0.88079 0.17695 0.0
C396 C 0.45946 0.86058 0.26469 0.0
C397 C 0.55698 0.83256 0.27956 0.0
O398 O 0.55772 0.81987 0.24781 0.0
O399 O 0.51883 0.90409 0.23739 0.0
O400 O 0.48366 0.91352 0.20462 0.0
O401 O 0.5111 0.82148 0.20712 0.0
O402 O 0.49589 0.85665 0.18153 0.0
C403 C 0.50273 0.92027 0.2246 0.0
C404 C 0.49659 0.83212 0.18232 0.0
O405 O 0.54356 0.85278 0.2812 0.0
Mg406 Mg 0.87853 0.76782 0.97865 0.0
O407 O 0.88628 0.73309 0.01551 0.0
O408 O 0.87648 0.69684 0.98603 0.0
Mg409 Mg 0.85833 0.70925 0.93046 0.0
C410 C 0.8852 0.7088 0.01441 0.0
C411 C 0.87468 0.80355 0.05355 0.0
O412 O 0.84981 0.8038 0.04915 0.0
O413 O 0.83583 0.76564 0.99215 0.0
O414 O 0.82588 0.72991 0.96109 0.0
O415 O 0.91645 0.76199 0.95146 0.0
O416 O 0.88066 0.74484 0.93073 0.0
C417 C 0.81956 0.749 0.9814 0.0
C418 C 0.90507 0.74669 0.92842 0.0
O419 O 0.88862 0.79204 0.02981 0.0
Mg420 Mg 0.98547 0.14119 0.75182 0.0
O421 O 0.02094 0.15458 0.78591 0.0
O422 O 0.05471 0.14709 0.7494 0.0
Mg423 Mg 0.04205 0.12948 0.694 0.0
C424 C 0.045 0.1553 0.77993 0.0
C425 C 0.94072 0.1579 0.79894 0.0
O426 O 0.93496 0.16517 0.76472 0.0
O427 O 0.99503 0.09917 0.76321 0.0
O428 O 0.02904 0.09388 0.72599 0.0
O429 O 0.98236 0.17971 0.72456 0.0
O430 O 0.0048 0.14746 0.70194 0.0
C431 C 0.01269 0.08526 0.74927 0.0
C432 C 0.99812 0.17103 0.69977 0.0
O433 O 0.96104 0.14514 0.80406 0.0
Mg434 Mg 0.61444 0.2219 0.492 0.0
O435 O 0.61032 0.257 0.5289 0.0
O436 O 0.61458 0.29364 0.49791 0.0
Mg437 Mg 0.62447 0.28045 0.43795 0.0
C438 C 0.61058 0.28129 0.52813 0.0
C439 C 0.61594 0.17588 0.55324 0.0
O440 O 0.62122 0.16003 0.52577 0.0
O441 O 0.6574 0.2269 0.49312 0.0
O442 O 0.66218 0.26248 0.45912 0.0
O443 O 0.57348 0.22409 0.47598 0.0
O444 O 0.60466 0.24346 0.44513 0.0
C445 C 0.67149 0.24388 0.47798 0.0
C446 C 0.58067 0.23918 0.44934 0.0
O447 O 0.61368 0.19956 0.54646 0.0
H448 H 0.01709 0.33869 0.11932 0.0
H449 H 0.99846 0.28275 0.2035 0.0
H450 H 0.02238 0.25021 0.16921 0.0
H451 H 0.05074 0.23825 0.11687 0.0
H452 H 0.06986 0.29443 0.03356 0.0
H453 H 0.04323 0.32611 0.0652 0.0
C454 C 0.01829 0.31937 0.13008 0.0
C455 C 0.00615 0.31312 0.16389 0.0
C456 C 0.0319 0.30072 0.11007 0.0
C457 C 0.00766 0.288 0.17745 0.0
C458 C 0.0213 0.26937 0.15785 0.0
C459 C 0.04843 0.25725 0.10526 0.0
C460 C 0.06191 0.26409 0.0729 0.0
C461 C 0.0336 0.27552 0.12421 0.0
C462 C 0.05944 0.28884 0.05838 0.0
C463 C 0.04438 0.30698 0.0766 0.0
H464 H 0.94906 0.82805 0.3182 0.0
H465 H 0.01922 0.80189 0.36789 0.0
H466 H 0.99508 0.77544 0.41224 0.0
H467 H 0.95386 0.76053 0.43731 0.0
H468 H 0.88403 0.78665 0.38565 0.0
H469 H 0.90827 0.81202 0.34114 0.0
C470 C 0.95902 0.81657 0.33879 0.0
C471 C 0.98569 0.81712 0.34044 0.0
C472 C 0.94513 0.8012 0.36346 0.0
C473 C 0.99859 0.80165 0.36635 0.0
C474 C 0.98484 0.78655 0.39155 0.0
C475 C 0.94399 0.77168 0.41619 0.0
C476 C 0.91718 0.77203 0.41522 0.0
C477 C 0.95807 0.78626 0.39047 0.0
C478 C 0.90465 0.7864 0.38749 0.0
C479 C 0.91847 0.80086 0.36189 0.0
H480 H 0.49193 0.71366 0.67056 0.0
H481 H 0.46691 0.64405 0.61723 0.0
H482 H 0.43896 0.66835 0.57594 0.0
H483 H 0.42096 0.70932 0.55562 0.0
H484 H 0.44712 0.77914 0.60639 0.0
H485 H 0.47466 0.75491 0.64884 0.0
C486 C 0.48048 0.70385 0.64975 0.0
C487 C 0.48132 0.67709 0.64722 0.0
C488 C 0.46458 0.71797 0.62582 0.0
C489 C 0.46637 0.66462 0.62012 0.0
C490 C 0.45043 0.67848 0.59638 0.0
C491 C 0.43288 0.71911 0.57588 0.0
C492 C 0.43211 0.74577 0.57832 0.0
C493 C 0.44925 0.70512 0.59915 0.0
C494 C 0.44772 0.75852 0.60412 0.0
C495 C 0.46353 0.74469 0.62819 0.0
H496 H 0.50814 0.21718 0.82982 0.0
H497 H 0.52919 0.146 0.88241 0.0
H498 H 0.55751 0.16859 0.92516 0.0
H499 H 0.57717 0.20842 0.94666 0.0
H500 H 0.55465 0.27994 0.89735 0.0
H501 H 0.52635 0.25742 0.85372 0.0
C502 C 0.51874 0.20666 0.85086 0.0
C503 C 0.51681 0.17991 0.85257 0.0
C504 C 0.53485 0.21981 0.87568 0.0
C505 C 0.53065 0.16654 0.88002 0.0
C506 C 0.54681 0.17944 0.90459 0.0
C507 C 0.56599 0.21897 0.92634 0.0
C508 C 0.56801 0.24559 0.92462 0.0
C509 C 0.54927 0.206 0.90238 0.0
C510 C 0.55324 0.25933 0.89885 0.0
C511 C 0.53703 0.2465 0.87412 0.0
H512 H 0.00107 0.69896 0.3419 0.0
H513 H 0.06462 0.65271 0.30623 0.0
H514 H 0.09344 0.67742 0.3453 0.0
H515 H 0.10082 0.71234 0.38871 0.0
H516 H 0.03769 0.75768 0.4285 0.0
H517 H 0.00843 0.73327 0.38848 0.0
C518 C 0.02122 0.69433 0.34295 0.0
C519 C 0.03069 0.67383 0.32164 0.0
C520 C 0.03773 0.7085 0.36604 0.0
C521 C 0.05677 0.66794 0.32303 0.0
C522 C 0.07333 0.68224 0.34514 0.0
C523 C 0.08064 0.71678 0.38915 0.0
C524 C 0.07145 0.73668 0.41182 0.0
C525 C 0.06401 0.70249 0.36678 0.0
C526 C 0.04525 0.74243 0.41129 0.0
C527 C 0.02854 0.72852 0.38845 0.0
H528 H 0.57314 0.79691 0.56666 0.0
H529 H 0.5462 0.72763 0.61789 0.0
H530 H 0.51877 0.75243 0.65991 0.0
H531 H 0.50209 0.7939 0.6813 0.0
H532 H 0.52813 0.86302 0.62779 0.0
H533 H 0.55548 0.83817 0.58635 0.0
C534 C 0.56099 0.78735 0.58679 0.0
C535 C 0.56158 0.7607 0.5896 0.0
C536 C 0.5447 0.80163 0.60978 0.0
C537 C 0.54574 0.74823 0.61532 0.0
C538 C 0.53 0.76237 0.63911 0.0
C539 C 0.51364 0.80351 0.66044 0.0
C540 C 0.51336 0.8303 0.65804 0.0
C541 C 0.52924 0.78909 0.63649 0.0
C542 C 0.52831 0.84246 0.6307 0.0
C543 C 0.5439 0.82827 0.60686 0.0
H544 H 0.44612 0.24538 0.88748 0.0
H545 H 0.39969 0.30669 0.93041 0.0
H546 H 0.42337 0.33748 0.89304 0.0
H547 H 0.45759 0.34708 0.84931 0.0
H548 H 0.50251 0.28607 0.80185 0.0
H549 H 0.47905 0.25499 0.83977 0.0
C550 C 0.44122 0.26549 0.88837 0.0
C551 C 0.4211 0.27382 0.91134 0.0
C552 C 0.45465 0.28308 0.86613 0.0
C553 C 0.41477 0.29982 0.91241 0.0
C554 C 0.42844 0.31745 0.89125 0.0
C555 C 0.46215 0.32699 0.84677 0.0
C556 C 0.48171 0.31896 0.82257 0.0
C557 C 0.44839 0.30929 0.86805 0.0
C558 C 0.48754 0.29281 0.82028 0.0
C559 C 0.47418 0.27503 0.84198 0.0
H560 H 0.91509 0.20693 0.07302 0.0
H561 H 0.94191 0.27593 0.1253 0.0
H562 H 0.9699 0.25079 0.16636 0.0
H563 H 0.98785 0.20929 0.18548 0.0
H564 H 0.96203 0.14071 0.13002 0.0
H565 H 0.93318 0.16571 0.09115 0.0
C566 C 0.9271 0.21641 0.0934 0.0
C567 C 0.9264 0.24303 0.09662 0.0
C568 C 0.94374 0.20201 0.11565 0.0
C569 C 0.94229 0.25534 0.12254 0.0
C570 C 0.95839 0.24104 0.14571 0.0
C571 C 0.97595 0.19984 0.16484 0.0
C572 C 0.97687 0.17313 0.16102 0.0
C573 C 0.95948 0.21438 0.14225 0.0
C574 C 0.96143 0.16118 0.134 0.0
C575 C 0.94496 0.17546 0.11162 0.0
H576 H 0.94869 0.66287 0.81937 0.0
H577 H 0.01994 0.68951 0.86482 0.0
H578 H 0.9971 0.72038 0.90424 0.0
H579 H 0.95667 0.73986 0.92517 0.0
H580 H 0.88595 0.71489 0.87507 0.0
H581 H 0.90879 0.68353 0.83768 0.0
C582 C 0.95913 0.67527 0.83821 0.0
C583 C 0.98576 0.6737 0.83999 0.0
C584 C 0.946 0.69346 0.85955 0.0
C585 C -0.00068 0.69038 0.86344 0.0
C586 C 0.98631 0.70806 0.88575 0.0
C587 C 0.94629 0.72763 0.90596 0.0
C588 C 0.91956 0.72935 0.90361 0.0
C589 C 0.95962 0.70984 0.88392 0.0
C590 C 0.90643 0.71357 0.87821 0.0
C591 C 0.91948 0.69567 0.85664 0.0
H592 H 0.03863 0.24279 0.5709 0.0
H593 H 0.11032 0.2175 0.61793 0.0
H594 H 0.08791 0.19283 0.66494 0.0
H595 H 0.04835 0.17743 0.69203 0.0
H596 H 0.97615 0.20271 0.64826 0.0
H597 H 0.99819 0.22808 0.60035 0.0
C598 C 0.04929 0.23191 0.5915 0.0
C599 C 0.07614 0.23165 0.59036 0.0
C600 C 0.03621 0.21779 0.61902 0.0
C601 C 0.08968 0.21767 0.61752 0.0
C602 C 0.0769 0.20362 0.64466 0.0
C603 C 0.03749 0.18858 0.67207 0.0
C604 C 0.01084 0.18813 0.67318 0.0
C605 C 0.05025 0.20336 0.64545 0.0
C606 C 0.99681 0.20299 0.64779 0.0
C607 C 0.00941 0.21749 0.62053 0.0
H608 H 0.56473 0.28761 0.45739 0.0
H609 H 0.55585 0.22049 0.38896 0.0
H610 H 0.52764 0.2439 0.34623 0.0
H611 H 0.50689 0.28406 0.32737 0.0
H612 H 0.51607 0.3513 0.39593 0.0
H613 H 0.54237 0.32724 0.44007 0.0
C614 C 0.55626 0.27818 0.43333 0.0
C615 C 0.56202 0.25255 0.42605 0.0
C616 C 0.54009 0.29174 0.40914 0.0
C617 C 0.55129 0.24026 0.39494 0.0
C618 C 0.53526 0.25362 0.3706 0.0
C619 C 0.5144 0.29333 0.35221 0.0
C620 C 0.50965 0.3194 0.35836 0.0
C621 C 0.52968 0.27944 0.37727 0.0
C622 C 0.51969 0.33128 0.39045 0.0
C623 C 0.53468 0.31755 0.41572 0.0
H624 H 0.48959 0.78057 0.18296 0.0
H625 H 0.46509 0.84946 0.12708 0.0
H626 H 0.43437 0.82528 0.09046 0.0
H627 H 0.41467 0.78457 0.07356 0.0
H628 H 0.44133 0.71503 0.12463 0.0
H629 H 0.47098 0.73938 0.16401 0.0
C630 C 0.47754 0.79028 0.16277 0.0
C631 C 0.47922 0.81691 0.15853 0.0
C632 C 0.46022 0.77614 0.14107 0.0
C633 C 0.46374 0.82912 0.13178 0.0
C634 C 0.44622 0.81529 0.11059 0.0
C635 C 0.42667 0.77486 0.09378 0.0
C636 C 0.42552 0.74826 0.09704 0.0
C637 C 0.44418 0.78885 0.11517 0.0
C638 C 0.4418 0.73563 0.12218 0.0
C639 C 0.45875 0.74951 0.14453 0.0
H640 H 0.95087 0.328 0.68222 0.0
H641 H 0.0218 0.30042 0.63699 0.0
H642 H 0.99846 0.2731 0.59282 0.0
H643 H 0.95744 0.25732 0.56722 0.0
H644 H 0.88691 0.28464 0.61532 0.0
H645 H 0.9105 0.31135 0.65889 0.0
C646 C 0.96114 0.31594 0.66272 0.0
C647 C 0.98781 0.31631 0.66223 0.0
C648 C 0.94766 0.29997 0.63837 0.0
C649 C 0.00114 0.30026 0.63762 0.0
C650 C 0.98781 0.28463 0.61256 0.0
C651 C 0.94728 0.26906 0.58733 0.0
C652 C 0.92044 0.26935 0.58751 0.0
C653 C 0.96101 0.28435 0.61266 0.0
C654 C 0.90753 0.28445 0.614 0.0
C655 C 0.92099 0.29966 0.6391 0.0
H656 H 0.49669 0.20536 0.32289 0.0
H657 H 0.46925 0.13555 0.37295 0.0
H658 H 0.44076 0.15973 0.41325 0.0
H659 H 0.42174 0.20018 0.43164 0.0
H660 H 0.44873 0.27051 0.38374 0.0
H661 H 0.4794 0.24669 0.34517 0.0
C662 C 0.48463 0.19551 0.34286 0.0
C663 C 0.48466 0.16867 0.34431 0.0
C664 C 0.46818 0.20957 0.36614 0.0
C665 C 0.46917 0.15615 0.37063 0.0
C666 C 0.45292 0.16994 0.39382 0.0
C667 C 0.43427 0.21025 0.41265 0.0
C668 C 0.43265 0.23681 0.40959 0.0
C669 C 0.45187 0.19655 0.39121 0.0
C670 C 0.44964 0.24991 0.38613 0.0
C671 C 0.46715 0.23633 0.36421 0.0
H672 H 0.49608 0.69622 0.14798 0.0
H673 H 0.56233 0.65868 0.19365 0.0
H674 H 0.59023 0.68665 0.15805 0.0
H675 H 0.59593 0.72034 0.11222 0.0
H676 H 0.53043 0.75672 0.0621 0.0
H677 H 0.50208 0.73094 0.10126 0.0
C678 C 0.51663 0.69437 0.1501 0.0
C679 C 0.52723 0.67524 0.17293 0.0
C680 C 0.53263 0.71027 0.12876 0.0
C681 C 0.5538 0.67287 0.17565 0.0
C682 C 0.56976 0.68898 0.15546 0.0
C683 C 0.57546 0.72261 0.10963 0.0
C684 C 0.56533 0.74012 0.08385 0.0
C685 C 0.5594 0.70744 0.13153 0.0
C686 C 0.53873 0.74325 0.08163 0.0
C687 C 0.52251 0.7285 0.10401 0.0
H688 H 0.99626 0.80324 0.84991 0.0
H689 H 0.05843 0.84637 0.80285 0.0
H690 H 0.08912 0.82011 0.83641 0.0
H691 H 0.09837 0.78595 0.87994 0.0
H692 H 0.03725 0.74248 0.92939 0.0
H693 H 0.00593 0.76767 0.89384 0.0
C694 C 0.01655 0.80667 0.84699 0.0
C695 C 0.02517 0.827 0.82464 0.0
C696 C 0.03417 0.79152 0.86677 0.0
C697 C 0.0514 0.83137 0.82081 0.0
C698 C 0.06895 0.81621 0.83975 0.0
C699 C 0.0782 0.78199 0.88325 0.0
C700 C 0.07011 0.76258 0.90756 0.0
C701 C 0.06054 0.79652 0.86314 0.0
C702 C 0.04392 0.75741 0.91087 0.0
C703 C 0.02605 0.77178 0.89059 0.0
H704 H 0.07356 0.34056 0.28898 0.0
H705 H 0.00204 0.3632 0.33896 0.0
H706 H 0.01701 0.34929 0.40014 0.0
H707 H 0.049 0.32829 0.43891 0.0
H708 H 0.12006 0.30368 0.38975 0.0
H709 H 0.10678 0.32093 0.32907 0.0
C710 C 0.06141 0.34269 0.31336 0.0
C711 C 0.03666 0.35276 0.30926 0.0
C712 C 0.06998 0.33419 0.34865 0.0
C713 C 0.02108 0.35529 0.34115 0.0
C714 C 0.02962 0.34736 0.37624 0.0
C715 C 0.06174 0.32687 0.41506 0.0
C716 C 0.08543 0.3146 0.41891 0.0
C717 C 0.05382 0.33639 0.38021 0.0
C718 C 0.10166 0.31299 0.3876 0.0
C719 C 0.09406 0.3228 0.35284 0.0
H720 H 0.88257 0.78654 0.60179 0.0
H721 H 0.9107 0.84688 0.53093 0.0
H722 H 0.9272 0.86947 0.58604 0.0
H723 H 0.93544 0.87076 0.65418 0.0
H724 H 0.90578 0.81062 0.72443 0.0
H725 H 0.88769 0.78952 0.66975 0.0
C726 C 0.89232 0.80465 0.59841 0.0
C727 C 0.89574 0.81488 0.56238 0.0
C728 C 0.90133 0.81764 0.63012 0.0
C729 C 0.90793 0.83859 0.55843 0.0
C730 C 0.91736 0.85149 0.5899 0.0
C731 C 0.92471 0.85324 0.6576 0.0
C732 C 0.9222 0.84222 0.69342 0.0
C733 C 0.91437 0.84106 0.62589 0.0
C734 C 0.90815 0.81952 0.69727 0.0
C735 C 0.89787 0.80734 0.66596 0.0
H736 H 0.38963 0.67145 0.89938 0.0
H737 H 0.46433 0.68683 0.94541 0.0
H738 H 0.48419 0.67304 0.8876 0.0
H739 H 0.48093 0.6578 0.82405 0.0
H740 H 0.40724 0.64165 0.77553 0.0
H741 H 0.38651 0.65453 0.83421 0.0
C742 C 0.41024 0.67142 0.89682 0.0
C743 C 0.42541 0.68018 0.92677 0.0
C744 C 0.42178 0.66353 0.86301 0.0
C745 C 0.45211 0.68027 0.92289 0.0
C746 C 0.46357 0.67242 0.88976 0.0
C747 C 0.46029 0.65703 0.82603 0.0
C748 C 0.44571 0.64884 0.79525 0.0
C749 C 0.44863 0.66428 0.8596 0.0
C750 C 0.41898 0.64797 0.79872 0.0
C751 C 0.40712 0.65528 0.83231 0.0
H752 H 0.61059 0.223 0.1024 0.0
H753 H 0.58224 0.16573 0.02626 0.0
H754 H 0.56688 0.14033 0.07937 0.0
H755 H 0.55972 0.13572 0.14756 0.0
H756 H 0.59002 0.19277 0.22284 0.0
H757 H 0.60666 0.21674 0.16994 0.0
C758 C 0.60106 0.20493 0.09744 0.0
C759 C 0.59723 0.19637 0.06057 0.0
C760 C 0.59272 0.19036 0.12795 0.0
C761 C 0.58533 0.17271 0.05448 0.0
C762 C 0.57653 0.15823 0.08481 0.0
C763 C 0.57022 0.15323 0.15239 0.0
C764 C 0.57339 0.1625 0.18917 0.0
C765 C 0.57989 0.16701 0.1217 0.0
C766 C 0.5872 0.18516 0.19491 0.0
C767 C 0.59667 0.199 0.16464 0.0
H768 H 0.04239 0.66256 0.14647 0.0
H769 H 0.10549 0.63594 0.21409 0.0
H770 H 0.13514 0.64662 0.1644 0.0
H771 H 0.14321 0.66036 0.10019 0.0
H772 H 0.08138 0.68899 0.03254 0.0
H773 H 0.05125 0.68068 0.08369 0.0
C774 C 0.06262 0.65919 0.1504 0.0
C775 C 0.0715 0.64786 0.18379 0.0
C776 C 0.07983 0.66549 0.12156 0.0
C777 C 0.0979 0.64414 0.18855 0.0
C778 C 0.11499 0.65026 0.16011 0.0
C779 C 0.12313 0.66479 0.09669 0.0
C780 C 0.11437 0.6747 0.06255 0.0
C781 C 0.10613 0.66034 0.12623 0.0
C782 C 0.08846 0.68108 0.05861 0.0
C783 C 0.07127 0.6763 0.08778 0.0
H784 H 0.56069 0.85356 0.34977 0.0
H785 H 0.57985 0.78614 0.28597 0.0
H786 H 0.59591 0.76552 0.34232 0.0
H787 H 0.60301 0.76567 0.41013 0.0
H788 H 0.58536 0.83322 0.47432 0.0
H789 H 0.57036 0.85465 0.41755 0.0
C790 C 0.56858 0.83445 0.34816 0.0
C791 C 0.56888 0.82144 0.31361 0.0
C792 C 0.57796 0.8226 0.38082 0.0
C793 C 0.57931 0.79669 0.31208 0.0
C794 C 0.58846 0.78478 0.34437 0.0
C795 C 0.59591 0.7851 0.41173 0.0
C796 C 0.59513 0.79772 0.4465 0.0
C797 C 0.58758 0.7974 0.37895 0.0
C798 C 0.58619 0.82303 0.44792 0.0
C799 C 0.57755 0.8353 0.41546 0.0
H800 H 0.43689 0.33717 0.54264 0.0
H801 H 0.36617 0.31017 0.5899 0.0
H802 H 0.37941 0.32523 0.65189 0.0
H803 H 0.4127 0.34313 0.69342 0.0
H804 H 0.48421 0.36741 0.64521 0.0
H805 H 0.46902 0.35623 0.58298 0.0
C806 C 0.42415 0.33488 0.56633 0.0
C807 C 0.40061 0.32252 0.56162 0.0
C808 C 0.43218 0.34281 0.60191 0.0
C809 C 0.38443 0.31962 0.59275 0.0
C810 C 0.39204 0.32811 0.62825 0.0
C811 C 0.42484 0.34613 0.66924 0.0
C812 C 0.44962 0.35591 0.67407 0.0
C813 C 0.41614 0.33924 0.63331 0.0
C814 C 0.46516 0.35964 0.64244 0.0
C815 C 0.45648 0.35335 0.60674 0.0
H816 H 0.94312 0.14288 0.87221 0.0
H817 H 0.90564 0.19603 0.79778 0.0
H818 H 0.88568 0.2171 0.85099 0.0
H819 H 0.88144 0.22267 0.9187 0.0
H820 H 0.91681 0.1689 0.99393 0.0
H821 H 0.93496 0.1457 0.9404 0.0
C822 C 0.93035 0.15889 0.86768 0.0
C823 C 0.92615 0.16806 0.83111 0.0
C824 C 0.91873 0.17091 0.8985 0.0
C825 C 0.90931 0.18861 0.8256 0.0
C826 C 0.89794 0.20078 0.85603 0.0
C827 C 0.89299 0.20575 0.92329 0.0
C828 C 0.89813 0.19761 0.95996 0.0
C829 C 0.90296 0.19245 0.89257 0.0
C830 C 0.91269 0.17546 0.96577 0.0
C831 C 0.92311 0.16229 0.93524 0.0
H832 H 0.90831 0.63471 0.70348 0.0
H833 H 0.97573 0.68016 0.6847 0.0
H834 H 0.95482 0.70184 0.63273 0.0
H835 H 0.91798 0.70766 0.59221 0.0
H836 H 0.85073 0.66149 0.60798 0.0
H837 H 0.87103 0.64026 0.66144 0.0
C838 C 0.91834 0.64942 0.68804 0.0
C839 C 0.94355 0.6558 0.69796 0.0
C840 C 0.9063 0.66161 0.6576 0.0
C841 C 0.9564 0.67474 0.6775 0.0
C842 C 0.94444 0.68721 0.64781 0.0
C843 C 0.90763 0.693 0.6073 0.0
C844 C 0.88279 0.68628 0.59611 0.0
C845 C 0.91948 0.68074 0.63755 0.0
C846 C 0.86984 0.6671 0.616 0.0
C847 C 0.88145 0.65495 0.64658 0.0
H848 H 0.06028 0.13503 0.34997 0.0
H849 H 0.08494 0.1979 0.28069 0.0
H850 H 0.10386 0.21865 0.33498 0.0
H851 H 0.1113 0.22038 0.40251 0.0
H852 H 0.08842 0.15733 0.47238 0.0
H853 H 0.07101 0.13518 0.41749 0.0
C854 C 0.07002 0.15314 0.34672 0.0
C855 C 0.07095 0.16496 0.3113 0.0
C856 C 0.08103 0.16504 0.37818 0.0
C857 C 0.08383 0.18835 0.30755 0.0
C858 C 0.09461 0.20033 0.33864 0.0
C859 C 0.10256 0.20175 0.40572 0.0
C860 C 0.10085 0.19063 0.44145 0.0
C861 C 0.09293 0.18908 0.37413 0.0
C862 C 0.08991 0.16629 0.44512 0.0
C863 C 0.07991 0.15367 0.41378 0.0
H864 H 0.61164 0.31139 0.12444 0.0
H865 H 0.55334 0.34488 0.05432 0.0
H866 H 0.53131 0.36092 0.10942 0.0
H867 H 0.52693 0.36331 0.17732 0.0
H868 H 0.58555 0.33218 0.24871 0.0
H869 H 0.60923 0.31747 0.19335 0.0
C870 C 0.59427 0.32243 0.12127 0.0
C871 C 0.58407 0.32669 0.08526 0.0
C872 C 0.58167 0.33188 0.15326 0.0
C873 C 0.56166 0.34125 0.0816 0.0
C874 C 0.54893 0.35037 0.11314 0.0
C875 C 0.54495 0.35336 0.18077 0.0
C876 C 0.55434 0.34847 0.21692 0.0
C877 C 0.5585 0.34541 0.14904 0.0
C878 C 0.57794 0.33606 0.22106 0.0
C879 C 0.5914 0.32761 0.18945 0.0
H880 H 0.40538 0.82189 0.95851 0.0
H881 H 0.41402 0.74425 0.91914 0.0
H882 H 0.43168 0.75949 0.86068 0.0
H883 H 0.44538 0.79421 0.82074 0.0
H884 H 0.43774 0.8722 0.85789 0.0
H885 H 0.41885 0.85745 0.91694 0.0
C886 C 0.41118 0.80834 0.93716 0.0
C887 C 0.40843 0.78193 0.94359 0.0
C888 C 0.42146 0.81724 0.90308 0.0
C889 C 0.41598 0.76467 0.9154 0.0
C890 C 0.42607 0.77334 0.88172 0.0
C891 C 0.43959 0.80808 0.84166 0.0
C892 C 0.44308 0.83425 0.83498 0.0
C893 C 0.42898 0.7995 0.87534 0.0
C894 C 0.43521 0.85191 0.86232 0.0
C895 C 0.4245 0.84347 0.89613 0.0
H896 H 0.88576 0.30998 0.89745 0.0
H897 H 0.94583 0.34272 0.96501 0.0
H898 H 0.96731 0.35775 0.9089 0.0
H899 H 0.97039 0.35996 0.84082 0.0
H900 H 0.91003 0.32945 0.77206 0.0
H901 H 0.88729 0.31523 0.82842 0.0
C902 C 0.90341 0.32062 0.89987 0.0
C903 C 0.91422 0.32501 0.93548 0.0
C904 C 0.91573 0.32944 0.86729 0.0
C905 C 0.93703 0.33899 0.93809 0.0
C906 C 0.94944 0.34755 0.90596 0.0
C907 C 0.95225 0.35017 0.83814 0.0
C908 C 0.94205 0.34541 0.8024 0.0
C909 C 0.93919 0.34253 0.87048 0.0
C910 C 0.91829 0.33323 0.79934 0.0
C911 C 0.90533 0.32508 0.83153 0.0
H912 H 0.45343 0.18383 0.66843 0.0
H913 H 0.41242 0.1132 0.65297 0.0
H914 H 0.39364 0.12977 0.59508 0.0
H915 H 0.38912 0.16443 0.54856 0.0
H916 H 0.4291 0.23539 0.56621 0.0
H917 H 0.44817 0.21847 0.62341 0.0
C918 C 0.44039 0.17198 0.65247 0.0
C919 C 0.43445 0.14724 0.66501 0.0
C920 C 0.42954 0.18168 0.61949 0.0
C921 C 0.4174 0.13228 0.64397 0.0
C922 C 0.40666 0.14175 0.61082 0.0
C923 C 0.40205 0.17612 0.56494 0.0
C924 C 0.40771 0.20111 0.55316 0.0
C925 C 0.41266 0.1664 0.59825 0.0
C926 C 0.4243 0.21616 0.57482 0.0
C927 C 0.43526 0.20649 0.60748 0.0
H928 H 0.6145 0.68094 0.40794 0.0
H929 H 0.55281 0.64947 0.47333 0.0
H930 H 0.53423 0.63087 0.41705 0.0
H931 H 0.53348 0.62652 0.34874 0.0
H932 H 0.59552 0.65657 0.28298 0.0
H933 H 0.61603 0.6727 0.33995 0.0
C934 C 0.59718 0.66973 0.40994 0.0
C935 C 0.58491 0.6669 0.44475 0.0
C936 C 0.58651 0.65905 0.37737 0.0
C937 C 0.56262 0.65209 0.44691 0.0
C938 C 0.55188 0.64152 0.41469 0.0
C939 C 0.55157 0.63649 0.34694 0.0
C940 C 0.56283 0.64068 0.3118 0.0
C941 C 0.56332 0.64541 0.37971 0.0
C942 C 0.58648 0.65318 0.30981 0.0
C943 C 0.59816 0.66245 0.34233 0.0
H944 H 0.09612 0.82576 0.04672 0.0
H945 H 0.10607 0.74849 0.08641 0.0
H946 H 0.09141 0.7612 0.14849 0.0
H947 H 0.07415 0.79365 0.19079 0.0
H948 H 0.06266 0.87062 0.151 0.0
H949 H 0.07983 0.85861 0.08977 0.0
C950 C 0.09522 0.8117 0.06896 0.0
C951 C 0.10214 0.78617 0.0617 0.0
C952 C 0.08652 0.81907 0.10462 0.0
C953 C 0.10076 0.76824 0.09098 0.0
C954 C 0.09241 0.77549 0.12658 0.0
C955 C 0.07559 0.80792 0.16889 0.0
C956 C 0.06707 0.83302 0.17554 0.0
C957 C 0.08503 0.80078 0.13361 0.0
C958 C 0.06907 0.85118 0.14671 0.0
C959 C 0.07881 0.84429 0.11163 0.0
H960 H 0.6101 0.81309 0.89033 0.0
H961 H 0.5562 0.85102 0.96307 0.0
H962 H 0.53546 0.87032 0.90911 0.0
H963 H 0.53033 0.87393 0.8412 0.0
H964 H 0.5848 0.8382 0.76756 0.0
H965 H 0.60764 0.82057 0.82183 0.0
C966 C 0.59402 0.82583 0.89437 0.0
C967 C 0.58456 0.83029 0.93077 0.0
C968 C 0.58212 0.83708 0.86305 0.0
C969 C 0.56384 0.84706 0.93548 0.0
C970 C 0.55186 0.85809 0.90459 0.0
C971 C 0.54733 0.86242 0.83711 0.0
C972 C 0.55577 0.85707 0.80062 0.0
C973 C 0.56046 0.85278 0.86827 0.0
C974 C 0.57801 0.84253 0.79552 0.0
C975 C 0.59098 0.8324 0.8265 0.0
H976 H 0.4032 0.37186 0.15161 0.0
H977 H 0.46054 0.31552 0.17887 0.0
H978 H 0.44778 0.28989 0.12543 0.0
H979 H 0.42012 0.28271 0.0715 0.0
H980 H 0.36349 0.339 0.04196 0.0
H981 H 0.37614 0.36523 0.09561 0.0
C982 C 0.41292 0.35402 0.14579 0.0
C983 C 0.43267 0.34565 0.16953 0.0
C984 C 0.40557 0.33922 0.11463 0.0
C985 C 0.44515 0.32248 0.16136 0.0
C986 C 0.43789 0.30771 0.13072 0.0
C987 C 0.41048 0.30069 0.07684 0.0
C988 C 0.39082 0.30881 0.05294 0.0
C989 C 0.41804 0.31577 0.10735 0.0
C990 C 0.37876 0.33233 0.05993 0.0
C991 C 0.38595 0.34732 0.09065 0.0
H992 H 0.88558 0.18721 0.39306 0.0
H993 H 0.94971 0.16751 0.46339 0.0
H994 H 0.97097 0.14747 0.4104 0.0
H995 H 0.97254 0.13733 0.3435 0.0
H996 H 0.90812 0.15522 0.27295 0.0
H997 H 0.8858 0.17399 0.32654 0.0
C998 C 0.9041 0.17834 0.39682 0.0
C999 C 0.91606 0.17906 0.43215 0.0
C1000 C 0.91627 0.16659 0.36615 0.0
C1001 C 0.94001 0.16729 0.43658 0.0
C1002 C 0.95228 0.15587 0.40623 0.0
C1003 C 0.95356 0.14524 0.33988 0.0
C1004 C 0.9421 0.14507 0.30427 0.0
C1005 C 0.94076 0.15572 0.37081 0.0
C1006 C 0.91736 0.15507 0.30012 0.0
C1007 C 0.90462 0.16589 0.33072 0.0
H1008 H 0.09271 0.66879 0.54627 0.0
H1009 H 0.10632 0.74348 0.59363 0.0
H1010 H 0.09269 0.72841 0.65481 0.0
H1011 H 0.07536 0.69488 0.69446 0.0
H1012 H 0.05945 0.62059 0.64771 0.0
H1013 H 0.07586 0.63458 0.58688 0.0
C1014 C 0.09279 0.68172 0.57002 0.0
C1015 C 0.10043 0.70726 0.5652 0.0
C1016 C 0.08459 0.67302 0.60529 0.0
C1017 C 0.10035 0.72378 0.59632 0.0
C1018 C 0.09263 0.71518 0.63144 0.0
C1019 C 0.07571 0.6816 0.67113 0.0
C1020 C 0.06621 0.65673 0.67563 0.0
C1021 C 0.08453 0.68993 0.63617 0.0
C1022 C 0.06666 0.63987 0.64497 0.0
C1023 C 0.07596 0.64788 0.61016 0.0
H1024 H 0.59715 0.20366 0.61095 0.0
H1025 H 0.61774 0.12669 0.57991 0.0
H1026 H 0.60028 0.11086 0.63915 0.0
H1027 H 0.57513 0.11861 0.69691 0.0
H1028 H 0.55138 0.19522 0.72365 0.0
H1029 H 0.57433 0.21162 0.66909 0.0
C1030 C 0.59816 0.18342 0.61719 0.0
C1031 C 0.60858 0.16635 0.59081 0.0
C1032 C 0.5874 0.17443 0.65056 0.0
C1033 C 0.60971 0.14023 0.59959 0.0
C1034 C 0.59968 0.13117 0.63343 0.0
C1035 C 0.57551 0.13891 0.69099 0.0
C1036 C 0.56189 0.15583 0.71408 0.0
C1037 C 0.5879 0.14802 0.65871 0.0
C1038 C 0.56192 0.18202 0.70612 0.0
C1039 C 0.57493 0.19133 0.67495 0.0
H1040 H 0.09221 0.3082 0.80573 0.0
H1041 H 0.04419 0.36408 0.86011 0.0
H1042 H 0.05838 0.34901 0.9213 0.0
H1043 H 0.08276 0.31874 0.95944 0.0
H1044 H 0.12882 0.26116 0.90572 0.0
H1045 H 0.11725 0.27828 0.84406 0.0
C1046 C 0.08506 0.31728 0.83094 0.0
C1047 C 0.06721 0.33729 0.82827 0.0
C1048 C 0.09291 0.30819 0.86612 0.0
C1049 C 0.05807 0.34877 0.86127 0.0
C1050 C 0.06608 0.3401 0.89633 0.0
C1051 C 0.09044 0.31011 0.93419 0.0
C1052 C 0.10665 0.28882 0.93692 0.0
C1053 C 0.08324 0.31965 0.89906 0.0
C1054 C 0.11618 0.2775 0.90414 0.0
C1055 C 0.10962 0.28731 0.86899 0.0
H1056 H 0.92417 0.79967 0.07498 0.0
H1057 H 0.8522 0.83257 0.10849 0.0
H1058 H 0.87209 0.8496 0.16533 0.0
H1059 H 0.90996 0.85469 0.20581 0.0
H1060 H 0.98171 0.82169 0.17122 0.0
H1061 H 0.96172 0.805 0.11463 0.0
C1062 C 0.91277 0.81067 0.09456 0.0
C1063 C 0.88669 0.81484 0.08739 0.0
C1064 C 0.92427 0.82025 0.12716 0.0
C1065 C 0.87229 0.82904 0.11328 0.0
C1066 C 0.88366 0.83875 0.14583 0.0
C1067 C 0.9212 0.84378 0.18596 0.0
C1068 C 0.94732 0.83946 0.19286 0.0
C1069 C 0.90962 0.83435 0.15316 0.0
C1070 C 0.96162 0.82543 0.16663 0.0
C1071 C 0.95021 0.81584 0.13422 0.0
H1072 H 0.41143 0.67549 0.45274 0.0
H1073 H 0.39296 0.74601 0.39626 0.0
H1074 H 0.40691 0.72796 0.33683 0.0
H1075 H 0.42598 0.69319 0.30125 0.0
H1076 H 0.44713 0.62324 0.35704 0.0
H1077 H 0.43027 0.63992 0.41622 0.0
C1078 C 0.41032 0.68681 0.42736 0.0
C1079 C 0.40122 0.71211 0.42904 0.0
C1080 C 0.41884 0.67643 0.39313 0.0
C1081 C 0.40007 0.72659 0.39591 0.0
C1082 C 0.40797 0.71626 0.36183 0.0
C1083 C 0.4267 0.6814 0.3262 0.0
C1084 C 0.43778 0.65696 0.32461 0.0
C1085 C 0.41761 0.69133 0.36017 0.0
C1086 C 0.43867 0.64211 0.35741 0.0
C1087 C 0.4291 0.65168 0.3913 0.0
H1088 H 0.47645 0.13839 0.1571 0.0
H1089 H 0.41353 0.16298 0.22607 0.0
H1090 H 0.39243 0.18136 0.17106 0.0
H1091 H 0.39265 0.19159 0.1035 0.0
H1092 H 0.45525 0.16538 0.03488 0.0
H1093 H 0.47548 0.14628 0.08953 0.0
C1094 C 0.45812 0.14779 0.16011 0.0
C1095 C 0.44668 0.14954 0.19564 0.0
C1096 C 0.44598 0.15795 0.12838 0.0
C1097 C 0.42273 0.16139 0.19899 0.0
C1098 C 0.41068 0.17193 0.16757 0.0
C1099 C 0.41062 0.18155 0.10046 0.0
C1100 C 0.42246 0.18014 0.06509 0.0
C1101 C 0.42221 0.17046 0.13212 0.0
C1102 C 0.4457 0.16689 0.06169 0.0
C1103 C 0.45736 0.15598 0.09299 0.0
H1104 H 0.54274 0.67506 0.82724 0.0
H1105 H 0.59905 0.61511 0.83502 0.0
H1106 H 0.61602 0.6344 0.89242 0.0
H1107 H 0.61507 0.66887 0.94005 0.0
H1108 H 0.55979 0.72947 0.92938 0.0
H1109 H 0.54194 0.70912 0.87365 0.0
C1110 C 0.55877 0.66614 0.84135 0.0
C1111 C 0.56963 0.64365 0.82673 0.0
C1112 C 0.5685 0.67741 0.87397 0.0
C1113 C 0.5903 0.63239 0.84564 0.0
C1114 C 0.60001 0.64342 0.87847 0.0
C1115 C 0.59906 0.67748 0.9255 0.0
C1116 C 0.58873 0.70061 0.93865 0.0
C1117 C 0.58928 0.66597 0.89287 0.0
C1118 C 0.56815 0.71177 0.91952 0.0
C1119 C 0.55793 0.70014 0.88772 0.0
H1120 H 0.08348 0.85556 0.69502 0.0
H1121 H 0.00878 0.87076 0.64904 0.0
H1122 H 0.02308 0.85671 0.58749 0.0
H1123 H 0.05558 0.83758 0.54763 0.0
H1124 H 0.12975 0.81979 0.59323 0.0
H1125 H 0.11697 0.83769 0.65379 0.0
C1126 C 0.07044 0.85605 0.67142 0.0
C1127 C 0.04505 0.8641 0.67675 0.0
C1128 C 0.07865 0.84743 0.63602 0.0
C1129 C 0.02835 0.86445 0.64589 0.0
C1130 C 0.03651 0.85646 0.6106 0.0
C1131 C 0.06913 0.83786 0.57061 0.0
C1132 C 0.09358 0.82728 0.56584 0.0
C1133 C 0.06146 0.84754 0.60549 0.0
C1134 C 0.1108 0.82779 0.59609 0.0
C1135 C 0.10346 0.83794 0.63079 0.0
H1136 H 0.88289 0.27849 0.40042 0.0
H1137 H 0.91006 0.34113 0.46789 0.0
H1138 H 0.92318 0.36401 0.41119 0.0
H1139 H 0.92832 0.36525 0.34237 0.0
H1140 H 0.89899 0.30297 0.2757 0.0
H1141 H 0.88498 0.28115 0.33215 0.0
C1142 C 0.89177 0.29712 0.40272 0.0
C1143 C 0.89587 0.30796 0.43822 0.0
C1144 C 0.89868 0.31032 0.37013 0.0
C1145 C 0.90685 0.33235 0.4408 0.0
C1146 C 0.91432 0.34543 0.40842 0.0
C1147 C 0.91855 0.34708 0.34017 0.0
C1148 C 0.91489 0.33574 0.30477 0.0
C1149 C 0.91044 0.33452 0.3729 0.0
C1150 C 0.9021 0.3122 0.30248 0.0
C1151 C 0.89419 0.29958 0.3348 0.0
H1152 H 0.47321 0.86884 0.33653 0.0
H1153 H 0.41137 0.84074 0.26838 0.0
H1154 H 0.38758 0.82899 0.32488 0.0
H1155 H 0.386 0.82391 0.39356 0.0
H1156 H 0.4476 0.85363 0.46112 0.0
H1157 H 0.46959 0.86798 0.40493 0.0
C1158 C 0.45447 0.86024 0.3341 0.0
C1159 C 0.44418 0.85528 0.29849 0.0
C1160 C 0.44083 0.85392 0.36656 0.0
C1161 C 0.41968 0.84464 0.2956 0.0
C1162 C 0.40612 0.83789 0.32785 0.0
C1163 C 0.40404 0.83387 0.39602 0.0
C1164 C 0.41525 0.83737 0.43153 0.0
C1165 C 0.4167 0.84208 0.36349 0.0
C1166 C 0.43854 0.85054 0.43421 0.0
C1167 C 0.45125 0.85865 0.40204 0.0
H1168 H 0.94379 0.6401 0.13158 0.0
H1169 H 0.92235 0.70254 0.20413 0.0
H1170 H 0.89921 0.72268 0.15289 0.0
H1171 H 0.88718 0.72405 0.08668 0.0
H1172 H 0.90686 0.66127 0.01398 0.0
H1173 H 0.92833 0.63968 0.0661 0.0
C1174 C 0.93391 0.65803 0.13619 0.0
C1175 C 0.93506 0.66991 0.17155 0.0
C1176 C 0.92035 0.66949 0.10658 0.0
C1177 C 0.92188 0.69298 0.17721 0.0
C1178 C 0.90866 0.70459 0.14788 0.0
C1179 C 0.89601 0.70554 0.08232 0.0
C1180 C 0.89566 0.69437 0.04652 0.0
C1181 C 0.90811 0.69323 0.11235 0.0
C1182 C 0.90684 0.67023 0.04135 0.0
C1183 C 0.91924 0.65796 0.07107 0.0
H1184 H 0.13661 0.17962 0.88768 0.0
H1185 H 0.07627 0.18728 0.96859 0.0
H1186 H 0.04432 0.18254 0.91848 0.0
H1187 H 0.03419 0.17022 0.85257 0.0
H1188 H 0.09606 0.16274 0.77325 0.0
H1189 H 0.12661 0.17354 0.82167 0.0
C1190 C 0.11643 0.18092 0.89417 0.0
C1191 C 0.10871 0.18365 0.93158 0.0
C1192 C 0.09843 0.17773 0.86552 0.0
C1193 C 0.08259 0.1854 0.93983 0.0
C1194 C 0.06438 0.18236 0.91123 0.0
C1195 C 0.05431 0.17126 0.8458 0.0
C1196 C 0.06271 0.16502 0.8093 0.0
C1197 C 0.07212 0.17753 0.8741 0.0
C1198 C 0.0889 0.16687 0.80107 0.0
C1199 C 0.10651 0.17315 0.82878 0.0
H1200 H 0.58758 0.32768 0.53984 0.0
H1201 H 0.62455 0.26518 0.59698 0.0
H1202 H 0.61471 0.28438 0.65739 0.0
H1203 H 0.59221 0.31637 0.69413 0.0
H1204 H 0.55252 0.37778 0.63846 0.0
H1205 H 0.5671 0.36187 0.57761 0.0
C1206 C 0.59376 0.31854 0.56556 0.0
C1207 C 0.60657 0.29494 0.56396 0.0
C1208 C 0.58744 0.32941 0.60052 0.0
C1209 C 0.61438 0.2832 0.59748 0.0
C1210 C 0.60881 0.29417 0.63207 0.0
C1211 C 0.58701 0.32655 0.66879 0.0
C1212 C 0.57112 0.34812 0.67095 0.0
C1213 C 0.59481 0.3169 0.63396 0.0
C1214 C 0.5647 0.36108 0.63769 0.0
C1215 C 0.57293 0.35191 0.60282 0.0
H1216 H 0.02477 0.46022 0.18634 0.0
H1217 H 0.9627 0.44989 0.26429 0.0
H1218 H 0.96089 0.4959 0.27495 0.0
H1219 H 0.97837 0.53905 0.2645 0.0
H1220 H 0.0412 0.5491 0.18838 0.0
H1221 H 0.04103 0.50332 0.17399 0.0
C1222 C 0.0108 0.46799 0.20563 0.0
C1223 C 0.99398 0.45152 0.22461 0.0
C1224 C 0.00984 0.49449 0.21163 0.0
C1225 C 0.97587 0.46205 0.24925 0.0
C1226 C 0.97481 0.48839 0.25538 0.0
C1227 C 0.9916 0.53116 0.24419 0.0
C1228 C 0.00949 0.5472 0.22694 0.0
C1229 C 0.99179 0.50478 0.23693 0.0
C1230 C 0.02705 0.53695 0.20143 0.0
C1231 C 0.02707 0.51083 0.19349 0.0
H1232 H 0.78562 0.7271 0.5032 0.0
H1233 H 0.79084 0.80825 0.52175 0.0
H1234 H 0.74493 0.81051 0.53288 0.0
H1235 H 0.70317 0.7899 0.53412 0.0
H1236 H 0.69706 0.70923 0.51125 0.0
H1237 H 0.74338 0.70632 0.50455 0.0
C1238 C 0.77667 0.74514 0.51034 0.0
C1239 C 0.79146 0.76744 0.51205 0.0
C1240 C 0.75011 0.74645 0.51527 0.0
C1241 C 0.77973 0.79084 0.52047 0.0
C1242 C 0.75351 0.79216 0.52665 0.0
C1243 C 0.71194 0.77165 0.52774 0.0
C1244 C 0.69666 0.74984 0.52314 0.0
C1245 C 0.73847 0.77017 0.5235 0.0
C1246 C 0.70836 0.72638 0.51461 0.0
C1247 C 0.73486 0.72466 0.511 0.0
H1248 H 0.52471 0.46166 0.76304 0.0
H1249 H 0.44355 0.45428 0.74613 0.0
H1250 H 0.44005 0.5 0.73462 0.0
H1251 H 0.45988 0.54176 0.72856 0.0
H1252 H 0.54065 0.55043 0.74791 0.0
H1253 H 0.54443 0.50454 0.75998 0.0
C1254 C 0.50633 0.47013 0.75666 0.0
C1255 C 0.48445 0.45468 0.75513 0.0
C1256 C 0.50435 0.4966 0.75086 0.0
C1257 C 0.46065 0.46584 0.74748 0.0
C1258 C 0.45862 0.49195 0.7409 0.0
C1259 C 0.47834 0.53366 0.73547 0.0
C1260 C 0.49999 0.54941 0.73697 0.0
C1261 C 0.48032 0.50747 0.74247 0.0
C1262 C 0.52369 0.53868 0.74659 0.0
C1263 C 0.52588 0.51244 0.75327 0.0
H1264 H 0.78206 0.24327 0.06798 0.0
H1265 H 0.80326 0.25742 0.95316 0.0
H1266 H 0.75823 0.25716 0.93462 0.0
H1267 H 0.71278 0.25273 0.95138 0.0
H1268 H 0.6916 0.24309 0.06712 0.0
H1269 H 0.73669 0.24168 0.0853 0.0
C1270 C 0.77674 0.24628 0.03892 0.0
C1271 C 0.79577 0.25018 0.01185 0.0
C1272 C 0.7509 0.2469 0.02879 0.0
C1273 C 0.7888 0.25445 0.97439 0.0
C1274 C 0.76313 0.25423 0.96382 0.0
C1275 C 0.71819 0.25037 0.98053 0.0
C1276 C 0.69921 0.24786 0.00798 0.0
C1277 C 0.74403 0.25045 0.99079 0.0
C1278 C 0.70611 0.24511 0.04572 0.0
C1279 C 0.73179 0.24425 0.05603 0.0
H1280 H 0.98817 0.46154 0.68772 0.0
H1281 H 0.98713 0.43992 0.80419 0.0
H1282 H 0.98427 0.4849 0.82272 0.0
H1283 H 0.98243 0.53036 0.8055 0.0
H1284 H 0.98858 0.55223 0.68949 0.0
H1285 H 0.98908 0.50717 0.6707 0.0
C1286 C 0.98733 0.46682 0.71711 0.0
C1287 C 0.9877 0.44773 0.74467 0.0
C1288 C 0.98659 0.49265 0.72745 0.0
C1289 C 0.98694 0.4545 0.78267 0.0
C1290 C 0.98523 0.48013 0.79319 0.0
C1291 C 0.98376 0.52514 0.77613 0.0
C1292 C 0.98516 0.54432 0.74877 0.0
C1293 C 0.98505 0.49935 0.76581 0.0
C1294 C 0.9874 0.5376 0.71086 0.0
C1295 C 0.98768 0.51193 0.70019 0.0
H1296 H 0.29086 0.27061 0.47566 0.0
H1297 H 0.29963 0.18933 0.48993 0.0
H1298 H 0.25386 0.18501 0.5011 0.0
H1299 H 0.2115 0.20433 0.50691 0.0
H1300 H 0.20209 0.28526 0.48905 0.0
H1301 H 0.24795 0.2897 0.47859 0.0
C1302 C 0.28272 0.25202 0.48152 0.0
C1303 C 0.29853 0.23036 0.48243 0.0
C1304 C 0.25631 0.24959 0.48686 0.0
C1305 C 0.28777 0.20627 0.48923 0.0
C1306 C 0.26164 0.20379 0.49555 0.0
C1307 C 0.21947 0.22294 0.50062 0.0
C1308 C 0.20345 0.24445 0.49896 0.0
C1309 C 0.24574 0.22531 0.49436 0.0
C1310 C 0.214 0.26838 0.49032 0.0
C1311 C 0.24024 0.27096 0.48458 0.0
H1312 H 0.47516 0.53552 0.23744 0.0
H1313 H 0.55675 0.53959 0.25191 0.0
H1314 H 0.55839 0.49403 0.26558 0.0
H1315 H 0.53687 0.4532 0.27377 0.0
H1316 H 0.45572 0.4476 0.25588 0.0
H1317 H 0.45367 0.49348 0.24259 0.0
C1318 C 0.49321 0.52636 0.24385 0.0
C1319 C 0.51577 0.54085 0.24405 0.0
C1320 C 0.49412 0.49991 0.2507 0.0
C1321 C 0.53914 0.52879 0.25166 0.0
C1322 C 0.54011 0.50276 0.25943 0.0
C1323 C 0.51871 0.462 0.2669 0.0
C1324 C 0.49645 0.44711 0.26612 0.0
C1325 C 0.51775 0.48816 0.259 0.0
C1326 C 0.47314 0.45868 0.25656 0.0
C1327 C 0.47195 0.48492 0.2492 0.0
H1328 H 0.21186 0.72163 0.96538 0.0
H1329 H 0.2065 0.80271 0.98514 0.0
H1330 H 0.25228 0.80458 0.99767 0.0
H1331 H 0.29344 0.78296 0.00505 0.0
H1332 H 0.29924 0.70211 0.98308 0.0
H1333 H 0.2537 0.70047 0.96877 0.0
C1334 C 0.22073 0.73968 0.9725 0.0
C1335 C 0.2058 0.76194 0.97476 0.0
C1336 C 0.24712 0.74069 0.97904 0.0
C1337 C 0.2176 0.7853 0.98331 0.0
C1338 C 0.24375 0.78639 0.99049 0.0
C1339 C 0.2848 0.76498 0.99695 0.0
C1340 C 0.29972 0.74265 0.99549 0.0
C1341 C 0.25865 0.76417 0.98869 0.0
C1342 C 0.28824 0.71959 0.98444 0.0
C1343 C 0.26216 0.7186 0.97644 0.0
H1344 H 0.50998 0.97277 0.6939 0.0
H1345 H 0.48567 0.95041 0.80455 0.0
H1346 H 0.48316 0.99528 0.82339 0.0
H1347 H 0.48992 0.04075 0.80905 0.0
H1348 H 0.51121 0.06332 0.69735 0.0
H1349 H 0.51279 0.01839 0.67788 0.0
C1350 C 0.50411 0.97778 0.72211 0.0
C1351 C 0.49833 0.95844 0.74802 0.0
C1352 C 0.50212 0.00355 0.73238 0.0
C1353 C 0.49027 0.96506 0.78424 0.0
C1354 C 0.48887 0.99065 0.795 0.0
C1355 C 0.49452 0.0357 0.78034 0.0
C1356 C 0.50042 0.05497 0.75451 0.0
C1357 C 0.49498 0.01001 0.7694 0.0
C1358 C 0.50637 0.04857 0.7174 0.0
C1359 C 0.50744 0.02298 0.70644 0.0
H1360 H 0.28966 0.28482 0.01402 0.0
H1361 H 0.29533 0.20358 0.99718 0.0
H1362 H 0.24989 0.19879 0.01226 0.0
H1363 H 0.20801 0.21847 0.02617 0.0
H1364 H 0.20374 0.29986 0.04497 0.0
H1365 H 0.24925 0.30375 0.03356 0.0
C1366 C 0.28095 0.26604 0.014 0.0
C1367 C 0.29557 0.24461 0.0042 0.0
C1368 C 0.25509 0.26349 0.02291 0.0
C1369 C 0.28433 0.22032 0.00476 0.0
C1370 C 0.25838 0.21762 0.01315 0.0
C1371 C 0.21707 0.23702 0.02797 0.0
C1372 C 0.20232 0.25887 0.03596 0.0
C1373 C 0.24345 0.23918 0.02161 0.0
C1374 C 0.21449 0.28272 0.03871 0.0
C1375 C 0.24056 0.28502 0.03211 0.0
H1376 H 0.95874 0.03381 0.22952 0.0
H1377 H 0.03868 0.04463 0.25351 0.0
H1378 H 0.04393 0.99854 0.26214 0.0
H1379 H 0.02547 0.95499 0.26318 0.0
H1380 H 0.94501 0.94542 0.24237 0.0
H1381 H 0.94038 0.99116 0.23147 0.0
C1382 C 0.97736 0.02615 0.23665 0.0
C1383 C 0.99829 0.04266 0.24077 0.0
C1384 C 0.98018 -0.00021 0.24172 0.0
C1385 C 0.0222 0.03237 0.2504 0.0
C1386 C 0.02525 0.006 0.25508 0.0
C1387 C 0.00706 0.96298 0.25571 0.0
C1388 C 0.98565 0.94694 0.25316 0.0
C1389 C 0.00437 0.98949 0.25066 0.0
C1390 C 0.96175 0.95746 0.24431 0.0
C1391 C 0.95908 0.98359 0.23823 0.0
H1392 H 0.29187 0.71682 0.51369 0.0
H1393 H 0.29901 0.79749 0.49161 0.0
H1394 H 0.25285 0.80085 0.48354 0.0
H1395 H 0.21034 0.78073 0.48241 0.0
H1396 H 0.20393 0.69968 0.50134 0.0
H1397 H 0.24987 0.69669 0.5115 0.0
C1398 C 0.28337 0.73516 0.5071 0.0
C1399 C 0.2989 0.75686 0.50332 0.0
C1400 C 0.25689 0.73692 0.50222 0.0
C1401 C 0.28753 0.78043 0.49446 0.0
C1402 C 0.26111 0.78241 0.49004 0.0
C1403 C 0.21903 0.76251 0.48915 0.0
C1404 C 0.20382 0.7405 0.49137 0.0
C1405 C 0.24559 0.76079 0.49395 0.0
C1406 C 0.2153 0.71689 0.49948 0.0
C1407 C 0.24155 0.71515 0.50522 0.0
H1408 H 0.5305 0.03539 0.26063 0.0
H1409 H 0.4508 0.04423 0.23355 0.0
H1410 H 0.44748 0.99871 0.21999 0.0
H1411 H 0.4665 0.95652 0.21831 0.0
H1412 H 0.54552 0.94601 0.24866 0.0
H1413 H 0.54981 0.9921 0.25909 0.0
C1414 C 0.51259 0.02729 0.25116 0.0
C1415 C 0.49097 0.04302 0.24765 0.0
C1416 C 0.51061 0.00088 0.24463 0.0
C1417 C 0.46767 0.0324 0.23623 0.0
C1418 C 0.46574 0.00641 0.22864 0.0
C1419 C 0.48476 0.96422 0.22706 0.0
C1420 C 0.5057 0.94784 0.23254 0.0
C1421 C 0.48698 0.99047 0.23322 0.0
C1422 C 0.52907 0.9582 0.24438 0.0
C1423 C 0.53156 0.98454 0.25015 0.0
H1424 H 0.7827 0.71319 0.97651 0.0
H1425 H 0.79465 0.79224 0.00558 0.0
H1426 H 0.7486 0.79792 0.01408 0.0
H1427 H 0.70467 0.78017 0.01271 0.0
H1428 H 0.69412 0.70055 0.98626 0.0
H1429 H 0.73988 0.69548 0.97641 0.0
C1430 C 0.77532 0.73171 0.98477 0.0
C1431 C 0.79212 0.75228 0.99022 0.0
C1432 C 0.749 0.7348 0.98953 0.0
C1433 C 0.78216 0.77604 0.00136 0.0
C1434 C 0.75582 0.77934 0.00594 0.0
C1435 C 0.71248 0.76187 0.00425 0.0
C1436 C 0.69615 0.74081 0.99971 0.0
C1437 C 0.73901 0.75889 0.99979 0.0
C1438 C 0.70639 0.71702 0.98965 0.0
C1439 C 0.73253 0.71408 0.98421 0.0
H1440 H 0.97387 0.0509 0.75159 0.0
H1441 H 0.05516 0.05846 0.76597 0.0
H1442 H 0.05927 0.01234 0.77385 0.0
H1443 H 0.04026 0.96998 0.77366 0.0
H1444 H 0.95932 0.96127 0.75558 0.0
H1445 H 0.95458 0.00769 0.75151 0.0
C1446 C 0.99235 0.04238 0.75711 0.0
C1447 C 0.01417 0.05793 0.75866 0.0
C1448 C 0.99469 0.01569 0.76024 0.0
C1449 C 0.03813 0.04677 0.76491 0.0
C1450 C 0.0405 0.02044 0.76922 0.0
C1451 C 0.02151 0.97815 0.76888 0.0
C1452 C 0.00018 0.9621 0.76493 0.0
C1453 C 0.01898 0.00471 0.76634 0.0
C1454 C 0.97611 0.97313 0.75849 0.0
C1455 C 0.97336 -0.00031 0.75638 0.0
H1456 H 0.70655 0.28089 0.46495 0.0
H1457 H 0.69951 0.2023 0.49968 0.0
H1458 H 0.74579 0.1992 0.50636 0.0
H1459 H 0.78825 0.21956 0.50538 0.0
H1460 H 0.79443 0.29896 0.47525 0.0
H1461 H 0.74861 0.3009 0.463 0.0
C1462 C 0.71511 0.26302 0.47379 0.0
C1463 C 0.69955 0.2419 0.48189 0.0
C1464 C 0.74165 0.26148 0.47816 0.0
C1465 C 0.71101 0.21894 0.49354 0.0
C1466 C 0.7375 0.2171 0.49722 0.0
C1467 C 0.77953 0.23709 0.49545 0.0
C1468 C 0.79454 0.25903 0.49087 0.0
C1469 C 0.753 0.23832 0.48991 0.0
C1470 C 0.78312 0.28184 0.4788 0.0
C1471 C 0.75696 0.28298 0.47197 0.0
loop_
_geom_bond_atom_site_label_1
_geom_bond_atom_site_label_2
_geom_bond_distance
_geom_bond_site_symmetry_2
_ccdc_geom_bond_type
Mg0 O1 2.028 . S
Mg0 O7 1.986 . S
Mg0 O9 2.114 . S
Mg0 O10 2.251 . S
Mg0 O13 2.010 1_455 S
O1 Mg0 2.028 . S
O1 C4 1.250 . S
O2 Mg3 2.028 . S
O2 C4 1.248 . S
Mg3 O2 2.028 . S
Mg3 O8 2.032 . S
Mg3 O10 2.079 . S
C4 O1 1.250 . S
C4 O2 1.248 . S
C5 O6 1.264 . S
C5 O13 1.249 . S
O6 C5 1.264 . S
O7 Mg0 1.986 . S
O7 C11 1.246 . S
O8 Mg3 2.032 . S
O8 C11 1.259 . S
O9 Mg0 2.114 . S
O9 C12 1.252 . S
O10 Mg0 2.251 . S
O10 Mg3 2.079 . S
O10 C12 1.273 . S
C11 O7 1.246 . S
C11 O8 1.259 . S
C12 O9 1.252 . S
C12 O10 1.273 . S
O13 Mg0 2.010 1_655 S
O13 C5 1.249 . S
Mg14 O15 2.028 . S
Mg14 O21 1.986 . S
Mg14 O23 2.114 . S
Mg14 O24 2.251 . S
Mg14 O27 2.010 . S
O15 Mg14 2.028 . S
O15 C18 1.250 . S
O16 Mg17 2.028 . S
O16 C18 1.248 . S
Mg17 O16 2.028 . S
Mg17 O22 2.032 . S
Mg17 O24 2.079 . S
C18 O15 1.250 . S
C18 O16 1.248 . S
C19 O20 1.264 . S
C19 O27 1.249 . S
O20 C19 1.264 . S
O21 Mg14 1.986 . S
O21 C25 1.246 . S
O22 Mg17 2.032 . S
O22 C25 1.259 . S
O23 Mg14 2.114 . S
O23 C26 1.252 . S
O24 Mg14 2.251 . S
O24 Mg17 2.079 . S
O24 C26 1.273 . S
C25 O21 1.246 . S
C25 O22 1.259 . S
C26 O23 1.252 . S
C26 O24 1.273 . S
O27 Mg14 2.010 . S
O27 C19 1.249 . S
Mg28 O29 2.028 . S
Mg28 O35 1.986 . S
Mg28 O37 2.114 . S
Mg28 O38 2.251 . S
Mg28 O41 2.010 . S
O29 Mg28 2.028 . S
O29 C32 1.250 . S
O30 Mg31 2.028 . S
O30 C32 1.248 . S
Mg31 O30 2.028 . S
Mg31 O36 2.032 . S
Mg31 O38 2.079 . S
C32 O29 1.250 . S
C32 O30 1.248 . S
C33 O34 1.264 . S
C33 O41 1.249 . S
O34 C33 1.264 . S
O35 Mg28 1.986 . S
O35 C39 1.246 . S
O36 Mg31 2.032 . S
O36 C39 1.259 . S
O37 Mg28 2.114 . S
O37 C40 1.252 . S
O38 Mg28 2.251 . S
O38 Mg31 2.079 . S
O38 C40 1.273 . S
C39 O35 1.246 . S
C39 O36 1.259 . S
C40 O37 1.252 . S
C40 O38 1.273 . S
O41 Mg28 2.010 . S
O41 C33 1.249 . S
Mg42 O43 2.028 . S
Mg42 O49 1.986 . S
Mg42 O51 2.114 1_554 S
Mg42 O52 2.251 1_554 S
Mg42 O55 2.010 . S
O43 Mg42 2.028 . S
O43 C46 1.250 . S
O44 Mg45 2.028 1_554 S
O44 C46 1.248 . S
Mg45 O44 2.028 1_556 S
Mg45 O50 2.032 1_556 S
Mg45 O52 2.079 . S
C46 O43 1.250 . S
C46 O44 1.248 . S
C47 O48 1.264 . S
C47 O55 1.249 . S
O48 C47 1.264 . S
O49 Mg42 1.986 . S
O49 C53 1.246 . S
O50 Mg45 2.032 1_554 S
O50 C53 1.259 . S
O51 Mg42 2.114 1_556 S
O51 C54 1.252 . S
O52 Mg42 2.251 1_556 S
O52 Mg45 2.079 . S
O52 C54 1.273 . S
C53 O49 1.246 . S
C53 O50 1.259 . S
C54 O51 1.252 . S
C54 O52 1.273 . S
O55 Mg42 2.010 . S
O55 C47 1.249 . S
Mg56 O57 2.028 . S
Mg56 O63 1.986 . S
Mg56 O65 2.114 . S
Mg56 O66 2.251 . S
Mg56 O69 2.010 1_455 S
O57 Mg56 2.028 . S
O57 C60 1.250 . S
O58 Mg59 2.028 . S
O58 C60 1.248 . S
Mg59 O58 2.028 . S
Mg59 O64 2.032 . S
Mg59 O66 2.079 . S
C60 O57 1.250 . S
C60 O58 1.248 . S
C61 O62 1.264 . S
C61 O69 1.249 . S
O62 C61 1.264 . S
O63 Mg56 1.986 . S
O63 C67 1.246 . S
O64 Mg59 2.032 . S
O64 C67 1.259 . S
O65 Mg56 2.114 . S
O65 C68 1.252 . S
O66 Mg56 2.251 . S
O66 Mg59 2.079 . S
O66 C68 1.273 . S
C67 O63 1.246 . S
C67 O64 1.259 . S
C68 O65 1.252 . S
C68 O66 1.273 . S
O69 Mg56 2.010 1_655 S
O69 C61 1.249 . S
Mg70 O71 2.028 . S
Mg70 O77 1.986 . S
Mg70 O79 2.114 . S
Mg70 O80 2.251 . S
Mg70 O83 2.010 . S
O71 Mg70 2.028 . S
O71 C74 1.250 . S
O72 Mg73 2.028 . S
O72 C74 1.248 . S
Mg73 O72 2.028 . S
Mg73 O78 2.032 . S
Mg73 O80 2.079 . S
C74 O71 1.250 . S
C74 O72 1.248 . S
C75 O76 1.264 . S
C75 O83 1.249 . S
O76 C75 1.264 . S
O77 Mg70 1.986 . S
O77 C81 1.246 . S
O78 Mg73 2.032 . S
O78 C81 1.259 . S
O79 Mg70 2.114 . S
O79 C82 1.252 . S
O80 Mg70 2.251 . S
O80 Mg73 2.079 . S
O80 C82 1.273 . S
C81 O77 1.246 . S
C81 O78 1.259 . S
C82 O79 1.252 . S
C82 O80 1.273 . S
O83 Mg70 2.010 . S
O83 C75 1.249 . S
Mg84 O85 2.028 . S
Mg84 O91 1.986 . S
Mg84 O93 2.114 . S
Mg84 O94 2.251 . S
Mg84 O97 2.010 . S
O85 Mg84 2.028 . S
O85 C88 1.250 . S
O86 Mg87 2.028 . S
O86 C88 1.248 . S
Mg87 O86 2.028 . S
Mg87 O92 2.032 . S
Mg87 O94 2.079 . S
C88 O85 1.250 . S
C88 O86 1.248 . S
C89 O90 1.264 . S
C89 O97 1.249 . S
O90 C89 1.264 . S
O91 Mg84 1.986 . S
O91 C95 1.246 . S
O92 Mg87 2.032 . S
O92 C95 1.259 . S
O93 Mg84 2.114 . S
O93 C96 1.252 . S
O94 Mg84 2.251 . S
O94 Mg87 2.079 . S
O94 C96 1.273 . S
C95 O91 1.246 . S
C95 O92 1.259 . S
C96 O93 1.252 . S
C96 O94 1.273 . S
O97 Mg84 2.010 . S
O97 C89 1.249 . S
Mg98 O99 2.028 . S
Mg98 O105 1.986 . S
Mg98 O107 2.114 1_556 S
Mg98 O108 2.251 1_556 S
Mg98 O111 2.010 . S
O99 Mg98 2.028 . S
O99 C102 1.250 . S
O100 Mg101 2.028 1_556 S
O100 C102 1.248 . S
Mg101 O100 2.028 1_554 S
Mg101 O106 2.032 1_554 S
Mg101 O108 2.079 . S
C102 O99 1.250 . S
C102 O100 1.248 . S
C103 O104 1.264 . S
C103 O111 1.249 . S
O104 C103 1.264 . S
O105 Mg98 1.986 . S
O105 C109 1.246 . S
O106 Mg101 2.032 1_556 S
O106 C109 1.259 . S
O107 Mg98 2.114 1_554 S
O107 C110 1.252 . S
O108 Mg98 2.251 1_554 S
O108 Mg101 2.079 . S
O108 C110 1.273 . S
C109 O105 1.246 . S
C109 O106 1.259 . S
C110 O107 1.252 . S
C110 O108 1.273 . S
O111 Mg98 2.010 . S
O111 C103 1.249 . S
Mg112 O113 2.028 . S
Mg112 O119 1.986 . S
Mg112 O121 2.114 . S
Mg112 O122 2.251 . S
Mg112 O125 2.010 1_655 S
O113 Mg112 2.028 . S
O113 C116 1.250 . S
O114 Mg115 2.028 . S
O114 C116 1.248 . S
Mg115 O114 2.028 . S
Mg115 O120 2.032 . S
Mg115 O122 2.079 . S
C116 O113 1.250 . S
C116 O114 1.248 . S
C117 O118 1.264 . S
C117 O125 1.249 . S
O118 C117 1.264 . S
O119 Mg112 1.986 . S
O119 C123 1.246 . S
O120 Mg115 2.032 . S
O120 C123 1.259 . S
O121 Mg112 2.114 . S
O121 C124 1.252 . S
O122 Mg112 2.251 . S
O122 Mg115 2.079 . S
O122 C124 1.273 . S
C123 O119 1.246 . S
C123 O120 1.259 . S
C124 O121 1.252 . S
C124 O122 1.273 . S
O125 Mg112 2.010 1_455 S
O125 C117 1.249 . S
Mg126 O127 2.028 . S
Mg126 O133 1.986 . S
Mg126 O135 2.114 . S
Mg126 O136 2.251 . S
Mg126 O139 2.010 . S
O127 Mg126 2.028 . S
O127 C130 1.250 . S
O128 Mg129 2.028 . S
O128 C130 1.248 . S
Mg129 O128 2.028 . S
Mg129 O134 2.032 . S
Mg129 O136 2.079 . S
C130 O127 1.250 . S
C130 O128 1.248 . S
C131 O132 1.264 . S
C131 O139 1.249 . S
O132 C131 1.264 . S
O133 Mg126 1.986 . S
O133 C137 1.246 . S
O134 Mg129 2.032 . S
O134 C137 1.259 . S
O135 Mg126 2.114 . S
O135 C138 1.252 . S
O136 Mg126 2.251 . S
O136 Mg129 2.079 . S
O136 C138 1.273 . S
C137 O133 1.246 . S
C137 O134 1.259 . S
C138 O135 1.252 . S
C138 O136 1.273 . S
O139 Mg126 2.010 . S
O139 C131 1.249 . S
Mg140 O141 2.028 . S
Mg140 O147 1.986 . S
Mg140 O149 2.114 . S
Mg140 O150 2.251 . S
Mg140 O153 2.010 . S
O141 Mg140 2.028 . S
O141 C144 1.250 . S
O142 Mg143 2.028 . S
O142 C144 1.248 . S
Mg143 O142 2.028 . S
Mg143 O148 2.032 . S
Mg143 O150 2.079 . S
C144 O141 1.250 . S
C144 O142 1.248 . S
C145 O146 1.264 . S
C145 O153 1.249 . S
O146 C145 1.264 . S
O147 Mg140 1.986 . S
O147 C151 1.246 . S
O148 Mg143 2.032 . S
O148 C151 1.259 . S
O149 Mg140 2.114 . S
O149 C152 1.252 . S
O150 Mg140 2.251 . S
O150 Mg143 2.079 . S
O150 C152 1.273 . S
C151 O147 1.246 . S
C151 O148 1.259 . S
C152 O149 1.252 . S
C152 O150 1.273 . S
O153 Mg140 2.010 . S
O153 C145 1.249 . S
Mg154 O155 2.028 . S
Mg154 O161 1.986 . S
Mg154 O163 2.114 1_556 S
Mg154 O164 2.251 1_556 S
Mg154 O167 2.010 . S
O155 Mg154 2.028 . S
O155 C158 1.250 . S
O156 Mg157 2.028 1_556 S
O156 C158 1.248 . S
Mg157 O156 2.028 1_554 S
Mg157 O162 2.032 1_554 S
Mg157 O164 2.079 . S
C158 O155 1.250 . S
C158 O156 1.248 . S
C159 O160 1.264 . S
C159 O167 1.249 . S
O160 C159 1.264 . S
O161 Mg154 1.986 . S
O161 C165 1.246 . S
O162 Mg157 2.032 1_556 S
O162 C165 1.259 . S
O163 Mg154 2.114 1_554 S
O163 C166 1.252 . S
O164 Mg154 2.251 1_554 S
O164 Mg157 2.079 . S
O164 C166 1.273 . S
C165 O161 1.246 . S
C165 O162 1.259 . S
C166 O163 1.252 . S
C166 O164 1.273 . S
O167 Mg154 2.010 . S
O167 C159 1.249 . S
Mg168 O169 2.028 . S
Mg168 O175 1.986 . S
Mg168 O177 2.114 . S
Mg168 O178 2.251 . S
Mg168 O181 2.010 1_655 S
O169 Mg168 2.028 . S
O169 C172 1.250 . S
O170 Mg171 2.028 . S
O170 C172 1.248 . S
Mg171 O170 2.028 . S
Mg171 O176 2.032 . S
Mg171 O178 2.079 . S
C172 O169 1.250 . S
C172 O170 1.248 . S
C173 O174 1.264 . S
C173 O181 1.249 . S
O174 C173 1.264 . S
O175 Mg168 1.986 . S
O175 C179 1.246 . S
O176 Mg171 2.032 . S
O176 C179 1.259 . S
O177 Mg168 2.114 . S
O177 C180 1.252 . S
O178 Mg168 2.251 . S
O178 Mg171 2.079 . S
O178 C180 1.273 . S
C179 O175 1.246 . S
C179 O176 1.259 . S
C180 O177 1.252 . S
C180 O178 1.273 . S
O181 Mg168 2.010 1_455 S
O181 C173 1.249 . S
Mg182 O183 2.028 . S
Mg182 O189 1.986 . S
Mg182 O191 2.114 . S
Mg182 O192 2.251 . S
Mg182 O195 2.010 . S
O183 Mg182 2.028 . S
O183 C186 1.250 . S
O184 Mg185 2.028 . S
O184 C186 1.248 . S
Mg185 O184 2.028 . S
Mg185 O190 2.032 . S
Mg185 O192 2.079 . S
C186 O183 1.250 . S
C186 O184 1.248 . S
C187 O188 1.264 . S
C187 O195 1.249 . S
O188 C187 1.264 . S
O189 Mg182 1.986 . S
O189 C193 1.246 . S
O190 Mg185 2.032 . S
O190 C193 1.259 . S
O191 Mg182 2.114 . S
O191 C194 1.252 . S
O192 Mg182 2.251 . S
O192 Mg185 2.079 . S
O192 C194 1.273 . S
C193 O189 1.246 . S
C193 O190 1.259 . S
C194 O191 1.252 . S
C194 O192 1.273 . S
O195 Mg182 2.010 . S
O195 C187 1.249 . S
Mg196 O197 2.028 . S
Mg196 O203 1.986 . S
Mg196 O205 2.114 . S
Mg196 O206 2.251 . S
Mg196 O209 2.010 . S
O197 Mg196 2.028 . S
O197 C200 1.250 . S
O198 Mg199 2.028 . S
O198 C200 1.248 . S
Mg199 O198 2.028 . S
Mg199 O204 2.032 . S
Mg199 O206 2.079 . S
C200 O197 1.250 . S
C200 O198 1.248 . S
C201 O202 1.264 . S
C201 O209 1.249 . S
O202 C201 1.264 . S
O203 Mg196 1.986 . S
O203 C207 1.246 . S
O204 Mg199 2.032 . S
O204 C207 1.259 . S
O205 Mg196 2.114 . S
O205 C208 1.252 . S
O206 Mg196 2.251 . S
O206 Mg199 2.079 . S
O206 C208 1.273 . S
C207 O203 1.246 . S
C207 O204 1.259 . S
C208 O205 1.252 . S
C208 O206 1.273 . S
O209 Mg196 2.010 . S
O209 C201 1.249 . S
Mg210 O211 2.028 . S
Mg210 O217 1.986 . S
Mg210 O219 2.114 1_554 S
Mg210 O220 2.251 1_554 S
Mg210 O223 2.010 . S
O211 Mg210 2.028 . S
O211 C214 1.250 . S
O212 Mg213 2.028 1_554 S
O212 C214 1.248 . S
Mg213 O212 2.028 1_556 S
Mg213 O218 2.032 1_556 S
Mg213 O220 2.079 . S
C214 O211 1.250 . S
C214 O212 1.248 . S
C215 O216 1.264 . S
C215 O223 1.249 . S
O216 C215 1.264 . S
O217 Mg210 1.986 . S
O217 C221 1.246 . S
O218 Mg213 2.032 1_554 S
O218 C221 1.259 . S
O219 Mg210 2.114 1_556 S
O219 C222 1.252 . S
O220 Mg210 2.251 1_556 S
O220 Mg213 2.079 . S
O220 C222 1.273 . S
C221 O217 1.246 . S
C221 O218 1.259 . S
C222 O219 1.252 . S
C222 O220 1.273 . S
O223 Mg210 2.010 . S
O223 C215 1.249 . S
Mg224 O225 2.028 . S
Mg224 O231 1.986 . S
Mg224 O233 2.114 . S
Mg224 O234 2.251 . S
Mg224 O237 2.010 . S
O225 Mg224 2.028 . S
O225 C228 1.250 . S
O226 Mg227 2.028 . S
O226 C228 1.248 . S
Mg227 O226 2.028 . S
Mg227 O232 2.032 . S
Mg227 O234 2.079 . S
C228 O225 1.250 . S
C228 O226 1.248 . S
C229 O230 1.264 . S
C229 O237 1.249 . S
O230 C229 1.264 . S
O231 Mg224 1.986 . S
O231 C235 1.246 . S
O232 Mg227 2.032 . S
O232 C235 1.259 . S
O233 Mg224 2.114 . S
O233 C236 1.252 . S
O234 Mg224 2.251 . S
O234 Mg227 2.079 . S
O234 C236 1.273 . S
C235 O231 1.246 . S
C235 O232 1.259 . S
C236 O233 1.252 . S
C236 O234 1.273 . S
O237 Mg224 2.010 . S
O237 C229 1.249 . S
Mg238 O239 2.028 . S
Mg238 O245 1.986 . S
Mg238 O247 2.114 1_554 S
Mg238 O248 2.251 1_554 S
Mg238 O251 2.010 . S
O239 Mg238 2.028 . S
O239 C242 1.250 . S
O240 Mg241 2.028 1_554 S
O240 C242 1.248 . S
Mg241 O240 2.028 1_556 S
Mg241 O246 2.032 1_556 S
Mg241 O248 2.079 . S
C242 O239 1.250 . S
C242 O240 1.248 . S
C243 O244 1.264 . S
C243 O251 1.249 . S
O244 C243 1.264 . S
O245 Mg238 1.986 . S
O245 C249 1.246 . S
O246 Mg241 2.032 1_554 S
O246 C249 1.259 . S
O247 Mg238 2.114 1_556 S
O247 C250 1.252 . S
O248 Mg238 2.251 1_556 S
O248 Mg241 2.079 . S
O248 C250 1.273 . S
C249 O245 1.246 . S
C249 O246 1.259 . S
C250 O247 1.252 . S
C250 O248 1.273 . S
O251 Mg238 2.010 . S
O251 C243 1.249 . S
Mg252 O253 2.028 . S
Mg252 O259 1.986 . S
Mg252 O261 2.114 . S
Mg252 O262 2.251 . S
Mg252 O265 2.010 1_655 S
O253 Mg252 2.028 . S
O253 C256 1.250 . S
O254 Mg255 2.028 . S
O254 C256 1.248 . S
Mg255 O254 2.028 . S
Mg255 O260 2.032 . S
Mg255 O262 2.079 . S
C256 O253 1.250 . S
C256 O254 1.248 . S
C257 O258 1.264 . S
C257 O265 1.249 . S
O258 C257 1.264 . S
O259 Mg252 1.986 . S
O259 C263 1.246 . S
O260 Mg255 2.032 . S
O260 C263 1.259 . S
O261 Mg252 2.114 . S
O261 C264 1.252 . S
O262 Mg252 2.251 . S
O262 Mg255 2.079 . S
O262 C264 1.273 . S
C263 O259 1.246 . S
C263 O260 1.259 . S
C264 O261 1.252 . S
C264 O262 1.273 . S
O265 Mg252 2.010 1_455 S
O265 C257 1.249 . S
Mg266 O267 2.028 . S
Mg266 O273 1.986 . S
Mg266 O275 2.114 . S
Mg266 O276 2.251 . S
Mg266 O279 2.010 . S
O267 Mg266 2.028 . S
O267 C270 1.250 . S
O268 Mg269 2.028 . S
O268 C270 1.248 . S
Mg269 O268 2.028 . S
Mg269 O274 2.032 . S
Mg269 O276 2.079 . S
C270 O267 1.250 . S
C270 O268 1.248 . S
C271 O272 1.264 . S
C271 O279 1.249 . S
O272 C271 1.264 . S
O273 Mg266 1.986 . S
O273 C277 1.246 . S
O274 Mg269 2.032 . S
O274 C277 1.259 . S
O275 Mg266 2.114 . S
O275 C278 1.252 . S
O276 Mg266 2.251 . S
O276 Mg269 2.079 . S
O276 C278 1.273 . S
C277 O273 1.246 . S
C277 O274 1.259 . S
C278 O275 1.252 . S
C278 O276 1.273 . S
O279 Mg266 2.010 . S
O279 C271 1.249 . S
Mg280 O281 2.028 . S
Mg280 O287 1.986 . S
Mg280 O289 2.114 . S
Mg280 O290 2.251 . S
Mg280 O293 2.010 . S
O281 Mg280 2.028 . S
O281 C284 1.250 . S
O282 Mg283 2.028 . S
O282 C284 1.248 . S
Mg283 O282 2.028 . S
Mg283 O288 2.032 . S
Mg283 O290 2.079 . S
C284 O281 1.250 . S
C284 O282 1.248 . S
C285 O286 1.264 . S
C285 O293 1.249 . S
O286 C285 1.264 . S
O287 Mg280 1.986 . S
O287 C291 1.246 . S
O288 Mg283 2.032 . S
O288 C291 1.259 . S
O289 Mg280 2.114 . S
O289 C292 1.252 . S
O290 Mg280 2.251 . S
O290 Mg283 2.079 . S
O290 C292 1.273 . S
C291 O287 1.246 . S
C291 O288 1.259 . S
C292 O289 1.252 . S
C292 O290 1.273 . S
O293 Mg280 2.010 . S
O293 C285 1.249 . S
Mg294 O295 2.028 . S
Mg294 O301 1.986 . S
Mg294 O303 2.114 1_556 S
Mg294 O304 2.251 1_556 S
Mg294 O307 2.010 . S
O295 Mg294 2.028 . S
O295 C298 1.250 . S
O296 Mg297 2.028 1_556 S
O296 C298 1.248 . S
Mg297 O296 2.028 1_554 S
Mg297 O302 2.032 1_554 S
Mg297 O304 2.079 . S
C298 O295 1.250 . S
C298 O296 1.248 . S
C299 O300 1.264 . S
C299 O307 1.249 . S
O300 C299 1.264 . S
O301 Mg294 1.986 . S
O301 C305 1.246 . S
O302 Mg297 2.032 1_556 S
O302 C305 1.259 . S
O303 Mg294 2.114 1_554 S
O303 C306 1.252 . S
O304 Mg294 2.251 1_554 S
O304 Mg297 2.079 . S
O304 C306 1.273 . S
C305 O301 1.246 . S
C305 O302 1.259 . S
C306 O303 1.252 . S
C306 O304 1.273 . S
O307 Mg294 2.010 . S
O307 C299 1.249 . S
Mg308 O309 2.028 . S
Mg308 O315 1.986 . S
Mg308 O317 2.114 . S
Mg308 O318 2.251 . S
Mg308 O321 2.010 1_655 S
O309 Mg308 2.028 . S
O309 C312 1.250 . S
O310 Mg311 2.028 . S
O310 C312 1.248 . S
Mg311 O310 2.028 . S
Mg311 O316 2.032 . S
Mg311 O318 2.079 . S
C312 O309 1.250 . S
C312 O310 1.248 . S
C313 O314 1.264 . S
C313 O321 1.249 . S
O314 C313 1.264 . S
O315 Mg308 1.986 . S
O315 C319 1.246 . S
O316 Mg311 2.032 . S
O316 C319 1.259 . S
O317 Mg308 2.114 . S
O317 C320 1.252 . S
O318 Mg308 2.251 . S
O318 Mg311 2.079 . S
O318 C320 1.273 . S
C319 O315 1.246 . S
C319 O316 1.259 . S
C320 O317 1.252 . S
C320 O318 1.273 . S
O321 Mg308 2.010 1_455 S
O321 C313 1.249 . S
Mg322 O323 2.028 . S
Mg322 O329 1.986 . S
Mg322 O331 2.114 . S
Mg322 O332 2.251 . S
Mg322 O335 2.010 . S
O323 Mg322 2.028 . S
O323 C326 1.250 . S
O324 Mg325 2.028 . S
O324 C326 1.248 . S
Mg325 O324 2.028 . S
Mg325 O330 2.032 . S
Mg325 O332 2.079 . S
C326 O323 1.250 . S
C326 O324 1.248 . S
C327 O328 1.264 . S
C327 O335 1.249 . S
O328 C327 1.264 . S
O329 Mg322 1.986 . S
O329 C333 1.246 . S
O330 Mg325 2.032 . S
O330 C333 1.259 . S
O331 Mg322 2.114 . S
O331 C334 1.252 . S
O332 Mg322 2.251 . S
O332 Mg325 2.079 . S
O332 C334 1.273 . S
C333 O329 1.246 . S
C333 O330 1.259 . S
C334 O331 1.252 . S
C334 O332 1.273 . S
O335 Mg322 2.010 . S
O335 C327 1.249 . S
Mg336 O337 2.028 . S
Mg336 O343 1.986 . S
Mg336 O345 2.114 . S
Mg336 O346 2.251 . S
Mg336 O349 2.010 . S
O337 Mg336 2.028 . S
O337 C340 1.250 . S
O338 Mg339 2.028 . S
O338 C340 1.248 . S
Mg339 O338 2.028 . S
Mg339 O344 2.032 . S
Mg339 O346 2.079 . S
C340 O337 1.250 . S
C340 O338 1.248 . S
C341 O342 1.264 . S
C341 O349 1.249 . S
O342 C341 1.264 . S
O343 Mg336 1.986 . S
O343 C347 1.246 . S
O344 Mg339 2.032 . S
O344 C347 1.259 . S
O345 Mg336 2.114 . S
O345 C348 1.252 . S
O346 Mg336 2.251 . S
O346 Mg339 2.079 . S
O346 C348 1.273 . S
C347 O343 1.246 . S
C347 O344 1.259 . S
C348 O345 1.252 . S
C348 O346 1.273 . S
O349 Mg336 2.010 . S
O349 C341 1.249 . S
Mg350 O351 2.028 . S
Mg350 O357 1.986 . S
Mg350 O359 2.114 1_556 S
Mg350 O360 2.251 1_556 S
Mg350 O363 2.010 . S
O351 Mg350 2.028 . S
O351 C354 1.250 . S
O352 Mg353 2.028 1_556 S
O352 C354 1.248 . S
Mg353 O352 2.028 1_554 S
Mg353 O358 2.032 1_554 S
Mg353 O360 2.079 . S
C354 O351 1.250 . S
C354 O352 1.248 . S
C355 O356 1.264 . S
C355 O363 1.249 . S
O356 C355 1.264 . S
O357 Mg350 1.986 . S
O357 C361 1.246 . S
O358 Mg353 2.032 1_556 S
O358 C361 1.259 . S
O359 Mg350 2.114 1_554 S
O359 C362 1.252 . S
O360 Mg350 2.251 1_554 S
O360 Mg353 2.079 . S
O360 C362 1.273 . S
C361 O357 1.246 . S
C361 O358 1.259 . S
C362 O359 1.252 . S
C362 O360 1.273 . S
O363 Mg350 2.010 . S
O363 C355 1.249 . S
Mg364 O365 2.028 . S
Mg364 O371 1.986 . S
Mg364 O373 2.114 . S
Mg364 O374 2.251 . S
Mg364 O377 2.010 1_455 S
O365 Mg364 2.028 . S
O365 C368 1.250 . S
O366 Mg367 2.028 . S
O366 C368 1.248 . S
Mg367 O366 2.028 . S
Mg367 O372 2.032 . S
Mg367 O374 2.079 . S
C368 O365 1.250 . S
C368 O366 1.248 . S
C369 O370 1.264 . S
C369 O377 1.249 . S
O370 C369 1.264 . S
O371 Mg364 1.986 . S
O371 C375 1.246 . S
O372 Mg367 2.032 . S
O372 C375 1.259 . S
O373 Mg364 2.114 . S
O373 C376 1.252 . S
O374 Mg364 2.251 . S
O374 Mg367 2.079 . S
O374 C376 1.273 . S
C375 O371 1.246 . S
C375 O372 1.259 . S
C376 O373 1.252 . S
C376 O374 1.273 . S
O377 Mg364 2.010 1_655 S
O377 C369 1.249 . S
Mg378 O379 2.028 . S
Mg378 O385 1.986 . S
Mg378 O387 2.114 . S
Mg378 O388 2.251 . S
Mg378 O391 2.010 . S
O379 Mg378 2.028 . S
O379 C382 1.250 . S
O380 Mg381 2.028 . S
O380 C382 1.248 . S
Mg381 O380 2.028 . S
Mg381 O386 2.032 . S
Mg381 O388 2.079 . S
C382 O379 1.250 . S
C382 O380 1.248 . S
C383 O384 1.264 . S
C383 O391 1.249 . S
O384 C383 1.264 . S
O385 Mg378 1.986 . S
O385 C389 1.246 . S
O386 Mg381 2.032 . S
O386 C389 1.259 . S
O387 Mg378 2.114 . S
O387 C390 1.252 . S
O388 Mg378 2.251 . S
O388 Mg381 2.079 . S
O388 C390 1.273 . S
C389 O385 1.246 . S
C389 O386 1.259 . S
C390 O387 1.252 . S
C390 O388 1.273 . S
O391 Mg378 2.010 . S
O391 C383 1.249 . S
Mg392 O393 2.028 . S
Mg392 O399 1.986 . S
Mg392 O401 2.114 . S
Mg392 O402 2.251 . S
Mg392 O405 2.010 . S
O393 Mg392 2.028 . S
O393 C396 1.250 . S
O394 Mg395 2.028 . S
O394 C396 1.248 . S
Mg395 O394 2.028 . S
Mg395 O400 2.032 . S
Mg395 O402 2.079 . S
C396 O393 1.250 . S
C396 O394 1.248 . S
C397 O398 1.264 . S
C397 O405 1.249 . S
O398 C397 1.264 . S
O399 Mg392 1.986 . S
O399 C403 1.246 . S
O400 Mg395 2.032 . S
O400 C403 1.259 . S
O401 Mg392 2.114 . S
O401 C404 1.252 . S
O402 Mg392 2.251 . S
O402 Mg395 2.079 . S
O402 C404 1.273 . S
C403 O399 1.246 . S
C403 O400 1.259 . S
C404 O401 1.252 . S
C404 O402 1.273 . S
O405 Mg392 2.010 . S
O405 C397 1.249 . S
Mg406 O407 2.028 . S
Mg406 O413 1.986 . S
Mg406 O415 2.114 1_554 S
Mg406 O416 2.251 1_554 S
Mg406 O419 2.010 . S
O407 Mg406 2.028 . S
O407 C410 1.250 . S
O408 Mg409 2.028 1_554 S
O408 C410 1.248 . S
Mg409 O408 2.028 1_556 S
Mg409 O414 2.032 1_556 S
Mg409 O416 2.079 . S
C410 O407 1.250 . S
C410 O408 1.248 . S
C411 O412 1.264 . S
C411 O419 1.249 . S
O412 C411 1.264 . S
O413 Mg406 1.986 . S
O413 C417 1.246 . S
O414 Mg409 2.032 1_554 S
O414 C417 1.259 . S
O415 Mg406 2.114 1_556 S
O415 C418 1.252 . S
O416 Mg406 2.251 1_556 S
O416 Mg409 2.079 . S
O416 C418 1.273 . S
C417 O413 1.246 . S
C417 O414 1.259 . S
C418 O415 1.252 . S
C418 O416 1.273 . S
O419 Mg406 2.010 . S
O419 C411 1.249 . S
Mg420 O421 2.028 . S
Mg420 O427 1.986 . S
Mg420 O429 2.114 . S
Mg420 O430 2.251 . S
Mg420 O433 2.010 1_455 S
O421 Mg420 2.028 . S
O421 C424 1.250 . S
O422 Mg423 2.028 . S
O422 C424 1.248 . S
Mg423 O422 2.028 . S
Mg423 O428 2.032 . S
Mg423 O430 2.079 . S
C424 O421 1.250 . S
C424 O422 1.248 . S
C425 O426 1.264 . S
C425 O433 1.249 . S
O426 C425 1.264 . S
O427 Mg420 1.986 . S
O427 C431 1.246 . S
O428 Mg423 2.032 . S
O428 C431 1.259 . S
O429 Mg420 2.114 . S
O429 C432 1.252 . S
O430 Mg420 2.251 . S
O430 Mg423 2.079 . S
O430 C432 1.273 . S
C431 O427 1.246 . S
C431 O428 1.259 . S
C432 O429 1.252 . S
C432 O430 1.273 . S
O433 Mg420 2.010 1_655 S
O433 C425 1.249 . S
Mg434 O435 2.028 . S
Mg434 O441 1.986 . S
Mg434 O443 2.114 . S
Mg434 O444 2.251 . S
Mg434 O447 2.010 . S
O435 Mg434 2.028 . S
O435 C438 1.250 . S
O436 Mg437 2.028 . S
O436 C438 1.248 . S
Mg437 O436 2.028 . S
Mg437 O442 2.032 . S
Mg437 O444 2.079 . S
C438 O435 1.250 . S
C438 O436 1.248 . S
C439 O440 1.264 . S
C439 O447 1.249 . S
O440 C439 1.264 . S
O441 Mg434 1.986 . S
O441 C445 1.246 . S
O442 Mg437 2.032 . S
O442 C445 1.259 . S
O443 Mg434 2.114 . S
O443 C446 1.252 . S
O444 Mg434 2.251 . S
O444 Mg437 2.079 . S
O444 C446 1.273 . S
C445 O441 1.246 . S
C445 O442 1.259 . S
C446 O443 1.252 . S
C446 O444 1.273 . S
O447 Mg434 2.010 . S
O447 C439 1.249 . S
H448 C454 0.930 . S
H449 C457 0.930 . S
H450 C458 0.930 . S
H451 C459 0.930 . S
H452 C462 0.930 . S
H453 C463 0.930 . S
C454 H448 0.930 . S
C454 C455 1.355 . S
C454 C456 1.415 . S
C455 C454 1.355 . S
C455 C457 1.419 . S
C456 C454 1.415 . S
C456 C461 1.425 . S
C456 C463 1.409 . S
C457 H449 0.930 . S
C457 C455 1.419 . S
C457 C458 1.362 . S
C458 H450 0.930 . S
C458 C457 1.362 . S
C458 C461 1.409 . S
C459 H451 0.930 . S
C459 C460 1.355 . S
C459 C461 1.415 . S
C460 C459 1.355 . S
C460 C462 1.419 . S
C461 C456 1.425 . S
C461 C458 1.409 . S
C461 C459 1.415 . S
C462 H452 0.930 . S
C462 C460 1.419 . S
C462 C463 1.362 . S
C463 H453 0.930 . S
C463 C456 1.409 . S
C463 C462 1.362 . S
H464 C470 0.930 . S
H465 C473 0.930 . S
H466 C474 0.930 . S
H467 C475 0.930 . S
H468 C478 0.930 . S
H469 C479 0.930 . S
C470 H464 0.930 . S
C470 C471 1.355 . S
C470 C472 1.415 . S
C471 C470 1.355 . S
C471 C473 1.419 . S
C472 C470 1.415 . S
C472 C477 1.425 . S
C472 C479 1.409 . S
C473 H465 0.930 . S
C473 C471 1.419 . S
C473 C474 1.362 . S
C474 H466 0.930 . S
C474 C473 1.362 . S
C474 C477 1.409 . S
C475 H467 0.930 . S
C475 C476 1.355 . S
C475 C477 1.415 . S
C476 C475 1.355 . S
C476 C478 1.419 . S
C477 C472 1.425 . S
C477 C474 1.409 . S
C477 C475 1.415 . S
C478 H468 0.930 . S
C478 C476 1.419 . S
C478 C479 1.362 . S
C479 H469 0.930 . S
C479 C472 1.409 . S
C479 C478 1.362 . S
H480 C486 0.930 . S
H481 C489 0.930 . S
H482 C490 0.930 . S
H483 C491 0.930 . S
H484 C494 0.930 . S
H485 C495 0.930 . S
C486 H480 0.930 . S
C486 C487 1.355 . S
C486 C488 1.415 . S
C487 C486 1.355 . S
C487 C489 1.419 . S
C488 C486 1.415 . S
C488 C493 1.425 . S
C488 C495 1.409 . S
C489 H481 0.930 . S
C489 C487 1.419 . S
C489 C490 1.362 . S
C490 H482 0.930 . S
C490 C489 1.362 . S
C490 C493 1.409 . S
C491 H483 0.930 . S
C491 C492 1.355 . S
C491 C493 1.415 . S
C492 C491 1.355 . S
C492 C494 1.419 . S
C493 C488 1.425 . S
C493 C490 1.409 . S
C493 C491 1.415 . S
C494 H484 0.930 . S
C494 C492 1.419 . S
C494 C495 1.362 . S
C495 H485 0.930 . S
C495 C488 1.409 . S
C495 C494 1.362 . S
H496 C502 0.930 . S
H497 C505 0.930 . S
H498 C506 0.930 . S
H499 C507 0.930 . S
H500 C510 0.930 . S
H501 C511 0.930 . S
C502 H496 0.930 . S
C502 C503 1.355 . S
C502 C504 1.415 . S
C503 C502 1.355 . S
C503 C505 1.419 . S
C504 C502 1.415 . S
C504 C509 1.425 . S
C504 C511 1.409 . S
C505 H497 0.930 . S
C505 C503 1.419 . S
C505 C506 1.362 . S
C506 H498 0.930 . S
C506 C505 1.362 . S
C506 C509 1.409 . S
C507 H499 0.930 . S
C507 C508 1.355 . S
C507 C509 1.415 . S
C508 C507 1.355 . S
C508 C510 1.419 . S
C509 C504 1.425 . S
C509 C506 1.409 . S
C509 C507 1.415 . S
C510 H500 0.930 . S
C510 C508 1.419 . S
C510 C511 1.362 . S
C511 H501 0.930 . S
C511 C504 1.409 . S
C511 C510 1.362 . S
H512 C518 0.930 . S
H513 C521 0.930 . S
H514 C522 0.930 . S
H515 C523 0.930 . S
H516 C526 0.930 . S
H517 C527 0.930 . S
C518 H512 0.930 . S
C518 C519 1.355 . S
C518 C520 1.415 . S
C519 C518 1.355 . S
C519 C521 1.419 . S
C520 C518 1.415 . S
C520 C525 1.425 . S
C520 C527 1.409 . S
C521 H513 0.930 . S
C521 C519 1.419 . S
C521 C522 1.362 . S
C522 H514 0.930 . S
C522 C521 1.362 . S
C522 C525 1.409 . S
C523 H515 0.930 . S
C523 C524 1.355 . S
C523 C525 1.415 . S
C524 C523 1.355 . S
C524 C526 1.419 . S
C525 C520 1.425 . S
C525 C522 1.409 . S
C525 C523 1.415 . S
C526 H516 0.930 . S
C526 C524 1.419 . S
C526 C527 1.362 . S
C527 H517 0.930 . S
C527 C520 1.409 . S
C527 C526 1.362 . S
H528 C534 0.930 . S
H529 C537 0.930 . S
H530 C538 0.930 . S
H531 C539 0.930 . S
H532 C542 0.930 . S
H533 C543 0.930 . S
C534 H528 0.930 . S
C534 C535 1.355 . S
C534 C536 1.415 . S
C535 C534 1.355 . S
C535 C537 1.419 . S
C536 C534 1.415 . S
C536 C541 1.425 . S
C536 C543 1.409 . S
C537 H529 0.930 . S
C537 C535 1.419 . S
C537 C538 1.362 . S
C538 H530 0.930 . S
C538 C537 1.362 . S
C538 C541 1.409 . S
C539 H531 0.930 . S
C539 C540 1.355 . S
C539 C541 1.415 . S
C540 C539 1.355 . S
C540 C542 1.419 . S
C541 C536 1.425 . S
C541 C538 1.409 . S
C541 C539 1.415 . S
C542 H532 0.930 . S
C542 C540 1.419 . S
C542 C543 1.362 . S
C543 H533 0.930 . S
C543 C536 1.409 . S
C543 C542 1.362 . S
H544 C550 0.930 . S
H545 C553 0.930 . S
H546 C554 0.930 . S
H547 C555 0.930 . S
H548 C558 0.930 . S
H549 C559 0.930 . S
C550 H544 0.930 . S
C550 C551 1.355 . S
C550 C552 1.415 . S
C551 C550 1.355 . S
C551 C553 1.419 . S
C552 C550 1.415 . S
C552 C557 1.425 . S
C552 C559 1.409 . S
C553 H545 0.930 . S
C553 C551 1.419 . S
C553 C554 1.362 . S
C554 H546 0.930 . S
C554 C553 1.362 . S
C554 C557 1.409 . S
C555 H547 0.930 . S
C555 C556 1.355 . S
C555 C557 1.415 . S
C556 C555 1.355 . S
C556 C558 1.419 . S
C557 C552 1.425 . S
C557 C554 1.409 . S
C557 C555 1.415 . S
C558 H548 0.930 . S
C558 C556 1.419 . S
C558 C559 1.362 . S
C559 H549 0.930 . S
C559 C552 1.409 . S
C559 C558 1.362 . S
H560 C566 0.930 . S
H561 C569 0.930 . S
H562 C570 0.930 . S
H563 C571 0.930 . S
H564 C574 0.930 . S
H565 C575 0.930 . S
C566 H560 0.930 . S
C566 C567 1.355 . S
C566 C568 1.415 . S
C567 C566 1.355 . S
C567 C569 1.419 . S
C568 C566 1.415 . S
C568 C573 1.425 . S
C568 C575 1.409 . S
C569 H561 0.930 . S
C569 C567 1.419 . S
C569 C570 1.362 . S
C570 H562 0.930 . S
C570 C569 1.362 . S
C570 C573 1.409 . S
C571 H563 0.930 . S
C571 C572 1.355 . S
C571 C573 1.415 . S
C572 C571 1.355 . S
C572 C574 1.419 . S
C573 C568 1.425 . S
C573 C570 1.409 . S
C573 C571 1.415 . S
C574 H564 0.930 . S
C574 C572 1.419 . S
C574 C575 1.362 . S
C575 H565 0.930 . S
C575 C568 1.409 . S
C575 C574 1.362 . S
H576 C582 0.930 . S
H577 C585 0.930 . S
H578 C586 0.930 . S
H579 C587 0.930 . S
H580 C590 0.930 . S
H581 C591 0.930 . S
C582 H576 0.930 . S
C582 C583 1.355 . S
C582 C584 1.415 . S
C583 C582 1.355 . S
C583 C585 1.419 . S
C584 C582 1.415 . S
C584 C589 1.425 . S
C584 C591 1.409 . S
C585 H577 0.930 . S
C585 C583 1.419 . S
C585 C586 1.362 . S
C586 H578 0.930 . S
C586 C585 1.362 . S
C586 C589 1.409 . S
C587 H579 0.930 . S
C587 C588 1.355 . S
C587 C589 1.415 . S
C588 C587 1.355 . S
C588 C590 1.419 . S
C589 C584 1.425 . S
C589 C586 1.409 . S
C589 C587 1.415 . S
C590 H580 0.930 . S
C590 C588 1.419 . S
C590 C591 1.362 . S
C591 H581 0.930 . S
C591 C584 1.409 . S
C591 C590 1.362 . S
H592 C598 0.930 . S
H593 C601 0.930 . S
H594 C602 0.930 . S
H595 C603 0.930 . S
H596 C606 0.930 . S
H597 C607 0.930 . S
C598 H592 0.930 . S
C598 C599 1.355 . S
C598 C600 1.415 . S
C599 C598 1.355 . S
C599 C601 1.419 . S
C600 C598 1.415 . S
C600 C605 1.425 . S
C600 C607 1.409 . S
C601 H593 0.930 . S
C601 C599 1.419 . S
C601 C602 1.362 . S
C602 H594 0.930 . S
C602 C601 1.362 . S
C602 C605 1.409 . S
C603 H595 0.930 . S
C603 C604 1.355 . S
C603 C605 1.415 . S
C604 C603 1.355 . S
C604 C606 1.419 . S
C605 C600 1.425 . S
C605 C602 1.409 . S
C605 C603 1.415 . S
C606 H596 0.930 . S
C606 C604 1.419 . S
C606 C607 1.362 . S
C607 H597 0.930 . S
C607 C600 1.409 . S
C607 C606 1.362 . S
H608 C614 0.930 . S
H609 C617 0.930 . S
H610 C618 0.930 . S
H611 C619 0.930 . S
H612 C622 0.930 . S
H613 C623 0.930 . S
C614 H608 0.930 . S
C614 C615 1.355 . S
C614 C616 1.415 . S
C615 C614 1.355 . S
C615 C617 1.419 . S
C616 C614 1.415 . S
C616 C621 1.425 . S
C616 C623 1.409 . S
C617 H609 0.930 . S
C617 C615 1.419 . S
C617 C618 1.362 . S
C618 H610 0.930 . S
C618 C617 1.362 . S
C618 C621 1.409 . S
C619 H611 0.930 . S
C619 C620 1.355 . S
C619 C621 1.415 . S
C620 C619 1.355 . S
C620 C622 1.419 . S
C621 C616 1.425 . S
C621 C618 1.409 . S
C621 C619 1.415 . S
C622 H612 0.930 . S
C622 C620 1.419 . S
C622 C623 1.362 . S
C623 H613 0.930 . S
C623 C616 1.409 . S
C623 C622 1.362 . S
H624 C630 0.930 . S
H625 C633 0.930 . S
H626 C634 0.930 . S
H627 C635 0.930 . S
H628 C638 0.930 . S
H629 C639 0.930 . S
C630 H624 0.930 . S
C630 C631 1.355 . S
C630 C632 1.415 . S
C631 C630 1.355 . S
C631 C633 1.419 . S
C632 C630 1.415 . S
C632 C637 1.425 . S
C632 C639 1.409 . S
C633 H625 0.930 . S
C633 C631 1.419 . S
C633 C634 1.362 . S
C634 H626 0.930 . S
C634 C633 1.362 . S
C634 C637 1.409 . S
C635 H627 0.930 . S
C635 C636 1.355 . S
C635 C637 1.415 . S
C636 C635 1.355 . S
C636 C638 1.419 . S
C637 C632 1.425 . S
C637 C634 1.409 . S
C637 C635 1.415 . S
C638 H628 0.930 . S
C638 C636 1.419 . S
C638 C639 1.362 . S
C639 H629 0.930 . S
C639 C632 1.409 . S
C639 C638 1.362 . S
H640 C646 0.930 . S
H641 C649 0.930 . S
H642 C650 0.930 . S
H643 C651 0.930 . S
H644 C654 0.930 . S
H645 C655 0.930 . S
C646 H640 0.930 . S
C646 C647 1.355 . S
C646 C648 1.415 . S
C647 C646 1.355 . S
C647 C649 1.419 . S
C648 C646 1.415 . S
C648 C653 1.425 . S
C648 C655 1.409 . S
C649 H641 0.930 . S
C649 C647 1.419 . S
C649 C650 1.362 . S
C650 H642 0.930 . S
C650 C649 1.362 . S
C650 C653 1.409 . S
C651 H643 0.930 . S
C651 C652 1.355 . S
C651 C653 1.415 . S
C652 C651 1.355 . S
C652 C654 1.419 . S
C653 C648 1.425 . S
C653 C650 1.409 . S
C653 C651 1.415 . S
C654 H644 0.930 . S
C654 C652 1.419 . S
C654 C655 1.362 . S
C655 H645 0.930 . S
C655 C648 1.409 . S
C655 C654 1.362 . S
H656 C662 0.930 . S
H657 C665 0.930 . S
H658 C666 0.930 . S
H659 C667 0.930 . S
H660 C670 0.930 . S
H661 C671 0.930 . S
C662 H656 0.930 . S
C662 C663 1.355 . S
C662 C664 1.415 . S
C663 C662 1.355 . S
C663 C665 1.419 . S
C664 C662 1.415 . S
C664 C669 1.425 . S
C664 C671 1.409 . S
C665 H657 0.930 . S
C665 C663 1.419 . S
C665 C666 1.362 . S
C666 H658 0.930 . S
C666 C665 1.362 . S
C666 C669 1.409 . S
C667 H659 0.930 . S
C667 C668 1.355 . S
C667 C669 1.415 . S
C668 C667 1.355 . S
C668 C670 1.419 . S
C669 C664 1.425 . S
C669 C666 1.409 . S
C669 C667 1.415 . S
C670 H660 0.930 . S
C670 C668 1.419 . S
C670 C671 1.362 . S
C671 H661 0.930 . S
C671 C664 1.409 . S
C671 C670 1.362 . S
H672 C678 0.930 . S
H673 C681 0.930 . S
H674 C682 0.930 . S
H675 C683 0.930 . S
H676 C686 0.930 . S
H677 C687 0.930 . S
C678 H672 0.930 . S
C678 C679 1.355 . S
C678 C680 1.415 . S
C679 C678 1.355 . S
C679 C681 1.419 . S
C680 C678 1.415 . S
C680 C685 1.425 . S
C680 C687 1.409 . S
C681 H673 0.930 . S
C681 C679 1.419 . S
C681 C682 1.362 . S
C682 H674 0.930 . S
C682 C681 1.362 . S
C682 C685 1.409 . S
C683 H675 0.930 . S
C683 C684 1.355 . S
C683 C685 1.415 . S
C684 C683 1.355 . S
C684 C686 1.419 . S
C685 C680 1.425 . S
C685 C682 1.409 . S
C685 C683 1.415 . S
C686 H676 0.930 . S
C686 C684 1.419 . S
C686 C687 1.362 . S
C687 H677 0.930 . S
C687 C680 1.409 . S
C687 C686 1.362 . S
H688 C694 0.930 . S
H689 C697 0.930 . S
H690 C698 0.930 . S
H691 C699 0.930 . S
H692 C702 0.930 . S
H693 C703 0.930 . S
C694 H688 0.930 . S
C694 C695 1.355 . S
C694 C696 1.415 . S
C695 C694 1.355 . S
C695 C697 1.419 . S
C696 C694 1.415 . S
C696 C701 1.425 . S
C696 C703 1.409 . S
C697 H689 0.930 . S
C697 C695 1.419 . S
C697 C698 1.362 . S
C698 H690 0.930 . S
C698 C697 1.362 . S
C698 C701 1.409 . S
C699 H691 0.930 . S
C699 C700 1.355 . S
C699 C701 1.415 . S
C700 C699 1.355 . S
C700 C702 1.419 . S
C701 C696 1.425 . S
C701 C698 1.409 . S
C701 C699 1.415 . S
C702 H692 0.930 . S
C702 C700 1.419 . S
C702 C703 1.362 . S
C703 H693 0.930 . S
C703 C696 1.409 . S
C703 C702 1.362 . S
H704 C710 0.930 . S
H705 C713 0.930 . S
H706 C714 0.930 . S
H707 C715 0.930 . S
H708 C718 0.930 . S
H709 C719 0.930 . S
C710 H704 0.930 . S
C710 C711 1.355 . S
C710 C712 1.415 . S
C711 C710 1.355 . S
C711 C713 1.419 . S
C712 C710 1.415 . S
C712 C717 1.425 . S
C712 C719 1.409 . S
C713 H705 0.930 . S
C713 C711 1.419 . S
C713 C714 1.362 . S
C714 H706 0.930 . S
C714 C713 1.362 . S
C714 C717 1.409 . S
C715 H707 0.930 . S
C715 C716 1.355 . S
C715 C717 1.415 . S
C716 C715 1.355 . S
C716 C718 1.419 . S
C717 C712 1.425 . S
C717 C714 1.409 . S
C717 C715 1.415 . S
C718 H708 0.930 . S
C718 C716 1.419 . S
C718 C719 1.362 . S
C719 H709 0.930 . S
C719 C712 1.409 . S
C719 C718 1.362 . S
H720 C726 0.930 . S
H721 C729 0.930 . S
H722 C730 0.930 . S
H723 C731 0.930 . S
H724 C734 0.930 . S
H725 C735 0.930 . S
C726 H720 0.930 . S
C726 C727 1.355 . S
C726 C728 1.415 . S
C727 C726 1.355 . S
C727 C729 1.419 . S
C728 C726 1.415 . S
C728 C733 1.425 . S
C728 C735 1.409 . S
C729 H721 0.930 . S
C729 C727 1.419 . S
C729 C730 1.362 . S
C730 H722 0.930 . S
C730 C729 1.362 . S
C730 C733 1.409 . S
C731 H723 0.930 . S
C731 C732 1.355 . S
C731 C733 1.415 . S
C732 C731 1.355 . S
C732 C734 1.419 . S
C733 C728 1.425 . S
C733 C730 1.409 . S
C733 C731 1.415 . S
C734 H724 0.930 . S
C734 C732 1.419 . S
C734 C735 1.362 . S
C735 H725 0.930 . S
C735 C728 1.409 . S
C735 C734 1.362 . S
H736 C742 0.930 . S
H737 C745 0.930 . S
H738 C746 0.930 . S
H739 C747 0.930 . S
H740 C750 0.930 . S
H741 C751 0.930 . S
C742 H736 0.930 . S
C742 C743 1.355 . S
C742 C744 1.415 . S
C743 C742 1.355 . S
C743 C745 1.419 . S
C744 C742 1.415 . S
C744 C749 1.425 . S
C744 C751 1.409 . S
C745 H737 0.930 . S
C745 C743 1.419 . S
C745 C746 1.362 . S
C746 H738 0.930 . S
C746 C745 1.362 . S
C746 C749 1.409 . S
C747 H739 0.930 . S
C747 C748 1.355 . S
C747 C749 1.415 . S
C748 C747 1.355 . S
C748 C750 1.419 . S
C749 C744 1.425 . S
C749 C746 1.409 . S
C749 C747 1.415 . S
C750 H740 0.930 . S
C750 C748 1.419 . S
C750 C751 1.362 . S
C751 H741 0.930 . S
C751 C744 1.409 . S
C751 C750 1.362 . S
H752 C758 0.930 . S
H753 C761 0.930 . S
H754 C762 0.930 . S
H755 C763 0.930 . S
H756 C766 0.930 . S
H757 C767 0.930 . S
C758 H752 0.930 . S
C758 C759 1.355 . S
C758 C760 1.415 . S
C759 C758 1.355 . S
C759 C761 1.419 . S
C760 C758 1.415 . S
C760 C765 1.425 . S
C760 C767 1.409 . S
C761 H753 0.930 . S
C761 C759 1.419 . S
C761 C762 1.362 . S
C762 H754 0.930 . S
C762 C761 1.362 . S
C762 C765 1.409 . S
C763 H755 0.930 . S
C763 C764 1.355 . S
C763 C765 1.415 . S
C764 C763 1.355 . S
C764 C766 1.419 . S
C765 C760 1.425 . S
C765 C762 1.409 . S
C765 C763 1.415 . S
C766 H756 0.930 . S
C766 C764 1.419 . S
C766 C767 1.362 . S
C767 H757 0.930 . S
C767 C760 1.409 . S
C767 C766 1.362 . S
H768 C774 0.930 . S
H769 C777 0.930 . S
H770 C778 0.930 . S
H771 C779 0.930 . S
H772 C782 0.930 . S
H773 C783 0.930 . S
C774 H768 0.930 . S
C774 C775 1.355 . S
C774 C776 1.415 . S
C775 C774 1.355 . S
C775 C777 1.419 . S
C776 C774 1.415 . S
C776 C781 1.425 . S
C776 C783 1.409 . S
C777 H769 0.930 . S
C777 C775 1.419 . S
C777 C778 1.362 . S
C778 H770 0.930 . S
C778 C777 1.362 . S
C778 C781 1.409 . S
C779 H771 0.930 . S
C779 C780 1.355 . S
C779 C781 1.415 . S
C780 C779 1.355 . S
C780 C782 1.419 . S
C781 C776 1.425 . S
C781 C778 1.409 . S
C781 C779 1.415 . S
C782 H772 0.930 . S
C782 C780 1.419 . S
C782 C783 1.362 . S
C783 H773 0.930 . S
C783 C776 1.409 . S
C783 C782 1.362 . S
H784 C790 0.930 . S
H785 C793 0.930 . S
H786 C794 0.930 . S
H787 C795 0.930 . S
H788 C798 0.930 . S
H789 C799 0.930 . S
C790 H784 0.930 . S
C790 C791 1.355 . S
C790 C792 1.415 . S
C791 C790 1.355 . S
C791 C793 1.419 . S
C792 C790 1.415 . S
C792 C797 1.425 . S
C792 C799 1.409 . S
C793 H785 0.930 . S
C793 C791 1.419 . S
C793 C794 1.362 . S
C794 H786 0.930 . S
C794 C793 1.362 . S
C794 C797 1.409 . S
C795 H787 0.930 . S
C795 C796 1.355 . S
C795 C797 1.415 . S
C796 C795 1.355 . S
C796 C798 1.419 . S
C797 C792 1.425 . S
C797 C794 1.409 . S
C797 C795 1.415 . S
C798 H788 0.930 . S
C798 C796 1.419 . S
C798 C799 1.362 . S
C799 H789 0.930 . S
C799 C792 1.409 . S
C799 C798 1.362 . S
H800 C806 0.930 . S
H801 C809 0.930 . S
H802 C810 0.930 . S
H803 C811 0.930 . S
H804 C814 0.930 . S
H805 C815 0.930 . S
C806 H800 0.930 . S
C806 C807 1.355 . S
C806 C808 1.415 . S
C807 C806 1.355 . S
C807 C809 1.419 . S
C808 C806 1.415 . S
C808 C813 1.425 . S
C808 C815 1.409 . S
C809 H801 0.930 . S
C809 C807 1.419 . S
C809 C810 1.362 . S
C810 H802 0.930 . S
C810 C809 1.362 . S
C810 C813 1.409 . S
C811 H803 0.930 . S
C811 C812 1.355 . S
C811 C813 1.415 . S
C812 C811 1.355 . S
C812 C814 1.419 . S
C813 C808 1.425 . S
C813 C810 1.409 . S
C813 C811 1.415 . S
C814 H804 0.930 . S
C814 C812 1.419 . S
C814 C815 1.362 . S
C815 H805 0.930 . S
C815 C808 1.409 . S
C815 C814 1.362 . S
H816 C822 0.930 . S
H817 C825 0.930 . S
H818 C826 0.930 . S
H819 C827 0.930 . S
H820 C830 0.930 . S
H821 C831 0.930 . S
C822 H816 0.930 . S
C822 C823 1.355 . S
C822 C824 1.415 . S
C823 C822 1.355 . S
C823 C825 1.419 . S
C824 C822 1.415 . S
C824 C829 1.425 . S
C824 C831 1.409 . S
C825 H817 0.930 . S
C825 C823 1.419 . S
C825 C826 1.362 . S
C826 H818 0.930 . S
C826 C825 1.362 . S
C826 C829 1.409 . S
C827 H819 0.930 . S
C827 C828 1.355 . S
C827 C829 1.415 . S
C828 C827 1.355 . S
C828 C830 1.419 . S
C829 C824 1.425 . S
C829 C826 1.409 . S
C829 C827 1.415 . S
C830 H820 0.930 . S
C830 C828 1.419 . S
C830 C831 1.362 . S
C831 H821 0.930 . S
C831 C824 1.409 . S
C831 C830 1.362 . S
H832 C838 0.930 . S
H833 C841 0.930 . S
H834 C842 0.930 . S
H835 C843 0.930 . S
H836 C846 0.930 . S
H837 C847 0.930 . S
C838 H832 0.930 . S
C838 C839 1.355 . S
C838 C840 1.415 . S
C839 C838 1.355 . S
C839 C841 1.419 . S
C840 C838 1.415 . S
C840 C845 1.425 . S
C840 C847 1.409 . S
C841 H833 0.930 . S
C841 C839 1.419 . S
C841 C842 1.362 . S
C842 H834 0.930 . S
C842 C841 1.362 . S
C842 C845 1.409 . S
C843 H835 0.930 . S
C843 C844 1.355 . S
C843 C845 1.415 . S
C844 C843 1.355 . S
C844 C846 1.419 . S
C845 C840 1.425 . S
C845 C842 1.409 . S
C845 C843 1.415 . S
C846 H836 0.930 . S
C846 C844 1.419 . S
C846 C847 1.362 . S
C847 H837 0.930 . S
C847 C840 1.409 . S
C847 C846 1.362 . S
H848 C854 0.930 . S
H849 C857 0.930 . S
H850 C858 0.930 . S
H851 C859 0.930 . S
H852 C862 0.930 . S
H853 C863 0.930 . S
C854 H848 0.930 . S
C854 C855 1.355 . S
C854 C856 1.415 . S
C855 C854 1.355 . S
C855 C857 1.419 . S
C856 C854 1.415 . S
C856 C861 1.425 . S
C856 C863 1.409 . S
C857 H849 0.930 . S
C857 C855 1.419 . S
C857 C858 1.362 . S
C858 H850 0.930 . S
C858 C857 1.362 . S
C858 C861 1.409 . S
C859 H851 0.930 . S
C859 C860 1.355 . S
C859 C861 1.415 . S
C860 C859 1.355 . S
C860 C862 1.419 . S
C861 C856 1.425 . S
C861 C858 1.409 . S
C861 C859 1.415 . S
C862 H852 0.930 . S
C862 C860 1.419 . S
C862 C863 1.362 . S
C863 H853 0.930 . S
C863 C856 1.409 . S
C863 C862 1.362 . S
H864 C870 0.930 . S
H865 C873 0.930 . S
H866 C874 0.930 . S
H867 C875 0.930 . S
H868 C878 0.930 . S
H869 C879 0.930 . S
C870 H864 0.930 . S
C870 C871 1.355 . S
C870 C872 1.415 . S
C871 C870 1.355 . S
C871 C873 1.419 . S
C872 C870 1.415 . S
C872 C877 1.425 . S
C872 C879 1.409 . S
C873 H865 0.930 . S
C873 C871 1.419 . S
C873 C874 1.362 . S
C874 H866 0.930 . S
C874 C873 1.362 . S
C874 C877 1.409 . S
C875 H867 0.930 . S
C875 C876 1.355 . S
C875 C877 1.415 . S
C876 C875 1.355 . S
C876 C878 1.419 . S
C877 C872 1.425 . S
C877 C874 1.409 . S
C877 C875 1.415 . S
C878 H868 0.930 . S
C878 C876 1.419 . S
C878 C879 1.362 . S
C879 H869 0.930 . S
C879 C872 1.409 . S
C879 C878 1.362 . S
H880 C886 0.930 . S
H881 C889 0.930 . S
H882 C890 0.930 . S
H883 C891 0.930 . S
H884 C894 0.930 . S
H885 C895 0.930 . S
C886 H880 0.930 . S
C886 C887 1.355 . S
C886 C888 1.415 . S
C887 C886 1.355 . S
C887 C889 1.419 . S
C888 C886 1.415 . S
C888 C893 1.425 . S
C888 C895 1.409 . S
C889 H881 0.930 . S
C889 C887 1.419 . S
C889 C890 1.362 . S
C890 H882 0.930 . S
C890 C889 1.362 . S
C890 C893 1.409 . S
C891 H883 0.930 . S
C891 C892 1.355 . S
C891 C893 1.415 . S
C892 C891 1.355 . S
C892 C894 1.419 . S
C893 C888 1.425 . S
C893 C890 1.409 . S
C893 C891 1.415 . S
C894 H884 0.930 . S
C894 C892 1.419 . S
C894 C895 1.362 . S
C895 H885 0.930 . S
C895 C888 1.409 . S
C895 C894 1.362 . S
H896 C902 0.930 . S
H897 C905 0.930 . S
H898 C906 0.930 . S
H899 C907 0.930 . S
H900 C910 0.930 . S
H901 C911 0.930 . S
C902 H896 0.930 . S
C902 C903 1.355 . S
C902 C904 1.415 . S
C903 C902 1.355 . S
C903 C905 1.419 . S
C904 C902 1.415 . S
C904 C909 1.425 . S
C904 C911 1.409 . S
C905 H897 0.930 . S
C905 C903 1.419 . S
C905 C906 1.362 . S
C906 H898 0.930 . S
C906 C905 1.362 . S
C906 C909 1.409 . S
C907 H899 0.930 . S
C907 C908 1.355 . S
C907 C909 1.415 . S
C908 C907 1.355 . S
C908 C910 1.419 . S
C909 C904 1.425 . S
C909 C906 1.409 . S
C909 C907 1.415 . S
C910 H900 0.930 . S
C910 C908 1.419 . S
C910 C911 1.362 . S
C911 H901 0.930 . S
C911 C904 1.409 . S
C911 C910 1.362 . S
H912 C918 0.930 . S
H913 C921 0.930 . S
H914 C922 0.930 . S
H915 C923 0.930 . S
H916 C926 0.930 . S
H917 C927 0.930 . S
C918 H912 0.930 . S
C918 C919 1.355 . S
C918 C920 1.415 . S
C919 C918 1.355 . S
C919 C921 1.419 . S
C920 C918 1.415 . S
C920 C925 1.425 . S
C920 C927 1.409 . S
C921 H913 0.930 . S
C921 C919 1.419 . S
C921 C922 1.362 . S
C922 H914 0.930 . S
C922 C921 1.362 . S
C922 C925 1.409 . S
C923 H915 0.930 . S
C923 C924 1.355 . S
C923 C925 1.415 . S
C924 C923 1.355 . S
C924 C926 1.419 . S
C925 C920 1.425 . S
C925 C922 1.409 . S
C925 C923 1.415 . S
C926 H916 0.930 . S
C926 C924 1.419 . S
C926 C927 1.362 . S
C927 H917 0.930 . S
C927 C920 1.409 . S
C927 C926 1.362 . S
H928 C934 0.930 . S
H929 C937 0.930 . S
H930 C938 0.930 . S
H931 C939 0.930 . S
H932 C942 0.930 . S
H933 C943 0.930 . S
C934 H928 0.930 . S
C934 C935 1.355 . S
C934 C936 1.415 . S
C935 C934 1.355 . S
C935 C937 1.419 . S
C936 C934 1.415 . S
C936 C941 1.425 . S
C936 C943 1.409 . S
C937 H929 0.930 . S
C937 C935 1.419 . S
C937 C938 1.362 . S
C938 H930 0.930 . S
C938 C937 1.362 . S
C938 C941 1.409 . S
C939 H931 0.930 . S
C939 C940 1.355 . S
C939 C941 1.415 . S
C940 C939 1.355 . S
C940 C942 1.419 . S
C941 C936 1.425 . S
C941 C938 1.409 . S
C941 C939 1.415 . S
C942 H932 0.930 . S
C942 C940 1.419 . S
C942 C943 1.362 . S
C943 H933 0.930 . S
C943 C936 1.409 . S
C943 C942 1.362 . S
H944 C950 0.930 . S
H945 C953 0.930 . S
H946 C954 0.930 . S
H947 C955 0.930 . S
H948 C958 0.930 . S
H949 C959 0.930 . S
C950 H944 0.930 . S
C950 C951 1.355 . S
C950 C952 1.415 . S
C951 C950 1.355 . S
C951 C953 1.419 . S
C952 C950 1.415 . S
C952 C957 1.425 . S
C952 C959 1.409 . S
C953 H945 0.930 . S
C953 C951 1.419 . S
C953 C954 1.362 . S
C954 H946 0.930 . S
C954 C953 1.362 . S
C954 C957 1.409 . S
C955 H947 0.930 . S
C955 C956 1.355 . S
C955 C957 1.415 . S
C956 C955 1.355 . S
C956 C958 1.419 . S
C957 C952 1.425 . S
C957 C954 1.409 . S
C957 C955 1.415 . S
C958 H948 0.930 . S
C958 C956 1.419 . S
C958 C959 1.362 . S
C959 H949 0.930 . S
C959 C952 1.409 . S
C959 C958 1.362 . S
H960 C966 0.930 . S
H961 C969 0.930 . S
H962 C970 0.930 . S
H963 C971 0.930 . S
H964 C974 0.930 . S
H965 C975 0.930 . S
C966 H960 0.930 . S
C966 C967 1.355 . S
C966 C968 1.415 . S
C967 C966 1.355 . S
C967 C969 1.419 . S
C968 C966 1.415 . S
C968 C973 1.425 . S
C968 C975 1.409 . S
C969 H961 0.930 . S
C969 C967 1.419 . S
C969 C970 1.362 . S
C970 H962 0.930 . S
C970 C969 1.362 . S
C970 C973 1.409 . S
C971 H963 0.930 . S
C971 C972 1.355 . S
C971 C973 1.415 . S
C972 C971 1.355 . S
C972 C974 1.419 . S
C973 C968 1.425 . S
C973 C970 1.409 . S
C973 C971 1.415 . S
C974 H964 0.930 . S
C974 C972 1.419 . S
C974 C975 1.362 . S
C975 H965 0.930 . S
C975 C968 1.409 . S
C975 C974 1.362 . S
H976 C982 0.930 . S
H977 C985 0.930 . S
H978 C986 0.930 . S
H979 C987 0.930 . S
H980 C990 0.930 . S
H981 C991 0.930 . S
C982 H976 0.930 . S
C982 C983 1.355 . S
C982 C984 1.415 . S
C983 C982 1.355 . S
C983 C985 1.419 . S
C984 C982 1.415 . S
C984 C989 1.425 . S
C984 C991 1.409 . S
C985 H977 0.930 . S
C985 C983 1.419 . S
C985 C986 1.362 . S
C986 H978 0.930 . S
C986 C985 1.362 . S
C986 C989 1.409 . S
C987 H979 0.930 . S
C987 C988 1.355 . S
C987 C989 1.415 . S
C988 C987 1.355 . S
C988 C990 1.419 . S
C989 C984 1.425 . S
C989 C986 1.409 . S
C989 C987 1.415 . S
C990 H980 0.930 . S
C990 C988 1.419 . S
C990 C991 1.362 . S
C991 H981 0.930 . S
C991 C984 1.409 . S
C991 C990 1.362 . S
H992 C998 0.930 . S
H993 C1001 0.930 . S
H994 C1002 0.930 . S
H995 C1003 0.930 . S
H996 C1006 0.930 . S
H997 C1007 0.930 . S
C998 H992 0.930 . S
C998 C999 1.355 . S
C998 C1000 1.415 . S
C999 C998 1.355 . S
C999 C1001 1.419 . S
C1000 C998 1.415 . S
C1000 C1005 1.425 . S
C1000 C1007 1.409 . S
C1001 H993 0.930 . S
C1001 C999 1.419 . S
C1001 C1002 1.362 . S
C1002 H994 0.930 . S
C1002 C1001 1.362 . S
C1002 C1005 1.409 . S
C1003 H995 0.930 . S
C1003 C1004 1.355 . S
C1003 C1005 1.415 . S
C1004 C1003 1.355 . S
C1004 C1006 1.419 . S
C1005 C1000 1.425 . S
C1005 C1002 1.409 . S
C1005 C1003 1.415 . S
C1006 H996 0.930 . S
C1006 C1004 1.419 . S
C1006 C1007 1.362 . S
C1007 H997 0.930 . S
C1007 C1000 1.409 . S
C1007 C1006 1.362 . S
H1008 C1014 0.930 . S
H1009 C1017 0.930 . S
H1010 C1018 0.930 . S
H1011 C1019 0.930 . S
H1012 C1022 0.930 . S
H1013 C1023 0.930 . S
C1014 H1008 0.930 . S
C1014 C1015 1.355 . S
C1014 C1016 1.415 . S
C1015 C1014 1.355 . S
C1015 C1017 1.419 . S
C1016 C1014 1.415 . S
C1016 C1021 1.425 . S
C1016 C1023 1.409 . S
C1017 H1009 0.930 . S
C1017 C1015 1.419 . S
C1017 C1018 1.362 . S
C1018 H1010 0.930 . S
C1018 C1017 1.362 . S
C1018 C1021 1.409 . S
C1019 H1011 0.930 . S
C1019 C1020 1.355 . S
C1019 C1021 1.415 . S
C1020 C1019 1.355 . S
C1020 C1022 1.419 . S
C1021 C1016 1.425 . S
C1021 C1018 1.409 . S
C1021 C1019 1.415 . S
C1022 H1012 0.930 . S
C1022 C1020 1.419 . S
C1022 C1023 1.362 . S
C1023 H1013 0.930 . S
C1023 C1016 1.409 . S
C1023 C1022 1.362 . S
H1024 C1030 0.930 . S
H1025 C1033 0.930 . S
H1026 C1034 0.930 . S
H1027 C1035 0.930 . S
H1028 C1038 0.930 . S
H1029 C1039 0.930 . S
C1030 H1024 0.930 . S
C1030 C1031 1.355 . S
C1030 C1032 1.415 . S
C1031 C1030 1.355 . S
C1031 C1033 1.419 . S
C1032 C1030 1.415 . S
C1032 C1037 1.425 . S
C1032 C1039 1.409 . S
C1033 H1025 0.930 . S
C1033 C1031 1.419 . S
C1033 C1034 1.362 . S
C1034 H1026 0.930 . S
C1034 C1033 1.362 . S
C1034 C1037 1.409 . S
C1035 H1027 0.930 . S
C1035 C1036 1.355 . S
C1035 C1037 1.415 . S
C1036 C1035 1.355 . S
C1036 C1038 1.419 . S
C1037 C1032 1.425 . S
C1037 C1034 1.409 . S
C1037 C1035 1.415 . S
C1038 H1028 0.930 . S
C1038 C1036 1.419 . S
C1038 C1039 1.362 . S
C1039 H1029 0.930 . S
C1039 C1032 1.409 . S
C1039 C1038 1.362 . S
H1040 C1046 0.930 . S
H1041 C1049 0.930 . S
H1042 C1050 0.930 . S
H1043 C1051 0.930 . S
H1044 C1054 0.930 . S
H1045 C1055 0.930 . S
C1046 H1040 0.930 . S
C1046 C1047 1.355 . S
C1046 C1048 1.415 . S
C1047 C1046 1.355 . S
C1047 C1049 1.419 . S
C1048 C1046 1.415 . S
C1048 C1053 1.425 . S
C1048 C1055 1.409 . S
C1049 H1041 0.930 . S
C1049 C1047 1.419 . S
C1049 C1050 1.362 . S
C1050 H1042 0.930 . S
C1050 C1049 1.362 . S
C1050 C1053 1.409 . S
C1051 H1043 0.930 . S
C1051 C1052 1.355 . S
C1051 C1053 1.415 . S
C1052 C1051 1.355 . S
C1052 C1054 1.419 . S
C1053 C1048 1.425 . S
C1053 C1050 1.409 . S
C1053 C1051 1.415 . S
C1054 H1044 0.930 . S
C1054 C1052 1.419 . S
C1054 C1055 1.362 . S
C1055 H1045 0.930 . S
C1055 C1048 1.409 . S
C1055 C1054 1.362 . S
H1056 C1062 0.930 . S
H1057 C1065 0.930 . S
H1058 C1066 0.930 . S
H1059 C1067 0.930 . S
H1060 C1070 0.930 . S
H1061 C1071 0.930 . S
C1062 H1056 0.930 . S
C1062 C1063 1.355 . S
C1062 C1064 1.415 . S
C1063 C1062 1.355 . S
C1063 C1065 1.419 . S
C1064 C1062 1.415 . S
C1064 C1069 1.425 . S
C1064 C1071 1.409 . S
C1065 H1057 0.930 . S
C1065 C1063 1.419 . S
C1065 C1066 1.362 . S
C1066 H1058 0.930 . S
C1066 C1065 1.362 . S
C1066 C1069 1.409 . S
C1067 H1059 0.930 . S
C1067 C1068 1.355 . S
C1067 C1069 1.415 . S
C1068 C1067 1.355 . S
C1068 C1070 1.419 . S
C1069 C1064 1.425 . S
C1069 C1066 1.409 . S
C1069 C1067 1.415 . S
C1070 H1060 0.930 . S
C1070 C1068 1.419 . S
C1070 C1071 1.362 . S
C1071 H1061 0.930 . S
C1071 C1064 1.409 . S
C1071 C1070 1.362 . S
H1072 C1078 0.930 . S
H1073 C1081 0.930 . S
H1074 C1082 0.930 . S
H1075 C1083 0.930 . S
H1076 C1086 0.930 . S
H1077 C1087 0.930 . S
C1078 H1072 0.930 . S
C1078 C1079 1.355 . S
C1078 C1080 1.415 . S
C1079 C1078 1.355 . S
C1079 C1081 1.419 . S
C1080 C1078 1.415 . S
C1080 C1085 1.425 . S
C1080 C1087 1.409 . S
C1081 H1073 0.930 . S
C1081 C1079 1.419 . S
C1081 C1082 1.362 . S
C1082 H1074 0.930 . S
C1082 C1081 1.362 . S
C1082 C1085 1.409 . S
C1083 H1075 0.930 . S
C1083 C1084 1.355 . S
C1083 C1085 1.415 . S
C1084 C1083 1.355 . S
C1084 C1086 1.419 . S
C1085 C1080 1.425 . S
C1085 C1082 1.409 . S
C1085 C1083 1.415 . S
C1086 H1076 0.930 . S
C1086 C1084 1.419 . S
C1086 C1087 1.362 . S
C1087 H1077 0.930 . S
C1087 C1080 1.409 . S
C1087 C1086 1.362 . S
H1088 C1094 0.930 . S
H1089 C1097 0.930 . S
H1090 C1098 0.930 . S
H1091 C1099 0.930 . S
H1092 C1102 0.930 . S
H1093 C1103 0.930 . S
C1094 H1088 0.930 . S
C1094 C1095 1.355 . S
C1094 C1096 1.415 . S
C1095 C1094 1.355 . S
C1095 C1097 1.419 . S
C1096 C1094 1.415 . S
C1096 C1101 1.425 . S
C1096 C1103 1.409 . S
C1097 H1089 0.930 . S
C1097 C1095 1.419 . S
C1097 C1098 1.362 . S
C1098 H1090 0.930 . S
C1098 C1097 1.362 . S
C1098 C1101 1.409 . S
C1099 H1091 0.930 . S
C1099 C1100 1.355 . S
C1099 C1101 1.415 . S
C1100 C1099 1.355 . S
C1100 C1102 1.419 . S
C1101 C1096 1.425 . S
C1101 C1098 1.409 . S
C1101 C1099 1.415 . S
C1102 H1092 0.930 . S
C1102 C1100 1.419 . S
C1102 C1103 1.362 . S
C1103 H1093 0.930 . S
C1103 C1096 1.409 . S
C1103 C1102 1.362 . S
H1104 C1110 0.930 . S
H1105 C1113 0.930 . S
H1106 C1114 0.930 . S
H1107 C1115 0.930 . S
H1108 C1118 0.930 . S
H1109 C1119 0.930 . S
C1110 H1104 0.930 . S
C1110 C1111 1.355 . S
C1110 C1112 1.415 . S
C1111 C1110 1.355 . S
C1111 C1113 1.419 . S
C1112 C1110 1.415 . S
C1112 C1117 1.425 . S
C1112 C1119 1.409 . S
C1113 H1105 0.930 . S
C1113 C1111 1.419 . S
C1113 C1114 1.362 . S
C1114 H1106 0.930 . S
C1114 C1113 1.362 . S
C1114 C1117 1.409 . S
C1115 H1107 0.930 . S
C1115 C1116 1.355 . S
C1115 C1117 1.415 . S
C1116 C1115 1.355 . S
C1116 C1118 1.419 . S
C1117 C1112 1.425 . S
C1117 C1114 1.409 . S
C1117 C1115 1.415 . S
C1118 H1108 0.930 . S
C1118 C1116 1.419 . S
C1118 C1119 1.362 . S
C1119 H1109 0.930 . S
C1119 C1112 1.409 . S
C1119 C1118 1.362 . S
H1120 C1126 0.930 . S
H1121 C1129 0.930 . S
H1122 C1130 0.930 . S
H1123 C1131 0.930 . S
H1124 C1134 0.930 . S
H1125 C1135 0.930 . S
C1126 H1120 0.930 . S
C1126 C1127 1.355 . S
C1126 C1128 1.415 . S
C1127 C1126 1.355 . S
C1127 C1129 1.419 . S
C1128 C1126 1.415 . S
C1128 C1133 1.425 . S
C1128 C1135 1.409 . S
C1129 H1121 0.930 . S
C1129 C1127 1.419 . S
C1129 C1130 1.362 . S
C1130 H1122 0.930 . S
C1130 C1129 1.362 . S
C1130 C1133 1.409 . S
C1131 H1123 0.930 . S
C1131 C1132 1.355 . S
C1131 C1133 1.415 . S
C1132 C1131 1.355 . S
C1132 C1134 1.419 . S
C1133 C1128 1.425 . S
C1133 C1130 1.409 . S
C1133 C1131 1.415 . S
C1134 H1124 0.930 . S
C1134 C1132 1.419 . S
C1134 C1135 1.362 . S
C1135 H1125 0.930 . S
C1135 C1128 1.409 . S
C1135 C1134 1.362 . S
H1136 C1142 0.930 . S
H1137 C1145 0.930 . S
H1138 C1146 0.930 . S
H1139 C1147 0.930 . S
H1140 C1150 0.930 . S
H1141 C1151 0.930 . S
C1142 H1136 0.930 . S
C1142 C1143 1.355 . S
C1142 C1144 1.415 . S
C1143 C1142 1.355 . S
C1143 C1145 1.419 . S
C1144 C1142 1.415 . S
C1144 C1149 1.425 . S
C1144 C1151 1.409 . S
C1145 H1137 0.930 . S
C1145 C1143 1.419 . S
C1145 C1146 1.362 . S
C1146 H1138 0.930 . S
C1146 C1145 1.362 . S
C1146 C1149 1.409 . S
C1147 H1139 0.930 . S
C1147 C1148 1.355 . S
C1147 C1149 1.415 . S
C1148 C1147 1.355 . S
C1148 C1150 1.419 . S
C1149 C1144 1.425 . S
C1149 C1146 1.409 . S
C1149 C1147 1.415 . S
C1150 H1140 0.930 . S
C1150 C1148 1.419 . S
C1150 C1151 1.362 . S
C1151 H1141 0.930 . S
C1151 C1144 1.409 . S
C1151 C1150 1.362 . S
H1152 C1158 0.930 . S
H1153 C1161 0.930 . S
H1154 C1162 0.930 . S
H1155 C1163 0.930 . S
H1156 C1166 0.930 . S
H1157 C1167 0.930 . S
C1158 H1152 0.930 . S
C1158 C1159 1.355 . S
C1158 C1160 1.415 . S
C1159 C1158 1.355 . S
C1159 C1161 1.419 . S
C1160 C1158 1.415 . S
C1160 C1165 1.425 . S
C1160 C1167 1.409 . S
C1161 H1153 0.930 . S
C1161 C1159 1.419 . S
C1161 C1162 1.362 . S
C1162 H1154 0.930 . S
C1162 C1161 1.362 . S
C1162 C1165 1.409 . S
C1163 H1155 0.930 . S
C1163 C1164 1.355 . S
C1163 C1165 1.415 . S
C1164 C1163 1.355 . S
C1164 C1166 1.419 . S
C1165 C1160 1.425 . S
C1165 C1162 1.409 . S
C1165 C1163 1.415 . S
C1166 H1156 0.930 . S
C1166 C1164 1.419 . S
C1166 C1167 1.362 . S
C1167 H1157 0.930 . S
C1167 C1160 1.409 . S
C1167 C1166 1.362 . S
H1168 C1174 0.930 . S
H1169 C1177 0.930 . S
H1170 C1178 0.930 . S
H1171 C1179 0.930 . S
H1172 C1182 0.930 . S
H1173 C1183 0.930 . S
C1174 H1168 0.930 . S
C1174 C1175 1.355 . S
C1174 C1176 1.415 . S
C1175 C1174 1.355 . S
C1175 C1177 1.419 . S
C1176 C1174 1.415 . S
C1176 C1181 1.425 . S
C1176 C1183 1.409 . S
C1177 H1169 0.930 . S
C1177 C1175 1.419 . S
C1177 C1178 1.362 . S
C1178 H1170 0.930 . S
C1178 C1177 1.362 . S
C1178 C1181 1.409 . S
C1179 H1171 0.930 . S
C1179 C1180 1.355 . S
C1179 C1181 1.415 . S
C1180 C1179 1.355 . S
C1180 C1182 1.419 . S
C1181 C1176 1.425 . S
C1181 C1178 1.409 . S
C1181 C1179 1.415 . S
C1182 H1172 0.930 . S
C1182 C1180 1.419 . S
C1182 C1183 1.362 . S
C1183 H1173 0.930 . S
C1183 C1176 1.409 . S
C1183 C1182 1.362 . S
H1184 C1190 0.930 . S
H1185 C1193 0.930 . S
H1186 C1194 0.930 . S
H1187 C1195 0.930 . S
H1188 C1198 0.930 . S
H1189 C1199 0.930 . S
C1190 H1184 0.930 . S
C1190 C1191 1.355 . S
C1190 C1192 1.415 . S
C1191 C1190 1.355 . S
C1191 C1193 1.419 . S
C1192 C1190 1.415 . S
C1192 C1197 1.425 . S
C1192 C1199 1.409 . S
C1193 H1185 0.930 . S
C1193 C1191 1.419 . S
C1193 C1194 1.362 . S
C1194 H1186 0.930 . S
C1194 C1193 1.362 . S
C1194 C1197 1.409 . S
C1195 H1187 0.930 . S
C1195 C1196 1.355 . S
C1195 C1197 1.415 . S
C1196 C1195 1.355 . S
C1196 C1198 1.419 . S
C1197 C1192 1.425 . S
C1197 C1194 1.409 . S
C1197 C1195 1.415 . S
C1198 H1188 0.930 . S
C1198 C1196 1.419 . S
C1198 C1199 1.362 . S
C1199 H1189 0.930 . S
C1199 C1192 1.409 . S
C1199 C1198 1.362 . S
H1200 C1206 0.930 . S
H1201 C1209 0.930 . S
H1202 C1210 0.930 . S
H1203 C1211 0.930 . S
H1204 C1214 0.930 . S
H1205 C1215 0.930 . S
C1206 H1200 0.930 . S
C1206 C1207 1.355 . S
C1206 C1208 1.415 . S
C1207 C1206 1.355 . S
C1207 C1209 1.419 . S
C1208 C1206 1.415 . S
C1208 C1213 1.425 . S
C1208 C1215 1.409 . S
C1209 H1201 0.930 . S
C1209 C1207 1.419 . S
C1209 C1210 1.362 . S
C1210 H1202 0.930 . S
C1210 C1209 1.362 . S
C1210 C1213 1.409 . S
C1211 H1203 0.930 . S
C1211 C1212 1.355 . S
C1211 C1213 1.415 . S
C1212 C1211 1.355 . S
C1212 C1214 1.419 . S
C1213 C1208 1.425 . S
C1213 C1210 1.409 . S
C1213 C1211 1.415 . S
C1214 H1204 0.930 . S
C1214 C1212 1.419 . S
C1214 C1215 1.362 . S
C1215 H1205 0.930 . S
C1215 C1208 1.409 . S
C1215 C1214 1.362 . S
H1216 C1222 0.930 . S
H1217 C1225 0.930 . S
H1218 C1226 0.930 . S
H1219 C1227 0.930 . S
H1220 C1230 0.930 . S
H1221 C1231 0.930 . S
C1222 H1216 0.930 . S
C1222 C1223 1.355 . S
C1222 C1224 1.415 . S
C1223 C1222 1.355 . S
C1223 C1225 1.419 . S
C1224 C1222 1.415 . S
C1224 C1229 1.425 . S
C1224 C1231 1.409 . S
C1225 H1217 0.930 . S
C1225 C1223 1.419 . S
C1225 C1226 1.362 . S
C1226 H1218 0.930 . S
C1226 C1225 1.362 . S
C1226 C1229 1.409 . S
C1227 H1219 0.930 . S
C1227 C1228 1.355 . S
C1227 C1229 1.415 . S
C1228 C1227 1.355 . S
C1228 C1230 1.419 . S
C1229 C1224 1.425 . S
C1229 C1226 1.409 . S
C1229 C1227 1.415 . S
C1230 H1220 0.930 . S
C1230 C1228 1.419 . S
C1230 C1231 1.362 . S
C1231 H1221 0.930 . S
C1231 C1224 1.409 . S
C1231 C1230 1.362 . S
H1232 C1238 0.930 . S
H1233 C1241 0.930 . S
H1234 C1242 0.930 . S
H1235 C1243 0.930 . S
H1236 C1246 0.930 . S
H1237 C1247 0.930 . S
C1238 H1232 0.930 . S
C1238 C1239 1.355 . S
C1238 C1240 1.415 . S
C1239 C1238 1.355 . S
C1239 C1241 1.419 . S
C1240 C1238 1.415 . S
C1240 C1245 1.425 . S
C1240 C1247 1.409 . S
C1241 H1233 0.930 . S
C1241 C1239 1.419 . S
C1241 C1242 1.362 . S
C1242 H1234 0.930 . S
C1242 C1241 1.362 . S
C1242 C1245 1.409 . S
C1243 H1235 0.930 . S
C1243 C1244 1.355 . S
C1243 C1245 1.415 . S
C1244 C1243 1.355 . S
C1244 C1246 1.419 . S
C1245 C1240 1.425 . S
C1245 C1242 1.409 . S
C1245 C1243 1.415 . S
C1246 H1236 0.930 . S
C1246 C1244 1.419 . S
C1246 C1247 1.362 . S
C1247 H1237 0.930 . S
C1247 C1240 1.409 . S
C1247 C1246 1.362 . S
H1248 C1254 0.930 . S
H1249 C1257 0.930 . S
H1250 C1258 0.930 . S
H1251 C1259 0.930 . S
H1252 C1262 0.930 . S
H1253 C1263 0.930 . S
C1254 H1248 0.930 . S
C1254 C1255 1.355 . S
C1254 C1256 1.415 . S
C1255 C1254 1.355 . S
C1255 C1257 1.419 . S
C1256 C1254 1.415 . S
C1256 C1261 1.425 . S
C1256 C1263 1.409 . S
C1257 H1249 0.930 . S
C1257 C1255 1.419 . S
C1257 C1258 1.362 . S
C1258 H1250 0.930 . S
C1258 C1257 1.362 . S
C1258 C1261 1.409 . S
C1259 H1251 0.930 . S
C1259 C1260 1.355 . S
C1259 C1261 1.415 . S
C1260 C1259 1.355 . S
C1260 C1262 1.419 . S
C1261 C1256 1.425 . S
C1261 C1258 1.409 . S
C1261 C1259 1.415 . S
C1262 H1252 0.930 . S
C1262 C1260 1.419 . S
C1262 C1263 1.362 . S
C1263 H1253 0.930 . S
C1263 C1256 1.409 . S
C1263 C1262 1.362 . S
H1264 C1270 0.930 . S
H1265 C1273 0.930 . S
H1266 C1274 0.930 . S
H1267 C1275 0.930 . S
H1268 C1278 0.930 . S
H1269 C1279 0.930 . S
C1270 H1264 0.930 . S
C1270 C1271 1.355 1_554 S
C1270 C1272 1.415 . S
C1271 C1270 1.355 1_556 S
C1271 C1273 1.419 . S
C1272 C1270 1.415 . S
C1272 C1277 1.425 1_554 S
C1272 C1279 1.409 . S
C1273 H1265 0.930 . S
C1273 C1271 1.419 . S
C1273 C1274 1.362 . S
C1274 H1266 0.930 . S
C1274 C1273 1.362 . S
C1274 C1277 1.409 . S
C1275 H1267 0.930 . S
C1275 C1276 1.355 1_556 S
C1275 C1277 1.415 . S
C1276 C1275 1.355 1_554 S
C1276 C1278 1.419 . S
C1277 C1272 1.425 1_556 S
C1277 C1274 1.409 . S
C1277 C1275 1.415 . S
C1278 H1268 0.930 . S
C1278 C1276 1.419 . S
C1278 C1279 1.362 . S
C1279 H1269 0.930 . S
C1279 C1272 1.409 . S
C1279 C1278 1.362 . S
H1280 C1286 0.930 . S
H1281 C1289 0.930 . S
H1282 C1290 0.930 . S
H1283 C1291 0.930 . S
H1284 C1294 0.930 . S
H1285 C1295 0.930 . S
C1286 H1280 0.930 . S
C1286 C1287 1.355 . S
C1286 C1288 1.415 . S
C1287 C1286 1.355 . S
C1287 C1289 1.419 . S
C1288 C1286 1.415 . S
C1288 C1293 1.425 . S
C1288 C1295 1.409 . S
C1289 H1281 0.930 . S
C1289 C1287 1.419 . S
C1289 C1290 1.362 . S
C1290 H1282 0.930 . S
C1290 C1289 1.362 . S
C1290 C1293 1.409 . S
C1291 H1283 0.930 . S
C1291 C1292 1.355 . S
C1291 C1293 1.415 . S
C1292 C1291 1.355 . S
C1292 C1294 1.419 . S
C1293 C1288 1.425 . S
C1293 C1290 1.409 . S
C1293 C1291 1.415 . S
C1294 H1284 0.930 . S
C1294 C1292 1.419 . S
C1294 C1295 1.362 . S
C1295 H1285 0.930 . S
C1295 C1288 1.409 . S
C1295 C1294 1.362 . S
H1296 C1302 0.930 . S
H1297 C1305 0.930 . S
H1298 C1306 0.930 . S
H1299 C1307 0.930 . S
H1300 C1310 0.930 . S
H1301 C1311 0.930 . S
C1302 H1296 0.930 . S
C1302 C1303 1.355 . S
C1302 C1304 1.415 . S
C1303 C1302 1.355 . S
C1303 C1305 1.419 . S
C1304 C1302 1.415 . S
C1304 C1309 1.425 . S
C1304 C1311 1.409 . S
C1305 H1297 0.930 . S
C1305 C1303 1.419 . S
C1305 C1306 1.362 . S
C1306 H1298 0.930 . S
C1306 C1305 1.362 . S
C1306 C1309 1.409 . S
C1307 H1299 0.930 . S
C1307 C1308 1.355 . S
C1307 C1309 1.415 . S
C1308 C1307 1.355 . S
C1308 C1310 1.419 . S
C1309 C1304 1.425 . S
C1309 C1306 1.409 . S
C1309 C1307 1.415 . S
C1310 H1300 0.930 . S
C1310 C1308 1.419 . S
C1310 C1311 1.362 . S
C1311 H1301 0.930 . S
C1311 C1304 1.409 . S
C1311 C1310 1.362 . S
H1312 C1318 0.930 . S
H1313 C1321 0.930 . S
H1314 C1322 0.930 . S
H1315 C1323 0.930 . S
H1316 C1326 0.930 . S
H1317 C1327 0.930 . S
C1318 H1312 0.930 . S
C1318 C1319 1.355 . S
C1318 C1320 1.415 . S
C1319 C1318 1.355 . S
C1319 C1321 1.419 . S
C1320 C1318 1.415 . S
C1320 C1325 1.425 . S
C1320 C1327 1.409 . S
C1321 H1313 0.930 . S
C1321 C1319 1.419 . S
C1321 C1322 1.362 . S
C1322 H1314 0.930 . S
C1322 C1321 1.362 . S
C1322 C1325 1.409 . S
C1323 H1315 0.930 . S
C1323 C1324 1.355 . S
C1323 C1325 1.415 . S
C1324 C1323 1.355 . S
C1324 C1326 1.419 . S
C1325 C1320 1.425 . S
C1325 C1322 1.409 . S
C1325 C1323 1.415 . S
C1326 H1316 0.930 . S
C1326 C1324 1.419 . S
C1326 C1327 1.362 . S
C1327 H1317 0.930 . S
C1327 C1320 1.409 . S
C1327 C1326 1.362 . S
H1328 C1334 0.930 . S
H1329 C1337 0.930 . S
H1330 C1338 0.930 . S
H1331 C1339 0.930 . S
H1332 C1342 0.930 . S
H1333 C1343 0.930 . S
C1334 H1328 0.930 . S
C1334 C1335 1.355 . S
C1334 C1336 1.415 1_554 S
C1335 C1334 1.355 . S
C1335 C1337 1.419 . S
C1336 C1334 1.415 1_556 S
C1336 C1341 1.425 1_556 S
C1336 C1343 1.409 . S
C1337 H1329 0.930 . S
C1337 C1335 1.419 . S
C1337 C1338 1.362 . S
C1338 H1330 0.930 . S
C1338 C1337 1.362 . S
C1338 C1341 1.409 . S
C1339 H1331 0.930 . S
C1339 C1340 1.355 . S
C1339 C1341 1.415 1_556 S
C1340 C1339 1.355 . S
C1340 C1342 1.419 . S
C1341 C1336 1.425 1_554 S
C1341 C1338 1.409 . S
C1341 C1339 1.415 1_554 S
C1342 H1332 0.930 . S
C1342 C1340 1.419 . S
C1342 C1343 1.362 . S
C1343 H1333 0.930 . S
C1343 C1336 1.409 . S
C1343 C1342 1.362 . S
H1344 C1350 0.930 . S
H1345 C1353 0.930 . S
H1346 C1354 0.930 1_545 S
H1347 C1355 0.930 . S
H1348 C1358 0.930 . S
H1349 C1359 0.930 1_565 S
C1350 H1344 0.930 . S
C1350 C1351 1.355 . S
C1350 C1352 1.415 . S
C1351 C1350 1.355 . S
C1351 C1353 1.419 . S
C1352 C1350 1.415 . S
C1352 C1357 1.425 1_565 S
C1352 C1359 1.409 1_565 S
C1353 H1345 0.930 . S
C1353 C1351 1.419 . S
C1353 C1354 1.362 . S
C1354 H1346 0.930 1_565 S
C1354 C1353 1.362 . S
C1354 C1357 1.409 1_565 S
C1355 H1347 0.930 . S
C1355 C1356 1.355 . S
C1355 C1357 1.415 . S
C1356 C1355 1.355 . S
C1356 C1358 1.419 . S
C1357 C1352 1.425 1_545 S
C1357 C1354 1.409 1_545 S
C1357 C1355 1.415 . S
C1358 H1348 0.930 . S
C1358 C1356 1.419 . S
C1358 C1359 1.362 . S
C1359 H1349 0.930 1_545 S
C1359 C1352 1.409 1_545 S
C1359 C1358 1.362 . S
H1360 C1366 0.930 . S
H1361 C1369 0.930 . S
H1362 C1370 0.930 . S
H1363 C1371 0.930 . S
H1364 C1374 0.930 . S
H1365 C1375 0.930 . S
C1366 H1360 0.930 . S
C1366 C1367 1.355 . S
C1366 C1368 1.415 . S
C1367 C1366 1.355 . S
C1367 C1369 1.419 1_554 S
C1368 C1366 1.415 . S
C1368 C1373 1.425 1_554 S
C1368 C1375 1.409 . S
C1369 H1361 0.930 . S
C1369 C1367 1.419 1_556 S
C1369 C1370 1.362 . S
C1370 H1362 0.930 . S
C1370 C1369 1.362 . S
C1370 C1373 1.409 . S
C1371 H1363 0.930 . S
C1371 C1372 1.355 . S
C1371 C1373 1.415 . S
C1372 C1371 1.355 . S
C1372 C1374 1.419 1_556 S
C1373 C1368 1.425 1_556 S
C1373 C1370 1.409 . S
C1373 C1371 1.415 . S
C1374 H1364 0.930 . S
C1374 C1372 1.419 1_554 S
C1374 C1375 1.362 . S
C1375 H1365 0.930 . S
C1375 C1368 1.409 . S
C1375 C1374 1.362 . S
H1376 C1382 0.930 . S
H1377 C1385 0.930 1_455 S
H1378 C1386 0.930 1_455 S
H1379 C1387 0.930 . S
H1380 C1390 0.930 . S
H1381 C1391 0.930 . S
C1382 H1376 0.930 . S
C1382 C1383 1.355 . S
C1382 C1384 1.415 . S
C1383 C1382 1.355 . S
C1383 C1385 1.419 . S
C1384 C1382 1.415 . S
C1384 C1389 1.425 1_545 S
C1384 C1391 1.409 1_545 S
C1385 H1377 0.930 1_655 S
C1385 C1383 1.419 . S
C1385 C1386 1.362 . S
C1386 H1378 0.930 1_655 S
C1386 C1385 1.362 . S
C1386 C1389 1.409 1_545 S
C1387 H1379 0.930 . S
C1387 C1388 1.355 . S
C1387 C1389 1.415 . S
C1388 C1387 1.355 . S
C1388 C1390 1.419 . S
C1389 C1384 1.425 1_565 S
C1389 C1386 1.409 1_565 S
C1389 C1387 1.415 . S
C1390 H1380 0.930 . S
C1390 C1388 1.419 . S
C1390 C1391 1.362 . S
C1391 H1381 0.930 . S
C1391 C1384 1.409 1_565 S
C1391 C1390 1.362 . S
H1392 C1398 0.930 . S
H1393 C1401 0.930 . S
H1394 C1402 0.930 . S
H1395 C1403 0.930 . S
H1396 C1406 0.930 . S
H1397 C1407 0.930 . S
C1398 H1392 0.930 . S
C1398 C1399 1.355 . S
C1398 C1400 1.415 . S
C1399 C1398 1.355 . S
C1399 C1401 1.419 . S
C1400 C1398 1.415 . S
C1400 C1405 1.425 . S
C1400 C1407 1.409 . S
C1401 H1393 0.930 . S
C1401 C1399 1.419 . S
C1401 C1402 1.362 . S
C1402 H1394 0.930 . S
C1402 C1401 1.362 . S
C1402 C1405 1.409 . S
C1403 H1395 0.930 . S
C1403 C1404 1.355 . S
C1403 C1405 1.415 . S
C1404 C1403 1.355 . S
C1404 C1406 1.419 . S
C1405 C1400 1.425 . S
C1405 C1402 1.409 . S
C1405 C1403 1.415 . S
C1406 H1396 0.930 . S
C1406 C1404 1.419 . S
C1406 C1407 1.362 . S
C1407 H1397 0.930 . S
C1407 C1400 1.409 . S
C1407 C1406 1.362 . S
H1408 C1414 0.930 . S
H1409 C1417 0.930 . S
H1410 C1418 0.930 . S
H1411 C1419 0.930 . S
H1412 C1422 0.930 . S
H1413 C1423 0.930 . S
C1414 H1408 0.930 . S
C1414 C1415 1.355 . S
C1414 C1416 1.415 . S
C1415 C1414 1.355 . S
C1415 C1417 1.419 . S
C1416 C1414 1.415 . S
C1416 C1421 1.425 1_545 S
C1416 C1423 1.409 1_545 S
C1417 H1409 0.930 . S
C1417 C1415 1.419 . S
C1417 C1418 1.362 . S
C1418 H1410 0.930 . S
C1418 C1417 1.362 . S
C1418 C1421 1.409 1_545 S
C1419 H1411 0.930 . S
C1419 C1420 1.355 . S
C1419 C1421 1.415 . S
C1420 C1419 1.355 . S
C1420 C1422 1.419 . S
C1421 C1416 1.425 1_565 S
C1421 C1418 1.409 1_565 S
C1421 C1419 1.415 . S
C1422 H1412 0.930 . S
C1422 C1420 1.419 . S
C1422 C1423 1.362 . S
C1423 H1413 0.930 . S
C1423 C1416 1.409 1_565 S
C1423 C1422 1.362 . S
H1424 C1430 0.930 1_556 S
H1425 C1433 0.930 . S
H1426 C1434 0.930 . S
H1427 C1435 0.930 1_554 S
H1428 C1438 0.930 . S
H1429 C1439 0.930 . S
C1430 H1424 0.930 1_554 S
C1430 C1431 1.355 . S
C1430 C1432 1.415 1_554 S
C1431 C1430 1.355 . S
C1431 C1433 1.419 . S
C1432 C1430 1.415 1_556 S
C1432 C1437 1.425 1_556 S
C1432 C1439 1.409 . S
C1433 H1425 0.930 . S
C1433 C1431 1.419 . S
C1433 C1434 1.362 . S
C1434 H1426 0.930 . S
C1434 C1433 1.362 . S
C1434 C1437 1.409 . S
C1435 H1427 0.930 1_556 S
C1435 C1436 1.355 . S
C1435 C1437 1.415 1_556 S
C1436 C1435 1.355 . S
C1436 C1438 1.419 . S
C1437 C1432 1.425 1_554 S
C1437 C1434 1.409 . S
C1437 C1435 1.415 1_554 S
C1438 H1428 0.930 . S
C1438 C1436 1.419 . S
C1438 C1439 1.362 . S
C1439 H1429 0.930 . S
C1439 C1432 1.409 . S
C1439 C1438 1.362 . S
H1440 C1446 0.930 1_655 S
H1441 C1449 0.930 . S
H1442 C1450 0.930 . S
H1443 C1451 0.930 . S
H1444 C1454 0.930 1_655 S
H1445 C1455 0.930 . S
C1446 H1440 0.930 1_455 S
C1446 C1447 1.355 . S
C1446 C1448 1.415 . S
C1447 C1446 1.355 . S
C1447 C1449 1.419 . S
C1448 C1446 1.415 . S
C1448 C1453 1.425 1_545 S
C1448 C1455 1.409 1_445 S
C1449 H1441 0.930 . S
C1449 C1447 1.419 . S
C1449 C1450 1.362 . S
C1450 H1442 0.930 . S
C1450 C1449 1.362 . S
C1450 C1453 1.409 1_545 S
C1451 H1443 0.930 . S
C1451 C1452 1.355 . S
C1451 C1453 1.415 . S
C1452 C1451 1.355 . S
C1452 C1454 1.419 . S
C1453 C1448 1.425 1_565 S
C1453 C1450 1.409 1_565 S
C1453 C1451 1.415 . S
C1454 H1444 0.930 1_455 S
C1454 C1452 1.419 . S
C1454 C1455 1.362 1_455 S
C1455 H1445 0.930 . S
C1455 C1448 1.409 1_665 S
C1455 C1454 1.362 1_655 S
H1456 C1462 0.930 . S
H1457 C1465 0.930 . S
H1458 C1466 0.930 . S
H1459 C1467 0.930 . S
H1460 C1470 0.930 . S
H1461 C1471 0.930 . S
C1462 H1456 0.930 . S
C1462 C1463 1.355 . S
C1462 C1464 1.415 . S
C1463 C1462 1.355 . S
C1463 C1465 1.419 . S
C1464 C1462 1.415 . S
C1464 C1469 1.425 . S
C1464 C1471 1.409 . S
C1465 H1457 0.930 . S
C1465 C1463 1.419 . S
C1465 C1466 1.362 . S
C1466 H1458 0.930 . S
C1466 C1465 1.362 . S
C1466 C1469 1.409 . S
C1467 H1459 0.930 . S
C1467 C1468 1.355 . S
C1467 C1469 1.415 . S
C1468 C1467 1.355 . S
C1468 C1470 1.419 . S
C1469 C1464 1.425 . S
C1469 C1466 1.409 . S
C1469 C1467 1.415 . S
C1470 H1460 0.930 . S
C1470 C1468 1.419 . S
C1470 C1471 1.362 . S
C1471 H1461 0.930 . S
C1471 C1464 1.409 . S
C1471 C1470 1.362 . S
C455 C12 1.544 . S
C460 C306 1.538 . S
C471 C320 1.575 . S
C476 C26 1.571 . S
C487 C40 1.573 . S
C492 C334 1.576 . S
C503 C292 1.563 . S
C508 C54 1.570 . S
C519 C68 1.537 . S
C524 C278 1.542 . S
C535 C82 1.576 . S
C540 C236 1.576 . S
C551 C250 1.547 . S
C556 C96 1.555 . S
C567 C110 1.576 . S
C572 C264 1.575 . S
C583 C124 1.551 . S
C588 C418 1.544 . S
C599 C138 1.574 . S
C604 C432 1.576 . S
C615 C446 1.576 . S
C620 C152 1.573 . S
C631 C404 1.575 . S
C636 C166 1.576 . S
C647 C180 1.559 . S
C652 C390 1.551 . S
C663 C348 1.569 . S
C668 C194 1.574 . S
C679 C208 1.541 . S
C684 C362 1.548 . S
C695 C376 1.544 . S
C700 C222 1.551 . S
C711 C4 1.079 . S
C716 C131 1.014 . S
C727 C18 1.048 . S
C732 C369 0.995 . S
C743 C159 1.065 . S
C748 C32 1.063 . S
C759 C46 1.057 . S
C764 C341 1.046 . S
C775 C60 1.051 . S
C780 C215 1.022 . S
C791 C397 1.015 . S
C796 C74 1.050 . S
C807 C187 1.066 . S
C812 C88 1.082 . S
C823 C425 0.963 . S
C828 C102 1.048 . S
C839 C116 1.062 . S
C844 C19 0.959 . S
C855 C257 1.008 . S
C860 C130 1.049 . S
C871 C47 1.061 . S
C876 C144 1.062 . S
C887 C158 1.082 . S
C892 C229 1.038 . S
C903 C103 1.048 . S
C908 C172 1.057 . S
C919 C285 0.954 . S
C924 C186 1.051 . S
C935 C75 1.047 . S
C940 C200 1.057 . S
C951 C214 1.074 . S
C956 C313 1.079 . S
C967 C355 0.952 . S
C972 C228 1.052 . S
C983 C145 1.064 . S
C988 C242 1.063 . S
C999 C383 0.977 . S
C1004 C256 1.047 . S
C1015 C270 1.071 . S
C1020 C117 0.983 . S
C1031 C439 0.953 . S
C1036 C284 1.058 . S
C1047 C173 1.066 . S
C1052 C298 1.064 . S
C1063 C411 0.961 . S
C1068 C312 1.063 . S
C1079 C326 1.082 . S
C1084 C201 1.046 . S
C1095 C340 1.053 . S
C1100 C243 0.951 . S
C1111 C33 0.954 . S
C1116 C354 1.051 . S
C1127 C368 1.081 . S
C1132 C271 1.036 . S
C1143 C382 1.059 . S
C1148 C5 1.054 . S
C1159 C396 1.047 . S
C1164 C327 0.975 . S
C1175 C61 0.992 . S
C1180 C410 1.047 . S
C1191 C299 1.020 . S
C1196 C424 1.051 . S
C1207 C438 1.075 . S
C1212 C89 1.079 . S
C1223 C11 1.223 . S
C1228 C67 1.231 . S
C1239 C25 1.176 . S
C1244 C81 1.170 . S
C1255 C95 1.175 . S
C1260 C39 1.219 . S
C1271 C109 1.226 . S
C1276 C53 1.229 . S
C1287 C179 1.232 . S
C1292 C123 1.220 . S
C1303 C193 1.177 . S
C1308 C137 1.222 . S
C1319 C207 1.165 . S
C1324 C151 1.187 . S
C1335 C221 1.200 . S
C1340 C165 1.234 . S
C1351 C235 1.231 . S
C1356 C291 1.222 . S
C1367 C249 1.185 . S
C1372 C305 1.166 . S
C1383 C263 1.206 . S
C1388 C319 1.166 . S
C1399 C333 1.225 . S
C1404 C277 1.181 . S
C1415 C347 1.180 . S
C1420 C403 1.224 . S
C1431 C417 1.222 . S
C1436 C361 1.177 . S
C1447 C431 1.170 . S
C1452 C375 1.212 . S
C1463 C445 1.181 . S
C1468 C389 1.167 . S
