# Generated by pormake.
# Topology afw, (4)-cn, num edge types: 1
# Building blocks:
#     Node 0, Type 0, BuildingBlock: NAHDIM_clean_sbu_0, # of connection points: 4
#     Node 1, Type 0, BuildingBlock: NAHDIM_clean_sbu_0, # of connection points: 4
#     Node 2, Type 0, BuildingBlock: NAHDIM_clean_sbu_0, # of connection points: 4
#     Node 3, Type 0, BuildingBlock: NAHDIM_clean_sbu_0, # of connection points: 4
#     Node 4, Type 0, BuildingBlock: NAHDIM_clean_sbu_0, # of connection points: 4
#     Node 5, Type 0, BuildingBlock: NAHDIM_clean_sbu_0, # of connection points: 4
#     Node 6, Type 0, BuildingBlock: NAHDIM_clean_sbu_0, # of connection points: 4
#     Node 7, Type 0, BuildingBlock: NAHDIM_clean_sbu_0, # of connection points: 4
#     Node 8, Type 0, BuildingBlock: NAHDIM_clean_sbu_0, # of connection points: 4
#     Edge 9, Type (0, 0), BuildingBlock: XUDNAN_clean_linker_2, # of connection points: 2
#     Edge 10, Type (0, 0), BuildingBlock: XUDNAN_clean_linker_2, # of connection points: 2
#     Edge 11, Type (0, 0), BuildingBlock: XUDNAN_clean_linker_2, # of connection points: 2
#     Edge 12, Type (0, 0), BuildingBlock: XUDNAN_clean_linker_2, # of connection points: 2
#     Edge 13, Type (0, 0), BuildingBlock: XUDNAN_clean_linker_2, # of connection points: 2
#     Edge 14, Type (0, 0), BuildingBlock: XUDNAN_clean_linker_2, # of connection points: 2
#     Edge 15, Type (0, 0), BuildingBlock: XUDNAN_clean_linker_2, # of connection points: 2
#     Edge 16, Type (0, 0), BuildingBlock: XUDNAN_clean_linker_2, # of connection points: 2
#     Edge 17, Type (0, 0), BuildingBlock: XUDNAN_clean_linker_2, # of connection points: 2
#     Edge 18, Type (0, 0), BuildingBlock: XUDNAN_clean_linker_2, # of connection points: 2
#     Edge 19, Type (0, 0), BuildingBlock: XUDNAN_clean_linker_2, # of connection points: 2
#     Edge 20, Type (0, 0), BuildingBlock: XUDNAN_clean_linker_2, # of connection points: 2
#     Edge 21, Type (0, 0), BuildingBlock: XUDNAN_clean_linker_2, # of connection points: 2
#     Edge 22, Type (0, 0), BuildingBlock: XUDNAN_clean_linker_2, # of connection points: 2
#     Edge 23, Type (0, 0), BuildingBlock: XUDNAN_clean_linker_2, # of connection points: 2
#     Edge 24, Type (0, 0), BuildingBlock: XUDNAN_clean_linker_2, # of connection points: 2
#     Edge 25, Type (0, 0), BuildingBlock: XUDNAN_clean_linker_2, # of connection points: 2
#     Edge 26, Type (0, 0), BuildingBlock: XUDNAN_clean_linker_2, # of connection points: 2
# Relax obj value: 0.264
# Max RMSD: 0.263
# Mean RMSD: 0.246
data_MOF--net-afw--node1-NAHDIM_clean_sbu_0--edge1-XUDNAN_clean_linker_2
_symmetry_space_group_name_H-M    P1
_symmetry_Int_Tables_number       1
_symmetry_cell_setting            triclinic
loop_
_symmetry_equiv_pos_as_xyz
'x, y, z'
_cell_length_a     39.441579
_cell_length_b     41.205232
_cell_length_c     35.027456
_cell_angle_alpha  92.68212
_cell_angle_beta   90.57634
_cell_angle_gamma 119.19158
loop_
_atom_site_label
_atom_site_type_symbol
_atom_site_fract_x
_atom_site_fract_y
_atom_site_fract_z
_atom_type_partial_charge
C0 C 0.99441 0.25646 0.923 0.0
O1 O 0.98665 0.26246 0.95817 0.0
O2 O 0.07342 0.21597 0.94877 0.0
Zn3 Zn 0.01985 0.20889 0.95766 0.0
O4 O 0.01552 0.22991 0.00937 0.0
C5 C 0.99424 0.13138 0.96329 0.0
O6 O 0.03145 0.14494 0.9714 0.0
O7 O 0.00737 0.23399 0.91641 0.0
C8 C 0.01264 0.21247 0.0392 0.0
O9 O 0.01585 0.1822 0.03645 0.0
C10 C 0.10093 0.22643 0.97369 0.0
O11 O 0.09653 0.23661 0.00855 0.0
O12 O 0.98179 0.15352 0.9549 0.0
C13 C 0.80099 0.74489 0.08086 0.0
O14 O 0.79933 0.72073 0.05401 0.0
O15 O 0.86873 0.78869 0.00323 0.0
Zn16 Zn 0.81986 0.78978 0.01712 0.0
O17 O 0.7742 0.75418 0.98313 0.0
C18 C 0.86119 0.86881 0.02365 0.0
O19 O 0.88553 0.86194 0.04292 0.0
O20 O 0.80941 0.77741 0.07191 0.0
C21 C 0.74002 0.74175 -0.00482 0.0
O22 O 0.73539 0.75158 0.03012 0.0
C23 C 0.88796 0.80682 0.97538 0.0
O24 O 0.87335 0.82263 0.95388 0.0
O25 O 0.82926 0.84167 0.01059 0.0
C26 C 0.28826 0.99432 0.95347 0.0
O27 O 0.28551 0.98723 0.98982 0.0
O28 O 0.17992 0.97686 0.96747 0.0
Zn29 Zn 0.23442 0.01991 0.97286 0.0
O30 O 0.25386 0.02737 0.02741 0.0
C31 C 0.24363 0.09446 0.97915 0.0
O32 O 0.25813 0.09567 0.01343 0.0
O33 O 0.26916 0.00883 0.93967 0.0
C34 C 0.23291 0.02342 0.05599 0.0
O35 O 0.19612 0.01374 0.05037 0.0
C36 C 0.17024 0.94523 0.98016 0.0
O37 O 0.19675 0.93992 -0.00266 0.0
O38 O 0.23311 0.06572 0.95674 0.0
C39 C 0.74537 0.62836 0.32702 0.0
O40 O 0.74789 0.64216 0.36216 0.0
O41 O 0.76474 0.54065 0.36073 0.0
Zn42 Zn 0.7274 0.5605 0.36398 0.0
O43 O 0.73059 0.58638 0.41495 0.0
C44 C 0.66621 0.4909 0.33202 0.0
O45 O 0.69299 0.49509 0.30767 0.0
O46 O 0.73674 0.59447 0.32135 0.0
C47 C 0.71419 0.56681 0.44302 0.0
O48 O 0.699 0.53046 0.43877 0.0
C49 C 0.80046 0.55963 0.35341 0.0
O50 O 0.81591 0.59567 0.35003 0.0
O51 O 0.67386 0.51643 0.35782 0.0
C52 C 0.3939 0.10958 0.41314 0.0
O53 O 0.36687 0.10624 0.38853 0.0
O54 O 0.49277 0.14985 0.34052 0.0
Zn55 Zn 0.44592 0.1539 0.35594 0.0
O56 O 0.40228 0.12791 0.3165 0.0
C57 C 0.48001 0.22668 0.33231 0.0
O58 O 0.48492 0.20891 0.30262 0.0
O59 O 0.42942 0.12993 0.40582 0.0
C60 C 0.40722 0.11757 0.2833 0.0
O61 O 0.44205 0.12395 0.27406 0.0
C62 C 0.52367 0.16851 0.36112 0.0
O63 O 0.52304 0.18829 0.39136 0.0
O64 O 0.46203 0.20832 0.36056 0.0
C65 C 0.94085 0.31986 0.35797 0.0
O66 O 0.95061 0.31542 0.32319 0.0
O67 O 0.86946 0.35155 0.30674 0.0
Zn68 Zn 0.87041 0.30463 0.3178 0.0
O69 O 0.88803 0.28397 0.27405 0.0
C70 C 0.79294 0.24199 0.30592 0.0
O71 O 0.80666 0.23742 0.27331 0.0
O72 O 0.9072 0.31594 0.36319 0.0
C73 C 0.903 0.29945 0.24347 0.0
O74 O 0.90604 0.33186 0.23683 0.0
C75 C 0.89856 0.38413 0.31068 0.0
O76 O 0.93307 0.38829 0.31894 0.0
O77 O 0.81548 0.26779 0.33011 0.0
C78 C 0.38569 0.94797 0.61218 0.0
O79 O 0.41873 0.96254 0.63212 0.0
O80 O 0.40936 0.8752 0.6499 0.0
Zn81 Zn 0.36523 0.88566 0.65864 0.0
O82 O 0.37091 0.91204 0.7096 0.0
C83 C 0.31291 0.8108 0.634 0.0
O84 O 0.34027 0.8182 0.60933 0.0
O85 O 0.35931 0.91517 0.61802 0.0
C86 C 0.37776 0.90053 0.74019 0.0
O87 O 0.38313 0.87145 0.73828 0.0
C88 C 0.44322 0.89288 0.66553 0.0
O89 O 0.45279 0.92289 0.68775 0.0
O90 O 0.3166 0.83625 0.65832 0.0
C91 C 0.06779 0.41011 0.70536 0.0
O92 O 0.07436 0.39303 0.67613 0.0
O93 O 0.16949 0.48201 0.67135 0.0
Zn94 Zn 0.11459 0.47192 0.66238 0.0
O95 O 0.09045 0.44229 0.61275 0.0
C96 C 0.14441 0.54207 0.63528 0.0
O97 O 0.15961 0.52623 0.61324 0.0
O98 O 0.08201 0.44521 0.70601 0.0
C99 C 0.10929 0.43582 0.58709 0.0
O100 O 0.14683 0.44894 0.59241 0.0
C101 C 0.18374 0.46031 0.67305 0.0
O102 O 0.16083 0.42412 0.66878 0.0
O103 O 0.12015 0.52277 0.65966 0.0
C104 C 0.58739 0.62531 0.65158 0.0
O105 O 0.56722 0.59627 0.67176 0.0
O106 O 0.49479 0.61501 0.69054 0.0
Zn107 Zn 0.54993 0.65773 0.69751 0.0
O108 O 0.57295 0.65775 0.74886 0.0
C109 C 0.53477 0.7126 0.66527 0.0
O110 O 0.51753 0.68624 0.63795 0.0
O111 O 0.5839 0.65418 0.65729 0.0
C112 C 0.55358 0.64801 0.77898 0.0
O113 O 0.51606 0.63624 0.77701 0.0
C114 C 0.46658 0.62009 0.69994 0.0
O115 O 0.4739 0.65292 0.71449 0.0
O116 O 0.55089 0.70676 0.69372 0.0
H117 H 0.23537 0.14352 0.02788 0.0
H118 H 0.22778 0.10913 0.90775 0.0
H119 H 0.20162 0.15068 0.89208 0.0
H120 H 0.14764 0.13887 0.0293 0.0
H121 H 0.16086 0.17818 0.06269 0.0
H122 H 0.18753 0.15323 0.06354 0.0
H123 H 0.25171 0.21443 0.05486 0.0
H124 H 0.22512 0.2397 0.05406 0.0
H125 H 0.25561 0.24213 0.01508 0.0
H126 H 0.16632 0.18669 0.89064 0.0
H127 H 0.12214 0.21197 0.90363 0.0
H128 H 0.15126 0.22218 0.02498 0.0
C129 C 0.22963 0.14584 -0.00188 0.0
C130 C 0.23399 0.12346 0.96895 0.0
C131 C 0.22489 0.12626 0.93048 0.0
C132 C 0.21024 0.14995 0.92131 0.0
C133 C 0.20495 0.17068 0.95093 0.0
C134 C 0.2145 0.16896 0.98859 0.0
C135 C 0.20071 0.18955 0.01558 0.0
C136 C 0.17251 0.16339 0.04444 0.0
C137 C 0.23536 0.22348 0.0361 0.0
C138 C 0.18012 0.20145 0.98741 0.0
C139 C 0.18376 0.19112 0.95019 0.0
C140 C 0.16396 0.19564 0.91956 0.0
C141 C 0.13882 0.20994 0.92724 0.0
C142 C 0.1334 0.21921 0.96531 0.0
C143 C 0.15541 0.21609 -0.00446 0.0
H144 H 0.93311 0.93014 0.03337 0.0
H145 H 0.81574 0.89393 0.99027 0.0
H146 H 0.83665 0.95744 0.9699 0.0
H147 H 0.95527 0.02277 0.06858 0.0
H148 H 0.00506 0.04356 0.05457 0.0
H149 H 0.98002 -0.00424 0.06719 0.0
H150 H -0.00376 0.97579 0.00203 0.0
H151 H 0.02068 0.02326 0.98848 0.0
H152 H 0.98152 0.98784 0.9584 0.0
H153 H 0.87112 0.02528 0.95366 0.0
H154 H 0.91633 0.09154 0.94293 0.0
H155 H 0.01081 0.08135 -0.005 0.0
C156 C 0.91162 0.93559 0.02009 0.0
C157 C 0.87273 0.90717 0.01362 0.0
C158 C 0.84568 0.91537 -0.00438 0.0
C159 C 0.85728 0.95132 0.98393 0.0
C160 C 0.89601 0.9786 0.99033 0.0
C161 C 0.92272 0.97112 0.00804 0.0
C162 C 0.96279 0.00492 0.01076 0.0
C163 C 0.97657 0.01749 0.05277 0.0
C164 C 0.99202 -0.0025 0.98856 0.0
C165 C 0.95457 0.03257 -0.00841 0.0
C166 C 0.91589 0.01707 0.98019 0.0
C167 C 0.9015 0.03769 0.9624 0.0
C168 C 0.92735 0.07524 0.95639 0.0
C169 C 0.9671 0.09153 0.96791 0.0
C170 C 0.98069 0.06969 0.98551 0.0
H171 H 0.94442 0.86411 0.93825 0.0
H172 H 0.92462 0.77215 0.00726 0.0
H173 H 0.99522 0.79402 0.01 0.0
H174 H 0.02871 0.86958 0.88567 0.0
H175 H 0.05272 0.91974 0.88755 0.0
H176 H 0.00039 0.89317 0.88558 0.0
H177 H -0.00146 0.92945 0.94718 0.0
H178 H 0.05072 0.95588 0.94965 0.0
H179 H 0.02499 0.93009 0.98975 0.0
H180 H 0.06834 0.82993 0.01126 0.0
H181 H 0.1379 0.87718 0.01157 0.0
H182 H 0.10932 0.94652 0.94346 0.0
C183 C 0.95474 0.84783 0.95287 0.0
C184 C 0.92902 0.81617 0.97217 0.0
C185 C 0.94384 0.79632 -0.00798 0.0
C186 C 0.98386 0.80849 -0.00634 0.0
C187 C 0.00859 0.84054 0.97532 0.0
C188 C 0.99455 0.85983 0.95514 0.0
C189 C 0.02732 0.89551 0.94135 0.0
C190 C 0.02728 0.89441 0.89742 0.0
C191 C 0.02527 0.92974 0.95799 0.0
C192 C 0.06199 0.89389 0.95791 0.0
C193 C 0.05067 0.86171 0.97687 0.0
C194 C 0.07757 0.855 -0.00393 0.0
C195 C 0.11701 0.88205 -0.00384 0.0
C196 C 0.12908 0.91555 0.97754 0.0
C197 C 0.1011 0.92115 0.95781 0.0
H198 H 0.82907 0.38353 0.312 0.0
H199 H 0.95361 0.45832 0.31341 0.0
H200 H 0.94235 0.51225 0.32219 0.0
H201 H 0.79933 0.44256 0.26309 0.0
H202 H 0.75732 0.42889 0.2918 0.0
H203 H 0.77546 0.39696 0.28184 0.0
H204 H 0.78102 0.3905 0.35457 0.0
H205 H 0.76337 0.42271 0.36476 0.0
H206 H 0.80936 0.43166 0.38547 0.0
H207 H 0.9169 0.55787 0.33393 0.0
H208 H 0.87964 0.59084 0.34777 0.0
H209 H 0.77261 0.48488 0.34125 0.0
C210 C 0.85404 0.41123 0.31338 0.0
C211 C 0.89225 0.41673 0.31173 0.0
C212 C 0.92407 0.45347 0.31439 0.0
C213 C 0.91796 0.48425 0.3194 0.0
C214 C 0.87988 0.47772 0.32181 0.0
C215 C 0.84849 0.44206 0.31878 0.0
C216 C 0.8106 0.44215 0.3245 0.0
C217 C 0.78413 0.42674 0.28814 0.0
C218 C 0.7899 0.42048 0.3594 0.0
C219 C 0.82551 0.48342 0.33168 0.0
C220 C 0.86547 0.50361 0.32967 0.0
C221 C 0.88559 0.54231 0.33548 0.0
C222 C 0.86423 0.56078 0.34339 0.0
C223 C 0.82329 0.54043 0.34583 0.0
C224 C 0.80391 0.50127 0.33991 0.0
H225 H 0.53479 0.27404 0.28541 0.0
H226 H 0.46838 0.27198 0.38421 0.0
H227 H 0.50406 0.34083 0.39013 0.0
H228 H 0.62331 0.34466 0.32249 0.0
H229 H 0.64058 0.3658 0.27775 0.0
H230 H 0.60609 0.31696 0.27798 0.0
H231 H 0.55914 0.32597 0.23292 0.0
H232 H 0.59359 0.37496 0.2325 0.0
H233 H 0.54451 0.35995 0.24645 0.0
H234 H 0.55107 0.40934 0.38874 0.0
H235 H 0.6073 0.47173 0.38204 0.0
H236 H 0.64359 0.42836 0.28486 0.0
C237 C 0.52704 0.28803 0.30777 0.0
C238 C 0.49858 0.26771 0.33417 0.0
C239 C 0.48997 0.28706 0.36356 0.0
C240 C 0.50996 0.32613 0.36704 0.0
C241 C 0.53839 0.34531 0.34089 0.0
C242 C 0.54691 0.32688 0.31183 0.0
C243 C 0.58116 0.35363 0.28969 0.0
C244 C 0.61476 0.34473 0.29216 0.0
C245 C 0.56885 0.35362 0.24791 0.0
C246 C 0.59128 0.38997 0.31145 0.0
C247 C 0.56593 0.38469 0.3405 0.0
C248 C 0.57081 0.41388 0.3658 0.0
C249 C 0.60287 0.44923 0.36176 0.0
C250 C 0.62982 0.45496 0.33285 0.0
C251 C 0.62334 0.425 0.30699 0.0
H252 H 0.5961 0.2126 0.39419 0.0
H253 H 0.53449 0.12836 0.30245 0.0
H254 H 0.59672 0.13383 0.28184 0.0
H255 H 0.67582 0.27043 0.34107 0.0
H256 H 0.7112 0.28413 0.38002 0.0
H257 H 0.66155 0.27083 0.38975 0.0
H258 H 0.65823 0.22073 0.43401 0.0
H259 H 0.70796 0.23387 0.42439 0.0
H260 H 0.67032 0.18617 0.41566 0.0
H261 H 0.66615 0.15208 0.26832 0.0
H262 H 0.73731 0.18251 0.26216 0.0
H263 H 0.75301 0.25457 0.36297 0.0
C264 C 0.59553 0.19482 0.37015 0.0
C265 C 0.56041 0.1699 0.35005 0.0
C266 C 0.56106 0.14756 0.31837 0.0
C267 C 0.59623 0.15039 0.30652 0.0
C268 C 0.63041 0.17559 0.32673 0.0
C269 C 0.63031 0.19737 0.3579 0.0
C270 C 0.67115 0.22401 0.37319 0.0
C271 C 0.68047 0.26475 0.37084 0.0
C272 C 0.67726 0.21568 0.41425 0.0
C273 C 0.69435 0.2143 0.34533 0.0
C274 C 0.67035 0.18611 0.31893 0.0
C275 C 0.68523 0.17387 0.2891 0.0
C276 C 0.72568 0.19135 0.28583 0.0
C277 C 0.75075 0.22078 0.31218 0.0
C278 C 0.73471 0.23182 0.34266 0.0
H279 H 0.43076 0.83058 0.62277 0.0
H280 H 0.51252 0.91595 0.7049 0.0
H281 H 0.54933 0.88185 0.70872 0.0
H282 H 0.4247 0.75558 0.66736 0.0
H283 H 0.42127 0.72821 0.62435 0.0
H284 H 0.40485 0.76192 0.62354 0.0
H285 H 0.45084 0.79422 0.56862 0.0
H286 H 0.46721 0.76032 0.56897 0.0
H287 H 0.50196 0.8093 0.57452 0.0
H288 H 0.57143 0.83407 0.71052 0.0
H289 H 0.57921 0.77801 0.70748 0.0
H290 H 0.48368 0.72473 0.62321 0.0
C291 C 0.45698 0.84268 0.64085 0.0
C292 C 0.46881 0.876 0.6635 0.0
C293 C 0.50302 0.8906 0.6871 0.0
C294 C 0.52411 0.87141 0.68948 0.0
C295 C 0.51083 0.83795 0.66773 0.0
C296 C 0.47833 0.82397 0.64348 0.0
C297 C 0.46833 0.78614 0.62536 0.0
C298 C 0.42738 0.75622 0.6358 0.0
C299 C 0.47234 0.7876 0.58178 0.0
C300 C 0.49954 0.78041 0.64417 0.0
C301 C 0.52395 0.81069 0.66832 0.0
C302 C 0.55302 0.81053 0.69112 0.0
C303 C 0.5571 0.77853 0.68933 0.0
C304 C 0.5323 0.74721 0.66483 0.0
C305 C 0.50358 0.74851 0.64163 0.0
H306 H 0.30436 0.7478 0.59588 0.0
H307 H 0.24741 0.78754 0.67578 0.0
H308 H 0.19437 0.72292 0.68077 0.0
H309 H 0.21683 0.67294 0.54728 0.0
H310 H 0.23704 0.64205 0.54333 0.0
H311 H 0.26854 0.69169 0.54359 0.0
H312 H 0.30892 0.68864 0.60091 0.0
H313 H 0.27762 0.63906 0.60073 0.0
H314 H 0.28468 0.66775 0.64372 0.0
H315 H 0.15015 0.6533 0.68056 0.0
H316 H 0.11911 0.58451 0.6758 0.0
H317 H 0.20555 0.59157 0.59586 0.0
C318 C 0.28041 0.74306 0.61392 0.0
C319 C 0.27984 0.77269 0.63523 0.0
C320 C 0.24833 0.76521 0.65907 0.0
C321 C 0.21805 0.72865 0.66202 0.0
C322 C 0.21978 0.69999 0.64094 0.0
C323 C 0.25018 0.70684 0.61735 0.0
C324 C 0.24666 0.67111 0.59967 0.0
C325 C 0.24197 0.66936 0.55587 0.0
C326 C 0.28152 0.66638 0.61201 0.0
C327 C 0.20966 0.64302 0.6172 0.0
C328 C 0.19443 0.66012 0.64081 0.0
C329 C 0.16153 0.6396 0.66178 0.0
C330 C 0.14411 0.60059 0.65891 0.0
C331 C 0.15973 0.58269 0.63527 0.0
C332 C 0.19253 0.60433 0.61377 0.0
H333 H 0.23708 0.53342 0.68859 0.0
H334 H 0.22698 0.42435 0.66715 0.0
H335 H 0.29872 0.45315 0.67169 0.0
H336 H 0.32084 0.58411 0.63454 0.0
H337 H 0.34157 0.6245 0.66755 0.0
H338 H 0.28967 0.59505 0.66326 0.0
H339 H 0.28746 0.58593 0.7361 0.0
H340 H 0.33936 0.61549 0.74068 0.0
H341 H 0.31731 0.56901 0.75724 0.0
H342 H 0.37222 0.49497 0.67648 0.0
H343 H 0.44057 0.5455 0.68419 0.0
H344 H 0.40077 0.62606 0.70369 0.0
C345 C 0.2498 0.51542 0.68497 0.0
C346 C 0.2264 0.47659 0.67746 0.0
C347 C 0.24434 0.45416 0.67302 0.0
C348 C 0.28504 0.47028 0.67545 0.0
C349 C 0.30721 0.50877 0.68253 0.0
C350 C 0.29011 0.53095 0.68746 0.0
C351 C 0.32012 0.57152 0.69483 0.0
C352 C 0.31791 0.59517 0.66316 0.0
C353 C 0.3158 0.58634 0.73458 0.0
C354 C 0.35695 0.56884 0.69318 0.0
C355 C 0.34904 0.53251 0.68588 0.0
C356 C 0.3787 0.52348 0.68241 0.0
C357 C 0.4174 0.55234 0.68675 0.0
C358 C 0.42597 0.58966 0.69474 0.0
C359 C 0.39521 0.59779 0.69792 0.0
H360 H 0.00594 0.24884 0.84711 0.0
H361 H 0.98201 0.31643 0.9295 0.0
H362 H 0.99045 0.35995 0.87966 0.0
H363 H 0.08052 0.32048 0.8046 0.0
H364 H 0.06883 0.29954 0.75656 0.0
H365 H 0.05445 0.2705 0.79657 0.0
H366 H 0.98267 0.23788 0.77149 0.0
H367 H -0.00311 0.26667 0.73108 0.0
H368 H 0.95989 0.26551 0.76168 0.0
H369 H 0.01165 0.4009 0.82398 0.0
H370 H 0.04077 0.43433 0.76597 0.0
H371 H 0.04928 0.33902 0.71999 0.0
C372 C 0.00144 0.27225 0.85448 0.0
C373 C 0.99334 0.27926 0.89218 0.0
C374 C 0.98804 0.3104 0.90074 0.0
C375 C 0.99274 0.33526 0.8726 0.0
C376 C 0.00213 0.32823 0.83601 0.0
C377 C 0.00584 0.29715 0.82677 0.0
C378 C 0.01925 0.29748 0.78643 0.0
C379 C 0.05806 0.29699 0.78605 0.0
C380 C 0.98779 0.26495 0.76118 0.0
C381 C 0.02418 0.33439 0.77496 0.0
C382 C 0.01376 0.35157 0.80373 0.0
C383 C 0.01909 0.38738 0.80092 0.0
C384 C 0.03581 0.40621 0.76797 0.0
C385 C 0.04702 0.38916 0.7384 0.0
C386 C 0.04041 0.35256 0.7418 0.0
H387 H 0.73962 0.72612 0.91833 0.0
H388 H 0.66325 0.70761 0.01299 0.0
H389 H 0.60622 0.67537 0.96827 0.0
H390 H 0.68831 0.74858 0.85402 0.0
H391 H 0.69651 0.72616 0.81249 0.0
H392 H 0.73093 0.74309 0.85242 0.0
H393 H 0.72351 0.67737 0.85736 0.0
H394 H 0.6891 0.66022 0.81725 0.0
H395 H 0.67587 0.63791 0.86193 0.0
H396 H 0.55797 0.65073 0.9125 0.0
H397 H 0.5225 0.63645 0.85005 0.0
H398 H 0.63084 0.67179 0.79227 0.0
C399 C 0.7109 0.71457 0.92982 0.0
C400 C 0.70587 0.71925 0.96916 0.0
C401 C 0.6678 0.70427 0.98295 0.0
C402 C 0.63522 0.6858 0.9578 0.0
C403 C 0.64125 0.6824 0.91903 0.0
C404 C 0.67816 0.69623 0.90515 0.0
C405 C 0.67695 0.69165 0.86198 0.0
C406 C 0.69949 0.72962 0.8442 0.0
C407 C 0.69226 0.6652 0.84887 0.0
C408 C 0.6337 0.67419 0.85365 0.0
C409 C 0.61351 0.66855 0.88691 0.0
C410 C 0.57341 0.65457 0.88626 0.0
C411 C 0.55353 0.64659 0.85066 0.0
C412 C 0.57388 0.65297 0.81628 0.0
C413 C 0.61438 0.66638 0.818 0.0
H414 H 0.35433 0.95225 0.75328 0.0
H415 H 0.39407 0.88548 0.81146 0.0
H416 H 0.38232 0.90826 0.87377 0.0
H417 H 0.39144 0.03145 0.82623 0.0
H418 H 0.3493 0.03709 0.81936 0.0
H419 H 0.36657 0.02007 0.78002 0.0
H420 H 0.29842 0.96172 0.77046 0.0
H421 H 0.28102 0.97836 0.80982 0.0
H422 H 0.27696 0.93285 0.81006 0.0
H423 H 0.35946 0.93291 0.92897 0.0
H424 H 0.32657 0.9566 0.97248 0.0
H425 H 0.3007 0.00594 0.87741 0.0
C426 C 0.36153 0.9431 0.77911 0.0
C427 C 0.37528 0.91722 0.77756 0.0
C428 C 0.38363 0.90542 0.81201 0.0
C429 C 0.37718 0.91829 0.84752 0.0
C430 C 0.36255 0.94302 0.84796 0.0
C431 C 0.35502 0.95543 0.81462 0.0
C432 C 0.336 0.97915 0.82248 0.0
C433 C 0.36242 0.01932 0.81137 0.0
C434 C 0.29572 0.96197 0.802 0.0
C435 C 0.33277 0.97714 0.86534 0.0
C436 C 0.34881 0.95672 0.87963 0.0
C437 C 0.34729 0.94937 0.91818 0.0
C438 C 0.32846 0.96287 0.94265 0.0
C439 C 0.31107 0.98312 0.92833 0.0
C440 C 0.31389 0.99075 0.88928 0.0
H441 H 0.40917 0.09752 0.2081 0.0
H442 H 0.33091 0.09729 0.29454 0.0
H443 H 0.27646 0.06944 0.24655 0.0
H444 H 0.36953 0.12368 0.13275 0.0
H445 H 0.37583 0.09483 0.09641 0.0
H446 H 0.4079 0.1122 0.13821 0.0
H447 H 0.39047 0.04476 0.15262 0.0
H448 H 0.35831 0.02717 0.1108 0.0
H449 H 0.34024 0.01016 0.15691 0.0
H450 H 0.2312 0.0444 0.18814 0.0
H451 H 0.19917 0.02526 0.12369 0.0
H452 H 0.30761 0.04241 0.07625 0.0
C453 C 0.38052 0.09126 0.21711 0.0
C454 C 0.37428 0.09952 0.25507 0.0
C455 C 0.33638 0.09118 0.26558 0.0
C456 C 0.30524 0.07527 0.23857 0.0
C457 C 0.3125 0.0678 0.20127 0.0
C458 C 0.3492 0.07549 0.19056 0.0
C459 C 0.34972 0.06636 0.14834 0.0
C460 C 0.37737 0.10135 0.12773 0.0
C461 C 0.3603 0.03526 0.1418 0.0
C462 C 0.30773 0.05294 0.13682 0.0
C463 C 0.28659 0.05364 0.16774 0.0
C464 C 0.24739 0.04348 0.16375 0.0
C465 C 0.22946 0.03266 0.12706 0.0
C466 C 0.25087 0.03235 0.09497 0.0
C467 C 0.29038 0.04226 0.10019 0.0
H468 H -0.00262 0.27018 0.05326 0.0
H469 H 0.00104 0.17893 0.10692 0.0
H470 H 0.97504 0.19265 0.16544 0.0
H471 H 0.02401 0.33268 0.14008 0.0
H472 H 0.9918 0.35015 0.12711 0.0
H473 H 0.01343 0.3349 0.09038 0.0
H474 H 0.94492 0.28936 0.06079 0.0
H475 H 0.92304 0.30412 0.09763 0.0
H476 H 0.90885 0.25551 0.0901 0.0
H477 H 0.94394 0.21255 0.21573 0.0
H478 H 0.91373 0.2404 0.25712 0.0
H479 H 0.93098 0.31968 0.17167 0.0
C480 C 0.99335 0.25348 0.07754 0.0
C481 C 0.00125 0.22346 0.07552 0.0
C482 C 0.99526 0.20209 0.1078 0.0
C483 C 0.98046 0.20962 0.14117 0.0
C484 C 0.97206 0.23877 0.14186 0.0
C485 C 0.97867 0.26067 0.11114 0.0
C486 C 0.96601 0.28958 0.11902 0.0
C487 C 0.0009 0.32917 0.11916 0.0
C488 C 0.93379 0.28431 0.09017 0.0
C489 C 0.95061 0.28003 0.15873 0.0
C490 C 0.95443 0.25063 0.17128 0.0
C491 C 0.94114 0.23584 0.20643 0.0
C492 C 0.92381 0.25177 0.22963 0.0
C493 C 0.92003 0.28229 0.21767 0.0
C494 C 0.93364 0.29653 0.18169 0.0
H495 H 0.74569 0.60877 0.25134 0.0
H496 H 0.76381 0.70179 0.3287 0.0
H497 H 0.77891 0.7417 0.27389 0.0
H498 H 0.82269 0.66078 0.18996 0.0
H499 H 0.7964 0.63413 0.147 0.0
H500 H 0.78581 0.61271 0.19217 0.0
H501 H 0.7133 0.59444 0.18232 0.0
H502 H 0.72365 0.61575 0.13706 0.0
H503 H 0.70062 0.62998 0.17325 0.0
H504 H 0.79311 0.77161 0.21058 0.0
H505 H 0.80564 0.78935 0.14367 0.0
H506 H 0.77853 0.67654 0.10846 0.0
C507 C 0.75263 0.63748 0.25683 0.0
C508 C 0.75352 0.65216 0.29431 0.0
C509 C 0.76291 0.68993 0.30022 0.0
C510 C 0.77151 0.7128 0.26928 0.0
C511 C 0.77054 0.69744 0.23272 0.0
C512 C 0.76131 0.66064 0.22639 0.0
C513 C 0.76292 0.65103 0.18449 0.0
C514 C 0.7938 0.63896 0.17805 0.0
C515 C 0.72273 0.62103 0.16834 0.0
C516 C 0.7748 0.68827 0.16821 0.0
C517 C 0.77891 0.71465 0.19643 0.0
C518 C 0.78992 0.75117 0.18823 0.0
C519 C 0.79697 0.76096 0.15016 0.0
C520 C 0.7931 0.73434 0.12085 0.0
C521 C 0.78179 0.69755 0.13017 0.0
H522 H 0.03323 0.41004 0.56479 0.0
H523 H 0.14005 0.41436 0.52775 0.0
H524 H 0.10701 0.38124 0.46652 0.0
H525 H 0.96644 0.31827 0.52002 0.0
H526 H 0.93079 0.33158 0.50697 0.0
H527 H 0.96211 0.35335 0.54891 0.0
H528 H 0.9849 0.41833 0.52266 0.0
H529 H 0.9537 0.39679 0.4807 0.0
H530 H 0.00492 0.42767 0.47583 0.0
H531 H 0.0636 0.35093 0.40824 0.0
H532 H 0.01308 0.32622 0.35641 0.0
H533 H 0.93462 0.34179 0.43159 0.0
C534 C 0.04962 0.40368 0.54401 0.0
C535 C 0.08922 0.41471 0.55107 0.0
C536 C 0.10968 0.40615 0.52298 0.0
C537 C 0.09115 0.38726 0.48816 0.0
C538 C 0.05218 0.37709 0.48201 0.0
C539 C 0.03163 0.38495 0.50915 0.0
C540 C 0.99055 0.37252 0.49476 0.0
C541 C 0.96072 0.34212 0.51911 0.0
C542 C 0.98311 0.40581 0.4934 0.0
C543 C 0.99141 0.357 0.45501 0.0
C544 C 0.02713 0.35964 0.44834 0.0
C545 C 0.0354 0.34842 0.4132 0.0
C546 C 0.00652 0.33448 0.38394 0.0
C547 C 0.96987 0.33199 0.38998 0.0
C548 C 0.9622 0.34302 0.42618 0.0
H549 H 0.66953 0.53138 0.503 0.0
H550 H 0.74016 0.64095 0.46007 0.0
H551 H 0.71932 0.66856 0.51246 0.0
H552 H 0.59055 0.54237 0.52485 0.0
H553 H 0.57877 0.51711 0.56777 0.0
H554 H 0.6034 0.5064 0.53048 0.0
H555 H 0.65915 0.51826 0.57859 0.0
H556 H 0.63445 0.5286 0.61625 0.0
H557 H 0.68386 0.56196 0.60647 0.0
H558 H 0.68473 0.6831 0.56414 0.0
H559 H 0.64137 0.68414 0.61385 0.0
H560 H 0.59346 0.56514 0.62346 0.0
C561 C 0.68146 0.56131 0.50516 0.0
C562 C 0.70657 0.58402 0.47749 0.0
C563 C 0.72101 0.62301 0.48102 0.0
C564 C 0.70935 0.63896 0.51069 0.0
C565 C 0.68351 0.6156 0.53672 0.0
C566 C 0.67009 0.57767 0.53455 0.0
C567 C 0.64039 0.55842 0.56446 0.0
C568 C 0.60096 0.52938 0.54576 0.0
C569 C 0.65537 0.54078 0.59315 0.0
C570 C 0.63831 0.59129 0.58299 0.0
C571 C 0.66363 0.62405 0.56676 0.0
C572 C 0.66524 0.65774 0.5775 0.0
C573 C 0.64032 0.65799 0.60561 0.0
C574 C 0.61413 0.62473 0.62264 0.0
C575 C 0.61345 0.59107 0.6113 0.0
H576 H 0.43885 0.01372 0.58329 0.0
H577 H 0.31627 0.93123 0.57739 0.0
H578 H 0.30405 0.96722 0.53012 0.0
H579 H 0.42686 0.09546 0.57182 0.0
H580 H 0.46847 0.11749 0.54238 0.0
H581 H 0.46719 0.08691 0.57816 0.0
H582 H 0.47906 0.04681 0.52642 0.0
H583 H 0.4806 0.07736 0.49061 0.0
H584 H 0.44691 0.02814 0.4846 0.0
H585 H 0.30552 0.01044 0.48147 0.0
H586 H 0.32144 0.05554 0.43156 0.0
H587 H 0.44315 0.10916 0.46851 0.0
C588 C 0.40938 0.00345 0.57238 0.0
C589 C 0.3785 0.96978 0.58412 0.0
C590 C 0.34041 0.95697 0.56877 0.0
C591 C 0.33311 0.97731 0.54209 0.0
C592 C 0.3642 0.01035 0.53104 0.0
C593 C 0.40161 0.02325 0.54552 0.0
C594 C 0.43026 0.05825 0.527 0.0
C595 C 0.44931 0.09149 0.55661 0.0
C596 C 0.461 0.05226 0.5059 0.0
C597 C 0.40321 0.06255 0.49933 0.0
C598 C 0.36515 0.03497 0.50249 0.0
C599 C 0.33518 0.03235 0.47888 0.0
C600 C 0.3445 0.05813 0.45066 0.0
C601 C 0.38352 0.08587 0.44612 0.0
C602 C 0.41301 0.08843 0.47136 0.0
loop_
_geom_bond_atom_site_label_1
_geom_bond_atom_site_label_2
_geom_bond_distance
_geom_bond_site_symmetry_2
_ccdc_geom_bond_type
C0 O1 1.160 . S
C0 O7 1.185 . S
O1 C0 1.160 . S
O2 Zn3 1.900 . S
O2 C10 1.289 . S
Zn3 O2 1.900 . S
Zn3 O4 2.032 . S
Zn3 O7 2.086 1_554 S
Zn3 O12 1.977 1_454 S
O4 Zn3 2.032 . S
O4 C8 1.278 . S
C5 O6 1.203 . S
C5 O12 1.267 1_554 S
O6 C5 1.203 . S
O7 C0 1.185 . S
O7 Zn3 2.086 1_556 S
C8 O4 1.278 . S
C8 O9 1.211 1_455 S
O9 C8 1.211 1_655 S
C10 O2 1.289 . S
C10 O11 1.273 . S
O11 C10 1.273 . S
O12 Zn3 1.977 1_656 S
O12 C5 1.267 1_556 S
C13 O14 1.160 . S
C13 O20 1.185 . S
O14 C13 1.160 . S
O15 Zn16 1.899 . S
O15 C23 1.284 1_554 S
Zn16 O15 1.899 . S
Zn16 O17 2.032 1_554 S
Zn16 O20 2.086 . S
Zn16 O25 1.977 . S
O17 Zn16 2.032 1_556 S
O17 C21 1.278 . S
C18 O19 1.203 1_554 S
C18 O25 1.267 . S
O19 C18 1.203 1_556 S
O20 C13 1.185 . S
O20 Zn16 2.086 . S
C21 O17 1.278 . S
C21 O22 1.211 . S
O22 C21 1.211 . S
C23 O15 1.284 1_556 S
C23 O24 1.273 . S
O24 C23 1.273 . S
O25 Zn16 1.977 . S
O25 C18 1.267 . S
C26 O27 1.160 . S
C26 O33 1.185 1_565 S
O27 C26 1.160 . S
O28 Zn29 1.899 1_565 S
O28 C36 1.284 1_556 S
Zn29 O28 1.899 1_545 S
Zn29 O30 2.032 1_556 S
Zn29 O33 2.086 . S
Zn29 O38 1.977 . S
O30 Zn29 2.032 1_554 S
O30 C34 1.278 . S
C31 O32 1.203 . S
C31 O38 1.267 1_554 S
O32 C31 1.203 . S
O33 C26 1.185 1_545 S
O33 Zn29 2.086 . S
C34 O30 1.278 . S
C34 O35 1.211 . S
O35 C34 1.211 . S
C36 O28 1.284 1_554 S
C36 O37 1.273 . S
O37 C36 1.273 . S
O38 Zn29 1.977 . S
O38 C31 1.267 1_556 S
C39 O40 1.160 . S
C39 O46 1.185 . S
O40 C39 1.160 . S
O41 Zn42 1.899 . S
O41 C49 1.284 . S
Zn42 O41 1.899 . S
Zn42 O43 2.032 . S
Zn42 O46 2.086 . S
Zn42 O51 1.977 . S
O43 Zn42 2.032 . S
O43 C47 1.278 . S
C44 O45 1.203 . S
C44 O51 1.267 . S
O45 C44 1.203 . S
O46 C39 1.185 . S
O46 Zn42 2.086 . S
C47 O43 1.278 . S
C47 O48 1.211 . S
O48 C47 1.211 . S
C49 O41 1.284 . S
C49 O50 1.273 . S
O50 C49 1.273 . S
O51 Zn42 1.977 . S
O51 C44 1.267 . S
C52 O53 1.160 . S
C52 O59 1.185 . S
O53 C52 1.160 . S
O54 Zn55 1.899 . S
O54 C62 1.284 . S
Zn55 O54 1.899 . S
Zn55 O56 2.032 . S
Zn55 O59 2.086 . S
Zn55 O64 1.977 . S
O56 Zn55 2.032 . S
O56 C60 1.278 . S
C57 O58 1.203 . S
C57 O64 1.267 . S
O58 C57 1.203 . S
O59 C52 1.185 . S
O59 Zn55 2.086 . S
C60 O56 1.278 . S
C60 O61 1.211 . S
O61 C60 1.211 . S
C62 O54 1.284 . S
C62 O63 1.273 . S
O63 C62 1.273 . S
O64 Zn55 1.977 . S
O64 C57 1.267 . S
C65 O66 1.160 . S
C65 O72 1.185 . S
O66 C65 1.160 . S
O67 Zn68 1.899 . S
O67 C75 1.284 . S
Zn68 O67 1.899 . S
Zn68 O69 2.032 . S
Zn68 O72 2.086 . S
Zn68 O77 1.977 . S
O69 Zn68 2.032 . S
O69 C73 1.278 . S
C70 O71 1.203 . S
C70 O77 1.267 . S
O71 C70 1.203 . S
O72 C65 1.185 . S
O72 Zn68 2.086 . S
C73 O69 1.278 . S
C73 O74 1.211 . S
O74 C73 1.211 . S
C75 O67 1.284 . S
C75 O76 1.273 . S
O76 C75 1.273 . S
O77 Zn68 1.977 . S
O77 C70 1.267 . S
C78 O79 1.160 . S
C78 O85 1.185 . S
O79 C78 1.160 . S
O80 Zn81 1.899 . S
O80 C88 1.284 . S
Zn81 O80 1.899 . S
Zn81 O82 2.032 . S
Zn81 O85 2.086 . S
Zn81 O90 1.977 . S
O82 Zn81 2.032 . S
O82 C86 1.278 . S
C83 O84 1.203 . S
C83 O90 1.267 . S
O84 C83 1.203 . S
O85 C78 1.185 . S
O85 Zn81 2.086 . S
C86 O82 1.278 . S
C86 O87 1.211 . S
O87 C86 1.211 . S
C88 O80 1.284 . S
C88 O89 1.273 . S
O89 C88 1.273 . S
O90 Zn81 1.977 . S
O90 C83 1.267 . S
C91 O92 1.160 . S
C91 O98 1.185 . S
O92 C91 1.160 . S
O93 Zn94 1.899 . S
O93 C101 1.284 . S
Zn94 O93 1.899 . S
Zn94 O95 2.032 . S
Zn94 O98 2.086 . S
Zn94 O103 1.977 . S
O95 Zn94 2.032 . S
O95 C99 1.278 . S
C96 O97 1.203 . S
C96 O103 1.267 . S
O97 C96 1.203 . S
O98 C91 1.185 . S
O98 Zn94 2.086 . S
C99 O95 1.278 . S
C99 O100 1.211 . S
O100 C99 1.211 . S
C101 O93 1.284 . S
C101 O102 1.273 . S
O102 C101 1.273 . S
O103 Zn94 1.977 . S
O103 C96 1.267 . S
C104 O105 1.160 . S
C104 O111 1.185 . S
O105 C104 1.160 . S
O106 Zn107 1.899 . S
O106 C114 1.284 . S
Zn107 O106 1.899 . S
Zn107 O108 2.032 . S
Zn107 O111 2.086 . S
Zn107 O116 1.977 . S
O108 Zn107 2.032 . S
O108 C112 1.278 . S
C109 O110 1.203 . S
C109 O116 1.267 . S
O110 C109 1.203 . S
O111 C104 1.185 . S
O111 Zn107 2.086 . S
C112 O108 1.278 . S
C112 O113 1.211 . S
O113 C112 1.211 . S
C114 O106 1.284 . S
C114 O115 1.273 . S
O115 C114 1.273 . S
O116 Zn107 1.977 . S
O116 C109 1.267 . S
H117 C129 0.930 . S
H118 C131 0.930 . S
H119 C132 0.930 . S
H120 C136 0.959 . S
H121 C136 0.959 . S
H122 C136 0.961 . S
H123 C137 0.960 . S
H124 C137 0.961 . S
H125 C137 0.959 . S
H126 C140 0.929 . S
H127 C141 0.931 1_556 S
H128 C143 0.930 . S
C129 H117 0.930 . S
C129 C130 1.399 1_554 S
C129 C134 1.399 . S
C130 C129 1.399 1_556 S
C130 C131 1.376 . S
C131 H118 0.930 . S
C131 C130 1.376 . S
C131 C132 1.388 . S
C132 H119 0.930 . S
C132 C131 1.388 . S
C132 C133 1.390 1_556 S
C133 C132 1.390 1_554 S
C133 C134 1.394 . S
C133 C139 1.465 . S
C134 C129 1.399 . S
C134 C133 1.394 . S
C134 C135 1.516 . S
C135 C134 1.516 . S
C135 C136 1.502 . S
C135 C137 1.561 . S
C135 C138 1.526 . S
C136 H120 0.959 . S
C136 H121 0.959 . S
C136 H122 0.961 . S
C136 C135 1.502 . S
C137 H123 0.960 . S
C137 H124 0.961 . S
C137 H125 0.959 . S
C137 C135 1.561 . S
C138 C135 1.526 . S
C138 C139 1.396 . S
C138 C143 1.390 . S
C139 C133 1.465 . S
C139 C138 1.396 . S
C139 C140 1.399 1_554 S
C140 H126 0.929 . S
C140 C139 1.399 1_556 S
C140 C141 1.385 1_556 S
C141 H127 0.931 1_554 S
C141 C140 1.385 1_554 S
C141 C142 1.389 . S
C142 C141 1.389 . S
C142 C143 1.387 . S
C143 H128 0.930 . S
C143 C138 1.390 . S
C143 C142 1.387 . S
H144 C156 0.930 . S
H145 C158 0.930 . S
H146 C159 0.930 . S
H147 C163 0.959 . S
H148 C163 0.959 . S
H149 C163 0.961 . S
H150 C164 0.960 . S
H151 C164 0.961 . S
H152 C164 0.959 . S
H153 C167 0.929 . S
H154 C168 0.931 . S
H155 C170 0.930 . S
C156 H144 0.930 . S
C156 C157 1.399 . S
C156 C161 1.399 . S
C157 C156 1.399 . S
C157 C158 1.376 1_554 S
C158 H145 0.930 . S
C158 C157 1.376 1_556 S
C158 C159 1.388 . S
C159 H146 0.930 . S
C159 C158 1.388 . S
C159 C160 1.390 . S
C160 C159 1.390 . S
C160 C161 1.394 1_556 S
C160 C166 1.465 1_565 S
C161 C156 1.399 . S
C161 C160 1.394 1_554 S
C161 C162 1.516 1_565 S
C162 C161 1.516 1_545 S
C162 C163 1.502 . S
C162 C164 1.561 . S
C162 C165 1.526 . S
C163 H147 0.959 . S
C163 H148 0.959 . S
C163 H149 0.961 . S
C163 C162 1.502 . S
C164 H150 0.960 . S
C164 H151 0.961 . S
C164 H152 0.959 . S
C164 C162 1.561 . S
C165 C162 1.526 . S
C165 C166 1.396 1_554 S
C165 C170 1.390 . S
C166 C160 1.465 1_545 S
C166 C165 1.396 1_556 S
C166 C167 1.399 . S
C167 H153 0.929 . S
C167 C166 1.399 . S
C167 C168 1.385 . S
C168 H154 0.931 . S
C168 C167 1.385 . S
C168 C169 1.389 . S
C169 C168 1.389 . S
C169 C170 1.387 1_556 S
C170 H155 0.930 . S
C170 C165 1.390 . S
C170 C169 1.387 1_554 S
H171 C183 0.930 . S
H172 C185 0.930 . S
H173 C186 0.930 . S
H174 C190 0.959 . S
H175 C190 0.959 . S
H176 C190 0.961 . S
H177 C191 0.960 . S
H178 C191 0.961 . S
H179 C191 0.959 . S
H180 C194 0.929 . S
H181 C195 0.931 . S
H182 C197 0.930 . S
C183 H171 0.930 . S
C183 C184 1.399 . S
C183 C188 1.399 . S
C184 C183 1.399 . S
C184 C185 1.376 1_556 S
C185 H172 0.930 . S
C185 C184 1.376 1_554 S
C185 C186 1.388 . S
C186 H173 0.930 . S
C186 C185 1.388 . S
C186 C187 1.390 1_655 S
C187 C186 1.390 1_455 S
C187 C188 1.394 1_454 S
C187 C193 1.465 . S
C188 C183 1.399 . S
C188 C187 1.394 1_656 S
C188 C189 1.516 1_655 S
C189 C188 1.516 1_455 S
C189 C190 1.502 . S
C189 C191 1.561 . S
C189 C192 1.526 . S
C190 H174 0.959 . S
C190 H175 0.959 . S
C190 H176 0.961 . S
C190 C189 1.502 . S
C191 H177 0.960 . S
C191 H178 0.961 . S
C191 H179 0.959 . S
C191 C189 1.561 . S
C192 C189 1.526 . S
C192 C193 1.396 1_556 S
C192 C197 1.390 . S
C193 C187 1.465 . S
C193 C192 1.396 1_554 S
C193 C194 1.399 . S
C194 H180 0.929 . S
C194 C193 1.399 . S
C194 C195 1.385 . S
C195 H181 0.931 . S
C195 C194 1.385 . S
C195 C196 1.389 . S
C196 C195 1.389 . S
C196 C197 1.387 1_554 S
C197 H182 0.930 . S
C197 C192 1.390 . S
C197 C196 1.387 1_556 S
H198 C210 0.930 . S
H199 C212 0.930 . S
H200 C213 0.930 . S
H201 C217 0.959 . S
H202 C217 0.959 . S
H203 C217 0.961 . S
H204 C218 0.960 . S
H205 C218 0.961 . S
H206 C218 0.959 . S
H207 C221 0.929 . S
H208 C222 0.931 . S
H209 C224 0.930 . S
C210 H198 0.930 . S
C210 C211 1.399 . S
C210 C215 1.399 . S
C211 C210 1.399 . S
C211 C212 1.376 . S
C212 H199 0.930 . S
C212 C211 1.376 . S
C212 C213 1.388 . S
C213 H200 0.930 . S
C213 C212 1.388 . S
C213 C214 1.390 . S
C214 C213 1.390 . S
C214 C215 1.394 . S
C214 C220 1.465 . S
C215 C210 1.399 . S
C215 C214 1.394 . S
C215 C216 1.516 . S
C216 C215 1.516 . S
C216 C217 1.502 . S
C216 C218 1.561 . S
C216 C219 1.526 . S
C217 H201 0.959 . S
C217 H202 0.959 . S
C217 H203 0.961 . S
C217 C216 1.502 . S
C218 H204 0.960 . S
C218 H205 0.961 . S
C218 H206 0.959 . S
C218 C216 1.561 . S
C219 C216 1.526 . S
C219 C220 1.396 . S
C219 C224 1.390 . S
C220 C214 1.465 . S
C220 C219 1.396 . S
C220 C221 1.399 . S
C221 H207 0.929 . S
C221 C220 1.399 . S
C221 C222 1.385 . S
C222 H208 0.931 . S
C222 C221 1.385 . S
C222 C223 1.389 . S
C223 C222 1.389 . S
C223 C224 1.387 . S
C224 H209 0.930 . S
C224 C219 1.390 . S
C224 C223 1.387 . S
H225 C237 0.930 . S
H226 C239 0.930 . S
H227 C240 0.930 . S
H228 C244 0.959 . S
H229 C244 0.959 . S
H230 C244 0.961 . S
H231 C245 0.960 . S
H232 C245 0.961 . S
H233 C245 0.959 . S
H234 C248 0.929 . S
H235 C249 0.931 . S
H236 C251 0.930 . S
C237 H225 0.930 . S
C237 C238 1.399 . S
C237 C242 1.399 . S
C238 C237 1.399 . S
C238 C239 1.376 . S
C239 H226 0.930 . S
C239 C238 1.376 . S
C239 C240 1.388 . S
C240 H227 0.930 . S
C240 C239 1.388 . S
C240 C241 1.390 . S
C241 C240 1.390 . S
C241 C242 1.394 . S
C241 C247 1.465 . S
C242 C237 1.399 . S
C242 C241 1.394 . S
C242 C243 1.516 . S
C243 C242 1.516 . S
C243 C244 1.502 . S
C243 C245 1.561 . S
C243 C246 1.526 . S
C244 H228 0.959 . S
C244 H229 0.959 . S
C244 H230 0.961 . S
C244 C243 1.502 . S
C245 H231 0.960 . S
C245 H232 0.961 . S
C245 H233 0.959 . S
C245 C243 1.561 . S
C246 C243 1.526 . S
C246 C247 1.396 . S
C246 C251 1.390 . S
C247 C241 1.465 . S
C247 C246 1.396 . S
C247 C248 1.399 . S
C248 H234 0.929 . S
C248 C247 1.399 . S
C248 C249 1.385 . S
C249 H235 0.931 . S
C249 C248 1.385 . S
C249 C250 1.389 . S
C250 C249 1.389 . S
C250 C251 1.387 . S
C251 H236 0.930 . S
C251 C246 1.390 . S
C251 C250 1.387 . S
H252 C264 0.930 . S
H253 C266 0.930 . S
H254 C267 0.930 . S
H255 C271 0.959 . S
H256 C271 0.959 . S
H257 C271 0.961 . S
H258 C272 0.960 . S
H259 C272 0.961 . S
H260 C272 0.959 . S
H261 C275 0.929 . S
H262 C276 0.931 . S
H263 C278 0.930 . S
C264 H252 0.930 . S
C264 C265 1.399 . S
C264 C269 1.399 . S
C265 C264 1.399 . S
C265 C266 1.376 . S
C266 H253 0.930 . S
C266 C265 1.376 . S
C266 C267 1.388 . S
C267 H254 0.930 . S
C267 C266 1.388 . S
C267 C268 1.390 . S
C268 C267 1.390 . S
C268 C269 1.394 . S
C268 C274 1.465 . S
C269 C264 1.399 . S
C269 C268 1.394 . S
C269 C270 1.516 . S
C270 C269 1.516 . S
C270 C271 1.502 . S
C270 C272 1.561 . S
C270 C273 1.526 . S
C271 H255 0.959 . S
C271 H256 0.959 . S
C271 H257 0.961 . S
C271 C270 1.502 . S
C272 H258 0.960 . S
C272 H259 0.961 . S
C272 H260 0.959 . S
C272 C270 1.561 . S
C273 C270 1.526 . S
C273 C274 1.396 . S
C273 C278 1.390 . S
C274 C268 1.465 . S
C274 C273 1.396 . S
C274 C275 1.399 . S
C275 H261 0.929 . S
C275 C274 1.399 . S
C275 C276 1.385 . S
C276 H262 0.931 . S
C276 C275 1.385 . S
C276 C277 1.389 . S
C277 C276 1.389 . S
C277 C278 1.387 . S
C278 H263 0.930 . S
C278 C273 1.390 . S
C278 C277 1.387 . S
H279 C291 0.930 . S
H280 C293 0.930 . S
H281 C294 0.930 . S
H282 C298 0.959 . S
H283 C298 0.959 . S
H284 C298 0.961 . S
H285 C299 0.960 . S
H286 C299 0.961 . S
H287 C299 0.959 . S
H288 C302 0.929 . S
H289 C303 0.931 . S
H290 C305 0.930 . S
C291 H279 0.930 . S
C291 C292 1.399 . S
C291 C296 1.399 . S
C292 C291 1.399 . S
C292 C293 1.376 . S
C293 H280 0.930 . S
C293 C292 1.376 . S
C293 C294 1.388 . S
C294 H281 0.930 . S
C294 C293 1.388 . S
C294 C295 1.390 . S
C295 C294 1.390 . S
C295 C296 1.394 . S
C295 C301 1.465 . S
C296 C291 1.399 . S
C296 C295 1.394 . S
C296 C297 1.516 . S
C297 C296 1.516 . S
C297 C298 1.502 . S
C297 C299 1.561 . S
C297 C300 1.526 . S
C298 H282 0.959 . S
C298 H283 0.959 . S
C298 H284 0.961 . S
C298 C297 1.502 . S
C299 H285 0.960 . S
C299 H286 0.961 . S
C299 H287 0.959 . S
C299 C297 1.561 . S
C300 C297 1.526 . S
C300 C301 1.396 . S
C300 C305 1.390 . S
C301 C295 1.465 . S
C301 C300 1.396 . S
C301 C302 1.399 . S
C302 H288 0.929 . S
C302 C301 1.399 . S
C302 C303 1.385 . S
C303 H289 0.931 . S
C303 C302 1.385 . S
C303 C304 1.389 . S
C304 C303 1.389 . S
C304 C305 1.387 . S
C305 H290 0.930 . S
C305 C300 1.390 . S
C305 C304 1.387 . S
H306 C318 0.930 . S
H307 C320 0.930 . S
H308 C321 0.930 . S
H309 C325 0.959 . S
H310 C325 0.959 . S
H311 C325 0.961 . S
H312 C326 0.960 . S
H313 C326 0.961 . S
H314 C326 0.959 . S
H315 C329 0.929 . S
H316 C330 0.931 . S
H317 C332 0.930 . S
C318 H306 0.930 . S
C318 C319 1.399 . S
C318 C323 1.399 . S
C319 C318 1.399 . S
C319 C320 1.376 . S
C320 H307 0.930 . S
C320 C319 1.376 . S
C320 C321 1.388 . S
C321 H308 0.930 . S
C321 C320 1.388 . S
C321 C322 1.390 . S
C322 C321 1.390 . S
C322 C323 1.394 . S
C322 C328 1.465 . S
C323 C318 1.399 . S
C323 C322 1.394 . S
C323 C324 1.516 . S
C324 C323 1.516 . S
C324 C325 1.502 . S
C324 C326 1.561 . S
C324 C327 1.526 . S
C325 H309 0.959 . S
C325 H310 0.959 . S
C325 H311 0.961 . S
C325 C324 1.502 . S
C326 H312 0.960 . S
C326 H313 0.961 . S
C326 H314 0.959 . S
C326 C324 1.561 . S
C327 C324 1.526 . S
C327 C328 1.396 . S
C327 C332 1.390 . S
C328 C322 1.465 . S
C328 C327 1.396 . S
C328 C329 1.399 . S
C329 H315 0.929 . S
C329 C328 1.399 . S
C329 C330 1.385 . S
C330 H316 0.931 . S
C330 C329 1.385 . S
C330 C331 1.389 . S
C331 C330 1.389 . S
C331 C332 1.387 . S
C332 H317 0.930 . S
C332 C327 1.390 . S
C332 C331 1.387 . S
H333 C345 0.930 . S
H334 C347 0.930 . S
H335 C348 0.930 . S
H336 C352 0.959 . S
H337 C352 0.959 . S
H338 C352 0.961 . S
H339 C353 0.960 . S
H340 C353 0.961 . S
H341 C353 0.959 . S
H342 C356 0.929 . S
H343 C357 0.931 . S
H344 C359 0.930 . S
C345 H333 0.930 . S
C345 C346 1.399 . S
C345 C350 1.399 . S
C346 C345 1.399 . S
C346 C347 1.376 . S
C347 H334 0.930 . S
C347 C346 1.376 . S
C347 C348 1.388 . S
C348 H335 0.930 . S
C348 C347 1.388 . S
C348 C349 1.390 . S
C349 C348 1.390 . S
C349 C350 1.394 . S
C349 C355 1.465 . S
C350 C345 1.399 . S
C350 C349 1.394 . S
C350 C351 1.516 . S
C351 C350 1.516 . S
C351 C352 1.502 . S
C351 C353 1.561 . S
C351 C354 1.526 . S
C352 H336 0.959 . S
C352 H337 0.959 . S
C352 H338 0.961 . S
C352 C351 1.502 . S
C353 H339 0.960 . S
C353 H340 0.961 . S
C353 H341 0.959 . S
C353 C351 1.561 . S
C354 C351 1.526 . S
C354 C355 1.396 . S
C354 C359 1.390 . S
C355 C349 1.465 . S
C355 C354 1.396 . S
C355 C356 1.399 . S
C356 H342 0.929 . S
C356 C355 1.399 . S
C356 C357 1.385 . S
C357 H343 0.931 . S
C357 C356 1.385 . S
C357 C358 1.389 . S
C358 C357 1.389 . S
C358 C359 1.387 . S
C359 H344 0.930 . S
C359 C354 1.390 . S
C359 C358 1.387 . S
H360 C372 0.930 . S
H361 C374 0.930 . S
H362 C375 0.930 . S
H363 C379 0.959 . S
H364 C379 0.959 . S
H365 C379 0.961 . S
H366 C380 0.960 . S
H367 C380 0.961 . S
H368 C380 0.959 . S
H369 C383 0.929 . S
H370 C384 0.931 . S
H371 C386 0.930 . S
C372 H360 0.930 . S
C372 C373 1.399 . S
C372 C377 1.399 . S
C373 C372 1.399 . S
C373 C374 1.376 . S
C374 H361 0.930 . S
C374 C373 1.376 . S
C374 C375 1.388 . S
C375 H362 0.930 . S
C375 C374 1.388 . S
C375 C376 1.390 . S
C376 C375 1.390 . S
C376 C377 1.394 . S
C376 C382 1.465 . S
C377 C372 1.399 . S
C377 C376 1.394 . S
C377 C378 1.516 . S
C378 C377 1.516 . S
C378 C379 1.502 . S
C378 C380 1.561 . S
C378 C381 1.526 . S
C379 H363 0.959 . S
C379 H364 0.959 . S
C379 H365 0.961 . S
C379 C378 1.502 . S
C380 H366 0.960 . S
C380 H367 0.961 . S
C380 H368 0.959 . S
C380 C378 1.561 . S
C381 C378 1.526 . S
C381 C382 1.396 . S
C381 C386 1.390 . S
C382 C376 1.465 . S
C382 C381 1.396 . S
C382 C383 1.399 . S
C383 H369 0.929 . S
C383 C382 1.399 . S
C383 C384 1.385 . S
C384 H370 0.931 . S
C384 C383 1.385 . S
C384 C385 1.389 . S
C385 C384 1.389 . S
C385 C386 1.387 . S
C386 H371 0.930 . S
C386 C381 1.390 . S
C386 C385 1.387 . S
H387 C399 0.930 . S
H388 C401 0.930 . S
H389 C402 0.930 . S
H390 C406 0.959 . S
H391 C406 0.959 . S
H392 C406 0.961 . S
H393 C407 0.960 . S
H394 C407 0.961 . S
H395 C407 0.959 . S
H396 C410 0.929 . S
H397 C411 0.931 . S
H398 C413 0.930 . S
C399 H387 0.930 . S
C399 C400 1.399 . S
C399 C404 1.399 . S
C400 C399 1.399 . S
C400 C401 1.376 . S
C401 H388 0.930 . S
C401 C400 1.376 . S
C401 C402 1.388 . S
C402 H389 0.930 . S
C402 C401 1.388 . S
C402 C403 1.390 . S
C403 C402 1.390 . S
C403 C404 1.394 . S
C403 C409 1.465 . S
C404 C399 1.399 . S
C404 C403 1.394 . S
C404 C405 1.516 . S
C405 C404 1.516 . S
C405 C406 1.502 . S
C405 C407 1.561 . S
C405 C408 1.526 . S
C406 H390 0.959 . S
C406 H391 0.959 . S
C406 H392 0.961 . S
C406 C405 1.502 . S
C407 H393 0.960 . S
C407 H394 0.961 . S
C407 H395 0.959 . S
C407 C405 1.561 . S
C408 C405 1.526 . S
C408 C409 1.396 . S
C408 C413 1.390 . S
C409 C403 1.465 . S
C409 C408 1.396 . S
C409 C410 1.399 . S
C410 H396 0.929 . S
C410 C409 1.399 . S
C410 C411 1.385 . S
C411 H397 0.931 . S
C411 C410 1.385 . S
C411 C412 1.389 . S
C412 C411 1.389 . S
C412 C413 1.387 . S
C413 H398 0.930 . S
C413 C408 1.390 . S
C413 C412 1.387 . S
H414 C426 0.930 . S
H415 C428 0.930 . S
H416 C429 0.930 . S
H417 C433 0.959 . S
H418 C433 0.959 . S
H419 C433 0.961 . S
H420 C434 0.960 . S
H421 C434 0.961 . S
H422 C434 0.959 1_565 S
H423 C437 0.929 . S
H424 C438 0.931 . S
H425 C440 0.930 1_545 S
C426 H414 0.930 . S
C426 C427 1.399 . S
C426 C431 1.399 . S
C427 C426 1.399 . S
C427 C428 1.376 . S
C428 H415 0.930 . S
C428 C427 1.376 . S
C428 C429 1.388 . S
C429 H416 0.930 . S
C429 C428 1.388 . S
C429 C430 1.390 . S
C430 C429 1.390 . S
C430 C431 1.394 . S
C430 C436 1.465 . S
C431 C426 1.399 . S
C431 C430 1.394 . S
C431 C432 1.516 . S
C432 C431 1.516 . S
C432 C433 1.502 1_565 S
C432 C434 1.561 1_565 S
C432 C435 1.526 . S
C433 H417 0.959 . S
C433 H418 0.959 . S
C433 H419 0.961 . S
C433 C432 1.502 1_545 S
C434 H420 0.960 . S
C434 H421 0.961 . S
C434 H422 0.959 1_545 S
C434 C432 1.561 1_545 S
C435 C432 1.526 . S
C435 C436 1.396 . S
C435 C440 1.390 . S
C436 C430 1.465 . S
C436 C435 1.396 . S
C436 C437 1.399 . S
C437 H423 0.929 . S
C437 C436 1.399 . S
C437 C438 1.385 . S
C438 H424 0.931 . S
C438 C437 1.385 . S
C438 C439 1.389 . S
C439 C438 1.389 . S
C439 C440 1.387 . S
C440 H425 0.930 1_565 S
C440 C435 1.390 . S
C440 C439 1.387 . S
H441 C453 0.930 . S
H442 C455 0.930 . S
H443 C456 0.930 . S
H444 C460 0.959 . S
H445 C460 0.959 . S
H446 C460 0.961 . S
H447 C461 0.960 . S
H448 C461 0.961 . S
H449 C461 0.959 . S
H450 C464 0.927 1_565 S
H451 C465 0.931 1_565 S
H452 C467 0.930 . S
C453 H441 0.930 . S
C453 C454 1.399 . S
C453 C458 1.399 . S
C454 C453 1.399 . S
C454 C455 1.376 . S
C455 H442 0.930 . S
C455 C454 1.376 . S
C455 C456 1.388 . S
C456 H443 0.930 . S
C456 C455 1.388 . S
C456 C457 1.390 . S
C457 C456 1.390 . S
C457 C458 1.394 . S
C457 C463 1.465 . S
C458 C453 1.399 . S
C458 C457 1.394 . S
C458 C459 1.516 . S
C459 C458 1.516 . S
C459 C460 1.502 . S
C459 C461 1.561 . S
C459 C462 1.526 . S
C460 H444 0.959 . S
C460 H445 0.959 . S
C460 H446 0.961 . S
C460 C459 1.502 . S
C461 H447 0.960 . S
C461 H448 0.961 . S
C461 H449 0.959 . S
C461 C459 1.561 . S
C462 C459 1.526 . S
C462 C463 1.396 . S
C462 C467 1.390 . S
C463 C457 1.465 . S
C463 C462 1.396 . S
C463 C464 1.399 . S
C464 H450 0.927 1_545 S
C464 C463 1.399 . S
C464 C465 1.385 . S
C465 H451 0.931 1_545 S
C465 C464 1.385 . S
C465 C466 1.389 . S
C466 C465 1.389 . S
C466 C467 1.387 . S
C467 H452 0.930 . S
C467 C462 1.390 . S
C467 C466 1.387 . S
H468 C480 0.930 . S
H469 C482 0.930 . S
H470 C483 0.930 . S
H471 C487 0.959 . S
H472 C487 0.959 . S
H473 C487 0.961 . S
H474 C488 0.960 . S
H475 C488 0.961 . S
H476 C488 0.959 . S
H477 C491 0.929 . S
H478 C492 0.931 . S
H479 C494 0.930 . S
C480 H468 0.930 . S
C480 C481 1.399 1_455 S
C480 C485 1.399 1_455 S
C481 C480 1.399 1_655 S
C481 C482 1.376 . S
C482 H469 0.930 . S
C482 C481 1.376 . S
C482 C483 1.388 . S
C483 H470 0.930 . S
C483 C482 1.388 . S
C483 C484 1.390 . S
C484 C483 1.390 . S
C484 C485 1.394 . S
C484 C490 1.465 . S
C485 C480 1.399 1_655 S
C485 C484 1.394 . S
C485 C486 1.516 . S
C486 C485 1.516 . S
C486 C487 1.502 1_655 S
C486 C488 1.561 . S
C486 C489 1.526 . S
C487 H471 0.959 . S
C487 H472 0.959 . S
C487 H473 0.961 . S
C487 C486 1.502 1_455 S
C488 H474 0.960 . S
C488 H475 0.961 . S
C488 H476 0.959 . S
C488 C486 1.561 . S
C489 C486 1.526 . S
C489 C490 1.396 . S
C489 C494 1.390 . S
C490 C484 1.465 . S
C490 C489 1.396 . S
C490 C491 1.399 . S
C491 H477 0.929 . S
C491 C490 1.399 . S
C491 C492 1.385 . S
C492 H478 0.931 . S
C492 C491 1.385 . S
C492 C493 1.389 . S
C493 C492 1.389 . S
C493 C494 1.387 . S
C494 H479 0.930 . S
C494 C489 1.390 . S
C494 C493 1.387 . S
H495 C507 0.930 . S
H496 C509 0.930 . S
H497 C510 0.930 . S
H498 C514 0.959 . S
H499 C514 0.959 . S
H500 C514 0.961 . S
H501 C515 0.960 . S
H502 C515 0.961 . S
H503 C515 0.959 . S
H504 C518 0.929 . S
H505 C519 0.931 . S
H506 C521 0.930 . S
C507 H495 0.930 . S
C507 C508 1.399 . S
C507 C512 1.399 . S
C508 C507 1.399 . S
C508 C509 1.376 . S
C509 H496 0.930 . S
C509 C508 1.376 . S
C509 C510 1.388 . S
C510 H497 0.930 . S
C510 C509 1.388 . S
C510 C511 1.390 . S
C511 C510 1.390 . S
C511 C512 1.394 . S
C511 C517 1.465 . S
C512 C507 1.399 . S
C512 C511 1.394 . S
C512 C513 1.516 . S
C513 C512 1.516 . S
C513 C514 1.502 . S
C513 C515 1.561 . S
C513 C516 1.526 . S
C514 H498 0.959 . S
C514 H499 0.959 . S
C514 H500 0.961 . S
C514 C513 1.502 . S
C515 H501 0.960 . S
C515 H502 0.961 . S
C515 H503 0.959 . S
C515 C513 1.561 . S
C516 C513 1.526 . S
C516 C517 1.396 . S
C516 C521 1.390 . S
C517 C511 1.465 . S
C517 C516 1.396 . S
C517 C518 1.399 . S
C518 H504 0.929 . S
C518 C517 1.399 . S
C518 C519 1.385 . S
C519 H505 0.931 . S
C519 C518 1.385 . S
C519 C520 1.389 . S
C520 C519 1.389 . S
C520 C521 1.387 . S
C521 H506 0.930 . S
C521 C516 1.390 . S
C521 C520 1.387 . S
H522 C534 0.930 . S
H523 C536 0.930 . S
H524 C537 0.930 . S
H525 C541 0.959 . S
H526 C541 0.959 . S
H527 C541 0.961 . S
H528 C542 0.960 . S
H529 C542 0.961 . S
H530 C542 0.959 . S
H531 C545 0.929 . S
H532 C546 0.931 . S
H533 C548 0.930 . S
C534 H522 0.930 . S
C534 C535 1.399 . S
C534 C539 1.399 . S
C535 C534 1.399 . S
C535 C536 1.376 . S
C536 H523 0.930 . S
C536 C535 1.376 . S
C536 C537 1.388 . S
C537 H524 0.930 . S
C537 C536 1.388 . S
C537 C538 1.390 . S
C538 C537 1.390 . S
C538 C539 1.394 . S
C538 C544 1.465 . S
C539 C534 1.399 . S
C539 C538 1.394 . S
C539 C540 1.516 . S
C540 C539 1.516 . S
C540 C541 1.502 . S
C540 C542 1.561 1_455 S
C540 C543 1.526 . S
C541 H525 0.959 . S
C541 H526 0.959 . S
C541 H527 0.961 . S
C541 C540 1.502 . S
C542 H528 0.960 . S
C542 H529 0.961 . S
C542 H530 0.959 . S
C542 C540 1.561 1_655 S
C543 C540 1.526 . S
C543 C544 1.396 . S
C543 C548 1.390 1_455 S
C544 C538 1.465 . S
C544 C543 1.396 . S
C544 C545 1.399 . S
C545 H531 0.929 . S
C545 C544 1.399 . S
C545 C546 1.385 1_455 S
C546 H532 0.931 . S
C546 C545 1.385 1_655 S
C546 C547 1.389 . S
C547 C546 1.389 . S
C547 C548 1.387 . S
C548 H533 0.930 . S
C548 C543 1.390 1_655 S
C548 C547 1.387 . S
H549 C561 0.930 . S
H550 C563 0.930 . S
H551 C564 0.930 . S
H552 C568 0.959 . S
H553 C568 0.959 . S
H554 C568 0.961 . S
H555 C569 0.960 . S
H556 C569 0.961 . S
H557 C569 0.959 . S
H558 C572 0.929 . S
H559 C573 0.931 . S
H560 C575 0.930 . S
C561 H549 0.930 . S
C561 C562 1.399 . S
C561 C566 1.399 . S
C562 C561 1.399 . S
C562 C563 1.376 . S
C563 H550 0.930 . S
C563 C562 1.376 . S
C563 C564 1.388 . S
C564 H551 0.930 . S
C564 C563 1.388 . S
C564 C565 1.390 . S
C565 C564 1.390 . S
C565 C566 1.394 . S
C565 C571 1.465 . S
C566 C561 1.399 . S
C566 C565 1.394 . S
C566 C567 1.516 . S
C567 C566 1.516 . S
C567 C568 1.502 . S
C567 C569 1.561 . S
C567 C570 1.526 . S
C568 H552 0.959 . S
C568 H553 0.959 . S
C568 H554 0.961 . S
C568 C567 1.502 . S
C569 H555 0.960 . S
C569 H556 0.961 . S
C569 H557 0.959 . S
C569 C567 1.561 . S
C570 C567 1.526 . S
C570 C571 1.396 . S
C570 C575 1.390 . S
C571 C565 1.465 . S
C571 C570 1.396 . S
C571 C572 1.399 . S
C572 H558 0.929 . S
C572 C571 1.399 . S
C572 C573 1.385 . S
C573 H559 0.931 . S
C573 C572 1.385 . S
C573 C574 1.389 . S
C574 C573 1.389 . S
C574 C575 1.387 . S
C575 H560 0.930 . S
C575 C570 1.390 . S
C575 C574 1.387 . S
H576 C588 0.930 . S
H577 C590 0.930 . S
H578 C591 0.930 . S
H579 C595 0.959 . S
H580 C595 0.959 . S
H581 C595 0.961 . S
H582 C596 0.960 . S
H583 C596 0.961 . S
H584 C596 0.959 . S
H585 C599 0.929 1_565 S
H586 C600 0.931 . S
H587 C602 0.930 . S
C588 H576 0.930 . S
C588 C589 1.399 . S
C588 C593 1.399 1_565 S
C589 C588 1.399 . S
C589 C590 1.376 . S
C590 H577 0.930 . S
C590 C589 1.376 . S
C590 C591 1.388 . S
C591 H578 0.930 . S
C591 C590 1.388 . S
C591 C592 1.390 . S
C592 C591 1.390 . S
C592 C593 1.394 1_565 S
C592 C598 1.465 1_565 S
C593 C588 1.399 1_545 S
C593 C592 1.394 1_545 S
C593 C594 1.516 . S
C594 C593 1.516 . S
C594 C595 1.502 . S
C594 C596 1.561 . S
C594 C597 1.526 . S
C595 H579 0.959 . S
C595 H580 0.959 . S
C595 H581 0.961 . S
C595 C594 1.502 . S
C596 H582 0.960 . S
C596 H583 0.961 . S
C596 H584 0.959 . S
C596 C594 1.561 . S
C597 C594 1.526 . S
C597 C598 1.396 . S
C597 C602 1.390 . S
C598 C592 1.465 1_545 S
C598 C597 1.396 . S
C598 C599 1.399 . S
C599 H585 0.929 1_545 S
C599 C598 1.399 . S
C599 C600 1.385 . S
C600 H586 0.931 . S
C600 C599 1.385 . S
C600 C601 1.389 . S
C601 C600 1.389 . S
C601 C602 1.387 . S
C602 H587 0.930 . S
C602 C597 1.390 . S
C602 C601 1.387 . S
C130 C31 1.037 1_556 S
C142 C10 1.036 . S
C157 C18 0.895 . S
C169 C5 1.009 1_556 S
C184 C23 0.992 . S
C196 C36 1.009 . S
C211 C75 0.972 . S
C223 C49 0.977 . S
C238 C57 1.019 . S
C250 C44 0.934 . S
C265 C62 1.004 . S
C277 C70 0.879 . S
C292 C88 1.020 . S
C304 C109 0.918 . S
C319 C83 0.966 . S
C331 C96 0.954 . S
C346 C101 1.018 . S
C358 C114 1.005 . S
C373 C0 1.325 . S
C385 C91 1.325 . S
C400 C21 1.268 . S
C412 C112 1.257 . S
C427 C86 1.197 . S
C439 C26 1.207 . S
C454 C60 1.281 . S
C466 C34 1.269 . S
C481 C8 1.237 1_655 S
C493 C73 1.252 . S
C508 C39 1.286 . S
C520 C13 1.268 . S
C535 C99 1.223 . S
C547 C65 1.223 . S
C562 C47 1.336 . S
C574 C104 1.338 . S
C589 C78 1.274 . S
C601 C52 1.275 . S
