# Generated by pormake.
# Topology unh, (4)-cn, num edge types: 1
# Building blocks:
#     Node 0, Type 0, BuildingBlock: NAWXER_clean_sbu_0, # of connection points: 4
#     Node 1, Type 0, BuildingBlock: NAWXER_clean_sbu_0, # of connection points: 4
#     Node 2, Type 0, BuildingBlock: NAWXER_clean_sbu_0, # of connection points: 4
#     Node 3, Type 0, BuildingBlock: NAWXER_clean_sbu_0, # of connection points: 4
#     Node 4, Type 0, BuildingBlock: NAWXER_clean_sbu_0, # of connection points: 4
#     Node 5, Type 0, BuildingBlock: NAWXER_clean_sbu_0, # of connection points: 4
#     Edge 6, Type (0, 0), BuildingBlock: XIVTED_clean_linker_0, # of connection points: 2
#     Edge 7, Type (0, 0), BuildingBlock: XIVTED_clean_linker_0, # of connection points: 2
#     Edge 8, Type (0, 0), BuildingBlock: XIVTED_clean_linker_0, # of connection points: 2
#     Edge 9, Type (0, 0), BuildingBlock: XIVTED_clean_linker_0, # of connection points: 2
#     Edge 10, Type (0, 0), BuildingBlock: XIVTED_clean_linker_0, # of connection points: 2
#     Edge 11, Type (0, 0), BuildingBlock: XIVTED_clean_linker_0, # of connection points: 2
#     Edge 12, Type (0, 0), BuildingBlock: XIVTED_clean_linker_0, # of connection points: 2
#     Edge 13, Type (0, 0), BuildingBlock: XIVTED_clean_linker_0, # of connection points: 2
#     Edge 14, Type (0, 0), BuildingBlock: XIVTED_clean_linker_0, # of connection points: 2
#     Edge 15, Type (0, 0), BuildingBlock: XIVTED_clean_linker_0, # of connection points: 2
#     Edge 16, Type (0, 0), BuildingBlock: XIVTED_clean_linker_0, # of connection points: 2
#     Edge 17, Type (0, 0), BuildingBlock: XIVTED_clean_linker_0, # of connection points: 2
# Relax obj value: 0.020
# Max RMSD: 0.247
# Mean RMSD: 0.247
data_MOF--net-unh--node1-NAWXER_clean_sbu_0--edge1-XIVTED_clean_linker_0
_symmetry_space_group_name_H-M    P1
_symmetry_Int_Tables_number       1
_symmetry_cell_setting            triclinic
loop_
_symmetry_equiv_pos_as_xyz
'x, y, z'
_cell_length_a     45.352357
_cell_length_b     45.391902
_cell_length_c     21.715868
_cell_angle_alpha  89.906252
_cell_angle_beta   90.046069
_cell_angle_gamma 120.03841
loop_
_atom_site_label
_atom_site_type_symbol
_atom_site_fract_x
_atom_site_fract_y
_atom_site_fract_z
_atom_type_partial_charge
C0 C 0.09471 0.55695 0.17579 0.0
C1 C 0.18227 0.62735 0.02909 0.0
O2 O 0.10982 0.58871 0.16598 0.0
Zn3 Zn 0.13802 0.59059 0.09963 0.0
O4 O 0.10244 0.53829 0.14289 0.0
Zn5 Zn 0.13804 0.548 0.06767 0.0
O6 O 0.16613 0.53181 0.09987 0.0
O7 O 0.17546 0.57977 0.14264 0.0
O8 O 0.17507 0.59621 0.02395 0.0
O9 O 0.1658 0.63483 0.06694 0.0
O10 O 0.10208 0.56437 0.02498 0.0
O11 O 0.10955 0.52139 0.0019 0.0
C12 C 0.18276 0.55591 0.13739 0.0
C13 C 0.09428 0.5379 0.99228 0.0
C14 C 0.55438 0.18111 0.19496 0.0
C15 C 0.54025 0.09493 0.34216 0.0
O16 O 0.53105 0.16484 0.2341 0.0
Zn17 Zn 0.5484 0.13749 0.26607 0.0
O18 O 0.57844 0.17419 0.18877 0.0
Zn19 Zn 0.59128 0.13856 0.23195 0.0
O20 O 0.58918 0.10985 0.1664 0.0
O21 O 0.53861 0.10149 0.1919 0.0
O22 O 0.56671 0.10321 0.3088 0.0
O23 O 0.52284 0.10926 0.33253 0.0
O24 O 0.59665 0.17484 0.3087 0.0
O25 O 0.63606 0.16866 0.26045 0.0
C26 C 0.55724 0.094 0.15835 0.0
C27 C 0.62812 0.18383 0.30034 0.0
C28 C 0.46733 0.55994 0.32139 0.0
C29 C 0.44967 0.62989 0.46749 0.0
O30 O 0.48397 0.5917 0.33102 0.0
Zn31 Zn 0.45743 0.59341 0.39708 0.0
O32 O 0.44084 0.54122 0.35419 0.0
Zn33 Zn 0.41471 0.55066 0.42912 0.0
O34 O 0.37042 0.53446 0.39661 0.0
O35 O 0.40924 0.58247 0.35384 0.0
O36 O 0.42577 0.59871 0.47263 0.0
O37 O 0.47373 0.63756 0.4297 0.0
O38 O 0.46708 0.56725 0.47184 0.0
O39 O 0.41664 0.52407 0.49509 0.0
C40 C 0.37803 0.5586 0.35899 0.0
C41 C 0.44845 0.54074 0.50465 0.0
C42 C 0.81928 0.44534 0.63522 0.0
C43 C 0.90779 0.46183 0.49157 0.0
O44 O 0.83416 0.46794 0.59421 0.0
Zn45 Zn 0.86401 0.45269 0.56582 0.0
O46 O 0.82816 0.42287 0.64413 0.0
Zn47 Zn 0.86415 0.41058 0.60138 0.0
O48 O 0.89279 0.41344 0.66739 0.0
O49 O 0.89957 0.46347 0.64213 0.0
O50 O 0.89982 0.4356 0.52538 0.0
O51 O 0.89271 0.47862 0.49995 0.0
O52 O 0.82811 0.40432 0.52316 0.0
O53 O 0.83449 0.36546 0.57295 0.0
C54 C 0.90762 0.44529 0.67599 0.0
C55 C 0.81942 0.37302 0.53208 0.0
C56 C 0.37622 0.82001 0.80487 0.0
C57 C 0.44612 0.90869 0.65938 0.0
O58 O 0.36847 0.83666 0.76782 0.0
Zn59 Zn 0.41264 0.86485 0.73485 0.0
O60 O 0.40745 0.82732 0.80941 0.0
Zn61 Zn 0.45547 0.86466 0.7658 0.0
O62 O 0.4823 0.89273 0.83186 0.0
O63 O 0.43909 0.90014 0.80993 0.0
O64 O 0.46486 0.90066 0.69152 0.0
O65 O 0.41436 0.89361 0.6695 0.0
O66 O 0.42346 0.82798 0.69019 0.0
O67 O 0.47155 0.83684 0.73217 0.0
C68 C 0.4657 0.90781 0.84226 0.0
C69 C 0.44733 0.82062 0.69457 0.0
C70 C 0.53873 0.4449 0.82199 0.0
C71 C 0.55486 0.37393 0.96883 0.0
O72 O 0.52143 0.41321 0.83232 0.0
Zn73 Zn 0.54772 0.41099 0.898 0.0
O74 O 0.56549 0.46332 0.85448 0.0
Zn75 Zn 0.59087 0.45318 0.93065 0.0
O76 O 0.6354 0.46792 0.90066 0.0
O77 O 0.59561 0.42194 0.85384 0.0
O78 O 0.5788 0.40503 0.97417 0.0
O79 O 0.53103 0.36647 0.93059 0.0
O80 O 0.53849 0.43743 0.97241 0.0
O81 O 0.58918 0.47999 0.99626 0.0
C82 C 0.62713 0.44458 0.8611 0.0
C83 C 0.55733 0.46376 0.00535 0.0
H84 H 0.06723 0.47866 0.92786 0.0
H85 H 0.94236 0.51191 0.71688 0.0
H86 H 0.0595 0.56916 0.94845 0.0
H87 H 0.93469 0.41399 0.74327 0.0
H88 H 0.98817 0.5361 0.7943 0.0
H89 H 0.02212 0.45759 0.85156 0.0
C90 C 0.05609 0.49422 0.91626 0.0
C91 C 0.06718 0.52574 0.94485 0.0
C92 C 0.97626 0.50932 0.78308 0.0
C93 C 0.01509 0.50154 0.85686 0.0
C94 C 0.95021 0.49552 0.73892 0.0
C95 C 0.93465 0.46086 0.72345 0.0
C96 C 0.98697 0.48834 0.81119 0.0
C97 C 0.94581 0.44081 0.75353 0.0
C98 C 0.03016 0.48206 0.87269 0.0
C99 C 0.05164 0.54466 0.92769 0.0
N100 N 0.97129 0.45486 0.79554 0.0
N101 N 0.02637 0.53229 0.8846 0.0
H102 H 0.52496 0.93448 0.90711 0.0
H103 H 0.49085 0.05887 0.11687 0.0
H104 H 0.43433 0.94219 0.88667 0.0
H105 H 0.58902 0.06659 0.0935 0.0
H106 H 0.46704 0.01295 0.04004 0.0
H107 H 0.54595 0.97929 0.98398 0.0
C108 C 0.50936 0.94553 0.91888 0.0
C109 C 0.47783 0.93456 0.89016 0.0
C110 C 0.49379 0.02485 0.05179 0.0
C111 C 0.50191 0.98621 0.97869 0.0
C112 C 0.50737 0.05097 0.09565 0.0
C113 C 0.54199 0.06663 0.11166 0.0
C114 C 0.51495 0.01416 0.0245 0.0
C115 C 0.56223 0.05539 0.08265 0.0
C116 C 0.52147 0.97128 0.96275 0.0
C117 C 0.45884 0.94995 0.90751 0.0
N118 N 0.54839 0.02984 0.04082 0.0
N119 N 0.47116 0.97502 0.95082 0.0
H120 H 0.52656 0.592 0.25641 0.0
H121 H 0.49115 0.43269 0.04795 0.0
H122 H 0.43565 0.49397 0.27796 0.0
H123 H 0.58959 0.52299 0.07007 0.0
H124 H 0.46779 0.45507 0.12509 0.0
H125 H 0.54725 0.56771 0.17994 0.0
C126 C 0.51083 0.56531 0.24496 0.0
C127 C 0.4793 0.54499 0.27385 0.0
C128 C 0.4945 0.46982 0.11301 0.0
C129 C 0.50304 0.51687 0.18577 0.0
C130 C 0.50783 0.45713 0.06898 0.0
C131 C 0.54239 0.47599 0.05247 0.0
C132 C 0.51584 0.50171 0.14 0.0
C133 C 0.56283 0.50748 0.08127 0.0
C134 C 0.52277 0.55141 0.20133 0.0
C135 C 0.46016 0.51054 0.25696 0.0
N136 N 0.54923 0.51935 0.12327 0.0
N137 N 0.4723 0.49752 0.21383 0.0
H138 H 0.94232 0.42993 0.44977 0.0
H139 H 0.06856 0.58928 0.2424 0.0
H140 H 0.93561 0.52087 0.42619 0.0
H141 H 0.05954 0.49067 0.21841 0.0
H142 H 0.02358 0.56508 0.31896 0.0
H143 H 0.98842 0.45193 0.37287 0.0
C144 C 0.95045 0.45441 0.42847 0.0
C145 C 0.93505 0.47357 0.44451 0.0
C146 C 0.03132 0.54862 0.29702 0.0
C147 C 0.9877 0.49886 0.35741 0.0
C148 C 0.05718 0.56248 0.25331 0.0
C149 C 0.06784 0.54198 0.22363 0.0
C150 C 0.0159 0.51392 0.31189 0.0
C151 C 0.05201 0.50738 0.23999 0.0
C152 C 0.97666 0.46688 0.38461 0.0
C153 C 0.94658 0.50511 0.4154 0.0
N154 N 0.0268 0.49439 0.28319 0.0
N155 N 0.9722 0.51674 0.37367 0.0
H156 H 0.57224 0.06039 0.3839 0.0
H157 H 0.41401 0.93615 0.59552 0.0
H158 H 0.48195 0.06814 0.40957 0.0
H159 H 0.51205 0.94308 0.61502 0.0
H160 H 0.43812 0.98127 0.51917 0.0
H161 H 0.55058 0.01472 0.46164 0.0
C162 C 0.548 0.05261 0.40587 0.0
C163 C 0.52889 0.06813 0.39006 0.0
C164 C 0.45449 0.97305 0.54008 0.0
C165 C 0.50398 0.01595 0.47816 0.0
C166 C 0.44067 0.94711 0.58367 0.0
C167 C 0.46104 0.93579 0.61196 0.0
C168 C 0.489 0.98788 0.52393 0.0
C169 C 0.49546 0.95111 0.5945 0.0
C170 C 0.5357 0.02662 0.45019 0.0
C171 C 0.49766 0.05704 0.42006 0.0
N172 N 0.5084 0.97639 0.55141 0.0
N173 N 0.48619 0.03164 0.46223 0.0
H174 H 0.47971 0.41306 0.75661 0.0
H175 H 0.5147 0.57225 0.54728 0.0
H176 H 0.5707 0.511 0.77811 0.0
H177 H 0.41652 0.48167 0.57009 0.0
H178 H 0.53833 0.55012 0.62473 0.0
H179 H 0.45913 0.43738 0.68002 0.0
C180 C 0.4955 0.43975 0.74514 0.0
C181 C 0.52701 0.46002 0.77411 0.0
C182 C 0.51161 0.53526 0.61273 0.0
C183 C 0.50333 0.48823 0.68576 0.0
C184 C 0.49813 0.54781 0.56854 0.0
C185 C 0.46356 0.52878 0.55208 0.0
C186 C 0.49042 0.50335 0.63994 0.0
C187 C 0.44327 0.49731 0.58118 0.0
C188 C 0.4836 0.45369 0.70139 0.0
C189 C 0.54621 0.49447 0.75706 0.0
N190 N 0.45702 0.4856 0.6233 0.0
N191 N 0.53408 0.50754 0.71381 0.0
H192 H 0.19235 0.50261 0.16244 0.0
H193 H 0.37868 0.6134 0.30331 0.0
H194 H 0.2377 0.61078 0.19126 0.0
H195 H 0.31471 0.50554 0.33491 0.0
H196 H 0.33087 0.61374 0.2504 0.0
H197 H 0.24055 0.50399 0.21484 0.0
C198 C 0.21244 0.52668 0.18004 0.0
C199 C 0.21098 0.55662 0.17266 0.0
C200 C 0.32745 0.59007 0.26897 0.0
C201 C 0.26656 0.55843 0.23209 0.0
C202 C 0.35473 0.5898 0.29865 0.0
C203 C 0.35062 0.55939 0.3235 0.0
C204 C 0.29618 0.55963 0.26335 0.0
C205 C 0.31898 0.52958 0.31667 0.0
C206 C 0.23994 0.52743 0.21002 0.0
C207 C 0.23774 0.58708 0.19645 0.0
N208 N 0.29308 0.53044 0.28707 0.0
N209 N 0.26465 0.58728 0.22478 0.0
H210 H 0.6903 0.23059 0.25685 0.0
H211 H 0.77399 0.30973 0.57381 0.0
H212 H 0.62778 0.20285 0.42 0.0
H213 H 0.79921 0.37433 0.41371 0.0
H214 H 0.72547 0.2645 0.51777 0.0
H215 H 0.7362 0.27835 0.31312 0.0
C216 C 0.68632 0.23456 0.30461 0.0
C217 C 0.65535 0.21282 0.33409 0.0
C218 C 0.74164 0.28863 0.49515 0.0
C219 C 0.70774 0.26675 0.39848 0.0
C220 C 0.7694 0.31428 0.52672 0.0
C221 C 0.79062 0.34567 0.49806 0.0
C222 C 0.73572 0.29413 0.43401 0.0
C223 C 0.78339 0.35045 0.43729 0.0
C224 C 0.71237 0.26184 0.33637 0.0
C225 C 0.65131 0.21916 0.39577 0.0
N226 N 0.75674 0.32471 0.40682 0.0
N227 N 0.67748 0.24534 0.4264 0.0
H228 H 0.39235 0.7668 0.63872 0.0
H229 H 0.50302 0.69281 0.49235 0.0
H230 H 0.50043 0.81084 0.66849 0.0
H231 H 0.3949 0.62946 0.52271 0.0
H232 H 0.50171 0.73927 0.54591 0.0
H233 H 0.39193 0.71913 0.58419 0.0
C234 C 0.41598 0.76658 0.63331 0.0
C235 C 0.44647 0.79277 0.65812 0.0
C236 C 0.47827 0.71517 0.54116 0.0
C237 C 0.44615 0.73867 0.59615 0.0
C238 C 0.47898 0.68864 0.51052 0.0
C239 C 0.44903 0.6572 0.50326 0.0
C240 C 0.4473 0.71052 0.56402 0.0
C241 C 0.41861 0.65324 0.52779 0.0
C242 C 0.41566 0.73931 0.60271 0.0
C243 C 0.47633 0.79114 0.65031 0.0
N244 N 0.41844 0.67974 0.55678 0.0
N245 N 0.47542 0.76465 0.61984 0.0
H246 H 0.62545 0.42392 0.74196 0.0
H247 H 0.8 0.42447 0.75408 0.0
H248 H 0.6898 0.46057 0.90267 0.0
H249 H 0.77307 0.46219 0.59375 0.0
H250 H 0.75173 0.42252 0.80962 0.0
H251 H 0.6721 0.4227 0.68595 0.0
C252 C 0.64928 0.43147 0.76541 0.0
C253 C 0.65406 0.44265 0.82663 0.0
C254 C 0.7565 0.43112 0.76221 0.0
C255 C 0.70658 0.44043 0.76402 0.0
C256 C 0.78385 0.43218 0.73064 0.0
C257 C 0.79058 0.44382 0.66964 0.0
C258 C 0.73527 0.44069 0.73175 0.0
C259 C 0.76891 0.45347 0.64108 0.0
C260 C 0.67576 0.43087 0.73356 0.0
C261 C 0.68534 0.45218 0.8552 0.0
N262 N 0.74198 0.45142 0.67222 0.0
N263 N 0.71038 0.45058 0.82381 0.0
H264 H 0.37709 0.76571 0.85941 0.0
H265 H 0.19169 0.69022 0.00443 0.0
H266 H 0.31305 0.80973 0.83044 0.0
H267 H 0.23683 0.62739 0.97363 0.0
H268 H 0.23953 0.73702 0.95121 0.0
H269 H 0.32956 0.7175 0.9128 0.0
C270 C 0.35318 0.76537 0.86473 0.0
C271 C 0.34897 0.79173 0.84051 0.0
C272 C 0.23894 0.71297 0.95577 0.0
C273 C 0.29485 0.737 0.90122 0.0
C274 C 0.21165 0.68623 0.98622 0.0
C275 C 0.21025 0.65484 0.99331 0.0
C276 C 0.26541 0.70858 0.93291 0.0
C277 C 0.23684 0.65113 0.96872 0.0
C278 C 0.32606 0.73779 0.89469 0.0
C279 C 0.31739 0.78992 0.84819 0.0
N280 N 0.26356 0.67783 0.93993 0.0
N281 N 0.29164 0.76313 0.87805 0.0
H282 H 0.60946 0.37497 0.0256 0.0
H283 H 0.5003 0.18992 0.17133 0.0
H284 H 0.50175 0.31042 0.9927 0.0
H285 H 0.60823 0.23539 0.13804 0.0
H286 H 0.50076 0.23736 0.11726 0.0
H287 H 0.60994 0.32759 0.07946 0.0
C288 C 0.5859 0.35096 0.03017 0.0
C289 C 0.5555 0.34658 0.0047 0.0
C290 C 0.52431 0.23688 0.12152 0.0
C291 C 0.55591 0.29259 0.06604 0.0
C292 C 0.52409 0.20986 0.15242 0.0
C293 C 0.55427 0.2087 0.159 0.0
C294 C 0.55503 0.2633 0.09791 0.0
C295 C 0.58436 0.23521 0.13354 0.0
C296 C 0.58626 0.32392 0.06041 0.0
C297 C 0.52576 0.31487 0.01147 0.0
N298 N 0.58406 0.26165 0.10449 0.0
N299 N 0.52668 0.28915 0.04172 0.0
loop_
_geom_bond_atom_site_label_1
_geom_bond_atom_site_label_2
_geom_bond_distance
_geom_bond_site_symmetry_2
_ccdc_geom_bond_type
C0 O2 1.247 . S
C0 O4 1.258 . S
C1 O8 1.247 . S
C1 O9 1.258 . S
O2 C0 1.247 . S
O2 Zn3 2.028 . S
Zn3 O2 2.028 . S
Zn3 O7 2.035 . S
Zn3 O9 2.035 . S
Zn3 O10 2.028 . S
O4 C0 1.258 . S
O4 Zn5 2.035 . S
Zn5 O4 2.035 . S
Zn5 O6 2.028 . S
Zn5 O8 2.028 . S
Zn5 O11 2.035 . S
O6 Zn5 2.028 . S
O6 C12 1.247 . S
O7 Zn3 2.035 . S
O7 C12 1.258 . S
O8 C1 1.247 . S
O8 Zn5 2.028 . S
O9 C1 1.258 . S
O9 Zn3 2.035 . S
O10 Zn3 2.028 . S
O10 C13 1.247 . S
O11 Zn5 2.035 . S
O11 C13 1.258 . S
C12 O6 1.247 . S
C12 O7 1.258 . S
C13 O10 1.247 . S
C13 O11 1.258 . S
C14 O16 1.247 . S
C14 O18 1.258 . S
C15 O22 1.247 . S
C15 O23 1.258 . S
O16 C14 1.247 . S
O16 Zn17 2.028 . S
Zn17 O16 2.028 . S
Zn17 O21 2.035 . S
Zn17 O23 2.035 . S
Zn17 O24 2.028 . S
O18 C14 1.258 . S
O18 Zn19 2.035 . S
Zn19 O18 2.035 . S
Zn19 O20 2.028 . S
Zn19 O22 2.028 . S
Zn19 O25 2.035 . S
O20 Zn19 2.028 . S
O20 C26 1.247 . S
O21 Zn17 2.035 . S
O21 C26 1.258 . S
O22 C15 1.247 . S
O22 Zn19 2.028 . S
O23 C15 1.258 . S
O23 Zn17 2.035 . S
O24 Zn17 2.028 . S
O24 C27 1.247 . S
O25 Zn19 2.035 . S
O25 C27 1.258 . S
C26 O20 1.247 . S
C26 O21 1.258 . S
C27 O24 1.247 . S
C27 O25 1.258 . S
C28 O30 1.247 . S
C28 O32 1.258 . S
C29 O36 1.247 . S
C29 O37 1.258 . S
O30 C28 1.247 . S
O30 Zn31 2.028 . S
Zn31 O30 2.028 . S
Zn31 O35 2.035 . S
Zn31 O37 2.035 . S
Zn31 O38 2.028 . S
O32 C28 1.258 . S
O32 Zn33 2.035 . S
Zn33 O32 2.035 . S
Zn33 O34 2.028 . S
Zn33 O36 2.028 . S
Zn33 O39 2.035 . S
O34 Zn33 2.028 . S
O34 C40 1.247 . S
O35 Zn31 2.035 . S
O35 C40 1.258 . S
O36 C29 1.247 . S
O36 Zn33 2.028 . S
O37 C29 1.258 . S
O37 Zn31 2.035 . S
O38 Zn31 2.028 . S
O38 C41 1.247 . S
O39 Zn33 2.035 . S
O39 C41 1.258 . S
C40 O34 1.247 . S
C40 O35 1.258 . S
C41 O38 1.247 . S
C41 O39 1.258 . S
C42 O44 1.247 . S
C42 O46 1.258 . S
C43 O50 1.247 . S
C43 O51 1.258 . S
O44 C42 1.247 . S
O44 Zn45 2.028 . S
Zn45 O44 2.028 . S
Zn45 O49 2.035 . S
Zn45 O51 2.035 . S
Zn45 O52 2.028 . S
O46 C42 1.258 . S
O46 Zn47 2.035 . S
Zn47 O46 2.035 . S
Zn47 O48 2.028 . S
Zn47 O50 2.028 . S
Zn47 O53 2.035 . S
O48 Zn47 2.028 . S
O48 C54 1.247 . S
O49 Zn45 2.035 . S
O49 C54 1.258 . S
O50 C43 1.247 . S
O50 Zn47 2.028 . S
O51 C43 1.258 . S
O51 Zn45 2.035 . S
O52 Zn45 2.028 . S
O52 C55 1.247 . S
O53 Zn47 2.035 . S
O53 C55 1.258 . S
C54 O48 1.247 . S
C54 O49 1.258 . S
C55 O52 1.247 . S
C55 O53 1.258 . S
C56 O58 1.247 . S
C56 O60 1.258 . S
C57 O64 1.247 . S
C57 O65 1.258 . S
O58 C56 1.247 . S
O58 Zn59 2.028 . S
Zn59 O58 2.028 . S
Zn59 O63 2.035 . S
Zn59 O65 2.035 . S
Zn59 O66 2.028 . S
O60 C56 1.258 . S
O60 Zn61 2.035 . S
Zn61 O60 2.035 . S
Zn61 O62 2.028 . S
Zn61 O64 2.028 . S
Zn61 O67 2.035 . S
O62 Zn61 2.028 . S
O62 C68 1.247 . S
O63 Zn59 2.035 . S
O63 C68 1.258 . S
O64 C57 1.247 . S
O64 Zn61 2.028 . S
O65 C57 1.258 . S
O65 Zn59 2.035 . S
O66 Zn59 2.028 . S
O66 C69 1.247 . S
O67 Zn61 2.035 . S
O67 C69 1.258 . S
C68 O62 1.247 . S
C68 O63 1.258 . S
C69 O66 1.247 . S
C69 O67 1.258 . S
C70 O72 1.247 . S
C70 O74 1.258 . S
C71 O78 1.247 . S
C71 O79 1.258 . S
O72 C70 1.247 . S
O72 Zn73 2.028 . S
Zn73 O72 2.028 . S
Zn73 O77 2.035 . S
Zn73 O79 2.035 . S
Zn73 O80 2.028 . S
O74 C70 1.258 . S
O74 Zn75 2.035 . S
Zn75 O74 2.035 . S
Zn75 O76 2.028 . S
Zn75 O78 2.028 . S
Zn75 O81 2.035 . S
O76 Zn75 2.028 . S
O76 C82 1.247 . S
O77 Zn73 2.035 . S
O77 C82 1.258 . S
O78 C71 1.247 . S
O78 Zn75 2.028 . S
O79 C71 1.258 . S
O79 Zn73 2.035 . S
O80 Zn73 2.028 . S
O80 C83 1.247 . S
O81 Zn75 2.035 . S
O81 C83 1.258 . S
C82 O76 1.247 . S
C82 O77 1.258 . S
C83 O80 1.247 . S
C83 O81 1.258 . S
H84 C90 0.930 1_554 S
H85 C94 0.930 . S
H86 C99 0.929 . S
H87 C97 0.929 . S
H88 C92 0.929 1_455 S
H89 C98 0.929 1_655 S
C90 H84 0.930 1_556 S
C90 C91 1.367 . S
C90 C98 1.378 . S
C91 C90 1.367 . S
C91 C99 1.433 . S
C92 H88 0.929 1_655 S
C92 C94 1.378 . S
C92 C96 1.350 . S
C93 C96 1.463 1_455 S
C93 C98 1.350 . S
C93 N101 1.427 . S
C94 H85 0.930 . S
C94 C92 1.378 . S
C94 C95 1.367 . S
C95 C94 1.367 . S
C95 C97 1.433 . S
C96 C92 1.350 . S
C96 C93 1.463 1_655 S
C96 N100 1.427 . S
C97 H87 0.929 . S
C97 C95 1.433 . S
C97 N100 1.384 . S
C98 H89 0.929 1_455 S
C98 C90 1.378 . S
C98 C93 1.350 . S
C99 H86 0.929 . S
C99 C91 1.433 . S
C99 N101 1.384 . S
N100 C96 1.427 . S
N100 C97 1.384 . S
N101 C93 1.427 . S
N101 C99 1.384 . S
H102 C108 0.930 . S
H103 C112 0.930 . S
H104 C117 0.929 . S
H105 C115 0.929 . S
H106 C110 0.929 1_565 S
H107 C116 0.929 1_545 S
C108 H102 0.930 . S
C108 C109 1.367 . S
C108 C116 1.378 . S
C109 C108 1.367 . S
C109 C117 1.433 . S
C110 H106 0.929 1_545 S
C110 C112 1.378 . S
C110 C114 1.350 . S
C111 C114 1.463 1_566 S
C111 C116 1.350 . S
C111 N119 1.427 . S
C112 H103 0.930 . S
C112 C110 1.378 . S
C112 C113 1.367 . S
C113 C112 1.367 . S
C113 C115 1.433 . S
C114 C110 1.350 . S
C114 C111 1.463 1_544 S
C114 N118 1.427 . S
C115 H105 0.929 . S
C115 C113 1.433 . S
C115 N118 1.384 . S
C116 H107 0.929 1_565 S
C116 C108 1.378 . S
C116 C111 1.350 . S
C117 H104 0.929 . S
C117 C109 1.433 . S
C117 N119 1.384 . S
N118 C114 1.427 . S
N118 C115 1.384 . S
N119 C111 1.427 . S
N119 C117 1.384 . S
H120 C126 0.930 . S
H121 C130 0.934 . S
H122 C135 0.929 . S
H123 C133 0.929 . S
H124 C128 0.929 . S
H125 C134 0.929 . S
C126 H120 0.930 . S
C126 C127 1.367 . S
C126 C134 1.378 . S
C127 C126 1.367 . S
C127 C135 1.433 . S
C128 H124 0.929 . S
C128 C130 1.378 . S
C128 C132 1.350 . S
C129 C132 1.463 . S
C129 C134 1.350 . S
C129 N137 1.427 . S
C130 H121 0.934 . S
C130 C128 1.378 . S
C130 C131 1.367 . S
C131 C130 1.367 . S
C131 C133 1.433 . S
C132 C128 1.350 . S
C132 C129 1.463 . S
C132 N136 1.427 . S
C133 H123 0.929 . S
C133 C131 1.433 . S
C133 N136 1.384 . S
C134 H125 0.929 . S
C134 C126 1.378 . S
C134 C129 1.350 . S
C135 H122 0.929 . S
C135 C127 1.433 . S
C135 N137 1.384 . S
N136 C132 1.427 . S
N136 C133 1.384 . S
N137 C129 1.427 . S
N137 C135 1.384 . S
H138 C144 0.930 . S
H139 C148 0.930 . S
H140 C153 0.929 . S
H141 C151 0.929 . S
H142 C146 0.929 . S
H143 C152 0.929 . S
C144 H138 0.930 . S
C144 C145 1.367 . S
C144 C152 1.378 . S
C145 C144 1.367 . S
C145 C153 1.433 . S
C146 H142 0.929 . S
C146 C148 1.378 . S
C146 C150 1.350 . S
C147 C150 1.463 1_655 S
C147 C152 1.350 . S
C147 N155 1.427 . S
C148 H139 0.930 . S
C148 C146 1.378 . S
C148 C149 1.367 . S
C149 C148 1.367 . S
C149 C151 1.433 . S
C150 C146 1.350 . S
C150 C147 1.463 1_455 S
C150 N154 1.427 . S
C151 H141 0.929 . S
C151 C149 1.433 . S
C151 N154 1.384 . S
C152 H143 0.929 . S
C152 C144 1.378 . S
C152 C147 1.350 . S
C153 H140 0.929 . S
C153 C145 1.433 . S
C153 N155 1.384 . S
N154 C150 1.427 . S
N154 C151 1.384 . S
N155 C147 1.427 . S
N155 C153 1.384 . S
H156 C162 0.930 . S
H157 C166 0.930 . S
H158 C171 0.929 . S
H159 C169 0.929 . S
H160 C164 0.929 1_545 S
H161 C170 0.929 1_565 S
C162 H156 0.930 . S
C162 C163 1.367 . S
C162 C170 1.378 . S
C163 C162 1.367 . S
C163 C171 1.433 . S
C164 H160 0.929 1_565 S
C164 C166 1.378 . S
C164 C168 1.350 . S
C165 C168 1.463 1_545 S
C165 C170 1.350 . S
C165 N173 1.427 . S
C166 H157 0.930 . S
C166 C164 1.378 . S
C166 C167 1.367 . S
C167 C166 1.367 . S
C167 C169 1.433 . S
C168 C164 1.350 . S
C168 C165 1.463 1_565 S
C168 N172 1.427 . S
C169 H159 0.929 . S
C169 C167 1.433 . S
C169 N172 1.384 . S
C170 H161 0.929 1_545 S
C170 C162 1.378 . S
C170 C165 1.350 . S
C171 H158 0.929 . S
C171 C163 1.433 . S
C171 N173 1.384 . S
N172 C168 1.427 . S
N172 C169 1.384 . S
N173 C165 1.427 . S
N173 C171 1.384 . S
H174 C180 0.930 . S
H175 C184 0.930 . S
H176 C189 0.929 . S
H177 C187 0.929 . S
H178 C182 0.929 . S
H179 C188 0.929 . S
C180 H174 0.930 . S
C180 C181 1.367 . S
C180 C188 1.378 . S
C181 C180 1.367 . S
C181 C189 1.433 . S
C182 H178 0.929 . S
C182 C184 1.378 . S
C182 C186 1.350 . S
C183 C186 1.463 . S
C183 C188 1.350 . S
C183 N191 1.427 . S
C184 H175 0.930 . S
C184 C182 1.378 . S
C184 C185 1.367 . S
C185 C184 1.367 . S
C185 C187 1.433 . S
C186 C182 1.350 . S
C186 C183 1.463 . S
C186 N190 1.427 . S
C187 H177 0.929 . S
C187 C185 1.433 . S
C187 N190 1.384 . S
C188 H179 0.929 . S
C188 C180 1.378 . S
C188 C183 1.350 . S
C189 H176 0.929 . S
C189 C181 1.433 . S
C189 N191 1.384 . S
N190 C186 1.427 . S
N190 C187 1.384 . S
N191 C183 1.427 . S
N191 C189 1.384 . S
H192 C198 0.930 . S
H193 C202 0.930 . S
H194 C207 0.929 . S
H195 C205 0.929 . S
H196 C200 0.929 . S
H197 C206 0.929 . S
C198 H192 0.930 . S
C198 C199 1.367 . S
C198 C206 1.378 . S
C199 C198 1.367 . S
C199 C207 1.433 . S
C200 H196 0.929 . S
C200 C202 1.378 . S
C200 C204 1.350 . S
C201 C204 1.463 . S
C201 C206 1.350 . S
C201 N209 1.427 . S
C202 H193 0.930 . S
C202 C200 1.378 . S
C202 C203 1.367 . S
C203 C202 1.367 . S
C203 C205 1.433 . S
C204 C200 1.350 . S
C204 C201 1.463 . S
C204 N208 1.427 . S
C205 H195 0.929 . S
C205 C203 1.433 . S
C205 N208 1.384 . S
C206 H197 0.929 . S
C206 C198 1.378 . S
C206 C201 1.350 . S
C207 H194 0.929 . S
C207 C199 1.433 . S
C207 N209 1.384 . S
N208 C204 1.427 . S
N208 C205 1.384 . S
N209 C201 1.427 . S
N209 C207 1.384 . S
H210 C216 0.930 . S
H211 C220 0.930 . S
H212 C225 0.929 . S
H213 C223 0.929 . S
H214 C218 0.929 . S
H215 C224 0.929 . S
C216 H210 0.930 . S
C216 C217 1.367 . S
C216 C224 1.378 . S
C217 C216 1.367 . S
C217 C225 1.433 . S
C218 H214 0.929 . S
C218 C220 1.378 . S
C218 C222 1.350 . S
C219 C222 1.463 . S
C219 C224 1.350 . S
C219 N227 1.427 . S
C220 H211 0.930 . S
C220 C218 1.378 . S
C220 C221 1.367 . S
C221 C220 1.367 . S
C221 C223 1.433 . S
C222 C218 1.350 . S
C222 C219 1.463 . S
C222 N226 1.427 . S
C223 H213 0.929 . S
C223 C221 1.433 . S
C223 N226 1.384 . S
C224 H215 0.929 . S
C224 C216 1.378 . S
C224 C219 1.350 . S
C225 H212 0.929 . S
C225 C217 1.433 . S
C225 N227 1.384 . S
N226 C222 1.427 . S
N226 C223 1.384 . S
N227 C219 1.427 . S
N227 C225 1.384 . S
H228 C234 0.930 . S
H229 C238 0.930 . S
H230 C243 0.929 . S
H231 C241 0.929 . S
H232 C236 0.929 . S
H233 C242 0.929 . S
C234 H228 0.930 . S
C234 C235 1.367 . S
C234 C242 1.378 . S
C235 C234 1.367 . S
C235 C243 1.433 . S
C236 H232 0.929 . S
C236 C238 1.378 . S
C236 C240 1.350 . S
C237 C240 1.463 . S
C237 C242 1.350 . S
C237 N245 1.427 . S
C238 H229 0.930 . S
C238 C236 1.378 . S
C238 C239 1.367 . S
C239 C238 1.367 . S
C239 C241 1.433 . S
C240 C236 1.350 . S
C240 C237 1.463 . S
C240 N244 1.427 . S
C241 H231 0.929 . S
C241 C239 1.433 . S
C241 N244 1.384 . S
C242 H233 0.929 . S
C242 C234 1.378 . S
C242 C237 1.350 . S
C243 H230 0.929 . S
C243 C235 1.433 . S
C243 N245 1.384 . S
N244 C240 1.427 . S
N244 C241 1.384 . S
N245 C237 1.427 . S
N245 C243 1.384 . S
H246 C252 0.930 . S
H247 C256 0.930 . S
H248 C261 0.929 . S
H249 C259 0.929 . S
H250 C254 0.929 . S
H251 C260 0.929 . S
C252 H246 0.930 . S
C252 C253 1.367 . S
C252 C260 1.378 . S
C253 C252 1.367 . S
C253 C261 1.433 . S
C254 H250 0.929 . S
C254 C256 1.378 . S
C254 C258 1.350 . S
C255 C258 1.463 . S
C255 C260 1.350 . S
C255 N263 1.427 . S
C256 H247 0.930 . S
C256 C254 1.378 . S
C256 C257 1.367 . S
C257 C256 1.367 . S
C257 C259 1.433 . S
C258 C254 1.350 . S
C258 C255 1.463 . S
C258 N262 1.427 . S
C259 H249 0.929 . S
C259 C257 1.433 . S
C259 N262 1.384 . S
C260 H251 0.929 . S
C260 C252 1.378 . S
C260 C255 1.350 . S
C261 H248 0.929 . S
C261 C253 1.433 . S
C261 N263 1.384 . S
N262 C258 1.427 . S
N262 C259 1.384 . S
N263 C255 1.427 . S
N263 C261 1.384 . S
H264 C270 0.930 . S
H265 C274 0.930 . S
H266 C279 0.929 . S
H267 C277 0.929 . S
H268 C272 0.929 1_554 S
H269 C278 0.929 . S
C270 H264 0.930 . S
C270 C271 1.367 . S
C270 C278 1.378 . S
C271 C270 1.367 . S
C271 C279 1.433 . S
C272 H268 0.929 1_556 S
C272 C274 1.378 1_556 S
C272 C276 1.350 . S
C273 C276 1.463 . S
C273 C278 1.350 . S
C273 N281 1.427 . S
C274 H265 0.930 . S
C274 C272 1.378 1_554 S
C274 C275 1.367 1_554 S
C275 C274 1.367 1_556 S
C275 C277 1.433 . S
C276 C272 1.350 . S
C276 C273 1.463 . S
C276 N280 1.427 . S
C277 H267 0.929 . S
C277 C275 1.433 . S
C277 N280 1.384 . S
C278 H269 0.929 . S
C278 C270 1.378 . S
C278 C273 1.350 . S
C279 H266 0.929 . S
C279 C271 1.433 . S
C279 N281 1.384 . S
N280 C276 1.427 . S
N280 C277 1.384 . S
N281 C273 1.427 . S
N281 C279 1.384 . S
H282 C288 0.930 . S
H283 C292 0.930 . S
H284 C297 0.929 . S
H285 C295 0.929 . S
H286 C290 0.929 . S
H287 C296 0.927 1_556 S
C288 H282 0.930 . S
C288 C289 1.367 1_556 S
C288 C296 1.378 1_556 S
C289 C288 1.367 1_554 S
C289 C297 1.433 . S
C290 H286 0.929 . S
C290 C292 1.378 . S
C290 C294 1.350 . S
C291 C294 1.463 . S
C291 C296 1.350 . S
C291 N299 1.427 . S
C292 H283 0.930 . S
C292 C290 1.378 . S
C292 C293 1.367 . S
C293 C292 1.367 . S
C293 C295 1.433 . S
C294 C290 1.350 . S
C294 C291 1.463 . S
C294 N298 1.427 . S
C295 H285 0.929 . S
C295 C293 1.433 . S
C295 N298 1.384 . S
C296 H287 0.927 1_554 S
C296 C288 1.378 1_554 S
C296 C291 1.350 . S
C297 H284 0.929 . S
C297 C289 1.433 . S
C297 N299 1.384 . S
N298 C294 1.427 . S
N298 C295 1.384 . S
N299 C291 1.427 . S
N299 C297 1.384 . S
C91 C13 1.825 1_556 S
C95 C54 1.826 . S
C109 C68 1.822 . S
C113 C26 1.826 . S
C127 C28 1.823 . S
C131 C83 1.827 1_554 S
C145 C43 1.821 . S
C149 C0 1.819 . S
C163 C15 1.827 . S
C167 C57 1.824 . S
C181 C70 1.822 . S
C185 C41 1.827 . S
C199 C12 1.615 . S
C203 C40 1.621 . S
C217 C27 1.618 . S
C221 C55 1.616 . S
C235 C69 1.619 . S
C239 C29 1.616 . S
C253 C82 1.620 . S
C257 C42 1.622 . S
C271 C56 1.617 . S
C275 C1 1.616 1_556 S
C289 C71 1.619 1_554 S
C293 C14 1.614 . S
