# Generated by pormake.
# Topology umw, (4)-cn, num edge types: 1
# Building blocks:
#     Node 0, Type 0, BuildingBlock: NAHDIM_clean_sbu_0, # of connection points: 4
#     Node 1, Type 0, BuildingBlock: NAHDIM_clean_sbu_0, # of connection points: 4
#     Node 2, Type 0, BuildingBlock: NAHDIM_clean_sbu_0, # of connection points: 4
#     Node 3, Type 0, BuildingBlock: NAHDIM_clean_sbu_0, # of connection points: 4
#     Node 4, Type 0, BuildingBlock: NAHDIM_clean_sbu_0, # of connection points: 4
#     Node 5, Type 0, BuildingBlock: NAHDIM_clean_sbu_0, # of connection points: 4
#     Node 6, Type 0, BuildingBlock: NAHDIM_clean_sbu_0, # of connection points: 4
#     Node 7, Type 0, BuildingBlock: NAHDIM_clean_sbu_0, # of connection points: 4
#     Edge 8, Type (0, 0), BuildingBlock: KIFKEQ_clean_linker_1, # of connection points: 2
#     Edge 9, Type (0, 0), BuildingBlock: KIFKEQ_clean_linker_1, # of connection points: 2
#     Edge 10, Type (0, 0), BuildingBlock: KIFKEQ_clean_linker_1, # of connection points: 2
#     Edge 11, Type (0, 0), BuildingBlock: KIFKEQ_clean_linker_1, # of connection points: 2
#     Edge 12, Type (0, 0), BuildingBlock: KIFKEQ_clean_linker_1, # of connection points: 2
#     Edge 13, Type (0, 0), BuildingBlock: KIFKEQ_clean_linker_1, # of connection points: 2
#     Edge 14, Type (0, 0), BuildingBlock: KIFKEQ_clean_linker_1, # of connection points: 2
#     Edge 15, Type (0, 0), BuildingBlock: KIFKEQ_clean_linker_1, # of connection points: 2
#     Edge 16, Type (0, 0), BuildingBlock: KIFKEQ_clean_linker_1, # of connection points: 2
#     Edge 17, Type (0, 0), BuildingBlock: KIFKEQ_clean_linker_1, # of connection points: 2
#     Edge 18, Type (0, 0), BuildingBlock: KIFKEQ_clean_linker_1, # of connection points: 2
#     Edge 19, Type (0, 0), BuildingBlock: KIFKEQ_clean_linker_1, # of connection points: 2
#     Edge 20, Type (0, 0), BuildingBlock: KIFKEQ_clean_linker_1, # of connection points: 2
#     Edge 21, Type (0, 0), BuildingBlock: KIFKEQ_clean_linker_1, # of connection points: 2
#     Edge 22, Type (0, 0), BuildingBlock: KIFKEQ_clean_linker_1, # of connection points: 2
#     Edge 23, Type (0, 0), BuildingBlock: KIFKEQ_clean_linker_1, # of connection points: 2
# Relax obj value: 0.144
# Max RMSD: 0.106
# Mean RMSD: 0.106
data_MOF--net-umw--node1-NAHDIM_clean_sbu_0--edge1-KIFKEQ_clean_linker_1
_symmetry_space_group_name_H-M    P1
_symmetry_Int_Tables_number       1
_symmetry_cell_setting            triclinic
loop_
_symmetry_equiv_pos_as_xyz
'x, y, z'
_cell_length_a     44.599403
_cell_length_b     44.684587
_cell_length_c     23.853917
_cell_angle_alpha  90.061467
_cell_angle_beta   90.025702
_cell_angle_gamma 90.016562
loop_
_atom_site_label
_atom_site_type_symbol
_atom_site_fract_x
_atom_site_fract_y
_atom_site_fract_z
_atom_type_partial_charge
C0 C 0.36393 0.21997 0.29503 0.0
O1 O 0.39166 0.22887 0.28679 0.0
O2 O 0.41199 0.17384 0.19616 0.0
Zn3 Zn 0.39007 0.16393 0.268 0.0
O4 O 0.41776 0.16502 0.33397 0.0
C5 C 0.37882 0.10371 0.22693 0.0
O6 O 0.39419 0.1125 0.18296 0.0
O7 O 0.35718 0.19281 0.28574 0.0
C8 C 0.44104 0.14881 0.33771 0.0
O9 O 0.44864 0.13152 0.29546 0.0
C10 C 0.43683 0.18783 0.19585 0.0
O11 O 0.44804 0.19759 0.2434 0.0
O12 O 0.37358 0.12221 0.26615 0.0
C13 C 0.77487 0.36901 0.56988 0.0
O14 O 0.77069 0.39791 0.57628 0.0
O15 O 0.81767 0.41228 0.45429 0.0
Zn16 Zn 0.82918 0.39115 0.52587 0.0
O17 O 0.83014 0.42039 0.5899 0.0
C18 C 0.88897 0.38156 0.48342 0.0
O19 O 0.88041 0.40123 0.44579 0.0
O20 O 0.79874 0.35991 0.54629 0.0
C21 C 0.85361 0.43356 0.6073 0.0
O22 O 0.8792 0.42911 0.5814 0.0
C23 C 0.80306 0.43671 0.45511 0.0
O24 O 0.79463 0.44795 0.50351 0.0
O25 O 0.87029 0.37286 0.52016 0.0
C26 C 0.6256 0.77063 0.78743 0.0
O27 O 0.59647 0.7671 0.79203 0.0
O28 O 0.58172 0.81831 0.68052 0.0
Zn29 Zn 0.60521 0.8269 0.75141 0.0
O30 O 0.57834 0.828 0.81865 0.0
C31 C 0.6169 0.88751 0.71476 0.0
O32 O 0.5972 0.88096 0.67568 0.0
O33 O 0.63565 0.79495 0.7672 0.0
C34 C 0.55553 0.84478 0.8234 0.0
O35 O 0.54754 0.8619 0.78121 0.0
C36 C 0.5566 0.80482 0.68131 0.0
O37 O 0.54578 0.79545 0.72938 0.0
O38 O 0.62479 0.86737 0.74927 0.0
C39 C 0.20757 0.64915 0.00133 0.0
O40 O 0.21467 0.63513 0.95479 0.0
O41 O 0.16594 0.58379 0.94214 0.0
Zn42 Zn 0.15752 0.60608 0.01395 0.0
O43 O 0.16332 0.57924 0.0806 0.0
C44 C 0.09549 0.59746 0.01766 0.0
O45 O 0.10537 0.56982 0.01463 0.0
O46 O 0.18438 0.64124 0.0284 0.0
C47 C 0.16437 0.55084 0.08091 0.0
O48 O 0.16204 0.53601 0.03353 0.0
C49 C 0.18996 0.56939 0.93238 0.0
O50 O 0.21173 0.56991 0.96951 0.0
O51 O 0.1143 0.61879 0.01572 0.0
C52 C 0.36208 0.77141 0.20732 0.0
O53 O 0.3905 0.76472 0.2 0.0
O54 O 0.40977 0.81309 0.32518 0.0
Zn55 Zn 0.38844 0.82372 0.25314 0.0
O56 O 0.41664 0.82389 0.18789 0.0
C57 C 0.3782 0.88383 0.29541 0.0
O58 O 0.39458 0.87494 0.33803 0.0
O59 O 0.35532 0.79531 0.23329 0.0
C60 C 0.44003 0.84002 0.18544 0.0
O61 O 0.44765 0.85646 0.22886 0.0
C62 C 0.43439 0.79876 0.32602 0.0
O63 O 0.44568 0.78879 0.27869 0.0
O64 O 0.37196 0.86541 0.25657 0.0
C65 C 0.22629 0.35854 0.50621 0.0
O66 O 0.23702 0.38493 0.51981 0.0
O67 O 0.17733 0.41124 0.59212 0.0
Zn68 Zn 0.17048 0.38909 0.51939 0.0
O69 O 0.17716 0.41665 0.4547 0.0
C70 C 0.10951 0.37432 0.55404 0.0
O71 O 0.11891 0.38142 0.60454 0.0
O72 O 0.19813 0.35438 0.50724 0.0
C73 C 0.16016 0.439 0.44665 0.0
O74 O 0.13876 0.44476 0.48294 0.0
C75 C 0.19507 0.43347 0.59525 0.0
O76 O 0.2105 0.44138 0.55078 0.0
O77 O 0.12775 0.37531 0.51323 0.0
C78 C 0.62971 0.2214 0.73812 0.0
O79 O 0.60075 0.2256 0.73179 0.0
O80 O 0.58436 0.17219 0.84127 0.0
Zn81 Zn 0.60783 0.16481 0.77006 0.0
O82 O 0.58085 0.1653 0.70294 0.0
C83 C 0.62193 0.10433 0.80673 0.0
O84 O 0.60613 0.11147 0.85124 0.0
O85 O 0.63891 0.19652 0.75726 0.0
C86 C 0.55786 0.1487 0.69857 0.0
O87 O 0.55025 0.13131 0.74061 0.0
C88 C 0.55966 0.18641 0.84136 0.0
O89 O 0.54934 0.19739 0.79408 0.0
O90 O 0.62661 0.12398 0.76932 0.0
C91 C 0.76392 0.6264 0.98373 0.0
O92 O 0.75963 0.5974 0.97953 0.0
O93 O 0.80425 0.58263 0.10052 0.0
Zn94 Zn 0.8172 0.60448 0.03057 0.0
O95 O 0.82016 0.57588 0.96598 0.0
C96 C 0.87478 0.61439 0.08191 0.0
O97 O 0.86309 0.59778 0.12168 0.0
O98 O 0.78753 0.63589 0.00775 0.0
C99 C 0.84213 0.55816 0.95926 0.0
O100 O 0.86359 0.55746 0.99698 0.0
C101 C 0.79321 0.55641 0.09926 0.0
O102 O 0.78813 0.54358 0.0506 0.0
O103 O 0.85857 0.62181 0.04036 0.0
H104 H 0.42331 0.16907 0.44014 0.0
H105 H 0.49804 0.12805 0.35406 0.0
H106 H 0.45159 0.16815 0.5277 0.0
H107 H 0.52646 0.12754 0.44194 0.0
H108 H 0.57557 0.16971 0.59669 0.0
H109 H 0.54746 0.16889 0.50889 0.0
H110 H 0.47308 0.12654 0.59313 0.0
H111 H 0.50132 0.12696 0.68117 0.0
C112 C 0.44582 0.15996 0.43987 0.0
C113 C 0.45852 0.14865 0.39024 0.0
C114 C 0.46187 0.15927 0.49005 0.0
C115 C 0.49109 0.14772 0.4914 0.0
C116 C 0.50396 0.13666 0.44178 0.0
C117 C 0.4877 0.13688 0.39167 0.0
C118 C 0.55322 0.16022 0.59655 0.0
C119 C 0.54059 0.14843 0.64581 0.0
C120 C 0.53726 0.15959 0.54624 0.0
C121 C 0.50821 0.14761 0.54442 0.0
C122 C 0.49544 0.13601 0.59365 0.0
C123 C 0.51161 0.13617 0.64386 0.0
H124 H 0.89951 0.46359 0.65886 0.0
H125 H 0.8044 0.44601 0.671 0.0
H126 H 0.89696 0.49373 0.74416 0.0
H127 H 0.80204 0.47549 0.75657 0.0
H128 H 0.80259 0.55652 0.87211 0.0
H129 H 0.80598 0.52711 0.78657 0.0
H130 H 0.88875 0.48781 0.8452 0.0
H131 H 0.88574 0.51783 0.93061 0.0
C132 C 0.87809 0.46615 0.67968 0.0
C133 C 0.85216 0.45247 0.65808 0.0
C134 C 0.87668 0.48321 0.72876 0.0
C135 C 0.84931 0.48697 0.75712 0.0
C136 C 0.8234 0.47337 0.73532 0.0
C137 C 0.82479 0.45634 0.68636 0.0
C138 C 0.82151 0.54158 0.86691 0.0
C139 C 0.84389 0.53949 0.90821 0.0
C140 C 0.82337 0.52462 0.81794 0.0
C141 C 0.84761 0.5051 0.80914 0.0
C142 C 0.86999 0.50294 0.85047 0.0
C143 C 0.86815 0.51997 0.89955 0.0
H144 H 0.42237 0.82125 0.08197 0.0
H145 H 0.49678 0.86179 0.17001 0.0
H146 H 0.45042 0.82398 0.9944 0.0
H147 H 0.52499 0.86414 0.08202 0.0
H148 H 0.57408 0.82409 0.92495 0.0
H149 H 0.54639 0.82427 0.01313 0.0
H150 H 0.47127 0.86634 0.93066 0.0
H151 H 0.49909 0.86652 0.84216 0.0
C152 C 0.44476 0.83065 0.08267 0.0
C153 C 0.45743 0.84127 0.13288 0.0
C154 C 0.46067 0.8324 0.03246 0.0
C155 C 0.48974 0.84436 0.03159 0.0
C156 C 0.50259 0.85475 0.08177 0.0
C157 C 0.48646 0.85345 0.13196 0.0
C158 C 0.55167 0.83344 0.92558 0.0
C159 C 0.53868 0.84522 0.87662 0.0
C160 C 0.53596 0.83371 0.97612 0.0
C161 C 0.50678 0.84533 0.97852 0.0
C162 C 0.49373 0.85712 0.92968 0.0
C163 C 0.50965 0.8573 0.87921 0.0
H164 H 0.19857 0.42943 0.35935 0.0
H165 H 0.12833 0.48872 0.41658 0.0
H166 H 0.20147 0.45701 0.27142 0.0
H167 H 0.13112 0.5161 0.32832 0.0
H168 H 0.1649 0.57511 0.18591 0.0
H169 H 0.16585 0.54886 0.27527 0.0
H170 H 0.16878 0.46418 0.18796 0.0
H171 H 0.16813 0.49042 0.09823 0.0
C172 C 0.18384 0.44843 0.35331 0.0
C173 C 0.16314 0.45686 0.39488 0.0
C174 C 0.1854 0.46409 0.3028 0.0
C175 C 0.16644 0.48859 0.29295 0.0
C176 C 0.1462 0.49744 0.33498 0.0
C177 C 0.14452 0.48169 0.38541 0.0
C178 C 0.16591 0.55089 0.18565 0.0
C179 C 0.16634 0.53482 0.13493 0.0
C180 C 0.16629 0.53589 0.23689 0.0
C181 C 0.16726 0.50451 0.23856 0.0
C182 C 0.16829 0.48842 0.18791 0.0
C183 C 0.16777 0.50343 0.13656 0.0
H184 H 0.36808 0.28044 0.3091 0.0
H185 H 0.31094 0.20468 0.34453 0.0
H186 H 0.33441 0.31279 0.36191 0.0
H187 H 0.27796 0.23668 0.39928 0.0
H188 H 0.2099 0.30894 0.44674 0.0
H189 H 0.24233 0.27557 0.39383 0.0
H190 H 0.32009 0.32307 0.45576 0.0
H191 H 0.28747 0.35726 0.50684 0.0
C192 C 0.34829 0.27071 0.32812 0.0
C193 C 0.34216 0.24004 0.32263 0.0
C194 C 0.32915 0.28918 0.35893 0.0
C195 C 0.30363 0.2773 0.38551 0.0
C196 C 0.29721 0.24669 0.37896 0.0
C197 C 0.31617 0.2283 0.34759 0.0
C198 C 0.23393 0.31205 0.4496 0.0
C199 C 0.24613 0.33583 0.48075 0.0
C200 C 0.25257 0.29286 0.41928 0.0
C201 C 0.28385 0.29679 0.41996 0.0
C202 C 0.29607 0.31984 0.45311 0.0
C203 C 0.2774 0.33925 0.48291 0.0
H204 H 0.77658 0.3078 0.56515 0.0
H205 H 0.72424 0.38169 0.6293 0.0
H206 H 0.74157 0.27263 0.60792 0.0
H207 H 0.68976 0.3466 0.67303 0.0
H208 H 0.61687 0.27489 0.68877 0.0
H209 H 0.65185 0.31041 0.64775 0.0
H210 H 0.72614 0.25505 0.70027 0.0
H211 H 0.69104 0.21904 0.7403 0.0
C212 C 0.75762 0.31654 0.58834 0.0
C213 C 0.75315 0.34753 0.59371 0.0
C214 C 0.73772 0.29639 0.61325 0.0
C215 C 0.71296 0.30683 0.64407 0.0
C216 C 0.70841 0.33783 0.64904 0.0
C217 C 0.72825 0.35795 0.62408 0.0
C218 C 0.64067 0.27035 0.69196 0.0
C219 C 0.65117 0.24409 0.71766 0.0
C220 C 0.66073 0.2908 0.66859 0.0
C221 C 0.69177 0.28549 0.67051 0.0
C222 C 0.70232 0.25953 0.6973 0.0
C223 C 0.68223 0.23904 0.72065 0.0
H224 H 0.76628 0.68764 0.98265 0.0
H225 H 0.71449 0.61258 0.92163 0.0
H226 H 0.733 0.72188 0.93297 0.0
H227 H 0.68178 0.64669 0.871 0.0
H228 H 0.61065 0.71866 0.84018 0.0
H229 H 0.64387 0.684 0.88817 0.0
H230 H 0.72037 0.73685 0.83764 0.0
H231 H 0.68699 0.77207 0.79061 0.0
C232 C 0.7478 0.67845 0.95871 0.0
C233 C 0.74299 0.6474 0.95619 0.0
C234 C 0.7289 0.69805 0.92984 0.0
C235 C 0.70483 0.68699 0.89779 0.0
C236 C 0.6999 0.65595 0.89579 0.0
C237 C 0.71873 0.63639 0.92473 0.0
C238 C 0.63457 0.72281 0.83888 0.0
C239 C 0.64617 0.74818 0.81171 0.0
C240 C 0.65363 0.70285 0.86627 0.0
C241 C 0.68476 0.70774 0.86699 0.0
C242 C 0.69644 0.73273 0.83864 0.0
C243 C 0.67734 0.75276 0.81128 0.0
H244 H 0.26298 0.6664 0.96358 0.0
H245 H 0.19998 0.68012 0.09887 0.0
H246 H 0.29979 0.69707 0.01306 0.0
H247 H 0.23689 0.70996 0.1487 0.0
H248 H 0.30205 0.78342 0.20149 0.0
H249 H 0.26411 0.75645 0.14807 0.0
H250 H 0.33086 0.69203 0.09625 0.0
H251 H 0.36896 0.7194 0.14852 0.0
C252 C 0.25687 0.67616 0.00355 0.0
C253 C 0.22861 0.67067 0.02738 0.0
C254 C 0.27806 0.69349 0.03216 0.0
C255 C 0.27139 0.70567 0.08513 0.0
C256 C 0.2427 0.70111 0.10783 0.0
C257 C 0.22156 0.68388 0.07927 0.0
C258 C 0.3086 0.76339 0.17902 0.0
C259 C 0.33853 0.75356 0.17926 0.0
C260 C 0.28684 0.74792 0.1484 0.0
C261 C 0.2945 0.72222 0.11752 0.0
C262 C 0.32433 0.7121 0.11865 0.0
C263 C 0.34611 0.72761 0.14913 0.0
H264 H 0.35093 0.91047 0.20579 0.0
H265 H 0.38901 0.92969 0.36862 0.0
H266 H 0.34489 0.9639 0.1887 0.0
H267 H 0.38317 0.9831 0.35116 0.0
H268 H 0.35292 0.0774 0.31826 0.0
H269 H 0.34654 0.02405 0.33582 0.0
H270 H 0.38184 0.00435 0.17129 0.0
H271 H 0.388 0.05767 0.15337 0.0
C272 C 0.35763 0.92605 0.23828 0.0
C273 C 0.37074 0.91584 0.28839 0.0
C274 C 0.35429 0.95664 0.2283 0.0
C275 C 0.36378 0.97765 0.26836 0.0
C276 C 0.37542 0.96742 0.31965 0.0
C277 C 0.37892 0.93682 0.32954 0.0
C278 C 0.3589 0.06173 0.28545 0.0
C279 C 0.37125 0.07176 0.23458 0.0
C280 C 0.35536 0.03118 0.29569 0.0
C281 C 0.3639 0.01005 0.25514 0.0
C282 C 0.37481 0.02012 0.20319 0.0
C283 C 0.3785 0.05068 0.19304 0.0
H284 H 0.93516 0.39846 0.41539 0.0
H285 H 0.91534 0.34668 0.56381 0.0
H286 H 0.98852 0.39128 0.43156 0.0
H287 H 0.96886 0.33907 0.57938 0.0
H288 H 0.06325 0.37568 0.62929 0.0
H289 H 0.00981 0.37187 0.6092 0.0
H290 H 0.02959 0.35543 0.43458 0.0
H291 H 0.083 0.35979 0.45437 0.0
C292 C 0.94216 0.38507 0.45089 0.0
C293 C 0.921 0.37341 0.4886 0.0
C294 C 0.97278 0.38081 0.46 0.0
C295 C 0.98294 0.36478 0.50702 0.0
C296 C 0.96173 0.3519 0.54326 0.0
C297 C 0.93107 0.35612 0.53409 0.0
C298 C 0.05623 0.37087 0.58675 0.0
C299 C 0.07737 0.36838 0.54336 0.0
C300 C 0.02559 0.3685 0.57527 0.0
C301 C 0.01545 0.36355 0.52019 0.0
C302 C 0.03667 0.35971 0.47728 0.0
C303 C 0.06729 0.36209 0.48872 0.0
H304 H 0.6056 0.9359 0.64817 0.0
H305 H 0.64828 0.91032 0.80365 0.0
H306 H 0.6137 0.98845 0.67102 0.0
H307 H 0.65648 0.96296 0.82625 0.0
H308 H 0.61495 0.05625 0.87635 0.0
H309 H 0.62052 0.00352 0.85222 0.0
H310 H 0.6521 0.02806 0.68744 0.0
H311 H 0.64641 0.08083 0.71129 0.0
C312 C 0.6172 0.94145 0.68671 0.0
C313 C 0.626 0.91894 0.72432 0.0
C314 C 0.62199 0.97157 0.69967 0.0
C315 C 0.63554 0.9798 0.75064 0.0
C316 C 0.64568 0.95726 0.78697 0.0
C317 C 0.6411 0.92712 0.77382 0.0
C318 C 0.62359 0.05044 0.83533 0.0
C319 C 0.62989 0.07274 0.79556 0.0
C320 C 0.62694 0.02022 0.8216 0.0
C321 C 0.6365 0.01169 0.76775 0.0
C322 C 0.64433 0.034 0.72901 0.0
C323 C 0.64119 0.06422 0.74285 0.0
H324 H 0.90707 0.6453 0.00318 0.0
H325 H 0.91681 0.59352 0.15514 0.0
H326 H 0.96144 0.64466 0.99052 0.0
H327 H 0.97097 0.59296 0.14222 0.0
H328 H 0.05282 0.55672 0.04536 0.0
H329 H 0.00024 0.5657 0.06613 0.0
H330 H 0.01241 0.66004 0.03452 0.0
H331 H 0.06556 0.65114 0.01383 0.0
C332 C 0.9208 0.63434 0.03447 0.0
C333 C 0.90758 0.61908 0.07973 0.0
C334 C 0.95192 0.63406 0.02725 0.0
C335 C 0.97026 0.61837 0.06494 0.0
C336 C 0.95722 0.60482 0.1121 0.0
C337 C 0.92621 0.60528 0.11957 0.0
C338 C 0.04439 0.57941 0.04268 0.0
C339 C 0.06335 0.60323 0.02795 0.0
C340 C 0.01432 0.58456 0.0551 0.0
C341 C 0.00241 0.6136 0.05256 0.0
C342 C 0.02113 0.63745 0.03688 0.0
C343 C 0.05146 0.63234 0.02509 0.0
H344 H 0.50291 0.20861 0.85318 0.0
H345 H 0.57629 0.17057 0.94765 0.0
H346 H 0.47296 0.21146 0.93863 0.0
H347 H 0.54624 0.17333 0.03293 0.0
H348 H 0.49385 0.20915 0.18313 0.0
H349 H 0.52357 0.21107 0.09736 0.0
H350 H 0.44889 0.17501 0.00385 0.0
H351 H 0.41905 0.17318 0.08949 0.0
C352 C 0.51272 0.20099 0.89218 0.0
C353 C 0.54198 0.18931 0.89359 0.0
C354 C 0.49549 0.20249 0.94104 0.0
C355 C 0.50724 0.19259 0.99243 0.0
C356 C 0.53669 0.18142 0.99404 0.0
C357 C 0.55384 0.17969 0.94512 0.0
C358 C 0.48366 0.20186 0.14423 0.0
C359 C 0.4541 0.19093 0.14319 0.0
C360 C 0.50076 0.2028 0.09518 0.0
C361 C 0.4886 0.19307 0.04396 0.0
C362 C 0.45879 0.18289 0.04262 0.0
C363 C 0.44175 0.18173 0.09174 0.0
H364 H 0.80275 0.57586 0.20648 0.0
H365 H 0.77536 0.49819 0.11116 0.0
H366 H 0.80159 0.54632 0.29216 0.0
H367 H 0.77381 0.46875 0.19718 0.0
H368 H 0.81798 0.42021 0.34825 0.0
H369 H 0.81161 0.44915 0.26256 0.0
H370 H 0.76842 0.51951 0.35698 0.0
H371 H 0.77514 0.49077 0.44293 0.0
C372 C 0.79606 0.55259 0.20388 0.0
C373 C 0.78934 0.53934 0.1519 0.0
C374 C 0.79525 0.53569 0.25308 0.0
C375 C 0.78776 0.50514 0.25141 0.0
C376 C 0.78007 0.49213 0.1997 0.0
C377 C 0.78078 0.50907 0.15047 0.0
C378 C 0.80691 0.44174 0.35072 0.0
C379 C 0.79725 0.45326 0.4025 0.0
C380 C 0.80309 0.45825 0.30152 0.0
C381 C 0.78958 0.48667 0.30302 0.0
C382 C 0.77924 0.49785 0.35459 0.0
C383 C 0.78298 0.48131 0.40378 0.0
H384 H 0.49965 0.78296 0.67042 0.0
H385 H 0.57372 0.81814 0.57404 0.0
H386 H 0.46991 0.7786 0.58494 0.0
H387 H 0.54384 0.81394 0.48869 0.0
H388 H 0.49114 0.77682 0.3401 0.0
H389 H 0.52075 0.77577 0.42615 0.0
H390 H 0.44629 0.81371 0.51748 0.0
H391 H 0.41658 0.81462 0.43166 0.0
C392 C 0.50966 0.78963 0.631 0.0
C393 C 0.53905 0.80097 0.62908 0.0
C394 C 0.49254 0.78726 0.58209 0.0
C395 C 0.50451 0.79596 0.53012 0.0
C396 C 0.5341 0.80675 0.52803 0.0
C397 C 0.55116 0.80932 0.57699 0.0
C398 C 0.48096 0.78467 0.37862 0.0
C399 C 0.45151 0.79589 0.37896 0.0
C400 C 0.49801 0.78424 0.42782 0.0
C401 C 0.4859 0.79478 0.47851 0.0
C402 C 0.45617 0.80519 0.47917 0.0
C403 C 0.43919 0.80582 0.42992 0.0
H404 H 0.14493 0.55365 0.86079 0.0
H405 H 0.23971 0.54119 0.89065 0.0
H406 H 0.14763 0.5198 0.7808 0.0
H407 H 0.24232 0.50729 0.81011 0.0
H408 H 0.23563 0.47717 0.62149 0.0
H409 H 0.23556 0.50995 0.7036 0.0
H410 H 0.15736 0.4643 0.76723 0.0
H411 H 0.15739 0.43145 0.68542 0.0
C412 C 0.16639 0.54384 0.85011 0.0
C413 C 0.19212 0.5501 0.88211 0.0
C414 C 0.16785 0.52427 0.80455 0.0
C415 C 0.19513 0.51078 0.78956 0.0
C416 C 0.22102 0.51747 0.82072 0.0
C417 C 0.2195 0.5368 0.86684 0.0
C418 C 0.21856 0.47398 0.65322 0.0
C419 C 0.19644 0.45179 0.64686 0.0
C420 C 0.21862 0.49266 0.70027 0.0
C421 C 0.19634 0.48977 0.7415 0.0
C422 C 0.17459 0.46722 0.73571 0.0
C423 C 0.17474 0.44831 0.68905 0.0
loop_
_geom_bond_atom_site_label_1
_geom_bond_atom_site_label_2
_geom_bond_distance
_geom_bond_site_symmetry_2
_ccdc_geom_bond_type
C0 O1 1.160 . S
C0 O7 1.185 . S
O1 C0 1.160 . S
O2 Zn3 1.899 . S
O2 C10 1.284 . S
Zn3 O2 1.899 . S
Zn3 O4 2.032 . S
Zn3 O7 2.086 . S
Zn3 O12 1.977 . S
O4 Zn3 2.032 . S
O4 C8 1.278 . S
C5 O6 1.203 . S
C5 O12 1.267 . S
O6 C5 1.203 . S
O7 C0 1.185 . S
O7 Zn3 2.086 . S
C8 O4 1.278 . S
C8 O9 1.211 . S
O9 C8 1.211 . S
C10 O2 1.284 . S
C10 O11 1.273 . S
O11 C10 1.273 . S
O12 Zn3 1.977 . S
O12 C5 1.267 . S
C13 O14 1.160 . S
C13 O20 1.185 . S
O14 C13 1.160 . S
O15 Zn16 1.899 . S
O15 C23 1.284 . S
Zn16 O15 1.899 . S
Zn16 O17 2.032 . S
Zn16 O20 2.086 . S
Zn16 O25 1.977 . S
O17 Zn16 2.032 . S
O17 C21 1.278 . S
C18 O19 1.203 . S
C18 O25 1.267 . S
O19 C18 1.203 . S
O20 C13 1.185 . S
O20 Zn16 2.086 . S
C21 O17 1.278 . S
C21 O22 1.211 . S
O22 C21 1.211 . S
C23 O15 1.284 . S
C23 O24 1.273 . S
O24 C23 1.273 . S
O25 Zn16 1.977 . S
O25 C18 1.267 . S
C26 O27 1.160 . S
C26 O33 1.185 . S
O27 C26 1.160 . S
O28 Zn29 1.899 . S
O28 C36 1.284 . S
Zn29 O28 1.899 . S
Zn29 O30 2.032 . S
Zn29 O33 2.086 . S
Zn29 O38 1.977 . S
O30 Zn29 2.032 . S
O30 C34 1.278 . S
C31 O32 1.203 . S
C31 O38 1.267 . S
O32 C31 1.203 . S
O33 C26 1.185 . S
O33 Zn29 2.086 . S
C34 O30 1.278 . S
C34 O35 1.211 . S
O35 C34 1.211 . S
C36 O28 1.284 . S
C36 O37 1.273 . S
O37 C36 1.273 . S
O38 Zn29 1.977 . S
O38 C31 1.267 . S
C39 O40 1.160 . S
C39 O46 1.185 . S
O40 C39 1.160 . S
O41 Zn42 1.899 1_556 S
O41 C49 1.284 . S
Zn42 O41 1.899 1_554 S
Zn42 O43 2.032 . S
Zn42 O46 2.086 . S
Zn42 O51 1.977 . S
O43 Zn42 2.032 . S
O43 C47 1.278 . S
C44 O45 1.203 1_554 S
C44 O51 1.267 . S
O45 C44 1.203 1_556 S
O46 C39 1.185 . S
O46 Zn42 2.086 . S
C47 O43 1.278 . S
C47 O48 1.211 . S
O48 C47 1.211 . S
C49 O41 1.284 . S
C49 O50 1.273 . S
O50 C49 1.273 . S
O51 Zn42 1.977 . S
O51 C44 1.267 . S
C52 O53 1.160 . S
C52 O59 1.185 . S
O53 C52 1.160 . S
O54 Zn55 1.899 . S
O54 C62 1.284 . S
Zn55 O54 1.899 . S
Zn55 O56 2.032 . S
Zn55 O59 2.086 . S
Zn55 O64 1.977 . S
O56 Zn55 2.032 . S
O56 C60 1.278 . S
C57 O58 1.203 . S
C57 O64 1.267 . S
O58 C57 1.203 . S
O59 C52 1.185 . S
O59 Zn55 2.086 . S
C60 O56 1.278 . S
C60 O61 1.211 . S
O61 C60 1.211 . S
C62 O54 1.284 . S
C62 O63 1.273 . S
O63 C62 1.273 . S
O64 Zn55 1.977 . S
O64 C57 1.267 . S
C65 O66 1.160 . S
C65 O72 1.185 . S
O66 C65 1.160 . S
O67 Zn68 1.899 . S
O67 C75 1.284 . S
Zn68 O67 1.899 . S
Zn68 O69 2.032 . S
Zn68 O72 2.086 . S
Zn68 O77 1.977 . S
O69 Zn68 2.032 . S
O69 C73 1.278 . S
C70 O71 1.203 . S
C70 O77 1.267 . S
O71 C70 1.203 . S
O72 C65 1.185 . S
O72 Zn68 2.086 . S
C73 O69 1.278 . S
C73 O74 1.211 . S
O74 C73 1.211 . S
C75 O67 1.284 . S
C75 O76 1.273 . S
O76 C75 1.273 . S
O77 Zn68 1.977 . S
O77 C70 1.267 . S
C78 O79 1.160 . S
C78 O85 1.185 . S
O79 C78 1.160 . S
O80 Zn81 1.899 . S
O80 C88 1.284 . S
Zn81 O80 1.899 . S
Zn81 O82 2.032 . S
Zn81 O85 2.086 . S
Zn81 O90 1.977 . S
O82 Zn81 2.032 . S
O82 C86 1.278 . S
C83 O84 1.203 . S
C83 O90 1.267 . S
O84 C83 1.203 . S
O85 C78 1.185 . S
O85 Zn81 2.086 . S
C86 O82 1.278 . S
C86 O87 1.211 . S
O87 C86 1.211 . S
C88 O80 1.284 . S
C88 O89 1.273 . S
O89 C88 1.273 . S
O90 Zn81 1.977 . S
O90 C83 1.267 . S
C91 O92 1.160 1_556 S
C91 O98 1.185 . S
O92 C91 1.160 1_554 S
O93 Zn94 1.899 . S
O93 C101 1.284 . S
Zn94 O93 1.899 . S
Zn94 O95 2.032 1_554 S
Zn94 O98 2.086 1_554 S
Zn94 O103 1.975 1_554 S
O95 Zn94 2.032 1_556 S
O95 C99 1.278 . S
C96 O97 1.203 . S
C96 O103 1.258 1_554 S
O97 C96 1.203 . S
O98 C91 1.185 . S
O98 Zn94 2.086 1_556 S
C99 O95 1.278 . S
C99 O100 1.211 . S
O100 C99 1.211 . S
C101 O93 1.284 . S
C101 O102 1.273 . S
O102 C101 1.273 . S
O103 Zn94 1.975 1_556 S
O103 C96 1.258 1_556 S
H104 C112 0.950 . S
H105 C117 0.950 . S
H106 C114 0.950 . S
H107 C116 0.950 . S
H108 C118 0.950 . S
H109 C120 0.950 . S
H110 C122 0.950 . S
H111 C123 0.950 . S
C112 H104 0.950 . S
C112 C113 1.386 . S
C112 C114 1.391 . S
C113 C112 1.386 . S
C113 C117 1.393 . S
C114 H106 0.950 . S
C114 C112 1.391 . S
C114 C115 1.400 . S
C115 C114 1.400 . S
C115 C116 1.398 . S
C115 C121 1.491 . S
C116 H107 0.950 . S
C116 C115 1.398 . S
C116 C117 1.391 . S
C117 H105 0.950 . S
C117 C113 1.393 . S
C117 C116 1.391 . S
C118 H108 0.950 . S
C118 C119 1.386 . S
C118 C120 1.391 . S
C119 C118 1.386 . S
C119 C123 1.393 . S
C120 H109 0.950 . S
C120 C118 1.391 . S
C120 C121 1.400 . S
C121 C115 1.491 . S
C121 C120 1.400 . S
C121 C122 1.398 . S
C122 H110 0.950 . S
C122 C121 1.398 . S
C122 C123 1.391 . S
C123 H111 0.950 . S
C123 C119 1.393 . S
C123 C122 1.391 . S
H124 C132 0.950 . S
H125 C137 0.950 . S
H126 C134 0.950 . S
H127 C136 0.950 . S
H128 C138 0.950 . S
H129 C140 0.950 . S
H130 C142 0.950 . S
H131 C143 0.950 . S
C132 H124 0.950 . S
C132 C133 1.386 . S
C132 C134 1.391 . S
C133 C132 1.386 . S
C133 C137 1.393 . S
C134 H126 0.950 . S
C134 C132 1.391 . S
C134 C135 1.400 . S
C135 C134 1.400 . S
C135 C136 1.398 . S
C135 C141 1.491 . S
C136 H127 0.950 . S
C136 C135 1.398 . S
C136 C137 1.391 . S
C137 H125 0.950 . S
C137 C133 1.393 . S
C137 C136 1.391 . S
C138 H128 0.950 . S
C138 C139 1.386 . S
C138 C140 1.391 . S
C139 C138 1.386 . S
C139 C143 1.393 . S
C140 H129 0.950 . S
C140 C138 1.391 . S
C140 C141 1.400 . S
C141 C135 1.491 . S
C141 C140 1.400 . S
C141 C142 1.398 . S
C142 H130 0.950 . S
C142 C141 1.398 . S
C142 C143 1.391 . S
C143 H131 0.950 . S
C143 C139 1.393 . S
C143 C142 1.391 . S
H144 C152 0.950 . S
H145 C157 0.950 . S
H146 C154 0.950 . S
H147 C156 0.950 . S
H148 C158 0.950 . S
H149 C160 0.950 1_554 S
H150 C162 0.950 . S
H151 C163 0.950 . S
C152 H144 0.950 . S
C152 C153 1.386 . S
C152 C154 1.391 . S
C153 C152 1.386 . S
C153 C157 1.393 . S
C154 H146 0.950 . S
C154 C152 1.391 . S
C154 C155 1.400 . S
C155 C154 1.400 . S
C155 C156 1.398 . S
C155 C161 1.491 1_554 S
C156 H147 0.950 . S
C156 C155 1.398 . S
C156 C157 1.391 . S
C157 H145 0.950 . S
C157 C153 1.393 . S
C157 C156 1.391 . S
C158 H148 0.950 . S
C158 C159 1.386 . S
C158 C160 1.391 . S
C159 C158 1.386 . S
C159 C163 1.393 . S
C160 H149 0.950 1_556 S
C160 C158 1.391 . S
C160 C161 1.400 . S
C161 C155 1.491 1_556 S
C161 C160 1.400 . S
C161 C162 1.398 . S
C162 H150 0.950 . S
C162 C161 1.398 . S
C162 C163 1.391 . S
C163 H151 0.950 . S
C163 C159 1.393 . S
C163 C162 1.391 . S
H164 C172 0.950 . S
H165 C177 0.950 . S
H166 C174 0.950 . S
H167 C176 0.950 . S
H168 C178 0.950 . S
H169 C180 0.950 . S
H170 C182 0.950 . S
H171 C183 0.950 . S
C172 H164 0.950 . S
C172 C173 1.386 . S
C172 C174 1.391 . S
C173 C172 1.386 . S
C173 C177 1.393 . S
C174 H166 0.950 . S
C174 C172 1.391 . S
C174 C175 1.400 . S
C175 C174 1.400 . S
C175 C176 1.398 . S
C175 C181 1.491 . S
C176 H167 0.950 . S
C176 C175 1.398 . S
C176 C177 1.391 . S
C177 H165 0.950 . S
C177 C173 1.393 . S
C177 C176 1.391 . S
C178 H168 0.950 . S
C178 C179 1.386 . S
C178 C180 1.391 . S
C179 C178 1.386 . S
C179 C183 1.393 . S
C180 H169 0.950 . S
C180 C178 1.391 . S
C180 C181 1.400 . S
C181 C175 1.491 . S
C181 C180 1.400 . S
C181 C182 1.398 . S
C182 H170 0.950 . S
C182 C181 1.398 . S
C182 C183 1.391 . S
C183 H171 0.950 . S
C183 C179 1.393 . S
C183 C182 1.391 . S
H184 C192 0.950 . S
H185 C197 0.950 . S
H186 C194 0.950 . S
H187 C196 0.950 . S
H188 C198 0.950 . S
H189 C200 0.950 . S
H190 C202 0.950 . S
H191 C203 0.950 . S
C192 H184 0.950 . S
C192 C193 1.386 . S
C192 C194 1.391 . S
C193 C192 1.386 . S
C193 C197 1.393 . S
C194 H186 0.950 . S
C194 C192 1.391 . S
C194 C195 1.400 . S
C195 C194 1.400 . S
C195 C196 1.398 . S
C195 C201 1.491 . S
C196 H187 0.950 . S
C196 C195 1.398 . S
C196 C197 1.391 . S
C197 H185 0.950 . S
C197 C193 1.393 . S
C197 C196 1.391 . S
C198 H188 0.950 . S
C198 C199 1.386 . S
C198 C200 1.391 . S
C199 C198 1.386 . S
C199 C203 1.393 . S
C200 H189 0.950 . S
C200 C198 1.391 . S
C200 C201 1.400 . S
C201 C195 1.491 . S
C201 C200 1.400 . S
C201 C202 1.398 . S
C202 H190 0.950 . S
C202 C201 1.398 . S
C202 C203 1.391 . S
C203 H191 0.950 . S
C203 C199 1.393 . S
C203 C202 1.391 . S
H204 C212 0.950 . S
H205 C217 0.950 . S
H206 C214 0.950 . S
H207 C216 0.950 . S
H208 C218 0.950 . S
H209 C220 0.950 . S
H210 C222 0.950 . S
H211 C223 0.950 . S
C212 H204 0.950 . S
C212 C213 1.386 . S
C212 C214 1.391 . S
C213 C212 1.386 . S
C213 C217 1.393 . S
C214 H206 0.950 . S
C214 C212 1.391 . S
C214 C215 1.400 . S
C215 C214 1.400 . S
C215 C216 1.398 . S
C215 C221 1.491 . S
C216 H207 0.950 . S
C216 C215 1.398 . S
C216 C217 1.391 . S
C217 H205 0.950 . S
C217 C213 1.393 . S
C217 C216 1.391 . S
C218 H208 0.950 . S
C218 C219 1.386 . S
C218 C220 1.391 . S
C219 C218 1.386 . S
C219 C223 1.393 . S
C220 H209 0.950 . S
C220 C218 1.391 . S
C220 C221 1.400 . S
C221 C215 1.491 . S
C221 C220 1.400 . S
C221 C222 1.398 . S
C222 H210 0.950 . S
C222 C221 1.398 . S
C222 C223 1.391 . S
C223 H211 0.950 . S
C223 C219 1.393 . S
C223 C222 1.391 . S
H224 C232 0.950 1_554 S
H225 C237 0.950 . S
H226 C234 0.950 . S
H227 C236 0.950 . S
H228 C238 0.950 . S
H229 C240 0.950 . S
H230 C242 0.950 . S
H231 C243 0.950 . S
C232 H224 0.950 1_556 S
C232 C233 1.386 . S
C232 C234 1.391 . S
C233 C232 1.386 . S
C233 C237 1.393 . S
C234 H226 0.950 . S
C234 C232 1.391 . S
C234 C235 1.400 . S
C235 C234 1.400 . S
C235 C236 1.398 . S
C235 C241 1.491 . S
C236 H227 0.950 . S
C236 C235 1.398 . S
C236 C237 1.391 . S
C237 H225 0.950 . S
C237 C233 1.393 . S
C237 C236 1.391 . S
C238 H228 0.950 . S
C238 C239 1.386 . S
C238 C240 1.391 . S
C239 C238 1.386 . S
C239 C243 1.393 . S
C240 H229 0.950 . S
C240 C238 1.391 . S
C240 C241 1.400 . S
C241 C235 1.491 . S
C241 C240 1.400 . S
C241 C242 1.398 . S
C242 H230 0.950 . S
C242 C241 1.398 . S
C242 C243 1.391 . S
C243 H231 0.950 . S
C243 C239 1.393 . S
C243 C242 1.391 . S
H244 C252 0.950 . S
H245 C257 0.950 . S
H246 C254 0.950 . S
H247 C256 0.950 . S
H248 C258 0.950 . S
H249 C260 0.950 . S
H250 C262 0.950 . S
H251 C263 0.950 . S
C252 H244 0.950 . S
C252 C253 1.386 . S
C252 C254 1.391 . S
C253 C252 1.386 . S
C253 C257 1.393 . S
C254 H246 0.950 . S
C254 C252 1.391 . S
C254 C255 1.400 . S
C255 C254 1.400 . S
C255 C256 1.398 . S
C255 C261 1.491 . S
C256 H247 0.950 . S
C256 C255 1.398 . S
C256 C257 1.391 . S
C257 H245 0.950 . S
C257 C253 1.393 . S
C257 C256 1.391 . S
C258 H248 0.950 . S
C258 C259 1.386 . S
C258 C260 1.391 . S
C259 C258 1.386 . S
C259 C263 1.393 . S
C260 H249 0.950 . S
C260 C258 1.391 . S
C260 C261 1.400 . S
C261 C255 1.491 . S
C261 C260 1.400 . S
C261 C262 1.398 . S
C262 H250 0.950 . S
C262 C261 1.398 . S
C262 C263 1.391 . S
C263 H251 0.950 . S
C263 C259 1.393 . S
C263 C262 1.391 . S
H264 C272 0.950 . S
H265 C277 0.950 . S
H266 C274 0.950 . S
H267 C276 0.950 . S
H268 C278 0.950 . S
H269 C280 0.950 . S
H270 C282 0.950 . S
H271 C283 0.950 . S
C272 H264 0.950 . S
C272 C273 1.386 . S
C272 C274 1.391 . S
C273 C272 1.386 . S
C273 C277 1.393 . S
C274 H266 0.950 . S
C274 C272 1.391 . S
C274 C275 1.400 . S
C275 C274 1.400 . S
C275 C276 1.398 . S
C275 C281 1.491 1_565 S
C276 H267 0.950 . S
C276 C275 1.398 . S
C276 C277 1.391 . S
C277 H265 0.950 . S
C277 C273 1.393 . S
C277 C276 1.391 . S
C278 H268 0.950 . S
C278 C279 1.386 . S
C278 C280 1.391 . S
C279 C278 1.386 . S
C279 C283 1.393 . S
C280 H269 0.950 . S
C280 C278 1.391 . S
C280 C281 1.400 . S
C281 C275 1.491 1_545 S
C281 C280 1.400 . S
C281 C282 1.398 . S
C282 H270 0.950 . S
C282 C281 1.398 . S
C282 C283 1.391 . S
C283 H271 0.950 . S
C283 C279 1.393 . S
C283 C282 1.391 . S
H284 C292 0.950 . S
H285 C297 0.950 . S
H286 C294 0.950 . S
H287 C296 0.950 . S
H288 C298 0.950 . S
H289 C300 0.950 . S
H290 C302 0.950 . S
H291 C303 0.950 . S
C292 H284 0.950 . S
C292 C293 1.386 . S
C292 C294 1.391 . S
C293 C292 1.386 . S
C293 C297 1.393 . S
C294 H286 0.950 . S
C294 C292 1.391 . S
C294 C295 1.400 . S
C295 C294 1.400 . S
C295 C296 1.398 . S
C295 C301 1.491 1_655 S
C296 H287 0.950 . S
C296 C295 1.398 . S
C296 C297 1.391 . S
C297 H285 0.950 . S
C297 C293 1.393 . S
C297 C296 1.391 . S
C298 H288 0.950 . S
C298 C299 1.386 . S
C298 C300 1.391 . S
C299 C298 1.386 . S
C299 C303 1.393 . S
C300 H289 0.950 . S
C300 C298 1.391 . S
C300 C301 1.400 . S
C301 C295 1.491 1_455 S
C301 C300 1.400 . S
C301 C302 1.398 . S
C302 H290 0.950 . S
C302 C301 1.398 . S
C302 C303 1.391 . S
C303 H291 0.950 . S
C303 C299 1.393 . S
C303 C302 1.391 . S
H304 C312 0.950 . S
H305 C317 0.950 . S
H306 C314 0.950 . S
H307 C316 0.950 . S
H308 C318 0.950 . S
H309 C320 0.950 . S
H310 C322 0.950 . S
H311 C323 0.950 . S
C312 H304 0.950 . S
C312 C313 1.386 . S
C312 C314 1.391 . S
C313 C312 1.386 . S
C313 C317 1.393 . S
C314 H306 0.950 . S
C314 C312 1.391 . S
C314 C315 1.400 . S
C315 C314 1.400 . S
C315 C316 1.398 . S
C315 C321 1.491 1_565 S
C316 H307 0.950 . S
C316 C315 1.398 . S
C316 C317 1.391 . S
C317 H305 0.950 . S
C317 C313 1.393 . S
C317 C316 1.391 . S
C318 H308 0.950 . S
C318 C319 1.386 . S
C318 C320 1.391 . S
C319 C318 1.386 . S
C319 C323 1.393 . S
C320 H309 0.950 . S
C320 C318 1.391 . S
C320 C321 1.400 . S
C321 C315 1.491 1_545 S
C321 C320 1.400 . S
C321 C322 1.398 . S
C322 H310 0.950 . S
C322 C321 1.398 . S
C322 C323 1.391 . S
C323 H311 0.950 . S
C323 C319 1.393 . S
C323 C322 1.391 . S
H324 C332 0.950 1_556 S
H325 C337 0.950 . S
H326 C334 0.950 1_556 S
H327 C336 0.950 . S
H328 C338 0.950 . S
H329 C340 0.950 . S
H330 C342 0.950 1_556 S
H331 C343 0.950 1_556 S
C332 H324 0.950 1_554 S
C332 C333 1.386 . S
C332 C334 1.391 . S
C333 C332 1.386 . S
C333 C337 1.393 . S
C334 H326 0.950 1_554 S
C334 C332 1.391 . S
C334 C335 1.400 . S
C335 C334 1.400 . S
C335 C336 1.398 . S
C335 C341 1.491 1_655 S
C336 H327 0.950 . S
C336 C335 1.398 . S
C336 C337 1.391 . S
C337 H325 0.950 . S
C337 C333 1.393 . S
C337 C336 1.391 . S
C338 H328 0.950 . S
C338 C339 1.386 . S
C338 C340 1.391 . S
C339 C338 1.386 . S
C339 C343 1.393 . S
C340 H329 0.950 . S
C340 C338 1.391 . S
C340 C341 1.400 . S
C341 C335 1.491 1_455 S
C341 C340 1.400 . S
C341 C342 1.398 . S
C342 H330 0.950 1_554 S
C342 C341 1.398 . S
C342 C343 1.391 . S
C343 H331 0.950 1_554 S
C343 C339 1.393 . S
C343 C342 1.391 . S
H344 C352 0.950 . S
H345 C357 0.950 . S
H346 C354 0.950 . S
H347 C356 0.964 . S
H348 C358 0.950 . S
H349 C360 0.950 . S
H350 C362 0.950 1_556 S
H351 C363 0.950 . S
C352 H344 0.950 . S
C352 C353 1.386 . S
C352 C354 1.391 . S
C353 C352 1.386 . S
C353 C357 1.393 . S
C354 H346 0.950 . S
C354 C352 1.391 . S
C354 C355 1.400 . S
C355 C354 1.400 . S
C355 C356 1.396 1_556 S
C355 C361 1.491 1_556 S
C356 H347 0.964 . S
C356 C355 1.396 1_554 S
C356 C357 1.379 1_554 S
C357 H345 0.950 . S
C357 C353 1.393 . S
C357 C356 1.379 1_556 S
C358 H348 0.950 . S
C358 C359 1.386 . S
C358 C360 1.391 . S
C359 C358 1.386 . S
C359 C363 1.393 . S
C360 H349 0.950 . S
C360 C358 1.391 . S
C360 C361 1.400 . S
C361 C355 1.491 1_554 S
C361 C360 1.400 . S
C361 C362 1.398 . S
C362 H350 0.950 1_554 S
C362 C361 1.398 . S
C362 C363 1.391 . S
C363 H351 0.950 . S
C363 C359 1.393 . S
C363 C362 1.391 . S
H364 C372 0.950 . S
H365 C377 0.950 . S
H366 C374 0.950 . S
H367 C376 0.950 . S
H368 C378 0.950 . S
H369 C380 0.950 . S
H370 C382 0.950 . S
H371 C383 0.950 . S
C372 H364 0.950 . S
C372 C373 1.386 . S
C372 C374 1.391 . S
C373 C372 1.386 . S
C373 C377 1.393 . S
C374 H366 0.950 . S
C374 C372 1.391 . S
C374 C375 1.400 . S
C375 C374 1.400 . S
C375 C376 1.398 . S
C375 C381 1.491 . S
C376 H367 0.950 . S
C376 C375 1.398 . S
C376 C377 1.391 . S
C377 H365 0.950 . S
C377 C373 1.393 . S
C377 C376 1.391 . S
C378 H368 0.950 . S
C378 C379 1.386 . S
C378 C380 1.391 . S
C379 C378 1.386 . S
C379 C383 1.393 . S
C380 H369 0.950 . S
C380 C378 1.391 . S
C380 C381 1.400 . S
C381 C375 1.491 . S
C381 C380 1.400 . S
C381 C382 1.398 . S
C382 H370 0.950 . S
C382 C381 1.398 . S
C382 C383 1.391 . S
C383 H371 0.950 . S
C383 C379 1.393 . S
C383 C382 1.391 . S
H384 C392 0.950 . S
H385 C397 0.950 . S
H386 C394 0.950 . S
H387 C396 0.950 . S
H388 C398 0.950 . S
H389 C400 0.950 . S
H390 C402 0.950 . S
H391 C403 0.950 . S
C392 H384 0.950 . S
C392 C393 1.386 . S
C392 C394 1.391 . S
C393 C392 1.386 . S
C393 C397 1.393 . S
C394 H386 0.950 . S
C394 C392 1.391 . S
C394 C395 1.400 . S
C395 C394 1.400 . S
C395 C396 1.398 . S
C395 C401 1.491 . S
C396 H387 0.950 . S
C396 C395 1.398 . S
C396 C397 1.391 . S
C397 H385 0.950 . S
C397 C393 1.393 . S
C397 C396 1.391 . S
C398 H388 0.950 . S
C398 C399 1.386 . S
C398 C400 1.391 . S
C399 C398 1.386 . S
C399 C403 1.393 . S
C400 H389 0.950 . S
C400 C398 1.391 . S
C400 C401 1.400 . S
C401 C395 1.491 . S
C401 C400 1.400 . S
C401 C402 1.398 . S
C402 H390 0.950 . S
C402 C401 1.398 . S
C402 C403 1.391 . S
C403 H391 0.950 . S
C403 C399 1.393 . S
C403 C402 1.391 . S
H404 C412 0.950 . S
H405 C417 0.950 . S
H406 C414 0.950 . S
H407 C416 0.950 . S
H408 C418 0.950 . S
H409 C420 0.950 . S
H410 C422 0.950 . S
H411 C423 0.950 . S
C412 H404 0.950 . S
C412 C413 1.386 . S
C412 C414 1.391 . S
C413 C412 1.386 . S
C413 C417 1.393 . S
C414 H406 0.950 . S
C414 C412 1.391 . S
C414 C415 1.400 . S
C415 C414 1.400 . S
C415 C416 1.398 . S
C415 C421 1.491 . S
C416 H407 0.950 . S
C416 C415 1.398 . S
C416 C417 1.391 . S
C417 H405 0.950 . S
C417 C413 1.393 . S
C417 C416 1.391 . S
C418 H408 0.950 . S
C418 C419 1.386 . S
C418 C420 1.391 . S
C419 C418 1.386 . S
C419 C423 1.393 . S
C420 H409 0.950 . S
C420 C418 1.391 . S
C420 C421 1.400 . S
C421 C415 1.491 . S
C421 C420 1.400 . S
C421 C422 1.398 . S
C422 H410 0.950 . S
C422 C421 1.398 . S
C422 C423 1.391 . S
C423 H411 0.950 . S
C423 C419 1.393 . S
C423 C422 1.391 . S
C113 C8 0.993 . S
C119 C86 1.024 . S
C133 C21 1.005 . S
C139 C99 1.014 . S
C153 C60 0.991 . S
C159 C34 1.025 . S
C173 C73 0.993 . S
C179 C47 1.022 . S
C193 C0 1.305 . S
C199 C65 1.300 . S
C213 C13 1.306 . S
C219 C78 1.298 . S
C233 C91 1.308 . S
C239 C26 1.296 . S
C253 C39 1.309 . S
C259 C52 1.296 . S
C273 C57 1.346 . S
C279 C5 1.321 . S
C293 C18 1.326 . S
C299 C70 1.344 . S
C313 C31 1.322 . S
C319 C83 1.345 . S
C333 C96 1.330 . S
C339 C44 1.326 . S
C353 C88 1.494 . S
C359 C10 1.502 . S
C373 C101 1.499 . S
C379 C23 1.491 . S
C393 C36 1.489 . S
C399 C62 1.496 . S
C413 C49 1.508 . S
C419 C75 1.508 . S
