# Generated by pormake.
# Topology bcs, (6)-cn, num edge types: 1
# Building blocks:
#     Node 0, Type 0, BuildingBlock: KUMBOL_clean_sbu_0, # of connection points: 6
#     Node 1, Type 0, BuildingBlock: KUMBOL_clean_sbu_0, # of connection points: 6
#     Node 2, Type 0, BuildingBlock: KUMBOL_clean_sbu_0, # of connection points: 6
#     Node 3, Type 0, BuildingBlock: KUMBOL_clean_sbu_0, # of connection points: 6
#     Node 4, Type 0, BuildingBlock: KUMBOL_clean_sbu_0, # of connection points: 6
#     Node 5, Type 0, BuildingBlock: KUMBOL_clean_sbu_0, # of connection points: 6
#     Node 6, Type 0, BuildingBlock: KUMBOL_clean_sbu_0, # of connection points: 6
#     Node 7, Type 0, BuildingBlock: KUMBOL_clean_sbu_0, # of connection points: 6
#     Node 8, Type 0, BuildingBlock: KUMBOL_clean_sbu_0, # of connection points: 6
#     Node 9, Type 0, BuildingBlock: KUMBOL_clean_sbu_0, # of connection points: 6
#     Node 10, Type 0, BuildingBlock: KUMBOL_clean_sbu_0, # of connection points: 6
#     Node 11, Type 0, BuildingBlock: KUMBOL_clean_sbu_0, # of connection points: 6
#     Node 12, Type 0, BuildingBlock: KUMBOL_clean_sbu_0, # of connection points: 6
#     Node 13, Type 0, BuildingBlock: KUMBOL_clean_sbu_0, # of connection points: 6
#     Node 14, Type 0, BuildingBlock: KUMBOL_clean_sbu_0, # of connection points: 6
#     Node 15, Type 0, BuildingBlock: KUMBOL_clean_sbu_0, # of connection points: 6
#     Edge 16, Type (0, 0), BuildingBlock: TEMPAE_clean_linker_10, # of connection points: 2
#     Edge 17, Type (0, 0), BuildingBlock: TEMPAE_clean_linker_10, # of connection points: 2
#     Edge 18, Type (0, 0), BuildingBlock: TEMPAE_clean_linker_10, # of connection points: 2
#     Edge 19, Type (0, 0), BuildingBlock: TEMPAE_clean_linker_10, # of connection points: 2
#     Edge 20, Type (0, 0), BuildingBlock: TEMPAE_clean_linker_10, # of connection points: 2
#     Edge 21, Type (0, 0), BuildingBlock: TEMPAE_clean_linker_10, # of connection points: 2
#     Edge 22, Type (0, 0), BuildingBlock: TEMPAE_clean_linker_10, # of connection points: 2
#     Edge 23, Type (0, 0), BuildingBlock: TEMPAE_clean_linker_10, # of connection points: 2
#     Edge 24, Type (0, 0), BuildingBlock: TEMPAE_clean_linker_10, # of connection points: 2
#     Edge 25, Type (0, 0), BuildingBlock: TEMPAE_clean_linker_10, # of connection points: 2
#     Edge 26, Type (0, 0), BuildingBlock: TEMPAE_clean_linker_10, # of connection points: 2
#     Edge 27, Type (0, 0), BuildingBlock: TEMPAE_clean_linker_10, # of connection points: 2
#     Edge 28, Type (0, 0), BuildingBlock: TEMPAE_clean_linker_10, # of connection points: 2
#     Edge 29, Type (0, 0), BuildingBlock: TEMPAE_clean_linker_10, # of connection points: 2
#     Edge 30, Type (0, 0), BuildingBlock: TEMPAE_clean_linker_10, # of connection points: 2
#     Edge 31, Type (0, 0), BuildingBlock: TEMPAE_clean_linker_10, # of connection points: 2
#     Edge 32, Type (0, 0), BuildingBlock: TEMPAE_clean_linker_10, # of connection points: 2
#     Edge 33, Type (0, 0), BuildingBlock: TEMPAE_clean_linker_10, # of connection points: 2
#     Edge 34, Type (0, 0), BuildingBlock: TEMPAE_clean_linker_10, # of connection points: 2
#     Edge 35, Type (0, 0), BuildingBlock: TEMPAE_clean_linker_10, # of connection points: 2
#     Edge 36, Type (0, 0), BuildingBlock: TEMPAE_clean_linker_10, # of connection points: 2
#     Edge 37, Type (0, 0), BuildingBlock: TEMPAE_clean_linker_10, # of connection points: 2
#     Edge 38, Type (0, 0), BuildingBlock: TEMPAE_clean_linker_10, # of connection points: 2
#     Edge 39, Type (0, 0), BuildingBlock: TEMPAE_clean_linker_10, # of connection points: 2
#     Edge 40, Type (0, 0), BuildingBlock: TEMPAE_clean_linker_10, # of connection points: 2
#     Edge 41, Type (0, 0), BuildingBlock: TEMPAE_clean_linker_10, # of connection points: 2
#     Edge 42, Type (0, 0), BuildingBlock: TEMPAE_clean_linker_10, # of connection points: 2
#     Edge 43, Type (0, 0), BuildingBlock: TEMPAE_clean_linker_10, # of connection points: 2
#     Edge 44, Type (0, 0), BuildingBlock: TEMPAE_clean_linker_10, # of connection points: 2
#     Edge 45, Type (0, 0), BuildingBlock: TEMPAE_clean_linker_10, # of connection points: 2
#     Edge 46, Type (0, 0), BuildingBlock: TEMPAE_clean_linker_10, # of connection points: 2
#     Edge 47, Type (0, 0), BuildingBlock: TEMPAE_clean_linker_10, # of connection points: 2
#     Edge 48, Type (0, 0), BuildingBlock: TEMPAE_clean_linker_10, # of connection points: 2
#     Edge 49, Type (0, 0), BuildingBlock: TEMPAE_clean_linker_10, # of connection points: 2
#     Edge 50, Type (0, 0), BuildingBlock: TEMPAE_clean_linker_10, # of connection points: 2
#     Edge 51, Type (0, 0), BuildingBlock: TEMPAE_clean_linker_10, # of connection points: 2
#     Edge 52, Type (0, 0), BuildingBlock: TEMPAE_clean_linker_10, # of connection points: 2
#     Edge 53, Type (0, 0), BuildingBlock: TEMPAE_clean_linker_10, # of connection points: 2
#     Edge 54, Type (0, 0), BuildingBlock: TEMPAE_clean_linker_10, # of connection points: 2
#     Edge 55, Type (0, 0), BuildingBlock: TEMPAE_clean_linker_10, # of connection points: 2
#     Edge 56, Type (0, 0), BuildingBlock: TEMPAE_clean_linker_10, # of connection points: 2
#     Edge 57, Type (0, 0), BuildingBlock: TEMPAE_clean_linker_10, # of connection points: 2
#     Edge 58, Type (0, 0), BuildingBlock: TEMPAE_clean_linker_10, # of connection points: 2
#     Edge 59, Type (0, 0), BuildingBlock: TEMPAE_clean_linker_10, # of connection points: 2
#     Edge 60, Type (0, 0), BuildingBlock: TEMPAE_clean_linker_10, # of connection points: 2
#     Edge 61, Type (0, 0), BuildingBlock: TEMPAE_clean_linker_10, # of connection points: 2
#     Edge 62, Type (0, 0), BuildingBlock: TEMPAE_clean_linker_10, # of connection points: 2
#     Edge 63, Type (0, 0), BuildingBlock: TEMPAE_clean_linker_10, # of connection points: 2
# Relax obj value: 0.105
# Max RMSD: 0.302
# Mean RMSD: 0.187
data_MOF--net-bcs--node1-KUMBOL_clean_sbu_0--edge1-TEMPAE_clean_linker_10
_symmetry_space_group_name_H-M    P1
_symmetry_Int_Tables_number       1
_symmetry_cell_setting            triclinic
loop_
_symmetry_equiv_pos_as_xyz
'x, y, z'
_cell_length_a     42.526348
_cell_length_b     40.045478
_cell_length_c     44.174056
_cell_angle_alpha  75.370892
_cell_angle_beta   102.0628
_cell_angle_gamma 124.23559
loop_
_atom_site_label
_atom_site_type_symbol
_atom_site_fract_x
_atom_site_fract_y
_atom_site_fract_z
_atom_type_partial_charge
Gd0 Gd 0.04347 0.04815 0.01342 0.0
Gd1 Gd 1.00058 0.95552 0.97997 0.0
C2 C 0.93216 0.93525 0.88506 0.0
C3 C 0.8765 0.86747 0.89856 0.0
C4 C 0.92209 0.90459 0.93973 0.0
C5 C 0.94454 0.93679 0.91719 0.0
C6 C 0.88741 0.86989 0.93046 0.0
C7 C 0.89928 0.89977 0.87604 0.0
C8 C 0.95369 0.96893 0.86274 0.0
C9 C 0.98678 0.00321 0.87261 0.0
N10 N 0.97877 0.96888 0.92649 0.0
C11 C 0.99902 0.0027 0.90452 0.0
H12 H 0.024 0.03045 0.91094 0.0
C13 C 0.9149 0.87266 0.99278 0.0
N14 N 0.93514 0.90588 0.97047 0.0
C15 C 0.87965 0.83875 0.98479 0.0
C16 C 0.86582 0.83728 0.95343 0.0
H17 H 0.92678 0.87049 0.01671 0.0
H18 H 0.89221 0.89665 0.85167 0.0
H19 H 0.02342 0.97458 0.07924 0.0
H20 H 0.94463 0.96902 0.8379 0.0
H21 H 1.00312 0.03007 0.85562 0.0
H22 H 0.85106 0.84023 0.8912 0.0
H23 H 0.11206 0.13635 0.97612 0.0
H24 H 0.10343 0.0333 0.15352 0.0
H25 H 0.0457 0.97218 0.13484 0.0
H26 H 0.19219 0.16693 0.10165 0.0
H27 H 0.86413 0.81284 0.00271 0.0
H28 H 0.83921 0.81018 0.94713 0.0
H29 H 0.15437 0.10676 0.14083 0.0
H30 H 0.17295 0.19788 0.98994 0.0
N31 N 0.06876 0.03618 0.06513 0.0
C32 C 0.09422 0.03417 0.12868 0.0
C33 C 0.06162 -0.00023 0.11828 0.0
C34 C 0.11464 0.06929 0.10685 0.0
C35 C 0.10173 0.0689 0.07479 0.0
C36 C 0.04896 0.00149 0.08642 0.0
N37 N 0.10748 0.1016 0.02217 0.0
C38 C 0.12181 0.10271 0.05261 0.0
C39 C 0.1592 0.17111 0.00776 0.0
C40 C 0.17434 0.17247 0.03895 0.0
C41 C 0.12511 0.13573 -0.00011 0.0
C42 C 0.15532 0.13828 0.06191 0.0
H43 H 0.20002 0.20038 0.04519 0.0
O44 O 0.04191 0.10232 0.99609 0.0
O45 O 0.99523 0.00426 0.98499 0.0
O46 O 0.05201 0.00572 0.9522 0.0
O47 O 0.08425 0.06262 0.97846 0.0
O48 O 0.02402 0.06385 0.96363 0.0
O49 O 0.02117 0.06687 0.04212 0.0
O50 O 0.99531 0.89948 0.0076 0.0
O51 O 0.03654 0.98869 0.0191 0.0
O52 O 0.9909 0.00091 0.03968 0.0
O53 O 0.96434 0.94049 0.02001 0.0
O54 O 0.05999 0.97045 0.99577 0.0
O55 O 0.99948 0.91351 0.95703 0.0
C56 C 0.9934 0.02829 0.96174 0.0
C57 C 0.16747 0.13939 0.09392 0.0
C58 C 0.14667 0.10511 0.11626 0.0
C59 C 0.02795 0.09892 0.02092 0.0
C60 C 0.02141 0.1301 0.02367 0.0
C61 C 0.04214 0.16968 0.0062 0.0
C62 C 0.99596 0.12144 0.0444 0.0
C63 C 0.99114 0.15225 0.04725 0.0
C64 C 0.03808 0.20055 0.00989 0.0
C65 C 1.01263 0.19191 0.03033 0.0
C66 C 0.08045 0.04395 0.95565 0.0
C67 C 0.06499 0.9869 0.01936 0.0
C68 C 0.99628 0.88785 0.98299 0.0
C69 C 1.015 0.86556 0.98627 0.0
C70 C 1.0022 0.82924 0.00821 0.0
C71 C 0.03893 0.87489 0.96374 0.0
C72 C 0.04738 0.84651 0.96184 0.0
C73 C 1.01189 0.80168 0.00693 0.0
C74 C 0.03384 0.80989 0.98346 0.0
C75 C 0.96467 0.96146 0.03945 0.0
H76 H 0.06234 0.17709 0.99038 0.0
H77 H 0.97965 0.09096 0.05784 0.0
H78 H 0.05466 0.23117 0.9969 0.0
H79 H 1.00947 0.21609 0.03286 0.0
H80 H 0.98309 0.8212 0.02531 0.0
H81 H 0.04847 0.90242 0.94622 0.0
H82 H 1.00113 0.77321 0.02338 0.0
H83 H 0.03983 0.78746 0.98183 0.0
Gd84 Gd 0.24298 0.79046 0.24438 0.0
Gd85 Gd 0.29129 0.73649 0.25641 0.0
C86 C 0.39988 0.7865 0.2114 0.0
C87 C 0.38276 0.72939 0.18746 0.0
C88 C 0.3358 0.72591 0.2136 0.0
C89 C 0.36275 0.76429 0.2213 0.0
C90 C 0.34547 0.70795 0.19659 0.0
C91 C 0.40988 0.76863 0.19478 0.0
C92 C 0.42566 0.8262 0.2181 0.0
C93 C 0.41406 0.84291 0.23409 0.0
N94 N 0.35208 0.78061 0.23732 0.0
C95 C 0.37709 0.81954 0.24372 0.0
H96 H 0.36868 0.83328 0.25578 0.0
C97 C 0.27306 0.66723 0.21713 0.0
N98 N 0.30006 0.70614 0.22272 0.0
C99 C 0.28106 0.64842 0.19981 0.0
C100 C 0.31741 0.66892 0.18943 0.0
H101 H 0.24539 0.65077 0.2262 0.0
H102 H 0.43835 0.78509 0.18717 0.0
H103 H 0.15695 0.70712 0.2143 0.0
H104 H 0.45438 0.84435 0.21073 0.0
H105 H 0.4336 0.87377 0.23908 0.0
H106 H 0.39081 0.71607 0.17447 0.0
H107 H 0.27759 0.86126 0.29033 0.0
H108 H 0.07161 0.66475 0.27391 0.0
H109 H 0.09267 0.66031 0.22809 0.0
H110 H 0.13077 0.757 0.34697 0.0
H111 H 0.25939 0.61792 0.19492 0.0
H112 H 0.32367 0.65414 0.17628 0.0
H113 H 0.08612 0.70027 0.31804 0.0
H114 H 0.25803 0.87195 0.33367 0.0
N115 N 0.1765 0.74137 0.25224 0.0
C116 C 0.10089 0.68635 0.26808 0.0
C117 C 0.11265 0.68387 0.24217 0.0
C118 C 0.12678 0.7169 0.28594 0.0
C119 C 0.16489 0.74429 0.27762 0.0
C120 C 0.15032 0.71149 0.23447 0.0
N121 N 0.22656 0.80265 0.2863 0.0
C122 C 0.19047 0.77564 0.2949 0.0
C123 C 0.23886 0.84455 0.32326 0.0
C124 C 0.20312 0.81539 0.33425 0.0
C125 C 0.24977 0.83822 0.29865 0.0
C126 C 0.17806 0.78109 0.31957 0.0
H127 H 0.19458 0.82046 0.35325 0.0
O128 O 0.27889 0.85698 0.23495 0.0
O129 O 0.29502 0.79506 0.23439 0.0
O130 O 0.32218 0.78057 0.29047 0.0
O131 O 0.28015 0.80018 0.28952 0.0
O132 O 0.26662 0.81449 0.19709 0.0
O133 O 0.21676 0.82491 0.22722 0.0
O134 O 0.27546 0.67937 0.28795 0.0
O135 O 0.24862 0.74105 0.27374 0.0
O136 O 0.21788 0.75158 0.20637 0.0
O137 O 0.25549 0.72421 0.21022 0.0
O138 O 0.2306 0.68406 0.26662 0.0
O139 O 0.3323 0.73259 0.29348 0.0
C140 C 0.29553 0.81066 0.20518 0.0
C141 C 0.14058 0.7534 0.32797 0.0
C142 C 0.11514 0.72119 0.31141 0.0
C143 C 0.24954 0.85965 0.22246 0.0
C144 C 0.25254 0.88386 0.19096 0.0
C145 C 0.28673 0.92072 0.18228 0.0
C146 C 0.21992 0.87133 0.16999 0.0
C147 C 0.2201 0.89692 0.14213 0.0
C148 C 0.2877 0.94502 0.15307 0.0
C149 C 0.25427 0.93348 0.13314 0.0
C150 C 0.31012 0.79829 0.30182 0.0
C151 C 0.22129 0.7042 0.27737 0.0
C152 C 0.30887 0.69385 0.30329 0.0
C153 C 0.32392 0.66763 0.30984 0.0
C154 C 0.32641 0.65234 0.28578 0.0
C155 C 0.33357 0.6555 0.34099 0.0
C156 C 0.34433 0.6271 0.34789 0.0
C157 C 0.33721 0.62414 0.29263 0.0
C158 C 0.34602 0.61135 0.32363 0.0
C159 C 0.22782 0.73031 0.19639 0.0
H160 H 0.31231 0.93105 0.19825 0.0
H161 H 0.19293 0.84354 0.17653 0.0
H162 H 0.31385 0.97381 0.14661 0.0
H163 H 0.25447 0.95428 0.11192 0.0
H164 H 0.31989 0.66171 0.2618 0.0
H165 H 0.3321 0.66746 0.35977 0.0
H166 H 0.33875 0.61226 0.2739 0.0
H167 H 0.3549 0.58975 0.32869 0.0
Gd168 Gd 0.52373 0.96286 0.53064 0.0
Gd169 Gd 0.51743 0.03984 0.46536 0.0
C170 C 0.5786 0.07115 0.38056 0.0
C171 C 0.63197 0.14097 0.38387 0.0
C172 C 0.58516 0.10446 0.4224 0.0
C173 C 0.56637 0.06963 0.40841 0.0
C174 C 0.61753 0.14078 0.40971 0.0
C175 C 0.61194 0.10669 0.36881 0.0
C176 C 0.55598 0.03766 0.36461 0.0
C177 C 0.52179 0.00408 0.37631 0.0
N178 N 0.53444 0.03546 0.42051 0.0
C179 C 0.51168 0.00317 0.40481 0.0
H180 H 0.48555 0.97699 0.41421 0.0
C181 C 0.58402 0.13866 0.45848 0.0
N182 N 0.57054 0.10348 0.44739 0.0
C183 C 0.61618 0.17537 0.44664 0.0
C184 C 0.63345 0.17627 0.42254 0.0
H185 H 0.57067 0.13782 0.47722 0.0
H186 H 0.62163 0.10869 0.34737 0.0
H187 H 0.54657 0.02016 0.58369 0.0
H188 H 0.56407 0.03794 0.34282 0.0
H189 H 0.5035 0.9786 0.36367 0.0
H190 H 0.65749 0.16824 0.37437 0.0
H191 H 0.4773 0.86638 0.51683 0.0
H192 H 0.47004 0.94675 0.6559 0.0
H193 H 0.52716 0.01167 0.63527 0.0
H194 H 0.38229 0.81983 0.6182 0.0
H195 H 0.62756 0.20294 0.45603 0.0
H196 H 0.65819 0.20484 0.4132 0.0
H197 H 0.41493 0.8761 0.64837 0.0
H198 H 0.42058 0.79847 0.53416 0.0
N199 N 0.5004 0.96101 0.57483 0.0
C200 C 0.47796 0.95063 0.63294 0.0
C201 C 0.5104 0.98721 0.6215 0.0
C202 C 0.45663 0.91919 0.61492 0.0
C203 C 0.46931 0.92497 0.58591 0.0
C204 C 0.52105 0.99206 0.59207 0.0
N205 N 0.47033 0.89685 0.54557 0.0
C206 C 0.45296 0.89225 0.57016 0.0
C207 C 0.4292 0.82461 0.54436 0.0
C208 C 0.40864 0.82027 0.56744 0.0
C209 C 0.46106 0.86303 0.53448 0.0
C210 C 0.42168 0.85374 0.58183 0.0
H211 H 0.38412 0.79046 0.57528 0.0
O212 O 0.55942 0.93675 0.53804 0.0
O213 O 0.53313 0.98974 0.47783 0.0
O214 O 0.461 0.98198 0.47232 0.0
O215 O 0.46919 0.92976 0.50047 0.0
O216 O 0.54421 0.94481 0.49794 0.0
O217 O 0.55725 0.95834 0.57571 0.0
O218 O 0.4914 0.07609 0.45596 0.0
O219 O 0.50841 0.01418 0.51828 0.0
O220 O 0.57061 0.02705 0.53491 0.0
O221 O 0.57802 0.06912 0.48635 0.0
O222 O 0.50999 0.06738 0.49909 0.0
O223 O 0.47825 0.03897 0.42275 0.0
C224 C 0.54593 0.96863 0.47169 0.0
C225 C 0.40636 0.84914 0.60888 0.0
C226 C 0.42461 0.88142 0.62591 0.0
C227 C 0.57085 0.94028 0.56734 0.0
C228 C 0.56985 0.90338 0.58988 0.0
C229 C 0.5339 0.86781 0.5956 0.0
C230 C 0.60306 0.90185 0.60525 0.0
C231 C 0.59909 0.86511 0.62578 0.0
C232 C 0.5299 0.83205 0.61406 0.0
C233 C 0.5616 0.83069 0.6288 0.0
C234 C 0.44951 0.94332 0.48054 0.0
C235 C 0.50162 0.04062 0.52448 0.0
C236 C 0.47197 0.06456 0.42956 0.0
C237 C 0.47075 0.09794 0.40391 0.0
C238 C 0.50594 0.13263 0.39499 0.0
C239 C 0.43662 0.09892 0.39098 0.0
C240 C 0.43901 0.13458 0.3698 0.0
C241 C 0.50834 0.16688 0.37516 0.0
C242 C 0.4759 0.16757 0.36233 0.0
C243 C 0.59018 0.06116 0.51544 0.0
H244 H 0.50839 0.86742 0.58552 0.0
H245 H 0.63133 0.92888 0.6017 0.0
H246 H 0.50165 0.80477 0.61703 0.0
H247 H 0.55651 0.8019 0.64282 0.0
H248 H 0.53215 0.13392 0.40429 0.0
H249 H 0.40903 0.0731 0.39814 0.0
H250 H 0.53587 0.19406 0.37021 0.0
H251 H 0.48012 0.19505 0.3465 0.0
Gd252 Gd 0.26772 0.25197 0.74081 0.0
Gd253 Gd 0.31696 0.19519 0.74384 0.0
C254 C 0.24658 0.07528 0.8093 0.0
C255 C 0.28929 0.08557 0.85699 0.0
C256 C 0.31026 0.13636 0.80954 0.0
C257 C 0.27498 0.11338 0.794 0.0
C258 C 0.31832 0.12201 0.84088 0.0
C259 C 0.25346 0.06219 0.8412 0.0
C260 C 0.21254 0.05111 0.7919 0.0
C261 C 0.20786 0.06483 0.75993 0.0
N262 N 0.26922 0.12734 0.76337 0.0
C263 C 0.2366 0.10319 0.74594 0.0
H264 H 0.23212 0.11325 0.72133 0.0
C265 C 0.37473 0.19056 0.80549 0.0
N266 N 0.33758 0.17125 0.79322 0.0
C267 C 0.38418 0.17784 0.83661 0.0
C268 C 0.35565 0.14395 0.85464 0.0
H269 H 0.3968 0.21702 0.79165 0.0
H270 H 0.2317 0.03348 0.85358 0.0
H271 H 0.35945 0.33313 0.73417 0.0
H272 H 0.19002 0.02165 0.80277 0.0
H273 H 0.18184 0.04616 0.74614 0.0
H274 H 0.29469 0.07446 0.88129 0.0
H275 H 0.17869 0.20918 0.70608 0.0
H276 H 0.35741 0.43417 0.67511 0.0
H277 H 0.39317 0.40567 0.71037 0.0
H278 H 0.22718 0.37395 0.63304 0.0
H279 H 0.41338 0.19426 0.8467 0.0
H280 H 0.36302 0.13409 0.87873 0.0
H281 H 0.29541 0.42201 0.64634 0.0
H282 H 0.13997 0.23037 0.66636 0.0
N283 N 0.30429 0.3207 0.71557 0.0
C284 C 0.34218 0.4024 0.68638 0.0
C285 C 0.36245 0.38645 0.70627 0.0
C286 C 0.30276 0.37667 0.68013 0.0
C287 C 0.28431 0.33546 0.69533 0.0
C288 C 0.34303 0.34529 0.72038 0.0
N289 N 0.22978 0.26812 0.70077 0.0
C290 C 0.24601 0.30818 0.68737 0.0
C291 C 0.16979 0.25257 0.67195 0.0
C292 C 0.18649 0.29324 0.65696 0.0
C293 C 0.1918 0.24067 0.6943 0.0
C294 C 0.22494 0.32172 0.66477 0.0
H295 H 0.16944 0.30237 0.63955 0.0
O296 O 0.2253 0.23072 0.77304 0.0
O297 O 0.27563 0.20019 0.76634 0.0
O298 O 0.27096 0.18427 0.70295 0.0
O299 O 0.24736 0.22701 0.69636 0.0
O300 O 0.22045 0.18655 0.7519 0.0
O301 O 0.26876 0.29439 0.76541 0.0
O302 O 0.36669 0.20059 0.72872 0.0
O303 O 0.30837 0.24543 0.72157 0.0
O304 O 0.32026 0.27664 0.77369 0.0
O305 O 0.35065 0.24066 0.77984 0.0
O306 O 0.36169 0.25793 0.72137 0.0
O307 O 0.31192 0.15918 0.70956 0.0
C308 C 0.24035 0.17271 0.76986 0.0
C309 C 0.2429 0.36303 0.65046 0.0
C310 C 0.28171 0.39045 0.65815 0.0
C311 C 0.23692 0.26665 0.77821 0.0
C312 C 0.20641 0.27579 0.77531 0.0
C313 C 0.17234 0.25371 0.75686 0.0
C314 C 0.20903 0.30352 0.79218 0.0
C315 C 0.17835 0.30962 0.7892 0.0
C316 C 0.14309 0.26057 0.75302 0.0
C317 C 0.14593 0.288 0.76896 0.0
C318 C 0.25039 0.19994 0.68739 0.0
C319 C 0.33891 0.27033 0.70852 0.0
C320 C 0.34833 0.17533 0.70839 0.0
C321 C 0.3635 0.14885 0.70403 0.0
C322 C 0.36898 0.12556 0.73151 0.0
C323 C 0.37468 0.14711 0.67485 0.0
C324 C 0.39108 0.12269 0.67469 0.0
C325 C 0.38429 0.10253 0.73156 0.0
C326 C 0.39499 0.10119 0.70422 0.0
C327 C 0.347 0.26912 0.78674 0.0
H328 H 0.16738 0.22966 0.74615 0.0
H329 H 0.23434 0.31975 0.80756 0.0
H330 H 0.11738 0.24343 0.73832 0.0
H331 H 0.12164 0.29093 0.76629 0.0
H332 H 0.36171 0.12554 0.75363 0.0
H333 H 0.37142 0.16501 0.653 0.0
H334 H 0.3883 0.08538 0.75357 0.0
H335 H 0.40687 0.08274 0.70639 0.0
Gd336 Gd 0.99762 0.02689 0.4954 0.0
Gd337 Gd 0.04209 0.96836 0.50464 0.0
C338 C 0.1433 0.02639 0.44568 0.0
C339 C 0.11601 0.98179 0.40676 0.0
C340 C 0.07859 0.96717 0.44859 0.0
C341 C 0.10848 0.00199 0.46003 0.0
C342 C 0.08275 0.95567 0.42273 0.0
C343 C 0.14623 0.01721 0.41818 0.0
C344 C 0.17478 0.05803 0.4602 0.0
C345 C 0.17181 0.06309 0.48927 0.0
N346 N 0.10493 0.00945 0.48704 0.0
C347 C 0.13702 0.03778 0.50281 0.0
H348 H 0.13703 0.0411 0.52626 0.0
C349 C 0.02093 0.90328 0.4588 0.0
N350 N 0.04708 0.94227 0.46478 0.0
C351 C 0.02371 0.89055 0.43332 0.0
C352 C 0.05429 0.91727 0.41472 0.0
H353 H 0.99698 0.88265 0.47298 0.0
H354 H 0.17242 0.03615 0.40649 0.0
H355 H 0.90134 0.95727 0.47502 0.0
H356 H 0.20192 0.07742 0.44992 0.0
H357 H 0.1965 0.08611 0.50157 0.0
H358 H 0.11937 0.97389 0.38644 0.0
H359 H 0.0467 0.11535 0.52328 0.0
H360 H 0.84032 0.92581 0.55302 0.0
H361 H 0.84275 0.91407 0.5015 0.0
H362 H 0.92708 0.03413 0.61175 0.0
H363 H 1.00225 0.8602 0.42803 0.0
H364 H 0.05652 0.90727 0.39508 0.0
H365 H 0.87234 0.97062 0.59439 0.0
H366 H 0.04442 0.14243 0.56684 0.0
N367 N 0.93534 0.98985 0.51328 0.0
C368 C 0.86693 0.94418 0.54195 0.0
C369 C 0.8682 0.93741 0.51296 0.0
C370 C 0.8993 0.97656 0.55515 0.0
C371 C 0.9334 -0.00066 0.53992 0.0
C372 C 0.90233 0.96149 0.49841 0.0
N373 N 0.99536 0.05752 0.53317 0.0
C374 C 0.9643 0.0347 0.54995 0.0
C375 C 0.02182 0.11196 0.56249 0.0
C376 C 0.99158 0.08743 0.5817 0.0
C377 C 0.02289 0.09676 0.53775 0.0
C378 C 0.96185 0.04865 0.57511 0.0
H379 H 0.99074 0.0993 0.6008 0.0
O380 O 1.01779 0.08586 0.46661 0.0
O381 O 0.03189 0.0144 0.47323 0.0
O382 O 0.07701 0.02507 0.52621 0.0
O383 O 0.03683 0.04039 0.5388 0.0
O384 O 0.05458 0.07414 0.47514 0.0
O385 O 0.96043 0.03475 0.45628 0.0
O386 O 0.02936 0.90876 0.5286 0.0
O387 O 1.00644 0.97951 0.52554 0.0
O388 O 0.96036 0.96875 0.4759 0.0
O389 O 0.9989 0.95068 0.46405 0.0
O390 O 0.98729 0.91976 0.52856 0.0
O391 O 0.07786 0.96385 0.54596 0.0
C392 C 0.05851 0.05029 0.46355 0.0
C393 C 0.92916 0.02437 0.59191 0.0
C394 C 0.89799 0.98821 0.58204 0.0
C395 C 0.98557 0.07399 0.44959 0.0
C396 C 0.97216 0.10159 0.44359 0.0
C397 C 0.99064 0.13608 0.45856 0.0
C398 C 0.94204 0.09492 0.42078 0.0
C399 C 0.93019 0.12225 0.41316 0.0
C400 C 0.97885 0.16359 0.45058 0.0
C401 C 0.94861 0.15674 0.42787 0.0
C402 C 0.06969 0.04376 0.54144 0.0
C403 C 0.98101 0.94397 0.53695 0.0
C404 C 0.05933 0.92413 0.54848 0.0
C405 C 0.08256 0.90712 0.55337 0.0
C406 C 0.0889 0.89555 0.52888 0.0
C407 C 0.09736 0.9009 0.58383 0.0
C408 C 0.11721 0.88157 0.59032 0.0
C409 C 0.10915 0.87633 0.53543 0.0
C410 C 0.12302 0.86889 0.56625 0.0
C411 C 0.96606 0.94679 0.46288 0.0
H412 H 1.01449 0.14224 0.476 0.0
H413 H 0.92802 0.06874 0.40881 0.0
H414 H 0.9933 0.1903 0.46185 0.0
H415 H 0.93965 0.17833 0.42161 0.0
H416 H 0.07785 0.90075 0.50502 0.0
H417 H 0.09249 0.91001 0.60268 0.0
H418 H 0.11371 0.86685 0.51674 0.0
H419 H 0.13835 0.85352 0.57135 0.0
Gd420 Gd 0.30199 0.7675 0.7292 0.0
Gd421 Gd 0.22355 0.71376 0.78206 0.0
C422 C 0.23198 0.63407 0.87405 0.0
C423 C 0.17661 0.56671 0.86677 0.0
C424 C 0.19071 0.62578 0.82586 0.0
C425 C 0.22286 0.65071 0.84389 0.0
C426 C 0.16648 0.58378 0.83759 0.0
C427 C 0.20935 0.59179 0.88496 0.0
C428 C 0.26246 0.66061 0.89296 0.0
C429 C 0.28201 0.70271 0.88222 0.0
N430 N 0.24337 0.69164 0.83306 0.0
C431 C 0.27194 0.7178 0.85221 0.0
H432 H 0.28776 0.75044 0.84468 0.0
C433 C 0.1462 0.6216 0.78244 0.0
N434 N 0.18133 0.64324 0.79802 0.0
C435 C 0.12132 0.57986 0.79296 0.0
C436 C 0.13184 0.56064 0.82036 0.0
H437 H 0.13808 0.63635 0.76107 0.0
H438 H 0.21608 0.57843 0.90793 0.0
H439 H 0.2321 0.72687 0.66895 0.0
H440 H 0.27032 0.64905 0.91625 0.0
H441 H 0.3051 0.72363 0.89695 0.0
H442 H 0.1586 0.53446 0.87596 0.0
H443 H 0.38471 0.84615 0.75005 0.0
H444 H 0.26638 0.81615 0.58645 0.0
H445 H 0.22219 0.7462 0.61299 0.0
H446 H 0.38114 0.93122 0.62066 0.0
H447 H 0.09411 0.56258 0.77992 0.0
H448 H 0.11242 0.52833 0.82862 0.0
H449 H 0.32555 0.8851 0.58974 0.0
H450 H 0.43109 0.91778 0.72821 0.0
N451 N 0.28375 0.78437 0.67579 0.0
C452 C 0.27146 0.80758 0.61142 0.0
C453 C 0.24669 0.76805 0.62625 0.0
C454 C 0.30255 0.83556 0.62898 0.0
C455 C 0.30805 0.82301 0.6615 0.0
C456 C 0.25321 0.7569 0.65844 0.0
N457 N 0.34536 0.83586 0.70973 0.0
C458 C 0.33941 0.84971 0.67916 0.0
C459 C 0.40515 0.8992 0.71431 0.0
C460 C 0.39844 0.91484 0.68346 0.0
C461 C 0.37858 0.85903 0.72684 0.0
C462 C 0.36598 0.88965 0.66501 0.0
H463 H 0.41934 0.94583 0.67415 0.0
O464 O 0.35491 0.76958 0.7386 0.0
O465 O 0.27567 0.72361 0.77091 0.0
O466 O 0.27323 0.77627 0.79439 0.0
O467 O 0.3086 0.81623 0.75049 0.0
O468 O 0.33314 0.76297 0.77638 0.0
O469 O 0.31099 0.73436 0.70387 0.0
O470 O 0.16984 0.70834 0.77453 0.0
O471 O 0.25073 0.75965 0.74093 0.0
O472 O 0.25318 0.70714 0.71724 0.0
O473 O 0.21429 0.66502 0.75828 0.0
O474 O 0.19356 0.72263 0.73484 0.0
O475 O 0.20986 0.73692 0.81432 0.0
C476 C 0.30419 0.73044 0.78958 0.0
C477 C 0.36045 0.90199 0.63267 0.0
C478 C 0.32885 0.87518 0.61476 0.0
C479 C 0.3457 0.74805 0.71689 0.0
C480 C 0.37468 0.76263 0.6959 0.0
C481 C 0.40795 0.80209 0.69413 0.0
C482 C 0.36971 0.73492 0.67882 0.0
C483 C 0.39813 0.74578 0.66055 0.0
C484 C 0.43633 0.81321 0.67567 0.0
C485 C 0.43149 0.78526 0.65886 0.0
C486 C 0.30007 0.81144 0.779 0.0
C487 C 0.22292 0.7553 0.72219 0.0
C488 C 0.17627 0.72442 0.79899 0.0
C489 C 0.14671 0.72761 0.80719 0.0
C490 C 0.10871 0.70279 0.79525 0.0
C491 C 0.15613 0.75648 0.82535 0.0
C492 C 0.12764 0.76095 0.83085 0.0
C493 C 0.08044 0.70735 0.8009 0.0
C494 C 0.08985 0.73645 0.81862 0.0
C495 C 0.22596 0.67131 0.73075 0.0
H496 H 0.41235 0.824 0.70728 0.0
H497 H 0.34405 0.70437 0.6805 0.0
H498 H 0.46222 0.84341 0.67455 0.0
H499 H 0.45427 0.79411 0.64536 0.0
H500 H 0.10085 0.68002 0.78136 0.0
H501 H 0.18536 0.77584 0.8346 0.0
H502 H 0.05123 0.68818 0.79171 0.0
H503 H 0.06763 0.73962 0.8231 0.0
Gd504 Gd 0.50181 0.03463 0.98957 0.0
Gd505 Gd 0.532 0.96289 0.00629 0.0
C506 C 0.47306 0.85437 0.08425 0.0
C507 C 0.52344 0.87147 0.12667 0.0
C508 C 0.53596 0.91559 0.07555 0.0
C509 C 0.49834 0.88999 0.06434 0.0
C510 C 0.54916 0.90546 0.10643 0.0
C511 C 0.48546 0.84607 0.11563 0.0
C512 C 0.43629 0.82739 0.07189 0.0
C513 C 0.42596 0.83509 0.0401 0.0
N514 N 0.48699 0.89849 0.03371 0.0
C515 C 0.45188 0.87048 0.02116 0.0
H516 H 0.44289 0.87461 0.99669 0.0
C517 C 0.59903 0.96872 0.06368 0.0
N518 N 0.56036 0.94854 0.05568 0.0
C519 C 0.61334 0.95966 0.09393 0.0
C520 C 0.58819 0.92867 0.11569 0.0
H521 H 0.61872 0.99335 0.04717 0.0
H522 H 0.46619 0.81924 0.13128 0.0
H523 H 0.59493 0.11102 0.99693 0.0
H524 H 0.41612 0.79982 0.08643 0.0
H525 H 0.39797 0.81368 0.03007 0.0
H526 H 0.53295 0.86373 0.1506 0.0
H527 H 0.41629 0.99805 0.94506 0.0
H528 H 0.61878 0.1992 0.91292 0.0
H529 H 0.63988 0.17601 0.96587 0.0
H530 H 0.49978 0.14383 0.85016 0.0
H531 H 0.64373 0.97677 0.10046 0.0
H532 H 0.59936 0.92178 0.13916 0.0
H533 H 0.56661 0.18687 0.87005 0.0
H534 H 0.3914 0.01819 0.89312 0.0
N535 N 0.54794 0.09694 0.96218 0.0
C536 C 0.59857 0.17063 0.92661 0.0
C537 C 0.6106 0.15764 0.95647 0.0
C538 C 0.56064 0.14668 0.91471 0.0
C539 C 0.53542 0.10952 0.93333 0.0
C540 C 0.58478 0.12065 0.97412 0.0
N541 N 0.4734 0.04951 0.94036 0.0
C542 C 0.49741 0.08508 0.92204 0.0
C543 C 0.42117 0.03739 0.90102 0.0
C544 C 0.44574 0.07285 0.88147 0.0
C545 C 0.43529 0.02651 0.93073 0.0
C546 C 0.48416 0.09745 0.89198 0.0
H547 H 0.43467 0.08117 0.85842 0.0
O548 O 0.47761 0.03339 0.02902 0.0
O549 O 0.49415 0.97747 0.01992 0.0
O550 O 0.47997 0.93992 0.97205 0.0
O551 O 0.47947 -0.00101 0.95017 0.0
O552 O 0.44487 0.97564 0.00041 0.0
O553 O 0.49472 0.08398 0.99107 0.0
O554 O 0.58563 0.97754 0.9942 0.0
O555 O 0.54958 0.02843 0.98429 0.0
O556 O 0.54769 0.05447 0.02872 0.0
O557 O 0.56014 0.00256 0.04356 0.0
O558 O 0.54777 0.99231 0.9569 0.0
O559 O 0.53382 0.91685 0.99089 0.0
C560 C 0.45813 0.95551 0.02014 0.0
C561 C 0.50945 0.13407 0.87336 0.0
C562 C 0.5475 0.15864 0.88471 0.0
C563 C 0.47722 0.06609 0.01658 0.0
C564 C 0.44047 0.06206 0.01499 0.0
C565 C 0.40885 0.03441 0.99736 0.0
C566 C 0.43666 0.08577 0.03078 0.0
C567 C 0.40158 0.0827 0.02786 0.0
C568 C 0.37433 0.03181 0.99395 0.0
C569 C 0.37067 0.05592 0.00898 0.0
C570 C 0.46911 0.96133 0.9499 0.0
C571 C 0.55638 0.02831 0.95751 0.0
C572 C 0.57028 0.94149 0.98676 0.0
C573 C 0.59359 0.92382 0.99445 0.0
C574 C 0.59966 0.90686 0.02527 0.0
C575 C 0.61001 0.92395 0.97 0.0
C576 C 0.63216 0.90683 0.97634 0.0
C577 C 0.62334 0.8917 0.03181 0.0
C578 C 0.63943 0.89148 0.00744 0.0
C579 C 0.56296 0.03542 0.04804 0.0
H580 H 0.41072 0.01449 0.98655 0.0
H581 H 0.46074 0.10649 0.04509 0.0
H582 H 0.35021 0.01065 0.97999 0.0
H583 H 0.34324 0.05268 0.00666 0.0
H584 H 0.58581 0.90469 0.04415 0.0
H585 H 0.60457 0.93612 0.946 0.0
H586 H 0.62856 0.87927 0.05569 0.0
H587 H 0.65701 0.87868 0.01274 0.0
Gd588 Gd 0.23627 0.29187 0.23076 0.0
Gd589 Gd 0.19643 0.20852 0.19242 0.0
C590 C 0.12901 0.20134 0.09729 0.0
C591 C 0.07431 0.13133 0.10482 0.0
C592 C 0.12029 0.15954 0.14888 0.0
C593 C 0.14122 0.19648 0.12943 0.0
C594 C 0.08657 0.1265 0.13673 0.0
C595 C 0.0957 0.16857 0.08516 0.0
C596 C 0.15131 0.23856 0.07799 0.0
C597 C 0.18496 0.26982 0.09084 0.0
N598 N 0.17449 0.2269 0.14149 0.0
C599 C 0.19631 0.2633 0.12268 0.0
H600 H 0.22266 0.28751 0.13185 0.0
C601 C 0.11659 0.11752 0.19803 0.0
N602 N 0.1342 0.155 0.17912 0.0
C603 C 0.08257 0.08429 0.18736 0.0
C604 C 0.06731 0.08885 0.15659 0.0
H605 H 0.12967 0.1127 0.22103 0.0
H606 H 0.08691 0.17166 0.06044 0.0
H607 H 0.20625 0.23131 0.30292 0.0
H608 H 0.14296 0.24333 0.05315 0.0
H609 H 0.20257 0.29873 0.07613 0.0
H610 H 0.04896 0.10607 0.09499 0.0
H611 H 0.3148 0.37707 0.19589 0.0
H612 H 0.30262 0.24495 0.36345 0.0
H613 H 0.23312 0.21345 0.35324 0.0
H614 H 0.40825 0.34966 0.30515 0.0
H615 H 0.06887 0.05483 0.20255 0.0
H616 H 0.04153 0.06273 0.14805 0.0
H617 H 0.36734 0.29537 0.34535 0.0
H618 H 0.38414 0.41487 0.20514 0.0
N619 N 0.25916 0.27109 0.2815 0.0
C620 C 0.29085 0.25261 0.34051 0.0
C621 C 0.25168 0.23481 0.33485 0.0
C622 C 0.31449 0.28113 0.31691 0.0
C623 C 0.29779 0.2901 0.28722 0.0
C624 C 0.23636 0.24475 0.30544 0.0
N625 N 0.30459 0.33058 0.23652 0.0
C626 C 0.321 0.32046 0.2642 0.0
C627 C 0.36686 0.38789 0.22165 0.0
C628 C 0.38401 0.37623 0.24887 0.0
C629 C 0.32718 0.3654 0.21618 0.0
C630 C 0.36121 0.34286 0.27085 0.0
H631 H 0.41479 0.39428 0.25333 0.0
O632 O 0.26412 0.35591 0.23328 0.0
O633 O 0.1921 0.2654 0.18925 0.0
O634 O 0.25637 0.25511 0.18 0.0
O635 O 0.26148 0.31353 0.18506 0.0
O636 O 0.20381 0.31906 0.19867 0.0
O637 O 0.21854 0.30769 0.2643 0.0
O638 O 0.19725 0.15442 0.20224 0.0
O639 O 0.24457 0.24152 0.22821 0.0
O640 O 0.1818 0.24033 0.25307 0.0
O641 O 0.15393 0.18473 0.22751 0.0
O642 O 0.20731 0.17968 0.24163 0.0
O643 O 0.22116 0.19666 0.15918 0.0
C644 C 0.18258 0.29327 0.1797 0.0
C645 C 0.37756 0.33281 0.29983 0.0
C646 C 0.35427 0.30195 0.32274 0.0
C647 C 0.24445 0.34655 0.25633 0.0
C648 C 0.24912 0.3776 0.27083 0.0
C649 C 0.28514 0.41226 0.27674 0.0
C650 C 0.2166 0.37196 0.27903 0.0
C651 C 0.21947 0.4004 0.2937 0.0
C652 C 0.28818 0.44118 0.29138 0.0
C653 C 0.25535 0.43531 0.29994 0.0
C654 C 0.2739 0.29496 0.17541 0.0
C655 C 0.23994 0.21076 0.24949 0.0
C656 C 0.21433 0.16265 0.17788 0.0
C657 C 0.21996 0.13125 0.17264 0.0
C658 C 0.19793 0.09112 0.18898 0.0
C659 C 0.24673 0.13993 0.15288 0.0
C660 C 0.25182 0.10867 0.15031 0.0
C661 C 0.20276 0.06052 0.18646 0.0
C662 C 0.22985 0.06926 0.16789 0.0
C663 C 0.15552 0.20176 0.25017 0.0
H664 H 0.31064 0.41657 0.27045 0.0
H665 H 0.1888 0.34508 0.27417 0.0
H666 H 0.31592 0.46776 0.29643 0.0
H667 H 0.258 0.45725 0.31209 0.0
H668 H 0.17657 0.08311 0.20384 0.0
H669 H 0.2633 0.17055 0.13982 0.0
H670 H 0.18574 0.02991 0.19936 0.0
H671 H 0.23377 0.04482 0.16781 0.0
Gd672 Gd 0.49044 0.52346 0.99104 0.0
Gd673 Gd 0.54297 0.47232 0.01136 0.0
C674 C 0.66067 0.52634 0.97997 0.0
C675 C 0.6472 0.47878 0.94704 0.0
C676 C 0.59587 0.46926 0.97151 0.0
C677 C 0.62155 0.50417 0.98482 0.0
C678 C 0.60848 0.45618 0.95252 0.0
C679 C 0.67328 0.51351 0.961 0.0
C680 C 0.68608 0.5609 0.99424 0.0
C681 C 0.67221 0.57371 0.01168 0.0
N682 N 0.60846 0.51638 0.00257 0.0
C683 C 0.63328 0.5511 0.01564 0.0
H684 H 0.62385 0.56242 0.02899 0.0
C685 C 0.53334 0.41069 0.96746 0.0
N686 N 0.55875 0.44752 0.97767 0.0
C687 C 0.54431 0.39712 0.94792 0.0
C688 C 0.58198 0.42021 0.94012 0.0
H689 H 0.50432 0.39222 0.97411 0.0
H690 H 0.70317 0.53038 0.95687 0.0
H691 H 0.41029 0.42937 0.97923 0.0
H692 H 0.71638 0.57839 0.99142 0.0
H693 H 0.69154 0.60103 0.02216 0.0
H694 H 0.65739 0.46927 0.93246 0.0
H695 H 0.52476 0.60899 0.01816 0.0
H696 H 0.31679 0.41697 0.012 0.0
H697 H 0.34254 0.39128 0.98519 0.0
H698 H 0.37416 0.53292 0.06306 0.0
H699 H 0.52377 0.36872 0.93911 0.0
H700 H 0.59054 0.40946 0.92518 0.0
H701 H 0.32898 0.46917 0.04172 0.0
H702 H 0.5061 0.63601 0.05075 0.0
N703 N 0.42507 0.47853 0.00164 0.0
C704 C 0.34713 0.43433 0.00937 0.0
C705 C 0.36149 0.41985 0.99413 0.0
C706 C 0.37217 0.47041 0.02184 0.0
C707 C 0.41145 0.49206 0.0176 0.0
C708 C 0.40049 0.44235 0.99039 0.0
N709 N 0.4732 0.55076 0.02123 0.0
C710 C 0.43652 0.52868 0.02854 0.0
C711 C 0.48632 0.60551 0.0451 0.0
C712 C 0.44931 0.58213 0.05444 0.0
C713 C 0.49722 0.58984 0.02737 0.0
C714 C 0.42345 0.54392 0.04511 0.0
H715 H 0.44049 0.59466 0.0675 0.0
O716 O 0.51349 0.58158 0.96059 0.0
O717 O 0.53756 0.52104 0.98099 0.0
O718 O 0.56394 0.51813 0.04519 0.0
O719 O 0.52069 0.5386 0.03865 0.0
O720 O 0.55092 0.57766 0.98553 0.0
O721 O 0.45654 0.53106 0.94885 0.0
O722 O 0.52303 0.41138 0.03691 0.0
O723 O 0.49675 0.4753 0.02185 0.0
O724 O 0.46755 0.47546 0.95899 0.0
O725 O 0.51635 0.46467 0.96176 0.0
O726 O 0.48275 0.41822 0.01751 0.0
O727 O 0.57462 0.46386 0.05459 0.0
C728 C 0.56373 0.55827 0.97842 0.0
C729 C 0.38472 0.52168 0.05044 0.0
C730 C 0.359 0.48548 0.03821 0.0
C731 C 0.48272 0.56986 0.94191 0.0
C732 C 0.4707 0.59858 0.9329 0.0
C733 C 0.48421 0.63049 0.94965 0.0
C734 C 0.44857 0.59653 0.90479 0.0
C735 C 0.44039 0.62651 0.89292 0.0
C736 C 0.47483 0.6598 0.93825 0.0
C737 C 0.45303 0.65804 0.90973 0.0
C738 C 0.55143 0.53867 0.05287 0.0
C739 C 0.47075 0.43813 0.02486 0.0
C740 C 0.55234 0.42399 0.05758 0.0
C741 C 0.57117 0.40166 0.0641 0.0
C742 C 0.57257 0.38392 0.04114 0.0
C743 C 0.58718 0.39713 0.09438 0.0
C744 C 0.60445 0.37484 0.10189 0.0
C745 C 0.59048 0.3623 0.04839 0.0
C746 C 0.60646 0.35768 0.07877 0.0
C747 C 0.48336 0.45987 0.94905 0.0
H748 H 0.50297 0.63379 0.97079 0.0
H749 H 0.43867 0.57233 0.89158 0.0
H750 H 0.48503 0.68423 0.95118 0.0
H751 H 0.44591 0.681 0.90089 0.0
H752 H 0.55951 0.38601 0.0179 0.0
H753 H 0.58571 0.41042 0.11223 0.0
H754 H 0.59172 0.34895 0.03055 0.0
H755 H 0.62062 0.34105 0.08417 0.0
Gd756 Gd 0.81112 0.28458 0.21374 0.0
Gd757 Gd 0.73971 0.23164 0.27216 0.0
C758 C 0.72218 0.12946 0.35555 0.0
C759 C 0.65968 0.07289 0.34075 0.0
C760 C 0.68976 0.13763 0.30481 0.0
C761 C 0.7212 0.15368 0.32634 0.0
C762 C 0.65851 0.09705 0.31195 0.0
C763 C 0.69145 0.08912 0.36252 0.0
C764 C 0.75284 0.14718 0.37786 0.0
C765 C 0.78078 0.18856 0.37146 0.0
N766 N 0.74909 0.1939 0.32006 0.0
C767 C 0.77792 0.21169 0.34281 0.0
H768 H 0.79896 0.24385 0.33975 0.0
C769 C 0.6546 0.15025 0.25947 0.0
N770 N 0.68804 0.16277 0.2783 0.0
C771 C 0.62337 0.10994 0.26511 0.0
C772 C 0.62556 0.08301 0.29122 0.0
H773 H 0.65249 0.17142 0.23969 0.0
H774 H 0.69144 0.071 0.38532 0.0
H775 H 0.72848 0.25419 0.16168 0.0
H776 H 0.7544 0.12957 0.40054 0.0
H777 H 0.80411 0.203 0.3889 0.0
H778 H 0.63517 0.04237 0.34698 0.0
H779 H 0.89254 0.36842 0.23695 0.0
H780 H 0.75935 0.34389 0.07933 0.0
H781 H 0.71328 0.27588 0.10721 0.0
H782 H 0.8789 0.45652 0.11167 0.0
H783 H 0.59746 0.09987 0.24958 0.0
H784 H 0.60103 0.05204 0.29597 0.0
H785 H 0.82056 0.41135 0.08148 0.0
H786 H 0.93624 0.43994 0.21463 0.0
N787 N 0.78656 0.30477 0.16396 0.0
C788 C 0.76726 0.33331 0.10298 0.0
C789 C 0.74135 0.29477 0.1185 0.0
C790 C 0.80194 0.35886 0.11892 0.0
C791 C 0.8109 0.34382 0.14989 0.0
C792 C 0.75104 0.28142 0.14929 0.0
N793 N 0.85119 0.35572 0.19717 0.0
C794 C 0.84366 0.37003 0.16709 0.0
C795 C 0.91011 0.42088 0.20112 0.0
C796 C 0.90197 0.43646 0.17076 0.0
C797 C 0.88476 0.38021 0.21379 0.0
C798 C 0.8687 0.41099 0.15328 0.0
H799 H 0.92185 0.46798 0.16084 0.0
O800 O 0.86802 0.29799 0.22962 0.0
O801 O 0.79398 0.24589 0.26017 0.0
O802 O 0.79694 0.27972 0.29155 0.0
O803 O 0.82576 0.32661 0.24771 0.0
O804 O 0.8094 0.22549 0.23048 0.0
O805 O 0.84492 0.28774 0.18141 0.0
O806 O 0.69713 0.24515 0.27011 0.0
O807 O 0.76876 0.28459 0.23421 0.0
O808 O 0.75913 0.22747 0.19709 0.0
O809 O 0.72332 0.18686 0.24092 0.0
O810 O 0.71111 0.25178 0.22901 0.0
O811 O 0.73476 0.25019 0.31256 0.0
C812 C 0.79884 0.2187 0.25777 0.0
C813 C 0.86016 0.4253 0.12237 0.0
C814 C 0.82697 0.39942 0.10519 0.0
C815 C 0.8735 0.29467 0.20275 0.0
C816 C 0.89333 0.27376 0.20403 0.0
C817 C 0.92288 0.27956 0.22775 0.0
C818 C 0.88627 0.25194 0.18032 0.0
C819 C 0.90904 0.23677 0.18042 0.0
C820 C 0.9452 0.26413 0.22785 0.0
C821 C 0.93852 0.24307 0.20419 0.0
C822 C 0.82265 0.31658 0.27824 0.0
C823 C 0.74129 0.28511 0.21803 0.0
C824 C 0.70573 0.25237 0.29863 0.0
C825 C 0.67327 0.23557 0.31619 0.0
C826 C 0.63977 0.19745 0.31248 0.0
C827 C 0.6734 0.26197 0.33157 0.0
C828 C 0.63962 0.25171 0.34173 0.0
C829 C 0.60614 0.1866 0.32315 0.0
C830 C 0.60592 0.21381 0.33729 0.0
C831 C 0.73034 0.19321 0.21149 0.0
H832 H 0.92939 0.29694 0.24586 0.0
H833 H 0.86427 0.248 0.16134 0.0
H834 H 0.96822 0.26925 0.24596 0.0
H835 H 0.95674 0.23215 0.20411 0.0
H836 H 0.63921 0.1768 0.30046 0.0
H837 H 0.69939 0.29156 0.33394 0.0
H838 H 0.58004 0.1576 0.31971 0.0
H839 H 0.57912 0.20583 0.34349 0.0
Gd840 Gd 1.00227 0.53258 0.49636 0.0
Gd841 Gd 0.04157 0.47197 0.50421 0.0
C842 C 0.97283 0.34998 0.56827 0.0
C843 C 0.01934 0.3548 0.61244 0.0
C844 C 0.03721 0.40999 0.56759 0.0
C845 C 1.00055 0.38897 0.55346 0.0
C846 C 0.04743 0.39236 0.59664 0.0
C847 C 0.98207 0.33364 0.59828 0.0
C848 C 0.93702 0.3281 0.5521 0.0
C849 C 0.92998 0.34471 0.52161 0.0
N850 N 0.99252 0.40572 0.52452 0.0
C851 C 0.95828 0.38367 0.50804 0.0
H852 H 0.95253 0.39592 0.48446 0.0
C853 C 0.10164 0.463 0.56116 0.0
N854 N 0.06369 0.44604 0.55165 0.0
C855 C 0.11325 0.44682 0.58988 0.0
C856 C 0.0859 0.41197 0.60814 0.0
H857 H 0.12284 0.4901 0.54706 0.0
H858 H 0.96097 0.30406 0.61026 0.0
H859 H 0.07353 0.6231 0.52135 0.0
H860 H 0.91498 0.29803 0.56263 0.0
H861 H 0.90269 0.32766 0.5086 0.0
H862 H 0.0265 0.3411 0.63504 0.0
H863 H 0.92303 0.49822 0.44366 0.0
H864 H 0.10173 0.72016 0.44392 0.0
H865 H 0.11322 0.69496 0.49947 0.0
H866 H 1.00649 0.65712 0.36252 0.0
H867 H 0.14325 0.46131 0.5979 0.0
H868 H 0.09494 0.39942 0.63036 0.0
H869 H 0.06222 0.70569 0.39302 0.0
H870 H 0.90465 0.51883 0.38981 0.0
N871 N 0.04211 0.60409 0.47765 0.0
C872 C 0.08468 0.68774 0.45315 0.0
C873 C 0.09139 0.6736 0.48442 0.0
C874 C 0.05504 0.66013 0.43449 0.0
C875 C 0.03375 0.61799 0.44756 0.0
C876 C 0.06917 0.6319 0.49652 0.0
N877 N 0.97987 0.55158 0.4448 0.0
C878 C 1.00229 0.59073 0.43041 0.0
C879 C 0.93263 0.53913 0.40055 0.0
C880 C 0.95695 0.57791 0.38447 0.0
C881 C 0.94395 0.52708 0.43107 0.0
C882 C 0.99151 0.60484 0.39977 0.0
H883 H 0.94773 0.58761 0.36104 0.0
O884 O 0.94495 0.51772 0.49724 0.0
O885 O 0.99246 0.47037 0.51618 0.0
O886 O 1.00854 0.47128 0.45776 0.0
O887 O 0.96367 0.47762 0.47193 0.0
O888 O 0.9932 0.50274 0.54668 0.0
O889 O 0.99216 0.55837 0.5274 0.0
O890 O 0.08948 0.47628 0.49034 0.0
O891 O 0.04314 0.52772 0.47586 0.0
O892 O 0.05629 0.55701 0.52908 0.0
O893 O 0.06596 0.50335 0.54594 0.0
O894 O 0.09461 0.53475 0.49386 0.0
O895 O 0.03142 0.42989 0.47551 0.0
C896 C 0.98763 0.46857 0.54412 0.0
C897 C 1.01416 0.646 0.38607 0.0
C898 C 0.04572 0.67366 0.40349 0.0
C899 C 0.95635 0.54223 0.51713 0.0
C900 C 0.94354 0.57014 0.51078 0.0
C901 C 0.93501 0.58626 0.48045 0.0
C902 C 0.94172 0.58219 0.53677 0.0
C903 C 0.93101 0.61001 0.53311 0.0
C904 C 0.92387 0.61403 0.47663 0.0
C905 C 0.92155 0.62574 0.50294 0.0
C906 C 0.97565 0.46824 0.45221 0.0
C907 C 0.07897 0.55286 0.4748 0.0
C908 C 0.0677 0.44507 0.47577 0.0
C909 C 0.07902 0.41619 0.48026 0.0
C910 C 0.08852 0.39934 0.50985 0.0
C911 C 0.08307 0.408 0.45325 0.0
C912 C 0.0981 0.38439 0.45525 0.0
C913 C 0.10383 0.37571 0.51197 0.0
C914 C 0.1092 0.36866 0.48462 0.0
C915 C 0.07165 0.53822 0.54901 0.0
H916 H 0.93682 0.57752 0.45998 0.0
H917 H 0.94787 0.56896 0.56015 0.0
H918 H 0.91679 0.62623 0.45333 0.0
H919 H 0.91217 0.64663 0.49986 0.0
H920 H 0.08474 0.40473 0.53108 0.0
H921 H 0.07622 0.42176 0.43042 0.0
H922 H 0.11204 0.36343 0.53472 0.0
H923 H 0.12197 0.35121 0.48628 0.0
Gd924 Gd 0.72506 0.81175 0.24982 0.0
Gd925 Gd 0.7721 0.75194 0.25612 0.0
C926 C 0.72939 0.6302 0.32275 0.0
C927 C 0.78335 0.64631 0.36185 0.0
C928 C 0.78574 0.69912 0.31873 0.0
C929 C 0.74926 0.67115 0.3072 0.0
C930 C 0.80344 0.68676 0.34586 0.0
C931 C 0.7466 0.61803 0.35014 0.0
C932 C 0.69318 0.60242 0.30989 0.0
C933 C 0.67785 0.61551 0.28196 0.0
N934 N 0.73369 0.68358 0.28024 0.0
C935 C 0.69876 0.65627 0.26716 0.0
H936 H 0.68651 0.66566 0.24549 0.0
C937 C 0.84291 0.76431 0.31003 0.0
N938 N 0.80491 0.7377 0.30223 0.0
C939 C 0.86139 0.75366 0.33709 0.0
C940 C 0.84139 0.71492 0.35535 0.0
H941 H 0.85852 0.79409 0.29567 0.0
H942 H 0.73202 0.58656 0.3621 0.0
H943 H 0.81241 0.89854 0.26456 0.0
H944 H 0.67709 0.57067 0.32105 0.0
H945 H 0.64998 0.59418 0.2717 0.0
H946 H 0.79642 0.63627 0.38278 0.0
H947 H 0.64064 0.78815 0.20931 0.0
H948 H 0.84712 0.9765 0.17644 0.0
H949 H 0.861 0.95992 0.2335 0.0
H950 H 0.73251 0.91825 0.10791 0.0
H951 H 0.89106 0.7752 0.34374 0.0
H952 H 0.85588 0.70661 0.37615 0.0
H953 H 0.79909 0.9601 0.12942 0.0
H954 H 0.6178 0.80647 0.15507 0.0
N955 N 0.77086 0.87803 0.2254 0.0
C956 C 0.82541 0.94912 0.19001 0.0
C957 C 0.83335 0.93987 0.22218 0.0
C958 C 0.78896 0.92387 0.17606 0.0
C959 C 0.76186 0.88834 0.19474 0.0
C960 C 0.80544 0.90446 0.23973 0.0
N961 N 0.69909 0.83207 0.20193 0.0
C962 C 0.72466 0.86456 0.18259 0.0
C963 C 0.64798 0.82288 0.16247 0.0
C964 C 0.67436 0.85391 0.14133 0.0
C965 C 0.66087 0.81282 0.19313 0.0
C966 C 0.7132 0.87591 0.15152 0.0
H967 H 0.66433 0.86158 0.11759 0.0
O968 O 0.68121 0.80028 0.27793 0.0
O969 O 0.72901 0.75768 0.27118 0.0
O970 O 0.72388 0.73431 0.21862 0.0
O971 O 0.69189 0.76859 0.21278 0.0
O972 O 0.67718 0.74958 0.27195 0.0
O973 O 0.73233 0.8576 0.27603 0.0
O974 O 0.82084 0.76547 0.23464 0.0
O975 O 0.76795 0.80582 0.22934 0.0
O976 O 0.77706 0.82941 0.28378 0.0
O977 O 0.78559 0.77503 0.30048 0.0
O978 O 0.82149 0.81563 0.24646 0.0
O979 O 0.76635 0.71056 0.22795 0.0
C980 C 0.69636 0.73221 0.28079 0.0
C981 C 0.74059 0.9096 0.1321 0.0
C982 C 0.77847 0.93348 0.14435 0.0
C983 C 0.69985 0.83465 0.28875 0.0
C984 C 0.67673 0.85277 0.29353 0.0
C985 C 0.65279 0.85604 0.26759 0.0
C986 C 0.67473 0.86376 0.32263 0.0
C987 C 0.64897 0.87722 0.32431 0.0
C988 C 0.62833 0.86836 0.26908 0.0
C989 C 0.62645 0.87852 0.29643 0.0
C990 C 0.69721 0.74183 0.20516 0.0
C991 C 0.80402 0.8315 0.22726 0.0
C992 C 0.8025 0.73129 0.22348 0.0
C993 C 0.8215 0.70766 0.23003 0.0
C994 C 0.83429 0.69871 0.26106 0.0
C995 C 0.82815 0.69475 0.20603 0.0
C996 C 0.84802 0.6741 0.21368 0.0
C997 C 0.85301 0.67798 0.26866 0.0
C998 C 0.85979 0.66577 0.24533 0.0
C999 C 0.78702 0.80694 0.30538 0.0
H1000 H 0.65244 0.84824 0.2457 0.0
H1001 H 0.69255 0.86157 0.34346 0.0
H1002 H 0.61009 0.86991 0.24837 0.0
H1003 H 0.60674 0.88782 0.29566 0.0
H1004 H 0.83023 0.70795 0.27973 0.0
H1005 H 0.81884 0.70151 0.18179 0.0
H1006 H 0.86254 0.67155 0.29288 0.0
H1007 H 0.87439 0.64955 0.25216 0.0
Gd1008 Gd 0.74812 0.26577 0.74017 0.0
Gd1009 Gd 0.79372 0.20933 0.75353 0.0
C1010 C 0.90944 0.25987 0.7185 0.0
C1011 C 0.89454 0.20574 0.69211 0.0
C1012 C 0.84457 0.20107 0.71503 0.0
C1013 C 0.87099 0.23788 0.72557 0.0
C1014 C 0.85608 0.18475 0.69801 0.0
C1015 C 0.92115 0.24324 0.70229 0.0
C1016 C 0.93486 0.29858 0.72697 0.0
C1017 C 0.92165 0.31501 0.74137 0.0
N1018 N 0.85861 0.25352 0.74072 0.0
C1019 C 0.88351 0.29219 0.74803 0.0
H1020 H 0.87442 0.30712 0.75779 0.0
C1021 C 0.78072 0.14493 0.71096 0.0
N1022 N 0.80746 0.18177 0.72059 0.0
C1023 C 0.79069 0.12793 0.69365 0.0
C1024 C 0.82856 0.14792 0.68716 0.0
H1025 H 0.75169 0.12817 0.71727 0.0
H1026 H 0.95056 0.2596 0.69689 0.0
H1027 H 0.66287 0.17522 0.72993 0.0
H1028 H 0.96443 0.31651 0.72167 0.0
H1029 H 0.94075 0.34555 0.74711 0.0
H1030 H 0.90389 0.19356 0.67921 0.0
H1031 H 0.7965 0.34938 0.7745 0.0
H1032 H 0.58405 0.16083 0.78505 0.0
H1033 H 0.59938 0.13598 0.74808 0.0
H1034 H 0.65638 0.27786 0.83653 0.0
H1035 H 0.76928 0.09903 0.68587 0.0
H1036 H 0.8363 0.13453 0.67394 0.0
H1037 H 0.60562 0.21351 0.81813 0.0
H1038 H 0.78607 0.37715 0.8128 0.0
N1039 N 0.68522 0.22374 0.756 0.0
C1040 C 0.61248 0.17868 0.77714 0.0
C1041 C 0.62095 0.16466 0.75614 0.0
C1042 C 0.64077 0.2154 0.7878 0.0
C1043 C 0.67735 0.23769 0.77664 0.0
C1044 C 0.65743 0.18767 0.74562 0.0
N1045 N 0.74107 0.29486 0.77629 0.0
C1046 C 0.70607 0.27406 0.78715 0.0
C1047 C 0.7634 0.34807 0.80592 0.0
C1048 C 0.72809 0.32624 0.81835 0.0
C1049 C 0.76922 0.33224 0.78439 0.0
C1050 C 0.69875 0.28909 0.80872 0.0
H1051 H 0.72358 0.33862 0.83499 0.0
O1052 O 0.76906 0.32528 0.71233 0.0
O1053 O 0.78796 0.25801 0.7217 0.0
O1054 O 0.82394 0.25649 0.78581 0.0
O1055 O 0.78117 0.27469 0.78717 0.0
O1056 O 0.80756 0.31643 0.72713 0.0
O1057 O 0.70974 0.27605 0.70384 0.0
O1058 O 0.77417 0.14794 0.77698 0.0
O1059 O 0.75269 0.21621 0.77086 0.0
O1060 O 0.71925 0.21934 0.70712 0.0
O1061 O 0.75907 0.19626 0.70794 0.0
O1062 O 0.73399 0.15776 0.76765 0.0
O1063 O 0.82559 0.20012 0.79598 0.0
C1064 C 0.81465 0.29497 0.71555 0.0
C1065 C 0.66244 0.26687 0.81986 0.0
C1066 C 0.63353 0.23022 0.80936 0.0
C1067 C 0.73629 0.31476 0.69659 0.0
C1068 C 0.72596 0.34474 0.69126 0.0
C1069 C 0.73982 0.37282 0.71178 0.0
C1070 C 0.70651 0.34909 0.66268 0.0
C1071 C 0.7019 0.38198 0.65423 0.0
C1072 C 0.73407 0.40504 0.7036 0.0
C1073 C 0.7153 0.40989 0.67464 0.0
C1074 C 0.81271 0.27503 0.79747 0.0
C1075 C 0.72584 0.17948 0.77755 0.0
C1076 C 0.80294 0.16035 0.7982 0.0
C1077 C 0.82087 0.13747 0.80622 0.0
C1078 C 0.82184 0.11722 0.785 0.0
C1079 C 0.83352 0.13233 0.83741 0.0
C1080 C 0.84528 0.10536 0.848 0.0
C1081 C 0.8349 0.09093 0.7956 0.0
C1082 C 0.84618 0.08446 0.82732 0.0
C1083 C 0.72853 0.19765 0.69722 0.0
H1084 H 0.75635 0.37108 0.73338 0.0
H1085 H 0.69622 0.32789 0.64651 0.0
H1086 H 0.74487 0.42667 0.71938 0.0
H1087 H 0.71108 0.43515 0.66817 0.0
H1088 H 0.8116 0.12051 0.76079 0.0
H1089 H 0.83233 0.14767 0.85385 0.0
H1090 H 0.83526 0.07481 0.77949 0.0
H1091 H 0.8551 0.063 0.83564 0.0
Gd1092 Gd 0.84186 0.78773 0.80962 0.0
Gd1093 Gd 0.79888 0.70734 0.76581 0.0
C1094 C 0.72599 0.70726 0.67273 0.0
C1095 C 0.66676 0.64166 0.68243 0.0
C1096 C 0.71885 0.66426 0.72388 0.0
C1097 C 0.74127 0.69993 0.70362 0.0
C1098 C 0.68142 0.63466 0.71323 0.0
C1099 C 0.68895 0.67787 0.66227 0.0
C1100 C 0.74795 0.74435 0.65328 0.0
C1101 C 0.78399 0.77345 0.66468 0.0
N1102 N 0.77706 0.72826 0.71438 0.0
C1103 C 0.79813 0.76498 0.69512 0.0
H1104 H 0.82545 0.78938 0.70282 0.0
C1105 C 0.71289 0.62146 0.77316 0.0
N1106 N 0.73355 0.65803 0.7537 0.0
C1107 C 0.67573 0.59165 0.76368 0.0
C1108 C 0.65984 0.59836 0.73365 0.0
H1109 H 0.72537 0.61514 0.79612 0.0
H1110 H 0.67705 0.68303 0.63864 0.0
H1111 H 0.82286 0.70953 0.87052 0.0
H1112 H 0.73706 0.75115 0.62965 0.0
H1113 H 0.80095 0.80275 0.65008 0.0
H1114 H 0.63821 0.61921 0.67394 0.0
H1115 H 0.90462 0.88422 0.77972 0.0
H1116 H 0.90831 0.75633 0.94551 0.0
H1117 H 0.84664 0.70029 0.92539 0.0
H1118 H 0.9999 0.89236 0.89893 0.0
H1119 H 0.6596 0.56319 0.77938 0.0
H1120 H 0.63115 0.57498 0.72624 0.0
H1121 H 0.96563 0.827 0.93501 0.0
H1122 H 0.96758 0.94271 0.7947 0.0
N1123 N 0.86825 0.77172 0.85954 0.0
C1124 C 0.89741 0.7609 0.92139 0.0
C1125 C 0.86254 0.72935 0.9102 0.0
C1126 C 0.9181 0.79776 0.90114 0.0
C1127 C 0.9025 0.80235 0.87003 0.0
C1128 C 0.8487 0.73508 0.87898 0.0
N1129 N 0.90438 0.8427 0.82081 0.0
C1130 C 0.92148 0.83882 0.84983 0.0
C1131 C 0.95533 0.91345 0.81024 0.0
C1132 C 0.97411 0.90926 0.83948 0.0
C1133 C 0.91994 0.88002 0.80159 0.0
C1134 C 0.95682 0.87192 0.86 0.0
H1135 H 1.00112 0.93545 0.84646 0.0
O1136 O 0.83598 0.8387 0.79878 0.0
O1137 O 0.79211 0.75623 0.77359 0.0
O1138 O 0.85149 0.76172 0.743 0.0
O1139 O 0.88506 0.81159 0.77492 0.0
O1140 O 0.82854 0.81775 0.76194 0.0
O1141 O 0.81721 0.79912 0.84341 0.0
O1142 O 0.78867 0.64781 0.76871 0.0
O1143 O 0.84232 0.73015 0.80866 0.0
O1144 O 0.79003 0.73419 0.83306 0.0
O1145 O 0.75494 0.68935 0.79719 0.0
O1146 O 0.82291 0.67404 0.80184 0.0
O1147 O 0.82247 0.69907 0.73179 0.0
C1148 C 0.79558 0.78751 0.75367 0.0
C1149 C 0.9729 0.86726 0.8907 0.0
C1150 C 0.95344 0.83025 0.91125 0.0
C1151 C 0.8196 0.83052 0.82344 0.0
C1152 C 0.81703 0.86361 0.82962 0.0
C1153 C 0.84071 0.90411 0.81429 0.0
C1154 C 0.78892 0.8552 0.84762 0.0
C1155 C 0.78523 0.8872 0.85023 0.0
C1156 C 0.83791 0.93577 0.81808 0.0
C1157 C 0.81028 0.9274 0.83593 0.0
C1158 C 0.88034 0.79806 0.74899 0.0
C1159 C 0.84894 0.70011 0.81915 0.0
C1160 C 0.80756 0.66026 0.74423 0.0
C1161 C 0.79415 0.63156 0.72342 0.0
C1162 C 0.7556 0.60272 0.71581 0.0
C1163 C 0.82262 0.632 0.71281 0.0
C1164 C 0.81363 0.60437 0.69409 0.0
C1165 C 0.74624 0.57437 0.69708 0.0
C1166 C 0.77529 0.57505 0.68619 0.0
C1167 C 0.75925 0.7013 0.82362 0.0
H1168 H 0.86207 0.91161 0.79966 0.0
H1169 H 0.76937 0.82408 0.85853 0.0
H1170 H 0.85683 0.96679 0.80673 0.0
H1171 H 0.8079 0.95224 0.83814 0.0
H1172 H 0.7331 0.60168 0.72449 0.0
H1173 H 0.85237 0.65412 0.71934 0.0
H1174 H 0.71662 0.552 0.69101 0.0
H1175 H 0.76797 0.55356 0.67125 0.0
Gd1176 Gd 0.54141 0.53684 0.52731 0.0
Gd1177 Gd 0.49649 0.46326 0.47201 0.0
C1178 C 0.42272 0.46905 0.38174 0.0
C1179 C 0.36272 0.40376 0.39089 0.0
C1180 C 0.41607 0.42299 0.43102 0.0
C1181 C 0.43792 0.45997 0.41202 0.0
C1182 C 0.37857 0.39399 0.42032 0.0
C1183 C 0.38473 0.44128 0.37165 0.0
C1184 C 0.44667 0.50475 0.36186 0.0
C1185 C 0.48507 0.52949 0.37182 0.0
N1186 N 0.47491 0.48553 0.42207 0.0
C1187 C 0.49886 0.51921 0.40198 0.0
H1188 H 0.52867 0.53892 0.40889 0.0
C1189 C 0.41406 0.37561 0.47634 0.0
N1190 N 0.43247 0.41403 0.45895 0.0
C1191 C 0.37679 0.34593 0.46684 0.0
C1192 C 0.35875 0.35534 0.4389 0.0
H1193 H 0.42812 0.36814 0.49784 0.0
H1194 H 0.37255 0.44787 0.34857 0.0
H1195 H 0.51415 0.45667 0.58791 0.0
H1196 H 0.43613 0.51273 0.33843 0.0
H1197 H 0.50413 0.55662 0.35631 0.0
H1198 H 0.33391 0.382 0.38235 0.0
H1199 H 0.6093 0.63179 0.49996 0.0
H1200 H 0.60046 0.49407 0.66377 0.0
H1201 H 0.53763 0.44191 0.64176 0.0
H1202 H 0.6973 0.63025 0.62215 0.0
H1203 H 0.3621 0.31579 0.481 0.0
H1204 H 0.33 0.33217 0.43142 0.0
H1205 H 0.65983 0.5643 0.65629 0.0
H1206 H 0.67335 0.68704 0.51719 0.0
N1207 N 0.56262 0.51761 0.57863 0.0
C1208 C 0.59012 0.50106 0.63996 0.0
C1209 C 0.55463 0.47159 0.62764 0.0
C1210 C 0.61208 0.53899 0.62127 0.0
C1211 C 0.59749 0.54638 0.59026 0.0
C1212 C 0.54117 0.48042 0.59692 0.0
N1213 N 0.60436 0.58865 0.54107 0.0
C1214 C 0.61909 0.58291 0.57082 0.0
C1215 C 0.65883 0.65761 0.53229 0.0
C1216 C 0.67515 0.65147 0.56235 0.0
C1217 C 0.623 0.62594 0.5222 0.0
C1218 C 0.65513 0.61393 0.58216 0.0
H1219 H 0.70269 0.67619 0.5703 0.0
O1220 O 0.53256 0.58614 0.52097 0.0
O1221 O 0.50146 0.51464 0.48599 0.0
O1222 O 0.55329 0.52028 0.45787 0.0
O1223 O 0.5893 0.5534 0.50111 0.0
O1224 O 0.53821 0.57655 0.48187 0.0
O1225 O 0.51221 0.53789 0.56173 0.0
O1226 O 0.49573 0.40907 0.47317 0.0
O1227 O 0.53815 0.48579 0.51284 0.0
O1228 O 0.48629 0.47761 0.5421 0.0
O1229 O 0.44919 0.44905 0.49786 0.0
O1230 O 0.50132 0.42402 0.517 0.0
O1231 O 0.52745 0.46325 0.43855 0.0
C1232 C 0.50888 0.54763 0.46832 0.0
C1233 C 0.66964 0.60688 0.61305 0.0
C1234 C 0.64823 0.5694 0.63253 0.0
C1235 C 0.51724 0.5731 0.54739 0.0
C1236 C 0.53098 0.60434 0.56646 0.0
C1237 C 0.56875 0.63818 0.56667 0.0
C1238 C 0.50424 0.60292 0.5811 0.0
C1239 C 0.514 0.63661 0.59377 0.0
C1240 C 0.57916 0.67128 0.5801 0.0
C1241 C 0.55181 0.67107 0.59291 0.0
C1242 C 0.58553 0.54722 0.47218 0.0
C1243 C 0.53228 0.45264 0.52947 0.0
C1244 C 0.5162 0.42501 0.44932 0.0
C1245 C 0.50453 0.39841 0.42672 0.0
C1246 C 0.46642 0.3666 0.42156 0.0
C1247 C 0.53332 0.40198 0.41324 0.0
C1248 C 0.52482 0.37267 0.39596 0.0
C1249 C 0.45754 0.33771 0.40377 0.0
C1250 C 0.48659 0.34026 0.39141 0.0
C1251 C 0.45314 0.45242 0.52759 0.0
H1252 H 0.58981 0.63997 0.55545 0.0
H1253 H 0.47545 0.57603 0.58139 0.0
H1254 H 0.6081 0.69779 0.57948 0.0
H1255 H 0.56022 0.6984 0.60127 0.0
H1256 H 0.44379 0.36332 0.43198 0.0
H1257 H 0.56259 0.42692 0.41727 0.0
H1258 H 0.42829 0.31262 0.40034 0.0
H1259 H 0.47917 0.31625 0.37907 0.0
Gd1260 Gd 0.05115 0.51256 0.9753 0.0
Gd1261 Gd 0.98317 0.48074 0.02708 0.0
C1262 C 0.98727 0.38832 0.10914 0.0
C1263 C 0.92555 0.32626 0.10175 0.0
C1264 C 0.94453 0.38836 0.06299 0.0
C1265 C 0.97956 0.40873 0.08034 0.0
C1266 C 0.91717 0.34687 0.0738 0.0
C1267 C 0.96025 0.3471 0.11957 0.0
C1268 C 0.02092 0.41054 0.12769 0.0
C1269 C 0.04553 0.45236 0.11791 0.0
N1270 N 1.00463 0.44928 0.0707 0.0
C1271 C 0.03681 0.47131 0.0893 0.0
H1272 H 0.05642 0.50327 0.08172 0.0
C1273 C 0.89899 0.3925 0.02366 0.0
N1274 N 0.93562 0.41005 0.03765 0.0
C1275 C 0.87181 0.35105 0.0325 0.0
C1276 C 0.88106 0.32798 0.05747 0.0
H1277 H 0.89032 0.41063 0.0059 0.0
H1278 H 0.96543 0.33161 0.14208 0.0
H1279 H 0.98296 0.49157 0.91701 0.0
H1280 H 0.0277 0.39591 0.14996 0.0
H1281 H 0.07142 0.46999 0.13225 0.0
H1282 H 0.90454 0.29471 0.11057 0.0
H1283 H 0.14528 0.57674 0.99538 0.0
H1284 H 1.01275 0.60155 0.85167 0.0
H1285 H 0.96785 0.52722 0.86789 0.0
H1286 H 0.13759 0.69823 0.89202 0.0
H1287 H 0.84332 0.33729 0.02075 0.0
H1288 H 0.85947 0.29616 0.065 0.0
H1289 H 0.0756 0.66504 0.86142 0.0
H1290 H 0.19596 0.64916 0.97997 0.0
N1291 N 0.03256 0.54532 0.93076 0.0
C1292 C 0.01869 0.58607 0.87385 0.0
C1293 C 0.99319 0.54422 0.88297 0.0
C1294 C 0.05247 0.60705 0.89276 0.0
C1295 C 0.05893 0.58559 0.9215 0.0
C1296 C 1.00121 0.52412 0.91124 0.0
N1297 N 0.10187 0.58139 0.964 0.0
C1298 C 0.09415 0.60441 0.93899 0.0
C1299 C 0.16742 0.6371 0.96847 0.0
C1300 C 0.1594 0.66191 0.94421 0.0
C1301 C 0.13856 0.59632 0.97736 0.0
C1302 C 0.12296 0.64523 0.92831 0.0
H1303 H 0.18207 0.69326 0.93683 0.0
O1304 O 0.0916 0.53019 0.94244 0.0
O1305 O 0.0333 0.47293 0.02362 0.0
O1306 O 0.03287 0.54106 0.03638 0.0
O1307 O 0.08251 0.55136 0.01363 0.0
O1308 O 0.08181 0.48416 0.00942 0.0
O1309 O 0.04715 0.46708 0.95264 0.0
O1310 O 0.93904 0.46002 0.05716 0.0
O1311 O 1.00161 0.52172 0.9785 0.0
O1312 O 0.99835 0.45253 0.96624 0.0
O1313 O 0.95086 0.45054 0.98529 0.0
O1314 O 0.95395 0.51072 0.99387 0.0
O1315 O 0.98666 0.52229 0.05383 0.0
C1316 C 0.05851 0.46155 0.03111 0.0
C1317 C 0.11552 0.66722 0.9008 0.0
C1318 C 0.08042 0.64818 0.88313 0.0
C1319 C 0.07815 0.49332 0.93839 0.0
C1320 C 0.10707 0.48264 0.94094 0.0
C1321 C 0.1382 0.49755 0.96367 0.0
C1322 C 0.1061 0.46118 0.91922 0.0
C1323 C 0.13659 0.45578 0.92015 0.0
C1324 C 0.16767 0.49152 0.96497 0.0
C1325 C 0.16701 0.47105 0.94342 0.0
C1326 C 0.06888 0.56143 0.03145 0.0
C1327 C 0.97646 0.53337 0.97158 0.0
C1328 C 0.95336 0.49563 0.06454 0.0
C1329 C 0.92618 0.50878 0.0614 0.0
C1330 C 0.89539 0.49562 0.0382 0.0
C1331 C 0.92878 0.53168 0.0827 0.0
C1332 C 0.90043 0.54058 0.08066 0.0
C1333 C 0.86776 0.50466 0.03614 0.0
C1334 C 0.87016 0.52683 0.05719 0.0
C1335 C 0.96235 0.43677 0.96912 0.0
H1336 H 0.14038 0.51493 0.98004 0.0
H1337 H 0.08279 0.45037 0.90106 0.0
H1338 H 0.19156 0.50345 0.98249 0.0
H1339 H 0.19064 0.46733 0.94481 0.0
H1340 H 0.89213 0.4775 0.02192 0.0
H1341 H 0.95203 0.54165 0.10098 0.0
H1342 H 0.84408 0.49403 0.0183 0.0
H1343 H 0.84805 0.53309 0.05529 0.0
C1344 C 0.18991 0.11387 0.80386 0.0
C1345 C 0.2253 0.15131 0.80151 0.0
C1346 C 0.16975 0.09741 0.83093 0.0
C1347 C 0.18346 0.12035 0.85565 0.0
C1348 C 0.21893 0.15866 0.85326 0.0
C1349 C 0.23985 0.17302 0.82677 0.0
C1350 C 0.13275 0.05608 0.83238 0.0
C1351 C 0.23382 0.18557 0.87783 0.0
C1352 C 0.10565 0.09323 0.90566 0.0
C1353 C 0.10944 0.06712 0.93202 0.0
C1354 C 0.13019 0.1118 0.8812 0.0
C1355 C 0.15979 0.10463 0.88317 0.0
C1356 C 0.16475 0.07984 0.91059 0.0
C1357 C 0.13937 0.06111 0.93445 0.0
C1358 C 0.12367 0.13816 0.8528 0.0
C1359 C 0.19593 0.07157 0.91417 0.0
H1360 H 0.17714 0.09802 0.78387 0.0
H1361 H 0.26614 0.20297 0.82466 0.0
H1362 H 0.13211 0.03651 0.85538 0.0
H1363 H 0.10845 0.05994 0.8301 0.0
H1364 H 0.12849 0.03986 0.81342 0.0
H1365 H 0.26027 0.21575 0.87151 0.0
H1366 H 0.21186 0.19088 0.88106 0.0
H1367 H 0.23989 0.17005 0.90072 0.0
H1368 H 0.08271 0.09823 0.90373 0.0
H1369 H 0.14249 0.04109 0.95481 0.0
H1370 H 0.1141 0.12305 0.83192 0.0
H1371 H 0.1507 0.16814 0.84775 0.0
H1372 H 0.10176 0.14365 0.85593 0.0
H1373 H 0.18932 0.05193 0.89705 0.0
H1374 H 0.19903 0.05593 0.93819 0.0
H1375 H 0.22367 0.10056 0.90894 0.0
C1376 C 0.11925 0.99284 0.05497 0.0
C1377 C 0.08005 0.97299 0.04822 0.0
C1378 C 0.13448 0.97161 0.07517 0.0
C1379 C 0.1096 0.92921 0.0862 0.0
C1380 C 0.06973 0.91004 0.08082 0.0
C1381 C 0.05537 0.93336 0.06342 0.0
C1382 C 0.17725 0.99357 0.08207 0.0
C1383 C 0.04258 0.8645 0.09051 0.0
C1384 C 0.17247 0.89036 0.0966 0.0
C1385 C 0.18362 0.89171 0.1285 0.0
C1386 C 0.14262 0.8958 0.08291 0.0
C1387 C 0.12608 0.90512 0.10157 0.0
C1388 C 0.13407 0.9014 0.13438 0.0
C1389 C 0.16261 0.89401 0.1476 0.0
C1390 C 0.13228 0.89684 0.04796 0.0
C1391 C 0.11783 0.91223 0.15493 0.0
H1392 H 0.13783 0.02375 0.04306 0.0
H1393 H 0.0248 0.91918 0.05879 0.0
H1394 H 0.18492 0.98455 0.10701 0.0
H1395 H 0.18904 0.98524 0.0672 0.0
H1396 H 0.19107 0.02737 0.07697 0.0
H1397 H 1.01262 0.85411 0.08122 0.0
H1398 H 0.05118 0.84731 0.08177 0.0
H1399 H 0.04354 0.85627 0.11643 0.0
H1400 H 0.1884 0.88756 0.08223 0.0
H1401 H 0.17134 0.89465 0.17246 0.0
H1402 H 0.14937 0.92882 0.0356 0.0
H1403 H 0.10162 0.88589 0.04197 0.0
H1404 H 0.13856 0.87779 0.03903 0.0
H1405 H 0.13657 0.9456 0.15555 0.0
H1406 H 0.11689 0.89571 0.17939 0.0
H1407 H 0.08879 0.90537 0.14602 0.0
C1408 C 0.40796 0.93339 0.4312 0.0
C1409 C 0.41716 0.91585 0.46065 0.0
C1410 C 0.38876 0.91076 0.40694 0.0
C1411 C 0.37601 0.8689 0.41306 0.0
C1412 C 0.38041 0.84964 0.44375 0.0
C1413 C 0.40132 0.87362 0.46731 0.0
C1414 C 0.38485 0.93247 0.37431 0.0
C1415 C 0.3655 0.80449 0.45108 0.0
C1416 C 0.30385 0.80982 0.35164 0.0
C1417 C 0.3272 0.81226 0.33195 0.0
C1418 C 0.31927 0.8272 0.37875 0.0
C1419 C 0.35879 0.84581 0.38696 0.0
C1420 C 0.3823 0.84576 0.36848 0.0
C1421 C 0.36609 0.82903 0.34079 0.0
C1422 C 0.29361 0.82781 0.39741 0.0
C1423 C 0.42476 0.86546 0.37686 0.0
H1424 H 0.4188 0.96578 0.42596 0.0
H1425 H 0.4067 0.85967 0.49033 0.0
H1426 H 0.401 0.93124 0.35833 0.0
H1427 H 0.35451 0.91694 0.36482 0.0
H1428 H 0.39583 0.96516 0.37386 0.0
H1429 H 0.36796 0.79358 0.4767 0.0
H1430 H 0.33514 0.7864 0.44197 0.0
H1431 H 0.3819 0.7984 0.43919 0.0
H1432 H 0.27339 0.79494 0.34553 0.0
H1433 H 0.38394 0.8304 0.32561 0.0
H1434 H 0.3 0.85944 0.39376 0.0
H1435 H 0.29885 0.81867 0.42289 0.0
H1436 H 0.26289 0.80723 0.3902 0.0
H1437 H 0.43922 0.89926 0.3706 0.0
H1438 H 0.43719 0.85549 0.36408 0.0
H1439 H 0.43109 0.85812 0.40246 0.0
C1440 C 0.44562 0.12893 0.64995 0.0
C1441 C 0.40705 0.11811 0.64721 0.0
C1442 C 0.46036 0.11649 0.63115 0.0
C1443 C 0.43703 0.0916 0.6074 0.0
C1444 C 0.39801 0.08094 0.60393 0.0
C1445 C 0.38383 0.09344 0.62353 0.0
C1446 C 0.50138 0.12871 0.63808 0.0
C1447 C 0.37014 0.05461 0.58001 0.0
C1448 C 0.49111 0.08998 0.54374 0.0
C1449 C 0.48665 0.05049 0.54984 0.0
C1450 C 0.47429 0.1024 0.56038 0.0
C1451 C 0.45346 0.07698 0.58714 0.0
C1452 C 0.44972 0.03787 0.5945 0.0
C1453 C 0.46348 0.02426 0.57524 0.0
C1454 C 0.47789 0.14303 0.54822 0.0
C1455 C 0.43157 0.01031 0.62375 0.0
H1456 H 0.46463 0.14632 0.66831 0.0
H1457 H 0.35371 0.08227 0.62094 0.0
H1458 H 0.50286 0.10096 0.64376 0.0
H1459 H 0.5173 0.14797 0.61707 0.0
H1460 H 0.51589 0.14603 0.65797 0.0
H1461 H 0.34518 0.05786 0.57359 0.0
H1462 H 0.38396 0.06239 0.5584 0.0
H1463 H 0.35951 0.02203 0.59004 0.0
H1464 H 0.50728 0.11211 0.52431 0.0
H1465 H 0.45522 0.99269 0.58009 0.0
H1466 H 0.49459 0.16363 0.56589 0.0
H1467 H 0.44911 0.13841 0.54422 0.0
H1468 H 0.49193 0.15849 0.52591 0.0
H1469 H 0.43801 0.98624 0.63015 0.0
H1470 H 0.40034 0.99682 0.62 0.0
H1471 H 0.44254 0.02757 0.64355 0.0
C1472 C 0.16192 0.90592 0.63681 0.0
C1473 C 0.13094 0.87364 0.62252 0.0
C1474 C 0.18116 0.89758 0.66436 0.0
C1475 C 0.16876 0.85635 0.6768 0.0
C1476 C 0.13309 0.82415 0.66564 0.0
C1477 C 0.11483 0.83332 0.63794 0.0
C1478 C 0.218 0.93259 0.67664 0.0
C1479 C 0.11793 0.77956 0.67912 0.0
C1480 C 0.22249 0.80951 0.6803 0.0
C1481 C 0.22016 0.79105 0.71157 0.0
C1482 C 0.21322 0.83891 0.66976 0.0
C1483 C 0.19732 0.84617 0.69067 0.0
C1484 C 0.19919 0.83137 0.72306 0.0
C1485 C 0.21216 0.80492 0.73331 0.0
C1486 C 0.21473 0.85688 0.6352 0.0
C1487 C 0.18329 0.83922 0.74608 0.0
H1488 H 0.17318 0.93729 0.62499 0.0
H1489 H 0.08981 0.80883 0.627 0.0
H1490 H 0.22649 0.92375 0.70132 0.0
H1491 H 0.24109 0.94272 0.662 0.0
H1492 H 0.21539 0.95909 0.675 0.0
H1493 H 0.08695 0.75971 0.67232 0.0
H1494 H 0.13312 0.76941 0.66998 0.0
H1495 H 0.12262 0.77488 0.70509 0.0
H1496 H 0.22879 0.79945 0.66349 0.0
H1497 H 0.21294 0.79246 0.75797 0.0
H1498 H 0.22446 0.88963 0.63161 0.0
H1499 H 0.18585 0.84012 0.62293 0.0
H1500 H 0.23437 0.85444 0.62409 0.0
H1501 H 0.19494 0.87241 0.74323 0.0
H1502 H 0.18989 0.82815 0.7708 0.0
H1503 H 0.15182 0.82335 0.74142 0.0
C1504 C 0.36358 0.84533 0.80673 0.0
C1505 C 0.32886 0.84275 0.79749 0.0
C1506 C 0.39084 0.87157 0.82712 0.0
C1507 C 0.38221 0.89448 0.83943 0.0
C1508 C 0.34812 0.89394 0.82874 0.0
C1509 C 0.32145 0.86764 0.80776 0.0
C1510 C 0.42701 0.87151 0.83765 0.0
C1511 C 0.33865 0.91869 0.84132 0.0
C1512 C 0.41708 0.90309 0.92432 0.0
C1513 C 0.4471 0.94404 0.92187 0.0
C1514 C 0.39544 0.88677 0.8974 0.0
C1515 C 0.40482 0.9121 0.86763 0.0
C1516 C 0.43588 0.95326 0.86506 0.0
C1517 C 0.45642 0.96897 0.89244 0.0
C1518 C 0.36256 0.84246 0.90082 0.0
C1519 C 0.44802 0.98025 0.83359 0.0
H1520 H 0.36879 0.82516 0.79955 0.0
H1521 H 0.29445 0.86541 0.80035 0.0
H1522 H 0.45171 0.90228 0.84166 0.0
H1523 H 0.42317 0.84999 0.86012 0.0
H1524 H 0.43386 0.86131 0.82016 0.0
H1525 H 0.31359 0.91891 0.82781 0.0
H1526 H 0.33225 0.90548 0.86621 0.0
H1527 H 0.36342 0.95075 0.84071 0.0
H1528 H 0.41003 0.88416 0.94725 0.0
H1529 H 0.48022 0.00057 0.89084 0.0
H1530 H 0.36782 0.82495 0.8889 0.0
H1531 H 0.33578 0.84031 0.88938 0.0
H1532 H 0.35827 0.82757 0.92578 0.0
H1533 H 0.45865 0.96821 0.82101 0.0
H1534 H 0.47102 0.01245 0.83592 0.0
H1535 H 0.42336 0.97994 0.81881 0.0
C1536 C 0.40233 0.10043 0.07838 0.0
C1537 C 0.39548 0.10501 0.04562 0.0
C1538 C 0.38666 0.11139 0.09612 0.0
C1539 C 0.36339 0.12664 0.08056 0.0
C1540 C 0.36043 0.13582 0.04739 0.0
C1541 C 0.37668 0.125 0.03029 0.0
C1542 C 0.39169 0.10252 0.13146 0.0
C1543 C 0.33658 0.15289 0.02995 0.0
C1544 C 0.27202 0.08357 0.11638 0.0
C1545 C 0.27995 0.11585 0.13014 0.0
C1546 C 0.29943 0.08656 0.10126 0.0
C1547 C 0.33538 0.12378 0.09796 0.0
C1548 C 0.34315 0.15755 0.11 0.0
C1549 C 0.31553 0.15299 0.12643 0.0
C1550 C 0.29001 0.04933 0.08941 0.0
C1551 C 0.38098 0.19796 0.10684 0.0
H1552 H 0.41714 0.0852 0.09028 0.0
H1553 H 0.3722 0.12932 0.00488 0.0
H1554 H 0.39248 0.12526 0.14219 0.0
H1555 H 0.36725 0.07171 0.14005 0.0
H1556 H 0.41831 0.10264 0.13954 0.0
H1557 H 0.33951 0.16114 0.00428 0.0
H1558 H 0.30605 0.1298 0.03385 0.0
H1559 H 0.34496 0.18048 0.03906 0.0
H1560 H 0.24435 0.05523 0.11796 0.0
H1561 H 0.32235 0.17816 0.13705 0.0
H1562 H 0.30927 0.039 0.10224 0.0
H1563 H 0.29448 0.05698 0.0641 0.0
H1564 H 0.26013 0.02331 0.0927 0.0
H1565 H 0.40089 0.19745 0.12741 0.0
H1566 H 0.37777 0.22374 0.10647 0.0
H1567 H 0.39415 0.20393 0.08532 0.0
C1568 C 0.04103 0.05998 0.40582 0.0
C1569 C 0.06899 0.06382 0.43061 0.0
C1570 C 0.05102 0.08019 0.37495 0.0
C1571 C 0.08976 0.10287 0.36822 0.0
C1572 C 0.11779 0.10481 0.393 0.0
C1573 C 0.10724 0.0869 0.42401 0.0
C1574 C 0.02034 0.07899 0.34996 0.0
C1575 C 0.15922 0.12729 0.38695 0.0
C1576 C 0.11672 0.13249 0.28367 0.0
C1577 C 0.13144 0.17481 0.2772 0.0
C1578 C 0.10186 0.10839 0.31263 0.0
C1579 C 0.10153 0.12684 0.33596 0.0
C1580 C 0.11449 0.16905 0.32895 0.0
C1581 C 0.12886 0.19225 0.29973 0.0
C1582 C 0.08861 0.06366 0.31893 0.0
C1583 C 0.114 0.19014 0.3526 0.0
H1584 H 1.01146 0.04317 0.41095 0.0
H1585 H 0.12904 0.09174 0.44321 0.0
H1586 H 0.02802 0.11066 0.33936 0.0
H1587 H 1.01797 0.0641 0.33086 0.0
H1588 H 0.99199 0.06215 0.35938 0.0
H1589 H 0.17668 0.12204 0.40775 0.0
H1590 H 0.162 0.11741 0.36685 0.0
H1591 H 0.17108 0.16065 0.38066 0.0
H1592 H 0.11878 0.11844 0.26692 0.0
H1593 H 0.1399 0.22476 0.29513 0.0
H1594 H 0.05909 0.04437 0.32624 0.0
H1595 H 0.10709 0.05818 0.33858 0.0
H1596 H 0.08929 0.05345 0.29805 0.0
H1597 H 0.084 0.17769 0.35619 0.0
H1598 H 0.12868 0.22383 0.34489 0.0
H1599 H 0.12795 0.18417 0.37565 0.0
C1600 C 0.87877 0.17523 0.15519 0.0
C1601 C 0.90501 0.21727 0.15465 0.0
C1602 C 0.88196 0.1545 0.13582 0.0
C1603 C 0.9117 0.17683 0.11547 0.0
C1604 C 0.9356 0.22 0.1127 0.0
C1605 C 0.93253 0.23946 0.13295 0.0
C1606 C 0.85607 0.10849 0.13957 0.0
C1607 C 0.9672 0.24533 0.09077 0.0
C1608 C 0.97298 0.14471 0.09927 0.0
C1609 C 0.96324 0.14389 0.06716 0.0
C1610 C 0.9528 0.1504 0.11662 0.0
C1611 C 0.92278 0.15574 0.10108 0.0
C1612 C 0.91024 0.15004 0.06949 0.0
C1613 C 0.93076 0.14405 0.05281 0.0
C1614 C 0.96667 0.15587 0.15047 0.0
C1615 C 0.87814 0.15503 0.05234 0.0
H1616 H 0.85779 0.15814 0.17239 0.0
H1617 H 0.9535 0.2716 0.13332 0.0
H1618 H 0.85048 0.09732 0.1173 0.0
H1619 H 0.87005 0.09461 0.15727 0.0
H1620 H 0.82841 0.0976 0.14796 0.0
H1621 H 0.97904 0.27863 0.08806 0.0
H1622 H 0.99071 0.24016 0.10024 0.0
H1623 H 0.9568 0.23618 0.06721 0.0
H1624 H 0.9983 0.14459 0.1101 0.0
H1625 H 0.92349 0.14309 0.02787 0.0
H1626 H 0.94221 0.13982 0.16509 0.0
H1627 H 0.98296 0.18894 0.15207 0.0
H1628 H 0.98565 0.1442 0.16038 0.0
H1629 H 0.8525 0.13537 0.06577 0.0
H1630 H 0.87044 0.14709 0.0284 0.0
H1631 H 0.88668 0.18726 0.05023 0.0
C1632 C 0.10531 0.61524 0.43206 0.0
C1633 C 0.09642 0.57542 0.4442 0.0
C1634 C 0.12242 0.63654 0.4035 0.0
C1635 C 0.13464 0.61919 0.38799 0.0
C1636 C 0.12807 0.57984 0.4014 0.0
C1637 C 0.10789 0.55803 0.42846 0.0
C1638 C 0.12635 0.67713 0.39005 0.0
C1639 C 0.14492 0.56189 0.38884 0.0
C1640 C 0.15999 0.65166 0.30269 0.0
C1641 C 0.19802 0.68457 0.30486 0.0
C1642 C 0.13828 0.63213 0.32901 0.0
C1643 C 0.15615 0.64275 0.35904 0.0
C1644 C 0.19514 0.67518 0.36143 0.0
C1645 C 0.21507 0.69647 0.33423 0.0
C1646 C 0.09607 0.6007 0.32453 0.0
C1647 C 0.21618 0.68721 0.39276 0.0
H1648 H 0.10025 0.63045 0.4454 0.0
H1649 H 0.10249 0.52777 0.43807 0.0
H1650 H 0.1497 0.69739 0.37438 0.0
H1651 H 0.09933 0.67119 0.37605 0.0
H1652 H 0.13119 0.69369 0.40893 0.0
H1653 H 0.13421 0.52955 0.39997 0.0
H1654 H 0.13885 0.56327 0.3631 0.0
H1655 H 0.17644 0.58027 0.39364 0.0
H1656 H 0.14695 0.64173 0.28021 0.0
H1657 H 0.24475 0.72123 0.33622 0.0
H1658 H 0.07982 0.60819 0.33525 0.0
H1659 H 0.08954 0.56985 0.33648 0.0
H1660 H 0.08577 0.5993 0.29933 0.0
H1661 H 0.20694 0.70417 0.40093 0.0
H1662 H 0.24758 0.70729 0.39136 0.0
H1663 H 0.20972 0.6596 0.41071 0.0
C1664 C 0.62655 0.83843 0.67665 0.0
C1665 C 0.63128 0.85934 0.64517 0.0
C1666 C 0.65136 0.82564 0.69429 0.0
C1667 C 0.68312 0.83345 0.68096 0.0
C1668 C 0.68871 0.85537 0.64937 0.0
C1669 C 0.6632 0.86786 0.63215 0.0
C1670 C 0.64355 0.80419 0.72776 0.0
C1671 C 0.72107 0.86433 0.63308 0.0
C1672 C 0.77137 0.83622 0.73319 0.0
C1673 C 0.76413 0.79629 0.7366 0.0
C1674 C 0.7452 0.84773 0.71671 0.0
C1675 C 0.71083 0.82015 0.7003 0.0
C1676 C 0.70284 0.77958 0.70372 0.0
C1677 C 0.72822 0.76788 0.72277 0.0
C1678 C 0.75426 0.88977 0.71742 0.0
C1679 C 0.66743 0.7484 0.68677 0.0
H1680 H 0.60251 0.83133 0.68769 0.0
H1681 H 0.66751 0.88295 0.60794 0.0
H1682 H 0.64672 0.77762 0.7331 0.0
H1683 H 0.66461 0.82584 0.74386 0.0
H1684 H 0.61444 0.79331 0.73291 0.0
H1685 H 0.72381 0.88394 0.60971 0.0
H1686 H 0.74846 0.87979 0.64764 0.0
H1687 H 0.71618 0.83505 0.62998 0.0
H1688 H 0.79779 0.85902 0.74417 0.0
H1689 H 0.71981 0.7364 0.72644 0.0
H1690 H 0.72995 0.88706 0.72584 0.0
H1691 H 0.75837 0.90788 0.69339 0.0
H1692 H 0.78033 0.90683 0.73298 0.0
H1693 H 0.64157 0.74231 0.69516 0.0
H1694 H 0.66563 0.71896 0.6902 0.0
H1695 H 0.66713 0.76065 0.66125 0.0
C1696 C 0.42323 0.40929 0.91939 0.0
C1697 C 0.46325 0.43387 0.92373 0.0
C1698 C 0.40476 0.38049 0.89857 0.0
C1699 C 0.42674 0.37593 0.88161 0.0
C1700 C 0.46707 0.40162 0.88527 0.0
C1701 C 0.48463 0.43029 0.90587 0.0
C1702 C 0.3617 0.35458 0.89509 0.0
C1703 C 0.49185 0.3991 0.86713 0.0
C1704 C 0.38118 0.28122 0.84142 0.0
C1705 C 0.37365 0.29648 0.81035 0.0
C1706 C 0.39828 0.30644 0.86504 0.0
C1707 C 0.40803 0.3478 0.85749 0.0
C1708 C 0.40094 0.36319 0.82615 0.0
C1709 C 0.38412 0.33765 0.80338 0.0
C1710 C 0.40472 0.28851 0.8983 0.0
C1711 C 0.40945 0.40637 0.81669 0.0
H1712 H 0.4062 0.41169 0.93275 0.0
H1713 H 0.5155 0.44981 0.90828 0.0
H1714 H 0.35097 0.35595 0.86994 0.0
H1715 H 0.3518 0.32212 0.90486 0.0
H1716 H 0.34873 0.36438 0.90746 0.0
H1717 H 0.52275 0.41931 0.87398 0.0
H1718 H 0.48453 0.36709 0.87097 0.0
H1719 H 0.48647 0.4081 0.84162 0.0
H1720 H 0.37197 0.2492 0.8476 0.0
H1721 H 0.37763 0.34997 0.78012 0.0
H1722 H 0.38749 0.28893 0.91376 0.0
H1723 H 0.43514 0.30749 0.90698 0.0
H1724 H 0.3968 0.25649 0.90042 0.0
H1725 H 0.39052 0.40932 0.82824 0.0
H1726 H 0.405 0.41476 0.7909 0.0
H1727 H 0.43932 0.42882 0.82453 0.0
C1728 C 0.79692 0.84796 0.3437 0.0
C1729 C 0.79867 0.81687 0.33677 0.0
C1730 C 0.81371 0.86204 0.37203 0.0
C1731 C 0.83299 0.84488 0.39278 0.0
C1732 C 0.82897 0.809 0.38827 0.0
C1733 C 0.81153 0.79524 0.36001 0.0
C1734 C 0.81618 0.89942 0.37697 0.0
C1735 C 0.84911 0.78981 0.41031 0.0
C1736 C 0.93501 0.92022 0.41448 0.0
C1737 C 0.93367 0.91728 0.44618 0.0
C1738 C 0.90161 0.89759 0.39643 0.0
C1739 C 0.86693 0.87124 0.4112 0.0
C1740 C 0.86579 0.8678 0.44349 0.0
C1741 C 0.89973 0.89091 0.46088 0.0
C1742 C 0.9035 0.90251 0.3616 0.0
C1743 C 0.8289 0.84091 0.45925 0.0
H1744 H 0.78489 0.86324 0.32637 0.0
H1745 H 0.81059 0.76944 0.35545 0.0
H1746 H 0.82094 0.90182 0.40218 0.0
H1747 H 0.84037 0.92727 0.3647 0.0
H1748 H 0.78973 0.8989 0.36678 0.0
H1749 H 0.83703 0.75811 0.40671 0.0
H1750 H 0.87977 0.8084 0.40588 0.0
H1751 H 0.84736 0.78912 0.43516 0.0
H1752 H 0.96174 0.94163 0.40367 0.0
H1753 H 0.89969 0.88952 0.48573 0.0
H1754 H 0.88513 0.91362 0.34796 0.0
H1755 H 0.8929 0.87259 0.35517 0.0
H1756 H 0.93297 0.92462 0.3543 0.0
H1757 H 0.80921 0.85138 0.4485 0.0
H1758 H 0.83348 0.84146 0.48487 0.0
H1759 H 0.81443 0.80881 0.45563 0.0
C1760 C 0.49466 0.65977 0.62948 0.0
C1761 C 0.48437 0.63714 0.60575 0.0
C1762 C 0.46939 0.66745 0.637 0.0
C1763 C 0.43182 0.64919 0.62213 0.0
C1764 C 0.41961 0.6221 0.60107 0.0
C1765 C 0.44646 0.6175 0.5922 0.0
C1766 C 0.48397 0.69748 0.65919 0.0
C1767 C 0.37914 0.60006 0.58627 0.0
C1768 C 0.3843 0.67586 0.6639 0.0
C1769 C 0.39489 0.7146 0.64614 0.0
C1770 C 0.39047 0.64994 0.65361 0.0
C1771 C 0.40821 0.66386 0.62551 0.0
C1772 C 0.41342 0.69995 0.6054 0.0
C1773 C 0.40687 0.72515 0.61618 0.0
C1774 C 0.38283 0.61043 0.67468 0.0
C1775 C 0.43152 0.71526 0.57481 0.0
H1776 H 0.5232 0.6733 0.6412 0.0
H1777 H 0.43782 0.59997 0.57367 0.0
H1778 H 0.48044 0.7233 0.64749 0.0
H1779 H 0.46739 0.68214 0.68012 0.0
H1780 H 0.51464 0.71046 0.66726 0.0
H1781 H 0.3705 0.56961 0.58216 0.0
H1782 H 0.35854 0.59568 0.60104 0.0
H1783 H 0.37728 0.61804 0.56311 0.0
H1784 H 0.37454 0.66732 0.68705 0.0
H1785 H 0.41425 0.75466 0.60231 0.0
H1786 H 0.40938 0.61572 0.68928 0.0
H1787 H 0.37374 0.58656 0.66062 0.0
H1788 H 0.36056 0.59888 0.69071 0.0
H1789 H 0.46257 0.72779 0.5798 0.0
H1790 H 0.42779 0.73985 0.5599 0.0
H1791 H 0.4191 0.68999 0.56136 0.0
C1792 C 0.57105 0.07418 0.90535 0.0
C1793 C 0.58426 0.06306 0.93557 0.0
C1794 C 0.59572 0.09855 0.8811 0.0
C1795 C 0.63407 0.10894 0.88594 0.0
C1796 C 0.64756 0.09729 0.91644 0.0
C1797 C 0.62283 0.07551 0.94094 0.0
C1798 C 0.58037 0.11228 0.84994 0.0
C1799 C 0.6873 0.10522 0.9228 0.0
C1800 C 0.67505 0.12 0.81166 0.0
C1801 C 0.70184 0.1623 0.80486 0.0
C1802 C 0.65378 0.10243 0.83821 0.0
C1803 C 0.65824 0.1277 0.85836 0.0
C1804 C 0.68528 0.17047 0.85165 0.0
C1805 C 0.70725 0.18693 0.8256 0.0
C1806 C 0.62678 0.05651 0.84493 0.0
C1807 C 0.69061 0.19907 0.87164 0.0
H1808 H 0.54095 0.06272 0.90031 0.0
H1809 H 0.63286 0.06524 0.96377 0.0
H1810 H 0.59808 0.14615 0.84431 0.0
H1811 H 0.5823 0.10003 0.831 0.0
H1812 H 0.55022 0.10251 0.85001 0.0
H1813 H 0.69149 0.089 0.94617 0.0
H1814 H 0.69325 0.09529 0.90455 0.0
H1815 H 0.70861 0.13848 0.92197 0.0
H1816 H 0.67104 0.10036 0.79635 0.0
H1817 H 0.72852 0.21929 0.82141 0.0
H1818 H 0.59694 0.04855 0.84263 0.0
H1819 H 0.63292 0.04443 0.86942 0.0
H1820 H 0.6289 0.0408 0.82873 0.0
H1821 H 0.66303 0.19599 0.87184 0.0
H1822 H 0.71221 0.23159 0.86305 0.0
H1823 H 0.69968 0.19081 0.89625 0.0
C1824 C 0.09614 0.44187 0.08209 0.0
C1825 C 0.06635 0.42945 0.05703 0.0
C1826 C 0.11115 0.41702 0.10088 0.0
C1827 C 0.09972 0.37779 0.09456 0.0
C1828 C 0.07064 0.36548 0.06861 0.0
C1829 C 0.05511 0.39038 0.05098 0.0
C1830 C 0.14068 0.43384 0.12769 0.0
C1831 C 0.057 0.32629 0.05783 0.0
C1832 C 0.17096 0.33532 0.12576 0.0
C1833 C 0.1559 0.30423 0.15283 0.0
C1834 C 0.15307 0.35725 0.10678 0.0
C1835 C 0.11838 0.35114 0.11406 0.0
C1836 C 0.10276 0.31958 0.14112 0.0
C1837 C 0.12128 0.29812 0.1596 0.0
C1838 C 0.17247 0.38847 0.07872 0.0
C1839 C 0.06661 0.30934 0.15203 0.0
H1840 H 0.10887 0.4724 0.08693 0.0
H1841 H 0.03485 0.3796 0.03086 0.0
H1842 H 0.13268 0.41022 0.14922 0.0
H1843 H 0.16859 0.44182 0.12201 0.0
H1844 H 0.1441 0.46158 0.13272 0.0
H1845 H 0.02992 0.31569 0.0425 0.0
H1846 H 0.07907 0.33149 0.04432 0.0
H1847 H 0.05283 0.30168 0.07814 0.0
H1848 H 0.19843 0.34418 0.11984 0.0
H1849 H 0.10897 0.27723 0.18088 0.0
H1850 H 0.18244 0.41942 0.08258 0.0
H1851 H 0.15183 0.38203 0.05759 0.0
H1852 H 0.1973 0.38875 0.07405 0.0
H1853 H 0.07359 0.33316 0.1653 0.0
H1854 H 0.05267 0.2791 0.16764 0.0
H1855 H 0.04601 0.30908 0.13183 0.0
C1856 C 0.61564 0.62116 0.94931 0.0
C1857 C 0.59142 0.57844 0.95462 0.0
C1858 C 0.63962 0.64116 0.92479 0.0
C1859 C 0.64003 0.61762 0.90594 0.0
C1860 C 0.61531 0.57458 0.91093 0.0
C1861 C 0.59074 0.5557 0.93479 0.0
C1862 C 0.66521 0.68732 0.91951 0.0
C1863 C 0.61569 0.54827 0.89195 0.0
C1864 C 0.69138 0.6696 0.83154 0.0
C1865 C 0.72774 0.6777 0.84349 0.0
C1866 C 0.6621 0.65006 0.85164 0.0
C1867 C 0.66965 0.63759 0.88382 0.0
C1868 C 0.70611 0.64462 0.89539 0.0
C1869 C 0.73483 0.66497 0.87509 0.0
C1870 C 0.62375 0.64403 0.83877 0.0
C1871 C 0.71462 0.62964 0.92902 0.0
H1872 H 0.61555 0.63896 0.96412 0.0
H1873 H 0.57128 0.52302 0.93789 0.0
H1874 H 0.69548 0.69664 0.92515 0.0
H1875 H 0.66201 0.69996 0.89445 0.0
H1876 H 0.65883 0.70126 0.93422 0.0
H1877 H 0.5925 0.51549 0.89728 0.0
H1878 H 0.61275 0.5592 0.86646 0.0
H1879 H 0.64345 0.55054 0.89709 0.0
H1880 H 0.68636 0.67987 0.80688 0.0
H1881 H 0.76278 0.67052 0.88397 0.0
H1882 H 0.61762 0.66072 0.85081 0.0
H1883 H 0.60081 0.61116 0.84349 0.0
H1884 H 0.62255 0.65514 0.81309 0.0
H1885 H 0.70636 0.6398 0.94541 0.0
H1886 H 0.74519 0.64005 0.93476 0.0
H1887 H 0.6974 0.59581 0.93282 0.0
C1888 C 0.73163 0.33233 0.23551 0.0
C1889 C 0.74121 0.3228 0.2118 0.0
C1890 C 0.71143 0.35167 0.22766 0.0
C1891 C 0.70579 0.36605 0.19574 0.0
C1892 C 0.72596 0.36736 0.17325 0.0
C1893 C 0.7418 0.34369 0.18138 0.0
C1894 C 0.69106 0.35002 0.25265 0.0
C1895 C 0.7241 0.38619 0.13917 0.0
C1896 C 0.6148 0.33225 0.14835 0.0
C1897 C 0.62171 0.37061 0.13359 0.0
C1898 C 0.63914 0.32911 0.17366 0.0
C1899 C 0.67077 0.36558 0.1839 0.0
C1900 C 0.67333 0.4032 0.17286 0.0
C1901 C 0.64872 0.40549 0.14719 0.0
C1902 C 0.6348 0.28792 0.18516 0.0
C1903 C 0.7055 0.44182 0.18485 0.0
H1904 H 0.73565 0.32051 0.25974 0.0
H1905 H 0.75091 0.33895 0.1631 0.0
H1906 H 0.68318 0.37317 0.246 0.0
H1907 H 0.6645 0.3192 0.25649 0.0
H1908 H 0.70912 0.35463 0.27523 0.0
H1909 H 0.74725 0.39165 0.12683 0.0
H1910 H 0.69635 0.3651 0.12712 0.0
H1911 H 0.72656 0.41574 0.13695 0.0
H1912 H 0.59272 0.30527 0.13817 0.0
H1913 H 0.65316 0.43508 0.13598 0.0
H1914 H 0.64195 0.28328 0.21085 0.0
H1915 H 0.65447 0.28633 0.17339 0.0
H1916 H 0.60529 0.26235 0.17961 0.0
H1917 H 0.70936 0.43602 0.21086 0.0
H1918 H 0.70029 0.46707 0.17722 0.0
H1919 H 0.7326 0.45197 0.17593 0.0
C1920 C 0.97189 0.46249 0.39731 0.0
C1921 C 0.95296 0.45471 0.42303 0.0
C1922 C 0.95148 0.44641 0.37011 0.0
C1923 C 0.91121 0.4225 0.36865 0.0
C1924 C 0.89184 0.41708 0.39367 0.0
C1925 C 0.9131 0.43297 0.42093 0.0
C1926 C 0.97307 0.45156 0.34438 0.0
C1927 C 0.84882 0.39196 0.39262 0.0
C1928 C 0.85634 0.38577 0.29241 0.0
C1929 C 0.84897 0.34609 0.29885 0.0
C1930 C 0.87684 0.41152 0.31502 0.0
C1931 C 0.89009 0.39681 0.3441 0.0
C1932 C 0.88394 0.35726 0.34991 0.0
C1933 C 0.86355 0.33248 0.32704 0.0
C1934 C 0.88315 0.45365 0.30837 0.0
C1935 C 0.89735 0.34015 0.38071 0.0
H1936 H 1.00284 0.47994 0.39887 0.0
H1937 H 0.89859 0.42697 0.44097 0.0
H1938 H 0.97026 0.42213 0.3449 0.0
H1939 H 0.96102 0.45952 0.32097 0.0
H1940 H 1.00394 0.47557 0.34719 0.0
H1941 H 0.83842 0.39764 0.41066 0.0
H1942 H 0.83612 0.39878 0.36913 0.0
H1943 H 0.83843 0.35892 0.39704 0.0
H1944 H 0.8447 0.39586 0.27044 0.0
H1945 H 0.85845 0.30202 0.33142 0.0
H1946 H 0.91406 0.47726 0.31122 0.0
H1947 H 0.86908 0.45595 0.32558 0.0
H1948 H 0.87171 0.46073 0.2843 0.0
H1949 H 0.8968 0.31263 0.37891 0.0
H1950 H 0.87822 0.33112 0.39887 0.0
H1951 H 0.92674 0.36327 0.38895 0.0
C1952 C 0.62202 0.61533 0.44129 0.0
C1953 C 0.61602 0.57641 0.45199 0.0
C1954 C 0.64101 0.63951 0.41439 0.0
C1955 C 0.6532 0.62353 0.3976 0.0
C1956 C 0.64979 0.58551 0.40981 0.0
C1957 C 0.6309 0.56212 0.43698 0.0
C1958 C 0.64503 0.68051 0.40256 0.0
C1959 C 0.66503 0.56908 0.39379 0.0
C1960 C 0.65007 0.66542 0.31119 0.0
C1961 C 0.68718 0.69993 0.30888 0.0
C1962 C 0.63922 0.63799 0.33963 0.0
C1963 C 0.66631 0.64541 0.36612 0.0
C1964 C 0.70424 0.67863 0.36338 0.0
C1965 C 0.71356 0.7062 0.33528 0.0
C1966 C 0.59816 0.60285 0.34203 0.0
C1967 C 0.73439 0.68766 0.39075 0.0
H1968 H 0.60862 0.62527 0.45194 0.0
H1969 H 0.62557 0.5316 0.44537 0.0
H1970 H 0.67509 0.70486 0.39808 0.0
H1971 H 0.62736 0.67941 0.37999 0.0
H1972 H 0.63601 0.6893 0.41948 0.0
H1973 H 0.65624 0.53702 0.40432 0.0
H1974 H 0.65529 0.57036 0.36847 0.0
H1975 H 0.6966 0.58862 0.3961 0.0
H1976 H 0.62921 0.6608 0.29114 0.0
H1977 H 0.74094 0.73361 0.3353 0.0
H1978 H 0.58437 0.60868 0.35705 0.0
H1979 H 0.59662 0.57393 0.3533 0.0
H1980 H 0.58169 0.5987 0.3187 0.0
H1981 H 0.73564 0.70943 0.40302 0.0
H1982 H 0.76298 0.70233 0.38248 0.0
H1983 H 0.72848 0.65964 0.40792 0.0
C1984 C 0.87437 0.31849 0.82681 0.0
C1985 C 0.83447 0.29433 0.82494 0.0
C1986 C 0.89489 0.34033 0.85168 0.0
C1987 C 0.87478 0.33584 0.87576 0.0
C1988 C 0.8346 0.30976 0.87465 0.0
C1989 C 0.81484 0.29006 0.84879 0.0
C1990 C 0.93777 0.36872 0.85164 0.0
C1991 C 0.81236 0.30335 0.90038 0.0
C1992 C 0.93301 0.37104 0.95127 0.0
C1993 C 0.93473 0.40748 0.94878 0.0
C1994 C 0.91224 0.34633 0.92813 0.0
C1995 C 0.89521 0.36016 0.90125 0.0
C1996 C 0.89704 0.39713 0.89879 0.0
C1997 C 0.91535 0.41943 0.92347 0.0
C1998 C 0.90957 0.30628 0.93201 0.0
C1999 C 0.88208 0.41455 0.86927 0.0
H2000 H 0.88946 0.32176 0.80826 0.0
H2001 H 0.78395 0.27117 0.84729 0.0
H2002 H 0.94797 0.39775 0.85947 0.0
H2003 H 0.95151 0.35371 0.86811 0.0
H2004 H 0.94751 0.37621 0.828 0.0
H2005 H 0.78206 0.27767 0.8981 0.0
H2006 H 0.82556 0.29695 0.92375 0.0
H2007 H 0.81293 0.3316 0.89954 0.0
H2008 H 0.94839 0.36231 0.97104 0.0
H2009 H 0.91715 0.44795 0.92179 0.0
H2010 H 0.92822 0.3094 0.91593 0.0
H2011 H 0.87992 0.28155 0.92586 0.0
H2012 H 0.91866 0.29692 0.95639 0.0
H2013 H 0.89693 0.41964 0.8491 0.0
H2014 H 0.88651 0.44412 0.87107 0.0
H2015 H 0.85119 0.39261 0.86397 0.0
C2016 C 0.8031 0.85241 0.16712 0.0
C2017 C 0.82309 0.85495 0.197 0.0
C2018 C 0.82253 0.86919 0.13928 0.0
C2019 C 0.86261 0.88644 0.14113 0.0
C2020 C 0.88257 0.88827 0.17126 0.0
C2021 C 0.86305 0.87417 0.19834 0.0
C2022 C 0.79995 0.86775 0.1079 0.0
C2023 C 0.92468 0.90414 0.17512 0.0
C2024 C 0.91451 0.89803 0.07336 0.0
C2025 C 0.93514 0.94065 0.06303 0.0
C2026 C 0.88948 0.87962 0.09763 0.0
C2027 C 0.88455 0.90419 0.11211 0.0
C2028 C 0.90438 0.947 0.10098 0.0
C2029 C 0.92923 0.9645 0.07694 0.0
C2030 C 0.86979 0.83402 0.10882 0.0
C2031 C 0.90014 0.97474 0.11513 0.0
H2032 H 0.77229 0.83678 0.16542 0.0
H2033 H 0.87915 0.87617 0.22109 0.0
H2034 H 0.81497 0.89773 0.09219 0.0
H2035 H 0.79709 0.84438 0.09648 0.0
H2036 H 0.77089 0.85986 0.11022 0.0
H2037 H 0.93508 0.899 0.20005 0.0
H2038 H 0.93063 0.88885 0.16139 0.0
H2039 H 0.94139 0.93746 0.16598 0.0
H2040 H 0.91903 0.87908 0.0635 0.0
H2041 H 0.94458 0.99739 0.0693 0.0
H2042 H 0.83873 0.81997 0.10919 0.0
H2043 H 0.88108 0.82807 0.13322 0.0
H2044 H 0.87402 0.81865 0.09377 0.0
H2045 H 0.86946 0.96291 0.11521 0.0
H2046 H 0.91474 0.00671 0.10223 0.0
H2047 H 0.91242 0.97519 0.13989 0.0
C2048 C 0.89171 0.12472 0.89342 0.0
C2049 C 0.85508 0.09783 0.88107 0.0
C2050 C 0.90686 0.11035 0.92057 0.0
C2051 C 0.88426 0.06848 0.93394 0.0
C2052 C 0.84462 0.04543 0.92599 0.0
C2053 C 0.83029 0.06041 0.89865 0.0
C2054 C 0.94916 0.13649 0.92962 0.0
C2055 C 0.81963 0.00155 0.94119 0.0
C2056 C 0.94151 0.02833 0.92535 0.0
C2057 C 0.95833 0.02718 0.95564 0.0
C2058 C 0.91313 0.03681 0.91862 0.0
C2059 C 0.90341 0.04631 0.94287 0.0
C2060 C 0.91794 0.04145 0.97408 0.0
C2061 C 0.94509 0.03128 0.98015 0.0
C2062 C 0.89685 0.03967 0.88494 0.0
C2063 C 0.90849 0.05146 0.00039 0.0
H2064 H 0.90996 0.15446 0.87975 0.0
H2065 H 0.80139 0.04087 0.88896 0.0
H2066 H 0.95607 0.12913 0.95505 0.0
H2067 H 0.96482 0.13074 0.9165 0.0
H2068 H 0.95966 0.16962 0.92351 0.0
H2069 H 0.7898 0.99319 0.94036 0.0
H2070 H 0.81956 0.98114 0.92814 0.0
H2071 H 0.83012 0.99601 0.96594 0.0
H2072 H 0.9519 0.02514 0.90663 0.0
H2073 H 0.95828 0.0303 0.00367 0.0
H2074 H 0.90854 0.07231 0.87443 0.0
H2075 H 0.86534 0.02313 0.8837 0.0
H2076 H 0.9042 0.02638 0.87041 0.0
H2077 H 0.92759 0.08478 0.0009 0.0
H2078 H 0.91294 0.03506 0.02357 0.0
H2079 H 0.8787 0.0438 0.99705 0.0
C2080 C 0.69022 0.13837 0.66966 0.0
C2081 C 0.70821 0.18033 0.66906 0.0
C2082 C 0.67391 0.12209 0.64186 0.0
C2083 C 0.67751 0.14909 0.6131 0.0
C2084 C 0.69655 0.19167 0.61258 0.0
C2085 C 0.71115 0.20676 0.64083 0.0
C2086 C 0.65283 0.07628 0.64339 0.0
C2087 C 0.70143 0.22119 0.58221 0.0
C2088 C 0.6547 0.10331 0.54049 0.0
C2089 C 0.61798 0.09542 0.53134 0.0
C2090 C 0.67584 0.12343 0.56617 0.0
C2091 C 0.65827 0.1327 0.58383 0.0
C2092 C 0.62147 0.12548 0.57399 0.0
C2093 C 0.60272 0.109 0.54674 0.0
C2094 C 0.71573 0.13232 0.57552 0.0
C2095 C 0.60028 0.13114 0.59381 0.0
H2096 H 0.68873 0.1184 0.69184 0.0
H2097 H 0.72607 0.2394 0.64081 0.0
H2098 H 0.62533 0.06474 0.62861 0.0
H2099 H 0.67029 0.06895 0.63428 0.0
H2100 H 0.64695 0.05946 0.6678 0.0
H2101 H 0.72124 0.25363 0.5856 0.0
H2102 H 0.71247 0.21529 0.56483 0.0
H2103 H 0.67336 0.21662 0.5721 0.0
H2104 H 0.66586 0.09171 0.52883 0.0
H2105 H 0.57395 0.10199 0.53977 0.0
H2106 H 0.71551 0.11025 0.59663 0.0
H2107 H 0.73517 0.16355 0.58158 0.0
H2108 H 0.72734 0.12974 0.55651 0.0
H2109 H 0.5973 0.1115 0.61719 0.0
H2110 H 0.57126 0.12289 0.58298 0.0
H2111 H 0.6165 0.16331 0.5977 0.0
C2112 C 0.54475 0.94453 0.41969 0.0
C2113 C 0.56534 0.96689 0.44511 0.0
C2114 C 0.5607 0.93284 0.40104 0.0
C2115 C 0.59761 0.93762 0.40921 0.0
C2116 C 0.61753 0.95751 0.43625 0.0
C2117 C 0.60212 0.9721 0.45254 0.0
C2118 C 0.53665 0.91454 0.37241 0.0
C2119 C 0.65521 0.96219 0.44956 0.0
C2120 C 0.61164 0.86466 0.37149 0.0
C2121 C 0.64268 0.89118 0.35216 0.0
C2122 C 0.59852 0.87868 0.39066 0.0
C2123 C 0.61446 0.92147 0.3905 0.0
C2124 C 0.64683 0.94809 0.37184 0.0
C2125 C 0.65963 0.93319 0.35338 0.0
C2126 C 0.56723 0.84658 0.41156 0.0
C2127 C 0.66888 0.99353 0.37015 0.0
H2128 H 0.51496 0.93447 0.41458 0.0
H2129 H 0.61859 0.98569 0.47321 0.0
H2130 H 0.55391 0.91733 0.35514 0.0
H2131 H 0.51494 0.88171 0.37966 0.0
H2132 H 0.52101 0.92971 0.36063 0.0
H2133 H 0.66014 0.96305 0.47514 0.0
H2134 H 0.65681 0.93683 0.44577 0.0
H2135 H 0.67867 0.99151 0.43793 0.0
H2136 H 0.59647 0.83212 0.37118 0.0
H2137 H 0.68271 0.95541 0.33856 0.0
H2138 H 0.53925 0.8393 0.39891 0.0
H2139 H 0.57039 0.85738 0.43347 0.0
H2140 H 0.56701 0.81778 0.41793 0.0
H2141 H 0.6714 0.0087 0.3452 0.0
H2142 H 0.69832 0.00426 0.38112 0.0
H2143 H 0.65552 0.00292 0.38219 0.0
C2144 C 0.83082 0.20881 0.30818 0.0
C2145 C 0.80336 0.19145 0.28392 0.0
C2146 C 0.8419 0.18542 0.33082 0.0
C2147 C 0.82586 0.1442 0.32804 0.0
C2148 C 0.79627 0.12583 0.30459 0.0
C2149 C 0.78538 0.15007 0.28239 0.0
C2150 C 0.87322 0.20609 0.35585 0.0
C2151 C 0.77852 0.08187 0.30145 0.0
C2152 C 0.90605 0.12971 0.35794 0.0
C2153 C 0.89878 0.11536 0.38949 0.0
C2154 C 0.87919 0.13387 0.33596 0.0
C2155 C 0.845 0.1236 0.34643 0.0
C2156 C 0.83569 0.10388 0.37753 0.0
C2157 C 0.86313 0.10017 0.39896 0.0
C2158 C 0.88992 0.15485 0.30279 0.0
C2159 C 0.79969 0.09255 0.38961 0.0
H2160 H 0.84498 0.24127 0.30854 0.0
H2161 H 0.76426 0.13733 0.26311 0.0
H2162 H 0.86654 0.18609 0.37912 0.0
H2163 H 0.90042 0.21235 0.35004 0.0
H2164 H 0.87767 0.23567 0.3577 0.0
H2165 H 0.75223 0.0707 0.2851 0.0
H2166 H 0.79931 0.07917 0.29237 0.0
H2167 H 0.77141 0.06173 0.32466 0.0
H2168 H 0.93387 0.14099 0.35102 0.0
H2169 H 0.85794 0.08862 0.42358 0.0
H2170 H 0.90054 0.18778 0.30038 0.0
H2171 H 0.86483 0.14136 0.28554 0.0
H2172 H 0.91282 0.15279 0.29681 0.0
H2173 H 0.80607 0.1181 0.40045 0.0
H2174 H 0.78971 0.06487 0.40809 0.0
H2175 H 0.77636 0.08694 0.3707 0.0
C2176 C 0.67577 0.12142 0.20729 0.0
C2177 C 0.7023 0.16105 0.19283 0.0
C2178 C 0.64555 0.09281 0.18939 0.0
C2179 C 0.64186 0.10477 0.15656 0.0
C2180 C 0.66837 0.1448 0.14207 0.0
C2181 C 0.69931 0.17146 0.1602 0.0
C2182 C 0.61846 0.04989 0.20537 0.0
C2183 C 0.66489 0.15941 0.10712 0.0
C2184 C 0.61316 0.04819 0.09172 0.0
C2185 C 0.58071 0.04874 0.07824 0.0
C2186 C 0.62987 0.05988 0.12095 0.0
C2187 C 0.61496 0.07488 0.13585 0.0
C2188 C 0.58039 0.07248 0.12353 0.0
C2189 C 0.5635 0.05922 0.09465 0.0
C2190 C 0.66639 0.06133 0.13375 0.0
C2191 C 0.56341 0.08763 0.13914 0.0
H2192 H 0.67887 0.11262 0.23249 0.0
H2193 H 0.72077 0.20077 0.14853 0.0
H2194 H 0.58843 0.04032 0.19759 0.0
H2195 H 0.62316 0.02819 0.19872 0.0
H2196 H 0.62248 0.0471 0.23136 0.0
H2197 H 0.68473 0.19303 0.10062 0.0
H2198 H 0.67142 0.14393 0.09413 0.0
H2199 H 0.6354 0.15183 0.09913 0.0
H2200 H 0.62682 0.04098 0.07869 0.0
H2201 H 0.53743 0.05807 0.08453 0.0
H2202 H 0.66754 0.05254 0.15967 0.0
H2203 H 0.69114 0.09306 0.12789 0.0
H2204 H 0.66944 0.04077 0.12352 0.0
H2205 H 0.56129 0.07426 0.16443 0.0
H2206 H 0.53457 0.07989 0.12815 0.0
H2207 H 0.58229 0.12142 0.13741 0.0
C2208 C 0.76064 0.88169 0.89847 0.0
C2209 C 0.75462 0.87998 0.86645 0.0
C2210 C 0.73647 0.88533 0.91278 0.0
C2211 C 0.70555 0.887 0.89451 0.0
C2212 C 0.69871 0.88394 0.86231 0.0
C2213 C 0.72351 0.88056 0.8486 0.0
C2214 C 0.74486 0.88898 0.94717 0.0
C2215 C 0.66653 0.88636 0.84206 0.0
C2216 C 0.63386 0.8631 0.94691 0.0
C2217 C 0.64592 0.90236 0.95067 0.0
C2218 C 0.65076 0.85766 0.92621 0.0
C2219 C 0.681 0.89242 0.90953 0.0
C2220 C 0.69096 0.93226 0.91117 0.0
C2221 C 0.67286 0.93673 0.93165 0.0
C2222 C 0.63791 0.81473 0.9238 0.0
C2223 C 0.72135 0.97026 0.89223 0.0
H2224 H 0.78539 0.88233 0.91189 0.0
H2225 H 0.71971 0.88031 0.82358 0.0
H2226 H 0.74676 0.91662 0.95052 0.0
H2227 H 0.72117 0.86206 0.96053 0.0
H2228 H 0.7719 0.89084 0.9573 0.0
H2229 H 0.66226 0.87851 0.81852 0.0
H2230 H 0.63945 0.86547 0.8536 0.0
H2231 H 0.67302 0.91796 0.83886 0.0
H2232 H 0.6121 0.83661 0.96111 0.0
H2233 H 0.68128 0.96707 0.93411 0.0
H2234 H 0.65955 0.80794 0.93677 0.0
H2235 H 0.63525 0.81174 0.89895 0.0
H2236 H 0.61009 0.79148 0.93384 0.0
H2237 H 0.73402 0.99762 0.90344 0.0
H2238 H 0.70816 0.976 0.86867 0.0
H2239 H 0.74459 0.96699 0.88891 0.0
C2240 C 0.99451 0.94433 0.59476 0.0
C2241 C 0.96773 0.93358 0.56857 0.0
C2242 C 0.98313 0.92758 0.62564 0.0
C2243 C 0.94383 0.90014 0.63061 0.0
C2244 C 0.91658 0.89194 0.60411 0.0
C2245 C 0.9289 0.90762 0.57348 0.0
C2246 C 1.01342 0.93699 0.65279 0.0
C2247 C 0.87436 0.86552 0.60812 0.0
C2248 C 0.91111 0.81238 0.7007 0.0
C2249 C 0.90346 0.82713 0.722 0.0
C2250 C 0.92545 0.8364 0.67164 0.0
C2251 C 0.93143 0.87609 0.66284 0.0
C2252 C 0.92415 0.89149 0.68438 0.0
C2253 C 0.91072 0.86707 0.71374 0.0
C2254 C 0.93297 0.81855 0.6498 0.0
C2255 C 0.92915 0.93311 0.67604 0.0
H2256 H 0.02466 0.9638 0.59108 0.0
H2257 H 0.90817 0.8988 0.55335 0.0
H2258 H 1.00695 0.94618 0.67116 0.0
H2259 H 1.01378 0.90898 0.66361 0.0
H2260 H 0.04232 0.96177 0.64536 0.0
H2261 H 0.85685 0.86349 0.58533 0.0
H2262 H 0.86632 0.83413 0.61998 0.0
H2263 H 0.86726 0.87826 0.62331 0.0
H2264 H 0.90478 0.78133 0.70643 0.0
H2265 H 0.90346 0.8783 0.72925 0.0
H2266 H 0.96231 0.84015 0.64219 0.0
H2267 H 0.91282 0.81391 0.62843 0.0
H2268 H 0.92963 0.78867 0.66091 0.0
H2269 H 0.95999 0.95735 0.67653 0.0
H2270 H 0.91613 0.93767 0.69271 0.0
H2271 H 0.91628 0.93739 0.65194 0.0
C2272 C 0.13061 0.77742 0.88154 0.0
C2273 C 0.13627 0.79063 0.84967 0.0
C2274 C 0.12541 0.79923 0.89796 0.0
C2275 C 0.1256 0.83471 0.88168 0.0
C2276 C 0.136 0.85076 0.85045 0.0
C2277 C 0.14115 0.82821 0.83461 0.0
C2278 C 0.11451 0.78106 0.93135 0.0
C2279 C 0.13733 0.88898 0.83274 0.0
C2280 C 0.047 0.82911 0.91208 0.0
C2281 C 0.06745 0.85288 0.93578 0.0
C2282 C 0.06619 0.82674 0.89143 0.0
C2283 C 0.10663 0.84844 0.89513 0.0
C2284 C 0.12728 0.87601 0.91682 0.0
C2285 C 0.10724 0.87792 0.93709 0.0
C2286 C 0.04308 0.79732 0.86824 0.0
C2287 C 0.17027 0.89972 0.92133 0.0
H2288 H 0.12654 0.74809 0.89285 0.0
H2289 H 0.14561 0.83802 0.8098 0.0
H2290 H 0.12875 0.80526 0.94618 0.0
H2291 H 0.0832 0.76576 0.93157 0.0
H2292 H 0.12206 0.75792 0.94204 0.0
H2293 H 0.15137 0.90062 0.81055 0.0
H2294 H 0.10781 0.88216 0.82687 0.0
H2295 H 0.15277 0.91342 0.84743 0.0
H2296 H 1.01607 0.8102 0.91115 0.0
H2297 H 0.12268 0.89645 0.95549 0.0
H2298 H 0.04477 0.76975 0.8765 0.0
H2299 H 0.05469 0.81161 0.84491 0.0
H2300 H 1.01251 0.7872 0.86547 0.0
H2301 H 0.17927 0.88054 0.93861 0.0
H2302 H 0.18175 0.92818 0.93066 0.0
H2303 H 0.18314 0.90788 0.89912 0.0
C2304 C 0.92476 0.40443 0.55636 0.0
C2305 C 0.96301 0.43149 0.56592 0.0
C2306 C 0.89835 0.3753 0.57845 0.0
C2307 C 0.9104 0.37403 0.61098 0.0
C2308 C 0.94962 0.39977 0.62049 0.0
C2309 C 0.97531 0.42852 0.59789 0.0
C2310 C 0.85709 0.3488 0.56675 0.0
C2311 C 0.96402 0.39892 0.65477 0.0
C2312 C 0.85014 0.3543 0.67355 0.0
C2313 C 0.83657 0.31326 0.68709 0.0
C2314 C 0.87105 0.37292 0.64697 0.0
C2315 C 0.88189 0.35137 0.63515 0.0
C2316 C 0.86725 0.30953 0.64791 0.0
C2317 C 0.84276 0.29043 0.67238 0.0
C2318 C 0.88202 0.41598 0.63182 0.0
C2319 C 0.87887 0.28555 0.63686 0.0
H2320 H 0.91494 0.40768 0.53171 0.0
H2321 H 1.00477 0.45009 0.60531 0.0
H2322 H 0.84207 0.31871 0.58223 0.0
H2323 H 0.8423 0.36465 0.56609 0.0
H2324 H 0.85457 0.34354 0.54259 0.0
H2325 H 0.99569 0.41664 0.65811 0.0
H2326 H 0.95368 0.41227 0.66627 0.0
H2327 H 0.95275 0.36685 0.66686 0.0
H2328 H 0.84384 0.37195 0.68335 0.0
H2329 H 0.82929 0.25795 0.68048 0.0
H2330 H 0.87608 0.41813 0.60593 0.0
H2331 H 0.91305 0.43762 0.63686 0.0
H2332 H 0.86629 0.42591 0.64047 0.0
H2333 H 0.86072 0.25216 0.64544 0.0
H2334 H 0.90895 0.29627 0.64577 0.0
H2335 H 0.87765 0.29085 0.61089 0.0
C2336 C 0.41193 0.18075 0.35378 0.0
C2337 C 0.4061 0.14175 0.35553 0.0
C2338 C 0.38653 0.1926 0.33609 0.0
C2339 C 0.35245 0.1649 0.31951 0.0
C2340 C 0.34544 0.12486 0.3219 0.0
C2341 C 0.37201 0.114 0.33941 0.0
C2342 C 0.39658 0.23546 0.33518 0.0
C2343 C 0.31035 0.09364 0.30479 0.0
C2344 C 0.26671 0.18077 0.2986 0.0
C2345 C 0.27126 0.20307 0.2677 0.0
C2346 C 0.29307 0.16977 0.31557 0.0
C2347 C 0.32406 0.17757 0.30106 0.0
C2348 C 0.32796 0.19854 0.26924 0.0
C2349 C 0.30249 0.21166 0.25347 0.0
C2350 C 0.28759 0.14948 0.34945 0.0
C2351 C 0.35874 0.20648 0.25141 0.0
H2352 H 0.43744 0.20302 0.36602 0.0
H2353 H 0.3666 0.08411 0.33951 0.0
H2354 H 0.39624 0.25087 0.31053 0.0
H2355 H 0.37488 0.23401 0.34662 0.0
H2356 H 0.42514 0.25456 0.34724 0.0
H2357 H 0.30551 0.06255 0.31231 0.0
H2358 H 0.28468 0.0923 0.30863 0.0
H2359 H 0.31371 0.10284 0.2792 0.0
H2360 H 0.24216 0.17187 0.30984 0.0
H2361 H 0.30609 0.22712 0.22932 0.0
H2362 H 0.3141 0.16716 0.36435 0.0
H2363 H 0.28195 0.11828 0.35227 0.0
H2364 H 0.26364 0.14715 0.35817 0.0
H2365 H 0.38705 0.23013 0.26094 0.0
H2366 H 0.35495 0.21724 0.22593 0.0
H2367 H 0.35888 0.1782 0.25435 0.0
C2368 C 0.58377 0.60802 0.06698 0.0
C2369 C 0.57503 0.5677 0.07582 0.0
C2370 C 0.60141 0.63565 0.08831 0.0
C2371 C 0.61373 0.62413 0.11917 0.0
C2372 C 0.60784 0.58432 0.12775 0.0
C2373 C 0.58794 0.55629 0.10615 0.0
C2374 C 0.60672 0.67734 0.07765 0.0
C2375 C 0.6222 0.57114 0.15974 0.0
C2376 C 0.69268 0.71563 0.15831 0.0
C2377 C 0.67348 0.71741 0.17961 0.0
C2378 C 0.674 0.68478 0.13959 0.0
C2379 C 0.63447 0.65498 0.14129 0.0
C2380 C 0.61457 0.65703 0.16229 0.0
C2381 C 0.63432 0.68803 0.18134 0.0
C2382 C 0.69708 0.68329 0.11878 0.0
C2383 C 0.57245 0.62616 0.16484 0.0
H2384 H 0.57727 0.61837 0.04293 0.0
H2385 H 0.58216 0.52549 0.1131 0.0
H2386 H 0.59581 0.68377 0.09476 0.0
H2387 H 0.63752 0.70138 0.07646 0.0
H2388 H 0.59173 0.67984 0.05418 0.0
H2389 H 0.62181 0.5429 0.16077 0.0
H2390 H 0.65174 0.59579 0.16625 0.0
H2391 H 0.60387 0.56496 0.17756 0.0
H2392 H 0.72321 0.73747 0.15751 0.0
H2393 H 0.61958 0.68807 0.19858 0.0
H2394 H 0.68732 0.68875 0.09377 0.0
H2395 H 0.69277 0.65245 0.12369 0.0
H2396 H 0.72811 0.70648 0.12217 0.0
H2397 H 0.55648 0.63043 0.14247 0.0
H2398 H 0.56182 0.62914 0.18432 0.0
H2399 H 0.56614 0.59457 0.16864 0.0
C2400 C 0.20364 0.19484 0.64248 0.0
C2401 C 0.23506 0.19206 0.65565 0.0
C2402 C 0.18611 0.1836 0.61348 0.0
C2403 C 0.19982 0.16761 0.59843 0.0
C2404 C 0.23519 0.17139 0.60884 0.0
C2405 C 0.25251 0.18338 0.63791 0.0
C2406 C 0.14893 0.1814 0.6023 0.0
C2407 C 0.25157 0.15702 0.59182 0.0
C2408 C 0.11375 0.06614 0.58704 0.0
C2409 C 0.10203 0.07561 0.55619 0.0
C2410 C 0.14839 0.09513 0.60035 0.0
C2411 C 0.17096 0.13413 0.58188 0.0
C2412 C 0.16004 0.14253 0.54992 0.0
C2413 C 0.12509 0.11288 0.53739 0.0
C2414 C 0.15943 0.08469 0.63462 0.0
C2415 C 0.18389 0.1831 0.52939 0.0
H2416 H 0.1906 0.20227 0.65578 0.0
H2417 H 0.27844 0.1839 0.64733 0.0
H2418 H 0.14624 0.18977 0.57643 0.0
H2419 H 0.12464 0.14958 0.60895 0.0
H2420 H 0.14643 0.20201 0.61305 0.0
H2421 H 0.28304 0.17293 0.59695 0.0
H2422 H 0.23901 0.12366 0.59978 0.0
H2423 H 0.24472 0.16217 0.56608 0.0
H2424 H 0.09587 0.03613 0.60057 0.0
H2425 H 0.11593 0.11865 0.51288 0.0
H2426 H 0.15768 0.10287 0.6487 0.0
H2427 H 0.18916 0.09218 0.63788 0.0
H2428 H 0.14044 0.05173 0.64421 0.0
H2429 H 0.17436 0.20371 0.52972 0.0
H2430 H 0.18018 0.17905 0.50464 0.0
H2431 H 0.21465 0.19835 0.53758 0.0
C2432 C 0.65723 0.32326 0.33945 0.0
C2433 C 0.63853 0.28198 0.35398 0.0
C2434 C 0.65084 0.35054 0.34736 0.0
C2435 C 0.62419 0.3355 0.36936 0.0
C2436 C 0.60789 0.29485 0.38603 0.0
C2437 C 0.61599 0.26883 0.3785 0.0
C2438 C 0.67054 0.39449 0.33078 0.0
C2439 C 0.57868 0.27728 0.40937 0.0
C2440 C 0.59023 0.38442 0.40389 0.0
C2441 C 0.55594 0.37382 0.38495 0.0
C2442 C 0.61643 0.37776 0.39637 0.0
C2443 C 0.60688 0.35822 0.37044 0.0
C2444 C 0.57452 0.3517 0.34946 0.0
C2445 C 0.5499 0.36059 0.35668 0.0
C2446 C 0.65228 0.38786 0.4178 0.0
C2447 C 0.56366 0.33159 0.32103 0.0
H2448 H 0.6751 0.33377 0.32067 0.0
H2449 H 0.60282 0.23737 0.39051 0.0
H2450 H 0.64965 0.40004 0.31456 0.0
H2451 H 0.68291 0.41553 0.3481 0.0
H2452 H 0.6936 0.40238 0.31702 0.0
H2453 H 0.57034 0.24575 0.42126 0.0
H2454 H 0.58989 0.29688 0.42756 0.0
H2455 H 0.55262 0.27624 0.39707 0.0
H2456 H 0.59559 0.39524 0.42567 0.0
H2457 H 0.52443 0.35447 0.34124 0.0
H2458 H 0.67656 0.39924 0.40411 0.0
H2459 H 0.64786 0.35987 0.43428 0.0
H2460 H 0.66005 0.41128 0.43186 0.0
H2461 H 0.5856 0.35168 0.304 0.0
H2462 H 0.53567 0.32544 0.30892 0.0
H2463 H 0.56213 0.30209 0.32788 0.0
C2464 C 0.39723 0.90332 0.04562 0.0
C2465 C 0.43721 0.92781 0.04855 0.0
C2466 C 0.37588 0.88182 0.0721 0.0
C2467 C 0.39483 0.88445 0.10284 0.0
C2468 C 0.43542 0.90765 0.10591 0.0
C2469 C 0.45604 0.92954 0.07888 0.0
C2470 C 0.33292 0.8583 0.06628 0.0
C2471 C 0.45714 0.90947 0.13782 0.0
C2472 C 0.34426 0.87132 0.17156 0.0
C2473 C 0.32568 0.82909 0.18303 0.0
C2474 C 0.36648 0.88952 0.14558 0.0
C2475 C 0.37237 0.86549 0.13149 0.0
C2476 C 0.35397 0.82284 0.1432 0.0
C2477 C 0.32929 0.80501 0.16751 0.0
C2478 C 0.38148 0.93398 0.13194 0.0
C2479 C 0.3592 0.79581 0.12916 0.0
H2480 H 0.38234 0.90198 0.02237 0.0
H2481 H 0.48691 0.94883 0.08156 0.0
H2482 H 0.31773 0.83743 0.08725 0.0
H2483 H 0.32382 0.88042 0.05785 0.0
H2484 H 0.32363 0.84 0.04739 0.0
H2485 H 0.48854 0.92827 0.13634 0.0
H2486 H 0.44992 0.92241 0.15268 0.0
H2487 H 0.44864 0.87796 0.14982 0.0
H2488 H 0.33959 0.88989 0.18188 0.0
H2489 H 0.31197 0.7721 0.17366 0.0
H2490 H 0.37153 0.93685 0.10664 0.0
H2491 H 0.41311 0.95204 0.13367 0.0
H2492 H 0.37196 0.94764 0.14402 0.0
H2493 H 0.35026 0.79784 0.10366 0.0
H2494 H 0.34251 0.76322 0.14038 0.0
H2495 H 0.38992 0.80661 0.13185 0.0
C2496 C 0.98797 0.60278 0.92859 0.0
C2497 C 0.9644 0.56222 0.94536 0.0
C2498 C 0.97349 0.62795 0.90864 0.0
C2499 C 0.93385 0.61584 0.90594 0.0
C2500 C 0.91076 0.57636 0.92451 0.0
C2501 C 0.92545 0.55109 0.94227 0.0
C2502 C 1.00187 0.66875 0.89101 0.0
C2503 C 0.86973 0.56084 0.92723 0.0
C2504 C 0.90088 0.69883 0.8702 0.0
C2505 C 0.87533 0.68478 0.84286 0.0
C2506 C 0.91935 0.67777 0.89051 0.0
C2507 C 0.91577 0.6419 0.8838 0.0
C2508 C 0.89284 0.63017 0.85501 0.0
C2509 C 0.87334 0.65006 0.8365 0.0
C2510 C 0.94324 0.69468 0.9196 0.0
C2511 C 0.89024 0.59707 0.84222 0.0
H2512 H 0.0184 0.61618 0.93177 0.0
H2513 H 0.90541 0.52174 0.95526 0.0
H2514 H 0.98828 0.67828 0.86928 0.0
H2515 H 1.01479 0.69227 0.90631 0.0
H2516 H 0.02531 0.66797 0.88465 0.0
H2517 H 0.85757 0.5354 0.94731 0.0
H2518 H 0.86725 0.58594 0.9303 0.0
H2519 H 0.8521 0.5494 0.90551 0.0
H2520 H 0.90694 0.72647 0.87617 0.0
H2521 H 0.85623 0.63792 0.81552 0.0
H2522 H 0.97381 0.7133 0.91501 0.0
H2523 H 0.939 0.66954 0.93949 0.0
H2524 H 0.93649 0.71465 0.92652 0.0
H2525 H 0.91936 0.60642 0.83846 0.0
H2526 H 0.87227 0.59097 0.81963 0.0
H2527 H 0.87839 0.5681 0.85923 0.0
C2528 C 0.41205 0.37951 0.04837 0.0
C2529 C 0.44439 0.41885 0.04923 0.0
C2530 C 0.38758 0.35982 0.07242 0.0
C2531 C 0.39687 0.37963 0.09827 0.0
C2532 C 0.43061 0.41855 0.09996 0.0
C2533 C 0.45373 0.43811 0.07502 0.0
C2534 C 0.3512 0.31863 0.0696 0.0
C2535 C 0.44199 0.43958 0.1279 0.0
C2536 C 0.31157 0.35163 0.1351 0.0
C2537 C 0.3076 0.31907 0.15827 0.0
C2538 C 0.34171 0.37276 0.1162 0.0
C2539 C 0.3689 0.36169 0.12143 0.0
C2540 C 0.36673 0.33094 0.14676 0.0
C2541 C 0.33532 0.30915 0.16465 0.0
C2542 C 0.34235 0.40427 0.08895 0.0
C2543 C 0.39636 0.31982 0.1541 0.0
H2544 H 0.40553 0.36464 0.02852 0.0
H2545 H 0.47959 0.468 0.07615 0.0
H2546 H 0.34922 0.29593 0.09083 0.0
H2547 H 0.32624 0.32129 0.06783 0.0
H2548 H 0.34926 0.30672 0.04868 0.0
H2549 H 0.4702 0.46899 0.12615 0.0
H2550 H 0.42033 0.44587 0.13002 0.0
H2551 H 0.44315 0.41916 0.14979 0.0
H2552 H 0.28991 0.35904 0.13063 0.0
H2553 H 0.3323 0.28435 0.18342 0.0
H2554 H 0.33434 0.39119 0.06727 0.0
H2555 H 0.37136 0.43235 0.08747 0.0
H2556 H 0.32191 0.41267 0.09036 0.0
H2557 H 0.39041 0.29922 0.13808 0.0
H2558 H 0.39596 0.30361 0.17862 0.0
H2559 H 0.42542 0.34749 0.15057 0.0
C2560 C 0.37907 0.58978 0.86249 0.0
C2561 C 0.41663 0.62355 0.86381 0.0
C2562 C 0.35157 0.59362 0.84139 0.0
C2563 C 0.36294 0.63197 0.82233 0.0
C2564 C 0.40203 0.66218 0.81868 0.0
C2565 C 0.42886 0.65771 0.84016 0.0
C2566 C 0.31007 0.56047 0.84454 0.0
C2567 C 0.41515 0.70298 0.79743 0.0
C2568 C 0.30197 0.67142 0.78111 0.0
C2569 C 0.30879 0.69642 0.80202 0.0
C2570 C 0.31689 0.64699 0.78819 0.0
C2571 C 0.33743 0.64653 0.81747 0.0
C2572 C 0.34025 0.66789 0.84023 0.0
C2573 C 0.32749 0.69443 0.83145 0.0
C2574 C 0.315 0.6266 0.76278 0.0
C2575 C 0.3608 0.66692 0.87246 0.0
H2576 H 0.37027 0.56286 0.88059 0.0
H2577 H 0.45851 0.68294 0.84096 0.0
H2578 H 0.29867 0.56731 0.86097 0.0
H2579 H 0.293 0.55901 0.82163 0.0
H2580 H 0.3063 0.53007 0.85404 0.0
H2581 H 0.44472 0.71763 0.79117 0.0
H2582 H 0.39597 0.69969 0.77558 0.0
H2583 H 0.41506 0.72382 0.80986 0.0
H2584 H 0.28902 0.67452 0.75768 0.0
H2585 H 0.33446 0.71545 0.84668 0.0
H2586 H 0.31485 0.59817 0.77261 0.0
H2587 H 0.34045 0.64793 0.74922 0.0
H2588 H 0.28933 0.61929 0.74607 0.0
H2589 H 0.35316 0.63532 0.8831 0.0
H2590 H 0.35387 0.67875 0.88861 0.0
H2591 H 0.39205 0.68646 0.87052 0.0
C2592 C 0.1162 0.54091 0.59566 0.0
C2593 C 0.0928 0.55431 0.57798 0.0
C2594 C 0.13315 0.55136 0.62505 0.0
C2595 C 0.12885 0.57852 0.63604 0.0
C2596 C 0.10549 0.59273 0.61841 0.0
C2597 C 0.08716 0.57986 0.58959 0.0
C2598 C 0.15735 0.53504 0.64353 0.0
C2599 C 0.10168 0.6233 0.62888 0.0
C2600 C 0.1686 0.60493 0.7173 0.0
C2601 C 0.20468 0.63966 0.71067 0.0
C2602 C 0.14347 0.58336 0.69331 0.0
C2603 C 0.15487 0.59809 0.66237 0.0
C2604 C 0.1924 0.63092 0.6563 0.0
C2605 C 0.21759 0.64927 0.68109 0.0
C2606 C 0.10442 0.54623 0.70066 0.0
C2607 C 0.20544 0.64853 0.62341 0.0
H2608 H 0.12193 0.52271 0.58646 0.0
H2609 H 0.06861 0.5899 0.57624 0.0
H2610 H 0.188 0.5591 0.64128 0.0
H2611 H 0.1526 0.52637 0.66884 0.0
H2612 H 0.15114 0.50793 0.635 0.0
H2613 H 0.07635 0.62395 0.61664 0.0
H2614 H 0.09954 0.61649 0.65457 0.0
H2615 H 0.12753 0.65432 0.62345 0.0
H2616 H 0.15948 0.59557 0.74061 0.0
H2617 H 0.24647 0.67425 0.67625 0.0
H2618 H 0.09909 0.52004 0.69136 0.0
H2619 H 0.08222 0.55272 0.68894 0.0
H2620 H 0.10114 0.53711 0.7263 0.0
H2621 H 0.20656 0.62612 0.61397 0.0
H2622 H 0.23413 0.67736 0.62263 0.0
H2623 H 0.18494 0.65514 0.60753 0.0
C2624 C 0.35821 0.2765 0.65666 0.0
C2625 C 0.33786 0.28243 0.67381 0.0
C2626 C 0.36118 0.29181 0.62453 0.0
C2627 C 0.34671 0.31684 0.61034 0.0
C2628 C 0.32034 0.31606 0.62565 0.0
C2629 C 0.31494 0.29687 0.65694 0.0
C2630 C 0.38455 0.28631 0.60726 0.0
C2631 C 0.3025 0.34065 0.61111 0.0
C2632 C 0.42813 0.42096 0.57988 0.0
C2633 C 0.42158 0.42159 0.54744 0.0
C2634 C 0.40311 0.38745 0.60033 0.0
C2635 C 0.37007 0.35379 0.58797 0.0
C2636 C 0.36127 0.35564 0.55514 0.0
C2637 C 0.38705 0.39008 0.53516 0.0
C2638 C 0.41356 0.3874 0.63529 0.0
C2639 C 0.32621 0.32061 0.54102 0.0
H2640 H 0.37286 0.26105 0.66829 0.0
H2641 H 0.29401 0.29483 0.66806 0.0
H2642 H 0.37643 0.28916 0.58162 0.0
H2643 H 0.41519 0.31012 0.61139 0.0
H2644 H 0.38084 0.25582 0.61603 0.0
H2645 H 0.32095 0.37138 0.61818 0.0
H2646 H 0.29968 0.34499 0.58512 0.0
H2647 H 0.27394 0.32573 0.61959 0.0
H2648 H 0.45383 0.44593 0.58965 0.0
H2649 H 0.38066 0.39162 0.51005 0.0
H2650 H 0.4207 0.36391 0.64558 0.0
H2651 H 0.38925 0.37987 0.64714 0.0
H2652 H 0.43863 0.4174 0.64069 0.0
H2653 H 0.33249 0.29758 0.53987 0.0
H2654 H 0.31788 0.33117 0.51675 0.0
H2655 H 0.30163 0.30502 0.55541 0.0
C2656 C 0.18012 0.72156 0.1499 0.0
C2657 C 0.20874 0.71509 0.16645 0.0
C2658 C 0.16015 0.70458 0.12272 0.0
C2659 C 0.16828 0.67959 0.1126 0.0
C2660 C 0.1986 0.67503 0.12807 0.0
C2661 C 0.21906 0.6938 0.15427 0.0
C2662 C 0.12894 0.71149 0.10612 0.0
C2663 C 0.20751 0.64766 0.11857 0.0
C2664 C 0.08553 0.58599 0.08165 0.0
C2665 C 0.09449 0.59326 0.05093 0.0
C2666 C 0.10911 0.61418 0.10176 0.0
C2667 C 0.14114 0.65205 0.09017 0.0
C2668 C 0.14872 0.66126 0.05837 0.0
C2669 C 0.12557 0.63119 0.03912 0.0
C2670 C 0.10028 0.60254 0.13569 0.0
C2671 C 0.18082 0.70284 0.04479 0.0
H2672 H 0.17266 0.73918 0.1584 0.0
H2673 H 0.24238 0.69052 0.16567 0.0
H2674 H 0.12573 0.71139 0.08055 0.0
H2675 H 0.1014 0.68666 0.11587 0.0
H2676 H 0.13469 0.74101 0.10968 0.0
H2677 H 0.23247 0.64797 0.13287 0.0
H2678 H 0.18243 0.61564 0.12132 0.0
H2679 H 0.2134 0.65732 0.09351 0.0
H2680 H 0.06029 0.55769 0.09045 0.0
H2681 H 0.13096 0.63781 0.0148 0.0
H2682 H 0.09332 0.62316 0.14104 0.0
H2683 H 0.12554 0.60594 0.15154 0.0
H2684 H 0.07581 0.57049 0.14123 0.0
H2685 H 0.17672 0.72682 0.04779 0.0
H2686 H 0.18238 0.7054 0.01944 0.0
H2687 H 0.20854 0.70927 0.05759 0.0
C2688 C 0.64163 0.36188 0.62272 0.0
C2689 C 0.6813 0.38623 0.62467 0.0
C2690 C 0.62063 0.37295 0.59875 0.0
C2691 C 0.64049 0.4084 0.57619 0.0
C2692 C 0.68042 0.42919 0.57561 0.0
C2693 C 0.70073 0.41824 0.60058 0.0
C2694 C 0.57795 0.35021 0.60032 0.0
C2695 C 0.70213 0.46578 0.55096 0.0
C2696 C 0.56576 0.41976 0.52422 0.0
C2697 C 0.56426 0.44641 0.53854 0.0
C2698 C 0.59512 0.41261 0.53268 0.0
C2699 C 0.62055 0.42829 0.55872 0.0
C2700 C 0.62094 0.45704 0.57214 0.0
C2701 C 0.5942 0.46769 0.56014 0.0
C2702 C 0.59704 0.38586 0.51535 0.0
C2703 C 0.64663 0.47333 0.60111 0.0
H2704 H 0.62729 0.33678 0.64161 0.0
H2705 H 0.7317 0.43627 0.60237 0.0
H2706 H 0.5708 0.37042 0.60625 0.0
H2707 H 0.56258 0.34147 0.57733 0.0
H2708 H 0.56709 0.32196 0.61829 0.0
H2709 H 0.72755 0.4673 0.54612 0.0
H2710 H 0.68406 0.46496 0.52869 0.0
H2711 H 0.71254 0.49428 0.5597 0.0
H2712 H 0.54401 0.40369 0.50672 0.0
H2713 H 0.59616 0.49107 0.56898 0.0
H2714 H 0.58111 0.35357 0.52732 0.0
H2715 H 0.62703 0.39538 0.51485 0.0
H2716 H 0.58402 0.38717 0.49083 0.0
H2717 H 0.63749 0.44803 0.62155 0.0
H2718 H 0.64562 0.49821 0.60669 0.0
H2719 H 0.67665 0.48521 0.59829 0.0
C2720 C 0.89505 0.6691 0.1921 0.0
C2721 C 0.85792 0.66089 0.19007 0.0
C2722 C 0.90404 0.65035 0.17533 0.0
C2723 C 0.87551 0.62319 0.15515 0.0
C2724 C 0.83831 0.61614 0.15178 0.0
C2725 C 0.8299 0.63489 0.16936 0.0
C2726 C 0.94395 0.65878 0.18 0.0
C2727 C 0.80693 0.58749 0.13052 0.0
C2728 C 0.90701 0.60301 0.0903 0.0
C2729 C 0.90089 0.56407 0.10226 0.0
C2730 C 0.89939 0.62266 0.10739 0.0
C2731 C 0.88495 0.60286 0.13727 0.0
C2732 C 0.87976 0.56386 0.14991 0.0
C2733 C 0.88778 0.54493 0.13225 0.0
C2734 C 0.90533 0.66399 0.09281 0.0
C2735 C 0.86485 0.54168 0.18175 0.0
H2736 H 0.91699 0.68925 0.20793 0.0
H2737 H 0.80104 0.62777 0.16796 0.0
H2738 H 0.9429 0.62959 0.18781 0.0
H2739 H 0.95739 0.67333 0.15743 0.0
H2740 H 0.96241 0.67917 0.19763 0.0
H2741 H 0.78128 0.5893 0.12723 0.0
H2742 H 0.81709 0.59451 0.10718 0.0
H2743 H 0.79848 0.55552 0.14081 0.0
H2744 H 0.91641 0.61745 0.06687 0.0
H2745 H 0.88219 0.5144 0.14126 0.0
H2746 H 0.92513 0.68668 0.10852 0.0
H2747 H 0.87776 0.66193 0.08982 0.0
H2748 H 0.91713 0.67552 0.06956 0.0
H2749 H 0.88503 0.56011 0.20003 0.0
H2750 H 0.86091 0.51095 0.18775 0.0
H2751 H 0.83711 0.53795 0.18252 0.0
C2752 C 0.95322 0.62702 0.58693 0.0
C2753 C 0.92521 0.61755 0.56148 0.0
C2754 C 0.94504 0.6263 0.6162 0.0
C2755 C 0.9082 0.61606 0.61951 0.0
C2756 C 0.87997 0.60673 0.59373 0.0
C2757 C 0.88901 0.60774 0.56495 0.0
C2758 C 0.97544 0.63608 0.64337 0.0
C2759 C 0.84002 0.59538 0.59641 0.0
C2760 C 0.84843 0.57579 0.68419 0.0
C2761 C 0.84514 0.60916 0.68143 0.0
C2762 C 0.87574 0.57966 0.66837 0.0
C2763 C 0.89865 0.61731 0.64893 0.0
C2764 C 0.89967 0.65265 0.65051 0.0
C2765 C 0.8723 0.648 0.66656 0.0
C2766 C 0.87559 0.54191 0.66853 0.0
C2767 C 0.92468 0.69363 0.6308 0.0
H2768 H 0.98108 0.63383 0.58405 0.0
H2769 H 0.86724 0.59908 0.54543 0.0
H2770 H 0.98585 0.66651 0.64866 0.0
H2771 H 0.96367 0.61339 0.66489 0.0
H2772 H 1.00025 0.63672 0.63818 0.0
H2773 H 0.82153 0.5879 0.57416 0.0
H2774 H 0.8262 0.56838 0.61505 0.0
H2775 H 0.84121 0.62116 0.60279 0.0
H2776 H 0.82843 0.54637 0.6972 0.0
H2777 H 0.87025 0.67413 0.66534 0.0
H2778 H 0.90404 0.54978 0.66444 0.0
H2779 H 0.85473 0.52567 0.64949 0.0
H2780 H 0.86678 0.52057 0.69117 0.0
H2781 H 0.95369 0.70003 0.63112 0.0
H2782 H 0.92708 0.71906 0.63905 0.0
H2783 H 0.91217 0.69317 0.60607 0.0
C2784 C 0.4531 0.54613 0.47714 0.0
C2785 C 0.47776 0.55377 0.45604 0.0
C2786 C 0.42763 0.55901 0.46804 0.0
C2787 C 0.424 0.57553 0.43626 0.0
C2788 C 0.4473 0.58082 0.41441 0.0
C2789 C 0.47587 0.5726 0.42525 0.0
C2790 C 0.40595 0.55588 0.49279 0.0
C2791 C 0.44284 0.59601 0.37976 0.0
C2792 C 0.339 0.57318 0.39184 0.0
C2793 C 0.35614 0.61495 0.37994 0.0
C2794 C 0.35919 0.55922 0.41434 0.0
C2795 C 0.39664 0.58821 0.42516 0.0
C2796 C 0.41076 0.63057 0.41769 0.0
C2797 C 0.39032 0.64372 0.39452 0.0
C2798 C 0.34293 0.51378 0.42243 0.0
C2799 C 0.44969 0.66196 0.43079 0.0
H2800 H 0.45548 0.53251 0.50137 0.0
H2801 H 0.49681 0.58131 0.40975 0.0
H2802 H 0.39705 0.57821 0.48615 0.0
H2803 H 0.38013 0.52453 0.49658 0.0
H2804 H 0.42363 0.56108 0.51559 0.0
H2805 H 0.45778 0.59046 0.36567 0.0
H2806 H 0.41225 0.58064 0.37092 0.0
H2807 H 0.45499 0.62942 0.37576 0.0
H2808 H 0.31201 0.55137 0.38067 0.0
H2809 H 0.40311 0.67614 0.3854 0.0
H2810 H 0.34657 0.50453 0.4481 0.0
H2811 H 0.35853 0.5062 0.41097 0.0
H2812 H 0.3121 0.4955 0.41452 0.0
H2813 H 0.45497 0.65105 0.4559 0.0
H2814 H 0.45272 0.6919 0.42847 0.0
H2815 H 0.47204 0.66688 0.4178 0.0
C2816 C 0.16052 0.35889 0.79265 0.0
C2817 C 0.17743 0.33638 0.80732 0.0
C2818 C 0.1515 0.37727 0.80981 0.0
C2819 C 0.16118 0.37519 0.8426 0.0
C2820 C 0.18015 0.35449 0.85746 0.0
C2821 C 0.1877 0.33504 0.83978 0.0
C2822 C 0.13093 0.39838 0.79274 0.0
C2823 C 0.19155 0.35193 0.89228 0.0
C2824 C 0.17238 0.45747 0.88086 0.0
C2825 C 0.13914 0.4363 0.89669 0.0
C2826 C 0.17955 0.43811 0.86311 0.0
C2827 C 0.15288 0.39621 0.86089 0.0
C2828 C 0.11836 0.375 0.87576 0.0
C2829 C 0.11186 0.3953 0.8934 0.0
C2830 C 0.21653 0.46232 0.84773 0.0
C2831 C 0.08847 0.33072 0.87331 0.0
H2832 H 0.15308 0.36108 0.76753 0.0
H2833 H 0.20032 0.31753 0.8516 0.0
H2834 H 0.10563 0.38734 0.80496 0.0
H2835 H 0.1501 0.43184 0.79266 0.0
H2836 H 0.12134 0.39312 0.76805 0.0
H2837 H 0.20897 0.33808 0.89993 0.0
H2838 H 0.20805 0.38291 0.89883 0.0
H2839 H 0.16556 0.33312 0.90533 0.0
H2840 H 0.19355 0.4892 0.88323 0.0
H2841 H 0.08622 0.37865 0.90569 0.0
H2842 H 0.21102 0.4603 0.82239 0.0
H2843 H 0.23425 0.44934 0.85859 0.0
H2844 H 0.23298 0.49509 0.85015 0.0
H2845 H 0.0765 0.32814 0.84855 0.0
H2846 H 0.06472 0.31757 0.88822 0.0
H2847 H 0.10141 0.31208 0.88031 0.0
C2848 C 0.17612 0.42071 0.29924 0.0
C2849 C 0.18512 0.39104 0.30499 0.0
C2850 C 0.14865 0.41523 0.31586 0.0
C2851 C 0.13129 0.37986 0.33892 0.0
C2852 C 0.13544 0.34682 0.34059 0.0
C2853 C 0.16287 0.35301 0.32361 0.0
C2854 C 0.14347 0.45029 0.31241 0.0
C2855 C 0.11659 0.30818 0.36453 0.0
C2856 C 0.14337 0.39767 0.42074 0.0
C2857 C 0.10572 0.3808 0.42607 0.0
C2858 C 0.15221 0.39949 0.39158 0.0
C2859 C 0.12227 0.38351 0.36758 0.0
C2860 C 0.08424 0.36741 0.3726 0.0
C2861 C 0.07635 0.36639 0.40204 0.0
C2862 C 0.1935 0.4177 0.38687 0.0
C2863 C 0.05213 0.35102 0.34715 0.0
H2864 H 0.19247 0.4493 0.28362 0.0
H2865 H 0.16944 0.32964 0.32738 0.0
H2866 H 0.11556 0.43991 0.31985 0.0
H2867 H 0.16643 0.47273 0.32723 0.0
H2868 H 0.14585 0.46636 0.28768 0.0
H2869 H 0.11632 0.28275 0.35842 0.0
H2870 H 0.13265 0.31429 0.38786 0.0
H2871 H 0.08687 0.29815 0.36671 0.0
H2872 H 0.16594 0.4103 0.4392 0.0
H2873 H 0.04737 0.35461 0.40634 0.0
H2874 H 0.20252 0.44229 0.36601 0.0
H2875 H 0.19691 0.39371 0.38279 0.0
H2876 H 0.21318 0.43092 0.40746 0.0
H2877 H 0.05878 0.37448 0.32561 0.0
H2878 H 0.02446 0.34174 0.35449 0.0
H2879 H 0.04888 0.32409 0.3408 0.0
loop_
_geom_bond_atom_site_label_1
_geom_bond_atom_site_label_2
_geom_bond_distance
_geom_bond_site_symmetry_2
_ccdc_geom_bond_type
Gd0 N31 2.661 . S
Gd0 N37 2.601 . S
Gd0 O44 2.545 . S
Gd0 O45 2.606 1_454 S
Gd0 O47 2.429 1_554 S
Gd0 O48 2.545 1_454 S
Gd0 O49 2.412 . S
Gd0 O51 2.362 1_545 S
Gd0 O52 2.324 1_445 S
Gd0 C59 2.828 . S
Gd1 N10 2.661 . S
Gd1 N14 2.601 . S
Gd1 O45 2.362 1_565 S
Gd1 O46 2.324 1_665 S
Gd1 O50 2.545 . S
Gd1 O51 2.606 1_656 S
Gd1 O53 2.429 1_556 S
Gd1 O54 2.545 1_656 S
Gd1 O55 2.412 . S
Gd1 C68 2.828 . S
C2 C5 1.417 . S
C2 C7 1.431 . S
C2 C8 1.412 . S
C3 C6 1.437 . S
C3 C7 1.317 . S
C3 H22 0.929 . S
C4 C5 1.426 . S
C4 C6 1.413 . S
C4 N14 1.359 . S
C5 C2 1.417 . S
C5 C4 1.426 . S
C5 N10 1.350 . S
C6 C3 1.437 . S
C6 C4 1.413 . S
C6 C16 1.391 . S
C7 C2 1.431 . S
C7 C3 1.317 . S
C7 H18 0.930 . S
C8 C2 1.412 . S
C8 C9 1.355 1_565 S
C8 H20 0.919 1_565 S
C9 C8 1.355 1_545 S
C9 C11 1.402 . S
C9 H21 0.930 . S
N10 Gd1 2.661 . S
N10 C5 1.350 . S
N10 C11 1.307 1_565 S
C11 C9 1.402 . S
C11 N10 1.307 1_545 S
C11 H12 0.930 . S
H12 C11 0.930 . S
C13 N14 1.334 . S
C13 C15 1.394 . S
C13 H17 0.930 . S
N14 Gd1 2.601 . S
N14 C4 1.359 . S
N14 C13 1.334 . S
C15 C13 1.394 . S
C15 C16 1.359 . S
C15 H27 0.930 . S
C16 C6 1.391 . S
C16 C15 1.359 . S
C16 H28 0.929 . S
H17 C13 0.930 . S
H18 C7 0.930 . S
H19 C36 0.930 . S
H20 C8 0.919 1_545 S
H21 C9 0.930 . S
H22 C3 0.929 . S
H23 C41 0.930 . S
H24 C32 0.922 1_565 S
H25 C33 0.930 . S
H26 C57 0.929 . S
H27 C15 0.930 . S
H28 C16 0.929 . S
H29 C58 0.930 . S
H30 C39 0.930 . S
N31 Gd0 2.661 . S
N31 C35 1.350 . S
N31 C36 1.307 1_545 S
C32 H24 0.922 1_545 S
C32 C33 1.355 1_545 S
C32 C34 1.412 . S
C33 H25 0.930 . S
C33 C32 1.355 1_565 S
C33 C36 1.402 . S
C34 C32 1.412 . S
C34 C35 1.417 . S
C34 C58 1.431 . S
C35 N31 1.350 . S
C35 C34 1.417 . S
C35 C38 1.426 . S
C36 H19 0.930 . S
C36 N31 1.307 1_565 S
C36 C33 1.402 . S
N37 Gd0 2.601 . S
N37 C38 1.359 . S
N37 C41 1.334 . S
C38 C35 1.426 . S
C38 N37 1.359 . S
C38 C42 1.413 . S
C39 H30 0.930 . S
C39 C40 1.359 . S
C39 C41 1.394 . S
C40 C39 1.359 . S
C40 C42 1.391 . S
C40 H43 0.929 . S
C41 H23 0.930 . S
C41 N37 1.334 . S
C41 C39 1.394 . S
C42 C38 1.413 . S
C42 C40 1.391 . S
C42 C57 1.437 . S
H43 C40 0.929 . S
O44 Gd0 2.545 . S
O44 C59 1.258 . S
O45 Gd0 2.606 1_656 S
O45 Gd1 2.362 1_545 S
O45 C56 1.284 . S
O46 Gd1 2.324 1_445 S
O46 C66 1.254 . S
O47 Gd0 2.429 1_556 S
O47 C66 1.268 . S
O48 Gd0 2.545 1_656 S
O48 C56 1.250 . S
O49 Gd0 2.412 . S
O49 C59 1.252 . S
O50 Gd1 2.545 . S
O50 C68 1.258 . S
O51 Gd0 2.362 1_565 S
O51 Gd1 2.606 1_454 S
O51 C67 1.284 . S
O52 Gd0 2.324 1_665 S
O52 C75 1.254 . S
O53 Gd1 2.429 1_554 S
O53 C75 1.268 . S
O54 Gd1 2.545 1_454 S
O54 C67 1.250 . S
O55 Gd1 2.412 . S
O55 C68 1.252 . S
C56 O45 1.284 . S
C56 O48 1.250 . S
C57 H26 0.929 . S
C57 C42 1.437 . S
C57 C58 1.317 . S
C58 H29 0.930 . S
C58 C34 1.431 . S
C58 C57 1.317 . S
C59 Gd0 2.828 . S
C59 O44 1.258 . S
C59 O49 1.252 . S
C59 C60 1.497 . S
C60 C59 1.497 . S
C60 C61 1.395 . S
C60 C62 1.380 1_455 S
C61 C60 1.395 . S
C61 C64 1.398 . S
C61 H76 0.930 . S
C62 C60 1.380 1_655 S
C62 C63 1.391 . S
C62 H77 0.930 . S
C63 C62 1.391 . S
C63 C65 1.387 1_655 S
C64 C61 1.398 . S
C64 C65 1.380 . S
C64 H78 0.930 . S
C65 C63 1.387 1_455 S
C65 C64 1.380 . S
C65 H79 0.930 . S
C66 O46 1.254 . S
C66 O47 1.268 . S
C67 O51 1.284 . S
C67 O54 1.250 . S
C68 Gd1 2.828 . S
C68 O50 1.258 . S
C68 O55 1.252 . S
C68 C69 1.497 . S
C69 C68 1.497 . S
C69 C70 1.395 . S
C69 C71 1.380 1_655 S
C70 C69 1.395 . S
C70 C73 1.398 . S
C70 H80 0.930 . S
C71 C69 1.380 1_455 S
C71 C72 1.391 . S
C71 H81 0.930 . S
C72 C71 1.391 . S
C72 C74 1.387 1_455 S
C73 C70 1.398 . S
C73 C74 1.380 . S
C73 H82 0.930 . S
C74 C72 1.387 1_655 S
C74 C73 1.380 . S
C74 H83 0.930 . S
C75 O52 1.254 . S
C75 O53 1.268 . S
H76 C61 0.930 . S
H77 C62 0.930 . S
H78 C64 0.930 . S
H79 C65 0.930 . S
H80 C70 0.930 . S
H81 C71 0.930 . S
H82 C73 0.930 . S
H83 C74 0.930 . S
Gd84 N115 2.661 . S
Gd84 N121 2.601 . S
Gd84 O128 2.545 . S
Gd84 O129 2.606 . S
Gd84 O131 2.429 . S
Gd84 O132 2.545 . S
Gd84 O133 2.412 . S
Gd84 O135 2.362 . S
Gd84 O136 2.324 . S
Gd84 C143 2.828 . S
Gd85 N94 2.661 . S
Gd85 N98 2.601 . S
Gd85 O129 2.362 . S
Gd85 O130 2.324 . S
Gd85 O134 2.545 . S
Gd85 O135 2.606 . S
Gd85 O137 2.429 . S
Gd85 O138 2.545 . S
Gd85 O139 2.412 . S
Gd85 C152 2.828 . S
C86 C89 1.417 . S
C86 C91 1.431 . S
C86 C92 1.412 . S
C87 C90 1.437 . S
C87 C91 1.317 . S
C87 H106 0.929 . S
C88 C89 1.426 . S
C88 C90 1.413 . S
C88 N98 1.359 . S
C89 C86 1.417 . S
C89 C88 1.426 . S
C89 N94 1.350 . S
C90 C87 1.437 . S
C90 C88 1.413 . S
C90 C100 1.391 . S
C91 C86 1.431 . S
C91 C87 1.317 . S
C91 H102 0.930 . S
C92 C86 1.412 . S
C92 C93 1.355 . S
C92 H104 0.930 . S
C93 C92 1.355 . S
C93 C95 1.402 . S
C93 H105 0.930 . S
N94 Gd85 2.661 . S
N94 C89 1.350 . S
N94 C95 1.307 . S
C95 C93 1.402 . S
C95 N94 1.307 . S
C95 H96 0.930 . S
H96 C95 0.930 . S
C97 N98 1.334 . S
C97 C99 1.394 . S
C97 H101 0.930 . S
N98 Gd85 2.601 . S
N98 C88 1.359 . S
N98 C97 1.334 . S
C99 C97 1.394 . S
C99 C100 1.359 . S
C99 H111 0.930 . S
C100 C90 1.391 . S
C100 C99 1.359 . S
C100 H112 0.929 . S
H101 C97 0.930 . S
H102 C91 0.930 . S
H103 C120 0.930 . S
H104 C92 0.930 . S
H105 C93 0.930 . S
H106 C87 0.929 . S
H107 C125 0.930 . S
H108 C116 0.930 . S
H109 C117 0.930 . S
H110 C141 0.929 . S
H111 C99 0.930 . S
H112 C100 0.929 . S
H113 C142 0.930 . S
H114 C123 0.930 . S
N115 Gd84 2.661 . S
N115 C119 1.350 . S
N115 C120 1.307 . S
C116 H108 0.930 . S
C116 C117 1.355 . S
C116 C118 1.412 . S
C117 H109 0.930 . S
C117 C116 1.355 . S
C117 C120 1.402 . S
C118 C116 1.412 . S
C118 C119 1.417 . S
C118 C142 1.431 . S
C119 N115 1.350 . S
C119 C118 1.417 . S
C119 C122 1.426 . S
C120 H103 0.930 . S
C120 N115 1.307 . S
C120 C117 1.402 . S
N121 Gd84 2.601 . S
N121 C122 1.359 . S
N121 C125 1.334 . S
C122 C119 1.426 . S
C122 N121 1.359 . S
C122 C126 1.413 . S
C123 H114 0.930 . S
C123 C124 1.359 . S
C123 C125 1.394 . S
C124 C123 1.359 . S
C124 C126 1.391 . S
C124 H127 0.929 . S
C125 H107 0.930 . S
C125 N121 1.334 . S
C125 C123 1.394 . S
C126 C122 1.413 . S
C126 C124 1.391 . S
C126 C141 1.437 . S
H127 C124 0.929 . S
O128 Gd84 2.545 . S
O128 C143 1.258 . S
O129 Gd84 2.606 . S
O129 Gd85 2.362 . S
O129 C140 1.284 . S
O130 Gd85 2.324 . S
O130 C150 1.254 . S
O131 Gd84 2.429 . S
O131 C150 1.268 . S
O132 Gd84 2.545 . S
O132 C140 1.250 . S
O133 Gd84 2.412 . S
O133 C143 1.252 . S
O134 Gd85 2.545 . S
O134 C152 1.258 . S
O135 Gd84 2.362 . S
O135 Gd85 2.606 . S
O135 C151 1.284 . S
O136 Gd84 2.324 . S
O136 C159 1.254 . S
O137 Gd85 2.429 . S
O137 C159 1.268 . S
O138 Gd85 2.545 . S
O138 C151 1.250 . S
O139 Gd85 2.412 . S
O139 C152 1.252 . S
C140 O129 1.284 . S
C140 O132 1.250 . S
C141 H110 0.929 . S
C141 C126 1.437 . S
C141 C142 1.317 . S
C142 H113 0.930 . S
C142 C118 1.431 . S
C142 C141 1.317 . S
C143 Gd84 2.828 . S
C143 O128 1.258 . S
C143 O133 1.252 . S
C143 C144 1.497 . S
C144 C143 1.497 . S
C144 C145 1.395 . S
C144 C146 1.380 . S
C145 C144 1.395 . S
C145 C148 1.398 . S
C145 H160 0.930 . S
C146 C144 1.380 . S
C146 C147 1.391 . S
C146 H161 0.930 . S
C147 C146 1.391 . S
C147 C149 1.387 . S
C148 C145 1.398 . S
C148 C149 1.380 . S
C148 H162 0.930 . S
C149 C147 1.387 . S
C149 C148 1.380 . S
C149 H163 0.930 . S
C150 O130 1.254 . S
C150 O131 1.268 . S
C151 O135 1.284 . S
C151 O138 1.250 . S
C152 Gd85 2.828 . S
C152 O134 1.258 . S
C152 O139 1.252 . S
C152 C153 1.497 . S
C153 C152 1.497 . S
C153 C154 1.395 . S
C153 C155 1.380 . S
C154 C153 1.395 . S
C154 C157 1.398 . S
C154 H164 0.930 . S
C155 C153 1.380 . S
C155 C156 1.391 . S
C155 H165 0.930 . S
C156 C155 1.391 . S
C156 C158 1.387 . S
C157 C154 1.398 . S
C157 C158 1.380 . S
C157 H166 0.930 . S
C158 C156 1.387 . S
C158 C157 1.380 . S
C158 H167 0.930 . S
C159 O136 1.254 . S
C159 O137 1.268 . S
H160 C145 0.930 . S
H161 C146 0.930 . S
H162 C148 0.930 . S
H163 C149 0.930 . S
H164 C154 0.930 . S
H165 C155 0.930 . S
H166 C157 0.930 . S
H167 C158 0.930 . S
Gd168 N199 2.661 . S
Gd168 N205 2.601 . S
Gd168 O212 2.545 . S
Gd168 O213 2.606 1_565 S
Gd168 O215 2.429 . S
Gd168 O216 2.545 . S
Gd168 O217 2.412 . S
Gd168 O219 2.362 . S
Gd168 O220 2.324 1_565 S
Gd168 C227 2.828 . S
Gd169 N178 2.661 . S
Gd169 N182 2.601 . S
Gd169 O213 2.362 . S
Gd169 O214 2.324 1_545 S
Gd169 O218 2.545 . S
Gd169 O219 2.606 1_545 S
Gd169 O221 2.429 . S
Gd169 O222 2.545 . S
Gd169 O223 2.412 . S
Gd169 C236 2.828 . S
C170 C173 1.417 . S
C170 C175 1.431 . S
C170 C176 1.412 . S
C171 C174 1.437 . S
C171 C175 1.317 . S
C171 H190 0.929 . S
C172 C173 1.426 . S
C172 C174 1.413 . S
C172 N182 1.359 . S
C173 C170 1.417 . S
C173 C172 1.426 . S
C173 N178 1.350 . S
C174 C171 1.437 . S
C174 C172 1.413 . S
C174 C184 1.391 . S
C175 C170 1.431 . S
C175 C171 1.317 . S
C175 H186 0.930 . S
C176 C170 1.412 . S
C176 C177 1.355 . S
C176 H188 0.930 . S
C177 C176 1.355 . S
C177 C179 1.402 . S
C177 H189 0.930 1_545 S
N178 Gd169 2.661 . S
N178 C173 1.350 . S
N178 C179 1.307 . S
C179 C177 1.402 . S
C179 N178 1.307 . S
C179 H180 0.930 1_545 S
H180 C179 0.930 1_565 S
C181 N182 1.334 . S
C181 C183 1.394 . S
C181 H185 0.930 . S
N182 Gd169 2.601 . S
N182 C172 1.359 . S
N182 C181 1.334 . S
C183 C181 1.394 . S
C183 C184 1.359 . S
C183 H195 0.930 . S
C184 C174 1.391 . S
C184 C183 1.359 . S
C184 H196 0.929 . S
H185 C181 0.930 . S
H186 C175 0.930 . S
H187 C204 0.930 1_545 S
H188 C176 0.930 . S
H189 C177 0.930 1_565 S
H190 C171 0.929 . S
H191 C209 0.930 . S
H192 C200 0.930 . S
H193 C201 0.930 1_545 S
H194 C225 0.929 . S
H195 C183 0.930 . S
H196 C184 0.929 . S
H197 C226 0.930 . S
H198 C207 0.930 . S
N199 Gd168 2.661 . S
N199 C203 1.350 . S
N199 C204 1.307 . S
C200 H192 0.930 . S
C200 C201 1.355 . S
C200 C202 1.412 . S
C201 H193 0.930 1_565 S
C201 C200 1.355 . S
C201 C204 1.402 . S
C202 C200 1.412 . S
C202 C203 1.417 . S
C202 C226 1.431 . S
C203 N199 1.350 . S
C203 C202 1.417 . S
C203 C206 1.426 . S
C204 H187 0.930 1_565 S
C204 N199 1.307 . S
C204 C201 1.402 . S
N205 Gd168 2.601 . S
N205 C206 1.359 . S
N205 C209 1.334 . S
C206 C203 1.426 . S
C206 N205 1.359 . S
C206 C210 1.413 . S
C207 H198 0.930 . S
C207 C208 1.359 . S
C207 C209 1.394 . S
C208 C207 1.359 . S
C208 C210 1.391 . S
C208 H211 0.929 . S
C209 H191 0.930 . S
C209 N205 1.334 . S
C209 C207 1.394 . S
C210 C206 1.413 . S
C210 C208 1.391 . S
C210 C225 1.437 . S
H211 C208 0.929 . S
O212 Gd168 2.545 . S
O212 C227 1.258 . S
O213 Gd168 2.606 1_545 S
O213 Gd169 2.362 . S
O213 C224 1.284 1_545 S
O214 Gd169 2.324 1_565 S
O214 C234 1.254 . S
O215 Gd168 2.429 . S
O215 C234 1.268 . S
O216 Gd168 2.545 . S
O216 C224 1.250 . S
O217 Gd168 2.412 . S
O217 C227 1.252 . S
O218 Gd169 2.545 . S
O218 C236 1.258 . S
O219 Gd168 2.362 . S
O219 Gd169 2.606 1_565 S
O219 C235 1.284 1_565 S
O220 Gd168 2.324 1_545 S
O220 C243 1.254 . S
O221 Gd169 2.429 . S
O221 C243 1.268 . S
O222 Gd169 2.545 . S
O222 C235 1.250 . S
O223 Gd169 2.412 . S
O223 C236 1.252 . S
C224 O213 1.284 1_565 S
C224 O216 1.250 . S
C225 H194 0.929 . S
C225 C210 1.437 . S
C225 C226 1.317 . S
C226 H197 0.930 . S
C226 C202 1.431 . S
C226 C225 1.317 . S
C227 Gd168 2.828 . S
C227 O212 1.258 . S
C227 O217 1.252 . S
C227 C228 1.497 . S
C228 C227 1.497 . S
C228 C229 1.395 . S
C228 C230 1.380 . S
C229 C228 1.395 . S
C229 C232 1.398 . S
C229 H244 0.930 . S
C230 C228 1.380 . S
C230 C231 1.391 . S
C230 H245 0.930 . S
C231 C230 1.391 . S
C231 C233 1.387 . S
C232 C229 1.398 . S
C232 C233 1.380 . S
C232 H246 0.930 . S
C233 C231 1.387 . S
C233 C232 1.380 . S
C233 H247 0.930 . S
C234 O214 1.254 . S
C234 O215 1.268 . S
C235 O219 1.284 1_545 S
C235 O222 1.250 . S
C236 Gd169 2.828 . S
C236 O218 1.258 . S
C236 O223 1.252 . S
C236 C237 1.497 . S
C237 C236 1.497 . S
C237 C238 1.395 . S
C237 C239 1.380 . S
C238 C237 1.395 . S
C238 C241 1.398 . S
C238 H248 0.930 . S
C239 C237 1.380 . S
C239 C240 1.391 . S
C239 H249 0.930 . S
C240 C239 1.391 . S
C240 C242 1.387 . S
C241 C238 1.398 . S
C241 C242 1.380 . S
C241 H250 0.930 . S
C242 C240 1.387 . S
C242 C241 1.380 . S
C242 H251 0.930 . S
C243 O220 1.254 . S
C243 O221 1.268 . S
H244 C229 0.930 . S
H245 C230 0.930 . S
H246 C232 0.930 . S
H247 C233 0.930 . S
H248 C238 0.930 . S
H249 C239 0.930 . S
H250 C241 0.930 . S
H251 C242 0.930 . S
Gd252 N283 2.661 . S
Gd252 N289 2.601 . S
Gd252 O296 2.545 . S
Gd252 O297 2.606 . S
Gd252 O299 2.429 . S
Gd252 O300 2.545 . S
Gd252 O301 2.412 . S
Gd252 O303 2.362 . S
Gd252 O304 2.324 . S
Gd252 C311 2.828 . S
Gd253 N262 2.661 . S
Gd253 N266 2.601 . S
Gd253 O297 2.362 . S
Gd253 O298 2.324 . S
Gd253 O302 2.545 . S
Gd253 O303 2.606 . S
Gd253 O305 2.429 . S
Gd253 O306 2.545 . S
Gd253 O307 2.412 . S
Gd253 C320 2.828 . S
C254 C257 1.417 . S
C254 C259 1.431 . S
C254 C260 1.412 . S
C255 C258 1.437 . S
C255 C259 1.317 . S
C255 H274 0.929 . S
C256 C257 1.426 . S
C256 C258 1.413 . S
C256 N266 1.359 . S
C257 C254 1.417 . S
C257 C256 1.426 . S
C257 N262 1.350 . S
C258 C255 1.437 . S
C258 C256 1.413 . S
C258 C268 1.391 . S
C259 C254 1.431 . S
C259 C255 1.317 . S
C259 H270 0.930 . S
C260 C254 1.412 . S
C260 C261 1.355 . S
C260 H272 0.930 . S
C261 C260 1.355 . S
C261 C263 1.402 . S
C261 H273 0.930 . S
N262 Gd253 2.661 . S
N262 C257 1.350 . S
N262 C263 1.307 . S
C263 C261 1.402 . S
C263 N262 1.307 . S
C263 H264 0.930 . S
H264 C263 0.930 . S
C265 N266 1.334 . S
C265 C267 1.394 . S
C265 H269 0.930 . S
N266 Gd253 2.601 . S
N266 C256 1.359 . S
N266 C265 1.334 . S
C267 C265 1.394 . S
C267 C268 1.359 . S
C267 H279 0.930 . S
C268 C258 1.391 . S
C268 C267 1.359 . S
C268 H280 0.929 . S
H269 C265 0.930 . S
H270 C259 0.930 . S
H271 C288 0.930 . S
H272 C260 0.930 . S
H273 C261 0.930 . S
H274 C255 0.929 . S
H275 C293 0.930 . S
H276 C284 0.930 . S
H277 C285 0.930 . S
H278 C309 0.929 . S
H279 C267 0.930 . S
H280 C268 0.929 . S
H281 C310 0.930 . S
H282 C291 0.930 . S
N283 Gd252 2.661 . S
N283 C287 1.350 . S
N283 C288 1.307 . S
C284 H276 0.930 . S
C284 C285 1.355 . S
C284 C286 1.412 . S
C285 H277 0.930 . S
C285 C284 1.355 . S
C285 C288 1.402 . S
C286 C284 1.412 . S
C286 C287 1.417 . S
C286 C310 1.431 . S
C287 N283 1.350 . S
C287 C286 1.417 . S
C287 C290 1.426 . S
C288 H271 0.930 . S
C288 N283 1.307 . S
C288 C285 1.402 . S
N289 Gd252 2.601 . S
N289 C290 1.359 . S
N289 C293 1.334 . S
C290 C287 1.426 . S
C290 N289 1.359 . S
C290 C294 1.413 . S
C291 H282 0.930 . S
C291 C292 1.359 . S
C291 C293 1.394 . S
C292 C291 1.359 . S
C292 C294 1.391 . S
C292 H295 0.929 . S
C293 H275 0.930 . S
C293 N289 1.334 . S
C293 C291 1.394 . S
C294 C290 1.413 . S
C294 C292 1.391 . S
C294 C309 1.437 . S
H295 C292 0.929 . S
O296 Gd252 2.545 . S
O296 C311 1.258 . S
O297 Gd252 2.606 . S
O297 Gd253 2.362 . S
O297 C308 1.284 . S
O298 Gd253 2.324 . S
O298 C318 1.254 . S
O299 Gd252 2.429 . S
O299 C318 1.268 . S
O300 Gd252 2.545 . S
O300 C308 1.250 . S
O301 Gd252 2.412 . S
O301 C311 1.252 . S
O302 Gd253 2.545 . S
O302 C320 1.258 . S
O303 Gd252 2.362 . S
O303 Gd253 2.606 . S
O303 C319 1.284 . S
O304 Gd252 2.324 . S
O304 C327 1.254 . S
O305 Gd253 2.429 . S
O305 C327 1.268 . S
O306 Gd253 2.545 . S
O306 C319 1.250 . S
O307 Gd253 2.412 . S
O307 C320 1.252 . S
C308 O297 1.284 . S
C308 O300 1.250 . S
C309 H278 0.929 . S
C309 C294 1.437 . S
C309 C310 1.317 . S
C310 H281 0.930 . S
C310 C286 1.431 . S
C310 C309 1.317 . S
C311 Gd252 2.828 . S
C311 O296 1.258 . S
C311 O301 1.252 . S
C311 C312 1.497 . S
C312 C311 1.497 . S
C312 C313 1.395 . S
C312 C314 1.380 . S
C313 C312 1.395 . S
C313 C316 1.398 . S
C313 H328 0.930 . S
C314 C312 1.380 . S
C314 C315 1.391 . S
C314 H329 0.930 . S
C315 C314 1.391 . S
C315 C317 1.387 . S
C316 C313 1.398 . S
C316 C317 1.380 . S
C316 H330 0.930 . S
C317 C315 1.387 . S
C317 C316 1.380 . S
C317 H331 0.930 . S
C318 O298 1.254 . S
C318 O299 1.268 . S
C319 O303 1.284 . S
C319 O306 1.250 . S
C320 Gd253 2.828 . S
C320 O302 1.258 . S
C320 O307 1.252 . S
C320 C321 1.497 . S
C321 C320 1.497 . S
C321 C322 1.395 . S
C321 C323 1.380 . S
C322 C321 1.395 . S
C322 C325 1.398 . S
C322 H332 0.930 . S
C323 C321 1.380 . S
C323 C324 1.391 . S
C323 H333 0.930 . S
C324 C323 1.391 . S
C324 C326 1.387 . S
C325 C322 1.398 . S
C325 C326 1.380 . S
C325 H334 0.930 . S
C326 C324 1.387 . S
C326 C325 1.380 . S
C326 H335 0.930 . S
C327 O304 1.254 . S
C327 O305 1.268 . S
H328 C313 0.930 . S
H329 C314 0.930 . S
H330 C316 0.930 . S
H331 C317 0.930 . S
H332 C322 0.930 . S
H333 C323 0.930 . S
H334 C325 0.930 . S
H335 C326 0.930 . S
Gd336 N367 2.661 1_545 S
Gd336 N373 2.601 . S
Gd336 O380 2.545 . S
Gd336 O381 2.606 1_655 S
Gd336 O383 2.429 1_655 S
Gd336 O384 2.545 1_655 S
Gd336 O385 2.412 . S
Gd336 O387 2.362 1_545 S
Gd336 O388 2.324 1_545 S
Gd336 C395 2.828 . S
Gd337 N346 2.661 1_565 S
Gd337 N350 2.601 . S
Gd337 O381 2.362 1_565 S
Gd337 O382 2.324 1_565 S
Gd337 O386 2.545 . S
Gd337 O387 2.606 1_455 S
Gd337 O389 2.429 1_455 S
Gd337 O390 2.545 1_455 S
Gd337 O391 2.412 . S
Gd337 C404 2.828 . S
C338 C341 1.417 . S
C338 C343 1.431 . S
C338 C344 1.412 . S
C339 C342 1.437 . S
C339 C343 1.317 1_565 S
C339 H358 0.929 . S
C340 C341 1.426 1_565 S
C340 C342 1.413 . S
C340 N350 1.359 . S
C341 C338 1.417 . S
C341 C340 1.426 1_545 S
C341 N346 1.350 . S
C342 C339 1.437 . S
C342 C340 1.413 . S
C342 C352 1.391 . S
C343 C338 1.431 . S
C343 C339 1.317 1_545 S
C343 H354 0.930 . S
C344 C338 1.412 . S
C344 C345 1.355 . S
C344 H356 0.930 . S
C345 C344 1.355 . S
C345 C347 1.402 . S
C345 H357 0.930 . S
N346 Gd337 2.661 1_545 S
N346 C341 1.350 . S
N346 C347 1.307 . S
C347 C345 1.402 . S
C347 N346 1.307 . S
C347 H348 0.930 . S
H348 C347 0.930 . S
C349 N350 1.334 . S
C349 C351 1.394 . S
C349 H353 0.930 1_455 S
N350 Gd337 2.601 . S
N350 C340 1.359 . S
N350 C349 1.334 . S
C351 C349 1.394 . S
C351 C352 1.359 . S
C351 H363 0.930 1_455 S
C352 C342 1.391 . S
C352 C351 1.359 . S
C352 H364 0.929 . S
H353 C349 0.930 1_655 S
H354 C343 0.930 . S
H355 C372 0.930 . S
H356 C344 0.930 . S
H357 C345 0.930 . S
H358 C339 0.929 . S
H359 C377 0.930 1_455 S
H360 C368 0.930 . S
H361 C369 0.930 . S
H362 C393 0.929 . S
H363 C351 0.930 1_655 S
H364 C352 0.929 . S
H365 C394 0.930 . S
H366 C375 0.930 1_455 S
N367 Gd336 2.661 1_565 S
N367 C371 1.350 . S
N367 C372 1.307 . S
C368 H360 0.930 . S
C368 C369 1.355 . S
C368 C370 1.412 . S
C369 H361 0.930 . S
C369 C368 1.355 . S
C369 C372 1.402 . S
C370 C368 1.412 . S
C370 C371 1.417 . S
C370 C394 1.431 . S
C371 N367 1.350 . S
C371 C370 1.417 . S
C371 C374 1.426 1_565 S
C372 H355 0.930 . S
C372 N367 1.307 . S
C372 C369 1.402 . S
N373 Gd336 2.601 . S
N373 C374 1.359 . S
N373 C377 1.334 . S
C374 C371 1.426 1_545 S
C374 N373 1.359 . S
C374 C378 1.413 . S
C375 H366 0.930 1_655 S
C375 C376 1.359 . S
C375 C377 1.394 . S
C376 C375 1.359 . S
C376 C378 1.391 . S
C376 H379 0.929 . S
C377 H359 0.930 1_655 S
C377 N373 1.334 . S
C377 C375 1.394 . S
C378 C374 1.413 . S
C378 C376 1.391 . S
C378 C393 1.437 . S
H379 C376 0.929 . S
O380 Gd336 2.545 . S
O380 C395 1.258 . S
O381 Gd336 2.606 1_455 S
O381 Gd337 2.362 1_545 S
O381 C392 1.284 . S
O382 Gd337 2.324 1_545 S
O382 C402 1.254 . S
O383 Gd336 2.429 1_455 S
O383 C402 1.268 . S
O384 Gd336 2.545 1_455 S
O384 C392 1.250 . S
O385 Gd336 2.412 . S
O385 C395 1.252 . S
O386 Gd337 2.545 . S
O386 C404 1.258 . S
O387 Gd336 2.362 1_565 S
O387 Gd337 2.606 1_655 S
O387 C403 1.284 . S
O388 Gd336 2.324 1_565 S
O388 C411 1.254 . S
O389 Gd337 2.429 1_655 S
O389 C411 1.268 . S
O390 Gd337 2.545 1_655 S
O390 C403 1.250 . S
O391 Gd337 2.412 . S
O391 C404 1.252 . S
C392 O381 1.284 . S
C392 O384 1.250 . S
C393 H362 0.929 . S
C393 C378 1.437 . S
C393 C394 1.317 1_545 S
C394 H365 0.930 . S
C394 C370 1.431 . S
C394 C393 1.317 1_565 S
C395 Gd336 2.828 . S
C395 O380 1.258 . S
C395 O385 1.252 . S
C395 C396 1.497 . S
C396 C395 1.497 . S
C396 C397 1.395 . S
C396 C398 1.380 . S
C397 C396 1.395 . S
C397 C400 1.398 . S
C397 H412 0.930 . S
C398 C396 1.380 . S
C398 C399 1.391 . S
C398 H413 0.930 . S
C399 C398 1.391 . S
C399 C401 1.387 . S
C400 C397 1.398 . S
C400 C401 1.380 . S
C400 H414 0.930 . S
C401 C399 1.387 . S
C401 C400 1.380 . S
C401 H415 0.930 . S
C402 O382 1.254 . S
C402 O383 1.268 . S
C403 O387 1.284 . S
C403 O390 1.250 . S
C404 Gd337 2.828 . S
C404 O386 1.258 . S
C404 O391 1.252 . S
C404 C405 1.497 . S
C405 C404 1.497 . S
C405 C406 1.395 . S
C405 C407 1.380 . S
C406 C405 1.395 . S
C406 C409 1.398 . S
C406 H416 0.930 . S
C407 C405 1.380 . S
C407 C408 1.391 . S
C407 H417 0.930 . S
C408 C407 1.391 . S
C408 C410 1.387 . S
C409 C406 1.398 . S
C409 C410 1.380 . S
C409 H418 0.930 . S
C410 C408 1.387 . S
C410 C409 1.380 . S
C410 H419 0.930 . S
C411 O388 1.254 . S
C411 O389 1.268 . S
H412 C397 0.930 . S
H413 C398 0.930 . S
H414 C400 0.930 . S
H415 C401 0.930 . S
H416 C406 0.930 . S
H417 C407 0.930 . S
H418 C409 0.930 . S
H419 C410 0.930 . S
Gd420 N451 2.661 . S
Gd420 N457 2.601 . S
Gd420 O464 2.545 . S
Gd420 O465 2.606 . S
Gd420 O467 2.429 . S
Gd420 O468 2.545 . S
Gd420 O469 2.412 . S
Gd420 O471 2.362 . S
Gd420 O472 2.324 . S
Gd420 C479 2.828 . S
Gd421 N430 2.661 . S
Gd421 N434 2.601 . S
Gd421 O465 2.362 . S
Gd421 O466 2.324 . S
Gd421 O470 2.545 . S
Gd421 O471 2.606 . S
Gd421 O473 2.429 . S
Gd421 O474 2.545 . S
Gd421 O475 2.412 . S
Gd421 C488 2.828 . S
C422 C425 1.417 . S
C422 C427 1.431 . S
C422 C428 1.412 . S
C423 C426 1.437 . S
C423 C427 1.317 . S
C423 H442 0.929 . S
C424 C425 1.426 . S
C424 C426 1.413 . S
C424 N434 1.359 . S
C425 C422 1.417 . S
C425 C424 1.426 . S
C425 N430 1.350 . S
C426 C423 1.437 . S
C426 C424 1.413 . S
C426 C436 1.391 . S
C427 C422 1.431 . S
C427 C423 1.317 . S
C427 H438 0.930 . S
C428 C422 1.412 . S
C428 C429 1.355 . S
C428 H440 0.930 . S
C429 C428 1.355 . S
C429 C431 1.402 . S
C429 H441 0.930 . S
N430 Gd421 2.661 . S
N430 C425 1.350 . S
N430 C431 1.307 . S
C431 C429 1.402 . S
C431 N430 1.307 . S
C431 H432 0.930 . S
H432 C431 0.930 . S
C433 N434 1.334 . S
C433 C435 1.394 . S
C433 H437 0.930 . S
N434 Gd421 2.601 . S
N434 C424 1.359 . S
N434 C433 1.334 . S
C435 C433 1.394 . S
C435 C436 1.359 . S
C435 H447 0.930 . S
C436 C426 1.391 . S
C436 C435 1.359 . S
C436 H448 0.929 . S
H437 C433 0.930 . S
H438 C427 0.930 . S
H439 C456 0.930 . S
H440 C428 0.930 . S
H441 C429 0.930 . S
H442 C423 0.929 . S
H443 C461 0.930 . S
H444 C452 0.930 . S
H445 C453 0.930 . S
H446 C477 0.929 . S
H447 C435 0.930 . S
H448 C436 0.929 . S
H449 C478 0.930 . S
H450 C459 0.930 . S
N451 Gd420 2.661 . S
N451 C455 1.350 . S
N451 C456 1.307 . S
C452 H444 0.930 . S
C452 C453 1.355 . S
C452 C454 1.412 . S
C453 H445 0.930 . S
C453 C452 1.355 . S
C453 C456 1.402 . S
C454 C452 1.412 . S
C454 C455 1.417 . S
C454 C478 1.431 . S
C455 N451 1.350 . S
C455 C454 1.417 . S
C455 C458 1.426 . S
C456 H439 0.930 . S
C456 N451 1.307 . S
C456 C453 1.402 . S
N457 Gd420 2.601 . S
N457 C458 1.359 . S
N457 C461 1.334 . S
C458 C455 1.426 . S
C458 N457 1.359 . S
C458 C462 1.413 . S
C459 H450 0.930 . S
C459 C460 1.359 . S
C459 C461 1.394 . S
C460 C459 1.359 . S
C460 C462 1.391 . S
C460 H463 0.929 . S
C461 H443 0.930 . S
C461 N457 1.334 . S
C461 C459 1.394 . S
C462 C458 1.413 . S
C462 C460 1.391 . S
C462 C477 1.437 . S
H463 C460 0.929 . S
O464 Gd420 2.545 . S
O464 C479 1.258 . S
O465 Gd420 2.606 . S
O465 Gd421 2.362 . S
O465 C476 1.284 . S
O466 Gd421 2.324 . S
O466 C486 1.254 . S
O467 Gd420 2.429 . S
O467 C486 1.268 . S
O468 Gd420 2.545 . S
O468 C476 1.250 . S
O469 Gd420 2.412 . S
O469 C479 1.252 . S
O470 Gd421 2.545 . S
O470 C488 1.258 . S
O471 Gd420 2.362 . S
O471 Gd421 2.606 . S
O471 C487 1.284 . S
O472 Gd420 2.324 . S
O472 C495 1.254 . S
O473 Gd421 2.429 . S
O473 C495 1.268 . S
O474 Gd421 2.545 . S
O474 C487 1.250 . S
O475 Gd421 2.412 . S
O475 C488 1.252 . S
C476 O465 1.284 . S
C476 O468 1.250 . S
C477 H446 0.929 . S
C477 C462 1.437 . S
C477 C478 1.317 . S
C478 H449 0.930 . S
C478 C454 1.431 . S
C478 C477 1.317 . S
C479 Gd420 2.828 . S
C479 O464 1.258 . S
C479 O469 1.252 . S
C479 C480 1.497 . S
C480 C479 1.497 . S
C480 C481 1.395 . S
C480 C482 1.380 . S
C481 C480 1.395 . S
C481 C484 1.398 . S
C481 H496 0.930 . S
C482 C480 1.380 . S
C482 C483 1.391 . S
C482 H497 0.930 . S
C483 C482 1.391 . S
C483 C485 1.387 . S
C484 C481 1.398 . S
C484 C485 1.380 . S
C484 H498 0.930 . S
C485 C483 1.387 . S
C485 C484 1.380 . S
C485 H499 0.930 . S
C486 O466 1.254 . S
C486 O467 1.268 . S
C487 O471 1.284 . S
C487 O474 1.250 . S
C488 Gd421 2.828 . S
C488 O470 1.258 . S
C488 O475 1.252 . S
C488 C489 1.497 . S
C489 C488 1.497 . S
C489 C490 1.395 . S
C489 C491 1.380 . S
C490 C489 1.395 . S
C490 C493 1.398 . S
C490 H500 0.930 . S
C491 C489 1.380 . S
C491 C492 1.391 . S
C491 H501 0.930 . S
C492 C491 1.391 . S
C492 C494 1.387 . S
C493 C490 1.398 . S
C493 C494 1.380 . S
C493 H502 0.930 . S
C494 C492 1.387 . S
C494 C493 1.380 . S
C494 H503 0.930 . S
C495 O472 1.254 . S
C495 O473 1.268 . S
H496 C481 0.930 . S
H497 C482 0.930 . S
H498 C484 0.930 . S
H499 C485 0.930 . S
H500 C490 0.930 . S
H501 C491 0.930 . S
H502 C493 0.930 . S
H503 C494 0.930 . S
Gd504 N535 2.661 . S
Gd504 N541 2.601 . S
Gd504 O548 2.545 . S
Gd504 O549 2.606 1_546 S
Gd504 O551 2.429 1_545 S
Gd504 O552 2.545 1_546 S
Gd504 O553 2.412 1_556 S
Gd504 O555 2.362 . S
Gd504 O556 2.324 1_556 S
Gd504 C563 2.820 1_556 S
Gd505 N514 2.661 . S
Gd505 N518 2.601 . S
Gd505 O549 2.362 . S
Gd505 O550 2.324 1_554 S
Gd505 O554 2.545 . S
Gd505 O555 2.606 1_564 S
Gd505 O557 2.429 1_565 S
Gd505 O558 2.545 1_564 S
Gd505 O559 2.412 1_554 S
Gd505 C572 2.824 1_554 S
C506 C509 1.417 . S
C506 C511 1.431 . S
C506 C512 1.412 . S
C507 C510 1.437 . S
C507 C511 1.317 . S
C507 H526 0.929 . S
C508 C509 1.426 . S
C508 C510 1.413 . S
C508 N518 1.359 . S
C509 C506 1.417 . S
C509 C508 1.426 . S
C509 N514 1.350 . S
C510 C507 1.437 . S
C510 C508 1.413 . S
C510 C520 1.391 . S
C511 C506 1.431 . S
C511 C507 1.317 . S
C511 H522 0.930 . S
C512 C506 1.412 . S
C512 C513 1.355 . S
C512 H524 0.930 . S
C513 C512 1.355 . S
C513 C515 1.402 . S
C513 H525 0.930 . S
N514 Gd505 2.661 . S
N514 C509 1.350 . S
N514 C515 1.307 . S
C515 C513 1.402 . S
C515 N514 1.307 . S
C515 H516 0.930 . S
H516 C515 0.930 . S
C517 N518 1.334 . S
C517 C519 1.394 . S
C517 H521 0.930 . S
N518 Gd505 2.601 . S
N518 C508 1.359 . S
N518 C517 1.334 . S
C519 C517 1.394 . S
C519 C520 1.359 . S
C519 H531 0.930 . S
C520 C510 1.391 . S
C520 C519 1.359 . S
C520 H532 0.929 . S
H521 C517 0.930 . S
H522 C511 0.930 . S
H523 C540 0.930 . S
H524 C512 0.930 . S
H525 C513 0.930 . S
H526 C507 0.929 . S
H527 C545 0.930 . S
H528 C536 0.930 . S
H529 C537 0.930 . S
H530 C561 0.929 . S
H531 C519 0.930 . S
H532 C520 0.929 . S
H533 C562 0.930 . S
H534 C543 0.930 . S
N535 Gd504 2.661 . S
N535 C539 1.350 . S
N535 C540 1.307 . S
C536 H528 0.930 . S
C536 C537 1.355 . S
C536 C538 1.412 . S
C537 H529 0.930 . S
C537 C536 1.355 . S
C537 C540 1.402 . S
C538 C536 1.412 . S
C538 C539 1.417 . S
C538 C562 1.431 . S
C539 N535 1.350 . S
C539 C538 1.417 . S
C539 C542 1.426 . S
C540 H523 0.930 . S
C540 N535 1.307 . S
C540 C537 1.402 . S
N541 Gd504 2.601 . S
N541 C542 1.359 . S
N541 C545 1.334 . S
C542 C539 1.426 . S
C542 N541 1.359 . S
C542 C546 1.413 . S
C543 H534 0.930 . S
C543 C544 1.359 . S
C543 C545 1.394 . S
C544 C543 1.359 . S
C544 C546 1.391 . S
C544 H547 0.929 . S
C545 H527 0.930 . S
C545 N541 1.334 . S
C545 C543 1.394 . S
C546 C542 1.413 . S
C546 C544 1.391 . S
C546 C561 1.437 . S
H547 C544 0.929 . S
O548 Gd504 2.545 . S
O548 C563 1.244 1_556 S
O549 Gd504 2.606 1_564 S
O549 Gd505 2.362 . S
O549 C560 1.284 . S
O550 Gd505 2.324 1_556 S
O550 C570 1.254 . S
O551 Gd504 2.429 1_565 S
O551 C570 1.268 . S
O552 Gd504 2.545 1_564 S
O552 C560 1.250 . S
O553 Gd504 2.412 1_554 S
O553 C563 1.256 . S
O554 Gd505 2.545 . S
O554 C572 1.251 1_554 S
O555 Gd504 2.362 . S
O555 Gd505 2.606 1_546 S
O555 C571 1.284 . S
O556 Gd504 2.324 1_554 S
O556 C579 1.254 . S
O557 Gd505 2.429 1_545 S
O557 C579 1.268 . S
O558 Gd505 2.545 1_546 S
O558 C571 1.250 . S
O559 Gd505 2.412 1_556 S
O559 C572 1.254 . S
C560 O549 1.284 . S
C560 O552 1.250 . S
C561 H530 0.929 . S
C561 C546 1.437 . S
C561 C562 1.317 . S
C562 H533 0.930 . S
C562 C538 1.431 . S
C562 C561 1.317 . S
C563 Gd504 2.820 1_554 S
C563 O548 1.244 1_554 S
C563 O553 1.256 . S
C563 C564 1.507 . S
C564 C563 1.507 . S
C564 C565 1.395 1_554 S
C564 C566 1.380 . S
C565 C564 1.395 1_556 S
C565 C568 1.395 1_556 S
C565 H580 0.930 . S
C566 C564 1.380 . S
C566 C567 1.391 . S
C566 H581 0.930 . S
C567 C566 1.391 . S
C567 C569 1.387 . S
C568 C565 1.395 1_554 S
C568 C569 1.385 . S
C568 H582 0.928 1_554 S
C569 C567 1.387 . S
C569 C568 1.385 . S
C569 H583 0.930 . S
C570 O550 1.254 . S
C570 O551 1.268 . S
C571 O555 1.284 . S
C571 O558 1.250 . S
C572 Gd505 2.824 1_556 S
C572 O554 1.251 1_556 S
C572 O559 1.254 . S
C572 C573 1.502 . S
C573 C572 1.502 . S
C573 C574 1.395 1_556 S
C573 C575 1.380 . S
C574 C573 1.395 1_554 S
C574 C577 1.400 1_554 S
C574 H584 0.930 . S
C575 C573 1.380 . S
C575 C576 1.391 . S
C575 H585 0.930 . S
C576 C575 1.391 . S
C576 C578 1.387 . S
C577 C574 1.400 1_556 S
C577 C578 1.376 . S
C577 H586 0.931 1_556 S
C578 C576 1.387 . S
C578 C577 1.376 . S
C578 H587 0.930 . S
C579 O556 1.254 . S
C579 O557 1.268 . S
H580 C565 0.930 . S
H581 C566 0.930 . S
H582 C568 0.928 1_556 S
H583 C569 0.930 . S
H584 C574 0.930 . S
H585 C575 0.930 . S
H586 C577 0.931 1_554 S
H587 C578 0.930 . S
Gd588 N619 2.661 . S
Gd588 N625 2.601 . S
Gd588 O632 2.545 . S
Gd588 O633 2.606 . S
Gd588 O635 2.429 . S
Gd588 O636 2.545 . S
Gd588 O637 2.412 . S
Gd588 O639 2.362 . S
Gd588 O640 2.324 . S
Gd588 C647 2.828 . S
Gd589 N598 2.661 . S
Gd589 N602 2.601 . S
Gd589 O633 2.362 . S
Gd589 O634 2.324 . S
Gd589 O638 2.545 . S
Gd589 O639 2.606 . S
Gd589 O641 2.429 . S
Gd589 O642 2.545 . S
Gd589 O643 2.412 . S
Gd589 C656 2.828 . S
C590 C593 1.417 . S
C590 C595 1.431 . S
C590 C596 1.412 . S
C591 C594 1.437 . S
C591 C595 1.317 . S
C591 H610 0.929 . S
C592 C593 1.426 . S
C592 C594 1.413 . S
C592 N602 1.359 . S
C593 C590 1.417 . S
C593 C592 1.426 . S
C593 N598 1.350 . S
C594 C591 1.437 . S
C594 C592 1.413 . S
C594 C604 1.391 . S
C595 C590 1.431 . S
C595 C591 1.317 . S
C595 H606 0.930 . S
C596 C590 1.412 . S
C596 C597 1.355 . S
C596 H608 0.930 . S
C597 C596 1.355 . S
C597 C599 1.402 . S
C597 H609 0.930 . S
N598 Gd589 2.661 . S
N598 C593 1.350 . S
N598 C599 1.307 . S
C599 C597 1.402 . S
C599 N598 1.307 . S
C599 H600 0.930 . S
H600 C599 0.930 . S
C601 N602 1.334 . S
C601 C603 1.394 . S
C601 H605 0.930 . S
N602 Gd589 2.601 . S
N602 C592 1.359 . S
N602 C601 1.334 . S
C603 C601 1.394 . S
C603 C604 1.359 . S
C603 H615 0.930 . S
C604 C594 1.391 . S
C604 C603 1.359 . S
C604 H616 0.929 . S
H605 C601 0.930 . S
H606 C595 0.930 . S
H607 C624 0.930 . S
H608 C596 0.930 . S
H609 C597 0.930 . S
H610 C591 0.929 . S
H611 C629 0.930 . S
H612 C620 0.930 . S
H613 C621 0.930 . S
H614 C645 0.929 . S
H615 C603 0.930 . S
H616 C604 0.929 . S
H617 C646 0.930 . S
H618 C627 0.930 . S
N619 Gd588 2.661 . S
N619 C623 1.350 . S
N619 C624 1.307 . S
C620 H612 0.930 . S
C620 C621 1.355 . S
C620 C622 1.412 . S
C621 H613 0.930 . S
C621 C620 1.355 . S
C621 C624 1.402 . S
C622 C620 1.412 . S
C622 C623 1.417 . S
C622 C646 1.431 . S
C623 N619 1.350 . S
C623 C622 1.417 . S
C623 C626 1.426 . S
C624 H607 0.930 . S
C624 N619 1.307 . S
C624 C621 1.402 . S
N625 Gd588 2.601 . S
N625 C626 1.359 . S
N625 C629 1.334 . S
C626 C623 1.426 . S
C626 N625 1.359 . S
C626 C630 1.413 . S
C627 H618 0.930 . S
C627 C628 1.359 . S
C627 C629 1.394 . S
C628 C627 1.359 . S
C628 C630 1.391 . S
C628 H631 0.929 . S
C629 H611 0.930 . S
C629 N625 1.334 . S
C629 C627 1.394 . S
C630 C626 1.413 . S
C630 C628 1.391 . S
C630 C645 1.437 . S
H631 C628 0.929 . S
O632 Gd588 2.545 . S
O632 C647 1.258 . S
O633 Gd588 2.606 . S
O633 Gd589 2.362 . S
O633 C644 1.284 . S
O634 Gd589 2.324 . S
O634 C654 1.254 . S
O635 Gd588 2.429 . S
O635 C654 1.268 . S
O636 Gd588 2.545 . S
O636 C644 1.250 . S
O637 Gd588 2.412 . S
O637 C647 1.252 . S
O638 Gd589 2.545 . S
O638 C656 1.258 . S
O639 Gd588 2.362 . S
O639 Gd589 2.606 . S
O639 C655 1.284 . S
O640 Gd588 2.324 . S
O640 C663 1.254 . S
O641 Gd589 2.429 . S
O641 C663 1.268 . S
O642 Gd589 2.545 . S
O642 C655 1.250 . S
O643 Gd589 2.412 . S
O643 C656 1.252 . S
C644 O633 1.284 . S
C644 O636 1.250 . S
C645 H614 0.929 . S
C645 C630 1.437 . S
C645 C646 1.317 . S
C646 H617 0.930 . S
C646 C622 1.431 . S
C646 C645 1.317 . S
C647 Gd588 2.828 . S
C647 O632 1.258 . S
C647 O637 1.252 . S
C647 C648 1.497 . S
C648 C647 1.497 . S
C648 C649 1.395 . S
C648 C650 1.380 . S
C649 C648 1.395 . S
C649 C652 1.398 . S
C649 H664 0.930 . S
C650 C648 1.380 . S
C650 C651 1.391 . S
C650 H665 0.930 . S
C651 C650 1.391 . S
C651 C653 1.387 . S
C652 C649 1.398 . S
C652 C653 1.380 . S
C652 H666 0.930 . S
C653 C651 1.387 . S
C653 C652 1.380 . S
C653 H667 0.930 . S
C654 O634 1.254 . S
C654 O635 1.268 . S
C655 O639 1.284 . S
C655 O642 1.250 . S
C656 Gd589 2.828 . S
C656 O638 1.258 . S
C656 O643 1.252 . S
C656 C657 1.497 . S
C657 C656 1.497 . S
C657 C658 1.395 . S
C657 C659 1.380 . S
C658 C657 1.395 . S
C658 C661 1.398 . S
C658 H668 0.930 . S
C659 C657 1.380 . S
C659 C660 1.391 . S
C659 H669 0.930 . S
C660 C659 1.391 . S
C660 C662 1.387 . S
C661 C658 1.398 . S
C661 C662 1.380 . S
C661 H670 0.930 . S
C662 C660 1.387 . S
C662 C661 1.380 . S
C662 H671 0.930 . S
C663 O640 1.254 . S
C663 O641 1.268 . S
H664 C649 0.930 . S
H665 C650 0.930 . S
H666 C652 0.930 . S
H667 C653 0.930 . S
H668 C658 0.930 . S
H669 C659 0.930 . S
H670 C661 0.930 . S
H671 C662 0.930 . S
Gd672 N703 2.661 1_556 S
Gd672 N709 2.601 1_556 S
Gd672 O716 2.545 . S
Gd672 O717 2.606 . S
Gd672 O719 2.429 1_556 S
Gd672 O720 2.545 . S
Gd672 O721 2.412 . S
Gd672 O723 2.362 1_556 S
Gd672 O724 2.324 . S
Gd672 C731 2.828 . S
Gd673 N682 2.661 1_554 S
Gd673 N686 2.601 1_554 S
Gd673 O717 2.362 1_554 S
Gd673 O718 2.324 . S
Gd673 O722 2.545 . S
Gd673 O723 2.606 . S
Gd673 O725 2.429 1_554 S
Gd673 O726 2.545 . S
Gd673 O727 2.412 . S
Gd673 C740 2.828 . S
C674 C677 1.417 . S
C674 C679 1.431 . S
C674 C680 1.412 . S
C675 C678 1.437 . S
C675 C679 1.317 . S
C675 H694 0.929 . S
C676 C677 1.426 . S
C676 C678 1.413 . S
C676 N686 1.359 . S
C677 C674 1.417 . S
C677 C676 1.426 . S
C677 N682 1.350 . S
C678 C675 1.437 . S
C678 C676 1.413 . S
C678 C688 1.391 . S
C679 C674 1.431 . S
C679 C675 1.317 . S
C679 H690 0.930 . S
C680 C674 1.412 . S
C680 C681 1.355 . S
C680 H692 0.930 . S
C681 C680 1.355 . S
C681 C683 1.402 1_556 S
C681 H693 0.930 1_556 S
N682 Gd673 2.661 1_556 S
N682 C677 1.350 . S
N682 C683 1.307 1_556 S
C683 C681 1.402 1_554 S
C683 N682 1.307 1_554 S
C683 H684 0.930 . S
H684 C683 0.930 . S
C685 N686 1.334 . S
C685 C687 1.394 . S
C685 H689 0.930 . S
N686 Gd673 2.601 1_556 S
N686 C676 1.359 . S
N686 C685 1.334 . S
C687 C685 1.394 . S
C687 C688 1.359 . S
C687 H699 0.930 . S
C688 C678 1.391 . S
C688 C687 1.359 . S
C688 H700 0.929 . S
H689 C685 0.930 . S
H690 C679 0.930 . S
H691 C708 0.930 . S
H692 C680 0.930 . S
H693 C681 0.930 1_554 S
H694 C675 0.929 . S
H695 C713 0.930 . S
H696 C704 0.930 . S
H697 C705 0.930 1_556 S
H698 C729 0.929 . S
H699 C687 0.930 . S
H700 C688 0.929 . S
H701 C730 0.930 . S
H702 C711 0.930 . S
N703 Gd672 2.661 1_554 S
N703 C707 1.350 . S
N703 C708 1.307 1_554 S
C704 H696 0.930 . S
C704 C705 1.355 . S
C704 C706 1.412 . S
C705 H697 0.930 1_554 S
C705 C704 1.355 . S
C705 C708 1.402 1_554 S
C706 C704 1.412 . S
C706 C707 1.417 . S
C706 C730 1.431 . S
C707 N703 1.350 . S
C707 C706 1.417 . S
C707 C710 1.426 . S
C708 H691 0.930 . S
C708 N703 1.307 1_556 S
C708 C705 1.402 1_556 S
N709 Gd672 2.601 1_554 S
N709 C710 1.359 . S
N709 C713 1.334 . S
C710 C707 1.426 . S
C710 N709 1.359 . S
C710 C714 1.413 . S
C711 H702 0.930 . S
C711 C712 1.359 . S
C711 C713 1.394 . S
C712 C711 1.359 . S
C712 C714 1.391 . S
C712 H715 0.929 . S
C713 H695 0.930 . S
C713 N709 1.334 . S
C713 C711 1.394 . S
C714 C710 1.413 . S
C714 C712 1.391 . S
C714 C729 1.437 . S
H715 C712 0.929 . S
O716 Gd672 2.545 . S
O716 C731 1.258 . S
O717 Gd672 2.606 . S
O717 Gd673 2.362 1_556 S
O717 C728 1.284 . S
O718 Gd673 2.324 . S
O718 C738 1.254 . S
O719 Gd672 2.429 1_554 S
O719 C738 1.268 . S
O720 Gd672 2.545 . S
O720 C728 1.250 . S
O721 Gd672 2.412 . S
O721 C731 1.252 . S
O722 Gd673 2.545 . S
O722 C740 1.258 . S
O723 Gd672 2.362 1_554 S
O723 Gd673 2.606 . S
O723 C739 1.284 . S
O724 Gd672 2.324 . S
O724 C747 1.254 . S
O725 Gd673 2.429 1_556 S
O725 C747 1.268 . S
O726 Gd673 2.545 . S
O726 C739 1.250 . S
O727 Gd673 2.412 . S
O727 C740 1.252 . S
C728 O717 1.284 . S
C728 O720 1.250 . S
C729 H698 0.929 . S
C729 C714 1.437 . S
C729 C730 1.317 . S
C730 H701 0.930 . S
C730 C706 1.431 . S
C730 C729 1.317 . S
C731 Gd672 2.828 . S
C731 O716 1.258 . S
C731 O721 1.252 . S
C731 C732 1.497 . S
C732 C731 1.497 . S
C732 C733 1.395 . S
C732 C734 1.380 . S
C733 C732 1.395 . S
C733 C736 1.398 . S
C733 H748 0.930 . S
C734 C732 1.380 . S
C734 C735 1.391 . S
C734 H749 0.930 . S
C735 C734 1.391 . S
C735 C737 1.387 . S
C736 C733 1.398 . S
C736 C737 1.380 . S
C736 H750 0.930 . S
C737 C735 1.387 . S
C737 C736 1.380 . S
C737 H751 0.930 . S
C738 O718 1.254 . S
C738 O719 1.268 . S
C739 O723 1.284 . S
C739 O726 1.250 . S
C740 Gd673 2.828 . S
C740 O722 1.258 . S
C740 O727 1.252 . S
C740 C741 1.497 . S
C741 C740 1.497 . S
C741 C742 1.395 . S
C741 C743 1.380 . S
C742 C741 1.395 . S
C742 C745 1.398 . S
C742 H752 0.930 . S
C743 C741 1.380 . S
C743 C744 1.391 . S
C743 H753 0.930 . S
C744 C743 1.391 . S
C744 C746 1.387 . S
C745 C742 1.398 . S
C745 C746 1.380 . S
C745 H754 0.930 . S
C746 C744 1.387 . S
C746 C745 1.380 . S
C746 H755 0.930 . S
C747 O724 1.254 . S
C747 O725 1.268 . S
H748 C733 0.930 . S
H749 C734 0.930 . S
H750 C736 0.930 . S
H751 C737 0.930 . S
H752 C742 0.930 . S
H753 C743 0.930 . S
H754 C745 0.930 . S
H755 C746 0.930 . S
Gd756 N787 2.661 . S
Gd756 N793 2.601 . S
Gd756 O800 2.545 . S
Gd756 O801 2.606 . S
Gd756 O803 2.429 . S
Gd756 O804 2.545 . S
Gd756 O805 2.412 . S
Gd756 O807 2.362 . S
Gd756 O808 2.324 . S
Gd756 C815 2.828 . S
Gd757 N766 2.661 . S
Gd757 N770 2.601 . S
Gd757 O801 2.362 . S
Gd757 O802 2.324 . S
Gd757 O806 2.545 . S
Gd757 O807 2.606 . S
Gd757 O809 2.429 . S
Gd757 O810 2.545 . S
Gd757 O811 2.412 . S
Gd757 C824 2.828 . S
C758 C761 1.417 . S
C758 C763 1.431 . S
C758 C764 1.412 . S
C759 C762 1.437 . S
C759 C763 1.317 . S
C759 H778 0.929 . S
C760 C761 1.426 . S
C760 C762 1.413 . S
C760 N770 1.359 . S
C761 C758 1.417 . S
C761 C760 1.426 . S
C761 N766 1.350 . S
C762 C759 1.437 . S
C762 C760 1.413 . S
C762 C772 1.391 . S
C763 C758 1.431 . S
C763 C759 1.317 . S
C763 H774 0.930 . S
C764 C758 1.412 . S
C764 C765 1.355 . S
C764 H776 0.930 . S
C765 C764 1.355 . S
C765 C767 1.402 . S
C765 H777 0.930 . S
N766 Gd757 2.661 . S
N766 C761 1.350 . S
N766 C767 1.307 . S
C767 C765 1.402 . S
C767 N766 1.307 . S
C767 H768 0.930 . S
H768 C767 0.930 . S
C769 N770 1.334 . S
C769 C771 1.394 . S
C769 H773 0.930 . S
N770 Gd757 2.601 . S
N770 C760 1.359 . S
N770 C769 1.334 . S
C771 C769 1.394 . S
C771 C772 1.359 . S
C771 H783 0.930 . S
C772 C762 1.391 . S
C772 C771 1.359 . S
C772 H784 0.929 . S
H773 C769 0.930 . S
H774 C763 0.930 . S
H775 C792 0.930 . S
H776 C764 0.930 . S
H777 C765 0.930 . S
H778 C759 0.929 . S
H779 C797 0.930 . S
H780 C788 0.930 . S
H781 C789 0.930 . S
H782 C813 0.929 . S
H783 C771 0.930 . S
H784 C772 0.929 . S
H785 C814 0.930 . S
H786 C795 0.930 . S
N787 Gd756 2.661 . S
N787 C791 1.350 . S
N787 C792 1.307 . S
C788 H780 0.930 . S
C788 C789 1.355 . S
C788 C790 1.412 . S
C789 H781 0.930 . S
C789 C788 1.355 . S
C789 C792 1.402 . S
C790 C788 1.412 . S
C790 C791 1.417 . S
C790 C814 1.431 . S
C791 N787 1.350 . S
C791 C790 1.417 . S
C791 C794 1.426 . S
C792 H775 0.930 . S
C792 N787 1.307 . S
C792 C789 1.402 . S
N793 Gd756 2.601 . S
N793 C794 1.359 . S
N793 C797 1.334 . S
C794 C791 1.426 . S
C794 N793 1.359 . S
C794 C798 1.413 . S
C795 H786 0.930 . S
C795 C796 1.359 . S
C795 C797 1.394 . S
C796 C795 1.359 . S
C796 C798 1.391 . S
C796 H799 0.929 . S
C797 H779 0.930 . S
C797 N793 1.334 . S
C797 C795 1.394 . S
C798 C794 1.413 . S
C798 C796 1.391 . S
C798 C813 1.437 . S
H799 C796 0.929 . S
O800 Gd756 2.545 . S
O800 C815 1.258 . S
O801 Gd756 2.606 . S
O801 Gd757 2.362 . S
O801 C812 1.284 . S
O802 Gd757 2.324 . S
O802 C822 1.254 . S
O803 Gd756 2.429 . S
O803 C822 1.268 . S
O804 Gd756 2.545 . S
O804 C812 1.250 . S
O805 Gd756 2.412 . S
O805 C815 1.252 . S
O806 Gd757 2.545 . S
O806 C824 1.258 . S
O807 Gd756 2.362 . S
O807 Gd757 2.606 . S
O807 C823 1.284 . S
O808 Gd756 2.324 . S
O808 C831 1.254 . S
O809 Gd757 2.429 . S
O809 C831 1.268 . S
O810 Gd757 2.545 . S
O810 C823 1.250 . S
O811 Gd757 2.412 . S
O811 C824 1.252 . S
C812 O801 1.284 . S
C812 O804 1.250 . S
C813 H782 0.929 . S
C813 C798 1.437 . S
C813 C814 1.317 . S
C814 H785 0.930 . S
C814 C790 1.431 . S
C814 C813 1.317 . S
C815 Gd756 2.828 . S
C815 O800 1.258 . S
C815 O805 1.252 . S
C815 C816 1.497 . S
C816 C815 1.497 . S
C816 C817 1.395 . S
C816 C818 1.380 . S
C817 C816 1.395 . S
C817 C820 1.398 . S
C817 H832 0.930 . S
C818 C816 1.380 . S
C818 C819 1.391 . S
C818 H833 0.930 . S
C819 C818 1.391 . S
C819 C821 1.387 . S
C820 C817 1.398 . S
C820 C821 1.380 . S
C820 H834 0.930 . S
C821 C819 1.387 . S
C821 C820 1.380 . S
C821 H835 0.930 . S
C822 O802 1.254 . S
C822 O803 1.268 . S
C823 O807 1.284 . S
C823 O810 1.250 . S
C824 Gd757 2.828 . S
C824 O806 1.258 . S
C824 O811 1.252 . S
C824 C825 1.497 . S
C825 C824 1.497 . S
C825 C826 1.395 . S
C825 C827 1.380 . S
C826 C825 1.395 . S
C826 C829 1.398 . S
C826 H836 0.930 . S
C827 C825 1.380 . S
C827 C828 1.391 . S
C827 H837 0.930 . S
C828 C827 1.391 . S
C828 C830 1.387 . S
C829 C826 1.398 . S
C829 C830 1.380 . S
C829 H838 0.930 . S
C830 C828 1.387 . S
C830 C829 1.380 . S
C830 H839 0.930 . S
C831 O808 1.254 . S
C831 O809 1.268 . S
H832 C817 0.930 . S
H833 C818 0.930 . S
H834 C820 0.930 . S
H835 C821 0.930 . S
H836 C826 0.930 . S
H837 C827 0.930 . S
H838 C829 0.930 . S
H839 C830 0.930 . S
Gd840 N871 2.661 1_655 S
Gd840 N877 2.601 . S
Gd840 O884 2.545 . S
Gd840 O885 2.606 . S
Gd840 O887 2.429 . S
Gd840 O888 2.545 . S
Gd840 O889 2.412 . S
Gd840 O891 2.362 1_655 S
Gd840 O892 2.324 1_655 S
Gd840 C899 2.828 . S
Gd841 N850 2.661 1_455 S
Gd841 N854 2.601 . S
Gd841 O885 2.362 1_455 S
Gd841 O886 2.324 1_455 S
Gd841 O890 2.545 . S
Gd841 O891 2.606 . S
Gd841 O893 2.429 . S
Gd841 O894 2.545 . S
Gd841 O895 2.412 . S
Gd841 C908 2.828 . S
C842 C845 1.417 . S
C842 C847 1.431 . S
C842 C848 1.412 . S
C843 C846 1.437 . S
C843 C847 1.317 1_455 S
C843 H862 0.929 . S
C844 C845 1.426 1_455 S
C844 C846 1.413 . S
C844 N854 1.359 . S
C845 C842 1.417 . S
C845 C844 1.426 1_655 S
C845 N850 1.350 . S
C846 C843 1.437 . S
C846 C844 1.413 . S
C846 C856 1.391 . S
C847 C842 1.431 . S
C847 C843 1.317 1_655 S
C847 H858 0.930 . S
C848 C842 1.412 . S
C848 C849 1.355 . S
C848 H860 0.930 . S
C849 C848 1.355 . S
C849 C851 1.402 . S
C849 H861 0.930 . S
N850 Gd841 2.661 1_655 S
N850 C845 1.350 . S
N850 C851 1.307 . S
C851 C849 1.402 . S
C851 N850 1.307 . S
C851 H852 0.930 . S
H852 C851 0.930 . S
C853 N854 1.334 . S
C853 C855 1.394 . S
C853 H857 0.930 . S
N854 Gd841 2.601 . S
N854 C844 1.359 . S
N854 C853 1.334 . S
C855 C853 1.394 . S
C855 C856 1.359 . S
C855 H867 0.930 . S
C856 C846 1.391 . S
C856 C855 1.359 . S
C856 H868 0.929 . S
H857 C853 0.930 . S
H858 C847 0.930 . S
H859 C876 0.930 . S
H860 C848 0.930 . S
H861 C849 0.930 . S
H862 C843 0.929 . S
H863 C881 0.930 . S
H864 C872 0.930 . S
H865 C873 0.930 . S
H866 C897 0.929 . S
H867 C855 0.930 . S
H868 C856 0.929 . S
H869 C898 0.930 . S
H870 C879 0.930 . S
N871 Gd840 2.661 1_455 S
N871 C875 1.350 . S
N871 C876 1.307 . S
C872 H864 0.930 . S
C872 C873 1.355 . S
C872 C874 1.412 . S
C873 H865 0.930 . S
C873 C872 1.355 . S
C873 C876 1.402 . S
C874 C872 1.412 . S
C874 C875 1.417 . S
C874 C898 1.431 . S
C875 N871 1.350 . S
C875 C874 1.417 . S
C875 C878 1.426 1_455 S
C876 H859 0.930 . S
C876 N871 1.307 . S
C876 C873 1.402 . S
N877 Gd840 2.601 . S
N877 C878 1.359 . S
N877 C881 1.334 . S
C878 C875 1.426 1_655 S
C878 N877 1.359 . S
C878 C882 1.413 . S
C879 H870 0.930 . S
C879 C880 1.359 . S
C879 C881 1.394 . S
C880 C879 1.359 . S
C880 C882 1.391 . S
C880 H883 0.929 . S
C881 H863 0.930 . S
C881 N877 1.334 . S
C881 C879 1.394 . S
C882 C878 1.413 . S
C882 C880 1.391 . S
C882 C897 1.437 . S
H883 C880 0.929 . S
O884 Gd840 2.545 . S
O884 C899 1.258 . S
O885 Gd840 2.606 . S
O885 Gd841 2.362 1_655 S
O885 C896 1.284 . S
O886 Gd841 2.324 1_655 S
O886 C906 1.254 . S
O887 Gd840 2.429 . S
O887 C906 1.268 . S
O888 Gd840 2.545 . S
O888 C896 1.250 . S
O889 Gd840 2.412 . S
O889 C899 1.252 . S
O890 Gd841 2.545 . S
O890 C908 1.258 . S
O891 Gd840 2.362 1_455 S
O891 Gd841 2.606 . S
O891 C907 1.284 . S
O892 Gd840 2.324 1_455 S
O892 C915 1.254 . S
O893 Gd841 2.429 . S
O893 C915 1.268 . S
O894 Gd841 2.545 . S
O894 C907 1.250 . S
O895 Gd841 2.412 . S
O895 C908 1.252 . S
C896 O885 1.284 . S
C896 O888 1.250 . S
C897 H866 0.929 . S
C897 C882 1.437 . S
C897 C898 1.317 1_655 S
C898 H869 0.930 . S
C898 C874 1.431 . S
C898 C897 1.317 1_455 S
C899 Gd840 2.828 . S
C899 O884 1.258 . S
C899 O889 1.252 . S
C899 C900 1.497 . S
C900 C899 1.497 . S
C900 C901 1.395 . S
C900 C902 1.380 . S
C901 C900 1.395 . S
C901 C904 1.398 . S
C901 H916 0.930 . S
C902 C900 1.380 . S
C902 C903 1.391 . S
C902 H917 0.930 . S
C903 C902 1.391 . S
C903 C905 1.387 . S
C904 C901 1.398 . S
C904 C905 1.380 . S
C904 H918 0.930 . S
C905 C903 1.387 . S
C905 C904 1.380 . S
C905 H919 0.930 . S
C906 O886 1.254 . S
C906 O887 1.268 . S
C907 O891 1.284 . S
C907 O894 1.250 . S
C908 Gd841 2.828 . S
C908 O890 1.258 . S
C908 O895 1.252 . S
C908 C909 1.497 . S
C909 C908 1.497 . S
C909 C910 1.395 . S
C909 C911 1.380 . S
C910 C909 1.395 . S
C910 C913 1.398 . S
C910 H920 0.930 . S
C911 C909 1.380 . S
C911 C912 1.391 . S
C911 H921 0.930 . S
C912 C911 1.391 . S
C912 C914 1.387 . S
C913 C910 1.398 . S
C913 C914 1.380 . S
C913 H922 0.930 . S
C914 C912 1.387 . S
C914 C913 1.380 . S
C914 H923 0.930 . S
C915 O892 1.254 . S
C915 O893 1.268 . S
H916 C901 0.930 . S
H917 C902 0.930 . S
H918 C904 0.930 . S
H919 C905 0.930 . S
H920 C910 0.930 . S
H921 C911 0.930 . S
H922 C913 0.930 . S
H923 C914 0.930 . S
Gd924 N955 2.661 . S
Gd924 N961 2.601 . S
Gd924 O968 2.545 . S
Gd924 O969 2.606 . S
Gd924 O971 2.429 . S
Gd924 O972 2.545 . S
Gd924 O973 2.412 . S
Gd924 O975 2.362 . S
Gd924 O976 2.324 . S
Gd924 C983 2.828 . S
Gd925 N934 2.661 . S
Gd925 N938 2.601 . S
Gd925 O969 2.362 . S
Gd925 O970 2.324 . S
Gd925 O974 2.545 . S
Gd925 O975 2.606 . S
Gd925 O977 2.429 . S
Gd925 O978 2.545 . S
Gd925 O979 2.412 . S
Gd925 C992 2.828 . S
C926 C929 1.417 . S
C926 C931 1.431 . S
C926 C932 1.412 . S
C927 C930 1.437 . S
C927 C931 1.317 . S
C927 H946 0.929 . S
C928 C929 1.426 . S
C928 C930 1.413 . S
C928 N938 1.359 . S
C929 C926 1.417 . S
C929 C928 1.426 . S
C929 N934 1.350 . S
C930 C927 1.437 . S
C930 C928 1.413 . S
C930 C940 1.391 . S
C931 C926 1.431 . S
C931 C927 1.317 . S
C931 H942 0.930 . S
C932 C926 1.412 . S
C932 C933 1.355 . S
C932 H944 0.930 . S
C933 C932 1.355 . S
C933 C935 1.402 . S
C933 H945 0.930 . S
N934 Gd925 2.661 . S
N934 C929 1.350 . S
N934 C935 1.307 . S
C935 C933 1.402 . S
C935 N934 1.307 . S
C935 H936 0.930 . S
H936 C935 0.930 . S
C937 N938 1.334 . S
C937 C939 1.394 . S
C937 H941 0.930 . S
N938 Gd925 2.601 . S
N938 C928 1.359 . S
N938 C937 1.334 . S
C939 C937 1.394 . S
C939 C940 1.359 . S
C939 H951 0.930 . S
C940 C930 1.391 . S
C940 C939 1.359 . S
C940 H952 0.929 . S
H941 C937 0.930 . S
H942 C931 0.930 . S
H943 C960 0.930 . S
H944 C932 0.930 . S
H945 C933 0.930 . S
H946 C927 0.929 . S
H947 C965 0.930 . S
H948 C956 0.930 . S
H949 C957 0.930 . S
H950 C981 0.929 . S
H951 C939 0.930 . S
H952 C940 0.929 . S
H953 C982 0.930 . S
H954 C963 0.930 . S
N955 Gd924 2.661 . S
N955 C959 1.350 . S
N955 C960 1.307 . S
C956 H948 0.930 . S
C956 C957 1.355 . S
C956 C958 1.412 . S
C957 H949 0.930 . S
C957 C956 1.355 . S
C957 C960 1.402 . S
C958 C956 1.412 . S
C958 C959 1.417 . S
C958 C982 1.431 . S
C959 N955 1.350 . S
C959 C958 1.417 . S
C959 C962 1.426 . S
C960 H943 0.930 . S
C960 N955 1.307 . S
C960 C957 1.402 . S
N961 Gd924 2.601 . S
N961 C962 1.359 . S
N961 C965 1.334 . S
C962 C959 1.426 . S
C962 N961 1.359 . S
C962 C966 1.413 . S
C963 H954 0.930 . S
C963 C964 1.359 . S
C963 C965 1.394 . S
C964 C963 1.359 . S
C964 C966 1.391 . S
C964 H967 0.929 . S
C965 H947 0.930 . S
C965 N961 1.334 . S
C965 C963 1.394 . S
C966 C962 1.413 . S
C966 C964 1.391 . S
C966 C981 1.437 . S
H967 C964 0.929 . S
O968 Gd924 2.545 . S
O968 C983 1.258 . S
O969 Gd924 2.606 . S
O969 Gd925 2.362 . S
O969 C980 1.284 . S
O970 Gd925 2.324 . S
O970 C990 1.254 . S
O971 Gd924 2.429 . S
O971 C990 1.268 . S
O972 Gd924 2.545 . S
O972 C980 1.250 . S
O973 Gd924 2.412 . S
O973 C983 1.252 . S
O974 Gd925 2.545 . S
O974 C992 1.258 . S
O975 Gd924 2.362 . S
O975 Gd925 2.606 . S
O975 C991 1.284 . S
O976 Gd924 2.324 . S
O976 C999 1.254 . S
O977 Gd925 2.429 . S
O977 C999 1.268 . S
O978 Gd925 2.545 . S
O978 C991 1.250 . S
O979 Gd925 2.412 . S
O979 C992 1.252 . S
C980 O969 1.284 . S
C980 O972 1.250 . S
C981 H950 0.929 . S
C981 C966 1.437 . S
C981 C982 1.317 . S
C982 H953 0.930 . S
C982 C958 1.431 . S
C982 C981 1.317 . S
C983 Gd924 2.828 . S
C983 O968 1.258 . S
C983 O973 1.252 . S
C983 C984 1.497 . S
C984 C983 1.497 . S
C984 C985 1.395 . S
C984 C986 1.380 . S
C985 C984 1.395 . S
C985 C988 1.398 . S
C985 H1000 0.930 . S
C986 C984 1.380 . S
C986 C987 1.391 . S
C986 H1001 0.930 . S
C987 C986 1.391 . S
C987 C989 1.387 . S
C988 C985 1.398 . S
C988 C989 1.380 . S
C988 H1002 0.930 . S
C989 C987 1.387 . S
C989 C988 1.380 . S
C989 H1003 0.930 . S
C990 O970 1.254 . S
C990 O971 1.268 . S
C991 O975 1.284 . S
C991 O978 1.250 . S
C992 Gd925 2.828 . S
C992 O974 1.258 . S
C992 O979 1.252 . S
C992 C993 1.497 . S
C993 C992 1.497 . S
C993 C994 1.395 . S
C993 C995 1.380 . S
C994 C993 1.395 . S
C994 C997 1.398 . S
C994 H1004 0.930 . S
C995 C993 1.380 . S
C995 C996 1.391 . S
C995 H1005 0.930 . S
C996 C995 1.391 . S
C996 C998 1.387 . S
C997 C994 1.398 . S
C997 C998 1.380 . S
C997 H1006 0.930 . S
C998 C996 1.387 . S
C998 C997 1.380 . S
C998 H1007 0.930 . S
C999 O976 1.254 . S
C999 O977 1.268 . S
H1000 C985 0.930 . S
H1001 C986 0.930 . S
H1002 C988 0.930 . S
H1003 C989 0.930 . S
H1004 C994 0.930 . S
H1005 C995 0.930 . S
H1006 C997 0.930 . S
H1007 C998 0.930 . S
Gd1008 N1039 2.661 . S
Gd1008 N1045 2.601 . S
Gd1008 O1052 2.545 . S
Gd1008 O1053 2.606 . S
Gd1008 O1055 2.429 . S
Gd1008 O1056 2.545 . S
Gd1008 O1057 2.412 . S
Gd1008 O1059 2.362 . S
Gd1008 O1060 2.324 . S
Gd1008 C1067 2.828 . S
Gd1009 N1018 2.661 . S
Gd1009 N1022 2.601 . S
Gd1009 O1053 2.362 . S
Gd1009 O1054 2.324 . S
Gd1009 O1058 2.545 . S
Gd1009 O1059 2.606 . S
Gd1009 O1061 2.429 . S
Gd1009 O1062 2.545 . S
Gd1009 O1063 2.412 . S
Gd1009 C1076 2.828 . S
C1010 C1013 1.417 . S
C1010 C1015 1.431 . S
C1010 C1016 1.412 . S
C1011 C1014 1.437 . S
C1011 C1015 1.317 . S
C1011 H1030 0.929 . S
C1012 C1013 1.426 . S
C1012 C1014 1.413 . S
C1012 N1022 1.359 . S
C1013 C1010 1.417 . S
C1013 C1012 1.426 . S
C1013 N1018 1.350 . S
C1014 C1011 1.437 . S
C1014 C1012 1.413 . S
C1014 C1024 1.391 . S
C1015 C1010 1.431 . S
C1015 C1011 1.317 . S
C1015 H1026 0.930 . S
C1016 C1010 1.412 . S
C1016 C1017 1.355 . S
C1016 H1028 0.930 . S
C1017 C1016 1.355 . S
C1017 C1019 1.402 . S
C1017 H1029 0.930 . S
N1018 Gd1009 2.661 . S
N1018 C1013 1.350 . S
N1018 C1019 1.307 . S
C1019 C1017 1.402 . S
C1019 N1018 1.307 . S
C1019 H1020 0.930 . S
H1020 C1019 0.930 . S
C1021 N1022 1.334 . S
C1021 C1023 1.394 . S
C1021 H1025 0.930 . S
N1022 Gd1009 2.601 . S
N1022 C1012 1.359 . S
N1022 C1021 1.334 . S
C1023 C1021 1.394 . S
C1023 C1024 1.359 . S
C1023 H1035 0.930 . S
C1024 C1014 1.391 . S
C1024 C1023 1.359 . S
C1024 H1036 0.929 . S
H1025 C1021 0.930 . S
H1026 C1015 0.930 . S
H1027 C1044 0.930 . S
H1028 C1016 0.930 . S
H1029 C1017 0.930 . S
H1030 C1011 0.929 . S
H1031 C1049 0.930 . S
H1032 C1040 0.930 . S
H1033 C1041 0.930 . S
H1034 C1065 0.929 . S
H1035 C1023 0.930 . S
H1036 C1024 0.929 . S
H1037 C1066 0.930 . S
H1038 C1047 0.930 . S
N1039 Gd1008 2.661 . S
N1039 C1043 1.350 . S
N1039 C1044 1.307 . S
C1040 H1032 0.930 . S
C1040 C1041 1.355 . S
C1040 C1042 1.412 . S
C1041 H1033 0.930 . S
C1041 C1040 1.355 . S
C1041 C1044 1.402 . S
C1042 C1040 1.412 . S
C1042 C1043 1.417 . S
C1042 C1066 1.431 . S
C1043 N1039 1.350 . S
C1043 C1042 1.417 . S
C1043 C1046 1.426 . S
C1044 H1027 0.930 . S
C1044 N1039 1.307 . S
C1044 C1041 1.402 . S
N1045 Gd1008 2.601 . S
N1045 C1046 1.359 . S
N1045 C1049 1.334 . S
C1046 C1043 1.426 . S
C1046 N1045 1.359 . S
C1046 C1050 1.413 . S
C1047 H1038 0.930 . S
C1047 C1048 1.359 . S
C1047 C1049 1.394 . S
C1048 C1047 1.359 . S
C1048 C1050 1.391 . S
C1048 H1051 0.929 . S
C1049 H1031 0.930 . S
C1049 N1045 1.334 . S
C1049 C1047 1.394 . S
C1050 C1046 1.413 . S
C1050 C1048 1.391 . S
C1050 C1065 1.437 . S
H1051 C1048 0.929 . S
O1052 Gd1008 2.545 . S
O1052 C1067 1.258 . S
O1053 Gd1008 2.606 . S
O1053 Gd1009 2.362 . S
O1053 C1064 1.284 . S
O1054 Gd1009 2.324 . S
O1054 C1074 1.254 . S
O1055 Gd1008 2.429 . S
O1055 C1074 1.268 . S
O1056 Gd1008 2.545 . S
O1056 C1064 1.250 . S
O1057 Gd1008 2.412 . S
O1057 C1067 1.252 . S
O1058 Gd1009 2.545 . S
O1058 C1076 1.258 . S
O1059 Gd1008 2.362 . S
O1059 Gd1009 2.606 . S
O1059 C1075 1.284 . S
O1060 Gd1008 2.324 . S
O1060 C1083 1.254 . S
O1061 Gd1009 2.429 . S
O1061 C1083 1.268 . S
O1062 Gd1009 2.545 . S
O1062 C1075 1.250 . S
O1063 Gd1009 2.412 . S
O1063 C1076 1.252 . S
C1064 O1053 1.284 . S
C1064 O1056 1.250 . S
C1065 H1034 0.929 . S
C1065 C1050 1.437 . S
C1065 C1066 1.317 . S
C1066 H1037 0.930 . S
C1066 C1042 1.431 . S
C1066 C1065 1.317 . S
C1067 Gd1008 2.828 . S
C1067 O1052 1.258 . S
C1067 O1057 1.252 . S
C1067 C1068 1.497 . S
C1068 C1067 1.497 . S
C1068 C1069 1.395 . S
C1068 C1070 1.380 . S
C1069 C1068 1.395 . S
C1069 C1072 1.398 . S
C1069 H1084 0.930 . S
C1070 C1068 1.380 . S
C1070 C1071 1.391 . S
C1070 H1085 0.930 . S
C1071 C1070 1.391 . S
C1071 C1073 1.387 . S
C1072 C1069 1.398 . S
C1072 C1073 1.380 . S
C1072 H1086 0.930 . S
C1073 C1071 1.387 . S
C1073 C1072 1.380 . S
C1073 H1087 0.930 . S
C1074 O1054 1.254 . S
C1074 O1055 1.268 . S
C1075 O1059 1.284 . S
C1075 O1062 1.250 . S
C1076 Gd1009 2.828 . S
C1076 O1058 1.258 . S
C1076 O1063 1.252 . S
C1076 C1077 1.497 . S
C1077 C1076 1.497 . S
C1077 C1078 1.395 . S
C1077 C1079 1.380 . S
C1078 C1077 1.395 . S
C1078 C1081 1.398 . S
C1078 H1088 0.930 . S
C1079 C1077 1.380 . S
C1079 C1080 1.391 . S
C1079 H1089 0.930 . S
C1080 C1079 1.391 . S
C1080 C1082 1.387 . S
C1081 C1078 1.398 . S
C1081 C1082 1.380 . S
C1081 H1090 0.930 . S
C1082 C1080 1.387 . S
C1082 C1081 1.380 . S
C1082 H1091 0.930 . S
C1083 O1060 1.254 . S
C1083 O1061 1.268 . S
H1084 C1069 0.930 . S
H1085 C1070 0.930 . S
H1086 C1072 0.930 . S
H1087 C1073 0.930 . S
H1088 C1078 0.930 . S
H1089 C1079 0.930 . S
H1090 C1081 0.930 . S
H1091 C1082 0.930 . S
Gd1092 N1123 2.661 . S
Gd1092 N1129 2.601 . S
Gd1092 O1136 2.545 . S
Gd1092 O1137 2.606 . S
Gd1092 O1139 2.429 . S
Gd1092 O1140 2.545 . S
Gd1092 O1141 2.412 . S
Gd1092 O1143 2.362 . S
Gd1092 O1144 2.324 . S
Gd1092 C1151 2.828 . S
Gd1093 N1102 2.661 . S
Gd1093 N1106 2.601 . S
Gd1093 O1137 2.362 . S
Gd1093 O1138 2.324 . S
Gd1093 O1142 2.545 . S
Gd1093 O1143 2.606 . S
Gd1093 O1145 2.429 . S
Gd1093 O1146 2.545 . S
Gd1093 O1147 2.412 . S
Gd1093 C1160 2.828 . S
C1094 C1097 1.417 . S
C1094 C1099 1.431 . S
C1094 C1100 1.412 . S
C1095 C1098 1.437 . S
C1095 C1099 1.317 . S
C1095 H1114 0.929 . S
C1096 C1097 1.426 . S
C1096 C1098 1.413 . S
C1096 N1106 1.359 . S
C1097 C1094 1.417 . S
C1097 C1096 1.426 . S
C1097 N1102 1.350 . S
C1098 C1095 1.437 . S
C1098 C1096 1.413 . S
C1098 C1108 1.391 . S
C1099 C1094 1.431 . S
C1099 C1095 1.317 . S
C1099 H1110 0.930 . S
C1100 C1094 1.412 . S
C1100 C1101 1.355 . S
C1100 H1112 0.930 . S
C1101 C1100 1.355 . S
C1101 C1103 1.402 . S
C1101 H1113 0.930 . S
N1102 Gd1093 2.661 . S
N1102 C1097 1.350 . S
N1102 C1103 1.307 . S
C1103 C1101 1.402 . S
C1103 N1102 1.307 . S
C1103 H1104 0.930 . S
H1104 C1103 0.930 . S
C1105 N1106 1.334 . S
C1105 C1107 1.394 . S
C1105 H1109 0.930 . S
N1106 Gd1093 2.601 . S
N1106 C1096 1.359 . S
N1106 C1105 1.334 . S
C1107 C1105 1.394 . S
C1107 C1108 1.359 . S
C1107 H1119 0.930 . S
C1108 C1098 1.391 . S
C1108 C1107 1.359 . S
C1108 H1120 0.929 . S
H1109 C1105 0.930 . S
H1110 C1099 0.930 . S
H1111 C1128 0.930 . S
H1112 C1100 0.930 . S
H1113 C1101 0.930 . S
H1114 C1095 0.929 . S
H1115 C1133 0.930 . S
H1116 C1124 0.930 . S
H1117 C1125 0.930 . S
H1118 C1149 0.929 . S
H1119 C1107 0.930 . S
H1120 C1108 0.929 . S
H1121 C1150 0.930 . S
H1122 C1131 0.930 . S
N1123 Gd1092 2.661 . S
N1123 C1127 1.350 . S
N1123 C1128 1.307 . S
C1124 H1116 0.930 . S
C1124 C1125 1.355 . S
C1124 C1126 1.412 . S
C1125 H1117 0.930 . S
C1125 C1124 1.355 . S
C1125 C1128 1.402 . S
C1126 C1124 1.412 . S
C1126 C1127 1.417 . S
C1126 C1150 1.431 . S
C1127 N1123 1.350 . S
C1127 C1126 1.417 . S
C1127 C1130 1.426 . S
C1128 H1111 0.930 . S
C1128 N1123 1.307 . S
C1128 C1125 1.402 . S
N1129 Gd1092 2.601 . S
N1129 C1130 1.359 . S
N1129 C1133 1.334 . S
C1130 C1127 1.426 . S
C1130 N1129 1.359 . S
C1130 C1134 1.413 . S
C1131 H1122 0.930 . S
C1131 C1132 1.359 . S
C1131 C1133 1.394 . S
C1132 C1131 1.359 . S
C1132 C1134 1.391 . S
C1132 H1135 0.929 . S
C1133 H1115 0.930 . S
C1133 N1129 1.334 . S
C1133 C1131 1.394 . S
C1134 C1130 1.413 . S
C1134 C1132 1.391 . S
C1134 C1149 1.437 . S
H1135 C1132 0.929 . S
O1136 Gd1092 2.545 . S
O1136 C1151 1.258 . S
O1137 Gd1092 2.606 . S
O1137 Gd1093 2.362 . S
O1137 C1148 1.284 . S
O1138 Gd1093 2.324 . S
O1138 C1158 1.254 . S
O1139 Gd1092 2.429 . S
O1139 C1158 1.268 . S
O1140 Gd1092 2.545 . S
O1140 C1148 1.250 . S
O1141 Gd1092 2.412 . S
O1141 C1151 1.252 . S
O1142 Gd1093 2.545 . S
O1142 C1160 1.258 . S
O1143 Gd1092 2.362 . S
O1143 Gd1093 2.606 . S
O1143 C1159 1.284 . S
O1144 Gd1092 2.324 . S
O1144 C1167 1.254 . S
O1145 Gd1093 2.429 . S
O1145 C1167 1.268 . S
O1146 Gd1093 2.545 . S
O1146 C1159 1.250 . S
O1147 Gd1093 2.412 . S
O1147 C1160 1.252 . S
C1148 O1137 1.284 . S
C1148 O1140 1.250 . S
C1149 H1118 0.929 . S
C1149 C1134 1.437 . S
C1149 C1150 1.317 . S
C1150 H1121 0.930 . S
C1150 C1126 1.431 . S
C1150 C1149 1.317 . S
C1151 Gd1092 2.828 . S
C1151 O1136 1.258 . S
C1151 O1141 1.252 . S
C1151 C1152 1.497 . S
C1152 C1151 1.497 . S
C1152 C1153 1.395 . S
C1152 C1154 1.380 . S
C1153 C1152 1.395 . S
C1153 C1156 1.398 . S
C1153 H1168 0.930 . S
C1154 C1152 1.380 . S
C1154 C1155 1.391 . S
C1154 H1169 0.930 . S
C1155 C1154 1.391 . S
C1155 C1157 1.387 . S
C1156 C1153 1.398 . S
C1156 C1157 1.380 . S
C1156 H1170 0.930 . S
C1157 C1155 1.387 . S
C1157 C1156 1.380 . S
C1157 H1171 0.930 . S
C1158 O1138 1.254 . S
C1158 O1139 1.268 . S
C1159 O1143 1.284 . S
C1159 O1146 1.250 . S
C1160 Gd1093 2.828 . S
C1160 O1142 1.258 . S
C1160 O1147 1.252 . S
C1160 C1161 1.497 . S
C1161 C1160 1.497 . S
C1161 C1162 1.395 . S
C1161 C1163 1.380 . S
C1162 C1161 1.395 . S
C1162 C1165 1.398 . S
C1162 H1172 0.930 . S
C1163 C1161 1.380 . S
C1163 C1164 1.391 . S
C1163 H1173 0.930 . S
C1164 C1163 1.391 . S
C1164 C1166 1.387 . S
C1165 C1162 1.398 . S
C1165 C1166 1.380 . S
C1165 H1174 0.930 . S
C1166 C1164 1.387 . S
C1166 C1165 1.380 . S
C1166 H1175 0.930 . S
C1167 O1144 1.254 . S
C1167 O1145 1.268 . S
H1168 C1153 0.930 . S
H1169 C1154 0.930 . S
H1170 C1156 0.930 . S
H1171 C1157 0.930 . S
H1172 C1162 0.930 . S
H1173 C1163 0.930 . S
H1174 C1165 0.930 . S
H1175 C1166 0.930 . S
Gd1176 N1207 2.661 . S
Gd1176 N1213 2.601 . S
Gd1176 O1220 2.545 . S
Gd1176 O1221 2.606 . S
Gd1176 O1223 2.429 . S
Gd1176 O1224 2.545 . S
Gd1176 O1225 2.412 . S
Gd1176 O1227 2.362 . S
Gd1176 O1228 2.324 . S
Gd1176 C1235 2.828 . S
Gd1177 N1186 2.661 . S
Gd1177 N1190 2.601 . S
Gd1177 O1221 2.362 . S
Gd1177 O1222 2.324 . S
Gd1177 O1226 2.545 . S
Gd1177 O1227 2.606 . S
Gd1177 O1229 2.429 . S
Gd1177 O1230 2.545 . S
Gd1177 O1231 2.412 . S
Gd1177 C1244 2.828 . S
C1178 C1181 1.417 . S
C1178 C1183 1.431 . S
C1178 C1184 1.412 . S
C1179 C1182 1.437 . S
C1179 C1183 1.317 . S
C1179 H1198 0.929 . S
C1180 C1181 1.426 . S
C1180 C1182 1.413 . S
C1180 N1190 1.359 . S
C1181 C1178 1.417 . S
C1181 C1180 1.426 . S
C1181 N1186 1.350 . S
C1182 C1179 1.437 . S
C1182 C1180 1.413 . S
C1182 C1192 1.391 . S
C1183 C1178 1.431 . S
C1183 C1179 1.317 . S
C1183 H1194 0.930 . S
C1184 C1178 1.412 . S
C1184 C1185 1.355 . S
C1184 H1196 0.930 . S
C1185 C1184 1.355 . S
C1185 C1187 1.402 . S
C1185 H1197 0.930 . S
N1186 Gd1177 2.661 . S
N1186 C1181 1.350 . S
N1186 C1187 1.307 . S
C1187 C1185 1.402 . S
C1187 N1186 1.307 . S
C1187 H1188 0.930 . S
H1188 C1187 0.930 . S
C1189 N1190 1.334 . S
C1189 C1191 1.394 . S
C1189 H1193 0.930 . S
N1190 Gd1177 2.601 . S
N1190 C1180 1.359 . S
N1190 C1189 1.334 . S
C1191 C1189 1.394 . S
C1191 C1192 1.359 . S
C1191 H1203 0.930 . S
C1192 C1182 1.391 . S
C1192 C1191 1.359 . S
C1192 H1204 0.929 . S
H1193 C1189 0.930 . S
H1194 C1183 0.930 . S
H1195 C1212 0.930 . S
H1196 C1184 0.930 . S
H1197 C1185 0.930 . S
H1198 C1179 0.929 . S
H1199 C1217 0.930 . S
H1200 C1208 0.930 . S
H1201 C1209 0.930 . S
H1202 C1233 0.929 . S
H1203 C1191 0.930 . S
H1204 C1192 0.929 . S
H1205 C1234 0.930 . S
H1206 C1215 0.930 . S
N1207 Gd1176 2.661 . S
N1207 C1211 1.350 . S
N1207 C1212 1.307 . S
C1208 H1200 0.930 . S
C1208 C1209 1.355 . S
C1208 C1210 1.412 . S
C1209 H1201 0.930 . S
C1209 C1208 1.355 . S
C1209 C1212 1.402 . S
C1210 C1208 1.412 . S
C1210 C1211 1.417 . S
C1210 C1234 1.431 . S
C1211 N1207 1.350 . S
C1211 C1210 1.417 . S
C1211 C1214 1.426 . S
C1212 H1195 0.930 . S
C1212 N1207 1.307 . S
C1212 C1209 1.402 . S
N1213 Gd1176 2.601 . S
N1213 C1214 1.359 . S
N1213 C1217 1.334 . S
C1214 C1211 1.426 . S
C1214 N1213 1.359 . S
C1214 C1218 1.413 . S
C1215 H1206 0.930 . S
C1215 C1216 1.359 . S
C1215 C1217 1.394 . S
C1216 C1215 1.359 . S
C1216 C1218 1.391 . S
C1216 H1219 0.929 . S
C1217 H1199 0.930 . S
C1217 N1213 1.334 . S
C1217 C1215 1.394 . S
C1218 C1214 1.413 . S
C1218 C1216 1.391 . S
C1218 C1233 1.437 . S
H1219 C1216 0.929 . S
O1220 Gd1176 2.545 . S
O1220 C1235 1.258 . S
O1221 Gd1176 2.606 . S
O1221 Gd1177 2.362 . S
O1221 C1232 1.284 . S
O1222 Gd1177 2.324 . S
O1222 C1242 1.254 . S
O1223 Gd1176 2.429 . S
O1223 C1242 1.268 . S
O1224 Gd1176 2.545 . S
O1224 C1232 1.250 . S
O1225 Gd1176 2.412 . S
O1225 C1235 1.252 . S
O1226 Gd1177 2.545 . S
O1226 C1244 1.258 . S
O1227 Gd1176 2.362 . S
O1227 Gd1177 2.606 . S
O1227 C1243 1.284 . S
O1228 Gd1176 2.324 . S
O1228 C1251 1.254 . S
O1229 Gd1177 2.429 . S
O1229 C1251 1.268 . S
O1230 Gd1177 2.545 . S
O1230 C1243 1.250 . S
O1231 Gd1177 2.412 . S
O1231 C1244 1.252 . S
C1232 O1221 1.284 . S
C1232 O1224 1.250 . S
C1233 H1202 0.929 . S
C1233 C1218 1.437 . S
C1233 C1234 1.317 . S
C1234 H1205 0.930 . S
C1234 C1210 1.431 . S
C1234 C1233 1.317 . S
C1235 Gd1176 2.828 . S
C1235 O1220 1.258 . S
C1235 O1225 1.252 . S
C1235 C1236 1.497 . S
C1236 C1235 1.497 . S
C1236 C1237 1.395 . S
C1236 C1238 1.380 . S
C1237 C1236 1.395 . S
C1237 C1240 1.398 . S
C1237 H1252 0.930 . S
C1238 C1236 1.380 . S
C1238 C1239 1.391 . S
C1238 H1253 0.930 . S
C1239 C1238 1.391 . S
C1239 C1241 1.387 . S
C1240 C1237 1.398 . S
C1240 C1241 1.380 . S
C1240 H1254 0.930 . S
C1241 C1239 1.387 . S
C1241 C1240 1.380 . S
C1241 H1255 0.930 . S
C1242 O1222 1.254 . S
C1242 O1223 1.268 . S
C1243 O1227 1.284 . S
C1243 O1230 1.250 . S
C1244 Gd1177 2.828 . S
C1244 O1226 1.258 . S
C1244 O1231 1.252 . S
C1244 C1245 1.497 . S
C1245 C1244 1.497 . S
C1245 C1246 1.395 . S
C1245 C1247 1.380 . S
C1246 C1245 1.395 . S
C1246 C1249 1.398 . S
C1246 H1256 0.930 . S
C1247 C1245 1.380 . S
C1247 C1248 1.391 . S
C1247 H1257 0.930 . S
C1248 C1247 1.391 . S
C1248 C1250 1.387 . S
C1249 C1246 1.398 . S
C1249 C1250 1.380 . S
C1249 H1258 0.930 . S
C1250 C1248 1.387 . S
C1250 C1249 1.380 . S
C1250 H1259 0.930 . S
C1251 O1228 1.254 . S
C1251 O1229 1.268 . S
H1252 C1237 0.930 . S
H1253 C1238 0.930 . S
H1254 C1240 0.930 . S
H1255 C1241 0.930 . S
H1256 C1246 0.930 . S
H1257 C1247 0.930 . S
H1258 C1249 0.930 . S
H1259 C1250 0.930 . S
Gd1260 N1291 2.661 . S
Gd1260 N1297 2.601 . S
Gd1260 O1304 2.545 . S
Gd1260 O1305 2.606 1_556 S
Gd1260 O1307 2.429 1_556 S
Gd1260 O1308 2.545 1_556 S
Gd1260 O1309 2.412 . S
Gd1260 O1311 2.362 1_455 S
Gd1260 O1312 2.324 1_455 S
Gd1260 C1319 2.828 . S
Gd1261 N1270 2.661 . S
Gd1261 N1274 2.601 . S
Gd1261 O1305 2.362 1_655 S
Gd1261 O1306 2.324 1_655 S
Gd1261 O1310 2.545 . S
Gd1261 O1311 2.606 1_554 S
Gd1261 O1313 2.429 1_554 S
Gd1261 O1314 2.545 1_554 S
Gd1261 O1315 2.412 . S
Gd1261 C1328 2.828 . S
C1262 C1265 1.417 . S
C1262 C1267 1.431 . S
C1262 C1268 1.412 . S
C1263 C1266 1.437 . S
C1263 C1267 1.317 . S
C1263 H1282 0.929 . S
C1264 C1265 1.426 . S
C1264 C1266 1.413 . S
C1264 N1274 1.359 . S
C1265 C1262 1.417 . S
C1265 C1264 1.426 . S
C1265 N1270 1.350 . S
C1266 C1263 1.437 . S
C1266 C1264 1.413 . S
C1266 C1276 1.391 . S
C1267 C1262 1.431 . S
C1267 C1263 1.317 . S
C1267 H1278 0.930 . S
C1268 C1262 1.412 . S
C1268 C1269 1.355 1_655 S
C1268 H1280 0.930 1_655 S
C1269 C1268 1.355 1_455 S
C1269 C1271 1.402 . S
C1269 H1281 0.930 . S
N1270 Gd1261 2.661 . S
N1270 C1265 1.350 . S
N1270 C1271 1.307 1_655 S
C1271 C1269 1.402 . S
C1271 N1270 1.307 1_455 S
C1271 H1272 0.930 . S
H1272 C1271 0.930 . S
C1273 N1274 1.334 . S
C1273 C1275 1.394 . S
C1273 H1277 0.930 . S
N1274 Gd1261 2.601 . S
N1274 C1264 1.359 . S
N1274 C1273 1.334 . S
C1275 C1273 1.394 . S
C1275 C1276 1.359 . S
C1275 H1287 0.930 . S
C1276 C1266 1.391 . S
C1276 C1275 1.359 . S
C1276 H1288 0.929 . S
H1277 C1273 0.930 . S
H1278 C1267 0.930 . S
H1279 C1296 0.930 . S
H1280 C1268 0.930 1_455 S
H1281 C1269 0.930 . S
H1282 C1263 0.929 . S
H1283 C1301 0.930 . S
H1284 C1292 0.930 1_655 S
H1285 C1293 0.930 . S
H1286 C1317 0.929 . S
H1287 C1275 0.930 . S
H1288 C1276 0.929 . S
H1289 C1318 0.930 . S
H1290 C1299 0.930 . S
N1291 Gd1260 2.661 . S
N1291 C1295 1.350 . S
N1291 C1296 1.307 1_455 S
C1292 H1284 0.930 1_455 S
C1292 C1293 1.355 1_455 S
C1292 C1294 1.412 . S
C1293 H1285 0.930 . S
C1293 C1292 1.355 1_655 S
C1293 C1296 1.402 . S
C1294 C1292 1.412 . S
C1294 C1295 1.417 . S
C1294 C1318 1.431 . S
C1295 N1291 1.350 . S
C1295 C1294 1.417 . S
C1295 C1298 1.426 . S
C1296 H1279 0.930 . S
C1296 N1291 1.307 1_655 S
C1296 C1293 1.402 . S
N1297 Gd1260 2.601 . S
N1297 C1298 1.359 . S
N1297 C1301 1.334 . S
C1298 C1295 1.426 . S
C1298 N1297 1.359 . S
C1298 C1302 1.413 . S
C1299 H1290 0.930 . S
C1299 C1300 1.359 . S
C1299 C1301 1.394 . S
C1300 C1299 1.359 . S
C1300 C1302 1.391 . S
C1300 H1303 0.929 . S
C1301 H1283 0.930 . S
C1301 N1297 1.334 . S
C1301 C1299 1.394 . S
C1302 C1298 1.413 . S
C1302 C1300 1.391 . S
C1302 C1317 1.437 . S
H1303 C1300 0.929 . S
O1304 Gd1260 2.545 . S
O1304 C1319 1.258 . S
O1305 Gd1260 2.606 1_554 S
O1305 Gd1261 2.362 1_455 S
O1305 C1316 1.284 . S
O1306 Gd1261 2.324 1_455 S
O1306 C1326 1.254 . S
O1307 Gd1260 2.429 1_554 S
O1307 C1326 1.268 . S
O1308 Gd1260 2.545 1_554 S
O1308 C1316 1.250 . S
O1309 Gd1260 2.412 . S
O1309 C1319 1.252 . S
O1310 Gd1261 2.545 . S
O1310 C1328 1.258 . S
O1311 Gd1260 2.362 1_655 S
O1311 Gd1261 2.606 1_556 S
O1311 C1327 1.284 . S
O1312 Gd1260 2.324 1_655 S
O1312 C1335 1.254 . S
O1313 Gd1261 2.429 1_556 S
O1313 C1335 1.268 . S
O1314 Gd1261 2.545 1_556 S
O1314 C1327 1.250 . S
O1315 Gd1261 2.412 . S
O1315 C1328 1.252 . S
C1316 O1305 1.284 . S
C1316 O1308 1.250 . S
C1317 H1286 0.929 . S
C1317 C1302 1.437 . S
C1317 C1318 1.317 . S
C1318 H1289 0.930 . S
C1318 C1294 1.431 . S
C1318 C1317 1.317 . S
C1319 Gd1260 2.828 . S
C1319 O1304 1.258 . S
C1319 O1309 1.252 . S
C1319 C1320 1.497 . S
C1320 C1319 1.497 . S
C1320 C1321 1.395 . S
C1320 C1322 1.380 . S
C1321 C1320 1.395 . S
C1321 C1324 1.398 . S
C1321 H1336 0.930 . S
C1322 C1320 1.380 . S
C1322 C1323 1.391 . S
C1322 H1337 0.930 . S
C1323 C1322 1.391 . S
C1323 C1325 1.387 . S
C1324 C1321 1.398 . S
C1324 C1325 1.380 . S
C1324 H1338 0.930 . S
C1325 C1323 1.387 . S
C1325 C1324 1.380 . S
C1325 H1339 0.930 . S
C1326 O1306 1.254 . S
C1326 O1307 1.268 . S
C1327 O1311 1.284 . S
C1327 O1314 1.250 . S
C1328 Gd1261 2.828 . S
C1328 O1310 1.258 . S
C1328 O1315 1.252 . S
C1328 C1329 1.497 . S
C1329 C1328 1.497 . S
C1329 C1330 1.395 . S
C1329 C1331 1.380 . S
C1330 C1329 1.395 . S
C1330 C1333 1.398 . S
C1330 H1340 0.930 . S
C1331 C1329 1.380 . S
C1331 C1332 1.391 . S
C1331 H1341 0.930 . S
C1332 C1331 1.391 . S
C1332 C1334 1.387 . S
C1333 C1330 1.398 . S
C1333 C1334 1.380 . S
C1333 H1342 0.930 . S
C1334 C1332 1.387 . S
C1334 C1333 1.380 . S
C1334 H1343 0.930 . S
C1335 O1312 1.254 . S
C1335 O1313 1.268 . S
H1336 C1321 0.930 . S
H1337 C1322 0.930 . S
H1338 C1324 0.930 . S
H1339 C1325 0.930 . S
H1340 C1330 0.930 . S
H1341 C1331 0.930 . S
H1342 C1333 0.930 . S
H1343 C1334 0.930 . S
C1344 C1345 1.391 . S
C1344 C1346 1.394 . S
C1344 H1360 0.931 . S
C1345 C1344 1.391 . S
C1345 C1349 1.376 . S
C1346 C1344 1.394 . S
C1346 C1347 1.369 . S
C1346 C1350 1.531 . S
C1347 C1346 1.369 . S
C1347 C1348 1.410 . S
C1347 C1355 1.503 . S
C1348 C1347 1.410 . S
C1348 C1349 1.392 . S
C1348 C1351 1.511 . S
C1349 C1345 1.376 . S
C1349 C1348 1.392 . S
C1349 H1361 0.929 . S
C1350 C1346 1.531 . S
C1350 H1362 0.960 . S
C1350 H1363 0.962 . S
C1350 H1364 0.960 . S
C1351 C1348 1.511 . S
C1351 H1365 0.961 . S
C1351 H1366 0.961 . S
C1351 H1367 0.961 . S
C1352 C1353 1.370 . S
C1352 C1354 1.363 . S
C1352 H1368 0.931 . S
C1353 C1352 1.370 . S
C1353 C1357 1.408 . S
C1354 C1352 1.363 . S
C1354 C1355 1.370 . S
C1354 C1358 1.524 . S
C1355 C1347 1.503 . S
C1355 C1354 1.370 . S
C1355 C1356 1.403 . S
C1356 C1355 1.403 . S
C1356 C1357 1.404 . S
C1356 C1359 1.539 . S
C1357 C1353 1.408 . S
C1357 C1356 1.404 . S
C1357 H1369 0.930 . S
C1358 C1354 1.524 . S
C1358 H1370 0.956 . S
C1358 H1371 0.961 . S
C1358 H1372 0.961 . S
C1359 C1356 1.539 . S
C1359 H1373 0.958 . S
C1359 H1374 0.961 . S
C1359 H1375 0.960 . S
H1360 C1344 0.931 . S
H1361 C1349 0.929 . S
H1362 C1350 0.960 . S
H1363 C1350 0.962 . S
H1364 C1350 0.960 . S
H1365 C1351 0.961 . S
H1366 C1351 0.961 . S
H1367 C1351 0.961 . S
H1368 C1352 0.931 . S
H1369 C1357 0.930 . S
H1370 C1358 0.956 . S
H1371 C1358 0.961 . S
H1372 C1358 0.961 . S
H1373 C1359 0.958 . S
H1374 C1359 0.961 . S
H1375 C1359 0.960 . S
C1376 C1377 1.391 1_545 S
C1376 C1378 1.394 1_545 S
C1376 H1392 0.931 . S
C1377 C1376 1.391 1_565 S
C1377 C1381 1.376 . S
C1378 C1376 1.394 1_565 S
C1378 C1379 1.369 . S
C1378 C1382 1.531 1_565 S
C1379 C1378 1.369 . S
C1379 C1380 1.410 . S
C1379 C1387 1.503 . S
C1380 C1379 1.410 . S
C1380 C1381 1.392 . S
C1380 C1383 1.511 . S
C1381 C1377 1.376 . S
C1381 C1380 1.392 . S
C1381 H1393 0.929 . S
C1382 C1378 1.531 1_545 S
C1382 H1394 0.960 1_545 S
C1382 H1395 0.962 . S
C1382 H1396 0.960 . S
C1383 C1380 1.511 . S
C1383 H1397 0.961 . S
C1383 H1398 0.961 . S
C1383 H1399 0.961 . S
C1384 C1385 1.370 . S
C1384 C1386 1.363 . S
C1384 H1400 0.931 . S
C1385 C1384 1.370 . S
C1385 C1389 1.408 . S
C1386 C1384 1.363 . S
C1386 C1387 1.370 . S
C1386 C1390 1.524 . S
C1387 C1379 1.503 . S
C1387 C1386 1.370 . S
C1387 C1388 1.403 . S
C1388 C1387 1.403 . S
C1388 C1389 1.404 . S
C1388 C1391 1.539 . S
C1389 C1385 1.408 . S
C1389 C1388 1.404 . S
C1389 H1401 0.930 . S
C1390 C1386 1.524 . S
C1390 H1402 0.956 . S
C1390 H1403 0.961 . S
C1390 H1404 0.961 . S
C1391 C1388 1.539 . S
C1391 H1405 0.958 . S
C1391 H1406 0.961 . S
C1391 H1407 0.960 . S
H1392 C1376 0.931 . S
H1393 C1381 0.929 . S
H1394 C1382 0.960 1_565 S
H1395 C1382 0.962 . S
H1396 C1382 0.960 . S
H1397 C1383 0.961 . S
H1398 C1383 0.961 . S
H1399 C1383 0.961 . S
H1400 C1384 0.931 . S
H1401 C1389 0.930 . S
H1402 C1390 0.956 . S
H1403 C1390 0.961 . S
H1404 C1390 0.961 . S
H1405 C1391 0.958 . S
H1406 C1391 0.961 . S
H1407 C1391 0.960 . S
C1408 C1409 1.391 . S
C1408 C1410 1.394 . S
C1408 H1424 0.931 . S
C1409 C1408 1.391 . S
C1409 C1413 1.376 . S
C1410 C1408 1.394 . S
C1410 C1411 1.369 . S
C1410 C1414 1.531 . S
C1411 C1410 1.369 . S
C1411 C1412 1.410 . S
C1411 C1419 1.503 . S
C1412 C1411 1.410 . S
C1412 C1413 1.392 . S
C1412 C1415 1.511 . S
C1413 C1409 1.376 . S
C1413 C1412 1.392 . S
C1413 H1425 0.929 . S
C1414 C1410 1.531 . S
C1414 H1426 0.960 . S
C1414 H1427 0.962 . S
C1414 H1428 0.960 . S
C1415 C1412 1.511 . S
C1415 H1429 0.961 . S
C1415 H1430 0.961 . S
C1415 H1431 0.961 . S
C1416 C1417 1.370 . S
C1416 C1418 1.363 . S
C1416 H1432 0.931 . S
C1417 C1416 1.370 . S
C1417 C1421 1.408 . S
C1418 C1416 1.363 . S
C1418 C1419 1.370 . S
C1418 C1422 1.524 . S
C1419 C1411 1.503 . S
C1419 C1418 1.370 . S
C1419 C1420 1.403 . S
C1420 C1419 1.403 . S
C1420 C1421 1.404 . S
C1420 C1423 1.539 . S
C1421 C1417 1.408 . S
C1421 C1420 1.404 . S
C1421 H1433 0.930 . S
C1422 C1418 1.524 . S
C1422 H1434 0.956 . S
C1422 H1435 0.961 . S
C1422 H1436 0.961 . S
C1423 C1420 1.539 . S
C1423 H1437 0.958 . S
C1423 H1438 0.961 . S
C1423 H1439 0.960 . S
H1424 C1408 0.931 . S
H1425 C1413 0.929 . S
H1426 C1414 0.960 . S
H1427 C1414 0.962 . S
H1428 C1414 0.960 . S
H1429 C1415 0.961 . S
H1430 C1415 0.961 . S
H1431 C1415 0.961 . S
H1432 C1416 0.931 . S
H1433 C1421 0.930 . S
H1434 C1422 0.956 . S
H1435 C1422 0.961 . S
H1436 C1422 0.961 . S
H1437 C1423 0.958 . S
H1438 C1423 0.961 . S
H1439 C1423 0.960 . S
C1440 C1441 1.391 . S
C1440 C1442 1.394 . S
C1440 H1456 0.931 . S
C1441 C1440 1.391 . S
C1441 C1445 1.376 . S
C1442 C1440 1.394 . S
C1442 C1443 1.369 . S
C1442 C1446 1.531 . S
C1443 C1442 1.369 . S
C1443 C1444 1.410 . S
C1443 C1451 1.503 . S
C1444 C1443 1.410 . S
C1444 C1445 1.392 . S
C1444 C1447 1.511 . S
C1445 C1441 1.376 . S
C1445 C1444 1.392 . S
C1445 H1457 0.929 . S
C1446 C1442 1.531 . S
C1446 H1458 0.960 . S
C1446 H1459 0.962 . S
C1446 H1460 0.960 . S
C1447 C1444 1.511 . S
C1447 H1461 0.961 . S
C1447 H1462 0.961 . S
C1447 H1463 0.961 . S
C1448 C1449 1.370 . S
C1448 C1450 1.363 . S
C1448 H1464 0.931 . S
C1449 C1448 1.370 . S
C1449 C1453 1.408 . S
C1450 C1448 1.363 . S
C1450 C1451 1.370 . S
C1450 C1454 1.524 . S
C1451 C1443 1.503 . S
C1451 C1450 1.370 . S
C1451 C1452 1.403 . S
C1452 C1451 1.403 . S
C1452 C1453 1.404 . S
C1452 C1455 1.539 1_545 S
C1453 C1449 1.408 . S
C1453 C1452 1.404 . S
C1453 H1465 0.930 1_545 S
C1454 C1450 1.524 . S
C1454 H1466 0.956 . S
C1454 H1467 0.961 . S
C1454 H1468 0.961 . S
C1455 C1452 1.539 1_565 S
C1455 H1469 0.958 . S
C1455 H1470 0.961 . S
C1455 H1471 0.960 . S
H1456 C1440 0.931 . S
H1457 C1445 0.929 . S
H1458 C1446 0.960 . S
H1459 C1446 0.962 . S
H1460 C1446 0.960 . S
H1461 C1447 0.961 . S
H1462 C1447 0.961 . S
H1463 C1447 0.961 . S
H1464 C1448 0.931 . S
H1465 C1453 0.930 1_565 S
H1466 C1454 0.956 . S
H1467 C1454 0.961 . S
H1468 C1454 0.961 . S
H1469 C1455 0.958 . S
H1470 C1455 0.961 . S
H1471 C1455 0.960 . S
C1472 C1473 1.391 . S
C1472 C1474 1.394 . S
C1472 H1488 0.931 . S
C1473 C1472 1.391 . S
C1473 C1477 1.376 . S
C1474 C1472 1.394 . S
C1474 C1475 1.369 . S
C1474 C1478 1.531 . S
C1475 C1474 1.369 . S
C1475 C1476 1.410 . S
C1475 C1483 1.503 . S
C1476 C1475 1.410 . S
C1476 C1477 1.392 . S
C1476 C1479 1.511 . S
C1477 C1473 1.376 . S
C1477 C1476 1.392 . S
C1477 H1489 0.929 . S
C1478 C1474 1.531 . S
C1478 H1490 0.960 . S
C1478 H1491 0.962 . S
C1478 H1492 0.960 . S
C1479 C1476 1.511 . S
C1479 H1493 0.961 . S
C1479 H1494 0.961 . S
C1479 H1495 0.961 . S
C1480 C1481 1.370 . S
C1480 C1482 1.363 . S
C1480 H1496 0.931 . S
C1481 C1480 1.370 . S
C1481 C1485 1.408 . S
C1482 C1480 1.363 . S
C1482 C1483 1.370 . S
C1482 C1486 1.524 . S
C1483 C1475 1.503 . S
C1483 C1482 1.370 . S
C1483 C1484 1.403 . S
C1484 C1483 1.403 . S
C1484 C1485 1.404 . S
C1484 C1487 1.539 . S
C1485 C1481 1.408 . S
C1485 C1484 1.404 . S
C1485 H1497 0.930 . S
C1486 C1482 1.524 . S
C1486 H1498 0.956 . S
C1486 H1499 0.961 . S
C1486 H1500 0.961 . S
C1487 C1484 1.539 . S
C1487 H1501 0.958 . S
C1487 H1502 0.961 . S
C1487 H1503 0.960 . S
H1488 C1472 0.931 . S
H1489 C1477 0.929 . S
H1490 C1478 0.960 . S
H1491 C1478 0.962 . S
H1492 C1478 0.960 . S
H1493 C1479 0.961 . S
H1494 C1479 0.961 . S
H1495 C1479 0.961 . S
H1496 C1480 0.931 . S
H1497 C1485 0.930 . S
H1498 C1486 0.956 . S
H1499 C1486 0.961 . S
H1500 C1486 0.961 . S
H1501 C1487 0.958 . S
H1502 C1487 0.961 . S
H1503 C1487 0.960 . S
C1504 C1505 1.391 . S
C1504 C1506 1.394 . S
C1504 H1520 0.931 . S
C1505 C1504 1.391 . S
C1505 C1509 1.376 . S
C1506 C1504 1.394 . S
C1506 C1507 1.369 . S
C1506 C1510 1.531 . S
C1507 C1506 1.369 . S
C1507 C1508 1.410 . S
C1507 C1515 1.503 . S
C1508 C1507 1.410 . S
C1508 C1509 1.392 . S
C1508 C1511 1.511 . S
C1509 C1505 1.376 . S
C1509 C1508 1.392 . S
C1509 H1521 0.929 . S
C1510 C1506 1.531 . S
C1510 H1522 0.960 . S
C1510 H1523 0.962 . S
C1510 H1524 0.960 . S
C1511 C1508 1.511 . S
C1511 H1525 0.961 . S
C1511 H1526 0.961 . S
C1511 H1527 0.961 . S
C1512 C1513 1.370 . S
C1512 C1514 1.363 . S
C1512 H1528 0.931 . S
C1513 C1512 1.370 . S
C1513 C1517 1.408 . S
C1514 C1512 1.363 . S
C1514 C1515 1.370 . S
C1514 C1518 1.524 . S
C1515 C1507 1.503 . S
C1515 C1514 1.370 . S
C1515 C1516 1.403 . S
C1516 C1515 1.403 . S
C1516 C1517 1.404 . S
C1516 C1519 1.539 . S
C1517 C1513 1.408 . S
C1517 C1516 1.404 . S
C1517 H1529 0.930 . S
C1518 C1514 1.524 . S
C1518 H1530 0.956 . S
C1518 H1531 0.961 . S
C1518 H1532 0.961 . S
C1519 C1516 1.539 . S
C1519 H1533 0.958 . S
C1519 H1534 0.961 . S
C1519 H1535 0.960 . S
H1520 C1504 0.931 . S
H1521 C1509 0.929 . S
H1522 C1510 0.960 . S
H1523 C1510 0.962 . S
H1524 C1510 0.960 . S
H1525 C1511 0.961 . S
H1526 C1511 0.961 . S
H1527 C1511 0.961 . S
H1528 C1512 0.931 . S
H1529 C1517 0.930 . S
H1530 C1518 0.956 . S
H1531 C1518 0.961 . S
H1532 C1518 0.961 . S
H1533 C1519 0.958 . S
H1534 C1519 0.961 . S
H1535 C1519 0.960 . S
C1536 C1537 1.391 . S
C1536 C1538 1.394 . S
C1536 H1552 0.931 . S
C1537 C1536 1.391 . S
C1537 C1541 1.376 . S
C1538 C1536 1.394 . S
C1538 C1539 1.369 . S
C1538 C1542 1.531 . S
C1539 C1538 1.369 . S
C1539 C1540 1.410 . S
C1539 C1547 1.503 . S
C1540 C1539 1.410 . S
C1540 C1541 1.392 . S
C1540 C1543 1.511 . S
C1541 C1537 1.376 . S
C1541 C1540 1.392 . S
C1541 H1553 0.929 . S
C1542 C1538 1.531 . S
C1542 H1554 0.960 . S
C1542 H1555 0.962 . S
C1542 H1556 0.960 . S
C1543 C1540 1.511 . S
C1543 H1557 0.961 . S
C1543 H1558 0.961 . S
C1543 H1559 0.961 . S
C1544 C1545 1.370 . S
C1544 C1546 1.363 . S
C1544 H1560 0.931 . S
C1545 C1544 1.370 . S
C1545 C1549 1.408 . S
C1546 C1544 1.363 . S
C1546 C1547 1.370 . S
C1546 C1550 1.524 . S
C1547 C1539 1.503 . S
C1547 C1546 1.370 . S
C1547 C1548 1.403 . S
C1548 C1547 1.403 . S
C1548 C1549 1.404 . S
C1548 C1551 1.539 . S
C1549 C1545 1.408 . S
C1549 C1548 1.404 . S
C1549 H1561 0.930 . S
C1550 C1546 1.524 . S
C1550 H1562 0.956 . S
C1550 H1563 0.961 . S
C1550 H1564 0.961 . S
C1551 C1548 1.539 . S
C1551 H1565 0.958 . S
C1551 H1566 0.961 . S
C1551 H1567 0.960 . S
H1552 C1536 0.931 . S
H1553 C1541 0.929 . S
H1554 C1542 0.960 . S
H1555 C1542 0.962 . S
H1556 C1542 0.960 . S
H1557 C1543 0.961 . S
H1558 C1543 0.961 . S
H1559 C1543 0.961 . S
H1560 C1544 0.931 . S
H1561 C1549 0.930 . S
H1562 C1550 0.956 . S
H1563 C1550 0.961 . S
H1564 C1550 0.961 . S
H1565 C1551 0.958 . S
H1566 C1551 0.961 . S
H1567 C1551 0.960 . S
C1568 C1569 1.391 . S
C1568 C1570 1.394 . S
C1568 H1584 0.931 . S
C1569 C1568 1.391 . S
C1569 C1573 1.376 . S
C1570 C1568 1.394 . S
C1570 C1571 1.369 . S
C1570 C1574 1.531 . S
C1571 C1570 1.369 . S
C1571 C1572 1.410 . S
C1571 C1579 1.503 . S
C1572 C1571 1.410 . S
C1572 C1573 1.392 . S
C1572 C1575 1.511 . S
C1573 C1569 1.376 . S
C1573 C1572 1.392 . S
C1573 H1585 0.929 . S
C1574 C1570 1.531 . S
C1574 H1586 0.960 . S
C1574 H1587 0.962 . S
C1574 H1588 0.960 . S
C1575 C1572 1.511 . S
C1575 H1589 0.961 . S
C1575 H1590 0.961 . S
C1575 H1591 0.961 . S
C1576 C1577 1.370 . S
C1576 C1578 1.363 . S
C1576 H1592 0.931 . S
C1577 C1576 1.370 . S
C1577 C1581 1.408 . S
C1578 C1576 1.363 . S
C1578 C1579 1.370 . S
C1578 C1582 1.524 . S
C1579 C1571 1.503 . S
C1579 C1578 1.370 . S
C1579 C1580 1.403 . S
C1580 C1579 1.403 . S
C1580 C1581 1.404 . S
C1580 C1583 1.539 . S
C1581 C1577 1.408 . S
C1581 C1580 1.404 . S
C1581 H1593 0.930 . S
C1582 C1578 1.524 . S
C1582 H1594 0.956 . S
C1582 H1595 0.961 . S
C1582 H1596 0.961 . S
C1583 C1580 1.539 . S
C1583 H1597 0.958 . S
C1583 H1598 0.961 . S
C1583 H1599 0.960 . S
H1584 C1568 0.931 . S
H1585 C1573 0.929 . S
H1586 C1574 0.960 . S
H1587 C1574 0.962 . S
H1588 C1574 0.960 . S
H1589 C1575 0.961 . S
H1590 C1575 0.961 . S
H1591 C1575 0.961 . S
H1592 C1576 0.931 . S
H1593 C1581 0.930 . S
H1594 C1582 0.956 . S
H1595 C1582 0.961 . S
H1596 C1582 0.961 . S
H1597 C1583 0.958 . S
H1598 C1583 0.961 . S
H1599 C1583 0.960 . S
C1600 C1601 1.391 . S
C1600 C1602 1.394 . S
C1600 H1616 0.931 . S
C1601 C1600 1.391 . S
C1601 C1605 1.376 . S
C1602 C1600 1.394 . S
C1602 C1603 1.369 . S
C1602 C1606 1.531 . S
C1603 C1602 1.369 . S
C1603 C1604 1.410 . S
C1603 C1611 1.503 . S
C1604 C1603 1.410 . S
C1604 C1605 1.392 . S
C1604 C1607 1.511 . S
C1605 C1601 1.376 . S
C1605 C1604 1.392 . S
C1605 H1617 0.929 . S
C1606 C1602 1.531 . S
C1606 H1618 0.960 . S
C1606 H1619 0.962 . S
C1606 H1620 0.960 . S
C1607 C1604 1.511 . S
C1607 H1621 0.961 . S
C1607 H1622 0.961 . S
C1607 H1623 0.961 . S
C1608 C1609 1.370 . S
C1608 C1610 1.363 . S
C1608 H1624 0.931 . S
C1609 C1608 1.370 . S
C1609 C1613 1.408 . S
C1610 C1608 1.363 . S
C1610 C1611 1.370 . S
C1610 C1614 1.524 . S
C1611 C1603 1.503 . S
C1611 C1610 1.370 . S
C1611 C1612 1.403 . S
C1612 C1611 1.403 . S
C1612 C1613 1.404 . S
C1612 C1615 1.539 . S
C1613 C1609 1.408 . S
C1613 C1612 1.404 . S
C1613 H1625 0.930 . S
C1614 C1610 1.524 . S
C1614 H1626 0.956 . S
C1614 H1627 0.961 . S
C1614 H1628 0.961 . S
C1615 C1612 1.539 . S
C1615 H1629 0.958 . S
C1615 H1630 0.961 . S
C1615 H1631 0.960 . S
H1616 C1600 0.931 . S
H1617 C1605 0.929 . S
H1618 C1606 0.960 . S
H1619 C1606 0.962 . S
H1620 C1606 0.960 . S
H1621 C1607 0.961 . S
H1622 C1607 0.961 . S
H1623 C1607 0.961 . S
H1624 C1608 0.931 . S
H1625 C1613 0.930 . S
H1626 C1614 0.956 . S
H1627 C1614 0.961 . S
H1628 C1614 0.961 . S
H1629 C1615 0.958 . S
H1630 C1615 0.961 . S
H1631 C1615 0.960 . S
C1632 C1633 1.391 . S
C1632 C1634 1.394 . S
C1632 H1648 0.931 . S
C1633 C1632 1.391 . S
C1633 C1637 1.376 . S
C1634 C1632 1.394 . S
C1634 C1635 1.369 . S
C1634 C1638 1.531 . S
C1635 C1634 1.369 . S
C1635 C1636 1.410 . S
C1635 C1643 1.503 . S
C1636 C1635 1.410 . S
C1636 C1637 1.392 . S
C1636 C1639 1.511 . S
C1637 C1633 1.376 . S
C1637 C1636 1.392 . S
C1637 H1649 0.929 . S
C1638 C1634 1.531 . S
C1638 H1650 0.960 . S
C1638 H1651 0.962 . S
C1638 H1652 0.960 . S
C1639 C1636 1.511 . S
C1639 H1653 0.961 . S
C1639 H1654 0.961 . S
C1639 H1655 0.961 . S
C1640 C1641 1.370 . S
C1640 C1642 1.363 . S
C1640 H1656 0.931 . S
C1641 C1640 1.370 . S
C1641 C1645 1.408 . S
C1642 C1640 1.363 . S
C1642 C1643 1.370 . S
C1642 C1646 1.524 . S
C1643 C1635 1.503 . S
C1643 C1642 1.370 . S
C1643 C1644 1.403 . S
C1644 C1643 1.403 . S
C1644 C1645 1.404 . S
C1644 C1647 1.539 . S
C1645 C1641 1.408 . S
C1645 C1644 1.404 . S
C1645 H1657 0.930 . S
C1646 C1642 1.524 . S
C1646 H1658 0.956 . S
C1646 H1659 0.961 . S
C1646 H1660 0.961 . S
C1647 C1644 1.539 . S
C1647 H1661 0.958 . S
C1647 H1662 0.961 . S
C1647 H1663 0.960 . S
H1648 C1632 0.931 . S
H1649 C1637 0.929 . S
H1650 C1638 0.960 . S
H1651 C1638 0.962 . S
H1652 C1638 0.960 . S
H1653 C1639 0.961 . S
H1654 C1639 0.961 . S
H1655 C1639 0.961 . S
H1656 C1640 0.931 . S
H1657 C1645 0.930 . S
H1658 C1646 0.956 . S
H1659 C1646 0.961 . S
H1660 C1646 0.961 . S
H1661 C1647 0.958 . S
H1662 C1647 0.961 . S
H1663 C1647 0.960 . S
C1664 C1665 1.391 . S
C1664 C1666 1.394 . S
C1664 H1680 0.931 . S
C1665 C1664 1.391 . S
C1665 C1669 1.376 . S
C1666 C1664 1.394 . S
C1666 C1667 1.369 . S
C1666 C1670 1.531 . S
C1667 C1666 1.369 . S
C1667 C1668 1.410 . S
C1667 C1675 1.503 . S
C1668 C1667 1.410 . S
C1668 C1669 1.392 . S
C1668 C1671 1.511 . S
C1669 C1665 1.376 . S
C1669 C1668 1.392 . S
C1669 H1681 0.929 . S
C1670 C1666 1.531 . S
C1670 H1682 0.960 . S
C1670 H1683 0.962 . S
C1670 H1684 0.960 . S
C1671 C1668 1.511 . S
C1671 H1685 0.961 . S
C1671 H1686 0.961 . S
C1671 H1687 0.961 . S
C1672 C1673 1.370 . S
C1672 C1674 1.363 . S
C1672 H1688 0.931 . S
C1673 C1672 1.370 . S
C1673 C1677 1.408 . S
C1674 C1672 1.363 . S
C1674 C1675 1.370 . S
C1674 C1678 1.524 . S
C1675 C1667 1.503 . S
C1675 C1674 1.370 . S
C1675 C1676 1.403 . S
C1676 C1675 1.403 . S
C1676 C1677 1.404 . S
C1676 C1679 1.539 . S
C1677 C1673 1.408 . S
C1677 C1676 1.404 . S
C1677 H1689 0.930 . S
C1678 C1674 1.524 . S
C1678 H1690 0.956 . S
C1678 H1691 0.961 . S
C1678 H1692 0.961 . S
C1679 C1676 1.539 . S
C1679 H1693 0.958 . S
C1679 H1694 0.961 . S
C1679 H1695 0.960 . S
H1680 C1664 0.931 . S
H1681 C1669 0.929 . S
H1682 C1670 0.960 . S
H1683 C1670 0.962 . S
H1684 C1670 0.960 . S
H1685 C1671 0.961 . S
H1686 C1671 0.961 . S
H1687 C1671 0.961 . S
H1688 C1672 0.931 . S
H1689 C1677 0.930 . S
H1690 C1678 0.956 . S
H1691 C1678 0.961 . S
H1692 C1678 0.961 . S
H1693 C1679 0.958 . S
H1694 C1679 0.961 . S
H1695 C1679 0.960 . S
C1696 C1697 1.391 . S
C1696 C1698 1.394 . S
C1696 H1712 0.931 . S
C1697 C1696 1.391 . S
C1697 C1701 1.376 . S
C1698 C1696 1.394 . S
C1698 C1699 1.369 . S
C1698 C1702 1.531 . S
C1699 C1698 1.369 . S
C1699 C1700 1.410 . S
C1699 C1707 1.503 . S
C1700 C1699 1.410 . S
C1700 C1701 1.392 . S
C1700 C1703 1.511 . S
C1701 C1697 1.376 . S
C1701 C1700 1.392 . S
C1701 H1713 0.929 . S
C1702 C1698 1.531 . S
C1702 H1714 0.960 . S
C1702 H1715 0.962 . S
C1702 H1716 0.960 . S
C1703 C1700 1.511 . S
C1703 H1717 0.961 . S
C1703 H1718 0.961 . S
C1703 H1719 0.961 . S
C1704 C1705 1.370 . S
C1704 C1706 1.363 . S
C1704 H1720 0.931 . S
C1705 C1704 1.370 . S
C1705 C1709 1.408 . S
C1706 C1704 1.363 . S
C1706 C1707 1.370 . S
C1706 C1710 1.524 . S
C1707 C1699 1.503 . S
C1707 C1706 1.370 . S
C1707 C1708 1.403 . S
C1708 C1707 1.403 . S
C1708 C1709 1.404 . S
C1708 C1711 1.539 . S
C1709 C1705 1.408 . S
C1709 C1708 1.404 . S
C1709 H1721 0.930 . S
C1710 C1706 1.524 . S
C1710 H1722 0.956 . S
C1710 H1723 0.961 . S
C1710 H1724 0.961 . S
C1711 C1708 1.539 . S
C1711 H1725 0.958 . S
C1711 H1726 0.961 . S
C1711 H1727 0.960 . S
H1712 C1696 0.931 . S
H1713 C1701 0.929 . S
H1714 C1702 0.960 . S
H1715 C1702 0.962 . S
H1716 C1702 0.960 . S
H1717 C1703 0.961 . S
H1718 C1703 0.961 . S
H1719 C1703 0.961 . S
H1720 C1704 0.931 . S
H1721 C1709 0.930 . S
H1722 C1710 0.956 . S
H1723 C1710 0.961 . S
H1724 C1710 0.961 . S
H1725 C1711 0.958 . S
H1726 C1711 0.961 . S
H1727 C1711 0.960 . S
C1728 C1729 1.391 . S
C1728 C1730 1.394 . S
C1728 H1744 0.931 . S
C1729 C1728 1.391 . S
C1729 C1733 1.376 . S
C1730 C1728 1.394 . S
C1730 C1731 1.369 . S
C1730 C1734 1.531 . S
C1731 C1730 1.369 . S
C1731 C1732 1.410 . S
C1731 C1739 1.503 . S
C1732 C1731 1.410 . S
C1732 C1733 1.392 . S
C1732 C1735 1.511 . S
C1733 C1729 1.376 . S
C1733 C1732 1.392 . S
C1733 H1745 0.929 . S
C1734 C1730 1.531 . S
C1734 H1746 0.960 . S
C1734 H1747 0.962 . S
C1734 H1748 0.960 . S
C1735 C1732 1.511 . S
C1735 H1749 0.961 . S
C1735 H1750 0.961 . S
C1735 H1751 0.961 . S
C1736 C1737 1.370 . S
C1736 C1738 1.363 . S
C1736 H1752 0.931 . S
C1737 C1736 1.370 . S
C1737 C1741 1.408 . S
C1738 C1736 1.363 . S
C1738 C1739 1.370 . S
C1738 C1742 1.524 . S
C1739 C1731 1.503 . S
C1739 C1738 1.370 . S
C1739 C1740 1.403 . S
C1740 C1739 1.403 . S
C1740 C1741 1.404 . S
C1740 C1743 1.539 . S
C1741 C1737 1.408 . S
C1741 C1740 1.404 . S
C1741 H1753 0.930 . S
C1742 C1738 1.524 . S
C1742 H1754 0.956 . S
C1742 H1755 0.961 . S
C1742 H1756 0.961 . S
C1743 C1740 1.539 . S
C1743 H1757 0.958 . S
C1743 H1758 0.961 . S
C1743 H1759 0.960 . S
H1744 C1728 0.931 . S
H1745 C1733 0.929 . S
H1746 C1734 0.960 . S
H1747 C1734 0.962 . S
H1748 C1734 0.960 . S
H1749 C1735 0.961 . S
H1750 C1735 0.961 . S
H1751 C1735 0.961 . S
H1752 C1736 0.931 . S
H1753 C1741 0.930 . S
H1754 C1742 0.956 . S
H1755 C1742 0.961 . S
H1756 C1742 0.961 . S
H1757 C1743 0.958 . S
H1758 C1743 0.961 . S
H1759 C1743 0.960 . S
C1760 C1761 1.391 . S
C1760 C1762 1.394 . S
C1760 H1776 0.931 . S
C1761 C1760 1.391 . S
C1761 C1765 1.376 . S
C1762 C1760 1.394 . S
C1762 C1763 1.369 . S
C1762 C1766 1.531 . S
C1763 C1762 1.369 . S
C1763 C1764 1.410 . S
C1763 C1771 1.503 . S
C1764 C1763 1.410 . S
C1764 C1765 1.392 . S
C1764 C1767 1.511 . S
C1765 C1761 1.376 . S
C1765 C1764 1.392 . S
C1765 H1777 0.929 . S
C1766 C1762 1.531 . S
C1766 H1778 0.960 . S
C1766 H1779 0.962 . S
C1766 H1780 0.960 . S
C1767 C1764 1.511 . S
C1767 H1781 0.961 . S
C1767 H1782 0.961 . S
C1767 H1783 0.961 . S
C1768 C1769 1.370 . S
C1768 C1770 1.363 . S
C1768 H1784 0.931 . S
C1769 C1768 1.370 . S
C1769 C1773 1.408 . S
C1770 C1768 1.363 . S
C1770 C1771 1.370 . S
C1770 C1774 1.524 . S
C1771 C1763 1.503 . S
C1771 C1770 1.370 . S
C1771 C1772 1.403 . S
C1772 C1771 1.403 . S
C1772 C1773 1.404 . S
C1772 C1775 1.539 . S
C1773 C1769 1.408 . S
C1773 C1772 1.404 . S
C1773 H1785 0.930 . S
C1774 C1770 1.524 . S
C1774 H1786 0.956 . S
C1774 H1787 0.961 . S
C1774 H1788 0.961 . S
C1775 C1772 1.539 . S
C1775 H1789 0.958 . S
C1775 H1790 0.961 . S
C1775 H1791 0.960 . S
H1776 C1760 0.931 . S
H1777 C1765 0.929 . S
H1778 C1766 0.960 . S
H1779 C1766 0.962 . S
H1780 C1766 0.960 . S
H1781 C1767 0.961 . S
H1782 C1767 0.961 . S
H1783 C1767 0.961 . S
H1784 C1768 0.931 . S
H1785 C1773 0.930 . S
H1786 C1774 0.956 . S
H1787 C1774 0.961 . S
H1788 C1774 0.961 . S
H1789 C1775 0.958 . S
H1790 C1775 0.961 . S
H1791 C1775 0.960 . S
C1792 C1793 1.391 . S
C1792 C1794 1.394 . S
C1792 H1808 0.931 . S
C1793 C1792 1.391 . S
C1793 C1797 1.376 . S
C1794 C1792 1.394 . S
C1794 C1795 1.369 . S
C1794 C1798 1.531 . S
C1795 C1794 1.369 . S
C1795 C1796 1.410 . S
C1795 C1803 1.503 . S
C1796 C1795 1.410 . S
C1796 C1797 1.392 . S
C1796 C1799 1.511 . S
C1797 C1793 1.376 . S
C1797 C1796 1.392 . S
C1797 H1809 0.929 . S
C1798 C1794 1.531 . S
C1798 H1810 0.960 . S
C1798 H1811 0.962 . S
C1798 H1812 0.960 . S
C1799 C1796 1.511 . S
C1799 H1813 0.961 . S
C1799 H1814 0.961 . S
C1799 H1815 0.961 . S
C1800 C1801 1.370 . S
C1800 C1802 1.363 . S
C1800 H1816 0.931 . S
C1801 C1800 1.370 . S
C1801 C1805 1.408 . S
C1802 C1800 1.363 . S
C1802 C1803 1.370 . S
C1802 C1806 1.524 . S
C1803 C1795 1.503 . S
C1803 C1802 1.370 . S
C1803 C1804 1.403 . S
C1804 C1803 1.403 . S
C1804 C1805 1.404 . S
C1804 C1807 1.539 . S
C1805 C1801 1.408 . S
C1805 C1804 1.404 . S
C1805 H1817 0.930 . S
C1806 C1802 1.524 . S
C1806 H1818 0.956 . S
C1806 H1819 0.961 . S
C1806 H1820 0.961 . S
C1807 C1804 1.539 . S
C1807 H1821 0.958 . S
C1807 H1822 0.961 . S
C1807 H1823 0.960 . S
H1808 C1792 0.931 . S
H1809 C1797 0.929 . S
H1810 C1798 0.960 . S
H1811 C1798 0.962 . S
H1812 C1798 0.960 . S
H1813 C1799 0.961 . S
H1814 C1799 0.961 . S
H1815 C1799 0.961 . S
H1816 C1800 0.931 . S
H1817 C1805 0.930 . S
H1818 C1806 0.956 . S
H1819 C1806 0.961 . S
H1820 C1806 0.961 . S
H1821 C1807 0.958 . S
H1822 C1807 0.961 . S
H1823 C1807 0.960 . S
C1824 C1825 1.391 . S
C1824 C1826 1.394 . S
C1824 H1840 0.931 . S
C1825 C1824 1.391 . S
C1825 C1829 1.376 . S
C1826 C1824 1.394 . S
C1826 C1827 1.369 . S
C1826 C1830 1.531 . S
C1827 C1826 1.369 . S
C1827 C1828 1.410 . S
C1827 C1835 1.503 . S
C1828 C1827 1.410 . S
C1828 C1829 1.392 . S
C1828 C1831 1.511 . S
C1829 C1825 1.376 . S
C1829 C1828 1.392 . S
C1829 H1841 0.929 . S
C1830 C1826 1.531 . S
C1830 H1842 0.960 . S
C1830 H1843 0.962 . S
C1830 H1844 0.960 . S
C1831 C1828 1.511 . S
C1831 H1845 0.961 . S
C1831 H1846 0.961 . S
C1831 H1847 0.961 1_455 S
C1832 C1833 1.370 . S
C1832 C1834 1.363 . S
C1832 H1848 0.931 . S
C1833 C1832 1.370 . S
C1833 C1837 1.408 . S
C1834 C1832 1.363 . S
C1834 C1835 1.370 . S
C1834 C1838 1.524 . S
C1835 C1827 1.503 . S
C1835 C1834 1.370 . S
C1835 C1836 1.403 . S
C1836 C1835 1.403 . S
C1836 C1837 1.404 . S
C1836 C1839 1.539 . S
C1837 C1833 1.408 . S
C1837 C1836 1.404 . S
C1837 H1849 0.930 . S
C1838 C1834 1.524 . S
C1838 H1850 0.956 . S
C1838 H1851 0.961 . S
C1838 H1852 0.961 . S
C1839 C1836 1.539 . S
C1839 H1853 0.958 . S
C1839 H1854 0.961 . S
C1839 H1855 0.960 . S
H1840 C1824 0.931 . S
H1841 C1829 0.929 . S
H1842 C1830 0.960 . S
H1843 C1830 0.962 . S
H1844 C1830 0.960 . S
H1845 C1831 0.961 . S
H1846 C1831 0.961 . S
H1847 C1831 0.961 1_655 S
H1848 C1832 0.931 . S
H1849 C1837 0.930 . S
H1850 C1838 0.956 . S
H1851 C1838 0.961 . S
H1852 C1838 0.961 . S
H1853 C1839 0.958 . S
H1854 C1839 0.961 . S
H1855 C1839 0.960 . S
C1856 C1857 1.391 . S
C1856 C1858 1.394 . S
C1856 H1872 0.931 . S
C1857 C1856 1.391 . S
C1857 C1861 1.376 . S
C1858 C1856 1.394 . S
C1858 C1859 1.369 . S
C1858 C1862 1.531 . S
C1859 C1858 1.369 . S
C1859 C1860 1.410 . S
C1859 C1867 1.503 . S
C1860 C1859 1.410 . S
C1860 C1861 1.392 . S
C1860 C1863 1.511 . S
C1861 C1857 1.376 . S
C1861 C1860 1.392 . S
C1861 H1873 0.929 . S
C1862 C1858 1.531 . S
C1862 H1874 0.960 . S
C1862 H1875 0.962 . S
C1862 H1876 0.960 . S
C1863 C1860 1.511 . S
C1863 H1877 0.961 . S
C1863 H1878 0.961 . S
C1863 H1879 0.961 . S
C1864 C1865 1.370 . S
C1864 C1866 1.363 . S
C1864 H1880 0.931 . S
C1865 C1864 1.370 . S
C1865 C1869 1.408 . S
C1866 C1864 1.363 . S
C1866 C1867 1.370 . S
C1866 C1870 1.524 . S
C1867 C1859 1.503 . S
C1867 C1866 1.370 . S
C1867 C1868 1.403 . S
C1868 C1867 1.403 . S
C1868 C1869 1.404 . S
C1868 C1871 1.539 . S
C1869 C1865 1.408 . S
C1869 C1868 1.404 . S
C1869 H1881 0.930 . S
C1870 C1866 1.524 . S
C1870 H1882 0.956 . S
C1870 H1883 0.961 . S
C1870 H1884 0.961 . S
C1871 C1868 1.539 . S
C1871 H1885 0.958 . S
C1871 H1886 0.961 . S
C1871 H1887 0.960 . S
H1872 C1856 0.931 . S
H1873 C1861 0.929 . S
H1874 C1862 0.960 . S
H1875 C1862 0.962 . S
H1876 C1862 0.960 . S
H1877 C1863 0.961 . S
H1878 C1863 0.961 . S
H1879 C1863 0.961 . S
H1880 C1864 0.931 . S
H1881 C1869 0.930 . S
H1882 C1870 0.956 . S
H1883 C1870 0.961 . S
H1884 C1870 0.961 . S
H1885 C1871 0.958 . S
H1886 C1871 0.961 . S
H1887 C1871 0.960 . S
C1888 C1889 1.391 . S
C1888 C1890 1.394 . S
C1888 H1904 0.931 . S
C1889 C1888 1.391 . S
C1889 C1893 1.376 . S
C1890 C1888 1.394 . S
C1890 C1891 1.369 . S
C1890 C1894 1.531 . S
C1891 C1890 1.369 . S
C1891 C1892 1.410 . S
C1891 C1899 1.503 . S
C1892 C1891 1.410 . S
C1892 C1893 1.392 . S
C1892 C1895 1.511 . S
C1893 C1889 1.376 . S
C1893 C1892 1.392 . S
C1893 H1905 0.929 . S
C1894 C1890 1.531 . S
C1894 H1906 0.960 . S
C1894 H1907 0.962 . S
C1894 H1908 0.960 . S
C1895 C1892 1.511 . S
C1895 H1909 0.961 . S
C1895 H1910 0.961 . S
C1895 H1911 0.961 . S
C1896 C1897 1.370 . S
C1896 C1898 1.363 . S
C1896 H1912 0.931 . S
C1897 C1896 1.370 . S
C1897 C1901 1.408 . S
C1898 C1896 1.363 . S
C1898 C1899 1.370 . S
C1898 C1902 1.524 . S
C1899 C1891 1.503 . S
C1899 C1898 1.370 . S
C1899 C1900 1.403 . S
C1900 C1899 1.403 . S
C1900 C1901 1.404 . S
C1900 C1903 1.539 . S
C1901 C1897 1.408 . S
C1901 C1900 1.404 . S
C1901 H1913 0.930 . S
C1902 C1898 1.524 . S
C1902 H1914 0.956 . S
C1902 H1915 0.961 . S
C1902 H1916 0.961 . S
C1903 C1900 1.539 . S
C1903 H1917 0.958 . S
C1903 H1918 0.961 . S
C1903 H1919 0.960 . S
H1904 C1888 0.931 . S
H1905 C1893 0.929 . S
H1906 C1894 0.960 . S
H1907 C1894 0.962 . S
H1908 C1894 0.960 . S
H1909 C1895 0.961 . S
H1910 C1895 0.961 . S
H1911 C1895 0.961 . S
H1912 C1896 0.931 . S
H1913 C1901 0.930 . S
H1914 C1902 0.956 . S
H1915 C1902 0.961 . S
H1916 C1902 0.961 . S
H1917 C1903 0.958 . S
H1918 C1903 0.961 . S
H1919 C1903 0.960 . S
C1920 C1921 1.391 . S
C1920 C1922 1.394 . S
C1920 H1936 0.931 . S
C1921 C1920 1.391 . S
C1921 C1925 1.376 . S
C1922 C1920 1.394 . S
C1922 C1923 1.369 . S
C1922 C1926 1.531 . S
C1923 C1922 1.369 . S
C1923 C1924 1.410 . S
C1923 C1931 1.503 . S
C1924 C1923 1.410 . S
C1924 C1925 1.392 . S
C1924 C1927 1.511 . S
C1925 C1921 1.376 . S
C1925 C1924 1.392 . S
C1925 H1937 0.929 . S
C1926 C1922 1.531 . S
C1926 H1938 0.960 . S
C1926 H1939 0.962 . S
C1926 H1940 0.960 . S
C1927 C1924 1.511 . S
C1927 H1941 0.961 . S
C1927 H1942 0.961 . S
C1927 H1943 0.961 . S
C1928 C1929 1.370 . S
C1928 C1930 1.363 . S
C1928 H1944 0.931 . S
C1929 C1928 1.370 . S
C1929 C1933 1.408 . S
C1930 C1928 1.363 . S
C1930 C1931 1.370 . S
C1930 C1934 1.524 . S
C1931 C1923 1.503 . S
C1931 C1930 1.370 . S
C1931 C1932 1.403 . S
C1932 C1931 1.403 . S
C1932 C1933 1.404 . S
C1932 C1935 1.539 . S
C1933 C1929 1.408 . S
C1933 C1932 1.404 . S
C1933 H1945 0.930 . S
C1934 C1930 1.524 . S
C1934 H1946 0.956 . S
C1934 H1947 0.961 . S
C1934 H1948 0.961 . S
C1935 C1932 1.539 . S
C1935 H1949 0.958 . S
C1935 H1950 0.961 . S
C1935 H1951 0.960 . S
H1936 C1920 0.931 . S
H1937 C1925 0.929 . S
H1938 C1926 0.960 . S
H1939 C1926 0.962 . S
H1940 C1926 0.960 . S
H1941 C1927 0.961 . S
H1942 C1927 0.961 . S
H1943 C1927 0.961 . S
H1944 C1928 0.931 . S
H1945 C1933 0.930 . S
H1946 C1934 0.956 . S
H1947 C1934 0.961 . S
H1948 C1934 0.961 . S
H1949 C1935 0.958 . S
H1950 C1935 0.961 . S
H1951 C1935 0.960 . S
C1952 C1953 1.391 . S
C1952 C1954 1.394 . S
C1952 H1968 0.931 . S
C1953 C1952 1.391 . S
C1953 C1957 1.376 . S
C1954 C1952 1.394 . S
C1954 C1955 1.369 . S
C1954 C1958 1.531 . S
C1955 C1954 1.369 . S
C1955 C1956 1.410 . S
C1955 C1963 1.503 . S
C1956 C1955 1.410 . S
C1956 C1957 1.392 . S
C1956 C1959 1.511 . S
C1957 C1953 1.376 . S
C1957 C1956 1.392 . S
C1957 H1969 0.929 . S
C1958 C1954 1.531 . S
C1958 H1970 0.960 . S
C1958 H1971 0.962 . S
C1958 H1972 0.960 . S
C1959 C1956 1.511 . S
C1959 H1973 0.961 . S
C1959 H1974 0.961 . S
C1959 H1975 0.961 . S
C1960 C1961 1.370 . S
C1960 C1962 1.363 . S
C1960 H1976 0.931 . S
C1961 C1960 1.370 . S
C1961 C1965 1.408 . S
C1962 C1960 1.363 . S
C1962 C1963 1.370 . S
C1962 C1966 1.524 . S
C1963 C1955 1.503 . S
C1963 C1962 1.370 . S
C1963 C1964 1.403 . S
C1964 C1963 1.403 . S
C1964 C1965 1.404 . S
C1964 C1967 1.539 . S
C1965 C1961 1.408 . S
C1965 C1964 1.404 . S
C1965 H1977 0.930 . S
C1966 C1962 1.524 . S
C1966 H1978 0.956 . S
C1966 H1979 0.961 . S
C1966 H1980 0.961 . S
C1967 C1964 1.539 . S
C1967 H1981 0.958 . S
C1967 H1982 0.961 . S
C1967 H1983 0.960 . S
H1968 C1952 0.931 . S
H1969 C1957 0.929 . S
H1970 C1958 0.960 . S
H1971 C1958 0.962 . S
H1972 C1958 0.960 . S
H1973 C1959 0.961 . S
H1974 C1959 0.961 . S
H1975 C1959 0.961 . S
H1976 C1960 0.931 . S
H1977 C1965 0.930 . S
H1978 C1966 0.956 . S
H1979 C1966 0.961 . S
H1980 C1966 0.961 . S
H1981 C1967 0.958 . S
H1982 C1967 0.961 . S
H1983 C1967 0.960 . S
C1984 C1985 1.391 . S
C1984 C1986 1.394 . S
C1984 H2000 0.931 . S
C1985 C1984 1.391 . S
C1985 C1989 1.376 . S
C1986 C1984 1.394 . S
C1986 C1987 1.369 . S
C1986 C1990 1.531 . S
C1987 C1986 1.369 . S
C1987 C1988 1.410 . S
C1987 C1995 1.503 . S
C1988 C1987 1.410 . S
C1988 C1989 1.392 . S
C1988 C1991 1.511 . S
C1989 C1985 1.376 . S
C1989 C1988 1.392 . S
C1989 H2001 0.929 . S
C1990 C1986 1.531 . S
C1990 H2002 0.960 . S
C1990 H2003 0.962 . S
C1990 H2004 0.960 . S
C1991 C1988 1.511 . S
C1991 H2005 0.961 . S
C1991 H2006 0.961 . S
C1991 H2007 0.961 . S
C1992 C1993 1.370 . S
C1992 C1994 1.363 . S
C1992 H2008 0.931 . S
C1993 C1992 1.370 . S
C1993 C1997 1.408 . S
C1994 C1992 1.363 . S
C1994 C1995 1.370 . S
C1994 C1998 1.524 . S
C1995 C1987 1.503 . S
C1995 C1994 1.370 . S
C1995 C1996 1.403 . S
C1996 C1995 1.403 . S
C1996 C1997 1.404 . S
C1996 C1999 1.539 . S
C1997 C1993 1.408 . S
C1997 C1996 1.404 . S
C1997 H2009 0.930 . S
C1998 C1994 1.524 . S
C1998 H2010 0.956 . S
C1998 H2011 0.961 . S
C1998 H2012 0.961 . S
C1999 C1996 1.539 . S
C1999 H2013 0.958 . S
C1999 H2014 0.961 . S
C1999 H2015 0.960 . S
H2000 C1984 0.931 . S
H2001 C1989 0.929 . S
H2002 C1990 0.960 . S
H2003 C1990 0.962 . S
H2004 C1990 0.960 . S
H2005 C1991 0.961 . S
H2006 C1991 0.961 . S
H2007 C1991 0.961 . S
H2008 C1992 0.931 . S
H2009 C1997 0.930 . S
H2010 C1998 0.956 . S
H2011 C1998 0.961 . S
H2012 C1998 0.961 . S
H2013 C1999 0.958 . S
H2014 C1999 0.961 . S
H2015 C1999 0.960 . S
C2016 C2017 1.391 . S
C2016 C2018 1.394 . S
C2016 H2032 0.931 . S
C2017 C2016 1.391 . S
C2017 C2021 1.376 . S
C2018 C2016 1.394 . S
C2018 C2019 1.369 . S
C2018 C2022 1.531 . S
C2019 C2018 1.369 . S
C2019 C2020 1.410 . S
C2019 C2027 1.503 . S
C2020 C2019 1.410 . S
C2020 C2021 1.392 . S
C2020 C2023 1.511 . S
C2021 C2017 1.376 . S
C2021 C2020 1.392 . S
C2021 H2033 0.929 . S
C2022 C2018 1.531 . S
C2022 H2034 0.960 . S
C2022 H2035 0.962 . S
C2022 H2036 0.960 . S
C2023 C2020 1.511 . S
C2023 H2037 0.961 . S
C2023 H2038 0.961 . S
C2023 H2039 0.961 . S
C2024 C2025 1.370 . S
C2024 C2026 1.363 . S
C2024 H2040 0.931 . S
C2025 C2024 1.370 . S
C2025 C2029 1.408 . S
C2026 C2024 1.363 . S
C2026 C2027 1.370 . S
C2026 C2030 1.524 . S
C2027 C2019 1.503 . S
C2027 C2026 1.370 . S
C2027 C2028 1.403 . S
C2028 C2027 1.403 . S
C2028 C2029 1.404 . S
C2028 C2031 1.539 . S
C2029 C2025 1.408 . S
C2029 C2028 1.404 . S
C2029 H2041 0.930 . S
C2030 C2026 1.524 . S
C2030 H2042 0.956 . S
C2030 H2043 0.961 . S
C2030 H2044 0.961 . S
C2031 C2028 1.539 . S
C2031 H2045 0.958 . S
C2031 H2046 0.961 . S
C2031 H2047 0.960 . S
H2032 C2016 0.931 . S
H2033 C2021 0.929 . S
H2034 C2022 0.960 . S
H2035 C2022 0.962 . S
H2036 C2022 0.960 . S
H2037 C2023 0.961 . S
H2038 C2023 0.961 . S
H2039 C2023 0.961 . S
H2040 C2024 0.931 . S
H2041 C2029 0.930 . S
H2042 C2030 0.956 . S
H2043 C2030 0.961 . S
H2044 C2030 0.961 . S
H2045 C2031 0.958 . S
H2046 C2031 0.961 . S
H2047 C2031 0.960 . S
C2048 C2049 1.391 . S
C2048 C2050 1.394 . S
C2048 H2064 0.931 . S
C2049 C2048 1.391 . S
C2049 C2053 1.376 . S
C2050 C2048 1.394 . S
C2050 C2051 1.369 . S
C2050 C2054 1.531 . S
C2051 C2050 1.369 . S
C2051 C2052 1.410 . S
C2051 C2059 1.503 . S
C2052 C2051 1.410 . S
C2052 C2053 1.392 . S
C2052 C2055 1.511 . S
C2053 C2049 1.376 . S
C2053 C2052 1.392 . S
C2053 H2065 0.929 . S
C2054 C2050 1.531 . S
C2054 H2066 0.960 . S
C2054 H2067 0.962 . S
C2054 H2068 0.960 . S
C2055 C2052 1.511 . S
C2055 H2069 0.961 . S
C2055 H2070 0.961 . S
C2055 H2071 0.961 . S
C2056 C2057 1.370 . S
C2056 C2058 1.363 . S
C2056 H2072 0.931 . S
C2057 C2056 1.370 . S
C2057 C2061 1.408 . S
C2058 C2056 1.363 . S
C2058 C2059 1.370 . S
C2058 C2062 1.524 . S
C2059 C2051 1.503 . S
C2059 C2058 1.370 . S
C2059 C2060 1.403 . S
C2060 C2059 1.403 . S
C2060 C2061 1.404 . S
C2060 C2063 1.539 . S
C2061 C2057 1.408 . S
C2061 C2060 1.404 . S
C2061 H2073 0.930 1_556 S
C2062 C2058 1.524 . S
C2062 H2074 0.956 . S
C2062 H2075 0.961 . S
C2062 H2076 0.961 . S
C2063 C2060 1.539 . S
C2063 H2077 0.958 . S
C2063 H2078 0.961 1_556 S
C2063 H2079 0.960 . S
H2064 C2048 0.931 . S
H2065 C2053 0.929 . S
H2066 C2054 0.960 . S
H2067 C2054 0.962 . S
H2068 C2054 0.960 . S
H2069 C2055 0.961 . S
H2070 C2055 0.961 . S
H2071 C2055 0.961 . S
H2072 C2056 0.931 . S
H2073 C2061 0.930 1_554 S
H2074 C2062 0.956 . S
H2075 C2062 0.961 . S
H2076 C2062 0.961 . S
H2077 C2063 0.958 . S
H2078 C2063 0.961 1_554 S
H2079 C2063 0.960 . S
C2080 C2081 1.391 . S
C2080 C2082 1.394 . S
C2080 H2096 0.931 . S
C2081 C2080 1.391 . S
C2081 C2085 1.376 . S
C2082 C2080 1.394 . S
C2082 C2083 1.369 . S
C2082 C2086 1.531 . S
C2083 C2082 1.369 . S
C2083 C2084 1.410 . S
C2083 C2091 1.503 . S
C2084 C2083 1.410 . S
C2084 C2085 1.392 . S
C2084 C2087 1.511 . S
C2085 C2081 1.376 . S
C2085 C2084 1.392 . S
C2085 H2097 0.929 . S
C2086 C2082 1.531 . S
C2086 H2098 0.960 . S
C2086 H2099 0.962 . S
C2086 H2100 0.960 . S
C2087 C2084 1.511 . S
C2087 H2101 0.961 . S
C2087 H2102 0.961 . S
C2087 H2103 0.961 . S
C2088 C2089 1.370 . S
C2088 C2090 1.363 . S
C2088 H2104 0.931 . S
C2089 C2088 1.370 . S
C2089 C2093 1.408 . S
C2090 C2088 1.363 . S
C2090 C2091 1.370 . S
C2090 C2094 1.524 . S
C2091 C2083 1.503 . S
C2091 C2090 1.370 . S
C2091 C2092 1.403 . S
C2092 C2091 1.403 . S
C2092 C2093 1.404 . S
C2092 C2095 1.539 . S
C2093 C2089 1.408 . S
C2093 C2092 1.404 . S
C2093 H2105 0.930 . S
C2094 C2090 1.524 . S
C2094 H2106 0.956 . S
C2094 H2107 0.961 . S
C2094 H2108 0.961 . S
C2095 C2092 1.539 . S
C2095 H2109 0.958 . S
C2095 H2110 0.961 . S
C2095 H2111 0.960 . S
H2096 C2080 0.931 . S
H2097 C2085 0.929 . S
H2098 C2086 0.960 . S
H2099 C2086 0.962 . S
H2100 C2086 0.960 . S
H2101 C2087 0.961 . S
H2102 C2087 0.961 . S
H2103 C2087 0.961 . S
H2104 C2088 0.931 . S
H2105 C2093 0.930 . S
H2106 C2094 0.956 . S
H2107 C2094 0.961 . S
H2108 C2094 0.961 . S
H2109 C2095 0.958 . S
H2110 C2095 0.961 . S
H2111 C2095 0.960 . S
C2112 C2113 1.391 . S
C2112 C2114 1.394 . S
C2112 H2128 0.931 . S
C2113 C2112 1.391 . S
C2113 C2117 1.376 . S
C2114 C2112 1.394 . S
C2114 C2115 1.369 . S
C2114 C2118 1.531 . S
C2115 C2114 1.369 . S
C2115 C2116 1.410 . S
C2115 C2123 1.503 . S
C2116 C2115 1.410 . S
C2116 C2117 1.392 . S
C2116 C2119 1.511 . S
C2117 C2113 1.376 . S
C2117 C2116 1.392 . S
C2117 H2129 0.929 . S
C2118 C2114 1.531 . S
C2118 H2130 0.960 . S
C2118 H2131 0.962 . S
C2118 H2132 0.960 . S
C2119 C2116 1.511 . S
C2119 H2133 0.961 . S
C2119 H2134 0.961 . S
C2119 H2135 0.961 . S
C2120 C2121 1.370 . S
C2120 C2122 1.363 . S
C2120 H2136 0.931 . S
C2121 C2120 1.370 . S
C2121 C2125 1.408 . S
C2122 C2120 1.363 . S
C2122 C2123 1.370 . S
C2122 C2126 1.524 . S
C2123 C2115 1.503 . S
C2123 C2122 1.370 . S
C2123 C2124 1.403 . S
C2124 C2123 1.403 . S
C2124 C2125 1.404 . S
C2124 C2127 1.539 1_565 S
C2125 C2121 1.408 . S
C2125 C2124 1.404 . S
C2125 H2137 0.930 . S
C2126 C2122 1.524 . S
C2126 H2138 0.956 . S
C2126 H2139 0.961 . S
C2126 H2140 0.961 . S
C2127 C2124 1.539 1_545 S
C2127 H2141 0.958 . S
C2127 H2142 0.961 . S
C2127 H2143 0.960 . S
H2128 C2112 0.931 . S
H2129 C2117 0.929 . S
H2130 C2118 0.960 . S
H2131 C2118 0.962 . S
H2132 C2118 0.960 . S
H2133 C2119 0.961 . S
H2134 C2119 0.961 . S
H2135 C2119 0.961 . S
H2136 C2120 0.931 . S
H2137 C2125 0.930 . S
H2138 C2126 0.956 . S
H2139 C2126 0.961 . S
H2140 C2126 0.961 . S
H2141 C2127 0.958 . S
H2142 C2127 0.961 . S
H2143 C2127 0.960 . S
C2144 C2145 1.391 . S
C2144 C2146 1.394 . S
C2144 H2160 0.931 . S
C2145 C2144 1.391 . S
C2145 C2149 1.376 . S
C2146 C2144 1.394 . S
C2146 C2147 1.369 . S
C2146 C2150 1.531 . S
C2147 C2146 1.369 . S
C2147 C2148 1.410 . S
C2147 C2155 1.503 . S
C2148 C2147 1.410 . S
C2148 C2149 1.392 . S
C2148 C2151 1.511 . S
C2149 C2145 1.376 . S
C2149 C2148 1.392 . S
C2149 H2161 0.929 . S
C2150 C2146 1.531 . S
C2150 H2162 0.960 . S
C2150 H2163 0.962 . S
C2150 H2164 0.960 . S
C2151 C2148 1.511 . S
C2151 H2165 0.961 . S
C2151 H2166 0.961 . S
C2151 H2167 0.961 . S
C2152 C2153 1.370 . S
C2152 C2154 1.363 . S
C2152 H2168 0.931 . S
C2153 C2152 1.370 . S
C2153 C2157 1.408 . S
C2154 C2152 1.363 . S
C2154 C2155 1.370 . S
C2154 C2158 1.524 . S
C2155 C2147 1.503 . S
C2155 C2154 1.370 . S
C2155 C2156 1.403 . S
C2156 C2155 1.403 . S
C2156 C2157 1.404 . S
C2156 C2159 1.539 . S
C2157 C2153 1.408 . S
C2157 C2156 1.404 . S
C2157 H2169 0.930 . S
C2158 C2154 1.524 . S
C2158 H2170 0.956 . S
C2158 H2171 0.961 . S
C2158 H2172 0.961 . S
C2159 C2156 1.539 . S
C2159 H2173 0.958 . S
C2159 H2174 0.961 . S
C2159 H2175 0.960 . S
H2160 C2144 0.931 . S
H2161 C2149 0.929 . S
H2162 C2150 0.960 . S
H2163 C2150 0.962 . S
H2164 C2150 0.960 . S
H2165 C2151 0.961 . S
H2166 C2151 0.961 . S
H2167 C2151 0.961 . S
H2168 C2152 0.931 . S
H2169 C2157 0.930 . S
H2170 C2158 0.956 . S
H2171 C2158 0.961 . S
H2172 C2158 0.961 . S
H2173 C2159 0.958 . S
H2174 C2159 0.961 . S
H2175 C2159 0.960 . S
C2176 C2177 1.391 . S
C2176 C2178 1.394 . S
C2176 H2192 0.931 . S
C2177 C2176 1.391 . S
C2177 C2181 1.376 . S
C2178 C2176 1.394 . S
C2178 C2179 1.369 . S
C2178 C2182 1.531 . S
C2179 C2178 1.369 . S
C2179 C2180 1.410 . S
C2179 C2187 1.503 . S
C2180 C2179 1.410 . S
C2180 C2181 1.392 . S
C2180 C2183 1.511 . S
C2181 C2177 1.376 . S
C2181 C2180 1.392 . S
C2181 H2193 0.929 . S
C2182 C2178 1.531 . S
C2182 H2194 0.960 . S
C2182 H2195 0.962 . S
C2182 H2196 0.960 . S
C2183 C2180 1.511 . S
C2183 H2197 0.961 . S
C2183 H2198 0.961 . S
C2183 H2199 0.961 . S
C2184 C2185 1.370 . S
C2184 C2186 1.363 . S
C2184 H2200 0.931 . S
C2185 C2184 1.370 . S
C2185 C2189 1.408 . S
C2186 C2184 1.363 . S
C2186 C2187 1.370 . S
C2186 C2190 1.524 . S
C2187 C2179 1.503 . S
C2187 C2186 1.370 . S
C2187 C2188 1.403 . S
C2188 C2187 1.403 . S
C2188 C2189 1.404 . S
C2188 C2191 1.539 . S
C2189 C2185 1.408 . S
C2189 C2188 1.404 . S
C2189 H2201 0.930 . S
C2190 C2186 1.524 . S
C2190 H2202 0.956 . S
C2190 H2203 0.961 . S
C2190 H2204 0.961 . S
C2191 C2188 1.539 . S
C2191 H2205 0.958 . S
C2191 H2206 0.961 . S
C2191 H2207 0.960 . S
H2192 C2176 0.931 . S
H2193 C2181 0.929 . S
H2194 C2182 0.960 . S
H2195 C2182 0.962 . S
H2196 C2182 0.960 . S
H2197 C2183 0.961 . S
H2198 C2183 0.961 . S
H2199 C2183 0.961 . S
H2200 C2184 0.931 . S
H2201 C2189 0.930 . S
H2202 C2190 0.956 . S
H2203 C2190 0.961 . S
H2204 C2190 0.961 . S
H2205 C2191 0.958 . S
H2206 C2191 0.961 . S
H2207 C2191 0.960 . S
C2208 C2209 1.391 . S
C2208 C2210 1.394 . S
C2208 H2224 0.931 . S
C2209 C2208 1.391 . S
C2209 C2213 1.376 . S
C2210 C2208 1.394 . S
C2210 C2211 1.369 . S
C2210 C2214 1.531 . S
C2211 C2210 1.369 . S
C2211 C2212 1.410 . S
C2211 C2219 1.503 . S
C2212 C2211 1.410 . S
C2212 C2213 1.392 . S
C2212 C2215 1.511 . S
C2213 C2209 1.376 . S
C2213 C2212 1.392 . S
C2213 H2225 0.929 . S
C2214 C2210 1.531 . S
C2214 H2226 0.960 . S
C2214 H2227 0.962 . S
C2214 H2228 0.960 . S
C2215 C2212 1.511 . S
C2215 H2229 0.961 . S
C2215 H2230 0.961 . S
C2215 H2231 0.961 . S
C2216 C2217 1.370 . S
C2216 C2218 1.363 . S
C2216 H2232 0.931 . S
C2217 C2216 1.370 . S
C2217 C2221 1.408 . S
C2218 C2216 1.363 . S
C2218 C2219 1.370 . S
C2218 C2222 1.524 . S
C2219 C2211 1.503 . S
C2219 C2218 1.370 . S
C2219 C2220 1.403 . S
C2220 C2219 1.403 . S
C2220 C2221 1.404 . S
C2220 C2223 1.539 . S
C2221 C2217 1.408 . S
C2221 C2220 1.404 . S
C2221 H2233 0.930 . S
C2222 C2218 1.524 . S
C2222 H2234 0.956 . S
C2222 H2235 0.961 . S
C2222 H2236 0.961 . S
C2223 C2220 1.539 . S
C2223 H2237 0.958 . S
C2223 H2238 0.961 1_565 S
C2223 H2239 0.960 . S
H2224 C2208 0.931 . S
H2225 C2213 0.929 . S
H2226 C2214 0.960 . S
H2227 C2214 0.962 . S
H2228 C2214 0.960 . S
H2229 C2215 0.961 . S
H2230 C2215 0.961 . S
H2231 C2215 0.961 . S
H2232 C2216 0.931 . S
H2233 C2221 0.930 . S
H2234 C2222 0.956 . S
H2235 C2222 0.961 . S
H2236 C2222 0.961 . S
H2237 C2223 0.958 . S
H2238 C2223 0.961 1_545 S
H2239 C2223 0.960 . S
C2240 C2241 1.391 . S
C2240 C2242 1.394 . S
C2240 H2256 0.931 1_655 S
C2241 C2240 1.391 . S
C2241 C2245 1.376 . S
C2242 C2240 1.394 . S
C2242 C2243 1.369 . S
C2242 C2246 1.531 . S
C2243 C2242 1.369 . S
C2243 C2244 1.410 . S
C2243 C2251 1.503 . S
C2244 C2243 1.410 . S
C2244 C2245 1.392 . S
C2244 C2247 1.511 . S
C2245 C2241 1.376 . S
C2245 C2244 1.392 . S
C2245 H2257 0.929 . S
C2246 C2242 1.531 . S
C2246 H2258 0.960 . S
C2246 H2259 0.962 . S
C2246 H2260 0.960 1_655 S
C2247 C2244 1.511 . S
C2247 H2261 0.961 . S
C2247 H2262 0.961 . S
C2247 H2263 0.961 . S
C2248 C2249 1.370 . S
C2248 C2250 1.363 . S
C2248 H2264 0.931 . S
C2249 C2248 1.370 . S
C2249 C2253 1.408 . S
C2250 C2248 1.363 . S
C2250 C2251 1.370 . S
C2250 C2254 1.524 . S
C2251 C2243 1.503 . S
C2251 C2250 1.370 . S
C2251 C2252 1.403 . S
C2252 C2251 1.403 . S
C2252 C2253 1.404 . S
C2252 C2255 1.539 . S
C2253 C2249 1.408 . S
C2253 C2252 1.404 . S
C2253 H2265 0.930 . S
C2254 C2250 1.524 . S
C2254 H2266 0.956 . S
C2254 H2267 0.961 . S
C2254 H2268 0.961 . S
C2255 C2252 1.539 . S
C2255 H2269 0.958 . S
C2255 H2270 0.961 . S
C2255 H2271 0.960 . S
H2256 C2240 0.931 1_455 S
H2257 C2245 0.929 . S
H2258 C2246 0.960 . S
H2259 C2246 0.962 . S
H2260 C2246 0.960 1_455 S
H2261 C2247 0.961 . S
H2262 C2247 0.961 . S
H2263 C2247 0.961 . S
H2264 C2248 0.931 . S
H2265 C2253 0.930 . S
H2266 C2254 0.956 . S
H2267 C2254 0.961 . S
H2268 C2254 0.961 . S
H2269 C2255 0.958 . S
H2270 C2255 0.961 . S
H2271 C2255 0.960 . S
C2272 C2273 1.391 . S
C2272 C2274 1.394 . S
C2272 H2288 0.931 . S
C2273 C2272 1.391 . S
C2273 C2277 1.376 . S
C2274 C2272 1.394 . S
C2274 C2275 1.369 . S
C2274 C2278 1.531 . S
C2275 C2274 1.369 . S
C2275 C2276 1.410 . S
C2275 C2283 1.503 . S
C2276 C2275 1.410 . S
C2276 C2277 1.392 . S
C2276 C2279 1.511 . S
C2277 C2273 1.376 . S
C2277 C2276 1.392 . S
C2277 H2289 0.929 . S
C2278 C2274 1.531 . S
C2278 H2290 0.960 . S
C2278 H2291 0.962 . S
C2278 H2292 0.960 . S
C2279 C2276 1.511 . S
C2279 H2293 0.961 . S
C2279 H2294 0.961 . S
C2279 H2295 0.961 . S
C2280 C2281 1.370 . S
C2280 C2282 1.363 . S
C2280 H2296 0.939 . S
C2281 C2280 1.370 . S
C2281 C2285 1.408 . S
C2282 C2280 1.363 . S
C2282 C2283 1.370 . S
C2282 C2286 1.524 . S
C2283 C2275 1.503 . S
C2283 C2282 1.370 . S
C2283 C2284 1.403 . S
C2284 C2283 1.403 . S
C2284 C2285 1.404 . S
C2284 C2287 1.539 . S
C2285 C2281 1.408 . S
C2285 C2284 1.404 . S
C2285 H2297 0.930 . S
C2286 C2282 1.524 . S
C2286 H2298 0.956 . S
C2286 H2299 0.961 . S
C2286 H2300 0.961 1_455 S
C2287 C2284 1.539 . S
C2287 H2301 0.958 . S
C2287 H2302 0.961 . S
C2287 H2303 0.960 . S
H2288 C2272 0.931 . S
H2289 C2277 0.929 . S
H2290 C2278 0.960 . S
H2291 C2278 0.962 . S
H2292 C2278 0.960 . S
H2293 C2279 0.961 . S
H2294 C2279 0.961 . S
H2295 C2279 0.961 . S
H2296 C2280 0.939 . S
H2297 C2285 0.930 . S
H2298 C2286 0.956 . S
H2299 C2286 0.961 . S
H2300 C2286 0.961 1_655 S
H2301 C2287 0.958 . S
H2302 C2287 0.961 . S
H2303 C2287 0.960 . S
C2304 C2305 1.391 . S
C2304 C2306 1.394 . S
C2304 H2320 0.931 . S
C2305 C2304 1.391 . S
C2305 C2309 1.376 . S
C2306 C2304 1.394 . S
C2306 C2307 1.369 . S
C2306 C2310 1.531 . S
C2307 C2306 1.369 . S
C2307 C2308 1.410 . S
C2307 C2315 1.503 . S
C2308 C2307 1.410 . S
C2308 C2309 1.392 . S
C2308 C2311 1.511 . S
C2309 C2305 1.376 . S
C2309 C2308 1.392 . S
C2309 H2321 0.929 . S
C2310 C2306 1.531 . S
C2310 H2322 0.960 . S
C2310 H2323 0.962 . S
C2310 H2324 0.960 . S
C2311 C2308 1.511 . S
C2311 H2325 0.961 . S
C2311 H2326 0.961 . S
C2311 H2327 0.961 . S
C2312 C2313 1.370 . S
C2312 C2314 1.363 . S
C2312 H2328 0.931 . S
C2313 C2312 1.370 . S
C2313 C2317 1.408 . S
C2314 C2312 1.363 . S
C2314 C2315 1.370 . S
C2314 C2318 1.524 . S
C2315 C2307 1.503 . S
C2315 C2314 1.370 . S
C2315 C2316 1.403 . S
C2316 C2315 1.403 . S
C2316 C2317 1.404 . S
C2316 C2319 1.539 . S
C2317 C2313 1.408 . S
C2317 C2316 1.404 . S
C2317 H2329 0.930 . S
C2318 C2314 1.524 . S
C2318 H2330 0.956 . S
C2318 H2331 0.961 . S
C2318 H2332 0.961 . S
C2319 C2316 1.539 . S
C2319 H2333 0.958 . S
C2319 H2334 0.961 . S
C2319 H2335 0.960 . S
H2320 C2304 0.931 . S
H2321 C2309 0.929 . S
H2322 C2310 0.960 . S
H2323 C2310 0.962 . S
H2324 C2310 0.960 . S
H2325 C2311 0.961 . S
H2326 C2311 0.961 . S
H2327 C2311 0.961 . S
H2328 C2312 0.931 . S
H2329 C2317 0.930 . S
H2330 C2318 0.956 . S
H2331 C2318 0.961 . S
H2332 C2318 0.961 . S
H2333 C2319 0.958 . S
H2334 C2319 0.961 . S
H2335 C2319 0.960 . S
C2336 C2337 1.391 . S
C2336 C2338 1.394 . S
C2336 H2352 0.931 . S
C2337 C2336 1.391 . S
C2337 C2341 1.376 . S
C2338 C2336 1.394 . S
C2338 C2339 1.369 . S
C2338 C2342 1.531 . S
C2339 C2338 1.369 . S
C2339 C2340 1.410 . S
C2339 C2347 1.503 . S
C2340 C2339 1.410 . S
C2340 C2341 1.392 . S
C2340 C2343 1.511 . S
C2341 C2337 1.376 . S
C2341 C2340 1.392 . S
C2341 H2353 0.929 . S
C2342 C2338 1.531 . S
C2342 H2354 0.960 . S
C2342 H2355 0.962 . S
C2342 H2356 0.960 . S
C2343 C2340 1.511 . S
C2343 H2357 0.961 . S
C2343 H2358 0.961 . S
C2343 H2359 0.961 . S
C2344 C2345 1.370 . S
C2344 C2346 1.363 . S
C2344 H2360 0.931 . S
C2345 C2344 1.370 . S
C2345 C2349 1.408 . S
C2346 C2344 1.363 . S
C2346 C2347 1.370 . S
C2346 C2350 1.524 . S
C2347 C2339 1.503 . S
C2347 C2346 1.370 . S
C2347 C2348 1.403 . S
C2348 C2347 1.403 . S
C2348 C2349 1.404 . S
C2348 C2351 1.539 . S
C2349 C2345 1.408 . S
C2349 C2348 1.404 . S
C2349 H2361 0.930 . S
C2350 C2346 1.524 . S
C2350 H2362 0.956 . S
C2350 H2363 0.961 . S
C2350 H2364 0.961 . S
C2351 C2348 1.539 . S
C2351 H2365 0.958 . S
C2351 H2366 0.961 . S
C2351 H2367 0.960 . S
H2352 C2336 0.931 . S
H2353 C2341 0.929 . S
H2354 C2342 0.960 . S
H2355 C2342 0.962 . S
H2356 C2342 0.960 . S
H2357 C2343 0.961 . S
H2358 C2343 0.961 . S
H2359 C2343 0.961 . S
H2360 C2344 0.931 . S
H2361 C2349 0.930 . S
H2362 C2350 0.956 . S
H2363 C2350 0.961 . S
H2364 C2350 0.961 . S
H2365 C2351 0.958 . S
H2366 C2351 0.961 . S
H2367 C2351 0.960 . S
C2368 C2369 1.391 . S
C2368 C2370 1.394 . S
C2368 H2384 0.931 . S
C2369 C2368 1.391 . S
C2369 C2373 1.376 . S
C2370 C2368 1.394 . S
C2370 C2371 1.369 . S
C2370 C2374 1.531 . S
C2371 C2370 1.369 . S
C2371 C2372 1.410 . S
C2371 C2379 1.503 . S
C2372 C2371 1.410 . S
C2372 C2373 1.392 . S
C2372 C2375 1.511 . S
C2373 C2369 1.376 . S
C2373 C2372 1.392 . S
C2373 H2385 0.929 . S
C2374 C2370 1.531 . S
C2374 H2386 0.960 . S
C2374 H2387 0.962 . S
C2374 H2388 0.960 . S
C2375 C2372 1.511 . S
C2375 H2389 0.961 . S
C2375 H2390 0.961 . S
C2375 H2391 0.961 . S
C2376 C2377 1.370 . S
C2376 C2378 1.363 . S
C2376 H2392 0.931 . S
C2377 C2376 1.370 . S
C2377 C2381 1.408 . S
C2378 C2376 1.363 . S
C2378 C2379 1.370 . S
C2378 C2382 1.524 . S
C2379 C2371 1.503 . S
C2379 C2378 1.370 . S
C2379 C2380 1.403 . S
C2380 C2379 1.403 . S
C2380 C2381 1.404 . S
C2380 C2383 1.539 . S
C2381 C2377 1.408 . S
C2381 C2380 1.404 . S
C2381 H2393 0.930 . S
C2382 C2378 1.524 . S
C2382 H2394 0.956 . S
C2382 H2395 0.961 . S
C2382 H2396 0.961 . S
C2383 C2380 1.539 . S
C2383 H2397 0.958 . S
C2383 H2398 0.961 . S
C2383 H2399 0.960 . S
H2384 C2368 0.931 . S
H2385 C2373 0.929 . S
H2386 C2374 0.960 . S
H2387 C2374 0.962 . S
H2388 C2374 0.960 . S
H2389 C2375 0.961 . S
H2390 C2375 0.961 . S
H2391 C2375 0.961 . S
H2392 C2376 0.931 . S
H2393 C2381 0.930 . S
H2394 C2382 0.956 . S
H2395 C2382 0.961 . S
H2396 C2382 0.961 . S
H2397 C2383 0.958 . S
H2398 C2383 0.961 . S
H2399 C2383 0.960 . S
C2400 C2401 1.391 . S
C2400 C2402 1.394 . S
C2400 H2416 0.931 . S
C2401 C2400 1.391 . S
C2401 C2405 1.376 . S
C2402 C2400 1.394 . S
C2402 C2403 1.369 . S
C2402 C2406 1.531 . S
C2403 C2402 1.369 . S
C2403 C2404 1.410 . S
C2403 C2411 1.503 . S
C2404 C2403 1.410 . S
C2404 C2405 1.392 . S
C2404 C2407 1.511 . S
C2405 C2401 1.376 . S
C2405 C2404 1.392 . S
C2405 H2417 0.929 . S
C2406 C2402 1.531 . S
C2406 H2418 0.960 . S
C2406 H2419 0.962 . S
C2406 H2420 0.960 . S
C2407 C2404 1.511 . S
C2407 H2421 0.961 . S
C2407 H2422 0.961 . S
C2407 H2423 0.961 . S
C2408 C2409 1.370 . S
C2408 C2410 1.363 . S
C2408 H2424 0.931 . S
C2409 C2408 1.370 . S
C2409 C2413 1.408 . S
C2410 C2408 1.363 . S
C2410 C2411 1.370 . S
C2410 C2414 1.524 . S
C2411 C2403 1.503 . S
C2411 C2410 1.370 . S
C2411 C2412 1.403 . S
C2412 C2411 1.403 . S
C2412 C2413 1.404 . S
C2412 C2415 1.539 . S
C2413 C2409 1.408 . S
C2413 C2412 1.404 . S
C2413 H2425 0.930 . S
C2414 C2410 1.524 . S
C2414 H2426 0.956 . S
C2414 H2427 0.961 . S
C2414 H2428 0.961 . S
C2415 C2412 1.539 . S
C2415 H2429 0.958 . S
C2415 H2430 0.961 . S
C2415 H2431 0.960 . S
H2416 C2400 0.931 . S
H2417 C2405 0.929 . S
H2418 C2406 0.960 . S
H2419 C2406 0.962 . S
H2420 C2406 0.960 . S
H2421 C2407 0.961 . S
H2422 C2407 0.961 . S
H2423 C2407 0.961 . S
H2424 C2408 0.931 . S
H2425 C2413 0.930 . S
H2426 C2414 0.956 . S
H2427 C2414 0.961 . S
H2428 C2414 0.961 . S
H2429 C2415 0.958 . S
H2430 C2415 0.961 . S
H2431 C2415 0.960 . S
C2432 C2433 1.391 . S
C2432 C2434 1.394 . S
C2432 H2448 0.931 . S
C2433 C2432 1.391 . S
C2433 C2437 1.376 . S
C2434 C2432 1.394 . S
C2434 C2435 1.369 . S
C2434 C2438 1.531 . S
C2435 C2434 1.369 . S
C2435 C2436 1.410 . S
C2435 C2443 1.503 . S
C2436 C2435 1.410 . S
C2436 C2437 1.392 . S
C2436 C2439 1.511 . S
C2437 C2433 1.376 . S
C2437 C2436 1.392 . S
C2437 H2449 0.929 . S
C2438 C2434 1.531 . S
C2438 H2450 0.960 . S
C2438 H2451 0.962 . S
C2438 H2452 0.960 . S
C2439 C2436 1.511 . S
C2439 H2453 0.961 . S
C2439 H2454 0.961 . S
C2439 H2455 0.961 . S
C2440 C2441 1.370 . S
C2440 C2442 1.363 . S
C2440 H2456 0.931 . S
C2441 C2440 1.370 . S
C2441 C2445 1.408 . S
C2442 C2440 1.363 . S
C2442 C2443 1.370 . S
C2442 C2446 1.524 . S
C2443 C2435 1.503 . S
C2443 C2442 1.370 . S
C2443 C2444 1.403 . S
C2444 C2443 1.403 . S
C2444 C2445 1.404 . S
C2444 C2447 1.539 . S
C2445 C2441 1.408 . S
C2445 C2444 1.404 . S
C2445 H2457 0.930 . S
C2446 C2442 1.524 . S
C2446 H2458 0.956 . S
C2446 H2459 0.961 . S
C2446 H2460 0.961 . S
C2447 C2444 1.539 . S
C2447 H2461 0.958 . S
C2447 H2462 0.961 . S
C2447 H2463 0.960 . S
H2448 C2432 0.931 . S
H2449 C2437 0.929 . S
H2450 C2438 0.960 . S
H2451 C2438 0.962 . S
H2452 C2438 0.960 . S
H2453 C2439 0.961 . S
H2454 C2439 0.961 . S
H2455 C2439 0.961 . S
H2456 C2440 0.931 . S
H2457 C2445 0.930 . S
H2458 C2446 0.956 . S
H2459 C2446 0.961 . S
H2460 C2446 0.961 . S
H2461 C2447 0.958 . S
H2462 C2447 0.961 . S
H2463 C2447 0.960 . S
C2464 C2465 1.391 . S
C2464 C2466 1.394 . S
C2464 H2480 0.931 . S
C2465 C2464 1.391 . S
C2465 C2469 1.376 . S
C2466 C2464 1.394 . S
C2466 C2467 1.369 . S
C2466 C2470 1.531 . S
C2467 C2466 1.369 . S
C2467 C2468 1.410 . S
C2467 C2475 1.503 . S
C2468 C2467 1.410 . S
C2468 C2469 1.392 . S
C2468 C2471 1.511 . S
C2469 C2465 1.376 . S
C2469 C2468 1.392 . S
C2469 H2481 0.929 . S
C2470 C2466 1.531 . S
C2470 H2482 0.960 . S
C2470 H2483 0.962 . S
C2470 H2484 0.960 . S
C2471 C2468 1.511 . S
C2471 H2485 0.961 . S
C2471 H2486 0.961 . S
C2471 H2487 0.961 . S
C2472 C2473 1.370 . S
C2472 C2474 1.363 . S
C2472 H2488 0.931 . S
C2473 C2472 1.370 . S
C2473 C2477 1.408 . S
C2474 C2472 1.363 . S
C2474 C2475 1.370 . S
C2474 C2478 1.524 . S
C2475 C2467 1.503 . S
C2475 C2474 1.370 . S
C2475 C2476 1.403 . S
C2476 C2475 1.403 . S
C2476 C2477 1.404 . S
C2476 C2479 1.539 . S
C2477 C2473 1.408 . S
C2477 C2476 1.404 . S
C2477 H2489 0.930 . S
C2478 C2474 1.524 . S
C2478 H2490 0.956 . S
C2478 H2491 0.961 . S
C2478 H2492 0.961 . S
C2479 C2476 1.539 . S
C2479 H2493 0.958 . S
C2479 H2494 0.961 . S
C2479 H2495 0.960 . S
H2480 C2464 0.931 . S
H2481 C2469 0.929 . S
H2482 C2470 0.960 . S
H2483 C2470 0.962 . S
H2484 C2470 0.960 . S
H2485 C2471 0.961 . S
H2486 C2471 0.961 . S
H2487 C2471 0.961 . S
H2488 C2472 0.931 . S
H2489 C2477 0.930 . S
H2490 C2478 0.956 . S
H2491 C2478 0.961 . S
H2492 C2478 0.961 . S
H2493 C2479 0.958 . S
H2494 C2479 0.961 . S
H2495 C2479 0.960 . S
C2496 C2497 1.391 . S
C2496 C2498 1.394 . S
C2496 H2512 0.931 1_655 S
C2497 C2496 1.391 . S
C2497 C2501 1.376 . S
C2498 C2496 1.394 . S
C2498 C2499 1.369 . S
C2498 C2502 1.531 . S
C2499 C2498 1.369 . S
C2499 C2500 1.410 . S
C2499 C2507 1.503 . S
C2500 C2499 1.410 . S
C2500 C2501 1.392 . S
C2500 C2503 1.511 . S
C2501 C2497 1.376 . S
C2501 C2500 1.392 . S
C2501 H2513 0.929 . S
C2502 C2498 1.531 . S
C2502 H2514 0.960 . S
C2502 H2515 0.962 1_655 S
C2502 H2516 0.960 1_655 S
C2503 C2500 1.511 . S
C2503 H2517 0.961 . S
C2503 H2518 0.961 . S
C2503 H2519 0.961 . S
C2504 C2505 1.370 . S
C2504 C2506 1.363 . S
C2504 H2520 0.931 . S
C2505 C2504 1.370 . S
C2505 C2509 1.408 . S
C2506 C2504 1.363 . S
C2506 C2507 1.370 . S
C2506 C2510 1.524 . S
C2507 C2499 1.503 . S
C2507 C2506 1.370 . S
C2507 C2508 1.403 . S
C2508 C2507 1.403 . S
C2508 C2509 1.404 . S
C2508 C2511 1.539 . S
C2509 C2505 1.408 . S
C2509 C2508 1.404 . S
C2509 H2521 0.930 . S
C2510 C2506 1.524 . S
C2510 H2522 0.956 . S
C2510 H2523 0.961 . S
C2510 H2524 0.961 . S
C2511 C2508 1.539 . S
C2511 H2525 0.958 . S
C2511 H2526 0.961 . S
C2511 H2527 0.960 . S
H2512 C2496 0.931 1_455 S
H2513 C2501 0.929 . S
H2514 C2502 0.960 . S
H2515 C2502 0.962 1_455 S
H2516 C2502 0.960 1_455 S
H2517 C2503 0.961 . S
H2518 C2503 0.961 . S
H2519 C2503 0.961 . S
H2520 C2504 0.931 . S
H2521 C2509 0.930 . S
H2522 C2510 0.956 . S
H2523 C2510 0.961 . S
H2524 C2510 0.961 . S
H2525 C2511 0.958 . S
H2526 C2511 0.961 . S
H2527 C2511 0.960 . S
C2528 C2529 1.391 . S
C2528 C2530 1.394 . S
C2528 H2544 0.931 . S
C2529 C2528 1.391 . S
C2529 C2533 1.376 . S
C2530 C2528 1.394 . S
C2530 C2531 1.369 . S
C2530 C2534 1.531 . S
C2531 C2530 1.369 . S
C2531 C2532 1.410 . S
C2531 C2539 1.503 . S
C2532 C2531 1.410 . S
C2532 C2533 1.392 . S
C2532 C2535 1.511 . S
C2533 C2529 1.376 . S
C2533 C2532 1.392 . S
C2533 H2545 0.929 . S
C2534 C2530 1.531 . S
C2534 H2546 0.960 . S
C2534 H2547 0.962 . S
C2534 H2548 0.960 . S
C2535 C2532 1.511 . S
C2535 H2549 0.961 . S
C2535 H2550 0.961 . S
C2535 H2551 0.961 . S
C2536 C2537 1.370 . S
C2536 C2538 1.363 . S
C2536 H2552 0.931 . S
C2537 C2536 1.370 . S
C2537 C2541 1.408 . S
C2538 C2536 1.363 . S
C2538 C2539 1.370 . S
C2538 C2542 1.524 . S
C2539 C2531 1.503 . S
C2539 C2538 1.370 . S
C2539 C2540 1.403 . S
C2540 C2539 1.403 . S
C2540 C2541 1.404 . S
C2540 C2543 1.539 . S
C2541 C2537 1.408 . S
C2541 C2540 1.404 . S
C2541 H2553 0.930 . S
C2542 C2538 1.524 . S
C2542 H2554 0.956 . S
C2542 H2555 0.961 . S
C2542 H2556 0.961 . S
C2543 C2540 1.539 . S
C2543 H2557 0.958 . S
C2543 H2558 0.961 . S
C2543 H2559 0.960 . S
H2544 C2528 0.931 . S
H2545 C2533 0.929 . S
H2546 C2534 0.960 . S
H2547 C2534 0.962 . S
H2548 C2534 0.960 . S
H2549 C2535 0.961 . S
H2550 C2535 0.961 . S
H2551 C2535 0.961 . S
H2552 C2536 0.931 . S
H2553 C2541 0.930 . S
H2554 C2542 0.956 . S
H2555 C2542 0.961 . S
H2556 C2542 0.961 . S
H2557 C2543 0.958 . S
H2558 C2543 0.961 . S
H2559 C2543 0.960 . S
C2560 C2561 1.391 . S
C2560 C2562 1.394 . S
C2560 H2576 0.931 . S
C2561 C2560 1.391 . S
C2561 C2565 1.376 . S
C2562 C2560 1.394 . S
C2562 C2563 1.369 . S
C2562 C2566 1.531 . S
C2563 C2562 1.369 . S
C2563 C2564 1.410 . S
C2563 C2571 1.503 . S
C2564 C2563 1.410 . S
C2564 C2565 1.392 . S
C2564 C2567 1.511 . S
C2565 C2561 1.376 . S
C2565 C2564 1.392 . S
C2565 H2577 0.929 . S
C2566 C2562 1.531 . S
C2566 H2578 0.960 . S
C2566 H2579 0.962 . S
C2566 H2580 0.960 . S
C2567 C2564 1.511 . S
C2567 H2581 0.961 . S
C2567 H2582 0.961 . S
C2567 H2583 0.961 . S
C2568 C2569 1.370 . S
C2568 C2570 1.363 . S
C2568 H2584 0.931 . S
C2569 C2568 1.370 . S
C2569 C2573 1.408 . S
C2570 C2568 1.363 . S
C2570 C2571 1.370 . S
C2570 C2574 1.524 . S
C2571 C2563 1.503 . S
C2571 C2570 1.370 . S
C2571 C2572 1.403 . S
C2572 C2571 1.403 . S
C2572 C2573 1.404 . S
C2572 C2575 1.539 . S
C2573 C2569 1.408 . S
C2573 C2572 1.404 . S
C2573 H2585 0.930 . S
C2574 C2570 1.524 . S
C2574 H2586 0.956 . S
C2574 H2587 0.961 . S
C2574 H2588 0.961 . S
C2575 C2572 1.539 . S
C2575 H2589 0.958 . S
C2575 H2590 0.961 . S
C2575 H2591 0.960 . S
H2576 C2560 0.931 . S
H2577 C2565 0.929 . S
H2578 C2566 0.960 . S
H2579 C2566 0.962 . S
H2580 C2566 0.960 . S
H2581 C2567 0.961 . S
H2582 C2567 0.961 . S
H2583 C2567 0.961 . S
H2584 C2568 0.931 . S
H2585 C2573 0.930 . S
H2586 C2574 0.956 . S
H2587 C2574 0.961 . S
H2588 C2574 0.961 . S
H2589 C2575 0.958 . S
H2590 C2575 0.961 . S
H2591 C2575 0.960 . S
C2592 C2593 1.391 . S
C2592 C2594 1.394 . S
C2592 H2608 0.931 . S
C2593 C2592 1.391 . S
C2593 C2597 1.376 . S
C2594 C2592 1.394 . S
C2594 C2595 1.369 . S
C2594 C2598 1.531 . S
C2595 C2594 1.369 . S
C2595 C2596 1.410 . S
C2595 C2603 1.503 . S
C2596 C2595 1.410 . S
C2596 C2597 1.392 . S
C2596 C2599 1.511 . S
C2597 C2593 1.376 . S
C2597 C2596 1.392 . S
C2597 H2609 0.929 . S
C2598 C2594 1.531 . S
C2598 H2610 0.960 . S
C2598 H2611 0.962 . S
C2598 H2612 0.960 . S
C2599 C2596 1.511 . S
C2599 H2613 0.961 . S
C2599 H2614 0.961 . S
C2599 H2615 0.961 . S
C2600 C2601 1.370 . S
C2600 C2602 1.363 . S
C2600 H2616 0.931 . S
C2601 C2600 1.370 . S
C2601 C2605 1.408 . S
C2602 C2600 1.363 . S
C2602 C2603 1.370 . S
C2602 C2606 1.524 . S
C2603 C2595 1.503 . S
C2603 C2602 1.370 . S
C2603 C2604 1.403 . S
C2604 C2603 1.403 . S
C2604 C2605 1.404 . S
C2604 C2607 1.539 . S
C2605 C2601 1.408 . S
C2605 C2604 1.404 . S
C2605 H2617 0.930 . S
C2606 C2602 1.524 . S
C2606 H2618 0.956 . S
C2606 H2619 0.961 . S
C2606 H2620 0.961 . S
C2607 C2604 1.539 . S
C2607 H2621 0.958 . S
C2607 H2622 0.961 . S
C2607 H2623 0.960 . S
H2608 C2592 0.931 . S
H2609 C2597 0.929 . S
H2610 C2598 0.960 . S
H2611 C2598 0.962 . S
H2612 C2598 0.960 . S
H2613 C2599 0.961 . S
H2614 C2599 0.961 . S
H2615 C2599 0.961 . S
H2616 C2600 0.931 . S
H2617 C2605 0.930 . S
H2618 C2606 0.956 . S
H2619 C2606 0.961 . S
H2620 C2606 0.961 . S
H2621 C2607 0.958 . S
H2622 C2607 0.961 . S
H2623 C2607 0.960 . S
C2624 C2625 1.391 . S
C2624 C2626 1.394 . S
C2624 H2640 0.931 . S
C2625 C2624 1.391 . S
C2625 C2629 1.376 . S
C2626 C2624 1.394 . S
C2626 C2627 1.369 . S
C2626 C2630 1.531 . S
C2627 C2626 1.369 . S
C2627 C2628 1.410 . S
C2627 C2635 1.503 . S
C2628 C2627 1.410 . S
C2628 C2629 1.392 . S
C2628 C2631 1.511 . S
C2629 C2625 1.376 . S
C2629 C2628 1.392 . S
C2629 H2641 0.929 . S
C2630 C2626 1.531 . S
C2630 H2642 0.960 . S
C2630 H2643 0.962 . S
C2630 H2644 0.960 . S
C2631 C2628 1.511 . S
C2631 H2645 0.961 . S
C2631 H2646 0.961 . S
C2631 H2647 0.961 . S
C2632 C2633 1.370 . S
C2632 C2634 1.363 . S
C2632 H2648 0.931 . S
C2633 C2632 1.370 . S
C2633 C2637 1.408 . S
C2634 C2632 1.363 . S
C2634 C2635 1.370 . S
C2634 C2638 1.524 . S
C2635 C2627 1.503 . S
C2635 C2634 1.370 . S
C2635 C2636 1.403 . S
C2636 C2635 1.403 . S
C2636 C2637 1.404 . S
C2636 C2639 1.539 . S
C2637 C2633 1.408 . S
C2637 C2636 1.404 . S
C2637 H2649 0.930 . S
C2638 C2634 1.524 . S
C2638 H2650 0.956 . S
C2638 H2651 0.961 . S
C2638 H2652 0.961 . S
C2639 C2636 1.539 . S
C2639 H2653 0.958 . S
C2639 H2654 0.961 . S
C2639 H2655 0.960 . S
H2640 C2624 0.931 . S
H2641 C2629 0.929 . S
H2642 C2630 0.960 . S
H2643 C2630 0.962 . S
H2644 C2630 0.960 . S
H2645 C2631 0.961 . S
H2646 C2631 0.961 . S
H2647 C2631 0.961 . S
H2648 C2632 0.931 . S
H2649 C2637 0.930 . S
H2650 C2638 0.956 . S
H2651 C2638 0.961 . S
H2652 C2638 0.961 . S
H2653 C2639 0.958 . S
H2654 C2639 0.961 . S
H2655 C2639 0.960 . S
C2656 C2657 1.391 . S
C2656 C2658 1.394 . S
C2656 H2672 0.931 . S
C2657 C2656 1.391 . S
C2657 C2661 1.376 . S
C2658 C2656 1.394 . S
C2658 C2659 1.369 . S
C2658 C2662 1.531 . S
C2659 C2658 1.369 . S
C2659 C2660 1.410 . S
C2659 C2667 1.503 . S
C2660 C2659 1.410 . S
C2660 C2661 1.392 . S
C2660 C2663 1.511 . S
C2661 C2657 1.376 . S
C2661 C2660 1.392 . S
C2661 H2673 0.929 . S
C2662 C2658 1.531 . S
C2662 H2674 0.960 . S
C2662 H2675 0.962 . S
C2662 H2676 0.960 . S
C2663 C2660 1.511 . S
C2663 H2677 0.961 . S
C2663 H2678 0.961 . S
C2663 H2679 0.961 . S
C2664 C2665 1.370 . S
C2664 C2666 1.363 . S
C2664 H2680 0.931 . S
C2665 C2664 1.370 . S
C2665 C2669 1.408 . S
C2666 C2664 1.363 . S
C2666 C2667 1.370 . S
C2666 C2670 1.524 . S
C2667 C2659 1.503 . S
C2667 C2666 1.370 . S
C2667 C2668 1.403 . S
C2668 C2667 1.403 . S
C2668 C2669 1.404 . S
C2668 C2671 1.539 . S
C2669 C2665 1.408 . S
C2669 C2668 1.404 . S
C2669 H2681 0.930 . S
C2670 C2666 1.524 . S
C2670 H2682 0.956 . S
C2670 H2683 0.961 . S
C2670 H2684 0.961 . S
C2671 C2668 1.539 . S
C2671 H2685 0.958 . S
C2671 H2686 0.961 . S
C2671 H2687 0.960 . S
H2672 C2656 0.931 . S
H2673 C2661 0.929 . S
H2674 C2662 0.960 . S
H2675 C2662 0.962 . S
H2676 C2662 0.960 . S
H2677 C2663 0.961 . S
H2678 C2663 0.961 . S
H2679 C2663 0.961 . S
H2680 C2664 0.931 . S
H2681 C2669 0.930 . S
H2682 C2670 0.956 . S
H2683 C2670 0.961 . S
H2684 C2670 0.961 . S
H2685 C2671 0.958 . S
H2686 C2671 0.961 . S
H2687 C2671 0.960 . S
C2688 C2689 1.391 . S
C2688 C2690 1.394 . S
C2688 H2704 0.931 . S
C2689 C2688 1.391 . S
C2689 C2693 1.376 . S
C2690 C2688 1.394 . S
C2690 C2691 1.369 . S
C2690 C2694 1.531 . S
C2691 C2690 1.369 . S
C2691 C2692 1.410 . S
C2691 C2699 1.503 . S
C2692 C2691 1.410 . S
C2692 C2693 1.392 . S
C2692 C2695 1.511 . S
C2693 C2689 1.376 . S
C2693 C2692 1.392 . S
C2693 H2705 0.929 . S
C2694 C2690 1.531 . S
C2694 H2706 0.960 . S
C2694 H2707 0.962 . S
C2694 H2708 0.960 . S
C2695 C2692 1.511 . S
C2695 H2709 0.961 . S
C2695 H2710 0.961 . S
C2695 H2711 0.961 . S
C2696 C2697 1.370 . S
C2696 C2698 1.363 . S
C2696 H2712 0.931 . S
C2697 C2696 1.370 . S
C2697 C2701 1.408 . S
C2698 C2696 1.363 . S
C2698 C2699 1.370 . S
C2698 C2702 1.524 . S
C2699 C2691 1.503 . S
C2699 C2698 1.370 . S
C2699 C2700 1.403 . S
C2700 C2699 1.403 . S
C2700 C2701 1.404 . S
C2700 C2703 1.539 . S
C2701 C2697 1.408 . S
C2701 C2700 1.404 . S
C2701 H2713 0.930 . S
C2702 C2698 1.524 . S
C2702 H2714 0.956 . S
C2702 H2715 0.961 . S
C2702 H2716 0.961 . S
C2703 C2700 1.539 . S
C2703 H2717 0.958 . S
C2703 H2718 0.961 . S
C2703 H2719 0.960 . S
H2704 C2688 0.931 . S
H2705 C2693 0.929 . S
H2706 C2694 0.960 . S
H2707 C2694 0.962 . S
H2708 C2694 0.960 . S
H2709 C2695 0.961 . S
H2710 C2695 0.961 . S
H2711 C2695 0.961 . S
H2712 C2696 0.931 . S
H2713 C2701 0.930 . S
H2714 C2702 0.956 . S
H2715 C2702 0.961 . S
H2716 C2702 0.961 . S
H2717 C2703 0.958 . S
H2718 C2703 0.961 . S
H2719 C2703 0.960 . S
C2720 C2721 1.391 . S
C2720 C2722 1.394 . S
C2720 H2736 0.931 . S
C2721 C2720 1.391 . S
C2721 C2725 1.376 . S
C2722 C2720 1.394 . S
C2722 C2723 1.369 . S
C2722 C2726 1.531 . S
C2723 C2722 1.369 . S
C2723 C2724 1.410 . S
C2723 C2731 1.503 . S
C2724 C2723 1.410 . S
C2724 C2725 1.392 . S
C2724 C2727 1.511 . S
C2725 C2721 1.376 . S
C2725 C2724 1.392 . S
C2725 H2737 0.929 . S
C2726 C2722 1.531 . S
C2726 H2738 0.960 . S
C2726 H2739 0.962 . S
C2726 H2740 0.960 . S
C2727 C2724 1.511 . S
C2727 H2741 0.961 . S
C2727 H2742 0.961 . S
C2727 H2743 0.961 . S
C2728 C2729 1.370 . S
C2728 C2730 1.363 . S
C2728 H2744 0.931 . S
C2729 C2728 1.370 . S
C2729 C2733 1.408 . S
C2730 C2728 1.363 . S
C2730 C2731 1.370 . S
C2730 C2734 1.524 . S
C2731 C2723 1.503 . S
C2731 C2730 1.370 . S
C2731 C2732 1.403 . S
C2732 C2731 1.403 . S
C2732 C2733 1.404 . S
C2732 C2735 1.539 . S
C2733 C2729 1.408 . S
C2733 C2732 1.404 . S
C2733 H2745 0.930 . S
C2734 C2730 1.524 . S
C2734 H2746 0.956 . S
C2734 H2747 0.961 . S
C2734 H2748 0.961 . S
C2735 C2732 1.539 . S
C2735 H2749 0.958 . S
C2735 H2750 0.961 . S
C2735 H2751 0.960 . S
H2736 C2720 0.931 . S
H2737 C2725 0.929 . S
H2738 C2726 0.960 . S
H2739 C2726 0.962 . S
H2740 C2726 0.960 . S
H2741 C2727 0.961 . S
H2742 C2727 0.961 . S
H2743 C2727 0.961 . S
H2744 C2728 0.931 . S
H2745 C2733 0.930 . S
H2746 C2734 0.956 . S
H2747 C2734 0.961 . S
H2748 C2734 0.961 . S
H2749 C2735 0.958 . S
H2750 C2735 0.961 . S
H2751 C2735 0.960 . S
C2752 C2753 1.391 . S
C2752 C2754 1.394 . S
C2752 H2768 0.931 . S
C2753 C2752 1.391 . S
C2753 C2757 1.376 . S
C2754 C2752 1.394 . S
C2754 C2755 1.369 . S
C2754 C2758 1.531 . S
C2755 C2754 1.369 . S
C2755 C2756 1.410 . S
C2755 C2763 1.503 . S
C2756 C2755 1.410 . S
C2756 C2757 1.392 . S
C2756 C2759 1.511 . S
C2757 C2753 1.376 . S
C2757 C2756 1.392 . S
C2757 H2769 0.929 . S
C2758 C2754 1.531 . S
C2758 H2770 0.960 . S
C2758 H2771 0.962 . S
C2758 H2772 0.960 . S
C2759 C2756 1.511 . S
C2759 H2773 0.961 . S
C2759 H2774 0.961 . S
C2759 H2775 0.961 . S
C2760 C2761 1.370 . S
C2760 C2762 1.363 . S
C2760 H2776 0.931 . S
C2761 C2760 1.370 . S
C2761 C2765 1.408 . S
C2762 C2760 1.363 . S
C2762 C2763 1.370 . S
C2762 C2766 1.524 . S
C2763 C2755 1.503 . S
C2763 C2762 1.370 . S
C2763 C2764 1.403 . S
C2764 C2763 1.403 . S
C2764 C2765 1.404 . S
C2764 C2767 1.539 . S
C2765 C2761 1.408 . S
C2765 C2764 1.404 . S
C2765 H2777 0.930 . S
C2766 C2762 1.524 . S
C2766 H2778 0.956 . S
C2766 H2779 0.961 . S
C2766 H2780 0.961 . S
C2767 C2764 1.539 . S
C2767 H2781 0.958 . S
C2767 H2782 0.961 . S
C2767 H2783 0.960 . S
H2768 C2752 0.931 . S
H2769 C2757 0.929 . S
H2770 C2758 0.960 . S
H2771 C2758 0.962 . S
H2772 C2758 0.960 . S
H2773 C2759 0.961 . S
H2774 C2759 0.961 . S
H2775 C2759 0.961 . S
H2776 C2760 0.931 . S
H2777 C2765 0.930 . S
H2778 C2766 0.956 . S
H2779 C2766 0.961 . S
H2780 C2766 0.961 . S
H2781 C2767 0.958 . S
H2782 C2767 0.961 . S
H2783 C2767 0.960 . S
C2784 C2785 1.391 . S
C2784 C2786 1.394 . S
C2784 H2800 0.931 . S
C2785 C2784 1.391 . S
C2785 C2789 1.376 . S
C2786 C2784 1.394 . S
C2786 C2787 1.369 . S
C2786 C2790 1.531 . S
C2787 C2786 1.369 . S
C2787 C2788 1.410 . S
C2787 C2795 1.503 . S
C2788 C2787 1.410 . S
C2788 C2789 1.392 . S
C2788 C2791 1.511 . S
C2789 C2785 1.376 . S
C2789 C2788 1.392 . S
C2789 H2801 0.929 . S
C2790 C2786 1.531 . S
C2790 H2802 0.960 . S
C2790 H2803 0.962 . S
C2790 H2804 0.960 . S
C2791 C2788 1.511 . S
C2791 H2805 0.961 . S
C2791 H2806 0.961 . S
C2791 H2807 0.961 . S
C2792 C2793 1.370 . S
C2792 C2794 1.363 . S
C2792 H2808 0.931 . S
C2793 C2792 1.370 . S
C2793 C2797 1.408 . S
C2794 C2792 1.363 . S
C2794 C2795 1.370 . S
C2794 C2798 1.524 . S
C2795 C2787 1.503 . S
C2795 C2794 1.370 . S
C2795 C2796 1.403 . S
C2796 C2795 1.403 . S
C2796 C2797 1.404 . S
C2796 C2799 1.539 . S
C2797 C2793 1.408 . S
C2797 C2796 1.404 . S
C2797 H2809 0.930 . S
C2798 C2794 1.524 . S
C2798 H2810 0.956 . S
C2798 H2811 0.961 . S
C2798 H2812 0.961 . S
C2799 C2796 1.539 . S
C2799 H2813 0.958 . S
C2799 H2814 0.961 . S
C2799 H2815 0.960 . S
H2800 C2784 0.931 . S
H2801 C2789 0.929 . S
H2802 C2790 0.960 . S
H2803 C2790 0.962 . S
H2804 C2790 0.960 . S
H2805 C2791 0.961 . S
H2806 C2791 0.961 . S
H2807 C2791 0.961 . S
H2808 C2792 0.931 . S
H2809 C2797 0.930 . S
H2810 C2798 0.956 . S
H2811 C2798 0.961 . S
H2812 C2798 0.961 . S
H2813 C2799 0.958 . S
H2814 C2799 0.961 . S
H2815 C2799 0.960 . S
C2816 C2817 1.391 . S
C2816 C2818 1.394 . S
C2816 H2832 0.931 . S
C2817 C2816 1.391 . S
C2817 C2821 1.376 . S
C2818 C2816 1.394 . S
C2818 C2819 1.369 . S
C2818 C2822 1.531 . S
C2819 C2818 1.369 . S
C2819 C2820 1.410 . S
C2819 C2827 1.503 . S
C2820 C2819 1.410 . S
C2820 C2821 1.392 . S
C2820 C2823 1.511 . S
C2821 C2817 1.376 . S
C2821 C2820 1.392 . S
C2821 H2833 0.929 . S
C2822 C2818 1.531 . S
C2822 H2834 0.960 . S
C2822 H2835 0.962 . S
C2822 H2836 0.960 . S
C2823 C2820 1.511 . S
C2823 H2837 0.961 . S
C2823 H2838 0.961 . S
C2823 H2839 0.961 . S
C2824 C2825 1.370 . S
C2824 C2826 1.363 . S
C2824 H2840 0.931 . S
C2825 C2824 1.370 . S
C2825 C2829 1.408 . S
C2826 C2824 1.363 . S
C2826 C2827 1.370 . S
C2826 C2830 1.524 . S
C2827 C2819 1.503 . S
C2827 C2826 1.370 . S
C2827 C2828 1.403 . S
C2828 C2827 1.403 . S
C2828 C2829 1.404 . S
C2828 C2831 1.539 . S
C2829 C2825 1.408 . S
C2829 C2828 1.404 . S
C2829 H2841 0.930 . S
C2830 C2826 1.524 . S
C2830 H2842 0.956 . S
C2830 H2843 0.961 . S
C2830 H2844 0.961 . S
C2831 C2828 1.539 . S
C2831 H2845 0.958 . S
C2831 H2846 0.961 . S
C2831 H2847 0.960 . S
H2832 C2816 0.931 . S
H2833 C2821 0.929 . S
H2834 C2822 0.960 . S
H2835 C2822 0.962 . S
H2836 C2822 0.960 . S
H2837 C2823 0.961 . S
H2838 C2823 0.961 . S
H2839 C2823 0.961 . S
H2840 C2824 0.931 . S
H2841 C2829 0.930 . S
H2842 C2830 0.956 . S
H2843 C2830 0.961 . S
H2844 C2830 0.961 . S
H2845 C2831 0.958 . S
H2846 C2831 0.961 . S
H2847 C2831 0.960 . S
C2848 C2849 1.391 . S
C2848 C2850 1.394 . S
C2848 H2864 0.931 . S
C2849 C2848 1.391 . S
C2849 C2853 1.376 . S
C2850 C2848 1.394 . S
C2850 C2851 1.369 . S
C2850 C2854 1.531 . S
C2851 C2850 1.369 . S
C2851 C2852 1.410 . S
C2851 C2859 1.503 . S
C2852 C2851 1.410 . S
C2852 C2853 1.392 . S
C2852 C2855 1.511 . S
C2853 C2849 1.376 . S
C2853 C2852 1.392 . S
C2853 H2865 0.929 . S
C2854 C2850 1.531 . S
C2854 H2866 0.960 . S
C2854 H2867 0.962 . S
C2854 H2868 0.960 . S
C2855 C2852 1.511 . S
C2855 H2869 0.961 . S
C2855 H2870 0.961 . S
C2855 H2871 0.961 . S
C2856 C2857 1.370 . S
C2856 C2858 1.363 . S
C2856 H2872 0.931 . S
C2857 C2856 1.370 . S
C2857 C2861 1.408 . S
C2858 C2856 1.363 . S
C2858 C2859 1.370 . S
C2858 C2862 1.524 . S
C2859 C2851 1.503 . S
C2859 C2858 1.370 . S
C2859 C2860 1.403 . S
C2860 C2859 1.403 . S
C2860 C2861 1.404 . S
C2860 C2863 1.539 . S
C2861 C2857 1.408 . S
C2861 C2860 1.404 . S
C2861 H2873 0.930 . S
C2862 C2858 1.524 . S
C2862 H2874 0.956 . S
C2862 H2875 0.961 . S
C2862 H2876 0.961 . S
C2863 C2860 1.539 . S
C2863 H2877 0.958 . S
C2863 H2878 0.961 . S
C2863 H2879 0.960 . S
H2864 C2848 0.931 . S
H2865 C2853 0.929 . S
H2866 C2854 0.960 . S
H2867 C2854 0.962 . S
H2868 C2854 0.960 . S
H2869 C2855 0.961 . S
H2870 C2855 0.961 . S
H2871 C2855 0.961 . S
H2872 C2856 0.931 . S
H2873 C2861 0.930 . S
H2874 C2862 0.956 . S
H2875 C2862 0.961 . S
H2876 C2862 0.961 . S
H2877 C2863 0.958 . S
H2878 C2863 0.961 . S
H2879 C2863 0.960 . S
C1345 C308 1.599 . S
C1353 C66 1.587 . S
C1377 C67 0.847 . S
C1385 C147 0.731 . S
C1409 C234 1.003 . S
C1417 C150 1.141 . S
C1441 C324 2.883 . S
C1449 C235 2.912 . S
C1473 C408 1.184 . S
C1481 C487 1.163 . S
C1505 C486 1.199 . S
C1513 C570 1.238 . S
C1537 C567 1.249 . S
C1545 C660 1.426 . S
C1569 C392 1.437 . S
C1577 C663 1.372 . S
C1601 C819 1.142 . S
C1609 C63 1.170 . S
C1633 C907 1.099 . S
C1641 C151 1.159 . S
C1665 C231 1.779 . S
C1673 C1148 1.869 . S
C1697 C747 1.712 . S
C1705 C327 1.706 . S
C1729 C999 0.715 . S
C1737 C411 0.612 . S
C1761 C1239 0.950 . S
C1769 C483 0.983 . S
C1793 C571 1.522 . S
C1801 C1075 1.623 . S
C1825 C1316 2.952 . S
C1833 C644 2.893 . S
C1857 C728 1.351 . S
C1865 C1167 1.338 . S
C1889 C823 1.143 . S
C1897 C744 1.054 . S
C1921 C906 1.210 . S
C1929 C822 1.141 . S
C1953 C1242 1.059 . S
C1961 C980 1.062 . S
C1985 C1074 1.324 . S
C1993 C1335 1.294 . S
C2017 C991 1.589 . S
C2025 C75 1.571 . S
C2049 C1080 0.882 . S
C2057 C56 0.789 . S
C2081 C1083 1.123 . S
C2089 C243 1.041 . S
C2113 C224 2.922 . S
C2121 C987 2.903 . S
C2145 C812 1.228 . S
C2153 C399 1.116 . S
C2177 C831 1.134 . S
C2185 C579 1.229 . S
C2209 C1155 1.386 . S
C2217 C576 1.237 . S
C2241 C403 1.482 . S
C2249 C1158 1.372 . S
C2273 C492 1.183 . S
C2281 C72 1.190 . S
C2305 C896 1.178 . S
C2313 C1064 1.176 . S
C2337 C240 1.797 . S
C2345 C655 1.851 . S
C2369 C738 1.704 . S
C2377 C990 1.699 . S
C2401 C318 0.703 . S
C2409 C402 0.608 . S
C2433 C828 0.954 . S
C2441 C1248 0.970 . S
C2465 C560 1.549 . S
C2473 C140 1.615 . S
C2497 C1327 2.931 . S
C2505 C1159 2.889 . S
C2529 C739 1.329 . S
C2537 C654 1.357 . S
C2561 C735 0.948 . S
C2569 C476 1.124 . S
C2593 C915 1.197 . S
C2601 C495 1.147 . S
C2625 C319 1.075 . S
C2633 C1251 1.039 . S
C2657 C159 1.372 . S
C2665 C1326 1.315 . S
C2689 C1071 1.216 . S
C2697 C1243 1.495 . S
C2721 C996 1.657 . S
C2729 C1332 1.744 . S
C2753 C903 0.961 . S
C2761 C1164 0.997 . S
C2785 C1232 1.431 . S
C2793 C156 1.295 . S
C2817 C315 1.681 . S
C2825 C1323 1.767 . S
C2849 C651 1.028 . S
C2857 C912 0.992 . S
