# Generated by pormake.
# Topology crb, (4)-cn, num edge types: 1
# Building blocks:
#     Node 0, Type 0, BuildingBlock: AZAVOO_clean_sbu_0, # of connection points: 4
#     Node 1, Type 0, BuildingBlock: AZAVOO_clean_sbu_0, # of connection points: 4
#     Node 2, Type 0, BuildingBlock: AZAVOO_clean_sbu_0, # of connection points: 4
#     Node 3, Type 0, BuildingBlock: AZAVOO_clean_sbu_0, # of connection points: 4
#     Node 4, Type 0, BuildingBlock: AZAVOO_clean_sbu_0, # of connection points: 4
#     Node 5, Type 0, BuildingBlock: AZAVOO_clean_sbu_0, # of connection points: 4
#     Node 6, Type 0, BuildingBlock: AZAVOO_clean_sbu_0, # of connection points: 4
#     Node 7, Type 0, BuildingBlock: AZAVOO_clean_sbu_0, # of connection points: 4
#     Edge 8, Type (0, 0), BuildingBlock: FUNLAD_clean_linker_1, # of connection points: 2
#     Edge 9, Type (0, 0), BuildingBlock: FUNLAD_clean_linker_1, # of connection points: 2
#     Edge 10, Type (0, 0), BuildingBlock: FUNLAD_clean_linker_1, # of connection points: 2
#     Edge 11, Type (0, 0), BuildingBlock: FUNLAD_clean_linker_1, # of connection points: 2
#     Edge 12, Type (0, 0), BuildingBlock: FUNLAD_clean_linker_1, # of connection points: 2
#     Edge 13, Type (0, 0), BuildingBlock: FUNLAD_clean_linker_1, # of connection points: 2
#     Edge 14, Type (0, 0), BuildingBlock: FUNLAD_clean_linker_1, # of connection points: 2
#     Edge 15, Type (0, 0), BuildingBlock: FUNLAD_clean_linker_1, # of connection points: 2
#     Edge 16, Type (0, 0), BuildingBlock: FUNLAD_clean_linker_1, # of connection points: 2
#     Edge 17, Type (0, 0), BuildingBlock: FUNLAD_clean_linker_1, # of connection points: 2
#     Edge 18, Type (0, 0), BuildingBlock: FUNLAD_clean_linker_1, # of connection points: 2
#     Edge 19, Type (0, 0), BuildingBlock: FUNLAD_clean_linker_1, # of connection points: 2
#     Edge 20, Type (0, 0), BuildingBlock: FUNLAD_clean_linker_1, # of connection points: 2
#     Edge 21, Type (0, 0), BuildingBlock: FUNLAD_clean_linker_1, # of connection points: 2
#     Edge 22, Type (0, 0), BuildingBlock: FUNLAD_clean_linker_1, # of connection points: 2
#     Edge 23, Type (0, 0), BuildingBlock: FUNLAD_clean_linker_1, # of connection points: 2
# Relax obj value: 0.038
# Max RMSD: 0.066
# Mean RMSD: 0.066
data_MOF--net-crb--node1-AZAVOO_clean_sbu_0--edge1-FUNLAD_clean_linker_1
_symmetry_space_group_name_H-M    P1
_symmetry_Int_Tables_number       1
_symmetry_cell_setting            triclinic
loop_
_symmetry_equiv_pos_as_xyz
'x, y, z'
_cell_length_a     47.208336
_cell_length_b     39.459363
_cell_length_c     26.92279
_cell_angle_alpha  89.900033
_cell_angle_beta   89.965976
_cell_angle_gamma 90.068378
loop_
_atom_site_label
_atom_site_type_symbol
_atom_site_fract_x
_atom_site_fract_y
_atom_site_fract_z
_atom_type_partial_charge
Mg0 Mg 0.31227 0.30525 0.98099 0.0
O1 O 0.30485 0.36302 0.98129 0.0
O2 O 0.25864 0.37196 0.96792 0.0
Mg3 Mg 0.23636 0.32099 0.95837 0.0
C4 C 0.28364 0.38285 0.9762 0.0
C5 C 0.37779 0.30108 0.98775 0.0
O6 O 0.37293 0.28535 0.94563 0.0
O7 O 0.29206 0.30079 0.05787 0.0
O8 O 0.24608 0.30823 0.03965 0.0
O9 O 0.31741 0.30372 0.89774 0.0
O10 O 0.27669 0.29829 0.93719 0.0
C11 C 0.26594 0.3019 0.07047 0.0
C12 C 0.29021 0.29967 0.89602 0.0
O13 O 0.35699 0.3127 0.01242 0.0
Mg14 Mg 0.66357 0.29448 0.03338 0.0
O15 O 0.67065 0.3522 0.03297 0.0
O16 O 0.71741 0.3614 0.0366 0.0
Mg17 Mg 0.74036 0.31062 0.04328 0.0
C18 C 0.69196 0.37216 0.03349 0.0
C19 C 0.59731 0.29815 0.04011 0.0
O20 O 0.60329 0.29068 0.08651 0.0
O21 O 0.67942 0.29163 0.95305 0.0
O22 O 0.72617 0.29798 0.96445 0.0
O23 O 0.66326 0.29253 0.11732 0.0
O24 O 0.70145 0.28767 0.07075 0.0
C25 C 0.7048 0.29241 0.93648 0.0
C26 C 0.69047 0.28914 0.1141 0.0
O27 O 0.61738 0.30176 0.00903 0.0
Mg28 Mg 0.69439 0.70355 0.96763 0.0
O29 O 0.70445 0.64665 0.97005 0.0
O30 O 0.75089 0.64024 0.95658 0.0
Mg31 Mg 0.77051 0.69264 0.9445 0.0
C32 C 0.72639 0.62801 0.96548 0.0
C33 C 0.6296 0.69041 0.97243 0.0
O34 O 0.63337 0.69278 0.92421 0.0
O35 O 0.71452 0.71094 0.04367 0.0
O36 O 0.76072 0.70612 0.02557 0.0
O37 O 0.68835 0.70193 0.88518 0.0
O38 O 0.72912 0.7127 0.9221 0.0
C39 C 0.74061 0.7117 0.05622 0.0
C40 C 0.71511 0.70854 0.88168 0.0
O41 O 0.65078 0.6932 0.0012 0.0
Mg42 Mg 0.34838 0.71471 0.04455 0.0
O43 O 0.34036 0.65739 0.04126 0.0
O44 O 0.29408 0.64837 0.05336 0.0
Mg45 Mg 0.27269 0.69977 0.06591 0.0
C46 C 0.31912 0.63753 0.04492 0.0
C47 C 0.4125 0.69674 0.03871 0.0
O48 O 0.40755 0.68981 0.08566 0.0
O49 O 0.32855 0.72077 0.96802 0.0
O50 O 0.28238 0.71417 0.98471 0.0
O51 O 0.35451 0.71245 0.12677 0.0
O52 O 0.31327 0.72134 0.09031 0.0
C53 C 0.30265 0.72041 0.95448 0.0
C54 C 0.32748 0.71703 0.13057 0.0
O55 O 0.39236 0.707 0.0113 0.0
Mg56 Mg 0.84056 0.80883 0.45867 0.0
O57 O 0.83445 0.86617 0.46643 0.0
O58 O 0.78812 0.87617 0.47564 0.0
Mg59 Mg 0.76431 0.82571 0.46841 0.0
C60 C 0.81378 0.88639 0.47338 0.0
C61 C 0.90233 0.83426 0.4439 0.0
O62 O 0.88948 0.85165 0.40897 0.0
O63 O 0.83111 0.80158 0.54109 0.0
O64 O 0.78391 0.80756 0.54169 0.0
O65 O 0.83569 0.8112 0.37615 0.0
O66 O 0.80031 0.80376 0.42876 0.0
C67 C 0.80726 0.80054 0.56344 0.0
C68 C 0.8088 0.80713 0.38377 0.0
O69 O 0.88792 0.81482 0.47195 0.0
Mg70 Mg 0.17276 0.78126 0.54505 0.0
O71 O 0.18629 0.83724 0.54178 0.0
O72 O 0.23321 0.83883 0.55363 0.0
Mg73 Mg 0.24939 0.78468 0.56522 0.0
C74 C 0.2096 0.85355 0.54552 0.0
C75 C 0.10952 0.77643 0.53442 0.0
O76 O 0.11625 0.7532 0.56731 0.0
O77 O 0.19123 0.77293 0.46777 0.0
O78 O 0.23773 0.77237 0.48422 0.0
O79 O 0.1672 0.78437 0.62716 0.0
O80 O 0.20708 0.76946 0.59013 0.0
C81 C 0.21695 0.76941 0.45406 0.0
C82 C 0.19356 0.77583 0.63056 0.0
O83 O 0.12908 0.7942 0.51493 0.0
Mg84 Mg 0.17826 0.19405 0.48141 0.0
O85 O 0.17887 0.13566 0.48216 0.0
O86 O 0.22393 0.11921 0.47352 0.0
Mg87 Mg 0.25193 0.16595 0.46257 0.0
C88 C 0.1977 0.11252 0.47974 0.0
C89 C 0.11274 0.18669 0.4795 0.0
O90 O 0.11941 0.1779 0.43393 0.0
O91 O 0.19776 0.19581 0.55928 0.0
O92 O 0.24287 0.18174 0.54281 0.0
O93 O 0.17455 0.19654 0.39828 0.0
O94 O 0.21502 0.19522 0.43907 0.0
C95 C 0.22349 0.19131 0.57276 0.0
C96 C 0.20196 0.19641 0.39743 0.0
O97 O 0.13241 0.19411 0.50991 0.0
Mg98 Mg 0.8286 0.21766 0.52541 0.0
O99 O 0.81756 0.16102 0.53369 0.0
O100 O 0.77241 0.15694 0.55846 0.0
Mg101 Mg 0.75406 0.21019 0.56478 0.0
C102 C 0.79591 0.14346 0.54615 0.0
C103 C 0.89301 0.21455 0.51112 0.0
O104 O 0.89 0.23288 0.55147 0.0
O105 O 0.80392 0.21948 0.45196 0.0
O106 O 0.7594 0.21595 0.48094 0.0
O107 O 0.83889 0.22147 0.60674 0.0
O108 O 0.79662 0.23085 0.5747 0.0
C109 C 0.77705 0.21886 0.44529 0.0
C110 C 0.81249 0.22887 0.61325 0.0
O111 O 0.87098 0.20393 0.4888 0.0
H112 H 0.26921 0.43585 0.97336 0.0
C113 C 0.28735 0.4198 0.98148 0.0
H114 H 0.3292 0.4186 0.00947 0.0
H115 H 0.30531 0.57998 0.94378 0.0
H116 H 0.30869 0.55938 0.85915 0.0
H117 H 0.31452 0.49837 0.84202 0.0
H118 H 0.31671 0.45755 0.9095 0.0
C119 C 0.31125 0.43414 -0.00138 0.0
C120 C 0.3122 0.47122 0.00875 0.0
C121 C 0.3118 0.49483 0.96898 0.0
C122 C 0.30917 0.53009 0.97893 0.0
C123 C 0.3078 0.55299 0.93844 0.0
C124 C 0.30966 0.54149 0.88964 0.0
C125 C 0.31288 0.50714 0.87999 0.0
C126 C 0.31396 0.48397 0.91904 0.0
H127 H 0.34511 0.59243 0.02796 0.0
C128 C 0.32383 0.60092 0.0371 0.0
H129 H 0.28133 0.58594 0.04911 0.0
H130 H 0.31461 0.43295 0.09357 0.0
H131 H 0.313 0.45375 0.1783 0.0
H132 H 0.30909 0.51496 0.19552 0.0
H133 H 0.3067 0.55579 0.12804 0.0
C134 C 0.30267 0.57818 0.03922 0.0
C135 C 0.30757 0.54168 0.02868 0.0
C136 C 0.30926 0.51822 0.06845 0.0
C137 C 0.31168 0.48295 0.0585 0.0
C138 C 0.31289 0.46003 0.09899 0.0
C139 C 0.31199 0.47163 0.14781 0.0
C140 C 0.30977 0.50609 0.15751 0.0
C141 C 0.30838 0.52924 0.11845 0.0
H142 H 0.41022 0.31768 0.04197 0.0
C143 C 0.40702 0.30485 0.00671 0.0
H144 H 0.4264 0.27864 0.94741 0.0
H145 H 0.53791 0.36003 0.0369 0.0
H146 H 0.51492 0.41112 0.00717 0.0
H147 H 0.46632 0.40919 0.97367 0.0
H148 H 0.44026 0.35624 0.97032 0.0
C149 C 0.42946 0.29247 0.98186 0.0
C150 C 0.45878 0.29415 0.00221 0.0
C151 C 0.47395 0.32521 0.00282 0.0
C152 C 0.50235 0.32614 0.02064 0.0
C153 C 0.51663 0.35768 0.02243 0.0
C154 C 0.50363 0.38725 0.0057 0.0
C155 C 0.47624 0.38617 0.98695 0.0
C156 C 0.46148 0.3556 0.9854 0.0
H157 H 0.56354 0.3063 0.98443 0.0
C158 C 0.56757 0.30101 0.02343 0.0
H159 H 0.54941 0.28979 0.09328 0.0
H160 H 0.43555 0.23064 0.00702 0.0
H161 H 0.45882 0.17937 0.03532 0.0
H162 H 0.50838 0.18071 0.06426 0.0
H163 H 0.53495 0.23331 0.06518 0.0
C164 C 0.54563 0.29626 0.05459 0.0
C165 C 0.51577 0.29585 0.03658 0.0
C166 C 0.50052 0.26487 0.0362 0.0
C167 C 0.47204 0.26402 0.01898 0.0
C168 C 0.45732 0.2327 0.0192 0.0
C169 C 0.4704 0.20307 0.03546 0.0
C170 C 0.49829 0.20383 0.0518 0.0
C171 C 0.51328 0.23425 0.05222 0.0
H172 H 0.66509 0.41788 0.02682 0.0
C173 C 0.68685 0.40891 0.02813 0.0
H174 H 0.73003 0.42235 0.02133 0.0
H175 H 0.70656 0.55286 0.89261 0.0
H176 H 0.7191 0.51325 0.82741 0.0
H177 H 0.72456 0.45229 0.84558 0.0
H178 H 0.71724 0.43057 0.92898 0.0
C179 C 0.70823 0.4311 0.02232 0.0
C180 C 0.70305 0.46749 0.01126 0.0
C181 C 0.70784 0.47985 0.96251 0.0
C182 C 0.70526 0.51506 0.95224 0.0
C183 C 0.70917 0.52652 0.90282 0.0
C184 C 0.71614 0.50401 0.86495 0.0
C185 C 0.71918 0.46969 0.87516 0.0
C186 C 0.71501 0.45758 0.92325 0.0
H187 H 0.74316 0.57597 0.96788 0.0
C188 C 0.72394 0.59095 0.9715 0.0
H189 H 0.6801 0.58979 0.98759 0.0
H190 H 0.6915 0.45193 0.10835 0.0
H191 H 0.67794 0.49135 0.17314 0.0
H192 H 0.67358 0.55249 0.15544 0.0
H193 H 0.68279 0.57459 0.07288 0.0
C194 C 0.69938 0.57525 0.98215 0.0
C195 C 0.6986 0.53797 -0.00892 0.0
C196 C 0.6925 0.52541 0.03932 0.0
C197 C 0.69486 0.49011 0.04949 0.0
C198 C 0.68964 0.4784 0.0984 0.0
C199 C 0.68193 0.50078 0.136 0.0
C200 C 0.67949 0.5352 0.12604 0.0
C201 C 0.6848 0.54754 0.07842 0.0
H202 H 0.44446 0.70021 0.97905 0.0
C203 C 0.44141 0.69469 0.01827 0.0
H204 H 0.46121 0.68177 0.08609 0.0
H205 H 0.57276 0.62371 0.98852 0.0
H206 H 0.55136 0.57239 0.02134 0.0
H207 H 0.50314 0.57324 0.05668 0.0
H208 H 0.47601 0.62539 0.05943 0.0
C209 C 0.46398 0.68798 0.04705 0.0
C210 C 0.49324 0.6878 0.02646 0.0
C211 C 0.5089 0.65715 0.02561 0.0
C212 C 0.53673 0.65665 0.00536 0.0
C213 C 0.55168 0.62558 0.00405 0.0
C214 C 0.53961 0.59591 0.02259 0.0
C215 C 0.51246 0.59639 0.04248 0.0
C216 C 0.49714 0.62654 0.04393 0.0
H217 H 0.5986 0.68491 0.03348 0.0
C218 C 0.60091 0.68653 -0.00664 0.0
H219 H 0.57965 0.6895 0.9244 0.0
H220 H 0.47077 0.75199 0.02879 0.0
H221 H 0.49218 0.80303 -0.00436 0.0
H222 H 0.53959 0.80155 0.95717 0.0
H223 H 0.56601 0.74899 0.95225 0.0
C224 C 0.57776 0.68659 0.9644 0.0
C225 C 0.54885 0.68683 0.9862 0.0
C226 C 0.53333 0.71753 0.98737 0.0
C227 C 0.50569 0.71819 0.00832 0.0
C228 C 0.49135 0.74965 0.01152 0.0
C229 C 0.50351 0.77927 -0.00698 0.0
C230 C 0.53023 0.77845 0.97146 0.0
C231 C 0.54512 0.74807 0.96878 0.0
H232 H 0.84194 0.93116 0.47441 0.0
C233 C 0.8202 0.92276 0.47966 0.0
H234 H 0.77875 0.93732 0.50025 0.0
H235 H 0.82092 0.06701 0.61738 0.0
H236 H 0.81372 0.02824 0.68633 0.0
H237 H 0.80352 0.96776 0.67145 0.0
H238 H 0.80067 0.94564 0.58752 0.0
C239 C 0.80034 0.94541 0.49276 0.0
C240 C 0.80756 0.98162 0.50138 0.0
C241 C 0.80871 0.99423 0.55059 0.0
C242 C 0.81407 0.0292 0.55917 0.0
C243 C 0.81605 0.04088 0.60875 0.0
C244 C 0.81218 0.01884 0.64867 0.0
C245 C 0.80647 0.98479 0.64029 0.0
C246 C 0.80482 0.97245 0.59193 0.0
H247 H 0.77804 0.09224 0.55459 0.0
C248 C 0.79703 0.10613 0.54398 0.0
H249 H 0.83824 0.10236 0.51384 0.0
H250 H 0.8071 0.96559 0.40241 0.0
H251 H 0.81506 0.00415 0.33359 0.0
H252 H 0.82433 0.06483 0.3484 0.0
H253 H 0.82569 0.08731 0.43208 0.0
C254 C 0.81949 0.08893 0.52662 0.0
C255 C 0.8176 0.05166 0.51842 0.0
C256 C 0.81756 0.0388 0.46924 0.0
C257 C 0.81238 0.00375 0.46069 0.0
C258 C 0.8114 0.99183 0.41112 0.0
C259 C 0.81581 0.01373 0.37122 0.0
C260 C 0.82102 0.0479 0.37956 0.0
C261 C 0.82178 0.06046 0.42786 0.0
H262 H 0.0641 0.76539 0.54069 0.0
C263 C 0.07948 0.78153 0.52202 0.0
H264 H 0.08521 0.82234 0.47201 0.0
H265 H 0.95432 0.75903 0.43724 0.0
H266 H 0.97824 0.70975 0.40369 0.0
H267 H 0.03041 0.70619 0.40365 0.0
H268 H 0.05894 0.7518 0.43757 0.0
C269 C 0.07035 0.80514 0.48985 0.0
C270 C 0.03941 0.80979 0.4815 0.0
C271 C 0.02307 0.78332 0.46031 0.0
C272 C 0.99304 0.78568 0.45945 0.0
C273 C 0.97722 0.75858 0.43889 0.0
C274 C 0.99067 0.73018 0.41935 0.0
C275 C 0.02004 0.72815 0.41939 0.0
C276 C 0.03616 0.75438 0.43938 0.0
H277 H 0.94484 0.85254 0.42258 0.0
C278 C 0.93344 0.83586 0.44783 0.0
H279 H 0.93694 0.79834 0.50349 0.0
H280 H 0.06466 0.86656 0.51968 0.0
H281 H 0.04086 0.91678 0.5504 0.0
H282 H 0.98872 0.92082 0.54929 0.0
H283 H 0.96007 0.87472 0.51735 0.0
C284 C 0.94798 0.81622 0.47957 0.0
C285 C 0.97944 0.8149 0.47851 0.0
C286 C 0.99583 0.84218 0.49724 0.0
C287 C 0.0259 0.8397 0.49838 0.0
C288 C 0.04177 0.86708 0.51791 0.0
C289 C 0.02838 0.89606 0.53571 0.0
C290 C 0.99902 0.89835 0.53504 0.0
C291 C 0.98283 0.87175 0.51632 0.0
H292 H 0.16627 0.07131 0.48975 0.0
C293 C 0.18875 0.07684 0.48617 0.0
H294 H 0.23023 0.05677 0.48839 0.0
H295 H 0.19546 0.93024 0.61899 0.0
H296 H 0.21133 0.96797 0.68441 0.0
H297 H 0.22183 0.02805 0.66665 0.0
H298 H 0.21626 0.05084 0.58343 0.0
C299 C 0.20765 0.0515 0.48988 0.0
C300 C 0.19893 0.01607 0.50104 0.0
C301 C 0.20269 0.00303 0.54966 0.0
C302 C 0.19721 0.96824 0.55968 0.0
C303 C 0.20023 0.95619 0.60897 0.0
C304 C 0.2091 0.97764 0.64697 0.0
C305 C 0.21498 0.01148 0.63698 0.0
C306 C 0.21178 0.02419 0.58902 0.0
H307 H 0.23019 0.90363 0.54303 0.0
C308 C 0.2099 0.89075 0.53958 0.0
H309 H 0.16629 0.89665 0.52394 0.0
H310 H 0.1881 0.03343 0.40447 0.0
H311 H 0.17123 0.99602 0.33941 0.0
H312 H 0.16208 0.93555 0.35653 0.0
H313 H 0.16975 0.91208 0.43875 0.0
C314 C 0.18662 0.90906 0.52926 0.0
C315 C 0.18869 0.94633 0.5207 0.0
C316 C 0.18351 0.95977 0.47265 0.0
C317 C 0.18872 0.99468 0.46277 0.0
C318 C 0.18424 0.0072 0.4141 0.0
C319 C 0.17462 0.98599 0.37638 0.0
C320 C 0.16947 0.95193 0.38602 0.0
C321 C 0.17393 0.9388 0.43344 0.0
H322 H 0.9236 0.1919 0.45815 0.0
C323 C 0.92162 0.20596 0.49265 0.0
H324 H 0.94332 0.22821 0.55313 0.0
H325 H 0.051 0.13362 0.51794 0.0
H326 H 0.02525 0.09676 0.57434 0.0
H327 H 0.97592 0.1095 0.59805 0.0
H328 H 0.95192 0.15907 0.56511 0.0
C329 C 0.94503 0.21477 0.51808 0.0
C330 C 0.97401 0.20584 0.50086 0.0
C331 C 0.9879 0.1771 0.52097 0.0
C332 C 0.01652 0.17006 0.50792 0.0
C333 C 0.02954 0.14062 0.52747 0.0
C334 C 0.01494 0.11914 0.5597 0.0
C335 C 0.98715 0.12629 0.57302 0.0
C336 C 0.97366 0.15486 0.55394 0.0
H337 H 0.07797 0.19724 0.53246 0.0
C338 C 0.08273 0.18989 0.49447 0.0
H339 H 0.06603 0.17942 0.42332 0.0
H340 H 0.95349 0.26274 0.45535 0.0
H341 H 0.9791 0.29965 0.39874 0.0
H342 H 0.02881 0.2878 0.3765 0.0
H343 H 0.05325 0.23906 0.41076 0.0
C344 C 0.06144 0.18542 0.46187 0.0
C345 C 0.03135 0.19215 0.47538 0.0
C346 C 0.01725 0.22054 0.45451 0.0
C347 C 0.98858 0.22742 0.46735 0.0
C348 C 0.97521 0.25629 0.44671 0.0
C349 C 0.98966 0.2777 0.41419 0.0
C350 C 0.01765 0.27102 0.40166 0.0
C351 C 0.0314 0.24287 0.42151 0.0
H352 H 0.24096 0.19601 0.3528 0.0
C353 C 0.21827 0.20062 0.35138 0.0
H354 H 0.18493 0.22323 0.31124 0.0
H355 H 0.26921 0.32679 0.2096 0.0
H356 H 0.24901 0.36226 0.27417 0.0
H357 H 0.21795 0.33772 0.33864 0.0
H358 H 0.20704 0.27764 0.33914 0.0
C359 C 0.20711 0.21589 0.31147 0.0
C360 C 0.22593 0.23023 0.27255 0.0
C361 C 0.2317 0.26551 0.2725 0.0
C362 C 0.24918 0.27978 0.23495 0.0
C363 C 0.25535 0.31489 0.23651 0.0
C364 C 0.24409 0.33546 0.27356 0.0
C365 C 0.22663 0.32164 0.30989 0.0
C366 C 0.22049 0.28709 0.30965 0.0
H367 H 0.23534 0.29799 0.13141 0.0
C368 C 0.25723 0.29288 0.1212 0.0
H369 H 0.2947 0.26705 0.14127 0.0
H370 H 0.22018 0.16151 0.26382 0.0
H371 H 0.24137 0.12591 0.20047 0.0
H372 H 0.27141 0.15071 0.13475 0.0
H373 H 0.28053 0.21117 0.13203 0.0
C374 C 0.27341 0.27446 0.15204 0.0
C375 C 0.26022 0.2589 0.19682 0.0
C376 C 0.25567 0.22336 0.19837 0.0
C377 C 0.2384 0.20901 0.23628 0.0
C378 C 0.23341 0.17363 0.23618 0.0
C379 C 0.24536 0.15293 0.19994 0.0
C380 C 0.26226 0.1669 0.16292 0.0
C381 C 0.26733 0.20168 0.16181 0.0
H382 H 0.73171 0.29047 0.15144 0.0
C383 C 0.70911 0.28698 0.15757 0.0
H384 H 0.67787 0.27004 0.2079 0.0
H385 H 0.7714 0.17922 0.31455 0.0
H386 H 0.74722 0.13656 0.26522 0.0
H387 H 0.71071 0.15297 0.20422 0.0
H388 H 0.69825 0.21204 0.19199 0.0
C389 C 0.70005 0.27629 0.202 0.0
C390 C 0.72108 0.26662 0.24049 0.0
C391 C 0.72768 0.23193 0.24772 0.0
C392 C 0.74835 0.2224 0.28341 0.0
C393 C 0.75524 0.18768 0.28887 0.0
C394 C 0.7417 0.163 0.26055 0.0
C395 C 0.72118 0.17224 0.22615 0.0
C396 C 0.71421 0.20625 0.21955 0.0
H397 H 0.74231 0.2174 0.39174 0.0
C398 C 0.76478 0.22309 0.39558 0.0
H399 H 0.80034 0.24555 0.361 0.0
H400 H 0.714 0.33532 0.23444 0.0
H401 H 0.739 0.37793 0.28242 0.0
H402 H 0.7747 0.36137 0.34477 0.0
H403 H 0.78571 0.30215 0.3594 0.0
C404 C 0.77846 0.23741 0.35728 0.0
C405 C 0.7618 0.2475 0.31275 0.0
C406 C 0.75613 0.28228 0.30395 0.0
C407 C 0.73563 0.29185 0.26789 0.0
C408 C 0.72968 0.3267 0.26087 0.0
C409 C 0.74377 0.3514 0.28832 0.0
C410 C 0.76385 0.34207 0.32346 0.0
C411 C 0.76996 0.30796 0.3315 0.0
H412 H 0.76609 0.8018 0.35203 0.0
C413 C 0.78849 0.80324 0.34287 0.0
H414 H 0.81949 0.79511 0.2876 0.0
H415 H 0.73604 0.68464 0.19411 0.0
H416 H 0.7578 0.64856 0.25661 0.0
H417 H 0.78882 0.67292 0.32113 0.0
H418 H 0.79805 0.73338 0.32387 0.0
C419 C 0.79708 0.79563 0.29683 0.0
C420 C 0.77688 0.78146 0.26022 0.0
C421 C 0.77206 0.746 0.25901 0.0
C422 C 0.75477 0.73184 0.22124 0.0
C423 C 0.7497 0.69647 0.22131 0.0
C424 C 0.76189 0.67556 0.25711 0.0
C425 C 0.77931 0.68928 0.29348 0.0
C426 C 0.78443 0.72406 0.29461 0.0
H427 H 0.77082 0.71812 0.11725 0.0
C428 C 0.74872 0.7215 0.10686 0.0
H429 H 0.70958 0.74348 0.12731 0.0
H430 H 0.77931 0.85058 0.25613 0.0
H431 H 0.75633 0.88674 0.19509 0.0
H432 H 0.72702 0.86207 0.1284 0.0
H433 H 0.72038 0.8012 0.12241 0.0
C434 C 0.73126 0.73784 0.13802 0.0
C435 C 0.74311 0.75303 0.18401 0.0
C436 C 0.74623 0.7887 0.1874 0.0
C437 C 0.76322 0.80294 0.22563 0.0
C438 C 0.76663 0.83855 0.22769 0.0
C439 C 0.75357 0.85954 0.19294 0.0
C440 C 0.73706 0.84565 0.15538 0.0
C441 C 0.73344 0.81066 0.15234 0.0
H442 H 0.20536 0.76107 0.3753 0.0
C443 C 0.22288 0.7616 0.40147 0.0
H444 H 0.26688 0.75427 0.41159 0.0
H445 H 0.28524 0.66436 0.22171 0.0
H446 H 0.28352 0.62042 0.28484 0.0
H447 H 0.26907 0.6338 0.37069 0.0
H448 H 0.25602 0.69115 0.39379 0.0
C449 C 0.24931 0.75509 0.38554 0.0
C450 C 0.25561 0.74675 0.33293 0.0
C451 C 0.2635 0.71323 0.32023 0.0
C452 C 0.2723 0.70562 0.27101 0.0
C453 C 0.27922 0.67171 0.25893 0.0
C454 C 0.27811 0.6462 0.29472 0.0
C455 C 0.26994 0.65373 0.34303 0.0
C456 C 0.26262 0.68677 0.35583 0.0
H457 H 0.32693 0.71466 0.21234 0.0
C458 C 0.31371 0.71789 0.17963 0.0
H459 H 0.27291 0.72975 0.15261 0.0
H460 H 0.24149 0.81367 0.34483 0.0
H461 H 0.24227 0.85724 0.28136 0.0
H462 H 0.25735 0.84403 0.19583 0.0
H463 H 0.27183 0.78721 0.17337 0.0
C464 C 0.28606 0.72509 0.18499 0.0
C465 C 0.27378 0.73176 0.23491 0.0
C466 C 0.26467 0.76499 0.24703 0.0
C467 C 0.25574 0.77257 0.29623 0.0
C468 C 0.24794 0.80629 0.30787 0.0
C469 C 0.24841 0.83164 0.27181 0.0
C470 C 0.25692 0.8242 0.22368 0.0
C471 C 0.26512 0.7914 0.21127 0.0
H472 H 0.19533 0.78047 0.71209 0.0
C473 C 0.20738 0.77319 0.67938 0.0
H474 H 0.24492 0.75052 0.65254 0.0
H475 H 0.27625 0.79377 0.88589 0.0
H476 H 0.27615 0.85166 0.85533 0.0
H477 H 0.26235 0.86446 0.76893 0.0
H478 H 0.2483 0.81944 0.7127 0.0
C479 C 0.23325 0.75955 0.68469 0.0
C480 C 0.2447 0.75184 0.7348 0.0
C481 C 0.25353 0.77836 0.76669 0.0
C482 C 0.26213 0.77089 0.8161 0.0
C483 C 0.26998 0.79794 0.84774 0.0
C484 C 0.26997 0.8313 0.83069 0.0
C485 C 0.26214 0.83852 0.78207 0.0
C486 C 0.254 0.81247 0.75026 0.0
H487 H 0.31326 0.73375 0.87678 0.0
C488 C 0.29595 0.72815 0.90216 0.0
H489 H 0.25156 0.72279 0.91007 0.0
H490 H 0.23068 0.69489 0.68203 0.0
H491 H 0.23238 0.63685 0.71171 0.0
H492 H 0.24799 0.62385 0.79708 0.0
H493 H 0.26195 0.66888 0.85334 0.0
C494 C 0.26913 0.72901 0.88559 0.0
C495 C 0.26237 0.73684 0.83303 0.0
C496 C 0.25459 0.71024 0.80054 0.0
C497 C 0.24581 0.71773 0.75127 0.0
C498 C 0.23773 0.69066 0.71976 0.0
C499 C 0.23857 0.65721 0.73633 0.0
C500 C 0.24734 0.64989 0.78441 0.0
C501 C 0.25525 0.67598 0.81632 0.0
H502 H 0.25178 0.29854 0.85024 0.0
C503 C 0.27461 0.29493 0.84941 0.0
H504 H 0.30885 0.27368 0.80994 0.0
H505 H 0.21991 0.171 0.71346 0.0
H506 H 0.23796 0.13602 0.7806 0.0
H507 H 0.27028 0.15992 0.84347 0.0
H508 H 0.28454 0.21896 0.83985 0.0
C509 C 0.28649 0.28023 0.80978 0.0
C510 C 0.26815 0.26579 0.77032 0.0
C511 C 0.26062 0.23102 0.77236 0.0
C512 C 0.24254 0.21703 0.73552 0.0
C513 C 0.23437 0.18259 0.73958 0.0
C514 C 0.24439 0.16231 0.77814 0.0
C515 C 0.26254 0.17579 0.81359 0.0
C516 C 0.27057 0.20973 0.81102 0.0
H517 H 0.25399 0.19284 0.634 0.0
C518 C 0.23271 0.20042 0.62316 0.0
H519 H 0.19784 0.23161 0.64072 0.0
H520 H 0.27766 0.33353 0.75723 0.0
H521 H 0.25929 0.36873 0.69058 0.0
H522 H 0.2288 0.34431 0.62538 0.0
H523 H 0.21634 0.28472 0.62652 0.0
C524 C 0.21832 0.22189 0.65237 0.0
C525 C 0.23284 0.23755 0.69575 0.0
C526 C 0.2396 0.27263 0.69471 0.0
C527 C 0.25728 0.28674 0.73213 0.0
C528 C 0.26416 0.32164 0.72985 0.0
C529 C 0.25383 0.34209 0.69175 0.0
C530 C 0.23667 0.32833 0.65504 0.0
C531 C 0.22965 0.29402 0.65618 0.0
H532 H 0.69214 0.28081 0.85898 0.0
C533 C 0.71004 0.28512 0.88356 0.0
H534 H 0.75475 0.28573 0.89052 0.0
H535 H 0.76855 0.18532 0.70785 0.0
H536 H 0.76135 0.14264 0.7716 0.0
H537 H 0.74584 0.15879 0.85583 0.0
H538 H 0.73711 0.21772 0.87659 0.0
C539 C 0.73663 0.28219 0.86621 0.0
C540 C 0.74283 0.27224 0.81442 0.0
C541 C 0.74819 0.23779 0.80321 0.0
C542 C 0.75772 0.22858 0.75506 0.0
C543 C 0.76208 0.19385 0.74429 0.0
C544 C 0.75786 0.16906 0.78046 0.0
C545 C 0.74909 0.17814 0.82786 0.0
C546 C 0.74423 0.21206 0.83931 0.0
H547 H 0.81427 0.23062 0.69529 0.0
C548 C 0.80065 0.23423 0.66318 0.0
H549 H 0.7606 0.25033 0.63718 0.0
H550 H 0.73284 0.34021 0.82366 0.0
H551 H 0.7396 0.38304 0.75986 0.0
H552 H 0.7569 0.36735 0.67652 0.0
H553 H 0.76756 0.30884 0.65647 0.0
C554 C 0.77387 0.24507 0.66921 0.0
C555 C 0.76245 0.25403 0.71876 0.0
C556 C 0.75603 0.28836 0.72947 0.0
C557 C 0.7462 0.29747 0.77749 0.0
C558 C 0.7404 0.33197 0.78771 0.0
C559 C 0.74417 0.35679 0.75144 0.0
C560 C 0.75389 0.34795 0.70452 0.0
C561 C 0.75986 0.31421 0.69347 0.0
H562 H 0.7154 0.71186 0.80002 0.0
C563 C 0.72863 0.71344 0.83297 0.0
H564 H 0.76876 0.72651 0.86189 0.0
H565 H 0.78122 0.71774 0.61317 0.0
H566 H 0.7732 0.65723 0.62254 0.0
H567 H 0.76314 0.63242 0.70491 0.0
H568 H 0.76076 0.66804 0.77832 0.0
C569 C 0.75572 0.72364 0.82894 0.0
C570 C 0.76682 0.737 0.78114 0.0
C571 C 0.76891 0.71567 0.73903 0.0
C572 C 0.77521 0.72987 0.69181 0.0
C573 C 0.77648 0.70821 0.64998 0.0
C574 C 0.77203 0.67344 0.65487 0.0
C575 C 0.76633 0.65948 0.70123 0.0
C576 C 0.76482 0.68022 0.74299 0.0
H577 H 0.8261 0.7849 0.63535 0.0
C578 C 0.80634 0.78873 0.61541 0.0
H579 H 0.76181 0.78275 0.61669 0.0
H580 H 0.76782 0.78449 0.85568 0.0
H581 H 0.77839 0.84427 0.84672 0.0
H582 H 0.7899 0.86864 0.7647 0.0
H583 H 0.79091 0.83324 0.69111 0.0
C584 C 0.7816 0.78052 0.63701 0.0
C585 C 0.78002 0.76517 0.68713 0.0
C586 C 0.78016 0.78607 0.72978 0.0
C587 C 0.77358 0.77196 0.777 0.0
C588 C 0.77293 0.79366 0.81888 0.0
C589 C 0.7789 0.82811 0.81428 0.0
C590 C 0.78538 0.84184 0.76811 0.0
C591 C 0.78591 0.82122 0.72618 0.0
loop_
_geom_bond_atom_site_label_1
_geom_bond_atom_site_label_2
_geom_bond_distance
_geom_bond_site_symmetry_2
_ccdc_geom_bond_type
Mg0 O1 2.028 . S
Mg0 O7 1.986 . S
Mg0 O9 2.114 1_554 S
Mg0 O10 2.251 1_554 S
Mg0 O13 2.010 . S
O1 Mg0 2.028 . S
O1 C4 1.250 . S
O2 Mg3 2.028 . S
O2 C4 1.248 . S
Mg3 O2 2.028 . S
Mg3 O8 2.032 . S
Mg3 O10 2.079 1_554 S
C4 O1 1.250 . S
C4 O2 1.248 . S
C5 O6 1.264 . S
C5 O13 1.249 . S
O6 C5 1.264 . S
O7 Mg0 1.986 . S
O7 C11 1.246 . S
O8 Mg3 2.032 . S
O8 C11 1.259 . S
O9 Mg0 2.114 1_556 S
O9 C12 1.252 . S
O10 Mg0 2.251 1_556 S
O10 Mg3 2.079 1_556 S
O10 C12 1.273 . S
C11 O7 1.246 . S
C11 O8 1.259 . S
C12 O9 1.252 . S
C12 O10 1.273 . S
O13 Mg0 2.010 . S
O13 C5 1.249 . S
Mg14 O15 2.028 . S
Mg14 O21 1.986 1_554 S
Mg14 O23 2.114 . S
Mg14 O24 2.251 . S
Mg14 O27 2.010 . S
O15 Mg14 2.028 . S
O15 C18 1.250 . S
O16 Mg17 2.028 . S
O16 C18 1.248 . S
Mg17 O16 2.028 . S
Mg17 O22 2.032 1_554 S
Mg17 O24 2.079 . S
C18 O15 1.250 . S
C18 O16 1.248 . S
C19 O20 1.264 . S
C19 O27 1.249 . S
O20 C19 1.264 . S
O21 Mg14 1.986 1_556 S
O21 C25 1.246 . S
O22 Mg17 2.032 1_556 S
O22 C25 1.259 . S
O23 Mg14 2.114 . S
O23 C26 1.252 . S
O24 Mg14 2.251 . S
O24 Mg17 2.079 . S
O24 C26 1.273 . S
C25 O21 1.246 . S
C25 O22 1.259 . S
C26 O23 1.252 . S
C26 O24 1.273 . S
O27 Mg14 2.010 . S
O27 C19 1.249 . S
Mg28 O29 2.028 . S
Mg28 O35 1.986 . S
Mg28 O37 2.114 1_554 S
Mg28 O38 2.251 1_554 S
Mg28 O41 2.010 . S
O29 Mg28 2.028 . S
O29 C32 1.250 . S
O30 Mg31 2.028 . S
O30 C32 1.248 . S
Mg31 O30 2.028 . S
Mg31 O36 2.032 . S
Mg31 O38 2.079 1_554 S
C32 O29 1.250 . S
C32 O30 1.248 . S
C33 O34 1.264 . S
C33 O41 1.249 . S
O34 C33 1.264 . S
O35 Mg28 1.986 . S
O35 C39 1.246 . S
O36 Mg31 2.032 . S
O36 C39 1.259 . S
O37 Mg28 2.114 1_556 S
O37 C40 1.252 . S
O38 Mg28 2.251 1_556 S
O38 Mg31 2.079 1_556 S
O38 C40 1.273 . S
C39 O35 1.246 . S
C39 O36 1.259 . S
C40 O37 1.252 . S
C40 O38 1.273 . S
O41 Mg28 2.010 . S
O41 C33 1.249 . S
Mg42 O43 2.028 . S
Mg42 O49 1.986 1_554 S
Mg42 O51 2.114 . S
Mg42 O52 2.251 . S
Mg42 O55 2.010 . S
O43 Mg42 2.028 . S
O43 C46 1.250 . S
O44 Mg45 2.028 . S
O44 C46 1.248 . S
Mg45 O44 2.028 . S
Mg45 O50 2.032 1_554 S
Mg45 O52 2.079 . S
C46 O43 1.250 . S
C46 O44 1.248 . S
C47 O48 1.264 . S
C47 O55 1.249 . S
O48 C47 1.264 . S
O49 Mg42 1.986 1_556 S
O49 C53 1.246 . S
O50 Mg45 2.032 1_556 S
O50 C53 1.259 . S
O51 Mg42 2.114 . S
O51 C54 1.252 . S
O52 Mg42 2.251 . S
O52 Mg45 2.079 . S
O52 C54 1.273 . S
C53 O49 1.246 . S
C53 O50 1.259 . S
C54 O51 1.252 . S
C54 O52 1.273 . S
O55 Mg42 2.010 . S
O55 C47 1.249 . S
Mg56 O57 2.028 . S
Mg56 O63 1.986 . S
Mg56 O65 2.114 . S
Mg56 O66 2.251 . S
Mg56 O69 2.010 . S
O57 Mg56 2.028 . S
O57 C60 1.250 . S
O58 Mg59 2.028 . S
O58 C60 1.248 . S
Mg59 O58 2.028 . S
Mg59 O64 2.032 . S
Mg59 O66 2.079 . S
C60 O57 1.250 . S
C60 O58 1.248 . S
C61 O62 1.264 . S
C61 O69 1.249 . S
O62 C61 1.264 . S
O63 Mg56 1.986 . S
O63 C67 1.246 . S
O64 Mg59 2.032 . S
O64 C67 1.259 . S
O65 Mg56 2.114 . S
O65 C68 1.252 . S
O66 Mg56 2.251 . S
O66 Mg59 2.079 . S
O66 C68 1.273 . S
C67 O63 1.246 . S
C67 O64 1.259 . S
C68 O65 1.252 . S
C68 O66 1.273 . S
O69 Mg56 2.010 . S
O69 C61 1.249 . S
Mg70 O71 2.028 . S
Mg70 O77 1.986 . S
Mg70 O79 2.114 . S
Mg70 O80 2.251 . S
Mg70 O83 2.010 . S
O71 Mg70 2.028 . S
O71 C74 1.250 . S
O72 Mg73 2.028 . S
O72 C74 1.248 . S
Mg73 O72 2.028 . S
Mg73 O78 2.032 . S
Mg73 O80 2.079 . S
C74 O71 1.250 . S
C74 O72 1.248 . S
C75 O76 1.264 . S
C75 O83 1.249 . S
O76 C75 1.264 . S
O77 Mg70 1.986 . S
O77 C81 1.246 . S
O78 Mg73 2.032 . S
O78 C81 1.259 . S
O79 Mg70 2.114 . S
O79 C82 1.252 . S
O80 Mg70 2.251 . S
O80 Mg73 2.079 . S
O80 C82 1.273 . S
C81 O77 1.246 . S
C81 O78 1.259 . S
C82 O79 1.252 . S
C82 O80 1.273 . S
O83 Mg70 2.010 . S
O83 C75 1.249 . S
Mg84 O85 2.028 . S
Mg84 O91 1.986 . S
Mg84 O93 2.114 . S
Mg84 O94 2.251 . S
Mg84 O97 2.010 . S
O85 Mg84 2.028 . S
O85 C88 1.250 . S
O86 Mg87 2.028 . S
O86 C88 1.248 . S
Mg87 O86 2.028 . S
Mg87 O92 2.032 . S
Mg87 O94 2.079 . S
C88 O85 1.250 . S
C88 O86 1.248 . S
C89 O90 1.264 . S
C89 O97 1.249 . S
O90 C89 1.264 . S
O91 Mg84 1.986 . S
O91 C95 1.246 . S
O92 Mg87 2.032 . S
O92 C95 1.259 . S
O93 Mg84 2.114 . S
O93 C96 1.252 . S
O94 Mg84 2.251 . S
O94 Mg87 2.079 . S
O94 C96 1.273 . S
C95 O91 1.246 . S
C95 O92 1.259 . S
C96 O93 1.252 . S
C96 O94 1.273 . S
O97 Mg84 2.010 . S
O97 C89 1.249 . S
Mg98 O99 2.028 . S
Mg98 O105 1.986 . S
Mg98 O107 2.114 . S
Mg98 O108 2.251 . S
Mg98 O111 2.010 . S
O99 Mg98 2.028 . S
O99 C102 1.250 . S
O100 Mg101 2.028 . S
O100 C102 1.248 . S
Mg101 O100 2.028 . S
Mg101 O106 2.032 . S
Mg101 O108 2.079 . S
C102 O99 1.250 . S
C102 O100 1.248 . S
C103 O104 1.264 . S
C103 O111 1.249 . S
O104 C103 1.264 . S
O105 Mg98 1.986 . S
O105 C109 1.246 . S
O106 Mg101 2.032 . S
O106 C109 1.259 . S
O107 Mg98 2.114 . S
O107 C110 1.252 . S
O108 Mg98 2.251 . S
O108 Mg101 2.079 . S
O108 C110 1.273 . S
C109 O105 1.246 . S
C109 O106 1.259 . S
C110 O107 1.252 . S
C110 O108 1.273 . S
O111 Mg98 2.010 . S
O111 C103 1.249 . S
H112 C113 0.951 . S
C113 H112 0.951 . S
C113 C119 1.265 . S
H114 C119 0.950 . S
H115 C123 0.949 . S
H116 C124 0.950 . S
H117 C125 0.951 . S
H118 C126 0.951 . S
C119 C113 1.265 . S
C119 H114 0.950 . S
C119 C120 1.478 . S
C120 C119 1.478 . S
C120 C121 1.397 1_554 S
C120 C137 1.394 . S
C121 C120 1.397 1_556 S
C121 C122 1.438 . S
C121 C126 1.429 . S
C122 C121 1.438 . S
C122 C123 1.428 . S
C122 C135 1.394 1_556 S
C123 H115 0.949 . S
C123 C122 1.428 . S
C123 C124 1.345 . S
C124 H116 0.950 . S
C124 C123 1.345 . S
C124 C125 1.424 . S
C125 H117 0.951 . S
C125 C124 1.424 . S
C125 C126 1.347 . S
C126 H118 0.951 . S
C126 C121 1.429 . S
C126 C125 1.347 . S
H127 C128 0.951 . S
C128 H127 0.951 . S
C128 C134 1.265 . S
H129 C134 0.950 . S
H130 C138 0.949 . S
H131 C139 0.950 . S
H132 C140 0.951 . S
H133 C141 0.951 . S
C134 C128 1.265 . S
C134 H129 0.950 . S
C134 C135 1.478 . S
C135 C122 1.394 1_554 S
C135 C134 1.478 . S
C135 C136 1.397 . S
C136 C135 1.397 . S
C136 C137 1.438 . S
C136 C141 1.429 . S
C137 C120 1.394 . S
C137 C136 1.438 . S
C137 C138 1.428 . S
C138 H130 0.949 . S
C138 C137 1.428 . S
C138 C139 1.345 . S
C139 H131 0.950 . S
C139 C138 1.345 . S
C139 C140 1.424 . S
C140 H132 0.951 . S
C140 C139 1.424 . S
C140 C141 1.347 . S
C141 H133 0.951 . S
C141 C136 1.429 . S
C141 C140 1.347 . S
H142 C143 0.951 . S
C143 H142 0.951 . S
C143 C149 1.265 1_554 S
H144 C149 0.950 . S
H145 C153 0.949 . S
H146 C154 0.950 . S
H147 C155 0.951 . S
H148 C156 0.951 . S
C149 C143 1.265 1_556 S
C149 H144 0.950 . S
C149 C150 1.478 1_556 S
C150 C149 1.478 1_554 S
C150 C151 1.397 . S
C150 C167 1.394 . S
C151 C150 1.397 . S
C151 C152 1.438 . S
C151 C156 1.429 . S
C152 C151 1.438 . S
C152 C153 1.428 . S
C152 C165 1.394 . S
C153 H145 0.949 . S
C153 C152 1.428 . S
C153 C154 1.345 . S
C154 H146 0.950 . S
C154 C153 1.345 . S
C154 C155 1.424 . S
C155 H147 0.951 . S
C155 C154 1.424 . S
C155 C156 1.347 . S
C156 H148 0.951 . S
C156 C151 1.429 . S
C156 C155 1.347 . S
H157 C158 0.951 1_556 S
C158 H157 0.951 1_554 S
C158 C164 1.265 . S
H159 C164 0.950 . S
H160 C168 0.949 1_556 S
H161 C169 0.950 . S
H162 C170 0.951 . S
H163 C171 0.951 . S
C164 C158 1.265 . S
C164 H159 0.950 . S
C164 C165 1.478 . S
C165 C152 1.394 . S
C165 C164 1.478 . S
C165 C166 1.397 . S
C166 C165 1.397 . S
C166 C167 1.438 . S
C166 C171 1.429 . S
C167 C150 1.394 . S
C167 C166 1.438 . S
C167 C168 1.428 . S
C168 H160 0.949 1_554 S
C168 C167 1.428 . S
C168 C169 1.345 . S
C169 H161 0.950 . S
C169 C168 1.345 . S
C169 C170 1.424 . S
C170 H162 0.951 . S
C170 C169 1.424 . S
C170 C171 1.347 . S
C171 H163 0.951 . S
C171 C166 1.429 . S
C171 C170 1.347 . S
H172 C173 0.951 . S
C173 H172 0.951 . S
C173 C179 1.265 . S
H174 C179 0.950 . S
H175 C183 0.949 . S
H176 C184 0.950 . S
H177 C185 0.951 . S
H178 C186 0.951 . S
C179 C173 1.265 . S
C179 H174 0.950 . S
C179 C180 1.478 . S
C180 C179 1.478 . S
C180 C181 1.397 1_554 S
C180 C197 1.394 . S
C181 C180 1.397 1_556 S
C181 C182 1.438 . S
C181 C186 1.429 . S
C182 C181 1.438 . S
C182 C183 1.428 . S
C182 C195 1.394 1_556 S
C183 H175 0.949 . S
C183 C182 1.428 . S
C183 C184 1.345 . S
C184 H176 0.950 . S
C184 C183 1.345 . S
C184 C185 1.424 . S
C185 H177 0.951 . S
C185 C184 1.424 . S
C185 C186 1.347 . S
C186 H178 0.951 . S
C186 C181 1.429 . S
C186 C185 1.347 . S
H187 C188 0.951 . S
C188 H187 0.951 . S
C188 C194 1.265 . S
H189 C194 0.950 . S
H190 C198 0.949 . S
H191 C199 0.950 . S
H192 C200 0.951 . S
H193 C201 0.951 . S
C194 C188 1.265 . S
C194 H189 0.950 . S
C194 C195 1.478 . S
C195 C182 1.394 1_554 S
C195 C194 1.478 . S
C195 C196 1.397 . S
C196 C195 1.397 . S
C196 C197 1.438 . S
C196 C201 1.429 . S
C197 C180 1.394 . S
C197 C196 1.438 . S
C197 C198 1.428 . S
C198 H190 0.949 . S
C198 C197 1.428 . S
C198 C199 1.345 . S
C199 H191 0.950 . S
C199 C198 1.345 . S
C199 C200 1.424 . S
C200 H192 0.951 . S
C200 C199 1.424 . S
C200 C201 1.347 . S
C201 H193 0.951 . S
C201 C196 1.429 . S
C201 C200 1.347 . S
H202 C203 0.951 1_556 S
C203 H202 0.951 1_554 S
C203 C209 1.265 . S
H204 C209 0.950 . S
H205 C213 0.949 . S
H206 C214 0.950 . S
H207 C215 0.951 . S
H208 C216 0.951 . S
C209 C203 1.265 . S
C209 H204 0.950 . S
C209 C210 1.478 . S
C210 C209 1.478 . S
C210 C211 1.397 . S
C210 C227 1.392 1_554 S
C211 C210 1.397 . S
C211 C212 1.438 . S
C211 C216 1.429 . S
C212 C211 1.438 . S
C212 C213 1.428 . S
C212 C225 1.394 . S
C213 H205 0.949 . S
C213 C212 1.428 . S
C213 C214 1.345 . S
C214 H206 0.950 . S
C214 C213 1.345 . S
C214 C215 1.424 . S
C215 H207 0.951 . S
C215 C214 1.424 . S
C215 C216 1.347 . S
C216 H208 0.951 . S
C216 C211 1.429 . S
C216 C215 1.347 . S
H217 C218 0.951 . S
C218 H217 0.951 . S
C218 C224 1.265 1_554 S
H219 C224 0.950 . S
H220 C228 0.949 . S
H221 C229 0.950 . S
H222 C230 0.951 . S
H223 C231 0.951 . S
C224 C218 1.265 1_556 S
C224 H219 0.950 . S
C224 C225 1.478 1_556 S
C225 C212 1.394 . S
C225 C224 1.478 1_554 S
C225 C226 1.397 1_554 S
C226 C225 1.397 1_556 S
C226 C227 1.439 . S
C226 C231 1.429 . S
C227 C210 1.392 1_556 S
C227 C226 1.439 . S
C227 C228 1.429 . S
C228 H220 0.949 . S
C228 C227 1.429 . S
C228 C229 1.345 . S
C229 H221 0.950 . S
C229 C228 1.345 . S
C229 C230 1.424 . S
C230 H222 0.951 . S
C230 C229 1.424 . S
C230 C231 1.347 . S
C231 H223 0.951 . S
C231 C226 1.429 . S
C231 C230 1.347 . S
H232 C233 0.951 . S
C233 H232 0.951 . S
C233 C239 1.265 . S
H234 C239 0.950 . S
H235 C243 0.949 . S
H236 C244 0.950 . S
H237 C245 0.951 . S
H238 C246 0.951 . S
C239 C233 1.265 . S
C239 H234 0.950 . S
C239 C240 1.478 . S
C240 C239 1.478 . S
C240 C241 1.397 . S
C240 C257 1.394 . S
C241 C240 1.397 . S
C241 C242 1.438 1_565 S
C241 C246 1.429 . S
C242 C241 1.438 1_545 S
C242 C243 1.428 . S
C242 C255 1.394 . S
C243 H235 0.949 . S
C243 C242 1.428 . S
C243 C244 1.345 . S
C244 H236 0.950 . S
C244 C243 1.345 . S
C244 C245 1.424 1_545 S
C245 H237 0.951 . S
C245 C244 1.424 1_565 S
C245 C246 1.347 . S
C246 H238 0.951 . S
C246 C241 1.429 . S
C246 C245 1.347 . S
H247 C248 0.951 . S
C248 H247 0.951 . S
C248 C254 1.265 . S
H249 C254 0.950 . S
H250 C258 0.949 . S
H251 C259 0.950 . S
H252 C260 0.951 . S
H253 C261 0.951 . S
C254 C248 1.265 . S
C254 H249 0.950 . S
C254 C255 1.478 . S
C255 C242 1.394 . S
C255 C254 1.478 . S
C255 C256 1.397 . S
C256 C255 1.397 . S
C256 C257 1.438 1_545 S
C256 C261 1.429 . S
C257 C240 1.394 . S
C257 C256 1.438 1_565 S
C257 C258 1.428 . S
C258 H250 0.949 . S
C258 C257 1.428 . S
C258 C259 1.345 . S
C259 H251 0.950 . S
C259 C258 1.345 . S
C259 C260 1.424 1_565 S
C260 H252 0.951 . S
C260 C259 1.424 1_545 S
C260 C261 1.347 . S
C261 H253 0.951 . S
C261 C256 1.429 . S
C261 C260 1.347 . S
H262 C263 0.951 . S
C263 H262 0.951 . S
C263 C269 1.265 . S
H264 C269 0.950 . S
H265 C273 0.949 . S
H266 C274 0.950 . S
H267 C275 0.951 . S
H268 C276 0.951 . S
C269 C263 1.265 . S
C269 H264 0.950 . S
C269 C270 1.478 . S
C270 C269 1.478 . S
C270 C271 1.397 . S
C270 C287 1.394 . S
C271 C270 1.397 . S
C271 C272 1.438 1_455 S
C271 C276 1.429 . S
C272 C271 1.438 1_655 S
C272 C273 1.428 . S
C272 C285 1.394 . S
C273 H265 0.949 . S
C273 C272 1.428 . S
C273 C274 1.345 . S
C274 H266 0.950 . S
C274 C273 1.345 . S
C274 C275 1.424 1_655 S
C275 H267 0.951 . S
C275 C274 1.424 1_455 S
C275 C276 1.347 . S
C276 H268 0.951 . S
C276 C271 1.429 . S
C276 C275 1.347 . S
H277 C278 0.951 . S
C278 H277 0.951 . S
C278 C284 1.265 . S
H279 C284 0.950 . S
H280 C288 0.949 . S
H281 C289 0.950 . S
H282 C290 0.951 . S
H283 C291 0.951 . S
C284 C278 1.265 . S
C284 H279 0.950 . S
C284 C285 1.478 . S
C285 C272 1.394 . S
C285 C284 1.478 . S
C285 C286 1.397 . S
C286 C285 1.397 . S
C286 C287 1.438 1_655 S
C286 C291 1.429 . S
C287 C270 1.394 . S
C287 C286 1.438 1_455 S
C287 C288 1.428 . S
C288 H280 0.949 . S
C288 C287 1.428 . S
C288 C289 1.345 . S
C289 H281 0.950 . S
C289 C288 1.345 . S
C289 C290 1.424 1_455 S
C290 H282 0.951 . S
C290 C289 1.424 1_655 S
C290 C291 1.347 . S
C291 H283 0.951 . S
C291 C286 1.429 . S
C291 C290 1.347 . S
H292 C293 0.951 . S
C293 H292 0.951 . S
C293 C299 1.265 . S
H294 C299 0.950 . S
H295 C303 0.949 . S
H296 C304 0.950 . S
H297 C305 0.951 . S
H298 C306 0.951 . S
C299 C293 1.265 . S
C299 H294 0.950 . S
C299 C300 1.478 . S
C300 C299 1.478 . S
C300 C301 1.397 . S
C300 C317 1.394 . S
C301 C300 1.397 . S
C301 C302 1.438 1_545 S
C301 C306 1.429 . S
C302 C301 1.438 1_565 S
C302 C303 1.428 . S
C302 C315 1.394 . S
C303 H295 0.949 . S
C303 C302 1.428 . S
C303 C304 1.345 . S
C304 H296 0.950 . S
C304 C303 1.345 . S
C304 C305 1.424 1_565 S
C305 H297 0.951 . S
C305 C304 1.424 1_545 S
C305 C306 1.347 . S
C306 H298 0.951 . S
C306 C301 1.429 . S
C306 C305 1.347 . S
H307 C308 0.951 . S
C308 H307 0.951 . S
C308 C314 1.265 . S
H309 C314 0.950 . S
H310 C318 0.949 . S
H311 C319 0.950 . S
H312 C320 0.951 . S
H313 C321 0.951 . S
C314 C308 1.265 . S
C314 H309 0.950 . S
C314 C315 1.478 . S
C315 C302 1.394 . S
C315 C314 1.478 . S
C315 C316 1.397 . S
C316 C315 1.397 . S
C316 C317 1.438 1_565 S
C316 C321 1.429 . S
C317 C300 1.394 . S
C317 C316 1.438 1_545 S
C317 C318 1.428 . S
C318 H310 0.949 . S
C318 C317 1.428 . S
C318 C319 1.345 . S
C319 H311 0.950 . S
C319 C318 1.345 . S
C319 C320 1.424 1_545 S
C320 H312 0.951 . S
C320 C319 1.424 1_565 S
C320 C321 1.347 . S
C321 H313 0.951 . S
C321 C316 1.429 . S
C321 C320 1.347 . S
H322 C323 0.951 . S
C323 H322 0.951 . S
C323 C329 1.265 . S
H324 C329 0.950 . S
H325 C333 0.949 . S
H326 C334 0.950 . S
H327 C335 0.951 . S
H328 C336 0.951 . S
C329 C323 1.265 . S
C329 H324 0.950 . S
C329 C330 1.478 . S
C330 C329 1.478 . S
C330 C331 1.397 . S
C330 C347 1.394 . S
C331 C330 1.397 . S
C331 C332 1.438 1_655 S
C331 C336 1.429 . S
C332 C331 1.438 1_455 S
C332 C333 1.428 . S
C332 C345 1.394 . S
C333 H325 0.949 . S
C333 C332 1.428 . S
C333 C334 1.345 . S
C334 H326 0.950 . S
C334 C333 1.345 . S
C334 C335 1.424 1_455 S
C335 H327 0.951 . S
C335 C334 1.424 1_655 S
C335 C336 1.347 . S
C336 H328 0.951 . S
C336 C331 1.429 . S
C336 C335 1.347 . S
H337 C338 0.951 . S
C338 H337 0.951 . S
C338 C344 1.265 . S
H339 C344 0.950 . S
H340 C348 0.949 . S
H341 C349 0.950 . S
H342 C350 0.951 . S
H343 C351 0.951 . S
C344 C338 1.265 . S
C344 H339 0.950 . S
C344 C345 1.478 . S
C345 C332 1.394 . S
C345 C344 1.478 . S
C345 C346 1.397 . S
C346 C345 1.397 . S
C346 C347 1.438 1_455 S
C346 C351 1.429 . S
C347 C330 1.394 . S
C347 C346 1.438 1_655 S
C347 C348 1.428 . S
C348 H340 0.949 . S
C348 C347 1.428 . S
C348 C349 1.345 . S
C349 H341 0.950 . S
C349 C348 1.345 . S
C349 C350 1.424 1_655 S
C350 H342 0.951 . S
C350 C349 1.424 1_455 S
C350 C351 1.347 . S
C351 H343 0.951 . S
C351 C346 1.429 . S
C351 C350 1.347 . S
H352 C353 0.951 . S
C353 H352 0.951 . S
C353 C359 1.265 . S
H354 C359 0.950 . S
H355 C363 0.949 . S
H356 C364 0.950 . S
H357 C365 0.951 . S
H358 C366 0.951 . S
C359 C353 1.265 . S
C359 H354 0.950 . S
C359 C360 1.478 . S
C360 C359 1.478 . S
C360 C361 1.397 . S
C360 C377 1.394 . S
C361 C360 1.397 . S
C361 C362 1.438 . S
C361 C366 1.429 . S
C362 C361 1.438 . S
C362 C363 1.428 . S
C362 C375 1.394 . S
C363 H355 0.949 . S
C363 C362 1.428 . S
C363 C364 1.345 . S
C364 H356 0.950 . S
C364 C363 1.345 . S
C364 C365 1.424 . S
C365 H357 0.951 . S
C365 C364 1.424 . S
C365 C366 1.347 . S
C366 H358 0.951 . S
C366 C361 1.429 . S
C366 C365 1.347 . S
H367 C368 0.951 . S
C368 H367 0.951 . S
C368 C374 1.265 . S
H369 C374 0.950 . S
H370 C378 0.949 . S
H371 C379 0.950 . S
H372 C380 0.951 . S
H373 C381 0.951 . S
C374 C368 1.265 . S
C374 H369 0.950 . S
C374 C375 1.478 . S
C375 C362 1.394 . S
C375 C374 1.478 . S
C375 C376 1.397 . S
C376 C375 1.397 . S
C376 C377 1.438 . S
C376 C381 1.429 . S
C377 C360 1.394 . S
C377 C376 1.438 . S
C377 C378 1.428 . S
C378 H370 0.949 . S
C378 C377 1.428 . S
C378 C379 1.345 . S
C379 H371 0.950 . S
C379 C378 1.345 . S
C379 C380 1.424 . S
C380 H372 0.951 . S
C380 C379 1.424 . S
C380 C381 1.347 . S
C381 H373 0.951 . S
C381 C376 1.429 . S
C381 C380 1.347 . S
H382 C383 0.951 . S
C383 H382 0.951 . S
C383 C389 1.265 . S
H384 C389 0.950 . S
H385 C393 0.949 . S
H386 C394 0.950 . S
H387 C395 0.951 . S
H388 C396 0.951 . S
C389 C383 1.265 . S
C389 H384 0.950 . S
C389 C390 1.478 . S
C390 C389 1.478 . S
C390 C391 1.397 . S
C390 C407 1.394 . S
C391 C390 1.397 . S
C391 C392 1.438 . S
C391 C396 1.429 . S
C392 C391 1.438 . S
C392 C393 1.428 . S
C392 C405 1.394 . S
C393 H385 0.949 . S
C393 C392 1.428 . S
C393 C394 1.345 . S
C394 H386 0.950 . S
C394 C393 1.345 . S
C394 C395 1.424 . S
C395 H387 0.951 . S
C395 C394 1.424 . S
C395 C396 1.347 . S
C396 H388 0.951 . S
C396 C391 1.429 . S
C396 C395 1.347 . S
H397 C398 0.951 . S
C398 H397 0.951 . S
C398 C404 1.265 . S
H399 C404 0.950 . S
H400 C408 0.949 . S
H401 C409 0.950 . S
H402 C410 0.951 . S
H403 C411 0.951 . S
C404 C398 1.265 . S
C404 H399 0.950 . S
C404 C405 1.478 . S
C405 C392 1.394 . S
C405 C404 1.478 . S
C405 C406 1.397 . S
C406 C405 1.397 . S
C406 C407 1.438 . S
C406 C411 1.429 . S
C407 C390 1.394 . S
C407 C406 1.438 . S
C407 C408 1.428 . S
C408 H400 0.949 . S
C408 C407 1.428 . S
C408 C409 1.345 . S
C409 H401 0.950 . S
C409 C408 1.345 . S
C409 C410 1.424 . S
C410 H402 0.951 . S
C410 C409 1.424 . S
C410 C411 1.347 . S
C411 H403 0.951 . S
C411 C406 1.429 . S
C411 C410 1.347 . S
H412 C413 0.951 . S
C413 H412 0.951 . S
C413 C419 1.265 . S
H414 C419 0.950 . S
H415 C423 0.949 . S
H416 C424 0.950 . S
H417 C425 0.951 . S
H418 C426 0.951 . S
C419 C413 1.265 . S
C419 H414 0.950 . S
C419 C420 1.478 . S
C420 C419 1.478 . S
C420 C421 1.397 . S
C420 C437 1.394 . S
C421 C420 1.397 . S
C421 C422 1.438 . S
C421 C426 1.429 . S
C422 C421 1.438 . S
C422 C423 1.428 . S
C422 C435 1.394 . S
C423 H415 0.949 . S
C423 C422 1.428 . S
C423 C424 1.345 . S
C424 H416 0.950 . S
C424 C423 1.345 . S
C424 C425 1.424 . S
C425 H417 0.951 . S
C425 C424 1.424 . S
C425 C426 1.347 . S
C426 H418 0.951 . S
C426 C421 1.429 . S
C426 C425 1.347 . S
H427 C428 0.951 . S
C428 H427 0.951 . S
C428 C434 1.265 . S
H429 C434 0.950 . S
H430 C438 0.949 . S
H431 C439 0.950 . S
H432 C440 0.951 . S
H433 C441 0.951 . S
C434 C428 1.265 . S
C434 H429 0.950 . S
C434 C435 1.478 . S
C435 C422 1.394 . S
C435 C434 1.478 . S
C435 C436 1.397 . S
C436 C435 1.397 . S
C436 C437 1.438 . S
C436 C441 1.429 . S
C437 C420 1.394 . S
C437 C436 1.438 . S
C437 C438 1.428 . S
C438 H430 0.949 . S
C438 C437 1.428 . S
C438 C439 1.345 . S
C439 H431 0.950 . S
C439 C438 1.345 . S
C439 C440 1.424 . S
C440 H432 0.951 . S
C440 C439 1.424 . S
C440 C441 1.347 . S
C441 H433 0.951 . S
C441 C436 1.429 . S
C441 C440 1.347 . S
H442 C443 0.951 . S
C443 H442 0.951 . S
C443 C449 1.265 . S
H444 C449 0.950 . S
H445 C453 0.949 . S
H446 C454 0.950 . S
H447 C455 0.951 . S
H448 C456 0.951 . S
C449 C443 1.265 . S
C449 H444 0.950 . S
C449 C450 1.478 . S
C450 C449 1.478 . S
C450 C451 1.397 . S
C450 C467 1.394 . S
C451 C450 1.397 . S
C451 C452 1.438 . S
C451 C456 1.429 . S
C452 C451 1.438 . S
C452 C453 1.428 . S
C452 C465 1.394 . S
C453 H445 0.949 . S
C453 C452 1.428 . S
C453 C454 1.345 . S
C454 H446 0.950 . S
C454 C453 1.345 . S
C454 C455 1.424 . S
C455 H447 0.951 . S
C455 C454 1.424 . S
C455 C456 1.347 . S
C456 H448 0.951 . S
C456 C451 1.429 . S
C456 C455 1.347 . S
H457 C458 0.951 . S
C458 H457 0.951 . S
C458 C464 1.265 . S
H459 C464 0.950 . S
H460 C468 0.949 . S
H461 C469 0.950 . S
H462 C470 0.951 . S
H463 C471 0.951 . S
C464 C458 1.265 . S
C464 H459 0.950 . S
C464 C465 1.478 . S
C465 C452 1.394 . S
C465 C464 1.478 . S
C465 C466 1.397 . S
C466 C465 1.397 . S
C466 C467 1.438 . S
C466 C471 1.429 . S
C467 C450 1.394 . S
C467 C466 1.438 . S
C467 C468 1.428 . S
C468 H460 0.949 . S
C468 C467 1.428 . S
C468 C469 1.345 . S
C469 H461 0.950 . S
C469 C468 1.345 . S
C469 C470 1.424 . S
C470 H462 0.951 . S
C470 C469 1.424 . S
C470 C471 1.347 . S
C471 H463 0.951 . S
C471 C466 1.429 . S
C471 C470 1.347 . S
H472 C473 0.951 . S
C473 H472 0.951 . S
C473 C479 1.265 . S
H474 C479 0.950 . S
H475 C483 0.949 . S
H476 C484 0.950 . S
H477 C485 0.951 . S
H478 C486 0.951 . S
C479 C473 1.265 . S
C479 H474 0.950 . S
C479 C480 1.478 . S
C480 C479 1.478 . S
C480 C481 1.397 . S
C480 C497 1.394 . S
C481 C480 1.397 . S
C481 C482 1.438 . S
C481 C486 1.429 . S
C482 C481 1.438 . S
C482 C483 1.428 . S
C482 C495 1.394 . S
C483 H475 0.949 . S
C483 C482 1.428 . S
C483 C484 1.345 . S
C484 H476 0.950 . S
C484 C483 1.345 . S
C484 C485 1.424 . S
C485 H477 0.951 . S
C485 C484 1.424 . S
C485 C486 1.347 . S
C486 H478 0.951 . S
C486 C481 1.429 . S
C486 C485 1.347 . S
H487 C488 0.951 . S
C488 H487 0.951 . S
C488 C494 1.265 . S
H489 C494 0.950 . S
H490 C498 0.949 . S
H491 C499 0.950 . S
H492 C500 0.951 . S
H493 C501 0.951 . S
C494 C488 1.265 . S
C494 H489 0.950 . S
C494 C495 1.478 . S
C495 C482 1.394 . S
C495 C494 1.478 . S
C495 C496 1.397 . S
C496 C495 1.397 . S
C496 C497 1.438 . S
C496 C501 1.429 . S
C497 C480 1.394 . S
C497 C496 1.438 . S
C497 C498 1.428 . S
C498 H490 0.949 . S
C498 C497 1.428 . S
C498 C499 1.345 . S
C499 H491 0.950 . S
C499 C498 1.345 . S
C499 C500 1.424 . S
C500 H492 0.951 . S
C500 C499 1.424 . S
C500 C501 1.347 . S
C501 H493 0.951 . S
C501 C496 1.429 . S
C501 C500 1.347 . S
H502 C503 0.951 . S
C503 H502 0.951 . S
C503 C509 1.265 . S
H504 C509 0.950 . S
H505 C513 0.949 . S
H506 C514 0.950 . S
H507 C515 0.951 . S
H508 C516 0.951 . S
C509 C503 1.265 . S
C509 H504 0.950 . S
C509 C510 1.478 . S
C510 C509 1.478 . S
C510 C511 1.397 . S
C510 C527 1.394 . S
C511 C510 1.397 . S
C511 C512 1.438 . S
C511 C516 1.429 . S
C512 C511 1.438 . S
C512 C513 1.428 . S
C512 C525 1.394 . S
C513 H505 0.949 . S
C513 C512 1.428 . S
C513 C514 1.345 . S
C514 H506 0.950 . S
C514 C513 1.345 . S
C514 C515 1.424 . S
C515 H507 0.951 . S
C515 C514 1.424 . S
C515 C516 1.347 . S
C516 H508 0.951 . S
C516 C511 1.429 . S
C516 C515 1.347 . S
H517 C518 0.951 . S
C518 H517 0.951 . S
C518 C524 1.265 . S
H519 C524 0.950 . S
H520 C528 0.949 . S
H521 C529 0.950 . S
H522 C530 0.951 . S
H523 C531 0.951 . S
C524 C518 1.265 . S
C524 H519 0.950 . S
C524 C525 1.478 . S
C525 C512 1.394 . S
C525 C524 1.478 . S
C525 C526 1.397 . S
C526 C525 1.397 . S
C526 C527 1.438 . S
C526 C531 1.429 . S
C527 C510 1.394 . S
C527 C526 1.438 . S
C527 C528 1.428 . S
C528 H520 0.949 . S
C528 C527 1.428 . S
C528 C529 1.345 . S
C529 H521 0.950 . S
C529 C528 1.345 . S
C529 C530 1.424 . S
C530 H522 0.951 . S
C530 C529 1.424 . S
C530 C531 1.347 . S
C531 H523 0.951 . S
C531 C526 1.429 . S
C531 C530 1.347 . S
H532 C533 0.951 . S
C533 H532 0.951 . S
C533 C539 1.265 . S
H534 C539 0.950 . S
H535 C543 0.949 . S
H536 C544 0.950 . S
H537 C545 0.951 . S
H538 C546 0.951 . S
C539 C533 1.265 . S
C539 H534 0.950 . S
C539 C540 1.478 . S
C540 C539 1.478 . S
C540 C541 1.397 . S
C540 C557 1.394 . S
C541 C540 1.397 . S
C541 C542 1.438 . S
C541 C546 1.429 . S
C542 C541 1.438 . S
C542 C543 1.428 . S
C542 C555 1.394 . S
C543 H535 0.949 . S
C543 C542 1.428 . S
C543 C544 1.345 . S
C544 H536 0.950 . S
C544 C543 1.345 . S
C544 C545 1.424 . S
C545 H537 0.951 . S
C545 C544 1.424 . S
C545 C546 1.347 . S
C546 H538 0.951 . S
C546 C541 1.429 . S
C546 C545 1.347 . S
H547 C548 0.951 . S
C548 H547 0.951 . S
C548 C554 1.265 . S
H549 C554 0.950 . S
H550 C558 0.949 . S
H551 C559 0.950 . S
H552 C560 0.951 . S
H553 C561 0.951 . S
C554 C548 1.265 . S
C554 H549 0.950 . S
C554 C555 1.478 . S
C555 C542 1.394 . S
C555 C554 1.478 . S
C555 C556 1.397 . S
C556 C555 1.397 . S
C556 C557 1.438 . S
C556 C561 1.429 . S
C557 C540 1.394 . S
C557 C556 1.438 . S
C557 C558 1.428 . S
C558 H550 0.949 . S
C558 C557 1.428 . S
C558 C559 1.345 . S
C559 H551 0.950 . S
C559 C558 1.345 . S
C559 C560 1.424 . S
C560 H552 0.951 . S
C560 C559 1.424 . S
C560 C561 1.347 . S
C561 H553 0.951 . S
C561 C556 1.429 . S
C561 C560 1.347 . S
H562 C563 0.951 . S
C563 H562 0.951 . S
C563 C569 1.265 . S
H564 C569 0.950 . S
H565 C573 0.949 . S
H566 C574 0.950 . S
H567 C575 0.951 . S
H568 C576 0.951 . S
C569 C563 1.265 . S
C569 H564 0.950 . S
C569 C570 1.478 . S
C570 C569 1.478 . S
C570 C571 1.397 . S
C570 C587 1.394 . S
C571 C570 1.397 . S
C571 C572 1.438 . S
C571 C576 1.429 . S
C572 C571 1.438 . S
C572 C573 1.428 . S
C572 C585 1.394 . S
C573 H565 0.949 . S
C573 C572 1.428 . S
C573 C574 1.345 . S
C574 H566 0.950 . S
C574 C573 1.345 . S
C574 C575 1.424 . S
C575 H567 0.951 . S
C575 C574 1.424 . S
C575 C576 1.347 . S
C576 H568 0.951 . S
C576 C571 1.429 . S
C576 C575 1.347 . S
H577 C578 0.951 . S
C578 H577 0.951 . S
C578 C584 1.265 . S
H579 C584 0.950 . S
H580 C588 0.949 . S
H581 C589 0.950 . S
H582 C590 0.951 . S
H583 C591 0.951 . S
C584 C578 1.265 . S
C584 H579 0.950 . S
C584 C585 1.478 . S
C585 C572 1.394 . S
C585 C584 1.478 . S
C585 C586 1.397 . S
C586 C585 1.397 . S
C586 C587 1.438 . S
C586 C591 1.429 . S
C587 C570 1.394 . S
C587 C586 1.438 . S
C587 C588 1.428 . S
C588 H580 0.949 . S
C588 C587 1.428 . S
C588 C589 1.345 . S
C589 H581 0.950 . S
C589 C588 1.345 . S
C589 C590 1.424 . S
C590 H582 0.951 . S
C590 C589 1.424 . S
C590 C591 1.347 . S
C591 H583 0.951 . S
C591 C586 1.429 . S
C591 C590 1.347 . S
C113 C4 1.423 . S
C128 C46 1.483 . S
C143 C5 1.251 . S
C158 C19 1.325 . S
C173 C18 1.483 . S
C188 C32 1.423 . S
C203 C47 1.295 . S
C218 C33 1.284 . S
C233 C60 1.483 . S
C248 C102 1.423 . S
C263 C75 1.307 . S
C278 C61 1.256 . S
C293 C88 1.483 . S
C308 C74 1.423 . S
C323 C103 1.287 . S
C338 C89 1.292 . S
C353 C96 1.412 . S
C368 C11 1.353 . S
C383 C26 1.412 . S
C398 C109 1.351 . S
C413 C68 1.412 . S
C428 C39 1.356 . S
C443 C81 1.415 . S
C458 C54 1.405 . S
C473 C82 1.404 . S
C488 C53 1.392 . S
C503 C12 1.412 . S
C518 C95 1.354 . S
C533 C25 1.411 . S
C548 C110 1.404 . S
C563 C40 1.405 . S
C578 C67 1.416 . S
