# Generated by pormake.
# Topology vce, (5)-cn, num edge types: 1
# Building blocks:
#     Node 0, Type 0, BuildingBlock: XOMCOT_clean_sbu_0, # of connection points: 5
#     Node 1, Type 0, BuildingBlock: XOMCOT_clean_sbu_0, # of connection points: 5
#     Node 2, Type 0, BuildingBlock: XOMCOT_clean_sbu_0, # of connection points: 5
#     Node 3, Type 0, BuildingBlock: XOMCOT_clean_sbu_0, # of connection points: 5
#     Node 4, Type 0, BuildingBlock: XOMCOT_clean_sbu_0, # of connection points: 5
#     Node 5, Type 0, BuildingBlock: XOMCOT_clean_sbu_0, # of connection points: 5
#     Node 6, Type 0, BuildingBlock: XOMCOT_clean_sbu_0, # of connection points: 5
#     Node 7, Type 0, BuildingBlock: XOMCOT_clean_sbu_0, # of connection points: 5
#     Node 8, Type 0, BuildingBlock: XOMCOT_clean_sbu_0, # of connection points: 5
#     Node 9, Type 0, BuildingBlock: XOMCOT_clean_sbu_0, # of connection points: 5
#     Node 10, Type 0, BuildingBlock: XOMCOT_clean_sbu_0, # of connection points: 5
#     Node 11, Type 0, BuildingBlock: XOMCOT_clean_sbu_0, # of connection points: 5
#     Node 12, Type 0, BuildingBlock: XOMCOT_clean_sbu_0, # of connection points: 5
#     Node 13, Type 0, BuildingBlock: XOMCOT_clean_sbu_0, # of connection points: 5
#     Node 14, Type 0, BuildingBlock: XOMCOT_clean_sbu_0, # of connection points: 5
#     Node 15, Type 0, BuildingBlock: XOMCOT_clean_sbu_0, # of connection points: 5
#     Node 16, Type 0, BuildingBlock: XOMCOT_clean_sbu_0, # of connection points: 5
#     Node 17, Type 0, BuildingBlock: XOMCOT_clean_sbu_0, # of connection points: 5
#     Node 18, Type 0, BuildingBlock: XOMCOT_clean_sbu_0, # of connection points: 5
#     Node 19, Type 0, BuildingBlock: XOMCOT_clean_sbu_0, # of connection points: 5
#     Node 20, Type 0, BuildingBlock: XOMCOT_clean_sbu_0, # of connection points: 5
#     Node 21, Type 0, BuildingBlock: XOMCOT_clean_sbu_0, # of connection points: 5
#     Node 22, Type 0, BuildingBlock: XOMCOT_clean_sbu_0, # of connection points: 5
#     Node 23, Type 0, BuildingBlock: XOMCOT_clean_sbu_0, # of connection points: 5
#     Node 24, Type 0, BuildingBlock: XOMCOT_clean_sbu_0, # of connection points: 5
#     Node 25, Type 0, BuildingBlock: XOMCOT_clean_sbu_0, # of connection points: 5
#     Node 26, Type 0, BuildingBlock: XOMCOT_clean_sbu_0, # of connection points: 5
#     Node 27, Type 0, BuildingBlock: XOMCOT_clean_sbu_0, # of connection points: 5
#     Node 28, Type 0, BuildingBlock: XOMCOT_clean_sbu_0, # of connection points: 5
#     Node 29, Type 0, BuildingBlock: XOMCOT_clean_sbu_0, # of connection points: 5
#     Node 30, Type 0, BuildingBlock: XOMCOT_clean_sbu_0, # of connection points: 5
#     Node 31, Type 0, BuildingBlock: XOMCOT_clean_sbu_0, # of connection points: 5
#     Edge 32, Type (0, 0), None
#     Edge 33, Type (0, 0), None
#     Edge 34, Type (0, 0), None
#     Edge 35, Type (0, 0), None
#     Edge 36, Type (0, 0), None
#     Edge 37, Type (0, 0), None
#     Edge 38, Type (0, 0), None
#     Edge 39, Type (0, 0), None
#     Edge 40, Type (0, 0), None
#     Edge 41, Type (0, 0), None
#     Edge 42, Type (0, 0), None
#     Edge 43, Type (0, 0), None
#     Edge 44, Type (0, 0), None
#     Edge 45, Type (0, 0), None
#     Edge 46, Type (0, 0), None
#     Edge 47, Type (0, 0), None
#     Edge 48, Type (0, 0), None
#     Edge 49, Type (0, 0), None
#     Edge 50, Type (0, 0), None
#     Edge 51, Type (0, 0), None
#     Edge 52, Type (0, 0), None
#     Edge 53, Type (0, 0), None
#     Edge 54, Type (0, 0), None
#     Edge 55, Type (0, 0), None
#     Edge 56, Type (0, 0), None
#     Edge 57, Type (0, 0), None
#     Edge 58, Type (0, 0), None
#     Edge 59, Type (0, 0), None
#     Edge 60, Type (0, 0), None
#     Edge 61, Type (0, 0), None
#     Edge 62, Type (0, 0), None
#     Edge 63, Type (0, 0), None
#     Edge 64, Type (0, 0), None
#     Edge 65, Type (0, 0), None
#     Edge 66, Type (0, 0), None
#     Edge 67, Type (0, 0), None
#     Edge 68, Type (0, 0), None
#     Edge 69, Type (0, 0), None
#     Edge 70, Type (0, 0), None
#     Edge 71, Type (0, 0), None
#     Edge 72, Type (0, 0), None
#     Edge 73, Type (0, 0), None
#     Edge 74, Type (0, 0), None
#     Edge 75, Type (0, 0), None
#     Edge 76, Type (0, 0), None
#     Edge 77, Type (0, 0), None
#     Edge 78, Type (0, 0), None
#     Edge 79, Type (0, 0), None
#     Edge 80, Type (0, 0), None
#     Edge 81, Type (0, 0), None
#     Edge 82, Type (0, 0), None
#     Edge 83, Type (0, 0), None
#     Edge 84, Type (0, 0), None
#     Edge 85, Type (0, 0), None
#     Edge 86, Type (0, 0), None
#     Edge 87, Type (0, 0), None
#     Edge 88, Type (0, 0), None
#     Edge 89, Type (0, 0), None
#     Edge 90, Type (0, 0), None
#     Edge 91, Type (0, 0), None
#     Edge 92, Type (0, 0), None
#     Edge 93, Type (0, 0), None
#     Edge 94, Type (0, 0), None
#     Edge 95, Type (0, 0), None
#     Edge 96, Type (0, 0), None
#     Edge 97, Type (0, 0), None
#     Edge 98, Type (0, 0), None
#     Edge 99, Type (0, 0), None
#     Edge 100, Type (0, 0), None
#     Edge 101, Type (0, 0), None
#     Edge 102, Type (0, 0), None
#     Edge 103, Type (0, 0), None
#     Edge 104, Type (0, 0), None
#     Edge 105, Type (0, 0), None
#     Edge 106, Type (0, 0), None
#     Edge 107, Type (0, 0), None
#     Edge 108, Type (0, 0), None
#     Edge 109, Type (0, 0), None
#     Edge 110, Type (0, 0), None
#     Edge 111, Type (0, 0), None
# Relax obj value: 0.108
# Max RMSD: 0.155
# Mean RMSD: 0.155
data_MOF--net-vce--node1-XOMCOT_clean_sbu_0--edge1-none
_symmetry_space_group_name_H-M    P1
_symmetry_Int_Tables_number       1
_symmetry_cell_setting            triclinic
loop_
_symmetry_equiv_pos_as_xyz
'x, y, z'
_cell_length_a     20.268096
_cell_length_b     72.642323
_cell_length_c     15.385903
_cell_angle_alpha  89.986519
_cell_angle_beta   90.0
_cell_angle_gamma 89.999906
loop_
_atom_site_label
_atom_site_type_symbol
_atom_site_fract_x
_atom_site_fract_y
_atom_site_fract_z
_atom_type_partial_charge
Co0 Co 0.08638 0.20659 0.27865 0.0
C1 C 0.15278 0.17056 0.26794 0.0
C2 C 0.04909 0.16805 0.24065 0.0
C3 C 0.07734 0.15079 0.23499 0.0
N4 N 0.09636 0.18034 0.26202 0.0
N5 N 0.1422 0.15258 0.25189 0.0
H6 H 0.20022 0.17641 0.28454 0.0
H7 H 0.99779 0.17136 0.22947 0.0
C8 C 0.9522 0.20711 0.36899 0.0
O9 O 0.97851 0.21309 0.44146 0.0
N10 N 0.07473 0.23317 0.29401 0.0
C11 C 0.06606 0.24265 0.36903 0.0
C12 C 0.05093 0.26069 0.35044 0.0
C13 C 0.06364 0.24575 0.23067 0.0
N14 N 0.04943 0.26251 0.26358 0.0
C15 C 0.16567 0.21324 0.42779 0.0
C16 C 0.10686 0.18775 0.53668 0.0
C17 C 0.15727 0.19901 0.56873 0.0
C18 C 0.18787 0.21156 0.51307 0.0
C19 C 0.08619 0.18987 0.45047 0.0
N20 N 0.11269 0.20335 0.39914 0.0
H21 H 0.18942 0.22305 0.38523 0.0
H22 H 0.04756 0.18105 0.42568 0.0
H23 H 0.06806 0.23696 0.43373 0.0
H24 H 0.06374 0.24268 0.16204 0.0
O25 O 0.17399 0.21028 0.23098 0.0
O26 O 0.08202 0.20931 0.15322 0.0
O27 O 0.988 0.20349 0.30237 0.0
C28 C 0.14616 0.2107 0.15505 0.0
H29 H 0.05266 0.13806 0.21828 0.0
H30 H 1.04009 0.2714 0.39712 0.0
H31 H 0.08301 0.17771 0.5782 0.0
H32 H 0.22761 0.22029 0.53595 0.0
Co33 Co 0.24563 0.08445 0.27858 0.0
C34 C 0.17921 0.12047 0.26789 0.0
C35 C 0.2829 0.12299 0.24055 0.0
C36 C 0.25464 0.14025 0.23493 0.0
N37 N 0.23564 0.1107 0.26193 0.0
N38 N 0.18979 0.13845 0.25185 0.0
H39 H 0.13178 0.11462 0.28452 0.0
H40 H 0.3342 0.11968 0.22936 0.0
C41 C 0.37981 0.08392 0.36891 0.0
O42 O 0.35351 0.07794 0.44138 0.0
N43 N 0.25729 0.05786 0.29398 0.0
C44 C 0.26596 0.04838 0.36901 0.0
C45 C 0.28109 0.03034 0.35042 0.0
C46 C 0.26837 0.04528 0.23065 0.0
N47 N 0.28257 0.02852 0.26357 0.0
C48 C 0.16636 0.07779 0.42776 0.0
C49 C 0.22516 0.10328 0.53658 0.0
C50 C 0.17476 0.09202 0.56866 0.0
C51 C 0.14415 0.07947 0.51303 0.0
C52 C 0.24583 0.10116 0.45038 0.0
N53 N 0.21933 0.08768 0.39908 0.0
H54 H 0.1426 0.06797 0.38523 0.0
H55 H 0.28447 0.10997 0.42556 0.0
H56 H 0.26397 0.05406 0.4337 0.0
H57 H 0.26827 0.04836 0.16201 0.0
O58 O 0.15802 0.08076 0.23093 0.0
O59 O 0.24998 0.08172 0.15317 0.0
O60 O 0.34401 0.08754 0.30229 0.0
C61 C 0.18585 0.08034 0.155 0.0
H62 H 0.27931 0.15298 0.21823 0.0
H63 H 0.29192 1.01963 0.39712 0.0
H64 H 0.24902 0.11332 0.57807 0.0
H65 H 0.10441 0.07074 0.53594 0.0
Co66 Co 0.08638 0.08445 0.9514 0.0
C67 C 0.15278 0.12048 0.9621 0.0
C68 C 0.04909 0.12299 0.98939 0.0
C69 C 0.07734 0.14024 -0.00495 0.0
N70 N 0.09636 0.1107 0.96802 0.0
N71 N 0.1422 0.13845 0.97815 0.0
H72 H 0.20022 0.11462 0.9455 0.0
H73 H 0.99779 0.11967 0.00058 0.0
C74 C 0.9522 0.08393 0.86106 0.0
O75 O 0.97851 0.07795 0.78859 0.0
N76 N 0.07473 0.05786 0.93604 0.0
C77 C 0.06606 0.04839 0.86102 0.0
C78 C 0.05093 0.03035 0.87962 0.0
C79 C 0.06364 0.04528 -0.00062 0.0
N80 N 0.04944 0.02852 0.96647 0.0
C81 C 0.16566 0.07779 0.80225 0.0
C82 C 0.10686 0.10328 0.69337 0.0
C83 C 0.15726 0.09202 0.66131 0.0
C84 C 0.18787 0.07947 0.71698 0.0
C85 C 0.08619 0.10117 0.77958 0.0
N86 N 0.11269 0.08768 0.8309 0.0
H87 H 0.18942 0.06798 0.84481 0.0
H88 H 0.04756 0.10998 0.80437 0.0
H89 H 0.06805 0.05407 0.79632 0.0
H90 H 0.06375 0.04836 0.06801 0.0
O91 O 0.17399 0.08076 -0.00093 0.0
O92 O 0.08202 0.08172 0.07682 0.0
O93 O 0.988 0.08754 0.92768 0.0
C94 C 0.14616 0.08034 0.07499 0.0
H95 H 0.05266 0.15297 0.01176 0.0
H96 H 1.04009 1.01963 0.83293 0.0
H97 H 0.083 0.11332 0.65185 0.0
H98 H 0.22761 0.07074 0.69409 0.0
Co99 Co 0.24563 0.20659 0.95146 0.0
C100 C 0.17921 0.17056 0.96215 0.0
C101 C 0.2829 0.16804 0.98949 0.0
C102 C 0.25464 0.15079 -0.00488 0.0
N103 N 0.23564 0.18034 0.96811 0.0
N104 N 0.18979 0.15258 0.9782 0.0
H105 H 0.13178 0.17641 0.94552 0.0
H106 H 0.3342 0.17135 0.00068 0.0
C107 C 0.37982 0.20711 0.86114 0.0
O108 O 0.35351 0.2131 0.78866 0.0
N109 N 0.25728 0.23317 0.93607 0.0
C110 C 0.26596 0.24265 0.86104 0.0
C111 C 0.28108 0.26069 0.87963 0.0
C112 C 0.26837 0.24575 -0.0006 0.0
N113 N 0.28257 0.26251 0.96648 0.0
C114 C 0.16636 0.21325 0.80229 0.0
C115 C 0.22516 0.18775 0.69347 0.0
C116 C 0.17476 0.19902 0.66138 0.0
C117 C 0.14416 0.21157 0.71701 0.0
C118 C 0.24583 0.18987 0.77967 0.0
N119 N 0.21934 0.20335 0.83096 0.0
H120 H 0.14261 0.22306 0.84482 0.0
H121 H 0.28447 0.18106 0.80449 0.0
H122 H 0.26397 0.23697 0.79635 0.0
H123 H 0.26826 0.24267 0.06804 0.0
O124 O 0.15802 0.21028 -0.00089 0.0
O125 O 0.24998 0.20931 0.07688 0.0
O126 O 0.34401 0.20349 0.92776 0.0
C127 C 0.18585 0.21069 0.07504 0.0
H128 H 0.27931 0.13805 0.01181 0.0
H129 H 0.29192 0.27141 0.83294 0.0
H130 H 0.24902 0.17771 0.65197 0.0
H131 H 0.10442 0.22029 0.6941 0.0
Co132 Co 0.99561 0.83445 0.70141 0.0
C133 C 0.92921 0.87048 0.71211 0.0
C134 C 1.0329 0.87298 0.73941 0.0
C135 C 1.00465 0.89024 0.74507 0.0
N136 N 0.98563 0.8607 0.71804 0.0
N137 N 0.93979 0.88845 0.72817 0.0
H138 H 0.88176 0.86462 0.69551 0.0
H139 H 0.0842 0.86967 0.75059 0.0
C140 C 0.12979 0.83393 0.61107 0.0
O141 O 0.10348 0.82795 0.5386 0.0
N142 N 1.00725 0.80786 0.68605 0.0
C143 C 1.01593 0.79839 0.61103 0.0
C144 C 1.03106 0.78035 0.62962 0.0
C145 C 1.01835 0.79528 0.74939 0.0
N146 N 1.03255 0.77852 0.71648 0.0
C147 C 0.91632 0.82779 0.55227 0.0
C148 C 0.97512 0.85328 0.44338 0.0
C149 C 0.92472 0.84202 0.41132 0.0
C150 C 0.89411 0.82947 0.46699 0.0
C151 C 0.99579 0.85117 0.52959 0.0
N152 N 0.9693 0.83768 0.58092 0.0
H153 H 0.89257 0.81798 0.59483 0.0
H154 H 1.03443 0.85998 0.55438 0.0
H155 H 1.01393 0.80407 0.54633 0.0
H156 H 1.01825 0.79836 0.81802 0.0
O157 O 0.908 0.83076 0.74908 0.0
O158 O 0.99997 0.83172 0.82683 0.0
O159 O 0.09399 0.83754 0.67769 0.0
C160 C 0.93583 0.83033 0.82501 0.0
H161 H 1.02933 0.90297 0.76178 0.0
H162 H 0.0419 0.76963 0.58294 0.0
H163 H 0.99898 0.86332 0.40186 0.0
H164 H 0.85438 0.82075 0.44411 0.0
Co165 Co 0.83637 0.95659 0.70146 0.0
C166 C 0.90278 0.92056 0.71216 0.0
C167 C 0.7991 0.91805 0.73949 0.0
C168 C 0.82735 0.90079 0.74512 0.0
N169 N 0.84636 0.93034 0.71812 0.0
N170 N 0.8922 0.90258 0.7282 0.0
H171 H 0.95022 0.92641 0.69553 0.0
H172 H 0.7478 0.92136 0.75068 0.0
C173 C 0.70219 0.95711 0.61114 0.0
O174 O 0.72849 0.9631 0.53866 0.0
N175 N 0.82472 0.98318 0.68607 0.0
C176 C 0.81605 0.99265 0.61104 0.0
C177 C 0.80093 1.01069 0.62962 0.0
C178 C 0.81364 0.99575 0.7494 0.0
N179 N 0.79944 1.01251 0.71648 0.0
C180 C 0.91565 0.96325 0.55229 0.0
C181 C 0.85684 0.93775 0.44347 0.0
C182 C 0.90725 0.94901 0.41139 0.0
C183 C 0.93786 0.96156 0.46702 0.0
C184 C 0.83617 0.93987 0.52967 0.0
N185 N 0.86267 0.95335 0.58097 0.0
H186 H 0.93941 0.97306 0.59482 0.0
H187 H 0.79753 0.93106 0.55448 0.0
H188 H 0.81805 0.98697 0.54635 0.0
H189 H 0.81373 0.99267 0.81804 0.0
O190 O 0.92399 0.96028 0.74912 0.0
O191 O 0.83202 0.95931 0.82688 0.0
O192 O 0.73799 0.95349 0.67776 0.0
C193 C 0.89616 0.9607 0.82504 0.0
H194 H 0.80268 0.88806 0.76181 0.0
H195 H 0.7901 0.02141 0.58293 0.0
H196 H 0.83297 0.92772 0.40197 0.0
H197 H 0.9776 0.97029 0.44411 0.0
Co198 Co 0.99563 0.95658 0.02865 0.0
C199 C 0.92921 0.92056 0.01796 0.0
C200 C 1.03291 0.91805 -0.00933 0.0
C201 C 1.00465 0.90079 0.98501 0.0
N202 N 0.98564 0.93033 0.01203 0.0
N203 N 0.9398 0.90258 0.0019 0.0
H204 H 0.88177 0.92641 0.03456 0.0
H205 H 0.08421 0.92136 0.97948 0.0
C206 C 0.1298 0.95711 0.11898 0.0
O207 O 0.10349 0.9631 0.19143 0.0
N208 N 1.00728 0.98317 0.04401 0.0
C209 C 1.01591 0.99265 0.11903 0.0
C210 C 1.03108 1.01069 0.10043 0.0
C211 C 1.01844 0.99575 0.98067 0.0
N212 N 1.03266 1.01251 0.01357 0.0
C213 C 0.91632 0.96323 0.17779 0.0
C214 C 0.97517 0.93775 0.28669 0.0
C215 C 0.92475 0.94901 0.31874 0.0
C216 C 0.89412 0.96156 0.26306 0.0
C217 C 0.99583 0.93987 0.20048 0.0
N218 N 0.96932 0.95335 0.14915 0.0
H219 H 0.89255 0.97304 0.13522 0.0
H220 H 1.03448 0.93106 0.17569 0.0
H221 H 1.01386 0.98697 0.18373 0.0
H222 H 1.01838 0.99267 0.91203 0.0
O223 O 0.90802 0.96028 0.98098 0.0
O224 O 0.99998 0.95931 0.90323 0.0
O225 O 0.094 0.95349 0.05237 0.0
C226 C 0.93585 0.96069 0.90506 0.0
H227 H 1.02933 0.88806 0.9683 0.0
H228 H 0.04188 0.0214 0.14711 0.0
H229 H 0.99904 0.92772 0.32822 0.0
H230 H 0.85436 0.97027 0.28594 0.0
Co231 Co 0.83636 0.83445 0.0286 0.0
C232 C 0.90278 0.87047 0.01791 0.0
C233 C 0.79909 0.87299 -0.00943 0.0
C234 C 0.82735 0.89025 0.98494 0.0
N235 N 0.84635 0.8607 0.01195 0.0
N236 N 0.8922 0.88845 0.00186 0.0
H237 H 0.95021 0.86462 0.03454 0.0
H238 H 0.74779 0.86968 0.97937 0.0
C239 C 0.70217 0.83392 0.11892 0.0
O240 O 0.72847 0.82794 0.19139 0.0
N241 N 0.8247 0.80786 0.04399 0.0
C242 C 0.81602 0.79838 0.11901 0.0
C243 C 0.8009 0.78034 0.10043 0.0
C244 C 0.81362 0.79528 0.98065 0.0
N245 N 0.79942 0.77852 0.01357 0.0
C246 C 0.91563 0.82778 0.17777 0.0
C247 C 0.85682 0.85328 0.28659 0.0
C248 C 0.90723 0.84202 0.31868 0.0
C249 C 0.93783 0.82946 0.26305 0.0
C250 C 0.83615 0.85116 0.20039 0.0
N251 N 0.86265 0.83768 0.14909 0.0
H252 H 0.93938 0.81797 0.13524 0.0
H253 H 0.79752 0.85997 0.17557 0.0
H254 H 0.81801 0.80406 0.1837 0.0
H255 H 0.81373 0.79836 0.91202 0.0
O256 O 0.92397 0.83076 0.98094 0.0
O257 O 0.83201 0.83172 0.90318 0.0
O258 O 0.73798 0.83754 0.0523 0.0
C259 C 0.89614 0.83034 0.90502 0.0
H260 H 0.80268 0.90298 0.96825 0.0
H261 H 0.79007 0.76963 0.14712 0.0
H262 H 0.83297 0.86332 0.32808 0.0
H263 H 0.97757 0.82074 0.28595 0.0
Co264 Co 0.08637 0.70658 0.77865 0.0
C265 C 0.15278 0.67056 0.76795 0.0
C266 C 0.04909 0.66805 0.74066 0.0
C267 C 0.07735 0.65079 0.735 0.0
N268 N 0.09635 0.68034 0.76202 0.0
N269 N 0.1422 0.65258 0.7519 0.0
H270 H 0.20022 0.67641 0.78455 0.0
H271 H 0.99779 0.67136 0.72948 0.0
C272 C 0.9522 0.70711 0.86898 0.0
O273 O 0.97851 0.7131 0.94143 0.0
N274 N 0.07472 0.73317 0.79401 0.0
C275 C 0.06609 0.74265 0.86903 0.0
C276 C 0.05092 0.76069 0.85043 0.0
C277 C 0.06356 0.74575 0.73067 0.0
N278 N 0.04934 0.76251 0.76358 0.0
C279 C 0.16568 0.71323 0.92778 0.0
C280 C 0.10683 0.68775 0.03669 0.0
C281 C 0.15726 0.69901 0.06873 0.0
C282 C 0.18789 0.71155 0.01306 0.0
C283 C 0.08616 0.68987 0.95048 0.0
N284 N 0.11268 0.70335 0.89914 0.0
H285 H 0.18945 0.72304 0.88522 0.0
H286 H 0.04751 0.68106 0.92569 0.0
H287 H 0.06814 0.73697 0.93373 0.0
H288 H 0.06361 0.74267 0.66204 0.0
O289 O 0.17398 0.71028 0.73097 0.0
O290 O 0.08201 0.70931 0.65322 0.0
O291 O 0.98799 0.70349 0.80237 0.0
C292 C 0.14615 0.7107 0.65505 0.0
H293 H 0.05267 0.63806 0.71829 0.0
H294 H 1.04012 0.7714 0.89712 0.0
H295 H 0.08296 0.67772 0.07822 0.0
H296 H 0.22764 0.72027 0.03593 0.0
Co297 Co 0.24564 0.58445 0.77859 0.0
C298 C 0.17922 0.62047 0.7679 0.0
C299 C 0.2829 0.62299 0.74056 0.0
C300 C 0.25464 0.64025 0.73493 0.0
N301 N 0.23564 0.6107 0.76194 0.0
N302 N 0.18979 0.63845 0.75185 0.0
H303 H 0.13178 0.61462 0.78453 0.0
H304 H 0.3342 0.61968 0.72937 0.0
C305 C 0.37982 0.58392 0.86891 0.0
O306 O 0.35352 0.57794 0.94139 0.0
N307 N 0.25729 0.55786 0.79398 0.0
C308 C 0.26597 0.54838 0.86901 0.0
C309 C 0.28109 0.53034 0.85043 0.0
C310 C 0.26838 0.54528 0.73065 0.0
N311 N 0.28258 0.52852 0.76357 0.0
C312 C 0.16636 0.57779 0.92776 0.0
C313 C 0.22517 0.60328 0.03659 0.0
C314 C 0.17476 0.59202 0.06867 0.0
C315 C 0.14416 0.57947 0.01304 0.0
C316 C 0.24584 0.60116 0.95038 0.0
N317 N 0.21934 0.58768 0.89909 0.0
H318 H 0.14261 0.56797 0.88523 0.0
H319 H 0.28447 0.60997 0.92557 0.0
H320 H 0.26398 0.55406 0.9337 0.0
H321 H 0.26827 0.54836 0.66201 0.0
O322 O 0.15802 0.58076 0.73093 0.0
O323 O 0.24999 0.58172 0.65317 0.0
O324 O 0.34402 0.58754 0.80229 0.0
C325 C 0.18585 0.58034 0.65501 0.0
H326 H 0.27931 0.65298 0.71824 0.0
H327 H 0.29192 0.51963 0.89712 0.0
H328 H 0.24902 0.61332 0.07808 0.0
H329 H 0.10442 0.57074 0.03594 0.0
Co330 Co 0.08638 0.58445 0.4514 0.0
C331 C 0.15279 0.62048 0.4621 0.0
C332 C 0.0491 0.62299 0.4894 0.0
C333 C 0.07735 0.64024 0.49506 0.0
N334 N 0.09636 0.6107 0.46803 0.0
N335 N 0.1422 0.63845 0.47816 0.0
H336 H 0.20023 0.61462 0.4455 0.0
H337 H 0.9978 0.61967 0.50058 0.0
C338 C 0.95221 0.58393 0.36106 0.0
O339 O 0.97852 0.57795 0.28859 0.0
N340 N 0.07474 0.55786 0.43604 0.0
C341 C 0.06607 0.54839 0.36102 0.0
C342 C 0.05094 0.53035 0.37962 0.0
C343 C 0.06365 0.54528 0.49938 0.0
N344 N 0.04944 0.52852 0.46647 0.0
C345 C 0.16567 0.57779 0.30226 0.0
C346 C 0.10687 0.60328 0.19337 0.0
C347 C 0.15727 0.59202 0.16132 0.0
C348 C 0.18788 0.57947 0.21698 0.0
C349 C 0.0862 0.60117 0.27958 0.0
N350 N 0.11269 0.58768 0.33091 0.0
H351 H 0.18943 0.56798 0.34482 0.0
H352 H 0.04756 0.60998 0.30437 0.0
H353 H 0.06806 0.55407 0.29633 0.0
H354 H 0.06374 0.54836 0.56802 0.0
O355 O 0.174 0.58076 0.49907 0.0
O356 O 0.08203 0.58172 0.57683 0.0
O357 O 0.98801 0.58754 0.42769 0.0
C358 C 0.14616 0.58034 0.575 0.0
H359 H 0.05267 0.65297 0.51177 0.0
H360 H 1.0401 0.51963 0.33293 0.0
H361 H 0.08301 0.61332 0.15185 0.0
H362 H 0.22762 0.57075 0.1941 0.0
Co363 Co 0.24563 0.70659 0.45146 0.0
C364 C 0.17921 0.67056 0.46215 0.0
C365 C 0.2829 0.66805 0.48948 0.0
C366 C 0.25464 0.65079 0.49511 0.0
N367 N 0.23564 0.68034 0.46811 0.0
N368 N 0.18979 0.65258 0.4782 0.0
H369 H 0.13178 0.67641 0.44552 0.0
H370 H 0.3342 0.67136 0.50068 0.0
C371 C 0.37981 0.70711 0.36114 0.0
O372 O 0.3535 0.7131 0.28866 0.0
N373 N 0.25727 0.73318 0.43607 0.0
C374 C 0.26594 0.74266 0.36104 0.0
C375 C 0.28106 0.76069 0.37962 0.0
C376 C 0.26836 0.74575 0.4994 0.0
N377 N 0.28256 0.76251 0.46648 0.0
C378 C 0.16635 0.71325 0.30229 0.0
C379 C 0.22517 0.68775 0.19346 0.0
C380 C 0.17475 0.69901 0.16138 0.0
C381 C 0.14414 0.71157 0.21701 0.0
C382 C 0.24583 0.68987 0.27967 0.0
N383 N 0.21933 0.70335 0.33096 0.0
H384 H 0.14259 0.72306 0.34482 0.0
H385 H 0.28447 0.68106 0.30448 0.0
H386 H 0.26395 0.73697 0.29635 0.0
H387 H 0.26826 0.74267 0.56804 0.0
O388 O 0.15801 0.71028 0.49911 0.0
O389 O 0.24997 0.70931 0.57688 0.0
O390 O 0.34401 0.70349 0.42776 0.0
C391 C 0.18584 0.71069 0.57504 0.0
H392 H 0.27932 0.63806 0.5118 0.0
H393 H 0.29189 0.77141 0.33293 0.0
H394 H 0.24903 0.67772 0.15197 0.0
H395 H 0.1044 0.72029 0.19411 0.0
Co396 Co 0.99562 0.33445 0.20141 0.0
C397 C 0.92921 0.37048 0.21211 0.0
C398 C 1.0329 0.37299 0.2394 0.0
C399 C 1.00464 0.39024 0.24506 0.0
N400 N 0.98563 0.3607 0.21803 0.0
N401 N 0.93979 0.38845 0.22816 0.0
H402 H 0.88176 0.36462 0.1955 0.0
H403 H 0.0842 0.36967 0.25059 0.0
C404 C 0.12979 0.33392 0.11108 0.0
O405 O 0.10348 0.32793 0.03863 0.0
N406 N 1.00727 0.30786 0.18605 0.0
C407 C 1.01589 0.29838 0.11103 0.0
C408 C 1.03107 0.28035 0.12962 0.0
C409 C 1.01843 0.29529 0.24939 0.0
N410 N 1.03265 0.27853 0.21648 0.0
C411 C 0.91631 0.3278 0.05228 0.0
C412 C 0.97515 0.35328 0.94337 0.0
C413 C 0.92473 0.34202 0.91132 0.0
C414 C 0.8941 0.32948 0.967 0.0
C415 C 0.99582 0.35116 0.02958 0.0
N416 N 0.96931 0.33769 0.08092 0.0
H417 H 0.89254 0.31799 0.09484 0.0
H418 H 1.03447 0.35997 0.05436 0.0
H419 H 1.01385 0.30407 0.04633 0.0
H420 H 1.01838 0.29837 0.31802 0.0
O421 O 0.90801 0.33076 0.24908 0.0
O422 O 0.99997 0.33172 0.32683 0.0
O423 O 0.09399 0.33754 0.17769 0.0
C424 C 0.93584 0.33034 0.32501 0.0
H425 H 1.02932 0.40297 0.26177 0.0
H426 H 0.04187 0.26963 0.08294 0.0
H427 H 0.99903 0.36331 0.90184 0.0
H428 H 0.85435 0.32076 0.94413 0.0
Co429 Co 0.83636 0.45659 0.20146 0.0
C430 C 0.90278 0.42056 0.21215 0.0
C431 C 0.79909 0.41805 0.23948 0.0
C432 C 0.82735 0.40079 0.24511 0.0
N433 N 0.84635 0.43034 0.21811 0.0
N434 N 0.8922 0.40258 0.2282 0.0
H435 H 0.95021 0.42641 0.19552 0.0
H436 H 0.74779 0.42136 0.25067 0.0
C437 C 0.70218 0.45711 0.11113 0.0
O438 O 0.72849 0.4631 0.03866 0.0
N439 N 0.82472 0.48318 0.18606 0.0
C440 C 0.81605 0.49266 0.11104 0.0
C441 C 0.80093 0.51069 0.12962 0.0
C442 C 0.81363 0.49575 0.2494 0.0
N443 N 0.79944 0.51251 0.21648 0.0
C444 C 0.91564 0.46325 0.05229 0.0
C445 C 0.85683 0.43775 0.94346 0.0
C446 C 0.90724 0.44901 0.91138 0.0
C447 C 0.93785 0.46156 0.96701 0.0
C448 C 0.83616 0.43987 0.02966 0.0
N449 N 0.86266 0.45335 0.08096 0.0
H450 H 0.9394 0.47306 0.09482 0.0
H451 H 0.79752 0.43106 0.05448 0.0
H452 H 0.81804 0.48697 0.04635 0.0
H453 H 0.81373 0.49267 0.31803 0.0
O454 O 0.92398 0.46028 0.24911 0.0
O455 O 0.83202 0.45931 0.32687 0.0
O456 O 0.73798 0.45349 0.17776 0.0
C457 C 0.89615 0.4607 0.32504 0.0
H458 H 0.80267 0.38806 0.2618 0.0
H459 H 0.7901 0.52141 0.08293 0.0
H460 H 0.83297 0.42772 0.90197 0.0
H461 H 0.9776 0.47029 0.94411 0.0
Co462 Co 0.99562 0.45658 0.52865 0.0
C463 C 0.92921 0.42056 0.51795 0.0
C464 C 1.0329 0.41805 0.49066 0.0
C465 C 1.00464 0.40079 0.485 0.0
N466 N 0.98564 0.43033 0.51203 0.0
N467 N 0.93979 0.40258 0.5019 0.0
H468 H 0.88177 0.42641 0.53456 0.0
H469 H 0.0842 0.42136 0.47947 0.0
C470 C 0.12979 0.45711 0.61898 0.0
O471 O 0.10348 0.46311 0.69142 0.0
N472 N 1.00727 0.48317 0.54401 0.0
C473 C 1.0159 0.49265 0.61903 0.0
C474 C 1.03107 0.51069 0.60043 0.0
C475 C 1.01843 0.49575 0.48066 0.0
N476 N 1.03265 0.51251 0.51357 0.0
C477 C 0.91631 0.46323 0.67778 0.0
C478 C 0.97516 0.43775 0.78669 0.0
C479 C 0.92474 0.44901 0.81873 0.0
C480 C 0.89411 0.46155 0.76306 0.0
C481 C 0.99583 0.43987 0.70048 0.0
N482 N 0.96931 0.45335 0.64914 0.0
H483 H 0.89254 0.47304 0.63522 0.0
H484 H 1.03448 0.43106 0.67569 0.0
H485 H 1.01385 0.48697 0.68372 0.0
H486 H 1.01838 0.49267 0.41203 0.0
O487 O 0.90801 0.46028 0.48098 0.0
O488 O 0.99998 0.45931 0.40322 0.0
O489 O 0.094 0.45349 0.55236 0.0
C490 C 0.93584 0.4607 0.40505 0.0
H491 H 1.02932 0.38806 0.46829 0.0
H492 H 0.04187 0.5214 0.64711 0.0
H493 H 0.99904 0.42772 0.82822 0.0
H494 H 0.85435 0.47027 0.78593 0.0
Co495 Co 0.83636 0.33445 0.5286 0.0
C496 C 0.90278 0.37047 0.51791 0.0
C497 C 0.79909 0.37299 0.49057 0.0
C498 C 0.82735 0.39025 0.48495 0.0
N499 N 0.84635 0.3607 0.51195 0.0
N500 N 0.8922 0.38845 0.50186 0.0
H501 H 0.95021 0.36462 0.53454 0.0
H502 H 0.74779 0.36968 0.47938 0.0
C503 C 0.70218 0.33392 0.61892 0.0
O504 O 0.72848 0.32793 0.6914 0.0
N505 N 0.82471 0.30786 0.54399 0.0
C506 C 0.81604 0.29838 0.61902 0.0
C507 C 0.80092 0.28034 0.60043 0.0
C508 C 0.81363 0.29528 0.48066 0.0
N509 N 0.79943 0.27852 0.51358 0.0
C510 C 0.91564 0.32779 0.67777 0.0
C511 C 0.85682 0.35328 0.7866 0.0
C512 C 0.90723 0.34202 0.81868 0.0
C513 C 0.93784 0.32947 0.76305 0.0
C514 C 0.83615 0.35116 0.70039 0.0
N515 N 0.86266 0.33768 0.6491 0.0
H516 H 0.93939 0.31797 0.63524 0.0
H517 H 0.79751 0.35997 0.67558 0.0
H518 H 0.81803 0.30406 0.68371 0.0
H519 H 0.81373 0.29836 0.41202 0.0
O520 O 0.92398 0.33076 0.48095 0.0
O521 O 0.83201 0.33172 0.40318 0.0
O522 O 0.73798 0.33754 0.5523 0.0
C523 C 0.89615 0.33034 0.40502 0.0
H524 H 0.80267 0.40298 0.46826 0.0
H525 H 0.79009 0.26962 0.64712 0.0
H526 H 0.83296 0.36332 0.82809 0.0
H527 H 0.97759 0.32075 0.78595 0.0
Co528 Co 0.58638 0.20659 0.77865 0.0
C529 C 0.65278 0.17056 0.76795 0.0
C530 C 0.54909 0.16805 0.74065 0.0
C531 C 0.57734 0.15079 0.73499 0.0
N532 N 0.59636 0.18034 0.76202 0.0
N533 N 0.6422 0.15258 0.75189 0.0
H534 H 0.70022 0.17641 0.78455 0.0
H535 H 0.49779 0.17136 0.72947 0.0
C536 C 0.45221 0.20711 0.869 0.0
O537 O 0.47851 0.21309 0.94146 0.0
N538 N 0.57474 0.23317 0.79401 0.0
C539 C 0.56607 0.24265 0.86903 0.0
C540 C 0.55094 0.26069 0.85044 0.0
C541 C 0.56364 0.24575 0.73067 0.0
N542 N 0.54944 0.26251 0.76358 0.0
C543 C 0.66567 0.21324 0.92779 0.0
C544 C 0.60686 0.18775 0.03668 0.0
C545 C 0.65727 0.19901 0.06874 0.0
C546 C 0.68788 0.21156 0.01307 0.0
C547 C 0.58619 0.18987 0.95047 0.0
N548 N 0.61269 0.20335 0.89914 0.0
H549 H 0.68943 0.22305 0.88523 0.0
H550 H 0.54755 0.18106 0.92568 0.0
H551 H 0.56806 0.23696 0.93373 0.0
H552 H 0.56373 0.24268 0.66204 0.0
O553 O 0.67399 0.21028 0.73098 0.0
O554 O 0.58202 0.20932 0.65323 0.0
O555 O 0.488 0.20349 0.80237 0.0
C556 C 0.64616 0.2107 0.65505 0.0
H557 H 0.55266 0.13806 0.71828 0.0
H558 H 0.5401 0.2714 0.89712 0.0
H559 H 0.583 0.17771 0.0782 0.0
H560 H 0.72762 0.22028 0.03595 0.0
Co561 Co 0.74563 0.08445 0.77858 0.0
C562 C 0.67921 0.12047 0.76789 0.0
C563 C 0.78289 0.12299 0.74055 0.0
C564 C 0.75463 0.14025 0.73493 0.0
N565 N 0.73564 0.1107 0.76193 0.0
N566 N 0.68978 0.13845 0.75185 0.0
H567 H 0.63178 0.11462 0.78453 0.0
H568 H 0.8342 0.11968 0.72936 0.0
C569 C 0.87981 0.08392 0.86891 0.0
O570 O 0.85351 0.07793 0.94137 0.0
N571 N 0.7573 0.05786 0.79397 0.0
C572 C 0.76594 0.04838 0.869 0.0
C573 C 0.7811 0.03034 0.85042 0.0
C574 C 0.76845 0.04529 0.73064 0.0
N575 N 0.78267 0.02853 0.76357 0.0
C576 C 0.66635 0.07779 0.92775 0.0
C577 C 0.72518 0.10328 0.03659 0.0
C578 C 0.67476 0.09202 0.06866 0.0
C579 C 0.64414 0.07947 0.01302 0.0
C580 C 0.74584 0.10116 0.95038 0.0
N581 N 0.71934 0.08768 0.89908 0.0
H582 H 0.64259 0.06798 0.88521 0.0
H583 H 0.78449 0.10997 0.92557 0.0
H584 H 0.7639 0.05406 0.9337 0.0
H585 H 0.76838 0.04837 0.66201 0.0
O586 O 0.65802 0.08075 0.73093 0.0
O587 O 0.74998 0.08172 0.65317 0.0
O588 O 0.84401 0.08755 0.80229 0.0
C589 C 0.68585 0.08034 0.655 0.0
H590 H 0.77931 0.15298 0.71823 0.0
H591 H 0.79191 1.01963 0.89711 0.0
H592 H 0.74904 0.11331 0.07808 0.0
H593 H 0.60439 0.07075 0.03592 0.0
Co594 Co 0.58638 0.08445 0.4514 0.0
C595 C 0.65278 0.12048 0.4621 0.0
C596 C 0.54909 0.12298 0.48939 0.0
C597 C 0.57734 0.14024 0.49505 0.0
N598 N 0.59636 0.1107 0.46802 0.0
N599 N 0.6422 0.13845 0.47815 0.0
H600 H 0.70022 0.11462 0.44549 0.0
H601 H 0.49779 0.11967 0.50058 0.0
C602 C 0.4522 0.08393 0.36105 0.0
O603 O 0.47851 0.07794 0.28859 0.0
N604 N 0.57474 0.05786 0.43604 0.0
C605 C 0.56606 0.04839 0.36102 0.0
C606 C 0.55093 0.03035 0.37961 0.0
C607 C 0.56364 0.04528 0.49938 0.0
N608 N 0.54944 0.02852 0.46647 0.0
C609 C 0.66567 0.07779 0.30225 0.0
C610 C 0.60686 0.10328 0.19336 0.0
C611 C 0.65726 0.09202 0.16131 0.0
C612 C 0.68787 0.07947 0.21697 0.0
C613 C 0.58619 0.10117 0.27957 0.0
N614 N 0.61269 0.08768 0.3309 0.0
H615 H 0.68942 0.06798 0.34481 0.0
H616 H 0.54755 0.10998 0.30437 0.0
H617 H 0.56806 0.05407 0.29632 0.0
H618 H 0.56374 0.04836 0.56801 0.0
O619 O 0.67399 0.08076 0.49907 0.0
O620 O 0.58202 0.08172 0.57682 0.0
O621 O 0.488 0.08754 0.42768 0.0
C622 C 0.64616 0.08034 0.57499 0.0
H623 H 0.55266 0.15297 0.51176 0.0
H624 H 0.5401 1.01963 0.33293 0.0
H625 H 0.583 0.11332 0.15184 0.0
H626 H 0.72761 0.07075 0.19409 0.0
Co627 Co 0.74564 0.20659 0.45146 0.0
C628 C 0.67921 0.17056 0.46215 0.0
C629 C 0.7829 0.16804 0.48949 0.0
C630 C 0.75464 0.15078 0.49512 0.0
N631 N 0.73564 0.18034 0.46811 0.0
N632 N 0.68979 0.15258 0.4782 0.0
H633 H 0.63178 0.17641 0.44552 0.0
H634 H 0.8342 0.17135 0.50069 0.0
C635 C 0.87981 0.20711 0.36114 0.0
O636 O 0.85351 0.21311 0.28868 0.0
N637 N 0.7573 0.23317 0.43607 0.0
C638 C 0.76594 0.24265 0.36105 0.0
C639 C 0.7811 0.26069 0.37963 0.0
C640 C 0.76844 0.24574 0.49941 0.0
N641 N 0.78266 0.26251 0.46649 0.0
C642 C 0.66635 0.21324 0.30229 0.0
C643 C 0.72518 0.18776 0.19346 0.0
C644 C 0.67476 0.19901 0.16138 0.0
C645 C 0.64415 0.21156 0.21702 0.0
C646 C 0.74585 0.18987 0.27967 0.0
N647 N 0.71934 0.20335 0.33097 0.0
H648 H 0.64259 0.22305 0.34483 0.0
H649 H 0.78449 0.18106 0.30448 0.0
H650 H 0.7639 0.23698 0.29635 0.0
H651 H 0.76837 0.24266 0.56804 0.0
O652 O 0.65802 0.21028 0.49912 0.0
O653 O 0.74998 0.20931 0.57688 0.0
O654 O 0.84401 0.20349 0.42776 0.0
C655 C 0.68585 0.21069 0.57504 0.0
H656 H 0.77931 0.13805 0.51181 0.0
H657 H 0.79191 0.27141 0.33294 0.0
H658 H 0.74905 0.17772 0.15196 0.0
H659 H 0.6044 0.22028 0.19412 0.0
Co660 Co 0.49561 0.83445 0.20141 0.0
C661 C 0.42921 0.87048 0.21211 0.0
C662 C 0.5329 0.87298 0.23941 0.0
C663 C 0.50465 0.89024 0.24507 0.0
N664 N 0.48563 0.8607 0.21804 0.0
N665 N 0.43979 0.88845 0.22816 0.0
H666 H 0.38176 0.86462 0.1955 0.0
H667 H 0.5842 0.86967 0.25059 0.0
C668 C 0.62978 0.83393 0.11106 0.0
O669 O 0.60348 0.82794 0.0386 0.0
N670 N 0.50725 0.80786 0.18604 0.0
C671 C 0.51592 0.79839 0.11102 0.0
C672 C 0.53105 0.78035 0.12962 0.0
C673 C 0.51835 0.79528 0.24939 0.0
N674 N 0.53255 0.77852 0.21648 0.0
C675 C 0.41632 0.82779 0.05227 0.0
C676 C 0.47513 0.85328 0.94337 0.0
C677 C 0.42472 0.84202 0.91132 0.0
C678 C 0.39411 0.82947 0.96699 0.0
C679 C 0.49579 0.85117 0.02959 0.0
N680 N 0.4693 0.83768 0.08091 0.0
H681 H 0.39256 0.81798 0.09482 0.0
H682 H 0.53443 0.85998 0.05438 0.0
H683 H 0.51393 0.80407 0.04633 0.0
H684 H 0.51825 0.79836 0.31802 0.0
O685 O 0.408 0.83076 0.24908 0.0
O686 O 0.49996 0.83172 0.32683 0.0
O687 O 0.59399 0.83754 0.17769 0.0
C688 C 0.43583 0.83033 0.325 0.0
H689 H 0.52933 0.90297 0.26178 0.0
H690 H 0.54189 0.76963 0.08294 0.0
H691 H 0.49898 0.86332 0.90186 0.0
H692 H 0.35437 0.82075 0.94411 0.0
Co693 Co 0.33637 0.95659 0.20146 0.0
C694 C 0.40278 0.92056 0.21216 0.0
C695 C 0.2991 0.91805 0.23949 0.0
C696 C 0.32735 0.90079 0.24512 0.0
N697 N 0.34636 0.93034 0.21812 0.0
N698 N 0.3922 0.90258 0.2282 0.0
H699 H 0.45022 0.92641 0.19553 0.0
H700 H 0.2478 0.92136 0.25068 0.0
C701 C 0.20219 0.95711 0.11113 0.0
O702 O 0.2285 0.96311 0.03868 0.0
N703 N 0.32471 0.98317 0.18607 0.0
C704 C 0.31608 0.99266 0.11104 0.0
C705 C 0.30091 1.01069 0.12962 0.0
C706 C 0.31356 0.99574 0.2494 0.0
N707 N 0.29934 1.01251 0.21648 0.0
C708 C 0.41566 0.96324 0.0523 0.0
C709 C 0.35682 0.93776 0.94346 0.0
C710 C 0.40725 0.94901 0.91139 0.0
C711 C 0.43787 0.96156 0.96703 0.0
C712 C 0.33615 0.93987 0.02966 0.0
N713 N 0.36267 0.95335 0.08097 0.0
H714 H 0.43943 0.97305 0.09484 0.0
H715 H 0.2975 0.93107 0.05447 0.0
H716 H 0.31812 0.98698 0.04635 0.0
H717 H 0.31362 0.99266 0.31804 0.0
O718 O 0.42398 0.96028 0.24912 0.0
O719 O 0.33202 0.95931 0.32688 0.0
O720 O 0.23799 0.95349 0.17776 0.0
C721 C 0.39615 0.9607 0.32505 0.0
H722 H 0.30268 0.88806 0.26181 0.0
H723 H 0.29011 0.02141 0.08293 0.0
H724 H 0.33295 0.92772 0.90196 0.0
H725 H 0.47762 0.97028 0.94413 0.0
Co726 Co 0.49562 0.95658 0.52865 0.0
C727 C 0.42921 0.92056 0.51796 0.0
C728 C 0.53291 0.91805 0.49067 0.0
C729 C 0.50465 0.90079 0.48501 0.0
N730 N 0.48564 0.93034 0.51203 0.0
N731 N 0.4398 0.90258 0.50191 0.0
H732 H 0.38177 0.92641 0.53456 0.0
H733 H 0.58421 0.92136 0.47948 0.0
C734 C 0.6298 0.95711 0.61899 0.0
O735 O 0.60349 0.96311 0.69143 0.0
N736 N 0.50727 0.98317 0.54401 0.0
C737 C 0.5159 0.99265 0.61903 0.0
C738 C 0.53107 1.01069 0.60043 0.0
C739 C 0.51844 0.99574 0.48067 0.0
N740 N 0.53266 1.01251 0.51357 0.0
C741 C 0.41632 0.96323 0.67779 0.0
C742 C 0.47517 0.93775 0.7867 0.0
C743 C 0.42474 0.94901 0.81874 0.0
C744 C 0.39411 0.96155 0.76307 0.0
C745 C 0.49584 0.93987 0.70048 0.0
N746 N 0.46932 0.95335 0.64915 0.0
H747 H 0.39255 0.97304 0.63523 0.0
H748 H 0.53449 0.93106 0.6757 0.0
H749 H 0.51385 0.98697 0.68373 0.0
H750 H 0.51838 0.99267 0.41204 0.0
O751 O 0.40801 0.96028 0.48098 0.0
O752 O 0.49998 0.95931 0.40323 0.0
O753 O 0.594 0.95349 0.55237 0.0
C754 C 0.43584 0.9607 0.40506 0.0
H755 H 0.52933 0.88806 0.4683 0.0
H756 H 0.54187 0.0214 0.64711 0.0
H757 H 0.49905 0.92772 0.82822 0.0
H758 H 0.35435 0.97027 0.78594 0.0
Co759 Co 0.33635 0.83445 0.5286 0.0
C760 C 0.40278 0.87047 0.51791 0.0
C761 C 0.29909 0.87299 0.49057 0.0
C762 C 0.32736 0.89025 0.48494 0.0
N763 N 0.34635 0.8607 0.51194 0.0
N764 N 0.39221 0.88845 0.50186 0.0
H765 H 0.45021 0.86462 0.53454 0.0
H766 H 0.24779 0.86968 0.47937 0.0
C767 C 0.20218 0.83392 0.61892 0.0
O768 O 0.22848 0.82793 0.69138 0.0
N769 N 0.32469 0.80786 0.54398 0.0
C770 C 0.31605 0.79838 0.61901 0.0
C771 C 0.30088 0.78034 0.60043 0.0
C772 C 0.31354 0.79529 0.48065 0.0
N773 N 0.29932 0.77853 0.51357 0.0
C774 C 0.41564 0.82779 0.67776 0.0
C775 C 0.35681 0.85328 0.7866 0.0
C776 C 0.40722 0.84202 0.81867 0.0
C777 C 0.43784 0.82947 0.76304 0.0
C778 C 0.33614 0.85116 0.70039 0.0
N779 N 0.36265 0.83768 0.64909 0.0
H780 H 0.4394 0.81798 0.63523 0.0
H781 H 0.2975 0.85997 0.67558 0.0
H782 H 0.31808 0.80406 0.6837 0.0
H783 H 0.31361 0.79837 0.41202 0.0
O784 O 0.42396 0.83075 0.48094 0.0
O785 O 0.332 0.83173 0.40318 0.0
O786 O 0.23797 0.83755 0.5523 0.0
C787 C 0.39614 0.83034 0.40502 0.0
H788 H 0.30268 0.90298 0.46825 0.0
H789 H 0.29008 0.76963 0.64712 0.0
H790 H 0.33294 0.86331 0.82809 0.0
H791 H 0.47759 0.82075 0.78594 0.0
Co792 Co 0.58637 0.70658 0.27865 0.0
C793 C 0.65278 0.67056 0.26795 0.0
C794 C 0.54909 0.66805 0.24066 0.0
C795 C 0.57734 0.65079 0.235 0.0
N796 N 0.59635 0.68034 0.26203 0.0
N797 N 0.6422 0.65258 0.2519 0.0
H798 H 0.70022 0.67641 0.28455 0.0
H799 H 0.49779 0.67136 0.22948 0.0
C800 C 0.4522 0.70711 0.36899 0.0
O801 O 0.47851 0.71311 0.44143 0.0
N802 N 0.57472 0.73317 0.29401 0.0
C803 C 0.5661 0.74265 0.36903 0.0
C804 C 0.55093 0.76069 0.35043 0.0
C805 C 0.56356 0.74575 0.23067 0.0
N806 N 0.54934 0.76251 0.26358 0.0
C807 C 0.66568 0.71323 0.42778 0.0
C808 C 0.60683 0.68775 0.53669 0.0
C809 C 0.65726 0.69901 0.56874 0.0
C810 C 0.68789 0.71155 0.51306 0.0
C811 C 0.58616 0.68987 0.45048 0.0
N812 N 0.61268 0.70335 0.39914 0.0
H813 H 0.68945 0.72304 0.38522 0.0
H814 H 0.54751 0.68106 0.4257 0.0
H815 H 0.56815 0.73697 0.43373 0.0
H816 H 0.56361 0.74267 0.16204 0.0
O817 O 0.67398 0.71028 0.23098 0.0
O818 O 0.58202 0.70931 0.15323 0.0
O819 O 0.48799 0.70349 0.30237 0.0
C820 C 0.64615 0.7107 0.15505 0.0
H821 H 0.55267 0.63806 0.21829 0.0
H822 H 0.54013 0.7714 0.39712 0.0
H823 H 0.58295 0.67772 0.57822 0.0
H824 H 0.72765 0.72027 0.53593 0.0
Co825 Co 0.74564 0.58445 0.27859 0.0
C826 C 0.67922 0.62047 0.2679 0.0
C827 C 0.7829 0.62299 0.24056 0.0
C828 C 0.75464 0.64025 0.23493 0.0
N829 N 0.73564 0.6107 0.26193 0.0
N830 N 0.68979 0.63845 0.25185 0.0
H831 H 0.63178 0.61462 0.28453 0.0
H832 H 0.8342 0.61968 0.22936 0.0
C833 C 0.87982 0.58392 0.36891 0.0
O834 O 0.85351 0.57793 0.44137 0.0
N835 N 0.7573 0.55786 0.29398 0.0
C836 C 0.76594 0.54838 0.36901 0.0
C837 C 0.78111 0.53034 0.35042 0.0
C838 C 0.76845 0.54529 0.23065 0.0
N839 N 0.78267 0.52853 0.26357 0.0
C840 C 0.66635 0.57779 0.42775 0.0
C841 C 0.72518 0.60328 0.53659 0.0
C842 C 0.67476 0.59202 0.56866 0.0
C843 C 0.64415 0.57947 0.51303 0.0
C844 C 0.74585 0.60116 0.45039 0.0
N845 N 0.71934 0.58768 0.39908 0.0
H846 H 0.64259 0.56798 0.38522 0.0
H847 H 0.7845 0.60997 0.42558 0.0
H848 H 0.76391 0.55406 0.4337 0.0
H849 H 0.76838 0.54837 0.16201 0.0
O850 O 0.65803 0.58075 0.23093 0.0
O851 O 0.74999 0.58172 0.15317 0.0
O852 O 0.84402 0.58755 0.30229 0.0
C853 C 0.68586 0.58034 0.15501 0.0
H854 H 0.77931 0.65298 0.21824 0.0
H855 H 0.79191 0.51963 0.39711 0.0
H856 H 0.74905 0.61331 0.57809 0.0
H857 H 0.6044 0.57075 0.53593 0.0
Co858 Co 0.58639 0.58445 0.9514 0.0
C859 C 0.65279 0.62048 0.9621 0.0
C860 C 0.5491 0.62298 0.9894 0.0
C861 C 0.57735 0.64024 -0.00494 0.0
N862 N 0.59636 0.6107 0.96803 0.0
N863 N 0.6422 0.63845 0.97815 0.0
H864 H 0.70023 0.61462 0.94549 0.0
H865 H 0.4978 0.61967 0.00058 0.0
C866 C 0.45221 0.58393 0.86106 0.0
O867 O 0.47852 0.57794 0.78859 0.0
N868 N 0.57474 0.55786 0.93604 0.0
C869 C 0.56607 0.54838 0.86102 0.0
C870 C 0.55094 0.53035 0.87962 0.0
C871 C 0.56365 0.54528 -0.00062 0.0
N872 N 0.54944 0.52852 0.96647 0.0
C873 C 0.66568 0.57779 0.80226 0.0
C874 C 0.60686 0.60328 0.69337 0.0
C875 C 0.65727 0.59202 0.66131 0.0
C876 C 0.68788 0.57947 0.71698 0.0
C877 C 0.5862 0.60117 0.77958 0.0
N878 N 0.6127 0.58768 0.83091 0.0
H879 H 0.68943 0.56798 0.84481 0.0
H880 H 0.54756 0.60998 0.80437 0.0
H881 H 0.56807 0.55407 0.79632 0.0
H882 H 0.56374 0.54836 0.06802 0.0
O883 O 0.674 0.58076 -0.00093 0.0
O884 O 0.58203 0.58172 0.07682 0.0
O885 O 0.48801 0.58754 0.92768 0.0
C886 C 0.64617 0.58034 0.07499 0.0
H887 H 0.55267 0.65297 0.01177 0.0
H888 H 0.54011 0.51963 0.83293 0.0
H889 H 0.583 0.61332 0.65185 0.0
H890 H 0.72762 0.57075 0.6941 0.0
Co891 Co 0.74563 0.70659 0.95146 0.0
C892 C 0.67921 0.67056 0.96215 0.0
C893 C 0.7829 0.66804 0.98949 0.0
C894 C 0.75464 0.65079 -0.00489 0.0
N895 N 0.73564 0.68034 0.96811 0.0
N896 N 0.68979 0.65258 0.9782 0.0
H897 H 0.63178 0.67641 0.94552 0.0
H898 H 0.8342 0.67136 0.00068 0.0
C899 C 0.87981 0.70711 0.86113 0.0
O900 O 0.8535 0.71311 0.78868 0.0
N901 N 0.75729 0.73317 0.93607 0.0
C902 C 0.76592 0.74266 0.86104 0.0
C903 C 0.78108 0.76069 0.87963 0.0
C904 C 0.76843 0.74574 -0.0006 0.0
N905 N 0.78265 0.76251 0.96648 0.0
C906 C 0.66634 0.71324 0.80229 0.0
C907 C 0.72518 0.68776 0.69346 0.0
C908 C 0.67476 0.69901 0.66138 0.0
C909 C 0.64413 0.71156 0.71702 0.0
C910 C 0.74585 0.68987 0.77966 0.0
N911 N 0.71933 0.70335 0.83096 0.0
H912 H 0.64257 0.72305 0.84483 0.0
H913 H 0.7845 0.68107 0.80447 0.0
H914 H 0.76388 0.73698 0.79635 0.0
H915 H 0.76837 0.74266 0.06804 0.0
O916 O 0.65802 0.71028 -0.00088 0.0
O917 O 0.74998 0.70931 0.07688 0.0
O918 O 0.84401 0.70349 0.92776 0.0
C919 C 0.68584 0.71069 0.07504 0.0
H920 H 0.77932 0.63805 0.0118 0.0
H921 H 0.79188 0.77141 0.83293 0.0
H922 H 0.74905 0.67772 0.65196 0.0
H923 H 0.60438 0.72028 0.69412 0.0
Co924 Co 0.49561 0.33445 0.70141 0.0
C925 C 0.42921 0.37048 0.7121 0.0
C926 C 0.5329 0.37299 0.7394 0.0
C927 C 0.50464 0.39024 0.74506 0.0
N928 N 0.48563 0.3607 0.71803 0.0
N929 N 0.43979 0.38845 0.72816 0.0
H930 H 0.38176 0.36462 0.6955 0.0
H931 H 0.5842 0.36967 0.75059 0.0
C932 C 0.62979 0.33392 0.61107 0.0
O933 O 0.60348 0.32793 0.53863 0.0
N934 N 0.50726 0.30786 0.68605 0.0
C935 C 0.51589 0.29838 0.61103 0.0
C936 C 0.53106 0.28035 0.62962 0.0
C937 C 0.51843 0.29529 0.74939 0.0
N938 N 0.53265 0.27853 0.71648 0.0
C939 C 0.4163 0.3278 0.55227 0.0
C940 C 0.47516 0.35328 0.44336 0.0
C941 C 0.42473 0.34202 0.41132 0.0
C942 C 0.3941 0.32948 0.467 0.0
C943 C 0.49582 0.35116 0.52958 0.0
N944 N 0.4693 0.33769 0.58091 0.0
H945 H 0.39254 0.31799 0.59484 0.0
H946 H 0.53447 0.35997 0.55436 0.0
H947 H 0.51384 0.30407 0.54633 0.0
H948 H 0.51838 0.29837 0.81802 0.0
O949 O 0.408 0.33076 0.74908 0.0
O950 O 0.49997 0.33172 0.82683 0.0
O951 O 0.59399 0.33754 0.67769 0.0
C952 C 0.43583 0.33033 0.825 0.0
H953 H 0.52932 0.40297 0.76177 0.0
H954 H 0.54186 0.26963 0.58294 0.0
H955 H 0.49903 0.36331 0.40184 0.0
H956 H 0.35434 0.32076 0.44413 0.0
Co957 Co 0.33636 0.45659 0.70146 0.0
C958 C 0.40278 0.42056 0.71215 0.0
C959 C 0.29909 0.41804 0.73948 0.0
C960 C 0.32735 0.40079 0.74511 0.0
N961 N 0.34635 0.43034 0.71811 0.0
N962 N 0.3922 0.40258 0.7282 0.0
H963 H 0.45021 0.42641 0.69552 0.0
H964 H 0.24779 0.42136 0.75068 0.0
C965 C 0.20219 0.45711 0.61113 0.0
O966 O 0.22849 0.46311 0.53868 0.0
N967 N 0.3247 0.48317 0.68607 0.0
C968 C 0.31607 0.49266 0.61104 0.0
C969 C 0.30091 0.51069 0.62962 0.0
C970 C 0.31356 0.49574 0.7494 0.0
N971 N 0.29934 0.51251 0.71648 0.0
C972 C 0.41565 0.46324 0.5523 0.0
C973 C 0.35681 0.43776 0.44346 0.0
C974 C 0.40724 0.44901 0.41138 0.0
C975 C 0.43786 0.46156 0.46702 0.0
C976 C 0.33614 0.43987 0.52966 0.0
N977 N 0.36266 0.45335 0.58096 0.0
H978 H 0.43942 0.47305 0.59483 0.0
H979 H 0.29749 0.43107 0.55447 0.0
H980 H 0.31811 0.48698 0.54635 0.0
H981 H 0.31362 0.49266 0.81803 0.0
O982 O 0.42397 0.46028 0.74912 0.0
O983 O 0.33201 0.45931 0.82688 0.0
O984 O 0.23798 0.45349 0.67775 0.0
C985 C 0.39615 0.4607 0.82504 0.0
H986 H 0.30267 0.38805 0.7618 0.0
H987 H 0.29011 0.52141 0.58293 0.0
H988 H 0.33294 0.42772 0.40196 0.0
H989 H 0.47762 0.47028 0.44413 0.0
Co990 Co 0.49562 0.45658 0.02865 0.0
C991 C 0.42921 0.42056 0.01796 0.0
C992 C 0.5329 0.41805 -0.00934 0.0
C993 C 0.50465 0.40079 0.985 0.0
N994 N 0.48564 0.43034 0.01203 0.0
N995 N 0.43979 0.40258 0.0019 0.0
H996 H 0.38177 0.42641 0.03456 0.0
H997 H 0.5842 0.42136 0.97947 0.0
C998 C 0.62979 0.45711 0.11898 0.0
O999 O 0.60348 0.46311 0.19143 0.0
N1000 N 0.50727 0.48317 0.04401 0.0
C1001 C 0.51589 0.49265 0.11903 0.0
C1002 C 0.53106 0.51069 0.10043 0.0
C1003 C 0.51843 0.49575 0.98067 0.0
N1004 N 0.53265 0.51251 0.01357 0.0
C1005 C 0.41631 0.46323 0.17778 0.0
C1006 C 0.47517 0.43775 0.28669 0.0
C1007 C 0.42474 0.44901 0.31874 0.0
C1008 C 0.3941 0.46155 0.26306 0.0
C1009 C 0.49583 0.43987 0.20048 0.0
N1010 N 0.46931 0.45335 0.14914 0.0
H1011 H 0.39254 0.47304 0.13522 0.0
H1012 H 0.53448 0.43106 0.17569 0.0
H1013 H 0.51384 0.48697 0.18373 0.0
H1014 H 0.51839 0.49267 0.91203 0.0
O1015 O 0.40801 0.46028 0.98098 0.0
O1016 O 0.49997 0.45931 0.90322 0.0
O1017 O 0.594 0.45349 0.05237 0.0
C1018 C 0.43584 0.4607 0.90505 0.0
H1019 H 0.52932 0.38806 0.96829 0.0
H1020 H 0.54186 0.5214 0.14711 0.0
H1021 H 0.49904 0.42772 0.32822 0.0
H1022 H 0.35434 0.47027 0.28593 0.0
Co1023 Co 0.33636 0.33445 0.0286 0.0
C1024 C 0.40278 0.37047 0.01791 0.0
C1025 C 0.29909 0.37299 -0.00943 0.0
C1026 C 0.32735 0.39025 0.98495 0.0
N1027 N 0.34635 0.3607 0.01195 0.0
N1028 N 0.3922 0.38845 0.00186 0.0
H1029 H 0.45021 0.36462 0.03454 0.0
H1030 H 0.24779 0.36968 0.97938 0.0
C1031 C 0.20218 0.33392 0.11892 0.0
O1032 O 0.22849 0.32792 0.19138 0.0
N1033 N 0.3247 0.30786 0.04399 0.0
C1034 C 0.31607 0.29838 0.11901 0.0
C1035 C 0.3009 0.28034 0.10043 0.0
C1036 C 0.31355 0.29529 0.98065 0.0
N1037 N 0.29933 0.27853 0.01357 0.0
C1038 C 0.41565 0.32779 0.17776 0.0
C1039 C 0.35681 0.35328 0.2866 0.0
C1040 C 0.40723 0.34202 0.31867 0.0
C1041 C 0.43785 0.32947 0.26304 0.0
C1042 C 0.33614 0.35116 0.2004 0.0
N1043 N 0.36265 0.33768 0.14909 0.0
H1044 H 0.43941 0.31798 0.13523 0.0
H1045 H 0.29749 0.35997 0.17558 0.0
H1046 H 0.31811 0.30406 0.18371 0.0
H1047 H 0.31362 0.29837 0.91202 0.0
O1048 O 0.42397 0.33076 0.98094 0.0
O1049 O 0.33201 0.33172 0.90318 0.0
O1050 O 0.23798 0.33754 0.0523 0.0
C1051 C 0.39614 0.33034 0.90502 0.0
H1052 H 0.30268 0.40298 0.96825 0.0
H1053 H 0.2901 0.26962 0.14712 0.0
H1054 H 0.33294 0.36331 0.3281 0.0
H1055 H 0.47761 0.32076 0.28594 0.0
loop_
_geom_bond_atom_site_label_1
_geom_bond_atom_site_label_2
_geom_bond_distance
_geom_bond_site_symmetry_2
_ccdc_geom_bond_type
Co0 N4 2.148 . S
Co0 N10 2.128 . S
Co0 N20 2.194 . S
Co0 O25 2.351 . S
Co0 O26 2.155 . S
Co0 O27 2.096 1_455 S
C1 N4 1.301 . S
C1 N5 1.328 . S
C1 H6 0.930 . S
C2 C3 1.333 1_655 S
C2 N4 1.317 1_655 S
C2 H7 0.930 . S
C3 C2 1.333 1_455 S
C3 N5 1.350 . S
C3 H29 0.931 1_455 S
N4 Co0 2.148 . S
N4 C1 1.301 . S
N4 C2 1.317 1_455 S
N5 C1 1.328 . S
N5 C3 1.350 . S
H6 C1 0.930 . S
H7 C2 0.930 . S
C8 O9 1.224 . S
C8 O27 1.247 . S
O9 C8 1.224 . S
N10 Co0 2.128 . S
N10 C11 1.355 . S
N10 C13 1.311 1_455 S
C11 N10 1.355 . S
C11 C12 1.363 . S
C11 H23 0.929 . S
C12 C11 1.363 . S
C12 N14 1.375 1_455 S
C12 H30 0.931 . S
C13 N10 1.311 1_655 S
C13 N14 1.347 . S
C13 H24 0.929 . S
N14 C12 1.375 1_655 S
N14 C13 1.347 . S
C15 C18 1.365 . S
C15 N20 1.328 . S
C15 H21 0.929 . S
C16 C17 1.362 . S
C16 C19 1.378 . S
C16 H31 0.929 . S
C17 C16 1.362 . S
C17 C18 1.366 . S
C18 C15 1.365 . S
C18 C17 1.366 . S
C18 H32 0.930 . S
C19 C16 1.378 . S
C19 N20 1.315 . S
C19 H22 0.930 . S
N20 Co0 2.194 . S
N20 C15 1.328 . S
N20 C19 1.315 . S
H21 C15 0.929 . S
H22 C19 0.930 . S
H23 C11 0.929 . S
H24 C13 0.929 . S
O25 Co0 2.351 . S
O25 C28 1.244 . S
O26 Co0 2.155 . S
O26 C28 1.240 . S
O27 Co0 2.096 1_655 S
O27 C8 1.247 . S
C28 O25 1.244 . S
C28 O26 1.240 . S
H29 C3 0.931 1_655 S
H30 C12 0.931 . S
H31 C16 0.929 . S
H32 C18 0.930 . S
Co33 N37 2.148 . S
Co33 N43 2.128 . S
Co33 N53 2.194 . S
Co33 O58 2.351 . S
Co33 O59 2.155 . S
Co33 O60 2.096 . S
C34 N37 1.301 . S
C34 N38 1.328 . S
C34 H39 0.930 . S
C35 C36 1.333 . S
C35 N37 1.317 . S
C35 H40 0.930 . S
C36 C35 1.333 . S
C36 N38 1.350 . S
C36 H62 0.931 . S
N37 Co33 2.148 . S
N37 C34 1.301 . S
N37 C35 1.317 . S
N38 C34 1.328 . S
N38 C36 1.350 . S
H39 C34 0.930 . S
H40 C35 0.930 . S
C41 O42 1.224 . S
C41 O60 1.247 . S
O42 C41 1.224 . S
N43 Co33 2.128 . S
N43 C44 1.355 . S
N43 C46 1.311 . S
C44 N43 1.355 . S
C44 C45 1.363 . S
C44 H56 0.929 . S
C45 C44 1.363 . S
C45 N47 1.375 . S
C45 H63 0.931 1_545 S
C46 N43 1.311 . S
C46 N47 1.347 . S
C46 H57 0.929 . S
N47 C45 1.375 . S
N47 C46 1.347 . S
C48 C51 1.365 . S
C48 N53 1.328 . S
C48 H54 0.929 . S
C49 C50 1.362 . S
C49 C52 1.378 . S
C49 H64 0.929 . S
C50 C49 1.362 . S
C50 C51 1.366 . S
C51 C48 1.365 . S
C51 C50 1.366 . S
C51 H65 0.930 . S
C52 C49 1.378 . S
C52 N53 1.315 . S
C52 H55 0.930 . S
N53 Co33 2.194 . S
N53 C48 1.328 . S
N53 C52 1.315 . S
H54 C48 0.929 . S
H55 C52 0.930 . S
H56 C44 0.929 . S
H57 C46 0.929 . S
O58 Co33 2.351 . S
O58 C61 1.244 . S
O59 Co33 2.155 . S
O59 C61 1.240 . S
O60 Co33 2.096 . S
O60 C41 1.247 . S
C61 O58 1.244 . S
C61 O59 1.240 . S
H62 C36 0.931 . S
H63 C45 0.931 1_565 S
H64 C49 0.929 . S
H65 C51 0.930 . S
Co66 N70 2.148 . S
Co66 N76 2.128 . S
Co66 N86 2.194 . S
Co66 O91 2.351 1_556 S
Co66 O92 2.155 1_556 S
Co66 O93 2.096 1_455 S
C67 N70 1.301 . S
C67 N71 1.328 . S
C67 H72 0.930 . S
C68 C69 1.333 1_655 S
C68 N70 1.317 1_655 S
C68 H73 0.930 . S
C69 C68 1.333 1_455 S
C69 N71 1.350 . S
C69 H95 0.931 1_455 S
N70 Co66 2.148 . S
N70 C67 1.301 . S
N70 C68 1.317 1_455 S
N71 C67 1.328 . S
N71 C69 1.350 . S
H72 C67 0.930 . S
H73 C68 0.930 . S
C74 O75 1.224 . S
C74 O93 1.247 . S
O75 C74 1.224 . S
N76 Co66 2.128 . S
N76 C77 1.355 . S
N76 C79 1.311 1_455 S
C77 N76 1.355 . S
C77 C78 1.363 . S
C77 H89 0.929 . S
C78 C77 1.363 . S
C78 N80 1.375 1_455 S
C78 H96 0.931 1_545 S
C79 N76 1.311 1_655 S
C79 N80 1.347 . S
C79 H90 0.929 . S
N80 C78 1.375 1_655 S
N80 C79 1.347 . S
C81 C84 1.365 . S
C81 N86 1.328 . S
C81 H87 0.929 . S
C82 C83 1.362 . S
C82 C85 1.378 . S
C82 H97 0.929 . S
C83 C82 1.362 . S
C83 C84 1.366 . S
C84 C81 1.365 . S
C84 C83 1.366 . S
C84 H98 0.930 . S
C85 C82 1.378 . S
C85 N86 1.315 . S
C85 H88 0.930 . S
N86 Co66 2.194 . S
N86 C81 1.328 . S
N86 C85 1.315 . S
H87 C81 0.929 . S
H88 C85 0.930 . S
H89 C77 0.929 . S
H90 C79 0.929 . S
O91 Co66 2.351 1_554 S
O91 C94 1.244 . S
O92 Co66 2.155 1_554 S
O92 C94 1.240 . S
O93 Co66 2.096 1_655 S
O93 C74 1.247 . S
C94 O91 1.244 . S
C94 O92 1.240 . S
H95 C69 0.931 1_655 S
H96 C78 0.931 1_565 S
H97 C82 0.929 . S
H98 C84 0.930 . S
Co99 N103 2.148 . S
Co99 N109 2.128 . S
Co99 N119 2.194 . S
Co99 O124 2.351 1_556 S
Co99 O125 2.155 1_556 S
Co99 O126 2.096 . S
C100 N103 1.301 . S
C100 N104 1.328 . S
C100 H105 0.930 . S
C101 C102 1.333 . S
C101 N103 1.317 . S
C101 H106 0.930 . S
C102 C101 1.333 . S
C102 N104 1.350 . S
C102 H128 0.931 . S
N103 Co99 2.148 . S
N103 C100 1.301 . S
N103 C101 1.317 . S
N104 C100 1.328 . S
N104 C102 1.350 . S
H105 C100 0.930 . S
H106 C101 0.930 . S
C107 O108 1.224 . S
C107 O126 1.247 . S
O108 C107 1.224 . S
N109 Co99 2.128 . S
N109 C110 1.355 . S
N109 C112 1.311 . S
C110 N109 1.355 . S
C110 C111 1.363 . S
C110 H122 0.929 . S
C111 C110 1.363 . S
C111 N113 1.375 . S
C111 H129 0.931 . S
C112 N109 1.311 . S
C112 N113 1.347 . S
C112 H123 0.929 . S
N113 C111 1.375 . S
N113 C112 1.347 . S
C114 C117 1.365 . S
C114 N119 1.328 . S
C114 H120 0.929 . S
C115 C116 1.362 . S
C115 C118 1.378 . S
C115 H130 0.929 . S
C116 C115 1.362 . S
C116 C117 1.366 . S
C117 C114 1.365 . S
C117 C116 1.366 . S
C117 H131 0.930 . S
C118 C115 1.378 . S
C118 N119 1.315 . S
C118 H121 0.930 . S
N119 Co99 2.194 . S
N119 C114 1.328 . S
N119 C118 1.315 . S
H120 C114 0.929 . S
H121 C118 0.930 . S
H122 C110 0.929 . S
H123 C112 0.929 . S
O124 Co99 2.351 1_554 S
O124 C127 1.244 . S
O125 Co99 2.155 1_554 S
O125 C127 1.240 . S
O126 Co99 2.096 . S
O126 C107 1.247 . S
C127 O124 1.244 . S
C127 O125 1.240 . S
H128 C102 0.931 . S
H129 C111 0.931 . S
H130 C115 0.929 . S
H131 C117 0.930 . S
Co132 N136 2.148 . S
Co132 N142 2.128 . S
Co132 N152 2.194 . S
Co132 O157 2.351 . S
Co132 O158 2.155 . S
Co132 O159 2.096 1_655 S
C133 N136 1.301 . S
C133 N137 1.328 . S
C133 H138 0.930 . S
C134 C135 1.333 1_455 S
C134 N136 1.317 1_455 S
C134 H139 0.930 . S
C135 C134 1.333 1_655 S
C135 N137 1.350 . S
C135 H161 0.931 1_655 S
N136 Co132 2.148 . S
N136 C133 1.301 . S
N136 C134 1.317 1_655 S
N137 C133 1.328 . S
N137 C135 1.350 . S
H138 C133 0.930 . S
H139 C134 0.930 . S
C140 O141 1.224 . S
C140 O159 1.247 . S
O141 C140 1.224 . S
N142 Co132 2.128 . S
N142 C143 1.355 . S
N142 C145 1.311 1_655 S
C143 N142 1.355 . S
C143 C144 1.363 . S
C143 H155 0.929 . S
C144 C143 1.363 . S
C144 N146 1.375 1_655 S
C144 H162 0.931 . S
C145 N142 1.311 1_455 S
C145 N146 1.347 . S
C145 H156 0.929 . S
N146 C144 1.375 1_455 S
N146 C145 1.347 . S
C147 C150 1.365 . S
C147 N152 1.328 . S
C147 H153 0.929 . S
C148 C149 1.362 . S
C148 C151 1.378 . S
C148 H163 0.929 . S
C149 C148 1.362 . S
C149 C150 1.366 . S
C150 C147 1.365 . S
C150 C149 1.366 . S
C150 H164 0.930 . S
C151 C148 1.378 . S
C151 N152 1.315 . S
C151 H154 0.930 . S
N152 Co132 2.194 . S
N152 C147 1.328 . S
N152 C151 1.315 . S
H153 C147 0.929 . S
H154 C151 0.930 . S
H155 C143 0.929 . S
H156 C145 0.929 . S
O157 Co132 2.351 . S
O157 C160 1.244 . S
O158 Co132 2.155 . S
O158 C160 1.240 . S
O159 Co132 2.096 1_455 S
O159 C140 1.247 . S
C160 O157 1.244 . S
C160 O158 1.240 . S
H161 C135 0.931 1_455 S
H162 C144 0.931 . S
H163 C148 0.929 . S
H164 C150 0.930 . S
Co165 N169 2.148 . S
Co165 N175 2.128 . S
Co165 N185 2.194 . S
Co165 O190 2.351 . S
Co165 O191 2.155 . S
Co165 O192 2.096 . S
C166 N169 1.301 . S
C166 N170 1.328 . S
C166 H171 0.930 . S
C167 C168 1.333 . S
C167 N169 1.317 . S
C167 H172 0.930 . S
C168 C167 1.333 . S
C168 N170 1.350 . S
C168 H194 0.931 . S
N169 Co165 2.148 . S
N169 C166 1.301 . S
N169 C167 1.317 . S
N170 C166 1.328 . S
N170 C168 1.350 . S
H171 C166 0.930 . S
H172 C167 0.930 . S
C173 O174 1.224 . S
C173 O192 1.247 . S
O174 C173 1.224 . S
N175 Co165 2.128 . S
N175 C176 1.355 . S
N175 C178 1.311 . S
C176 N175 1.355 . S
C176 C177 1.363 . S
C176 H188 0.929 . S
C177 C176 1.363 . S
C177 N179 1.375 . S
C177 H195 0.931 1_565 S
C178 N175 1.311 . S
C178 N179 1.347 . S
C178 H189 0.929 . S
N179 C177 1.375 . S
N179 C178 1.347 . S
C180 C183 1.365 . S
C180 N185 1.328 . S
C180 H186 0.929 . S
C181 C182 1.362 . S
C181 C184 1.378 . S
C181 H196 0.929 . S
C182 C181 1.362 . S
C182 C183 1.366 . S
C183 C180 1.365 . S
C183 C182 1.366 . S
C183 H197 0.930 . S
C184 C181 1.378 . S
C184 N185 1.315 . S
C184 H187 0.930 . S
N185 Co165 2.194 . S
N185 C180 1.328 . S
N185 C184 1.315 . S
H186 C180 0.929 . S
H187 C184 0.930 . S
H188 C176 0.929 . S
H189 C178 0.929 . S
O190 Co165 2.351 . S
O190 C193 1.244 . S
O191 Co165 2.155 . S
O191 C193 1.240 . S
O192 Co165 2.096 . S
O192 C173 1.247 . S
C193 O190 1.244 . S
C193 O191 1.240 . S
H194 C168 0.931 . S
H195 C177 0.931 1_545 S
H196 C181 0.929 . S
H197 C183 0.930 . S
Co198 N202 2.148 . S
Co198 N208 2.128 . S
Co198 N218 2.194 . S
Co198 O223 2.351 1_554 S
Co198 O224 2.155 1_554 S
Co198 O225 2.096 1_655 S
C199 N202 1.301 . S
C199 N203 1.328 . S
C199 H204 0.930 . S
C200 C201 1.333 1_455 S
C200 N202 1.317 1_455 S
C200 H205 0.930 . S
C201 C200 1.333 1_655 S
C201 N203 1.350 . S
C201 H227 0.931 1_655 S
N202 Co198 2.148 . S
N202 C199 1.301 . S
N202 C200 1.317 1_655 S
N203 C199 1.328 . S
N203 C201 1.350 . S
H204 C199 0.930 . S
H205 C200 0.930 . S
C206 O207 1.224 . S
C206 O225 1.247 . S
O207 C206 1.224 . S
N208 Co198 2.128 . S
N208 C209 1.355 . S
N208 C211 1.311 1_655 S
C209 N208 1.355 . S
C209 C210 1.363 . S
C209 H221 0.929 . S
C210 C209 1.363 . S
C210 N212 1.375 1_655 S
C210 H228 0.931 1_565 S
C211 N208 1.311 1_455 S
C211 N212 1.347 . S
C211 H222 0.929 . S
N212 C210 1.375 1_455 S
N212 C211 1.347 . S
C213 C216 1.365 . S
C213 N218 1.328 . S
C213 H219 0.929 . S
C214 C215 1.362 . S
C214 C217 1.378 . S
C214 H229 0.929 . S
C215 C214 1.362 . S
C215 C216 1.366 . S
C216 C213 1.365 . S
C216 C215 1.366 . S
C216 H230 0.930 . S
C217 C214 1.378 . S
C217 N218 1.315 . S
C217 H220 0.930 . S
N218 Co198 2.194 . S
N218 C213 1.328 . S
N218 C217 1.315 . S
H219 C213 0.929 . S
H220 C217 0.930 . S
H221 C209 0.929 . S
H222 C211 0.929 . S
O223 Co198 2.351 1_556 S
O223 C226 1.244 . S
O224 Co198 2.155 1_556 S
O224 C226 1.240 . S
O225 Co198 2.096 1_455 S
O225 C206 1.247 . S
C226 O223 1.244 . S
C226 O224 1.240 . S
H227 C201 0.931 1_455 S
H228 C210 0.931 1_545 S
H229 C214 0.929 . S
H230 C216 0.930 . S
Co231 N235 2.148 . S
Co231 N241 2.128 . S
Co231 N251 2.194 . S
Co231 O256 2.351 1_554 S
Co231 O257 2.155 1_554 S
Co231 O258 2.096 . S
C232 N235 1.301 . S
C232 N236 1.328 . S
C232 H237 0.930 . S
C233 C234 1.333 . S
C233 N235 1.317 . S
C233 H238 0.930 . S
C234 C233 1.333 . S
C234 N236 1.350 . S
C234 H260 0.931 . S
N235 Co231 2.148 . S
N235 C232 1.301 . S
N235 C233 1.317 . S
N236 C232 1.328 . S
N236 C234 1.350 . S
H237 C232 0.930 . S
H238 C233 0.930 . S
C239 O240 1.224 . S
C239 O258 1.247 . S
O240 C239 1.224 . S
N241 Co231 2.128 . S
N241 C242 1.355 . S
N241 C244 1.311 . S
C242 N241 1.355 . S
C242 C243 1.363 . S
C242 H254 0.929 . S
C243 C242 1.363 . S
C243 N245 1.375 . S
C243 H261 0.931 . S
C244 N241 1.311 . S
C244 N245 1.347 . S
C244 H255 0.929 . S
N245 C243 1.375 . S
N245 C244 1.347 . S
C246 C249 1.365 . S
C246 N251 1.328 . S
C246 H252 0.929 . S
C247 C248 1.362 . S
C247 C250 1.378 . S
C247 H262 0.929 . S
C248 C247 1.362 . S
C248 C249 1.366 . S
C249 C246 1.365 . S
C249 C248 1.366 . S
C249 H263 0.930 . S
C250 C247 1.378 . S
C250 N251 1.315 . S
C250 H253 0.930 . S
N251 Co231 2.194 . S
N251 C246 1.328 . S
N251 C250 1.315 . S
H252 C246 0.929 . S
H253 C250 0.930 . S
H254 C242 0.929 . S
H255 C244 0.929 . S
O256 Co231 2.351 1_556 S
O256 C259 1.244 . S
O257 Co231 2.155 1_556 S
O257 C259 1.240 . S
O258 Co231 2.096 . S
O258 C239 1.247 . S
C259 O256 1.244 . S
C259 O257 1.240 . S
H260 C234 0.931 . S
H261 C243 0.931 . S
H262 C247 0.929 . S
H263 C249 0.930 . S
Co264 N268 2.148 . S
Co264 N274 2.128 . S
Co264 N284 2.194 . S
Co264 O289 2.351 . S
Co264 O290 2.155 . S
Co264 O291 2.096 1_455 S
C265 N268 1.301 . S
C265 N269 1.328 . S
C265 H270 0.930 . S
C266 C267 1.333 1_655 S
C266 N268 1.317 1_655 S
C266 H271 0.930 . S
C267 C266 1.333 1_455 S
C267 N269 1.350 . S
C267 H293 0.931 1_455 S
N268 Co264 2.148 . S
N268 C265 1.301 . S
N268 C266 1.317 1_455 S
N269 C265 1.328 . S
N269 C267 1.350 . S
H270 C265 0.930 . S
H271 C266 0.930 . S
C272 O273 1.224 . S
C272 O291 1.247 . S
O273 C272 1.224 . S
N274 Co264 2.128 . S
N274 C275 1.355 . S
N274 C277 1.311 1_455 S
C275 N274 1.355 . S
C275 C276 1.363 . S
C275 H287 0.929 . S
C276 C275 1.363 . S
C276 N278 1.375 1_455 S
C276 H294 0.931 . S
C277 N274 1.311 1_655 S
C277 N278 1.347 . S
C277 H288 0.929 . S
N278 C276 1.375 1_655 S
N278 C277 1.347 . S
C279 C282 1.365 . S
C279 N284 1.328 . S
C279 H285 0.929 . S
C280 C281 1.362 . S
C280 C283 1.378 1_554 S
C280 H295 0.929 . S
C281 C280 1.362 . S
C281 C282 1.366 1_554 S
C282 C279 1.365 . S
C282 C281 1.366 1_556 S
C282 H296 0.930 1_556 S
C283 C280 1.378 1_556 S
C283 N284 1.315 . S
C283 H286 0.930 . S
N284 Co264 2.194 . S
N284 C279 1.328 . S
N284 C283 1.315 . S
H285 C279 0.929 . S
H286 C283 0.930 . S
H287 C275 0.929 . S
H288 C277 0.929 . S
O289 Co264 2.351 . S
O289 C292 1.244 . S
O290 Co264 2.155 . S
O290 C292 1.240 . S
O291 Co264 2.096 1_655 S
O291 C272 1.247 . S
C292 O289 1.244 . S
C292 O290 1.240 . S
H293 C267 0.931 1_655 S
H294 C276 0.931 . S
H295 C280 0.929 . S
H296 C282 0.930 1_554 S
Co297 N301 2.148 . S
Co297 N307 2.128 . S
Co297 N317 2.194 . S
Co297 O322 2.351 . S
Co297 O323 2.155 . S
Co297 O324 2.096 . S
C298 N301 1.301 . S
C298 N302 1.328 . S
C298 H303 0.930 . S
C299 C300 1.333 . S
C299 N301 1.317 . S
C299 H304 0.930 . S
C300 C299 1.333 . S
C300 N302 1.350 . S
C300 H326 0.931 . S
N301 Co297 2.148 . S
N301 C298 1.301 . S
N301 C299 1.317 . S
N302 C298 1.328 . S
N302 C300 1.350 . S
H303 C298 0.930 . S
H304 C299 0.930 . S
C305 O306 1.224 . S
C305 O324 1.247 . S
O306 C305 1.224 . S
N307 Co297 2.128 . S
N307 C308 1.355 . S
N307 C310 1.311 . S
C308 N307 1.355 . S
C308 C309 1.363 . S
C308 H320 0.929 . S
C309 C308 1.363 . S
C309 N311 1.375 . S
C309 H327 0.931 . S
C310 N307 1.311 . S
C310 N311 1.347 . S
C310 H321 0.929 . S
N311 C309 1.375 . S
N311 C310 1.347 . S
C312 C315 1.365 . S
C312 N317 1.328 . S
C312 H318 0.929 . S
C313 C314 1.362 . S
C313 C316 1.378 1_554 S
C313 H328 0.929 . S
C314 C313 1.362 . S
C314 C315 1.366 1_554 S
C315 C312 1.365 . S
C315 C314 1.366 1_556 S
C315 H329 0.930 1_556 S
C316 C313 1.378 1_556 S
C316 N317 1.315 . S
C316 H319 0.930 . S
N317 Co297 2.194 . S
N317 C312 1.328 . S
N317 C316 1.315 . S
H318 C312 0.929 . S
H319 C316 0.930 . S
H320 C308 0.929 . S
H321 C310 0.929 . S
O322 Co297 2.351 . S
O322 C325 1.244 . S
O323 Co297 2.155 . S
O323 C325 1.240 . S
O324 Co297 2.096 . S
O324 C305 1.247 . S
C325 O322 1.244 . S
C325 O323 1.240 . S
H326 C300 0.931 . S
H327 C309 0.931 . S
H328 C313 0.929 . S
H329 C315 0.930 1_554 S
Co330 N334 2.148 . S
Co330 N340 2.128 . S
Co330 N350 2.194 . S
Co330 O355 2.351 . S
Co330 O356 2.155 . S
Co330 O357 2.096 1_455 S
C331 N334 1.301 . S
C331 N335 1.328 . S
C331 H336 0.930 . S
C332 C333 1.333 1_655 S
C332 N334 1.317 1_655 S
C332 H337 0.930 . S
C333 C332 1.333 1_455 S
C333 N335 1.350 . S
C333 H359 0.931 1_455 S
N334 Co330 2.148 . S
N334 C331 1.301 . S
N334 C332 1.317 1_455 S
N335 C331 1.328 . S
N335 C333 1.350 . S
H336 C331 0.930 . S
H337 C332 0.930 . S
C338 O339 1.224 . S
C338 O357 1.247 . S
O339 C338 1.224 . S
N340 Co330 2.128 . S
N340 C341 1.355 . S
N340 C343 1.311 1_455 S
C341 N340 1.355 . S
C341 C342 1.363 . S
C341 H353 0.929 . S
C342 C341 1.363 . S
C342 N344 1.375 1_455 S
C342 H360 0.931 . S
C343 N340 1.311 1_655 S
C343 N344 1.347 . S
C343 H354 0.929 . S
N344 C342 1.375 1_655 S
N344 C343 1.347 . S
C345 C348 1.365 . S
C345 N350 1.328 . S
C345 H351 0.929 . S
C346 C347 1.362 . S
C346 C349 1.378 . S
C346 H361 0.929 . S
C347 C346 1.362 . S
C347 C348 1.366 . S
C348 C345 1.365 . S
C348 C347 1.366 . S
C348 H362 0.930 . S
C349 C346 1.378 . S
C349 N350 1.315 . S
C349 H352 0.930 . S
N350 Co330 2.194 . S
N350 C345 1.328 . S
N350 C349 1.315 . S
H351 C345 0.929 . S
H352 C349 0.930 . S
H353 C341 0.929 . S
H354 C343 0.929 . S
O355 Co330 2.351 . S
O355 C358 1.244 . S
O356 Co330 2.155 . S
O356 C358 1.240 . S
O357 Co330 2.096 1_655 S
O357 C338 1.247 . S
C358 O355 1.244 . S
C358 O356 1.240 . S
H359 C333 0.931 1_655 S
H360 C342 0.931 . S
H361 C346 0.929 . S
H362 C348 0.930 . S
Co363 N367 2.148 . S
Co363 N373 2.128 . S
Co363 N383 2.194 . S
Co363 O388 2.351 . S
Co363 O389 2.155 . S
Co363 O390 2.096 . S
C364 N367 1.301 . S
C364 N368 1.328 . S
C364 H369 0.930 . S
C365 C366 1.333 . S
C365 N367 1.317 . S
C365 H370 0.930 . S
C366 C365 1.333 . S
C366 N368 1.350 . S
C366 H392 0.931 . S
N367 Co363 2.148 . S
N367 C364 1.301 . S
N367 C365 1.317 . S
N368 C364 1.328 . S
N368 C366 1.350 . S
H369 C364 0.930 . S
H370 C365 0.930 . S
C371 O372 1.224 . S
C371 O390 1.247 . S
O372 C371 1.224 . S
N373 Co363 2.128 . S
N373 C374 1.355 . S
N373 C376 1.311 . S
C374 N373 1.355 . S
C374 C375 1.363 . S
C374 H386 0.929 . S
C375 C374 1.363 . S
C375 N377 1.375 . S
C375 H393 0.931 . S
C376 N373 1.311 . S
C376 N377 1.347 . S
C376 H387 0.929 . S
N377 C375 1.375 . S
N377 C376 1.347 . S
C378 C381 1.365 . S
C378 N383 1.328 . S
C378 H384 0.929 . S
C379 C380 1.362 . S
C379 C382 1.378 . S
C379 H394 0.929 . S
C380 C379 1.362 . S
C380 C381 1.366 . S
C381 C378 1.365 . S
C381 C380 1.366 . S
C381 H395 0.930 . S
C382 C379 1.378 . S
C382 N383 1.315 . S
C382 H385 0.930 . S
N383 Co363 2.194 . S
N383 C378 1.328 . S
N383 C382 1.315 . S
H384 C378 0.929 . S
H385 C382 0.930 . S
H386 C374 0.929 . S
H387 C376 0.929 . S
O388 Co363 2.351 . S
O388 C391 1.244 . S
O389 Co363 2.155 . S
O389 C391 1.240 . S
O390 Co363 2.096 . S
O390 C371 1.247 . S
C391 O388 1.244 . S
C391 O389 1.240 . S
H392 C366 0.931 . S
H393 C375 0.931 . S
H394 C379 0.929 . S
H395 C381 0.930 . S
Co396 N400 2.148 . S
Co396 N406 2.128 . S
Co396 N416 2.194 . S
Co396 O421 2.351 . S
Co396 O422 2.155 . S
Co396 O423 2.096 1_655 S
C397 N400 1.301 . S
C397 N401 1.328 . S
C397 H402 0.930 . S
C398 C399 1.333 1_455 S
C398 N400 1.317 1_455 S
C398 H403 0.930 . S
C399 C398 1.333 1_655 S
C399 N401 1.350 . S
C399 H425 0.931 1_655 S
N400 Co396 2.148 . S
N400 C397 1.301 . S
N400 C398 1.317 1_655 S
N401 C397 1.328 . S
N401 C399 1.350 . S
H402 C397 0.930 . S
H403 C398 0.930 . S
C404 O405 1.224 . S
C404 O423 1.247 . S
O405 C404 1.224 . S
N406 Co396 2.128 . S
N406 C407 1.355 . S
N406 C409 1.311 1_655 S
C407 N406 1.355 . S
C407 C408 1.363 . S
C407 H419 0.929 . S
C408 C407 1.363 . S
C408 N410 1.375 1_655 S
C408 H426 0.931 . S
C409 N406 1.311 1_455 S
C409 N410 1.347 . S
C409 H420 0.929 . S
N410 C408 1.375 1_455 S
N410 C409 1.347 . S
C411 C414 1.365 . S
C411 N416 1.328 . S
C411 H417 0.929 . S
C412 C413 1.362 . S
C412 C415 1.378 1_556 S
C412 H427 0.929 . S
C413 C412 1.362 . S
C413 C414 1.366 1_556 S
C414 C411 1.365 . S
C414 C413 1.366 1_554 S
C414 H428 0.930 1_554 S
C415 C412 1.378 1_554 S
C415 N416 1.315 . S
C415 H418 0.930 . S
N416 Co396 2.194 . S
N416 C411 1.328 . S
N416 C415 1.315 . S
H417 C411 0.929 . S
H418 C415 0.930 . S
H419 C407 0.929 . S
H420 C409 0.929 . S
O421 Co396 2.351 . S
O421 C424 1.244 . S
O422 Co396 2.155 . S
O422 C424 1.240 . S
O423 Co396 2.096 1_455 S
O423 C404 1.247 . S
C424 O421 1.244 . S
C424 O422 1.240 . S
H425 C399 0.931 1_455 S
H426 C408 0.931 . S
H427 C412 0.929 . S
H428 C414 0.930 1_556 S
Co429 N433 2.148 . S
Co429 N439 2.128 . S
Co429 N449 2.194 . S
Co429 O454 2.351 . S
Co429 O455 2.155 . S
Co429 O456 2.096 . S
C430 N433 1.301 . S
C430 N434 1.328 . S
C430 H435 0.930 . S
C431 C432 1.333 . S
C431 N433 1.317 . S
C431 H436 0.930 . S
C432 C431 1.333 . S
C432 N434 1.350 . S
C432 H458 0.931 . S
N433 Co429 2.148 . S
N433 C430 1.301 . S
N433 C431 1.317 . S
N434 C430 1.328 . S
N434 C432 1.350 . S
H435 C430 0.930 . S
H436 C431 0.930 . S
C437 O438 1.224 . S
C437 O456 1.247 . S
O438 C437 1.224 . S
N439 Co429 2.128 . S
N439 C440 1.355 . S
N439 C442 1.311 . S
C440 N439 1.355 . S
C440 C441 1.363 . S
C440 H452 0.929 . S
C441 C440 1.363 . S
C441 N443 1.375 . S
C441 H459 0.931 . S
C442 N439 1.311 . S
C442 N443 1.347 . S
C442 H453 0.929 . S
N443 C441 1.375 . S
N443 C442 1.347 . S
C444 C447 1.365 . S
C444 N449 1.328 . S
C444 H450 0.929 . S
C445 C446 1.362 . S
C445 C448 1.378 1_556 S
C445 H460 0.929 . S
C446 C445 1.362 . S
C446 C447 1.366 1_556 S
C447 C444 1.365 . S
C447 C446 1.366 1_554 S
C447 H461 0.930 1_554 S
C448 C445 1.378 1_554 S
C448 N449 1.315 . S
C448 H451 0.930 . S
N449 Co429 2.194 . S
N449 C444 1.328 . S
N449 C448 1.315 . S
H450 C444 0.929 . S
H451 C448 0.930 . S
H452 C440 0.929 . S
H453 C442 0.929 . S
O454 Co429 2.351 . S
O454 C457 1.244 . S
O455 Co429 2.155 . S
O455 C457 1.240 . S
O456 Co429 2.096 . S
O456 C437 1.247 . S
C457 O454 1.244 . S
C457 O455 1.240 . S
H458 C432 0.931 . S
H459 C441 0.931 . S
H460 C445 0.929 . S
H461 C447 0.930 1_556 S
Co462 N466 2.148 . S
Co462 N472 2.128 . S
Co462 N482 2.194 . S
Co462 O487 2.351 . S
Co462 O488 2.155 . S
Co462 O489 2.096 1_655 S
C463 N466 1.301 . S
C463 N467 1.328 . S
C463 H468 0.930 . S
C464 C465 1.333 1_455 S
C464 N466 1.317 1_455 S
C464 H469 0.930 . S
C465 C464 1.333 1_655 S
C465 N467 1.350 . S
C465 H491 0.931 1_655 S
N466 Co462 2.148 . S
N466 C463 1.301 . S
N466 C464 1.317 1_655 S
N467 C463 1.328 . S
N467 C465 1.350 . S
H468 C463 0.930 . S
H469 C464 0.930 . S
C470 O471 1.224 . S
C470 O489 1.247 . S
O471 C470 1.224 . S
N472 Co462 2.128 . S
N472 C473 1.355 . S
N472 C475 1.311 1_655 S
C473 N472 1.355 . S
C473 C474 1.363 . S
C473 H485 0.929 . S
C474 C473 1.363 . S
C474 N476 1.375 1_655 S
C474 H492 0.931 . S
C475 N472 1.311 1_455 S
C475 N476 1.347 . S
C475 H486 0.929 . S
N476 C474 1.375 1_455 S
N476 C475 1.347 . S
C477 C480 1.365 . S
C477 N482 1.328 . S
C477 H483 0.929 . S
C478 C479 1.362 . S
C478 C481 1.378 . S
C478 H493 0.929 . S
C479 C478 1.362 . S
C479 C480 1.366 . S
C480 C477 1.365 . S
C480 C479 1.366 . S
C480 H494 0.930 . S
C481 C478 1.378 . S
C481 N482 1.315 . S
C481 H484 0.930 . S
N482 Co462 2.194 . S
N482 C477 1.328 . S
N482 C481 1.315 . S
H483 C477 0.929 . S
H484 C481 0.930 . S
H485 C473 0.929 . S
H486 C475 0.929 . S
O487 Co462 2.351 . S
O487 C490 1.244 . S
O488 Co462 2.155 . S
O488 C490 1.240 . S
O489 Co462 2.096 1_455 S
O489 C470 1.247 . S
C490 O487 1.244 . S
C490 O488 1.240 . S
H491 C465 0.931 1_455 S
H492 C474 0.931 . S
H493 C478 0.929 . S
H494 C480 0.930 . S
Co495 N499 2.148 . S
Co495 N505 2.128 . S
Co495 N515 2.194 . S
Co495 O520 2.351 . S
Co495 O521 2.155 . S
Co495 O522 2.096 . S
C496 N499 1.301 . S
C496 N500 1.328 . S
C496 H501 0.930 . S
C497 C498 1.333 . S
C497 N499 1.317 . S
C497 H502 0.930 . S
C498 C497 1.333 . S
C498 N500 1.350 . S
C498 H524 0.931 . S
N499 Co495 2.148 . S
N499 C496 1.301 . S
N499 C497 1.317 . S
N500 C496 1.328 . S
N500 C498 1.350 . S
H501 C496 0.930 . S
H502 C497 0.930 . S
C503 O504 1.224 . S
C503 O522 1.247 . S
O504 C503 1.224 . S
N505 Co495 2.128 . S
N505 C506 1.355 . S
N505 C508 1.311 . S
C506 N505 1.355 . S
C506 C507 1.363 . S
C506 H518 0.929 . S
C507 C506 1.363 . S
C507 N509 1.375 . S
C507 H525 0.931 . S
C508 N505 1.311 . S
C508 N509 1.347 . S
C508 H519 0.929 . S
N509 C507 1.375 . S
N509 C508 1.347 . S
C510 C513 1.365 . S
C510 N515 1.328 . S
C510 H516 0.929 . S
C511 C512 1.362 . S
C511 C514 1.378 . S
C511 H526 0.929 . S
C512 C511 1.362 . S
C512 C513 1.366 . S
C513 C510 1.365 . S
C513 C512 1.366 . S
C513 H527 0.930 . S
C514 C511 1.378 . S
C514 N515 1.315 . S
C514 H517 0.930 . S
N515 Co495 2.194 . S
N515 C510 1.328 . S
N515 C514 1.315 . S
H516 C510 0.929 . S
H517 C514 0.930 . S
H518 C506 0.929 . S
H519 C508 0.929 . S
O520 Co495 2.351 . S
O520 C523 1.244 . S
O521 Co495 2.155 . S
O521 C523 1.240 . S
O522 Co495 2.096 . S
O522 C503 1.247 . S
C523 O520 1.244 . S
C523 O521 1.240 . S
H524 C498 0.931 . S
H525 C507 0.931 . S
H526 C511 0.929 . S
H527 C513 0.930 . S
Co528 N532 2.148 . S
Co528 N538 2.128 . S
Co528 N548 2.194 . S
Co528 O553 2.351 . S
Co528 O554 2.155 . S
Co528 O555 2.096 . S
C529 N532 1.301 . S
C529 N533 1.328 . S
C529 H534 0.930 . S
C530 C531 1.333 . S
C530 N532 1.317 . S
C530 H535 0.930 . S
C531 C530 1.333 . S
C531 N533 1.350 . S
C531 H557 0.931 . S
N532 Co528 2.148 . S
N532 C529 1.301 . S
N532 C530 1.317 . S
N533 C529 1.328 . S
N533 C531 1.350 . S
H534 C529 0.930 . S
H535 C530 0.930 . S
C536 O537 1.224 . S
C536 O555 1.247 . S
O537 C536 1.224 . S
N538 Co528 2.128 . S
N538 C539 1.355 . S
N538 C541 1.311 . S
C539 N538 1.355 . S
C539 C540 1.363 . S
C539 H551 0.929 . S
C540 C539 1.363 . S
C540 N542 1.375 . S
C540 H558 0.931 . S
C541 N538 1.311 . S
C541 N542 1.347 . S
C541 H552 0.929 . S
N542 C540 1.375 . S
N542 C541 1.347 . S
C543 C546 1.365 . S
C543 N548 1.328 . S
C543 H549 0.929 . S
C544 C545 1.362 . S
C544 C547 1.378 1_554 S
C544 H559 0.929 . S
C545 C544 1.362 . S
C545 C546 1.366 1_554 S
C546 C543 1.365 . S
C546 C545 1.366 1_556 S
C546 H560 0.930 1_556 S
C547 C544 1.378 1_556 S
C547 N548 1.315 . S
C547 H550 0.930 . S
N548 Co528 2.194 . S
N548 C543 1.328 . S
N548 C547 1.315 . S
H549 C543 0.929 . S
H550 C547 0.930 . S
H551 C539 0.929 . S
H552 C541 0.929 . S
O553 Co528 2.351 . S
O553 C556 1.244 . S
O554 Co528 2.155 . S
O554 C556 1.240 . S
O555 Co528 2.096 . S
O555 C536 1.247 . S
C556 O553 1.244 . S
C556 O554 1.240 . S
H557 C531 0.931 . S
H558 C540 0.931 . S
H559 C544 0.929 . S
H560 C546 0.930 1_554 S
Co561 N565 2.148 . S
Co561 N571 2.128 . S
Co561 N581 2.194 . S
Co561 O586 2.351 . S
Co561 O587 2.155 . S
Co561 O588 2.096 . S
C562 N565 1.301 . S
C562 N566 1.328 . S
C562 H567 0.930 . S
C563 C564 1.333 . S
C563 N565 1.317 . S
C563 H568 0.930 . S
C564 C563 1.333 . S
C564 N566 1.350 . S
C564 H590 0.931 . S
N565 Co561 2.148 . S
N565 C562 1.301 . S
N565 C563 1.317 . S
N566 C562 1.328 . S
N566 C564 1.350 . S
H567 C562 0.930 . S
H568 C563 0.930 . S
C569 O570 1.224 . S
C569 O588 1.247 . S
O570 C569 1.224 . S
N571 Co561 2.128 . S
N571 C572 1.355 . S
N571 C574 1.311 . S
C572 N571 1.355 . S
C572 C573 1.363 . S
C572 H584 0.929 . S
C573 C572 1.363 . S
C573 N575 1.375 . S
C573 H591 0.931 1_545 S
C574 N571 1.311 . S
C574 N575 1.347 . S
C574 H585 0.929 . S
N575 C573 1.375 . S
N575 C574 1.347 . S
C576 C579 1.365 . S
C576 N581 1.328 . S
C576 H582 0.929 . S
C577 C578 1.362 . S
C577 C580 1.378 1_554 S
C577 H592 0.929 . S
C578 C577 1.362 . S
C578 C579 1.366 1_554 S
C579 C576 1.365 . S
C579 C578 1.366 1_556 S
C579 H593 0.930 1_556 S
C580 C577 1.378 1_556 S
C580 N581 1.315 . S
C580 H583 0.930 . S
N581 Co561 2.194 . S
N581 C576 1.328 . S
N581 C580 1.315 . S
H582 C576 0.929 . S
H583 C580 0.930 . S
H584 C572 0.929 . S
H585 C574 0.929 . S
O586 Co561 2.351 . S
O586 C589 1.244 . S
O587 Co561 2.155 . S
O587 C589 1.240 . S
O588 Co561 2.096 . S
O588 C569 1.247 . S
C589 O586 1.244 . S
C589 O587 1.240 . S
H590 C564 0.931 . S
H591 C573 0.931 1_565 S
H592 C577 0.929 . S
H593 C579 0.930 1_554 S
Co594 N598 2.148 . S
Co594 N604 2.128 . S
Co594 N614 2.194 . S
Co594 O619 2.351 . S
Co594 O620 2.155 . S
Co594 O621 2.096 . S
C595 N598 1.301 . S
C595 N599 1.328 . S
C595 H600 0.930 . S
C596 C597 1.333 . S
C596 N598 1.317 . S
C596 H601 0.930 . S
C597 C596 1.333 . S
C597 N599 1.350 . S
C597 H623 0.931 . S
N598 Co594 2.148 . S
N598 C595 1.301 . S
N598 C596 1.317 . S
N599 C595 1.328 . S
N599 C597 1.350 . S
H600 C595 0.930 . S
H601 C596 0.930 . S
C602 O603 1.224 . S
C602 O621 1.247 . S
O603 C602 1.224 . S
N604 Co594 2.128 . S
N604 C605 1.355 . S
N604 C607 1.311 . S
C605 N604 1.355 . S
C605 C606 1.363 . S
C605 H617 0.929 . S
C606 C605 1.363 . S
C606 N608 1.375 . S
C606 H624 0.931 1_545 S
C607 N604 1.311 . S
C607 N608 1.347 . S
C607 H618 0.929 . S
N608 C606 1.375 . S
N608 C607 1.347 . S
C609 C612 1.365 . S
C609 N614 1.328 . S
C609 H615 0.929 . S
C610 C611 1.362 . S
C610 C613 1.378 . S
C610 H625 0.929 . S
C611 C610 1.362 . S
C611 C612 1.366 . S
C612 C609 1.365 . S
C612 C611 1.366 . S
C612 H626 0.930 . S
C613 C610 1.378 . S
C613 N614 1.315 . S
C613 H616 0.930 . S
N614 Co594 2.194 . S
N614 C609 1.328 . S
N614 C613 1.315 . S
H615 C609 0.929 . S
H616 C613 0.930 . S
H617 C605 0.929 . S
H618 C607 0.929 . S
O619 Co594 2.351 . S
O619 C622 1.244 . S
O620 Co594 2.155 . S
O620 C622 1.240 . S
O621 Co594 2.096 . S
O621 C602 1.247 . S
C622 O619 1.244 . S
C622 O620 1.240 . S
H623 C597 0.931 . S
H624 C606 0.931 1_565 S
H625 C610 0.929 . S
H626 C612 0.930 . S
Co627 N631 2.148 . S
Co627 N637 2.128 . S
Co627 N647 2.194 . S
Co627 O652 2.351 . S
Co627 O653 2.155 . S
Co627 O654 2.096 . S
C628 N631 1.301 . S
C628 N632 1.328 . S
C628 H633 0.930 . S
C629 C630 1.333 . S
C629 N631 1.317 . S
C629 H634 0.930 . S
C630 C629 1.333 . S
C630 N632 1.350 . S
C630 H656 0.931 . S
N631 Co627 2.148 . S
N631 C628 1.301 . S
N631 C629 1.317 . S
N632 C628 1.328 . S
N632 C630 1.350 . S
H633 C628 0.930 . S
H634 C629 0.930 . S
C635 O636 1.224 . S
C635 O654 1.247 . S
O636 C635 1.224 . S
N637 Co627 2.128 . S
N637 C638 1.355 . S
N637 C640 1.311 . S
C638 N637 1.355 . S
C638 C639 1.363 . S
C638 H650 0.929 . S
C639 C638 1.363 . S
C639 N641 1.375 . S
C639 H657 0.931 . S
C640 N637 1.311 . S
C640 N641 1.347 . S
C640 H651 0.929 . S
N641 C639 1.375 . S
N641 C640 1.347 . S
C642 C645 1.365 . S
C642 N647 1.328 . S
C642 H648 0.929 . S
C643 C644 1.362 . S
C643 C646 1.378 . S
C643 H658 0.929 . S
C644 C643 1.362 . S
C644 C645 1.366 . S
C645 C642 1.365 . S
C645 C644 1.366 . S
C645 H659 0.930 . S
C646 C643 1.378 . S
C646 N647 1.315 . S
C646 H649 0.930 . S
N647 Co627 2.194 . S
N647 C642 1.328 . S
N647 C646 1.315 . S
H648 C642 0.929 . S
H649 C646 0.930 . S
H650 C638 0.929 . S
H651 C640 0.929 . S
O652 Co627 2.351 . S
O652 C655 1.244 . S
O653 Co627 2.155 . S
O653 C655 1.240 . S
O654 Co627 2.096 . S
O654 C635 1.247 . S
C655 O652 1.244 . S
C655 O653 1.240 . S
H656 C630 0.931 . S
H657 C639 0.931 . S
H658 C643 0.929 . S
H659 C645 0.930 . S
Co660 N664 2.148 . S
Co660 N670 2.128 . S
Co660 N680 2.194 . S
Co660 O685 2.351 . S
Co660 O686 2.155 . S
Co660 O687 2.096 . S
C661 N664 1.301 . S
C661 N665 1.328 . S
C661 H666 0.930 . S
C662 C663 1.333 . S
C662 N664 1.317 . S
C662 H667 0.930 . S
C663 C662 1.333 . S
C663 N665 1.350 . S
C663 H689 0.931 . S
N664 Co660 2.148 . S
N664 C661 1.301 . S
N664 C662 1.317 . S
N665 C661 1.328 . S
N665 C663 1.350 . S
H666 C661 0.930 . S
H667 C662 0.930 . S
C668 O669 1.224 . S
C668 O687 1.247 . S
O669 C668 1.224 . S
N670 Co660 2.128 . S
N670 C671 1.355 . S
N670 C673 1.311 . S
C671 N670 1.355 . S
C671 C672 1.363 . S
C671 H683 0.929 . S
C672 C671 1.363 . S
C672 N674 1.375 . S
C672 H690 0.931 . S
C673 N670 1.311 . S
C673 N674 1.347 . S
C673 H684 0.929 . S
N674 C672 1.375 . S
N674 C673 1.347 . S
C675 C678 1.365 . S
C675 N680 1.328 . S
C675 H681 0.929 . S
C676 C677 1.362 . S
C676 C679 1.378 1_556 S
C676 H691 0.929 . S
C677 C676 1.362 . S
C677 C678 1.366 1_556 S
C678 C675 1.365 . S
C678 C677 1.366 1_554 S
C678 H692 0.930 1_554 S
C679 C676 1.378 1_554 S
C679 N680 1.315 . S
C679 H682 0.930 . S
N680 Co660 2.194 . S
N680 C675 1.328 . S
N680 C679 1.315 . S
H681 C675 0.929 . S
H682 C679 0.930 . S
H683 C671 0.929 . S
H684 C673 0.929 . S
O685 Co660 2.351 . S
O685 C688 1.244 . S
O686 Co660 2.155 . S
O686 C688 1.240 . S
O687 Co660 2.096 . S
O687 C668 1.247 . S
C688 O685 1.244 . S
C688 O686 1.240 . S
H689 C663 0.931 . S
H690 C672 0.931 . S
H691 C676 0.929 . S
H692 C678 0.930 1_556 S
Co693 N697 2.148 . S
Co693 N703 2.128 . S
Co693 N713 2.194 . S
Co693 O718 2.351 . S
Co693 O719 2.155 . S
Co693 O720 2.096 . S
C694 N697 1.301 . S
C694 N698 1.328 . S
C694 H699 0.930 . S
C695 C696 1.333 . S
C695 N697 1.317 . S
C695 H700 0.930 . S
C696 C695 1.333 . S
C696 N698 1.350 . S
C696 H722 0.931 . S
N697 Co693 2.148 . S
N697 C694 1.301 . S
N697 C695 1.317 . S
N698 C694 1.328 . S
N698 C696 1.350 . S
H699 C694 0.930 . S
H700 C695 0.930 . S
C701 O702 1.224 . S
C701 O720 1.247 . S
O702 C701 1.224 . S
N703 Co693 2.128 . S
N703 C704 1.355 . S
N703 C706 1.311 . S
C704 N703 1.355 . S
C704 C705 1.363 . S
C704 H716 0.929 . S
C705 C704 1.363 . S
C705 N707 1.375 . S
C705 H723 0.931 1_565 S
C706 N703 1.311 . S
C706 N707 1.347 . S
C706 H717 0.929 . S
N707 C705 1.375 . S
N707 C706 1.347 . S
C708 C711 1.365 . S
C708 N713 1.328 . S
C708 H714 0.929 . S
C709 C710 1.362 . S
C709 C712 1.378 1_556 S
C709 H724 0.929 . S
C710 C709 1.362 . S
C710 C711 1.366 1_556 S
C711 C708 1.365 . S
C711 C710 1.366 1_554 S
C711 H725 0.930 1_554 S
C712 C709 1.378 1_554 S
C712 N713 1.315 . S
C712 H715 0.930 . S
N713 Co693 2.194 . S
N713 C708 1.328 . S
N713 C712 1.315 . S
H714 C708 0.929 . S
H715 C712 0.930 . S
H716 C704 0.929 . S
H717 C706 0.929 . S
O718 Co693 2.351 . S
O718 C721 1.244 . S
O719 Co693 2.155 . S
O719 C721 1.240 . S
O720 Co693 2.096 . S
O720 C701 1.247 . S
C721 O718 1.244 . S
C721 O719 1.240 . S
H722 C696 0.931 . S
H723 C705 0.931 1_545 S
H724 C709 0.929 . S
H725 C711 0.930 1_556 S
Co726 N730 2.148 . S
Co726 N736 2.128 . S
Co726 N746 2.194 . S
Co726 O751 2.351 . S
Co726 O752 2.155 . S
Co726 O753 2.096 . S
C727 N730 1.301 . S
C727 N731 1.328 . S
C727 H732 0.930 . S
C728 C729 1.333 . S
C728 N730 1.317 . S
C728 H733 0.930 . S
C729 C728 1.333 . S
C729 N731 1.350 . S
C729 H755 0.931 . S
N730 Co726 2.148 . S
N730 C727 1.301 . S
N730 C728 1.317 . S
N731 C727 1.328 . S
N731 C729 1.350 . S
H732 C727 0.930 . S
H733 C728 0.930 . S
C734 O735 1.224 . S
C734 O753 1.247 . S
O735 C734 1.224 . S
N736 Co726 2.128 . S
N736 C737 1.355 . S
N736 C739 1.311 . S
C737 N736 1.355 . S
C737 C738 1.363 . S
C737 H749 0.929 . S
C738 C737 1.363 . S
C738 N740 1.375 . S
C738 H756 0.931 1_565 S
C739 N736 1.311 . S
C739 N740 1.347 . S
C739 H750 0.929 . S
N740 C738 1.375 . S
N740 C739 1.347 . S
C741 C744 1.365 . S
C741 N746 1.328 . S
C741 H747 0.929 . S
C742 C743 1.362 . S
C742 C745 1.378 . S
C742 H757 0.929 . S
C743 C742 1.362 . S
C743 C744 1.366 . S
C744 C741 1.365 . S
C744 C743 1.366 . S
C744 H758 0.930 . S
C745 C742 1.378 . S
C745 N746 1.315 . S
C745 H748 0.930 . S
N746 Co726 2.194 . S
N746 C741 1.328 . S
N746 C745 1.315 . S
H747 C741 0.929 . S
H748 C745 0.930 . S
H749 C737 0.929 . S
H750 C739 0.929 . S
O751 Co726 2.351 . S
O751 C754 1.244 . S
O752 Co726 2.155 . S
O752 C754 1.240 . S
O753 Co726 2.096 . S
O753 C734 1.247 . S
C754 O751 1.244 . S
C754 O752 1.240 . S
H755 C729 0.931 . S
H756 C738 0.931 1_545 S
H757 C742 0.929 . S
H758 C744 0.930 . S
Co759 N763 2.148 . S
Co759 N769 2.128 . S
Co759 N779 2.194 . S
Co759 O784 2.351 . S
Co759 O785 2.155 . S
Co759 O786 2.096 . S
C760 N763 1.301 . S
C760 N764 1.328 . S
C760 H765 0.930 . S
C761 C762 1.333 . S
C761 N763 1.317 . S
C761 H766 0.930 . S
C762 C761 1.333 . S
C762 N764 1.350 . S
C762 H788 0.931 . S
N763 Co759 2.148 . S
N763 C760 1.301 . S
N763 C761 1.317 . S
N764 C760 1.328 . S
N764 C762 1.350 . S
H765 C760 0.930 . S
H766 C761 0.930 . S
C767 O768 1.224 . S
C767 O786 1.247 . S
O768 C767 1.224 . S
N769 Co759 2.128 . S
N769 C770 1.355 . S
N769 C772 1.311 . S
C770 N769 1.355 . S
C770 C771 1.363 . S
C770 H782 0.929 . S
C771 C770 1.363 . S
C771 N773 1.375 . S
C771 H789 0.931 . S
C772 N769 1.311 . S
C772 N773 1.347 . S
C772 H783 0.929 . S
N773 C771 1.375 . S
N773 C772 1.347 . S
C774 C777 1.365 . S
C774 N779 1.328 . S
C774 H780 0.929 . S
C775 C776 1.362 . S
C775 C778 1.378 . S
C775 H790 0.929 . S
C776 C775 1.362 . S
C776 C777 1.366 . S
C777 C774 1.365 . S
C777 C776 1.366 . S
C777 H791 0.930 . S
C778 C775 1.378 . S
C778 N779 1.315 . S
C778 H781 0.930 . S
N779 Co759 2.194 . S
N779 C774 1.328 . S
N779 C778 1.315 . S
H780 C774 0.929 . S
H781 C778 0.930 . S
H782 C770 0.929 . S
H783 C772 0.929 . S
O784 Co759 2.351 . S
O784 C787 1.244 . S
O785 Co759 2.155 . S
O785 C787 1.240 . S
O786 Co759 2.096 . S
O786 C767 1.247 . S
C787 O784 1.244 . S
C787 O785 1.240 . S
H788 C762 0.931 . S
H789 C771 0.931 . S
H790 C775 0.929 . S
H791 C777 0.930 . S
Co792 N796 2.148 . S
Co792 N802 2.128 . S
Co792 N812 2.194 . S
Co792 O817 2.351 . S
Co792 O818 2.155 . S
Co792 O819 2.096 . S
C793 N796 1.301 . S
C793 N797 1.328 . S
C793 H798 0.930 . S
C794 C795 1.333 . S
C794 N796 1.317 . S
C794 H799 0.930 . S
C795 C794 1.333 . S
C795 N797 1.350 . S
C795 H821 0.931 . S
N796 Co792 2.148 . S
N796 C793 1.301 . S
N796 C794 1.317 . S
N797 C793 1.328 . S
N797 C795 1.350 . S
H798 C793 0.930 . S
H799 C794 0.930 . S
C800 O801 1.224 . S
C800 O819 1.247 . S
O801 C800 1.224 . S
N802 Co792 2.128 . S
N802 C803 1.355 . S
N802 C805 1.311 . S
C803 N802 1.355 . S
C803 C804 1.363 . S
C803 H815 0.929 . S
C804 C803 1.363 . S
C804 N806 1.375 . S
C804 H822 0.931 . S
C805 N802 1.311 . S
C805 N806 1.347 . S
C805 H816 0.929 . S
N806 C804 1.375 . S
N806 C805 1.347 . S
C807 C810 1.365 . S
C807 N812 1.328 . S
C807 H813 0.929 . S
C808 C809 1.362 . S
C808 C811 1.378 . S
C808 H823 0.929 . S
C809 C808 1.362 . S
C809 C810 1.366 . S
C810 C807 1.365 . S
C810 C809 1.366 . S
C810 H824 0.930 . S
C811 C808 1.378 . S
C811 N812 1.315 . S
C811 H814 0.930 . S
N812 Co792 2.194 . S
N812 C807 1.328 . S
N812 C811 1.315 . S
H813 C807 0.929 . S
H814 C811 0.930 . S
H815 C803 0.929 . S
H816 C805 0.929 . S
O817 Co792 2.351 . S
O817 C820 1.244 . S
O818 Co792 2.155 . S
O818 C820 1.240 . S
O819 Co792 2.096 . S
O819 C800 1.247 . S
C820 O817 1.244 . S
C820 O818 1.240 . S
H821 C795 0.931 . S
H822 C804 0.931 . S
H823 C808 0.929 . S
H824 C810 0.930 . S
Co825 N829 2.148 . S
Co825 N835 2.128 . S
Co825 N845 2.194 . S
Co825 O850 2.351 . S
Co825 O851 2.155 . S
Co825 O852 2.096 . S
C826 N829 1.301 . S
C826 N830 1.328 . S
C826 H831 0.930 . S
C827 C828 1.333 . S
C827 N829 1.317 . S
C827 H832 0.930 . S
C828 C827 1.333 . S
C828 N830 1.350 . S
C828 H854 0.931 . S
N829 Co825 2.148 . S
N829 C826 1.301 . S
N829 C827 1.317 . S
N830 C826 1.328 . S
N830 C828 1.350 . S
H831 C826 0.930 . S
H832 C827 0.930 . S
C833 O834 1.224 . S
C833 O852 1.247 . S
O834 C833 1.224 . S
N835 Co825 2.128 . S
N835 C836 1.355 . S
N835 C838 1.311 . S
C836 N835 1.355 . S
C836 C837 1.363 . S
C836 H848 0.929 . S
C837 C836 1.363 . S
C837 N839 1.375 . S
C837 H855 0.931 . S
C838 N835 1.311 . S
C838 N839 1.347 . S
C838 H849 0.929 . S
N839 C837 1.375 . S
N839 C838 1.347 . S
C840 C843 1.365 . S
C840 N845 1.328 . S
C840 H846 0.929 . S
C841 C842 1.362 . S
C841 C844 1.378 . S
C841 H856 0.929 . S
C842 C841 1.362 . S
C842 C843 1.366 . S
C843 C840 1.365 . S
C843 C842 1.366 . S
C843 H857 0.930 . S
C844 C841 1.378 . S
C844 N845 1.315 . S
C844 H847 0.930 . S
N845 Co825 2.194 . S
N845 C840 1.328 . S
N845 C844 1.315 . S
H846 C840 0.929 . S
H847 C844 0.930 . S
H848 C836 0.929 . S
H849 C838 0.929 . S
O850 Co825 2.351 . S
O850 C853 1.244 . S
O851 Co825 2.155 . S
O851 C853 1.240 . S
O852 Co825 2.096 . S
O852 C833 1.247 . S
C853 O850 1.244 . S
C853 O851 1.240 . S
H854 C828 0.931 . S
H855 C837 0.931 . S
H856 C841 0.929 . S
H857 C843 0.930 . S
Co858 N862 2.148 . S
Co858 N868 2.128 . S
Co858 N878 2.194 . S
Co858 O883 2.351 1_556 S
Co858 O884 2.155 1_556 S
Co858 O885 2.096 . S
C859 N862 1.301 . S
C859 N863 1.328 . S
C859 H864 0.930 . S
C860 C861 1.333 . S
C860 N862 1.317 . S
C860 H865 0.930 . S
C861 C860 1.333 . S
C861 N863 1.350 . S
C861 H887 0.931 . S
N862 Co858 2.148 . S
N862 C859 1.301 . S
N862 C860 1.317 . S
N863 C859 1.328 . S
N863 C861 1.350 . S
H864 C859 0.930 . S
H865 C860 0.930 . S
C866 O867 1.224 . S
C866 O885 1.247 . S
O867 C866 1.224 . S
N868 Co858 2.128 . S
N868 C869 1.355 . S
N868 C871 1.311 . S
C869 N868 1.355 . S
C869 C870 1.363 . S
C869 H881 0.929 . S
C870 C869 1.363 . S
C870 N872 1.375 . S
C870 H888 0.931 . S
C871 N868 1.311 . S
C871 N872 1.347 . S
C871 H882 0.929 . S
N872 C870 1.375 . S
N872 C871 1.347 . S
C873 C876 1.365 . S
C873 N878 1.328 . S
C873 H879 0.929 . S
C874 C875 1.362 . S
C874 C877 1.378 . S
C874 H889 0.929 . S
C875 C874 1.362 . S
C875 C876 1.366 . S
C876 C873 1.365 . S
C876 C875 1.366 . S
C876 H890 0.930 . S
C877 C874 1.378 . S
C877 N878 1.315 . S
C877 H880 0.930 . S
N878 Co858 2.194 . S
N878 C873 1.328 . S
N878 C877 1.315 . S
H879 C873 0.929 . S
H880 C877 0.930 . S
H881 C869 0.929 . S
H882 C871 0.929 . S
O883 Co858 2.351 1_554 S
O883 C886 1.244 . S
O884 Co858 2.155 1_554 S
O884 C886 1.240 . S
O885 Co858 2.096 . S
O885 C866 1.247 . S
C886 O883 1.244 . S
C886 O884 1.240 . S
H887 C861 0.931 . S
H888 C870 0.931 . S
H889 C874 0.929 . S
H890 C876 0.930 . S
Co891 N895 2.148 . S
Co891 N901 2.128 . S
Co891 N911 2.194 . S
Co891 O916 2.351 1_556 S
Co891 O917 2.155 1_556 S
Co891 O918 2.096 . S
C892 N895 1.301 . S
C892 N896 1.328 . S
C892 H897 0.930 . S
C893 C894 1.333 . S
C893 N895 1.317 . S
C893 H898 0.930 . S
C894 C893 1.333 . S
C894 N896 1.350 . S
C894 H920 0.931 . S
N895 Co891 2.148 . S
N895 C892 1.301 . S
N895 C893 1.317 . S
N896 C892 1.328 . S
N896 C894 1.350 . S
H897 C892 0.930 . S
H898 C893 0.930 . S
C899 O900 1.224 . S
C899 O918 1.247 . S
O900 C899 1.224 . S
N901 Co891 2.128 . S
N901 C902 1.355 . S
N901 C904 1.311 . S
C902 N901 1.355 . S
C902 C903 1.363 . S
C902 H914 0.929 . S
C903 C902 1.363 . S
C903 N905 1.375 . S
C903 H921 0.931 . S
C904 N901 1.311 . S
C904 N905 1.347 . S
C904 H915 0.929 . S
N905 C903 1.375 . S
N905 C904 1.347 . S
C906 C909 1.365 . S
C906 N911 1.328 . S
C906 H912 0.929 . S
C907 C908 1.362 . S
C907 C910 1.378 . S
C907 H922 0.929 . S
C908 C907 1.362 . S
C908 C909 1.366 . S
C909 C906 1.365 . S
C909 C908 1.366 . S
C909 H923 0.930 . S
C910 C907 1.378 . S
C910 N911 1.315 . S
C910 H913 0.930 . S
N911 Co891 2.194 . S
N911 C906 1.328 . S
N911 C910 1.315 . S
H912 C906 0.929 . S
H913 C910 0.930 . S
H914 C902 0.929 . S
H915 C904 0.929 . S
O916 Co891 2.351 1_554 S
O916 C919 1.244 . S
O917 Co891 2.155 1_554 S
O917 C919 1.240 . S
O918 Co891 2.096 . S
O918 C899 1.247 . S
C919 O916 1.244 . S
C919 O917 1.240 . S
H920 C894 0.931 . S
H921 C903 0.931 . S
H922 C907 0.929 . S
H923 C909 0.930 . S
Co924 N928 2.148 . S
Co924 N934 2.128 . S
Co924 N944 2.194 . S
Co924 O949 2.351 . S
Co924 O950 2.155 . S
Co924 O951 2.096 . S
C925 N928 1.301 . S
C925 N929 1.328 . S
C925 H930 0.930 . S
C926 C927 1.333 . S
C926 N928 1.317 . S
C926 H931 0.930 . S
C927 C926 1.333 . S
C927 N929 1.350 . S
C927 H953 0.931 . S
N928 Co924 2.148 . S
N928 C925 1.301 . S
N928 C926 1.317 . S
N929 C925 1.328 . S
N929 C927 1.350 . S
H930 C925 0.930 . S
H931 C926 0.930 . S
C932 O933 1.224 . S
C932 O951 1.247 . S
O933 C932 1.224 . S
N934 Co924 2.128 . S
N934 C935 1.355 . S
N934 C937 1.311 . S
C935 N934 1.355 . S
C935 C936 1.363 . S
C935 H947 0.929 . S
C936 C935 1.363 . S
C936 N938 1.375 . S
C936 H954 0.931 . S
C937 N934 1.311 . S
C937 N938 1.347 . S
C937 H948 0.929 . S
N938 C936 1.375 . S
N938 C937 1.347 . S
C939 C942 1.365 . S
C939 N944 1.328 . S
C939 H945 0.929 . S
C940 C941 1.362 . S
C940 C943 1.378 . S
C940 H955 0.929 . S
C941 C940 1.362 . S
C941 C942 1.366 . S
C942 C939 1.365 . S
C942 C941 1.366 . S
C942 H956 0.930 . S
C943 C940 1.378 . S
C943 N944 1.315 . S
C943 H946 0.930 . S
N944 Co924 2.194 . S
N944 C939 1.328 . S
N944 C943 1.315 . S
H945 C939 0.929 . S
H946 C943 0.930 . S
H947 C935 0.929 . S
H948 C937 0.929 . S
O949 Co924 2.351 . S
O949 C952 1.244 . S
O950 Co924 2.155 . S
O950 C952 1.240 . S
O951 Co924 2.096 . S
O951 C932 1.247 . S
C952 O949 1.244 . S
C952 O950 1.240 . S
H953 C927 0.931 . S
H954 C936 0.931 . S
H955 C940 0.929 . S
H956 C942 0.930 . S
Co957 N961 2.148 . S
Co957 N967 2.128 . S
Co957 N977 2.194 . S
Co957 O982 2.351 . S
Co957 O983 2.155 . S
Co957 O984 2.096 . S
C958 N961 1.301 . S
C958 N962 1.328 . S
C958 H963 0.930 . S
C959 C960 1.333 . S
C959 N961 1.317 . S
C959 H964 0.930 . S
C960 C959 1.333 . S
C960 N962 1.350 . S
C960 H986 0.931 . S
N961 Co957 2.148 . S
N961 C958 1.301 . S
N961 C959 1.317 . S
N962 C958 1.328 . S
N962 C960 1.350 . S
H963 C958 0.930 . S
H964 C959 0.930 . S
C965 O966 1.224 . S
C965 O984 1.247 . S
O966 C965 1.224 . S
N967 Co957 2.128 . S
N967 C968 1.355 . S
N967 C970 1.311 . S
C968 N967 1.355 . S
C968 C969 1.363 . S
C968 H980 0.929 . S
C969 C968 1.363 . S
C969 N971 1.375 . S
C969 H987 0.931 . S
C970 N967 1.311 . S
C970 N971 1.347 . S
C970 H981 0.929 . S
N971 C969 1.375 . S
N971 C970 1.347 . S
C972 C975 1.365 . S
C972 N977 1.328 . S
C972 H978 0.929 . S
C973 C974 1.362 . S
C973 C976 1.378 . S
C973 H988 0.929 . S
C974 C973 1.362 . S
C974 C975 1.366 . S
C975 C972 1.365 . S
C975 C974 1.366 . S
C975 H989 0.930 . S
C976 C973 1.378 . S
C976 N977 1.315 . S
C976 H979 0.930 . S
N977 Co957 2.194 . S
N977 C972 1.328 . S
N977 C976 1.315 . S
H978 C972 0.929 . S
H979 C976 0.930 . S
H980 C968 0.929 . S
H981 C970 0.929 . S
O982 Co957 2.351 . S
O982 C985 1.244 . S
O983 Co957 2.155 . S
O983 C985 1.240 . S
O984 Co957 2.096 . S
O984 C965 1.247 . S
C985 O982 1.244 . S
C985 O983 1.240 . S
H986 C960 0.931 . S
H987 C969 0.931 . S
H988 C973 0.929 . S
H989 C975 0.930 . S
Co990 N994 2.148 . S
Co990 N1000 2.128 . S
Co990 N1010 2.194 . S
Co990 O1015 2.351 1_554 S
Co990 O1016 2.155 1_554 S
Co990 O1017 2.096 . S
C991 N994 1.301 . S
C991 N995 1.328 . S
C991 H996 0.930 . S
C992 C993 1.333 . S
C992 N994 1.317 . S
C992 H997 0.930 . S
C993 C992 1.333 . S
C993 N995 1.350 . S
C993 H1019 0.931 . S
N994 Co990 2.148 . S
N994 C991 1.301 . S
N994 C992 1.317 . S
N995 C991 1.328 . S
N995 C993 1.350 . S
H996 C991 0.930 . S
H997 C992 0.930 . S
C998 O999 1.224 . S
C998 O1017 1.247 . S
O999 C998 1.224 . S
N1000 Co990 2.128 . S
N1000 C1001 1.355 . S
N1000 C1003 1.311 . S
C1001 N1000 1.355 . S
C1001 C1002 1.363 . S
C1001 H1013 0.929 . S
C1002 C1001 1.363 . S
C1002 N1004 1.375 . S
C1002 H1020 0.931 . S
C1003 N1000 1.311 . S
C1003 N1004 1.347 . S
C1003 H1014 0.929 . S
N1004 C1002 1.375 . S
N1004 C1003 1.347 . S
C1005 C1008 1.365 . S
C1005 N1010 1.328 . S
C1005 H1011 0.929 . S
C1006 C1007 1.362 . S
C1006 C1009 1.378 . S
C1006 H1021 0.929 . S
C1007 C1006 1.362 . S
C1007 C1008 1.366 . S
C1008 C1005 1.365 . S
C1008 C1007 1.366 . S
C1008 H1022 0.930 . S
C1009 C1006 1.378 . S
C1009 N1010 1.315 . S
C1009 H1012 0.930 . S
N1010 Co990 2.194 . S
N1010 C1005 1.328 . S
N1010 C1009 1.315 . S
H1011 C1005 0.929 . S
H1012 C1009 0.930 . S
H1013 C1001 0.929 . S
H1014 C1003 0.929 . S
O1015 Co990 2.351 1_556 S
O1015 C1018 1.244 . S
O1016 Co990 2.155 1_556 S
O1016 C1018 1.240 . S
O1017 Co990 2.096 . S
O1017 C998 1.247 . S
C1018 O1015 1.244 . S
C1018 O1016 1.240 . S
H1019 C993 0.931 . S
H1020 C1002 0.931 . S
H1021 C1006 0.929 . S
H1022 C1008 0.930 . S
Co1023 N1027 2.148 . S
Co1023 N1033 2.128 . S
Co1023 N1043 2.194 . S
Co1023 O1048 2.351 1_554 S
Co1023 O1049 2.155 1_554 S
Co1023 O1050 2.096 . S
C1024 N1027 1.301 . S
C1024 N1028 1.328 . S
C1024 H1029 0.930 . S
C1025 C1026 1.333 . S
C1025 N1027 1.317 . S
C1025 H1030 0.930 . S
C1026 C1025 1.333 . S
C1026 N1028 1.350 . S
C1026 H1052 0.931 . S
N1027 Co1023 2.148 . S
N1027 C1024 1.301 . S
N1027 C1025 1.317 . S
N1028 C1024 1.328 . S
N1028 C1026 1.350 . S
H1029 C1024 0.930 . S
H1030 C1025 0.930 . S
C1031 O1032 1.224 . S
C1031 O1050 1.247 . S
O1032 C1031 1.224 . S
N1033 Co1023 2.128 . S
N1033 C1034 1.355 . S
N1033 C1036 1.311 . S
C1034 N1033 1.355 . S
C1034 C1035 1.363 . S
C1034 H1046 0.929 . S
C1035 C1034 1.363 . S
C1035 N1037 1.375 . S
C1035 H1053 0.931 . S
C1036 N1033 1.311 . S
C1036 N1037 1.347 . S
C1036 H1047 0.929 . S
N1037 C1035 1.375 . S
N1037 C1036 1.347 . S
C1038 C1041 1.365 . S
C1038 N1043 1.328 . S
C1038 H1044 0.929 . S
C1039 C1040 1.362 . S
C1039 C1042 1.378 . S
C1039 H1054 0.929 . S
C1040 C1039 1.362 . S
C1040 C1041 1.366 . S
C1041 C1038 1.365 . S
C1041 C1040 1.366 . S
C1041 H1055 0.930 . S
C1042 C1039 1.378 . S
C1042 N1043 1.315 . S
C1042 H1045 0.930 . S
N1043 Co1023 2.194 . S
N1043 C1038 1.328 . S
N1043 C1042 1.315 . S
H1044 C1038 0.929 . S
H1045 C1042 0.930 . S
H1046 C1034 0.929 . S
H1047 C1036 0.929 . S
O1048 Co1023 2.351 1_556 S
O1048 C1051 1.244 . S
O1049 Co1023 2.155 1_556 S
O1049 C1051 1.240 . S
O1050 Co1023 2.096 . S
O1050 C1031 1.247 . S
C1051 O1048 1.244 . S
C1051 O1049 1.240 . S
H1052 C1026 0.931 . S
H1053 C1035 0.931 . S
H1054 C1039 0.929 . S
H1055 C1041 0.930 . S
C127 C28 1.030 . S
C61 C94 1.030 . S
C160 C259 1.030 . S
C193 C226 1.030 . S
C391 C292 1.030 . S
C325 C358 1.030 . S
C523 C424 1.030 . S
C457 C490 1.030 . S
C556 C655 1.030 . S
C622 C589 1.030 . S
C787 C688 1.030 . S
C754 C721 1.030 . S
C919 C820 1.030 . S
C886 C853 1.030 . S
C1051 C952 1.030 . S
C1018 C985 1.030 . S
C635 C8 2.283 . S
C602 C41 2.283 . S
C569 C74 2.283 . S
C536 C107 2.283 . S
C767 C140 2.283 . S
C734 C173 2.283 . S
C206 C701 2.283 . S
C668 C239 2.283 . S
C899 C272 2.283 . S
C866 C305 2.283 . S
C338 C833 2.283 . S
C371 C800 2.283 . S
C1031 C404 2.283 . S
C998 C437 2.283 . S
C470 C965 2.283 . S
C932 C503 2.283 . S
N5 N38 2.503 . S
N71 N104 2.503 . S
N137 N170 2.503 . S
N203 N236 2.503 . S
N269 N302 2.503 . S
N368 N335 2.503 . S
N434 N401 2.503 . S
N467 N500 2.503 . S
N566 N533 2.503 . S
N632 N599 2.503 . S
N665 N698 2.503 . S
N764 N731 2.503 . S
N797 N830 2.503 . S
N896 N863 2.503 . S
N929 N962 2.503 . S
N995 N1028 2.503 . S
N410 N14 1.735 1_455 S
N707 N47 1.735 1_565 S
N80 N212 1.735 1_646 S
N1037 N113 1.735 1_554 S
N278 N146 1.735 1_655 S
N575 N179 1.735 1_545 S
N905 N245 1.735 1_556 S
N311 N971 1.735 . S
N476 N344 1.735 1_455 S
N773 N377 1.735 . S
N443 N839 1.735 . S
N509 N641 1.735 . S
N938 N542 1.735 . S
N608 N740 1.735 1_545 S
N674 N806 1.735 . S
N1004 N872 1.735 1_554 S
C17 C116 1.620 . S
C50 C83 1.620 . S
C248 C149 1.620 . S
C182 C215 1.620 . S
C281 C380 1.620 . S
C347 C314 1.620 . S
C413 C512 1.620 . S
C446 C479 1.620 . S
C545 C644 1.620 . S
C578 C611 1.620 . S
C677 C776 1.620 . S
C710 C743 1.620 . S
C809 C908 1.620 . S
C875 C842 1.620 . S
C941 C1040 1.620 . S
C974 C1007 1.620 . S
