# Generated by pormake.
# Topology uot, (4)-cn, num edge types: 1
# Building blocks:
#     Node 0, Type 0, BuildingBlock: CEKHIL_clean_sbu_0, # of connection points: 4
#     Node 1, Type 0, BuildingBlock: CEKHIL_clean_sbu_0, # of connection points: 4
#     Node 2, Type 0, BuildingBlock: CEKHIL_clean_sbu_0, # of connection points: 4
#     Node 3, Type 0, BuildingBlock: CEKHIL_clean_sbu_0, # of connection points: 4
#     Node 4, Type 0, BuildingBlock: CEKHIL_clean_sbu_0, # of connection points: 4
#     Node 5, Type 0, BuildingBlock: CEKHIL_clean_sbu_0, # of connection points: 4
#     Node 6, Type 0, BuildingBlock: CEKHIL_clean_sbu_0, # of connection points: 4
#     Node 7, Type 0, BuildingBlock: CEKHIL_clean_sbu_0, # of connection points: 4
#     Node 8, Type 0, BuildingBlock: CEKHIL_clean_sbu_0, # of connection points: 4
#     Node 9, Type 0, BuildingBlock: CEKHIL_clean_sbu_0, # of connection points: 4
#     Node 10, Type 0, BuildingBlock: CEKHIL_clean_sbu_0, # of connection points: 4
#     Node 11, Type 0, BuildingBlock: CEKHIL_clean_sbu_0, # of connection points: 4
#     Node 12, Type 0, BuildingBlock: CEKHIL_clean_sbu_0, # of connection points: 4
#     Node 13, Type 0, BuildingBlock: CEKHIL_clean_sbu_0, # of connection points: 4
#     Node 14, Type 0, BuildingBlock: CEKHIL_clean_sbu_0, # of connection points: 4
#     Node 15, Type 0, BuildingBlock: CEKHIL_clean_sbu_0, # of connection points: 4
#     Edge 16, Type (0, 0), BuildingBlock: MIFKUJ_clean_linker_0, # of connection points: 2
#     Edge 17, Type (0, 0), BuildingBlock: MIFKUJ_clean_linker_0, # of connection points: 2
#     Edge 18, Type (0, 0), BuildingBlock: MIFKUJ_clean_linker_0, # of connection points: 2
#     Edge 19, Type (0, 0), BuildingBlock: MIFKUJ_clean_linker_0, # of connection points: 2
#     Edge 20, Type (0, 0), BuildingBlock: MIFKUJ_clean_linker_0, # of connection points: 2
#     Edge 21, Type (0, 0), BuildingBlock: MIFKUJ_clean_linker_0, # of connection points: 2
#     Edge 22, Type (0, 0), BuildingBlock: MIFKUJ_clean_linker_0, # of connection points: 2
#     Edge 23, Type (0, 0), BuildingBlock: MIFKUJ_clean_linker_0, # of connection points: 2
#     Edge 24, Type (0, 0), BuildingBlock: MIFKUJ_clean_linker_0, # of connection points: 2
#     Edge 25, Type (0, 0), BuildingBlock: MIFKUJ_clean_linker_0, # of connection points: 2
#     Edge 26, Type (0, 0), BuildingBlock: MIFKUJ_clean_linker_0, # of connection points: 2
#     Edge 27, Type (0, 0), BuildingBlock: MIFKUJ_clean_linker_0, # of connection points: 2
#     Edge 28, Type (0, 0), BuildingBlock: MIFKUJ_clean_linker_0, # of connection points: 2
#     Edge 29, Type (0, 0), BuildingBlock: MIFKUJ_clean_linker_0, # of connection points: 2
#     Edge 30, Type (0, 0), BuildingBlock: MIFKUJ_clean_linker_0, # of connection points: 2
#     Edge 31, Type (0, 0), BuildingBlock: MIFKUJ_clean_linker_0, # of connection points: 2
#     Edge 32, Type (0, 0), BuildingBlock: MIFKUJ_clean_linker_0, # of connection points: 2
#     Edge 33, Type (0, 0), BuildingBlock: MIFKUJ_clean_linker_0, # of connection points: 2
#     Edge 34, Type (0, 0), BuildingBlock: MIFKUJ_clean_linker_0, # of connection points: 2
#     Edge 35, Type (0, 0), BuildingBlock: MIFKUJ_clean_linker_0, # of connection points: 2
#     Edge 36, Type (0, 0), BuildingBlock: MIFKUJ_clean_linker_0, # of connection points: 2
#     Edge 37, Type (0, 0), BuildingBlock: MIFKUJ_clean_linker_0, # of connection points: 2
#     Edge 38, Type (0, 0), BuildingBlock: MIFKUJ_clean_linker_0, # of connection points: 2
#     Edge 39, Type (0, 0), BuildingBlock: MIFKUJ_clean_linker_0, # of connection points: 2
#     Edge 40, Type (0, 0), BuildingBlock: MIFKUJ_clean_linker_0, # of connection points: 2
#     Edge 41, Type (0, 0), BuildingBlock: MIFKUJ_clean_linker_0, # of connection points: 2
#     Edge 42, Type (0, 0), BuildingBlock: MIFKUJ_clean_linker_0, # of connection points: 2
#     Edge 43, Type (0, 0), BuildingBlock: MIFKUJ_clean_linker_0, # of connection points: 2
#     Edge 44, Type (0, 0), BuildingBlock: MIFKUJ_clean_linker_0, # of connection points: 2
#     Edge 45, Type (0, 0), BuildingBlock: MIFKUJ_clean_linker_0, # of connection points: 2
#     Edge 46, Type (0, 0), BuildingBlock: MIFKUJ_clean_linker_0, # of connection points: 2
#     Edge 47, Type (0, 0), BuildingBlock: MIFKUJ_clean_linker_0, # of connection points: 2
# Relax obj value: 0.066
# Max RMSD: 0.081
# Mean RMSD: 0.081
data_MOF--net-uot--node1-CEKHIL_clean_sbu_0--edge1-MIFKUJ_clean_linker_0
_symmetry_space_group_name_H-M    P1
_symmetry_Int_Tables_number       1
_symmetry_cell_setting            triclinic
loop_
_symmetry_equiv_pos_as_xyz
'x, y, z'
_cell_length_a     57.180791
_cell_length_b     57.174928
_cell_length_c     52.373341
_cell_angle_alpha  89.988425
_cell_angle_beta   90.015501
_cell_angle_gamma 89.982854
loop_
_atom_site_label
_atom_site_type_symbol
_atom_site_fract_x
_atom_site_fract_y
_atom_site_fract_z
_atom_type_partial_charge
Co0 Co 0.20173 0.42295 0.32872 0.0
O1 O 0.22012 0.39647 0.33881 0.0
O2 O 0.2345 0.42888 0.32177 0.0
C3 C 0.17373 0.40254 0.3082 0.0
O4 O 0.18801 0.45342 0.31522 0.0
Co5 Co 0.15075 0.42878 0.34847 0.0
O6 O 0.14899 0.45248 0.32077 0.0
C7 C 0.19058 0.43849 0.38282 0.0
C8 C 0.23826 0.40808 0.33102 0.0
C9 C 0.16736 0.46165 0.31129 0.0
O10 O 0.20492 0.43669 0.36399 0.0
O11 O 0.16868 0.43405 0.38095 0.0
O12 O 0.19319 0.40761 0.29665 0.0
O13 O 0.17277 0.40803 0.33206 0.0
Co14 Co 0.42217 0.80032 0.66905 0.0
O15 O 0.39566 0.78231 0.65852 0.0
O16 O 0.42815 0.76731 0.67471 0.0
C17 C 0.40153 0.82734 0.69085 0.0
O18 O 0.45267 0.81369 0.68299 0.0
Co19 Co 0.42772 0.85213 0.65204 0.0
O20 O 0.45031 0.85295 0.68086 0.0
C21 C 0.43891 0.81379 0.61592 0.0
C22 C 0.40712 0.76395 0.66591 0.0
C23 C 0.46002 0.83428 0.68885 0.0
O24 O 0.43584 0.79845 0.63362 0.0
O25 O 0.435 0.83566 0.61912 0.0
O26 O 0.40691 0.80754 0.70152 0.0
O27 O 0.40704 0.8293 0.66706 0.0
Co28 Co 0.80203 0.57612 0.33476 0.0
O29 O 0.78414 0.60175 0.34801 0.0
O30 O 0.76935 0.57225 0.32586 0.0
C31 C 0.83117 0.5979 0.31814 0.0
O32 O 0.81536 0.54703 0.31736 0.0
Co33 Co 0.85219 0.56658 0.35588 0.0
O34 O 0.85319 0.54276 0.32854 0.0
C35 C 0.81095 0.55246 0.38607 0.0
C36 C 0.76596 0.59194 0.33776 0.0
C37 C 0.83524 0.53647 0.31585 0.0
O38 O 0.79723 0.55831 0.36767 0.0
O39 O 0.83308 0.55586 0.38569 0.0
O40 O 0.81177 0.59517 0.3056 0.0
O41 O 0.83141 0.58946 0.341 0.0
Co42 Co 0.57891 0.20053 0.66843 0.0
O43 O 0.60425 0.22027 0.65785 0.0
O44 O 0.57205 0.23275 0.677 0.0
C45 C 0.60123 0.1727 0.68692 0.0
O46 O 0.54957 0.18539 0.68314 0.0
Co47 Co 0.57364 0.14976 0.64793 0.0
O48 O 0.55181 0.14652 0.67714 0.0
C49 C 0.55874 0.1898 0.61589 0.0
C50 C 0.5924 0.23762 0.66724 0.0
C51 C 0.54234 0.16441 0.68733 0.0
O52 O 0.5634 0.20425 0.63404 0.0
O53 O 0.56275 0.16779 0.6173 0.0
O54 O 0.59604 0.19171 0.69929 0.0
O55 O 0.59463 0.17213 0.66336 0.0
Co56 Co 0.20215 0.57414 0.66812 0.0
O57 O 0.22028 0.59945 0.65435 0.0
O58 O 0.23492 0.56935 0.67565 0.0
C59 C 0.17411 0.59671 0.68581 0.0
O60 O 0.18912 0.5453 0.6861 0.0
Co61 Co 0.15091 0.56472 0.65114 0.0
O62 O 0.14994 0.54551 0.68262 0.0
C63 C 0.19024 0.54966 0.61818 0.0
C64 C 0.23848 0.58911 0.66399 0.0
C65 C 0.16876 0.53759 0.69233 0.0
O66 O 0.20522 0.55634 0.63502 0.0
O67 O 0.16813 0.55251 0.62057 0.0
O68 O 0.19381 0.59339 0.69765 0.0
O69 O 0.17281 0.58801 0.66311 0.0
Co70 Co 0.57566 0.80159 0.32971 0.0
O71 O 0.60197 0.78485 0.34319 0.0
O72 O 0.57142 0.76828 0.32452 0.0
C73 C 0.5969 0.82894 0.30899 0.0
O74 O 0.54575 0.81322 0.31269 0.0
Co75 Co 0.5666 0.85362 0.34395 0.0
O76 O 0.54575 0.85255 0.31369 0.0
C77 C 0.55493 0.8159 0.38077 0.0
C78 C 0.59176 0.7659 0.33537 0.0
C79 C 0.53758 0.83318 0.30563 0.0
O80 O 0.55962 0.8001 0.364 0.0
O81 O 0.55812 0.8378 0.37686 0.0
O82 O 0.5931 0.8087 0.29849 0.0
O83 O 0.58938 0.83124 0.33206 0.0
Co84 Co 0.79796 0.42456 0.67117 0.0
O85 O 0.77974 0.39739 0.66342 0.0
O86 O 0.76548 0.43001 0.6801 0.0
C87 C 0.82736 0.40493 0.69035 0.0
O88 O 0.81173 0.45568 0.68274 0.0
Co89 Co 0.84773 0.43076 0.64817 0.0
O90 O 0.85041 0.45536 0.67477 0.0
C91 C 0.80593 0.43874 0.61602 0.0
C92 C 0.76184 0.40871 0.67229 0.0
C93 C 0.83236 0.46445 0.68506 0.0
O94 O 0.79256 0.43721 0.63572 0.0
O95 O 0.82798 0.43476 0.61677 0.0
O96 O 0.80856 0.41017 0.70308 0.0
O97 O 0.82694 0.41005 0.66638 0.0
Co98 Co 0.42462 0.20158 0.33145 0.0
O99 O 0.39887 0.22026 0.34302 0.0
O100 O 0.4303 0.23425 0.3236 0.0
C101 C 0.40298 0.17343 0.31267 0.0
O102 O 0.45419 0.18732 0.31611 0.0
Co103 Co 0.43108 0.15088 0.35208 0.0
O104 O 0.45351 0.14849 0.3233 0.0
C105 C 0.44262 0.19123 0.3849 0.0
C106 C 0.41004 0.23823 0.33409 0.0
C107 C 0.4622 0.16649 0.31252 0.0
O108 O 0.44035 0.20517 0.36575 0.0
O109 O 0.43774 0.16939 0.38381 0.0
O110 O 0.40722 0.19287 0.30068 0.0
O111 O 0.40988 0.17272 0.33611 0.0
Co112 Co 0.70042 0.92278 0.83267 0.0
O113 O 0.71999 0.89728 0.84313 0.0
O114 O 0.73265 0.92923 0.82356 0.0
C115 C 0.67202 0.90104 0.8145 0.0
O116 O 0.68495 0.95223 0.81848 0.0
Co117 Co 0.65058 0.92739 0.85624 0.0
O118 O 0.64698 0.95205 0.82987 0.0
C119 C 0.692 0.9384 0.88725 0.0
C120 C 0.73739 0.90898 0.83367 0.0
C121 C 0.66411 0.96081 0.81753 0.0
O122 O 0.70486 0.9381 0.8671 0.0
O123 O 0.6705 0.93215 0.88734 0.0
O124 O 0.69102 0.90574 0.8019 0.0
O125 O 0.67208 0.90733 0.83816 0.0
Co126 Co 0.92388 0.30165 0.16489 0.0
O127 O 0.89837 0.28172 0.15556 0.0
O128 O 0.93082 0.26954 0.17443 0.0
C129 C 0.90196 0.32997 0.1829 0.0
O130 O 0.95349 0.31758 0.17801 0.0
Co131 Co 0.92748 0.3512 0.14056 0.0
O132 O 0.95387 0.35507 0.16468 0.0
C133 C 0.94053 0.30968 0.1103 0.0
C134 C 0.91037 0.26451 0.16495 0.0
C135 C 0.96263 0.33818 0.17739 0.0
O136 O 0.93854 0.29668 0.13025 0.0
O137 O 0.93495 0.33138 0.11007 0.0
O138 O 0.90759 0.31143 0.19588 0.0
O139 O 0.90773 0.32969 0.15909 0.0
Co140 Co 0.29993 0.07789 0.83006 0.0
O141 O 0.28062 0.10453 0.83679 0.0
O142 O 0.26783 0.0711 0.82061 0.0
C143 C 0.32917 0.09749 0.81067 0.0
O144 O 0.31512 0.04707 0.81969 0.0
Co145 Co 0.34887 0.07452 0.85586 0.0
O146 O 0.35206 0.04591 0.83475 0.0
C147 C 0.30645 0.06615 0.88627 0.0
C148 C 0.26324 0.09234 0.82806 0.0
C149 C 0.33523 0.03711 0.82198 0.0
O150 O 0.29412 0.06587 0.86572 0.0
O151 O 0.32815 0.07165 0.88659 0.0
O152 O 0.3105 0.09174 0.79798 0.0
O153 O 0.32841 0.0934 0.8349 0.0
Co154 Co 0.07637 0.70034 0.16743 0.0
O155 O 0.10157 0.71821 0.15288 0.0
O156 O 0.07202 0.73314 0.17487 0.0
C157 C 0.09875 0.67203 0.18502 0.0
O158 O 0.04773 0.68772 0.18609 0.0
Co159 Co 0.06619 0.64915 0.1506 0.0
O160 O 0.04653 0.64861 0.18175 0.0
C161 C 0.05147 0.68855 0.11761 0.0
C162 C 0.09147 0.73653 0.16256 0.0
C163 C 0.03933 0.66752 0.19191 0.0
O164 O 0.05794 0.70344 0.13466 0.0
O165 O 0.05463 0.66646 0.11981 0.0
O166 O 0.09605 0.69192 0.19665 0.0
O167 O 0.08978 0.67077 0.16244 0.0
Co168 Co 0.70423 0.07856 0.16987 0.0
O169 O 0.72284 0.10531 0.16129 0.0
O170 O 0.7366 0.07302 0.1792 0.0
C171 C 0.67455 0.09818 0.18849 0.0
O172 O 0.68989 0.04786 0.18204 0.0
Co173 Co 0.65525 0.07304 0.14434 0.0
O174 O 0.65356 0.04435 0.16558 0.0
C175 C 0.69777 0.06567 0.11414 0.0
C176 C 0.74064 0.09387 0.17025 0.0
C177 C 0.67039 0.03685 0.17931 0.0
O178 O 0.70995 0.065 0.13479 0.0
O179 O 0.67617 0.07153 0.11367 0.0
O180 O 0.69353 0.09378 0.20128 0.0
O181 O 0.67529 0.09296 0.16455 0.0
Co182 Co 0.07636 0.29758 0.83064 0.0
O183 O 0.10251 0.27841 0.8397 0.0
O184 O 0.07075 0.26557 0.81997 0.0
C185 C 0.09744 0.32713 0.81388 0.0
O186 O 0.04642 0.31278 0.81741 0.0
Co187 Co 0.07038 0.34627 0.85652 0.0
O188 O 0.04599 0.35044 0.82996 0.0
C189 C 0.06017 0.30335 0.88552 0.0
C190 C 0.09141 0.26111 0.82924 0.0
C191 C 0.03754 0.33351 0.81707 0.0
O192 O 0.06145 0.29123 0.86486 0.0
O193 O 0.06538 0.32511 0.8866 0.0
O194 O 0.09299 0.30864 0.80032 0.0
O195 O 0.0911 0.32609 0.8375 0.0
Co196 Co 0.29888 0.92523 0.16566 0.0
O197 O 0.28094 0.89939 0.15294 0.0
O198 O 0.26609 0.92972 0.17367 0.0
C199 C 0.32751 0.90354 0.1835 0.0
O200 O 0.31219 0.95474 0.18217 0.0
Co201 Co 0.34949 0.93394 0.14588 0.0
O202 O 0.35117 0.95504 0.17589 0.0
C203 C 0.30892 0.94545 0.11318 0.0
C204 C 0.26268 0.90977 0.1623 0.0
C205 C 0.33277 0.963 0.18652 0.0
O206 O 0.29492 0.94195 0.13204 0.0
O207 O 0.33093 0.94137 0.11435 0.0
O208 O 0.30801 0.90693 0.19568 0.0
O209 O 0.32814 0.91146 0.16044 0.0
Co210 Co 0.92557 0.70299 0.82755 0.0
O211 O 0.89939 0.72126 0.83911 0.0
O212 O 0.93107 0.73575 0.82057 0.0
C213 C 0.90446 0.67507 0.80757 0.0
O214 O 0.95566 0.68976 0.81236 0.0
Co215 Co 0.93291 0.6517 0.84587 0.0
O216 O 0.95595 0.65069 0.8176 0.0
C217 C 0.94253 0.6911 0.88093 0.0
C218 C 0.91061 0.73941 0.83064 0.0
C219 C 0.96431 0.66936 0.80795 0.0
O220 O 0.94053 0.7058 0.8624 0.0
O221 O 0.93823 0.66922 0.87852 0.0
O222 O 0.90866 0.69482 0.79619 0.0
O223 O 0.91123 0.67375 0.83103 0.0
H224 H 0.25054 0.36857 0.35623 0.0
H225 H 0.28856 0.34965 0.35761 0.0
H226 H 0.31773 0.40448 0.31085 0.0
H227 H 0.27923 0.42375 0.30932 0.0
H228 H 0.3294 0.35997 0.2938 0.0
H229 H 0.33527 0.40181 0.37109 0.0
H230 H 0.32218 0.41813 0.41224 0.0
H231 H 0.31329 0.34879 0.44217 0.0
H232 H 0.32598 0.33202 0.4011 0.0
H233 H 0.42534 0.27903 0.31159 0.0
H234 H 0.40549 0.31722 0.31196 0.0
H235 H 0.35119 0.28842 0.35973 0.0
H236 H 0.37081 0.25074 0.35966 0.0
H237 H 0.36334 0.33172 0.37536 0.0
H238 H 0.3459 0.29229 0.29372 0.0
H239 H 0.35748 0.27573 0.25208 0.0
H240 H 0.38817 0.34142 0.23068 0.0
H241 H 0.37697 0.35826 0.27233 0.0
C242 C 0.26502 0.37679 0.34636 0.0
C243 C 0.26188 0.39766 0.33264 0.0
C244 C 0.28683 0.36601 0.34732 0.0
C245 C 0.30607 0.37582 0.33464 0.0
C246 C 0.30312 0.39674 0.32094 0.0
C247 C 0.28118 0.40772 0.32012 0.0
C248 C 0.32864 0.36302 0.33479 0.0
C249 C 0.33733 0.35435 0.3116 0.0
C250 C 0.33899 0.3557 0.358 0.0
C251 C 0.33158 0.36565 0.38294 0.0
C252 C 0.33042 0.39003 0.3864 0.0
C253 C 0.32307 0.39936 0.40972 0.0
C254 C 0.31691 0.38451 0.4298 0.0
C255 C 0.31811 0.36028 0.42661 0.0
C256 C 0.32544 0.35084 0.40332 0.0
C257 C 0.40931 0.281 0.32238 0.0
C258 C 0.39954 0.26185 0.33544 0.0
C259 C 0.39798 0.30278 0.32253 0.0
C260 C 0.37678 0.30564 0.33577 0.0
C261 C 0.36756 0.28669 0.34947 0.0
C262 C 0.37875 0.26507 0.34928 0.0
C263 C 0.36302 0.32762 0.33451 0.0
C264 C 0.35604 0.33806 0.35753 0.0
C265 C 0.35427 0.33656 0.31117 0.0
C266 C 0.36089 0.32642 0.2862 0.0
C267 C 0.35527 0.30313 0.28019 0.0
C268 C 0.36173 0.29371 0.25659 0.0
C269 C 0.37363 0.30749 0.23878 0.0
C270 C 0.37901 0.33074 0.24451 0.0
C271 C 0.37262 0.34024 0.2681 0.0
H272 H 0.37861 0.30016 0.22052 0.0
H273 H 0.3112 0.39177 0.44784 0.0
H274 H 0.42587 0.72108 0.67896 0.0
H275 H 0.40488 0.68348 0.68156 0.0
H276 H 0.34179 0.71738 0.65573 0.0
H277 H 0.36235 0.75444 0.65275 0.0
H278 H 0.33799 0.69081 0.70279 0.0
H279 H 0.36886 0.68632 0.6154 0.0
H280 H 0.40111 0.68428 0.58421 0.0
H281 H 0.42733 0.62235 0.62075 0.0
H282 H 0.39537 0.62423 0.65238 0.0
H283 H 0.2492 0.63152 0.64386 0.0
H284 H 0.28593 0.6528 0.64753 0.0
H285 H 0.3173 0.59411 0.68623 0.0
H286 H 0.28017 0.57253 0.68297 0.0
H287 H 0.34524 0.62456 0.64207 0.0
H288 H 0.31001 0.6256 0.72551 0.0
H289 H 0.27675 0.62778 0.75538 0.0
H290 H 0.25928 0.69602 0.72691 0.0
H291 H 0.29223 0.69406 0.69656 0.0
C292 C 0.40759 0.72037 0.6736 0.0
C293 C 0.39574 0.74073 0.66576 0.0
C294 C 0.39568 0.69895 0.67511 0.0
C295 C 0.37179 0.6978 0.66902 0.0
C296 C 0.36019 0.71798 0.66068 0.0
C297 C 0.37203 0.73916 0.65891 0.0
C298 C 0.35807 0.67607 0.67196 0.0
C299 C 0.3398 0.67614 0.6898 0.0
C300 C 0.36084 0.65669 0.65546 0.0
C301 C 0.37996 0.65561 0.63645 0.0
C302 C 0.38165 0.67242 0.61694 0.0
C303 C 0.39984 0.67126 0.59915 0.0
C304 C 0.41632 0.65325 0.60056 0.0
C305 C 0.4146 0.63632 0.61972 0.0
C306 C 0.39645 0.63743 0.63758 0.0
C307 C 0.26394 0.6229 0.65282 0.0
C308 C 0.26171 0.60041 0.66334 0.0
C309 C 0.28494 0.63508 0.65482 0.0
C310 C 0.30419 0.625 0.66719 0.0
C311 C 0.30257 0.60208 0.67654 0.0
C312 C 0.28138 0.58986 0.67473 0.0
C313 C 0.3248 0.63982 0.67233 0.0
C314 C 0.34414 0.63864 0.6559 0.0
C315 C 0.32319 0.65818 0.69028 0.0
C316 C 0.30349 0.6596 0.70865 0.0
C317 C 0.29896 0.64098 0.72547 0.0
C318 C 0.28018 0.64219 0.74251 0.0
C319 C 0.26589 0.66201 0.74301 0.0
C320 C 0.27037 0.68067 0.7265 0.0
C321 C 0.28911 0.67954 0.70939 0.0
H322 H 0.25136 0.66291 0.75622 0.0
H323 H 0.43038 0.65237 0.58676 0.0
H324 H 0.58044 0.7243 0.31197 0.0
H325 H 0.60449 0.68863 0.31065 0.0
H326 H 0.65437 0.72082 0.36146 0.0
H327 H 0.63076 0.7562 0.36275 0.0
H328 H 0.67408 0.70503 0.31687 0.0
H329 H 0.61948 0.67723 0.38155 0.0
H330 H 0.58035 0.66639 0.39741 0.0
H331 H 0.57373 0.6154 0.33766 0.0
H332 H 0.61271 0.62618 0.32123 0.0
H333 H 0.75385 0.62918 0.36688 0.0
H334 H 0.71831 0.65246 0.36424 0.0
H335 H 0.69035 0.60526 0.30777 0.0
H336 H 0.7262 0.5815 0.31039 0.0
H337 H 0.65611 0.6244 0.34596 0.0
H338 H 0.71201 0.64915 0.28382 0.0
H339 H 0.75135 0.6594 0.26813 0.0
H340 H 0.75491 0.71614 0.32169 0.0
H341 H 0.71574 0.70599 0.338 0.0
C342 C 0.59632 0.72354 0.32321 0.0
C343 C 0.60387 0.74312 0.33724 0.0
C344 C 0.61001 0.70318 0.32244 0.0
C345 C 0.63129 0.70219 0.33581 0.0
C346 C 0.63811 0.7213 0.35084 0.0
C347 C 0.62457 0.74152 0.35156 0.0
C348 C 0.64775 0.68237 0.33275 0.0
C349 C 0.67011 0.68742 0.32325 0.0
C350 C 0.64226 0.65917 0.34005 0.0
C351 C 0.61887 0.65273 0.34996 0.0
C352 C 0.60958 0.66388 0.37164 0.0
C353 C 0.58745 0.6577 0.38077 0.0
C354 C 0.57452 0.64028 0.3685 0.0
C355 C 0.58373 0.62893 0.34711 0.0
C356 C 0.60585 0.63506 0.33789 0.0
C357 C 0.74005 0.62346 0.35416 0.0
C358 C 0.74296 0.6037 0.33856 0.0
C359 C 0.71971 0.63677 0.35274 0.0
C360 C 0.70188 0.63071 0.33559 0.0
C361 C 0.70397 0.61016 0.32112 0.0
C362 C 0.72445 0.5967 0.32258 0.0
C363 C 0.6826 0.64751 0.33121 0.0
C364 C 0.65982 0.64191 0.33909 0.0
C365 C 0.68754 0.67029 0.32222 0.0
C366 C 0.71098 0.67671 0.31222 0.0
C367 C 0.72124 0.66372 0.29237 0.0
C368 C 0.74351 0.66952 0.28335 0.0
C369 C 0.75563 0.68839 0.29393 0.0
C370 C 0.74549 0.70153 0.31351 0.0
C371 C 0.72324 0.69578 0.32262 0.0
H372 H 0.77287 0.69285 0.28693 0.0
H373 H 0.5574 0.63552 0.3756 0.0
H374 H 0.63523 0.25092 0.65042 0.0
H375 H 0.65418 0.28872 0.65586 0.0
H376 H 0.59197 0.31624 0.69129 0.0
H377 H 0.5727 0.27798 0.68626 0.0
H378 H 0.62572 0.34454 0.64612 0.0
H379 H 0.61875 0.3154 0.73265 0.0
H380 H 0.61837 0.28403 0.76498 0.0
H381 H 0.68866 0.26517 0.74477 0.0
H382 H 0.6893 0.29621 0.71202 0.0
H383 H 0.71865 0.42847 0.68161 0.0
H384 H 0.68094 0.40776 0.68526 0.0
H385 H 0.71606 0.34217 0.6717 0.0
H386 H 0.75322 0.36244 0.66767 0.0
H387 H 0.6853 0.34257 0.71501 0.0
H388 H 0.68914 0.36585 0.62459 0.0
H389 H 0.69042 0.39542 0.59032 0.0
H390 H 0.62621 0.42531 0.61762 0.0
H391 H 0.62475 0.39606 0.65229 0.0
C392 C 0.62537 0.26502 0.65909 0.0
C393 C 0.60252 0.2614 0.66811 0.0
C394 C 0.63623 0.28663 0.6621 0.0
C395 C 0.62445 0.30513 0.674 0.0
C396 C 0.60125 0.30209 0.682 0.0
C397 C 0.59035 0.28026 0.67918 0.0
C398 C 0.63777 0.3266 0.6798 0.0
C399 C 0.6382 0.3447 0.66173 0.0
C400 C 0.65415 0.32655 0.69998 0.0
C401 C 0.65399 0.30801 0.71978 0.0
C402 C 0.63404 0.30443 0.73496 0.0
C403 C 0.6338 0.28673 0.75338 0.0
C404 C 0.65346 0.27258 0.75689 0.0
C405 C 0.67344 0.27614 0.74202 0.0
C406 C 0.67376 0.2938 0.72355 0.0
C407 C 0.71821 0.40964 0.67939 0.0
C408 C 0.73885 0.39707 0.67431 0.0
C409 C 0.69674 0.39789 0.68148 0.0
C410 C 0.69583 0.37346 0.67889 0.0
C411 C 0.71644 0.36102 0.67393 0.0
C412 C 0.73766 0.37267 0.67149 0.0
C413 C 0.67371 0.36021 0.68095 0.0
C414 C 0.67196 0.34334 0.70029 0.0
C415 C 0.6561 0.36154 0.66203 0.0
C416 C 0.65702 0.37903 0.64121 0.0
C417 C 0.67543 0.37888 0.62343 0.0
C418 C 0.67616 0.39554 0.6039 0.0
C419 C 0.65846 0.4123 0.60185 0.0
C420 C 0.63995 0.41237 0.61928 0.0
C421 C 0.63916 0.39576 0.63886 0.0
H422 H 0.65904 0.42517 0.58672 0.0
H423 H 0.65324 0.25889 0.77117 0.0
H424 H 0.77466 0.91982 0.80278 0.0
H425 H 0.81255 0.89944 0.80098 0.0
H426 H 0.79133 0.85546 0.86376 0.0
H427 H 0.75369 0.87539 0.86544 0.0
H428 H 0.83795 0.86981 0.86741 0.0
H429 H 0.78374 0.8367 0.80496 0.0
H430 H 0.75805 0.83883 0.76719 0.0
H431 H 0.81584 0.86213 0.72143 0.0
H432 H 0.8418 0.86043 0.75909 0.0
H433 H 0.87608 0.75409 0.86233 0.0
H434 H 0.85572 0.79163 0.86176 0.0
H435 H 0.89986 0.81514 0.80012 0.0
H436 H 0.92075 0.77753 0.80094 0.0
H437 H 0.85072 0.81993 0.79115 0.0
H438 H 0.90678 0.8424 0.85249 0.0
H439 H 0.93194 0.83869 0.89048 0.0
H440 H 0.87122 0.8349 0.93851 0.0
H441 H 0.84565 0.83821 0.90076 0.0
C442 C 0.77831 0.90605 0.81641 0.0
C443 C 0.76121 0.89902 0.8341 0.0
C444 C 0.79988 0.89443 0.81534 0.0
C445 C 0.80467 0.8759 0.83219 0.0
C446 C 0.78803 0.86976 0.85066 0.0
C447 C 0.76646 0.88107 0.85148 0.0
C448 C 0.82597 0.86131 0.82957 0.0
C449 C 0.84089 0.859 0.8507 0.0
C450 C 0.83018 0.84774 0.80745 0.0
C451 C 0.8146 0.84878 0.78488 0.0
C452 C 0.7909 0.84249 0.7869 0.0
C453 C 0.77631 0.84357 0.76551 0.0
C454 C 0.78529 0.8507 0.74194 0.0
C455 C 0.8089 0.85668 0.73971 0.0
C456 C 0.82355 0.85567 0.76107 0.0
C457 C 0.88168 0.76736 0.84888 0.0
C458 C 0.89995 0.76291 0.83165 0.0
C459 C 0.87012 0.78883 0.84866 0.0
C460 C 0.87639 0.80619 0.831 0.0
C461 C 0.89488 0.80199 0.81398 0.0
C462 C 0.9068 0.78057 0.81452 0.0
C463 C 0.86216 0.82779 0.82938 0.0
C464 C 0.84844 0.83134 0.80752 0.0
C465 C 0.85904 0.84246 0.85085 0.0
C466 C 0.87428 0.84045 0.87372 0.0
C467 C 0.89877 0.84059 0.87112 0.0
C468 C 0.91311 0.83859 0.89263 0.0
C469 C 0.90318 0.83653 0.91689 0.0
C470 C 0.87888 0.8365 0.9197 0.0
C471 C 0.86445 0.83848 0.89824 0.0
H472 H 0.91432 0.83499 0.93352 0.0
H473 H 0.77397 0.85151 0.7254 0.0
H474 H 0.75393 0.13294 0.14491 0.0
H475 H 0.79205 0.15171 0.14475 0.0
H476 H 0.81918 0.09808 0.19455 0.0
H477 H 0.78059 0.07888 0.19475 0.0
H478 H 0.83021 0.14427 0.21018 0.0
H479 H 0.8392 0.09782 0.13634 0.0
H480 H 0.8276 0.07914 0.09586 0.0
H481 H 0.81998 0.14661 0.06082 0.0
H482 H 0.83118 0.16573 0.10118 0.0
H483 H 0.926 0.22545 0.1908 0.0
H484 H 0.907 0.18681 0.19238 0.0
H485 H 0.8537 0.21148 0.14061 0.0
H486 H 0.87242 0.24954 0.13884 0.0
H487 H 0.86754 0.16754 0.12853 0.0
H488 H 0.84606 0.21173 0.20609 0.0
H489 H 0.85574 0.23105 0.24688 0.0
H490 H 0.88659 0.1674 0.27454 0.0
H491 H 0.87728 0.1478 0.23377 0.0
C492 C 0.76797 0.12497 0.15576 0.0
C493 C 0.76425 0.10442 0.16986 0.0
C494 C 0.78983 0.13567 0.15551 0.0
C495 C 0.80853 0.12613 0.16936 0.0
C496 C 0.80498 0.10561 0.18359 0.0
C497 C 0.783 0.09467 0.18364 0.0
C498 C 0.8312 0.13871 0.16951 0.0
C499 C 0.83891 0.14879 0.19244 0.0
C500 C 0.84253 0.14458 0.14638 0.0
C501 C 0.83604 0.13321 0.12186 0.0
C502 C 0.83495 0.10869 0.12005 0.0
C503 C 0.82845 0.09802 0.0971 0.0
C504 C 0.82306 0.11168 0.07578 0.0
C505 C 0.8242 0.13605 0.07734 0.0
C506 C 0.83068 0.14681 0.10024 0.0
C507 C 0.91039 0.22244 0.17956 0.0
C508 C 0.90059 0.24057 0.16486 0.0
C509 C 0.89955 0.20042 0.18051 0.0
C510 C 0.87887 0.1963 0.16668 0.0
C511 C 0.86968 0.21419 0.15135 0.0
C512 C 0.88035 0.23604 0.1505 0.0
C513 C 0.86549 0.17415 0.16893 0.0
C514 C 0.85955 0.16225 0.14641 0.0
C515 C 0.85578 0.16664 0.1924 0.0
C516 C 0.86126 0.17842 0.21684 0.0
C517 C 0.85505 0.20192 0.22083 0.0
C518 C 0.86045 0.21291 0.24394 0.0
C519 C 0.87185 0.20048 0.26326 0.0
C520 C 0.87782 0.17702 0.25954 0.0
C521 C 0.87249 0.16597 0.23645 0.0
H522 H 0.87601 0.20901 0.28114 0.0
H523 H 0.81801 0.10339 0.05804 0.0
H524 H 0.07314 0.22002 0.80997 0.0
H525 H 0.09415 0.18274 0.80381 0.0
H526 H 0.1562 0.21335 0.83652 0.0
H527 H 0.13562 0.25001 0.84304 0.0
H528 H 0.1609 0.19132 0.78573 0.0
H529 H 0.12829 0.17968 0.87213 0.0
H530 H 0.09514 0.17468 0.90176 0.0
H531 H 0.07093 0.11581 0.85824 0.0
H532 H 0.10382 0.1207 0.82815 0.0
H533 H 0.25029 0.13544 0.84404 0.0
H534 H 0.21298 0.15493 0.83781 0.0
H535 H 0.1852 0.09325 0.80147 0.0
H536 H 0.22305 0.07329 0.80756 0.0
H537 H 0.1543 0.12137 0.8414 0.0
H538 H 0.19387 0.12772 0.76146 0.0
H539 H 0.22828 0.13293 0.73367 0.0
H540 H 0.23919 0.20167 0.76442 0.0
H541 H 0.20507 0.19674 0.7927 0.0
C542 C 0.0912 0.21864 0.81604 0.0
C543 C 0.10276 0.23798 0.82688 0.0
C544 C 0.10312 0.19741 0.8125 0.0
C545 C 0.12673 0.19548 0.81956 0.0
C546 C 0.13802 0.2146 0.83082 0.0
C547 C 0.12617 0.23554 0.83458 0.0
C548 C 0.14056 0.1741 0.81475 0.0
C549 C 0.15923 0.17579 0.79751 0.0
C550 C 0.13793 0.15364 0.82961 0.0
C551 C 0.11827 0.15077 0.84771 0.0
C552 C 0.11575 0.16584 0.86873 0.0
C553 C 0.09705 0.16299 0.88564 0.0
C554 C 0.08088 0.145 0.88182 0.0
C555 C 0.08343 0.12978 0.86113 0.0
C556 C 0.10209 0.13258 0.84415 0.0
C557 C 0.23628 0.12581 0.83491 0.0
C558 C 0.23971 0.10288 0.82606 0.0
C559 C 0.21493 0.137 0.83143 0.0
C560 C 0.19648 0.12556 0.81905 0.0
C561 C 0.19932 0.1023 0.81109 0.0
C562 C 0.22091 0.091 0.81451 0.0
C563 C 0.17517 0.13917 0.81321 0.0
C564 C 0.15528 0.13623 0.82856 0.0
C565 C 0.17657 0.15853 0.7965 0.0
C566 C 0.1969 0.16182 0.77923 0.0
C567 C 0.20367 0.1439 0.76239 0.0
C568 C 0.22313 0.14681 0.74655 0.0
C569 C 0.23592 0.16762 0.74729 0.0
C570 C 0.22925 0.18558 0.76385 0.0
C571 C 0.20982 0.18275 0.77975 0.0
H572 H 0.25098 0.16983 0.73502 0.0
H573 H 0.06642 0.14281 0.89494 0.0
H574 H 0.22265 0.92091 0.1887 0.0
H575 H 0.18539 0.89945 0.18822 0.0
H576 H 0.21328 0.85224 0.13164 0.0
H577 H 0.25022 0.87341 0.13201 0.0
H578 H 0.16765 0.86405 0.12155 0.0
H579 H 0.21507 0.83843 0.19419 0.0
H580 H 0.23605 0.84481 0.23476 0.0
H581 H 0.17284 0.87002 0.26943 0.0
H582 H 0.15156 0.86405 0.22891 0.0
H583 H 0.12749 0.74948 0.13177 0.0
H584 H 0.14795 0.78688 0.13106 0.0
H585 H 0.10104 0.81384 0.18845 0.0
H586 H 0.08031 0.77624 0.18921 0.0
H587 H 0.14721 0.82087 0.20064 0.0
H588 H 0.09801 0.83668 0.13039 0.0
H589 H 0.0772 0.82918 0.09 0.0
H590 H 0.14275 0.82244 0.05071 0.0
H591 H 0.16399 0.82953 0.09094 0.0
C592 C 0.22066 0.90615 0.17593 0.0
C593 C 0.23939 0.89869 0.16056 0.0
C594 C 0.19942 0.8939 0.1757 0.0
C595 C 0.19665 0.87417 0.15999 0.0
C596 C 0.21501 0.86744 0.14385 0.0
C597 C 0.23618 0.87949 0.14421 0.0
C598 C 0.17552 0.8592 0.16139 0.0
C599 C 0.16306 0.85466 0.13884 0.0
C600 C 0.16905 0.84756 0.18417 0.0
C601 C 0.18183 0.85111 0.20847 0.0
C602 C 0.20571 0.84552 0.21041 0.0
C603 C 0.21764 0.84902 0.23339 0.0
C604 C 0.2058 0.8579 0.25463 0.0
C605 C 0.18199 0.86321 0.25294 0.0
C606 C 0.16999 0.85978 0.22998 0.0
C607 C 0.12131 0.76344 0.14402 0.0
C608 C 0.10234 0.75991 0.16059 0.0
C609 C 0.13294 0.78487 0.14348 0.0
C610 C 0.12589 0.80322 0.15954 0.0
C611 C 0.10667 0.79993 0.17582 0.0
C612 C 0.09483 0.77849 0.17618 0.0
C613 C 0.13998 0.82497 0.1605 0.0
C614 C 0.15116 0.83077 0.1835 0.0
C615 C 0.14526 0.83777 0.13811 0.0
C616 C 0.13261 0.83355 0.11376 0.0
C617 C 0.10801 0.83344 0.11318 0.0
C618 C 0.09613 0.82928 0.0903 0.0
C619 C 0.10864 0.82532 0.06781 0.0
C620 C 0.13307 0.82553 0.06815 0.0
C621 C 0.14505 0.82966 0.09099 0.0
H622 H 0.09941 0.8221 0.05011 0.0
H623 H 0.21507 0.86059 0.27241 0.0
H624 H 0.19729 0.49885 0.3085 0.0
H625 H 0.19068 0.53609 0.28612 0.0
H626 H 0.12504 0.50997 0.25732 0.0
H627 H 0.13128 0.47306 0.28012 0.0
H628 H 0.15851 0.53507 0.22041 0.0
H629 H 0.11913 0.54122 0.30396 0.0
H630 H 0.12039 0.53935 0.351 0.0
H631 H 0.17374 0.59218 0.35221 0.0
H632 H 0.17299 0.59413 0.30511 0.0
H633 H 0.09054 0.62623 0.17439 0.0
H634 H 0.10661 0.59209 0.19563 0.0
H635 H 0.14798 0.63678 0.24441 0.0
H636 H 0.13026 0.67128 0.22432 0.0
H637 H 0.13402 0.60386 0.27164 0.0
H638 H 0.17157 0.60347 0.19132 0.0
H639 H 0.17566 0.60555 0.14451 0.0
H640 H 0.13408 0.54347 0.13643 0.0
H641 H 0.12945 0.54118 0.18318 0.0
C642 C 0.18159 0.50102 0.29716 0.0
C643 C 0.16467 0.48321 0.2961 0.0
C644 C 0.17783 0.52224 0.28448 0.0
C645 C 0.15736 0.52568 0.27018 0.0
C646 C 0.14093 0.50758 0.26828 0.0
C647 C 0.14443 0.48661 0.28137 0.0
C648 C 0.15234 0.5485 0.25812 0.0
C649 C 0.15304 0.55015 0.23147 0.0
C650 C 0.14629 0.56833 0.27276 0.0
C651 C 0.14617 0.56765 0.30105 0.0
C652 C 0.13122 0.55233 0.31426 0.0
C653 C 0.13183 0.55128 0.34093 0.0
C654 C 0.14719 0.56558 0.35459 0.0
C655 C 0.16187 0.58108 0.34161 0.0
C656 C 0.16134 0.58219 0.31494 0.0
C657 C 0.10303 0.62885 0.18964 0.0
C658 C 0.1092 0.65144 0.19765 0.0
C659 C 0.11246 0.60923 0.20165 0.0
C660 C 0.12913 0.61168 0.22119 0.0
C661 C 0.13528 0.63432 0.2293 0.0
C662 C 0.12522 0.65403 0.21778 0.0
C663 C 0.13942 0.59052 0.2335 0.0
C664 C 0.13979 0.58908 0.26031 0.0
C665 C 0.14721 0.57106 0.21895 0.0
C666 C 0.15005 0.57225 0.19078 0.0
C667 C 0.16318 0.59033 0.17956 0.0
C668 C 0.16561 0.59154 0.15303 0.0
C669 C 0.15511 0.57468 0.13751 0.0
C670 C 0.1422 0.55653 0.14849 0.0
C671 C 0.1397 0.55524 0.175 0.0
H672 H 0.157 0.57565 0.11698 0.0
H673 H 0.14769 0.56469 0.37523 0.0
H674 H 0.46577 0.85964 0.73194 0.0
H675 H 0.50254 0.86779 0.75432 0.0
H676 H 0.53954 0.82398 0.70071 0.0
H677 H 0.50246 0.8147 0.67938 0.0
H678 H 0.55879 0.81917 0.74456 0.0
H679 H 0.53575 0.8849 0.69533 0.0
H680 H 0.51059 0.91675 0.67952 0.0
H681 H 0.51023 0.94807 0.754 0.0
H682 H 0.5348 0.91601 0.77051 0.0
H683 H 0.66881 0.88004 0.76774 0.0
H684 H 0.63327 0.86548 0.74669 0.0
H685 H 0.59221 0.88666 0.81172 0.0
H686 H 0.62754 0.90059 0.83312 0.0
H687 H 0.57693 0.90286 0.75991 0.0
H688 H 0.59968 0.83362 0.80787 0.0
H689 H 0.62747 0.80263 0.82025 0.0
H690 H 0.63187 0.77994 0.74224 0.0
H691 H 0.60436 0.81105 0.72935 0.0
C692 C 0.48178 0.85157 0.72526 0.0
C693 C 0.48151 0.83675 0.70396 0.0
C694 C 0.50275 0.85634 0.73786 0.0
C695 C 0.52395 0.84715 0.72869 0.0
C696 C 0.52348 0.83143 0.70805 0.0
C697 C 0.50234 0.82612 0.69588 0.0
C698 C 0.54658 0.85465 0.74006 0.0
C699 C 0.5628 0.8375 0.7476 0.0
C700 C 0.55198 0.8786 0.74406 0.0
C701 C 0.53693 0.89784 0.73424 0.0
C702 C 0.5301 0.89841 0.70844 0.0
C703 C 0.51594 0.91653 0.69934 0.0
C704 C 0.50879 0.9344 0.71575 0.0
C705 C 0.5158 0.93422 0.7413 0.0
C706 C 0.52977 0.91602 0.75057 0.0
C707 C 0.65222 0.88143 0.77759 0.0
C708 C 0.65092 0.8915 0.80203 0.0
C709 C 0.632 0.87309 0.76559 0.0
C710 C 0.61022 0.87504 0.77772 0.0
C711 C 0.60891 0.88503 0.80211 0.0
C712 C 0.62911 0.89295 0.81429 0.0
C713 C 0.58859 0.86741 0.76475 0.0
C714 C 0.57272 0.88457 0.75679 0.0
C715 C 0.58379 0.84361 0.75983 0.0
C716 C 0.60017 0.82482 0.76761 0.0
C717 C 0.60675 0.82217 0.79333 0.0
C718 C 0.62241 0.80455 0.80044 0.0
C719 C 0.63149 0.78937 0.78203 0.0
C720 C 0.62486 0.79174 0.75648 0.0
C721 C 0.60922 0.80934 0.74926 0.0
H722 H 0.64361 0.77574 0.78758 0.0
H723 H 0.49782 0.94841 0.70867 0.0
H724 H 0.87833 0.36516 0.15921 0.0
H725 H 0.86084 0.39981 0.17885 0.0
H726 H 0.88451 0.37644 0.25289 0.0
H727 H 0.90088 0.34119 0.23344 0.0
H728 H 0.84385 0.39389 0.25829 0.0
H729 H 0.91356 0.4198 0.21562 0.0
H730 H 0.94032 0.42512 0.17915 0.0
H731 H 0.88758 0.46422 0.13929 0.0
H732 H 0.86039 0.45885 0.17541 0.0
H733 H 0.86467 0.50005 0.32369 0.0
H734 H 0.86927 0.46488 0.29791 0.0
H735 H 0.81606 0.48938 0.24607 0.0
H736 H 0.81085 0.52478 0.27236 0.0
H737 H 0.86519 0.47252 0.22566 0.0
H738 H 0.79791 0.4496 0.27539 0.0
H739 H 0.7756 0.4451 0.31539 0.0
H740 H 0.82965 0.4011 0.34594 0.0
H741 H 0.85247 0.40564 0.30629 0.0
C742 C 0.87967 0.36741 0.1797 0.0
C743 C 0.89103 0.3506 0.19483 0.0
C744 C 0.86977 0.38726 0.19089 0.0
C745 C 0.87169 0.39102 0.21733 0.0
C746 C 0.88274 0.37397 0.23247 0.0
C747 C 0.89218 0.35387 0.22135 0.0
C748 C 0.86271 0.41285 0.22926 0.0
C749 C 0.8486 0.41104 0.25112 0.0
C750 C 0.86851 0.43535 0.21975 0.0
C751 C 0.88485 0.43868 0.19807 0.0
C752 C 0.90762 0.42939 0.19899 0.0
C753 C 0.92287 0.43243 0.1784 0.0
C754 C 0.91563 0.44494 0.15688 0.0
C755 C 0.89314 0.45449 0.15595 0.0
C756 C 0.87781 0.45146 0.17647 0.0
C757 C 0.8539 0.49804 0.30682 0.0
C758 C 0.83746 0.51523 0.29995 0.0
C759 C 0.8565 0.47788 0.29219 0.0
C760 C 0.84297 0.4746 0.27021 0.0
C761 C 0.82659 0.49169 0.26307 0.0
C762 C 0.82361 0.51179 0.27808 0.0
C763 C 0.84675 0.45337 0.25469 0.0
C764 C 0.86002 0.4553 0.23232 0.0
C765 C 0.84075 0.43101 0.26411 0.0
C766 C 0.82697 0.4281 0.28791 0.0
C767 C 0.80513 0.43913 0.29072 0.0
C768 C 0.79238 0.43654 0.31331 0.0
C769 C 0.80122 0.42285 0.3332 0.0
C770 C 0.82282 0.4117 0.33052 0.0
C771 C 0.83566 0.41425 0.30797 0.0
H772 H 0.79133 0.42084 0.35066 0.0
H773 H 0.92746 0.44728 0.14096 0.0
H774 H 0.52962 0.12485 0.71261 0.0
H775 H 0.49268 0.11697 0.73424 0.0
H776 H 0.4699 0.18753 0.71884 0.0
H777 H 0.50719 0.19566 0.69751 0.0
H778 H 0.45577 0.17389 0.76529 0.0
H779 H 0.45185 0.14313 0.68073 0.0
H780 H 0.46541 0.12041 0.64355 0.0
H781 H 0.46202 0.05715 0.6876 0.0
H782 H 0.44874 0.07955 0.72516 0.0
H783 H 0.3346 0.10877 0.76039 0.0
H784 H 0.36964 0.12421 0.73955 0.0
H785 H 0.40632 0.12267 0.81156 0.0
H786 H 0.37123 0.10772 0.83257 0.0
H787 H 0.41095 0.10553 0.73337 0.0
H788 H 0.4466 0.16605 0.81383 0.0
H789 H 0.4312 0.19129 0.84813 0.0
H790 H 0.36685 0.19975 0.80687 0.0
H791 H 0.38198 0.17486 0.77217 0.0
C792 C 0.51682 0.13873 0.71395 0.0
C793 C 0.52115 0.16074 0.703 0.0
C794 C 0.4957 0.13421 0.72631 0.0
C795 C 0.47832 0.1515 0.72762 0.0
C796 C 0.48304 0.1739 0.7179 0.0
C797 C 0.50433 0.17851 0.70572 0.0
C798 C 0.45491 0.1457 0.73804 0.0
C799 C 0.44594 0.15897 0.75833 0.0
C800 C 0.44177 0.12664 0.72845 0.0
C801 C 0.44946 0.11305 0.70581 0.0
C802 C 0.45412 0.12439 0.68253 0.0
C803 C 0.46174 0.11157 0.66138 0.0
C804 C 0.46462 0.08736 0.66322 0.0
C805 C 0.4598 0.07591 0.6862 0.0
C806 C 0.4522 0.08865 0.70742 0.0
C807 C 0.3501 0.11186 0.7718 0.0
C808 C 0.35019 0.10707 0.79811 0.0
C809 C 0.37011 0.12065 0.75987 0.0
C810 C 0.39054 0.12483 0.77403 0.0
C811 C 0.39064 0.12001 0.80032 0.0
C812 C 0.37062 0.11132 0.81228 0.0
C813 C 0.41204 0.13331 0.76115 0.0
C814 C 0.42068 0.12052 0.74033 0.0
C815 C 0.42452 0.15317 0.76986 0.0
C816 C 0.41537 0.1684 0.79051 0.0
C817 C 0.42921 0.17338 0.81203 0.0
C818 C 0.42051 0.18762 0.83155 0.0
C819 C 0.39803 0.19706 0.82972 0.0
C820 C 0.38423 0.19236 0.80832 0.0
C821 C 0.39284 0.17816 0.78873 0.0
H822 H 0.39133 0.20806 0.84486 0.0
H823 H 0.47054 0.07747 0.64684 0.0
H824 H 0.19865 0.50054 0.69603 0.0
H825 H 0.19195 0.46391 0.71942 0.0
H826 H 0.12811 0.49216 0.75052 0.0
H827 H 0.13427 0.52846 0.72659 0.0
H828 H 0.16307 0.46332 0.7857 0.0
H829 H 0.11692 0.46374 0.70549 0.0
H830 H 0.11468 0.46802 0.65867 0.0
H831 H 0.16593 0.41375 0.64947 0.0
H832 H 0.16868 0.40941 0.69629 0.0
H833 H 0.09229 0.37211 0.8298 0.0
H834 H 0.10927 0.40717 0.81093 0.0
H835 H 0.14513 0.36464 0.75512 0.0
H836 H 0.12665 0.32963 0.77294 0.0
H837 H 0.13063 0.3995 0.7321 0.0
H838 H 0.17345 0.39273 0.80904 0.0
H839 H 0.18036 0.38754 0.85516 0.0
H840 H 0.14321 0.45123 0.87076 0.0
H841 H 0.13579 0.45665 0.82475 0.0
C842 C 0.18346 0.49909 0.70829 0.0
C843 C 0.1669 0.51723 0.70947 0.0
C844 C 0.17966 0.4782 0.72156 0.0
C845 C 0.15956 0.47546 0.7366 0.0
C846 C 0.14376 0.49407 0.73905 0.0
C847 C 0.14725 0.5147 0.72533 0.0
C848 C 0.15365 0.45253 0.74777 0.0
C849 C 0.15588 0.4493 0.77415 0.0
C850 C 0.14521 0.4341 0.73241 0.0
C851 C 0.1432 0.43645 0.70433 0.0
C852 C 0.12784 0.45287 0.69347 0.0
C853 C 0.12645 0.45527 0.66695 0.0
C854 C 0.1402 0.44122 0.65111 0.0
C855 C 0.15531 0.42465 0.66176 0.0
C856 C 0.15678 0.4222 0.68828 0.0
C857 C 0.10382 0.37026 0.81353 0.0
C858 C 0.10822 0.34821 0.80283 0.0
C859 C 0.11375 0.39031 0.80288 0.0
C860 C 0.12904 0.38863 0.78194 0.0
C861 C 0.13348 0.36649 0.7713 0.0
C862 C 0.12296 0.34648 0.78149 0.0
C863 C 0.13949 0.41007 0.77051 0.0
C864 C 0.13812 0.41315 0.74393 0.0
C865 C 0.14941 0.42809 0.7857 0.0
C866 C 0.15392 0.425 0.81342 0.0
C867 C 0.16663 0.40556 0.82231 0.0
C868 C 0.17065 0.40258 0.84844 0.0
C869 C 0.16219 0.41902 0.86588 0.0
C870 C 0.14974 0.4385 0.85722 0.0
C871 C 0.14565 0.44155 0.83111 0.0
H872 H 0.16532 0.41668 0.8861 0.0
H873 H 0.13912 0.44311 0.63058 0.0
H874 H 0.37305 0.90869 0.16983 0.0
H875 H 0.40725 0.89095 0.1895 0.0
H876 H 0.36276 0.85451 0.24295 0.0
H877 H 0.32842 0.87367 0.22422 0.0
H878 H 0.39784 0.86834 0.26728 0.0
H879 H 0.39136 0.82656 0.18975 0.0
H880 H 0.38647 0.82033 0.14348 0.0
H881 H 0.45073 0.85687 0.12909 0.0
H882 H 0.45585 0.86361 0.17525 0.0
H883 H 0.49985 0.80395 0.30645 0.0
H884 H 0.46261 0.80942 0.28374 0.0
H885 H 0.4911 0.86973 0.2453 0.0
H886 H 0.52802 0.86466 0.26838 0.0
H887 H 0.46202 0.83625 0.21395 0.0
H888 H 0.46284 0.88147 0.29393 0.0
H889 H 0.46688 0.88419 0.34073 0.0
H890 H 0.41103 0.83476 0.35028 0.0
H891 H 0.40692 0.83151 0.30348 0.0
C892 C 0.37053 0.89691 0.18577 0.0
C893 C 0.34808 0.8925 0.19547 0.0
C894 C 0.39012 0.88653 0.19687 0.0
C895 C 0.38765 0.87079 0.2173 0.0
C896 C 0.36517 0.86645 0.22712 0.0
C897 C 0.34556 0.87738 0.21642 0.0
C898 C 0.4087 0.85974 0.22893 0.0
C899 C 0.41157 0.86086 0.25555 0.0
C900 C 0.42679 0.84986 0.21382 0.0
C901 C 0.42391 0.84571 0.18599 0.0
C902 C 0.40439 0.83338 0.17672 0.0
C903 C 0.40158 0.82975 0.1505 0.0
C904 C 0.41826 0.83823 0.13335 0.0
C905 C 0.43782 0.85031 0.14239 0.0
C906 C 0.4407 0.85401 0.16859 0.0
C907 C 0.49826 0.81806 0.29276 0.0
C908 C 0.51665 0.83403 0.28923 0.0
C909 C 0.47703 0.82119 0.27989 0.0
C910 C 0.47418 0.84002 0.26298 0.0
C911 C 0.49303 0.85509 0.25827 0.0
C912 C 0.51401 0.85227 0.27152 0.0
C913 C 0.45106 0.84547 0.25188 0.0
C914 C 0.44792 0.84331 0.22547 0.0
C915 C 0.43249 0.85379 0.26718 0.0
C916 C 0.43477 0.85604 0.29526 0.0
C917 C 0.45156 0.87104 0.30601 0.0
C918 C 0.45384 0.87271 0.33253 0.0
C919 C 0.43927 0.8596 0.34847 0.0
C920 C 0.42233 0.84487 0.33792 0.0
C921 C 0.42002 0.84312 0.31141 0.0
H922 H 0.44106 0.86091 0.36899 0.0
H923 H 0.41605 0.83541 0.11306 0.0
H924 H 0.80132 0.50064 0.68972 0.0
H925 H 0.80807 0.5385 0.7108 0.0
H926 H 0.87668 0.51549 0.73392 0.0
H927 H 0.8704 0.47804 0.71234 0.0
H928 H 0.84183 0.53989 0.77336 0.0
H929 H 0.88076 0.54552 0.68849 0.0
H930 H 0.878 0.54294 0.64155 0.0
H931 H 0.82307 0.59418 0.64163 0.0
H932 H 0.82535 0.59683 0.68864 0.0
H933 H 0.91226 0.62913 0.8174 0.0
H934 H 0.89529 0.59544 0.79617 0.0
H935 H 0.85481 0.64124 0.74768 0.0
H936 H 0.87348 0.67527 0.76776 0.0
H937 H 0.86675 0.60753 0.72054 0.0
H938 H 0.8306 0.60925 0.80126 0.0
H939 H 0.827 0.61221 0.84806 0.0
H940 H 0.86682 0.54905 0.85694 0.0
H941 H 0.87095 0.54587 0.8102 0.0
C942 C 0.81774 0.50363 0.69952 0.0
C943 C 0.83539 0.48649 0.69936 0.0
C944 C 0.82156 0.5252 0.71145 0.0
C945 C 0.84286 0.52965 0.72382 0.0
C946 C 0.86014 0.51228 0.72445 0.0
C947 C 0.85656 0.49098 0.71206 0.0
C948 C 0.84777 0.55268 0.73536 0.0
C949 C 0.84736 0.55473 0.76197 0.0
C950 C 0.8538 0.57222 0.72027 0.0
C951 C 0.85308 0.57121 0.69203 0.0
C952 C 0.86802 0.55614 0.67849 0.0
C953 C 0.86655 0.55468 0.65189 0.0
C954 C 0.85031 0.56833 0.63862 0.0
C955 C 0.83562 0.58359 0.65193 0.0
C956 C 0.83701 0.5851 0.67854 0.0
C957 C 0.89983 0.63207 0.80216 0.0
C958 C 0.8941 0.65481 0.79431 0.0
C959 C 0.88987 0.61273 0.79017 0.0
C960 C 0.87307 0.61564 0.77084 0.0
C961 C 0.86755 0.63844 0.76267 0.0
C962 C 0.87818 0.65787 0.77415 0.0
C963 C 0.86184 0.59475 0.75901 0.0
C964 C 0.86092 0.593 0.73223 0.0
C965 C 0.85373 0.57571 0.77402 0.0
C966 C 0.85119 0.57741 0.80219 0.0
C967 C 0.8387 0.59606 0.81319 0.0
C968 C 0.83656 0.59777 0.83971 0.0
C969 C 0.8467 0.58085 0.85546 0.0
C970 C 0.85897 0.56215 0.84471 0.0
C971 C 0.86118 0.56036 0.8182 0.0
H972 H 0.84503 0.58221 0.87599 0.0
H973 H 0.84914 0.56712 0.61803 0.0
H974 H 0.67133 0.12302 0.23278 0.0
H975 H 0.6359 0.13863 0.25269 0.0
H976 H 0.59423 0.10867 0.19219 0.0
H977 H 0.6297 0.09435 0.17154 0.0
H978 H 0.57704 0.14809 0.20203 0.0
H979 H 0.60023 0.0837 0.25492 0.0
H980 H 0.62665 0.06025 0.28197 0.0
H981 H 0.63245 0.11731 0.33489 0.0
H982 H 0.60629 0.14121 0.30797 0.0
H983 H 0.4749 0.12714 0.28688 0.0
H984 H 0.5116 0.11979 0.26425 0.0
H985 H 0.53435 0.19007 0.28055 0.0
H986 H 0.49731 0.19785 0.30274 0.0
H987 H 0.56117 0.13351 0.29378 0.0
H988 H 0.53799 0.19812 0.2336 0.0
H989 H 0.50804 0.21623 0.20599 0.0
H990 H 0.49854 0.15099 0.1667 0.0
H991 H 0.52823 0.13247 0.19437 0.0
C992 C 0.65458 0.11984 0.22377 0.0
C993 C 0.65322 0.10742 0.2007 0.0
C994 C 0.63431 0.12865 0.23521 0.0
C995 C 0.61224 0.12451 0.22423 0.0
C996 C 0.61098 0.11219 0.20106 0.0
C997 C 0.63128 0.1039 0.18931 0.0
C998 C 0.59043 0.13282 0.23683 0.0
C999 C 0.57372 0.14486 0.22211 0.0
C1000 C 0.5858 0.12867 0.26306 0.0
C1001 C 0.60152 0.11433 0.27929 0.0
C1002 C 0.60728 0.0913 0.27223 0.0
C1003 C 0.62218 0.07792 0.28756 0.0
C1004 C 0.63128 0.08731 0.3101 0.0
C1005 C 0.62543 0.11008 0.3174 0.0
C1006 C 0.61055 0.12355 0.30213 0.0
C1007 C 0.48755 0.14116 0.28531 0.0
C1008 C 0.48325 0.16308 0.29657 0.0
C1009 C 0.50846 0.13693 0.27239 0.0
C1010 C 0.52551 0.15443 0.27068 0.0
C1011 C 0.5212 0.17647 0.28144 0.0
C1012 C 0.50006 0.18088 0.29405 0.0
C1013 C 0.54835 0.14889 0.25902 0.0
C1014 C 0.56498 0.1371 0.27386 0.0
C1015 C 0.5527 0.15274 0.23288 0.0
C1016 C 0.53507 0.1639 0.21619 0.0
C1017 C 0.52933 0.18762 0.21924 0.0
C1018 C 0.51246 0.19796 0.20355 0.0
C1019 C 0.50134 0.18475 0.18465 0.0
C1020 C 0.50713 0.16119 0.18137 0.0
C1021 C 0.52398 0.15078 0.19703 0.0
H1022 H 0.48829 0.19279 0.17252 0.0
H1023 H 0.64281 0.07692 0.32194 0.0
H1024 H 0.69566 0.98768 0.79066 0.0
H1025 H 0.68769 0.02375 0.76687 0.0
H1026 H 0.6146 0.01851 0.7864 0.0
H1027 H 0.62221 0.98255 0.80968 0.0
H1028 H 0.61914 0.02995 0.73801 0.0
H1029 H 0.65144 0.05584 0.8181 0.0
H1030 H 0.68122 0.0581 0.85209 0.0
H1031 H 0.73109 0.08521 0.79843 0.0
H1032 H 0.70167 0.08282 0.76403 0.0
H1033 H 0.60692 0.1651 0.73812 0.0
H1034 H 0.62017 0.12908 0.75889 0.0
H1035 H 0.63155 0.0975 0.6851 0.0
H1036 H 0.61767 0.13314 0.6643 0.0
H1037 H 0.65917 0.10433 0.7597 0.0
H1038 H 0.61857 0.0404 0.68706 0.0
H1039 H 0.58585 0.03851 0.6564 0.0
H1040 H 0.54733 0.08826 0.70106 0.0
H1041 H 0.57979 0.09044 0.73204 0.0
C1042 C 0.67787 0.99415 0.78977 0.0
C1043 C 0.65961 0.9822 0.8022 0.0
C1044 C 0.67337 0.01483 0.77627 0.0
C1045 C 0.65057 0.02394 0.77505 0.0
C1046 C 0.63232 0.01181 0.78704 0.0
C1047 C 0.63676 0.99123 0.80046 0.0
C1048 C 0.64544 0.04619 0.76153 0.0
C1049 C 0.62801 0.04618 0.74265 0.0
C1050 C 0.65676 0.06744 0.7678 0.0
C1051 C 0.67445 0.0689 0.78845 0.0
C1052 C 0.66882 0.0621 0.81351 0.0
C1053 C 0.68562 0.06344 0.83285 0.0
C1054 C 0.70805 0.07172 0.8274 0.0
C1055 C 0.71372 0.07875 0.80261 0.0
C1056 C 0.69699 0.07742 0.78319 0.0
C1057 C 0.61239 0.15052 0.72635 0.0
C1058 C 0.61106 0.15183 0.69961 0.0
C1059 C 0.62001 0.12996 0.73823 0.0
C1060 C 0.62652 0.11044 0.72357 0.0
C1061 C 0.62616 0.11214 0.69683 0.0
C1062 C 0.6183 0.13256 0.68497 0.0
C1063 C 0.63283 0.08806 0.73623 0.0
C1064 C 0.65048 0.08804 0.75488 0.0
C1065 C 0.62136 0.06683 0.73017 0.0
C1066 C 0.60171 0.06574 0.7117 0.0
C1067 C 0.60311 0.05093 0.69034 0.0
C1068 C 0.58463 0.04985 0.67289 0.0
C1069 C 0.56458 0.06337 0.67672 0.0
C1070 C 0.56295 0.07797 0.69804 0.0
C1071 C 0.5814 0.07916 0.71552 0.0
H1072 H 0.55027 0.06249 0.66322 0.0
H1073 H 0.72103 0.07275 0.84241 0.0
H1074 H 0.16376 0.4059 0.25732 0.0
H1075 H 0.12787 0.39309 0.23566 0.0
H1076 H 0.1015 0.36569 0.30674 0.0
H1077 H 0.13697 0.37905 0.32864 0.0
H1078 H 0.09789 0.33518 0.25866 0.0
H1079 H 0.07973 0.41147 0.2943 0.0
H1080 H 0.08616 0.45363 0.30133 0.0
H1081 H 0.08268 0.46588 0.22054 0.0
H1082 H 0.07662 0.4237 0.21299 0.0
H1083 H 0.97914 0.31685 0.22079 0.0
H1084 H 0.01535 0.32589 0.24388 0.0
H1085 H 0.03273 0.3777 0.18695 0.0
H1086 H 0.99623 0.3696 0.16478 0.0
H1087 H 0.04122 0.39533 0.22976 0.0
H1088 H 0.06004 0.32117 0.19214 0.0
H1089 H 0.05502 0.27927 0.18241 0.0
H1090 H 0.05956 0.26276 0.26225 0.0
H1091 H 0.06431 0.30462 0.27248 0.0
C1092 C 0.15039 0.39696 0.26824 0.0
C1093 C 0.15306 0.39345 0.29462 0.0
C1094 C 0.12994 0.38972 0.2559 0.0
C1095 C 0.11215 0.37848 0.26968 0.0
C1096 C 0.11511 0.37429 0.29584 0.0
C1097 C 0.1353 0.38199 0.30829 0.0
C1098 C 0.09001 0.37194 0.257 0.0
C1099 C 0.0853 0.34823 0.25253 0.0
C1100 C 0.07402 0.38909 0.24855 0.0
C1101 C 0.07798 0.41439 0.25307 0.0
C1102 C 0.08061 0.4231 0.27802 0.0
C1103 C 0.08409 0.44702 0.2821 0.0
C1104 C 0.08478 0.46242 0.2614 0.0
C1105 C 0.0821 0.45393 0.23656 0.0
C1106 C 0.07865 0.43003 0.23237 0.0
C1107 C 0.99077 0.3301 0.21325 0.0
C1108 C 0.98481 0.34259 0.19108 0.0
C1109 C 0.01153 0.33518 0.22635 0.0
C1110 C 0.02699 0.35235 0.21706 0.0
C1111 C 0.02111 0.3645 0.19467 0.0
C1112 C 1.00022 0.35982 0.18196 0.0
C1113 C 0.04895 0.35838 0.23087 0.0
C1114 C 0.05368 0.3821 0.23572 0.0
C1115 C 0.06516 0.34122 0.23918 0.0
C1116 C 0.06227 0.31605 0.23309 0.0
C1117 C 0.05978 0.30862 0.20764 0.0
C1118 C 0.05702 0.28488 0.20203 0.0
C1119 C 0.0569 0.26837 0.22171 0.0
C1120 C 0.05961 0.27557 0.24703 0.0
C1121 C 0.06235 0.2993 0.25274 0.0
H1122 H 0.05477 0.24999 0.21733 0.0
H1123 H 0.08741 0.48093 0.2646 0.0
H1124 H 0.31697 0.02104 0.777 0.0
H1125 H 0.32604 0.98408 0.75553 0.0
H1126 H 0.37065 0.96435 0.81853 0.0
H1127 H 0.36266 0.00173 0.83919 0.0
H1128 H 0.39211 0.95463 0.77834 0.0
H1129 H 0.31401 0.93934 0.80606 0.0
H1130 H 0.27171 0.94631 0.81113 0.0
H1131 H 0.26268 0.9438 0.72978 0.0
H1132 H 0.305 0.93713 0.72419 0.0
H1133 H 0.40247 0.8342 0.74247 0.0
H1134 H 0.38879 0.8688 0.76588 0.0
H1135 H 0.36528 0.89975 0.69531 0.0
H1136 H 0.37934 0.86552 0.67176 0.0
H1137 H 0.3326 0.9024 0.73964 0.0
H1138 H 0.41307 0.91807 0.71437 0.0
H1139 H 0.45514 0.90858 0.71232 0.0
H1140 H 0.45863 0.90736 0.79419 0.0
H1141 H 0.4165 0.91648 0.79674 0.0
C1142 C 0.32857 0.00869 0.78627 0.0
C1143 C 0.3392 0.01424 0.80967 0.0
C1144 C 0.33366 0.9875 0.77408 0.0
C1145 C 0.34886 0.9712 0.7855 0.0
C1146 C 0.35899 0.97661 0.80921 0.0
C1147 C 0.35438 0.99797 0.82104 0.0
C1148 C 0.35517 0.94899 0.77236 0.0
C1149 C 0.37897 0.9431 0.77028 0.0
C1150 C 0.33818 0.93395 0.76142 0.0
C1151 C 0.31272 0.93796 0.7647 0.0
C1152 C 0.30304 0.94045 0.78924 0.0
C1153 C 0.27905 0.94432 0.79221 0.0
C1154 C 0.26453 0.94556 0.77079 0.0
C1155 C 0.27396 0.94287 0.74635 0.0
C1156 C 0.29794 0.93902 0.74327 0.0
C1157 C 0.39419 0.8483 0.73202 0.0
C1158 C 0.39199 0.84726 0.70533 0.0
C1159 C 0.38643 0.86801 0.74537 0.0
C1160 C 0.37606 0.88674 0.73225 0.0
C1161 C 0.37317 0.8854 0.70572 0.0
C1162 C 0.3813 0.86592 0.69233 0.0
C1163 C 0.36929 0.90828 0.74596 0.0
C1164 C 0.34553 0.91401 0.74796 0.0
C1165 C 0.38622 0.92293 0.75733 0.0
C1166 C 0.41159 0.91771 0.75574 0.0
C1167 C 0.42277 0.9156 0.73193 0.0
C1168 C 0.44662 0.91035 0.73068 0.0
C1169 C 0.45949 0.90735 0.75312 0.0
C1170 C 0.4486 0.90968 0.77684 0.0
C1171 C 0.42475 0.9149 0.7782 0.0
H1172 H 0.47789 0.90317 0.75213 0.0
H1173 H 0.24596 0.94855 0.77313 0.0
H1174 H 0.87676 0.58821 0.32822 0.0
H1175 H 0.91121 0.60567 0.30868 0.0
H1176 H 0.86694 0.65105 0.26374 0.0
H1177 H 0.8323 0.63213 0.28198 0.0
H1178 H 0.89915 0.63869 0.23532 0.0
H1179 H 0.90095 0.67017 0.31863 0.0
H1180 H 0.89943 0.67082 0.36567 0.0
H1181 H 0.96105 0.62802 0.36922 0.0
H1182 H 0.96277 0.62683 0.3222 0.0
H1183 H 0.00435 0.69951 0.19857 0.0
H1184 H 0.96803 0.69407 0.22291 0.0
H1185 H 0.99263 0.62684 0.24883 0.0
H1186 H 0.0286 0.63186 0.22414 0.0
H1187 H 0.96891 0.65829 0.28748 0.0
H1188 H 0.96071 0.62475 0.20098 0.0
H1189 H 0.96172 0.62888 0.1541 0.0
H1190 H 0.91032 0.68352 0.15807 0.0
H1191 H 0.90925 0.6799 0.20505 0.0
C1192 C 0.87439 0.60193 0.31421 0.0
C1193 C 0.85192 0.60891 0.30665 0.0
C1194 C 0.89413 0.61212 0.3032 0.0
C1195 C 0.89184 0.63025 0.2852 0.0
C1196 C 0.86928 0.63721 0.27764 0.0
C1197 C 0.84949 0.62645 0.28808 0.0
C1198 C 0.91301 0.6411 0.27361 0.0
C1199 C 0.91413 0.64343 0.24691 0.0
C1200 C 0.93273 0.64754 0.28851 0.0
C1201 C 0.9319 0.6483 0.31685 0.0
C1202 C 0.9141 0.66078 0.32943 0.0
C1203 C 0.91321 0.66126 0.3561 0.0
C1204 C 0.93011 0.64944 0.37042 0.0
C1205 C 0.94797 0.63716 0.3581 0.0
C1206 C 0.94894 0.63662 0.33144 0.0
C1207 C 0.00217 0.68379 0.20988 0.0
C1208 C 0.01919 0.66604 0.20941 0.0
C1209 C 0.98145 0.6807 0.22367 0.0
C1210 C 0.97774 0.66003 0.23753 0.0
C1211 C 0.99527 0.64291 0.23826 0.0
C1212 C 0.01572 0.64577 0.22409 0.0
C1213 C 0.95491 0.65512 0.24956 0.0
C1214 C 0.95358 0.65394 0.27622 0.0
C1215 C 0.9348 0.65049 0.23474 0.0
C1216 C 0.93509 0.65223 0.2065 0.0
C1217 C 0.94975 0.63775 0.19186 0.0
C1218 C 0.95031 0.63998 0.16528 0.0
C1219 C 0.93615 0.6565 0.15312 0.0
C1220 C 0.92131 0.67076 0.16752 0.0
C1221 C 0.92071 0.66861 0.19411 0.0
H1222 H 0.93663 0.65822 0.13254 0.0
H1223 H 0.92938 0.64982 0.39107 0.0
H1224 H 0.67975 0.02536 0.2289 0.0
H1225 H 0.67017 0.98852 0.25048 0.0
H1226 H 0.64534 0.96004 0.17904 0.0
H1227 H 0.65335 0.99733 0.15808 0.0
H1228 H 0.61583 0.94987 0.21193 0.0
H1229 H 0.69954 0.94304 0.21149 0.0
H1230 H 0.74027 0.95518 0.21953 0.0
H1231 H 0.72637 0.95858 0.30001 0.0
H1232 H 0.68548 0.94674 0.29242 0.0
H1233 H 0.605 0.83271 0.25763 0.0
H1234 H 0.62068 0.86672 0.23472 0.0
H1235 H 0.62801 0.90378 0.30598 0.0
H1236 H 0.61219 0.87006 0.32892 0.0
H1237 H 0.66745 0.9079 0.27273 0.0
H1238 H 0.5831 0.91813 0.27153 0.0
H1239 H 0.54263 0.90531 0.26323 0.0
H1240 H 0.55953 0.89349 0.18439 0.0
H1241 H 0.60011 0.90641 0.19224 0.0
C1242 C 0.67248 0.01107 0.21789 0.0
C1243 C 0.6672 0.01407 0.19194 0.0
C1244 C 0.66714 0.98996 0.23014 0.0
C1245 C 0.65725 0.97123 0.21638 0.0
C1246 C 0.6528 0.97414 0.19018 0.0
C1247 C 0.65746 0.99542 0.17818 0.0
C1248 C 0.65007 0.94918 0.22938 0.0
C1249 C 0.62741 0.94055 0.2248 0.0
C1250 C 0.66479 0.93709 0.24675 0.0
C1251 C 0.68939 0.9442 0.25135 0.0
C1252 C 0.70513 0.94653 0.23088 0.0
C1253 C 0.72825 0.95334 0.23536 0.0
C1254 C 0.73589 0.9577 0.26025 0.0
C1255 C 0.72043 0.95522 0.28073 0.0
C1256 C 0.69728 0.94843 0.27635 0.0
C1257 C 0.6101 0.84806 0.26839 0.0
C1258 C 0.60731 0.8488 0.29502 0.0
C1259 C 0.619 0.86745 0.2553 0.0
C1260 C 0.62542 0.88774 0.2687 0.0
C1261 C 0.62321 0.88825 0.29534 0.0
C1262 C 0.61407 0.86902 0.30837 0.0
C1263 C 0.63356 0.90883 0.25492 0.0
C1264 C 0.6562 0.91725 0.25952 0.0
C1265 C 0.61901 0.9206 0.23734 0.0
C1266 C 0.59463 0.91302 0.23252 0.0
C1267 C 0.57819 0.91268 0.25246 0.0
C1268 C 0.55524 0.90543 0.24783 0.0
C1269 C 0.54854 0.89843 0.22333 0.0
C1270 C 0.56475 0.89886 0.20336 0.0
C1271 C 0.5877 0.90623 0.20787 0.0
H1272 H 0.53077 0.89274 0.21981 0.0
H1273 H 0.75379 0.96297 0.26368 0.0
H1274 H 0.86492 0.3859 0.66641 0.0
H1275 H 0.89998 0.36927 0.68579 0.0
H1276 H 0.87278 0.38502 0.76073 0.0
H1277 H 0.83717 0.40093 0.74134 0.0
H1278 H 0.93241 0.38819 0.71202 0.0
H1279 H 0.89425 0.3475 0.80471 0.0
H1280 H 0.8578 0.32879 0.81942 0.0
H1281 H 0.8422 0.3076 0.74264 0.0
H1282 H 0.8787 0.3259 0.72751 0.0
H1283 H 0.01745 0.3758 0.80698 0.0
H1284 H 0.98188 0.38372 0.78304 0.0
H1285 H 0.97346 0.31002 0.76813 0.0
H1286 H 0.00922 0.30176 0.79244 0.0
H1287 H 0.9323 0.33065 0.78296 0.0
H1288 H 0.99147 0.34422 0.72103 0.0
H1289 H 0.02824 0.36024 0.70377 0.0
H1290 H 0.00218 0.43008 0.7137 0.0
H1291 H 0.96537 0.41449 0.73138 0.0
C1292 C 0.86633 0.38567 0.68703 0.0
C1293 C 0.84832 0.39467 0.70239 0.0
C1294 C 0.88641 0.37618 0.69809 0.0
C1295 C 0.88899 0.37565 0.72473 0.0
C1296 C 0.87101 0.38475 0.74014 0.0
C1297 C 0.85073 0.39397 0.72906 0.0
C1298 C 0.91094 0.36653 0.73622 0.0
C1299 C 0.93233 0.37553 0.72746 0.0
C1300 C 0.91097 0.34962 0.75601 0.0
C1301 C 0.88913 0.33825 0.76496 0.0
C1302 C 0.8831 0.33875 0.79098 0.0
C1303 C 0.86242 0.32824 0.79939 0.0
C1304 C 0.84766 0.31707 0.78197 0.0
C1305 C 0.8536 0.31632 0.7561 0.0
C1306 C 0.87428 0.32679 0.7476 0.0
C1307 C 0.00815 0.36118 0.79862 0.0
C1308 C 0.01627 0.3381 0.80165 0.0
C1309 C 0.98782 0.36579 0.78483 0.0
C1310 C 0.97515 0.34749 0.77363 0.0
C1311 C 0.98305 0.32439 0.77662 0.0
C1312 C 0.00353 0.31973 0.79039 0.0
C1313 C 0.95354 0.35276 0.75909 0.0
C1314 C 0.93228 0.34312 0.76734 0.0
C1315 C 0.95362 0.36867 0.73841 0.0
C1316 C 0.97572 0.37817 0.72772 0.0
C1317 C 0.99364 0.363 0.71972 0.0
C1318 C 0.01448 0.372 0.70982 0.0
C1319 C 0.01756 0.39616 0.70768 0.0
C1320 C 0.99978 0.41137 0.71538 0.0
C1321 C 0.97891 0.40246 0.72532 0.0
H1322 H 0.03371 0.4031 0.70002 0.0
H1323 H 0.83165 0.30896 0.78851 0.0
H1324 H 0.40382 0.12829 0.32926 0.0
H1325 H 0.38901 0.09366 0.30723 0.0
H1326 H 0.36417 0.13688 0.24548 0.0
H1327 H 0.37971 0.17177 0.26707 0.0
H1328 H 0.33176 0.09689 0.27186 0.0
H1329 H 0.40462 0.11438 0.22732 0.0
H1330 H 0.4467 0.12381 0.22615 0.0
H1331 H 0.46223 0.06055 0.26696 0.0
H1332 H 0.42017 0.05097 0.2688 0.0
H1333 H 0.30702 0.00305 0.18548 0.0
H1334 H 0.3161 0.03989 0.20715 0.0
H1335 H 0.37346 0.00623 0.24636 0.0
H1336 H 0.36534 0.96999 0.22327 0.0
H1337 H 0.38862 0.04389 0.22979 0.0
H1338 H 0.3185 0.02507 0.2758 0.0
H1339 H 0.27696 0.01469 0.28147 0.0
H1340 H 0.25636 0.07808 0.24365 0.0
H1341 H 0.29779 0.0887 0.23747 0.0
C1342 C 0.39519 0.1305 0.31102 0.0
C1343 C 0.39305 0.15273 0.29979 0.0
C1344 C 0.38671 0.1107 0.29852 0.0
C1345 C 0.37554 0.11283 0.27483 0.0
C1346 C 0.37274 0.13501 0.26382 0.0
C1347 C 0.38168 0.15483 0.27609 0.0
C1348 C 0.3677 0.09159 0.2613 0.0
C1349 C 0.34402 0.08538 0.26224 0.0
C1350 C 0.38394 0.07639 0.24964 0.0
C1351 C 0.40923 0.08209 0.24842 0.0
C1352 C 0.41698 0.10262 0.23629 0.0
C1353 C 0.44083 0.10796 0.23545 0.0
C1354 C 0.45712 0.09279 0.24648 0.0
C1355 C 0.44959 0.07228 0.25842 0.0
C1356 C 0.42575 0.06688 0.25936 0.0
C1357 C 0.32126 0.00351 0.19912 0.0
C1358 C 0.33546 0.98379 0.20284 0.0
C1359 C 0.32643 0.02455 0.21158 0.0
C1360 C 0.34541 0.02595 0.22864 0.0
C1361 C 0.35886 0.00577 0.23319 0.0
C1362 C 0.35413 0.98501 0.22017 0.0
C1363 C 0.35241 0.04864 0.24042 0.0
C1364 C 0.37609 0.05523 0.23921 0.0
C1365 C 0.33617 0.06393 0.2523 0.0
C1366 C 0.31125 0.05755 0.25593 0.0
C1367 C 0.30511 0.0367 0.26851 0.0
C1368 C 0.28158 0.0308 0.27185 0.0
C1369 C 0.26403 0.04569 0.26286 0.0
C1370 C 0.26997 0.06655 0.25056 0.0
C1371 C 0.29347 0.07253 0.24716 0.0
H1372 H 0.24583 0.04108 0.26547 0.0
H1373 H 0.47557 0.09691 0.24573 0.0
H1374 H 0.12849 0.59346 0.67168 0.0
H1375 H 0.09472 0.61138 0.69194 0.0
H1376 H 0.13991 0.64465 0.74712 0.0
H1377 H 0.17385 0.6254 0.72763 0.0
H1378 H 0.10422 0.6305 0.77074 0.0
H1379 H 0.1124 0.67556 0.69581 0.0
H1380 H 0.11794 0.68401 0.65005 0.0
H1381 H 0.05302 0.64983 0.63267 0.0
H1382 H 0.04723 0.64086 0.67829 0.0
H1383 H 0.00135 0.69949 0.80591 0.0
H1384 H 0.03891 0.69306 0.78409 0.0
H1385 H 0.01276 0.62833 0.75304 0.0
H1386 H 0.97561 0.63419 0.77542 0.0
H1387 H 0.04118 0.66624 0.71848 0.0
H1388 H 0.04052 0.61576 0.79611 0.0
H1389 H 0.03583 0.61155 0.84272 0.0
H1390 H 0.08891 0.66347 0.85505 0.0
H1391 H 0.09365 0.66818 0.80845 0.0
C1392 C 0.13129 0.60459 0.68811 0.0
C1393 C 0.15382 0.60807 0.69805 0.0
C1394 C 0.11193 0.61507 0.69957 0.0
C1395 C 0.11472 0.62994 0.7207 0.0
C1396 C 0.13727 0.63338 0.73075 0.0
C1397 C 0.15665 0.62241 0.7196 0.0
C1398 C 0.09388 0.64099 0.73275 0.0
C1399 C 0.09074 0.63872 0.75925 0.0
C1400 C 0.07616 0.65197 0.718 0.0
C1401 C 0.07945 0.65742 0.6905 0.0
C1402 C 0.09937 0.66972 0.68222 0.0
C1403 C 0.10255 0.67461 0.6563 0.0
C1404 C 0.08586 0.66743 0.63846 0.0
C1405 C 0.06593 0.65538 0.64651 0.0
C1406 C 0.06267 0.65042 0.67241 0.0
C1407 C 0.00354 0.68409 0.79409 0.0
C1408 C 0.98568 0.66727 0.79237 0.0
C1409 C 0.02494 0.68044 0.78174 0.0
C1410 C 0.02846 0.66023 0.76706 0.0
C1411 C 0.01025 0.64404 0.76428 0.0
C1412 C 0.98913 0.64737 0.77711 0.0
C1413 C 0.05157 0.65495 0.75593 0.0
C1414 C 0.05503 0.65837 0.72975 0.0
C1415 C 0.06982 0.64565 0.77098 0.0
C1416 C 0.06723 0.64251 0.79888 0.0
C1417 C 0.05103 0.62641 0.80878 0.0
C1418 C 0.0484 0.6239 0.83518 0.0
C1419 C 0.06201 0.63729 0.85184 0.0
C1420 C 0.07835 0.65314 0.84212 0.0
C1421 C 0.08102 0.65572 0.81573 0.0
H1422 H 0.05994 0.63534 0.87227 0.0
H1423 H 0.08836 0.67123 0.6184 0.0
H1424 H 0.16729 0.51627 0.59145 0.0
H1425 H 0.17987 0.49661 0.5525 0.0
H1426 H 0.24425 0.53584 0.55315 0.0
H1427 H 0.23195 0.55538 0.5929 0.0
H1428 H 0.21464 0.53517 0.50436 0.0
H1429 H 0.25414 0.4853 0.56271 0.0
H1430 H 0.25879 0.46178 0.60184 0.0
H1431 H 0.20296 0.41662 0.57792 0.0
H1432 H 0.19771 0.44007 0.53881 0.0
H1433 H 0.22999 0.46451 0.39207 0.0
H1434 H 0.24162 0.48249 0.43269 0.0
H1435 H 0.18262 0.45015 0.46989 0.0
H1436 H 0.17083 0.43234 0.42961 0.0
H1437 H 0.22316 0.44889 0.49948 0.0
H1438 H 0.17738 0.50392 0.44892 0.0
H1439 H 0.16939 0.52795 0.41077 0.0
H1440 H 0.23481 0.56366 0.42083 0.0
H1441 H 0.2433 0.53958 0.45888 0.0
C1442 C 0.18418 0.52068 0.58342 0.0
C1443 C 0.19861 0.53743 0.59511 0.0
C1444 C 0.19138 0.50935 0.56125 0.0
C1445 C 0.21298 0.51475 0.5501 0.0
C1446 C 0.22755 0.53143 0.56163 0.0
C1447 C 0.22054 0.54249 0.58427 0.0
C1448 C 0.2193 0.50335 0.52576 0.0
C1449 C 0.21735 0.51642 0.5032 0.0
C1450 C 0.22235 0.47886 0.52443 0.0
C1451 C 0.22548 0.46453 0.54785 0.0
C1452 C 0.24273 0.47045 0.56587 0.0
C1453 C 0.2455 0.45711 0.58803 0.0
C1454 C 0.23117 0.43773 0.59237 0.0
C1455 C 0.21406 0.43163 0.57452 0.0
C1456 C 0.21121 0.44492 0.55232 0.0
C1457 C 0.21973 0.46094 0.40902 0.0
C1458 C 0.19935 0.44719 0.40762 0.0
C1459 C 0.22638 0.47126 0.43214 0.0
C1460 C 0.2129 0.46772 0.4542 0.0
C1461 C 0.19328 0.45304 0.45308 0.0
C1462 C 0.18648 0.44301 0.43 0.0
C1463 C 0.21775 0.48061 0.47811 0.0
C1464 C 0.22155 0.46777 0.50056 0.0
C1465 C 0.2162 0.5053 0.47935 0.0
C1466 C 0.21114 0.51972 0.45649 0.0
C1467 C 0.19016 0.51674 0.44284 0.0
C1468 C 0.18552 0.53039 0.42128 0.0
C1469 C 0.20162 0.54726 0.41332 0.0
C1470 C 0.22238 0.55054 0.42697 0.0
C1471 C 0.22712 0.53689 0.44853 0.0
H1472 H 0.19799 0.55783 0.39663 0.0
H1473 H 0.23333 0.42743 0.60955 0.0
H1474 H 0.5468 0.77137 0.39924 0.0
H1475 H 0.52942 0.76072 0.44053 0.0
H1476 H 0.52243 0.83386 0.45933 0.0
H1477 H 0.5399 0.84457 0.41888 0.0
H1478 H 0.53972 0.81019 0.49863 0.0
H1479 H 0.47613 0.79988 0.43655 0.0
H1480 H 0.45781 0.78113 0.39913 0.0
H1481 H 0.46407 0.71392 0.43512 0.0
H1482 H 0.48267 0.73229 0.47265 0.0
H1483 H 0.44736 0.84093 0.57412 0.0
H1484 H 0.46866 0.83037 0.53569 0.0
H1485 H 0.47503 0.75936 0.56242 0.0
H1486 H 0.45369 0.76977 0.60153 0.0
H1487 H 0.4634 0.76922 0.50439 0.0
H1488 H 0.51984 0.78262 0.57071 0.0
H1489 H 0.53574 0.80351 0.60806 0.0
H1490 H 0.54199 0.86628 0.56356 0.0
H1491 H 0.52575 0.84586 0.52605 0.0
C1492 C 0.54162 0.78515 0.41224 0.0
C1493 C 0.54481 0.80884 0.40569 0.0
C1494 C 0.53165 0.77903 0.43579 0.0
C1495 C 0.52461 0.79651 0.453 0.0
C1496 C 0.5279 0.82005 0.44646 0.0
C1497 C 0.53787 0.82615 0.42318 0.0
C1498 C 0.51349 0.79096 0.47785 0.0
C1499 C 0.52316 0.80101 0.4999 0.0
C1500 C 0.49224 0.77833 0.47973 0.0
C1501 C 0.48105 0.76739 0.45722 0.0
C1502 C 0.47376 0.78108 0.43638 0.0
C1503 C 0.4633 0.77054 0.41518 0.0
C1504 C 0.45986 0.74634 0.41471 0.0
C1505 C 0.4668 0.73265 0.43548 0.0
C1506 C 0.47729 0.74312 0.45672 0.0
C1507 C 0.45295 0.82297 0.57187 0.0
C1508 C 0.44904 0.80629 0.59116 0.0
C1509 C 0.46509 0.81696 0.54981 0.0
C1510 C 0.47353 0.79417 0.54642 0.0
C1511 C 0.4686 0.77704 0.56479 0.0
C1512 C 0.45648 0.78308 0.58711 0.0
C1513 C 0.48919 0.78944 0.52461 0.0
C1514 C 0.48041 0.77755 0.50325 0.0
C1515 C 0.51126 0.80046 0.52323 0.0
C1516 C 0.52149 0.81271 0.5456 0.0
C1517 C 0.52448 0.80091 0.56893 0.0
C1518 C 0.53356 0.81266 0.59013 0.0
C1519 C 0.53985 0.83621 0.58819 0.0
C1520 C 0.53712 0.84803 0.56503 0.0
C1521 C 0.52801 0.83637 0.54378 0.0
H1522 H 0.54686 0.84528 0.60464 0.0
H1523 H 0.45176 0.73821 0.39828 0.0
H1524 H 0.83304 0.5208 0.41598 0.0
H1525 H 0.81779 0.50055 0.45337 0.0
H1526 H 0.75176 0.53612 0.44481 0.0
H1527 H 0.76681 0.55625 0.40653 0.0
H1528 H 0.77908 0.53618 0.49766 0.0
H1529 H 0.74283 0.48736 0.43566 0.0
H1530 H 0.74036 0.46474 0.39569 0.0
H1531 H 0.79579 0.41986 0.42135 0.0
H1532 H 0.79886 0.44242 0.46135 0.0
H1533 H 0.76542 0.46353 0.60811 0.0
H1534 H 0.75241 0.48149 0.56797 0.0
H1535 H 0.81106 0.4504 0.52883 0.0
H1536 H 0.82406 0.43249 0.56852 0.0
H1537 H 0.7715 0.44973 0.49942 0.0
H1538 H 0.81535 0.50473 0.55261 0.0
H1539 H 0.82199 0.52797 0.59165 0.0
H1540 H 0.75538 0.5615 0.58178 0.0
H1541 H 0.74827 0.53823 0.54281 0.0
C1542 C 0.81525 0.52434 0.42195 0.0
C1543 C 0.80115 0.5402 0.40844 0.0
C1544 C 0.80654 0.51266 0.44323 0.0
C1545 C 0.78368 0.51682 0.45168 0.0
C1546 C 0.76943 0.53268 0.4384 0.0
C1547 C 0.77802 0.54408 0.41662 0.0
C1548 C 0.77567 0.50491 0.47509 0.0
C1549 C 0.77648 0.51739 0.49811 0.0
C1550 C 0.77282 0.48038 0.4755 0.0
C1551 C 0.7711 0.46666 0.4515 0.0
C1552 C 0.75462 0.47278 0.43271 0.0
C1553 C 0.75309 0.45995 0.41006 0.0
C1554 C 0.7679 0.44088 0.40599 0.0
C1555 C 0.7843 0.43461 0.42456 0.0
C1556 C 0.78591 0.4474 0.44725 0.0
C1557 C 0.77524 0.46016 0.59082 0.0
C1558 C 0.79594 0.44684 0.59152 0.0
C1559 C 0.76781 0.47047 0.56795 0.0
C1560 C 0.78089 0.46741 0.5455 0.0
C1561 C 0.80069 0.45295 0.54592 0.0
C1562 C 0.8082 0.44285 0.56869 0.0
C1563 C 0.77575 0.4809 0.52202 0.0
C1564 C 0.77279 0.46866 0.49903 0.0
C1565 C 0.77691 0.50564 0.52162 0.0
C1566 C 0.78113 0.51953 0.54506 0.0
C1567 C 0.80204 0.51692 0.55891 0.0
C1568 C 0.80591 0.53011 0.58098 0.0
C1569 C 0.78908 0.54614 0.58925 0.0
C1570 C 0.76837 0.54903 0.5754 0.0
C1571 C 0.76441 0.53585 0.55333 0.0
H1572 H 0.79212 0.55636 0.60632 0.0
H1573 H 0.76662 0.43092 0.38848 0.0
H1574 H 0.46712 0.23198 0.39293 0.0
H1575 H 0.48595 0.24465 0.43274 0.0
H1576 H 0.45856 0.18384 0.47122 0.0
H1577 H 0.43981 0.17115 0.43191 0.0
H1578 H 0.45585 0.22295 0.50116 0.0
H1579 H 0.5129 0.18342 0.44644 0.0
H1580 H 0.53622 0.17916 0.40708 0.0
H1581 H 0.56614 0.24718 0.41898 0.0
H1582 H 0.54274 0.25193 0.45827 0.0
H1583 H 0.53081 0.16517 0.58387 0.0
H1584 H 0.51063 0.17901 0.5458 0.0
H1585 H 0.53979 0.24783 0.55652 0.0
H1586 H 0.55984 0.23418 0.59547 0.0
H1587 H 0.54259 0.2204 0.50242 0.0
H1588 H 0.49168 0.25372 0.56464 0.0
H1589 H 0.46921 0.25458 0.60479 0.0
H1590 H 0.42811 0.19622 0.57936 0.0
H1591 H 0.45061 0.19474 0.53922 0.0
C1592 C 0.46486 0.22151 0.40999 0.0
C1593 C 0.45217 0.20041 0.40919 0.0
C1594 C 0.47565 0.22876 0.43267 0.0
C1595 C 0.47374 0.21511 0.45487 0.0
C1596 C 0.4602 0.19468 0.45433 0.0
C1597 C 0.44963 0.18735 0.43176 0.0
C1598 C 0.48709 0.22069 0.47834 0.0
C1599 C 0.47482 0.22274 0.50143 0.0
C1600 C 0.51185 0.22103 0.47861 0.0
C1601 C 0.52585 0.21818 0.45503 0.0
C1602 C 0.5243 0.19754 0.44052 0.0
C1603 C 0.53756 0.19502 0.41826 0.0
C1604 C 0.55258 0.21293 0.41048 0.0
C1605 C 0.55444 0.23336 0.42499 0.0
C1606 C 0.54119 0.23598 0.44724 0.0
C1607 C 0.53305 0.18325 0.57819 0.0
C1608 C 0.54701 0.19857 0.59261 0.0
C1609 C 0.52142 0.19114 0.5565 0.0
C1610 C 0.52371 0.2144 0.54852 0.0
C1611 C 0.53782 0.22981 0.56254 0.0
C1612 C 0.54918 0.22201 0.58471 0.0
C1613 C 0.51129 0.2218 0.52517 0.0
C1614 C 0.52367 0.22188 0.50208 0.0
C1615 C 0.48663 0.22327 0.52489 0.0
C1616 C 0.47294 0.22406 0.54896 0.0
C1617 C 0.47799 0.24094 0.56769 0.0
C1618 C 0.46522 0.24156 0.59044 0.0
C1619 C 0.44726 0.22545 0.59464 0.0
C1620 C 0.44202 0.20869 0.57608 0.0
C1621 C 0.45476 0.20798 0.5533 0.0
H1622 H 0.43739 0.22596 0.61226 0.0
H1623 H 0.56284 0.21094 0.39325 0.0
H1624 H 0.68773 0.07975 0.06584 0.0
H1625 H 0.69673 0.05876 0.02646 0.0
H1626 H 0.73857 0.00947 0.06892 0.0
H1627 H 0.73024 0.03095 0.10842 0.0
H1628 H 0.75453 0.01513 0.0184 0.0
H1629 H 0.6831 0.99781 0.0631 0.0
H1630 H 0.64607 0.00794 0.08457 0.0
H1631 H 0.62021 0.03847 0.01516 0.0
H1632 H 0.65727 0.02884 0.99339 0.0
H1633 H 0.68076 0.92559 0.93559 0.0
H1634 H 0.69134 0.94552 0.9751 0.0
H1635 H 0.73431 0.99379 0.93247 0.0
H1636 H 0.7245 0.97314 0.8929 0.0
H1637 H 0.67834 0.98688 0.98512 0.0
H1638 H 0.77341 0.02119 0.97285 0.0
H1639 H 0.81083 0.0082 0.9542 0.0
H1640 H 0.79 0.93648 0.96275 0.0
H1641 H 0.75261 0.94902 0.98178 0.0
C1642 C 0.69947 0.06489 0.06666 0.0
C1643 C 0.70795 0.0567 0.09019 0.0
C1644 C 0.70464 0.05295 0.04416 0.0
C1645 C 0.71785 0.03226 0.04491 0.0
C1646 C 0.72828 0.02536 0.06797 0.0
C1647 C 0.72345 0.0376 0.09052 0.0
C1648 C 0.71712 0.01599 0.02291 0.0
C1649 C 0.73794 0.00892 0.01099 0.0
C1650 C 0.69548 0.00736 0.01381 0.0
C1651 C 0.67301 0.01278 0.0267 0.0
C1652 C 0.66956 0.0068 0.05247 0.0
C1653 C 0.64857 0.01244 0.06469 0.0
C1654 C 0.63081 0.02388 0.05125 0.0
C1655 C 0.63399 0.02963 0.02555 0.0
C1656 C 0.65497 0.02407 0.01326 0.0
C1657 C 0.6929 0.94011 0.93473 0.0
C1658 C 0.70163 0.94798 0.91121 0.0
C1659 C 0.69894 0.95151 0.9573 0.0
C1660 C 0.7135 0.97128 0.95681 0.0
C1661 C 0.7233 0.97841 0.93345 0.0
C1662 C 0.71761 0.96666 0.91083 0.0
C1663 C 0.71578 0.98596 0.98009 0.0
C1664 C 0.69508 0.99288 0.99235 0.0
C1665 C 0.73757 0.99382 0.98973 0.0
C1666 C 0.76009 0.98608 0.97851 0.0
C1667 C 0.77685 0.00265 0.97084 0.0
C1668 C 0.79805 0.99536 0.96019 0.0
C1669 C 0.80276 0.97154 0.95721 0.0
C1670 C 0.78629 0.95494 0.96497 0.0
C1671 C 0.76507 0.96213 0.97565 0.0
H1672 H 0.81918 0.96593 0.94895 0.0
H1673 H 0.61458 0.02825 0.06074 0.0
H1674 H 0.0671 0.31703 0.93469 0.0
H1675 H 0.04712 0.30276 0.97267 0.0
H1676 H 0.01148 0.25075 0.92744 0.0
H1677 H 0.03163 0.26496 0.88909 0.0
H1678 H 0.98138 0.2776 0.95447 0.0
H1679 H 0.0471 0.23189 0.97321 0.0
H1680 H 0.08883 0.22184 0.9775 0.0
H1681 H 0.0966 0.27343 0.03644 0.0
H1682 H 0.05501 0.28409 0.03225 0.0
H1683 H 0.95682 0.26488 0.10225 0.0
H1684 H 0.97592 0.24968 0.06367 0.0
H1685 H 0.96728 0.31675 0.02718 0.0
H1686 H 0.9481 0.33191 0.065 0.0
H1687 H 0.01628 0.26472 0.04011 0.0
H1688 H 0.95514 0.31193 0.96795 0.0
H1689 H 0.91323 0.32148 0.96416 0.0
H1690 H 0.89583 0.26256 0.01131 0.0
H1691 H 0.93763 0.25252 0.01521 0.0
C1692 C 0.05536 0.30226 0.93285 0.0
C1693 C 0.05076 0.29227 0.90886 0.0
C1694 C 0.0441 0.29397 0.95464 0.0
C1695 C 0.02792 0.27559 0.95291 0.0
C1696 C 0.02402 0.26486 0.92918 0.0
C1697 C 0.03556 0.27298 0.90733 0.0
C1698 C 0.01303 0.27015 0.97527 0.0
C1699 C 0.98893 0.27426 0.97312 0.0
C1700 C 0.0228 0.2652 -0.00049 0.0
C1701 C 0.04786 0.25881 0.00237 0.0
C1702 C 0.05772 0.2412 0.987 0.0
C1703 C 0.08136 0.23538 0.98942 0.0
C1704 C 0.09535 0.24699 0.00723 0.0
C1705 C 0.08572 0.26442 0.02268 0.0
C1706 C 0.06209 0.27033 0.02032 0.0
C1707 C 0.95876 0.2763 0.08588 0.0
C1708 C 0.95082 0.29963 0.08675 0.0
C1709 C 0.96973 0.26758 0.06392 0.0
C1710 C 0.97271 0.28199 0.04247 0.0
C1711 C 0.96472 0.30516 0.04331 0.0
C1712 C 0.95381 0.31385 0.06508 0.0
C1713 C 0.98505 0.27368 0.01931 0.0
C1714 C 0.00862 0.2671 0.02134 0.0
C1715 C 0.97477 0.276 0.99488 0.0
C1716 C 0.94954 0.28146 0.99183 0.0
C1717 C 0.94237 0.30086 0.97729 0.0
C1718 C 0.91863 0.30642 0.97521 0.0
C1719 C 0.90188 0.29264 0.98749 0.0
C1720 C 0.90883 0.27323 0.00183 0.0
C1721 C 0.93254 0.26762 0.00401 0.0
H1722 H 0.88352 0.29699 0.98588 0.0
H1723 H 0.11366 0.24247 0.00907 0.0
H1724 H 0.32349 0.07152 0.93453 0.0
H1725 H 0.31018 0.05193 0.97311 0.0
H1726 H 0.25221 0.02211 0.93167 0.0
H1727 H 0.26558 0.04158 0.89264 0.0
H1728 H 0.27099 0.04911 0.00301 0.0
H1729 H 0.24887 0.96533 0.95106 0.0
H1730 H 0.25529 0.94604 0.90943 0.0
H1731 H 0.32226 0.97949 0.90286 0.0
H1732 H 0.31627 0.99878 0.94452 0.0
H1733 H 0.26548 0.96472 0.1046 0.0
H1734 H 0.25188 0.98434 0.06566 0.0
H1735 H 0.31756 0.96861 0.02897 0.0
H1736 H 0.33113 0.94894 0.06732 0.0
H1737 H 0.28136 0.96315 0.99622 0.0
H1738 H 0.30842 0.02088 0.05939 0.0
H1739 H 0.30612 0.04092 0.10105 0.0
H1740 H 0.23501 0.06053 0.08556 0.0
H1741 H 0.23685 0.04036 0.04391 0.0
C1742 C 0.30766 0.06115 0.93363 0.0
C1743 C 0.29585 0.05777 0.91038 0.0
C1744 C 0.29995 0.05011 0.9558 0.0
C1745 C 0.28036 0.03538 0.95519 0.0
C1746 C 0.26747 0.0333 0.93248 0.0
C1747 C 0.27515 0.04445 0.91021 0.0
C1748 C 0.27578 0.02002 0.9774 0.0
C1749 C 0.27267 0.03025 0.00151 0.0
C1750 C 0.27802 0.99544 0.97546 0.0
C1751 C 0.282 0.98363 0.95069 0.0
C1752 C 0.26497 0.96849 0.94072 0.0
C1753 C 0.26853 0.95758 0.91714 0.0
C1754 C 0.28914 0.9616 0.90347 0.0
C1755 C 0.30628 0.97645 0.91342 0.0
C1756 C 0.30281 0.98737 0.937 0.0
C1757 C 0.27689 0.96517 0.0881 0.0
C1758 C 0.29952 0.95549 0.0892 0.0
C1759 C 0.26908 0.97639 0.0659 0.0
C1760 C 0.28377 0.97804 0.0445 0.0
C1761 C 0.30589 0.96747 0.04522 0.0
C1762 C 0.31371 0.95637 0.0673 0.0
C1763 C 0.27743 0.99232 0.02193 0.0
C1764 C 0.27851 0.98187 0.99772 0.0
C1765 C 0.27369 0.01673 0.02383 0.0
C1766 C 0.27267 0.02889 0.04875 0.0
C1767 C 0.29225 0.02934 0.06497 0.0
C1768 C 0.29104 0.04073 0.08856 0.0
C1769 C 0.2704 0.05192 0.09599 0.0
C1770 C 0.25096 0.05181 0.07981 0.0
C1771 C 0.25208 0.0404 0.05622 0.0
H1772 H 0.2695 0.06074 0.11425 0.0
H1773 H 0.29184 0.95318 0.8852 0.0
H1774 H 0.96204 0.73371 0.89355 0.0
H1775 H 0.97789 0.74545 0.93524 0.0
H1776 H 0.95744 0.67883 0.9668 0.0
H1777 H 0.94152 0.66715 0.92582 0.0
H1778 H 0.94834 0.71358 -0.00018 0.0
H1779 H 0.01316 0.68884 0.94494 0.0
H1780 H 0.03836 0.69204 0.90686 0.0
H1781 H 0.0562 0.7625 0.92754 0.0
H1782 H 0.03087 0.75976 0.96561 0.0
H1783 H 0.02336 0.66313 0.0864 0.0
H1784 H 0.00272 0.67606 0.04837 0.0
H1785 H 0.03036 0.74566 0.058 0.0
H1786 H 0.05118 0.73283 0.09674 0.0
H1787 H 0.03421 0.7247 0.00625 0.0
H1788 H 0.97684 0.74264 0.06892 0.0
H1789 H 0.9535 0.73556 0.10774 0.0
H1790 H 0.92247 0.6751 0.07291 0.0
H1791 H 0.94585 0.6816 0.03399 0.0
C1792 C 0.96071 0.72169 0.90948 0.0
C1793 C 0.95072 0.69938 0.90624 0.0
C1794 C 0.9698 0.72842 0.93325 0.0
C1795 C 0.96895 0.71296 0.95409 0.0
C1796 C 0.95822 0.6911 0.95105 0.0
C1797 C 0.94927 0.68437 0.92745 0.0
C1798 C 0.98038 0.71838 0.97883 0.0
C1799 C 0.96708 0.71628 0.00125 0.0
C1800 C 0.00472 0.72259 0.98071 0.0
C1801 C 0.01989 0.72422 0.95787 0.0
C1802 C 0.02231 0.70507 0.94123 0.0
C1803 C 0.03664 0.70679 0.91969 0.0
C1804 C 0.0488 0.7275 0.91473 0.0
C1805 C 0.04671 0.7465 0.93136 0.0
C1806 C 0.03238 0.74488 0.95292 0.0
C1807 C 0.02515 0.68121 0.08055 0.0
C1808 C 0.03898 0.69694 0.09459 0.0
C1809 C 0.01321 0.6886 0.05885 0.0
C1810 C 0.01488 0.71183 0.05055 0.0
C1811 C 0.0288 0.72767 0.06425 0.0
C1812 C 0.04059 0.72033 0.08635 0.0
C1813 C 0.00229 0.71877 0.02705 0.0
C1814 C 0.01534 0.7231 0.00489 0.0
C1815 C 0.97773 0.71635 0.02537 0.0
C1816 C 0.96316 0.71262 0.04851 0.0
C1817 C 0.96511 0.72778 0.06956 0.0
C1818 C 0.95186 0.72387 0.09159 0.0
C1819 C 0.93652 0.70489 0.09279 0.0
C1820 C 0.93434 0.68982 0.07193 0.0
C1821 C 0.94754 0.69365 0.04985 0.0
H1822 H 0.92632 0.70187 0.10988 0.0
H1823 H 0.05989 0.72879 0.89805 0.0
loop_
_geom_bond_atom_site_label_1
_geom_bond_atom_site_label_2
_geom_bond_distance
_geom_bond_site_symmetry_2
_ccdc_geom_bond_type
Co0 O1 2.216 . S
Co0 O2 2.091 . S
Co0 O4 2.004 . S
Co0 O10 2.021 . S
Co0 O12 2.137 . S
Co0 O13 2.244 . S
O1 Co0 2.216 . S
O1 C8 1.247 . S
O2 Co0 2.091 . S
O2 C8 1.261 . S
C3 O12 1.247 . S
C3 O13 1.272 . S
O4 Co0 2.004 . S
O4 C9 1.259 . S
Co5 O6 2.061 . S
Co5 O11 2.052 . S
Co5 O13 2.135 . S
O6 Co5 2.061 . S
O6 C9 1.235 . S
C7 O10 1.238 . S
C7 O11 1.241 . S
C8 O1 1.247 . S
C8 O2 1.261 . S
C9 O4 1.259 . S
C9 O6 1.235 . S
O10 Co0 2.021 . S
O10 C7 1.238 . S
O11 Co5 2.052 . S
O11 C7 1.241 . S
O12 Co0 2.137 . S
O12 C3 1.247 . S
O13 Co0 2.244 . S
O13 C3 1.272 . S
O13 Co5 2.135 . S
Co14 O15 2.216 . S
Co14 O16 2.091 . S
Co14 O18 2.004 . S
Co14 O24 2.021 . S
Co14 O26 2.137 . S
Co14 O27 2.244 . S
O15 Co14 2.216 . S
O15 C22 1.247 . S
O16 Co14 2.091 . S
O16 C22 1.261 . S
C17 O26 1.247 . S
C17 O27 1.272 . S
O18 Co14 2.004 . S
O18 C23 1.259 . S
Co19 O20 2.061 . S
Co19 O25 2.052 . S
Co19 O27 2.135 . S
O20 Co19 2.061 . S
O20 C23 1.235 . S
C21 O24 1.238 . S
C21 O25 1.241 . S
C22 O15 1.247 . S
C22 O16 1.261 . S
C23 O18 1.259 . S
C23 O20 1.235 . S
O24 Co14 2.021 . S
O24 C21 1.238 . S
O25 Co19 2.052 . S
O25 C21 1.241 . S
O26 Co14 2.137 . S
O26 C17 1.247 . S
O27 Co14 2.244 . S
O27 C17 1.272 . S
O27 Co19 2.135 . S
Co28 O29 2.216 . S
Co28 O30 2.091 . S
Co28 O32 2.004 . S
Co28 O38 2.021 . S
Co28 O40 2.137 . S
Co28 O41 2.244 . S
O29 Co28 2.216 . S
O29 C36 1.247 . S
O30 Co28 2.091 . S
O30 C36 1.261 . S
C31 O40 1.247 . S
C31 O41 1.272 . S
O32 Co28 2.004 . S
O32 C37 1.259 . S
Co33 O34 2.061 . S
Co33 O39 2.052 . S
Co33 O41 2.135 . S
O34 Co33 2.061 . S
O34 C37 1.235 . S
C35 O38 1.238 . S
C35 O39 1.241 . S
C36 O29 1.247 . S
C36 O30 1.261 . S
C37 O32 1.259 . S
C37 O34 1.235 . S
O38 Co28 2.021 . S
O38 C35 1.238 . S
O39 Co33 2.052 . S
O39 C35 1.241 . S
O40 Co28 2.137 . S
O40 C31 1.247 . S
O41 Co28 2.244 . S
O41 C31 1.272 . S
O41 Co33 2.135 . S
Co42 O43 2.216 . S
Co42 O44 2.091 . S
Co42 O46 2.004 . S
Co42 O52 2.021 . S
Co42 O54 2.137 . S
Co42 O55 2.244 . S
O43 Co42 2.216 . S
O43 C50 1.247 . S
O44 Co42 2.091 . S
O44 C50 1.261 . S
C45 O54 1.247 . S
C45 O55 1.272 . S
O46 Co42 2.004 . S
O46 C51 1.259 . S
Co47 O48 2.061 . S
Co47 O53 2.052 . S
Co47 O55 2.135 . S
O48 Co47 2.061 . S
O48 C51 1.235 . S
C49 O52 1.238 . S
C49 O53 1.241 . S
C50 O43 1.247 . S
C50 O44 1.261 . S
C51 O46 1.259 . S
C51 O48 1.235 . S
O52 Co42 2.021 . S
O52 C49 1.238 . S
O53 Co47 2.052 . S
O53 C49 1.241 . S
O54 Co42 2.137 . S
O54 C45 1.247 . S
O55 Co42 2.244 . S
O55 C45 1.272 . S
O55 Co47 2.135 . S
Co56 O57 2.216 . S
Co56 O58 2.091 . S
Co56 O60 2.004 . S
Co56 O66 2.021 . S
Co56 O68 2.137 . S
Co56 O69 2.244 . S
O57 Co56 2.216 . S
O57 C64 1.247 . S
O58 Co56 2.091 . S
O58 C64 1.261 . S
C59 O68 1.247 . S
C59 O69 1.272 . S
O60 Co56 2.004 . S
O60 C65 1.259 . S
Co61 O62 2.061 . S
Co61 O67 2.052 . S
Co61 O69 2.135 . S
O62 Co61 2.061 . S
O62 C65 1.235 . S
C63 O66 1.238 . S
C63 O67 1.241 . S
C64 O57 1.247 . S
C64 O58 1.261 . S
C65 O60 1.259 . S
C65 O62 1.235 . S
O66 Co56 2.021 . S
O66 C63 1.238 . S
O67 Co61 2.052 . S
O67 C63 1.241 . S
O68 Co56 2.137 . S
O68 C59 1.247 . S
O69 Co56 2.244 . S
O69 C59 1.272 . S
O69 Co61 2.135 . S
Co70 O71 2.216 . S
Co70 O72 2.091 . S
Co70 O74 2.004 . S
Co70 O80 2.021 . S
Co70 O82 2.137 . S
Co70 O83 2.244 . S
O71 Co70 2.216 . S
O71 C78 1.247 . S
O72 Co70 2.091 . S
O72 C78 1.261 . S
C73 O82 1.247 . S
C73 O83 1.272 . S
O74 Co70 2.004 . S
O74 C79 1.259 . S
Co75 O76 2.061 . S
Co75 O81 2.052 . S
Co75 O83 2.135 . S
O76 Co75 2.061 . S
O76 C79 1.235 . S
C77 O80 1.238 . S
C77 O81 1.241 . S
C78 O71 1.247 . S
C78 O72 1.261 . S
C79 O74 1.259 . S
C79 O76 1.235 . S
O80 Co70 2.021 . S
O80 C77 1.238 . S
O81 Co75 2.052 . S
O81 C77 1.241 . S
O82 Co70 2.137 . S
O82 C73 1.247 . S
O83 Co70 2.244 . S
O83 C73 1.272 . S
O83 Co75 2.135 . S
Co84 O85 2.216 . S
Co84 O86 2.091 . S
Co84 O88 2.004 . S
Co84 O94 2.021 . S
Co84 O96 2.137 . S
Co84 O97 2.244 . S
O85 Co84 2.216 . S
O85 C92 1.247 . S
O86 Co84 2.091 . S
O86 C92 1.261 . S
C87 O96 1.247 . S
C87 O97 1.272 . S
O88 Co84 2.004 . S
O88 C93 1.259 . S
Co89 O90 2.061 . S
Co89 O95 2.052 . S
Co89 O97 2.135 . S
O90 Co89 2.061 . S
O90 C93 1.235 . S
C91 O94 1.238 . S
C91 O95 1.241 . S
C92 O85 1.247 . S
C92 O86 1.261 . S
C93 O88 1.259 . S
C93 O90 1.235 . S
O94 Co84 2.021 . S
O94 C91 1.238 . S
O95 Co89 2.052 . S
O95 C91 1.241 . S
O96 Co84 2.137 . S
O96 C87 1.247 . S
O97 Co84 2.244 . S
O97 C87 1.272 . S
O97 Co89 2.135 . S
Co98 O99 2.216 . S
Co98 O100 2.091 . S
Co98 O102 2.004 . S
Co98 O108 2.021 . S
Co98 O110 2.137 . S
Co98 O111 2.244 . S
O99 Co98 2.216 . S
O99 C106 1.247 . S
O100 Co98 2.091 . S
O100 C106 1.261 . S
C101 O110 1.247 . S
C101 O111 1.272 . S
O102 Co98 2.004 . S
O102 C107 1.259 . S
Co103 O104 2.061 . S
Co103 O109 2.052 . S
Co103 O111 2.135 . S
O104 Co103 2.061 . S
O104 C107 1.235 . S
C105 O108 1.238 . S
C105 O109 1.241 . S
C106 O99 1.247 . S
C106 O100 1.261 . S
C107 O102 1.259 . S
C107 O104 1.235 . S
O108 Co98 2.021 . S
O108 C105 1.238 . S
O109 Co103 2.052 . S
O109 C105 1.241 . S
O110 Co98 2.137 . S
O110 C101 1.247 . S
O111 Co98 2.244 . S
O111 C101 1.272 . S
O111 Co103 2.135 . S
Co112 O113 2.216 . S
Co112 O114 2.091 . S
Co112 O116 2.004 . S
Co112 O122 2.021 . S
Co112 O124 2.137 . S
Co112 O125 2.244 . S
O113 Co112 2.216 . S
O113 C120 1.247 . S
O114 Co112 2.091 . S
O114 C120 1.261 . S
C115 O124 1.247 . S
C115 O125 1.272 . S
O116 Co112 2.004 . S
O116 C121 1.259 . S
Co117 O118 2.061 . S
Co117 O123 2.052 . S
Co117 O125 2.135 . S
O118 Co117 2.061 . S
O118 C121 1.235 . S
C119 O122 1.238 . S
C119 O123 1.241 . S
C120 O113 1.247 . S
C120 O114 1.261 . S
C121 O116 1.259 . S
C121 O118 1.235 . S
O122 Co112 2.021 . S
O122 C119 1.238 . S
O123 Co117 2.052 . S
O123 C119 1.241 . S
O124 Co112 2.137 . S
O124 C115 1.247 . S
O125 Co112 2.244 . S
O125 C115 1.272 . S
O125 Co117 2.135 . S
Co126 O127 2.216 . S
Co126 O128 2.091 . S
Co126 O130 2.004 . S
Co126 O136 2.021 . S
Co126 O138 2.137 . S
Co126 O139 2.244 . S
O127 Co126 2.216 . S
O127 C134 1.247 . S
O128 Co126 2.091 . S
O128 C134 1.261 . S
C129 O138 1.247 . S
C129 O139 1.272 . S
O130 Co126 2.004 . S
O130 C135 1.259 . S
Co131 O132 2.061 . S
Co131 O137 2.052 . S
Co131 O139 2.135 . S
O132 Co131 2.061 . S
O132 C135 1.235 . S
C133 O136 1.238 . S
C133 O137 1.241 . S
C134 O127 1.247 . S
C134 O128 1.261 . S
C135 O130 1.259 . S
C135 O132 1.235 . S
O136 Co126 2.021 . S
O136 C133 1.238 . S
O137 Co131 2.052 . S
O137 C133 1.241 . S
O138 Co126 2.137 . S
O138 C129 1.247 . S
O139 Co126 2.244 . S
O139 C129 1.272 . S
O139 Co131 2.135 . S
Co140 O141 2.216 . S
Co140 O142 2.091 . S
Co140 O144 2.004 . S
Co140 O150 2.021 . S
Co140 O152 2.137 . S
Co140 O153 2.244 . S
O141 Co140 2.216 . S
O141 C148 1.247 . S
O142 Co140 2.091 . S
O142 C148 1.261 . S
C143 O152 1.247 . S
C143 O153 1.272 . S
O144 Co140 2.004 . S
O144 C149 1.259 . S
Co145 O146 2.061 . S
Co145 O151 2.052 . S
Co145 O153 2.135 . S
O146 Co145 2.061 . S
O146 C149 1.235 . S
C147 O150 1.238 . S
C147 O151 1.241 . S
C148 O141 1.247 . S
C148 O142 1.261 . S
C149 O144 1.259 . S
C149 O146 1.235 . S
O150 Co140 2.021 . S
O150 C147 1.238 . S
O151 Co145 2.052 . S
O151 C147 1.241 . S
O152 Co140 2.137 . S
O152 C143 1.247 . S
O153 Co140 2.244 . S
O153 C143 1.272 . S
O153 Co145 2.135 . S
Co154 O155 2.216 . S
Co154 O156 2.091 . S
Co154 O158 2.004 . S
Co154 O164 2.021 . S
Co154 O166 2.137 . S
Co154 O167 2.244 . S
O155 Co154 2.216 . S
O155 C162 1.247 . S
O156 Co154 2.091 . S
O156 C162 1.261 . S
C157 O166 1.247 . S
C157 O167 1.272 . S
O158 Co154 2.004 . S
O158 C163 1.259 . S
Co159 O160 2.061 . S
Co159 O165 2.052 . S
Co159 O167 2.135 . S
O160 Co159 2.061 . S
O160 C163 1.235 . S
C161 O164 1.238 . S
C161 O165 1.241 . S
C162 O155 1.247 . S
C162 O156 1.261 . S
C163 O158 1.259 . S
C163 O160 1.235 . S
O164 Co154 2.021 . S
O164 C161 1.238 . S
O165 Co159 2.052 . S
O165 C161 1.241 . S
O166 Co154 2.137 . S
O166 C157 1.247 . S
O167 Co154 2.244 . S
O167 C157 1.272 . S
O167 Co159 2.135 . S
Co168 O169 2.216 . S
Co168 O170 2.091 . S
Co168 O172 2.004 . S
Co168 O178 2.021 . S
Co168 O180 2.137 . S
Co168 O181 2.244 . S
O169 Co168 2.216 . S
O169 C176 1.247 . S
O170 Co168 2.091 . S
O170 C176 1.261 . S
C171 O180 1.247 . S
C171 O181 1.272 . S
O172 Co168 2.004 . S
O172 C177 1.259 . S
Co173 O174 2.061 . S
Co173 O179 2.052 . S
Co173 O181 2.135 . S
O174 Co173 2.061 . S
O174 C177 1.235 . S
C175 O178 1.238 . S
C175 O179 1.241 . S
C176 O169 1.247 . S
C176 O170 1.261 . S
C177 O172 1.259 . S
C177 O174 1.235 . S
O178 Co168 2.021 . S
O178 C175 1.238 . S
O179 Co173 2.052 . S
O179 C175 1.241 . S
O180 Co168 2.137 . S
O180 C171 1.247 . S
O181 Co168 2.244 . S
O181 C171 1.272 . S
O181 Co173 2.135 . S
Co182 O183 2.216 . S
Co182 O184 2.091 . S
Co182 O186 2.004 . S
Co182 O192 2.021 . S
Co182 O194 2.137 . S
Co182 O195 2.244 . S
O183 Co182 2.216 . S
O183 C190 1.247 . S
O184 Co182 2.091 . S
O184 C190 1.261 . S
C185 O194 1.247 . S
C185 O195 1.272 . S
O186 Co182 2.004 . S
O186 C191 1.259 . S
Co187 O188 2.061 . S
Co187 O193 2.052 . S
Co187 O195 2.135 . S
O188 Co187 2.061 . S
O188 C191 1.235 . S
C189 O192 1.238 . S
C189 O193 1.241 . S
C190 O183 1.247 . S
C190 O184 1.261 . S
C191 O186 1.259 . S
C191 O188 1.235 . S
O192 Co182 2.021 . S
O192 C189 1.238 . S
O193 Co187 2.052 . S
O193 C189 1.241 . S
O194 Co182 2.137 . S
O194 C185 1.247 . S
O195 Co182 2.244 . S
O195 C185 1.272 . S
O195 Co187 2.135 . S
Co196 O197 2.216 . S
Co196 O198 2.091 . S
Co196 O200 2.004 . S
Co196 O206 2.021 . S
Co196 O208 2.137 . S
Co196 O209 2.244 . S
O197 Co196 2.216 . S
O197 C204 1.247 . S
O198 Co196 2.091 . S
O198 C204 1.261 . S
C199 O208 1.247 . S
C199 O209 1.272 . S
O200 Co196 2.004 . S
O200 C205 1.259 . S
Co201 O202 2.061 . S
Co201 O207 2.052 . S
Co201 O209 2.135 . S
O202 Co201 2.061 . S
O202 C205 1.235 . S
C203 O206 1.238 . S
C203 O207 1.241 . S
C204 O197 1.247 . S
C204 O198 1.261 . S
C205 O200 1.259 . S
C205 O202 1.235 . S
O206 Co196 2.021 . S
O206 C203 1.238 . S
O207 Co201 2.052 . S
O207 C203 1.241 . S
O208 Co196 2.137 . S
O208 C199 1.247 . S
O209 Co196 2.244 . S
O209 C199 1.272 . S
O209 Co201 2.135 . S
Co210 O211 2.216 . S
Co210 O212 2.091 . S
Co210 O214 2.004 . S
Co210 O220 2.021 . S
Co210 O222 2.137 . S
Co210 O223 2.244 . S
O211 Co210 2.216 . S
O211 C218 1.247 . S
O212 Co210 2.091 . S
O212 C218 1.261 . S
C213 O222 1.247 . S
C213 O223 1.272 . S
O214 Co210 2.004 . S
O214 C219 1.259 . S
Co215 O216 2.061 . S
Co215 O221 2.052 . S
Co215 O223 2.135 . S
O216 Co215 2.061 . S
O216 C219 1.235 . S
C217 O220 1.238 . S
C217 O221 1.241 . S
C218 O211 1.247 . S
C218 O212 1.261 . S
C219 O214 1.259 . S
C219 O216 1.235 . S
O220 Co210 2.021 . S
O220 C217 1.238 . S
O221 Co215 2.052 . S
O221 C217 1.241 . S
O222 Co210 2.137 . S
O222 C213 1.247 . S
O223 Co210 2.244 . S
O223 C213 1.272 . S
O223 Co215 2.135 . S
H224 C242 0.951 . S
H225 C244 0.951 . S
H226 C246 0.950 . S
H227 C247 0.950 . S
H228 C249 0.950 . S
H229 C252 0.950 . S
H230 C253 0.950 . S
H231 C255 0.950 . S
H232 C256 0.950 . S
H233 C257 0.951 . S
H234 C259 0.951 . S
H235 C261 0.950 . S
H236 C262 0.950 . S
H237 C264 0.950 . S
H238 C267 0.950 . S
H239 C268 0.950 . S
H240 C270 0.950 . S
H241 C271 0.950 . S
C242 H224 0.951 . S
C242 C243 1.366 . S
C242 C244 1.388 . S
C243 C242 1.366 . S
C243 C247 1.385 . S
C244 H225 0.951 . S
C244 C242 1.388 . S
C244 C245 1.366 . S
C245 C244 1.366 . S
C245 C246 1.414 . S
C245 C248 1.499 . S
C246 H226 0.950 . S
C246 C245 1.414 . S
C246 C247 1.374 . S
C247 H227 0.950 . S
C247 C243 1.385 . S
C247 C246 1.374 . S
C248 C245 1.499 . S
C248 C249 1.373 . S
C248 C250 1.389 . S
C249 H228 0.950 . S
C249 C248 1.373 . S
C249 C265 1.377 . S
C250 C248 1.389 . S
C250 C251 1.524 . S
C250 C264 1.377 . S
C251 C250 1.524 . S
C251 C252 1.397 . S
C251 C256 1.363 . S
C252 H229 0.950 . S
C252 C251 1.397 . S
C252 C253 1.334 . S
C253 H230 0.950 . S
C253 C252 1.334 . S
C253 C254 1.287 . S
C254 C253 1.287 . S
C254 C255 1.524 . S
C254 H273 0.913 . S
C255 H231 0.950 . S
C255 C254 1.524 . S
C255 C256 1.415 . S
C256 H232 0.950 . S
C256 C251 1.363 . S
C256 C255 1.415 . S
C257 H233 0.951 . S
C257 C258 1.366 . S
C257 C259 1.388 . S
C258 C257 1.366 . S
C258 C262 1.385 . S
C259 H234 0.951 . S
C259 C257 1.388 . S
C259 C260 1.366 . S
C260 C259 1.366 . S
C260 C261 1.414 . S
C260 C263 1.499 . S
C261 H235 0.950 . S
C261 C260 1.414 . S
C261 C262 1.374 . S
C262 H236 0.950 . S
C262 C258 1.385 . S
C262 C261 1.374 . S
C263 C260 1.499 . S
C263 C264 1.373 . S
C263 C265 1.389 . S
C264 H237 0.950 . S
C264 C250 1.377 . S
C264 C263 1.373 . S
C265 C249 1.377 . S
C265 C263 1.389 . S
C265 C266 1.524 . S
C266 C265 1.524 . S
C266 C267 1.397 . S
C266 C271 1.363 . S
C267 H238 0.950 . S
C267 C266 1.397 . S
C267 C268 1.334 . S
C268 H239 0.950 . S
C268 C267 1.334 . S
C268 C269 1.287 . S
C269 C268 1.287 . S
C269 C270 1.524 . S
C269 H272 0.999 . S
C270 H240 0.950 . S
C270 C269 1.524 . S
C270 C271 1.415 . S
C271 H241 0.950 . S
C271 C266 1.363 . S
C271 C270 1.415 . S
H272 C269 0.999 . S
H273 C254 0.913 . S
H274 C292 0.951 . S
H275 C294 0.951 . S
H276 C296 0.950 . S
H277 C297 0.950 . S
H278 C299 0.950 . S
H279 C302 0.950 . S
H280 C303 0.950 . S
H281 C305 0.950 . S
H282 C306 0.950 . S
H283 C307 0.951 . S
H284 C309 0.951 . S
H285 C311 0.950 . S
H286 C312 0.950 . S
H287 C314 0.950 . S
H288 C317 0.950 . S
H289 C318 0.950 . S
H290 C320 0.950 . S
H291 C321 0.950 . S
C292 H274 0.951 . S
C292 C293 1.366 . S
C292 C294 1.388 . S
C293 C292 1.366 . S
C293 C297 1.385 . S
C294 H275 0.951 . S
C294 C292 1.388 . S
C294 C295 1.366 . S
C295 C294 1.366 . S
C295 C296 1.414 . S
C295 C298 1.499 . S
C296 H276 0.950 . S
C296 C295 1.414 . S
C296 C297 1.374 . S
C297 H277 0.950 . S
C297 C293 1.385 . S
C297 C296 1.374 . S
C298 C295 1.499 . S
C298 C299 1.373 . S
C298 C300 1.389 . S
C299 H278 0.950 . S
C299 C298 1.373 . S
C299 C315 1.377 . S
C300 C298 1.389 . S
C300 C301 1.524 . S
C300 C314 1.377 . S
C301 C300 1.524 . S
C301 C302 1.397 . S
C301 C306 1.363 . S
C302 H279 0.950 . S
C302 C301 1.397 . S
C302 C303 1.334 . S
C303 H280 0.950 . S
C303 C302 1.334 . S
C303 C304 1.287 . S
C304 C303 1.287 . S
C304 C305 1.524 . S
C304 H323 0.913 . S
C305 H281 0.950 . S
C305 C304 1.524 . S
C305 C306 1.415 . S
C306 H282 0.950 . S
C306 C301 1.363 . S
C306 C305 1.415 . S
C307 H283 0.951 . S
C307 C308 1.366 . S
C307 C309 1.388 . S
C308 C307 1.366 . S
C308 C312 1.385 . S
C309 H284 0.951 . S
C309 C307 1.388 . S
C309 C310 1.366 . S
C310 C309 1.366 . S
C310 C311 1.414 . S
C310 C313 1.499 . S
C311 H285 0.950 . S
C311 C310 1.414 . S
C311 C312 1.374 . S
C312 H286 0.950 . S
C312 C308 1.385 . S
C312 C311 1.374 . S
C313 C310 1.499 . S
C313 C314 1.373 . S
C313 C315 1.389 . S
C314 H287 0.950 . S
C314 C300 1.377 . S
C314 C313 1.373 . S
C315 C299 1.377 . S
C315 C313 1.389 . S
C315 C316 1.524 . S
C316 C315 1.524 . S
C316 C317 1.397 . S
C316 C321 1.363 . S
C317 H288 0.950 . S
C317 C316 1.397 . S
C317 C318 1.334 . S
C318 H289 0.950 . S
C318 C317 1.334 . S
C318 C319 1.287 . S
C319 C318 1.287 . S
C319 C320 1.524 . S
C319 H322 0.999 . S
C320 H290 0.950 . S
C320 C319 1.524 . S
C320 C321 1.415 . S
C321 H291 0.950 . S
C321 C316 1.363 . S
C321 C320 1.415 . S
H322 C319 0.999 . S
H323 C304 0.913 . S
H324 C342 0.951 . S
H325 C344 0.951 . S
H326 C346 0.950 . S
H327 C347 0.950 . S
H328 C349 0.950 . S
H329 C352 0.950 . S
H330 C353 0.950 . S
H331 C355 0.950 . S
H332 C356 0.950 . S
H333 C357 0.951 . S
H334 C359 0.951 . S
H335 C361 0.950 . S
H336 C362 0.950 . S
H337 C364 0.950 . S
H338 C367 0.950 . S
H339 C368 0.950 . S
H340 C370 0.950 . S
H341 C371 0.950 . S
C342 H324 0.951 . S
C342 C343 1.366 . S
C342 C344 1.388 . S
C343 C342 1.366 . S
C343 C347 1.385 . S
C344 H325 0.951 . S
C344 C342 1.388 . S
C344 C345 1.366 . S
C345 C344 1.366 . S
C345 C346 1.414 . S
C345 C348 1.499 . S
C346 H326 0.950 . S
C346 C345 1.414 . S
C346 C347 1.374 . S
C347 H327 0.950 . S
C347 C343 1.385 . S
C347 C346 1.374 . S
C348 C345 1.499 . S
C348 C349 1.373 . S
C348 C350 1.389 . S
C349 H328 0.950 . S
C349 C348 1.373 . S
C349 C365 1.377 . S
C350 C348 1.389 . S
C350 C351 1.524 . S
C350 C364 1.377 . S
C351 C350 1.524 . S
C351 C352 1.397 . S
C351 C356 1.363 . S
C352 H329 0.950 . S
C352 C351 1.397 . S
C352 C353 1.334 . S
C353 H330 0.950 . S
C353 C352 1.334 . S
C353 C354 1.287 . S
C354 C353 1.287 . S
C354 C355 1.524 . S
C354 H373 0.913 . S
C355 H331 0.950 . S
C355 C354 1.524 . S
C355 C356 1.415 . S
C356 H332 0.950 . S
C356 C351 1.363 . S
C356 C355 1.415 . S
C357 H333 0.951 . S
C357 C358 1.366 . S
C357 C359 1.388 . S
C358 C357 1.366 . S
C358 C362 1.385 . S
C359 H334 0.951 . S
C359 C357 1.388 . S
C359 C360 1.366 . S
C360 C359 1.366 . S
C360 C361 1.414 . S
C360 C363 1.499 . S
C361 H335 0.950 . S
C361 C360 1.414 . S
C361 C362 1.374 . S
C362 H336 0.950 . S
C362 C358 1.385 . S
C362 C361 1.374 . S
C363 C360 1.499 . S
C363 C364 1.373 . S
C363 C365 1.389 . S
C364 H337 0.950 . S
C364 C350 1.377 . S
C364 C363 1.373 . S
C365 C349 1.377 . S
C365 C363 1.389 . S
C365 C366 1.524 . S
C366 C365 1.524 . S
C366 C367 1.397 . S
C366 C371 1.363 . S
C367 H338 0.950 . S
C367 C366 1.397 . S
C367 C368 1.334 . S
C368 H339 0.950 . S
C368 C367 1.334 . S
C368 C369 1.287 . S
C369 C368 1.287 . S
C369 C370 1.524 . S
C369 H372 0.999 . S
C370 H340 0.950 . S
C370 C369 1.524 . S
C370 C371 1.415 . S
C371 H341 0.950 . S
C371 C366 1.363 . S
C371 C370 1.415 . S
H372 C369 0.999 . S
H373 C354 0.913 . S
H374 C392 0.951 . S
H375 C394 0.951 . S
H376 C396 0.950 . S
H377 C397 0.950 . S
H378 C399 0.950 . S
H379 C402 0.950 . S
H380 C403 0.950 . S
H381 C405 0.950 . S
H382 C406 0.950 . S
H383 C407 0.951 . S
H384 C409 0.951 . S
H385 C411 0.950 . S
H386 C412 0.950 . S
H387 C414 0.950 . S
H388 C417 0.950 . S
H389 C418 0.950 . S
H390 C420 0.950 . S
H391 C421 0.950 . S
C392 H374 0.951 . S
C392 C393 1.366 . S
C392 C394 1.388 . S
C393 C392 1.366 . S
C393 C397 1.385 . S
C394 H375 0.951 . S
C394 C392 1.388 . S
C394 C395 1.366 . S
C395 C394 1.366 . S
C395 C396 1.414 . S
C395 C398 1.499 . S
C396 H376 0.950 . S
C396 C395 1.414 . S
C396 C397 1.374 . S
C397 H377 0.950 . S
C397 C393 1.385 . S
C397 C396 1.374 . S
C398 C395 1.499 . S
C398 C399 1.373 . S
C398 C400 1.389 . S
C399 H378 0.950 . S
C399 C398 1.373 . S
C399 C415 1.377 . S
C400 C398 1.389 . S
C400 C401 1.524 . S
C400 C414 1.377 . S
C401 C400 1.524 . S
C401 C402 1.397 . S
C401 C406 1.363 . S
C402 H379 0.950 . S
C402 C401 1.397 . S
C402 C403 1.334 . S
C403 H380 0.950 . S
C403 C402 1.334 . S
C403 C404 1.287 . S
C404 C403 1.287 . S
C404 C405 1.524 . S
C404 H423 0.913 . S
C405 H381 0.950 . S
C405 C404 1.524 . S
C405 C406 1.415 . S
C406 H382 0.950 . S
C406 C401 1.363 . S
C406 C405 1.415 . S
C407 H383 0.951 . S
C407 C408 1.366 . S
C407 C409 1.388 . S
C408 C407 1.366 . S
C408 C412 1.385 . S
C409 H384 0.951 . S
C409 C407 1.388 . S
C409 C410 1.366 . S
C410 C409 1.366 . S
C410 C411 1.414 . S
C410 C413 1.499 . S
C411 H385 0.950 . S
C411 C410 1.414 . S
C411 C412 1.374 . S
C412 H386 0.950 . S
C412 C408 1.385 . S
C412 C411 1.374 . S
C413 C410 1.499 . S
C413 C414 1.373 . S
C413 C415 1.389 . S
C414 H387 0.950 . S
C414 C400 1.377 . S
C414 C413 1.373 . S
C415 C399 1.377 . S
C415 C413 1.389 . S
C415 C416 1.524 . S
C416 C415 1.524 . S
C416 C417 1.397 . S
C416 C421 1.363 . S
C417 H388 0.950 . S
C417 C416 1.397 . S
C417 C418 1.334 . S
C418 H389 0.950 . S
C418 C417 1.334 . S
C418 C419 1.287 . S
C419 C418 1.287 . S
C419 C420 1.524 . S
C419 H422 0.999 . S
C420 H390 0.950 . S
C420 C419 1.524 . S
C420 C421 1.415 . S
C421 H391 0.950 . S
C421 C416 1.363 . S
C421 C420 1.415 . S
H422 C419 0.999 . S
H423 C404 0.913 . S
H424 C442 0.951 . S
H425 C444 0.951 . S
H426 C446 0.950 . S
H427 C447 0.950 . S
H428 C449 0.950 . S
H429 C452 0.950 . S
H430 C453 0.950 . S
H431 C455 0.950 . S
H432 C456 0.950 . S
H433 C457 0.951 . S
H434 C459 0.951 . S
H435 C461 0.950 . S
H436 C462 0.950 . S
H437 C464 0.950 . S
H438 C467 0.950 . S
H439 C468 0.950 . S
H440 C470 0.950 . S
H441 C471 0.950 . S
C442 H424 0.951 . S
C442 C443 1.366 . S
C442 C444 1.388 . S
C443 C442 1.366 . S
C443 C447 1.385 . S
C444 H425 0.951 . S
C444 C442 1.388 . S
C444 C445 1.366 . S
C445 C444 1.366 . S
C445 C446 1.414 . S
C445 C448 1.499 . S
C446 H426 0.950 . S
C446 C445 1.414 . S
C446 C447 1.374 . S
C447 H427 0.950 . S
C447 C443 1.385 . S
C447 C446 1.374 . S
C448 C445 1.499 . S
C448 C449 1.373 . S
C448 C450 1.389 . S
C449 H428 0.950 . S
C449 C448 1.373 . S
C449 C465 1.377 . S
C450 C448 1.389 . S
C450 C451 1.524 . S
C450 C464 1.377 . S
C451 C450 1.524 . S
C451 C452 1.397 . S
C451 C456 1.363 . S
C452 H429 0.950 . S
C452 C451 1.397 . S
C452 C453 1.334 . S
C453 H430 0.950 . S
C453 C452 1.334 . S
C453 C454 1.287 . S
C454 C453 1.287 . S
C454 C455 1.524 . S
C454 H473 0.913 . S
C455 H431 0.950 . S
C455 C454 1.524 . S
C455 C456 1.415 . S
C456 H432 0.950 . S
C456 C451 1.363 . S
C456 C455 1.415 . S
C457 H433 0.951 . S
C457 C458 1.366 . S
C457 C459 1.388 . S
C458 C457 1.366 . S
C458 C462 1.385 . S
C459 H434 0.951 . S
C459 C457 1.388 . S
C459 C460 1.366 . S
C460 C459 1.366 . S
C460 C461 1.414 . S
C460 C463 1.499 . S
C461 H435 0.950 . S
C461 C460 1.414 . S
C461 C462 1.374 . S
C462 H436 0.950 . S
C462 C458 1.385 . S
C462 C461 1.374 . S
C463 C460 1.499 . S
C463 C464 1.373 . S
C463 C465 1.389 . S
C464 H437 0.950 . S
C464 C450 1.377 . S
C464 C463 1.373 . S
C465 C449 1.377 . S
C465 C463 1.389 . S
C465 C466 1.524 . S
C466 C465 1.524 . S
C466 C467 1.397 . S
C466 C471 1.363 . S
C467 H438 0.950 . S
C467 C466 1.397 . S
C467 C468 1.334 . S
C468 H439 0.950 . S
C468 C467 1.334 . S
C468 C469 1.287 . S
C469 C468 1.287 . S
C469 C470 1.524 . S
C469 H472 0.999 . S
C470 H440 0.950 . S
C470 C469 1.524 . S
C470 C471 1.415 . S
C471 H441 0.950 . S
C471 C466 1.363 . S
C471 C470 1.415 . S
H472 C469 0.999 . S
H473 C454 0.913 . S
H474 C492 0.951 . S
H475 C494 0.951 . S
H476 C496 0.950 . S
H477 C497 0.950 . S
H478 C499 0.950 . S
H479 C502 0.950 . S
H480 C503 0.950 . S
H481 C505 0.950 . S
H482 C506 0.950 . S
H483 C507 0.951 . S
H484 C509 0.951 . S
H485 C511 0.950 . S
H486 C512 0.950 . S
H487 C514 0.950 . S
H488 C517 0.950 . S
H489 C518 0.950 . S
H490 C520 0.950 . S
H491 C521 0.950 . S
C492 H474 0.951 . S
C492 C493 1.366 . S
C492 C494 1.388 . S
C493 C492 1.366 . S
C493 C497 1.385 . S
C494 H475 0.951 . S
C494 C492 1.388 . S
C494 C495 1.366 . S
C495 C494 1.366 . S
C495 C496 1.414 . S
C495 C498 1.499 . S
C496 H476 0.950 . S
C496 C495 1.414 . S
C496 C497 1.374 . S
C497 H477 0.950 . S
C497 C493 1.385 . S
C497 C496 1.374 . S
C498 C495 1.499 . S
C498 C499 1.373 . S
C498 C500 1.389 . S
C499 H478 0.950 . S
C499 C498 1.373 . S
C499 C515 1.377 . S
C500 C498 1.389 . S
C500 C501 1.524 . S
C500 C514 1.377 . S
C501 C500 1.524 . S
C501 C502 1.397 . S
C501 C506 1.363 . S
C502 H479 0.950 . S
C502 C501 1.397 . S
C502 C503 1.334 . S
C503 H480 0.950 . S
C503 C502 1.334 . S
C503 C504 1.287 . S
C504 C503 1.287 . S
C504 C505 1.524 . S
C504 H523 0.913 . S
C505 H481 0.950 . S
C505 C504 1.524 . S
C505 C506 1.415 . S
C506 H482 0.950 . S
C506 C501 1.363 . S
C506 C505 1.415 . S
C507 H483 0.951 . S
C507 C508 1.366 . S
C507 C509 1.388 . S
C508 C507 1.366 . S
C508 C512 1.385 . S
C509 H484 0.951 . S
C509 C507 1.388 . S
C509 C510 1.366 . S
C510 C509 1.366 . S
C510 C511 1.414 . S
C510 C513 1.499 . S
C511 H485 0.950 . S
C511 C510 1.414 . S
C511 C512 1.374 . S
C512 H486 0.950 . S
C512 C508 1.385 . S
C512 C511 1.374 . S
C513 C510 1.499 . S
C513 C514 1.373 . S
C513 C515 1.389 . S
C514 H487 0.950 . S
C514 C500 1.377 . S
C514 C513 1.373 . S
C515 C499 1.377 . S
C515 C513 1.389 . S
C515 C516 1.524 . S
C516 C515 1.524 . S
C516 C517 1.397 . S
C516 C521 1.363 . S
C517 H488 0.950 . S
C517 C516 1.397 . S
C517 C518 1.334 . S
C518 H489 0.950 . S
C518 C517 1.334 . S
C518 C519 1.287 . S
C519 C518 1.287 . S
C519 C520 1.524 . S
C519 H522 0.999 . S
C520 H490 0.950 . S
C520 C519 1.524 . S
C520 C521 1.415 . S
C521 H491 0.950 . S
C521 C516 1.363 . S
C521 C520 1.415 . S
H522 C519 0.999 . S
H523 C504 0.913 . S
H524 C542 0.951 . S
H525 C544 0.951 . S
H526 C546 0.950 . S
H527 C547 0.950 . S
H528 C549 0.950 . S
H529 C552 0.950 . S
H530 C553 0.950 . S
H531 C555 0.950 . S
H532 C556 0.950 . S
H533 C557 0.951 . S
H534 C559 0.951 . S
H535 C561 0.950 . S
H536 C562 0.950 . S
H537 C564 0.950 . S
H538 C567 0.950 . S
H539 C568 0.950 . S
H540 C570 0.950 . S
H541 C571 0.950 . S
C542 H524 0.951 . S
C542 C543 1.366 . S
C542 C544 1.388 . S
C543 C542 1.366 . S
C543 C547 1.385 . S
C544 H525 0.951 . S
C544 C542 1.388 . S
C544 C545 1.366 . S
C545 C544 1.366 . S
C545 C546 1.414 . S
C545 C548 1.499 . S
C546 H526 0.950 . S
C546 C545 1.414 . S
C546 C547 1.374 . S
C547 H527 0.950 . S
C547 C543 1.385 . S
C547 C546 1.374 . S
C548 C545 1.499 . S
C548 C549 1.373 . S
C548 C550 1.389 . S
C549 H528 0.950 . S
C549 C548 1.373 . S
C549 C565 1.377 . S
C550 C548 1.389 . S
C550 C551 1.524 . S
C550 C564 1.377 . S
C551 C550 1.524 . S
C551 C552 1.397 . S
C551 C556 1.363 . S
C552 H529 0.950 . S
C552 C551 1.397 . S
C552 C553 1.334 . S
C553 H530 0.950 . S
C553 C552 1.334 . S
C553 C554 1.287 . S
C554 C553 1.287 . S
C554 C555 1.524 . S
C554 H573 0.913 . S
C555 H531 0.950 . S
C555 C554 1.524 . S
C555 C556 1.415 . S
C556 H532 0.950 . S
C556 C551 1.363 . S
C556 C555 1.415 . S
C557 H533 0.951 . S
C557 C558 1.366 . S
C557 C559 1.388 . S
C558 C557 1.366 . S
C558 C562 1.385 . S
C559 H534 0.951 . S
C559 C557 1.388 . S
C559 C560 1.366 . S
C560 C559 1.366 . S
C560 C561 1.414 . S
C560 C563 1.499 . S
C561 H535 0.950 . S
C561 C560 1.414 . S
C561 C562 1.374 . S
C562 H536 0.950 . S
C562 C558 1.385 . S
C562 C561 1.374 . S
C563 C560 1.499 . S
C563 C564 1.373 . S
C563 C565 1.389 . S
C564 H537 0.950 . S
C564 C550 1.377 . S
C564 C563 1.373 . S
C565 C549 1.377 . S
C565 C563 1.389 . S
C565 C566 1.524 . S
C566 C565 1.524 . S
C566 C567 1.397 . S
C566 C571 1.363 . S
C567 H538 0.950 . S
C567 C566 1.397 . S
C567 C568 1.334 . S
C568 H539 0.950 . S
C568 C567 1.334 . S
C568 C569 1.287 . S
C569 C568 1.287 . S
C569 C570 1.524 . S
C569 H572 0.999 . S
C570 H540 0.950 . S
C570 C569 1.524 . S
C570 C571 1.415 . S
C571 H541 0.950 . S
C571 C566 1.363 . S
C571 C570 1.415 . S
H572 C569 0.999 . S
H573 C554 0.913 . S
H574 C592 0.951 . S
H575 C594 0.951 . S
H576 C596 0.950 . S
H577 C597 0.950 . S
H578 C599 0.950 . S
H579 C602 0.950 . S
H580 C603 0.950 . S
H581 C605 0.950 . S
H582 C606 0.950 . S
H583 C607 0.951 . S
H584 C609 0.951 . S
H585 C611 0.950 . S
H586 C612 0.950 . S
H587 C614 0.950 . S
H588 C617 0.950 . S
H589 C618 0.950 . S
H590 C620 0.950 . S
H591 C621 0.950 . S
C592 H574 0.951 . S
C592 C593 1.366 . S
C592 C594 1.388 . S
C593 C592 1.366 . S
C593 C597 1.385 . S
C594 H575 0.951 . S
C594 C592 1.388 . S
C594 C595 1.366 . S
C595 C594 1.366 . S
C595 C596 1.414 . S
C595 C598 1.499 . S
C596 H576 0.950 . S
C596 C595 1.414 . S
C596 C597 1.374 . S
C597 H577 0.950 . S
C597 C593 1.385 . S
C597 C596 1.374 . S
C598 C595 1.499 . S
C598 C599 1.373 . S
C598 C600 1.389 . S
C599 H578 0.950 . S
C599 C598 1.373 . S
C599 C615 1.377 . S
C600 C598 1.389 . S
C600 C601 1.524 . S
C600 C614 1.377 . S
C601 C600 1.524 . S
C601 C602 1.397 . S
C601 C606 1.363 . S
C602 H579 0.950 . S
C602 C601 1.397 . S
C602 C603 1.334 . S
C603 H580 0.950 . S
C603 C602 1.334 . S
C603 C604 1.287 . S
C604 C603 1.287 . S
C604 C605 1.524 . S
C604 H623 0.913 . S
C605 H581 0.950 . S
C605 C604 1.524 . S
C605 C606 1.415 . S
C606 H582 0.950 . S
C606 C601 1.363 . S
C606 C605 1.415 . S
C607 H583 0.951 . S
C607 C608 1.366 . S
C607 C609 1.388 . S
C608 C607 1.366 . S
C608 C612 1.385 . S
C609 H584 0.951 . S
C609 C607 1.388 . S
C609 C610 1.366 . S
C610 C609 1.366 . S
C610 C611 1.414 . S
C610 C613 1.499 . S
C611 H585 0.950 . S
C611 C610 1.414 . S
C611 C612 1.374 . S
C612 H586 0.950 . S
C612 C608 1.385 . S
C612 C611 1.374 . S
C613 C610 1.499 . S
C613 C614 1.373 . S
C613 C615 1.389 . S
C614 H587 0.950 . S
C614 C600 1.377 . S
C614 C613 1.373 . S
C615 C599 1.377 . S
C615 C613 1.389 . S
C615 C616 1.524 . S
C616 C615 1.524 . S
C616 C617 1.397 . S
C616 C621 1.363 . S
C617 H588 0.950 . S
C617 C616 1.397 . S
C617 C618 1.334 . S
C618 H589 0.950 . S
C618 C617 1.334 . S
C618 C619 1.287 . S
C619 C618 1.287 . S
C619 C620 1.524 . S
C619 H622 0.999 . S
C620 H590 0.950 . S
C620 C619 1.524 . S
C620 C621 1.415 . S
C621 H591 0.950 . S
C621 C616 1.363 . S
C621 C620 1.415 . S
H622 C619 0.999 . S
H623 C604 0.913 . S
H624 C642 0.951 . S
H625 C644 0.951 . S
H626 C646 0.950 . S
H627 C647 0.950 . S
H628 C649 0.950 . S
H629 C652 0.950 . S
H630 C653 0.950 . S
H631 C655 0.950 . S
H632 C656 0.950 . S
H633 C657 0.951 . S
H634 C659 0.951 . S
H635 C661 0.950 . S
H636 C662 0.950 . S
H637 C664 0.950 . S
H638 C667 0.950 . S
H639 C668 0.950 . S
H640 C670 0.950 . S
H641 C671 0.950 . S
C642 H624 0.951 . S
C642 C643 1.366 . S
C642 C644 1.388 . S
C643 C642 1.366 . S
C643 C647 1.385 . S
C644 H625 0.951 . S
C644 C642 1.388 . S
C644 C645 1.366 . S
C645 C644 1.366 . S
C645 C646 1.414 . S
C645 C648 1.499 . S
C646 H626 0.950 . S
C646 C645 1.414 . S
C646 C647 1.374 . S
C647 H627 0.950 . S
C647 C643 1.385 . S
C647 C646 1.374 . S
C648 C645 1.499 . S
C648 C649 1.373 . S
C648 C650 1.389 . S
C649 H628 0.950 . S
C649 C648 1.373 . S
C649 C665 1.377 . S
C650 C648 1.389 . S
C650 C651 1.524 . S
C650 C664 1.377 . S
C651 C650 1.524 . S
C651 C652 1.397 . S
C651 C656 1.363 . S
C652 H629 0.950 . S
C652 C651 1.397 . S
C652 C653 1.334 . S
C653 H630 0.950 . S
C653 C652 1.334 . S
C653 C654 1.287 . S
C654 C653 1.287 . S
C654 C655 1.524 . S
C654 H673 0.913 . S
C655 H631 0.950 . S
C655 C654 1.524 . S
C655 C656 1.415 . S
C656 H632 0.950 . S
C656 C651 1.363 . S
C656 C655 1.415 . S
C657 H633 0.951 . S
C657 C658 1.366 . S
C657 C659 1.388 . S
C658 C657 1.366 . S
C658 C662 1.385 . S
C659 H634 0.951 . S
C659 C657 1.388 . S
C659 C660 1.366 . S
C660 C659 1.366 . S
C660 C661 1.414 . S
C660 C663 1.499 . S
C661 H635 0.950 . S
C661 C660 1.414 . S
C661 C662 1.374 . S
C662 H636 0.950 . S
C662 C658 1.385 . S
C662 C661 1.374 . S
C663 C660 1.499 . S
C663 C664 1.373 . S
C663 C665 1.389 . S
C664 H637 0.950 . S
C664 C650 1.377 . S
C664 C663 1.373 . S
C665 C649 1.377 . S
C665 C663 1.389 . S
C665 C666 1.524 . S
C666 C665 1.524 . S
C666 C667 1.397 . S
C666 C671 1.363 . S
C667 H638 0.950 . S
C667 C666 1.397 . S
C667 C668 1.334 . S
C668 H639 0.950 . S
C668 C667 1.334 . S
C668 C669 1.287 . S
C669 C668 1.287 . S
C669 C670 1.524 . S
C669 H672 0.999 . S
C670 H640 0.950 . S
C670 C669 1.524 . S
C670 C671 1.415 . S
C671 H641 0.950 . S
C671 C666 1.363 . S
C671 C670 1.415 . S
H672 C669 0.999 . S
H673 C654 0.913 . S
H674 C692 0.951 . S
H675 C694 0.951 . S
H676 C696 0.950 . S
H677 C697 0.950 . S
H678 C699 0.950 . S
H679 C702 0.950 . S
H680 C703 0.950 . S
H681 C705 0.950 . S
H682 C706 0.950 . S
H683 C707 0.951 . S
H684 C709 0.951 . S
H685 C711 0.950 . S
H686 C712 0.950 . S
H687 C714 0.950 . S
H688 C717 0.950 . S
H689 C718 0.950 . S
H690 C720 0.950 . S
H691 C721 0.950 . S
C692 H674 0.951 . S
C692 C693 1.366 . S
C692 C694 1.388 . S
C693 C692 1.366 . S
C693 C697 1.385 . S
C694 H675 0.951 . S
C694 C692 1.388 . S
C694 C695 1.366 . S
C695 C694 1.366 . S
C695 C696 1.414 . S
C695 C698 1.499 . S
C696 H676 0.950 . S
C696 C695 1.414 . S
C696 C697 1.374 . S
C697 H677 0.950 . S
C697 C693 1.385 . S
C697 C696 1.374 . S
C698 C695 1.499 . S
C698 C699 1.373 . S
C698 C700 1.389 . S
C699 H678 0.950 . S
C699 C698 1.373 . S
C699 C715 1.377 . S
C700 C698 1.389 . S
C700 C701 1.524 . S
C700 C714 1.377 . S
C701 C700 1.524 . S
C701 C702 1.397 . S
C701 C706 1.363 . S
C702 H679 0.950 . S
C702 C701 1.397 . S
C702 C703 1.334 . S
C703 H680 0.950 . S
C703 C702 1.334 . S
C703 C704 1.287 . S
C704 C703 1.287 . S
C704 C705 1.524 . S
C704 H723 0.913 . S
C705 H681 0.950 . S
C705 C704 1.524 . S
C705 C706 1.415 . S
C706 H682 0.950 . S
C706 C701 1.363 . S
C706 C705 1.415 . S
C707 H683 0.951 . S
C707 C708 1.366 . S
C707 C709 1.388 . S
C708 C707 1.366 . S
C708 C712 1.385 . S
C709 H684 0.951 . S
C709 C707 1.388 . S
C709 C710 1.366 . S
C710 C709 1.366 . S
C710 C711 1.414 . S
C710 C713 1.499 . S
C711 H685 0.950 . S
C711 C710 1.414 . S
C711 C712 1.374 . S
C712 H686 0.950 . S
C712 C708 1.385 . S
C712 C711 1.374 . S
C713 C710 1.499 . S
C713 C714 1.373 . S
C713 C715 1.389 . S
C714 H687 0.950 . S
C714 C700 1.377 . S
C714 C713 1.373 . S
C715 C699 1.377 . S
C715 C713 1.389 . S
C715 C716 1.524 . S
C716 C715 1.524 . S
C716 C717 1.397 . S
C716 C721 1.363 . S
C717 H688 0.950 . S
C717 C716 1.397 . S
C717 C718 1.334 . S
C718 H689 0.950 . S
C718 C717 1.334 . S
C718 C719 1.287 . S
C719 C718 1.287 . S
C719 C720 1.524 . S
C719 H722 0.999 . S
C720 H690 0.950 . S
C720 C719 1.524 . S
C720 C721 1.415 . S
C721 H691 0.950 . S
C721 C716 1.363 . S
C721 C720 1.415 . S
H722 C719 0.999 . S
H723 C704 0.913 . S
H724 C742 0.951 . S
H725 C744 0.951 . S
H726 C746 0.950 . S
H727 C747 0.950 . S
H728 C749 0.950 . S
H729 C752 0.950 . S
H730 C753 0.950 . S
H731 C755 0.950 . S
H732 C756 0.950 . S
H733 C757 0.951 . S
H734 C759 0.951 . S
H735 C761 0.950 . S
H736 C762 0.950 . S
H737 C764 0.950 . S
H738 C767 0.950 . S
H739 C768 0.950 . S
H740 C770 0.950 . S
H741 C771 0.950 . S
C742 H724 0.951 . S
C742 C743 1.366 . S
C742 C744 1.388 . S
C743 C742 1.366 . S
C743 C747 1.385 . S
C744 H725 0.951 . S
C744 C742 1.388 . S
C744 C745 1.366 . S
C745 C744 1.366 . S
C745 C746 1.414 . S
C745 C748 1.499 . S
C746 H726 0.950 . S
C746 C745 1.414 . S
C746 C747 1.374 . S
C747 H727 0.950 . S
C747 C743 1.385 . S
C747 C746 1.374 . S
C748 C745 1.499 . S
C748 C749 1.373 . S
C748 C750 1.389 . S
C749 H728 0.950 . S
C749 C748 1.373 . S
C749 C765 1.377 . S
C750 C748 1.389 . S
C750 C751 1.524 . S
C750 C764 1.377 . S
C751 C750 1.524 . S
C751 C752 1.397 . S
C751 C756 1.363 . S
C752 H729 0.950 . S
C752 C751 1.397 . S
C752 C753 1.334 . S
C753 H730 0.950 . S
C753 C752 1.334 . S
C753 C754 1.287 . S
C754 C753 1.287 . S
C754 C755 1.524 . S
C754 H773 0.913 . S
C755 H731 0.950 . S
C755 C754 1.524 . S
C755 C756 1.415 . S
C756 H732 0.950 . S
C756 C751 1.363 . S
C756 C755 1.415 . S
C757 H733 0.951 . S
C757 C758 1.366 . S
C757 C759 1.388 . S
C758 C757 1.366 . S
C758 C762 1.385 . S
C759 H734 0.951 . S
C759 C757 1.388 . S
C759 C760 1.366 . S
C760 C759 1.366 . S
C760 C761 1.414 . S
C760 C763 1.499 . S
C761 H735 0.950 . S
C761 C760 1.414 . S
C761 C762 1.374 . S
C762 H736 0.950 . S
C762 C758 1.385 . S
C762 C761 1.374 . S
C763 C760 1.499 . S
C763 C764 1.373 . S
C763 C765 1.389 . S
C764 H737 0.950 . S
C764 C750 1.377 . S
C764 C763 1.373 . S
C765 C749 1.377 . S
C765 C763 1.389 . S
C765 C766 1.524 . S
C766 C765 1.524 . S
C766 C767 1.397 . S
C766 C771 1.363 . S
C767 H738 0.950 . S
C767 C766 1.397 . S
C767 C768 1.334 . S
C768 H739 0.950 . S
C768 C767 1.334 . S
C768 C769 1.287 . S
C769 C768 1.287 . S
C769 C770 1.524 . S
C769 H772 0.999 . S
C770 H740 0.950 . S
C770 C769 1.524 . S
C770 C771 1.415 . S
C771 H741 0.950 . S
C771 C766 1.363 . S
C771 C770 1.415 . S
H772 C769 0.999 . S
H773 C754 0.913 . S
H774 C792 0.951 . S
H775 C794 0.951 . S
H776 C796 0.950 . S
H777 C797 0.950 . S
H778 C799 0.950 . S
H779 C802 0.950 . S
H780 C803 0.950 . S
H781 C805 0.950 . S
H782 C806 0.950 . S
H783 C807 0.951 . S
H784 C809 0.951 . S
H785 C811 0.950 . S
H786 C812 0.950 . S
H787 C814 0.950 . S
H788 C817 0.950 . S
H789 C818 0.950 . S
H790 C820 0.950 . S
H791 C821 0.950 . S
C792 H774 0.951 . S
C792 C793 1.366 . S
C792 C794 1.388 . S
C793 C792 1.366 . S
C793 C797 1.385 . S
C794 H775 0.951 . S
C794 C792 1.388 . S
C794 C795 1.366 . S
C795 C794 1.366 . S
C795 C796 1.414 . S
C795 C798 1.499 . S
C796 H776 0.950 . S
C796 C795 1.414 . S
C796 C797 1.374 . S
C797 H777 0.950 . S
C797 C793 1.385 . S
C797 C796 1.374 . S
C798 C795 1.499 . S
C798 C799 1.373 . S
C798 C800 1.389 . S
C799 H778 0.950 . S
C799 C798 1.373 . S
C799 C815 1.377 . S
C800 C798 1.389 . S
C800 C801 1.524 . S
C800 C814 1.377 . S
C801 C800 1.524 . S
C801 C802 1.397 . S
C801 C806 1.363 . S
C802 H779 0.950 . S
C802 C801 1.397 . S
C802 C803 1.334 . S
C803 H780 0.950 . S
C803 C802 1.334 . S
C803 C804 1.287 . S
C804 C803 1.287 . S
C804 C805 1.524 . S
C804 H823 0.913 . S
C805 H781 0.950 . S
C805 C804 1.524 . S
C805 C806 1.415 . S
C806 H782 0.950 . S
C806 C801 1.363 . S
C806 C805 1.415 . S
C807 H783 0.951 . S
C807 C808 1.366 . S
C807 C809 1.388 . S
C808 C807 1.366 . S
C808 C812 1.385 . S
C809 H784 0.951 . S
C809 C807 1.388 . S
C809 C810 1.366 . S
C810 C809 1.366 . S
C810 C811 1.414 . S
C810 C813 1.499 . S
C811 H785 0.950 . S
C811 C810 1.414 . S
C811 C812 1.374 . S
C812 H786 0.950 . S
C812 C808 1.385 . S
C812 C811 1.374 . S
C813 C810 1.499 . S
C813 C814 1.373 . S
C813 C815 1.389 . S
C814 H787 0.950 . S
C814 C800 1.377 . S
C814 C813 1.373 . S
C815 C799 1.377 . S
C815 C813 1.389 . S
C815 C816 1.524 . S
C816 C815 1.524 . S
C816 C817 1.397 . S
C816 C821 1.363 . S
C817 H788 0.950 . S
C817 C816 1.397 . S
C817 C818 1.334 . S
C818 H789 0.950 . S
C818 C817 1.334 . S
C818 C819 1.287 . S
C819 C818 1.287 . S
C819 C820 1.524 . S
C819 H822 0.999 . S
C820 H790 0.950 . S
C820 C819 1.524 . S
C820 C821 1.415 . S
C821 H791 0.950 . S
C821 C816 1.363 . S
C821 C820 1.415 . S
H822 C819 0.999 . S
H823 C804 0.913 . S
H824 C842 0.951 . S
H825 C844 0.951 . S
H826 C846 0.950 . S
H827 C847 0.950 . S
H828 C849 0.950 . S
H829 C852 0.950 . S
H830 C853 0.950 . S
H831 C855 0.950 . S
H832 C856 0.950 . S
H833 C857 0.951 . S
H834 C859 0.951 . S
H835 C861 0.950 . S
H836 C862 0.950 . S
H837 C864 0.950 . S
H838 C867 0.950 . S
H839 C868 0.950 . S
H840 C870 0.950 . S
H841 C871 0.950 . S
C842 H824 0.951 . S
C842 C843 1.366 . S
C842 C844 1.388 . S
C843 C842 1.366 . S
C843 C847 1.385 . S
C844 H825 0.951 . S
C844 C842 1.388 . S
C844 C845 1.366 . S
C845 C844 1.366 . S
C845 C846 1.414 . S
C845 C848 1.499 . S
C846 H826 0.950 . S
C846 C845 1.414 . S
C846 C847 1.374 . S
C847 H827 0.950 . S
C847 C843 1.385 . S
C847 C846 1.374 . S
C848 C845 1.499 . S
C848 C849 1.373 . S
C848 C850 1.389 . S
C849 H828 0.950 . S
C849 C848 1.373 . S
C849 C865 1.377 . S
C850 C848 1.389 . S
C850 C851 1.524 . S
C850 C864 1.377 . S
C851 C850 1.524 . S
C851 C852 1.397 . S
C851 C856 1.363 . S
C852 H829 0.950 . S
C852 C851 1.397 . S
C852 C853 1.334 . S
C853 H830 0.950 . S
C853 C852 1.334 . S
C853 C854 1.287 . S
C854 C853 1.287 . S
C854 C855 1.524 . S
C854 H873 0.913 . S
C855 H831 0.950 . S
C855 C854 1.524 . S
C855 C856 1.415 . S
C856 H832 0.950 . S
C856 C851 1.363 . S
C856 C855 1.415 . S
C857 H833 0.951 . S
C857 C858 1.366 . S
C857 C859 1.388 . S
C858 C857 1.366 . S
C858 C862 1.385 . S
C859 H834 0.951 . S
C859 C857 1.388 . S
C859 C860 1.366 . S
C860 C859 1.366 . S
C860 C861 1.414 . S
C860 C863 1.499 . S
C861 H835 0.950 . S
C861 C860 1.414 . S
C861 C862 1.374 . S
C862 H836 0.950 . S
C862 C858 1.385 . S
C862 C861 1.374 . S
C863 C860 1.499 . S
C863 C864 1.373 . S
C863 C865 1.389 . S
C864 H837 0.950 . S
C864 C850 1.377 . S
C864 C863 1.373 . S
C865 C849 1.377 . S
C865 C863 1.389 . S
C865 C866 1.524 . S
C866 C865 1.524 . S
C866 C867 1.397 . S
C866 C871 1.363 . S
C867 H838 0.950 . S
C867 C866 1.397 . S
C867 C868 1.334 . S
C868 H839 0.950 . S
C868 C867 1.334 . S
C868 C869 1.287 . S
C869 C868 1.287 . S
C869 C870 1.524 . S
C869 H872 0.999 . S
C870 H840 0.950 . S
C870 C869 1.524 . S
C870 C871 1.415 . S
C871 H841 0.950 . S
C871 C866 1.363 . S
C871 C870 1.415 . S
H872 C869 0.999 . S
H873 C854 0.913 . S
H874 C892 0.951 . S
H875 C894 0.951 . S
H876 C896 0.950 . S
H877 C897 0.950 . S
H878 C899 0.950 . S
H879 C902 0.950 . S
H880 C903 0.950 . S
H881 C905 0.950 . S
H882 C906 0.950 . S
H883 C907 0.951 . S
H884 C909 0.951 . S
H885 C911 0.950 . S
H886 C912 0.950 . S
H887 C914 0.950 . S
H888 C917 0.950 . S
H889 C918 0.950 . S
H890 C920 0.950 . S
H891 C921 0.950 . S
C892 H874 0.951 . S
C892 C893 1.366 . S
C892 C894 1.388 . S
C893 C892 1.366 . S
C893 C897 1.385 . S
C894 H875 0.951 . S
C894 C892 1.388 . S
C894 C895 1.366 . S
C895 C894 1.366 . S
C895 C896 1.414 . S
C895 C898 1.499 . S
C896 H876 0.950 . S
C896 C895 1.414 . S
C896 C897 1.374 . S
C897 H877 0.950 . S
C897 C893 1.385 . S
C897 C896 1.374 . S
C898 C895 1.499 . S
C898 C899 1.373 . S
C898 C900 1.389 . S
C899 H878 0.950 . S
C899 C898 1.373 . S
C899 C915 1.377 . S
C900 C898 1.389 . S
C900 C901 1.524 . S
C900 C914 1.377 . S
C901 C900 1.524 . S
C901 C902 1.397 . S
C901 C906 1.363 . S
C902 H879 0.950 . S
C902 C901 1.397 . S
C902 C903 1.334 . S
C903 H880 0.950 . S
C903 C902 1.334 . S
C903 C904 1.287 . S
C904 C903 1.287 . S
C904 C905 1.524 . S
C904 H923 0.913 . S
C905 H881 0.950 . S
C905 C904 1.524 . S
C905 C906 1.415 . S
C906 H882 0.950 . S
C906 C901 1.363 . S
C906 C905 1.415 . S
C907 H883 0.951 . S
C907 C908 1.366 . S
C907 C909 1.388 . S
C908 C907 1.366 . S
C908 C912 1.385 . S
C909 H884 0.951 . S
C909 C907 1.388 . S
C909 C910 1.366 . S
C910 C909 1.366 . S
C910 C911 1.414 . S
C910 C913 1.499 . S
C911 H885 0.950 . S
C911 C910 1.414 . S
C911 C912 1.374 . S
C912 H886 0.950 . S
C912 C908 1.385 . S
C912 C911 1.374 . S
C913 C910 1.499 . S
C913 C914 1.373 . S
C913 C915 1.389 . S
C914 H887 0.950 . S
C914 C900 1.377 . S
C914 C913 1.373 . S
C915 C899 1.377 . S
C915 C913 1.389 . S
C915 C916 1.524 . S
C916 C915 1.524 . S
C916 C917 1.397 . S
C916 C921 1.363 . S
C917 H888 0.950 . S
C917 C916 1.397 . S
C917 C918 1.334 . S
C918 H889 0.950 . S
C918 C917 1.334 . S
C918 C919 1.287 . S
C919 C918 1.287 . S
C919 C920 1.524 . S
C919 H922 0.999 . S
C920 H890 0.950 . S
C920 C919 1.524 . S
C920 C921 1.415 . S
C921 H891 0.950 . S
C921 C916 1.363 . S
C921 C920 1.415 . S
H922 C919 0.999 . S
H923 C904 0.913 . S
H924 C942 0.951 . S
H925 C944 0.951 . S
H926 C946 0.950 . S
H927 C947 0.950 . S
H928 C949 0.950 . S
H929 C952 0.950 . S
H930 C953 0.950 . S
H931 C955 0.950 . S
H932 C956 0.950 . S
H933 C957 0.951 . S
H934 C959 0.951 . S
H935 C961 0.950 . S
H936 C962 0.950 . S
H937 C964 0.950 . S
H938 C967 0.950 . S
H939 C968 0.950 . S
H940 C970 0.950 . S
H941 C971 0.950 . S
C942 H924 0.951 . S
C942 C943 1.366 . S
C942 C944 1.388 . S
C943 C942 1.366 . S
C943 C947 1.385 . S
C944 H925 0.951 . S
C944 C942 1.388 . S
C944 C945 1.366 . S
C945 C944 1.366 . S
C945 C946 1.414 . S
C945 C948 1.499 . S
C946 H926 0.950 . S
C946 C945 1.414 . S
C946 C947 1.374 . S
C947 H927 0.950 . S
C947 C943 1.385 . S
C947 C946 1.374 . S
C948 C945 1.499 . S
C948 C949 1.373 . S
C948 C950 1.389 . S
C949 H928 0.950 . S
C949 C948 1.373 . S
C949 C965 1.377 . S
C950 C948 1.389 . S
C950 C951 1.524 . S
C950 C964 1.377 . S
C951 C950 1.524 . S
C951 C952 1.397 . S
C951 C956 1.363 . S
C952 H929 0.950 . S
C952 C951 1.397 . S
C952 C953 1.334 . S
C953 H930 0.950 . S
C953 C952 1.334 . S
C953 C954 1.287 . S
C954 C953 1.287 . S
C954 C955 1.524 . S
C954 H973 0.913 . S
C955 H931 0.950 . S
C955 C954 1.524 . S
C955 C956 1.415 . S
C956 H932 0.950 . S
C956 C951 1.363 . S
C956 C955 1.415 . S
C957 H933 0.951 . S
C957 C958 1.366 . S
C957 C959 1.388 . S
C958 C957 1.366 . S
C958 C962 1.385 . S
C959 H934 0.951 . S
C959 C957 1.388 . S
C959 C960 1.366 . S
C960 C959 1.366 . S
C960 C961 1.414 . S
C960 C963 1.499 . S
C961 H935 0.950 . S
C961 C960 1.414 . S
C961 C962 1.374 . S
C962 H936 0.950 . S
C962 C958 1.385 . S
C962 C961 1.374 . S
C963 C960 1.499 . S
C963 C964 1.373 . S
C963 C965 1.389 . S
C964 H937 0.950 . S
C964 C950 1.377 . S
C964 C963 1.373 . S
C965 C949 1.377 . S
C965 C963 1.389 . S
C965 C966 1.524 . S
C966 C965 1.524 . S
C966 C967 1.397 . S
C966 C971 1.363 . S
C967 H938 0.950 . S
C967 C966 1.397 . S
C967 C968 1.334 . S
C968 H939 0.950 . S
C968 C967 1.334 . S
C968 C969 1.287 . S
C969 C968 1.287 . S
C969 C970 1.524 . S
C969 H972 0.999 . S
C970 H940 0.950 . S
C970 C969 1.524 . S
C970 C971 1.415 . S
C971 H941 0.950 . S
C971 C966 1.363 . S
C971 C970 1.415 . S
H972 C969 0.999 . S
H973 C954 0.913 . S
H974 C992 0.951 . S
H975 C994 0.951 . S
H976 C996 0.950 . S
H977 C997 0.950 . S
H978 C999 0.950 . S
H979 C1002 0.950 . S
H980 C1003 0.950 . S
H981 C1005 0.950 . S
H982 C1006 0.950 . S
H983 C1007 0.951 . S
H984 C1009 0.951 . S
H985 C1011 0.950 . S
H986 C1012 0.950 . S
H987 C1014 0.950 . S
H988 C1017 0.950 . S
H989 C1018 0.950 . S
H990 C1020 0.950 . S
H991 C1021 0.950 . S
C992 H974 0.951 . S
C992 C993 1.366 . S
C992 C994 1.388 . S
C993 C992 1.366 . S
C993 C997 1.385 . S
C994 H975 0.951 . S
C994 C992 1.388 . S
C994 C995 1.366 . S
C995 C994 1.366 . S
C995 C996 1.414 . S
C995 C998 1.499 . S
C996 H976 0.950 . S
C996 C995 1.414 . S
C996 C997 1.374 . S
C997 H977 0.950 . S
C997 C993 1.385 . S
C997 C996 1.374 . S
C998 C995 1.499 . S
C998 C999 1.373 . S
C998 C1000 1.389 . S
C999 H978 0.950 . S
C999 C998 1.373 . S
C999 C1015 1.377 . S
C1000 C998 1.389 . S
C1000 C1001 1.524 . S
C1000 C1014 1.377 . S
C1001 C1000 1.524 . S
C1001 C1002 1.397 . S
C1001 C1006 1.363 . S
C1002 H979 0.950 . S
C1002 C1001 1.397 . S
C1002 C1003 1.334 . S
C1003 H980 0.950 . S
C1003 C1002 1.334 . S
C1003 C1004 1.287 . S
C1004 C1003 1.287 . S
C1004 C1005 1.524 . S
C1004 H1023 0.913 . S
C1005 H981 0.950 . S
C1005 C1004 1.524 . S
C1005 C1006 1.415 . S
C1006 H982 0.950 . S
C1006 C1001 1.363 . S
C1006 C1005 1.415 . S
C1007 H983 0.951 . S
C1007 C1008 1.366 . S
C1007 C1009 1.388 . S
C1008 C1007 1.366 . S
C1008 C1012 1.385 . S
C1009 H984 0.951 . S
C1009 C1007 1.388 . S
C1009 C1010 1.366 . S
C1010 C1009 1.366 . S
C1010 C1011 1.414 . S
C1010 C1013 1.499 . S
C1011 H985 0.950 . S
C1011 C1010 1.414 . S
C1011 C1012 1.374 . S
C1012 H986 0.950 . S
C1012 C1008 1.385 . S
C1012 C1011 1.374 . S
C1013 C1010 1.499 . S
C1013 C1014 1.373 . S
C1013 C1015 1.389 . S
C1014 H987 0.950 . S
C1014 C1000 1.377 . S
C1014 C1013 1.373 . S
C1015 C999 1.377 . S
C1015 C1013 1.389 . S
C1015 C1016 1.524 . S
C1016 C1015 1.524 . S
C1016 C1017 1.397 . S
C1016 C1021 1.363 . S
C1017 H988 0.950 . S
C1017 C1016 1.397 . S
C1017 C1018 1.334 . S
C1018 H989 0.950 . S
C1018 C1017 1.334 . S
C1018 C1019 1.287 . S
C1019 C1018 1.287 . S
C1019 C1020 1.524 . S
C1019 H1022 0.999 . S
C1020 H990 0.950 . S
C1020 C1019 1.524 . S
C1020 C1021 1.415 . S
C1021 H991 0.950 . S
C1021 C1016 1.363 . S
C1021 C1020 1.415 . S
H1022 C1019 0.999 . S
H1023 C1004 0.913 . S
H1024 C1042 0.951 . S
H1025 C1044 0.951 . S
H1026 C1046 0.950 . S
H1027 C1047 0.950 1_565 S
H1028 C1049 0.950 . S
H1029 C1052 0.950 . S
H1030 C1053 0.950 . S
H1031 C1055 0.950 . S
H1032 C1056 0.950 . S
H1033 C1057 0.951 . S
H1034 C1059 0.951 . S
H1035 C1061 0.950 . S
H1036 C1062 0.950 . S
H1037 C1064 0.950 . S
H1038 C1067 0.950 . S
H1039 C1068 0.950 . S
H1040 C1070 0.950 . S
H1041 C1071 0.950 . S
C1042 H1024 0.951 . S
C1042 C1043 1.366 . S
C1042 C1044 1.388 . S
C1043 C1042 1.366 . S
C1043 C1047 1.385 . S
C1044 H1025 0.951 . S
C1044 C1042 1.388 . S
C1044 C1045 1.366 . S
C1045 C1044 1.366 . S
C1045 C1046 1.414 . S
C1045 C1048 1.499 . S
C1046 H1026 0.950 . S
C1046 C1045 1.414 . S
C1046 C1047 1.374 . S
C1047 H1027 0.950 1_545 S
C1047 C1043 1.385 . S
C1047 C1046 1.374 . S
C1048 C1045 1.499 . S
C1048 C1049 1.373 . S
C1048 C1050 1.389 . S
C1049 H1028 0.950 . S
C1049 C1048 1.373 . S
C1049 C1065 1.377 . S
C1050 C1048 1.389 . S
C1050 C1051 1.524 . S
C1050 C1064 1.377 . S
C1051 C1050 1.524 . S
C1051 C1052 1.397 . S
C1051 C1056 1.363 . S
C1052 H1029 0.950 . S
C1052 C1051 1.397 . S
C1052 C1053 1.334 . S
C1053 H1030 0.950 . S
C1053 C1052 1.334 . S
C1053 C1054 1.287 . S
C1054 C1053 1.287 . S
C1054 C1055 1.524 . S
C1054 H1073 0.913 . S
C1055 H1031 0.950 . S
C1055 C1054 1.524 . S
C1055 C1056 1.415 . S
C1056 H1032 0.950 . S
C1056 C1051 1.363 . S
C1056 C1055 1.415 . S
C1057 H1033 0.951 . S
C1057 C1058 1.366 . S
C1057 C1059 1.388 . S
C1058 C1057 1.366 . S
C1058 C1062 1.385 . S
C1059 H1034 0.951 . S
C1059 C1057 1.388 . S
C1059 C1060 1.366 . S
C1060 C1059 1.366 . S
C1060 C1061 1.414 . S
C1060 C1063 1.499 . S
C1061 H1035 0.950 . S
C1061 C1060 1.414 . S
C1061 C1062 1.374 . S
C1062 H1036 0.950 . S
C1062 C1058 1.385 . S
C1062 C1061 1.374 . S
C1063 C1060 1.499 . S
C1063 C1064 1.373 . S
C1063 C1065 1.389 . S
C1064 H1037 0.950 . S
C1064 C1050 1.377 . S
C1064 C1063 1.373 . S
C1065 C1049 1.377 . S
C1065 C1063 1.389 . S
C1065 C1066 1.524 . S
C1066 C1065 1.524 . S
C1066 C1067 1.397 . S
C1066 C1071 1.363 . S
C1067 H1038 0.950 . S
C1067 C1066 1.397 . S
C1067 C1068 1.334 . S
C1068 H1039 0.950 . S
C1068 C1067 1.334 . S
C1068 C1069 1.287 . S
C1069 C1068 1.287 . S
C1069 C1070 1.524 . S
C1069 H1072 0.999 . S
C1070 H1040 0.950 . S
C1070 C1069 1.524 . S
C1070 C1071 1.415 . S
C1071 H1041 0.950 . S
C1071 C1066 1.363 . S
C1071 C1070 1.415 . S
H1072 C1069 0.999 . S
H1073 C1054 0.913 . S
H1074 C1092 0.951 . S
H1075 C1094 0.951 . S
H1076 C1096 0.950 . S
H1077 C1097 0.950 . S
H1078 C1099 0.950 . S
H1079 C1102 0.950 . S
H1080 C1103 0.950 . S
H1081 C1105 0.950 . S
H1082 C1106 0.950 . S
H1083 C1107 0.951 . S
H1084 C1109 0.951 . S
H1085 C1111 0.950 . S
H1086 C1112 0.950 . S
H1087 C1114 0.950 . S
H1088 C1117 0.950 . S
H1089 C1118 0.950 . S
H1090 C1120 0.950 . S
H1091 C1121 0.950 . S
C1092 H1074 0.951 . S
C1092 C1093 1.366 . S
C1092 C1094 1.388 . S
C1093 C1092 1.366 . S
C1093 C1097 1.385 . S
C1094 H1075 0.951 . S
C1094 C1092 1.388 . S
C1094 C1095 1.366 . S
C1095 C1094 1.366 . S
C1095 C1096 1.414 . S
C1095 C1098 1.499 . S
C1096 H1076 0.950 . S
C1096 C1095 1.414 . S
C1096 C1097 1.374 . S
C1097 H1077 0.950 . S
C1097 C1093 1.385 . S
C1097 C1096 1.374 . S
C1098 C1095 1.499 . S
C1098 C1099 1.373 . S
C1098 C1100 1.389 . S
C1099 H1078 0.950 . S
C1099 C1098 1.373 . S
C1099 C1115 1.377 . S
C1100 C1098 1.389 . S
C1100 C1101 1.524 . S
C1100 C1114 1.377 . S
C1101 C1100 1.524 . S
C1101 C1102 1.397 . S
C1101 C1106 1.363 . S
C1102 H1079 0.950 . S
C1102 C1101 1.397 . S
C1102 C1103 1.334 . S
C1103 H1080 0.950 . S
C1103 C1102 1.334 . S
C1103 C1104 1.287 . S
C1104 C1103 1.287 . S
C1104 C1105 1.524 . S
C1104 H1123 0.913 . S
C1105 H1081 0.950 . S
C1105 C1104 1.524 . S
C1105 C1106 1.415 . S
C1106 H1082 0.950 . S
C1106 C1101 1.363 . S
C1106 C1105 1.415 . S
C1107 H1083 0.951 . S
C1107 C1108 1.366 . S
C1107 C1109 1.388 . S
C1108 C1107 1.366 . S
C1108 C1112 1.385 . S
C1109 H1084 0.951 . S
C1109 C1107 1.388 . S
C1109 C1110 1.366 . S
C1110 C1109 1.366 . S
C1110 C1111 1.414 . S
C1110 C1113 1.499 . S
C1111 H1085 0.950 . S
C1111 C1110 1.414 . S
C1111 C1112 1.374 . S
C1112 H1086 0.950 . S
C1112 C1108 1.385 . S
C1112 C1111 1.374 . S
C1113 C1110 1.499 . S
C1113 C1114 1.373 . S
C1113 C1115 1.389 . S
C1114 H1087 0.950 . S
C1114 C1100 1.377 . S
C1114 C1113 1.373 . S
C1115 C1099 1.377 . S
C1115 C1113 1.389 . S
C1115 C1116 1.524 . S
C1116 C1115 1.524 . S
C1116 C1117 1.397 . S
C1116 C1121 1.363 . S
C1117 H1088 0.950 . S
C1117 C1116 1.397 . S
C1117 C1118 1.334 . S
C1118 H1089 0.950 . S
C1118 C1117 1.334 . S
C1118 C1119 1.287 . S
C1119 C1118 1.287 . S
C1119 C1120 1.524 . S
C1119 H1122 0.999 . S
C1120 H1090 0.950 . S
C1120 C1119 1.524 . S
C1120 C1121 1.415 . S
C1121 H1091 0.950 . S
C1121 C1116 1.363 . S
C1121 C1120 1.415 . S
H1122 C1119 0.999 . S
H1123 C1104 0.913 . S
H1124 C1142 0.951 . S
H1125 C1144 0.951 . S
H1126 C1146 0.950 . S
H1127 C1147 0.950 . S
H1128 C1149 0.950 . S
H1129 C1152 0.950 . S
H1130 C1153 0.950 . S
H1131 C1155 0.950 . S
H1132 C1156 0.950 . S
H1133 C1157 0.951 . S
H1134 C1159 0.951 . S
H1135 C1161 0.950 . S
H1136 C1162 0.950 . S
H1137 C1164 0.950 . S
H1138 C1167 0.950 . S
H1139 C1168 0.950 . S
H1140 C1170 0.950 . S
H1141 C1171 0.950 . S
C1142 H1124 0.951 . S
C1142 C1143 1.366 . S
C1142 C1144 1.388 . S
C1143 C1142 1.366 . S
C1143 C1147 1.385 . S
C1144 H1125 0.951 . S
C1144 C1142 1.388 . S
C1144 C1145 1.366 . S
C1145 C1144 1.366 . S
C1145 C1146 1.414 . S
C1145 C1148 1.499 . S
C1146 H1126 0.950 . S
C1146 C1145 1.414 . S
C1146 C1147 1.374 . S
C1147 H1127 0.950 . S
C1147 C1143 1.385 . S
C1147 C1146 1.374 . S
C1148 C1145 1.499 . S
C1148 C1149 1.373 . S
C1148 C1150 1.389 . S
C1149 H1128 0.950 . S
C1149 C1148 1.373 . S
C1149 C1165 1.377 . S
C1150 C1148 1.389 . S
C1150 C1151 1.524 . S
C1150 C1164 1.377 . S
C1151 C1150 1.524 . S
C1151 C1152 1.397 . S
C1151 C1156 1.363 . S
C1152 H1129 0.950 . S
C1152 C1151 1.397 . S
C1152 C1153 1.334 . S
C1153 H1130 0.950 . S
C1153 C1152 1.334 . S
C1153 C1154 1.287 . S
C1154 C1153 1.287 . S
C1154 C1155 1.524 . S
C1154 H1173 0.913 . S
C1155 H1131 0.950 . S
C1155 C1154 1.524 . S
C1155 C1156 1.415 . S
C1156 H1132 0.950 . S
C1156 C1151 1.363 . S
C1156 C1155 1.415 . S
C1157 H1133 0.951 . S
C1157 C1158 1.366 . S
C1157 C1159 1.388 . S
C1158 C1157 1.366 . S
C1158 C1162 1.385 . S
C1159 H1134 0.951 . S
C1159 C1157 1.388 . S
C1159 C1160 1.366 . S
C1160 C1159 1.366 . S
C1160 C1161 1.414 . S
C1160 C1163 1.499 . S
C1161 H1135 0.950 . S
C1161 C1160 1.414 . S
C1161 C1162 1.374 . S
C1162 H1136 0.950 . S
C1162 C1158 1.385 . S
C1162 C1161 1.374 . S
C1163 C1160 1.499 . S
C1163 C1164 1.373 . S
C1163 C1165 1.389 . S
C1164 H1137 0.950 . S
C1164 C1150 1.377 . S
C1164 C1163 1.373 . S
C1165 C1149 1.377 . S
C1165 C1163 1.389 . S
C1165 C1166 1.524 . S
C1166 C1165 1.524 . S
C1166 C1167 1.397 . S
C1166 C1171 1.363 . S
C1167 H1138 0.950 . S
C1167 C1166 1.397 . S
C1167 C1168 1.334 . S
C1168 H1139 0.950 . S
C1168 C1167 1.334 . S
C1168 C1169 1.287 . S
C1169 C1168 1.287 . S
C1169 C1170 1.524 . S
C1169 H1172 0.999 . S
C1170 H1140 0.950 . S
C1170 C1169 1.524 . S
C1170 C1171 1.415 . S
C1171 H1141 0.950 . S
C1171 C1166 1.363 . S
C1171 C1170 1.415 . S
H1172 C1169 0.999 . S
H1173 C1154 0.913 . S
H1174 C1192 0.951 . S
H1175 C1194 0.951 . S
H1176 C1196 0.950 . S
H1177 C1197 0.950 . S
H1178 C1199 0.950 . S
H1179 C1202 0.950 . S
H1180 C1203 0.950 . S
H1181 C1205 0.950 . S
H1182 C1206 0.950 . S
H1183 C1207 0.951 . S
H1184 C1209 0.951 . S
H1185 C1211 0.950 . S
H1186 C1212 0.950 1_455 S
H1187 C1214 0.950 . S
H1188 C1217 0.950 . S
H1189 C1218 0.950 . S
H1190 C1220 0.950 . S
H1191 C1221 0.950 . S
C1192 H1174 0.951 . S
C1192 C1193 1.366 . S
C1192 C1194 1.388 . S
C1193 C1192 1.366 . S
C1193 C1197 1.385 . S
C1194 H1175 0.951 . S
C1194 C1192 1.388 . S
C1194 C1195 1.366 . S
C1195 C1194 1.366 . S
C1195 C1196 1.414 . S
C1195 C1198 1.499 . S
C1196 H1176 0.950 . S
C1196 C1195 1.414 . S
C1196 C1197 1.374 . S
C1197 H1177 0.950 . S
C1197 C1193 1.385 . S
C1197 C1196 1.374 . S
C1198 C1195 1.499 . S
C1198 C1199 1.373 . S
C1198 C1200 1.389 . S
C1199 H1178 0.950 . S
C1199 C1198 1.373 . S
C1199 C1215 1.377 . S
C1200 C1198 1.389 . S
C1200 C1201 1.524 . S
C1200 C1214 1.377 . S
C1201 C1200 1.524 . S
C1201 C1202 1.397 . S
C1201 C1206 1.363 . S
C1202 H1179 0.950 . S
C1202 C1201 1.397 . S
C1202 C1203 1.334 . S
C1203 H1180 0.950 . S
C1203 C1202 1.334 . S
C1203 C1204 1.287 . S
C1204 C1203 1.287 . S
C1204 C1205 1.524 . S
C1204 H1223 0.913 . S
C1205 H1181 0.950 . S
C1205 C1204 1.524 . S
C1205 C1206 1.415 . S
C1206 H1182 0.950 . S
C1206 C1201 1.363 . S
C1206 C1205 1.415 . S
C1207 H1183 0.951 . S
C1207 C1208 1.366 . S
C1207 C1209 1.388 . S
C1208 C1207 1.366 . S
C1208 C1212 1.385 . S
C1209 H1184 0.951 . S
C1209 C1207 1.388 . S
C1209 C1210 1.366 . S
C1210 C1209 1.366 . S
C1210 C1211 1.414 . S
C1210 C1213 1.499 . S
C1211 H1185 0.950 . S
C1211 C1210 1.414 . S
C1211 C1212 1.374 . S
C1212 H1186 0.950 1_655 S
C1212 C1208 1.385 . S
C1212 C1211 1.374 . S
C1213 C1210 1.499 . S
C1213 C1214 1.373 . S
C1213 C1215 1.389 . S
C1214 H1187 0.950 . S
C1214 C1200 1.377 . S
C1214 C1213 1.373 . S
C1215 C1199 1.377 . S
C1215 C1213 1.389 . S
C1215 C1216 1.524 . S
C1216 C1215 1.524 . S
C1216 C1217 1.397 . S
C1216 C1221 1.363 . S
C1217 H1188 0.950 . S
C1217 C1216 1.397 . S
C1217 C1218 1.334 . S
C1218 H1189 0.950 . S
C1218 C1217 1.334 . S
C1218 C1219 1.287 . S
C1219 C1218 1.287 . S
C1219 C1220 1.524 . S
C1219 H1222 0.999 . S
C1220 H1190 0.950 . S
C1220 C1219 1.524 . S
C1220 C1221 1.415 . S
C1221 H1191 0.950 . S
C1221 C1216 1.363 . S
C1221 C1220 1.415 . S
H1222 C1219 0.999 . S
H1223 C1204 0.913 . S
H1224 C1242 0.951 1_545 S
H1225 C1244 0.951 . S
H1226 C1246 0.950 . S
H1227 C1247 0.950 . S
H1228 C1249 0.950 . S
H1229 C1252 0.950 . S
H1230 C1253 0.950 . S
H1231 C1255 0.950 . S
H1232 C1256 0.950 . S
H1233 C1257 0.951 . S
H1234 C1259 0.951 . S
H1235 C1261 0.950 . S
H1236 C1262 0.950 . S
H1237 C1264 0.950 . S
H1238 C1267 0.950 . S
H1239 C1268 0.950 . S
H1240 C1270 0.950 . S
H1241 C1271 0.950 . S
C1242 H1224 0.951 1_565 S
C1242 C1243 1.366 . S
C1242 C1244 1.388 . S
C1243 C1242 1.366 . S
C1243 C1247 1.385 . S
C1244 H1225 0.951 . S
C1244 C1242 1.388 . S
C1244 C1245 1.366 . S
C1245 C1244 1.366 . S
C1245 C1246 1.414 . S
C1245 C1248 1.499 . S
C1246 H1226 0.950 . S
C1246 C1245 1.414 . S
C1246 C1247 1.374 . S
C1247 H1227 0.950 . S
C1247 C1243 1.385 . S
C1247 C1246 1.374 . S
C1248 C1245 1.499 . S
C1248 C1249 1.373 . S
C1248 C1250 1.389 . S
C1249 H1228 0.950 . S
C1249 C1248 1.373 . S
C1249 C1265 1.377 . S
C1250 C1248 1.389 . S
C1250 C1251 1.524 . S
C1250 C1264 1.377 . S
C1251 C1250 1.524 . S
C1251 C1252 1.397 . S
C1251 C1256 1.363 . S
C1252 H1229 0.950 . S
C1252 C1251 1.397 . S
C1252 C1253 1.334 . S
C1253 H1230 0.950 . S
C1253 C1252 1.334 . S
C1253 C1254 1.287 . S
C1254 C1253 1.287 . S
C1254 C1255 1.524 . S
C1254 H1273 0.913 . S
C1255 H1231 0.950 . S
C1255 C1254 1.524 . S
C1255 C1256 1.415 . S
C1256 H1232 0.950 . S
C1256 C1251 1.363 . S
C1256 C1255 1.415 . S
C1257 H1233 0.951 . S
C1257 C1258 1.366 . S
C1257 C1259 1.388 . S
C1258 C1257 1.366 . S
C1258 C1262 1.385 . S
C1259 H1234 0.951 . S
C1259 C1257 1.388 . S
C1259 C1260 1.366 . S
C1260 C1259 1.366 . S
C1260 C1261 1.414 . S
C1260 C1263 1.499 . S
C1261 H1235 0.950 . S
C1261 C1260 1.414 . S
C1261 C1262 1.374 . S
C1262 H1236 0.950 . S
C1262 C1258 1.385 . S
C1262 C1261 1.374 . S
C1263 C1260 1.499 . S
C1263 C1264 1.373 . S
C1263 C1265 1.389 . S
C1264 H1237 0.950 . S
C1264 C1250 1.377 . S
C1264 C1263 1.373 . S
C1265 C1249 1.377 . S
C1265 C1263 1.389 . S
C1265 C1266 1.524 . S
C1266 C1265 1.524 . S
C1266 C1267 1.397 . S
C1266 C1271 1.363 . S
C1267 H1238 0.950 . S
C1267 C1266 1.397 . S
C1267 C1268 1.334 . S
C1268 H1239 0.950 . S
C1268 C1267 1.334 . S
C1268 C1269 1.287 . S
C1269 C1268 1.287 . S
C1269 C1270 1.524 . S
C1269 H1272 0.999 . S
C1270 H1240 0.950 . S
C1270 C1269 1.524 . S
C1270 C1271 1.415 . S
C1271 H1241 0.950 . S
C1271 C1266 1.363 . S
C1271 C1270 1.415 . S
H1272 C1269 0.999 . S
H1273 C1254 0.913 . S
H1274 C1292 0.951 . S
H1275 C1294 0.951 . S
H1276 C1296 0.950 . S
H1277 C1297 0.950 . S
H1278 C1299 0.950 . S
H1279 C1302 0.950 . S
H1280 C1303 0.950 . S
H1281 C1305 0.950 . S
H1282 C1306 0.950 . S
H1283 C1307 0.932 1_455 S
H1284 C1309 0.951 . S
H1285 C1311 0.950 . S
H1286 C1312 0.950 . S
H1287 C1314 0.950 . S
H1288 C1317 0.950 . S
H1289 C1318 0.939 1_455 S
H1290 C1320 0.950 . S
H1291 C1321 0.950 . S
C1292 H1274 0.951 . S
C1292 C1293 1.366 . S
C1292 C1294 1.388 . S
C1293 C1292 1.366 . S
C1293 C1297 1.385 . S
C1294 H1275 0.951 . S
C1294 C1292 1.388 . S
C1294 C1295 1.366 . S
C1295 C1294 1.366 . S
C1295 C1296 1.414 . S
C1295 C1298 1.499 . S
C1296 H1276 0.950 . S
C1296 C1295 1.414 . S
C1296 C1297 1.374 . S
C1297 H1277 0.950 . S
C1297 C1293 1.385 . S
C1297 C1296 1.374 . S
C1298 C1295 1.499 . S
C1298 C1299 1.373 . S
C1298 C1300 1.389 . S
C1299 H1278 0.950 . S
C1299 C1298 1.373 . S
C1299 C1315 1.377 . S
C1300 C1298 1.389 . S
C1300 C1301 1.524 . S
C1300 C1314 1.377 . S
C1301 C1300 1.524 . S
C1301 C1302 1.397 . S
C1301 C1306 1.363 . S
C1302 H1279 0.950 . S
C1302 C1301 1.397 . S
C1302 C1303 1.334 . S
C1303 H1280 0.950 . S
C1303 C1302 1.334 . S
C1303 C1304 1.287 . S
C1304 C1303 1.287 . S
C1304 C1305 1.524 . S
C1304 H1323 0.913 . S
C1305 H1281 0.950 . S
C1305 C1304 1.524 . S
C1305 C1306 1.415 . S
C1306 H1282 0.950 . S
C1306 C1301 1.363 . S
C1306 C1305 1.415 . S
C1307 H1283 0.932 1_655 S
C1307 C1308 1.366 . S
C1307 C1309 1.388 . S
C1308 C1307 1.366 . S
C1308 C1312 1.385 . S
C1309 H1284 0.951 . S
C1309 C1307 1.388 . S
C1309 C1310 1.366 . S
C1310 C1309 1.366 . S
C1310 C1311 1.414 . S
C1310 C1313 1.499 . S
C1311 H1285 0.950 . S
C1311 C1310 1.414 . S
C1311 C1312 1.374 . S
C1312 H1286 0.950 . S
C1312 C1308 1.385 . S
C1312 C1311 1.374 . S
C1313 C1310 1.499 . S
C1313 C1314 1.373 . S
C1313 C1315 1.389 . S
C1314 H1287 0.950 . S
C1314 C1300 1.377 . S
C1314 C1313 1.373 . S
C1315 C1299 1.377 . S
C1315 C1313 1.389 . S
C1315 C1316 1.524 . S
C1316 C1315 1.524 . S
C1316 C1317 1.397 . S
C1316 C1321 1.363 . S
C1317 H1288 0.950 . S
C1317 C1316 1.397 . S
C1317 C1318 1.334 . S
C1318 H1289 0.939 1_655 S
C1318 C1317 1.334 . S
C1318 C1319 1.287 . S
C1319 C1318 1.287 . S
C1319 C1320 1.524 . S
C1319 H1322 0.999 1_655 S
C1320 H1290 0.950 . S
C1320 C1319 1.524 . S
C1320 C1321 1.415 . S
C1321 H1291 0.950 . S
C1321 C1316 1.363 . S
C1321 C1320 1.415 . S
H1322 C1319 0.999 1_455 S
H1323 C1304 0.913 . S
H1324 C1342 0.951 . S
H1325 C1344 0.951 . S
H1326 C1346 0.950 . S
H1327 C1347 0.950 . S
H1328 C1349 0.950 . S
H1329 C1352 0.950 . S
H1330 C1353 0.950 . S
H1331 C1355 0.950 . S
H1332 C1356 0.950 . S
H1333 C1357 0.951 . S
H1334 C1359 0.951 . S
H1335 C1361 0.950 . S
H1336 C1362 0.950 1_565 S
H1337 C1364 0.950 . S
H1338 C1367 0.950 . S
H1339 C1368 0.950 . S
H1340 C1370 0.950 . S
H1341 C1371 0.950 . S
C1342 H1324 0.951 . S
C1342 C1343 1.366 . S
C1342 C1344 1.388 . S
C1343 C1342 1.366 . S
C1343 C1347 1.385 . S
C1344 H1325 0.951 . S
C1344 C1342 1.388 . S
C1344 C1345 1.366 . S
C1345 C1344 1.366 . S
C1345 C1346 1.414 . S
C1345 C1348 1.499 . S
C1346 H1326 0.950 . S
C1346 C1345 1.414 . S
C1346 C1347 1.374 . S
C1347 H1327 0.950 . S
C1347 C1343 1.385 . S
C1347 C1346 1.374 . S
C1348 C1345 1.499 . S
C1348 C1349 1.373 . S
C1348 C1350 1.389 . S
C1349 H1328 0.950 . S
C1349 C1348 1.373 . S
C1349 C1365 1.377 . S
C1350 C1348 1.389 . S
C1350 C1351 1.524 . S
C1350 C1364 1.377 . S
C1351 C1350 1.524 . S
C1351 C1352 1.397 . S
C1351 C1356 1.363 . S
C1352 H1329 0.950 . S
C1352 C1351 1.397 . S
C1352 C1353 1.334 . S
C1353 H1330 0.950 . S
C1353 C1352 1.334 . S
C1353 C1354 1.287 . S
C1354 C1353 1.287 . S
C1354 C1355 1.524 . S
C1354 H1373 0.913 . S
C1355 H1331 0.950 . S
C1355 C1354 1.524 . S
C1355 C1356 1.415 . S
C1356 H1332 0.950 . S
C1356 C1351 1.363 . S
C1356 C1355 1.415 . S
C1357 H1333 0.951 . S
C1357 C1358 1.366 . S
C1357 C1359 1.388 . S
C1358 C1357 1.366 . S
C1358 C1362 1.385 . S
C1359 H1334 0.951 . S
C1359 C1357 1.388 . S
C1359 C1360 1.366 . S
C1360 C1359 1.366 . S
C1360 C1361 1.414 . S
C1360 C1363 1.499 . S
C1361 H1335 0.950 . S
C1361 C1360 1.414 . S
C1361 C1362 1.374 . S
C1362 H1336 0.950 1_545 S
C1362 C1358 1.385 . S
C1362 C1361 1.374 . S
C1363 C1360 1.499 . S
C1363 C1364 1.373 . S
C1363 C1365 1.389 . S
C1364 H1337 0.950 . S
C1364 C1350 1.377 . S
C1364 C1363 1.373 . S
C1365 C1349 1.377 . S
C1365 C1363 1.389 . S
C1365 C1366 1.524 . S
C1366 C1365 1.524 . S
C1366 C1367 1.397 . S
C1366 C1371 1.363 . S
C1367 H1338 0.950 . S
C1367 C1366 1.397 . S
C1367 C1368 1.334 . S
C1368 H1339 0.950 . S
C1368 C1367 1.334 . S
C1368 C1369 1.287 . S
C1369 C1368 1.287 . S
C1369 C1370 1.524 . S
C1369 H1372 0.999 . S
C1370 H1340 0.950 . S
C1370 C1369 1.524 . S
C1370 C1371 1.415 . S
C1371 H1341 0.950 . S
C1371 C1366 1.363 . S
C1371 C1370 1.415 . S
H1372 C1369 0.999 . S
H1373 C1354 0.913 . S
H1374 C1392 0.951 . S
H1375 C1394 0.951 . S
H1376 C1396 0.950 . S
H1377 C1397 0.950 . S
H1378 C1399 0.950 . S
H1379 C1402 0.950 . S
H1380 C1403 0.950 . S
H1381 C1405 0.950 . S
H1382 C1406 0.950 . S
H1383 C1407 0.951 . S
H1384 C1409 0.951 . S
H1385 C1411 0.950 . S
H1386 C1412 0.950 1_655 S
H1387 C1414 0.950 . S
H1388 C1417 0.950 . S
H1389 C1418 0.950 . S
H1390 C1420 0.950 . S
H1391 C1421 0.950 . S
C1392 H1374 0.951 . S
C1392 C1393 1.366 . S
C1392 C1394 1.388 . S
C1393 C1392 1.366 . S
C1393 C1397 1.385 . S
C1394 H1375 0.951 . S
C1394 C1392 1.388 . S
C1394 C1395 1.366 . S
C1395 C1394 1.366 . S
C1395 C1396 1.414 . S
C1395 C1398 1.499 . S
C1396 H1376 0.950 . S
C1396 C1395 1.414 . S
C1396 C1397 1.374 . S
C1397 H1377 0.950 . S
C1397 C1393 1.385 . S
C1397 C1396 1.374 . S
C1398 C1395 1.499 . S
C1398 C1399 1.373 . S
C1398 C1400 1.389 . S
C1399 H1378 0.950 . S
C1399 C1398 1.373 . S
C1399 C1415 1.377 . S
C1400 C1398 1.389 . S
C1400 C1401 1.524 . S
C1400 C1414 1.377 . S
C1401 C1400 1.524 . S
C1401 C1402 1.397 . S
C1401 C1406 1.363 . S
C1402 H1379 0.950 . S
C1402 C1401 1.397 . S
C1402 C1403 1.334 . S
C1403 H1380 0.950 . S
C1403 C1402 1.334 . S
C1403 C1404 1.287 . S
C1404 C1403 1.287 . S
C1404 C1405 1.524 . S
C1404 H1423 0.913 . S
C1405 H1381 0.950 . S
C1405 C1404 1.524 . S
C1405 C1406 1.415 . S
C1406 H1382 0.950 . S
C1406 C1401 1.363 . S
C1406 C1405 1.415 . S
C1407 H1383 0.951 . S
C1407 C1408 1.366 . S
C1407 C1409 1.388 . S
C1408 C1407 1.366 . S
C1408 C1412 1.385 . S
C1409 H1384 0.951 . S
C1409 C1407 1.388 . S
C1409 C1410 1.366 . S
C1410 C1409 1.366 . S
C1410 C1411 1.414 . S
C1410 C1413 1.499 . S
C1411 H1385 0.950 . S
C1411 C1410 1.414 . S
C1411 C1412 1.374 . S
C1412 H1386 0.950 1_455 S
C1412 C1408 1.385 . S
C1412 C1411 1.374 . S
C1413 C1410 1.499 . S
C1413 C1414 1.373 . S
C1413 C1415 1.389 . S
C1414 H1387 0.950 . S
C1414 C1400 1.377 . S
C1414 C1413 1.373 . S
C1415 C1399 1.377 . S
C1415 C1413 1.389 . S
C1415 C1416 1.524 . S
C1416 C1415 1.524 . S
C1416 C1417 1.397 . S
C1416 C1421 1.363 . S
C1417 H1388 0.950 . S
C1417 C1416 1.397 . S
C1417 C1418 1.334 . S
C1418 H1389 0.950 . S
C1418 C1417 1.334 . S
C1418 C1419 1.287 . S
C1419 C1418 1.287 . S
C1419 C1420 1.524 . S
C1419 H1422 0.999 . S
C1420 H1390 0.950 . S
C1420 C1419 1.524 . S
C1420 C1421 1.415 . S
C1421 H1391 0.950 . S
C1421 C1416 1.363 . S
C1421 C1420 1.415 . S
H1422 C1419 0.999 . S
H1423 C1404 0.913 . S
H1424 C1442 0.951 . S
H1425 C1444 0.951 . S
H1426 C1446 0.950 . S
H1427 C1447 0.950 . S
H1428 C1449 0.950 . S
H1429 C1452 0.950 . S
H1430 C1453 0.950 . S
H1431 C1455 0.950 . S
H1432 C1456 0.950 . S
H1433 C1457 0.951 . S
H1434 C1459 0.951 . S
H1435 C1461 0.950 . S
H1436 C1462 0.950 . S
H1437 C1464 0.950 . S
H1438 C1467 0.950 . S
H1439 C1468 0.950 . S
H1440 C1470 0.950 . S
H1441 C1471 0.950 . S
C1442 H1424 0.951 . S
C1442 C1443 1.366 . S
C1442 C1444 1.388 . S
C1443 C1442 1.366 . S
C1443 C1447 1.385 . S
C1444 H1425 0.951 . S
C1444 C1442 1.388 . S
C1444 C1445 1.366 . S
C1445 C1444 1.366 . S
C1445 C1446 1.414 . S
C1445 C1448 1.499 . S
C1446 H1426 0.950 . S
C1446 C1445 1.414 . S
C1446 C1447 1.374 . S
C1447 H1427 0.950 . S
C1447 C1443 1.385 . S
C1447 C1446 1.374 . S
C1448 C1445 1.499 . S
C1448 C1449 1.373 . S
C1448 C1450 1.389 . S
C1449 H1428 0.950 . S
C1449 C1448 1.373 . S
C1449 C1465 1.377 . S
C1450 C1448 1.389 . S
C1450 C1451 1.524 . S
C1450 C1464 1.377 . S
C1451 C1450 1.524 . S
C1451 C1452 1.397 . S
C1451 C1456 1.363 . S
C1452 H1429 0.950 . S
C1452 C1451 1.397 . S
C1452 C1453 1.334 . S
C1453 H1430 0.950 . S
C1453 C1452 1.334 . S
C1453 C1454 1.287 . S
C1454 C1453 1.287 . S
C1454 C1455 1.524 . S
C1454 H1473 0.913 . S
C1455 H1431 0.950 . S
C1455 C1454 1.524 . S
C1455 C1456 1.415 . S
C1456 H1432 0.950 . S
C1456 C1451 1.363 . S
C1456 C1455 1.415 . S
C1457 H1433 0.951 . S
C1457 C1458 1.366 . S
C1457 C1459 1.388 . S
C1458 C1457 1.366 . S
C1458 C1462 1.385 . S
C1459 H1434 0.951 . S
C1459 C1457 1.388 . S
C1459 C1460 1.366 . S
C1460 C1459 1.366 . S
C1460 C1461 1.414 . S
C1460 C1463 1.499 . S
C1461 H1435 0.950 . S
C1461 C1460 1.414 . S
C1461 C1462 1.374 . S
C1462 H1436 0.950 . S
C1462 C1458 1.385 . S
C1462 C1461 1.374 . S
C1463 C1460 1.499 . S
C1463 C1464 1.373 . S
C1463 C1465 1.389 . S
C1464 H1437 0.950 . S
C1464 C1450 1.377 . S
C1464 C1463 1.373 . S
C1465 C1449 1.377 . S
C1465 C1463 1.389 . S
C1465 C1466 1.524 . S
C1466 C1465 1.524 . S
C1466 C1467 1.397 . S
C1466 C1471 1.363 . S
C1467 H1438 0.950 . S
C1467 C1466 1.397 . S
C1467 C1468 1.334 . S
C1468 H1439 0.950 . S
C1468 C1467 1.334 . S
C1468 C1469 1.287 . S
C1469 C1468 1.287 . S
C1469 C1470 1.524 . S
C1469 H1472 0.999 . S
C1470 H1440 0.950 . S
C1470 C1469 1.524 . S
C1470 C1471 1.415 . S
C1471 H1441 0.950 . S
C1471 C1466 1.363 . S
C1471 C1470 1.415 . S
H1472 C1469 0.999 . S
H1473 C1454 0.913 . S
H1474 C1492 0.951 . S
H1475 C1494 0.951 . S
H1476 C1496 0.950 . S
H1477 C1497 0.950 . S
H1478 C1499 0.950 . S
H1479 C1502 0.950 . S
H1480 C1503 0.950 . S
H1481 C1505 0.950 . S
H1482 C1506 0.950 . S
H1483 C1507 0.951 . S
H1484 C1509 0.951 . S
H1485 C1511 0.950 . S
H1486 C1512 0.950 . S
H1487 C1514 0.950 . S
H1488 C1517 0.950 . S
H1489 C1518 0.950 . S
H1490 C1520 0.950 . S
H1491 C1521 0.950 . S
C1492 H1474 0.951 . S
C1492 C1493 1.366 . S
C1492 C1494 1.388 . S
C1493 C1492 1.366 . S
C1493 C1497 1.385 . S
C1494 H1475 0.951 . S
C1494 C1492 1.388 . S
C1494 C1495 1.366 . S
C1495 C1494 1.366 . S
C1495 C1496 1.414 . S
C1495 C1498 1.499 . S
C1496 H1476 0.950 . S
C1496 C1495 1.414 . S
C1496 C1497 1.374 . S
C1497 H1477 0.950 . S
C1497 C1493 1.385 . S
C1497 C1496 1.374 . S
C1498 C1495 1.499 . S
C1498 C1499 1.373 . S
C1498 C1500 1.389 . S
C1499 H1478 0.950 . S
C1499 C1498 1.373 . S
C1499 C1515 1.377 . S
C1500 C1498 1.389 . S
C1500 C1501 1.524 . S
C1500 C1514 1.377 . S
C1501 C1500 1.524 . S
C1501 C1502 1.397 . S
C1501 C1506 1.363 . S
C1502 H1479 0.950 . S
C1502 C1501 1.397 . S
C1502 C1503 1.334 . S
C1503 H1480 0.950 . S
C1503 C1502 1.334 . S
C1503 C1504 1.287 . S
C1504 C1503 1.287 . S
C1504 C1505 1.524 . S
C1504 H1523 0.913 . S
C1505 H1481 0.950 . S
C1505 C1504 1.524 . S
C1505 C1506 1.415 . S
C1506 H1482 0.950 . S
C1506 C1501 1.363 . S
C1506 C1505 1.415 . S
C1507 H1483 0.951 . S
C1507 C1508 1.366 . S
C1507 C1509 1.388 . S
C1508 C1507 1.366 . S
C1508 C1512 1.385 . S
C1509 H1484 0.951 . S
C1509 C1507 1.388 . S
C1509 C1510 1.366 . S
C1510 C1509 1.366 . S
C1510 C1511 1.414 . S
C1510 C1513 1.499 . S
C1511 H1485 0.950 . S
C1511 C1510 1.414 . S
C1511 C1512 1.374 . S
C1512 H1486 0.950 . S
C1512 C1508 1.385 . S
C1512 C1511 1.374 . S
C1513 C1510 1.499 . S
C1513 C1514 1.373 . S
C1513 C1515 1.389 . S
C1514 H1487 0.950 . S
C1514 C1500 1.377 . S
C1514 C1513 1.373 . S
C1515 C1499 1.377 . S
C1515 C1513 1.389 . S
C1515 C1516 1.524 . S
C1516 C1515 1.524 . S
C1516 C1517 1.397 . S
C1516 C1521 1.363 . S
C1517 H1488 0.950 . S
C1517 C1516 1.397 . S
C1517 C1518 1.334 . S
C1518 H1489 0.950 . S
C1518 C1517 1.334 . S
C1518 C1519 1.287 . S
C1519 C1518 1.287 . S
C1519 C1520 1.524 . S
C1519 H1522 0.999 . S
C1520 H1490 0.950 . S
C1520 C1519 1.524 . S
C1520 C1521 1.415 . S
C1521 H1491 0.950 . S
C1521 C1516 1.363 . S
C1521 C1520 1.415 . S
H1522 C1519 0.999 . S
H1523 C1504 0.913 . S
H1524 C1542 0.951 . S
H1525 C1544 0.951 . S
H1526 C1546 0.950 . S
H1527 C1547 0.950 . S
H1528 C1549 0.950 . S
H1529 C1552 0.950 . S
H1530 C1553 0.950 . S
H1531 C1555 0.950 . S
H1532 C1556 0.950 . S
H1533 C1557 0.951 . S
H1534 C1559 0.951 . S
H1535 C1561 0.950 . S
H1536 C1562 0.950 . S
H1537 C1564 0.950 . S
H1538 C1567 0.950 . S
H1539 C1568 0.950 . S
H1540 C1570 0.950 . S
H1541 C1571 0.950 . S
C1542 H1524 0.951 . S
C1542 C1543 1.366 . S
C1542 C1544 1.388 . S
C1543 C1542 1.366 . S
C1543 C1547 1.385 . S
C1544 H1525 0.951 . S
C1544 C1542 1.388 . S
C1544 C1545 1.366 . S
C1545 C1544 1.366 . S
C1545 C1546 1.414 . S
C1545 C1548 1.499 . S
C1546 H1526 0.950 . S
C1546 C1545 1.414 . S
C1546 C1547 1.374 . S
C1547 H1527 0.950 . S
C1547 C1543 1.385 . S
C1547 C1546 1.374 . S
C1548 C1545 1.499 . S
C1548 C1549 1.373 . S
C1548 C1550 1.389 . S
C1549 H1528 0.950 . S
C1549 C1548 1.373 . S
C1549 C1565 1.377 . S
C1550 C1548 1.389 . S
C1550 C1551 1.524 . S
C1550 C1564 1.377 . S
C1551 C1550 1.524 . S
C1551 C1552 1.397 . S
C1551 C1556 1.363 . S
C1552 H1529 0.950 . S
C1552 C1551 1.397 . S
C1552 C1553 1.334 . S
C1553 H1530 0.950 . S
C1553 C1552 1.334 . S
C1553 C1554 1.287 . S
C1554 C1553 1.287 . S
C1554 C1555 1.524 . S
C1554 H1573 0.913 . S
C1555 H1531 0.950 . S
C1555 C1554 1.524 . S
C1555 C1556 1.415 . S
C1556 H1532 0.950 . S
C1556 C1551 1.363 . S
C1556 C1555 1.415 . S
C1557 H1533 0.951 . S
C1557 C1558 1.366 . S
C1557 C1559 1.388 . S
C1558 C1557 1.366 . S
C1558 C1562 1.385 . S
C1559 H1534 0.951 . S
C1559 C1557 1.388 . S
C1559 C1560 1.366 . S
C1560 C1559 1.366 . S
C1560 C1561 1.414 . S
C1560 C1563 1.499 . S
C1561 H1535 0.950 . S
C1561 C1560 1.414 . S
C1561 C1562 1.374 . S
C1562 H1536 0.950 . S
C1562 C1558 1.385 . S
C1562 C1561 1.374 . S
C1563 C1560 1.499 . S
C1563 C1564 1.373 . S
C1563 C1565 1.389 . S
C1564 H1537 0.950 . S
C1564 C1550 1.377 . S
C1564 C1563 1.373 . S
C1565 C1549 1.377 . S
C1565 C1563 1.389 . S
C1565 C1566 1.524 . S
C1566 C1565 1.524 . S
C1566 C1567 1.397 . S
C1566 C1571 1.363 . S
C1567 H1538 0.950 . S
C1567 C1566 1.397 . S
C1567 C1568 1.334 . S
C1568 H1539 0.950 . S
C1568 C1567 1.334 . S
C1568 C1569 1.287 . S
C1569 C1568 1.287 . S
C1569 C1570 1.524 . S
C1569 H1572 0.999 . S
C1570 H1540 0.950 . S
C1570 C1569 1.524 . S
C1570 C1571 1.415 . S
C1571 H1541 0.950 . S
C1571 C1566 1.363 . S
C1571 C1570 1.415 . S
H1572 C1569 0.999 . S
H1573 C1554 0.913 . S
H1574 C1592 0.951 . S
H1575 C1594 0.951 . S
H1576 C1596 0.950 . S
H1577 C1597 0.950 . S
H1578 C1599 0.950 . S
H1579 C1602 0.950 . S
H1580 C1603 0.950 . S
H1581 C1605 0.950 . S
H1582 C1606 0.950 . S
H1583 C1607 0.951 . S
H1584 C1609 0.951 . S
H1585 C1611 0.950 . S
H1586 C1612 0.950 . S
H1587 C1614 0.950 . S
H1588 C1617 0.950 . S
H1589 C1618 0.950 . S
H1590 C1620 0.950 . S
H1591 C1621 0.950 . S
C1592 H1574 0.951 . S
C1592 C1593 1.366 . S
C1592 C1594 1.388 . S
C1593 C1592 1.366 . S
C1593 C1597 1.385 . S
C1594 H1575 0.951 . S
C1594 C1592 1.388 . S
C1594 C1595 1.366 . S
C1595 C1594 1.366 . S
C1595 C1596 1.414 . S
C1595 C1598 1.499 . S
C1596 H1576 0.950 . S
C1596 C1595 1.414 . S
C1596 C1597 1.374 . S
C1597 H1577 0.950 . S
C1597 C1593 1.385 . S
C1597 C1596 1.374 . S
C1598 C1595 1.499 . S
C1598 C1599 1.373 . S
C1598 C1600 1.389 . S
C1599 H1578 0.950 . S
C1599 C1598 1.373 . S
C1599 C1615 1.377 . S
C1600 C1598 1.389 . S
C1600 C1601 1.524 . S
C1600 C1614 1.377 . S
C1601 C1600 1.524 . S
C1601 C1602 1.397 . S
C1601 C1606 1.363 . S
C1602 H1579 0.950 . S
C1602 C1601 1.397 . S
C1602 C1603 1.334 . S
C1603 H1580 0.950 . S
C1603 C1602 1.334 . S
C1603 C1604 1.287 . S
C1604 C1603 1.287 . S
C1604 C1605 1.524 . S
C1604 H1623 0.913 . S
C1605 H1581 0.950 . S
C1605 C1604 1.524 . S
C1605 C1606 1.415 . S
C1606 H1582 0.950 . S
C1606 C1601 1.363 . S
C1606 C1605 1.415 . S
C1607 H1583 0.951 . S
C1607 C1608 1.366 . S
C1607 C1609 1.388 . S
C1608 C1607 1.366 . S
C1608 C1612 1.385 . S
C1609 H1584 0.951 . S
C1609 C1607 1.388 . S
C1609 C1610 1.366 . S
C1610 C1609 1.366 . S
C1610 C1611 1.414 . S
C1610 C1613 1.499 . S
C1611 H1585 0.950 . S
C1611 C1610 1.414 . S
C1611 C1612 1.374 . S
C1612 H1586 0.950 . S
C1612 C1608 1.385 . S
C1612 C1611 1.374 . S
C1613 C1610 1.499 . S
C1613 C1614 1.373 . S
C1613 C1615 1.389 . S
C1614 H1587 0.950 . S
C1614 C1600 1.377 . S
C1614 C1613 1.373 . S
C1615 C1599 1.377 . S
C1615 C1613 1.389 . S
C1615 C1616 1.524 . S
C1616 C1615 1.524 . S
C1616 C1617 1.397 . S
C1616 C1621 1.363 . S
C1617 H1588 0.950 . S
C1617 C1616 1.397 . S
C1617 C1618 1.334 . S
C1618 H1589 0.950 . S
C1618 C1617 1.334 . S
C1618 C1619 1.287 . S
C1619 C1618 1.287 . S
C1619 C1620 1.524 . S
C1619 H1622 0.999 . S
C1620 H1590 0.950 . S
C1620 C1619 1.524 . S
C1620 C1621 1.415 . S
C1621 H1591 0.950 . S
C1621 C1616 1.363 . S
C1621 C1620 1.415 . S
H1622 C1619 0.999 . S
H1623 C1604 0.913 . S
H1624 C1642 0.951 . S
H1625 C1644 0.951 . S
H1626 C1646 0.950 . S
H1627 C1647 0.950 1_565 S
H1628 C1649 0.950 . S
H1629 C1652 0.950 1_565 S
H1630 C1653 0.950 . S
H1631 C1655 0.950 . S
H1632 C1656 0.950 1_556 S
H1633 C1657 0.951 . S
H1634 C1659 0.951 . S
H1635 C1661 0.950 . S
H1636 C1662 0.950 1_545 S
H1637 C1664 0.950 . S
H1638 C1667 0.950 1_545 S
H1639 C1668 0.950 . S
H1640 C1670 0.950 . S
H1641 C1671 0.950 1_554 S
C1642 H1624 0.951 . S
C1642 C1643 1.366 . S
C1642 C1644 1.388 . S
C1643 C1642 1.366 . S
C1643 C1647 1.385 . S
C1644 H1625 0.951 . S
C1644 C1642 1.388 . S
C1644 C1645 1.366 . S
C1645 C1644 1.366 . S
C1645 C1646 1.414 1_545 S
C1645 C1648 1.499 . S
C1646 H1626 0.950 . S
C1646 C1645 1.414 1_565 S
C1646 C1647 1.374 1_565 S
C1647 H1627 0.950 1_545 S
C1647 C1643 1.385 . S
C1647 C1646 1.374 1_545 S
C1648 C1645 1.499 . S
C1648 C1649 1.373 1_545 S
C1648 C1650 1.389 . S
C1649 H1628 0.950 . S
C1649 C1648 1.373 1_565 S
C1649 C1665 1.377 1_554 S
C1650 C1648 1.389 . S
C1650 C1651 1.524 . S
C1650 C1664 1.377 1_554 S
C1651 C1650 1.524 . S
C1651 C1652 1.397 . S
C1651 C1656 1.363 . S
C1652 H1629 0.950 1_545 S
C1652 C1651 1.397 . S
C1652 C1653 1.334 . S
C1653 H1630 0.950 . S
C1653 C1652 1.334 . S
C1653 C1654 1.287 . S
C1654 C1653 1.287 . S
C1654 C1655 1.524 . S
C1654 H1673 0.913 . S
C1655 H1631 0.950 . S
C1655 C1654 1.524 . S
C1655 C1656 1.415 . S
C1656 H1632 0.950 1_554 S
C1656 C1651 1.363 . S
C1656 C1655 1.415 . S
C1657 H1633 0.951 . S
C1657 C1658 1.366 . S
C1657 C1659 1.388 . S
C1658 C1657 1.366 . S
C1658 C1662 1.385 . S
C1659 H1634 0.951 . S
C1659 C1657 1.388 . S
C1659 C1660 1.366 . S
C1660 C1659 1.366 . S
C1660 C1661 1.414 1_565 S
C1660 C1663 1.499 . S
C1661 H1635 0.950 . S
C1661 C1660 1.414 1_545 S
C1661 C1662 1.374 1_545 S
C1662 H1636 0.950 1_565 S
C1662 C1658 1.385 . S
C1662 C1661 1.374 1_565 S
C1663 C1660 1.499 . S
C1663 C1664 1.373 1_565 S
C1663 C1665 1.389 . S
C1664 H1637 0.950 . S
C1664 C1650 1.377 1_556 S
C1664 C1663 1.373 1_545 S
C1665 C1649 1.377 1_556 S
C1665 C1663 1.389 . S
C1665 C1666 1.524 . S
C1666 C1665 1.524 . S
C1666 C1667 1.397 . S
C1666 C1671 1.363 . S
C1667 H1638 0.950 1_565 S
C1667 C1666 1.397 . S
C1667 C1668 1.334 . S
C1668 H1639 0.950 . S
C1668 C1667 1.334 . S
C1668 C1669 1.287 . S
C1669 C1668 1.287 . S
C1669 C1670 1.524 . S
C1669 H1672 0.999 . S
C1670 H1640 0.950 . S
C1670 C1669 1.524 . S
C1670 C1671 1.415 . S
C1671 H1641 0.950 1_556 S
C1671 C1666 1.363 . S
C1671 C1670 1.415 . S
H1672 C1669 0.999 . S
H1673 C1654 0.913 . S
H1674 C1692 0.951 . S
H1675 C1694 0.951 . S
H1676 C1696 0.950 . S
H1677 C1697 0.950 1_655 S
H1678 C1699 0.950 . S
H1679 C1702 0.950 . S
H1680 C1703 0.950 . S
H1681 C1705 0.950 1_554 S
H1682 C1706 0.969 . S
H1683 C1707 0.951 . S
H1684 C1709 0.951 . S
H1685 C1711 0.950 . S
H1686 C1712 0.950 1_455 S
H1687 C1714 0.950 . S
H1688 C1717 0.950 . S
H1689 C1718 0.950 . S
H1690 C1720 0.950 1_556 S
H1691 C1721 0.969 . S
C1692 H1674 0.951 . S
C1692 C1693 1.366 . S
C1692 C1694 1.388 . S
C1693 C1692 1.366 . S
C1693 C1697 1.385 . S
C1694 H1675 0.951 . S
C1694 C1692 1.388 . S
C1694 C1695 1.366 . S
C1695 C1694 1.366 . S
C1695 C1696 1.414 1_455 S
C1695 C1698 1.499 . S
C1696 H1676 0.950 . S
C1696 C1695 1.414 1_655 S
C1696 C1697 1.374 1_655 S
C1697 H1677 0.950 1_455 S
C1697 C1693 1.385 . S
C1697 C1696 1.374 1_455 S
C1698 C1695 1.499 . S
C1698 C1699 1.373 1_455 S
C1698 C1700 1.389 . S
C1699 H1678 0.950 . S
C1699 C1698 1.373 1_655 S
C1699 C1715 1.377 1_556 S
C1700 C1698 1.389 . S
C1700 C1701 1.524 . S
C1700 C1714 1.377 1_556 S
C1701 C1700 1.524 . S
C1701 C1702 1.397 . S
C1701 C1706 1.349 1_556 S
C1702 H1679 0.950 . S
C1702 C1701 1.397 . S
C1702 C1703 1.334 . S
C1703 H1680 0.950 . S
C1703 C1702 1.334 . S
C1703 C1704 1.287 . S
C1704 C1703 1.287 . S
C1704 C1705 1.524 . S
C1704 H1723 0.913 . S
C1705 H1681 0.950 1_556 S
C1705 C1704 1.524 . S
C1705 C1706 1.411 1_556 S
C1706 H1682 0.969 . S
C1706 C1701 1.349 1_554 S
C1706 C1705 1.411 1_554 S
C1707 H1683 0.951 . S
C1707 C1708 1.366 . S
C1707 C1709 1.388 . S
C1708 C1707 1.366 . S
C1708 C1712 1.385 . S
C1709 H1684 0.951 . S
C1709 C1707 1.388 . S
C1709 C1710 1.366 . S
C1710 C1709 1.366 . S
C1710 C1711 1.414 1_655 S
C1710 C1713 1.499 . S
C1711 H1685 0.950 . S
C1711 C1710 1.414 1_455 S
C1711 C1712 1.374 1_455 S
C1712 H1686 0.950 1_655 S
C1712 C1708 1.385 . S
C1712 C1711 1.374 1_655 S
C1713 C1710 1.499 . S
C1713 C1714 1.373 1_655 S
C1713 C1715 1.389 . S
C1714 H1687 0.950 . S
C1714 C1700 1.377 1_554 S
C1714 C1713 1.373 1_455 S
C1715 C1699 1.377 1_554 S
C1715 C1713 1.389 . S
C1715 C1716 1.524 . S
C1716 C1715 1.524 . S
C1716 C1717 1.397 . S
C1716 C1721 1.349 1_554 S
C1717 H1688 0.950 . S
C1717 C1716 1.397 . S
C1717 C1718 1.334 . S
C1718 H1689 0.950 . S
C1718 C1717 1.334 . S
C1718 C1719 1.287 . S
C1719 C1718 1.287 . S
C1719 C1720 1.524 . S
C1719 H1722 0.999 . S
C1720 H1690 0.950 1_554 S
C1720 C1719 1.524 . S
C1720 C1721 1.411 1_554 S
C1721 H1691 0.969 . S
C1721 C1716 1.349 1_556 S
C1721 C1720 1.411 1_556 S
H1722 C1719 0.999 . S
H1723 C1704 0.913 . S
H1724 C1742 0.951 . S
H1725 C1744 0.957 . S
H1726 C1746 0.950 . S
H1727 C1747 0.950 . S
H1728 C1749 0.950 . S
H1729 C1752 0.950 . S
H1730 C1753 0.950 . S
H1731 C1755 0.950 . S
H1732 C1756 0.950 . S
H1733 C1757 0.951 . S
H1734 C1759 0.957 . S
H1735 C1761 0.950 . S
H1736 C1762 0.950 . S
H1737 C1764 0.950 . S
H1738 C1767 0.950 . S
H1739 C1768 0.950 . S
H1740 C1770 0.950 . S
H1741 C1771 0.950 . S
C1742 H1724 0.951 . S
C1742 C1743 1.366 . S
C1742 C1744 1.388 . S
C1743 C1742 1.366 . S
C1743 C1747 1.385 . S
C1744 H1725 0.957 . S
C1744 C1742 1.388 . S
C1744 C1745 1.366 . S
C1745 C1744 1.366 . S
C1745 C1746 1.414 . S
C1745 C1748 1.499 . S
C1746 H1726 0.950 . S
C1746 C1745 1.414 . S
C1746 C1747 1.374 . S
C1747 H1727 0.950 . S
C1747 C1743 1.385 . S
C1747 C1746 1.374 . S
C1748 C1745 1.499 . S
C1748 C1749 1.373 . S
C1748 C1750 1.389 1_545 S
C1749 H1728 0.950 . S
C1749 C1748 1.373 . S
C1749 C1765 1.377 1_556 S
C1750 C1748 1.389 1_565 S
C1750 C1751 1.524 . S
C1750 C1764 1.377 1_556 S
C1751 C1750 1.524 . S
C1751 C1752 1.397 . S
C1751 C1756 1.363 . S
C1752 H1729 0.950 . S
C1752 C1751 1.397 . S
C1752 C1753 1.334 . S
C1753 H1730 0.950 . S
C1753 C1752 1.334 . S
C1753 C1754 1.287 . S
C1754 C1753 1.287 . S
C1754 C1755 1.524 . S
C1754 H1773 0.913 . S
C1755 H1731 0.950 . S
C1755 C1754 1.524 . S
C1755 C1756 1.415 . S
C1756 H1732 0.950 . S
C1756 C1751 1.363 . S
C1756 C1755 1.415 . S
C1757 H1733 0.951 . S
C1757 C1758 1.366 . S
C1757 C1759 1.388 . S
C1758 C1757 1.366 . S
C1758 C1762 1.385 . S
C1759 H1734 0.957 . S
C1759 C1757 1.388 . S
C1759 C1760 1.366 . S
C1760 C1759 1.366 . S
C1760 C1761 1.414 . S
C1760 C1763 1.499 . S
C1761 H1735 0.950 . S
C1761 C1760 1.414 . S
C1761 C1762 1.374 . S
C1762 H1736 0.950 . S
C1762 C1758 1.385 . S
C1762 C1761 1.374 . S
C1763 C1760 1.499 . S
C1763 C1764 1.373 . S
C1763 C1765 1.389 1_565 S
C1764 H1737 0.950 . S
C1764 C1750 1.377 1_554 S
C1764 C1763 1.373 . S
C1765 C1749 1.377 1_554 S
C1765 C1763 1.389 1_545 S
C1765 C1766 1.524 . S
C1766 C1765 1.524 . S
C1766 C1767 1.397 . S
C1766 C1771 1.363 . S
C1767 H1738 0.950 . S
C1767 C1766 1.397 . S
C1767 C1768 1.334 . S
C1768 H1739 0.950 . S
C1768 C1767 1.334 . S
C1768 C1769 1.287 . S
C1769 C1768 1.287 . S
C1769 C1770 1.524 . S
C1769 H1772 0.999 . S
C1770 H1740 0.950 . S
C1770 C1769 1.524 . S
C1770 C1771 1.415 . S
C1771 H1741 0.950 . S
C1771 C1766 1.363 . S
C1771 C1770 1.415 . S
H1772 C1769 0.999 . S
H1773 C1754 0.913 . S
H1774 C1792 0.951 . S
H1775 C1794 0.951 1_455 S
H1776 C1796 0.950 . S
H1777 C1797 0.950 . S
H1778 C1799 0.950 . S
H1779 C1802 0.950 . S
H1780 C1803 0.950 . S
H1781 C1805 0.950 . S
H1782 C1806 0.950 . S
H1783 C1807 0.951 . S
H1784 C1809 0.951 1_655 S
H1785 C1811 0.950 . S
H1786 C1812 0.950 . S
H1787 C1814 0.950 . S
H1788 C1817 0.950 . S
H1789 C1818 0.950 . S
H1790 C1820 0.950 . S
H1791 C1821 0.950 . S
C1792 H1774 0.951 . S
C1792 C1793 1.366 . S
C1792 C1794 1.388 . S
C1793 C1792 1.366 . S
C1793 C1797 1.385 . S
C1794 H1775 0.951 1_655 S
C1794 C1792 1.388 . S
C1794 C1795 1.366 . S
C1795 C1794 1.366 . S
C1795 C1796 1.414 . S
C1795 C1798 1.499 . S
C1796 H1776 0.950 . S
C1796 C1795 1.414 . S
C1796 C1797 1.374 . S
C1797 H1777 0.950 . S
C1797 C1793 1.385 . S
C1797 C1796 1.374 . S
C1798 C1795 1.499 . S
C1798 C1799 1.373 . S
C1798 C1800 1.389 1_655 S
C1799 H1778 0.950 . S
C1799 C1798 1.373 . S
C1799 C1815 1.377 1_556 S
C1800 C1798 1.389 1_455 S
C1800 C1801 1.524 . S
C1800 C1814 1.377 1_556 S
C1801 C1800 1.524 . S
C1801 C1802 1.397 . S
C1801 C1806 1.363 . S
C1802 H1779 0.950 . S
C1802 C1801 1.397 . S
C1802 C1803 1.334 . S
C1803 H1780 0.950 . S
C1803 C1802 1.334 . S
C1803 C1804 1.287 . S
C1804 C1803 1.287 . S
C1804 C1805 1.524 . S
C1804 H1823 0.913 . S
C1805 H1781 0.950 . S
C1805 C1804 1.524 . S
C1805 C1806 1.415 . S
C1806 H1782 0.950 . S
C1806 C1801 1.363 . S
C1806 C1805 1.415 . S
C1807 H1783 0.951 . S
C1807 C1808 1.366 . S
C1807 C1809 1.388 . S
C1808 C1807 1.366 . S
C1808 C1812 1.385 . S
C1809 H1784 0.951 1_455 S
C1809 C1807 1.388 . S
C1809 C1810 1.366 . S
C1810 C1809 1.366 . S
C1810 C1811 1.414 . S
C1810 C1813 1.499 . S
C1811 H1785 0.950 . S
C1811 C1810 1.414 . S
C1811 C1812 1.374 . S
C1812 H1786 0.950 . S
C1812 C1808 1.385 . S
C1812 C1811 1.374 . S
C1813 C1810 1.499 . S
C1813 C1814 1.373 . S
C1813 C1815 1.389 1_455 S
C1814 H1787 0.950 . S
C1814 C1800 1.377 1_554 S
C1814 C1813 1.373 . S
C1815 C1799 1.377 1_554 S
C1815 C1813 1.389 1_655 S
C1815 C1816 1.524 . S
C1816 C1815 1.524 . S
C1816 C1817 1.397 . S
C1816 C1821 1.363 . S
C1817 H1788 0.950 . S
C1817 C1816 1.397 . S
C1817 C1818 1.334 . S
C1818 H1789 0.950 . S
C1818 C1817 1.334 . S
C1818 C1819 1.287 . S
C1819 C1818 1.287 . S
C1819 C1820 1.524 . S
C1819 H1822 0.999 . S
C1820 H1790 0.950 . S
C1820 C1819 1.524 . S
C1820 C1821 1.415 . S
C1821 H1791 0.950 . S
C1821 C1816 1.363 . S
C1821 C1820 1.415 . S
H1822 C1819 0.999 . S
H1823 C1804 0.913 . S
C243 C8 1.174 . S
C258 C106 1.174 . S
C293 C22 1.174 . S
C308 C64 1.174 . S
C343 C78 1.174 . S
C358 C36 1.174 . S
C393 C50 1.174 . S
C408 C92 1.174 . S
C443 C120 1.174 . S
C458 C218 1.174 . S
C493 C176 1.174 . S
C508 C134 1.174 . S
C543 C190 1.174 . S
C558 C148 1.174 . S
C593 C204 1.174 . S
C608 C162 1.174 . S
C643 C9 1.310 . S
C658 C157 1.365 . S
C693 C23 1.311 . S
C708 C115 1.365 . S
C743 C129 1.365 . S
C758 C37 1.310 . S
C793 C51 1.310 . S
C808 C143 1.365 . S
C843 C65 1.310 . S
C858 C185 1.365 . S
C893 C199 1.365 . S
C908 C79 1.310 . S
C943 C93 1.310 . S
C958 C213 1.365 . S
C993 C171 1.365 . S
C1008 C107 1.309 . S
C1043 C121 1.310 1_545 S
C1058 C45 1.365 . S
C1093 C3 1.365 . S
C1108 C135 1.309 1_455 S
C1143 C149 1.309 1_565 S
C1158 C17 1.365 . S
C1193 C31 1.365 . S
C1208 C163 1.310 1_655 S
C1243 C177 1.309 1_565 S
C1258 C73 1.365 . S
C1293 C87 1.365 . S
C1308 C191 1.310 1_655 S
C1343 C101 1.365 . S
C1358 C205 1.309 1_545 S
C1393 C59 1.365 . S
C1408 C219 1.310 1_455 S
C1443 C63 1.619 . S
C1458 C7 1.620 . S
C1493 C77 1.619 . S
C1508 C21 1.620 . S
C1543 C35 1.619 . S
C1558 C91 1.620 . S
C1593 C105 1.620 . S
C1608 C49 1.619 . S
C1643 C175 1.620 . S
C1658 C119 1.619 . S
C1693 C189 1.619 . S
C1708 C133 1.620 . S
C1743 C147 1.620 . S
C1758 C203 1.620 . S
C1793 C217 1.620 . S
C1808 C161 1.619 . S
