# Generated by pormake.
# Topology vbm, (6)-cn, num edge types: 1
# Building blocks:
#     Node 0, Type 0, BuildingBlock: MIFKUJ_clean_sbu_0, # of connection points: 6
#     Node 1, Type 0, BuildingBlock: MIFKUJ_clean_sbu_0, # of connection points: 6
#     Node 2, Type 0, BuildingBlock: MIFKUJ_clean_sbu_0, # of connection points: 6
#     Node 3, Type 0, BuildingBlock: MIFKUJ_clean_sbu_0, # of connection points: 6
#     Node 4, Type 0, BuildingBlock: MIFKUJ_clean_sbu_0, # of connection points: 6
#     Node 5, Type 0, BuildingBlock: MIFKUJ_clean_sbu_0, # of connection points: 6
#     Node 6, Type 0, BuildingBlock: MIFKUJ_clean_sbu_0, # of connection points: 6
#     Node 7, Type 0, BuildingBlock: MIFKUJ_clean_sbu_0, # of connection points: 6
#     Node 8, Type 0, BuildingBlock: MIFKUJ_clean_sbu_0, # of connection points: 6
#     Node 9, Type 0, BuildingBlock: MIFKUJ_clean_sbu_0, # of connection points: 6
#     Node 10, Type 0, BuildingBlock: MIFKUJ_clean_sbu_0, # of connection points: 6
#     Node 11, Type 0, BuildingBlock: MIFKUJ_clean_sbu_0, # of connection points: 6
#     Node 12, Type 0, BuildingBlock: MIFKUJ_clean_sbu_0, # of connection points: 6
#     Node 13, Type 0, BuildingBlock: MIFKUJ_clean_sbu_0, # of connection points: 6
#     Node 14, Type 0, BuildingBlock: MIFKUJ_clean_sbu_0, # of connection points: 6
#     Node 15, Type 0, BuildingBlock: MIFKUJ_clean_sbu_0, # of connection points: 6
#     Edge 16, Type (0, 0), BuildingBlock: XIVTED_clean_linker_0, # of connection points: 2
#     Edge 17, Type (0, 0), BuildingBlock: XIVTED_clean_linker_0, # of connection points: 2
#     Edge 18, Type (0, 0), BuildingBlock: XIVTED_clean_linker_0, # of connection points: 2
#     Edge 19, Type (0, 0), BuildingBlock: XIVTED_clean_linker_0, # of connection points: 2
#     Edge 20, Type (0, 0), BuildingBlock: XIVTED_clean_linker_0, # of connection points: 2
#     Edge 21, Type (0, 0), BuildingBlock: XIVTED_clean_linker_0, # of connection points: 2
#     Edge 22, Type (0, 0), BuildingBlock: XIVTED_clean_linker_0, # of connection points: 2
#     Edge 23, Type (0, 0), BuildingBlock: XIVTED_clean_linker_0, # of connection points: 2
#     Edge 24, Type (0, 0), BuildingBlock: XIVTED_clean_linker_0, # of connection points: 2
#     Edge 25, Type (0, 0), BuildingBlock: XIVTED_clean_linker_0, # of connection points: 2
#     Edge 26, Type (0, 0), BuildingBlock: XIVTED_clean_linker_0, # of connection points: 2
#     Edge 27, Type (0, 0), BuildingBlock: XIVTED_clean_linker_0, # of connection points: 2
#     Edge 28, Type (0, 0), BuildingBlock: XIVTED_clean_linker_0, # of connection points: 2
#     Edge 29, Type (0, 0), BuildingBlock: XIVTED_clean_linker_0, # of connection points: 2
#     Edge 30, Type (0, 0), BuildingBlock: XIVTED_clean_linker_0, # of connection points: 2
#     Edge 31, Type (0, 0), BuildingBlock: XIVTED_clean_linker_0, # of connection points: 2
#     Edge 32, Type (0, 0), BuildingBlock: XIVTED_clean_linker_0, # of connection points: 2
#     Edge 33, Type (0, 0), BuildingBlock: XIVTED_clean_linker_0, # of connection points: 2
#     Edge 34, Type (0, 0), BuildingBlock: XIVTED_clean_linker_0, # of connection points: 2
#     Edge 35, Type (0, 0), BuildingBlock: XIVTED_clean_linker_0, # of connection points: 2
#     Edge 36, Type (0, 0), BuildingBlock: XIVTED_clean_linker_0, # of connection points: 2
#     Edge 37, Type (0, 0), BuildingBlock: XIVTED_clean_linker_0, # of connection points: 2
#     Edge 38, Type (0, 0), BuildingBlock: XIVTED_clean_linker_0, # of connection points: 2
#     Edge 39, Type (0, 0), BuildingBlock: XIVTED_clean_linker_0, # of connection points: 2
#     Edge 40, Type (0, 0), BuildingBlock: XIVTED_clean_linker_0, # of connection points: 2
#     Edge 41, Type (0, 0), BuildingBlock: XIVTED_clean_linker_0, # of connection points: 2
#     Edge 42, Type (0, 0), BuildingBlock: XIVTED_clean_linker_0, # of connection points: 2
#     Edge 43, Type (0, 0), BuildingBlock: XIVTED_clean_linker_0, # of connection points: 2
#     Edge 44, Type (0, 0), BuildingBlock: XIVTED_clean_linker_0, # of connection points: 2
#     Edge 45, Type (0, 0), BuildingBlock: XIVTED_clean_linker_0, # of connection points: 2
#     Edge 46, Type (0, 0), BuildingBlock: XIVTED_clean_linker_0, # of connection points: 2
#     Edge 47, Type (0, 0), BuildingBlock: XIVTED_clean_linker_0, # of connection points: 2
#     Edge 48, Type (0, 0), BuildingBlock: XIVTED_clean_linker_0, # of connection points: 2
#     Edge 49, Type (0, 0), BuildingBlock: XIVTED_clean_linker_0, # of connection points: 2
#     Edge 50, Type (0, 0), BuildingBlock: XIVTED_clean_linker_0, # of connection points: 2
#     Edge 51, Type (0, 0), BuildingBlock: XIVTED_clean_linker_0, # of connection points: 2
#     Edge 52, Type (0, 0), BuildingBlock: XIVTED_clean_linker_0, # of connection points: 2
#     Edge 53, Type (0, 0), BuildingBlock: XIVTED_clean_linker_0, # of connection points: 2
#     Edge 54, Type (0, 0), BuildingBlock: XIVTED_clean_linker_0, # of connection points: 2
#     Edge 55, Type (0, 0), BuildingBlock: XIVTED_clean_linker_0, # of connection points: 2
#     Edge 56, Type (0, 0), BuildingBlock: XIVTED_clean_linker_0, # of connection points: 2
#     Edge 57, Type (0, 0), BuildingBlock: XIVTED_clean_linker_0, # of connection points: 2
#     Edge 58, Type (0, 0), BuildingBlock: XIVTED_clean_linker_0, # of connection points: 2
#     Edge 59, Type (0, 0), BuildingBlock: XIVTED_clean_linker_0, # of connection points: 2
#     Edge 60, Type (0, 0), BuildingBlock: XIVTED_clean_linker_0, # of connection points: 2
#     Edge 61, Type (0, 0), BuildingBlock: XIVTED_clean_linker_0, # of connection points: 2
#     Edge 62, Type (0, 0), BuildingBlock: XIVTED_clean_linker_0, # of connection points: 2
#     Edge 63, Type (0, 0), BuildingBlock: XIVTED_clean_linker_0, # of connection points: 2
# Relax obj value: 0.053
# Max RMSD: 0.106
# Mean RMSD: 0.106
data_MOF--net-vbm--node1-MIFKUJ_clean_sbu_0--edge1-XIVTED_clean_linker_0
_symmetry_space_group_name_H-M    P1
_symmetry_Int_Tables_number       1
_symmetry_cell_setting            triclinic
loop_
_symmetry_equiv_pos_as_xyz
'x, y, z'
_cell_length_a     67.437226
_cell_length_b     18.914373
_cell_length_c     55.622065
_cell_angle_alpha  89.922116
_cell_angle_beta   90.047095
_cell_angle_gamma 90.156336
loop_
_atom_site_label
_atom_site_type_symbol
_atom_site_fract_x
_atom_site_fract_y
_atom_site_fract_z
_atom_type_partial_charge
Zn0 Zn 0.13039 0.21874 0.12826 0.0
Zn1 Zn 0.1269 0.03919 0.12458 0.0
C2 C 0.17045 0.23447 0.14368 0.0
O3 O 0.16135 0.25639 0.16316 0.0
C4 C 0.08626 1.00016 0.12479 0.0
O5 O 0.09349 0.95111 0.11062 0.0
O6 O 0.12488 0.32311 0.13297 0.0
O7 O 0.11952 0.18988 0.09547 0.0
O8 O 0.12926 0.07811 0.09163 0.0
C9 C 0.13289 0.36596 0.1182 0.0
O10 O 0.14324 0.3403 0.10022 0.0
O11 O 0.16017 0.21333 0.12593 0.0
C12 C 0.12851 0.89339 0.14047 0.0
O13 O 0.11954 0.91991 0.15936 0.0
O14 O 0.13376 0.93477 0.12355 0.0
O15 O 0.14393 0.08623 0.14891 0.0
O16 O 0.12192 0.16558 0.15853 0.0
O17 O 0.0979 0.04652 0.13354 0.0
C18 C 0.12296 0.13558 0.08256 0.0
C19 C 0.13332 0.11539 0.16479 0.0
Zn20 Zn 0.86336 0.77825 0.12385 0.0
Zn21 Zn 0.89887 0.97034 0.12683 0.0
C22 C 0.82381 0.72771 0.12709 0.0
O23 O 0.83277 0.68195 0.14114 0.0
C24 C 0.93887 0.0166 0.12691 0.0
O25 O 0.931 0.06372 0.11241 0.0
O26 O 0.87381 0.6782 0.12409 0.0
O27 O 0.87829 0.83989 0.09873 0.0
O28 O 0.89699 0.93573 0.09304 0.0
C29 C 0.86816 0.6316 0.10909 0.0
O30 O 0.85621 0.65001 0.09151 0.0
O31 O 0.83405 0.77517 0.1166 0.0
C32 C 0.89444 0.1179 0.1417 0.0
O33 O 0.90822 0.1017 0.15745 0.0
O34 O 0.88765 0.06987 0.12793 0.0
O35 O 0.88307 0.89816 0.14356 0.0
O36 O 0.86512 0.81444 0.15825 0.0
O37 O 0.92779 0.96931 0.13615 0.0
C38 C 0.88795 0.88146 0.0848 0.0
C39 C 0.87484 0.87085 0.16168 0.0
Zn40 Zn 0.14582 0.77983 0.36218 0.0
Zn41 Zn 0.10863 0.96902 0.36071 0.0
C42 C 0.18495 0.74628 0.35082 0.0
O43 O 0.17488 0.72103 0.33249 0.0
C44 C 0.06799 0.01156 0.36107 0.0
O45 O 0.07549 0.06039 0.37521 0.0
O46 O 0.13577 0.67882 0.36162 0.0
O47 O 0.13123 0.8387 0.38848 0.0
O48 O 0.11186 0.93296 0.39421 0.0
C49 C 0.14384 0.6306 0.37421 0.0
O50 O 0.1581 0.64776 0.38924 0.0
O51 O 0.17551 0.77601 0.36783 0.0
C52 C 0.11222 0.11767 0.34585 0.0
O53 O 0.09791 0.1015 0.33077 0.0
O54 O 0.11943 0.06955 0.35926 0.0
O55 O 0.12449 0.89896 0.34354 0.0
O56 O 0.14281 0.81806 0.32811 0.0
O57 O 0.07945 0.96518 0.35213 0.0
C58 C 0.1215 0.87996 0.40241 0.0
C59 C 0.13262 0.87341 0.32513 0.0
Zn60 Zn 0.8706 0.215 0.35782 0.0
Zn61 Zn 0.87969 0.03177 0.36199 0.0
C62 C 0.83073 0.22527 0.33984 0.0
O63 O 0.84021 0.24336 0.32013 0.0
C64 C 0.92042 0.99525 0.36044 0.0
O65 O 0.91355 0.94648 0.37508 0.0
O66 O 0.87629 0.31849 0.35337 0.0
O67 O 0.88015 0.18792 0.39137 0.0
O68 O 0.87855 0.0708 0.39496 0.0
C69 C 0.86811 0.3611 0.36794 0.0
O70 O 0.85722 0.33546 0.38551 0.0
O71 O 0.84067 0.20842 0.3584 0.0
C72 C 0.87777 0.88687 0.34667 0.0
O73 O 0.88678 0.9131 0.3277 0.0
O74 O 0.87282 0.92817 0.36363 0.0
O75 O 0.86124 0.07726 0.33883 0.0
O76 O 0.88069 0.16367 0.32813 0.0
O77 O 0.90847 0.04039 0.35163 0.0
C78 C 0.88079 0.13186 0.40409 0.0
C79 C 0.87099 0.1085 0.32256 0.0
Zn80 Zn 0.89998 0.97494 0.86413 0.0
Zn81 Zn 0.86447 0.78235 0.86512 0.0
C82 C 0.93937 0.00608 0.87375 0.0
O83 O 0.9299 0.03224 0.89235 0.0
C84 C 0.82447 0.73638 0.85954 0.0
O85 O 0.83329 0.69176 0.84499 0.0
O86 O 0.8889 0.07443 0.86254 0.0
O87 O 0.88503 0.90306 0.84646 0.0
O88 O 0.86783 0.81897 0.83085 0.0
C89 C 0.89801 0.12272 0.85098 0.0
O90 O 0.9138 0.10604 0.83842 0.0
O91 O 0.92938 0.97615 0.85722 0.0
C92 C 0.86727 0.63501 0.87979 0.0
O93 O 0.85448 0.65442 0.89631 0.0
O94 O 0.87412 0.68119 0.86535 0.0
O95 O 0.87859 0.84099 0.89181 0.0
O96 O 0.89679 0.93838 0.89748 0.0
O97 O 0.83493 0.78129 0.87095 0.0
C98 C 0.87759 0.87555 0.82791 0.0
C99 C 0.88804 0.88342 0.90566 0.0
Zn100 Zn 0.12776 0.04059 0.86315 0.0
Zn101 Zn 0.12971 0.21667 0.85635 0.0
C102 C 0.08785 0.02865 0.87585 0.0
O103 O 0.09693 0.00371 0.89496 0.0
C104 C 0.16914 0.2347 0.83925 0.0
O105 O 0.15931 0.25454 0.82 0.0
O106 O 0.13294 0.93472 0.86484 0.0
O107 O 0.14287 0.08151 0.83599 0.0
O108 O 0.12071 0.16112 0.82665 0.0
C109 C 0.12415 0.89354 0.85016 0.0
O110 O 0.11254 0.92103 0.83364 0.0
O111 O 0.09822 0.05063 0.85827 0.0
C112 C 0.13195 0.3637 0.86645 0.0
O113 O 0.143 0.3374 0.88374 0.0
O114 O 0.12359 0.32124 0.85182 0.0
O115 O 0.11968 0.18814 0.88964 0.0
O116 O 0.13432 0.08409 0.8946 0.0
O117 O 0.15955 0.21333 0.85754 0.0
C118 C 0.13161 0.10942 0.82046 0.0
C119 C 0.12602 0.13871 0.90323 0.0
Zn120 Zn 0.87857 0.03234 0.62432 0.0
Zn121 Zn 0.87031 0.21341 0.63046 0.0
C122 C 0.91873 0.02276 0.61307 0.0
O123 O 0.90982 0.99824 0.59378 0.0
C124 C 0.83046 0.22267 0.64869 0.0
O125 O 0.84005 0.24051 0.66835 0.0
O126 O 0.87332 0.92724 0.6229 0.0
O127 O 0.86171 0.07334 0.6499 0.0
O128 O 0.88089 0.16135 0.66001 0.0
C129 C 0.88192 0.8862 0.63772 0.0
O130 O 0.89367 0.91348 0.65415 0.0
O131 O 0.90813 0.04362 0.6306 0.0
C132 C 0.86737 0.35976 0.62015 0.0
O133 O 0.85602 0.33335 0.60315 0.0
O134 O 0.87591 0.31765 0.63467 0.0
O135 O 0.87999 0.18735 0.59681 0.0
O136 O 0.8733 0.07289 0.59208 0.0
O137 O 0.84032 0.20608 0.63006 0.0
C138 C 0.87193 0.10462 0.66572 0.0
C139 C 0.87772 0.13315 0.58345 0.0
Zn140 Zn 0.10732 0.97074 0.62291 0.0
Zn141 Zn 0.14451 0.7808 0.62328 0.0
C142 C 0.06745 0.99893 0.61281 0.0
O143 O 0.07668 0.02436 0.59387 0.0
C144 C 0.18362 0.75086 0.63716 0.0
O145 O 0.17316 0.72596 0.65522 0.0
O146 O 0.1183 0.07087 0.62483 0.0
O147 O 0.12222 0.89975 0.64073 0.0
O148 O 0.13962 0.818 0.65721 0.0
C149 C 0.10878 0.11938 0.63566 0.0
O150 O 0.0924 0.10291 0.64716 0.0
O151 O 0.07769 0.97036 0.62939 0.0
C152 C 0.14428 0.63126 0.61127 0.0
O153 O 0.15931 0.64966 0.59759 0.0
O154 O 0.13518 0.67872 0.62309 0.0
O155 O 0.13068 0.83783 0.59563 0.0
O156 O 0.11168 0.93347 0.58986 0.0
O157 O 0.17451 0.77918 0.61955 0.0
C158 C 0.12938 0.87344 0.65962 0.0
C159 C 0.12114 0.88008 0.58174 0.0
Zn160 Zn 0.63485 0.71301 0.126 0.0
Zn161 Zn 0.62122 0.52326 0.12111 0.0
C162 C 0.6758 0.74871 0.13519 0.0
O163 O 0.66771 0.80555 0.14444 0.0
C164 C 0.58137 0.50219 0.11259 0.0
O165 O 0.59006 0.47557 0.09352 0.0
O166 O 0.63004 0.81791 0.12875 0.0
O167 O 0.62582 0.68433 0.09237 0.0
O168 O 0.6235 0.56743 0.08868 0.0
C169 C 0.6326 0.85755 0.11053 0.0
O170 O 0.63709 0.82885 0.08976 0.0
O171 O 0.66468 0.69989 0.12698 0.0
C172 C 0.6393 0.38326 0.13004 0.0
O173 O 0.64999 0.4139 0.14682 0.0
O174 O 0.62736 0.41982 0.11751 0.0
O175 O 0.63763 0.5672 0.14682 0.0
O176 O 0.62265 0.66643 0.15544 0.0
O177 O 0.59212 0.5279 0.12923 0.0
C178 C 0.6234 0.6291 0.07961 0.0
C179 C 0.62785 0.60449 0.16152 0.0
Zn180 Zn 0.35792 0.29126 0.12456 0.0
Zn181 Zn 0.39312 0.48413 0.125 0.0
C182 C 0.31888 0.26315 0.13865 0.0
O183 O 0.32916 0.23831 0.15685 0.0
C184 C 0.4329 0.5105 0.11475 0.0
O185 O 0.42385 0.53633 0.09575 0.0
O186 O 0.36711 0.18976 0.12333 0.0
O187 O 0.37128 0.35093 0.09736 0.0
O188 O 0.38916 0.44928 0.09165 0.0
C189 C 0.3575 0.14242 0.11198 0.0
O190 O 0.34197 0.16079 0.09917 0.0
O191 O 0.3281 0.29043 0.12096 0.0
C192 C 0.39173 0.63169 0.13819 0.0
O193 O 0.40841 0.61547 0.14907 0.0
O194 O 0.38194 0.58315 0.12767 0.0
O195 O 0.37894 0.41046 0.14225 0.0
O196 O 0.36304 0.32509 0.15881 0.0
O197 O 0.42252 0.48356 0.1315 0.0
C198 C 0.38037 0.39442 0.08347 0.0
C199 C 0.37274 0.38185 0.16123 0.0
Zn200 Zn 0.64338 0.2981 0.36134 0.0
Zn201 Zn 0.60728 0.48891 0.36389 0.0
C202 C 0.68248 0.26967 0.3463 0.0
O203 O 0.67213 0.24691 0.32782 0.0
C204 C 0.56772 0.51465 0.37645 0.0
O205 O 0.57746 0.53849 0.39525 0.0
O206 O 0.63409 0.19627 0.362 0.0
O207 O 0.63097 0.35375 0.39007 0.0
O208 O 0.61273 0.45049 0.39664 0.0
C209 C 0.64338 0.14915 0.3738 0.0
O210 O 0.65859 0.16792 0.38713 0.0
O211 O 0.67333 0.29607 0.36415 0.0
C212 C 0.60831 0.63683 0.35086 0.0
O213 O 0.59196 0.61951 0.33942 0.0
O214 O 0.61802 0.58892 0.36178 0.0
O215 O 0.62116 0.4196 0.34419 0.0
O216 O 0.63737 0.33511 0.32754 0.0
O217 O 0.5775 0.48863 0.35905 0.0
C218 C 0.62209 0.39636 0.40438 0.0
C219 C 0.62738 0.39121 0.32519 0.0
Zn220 Zn 0.37365 0.70856 0.36042 0.0
Zn221 Zn 0.37857 0.5313 0.36604 0.0
C222 C 0.33346 0.71716 0.34369 0.0
O223 O 0.34256 0.73576 0.32377 0.0
C224 C 0.41894 0.52391 0.37787 0.0
O225 O 0.4104 0.49885 0.39733 0.0
O226 O 0.37917 0.81317 0.35594 0.0
O227 O 0.3842 0.68112 0.39357 0.0
O228 O 0.37222 0.57226 0.39778 0.0
C229 C 0.37042 0.85593 0.37001 0.0
O230 O 0.35889 0.83021 0.38695 0.0
O231 O 0.34376 0.70082 0.36201 0.0
C232 C 0.38261 0.38409 0.35338 0.0
O233 O 0.39478 0.41083 0.3373 0.0
O234 O 0.37357 0.42569 0.36758 0.0
O235 O 0.3625 0.57154 0.33967 0.0
O236 O 0.38326 0.65609 0.33049 0.0
O237 O 0.40807 0.54397 0.36047 0.0
C238 C 0.37914 0.62891 0.40677 0.0
C239 C 0.37322 0.60223 0.3242 0.0
Zn240 Zn 0.38582 0.48934 0.86247 0.0
Zn241 Zn 0.35624 0.29366 0.86304 0.0
C242 C 0.42331 0.42628 0.8504 0.0
O243 O 0.41471 0.36981 0.85946 0.0
C244 C 0.31715 0.2831 0.84569 0.0
O245 O 0.32727 0.25971 0.82718 0.0
O246 O 0.3774 0.5916 0.86343 0.0
O247 O 0.3671 0.42399 0.84784 0.0
O248 O 0.36541 0.32381 0.82982 0.0
C249 C 0.38898 0.63157 0.87535 0.0
O250 O 0.40439 0.60324 0.88613 0.0
O251 O 0.41344 0.48316 0.84876 0.0
C252 C 0.37512 0.16031 0.8778 0.0
O253 O 0.38771 0.20049 0.8896 0.0
O254 O 0.36123 0.18894 0.86584 0.0
O255 O 0.36972 0.34754 0.89143 0.0
O256 O 0.3864 0.44959 0.89563 0.0
O257 O 0.32651 0.30393 0.86425 0.0
C258 C 0.37015 0.38839 0.82908 0.0
C259 C 0.37915 0.39255 0.90439 0.0
Zn260 Zn 0.60927 0.51327 0.85991 0.0
Zn261 Zn 0.63485 0.71076 0.85661 0.0
C262 C 0.5705 0.46129 0.85587 0.0
O263 O 0.57845 0.4186 0.87181 0.0
C264 C 0.67618 0.75313 0.85494 0.0
O265 O 0.66833 0.81513 0.85038 0.0
O266 O 0.61856 0.41318 0.86495 0.0
O267 O 0.62795 0.57032 0.84092 0.0
O268 O 0.62477 0.67341 0.82471 0.0
C269 C 0.63189 0.37898 0.85386 0.0
O270 O 0.64249 0.41053 0.83717 0.0
O271 O 0.58115 0.51034 0.84691 0.0
C272 C 0.62833 0.8535 0.8751 0.0
O273 O 0.62991 0.82384 0.89637 0.0
O274 O 0.62901 0.81515 0.85639 0.0
O275 O 0.62314 0.66572 0.88747 0.0
O276 O 0.60849 0.56024 0.89196 0.0
O277 O 0.66486 0.69975 0.85779 0.0
C278 C 0.62233 0.60728 0.82325 0.0
C279 C 0.61448 0.61909 0.90051 0.0
Zn280 Zn 0.37799 0.53706 0.62611 0.0
Zn281 Zn 0.37256 0.71345 0.63224 0.0
C282 C 0.41806 0.53189 0.61131 0.0
O283 O 0.40899 0.50879 0.59192 0.0
C284 C 0.33204 0.71701 0.64888 0.0
O285 O 0.34078 0.73461 0.66914 0.0
O286 O 0.37324 0.43127 0.62374 0.0
O287 O 0.36402 0.57182 0.65508 0.0
O288 O 0.3833 0.66303 0.66195 0.0
C289 C 0.38367 0.38883 0.63622 0.0
O290 O 0.39723 0.4147 0.65074 0.0
O291 O 0.40769 0.55015 0.62934 0.0
C292 C 0.36858 0.861 0.62226 0.0
O293 O 0.35674 0.83508 0.60567 0.0
O294 O 0.37757 0.81847 0.63624 0.0
O295 O 0.38345 0.6866 0.59943 0.0
O296 O 0.36924 0.58146 0.59549 0.0
O297 O 0.34268 0.70282 0.63066 0.0
C298 C 0.3749 0.60682 0.66933 0.0
C299 C 0.37708 0.63633 0.58628 0.0
Zn300 Zn 0.60628 0.48227 0.6243 0.0
Zn301 Zn 0.64262 0.29261 0.62757 0.0
C302 C 0.56674 0.50734 0.61121 0.0
O303 O 0.57652 0.52984 0.59225 0.0
C304 C 0.68204 0.26837 0.64336 0.0
O305 O 0.67188 0.24628 0.66208 0.0
O306 O 0.61727 0.58225 0.62663 0.0
O307 O 0.62008 0.41101 0.64319 0.0
O308 O 0.63564 0.32813 0.66147 0.0
C309 C 0.60712 0.63084 0.63652 0.0
O310 O 0.59015 0.61435 0.64671 0.0
O311 O 0.57646 0.48228 0.62887 0.0
C312 C 0.6438 0.14283 0.61565 0.0
O313 O 0.65952 0.16166 0.60323 0.0
O314 O 0.63393 0.18999 0.62667 0.0
O315 O 0.63015 0.34701 0.59818 0.0
O316 O 0.61178 0.44397 0.59172 0.0
O317 O 0.67268 0.29284 0.6253 0.0
C318 C 0.62532 0.38369 0.66282 0.0
C319 C 0.62112 0.38987 0.58397 0.0
H320 H 0.19389 0.22344 0.10359 0.0
H321 H 0.29532 0.23576 0.17728 0.0
H322 H 0.19679 0.25102 0.18054 0.0
H323 H 0.29262 0.28101 0.10126 0.0
H324 H 0.25925 0.22772 0.17823 0.0
H325 H 0.23017 0.23085 0.10184 0.0
C326 C 0.20215 0.23071 0.12012 0.0
C327 C 0.19232 0.23664 0.14226 0.0
C328 C 0.26653 0.23957 0.16134 0.0
C329 C 0.2337 0.24489 0.14036 0.0
C330 C 0.28714 0.24395 0.16075 0.0
C331 C 0.297 0.25917 0.13915 0.0
C332 C 0.25563 0.24956 0.14012 0.0
C333 C 0.28559 0.26948 0.11832 0.0
C334 C 0.22282 0.2353 0.11907 0.0
C335 C 0.20374 0.24639 0.16309 0.0
N336 N 0.26547 0.26412 0.11929 0.0
N337 N 0.22382 0.24991 0.16163 0.0
H338 H 0.79857 0.61862 0.13726 0.0
H339 H 0.70236 0.85728 0.13674 0.0
H340 H 0.79936 0.83571 0.11328 0.0
H341 H 0.69877 0.63081 0.12822 0.0
H342 H 0.73833 0.85067 0.13239 0.0
H343 H 0.76227 0.62175 0.13767 0.0
C344 C 0.7911 0.66678 0.13193 0.0
C345 C 0.80197 0.72711 0.12529 0.0
C346 C 0.72966 0.80247 0.13139 0.0
C347 C 0.76057 0.73123 0.1261 0.0
C348 C 0.70915 0.80607 0.13405 0.0
C349 C 0.69757 0.74441 0.13292 0.0
C350 C 0.73874 0.73661 0.128 0.0
C351 C 0.70716 0.67959 0.12918 0.0
C352 C 0.77041 0.66841 0.13211 0.0
C353 C 0.79155 0.788 0.11846 0.0
N354 N 0.72725 0.67725 0.12707 0.0
N355 N 0.77141 0.78879 0.11933 0.0
H356 H 0.30721 0.7232 0.30638 0.0
H357 H 0.21091 0.77073 0.38824 0.0
H358 H 0.30982 0.71477 0.38387 0.0
H359 H 0.2089 0.71012 0.31348 0.0
H360 H 0.24725 0.76153 0.38709 0.0
H361 H 0.27111 0.72949 0.30865 0.0
C362 C 0.30018 0.72254 0.32389 0.0
C363 C 0.31155 0.71833 0.34496 0.0
C364 C 0.23879 0.75009 0.371 0.0
C365 C 0.27017 0.7262 0.34771 0.0
C366 C 0.21809 0.75558 0.37162 0.0
C367 C 0.20685 0.74117 0.35093 0.0
C368 C 0.24826 0.73105 0.34946 0.0
C369 C 0.21692 0.72155 0.32989 0.0
C370 C 0.27956 0.72599 0.32517 0.0
C371 C 0.30161 0.71759 0.36716 0.0
N372 N 0.23701 0.71745 0.32968 0.0
N373 N 0.28148 0.72195 0.36797 0.0
H374 H 0.80491 0.23664 0.30216 0.0
H375 H 0.70856 0.28662 0.38393 0.0
H376 H 0.80666 0.22248 0.37959 0.0
H377 H 0.70624 0.23838 0.30815 0.0
H378 H 0.74476 0.27382 0.38273 0.0
H379 H 0.76885 0.24725 0.30399 0.0
C380 C 0.79771 0.23557 0.31955 0.0
C381 C 0.80882 0.22857 0.34075 0.0
C382 C 0.73628 0.26596 0.3664 0.0
C383 C 0.76752 0.2414 0.343 0.0
C384 C 0.71565 0.27357 0.36705 0.0
C385 C 0.70436 0.26355 0.34611 0.0
C386 C 0.74566 0.2491 0.3446 0.0
C387 C 0.71432 0.24641 0.32475 0.0
C388 C 0.77711 0.24153 0.32059 0.0
C389 C 0.79866 0.22745 0.36279 0.0
N390 N 0.73437 0.24003 0.32453 0.0
N391 N 0.77858 0.23424 0.36336 0.0
H392 H 0.69894 0.63274 0.85395 0.0
H393 H 0.80062 0.83936 0.87835 0.0
H394 H 0.70294 0.8595 0.86136 0.0
H395 H 0.79857 0.63328 0.84517 0.0
H396 H 0.76434 0.84105 0.87895 0.0
H397 H 0.73522 0.62585 0.85705 0.0
C398 C 0.70742 0.68094 0.85632 0.0
C399 C 0.69794 0.74681 0.85725 0.0
C400 C 0.77186 0.79537 0.87163 0.0
C401 C 0.73923 0.73923 0.86107 0.0
C402 C 0.79255 0.79424 0.87138 0.0
C403 C 0.80262 0.73631 0.86154 0.0
C404 C 0.76116 0.73781 0.86227 0.0
C405 C 0.79139 0.67928 0.85274 0.0
C406 C 0.72809 0.67699 0.85803 0.0
C407 C 0.70964 0.80764 0.86035 0.0
N408 N 0.77125 0.68142 0.85331 0.0
N409 N 0.72965 0.80235 0.86221 0.0
H410 H 0.29126 0.2967 0.88349 0.0
H411 H 0.19439 0.25717 0.80162 0.0
H412 H 0.29317 0.26333 0.80677 0.0
H413 H 0.19359 0.22772 0.87859 0.0
H414 H 0.23036 0.27199 0.80328 0.0
H415 H 0.25505 0.28522 0.88215 0.0
C416 C 0.28406 0.28748 0.86636 0.0
C417 C 0.29524 0.28077 0.84522 0.0
C418 C 0.22232 0.26209 0.8198 0.0
C419 C 0.25394 0.26762 0.84357 0.0
C420 C 0.20178 0.25369 0.81887 0.0
C421 C 0.19098 0.24102 0.83999 0.0
C422 C 0.23214 0.25865 0.84205 0.0
C423 C 0.20136 0.23701 0.86185 0.0
C424 C 0.26343 0.28053 0.86563 0.0
C425 C 0.28515 0.26855 0.82353 0.0
N426 N 0.22137 0.24615 0.86233 0.0
N427 N 0.26509 0.26249 0.82326 0.0
H428 H 0.70785 0.28363 0.60537 0.0
H429 H 0.80487 0.23489 0.68652 0.0
H430 H 0.70619 0.23996 0.68152 0.0
H431 H 0.80606 0.21989 0.60911 0.0
H432 H 0.76883 0.24635 0.68496 0.0
H433 H 0.74406 0.27077 0.60628 0.0
C434 C 0.71509 0.27163 0.62227 0.0
C435 C 0.70396 0.26285 0.6434 0.0
C436 C 0.77695 0.24028 0.66831 0.0
C437 C 0.74531 0.24823 0.64457 0.0
C438 C 0.79755 0.23379 0.66918 0.0
C439 C 0.80852 0.22629 0.64792 0.0
C440 C 0.76719 0.24013 0.64599 0.0
C441 C 0.79819 0.22521 0.62597 0.0
C442 C 0.73573 0.26397 0.62276 0.0
C443 C 0.71412 0.24702 0.66478 0.0
N444 N 0.77811 0.23248 0.62555 0.0
N445 N 0.73418 0.24048 0.66482 0.0
H446 H 0.21043 0.77354 0.60048 0.0
H447 H 0.30505 0.72194 0.68543 0.0
H448 H 0.2068 0.71629 0.6755 0.0
H449 H 0.3091 0.71616 0.60802 0.0
H450 H 0.26902 0.7297 0.6821 0.0
H451 H 0.24671 0.76298 0.60279 0.0
C452 C 0.21724 0.75893 0.61741 0.0
C453 C 0.20555 0.74578 0.63782 0.0
C454 C 0.27777 0.72643 0.66583 0.0
C455 C 0.24692 0.73397 0.6406 0.0
C456 C 0.29836 0.72208 0.66771 0.0
C457 C 0.31013 0.71826 0.64698 0.0
C458 C 0.2688 0.7279 0.64302 0.0
C459 C 0.3006 0.71863 0.62449 0.0
C460 C 0.23791 0.75263 0.61869 0.0
C461 C 0.21516 0.72676 0.65928 0.0
N462 N 0.28049 0.72384 0.62309 0.0
N463 N 0.23523 0.72177 0.66012 0.0
H464 H 0.15316 0.83885 0.28482 0.0
H465 H 0.10885 0.14933 0.20289 0.0
H466 H 0.10936 0.98511 0.31117 0.0
H467 H 0.15574 0.0073 0.18176 0.0
H468 H 0.10756 0.08998 0.24224 0.0
H469 H 0.1526 0.8984 0.24614 0.0
C470 C 0.14336 0.88364 0.28245 0.0
C471 C 0.13144 0.90777 0.30134 0.0
C472 C 0.1181 0.07208 0.22892 0.0
C473 C 0.1308 0.97689 0.25692 0.0
C474 C 0.11888 0.10596 0.20652 0.0
C475 C 0.13239 0.08317 0.18898 0.0
C476 C 0.13091 0.01518 0.23365 0.0
C477 C 0.14503 0.02672 0.19463 0.0
C478 C 0.14309 0.91789 0.26033 0.0
C479 C 0.11901 0.96588 0.29716 0.0
N480 N 0.14393 0.99477 0.21638 0.0
N481 N 0.11902 0.99878 0.27537 0.0
H482 H 0.89436 0.14867 0.28414 0.0
H483 H 0.8545 0.83132 0.20177 0.0
H484 H 0.85142 0.99208 0.30646 0.0
H485 H 0.89701 0.98468 0.17637 0.0
H486 H 0.85449 0.88881 0.24082 0.0
H487 H 0.89652 0.08986 0.24485 0.0
C488 C 0.88542 0.10205 0.2808 0.0
C489 C 0.87273 0.07518 0.29863 0.0
C490 C 0.86384 0.91024 0.22676 0.0
C491 C 0.87514 0.00788 0.25395 0.0
C492 C 0.86389 0.87723 0.20443 0.0
C493 C 0.87561 0.90397 0.18569 0.0
C494 C 0.8756 0.97065 0.23051 0.0
C495 C 0.88751 0.96342 0.19024 0.0
C496 C 0.88668 0.0685 0.25843 0.0
C497 C 0.86146 0.01468 0.29334 0.0
N498 N 0.88717 0.99509 0.2122 0.0
N499 N 0.86295 0.98323 0.27156 0.0
H500 H 0.85859 0.97512 0.67937 0.0
H501 H 0.89564 0.0009 0.81562 0.0
H502 H 0.89127 0.15542 0.70603 0.0
H503 H 0.86327 0.8251 0.78551 0.0
H504 H 0.89603 0.05731 0.77582 0.0
H505 H 0.86199 0.91842 0.71815 0.0
C506 C 0.86653 0.00297 0.69342 0.0
C507 C 0.8746 0.07042 0.68942 0.0
C508 C 0.88895 0.00625 0.77796 0.0
C509 C 0.87846 0.0053 0.73434 0.0
C510 C 0.88872 0.97413 0.80064 0.0
C511 C 0.87927 0.90861 0.80392 0.0
C512 C 0.87968 0.97228 0.7585 0.0
C513 C 0.87063 0.87582 0.78389 0.0
C514 C 0.86849 0.97033 0.71566 0.0
C515 C 0.8848 0.10343 0.70837 0.0
N516 N 0.87099 0.9081 0.76213 0.0
N517 N 0.88636 0.07064 0.73013 0.0
H518 H 0.14827 0.98568 0.80665 0.0
H519 H 0.10977 0.99626 0.67092 0.0
H520 H 0.11069 0.15344 0.78032 0.0
H521 H 0.14381 0.82702 0.70244 0.0
H522 H 0.10868 0.0547 0.71032 0.0
H523 H 0.14573 0.92734 0.76819 0.0
C524 C 0.13947 0.01055 0.79272 0.0
C525 C 0.12974 0.07493 0.79674 0.0
C526 C 0.11627 0.00459 0.70857 0.0
C527 C 0.1268 0.00765 0.75217 0.0
C528 C 0.11691 0.97134 0.68612 0.0
C529 C 0.12706 0.90716 0.68336 0.0
C530 C 0.12586 0.97314 0.72828 0.0
C531 C 0.13592 0.87666 0.70365 0.0
C532 C 0.13798 0.97684 0.77067 0.0
C533 C 0.11846 0.10393 0.77795 0.0
N534 N 0.13518 0.91007 0.72515 0.0
N535 N 0.11736 0.07017 0.75634 0.0
H536 H 0.63084 0.32551 0.28195 0.0
H537 H 0.62143 0.67667 0.20373 0.0
H538 H 0.61567 0.5261 0.31365 0.0
H539 H 0.62313 0.46657 0.17392 0.0
H540 H 0.61792 0.6248 0.24408 0.0
H541 H 0.62725 0.37764 0.24216 0.0
C542 C 0.62662 0.38058 0.28052 0.0
C543 C 0.62363 0.42169 0.30114 0.0
C544 C 0.61892 0.59015 0.22865 0.0
C545 C 0.61966 0.48225 0.25548 0.0
C546 C 0.62087 0.6197 0.20566 0.0
C547 C 0.62315 0.57567 0.18556 0.0
C548 C 0.61926 0.51624 0.23141 0.0
C549 C 0.6222 0.50233 0.189 0.0
C550 C 0.62451 0.41036 0.25776 0.0
C551 C 0.61807 0.49266 0.29819 0.0
N552 N 0.62054 0.47497 0.21145 0.0
N553 N 0.61648 0.52106 0.27576 0.0
H554 H 0.36043 0.47217 0.3108 0.0
H555 H 0.39049 0.50847 0.1726 0.0
H556 H 0.3912 0.65584 0.28337 0.0
H557 H 0.36229 0.32612 0.20445 0.0
H558 H 0.39293 0.56243 0.21264 0.0
H559 H 0.36296 0.41709 0.27178 0.0
C560 C 0.36775 0.50113 0.29651 0.0
C561 C 0.3755 0.56908 0.30035 0.0
C562 C 0.38636 0.51042 0.21082 0.0
C563 C 0.37836 0.50582 0.25514 0.0
C564 C 0.38496 0.4797 0.18801 0.0
C565 C 0.37599 0.41317 0.18518 0.0
C566 C 0.37873 0.47402 0.23082 0.0
C567 C 0.36917 0.37777 0.20572 0.0
C568 C 0.36924 0.46937 0.27414 0.0
C569 C 0.38498 0.60344 0.28113 0.0
N570 N 0.3706 0.40878 0.22758 0.0
N571 N 0.38602 0.57158 0.2592 0.0
H572 H 0.38185 0.32098 0.78821 0.0
H573 H 0.38905 0.67466 0.70974 0.0
H574 H 0.37695 0.52876 0.81959 0.0
H575 H 0.37064 0.47027 0.6833 0.0
H576 H 0.39404 0.6217 0.74981 0.0
H577 H 0.38847 0.37559 0.74927 0.0
C578 C 0.38258 0.37811 0.78703 0.0
C579 C 0.37853 0.42042 0.80709 0.0
C580 C 0.38915 0.58865 0.73505 0.0
C581 C 0.38585 0.48315 0.76255 0.0
C582 C 0.3863 0.61871 0.71229 0.0
C583 C 0.37924 0.57691 0.69327 0.0
C584 C 0.3853 0.51628 0.7385 0.0
C585 C 0.37593 0.50468 0.69746 0.0
C586 C 0.38628 0.40922 0.76479 0.0
C587 C 0.37987 0.4942 0.80455 0.0
N588 N 0.37897 0.47678 0.71957 0.0
N589 N 0.38312 0.52341 0.78255 0.0
H590 H 0.6134 0.46791 0.81468 0.0
H591 H 0.61065 0.51573 0.67179 0.0
H592 H 0.617 0.6708 0.77946 0.0
H593 H 0.62815 0.32301 0.70731 0.0
H594 H 0.60479 0.56999 0.71114 0.0
H595 H 0.61022 0.41111 0.77538 0.0
C596 C 0.61343 0.50054 0.79872 0.0
C597 C 0.61617 0.57392 0.80034 0.0
C598 C 0.60972 0.51561 0.71027 0.0
C599 C 0.61212 0.50957 0.75535 0.0
C600 C 0.61303 0.48465 0.68785 0.0
C601 C 0.62008 0.41514 0.68629 0.0
C602 C 0.61327 0.47635 0.73128 0.0
C603 C 0.62291 0.37705 0.70769 0.0
C604 C 0.61153 0.46813 0.7763 0.0
C605 C 0.61524 0.61391 0.77907 0.0
N606 N 0.61956 0.40822 0.7293 0.0
N607 N 0.61352 0.58115 0.75742 0.0
H608 H 0.11718 0.2547 0.93129 0.0
H609 H 0.11985 0.02434 0.052 0.0
H610 H 0.12801 0.03002 0.93503 0.0
H611 H 0.11927 0.25263 0.05319 0.0
H612 H 0.11799 0.02725 0.0085 0.0
H613 H 0.11365 0.25669 0.97533 0.0
C614 C 0.11871 0.20589 0.94132 0.0
C615 C 0.12308 0.14222 0.92951 0.0
C616 C 0.11822 0.0769 0.01817 0.0
C617 C 0.11892 0.14406 0.97952 0.0
C618 C 0.11929 0.07528 0.04309 0.0
C619 C 0.12001 0.13838 0.05626 0.0
C620 C 0.11799 0.1421 0.00611 0.0
C621 C 0.11886 0.20273 0.04368 0.0
C622 C 0.11673 0.2071 0.96639 0.0
C623 C 0.12489 0.08052 0.94333 0.0
N624 N 0.1181 0.20303 0.0192 0.0
N625 N 0.12282 0.08309 0.96751 0.0
H626 H 0.91604 0.93298 0.9362 0.0
H627 H 0.86388 0.79611 0.05678 0.0
H628 H 0.86336 0.80289 0.93461 0.0
H629 H 0.91437 0.93657 0.05316 0.0
H630 H 0.86485 0.78504 0.01265 0.0
H631 H 0.91726 0.92097 0.97948 0.0
C632 C 0.90468 0.90167 0.945 0.0
C633 C 0.88939 0.86982 0.93178 0.0
C634 C 0.87576 0.81776 0.02164 0.0
C635 C 0.89059 0.85615 0.98182 0.0
C636 C 0.87524 0.82399 0.04677 0.0
C637 C 0.8889 0.86808 0.05863 0.0
C638 C 0.89013 0.85545 0.0085 0.0
C639 C 0.90334 0.90283 0.04483 0.0
C640 C 0.9054 0.89469 0.96982 0.0
C641 C 0.87533 0.82869 0.94419 0.0
N642 N 0.9035 0.89595 0.02062 0.0
N643 N 0.87612 0.82368 0.96865 0.0
H644 H 0.14648 0.79809 0.43045 0.0
H645 H 0.09294 0.92652 0.55099 0.0
H646 H 0.09491 0.93245 0.43419 0.0
H647 H 0.14689 0.80422 0.55283 0.0
H648 H 0.0921 0.91543 0.50772 0.0
H649 H 0.14575 0.78703 0.47462 0.0
C650 C 0.13495 0.82467 0.44049 0.0
C651 C 0.12088 0.86699 0.42864 0.0
C652 C 0.10417 0.89071 0.51742 0.0
C653 C 0.11992 0.85431 0.4788 0.0
C654 C 0.10468 0.89717 0.54225 0.0
C655 C 0.12019 0.86721 0.55555 0.0
C656 C 0.1194 0.85458 0.50548 0.0
C657 C 0.13473 0.82852 0.54319 0.0
C658 C 0.13457 0.81845 0.46564 0.0
C659 C 0.10625 0.90011 0.44248 0.0
N660 N 0.13412 0.82395 0.51871 0.0
N661 N 0.10622 0.89321 0.46669 0.0
H662 H 0.8785 0.25301 0.55506 0.0
H663 H 0.89081 0.02576 0.43476 0.0
H664 H 0.88362 0.02565 0.55196 0.0
H665 H 0.87724 0.24876 0.4334 0.0
H666 H 0.89259 0.0302 0.47826 0.0
H667 H 0.88188 0.25744 0.51104 0.0
C668 C 0.88045 0.20421 0.54518 0.0
C669 C 0.88059 0.13881 0.55718 0.0
C670 C 0.88927 0.07839 0.46855 0.0
C671 C 0.88458 0.14357 0.50715 0.0
C672 C 0.88825 0.07588 0.44362 0.0
C673 C 0.8836 0.13679 0.4304 0.0
C674 C 0.88551 0.14217 0.48055 0.0
C675 C 0.88076 0.20045 0.44293 0.0
C676 C 0.88234 0.20679 0.52012 0.0
C677 C 0.88318 0.07723 0.54353 0.0
N678 N 0.88158 0.2014 0.4674 0.0
N679 N 0.88503 0.08121 0.51934 0.0
H680 H 0.63263 0.74099 0.04981 0.0
H681 H 0.59253 0.54215 0.93246 0.0
H682 H 0.60661 0.53221 0.04964 0.0
H683 H 0.6326 0.72028 0.92869 0.0
H684 H 0.59263 0.55138 0.97608 0.0
H685 H 0.62816 0.74658 0.00601 0.0
C686 C 0.62585 0.69666 0.04063 0.0
C687 C 0.62013 0.63582 0.0534 0.0
C688 C 0.60129 0.58886 0.96573 0.0
C689 C 0.61485 0.64213 0.00352 0.0
C690 C 0.60122 0.58375 0.94076 0.0
C691 C 0.61268 0.63029 0.92679 0.0
C692 C 0.6129 0.64087 0.97698 0.0
C693 C 0.62347 0.6835 0.93867 0.0
C694 C 0.62336 0.69981 0.01566 0.0
C695 C 0.61145 0.57986 0.04056 0.0
N696 N 0.62344 0.68705 0.96312 0.0
N697 N 0.60909 0.58441 0.0164 0.0
H698 H 0.40594 0.45364 0.93438 0.0
H699 H 0.35771 0.30386 0.05558 0.0
H700 H 0.35754 0.30378 0.93383 0.0
H701 H 0.40538 0.45642 0.05158 0.0
H702 H 0.35889 0.29235 0.0115 0.0
H703 H 0.40771 0.44363 0.97776 0.0
C704 C 0.3957 0.41829 0.94342 0.0
C705 C 0.38139 0.38024 0.93048 0.0
C706 C 0.36913 0.3279 0.02041 0.0
C707 C 0.38318 0.36891 0.98053 0.0
C708 C 0.36847 0.33446 0.0455 0.0
C709 C 0.38126 0.38193 0.05726 0.0
C710 C 0.38276 0.36877 0.00718 0.0
C711 C 0.39498 0.42001 0.04336 0.0
C712 C 0.39672 0.4125 0.96828 0.0
C713 C 0.36873 0.33437 0.94317 0.0
N714 N 0.39528 0.41278 0.01918 0.0
N715 N 0.36975 0.33057 0.96761 0.0
H716 H 0.6471 0.31261 0.43199 0.0
H717 H 0.59259 0.43224 0.55312 0.0
H718 H 0.59621 0.44993 0.43674 0.0
H719 H 0.64788 0.31801 0.55502 0.0
H720 H 0.59219 0.42301 0.50981 0.0
H721 H 0.64647 0.29976 0.47619 0.0
C722 C 0.63576 0.33957 0.44225 0.0
C723 C 0.62183 0.38311 0.43065 0.0
C724 C 0.60448 0.3997 0.51951 0.0
C725 C 0.62095 0.3682 0.48082 0.0
C726 C 0.60472 0.40504 0.54437 0.0
C727 C 0.62047 0.37693 0.55773 0.0
C728 C 0.62023 0.36659 0.50754 0.0
C729 C 0.63552 0.34084 0.54534 0.0
C730 C 0.63544 0.33232 0.4674 0.0
C731 C 0.60745 0.41665 0.44479 0.0
N732 N 0.63518 0.33739 0.5208 0.0
N733 N 0.60744 0.40855 0.46895 0.0
H734 H 0.38642 0.75096 0.55762 0.0
H735 H 0.37913 0.51859 0.43792 0.0
H736 H 0.37312 0.5276 0.55486 0.0
H737 H 0.38466 0.74605 0.43566 0.0
H738 H 0.38076 0.52239 0.48133 0.0
H739 H 0.38918 0.75179 0.5135 0.0
C740 C 0.38417 0.70221 0.54779 0.0
C741 C 0.37938 0.63923 0.55991 0.0
C742 C 0.38163 0.57171 0.47147 0.0
C743 C 0.38263 0.63979 0.50982 0.0
C744 C 0.38068 0.56958 0.44658 0.0
C745 C 0.38148 0.63223 0.43312 0.0
C746 C 0.38328 0.63702 0.48324 0.0
C747 C 0.38388 0.69654 0.44541 0.0
C748 C 0.38572 0.70277 0.52268 0.0
C749 C 0.37662 0.57759 0.54634 0.0
N750 N 0.38453 0.69742 0.46989 0.0
N751 N 0.37827 0.57954 0.52212 0.0
H752 H 0.96459 0.12703 0.1216 0.0
H753 H 0.06025 0.89019 0.12291 0.0
H754 H 0.96227 0.90676 0.14173 0.0
H755 H 0.06344 0.11395 0.13745 0.0
H756 H 0.02423 0.89484 0.12762 0.0
H757 H 1.00075 0.12409 0.12525 0.0
C758 C 0.97169 0.07818 0.12695 0.0
C759 C 0.96046 0.01688 0.13122 0.0
C760 C 0.03283 0.94275 0.13004 0.0
C761 C 1.00174 0.01303 0.13511 0.0
C762 C 0.05335 0.94025 0.12724 0.0
C763 C 0.06477 0.0019 0.12965 0.0
C764 C 0.02362 0.00768 0.13475 0.0
C765 C 0.05513 0.06524 0.13545 0.0
C766 C 0.9923 0.07668 0.12914 0.0
C767 C 0.97039 0.95516 0.13827 0.0
N768 N 0.03503 0.06677 0.13744 0.0
N769 N 0.99052 0.95449 0.13965 0.0
H770 H 0.94278 0.11079 0.34761 0.0
H771 H 0.04536 0.89932 0.34613 0.0
H772 H 0.94695 0.88736 0.36242 0.0
H773 H 0.0415 0.11961 0.36561 0.0
H774 H 0.00915 0.89576 0.34191 0.0
H775 H 0.9791 0.11596 0.344 0.0
C776 C 0.95131 0.06274 0.34974 0.0
C777 C 0.94192 0.99867 0.35553 0.0
C778 C 0.0163 0.94494 0.34691 0.0
C779 C 0.9832 0.00409 0.35121 0.0
C780 C 0.03692 0.94709 0.34924 0.0
C781 C 0.0464 0.00968 0.35646 0.0
C782 C 0.00515 0.00612 0.35141 0.0
C783 C 0.03475 0.07006 0.36027 0.0
C784 C 0.97198 0.06579 0.34781 0.0
C785 C 0.95365 0.93797 0.35819 0.0
N786 N 0.01472 0.06682 0.3577 0.0
N787 N 0.97368 0.94213 0.35601 0.0
H788 H 0.06242 0.01869 0.91354 0.0
H789 H 0.96404 0.98249 0.83511 0.0
H790 H 0.06352 0.03886 0.83626 0.0
H791 H 0.96448 0.04093 0.91011 0.0
H792 H 1.00044 0.99108 0.83472 0.0
H793 H 0.02633 0.01463 0.91228 0.0
C794 C 0.05504 0.02238 0.89628 0.0
C795 C 0.06597 0.02917 0.87497 0.0
C796 C 0.99249 0.00223 0.85118 0.0
C797 C 0.02457 0.02395 0.87338 0.0
C798 C 0.97177 0.99703 0.85145 0.0
C799 C 0.96123 0.01092 0.87268 0.0
C800 C 0.00264 0.02034 0.87238 0.0
C801 C 0.97196 0.02987 0.89332 0.0
C802 C 0.03442 0.02026 0.89558 0.0
C803 C 0.05561 0.03394 0.85311 0.0
N804 N 0.99204 0.03357 0.89268 0.0
N805 N 0.03543 0.03071 0.85284 0.0
H806 H 0.94401 0.01908 0.57523 0.0
H807 H 0.04315 0.9743 0.65191 0.0
H808 H 0.94338 0.02905 0.65272 0.0
H809 H 0.04184 0.03589 0.57717 0.0
H810 H 0.00677 0.98411 0.65313 0.0
H811 H 0.98005 0.01517 0.57606 0.0
C812 C 0.95148 0.02061 0.59247 0.0
C813 C 0.94066 0.02437 0.61394 0.0
C814 C 0.01453 0.99568 0.63654 0.0
C815 C 0.98214 0.01926 0.61504 0.0
C816 C 0.03525 0.98976 0.63579 0.0
C817 C 0.04556 0.00408 0.61438 0.0
C818 C 0.00413 0.01508 0.61565 0.0
C819 C 0.03458 0.0243 0.59408 0.0
C820 C 0.9721 0.01856 0.59293 0.0
C821 C 0.95118 0.02651 0.63575 0.0
N822 N 0.01453 0.02876 0.5952 0.0
N823 N 0.97139 0.02333 0.63577 0.0
H824 H 0.45696 0.48723 0.15397 0.0
H825 H 0.55554 0.48385 0.07569 0.0
H826 H 0.45863 0.53497 0.07808 0.0
H827 H 0.55744 0.52476 0.152 0.0
H828 H 0.51951 0.48694 0.0771 0.0
H829 H 0.49345 0.48676 0.15451 0.0
C830 C 0.46498 0.4976 0.13747 0.0
C831 C 0.45478 0.51104 0.11593 0.0
C832 C 0.52777 0.49542 0.09356 0.0
C833 C 0.49622 0.5099 0.11642 0.0
C834 C 0.54837 0.49334 0.0928 0.0
C835 C 0.55951 0.50415 0.11377 0.0
C836 C 0.51813 0.50747 0.11549 0.0
C837 C 0.54937 0.51648 0.13541 0.0
C838 C 0.48574 0.49761 0.13783 0.0
C839 C 0.46586 0.52448 0.09509 0.0
N840 N 0.52917 0.51741 0.13576 0.0
N841 N 0.48595 0.52305 0.09583 0.0
H842 H 0.44254 0.53823 0.33772 0.0
H843 H 0.54307 0.54366 0.41384 0.0
H844 H 0.44519 0.51552 0.41487 0.0
H845 H 0.5424 0.49399 0.33812 0.0
H846 H 0.50702 0.54926 0.41346 0.0
H847 H 0.47901 0.53749 0.33648 0.0
C848 C 0.45077 0.53354 0.35437 0.0
C849 C 0.44083 0.52678 0.37644 0.0
C850 C 0.51472 0.53706 0.3969 0.0
C851 C 0.48234 0.52625 0.37514 0.0
C852 C 0.53534 0.53403 0.39708 0.0
C853 C 0.54579 0.51805 0.37599 0.0
C854 C 0.50434 0.52477 0.37543 0.0
C855 C 0.53491 0.50606 0.35482 0.0
C856 C 0.47154 0.53274 0.35363 0.0
C857 C 0.45221 0.52051 0.39745 0.0
N858 N 0.51473 0.50987 0.35504 0.0
N859 N 0.4723 0.52063 0.39628 0.0
H860 H 0.44942 0.31689 0.85554 0.0
H861 H 0.54595 0.55584 0.83269 0.0
H862 H 0.44651 0.53634 0.8344 0.0
H863 H 0.54653 0.349 0.86554 0.0
H864 H 0.50997 0.54418 0.82678 0.0
H865 H 0.48547 0.32216 0.85249 0.0
C866 C 0.45633 0.36602 0.84999 0.0
C867 C 0.4449 0.42648 0.8455 0.0
C868 C 0.51805 0.50121 0.83509 0.0
C869 C 0.48629 0.43306 0.84213 0.0
C870 C 0.53857 0.50776 0.8384 0.0
C871 C 0.54922 0.45363 0.84985 0.0
C872 C 0.50823 0.43989 0.84312 0.0
C873 C 0.53891 0.39244 0.85688 0.0
C874 C 0.47695 0.36907 0.84832 0.0
C875 C 0.45473 0.48856 0.83823 0.0
N876 N 0.51904 0.38741 0.8535 0.0
N877 N 0.47488 0.49045 0.83697 0.0
H878 H 0.44226 0.54269 0.651 0.0
H879 H 0.54209 0.53553 0.57364 0.0
H880 H 0.44379 0.52251 0.57374 0.0
H881 H 0.54148 0.49076 0.64975 0.0
H882 H 0.50608 0.54476 0.57418 0.0
H883 H 0.47866 0.53777 0.65169 0.0
C884 C 0.45024 0.53774 0.63419 0.0
C885 C 0.43998 0.53289 0.61227 0.0
C886 C 0.51378 0.5328 0.59079 0.0
C887 C 0.48147 0.5274 0.61296 0.0
C888 C 0.53438 0.52767 0.59051 0.0
C889 C 0.54483 0.51212 0.61168 0.0
C890 C 0.50344 0.52306 0.61243 0.0
C891 C 0.53399 0.50244 0.63299 0.0
C892 C 0.47098 0.53454 0.63463 0.0
C893 C 0.45106 0.52613 0.59106 0.0
N894 N 0.51385 0.50831 0.63286 0.0
N895 N 0.47116 0.52377 0.59194 0.0
H896 H 0.14545 0.81993 0.10331 0.0
H897 H 0.11533 0.43864 0.1553 0.0
H898 H 0.11563 0.78954 0.1712 0.0
H899 H 0.14797 0.4703 0.08941 0.0
H900 H 0.11484 0.56689 0.16131 0.0
H901 H 0.14647 0.6918 0.09801 0.0
C902 C 0.13921 0.78636 0.11718 0.0
C903 C 0.13042 0.81571 0.13773 0.0
C904 C 0.12209 0.54573 0.14553 0.0
C905 C 0.1314 0.66858 0.13167 0.0
C906 C 0.12232 0.47249 0.14205 0.0
C907 C 0.13169 0.44353 0.12181 0.0
C908 C 0.13127 0.59043 0.12863 0.0
C909 C 0.14056 0.49009 0.10528 0.0
C910 C 0.13976 0.71309 0.11412 0.0
C911 C 0.12257 0.76939 0.15507 0.0
N912 N 0.14013 0.56104 0.10906 0.0
N913 N 0.12318 0.69823 0.15161 0.0
H914 H 0.8695 0.1731 0.10746 0.0
H915 H 0.89174 0.57509 0.14429 0.0
H916 H 0.90732 0.23392 0.16662 0.0
H917 H 0.85516 0.51594 0.0838 0.0
H918 H 0.8974 0.45017 0.15281 0.0
H919 H 0.86327 0.29807 0.09912 0.0
C920 C 0.87637 0.21264 0.11883 0.0
C921 C 0.889 0.19287 0.13775 0.0
C922 C 0.88818 0.46444 0.13762 0.0
C923 C 0.88207 0.33616 0.12815 0.0
C924 C 0.88499 0.53587 0.13269 0.0
C925 C 0.87294 0.55618 0.11328 0.0
C926 C 0.87924 0.41264 0.1231 0.0
C927 C 0.86458 0.50284 0.09892 0.0
C928 C 0.87287 0.28404 0.11398 0.0
C929 C 0.89751 0.24655 0.15183 0.0
N930 N 0.86784 0.43356 0.10416 0.0
N931 N 0.89394 0.31562 0.14669 0.0
H932 H 0.13973 0.17216 0.37726 0.0
H933 H 0.11652 0.57537 0.34279 0.0
H934 H 0.098 0.23426 0.3223 0.0
H935 H 0.15923 0.51395 0.39672 0.0
H936 H 0.10939 0.45062 0.33528 0.0
H937 H 0.14736 0.29685 0.38439 0.0
C938 C 0.13227 0.21192 0.36657 0.0
C939 C 0.11817 0.19256 0.34917 0.0
C940 C 0.1203 0.46439 0.34879 0.0
C941 C 0.12672 0.33564 0.3574 0.0
C942 C 0.12434 0.53571 0.35315 0.0
C943 C 0.13851 0.55532 0.37043 0.0
C944 C 0.1305 0.41206 0.36178 0.0
C945 C 0.14819 0.50143 0.38324 0.0
C946 C 0.13659 0.28319 0.37071 0.0
C947 C 0.10896 0.24655 0.33591 0.0
N948 N 0.14403 0.43236 0.37863 0.0
N949 N 0.11334 0.3155 0.34035 0.0
H950 H 0.88713 0.4326 0.3317 0.0
H951 H 0.85981 0.81497 0.38349 0.0
H952 H 0.85306 0.4658 0.39637 0.0
H953 H 0.89006 0.78261 0.31602 0.0
H954 H 0.85741 0.68705 0.3886 0.0
H955 H 0.88894 0.56064 0.32595 0.0
C956 C 0.88009 0.46677 0.34473 0.0
C957 C 0.86994 0.4384 0.36456 0.0
C958 C 0.86452 0.70788 0.37263 0.0
C959 C 0.87188 0.58498 0.35804 0.0
C960 C 0.86587 0.78098 0.36968 0.0
C961 C 0.87518 0.8096 0.3493 0.0
C962 C 0.8726 0.66292 0.35513 0.0
C963 C 0.88275 0.76291 0.33201 0.0
C964 C 0.88107 0.53988 0.3414 0.0
C965 C 0.86104 0.48526 0.38083 0.0
N966 N 0.88136 0.69188 0.33536 0.0
N967 N 0.86223 0.55617 0.37721 0.0
H968 H 0.9135 0.23736 0.82755 0.0
H969 H 0.85227 0.52071 0.9042 0.0
H970 H 0.86986 0.17971 0.88088 0.0
H971 H 0.89286 0.5764 0.84721 0.0
H972 H 0.85889 0.39574 0.89652 0.0
H973 H 0.90606 0.36177 0.83458 0.0
C974 C 0.90225 0.2508 0.84064 0.0
C975 C 0.89233 0.19789 0.85368 0.0
C976 C 0.86637 0.43531 0.88572 0.0
C977 C 0.88385 0.34069 0.862 0.0
C978 C 0.86267 0.50675 0.89017 0.0
C979 C 0.87204 0.55927 0.87635 0.0
C980 C 0.87958 0.4161 0.86736 0.0
C981 C 0.8853 0.53786 0.85834 0.0
C982 C 0.89803 0.32197 0.84469 0.0
C983 C 0.87787 0.21865 0.87039 0.0
N984 N 0.88866 0.46802 0.85437 0.0
N985 N 0.87414 0.28842 0.87416 0.0
H986 H 0.11134 0.43892 0.83213 0.0
H987 H 0.14538 0.81719 0.88341 0.0
H988 H 0.14876 0.4664 0.89443 0.0
H989 H 0.10705 0.79174 0.82182 0.0
H990 H 0.14716 0.68853 0.88726 0.0
H991 H 0.10968 0.56777 0.82775 0.0
C992 C 0.11915 0.47193 0.84493 0.0
C993 C 0.13019 0.44159 0.86369 0.0
C994 C 0.13838 0.71105 0.87287 0.0
C995 C 0.12844 0.58924 0.85873 0.0
C996 C 0.13739 0.78463 0.87064 0.0
C997 C 0.12603 0.81554 0.85228 0.0
C998 C 0.12794 0.66778 0.85664 0.0
C999 C 0.11598 0.77042 0.83628 0.0
C1000 C 0.11824 0.54554 0.8424 0.0
C1001 C 0.14005 0.48719 0.87969 0.0
N1002 N 0.11715 0.69899 0.83885 0.0
N1003 N 0.13896 0.55847 0.87683 0.0
H1004 H 0.89847 0.78394 0.66625 0.0
H1005 H 0.85061 0.46278 0.59231 0.0
H1006 H 0.85985 0.81127 0.60501 0.0
H1007 H 0.88904 0.43385 0.65364 0.0
H1008 H 0.85383 0.59051 0.59686 0.0
H1009 H 0.89503 0.65586 0.66223 0.0
C1010 C 0.88922 0.76308 0.65199 0.0
C1011 C 0.87945 0.80855 0.63592 0.0
C1012 C 0.86158 0.55632 0.60933 0.0
C1013 C 0.8755 0.66171 0.63118 0.0
C1014 C 0.85977 0.48323 0.60673 0.0
C1015 C 0.86959 0.43737 0.62261 0.0
C1016 C 0.8733 0.58409 0.62796 0.0
C1017 C 0.88122 0.46714 0.64096 0.0
C1018 C 0.88729 0.68986 0.64969 0.0
C1019 C 0.86767 0.77834 0.61781 0.0
N1020 N 0.88274 0.5386 0.64313 0.0
N1021 N 0.86605 0.7069 0.61592 0.0
H1022 H 0.09191 0.23455 0.65707 0.0
H1023 H 0.16181 0.51617 0.59033 0.0
H1024 H 0.13941 0.17582 0.60918 0.0
H1025 H 0.11494 0.57344 0.63934 0.0
H1026 H 0.15391 0.39148 0.59695 0.0
H1027 H 0.10054 0.35872 0.65122 0.0
C1028 C 0.10424 0.24767 0.64541 0.0
C1029 C 0.11492 0.19449 0.63355 0.0
C1030 C 0.14533 0.4313 0.60623 0.0
C1031 C 0.12481 0.33715 0.62662 0.0
C1032 C 0.14979 0.50263 0.60241 0.0
C1033 C 0.13901 0.55556 0.61427 0.0
C1034 C 0.12996 0.41252 0.62204 0.0
C1035 C 0.12364 0.53459 0.62977 0.0
C1036 C 0.10913 0.31875 0.64204 0.0
C1037 C 0.13077 0.21494 0.61869 0.0
N1038 N 0.11959 0.46482 0.6332 0.0
N1039 N 0.13518 0.28462 0.61558 0.0
H1040 H 0.63019 0.95694 0.07501 0.0
H1041 H 0.65317 0.28317 0.16146 0.0
H1042 H 0.63572 0.93473 0.15197 0.0
H1043 H 0.62601 0.30707 0.09162 0.0
H1044 H 0.6513 0.15444 0.15683 0.0
H1045 H 0.63253 0.08533 0.07948 0.0
C1046 C 0.63181 0.97911 0.09286 0.0
C1047 C 0.63269 0.93519 0.11316 0.0
C1048 C 0.6458 0.18802 0.14253 0.0
C1049 C 0.6357 0.08173 0.11834 0.0
C1050 C 0.647 0.26136 0.14507 0.0
C1051 C 0.63971 0.30578 0.1269 0.0
C1052 C 0.63753 0.15911 0.12154 0.0
C1053 C 0.63173 0.27473 0.10611 0.0
C1054 C 0.63314 0.05231 0.09538 0.0
C1055 C 0.63483 0.96672 0.13586 0.0
N1056 N 0.6309 0.2033 0.10397 0.0
N1057 N 0.6364 0.03813 0.13783 0.0
H1058 H 0.40948 0.74737 0.1584 0.0
H1059 H 0.33874 0.02698 0.09262 0.0
H1060 H 0.36047 0.68719 0.11275 0.0
H1061 H 0.38771 0.08532 0.13861 0.0
H1062 H 0.34629 0.9024 0.0998 0.0
H1063 H 0.40116 0.87137 0.152 0.0
C1064 C 0.39687 0.76016 0.14714 0.0
C1065 C 0.3857 0.70666 0.13603 0.0
C1066 C 0.3554 0.94245 0.10829 0.0
C1067 C 0.37616 0.84899 0.12845 0.0
C1068 C 0.35115 0.01367 0.10413 0.0
C1069 C 0.36262 0.06682 0.11501 0.0
C1070 C 0.37125 0.92412 0.12345 0.0
C1071 C 0.37847 0.04626 0.12981 0.0
C1072 C 0.39216 0.83111 0.14344 0.0
C1073 C 0.36951 0.72661 0.12167 0.0
N1074 N 0.38229 0.97662 0.13361 0.0
N1075 N 0.36528 0.79617 0.11821 0.0
H1076 H 0.66133 0.03453 0.39462 0.0
H1077 H 0.59079 0.7515 0.32973 0.0
H1078 H 0.61362 0.09089 0.34653 0.0
H1079 H 0.63918 0.69405 0.37666 0.0
H1080 H 0.59926 0.87592 0.3353 0.0
H1081 H 0.65344 0.90973 0.38839 0.0
C1082 C 0.64913 0.02076 0.38283 0.0
C1083 C 0.63811 0.07343 0.3711 0.0
C1084 C 0.60808 0.83615 0.34432 0.0
C1085 C 0.62908 0.93033 0.36376 0.0
C1086 C 0.60328 0.76496 0.34111 0.0
C1087 C 0.61426 0.7121 0.35279 0.0
C1088 C 0.62397 0.85492 0.35938 0.0
C1089 C 0.63029 0.73293 0.36729 0.0
C1090 C 0.64468 0.94938 0.37922 0.0
C1091 C 0.62251 0.05221 0.35598 0.0
N1092 N 0.63462 0.80268 0.37025 0.0
N1093 N 0.61848 0.98239 0.35274 0.0
H1094 H 0.39274 0.92897 0.33681 0.0
H1095 H 0.35954 0.31006 0.38536 0.0
H1096 H 0.35291 0.96008 0.39656 0.0
H1097 H 0.40016 0.28075 0.32629 0.0
H1098 H 0.35654 0.18176 0.38921 0.0
H1099 H 0.39545 0.05745 0.33228 0.0
C1100 C 0.38459 0.96273 0.349 0.0
C1101 C 0.37259 0.93355 0.36711 0.0
C1102 C 0.3661 0.20334 0.37537 0.0
C1103 C 0.37559 0.08076 0.36199 0.0
C1104 C 0.36779 0.2767 0.37315 0.0
C1105 C 0.38014 0.30638 0.35549 0.0
C1106 C 0.37683 0.15908 0.35985 0.0
C1107 C 0.39048 0.26033 0.34018 0.0
C1108 C 0.38613 0.03612 0.34639 0.0
C1109 C 0.36236 0.98002 0.38235 0.0
N1110 N 0.38861 0.18908 0.34274 0.0
N1111 N 0.36408 0.05113 0.37944 0.0
H1112 H 0.35987 0.71035 0.85347 0.0
H1113 H 0.40291 0.08017 0.90133 0.0
H1114 H 0.41117 0.72944 0.89952 0.0
H1115 H 0.35159 0.06243 0.85524 0.0
H1116 H 0.40575 0.95137 0.90144 0.0
H1117 H 0.35606 0.83901 0.85456 0.0
C1118 C 0.37028 0.7415 0.86388 0.0
C1119 C 0.38588 0.70899 0.87639 0.0
C1120 C 0.39385 0.97564 0.89132 0.0
C1121 C 0.38166 0.85626 0.87765 0.0
C1122 C 0.39223 0.04926 0.89124 0.0
C1123 C 0.37701 0.08228 0.87823 0.0
C1124 C 0.38017 0.9346 0.87828 0.0
C1125 C 0.36358 0.03936 0.86551 0.0
C1126 C 0.36812 0.81498 0.86447 0.0
C1127 C 0.39893 0.75209 0.88956 0.0
N1128 N 0.36549 0.96784 0.86584 0.0
N1129 N 0.39655 0.82337 0.8898 0.0
H1130 H 0.64946 0.27982 0.82505 0.0
H1131 H 0.6224 0.95274 0.91023 0.0
H1132 H 0.61789 0.30311 0.89205 0.0
H1133 H 0.63503 0.93143 0.8345 0.0
H1134 H 0.62468 0.08146 0.90595 0.0
H1135 H 0.64897 0.15134 0.83063 0.0
C1136 C 0.64265 0.25799 0.84106 0.0
C1137 C 0.63363 0.30213 0.85806 0.0
C1138 C 0.62688 0.04847 0.89028 0.0
C1139 C 0.63296 0.15558 0.8645 0.0
C1140 C 0.62556 0.9751 0.8927 0.0
C1141 C 0.62843 0.93132 0.87268 0.0
C1142 C 0.63139 0.07809 0.86776 0.0
C1143 C 0.63256 0.96315 0.8504 0.0
C1144 C 0.64224 0.18472 0.84414 0.0
C1145 C 0.62491 0.27097 0.87842 0.0
N1146 N 0.63402 0.03456 0.84857 0.0
N1147 N 0.62479 0.19959 0.88108 0.0
H1148 H 0.39244 0.93392 0.65379 0.0
H1149 H 0.35831 0.3158 0.60651 0.0
H1150 H 0.35029 0.96524 0.59633 0.0
H1151 H 0.40283 0.28472 0.6613 0.0
H1152 H 0.35457 0.1875 0.60323 0.0
H1153 H 0.39595 0.06227 0.65745 0.0
C1154 C 0.38392 0.96771 0.64194 0.0
C1155 C 0.37106 0.93862 0.62471 0.0
C1156 C 0.36516 0.20875 0.61598 0.0
C1157 C 0.37497 0.08578 0.62884 0.0
C1158 C 0.36728 0.28207 0.61789 0.0
C1159 C 0.38092 0.31122 0.6342 0.0
C1160 C 0.37673 0.16406 0.63051 0.0
C1161 C 0.39214 0.26475 0.64845 0.0
C1162 C 0.38594 0.04105 0.64403 0.0
C1163 C 0.3604 0.98515 0.60985 0.0
N1164 N 0.3898 0.19361 0.64627 0.0
N1165 N 0.36259 0.05627 0.61227 0.0
H1166 H 0.58903 0.74588 0.65644 0.0
H1167 H 0.66267 0.02807 0.59623 0.0
H1168 H 0.63918 0.68734 0.61265 0.0
H1169 H 0.61293 0.08458 0.64102 0.0
H1170 H 0.65444 0.90324 0.60199 0.0
H1171 H 0.59798 0.87001 0.65143 0.0
C1172 C 0.60201 0.75904 0.64586 0.0
C1173 C 0.61334 0.70593 0.63491 0.0
C1174 C 0.64531 0.94294 0.61054 0.0
C1175 C 0.62362 0.84857 0.62894 0.0
C1176 C 0.64996 0.01433 0.6072 0.0
C1177 C 0.63846 0.06706 0.61814 0.0
C1178 C 0.62903 0.92395 0.62492 0.0
C1179 C 0.62222 0.04588 0.63221 0.0
C1180 C 0.60709 0.8301 0.64297 0.0
C1181 C 0.63001 0.72642 0.62144 0.0
N1182 N 0.618 0.97608 0.63519 0.0
N1183 N 0.6346 0.79612 0.61876 0.0
loop_
_geom_bond_atom_site_label_1
_geom_bond_atom_site_label_2
_geom_bond_distance
_geom_bond_site_symmetry_2
_ccdc_geom_bond_type
Zn0 O6 1.969 . S
Zn0 O7 1.965 . S
Zn0 O11 2.024 . S
Zn0 O16 1.969 . S
Zn1 O8 1.969 . S
Zn1 O14 1.969 1_545 S
Zn1 O15 1.965 . S
Zn1 O17 2.024 . S
C2 O3 1.229 . S
C2 O11 1.058 . S
O3 C2 1.229 . S
C4 O5 1.229 1_545 S
C4 O17 1.058 . S
O5 C4 1.229 1_565 S
O6 Zn0 1.969 . S
O6 C9 1.267 . S
O7 Zn0 1.965 . S
O7 C18 1.260 . S
O8 Zn1 1.969 . S
O8 C18 1.258 . S
C9 O6 1.267 . S
C9 O10 1.228 . S
O10 C9 1.228 . S
O11 Zn0 2.024 . S
O11 C2 1.058 . S
C12 O13 1.228 . S
C12 O14 1.267 . S
O13 C12 1.228 . S
O14 Zn1 1.969 1_565 S
O14 C12 1.267 . S
O15 Zn1 1.965 . S
O15 C19 1.260 . S
O16 Zn0 1.969 . S
O16 C19 1.258 . S
O17 Zn1 2.024 . S
O17 C4 1.058 . S
C18 O7 1.260 . S
C18 O8 1.258 . S
C19 O15 1.260 . S
C19 O16 1.258 . S
Zn20 O26 1.969 . S
Zn20 O27 1.965 . S
Zn20 O31 2.024 . S
Zn20 O36 1.969 . S
Zn21 O28 1.969 . S
Zn21 O34 1.969 1_565 S
Zn21 O35 1.965 . S
Zn21 O37 2.024 . S
C22 O23 1.229 . S
C22 O31 1.058 . S
O23 C22 1.229 . S
C24 O25 1.229 1_565 S
C24 O37 1.058 . S
O25 C24 1.229 1_545 S
O26 Zn20 1.969 . S
O26 C29 1.267 . S
O27 Zn20 1.965 . S
O27 C38 1.260 . S
O28 Zn21 1.969 . S
O28 C38 1.258 . S
C29 O26 1.267 . S
C29 O30 1.228 . S
O30 C29 1.228 . S
O31 Zn20 2.024 . S
O31 C22 1.058 . S
C32 O33 1.228 . S
C32 O34 1.267 . S
O33 C32 1.228 . S
O34 Zn21 1.969 1_545 S
O34 C32 1.267 . S
O35 Zn21 1.965 . S
O35 C39 1.260 . S
O36 Zn20 1.969 . S
O36 C39 1.258 . S
O37 Zn21 2.024 . S
O37 C24 1.058 . S
C38 O27 1.260 . S
C38 O28 1.258 . S
C39 O35 1.260 . S
C39 O36 1.258 . S
Zn40 O46 1.969 . S
Zn40 O47 1.965 . S
Zn40 O51 2.024 . S
Zn40 O56 1.969 . S
Zn41 O48 1.969 . S
Zn41 O54 1.969 1_565 S
Zn41 O55 1.965 . S
Zn41 O57 2.024 . S
C42 O43 1.229 . S
C42 O51 1.058 . S
O43 C42 1.229 . S
C44 O45 1.229 1_565 S
C44 O57 1.058 . S
O45 C44 1.229 1_545 S
O46 Zn40 1.969 . S
O46 C49 1.267 . S
O47 Zn40 1.965 . S
O47 C58 1.260 . S
O48 Zn41 1.969 . S
O48 C58 1.258 . S
C49 O46 1.267 . S
C49 O50 1.228 . S
O50 C49 1.228 . S
O51 Zn40 2.024 . S
O51 C42 1.058 . S
C52 O53 1.228 . S
C52 O54 1.267 . S
O53 C52 1.228 . S
O54 Zn41 1.969 1_545 S
O54 C52 1.267 . S
O55 Zn41 1.965 . S
O55 C59 1.260 . S
O56 Zn40 1.969 . S
O56 C59 1.258 . S
O57 Zn41 2.024 . S
O57 C44 1.058 . S
C58 O47 1.260 . S
C58 O48 1.258 . S
C59 O55 1.260 . S
C59 O56 1.258 . S
Zn60 O66 1.969 . S
Zn60 O67 1.965 . S
Zn60 O71 2.024 . S
Zn60 O76 1.969 . S
Zn61 O68 1.969 . S
Zn61 O74 1.969 1_545 S
Zn61 O75 1.965 . S
Zn61 O77 2.024 . S
C62 O63 1.229 . S
C62 O71 1.058 . S
O63 C62 1.229 . S
C64 O65 1.229 1_545 S
C64 O77 1.058 . S
O65 C64 1.229 1_565 S
O66 Zn60 1.969 . S
O66 C69 1.267 . S
O67 Zn60 1.965 . S
O67 C78 1.260 . S
O68 Zn61 1.969 . S
O68 C78 1.258 . S
C69 O66 1.267 . S
C69 O70 1.228 . S
O70 C69 1.228 . S
O71 Zn60 2.024 . S
O71 C62 1.058 . S
C72 O73 1.228 . S
C72 O74 1.267 . S
O73 C72 1.228 . S
O74 Zn61 1.969 1_565 S
O74 C72 1.267 . S
O75 Zn61 1.965 . S
O75 C79 1.260 . S
O76 Zn60 1.969 . S
O76 C79 1.258 . S
O77 Zn61 2.024 . S
O77 C64 1.058 . S
C78 O67 1.260 . S
C78 O68 1.258 . S
C79 O75 1.260 . S
C79 O76 1.258 . S
Zn80 O86 1.969 1_565 S
Zn80 O87 1.965 . S
Zn80 O91 2.024 . S
Zn80 O96 1.969 . S
Zn81 O88 1.969 . S
Zn81 O94 1.969 . S
Zn81 O95 1.965 . S
Zn81 O97 2.024 . S
C82 O83 1.229 1_565 S
C82 O91 1.058 . S
O83 C82 1.229 1_545 S
C84 O85 1.229 . S
C84 O97 1.058 . S
O85 C84 1.229 . S
O86 Zn80 1.969 1_545 S
O86 C89 1.267 . S
O87 Zn80 1.965 . S
O87 C98 1.260 . S
O88 Zn81 1.969 . S
O88 C98 1.258 . S
C89 O86 1.267 . S
C89 O90 1.228 . S
O90 C89 1.228 . S
O91 Zn80 2.024 . S
O91 C82 1.058 . S
C92 O93 1.228 . S
C92 O94 1.267 . S
O93 C92 1.228 . S
O94 Zn81 1.969 . S
O94 C92 1.267 . S
O95 Zn81 1.965 . S
O95 C99 1.260 . S
O96 Zn80 1.969 . S
O96 C99 1.258 . S
O97 Zn81 2.024 . S
O97 C84 1.058 . S
C98 O87 1.260 . S
C98 O88 1.258 . S
C99 O95 1.260 . S
C99 O96 1.258 . S
Zn100 O106 1.969 1_545 S
Zn100 O107 1.965 . S
Zn100 O111 2.024 . S
Zn100 O116 1.969 . S
Zn101 O108 1.969 . S
Zn101 O114 1.969 . S
Zn101 O115 1.965 . S
Zn101 O117 2.024 . S
C102 O103 1.229 1_545 S
C102 O111 1.058 . S
O103 C102 1.229 1_565 S
C104 O105 1.229 . S
C104 O117 1.058 . S
O105 C104 1.229 . S
O106 Zn100 1.969 1_565 S
O106 C109 1.267 . S
O107 Zn100 1.965 . S
O107 C118 1.260 . S
O108 Zn101 1.969 . S
O108 C118 1.258 . S
C109 O106 1.267 . S
C109 O110 1.228 . S
O110 C109 1.228 . S
O111 Zn100 2.024 . S
O111 C102 1.058 . S
C112 O113 1.228 . S
C112 O114 1.267 . S
O113 C112 1.228 . S
O114 Zn101 1.969 . S
O114 C112 1.267 . S
O115 Zn101 1.965 . S
O115 C119 1.260 . S
O116 Zn100 1.969 . S
O116 C119 1.258 . S
O117 Zn101 2.024 . S
O117 C104 1.058 . S
C118 O107 1.260 . S
C118 O108 1.258 . S
C119 O115 1.260 . S
C119 O116 1.258 . S
Zn120 O126 1.969 1_545 S
Zn120 O127 1.965 . S
Zn120 O131 2.024 . S
Zn120 O136 1.969 . S
Zn121 O128 1.969 . S
Zn121 O134 1.969 . S
Zn121 O135 1.965 . S
Zn121 O137 2.024 . S
C122 O123 1.229 1_545 S
C122 O131 1.058 . S
O123 C122 1.229 1_565 S
C124 O125 1.229 . S
C124 O137 1.058 . S
O125 C124 1.229 . S
O126 Zn120 1.969 1_565 S
O126 C129 1.267 . S
O127 Zn120 1.965 . S
O127 C138 1.260 . S
O128 Zn121 1.969 . S
O128 C138 1.258 . S
C129 O126 1.267 . S
C129 O130 1.228 . S
O130 C129 1.228 . S
O131 Zn120 2.024 . S
O131 C122 1.058 . S
C132 O133 1.228 . S
C132 O134 1.267 . S
O133 C132 1.228 . S
O134 Zn121 1.969 . S
O134 C132 1.267 . S
O135 Zn121 1.965 . S
O135 C139 1.260 . S
O136 Zn120 1.969 . S
O136 C139 1.258 . S
O137 Zn121 2.024 . S
O137 C124 1.058 . S
C138 O127 1.260 . S
C138 O128 1.258 . S
C139 O135 1.260 . S
C139 O136 1.258 . S
Zn140 O146 1.969 1_565 S
Zn140 O147 1.965 . S
Zn140 O151 2.024 . S
Zn140 O156 1.969 . S
Zn141 O148 1.969 . S
Zn141 O154 1.969 . S
Zn141 O155 1.965 . S
Zn141 O157 2.024 . S
C142 O143 1.229 1_565 S
C142 O151 1.058 . S
O143 C142 1.229 1_545 S
C144 O145 1.229 . S
C144 O157 1.058 . S
O145 C144 1.229 . S
O146 Zn140 1.969 1_545 S
O146 C149 1.267 . S
O147 Zn140 1.965 . S
O147 C158 1.260 . S
O148 Zn141 1.969 . S
O148 C158 1.258 . S
C149 O146 1.267 . S
C149 O150 1.228 . S
O150 C149 1.228 . S
O151 Zn140 2.024 . S
O151 C142 1.058 . S
C152 O153 1.228 . S
C152 O154 1.267 . S
O153 C152 1.228 . S
O154 Zn141 1.969 . S
O154 C152 1.267 . S
O155 Zn141 1.965 . S
O155 C159 1.260 . S
O156 Zn140 1.969 . S
O156 C159 1.258 . S
O157 Zn141 2.024 . S
O157 C144 1.058 . S
C158 O147 1.260 . S
C158 O148 1.258 . S
C159 O155 1.260 . S
C159 O156 1.258 . S
Zn160 O166 1.969 . S
Zn160 O167 1.965 . S
Zn160 O171 2.024 . S
Zn160 O176 1.969 . S
Zn161 O168 1.969 . S
Zn161 O174 1.969 . S
Zn161 O175 1.965 . S
Zn161 O177 2.024 . S
C162 O163 1.229 . S
C162 O171 1.058 . S
O163 C162 1.229 . S
C164 O165 1.229 . S
C164 O177 1.058 . S
O165 C164 1.229 . S
O166 Zn160 1.969 . S
O166 C169 1.267 . S
O167 Zn160 1.965 . S
O167 C178 1.260 . S
O168 Zn161 1.969 . S
O168 C178 1.258 . S
C169 O166 1.267 . S
C169 O170 1.228 . S
O170 C169 1.228 . S
O171 Zn160 2.024 . S
O171 C162 1.058 . S
C172 O173 1.228 . S
C172 O174 1.267 . S
O173 C172 1.228 . S
O174 Zn161 1.969 . S
O174 C172 1.267 . S
O175 Zn161 1.965 . S
O175 C179 1.260 . S
O176 Zn160 1.969 . S
O176 C179 1.258 . S
O177 Zn161 2.024 . S
O177 C164 1.058 . S
C178 O167 1.260 . S
C178 O168 1.258 . S
C179 O175 1.260 . S
C179 O176 1.258 . S
Zn180 O186 1.969 . S
Zn180 O187 1.965 . S
Zn180 O191 2.024 . S
Zn180 O196 1.969 . S
Zn181 O188 1.969 . S
Zn181 O194 1.969 . S
Zn181 O195 1.965 . S
Zn181 O197 2.024 . S
C182 O183 1.229 . S
C182 O191 1.058 . S
O183 C182 1.229 . S
C184 O185 1.229 . S
C184 O197 1.058 . S
O185 C184 1.229 . S
O186 Zn180 1.969 . S
O186 C189 1.267 . S
O187 Zn180 1.965 . S
O187 C198 1.260 . S
O188 Zn181 1.969 . S
O188 C198 1.258 . S
C189 O186 1.267 . S
C189 O190 1.228 . S
O190 C189 1.228 . S
O191 Zn180 2.024 . S
O191 C182 1.058 . S
C192 O193 1.228 . S
C192 O194 1.267 . S
O193 C192 1.228 . S
O194 Zn181 1.969 . S
O194 C192 1.267 . S
O195 Zn181 1.965 . S
O195 C199 1.260 . S
O196 Zn180 1.969 . S
O196 C199 1.258 . S
O197 Zn181 2.024 . S
O197 C184 1.058 . S
C198 O187 1.260 . S
C198 O188 1.258 . S
C199 O195 1.260 . S
C199 O196 1.258 . S
Zn200 O206 1.969 . S
Zn200 O207 1.965 . S
Zn200 O211 2.024 . S
Zn200 O216 1.969 . S
Zn201 O208 1.969 . S
Zn201 O214 1.969 . S
Zn201 O215 1.965 . S
Zn201 O217 2.024 . S
C202 O203 1.229 . S
C202 O211 1.058 . S
O203 C202 1.229 . S
C204 O205 1.229 . S
C204 O217 1.058 . S
O205 C204 1.229 . S
O206 Zn200 1.969 . S
O206 C209 1.267 . S
O207 Zn200 1.965 . S
O207 C218 1.260 . S
O208 Zn201 1.969 . S
O208 C218 1.258 . S
C209 O206 1.267 . S
C209 O210 1.228 . S
O210 C209 1.228 . S
O211 Zn200 2.024 . S
O211 C202 1.058 . S
C212 O213 1.228 . S
C212 O214 1.267 . S
O213 C212 1.228 . S
O214 Zn201 1.969 . S
O214 C212 1.267 . S
O215 Zn201 1.965 . S
O215 C219 1.260 . S
O216 Zn200 1.969 . S
O216 C219 1.258 . S
O217 Zn201 2.024 . S
O217 C204 1.058 . S
C218 O207 1.260 . S
C218 O208 1.258 . S
C219 O215 1.260 . S
C219 O216 1.258 . S
Zn220 O226 1.969 . S
Zn220 O227 1.965 . S
Zn220 O231 2.024 . S
Zn220 O236 1.969 . S
Zn221 O228 1.969 . S
Zn221 O234 1.969 . S
Zn221 O235 1.965 . S
Zn221 O237 2.024 . S
C222 O223 1.229 . S
C222 O231 1.058 . S
O223 C222 1.229 . S
C224 O225 1.229 . S
C224 O237 1.058 . S
O225 C224 1.229 . S
O226 Zn220 1.969 . S
O226 C229 1.267 . S
O227 Zn220 1.965 . S
O227 C238 1.260 . S
O228 Zn221 1.969 . S
O228 C238 1.258 . S
C229 O226 1.267 . S
C229 O230 1.228 . S
O230 C229 1.228 . S
O231 Zn220 2.024 . S
O231 C222 1.058 . S
C232 O233 1.228 . S
C232 O234 1.267 . S
O233 C232 1.228 . S
O234 Zn221 1.969 . S
O234 C232 1.267 . S
O235 Zn221 1.965 . S
O235 C239 1.260 . S
O236 Zn220 1.969 . S
O236 C239 1.258 . S
O237 Zn221 2.024 . S
O237 C224 1.058 . S
C238 O227 1.260 . S
C238 O228 1.258 . S
C239 O235 1.260 . S
C239 O236 1.258 . S
Zn240 O246 1.969 . S
Zn240 O247 1.965 . S
Zn240 O251 2.024 . S
Zn240 O256 1.969 . S
Zn241 O248 1.969 . S
Zn241 O254 1.969 . S
Zn241 O255 1.965 . S
Zn241 O257 2.024 . S
C242 O243 1.229 . S
C242 O251 1.058 . S
O243 C242 1.229 . S
C244 O245 1.229 . S
C244 O257 1.058 . S
O245 C244 1.229 . S
O246 Zn240 1.969 . S
O246 C249 1.267 . S
O247 Zn240 1.965 . S
O247 C258 1.260 . S
O248 Zn241 1.969 . S
O248 C258 1.258 . S
C249 O246 1.267 . S
C249 O250 1.228 . S
O250 C249 1.228 . S
O251 Zn240 2.024 . S
O251 C242 1.058 . S
C252 O253 1.228 . S
C252 O254 1.267 . S
O253 C252 1.228 . S
O254 Zn241 1.969 . S
O254 C252 1.267 . S
O255 Zn241 1.965 . S
O255 C259 1.260 . S
O256 Zn240 1.969 . S
O256 C259 1.258 . S
O257 Zn241 2.024 . S
O257 C244 1.058 . S
C258 O247 1.260 . S
C258 O248 1.258 . S
C259 O255 1.260 . S
C259 O256 1.258 . S
Zn260 O266 1.969 . S
Zn260 O267 1.965 . S
Zn260 O271 2.024 . S
Zn260 O276 1.969 . S
Zn261 O268 1.969 . S
Zn261 O274 1.969 . S
Zn261 O275 1.965 . S
Zn261 O277 2.024 . S
C262 O263 1.229 . S
C262 O271 1.058 . S
O263 C262 1.229 . S
C264 O265 1.229 . S
C264 O277 1.058 . S
O265 C264 1.229 . S
O266 Zn260 1.969 . S
O266 C269 1.267 . S
O267 Zn260 1.965 . S
O267 C278 1.260 . S
O268 Zn261 1.969 . S
O268 C278 1.258 . S
C269 O266 1.267 . S
C269 O270 1.228 . S
O270 C269 1.228 . S
O271 Zn260 2.024 . S
O271 C262 1.058 . S
C272 O273 1.228 . S
C272 O274 1.267 . S
O273 C272 1.228 . S
O274 Zn261 1.969 . S
O274 C272 1.267 . S
O275 Zn261 1.965 . S
O275 C279 1.260 . S
O276 Zn260 1.969 . S
O276 C279 1.258 . S
O277 Zn261 2.024 . S
O277 C264 1.058 . S
C278 O267 1.260 . S
C278 O268 1.258 . S
C279 O275 1.260 . S
C279 O276 1.258 . S
Zn280 O286 1.969 . S
Zn280 O287 1.965 . S
Zn280 O291 2.024 . S
Zn280 O296 1.969 . S
Zn281 O288 1.969 . S
Zn281 O294 1.969 . S
Zn281 O295 1.965 . S
Zn281 O297 2.024 . S
C282 O283 1.229 . S
C282 O291 1.058 . S
O283 C282 1.229 . S
C284 O285 1.229 . S
C284 O297 1.058 . S
O285 C284 1.229 . S
O286 Zn280 1.969 . S
O286 C289 1.267 . S
O287 Zn280 1.965 . S
O287 C298 1.260 . S
O288 Zn281 1.969 . S
O288 C298 1.258 . S
C289 O286 1.267 . S
C289 O290 1.228 . S
O290 C289 1.228 . S
O291 Zn280 2.024 . S
O291 C282 1.058 . S
C292 O293 1.228 . S
C292 O294 1.267 . S
O293 C292 1.228 . S
O294 Zn281 1.969 . S
O294 C292 1.267 . S
O295 Zn281 1.965 . S
O295 C299 1.260 . S
O296 Zn280 1.969 . S
O296 C299 1.258 . S
O297 Zn281 2.024 . S
O297 C284 1.058 . S
C298 O287 1.260 . S
C298 O288 1.258 . S
C299 O295 1.260 . S
C299 O296 1.258 . S
Zn300 O306 1.969 . S
Zn300 O307 1.965 . S
Zn300 O311 2.024 . S
Zn300 O316 1.969 . S
Zn301 O308 1.969 . S
Zn301 O314 1.969 . S
Zn301 O315 1.965 . S
Zn301 O317 2.024 . S
C302 O303 1.229 . S
C302 O311 1.058 . S
O303 C302 1.229 . S
C304 O305 1.229 . S
C304 O317 1.058 . S
O305 C304 1.229 . S
O306 Zn300 1.969 . S
O306 C309 1.267 . S
O307 Zn300 1.965 . S
O307 C318 1.260 . S
O308 Zn301 1.969 . S
O308 C318 1.258 . S
C309 O306 1.267 . S
C309 O310 1.228 . S
O310 C309 1.228 . S
O311 Zn300 2.024 . S
O311 C302 1.058 . S
C312 O313 1.228 . S
C312 O314 1.267 . S
O313 C312 1.228 . S
O314 Zn301 1.969 . S
O314 C312 1.267 . S
O315 Zn301 1.965 . S
O315 C319 1.260 . S
O316 Zn300 1.969 . S
O316 C319 1.258 . S
O317 Zn301 2.024 . S
O317 C304 1.058 . S
C318 O307 1.260 . S
C318 O308 1.258 . S
C319 O315 1.260 . S
C319 O316 1.258 . S
H320 C326 0.930 . S
H321 C330 0.930 . S
H322 C335 0.929 . S
H323 C333 0.929 . S
H324 C328 0.929 . S
H325 C334 0.929 . S
C326 H320 0.930 . S
C326 C327 1.367 . S
C326 C334 1.378 . S
C327 C326 1.367 . S
C327 C335 1.433 . S
C328 H324 0.929 . S
C328 C330 1.378 . S
C328 C332 1.350 . S
C329 C332 1.463 . S
C329 C334 1.350 . S
C329 N337 1.427 . S
C330 H321 0.930 . S
C330 C328 1.378 . S
C330 C331 1.367 . S
C331 C330 1.367 . S
C331 C333 1.433 . S
C332 C328 1.350 . S
C332 C329 1.463 . S
C332 N336 1.427 . S
C333 H323 0.929 . S
C333 C331 1.433 . S
C333 N336 1.384 . S
C334 H325 0.929 . S
C334 C326 1.378 . S
C334 C329 1.350 . S
C335 H322 0.929 . S
C335 C327 1.433 . S
C335 N337 1.384 . S
N336 C332 1.427 . S
N336 C333 1.384 . S
N337 C329 1.427 . S
N337 C335 1.384 . S
H338 C344 0.930 . S
H339 C348 0.930 . S
H340 C353 0.929 . S
H341 C351 0.929 . S
H342 C346 0.929 . S
H343 C352 0.929 . S
C344 H338 0.930 . S
C344 C345 1.367 . S
C344 C352 1.378 . S
C345 C344 1.367 . S
C345 C353 1.433 . S
C346 H342 0.929 . S
C346 C348 1.378 . S
C346 C350 1.350 . S
C347 C350 1.463 . S
C347 C352 1.350 . S
C347 N355 1.427 . S
C348 H339 0.930 . S
C348 C346 1.378 . S
C348 C349 1.367 . S
C349 C348 1.367 . S
C349 C351 1.433 . S
C350 C346 1.350 . S
C350 C347 1.463 . S
C350 N354 1.427 . S
C351 H341 0.929 . S
C351 C349 1.433 . S
C351 N354 1.384 . S
C352 H343 0.929 . S
C352 C344 1.378 . S
C352 C347 1.350 . S
C353 H340 0.929 . S
C353 C345 1.433 . S
C353 N355 1.384 . S
N354 C350 1.427 . S
N354 C351 1.384 . S
N355 C347 1.427 . S
N355 C353 1.384 . S
H356 C362 0.930 . S
H357 C366 0.930 . S
H358 C371 0.929 . S
H359 C369 0.929 . S
H360 C364 0.929 . S
H361 C370 0.929 . S
C362 H356 0.930 . S
C362 C363 1.367 . S
C362 C370 1.378 . S
C363 C362 1.367 . S
C363 C371 1.433 . S
C364 H360 0.929 . S
C364 C366 1.378 . S
C364 C368 1.350 . S
C365 C368 1.463 . S
C365 C370 1.350 . S
C365 N373 1.427 . S
C366 H357 0.930 . S
C366 C364 1.378 . S
C366 C367 1.367 . S
C367 C366 1.367 . S
C367 C369 1.433 . S
C368 C364 1.350 . S
C368 C365 1.463 . S
C368 N372 1.427 . S
C369 H359 0.929 . S
C369 C367 1.433 . S
C369 N372 1.384 . S
C370 H361 0.929 . S
C370 C362 1.378 . S
C370 C365 1.350 . S
C371 H358 0.929 . S
C371 C363 1.433 . S
C371 N373 1.384 . S
N372 C368 1.427 . S
N372 C369 1.384 . S
N373 C365 1.427 . S
N373 C371 1.384 . S
H374 C380 0.930 . S
H375 C384 0.930 . S
H376 C389 0.929 . S
H377 C387 0.929 . S
H378 C382 0.929 . S
H379 C388 0.929 . S
C380 H374 0.930 . S
C380 C381 1.367 . S
C380 C388 1.378 . S
C381 C380 1.367 . S
C381 C389 1.433 . S
C382 H378 0.929 . S
C382 C384 1.378 . S
C382 C386 1.350 . S
C383 C386 1.463 . S
C383 C388 1.350 . S
C383 N391 1.427 . S
C384 H375 0.930 . S
C384 C382 1.378 . S
C384 C385 1.367 . S
C385 C384 1.367 . S
C385 C387 1.433 . S
C386 C382 1.350 . S
C386 C383 1.463 . S
C386 N390 1.427 . S
C387 H377 0.929 . S
C387 C385 1.433 . S
C387 N390 1.384 . S
C388 H379 0.929 . S
C388 C380 1.378 . S
C388 C383 1.350 . S
C389 H376 0.929 . S
C389 C381 1.433 . S
C389 N391 1.384 . S
N390 C386 1.427 . S
N390 C387 1.384 . S
N391 C383 1.427 . S
N391 C389 1.384 . S
H392 C398 0.930 . S
H393 C402 0.930 . S
H394 C407 0.929 . S
H395 C405 0.929 . S
H396 C400 0.929 . S
H397 C406 0.929 . S
C398 H392 0.930 . S
C398 C399 1.367 . S
C398 C406 1.378 . S
C399 C398 1.367 . S
C399 C407 1.433 . S
C400 H396 0.929 . S
C400 C402 1.378 . S
C400 C404 1.350 . S
C401 C404 1.463 . S
C401 C406 1.350 . S
C401 N409 1.427 . S
C402 H393 0.930 . S
C402 C400 1.378 . S
C402 C403 1.367 . S
C403 C402 1.367 . S
C403 C405 1.433 . S
C404 C400 1.350 . S
C404 C401 1.463 . S
C404 N408 1.427 . S
C405 H395 0.929 . S
C405 C403 1.433 . S
C405 N408 1.384 . S
C406 H397 0.929 . S
C406 C398 1.378 . S
C406 C401 1.350 . S
C407 H394 0.929 . S
C407 C399 1.433 . S
C407 N409 1.384 . S
N408 C404 1.427 . S
N408 C405 1.384 . S
N409 C401 1.427 . S
N409 C407 1.384 . S
H410 C416 0.930 . S
H411 C420 0.930 . S
H412 C425 0.929 . S
H413 C423 0.929 . S
H414 C418 0.929 . S
H415 C424 0.929 . S
C416 H410 0.930 . S
C416 C417 1.367 . S
C416 C424 1.378 . S
C417 C416 1.367 . S
C417 C425 1.433 . S
C418 H414 0.929 . S
C418 C420 1.378 . S
C418 C422 1.350 . S
C419 C422 1.463 . S
C419 C424 1.350 . S
C419 N427 1.427 . S
C420 H411 0.930 . S
C420 C418 1.378 . S
C420 C421 1.367 . S
C421 C420 1.367 . S
C421 C423 1.433 . S
C422 C418 1.350 . S
C422 C419 1.463 . S
C422 N426 1.427 . S
C423 H413 0.929 . S
C423 C421 1.433 . S
C423 N426 1.384 . S
C424 H415 0.929 . S
C424 C416 1.378 . S
C424 C419 1.350 . S
C425 H412 0.929 . S
C425 C417 1.433 . S
C425 N427 1.384 . S
N426 C422 1.427 . S
N426 C423 1.384 . S
N427 C419 1.427 . S
N427 C425 1.384 . S
H428 C434 0.930 . S
H429 C438 0.930 . S
H430 C443 0.929 . S
H431 C441 0.929 . S
H432 C436 0.929 . S
H433 C442 0.929 . S
C434 H428 0.930 . S
C434 C435 1.367 . S
C434 C442 1.378 . S
C435 C434 1.367 . S
C435 C443 1.433 . S
C436 H432 0.929 . S
C436 C438 1.378 . S
C436 C440 1.350 . S
C437 C440 1.463 . S
C437 C442 1.350 . S
C437 N445 1.427 . S
C438 H429 0.930 . S
C438 C436 1.378 . S
C438 C439 1.367 . S
C439 C438 1.367 . S
C439 C441 1.433 . S
C440 C436 1.350 . S
C440 C437 1.463 . S
C440 N444 1.427 . S
C441 H431 0.929 . S
C441 C439 1.433 . S
C441 N444 1.384 . S
C442 H433 0.929 . S
C442 C434 1.378 . S
C442 C437 1.350 . S
C443 H430 0.929 . S
C443 C435 1.433 . S
C443 N445 1.384 . S
N444 C440 1.427 . S
N444 C441 1.384 . S
N445 C437 1.427 . S
N445 C443 1.384 . S
H446 C452 0.930 . S
H447 C456 0.930 . S
H448 C461 0.929 . S
H449 C459 0.929 . S
H450 C454 0.929 . S
H451 C460 0.929 . S
C452 H446 0.930 . S
C452 C453 1.367 . S
C452 C460 1.378 . S
C453 C452 1.367 . S
C453 C461 1.433 . S
C454 H450 0.929 . S
C454 C456 1.378 . S
C454 C458 1.350 . S
C455 C458 1.463 . S
C455 C460 1.350 . S
C455 N463 1.427 . S
C456 H447 0.930 . S
C456 C454 1.378 . S
C456 C457 1.367 . S
C457 C456 1.367 . S
C457 C459 1.433 . S
C458 C454 1.350 . S
C458 C455 1.463 . S
C458 N462 1.427 . S
C459 H449 0.929 . S
C459 C457 1.433 . S
C459 N462 1.384 . S
C460 H451 0.929 . S
C460 C452 1.378 . S
C460 C455 1.350 . S
C461 H448 0.929 . S
C461 C453 1.433 . S
C461 N463 1.384 . S
N462 C458 1.427 . S
N462 C459 1.384 . S
N463 C455 1.427 . S
N463 C461 1.384 . S
H464 C470 0.930 . S
H465 C474 0.930 . S
H466 C479 0.929 . S
H467 C477 0.929 . S
H468 C472 0.929 . S
H469 C478 0.929 . S
C470 H464 0.930 . S
C470 C471 1.367 . S
C470 C478 1.378 . S
C471 C470 1.367 . S
C471 C479 1.433 1_565 S
C472 H468 0.929 . S
C472 C474 1.378 . S
C472 C476 1.350 . S
C473 C476 1.463 1_565 S
C473 C478 1.350 . S
C473 N481 1.427 1_565 S
C474 H465 0.930 . S
C474 C472 1.378 . S
C474 C475 1.367 . S
C475 C474 1.367 . S
C475 C477 1.433 1_545 S
C476 C472 1.350 . S
C476 C473 1.463 1_545 S
C476 N480 1.427 1_545 S
C477 H467 0.929 . S
C477 C475 1.433 1_565 S
C477 N480 1.384 . S
C478 H469 0.929 . S
C478 C470 1.378 . S
C478 C473 1.350 . S
C479 H466 0.929 . S
C479 C471 1.433 1_545 S
C479 N481 1.384 . S
N480 C476 1.427 1_565 S
N480 C477 1.384 . S
N481 C473 1.427 1_545 S
N481 C479 1.384 . S
H482 C488 0.930 . S
H483 C492 0.930 . S
H484 C497 0.929 . S
H485 C495 0.929 . S
H486 C490 0.929 . S
H487 C496 0.929 . S
C488 H482 0.930 . S
C488 C489 1.367 . S
C488 C496 1.378 . S
C489 C488 1.367 . S
C489 C497 1.433 1_545 S
C490 H486 0.929 . S
C490 C492 1.378 . S
C490 C494 1.350 . S
C491 C494 1.463 1_545 S
C491 C496 1.350 . S
C491 N499 1.427 1_545 S
C492 H483 0.930 . S
C492 C490 1.378 . S
C492 C493 1.367 . S
C493 C492 1.367 . S
C493 C495 1.433 1_565 S
C494 C490 1.350 . S
C494 C491 1.463 1_565 S
C494 N498 1.427 1_565 S
C495 H485 0.929 . S
C495 C493 1.433 1_545 S
C495 N498 1.384 . S
C496 H487 0.929 . S
C496 C488 1.378 . S
C496 C491 1.350 . S
C497 H484 0.929 . S
C497 C489 1.433 1_565 S
C497 N499 1.384 . S
N498 C494 1.427 1_545 S
N498 C495 1.384 . S
N499 C491 1.427 1_565 S
N499 C497 1.384 . S
H500 C506 0.930 1_565 S
H501 C510 0.930 1_545 S
H502 C515 0.929 . S
H503 C513 0.929 . S
H504 C508 0.929 . S
H505 C514 0.929 . S
C506 H500 0.930 1_545 S
C506 C507 1.367 . S
C506 C514 1.378 1_545 S
C507 C506 1.367 . S
C507 C515 1.433 . S
C508 H504 0.929 . S
C508 C510 1.378 1_545 S
C508 C512 1.350 1_545 S
C509 C512 1.463 1_545 S
C509 C514 1.350 1_545 S
C509 N517 1.427 . S
C510 H501 0.930 1_565 S
C510 C508 1.378 1_565 S
C510 C511 1.367 . S
C511 C510 1.367 . S
C511 C513 1.433 . S
C512 C508 1.350 1_565 S
C512 C509 1.463 1_565 S
C512 N516 1.427 . S
C513 H503 0.929 . S
C513 C511 1.433 . S
C513 N516 1.384 . S
C514 H505 0.929 . S
C514 C506 1.378 1_565 S
C514 C509 1.350 1_565 S
C515 H502 0.929 . S
C515 C507 1.433 . S
C515 N517 1.384 . S
N516 C512 1.427 . S
N516 C513 1.384 . S
N517 C509 1.427 . S
N517 C515 1.384 . S
H518 C524 0.930 . S
H519 C528 0.930 . S
H520 C533 0.929 . S
H521 C531 0.929 . S
H522 C526 0.929 . S
H523 C532 0.929 . S
C524 H518 0.930 . S
C524 C525 1.367 1_565 S
C524 C532 1.378 . S
C525 C524 1.367 1_545 S
C525 C533 1.433 . S
C526 H522 0.929 . S
C526 C528 1.378 . S
C526 C530 1.350 1_545 S
C527 C530 1.463 1_545 S
C527 C532 1.350 1_545 S
C527 N535 1.427 . S
C528 H519 0.930 . S
C528 C526 1.378 . S
C528 C529 1.367 1_545 S
C529 C528 1.367 1_565 S
C529 C531 1.433 . S
C530 C526 1.350 1_565 S
C530 C527 1.463 1_565 S
C530 N534 1.427 . S
C531 H521 0.929 . S
C531 C529 1.433 . S
C531 N534 1.384 . S
C532 H523 0.929 . S
C532 C524 1.378 . S
C532 C527 1.350 1_565 S
C533 H520 0.929 . S
C533 C525 1.433 . S
C533 N535 1.384 . S
N534 C530 1.427 . S
N534 C531 1.384 . S
N535 C527 1.427 . S
N535 C533 1.384 . S
H536 C542 0.930 . S
H537 C546 0.930 . S
H538 C551 0.929 . S
H539 C549 0.929 . S
H540 C544 0.929 . S
H541 C550 0.929 . S
C542 H536 0.930 . S
C542 C543 1.367 . S
C542 C550 1.378 . S
C543 C542 1.367 . S
C543 C551 1.433 . S
C544 H540 0.929 . S
C544 C546 1.378 . S
C544 C548 1.350 . S
C545 C548 1.463 . S
C545 C550 1.350 . S
C545 N553 1.427 . S
C546 H537 0.930 . S
C546 C544 1.378 . S
C546 C547 1.367 . S
C547 C546 1.367 . S
C547 C549 1.433 . S
C548 C544 1.350 . S
C548 C545 1.463 . S
C548 N552 1.427 . S
C549 H539 0.929 . S
C549 C547 1.433 . S
C549 N552 1.384 . S
C550 H541 0.929 . S
C550 C542 1.378 . S
C550 C545 1.350 . S
C551 H538 0.929 . S
C551 C543 1.433 . S
C551 N553 1.384 . S
N552 C548 1.427 . S
N552 C549 1.384 . S
N553 C545 1.427 . S
N553 C551 1.384 . S
H554 C560 0.930 . S
H555 C564 0.930 . S
H556 C569 0.929 . S
H557 C567 0.929 . S
H558 C562 0.929 . S
H559 C568 0.929 . S
C560 H554 0.930 . S
C560 C561 1.367 . S
C560 C568 1.378 . S
C561 C560 1.367 . S
C561 C569 1.433 . S
C562 H558 0.929 . S
C562 C564 1.378 . S
C562 C566 1.350 . S
C563 C566 1.463 . S
C563 C568 1.350 . S
C563 N571 1.427 . S
C564 H555 0.930 . S
C564 C562 1.378 . S
C564 C565 1.367 . S
C565 C564 1.367 . S
C565 C567 1.433 . S
C566 C562 1.350 . S
C566 C563 1.463 . S
C566 N570 1.427 . S
C567 H557 0.929 . S
C567 C565 1.433 . S
C567 N570 1.384 . S
C568 H559 0.929 . S
C568 C560 1.378 . S
C568 C563 1.350 . S
C569 H556 0.929 . S
C569 C561 1.433 . S
C569 N571 1.384 . S
N570 C566 1.427 . S
N570 C567 1.384 . S
N571 C563 1.427 . S
N571 C569 1.384 . S
H572 C578 0.930 . S
H573 C582 0.930 . S
H574 C587 0.929 . S
H575 C585 0.929 . S
H576 C580 0.929 . S
H577 C586 0.929 . S
C578 H572 0.930 . S
C578 C579 1.367 . S
C578 C586 1.378 . S
C579 C578 1.367 . S
C579 C587 1.433 . S
C580 H576 0.929 . S
C580 C582 1.378 . S
C580 C584 1.350 . S
C581 C584 1.463 . S
C581 C586 1.350 . S
C581 N589 1.427 . S
C582 H573 0.930 . S
C582 C580 1.378 . S
C582 C583 1.367 . S
C583 C582 1.367 . S
C583 C585 1.433 . S
C584 C580 1.350 . S
C584 C581 1.463 . S
C584 N588 1.427 . S
C585 H575 0.929 . S
C585 C583 1.433 . S
C585 N588 1.384 . S
C586 H577 0.929 . S
C586 C578 1.378 . S
C586 C581 1.350 . S
C587 H574 0.929 . S
C587 C579 1.433 . S
C587 N589 1.384 . S
N588 C584 1.427 . S
N588 C585 1.384 . S
N589 C581 1.427 . S
N589 C587 1.384 . S
H590 C596 0.930 . S
H591 C600 0.930 . S
H592 C605 0.929 . S
H593 C603 0.929 . S
H594 C598 0.929 . S
H595 C604 0.929 . S
C596 H590 0.930 . S
C596 C597 1.367 . S
C596 C604 1.378 . S
C597 C596 1.367 . S
C597 C605 1.433 . S
C598 H594 0.929 . S
C598 C600 1.378 . S
C598 C602 1.350 . S
C599 C602 1.463 . S
C599 C604 1.350 . S
C599 N607 1.427 . S
C600 H591 0.930 . S
C600 C598 1.378 . S
C600 C601 1.367 . S
C601 C600 1.367 . S
C601 C603 1.433 . S
C602 C598 1.350 . S
C602 C599 1.463 . S
C602 N606 1.427 . S
C603 H593 0.929 . S
C603 C601 1.433 . S
C603 N606 1.384 . S
C604 H595 0.929 . S
C604 C596 1.378 . S
C604 C599 1.350 . S
C605 H592 0.929 . S
C605 C597 1.433 . S
C605 N607 1.384 . S
N606 C602 1.427 . S
N606 C603 1.384 . S
N607 C599 1.427 . S
N607 C605 1.384 . S
H608 C614 0.930 . S
H609 C618 0.930 . S
H610 C623 0.929 . S
H611 C621 0.929 . S
H612 C616 0.929 . S
H613 C622 0.929 . S
C614 H608 0.930 . S
C614 C615 1.367 . S
C614 C622 1.378 . S
C615 C614 1.367 . S
C615 C623 1.433 . S
C616 H612 0.929 . S
C616 C618 1.378 . S
C616 C620 1.350 . S
C617 C620 1.463 1_556 S
C617 C622 1.350 . S
C617 N625 1.427 . S
C618 H609 0.930 . S
C618 C616 1.378 . S
C618 C619 1.367 . S
C619 C618 1.367 . S
C619 C621 1.433 . S
C620 C616 1.350 . S
C620 C617 1.463 1_554 S
C620 N624 1.427 . S
C621 H611 0.929 . S
C621 C619 1.433 . S
C621 N624 1.384 . S
C622 H613 0.929 . S
C622 C614 1.378 . S
C622 C617 1.350 . S
C623 H610 0.929 . S
C623 C615 1.433 . S
C623 N625 1.384 . S
N624 C620 1.427 . S
N624 C621 1.384 . S
N625 C617 1.427 . S
N625 C623 1.384 . S
H626 C632 0.930 . S
H627 C636 0.930 . S
H628 C641 0.929 . S
H629 C639 0.929 . S
H630 C634 0.929 . S
H631 C640 0.929 . S
C632 H626 0.930 . S
C632 C633 1.367 . S
C632 C640 1.378 . S
C633 C632 1.367 . S
C633 C641 1.433 . S
C634 H630 0.929 . S
C634 C636 1.378 . S
C634 C638 1.350 . S
C635 C638 1.463 1_556 S
C635 C640 1.350 . S
C635 N643 1.427 . S
C636 H627 0.930 . S
C636 C634 1.378 . S
C636 C637 1.367 . S
C637 C636 1.367 . S
C637 C639 1.433 . S
C638 C634 1.350 . S
C638 C635 1.463 1_554 S
C638 N642 1.427 . S
C639 H629 0.929 . S
C639 C637 1.433 . S
C639 N642 1.384 . S
C640 H631 0.929 . S
C640 C632 1.378 . S
C640 C635 1.350 . S
C641 H628 0.929 . S
C641 C633 1.433 . S
C641 N643 1.384 . S
N642 C638 1.427 . S
N642 C639 1.384 . S
N643 C635 1.427 . S
N643 C641 1.384 . S
H644 C650 0.930 . S
H645 C654 0.930 . S
H646 C659 0.929 . S
H647 C657 0.929 . S
H648 C652 0.929 . S
H649 C658 0.929 . S
C650 H644 0.930 . S
C650 C651 1.367 . S
C650 C658 1.378 . S
C651 C650 1.367 . S
C651 C659 1.433 . S
C652 H648 0.929 . S
C652 C654 1.378 . S
C652 C656 1.350 . S
C653 C656 1.463 . S
C653 C658 1.350 . S
C653 N661 1.427 . S
C654 H645 0.930 . S
C654 C652 1.378 . S
C654 C655 1.367 . S
C655 C654 1.367 . S
C655 C657 1.433 . S
C656 C652 1.350 . S
C656 C653 1.463 . S
C656 N660 1.427 . S
C657 H647 0.929 . S
C657 C655 1.433 . S
C657 N660 1.384 . S
C658 H649 0.929 . S
C658 C650 1.378 . S
C658 C653 1.350 . S
C659 H646 0.929 . S
C659 C651 1.433 . S
C659 N661 1.384 . S
N660 C656 1.427 . S
N660 C657 1.384 . S
N661 C653 1.427 . S
N661 C659 1.384 . S
H662 C668 0.930 . S
H663 C672 0.930 . S
H664 C677 0.929 . S
H665 C675 0.929 . S
H666 C670 0.929 . S
H667 C676 0.929 . S
C668 H662 0.930 . S
C668 C669 1.367 . S
C668 C676 1.378 . S
C669 C668 1.367 . S
C669 C677 1.433 . S
C670 H666 0.929 . S
C670 C672 1.378 . S
C670 C674 1.350 . S
C671 C674 1.463 . S
C671 C676 1.350 . S
C671 N679 1.427 . S
C672 H663 0.930 . S
C672 C670 1.378 . S
C672 C673 1.367 . S
C673 C672 1.367 . S
C673 C675 1.433 . S
C674 C670 1.350 . S
C674 C671 1.463 . S
C674 N678 1.427 . S
C675 H665 0.929 . S
C675 C673 1.433 . S
C675 N678 1.384 . S
C676 H667 0.929 . S
C676 C668 1.378 . S
C676 C671 1.350 . S
C677 H664 0.929 . S
C677 C669 1.433 . S
C677 N679 1.384 . S
N678 C674 1.427 . S
N678 C675 1.384 . S
N679 C671 1.427 . S
N679 C677 1.384 . S
H680 C686 0.930 . S
H681 C690 0.930 . S
H682 C695 0.929 . S
H683 C693 0.929 . S
H684 C688 0.929 . S
H685 C694 0.929 . S
C686 H680 0.930 . S
C686 C687 1.367 . S
C686 C694 1.378 . S
C687 C686 1.367 . S
C687 C695 1.433 . S
C688 H684 0.929 . S
C688 C690 1.378 . S
C688 C692 1.350 . S
C689 C692 1.463 1_554 S
C689 C694 1.350 . S
C689 N697 1.427 . S
C690 H681 0.930 . S
C690 C688 1.378 . S
C690 C691 1.367 . S
C691 C690 1.367 . S
C691 C693 1.433 . S
C692 C688 1.350 . S
C692 C689 1.463 1_556 S
C692 N696 1.427 . S
C693 H683 0.929 . S
C693 C691 1.433 . S
C693 N696 1.384 . S
C694 H685 0.929 . S
C694 C686 1.378 . S
C694 C689 1.350 . S
C695 H682 0.929 . S
C695 C687 1.433 . S
C695 N697 1.384 . S
N696 C692 1.427 . S
N696 C693 1.384 . S
N697 C689 1.427 . S
N697 C695 1.384 . S
H698 C704 0.930 . S
H699 C708 0.930 . S
H700 C713 0.929 . S
H701 C711 0.929 . S
H702 C706 0.929 . S
H703 C712 0.929 . S
C704 H698 0.930 . S
C704 C705 1.367 . S
C704 C712 1.378 . S
C705 C704 1.367 . S
C705 C713 1.433 . S
C706 H702 0.929 . S
C706 C708 1.378 . S
C706 C710 1.350 . S
C707 C710 1.463 1_556 S
C707 C712 1.350 . S
C707 N715 1.427 . S
C708 H699 0.930 . S
C708 C706 1.378 . S
C708 C709 1.367 . S
C709 C708 1.367 . S
C709 C711 1.433 . S
C710 C706 1.350 . S
C710 C707 1.463 1_554 S
C710 N714 1.427 . S
C711 H701 0.929 . S
C711 C709 1.433 . S
C711 N714 1.384 . S
C712 H703 0.929 . S
C712 C704 1.378 . S
C712 C707 1.350 . S
C713 H700 0.929 . S
C713 C705 1.433 . S
C713 N715 1.384 . S
N714 C710 1.427 . S
N714 C711 1.384 . S
N715 C707 1.427 . S
N715 C713 1.384 . S
H716 C722 0.930 . S
H717 C726 0.930 . S
H718 C731 0.929 . S
H719 C729 0.929 . S
H720 C724 0.929 . S
H721 C730 0.929 . S
C722 H716 0.930 . S
C722 C723 1.367 . S
C722 C730 1.378 . S
C723 C722 1.367 . S
C723 C731 1.433 . S
C724 H720 0.929 . S
C724 C726 1.378 . S
C724 C728 1.350 . S
C725 C728 1.463 . S
C725 C730 1.350 . S
C725 N733 1.427 . S
C726 H717 0.930 . S
C726 C724 1.378 . S
C726 C727 1.367 . S
C727 C726 1.367 . S
C727 C729 1.433 . S
C728 C724 1.350 . S
C728 C725 1.463 . S
C728 N732 1.427 . S
C729 H719 0.929 . S
C729 C727 1.433 . S
C729 N732 1.384 . S
C730 H721 0.929 . S
C730 C722 1.378 . S
C730 C725 1.350 . S
C731 H718 0.929 . S
C731 C723 1.433 . S
C731 N733 1.384 . S
N732 C728 1.427 . S
N732 C729 1.384 . S
N733 C725 1.427 . S
N733 C731 1.384 . S
H734 C740 0.930 . S
H735 C744 0.930 . S
H736 C749 0.929 . S
H737 C747 0.929 . S
H738 C742 0.929 . S
H739 C748 0.929 . S
C740 H734 0.930 . S
C740 C741 1.367 . S
C740 C748 1.378 . S
C741 C740 1.367 . S
C741 C749 1.433 . S
C742 H738 0.929 . S
C742 C744 1.378 . S
C742 C746 1.350 . S
C743 C746 1.463 . S
C743 C748 1.350 . S
C743 N751 1.427 . S
C744 H735 0.930 . S
C744 C742 1.378 . S
C744 C745 1.367 . S
C745 C744 1.367 . S
C745 C747 1.433 . S
C746 C742 1.350 . S
C746 C743 1.463 . S
C746 N750 1.427 . S
C747 H737 0.929 . S
C747 C745 1.433 . S
C747 N750 1.384 . S
C748 H739 0.929 . S
C748 C740 1.378 . S
C748 C743 1.350 . S
C749 H736 0.929 . S
C749 C741 1.433 . S
C749 N751 1.384 . S
N750 C746 1.427 . S
N750 C747 1.384 . S
N751 C743 1.427 . S
N751 C749 1.384 . S
H752 C758 0.930 . S
H753 C762 0.930 . S
H754 C767 0.929 . S
H755 C765 0.929 . S
H756 C760 0.929 . S
H757 C766 0.929 . S
C758 H752 0.930 . S
C758 C759 1.367 1_545 S
C758 C766 1.378 . S
C759 C758 1.367 1_565 S
C759 C767 1.433 . S
C760 H756 0.929 . S
C760 C762 1.378 . S
C760 C764 1.350 1_565 S
C761 C764 1.463 1_665 S
C761 C766 1.350 1_565 S
C761 N769 1.427 . S
C762 H753 0.930 . S
C762 C760 1.378 . S
C762 C763 1.367 1_565 S
C763 C762 1.367 1_545 S
C763 C765 1.433 . S
C764 C760 1.350 1_545 S
C764 C761 1.463 1_445 S
C764 N768 1.427 . S
C765 H755 0.929 . S
C765 C763 1.433 . S
C765 N768 1.384 . S
C766 H757 0.929 . S
C766 C758 1.378 . S
C766 C761 1.350 1_545 S
C767 H754 0.929 . S
C767 C759 1.433 . S
C767 N769 1.384 . S
N768 C764 1.427 . S
N768 C765 1.384 . S
N769 C761 1.427 . S
N769 C767 1.384 . S
H770 C776 0.930 . S
H771 C780 0.930 . S
H772 C785 0.929 . S
H773 C783 0.929 . S
H774 C778 0.929 . S
H775 C784 0.929 . S
C776 H770 0.930 . S
C776 C777 1.367 . S
C776 C784 1.378 . S
C777 C776 1.367 . S
C777 C785 1.433 1_545 S
C778 H774 0.929 . S
C778 C780 1.378 . S
C778 C782 1.350 . S
C779 C782 1.463 1_645 S
C779 C784 1.350 . S
C779 N787 1.427 1_545 S
C780 H771 0.930 . S
C780 C778 1.378 . S
C780 C781 1.367 . S
C781 C780 1.367 . S
C781 C783 1.433 1_565 S
C782 C778 1.350 . S
C782 C779 1.463 1_465 S
C782 N786 1.427 1_565 S
C783 H773 0.929 . S
C783 C781 1.433 1_545 S
C783 N786 1.384 . S
C784 H775 0.929 . S
C784 C776 1.378 . S
C784 C779 1.350 . S
C785 H772 0.929 . S
C785 C777 1.433 1_565 S
C785 N787 1.384 . S
N786 C782 1.427 1_545 S
N786 C783 1.384 . S
N787 C779 1.427 1_565 S
N787 C785 1.384 . S
H788 C794 0.930 . S
H789 C798 0.930 . S
H790 C803 0.929 . S
H791 C801 0.929 . S
H792 C796 0.929 . S
H793 C802 0.929 . S
C794 H788 0.930 . S
C794 C795 1.367 1_565 S
C794 C802 1.378 . S
C795 C794 1.367 1_545 S
C795 C803 1.433 . S
C796 H792 0.929 . S
C796 C798 1.378 . S
C796 C800 1.350 1_545 S
C797 C800 1.463 1_445 S
C797 C802 1.350 1_545 S
C797 N805 1.427 . S
C798 H789 0.930 . S
C798 C796 1.378 . S
C798 C799 1.367 1_545 S
C799 C798 1.367 1_565 S
C799 C801 1.433 . S
C800 C796 1.350 1_565 S
C800 C797 1.463 1_665 S
C800 N804 1.427 . S
C801 H791 0.929 . S
C801 C799 1.433 . S
C801 N804 1.384 . S
C802 H793 0.929 . S
C802 C794 1.378 . S
C802 C797 1.350 1_565 S
C803 H790 0.929 . S
C803 C795 1.433 . S
C803 N805 1.384 . S
N804 C800 1.427 . S
N804 C801 1.384 . S
N805 C797 1.427 . S
N805 C803 1.384 . S
H806 C812 0.930 . S
H807 C816 0.930 . S
H808 C821 0.929 . S
H809 C819 0.929 . S
H810 C814 0.929 . S
H811 C820 0.929 . S
C812 H806 0.930 . S
C812 C813 1.367 . S
C812 C820 1.378 . S
C813 C812 1.367 . S
C813 C821 1.433 1_545 S
C814 H810 0.929 . S
C814 C816 1.378 . S
C814 C818 1.350 . S
C815 C818 1.463 1_645 S
C815 C820 1.350 . S
C815 N823 1.427 1_545 S
C816 H807 0.930 . S
C816 C814 1.378 . S
C816 C817 1.367 . S
C817 C816 1.367 . S
C817 C819 1.433 1_565 S
C818 C814 1.350 . S
C818 C815 1.463 1_465 S
C818 N822 1.427 1_565 S
C819 H809 0.929 . S
C819 C817 1.433 1_545 S
C819 N822 1.384 . S
C820 H811 0.929 . S
C820 C812 1.378 . S
C820 C815 1.350 . S
C821 H808 0.929 . S
C821 C813 1.433 1_565 S
C821 N823 1.384 . S
N822 C818 1.427 1_545 S
N822 C819 1.384 . S
N823 C815 1.427 1_565 S
N823 C821 1.384 . S
H824 C830 0.930 . S
H825 C834 0.930 . S
H826 C839 0.929 . S
H827 C837 0.929 . S
H828 C832 0.929 . S
H829 C838 0.929 . S
C830 H824 0.930 . S
C830 C831 1.367 . S
C830 C838 1.378 . S
C831 C830 1.367 . S
C831 C839 1.433 . S
C832 H828 0.929 . S
C832 C834 1.378 . S
C832 C836 1.350 . S
C833 C836 1.463 . S
C833 C838 1.350 . S
C833 N841 1.427 . S
C834 H825 0.930 . S
C834 C832 1.378 . S
C834 C835 1.367 . S
C835 C834 1.367 . S
C835 C837 1.433 . S
C836 C832 1.350 . S
C836 C833 1.463 . S
C836 N840 1.427 . S
C837 H827 0.929 . S
C837 C835 1.433 . S
C837 N840 1.384 . S
C838 H829 0.929 . S
C838 C830 1.378 . S
C838 C833 1.350 . S
C839 H826 0.929 . S
C839 C831 1.433 . S
C839 N841 1.384 . S
N840 C836 1.427 . S
N840 C837 1.384 . S
N841 C833 1.427 . S
N841 C839 1.384 . S
H842 C848 0.930 . S
H843 C852 0.930 . S
H844 C857 0.929 . S
H845 C855 0.929 . S
H846 C850 0.929 . S
H847 C856 0.929 . S
C848 H842 0.930 . S
C848 C849 1.367 . S
C848 C856 1.378 . S
C849 C848 1.367 . S
C849 C857 1.433 . S
C850 H846 0.929 . S
C850 C852 1.378 . S
C850 C854 1.350 . S
C851 C854 1.463 . S
C851 C856 1.350 . S
C851 N859 1.427 . S
C852 H843 0.930 . S
C852 C850 1.378 . S
C852 C853 1.367 . S
C853 C852 1.367 . S
C853 C855 1.433 . S
C854 C850 1.350 . S
C854 C851 1.463 . S
C854 N858 1.427 . S
C855 H845 0.929 . S
C855 C853 1.433 . S
C855 N858 1.384 . S
C856 H847 0.929 . S
C856 C848 1.378 . S
C856 C851 1.350 . S
C857 H844 0.929 . S
C857 C849 1.433 . S
C857 N859 1.384 . S
N858 C854 1.427 . S
N858 C855 1.384 . S
N859 C851 1.427 . S
N859 C857 1.384 . S
H860 C866 0.930 . S
H861 C870 0.930 . S
H862 C875 0.929 . S
H863 C873 0.929 . S
H864 C868 0.929 . S
H865 C874 0.929 . S
C866 H860 0.930 . S
C866 C867 1.367 . S
C866 C874 1.378 . S
C867 C866 1.367 . S
C867 C875 1.433 . S
C868 H864 0.929 . S
C868 C870 1.378 . S
C868 C872 1.350 . S
C869 C872 1.463 . S
C869 C874 1.350 . S
C869 N877 1.427 . S
C870 H861 0.930 . S
C870 C868 1.378 . S
C870 C871 1.367 . S
C871 C870 1.367 . S
C871 C873 1.433 . S
C872 C868 1.350 . S
C872 C869 1.463 . S
C872 N876 1.427 . S
C873 H863 0.929 . S
C873 C871 1.433 . S
C873 N876 1.384 . S
C874 H865 0.929 . S
C874 C866 1.378 . S
C874 C869 1.350 . S
C875 H862 0.929 . S
C875 C867 1.433 . S
C875 N877 1.384 . S
N876 C872 1.427 . S
N876 C873 1.384 . S
N877 C869 1.427 . S
N877 C875 1.384 . S
H878 C884 0.930 . S
H879 C888 0.930 . S
H880 C893 0.929 . S
H881 C891 0.929 . S
H882 C886 0.929 . S
H883 C892 0.929 . S
C884 H878 0.930 . S
C884 C885 1.367 . S
C884 C892 1.378 . S
C885 C884 1.367 . S
C885 C893 1.433 . S
C886 H882 0.929 . S
C886 C888 1.378 . S
C886 C890 1.350 . S
C887 C890 1.463 . S
C887 C892 1.350 . S
C887 N895 1.427 . S
C888 H879 0.930 . S
C888 C886 1.378 . S
C888 C889 1.367 . S
C889 C888 1.367 . S
C889 C891 1.433 . S
C890 C886 1.350 . S
C890 C887 1.463 . S
C890 N894 1.427 . S
C891 H881 0.929 . S
C891 C889 1.433 . S
C891 N894 1.384 . S
C892 H883 0.929 . S
C892 C884 1.378 . S
C892 C887 1.350 . S
C893 H880 0.929 . S
C893 C885 1.433 . S
C893 N895 1.384 . S
N894 C890 1.427 . S
N894 C891 1.384 . S
N895 C887 1.427 . S
N895 C893 1.384 . S
H896 C902 0.930 . S
H897 C906 0.930 . S
H898 C911 0.929 . S
H899 C909 0.929 . S
H900 C904 0.929 . S
H901 C910 0.929 . S
C902 H896 0.930 . S
C902 C903 1.367 . S
C902 C910 1.378 . S
C903 C902 1.367 . S
C903 C911 1.433 . S
C904 H900 0.929 . S
C904 C906 1.378 . S
C904 C908 1.350 . S
C905 C908 1.463 . S
C905 C910 1.350 . S
C905 N913 1.427 . S
C906 H897 0.930 . S
C906 C904 1.378 . S
C906 C907 1.367 . S
C907 C906 1.367 . S
C907 C909 1.433 . S
C908 C904 1.350 . S
C908 C905 1.463 . S
C908 N912 1.427 . S
C909 H899 0.929 . S
C909 C907 1.433 . S
C909 N912 1.384 . S
C910 H901 0.929 . S
C910 C902 1.378 . S
C910 C905 1.350 . S
C911 H898 0.929 . S
C911 C903 1.433 . S
C911 N913 1.384 . S
N912 C908 1.427 . S
N912 C909 1.384 . S
N913 C905 1.427 . S
N913 C911 1.384 . S
H914 C920 0.930 . S
H915 C924 0.930 . S
H916 C929 0.929 . S
H917 C927 0.929 . S
H918 C922 0.929 . S
H919 C928 0.929 . S
C920 H914 0.930 . S
C920 C921 1.367 . S
C920 C928 1.378 . S
C921 C920 1.367 . S
C921 C929 1.433 . S
C922 H918 0.929 . S
C922 C924 1.378 . S
C922 C926 1.350 . S
C923 C926 1.463 . S
C923 C928 1.350 . S
C923 N931 1.427 . S
C924 H915 0.930 . S
C924 C922 1.378 . S
C924 C925 1.367 . S
C925 C924 1.367 . S
C925 C927 1.433 . S
C926 C922 1.350 . S
C926 C923 1.463 . S
C926 N930 1.427 . S
C927 H917 0.929 . S
C927 C925 1.433 . S
C927 N930 1.384 . S
C928 H919 0.929 . S
C928 C920 1.378 . S
C928 C923 1.350 . S
C929 H916 0.929 . S
C929 C921 1.433 . S
C929 N931 1.384 . S
N930 C926 1.427 . S
N930 C927 1.384 . S
N931 C923 1.427 . S
N931 C929 1.384 . S
H932 C938 0.930 . S
H933 C942 0.930 . S
H934 C947 0.929 . S
H935 C945 0.929 . S
H936 C940 0.929 . S
H937 C946 0.929 . S
C938 H932 0.930 . S
C938 C939 1.367 . S
C938 C946 1.378 . S
C939 C938 1.367 . S
C939 C947 1.433 . S
C940 H936 0.929 . S
C940 C942 1.378 . S
C940 C944 1.350 . S
C941 C944 1.463 . S
C941 C946 1.350 . S
C941 N949 1.427 . S
C942 H933 0.930 . S
C942 C940 1.378 . S
C942 C943 1.367 . S
C943 C942 1.367 . S
C943 C945 1.433 . S
C944 C940 1.350 . S
C944 C941 1.463 . S
C944 N948 1.427 . S
C945 H935 0.929 . S
C945 C943 1.433 . S
C945 N948 1.384 . S
C946 H937 0.929 . S
C946 C938 1.378 . S
C946 C941 1.350 . S
C947 H934 0.929 . S
C947 C939 1.433 . S
C947 N949 1.384 . S
N948 C944 1.427 . S
N948 C945 1.384 . S
N949 C941 1.427 . S
N949 C947 1.384 . S
H950 C956 0.930 . S
H951 C960 0.930 . S
H952 C965 0.929 . S
H953 C963 0.929 . S
H954 C958 0.929 . S
H955 C964 0.929 . S
C956 H950 0.930 . S
C956 C957 1.367 . S
C956 C964 1.378 . S
C957 C956 1.367 . S
C957 C965 1.433 . S
C958 H954 0.929 . S
C958 C960 1.378 . S
C958 C962 1.350 . S
C959 C962 1.463 . S
C959 C964 1.350 . S
C959 N967 1.427 . S
C960 H951 0.930 . S
C960 C958 1.378 . S
C960 C961 1.367 . S
C961 C960 1.367 . S
C961 C963 1.433 . S
C962 C958 1.350 . S
C962 C959 1.463 . S
C962 N966 1.427 . S
C963 H953 0.929 . S
C963 C961 1.433 . S
C963 N966 1.384 . S
C964 H955 0.929 . S
C964 C956 1.378 . S
C964 C959 1.350 . S
C965 H952 0.929 . S
C965 C957 1.433 . S
C965 N967 1.384 . S
N966 C962 1.427 . S
N966 C963 1.384 . S
N967 C959 1.427 . S
N967 C965 1.384 . S
H968 C974 0.930 . S
H969 C978 0.930 . S
H970 C983 0.929 . S
H971 C981 0.929 . S
H972 C976 0.929 . S
H973 C982 0.929 . S
C974 H968 0.930 . S
C974 C975 1.367 . S
C974 C982 1.378 . S
C975 C974 1.367 . S
C975 C983 1.433 . S
C976 H972 0.929 . S
C976 C978 1.378 . S
C976 C980 1.350 . S
C977 C980 1.463 . S
C977 C982 1.350 . S
C977 N985 1.427 . S
C978 H969 0.930 . S
C978 C976 1.378 . S
C978 C979 1.367 . S
C979 C978 1.367 . S
C979 C981 1.433 . S
C980 C976 1.350 . S
C980 C977 1.463 . S
C980 N984 1.427 . S
C981 H971 0.929 . S
C981 C979 1.433 . S
C981 N984 1.384 . S
C982 H973 0.929 . S
C982 C974 1.378 . S
C982 C977 1.350 . S
C983 H970 0.929 . S
C983 C975 1.433 . S
C983 N985 1.384 . S
N984 C980 1.427 . S
N984 C981 1.384 . S
N985 C977 1.427 . S
N985 C983 1.384 . S
H986 C992 0.930 . S
H987 C996 0.930 . S
H988 C1001 0.929 . S
H989 C999 0.929 . S
H990 C994 0.929 . S
H991 C1000 0.929 . S
C992 H986 0.930 . S
C992 C993 1.367 . S
C992 C1000 1.378 . S
C993 C992 1.367 . S
C993 C1001 1.433 . S
C994 H990 0.929 . S
C994 C996 1.378 . S
C994 C998 1.350 . S
C995 C998 1.463 . S
C995 C1000 1.350 . S
C995 N1003 1.427 . S
C996 H987 0.930 . S
C996 C994 1.378 . S
C996 C997 1.367 . S
C997 C996 1.367 . S
C997 C999 1.433 . S
C998 C994 1.350 . S
C998 C995 1.463 . S
C998 N1002 1.427 . S
C999 H989 0.929 . S
C999 C997 1.433 . S
C999 N1002 1.384 . S
C1000 H991 0.929 . S
C1000 C992 1.378 . S
C1000 C995 1.350 . S
C1001 H988 0.929 . S
C1001 C993 1.433 . S
C1001 N1003 1.384 . S
N1002 C998 1.427 . S
N1002 C999 1.384 . S
N1003 C995 1.427 . S
N1003 C1001 1.384 . S
H1004 C1010 0.930 . S
H1005 C1014 0.930 . S
H1006 C1019 0.929 . S
H1007 C1017 0.929 . S
H1008 C1012 0.929 . S
H1009 C1018 0.929 . S
C1010 H1004 0.930 . S
C1010 C1011 1.367 . S
C1010 C1018 1.378 . S
C1011 C1010 1.367 . S
C1011 C1019 1.433 . S
C1012 H1008 0.929 . S
C1012 C1014 1.378 . S
C1012 C1016 1.350 . S
C1013 C1016 1.463 . S
C1013 C1018 1.350 . S
C1013 N1021 1.427 . S
C1014 H1005 0.930 . S
C1014 C1012 1.378 . S
C1014 C1015 1.367 . S
C1015 C1014 1.367 . S
C1015 C1017 1.433 . S
C1016 C1012 1.350 . S
C1016 C1013 1.463 . S
C1016 N1020 1.427 . S
C1017 H1007 0.929 . S
C1017 C1015 1.433 . S
C1017 N1020 1.384 . S
C1018 H1009 0.929 . S
C1018 C1010 1.378 . S
C1018 C1013 1.350 . S
C1019 H1006 0.929 . S
C1019 C1011 1.433 . S
C1019 N1021 1.384 . S
N1020 C1016 1.427 . S
N1020 C1017 1.384 . S
N1021 C1013 1.427 . S
N1021 C1019 1.384 . S
H1022 C1028 0.930 . S
H1023 C1032 0.930 . S
H1024 C1037 0.929 . S
H1025 C1035 0.929 . S
H1026 C1030 0.929 . S
H1027 C1036 0.929 . S
C1028 H1022 0.930 . S
C1028 C1029 1.367 . S
C1028 C1036 1.378 . S
C1029 C1028 1.367 . S
C1029 C1037 1.433 . S
C1030 H1026 0.929 . S
C1030 C1032 1.378 . S
C1030 C1034 1.350 . S
C1031 C1034 1.463 . S
C1031 C1036 1.350 . S
C1031 N1039 1.427 . S
C1032 H1023 0.930 . S
C1032 C1030 1.378 . S
C1032 C1033 1.367 . S
C1033 C1032 1.367 . S
C1033 C1035 1.433 . S
C1034 C1030 1.350 . S
C1034 C1031 1.463 . S
C1034 N1038 1.427 . S
C1035 H1025 0.929 . S
C1035 C1033 1.433 . S
C1035 N1038 1.384 . S
C1036 H1027 0.929 . S
C1036 C1028 1.378 . S
C1036 C1031 1.350 . S
C1037 H1024 0.929 . S
C1037 C1029 1.433 . S
C1037 N1039 1.384 . S
N1038 C1034 1.427 . S
N1038 C1035 1.384 . S
N1039 C1031 1.427 . S
N1039 C1037 1.384 . S
H1040 C1046 0.930 . S
H1041 C1050 0.930 . S
H1042 C1055 0.929 . S
H1043 C1053 0.929 . S
H1044 C1048 0.929 . S
H1045 C1054 0.929 . S
C1046 H1040 0.930 . S
C1046 C1047 1.367 . S
C1046 C1054 1.378 1_565 S
C1047 C1046 1.367 . S
C1047 C1055 1.433 . S
C1048 H1044 0.929 . S
C1048 C1050 1.378 . S
C1048 C1052 1.350 . S
C1049 C1052 1.463 . S
C1049 C1054 1.350 . S
C1049 N1057 1.427 . S
C1050 H1041 0.930 . S
C1050 C1048 1.378 . S
C1050 C1051 1.367 . S
C1051 C1050 1.367 . S
C1051 C1053 1.433 . S
C1052 C1048 1.350 . S
C1052 C1049 1.463 . S
C1052 N1056 1.427 . S
C1053 H1043 0.929 . S
C1053 C1051 1.433 . S
C1053 N1056 1.384 . S
C1054 H1045 0.929 . S
C1054 C1046 1.378 1_545 S
C1054 C1049 1.350 . S
C1055 H1042 0.929 . S
C1055 C1047 1.433 . S
C1055 N1057 1.384 1_565 S
N1056 C1052 1.427 . S
N1056 C1053 1.384 . S
N1057 C1049 1.427 . S
N1057 C1055 1.384 1_545 S
H1058 C1064 0.930 . S
H1059 C1068 0.930 . S
H1060 C1073 0.929 . S
H1061 C1071 0.929 . S
H1062 C1066 0.929 . S
H1063 C1072 0.929 . S
C1064 H1058 0.930 . S
C1064 C1065 1.367 . S
C1064 C1072 1.378 . S
C1065 C1064 1.367 . S
C1065 C1073 1.433 . S
C1066 H1062 0.929 . S
C1066 C1068 1.378 1_565 S
C1066 C1070 1.350 . S
C1067 C1070 1.463 . S
C1067 C1072 1.350 . S
C1067 N1075 1.427 . S
C1068 H1059 0.930 . S
C1068 C1066 1.378 1_545 S
C1068 C1069 1.367 . S
C1069 C1068 1.367 . S
C1069 C1071 1.433 . S
C1070 C1066 1.350 . S
C1070 C1067 1.463 . S
C1070 N1074 1.427 . S
C1071 H1061 0.929 . S
C1071 C1069 1.433 . S
C1071 N1074 1.384 1_545 S
C1072 H1063 0.929 . S
C1072 C1064 1.378 . S
C1072 C1067 1.350 . S
C1073 H1060 0.929 . S
C1073 C1065 1.433 . S
C1073 N1075 1.384 . S
N1074 C1070 1.427 . S
N1074 C1071 1.384 1_565 S
N1075 C1067 1.427 . S
N1075 C1073 1.384 . S
H1076 C1082 0.930 . S
H1077 C1086 0.930 . S
H1078 C1091 0.929 . S
H1079 C1089 0.929 . S
H1080 C1084 0.929 . S
H1081 C1090 0.929 . S
C1082 H1076 0.930 . S
C1082 C1083 1.367 . S
C1082 C1090 1.378 1_545 S
C1083 C1082 1.367 . S
C1083 C1091 1.433 . S
C1084 H1080 0.929 . S
C1084 C1086 1.378 . S
C1084 C1088 1.350 . S
C1085 C1088 1.463 . S
C1085 C1090 1.350 . S
C1085 N1093 1.427 . S
C1086 H1077 0.930 . S
C1086 C1084 1.378 . S
C1086 C1087 1.367 . S
C1087 C1086 1.367 . S
C1087 C1089 1.433 . S
C1088 C1084 1.350 . S
C1088 C1085 1.463 . S
C1088 N1092 1.427 . S
C1089 H1079 0.929 . S
C1089 C1087 1.433 . S
C1089 N1092 1.384 . S
C1090 H1081 0.929 . S
C1090 C1082 1.378 1_565 S
C1090 C1085 1.350 . S
C1091 H1078 0.929 . S
C1091 C1083 1.433 . S
C1091 N1093 1.384 1_545 S
N1092 C1088 1.427 . S
N1092 C1089 1.384 . S
N1093 C1085 1.427 . S
N1093 C1091 1.384 1_565 S
H1094 C1100 0.930 . S
H1095 C1104 0.930 . S
H1096 C1109 0.929 . S
H1097 C1107 0.929 . S
H1098 C1102 0.929 . S
H1099 C1108 0.929 . S
C1100 H1094 0.930 . S
C1100 C1101 1.367 . S
C1100 C1108 1.378 1_565 S
C1101 C1100 1.367 . S
C1101 C1109 1.433 . S
C1102 H1098 0.929 . S
C1102 C1104 1.378 . S
C1102 C1106 1.350 . S
C1103 C1106 1.463 . S
C1103 C1108 1.350 . S
C1103 N1111 1.427 . S
C1104 H1095 0.930 . S
C1104 C1102 1.378 . S
C1104 C1105 1.367 . S
C1105 C1104 1.367 . S
C1105 C1107 1.433 . S
C1106 C1102 1.350 . S
C1106 C1103 1.463 . S
C1106 N1110 1.427 . S
C1107 H1097 0.929 . S
C1107 C1105 1.433 . S
C1107 N1110 1.384 . S
C1108 H1099 0.929 . S
C1108 C1100 1.378 1_545 S
C1108 C1103 1.350 . S
C1109 H1096 0.929 . S
C1109 C1101 1.433 . S
C1109 N1111 1.384 1_565 S
N1110 C1106 1.427 . S
N1110 C1107 1.384 . S
N1111 C1103 1.427 . S
N1111 C1109 1.384 1_545 S
H1112 C1118 0.930 . S
H1113 C1122 0.930 . S
H1114 C1127 0.929 . S
H1115 C1125 0.929 . S
H1116 C1120 0.929 . S
H1117 C1126 0.929 . S
C1118 H1112 0.930 . S
C1118 C1119 1.367 . S
C1118 C1126 1.378 . S
C1119 C1118 1.367 . S
C1119 C1127 1.433 . S
C1120 H1116 0.929 . S
C1120 C1122 1.378 1_565 S
C1120 C1124 1.350 . S
C1121 C1124 1.463 . S
C1121 C1126 1.350 . S
C1121 N1129 1.427 . S
C1122 H1113 0.930 . S
C1122 C1120 1.378 1_545 S
C1122 C1123 1.367 . S
C1123 C1122 1.367 . S
C1123 C1125 1.433 . S
C1124 C1120 1.350 . S
C1124 C1121 1.463 . S
C1124 N1128 1.427 . S
C1125 H1115 0.929 . S
C1125 C1123 1.433 . S
C1125 N1128 1.384 1_545 S
C1126 H1117 0.929 . S
C1126 C1118 1.378 . S
C1126 C1121 1.350 . S
C1127 H1114 0.929 . S
C1127 C1119 1.433 . S
C1127 N1129 1.384 . S
N1128 C1124 1.427 . S
N1128 C1125 1.384 1_565 S
N1129 C1121 1.427 . S
N1129 C1127 1.384 . S
H1130 C1136 0.930 . S
H1131 C1140 0.930 . S
H1132 C1145 0.929 . S
H1133 C1143 0.929 . S
H1134 C1138 0.929 . S
H1135 C1144 0.929 . S
C1136 H1130 0.930 . S
C1136 C1137 1.367 . S
C1136 C1144 1.378 . S
C1137 C1136 1.367 . S
C1137 C1145 1.433 . S
C1138 H1134 0.929 . S
C1138 C1140 1.378 1_545 S
C1138 C1142 1.350 . S
C1139 C1142 1.463 . S
C1139 C1144 1.350 . S
C1139 N1147 1.427 . S
C1140 H1131 0.930 . S
C1140 C1138 1.378 1_565 S
C1140 C1141 1.367 . S
C1141 C1140 1.367 . S
C1141 C1143 1.433 . S
C1142 C1138 1.350 . S
C1142 C1139 1.463 . S
C1142 N1146 1.427 . S
C1143 H1133 0.929 . S
C1143 C1141 1.433 . S
C1143 N1146 1.384 1_565 S
C1144 H1135 0.929 . S
C1144 C1136 1.378 . S
C1144 C1139 1.350 . S
C1145 H1132 0.929 . S
C1145 C1137 1.433 . S
C1145 N1147 1.384 . S
N1146 C1142 1.427 . S
N1146 C1143 1.384 1_545 S
N1147 C1139 1.427 . S
N1147 C1145 1.384 . S
H1148 C1154 0.930 . S
H1149 C1158 0.930 . S
H1150 C1163 0.929 . S
H1151 C1161 0.929 . S
H1152 C1156 0.929 . S
H1153 C1162 0.929 . S
C1154 H1148 0.930 . S
C1154 C1155 1.367 . S
C1154 C1162 1.378 1_565 S
C1155 C1154 1.367 . S
C1155 C1163 1.433 . S
C1156 H1152 0.929 . S
C1156 C1158 1.378 . S
C1156 C1160 1.350 . S
C1157 C1160 1.463 . S
C1157 C1162 1.350 . S
C1157 N1165 1.427 . S
C1158 H1149 0.930 . S
C1158 C1156 1.378 . S
C1158 C1159 1.367 . S
C1159 C1158 1.367 . S
C1159 C1161 1.433 . S
C1160 C1156 1.350 . S
C1160 C1157 1.463 . S
C1160 N1164 1.427 . S
C1161 H1151 0.929 . S
C1161 C1159 1.433 . S
C1161 N1164 1.384 . S
C1162 H1153 0.929 . S
C1162 C1154 1.378 1_545 S
C1162 C1157 1.350 . S
C1163 H1150 0.929 . S
C1163 C1155 1.433 . S
C1163 N1165 1.384 1_565 S
N1164 C1160 1.427 . S
N1164 C1161 1.384 . S
N1165 C1157 1.427 . S
N1165 C1163 1.384 1_545 S
H1166 C1172 0.930 . S
H1167 C1176 0.930 . S
H1168 C1181 0.929 . S
H1169 C1179 0.929 . S
H1170 C1174 0.929 . S
H1171 C1180 0.929 . S
C1172 H1166 0.930 . S
C1172 C1173 1.367 . S
C1172 C1180 1.378 . S
C1173 C1172 1.367 . S
C1173 C1181 1.433 . S
C1174 H1170 0.929 . S
C1174 C1176 1.378 1_565 S
C1174 C1178 1.350 . S
C1175 C1178 1.463 . S
C1175 C1180 1.350 . S
C1175 N1183 1.427 . S
C1176 H1167 0.930 . S
C1176 C1174 1.378 1_545 S
C1176 C1177 1.367 . S
C1177 C1176 1.367 . S
C1177 C1179 1.433 . S
C1178 C1174 1.350 . S
C1178 C1175 1.463 . S
C1178 N1182 1.427 . S
C1179 H1169 0.929 . S
C1179 C1177 1.433 . S
C1179 N1182 1.384 1_545 S
C1180 H1171 0.929 . S
C1180 C1172 1.378 . S
C1180 C1175 1.350 . S
C1181 H1168 0.929 . S
C1181 C1173 1.433 . S
C1181 N1183 1.384 . S
N1182 C1178 1.427 . S
N1182 C1179 1.384 1_565 S
N1183 C1175 1.427 . S
N1183 C1181 1.384 . S
C327 C2 1.449 . S
C331 C182 1.446 . S
C345 C22 1.435 . S
C349 C162 1.435 . S
C363 C222 1.449 . S
C367 C42 1.451 . S
C381 C62 1.446 . S
C385 C202 1.449 . S
C399 C264 1.451 . S
C403 C84 1.450 . S
C417 C244 1.448 . S
C421 C104 1.445 . S
C435 C304 1.448 . S
C439 C124 1.445 . S
C453 C144 1.451 . S
C457 C284 1.448 . S
C471 C59 1.566 . S
C475 C19 1.567 . S
C489 C79 1.568 . S
C493 C39 1.566 . S
C507 C138 1.567 . S
C511 C98 1.562 . S
C525 C118 1.565 . S
C529 C158 1.563 . S
C543 C219 1.568 . S
C547 C179 1.565 . S
C561 C239 1.562 . S
C565 C199 1.566 . S
C579 C258 1.565 . S
C583 C298 1.568 . S
C597 C278 1.567 . S
C601 C318 1.561 . S
C615 C119 1.550 . S
C619 C18 1.549 . S
C633 C99 1.545 . S
C637 C38 1.554 . S
C651 C58 1.555 . S
C655 C159 1.544 . S
C669 C139 1.551 . S
C673 C78 1.548 . S
C687 C178 1.554 . S
C691 C279 1.545 . S
C705 C259 1.550 . S
C709 C198 1.548 . S
C723 C218 1.554 . S
C727 C319 1.545 . S
C741 C299 1.550 . S
C745 C238 1.549 . S
C759 C24 1.551 . S
C763 C4 1.552 . S
C777 C64 1.561 . S
C781 C44 1.561 . S
C795 C102 1.551 . S
C799 C82 1.553 . S
C813 C122 1.559 . S
C817 C142 1.561 . S
C831 C184 1.561 . S
C835 C164 1.558 . S
C849 C224 1.561 . S
C853 C204 1.559 . S
C867 C242 1.556 . S
C871 C262 1.560 . S
C885 C282 1.559 . S
C889 C302 1.555 . S
C903 C12 1.672 . S
C907 C9 1.672 . S
C921 C32 1.673 . S
C925 C29 1.673 . S
C939 C52 1.673 . S
C943 C49 1.673 . S
C957 C69 1.669 . S
C961 C72 1.669 . S
C975 C89 1.666 . S
C979 C92 1.666 . S
C993 C112 1.673 . S
C997 C109 1.673 . S
C1011 C129 1.667 . S
C1015 C132 1.667 . S
C1029 C149 1.671 . S
C1033 C152 1.671 . S
C1047 C169 1.670 . S
C1051 C172 1.670 . S
C1065 C192 1.667 . S
C1069 C189 1.667 . S
C1083 C209 1.671 . S
C1087 C212 1.671 . S
C1101 C229 1.673 . S
C1105 C232 1.673 . S
C1119 C249 1.672 . S
C1123 C252 1.672 . S
C1137 C269 1.671 . S
C1141 C272 1.671 . S
C1155 C292 1.673 . S
C1159 C289 1.673 . S
C1173 C309 1.666 . S
C1177 C312 1.666 . S
