# Generated by pormake.
# Topology wlh, (5)-cn, num edge types: 1
# Building blocks:
#     Node 0, Type 0, BuildingBlock: BEQFEK_clean_sbu_0, # of connection points: 5
#     Node 1, Type 0, BuildingBlock: BEQFEK_clean_sbu_0, # of connection points: 5
#     Node 2, Type 0, BuildingBlock: BEQFEK_clean_sbu_0, # of connection points: 5
#     Node 3, Type 0, BuildingBlock: BEQFEK_clean_sbu_0, # of connection points: 5
#     Node 4, Type 0, BuildingBlock: BEQFEK_clean_sbu_0, # of connection points: 5
#     Node 5, Type 0, BuildingBlock: BEQFEK_clean_sbu_0, # of connection points: 5
#     Node 6, Type 0, BuildingBlock: BEQFEK_clean_sbu_0, # of connection points: 5
#     Node 7, Type 0, BuildingBlock: BEQFEK_clean_sbu_0, # of connection points: 5
#     Node 8, Type 0, BuildingBlock: BEQFEK_clean_sbu_0, # of connection points: 5
#     Node 9, Type 0, BuildingBlock: BEQFEK_clean_sbu_0, # of connection points: 5
#     Node 10, Type 0, BuildingBlock: BEQFEK_clean_sbu_0, # of connection points: 5
#     Node 11, Type 0, BuildingBlock: BEQFEK_clean_sbu_0, # of connection points: 5
#     Node 12, Type 0, BuildingBlock: BEQFEK_clean_sbu_0, # of connection points: 5
#     Node 13, Type 0, BuildingBlock: BEQFEK_clean_sbu_0, # of connection points: 5
#     Node 14, Type 0, BuildingBlock: BEQFEK_clean_sbu_0, # of connection points: 5
#     Node 15, Type 0, BuildingBlock: BEQFEK_clean_sbu_0, # of connection points: 5
#     Node 16, Type 0, BuildingBlock: BEQFEK_clean_sbu_0, # of connection points: 5
#     Node 17, Type 0, BuildingBlock: BEQFEK_clean_sbu_0, # of connection points: 5
#     Node 18, Type 0, BuildingBlock: BEQFEK_clean_sbu_0, # of connection points: 5
#     Node 19, Type 0, BuildingBlock: BEQFEK_clean_sbu_0, # of connection points: 5
#     Node 20, Type 0, BuildingBlock: BEQFEK_clean_sbu_0, # of connection points: 5
#     Node 21, Type 0, BuildingBlock: BEQFEK_clean_sbu_0, # of connection points: 5
#     Node 22, Type 0, BuildingBlock: BEQFEK_clean_sbu_0, # of connection points: 5
#     Node 23, Type 0, BuildingBlock: BEQFEK_clean_sbu_0, # of connection points: 5
#     Node 24, Type 0, BuildingBlock: BEQFEK_clean_sbu_0, # of connection points: 5
#     Node 25, Type 0, BuildingBlock: BEQFEK_clean_sbu_0, # of connection points: 5
#     Node 26, Type 0, BuildingBlock: BEQFEK_clean_sbu_0, # of connection points: 5
#     Node 27, Type 0, BuildingBlock: BEQFEK_clean_sbu_0, # of connection points: 5
#     Node 28, Type 0, BuildingBlock: BEQFEK_clean_sbu_0, # of connection points: 5
#     Node 29, Type 0, BuildingBlock: BEQFEK_clean_sbu_0, # of connection points: 5
#     Node 30, Type 0, BuildingBlock: BEQFEK_clean_sbu_0, # of connection points: 5
#     Node 31, Type 0, BuildingBlock: BEQFEK_clean_sbu_0, # of connection points: 5
#     Node 32, Type 0, BuildingBlock: BEQFEK_clean_sbu_0, # of connection points: 5
#     Node 33, Type 0, BuildingBlock: BEQFEK_clean_sbu_0, # of connection points: 5
#     Node 34, Type 0, BuildingBlock: BEQFEK_clean_sbu_0, # of connection points: 5
#     Node 35, Type 0, BuildingBlock: BEQFEK_clean_sbu_0, # of connection points: 5
#     Edge 36, Type (0, 0), BuildingBlock: XIVTED_clean_linker_0, # of connection points: 2
#     Edge 37, Type (0, 0), BuildingBlock: XIVTED_clean_linker_0, # of connection points: 2
#     Edge 38, Type (0, 0), BuildingBlock: XIVTED_clean_linker_0, # of connection points: 2
#     Edge 39, Type (0, 0), BuildingBlock: XIVTED_clean_linker_0, # of connection points: 2
#     Edge 40, Type (0, 0), BuildingBlock: XIVTED_clean_linker_0, # of connection points: 2
#     Edge 41, Type (0, 0), BuildingBlock: XIVTED_clean_linker_0, # of connection points: 2
#     Edge 42, Type (0, 0), BuildingBlock: XIVTED_clean_linker_0, # of connection points: 2
#     Edge 43, Type (0, 0), BuildingBlock: XIVTED_clean_linker_0, # of connection points: 2
#     Edge 44, Type (0, 0), BuildingBlock: XIVTED_clean_linker_0, # of connection points: 2
#     Edge 45, Type (0, 0), BuildingBlock: XIVTED_clean_linker_0, # of connection points: 2
#     Edge 46, Type (0, 0), BuildingBlock: XIVTED_clean_linker_0, # of connection points: 2
#     Edge 47, Type (0, 0), BuildingBlock: XIVTED_clean_linker_0, # of connection points: 2
#     Edge 48, Type (0, 0), BuildingBlock: XIVTED_clean_linker_0, # of connection points: 2
#     Edge 49, Type (0, 0), BuildingBlock: XIVTED_clean_linker_0, # of connection points: 2
#     Edge 50, Type (0, 0), BuildingBlock: XIVTED_clean_linker_0, # of connection points: 2
#     Edge 51, Type (0, 0), BuildingBlock: XIVTED_clean_linker_0, # of connection points: 2
#     Edge 52, Type (0, 0), BuildingBlock: XIVTED_clean_linker_0, # of connection points: 2
#     Edge 53, Type (0, 0), BuildingBlock: XIVTED_clean_linker_0, # of connection points: 2
#     Edge 54, Type (0, 0), BuildingBlock: XIVTED_clean_linker_0, # of connection points: 2
#     Edge 55, Type (0, 0), BuildingBlock: XIVTED_clean_linker_0, # of connection points: 2
#     Edge 56, Type (0, 0), BuildingBlock: XIVTED_clean_linker_0, # of connection points: 2
#     Edge 57, Type (0, 0), BuildingBlock: XIVTED_clean_linker_0, # of connection points: 2
#     Edge 58, Type (0, 0), BuildingBlock: XIVTED_clean_linker_0, # of connection points: 2
#     Edge 59, Type (0, 0), BuildingBlock: XIVTED_clean_linker_0, # of connection points: 2
#     Edge 60, Type (0, 0), BuildingBlock: XIVTED_clean_linker_0, # of connection points: 2
#     Edge 61, Type (0, 0), BuildingBlock: XIVTED_clean_linker_0, # of connection points: 2
#     Edge 62, Type (0, 0), BuildingBlock: XIVTED_clean_linker_0, # of connection points: 2
#     Edge 63, Type (0, 0), BuildingBlock: XIVTED_clean_linker_0, # of connection points: 2
#     Edge 64, Type (0, 0), BuildingBlock: XIVTED_clean_linker_0, # of connection points: 2
#     Edge 65, Type (0, 0), BuildingBlock: XIVTED_clean_linker_0, # of connection points: 2
#     Edge 66, Type (0, 0), BuildingBlock: XIVTED_clean_linker_0, # of connection points: 2
#     Edge 67, Type (0, 0), BuildingBlock: XIVTED_clean_linker_0, # of connection points: 2
#     Edge 68, Type (0, 0), BuildingBlock: XIVTED_clean_linker_0, # of connection points: 2
#     Edge 69, Type (0, 0), BuildingBlock: XIVTED_clean_linker_0, # of connection points: 2
#     Edge 70, Type (0, 0), BuildingBlock: XIVTED_clean_linker_0, # of connection points: 2
#     Edge 71, Type (0, 0), BuildingBlock: XIVTED_clean_linker_0, # of connection points: 2
#     Edge 72, Type (0, 0), BuildingBlock: XIVTED_clean_linker_0, # of connection points: 2
#     Edge 73, Type (0, 0), BuildingBlock: XIVTED_clean_linker_0, # of connection points: 2
#     Edge 74, Type (0, 0), BuildingBlock: XIVTED_clean_linker_0, # of connection points: 2
#     Edge 75, Type (0, 0), BuildingBlock: XIVTED_clean_linker_0, # of connection points: 2
#     Edge 76, Type (0, 0), BuildingBlock: XIVTED_clean_linker_0, # of connection points: 2
#     Edge 77, Type (0, 0), BuildingBlock: XIVTED_clean_linker_0, # of connection points: 2
#     Edge 78, Type (0, 0), BuildingBlock: XIVTED_clean_linker_0, # of connection points: 2
#     Edge 79, Type (0, 0), BuildingBlock: XIVTED_clean_linker_0, # of connection points: 2
#     Edge 80, Type (0, 0), BuildingBlock: XIVTED_clean_linker_0, # of connection points: 2
#     Edge 81, Type (0, 0), BuildingBlock: XIVTED_clean_linker_0, # of connection points: 2
#     Edge 82, Type (0, 0), BuildingBlock: XIVTED_clean_linker_0, # of connection points: 2
#     Edge 83, Type (0, 0), BuildingBlock: XIVTED_clean_linker_0, # of connection points: 2
#     Edge 84, Type (0, 0), BuildingBlock: XIVTED_clean_linker_0, # of connection points: 2
#     Edge 85, Type (0, 0), BuildingBlock: XIVTED_clean_linker_0, # of connection points: 2
#     Edge 86, Type (0, 0), BuildingBlock: XIVTED_clean_linker_0, # of connection points: 2
#     Edge 87, Type (0, 0), BuildingBlock: XIVTED_clean_linker_0, # of connection points: 2
#     Edge 88, Type (0, 0), BuildingBlock: XIVTED_clean_linker_0, # of connection points: 2
#     Edge 89, Type (0, 0), BuildingBlock: XIVTED_clean_linker_0, # of connection points: 2
#     Edge 90, Type (0, 0), BuildingBlock: XIVTED_clean_linker_0, # of connection points: 2
#     Edge 91, Type (0, 0), BuildingBlock: XIVTED_clean_linker_0, # of connection points: 2
#     Edge 92, Type (0, 0), BuildingBlock: XIVTED_clean_linker_0, # of connection points: 2
#     Edge 93, Type (0, 0), BuildingBlock: XIVTED_clean_linker_0, # of connection points: 2
#     Edge 94, Type (0, 0), BuildingBlock: XIVTED_clean_linker_0, # of connection points: 2
#     Edge 95, Type (0, 0), BuildingBlock: XIVTED_clean_linker_0, # of connection points: 2
#     Edge 96, Type (0, 0), BuildingBlock: XIVTED_clean_linker_0, # of connection points: 2
#     Edge 97, Type (0, 0), BuildingBlock: XIVTED_clean_linker_0, # of connection points: 2
#     Edge 98, Type (0, 0), BuildingBlock: XIVTED_clean_linker_0, # of connection points: 2
#     Edge 99, Type (0, 0), BuildingBlock: XIVTED_clean_linker_0, # of connection points: 2
#     Edge 100, Type (0, 0), BuildingBlock: XIVTED_clean_linker_0, # of connection points: 2
#     Edge 101, Type (0, 0), BuildingBlock: XIVTED_clean_linker_0, # of connection points: 2
#     Edge 102, Type (0, 0), BuildingBlock: XIVTED_clean_linker_0, # of connection points: 2
#     Edge 103, Type (0, 0), BuildingBlock: XIVTED_clean_linker_0, # of connection points: 2
#     Edge 104, Type (0, 0), BuildingBlock: XIVTED_clean_linker_0, # of connection points: 2
#     Edge 105, Type (0, 0), BuildingBlock: XIVTED_clean_linker_0, # of connection points: 2
#     Edge 106, Type (0, 0), BuildingBlock: XIVTED_clean_linker_0, # of connection points: 2
#     Edge 107, Type (0, 0), BuildingBlock: XIVTED_clean_linker_0, # of connection points: 2
#     Edge 108, Type (0, 0), BuildingBlock: XIVTED_clean_linker_0, # of connection points: 2
#     Edge 109, Type (0, 0), BuildingBlock: XIVTED_clean_linker_0, # of connection points: 2
#     Edge 110, Type (0, 0), BuildingBlock: XIVTED_clean_linker_0, # of connection points: 2
#     Edge 111, Type (0, 0), BuildingBlock: XIVTED_clean_linker_0, # of connection points: 2
#     Edge 112, Type (0, 0), BuildingBlock: XIVTED_clean_linker_0, # of connection points: 2
#     Edge 113, Type (0, 0), BuildingBlock: XIVTED_clean_linker_0, # of connection points: 2
#     Edge 114, Type (0, 0), BuildingBlock: XIVTED_clean_linker_0, # of connection points: 2
#     Edge 115, Type (0, 0), BuildingBlock: XIVTED_clean_linker_0, # of connection points: 2
#     Edge 116, Type (0, 0), BuildingBlock: XIVTED_clean_linker_0, # of connection points: 2
#     Edge 117, Type (0, 0), BuildingBlock: XIVTED_clean_linker_0, # of connection points: 2
#     Edge 118, Type (0, 0), BuildingBlock: XIVTED_clean_linker_0, # of connection points: 2
#     Edge 119, Type (0, 0), BuildingBlock: XIVTED_clean_linker_0, # of connection points: 2
#     Edge 120, Type (0, 0), BuildingBlock: XIVTED_clean_linker_0, # of connection points: 2
#     Edge 121, Type (0, 0), BuildingBlock: XIVTED_clean_linker_0, # of connection points: 2
#     Edge 122, Type (0, 0), BuildingBlock: XIVTED_clean_linker_0, # of connection points: 2
#     Edge 123, Type (0, 0), BuildingBlock: XIVTED_clean_linker_0, # of connection points: 2
#     Edge 124, Type (0, 0), BuildingBlock: XIVTED_clean_linker_0, # of connection points: 2
#     Edge 125, Type (0, 0), BuildingBlock: XIVTED_clean_linker_0, # of connection points: 2
# Relax obj value: 0.225
# Max RMSD: 0.166
# Mean RMSD: 0.166
data_MOF--net-wlh--node1-BEQFEK_clean_sbu_0--edge1-XIVTED_clean_linker_0
_symmetry_space_group_name_H-M    P1
_symmetry_Int_Tables_number       1
_symmetry_cell_setting            triclinic
loop_
_symmetry_equiv_pos_as_xyz
'x, y, z'
_cell_length_a     44.129985
_cell_length_b     44.14956
_cell_length_c     133.18849
_cell_angle_alpha  89.974795
_cell_angle_beta   89.985711
_cell_angle_gamma 119.97014
loop_
_atom_site_label
_atom_site_type_symbol
_atom_site_fract_x
_atom_site_fract_y
_atom_site_fract_z
_atom_type_partial_charge
Co0 Co 0.10273 0.20632 0.20003 0.0
Co1 Co 0.08103 0.26297 0.19614 0.0
C2 C 0.03786 0.19168 0.18831 0.0
O3 O 0.05975 0.18388 0.19191 0.0
O4 O 0.04189 0.22215 0.18931 0.0
C5 C 0.12402 0.16252 0.19122 0.0
O6 O 0.12028 0.17716 0.18308 0.0
C7 C 0.05891 0.30992 0.1874 0.0
C8 C 0.09094 0.35862 0.19598 0.0
C9 C 0.06626 0.3442 0.18841 0.0
N10 N 0.07821 0.30424 0.19412 0.0
N11 N 0.09721 0.3334 0.19925 0.0
C12 C 0.03645 0.28389 0.17962 0.0
H13 H 0.04976 0.27007 0.17668 0.0
H14 H 0.03076 0.29661 0.17329 0.0
H15 H 0.01146 0.26423 0.18314 0.0
C16 C 0.16836 0.26046 0.19087 0.0
N17 N 0.13584 0.24918 0.19435 0.0
N18 N 0.12563 0.27135 0.19169 0.0
C19 C 0.15085 0.29674 0.186 0.0
C20 C 0.17875 0.29057 0.18528 0.0
C21 C 0.18983 0.24373 0.19325 0.0
H22 H 0.18117 0.22917 0.20044 0.0
H23 H 0.18698 0.22532 0.18719 0.0
H24 H 0.21794 0.26387 0.19377 0.0
O25 O 0.08885 0.21177 0.21364 0.0
O26 O 0.07355 0.25193 0.21075 0.0
H27 H 0.153 0.34612 0.18573 0.0
H28 H 0.16433 0.33424 0.17395 0.0
C29 C 0.1467 0.32408 0.18055 0.0
H30 H 0.11929 0.31306 0.17799 0.0
H31 H 0.11485 0.3362 0.20488 0.0
O32 O 0.11911 0.17215 0.19977 0.0
C33 C 0.07668 0.23095 0.21668 0.0
Co34 Co 0.79231 0.89322 0.19965 0.0
Co35 Co 0.7331 0.81427 0.19835 0.0
C36 C 0.80352 0.83838 0.18968 0.0
O37 O 0.81321 0.86975 0.19212 0.0
O38 O 0.77288 0.81353 0.19163 0.0
C39 C 0.83919 0.95427 0.18942 0.0
O40 O 0.83035 0.93107 0.18221 0.0
C41 C 0.68547 0.74759 0.18919 0.0
C42 C 0.64138 0.72358 0.19991 0.0
C43 C 0.65319 0.71818 0.19082 0.0
N44 N 0.69265 0.76942 0.19696 0.0
N45 N 0.66631 0.75493 0.20339 0.0
C46 C 0.70798 0.75629 0.18002 0.0
H47 H 0.72159 0.78486 0.17859 0.0
H48 H 0.69223 0.74219 0.17334 0.0
H49 H 0.72804 0.74855 0.18129 0.0
C50 C 0.73618 0.90254 0.19062 0.0
N51 N 0.74821 0.88215 0.19435 0.0
N52 N 0.72412 0.84912 0.19321 0.0
C53 C 0.69625 0.84747 0.18851 0.0
C54 C 0.703 0.88122 0.18674 0.0
C55 C 0.757 0.94163 0.19018 0.0
H56 H 0.7721 0.95205 0.19722 0.0
H57 H 0.77555 0.94961 0.1838 0.0
H58 H 0.74011 0.95329 0.18904 0.0
O59 O 0.78917 0.87719 0.21381 0.0
O60 O 0.74595 0.82195 0.21267 0.0
H61 H 0.6518 0.79895 0.1928 0.0
H62 H 0.64407 0.81943 0.18217 0.0
C63 C 0.66358 0.8143 0.18587 0.0
H64 H 0.67012 0.79852 0.18079 0.0
H65 H 0.66515 0.76664 0.21007 0.0
O66 O 0.82569 0.94418 0.19809 0.0
C67 C 0.7693 0.8473 0.21778 0.0
Co68 Co 0.09453 0.87918 0.20183 0.0
Co69 Co 0.17486 0.91112 0.19752 0.0
C70 C 0.13918 0.94726 0.19027 0.0
O71 O 0.1117 0.92329 0.19442 0.0
O72 O 0.16752 0.94635 0.19036 0.0
C73 C 0.03255 0.85722 0.19175 0.0
O74 O 0.05579 0.86949 0.18448 0.0
C75 C 0.24314 0.93831 0.1879 0.0
C76 C 0.26959 0.9188 0.19792 0.0
C77 C 0.27391 0.93757 0.18919 0.0
N78 N 0.22157 0.92085 0.19554 0.0
N79 N 0.23757 0.90942 0.20155 0.0
C80 C 0.23314 0.9528 0.17916 0.0
H81 H 0.205 0.93575 0.17741 0.0
H82 H 0.24891 0.95509 0.17241 0.0
H83 H 0.23756 0.97911 0.18115 0.0
C84 C 0.09241 0.8177 0.19227 0.0
N85 N 0.11011 0.85059 0.19585 0.0
N86 N 0.14323 0.86474 0.19329 0.0
C87 C 0.14741 0.84161 0.1877 0.0
C88 C 0.11537 0.81107 0.18688 0.0
C89 C 0.05366 0.79426 0.19317 0.0
H90 H 0.04388 0.80024 0.20012 0.0
H91 H 0.0407 0.79825 0.18657 0.0
H92 H 0.04653 0.76639 0.19331 0.0
O93 O 0.11259 0.89378 0.21564 0.0
O94 O 0.16927 0.91781 0.21203 0.0
H95 H 0.20058 0.85387 0.18899 0.0
H96 H 0.1781 0.82663 0.17839 0.0
C97 C 0.18121 0.84891 0.183 0.0
H98 H 0.19148 0.87265 0.17826 0.0
H99 H 0.22637 0.89465 0.20802 0.0
O100 O 0.04286 0.85715 0.20067 0.0
C101 C 0.14467 0.91081 0.21827 0.0
Co102 Co 0.1993 0.08803 0.29755 0.0
Co103 Co 0.25732 0.06644 0.29908 0.0
C104 C 0.1882 0.02345 0.30859 0.0
O105 O 0.17893 0.04498 0.30564 0.0
O106 O 0.21843 0.02802 0.30666 0.0
C107 C 0.15318 0.10366 0.3078 0.0
O108 O 0.16141 0.08896 0.31506 0.0
C109 C 0.30794 0.05075 0.30823 0.0
C110 C 0.3479 0.06588 0.29632 0.0
C111 C 0.33998 0.05347 0.30608 0.0
N112 N 0.2978 0.06177 0.30018 0.0
N113 N 0.32163 0.07057 0.29306 0.0
C114 C 0.28571 0.03565 0.3174 0.0
H115 H 0.26143 0.01139 0.31527 0.0
H116 H 0.27789 0.05424 0.32036 0.0
H117 H 0.29887 0.02889 0.32334 0.0
C118 C 0.25681 0.15384 0.30581 0.0
N119 N 0.24418 0.1211 0.30231 0.0
N120 N 0.26787 0.11162 0.30354 0.0
C121 C 0.29612 0.13795 0.30808 0.0
C122 C 0.29 0.16547 0.30964 0.0
C123 C 0.23628 0.17244 0.30628 0.0
H124 H 0.22069 0.16746 0.29933 0.0
H125 H 0.21823 0.16246 0.31279 0.0
H126 H 0.25349 0.20101 0.30724 0.0
O127 O 0.20037 0.0728 0.28353 0.0
O128 O 0.24199 0.05852 0.2849 0.0
H129 H 0.33898 0.13036 0.30429 0.0
H130 H 0.3488 0.16229 0.31403 0.0
C131 C 0.32833 0.13685 0.31096 0.0
H132 H 0.32154 0.11626 0.3167 0.0
H133 H 0.32016 0.08018 0.28603 0.0
O134 O 0.16666 0.10661 0.29914 0.0
C135 C 0.21887 0.06081 0.27975 0.0
Co136 Co 0.89941 0.11088 0.29546 0.0
Co137 Co 0.92669 0.19043 0.29965 0.0
C138 C 0.96309 0.15595 0.30827 0.0
O139 O 0.94032 0.12737 0.30432 0.0
O140 O 0.96179 0.18392 0.3072 0.0
C141 C 0.87182 0.04431 0.30402 0.0
O142 O 0.87531 0.0626 0.31216 0.0
C143 C 0.948 0.25761 0.30965 0.0
C144 C 0.93014 0.28305 0.2987 0.0
C145 C 0.94571 0.2875 0.30802 0.0
N146 N 0.93375 0.23624 0.30173 0.0
N147 N 0.92335 0.2517 0.29519 0.0
C148 C 0.96554 0.25021 0.31816 0.0
H149 H 0.98489 0.24362 0.31511 0.0
H150 H 0.94578 0.22721 0.32244 0.0
H151 H 0.9795 0.2729 0.32325 0.0
C152 C 0.83357 0.10506 0.30301 0.0
N153 N 0.86751 0.12399 0.30038 0.0
N154 N 0.87975 0.15671 0.30309 0.0
C155 C 0.85432 0.15921 0.30799 0.0
C156 C 0.82423 0.1266 0.30806 0.0
C157 C 0.81102 0.06654 0.30134 0.0
H158 H 0.82104 0.05789 0.29499 0.0
H159 H 0.81052 0.05235 0.30827 0.0
H160 H 0.78374 0.05972 0.29966 0.0
O161 O 0.91765 0.13117 0.28209 0.0
O162 O 0.93637 0.18727 0.28524 0.0
H163 H 0.86441 0.21169 0.30684 0.0
H164 H 0.83529 0.18725 0.31695 0.0
C165 C 0.85898 0.19195 0.31276 0.0
H166 H 0.88171 0.20265 0.31792 0.0
H167 H 0.91124 0.24062 0.28837 0.0
O168 O 0.87939 0.05957 0.29552 0.0
C169 C 0.93249 0.16302 0.27927 0.0
Co170 Co 0.89154 0.78618 0.29472 0.0
Co171 Co 0.81188 0.73784 0.29992 0.0
C172 C 0.84698 0.80978 0.30654 0.0
O173 O 0.87378 0.81286 0.30204 0.0
O174 O 0.81884 0.78037 0.30704 0.0
C175 C 0.95359 0.82609 0.30466 0.0
O176 O 0.93036 0.81613 0.31192 0.0
C177 C 0.74261 0.69265 0.30915 0.0
C178 C 0.72227 0.64596 0.29941 0.0
C179 C 0.71463 0.65893 0.30791 0.0
N180 N 0.76602 0.69892 0.30183 0.0
N181 N 0.75353 0.67103 0.29599 0.0
C182 C 0.74649 0.71918 0.31681 0.0
H183 H 0.75611 0.7449 0.31313 0.0
H184 H 0.76605 0.72201 0.32251 0.0
H185 H 0.72128 0.71172 0.32056 0.0
C186 C 0.8961 0.72958 0.30473 0.0
N187 N 0.87708 0.74293 0.30092 0.0
N188 N 0.84468 0.72445 0.30411 0.0
C189 C 0.84237 0.69936 0.31039 0.0
C190 C 0.87506 0.70204 0.31104 0.0
C191 C 0.93397 0.74309 0.30246 0.0
H192 H 0.9407 0.75548 0.29493 0.0
H193 H 0.9504 0.76272 0.30817 0.0
H194 H 0.93994 0.72147 0.30275 0.0
O195 O 0.87292 0.78143 0.28107 0.0
O196 O 0.8167 0.75024 0.28532 0.0
H197 H 0.79057 0.65584 0.31159 0.0
H198 H 0.81676 0.6633 0.32271 0.0
C199 C 0.81067 0.67622 0.31652 0.0
H200 H 0.79964 0.69184 0.3197 0.0
H201 H 0.76678 0.66884 0.2898 0.0
O202 O 0.94316 0.81563 0.29575 0.0
C203 C 0.84057 0.76694 0.2788 0.0
Co204 Co 0.88677 0.78732 0.7934 0.0
Co205 Co 0.91575 0.73785 0.79944 0.0
C206 C 0.94936 0.80838 0.8074 0.0
O207 O 0.92731 0.8125 0.80232 0.0
O208 O 0.9485 0.77914 0.80753 0.0
C209 C 0.85873 0.82552 0.80176 0.0
O210 O 0.86175 0.80999 0.8098 0.0
C211 C 0.93907 0.69314 0.80934 0.0
C212 C 0.91486 0.64644 0.79956 0.0
C213 C 0.9346 0.65988 0.80819 0.0
N214 N 0.92215 0.69878 0.80182 0.0
N215 N 0.90793 0.67085 0.79598 0.0
C216 C 0.96065 0.72006 0.81704 0.0
H217 H 0.97816 0.74522 0.81324 0.0
H218 H 0.94317 0.72422 0.82214 0.0
H219 H 0.977 0.71239 0.82147 0.0
C220 C 0.82191 0.72922 0.8016 0.0
N221 N 0.8554 0.74308 0.79868 0.0
N222 N 0.86826 0.72414 0.80228 0.0
C223 C 0.84371 0.69845 0.80805 0.0
C224 C 0.81351 0.70099 0.80786 0.0
C225 C 0.79812 0.74252 0.79841 0.0
H226 H 0.8072 0.75699 0.79121 0.0
H227 H 0.79764 0.76025 0.8042 0.0
H228 H 0.77099 0.72038 0.79754 0.0
O229 O 0.90595 0.78477 0.78036 0.0
O230 O 0.92861 0.75188 0.78504 0.0
H231 H 0.8498 0.6538 0.80998 0.0
H232 H 0.83124 0.66339 0.82075 0.0
C233 C 0.85073 0.67511 0.81462 0.0
H234 H 0.87726 0.69019 0.81791 0.0
H235 H 0.89309 0.66831 0.78961 0.0
O236 O 0.86646 0.81832 0.79322 0.0
C237 C 0.92392 0.77014 0.77844 0.0
Co238 Co 0.20584 0.10309 0.79926 0.0
Co239 Co 0.2627 0.18224 0.8013 0.0
C240 C 0.19111 0.15528 0.80937 0.0
O241 O 0.18303 0.12435 0.8069 0.0
O242 O 0.22135 0.18109 0.80759 0.0
C243 C 0.16259 0.03863 0.80882 0.0
O244 O 0.17749 0.05765 0.81683 0.0
C245 C 0.30792 0.2486 0.81108 0.0
C246 C 0.35323 0.2742 0.8008 0.0
C247 C 0.3401 0.27852 0.8098 0.0
N248 N 0.30212 0.22751 0.80319 0.0
N249 N 0.32917 0.24297 0.79703 0.0
C250 C 0.28426 0.2387 0.82001 0.0
H251 H 0.27082 0.21001 0.82122 0.0
H252 H 0.29908 0.25226 0.82688 0.0
H253 H 0.26408 0.24619 0.81862 0.0
C254 C 0.26303 0.09489 0.80826 0.0
N255 N 0.24977 0.11458 0.8048 0.0
N256 N 0.27246 0.14777 0.80644 0.0
C257 C 0.3003 0.15011 0.81135 0.0
C258 C 0.29521 0.11674 0.81263 0.0
C259 C 0.24487 0.05584 0.80767 0.0
H260 H 0.22654 0.04623 0.80124 0.0
H261 H 0.23024 0.04453 0.81474 0.0
H262 H 0.26395 0.04665 0.8068 0.0
O263 O 0.21012 0.12014 0.78525 0.0
O264 O 0.25217 0.17569 0.78678 0.0
H265 H 0.35099 0.17905 0.81856 0.0
H266 H 0.3231 0.19804 0.8196 0.0
C267 C 0.33155 0.18363 0.81458 0.0
H268 H 0.34427 0.20005 0.80789 0.0
H269 H 0.33145 0.23197 0.79034 0.0
O270 O 0.17184 0.05245 0.80016 0.0
C271 C 0.2299 0.1503 0.78145 0.0
Co272 Co 0.89807 0.11315 0.79457 0.0
Co273 Co 0.81797 0.08354 0.7989 0.0
C274 C 0.85151 0.04449 0.8056 0.0
O275 O 0.87954 0.0683 0.80164 0.0
O276 O 0.82379 0.04656 0.80559 0.0
C277 C 0.95979 0.13272 0.80456 0.0
O278 O 0.93648 0.1201 0.81181 0.0
C279 C 0.7504 0.05788 0.80881 0.0
C280 C 0.72442 0.0787 0.79909 0.0
C281 C 0.72004 0.05954 0.80775 0.0
N282 N 0.77179 0.07517 0.80112 0.0
N283 N 0.75606 0.0874 0.7953 0.0
C284 C 0.76028 0.04268 0.8174 0.0
H285 H 0.78862 0.05906 0.81902 0.0
H286 H 0.7451 0.04074 0.82425 0.0
H287 H 0.75496 0.01613 0.81531 0.0
C288 C 0.90252 0.17529 0.8043 0.0
N289 N 0.88388 0.1424 0.80078 0.0
N290 N 0.85089 0.12928 0.80335 0.0
C291 C 0.84772 0.15312 0.8089 0.0
C292 C 0.8803 0.18305 0.80964 0.0
C293 C 0.94137 0.19777 0.80328 0.0
H294 H 0.95039 0.19163 0.7962 0.0
H295 H 0.95421 0.19285 0.80973 0.0
H296 H 0.94948 0.22591 0.8033 0.0
O297 O 0.87969 0.10009 0.78076 0.0
O298 O 0.8231 0.07778 0.78428 0.0
H299 H 0.79544 0.14346 0.80747 0.0
H300 H 0.81831 0.16969 0.8182 0.0
C301 C 0.81428 0.14723 0.81351 0.0
H302 H 0.80281 0.12319 0.81816 0.0
H303 H 0.7672 0.10221 0.78883 0.0
O304 O 0.94965 0.13381 0.79569 0.0
C305 C 0.84765 0.08439 0.77805 0.0
Co306 Co 0.78465 0.89517 0.70195 0.0
Co307 Co 0.73642 0.92676 0.69676 0.0
C308 C 0.80786 0.96123 0.6893 0.0
O309 O 0.81101 0.93771 0.69387 0.0
O310 O 0.77891 0.96099 0.68927 0.0
C311 C 0.82293 0.8706 0.6922 0.0
O312 O 0.81128 0.88169 0.6848 0.0
C313 C 0.69361 0.95154 0.68671 0.0
C314 C 0.64781 0.93151 0.69681 0.0
C315 C 0.66143 0.9495 0.68792 0.0
N316 N 0.69881 0.93549 0.69454 0.0
N317 N 0.67146 0.92378 0.70059 0.0
C318 C 0.71773 0.9658 0.67788 0.0
H319 H 0.72988 0.94952 0.67636 0.0
H320 H 0.70365 0.96661 0.67108 0.0
H321 H 0.73892 0.99271 0.67964 0.0
C322 C 0.72467 0.83205 0.69349 0.0
N323 N 0.74018 0.86571 0.6964 0.0
N324 N 0.72151 0.87955 0.69328 0.0
C325 C 0.69414 0.85538 0.68792 0.0
C326 C 0.69523 0.82448 0.6879 0.0
C327 C 0.73962 0.80858 0.69518 0.0
H328 H 0.75612 0.81658 0.70202 0.0
H329 H 0.75563 0.81001 0.68858 0.0
H330 H 0.71862 0.78102 0.69606 0.0
O331 O 0.78192 0.91227 0.71542 0.0
O332 O 0.74932 0.93591 0.71125 0.0
H333 H 0.64964 0.8393 0.67803 0.0
H334 H 0.68203 0.88543 0.67777 0.0
C335 C 0.66811 0.86203 0.68263 0.0
H336 H 0.65286 0.8673 0.68827 0.0
H337 H 0.6686 0.90981 0.70718 0.0
O338 O 0.81394 0.87261 0.70116 0.0
C339 C 0.76708 0.92984 0.71769 0.0
Co340 Co 0.09185 0.89033 0.69801 0.0
Co341 Co 0.06944 0.81064 0.6968 0.0
C342 C 0.02408 0.83648 0.68858 0.0
O343 O 0.04664 0.86759 0.69096 0.0
O344 O 0.02903 0.81097 0.69035 0.0
C345 C 0.10621 0.95153 0.68773 0.0
O346 O 0.08972 0.92819 0.68068 0.0
C347 C 0.05229 0.74446 0.68744 0.0
C348 C 0.06697 0.71861 0.69915 0.0
C349 C 0.05446 0.71475 0.68942 0.0
N350 N 0.06374 0.76524 0.69554 0.0
N351 N 0.07224 0.7496 0.70255 0.0
C352 C 0.03754 0.75246 0.67834 0.0
H353 H 0.01386 0.7535 0.68057 0.0
H354 H 0.05675 0.77865 0.67538 0.0
H355 H 0.02996 0.73249 0.67238 0.0
C356 C 0.15552 0.89728 0.68849 0.0
N357 N 0.12322 0.87767 0.69237 0.0
N358 N 0.11348 0.84437 0.69138 0.0
C359 C 0.13925 0.84181 0.68669 0.0
C360 C 0.16661 0.8752 0.68472 0.0
C361 C 0.17444 0.93638 0.68788 0.0
H362 H 0.1714 0.94742 0.69504 0.0
H363 H 0.16297 0.94435 0.68174 0.0
H364 H 0.20265 0.94748 0.68627 0.0
O365 O 0.08077 0.87539 0.71231 0.0
O366 O 0.06622 0.8194 0.71118 0.0
H367 H 0.13194 0.79218 0.69133 0.0
H368 H 0.16396 0.81285 0.68151 0.0
C369 C 0.13843 0.80822 0.68442 0.0
H370 H 0.11798 0.79344 0.67872 0.0
H371 H 0.0821 0.76032 0.7096 0.0
O372 O 0.1107 0.94144 0.69628 0.0
C373 C 0.0702 0.84546 0.71633 0.0
Co374 Co 0.10801 0.20481 0.70196 0.0
Co375 Co 0.18755 0.25959 0.69865 0.0
C376 C 0.15566 0.19135 0.68857 0.0
O377 O 0.12655 0.18377 0.69254 0.0
O378 O 0.18303 0.22066 0.69015 0.0
C379 C 0.0428 0.16738 0.69255 0.0
O380 O 0.06185 0.18547 0.68484 0.0
C381 C 0.25436 0.30893 0.68913 0.0
C382 C 0.27981 0.34893 0.70098 0.0
C383 C 0.28416 0.34063 0.69126 0.0
N384 N 0.23313 0.29936 0.69717 0.0
N385 N 0.24856 0.32326 0.70424 0.0
C386 C 0.24698 0.28646 0.68001 0.0
H387 H 0.24356 0.26081 0.68232 0.0
H388 H 0.22209 0.28156 0.67653 0.0
H389 H 0.26841 0.29809 0.67443 0.0
C390 C 0.10091 0.2655 0.6958 0.0
N391 N 0.12036 0.25069 0.69805 0.0
N392 N 0.1532 0.27247 0.69569 0.0
C393 C 0.15529 0.30115 0.69141 0.0
C394 C 0.12223 0.29766 0.69133 0.0
C395 C 0.06215 0.24832 0.69726 0.0
H396 H 0.05324 0.22769 0.70307 0.0
H397 H 0.04875 0.23687 0.69004 0.0
H398 H 0.05467 0.26775 0.69962 0.0
O399 O 0.1272 0.20399 0.71531 0.0
O400 O 0.18331 0.243 0.71272 0.0
H401 H 0.20768 0.34324 0.6932 0.0
H402 H 0.18326 0.35103 0.68373 0.0
C403 C 0.18806 0.33087 0.68714 0.0
H404 H 0.19896 0.32082 0.68139 0.0
H405 H 0.23758 0.32219 0.71126 0.0
O406 O 0.05693 0.17232 0.70118 0.0
C407 C 0.15883 0.22086 0.71835 0.0
Co408 Co 0.75683 0.53214 0.53562 0.0
Co409 Co 0.73729 0.58907 0.52959 0.0
C410 C 0.69635 0.51873 0.52166 0.0
O411 O 0.71589 0.51056 0.52659 0.0
O412 O 0.7012 0.54962 0.52177 0.0
C413 C 0.77902 0.48835 0.52755 0.0
O414 O 0.7779 0.50451 0.51939 0.0
C415 C 0.71849 0.63688 0.51975 0.0
C416 C 0.7487 0.68537 0.52856 0.0
C417 C 0.72576 0.67117 0.52057 0.0
N418 N 0.73606 0.63092 0.52698 0.0
N419 N 0.75408 0.65999 0.53223 0.0
C420 C 0.69769 0.61102 0.51173 0.0
H421 H 0.71191 0.59773 0.50909 0.0
H422 H 0.69291 0.62377 0.50522 0.0
H423 H 0.67224 0.59092 0.5149 0.0
C424 C 0.82541 0.58564 0.52794 0.0
N425 N 0.79195 0.57474 0.53037 0.0
N426 N 0.78303 0.59698 0.52683 0.0
C427 C 0.81016 0.62195 0.52157 0.0
C428 C 0.83797 0.61554 0.52209 0.0
C429 C 0.84547 0.56862 0.53155 0.0
H430 H 0.83424 0.5545 0.5387 0.0
H431 H 0.84418 0.54966 0.52588 0.0
H432 H 0.87341 0.58851 0.53268 0.0
O433 O 0.74013 0.53846 0.54874 0.0
O434 O 0.72303 0.5759 0.54388 0.0
H435 H 0.81417 0.67196 0.52001 0.0
H436 H 0.82671 0.65748 0.50892 0.0
C437 C 0.80798 0.64891 0.51528 0.0
H438 H 0.78115 0.63822 0.51227 0.0
H439 H 0.77028 0.66257 0.53826 0.0
O440 O 0.77213 0.497 0.536 0.0
C441 C 0.72535 0.55637 0.55053 0.0
Co442 Co 0.45 0.22726 0.53627 0.0
Co443 Co 0.40099 0.14748 0.53189 0.0
C444 C 0.47546 0.17837 0.52846 0.0
O445 O 0.47818 0.20649 0.53187 0.0
O446 O 0.44557 0.15144 0.52706 0.0
C447 C 0.4954 0.28622 0.52592 0.0
O448 O 0.48735 0.26118 0.51933 0.0
C449 C 0.35795 0.07902 0.52241 0.0
C450 C 0.30961 0.05733 0.53151 0.0
C451 C 0.32428 0.05071 0.52321 0.0
N452 N 0.36262 0.10171 0.52978 0.0
N453 N 0.33381 0.08842 0.53526 0.0
C454 C 0.38596 0.084 0.51513 0.0
H455 H 0.40969 0.08907 0.51936 0.0
H456 H 0.39314 0.10725 0.51038 0.0
H457 H 0.37781 0.06069 0.51033 0.0
C458 C 0.39879 0.23241 0.52339 0.0
N459 N 0.4103 0.2133 0.5282 0.0
N460 N 0.39083 0.18028 0.52568 0.0
C461 C 0.36658 0.17746 0.51896 0.0
C462 C 0.37112 0.21055 0.51724 0.0
C463 C 0.41305 0.27077 0.52496 0.0
H464 H 0.42369 0.2784 0.53266 0.0
H465 H 0.4343 0.28568 0.51947 0.0
H466 H 0.39236 0.2777 0.52376 0.0
O467 O 0.43803 0.2115 0.55026 0.0
O468 O 0.40717 0.15467 0.54674 0.0
H469 H 0.3218 0.1262 0.51939 0.0
H470 H 0.32718 0.14879 0.50764 0.0
C471 C 0.34116 0.14419 0.51383 0.0
H472 H 0.35526 0.13142 0.51075 0.0
H473 H 0.33036 0.10106 0.5414 0.0
O474 O 0.48161 0.27823 0.53461 0.0
C475 C 0.42163 0.1796 0.55308 0.0
Co476 Co 0.77221 0.21382 0.53919 0.0
Co477 Co 0.84873 0.24796 0.53075 0.0
C478 C 0.80745 0.27946 0.52566 0.0
O479 O 0.78415 0.25606 0.53126 0.0
O480 O 0.83601 0.27989 0.52388 0.0
C481 C 0.70368 0.18506 0.53233 0.0
O482 O 0.72055 0.19047 0.52379 0.0
C483 C 0.9146 0.27416 0.51935 0.0
C484 C 0.94155 0.25276 0.52843 0.0
C485 C 0.94473 0.27171 0.51982 0.0
N486 N 0.8945 0.2573 0.52732 0.0
N487 N 0.91089 0.24482 0.53274 0.0
C488 C 0.90372 0.28975 0.5111 0.0
H489 H 0.87501 0.27418 0.50998 0.0
H490 H 0.91725 0.29093 0.50397 0.0
H491 H 0.91044 0.31665 0.51328 0.0
C492 C 0.7672 0.15136 0.52934 0.0
N493 N 0.78546 0.18499 0.5323 0.0
N494 N 0.81644 0.20007 0.528 0.0
C495 C 0.81833 0.17683 0.52185 0.0
C496 C 0.78717 0.14521 0.52248 0.0
C497 C 0.73012 0.12647 0.53227 0.0
H498 H 0.72322 0.13521 0.53927 0.0
H499 H 0.7124 0.12472 0.52611 0.0
H500 H 0.72619 0.09992 0.5335 0.0
O501 O 0.79725 0.23107 0.55205 0.0
O502 O 0.85038 0.25951 0.54526 0.0
H503 H 0.87179 0.19085 0.51991 0.0
H504 H 0.84361 0.16318 0.51013 0.0
C505 C 0.84888 0.1852 0.5152 0.0
H506 H 0.85556 0.20886 0.5107 0.0
H507 H 0.90073 0.23018 0.53929 0.0
O508 O 0.72068 0.19166 0.54053 0.0
C509 C 0.83009 0.25197 0.55281 0.0
Co510 Co 0.88675 0.44267 0.62777 0.0
Co511 Co 0.92786 0.40704 0.63617 0.0
C512 C 0.85666 0.37938 0.64223 0.0
O513 O 0.85699 0.40223 0.63635 0.0
O514 O 0.88427 0.37778 0.6438 0.0
C515 C 0.84968 0.47367 0.63506 0.0
O516 O 0.86352 0.47001 0.64338 0.0
C517 C 0.97015 0.38231 0.64716 0.0
C518 C 0.01381 0.39849 0.63642 0.0
C519 C 0.00199 0.38352 0.64578 0.0
N520 N 0.96399 0.39665 0.63906 0.0
N521 N 0.99006 0.40595 0.63265 0.0
C522 C 0.94519 0.36634 0.65575 0.0
H523 H 0.91788 0.35456 0.65307 0.0
H524 H 0.94985 0.38694 0.6613 0.0
H525 H 0.94866 0.34583 0.6595 0.0
C526 C 0.94695 0.50524 0.63673 0.0
N527 N 0.93018 0.47126 0.63406 0.0
N528 N 0.94567 0.4557 0.63832 0.0
C529 C 0.97204 0.47905 0.64411 0.0
C530 C 0.97363 0.51118 0.64334 0.0
C531 C 0.93553 0.53076 0.63383 0.0
H532 H 0.91838 0.52148 0.62713 0.0
H533 H 0.92139 0.53429 0.6402 0.0
H534 H 0.95859 0.55662 0.63213 0.0
O535 O 0.8917 0.42295 0.61494 0.0
O536 O 0.91524 0.39367 0.62188 0.0
H537 H 0.0093 0.46207 0.64597 0.0
H538 H 0.01266 0.49297 0.6553 0.0
C539 C 0.99405 0.4703 0.65071 0.0
H540 H 0.97688 0.44818 0.65569 0.0
H541 H 0.99191 0.41803 0.62576 0.0
O542 O 0.8579 0.46553 0.62672 0.0
C543 C 0.90228 0.40091 0.61433 0.0
Co544 Co 0.55727 0.43942 0.62949 0.0
Co545 Co 0.59181 0.5185 0.63553 0.0
C546 C 0.62937 0.48256 0.63981 0.0
O547 O 0.60434 0.45677 0.63533 0.0
O548 O 0.62812 0.51026 0.64157 0.0
C549 C 0.53678 0.37867 0.6397 0.0
O550 O 0.55148 0.40301 0.64661 0.0
C551 C 0.61604 0.58716 0.64524 0.0
C552 C 0.59627 0.61122 0.63441 0.0
C553 C 0.61293 0.61657 0.64358 0.0
N554 N 0.60108 0.5651 0.63749 0.0
N555 N 0.58969 0.57984 0.63101 0.0
C556 C 0.63427 0.58078 0.65376 0.0
H557 H 0.64705 0.56613 0.65112 0.0
H558 H 0.61495 0.56493 0.65962 0.0
H559 H 0.65432 0.60581 0.65716 0.0
C560 C 0.49772 0.43664 0.64039 0.0
N561 N 0.53064 0.45445 0.63682 0.0
N562 N 0.54579 0.48679 0.64013 0.0
C563 C 0.52317 0.49028 0.64618 0.0
C564 C 0.49202 0.45862 0.64653 0.0
C565 C 0.47304 0.39859 0.63853 0.0
H566 H 0.47899 0.39054 0.63125 0.0
H567 H 0.47569 0.38306 0.64466 0.0
H568 H 0.44554 0.39274 0.63844 0.0
O569 O 0.56674 0.45814 0.61564 0.0
O570 O 0.59632 0.51337 0.62087 0.0
H571 H 0.50868 0.51973 0.65616 0.0
H572 H 0.55428 0.53163 0.65636 0.0
C573 C 0.53107 0.52323 0.65151 0.0
H574 H 0.53718 0.54411 0.64592 0.0
H575 H 0.57659 0.56803 0.62436 0.0
O576 O 0.53507 0.38779 0.63074 0.0
C577 C 0.5864 0.49071 0.61386 0.0
Co578 Co 0.55162 0.13551 0.63137 0.0
Co579 Co 0.47468 0.07527 0.63536 0.0
C580 C 0.49981 0.14467 0.64415 0.0
O581 O 0.52955 0.15464 0.64021 0.0
O582 O 0.47453 0.11363 0.64304 0.0
C583 C 0.61571 0.17952 0.64046 0.0
O584 O 0.59724 0.16248 0.64837 0.0
C585 C 0.40795 0.02382 0.64455 0.0
C586 C 0.39258 0.97724 0.63508 0.0
C587 C 0.38269 0.98887 0.64343 0.0
N588 N 0.43206 0.03223 0.63731 0.0
N589 N 0.42261 0.00435 0.63164 0.0
C590 C 0.40843 0.04957 0.65196 0.0
H591 H 0.41137 0.07277 0.64788 0.0
H592 H 0.43131 0.05836 0.65701 0.0
H593 H 0.38408 0.03857 0.65646 0.0
C594 C 0.56743 0.08261 0.6392 0.0
N595 N 0.54453 0.09248 0.63622 0.0
N596 N 0.51288 0.06885 0.63905 0.0
C597 C 0.51489 0.04396 0.64442 0.0
C598 C 0.54967 0.05196 0.64472 0.0
C599 C 0.60538 0.10123 0.63639 0.0
H600 H 0.60964 0.11626 0.62934 0.0
H601 H 0.62117 0.11953 0.64244 0.0
H602 H 0.6146 0.08218 0.63538 0.0
O603 O 0.53092 0.13143 0.618 0.0
O604 O 0.47645 0.08886 0.62096 0.0
H605 H 0.46898 0.99355 0.64491 0.0
H606 H 0.49381 0.00577 0.65642 0.0
C607 C 0.4848 0.01557 0.65009 0.0
H608 H 0.46792 0.02546 0.65307 0.0
H609 H 0.43697 0.00372 0.62549 0.0
O610 O 0.60167 0.17156 0.6318 0.0
C611 C 0.49946 0.1117 0.61512 0.0
Co612 Co 0.56597 0.13077 0.13184 0.0
Co613 Co 0.58584 0.07275 0.13598 0.0
C614 C 0.62801 0.14303 0.14457 0.0
O615 O 0.60738 0.15194 0.14063 0.0
O616 O 0.62334 0.11235 0.14351 0.0
C617 C 0.54418 0.17553 0.14001 0.0
O618 O 0.54614 0.1608 0.14837 0.0
C619 C 0.60532 0.02426 0.14518 0.0
C620 C 0.57397 0.97627 0.13626 0.0
C621 C 0.5968 0.98955 0.1443 0.0
N622 N 0.58769 0.03093 0.13812 0.0
N623 N 0.56921 0.00223 0.13277 0.0
C624 C 0.63127 0.05141 0.15216 0.0
H625 H 0.64977 0.07475 0.14777 0.0
H626 H 0.61733 0.05947 0.15751 0.0
H627 H 0.64665 0.04198 0.15635 0.0
C628 C 0.49853 0.07646 0.1401 0.0
N629 N 0.5314 0.08747 0.13698 0.0
N630 N 0.54072 0.0647 0.13973 0.0
C631 C 0.51459 0.03924 0.14516 0.0
C632 C 0.48693 0.04589 0.14558 0.0
C633 C 0.47801 0.09403 0.1375 0.0
H634 H 0.48769 0.10882 0.13037 0.0
H635 H 0.48072 0.11241 0.14355 0.0
H636 H 0.44981 0.07438 0.13675 0.0
O637 O 0.5825 0.1264 0.11849 0.0
O638 O 0.59664 0.08548 0.12153 0.0
H639 H 0.51189 0.98961 0.14571 0.0
H640 H 0.49957 0.00171 0.15729 0.0
C641 C 0.51785 0.01171 0.15083 0.0
H642 H 0.54494 0.02252 0.15364 0.0
H643 H 0.55292 0.00023 0.12682 0.0
O644 O 0.5503 0.16559 0.13167 0.0
C645 C 0.59506 0.10739 0.11562 0.0
Co646 Co 0.87325 0.43307 0.12855 0.0
Co647 Co 0.92664 0.51286 0.13192 0.0
C648 C 0.85387 0.48465 0.13773 0.0
O649 O 0.84827 0.45544 0.13431 0.0
O650 O 0.88462 0.51099 0.13795 0.0
C651 C 0.82895 0.37488 0.13952 0.0
O652 O 0.83932 0.40017 0.14615 0.0
C653 C 0.97246 0.58093 0.14109 0.0
C654 C 0.01967 0.60176 0.13153 0.0
C655 C 0.0063 0.60873 0.14007 0.0
N656 N 0.9664 0.55816 0.13363 0.0
N657 N 0.99454 0.57091 0.12787 0.0
C658 C 0.94553 0.5765 0.1487 0.0
H659 H 0.9223 0.57403 0.14474 0.0
H660 H 0.93693 0.55199 0.15299 0.0
H661 H 0.95522 0.59898 0.15391 0.0
C662 C 0.92664 0.42633 0.13986 0.0
N663 N 0.91521 0.44607 0.1354 0.0
N664 N 0.93647 0.47912 0.13758 0.0
C665 C 0.96175 0.48134 0.14377 0.0
C666 C 0.9561 0.44783 0.14547 0.0
C667 C 0.91026 0.38759 0.13857 0.0
H668 H 0.89759 0.37953 0.13111 0.0
H669 H 0.89026 0.37406 0.14449 0.0
H670 H 0.93023 0.37943 0.13932 0.0
O671 O 0.8809 0.44822 0.11441 0.0
O672 O 0.91625 0.50506 0.11725 0.0
H673 H 0.00755 0.53177 0.14283 0.0
H674 H 0.00343 0.50947 0.15456 0.0
C675 C 0.98885 0.51445 0.14862 0.0
H676 H 0.97611 0.52815 0.152 0.0
H677 H 0.99691 0.55808 0.1216 0.0
O678 O 0.84075 0.38235 0.13059 0.0
C679 C 0.89825 0.4797 0.11126 0.0
Co680 Co 0.56485 0.45638 0.12406 0.0
Co681 Co 0.48654 0.42342 0.13074 0.0
C682 C 0.52565 0.38988 0.13686 0.0
O683 O 0.55114 0.41375 0.13197 0.0
O684 O 0.49678 0.38966 0.13762 0.0
C685 C 0.63107 0.48384 0.13216 0.0
O686 O 0.6119 0.47707 0.1403 0.0
C687 C 0.4187 0.39512 0.14105 0.0
C688 C 0.39545 0.42248 0.13302 0.0
C689 C 0.38953 0.39924 0.14076 0.0
N690 N 0.44081 0.41496 0.13377 0.0
N691 N 0.42668 0.43108 0.12896 0.0
C692 C 0.42705 0.37539 0.14866 0.0
H693 H 0.45503 0.39069 0.15079 0.0
H694 H 0.41079 0.36974 0.15551 0.0
H695 H 0.42228 0.35038 0.1453 0.0
C696 C 0.56959 0.51776 0.1342 0.0
N697 N 0.55078 0.48514 0.13054 0.0
N698 N 0.51911 0.47028 0.13436 0.0
C699 C 0.51726 0.49249 0.14095 0.0
C700 C 0.54935 0.5233 0.14111 0.0
C701 C 0.60648 0.54328 0.13122 0.0
H702 H 0.61226 0.5368 0.12367 0.0
H703 H 0.62496 0.54262 0.13672 0.0
H704 H 0.61063 0.57024 0.13119 0.0
O705 O 0.54269 0.4398 0.11091 0.0
O706 O 0.48738 0.41429 0.11606 0.0
H707 H 0.46592 0.48379 0.14381 0.0
H708 H 0.49465 0.50011 0.15452 0.0
C709 C 0.48709 0.48248 0.14792 0.0
H710 H 0.47678 0.45526 0.15056 0.0
H711 H 0.43876 0.44858 0.12305 0.0
O712 O 0.61639 0.47856 0.12361 0.0
C713 C 0.51003 0.42123 0.10916 0.0
Co714 Co 0.45438 0.23188 0.03294 0.0
Co715 Co 0.40182 0.25968 0.02928 0.0
C716 C 0.47296 0.29717 0.02084 0.0
O717 O 0.47899 0.27429 0.02463 0.0
O718 O 0.44349 0.29547 0.0219 0.0
C719 C 0.49698 0.21005 0.02375 0.0
O720 O 0.48817 0.22266 0.01606 0.0
C721 C 0.35516 0.27991 0.01931 0.0
C722 C 0.31325 0.2642 0.03063 0.0
C723 C 0.32315 0.27783 0.02105 0.0
N724 N 0.36332 0.26726 0.02741 0.0
N725 N 0.33835 0.25824 0.03418 0.0
C726 C 0.3789 0.29558 0.01044 0.0
H727 H 0.40517 0.31569 0.01309 0.0
H728 H 0.3819 0.27508 0.00652 0.0
H729 H 0.36926 0.30818 0.00513 0.0
C730 C 0.39525 0.16778 0.02438 0.0
N731 N 0.40963 0.20103 0.02763 0.0
N732 N 0.3886 0.21319 0.02543 0.0
C733 C 0.36054 0.1882 0.02048 0.0
C734 C 0.36387 0.1587 0.01966 0.0
C735 C 0.41275 0.14624 0.02496 0.0
H736 H 0.42817 0.15214 0.03198 0.0
H737 H 0.43052 0.15247 0.01844 0.0
H738 H 0.39345 0.1179 0.02474 0.0
O739 O 0.45186 0.24865 0.0466 0.0
O740 O 0.41458 0.26775 0.04365 0.0
H741 H 0.31095 0.16827 0.01276 0.0
H742 H 0.34195 0.2141 0.01083 0.0
C743 C 0.33136 0.19256 0.01639 0.0
H744 H 0.31914 0.19945 0.02258 0.0
H745 H 0.33815 0.24739 0.04116 0.0
O746 O 0.48473 0.21032 0.03239 0.0
C747 C 0.43475 0.2633 0.04955 0.0
Co748 Co 0.76137 0.21876 0.03483 0.0
Co749 Co 0.73676 0.13868 0.03267 0.0
C750 C 0.69382 0.1669 0.0245 0.0
O751 O 0.71666 0.19713 0.0275 0.0
O752 O 0.69754 0.14041 0.02586 0.0
C753 C 0.77923 0.27908 0.02402 0.0
O754 O 0.76525 0.25502 0.01701 0.0
C755 C 0.71765 0.07075 0.02372 0.0
C756 C 0.7369 0.04791 0.0351 0.0
C757 C 0.72134 0.04188 0.02573 0.0
N758 N 0.73114 0.09311 0.03146 0.0
N759 N 0.74235 0.0792 0.03827 0.0
C760 C 0.69968 0.0764 0.01498 0.0
H761 H 0.67851 0.08072 0.0178 0.0
H762 H 0.71853 0.1003 0.01085 0.0
H763 H 0.68787 0.05373 0.00981 0.0
C764 C 0.82549 0.22516 0.02595 0.0
N765 N 0.7926 0.20567 0.02941 0.0
N766 N 0.78163 0.17245 0.02767 0.0
C767 C 0.80698 0.16995 0.02269 0.0
C768 C 0.83556 0.20325 0.0215 0.0
C769 C 0.84615 0.26428 0.02632 0.0
H770 H 0.83989 0.27392 0.03325 0.0
H771 H 0.83955 0.27503 0.01968 0.0
H772 H 0.87466 0.27404 0.02613 0.0
O773 O 0.74927 0.20326 0.04896 0.0
O774 O 0.73207 0.14678 0.04711 0.0
H775 H 0.79965 0.11914 0.02563 0.0
H776 H 0.82801 0.14106 0.01511 0.0
C777 C 0.80402 0.13647 0.01911 0.0
H778 H 0.78126 0.12303 0.01401 0.0
H779 H 0.75425 0.09136 0.04501 0.0
O780 O 0.78092 0.26985 0.03297 0.0
C781 C 0.73687 0.17252 0.05258 0.0
Co782 Co 0.7776 0.53237 0.03169 0.0
Co783 Co 0.85727 0.58822 0.02864 0.0
C784 C 0.82771 0.5179 0.01986 0.0
O785 O 0.798 0.51011 0.02343 0.0
O786 O 0.85435 0.54801 0.02114 0.0
C787 C 0.71463 0.48813 0.02202 0.0
O788 O 0.73674 0.49696 0.0145 0.0
C789 C 0.92434 0.63716 0.01918 0.0
C790 C 0.94782 0.67945 0.03047 0.0
C791 C 0.95324 0.66982 0.02104 0.0
N792 N 0.90252 0.62836 0.02707 0.0
N793 N 0.91682 0.6536 0.03382 0.0
C794 C 0.91826 0.61336 0.01046 0.0
H795 H 0.91367 0.58781 0.01329 0.0
H796 H 0.8944 0.60866 0.00636 0.0
H797 H 0.94084 0.62386 0.00526 0.0
C798 C 0.7695 0.59005 0.02348 0.0
N799 N 0.78961 0.57692 0.02664 0.0
N800 N 0.82257 0.59938 0.02462 0.0
C801 C 0.82431 0.62715 0.01982 0.0
C802 C 0.79077 0.62216 0.01898 0.0
C803 C 0.73036 0.5708 0.02397 0.0
H804 H 0.72131 0.55525 0.03098 0.0
H805 H 0.71977 0.55294 0.01744 0.0
H806 H 0.71983 0.58889 0.02369 0.0
O807 O 0.79592 0.53465 0.04545 0.0
O808 O 0.85196 0.57423 0.04297 0.0
H809 H 0.87538 0.67077 0.02232 0.0
H810 H 0.85226 0.67697 0.01211 0.0
C811 C 0.85732 0.65764 0.01596 0.0
H812 H 0.87022 0.64826 0.01067 0.0
H813 H 0.90515 0.65338 0.04065 0.0
O814 O 0.72618 0.50059 0.0307 0.0
C815 C 0.82729 0.55265 0.04864 0.0
Co816 Co 0.43261 0.86933 0.86714 0.0
Co817 Co 0.4133 0.92809 0.86388 0.0
C818 C 0.36767 0.85722 0.85601 0.0
O819 O 0.38894 0.84804 0.85928 0.0
O820 O 0.3733 0.8882 0.85717 0.0
C821 C 0.45283 0.82563 0.85772 0.0
O822 O 0.44989 0.84168 0.84979 0.0
C823 C 0.39414 0.97677 0.85482 0.0
C824 C 0.42445 0.0243 0.86401 0.0
C825 C 0.40224 0.0113 0.85583 0.0
N826 N 0.41139 0.96991 0.86195 0.0
N827 N 0.42927 0.99833 0.86747 0.0
C828 C 0.36897 0.94991 0.84763 0.0
H829 H 0.34899 0.92714 0.85192 0.0
H830 H 0.38317 0.94069 0.84277 0.0
H831 H 0.35522 0.95997 0.84293 0.0
C832 C 0.49877 0.92288 0.85797 0.0
N833 N 0.46646 0.9122 0.86153 0.0
N834 N 0.4571 0.93522 0.85911 0.0
C835 C 0.48257 0.9605 0.85346 0.0
C836 C 0.50984 0.95344 0.85252 0.0
C837 C 0.51967 0.90546 0.86026 0.0
H838 H 0.51056 0.89043 0.86737 0.0
H839 H 0.5168 0.88738 0.8541 0.0
H840 H 0.54786 0.92525 0.86091 0.0
O841 O 0.41968 0.87475 0.88091 0.0
O842 O 0.40639 0.91663 0.87847 0.0
H843 H 0.48478 0.00994 0.85363 0.0
H844 H 0.49735 -0.00038 0.84178 0.0
C845 C 0.47911 0.98864 0.84822 0.0
H846 H 0.452 0.97796 0.84545 0.0
H847 H 0.44518 0.00013 0.8735 0.0
O848 O 0.44768 0.83414 0.86642 0.0
C849 C 0.40872 0.89469 0.8842 0.0
Co850 Co 0.1176 0.56597 0.8698 0.0
Co851 Co 0.07104 0.48738 0.86345 0.0
C852 C 0.14413 0.52234 0.85862 0.0
O853 O 0.14595 0.54813 0.86338 0.0
O854 O 0.11475 0.49507 0.85699 0.0
C855 C 0.15936 0.62709 0.85993 0.0
O856 O 0.14827 0.60332 0.85282 0.0
C857 C 0.02691 0.4198 0.85335 0.0
C858 C 0.98211 0.39491 0.86384 0.0
C859 C 0.99433 0.39023 0.85473 0.0
N860 N 0.0332 0.4413 0.86119 0.0
N861 N 0.00648 0.42612 0.86747 0.0
C862 C 0.05258 0.42685 0.84507 0.0
H863 H 0.0791 0.4371 0.84826 0.0
H864 H 0.0533 0.44702 0.83995 0.0
H865 H 0.0458 0.40285 0.84073 0.0
C866 C 0.06133 0.57115 0.85936 0.0
N867 N 0.07576 0.55243 0.86272 0.0
N868 N 0.05761 0.52023 0.85934 0.0
C869 C 0.03151 0.5177 0.85347 0.0
C870 C 0.03303 0.54987 0.85331 0.0
C871 C 0.07607 0.60939 0.86129 0.0
H872 H 0.09042 0.61691 0.86851 0.0
H873 H 0.09427 0.62452 0.85512 0.0
H874 H 0.05517 0.61631 0.86151 0.0
O875 O 0.10887 0.54605 0.88353 0.0
O876 O 0.0814 0.49105 0.87806 0.0
H877 H 0.98715 0.48942 0.84353 0.0
H878 H 0.0196 0.47577 0.8433 0.0
C879 C 0.00556 0.48511 0.84816 0.0
H880 H 0.99028 0.46448 0.85377 0.0
H881 H 0.00461 0.43742 0.87415 0.0
O882 O 0.14845 0.61753 0.86887 0.0
C883 C 0.09521 0.51328 0.88513 0.0
Co884 Co 0.43644 0.55346 0.87226 0.0
Co885 Co 0.51448 0.58281 0.86558 0.0
C886 C 0.47631 0.61612 0.85822 0.0
O887 O 0.4506 0.59372 0.86337 0.0
O888 O 0.50501 0.61587 0.85794 0.0
C889 C 0.36985 0.52601 0.86429 0.0
O890 O 0.38809 0.52902 0.85618 0.0
C891 C 0.58073 0.60717 0.85471 0.0
C892 C 0.60479 0.58174 0.86331 0.0
C893 C 0.60976 0.60283 0.85507 0.0
N894 N 0.55962 0.58956 0.86243 0.0
N895 N 0.57422 0.57456 0.86757 0.0
C896 C 0.57145 0.62484 0.84666 0.0
H897 H 0.54328 0.60888 0.8448 0.0
H898 H 0.58698 0.62882 0.83974 0.0
H899 H 0.57638 0.65057 0.84947 0.0
C900 C 0.42934 0.48887 0.86378 0.0
N901 N 0.44908 0.52233 0.86668 0.0
N902 N 0.48054 0.53535 0.86281 0.0
C903 C 0.4813 0.51093 0.85689 0.0
C904 C 0.44872 0.48067 0.85727 0.0
C905 C 0.39252 0.46502 0.86718 0.0
H906 H 0.38774 0.47391 0.8745 0.0
H907 H 0.37385 0.46478 0.86158 0.0
H908 H 0.38758 0.43787 0.8679 0.0
O909 O 0.4598 0.57307 0.88511 0.0
O910 O 0.51502 0.59541 0.88009 0.0
H911 H 0.5318 0.51697 0.85438 0.0
H912 H 0.50263 0.49884 0.84381 0.0
C913 C 0.51099 0.51812 0.85001 0.0
H914 H 0.5221 0.54469 0.84678 0.0
H915 H 0.56292 0.55879 0.87386 0.0
O916 O 0.38506 0.53326 0.8728 0.0
C917 C 0.49256 0.59084 0.88684 0.0
Co918 Co 0.54655 0.77115 0.96377 0.0
Co919 Co 0.59391 0.73808 0.96845 0.0
C920 C 0.51993 0.69942 0.97362 0.0
O921 O 0.5178 0.72466 0.9698 0.0
O922 O 0.54927 0.70059 0.97431 0.0
C923 C 0.50487 0.79112 0.97381 0.0
O924 O 0.51352 0.77606 0.98088 0.0
C925 C 0.63794 0.71301 0.97805 0.0
C926 C 0.68237 0.73356 0.96742 0.0
C927 C 0.67045 0.71596 0.97645 0.0
N928 N 0.63145 0.72892 0.97041 0.0
N929 N 0.65796 0.74081 0.96406 0.0
C930 C 0.61271 0.69399 0.98639 0.0
H931 H 0.58555 0.68083 0.98353 0.0
H932 H 0.61515 0.71291 0.99225 0.0
H933 H 0.61778 0.67404 0.98982 0.0
C934 C 0.60358 0.83053 0.97456 0.0
N935 N 0.58882 0.79794 0.97079 0.0
N936 N 0.60728 0.7834 0.97352 0.0
C937 C 0.63388 0.80608 0.97941 0.0
C938 C 0.6324 0.83665 0.98023 0.0
C939 C 0.58909 0.85457 0.97329 0.0
H940 H 0.57535 0.84969 0.96599 0.0
H941 H 0.57036 0.84992 0.97945 0.0
H942 H 0.61002 0.88234 0.97363 0.0
O943 O 0.55437 0.76116 0.94985 0.0
O944 O 0.58543 0.73558 0.95369 0.0
H945 H 0.67897 0.82087 0.98893 0.0
H946 H 0.64678 0.77477 0.98874 0.0
C947 C 0.66035 0.79884 0.98414 0.0
H948 H 0.67527 0.79448 0.97818 0.0
H949 H 0.6597 0.75456 0.9575 0.0
O950 O 0.51696 0.79327 0.96499 0.0
C951 C 0.57004 0.74467 0.94726 0.0
Co952 Co 0.24245 0.77805 0.96523 0.0
Co953 Co 0.26437 0.8571 0.96758 0.0
C954 C 0.30703 0.82985 0.97659 0.0
O955 O 0.28505 0.79943 0.9735 0.0
O956 O 0.30295 0.85594 0.97489 0.0
C957 C 0.2204 0.71391 0.97498 0.0
O958 O 0.22345 0.73312 0.98287 0.0
C959 C 0.28075 0.92359 0.97689 0.0
C960 C 0.26158 0.9465 0.9655 0.0
C961 C 0.27621 0.95199 0.97499 0.0
N962 N 0.26854 0.90192 0.96897 0.0
N963 N 0.2574 0.91587 0.96215 0.0
C964 C 0.29838 0.91781 0.98569 0.0
H965 H 0.32069 0.91517 0.98297 0.0
H966 H 0.27984 0.89297 0.98949 0.0
H967 H 0.30866 0.9397 0.99112 0.0
C968 C 0.17558 0.76892 0.97323 0.0
N969 N 0.20889 0.78905 0.97012 0.0
N970 N 0.21905 0.82204 0.97197 0.0
C971 C 0.19289 0.82372 0.97672 0.0
C972 C 0.16456 0.79016 0.97765 0.0
C973 C 0.15512 0.72989 0.97246 0.0
H974 H 0.16509 0.72071 0.96622 0.0
H975 H 0.15716 0.71827 0.97963 0.0
H976 H 0.12704 0.72064 0.97113 0.0
O977 O 0.25752 0.7955 0.95138 0.0
O978 O 0.27213 0.85125 0.95322 0.0
H979 H 0.17034 0.85153 0.98414 0.0
H980 H 0.21697 0.86996 0.98572 0.0
C981 C 0.19491 0.8567 0.98038 0.0
H982 H 0.19975 0.87444 0.97394 0.0
H983 H 0.24638 0.90416 0.95529 0.0
O984 O 0.22606 0.7275 0.96627 0.0
C985 C 0.2695 0.82621 0.94781 0.0
Co986 Co 0.21904 0.44889 0.9614 0.0
Co987 Co 0.14082 0.40519 0.96848 0.0
C988 C 0.18282 0.47504 0.97604 0.0
O989 O 0.20679 0.47652 0.97041 0.0
O990 O 0.15348 0.44697 0.97684 0.0
C991 C 0.28708 0.48521 0.96908 0.0
O992 O 0.26954 0.47115 0.97738 0.0
C993 C 0.07268 0.36008 0.97865 0.0
C994 C 0.04669 0.3187 0.9672 0.0
C995 C 0.04248 0.32836 0.97675 0.0
N996 N 0.094 0.36821 0.97065 0.0
N997 N 0.0781 0.34352 0.96381 0.0
C998 C 0.08052 0.38315 0.98765 0.0
H999 H 0.0955 0.41098 0.98539 0.0
H1000 H 0.09663 0.37804 0.99302 0.0
H1001 H 0.0561 0.37824 0.99144 0.0
C1002 C 0.22083 0.38722 0.96932 0.0
N1003 N 0.20363 0.40418 0.96683 0.0
N1004 N 0.17182 0.3873 0.97058 0.0
C1005 C 0.16831 0.35976 0.97592 0.0
C1006 C 0.19929 0.35887 0.97534 0.0
C1007 C 0.25838 0.39986 0.96686 0.0
H1008 H 0.26694 0.41806 0.96039 0.0
H1009 H 0.27485 0.41317 0.9735 0.0
H1010 H 0.26217 0.37753 0.96496 0.0
O1011 O 0.19651 0.44664 0.94843 0.0
O1012 O 0.14213 0.42108 0.95438 0.0
H1013 H 0.11393 0.32189 0.97685 0.0
H1014 H 0.14019 0.31623 0.98616 0.0
C1015 C 0.1366 0.3359 0.98195 0.0
H1016 H 0.13071 0.35157 0.98727 0.0
H1017 H 0.08909 0.34326 0.95689 0.0
O1018 O 0.27074 0.4777 0.96075 0.0
C1019 C 0.16406 0.43606 0.94729 0.0
Co1020 Co 0.23886 0.46245 0.46261 0.0
Co1021 Co 0.25579 0.40193 0.4658 0.0
C1022 C 0.30313 0.47253 0.47366 0.0
O1023 O 0.28226 0.48232 0.47047 0.0
O1024 O 0.29699 0.44142 0.47238 0.0
C1025 C 0.22109 0.50756 0.47223 0.0
O1026 O 0.22364 0.49085 0.48006 0.0
C1027 C 0.27544 0.35307 0.47448 0.0
C1028 C 0.24282 0.30476 0.46582 0.0
C1029 C 0.26751 0.31863 0.47341 0.0
N1030 N 0.25659 0.35944 0.46776 0.0
N1031 N 0.23715 0.33046 0.46261 0.0
C1032 C 0.29817 0.37868 0.48231 0.0
H1033 H 0.28545 0.39313 0.48523 0.0
H1034 H 0.30313 0.36547 0.48866 0.0
H1035 H 0.32351 0.39785 0.47886 0.0
C1036 C 0.17193 0.41036 0.47155 0.0
N1037 N 0.20421 0.4201 0.46816 0.0
N1038 N 0.21239 0.39621 0.47058 0.0
C1039 C 0.18603 0.37118 0.47607 0.0
C1040 C 0.15951 0.37944 0.47689 0.0
C1041 C 0.15229 0.42899 0.4691 0.0
H1042 H 0.16216 0.44392 0.462 0.0
H1043 H 0.15563 0.44737 0.47522 0.0
H1044 H 0.12391 0.40999 0.46835 0.0
O1045 O 0.25124 0.45649 0.44885 0.0
O1046 O 0.26284 0.41337 0.45115 0.0
H1047 H 0.17991 0.32009 0.47572 0.0
H1048 H 0.16986 0.33189 0.48772 0.0
C1049 C 0.18766 0.34178 0.48115 0.0
H1050 H 0.21474 0.35064 0.48368 0.0
H1051 H 0.21977 0.32816 0.45695 0.0
O1052 O 0.22542 0.49888 0.46347 0.0
C1053 C 0.26127 0.43589 0.44549 0.0
Co1054 Co 0.54443 0.76907 0.45924 0.0
Co1055 Co 0.59148 0.84712 0.46599 0.0
C1056 C 0.51908 0.81154 0.47156 0.0
O1057 O 0.51656 0.78608 0.46643 0.0
O1058 O 0.54862 0.83878 0.47303 0.0
C1059 C 0.50367 0.70637 0.46859 0.0
O1060 O 0.51407 0.72918 0.47596 0.0
C1061 C 0.63487 0.91411 0.47634 0.0
C1062 C 0.68201 0.9381 0.46671 0.0
C1063 C 0.6681 0.94307 0.47545 0.0
N1064 N 0.6297 0.89267 0.46857 0.0
N1065 N 0.65784 0.90729 0.4628 0.0
C1066 C 0.60762 0.90756 0.48408 0.0
H1067 H 0.58274 0.90101 0.48028 0.0
H1068 H 0.60278 0.88482 0.48878 0.0
H1069 H 0.61537 0.93069 0.48893 0.0
C1070 C 0.59988 0.76248 0.46941 0.0
N1071 N 0.58661 0.78205 0.46596 0.0
N1072 N 0.60484 0.81384 0.46959 0.0
C1073 C 0.62976 0.81523 0.47576 0.0
C1074 C 0.62723 0.78255 0.4759 0.0
C1075 C 0.58663 0.72511 0.46659 0.0
H1076 H 0.5747 0.71971 0.459 0.0
H1077 H 0.56661 0.70769 0.47209 0.0
H1078 H 0.60827 0.71915 0.46672 0.0
O1079 O 0.5521 0.79023 0.44576 0.0
O1080 O 0.57976 0.84501 0.45144 0.0
H1081 H 0.67303 0.86697 0.47743 0.0
H1082 H 0.66586 0.83918 0.48817 0.0
C1083 C 0.65279 0.84602 0.4822 0.0
H1084 H 0.63701 0.8563 0.48572 0.0
H1085 H 0.66079 0.89585 0.45629 0.0
O1086 O 0.51432 0.71731 0.45972 0.0
C1087 C 0.56533 0.82303 0.44433 0.0
Co1088 Co 0.22656 0.77868 0.46143 0.0
Co1089 Co 0.14917 0.7434 0.46891 0.0
C1090 C 0.19114 0.71415 0.47531 0.0
O1091 O 0.21475 0.73739 0.46977 0.0
O1092 O 0.16201 0.713 0.47655 0.0
C1093 C 0.29377 0.80863 0.46916 0.0
O1094 O 0.27584 0.8048 0.4774 0.0
C1095 C 0.083 0.71682 0.47992 0.0
C1096 C 0.05395 0.73367 0.47 0.0
C1097 C 0.05183 0.71708 0.47901 0.0
N1098 N 0.10267 0.73258 0.4718 0.0
N1099 N 0.08508 0.74237 0.46587 0.0
C1100 C 0.0952 0.70451 0.48868 0.0
H1101 H 0.12377 0.72168 0.48975 0.0
H1102 H 0.08134 0.7042 0.49567 0.0
H1103 H 0.09004 0.67763 0.48715 0.0
C1104 C 0.22876 0.84112 0.47034 0.0
N1105 N 0.21155 0.80726 0.46758 0.0
N1106 N 0.17997 0.79185 0.47149 0.0
C1107 C 0.1766 0.81521 0.4772 0.0
C1108 C 0.20746 0.84716 0.4767 0.0
C1109 C 0.26609 0.8664 0.46774 0.0
H1110 H 0.27449 0.85713 0.46115 0.0
H1111 H 0.28301 0.86959 0.47427 0.0
H1112 H 0.26945 0.89242 0.46596 0.0
O1113 O 0.20364 0.76031 0.44839 0.0
O1114 O 0.14962 0.73063 0.45457 0.0
H1115 H 0.14859 0.8295 0.48784 0.0
H1116 H 0.13918 0.78462 0.48849 0.0
C1117 C 0.14499 0.80671 0.48338 0.0
H1118 H 0.12222 0.79857 0.47836 0.0
H1119 H 0.09471 0.7557 0.4591 0.0
O1120 O 0.27803 0.80116 0.46074 0.0
C1121 C 0.17117 0.73847 0.44732 0.0
Co1122 Co 0.12501 0.56938 0.36784 0.0
Co1123 Co 0.0701 0.59355 0.36363 0.0
C1124 C 0.14119 0.63577 0.35618 0.0
O1125 O 0.14839 0.614 0.36022 0.0
O1126 O 0.11046 0.63145 0.35647 0.0
C1127 C 0.16943 0.55194 0.35793 0.0
O1128 O 0.15958 0.56507 0.35061 0.0
C1129 C 0.02246 0.61432 0.35483 0.0
C1130 C 0.97675 0.58869 0.36497 0.0
C1131 C 0.98919 0.60919 0.35644 0.0
N1132 N 0.02949 0.59772 0.36211 0.0
N1133 N 0.00217 0.58259 0.36818 0.0
C1134 C 0.04616 0.63224 0.34611 0.0
H1135 H 0.06 0.61808 0.34392 0.0
H1136 H 0.03136 0.63366 0.33956 0.0
H1137 H 0.06604 0.65916 0.34836 0.0
C1138 C 0.06899 0.50446 0.35861 0.0
N1139 N 0.08161 0.53735 0.362 0.0
N1140 N 0.05996 0.54838 0.35947 0.0
C1141 C 0.03346 0.52326 0.35407 0.0
C1142 C 0.03827 0.49459 0.3534 0.0
C1143 C 0.08745 0.48393 0.35961 0.0
H1144 H 0.10254 0.49072 0.36671 0.0
H1145 H 0.10562 0.4901 0.35318 0.0
H1146 H 0.0687 0.45543 0.3595 0.0
O1147 O 0.11969 0.58242 0.38177 0.0
O1148 O 0.0837 0.60236 0.37791 0.0
H1149 H 0.98795 0.52818 0.35552 0.0
H1150 H 0.98779 0.50454 0.34451 0.0
C1151 C 0.00453 0.52692 0.34947 0.0
H1152 H 0.01571 0.55159 0.34511 0.0
H1153 H 0.00067 0.56761 0.37442 0.0
O1154 O 0.15749 0.55052 0.36673 0.0
C1155 C 0.10267 0.59768 0.38422 0.0
Co1156 Co 0.42861 0.55322 0.365 0.0
Co1157 Co 0.40338 0.47371 0.36132 0.0
C1158 C 0.36332 0.50569 0.35332 0.0
O1159 O 0.38645 0.53518 0.35668 0.0
O1160 O 0.36568 0.4784 0.35459 0.0
C1161 C 0.45331 0.61856 0.356 0.0
O1162 O 0.44999 0.5997 0.34801 0.0
C1163 C 0.38585 0.40753 0.35093 0.0
C1164 C 0.39921 0.38076 0.36268 0.0
C1165 C 0.38735 0.37737 0.35289 0.0
N1166 N 0.397 0.42805 0.35914 0.0
N1167 N 0.4048 0.41178 0.36613 0.0
C1168 C 0.37245 0.4159 0.34161 0.0
H1169 H 0.36305 0.43433 0.34322 0.0
H1170 H 0.39385 0.42825 0.33602 0.0
H1171 H 0.3508 0.39173 0.33827 0.0
C1172 C 0.49461 0.56083 0.35692 0.0
N1173 N 0.46088 0.5412 0.35971 0.0
N1174 N 0.44958 0.50835 0.35731 0.0
C1175 C 0.47556 0.5064 0.35253 0.0
C1176 C 0.50484 0.53955 0.35213 0.0
C1177 C 0.51628 0.59955 0.35839 0.0
H1178 H 0.50616 0.60805 0.36475 0.0
H1179 H 0.51584 0.61309 0.35142 0.0
H1180 H 0.5439 0.60741 0.35995 0.0
O1181 O 0.41259 0.53346 0.37859 0.0
O1182 O 0.39602 0.47755 0.37589 0.0
H1183 H 0.49775 0.47817 0.34517 0.0
H1184 H 0.45207 0.46257 0.34263 0.0
C1185 C 0.47267 0.47349 0.34847 0.0
H1186 H 0.46512 0.45402 0.35459 0.0
H1187 H 0.4142 0.42201 0.37325 0.0
O1188 O 0.44688 0.60424 0.36463 0.0
C1189 C 0.39955 0.50205 0.3817 0.0
Co1190 Co 0.43966 0.88093 0.36725 0.0
Co1191 Co 0.51857 0.92499 0.36076 0.0
C1192 C 0.47931 0.85374 0.35429 0.0
O1193 O 0.45459 0.8525 0.35951 0.0
O1194 O 0.50799 0.8823 0.35316 0.0
C1195 C 0.37589 0.84136 0.35804 0.0
O1196 O 0.39794 0.85151 0.35048 0.0
C1197 C 0.58732 0.96956 0.35103 0.0
C1198 C 0.61192 0.01237 0.36214 0.0
C1199 C 0.61703 0.00171 0.35283 0.0
N1200 N 0.56534 0.96209 0.35884 0.0
N1201 N 0.5804 0.98761 0.36548 0.0
C1202 C 0.58052 0.94551 0.34233 0.0
H1203 H 0.56679 0.918 0.34492 0.0
H1204 H 0.56356 0.94868 0.3368 0.0
H1205 H 0.60528 0.9511 0.33861 0.0
C1206 C 0.4376 0.94038 0.3578 0.0
N1207 N 0.45513 0.92448 0.36098 0.0
N1208 N 0.48738 0.9416 0.35756 0.0
C1209 C 0.49105 0.96843 0.35183 0.0
C1210 C 0.45965 0.96852 0.35179 0.0
C1211 C 0.39942 0.92664 0.35956 0.0
H1212 H 0.39098 0.91152 0.36665 0.0
H1213 H 0.38429 0.90942 0.35321 0.0
H1214 H 0.39356 0.94826 0.35995 0.0
O1215 O 0.46034 0.88567 0.38075 0.0
O1216 O 0.51511 0.91107 0.3751 0.0
H1217 H 0.52008 0.01176 0.3416 0.0
H1218 H 0.5308 0.97719 0.34116 0.0
C1219 C 0.52353 0.99264 0.34615 0.0
H1220 H 0.54524 0.00724 0.35151 0.0
H1221 H 0.56874 0.9885 0.37221 0.0
O1222 O 0.38769 0.85223 0.36684 0.0
C1223 C 0.49285 0.89693 0.38216 0.0
H1224 H 0.10452 0.10883 0.20433 0.0
H1225 H 0.19464 0.0111 0.18441 0.0
H1226 H 0.15778 0.14908 0.1761 0.0
H1227 H 0.08267 0.95621 0.18894 0.0
H1228 H 0.19368 0.06638 0.18342 0.0
H1229 H 0.10985 0.0567 0.202 0.0
C1230 C 0.11781 0.10693 0.19773 0.0
C1231 C 0.13056 0.13306 0.19036 0.0
C1232 C 0.16942 0.04196 0.18442 0.0
C1233 C 0.13698 0.07401 0.18776 0.0
C1234 C 0.16985 0.01049 0.18495 0.0
C1235 C 0.13879 0.97905 0.18697 0.0
C1236 C 0.13792 0.04165 0.18612 0.0
C1237 C 0.10739 0.97981 0.18758 0.0
C1238 C 0.1206 0.0772 0.19638 0.0
C1239 C 0.14739 0.12922 0.1819 0.0
N1240 N 0.10789 0.01071 0.18742 0.0
N1241 N 0.15032 0.10013 0.18082 0.0
H1242 H 0.97206 0.17897 0.19245 0.0
H1243 H 0.8844 0.98111 0.17366 0.0
H1244 H 0.02836 0.13723 0.17662 0.0
H1245 H 0.85116 0.01194 0.20034 0.0
H1246 H 0.92848 0.04228 0.17074 0.0
H1247 H 0.9184 0.12185 0.19101 0.0
C1248 C 0.97278 0.1582 0.18831 0.0
C1249 C 0.00454 0.16259 0.18466 0.0
C1250 C 0.91125 0.03564 0.17716 0.0
C1251 C 0.94381 0.09762 0.1831 0.0
C1252 C 0.88614 0.00079 0.17886 0.0
C1253 C 0.86446 0.99141 0.18735 0.0
C1254 C 0.91437 0.06138 0.18392 0.0
C1255 C 0.86775 0.01802 0.1938 0.0
C1256 C 0.94235 0.12558 0.18762 0.0
C1257 C 0.00431 0.13475 0.17954 0.0
N1258 N 0.89238 0.05188 0.19197 0.0
N1259 N 0.97445 0.1033 0.17898 0.0
H1260 H 0.81053 0.78265 0.19502 0.0
H1261 H 0.00681 0.87146 0.17494 0.0
H1262 H 0.85952 0.87776 0.17761 0.0
H1263 H 0.97446 0.81799 0.20344 0.0
H1264 H 0.94684 0.85839 0.17196 0.0
H1265 H 0.86459 0.77981 0.19387 0.0
C1266 C 0.83218 0.80216 0.19063 0.0
C1267 C 0.83079 0.83062 0.18644 0.0
C1268 C 0.95284 0.84912 0.17879 0.0
C1269 C 0.89224 0.82754 0.18515 0.0
C1270 C 0.987 0.85652 0.18052 0.0
C1271 C 0.9957 0.84621 0.18953 0.0
C1272 C 0.92708 0.8308 0.18605 0.0
C1273 C 0.96892 0.82683 0.19646 0.0
C1274 C 0.86305 0.80073 0.19009 0.0
C1275 C 0.8597 0.85551 0.18097 0.0
N1276 N 0.93573 0.81986 0.19459 0.0
N1277 N 0.88941 0.85355 0.18054 0.0
H1278 H 0.03073 0.20704 0.30541 0.0
H1279 H 0.10605 0.08459 0.32307 0.0
H1280 H 0.96727 0.10642 0.31936 0.0
H1281 H 0.14502 0.15246 0.29722 0.0
H1282 H 0.06371 0.10411 0.32596 0.0
H1283 H 0.08193 0.19941 0.30705 0.0
C1284 C 0.02788 0.18403 0.30919 0.0
C1285 C 0.99482 0.15721 0.31223 0.0
C1286 C 0.08181 0.11496 0.31972 0.0
C1287 C 0.05282 0.14826 0.31401 0.0
C1288 C 0.10592 0.10385 0.31805 0.0
C1289 C 0.12872 0.1166 0.3098 0.0
C1290 C 0.08091 0.13944 0.31321 0.0
C1291 C 0.12751 0.1416 0.30357 0.0
C1292 C 0.05694 0.1795 0.30999 0.0
C1293 C 0.99237 0.12762 0.31692 0.0
N1294 N 0.1039 0.1522 0.30539 0.0
N1295 N 0.02096 0.12377 0.31759 0.0
H1296 H 0.79193 0.81998 0.31165 0.0
H1297 H 0.88829 0.00726 0.29102 0.0
H1298 H 0.90422 0.87451 0.30792 0.0
H1299 H 0.8353 0.99791 0.31908 0.0
H1300 H 0.87956 0.94852 0.29358 0.0
H1301 H 0.79427 0.87701 0.31203 0.0
C1302 C 0.81705 0.84377 0.31118 0.0
C1303 C 0.84785 0.84244 0.30956 0.0
C1304 C 0.86953 0.95932 0.29909 0.0
C1305 C 0.85031 0.90676 0.30968 0.0
C1306 C 0.87428 0.99262 0.29762 0.0
C1307 C 0.86272 0.00745 0.30489 0.0
C1308 C 0.85242 0.94049 0.30775 0.0
C1309 C 0.84486 0.98737 0.31336 0.0
C1310 C 0.81827 0.87612 0.31134 0.0
C1311 C 0.87971 0.87414 0.30898 0.0
N1312 N 0.84013 0.95465 0.31458 0.0
N1313 N 0.88 0.90493 0.30878 0.0
H1314 H 0.13549 0.01081 0.32152 0.0
H1315 H 0.01069 0.84074 0.29302 0.0
H1316 H 0.17638 0.95919 0.3031 0.0
H1317 H 0.98141 0.86432 0.32165 0.0
H1318 H 0.07205 0.88303 0.29675 0.0
H1319 H 0.07967 0.95613 0.32256 0.0
C1320 C 0.13304 0.98755 0.31801 0.0
C1321 C 0.16038 0.98937 0.31221 0.0
C1322 C 0.05219 0.87845 0.30228 0.0
C1323 C 0.09636 0.92741 0.31294 0.0
C1324 C 0.0172 0.85462 0.30011 0.0
C1325 C 0.99094 0.84943 0.30697 0.0
C1326 C 0.06074 0.89763 0.31127 0.0
C1327 C 0.00081 0.86774 0.3161 0.0
C1328 C 0.10115 0.95642 0.31854 0.0
C1329 C 0.15589 0.9587 0.30769 0.0
N1330 N 0.03486 0.89148 0.31791 0.0
N1331 N 0.12404 0.92911 0.3079 0.0
H1332 H 0.90684 0.03388 0.80753 0.0
H1333 H 0.81989 0.83399 0.81635 0.0
H1334 H 0.79409 0.97995 0.80983 0.0
H1335 H 0.88194 0.88304 0.78994 0.0
H1336 H 0.81492 0.88656 0.81923 0.0
H1337 H 0.90459 0.97765 0.80732 0.0
C1338 C 0.88162 0.01029 0.80824 0.0
C1339 C 0.85049 0.01163 0.80846 0.0
C1340 C 0.8292 0.88537 0.81277 0.0
C1341 C 0.84812 0.94744 0.80833 0.0
C1342 C 0.83208 0.85563 0.81111 0.0
C1343 C 0.85134 0.85434 0.80289 0.0
C1344 C 0.8467 0.91408 0.80634 0.0
C1345 C 0.86669 0.88293 0.79632 0.0
C1346 C 0.88047 0.9783 0.80807 0.0
C1347 C 0.81867 0.98008 0.80955 0.0
N1348 N 0.86459 0.91195 0.7983 0.0
N1349 N 0.8182 0.94898 0.80932 0.0
H1350 H 0.15153 0.99127 0.8237 0.0
H1351 H 0.95428 0.87156 0.8104 0.0
H1352 H 0.10636 0.00498 0.79656 0.0
H1353 H 0.01348 0.81829 0.81357 0.0
H1354 H 0.00823 0.92738 0.81217 0.0
H1355 H 0.09927 0.93285 0.82584 0.0
C1356 C 0.13071 0.9819 0.8182 0.0
C1357 C 0.13312 0.00274 0.80992 0.0
C1358 C 0.00915 0.90335 0.81271 0.0
C1359 C 0.0737 0.9374 0.81252 0.0
C1360 C 0.97846 0.87147 0.81174 0.0
C1361 C 0.97949 0.84019 0.81159 0.0
C1362 C 0.041 0.90403 0.81373 0.0
C1363 C 0.01159 0.84181 0.81354 0.0
C1364 C 0.10117 0.94879 0.81943 0.0
C1365 C 0.10561 0.98961 0.80299 0.0
N1366 N 0.04141 0.87344 0.81438 0.0
N1367 N 0.07677 0.95795 0.80453 0.0
H1368 H 0.13461 0.1138 0.82102 0.0
H1369 H 0.01803 0.17267 0.793 0.0
H1370 H 0.18129 0.20898 0.80365 0.0
H1371 H 0.98532 0.11743 0.82122 0.0
H1372 H 0.07814 0.1863 0.79654 0.0
H1373 H 0.0798 0.11498 0.82154 0.0
C1374 C 0.13357 0.13552 0.81759 0.0
C1375 C 0.16239 0.16131 0.81229 0.0
C1376 C 0.05782 0.17165 0.80201 0.0
C1377 C 0.09957 0.16204 0.81247 0.0
C1378 C 0.02354 0.16365 0.79995 0.0
C1379 C 0.99663 0.1436 0.80677 0.0
C1380 C 0.06496 0.15886 0.81083 0.0
C1381 C 0.00523 0.13282 0.81573 0.0
C1382 C 0.10229 0.13611 0.81783 0.0
C1383 C 0.15967 0.18873 0.80787 0.0
N1384 N 0.03853 0.14009 0.81742 0.0
N1385 N 0.12846 0.18791 0.80783 0.0
H1386 H 0.96101 0.78446 0.69517 0.0
H1387 H 0.85998 0.87994 0.67502 0.0
H1388 H 0.00848 0.87553 0.67608 0.0
H1389 H 0.84123 0.83177 0.7043 0.0
H1390 H 0.9038 0.86272 0.67182 0.0
H1391 H 0.90594 0.78557 0.69465 0.0
C1392 C 0.9594 0.80378 0.69054 0.0
C1393 C 0.9892 0.83003 0.68568 0.0
C1394 C 0.88973 0.85556 0.67888 0.0
C1395 C 0.92683 0.83153 0.68512 0.0
C1396 C 0.86474 0.86534 0.68074 0.0
C1397 C 0.84729 0.85768 0.69001 0.0
C1398 C 0.89696 0.8375 0.68628 0.0
C1399 C 0.85447 0.83862 0.69711 0.0
C1400 C 0.92819 0.80466 0.69036 0.0
C1401 C 0.98601 0.85491 0.67994 0.0
N1402 N 0.87893 0.82926 0.69511 0.0
N1403 N 0.95542 0.85522 0.67988 0.0
H1404 H 0.08644 0.9795 0.67258 0.0
H1405 H 0.20817 0.17647 0.69083 0.0
H1406 H 0.15648 0.00857 0.69791 0.0
H1407 H 0.10773 0.13916 0.67674 0.0
H1408 H 0.20196 0.11849 0.68853 0.0
H1409 H 0.10609 0.04132 0.66966 0.0
C1410 C 0.10621 -0.00109 0.67747 0.0
C1411 C 0.11947 0.98891 0.68561 0.0
C1412 C 0.18181 0.1234 0.68568 0.0
C1413 C 0.14244 0.05953 0.68216 0.0
C1414 C 0.18554 0.15654 0.68686 0.0
C1415 C 0.15826 0.16237 0.68402 0.0
C1416 C 0.15089 0.09634 0.6815 0.0
C1417 C 0.12923 0.13554 0.67906 0.0
C1418 C 0.11742 0.03412 0.67577 0.0
C1419 C 0.14517 0.01516 0.69166 0.0
N1420 N 0.12609 0.10349 0.67806 0.0
N1421 N 0.15576 0.04934 0.68984 0.0
H1422 H 0.86954 0.96423 0.68521 0.0
H1423 H 0.9957 0.1655 0.67882 0.0
H1424 H 0.82093 0.02828 0.68559 0.0
H1425 H 0.00772 0.10571 0.70253 0.0
H1426 H 0.93636 0.11601 0.67557 0.0
H1427 H 0.92679 0.01704 0.68475 0.0
C1428 C 0.87082 0.98937 0.68491 0.0
C1429 C 0.84041 0.99188 0.68569 0.0
C1430 C 0.95214 0.11407 0.68149 0.0
C1431 C 0.90586 0.05214 0.68508 0.0
C1432 C 0.98577 0.14205 0.68335 0.0
C1433 C 0.00639 0.13953 0.69098 0.0
C1434 C 0.93998 0.08326 0.68707 0.0
C1435 C 0.99253 0.10875 0.69664 0.0
C1436 C 0.9035 0.01939 0.6847 0.0
C1437 C 0.84374 0.02521 0.68509 0.0
N1438 N 0.96034 0.08157 0.69447 0.0
N1439 N 0.87613 0.05432 0.68498 0.0
H1440 H 0.75614 0.43247 0.54008 0.0
H1441 H 0.85583 0.34349 0.51764 0.0
H1442 H 0.81642 0.47714 0.5131 0.0
H1443 H 0.74841 0.28378 0.52757 0.0
H1444 H 0.84993 0.39612 0.51717 0.0
H1445 H 0.76277 0.3811 0.5378 0.0
C1446 C 0.77112 0.43162 0.53375 0.0
C1447 C 0.78565 0.4589 0.52674 0.0
C1448 C 0.82765 0.37123 0.51927 0.0
C1449 C 0.79342 0.40051 0.52414 0.0
C1450 C 0.83087 0.34122 0.51949 0.0
C1451 C 0.80277 0.30928 0.52282 0.0
C1452 C 0.79644 0.36909 0.52259 0.0
C1453 C 0.77103 0.3079 0.52513 0.0
C1454 C 0.77462 0.40225 0.53241 0.0
C1455 C 0.80465 0.45642 0.51862 0.0
N1456 N 0.76898 0.33749 0.52519 0.0
N1457 N 0.80826 0.42771 0.51756 0.0
H1458 H 0.50668 0.3463 0.5353 0.0
H1459 H 0.68834 0.46228 0.51128 0.0
H1460 H 0.5406 0.30913 0.51013 0.0
H1461 H 0.63069 0.50858 0.52369 0.0
H1462 H 0.63384 0.40641 0.50989 0.0
H1463 H 0.55127 0.40636 0.53101 0.0
C1464 C 0.52335 0.35081 0.52885 0.0
C1465 C 0.52035 0.32275 0.52315 0.0
C1466 C 0.63289 0.42902 0.51263 0.0
C1467 C 0.57114 0.39102 0.51821 0.0
C1468 C 0.66393 0.46089 0.51336 0.0
C1469 C 0.66381 0.48985 0.5176 0.0
C1470 C 0.60189 0.42596 0.51651 0.0
C1471 C 0.63169 0.48677 0.52032 0.0
C1472 C 0.54849 0.38503 0.52634 0.0
C1473 C 0.54224 0.33001 0.51477 0.0
N1474 N 0.60202 0.45502 0.52 0.0
N1475 N 0.56714 0.3634 0.51266 0.0
H1476 H 0.6675 0.19533 0.54728 0.0
H1477 H 0.48594 0.12729 0.51966 0.0
H1478 H 0.65594 0.15512 0.51714 0.0
H1479 H 0.53888 0.22439 0.53619 0.0
H1480 H 0.53974 0.12319 0.52074 0.0
H1481 H 0.60956 0.18957 0.54597 0.0
C1482 C 0.6525 0.18462 0.54047 0.0
C1483 C 0.66667 0.17611 0.53226 0.0
C1484 C 0.53923 0.14532 0.52406 0.0
C1485 C 0.60052 0.16933 0.53075 0.0
C1486 C 0.50877 0.14777 0.52342 0.0
C1487 C 0.50786 0.17625 0.52781 0.0
C1488 C 0.56821 0.17093 0.52938 0.0
C1489 C 0.53818 0.20199 0.53264 0.0
C1490 C 0.6196 0.18155 0.53971 0.0
C1491 C 0.64604 0.16238 0.52359 0.0
N1492 N 0.56682 0.19846 0.5334 0.0
N1493 N 0.61391 0.15952 0.52303 0.0
H1494 H 0.64013 0.42817 0.63591 0.0
H1495 H 0.83826 0.51066 0.64958 0.0
H1496 H 0.69372 0.5347 0.64674 0.0
H1497 H 0.79486 0.45289 0.62219 0.0
H1498 H 0.78514 0.51501 0.6518 0.0
H1499 H 0.69591 0.42992 0.63476 0.0
C1500 C 0.66352 0.45183 0.63822 0.0
C1501 C 0.66217 0.48158 0.64129 0.0
C1502 C 0.78765 0.50185 0.64526 0.0
C1503 C 0.72622 0.48341 0.63999 0.0
C1504 C 0.81778 0.49935 0.64397 0.0
C1505 C 0.82085 0.48138 0.63568 0.0
C1506 C 0.76018 0.4853 0.63836 0.0
C1507 C 0.79364 0.46713 0.62865 0.0
C1508 C 0.69537 0.45279 0.63746 0.0
C1509 C 0.69354 0.51125 0.64427 0.0
N1510 N 0.76415 0.46885 0.63024 0.0
N1511 N 0.72449 0.51149 0.64352 0.0
H1512 H 0.44517 0.15422 0.63963 0.0
H1513 H 0.55109 0.35391 0.65669 0.0
H1514 H 0.5417 0.19914 0.65631 0.0
H1515 H 0.49222 0.31946 0.62909 0.0
H1516 H 0.53287 0.29322 0.66075 0.0
H1517 H 0.44688 0.21062 0.64038 0.0
C1518 C 0.4658 0.17547 0.64386 0.0
C1519 C 0.49342 0.17226 0.6479 0.0
C1520 C 0.52359 0.29897 0.65388 0.0
C1521 C 0.4957 0.23642 0.64867 0.0
C1522 C 0.53398 0.33355 0.65153 0.0
C1523 C 0.52359 0.34176 0.64245 0.0
C1524 C 0.50223 0.27232 0.64718 0.0
C1525 C 0.50126 0.31427 0.63609 0.0
C1526 C 0.46702 0.20769 0.64415 0.0
C1527 C 0.51996 0.20071 0.65311 0.0
N1528 N 0.49143 0.28068 0.63855 0.0
N1529 N 0.52067 0.2318 0.65326 0.0
H1530 H 0.65027 0.23756 0.62885 0.0
H1531 H 0.8384 0.3141 0.64976 0.0
H1532 H 0.66284 0.18703 0.65497 0.0
H1533 H 0.79572 0.38051 0.64223 0.0
H1534 H 0.77837 0.26402 0.65072 0.0
H1535 H 0.70907 0.28717 0.6316 0.0
C1536 C 0.66557 0.23683 0.63511 0.0
C1537 C 0.65183 0.20838 0.64172 0.0
C1538 C 0.78242 0.28981 0.64907 0.0
C1539 C 0.71886 0.26464 0.64485 0.0
C1540 C 0.81653 0.31837 0.64859 0.0
C1541 C 0.82209 0.35139 0.64571 0.0
C1542 C 0.75422 0.29453 0.64648 0.0
C1543 C 0.79276 0.35542 0.64426 0.0
C1544 C 0.69888 0.26517 0.63673 0.0
C1545 C 0.67261 0.20874 0.64976 0.0
N1546 N 0.76016 0.32718 0.64442 0.0
N1547 N 0.70543 0.23641 0.65107 0.0
H1548 H 0.50717 0.18925 0.15404 0.0
H1549 H 0.58406 0.38391 0.13652 0.0
H1550 H 0.56809 0.22996 0.12697 0.0
H1551 H 0.47462 0.32661 0.14466 0.0
H1552 H 0.58673 0.33046 0.13819 0.0
H1553 H 0.50149 0.24202 0.15502 0.0
C1554 C 0.51919 0.2092 0.14831 0.0
C1555 C 0.53809 0.20539 0.1404 0.0
C1556 C 0.56229 0.32979 0.13974 0.0
C1557 C 0.5326 0.26547 0.14168 0.0
C1558 C 0.56067 0.36026 0.13885 0.0
C1559 C 0.5288 0.35964 0.14024 0.0
C1560 C 0.53209 0.29849 0.14222 0.0
C1561 C 0.49961 0.32818 0.14341 0.0
C1562 C 0.51588 0.23906 0.14888 0.0
C1563 C 0.55313 0.23181 0.13314 0.0
N1564 N 0.50184 0.29857 0.14422 0.0
N1565 N 0.55048 0.26099 0.13404 0.0
H1566 H 0.78649 0.35357 0.15593 0.0
H1567 H 0.69271 0.1514 0.14153 0.0
H1568 H 0.81475 0.31387 0.13011 0.0
H1569 H 0.63938 0.19989 0.15546 0.0
H1570 H 0.74768 0.20738 0.14241 0.0
H1571 H 0.74223 0.29378 0.16037 0.0
C1572 C 0.78366 0.33224 0.15125 0.0
C1573 C 0.80388 0.33866 0.14254 0.0
C1574 C 0.72409 0.20538 0.14555 0.0
C1575 C 0.75388 0.27037 0.14771 0.0
C1576 C 0.69287 0.17342 0.14518 0.0
C1577 C 0.66156 0.17129 0.14836 0.0
C1578 C 0.72384 0.23495 0.14929 0.0
C1579 C 0.66303 0.20066 0.15288 0.0
C1580 C 0.75848 0.2982 0.15381 0.0
C1581 C 0.79926 0.31004 0.13679 0.0
N1582 N 0.69365 0.23148 0.15311 0.0
N1583 N 0.77456 0.27704 0.13946 0.0
H1584 H 0.67062 0.47401 0.11824 0.0
H1585 H 0.85161 0.54476 0.14213 0.0
H1586 H 0.67477 0.51299 0.14823 0.0
H1587 H 0.78551 0.43359 0.13741 0.0
H1588 H 0.79912 0.55101 0.14129 0.0
H1589 H 0.72779 0.47891 0.12105 0.0
C1590 C 0.68392 0.48443 0.12531 0.0
C1591 C 0.66788 0.49276 0.13306 0.0
C1592 C 0.79648 0.52535 0.14061 0.0
C1593 C 0.733 0.49878 0.1362 0.0
C1594 C 0.82619 0.52167 0.14114 0.0
C1595 C 0.82306 0.48866 0.1397 0.0
C1596 C 0.764 0.49598 0.13843 0.0
C1597 C 0.7894 0.45963 0.13842 0.0
C1598 C 0.71633 0.48706 0.1269 0.0
C1599 C 0.68622 0.50595 0.14212 0.0
N1600 N 0.76132 0.4641 0.13759 0.0
N1601 N 0.71792 0.50839 0.14349 0.0
H1602 H 0.62847 0.11684 0.03026 0.0
H1603 H 0.53957 0.22132 0.0077 0.0
H1604 H 0.68331 0.20893 0.01181 0.0
H1605 H 0.51011 0.16852 0.03633 0.0
H1606 H 0.58294 0.2028 0.00569 0.0
H1607 H 0.5752 0.12112 0.02875 0.0
C1608 C 0.62888 0.13709 0.02556 0.0
C1609 C 0.66016 0.16257 0.02113 0.0
C1610 C 0.5667 0.19497 0.01235 0.0
C1611 C 0.59988 0.16775 0.01947 0.0
C1612 C 0.54194 0.20551 0.01352 0.0
C1613 C 0.52152 0.19683 0.02227 0.0
C1614 C 0.57074 0.17516 0.01991 0.0
C1615 C 0.52568 0.17618 0.02954 0.0
C1616 C 0.5987 0.13978 0.02483 0.0
C1617 C 0.65962 0.18877 0.01531 0.0
N1618 N 0.54996 0.1661 0.02822 0.0
N1619 N 0.62999 0.19082 0.0147 0.0
H1620 H 0.87977 0.5042 0.02435 0.0
H1621 H 0.76427 0.30499 0.00737 0.0
H1622 H 0.78326 0.4642 0.00784 0.0
H1623 H 0.82591 0.33741 0.03451 0.0
H1624 H 0.7847 0.36632 0.0034 0.0
H1625 H 0.87445 0.4462 0.02351 0.0
C1626 C 0.85833 0.48363 0.02016 0.0
C1627 C 0.83178 0.48875 0.01619 0.0
C1628 C 0.79404 0.35995 0.01016 0.0
C1629 C 0.8254 0.42276 0.01533 0.0
C1630 C 0.78238 0.32503 0.01245 0.0
C1631 C 0.793 0.31614 0.02137 0.0
C1632 C 0.8169 0.38618 0.01675 0.0
C1633 C 0.81663 0.34317 0.02764 0.0
C1634 C 0.85506 0.45051 0.01981 0.0
C1635 C 0.80418 0.46114 0.011 0.0
N1636 N 0.82773 0.37706 0.02523 0.0
N1637 N 0.80147 0.42914 0.01081 0.0
H1638 H 0.6592 0.47868 0.03362 0.0
H1639 H 0.52541 0.30222 0.009 0.0
H1640 H 0.68453 0.44354 0.0063 0.0
H1641 H 0.49047 0.36438 0.02482 0.0
H1642 H 0.58358 0.35383 0.00742 0.0
H1643 H 0.5971 0.4368 0.0307 0.0
C1644 C 0.65167 0.46224 0.027 0.0
C1645 C 0.67699 0.46424 0.02025 0.0
C1646 C 0.56295 0.35646 0.01099 0.0
C1647 C 0.60635 0.4165 0.01688 0.0
C1648 C 0.52976 0.3271 0.01183 0.0
C1649 C 0.50327 0.32922 0.01702 0.0
C1650 C 0.56989 0.38775 0.01568 0.0
C1651 C 0.51022 0.36185 0.02069 0.0
C1652 C 0.61628 0.43866 0.02528 0.0
C1653 C 0.66584 0.4427 0.01172 0.0
N1654 N 0.54321 0.38974 0.02019 0.0
N1655 N 0.63138 0.41932 0.01036 0.0
H1656 H 0.41694 0.61889 0.85514 0.0
H1657 H 0.49253 0.81765 0.84331 0.0
H1658 H 0.52931 0.68123 0.85232 0.0
H1659 H 0.42775 0.76716 0.86916 0.0
H1660 H 0.50004 0.7663 0.8409 0.0
H1661 H 0.41302 0.67179 0.85356 0.0
C1662 C 0.44077 0.64357 0.85391 0.0
C1663 C 0.47364 0.64578 0.85412 0.0
C1664 C 0.48433 0.76678 0.84708 0.0
C1665 C 0.46899 0.7061 0.85222 0.0
C1666 C 0.48 0.79581 0.84846 0.0
C1667 C 0.45958 0.79646 0.85646 0.0
C1668 C 0.46704 0.73809 0.85354 0.0
C1669 C 0.44389 0.76772 0.86295 0.0
C1670 C 0.43841 0.67365 0.85306 0.0
C1671 C 0.50351 0.67846 0.85231 0.0
N1672 N 0.44755 0.73943 0.86127 0.0
N1673 N 0.50056 0.70767 0.85159 0.0
H1674 H 0.30441 0.85007 0.86071 0.0
H1675 H 0.20011 0.6508 0.84323 0.0
H1676 H 0.3524 0.79981 0.84479 0.0
H1677 H 0.17789 0.6865 0.87097 0.0
H1678 H 0.24655 0.71048 0.83971 0.0
H1679 H 0.24815 0.79518 0.86006 0.0
C1680 C 0.30278 0.82791 0.85672 0.0
C1681 C 0.33297 0.82925 0.85282 0.0
C1682 C 0.23116 0.70526 0.84649 0.0
C1683 C 0.26922 0.76688 0.85213 0.0
C1684 C 0.20468 0.67127 0.84853 0.0
C1685 C 0.18544 0.66364 0.85749 0.0
C1686 C 0.23811 0.73193 0.85337 0.0
C1687 C 0.19246 0.69123 0.86405 0.0
C1688 C 0.27086 0.79659 0.85648 0.0
C1689 C 0.32966 0.7997 0.8479 0.0
N1690 N 0.2184 0.72426 0.86187 0.0
N1691 N 0.29836 0.76956 0.84776 0.0
H1692 H 0.32222 0.48897 0.84962 0.0
H1693 H 0.21012 0.57727 0.86081 0.0
H1694 H 0.33645 0.54969 0.87638 0.0
H1695 H 0.15417 0.46816 0.85239 0.0
H1696 H 0.26379 0.5747 0.8619 0.0
H1697 H 0.26567 0.48614 0.84677 0.0
C1698 C 0.31322 0.50129 0.85495 0.0
C1699 C 0.33388 0.51957 0.86326 0.0
C1700 C 0.23979 0.55147 0.8597 0.0
C1701 C 0.27052 0.51742 0.85985 0.0
C1702 C 0.20913 0.55288 0.85899 0.0
C1703 C 0.17732 0.52264 0.85669 0.0
C1704 C 0.23899 0.51988 0.85789 0.0
C1705 C 0.17803 0.492 0.85426 0.0
C1706 C 0.28114 0.49966 0.8533 0.0
C1707 C 0.32121 0.53515 0.86993 0.0
N1708 N 0.20849 0.49128 0.85499 0.0
N1709 N 0.2906 0.53426 0.86798 0.0
H1710 H 0.37188 0.88294 0.97169 0.0
H1711 H 0.46351 0.77634 0.99034 0.0
H1712 H 0.31885 0.78734 0.98877 0.0
H1713 H 0.49137 0.83572 0.96277 0.0
H1714 H 0.42035 0.7943 0.99372 0.0
H1715 H 0.42605 0.8803 0.97271 0.0
C1716 C 0.37202 0.86224 0.97602 0.0
C1717 C 0.34094 0.8352 0.98012 0.0
C1718 C 0.43624 0.80372 0.987 0.0
C1719 C 0.40232 0.8319 0.98122 0.0
C1720 C 0.46085 0.79349 0.98504 0.0
C1721 C 0.48069 0.80415 0.97617 0.0
C1722 C 0.43174 0.82516 0.98011 0.0
C1723 C 0.47622 0.82651 0.96962 0.0
C1724 C 0.40276 0.86051 0.97647 0.0
C1725 C 0.34232 0.80861 0.98549 0.0
N1726 N 0.45205 0.83618 0.9717 0.0
N1727 N 0.37246 0.80742 0.98581 0.0
H1728 H 0.24313 0.67885 0.96335 0.0
H1729 H 0.13319 0.49083 0.98286 0.0
H1730 H 0.18132 0.66724 0.98971 0.0
H1731 H 0.24424 0.5361 0.97787 0.0
H1732 H 0.14178 0.55028 0.98425 0.0
H1733 H 0.23421 0.62021 0.96624 0.0
C1734 C 0.22739 0.66378 0.96968 0.0
C1735 C 0.21299 0.67776 0.97632 0.0
C1736 C 0.1642 0.54687 0.9831 0.0
C1737 C 0.20253 0.6109 0.97959 0.0
C1738 C 0.15942 0.51309 0.98237 0.0
C1739 C 0.18794 0.50853 0.98003 0.0
C1740 C 0.19748 0.57575 0.98129 0.0
C1741 C 0.22136 0.53834 0.97946 0.0
C1742 C 0.2226 0.63057 0.97137 0.0
C1743 C 0.19298 0.65726 0.98447 0.0
N1744 N 0.22506 0.57067 0.9798 0.0
N1745 N 0.18795 0.62449 0.98584 0.0
H1746 H 0.50968 0.63448 0.97927 0.0
H1747 H 0.32293 0.53851 0.95587 0.0
H1748 H 0.454 0.68897 0.97191 0.0
H1749 H 0.33487 0.49571 0.98376 0.0
H1750 H 0.38114 0.58947 0.95828 0.0
H1751 H 0.45364 0.57875 0.97858 0.0
C1752 C 0.48579 0.63488 0.97771 0.0
C1753 C 0.4867 0.66649 0.97551 0.0
C1754 C 0.37107 0.56861 0.96378 0.0
C1755 C 0.42355 0.60335 0.97437 0.0
C1756 C 0.33807 0.53948 0.96239 0.0
C1757 C 0.32404 0.51306 0.96967 0.0
C1758 C 0.39044 0.57094 0.97239 0.0
C1759 C 0.34476 0.51578 0.97802 0.0
C1760 C 0.45403 0.60316 0.97726 0.0
C1761 C 0.45487 0.66537 0.97351 0.0
N1762 N 0.37712 0.54435 0.97918 0.0
N1763 N 0.4248 0.63433 0.97278 0.0
H1764 H 0.14217 0.64941 0.48271 0.0
H1765 H 0.24475 0.5654 0.46054 0.0
H1766 H 0.25167 0.7121 0.4751 0.0
H1767 H 0.18454 0.51719 0.48729 0.0
H1768 H 0.23833 0.61655 0.46365 0.0
H1769 H 0.14925 0.59752 0.48337 0.0
C1770 C 0.16781 0.65248 0.48146 0.0
C1771 C 0.1962 0.68502 0.47864 0.0
C1772 C 0.22652 0.5947 0.46882 0.0
C1773 C 0.20394 0.62612 0.47908 0.0
C1774 C 0.22989 0.56549 0.46701 0.0
C1775 C 0.21522 0.53725 0.47369 0.0
C1776 C 0.2076 0.59525 0.47722 0.0
C1777 C 0.19639 0.53869 0.48201 0.0
C1778 C 0.17172 0.6229 0.48178 0.0
C1779 C 0.22885 0.68746 0.47709 0.0
N1780 N 0.19275 0.56721 0.48351 0.0
N1781 N 0.23161 0.65827 0.47708 0.0
H1782 H 0.48604 0.64944 0.45649 0.0
H1783 H 0.31849 0.52566 0.48664 0.0
H1784 H 0.46663 0.67831 0.48575 0.0
H1785 H 0.36601 0.48372 0.46697 0.0
H1786 H 0.37363 0.58121 0.48707 0.0
H1787 H 0.44281 0.58823 0.46017 0.0
C1788 C 0.47288 0.64288 0.46369 0.0
C1789 C 0.47957 0.66902 0.47077 0.0
C1790 C 0.37238 0.55957 0.48289 0.0
C1791 C 0.43032 0.59941 0.475 0.0
C1792 C 0.34103 0.52783 0.48272 0.0
C1793 C 0.33794 0.50021 0.47681 0.0
C1794 C 0.40032 0.56399 0.47681 0.0
C1795 C 0.3676 0.5044 0.47171 0.0
C1796 C 0.4485 0.60798 0.46582 0.0
C1797 C 0.4621 0.65906 0.48004 0.0
N1798 N 0.3974 0.53612 0.47159 0.0
N1799 N 0.43788 0.62515 0.48182 0.0
H1800 H 0.34186 0.84379 0.48393 0.0
H1801 H 0.45282 0.7566 0.46999 0.0
H1802 H 0.32689 0.78693 0.45631 0.0
H1803 H 0.51019 0.86532 0.47878 0.0
H1804 H 0.39911 0.75932 0.46996 0.0
H1805 H 0.39849 0.84619 0.48621 0.0
C1806 C 0.35072 0.83225 0.4783 0.0
C1807 C 0.32982 0.81516 0.46991 0.0
C1808 C 0.42345 0.7824 0.47203 0.0
C1809 C 0.39317 0.81676 0.47267 0.0
C1810 C 0.45413 0.78091 0.47212 0.0
C1811 C 0.48627 0.81104 0.47418 0.0
C1812 C 0.42467 0.81397 0.4742 0.0
C1813 C 0.48604 0.84158 0.47705 0.0
C1814 C 0.38282 0.83362 0.47962 0.0
C1815 C 0.34229 0.80054 0.46284 0.0
N1816 N 0.45558 0.84242 0.4769 0.0
N1817 N 0.3729 0.80114 0.46447 0.0
H1818 H 0.3547 0.55106 0.34151 0.0
H1819 H 0.18196 0.50726 0.36921 0.0
H1820 H 0.29736 0.45566 0.35846 0.0
H1821 H 0.21191 0.56673 0.34166 0.0
H1822 H 0.22424 0.48802 0.36554 0.0
H1823 H 0.30227 0.55659 0.34093 0.0
C1824 C 0.33064 0.53063 0.3448 0.0
C1825 C 0.3302 0.50284 0.35001 0.0
C1826 C 0.22116 0.50492 0.36025 0.0
C1827 C 0.27081 0.50982 0.34982 0.0
C1828 C 0.19735 0.51617 0.36239 0.0
C1829 C 0.19374 0.53891 0.35578 0.0
C1830 C 0.24193 0.5171 0.35156 0.0
C1831 C 0.21399 0.54933 0.34698 0.0
C1832 C 0.30083 0.53391 0.34454 0.0
C1833 C 0.2986 0.4773 0.35428 0.0
N1834 N 0.23759 0.53877 0.3452 0.0
N1835 N 0.27032 0.48188 0.35433 0.0
H1836 H 0.4195 0.79076 0.3536 0.0
H1837 H 0.49257 0.66558 0.34139 0.0
H1838 H 0.53055 0.83947 0.34795 0.0
H1839 H 0.43079 0.6535 0.36779 0.0
H1840 H 0.50046 0.72451 0.33889 0.0
H1841 H 0.41528 0.73367 0.35301 0.0
C1842 C 0.44293 0.7895 0.352 0.0
C1843 C 0.47564 0.82004 0.35106 0.0
C1844 C 0.48541 0.70884 0.34523 0.0
C1845 C 0.47062 0.75465 0.3503 0.0
C1846 C 0.48087 0.67543 0.34667 0.0
C1847 C 0.46107 0.65487 0.35482 0.0
C1848 C 0.46896 0.72087 0.3518 0.0
C1849 C 0.44643 0.66864 0.36146 0.0
C1850 C 0.44042 0.7569 0.35172 0.0
C1851 C 0.5049 0.81659 0.34881 0.0
N1852 N 0.45023 0.70062 0.35971 0.0
N1853 N 0.50182 0.78429 0.34862 0.0
H1854 H 0.31943 0.82551 0.37017 0.0
H1855 H 0.19752 0.64633 0.34518 0.0
H1856 H 0.34774 0.79861 0.3419 0.0
H1857 H 0.15306 0.70095 0.36054 0.0
H1858 H 0.25328 0.70122 0.34397 0.0
H1859 H 0.25858 0.77921 0.3674 0.0
C1860 C 0.31279 0.81007 0.36337 0.0
C1861 C 0.33864 0.81567 0.3563 0.0
C1862 C 0.23107 0.70139 0.34737 0.0
C1863 C 0.2696 0.76282 0.35315 0.0
C1864 C 0.19929 0.67017 0.34801 0.0
C1865 C 0.17077 0.66934 0.35289 0.0
C1866 C 0.23461 0.73159 0.35198 0.0
C1867 C 0.17443 0.70073 0.35661 0.0
C1868 C 0.27812 0.78392 0.36175 0.0
C1869 C 0.32864 0.79512 0.34756 0.0
N1870 N 0.20612 0.73054 0.3563 0.0
N1871 N 0.29503 0.7692 0.34631 0.0
H1872 H 0.35178 0.3313 0.14682 0.0
H1873 H 0.2249 0.36081 0.18318 0.0
H1874 H 0.35665 0.431 0.14937 0.0
H1875 H 0.20235 0.25975 0.17223 0.0
H1876 H 0.27662 0.38829 0.17219 0.0
H1877 H 0.30045 0.30547 0.15777 0.0
C1878 C 0.34217 0.34778 0.14978 0.0
C1879 C 0.35861 0.38335 0.14735 0.0
C1880 C 0.2603 0.36009 0.17223 0.0
C1881 C 0.2998 0.35405 0.15974 0.0
C1882 C 0.23088 0.34449 0.17846 0.0
C1883 C 0.20975 0.30802 0.17869 0.0
C1884 C 0.26857 0.33891 0.16629 0.0
C1885 C 0.21853 0.28791 0.17249 0.0
C1886 C 0.31275 0.33302 0.15595 0.0
C1887 C 0.34464 0.40344 0.15113 0.0
N1888 N 0.24735 0.3036 0.16658 0.0
N1889 N 0.3161 0.38856 0.15722 0.0
H1890 H 0.67504 0.92038 0.19327 0.0
H1891 H 0.6158 0.94246 0.13826 0.0
H1892 H 0.68327 0.86725 0.1672 0.0
H1893 H 0.60176 0.99011 0.16477 0.0
H1894 H 0.63697 0.91146 0.14883 0.0
H1895 H 0.64471 0.94333 0.18311 0.0
C1896 C 0.67013 0.91342 0.1854 0.0
C1897 C 0.68173 0.89228 0.18098 0.0
C1898 C 0.62929 0.92872 0.15234 0.0
C1899 C 0.64738 0.91831 0.16932 0.0
C1900 C 0.61724 0.94637 0.14631 0.0
C1901 C 0.60824 0.96972 0.15064 0.0
C1902 C 0.63205 0.93432 0.16277 0.0
C1903 C 0.60987 0.97343 0.16111 0.0
C1904 C 0.65285 0.92643 0.17961 0.0
C1905 C 0.67465 0.88359 0.17082 0.0
N1906 N 0.62188 0.95616 0.16682 0.0
N1907 N 0.65816 0.89691 0.16528 0.0
H1908 H 0.12297 0.81378 0.16662 0.0
H1909 H 0.01028 0.60609 0.16044 0.0
H1910 H 0.08551 0.74186 0.19152 0.0
H1911 H 0.04854 0.67751 0.13541 0.0
H1912 H 0.04148 0.65529 0.17192 0.0
H1913 H 0.10054 0.76418 0.15501 0.0
C1914 C 0.11043 0.78744 0.16962 0.0
C1915 C 0.10578 0.78161 0.17998 0.0
C1916 C 0.04308 0.66031 0.16393 0.0
C1917 C 0.07964 0.72495 0.16684 0.0
C1918 C 0.02499 0.63229 0.15739 0.0
C1919 C 0.02596 0.63808 0.14702 0.0
C1920 C 0.06245 0.69436 0.16005 0.0
C1921 C 0.0467 0.67219 0.14339 0.0
C1922 C 0.09748 0.75918 0.16301 0.0
C1923 C 0.08918 0.74721 0.18355 0.0
N1924 N 0.06388 0.69917 0.14991 0.0
N1925 N 0.07643 0.72009 0.17698 0.0
H1926 H 0.39677 0.37664 0.33245 0.0
H1927 H 0.3061 0.16831 0.3294 0.0
H1928 H 0.35813 0.309 0.35834 0.0
H1929 H 0.31989 0.23356 0.30378 0.0
H1930 H 0.33458 0.22066 0.34001 0.0
H1931 H 0.37737 0.3254 0.32175 0.0
C1932 C 0.38369 0.35101 0.33588 0.0
C1933 C 0.37775 0.34699 0.34627 0.0
C1934 C 0.33165 0.22358 0.33206 0.0
C1935 C 0.35684 0.28832 0.33409 0.0
C1936 C 0.31564 0.19382 0.32602 0.0
C1937 C 0.31064 0.19695 0.31578 0.0
C1938 C 0.34281 0.25658 0.32777 0.0
C1939 C 0.32318 0.23032 0.31169 0.0
C1940 C 0.37303 0.32178 0.32977 0.0
C1941 C 0.36268 0.31322 0.35035 0.0
N1942 N 0.33859 0.25894 0.31772 0.0
N1943 N 0.35249 0.28513 0.34424 0.0
H1944 H 0.68478 0.0433 0.35843 0.0
H1945 H 0.75595 0.09523 0.30217 0.0
H1946 H 0.61798 0.00928 0.33234 0.0
H1947 H 0.82206 0.13014 0.32834 0.0
H1948 H 0.70441 0.06722 0.31311 0.0
H1949 H 0.73497 0.07865 0.34758 0.0
C1950 C 0.68076 0.04311 0.3504 0.0
C1951 C 0.64741 0.02247 0.34624 0.0
C1952 C 0.73015 0.08133 0.31648 0.0
C1953 C 0.70454 0.06312 0.33378 0.0
C1954 C 0.75944 0.0973 0.31024 0.0
C1955 C 0.793 0.11473 0.31441 0.0
C1956 C 0.73467 0.08273 0.32695 0.0
C1957 C 0.79644 0.11702 0.32487 0.0
C1958 C 0.70937 0.06333 0.34421 0.0
C1959 C 0.64347 0.02362 0.33582 0.0
N1960 N 0.76761 0.1009 0.3308 0.0
N1961 N 0.67175 0.04346 0.32993 0.0
H1962 H 0.85103 0.6326 0.31497 0.0
H1963 H 0.01433 0.67547 0.34963 0.0
H1964 H 0.92718 0.73668 0.32444 0.0
H1965 H 0.92159 0.57362 0.34987 0.0
H1966 H 0.98382 0.6973 0.33923 0.0
H1967 H 0.87664 0.6088 0.32688 0.0
C1968 C 0.87296 0.6503 0.31961 0.0
C1969 C 0.8876 0.68655 0.31863 0.0
C1970 C 0.97002 0.67018 0.34157 0.0
C1971 C 0.91695 0.65994 0.33205 0.0
C1972 C 0.98753 0.6577 0.34743 0.0
C1973 C 0.9705 0.62267 0.35044 0.0
C1974 C 0.93531 0.64735 0.33863 0.0
C1975 C 0.93552 0.60082 0.34762 0.0
C1976 C 0.88753 0.63682 0.32636 0.0
C1977 C 0.91585 0.70858 0.32478 0.0
N1978 N 0.91907 0.61343 0.34175 0.0
N1979 N 0.92982 0.69496 0.33115 0.0
H1980 H 0.76911 0.63124 0.81169 0.0
H1981 H 0.64679 0.66909 0.84769 0.0
H1982 H 0.79095 0.73442 0.82019 0.0
H1983 H 0.64157 0.56896 0.84704 0.0
H1984 H 0.69634 0.6921 0.83613 0.0
H1985 H 0.71915 0.60615 0.8234 0.0
C1986 C 0.76325 0.6485 0.816 0.0
C1987 C 0.78356 0.68484 0.81485 0.0
C1988 C 0.68438 0.66506 0.83849 0.0
C1989 C 0.72695 0.6567 0.82811 0.0
C1990 C 0.65595 0.65189 0.84502 0.0
C1991 C 0.63987 0.617 0.84816 0.0
C1992 C 0.69678 0.64314 0.83506 0.0
C1993 C 0.6533 0.59602 0.84472 0.0
C1994 C 0.7349 0.63428 0.82265 0.0
C1995 C 0.77522 0.70624 0.82061 0.0
N1996 N 0.68091 0.60934 0.83828 0.0
N1997 N 0.74749 0.69187 0.82694 0.0
H1998 H 0.32817 0.08201 0.80622 0.0
H1999 H 0.37989 0.0558 0.86185 0.0
H2000 H 0.31018 0.12768 0.8325 0.0
H2001 H 0.40096 0.01332 0.83535 0.0
H2002 H 0.35844 0.08629 0.85116 0.0
H2003 H 0.35879 0.06004 0.81665 0.0
C2004 C 0.33089 0.08746 0.8142 0.0
C2005 C 0.3165 0.10622 0.81859 0.0
C2006 C 0.36775 0.0703 0.84767 0.0
C2007 C 0.3513 0.08143 0.83054 0.0
C2008 C 0.37997 0.05296 0.85377 0.0
C2009 C 0.391 0.03117 0.84945 0.0
C2010 C 0.36688 0.06596 0.8372 0.0
C2011 C 0.39131 0.02881 0.83897 0.0
C2012 C 0.34839 0.07507 0.82015 0.0
C2013 C 0.321 0.11319 0.8289 0.0
N2014 N 0.37909 0.04572 0.83319 0.0
N2015 N 0.33779 0.10053 0.83457 0.0
H2016 H 0.87391 0.18275 0.82991 0.0
H2017 H 0.98877 0.39105 0.83426 0.0
H2018 H 0.91109 0.25175 0.80435 0.0
H2019 H 0.95388 0.32173 0.85981 0.0
H2020 H 0.95681 0.34073 0.8232 0.0
H2021 H 0.89825 0.23367 0.84105 0.0
C2022 C 0.88679 0.20875 0.82667 0.0
C2023 C 0.89082 0.21336 0.81626 0.0
C2024 C 0.9562 0.33647 0.83122 0.0
C2025 C 0.91915 0.27152 0.82886 0.0
C2026 C 0.9748 0.36514 0.83752 0.0
C2027 C 0.97489 0.36029 0.84792 0.0
C2028 C 0.93734 0.30277 0.83536 0.0
C2029 C 0.95489 0.32642 0.8518 0.0
C2030 C 0.90086 0.23776 0.833 0.0
C2031 C 0.90787 0.24735 0.81237 0.0
N2032 N 0.93713 0.29887 0.84552 0.0
N2033 N 0.92169 0.27523 0.81868 0.0
H2034 H 0.60667 0.61657 0.66407 0.0
H2035 H 0.69246 0.82414 0.66756 0.0
H2036 H 0.63841 0.68447 0.63821 0.0
H2037 H 0.65586 0.75593 0.6933 0.0
H2038 H 0.66875 0.77293 0.65656 0.0
H2039 H 0.62198 0.66689 0.67486 0.0
C2040 C 0.61746 0.64219 0.66068 0.0
C2041 C 0.6224 0.64663 0.65027 0.0
C2042 C 0.66552 0.76906 0.66461 0.0
C2043 C 0.63883 0.70413 0.66252 0.0
C2044 C 0.67879 0.79825 0.67086 0.0
C2045 C 0.6761 0.79398 0.68129 0.0
C2046 C 0.64975 0.73545 0.66887 0.0
C2047 C 0.65864 0.76009 0.68526 0.0
C2048 C 0.62571 0.67085 0.66683 0.0
C2049 C 0.63473 0.68009 0.64623 0.0
N2050 N 0.64637 0.73203 0.67904 0.0
N2051 N 0.6428 0.70764 0.65237 0.0
H2052 H 0.17196 0.8591 0.66535 0.0
H2053 H 0.37957 0.98612 0.66392 0.0
H2054 H 0.23386 0.91425 0.69114 0.0
H2055 H 0.31658 0.94166 0.63744 0.0
H2056 H 0.32747 0.95334 0.67433 0.0
H2057 H 0.22567 0.88196 0.65533 0.0
C2058 C 0.19702 0.87569 0.6689 0.0
C2059 C 0.1988 0.88529 0.67899 0.0
C2060 C 0.32497 0.9507 0.66624 0.0
C2061 C 0.25997 0.91161 0.66768 0.0
C2062 C 0.35462 0.96965 0.66031 0.0
C2063 C 0.35196 0.9675 0.64982 0.0
C2064 C 0.29249 0.92921 0.66164 0.0
C2065 C 0.31948 0.94446 0.64551 0.0
C2066 C 0.22757 0.88883 0.6632 0.0
C2067 C 0.23163 0.90673 0.68332 0.0
N2068 N 0.29084 0.92646 0.65144 0.0
N2069 N 0.26098 0.91944 0.67761 0.0
H2070 H 0.08676 0.33071 0.69725 0.0
H2071 H 0.04308 0.35638 0.64067 0.0
H2072 H 0.12917 0.30712 0.67121 0.0
H2073 H 0.00664 0.38843 0.66641 0.0
H2074 H 0.07643 0.34012 0.65184 0.0
H2075 H 0.05905 0.35442 0.68622 0.0
C2076 C 0.09049 0.33096 0.68921 0.0
C2077 C 0.11004 0.31697 0.68508 0.0
C2078 C 0.06101 0.35055 0.65507 0.0
C2079 C 0.07847 0.34357 0.67246 0.0
C2080 C 0.0419 0.35975 0.64869 0.0
C2081 C 0.02122 0.37278 0.65264 0.0
C2082 C 0.05963 0.35458 0.66549 0.0
C2083 C 0.02105 0.37711 0.66307 0.0
C2084 C 0.07474 0.34442 0.68292 0.0
C2085 C 0.11443 0.31796 0.67465 0.0
N2086 N 0.03983 0.36786 0.66915 0.0
N2087 N 0.09852 0.33076 0.66869 0.0
H2088 H 0.88409 0.6856 0.51946 0.0
H2089 H 0.02108 0.65426 0.48869 0.0
H2090 H 0.86592 0.58339 0.51119 0.0
H2091 H 0.01473 0.74798 0.48501 0.0
H2092 H 0.97022 0.63075 0.49984 0.0
H2093 H 0.93794 0.71196 0.50932 0.0
C2094 C 0.89153 0.66878 0.51555 0.0
C2095 C 0.87086 0.63231 0.51626 0.0
C2096 C 0.9801 0.65655 0.49663 0.0
C2097 C 0.93218 0.662 0.5049 0.0
C2098 C 0.00922 0.67004 0.49036 0.0
C2099 C 0.02213 0.70316 0.48604 0.0
C2100 C 0.96403 0.67646 0.49865 0.0
C2101 C 0.00539 0.72229 0.48822 0.0
C2102 C 0.92215 0.68376 0.50981 0.0
C2103 C 0.88162 0.6116 0.51111 0.0
N2104 N 0.97719 0.70872 0.49444 0.0
N2105 N 0.91161 0.62672 0.50569 0.0
H2106 H 0.33607 0.34222 0.4775 0.0
H2107 H 0.30093 0.18554 0.51432 0.0
H2108 H 0.23299 0.25321 0.48167 0.0
H2109 H 0.40288 0.26097 0.50313 0.0
H2110 H 0.27452 0.20916 0.50268 0.0
H2111 H 0.36054 0.31289 0.48733 0.0
C2112 C 0.31861 0.31649 0.48055 0.0
C2113 C 0.28248 0.3003 0.47897 0.0
C2114 C 0.30264 0.22029 0.50272 0.0
C2115 C 0.31019 0.26634 0.49015 0.0
C2116 C 0.31763 0.20677 0.50932 0.0
C2117 C 0.35406 0.22164 0.50971 0.0
C2118 C 0.32441 0.24898 0.49659 0.0
C2119 C 0.3747 0.24923 0.50317 0.0
C2120 C 0.33256 0.29961 0.48609 0.0
C2121 C 0.26102 0.26657 0.48282 0.0
N2122 N 0.35963 0.26219 0.49694 0.0
N2123 N 0.27516 0.25078 0.48835 0.0
H2124 H 0.67125 0.94027 0.49591 0.0
H2125 H 0.78357 0.14771 0.5022 0.0
H2126 H 0.70905 0.01196 0.47092 0.0
H2127 H 0.76019 0.07586 0.52678 0.0
H2128 H 0.7567 0.09828 0.49059 0.0
H2129 H 0.70298 0.98945 0.5074 0.0
C2130 C 0.68585 0.96649 0.49287 0.0
C2131 C 0.6868 0.97235 0.4825 0.0
C2132 C 0.75765 0.09325 0.49851 0.0
C2133 C 0.72386 0.0285 0.49554 0.0
C2134 C 0.77315 0.12143 0.50511 0.0
C2135 C 0.77403 0.11564 0.51541 0.0
C2136 C 0.74257 0.05902 0.50227 0.0
C2137 C 0.75966 0.08123 0.51888 0.0
C2138 C 0.70428 0.99447 0.49941 0.0
C2139 C 0.70732 0.00653 0.4789 0.0
N2140 N 0.7443 0.05411 0.51232 0.0
N2141 N 0.72484 0.0334 0.48541 0.0
H2142 H 0.96773 0.50914 0.66361 0.0
H2143 H 0.07415 0.71717 0.66984 0.0
H2144 H 0.01752 0.5802 0.63894 0.0
H2145 H 0.01848 0.64548 0.69395 0.0
H2146 H 0.05831 0.66746 0.65866 0.0
H2147 H 0.99132 0.55874 0.67515 0.0
C2148 C 0.98412 0.53528 0.66067 0.0
C2149 C 0.99084 0.54082 0.65036 0.0
C2150 C 0.04948 0.66256 0.66639 0.0
C2151 C 0.0173 0.59767 0.66343 0.0
C2152 C 0.05819 0.69088 0.67273 0.0
C2153 C 0.04644 0.68521 0.6827 0.0
C2154 C 0.02919 0.62839 0.6701 0.0
C2155 C 0.02746 0.65081 0.68624 0.0
C2156 C 0.99737 0.56358 0.66723 0.0
C2157 C 0.01165 0.57506 0.64686 0.0
N2158 N 0.01912 0.62363 0.67992 0.0
N2159 N 0.02406 0.60232 0.65339 0.0
H2160 H 0.49286 0.45979 0.66691 0.0
H2161 H 0.28396 0.35752 0.6715 0.0
H2162 H 0.42362 0.43343 0.64155 0.0
H2163 H 0.35304 0.37434 0.69639 0.0
H2164 H 0.33487 0.3912 0.6607 0.0
H2165 H 0.44213 0.4354 0.67817 0.0
C2166 C 0.46689 0.44927 0.66376 0.0
C2167 C 0.46211 0.44823 0.65335 0.0
C2168 C 0.33894 0.3875 0.66851 0.0
C2169 C 0.40414 0.41999 0.66607 0.0
C2170 C 0.30992 0.36797 0.67464 0.0
C2171 C 0.31448 0.36212 0.68473 0.0
C2172 C 0.37274 0.40157 0.67254 0.0
C2173 C 0.34854 0.37777 0.68859 0.0
C2174 C 0.43798 0.43519 0.67015 0.0
C2175 C 0.42814 0.43424 0.64956 0.0
N2176 N 0.37643 0.39653 0.68246 0.0
N2177 N 0.40035 0.42041 0.65592 0.0
H2178 H 0.6059 0.08539 0.65708 0.0
H2179 H 0.59341 0.91631 0.68178 0.0
H2180 H 0.52895 0.98233 0.64702 0.0
H2181 H 0.6905 0.01387 0.6792 0.0
H2182 H 0.56518 0.94011 0.67093 0.0
H2183 H 0.6334 0.05975 0.66716 0.0
C2184 C 0.59509 0.05735 0.65686 0.0
C2185 C 0.56558 0.03598 0.65102 0.0
C2186 C 0.59271 0.95612 0.67269 0.0
C2187 C 0.59617 0.00635 0.66288 0.0
C2188 C 0.60873 0.94268 0.67889 0.0
C2189 C 0.64435 0.96311 0.68125 0.0
C2190 C 0.61235 0.99048 0.66908 0.0
C2191 C 0.66313 0.99712 0.6774 0.0
C2192 C 0.61065 0.04273 0.66269 0.0
C2193 C 0.55172 -0.00034 0.65142 0.0
N2194 N 0.64683 0.00985 0.67155 0.0
N2195 N 0.56709 0.98588 0.65729 0.0
H2196 H 0.30749 0.00323 0.18134 0.0
H2197 H 0.44076 0.9756 0.14765 0.0
H2198 H 0.31125 0.90757 0.18254 0.0
H2199 H 0.46158 0.07669 0.15808 0.0
H2200 H 0.38842 0.94804 0.15841 0.0
H2201 H 0.35917 0.02885 0.1705 0.0
C2202 C 0.31912 0.98758 0.17923 0.0
C2203 C 0.30509 0.95323 0.18271 0.0
C2204 C 0.4045 0.97626 0.15829 0.0
C2205 C 0.36405 0.98223 0.1704 0.0
C2206 C 0.43425 0.99193 0.15218 0.0
C2207 C 0.45515 0.02845 0.15188 0.0
C2208 C 0.39555 0.99742 0.16398 0.0
C2209 C 0.44562 0.04852 0.15784 0.0
C2210 C 0.34867 0.00223 0.17312 0.0
C2211 C 0.32145 0.93419 0.17997 0.0
N2212 N 0.41641 0.03276 0.1636 0.0
N2213 N 0.35002 0.94887 0.17388 0.0
H2214 H 0.9251 0.39911 0.16006 0.0
H2215 H 0.10063 0.40943 0.18012 0.0
H2216 H 0.02615 0.47036 0.14745 0.0
H2217 H 0.99768 0.32005 0.18413 0.0
H2218 H 0.07484 0.43805 0.17026 0.0
H2219 H 0.9525 0.37585 0.17118 0.0
C2220 C 0.95314 0.40982 0.15965 0.0
C2221 C 0.97342 0.43626 0.15276 0.0
C2222 C 0.05798 0.41217 0.1733 0.0
C2223 C 0.00503 0.41016 0.16553 0.0
C2224 C 0.07261 0.39595 0.17893 0.0
C2225 C 0.05121 0.36217 0.18274 0.0
C2226 C 0.02169 0.39465 0.1717 0.0
C2227 C 0.01509 0.3458 0.1811 0.0
C2228 C 0.96876 0.39663 0.16601 0.0
C2229 C 0.00971 0.44992 0.15268 0.0
N2230 N 0.00145 0.3622 0.1757 0.0
N2231 N 0.02446 0.43658 0.15896 0.0
H2232 H 0.60474 0.54148 0.15335 0.0
H2233 H 0.58501 0.68485 0.18466 0.0
H2234 H 0.52319 0.56541 0.147 0.0
H2235 H 0.68063 0.6813 0.18239 0.0
H2236 H 0.55707 0.63535 0.17288 0.0
H2237 H 0.62825 0.58722 0.16604 0.0
C2238 C 0.5921 0.55681 0.15454 0.0
C2239 C 0.56265 0.5505 0.14895 0.0
C2240 C 0.58414 0.64547 0.17498 0.0
C2241 C 0.58875 0.60222 0.16368 0.0
C2242 C 0.59995 0.67344 0.18171 0.0
C2243 C 0.63519 0.68727 0.18432 0.0
C2244 C 0.60371 0.63105 0.17106 0.0
C2245 C 0.65357 0.67174 0.18039 0.0
C2246 C 0.60532 0.58269 0.16185 0.0
C2247 C 0.54624 0.56994 0.15111 0.0
N2248 N 0.63761 0.64446 0.17395 0.0
N2249 N 0.55961 0.59515 0.15832 0.0
H2250 H 0.26196 0.95044 0.99503 0.0
H2251 H 0.35522 0.15872 -0.00048 0.0
H2252 H 0.30563 0.0206 0.96984 0.0
H2253 H 0.32785 0.08991 0.02503 0.0
H2254 H 0.32836 0.10773 0.9884 0.0
H2255 H 0.27786 0.0006 0.00601 0.0
C2256 C 0.27531 0.97651 0.99185 0.0
C2257 C 0.28385 0.98168 0.98162 0.0
C2258 C 0.3279 0.10372 0.99643 0.0
C2259 C 0.30097 0.03893 0.99402 0.0
C2260 C 0.343 0.13273 0.00275 0.0
C2261 C 0.3438 0.12819 0.01313 0.0
C2262 C 0.31356 0.07003 0.00056 0.0
C2263 C 0.32792 0.09423 0.01702 0.0
C2264 C 0.28402 0.00506 0.99809 0.0
C2265 C 0.29929 0.01569 0.97775 0.0
N2266 N 0.31361 0.06634 0.01072 0.0
N2267 N 0.3077 0.04313 0.98397 0.0
H2268 H 0.90365 0.23639 0.02745 0.0
H2269 H 0.97453 0.28727 0.97124 0.0
H2270 H 0.83787 0.19633 0.00132 0.0
H2271 H 0.04187 0.31931 0.99721 0.0
H2272 H 0.92452 0.25137 0.98208 0.0
H2273 H 0.95523 0.26398 0.01651 0.0
C2274 C 0.90029 0.23297 0.01939 0.0
C2275 C 0.86679 0.21433 0.01521 0.0
C2276 C 0.95021 0.26634 0.98542 0.0
C2277 C 0.92516 0.24607 0.00268 0.0
C2278 C 0.97874 0.28692 0.97924 0.0
C2279 C 0.01222 0.30722 0.98337 0.0
C2280 C 0.95522 0.26589 0.99582 0.0
C2281 C 0.01632 0.30534 0.99376 0.0
C2282 C 0.9296 0.24877 0.01316 0.0
C2283 C 0.86346 0.21051 0.00477 0.0
N2284 N 0.98811 0.28522 -0.00036 0.0
N2285 N 0.89231 0.22661 -0.00116 0.0
H2286 H 0.7994 0.63459 -0.00107 0.0
H2287 H 0.67488 0.71816 0.99703 0.0
H2288 H 0.75496 0.65422 0.02522 0.0
H2289 H 0.71288 0.69085 0.97068 0.0
H2290 H 0.70788 0.69946 0.00755 0.0
H2291 H 0.77298 0.66101 0.98851 0.0
C2292 C 0.78448 0.64503 0.00249 0.0
C2293 C 0.77905 0.64221 0.01289 0.0
C2294 C 0.7089 0.6974 -0.00053 0.0
C2295 C 0.74836 0.67182 0.00109 0.0
C2296 C 0.68966 0.70762 0.99346 0.0
C2297 C 0.69019 0.70487 0.98298 0.0
C2298 C 0.72909 0.68467 0.99495 0.0
C2299 C 0.71136 0.69287 0.97875 0.0
C2300 C 0.76921 0.65985 0.99656 0.0
C2301 C 0.75939 0.65577 0.01719 0.0
N2302 N 0.72979 0.68297 0.98474 0.0
N2303 N 0.7445 0.6698 0.01127 0.0
H2304 H 0.6855 0.99362 0.8154 0.0
H2305 H 0.55679 0.02362 0.85045 0.0
H2306 H 0.68422 0.09062 0.81486 0.0
H2307 H 0.53285 0.92225 0.83939 0.0
H2308 H 0.60828 0.05066 0.83935 0.0
H2309 H 0.63431 0.96859 0.82643 0.0
C2310 C 0.67453 0.00969 0.81769 0.0
C2311 C 0.68912 0.04425 0.81434 0.0
C2312 C 0.59168 0.02249 0.8394 0.0
C2313 C 0.6307 0.0159 0.82687 0.0
C2314 C 0.56239 0.00713 0.8457 0.0
C2315 C 0.54089 0.97067 0.84592 0.0
C2316 C 0.59956 0.00109 0.83344 0.0
C2317 C 0.5493 0.95037 0.83968 0.0
C2318 C 0.64524 0.99537 0.82391 0.0
C2319 C 0.67358 0.06382 0.81732 0.0
N2320 N 0.57808 0.96582 0.83374 0.0
N2321 N 0.64527 0.04946 0.82351 0.0
H2322 H 0.96148 0.61886 0.80254 0.0
H2323 H 0.99262 0.57758 0.859 0.0
H2324 H 0.93317 0.65663 0.82872 0.0
H2325 H 0.02943 0.54781 0.83293 0.0
H2326 H 0.96569 0.60202 0.84799 0.0
H2327 H 0.98165 0.58792 0.81349 0.0
C2328 C 0.95968 0.62071 0.81061 0.0
C2329 C 0.94669 0.64113 0.81476 0.0
C2330 C 0.97945 0.58996 0.84466 0.0
C2331 C 0.9692 0.60558 0.82732 0.0
C2332 C 0.99479 0.57609 0.85094 0.0
C2333 C 0.01338 0.56106 0.84682 0.0
C2334 C 0.98281 0.58872 0.83419 0.0
C2335 C 0.01517 0.55919 0.83635 0.0
C2336 C 0.97116 0.60308 0.81685 0.0
C2337 C 0.94428 0.64223 0.82524 0.0
N2338 N 0.00026 0.57309 0.83038 0.0
N2339 N 0.9556 0.62484 0.83117 0.0
H2340 H 0.47438 0.43699 0.85274 0.0
H2341 H 0.3105 0.31309 0.81849 0.0
H2342 H 0.39155 0.45812 0.84543 0.0
H2343 H 0.40805 0.31329 0.81615 0.0
H2344 H 0.33802 0.36243 0.83006 0.0
H2345 H 0.44918 0.38783 0.84077 0.0
C2346 C 0.45085 0.43112 0.84865 0.0
C2347 C 0.43449 0.45097 0.8502 0.0
C2348 C 0.35349 0.35176 0.82702 0.0
C2349 C 0.40571 0.39533 0.83667 0.0
C2350 C 0.33772 0.32349 0.82049 0.0
C2351 C 0.35701 0.309 0.81651 0.0
C2352 C 0.38877 0.36552 0.82965 0.0
C2353 C 0.3924 0.32386 0.81912 0.0
C2354 C 0.43658 0.40326 0.84184 0.0
C2355 C 0.40426 0.44268 0.84471 0.0
N2356 N 0.40719 0.35125 0.82562 0.0
N2357 N 0.39074 0.41539 0.83824 0.0
H2358 H 0.67469 0.9047 0.97493 0.0
H2359 H 0.69091 0.97352 0.03131 0.0
H2360 H 0.63527 0.83645 0.0006 0.0
H2361 H 0.73364 0.04138 0.00562 0.0
H2362 H 0.67472 0.92298 0.02042 0.0
H2363 H 0.70113 0.95525 0.98621 0.0
C2364 C 0.67207 0.9005 0.98297 0.0
C2365 C 0.65274 0.86669 0.9869 0.0
C2366 C 0.68761 0.94891 0.01716 0.0
C2367 C 0.68239 0.92399 -0.00016 0.0
C2368 C 0.69678 0.97769 0.02337 0.0
C2369 C 0.71243 0.01142 0.01927 0.0
C2370 C 0.69446 0.95403 0.0068 0.0
C2371 C 0.72021 0.01561 0.00899 0.0
C2372 C 0.68706 0.92924 0.98941 0.0
C2373 C 0.65009 0.8623 0.99734 0.0
N2374 N 0.71086 0.98722 0.00308 0.0
N2375 N 0.66446 0.89069 0.00347 0.0
H2376 H 0.95355 0.68121 0.0008 0.0
H2377 H 0.16212 0.79914 0.9977 0.0
H2378 H 0.02154 0.70874 0.02653 0.0
H2379 H 0.09619 0.75442 0.97178 0.0
H2380 H 0.10999 0.77374 0.00841 0.0
H2381 H 0.00471 0.71472 0.99007 0.0
C2382 C 0.97934 0.69392 0.00416 0.0
C2383 C 0.98357 0.69112 0.01449 0.0
C2384 C 0.10685 0.76968 0.00038 0.0
C2385 C 0.04199 0.73052 0.00236 0.0
C2386 C 0.13651 0.78432 0.99428 0.0
C2387 C 0.13316 0.77853 0.98391 0.0
C2388 C 0.07368 0.74919 0.99603 0.0
C2389 C 0.09964 0.75906 0.97978 0.0
C2390 C 0.00846 0.71335 0.99806 0.0
C2391 C 0.0173 0.70974 0.01856 0.0
N2392 N 0.07111 0.74488 0.98587 0.0
N2393 N 0.0453 0.72844 0.01247 0.0
H2394 H 0.19953 0.3603 0.99568 0.0
H2395 H 0.31075 0.26313 0.00099 0.0
H2396 H 0.22703 0.31746 0.97052 0.0
H2397 H 0.28609 0.30989 0.02577 0.0
H2398 H 0.27649 0.27862 0.98985 0.0
H2399 H 0.22623 0.33678 0.00702 0.0
C2400 C 0.21072 0.34536 0.99258 0.0
C2401 C 0.21119 0.34071 0.98219 0.0
C2402 C 0.27864 0.2856 0.99771 0.0
C2403 C 0.24249 0.31447 0.99505 0.0
C2404 C 0.29854 0.27716 0.00404 0.0
C2405 C 0.30221 0.28642 0.01422 0.0
C2406 C 0.26205 0.30312 0.00163 0.0
C2407 C 0.28435 0.30286 0.01792 0.0
C2408 C 0.2262 0.33219 -0.00096 0.0
C2409 C 0.22647 0.32176 0.97851 0.0
N2410 N 0.26527 0.31096 0.01161 0.0
N2411 N 0.24176 0.30947 0.98493 0.0
H2412 H 0.97891 0.23909 0.51275 0.0
H2413 H 0.13597 0.41117 0.48965 0.0
H2414 H 0.97905 0.33673 0.51138 0.0
H2415 H 0.11091 0.30947 0.47859 0.0
H2416 H 0.08212 0.3842 0.49944 0.0
H2417 H 0.03085 0.26414 0.50188 0.0
C2418 C 0.98979 0.26571 0.51009 0.0
C2419 C 0.9746 0.28583 0.51283 0.0
C2420 C 0.08826 0.36778 0.49482 0.0
C2421 C 0.03399 0.31467 0.50066 0.0
C2422 C 0.11888 0.38316 0.48918 0.0
C2423 C 0.12754 0.36256 0.48315 0.0
C2424 C 0.06641 0.3314 0.49461 0.0
C2425 C 0.10515 0.32621 0.48317 0.0
C2426 C 0.01924 0.27989 0.50389 0.0
C2427 C 0.98964 0.3202 0.50927 0.0
N2428 N 0.07555 0.31167 0.48886 0.0
N2429 N 0.01874 0.33366 0.50343 0.0
H2430 H 0.69697 0.80771 0.47963 0.0
H2431 H 0.65804 0.64629 0.51513 0.0
H2432 H 0.59371 0.72755 0.48853 0.0
H2433 H 0.7609 0.73693 0.51258 0.0
H2434 H 0.63473 0.67526 0.50468 0.0
H2435 H 0.72209 0.7824 0.49115 0.0
C2436 C 0.67971 0.78489 0.48404 0.0
C2437 C 0.64334 0.76924 0.48305 0.0
C2438 C 0.66242 0.68894 0.50639 0.0
C2439 C 0.67149 0.74023 0.49608 0.0
C2440 C 0.67573 0.67227 0.51229 0.0
C2441 C 0.71148 0.68906 0.51451 0.0
C2442 C 0.68505 0.72268 0.50267 0.0
C2443 C 0.73317 0.72311 0.51093 0.0
C2444 C 0.69394 0.77047 0.49058 0.0
C2445 C 0.62191 0.73981 0.4889 0.0
N2446 N 0.71967 0.73878 0.50508 0.0
N2447 N 0.63629 0.72614 0.49511 0.0
H2448 H 0.20746 0.84528 0.49706 0.0
H2449 H 0.32333 0.05254 0.50272 0.0
H2450 H 0.23506 0.91639 0.47208 0.0
H2451 H 0.28114 0.98232 0.52795 0.0
H2452 H 0.29145 0.00307 0.49134 0.0
H2453 H 0.23335 0.8951 0.50854 0.0
C2454 C 0.21853 0.87148 0.49403 0.0
C2455 C 0.21926 0.87694 0.48365 0.0
C2456 C 0.2892 0.99842 0.49936 0.0
C2457 C 0.24967 0.93399 0.49666 0.0
C2458 C 0.30774 0.02655 0.50584 0.0
C2459 C 0.30561 0.02115 0.51625 0.0
C2460 C 0.26834 0.96471 0.50333 0.0
C2461 C 0.28382 0.98734 0.51995 0.0
C2462 C 0.2335 0.89988 0.50056 0.0
C2463 C 0.23442 0.91126 0.48005 0.0
N2464 N 0.26623 0.96028 0.51348 0.0
N2465 N 0.24929 0.93859 0.48655 0.0
H2466 H 0.9771 0.35595 0.3026 0.0
H2467 H 0.00249 0.42618 0.35908 0.0
H2468 H 0.93696 0.28812 0.32839 0.0
H2469 H 0.03238 0.4932 0.33311 0.0
H2470 H 0.97664 0.37497 0.34799 0.0
H2471 H 0.99583 0.40655 0.31362 0.0
C2472 C 0.97239 0.35178 0.3106 0.0
C2473 C 0.95659 0.31799 0.31465 0.0
C2474 C 0.98855 0.40084 0.34471 0.0
C2475 C 0.97758 0.37554 0.32729 0.0
C2476 C 0.00324 0.42993 0.35102 0.0
C2477 C 0.01948 0.46363 0.34693 0.0
C2478 C 0.99043 0.40567 0.33424 0.0
C2479 C 0.01987 0.46746 0.33649 0.0
C2480 C 0.98303 0.38062 0.31688 0.0
C2481 C 0.95045 0.31388 0.32502 0.0
N2482 N 0.00577 0.43879 0.33048 0.0
N2483 N 0.96121 0.34235 0.33101 0.0
H2484 H 0.57291 0.57369 0.35834 0.0
H2485 H 0.64791 0.61319 0.30217 0.0
H2486 H 0.5084 0.53259 0.332 0.0
H2487 H 0.71199 0.65747 0.32849 0.0
H2488 H 0.5971 0.57953 0.31301 0.0
H2489 H 0.62501 0.60049 0.34761 0.0
C2490 C 0.56988 0.57016 0.35029 0.0
C2491 C 0.53657 0.55136 0.34599 0.0
C2492 C 0.62224 0.59673 0.31642 0.0
C2493 C 0.59562 0.58176 0.33368 0.0
C2494 C 0.65118 0.61596 0.31024 0.0
C2495 C 0.68387 0.63896 0.31444 0.0
C2496 C 0.62615 0.60028 0.3269 0.0
C2497 C 0.68693 0.64113 0.32493 0.0
C2498 C 0.5995 0.58538 0.34416 0.0
C2499 C 0.53379 0.54694 0.33556 0.0
N2500 N 0.65838 0.62217 0.33081 0.0
N2501 N 0.56295 0.5623 0.32973 0.0
H2502 H 0.35819 0.07339 0.32559 0.0
H2503 H 0.4606 0.96736 0.33143 0.0
H2504 H 0.37375 0.01802 0.30132 0.0
H2505 H 0.43354 0.0113 0.35639 0.0
H2506 H 0.43614 0.99281 0.3199 0.0
H2507 H 0.3923 0.05741 0.33663 0.0
C2508 C 0.36851 0.0575 0.32264 0.0
C2509 C 0.36212 0.04579 0.31267 0.0
C2510 C 0.4358 0.99719 0.32789 0.0
C2511 C 0.402 0.02837 0.32512 0.0
C2512 C 0.44993 0.98288 0.33444 0.0
C2513 C 0.44884 0.98729 0.34482 0.0
C2514 C 0.42043 0.01593 0.33177 0.0
C2515 C 0.43451 0.0072 0.34841 0.0
C2516 C 0.38824 0.0487 0.3289 0.0
C2517 C 0.37758 0.02693 0.30904 0.0
N2518 N 0.42063 0.02067 0.34189 0.0
N2519 N 0.39655 0.01847 0.31529 0.0
H2520 H 0.95903 0.22585 0.26948 0.0
H2521 H 0.06429 0.17828 0.22981 0.0
H2522 H 0.94799 0.12332 0.26682 0.0
H2523 H 0.05059 0.26801 0.22634 0.0
H2524 H 0.02791 0.16175 0.24485 0.0
H2525 H 0.99663 0.24451 0.25461 0.0
C2526 C 0.96411 0.20712 0.2657 0.0
C2527 C 0.95033 0.17295 0.26941 0.0
C2528 C 0.03305 0.18517 0.24082 0.0
C2529 C 0.99397 0.19443 0.25256 0.0
C2530 C 0.05417 0.19488 0.23229 0.0
C2531 C 0.06039 0.22451 0.22675 0.0
C2532 C 0.01824 0.20534 0.2439 0.0
C2533 C 0.04638 0.24487 0.23034 0.0
C2534 C 0.98571 0.21786 0.25724 0.0
C2535 C 0.95787 0.14985 0.26421 0.0
N2536 N 0.02583 0.23483 0.23868 0.0
N2537 N 0.97947 0.16112 0.25611 0.0
H2538 H 0.82987 0.88436 0.22857 0.0
H2539 H 0.77534 0.73566 0.27032 0.0
H2540 H 0.72832 0.79097 0.2297 0.0
H2541 H 0.88175 0.81791 0.26528 0.0
H2542 H 0.7567 0.75699 0.25603 0.0
H2543 H 0.8476 0.86355 0.24322 0.0
C2544 C 0.81101 0.85989 0.23203 0.0
C2545 C 0.77758 0.83932 0.22786 0.0
C2546 C 0.78418 0.77018 0.258 0.0
C2547 C 0.798 0.81501 0.24449 0.0
C2548 C 0.7949 0.75786 0.26611 0.0
C2549 C 0.83019 0.77502 0.26903 0.0
C2550 C 0.80883 0.80013 0.2528 0.0
C2551 C 0.85431 0.80372 0.26329 0.0
C2552 C 0.82134 0.84779 0.24031 0.0
C2553 C 0.75441 0.80763 0.23262 0.0
N2554 N 0.84312 0.81559 0.25552 0.0
N2555 N 0.76513 0.79636 0.24063 0.0
H2556 H 0.20795 0.93908 0.22774 0.0
H2557 H 0.1587 0.03956 0.26886 0.0
H2558 H 0.10402 0.92405 0.23113 0.0
H2559 H 0.25719 0.04091 0.26822 0.0
H2560 H 0.13956 0.00086 0.25423 0.0
H2561 H 0.22687 0.97774 0.24229 0.0
C2562 C 0.18893 0.94345 0.23164 0.0
C2563 C 0.15432 0.92826 0.22819 0.0
C2564 C 0.16545 0.00986 0.25726 0.0
C2565 C 0.1761 0.97331 0.24475 0.0
C2566 C 0.17659 0.03234 0.26554 0.0
C2567 C 0.2096 0.04348 0.26981 0.0
C2568 C 0.18755 -0.00139 0.2532 0.0
C2569 C 0.23147 0.0329 0.26522 0.0
C2570 C 0.19984 0.96575 0.23992 0.0
C2571 C 0.13089 0.93497 0.23356 0.0
N2572 N 0.22 0.01097 0.25721 0.0
N2573 N 0.1423 0.95729 0.24151 0.0
H2574 H 0.96086 0.74056 0.77076 0.0
H2575 H 0.05067 0.88479 0.72761 0.0
H2576 H 0.93442 0.82071 0.76473 0.0
H2577 H 0.05576 0.78966 0.7284 0.0
H2578 H 0.01524 0.86616 0.7429 0.0
H2579 H 0.00074 0.76121 0.75639 0.0
C2580 C 0.96309 0.76221 0.76636 0.0
C2581 C 0.94413 0.77883 0.76896 0.0
C2582 C 0.02443 0.84955 0.73978 0.0
C2583 C 0.99037 0.8031 0.75266 0.0
C2584 C 0.04506 0.86039 0.73112 0.0
C2585 C 0.05603 0.83865 0.72667 0.0
C2586 C 0.01494 0.8169 0.74405 0.0
C2587 C 0.04766 0.80714 0.73152 0.0
C2588 C 0.98603 0.77411 0.75819 0.0
C2589 C 0.94828 0.80691 0.76299 0.0
N2590 N 0.02743 0.7971 0.73991 0.0
N2591 N 0.97112 0.8183 0.75517 0.0
H2592 H 0.27066 0.20814 0.76999 0.0
H2593 H 0.11776 0.16536 0.73065 0.0
H2594 H 0.17257 0.11066 0.76965 0.0
H2595 H 0.22201 0.25429 0.72799 0.0
H2596 H 0.13655 0.14624 0.74543 0.0
H2597 H 0.25339 0.2256 0.75462 0.0
C2598 C 0.24573 0.19013 0.7666 0.0
C2599 C 0.22297 0.15793 0.77116 0.0
C2600 C 0.15527 0.16999 0.74162 0.0
C2601 C 0.2027 0.17816 0.75367 0.0
C2602 C 0.14447 0.18114 0.73324 0.0
C2603 C 0.16833 0.2115 0.72806 0.0
C2604 C 0.19013 0.18942 0.74488 0.0
C2605 C 0.2027 0.23069 0.73173 0.0
C2606 C 0.23579 0.20023 0.75785 0.0
C2607 C 0.191 0.1357 0.7664 0.0
N2608 N 0.21255 0.2193 0.7399 0.0
N2609 N 0.18164 0.14641 0.75798 0.0
H2610 H 0.88751 0.07014 0.76525 0.0
H2611 H 0.73219 0.9591 0.72678 0.0
H2612 H 0.78476 0.05835 0.76838 0.0
H2613 H 0.82204 0.94568 0.73028 0.0
H2614 H 0.75264 -0.00031 0.74097 0.0
H2615 H 0.86663 0.03102 0.75075 0.0
C2616 C 0.86079 0.06 0.76276 0.0
C2617 C 0.83781 0.06747 0.76807 0.0
C2618 C 0.76767 0.98759 0.73869 0.0
C2619 C 0.81364 0.02217 0.7516 0.0
C2620 C 0.75592 0.96425 0.73063 0.0
C2621 C 0.77539 0.94888 0.72735 0.0
C2622 C 0.79941 0.99608 0.74339 0.0
C2623 C 0.80603 0.95666 0.7326 0.0
C2624 C 0.84877 0.03727 0.75457 0.0
C2625 C 0.80335 0.0532 0.76454 0.0
N2626 N 0.8173 0.98002 0.74028 0.0
N2627 N 0.79226 0.03113 0.75655 0.0
H2628 H 0.56265 0.46154 0.59512 0.0
H2629 H 0.74507 0.54909 0.56945 0.0
H2630 H 0.65077 0.54593 0.61034 0.0
H2631 H 0.66066 0.54823 0.55288 0.0
H2632 H 0.7093 0.53434 0.5848 0.0
H2633 H 0.5965 0.47978 0.57931 0.0
C2634 C 0.58883 0.48398 0.59511 0.0
C2635 C 0.60381 0.50245 0.60401 0.0
C2636 C 0.69885 0.53757 0.57778 0.0
C2637 C 0.64259 0.52227 0.58626 0.0
C2638 C 0.71915 0.54601 0.56908 0.0
C2639 C 0.70588 0.55036 0.55998 0.0
C2640 C 0.66474 0.53217 0.57724 0.0
C2641 C 0.67196 0.54568 0.55983 0.0
C2642 C 0.60801 0.49429 0.58615 0.0
C2643 C 0.63801 0.53121 0.60363 0.0
N2644 N 0.65225 0.53633 0.56832 0.0
N2645 N 0.65646 0.53988 0.59494 0.0
H2646 H 0.53629 0.16818 0.60282 0.0
H2647 H 0.385 0.11643 0.56269 0.0
H2648 H 0.43597 0.07386 0.60564 0.0
H2649 H 0.47003 0.22195 0.56695 0.0
H2650 H 0.40308 0.09874 0.57793 0.0
H2651 H 0.51388 0.18564 0.58856 0.0
C2652 C 0.5097 0.15082 0.60036 0.0
C2653 C 0.488 0.11946 0.60547 0.0
C2654 C 0.4174 0.12586 0.5756 0.0
C2655 C 0.462 0.1397 0.58919 0.0
C2656 C 0.40696 0.13606 0.56695 0.0
C2657 C 0.42614 0.17071 0.56348 0.0
C2658 C 0.44754 0.15035 0.58073 0.0
C2659 C 0.4544 0.19497 0.56931 0.0
C2660 C 0.49679 0.16107 0.59228 0.0
C2661 C 0.45366 0.09826 0.60194 0.0
N2662 N 0.46459 0.1842 0.57755 0.0
N2663 N 0.44171 0.10877 0.59402 0.0
H2664 H 0.88762 0.33357 0.61327 0.0
H2665 H 0.88532 0.31793 0.5544 0.0
H2666 H 0.89993 0.41911 0.59468 0.0
H2667 H 0.80665 0.23355 0.57223 0.0
H2668 H 0.90477 0.35498 0.56937 0.0
H2669 H 0.87144 0.29621 0.59838 0.0
C2670 C 0.88742 0.34465 0.60603 0.0
C2671 C 0.89525 0.37955 0.60518 0.0
C2672 C 0.88348 0.32825 0.56999 0.0
C2673 C 0.87717 0.33703 0.5882 0.0
C2674 C 0.87256 0.30695 0.56151 0.0
C2675 C 0.84437 0.27252 0.5621 0.0
C2676 C 0.86675 0.31477 0.57917 0.0
C2677 C 0.82847 0.25991 0.57147 0.0
C2678 C 0.87792 0.32322 0.59759 0.0
C2679 C 0.89407 0.39237 0.59564 0.0
N2680 N 0.84008 0.281 0.57969 0.0
N2681 N 0.88548 0.37114 0.58747 0.0
H2682 H 0.71707 0.11363 0.06384 0.0
H2683 H 0.60864 0.16054 0.10251 0.0
H2684 H 0.72128 0.21345 0.0645 0.0
H2685 H 0.62411 0.07209 0.1065 0.0
H2686 H 0.64636 0.1778 0.08776 0.0
H2687 H 0.68183 0.09678 0.07915 0.0
C2688 C 0.7111 0.13225 0.06729 0.0
C2689 C 0.72204 0.16497 0.06284 0.0
C2690 C 0.64141 0.15455 0.09184 0.0
C2691 C 0.681 0.14546 0.08023 0.0
C2692 C 0.61952 0.14441 0.10022 0.0
C2693 C 0.61316 0.11479 0.10579 0.0
C2694 C 0.65692 0.13483 0.08895 0.0
C2695 C 0.62826 0.09512 0.10245 0.0
C2696 C 0.69081 0.12251 0.076 0.0
C2697 C 0.71351 0.188 0.06767 0.0
N2698 N 0.64948 0.10553 0.09426 0.0
N2699 N 0.69313 0.17763 0.07603 0.0
H2700 H 0.88783 0.59133 0.05923 0.0
H2701 H 0.84663 0.43727 0.09808 0.0
H2702 H 0.78927 0.49447 0.06032 0.0
H2703 H 0.93437 0.54195 0.10121 0.0
H2704 H 0.82886 0.45574 0.08297 0.0
H2705 H 0.90742 0.57256 0.07389 0.0
C2706 C 0.87008 0.56632 0.06264 0.0
C2707 C 0.8368 0.54446 0.05853 0.0
C2708 C 0.85217 0.47457 0.08692 0.0
C2709 C 0.85947 0.52246 0.07519 0.0
C2710 C 0.86264 0.46393 0.09548 0.0
C2711 C 0.89197 0.48814 0.10098 0.0
C2712 C 0.87129 0.50958 0.08378 0.0
C2713 C 0.91148 0.52242 0.09726 0.0
C2714 C 0.8814 0.55554 0.07098 0.0
C2715 C 0.81502 0.5123 0.06326 0.0
N2716 N 0.90067 0.53216 0.08893 0.0
N2717 N 0.82687 0.50213 0.07128 0.0
H2718 H 0.49263 0.28341 0.06129 0.0
H2719 H 0.44354 0.38607 0.10144 0.0
H2720 H 0.39591 0.28545 0.05995 0.0
H2721 H 0.54948 0.41043 0.09533 0.0
H2722 H 0.42335 0.34484 0.08739 0.0
H2723 H 0.51082 0.32348 0.07558 0.0
C2724 C 0.47488 0.29164 0.06414 0.0
C2725 C 0.44274 0.28114 0.05939 0.0
C2726 C 0.45104 0.35951 0.08908 0.0
C2727 C 0.46368 0.32745 0.07562 0.0
C2728 C 0.46262 0.38321 0.09705 0.0
C2729 C 0.49828 0.40179 0.09958 0.0
C2730 C 0.4752 0.35391 0.08371 0.0
C2731 C 0.52179 0.39687 0.09364 0.0
C2732 C 0.4855 0.3149 0.0722 0.0
C2733 C 0.42099 0.293 0.06335 0.0
N2734 N 0.50978 0.37311 0.08607 0.0
N2735 N 0.4319 0.31562 0.07121 0.0
H2736 H 0.28418 0.78498 0.9357 0.0
H2737 H 0.38547 0.93329 0.89434 0.0
H2738 H 0.29334 0.88697 0.9371 0.0
H2739 H 0.39394 0.84027 0.89694 0.0
H2740 H 0.34965 0.91609 0.90954 0.0
H2741 H 0.32006 0.80301 0.92052 0.0
C2742 C 0.29322 0.81096 0.93273 0.0
C2743 C 0.2858 0.83452 0.93772 0.0
C2744 C 0.35963 0.89963 0.90683 0.0
C2745 C 0.32742 0.85551 0.92043 0.0
C2746 C 0.38029 0.90953 0.89818 0.0
C2747 C 0.39272 0.88817 0.89432 0.0
C2748 C 0.35103 0.86796 0.9116 0.0
C2749 C 0.38504 0.85764 0.89962 0.0
C2750 C 0.31405 0.82137 0.92413 0.0
C2751 C 0.29849 0.86795 0.93354 0.0
N2752 N 0.36441 0.84828 0.90793 0.0
N2753 N 0.31878 0.87748 0.92516 0.0
H2754 H 0.10431 0.54273 0.90399 0.0
H2755 H 0.18653 0.43821 0.92798 0.0
H2756 H 0.10075 0.45562 0.88819 0.0
H2757 H 0.11513 0.45592 0.94577 0.0
H2758 H 0.1673 0.45644 0.91293 0.0
H2759 H 0.11964 0.52262 0.91948 0.0
C2760 C 0.10642 0.51932 0.9038 0.0
C2761 C 0.10092 0.50063 0.89483 0.0
C2762 C 0.15589 0.45618 0.92016 0.0
C2763 C 0.11958 0.47859 0.91224 0.0
C2764 C 0.16679 0.44583 0.92869 0.0
C2765 C 0.15202 0.44517 0.93805 0.0
C2766 C 0.13106 0.46706 0.9211 0.0
C2767 C 0.12671 0.45557 0.93863 0.0
C2768 C 0.11515 0.50796 0.91259 0.0
C2769 C 0.10429 0.47059 0.89496 0.0
N2770 N 0.11728 0.46652 0.93028 0.0
N2771 N 0.11392 0.46082 0.90348 0.0
H2772 H 0.60898 0.72111 0.93751 0.0
H2773 H 0.4538 0.60371 0.90038 0.0
H2774 H 0.51724 0.73138 0.93413 0.0
H2775 H 0.55931 0.62616 0.89453 0.0
H2776 H 0.47553 0.64515 0.91428 0.0
H2777 H 0.59126 0.68342 0.92264 0.0
C2778 C 0.58553 0.71607 0.93352 0.0
C2779 C 0.56452 0.72938 0.93708 0.0
C2780 C 0.4939 0.64091 0.90997 0.0
C2781 C 0.54362 0.68543 0.92032 0.0
C2782 C 0.48148 0.61689 0.90211 0.0
C2783 C 0.50476 0.61138 0.89625 0.0
C2784 C 0.52982 0.65931 0.91211 0.0
C2785 C 0.54041 0.62958 0.89883 0.0
C2786 C 0.57536 0.69441 0.92508 0.0
C2787 C 0.53434 0.72188 0.93164 0.0
N2788 N 0.55188 0.65271 0.90659 0.0
N2789 N 0.52448 0.69992 0.92363 0.0
H2790 H 0.37507 0.43998 0.39183 0.0
H2791 H 0.27353 0.48888 0.43248 0.0
H2792 H 0.38504 0.54211 0.39432 0.0
H2793 H 0.28619 0.39837 0.43545 0.0
H2794 H 0.30878 0.50512 0.41724 0.0
H2795 H 0.3392 0.4219 0.40705 0.0
C2796 C 0.37015 0.45877 0.39565 0.0
C2797 C 0.38309 0.49264 0.39177 0.0
C2798 C 0.30369 0.4816 0.4212 0.0
C2799 C 0.34138 0.47178 0.40904 0.0
C2800 C 0.28321 0.47206 0.42986 0.0
C2801 C 0.27697 0.44226 0.43532 0.0
C2802 C 0.3179 0.46113 0.4179 0.0
C2803 C 0.29038 0.42162 0.43152 0.0
C2804 C 0.34952 0.44835 0.4043 0.0
C2805 C 0.37578 0.5158 0.39703 0.0
N2806 N 0.31034 0.43152 0.42306 0.0
N2807 N 0.35513 0.50483 0.40533 0.0
H2808 H 0.46804 0.89315 0.40138 0.0
H2809 H 0.55923 0.79644 0.42527 0.0
H2810 H 0.54413 0.88076 0.38423 0.0
H2811 H 0.55395 0.87749 0.44194 0.0
H2812 H 0.54233 0.81597 0.40999 0.0
H2813 H 0.48769 0.87619 0.41663 0.0
C2814 C 0.48888 0.88702 0.40085 0.0
C2815 C 0.5048 0.88875 0.39159 0.0
C2816 C 0.54515 0.82946 0.41702 0.0
C2817 C 0.52628 0.86834 0.40876 0.0
C2818 C 0.55481 0.81844 0.42569 0.0
C2819 C 0.55843 0.83569 0.43482 0.0
C2820 C 0.5379 0.85698 0.41764 0.0
C2821 C 0.55201 0.86384 0.43501 0.0
C2822 C 0.50003 0.87741 0.4095 0.0
C2823 C 0.53154 0.88027 0.39126 0.0
N2824 N 0.54158 0.87333 0.42657 0.0
N2825 N 0.54116 0.86999 0.39969 0.0
H2826 H 0.12323 0.66953 0.44575 0.0
H2827 H 0.10591 0.6596 0.38746 0.0
H2828 H 0.19216 0.75968 0.42793 0.0
H2829 H 0.11716 0.57949 0.40272 0.0
H2830 H 0.12268 0.69414 0.40288 0.0
H2831 H 0.10609 0.63345 0.43052 0.0
C2832 C 0.13434 0.68181 0.4386 0.0
C2833 C 0.15891 0.71767 0.43804 0.0
C2834 C 0.12122 0.6689 0.40284 0.0
C2835 C 0.13921 0.67671 0.42074 0.0
C2836 C 0.11135 0.64898 0.39411 0.0
C2837 C 0.10989 0.61646 0.39386 0.0
C2838 C 0.12876 0.65586 0.41146 0.0
C2839 C 0.11787 0.60435 0.40264 0.0
C2840 C 0.12484 0.66114 0.42999 0.0
C2841 C 0.17304 0.73217 0.42865 0.0
N2842 N 0.12663 0.62396 0.41118 0.0
N2843 N 0.16261 0.71166 0.42031 0.0
loop_
_geom_bond_atom_site_label_1
_geom_bond_atom_site_label_2
_geom_bond_distance
_geom_bond_site_symmetry_2
_ccdc_geom_bond_type
Co0 O3 1.970 . S
Co0 N17 1.989 . S
Co0 O25 1.967 . S
Co0 O32 1.920 . S
Co1 O4 1.966 . S
Co1 N10 2.022 . S
Co1 N18 1.993 . S
Co1 O26 1.941 . S
C2 O3 1.258 . S
C2 O4 1.263 . S
O3 Co0 1.970 . S
O3 C2 1.258 . S
O4 Co1 1.966 . S
O4 C2 1.263 . S
C5 O6 1.235 . S
C5 O32 1.289 . S
O6 C5 1.235 . S
C7 C9 1.400 . S
C7 N10 1.351 . S
C7 C12 1.501 . S
C8 C9 1.387 . S
C8 N11 1.341 . S
C9 C7 1.400 . S
C9 C8 1.387 . S
N10 Co1 2.022 . S
N10 C7 1.351 . S
N10 N11 1.365 . S
N11 C8 1.341 . S
N11 N10 1.365 . S
N11 H31 0.862 . S
C12 C7 1.501 . S
C12 H13 0.961 . S
C12 H14 0.961 . S
C12 H15 0.960 1_455 S
H13 C12 0.961 . S
H14 C12 0.961 . S
H15 C12 0.960 1_655 S
C16 N17 1.342 . S
C16 C20 1.401 . S
C16 C21 1.499 . S
N17 Co0 1.989 . S
N17 C16 1.342 . S
N17 N18 1.388 . S
N18 Co1 1.993 . S
N18 N17 1.388 . S
N18 C19 1.346 . S
C19 N18 1.346 . S
C19 C20 1.396 . S
C19 C29 1.510 . S
C20 C16 1.401 . S
C20 C19 1.396 . S
C21 C16 1.499 . S
C21 H22 0.959 . S
C21 H23 0.960 . S
C21 H24 0.961 . S
H22 C21 0.959 . S
H23 C21 0.960 . S
H24 C21 0.961 . S
O25 Co0 1.967 . S
O25 C33 1.258 . S
O26 Co1 1.941 . S
O26 C33 1.266 . S
H27 C29 0.959 . S
H28 C29 0.961 . S
C29 C19 1.510 . S
C29 H27 0.959 . S
C29 H28 0.961 . S
C29 H30 0.960 . S
H30 C29 0.960 . S
H31 N11 0.862 . S
O32 Co0 1.920 . S
O32 C5 1.289 . S
C33 O25 1.258 . S
C33 O26 1.266 . S
Co34 O37 1.970 . S
Co34 N51 1.989 . S
Co34 O59 1.967 . S
Co34 O66 1.920 . S
Co35 O38 1.966 . S
Co35 N44 2.022 . S
Co35 N52 1.993 . S
Co35 O60 1.941 . S
C36 O37 1.258 . S
C36 O38 1.263 . S
O37 Co34 1.970 . S
O37 C36 1.258 . S
O38 Co35 1.966 . S
O38 C36 1.263 . S
C39 O40 1.235 . S
C39 O66 1.289 . S
O40 C39 1.235 . S
C41 C43 1.400 . S
C41 N44 1.351 . S
C41 C46 1.501 . S
C42 C43 1.387 . S
C42 N45 1.341 . S
C43 C41 1.400 . S
C43 C42 1.387 . S
N44 Co35 2.022 . S
N44 C41 1.351 . S
N44 N45 1.365 . S
N45 C42 1.341 . S
N45 N44 1.365 . S
N45 H65 0.862 . S
C46 C41 1.501 . S
C46 H47 0.961 . S
C46 H48 0.961 . S
C46 H49 0.960 . S
H47 C46 0.961 . S
H48 C46 0.961 . S
H49 C46 0.960 . S
C50 N51 1.342 . S
C50 C54 1.401 . S
C50 C55 1.499 . S
N51 Co34 1.989 . S
N51 C50 1.342 . S
N51 N52 1.388 . S
N52 Co35 1.993 . S
N52 N51 1.388 . S
N52 C53 1.346 . S
C53 N52 1.346 . S
C53 C54 1.396 . S
C53 C63 1.510 . S
C54 C50 1.401 . S
C54 C53 1.396 . S
C55 C50 1.499 . S
C55 H56 0.959 . S
C55 H57 0.960 . S
C55 H58 0.961 . S
H56 C55 0.959 . S
H57 C55 0.960 . S
H58 C55 0.961 . S
O59 Co34 1.967 . S
O59 C67 1.258 . S
O60 Co35 1.941 . S
O60 C67 1.266 . S
H61 C63 0.959 . S
H62 C63 0.961 . S
C63 C53 1.510 . S
C63 H61 0.959 . S
C63 H62 0.961 . S
C63 H64 0.960 . S
H64 C63 0.960 . S
H65 N45 0.862 . S
O66 Co34 1.920 . S
O66 C39 1.289 . S
C67 O59 1.258 . S
C67 O60 1.266 . S
Co68 O71 1.970 . S
Co68 N85 1.989 . S
Co68 O93 1.967 . S
Co68 O100 1.920 . S
Co69 O72 1.966 . S
Co69 N78 2.022 . S
Co69 N86 1.993 . S
Co69 O94 1.941 . S
C70 O71 1.258 . S
C70 O72 1.263 . S
O71 Co68 1.970 . S
O71 C70 1.258 . S
O72 Co69 1.966 . S
O72 C70 1.263 . S
C73 O74 1.235 . S
C73 O100 1.289 . S
O74 C73 1.235 . S
C75 C77 1.400 . S
C75 N78 1.351 . S
C75 C80 1.501 . S
C76 C77 1.387 . S
C76 N79 1.341 . S
C77 C75 1.400 . S
C77 C76 1.387 . S
N78 Co69 2.022 . S
N78 C75 1.351 . S
N78 N79 1.365 . S
N79 C76 1.341 . S
N79 N78 1.365 . S
N79 H99 0.862 . S
C80 C75 1.501 . S
C80 H81 0.961 . S
C80 H82 0.961 . S
C80 H83 0.960 1_565 S
H81 C80 0.961 . S
H82 C80 0.961 . S
H83 C80 0.960 1_545 S
C84 N85 1.342 . S
C84 C88 1.401 . S
C84 C89 1.499 . S
N85 Co68 1.989 . S
N85 C84 1.342 . S
N85 N86 1.388 . S
N86 Co69 1.993 . S
N86 N85 1.388 . S
N86 C87 1.346 . S
C87 N86 1.346 . S
C87 C88 1.396 . S
C87 C97 1.510 . S
C88 C84 1.401 . S
C88 C87 1.396 . S
C89 C84 1.499 . S
C89 H90 0.959 . S
C89 H91 0.960 . S
C89 H92 0.961 . S
H90 C89 0.959 . S
H91 C89 0.960 . S
H92 C89 0.961 . S
O93 Co68 1.967 . S
O93 C101 1.258 . S
O94 Co69 1.941 . S
O94 C101 1.266 . S
H95 C97 0.959 . S
H96 C97 0.961 . S
C97 C87 1.510 . S
C97 H95 0.959 . S
C97 H96 0.961 . S
C97 H98 0.960 . S
H98 C97 0.960 . S
H99 N79 0.862 . S
O100 Co68 1.920 . S
O100 C73 1.289 . S
C101 O93 1.258 . S
C101 O94 1.266 . S
Co102 O105 1.970 . S
Co102 N119 1.989 . S
Co102 O127 1.967 . S
Co102 O134 1.920 . S
Co103 O106 1.966 . S
Co103 N112 2.022 . S
Co103 N120 1.993 . S
Co103 O128 1.941 . S
C104 O105 1.258 . S
C104 O106 1.263 . S
O105 Co102 1.970 . S
O105 C104 1.258 . S
O106 Co103 1.966 . S
O106 C104 1.263 . S
C107 O108 1.235 . S
C107 O134 1.289 . S
O108 C107 1.235 . S
C109 C111 1.400 . S
C109 N112 1.351 . S
C109 C114 1.501 . S
C110 C111 1.387 . S
C110 N113 1.341 . S
C111 C109 1.400 . S
C111 C110 1.387 . S
N112 Co103 2.022 . S
N112 C109 1.351 . S
N112 N113 1.365 . S
N113 C110 1.341 . S
N113 N112 1.365 . S
N113 H133 0.862 . S
C114 C109 1.501 . S
C114 H115 0.961 . S
C114 H116 0.961 . S
C114 H117 0.960 1_545 S
H115 C114 0.961 . S
H116 C114 0.961 . S
H117 C114 0.960 1_565 S
C118 N119 1.342 . S
C118 C122 1.401 . S
C118 C123 1.499 . S
N119 Co102 1.989 . S
N119 C118 1.342 . S
N119 N120 1.388 . S
N120 Co103 1.993 . S
N120 N119 1.388 . S
N120 C121 1.346 . S
C121 N120 1.346 . S
C121 C122 1.396 . S
C121 C131 1.510 . S
C122 C118 1.401 . S
C122 C121 1.396 . S
C123 C118 1.499 . S
C123 H124 0.959 . S
C123 H125 0.960 . S
C123 H126 0.961 . S
H124 C123 0.959 . S
H125 C123 0.960 . S
H126 C123 0.961 . S
O127 Co102 1.967 . S
O127 C135 1.258 . S
O128 Co103 1.941 . S
O128 C135 1.266 . S
H129 C131 0.959 . S
H130 C131 0.961 . S
C131 C121 1.510 . S
C131 H129 0.959 . S
C131 H130 0.961 . S
C131 H132 0.960 . S
H132 C131 0.960 . S
H133 N113 0.862 . S
O134 Co102 1.920 . S
O134 C107 1.289 . S
C135 O127 1.258 . S
C135 O128 1.266 . S
Co136 O139 1.970 . S
Co136 N153 1.989 . S
Co136 O161 1.967 . S
Co136 O168 1.920 . S
Co137 O140 1.966 . S
Co137 N146 2.022 . S
Co137 N154 1.993 . S
Co137 O162 1.941 . S
C138 O139 1.258 . S
C138 O140 1.263 . S
O139 Co136 1.970 . S
O139 C138 1.258 . S
O140 Co137 1.966 . S
O140 C138 1.263 . S
C141 O142 1.235 . S
C141 O168 1.289 . S
O142 C141 1.235 . S
C143 C145 1.400 . S
C143 N146 1.351 . S
C143 C148 1.501 . S
C144 C145 1.387 . S
C144 N147 1.341 . S
C145 C143 1.400 . S
C145 C144 1.387 . S
N146 Co137 2.022 . S
N146 C143 1.351 . S
N146 N147 1.365 . S
N147 C144 1.341 . S
N147 N146 1.365 . S
N147 H167 0.862 . S
C148 C143 1.501 . S
C148 H149 0.961 . S
C148 H150 0.961 . S
C148 H151 0.960 1_655 S
H149 C148 0.961 . S
H150 C148 0.961 . S
H151 C148 0.960 1_455 S
C152 N153 1.342 . S
C152 C156 1.401 . S
C152 C157 1.499 . S
N153 Co136 1.989 . S
N153 C152 1.342 . S
N153 N154 1.388 . S
N154 Co137 1.993 . S
N154 N153 1.388 . S
N154 C155 1.346 . S
C155 N154 1.346 . S
C155 C156 1.396 . S
C155 C165 1.510 . S
C156 C152 1.401 . S
C156 C155 1.396 . S
C157 C152 1.499 . S
C157 H158 0.959 . S
C157 H159 0.960 . S
C157 H160 0.961 . S
H158 C157 0.959 . S
H159 C157 0.960 . S
H160 C157 0.961 . S
O161 Co136 1.967 . S
O161 C169 1.258 . S
O162 Co137 1.941 . S
O162 C169 1.266 . S
H163 C165 0.959 . S
H164 C165 0.961 . S
C165 C155 1.510 . S
C165 H163 0.959 . S
C165 H164 0.961 . S
C165 H166 0.960 . S
H166 C165 0.960 . S
H167 N147 0.862 . S
O168 Co136 1.920 . S
O168 C141 1.289 . S
C169 O161 1.258 . S
C169 O162 1.266 . S
Co170 O173 1.970 . S
Co170 N187 1.989 . S
Co170 O195 1.967 . S
Co170 O202 1.920 . S
Co171 O174 1.966 . S
Co171 N180 2.022 . S
Co171 N188 1.993 . S
Co171 O196 1.941 . S
C172 O173 1.258 . S
C172 O174 1.263 . S
O173 Co170 1.970 . S
O173 C172 1.258 . S
O174 Co171 1.966 . S
O174 C172 1.263 . S
C175 O176 1.235 . S
C175 O202 1.289 . S
O176 C175 1.235 . S
C177 C179 1.400 . S
C177 N180 1.351 . S
C177 C182 1.501 . S
C178 C179 1.387 . S
C178 N181 1.341 . S
C179 C177 1.400 . S
C179 C178 1.387 . S
N180 Co171 2.022 . S
N180 C177 1.351 . S
N180 N181 1.365 . S
N181 C178 1.341 . S
N181 N180 1.365 . S
N181 H201 0.862 . S
C182 C177 1.501 . S
C182 H183 0.961 . S
C182 H184 0.961 . S
C182 H185 0.960 . S
H183 C182 0.961 . S
H184 C182 0.961 . S
H185 C182 0.960 . S
C186 N187 1.342 . S
C186 C190 1.401 . S
C186 C191 1.499 . S
N187 Co170 1.989 . S
N187 C186 1.342 . S
N187 N188 1.388 . S
N188 Co171 1.993 . S
N188 N187 1.388 . S
N188 C189 1.346 . S
C189 N188 1.346 . S
C189 C190 1.396 . S
C189 C199 1.510 . S
C190 C186 1.401 . S
C190 C189 1.396 . S
C191 C186 1.499 . S
C191 H192 0.959 . S
C191 H193 0.960 . S
C191 H194 0.961 . S
H192 C191 0.959 . S
H193 C191 0.960 . S
H194 C191 0.961 . S
O195 Co170 1.967 . S
O195 C203 1.258 . S
O196 Co171 1.941 . S
O196 C203 1.266 . S
H197 C199 0.959 . S
H198 C199 0.961 . S
C199 C189 1.510 . S
C199 H197 0.959 . S
C199 H198 0.961 . S
C199 H200 0.960 . S
H200 C199 0.960 . S
H201 N181 0.862 . S
O202 Co170 1.920 . S
O202 C175 1.289 . S
C203 O195 1.258 . S
C203 O196 1.266 . S
Co204 O207 1.970 . S
Co204 N221 1.989 . S
Co204 O229 1.967 . S
Co204 O236 1.920 . S
Co205 O208 1.966 . S
Co205 N214 2.022 . S
Co205 N222 1.993 . S
Co205 O230 1.941 . S
C206 O207 1.258 . S
C206 O208 1.263 . S
O207 Co204 1.970 . S
O207 C206 1.258 . S
O208 Co205 1.966 . S
O208 C206 1.263 . S
C209 O210 1.235 . S
C209 O236 1.289 . S
O210 C209 1.235 . S
C211 C213 1.400 . S
C211 N214 1.351 . S
C211 C216 1.501 . S
C212 C213 1.387 . S
C212 N215 1.341 . S
C213 C211 1.400 . S
C213 C212 1.387 . S
N214 Co205 2.022 . S
N214 C211 1.351 . S
N214 N215 1.365 . S
N215 C212 1.341 . S
N215 N214 1.365 . S
N215 H235 0.862 . S
C216 C211 1.501 . S
C216 H217 0.961 . S
C216 H218 0.961 . S
C216 H219 0.960 1_655 S
H217 C216 0.961 . S
H218 C216 0.961 . S
H219 C216 0.960 1_455 S
C220 N221 1.342 . S
C220 C224 1.401 . S
C220 C225 1.499 . S
N221 Co204 1.989 . S
N221 C220 1.342 . S
N221 N222 1.388 . S
N222 Co205 1.993 . S
N222 N221 1.388 . S
N222 C223 1.346 . S
C223 N222 1.346 . S
C223 C224 1.396 . S
C223 C233 1.510 . S
C224 C220 1.401 . S
C224 C223 1.396 . S
C225 C220 1.499 . S
C225 H226 0.959 . S
C225 H227 0.960 . S
C225 H228 0.961 . S
H226 C225 0.959 . S
H227 C225 0.960 . S
H228 C225 0.961 . S
O229 Co204 1.967 . S
O229 C237 1.258 . S
O230 Co205 1.941 . S
O230 C237 1.266 . S
H231 C233 0.959 . S
H232 C233 0.961 . S
C233 C223 1.510 . S
C233 H231 0.959 . S
C233 H232 0.961 . S
C233 H234 0.960 . S
H234 C233 0.960 . S
H235 N215 0.862 . S
O236 Co204 1.920 . S
O236 C209 1.289 . S
C237 O229 1.258 . S
C237 O230 1.266 . S
Co238 O241 1.970 . S
Co238 N255 1.989 . S
Co238 O263 1.967 . S
Co238 O270 1.920 . S
Co239 O242 1.966 . S
Co239 N248 2.022 . S
Co239 N256 1.993 . S
Co239 O264 1.941 . S
C240 O241 1.258 . S
C240 O242 1.263 . S
O241 Co238 1.970 . S
O241 C240 1.258 . S
O242 Co239 1.966 . S
O242 C240 1.263 . S
C243 O244 1.235 . S
C243 O270 1.289 . S
O244 C243 1.235 . S
C245 C247 1.400 . S
C245 N248 1.351 . S
C245 C250 1.501 . S
C246 C247 1.387 . S
C246 N249 1.341 . S
C247 C245 1.400 . S
C247 C246 1.387 . S
N248 Co239 2.022 . S
N248 C245 1.351 . S
N248 N249 1.365 . S
N249 C246 1.341 . S
N249 N248 1.365 . S
N249 H269 0.862 . S
C250 C245 1.501 . S
C250 H251 0.961 . S
C250 H252 0.961 . S
C250 H253 0.960 . S
H251 C250 0.961 . S
H252 C250 0.961 . S
H253 C250 0.960 . S
C254 N255 1.342 . S
C254 C258 1.401 . S
C254 C259 1.499 . S
N255 Co238 1.989 . S
N255 C254 1.342 . S
N255 N256 1.388 . S
N256 Co239 1.993 . S
N256 N255 1.388 . S
N256 C257 1.346 . S
C257 N256 1.346 . S
C257 C258 1.396 . S
C257 C267 1.510 . S
C258 C254 1.401 . S
C258 C257 1.396 . S
C259 C254 1.499 . S
C259 H260 0.959 . S
C259 H261 0.960 . S
C259 H262 0.961 . S
H260 C259 0.959 . S
H261 C259 0.960 . S
H262 C259 0.961 . S
O263 Co238 1.967 . S
O263 C271 1.258 . S
O264 Co239 1.941 . S
O264 C271 1.266 . S
H265 C267 0.959 . S
H266 C267 0.961 . S
C267 C257 1.510 . S
C267 H265 0.959 . S
C267 H266 0.961 . S
C267 H268 0.960 . S
H268 C267 0.960 . S
H269 N249 0.862 . S
O270 Co238 1.920 . S
O270 C243 1.289 . S
C271 O263 1.258 . S
C271 O264 1.266 . S
Co272 O275 1.970 . S
Co272 N289 1.989 . S
Co272 O297 1.967 . S
Co272 O304 1.920 . S
Co273 O276 1.966 . S
Co273 N282 2.022 . S
Co273 N290 1.993 . S
Co273 O298 1.941 . S
C274 O275 1.258 . S
C274 O276 1.263 . S
O275 Co272 1.970 . S
O275 C274 1.258 . S
O276 Co273 1.966 . S
O276 C274 1.263 . S
C277 O278 1.235 . S
C277 O304 1.289 . S
O278 C277 1.235 . S
C279 C281 1.400 . S
C279 N282 1.351 . S
C279 C284 1.501 . S
C280 C281 1.387 . S
C280 N283 1.341 . S
C281 C279 1.400 . S
C281 C280 1.387 . S
N282 Co273 2.022 . S
N282 C279 1.351 . S
N282 N283 1.365 . S
N283 C280 1.341 . S
N283 N282 1.365 . S
N283 H303 0.862 . S
C284 C279 1.501 . S
C284 H285 0.961 . S
C284 H286 0.961 . S
C284 H287 0.960 1_545 S
H285 C284 0.961 . S
H286 C284 0.961 . S
H287 C284 0.960 1_565 S
C288 N289 1.342 . S
C288 C292 1.401 . S
C288 C293 1.499 . S
N289 Co272 1.989 . S
N289 C288 1.342 . S
N289 N290 1.388 . S
N290 Co273 1.993 . S
N290 N289 1.388 . S
N290 C291 1.346 . S
C291 N290 1.346 . S
C291 C292 1.396 . S
C291 C301 1.510 . S
C292 C288 1.401 . S
C292 C291 1.396 . S
C293 C288 1.499 . S
C293 H294 0.959 . S
C293 H295 0.960 . S
C293 H296 0.961 . S
H294 C293 0.959 . S
H295 C293 0.960 . S
H296 C293 0.961 . S
O297 Co272 1.967 . S
O297 C305 1.258 . S
O298 Co273 1.941 . S
O298 C305 1.266 . S
H299 C301 0.959 . S
H300 C301 0.961 . S
C301 C291 1.510 . S
C301 H299 0.959 . S
C301 H300 0.961 . S
C301 H302 0.960 . S
H302 C301 0.960 . S
H303 N283 0.862 . S
O304 Co272 1.920 . S
O304 C277 1.289 . S
C305 O297 1.258 . S
C305 O298 1.266 . S
Co306 O309 1.970 . S
Co306 N323 1.989 . S
Co306 O331 1.967 . S
Co306 O338 1.920 . S
Co307 O310 1.966 . S
Co307 N316 2.022 . S
Co307 N324 1.993 . S
Co307 O332 1.941 . S
C308 O309 1.258 . S
C308 O310 1.263 . S
O309 Co306 1.970 . S
O309 C308 1.258 . S
O310 Co307 1.966 . S
O310 C308 1.263 . S
C311 O312 1.235 . S
C311 O338 1.289 . S
O312 C311 1.235 . S
C313 C315 1.400 . S
C313 N316 1.351 . S
C313 C318 1.501 . S
C314 C315 1.387 . S
C314 N317 1.341 . S
C315 C313 1.400 . S
C315 C314 1.387 . S
N316 Co307 2.022 . S
N316 C313 1.351 . S
N316 N317 1.365 . S
N317 C314 1.341 . S
N317 N316 1.365 . S
N317 H337 0.862 . S
C318 C313 1.501 . S
C318 H319 0.961 . S
C318 H320 0.961 . S
C318 H321 0.960 1_565 S
H319 C318 0.961 . S
H320 C318 0.961 . S
H321 C318 0.960 1_545 S
C322 N323 1.342 . S
C322 C326 1.401 . S
C322 C327 1.499 . S
N323 Co306 1.989 . S
N323 C322 1.342 . S
N323 N324 1.388 . S
N324 Co307 1.993 . S
N324 N323 1.388 . S
N324 C325 1.346 . S
C325 N324 1.346 . S
C325 C326 1.396 . S
C325 C335 1.510 . S
C326 C322 1.401 . S
C326 C325 1.396 . S
C327 C322 1.499 . S
C327 H328 0.959 . S
C327 H329 0.960 . S
C327 H330 0.961 . S
H328 C327 0.959 . S
H329 C327 0.960 . S
H330 C327 0.961 . S
O331 Co306 1.967 . S
O331 C339 1.258 . S
O332 Co307 1.941 . S
O332 C339 1.266 . S
H333 C335 0.959 . S
H334 C335 0.961 . S
C335 C325 1.510 . S
C335 H333 0.959 . S
C335 H334 0.961 . S
C335 H336 0.960 . S
H336 C335 0.960 . S
H337 N317 0.862 . S
O338 Co306 1.920 . S
O338 C311 1.289 . S
C339 O331 1.258 . S
C339 O332 1.266 . S
Co340 O343 1.970 . S
Co340 N357 1.989 . S
Co340 O365 1.967 . S
Co340 O372 1.920 . S
Co341 O344 1.966 . S
Co341 N350 2.022 . S
Co341 N358 1.993 . S
Co341 O366 1.941 . S
C342 O343 1.258 . S
C342 O344 1.263 . S
O343 Co340 1.970 . S
O343 C342 1.258 . S
O344 Co341 1.966 . S
O344 C342 1.263 . S
C345 O346 1.235 . S
C345 O372 1.289 . S
O346 C345 1.235 . S
C347 C349 1.400 . S
C347 N350 1.351 . S
C347 C352 1.501 . S
C348 C349 1.387 . S
C348 N351 1.341 . S
C349 C347 1.400 . S
C349 C348 1.387 . S
N350 Co341 2.022 . S
N350 C347 1.351 . S
N350 N351 1.365 . S
N351 C348 1.341 . S
N351 N350 1.365 . S
N351 H371 0.862 . S
C352 C347 1.501 . S
C352 H353 0.961 . S
C352 H354 0.961 . S
C352 H355 0.960 1_455 S
H353 C352 0.961 . S
H354 C352 0.961 . S
H355 C352 0.960 1_655 S
C356 N357 1.342 . S
C356 C360 1.401 . S
C356 C361 1.499 . S
N357 Co340 1.989 . S
N357 C356 1.342 . S
N357 N358 1.388 . S
N358 Co341 1.993 . S
N358 N357 1.388 . S
N358 C359 1.346 . S
C359 N358 1.346 . S
C359 C360 1.396 . S
C359 C369 1.510 . S
C360 C356 1.401 . S
C360 C359 1.396 . S
C361 C356 1.499 . S
C361 H362 0.959 . S
C361 H363 0.960 . S
C361 H364 0.961 . S
H362 C361 0.959 . S
H363 C361 0.960 . S
H364 C361 0.961 . S
O365 Co340 1.967 . S
O365 C373 1.258 . S
O366 Co341 1.941 . S
O366 C373 1.266 . S
H367 C369 0.959 . S
H368 C369 0.961 . S
C369 C359 1.510 . S
C369 H367 0.959 . S
C369 H368 0.961 . S
C369 H370 0.960 . S
H370 C369 0.960 . S
H371 N351 0.862 . S
O372 Co340 1.920 . S
O372 C345 1.289 . S
C373 O365 1.258 . S
C373 O366 1.266 . S
Co374 O377 1.970 . S
Co374 N391 1.989 . S
Co374 O399 1.967 . S
Co374 O406 1.920 . S
Co375 O378 1.966 . S
Co375 N384 2.022 . S
Co375 N392 1.993 . S
Co375 O400 1.941 . S
C376 O377 1.258 . S
C376 O378 1.263 . S
O377 Co374 1.970 . S
O377 C376 1.258 . S
O378 Co375 1.966 . S
O378 C376 1.263 . S
C379 O380 1.235 . S
C379 O406 1.289 . S
O380 C379 1.235 . S
C381 C383 1.400 . S
C381 N384 1.351 . S
C381 C386 1.501 . S
C382 C383 1.387 . S
C382 N385 1.341 . S
C383 C381 1.400 . S
C383 C382 1.387 . S
N384 Co375 2.022 . S
N384 C381 1.351 . S
N384 N385 1.365 . S
N385 C382 1.341 . S
N385 N384 1.365 . S
N385 H405 0.862 . S
C386 C381 1.501 . S
C386 H387 0.961 . S
C386 H388 0.961 . S
C386 H389 0.960 . S
H387 C386 0.961 . S
H388 C386 0.961 . S
H389 C386 0.960 . S
C390 N391 1.342 . S
C390 C394 1.401 . S
C390 C395 1.499 . S
N391 Co374 1.989 . S
N391 C390 1.342 . S
N391 N392 1.388 . S
N392 Co375 1.993 . S
N392 N391 1.388 . S
N392 C393 1.346 . S
C393 N392 1.346 . S
C393 C394 1.396 . S
C393 C403 1.510 . S
C394 C390 1.401 . S
C394 C393 1.396 . S
C395 C390 1.499 . S
C395 H396 0.959 . S
C395 H397 0.960 . S
C395 H398 0.961 . S
H396 C395 0.959 . S
H397 C395 0.960 . S
H398 C395 0.961 . S
O399 Co374 1.967 . S
O399 C407 1.258 . S
O400 Co375 1.941 . S
O400 C407 1.266 . S
H401 C403 0.959 . S
H402 C403 0.961 . S
C403 C393 1.510 . S
C403 H401 0.959 . S
C403 H402 0.961 . S
C403 H404 0.960 . S
H404 C403 0.960 . S
H405 N385 0.862 . S
O406 Co374 1.920 . S
O406 C379 1.289 . S
C407 O399 1.258 . S
C407 O400 1.266 . S
Co408 O411 1.970 . S
Co408 N425 1.989 . S
Co408 O433 1.967 . S
Co408 O440 1.920 . S
Co409 O412 1.966 . S
Co409 N418 2.022 . S
Co409 N426 1.993 . S
Co409 O434 1.941 . S
C410 O411 1.258 . S
C410 O412 1.263 . S
O411 Co408 1.970 . S
O411 C410 1.258 . S
O412 Co409 1.966 . S
O412 C410 1.263 . S
C413 O414 1.235 . S
C413 O440 1.289 . S
O414 C413 1.235 . S
C415 C417 1.400 . S
C415 N418 1.351 . S
C415 C420 1.501 . S
C416 C417 1.387 . S
C416 N419 1.341 . S
C417 C415 1.400 . S
C417 C416 1.387 . S
N418 Co409 2.022 . S
N418 C415 1.351 . S
N418 N419 1.365 . S
N419 C416 1.341 . S
N419 N418 1.365 . S
N419 H439 0.862 . S
C420 C415 1.501 . S
C420 H421 0.961 . S
C420 H422 0.961 . S
C420 H423 0.960 . S
H421 C420 0.961 . S
H422 C420 0.961 . S
H423 C420 0.960 . S
C424 N425 1.342 . S
C424 C428 1.401 . S
C424 C429 1.499 . S
N425 Co408 1.989 . S
N425 C424 1.342 . S
N425 N426 1.388 . S
N426 Co409 1.993 . S
N426 N425 1.388 . S
N426 C427 1.346 . S
C427 N426 1.346 . S
C427 C428 1.396 . S
C427 C437 1.510 . S
C428 C424 1.401 . S
C428 C427 1.396 . S
C429 C424 1.499 . S
C429 H430 0.959 . S
C429 H431 0.960 . S
C429 H432 0.961 . S
H430 C429 0.959 . S
H431 C429 0.960 . S
H432 C429 0.961 . S
O433 Co408 1.967 . S
O433 C441 1.258 . S
O434 Co409 1.941 . S
O434 C441 1.266 . S
H435 C437 0.959 . S
H436 C437 0.961 . S
C437 C427 1.510 . S
C437 H435 0.959 . S
C437 H436 0.961 . S
C437 H438 0.960 . S
H438 C437 0.960 . S
H439 N419 0.862 . S
O440 Co408 1.920 . S
O440 C413 1.289 . S
C441 O433 1.258 . S
C441 O434 1.266 . S
Co442 O445 1.970 . S
Co442 N459 1.989 . S
Co442 O467 1.967 . S
Co442 O474 1.920 . S
Co443 O446 1.966 . S
Co443 N452 2.022 . S
Co443 N460 1.993 . S
Co443 O468 1.941 . S
C444 O445 1.258 . S
C444 O446 1.263 . S
O445 Co442 1.970 . S
O445 C444 1.258 . S
O446 Co443 1.966 . S
O446 C444 1.263 . S
C447 O448 1.235 . S
C447 O474 1.289 . S
O448 C447 1.235 . S
C449 C451 1.400 . S
C449 N452 1.351 . S
C449 C454 1.501 . S
C450 C451 1.387 . S
C450 N453 1.341 . S
C451 C449 1.400 . S
C451 C450 1.387 . S
N452 Co443 2.022 . S
N452 C449 1.351 . S
N452 N453 1.365 . S
N453 C450 1.341 . S
N453 N452 1.365 . S
N453 H473 0.862 . S
C454 C449 1.501 . S
C454 H455 0.961 . S
C454 H456 0.961 . S
C454 H457 0.960 . S
H455 C454 0.961 . S
H456 C454 0.961 . S
H457 C454 0.960 . S
C458 N459 1.342 . S
C458 C462 1.401 . S
C458 C463 1.499 . S
N459 Co442 1.989 . S
N459 C458 1.342 . S
N459 N460 1.388 . S
N460 Co443 1.993 . S
N460 N459 1.388 . S
N460 C461 1.346 . S
C461 N460 1.346 . S
C461 C462 1.396 . S
C461 C471 1.510 . S
C462 C458 1.401 . S
C462 C461 1.396 . S
C463 C458 1.499 . S
C463 H464 0.959 . S
C463 H465 0.960 . S
C463 H466 0.961 . S
H464 C463 0.959 . S
H465 C463 0.960 . S
H466 C463 0.961 . S
O467 Co442 1.967 . S
O467 C475 1.258 . S
O468 Co443 1.941 . S
O468 C475 1.266 . S
H469 C471 0.959 . S
H470 C471 0.961 . S
C471 C461 1.510 . S
C471 H469 0.959 . S
C471 H470 0.961 . S
C471 H472 0.960 . S
H472 C471 0.960 . S
H473 N453 0.862 . S
O474 Co442 1.920 . S
O474 C447 1.289 . S
C475 O467 1.258 . S
C475 O468 1.266 . S
Co476 O479 1.970 . S
Co476 N493 1.989 . S
Co476 O501 1.967 . S
Co476 O508 1.920 . S
Co477 O480 1.966 . S
Co477 N486 2.022 . S
Co477 N494 1.993 . S
Co477 O502 1.941 . S
C478 O479 1.258 . S
C478 O480 1.263 . S
O479 Co476 1.970 . S
O479 C478 1.258 . S
O480 Co477 1.966 . S
O480 C478 1.263 . S
C481 O482 1.235 . S
C481 O508 1.289 . S
O482 C481 1.235 . S
C483 C485 1.400 . S
C483 N486 1.351 . S
C483 C488 1.501 . S
C484 C485 1.387 . S
C484 N487 1.341 . S
C485 C483 1.400 . S
C485 C484 1.387 . S
N486 Co477 2.022 . S
N486 C483 1.351 . S
N486 N487 1.365 . S
N487 C484 1.341 . S
N487 N486 1.365 . S
N487 H507 0.862 . S
C488 C483 1.501 . S
C488 H489 0.961 . S
C488 H490 0.961 . S
C488 H491 0.960 . S
H489 C488 0.961 . S
H490 C488 0.961 . S
H491 C488 0.960 . S
C492 N493 1.342 . S
C492 C496 1.401 . S
C492 C497 1.499 . S
N493 Co476 1.989 . S
N493 C492 1.342 . S
N493 N494 1.388 . S
N494 Co477 1.993 . S
N494 N493 1.388 . S
N494 C495 1.346 . S
C495 N494 1.346 . S
C495 C496 1.396 . S
C495 C505 1.510 . S
C496 C492 1.401 . S
C496 C495 1.396 . S
C497 C492 1.499 . S
C497 H498 0.959 . S
C497 H499 0.960 . S
C497 H500 0.961 . S
H498 C497 0.959 . S
H499 C497 0.960 . S
H500 C497 0.961 . S
O501 Co476 1.967 . S
O501 C509 1.258 . S
O502 Co477 1.941 . S
O502 C509 1.266 . S
H503 C505 0.959 . S
H504 C505 0.961 . S
C505 C495 1.510 . S
C505 H503 0.959 . S
C505 H504 0.961 . S
C505 H506 0.960 . S
H506 C505 0.960 . S
H507 N487 0.862 . S
O508 Co476 1.920 . S
O508 C481 1.289 . S
C509 O501 1.258 . S
C509 O502 1.266 . S
Co510 O513 1.970 . S
Co510 N527 1.989 . S
Co510 O535 1.967 . S
Co510 O542 1.920 . S
Co511 O514 1.966 . S
Co511 N520 2.022 . S
Co511 N528 1.993 . S
Co511 O536 1.941 . S
C512 O513 1.258 . S
C512 O514 1.263 . S
O513 Co510 1.970 . S
O513 C512 1.258 . S
O514 Co511 1.966 . S
O514 C512 1.263 . S
C515 O516 1.235 . S
C515 O542 1.289 . S
O516 C515 1.235 . S
C517 C519 1.400 . S
C517 N520 1.351 . S
C517 C522 1.501 . S
C518 C519 1.387 1_455 S
C518 N521 1.341 1_455 S
C519 C517 1.400 . S
C519 C518 1.387 1_655 S
N520 Co511 2.022 . S
N520 C517 1.351 . S
N520 N521 1.365 . S
N521 C518 1.341 1_655 S
N521 N520 1.365 . S
N521 H541 0.862 1_655 S
C522 C517 1.501 . S
C522 H523 0.961 . S
C522 H524 0.961 . S
C522 H525 0.960 . S
H523 C522 0.961 . S
H524 C522 0.961 . S
H525 C522 0.960 . S
C526 N527 1.342 . S
C526 C530 1.401 . S
C526 C531 1.499 . S
N527 Co510 1.989 . S
N527 C526 1.342 . S
N527 N528 1.388 . S
N528 Co511 1.993 . S
N528 N527 1.388 . S
N528 C529 1.346 . S
C529 N528 1.346 . S
C529 C530 1.396 . S
C529 C539 1.510 . S
C530 C526 1.401 . S
C530 C529 1.396 . S
C531 C526 1.499 . S
C531 H532 0.959 . S
C531 H533 0.960 . S
C531 H534 0.961 . S
H532 C531 0.959 . S
H533 C531 0.960 . S
H534 C531 0.961 . S
O535 Co510 1.967 . S
O535 C543 1.258 . S
O536 Co511 1.941 . S
O536 C543 1.266 . S
H537 C539 0.959 1_455 S
H538 C539 0.961 . S
C539 C529 1.510 . S
C539 H537 0.959 1_655 S
C539 H538 0.961 . S
C539 H540 0.960 . S
H540 C539 0.960 . S
H541 N521 0.862 1_455 S
O542 Co510 1.920 . S
O542 C515 1.289 . S
C543 O535 1.258 . S
C543 O536 1.266 . S
Co544 O547 1.970 . S
Co544 N561 1.989 . S
Co544 O569 1.967 . S
Co544 O576 1.920 . S
Co545 O548 1.966 . S
Co545 N554 2.022 . S
Co545 N562 1.993 . S
Co545 O570 1.941 . S
C546 O547 1.258 . S
C546 O548 1.263 . S
O547 Co544 1.970 . S
O547 C546 1.258 . S
O548 Co545 1.966 . S
O548 C546 1.263 . S
C549 O550 1.235 . S
C549 O576 1.289 . S
O550 C549 1.235 . S
C551 C553 1.400 . S
C551 N554 1.351 . S
C551 C556 1.501 . S
C552 C553 1.387 . S
C552 N555 1.341 . S
C553 C551 1.400 . S
C553 C552 1.387 . S
N554 Co545 2.022 . S
N554 C551 1.351 . S
N554 N555 1.365 . S
N555 C552 1.341 . S
N555 N554 1.365 . S
N555 H575 0.862 . S
C556 C551 1.501 . S
C556 H557 0.961 . S
C556 H558 0.961 . S
C556 H559 0.960 . S
H557 C556 0.961 . S
H558 C556 0.961 . S
H559 C556 0.960 . S
C560 N561 1.342 . S
C560 C564 1.401 . S
C560 C565 1.499 . S
N561 Co544 1.989 . S
N561 C560 1.342 . S
N561 N562 1.388 . S
N562 Co545 1.993 . S
N562 N561 1.388 . S
N562 C563 1.346 . S
C563 N562 1.346 . S
C563 C564 1.396 . S
C563 C573 1.510 . S
C564 C560 1.401 . S
C564 C563 1.396 . S
C565 C560 1.499 . S
C565 H566 0.959 . S
C565 H567 0.960 . S
C565 H568 0.961 . S
H566 C565 0.959 . S
H567 C565 0.960 . S
H568 C565 0.961 . S
O569 Co544 1.967 . S
O569 C577 1.258 . S
O570 Co545 1.941 . S
O570 C577 1.266 . S
H571 C573 0.959 . S
H572 C573 0.961 . S
C573 C563 1.510 . S
C573 H571 0.959 . S
C573 H572 0.961 . S
C573 H574 0.960 . S
H574 C573 0.960 . S
H575 N555 0.862 . S
O576 Co544 1.920 . S
O576 C549 1.289 . S
C577 O569 1.258 . S
C577 O570 1.266 . S
Co578 O581 1.970 . S
Co578 N595 1.989 . S
Co578 O603 1.967 . S
Co578 O610 1.920 . S
Co579 O582 1.966 . S
Co579 N588 2.022 . S
Co579 N596 1.993 . S
Co579 O604 1.941 . S
C580 O581 1.258 . S
C580 O582 1.263 . S
O581 Co578 1.970 . S
O581 C580 1.258 . S
O582 Co579 1.966 . S
O582 C580 1.263 . S
C583 O584 1.235 . S
C583 O610 1.289 . S
O584 C583 1.235 . S
C585 C587 1.400 . S
C585 N588 1.351 . S
C585 C590 1.501 . S
C586 C587 1.387 1_565 S
C586 N589 1.341 1_565 S
C587 C585 1.400 . S
C587 C586 1.387 1_545 S
N588 Co579 2.022 . S
N588 C585 1.351 . S
N588 N589 1.365 . S
N589 C586 1.341 1_545 S
N589 N588 1.365 . S
N589 H609 0.862 1_545 S
C590 C585 1.501 . S
C590 H591 0.961 . S
C590 H592 0.961 . S
C590 H593 0.960 . S
H591 C590 0.961 . S
H592 C590 0.961 . S
H593 C590 0.960 . S
C594 N595 1.342 . S
C594 C598 1.401 . S
C594 C599 1.499 . S
N595 Co578 1.989 . S
N595 C594 1.342 . S
N595 N596 1.388 . S
N596 Co579 1.993 . S
N596 N595 1.388 . S
N596 C597 1.346 . S
C597 N596 1.346 . S
C597 C598 1.396 . S
C597 C607 1.510 . S
C598 C594 1.401 . S
C598 C597 1.396 . S
C599 C594 1.499 . S
C599 H600 0.959 . S
C599 H601 0.960 . S
C599 H602 0.961 . S
H600 C599 0.959 . S
H601 C599 0.960 . S
H602 C599 0.961 . S
O603 Co578 1.967 . S
O603 C611 1.258 . S
O604 Co579 1.941 . S
O604 C611 1.266 . S
H605 C607 0.959 1_565 S
H606 C607 0.961 . S
C607 C597 1.510 . S
C607 H605 0.959 1_545 S
C607 H606 0.961 . S
C607 H608 0.960 . S
H608 C607 0.960 . S
H609 N589 0.862 1_565 S
O610 Co578 1.920 . S
O610 C583 1.289 . S
C611 O603 1.258 . S
C611 O604 1.266 . S
Co612 O615 1.970 . S
Co612 N629 1.989 . S
Co612 O637 1.967 . S
Co612 O644 1.920 . S
Co613 O616 1.966 . S
Co613 N622 2.022 . S
Co613 N630 1.993 . S
Co613 O638 1.941 . S
C614 O615 1.258 . S
C614 O616 1.263 . S
O615 Co612 1.970 . S
O615 C614 1.258 . S
O616 Co613 1.966 . S
O616 C614 1.263 . S
C617 O618 1.235 . S
C617 O644 1.289 . S
O618 C617 1.235 . S
C619 C621 1.400 . S
C619 N622 1.351 . S
C619 C624 1.501 . S
C620 C621 1.387 1_565 S
C620 N623 1.341 1_565 S
C621 C619 1.400 . S
C621 C620 1.387 1_545 S
N622 Co613 2.022 . S
N622 C619 1.351 . S
N622 N623 1.365 . S
N623 C620 1.341 1_545 S
N623 N622 1.365 . S
N623 H643 0.862 1_545 S
C624 C619 1.501 . S
C624 H625 0.961 . S
C624 H626 0.961 . S
C624 H627 0.960 . S
H625 C624 0.961 . S
H626 C624 0.961 . S
H627 C624 0.960 . S
C628 N629 1.342 . S
C628 C632 1.401 . S
C628 C633 1.499 . S
N629 Co612 1.989 . S
N629 C628 1.342 . S
N629 N630 1.388 . S
N630 Co613 1.993 . S
N630 N629 1.388 . S
N630 C631 1.346 . S
C631 N630 1.346 . S
C631 C632 1.396 . S
C631 C641 1.510 . S
C632 C628 1.401 . S
C632 C631 1.396 . S
C633 C628 1.499 . S
C633 H634 0.959 . S
C633 H635 0.960 . S
C633 H636 0.961 . S
H634 C633 0.959 . S
H635 C633 0.960 . S
H636 C633 0.961 . S
O637 Co612 1.967 . S
O637 C645 1.258 . S
O638 Co613 1.941 . S
O638 C645 1.266 . S
H639 C641 0.959 1_565 S
H640 C641 0.961 . S
C641 C631 1.510 . S
C641 H639 0.959 1_545 S
C641 H640 0.961 . S
C641 H642 0.960 . S
H642 C641 0.960 . S
H643 N623 0.862 1_565 S
O644 Co612 1.920 . S
O644 C617 1.289 . S
C645 O637 1.258 . S
C645 O638 1.266 . S
Co646 O649 1.970 . S
Co646 N663 1.989 . S
Co646 O671 1.967 . S
Co646 O678 1.920 . S
Co647 O650 1.966 . S
Co647 N656 2.022 . S
Co647 N664 1.993 . S
Co647 O672 1.941 . S
C648 O649 1.258 . S
C648 O650 1.263 . S
O649 Co646 1.970 . S
O649 C648 1.258 . S
O650 Co647 1.966 . S
O650 C648 1.263 . S
C651 O652 1.235 . S
C651 O678 1.289 . S
O652 C651 1.235 . S
C653 C655 1.400 . S
C653 N656 1.351 . S
C653 C658 1.501 . S
C654 C655 1.387 1_455 S
C654 N657 1.341 1_455 S
C655 C653 1.400 . S
C655 C654 1.387 1_655 S
N656 Co647 2.022 . S
N656 C653 1.351 . S
N656 N657 1.365 . S
N657 C654 1.341 1_655 S
N657 N656 1.365 . S
N657 H677 0.862 1_655 S
C658 C653 1.501 . S
C658 H659 0.961 . S
C658 H660 0.961 . S
C658 H661 0.960 . S
H659 C658 0.961 . S
H660 C658 0.961 . S
H661 C658 0.960 . S
C662 N663 1.342 . S
C662 C666 1.401 . S
C662 C667 1.499 . S
N663 Co646 1.989 . S
N663 C662 1.342 . S
N663 N664 1.388 . S
N664 Co647 1.993 . S
N664 N663 1.388 . S
N664 C665 1.346 . S
C665 N664 1.346 . S
C665 C666 1.396 . S
C665 C675 1.510 . S
C666 C662 1.401 . S
C666 C665 1.396 . S
C667 C662 1.499 . S
C667 H668 0.959 . S
C667 H669 0.960 . S
C667 H670 0.961 . S
H668 C667 0.959 . S
H669 C667 0.960 . S
H670 C667 0.961 . S
O671 Co646 1.967 . S
O671 C679 1.258 . S
O672 Co647 1.941 . S
O672 C679 1.266 . S
H673 C675 0.959 1_455 S
H674 C675 0.961 . S
C675 C665 1.510 . S
C675 H673 0.959 1_655 S
C675 H674 0.961 . S
C675 H676 0.960 . S
H676 C675 0.960 . S
H677 N657 0.862 1_455 S
O678 Co646 1.920 . S
O678 C651 1.289 . S
C679 O671 1.258 . S
C679 O672 1.266 . S
Co680 O683 1.970 . S
Co680 N697 1.989 . S
Co680 O705 1.967 . S
Co680 O712 1.920 . S
Co681 O684 1.966 . S
Co681 N690 2.022 . S
Co681 N698 1.993 . S
Co681 O706 1.941 . S
C682 O683 1.258 . S
C682 O684 1.263 . S
O683 Co680 1.970 . S
O683 C682 1.258 . S
O684 Co681 1.966 . S
O684 C682 1.263 . S
C685 O686 1.235 . S
C685 O712 1.289 . S
O686 C685 1.235 . S
C687 C689 1.400 . S
C687 N690 1.351 . S
C687 C692 1.501 . S
C688 C689 1.387 . S
C688 N691 1.341 . S
C689 C687 1.400 . S
C689 C688 1.387 . S
N690 Co681 2.022 . S
N690 C687 1.351 . S
N690 N691 1.365 . S
N691 C688 1.341 . S
N691 N690 1.365 . S
N691 H711 0.862 . S
C692 C687 1.501 . S
C692 H693 0.961 . S
C692 H694 0.961 . S
C692 H695 0.960 . S
H693 C692 0.961 . S
H694 C692 0.961 . S
H695 C692 0.960 . S
C696 N697 1.342 . S
C696 C700 1.401 . S
C696 C701 1.499 . S
N697 Co680 1.989 . S
N697 C696 1.342 . S
N697 N698 1.388 . S
N698 Co681 1.993 . S
N698 N697 1.388 . S
N698 C699 1.346 . S
C699 N698 1.346 . S
C699 C700 1.396 . S
C699 C709 1.510 . S
C700 C696 1.401 . S
C700 C699 1.396 . S
C701 C696 1.499 . S
C701 H702 0.959 . S
C701 H703 0.960 . S
C701 H704 0.961 . S
H702 C701 0.959 . S
H703 C701 0.960 . S
H704 C701 0.961 . S
O705 Co680 1.967 . S
O705 C713 1.258 . S
O706 Co681 1.941 . S
O706 C713 1.266 . S
H707 C709 0.959 . S
H708 C709 0.961 . S
C709 C699 1.510 . S
C709 H707 0.959 . S
C709 H708 0.961 . S
C709 H710 0.960 . S
H710 C709 0.960 . S
H711 N691 0.862 . S
O712 Co680 1.920 . S
O712 C685 1.289 . S
C713 O705 1.258 . S
C713 O706 1.266 . S
Co714 O717 1.970 . S
Co714 N731 1.989 . S
Co714 O739 1.967 . S
Co714 O746 1.920 . S
Co715 O718 1.966 . S
Co715 N724 2.022 . S
Co715 N732 1.993 . S
Co715 O740 1.941 . S
C716 O717 1.258 . S
C716 O718 1.263 . S
O717 Co714 1.970 . S
O717 C716 1.258 . S
O718 Co715 1.966 . S
O718 C716 1.263 . S
C719 O720 1.235 . S
C719 O746 1.289 . S
O720 C719 1.235 . S
C721 C723 1.400 . S
C721 N724 1.351 . S
C721 C726 1.501 . S
C722 C723 1.387 . S
C722 N725 1.341 . S
C723 C721 1.400 . S
C723 C722 1.387 . S
N724 Co715 2.022 . S
N724 C721 1.351 . S
N724 N725 1.365 . S
N725 C722 1.341 . S
N725 N724 1.365 . S
N725 H745 0.862 . S
C726 C721 1.501 . S
C726 H727 0.961 . S
C726 H728 0.961 . S
C726 H729 0.960 . S
H727 C726 0.961 . S
H728 C726 0.961 . S
H729 C726 0.960 . S
C730 N731 1.342 . S
C730 C734 1.401 . S
C730 C735 1.499 . S
N731 Co714 1.989 . S
N731 C730 1.342 . S
N731 N732 1.388 . S
N732 Co715 1.993 . S
N732 N731 1.388 . S
N732 C733 1.346 . S
C733 N732 1.346 . S
C733 C734 1.396 . S
C733 C743 1.510 . S
C734 C730 1.401 . S
C734 C733 1.396 . S
C735 C730 1.499 . S
C735 H736 0.959 . S
C735 H737 0.960 . S
C735 H738 0.961 . S
H736 C735 0.959 . S
H737 C735 0.960 . S
H738 C735 0.961 . S
O739 Co714 1.967 . S
O739 C747 1.258 . S
O740 Co715 1.941 . S
O740 C747 1.266 . S
H741 C743 0.959 . S
H742 C743 0.961 . S
C743 C733 1.510 . S
C743 H741 0.959 . S
C743 H742 0.961 . S
C743 H744 0.960 . S
H744 C743 0.960 . S
H745 N725 0.862 . S
O746 Co714 1.920 . S
O746 C719 1.289 . S
C747 O739 1.258 . S
C747 O740 1.266 . S
Co748 O751 1.970 . S
Co748 N765 1.989 . S
Co748 O773 1.967 . S
Co748 O780 1.920 . S
Co749 O752 1.966 . S
Co749 N758 2.022 . S
Co749 N766 1.993 . S
Co749 O774 1.941 . S
C750 O751 1.258 . S
C750 O752 1.263 . S
O751 Co748 1.970 . S
O751 C750 1.258 . S
O752 Co749 1.966 . S
O752 C750 1.263 . S
C753 O754 1.235 . S
C753 O780 1.289 . S
O754 C753 1.235 . S
C755 C757 1.400 . S
C755 N758 1.351 . S
C755 C760 1.501 . S
C756 C757 1.387 . S
C756 N759 1.341 . S
C757 C755 1.400 . S
C757 C756 1.387 . S
N758 Co749 2.022 . S
N758 C755 1.351 . S
N758 N759 1.365 . S
N759 C756 1.341 . S
N759 N758 1.365 . S
N759 H779 0.862 . S
C760 C755 1.501 . S
C760 H761 0.961 . S
C760 H762 0.961 . S
C760 H763 0.960 . S
H761 C760 0.961 . S
H762 C760 0.961 . S
H763 C760 0.960 . S
C764 N765 1.342 . S
C764 C768 1.401 . S
C764 C769 1.499 . S
N765 Co748 1.989 . S
N765 C764 1.342 . S
N765 N766 1.388 . S
N766 Co749 1.993 . S
N766 N765 1.388 . S
N766 C767 1.346 . S
C767 N766 1.346 . S
C767 C768 1.396 . S
C767 C777 1.510 . S
C768 C764 1.401 . S
C768 C767 1.396 . S
C769 C764 1.499 . S
C769 H770 0.959 . S
C769 H771 0.960 . S
C769 H772 0.961 . S
H770 C769 0.959 . S
H771 C769 0.960 . S
H772 C769 0.961 . S
O773 Co748 1.967 . S
O773 C781 1.258 . S
O774 Co749 1.941 . S
O774 C781 1.266 . S
H775 C777 0.959 . S
H776 C777 0.961 . S
C777 C767 1.510 . S
C777 H775 0.959 . S
C777 H776 0.961 . S
C777 H778 0.960 . S
H778 C777 0.960 . S
H779 N759 0.862 . S
O780 Co748 1.920 . S
O780 C753 1.289 . S
C781 O773 1.258 . S
C781 O774 1.266 . S
Co782 O785 1.970 . S
Co782 N799 1.989 . S
Co782 O807 1.967 . S
Co782 O814 1.920 . S
Co783 O786 1.966 . S
Co783 N792 2.022 . S
Co783 N800 1.993 . S
Co783 O808 1.941 . S
C784 O785 1.258 . S
C784 O786 1.263 . S
O785 Co782 1.970 . S
O785 C784 1.258 . S
O786 Co783 1.966 . S
O786 C784 1.263 . S
C787 O788 1.235 . S
C787 O814 1.289 . S
O788 C787 1.235 . S
C789 C791 1.400 . S
C789 N792 1.351 . S
C789 C794 1.501 . S
C790 C791 1.387 . S
C790 N793 1.341 . S
C791 C789 1.400 . S
C791 C790 1.387 . S
N792 Co783 2.022 . S
N792 C789 1.351 . S
N792 N793 1.365 . S
N793 C790 1.341 . S
N793 N792 1.365 . S
N793 H813 0.862 . S
C794 C789 1.501 . S
C794 H795 0.961 . S
C794 H796 0.961 . S
C794 H797 0.960 . S
H795 C794 0.961 . S
H796 C794 0.961 . S
H797 C794 0.960 . S
C798 N799 1.342 . S
C798 C802 1.401 . S
C798 C803 1.499 . S
N799 Co782 1.989 . S
N799 C798 1.342 . S
N799 N800 1.388 . S
N800 Co783 1.993 . S
N800 N799 1.388 . S
N800 C801 1.346 . S
C801 N800 1.346 . S
C801 C802 1.396 . S
C801 C811 1.510 . S
C802 C798 1.401 . S
C802 C801 1.396 . S
C803 C798 1.499 . S
C803 H804 0.959 . S
C803 H805 0.960 . S
C803 H806 0.961 . S
H804 C803 0.959 . S
H805 C803 0.960 . S
H806 C803 0.961 . S
O807 Co782 1.967 . S
O807 C815 1.258 . S
O808 Co783 1.941 . S
O808 C815 1.266 . S
H809 C811 0.959 . S
H810 C811 0.961 . S
C811 C801 1.510 . S
C811 H809 0.959 . S
C811 H810 0.961 . S
C811 H812 0.960 . S
H812 C811 0.960 . S
H813 N793 0.862 . S
O814 Co782 1.920 . S
O814 C787 1.289 . S
C815 O807 1.258 . S
C815 O808 1.266 . S
Co816 O819 1.970 . S
Co816 N833 1.989 . S
Co816 O841 1.967 . S
Co816 O848 1.920 . S
Co817 O820 1.966 . S
Co817 N826 2.022 . S
Co817 N834 1.993 . S
Co817 O842 1.941 . S
C818 O819 1.258 . S
C818 O820 1.263 . S
O819 Co816 1.970 . S
O819 C818 1.258 . S
O820 Co817 1.966 . S
O820 C818 1.263 . S
C821 O822 1.235 . S
C821 O848 1.289 . S
O822 C821 1.235 . S
C823 C825 1.400 . S
C823 N826 1.351 . S
C823 C828 1.501 . S
C824 C825 1.387 1_545 S
C824 N827 1.341 1_545 S
C825 C823 1.400 . S
C825 C824 1.387 1_565 S
N826 Co817 2.022 . S
N826 C823 1.351 . S
N826 N827 1.365 . S
N827 C824 1.341 1_565 S
N827 N826 1.365 . S
N827 H847 0.862 1_565 S
C828 C823 1.501 . S
C828 H829 0.961 . S
C828 H830 0.961 . S
C828 H831 0.960 . S
H829 C828 0.961 . S
H830 C828 0.961 . S
H831 C828 0.960 . S
C832 N833 1.342 . S
C832 C836 1.401 . S
C832 C837 1.499 . S
N833 Co816 1.989 . S
N833 C832 1.342 . S
N833 N834 1.388 . S
N834 Co817 1.993 . S
N834 N833 1.388 . S
N834 C835 1.346 . S
C835 N834 1.346 . S
C835 C836 1.396 . S
C835 C845 1.510 . S
C836 C832 1.401 . S
C836 C835 1.396 . S
C837 C832 1.499 . S
C837 H838 0.959 . S
C837 H839 0.960 . S
C837 H840 0.961 . S
H838 C837 0.959 . S
H839 C837 0.960 . S
H840 C837 0.961 . S
O841 Co816 1.967 . S
O841 C849 1.258 . S
O842 Co817 1.941 . S
O842 C849 1.266 . S
H843 C845 0.959 1_545 S
H844 C845 0.961 . S
C845 C835 1.510 . S
C845 H843 0.959 1_565 S
C845 H844 0.961 . S
C845 H846 0.960 . S
H846 C845 0.960 . S
H847 N827 0.862 1_545 S
O848 Co816 1.920 . S
O848 C821 1.289 . S
C849 O841 1.258 . S
C849 O842 1.266 . S
Co850 O853 1.970 . S
Co850 N867 1.989 . S
Co850 O875 1.967 . S
Co850 O882 1.920 . S
Co851 O854 1.966 . S
Co851 N860 2.022 . S
Co851 N868 1.993 . S
Co851 O876 1.941 . S
C852 O853 1.258 . S
C852 O854 1.263 . S
O853 Co850 1.970 . S
O853 C852 1.258 . S
O854 Co851 1.966 . S
O854 C852 1.263 . S
C855 O856 1.235 . S
C855 O882 1.289 . S
O856 C855 1.235 . S
C857 C859 1.400 . S
C857 N860 1.351 . S
C857 C862 1.501 . S
C858 C859 1.387 1_655 S
C858 N861 1.341 1_655 S
C859 C857 1.400 . S
C859 C858 1.387 1_455 S
N860 Co851 2.022 . S
N860 C857 1.351 . S
N860 N861 1.365 . S
N861 C858 1.341 1_455 S
N861 N860 1.365 . S
N861 H881 0.862 1_455 S
C862 C857 1.501 . S
C862 H863 0.961 . S
C862 H864 0.961 . S
C862 H865 0.960 . S
H863 C862 0.961 . S
H864 C862 0.961 . S
H865 C862 0.960 . S
C866 N867 1.342 . S
C866 C870 1.401 . S
C866 C871 1.499 . S
N867 Co850 1.989 . S
N867 C866 1.342 . S
N867 N868 1.388 . S
N868 Co851 1.993 . S
N868 N867 1.388 . S
N868 C869 1.346 . S
C869 N868 1.346 . S
C869 C870 1.396 . S
C869 C879 1.510 . S
C870 C866 1.401 . S
C870 C869 1.396 . S
C871 C866 1.499 . S
C871 H872 0.959 . S
C871 H873 0.960 . S
C871 H874 0.961 . S
H872 C871 0.959 . S
H873 C871 0.960 . S
H874 C871 0.961 . S
O875 Co850 1.967 . S
O875 C883 1.258 . S
O876 Co851 1.941 . S
O876 C883 1.266 . S
H877 C879 0.959 1_655 S
H878 C879 0.961 . S
C879 C869 1.510 . S
C879 H877 0.959 1_455 S
C879 H878 0.961 . S
C879 H880 0.960 . S
H880 C879 0.960 . S
H881 N861 0.862 1_655 S
O882 Co850 1.920 . S
O882 C855 1.289 . S
C883 O875 1.258 . S
C883 O876 1.266 . S
Co884 O887 1.970 . S
Co884 N901 1.989 . S
Co884 O909 1.967 . S
Co884 O916 1.920 . S
Co885 O888 1.966 . S
Co885 N894 2.022 . S
Co885 N902 1.993 . S
Co885 O910 1.941 . S
C886 O887 1.258 . S
C886 O888 1.263 . S
O887 Co884 1.970 . S
O887 C886 1.258 . S
O888 Co885 1.966 . S
O888 C886 1.263 . S
C889 O890 1.235 . S
C889 O916 1.289 . S
O890 C889 1.235 . S
C891 C893 1.400 . S
C891 N894 1.351 . S
C891 C896 1.501 . S
C892 C893 1.387 . S
C892 N895 1.341 . S
C893 C891 1.400 . S
C893 C892 1.387 . S
N894 Co885 2.022 . S
N894 C891 1.351 . S
N894 N895 1.365 . S
N895 C892 1.341 . S
N895 N894 1.365 . S
N895 H915 0.862 . S
C896 C891 1.501 . S
C896 H897 0.961 . S
C896 H898 0.961 . S
C896 H899 0.960 . S
H897 C896 0.961 . S
H898 C896 0.961 . S
H899 C896 0.960 . S
C900 N901 1.342 . S
C900 C904 1.401 . S
C900 C905 1.499 . S
N901 Co884 1.989 . S
N901 C900 1.342 . S
N901 N902 1.388 . S
N902 Co885 1.993 . S
N902 N901 1.388 . S
N902 C903 1.346 . S
C903 N902 1.346 . S
C903 C904 1.396 . S
C903 C913 1.510 . S
C904 C900 1.401 . S
C904 C903 1.396 . S
C905 C900 1.499 . S
C905 H906 0.959 . S
C905 H907 0.960 . S
C905 H908 0.961 . S
H906 C905 0.959 . S
H907 C905 0.960 . S
H908 C905 0.961 . S
O909 Co884 1.967 . S
O909 C917 1.258 . S
O910 Co885 1.941 . S
O910 C917 1.266 . S
H911 C913 0.959 . S
H912 C913 0.961 . S
C913 C903 1.510 . S
C913 H911 0.959 . S
C913 H912 0.961 . S
C913 H914 0.960 . S
H914 C913 0.960 . S
H915 N895 0.862 . S
O916 Co884 1.920 . S
O916 C889 1.289 . S
C917 O909 1.258 . S
C917 O910 1.266 . S
Co918 O921 1.970 . S
Co918 N935 1.989 . S
Co918 O943 1.967 . S
Co918 O950 1.920 . S
Co919 O922 1.966 . S
Co919 N928 2.022 . S
Co919 N936 1.993 . S
Co919 O944 1.941 . S
C920 O921 1.258 . S
C920 O922 1.263 . S
O921 Co918 1.970 . S
O921 C920 1.258 . S
O922 Co919 1.966 . S
O922 C920 1.263 . S
C923 O924 1.235 . S
C923 O950 1.289 . S
O924 C923 1.235 . S
C925 C927 1.400 . S
C925 N928 1.351 . S
C925 C930 1.501 . S
C926 C927 1.387 . S
C926 N929 1.341 . S
C927 C925 1.400 . S
C927 C926 1.387 . S
N928 Co919 2.022 . S
N928 C925 1.351 . S
N928 N929 1.365 . S
N929 C926 1.341 . S
N929 N928 1.365 . S
N929 H949 0.862 . S
C930 C925 1.501 . S
C930 H931 0.961 . S
C930 H932 0.961 . S
C930 H933 0.960 . S
H931 C930 0.961 . S
H932 C930 0.961 . S
H933 C930 0.960 . S
C934 N935 1.342 . S
C934 C938 1.401 . S
C934 C939 1.499 . S
N935 Co918 1.989 . S
N935 C934 1.342 . S
N935 N936 1.388 . S
N936 Co919 1.993 . S
N936 N935 1.388 . S
N936 C937 1.346 . S
C937 N936 1.346 . S
C937 C938 1.396 . S
C937 C947 1.510 . S
C938 C934 1.401 . S
C938 C937 1.396 . S
C939 C934 1.499 . S
C939 H940 0.959 . S
C939 H941 0.960 . S
C939 H942 0.961 . S
H940 C939 0.959 . S
H941 C939 0.960 . S
H942 C939 0.961 . S
O943 Co918 1.967 . S
O943 C951 1.258 . S
O944 Co919 1.941 . S
O944 C951 1.266 . S
H945 C947 0.959 . S
H946 C947 0.961 . S
C947 C937 1.510 . S
C947 H945 0.959 . S
C947 H946 0.961 . S
C947 H948 0.960 . S
H948 C947 0.960 . S
H949 N929 0.862 . S
O950 Co918 1.920 . S
O950 C923 1.289 . S
C951 O943 1.258 . S
C951 O944 1.266 . S
Co952 O955 1.970 . S
Co952 N969 1.989 . S
Co952 O977 1.967 . S
Co952 O984 1.920 . S
Co953 O956 1.966 . S
Co953 N962 2.022 . S
Co953 N970 1.993 . S
Co953 O978 1.941 . S
C954 O955 1.258 . S
C954 O956 1.263 . S
O955 Co952 1.970 . S
O955 C954 1.258 . S
O956 Co953 1.966 . S
O956 C954 1.263 . S
C957 O958 1.235 . S
C957 O984 1.289 . S
O958 C957 1.235 . S
C959 C961 1.400 . S
C959 N962 1.351 . S
C959 C964 1.501 . S
C960 C961 1.387 . S
C960 N963 1.341 . S
C961 C959 1.400 . S
C961 C960 1.387 . S
N962 Co953 2.022 . S
N962 C959 1.351 . S
N962 N963 1.365 . S
N963 C960 1.341 . S
N963 N962 1.365 . S
N963 H983 0.862 . S
C964 C959 1.501 . S
C964 H965 0.961 . S
C964 H966 0.961 . S
C964 H967 0.960 . S
H965 C964 0.961 . S
H966 C964 0.961 . S
H967 C964 0.960 . S
C968 N969 1.342 . S
C968 C972 1.401 . S
C968 C973 1.499 . S
N969 Co952 1.989 . S
N969 C968 1.342 . S
N969 N970 1.388 . S
N970 Co953 1.993 . S
N970 N969 1.388 . S
N970 C971 1.346 . S
C971 N970 1.346 . S
C971 C972 1.396 . S
C971 C981 1.510 . S
C972 C968 1.401 . S
C972 C971 1.396 . S
C973 C968 1.499 . S
C973 H974 0.959 . S
C973 H975 0.960 . S
C973 H976 0.961 . S
H974 C973 0.959 . S
H975 C973 0.960 . S
H976 C973 0.961 . S
O977 Co952 1.967 . S
O977 C985 1.258 . S
O978 Co953 1.941 . S
O978 C985 1.266 . S
H979 C981 0.959 . S
H980 C981 0.961 . S
C981 C971 1.510 . S
C981 H979 0.959 . S
C981 H980 0.961 . S
C981 H982 0.960 . S
H982 C981 0.960 . S
H983 N963 0.862 . S
O984 Co952 1.920 . S
O984 C957 1.289 . S
C985 O977 1.258 . S
C985 O978 1.266 . S
Co986 O989 1.970 . S
Co986 N1003 1.989 . S
Co986 O1011 1.967 . S
Co986 O1018 1.920 . S
Co987 O990 1.966 . S
Co987 N996 2.022 . S
Co987 N1004 1.993 . S
Co987 O1012 1.941 . S
C988 O989 1.258 . S
C988 O990 1.263 . S
O989 Co986 1.970 . S
O989 C988 1.258 . S
O990 Co987 1.966 . S
O990 C988 1.263 . S
C991 O992 1.235 . S
C991 O1018 1.289 . S
O992 C991 1.235 . S
C993 C995 1.400 . S
C993 N996 1.351 . S
C993 C998 1.501 . S
C994 C995 1.387 . S
C994 N997 1.341 . S
C995 C993 1.400 . S
C995 C994 1.387 . S
N996 Co987 2.022 . S
N996 C993 1.351 . S
N996 N997 1.365 . S
N997 C994 1.341 . S
N997 N996 1.365 . S
N997 H1017 0.862 . S
C998 C993 1.501 . S
C998 H999 0.961 . S
C998 H1000 0.961 . S
C998 H1001 0.960 . S
H999 C998 0.961 . S
H1000 C998 0.961 . S
H1001 C998 0.960 . S
C1002 N1003 1.342 . S
C1002 C1006 1.401 . S
C1002 C1007 1.499 . S
N1003 Co986 1.989 . S
N1003 C1002 1.342 . S
N1003 N1004 1.388 . S
N1004 Co987 1.993 . S
N1004 N1003 1.388 . S
N1004 C1005 1.346 . S
C1005 N1004 1.346 . S
C1005 C1006 1.396 . S
C1005 C1015 1.510 . S
C1006 C1002 1.401 . S
C1006 C1005 1.396 . S
C1007 C1002 1.499 . S
C1007 H1008 0.959 . S
C1007 H1009 0.960 . S
C1007 H1010 0.961 . S
H1008 C1007 0.959 . S
H1009 C1007 0.960 . S
H1010 C1007 0.961 . S
O1011 Co986 1.967 . S
O1011 C1019 1.258 . S
O1012 Co987 1.941 . S
O1012 C1019 1.266 . S
H1013 C1015 0.959 . S
H1014 C1015 0.961 . S
C1015 C1005 1.510 . S
C1015 H1013 0.959 . S
C1015 H1014 0.961 . S
C1015 H1016 0.960 . S
H1016 C1015 0.960 . S
H1017 N997 0.862 . S
O1018 Co986 1.920 . S
O1018 C991 1.289 . S
C1019 O1011 1.258 . S
C1019 O1012 1.266 . S
Co1020 O1023 1.970 . S
Co1020 N1037 1.989 . S
Co1020 O1045 1.967 . S
Co1020 O1052 1.920 . S
Co1021 O1024 1.966 . S
Co1021 N1030 2.022 . S
Co1021 N1038 1.993 . S
Co1021 O1046 1.941 . S
C1022 O1023 1.258 . S
C1022 O1024 1.263 . S
O1023 Co1020 1.970 . S
O1023 C1022 1.258 . S
O1024 Co1021 1.966 . S
O1024 C1022 1.263 . S
C1025 O1026 1.235 . S
C1025 O1052 1.289 . S
O1026 C1025 1.235 . S
C1027 C1029 1.400 . S
C1027 N1030 1.351 . S
C1027 C1032 1.501 . S
C1028 C1029 1.387 . S
C1028 N1031 1.341 . S
C1029 C1027 1.400 . S
C1029 C1028 1.387 . S
N1030 Co1021 2.022 . S
N1030 C1027 1.351 . S
N1030 N1031 1.365 . S
N1031 C1028 1.341 . S
N1031 N1030 1.365 . S
N1031 H1051 0.862 . S
C1032 C1027 1.501 . S
C1032 H1033 0.961 . S
C1032 H1034 0.961 . S
C1032 H1035 0.960 . S
H1033 C1032 0.961 . S
H1034 C1032 0.961 . S
H1035 C1032 0.960 . S
C1036 N1037 1.342 . S
C1036 C1040 1.401 . S
C1036 C1041 1.499 . S
N1037 Co1020 1.989 . S
N1037 C1036 1.342 . S
N1037 N1038 1.388 . S
N1038 Co1021 1.993 . S
N1038 N1037 1.388 . S
N1038 C1039 1.346 . S
C1039 N1038 1.346 . S
C1039 C1040 1.396 . S
C1039 C1049 1.510 . S
C1040 C1036 1.401 . S
C1040 C1039 1.396 . S
C1041 C1036 1.499 . S
C1041 H1042 0.959 . S
C1041 H1043 0.960 . S
C1041 H1044 0.961 . S
H1042 C1041 0.959 . S
H1043 C1041 0.960 . S
H1044 C1041 0.961 . S
O1045 Co1020 1.967 . S
O1045 C1053 1.258 . S
O1046 Co1021 1.941 . S
O1046 C1053 1.266 . S
H1047 C1049 0.959 . S
H1048 C1049 0.961 . S
C1049 C1039 1.510 . S
C1049 H1047 0.959 . S
C1049 H1048 0.961 . S
C1049 H1050 0.960 . S
H1050 C1049 0.960 . S
H1051 N1031 0.862 . S
O1052 Co1020 1.920 . S
O1052 C1025 1.289 . S
C1053 O1045 1.258 . S
C1053 O1046 1.266 . S
Co1054 O1057 1.970 . S
Co1054 N1071 1.989 . S
Co1054 O1079 1.967 . S
Co1054 O1086 1.920 . S
Co1055 O1058 1.966 . S
Co1055 N1064 2.022 . S
Co1055 N1072 1.993 . S
Co1055 O1080 1.941 . S
C1056 O1057 1.258 . S
C1056 O1058 1.263 . S
O1057 Co1054 1.970 . S
O1057 C1056 1.258 . S
O1058 Co1055 1.966 . S
O1058 C1056 1.263 . S
C1059 O1060 1.235 . S
C1059 O1086 1.289 . S
O1060 C1059 1.235 . S
C1061 C1063 1.400 . S
C1061 N1064 1.351 . S
C1061 C1066 1.501 . S
C1062 C1063 1.387 . S
C1062 N1065 1.341 . S
C1063 C1061 1.400 . S
C1063 C1062 1.387 . S
N1064 Co1055 2.022 . S
N1064 C1061 1.351 . S
N1064 N1065 1.365 . S
N1065 C1062 1.341 . S
N1065 N1064 1.365 . S
N1065 H1085 0.862 . S
C1066 C1061 1.501 . S
C1066 H1067 0.961 . S
C1066 H1068 0.961 . S
C1066 H1069 0.960 . S
H1067 C1066 0.961 . S
H1068 C1066 0.961 . S
H1069 C1066 0.960 . S
C1070 N1071 1.342 . S
C1070 C1074 1.401 . S
C1070 C1075 1.499 . S
N1071 Co1054 1.989 . S
N1071 C1070 1.342 . S
N1071 N1072 1.388 . S
N1072 Co1055 1.993 . S
N1072 N1071 1.388 . S
N1072 C1073 1.346 . S
C1073 N1072 1.346 . S
C1073 C1074 1.396 . S
C1073 C1083 1.510 . S
C1074 C1070 1.401 . S
C1074 C1073 1.396 . S
C1075 C1070 1.499 . S
C1075 H1076 0.959 . S
C1075 H1077 0.960 . S
C1075 H1078 0.961 . S
H1076 C1075 0.959 . S
H1077 C1075 0.960 . S
H1078 C1075 0.961 . S
O1079 Co1054 1.967 . S
O1079 C1087 1.258 . S
O1080 Co1055 1.941 . S
O1080 C1087 1.266 . S
H1081 C1083 0.959 . S
H1082 C1083 0.961 . S
C1083 C1073 1.510 . S
C1083 H1081 0.959 . S
C1083 H1082 0.961 . S
C1083 H1084 0.960 . S
H1084 C1083 0.960 . S
H1085 N1065 0.862 . S
O1086 Co1054 1.920 . S
O1086 C1059 1.289 . S
C1087 O1079 1.258 . S
C1087 O1080 1.266 . S
Co1088 O1091 1.970 . S
Co1088 N1105 1.989 . S
Co1088 O1113 1.967 . S
Co1088 O1120 1.920 . S
Co1089 O1092 1.966 . S
Co1089 N1098 2.022 . S
Co1089 N1106 1.993 . S
Co1089 O1114 1.941 . S
C1090 O1091 1.258 . S
C1090 O1092 1.263 . S
O1091 Co1088 1.970 . S
O1091 C1090 1.258 . S
O1092 Co1089 1.966 . S
O1092 C1090 1.263 . S
C1093 O1094 1.235 . S
C1093 O1120 1.289 . S
O1094 C1093 1.235 . S
C1095 C1097 1.400 . S
C1095 N1098 1.351 . S
C1095 C1100 1.501 . S
C1096 C1097 1.387 . S
C1096 N1099 1.341 . S
C1097 C1095 1.400 . S
C1097 C1096 1.387 . S
N1098 Co1089 2.022 . S
N1098 C1095 1.351 . S
N1098 N1099 1.365 . S
N1099 C1096 1.341 . S
N1099 N1098 1.365 . S
N1099 H1119 0.862 . S
C1100 C1095 1.501 . S
C1100 H1101 0.961 . S
C1100 H1102 0.961 . S
C1100 H1103 0.960 . S
H1101 C1100 0.961 . S
H1102 C1100 0.961 . S
H1103 C1100 0.960 . S
C1104 N1105 1.342 . S
C1104 C1108 1.401 . S
C1104 C1109 1.499 . S
N1105 Co1088 1.989 . S
N1105 C1104 1.342 . S
N1105 N1106 1.388 . S
N1106 Co1089 1.993 . S
N1106 N1105 1.388 . S
N1106 C1107 1.346 . S
C1107 N1106 1.346 . S
C1107 C1108 1.396 . S
C1107 C1117 1.510 . S
C1108 C1104 1.401 . S
C1108 C1107 1.396 . S
C1109 C1104 1.499 . S
C1109 H1110 0.959 . S
C1109 H1111 0.960 . S
C1109 H1112 0.961 . S
H1110 C1109 0.959 . S
H1111 C1109 0.960 . S
H1112 C1109 0.961 . S
O1113 Co1088 1.967 . S
O1113 C1121 1.258 . S
O1114 Co1089 1.941 . S
O1114 C1121 1.266 . S
H1115 C1117 0.959 . S
H1116 C1117 0.961 . S
C1117 C1107 1.510 . S
C1117 H1115 0.959 . S
C1117 H1116 0.961 . S
C1117 H1118 0.960 . S
H1118 C1117 0.960 . S
H1119 N1099 0.862 . S
O1120 Co1088 1.920 . S
O1120 C1093 1.289 . S
C1121 O1113 1.258 . S
C1121 O1114 1.266 . S
Co1122 O1125 1.970 . S
Co1122 N1139 1.989 . S
Co1122 O1147 1.967 . S
Co1122 O1154 1.920 . S
Co1123 O1126 1.966 . S
Co1123 N1132 2.022 . S
Co1123 N1140 1.993 . S
Co1123 O1148 1.941 . S
C1124 O1125 1.258 . S
C1124 O1126 1.263 . S
O1125 Co1122 1.970 . S
O1125 C1124 1.258 . S
O1126 Co1123 1.966 . S
O1126 C1124 1.263 . S
C1127 O1128 1.235 . S
C1127 O1154 1.289 . S
O1128 C1127 1.235 . S
C1129 C1131 1.400 . S
C1129 N1132 1.351 . S
C1129 C1134 1.501 . S
C1130 C1131 1.387 1_655 S
C1130 N1133 1.341 1_655 S
C1131 C1129 1.400 . S
C1131 C1130 1.387 1_455 S
N1132 Co1123 2.022 . S
N1132 C1129 1.351 . S
N1132 N1133 1.365 . S
N1133 C1130 1.341 1_455 S
N1133 N1132 1.365 . S
N1133 H1153 0.862 1_455 S
C1134 C1129 1.501 . S
C1134 H1135 0.961 . S
C1134 H1136 0.961 . S
C1134 H1137 0.960 . S
H1135 C1134 0.961 . S
H1136 C1134 0.961 . S
H1137 C1134 0.960 . S
C1138 N1139 1.342 . S
C1138 C1142 1.401 . S
C1138 C1143 1.499 . S
N1139 Co1122 1.989 . S
N1139 C1138 1.342 . S
N1139 N1140 1.388 . S
N1140 Co1123 1.993 . S
N1140 N1139 1.388 . S
N1140 C1141 1.346 . S
C1141 N1140 1.346 . S
C1141 C1142 1.396 . S
C1141 C1151 1.510 . S
C1142 C1138 1.401 . S
C1142 C1141 1.396 . S
C1143 C1138 1.499 . S
C1143 H1144 0.959 . S
C1143 H1145 0.960 . S
C1143 H1146 0.961 . S
H1144 C1143 0.959 . S
H1145 C1143 0.960 . S
H1146 C1143 0.961 . S
O1147 Co1122 1.967 . S
O1147 C1155 1.258 . S
O1148 Co1123 1.941 . S
O1148 C1155 1.266 . S
H1149 C1151 0.959 1_655 S
H1150 C1151 0.961 . S
C1151 C1141 1.510 . S
C1151 H1149 0.959 1_455 S
C1151 H1150 0.961 . S
C1151 H1152 0.960 . S
H1152 C1151 0.960 . S
H1153 N1133 0.862 1_655 S
O1154 Co1122 1.920 . S
O1154 C1127 1.289 . S
C1155 O1147 1.258 . S
C1155 O1148 1.266 . S
Co1156 O1159 1.970 . S
Co1156 N1173 1.989 . S
Co1156 O1181 1.967 . S
Co1156 O1188 1.920 . S
Co1157 O1160 1.966 . S
Co1157 N1166 2.022 . S
Co1157 N1174 1.993 . S
Co1157 O1182 1.941 . S
C1158 O1159 1.258 . S
C1158 O1160 1.263 . S
O1159 Co1156 1.970 . S
O1159 C1158 1.258 . S
O1160 Co1157 1.966 . S
O1160 C1158 1.263 . S
C1161 O1162 1.235 . S
C1161 O1188 1.289 . S
O1162 C1161 1.235 . S
C1163 C1165 1.400 . S
C1163 N1166 1.351 . S
C1163 C1168 1.501 . S
C1164 C1165 1.387 . S
C1164 N1167 1.341 . S
C1165 C1163 1.400 . S
C1165 C1164 1.387 . S
N1166 Co1157 2.022 . S
N1166 C1163 1.351 . S
N1166 N1167 1.365 . S
N1167 C1164 1.341 . S
N1167 N1166 1.365 . S
N1167 H1187 0.862 . S
C1168 C1163 1.501 . S
C1168 H1169 0.961 . S
C1168 H1170 0.961 . S
C1168 H1171 0.960 . S
H1169 C1168 0.961 . S
H1170 C1168 0.961 . S
H1171 C1168 0.960 . S
C1172 N1173 1.342 . S
C1172 C1176 1.401 . S
C1172 C1177 1.499 . S
N1173 Co1156 1.989 . S
N1173 C1172 1.342 . S
N1173 N1174 1.388 . S
N1174 Co1157 1.993 . S
N1174 N1173 1.388 . S
N1174 C1175 1.346 . S
C1175 N1174 1.346 . S
C1175 C1176 1.396 . S
C1175 C1185 1.510 . S
C1176 C1172 1.401 . S
C1176 C1175 1.396 . S
C1177 C1172 1.499 . S
C1177 H1178 0.959 . S
C1177 H1179 0.960 . S
C1177 H1180 0.961 . S
H1178 C1177 0.959 . S
H1179 C1177 0.960 . S
H1180 C1177 0.961 . S
O1181 Co1156 1.967 . S
O1181 C1189 1.258 . S
O1182 Co1157 1.941 . S
O1182 C1189 1.266 . S
H1183 C1185 0.959 . S
H1184 C1185 0.961 . S
C1185 C1175 1.510 . S
C1185 H1183 0.959 . S
C1185 H1184 0.961 . S
C1185 H1186 0.960 . S
H1186 C1185 0.960 . S
H1187 N1167 0.862 . S
O1188 Co1156 1.920 . S
O1188 C1161 1.289 . S
C1189 O1181 1.258 . S
C1189 O1182 1.266 . S
Co1190 O1193 1.970 . S
Co1190 N1207 1.989 . S
Co1190 O1215 1.967 . S
Co1190 O1222 1.920 . S
Co1191 O1194 1.966 . S
Co1191 N1200 2.022 . S
Co1191 N1208 1.993 . S
Co1191 O1216 1.941 . S
C1192 O1193 1.258 . S
C1192 O1194 1.263 . S
O1193 Co1190 1.970 . S
O1193 C1192 1.258 . S
O1194 Co1191 1.966 . S
O1194 C1192 1.263 . S
C1195 O1196 1.235 . S
C1195 O1222 1.289 . S
O1196 C1195 1.235 . S
C1197 C1199 1.400 . S
C1197 N1200 1.351 . S
C1197 C1202 1.501 . S
C1198 C1199 1.387 1_545 S
C1198 N1201 1.341 1_545 S
C1199 C1197 1.400 . S
C1199 C1198 1.387 1_565 S
N1200 Co1191 2.022 . S
N1200 C1197 1.351 . S
N1200 N1201 1.365 . S
N1201 C1198 1.341 1_565 S
N1201 N1200 1.365 . S
N1201 H1221 0.862 1_565 S
C1202 C1197 1.501 . S
C1202 H1203 0.961 . S
C1202 H1204 0.961 . S
C1202 H1205 0.960 . S
H1203 C1202 0.961 . S
H1204 C1202 0.961 . S
H1205 C1202 0.960 . S
C1206 N1207 1.342 . S
C1206 C1210 1.401 . S
C1206 C1211 1.499 . S
N1207 Co1190 1.989 . S
N1207 C1206 1.342 . S
N1207 N1208 1.388 . S
N1208 Co1191 1.993 . S
N1208 N1207 1.388 . S
N1208 C1209 1.346 . S
C1209 N1208 1.346 . S
C1209 C1210 1.396 . S
C1209 C1219 1.510 . S
C1210 C1206 1.401 . S
C1210 C1209 1.396 . S
C1211 C1206 1.499 . S
C1211 H1212 0.959 . S
C1211 H1213 0.960 . S
C1211 H1214 0.961 . S
H1212 C1211 0.959 . S
H1213 C1211 0.960 . S
H1214 C1211 0.961 . S
O1215 Co1190 1.967 . S
O1215 C1223 1.258 . S
O1216 Co1191 1.941 . S
O1216 C1223 1.266 . S
H1217 C1219 0.959 1_545 S
H1218 C1219 0.961 . S
C1219 C1209 1.510 . S
C1219 H1217 0.959 1_565 S
C1219 H1218 0.961 . S
C1219 H1220 0.960 . S
H1220 C1219 0.960 . S
H1221 N1201 0.862 1_545 S
O1222 Co1190 1.920 . S
O1222 C1195 1.289 . S
C1223 O1215 1.258 . S
C1223 O1216 1.266 . S
H1224 C1230 0.930 . S
H1225 C1234 0.930 . S
H1226 C1239 0.929 . S
H1227 C1237 0.929 . S
H1228 C1232 0.929 . S
H1229 C1238 0.929 . S
C1230 H1224 0.930 . S
C1230 C1231 1.367 . S
C1230 C1238 1.378 . S
C1231 C1230 1.367 . S
C1231 C1239 1.433 . S
C1232 H1228 0.929 . S
C1232 C1234 1.378 . S
C1232 C1236 1.350 . S
C1233 C1236 1.463 . S
C1233 C1238 1.350 . S
C1233 N1241 1.427 . S
C1234 H1225 0.930 . S
C1234 C1232 1.378 . S
C1234 C1235 1.367 1_545 S
C1235 C1234 1.367 1_565 S
C1235 C1237 1.433 . S
C1236 C1232 1.350 . S
C1236 C1233 1.463 . S
C1236 N1240 1.427 . S
C1237 H1227 0.929 . S
C1237 C1235 1.433 . S
C1237 N1240 1.384 1_565 S
C1238 H1229 0.929 . S
C1238 C1230 1.378 . S
C1238 C1233 1.350 . S
C1239 H1226 0.929 . S
C1239 C1231 1.433 . S
C1239 N1241 1.384 . S
N1240 C1236 1.427 . S
N1240 C1237 1.384 1_545 S
N1241 C1233 1.427 . S
N1241 C1239 1.384 . S
H1242 C1248 0.927 1_455 S
H1243 C1252 0.930 1_565 S
H1244 C1257 0.929 . S
H1245 C1255 0.929 . S
H1246 C1250 0.929 . S
H1247 C1256 0.929 . S
C1248 H1242 0.927 1_655 S
C1248 C1249 1.367 1_655 S
C1248 C1256 1.378 . S
C1249 C1248 1.367 1_455 S
C1249 C1257 1.433 1_455 S
C1250 H1246 0.929 . S
C1250 C1252 1.378 . S
C1250 C1254 1.350 . S
C1251 C1254 1.463 . S
C1251 C1256 1.350 . S
C1251 N1259 1.427 . S
C1252 H1243 0.930 1_545 S
C1252 C1250 1.378 . S
C1252 C1253 1.367 1_545 S
C1253 C1252 1.367 1_565 S
C1253 C1255 1.433 1_565 S
C1254 C1250 1.350 . S
C1254 C1251 1.463 . S
C1254 N1258 1.427 . S
C1255 H1245 0.929 . S
C1255 C1253 1.433 1_545 S
C1255 N1258 1.384 . S
C1256 H1247 0.929 . S
C1256 C1248 1.378 . S
C1256 C1251 1.350 . S
C1257 H1244 0.929 . S
C1257 C1249 1.433 1_655 S
C1257 N1259 1.384 . S
N1258 C1254 1.427 . S
N1258 C1255 1.384 . S
N1259 C1251 1.427 . S
N1259 C1257 1.384 . S
H1260 C1266 0.930 . S
H1261 C1270 0.930 . S
H1262 C1275 0.929 . S
H1263 C1273 0.929 . S
H1264 C1268 0.929 . S
H1265 C1274 0.929 . S
C1266 H1260 0.930 . S
C1266 C1267 1.367 . S
C1266 C1274 1.378 . S
C1267 C1266 1.367 . S
C1267 C1275 1.433 . S
C1268 H1264 0.929 . S
C1268 C1270 1.378 1_655 S
C1268 C1272 1.350 . S
C1269 C1272 1.463 . S
C1269 C1274 1.350 . S
C1269 N1277 1.427 . S
C1270 H1261 0.930 . S
C1270 C1268 1.378 1_455 S
C1270 C1271 1.367 . S
C1271 C1270 1.367 . S
C1271 C1273 1.433 1_455 S
C1272 C1268 1.350 . S
C1272 C1269 1.463 . S
C1272 N1276 1.427 . S
C1273 H1263 0.929 . S
C1273 C1271 1.433 1_655 S
C1273 N1276 1.384 . S
C1274 H1265 0.929 . S
C1274 C1266 1.378 . S
C1274 C1269 1.350 . S
C1275 H1262 0.929 . S
C1275 C1267 1.433 . S
C1275 N1277 1.384 . S
N1276 C1272 1.427 . S
N1276 C1273 1.384 . S
N1277 C1269 1.427 . S
N1277 C1275 1.384 . S
H1278 C1284 0.930 . S
H1279 C1288 0.930 . S
H1280 C1293 0.929 1_655 S
H1281 C1291 0.929 . S
H1282 C1286 0.929 . S
H1283 C1292 0.929 . S
C1284 H1278 0.930 . S
C1284 C1285 1.367 1_455 S
C1284 C1292 1.378 . S
C1285 C1284 1.367 1_655 S
C1285 C1293 1.433 1_655 S
C1286 H1282 0.929 . S
C1286 C1288 1.378 . S
C1286 C1290 1.350 . S
C1287 C1290 1.463 . S
C1287 C1292 1.350 . S
C1287 N1295 1.427 . S
C1288 H1279 0.930 . S
C1288 C1286 1.378 . S
C1288 C1289 1.367 . S
C1289 C1288 1.367 . S
C1289 C1291 1.433 . S
C1290 C1286 1.350 . S
C1290 C1287 1.463 . S
C1290 N1294 1.427 . S
C1291 H1281 0.929 . S
C1291 C1289 1.433 . S
C1291 N1294 1.384 . S
C1292 H1283 0.929 . S
C1292 C1284 1.378 . S
C1292 C1287 1.350 . S
C1293 H1280 0.929 1_455 S
C1293 C1285 1.433 1_455 S
C1293 N1295 1.384 . S
N1294 C1290 1.427 . S
N1294 C1291 1.384 . S
N1295 C1287 1.427 . S
N1295 C1293 1.384 . S
H1296 C1302 0.930 . S
H1297 C1306 0.930 . S
H1298 C1311 0.929 . S
H1299 C1309 0.929 1_545 S
H1300 C1304 0.929 . S
H1301 C1310 0.929 . S
C1302 H1296 0.930 . S
C1302 C1303 1.367 . S
C1302 C1310 1.378 . S
C1303 C1302 1.367 . S
C1303 C1311 1.433 . S
C1304 H1300 0.929 . S
C1304 C1306 1.378 . S
C1304 C1308 1.350 . S
C1305 C1308 1.463 . S
C1305 C1310 1.350 . S
C1305 N1313 1.427 . S
C1306 H1297 0.930 . S
C1306 C1304 1.378 . S
C1306 C1307 1.367 1_565 S
C1307 C1306 1.367 1_545 S
C1307 C1309 1.433 1_545 S
C1308 C1304 1.350 . S
C1308 C1305 1.463 . S
C1308 N1312 1.427 . S
C1309 H1299 0.929 1_565 S
C1309 C1307 1.433 1_565 S
C1309 N1312 1.384 . S
C1310 H1301 0.929 . S
C1310 C1302 1.378 . S
C1310 C1305 1.350 . S
C1311 H1298 0.929 . S
C1311 C1303 1.433 . S
C1311 N1313 1.384 . S
N1312 C1308 1.427 . S
N1312 C1309 1.384 . S
N1313 C1305 1.427 . S
N1313 C1311 1.384 . S
H1314 C1320 0.930 1_545 S
H1315 C1324 0.930 . S
H1316 C1329 0.929 . S
H1317 C1327 0.925 1_655 S
H1318 C1322 0.929 . S
H1319 C1328 0.929 . S
C1320 H1314 0.930 1_565 S
C1320 C1321 1.367 1_565 S
C1320 C1328 1.378 . S
C1321 C1320 1.367 1_545 S
C1321 C1329 1.433 1_545 S
C1322 H1318 0.929 . S
C1322 C1324 1.378 . S
C1322 C1326 1.350 . S
C1323 C1326 1.463 . S
C1323 C1328 1.350 . S
C1323 N1331 1.427 . S
C1324 H1315 0.930 . S
C1324 C1322 1.378 . S
C1324 C1325 1.367 1_455 S
C1325 C1324 1.367 1_655 S
C1325 C1327 1.434 1_655 S
C1326 C1322 1.350 . S
C1326 C1323 1.463 . S
C1326 N1330 1.427 . S
C1327 H1317 0.925 1_455 S
C1327 C1325 1.434 1_455 S
C1327 N1330 1.387 . S
C1328 H1319 0.929 . S
C1328 C1320 1.378 . S
C1328 C1323 1.350 . S
C1329 H1316 0.929 . S
C1329 C1321 1.433 1_565 S
C1329 N1331 1.384 . S
N1330 C1326 1.427 . S
N1330 C1327 1.387 . S
N1331 C1323 1.427 . S
N1331 C1329 1.384 . S
H1332 C1338 0.908 1_545 S
H1333 C1342 0.930 . S
H1334 C1347 0.929 . S
H1335 C1345 0.929 . S
H1336 C1340 0.929 . S
H1337 C1346 0.929 . S
C1338 H1332 0.908 1_565 S
C1338 C1339 1.357 1_565 S
C1338 C1346 1.411 . S
C1339 C1338 1.357 1_545 S
C1339 C1347 1.433 1_545 S
C1340 H1336 0.929 . S
C1340 C1342 1.378 . S
C1340 C1344 1.350 . S
C1341 C1344 1.463 . S
C1341 C1346 1.350 . S
C1341 N1349 1.427 . S
C1342 H1333 0.930 . S
C1342 C1340 1.378 . S
C1342 C1343 1.367 . S
C1343 C1342 1.367 . S
C1343 C1345 1.433 . S
C1344 C1340 1.350 . S
C1344 C1341 1.463 . S
C1344 N1348 1.427 . S
C1345 H1335 0.929 . S
C1345 C1343 1.433 . S
C1345 N1348 1.384 . S
C1346 H1337 0.929 . S
C1346 C1338 1.411 . S
C1346 C1341 1.350 . S
C1347 H1334 0.929 . S
C1347 C1339 1.433 1_565 S
C1347 N1349 1.384 . S
N1348 C1344 1.427 . S
N1348 C1345 1.384 . S
N1349 C1341 1.427 . S
N1349 C1347 1.384 . S
H1350 C1356 0.930 . S
H1351 C1360 0.930 . S
H1352 C1365 0.929 1_545 S
H1353 C1363 0.929 . S
H1354 C1358 0.929 . S
H1355 C1364 0.929 . S
C1356 H1350 0.930 . S
C1356 C1357 1.367 1_565 S
C1356 C1364 1.378 . S
C1357 C1356 1.367 1_545 S
C1357 C1365 1.433 1_545 S
C1358 H1354 0.929 . S
C1358 C1360 1.378 1_455 S
C1358 C1362 1.350 . S
C1359 C1362 1.463 . S
C1359 C1364 1.350 . S
C1359 N1367 1.427 . S
C1360 H1351 0.930 . S
C1360 C1358 1.378 1_655 S
C1360 C1361 1.367 . S
C1361 C1360 1.367 . S
C1361 C1363 1.433 1_655 S
C1362 C1358 1.350 . S
C1362 C1359 1.463 . S
C1362 N1366 1.427 . S
C1363 H1353 0.929 . S
C1363 C1361 1.433 1_455 S
C1363 N1366 1.384 . S
C1364 H1355 0.929 . S
C1364 C1356 1.378 . S
C1364 C1359 1.350 . S
C1365 H1352 0.929 1_565 S
C1365 C1357 1.433 1_565 S
C1365 N1367 1.384 . S
N1366 C1362 1.427 . S
N1366 C1363 1.384 . S
N1367 C1359 1.427 . S
N1367 C1365 1.384 . S
H1368 C1374 0.930 . S
H1369 C1378 0.930 . S
H1370 C1383 0.929 . S
H1371 C1381 0.929 . S
H1372 C1376 0.929 . S
H1373 C1382 0.929 . S
C1374 H1368 0.930 . S
C1374 C1375 1.367 . S
C1374 C1382 1.378 . S
C1375 C1374 1.367 . S
C1375 C1383 1.433 . S
C1376 H1372 0.929 . S
C1376 C1378 1.378 . S
C1376 C1380 1.350 . S
C1377 C1380 1.463 . S
C1377 C1382 1.350 . S
C1377 N1385 1.427 . S
C1378 H1369 0.930 . S
C1378 C1376 1.378 . S
C1378 C1379 1.367 1_455 S
C1379 C1378 1.367 1_655 S
C1379 C1381 1.433 . S
C1380 C1376 1.350 . S
C1380 C1377 1.463 . S
C1380 N1384 1.427 . S
C1381 H1371 0.929 . S
C1381 C1379 1.433 . S
C1381 N1384 1.384 1_655 S
C1382 H1373 0.929 . S
C1382 C1374 1.378 . S
C1382 C1377 1.350 . S
C1383 H1370 0.929 . S
C1383 C1375 1.433 . S
C1383 N1385 1.384 . S
N1384 C1380 1.427 . S
N1384 C1381 1.384 1_455 S
N1385 C1377 1.427 . S
N1385 C1383 1.384 . S
H1386 C1392 0.930 . S
H1387 C1396 0.930 . S
H1388 C1401 0.929 1_455 S
H1389 C1399 0.929 . S
H1390 C1394 0.929 . S
H1391 C1400 0.929 . S
C1392 H1386 0.930 . S
C1392 C1393 1.367 1_655 S
C1392 C1400 1.378 . S
C1393 C1392 1.367 1_455 S
C1393 C1401 1.433 1_455 S
C1394 H1390 0.929 . S
C1394 C1396 1.378 . S
C1394 C1398 1.350 . S
C1395 C1398 1.463 . S
C1395 C1400 1.350 . S
C1395 N1403 1.427 . S
C1396 H1387 0.930 . S
C1396 C1394 1.378 . S
C1396 C1397 1.367 . S
C1397 C1396 1.367 . S
C1397 C1399 1.433 . S
C1398 C1394 1.350 . S
C1398 C1395 1.463 . S
C1398 N1402 1.427 . S
C1399 H1389 0.929 . S
C1399 C1397 1.433 . S
C1399 N1402 1.384 . S
C1400 H1391 0.929 . S
C1400 C1392 1.378 . S
C1400 C1395 1.350 . S
C1401 H1388 0.929 1_655 S
C1401 C1393 1.433 1_655 S
C1401 N1403 1.384 . S
N1402 C1398 1.427 . S
N1402 C1399 1.384 . S
N1403 C1395 1.427 . S
N1403 C1401 1.384 . S
H1404 C1410 0.930 . S
H1405 C1414 0.930 . S
H1406 C1419 0.929 . S
H1407 C1417 0.929 . S
H1408 C1412 0.929 . S
H1409 C1418 0.929 . S
C1410 H1404 0.930 . S
C1410 C1411 1.367 . S
C1410 C1418 1.378 1_565 S
C1411 C1410 1.367 . S
C1411 C1419 1.433 1_565 S
C1412 H1408 0.929 . S
C1412 C1414 1.378 . S
C1412 C1416 1.350 . S
C1413 C1416 1.463 . S
C1413 C1418 1.350 . S
C1413 N1421 1.427 . S
C1414 H1405 0.930 . S
C1414 C1412 1.378 . S
C1414 C1415 1.367 . S
C1415 C1414 1.367 . S
C1415 C1417 1.433 . S
C1416 C1412 1.350 . S
C1416 C1413 1.463 . S
C1416 N1420 1.427 . S
C1417 H1407 0.929 . S
C1417 C1415 1.433 . S
C1417 N1420 1.384 . S
C1418 H1409 0.929 . S
C1418 C1410 1.378 1_545 S
C1418 C1413 1.350 . S
C1419 H1406 0.929 . S
C1419 C1411 1.433 1_545 S
C1419 N1421 1.384 . S
N1420 C1416 1.427 . S
N1420 C1417 1.384 . S
N1421 C1413 1.427 . S
N1421 C1419 1.384 . S
H1422 C1428 0.930 . S
H1423 C1432 0.930 . S
H1424 C1437 0.929 . S
H1425 C1435 0.929 1_455 S
H1426 C1430 0.929 . S
H1427 C1436 0.929 . S
C1428 H1422 0.930 . S
C1428 C1429 1.367 . S
C1428 C1436 1.378 1_565 S
C1429 C1428 1.367 . S
C1429 C1437 1.433 1_565 S
C1430 H1426 0.929 . S
C1430 C1432 1.378 . S
C1430 C1434 1.350 . S
C1431 C1434 1.463 . S
C1431 C1436 1.350 . S
C1431 N1439 1.427 . S
C1432 H1423 0.930 . S
C1432 C1430 1.378 . S
C1432 C1433 1.367 1_655 S
C1433 C1432 1.367 1_455 S
C1433 C1435 1.433 1_455 S
C1434 C1430 1.350 . S
C1434 C1431 1.463 . S
C1434 N1438 1.427 . S
C1435 H1425 0.929 1_655 S
C1435 C1433 1.433 1_655 S
C1435 N1438 1.384 . S
C1436 H1427 0.929 . S
C1436 C1428 1.378 1_545 S
C1436 C1431 1.350 . S
C1437 H1424 0.929 . S
C1437 C1429 1.433 1_545 S
C1437 N1439 1.384 . S
N1438 C1434 1.427 . S
N1438 C1435 1.384 . S
N1439 C1431 1.427 . S
N1439 C1437 1.384 . S
H1440 C1446 0.930 . S
H1441 C1450 0.930 . S
H1442 C1455 0.929 . S
H1443 C1453 0.929 . S
H1444 C1448 0.929 . S
H1445 C1454 0.929 . S
C1446 H1440 0.930 . S
C1446 C1447 1.367 . S
C1446 C1454 1.378 . S
C1447 C1446 1.367 . S
C1447 C1455 1.433 . S
C1448 H1444 0.929 . S
C1448 C1450 1.378 . S
C1448 C1452 1.350 . S
C1449 C1452 1.463 . S
C1449 C1454 1.350 . S
C1449 N1457 1.427 . S
C1450 H1441 0.930 . S
C1450 C1448 1.378 . S
C1450 C1451 1.367 . S
C1451 C1450 1.367 . S
C1451 C1453 1.433 . S
C1452 C1448 1.350 . S
C1452 C1449 1.463 . S
C1452 N1456 1.427 . S
C1453 H1443 0.929 . S
C1453 C1451 1.433 . S
C1453 N1456 1.384 . S
C1454 H1445 0.929 . S
C1454 C1446 1.378 . S
C1454 C1449 1.350 . S
C1455 H1442 0.929 . S
C1455 C1447 1.433 . S
C1455 N1457 1.384 . S
N1456 C1452 1.427 . S
N1456 C1453 1.384 . S
N1457 C1449 1.427 . S
N1457 C1455 1.384 . S
H1458 C1464 0.930 . S
H1459 C1468 0.930 . S
H1460 C1473 0.929 . S
H1461 C1471 0.929 . S
H1462 C1466 0.929 . S
H1463 C1472 0.929 . S
C1464 H1458 0.930 . S
C1464 C1465 1.367 . S
C1464 C1472 1.378 . S
C1465 C1464 1.367 . S
C1465 C1473 1.433 . S
C1466 H1462 0.929 . S
C1466 C1468 1.378 . S
C1466 C1470 1.350 . S
C1467 C1470 1.463 . S
C1467 C1472 1.350 . S
C1467 N1475 1.427 . S
C1468 H1459 0.930 . S
C1468 C1466 1.378 . S
C1468 C1469 1.367 . S
C1469 C1468 1.367 . S
C1469 C1471 1.433 . S
C1470 C1466 1.350 . S
C1470 C1467 1.463 . S
C1470 N1474 1.427 . S
C1471 H1461 0.929 . S
C1471 C1469 1.433 . S
C1471 N1474 1.384 . S
C1472 H1463 0.929 . S
C1472 C1464 1.378 . S
C1472 C1467 1.350 . S
C1473 H1460 0.929 . S
C1473 C1465 1.433 . S
C1473 N1475 1.384 . S
N1474 C1470 1.427 . S
N1474 C1471 1.384 . S
N1475 C1467 1.427 . S
N1475 C1473 1.384 . S
H1476 C1482 0.930 . S
H1477 C1486 0.930 . S
H1478 C1491 0.929 . S
H1479 C1489 0.929 . S
H1480 C1484 0.929 . S
H1481 C1490 0.929 . S
C1482 H1476 0.930 . S
C1482 C1483 1.367 . S
C1482 C1490 1.378 . S
C1483 C1482 1.367 . S
C1483 C1491 1.433 . S
C1484 H1480 0.929 . S
C1484 C1486 1.378 . S
C1484 C1488 1.350 . S
C1485 C1488 1.463 . S
C1485 C1490 1.350 . S
C1485 N1493 1.427 . S
C1486 H1477 0.930 . S
C1486 C1484 1.378 . S
C1486 C1487 1.367 . S
C1487 C1486 1.367 . S
C1487 C1489 1.433 . S
C1488 C1484 1.350 . S
C1488 C1485 1.463 . S
C1488 N1492 1.427 . S
C1489 H1479 0.929 . S
C1489 C1487 1.433 . S
C1489 N1492 1.384 . S
C1490 H1481 0.929 . S
C1490 C1482 1.378 . S
C1490 C1485 1.350 . S
C1491 H1478 0.929 . S
C1491 C1483 1.433 . S
C1491 N1493 1.384 . S
N1492 C1488 1.427 . S
N1492 C1489 1.384 . S
N1493 C1485 1.427 . S
N1493 C1491 1.384 . S
H1494 C1500 0.930 . S
H1495 C1504 0.930 . S
H1496 C1509 0.929 . S
H1497 C1507 0.929 . S
H1498 C1502 0.929 . S
H1499 C1508 0.929 . S
C1500 H1494 0.930 . S
C1500 C1501 1.367 . S
C1500 C1508 1.378 . S
C1501 C1500 1.367 . S
C1501 C1509 1.433 . S
C1502 H1498 0.929 . S
C1502 C1504 1.378 . S
C1502 C1506 1.350 . S
C1503 C1506 1.463 . S
C1503 C1508 1.350 . S
C1503 N1511 1.427 . S
C1504 H1495 0.930 . S
C1504 C1502 1.378 . S
C1504 C1505 1.367 . S
C1505 C1504 1.367 . S
C1505 C1507 1.433 . S
C1506 C1502 1.350 . S
C1506 C1503 1.463 . S
C1506 N1510 1.427 . S
C1507 H1497 0.929 . S
C1507 C1505 1.433 . S
C1507 N1510 1.384 . S
C1508 H1499 0.929 . S
C1508 C1500 1.378 . S
C1508 C1503 1.350 . S
C1509 H1496 0.929 . S
C1509 C1501 1.433 . S
C1509 N1511 1.384 . S
N1510 C1506 1.427 . S
N1510 C1507 1.384 . S
N1511 C1503 1.427 . S
N1511 C1509 1.384 . S
H1512 C1518 0.930 . S
H1513 C1522 0.930 . S
H1514 C1527 0.929 . S
H1515 C1525 0.929 . S
H1516 C1520 0.929 . S
H1517 C1526 0.929 . S
C1518 H1512 0.930 . S
C1518 C1519 1.367 . S
C1518 C1526 1.378 . S
C1519 C1518 1.367 . S
C1519 C1527 1.433 . S
C1520 H1516 0.929 . S
C1520 C1522 1.378 . S
C1520 C1524 1.350 . S
C1521 C1524 1.463 . S
C1521 C1526 1.350 . S
C1521 N1529 1.427 . S
C1522 H1513 0.930 . S
C1522 C1520 1.378 . S
C1522 C1523 1.367 . S
C1523 C1522 1.367 . S
C1523 C1525 1.433 . S
C1524 C1520 1.350 . S
C1524 C1521 1.463 . S
C1524 N1528 1.427 . S
C1525 H1515 0.929 . S
C1525 C1523 1.433 . S
C1525 N1528 1.384 . S
C1526 H1517 0.929 . S
C1526 C1518 1.378 . S
C1526 C1521 1.350 . S
C1527 H1514 0.929 . S
C1527 C1519 1.433 . S
C1527 N1529 1.384 . S
N1528 C1524 1.427 . S
N1528 C1525 1.384 . S
N1529 C1521 1.427 . S
N1529 C1527 1.384 . S
H1530 C1536 0.930 . S
H1531 C1540 0.930 . S
H1532 C1545 0.929 . S
H1533 C1543 0.929 . S
H1534 C1538 0.929 . S
H1535 C1544 0.929 . S
C1536 H1530 0.930 . S
C1536 C1537 1.367 . S
C1536 C1544 1.378 . S
C1537 C1536 1.367 . S
C1537 C1545 1.433 . S
C1538 H1534 0.929 . S
C1538 C1540 1.378 . S
C1538 C1542 1.350 . S
C1539 C1542 1.463 . S
C1539 C1544 1.350 . S
C1539 N1547 1.427 . S
C1540 H1531 0.930 . S
C1540 C1538 1.378 . S
C1540 C1541 1.367 . S
C1541 C1540 1.367 . S
C1541 C1543 1.433 . S
C1542 C1538 1.350 . S
C1542 C1539 1.463 . S
C1542 N1546 1.427 . S
C1543 H1533 0.929 . S
C1543 C1541 1.433 . S
C1543 N1546 1.384 . S
C1544 H1535 0.929 . S
C1544 C1536 1.378 . S
C1544 C1539 1.350 . S
C1545 H1532 0.929 . S
C1545 C1537 1.433 . S
C1545 N1547 1.384 . S
N1546 C1542 1.427 . S
N1546 C1543 1.384 . S
N1547 C1539 1.427 . S
N1547 C1545 1.384 . S
H1548 C1554 0.930 . S
H1549 C1558 0.930 . S
H1550 C1563 0.929 . S
H1551 C1561 0.929 . S
H1552 C1556 0.929 . S
H1553 C1562 0.929 . S
C1554 H1548 0.930 . S
C1554 C1555 1.367 . S
C1554 C1562 1.378 . S
C1555 C1554 1.367 . S
C1555 C1563 1.433 . S
C1556 H1552 0.929 . S
C1556 C1558 1.378 . S
C1556 C1560 1.350 . S
C1557 C1560 1.463 . S
C1557 C1562 1.350 . S
C1557 N1565 1.427 . S
C1558 H1549 0.930 . S
C1558 C1556 1.378 . S
C1558 C1559 1.367 . S
C1559 C1558 1.367 . S
C1559 C1561 1.433 . S
C1560 C1556 1.350 . S
C1560 C1557 1.463 . S
C1560 N1564 1.427 . S
C1561 H1551 0.929 . S
C1561 C1559 1.433 . S
C1561 N1564 1.384 . S
C1562 H1553 0.929 . S
C1562 C1554 1.378 . S
C1562 C1557 1.350 . S
C1563 H1550 0.929 . S
C1563 C1555 1.433 . S
C1563 N1565 1.384 . S
N1564 C1560 1.427 . S
N1564 C1561 1.384 . S
N1565 C1557 1.427 . S
N1565 C1563 1.384 . S
H1566 C1572 0.930 . S
H1567 C1576 0.930 . S
H1568 C1581 0.929 . S
H1569 C1579 0.929 . S
H1570 C1574 0.929 . S
H1571 C1580 0.929 . S
C1572 H1566 0.930 . S
C1572 C1573 1.367 . S
C1572 C1580 1.378 . S
C1573 C1572 1.367 . S
C1573 C1581 1.433 . S
C1574 H1570 0.929 . S
C1574 C1576 1.378 . S
C1574 C1578 1.350 . S
C1575 C1578 1.463 . S
C1575 C1580 1.350 . S
C1575 N1583 1.427 . S
C1576 H1567 0.930 . S
C1576 C1574 1.378 . S
C1576 C1577 1.367 . S
C1577 C1576 1.367 . S
C1577 C1579 1.433 . S
C1578 C1574 1.350 . S
C1578 C1575 1.463 . S
C1578 N1582 1.427 . S
C1579 H1569 0.929 . S
C1579 C1577 1.433 . S
C1579 N1582 1.384 . S
C1580 H1571 0.929 . S
C1580 C1572 1.378 . S
C1580 C1575 1.350 . S
C1581 H1568 0.929 . S
C1581 C1573 1.433 . S
C1581 N1583 1.384 . S
N1582 C1578 1.427 . S
N1582 C1579 1.384 . S
N1583 C1575 1.427 . S
N1583 C1581 1.384 . S
H1584 C1590 0.930 . S
H1585 C1594 0.930 . S
H1586 C1599 0.929 . S
H1587 C1597 0.929 . S
H1588 C1592 0.929 . S
H1589 C1598 0.929 . S
C1590 H1584 0.930 . S
C1590 C1591 1.367 . S
C1590 C1598 1.378 . S
C1591 C1590 1.367 . S
C1591 C1599 1.433 . S
C1592 H1588 0.929 . S
C1592 C1594 1.378 . S
C1592 C1596 1.350 . S
C1593 C1596 1.463 . S
C1593 C1598 1.350 . S
C1593 N1601 1.427 . S
C1594 H1585 0.930 . S
C1594 C1592 1.378 . S
C1594 C1595 1.367 . S
C1595 C1594 1.367 . S
C1595 C1597 1.433 . S
C1596 C1592 1.350 . S
C1596 C1593 1.463 . S
C1596 N1600 1.427 . S
C1597 H1587 0.929 . S
C1597 C1595 1.433 . S
C1597 N1600 1.384 . S
C1598 H1589 0.929 . S
C1598 C1590 1.378 . S
C1598 C1593 1.350 . S
C1599 H1586 0.929 . S
C1599 C1591 1.433 . S
C1599 N1601 1.384 . S
N1600 C1596 1.427 . S
N1600 C1597 1.384 . S
N1601 C1593 1.427 . S
N1601 C1599 1.384 . S
H1602 C1608 0.930 . S
H1603 C1612 0.930 . S
H1604 C1617 0.929 . S
H1605 C1615 0.929 . S
H1606 C1610 0.929 . S
H1607 C1616 0.929 . S
C1608 H1602 0.930 . S
C1608 C1609 1.367 . S
C1608 C1616 1.378 . S
C1609 C1608 1.367 . S
C1609 C1617 1.433 . S
C1610 H1606 0.929 . S
C1610 C1612 1.378 . S
C1610 C1614 1.350 . S
C1611 C1614 1.463 . S
C1611 C1616 1.350 . S
C1611 N1619 1.427 . S
C1612 H1603 0.930 . S
C1612 C1610 1.378 . S
C1612 C1613 1.367 . S
C1613 C1612 1.367 . S
C1613 C1615 1.433 . S
C1614 C1610 1.350 . S
C1614 C1611 1.463 . S
C1614 N1618 1.427 . S
C1615 H1605 0.929 . S
C1615 C1613 1.433 . S
C1615 N1618 1.384 . S
C1616 H1607 0.929 . S
C1616 C1608 1.378 . S
C1616 C1611 1.350 . S
C1617 H1604 0.929 . S
C1617 C1609 1.433 . S
C1617 N1619 1.384 . S
N1618 C1614 1.427 . S
N1618 C1615 1.384 . S
N1619 C1611 1.427 . S
N1619 C1617 1.384 . S
H1620 C1626 0.930 . S
H1621 C1630 0.930 . S
H1622 C1635 0.929 . S
H1623 C1633 0.929 . S
H1624 C1628 0.929 . S
H1625 C1634 0.929 . S
C1626 H1620 0.930 . S
C1626 C1627 1.367 . S
C1626 C1634 1.378 . S
C1627 C1626 1.367 . S
C1627 C1635 1.433 . S
C1628 H1624 0.929 . S
C1628 C1630 1.378 . S
C1628 C1632 1.350 . S
C1629 C1632 1.463 . S
C1629 C1634 1.350 . S
C1629 N1637 1.427 . S
C1630 H1621 0.930 . S
C1630 C1628 1.378 . S
C1630 C1631 1.367 . S
C1631 C1630 1.367 . S
C1631 C1633 1.433 . S
C1632 C1628 1.350 . S
C1632 C1629 1.463 . S
C1632 N1636 1.427 . S
C1633 H1623 0.929 . S
C1633 C1631 1.433 . S
C1633 N1636 1.384 . S
C1634 H1625 0.929 . S
C1634 C1626 1.378 . S
C1634 C1629 1.350 . S
C1635 H1622 0.929 . S
C1635 C1627 1.433 . S
C1635 N1637 1.384 . S
N1636 C1632 1.427 . S
N1636 C1633 1.384 . S
N1637 C1629 1.427 . S
N1637 C1635 1.384 . S
H1638 C1644 0.930 . S
H1639 C1648 0.930 . S
H1640 C1653 0.929 . S
H1641 C1651 0.929 . S
H1642 C1646 0.929 . S
H1643 C1652 0.929 . S
C1644 H1638 0.930 . S
C1644 C1645 1.367 . S
C1644 C1652 1.378 . S
C1645 C1644 1.367 . S
C1645 C1653 1.433 . S
C1646 H1642 0.929 . S
C1646 C1648 1.378 . S
C1646 C1650 1.350 . S
C1647 C1650 1.463 . S
C1647 C1652 1.350 . S
C1647 N1655 1.427 . S
C1648 H1639 0.930 . S
C1648 C1646 1.378 . S
C1648 C1649 1.367 . S
C1649 C1648 1.367 . S
C1649 C1651 1.433 . S
C1650 C1646 1.350 . S
C1650 C1647 1.463 . S
C1650 N1654 1.427 . S
C1651 H1641 0.929 . S
C1651 C1649 1.433 . S
C1651 N1654 1.384 . S
C1652 H1643 0.929 . S
C1652 C1644 1.378 . S
C1652 C1647 1.350 . S
C1653 H1640 0.929 . S
C1653 C1645 1.433 . S
C1653 N1655 1.384 . S
N1654 C1650 1.427 . S
N1654 C1651 1.384 . S
N1655 C1647 1.427 . S
N1655 C1653 1.384 . S
H1656 C1662 0.930 . S
H1657 C1666 0.930 . S
H1658 C1671 0.929 . S
H1659 C1669 0.929 . S
H1660 C1664 0.929 . S
H1661 C1670 0.929 . S
C1662 H1656 0.930 . S
C1662 C1663 1.367 . S
C1662 C1670 1.378 . S
C1663 C1662 1.367 . S
C1663 C1671 1.433 . S
C1664 H1660 0.929 . S
C1664 C1666 1.378 . S
C1664 C1668 1.350 . S
C1665 C1668 1.463 . S
C1665 C1670 1.350 . S
C1665 N1673 1.427 . S
C1666 H1657 0.930 . S
C1666 C1664 1.378 . S
C1666 C1667 1.367 . S
C1667 C1666 1.367 . S
C1667 C1669 1.433 . S
C1668 C1664 1.350 . S
C1668 C1665 1.463 . S
C1668 N1672 1.427 . S
C1669 H1659 0.929 . S
C1669 C1667 1.433 . S
C1669 N1672 1.384 . S
C1670 H1661 0.929 . S
C1670 C1662 1.378 . S
C1670 C1665 1.350 . S
C1671 H1658 0.929 . S
C1671 C1663 1.433 . S
C1671 N1673 1.384 . S
N1672 C1668 1.427 . S
N1672 C1669 1.384 . S
N1673 C1665 1.427 . S
N1673 C1671 1.384 . S
H1674 C1680 0.930 . S
H1675 C1684 0.930 . S
H1676 C1689 0.929 . S
H1677 C1687 0.929 . S
H1678 C1682 0.929 . S
H1679 C1688 0.929 . S
C1680 H1674 0.930 . S
C1680 C1681 1.367 . S
C1680 C1688 1.378 . S
C1681 C1680 1.367 . S
C1681 C1689 1.433 . S
C1682 H1678 0.929 . S
C1682 C1684 1.378 . S
C1682 C1686 1.350 . S
C1683 C1686 1.463 . S
C1683 C1688 1.350 . S
C1683 N1691 1.427 . S
C1684 H1675 0.930 . S
C1684 C1682 1.378 . S
C1684 C1685 1.367 . S
C1685 C1684 1.367 . S
C1685 C1687 1.433 . S
C1686 C1682 1.350 . S
C1686 C1683 1.463 . S
C1686 N1690 1.427 . S
C1687 H1677 0.929 . S
C1687 C1685 1.433 . S
C1687 N1690 1.384 . S
C1688 H1679 0.929 . S
C1688 C1680 1.378 . S
C1688 C1683 1.350 . S
C1689 H1676 0.929 . S
C1689 C1681 1.433 . S
C1689 N1691 1.384 . S
N1690 C1686 1.427 . S
N1690 C1687 1.384 . S
N1691 C1683 1.427 . S
N1691 C1689 1.384 . S
H1692 C1698 0.930 . S
H1693 C1702 0.930 . S
H1694 C1707 0.929 . S
H1695 C1705 0.929 . S
H1696 C1700 0.929 . S
H1697 C1706 0.929 . S
C1698 H1692 0.930 . S
C1698 C1699 1.367 . S
C1698 C1706 1.378 . S
C1699 C1698 1.367 . S
C1699 C1707 1.433 . S
C1700 H1696 0.929 . S
C1700 C1702 1.378 . S
C1700 C1704 1.350 . S
C1701 C1704 1.463 . S
C1701 C1706 1.350 . S
C1701 N1709 1.427 . S
C1702 H1693 0.930 . S
C1702 C1700 1.378 . S
C1702 C1703 1.367 . S
C1703 C1702 1.367 . S
C1703 C1705 1.433 . S
C1704 C1700 1.350 . S
C1704 C1701 1.463 . S
C1704 N1708 1.427 . S
C1705 H1695 0.929 . S
C1705 C1703 1.433 . S
C1705 N1708 1.384 . S
C1706 H1697 0.929 . S
C1706 C1698 1.378 . S
C1706 C1701 1.350 . S
C1707 H1694 0.929 . S
C1707 C1699 1.433 . S
C1707 N1709 1.384 . S
N1708 C1704 1.427 . S
N1708 C1705 1.384 . S
N1709 C1701 1.427 . S
N1709 C1707 1.384 . S
H1710 C1716 0.930 . S
H1711 C1720 0.930 . S
H1712 C1725 0.929 . S
H1713 C1723 0.929 . S
H1714 C1718 0.929 . S
H1715 C1724 0.929 . S
C1716 H1710 0.930 . S
C1716 C1717 1.367 . S
C1716 C1724 1.378 . S
C1717 C1716 1.367 . S
C1717 C1725 1.433 . S
C1718 H1714 0.929 . S
C1718 C1720 1.378 . S
C1718 C1722 1.350 . S
C1719 C1722 1.463 . S
C1719 C1724 1.350 . S
C1719 N1727 1.427 . S
C1720 H1711 0.930 . S
C1720 C1718 1.378 . S
C1720 C1721 1.367 . S
C1721 C1720 1.367 . S
C1721 C1723 1.433 . S
C1722 C1718 1.350 . S
C1722 C1719 1.463 . S
C1722 N1726 1.427 . S
C1723 H1713 0.929 . S
C1723 C1721 1.433 . S
C1723 N1726 1.384 . S
C1724 H1715 0.929 . S
C1724 C1716 1.378 . S
C1724 C1719 1.350 . S
C1725 H1712 0.929 . S
C1725 C1717 1.433 . S
C1725 N1727 1.384 . S
N1726 C1722 1.427 . S
N1726 C1723 1.384 . S
N1727 C1719 1.427 . S
N1727 C1725 1.384 . S
H1728 C1734 0.930 . S
H1729 C1738 0.930 . S
H1730 C1743 0.929 . S
H1731 C1741 0.929 . S
H1732 C1736 0.929 . S
H1733 C1742 0.929 . S
C1734 H1728 0.930 . S
C1734 C1735 1.367 . S
C1734 C1742 1.378 . S
C1735 C1734 1.367 . S
C1735 C1743 1.433 . S
C1736 H1732 0.929 . S
C1736 C1738 1.378 . S
C1736 C1740 1.350 . S
C1737 C1740 1.463 . S
C1737 C1742 1.350 . S
C1737 N1745 1.427 . S
C1738 H1729 0.930 . S
C1738 C1736 1.378 . S
C1738 C1739 1.367 . S
C1739 C1738 1.367 . S
C1739 C1741 1.433 . S
C1740 C1736 1.350 . S
C1740 C1737 1.463 . S
C1740 N1744 1.427 . S
C1741 H1731 0.929 . S
C1741 C1739 1.433 . S
C1741 N1744 1.384 . S
C1742 H1733 0.929 . S
C1742 C1734 1.378 . S
C1742 C1737 1.350 . S
C1743 H1730 0.929 . S
C1743 C1735 1.433 . S
C1743 N1745 1.384 . S
N1744 C1740 1.427 . S
N1744 C1741 1.384 . S
N1745 C1737 1.427 . S
N1745 C1743 1.384 . S
H1746 C1752 0.930 . S
H1747 C1756 0.930 . S
H1748 C1761 0.929 . S
H1749 C1759 0.929 . S
H1750 C1754 0.929 . S
H1751 C1760 0.929 . S
C1752 H1746 0.930 . S
C1752 C1753 1.367 . S
C1752 C1760 1.378 . S
C1753 C1752 1.367 . S
C1753 C1761 1.433 . S
C1754 H1750 0.929 . S
C1754 C1756 1.378 . S
C1754 C1758 1.350 . S
C1755 C1758 1.463 . S
C1755 C1760 1.350 . S
C1755 N1763 1.427 . S
C1756 H1747 0.930 . S
C1756 C1754 1.378 . S
C1756 C1757 1.367 . S
C1757 C1756 1.367 . S
C1757 C1759 1.433 . S
C1758 C1754 1.350 . S
C1758 C1755 1.463 . S
C1758 N1762 1.427 . S
C1759 H1749 0.929 . S
C1759 C1757 1.433 . S
C1759 N1762 1.384 . S
C1760 H1751 0.929 . S
C1760 C1752 1.378 . S
C1760 C1755 1.350 . S
C1761 H1748 0.929 . S
C1761 C1753 1.433 . S
C1761 N1763 1.384 . S
N1762 C1758 1.427 . S
N1762 C1759 1.384 . S
N1763 C1755 1.427 . S
N1763 C1761 1.384 . S
H1764 C1770 0.930 . S
H1765 C1774 0.930 . S
H1766 C1779 0.929 . S
H1767 C1777 0.929 . S
H1768 C1772 0.929 . S
H1769 C1778 0.929 . S
C1770 H1764 0.930 . S
C1770 C1771 1.367 . S
C1770 C1778 1.378 . S
C1771 C1770 1.367 . S
C1771 C1779 1.433 . S
C1772 H1768 0.929 . S
C1772 C1774 1.378 . S
C1772 C1776 1.350 . S
C1773 C1776 1.463 . S
C1773 C1778 1.350 . S
C1773 N1781 1.427 . S
C1774 H1765 0.930 . S
C1774 C1772 1.378 . S
C1774 C1775 1.367 . S
C1775 C1774 1.367 . S
C1775 C1777 1.433 . S
C1776 C1772 1.350 . S
C1776 C1773 1.463 . S
C1776 N1780 1.427 . S
C1777 H1767 0.929 . S
C1777 C1775 1.433 . S
C1777 N1780 1.384 . S
C1778 H1769 0.929 . S
C1778 C1770 1.378 . S
C1778 C1773 1.350 . S
C1779 H1766 0.929 . S
C1779 C1771 1.433 . S
C1779 N1781 1.384 . S
N1780 C1776 1.427 . S
N1780 C1777 1.384 . S
N1781 C1773 1.427 . S
N1781 C1779 1.384 . S
H1782 C1788 0.930 . S
H1783 C1792 0.930 . S
H1784 C1797 0.929 . S
H1785 C1795 0.929 . S
H1786 C1790 0.929 . S
H1787 C1796 0.929 . S
C1788 H1782 0.930 . S
C1788 C1789 1.367 . S
C1788 C1796 1.378 . S
C1789 C1788 1.367 . S
C1789 C1797 1.433 . S
C1790 H1786 0.929 . S
C1790 C1792 1.378 . S
C1790 C1794 1.350 . S
C1791 C1794 1.463 . S
C1791 C1796 1.350 . S
C1791 N1799 1.427 . S
C1792 H1783 0.930 . S
C1792 C1790 1.378 . S
C1792 C1793 1.367 . S
C1793 C1792 1.367 . S
C1793 C1795 1.433 . S
C1794 C1790 1.350 . S
C1794 C1791 1.463 . S
C1794 N1798 1.427 . S
C1795 H1785 0.929 . S
C1795 C1793 1.433 . S
C1795 N1798 1.384 . S
C1796 H1787 0.929 . S
C1796 C1788 1.378 . S
C1796 C1791 1.350 . S
C1797 H1784 0.929 . S
C1797 C1789 1.433 . S
C1797 N1799 1.384 . S
N1798 C1794 1.427 . S
N1798 C1795 1.384 . S
N1799 C1791 1.427 . S
N1799 C1797 1.384 . S
H1800 C1806 0.930 . S
H1801 C1810 0.930 . S
H1802 C1815 0.929 . S
H1803 C1813 0.929 . S
H1804 C1808 0.929 . S
H1805 C1814 0.929 . S
C1806 H1800 0.930 . S
C1806 C1807 1.367 . S
C1806 C1814 1.378 . S
C1807 C1806 1.367 . S
C1807 C1815 1.433 . S
C1808 H1804 0.929 . S
C1808 C1810 1.378 . S
C1808 C1812 1.350 . S
C1809 C1812 1.463 . S
C1809 C1814 1.350 . S
C1809 N1817 1.427 . S
C1810 H1801 0.930 . S
C1810 C1808 1.378 . S
C1810 C1811 1.367 . S
C1811 C1810 1.367 . S
C1811 C1813 1.433 . S
C1812 C1808 1.350 . S
C1812 C1809 1.463 . S
C1812 N1816 1.427 . S
C1813 H1803 0.929 . S
C1813 C1811 1.433 . S
C1813 N1816 1.384 . S
C1814 H1805 0.929 . S
C1814 C1806 1.378 . S
C1814 C1809 1.350 . S
C1815 H1802 0.929 . S
C1815 C1807 1.433 . S
C1815 N1817 1.384 . S
N1816 C1812 1.427 . S
N1816 C1813 1.384 . S
N1817 C1809 1.427 . S
N1817 C1815 1.384 . S
H1818 C1824 0.930 . S
H1819 C1828 0.930 . S
H1820 C1833 0.929 . S
H1821 C1831 0.929 . S
H1822 C1826 0.929 . S
H1823 C1832 0.929 . S
C1824 H1818 0.930 . S
C1824 C1825 1.367 . S
C1824 C1832 1.378 . S
C1825 C1824 1.367 . S
C1825 C1833 1.433 . S
C1826 H1822 0.929 . S
C1826 C1828 1.378 . S
C1826 C1830 1.350 . S
C1827 C1830 1.463 . S
C1827 C1832 1.350 . S
C1827 N1835 1.427 . S
C1828 H1819 0.930 . S
C1828 C1826 1.378 . S
C1828 C1829 1.367 . S
C1829 C1828 1.367 . S
C1829 C1831 1.433 . S
C1830 C1826 1.350 . S
C1830 C1827 1.463 . S
C1830 N1834 1.427 . S
C1831 H1821 0.929 . S
C1831 C1829 1.433 . S
C1831 N1834 1.384 . S
C1832 H1823 0.929 . S
C1832 C1824 1.378 . S
C1832 C1827 1.350 . S
C1833 H1820 0.929 . S
C1833 C1825 1.433 . S
C1833 N1835 1.384 . S
N1834 C1830 1.427 . S
N1834 C1831 1.384 . S
N1835 C1827 1.427 . S
N1835 C1833 1.384 . S
H1836 C1842 0.930 . S
H1837 C1846 0.930 . S
H1838 C1851 0.929 . S
H1839 C1849 0.929 . S
H1840 C1844 0.929 . S
H1841 C1850 0.929 . S
C1842 H1836 0.930 . S
C1842 C1843 1.367 . S
C1842 C1850 1.378 . S
C1843 C1842 1.367 . S
C1843 C1851 1.433 . S
C1844 H1840 0.929 . S
C1844 C1846 1.378 . S
C1844 C1848 1.350 . S
C1845 C1848 1.463 . S
C1845 C1850 1.350 . S
C1845 N1853 1.427 . S
C1846 H1837 0.930 . S
C1846 C1844 1.378 . S
C1846 C1847 1.367 . S
C1847 C1846 1.367 . S
C1847 C1849 1.433 . S
C1848 C1844 1.350 . S
C1848 C1845 1.463 . S
C1848 N1852 1.427 . S
C1849 H1839 0.929 . S
C1849 C1847 1.433 . S
C1849 N1852 1.384 . S
C1850 H1841 0.929 . S
C1850 C1842 1.378 . S
C1850 C1845 1.350 . S
C1851 H1838 0.929 . S
C1851 C1843 1.433 . S
C1851 N1853 1.384 . S
N1852 C1848 1.427 . S
N1852 C1849 1.384 . S
N1853 C1845 1.427 . S
N1853 C1851 1.384 . S
H1854 C1860 0.930 . S
H1855 C1864 0.930 . S
H1856 C1869 0.929 . S
H1857 C1867 0.929 . S
H1858 C1862 0.929 . S
H1859 C1868 0.929 . S
C1860 H1854 0.930 . S
C1860 C1861 1.367 . S
C1860 C1868 1.378 . S
C1861 C1860 1.367 . S
C1861 C1869 1.433 . S
C1862 H1858 0.929 . S
C1862 C1864 1.378 . S
C1862 C1866 1.350 . S
C1863 C1866 1.463 . S
C1863 C1868 1.350 . S
C1863 N1871 1.427 . S
C1864 H1855 0.930 . S
C1864 C1862 1.378 . S
C1864 C1865 1.367 . S
C1865 C1864 1.367 . S
C1865 C1867 1.433 . S
C1866 C1862 1.350 . S
C1866 C1863 1.463 . S
C1866 N1870 1.427 . S
C1867 H1857 0.929 . S
C1867 C1865 1.433 . S
C1867 N1870 1.384 . S
C1868 H1859 0.929 . S
C1868 C1860 1.378 . S
C1868 C1863 1.350 . S
C1869 H1856 0.929 . S
C1869 C1861 1.433 . S
C1869 N1871 1.384 . S
N1870 C1866 1.427 . S
N1870 C1867 1.384 . S
N1871 C1863 1.427 . S
N1871 C1869 1.384 . S
H1872 C1878 0.930 . S
H1873 C1882 0.930 . S
H1874 C1887 0.929 . S
H1875 C1885 0.929 . S
H1876 C1880 0.929 . S
H1877 C1886 0.929 . S
C1878 H1872 0.930 . S
C1878 C1879 1.367 . S
C1878 C1886 1.378 . S
C1879 C1878 1.367 . S
C1879 C1887 1.433 . S
C1880 H1876 0.929 . S
C1880 C1882 1.378 . S
C1880 C1884 1.350 . S
C1881 C1884 1.463 . S
C1881 C1886 1.350 . S
C1881 N1889 1.427 . S
C1882 H1873 0.930 . S
C1882 C1880 1.378 . S
C1882 C1883 1.367 . S
C1883 C1882 1.367 . S
C1883 C1885 1.433 . S
C1884 C1880 1.350 . S
C1884 C1881 1.463 . S
C1884 N1888 1.427 . S
C1885 H1875 0.929 . S
C1885 C1883 1.433 . S
C1885 N1888 1.384 . S
C1886 H1877 0.929 . S
C1886 C1878 1.378 . S
C1886 C1881 1.350 . S
C1887 H1874 0.929 . S
C1887 C1879 1.433 . S
C1887 N1889 1.384 . S
N1888 C1884 1.427 . S
N1888 C1885 1.384 . S
N1889 C1881 1.427 . S
N1889 C1887 1.384 . S
H1890 C1896 0.930 . S
H1891 C1900 0.930 . S
H1892 C1905 0.929 . S
H1893 C1903 0.929 1_545 S
H1894 C1898 0.929 . S
H1895 C1904 0.929 . S
C1896 H1890 0.930 . S
C1896 C1897 1.367 . S
C1896 C1904 1.378 . S
C1897 C1896 1.367 . S
C1897 C1905 1.433 . S
C1898 H1894 0.929 . S
C1898 C1900 1.378 . S
C1898 C1902 1.350 . S
C1899 C1902 1.463 . S
C1899 C1904 1.350 . S
C1899 N1907 1.427 . S
C1900 H1891 0.930 . S
C1900 C1898 1.378 . S
C1900 C1901 1.367 . S
C1901 C1900 1.367 . S
C1901 C1903 1.433 . S
C1902 C1898 1.350 . S
C1902 C1899 1.463 . S
C1902 N1906 1.427 . S
C1903 H1893 0.929 1_565 S
C1903 C1901 1.433 . S
C1903 N1906 1.384 . S
C1904 H1895 0.929 . S
C1904 C1896 1.378 . S
C1904 C1899 1.350 . S
C1905 H1892 0.929 . S
C1905 C1897 1.433 . S
C1905 N1907 1.384 . S
N1906 C1902 1.427 . S
N1906 C1903 1.384 . S
N1907 C1899 1.427 . S
N1907 C1905 1.384 . S
H1908 C1914 0.930 . S
H1909 C1918 0.930 1_655 S
H1910 C1923 0.929 . S
H1911 C1921 0.929 . S
H1912 C1916 0.929 . S
H1913 C1922 0.929 . S
C1914 H1908 0.930 . S
C1914 C1915 1.367 . S
C1914 C1922 1.378 . S
C1915 C1914 1.367 . S
C1915 C1923 1.433 . S
C1916 H1912 0.929 . S
C1916 C1918 1.378 . S
C1916 C1920 1.350 . S
C1917 C1920 1.463 . S
C1917 C1922 1.350 . S
C1917 N1925 1.427 . S
C1918 H1909 0.930 1_455 S
C1918 C1916 1.378 . S
C1918 C1919 1.367 . S
C1919 C1918 1.367 . S
C1919 C1921 1.433 . S
C1920 C1916 1.350 . S
C1920 C1917 1.463 . S
C1920 N1924 1.427 . S
C1921 H1911 0.929 . S
C1921 C1919 1.433 . S
C1921 N1924 1.384 . S
C1922 H1913 0.929 . S
C1922 C1914 1.378 . S
C1922 C1917 1.350 . S
C1923 H1910 0.929 . S
C1923 C1915 1.433 . S
C1923 N1925 1.384 . S
N1924 C1920 1.427 . S
N1924 C1921 1.384 . S
N1925 C1917 1.427 . S
N1925 C1923 1.384 . S
H1926 C1932 0.930 . S
H1927 C1936 0.930 . S
H1928 C1941 0.929 . S
H1929 C1939 0.929 . S
H1930 C1934 0.929 . S
H1931 C1940 0.929 . S
C1932 H1926 0.930 . S
C1932 C1933 1.367 . S
C1932 C1940 1.378 . S
C1933 C1932 1.367 . S
C1933 C1941 1.433 . S
C1934 H1930 0.929 . S
C1934 C1936 1.378 . S
C1934 C1938 1.350 . S
C1935 C1938 1.463 . S
C1935 C1940 1.350 . S
C1935 N1943 1.427 . S
C1936 H1927 0.930 . S
C1936 C1934 1.378 . S
C1936 C1937 1.367 . S
C1937 C1936 1.367 . S
C1937 C1939 1.433 . S
C1938 C1934 1.350 . S
C1938 C1935 1.463 . S
C1938 N1942 1.427 . S
C1939 H1929 0.929 . S
C1939 C1937 1.433 . S
C1939 N1942 1.384 . S
C1940 H1931 0.929 . S
C1940 C1932 1.378 . S
C1940 C1935 1.350 . S
C1941 H1928 0.929 . S
C1941 C1933 1.433 . S
C1941 N1943 1.384 . S
N1942 C1938 1.427 . S
N1942 C1939 1.384 . S
N1943 C1935 1.427 . S
N1943 C1941 1.384 . S
H1944 C1950 0.930 . S
H1945 C1954 0.930 . S
H1946 C1959 0.929 1_565 S
H1947 C1957 0.929 . S
H1948 C1952 0.929 . S
H1949 C1958 0.929 . S
C1950 H1944 0.930 . S
C1950 C1951 1.367 . S
C1950 C1958 1.378 . S
C1951 C1950 1.367 . S
C1951 C1959 1.433 . S
C1952 H1948 0.929 . S
C1952 C1954 1.378 . S
C1952 C1956 1.350 . S
C1953 C1956 1.463 . S
C1953 C1958 1.350 . S
C1953 N1961 1.427 . S
C1954 H1945 0.930 . S
C1954 C1952 1.378 . S
C1954 C1955 1.367 . S
C1955 C1954 1.367 . S
C1955 C1957 1.433 . S
C1956 C1952 1.350 . S
C1956 C1953 1.463 . S
C1956 N1960 1.427 . S
C1957 H1947 0.929 . S
C1957 C1955 1.433 . S
C1957 N1960 1.384 . S
C1958 H1949 0.929 . S
C1958 C1950 1.378 . S
C1958 C1953 1.350 . S
C1959 H1946 0.929 1_545 S
C1959 C1951 1.433 . S
C1959 N1961 1.384 . S
N1960 C1956 1.427 . S
N1960 C1957 1.384 . S
N1961 C1953 1.427 . S
N1961 C1959 1.384 . S
H1962 C1968 0.930 . S
H1963 C1972 0.930 . S
H1964 C1977 0.929 . S
H1965 C1975 0.929 . S
H1966 C1970 0.929 . S
H1967 C1976 0.929 . S
C1968 H1962 0.930 . S
C1968 C1969 1.367 . S
C1968 C1976 1.378 . S
C1969 C1968 1.367 . S
C1969 C1977 1.433 . S
C1970 H1966 0.929 . S
C1970 C1972 1.378 1_655 S
C1970 C1974 1.350 . S
C1971 C1974 1.463 . S
C1971 C1976 1.350 . S
C1971 N1979 1.427 . S
C1972 H1963 0.930 . S
C1972 C1970 1.378 1_455 S
C1972 C1973 1.367 1_455 S
C1973 C1972 1.367 1_655 S
C1973 C1975 1.433 . S
C1974 C1970 1.350 . S
C1974 C1971 1.463 . S
C1974 N1978 1.427 . S
C1975 H1965 0.929 . S
C1975 C1973 1.433 . S
C1975 N1978 1.384 . S
C1976 H1967 0.929 . S
C1976 C1968 1.378 . S
C1976 C1971 1.350 . S
C1977 H1964 0.929 . S
C1977 C1969 1.433 . S
C1977 N1979 1.384 . S
N1978 C1974 1.427 . S
N1978 C1975 1.384 . S
N1979 C1971 1.427 . S
N1979 C1977 1.384 . S
H1980 C1986 0.930 . S
H1981 C1990 0.930 . S
H1982 C1995 0.929 . S
H1983 C1993 0.929 . S
H1984 C1988 0.929 . S
H1985 C1994 0.929 . S
C1986 H1980 0.930 . S
C1986 C1987 1.367 . S
C1986 C1994 1.378 . S
C1987 C1986 1.367 . S
C1987 C1995 1.433 . S
C1988 H1984 0.929 . S
C1988 C1990 1.378 . S
C1988 C1992 1.350 . S
C1989 C1992 1.463 . S
C1989 C1994 1.350 . S
C1989 N1997 1.427 . S
C1990 H1981 0.930 . S
C1990 C1988 1.378 . S
C1990 C1991 1.367 . S
C1991 C1990 1.367 . S
C1991 C1993 1.433 . S
C1992 C1988 1.350 . S
C1992 C1989 1.463 . S
C1992 N1996 1.427 . S
C1993 H1983 0.929 . S
C1993 C1991 1.433 . S
C1993 N1996 1.384 . S
C1994 H1985 0.929 . S
C1994 C1986 1.378 . S
C1994 C1989 1.350 . S
C1995 H1982 0.929 . S
C1995 C1987 1.433 . S
C1995 N1997 1.384 . S
N1996 C1992 1.427 . S
N1996 C1993 1.384 . S
N1997 C1989 1.427 . S
N1997 C1995 1.384 . S
H1998 C2004 0.930 . S
H1999 C2008 0.930 . S
H2000 C2013 0.929 . S
H2001 C2011 0.929 . S
H2002 C2006 0.929 . S
H2003 C2012 0.929 . S
C2004 H1998 0.930 . S
C2004 C2005 1.367 . S
C2004 C2012 1.378 . S
C2005 C2004 1.367 . S
C2005 C2013 1.433 . S
C2006 H2002 0.929 . S
C2006 C2008 1.378 . S
C2006 C2010 1.350 . S
C2007 C2010 1.463 . S
C2007 C2012 1.350 . S
C2007 N2015 1.427 . S
C2008 H1999 0.930 . S
C2008 C2006 1.378 . S
C2008 C2009 1.367 . S
C2009 C2008 1.367 . S
C2009 C2011 1.433 1_545 S
C2010 C2006 1.350 . S
C2010 C2007 1.463 . S
C2010 N2014 1.427 . S
C2011 H2001 0.929 . S
C2011 C2009 1.433 1_565 S
C2011 N2014 1.384 1_565 S
C2012 H2003 0.929 . S
C2012 C2004 1.378 . S
C2012 C2007 1.350 . S
C2013 H2000 0.929 . S
C2013 C2005 1.433 . S
C2013 N2015 1.384 . S
N2014 C2010 1.427 . S
N2014 C2011 1.384 1_545 S
N2015 C2007 1.427 . S
N2015 C2013 1.384 . S
H2016 C2022 0.930 . S
H2017 C2026 0.930 . S
H2018 C2031 0.929 . S
H2019 C2029 0.929 1_455 S
H2020 C2024 0.929 . S
H2021 C2030 0.929 . S
C2022 H2016 0.930 . S
C2022 C2023 1.367 . S
C2022 C2030 1.378 . S
C2023 C2022 1.367 . S
C2023 C2031 1.433 . S
C2024 H2020 0.929 . S
C2024 C2026 1.378 . S
C2024 C2028 1.350 . S
C2025 C2028 1.463 . S
C2025 C2030 1.350 . S
C2025 N2033 1.427 . S
C2026 H2017 0.930 . S
C2026 C2024 1.378 . S
C2026 C2027 1.367 . S
C2027 C2026 1.367 . S
C2027 C2029 1.433 . S
C2028 C2024 1.350 . S
C2028 C2025 1.463 . S
C2028 N2032 1.427 . S
C2029 H2019 0.929 1_655 S
C2029 C2027 1.433 . S
C2029 N2032 1.384 . S
C2030 H2021 0.929 . S
C2030 C2022 1.378 . S
C2030 C2025 1.350 . S
C2031 H2018 0.929 . S
C2031 C2023 1.433 . S
C2031 N2033 1.384 . S
N2032 C2028 1.427 . S
N2032 C2029 1.384 . S
N2033 C2025 1.427 . S
N2033 C2031 1.384 . S
H2034 C2040 0.930 . S
H2035 C2044 0.930 . S
H2036 C2049 0.929 . S
H2037 C2047 0.929 . S
H2038 C2042 0.929 . S
H2039 C2048 0.929 . S
C2040 H2034 0.930 . S
C2040 C2041 1.367 . S
C2040 C2048 1.378 . S
C2041 C2040 1.367 . S
C2041 C2049 1.433 . S
C2042 H2038 0.929 . S
C2042 C2044 1.378 . S
C2042 C2046 1.350 . S
C2043 C2046 1.463 . S
C2043 C2048 1.350 . S
C2043 N2051 1.427 . S
C2044 H2035 0.930 . S
C2044 C2042 1.378 . S
C2044 C2045 1.367 . S
C2045 C2044 1.367 . S
C2045 C2047 1.433 . S
C2046 C2042 1.350 . S
C2046 C2043 1.463 . S
C2046 N2050 1.427 . S
C2047 H2037 0.929 . S
C2047 C2045 1.433 . S
C2047 N2050 1.384 . S
C2048 H2039 0.929 . S
C2048 C2040 1.378 . S
C2048 C2043 1.350 . S
C2049 H2036 0.929 . S
C2049 C2041 1.433 . S
C2049 N2051 1.384 . S
N2050 C2046 1.427 . S
N2050 C2047 1.384 . S
N2051 C2043 1.427 . S
N2051 C2049 1.384 . S
H2052 C2058 0.930 . S
H2053 C2062 0.930 . S
H2054 C2067 0.929 . S
H2055 C2065 0.929 . S
H2056 C2060 0.929 . S
H2057 C2066 0.929 . S
C2058 H2052 0.930 . S
C2058 C2059 1.367 . S
C2058 C2066 1.378 . S
C2059 C2058 1.367 . S
C2059 C2067 1.433 . S
C2060 H2056 0.929 . S
C2060 C2062 1.378 . S
C2060 C2064 1.350 . S
C2061 C2064 1.463 . S
C2061 C2066 1.350 . S
C2061 N2069 1.427 . S
C2062 H2053 0.930 . S
C2062 C2060 1.378 . S
C2062 C2063 1.367 . S
C2063 C2062 1.367 . S
C2063 C2065 1.433 . S
C2064 C2060 1.350 . S
C2064 C2061 1.463 . S
C2064 N2068 1.427 . S
C2065 H2055 0.929 . S
C2065 C2063 1.433 . S
C2065 N2068 1.384 . S
C2066 H2057 0.929 . S
C2066 C2058 1.378 . S
C2066 C2061 1.350 . S
C2067 H2054 0.929 . S
C2067 C2059 1.433 . S
C2067 N2069 1.384 . S
N2068 C2064 1.427 . S
N2068 C2065 1.384 . S
N2069 C2061 1.427 . S
N2069 C2067 1.384 . S
H2070 C2076 0.930 . S
H2071 C2080 0.930 . S
H2072 C2085 0.929 . S
H2073 C2083 0.929 1_655 S
H2074 C2078 0.929 . S
H2075 C2084 0.929 . S
C2076 H2070 0.930 . S
C2076 C2077 1.367 . S
C2076 C2084 1.378 . S
C2077 C2076 1.367 . S
C2077 C2085 1.433 . S
C2078 H2074 0.929 . S
C2078 C2080 1.378 . S
C2078 C2082 1.350 . S
C2079 C2082 1.463 . S
C2079 C2084 1.350 . S
C2079 N2087 1.427 . S
C2080 H2071 0.930 . S
C2080 C2078 1.378 . S
C2080 C2081 1.367 . S
C2081 C2080 1.367 . S
C2081 C2083 1.433 . S
C2082 C2078 1.350 . S
C2082 C2079 1.463 . S
C2082 N2086 1.427 . S
C2083 H2073 0.929 1_455 S
C2083 C2081 1.433 . S
C2083 N2086 1.384 . S
C2084 H2075 0.929 . S
C2084 C2076 1.378 . S
C2084 C2079 1.350 . S
C2085 H2072 0.929 . S
C2085 C2077 1.433 . S
C2085 N2087 1.384 . S
N2086 C2082 1.427 . S
N2086 C2083 1.384 . S
N2087 C2079 1.427 . S
N2087 C2085 1.384 . S
H2088 C2094 0.930 . S
H2089 C2098 0.930 . S
H2090 C2103 0.929 . S
H2091 C2101 0.929 . S
H2092 C2096 0.929 . S
H2093 C2102 0.929 . S
C2094 H2088 0.930 . S
C2094 C2095 1.367 . S
C2094 C2102 1.378 . S
C2095 C2094 1.367 . S
C2095 C2103 1.433 . S
C2096 H2092 0.929 . S
C2096 C2098 1.378 1_655 S
C2096 C2100 1.350 . S
C2097 C2100 1.463 . S
C2097 C2102 1.350 . S
C2097 N2105 1.427 . S
C2098 H2089 0.930 . S
C2098 C2096 1.378 1_455 S
C2098 C2099 1.367 . S
C2099 C2098 1.367 . S
C2099 C2101 1.433 . S
C2100 C2096 1.350 . S
C2100 C2097 1.463 . S
C2100 N2104 1.427 . S
C2101 H2091 0.929 . S
C2101 C2099 1.433 . S
C2101 N2104 1.384 1_455 S
C2102 H2093 0.929 . S
C2102 C2094 1.378 . S
C2102 C2097 1.350 . S
C2103 H2090 0.929 . S
C2103 C2095 1.433 . S
C2103 N2105 1.384 . S
N2104 C2100 1.427 . S
N2104 C2101 1.384 1_655 S
N2105 C2097 1.427 . S
N2105 C2103 1.384 . S
H2106 C2112 0.930 . S
H2107 C2116 0.930 . S
H2108 C2121 0.929 . S
H2109 C2119 0.929 . S
H2110 C2114 0.929 . S
H2111 C2120 0.929 . S
C2112 H2106 0.930 . S
C2112 C2113 1.367 . S
C2112 C2120 1.378 . S
C2113 C2112 1.367 . S
C2113 C2121 1.433 . S
C2114 H2110 0.929 . S
C2114 C2116 1.378 . S
C2114 C2118 1.350 . S
C2115 C2118 1.463 . S
C2115 C2120 1.350 . S
C2115 N2123 1.427 . S
C2116 H2107 0.930 . S
C2116 C2114 1.378 . S
C2116 C2117 1.367 . S
C2117 C2116 1.367 . S
C2117 C2119 1.433 . S
C2118 C2114 1.350 . S
C2118 C2115 1.463 . S
C2118 N2122 1.427 . S
C2119 H2109 0.929 . S
C2119 C2117 1.433 . S
C2119 N2122 1.384 . S
C2120 H2111 0.929 . S
C2120 C2112 1.378 . S
C2120 C2115 1.350 . S
C2121 H2108 0.929 . S
C2121 C2113 1.433 . S
C2121 N2123 1.384 . S
N2122 C2118 1.427 . S
N2122 C2119 1.384 . S
N2123 C2115 1.427 . S
N2123 C2121 1.384 . S
H2124 C2130 0.930 . S
H2125 C2134 0.930 . S
H2126 C2139 0.929 . S
H2127 C2137 0.929 . S
H2128 C2132 0.929 . S
H2129 C2138 0.934 . S
C2130 H2124 0.930 . S
C2130 C2131 1.367 . S
C2130 C2138 1.393 . S
C2131 C2130 1.367 . S
C2131 C2139 1.433 1_565 S
C2132 H2128 0.929 . S
C2132 C2134 1.378 . S
C2132 C2136 1.350 . S
C2133 C2136 1.463 . S
C2133 C2138 1.330 1_545 S
C2133 N2141 1.427 . S
C2134 H2125 0.930 . S
C2134 C2132 1.378 . S
C2134 C2135 1.367 . S
C2135 C2134 1.367 . S
C2135 C2137 1.433 . S
C2136 C2132 1.350 . S
C2136 C2133 1.463 . S
C2136 N2140 1.427 . S
C2137 H2127 0.929 . S
C2137 C2135 1.433 . S
C2137 N2140 1.384 . S
C2138 H2129 0.934 . S
C2138 C2130 1.393 . S
C2138 C2133 1.330 1_565 S
C2139 H2126 0.929 . S
C2139 C2131 1.433 1_545 S
C2139 N2141 1.384 . S
N2140 C2136 1.427 . S
N2140 C2137 1.384 . S
N2141 C2133 1.427 . S
N2141 C2139 1.384 . S
H2142 C2148 0.930 . S
H2143 C2152 0.930 . S
H2144 C2157 0.929 . S
H2145 C2155 0.929 . S
H2146 C2150 0.929 . S
H2147 C2156 0.929 . S
C2148 H2142 0.930 . S
C2148 C2149 1.367 . S
C2148 C2156 1.378 . S
C2149 C2148 1.367 . S
C2149 C2157 1.433 . S
C2150 H2146 0.929 . S
C2150 C2152 1.378 . S
C2150 C2154 1.350 . S
C2151 C2154 1.463 . S
C2151 C2156 1.350 1_455 S
C2151 N2159 1.427 1_455 S
C2152 H2143 0.930 . S
C2152 C2150 1.378 . S
C2152 C2153 1.367 . S
C2153 C2152 1.367 . S
C2153 C2155 1.433 . S
C2154 C2150 1.350 . S
C2154 C2151 1.463 . S
C2154 N2158 1.427 . S
C2155 H2145 0.929 . S
C2155 C2153 1.433 . S
C2155 N2158 1.384 . S
C2156 H2147 0.929 . S
C2156 C2148 1.378 . S
C2156 C2151 1.350 1_655 S
C2157 H2144 0.929 . S
C2157 C2149 1.433 . S
C2157 N2159 1.384 . S
N2158 C2154 1.427 . S
N2158 C2155 1.384 . S
N2159 C2151 1.427 1_655 S
N2159 C2157 1.384 . S
H2160 C2166 0.930 . S
H2161 C2170 0.930 . S
H2162 C2175 0.929 . S
H2163 C2173 0.929 . S
H2164 C2168 0.929 . S
H2165 C2174 0.929 . S
C2166 H2160 0.930 . S
C2166 C2167 1.367 . S
C2166 C2174 1.378 . S
C2167 C2166 1.367 . S
C2167 C2175 1.433 . S
C2168 H2164 0.929 . S
C2168 C2170 1.378 . S
C2168 C2172 1.350 . S
C2169 C2172 1.463 . S
C2169 C2174 1.350 . S
C2169 N2177 1.427 . S
C2170 H2161 0.930 . S
C2170 C2168 1.378 . S
C2170 C2171 1.367 . S
C2171 C2170 1.367 . S
C2171 C2173 1.433 . S
C2172 C2168 1.350 . S
C2172 C2169 1.463 . S
C2172 N2176 1.427 . S
C2173 H2163 0.929 . S
C2173 C2171 1.433 . S
C2173 N2176 1.384 . S
C2174 H2165 0.929 . S
C2174 C2166 1.378 . S
C2174 C2169 1.350 . S
C2175 H2162 0.929 . S
C2175 C2167 1.433 . S
C2175 N2177 1.384 . S
N2176 C2172 1.427 . S
N2176 C2173 1.384 . S
N2177 C2169 1.427 . S
N2177 C2175 1.384 . S
H2178 C2184 0.930 . S
H2179 C2188 0.930 . S
H2180 C2193 0.929 . S
H2181 C2191 0.929 1_545 S
H2182 C2186 0.929 . S
H2183 C2192 0.929 . S
C2184 H2178 0.930 . S
C2184 C2185 1.367 . S
C2184 C2192 1.378 . S
C2185 C2184 1.367 . S
C2185 C2193 1.433 1_545 S
C2186 H2182 0.929 . S
C2186 C2188 1.378 . S
C2186 C2190 1.350 . S
C2187 C2190 1.463 . S
C2187 C2192 1.350 1_565 S
C2187 N2195 1.427 . S
C2188 H2179 0.930 . S
C2188 C2186 1.378 . S
C2188 C2189 1.367 . S
C2189 C2188 1.367 . S
C2189 C2191 1.433 . S
C2190 C2186 1.350 . S
C2190 C2187 1.463 . S
C2190 N2194 1.427 1_565 S
C2191 H2181 0.929 1_565 S
C2191 C2189 1.433 . S
C2191 N2194 1.384 1_565 S
C2192 H2183 0.929 . S
C2192 C2184 1.378 . S
C2192 C2187 1.350 1_545 S
C2193 H2180 0.929 . S
C2193 C2185 1.433 1_565 S
C2193 N2195 1.384 . S
N2194 C2190 1.427 1_545 S
N2194 C2191 1.384 1_545 S
N2195 C2187 1.427 . S
N2195 C2193 1.384 . S
H2196 C2202 0.930 1_545 S
H2197 C2206 0.930 . S
H2198 C2211 0.929 . S
H2199 C2209 0.929 . S
H2200 C2204 0.929 . S
H2201 C2210 0.929 . S
C2202 H2196 0.930 1_565 S
C2202 C2203 1.367 . S
C2202 C2210 1.378 1_565 S
C2203 C2202 1.367 . S
C2203 C2211 1.433 . S
C2204 H2200 0.929 . S
C2204 C2206 1.378 . S
C2204 C2208 1.350 . S
C2205 C2208 1.463 . S
C2205 C2210 1.350 1_565 S
C2205 N2213 1.427 . S
C2206 H2197 0.930 . S
C2206 C2204 1.378 . S
C2206 C2207 1.367 1_565 S
C2207 C2206 1.367 1_545 S
C2207 C2209 1.433 . S
C2208 C2204 1.350 . S
C2208 C2205 1.463 . S
C2208 N2212 1.427 1_565 S
C2209 H2199 0.929 . S
C2209 C2207 1.433 . S
C2209 N2212 1.384 . S
C2210 H2201 0.929 . S
C2210 C2202 1.378 1_545 S
C2210 C2205 1.350 1_545 S
C2211 H2198 0.929 . S
C2211 C2203 1.433 . S
C2211 N2213 1.384 . S
N2212 C2208 1.427 1_545 S
N2212 C2209 1.384 . S
N2213 C2205 1.427 . S
N2213 C2211 1.384 . S
H2214 C2220 0.930 . S
H2215 C2224 0.930 . S
H2216 C2229 0.929 . S
H2217 C2227 0.929 1_655 S
H2218 C2222 0.929 . S
H2219 C2228 0.929 . S
C2220 H2214 0.930 . S
C2220 C2221 1.367 . S
C2220 C2228 1.378 . S
C2221 C2220 1.367 . S
C2221 C2229 1.433 1_655 S
C2222 H2218 0.929 . S
C2222 C2224 1.378 . S
C2222 C2226 1.350 . S
C2223 C2226 1.463 . S
C2223 C2228 1.350 1_455 S
C2223 N2231 1.427 . S
C2224 H2215 0.930 . S
C2224 C2222 1.378 . S
C2224 C2225 1.367 . S
C2225 C2224 1.367 . S
C2225 C2227 1.433 . S
C2226 C2222 1.350 . S
C2226 C2223 1.463 . S
C2226 N2230 1.427 1_455 S
C2227 H2217 0.929 1_455 S
C2227 C2225 1.433 . S
C2227 N2230 1.384 1_455 S
C2228 H2219 0.929 . S
C2228 C2220 1.378 . S
C2228 C2223 1.350 1_655 S
C2229 H2216 0.929 . S
C2229 C2221 1.433 1_455 S
C2229 N2231 1.384 . S
N2230 C2226 1.427 1_655 S
N2230 C2227 1.384 1_655 S
N2231 C2223 1.427 . S
N2231 C2229 1.384 . S
H2232 C2238 0.930 . S
H2233 C2242 0.930 . S
H2234 C2247 0.929 . S
H2235 C2245 0.929 . S
H2236 C2240 0.929 . S
H2237 C2246 0.929 . S
C2238 H2232 0.930 . S
C2238 C2239 1.367 . S
C2238 C2246 1.378 . S
C2239 C2238 1.367 . S
C2239 C2247 1.433 . S
C2240 H2236 0.929 . S
C2240 C2242 1.378 . S
C2240 C2244 1.350 . S
C2241 C2244 1.463 . S
C2241 C2246 1.350 . S
C2241 N2249 1.427 . S
C2242 H2233 0.930 . S
C2242 C2240 1.378 . S
C2242 C2243 1.367 . S
C2243 C2242 1.367 . S
C2243 C2245 1.433 . S
C2244 C2240 1.350 . S
C2244 C2241 1.463 . S
C2244 N2248 1.427 . S
C2245 H2235 0.929 . S
C2245 C2243 1.433 . S
C2245 N2248 1.384 . S
C2246 H2237 0.929 . S
C2246 C2238 1.378 . S
C2246 C2241 1.350 . S
C2247 H2234 0.929 . S
C2247 C2239 1.433 . S
C2247 N2249 1.384 . S
N2248 C2244 1.427 . S
N2248 C2245 1.384 . S
N2249 C2241 1.427 . S
N2249 C2247 1.384 . S
H2250 C2256 0.930 1_554 S
H2251 C2260 0.930 . S
H2252 C2265 0.929 . S
H2253 C2263 0.929 . S
H2254 C2258 0.929 1_556 S
H2255 C2264 0.929 . S
C2256 H2250 0.930 1_556 S
C2256 C2257 1.367 . S
C2256 C2264 1.378 1_566 S
C2257 C2256 1.367 . S
C2257 C2265 1.433 . S
C2258 H2254 0.929 1_554 S
C2258 C2260 1.378 . S
C2258 C2262 1.350 . S
C2259 C2262 1.463 . S
C2259 C2264 1.350 . S
C2259 N2267 1.427 1_554 S
C2260 H2251 0.930 . S
C2260 C2258 1.378 . S
C2260 C2261 1.367 . S
C2261 C2260 1.367 . S
C2261 C2263 1.433 . S
C2262 C2258 1.350 . S
C2262 C2259 1.463 . S
C2262 N2266 1.427 . S
C2263 H2253 0.929 . S
C2263 C2261 1.433 . S
C2263 N2266 1.384 . S
C2264 H2255 0.929 . S
C2264 C2256 1.378 1_544 S
C2264 C2259 1.350 . S
C2265 H2252 0.929 . S
C2265 C2257 1.433 . S
C2265 N2267 1.384 1_565 S
N2266 C2262 1.427 . S
N2266 C2263 1.384 . S
N2267 C2259 1.427 1_556 S
N2267 C2265 1.384 1_545 S
H2268 C2274 0.930 . S
H2269 C2278 0.930 . S
H2270 C2283 0.929 . S
H2271 C2281 0.929 1_554 S
H2272 C2276 0.929 . S
H2273 C2282 0.929 . S
C2274 H2268 0.930 . S
C2274 C2275 1.367 . S
C2274 C2282 1.378 . S
C2275 C2274 1.367 . S
C2275 C2283 1.433 . S
C2276 H2272 0.929 . S
C2276 C2278 1.378 . S
C2276 C2280 1.291 1_556 S
C2277 C2280 1.502 . S
C2277 C2282 1.350 . S
C2277 N2285 1.427 . S
C2278 H2269 0.930 . S
C2278 C2276 1.378 . S
C2278 C2279 1.367 1_655 S
C2279 C2278 1.367 1_455 S
C2279 C2281 1.433 . S
C2280 C2276 1.291 1_554 S
C2280 C2277 1.502 . S
C2280 N2284 1.446 1_655 S
C2281 H2271 0.929 1_556 S
C2281 C2279 1.433 . S
C2281 N2284 1.389 1_556 S
C2282 H2273 0.929 . S
C2282 C2274 1.378 . S
C2282 C2277 1.350 . S
C2283 H2270 0.929 . S
C2283 C2275 1.433 . S
C2283 N2285 1.384 . S
N2284 C2280 1.446 1_455 S
N2284 C2281 1.389 1_554 S
N2285 C2277 1.427 . S
N2285 C2283 1.384 . S
H2286 C2292 0.930 . S
H2287 C2296 0.931 1_554 S
H2288 C2301 0.929 . S
H2289 C2299 0.929 . S
H2290 C2294 0.929 . S
H2291 C2300 0.929 1_556 S
C2292 H2286 0.930 . S
C2292 C2293 1.367 . S
C2292 C2300 1.378 . S
C2293 C2292 1.367 . S
C2293 C2301 1.433 . S
C2294 H2290 0.929 . S
C2294 C2296 1.378 1_554 S
C2294 C2298 1.350 . S
C2295 C2298 1.463 . S
C2295 C2300 1.350 . S
C2295 N2303 1.427 . S
C2296 H2287 0.931 1_556 S
C2296 C2294 1.378 1_556 S
C2296 C2297 1.367 . S
C2297 C2296 1.367 . S
C2297 C2299 1.433 . S
C2298 C2294 1.350 . S
C2298 C2295 1.463 . S
C2298 N2302 1.427 1_554 S
C2299 H2289 0.929 . S
C2299 C2297 1.433 . S
C2299 N2302 1.384 . S
C2300 H2291 0.929 1_554 S
C2300 C2292 1.378 . S
C2300 C2295 1.350 . S
C2301 H2288 0.929 . S
C2301 C2293 1.433 . S
C2301 N2303 1.384 . S
N2302 C2298 1.427 1_556 S
N2302 C2299 1.384 . S
N2303 C2295 1.427 . S
N2303 C2301 1.384 . S
H2304 C2310 0.930 1_565 S
H2305 C2314 0.930 . S
H2306 C2319 0.929 . S
H2307 C2317 0.929 . S
H2308 C2312 0.929 . S
H2309 C2318 0.929 . S
C2310 H2304 0.930 1_545 S
C2310 C2311 1.367 . S
C2310 C2318 1.378 1_545 S
C2311 C2310 1.367 . S
C2311 C2319 1.433 . S
C2312 H2308 0.929 . S
C2312 C2314 1.378 . S
C2312 C2316 1.350 . S
C2313 C2316 1.463 . S
C2313 C2318 1.350 1_545 S
C2313 N2321 1.427 . S
C2314 H2305 0.930 . S
C2314 C2312 1.378 . S
C2314 C2315 1.367 1_545 S
C2315 C2314 1.367 1_565 S
C2315 C2317 1.433 . S
C2316 C2312 1.350 . S
C2316 C2313 1.463 . S
C2316 N2320 1.427 1_545 S
C2317 H2307 0.929 . S
C2317 C2315 1.433 . S
C2317 N2320 1.384 . S
C2318 H2309 0.929 . S
C2318 C2310 1.378 1_565 S
C2318 C2313 1.350 1_565 S
C2319 H2306 0.929 . S
C2319 C2311 1.433 . S
C2319 N2321 1.384 . S
N2320 C2316 1.427 1_565 S
N2320 C2317 1.384 . S
N2321 C2313 1.427 . S
N2321 C2319 1.384 . S
H2322 C2328 0.930 . S
H2323 C2332 0.930 . S
H2324 C2337 0.929 . S
H2325 C2335 0.929 . S
H2326 C2330 0.929 . S
H2327 C2336 0.929 . S
C2328 H2322 0.930 . S
C2328 C2329 1.367 . S
C2328 C2336 1.378 . S
C2329 C2328 1.367 . S
C2329 C2337 1.433 . S
C2330 H2326 0.929 . S
C2330 C2332 1.378 . S
C2330 C2334 1.350 1_455 S
C2331 C2334 1.463 . S
C2331 C2336 1.350 . S
C2331 N2339 1.427 . S
C2332 H2323 0.930 . S
C2332 C2330 1.378 . S
C2332 C2333 1.367 . S
C2333 C2332 1.367 . S
C2333 C2335 1.433 1_455 S
C2334 C2330 1.350 1_655 S
C2334 C2331 1.463 . S
C2334 N2338 1.427 . S
C2335 H2325 0.929 . S
C2335 C2333 1.433 1_655 S
C2335 N2338 1.384 . S
C2336 H2327 0.929 . S
C2336 C2328 1.378 . S
C2336 C2331 1.350 . S
C2337 H2324 0.929 . S
C2337 C2329 1.433 . S
C2337 N2339 1.384 . S
N2338 C2334 1.427 . S
N2338 C2335 1.384 . S
N2339 C2331 1.427 . S
N2339 C2337 1.384 . S
H2340 C2346 0.930 . S
H2341 C2350 0.930 . S
H2342 C2355 0.929 . S
H2343 C2353 0.929 . S
H2344 C2348 0.929 . S
H2345 C2354 0.929 . S
C2346 H2340 0.930 . S
C2346 C2347 1.367 . S
C2346 C2354 1.378 . S
C2347 C2346 1.367 . S
C2347 C2355 1.433 . S
C2348 H2344 0.929 . S
C2348 C2350 1.378 . S
C2348 C2352 1.350 . S
C2349 C2352 1.463 . S
C2349 C2354 1.350 . S
C2349 N2357 1.427 . S
C2350 H2341 0.930 . S
C2350 C2348 1.378 . S
C2350 C2351 1.367 . S
C2351 C2350 1.367 . S
C2351 C2353 1.433 . S
C2352 C2348 1.350 . S
C2352 C2349 1.463 . S
C2352 N2356 1.427 . S
C2353 H2343 0.929 . S
C2353 C2351 1.433 . S
C2353 N2356 1.384 . S
C2354 H2345 0.929 . S
C2354 C2346 1.378 . S
C2354 C2349 1.350 . S
C2355 H2342 0.929 . S
C2355 C2347 1.433 . S
C2355 N2357 1.384 . S
N2356 C2352 1.427 . S
N2356 C2353 1.384 . S
N2357 C2349 1.427 . S
N2357 C2355 1.384 . S
H2358 C2364 0.930 . S
H2359 C2368 0.930 . S
H2360 C2373 0.929 . S
H2361 C2371 0.944 . S
H2362 C2366 0.929 . S
H2363 C2372 0.929 . S
C2364 H2358 0.930 . S
C2364 C2365 1.367 . S
C2364 C2372 1.378 . S
C2365 C2364 1.367 . S
C2365 C2373 1.433 . S
C2366 H2362 0.929 . S
C2366 C2368 1.378 1_565 S
C2366 C2370 1.294 1_554 S
C2367 C2370 1.506 . S
C2367 C2372 1.350 . S
C2367 N2375 1.427 . S
C2368 H2359 0.930 . S
C2368 C2366 1.378 1_545 S
C2368 C2369 1.367 . S
C2369 C2368 1.367 . S
C2369 C2371 1.433 . S
C2370 C2366 1.294 1_556 S
C2370 C2367 1.506 . S
C2370 N2374 1.448 . S
C2371 H2361 0.944 . S
C2371 C2369 1.433 . S
C2371 N2374 1.384 1_544 S
C2372 H2363 0.929 . S
C2372 C2364 1.378 . S
C2372 C2367 1.350 . S
C2373 H2360 0.929 . S
C2373 C2365 1.433 . S
C2373 N2375 1.384 . S
N2374 C2370 1.448 . S
N2374 C2371 1.384 1_566 S
N2375 C2367 1.427 . S
N2375 C2373 1.384 . S
H2376 C2382 0.930 1_556 S
H2377 C2386 0.930 . S
H2378 C2391 0.929 1_655 S
H2379 C2389 0.929 . S
H2380 C2384 0.929 1_554 S
H2381 C2390 0.929 . S
C2382 H2376 0.930 1_554 S
C2382 C2383 1.367 . S
C2382 C2390 1.378 1_654 S
C2383 C2382 1.367 . S
C2383 C2391 1.433 1_655 S
C2384 H2380 0.929 1_556 S
C2384 C2386 1.378 . S
C2384 C2388 1.350 . S
C2385 C2388 1.463 . S
C2385 C2390 1.350 . S
C2385 N2393 1.427 1_556 S
C2386 H2377 0.930 . S
C2386 C2384 1.378 . S
C2386 C2387 1.367 . S
C2387 C2386 1.367 . S
C2387 C2389 1.433 . S
C2388 C2384 1.350 . S
C2388 C2385 1.463 . S
C2388 N2392 1.427 . S
C2389 H2379 0.929 . S
C2389 C2387 1.433 . S
C2389 N2392 1.384 . S
C2390 H2381 0.929 . S
C2390 C2382 1.378 1_456 S
C2390 C2385 1.350 . S
C2391 H2378 0.929 1_455 S
C2391 C2383 1.433 1_455 S
C2391 N2393 1.384 . S
N2392 C2388 1.427 . S
N2392 C2389 1.384 . S
N2393 C2385 1.427 1_554 S
N2393 C2391 1.384 . S
H2394 C2400 0.930 . S
H2395 C2404 0.899 1_556 S
H2396 C2409 0.929 . S
H2397 C2407 0.929 . S
H2398 C2402 0.929 . S
H2399 C2408 0.929 1_554 S
C2400 H2394 0.930 . S
C2400 C2401 1.367 . S
C2400 C2408 1.378 . S
C2401 C2400 1.367 . S
C2401 C2409 1.433 . S
C2402 H2398 0.929 . S
C2402 C2404 1.326 1_556 S
C2402 C2406 1.350 . S
C2403 C2406 1.463 . S
C2403 C2408 1.350 . S
C2403 N2411 1.427 . S
C2404 H2395 0.899 1_554 S
C2404 C2402 1.326 1_554 S
C2404 C2405 1.458 . S
C2405 C2404 1.458 . S
C2405 C2407 1.433 . S
C2406 C2402 1.350 . S
C2406 C2403 1.463 . S
C2406 N2410 1.427 1_556 S
C2407 H2397 0.929 . S
C2407 C2405 1.433 . S
C2407 N2410 1.384 . S
C2408 H2399 0.929 1_556 S
C2408 C2400 1.378 . S
C2408 C2403 1.350 . S
C2409 H2396 0.929 . S
C2409 C2401 1.433 . S
C2409 N2411 1.384 . S
N2410 C2406 1.427 1_554 S
N2410 C2407 1.384 . S
N2411 C2403 1.427 . S
N2411 C2409 1.384 . S
H2412 C2418 0.930 . S
H2413 C2422 0.930 . S
H2414 C2427 0.929 . S
H2415 C2425 0.929 . S
H2416 C2420 0.929 . S
H2417 C2426 0.929 . S
C2418 H2412 0.930 . S
C2418 C2419 1.367 . S
C2418 C2426 1.378 1_655 S
C2419 C2418 1.367 . S
C2419 C2427 1.433 . S
C2420 H2416 0.929 . S
C2420 C2422 1.378 . S
C2420 C2424 1.350 . S
C2421 C2424 1.463 . S
C2421 C2426 1.350 . S
C2421 N2429 1.427 . S
C2422 H2413 0.930 . S
C2422 C2420 1.378 . S
C2422 C2423 1.367 . S
C2423 C2422 1.367 . S
C2423 C2425 1.433 . S
C2424 C2420 1.350 . S
C2424 C2421 1.463 . S
C2424 N2428 1.427 . S
C2425 H2415 0.929 . S
C2425 C2423 1.433 . S
C2425 N2428 1.384 . S
C2426 H2417 0.929 . S
C2426 C2418 1.378 1_455 S
C2426 C2421 1.350 . S
C2427 H2414 0.929 . S
C2427 C2419 1.433 . S
C2427 N2429 1.384 1_655 S
N2428 C2424 1.427 . S
N2428 C2425 1.384 . S
N2429 C2421 1.427 . S
N2429 C2427 1.384 1_455 S
H2430 C2436 0.930 . S
H2431 C2440 0.930 . S
H2432 C2445 0.929 . S
H2433 C2443 0.929 . S
H2434 C2438 0.929 . S
H2435 C2444 0.929 . S
C2436 H2430 0.930 . S
C2436 C2437 1.367 . S
C2436 C2444 1.378 . S
C2437 C2436 1.367 . S
C2437 C2445 1.433 . S
C2438 H2434 0.929 . S
C2438 C2440 1.378 . S
C2438 C2442 1.350 . S
C2439 C2442 1.463 . S
C2439 C2444 1.350 . S
C2439 N2447 1.427 . S
C2440 H2431 0.930 . S
C2440 C2438 1.378 . S
C2440 C2441 1.367 . S
C2441 C2440 1.367 . S
C2441 C2443 1.433 . S
C2442 C2438 1.350 . S
C2442 C2439 1.463 . S
C2442 N2446 1.427 . S
C2443 H2433 0.929 . S
C2443 C2441 1.433 . S
C2443 N2446 1.384 . S
C2444 H2435 0.929 . S
C2444 C2436 1.378 . S
C2444 C2439 1.350 . S
C2445 H2432 0.929 . S
C2445 C2437 1.433 . S
C2445 N2447 1.384 . S
N2446 C2442 1.427 . S
N2446 C2443 1.384 . S
N2447 C2439 1.427 . S
N2447 C2445 1.384 . S
H2448 C2454 0.930 . S
H2449 C2458 0.930 . S
H2450 C2463 0.929 . S
H2451 C2461 0.929 . S
H2452 C2456 0.929 . S
H2453 C2462 0.929 . S
C2454 H2448 0.930 . S
C2454 C2455 1.367 . S
C2454 C2462 1.378 . S
C2455 C2454 1.367 . S
C2455 C2463 1.433 . S
C2456 H2452 0.929 . S
C2456 C2458 1.378 1_565 S
C2456 C2460 1.350 . S
C2457 C2460 1.463 . S
C2457 C2462 1.350 . S
C2457 N2465 1.427 . S
C2458 H2449 0.930 . S
C2458 C2456 1.378 1_545 S
C2458 C2459 1.367 . S
C2459 C2458 1.367 . S
C2459 C2461 1.433 . S
C2460 C2456 1.350 . S
C2460 C2457 1.463 . S
C2460 N2464 1.427 . S
C2461 H2451 0.929 . S
C2461 C2459 1.433 . S
C2461 N2464 1.384 1_545 S
C2462 H2453 0.929 . S
C2462 C2454 1.378 . S
C2462 C2457 1.350 . S
C2463 H2450 0.929 . S
C2463 C2455 1.433 . S
C2463 N2465 1.384 . S
N2464 C2460 1.427 . S
N2464 C2461 1.384 1_565 S
N2465 C2457 1.427 . S
N2465 C2463 1.384 . S
H2466 C2472 0.930 . S
H2467 C2476 0.930 . S
H2468 C2481 0.929 . S
H2469 C2479 0.929 . S
H2470 C2474 0.933 1_655 S
H2471 C2480 0.929 . S
C2472 H2466 0.930 . S
C2472 C2473 1.367 . S
C2472 C2480 1.378 . S
C2473 C2472 1.367 . S
C2473 C2481 1.433 . S
C2474 H2470 0.933 1_455 S
C2474 C2476 1.376 . S
C2474 C2478 1.348 1_455 S
C2475 C2478 1.463 . S
C2475 C2480 1.350 . S
C2475 N2483 1.427 . S
C2476 H2467 0.930 . S
C2476 C2474 1.376 . S
C2476 C2477 1.367 . S
C2477 C2476 1.367 . S
C2477 C2479 1.433 . S
C2478 C2474 1.348 1_655 S
C2478 C2475 1.463 . S
C2478 N2482 1.427 1_655 S
C2479 H2469 0.929 . S
C2479 C2477 1.433 . S
C2479 N2482 1.384 . S
C2480 H2471 0.929 . S
C2480 C2472 1.378 . S
C2480 C2475 1.350 . S
C2481 H2468 0.929 . S
C2481 C2473 1.433 . S
C2481 N2483 1.384 . S
N2482 C2478 1.427 1_455 S
N2482 C2479 1.384 . S
N2483 C2475 1.427 . S
N2483 C2481 1.384 . S
H2484 C2490 0.930 . S
H2485 C2494 0.930 . S
H2486 C2499 0.929 . S
H2487 C2497 0.929 . S
H2488 C2492 0.929 . S
H2489 C2498 0.929 . S
C2490 H2484 0.930 . S
C2490 C2491 1.367 . S
C2490 C2498 1.378 . S
C2491 C2490 1.367 . S
C2491 C2499 1.433 . S
C2492 H2488 0.929 . S
C2492 C2494 1.378 . S
C2492 C2496 1.350 . S
C2493 C2496 1.463 . S
C2493 C2498 1.350 . S
C2493 N2501 1.427 . S
C2494 H2485 0.930 . S
C2494 C2492 1.378 . S
C2494 C2495 1.367 . S
C2495 C2494 1.367 . S
C2495 C2497 1.433 . S
C2496 C2492 1.350 . S
C2496 C2493 1.463 . S
C2496 N2500 1.427 . S
C2497 H2487 0.929 . S
C2497 C2495 1.433 . S
C2497 N2500 1.384 . S
C2498 H2489 0.929 . S
C2498 C2490 1.378 . S
C2498 C2493 1.350 . S
C2499 H2486 0.929 . S
C2499 C2491 1.433 . S
C2499 N2501 1.384 . S
N2500 C2496 1.427 . S
N2500 C2497 1.384 . S
N2501 C2493 1.427 . S
N2501 C2499 1.384 . S
H2502 C2508 0.930 . S
H2503 C2512 0.937 1_545 S
H2504 C2517 0.929 . S
H2505 C2515 0.929 . S
H2506 C2510 0.929 . S
H2507 C2516 0.929 1_565 S
C2508 H2502 0.930 . S
C2508 C2509 1.367 . S
C2508 C2516 1.378 . S
C2509 C2508 1.367 . S
C2509 C2517 1.433 . S
C2510 H2506 0.929 . S
C2510 C2512 1.364 1_545 S
C2510 C2514 1.350 . S
C2511 C2514 1.463 . S
C2511 C2516 1.350 . S
C2511 N2519 1.427 . S
C2512 H2503 0.937 1_565 S
C2512 C2510 1.364 1_565 S
C2512 C2513 1.374 . S
C2513 C2512 1.374 . S
C2513 C2515 1.433 . S
C2514 C2510 1.350 . S
C2514 C2511 1.463 . S
C2514 N2518 1.427 1_545 S
C2515 H2505 0.929 . S
C2515 C2513 1.433 . S
C2515 N2518 1.384 . S
C2516 H2507 0.929 1_545 S
C2516 C2508 1.378 . S
C2516 C2511 1.350 . S
C2517 H2504 0.929 . S
C2517 C2509 1.433 . S
C2517 N2519 1.384 . S
N2518 C2514 1.427 1_565 S
N2518 C2515 1.384 . S
N2519 C2511 1.427 . S
N2519 C2517 1.384 . S
H2520 C2526 0.930 . S
H2521 C2530 0.930 . S
H2522 C2535 0.929 . S
H2523 C2533 0.929 . S
H2524 C2528 0.929 . S
H2525 C2534 0.929 . S
C2526 H2520 0.930 . S
C2526 C2527 1.367 . S
C2526 C2534 1.378 . S
C2527 C2526 1.367 . S
C2527 C2535 1.433 . S
C2528 H2524 0.929 . S
C2528 C2530 1.378 . S
C2528 C2532 1.350 . S
C2529 C2532 1.463 1_655 S
C2529 C2534 1.350 . S
C2529 N2537 1.427 . S
C2530 H2521 0.930 . S
C2530 C2528 1.378 . S
C2530 C2531 1.367 . S
C2531 C2530 1.367 . S
C2531 C2533 1.433 . S
C2532 C2528 1.350 . S
C2532 C2529 1.463 1_455 S
C2532 N2536 1.427 . S
C2533 H2523 0.929 . S
C2533 C2531 1.433 . S
C2533 N2536 1.384 . S
C2534 H2525 0.929 . S
C2534 C2526 1.378 . S
C2534 C2529 1.350 . S
C2535 H2522 0.929 . S
C2535 C2527 1.433 . S
C2535 N2537 1.384 . S
N2536 C2532 1.427 . S
N2536 C2533 1.384 . S
N2537 C2529 1.427 . S
N2537 C2535 1.384 . S
H2538 C2544 0.930 . S
H2539 C2548 0.930 . S
H2540 C2553 0.929 . S
H2541 C2551 0.929 . S
H2542 C2546 0.929 . S
H2543 C2552 0.929 . S
C2544 H2538 0.930 . S
C2544 C2545 1.367 . S
C2544 C2552 1.378 . S
C2545 C2544 1.367 . S
C2545 C2553 1.433 . S
C2546 H2542 0.929 . S
C2546 C2548 1.378 . S
C2546 C2550 1.350 . S
C2547 C2550 1.463 . S
C2547 C2552 1.350 . S
C2547 N2555 1.427 . S
C2548 H2539 0.930 . S
C2548 C2546 1.378 . S
C2548 C2549 1.367 . S
C2549 C2548 1.367 . S
C2549 C2551 1.433 . S
C2550 C2546 1.350 . S
C2550 C2547 1.463 . S
C2550 N2554 1.427 . S
C2551 H2541 0.929 . S
C2551 C2549 1.433 . S
C2551 N2554 1.384 . S
C2552 H2543 0.929 . S
C2552 C2544 1.378 . S
C2552 C2547 1.350 . S
C2553 H2540 0.929 . S
C2553 C2545 1.433 . S
C2553 N2555 1.384 . S
N2554 C2550 1.427 . S
N2554 C2551 1.384 . S
N2555 C2547 1.427 . S
N2555 C2553 1.384 . S
H2556 C2562 0.930 . S
H2557 C2566 0.930 . S
H2558 C2571 0.929 . S
H2559 C2569 0.929 . S
H2560 C2564 0.929 1_565 S
H2561 C2570 0.929 1_545 S
C2562 H2556 0.930 . S
C2562 C2563 1.367 . S
C2562 C2570 1.378 . S
C2563 C2562 1.367 . S
C2563 C2571 1.433 . S
C2564 H2560 0.929 1_545 S
C2564 C2566 1.378 . S
C2564 C2568 1.350 . S
C2565 C2568 1.463 1_565 S
C2565 C2570 1.350 . S
C2565 N2573 1.427 . S
C2566 H2557 0.930 . S
C2566 C2564 1.378 . S
C2566 C2567 1.367 . S
C2567 C2566 1.367 . S
C2567 C2569 1.433 . S
C2568 C2564 1.350 . S
C2568 C2565 1.463 1_545 S
C2568 N2572 1.427 . S
C2569 H2559 0.929 . S
C2569 C2567 1.433 . S
C2569 N2572 1.384 . S
C2570 H2561 0.929 1_565 S
C2570 C2562 1.378 . S
C2570 C2565 1.350 . S
C2571 H2558 0.929 . S
C2571 C2563 1.433 . S
C2571 N2573 1.384 . S
N2572 C2568 1.427 . S
N2572 C2569 1.384 . S
N2573 C2565 1.427 . S
N2573 C2571 1.384 . S
H2574 C2580 0.930 . S
H2575 C2584 0.930 . S
H2576 C2589 0.929 . S
H2577 C2587 0.929 . S
H2578 C2582 0.929 . S
H2579 C2588 0.929 . S
C2580 H2574 0.930 . S
C2580 C2581 1.367 . S
C2580 C2588 1.378 . S
C2581 C2580 1.367 . S
C2581 C2589 1.433 . S
C2582 H2578 0.929 . S
C2582 C2584 1.378 . S
C2582 C2586 1.350 . S
C2583 C2586 1.463 1_655 S
C2583 C2588 1.350 . S
C2583 N2591 1.427 . S
C2584 H2575 0.930 . S
C2584 C2582 1.378 . S
C2584 C2585 1.367 . S
C2585 C2584 1.367 . S
C2585 C2587 1.433 . S
C2586 C2582 1.350 . S
C2586 C2583 1.463 1_455 S
C2586 N2590 1.427 . S
C2587 H2577 0.929 . S
C2587 C2585 1.433 . S
C2587 N2590 1.384 . S
C2588 H2579 0.929 . S
C2588 C2580 1.378 . S
C2588 C2583 1.350 . S
C2589 H2576 0.929 . S
C2589 C2581 1.433 . S
C2589 N2591 1.384 . S
N2590 C2586 1.427 . S
N2590 C2587 1.384 . S
N2591 C2583 1.427 . S
N2591 C2589 1.384 . S
H2592 C2598 0.930 . S
H2593 C2602 0.930 . S
H2594 C2607 0.929 . S
H2595 C2605 0.929 . S
H2596 C2600 0.929 . S
H2597 C2606 0.929 . S
C2598 H2592 0.930 . S
C2598 C2599 1.367 . S
C2598 C2606 1.378 . S
C2599 C2598 1.367 . S
C2599 C2607 1.433 . S
C2600 H2596 0.929 . S
C2600 C2602 1.378 . S
C2600 C2604 1.350 . S
C2601 C2604 1.463 . S
C2601 C2606 1.350 . S
C2601 N2609 1.427 . S
C2602 H2593 0.930 . S
C2602 C2600 1.378 . S
C2602 C2603 1.367 . S
C2603 C2602 1.367 . S
C2603 C2605 1.433 . S
C2604 C2600 1.350 . S
C2604 C2601 1.463 . S
C2604 N2608 1.427 . S
C2605 H2595 0.929 . S
C2605 C2603 1.433 . S
C2605 N2608 1.384 . S
C2606 H2597 0.929 . S
C2606 C2598 1.378 . S
C2606 C2601 1.350 . S
C2607 H2594 0.929 . S
C2607 C2599 1.433 . S
C2607 N2609 1.384 . S
N2608 C2604 1.427 . S
N2608 C2605 1.384 . S
N2609 C2601 1.427 . S
N2609 C2607 1.384 . S
H2610 C2616 0.930 . S
H2611 C2620 0.930 . S
H2612 C2625 0.929 . S
H2613 C2623 0.929 . S
H2614 C2618 0.929 . S
H2615 C2624 0.929 . S
C2616 H2610 0.930 . S
C2616 C2617 1.367 . S
C2616 C2624 1.378 . S
C2617 C2616 1.367 . S
C2617 C2625 1.433 . S
C2618 H2614 0.929 . S
C2618 C2620 1.378 . S
C2618 C2622 1.350 . S
C2619 C2622 1.463 1_545 S
C2619 C2624 1.350 . S
C2619 N2627 1.427 . S
C2620 H2611 0.930 . S
C2620 C2618 1.378 . S
C2620 C2621 1.367 . S
C2621 C2620 1.367 . S
C2621 C2623 1.433 . S
C2622 C2618 1.350 . S
C2622 C2619 1.463 1_565 S
C2622 N2626 1.427 . S
C2623 H2613 0.929 . S
C2623 C2621 1.433 . S
C2623 N2626 1.384 . S
C2624 H2615 0.929 . S
C2624 C2616 1.378 . S
C2624 C2619 1.350 . S
C2625 H2612 0.929 . S
C2625 C2617 1.433 . S
C2625 N2627 1.384 . S
N2626 C2622 1.427 . S
N2626 C2623 1.384 . S
N2627 C2619 1.427 . S
N2627 C2625 1.384 . S
H2628 C2634 0.930 . S
H2629 C2638 0.930 . S
H2630 C2643 0.929 . S
H2631 C2641 0.929 . S
H2632 C2636 0.929 . S
H2633 C2642 0.929 . S
C2634 H2628 0.930 . S
C2634 C2635 1.367 . S
C2634 C2642 1.378 . S
C2635 C2634 1.367 . S
C2635 C2643 1.433 . S
C2636 H2632 0.929 . S
C2636 C2638 1.378 . S
C2636 C2640 1.350 . S
C2637 C2640 1.463 . S
C2637 C2642 1.350 . S
C2637 N2645 1.427 . S
C2638 H2629 0.930 . S
C2638 C2636 1.378 . S
C2638 C2639 1.367 . S
C2639 C2638 1.367 . S
C2639 C2641 1.433 . S
C2640 C2636 1.350 . S
C2640 C2637 1.463 . S
C2640 N2644 1.427 . S
C2641 H2631 0.929 . S
C2641 C2639 1.433 . S
C2641 N2644 1.384 . S
C2642 H2633 0.929 . S
C2642 C2634 1.378 . S
C2642 C2637 1.350 . S
C2643 H2630 0.929 . S
C2643 C2635 1.433 . S
C2643 N2645 1.384 . S
N2644 C2640 1.427 . S
N2644 C2641 1.384 . S
N2645 C2637 1.427 . S
N2645 C2643 1.384 . S
H2646 C2652 0.930 . S
H2647 C2656 0.930 . S
H2648 C2661 0.929 . S
H2649 C2659 0.929 . S
H2650 C2654 0.929 . S
H2651 C2660 0.929 . S
C2652 H2646 0.930 . S
C2652 C2653 1.367 . S
C2652 C2660 1.378 . S
C2653 C2652 1.367 . S
C2653 C2661 1.433 . S
C2654 H2650 0.929 . S
C2654 C2656 1.378 . S
C2654 C2658 1.350 . S
C2655 C2658 1.463 . S
C2655 C2660 1.350 . S
C2655 N2663 1.427 . S
C2656 H2647 0.930 . S
C2656 C2654 1.378 . S
C2656 C2657 1.367 . S
C2657 C2656 1.367 . S
C2657 C2659 1.433 . S
C2658 C2654 1.350 . S
C2658 C2655 1.463 . S
C2658 N2662 1.427 . S
C2659 H2649 0.929 . S
C2659 C2657 1.433 . S
C2659 N2662 1.384 . S
C2660 H2651 0.929 . S
C2660 C2652 1.378 . S
C2660 C2655 1.350 . S
C2661 H2648 0.929 . S
C2661 C2653 1.433 . S
C2661 N2663 1.384 . S
N2662 C2658 1.427 . S
N2662 C2659 1.384 . S
N2663 C2655 1.427 . S
N2663 C2661 1.384 . S
H2664 C2670 0.930 . S
H2665 C2674 0.930 . S
H2666 C2679 0.929 . S
H2667 C2677 0.929 . S
H2668 C2672 0.929 . S
H2669 C2678 0.929 . S
C2670 H2664 0.930 . S
C2670 C2671 1.367 . S
C2670 C2678 1.378 . S
C2671 C2670 1.367 . S
C2671 C2679 1.433 . S
C2672 H2668 0.929 . S
C2672 C2674 1.378 . S
C2672 C2676 1.350 . S
C2673 C2676 1.463 . S
C2673 C2678 1.350 . S
C2673 N2681 1.427 . S
C2674 H2665 0.930 . S
C2674 C2672 1.378 . S
C2674 C2675 1.367 . S
C2675 C2674 1.367 . S
C2675 C2677 1.433 . S
C2676 C2672 1.350 . S
C2676 C2673 1.463 . S
C2676 N2680 1.427 . S
C2677 H2667 0.929 . S
C2677 C2675 1.433 . S
C2677 N2680 1.384 . S
C2678 H2669 0.929 . S
C2678 C2670 1.378 . S
C2678 C2673 1.350 . S
C2679 H2666 0.929 . S
C2679 C2671 1.433 . S
C2679 N2681 1.384 . S
N2680 C2676 1.427 . S
N2680 C2677 1.384 . S
N2681 C2673 1.427 . S
N2681 C2679 1.384 . S
H2682 C2688 0.930 . S
H2683 C2692 0.930 . S
H2684 C2697 0.929 . S
H2685 C2695 0.929 . S
H2686 C2690 0.929 . S
H2687 C2696 0.929 . S
C2688 H2682 0.930 . S
C2688 C2689 1.367 . S
C2688 C2696 1.378 . S
C2689 C2688 1.367 . S
C2689 C2697 1.433 . S
C2690 H2686 0.929 . S
C2690 C2692 1.378 . S
C2690 C2694 1.350 . S
C2691 C2694 1.463 . S
C2691 C2696 1.350 . S
C2691 N2699 1.427 . S
C2692 H2683 0.930 . S
C2692 C2690 1.378 . S
C2692 C2693 1.367 . S
C2693 C2692 1.367 . S
C2693 C2695 1.433 . S
C2694 C2690 1.350 . S
C2694 C2691 1.463 . S
C2694 N2698 1.427 . S
C2695 H2685 0.929 . S
C2695 C2693 1.433 . S
C2695 N2698 1.384 . S
C2696 H2687 0.929 . S
C2696 C2688 1.378 . S
C2696 C2691 1.350 . S
C2697 H2684 0.929 . S
C2697 C2689 1.433 . S
C2697 N2699 1.384 . S
N2698 C2694 1.427 . S
N2698 C2695 1.384 . S
N2699 C2691 1.427 . S
N2699 C2697 1.384 . S
H2700 C2706 0.930 . S
H2701 C2710 0.930 . S
H2702 C2715 0.929 . S
H2703 C2713 0.929 . S
H2704 C2708 0.929 . S
H2705 C2714 0.929 . S
C2706 H2700 0.930 . S
C2706 C2707 1.367 . S
C2706 C2714 1.378 . S
C2707 C2706 1.367 . S
C2707 C2715 1.433 . S
C2708 H2704 0.929 . S
C2708 C2710 1.378 . S
C2708 C2712 1.350 . S
C2709 C2712 1.463 . S
C2709 C2714 1.350 . S
C2709 N2717 1.427 . S
C2710 H2701 0.930 . S
C2710 C2708 1.378 . S
C2710 C2711 1.367 . S
C2711 C2710 1.367 . S
C2711 C2713 1.433 . S
C2712 C2708 1.350 . S
C2712 C2709 1.463 . S
C2712 N2716 1.427 . S
C2713 H2703 0.929 . S
C2713 C2711 1.433 . S
C2713 N2716 1.384 . S
C2714 H2705 0.929 . S
C2714 C2706 1.378 . S
C2714 C2709 1.350 . S
C2715 H2702 0.929 . S
C2715 C2707 1.433 . S
C2715 N2717 1.384 . S
N2716 C2712 1.427 . S
N2716 C2713 1.384 . S
N2717 C2709 1.427 . S
N2717 C2715 1.384 . S
H2718 C2724 0.930 . S
H2719 C2728 0.930 . S
H2720 C2733 0.929 . S
H2721 C2731 0.929 . S
H2722 C2726 0.929 . S
H2723 C2732 0.929 . S
C2724 H2718 0.930 . S
C2724 C2725 1.367 . S
C2724 C2732 1.378 . S
C2725 C2724 1.367 . S
C2725 C2733 1.433 . S
C2726 H2722 0.929 . S
C2726 C2728 1.378 . S
C2726 C2730 1.350 . S
C2727 C2730 1.463 . S
C2727 C2732 1.350 . S
C2727 N2735 1.427 . S
C2728 H2719 0.930 . S
C2728 C2726 1.378 . S
C2728 C2729 1.367 . S
C2729 C2728 1.367 . S
C2729 C2731 1.433 . S
C2730 C2726 1.350 . S
C2730 C2727 1.463 . S
C2730 N2734 1.427 . S
C2731 H2721 0.929 . S
C2731 C2729 1.433 . S
C2731 N2734 1.384 . S
C2732 H2723 0.929 . S
C2732 C2724 1.378 . S
C2732 C2727 1.350 . S
C2733 H2720 0.929 . S
C2733 C2725 1.433 . S
C2733 N2735 1.384 . S
N2734 C2730 1.427 . S
N2734 C2731 1.384 . S
N2735 C2727 1.427 . S
N2735 C2733 1.384 . S
H2736 C2742 0.930 . S
H2737 C2746 0.930 . S
H2738 C2751 0.929 . S
H2739 C2749 0.929 . S
H2740 C2744 0.929 . S
H2741 C2750 0.929 . S
C2742 H2736 0.930 . S
C2742 C2743 1.367 . S
C2742 C2750 1.378 . S
C2743 C2742 1.367 . S
C2743 C2751 1.433 . S
C2744 H2740 0.929 . S
C2744 C2746 1.378 . S
C2744 C2748 1.350 . S
C2745 C2748 1.463 . S
C2745 C2750 1.350 . S
C2745 N2753 1.427 . S
C2746 H2737 0.930 . S
C2746 C2744 1.378 . S
C2746 C2747 1.367 . S
C2747 C2746 1.367 . S
C2747 C2749 1.433 . S
C2748 C2744 1.350 . S
C2748 C2745 1.463 . S
C2748 N2752 1.427 . S
C2749 H2739 0.929 . S
C2749 C2747 1.433 . S
C2749 N2752 1.384 . S
C2750 H2741 0.929 . S
C2750 C2742 1.378 . S
C2750 C2745 1.350 . S
C2751 H2738 0.929 . S
C2751 C2743 1.433 . S
C2751 N2753 1.384 . S
N2752 C2748 1.427 . S
N2752 C2749 1.384 . S
N2753 C2745 1.427 . S
N2753 C2751 1.384 . S
H2754 C2760 0.930 . S
H2755 C2764 0.930 . S
H2756 C2769 0.929 . S
H2757 C2767 0.929 . S
H2758 C2762 0.929 . S
H2759 C2768 0.929 . S
C2760 H2754 0.930 . S
C2760 C2761 1.367 . S
C2760 C2768 1.378 . S
C2761 C2760 1.367 . S
C2761 C2769 1.433 . S
C2762 H2758 0.929 . S
C2762 C2764 1.378 . S
C2762 C2766 1.350 . S
C2763 C2766 1.463 . S
C2763 C2768 1.350 . S
C2763 N2771 1.427 . S
C2764 H2755 0.930 . S
C2764 C2762 1.378 . S
C2764 C2765 1.367 . S
C2765 C2764 1.367 . S
C2765 C2767 1.433 . S
C2766 C2762 1.350 . S
C2766 C2763 1.463 . S
C2766 N2770 1.427 . S
C2767 H2757 0.929 . S
C2767 C2765 1.433 . S
C2767 N2770 1.384 . S
C2768 H2759 0.929 . S
C2768 C2760 1.378 . S
C2768 C2763 1.350 . S
C2769 H2756 0.929 . S
C2769 C2761 1.433 . S
C2769 N2771 1.384 . S
N2770 C2766 1.427 . S
N2770 C2767 1.384 . S
N2771 C2763 1.427 . S
N2771 C2769 1.384 . S
H2772 C2778 0.930 . S
H2773 C2782 0.930 . S
H2774 C2787 0.929 . S
H2775 C2785 0.929 . S
H2776 C2780 0.929 . S
H2777 C2786 0.929 . S
C2778 H2772 0.930 . S
C2778 C2779 1.367 . S
C2778 C2786 1.378 . S
C2779 C2778 1.367 . S
C2779 C2787 1.433 . S
C2780 H2776 0.929 . S
C2780 C2782 1.378 . S
C2780 C2784 1.350 . S
C2781 C2784 1.463 . S
C2781 C2786 1.350 . S
C2781 N2789 1.427 . S
C2782 H2773 0.930 . S
C2782 C2780 1.378 . S
C2782 C2783 1.367 . S
C2783 C2782 1.367 . S
C2783 C2785 1.433 . S
C2784 C2780 1.350 . S
C2784 C2781 1.463 . S
C2784 N2788 1.427 . S
C2785 H2775 0.929 . S
C2785 C2783 1.433 . S
C2785 N2788 1.384 . S
C2786 H2777 0.929 . S
C2786 C2778 1.378 . S
C2786 C2781 1.350 . S
C2787 H2774 0.929 . S
C2787 C2779 1.433 . S
C2787 N2789 1.384 . S
N2788 C2784 1.427 . S
N2788 C2785 1.384 . S
N2789 C2781 1.427 . S
N2789 C2787 1.384 . S
H2790 C2796 0.930 . S
H2791 C2800 0.930 . S
H2792 C2805 0.929 . S
H2793 C2803 0.929 . S
H2794 C2798 0.929 . S
H2795 C2804 0.929 . S
C2796 H2790 0.930 . S
C2796 C2797 1.367 . S
C2796 C2804 1.378 . S
C2797 C2796 1.367 . S
C2797 C2805 1.433 . S
C2798 H2794 0.929 . S
C2798 C2800 1.378 . S
C2798 C2802 1.350 . S
C2799 C2802 1.463 . S
C2799 C2804 1.350 . S
C2799 N2807 1.427 . S
C2800 H2791 0.930 . S
C2800 C2798 1.378 . S
C2800 C2801 1.367 . S
C2801 C2800 1.367 . S
C2801 C2803 1.433 . S
C2802 C2798 1.350 . S
C2802 C2799 1.463 . S
C2802 N2806 1.427 . S
C2803 H2793 0.929 . S
C2803 C2801 1.433 . S
C2803 N2806 1.384 . S
C2804 H2795 0.929 . S
C2804 C2796 1.378 . S
C2804 C2799 1.350 . S
C2805 H2792 0.929 . S
C2805 C2797 1.433 . S
C2805 N2807 1.384 . S
N2806 C2802 1.427 . S
N2806 C2803 1.384 . S
N2807 C2799 1.427 . S
N2807 C2805 1.384 . S
H2808 C2814 0.930 . S
H2809 C2818 0.930 . S
H2810 C2823 0.929 . S
H2811 C2821 0.929 . S
H2812 C2816 0.929 . S
H2813 C2822 0.929 . S
C2814 H2808 0.930 . S
C2814 C2815 1.367 . S
C2814 C2822 1.378 . S
C2815 C2814 1.367 . S
C2815 C2823 1.433 . S
C2816 H2812 0.929 . S
C2816 C2818 1.378 . S
C2816 C2820 1.350 . S
C2817 C2820 1.463 . S
C2817 C2822 1.350 . S
C2817 N2825 1.427 . S
C2818 H2809 0.930 . S
C2818 C2816 1.378 . S
C2818 C2819 1.367 . S
C2819 C2818 1.367 . S
C2819 C2821 1.433 . S
C2820 C2816 1.350 . S
C2820 C2817 1.463 . S
C2820 N2824 1.427 . S
C2821 H2811 0.929 . S
C2821 C2819 1.433 . S
C2821 N2824 1.384 . S
C2822 H2813 0.929 . S
C2822 C2814 1.378 . S
C2822 C2817 1.350 . S
C2823 H2810 0.929 . S
C2823 C2815 1.433 . S
C2823 N2825 1.384 . S
N2824 C2820 1.427 . S
N2824 C2821 1.384 . S
N2825 C2817 1.427 . S
N2825 C2823 1.384 . S
H2826 C2832 0.930 . S
H2827 C2836 0.930 . S
H2828 C2841 0.929 . S
H2829 C2839 0.929 . S
H2830 C2834 0.929 . S
H2831 C2840 0.929 . S
C2832 H2826 0.930 . S
C2832 C2833 1.367 . S
C2832 C2840 1.378 . S
C2833 C2832 1.367 . S
C2833 C2841 1.433 . S
C2834 H2830 0.929 . S
C2834 C2836 1.378 . S
C2834 C2838 1.350 . S
C2835 C2838 1.463 . S
C2835 C2840 1.350 . S
C2835 N2843 1.427 . S
C2836 H2827 0.930 . S
C2836 C2834 1.378 . S
C2836 C2837 1.367 . S
C2837 C2836 1.367 . S
C2837 C2839 1.433 . S
C2838 C2834 1.350 . S
C2838 C2835 1.463 . S
C2838 N2842 1.427 . S
C2839 H2829 0.929 . S
C2839 C2837 1.433 . S
C2839 N2842 1.384 . S
C2840 H2831 0.929 . S
C2840 C2832 1.378 . S
C2840 C2835 1.350 . S
C2841 H2828 0.929 . S
C2841 C2833 1.433 . S
C2841 N2843 1.384 . S
N2842 C2838 1.427 . S
N2842 C2839 1.384 . S
N2843 C2835 1.427 . S
N2843 C2841 1.384 . S
C1231 C5 1.178 . S
C1235 C70 1.226 . S
C1249 C2 1.215 . S
C1253 C39 1.169 . S
C1267 C36 1.218 . S
C1271 C73 1.169 . S
C1285 C138 1.217 . S
C1289 C107 1.168 . S
C1303 C172 1.227 . S
C1307 C141 1.190 . S
C1321 C104 1.223 . S
C1325 C175 1.192 . S
C1339 C274 1.212 . S
C1343 C209 1.171 . S
C1357 C243 1.174 . S
C1361 C206 1.212 . S
C1375 C240 1.219 . S
C1379 C277 1.190 . S
C1393 C342 1.218 . S
C1397 C311 1.169 . S
C1411 C345 1.173 . S
C1415 C376 1.223 . S
C1429 C308 1.212 . S
C1433 C379 1.174 . S
C1447 C413 1.176 . S
C1451 C478 1.225 . S
C1465 C447 1.188 . S
C1469 C410 1.217 . S
C1483 C481 1.178 . S
C1487 C444 1.226 . S
C1501 C546 1.214 . S
C1505 C515 1.183 . S
C1519 C580 1.223 . S
C1523 C549 1.172 . S
C1537 C583 1.189 . S
C1541 C512 1.227 . S
C1555 C617 1.169 . S
C1559 C682 1.214 . S
C1573 C651 1.173 . S
C1577 C614 1.224 . S
C1591 C685 1.180 . S
C1595 C648 1.227 . S
C1609 C750 1.213 . S
C1613 C719 1.170 . S
C1627 C784 1.224 . S
C1631 C753 1.174 . S
C1645 C787 1.191 . S
C1649 C716 1.225 . S
C1663 C886 1.213 . S
C1667 C821 1.171 . S
C1681 C818 1.221 . S
C1685 C855 1.171 . S
C1699 C889 1.169 . S
C1703 C852 1.214 . S
C1717 C954 1.221 . S
C1721 C923 1.171 . S
C1735 C957 1.189 . S
C1739 C988 1.227 . S
C1753 C920 1.226 . S
C1757 C991 1.177 . S
C1771 C1090 1.228 . S
C1775 C1025 1.186 . S
C1789 C1059 1.189 . S
C1793 C1022 1.219 . S
C1807 C1093 1.179 . S
C1811 C1056 1.212 . S
C1825 C1158 1.220 . S
C1829 C1127 1.190 . S
C1843 C1192 1.212 . S
C1847 C1161 1.175 . S
C1861 C1195 1.191 . S
C1865 C1124 1.222 . S
C1879 C689 1.567 . S
C1883 C20 1.569 . S
C1897 C54 1.565 . S
C1901 C621 1.561 1_565 S
C1915 C88 1.563 . S
C1919 C655 1.572 1_455 S
C1933 C1165 1.571 . S
C1937 C122 1.561 . S
C1951 C1199 1.561 1_545 S
C1955 C156 1.565 . S
C1969 C190 1.569 . S
C1973 C1131 1.568 1_655 S
C1987 C224 1.569 . S
C1991 C893 1.570 . S
C2005 C258 1.564 . S
C2009 C825 1.561 1_545 S
C2023 C292 1.558 . S
C2027 C859 1.568 1_655 S
C2041 C553 1.572 . S
C2045 C326 1.565 . S
C2059 C360 1.560 . S
C2063 C587 1.570 1_565 S
C2077 C394 1.567 . S
C2081 C519 1.562 1_455 S
C2095 C428 1.568 . S
C2099 C1097 1.571 . S
C2113 C1029 1.570 . S
C2117 C462 1.569 . S
C2131 C1063 1.570 . S
C2135 C496 1.560 . S
C2149 C530 1.562 . S
C2153 C349 1.571 . S
C2167 C564 1.565 . S
C2171 C383 1.572 . S
C2185 C598 1.560 . S
C2189 C315 1.563 . S
C2203 C77 1.567 . S
C2207 C632 1.569 . S
C2221 C666 1.560 . S
C2225 C9 1.563 . S
C2239 C700 1.558 . S
C2243 C43 1.567 . S
C2257 C961 1.572 . S
C2261 C734 1.565 . S
C2275 C768 1.568 . S
C2279 C995 1.564 . S
C2293 C802 1.559 . S
C2297 C927 1.569 . S
C2311 C281 1.571 . S
C2315 C836 1.567 . S
C2329 C213 1.561 . S
C2333 C870 1.562 . S
C2347 C904 1.567 . S
C2351 C247 1.572 . S
C2365 C938 1.562 . S
C2369 C757 1.561 . S
C2383 C791 1.572 . S
C2387 C972 1.564 . S
C2401 C1006 1.560 . S
C2405 C723 1.570 . S
C2419 C485 1.564 . S
C2423 C1040 1.559 . S
C2437 C1074 1.567 . S
C2441 C417 1.572 . S
C2455 C1108 1.565 . S
C2459 C451 1.572 . S
C2473 C145 1.561 . S
C2477 C1142 1.565 . S
C2491 C1176 1.562 . S
C2495 C179 1.561 . S
C2509 C111 1.572 . S
C2513 C1210 1.565 . S
C2527 C169 1.386 . S
C2531 C33 1.382 . S
C2545 C67 1.389 . S
C2549 C203 1.392 . S
C2563 C101 1.378 . S
C2567 C135 1.375 . S
C2581 C237 1.391 . S
C2585 C373 1.387 . S
C2599 C271 1.381 . S
C2603 C407 1.377 . S
C2617 C305 1.393 . S
C2621 C339 1.394 . S
C2635 C577 1.394 . S
C2639 C441 1.394 . S
C2653 C611 1.384 . S
C2657 C475 1.388 . S
C2671 C543 1.374 . S
C2675 C509 1.375 . S
C2689 C781 1.377 . S
C2693 C645 1.374 . S
C2707 C815 1.394 . S
C2711 C679 1.392 . S
C2725 C747 1.374 . S
C2729 C713 1.377 . S
C2743 C985 1.376 . S
C2747 C849 1.379 . S
C2761 C883 1.393 . S
C2765 C1019 1.395 . S
C2779 C951 1.378 . S
C2783 C917 1.375 . S
C2797 C1189 1.381 . S
C2801 C1053 1.377 . S
C2815 C1223 1.394 . S
C2819 C1087 1.394 . S
C2833 C1121 1.374 . S
C2837 C1155 1.374 . S
