# Generated by pormake.
# Topology smc, (6)-cn, num edge types: 1
# Building blocks:
#     Node 0, Type 0, BuildingBlock: NUHQIS_clean_sbu_0, # of connection points: 6
#     Node 1, Type 0, BuildingBlock: NUHQIS_clean_sbu_0, # of connection points: 6
#     Node 2, Type 0, BuildingBlock: NUHQIS_clean_sbu_0, # of connection points: 6
#     Node 3, Type 0, BuildingBlock: NUHQIS_clean_sbu_0, # of connection points: 6
#     Node 4, Type 0, BuildingBlock: NUHQIS_clean_sbu_0, # of connection points: 6
#     Node 5, Type 0, BuildingBlock: NUHQIS_clean_sbu_0, # of connection points: 6
#     Node 6, Type 0, BuildingBlock: NUHQIS_clean_sbu_0, # of connection points: 6
#     Node 7, Type 0, BuildingBlock: NUHQIS_clean_sbu_0, # of connection points: 6
#     Node 8, Type 0, BuildingBlock: NUHQIS_clean_sbu_0, # of connection points: 6
#     Edge 9, Type (0, 0), BuildingBlock: KIFKEQ_clean_linker_1, # of connection points: 2
#     Edge 10, Type (0, 0), BuildingBlock: KIFKEQ_clean_linker_1, # of connection points: 2
#     Edge 11, Type (0, 0), BuildingBlock: KIFKEQ_clean_linker_1, # of connection points: 2
#     Edge 12, Type (0, 0), BuildingBlock: KIFKEQ_clean_linker_1, # of connection points: 2
#     Edge 13, Type (0, 0), BuildingBlock: KIFKEQ_clean_linker_1, # of connection points: 2
#     Edge 14, Type (0, 0), BuildingBlock: KIFKEQ_clean_linker_1, # of connection points: 2
#     Edge 15, Type (0, 0), BuildingBlock: KIFKEQ_clean_linker_1, # of connection points: 2
#     Edge 16, Type (0, 0), BuildingBlock: KIFKEQ_clean_linker_1, # of connection points: 2
#     Edge 17, Type (0, 0), BuildingBlock: KIFKEQ_clean_linker_1, # of connection points: 2
#     Edge 18, Type (0, 0), BuildingBlock: KIFKEQ_clean_linker_1, # of connection points: 2
#     Edge 19, Type (0, 0), BuildingBlock: KIFKEQ_clean_linker_1, # of connection points: 2
#     Edge 20, Type (0, 0), BuildingBlock: KIFKEQ_clean_linker_1, # of connection points: 2
#     Edge 21, Type (0, 0), BuildingBlock: KIFKEQ_clean_linker_1, # of connection points: 2
#     Edge 22, Type (0, 0), BuildingBlock: KIFKEQ_clean_linker_1, # of connection points: 2
#     Edge 23, Type (0, 0), BuildingBlock: KIFKEQ_clean_linker_1, # of connection points: 2
#     Edge 24, Type (0, 0), BuildingBlock: KIFKEQ_clean_linker_1, # of connection points: 2
#     Edge 25, Type (0, 0), BuildingBlock: KIFKEQ_clean_linker_1, # of connection points: 2
#     Edge 26, Type (0, 0), BuildingBlock: KIFKEQ_clean_linker_1, # of connection points: 2
#     Edge 27, Type (0, 0), BuildingBlock: KIFKEQ_clean_linker_1, # of connection points: 2
#     Edge 28, Type (0, 0), BuildingBlock: KIFKEQ_clean_linker_1, # of connection points: 2
#     Edge 29, Type (0, 0), BuildingBlock: KIFKEQ_clean_linker_1, # of connection points: 2
#     Edge 30, Type (0, 0), BuildingBlock: KIFKEQ_clean_linker_1, # of connection points: 2
#     Edge 31, Type (0, 0), BuildingBlock: KIFKEQ_clean_linker_1, # of connection points: 2
#     Edge 32, Type (0, 0), BuildingBlock: KIFKEQ_clean_linker_1, # of connection points: 2
#     Edge 33, Type (0, 0), BuildingBlock: KIFKEQ_clean_linker_1, # of connection points: 2
#     Edge 34, Type (0, 0), BuildingBlock: KIFKEQ_clean_linker_1, # of connection points: 2
#     Edge 35, Type (0, 0), BuildingBlock: KIFKEQ_clean_linker_1, # of connection points: 2
# Relax obj value: 0.320
# Max RMSD: 0.371
# Mean RMSD: 0.322
data_MOF--net-smc--node1-NUHQIS_clean_sbu_0--edge1-KIFKEQ_clean_linker_1
_symmetry_space_group_name_H-M    P1
_symmetry_Int_Tables_number       1
_symmetry_cell_setting            triclinic
loop_
_symmetry_equiv_pos_as_xyz
'x, y, z'
_cell_length_a     43.374259
_cell_length_b     32.447887
_cell_length_c     40.656836
_cell_angle_alpha  91.489106
_cell_angle_beta   90.591148
_cell_angle_gamma 119.16019
loop_
_atom_site_label
_atom_site_type_symbol
_atom_site_fract_x
_atom_site_fract_y
_atom_site_fract_z
_atom_type_partial_charge
Tb0 Tb 1.05815 0.49714 1.01638 0.0
Eu1 Eu 0.07977 0.41632 1.0002 0.0
C2 C 0.09675 0.46735 0.07262 0.0
C3 C 0.13243 0.52642 0.99151 0.0
C4 C 1.01863 0.56689 0.0525 0.0
C5 C 0.99827 0.61838 0.0763 0.0
C6 C 1.02191 0.61182 0.05669 0.0
C7 C 0.99266 0.52903 0.06955 0.0
C8 C 0.96883 0.53544 0.08896 0.0
C9 C 0.97081 0.57994 0.09183 0.0
C10 C 1.03973 0.5589 0.02771 0.0
O11 O 1.02722 0.45848 0.97109 0.0
O12 O 0.0617 0.42855 0.95121 0.0
O13 O 1.02064 0.38096 1.00809 0.0
O14 O 1.02252 0.43714 0.04388 0.0
C15 C 1.03575 0.43797 0.94701 0.0
O16 O 0.10989 0.3894 0.97327 0.0
O17 O 0.07166 0.34571 1.00878 0.0
O18 O 0.09285 0.43149 0.05403 0.0
O19 O 0.08714 0.49797 0.06222 0.0
O20 O 0.10364 0.52853 0.98513 0.0
O21 O 0.13011 0.48801 1.0039 0.0
C22 C 1.00564 0.39448 0.03066 0.0
O23 O 0.06998 0.56351 0.0375 0.0
O24 O 1.02223 0.52157 1.00856 0.0
C25 C 0.12736 0.34972 1.00979 0.0
C26 C 0.19341 0.3802 0.04043 0.0
C27 C 0.18729 0.36314 1.00753 0.0
C28 C 0.15439 0.34811 0.99223 0.0
C29 C 0.13215 0.36047 0.04387 0.0
C30 C 0.16505 0.37575 0.05906 0.0
C31 C 0.099 0.35263 0.99168 0.0
H32 H 1.00025 0.65297 0.07771 0.0
H33 H 1.04173 0.64138 0.04362 0.0
H34 H 0.98986 0.49414 0.06665 0.0
H35 H 0.94816 0.50528 0.10086 0.0
H36 H 0.20891 0.36647 0.99263 0.0
H37 H 0.15127 0.34003 0.96598 0.0
H38 H 0.11167 0.36171 0.05817 0.0
H39 H 0.16922 0.38834 0.08453 0.0
Tb40 Tb 0.58577 0.61997 0.99012 0.0
Eu41 Eu 0.65513 0.66259 0.0302 0.0
C42 C 0.66032 0.66457 0.95234 0.0
C43 C 0.60958 0.54421 1.01192 0.0
C44 C 0.49606 0.59331 0.97146 0.0
C45 C 0.43308 0.5642 0.96855 0.0
C46 C 0.46345 0.56708 0.95492 0.0
C47 C 0.49862 0.61996 1.00016 0.0
C48 C 0.46825 0.61645 1.01408 0.0
C49 C 0.43514 0.58692 0.99908 0.0
C50 C 0.52572 0.5861 0.96277 0.0
O51 O 0.57974 0.63811 0.04301 0.0
O52 O 0.61389 0.61098 0.0615 0.0
O53 O 0.63679 0.7218 0.03323 0.0
O54 O 0.59385 0.69248 0.99296 0.0
C55 C 0.59139 0.62469 0.06849 0.0
O56 O 0.68333 0.69371 0.07713 0.0
O57 O 0.71122 0.68682 0.0351 0.0
O58 O 0.67432 0.68826 0.97988 0.0
O59 O 0.62661 0.63088 0.95193 0.0
O60 O 0.58432 0.5524 1.00118 0.0
O61 O 0.64066 0.58176 0.02126 0.0
C62 C 0.61282 0.72654 1.01475 0.0
O63 O 0.55362 0.62264 0.95202 0.0
O64 O 0.53385 0.56474 0.98517 0.0
C65 C 0.73151 0.68009 0.08725 0.0
C66 C 0.77718 0.65267 0.11723 0.0
C67 C 0.78112 0.69779 0.12401 0.0
C68 C 0.75854 0.71143 0.10898 0.0
C69 C 0.72551 0.63374 0.08264 0.0
C70 C 0.74821 0.62015 0.09745 0.0
C71 C 0.71293 0.69774 0.06645 0.0
H72 H 0.40768 0.54082 0.95677 0.0
H73 H 0.46109 0.54616 0.93287 0.0
H74 H 0.5237 0.6404 1.01323 0.0
H75 H 0.47032 0.63412 0.03765 0.0
H76 H 0.80273 0.72335 0.13964 0.0
H77 H 0.76335 0.74726 0.11298 0.0
H78 H 0.70461 0.60897 0.066 0.0
H79 H 0.74447 0.58527 0.09145 0.0
Tb80 Tb 0.57055 0.10851 0.04751 0.0
Eu81 Eu 0.49349 0.05612 0.02338 0.0
C82 C 0.50675 0.07605 0.0961 0.0
C83 C 0.5423 1.00086 0.02995 0.0
C84 C 0.66966 0.17936 0.07049 0.0
C85 C 0.7293 0.20459 0.09052 0.0
C86 C 0.6929 0.1789 0.09447 0.0
C87 C 0.68327 0.20818 0.04333 0.0
C88 C 0.71992 0.23458 0.03958 0.0
C89 C 0.74313 0.2316 0.06261 0.0
C90 C 0.63245 0.14285 0.07165 0.0
O91 O 0.56882 0.12973 0.99538 0.0
O92 O 0.52243 0.0602 0.97805 0.0
O93 O 0.51116 0.1389 0.01768 0.0
O94 O 0.56491 0.17239 0.04508 0.0
C95 C 0.54832 0.10118 0.97095 0.0
O96 O 0.4477 1.02813 0.98891 0.0
O97 O 0.4406 1.00914 0.04011 0.0
O98 O 0.49423 0.08939 0.07221 0.0
O99 O 0.53386 0.06967 0.0888 0.0
O100 O 0.56888 1.04369 0.02781 0.0
O101 O 0.51035 0.99714 0.03358 0.0
C102 C 0.54011 0.17802 0.03003 0.0
O103 O 0.60915 0.15358 0.08313 0.0
O104 O 0.62027 0.11355 0.04633 0.0
C105 C 0.39822 0.95322 1.00244 0.0
C106 C 0.34436 0.85711 0.99383 0.0
C107 C 0.38027 0.87047 0.9894 0.0
C108 C 0.40692 0.91796 0.99381 0.0
C109 C 0.36261 0.9402 1.00646 0.0
C110 C 0.33612 0.89299 1.00235 0.0
C111 C 0.42543 1.00258 1.01115 0.0
H112 H 0.74668 0.20217 0.10877 0.0
H113 H 0.68284 0.15644 0.11539 0.0
H114 H 0.66566 0.20839 0.02433 0.0
H115 H 0.73003 0.25518 0.01784 0.0
H116 H 0.38789 0.84429 0.98256 0.0
H117 H 0.43429 0.92701 0.99105 0.0
H118 H 0.35526 0.96654 1.01378 0.0
H119 H 0.30917 0.88462 1.00687 0.0
Tb120 Tb 0.6968 0.82925 0.36536 0.0
Eu121 Eu 0.75701 0.7889 0.345 0.0
C122 C 0.74255 0.80894 0.42019 0.0
C123 C 0.77353 0.89705 0.34593 0.0
C124 C 0.62202 0.8678 0.36769 0.0
C125 C 0.59419 0.91187 0.34425 0.0
C126 C 0.62291 0.90267 0.34695 0.0
C127 C 0.59078 0.84218 0.38537 0.0
C128 C 0.56194 0.85123 0.38257 0.0
C129 C 0.56305 0.8868 0.36227 0.0
C130 C 0.65533 0.86422 0.37464 0.0
O131 O 0.68626 0.80082 0.31281 0.0
O132 O 0.72836 0.7791 0.29678 0.0
O133 O 0.69823 0.72366 0.34616 0.0
O134 O 0.67017 0.75619 0.37777 0.0
C135 C 0.70002 0.78342 0.29065 0.0
O136 O 0.79237 0.76044 0.32575 0.0
O137 O 0.81371 0.82313 0.35812 0.0
O138 O 0.74641 0.78058 0.39906 0.0
O139 O 0.72819 0.83544 0.41143 0.0
O140 O 0.74916 0.88943 0.36718 0.0
O141 O 0.7728 0.86233 0.3282 0.0
C142 C 0.6693 0.72054 0.36103 0.0
O143 O 0.68024 0.87868 0.35303 0.0
O144 O 0.6543 0.82955 0.39119 0.0
C145 C 0.85967 0.80246 0.34026 0.0
C146 C 0.93588 0.82881 0.33839 0.0
C147 C 0.91167 0.80547 0.31143 0.0
C148 C 0.87479 0.79231 0.31246 0.0
C149 C 0.88387 0.82589 0.36708 0.0
C150 C 0.92041 0.8379 0.36639 0.0
C151 C 0.82115 0.79535 0.34005 0.0
H152 H 0.59664 0.93907 0.32792 0.0
H153 H 0.64643 0.92407 0.33329 0.0
H154 H 0.58892 0.81585 0.40226 0.0
H155 H 0.53914 0.83115 0.3974 0.0
H156 H 0.92121 0.79701 0.28916 0.0
H157 H 0.85827 0.77541 0.29075 0.0
H158 H 0.87459 0.83565 0.38898 0.0
H159 H 0.93693 0.85591 0.38788 0.0
Tb160 Tb 0.26854 0.89297 0.33433 0.0
Eu161 Eu 0.29699 0.99826 0.33537 0.0
C162 C 0.27609 0.94463 0.40339 0.0
C163 C 0.21013 0.92781 0.33452 0.0
C164 C 0.25886 0.79123 0.28959 0.0
C165 C 0.29063 0.7486 0.27836 0.0
C166 C 0.27581 0.76674 0.3007 0.0
C167 C 0.25927 0.80012 0.25578 0.0
C168 C 0.27396 0.78171 0.23333 0.0
C169 C 0.28826 0.75368 0.24414 0.0
C170 C 0.24282 0.80988 0.31342 0.0
O171 O 0.30591 0.92063 0.29208 0.0
O172 O 0.30702 0.98939 0.2825 0.0
O173 O 0.34638 0.98587 0.34178 0.0
O174 O 0.31946 0.90756 0.35347 0.0
C175 C 0.31585 0.95782 0.27368 0.0
O176 O 0.30472 0.06452 0.31621 0.0
O177 O 0.33009 0.06474 0.36252 0.0
O178 O 0.27599 0.97796 0.38609 0.0
O179 O 0.27511 0.90737 0.38834 0.0
O180 O 0.21896 0.8961 0.34363 0.0
O181 O 0.23613 0.9693 0.32565 0.0
C182 C 0.34845 0.94784 0.35074 0.0
O183 O 0.25859 0.82388 0.34238 0.0
O184 O 0.23356 0.83948 0.3016 0.0
C185 C 0.30439 0.11393 0.35849 0.0
C186 C 0.25798 0.14628 0.37786 0.0
C187 C 0.27953 0.16547 0.35072 0.0
C188 C 0.30274 0.14952 0.34116 0.0
C189 C 0.28447 0.09694 0.387 0.0
C190 C 0.26148 0.11333 0.39677 0.0
C191 C 0.32095 0.08857 0.34307 0.0
H192 H 0.3011 0.72701 0.28801 0.0
H193 H 0.27665 0.76026 0.32662 0.0
H194 H 0.24724 0.82002 0.24638 0.0
H195 H 0.27164 0.78624 0.20728 0.0
H196 H 0.27719 0.19128 0.33604 0.0
H197 H 0.31761 0.16267 0.31899 0.0
H198 H 0.28504 0.06906 0.40059 0.0
H199 H 0.245 0.09831 0.4178 0.0
Tb200 Tb 0.21546 0.46678 0.37432 0.0
Eu201 Eu 0.12479 0.41694 0.36664 0.0
C202 C 0.16086 0.45217 0.43342 0.0
C203 C 0.16626 0.35839 0.37272 0.0
C204 C 0.32126 0.51998 0.37372 0.0
C205 C 0.37421 0.51022 0.38123 0.0
C206 C 0.33752 0.49417 0.38508 0.0
C207 C 0.3436 0.56252 0.35808 0.0
C208 C 0.38028 0.57865 0.35428 0.0
C209 C 0.39687 0.55333 0.36611 0.0
C210 C 0.28341 0.50725 0.38282 0.0
O211 O 0.20175 0.46233 0.32042 0.0
O212 O 0.14455 0.40058 0.32011 0.0
O213 O 0.14803 0.48822 0.34498 0.0
O214 O 0.19831 0.51949 0.37665 0.0
C215 C 0.17177 0.43224 0.30431 0.0
O216 O 0.07581 0.39677 0.33909 0.0
O217 O 0.0741 0.3799 0.39056 0.0
O218 O 0.14386 0.46289 0.41181 0.0
O219 O 0.18751 0.44551 0.42333 0.0
O220 O 0.19449 0.39314 0.36012 0.0
O221 O 0.13997 0.36355 0.38397 0.0
C222 C 0.17966 0.52337 0.35235 0.0
O223 O 0.26117 0.46577 0.39357 0.0
O224 O 0.26655 0.52522 0.36725 0.0
C225 C 1.02727 0.32607 0.35593 0.0
C226 C 0.97235 0.23258 0.34455 0.0
C227 C 1.00685 0.24615 0.33442 0.0
C228 C 1.03411 0.2925 0.34015 0.0
C229 C 0.99298 0.31294 0.3658 0.0
C230 C 0.96576 0.26663 0.3602 0.0
C231 C 1.05585 0.37426 0.36348 0.0
H232 H 0.38473 0.48848 0.39043 0.0
H233 H 0.32199 0.46177 0.39781 0.0
H234 H 0.33293 0.5845 0.3496 0.0
H235 H 0.39581 0.61221 0.34294 0.0
H236 H 1.0128 0.22099 0.32204 0.0
H237 H 0.06057 0.30207 0.33251 0.0
H238 H 0.98736 0.33836 0.37829 0.0
H239 H 0.93971 0.25728 0.36887 0.0
Tb240 Tb 0.3893 0.13568 0.70322 0.0
Eu241 Eu 0.41347 0.05878 0.69304 0.0
C242 C 0.42667 0.11101 0.7607 0.0
C243 C 0.46581 0.16991 0.68131 0.0
C244 C 0.33792 0.19927 0.71982 0.0
C245 C 0.3081 0.24592 0.72188 0.0
C246 C 0.33765 0.24145 0.71424 0.0
C247 C 0.30788 0.16094 0.73236 0.0
C248 C 0.27827 0.16542 0.74016 0.0
C249 C 0.27828 0.20827 0.73548 0.0
C250 C 0.37051 0.19719 0.71424 0.0
O251 O 0.36093 0.09466 0.6572 0.0
O252 O 0.40169 0.07327 0.64231 0.0
O253 O 0.35324 1.01659 0.69383 0.0
O254 O 0.34687 0.07257 0.72368 0.0
C255 C 0.37409 0.07761 0.63471 0.0
O256 O 0.43146 1.01903 0.66225 0.0
O257 O 0.42624 1.00748 0.7143 0.0
O258 O 0.41 0.06871 0.74718 0.0
O259 O 0.42791 0.14609 0.74392 0.0
O260 O 0.43672 0.1713 0.67494 0.0
O261 O 0.46395 0.13187 0.69431 0.0
C262 C 0.33359 1.02933 0.71129 0.0
O263 O 0.37985 0.17774 0.73704 0.0
O264 O 0.37461 0.18395 0.68486 0.0
C265 C 0.4803 1.02387 0.69057 0.0
C266 C 0.54841 0.10104 0.68858 0.0
C267 C 0.53308 0.07196 0.66034 0.0
C268 C 0.49938 1.03296 0.66146 0.0
C269 C 0.4982 1.04828 0.71994 0.0
C270 C 0.53209 0.08694 0.71888 0.0
C271 C 0.44174 1.00472 0.68768 0.0
H272 H 0.3087 0.27901 0.71723 0.0
H273 H 0.36057 0.2713 0.70445 0.0
H274 H 0.30763 0.128 0.73678 0.0
H275 H 0.25582 0.13582 0.75069 0.0
H276 H 0.54589 0.08168 0.63688 0.0
H277 H 0.48648 1.01423 0.6386 0.0
H278 H 0.48459 1.04162 0.74303 0.0
H279 H 0.54387 0.10852 0.74108 0.0
Tb280 Tb 0.90481 0.29143 0.65359 0.0
Eu281 Eu 0.97233 0.32919 0.69593 0.0
C282 C 0.98013 0.33705 0.61925 0.0
C283 C 0.92491 0.21176 0.67454 0.0
C284 C 0.82294 0.28303 0.62223 0.0
C285 C 0.76634 0.27455 0.60619 0.0
C286 C 0.79228 0.26129 0.60248 0.0
C287 C 0.82867 0.32041 0.64404 0.0
C288 C 0.80325 0.33465 0.64717 0.0
C289 C 0.7709 0.31022 0.62955 0.0
C290 C 0.84777 0.26473 0.6219 0.0
O291 O 0.89754 0.30876 0.70618 0.0
O292 O 0.92833 0.27664 0.72431 0.0
O293 O 0.95598 0.39021 0.70028 0.0
O294 O 0.91805 0.36651 0.656 0.0
C295 C 0.90703 0.29228 0.73142 0.0
O296 O 0.99997 0.35306 0.74387 0.0
O297 O 1.02828 0.35241 0.70028 0.0
O298 O 0.99204 0.36052 0.64712 0.0
O299 O 0.94733 0.30118 0.61794 0.0
O300 O 0.90048 0.22164 0.66368 0.0
O301 O 0.9563 0.2483 0.68442 0.0
C302 C 0.93513 0.39839 0.67976 0.0
O303 O 0.8787 0.29294 0.6103 0.0
O304 O 0.85017 0.24627 0.64929 0.0
C305 C 1.04615 0.33418 0.74925 0.0
C306 C 0.08561 0.28976 0.76616 0.0
C307 C 0.10025 0.33898 0.77057 0.0
C308 C 0.08067 0.36102 0.76202 0.0
C309 C 1.03044 0.28477 0.74736 0.0
C310 C 1.05004 0.26269 0.75573 0.0
C311 C 1.02951 0.35787 0.73226 0.0
H312 H 0.74169 0.25411 0.59249 0.0
H313 H 0.78751 0.23232 0.58555 0.0
H314 H 0.85199 0.337 0.65992 0.0
H315 H 0.80806 0.36272 0.66494 0.0
H316 H 0.12766 0.36085 0.77825 0.0
H317 H 0.09328 0.39923 0.76329 0.0
H318 H 1.0038 0.26352 0.73739 0.0
H319 H 1.03796 0.22469 0.75245 0.0
Tb320 Tb 0.89309 0.78637 0.70345 0.0
Eu321 Eu 0.81217 0.72222 0.68668 0.0
C322 C 0.83308 0.75389 0.75867 0.0
C323 C 0.86786 0.67612 0.69373 0.0
C324 C 0.99435 0.84202 0.7183 0.0
C325 C 1.0533 0.8844 0.74396 0.0
C326 C 1.01773 0.87325 0.74278 0.0
C327 C 1.0071 0.82061 0.69572 0.0
C328 C 1.04277 0.83181 0.69686 0.0
C329 C 0.06663 0.86472 0.72056 0.0
C330 C 0.95915 0.83886 0.71372 0.0
O331 O 0.8796 0.80127 0.65256 0.0
O332 O 0.83616 0.72827 0.63805 0.0
O333 O 0.82537 0.80412 0.6808 0.0
O334 O 0.87771 0.84105 0.71045 0.0
C335 C 0.85797 0.77081 0.62948 0.0
O336 O 0.76329 0.68402 0.65577 0.0
O337 O 0.76239 0.67268 0.70802 0.0
O338 O 0.81368 0.75615 0.7352 0.0
O339 O 0.86341 0.75548 0.75052 0.0
O340 O 0.89399 0.71977 0.69199 0.0
O341 O 0.83506 0.66982 0.69608 0.0
C342 C 0.85255 0.84453 0.69443 0.0
O343 O 0.93638 0.82312 0.73723 0.0
O344 O 0.94376 0.8252 0.68477 0.0
C345 C 0.72164 0.60616 0.67482 0.0
C346 C 0.6712 0.50714 0.67187 0.0
C347 C 0.66648 0.53964 0.65287 0.0
C348 C 0.69117 0.58825 0.65445 0.0
C349 C 0.72726 0.57368 0.6928 0.0
C350 C 0.7025 0.52506 0.69135 0.0
C351 C 0.74478 0.65856 0.68007 0.0
H352 H 0.0707 0.9103 0.76235 0.0
H353 H 1.00885 0.89088 0.76017 0.0
H354 H 0.98986 0.79654 0.6764 0.0
H355 H 1.05178 0.8153 0.67873 0.0
H356 H 0.64337 0.52769 0.6369 0.0
H357 H 0.68589 0.61211 0.64036 0.0
H358 H 0.75034 0.58602 0.70891 0.0
H359 H 0.70735 0.50184 0.70658 0.0
H360 H 0.3754 0.58932 0.98082 0.0
H361 H 0.42186 0.54762 0.05858 0.0
H362 H 0.31743 0.5448 1.00542 0.0
H363 H 0.36373 0.50195 0.08258 0.0
H364 H 0.24988 0.36463 0.04191 0.0
H365 H 0.31202 0.42604 0.0446 0.0
H366 H 0.28094 0.53188 0.06387 0.0
H367 H 0.21897 0.47054 0.06219 0.0
C368 C 0.37331 0.57203 1.00378 0.0
C369 C 0.4028 0.57173 0.01789 0.0
C370 C 0.34034 0.54677 0.01789 0.0
C371 C 0.33645 0.52012 0.04578 0.0
C372 C 0.36634 0.52258 0.06121 0.0
C373 C 0.39944 0.54874 0.04754 0.0
C374 C 0.25651 0.40071 0.04824 0.0
C375 C 0.22987 0.41299 0.05184 0.0
C376 C 0.2919 0.43574 0.04984 0.0
C377 C 0.3009 0.48342 0.05433 0.0
C378 C 0.27445 0.49526 0.06059 0.0
C379 C 0.23912 0.46014 0.05976 0.0
H380 H 0.60732 1.00374 0.03621 0.0
H381 H 0.49785 0.90009 0.02163 0.0
H382 H 0.62374 0.94177 0.03412 0.0
H383 H 0.51439 0.8373 0.01924 0.0
H384 H 0.55575 0.73256 0.98818 0.0
H385 H 0.53857 0.79359 0.99267 0.0
H386 H 0.62997 0.87818 0.0551 0.0
H387 H 0.64712 0.81608 0.05075 0.0
C388 C 0.58629 0.96766 0.03257 0.0
C389 C 0.55077 0.95871 0.02914 0.0
C390 C 0.59599 0.93121 0.03154 0.0
C391 C 0.57103 0.88258 0.02645 0.0
C392 C 0.53531 0.8734 0.02293 0.0
C393 C 0.52549 0.91008 0.02449 0.0
C394 C 0.57264 0.76399 1.00302 0.0
C395 C 0.6035 0.76774 0.01879 0.0
C396 C 0.56232 0.79975 1.00583 0.0
C397 C 0.58225 0.84278 0.02432 0.0
C398 C 0.61329 0.84679 0.04017 0.0
C399 C 0.62338 0.81041 0.03776 0.0
H400 H 0.34649 0.77557 1.00903 0.0
H401 H 0.27602 0.82241 0.97052 0.0
H402 H 0.29872 0.69402 1.00497 0.0
H403 H 0.22801 0.74217 0.969 0.0
H404 H 0.14892 0.59317 0.94578 0.0
H405 H 0.20182 0.66956 0.94313 0.0
H406 H 0.24641 0.63685 0.02755 0.0
H407 H 0.19387 0.5588 0.02866 0.0
C408 C 0.32094 0.76872 0.99958 0.0
C409 C 0.31548 0.80632 0.99029 0.0
C410 C 0.2932 0.72168 0.99771 0.0
C411 C 0.259 0.71064 0.98664 0.0
C412 C 0.25381 0.74833 0.97708 0.0
C413 C 0.2815 0.79504 0.97857 0.0
C414 C 0.17031 0.60197 0.96342 0.0
C415 C 0.16708 0.56984 0.98745 0.0
C416 C 0.20066 0.64628 0.96223 0.0
C417 C 0.22855 0.66067 0.98564 0.0
C418 C 0.22589 0.62752 1.0089 0.0
C419 C 0.19566 0.58256 1.00961 0.0
H420 H 0.5955 0.26077 0.05781 0.0
H421 H 0.50457 0.21974 0.99441 0.0
H422 H 0.61172 0.34316 0.0537 0.0
H423 H 0.52116 0.30346 0.98963 0.0
H424 H 0.54715 0.46132 0.99435 0.0
H425 H 0.5303 0.37831 0.99805 0.0
H426 H 0.63387 0.41813 0.03794 0.0
H427 H 0.65035 0.50177 0.03468 0.0
C428 C 0.57852 0.26876 0.04274 0.0
C429 C 0.54808 0.23086 0.02673 0.0
C430 C 0.5883 0.31766 0.04012 0.0
C431 C 0.5686 0.33346 0.02109 0.0
C432 C 0.53787 0.29543 1.005 0.0
C433 C 0.528 0.24606 1.00771 0.0
C434 C 0.56677 0.45305 1.00396 0.0
C435 C 0.60065 0.49085 1.01406 0.0
C436 C 0.55686 0.40394 1.00603 0.0
C437 C 0.57994 0.38806 0.01844 0.0
C438 C 0.61407 0.42609 0.02847 0.0
C439 C 0.624 0.47546 0.02639 0.0
H440 H 0.78872 0.32375 0.04962 0.0
H441 H 0.78371 0.189 0.06236 0.0
H442 H 0.85275 0.36039 0.04252 0.0
H443 H 0.84751 0.22539 0.05478 0.0
H444 H 0.95685 0.31032 1.00056 0.0
H445 H 0.89273 0.26907 1.00765 0.0
H446 H 0.90458 0.37239 0.08287 0.0
H447 H 0.96826 0.41253 0.07681 0.0
C448 C 0.80132 0.30202 0.05062 0.0
C449 C 0.78148 0.25375 0.05676 0.0
C450 C 0.83784 0.3229 0.04672 0.0
C451 C 0.85496 0.29563 0.04823 0.0
C452 C 0.83492 0.24709 0.05341 0.0
C453 C 0.79855 0.22643 0.05794 0.0
C454 C 0.94583 0.32371 0.01901 0.0
C455 C 0.96769 0.36513 0.03778 0.0
C456 C 0.90917 0.30023 0.02294 0.0
C457 C 0.89379 0.31818 0.04536 0.0
C458 C 0.91573 0.35842 0.06495 0.0
C459 C 0.95225 0.38131 0.06146 0.0
H460 H 0.97708 0.65123 0.13383 0.0
H461 H 0.89989 0.52148 0.08448 0.0
H462 H 0.92991 0.66693 0.15117 0.0
H463 H 0.85299 0.53736 0.10119 0.0
H464 H 0.7709 0.56902 0.13841 0.0
H465 H 0.81788 0.54822 0.14264 0.0
H466 H 0.89466 0.69107 0.11988 0.0
H467 H 0.84821 0.71164 0.1157 0.0
C468 C 0.94999 0.62575 0.12713 0.0
C469 C 0.94222 0.5854 0.10753 0.0
C470 C 0.92299 0.63472 0.13701 0.0
C471 C 0.88768 0.60372 0.12723 0.0
C472 C 0.87977 0.56176 0.10954 0.0
C473 C 0.90673 0.55266 0.09986 0.0
C474 C 0.79792 0.59611 0.13487 0.0
C475 C 0.8057 0.64189 0.12645 0.0
C476 C 0.82482 0.5842 0.13729 0.0
C477 C 0.86003 0.61784 0.13131 0.0
C478 C 0.86799 0.66437 0.12513 0.0
C479 C 0.84119 0.67623 0.12273 0.0
H480 H 0.98244 0.8311 0.38855 0.0
H481 H 0.98411 0.8619 0.28613 0.0
H482 H 1.0454 0.85465 0.38744 0.0
H483 H 1.04745 0.88653 0.28522 0.0
H484 H 0.17338 0.9685 0.30202 0.0
H485 H 0.11013 0.9456 0.30216 0.0
H486 H 0.09117 0.83564 0.36908 0.0
H487 H 0.15378 0.85754 0.36813 0.0
C488 C 0.9959 0.84305 0.3656 0.0
C489 C 0.97641 0.84384 0.33745 0.0
C490 C 1.03277 0.8566 0.3649 0.0
C491 C 1.05329 0.87321 0.33623 0.0
C492 C 1.03394 0.87462 0.30815 0.0
C493 C 0.99679 0.85987 0.30863 0.0
C494 C 0.15597 0.93939 0.31688 0.0
C495 C 0.17028 0.91547 0.33508 0.0
C496 C 0.11896 0.92579 0.31685 0.0
C497 C 0.09382 0.88816 0.33571 0.0
C498 C 0.1084 0.8649 0.35425 0.0
C499 C 0.14508 0.87766 0.35361 0.0
H500 H 0.14441 0.29863 0.42379 0.0
H501 H 0.18573 0.31639 0.32593 0.0
H502 H 0.15325 0.22983 0.42999 0.0
H503 H 0.19375 0.24784 0.33164 0.0
H504 H 0.2009 0.12304 0.33906 0.0
H505 H 0.16295 0.15917 0.34109 0.0
H506 H 0.21531 0.23359 0.43198 0.0
H507 H 0.2529 0.1966 0.43008 0.0
C508 C 0.15428 0.28679 0.40332 0.0
C509 C 0.16479 0.31258 0.37451 0.0
C510 C 0.15933 0.24771 0.40687 0.0
C511 C 0.17397 0.23357 0.38125 0.0
C512 C 0.18189 0.25753 0.35159 0.0
C513 C 0.17765 0.29697 0.34839 0.0
C514 C 0.20326 0.1458 0.36003 0.0
C515 C 0.22995 0.15807 0.38411 0.0
C516 C 0.18156 0.1662 0.36127 0.0
C517 C 0.18665 0.19953 0.38641 0.0
C518 C 0.21075 0.20771 0.41247 0.0
C519 C 0.2324 0.18698 0.4113 0.0
H520 H 0.90316 0.20109 0.32662 0.0
H521 H 0.97613 0.15138 0.35207 0.0
H522 H 0.85492 0.11985 0.32348 0.0
H523 H 0.92789 0.07012 0.34839 0.0
H524 H 0.83559 0.92662 0.31361 0.0
H525 H 0.8838 1.00763 0.30935 0.0
H526 H 0.82418 0.05891 0.36477 0.0
H527 H 0.77609 0.97844 0.36887 0.0
C528 C 0.90895 0.17288 0.33151 0.0
C529 C 0.94351 0.18287 0.33989 0.0
C530 C 0.88131 0.12634 0.32962 0.0
C531 C 0.88759 0.08864 0.33587 0.0
C532 C 0.9223 0.0984 0.34309 0.0
C533 C 0.94994 0.145 0.34517 0.0
C534 C 0.83266 0.95525 0.32459 0.0
C535 C 0.80202 0.94607 0.3416 0.0
C536 C 0.86034 1.00157 0.32232 0.0
C537 C 0.85775 1.03961 0.3367 0.0
C538 C 0.8268 1.03042 0.35309 0.0
C539 C 0.79933 0.98422 0.35562 0.0
H540 H 0.338 0.72161 0.23861 0.0
H541 H 0.24097 0.70005 0.19429 0.0
H542 H 0.30911 0.63993 0.25492 0.0
H543 H 0.21094 0.62088 0.21252 0.0
H544 H 0.15316 0.52295 0.29102 0.0
H545 H 0.18592 0.55914 0.24294 0.0
H546 H 0.28165 0.63193 0.30345 0.0
H547 H 0.24886 0.59256 0.35109 0.0
C548 C 0.31079 0.69872 0.23071 0.0
C549 C 0.28962 0.71831 0.22106 0.0
C550 C 0.29384 0.65212 0.24104 0.0
C551 C 0.25659 0.62641 0.23986 0.0
C552 C 0.2391 0.64087 0.2173 0.0
C553 C 0.25671 0.68688 0.20626 0.0
C554 C 0.18126 0.54682 0.29413 0.0
C555 C 0.19844 0.55438 0.32502 0.0
C556 C 0.2003 0.56755 0.26622 0.0
C557 C 0.23702 0.5979 0.26841 0.0
C558 C 0.25383 0.60711 0.29982 0.0
C559 C 0.23484 0.5855 0.32764 0.0
H560 H 0.44292 0.53707 0.40596 0.0
H561 H 0.44474 0.61349 0.32014 0.0
H562 H 0.50609 0.56689 0.40219 0.0
H563 H 0.50836 0.64529 0.31739 0.0
H564 H 0.62445 0.68465 0.30611 0.0
H565 H 0.55968 0.64199 0.30584 0.0
H566 H 0.56281 0.62733 0.41079 0.0
H567 H 0.62703 0.6688 0.4105 0.0
C568 C 0.45638 0.56004 0.38604 0.0
C569 C 0.4372 0.57212 0.36344 0.0
C570 C 0.49348 0.57806 0.38411 0.0
C571 C 0.51386 0.6094 0.3595 0.0
C572 C 0.49465 0.62114 0.33667 0.0
C573 C 0.4575 0.60308 0.33859 0.0
C574 C 0.61138 0.67006 0.32886 0.0
C575 C 0.63193 0.67878 0.35808 0.0
C576 C 0.5737 0.64649 0.32897 0.0
C577 C 0.55455 0.6307 0.3584 0.0
C578 C 0.5753 0.63758 0.38728 0.0
C579 C 0.61278 0.66117 0.38711 0.0
H580 H 0.41473 1.00192 0.32214 0.0
H581 H 0.36058 0.88838 0.3883 0.0
H582 H 0.46603 0.98872 0.32417 0.0
H583 H 0.41126 0.87591 0.3911 0.0
H584 H 0.49061 0.82674 0.36779 0.0
H585 H 0.44224 0.84432 0.36544 0.0
H586 H 0.5161 0.99079 0.34999 0.0
H587 H 0.56467 0.97297 0.35209 0.0
C588 C 0.41391 0.97488 0.33774 0.0
C589 C 0.383 0.94654 0.35515 0.0
C590 C 0.44352 0.96697 0.33886 0.0
C591 C 0.44348 0.9304 0.35744 0.0
C592 C 0.41286 0.90347 0.37562 0.0
C593 C 0.3835 0.91115 0.37435 0.0
C594 C 0.49694 0.86293 0.3642 0.0
C595 C 0.53244 0.89809 0.36034 0.0
C596 C 0.46875 0.87327 0.36289 0.0
C597 C 0.47435 0.91948 0.35784 0.0
C598 C 0.50983 0.95463 0.35359 0.0
C599 C 0.5381 0.94422 0.35481 0.0
H600 H 0.71433 0.30036 0.59195 0.0
H601 H 0.75581 0.32855 0.69209 0.0
H602 H 0.65511 0.26607 0.61227 0.0
H603 H 0.69688 0.29875 0.71226 0.0
H604 H 0.61095 0.14114 0.72297 0.0
H605 H 0.66257 0.21676 0.71365 0.0
H606 H 0.60353 0.2459 0.64 0.0
H607 H 0.55255 0.16859 0.64835 0.0
C608 C 0.71098 0.30119 0.61828 0.0
C609 C 0.73961 0.31384 0.6403 0.0
C610 C 0.67684 0.28207 0.63006 0.0
C611 C 0.67115 0.27674 0.66409 0.0
C612 C 0.70038 0.29989 0.68589 0.0
C613 C 0.73444 0.31768 0.67414 0.0
C614 C 0.60912 0.16406 0.70505 0.0
C615 C 0.57855 0.14871 0.68551 0.0
C616 C 0.63846 0.2079 0.70001 0.0
C617 C 0.63749 0.23754 0.67565 0.0
C618 C 0.60558 0.22359 0.65827 0.0
C619 C 0.57651 0.1793 0.66287 0.0
H620 H 0.88887 0.41675 0.64274 0.0
H621 H 0.96242 0.4798 0.72453 0.0
H622 H 0.87224 0.47823 0.6477 0.0
H623 H 0.94678 0.54357 0.72853 0.0
H624 H 0.93223 0.67812 0.70701 0.0
H625 H 0.94828 0.61532 0.70551 0.0
H626 H 0.84137 0.51417 0.67683 0.0
H627 H 0.82506 0.57711 0.67928 0.0
C628 C 0.90177 0.44348 0.66212 0.0
C629 C 0.92724 0.44106 0.68331 0.0
C630 C 0.89194 0.47971 0.66496 0.0
C631 C 0.90747 0.51764 0.68869 0.0
C632 C 0.93362 0.51611 0.70961 0.0
C633 C 0.94286 0.47883 0.7073 0.0
C634 C 0.91169 0.64255 0.70055 0.0
C635 C 0.87686 0.63441 0.69339 0.0
C636 C 0.92113 0.6057 0.69979 0.0
C637 C 0.89669 0.55784 0.69093 0.0
C638 C 0.8618 0.54966 0.6836 0.0
C639 C 0.85213 0.58643 0.68517 0.0
H640 H 0.67864 0.42698 0.67861 0.0
H641 H 0.59889 0.46907 0.66711 0.0
H642 H 0.63228 0.34416 0.67978 0.0
H643 H 0.55316 0.38708 0.66785 0.0
H644 H 0.47813 0.23751 0.63741 0.0
H645 H 0.52879 0.3159 0.63432 0.0
H646 H 0.58204 0.28423 0.71172 0.0
H647 H 0.53073 0.20442 0.71451 0.0
C648 C 0.65136 0.41893 0.67644 0.0
C649 C 0.64299 0.45557 0.67235 0.0
C650 C 0.62466 0.37113 0.67711 0.0
C651 C 0.58868 0.3583 0.67354 0.0
C652 C 0.58042 0.39497 0.66986 0.0
C653 C 0.60694 0.44247 0.66933 0.0
C654 C 0.50075 0.24678 0.65358 0.0
C655 C 0.50002 0.21434 0.67633 0.0
C656 C 0.52987 0.29222 0.65199 0.0
C657 C 0.55951 0.3074 0.67327 0.0
C658 C 0.55976 0.27416 0.69496 0.0
C659 C 0.53034 0.22821 0.69651 0.0
H660 H 0.90213 0.9265 0.72773 0.0
H661 H 0.82038 0.8865 0.6534 0.0
H662 H 0.91874 1.00881 0.72282 0.0
H663 H 0.8374 0.97053 0.64809 0.0
H664 H 0.8629 0.12968 0.65361 0.0
H665 H 0.84474 1.04597 0.65763 0.0
H666 H 0.94501 0.08338 0.70422 0.0
H667 H 0.96282 0.16737 0.70046 0.0
C668 C 0.88716 0.93463 0.71011 0.0
C669 C 0.85915 0.89691 0.69131 0.0
C670 C 0.89728 0.98355 0.70701 0.0
C671 C 0.88041 0.99976 0.6847 0.0
C672 C 0.85187 0.96202 0.66598 0.0
C673 C 0.84167 0.91249 0.66908 0.0
C674 C 0.88152 0.12068 0.66474 0.0
C675 C 0.91494 0.15791 0.67652 0.0
C676 C 0.87083 0.07126 0.66701 0.0
C677 C 0.89256 1.05457 0.68149 0.0
C678 C 0.9262 0.09201 0.69317 0.0
C679 C 0.93696 0.14161 0.69077 0.0
H680 H 0.10863 0.88068 0.66668 0.0
H681 H 0.1133 0.88557 0.77295 0.0
H682 H 0.17257 0.91356 0.66574 0.0
H683 H 0.17718 0.91865 0.77196 0.0
H684 H 0.29076 1.03792 0.75623 0.0
H685 H 0.22691 0.99317 0.75872 0.0
H686 H 0.22394 0.90287 0.67742 0.0
H687 H 0.28854 0.94864 0.67461 0.0
C688 C 0.1231 0.88788 0.68989 0.0
C689 C 0.10549 0.88067 0.71992 0.0
C690 C 0.15994 0.90683 0.68932 0.0
C691 C 0.18033 0.91926 0.71876 0.0
C692 C 0.16257 0.91044 0.74876 0.0
C693 C 0.12579 0.89145 0.74933 0.0
C694 C 0.27669 1.00813 0.73909 0.0
C695 C 0.29501 0.99695 0.71523 0.0
C696 C 0.23987 0.98218 0.74065 0.0
C697 C 0.21996 0.94421 0.7183 0.0
C698 C 0.23829 0.93211 0.69489 0.0
C699 C 0.27539 0.95801 0.69349 0.0
H700 H 0.2798 0.28558 0.76543 0.0
H701 H 0.20759 0.14461 0.72763 0.0
H702 H 0.23037 0.29853 0.77716 0.0
H703 H 0.15778 0.15668 0.74105 0.0
H704 H 0.08795 0.22651 0.7224 0.0
H705 H 0.13215 0.20124 0.71947 0.0
H706 H 0.18052 0.27911 0.81055 0.0
H707 H 0.13641 0.30522 0.81307 0.0
C708 C 0.25331 0.25719 0.75981 0.0
C709 C 0.24771 0.21431 0.7451 0.0
C710 C 0.22487 0.26434 0.76708 0.0
C711 C 0.19001 0.22867 0.76005 0.0
C712 C 0.18431 0.18511 0.74643 0.0
C713 C 0.21284 0.17802 0.73901 0.0
C714 C 0.10743 0.23723 0.74229 0.0
C715 C 0.10879 0.26805 0.76791 0.0
C716 C 0.13285 0.2227 0.74061 0.0
C717 C 0.16016 0.23848 0.7646 0.0
C718 C 0.16028 0.26709 0.79129 0.0
C719 C 0.13495 0.28189 0.79284 0.0
H720 H 0.21908 0.47747 0.25388 0.0
H721 H 0.10785 0.40382 0.27444 0.0
H722 H 0.20465 0.49216 0.19797 0.0
H723 H 0.09393 0.41939 0.21995 0.0
H724 H 0.07939 0.49313 0.13223 0.0
H725 H 0.10077 0.4882 0.18749 0.0
H726 H 0.17227 0.44652 0.14429 0.0
H727 H 0.15073 0.45115 0.08939 0.0
C728 C 0.19168 0.464 0.24655 0.0
C729 C 0.16478 0.43897 0.26895 0.0
C730 C 0.18335 0.47258 0.21451 0.0
C731 C 0.14802 0.45758 0.2044 0.0
C732 C 0.12141 0.43234 0.2268 0.0
C733 C 0.12955 0.42285 0.25818 0.0
C734 C 0.1001 0.48378 0.13453 0.0
C735 C 0.11306 0.47215 0.10627 0.0
C736 C 0.11223 0.48055 0.16624 0.0
C737 C 0.13816 0.4665 0.17059 0.0
C738 C 0.15246 0.45754 0.14217 0.0
C739 C 0.13988 0.4599 0.11061 0.0
H740 H 0.71495 0.73455 0.24312 0.0
H741 H 0.64161 0.78574 0.2627 0.0
H742 H 0.68318 0.69672 0.19204 0.0
H743 H 0.60971 0.74769 0.21048 0.0
H744 H 0.60007 0.58757 0.1243 0.0
H745 H 0.62366 0.62748 0.17751 0.0
H746 H 0.61743 0.74875 0.14519 0.0
H747 H 0.59378 0.70842 0.09114 0.0
C748 C 0.6922 0.73829 0.23657 0.0
C749 C 0.68119 0.76365 0.25764 0.0
C750 C 0.67369 0.71606 0.20707 0.0
C751 C 0.64345 0.71844 0.19695 0.0
C752 C 0.63284 0.74498 0.2173 0.0
C753 C 0.65121 0.76685 0.24735 0.0
C754 C 0.60263 0.6222 0.12869 0.0
C755 C 0.59468 0.64435 0.10314 0.0
C756 C 0.61668 0.64546 0.15925 0.0
C757 C 0.62327 0.69192 0.16577 0.0
C758 C 0.61282 0.71304 0.14121 0.0
C759 C 0.59888 0.68967 0.11021 0.0
H760 H 0.47641 0.12017 0.12924 0.0
H761 H 0.4841 0.99299 0.13087 0.0
H762 H 0.4322 0.09067 0.17127 0.0
H763 H 0.43791 0.96146 0.17226 0.0
H764 H 0.36442 0.92607 0.26308 0.0
H765 H 0.41231 0.95408 0.2236 0.0
H766 H 0.37514 1.04381 0.18236 0.0
H767 H 0.32902 1.01759 0.22259 0.0
C768 C 0.46891 0.08583 0.13892 0.0
C769 C 0.48465 0.05964 0.12667 0.0
C770 C 0.44265 0.06814 0.16289 0.0
C771 C 0.42982 1.0225 0.17538 0.0
C772 C 0.44652 0.99671 0.16389 0.0
C773 C 0.47346 1.01497 0.14008 0.0
C774 C 0.36624 0.95139 0.24529 0.0
C775 C 0.34231 0.96922 0.24635 0.0
C776 C 0.39405 0.96778 0.22242 0.0
C777 C 0.39899 1.00249 0.1994 0.0
C778 C 0.37393 1.0186 0.19988 0.0
C779 C 0.34666 1.00282 0.22293 0.0
H780 H 0.544 0.18021 0.9538 0.0
H781 H 0.54174 1.05516 0.91258 0.0
H782 H 0.51713 0.18837 0.90254 0.0
H783 H 0.51607 0.06374 0.86143 0.0
H784 H 0.42166 1.04247 0.80092 0.0
H785 H 0.45744 1.04839 0.84864 0.0
H786 H 0.51614 0.19977 0.84109 0.0
H787 H 0.47947 0.19376 0.79237 0.0
C788 C 0.53943 0.15578 0.93329 0.0
C789 C 0.54556 0.11729 0.93735 0.0
C790 C 0.52358 0.16014 0.90388 0.0
C791 C 0.51336 0.12603 0.8778 0.0
C792 C 0.52247 0.09008 0.88105 0.0
C793 C 0.53795 0.0856 0.91029 0.0
C794 C 0.44204 0.07731 0.80921 0.0
C795 C 0.44744 0.1176 0.7923 0.0
C796 C 0.463 0.08066 0.8367 0.0
C797 C 0.49053 0.12447 0.84873 0.0
C798 C 0.49537 0.1653 0.83266 0.0
C799 C 0.47423 0.1619 0.80471 0.0
H800 H 0.98185 0.45407 0.92399 0.0
H801 H 1.03888 0.38024 0.89841 0.0
H802 H 0.94422 0.41975 0.87397 0.0
H803 H 1.00143 0.34604 0.84943 0.0
H804 H 0.90852 0.24875 0.7865 0.0
H805 H 0.93703 0.28604 0.83912 0.0
H806 H 0.94771 0.41836 0.80821 0.0
H807 H 0.9188 0.38059 0.75497 0.0
C808 C 0.98658 0.43084 0.90777 0.0
C809 C 1.01365 0.42014 0.91561 0.0
C810 C 0.96497 0.41118 0.87902 0.0
C811 C 0.96935 0.3795 0.8577 0.0
C812 C 0.99674 0.36957 0.86539 0.0
C813 C 1.01852 0.38963 0.89359 0.0
C814 C 0.91564 0.28539 0.79125 0.0
C815 C 0.91123 0.3114 0.76619 0.0
C816 C 0.93258 0.30705 0.82137 0.0
C817 C 0.9456 0.35562 0.82782 0.0
C818 C 0.93824 0.38094 0.80412 0.0
C819 C 0.92133 0.35912 0.7736 0.0
H820 H 0.82899 0.81163 0.80707 0.0
H821 H 0.79161 0.66508 0.78239 0.0
H822 H 0.78706 0.78965 0.85164 0.0
H823 H 0.74953 0.64238 0.82729 0.0
H824 H 0.65195 0.61587 0.89107 0.0
H825 H 0.69515 0.63601 0.84699 0.0
H826 H 0.76903 0.76016 0.90368 0.0
H827 H 0.72638 0.74078 0.9466 0.0
C828 C 0.81291 0.77455 0.81206 0.0
C829 C 0.81548 0.74045 0.79179 0.0
C830 C 0.78821 0.76161 0.83768 0.0
C831 C 0.76411 0.71375 0.84394 0.0
C832 C 0.76698 0.67957 0.82376 0.0
C833 C 0.79195 0.69265 0.79825 0.0
C834 C 0.67725 0.64772 0.894 0.0
C835 C 0.6849 0.67648 0.92296 0.0
C836 C 0.70249 0.65923 0.86866 0.0
C837 C 0.7364 0.70021 0.87101 0.0
C838 C 0.74357 0.72882 0.8999 0.0
C839 C 0.71868 0.71729 0.92504 0.0
H840 H 0.79042 0.88456 0.46049 0.0
H841 H 0.72706 0.73311 0.45707 0.0
H842 H 0.82204 0.88053 0.50992 0.0
H843 H 0.75704 0.72876 0.50654 0.0
H844 H 0.83636 0.71964 0.57162 0.0
H845 H 0.80895 0.73259 0.52354 0.0
H846 H 0.82735 0.86587 0.56682 0.0
H847 H 0.85643 0.85327 0.61477 0.0
C848 C 0.78231 0.85052 0.47092 0.0
C849 C 0.75568 0.8092 0.45479 0.0
C850 C 0.80074 0.84804 0.49928 0.0
C851 C 0.79316 0.80413 0.51242 0.0
C852 C 0.76504 0.76331 0.49709 0.0
C853 C 0.7471 0.76579 0.46881 0.0
C854 C 0.83544 0.75236 0.57063 0.0
C855 C 0.84915 0.78547 0.59726 0.0
C856 C 0.81891 0.75953 0.54308 0.0
C857 C 0.81451 0.79979 0.54102 0.0
C858 C 0.82987 0.83429 0.56699 0.0
C859 C 0.84693 0.82726 0.59461 0.0
H860 H 0.26105 1.00285 0.44171 0.0
H861 H 0.30617 0.91063 0.44808 0.0
H862 H 0.28196 1.03311 0.49762 0.0
H863 H 0.32654 0.94016 0.50467 0.0
H864 H 0.39954 1.04745 0.58377 0.0
H865 H 0.37164 1.01036 0.5313 0.0
H866 H 0.28038 1.02377 0.55627 0.0
H867 H 0.30886 0.06182 0.60949 0.0
C868 C 0.27477 0.9881 0.45531 0.0
C869 C 0.28186 0.95412 0.44002 0.0
C870 C 0.28676 1.00553 0.48766 0.0
C871 C 0.30657 0.98992 0.50602 0.0
C872 C 0.31203 0.95401 0.49135 0.0
C873 C 0.29983 0.93633 0.45892 0.0
C874 C 0.3735 1.04279 0.57833 0.0
C875 C 0.35669 0.05809 0.60133 0.0
C876 C 0.35721 1.02078 0.54804 0.0
C877 C 0.3233 1.01303 0.53919 0.0
C878 C 0.30654 1.02904 0.56188 0.0
C879 C 0.32292 1.05109 0.59252 0.0
H880 H 0.9791 0.28827 0.56007 0.0
H881 H 1.04138 0.42022 0.61416 0.0
H882 H 1.02487 0.31431 0.51784 0.0
H883 H 0.08637 0.44546 0.57311 0.0
H884 H 0.14344 0.5023 0.4766 0.0
H885 H 0.09957 0.47307 0.51931 0.0
H886 H 0.08624 0.33327 0.50361 0.0
H887 H 0.13067 0.36329 0.46035 0.0
C888 C 1.00219 0.32285 0.56299 0.0
C889 C 1.00584 0.35192 0.59091 0.0
C890 C 1.02886 0.33774 0.53884 0.0
C891 C 0.05994 0.38247 0.54149 0.0
C892 C 0.06309 0.41123 0.56933 0.0
C893 C 1.03691 0.39637 0.59329 0.0
C894 C 0.13227 0.46567 0.48307 0.0
C895 C 0.14213 0.43594 0.46565 0.0
C896 C 0.10655 0.44851 0.50758 0.0
C897 C 0.0887 0.40035 0.51557 0.0
C898 C 0.09888 0.37046 0.49845 0.0
C899 C 0.12515 0.38795 0.47402 0.0
loop_
_geom_bond_atom_site_label_1
_geom_bond_atom_site_label_2
_geom_bond_distance
_geom_bond_site_symmetry_2
_ccdc_geom_bond_type
Tb0 C10 2.825 . S
Tb0 O11 2.347 1_554 S
Tb0 O14 2.366 . S
Tb0 O19 2.418 . S
Tb0 O20 2.384 1_655 S
Tb0 O23 2.479 . S
Tb0 O24 2.471 1_554 S
Eu1 O12 2.386 1_554 S
Eu1 O13 2.389 1_455 S
Eu1 O16 2.464 1_554 S
Eu1 O17 2.486 . S
Eu1 O18 2.374 . S
Eu1 O21 2.361 1_554 S
Eu1 C31 2.825 . S
C2 O18 1.259 . S
C2 O19 1.265 1_455 S
C3 O20 1.255 . S
C3 O21 1.265 1_554 S
C4 C6 1.380 . S
C4 C7 1.374 1_554 S
C4 C10 1.507 . S
C5 C6 1.384 . S
C5 C9 1.387 . S
C5 H32 0.930 . S
C6 C4 1.380 . S
C6 C5 1.384 . S
C6 H33 0.931 . S
C7 C4 1.374 1_556 S
C7 C8 1.390 . S
C7 H34 0.930 . S
C8 C7 1.390 . S
C8 C9 1.391 1_556 S
C8 H35 0.930 . S
C9 C5 1.387 . S
C9 C8 1.391 1_554 S
C10 Tb0 2.825 . S
C10 C4 1.507 . S
C10 O23 1.238 . S
C10 O24 1.247 1_554 S
O11 Tb0 2.347 1_556 S
O11 C15 1.259 . S
O12 Eu1 2.386 1_556 S
O12 C15 1.265 1_455 S
O13 Eu1 2.389 1_655 S
O13 C22 1.255 . S
O14 Tb0 2.366 . S
O14 C22 1.265 . S
C15 O11 1.259 . S
C15 O12 1.265 1_655 S
O16 Eu1 2.464 1_556 S
O16 C31 1.238 1_556 S
O17 Eu1 2.486 . S
O17 C31 1.247 . S
O18 Eu1 2.374 . S
O18 C2 1.259 . S
O19 Tb0 2.418 . S
O19 C2 1.265 1_655 S
O20 Tb0 2.384 1_455 S
O20 C3 1.255 . S
O21 Eu1 2.361 1_556 S
O21 C3 1.265 1_556 S
C22 O13 1.255 . S
C22 O14 1.265 . S
O23 Tb0 2.479 . S
O23 C10 1.238 . S
O24 Tb0 2.471 1_556 S
O24 C10 1.247 1_556 S
C25 C28 1.380 1_554 S
C25 C29 1.374 . S
C25 C31 1.507 . S
C26 C27 1.387 1_554 S
C26 C30 1.391 . S
C27 C26 1.387 1_556 S
C27 C28 1.384 . S
C27 H36 0.930 . S
C28 C25 1.380 1_556 S
C28 C27 1.384 . S
C28 H37 0.931 . S
C29 C25 1.374 . S
C29 C30 1.390 . S
C29 H38 0.930 . S
C30 C26 1.391 . S
C30 C29 1.390 . S
C30 H39 0.930 . S
C31 Eu1 2.825 . S
C31 O16 1.238 1_554 S
C31 O17 1.247 . S
C31 C25 1.507 . S
H32 C5 0.930 . S
H33 C6 0.931 . S
H34 C7 0.930 . S
H35 C8 0.930 . S
H36 C27 0.930 . S
H37 C28 0.931 . S
H38 C29 0.930 . S
H39 C30 0.930 . S
Tb40 C50 2.825 . S
Tb40 O51 2.347 1_556 S
Tb40 O54 2.366 . S
Tb40 O59 2.418 . S
Tb40 O60 2.384 . S
Tb40 O63 2.479 . S
Tb40 O64 2.471 1_556 S
Eu41 O52 2.418 . S
Eu41 O53 2.384 . S
Eu41 O56 2.479 . S
Eu41 O57 2.471 1_554 S
Eu41 O58 2.347 1_554 S
Eu41 O61 2.366 . S
Eu41 C71 2.825 . S
C42 O58 1.259 . S
C42 O59 1.265 . S
C43 O60 1.255 1_554 S
C43 O61 1.265 . S
C44 C46 1.380 . S
C44 C47 1.374 1_556 S
C44 C50 1.507 . S
C45 C46 1.384 . S
C45 C49 1.387 . S
C45 H72 0.930 . S
C46 C44 1.380 . S
C46 C45 1.384 . S
C46 H73 0.931 . S
C47 C44 1.374 1_554 S
C47 C48 1.390 . S
C47 H74 0.930 . S
C48 C47 1.390 . S
C48 C49 1.391 1_554 S
C48 H75 0.930 . S
C49 C45 1.387 . S
C49 C48 1.391 1_556 S
C50 Tb40 2.825 . S
C50 C44 1.507 . S
C50 O63 1.238 . S
C50 O64 1.247 1_556 S
O51 Tb40 2.347 1_554 S
O51 C55 1.259 . S
O52 Eu41 2.418 . S
O52 C55 1.265 . S
O53 Eu41 2.384 . S
O53 C62 1.255 1_554 S
O54 Tb40 2.366 . S
O54 C62 1.265 . S
C55 O51 1.259 . S
C55 O52 1.265 . S
O56 Eu41 2.479 . S
O56 C71 1.238 . S
O57 Eu41 2.471 1_556 S
O57 C71 1.247 1_556 S
O58 Eu41 2.347 1_556 S
O58 C42 1.259 . S
O59 Tb40 2.418 . S
O59 C42 1.265 . S
O60 Tb40 2.384 . S
O60 C43 1.255 1_556 S
O61 Eu41 2.366 . S
O61 C43 1.265 . S
C62 O53 1.255 1_556 S
C62 O54 1.265 . S
O63 Tb40 2.479 . S
O63 C50 1.238 . S
O64 Tb40 2.471 1_554 S
O64 C50 1.247 1_554 S
C65 C68 1.380 . S
C65 C69 1.374 1_554 S
C65 C71 1.507 . S
C66 C67 1.387 . S
C66 C70 1.391 1_554 S
C67 C66 1.387 . S
C67 C68 1.384 . S
C67 H76 0.930 . S
C68 C65 1.380 . S
C68 C67 1.384 . S
C68 H77 0.931 . S
C69 C65 1.374 1_556 S
C69 C70 1.390 . S
C69 H78 0.930 . S
C70 C66 1.391 1_556 S
C70 C69 1.390 . S
C70 H79 0.930 . S
C71 Eu41 2.825 . S
C71 O56 1.238 . S
C71 O57 1.247 1_554 S
C71 C65 1.507 . S
H72 C45 0.930 . S
H73 C46 0.931 . S
H74 C47 0.930 . S
H75 C48 0.930 . S
H76 C67 0.930 . S
H77 C68 0.931 . S
H78 C69 0.930 . S
H79 C70 0.930 . S
Tb80 C90 2.825 . S
Tb80 O91 2.347 1_554 S
Tb80 O94 2.366 . S
Tb80 O99 2.418 . S
Tb80 O100 2.384 1_545 S
Tb80 O103 2.479 . S
Tb80 O104 2.471 1_554 S
Eu81 O92 2.445 . S
Eu81 O93 2.382 1_566 S
Eu81 O96 2.489 . S
Eu81 O97 2.458 1_556 S
Eu81 O98 2.325 1_556 S
Eu81 O101 2.369 . S
Eu81 C111 2.825 . S
C82 O98 1.259 . S
C82 O99 1.265 1_565 S
C83 O100 1.255 . S
C83 O101 1.265 1_554 S
C84 C86 1.380 . S
C84 C87 1.374 1_554 S
C84 C90 1.507 . S
C85 C86 1.384 . S
C85 C89 1.387 . S
C85 H112 0.930 . S
C86 C84 1.380 . S
C86 C85 1.384 . S
C86 H113 0.931 . S
C87 C84 1.374 1_556 S
C87 C88 1.390 . S
C87 H114 0.930 . S
C88 C87 1.390 . S
C88 C89 1.391 1_556 S
C88 H115 0.930 . S
C89 C85 1.387 . S
C89 C88 1.391 1_554 S
C90 Tb80 2.825 . S
C90 C84 1.507 . S
C90 O103 1.238 . S
C90 O104 1.247 1_554 S
O91 Tb80 2.347 1_556 S
O91 C95 1.259 . S
O92 Eu81 2.445 . S
O92 C95 1.265 1_565 S
O93 Eu81 2.382 1_544 S
O93 C102 1.255 . S
O94 Tb80 2.366 . S
O94 C102 1.265 . S
C95 O91 1.259 . S
C95 O92 1.265 1_545 S
O96 Eu81 2.489 . S
O96 C111 1.252 . S
O97 Eu81 2.458 1_554 S
O97 C111 1.234 1_554 S
O98 Eu81 2.325 1_554 S
O98 C82 1.259 . S
O99 Tb80 2.418 . S
O99 C82 1.265 1_545 S
O100 Tb80 2.384 1_565 S
O100 C83 1.255 . S
O101 Eu81 2.369 . S
O101 C83 1.265 1_556 S
C102 O93 1.255 . S
C102 O94 1.265 . S
O103 Tb80 2.479 . S
O103 C90 1.238 . S
O104 Tb80 2.471 1_556 S
O104 C90 1.247 1_556 S
C105 C108 1.398 . S
C105 C109 1.353 1_556 S
C105 C111 1.507 . S
C106 C107 1.375 1_554 S
C106 C110 1.402 . S
C107 C106 1.375 1_556 S
C107 C108 1.384 . S
C107 H116 0.930 . S
C108 C105 1.398 . S
C108 C107 1.384 . S
C108 H117 0.931 . S
C109 C105 1.353 1_554 S
C109 C110 1.390 . S
C109 H118 0.930 . S
C110 C106 1.402 . S
C110 C109 1.390 . S
C110 H119 0.930 . S
C111 Eu81 2.825 . S
C111 O96 1.252 . S
C111 O97 1.234 1_556 S
C111 C105 1.507 . S
H112 C85 0.930 . S
H113 C86 0.931 . S
H114 C87 0.930 . S
H115 C88 0.930 . S
H116 C107 0.930 . S
H117 C108 0.931 . S
H118 C109 0.930 . S
H119 C110 0.930 . S
Tb120 C130 2.825 . S
Tb120 O131 2.347 . S
Tb120 O134 2.366 . S
Tb120 O139 2.418 . S
Tb120 O140 2.384 . S
Tb120 O143 2.479 . S
Tb120 O144 2.471 . S
Eu121 O132 2.418 . S
Eu121 O133 2.384 . S
Eu121 O136 2.479 . S
Eu121 O137 2.471 . S
Eu121 O138 2.347 . S
Eu121 O141 2.366 . S
Eu121 C151 2.825 . S
C122 O138 1.259 . S
C122 O139 1.265 . S
C123 O140 1.255 . S
C123 O141 1.265 . S
C124 C126 1.380 . S
C124 C127 1.374 . S
C124 C130 1.507 . S
C125 C126 1.384 . S
C125 C129 1.387 . S
C125 H152 0.930 . S
C126 C124 1.380 . S
C126 C125 1.384 . S
C126 H153 0.931 . S
C127 C124 1.374 . S
C127 C128 1.390 . S
C127 H154 0.930 . S
C128 C127 1.390 . S
C128 C129 1.391 . S
C128 H155 0.930 . S
C129 C125 1.387 . S
C129 C128 1.391 . S
C130 Tb120 2.825 . S
C130 C124 1.507 . S
C130 O143 1.238 . S
C130 O144 1.247 . S
O131 Tb120 2.347 . S
O131 C135 1.259 . S
O132 Eu121 2.418 . S
O132 C135 1.265 . S
O133 Eu121 2.384 . S
O133 C142 1.255 . S
O134 Tb120 2.366 . S
O134 C142 1.265 . S
C135 O131 1.259 . S
C135 O132 1.265 . S
O136 Eu121 2.479 . S
O136 C151 1.238 . S
O137 Eu121 2.471 . S
O137 C151 1.247 . S
O138 Eu121 2.347 . S
O138 C122 1.259 . S
O139 Tb120 2.418 . S
O139 C122 1.265 . S
O140 Tb120 2.384 . S
O140 C123 1.255 . S
O141 Eu121 2.366 . S
O141 C123 1.265 . S
C142 O133 1.255 . S
C142 O134 1.265 . S
O143 Tb120 2.479 . S
O143 C130 1.238 . S
O144 Tb120 2.471 . S
O144 C130 1.247 . S
C145 C148 1.380 . S
C145 C149 1.374 . S
C145 C151 1.507 . S
C146 C147 1.387 . S
C146 C150 1.391 . S
C147 C146 1.387 . S
C147 C148 1.384 . S
C147 H156 0.930 . S
C148 C145 1.380 . S
C148 C147 1.384 . S
C148 H157 0.931 . S
C149 C145 1.374 . S
C149 C150 1.390 . S
C149 H158 0.930 . S
C150 C146 1.391 . S
C150 C149 1.390 . S
C150 H159 0.930 . S
C151 Eu121 2.825 . S
C151 O136 1.238 . S
C151 O137 1.247 . S
C151 C145 1.507 . S
H152 C125 0.930 . S
H153 C126 0.931 . S
H154 C127 0.930 . S
H155 C128 0.930 . S
H156 C147 0.930 . S
H157 C148 0.931 . S
H158 C149 0.930 . S
H159 C150 0.930 . S
Tb160 C170 2.825 . S
Tb160 O171 2.347 . S
Tb160 O174 2.366 . S
Tb160 O179 2.418 . S
Tb160 O180 2.384 . S
Tb160 O183 2.479 . S
Tb160 O184 2.471 . S
Eu161 O172 2.418 . S
Eu161 O173 2.384 . S
Eu161 O176 2.479 1_565 S
Eu161 O177 2.471 1_565 S
Eu161 O178 2.347 . S
Eu161 O181 2.366 . S
Eu161 C191 2.825 1_565 S
C162 O178 1.259 . S
C162 O179 1.265 . S
C163 O180 1.255 . S
C163 O181 1.265 . S
C164 C166 1.380 . S
C164 C167 1.374 . S
C164 C170 1.507 . S
C165 C166 1.384 . S
C165 C169 1.387 . S
C165 H192 0.930 . S
C166 C164 1.380 . S
C166 C165 1.384 . S
C166 H193 0.931 . S
C167 C164 1.374 . S
C167 C168 1.390 . S
C167 H194 0.930 . S
C168 C167 1.390 . S
C168 C169 1.391 . S
C168 H195 0.930 . S
C169 C165 1.387 . S
C169 C168 1.391 . S
C170 Tb160 2.825 . S
C170 C164 1.507 . S
C170 O183 1.238 . S
C170 O184 1.247 . S
O171 Tb160 2.347 . S
O171 C175 1.259 . S
O172 Eu161 2.418 . S
O172 C175 1.265 . S
O173 Eu161 2.384 . S
O173 C182 1.255 . S
O174 Tb160 2.366 . S
O174 C182 1.265 . S
C175 O171 1.259 . S
C175 O172 1.265 . S
O176 Eu161 2.479 1_545 S
O176 C191 1.238 . S
O177 Eu161 2.471 1_545 S
O177 C191 1.247 . S
O178 Eu161 2.347 . S
O178 C162 1.259 . S
O179 Tb160 2.418 . S
O179 C162 1.265 . S
O180 Tb160 2.384 . S
O180 C163 1.255 . S
O181 Eu161 2.366 . S
O181 C163 1.265 . S
C182 O173 1.255 . S
C182 O174 1.265 . S
O183 Tb160 2.479 . S
O183 C170 1.238 . S
O184 Tb160 2.471 . S
O184 C170 1.247 . S
C185 C188 1.380 . S
C185 C189 1.374 . S
C185 C191 1.507 . S
C186 C187 1.387 . S
C186 C190 1.391 . S
C187 C186 1.387 . S
C187 C188 1.384 . S
C187 H196 0.930 . S
C188 C185 1.380 . S
C188 C187 1.384 . S
C188 H197 0.931 . S
C189 C185 1.374 . S
C189 C190 1.390 . S
C189 H198 0.930 . S
C190 C186 1.391 . S
C190 C189 1.390 . S
C190 H199 0.930 . S
C191 Eu161 2.825 1_545 S
C191 O176 1.238 . S
C191 O177 1.247 . S
C191 C185 1.507 . S
H192 C165 0.930 . S
H193 C166 0.931 . S
H194 C167 0.930 . S
H195 C168 0.930 . S
H196 C187 0.930 . S
H197 C188 0.931 . S
H198 C189 0.930 . S
H199 C190 0.930 . S
Tb200 C210 2.825 . S
Tb200 O211 2.347 . S
Tb200 O214 2.366 . S
Tb200 O219 2.418 . S
Tb200 O220 2.384 . S
Tb200 O223 2.479 . S
Tb200 O224 2.471 . S
Eu201 O212 2.418 . S
Eu201 O213 2.384 . S
Eu201 O216 2.479 . S
Eu201 O217 2.471 . S
Eu201 O218 2.347 . S
Eu201 O221 2.366 . S
Eu201 C231 2.825 . S
C202 O218 1.259 . S
C202 O219 1.265 . S
C203 O220 1.255 . S
C203 O221 1.265 . S
C204 C206 1.380 . S
C204 C207 1.374 . S
C204 C210 1.507 . S
C205 C206 1.384 . S
C205 C209 1.387 . S
C205 H232 0.930 . S
C206 C204 1.380 . S
C206 C205 1.384 . S
C206 H233 0.931 . S
C207 C204 1.374 . S
C207 C208 1.390 . S
C207 H234 0.930 . S
C208 C207 1.390 . S
C208 C209 1.391 . S
C208 H235 0.930 . S
C209 C205 1.387 . S
C209 C208 1.391 . S
C210 Tb200 2.825 . S
C210 C204 1.507 . S
C210 O223 1.238 . S
C210 O224 1.247 . S
O211 Tb200 2.347 . S
O211 C215 1.259 . S
O212 Eu201 2.418 . S
O212 C215 1.265 . S
O213 Eu201 2.384 . S
O213 C222 1.255 . S
O214 Tb200 2.366 . S
O214 C222 1.265 . S
C215 O211 1.259 . S
C215 O212 1.265 . S
O216 Eu201 2.479 . S
O216 C231 1.238 . S
O217 Eu201 2.471 . S
O217 C231 1.247 . S
O218 Eu201 2.347 . S
O218 C202 1.259 . S
O219 Tb200 2.418 . S
O219 C202 1.265 . S
O220 Tb200 2.384 . S
O220 C203 1.255 . S
O221 Eu201 2.366 . S
O221 C203 1.265 . S
C222 O213 1.255 . S
C222 O214 1.265 . S
O223 Tb200 2.479 . S
O223 C210 1.238 . S
O224 Tb200 2.471 . S
O224 C210 1.247 . S
C225 C228 1.380 . S
C225 C229 1.374 . S
C225 C231 1.507 1_655 S
C226 C227 1.387 . S
C226 C230 1.391 . S
C227 C226 1.387 . S
C227 C228 1.384 . S
C227 H236 0.930 . S
C228 C225 1.380 . S
C228 C227 1.384 . S
C228 H237 0.931 . S
C229 C225 1.374 . S
C229 C230 1.390 . S
C229 H238 0.940 . S
C230 C226 1.391 . S
C230 C229 1.390 . S
C230 H239 0.930 . S
C231 Eu201 2.825 . S
C231 O216 1.238 . S
C231 O217 1.247 . S
C231 C225 1.507 1_455 S
H232 C205 0.930 . S
H233 C206 0.931 . S
H234 C207 0.930 . S
H235 C208 0.930 . S
H236 C227 0.930 . S
H237 C228 0.931 . S
H238 C229 0.940 . S
H239 C230 0.930 . S
Tb240 C250 2.825 . S
Tb240 O251 2.347 . S
Tb240 O254 2.366 . S
Tb240 O259 2.418 . S
Tb240 O260 2.384 . S
Tb240 O263 2.479 . S
Tb240 O264 2.471 . S
Eu241 O252 2.418 . S
Eu241 O253 2.384 . S
Eu241 O256 2.479 . S
Eu241 O257 2.471 . S
Eu241 O258 2.347 . S
Eu241 O261 2.366 . S
Eu241 C271 2.825 . S
C242 O258 1.259 . S
C242 O259 1.265 . S
C243 O260 1.255 . S
C243 O261 1.265 . S
C244 C246 1.380 . S
C244 C247 1.374 . S
C244 C250 1.507 . S
C245 C246 1.384 . S
C245 C249 1.387 . S
C245 H272 0.930 . S
C246 C244 1.380 . S
C246 C245 1.384 . S
C246 H273 0.931 . S
C247 C244 1.374 . S
C247 C248 1.390 . S
C247 H274 0.930 . S
C248 C247 1.390 . S
C248 C249 1.391 . S
C248 H275 0.930 . S
C249 C245 1.387 . S
C249 C248 1.391 . S
C250 Tb240 2.825 . S
C250 C244 1.507 . S
C250 O263 1.238 . S
C250 O264 1.247 . S
O251 Tb240 2.347 . S
O251 C255 1.259 . S
O252 Eu241 2.418 . S
O252 C255 1.265 . S
O253 Eu241 2.384 . S
O253 C262 1.255 . S
O254 Tb240 2.366 . S
O254 C262 1.265 . S
C255 O251 1.259 . S
C255 O252 1.265 . S
O256 Eu241 2.479 . S
O256 C271 1.238 . S
O257 Eu241 2.471 . S
O257 C271 1.247 . S
O258 Eu241 2.347 . S
O258 C242 1.259 . S
O259 Tb240 2.418 . S
O259 C242 1.265 . S
O260 Tb240 2.384 . S
O260 C243 1.255 . S
O261 Eu241 2.366 . S
O261 C243 1.265 . S
C262 O253 1.255 . S
C262 O254 1.265 . S
O263 Tb240 2.479 . S
O263 C250 1.238 . S
O264 Tb240 2.471 . S
O264 C250 1.247 . S
C265 C268 1.380 . S
C265 C269 1.374 . S
C265 C271 1.507 . S
C266 C267 1.387 . S
C266 C270 1.391 . S
C267 C266 1.387 . S
C267 C268 1.384 . S
C267 H276 0.930 . S
C268 C265 1.380 . S
C268 C267 1.384 . S
C268 H277 0.931 . S
C269 C265 1.374 . S
C269 C270 1.390 . S
C269 H278 0.930 . S
C270 C266 1.391 . S
C270 C269 1.390 . S
C270 H279 0.930 . S
C271 Eu241 2.825 . S
C271 O256 1.238 . S
C271 O257 1.247 . S
C271 C265 1.507 . S
H272 C245 0.930 . S
H273 C246 0.931 . S
H274 C247 0.930 . S
H275 C248 0.930 . S
H276 C267 0.930 . S
H277 C268 0.931 . S
H278 C269 0.930 . S
H279 C270 0.930 . S
Tb280 C290 2.825 . S
Tb280 O291 2.347 . S
Tb280 O294 2.366 . S
Tb280 O299 2.418 . S
Tb280 O300 2.384 . S
Tb280 O303 2.479 . S
Tb280 O304 2.471 . S
Eu281 O292 2.418 . S
Eu281 O293 2.384 . S
Eu281 O296 2.479 . S
Eu281 O297 2.471 . S
Eu281 O298 2.347 . S
Eu281 O301 2.366 . S
Eu281 C311 2.825 . S
C282 O298 1.259 . S
C282 O299 1.265 . S
C283 O300 1.255 . S
C283 O301 1.265 . S
C284 C286 1.380 . S
C284 C287 1.374 . S
C284 C290 1.507 . S
C285 C286 1.384 . S
C285 C289 1.387 . S
C285 H312 0.930 . S
C286 C284 1.380 . S
C286 C285 1.384 . S
C286 H313 0.931 . S
C287 C284 1.374 . S
C287 C288 1.390 . S
C287 H314 0.930 . S
C288 C287 1.390 . S
C288 C289 1.391 . S
C288 H315 0.930 . S
C289 C285 1.387 . S
C289 C288 1.391 . S
C290 Tb280 2.825 . S
C290 C284 1.507 . S
C290 O303 1.238 . S
C290 O304 1.247 . S
O291 Tb280 2.347 . S
O291 C295 1.259 . S
O292 Eu281 2.418 . S
O292 C295 1.265 . S
O293 Eu281 2.384 . S
O293 C302 1.255 . S
O294 Tb280 2.366 . S
O294 C302 1.265 . S
C295 O291 1.259 . S
C295 O292 1.265 . S
O296 Eu281 2.479 . S
O296 C311 1.238 . S
O297 Eu281 2.471 . S
O297 C311 1.247 . S
O298 Eu281 2.347 . S
O298 C282 1.259 . S
O299 Tb280 2.418 . S
O299 C282 1.265 . S
O300 Tb280 2.384 . S
O300 C283 1.255 . S
O301 Eu281 2.366 . S
O301 C283 1.265 . S
C302 O293 1.255 . S
C302 O294 1.265 . S
O303 Tb280 2.479 . S
O303 C290 1.238 . S
O304 Tb280 2.471 . S
O304 C290 1.247 . S
C305 C308 1.380 . S
C305 C309 1.374 . S
C305 C311 1.507 1_455 S
C306 C307 1.387 . S
C306 C310 1.391 . S
C307 C306 1.387 . S
C307 C308 1.384 . S
C307 H316 0.930 . S
C308 C305 1.380 . S
C308 C307 1.384 . S
C308 H317 0.931 . S
C309 C305 1.374 . S
C309 C310 1.390 . S
C309 H318 0.930 . S
C310 C306 1.391 . S
C310 C309 1.390 . S
C310 H319 0.930 . S
C311 Eu281 2.825 . S
C311 O296 1.238 . S
C311 O297 1.247 . S
C311 C305 1.507 1_655 S
H312 C285 0.930 . S
H313 C286 0.931 . S
H314 C287 0.930 . S
H315 C288 0.930 . S
H316 C307 0.930 . S
H317 C308 0.931 . S
H318 C309 0.930 . S
H319 C310 0.930 . S
Tb320 C330 2.825 . S
Tb320 O331 2.347 . S
Tb320 O334 2.366 . S
Tb320 O339 2.418 . S
Tb320 O340 2.384 . S
Tb320 O343 2.479 . S
Tb320 O344 2.471 . S
Eu321 O332 2.418 . S
Eu321 O333 2.384 . S
Eu321 O336 2.479 . S
Eu321 O337 2.471 . S
Eu321 O338 2.347 . S
Eu321 O341 2.366 . S
Eu321 C351 2.825 . S
C322 O338 1.259 . S
C322 O339 1.265 . S
C323 O340 1.255 . S
C323 O341 1.265 . S
C324 C326 1.380 . S
C324 C327 1.374 . S
C324 C330 1.507 . S
C325 C326 1.384 . S
C325 C329 1.387 . S
C325 H352 0.930 1_655 S
C326 C324 1.380 . S
C326 C325 1.384 . S
C326 H353 0.931 . S
C327 C324 1.374 . S
C327 C328 1.390 . S
C327 H354 0.930 . S
C328 C327 1.390 . S
C328 C329 1.391 . S
C328 H355 0.930 . S
C329 C325 1.387 . S
C329 C328 1.391 . S
C330 Tb320 2.825 . S
C330 C324 1.507 . S
C330 O343 1.238 . S
C330 O344 1.247 . S
O331 Tb320 2.347 . S
O331 C335 1.259 . S
O332 Eu321 2.418 . S
O332 C335 1.265 . S
O333 Eu321 2.384 . S
O333 C342 1.255 . S
O334 Tb320 2.366 . S
O334 C342 1.265 . S
C335 O331 1.259 . S
C335 O332 1.265 . S
O336 Eu321 2.479 . S
O336 C351 1.238 . S
O337 Eu321 2.471 . S
O337 C351 1.247 . S
O338 Eu321 2.347 . S
O338 C322 1.259 . S
O339 Tb320 2.418 . S
O339 C322 1.265 . S
O340 Tb320 2.384 . S
O340 C323 1.255 . S
O341 Eu321 2.366 . S
O341 C323 1.265 . S
C342 O333 1.255 . S
C342 O334 1.265 . S
O343 Tb320 2.479 . S
O343 C330 1.238 . S
O344 Tb320 2.471 . S
O344 C330 1.247 . S
C345 C348 1.380 . S
C345 C349 1.374 . S
C345 C351 1.507 . S
C346 C347 1.387 . S
C346 C350 1.391 . S
C347 C346 1.387 . S
C347 C348 1.384 . S
C347 H356 0.930 . S
C348 C345 1.380 . S
C348 C347 1.384 . S
C348 H357 0.931 . S
C349 C345 1.374 . S
C349 C350 1.390 . S
C349 H358 0.930 . S
C350 C346 1.391 . S
C350 C349 1.390 . S
C350 H359 0.930 . S
C351 Eu321 2.825 . S
C351 O336 1.238 . S
C351 O337 1.247 . S
C351 C345 1.507 . S
H352 C325 0.930 1_455 S
H353 C326 0.931 . S
H354 C327 0.930 . S
H355 C328 0.930 . S
H356 C347 0.930 . S
H357 C348 0.931 . S
H358 C349 0.930 . S
H359 C350 0.930 . S
H360 C368 0.950 . S
H361 C373 0.950 . S
H362 C370 0.950 . S
H363 C372 0.950 . S
H364 C374 0.950 . S
H365 C376 0.950 . S
H366 C378 0.950 . S
H367 C379 0.950 . S
C368 H360 0.950 . S
C368 C369 1.386 . S
C368 C370 1.391 . S
C369 C368 1.386 . S
C369 C373 1.393 1_556 S
C370 H362 0.950 . S
C370 C368 1.391 . S
C370 C371 1.400 . S
C371 C370 1.400 . S
C371 C372 1.398 1_556 S
C371 C377 1.488 1_556 S
C372 H363 0.950 . S
C372 C371 1.398 1_554 S
C372 C373 1.391 . S
C373 H361 0.950 . S
C373 C369 1.393 1_554 S
C373 C372 1.391 . S
C374 H364 0.950 . S
C374 C375 1.386 . S
C374 C376 1.391 . S
C375 C374 1.386 . S
C375 C379 1.393 1_554 S
C376 H365 0.950 . S
C376 C374 1.391 . S
C376 C377 1.414 . S
C377 C371 1.488 1_554 S
C377 C376 1.414 . S
C377 C378 1.388 1_554 S
C378 H366 0.950 . S
C378 C377 1.388 1_556 S
C378 C379 1.391 . S
C379 H367 0.950 . S
C379 C375 1.393 1_556 S
C379 C378 1.391 . S
H380 C388 0.950 . S
H381 C393 0.950 . S
H382 C390 0.950 . S
H383 C392 0.950 . S
H384 C394 0.950 . S
H385 C396 0.950 . S
H386 C398 0.950 . S
H387 C399 0.950 . S
C388 H380 0.950 . S
C388 C389 1.386 . S
C388 C390 1.391 . S
C389 C388 1.386 . S
C389 C393 1.393 1_556 S
C390 H382 0.950 . S
C390 C388 1.391 . S
C390 C391 1.400 . S
C391 C390 1.400 . S
C391 C392 1.398 1_556 S
C391 C397 1.491 . S
C392 H383 0.950 . S
C392 C391 1.398 1_554 S
C392 C393 1.391 . S
C393 H381 0.950 . S
C393 C389 1.393 1_554 S
C393 C392 1.391 . S
C394 H384 0.950 . S
C394 C395 1.386 1_554 S
C394 C396 1.391 . S
C395 C394 1.386 1_556 S
C395 C399 1.393 . S
C396 H385 0.950 . S
C396 C394 1.391 . S
C396 C397 1.400 1_554 S
C397 C391 1.491 . S
C397 C396 1.400 1_556 S
C397 C398 1.398 . S
C398 H386 0.950 . S
C398 C397 1.398 . S
C398 C399 1.391 . S
C399 H387 0.950 . S
C399 C395 1.393 . S
C399 C398 1.391 . S
H400 C408 0.950 . S
H401 C413 0.950 . S
H402 C410 0.950 . S
H403 C412 0.950 . S
H404 C414 0.950 . S
H405 C416 0.950 . S
H406 C418 0.950 . S
H407 C419 0.950 . S
C408 H400 0.950 . S
C408 C409 1.386 1_556 S
C408 C410 1.391 . S
C409 C408 1.386 1_554 S
C409 C413 1.393 . S
C410 H402 0.950 . S
C410 C408 1.391 . S
C410 C411 1.400 1_556 S
C411 C410 1.400 1_554 S
C411 C412 1.398 . S
C411 C417 1.491 . S
C412 H403 0.950 . S
C412 C411 1.398 . S
C412 C413 1.391 . S
C413 H401 0.950 . S
C413 C409 1.393 . S
C413 C412 1.391 . S
C414 H404 0.950 . S
C414 C415 1.386 . S
C414 C416 1.391 . S
C415 C414 1.386 . S
C415 C419 1.393 1_554 S
C416 H405 0.950 . S
C416 C414 1.391 . S
C416 C417 1.400 . S
C417 C411 1.491 . S
C417 C416 1.400 . S
C417 C418 1.398 1_554 S
C418 H406 0.950 . S
C418 C417 1.398 1_556 S
C418 C419 1.391 . S
C419 H407 0.950 . S
C419 C415 1.393 1_556 S
C419 C418 1.391 . S
H420 C428 0.950 1_556 S
H421 C433 0.950 . S
H422 C430 0.950 1_556 S
H423 C432 0.950 . S
H424 C434 0.950 . S
H425 C436 0.950 . S
H426 C438 0.950 1_556 S
H427 C439 0.937 1_556 S
C428 H420 0.950 1_554 S
C428 C429 1.386 . S
C428 C430 1.391 . S
C429 C428 1.386 . S
C429 C433 1.393 . S
C430 H422 0.950 1_554 S
C430 C428 1.391 . S
C430 C431 1.400 . S
C431 C430 1.400 . S
C431 C432 1.398 . S
C431 C437 1.491 . S
C432 H423 0.950 . S
C432 C431 1.398 . S
C432 C433 1.391 . S
C433 H421 0.950 . S
C433 C429 1.393 . S
C433 C432 1.391 . S
C434 H424 0.950 . S
C434 C435 1.386 . S
C434 C436 1.391 . S
C435 C434 1.386 . S
C435 C439 1.403 . S
C436 H425 0.950 . S
C436 C434 1.391 . S
C436 C437 1.400 . S
C437 C431 1.491 . S
C437 C436 1.400 . S
C437 C438 1.398 . S
C438 H426 0.950 1_554 S
C438 C437 1.398 . S
C438 C439 1.394 . S
C439 H427 0.937 1_554 S
C439 C435 1.403 . S
C439 C438 1.394 . S
H440 C448 0.950 1_556 S
H441 C453 0.950 . S
H442 C450 0.950 1_556 S
H443 C452 0.950 . S
H444 C454 0.950 . S
H445 C456 0.950 . S
H446 C458 0.950 1_556 S
H447 C459 0.950 1_556 S
C448 H440 0.950 1_554 S
C448 C449 1.386 . S
C448 C450 1.391 . S
C449 C448 1.386 . S
C449 C453 1.393 . S
C450 H442 0.950 1_554 S
C450 C448 1.391 . S
C450 C451 1.400 . S
C451 C450 1.400 . S
C451 C452 1.398 . S
C451 C457 1.491 . S
C452 H443 0.950 . S
C452 C451 1.398 . S
C452 C453 1.391 . S
C453 H441 0.950 . S
C453 C449 1.393 . S
C453 C452 1.391 . S
C454 H444 0.950 . S
C454 C455 1.386 . S
C454 C456 1.391 . S
C455 C454 1.386 . S
C455 C459 1.393 . S
C456 H445 0.950 . S
C456 C454 1.391 . S
C456 C457 1.400 . S
C457 C451 1.491 . S
C457 C456 1.400 . S
C457 C458 1.398 . S
C458 H446 0.950 1_554 S
C458 C457 1.398 . S
C458 C459 1.391 . S
C459 H447 0.950 1_554 S
C459 C455 1.393 . S
C459 C458 1.391 . S
H460 C468 0.950 . S
H461 C473 0.950 . S
H462 C470 0.950 . S
H463 C472 0.950 . S
H464 C474 0.950 . S
H465 C476 0.950 . S
H466 C478 0.950 . S
H467 C479 0.950 . S
C468 H460 0.950 . S
C468 C469 1.386 . S
C468 C470 1.391 . S
C469 C468 1.386 . S
C469 C473 1.393 1_554 S
C470 H462 0.950 . S
C470 C468 1.391 . S
C470 C471 1.400 . S
C471 C470 1.400 . S
C471 C472 1.398 1_554 S
C471 C477 1.491 . S
C472 H463 0.950 . S
C472 C471 1.398 1_556 S
C472 C473 1.391 . S
C473 H461 0.950 . S
C473 C469 1.393 1_556 S
C473 C472 1.391 . S
C474 H464 0.950 . S
C474 C475 1.386 1_556 S
C474 C476 1.391 . S
C475 C474 1.386 1_554 S
C475 C479 1.393 . S
C476 H465 0.950 . S
C476 C474 1.391 . S
C476 C477 1.400 1_556 S
C477 C471 1.491 . S
C477 C476 1.400 1_554 S
C477 C478 1.398 . S
C478 H466 0.950 . S
C478 C477 1.398 . S
C478 C479 1.391 . S
C479 H467 0.950 . S
C479 C475 1.393 . S
C479 C478 1.391 . S
H480 C488 0.950 . S
H481 C493 0.950 . S
H482 C490 0.950 . S
H483 C492 0.950 . S
H484 C494 0.950 . S
H485 C496 0.950 . S
H486 C498 0.950 . S
H487 C499 0.950 . S
C488 H480 0.950 . S
C488 C489 1.386 . S
C488 C490 1.391 . S
C489 C488 1.386 . S
C489 C493 1.393 . S
C490 H482 0.950 . S
C490 C488 1.391 . S
C490 C491 1.400 . S
C491 C490 1.400 . S
C491 C492 1.398 . S
C491 C497 1.491 1_655 S
C492 H483 0.950 . S
C492 C491 1.398 . S
C492 C493 1.391 . S
C493 H481 0.950 . S
C493 C489 1.393 . S
C493 C492 1.391 . S
C494 H484 0.950 . S
C494 C495 1.386 . S
C494 C496 1.391 . S
C495 C494 1.386 . S
C495 C499 1.393 . S
C496 H485 0.950 . S
C496 C494 1.391 . S
C496 C497 1.400 . S
C497 C491 1.491 1_455 S
C497 C496 1.400 . S
C497 C498 1.398 . S
C498 H486 0.950 . S
C498 C497 1.398 . S
C498 C499 1.391 . S
C499 H487 0.950 . S
C499 C495 1.393 . S
C499 C498 1.391 . S
H500 C508 0.950 . S
H501 C513 0.950 . S
H502 C510 0.950 . S
H503 C512 0.950 . S
H504 C514 0.950 . S
H505 C516 0.950 . S
H506 C518 0.950 . S
H507 C519 0.950 . S
C508 H500 0.950 . S
C508 C509 1.386 . S
C508 C510 1.391 . S
C509 C508 1.386 . S
C509 C513 1.393 . S
C510 H502 0.950 . S
C510 C508 1.391 . S
C510 C511 1.400 . S
C511 C510 1.400 . S
C511 C512 1.398 . S
C511 C517 1.491 . S
C512 H503 0.950 . S
C512 C511 1.398 . S
C512 C513 1.391 . S
C513 H501 0.950 . S
C513 C509 1.393 . S
C513 C512 1.391 . S
C514 H504 0.950 . S
C514 C515 1.386 . S
C514 C516 1.391 . S
C515 C514 1.386 . S
C515 C519 1.393 . S
C516 H505 0.950 . S
C516 C514 1.391 . S
C516 C517 1.400 . S
C517 C511 1.491 . S
C517 C516 1.400 . S
C517 C518 1.398 . S
C518 H506 0.950 . S
C518 C517 1.398 . S
C518 C519 1.391 . S
C519 H507 0.950 . S
C519 C515 1.393 . S
C519 C518 1.391 . S
H520 C528 0.950 . S
H521 C533 0.950 . S
H522 C530 0.950 . S
H523 C532 0.950 1_565 S
H524 C534 0.950 . S
H525 C536 0.950 . S
H526 C538 0.950 . S
H527 C539 0.950 . S
C528 H520 0.950 . S
C528 C529 1.386 . S
C528 C530 1.391 . S
C529 C528 1.386 . S
C529 C533 1.393 . S
C530 H522 0.950 . S
C530 C528 1.391 . S
C530 C531 1.400 1_545 S
C531 C530 1.400 1_565 S
C531 C532 1.398 1_565 S
C531 C537 1.491 . S
C532 H523 0.950 1_545 S
C532 C531 1.398 1_545 S
C532 C533 1.391 . S
C533 H521 0.950 . S
C533 C529 1.393 . S
C533 C532 1.391 . S
C534 H524 0.950 . S
C534 C535 1.386 . S
C534 C536 1.391 . S
C535 C534 1.386 . S
C535 C539 1.393 . S
C536 H525 0.950 . S
C536 C534 1.391 . S
C536 C537 1.400 . S
C537 C531 1.491 . S
C537 C536 1.400 . S
C537 C538 1.398 . S
C538 H526 0.950 . S
C538 C537 1.398 . S
C538 C539 1.391 . S
C539 H527 0.950 . S
C539 C535 1.393 . S
C539 C538 1.391 . S
H540 C548 0.950 . S
H541 C553 0.950 . S
H542 C550 0.950 . S
H543 C552 0.950 . S
H544 C554 0.950 . S
H545 C556 0.950 . S
H546 C558 0.950 . S
H547 C559 0.950 . S
C548 H540 0.950 . S
C548 C549 1.386 . S
C548 C550 1.391 . S
C549 C548 1.386 . S
C549 C553 1.393 . S
C550 H542 0.950 . S
C550 C548 1.391 . S
C550 C551 1.400 . S
C551 C550 1.400 . S
C551 C552 1.398 . S
C551 C557 1.491 . S
C552 H543 0.950 . S
C552 C551 1.398 . S
C552 C553 1.391 . S
C553 H541 0.950 . S
C553 C549 1.393 . S
C553 C552 1.391 . S
C554 H544 0.950 . S
C554 C555 1.386 . S
C554 C556 1.391 . S
C555 C554 1.386 . S
C555 C559 1.393 . S
C556 H545 0.950 . S
C556 C554 1.391 . S
C556 C557 1.400 . S
C557 C551 1.491 . S
C557 C556 1.400 . S
C557 C558 1.398 . S
C558 H546 0.950 . S
C558 C557 1.398 . S
C558 C559 1.391 . S
C559 H547 0.950 . S
C559 C555 1.393 . S
C559 C558 1.391 . S
H560 C568 0.950 . S
H561 C573 0.950 . S
H562 C570 0.950 . S
H563 C572 0.950 . S
H564 C574 0.950 . S
H565 C576 0.950 . S
H566 C578 0.950 . S
H567 C579 0.950 . S
C568 H560 0.950 . S
C568 C569 1.386 . S
C568 C570 1.391 . S
C569 C568 1.386 . S
C569 C573 1.393 . S
C570 H562 0.950 . S
C570 C568 1.391 . S
C570 C571 1.400 . S
C571 C570 1.400 . S
C571 C572 1.398 . S
C571 C577 1.491 . S
C572 H563 0.950 . S
C572 C571 1.398 . S
C572 C573 1.391 . S
C573 H561 0.950 . S
C573 C569 1.393 . S
C573 C572 1.391 . S
C574 H564 0.950 . S
C574 C575 1.386 . S
C574 C576 1.391 . S
C575 C574 1.386 . S
C575 C579 1.393 . S
C576 H565 0.950 . S
C576 C574 1.391 . S
C576 C577 1.400 . S
C577 C571 1.491 . S
C577 C576 1.400 . S
C577 C578 1.398 . S
C578 H566 0.950 . S
C578 C577 1.398 . S
C578 C579 1.391 . S
C579 H567 0.950 . S
C579 C575 1.393 . S
C579 C578 1.391 . S
H580 C588 0.950 . S
H581 C593 0.950 . S
H582 C590 0.950 . S
H583 C592 0.950 . S
H584 C594 0.950 . S
H585 C596 0.950 . S
H586 C598 0.950 . S
H587 C599 0.950 . S
C588 H580 0.950 . S
C588 C589 1.386 . S
C588 C590 1.391 . S
C589 C588 1.386 . S
C589 C593 1.393 . S
C590 H582 0.950 . S
C590 C588 1.391 . S
C590 C591 1.400 . S
C591 C590 1.400 . S
C591 C592 1.398 . S
C591 C597 1.491 . S
C592 H583 0.950 . S
C592 C591 1.398 . S
C592 C593 1.391 . S
C593 H581 0.950 . S
C593 C589 1.393 . S
C593 C592 1.391 . S
C594 H584 0.950 . S
C594 C595 1.386 . S
C594 C596 1.391 . S
C595 C594 1.386 . S
C595 C599 1.393 . S
C596 H585 0.950 . S
C596 C594 1.391 . S
C596 C597 1.400 . S
C597 C591 1.491 . S
C597 C596 1.400 . S
C597 C598 1.398 . S
C598 H586 0.950 . S
C598 C597 1.398 . S
C598 C599 1.391 . S
C599 H587 0.950 . S
C599 C595 1.393 . S
C599 C598 1.391 . S
H600 C608 0.950 . S
H601 C613 0.950 . S
H602 C610 0.950 . S
H603 C612 0.950 . S
H604 C614 0.950 . S
H605 C616 0.950 . S
H606 C618 0.950 . S
H607 C619 0.950 . S
C608 H600 0.950 . S
C608 C609 1.386 . S
C608 C610 1.391 . S
C609 C608 1.386 . S
C609 C613 1.393 . S
C610 H602 0.950 . S
C610 C608 1.391 . S
C610 C611 1.400 . S
C611 C610 1.400 . S
C611 C612 1.398 . S
C611 C617 1.491 . S
C612 H603 0.950 . S
C612 C611 1.398 . S
C612 C613 1.391 . S
C613 H601 0.950 . S
C613 C609 1.393 . S
C613 C612 1.391 . S
C614 H604 0.950 . S
C614 C615 1.386 . S
C614 C616 1.391 . S
C615 C614 1.386 . S
C615 C619 1.393 . S
C616 H605 0.950 . S
C616 C614 1.391 . S
C616 C617 1.400 . S
C617 C611 1.491 . S
C617 C616 1.400 . S
C617 C618 1.398 . S
C618 H606 0.950 . S
C618 C617 1.398 . S
C618 C619 1.391 . S
C619 H607 0.950 . S
C619 C615 1.393 . S
C619 C618 1.391 . S
H620 C628 0.950 . S
H621 C633 0.950 . S
H622 C630 0.950 . S
H623 C632 0.950 . S
H624 C634 0.950 . S
H625 C636 0.950 . S
H626 C638 0.950 . S
H627 C639 0.950 . S
C628 H620 0.950 . S
C628 C629 1.386 . S
C628 C630 1.391 . S
C629 C628 1.386 . S
C629 C633 1.393 . S
C630 H622 0.950 . S
C630 C628 1.391 . S
C630 C631 1.400 . S
C631 C630 1.400 . S
C631 C632 1.398 . S
C631 C637 1.491 . S
C632 H623 0.950 . S
C632 C631 1.398 . S
C632 C633 1.391 . S
C633 H621 0.950 . S
C633 C629 1.393 . S
C633 C632 1.391 . S
C634 H624 0.950 . S
C634 C635 1.386 . S
C634 C636 1.391 . S
C635 C634 1.386 . S
C635 C639 1.393 . S
C636 H625 0.950 . S
C636 C634 1.391 . S
C636 C637 1.400 . S
C637 C631 1.491 . S
C637 C636 1.400 . S
C637 C638 1.398 . S
C638 H626 0.950 . S
C638 C637 1.398 . S
C638 C639 1.391 . S
C639 H627 0.950 . S
C639 C635 1.393 . S
C639 C638 1.391 . S
H640 C648 0.950 . S
H641 C653 0.950 . S
H642 C650 0.950 . S
H643 C652 0.950 . S
H644 C654 0.950 . S
H645 C656 0.950 . S
H646 C658 0.950 . S
H647 C659 0.950 . S
C648 H640 0.950 . S
C648 C649 1.386 . S
C648 C650 1.391 . S
C649 C648 1.386 . S
C649 C653 1.393 . S
C650 H642 0.950 . S
C650 C648 1.391 . S
C650 C651 1.400 . S
C651 C650 1.400 . S
C651 C652 1.398 . S
C651 C657 1.491 . S
C652 H643 0.950 . S
C652 C651 1.398 . S
C652 C653 1.391 . S
C653 H641 0.950 . S
C653 C649 1.393 . S
C653 C652 1.391 . S
C654 H644 0.950 . S
C654 C655 1.386 . S
C654 C656 1.391 . S
C655 C654 1.386 . S
C655 C659 1.393 . S
C656 H645 0.950 . S
C656 C654 1.391 . S
C656 C657 1.400 . S
C657 C651 1.491 . S
C657 C656 1.400 . S
C657 C658 1.398 . S
C658 H646 0.950 . S
C658 C657 1.398 . S
C658 C659 1.391 . S
C659 H647 0.950 . S
C659 C655 1.393 . S
C659 C658 1.391 . S
H660 C668 0.950 . S
H661 C673 0.950 . S
H662 C670 0.950 . S
H663 C672 0.950 . S
H664 C674 0.950 . S
H665 C676 0.950 . S
H666 C678 0.950 . S
H667 C679 0.950 . S
C668 H660 0.950 . S
C668 C669 1.386 . S
C668 C670 1.391 . S
C669 C668 1.386 . S
C669 C673 1.393 . S
C670 H662 0.950 . S
C670 C668 1.391 . S
C670 C671 1.400 . S
C671 C670 1.400 . S
C671 C672 1.398 . S
C671 C677 1.491 . S
C672 H663 0.950 . S
C672 C671 1.398 . S
C672 C673 1.391 . S
C673 H661 0.950 . S
C673 C669 1.393 . S
C673 C672 1.391 . S
C674 H664 0.950 . S
C674 C675 1.386 . S
C674 C676 1.391 1_545 S
C675 C674 1.386 . S
C675 C679 1.393 . S
C676 H665 0.950 . S
C676 C674 1.391 1_565 S
C676 C677 1.400 . S
C677 C671 1.491 . S
C677 C676 1.400 . S
C677 C678 1.398 1_565 S
C678 H666 0.950 . S
C678 C677 1.398 1_545 S
C678 C679 1.391 . S
C679 H667 0.950 . S
C679 C675 1.393 . S
C679 C678 1.391 . S
H680 C688 0.950 . S
H681 C693 0.950 . S
H682 C690 0.950 1_545 S
H683 C692 0.950 . S
H684 C694 0.950 . S
H685 C696 0.950 . S
H686 C698 0.950 . S
H687 C699 0.950 . S
C688 H680 0.950 . S
C688 C689 1.386 . S
C688 C690 1.391 . S
C689 C688 1.386 . S
C689 C693 1.393 . S
C690 H682 0.950 1_565 S
C690 C688 1.391 . S
C690 C691 1.400 . S
C691 C690 1.400 . S
C691 C692 1.398 . S
C691 C697 1.491 . S
C692 H683 0.950 . S
C692 C691 1.398 . S
C692 C693 1.391 . S
C693 H681 0.950 . S
C693 C689 1.393 . S
C693 C692 1.391 . S
C694 H684 0.950 . S
C694 C695 1.386 1_565 S
C694 C696 1.391 . S
C695 C694 1.386 1_545 S
C695 C699 1.393 . S
C696 H685 0.950 . S
C696 C694 1.391 . S
C696 C697 1.400 . S
C697 C691 1.491 . S
C697 C696 1.400 . S
C697 C698 1.398 1_565 S
C698 H686 0.950 . S
C698 C697 1.398 1_545 S
C698 C699 1.391 . S
C699 H687 0.950 . S
C699 C695 1.393 . S
C699 C698 1.391 . S
H700 C708 0.950 . S
H701 C713 0.950 . S
H702 C710 0.950 . S
H703 C712 0.950 . S
H704 C714 0.950 . S
H705 C716 0.950 . S
H706 C718 0.950 . S
H707 C719 0.950 . S
C708 H700 0.950 . S
C708 C709 1.386 . S
C708 C710 1.391 . S
C709 C708 1.386 . S
C709 C713 1.393 . S
C710 H702 0.950 . S
C710 C708 1.391 . S
C710 C711 1.400 . S
C711 C710 1.400 . S
C711 C712 1.398 . S
C711 C717 1.491 . S
C712 H703 0.950 . S
C712 C711 1.398 . S
C712 C713 1.391 . S
C713 H701 0.950 . S
C713 C709 1.393 . S
C713 C712 1.391 . S
C714 H704 0.950 . S
C714 C715 1.386 . S
C714 C716 1.391 . S
C715 C714 1.386 . S
C715 C719 1.393 . S
C716 H705 0.950 . S
C716 C714 1.391 . S
C716 C717 1.400 . S
C717 C711 1.491 . S
C717 C716 1.400 . S
C717 C718 1.398 . S
C718 H706 0.950 . S
C718 C717 1.398 . S
C718 C719 1.391 . S
C719 H707 0.950 . S
C719 C715 1.393 . S
C719 C718 1.391 . S
H720 C728 0.950 . S
H721 C733 0.950 . S
H722 C730 0.950 . S
H723 C732 0.950 . S
H724 C734 0.950 . S
H725 C736 0.950 . S
H726 C738 0.950 . S
H727 C739 0.950 . S
C728 H720 0.950 . S
C728 C729 1.386 . S
C728 C730 1.391 . S
C729 C728 1.386 . S
C729 C733 1.393 . S
C730 H722 0.950 . S
C730 C728 1.391 . S
C730 C731 1.400 . S
C731 C730 1.400 . S
C731 C732 1.398 . S
C731 C737 1.491 . S
C732 H723 0.950 . S
C732 C731 1.398 . S
C732 C733 1.391 . S
C733 H721 0.950 . S
C733 C729 1.393 . S
C733 C732 1.391 . S
C734 H724 0.950 . S
C734 C735 1.386 . S
C734 C736 1.391 . S
C735 C734 1.386 . S
C735 C739 1.393 . S
C736 H725 0.950 . S
C736 C734 1.391 . S
C736 C737 1.400 . S
C737 C731 1.491 . S
C737 C736 1.400 . S
C737 C738 1.398 . S
C738 H726 0.950 . S
C738 C737 1.398 . S
C738 C739 1.391 . S
C739 H727 0.950 . S
C739 C735 1.393 . S
C739 C738 1.391 . S
H740 C748 0.950 . S
H741 C753 0.950 . S
H742 C750 0.950 . S
H743 C752 0.950 . S
H744 C754 0.950 . S
H745 C756 0.950 . S
H746 C758 0.950 . S
H747 C759 0.950 . S
C748 H740 0.950 . S
C748 C749 1.386 . S
C748 C750 1.391 . S
C749 C748 1.386 . S
C749 C753 1.393 . S
C750 H742 0.950 . S
C750 C748 1.391 . S
C750 C751 1.400 . S
C751 C750 1.400 . S
C751 C752 1.398 . S
C751 C757 1.491 . S
C752 H743 0.950 . S
C752 C751 1.398 . S
C752 C753 1.391 . S
C753 H741 0.950 . S
C753 C749 1.393 . S
C753 C752 1.391 . S
C754 H744 0.950 . S
C754 C755 1.386 . S
C754 C756 1.391 . S
C755 C754 1.386 . S
C755 C759 1.393 . S
C756 H745 0.950 . S
C756 C754 1.391 . S
C756 C757 1.400 . S
C757 C751 1.491 . S
C757 C756 1.400 . S
C757 C758 1.398 . S
C758 H746 0.950 . S
C758 C757 1.398 . S
C758 C759 1.391 . S
C759 H747 0.950 . S
C759 C755 1.393 . S
C759 C758 1.391 . S
H760 C768 0.950 1_545 S
H761 C773 0.950 . S
H762 C770 0.950 . S
H763 C772 0.950 . S
H764 C774 0.950 . S
H765 C776 0.950 . S
H766 C778 0.950 . S
H767 C779 0.950 . S
C768 H760 0.950 1_565 S
C768 C769 1.386 . S
C768 C770 1.391 . S
C769 C768 1.386 . S
C769 C773 1.393 . S
C770 H762 0.950 . S
C770 C768 1.391 . S
C770 C771 1.400 . S
C771 C770 1.400 . S
C771 C772 1.398 . S
C771 C777 1.491 . S
C772 H763 0.950 . S
C772 C771 1.398 . S
C772 C773 1.391 . S
C773 H761 0.950 . S
C773 C769 1.393 . S
C773 C772 1.391 . S
C774 H764 0.950 . S
C774 C775 1.386 . S
C774 C776 1.391 . S
C775 C774 1.386 . S
C775 C779 1.393 . S
C776 H765 0.950 . S
C776 C774 1.391 . S
C776 C777 1.400 . S
C777 C771 1.491 . S
C777 C776 1.400 . S
C777 C778 1.398 . S
C778 H766 0.950 . S
C778 C777 1.398 . S
C778 C779 1.391 . S
C779 H767 0.950 . S
C779 C775 1.393 . S
C779 C778 1.391 . S
H780 C788 0.950 . S
H781 C793 0.950 1_565 S
H782 C790 0.950 . S
H783 C792 0.950 . S
H784 C794 0.950 . S
H785 C796 0.950 . S
H786 C798 0.950 . S
H787 C799 0.950 . S
C788 H780 0.950 . S
C788 C789 1.386 . S
C788 C790 1.391 . S
C789 C788 1.386 . S
C789 C793 1.393 . S
C790 H782 0.950 . S
C790 C788 1.391 . S
C790 C791 1.400 . S
C791 C790 1.400 . S
C791 C792 1.398 . S
C791 C797 1.491 . S
C792 H783 0.950 . S
C792 C791 1.398 . S
C792 C793 1.391 . S
C793 H781 0.950 1_545 S
C793 C789 1.393 . S
C793 C792 1.391 . S
C794 H784 0.950 . S
C794 C795 1.386 . S
C794 C796 1.391 . S
C795 C794 1.386 . S
C795 C799 1.393 . S
C796 H785 0.950 . S
C796 C794 1.391 . S
C796 C797 1.400 . S
C797 C791 1.491 . S
C797 C796 1.400 . S
C797 C798 1.398 . S
C798 H786 0.950 . S
C798 C797 1.398 . S
C798 C799 1.391 . S
C799 H787 0.950 . S
C799 C795 1.393 . S
C799 C798 1.391 . S
H800 C808 0.950 . S
H801 C813 0.950 1_455 S
H802 C810 0.950 . S
H803 C812 0.950 . S
H804 C814 0.950 . S
H805 C816 0.950 . S
H806 C818 0.950 . S
H807 C819 0.950 . S
C808 H800 0.950 . S
C808 C809 1.386 . S
C808 C810 1.391 . S
C809 C808 1.386 . S
C809 C813 1.393 . S
C810 H802 0.950 . S
C810 C808 1.391 . S
C810 C811 1.400 . S
C811 C810 1.400 . S
C811 C812 1.398 . S
C811 C817 1.491 . S
C812 H803 0.950 . S
C812 C811 1.398 . S
C812 C813 1.391 . S
C813 H801 0.950 1_655 S
C813 C809 1.393 . S
C813 C812 1.391 . S
C814 H804 0.950 . S
C814 C815 1.386 . S
C814 C816 1.391 . S
C815 C814 1.386 . S
C815 C819 1.393 . S
C816 H805 0.950 . S
C816 C814 1.391 . S
C816 C817 1.400 . S
C817 C811 1.491 . S
C817 C816 1.400 . S
C817 C818 1.398 . S
C818 H806 0.950 . S
C818 C817 1.398 . S
C818 C819 1.391 . S
C819 H807 0.950 . S
C819 C815 1.393 . S
C819 C818 1.391 . S
H820 C828 0.950 . S
H821 C833 0.950 . S
H822 C830 0.950 . S
H823 C832 0.950 . S
H824 C834 0.950 . S
H825 C836 0.950 . S
H826 C838 0.950 . S
H827 C839 0.950 . S
C828 H820 0.950 . S
C828 C829 1.386 . S
C828 C830 1.391 . S
C829 C828 1.386 . S
C829 C833 1.393 . S
C830 H822 0.950 . S
C830 C828 1.391 . S
C830 C831 1.400 . S
C831 C830 1.400 . S
C831 C832 1.398 . S
C831 C837 1.491 . S
C832 H823 0.950 . S
C832 C831 1.398 . S
C832 C833 1.391 . S
C833 H821 0.950 . S
C833 C829 1.393 . S
C833 C832 1.391 . S
C834 H824 0.950 . S
C834 C835 1.386 . S
C834 C836 1.391 . S
C835 C834 1.386 . S
C835 C839 1.393 . S
C836 H825 0.950 . S
C836 C834 1.391 . S
C836 C837 1.400 . S
C837 C831 1.491 . S
C837 C836 1.400 . S
C837 C838 1.398 . S
C838 H826 0.950 . S
C838 C837 1.398 . S
C838 C839 1.391 . S
C839 H827 0.950 . S
C839 C835 1.393 . S
C839 C838 1.391 . S
H840 C848 0.950 . S
H841 C853 0.950 . S
H842 C850 0.950 . S
H843 C852 0.950 . S
H844 C854 0.950 . S
H845 C856 0.950 . S
H846 C858 0.950 . S
H847 C859 0.950 . S
C848 H840 0.950 . S
C848 C849 1.386 . S
C848 C850 1.391 . S
C849 C848 1.386 . S
C849 C853 1.393 . S
C850 H842 0.950 . S
C850 C848 1.391 . S
C850 C851 1.400 . S
C851 C850 1.400 . S
C851 C852 1.398 . S
C851 C857 1.491 . S
C852 H843 0.950 . S
C852 C851 1.398 . S
C852 C853 1.391 . S
C853 H841 0.950 . S
C853 C849 1.393 . S
C853 C852 1.391 . S
C854 H844 0.950 . S
C854 C855 1.386 . S
C854 C856 1.391 . S
C855 C854 1.386 . S
C855 C859 1.393 . S
C856 H845 0.950 . S
C856 C854 1.391 . S
C856 C857 1.400 . S
C857 C851 1.491 . S
C857 C856 1.400 . S
C857 C858 1.398 . S
C858 H846 0.950 . S
C858 C857 1.398 . S
C858 C859 1.391 . S
C859 H847 0.950 . S
C859 C855 1.393 . S
C859 C858 1.391 . S
H860 C868 0.950 . S
H861 C873 0.950 . S
H862 C870 0.950 . S
H863 C872 0.950 . S
H864 C874 0.950 . S
H865 C876 0.950 . S
H866 C878 0.950 . S
H867 C879 0.950 . S
C868 H860 0.950 . S
C868 C869 1.386 . S
C868 C870 1.391 . S
C869 C868 1.386 . S
C869 C873 1.393 . S
C870 H862 0.950 . S
C870 C868 1.391 . S
C870 C871 1.400 . S
C871 C870 1.400 . S
C871 C872 1.398 . S
C871 C877 1.491 1_565 S
C872 H863 0.950 . S
C872 C871 1.398 . S
C872 C873 1.391 . S
C873 H861 0.950 . S
C873 C869 1.393 . S
C873 C872 1.391 . S
C874 H864 0.950 . S
C874 C875 1.386 . S
C874 C876 1.391 . S
C875 C874 1.386 . S
C875 C879 1.393 . S
C876 H865 0.950 . S
C876 C874 1.391 . S
C876 C877 1.400 . S
C877 C871 1.491 1_545 S
C877 C876 1.400 . S
C877 C878 1.398 . S
C878 H866 0.950 . S
C878 C877 1.398 . S
C878 C879 1.391 . S
C879 H867 0.950 . S
C879 C875 1.393 . S
C879 C878 1.391 . S
H880 C888 0.950 . S
H881 C893 0.950 . S
H882 C890 0.950 . S
H883 C892 0.950 1_455 S
H884 C894 0.950 . S
H885 C896 0.950 . S
H886 C898 0.950 . S
H887 C899 0.950 . S
C888 H880 0.950 . S
C888 C889 1.386 . S
C888 C890 1.391 . S
C889 C888 1.386 . S
C889 C893 1.393 . S
C890 H882 0.950 . S
C890 C888 1.391 . S
C890 C891 1.400 . S
C891 C890 1.400 . S
C891 C892 1.398 . S
C891 C897 1.491 1_655 S
C892 H883 0.950 1_655 S
C892 C891 1.398 . S
C892 C893 1.391 . S
C893 H881 0.950 . S
C893 C889 1.393 . S
C893 C892 1.391 . S
C894 H884 0.950 . S
C894 C895 1.386 . S
C894 C896 1.391 . S
C895 C894 1.386 . S
C895 C899 1.393 . S
C896 H885 0.950 . S
C896 C894 1.391 . S
C896 C897 1.400 . S
C897 C891 1.491 1_455 S
C897 C896 1.400 . S
C897 C898 1.398 . S
C898 H886 0.950 . S
C898 C897 1.398 . S
C898 C899 1.391 . S
C899 H887 0.950 . S
C899 C895 1.393 . S
C899 C898 1.391 . S
C369 C49 0.645 . S
C375 C26 0.613 . S
C389 C83 3.353 1_556 S
C395 C62 3.414 . S
C409 C106 1.082 . S
C415 C3 1.068 . S
C429 C102 3.119 . S
C435 C43 3.095 . S
C449 C89 2.173 . S
C455 C22 2.286 . S
C469 C9 0.581 . S
C475 C66 0.318 . S
C489 C146 2.930 . S
C495 C163 2.886 . S
C509 C203 0.856 . S
C515 C186 0.862 . S
C529 C226 0.922 . S
C535 C123 0.924 . S
C549 C169 0.549 . S
C555 C222 0.454 . S
C569 C209 2.216 . S
C575 C142 2.331 . S
C589 C182 2.460 . S
C595 C129 2.426 . S
C609 C289 0.612 . S
C615 C266 0.550 . S
C629 C302 3.440 . S
C635 C323 3.386 . S
C649 C346 1.084 . S
C655 C243 1.077 . S
C669 C342 3.045 . S
C675 C283 3.018 . S
C689 C329 2.182 1_455 S
C695 C262 2.296 . S
C709 C249 0.567 . S
C715 C306 0.315 . S
C729 C215 2.287 . S
C735 C2 2.603 . S
C749 C135 1.952 . S
C755 C55 1.929 . S
C769 C82 3.035 . S
C775 C175 2.750 . S
C789 C95 2.297 . S
C795 C242 2.604 . S
C809 C15 1.872 . S
C815 C295 1.843 . S
C829 C322 2.995 . S
C835 C42 3.002 . S
C849 C122 2.673 . S
C855 C335 2.355 . S
C869 C162 2.058 . S
C875 C255 1.873 . S
C889 C282 2.908 . S
C895 C202 2.901 . S
