# Generated by pormake.
# Topology pem, (4)-cn, num edge types: 1
# Building blocks:
#     Node 0, Type 0, BuildingBlock: QUQFOY_clean_sbu_1, # of connection points: 4
#     Node 1, Type 0, BuildingBlock: QUQFOY_clean_sbu_1, # of connection points: 4
#     Node 2, Type 0, BuildingBlock: QUQFOY_clean_sbu_1, # of connection points: 4
#     Node 3, Type 0, BuildingBlock: QUQFOY_clean_sbu_1, # of connection points: 4
#     Node 4, Type 0, BuildingBlock: QUQFOY_clean_sbu_1, # of connection points: 4
#     Node 5, Type 0, BuildingBlock: QUQFOY_clean_sbu_1, # of connection points: 4
#     Node 6, Type 0, BuildingBlock: QUQFOY_clean_sbu_1, # of connection points: 4
#     Node 7, Type 0, BuildingBlock: QUQFOY_clean_sbu_1, # of connection points: 4
#     Node 8, Type 0, BuildingBlock: QUQFOY_clean_sbu_1, # of connection points: 4
#     Node 9, Type 0, BuildingBlock: QUQFOY_clean_sbu_1, # of connection points: 4
#     Node 10, Type 0, BuildingBlock: QUQFOY_clean_sbu_1, # of connection points: 4
#     Node 11, Type 0, BuildingBlock: QUQFOY_clean_sbu_1, # of connection points: 4
#     Node 12, Type 0, BuildingBlock: QUQFOY_clean_sbu_1, # of connection points: 4
#     Node 13, Type 0, BuildingBlock: QUQFOY_clean_sbu_1, # of connection points: 4
#     Node 14, Type 0, BuildingBlock: QUQFOY_clean_sbu_1, # of connection points: 4
#     Node 15, Type 0, BuildingBlock: QUQFOY_clean_sbu_1, # of connection points: 4
#     Node 16, Type 0, BuildingBlock: QUQFOY_clean_sbu_1, # of connection points: 4
#     Node 17, Type 0, BuildingBlock: QUQFOY_clean_sbu_1, # of connection points: 4
#     Node 18, Type 0, BuildingBlock: QUQFOY_clean_sbu_1, # of connection points: 4
#     Node 19, Type 0, BuildingBlock: QUQFOY_clean_sbu_1, # of connection points: 4
#     Node 20, Type 0, BuildingBlock: QUQFOY_clean_sbu_1, # of connection points: 4
#     Node 21, Type 0, BuildingBlock: QUQFOY_clean_sbu_1, # of connection points: 4
#     Node 22, Type 0, BuildingBlock: QUQFOY_clean_sbu_1, # of connection points: 4
#     Node 23, Type 0, BuildingBlock: QUQFOY_clean_sbu_1, # of connection points: 4
#     Node 24, Type 0, BuildingBlock: QUQFOY_clean_sbu_1, # of connection points: 4
#     Node 25, Type 0, BuildingBlock: QUQFOY_clean_sbu_1, # of connection points: 4
#     Node 26, Type 0, BuildingBlock: QUQFOY_clean_sbu_1, # of connection points: 4
#     Node 27, Type 0, BuildingBlock: QUQFOY_clean_sbu_1, # of connection points: 4
#     Node 28, Type 0, BuildingBlock: QUQFOY_clean_sbu_1, # of connection points: 4
#     Node 29, Type 0, BuildingBlock: QUQFOY_clean_sbu_1, # of connection points: 4
#     Node 30, Type 0, BuildingBlock: QUQFOY_clean_sbu_1, # of connection points: 4
#     Node 31, Type 0, BuildingBlock: QUQFOY_clean_sbu_1, # of connection points: 4
#     Edge 32, Type (0, 0), BuildingBlock: EZIPEK_clean_linker_0, # of connection points: 2
#     Edge 33, Type (0, 0), BuildingBlock: EZIPEK_clean_linker_0, # of connection points: 2
#     Edge 34, Type (0, 0), BuildingBlock: EZIPEK_clean_linker_0, # of connection points: 2
#     Edge 35, Type (0, 0), BuildingBlock: EZIPEK_clean_linker_0, # of connection points: 2
#     Edge 36, Type (0, 0), BuildingBlock: EZIPEK_clean_linker_0, # of connection points: 2
#     Edge 37, Type (0, 0), BuildingBlock: EZIPEK_clean_linker_0, # of connection points: 2
#     Edge 38, Type (0, 0), BuildingBlock: EZIPEK_clean_linker_0, # of connection points: 2
#     Edge 39, Type (0, 0), BuildingBlock: EZIPEK_clean_linker_0, # of connection points: 2
#     Edge 40, Type (0, 0), BuildingBlock: EZIPEK_clean_linker_0, # of connection points: 2
#     Edge 41, Type (0, 0), BuildingBlock: EZIPEK_clean_linker_0, # of connection points: 2
#     Edge 42, Type (0, 0), BuildingBlock: EZIPEK_clean_linker_0, # of connection points: 2
#     Edge 43, Type (0, 0), BuildingBlock: EZIPEK_clean_linker_0, # of connection points: 2
#     Edge 44, Type (0, 0), BuildingBlock: EZIPEK_clean_linker_0, # of connection points: 2
#     Edge 45, Type (0, 0), BuildingBlock: EZIPEK_clean_linker_0, # of connection points: 2
#     Edge 46, Type (0, 0), BuildingBlock: EZIPEK_clean_linker_0, # of connection points: 2
#     Edge 47, Type (0, 0), BuildingBlock: EZIPEK_clean_linker_0, # of connection points: 2
#     Edge 48, Type (0, 0), BuildingBlock: EZIPEK_clean_linker_0, # of connection points: 2
#     Edge 49, Type (0, 0), BuildingBlock: EZIPEK_clean_linker_0, # of connection points: 2
#     Edge 50, Type (0, 0), BuildingBlock: EZIPEK_clean_linker_0, # of connection points: 2
#     Edge 51, Type (0, 0), BuildingBlock: EZIPEK_clean_linker_0, # of connection points: 2
#     Edge 52, Type (0, 0), BuildingBlock: EZIPEK_clean_linker_0, # of connection points: 2
#     Edge 53, Type (0, 0), BuildingBlock: EZIPEK_clean_linker_0, # of connection points: 2
#     Edge 54, Type (0, 0), BuildingBlock: EZIPEK_clean_linker_0, # of connection points: 2
#     Edge 55, Type (0, 0), BuildingBlock: EZIPEK_clean_linker_0, # of connection points: 2
#     Edge 56, Type (0, 0), BuildingBlock: EZIPEK_clean_linker_0, # of connection points: 2
#     Edge 57, Type (0, 0), BuildingBlock: EZIPEK_clean_linker_0, # of connection points: 2
#     Edge 58, Type (0, 0), BuildingBlock: EZIPEK_clean_linker_0, # of connection points: 2
#     Edge 59, Type (0, 0), BuildingBlock: EZIPEK_clean_linker_0, # of connection points: 2
#     Edge 60, Type (0, 0), BuildingBlock: EZIPEK_clean_linker_0, # of connection points: 2
#     Edge 61, Type (0, 0), BuildingBlock: EZIPEK_clean_linker_0, # of connection points: 2
#     Edge 62, Type (0, 0), BuildingBlock: EZIPEK_clean_linker_0, # of connection points: 2
#     Edge 63, Type (0, 0), BuildingBlock: EZIPEK_clean_linker_0, # of connection points: 2
#     Edge 64, Type (0, 0), BuildingBlock: EZIPEK_clean_linker_0, # of connection points: 2
#     Edge 65, Type (0, 0), BuildingBlock: EZIPEK_clean_linker_0, # of connection points: 2
#     Edge 66, Type (0, 0), BuildingBlock: EZIPEK_clean_linker_0, # of connection points: 2
#     Edge 67, Type (0, 0), BuildingBlock: EZIPEK_clean_linker_0, # of connection points: 2
#     Edge 68, Type (0, 0), BuildingBlock: EZIPEK_clean_linker_0, # of connection points: 2
#     Edge 69, Type (0, 0), BuildingBlock: EZIPEK_clean_linker_0, # of connection points: 2
#     Edge 70, Type (0, 0), BuildingBlock: EZIPEK_clean_linker_0, # of connection points: 2
#     Edge 71, Type (0, 0), BuildingBlock: EZIPEK_clean_linker_0, # of connection points: 2
#     Edge 72, Type (0, 0), BuildingBlock: EZIPEK_clean_linker_0, # of connection points: 2
#     Edge 73, Type (0, 0), BuildingBlock: EZIPEK_clean_linker_0, # of connection points: 2
#     Edge 74, Type (0, 0), BuildingBlock: EZIPEK_clean_linker_0, # of connection points: 2
#     Edge 75, Type (0, 0), BuildingBlock: EZIPEK_clean_linker_0, # of connection points: 2
#     Edge 76, Type (0, 0), BuildingBlock: EZIPEK_clean_linker_0, # of connection points: 2
#     Edge 77, Type (0, 0), BuildingBlock: EZIPEK_clean_linker_0, # of connection points: 2
#     Edge 78, Type (0, 0), BuildingBlock: EZIPEK_clean_linker_0, # of connection points: 2
#     Edge 79, Type (0, 0), BuildingBlock: EZIPEK_clean_linker_0, # of connection points: 2
#     Edge 80, Type (0, 0), BuildingBlock: EZIPEK_clean_linker_0, # of connection points: 2
#     Edge 81, Type (0, 0), BuildingBlock: EZIPEK_clean_linker_0, # of connection points: 2
#     Edge 82, Type (0, 0), BuildingBlock: EZIPEK_clean_linker_0, # of connection points: 2
#     Edge 83, Type (0, 0), BuildingBlock: EZIPEK_clean_linker_0, # of connection points: 2
#     Edge 84, Type (0, 0), BuildingBlock: EZIPEK_clean_linker_0, # of connection points: 2
#     Edge 85, Type (0, 0), BuildingBlock: EZIPEK_clean_linker_0, # of connection points: 2
#     Edge 86, Type (0, 0), BuildingBlock: EZIPEK_clean_linker_0, # of connection points: 2
#     Edge 87, Type (0, 0), BuildingBlock: EZIPEK_clean_linker_0, # of connection points: 2
#     Edge 88, Type (0, 0), BuildingBlock: EZIPEK_clean_linker_0, # of connection points: 2
#     Edge 89, Type (0, 0), BuildingBlock: EZIPEK_clean_linker_0, # of connection points: 2
#     Edge 90, Type (0, 0), BuildingBlock: EZIPEK_clean_linker_0, # of connection points: 2
#     Edge 91, Type (0, 0), BuildingBlock: EZIPEK_clean_linker_0, # of connection points: 2
#     Edge 92, Type (0, 0), BuildingBlock: EZIPEK_clean_linker_0, # of connection points: 2
#     Edge 93, Type (0, 0), BuildingBlock: EZIPEK_clean_linker_0, # of connection points: 2
#     Edge 94, Type (0, 0), BuildingBlock: EZIPEK_clean_linker_0, # of connection points: 2
#     Edge 95, Type (0, 0), BuildingBlock: EZIPEK_clean_linker_0, # of connection points: 2
# Relax obj value: 0.275
# Max RMSD: 0.271
# Mean RMSD: 0.234
data_MOF--net-pem--node1-QUQFOY_clean_sbu_1--edge1-EZIPEK_clean_linker_0
_symmetry_space_group_name_H-M    P1
_symmetry_Int_Tables_number       1
_symmetry_cell_setting            triclinic
loop_
_symmetry_equiv_pos_as_xyz
'x, y, z'
_cell_length_a     33.314165
_cell_length_b     33.274683
_cell_length_c     32.942428
_cell_angle_alpha  89.412415
_cell_angle_beta   89.301327
_cell_angle_gamma 95.632817
loop_
_atom_site_label
_atom_site_type_symbol
_atom_site_fract_x
_atom_site_fract_y
_atom_site_fract_z
_atom_type_partial_charge
O0 O 0.14397 0.00972 0.13988 0.0
Cd1 Cd 0.14312 0.04448 0.08661 0.0
Cd2 Cd 0.07092 0.06746 0.13598 0.0
O3 O 0.09462 0.03059 0.17817 0.0
O4 O 0.18852 0.0819 0.06287 0.0
O5 O 0.17765 0.01764 0.04668 0.0
C6 C 0.19611 0.05277 0.03939 0.0
C7 C 0.04683 0.13042 0.14522 0.0
C8 C 0.12317 0.00832 0.17282 0.0
C9 C 0.05674 0.03335 0.05703 0.0
O10 O 0.04124 0.03624 0.09185 0.0
O11 O 0.09407 0.04132 0.05057 0.0
O12 O 0.02785 0.0978 0.16 0.0
O13 O 0.08148 0.12801 0.12777 0.0
O14 O 0.15612 0.86402 0.30672 0.0
Cd15 Cd 0.17131 0.83151 0.3594 0.0
Cd16 Cd 0.2216 0.89574 0.35512 0.0
O17 O 0.1736 0.92218 0.33526 0.0
O18 O 0.12739 0.83037 0.4025 0.0
O19 O 0.13516 0.77924 0.36371 0.0
C20 C 0.11288 0.79623 0.38867 0.0
C21 C 0.2632 0.91313 0.4071 0.0
C22 C 0.15674 0.90245 0.30639 0.0
C23 C 0.24392 0.82165 0.32142 0.0
O24 O 0.24305 0.85875 0.31337 0.0
O25 O 0.22491 0.80654 0.35246 0.0
O26 O 0.26722 0.93334 0.37332 0.0
O27 O 0.23361 0.88528 0.41177 0.0
O28 O 0.43201 0.949 0.62167 0.0
Cd29 Cd 0.43868 0.9161 0.57069 0.0
Cd30 Cd 0.51524 0.89733 0.63527 0.0
O31 O 0.4738 0.92929 0.66899 0.0
O32 O 0.4191 0.94493 0.52361 0.0
O33 O 0.38905 0.88705 0.54958 0.0
C34 C 0.3898 0.91647 0.5235 0.0
C35 C 0.53217 0.83237 0.6447 0.0
C36 C 0.44499 0.94981 0.65781 0.0
C37 C 0.5206 0.91929 0.55598 0.0
O38 O 0.54419 0.92583 0.58542 0.0
O39 O 0.49137 0.89257 0.56156 0.0
O40 O 0.55158 0.86233 0.66316 0.0
O41 O 0.50072 0.83902 0.62407 0.0
O42 O 0.38825 0.09937 0.76246 0.0
Cd43 Cd 0.37233 0.14787 0.79413 0.0
Cd44 Cd 0.30438 0.09034 0.81678 0.0
O45 O 0.33993 0.05323 0.78346 0.0
O46 O 0.41761 0.18859 0.77897 0.0
O47 O 0.40294 0.16886 0.84236 0.0
C48 C 0.42523 0.19119 0.817 0.0
C49 C 0.27884 0.07541 0.88315 0.0
C50 C 0.37219 0.06325 0.76293 0.0
C51 C 0.28914 0.16565 0.77081 0.0
O52 O 0.27426 0.13117 0.78371 0.0
O53 O 0.32618 0.17717 0.77445 0.0
O54 O 0.26187 0.05852 0.85179 0.0
O55 O 0.31114 0.09967 0.87712 0.0
O56 O 0.11916 0.97093 0.38378 0.0
Cd57 Cd 0.11081 0.93101 0.43477 0.0
Cd58 Cd 0.03755 0.90991 0.37143 0.0
O59 O 0.07474 0.94894 0.33659 0.0
O60 O 0.16019 0.94596 0.47127 0.0
O61 O 0.13931 0.8839 0.45798 0.0
C62 C 0.1642 0.90827 0.47744 0.0
C63 C 0.02648 0.83645 0.36677 0.0
C64 C 0.10347 0.97412 0.34862 0.0
C65 C 0.02546 0.94877 0.45481 0.0
O66 O 0.01373 0.93874 0.41938 0.0
O67 O 0.06041 0.94288 0.46741 0.0
O68 O 0.05834 0.85867 0.38026 0.0
O69 O 0.00057 0.8602 0.35247 0.0
O70 O 0.37864 0.79654 0.63165 0.0
Cd71 Cd 0.32967 0.83158 0.63941 0.0
Cd72 Cd 0.38178 0.84602 0.71082 0.0
O73 O 0.42404 0.83051 0.66995 0.0
O74 O 0.29083 0.81982 0.59306 0.0
O75 O 0.31421 0.88162 0.60847 0.0
C76 C 0.28982 0.85803 0.58725 0.0
C77 C 0.39263 0.89742 0.75769 0.0
C78 C 0.41388 0.80089 0.64696 0.0
C79 C 0.30679 0.7909 0.7177 0.0
O80 O 0.34259 0.79886 0.72961 0.0
O81 O 0.29377 0.80792 0.68649 0.0
O82 O 0.41088 0.86518 0.76129 0.0
O83 O 0.36942 0.90052 0.72705 0.0
O84 O 0.37939 0.16718 0.95988 0.0
Cd85 Cd 0.43895 0.16171 0.94918 0.0
Cd86 Cd 0.4078 0.08127 0.91931 0.0
O87 O 0.35782 0.10328 0.94771 0.0
O88 O 0.46942 0.21512 0.94224 0.0
O89 O 0.46646 0.16663 0.89581 0.0
C90 C 0.48053 0.20222 0.90743 0.0
C91 C 0.39862 0.02837 0.8725 0.0
C92 C 0.35149 0.13837 0.96004 0.0
C93 C 0.48137 0.099 0.97545 0.0
O94 O 0.46251 0.07996 0.94719 0.0
O95 O 0.47042 0.13174 0.98863 0.0
O96 O 0.39395 0.02172 0.91088 0.0
O97 O 0.40678 0.06526 0.86022 0.0
O98 O 0.14249 0.24103 0.12219 0.0
Cd99 Cd 0.18985 0.20774 0.11118 0.0
Cd100 Cd 0.15329 0.16083 0.1882 0.0
O101 O 0.11545 0.20638 0.17547 0.0
O102 O 0.21843 0.22196 0.05888 0.0
O103 O 0.19157 0.16024 0.07577 0.0
C104 C 0.21537 0.18358 0.05246 0.0
C105 C 0.13171 0.10819 0.23405 0.0
C106 C 0.11573 0.23584 0.1502 0.0
C107 C 0.24228 0.19635 0.18126 0.0
O108 O 0.21385 0.17346 0.19759 0.0
O109 O 0.2364 0.21615 0.14932 0.0
O110 O 0.13801 0.14487 0.24599 0.0
O111 O 0.13467 0.10162 0.19569 0.0
O112 O 0.6574 0.46654 0.92077 0.0
Cd113 Cd 0.65643 0.42258 0.96551 0.0
Cd114 Cd 0.59135 0.38869 0.91982 0.0
O115 O 0.61445 0.43304 0.87972 0.0
O116 O 0.70743 0.43542 0.99593 0.0
O117 O 0.6905 0.37573 0.96875 0.0
C118 C 0.71519 0.3987 0.99035 0.0
C119 C 0.55766 0.3287 0.89437 0.0
C120 C 0.63779 0.46439 0.88791 0.0
C121 C 0.5745 0.42532 -0.0003 0.0
O122 O 0.56127 0.41209 0.96607 0.0
O123 O 0.61179 0.4279 0.00782 0.0
O124 O 0.54655 0.36359 0.88566 0.0
O125 O 0.58836 0.32773 0.91772 0.0
O126 O 0.91322 0.25748 0.13219 0.0
Cd127 Cd 0.86468 0.29231 0.13479 0.0
Cd128 Cd 0.89711 0.3093 0.20921 0.0
O129 O 0.94588 0.28449 0.18486 0.0
O130 O 0.83577 0.29012 0.08218 0.0
O131 O 0.86104 0.34722 0.11028 0.0
C132 C 0.83824 0.32899 0.08325 0.0
C133 C 0.89803 0.36997 0.24303 0.0
C134 C 0.94362 0.25988 0.15549 0.0
C135 C 0.81939 0.2611 0.2091 0.0
O136 O 0.85114 0.26901 0.2293 0.0
O137 O 0.81797 0.27133 0.17212 0.0
O138 O 0.91226 0.33919 0.25963 0.0
O139 O 0.88633 0.3673 0.20576 0.0
O140 O 0.88574 0.62576 0.44744 0.0
Cd141 Cd 0.92847 0.6245 0.3982 0.0
Cd142 Cd 0.88463 0.55123 0.39975 0.0
O143 O 0.83931 0.57947 0.42515 0.0
O144 O 0.96877 0.67382 0.40171 0.0
O145 O 0.92306 0.6694 0.35781 0.0
C146 C 0.94948 0.69476 0.37593 0.0
C147 C 0.88142 0.50611 0.34724 0.0
C148 C 0.84984 0.60786 0.44941 0.0
C149 C 0.9664 0.5563 0.42518 0.0
O150 O 0.93119 0.54337 0.43684 0.0
O151 O 0.9716 0.5843 0.39889 0.0
O152 O 0.86655 0.49542 0.38254 0.0
O153 O 0.8944 0.54356 0.34109 0.0
O154 O 0.8435 0.62519 0.27751 0.0
Cd155 Cd 0.81945 0.67009 0.31323 0.0
Cd156 Cd 0.77381 0.60372 0.33147 0.0
O157 O 0.81786 0.57135 0.31213 0.0
O158 O 0.85531 0.72128 0.30224 0.0
O159 O 0.84752 0.69351 0.36268 0.0
C160 C 0.86577 0.72118 0.33958 0.0
C161 C 0.74381 0.6001 0.39342 0.0
C162 C 0.84055 0.58705 0.28392 0.0
C163 C 0.73904 0.66091 0.28068 0.0
O164 O 0.73969 0.62343 0.28638 0.0
O165 O 0.76495 0.686 0.29667 0.0
O166 O 0.73561 0.57188 0.36732 0.0
O167 O 0.77188 0.62888 0.38532 0.0
O168 O 0.66917 0.41311 0.77632 0.0
Cd169 Cd 0.68266 0.36647 0.81233 0.0
Cd170 Cd 0.76593 0.43792 0.81263 0.0
O171 O 0.71806 0.46387 0.78254 0.0
O172 O 0.64135 0.34879 0.85263 0.0
O173 O 0.65286 0.31525 0.79576 0.0
C174 C 0.63193 0.31899 0.82853 0.0
C175 C 0.79415 0.45256 0.87603 0.0
C176 C 0.68354 0.44932 0.76916 0.0
C177 C 0.76155 0.35818 0.79822 0.0
O178 O 0.78542 0.38732 0.78494 0.0
O179 O 0.74 0.36521 0.82853 0.0
O180 O 0.80993 0.46979 0.84339 0.0
O181 O 0.76073 0.42971 0.87307 0.0
O182 O 0.84297 0.91415 0.92319 0.0
Cd183 Cd 0.8816 0.9524 0.88627 0.0
Cd184 Cd 0.9275 0.87883 0.90684 0.0
O185 O 0.87247 0.85763 0.93232 0.0
O186 O 0.85346 0.00345 0.88479 0.0
O187 O 0.87087 0.97209 0.82988 0.0
C188 C 0.85654 0.00286 0.8459 0.0
C189 C 0.97785 0.84224 0.87636 0.0
C190 C 0.84325 0.87887 0.93886 0.0
C191 C 0.95595 0.96043 0.93592 0.0
O192 O 0.95405 0.92265 0.94125 0.0
O193 O 0.93429 0.97657 0.91043 0.0
O194 O 0.96541 0.83556 0.91319 0.0
O195 O 0.95835 0.86696 0.85572 0.0
O196 O 0.82193 0.22909 0.68369 0.0
Cd197 Cd 0.78196 0.18085 0.70269 0.0
Cd198 Cd 0.76203 0.1963 0.62708 0.0
O199 O 0.82493 0.20782 0.62149 0.0
O200 O 0.79949 0.16583 0.75826 0.0
O201 O 0.79796 0.12427 0.70603 0.0
C202 C 0.8051 0.13091 0.74395 0.0
C203 C 0.7155 0.16611 0.58075 0.0
C204 C 0.83984 0.23075 0.64943 0.0
C205 C 0.71953 0.22872 0.69547 0.0
O206 O 0.73741 0.23838 0.66203 0.0
O207 O 0.72405 0.19423 0.71033 0.0
O208 O 0.72261 0.1482 0.61456 0.0
O209 O 0.73732 0.19944 0.57233 0.0
O210 O 0.59413 0.07226 0.4492 0.0
Cd211 Cd 0.55896 0.03594 0.41007 0.0
Cd212 Cd 0.49591 0.12125 0.44488 0.0
O213 O 0.55631 0.12225 0.46776 0.0
O214 O 0.56856 0.97819 0.39857 0.0
O215 O 0.58051 0.02874 0.35424 0.0
C216 C 0.57998 0.99063 0.36251 0.0
C217 C 0.45999 0.17724 0.43428 0.0
C218 C 0.58896 0.10436 0.46913 0.0
C219 C 0.48005 0.0419 0.44238 0.0
O220 O 0.45839 0.06848 0.45407 0.0
O221 O 0.50233 0.05087 0.41159 0.0
O222 O 0.46422 0.16276 0.4703 0.0
O223 O 0.47902 0.16178 0.40473 0.0
O224 O 0.58559 0.80279 0.15503 0.0
Cd225 Cd 0.63387 0.83675 0.1808 0.0
Cd226 Cd 0.65934 0.81255 0.1016 0.0
O227 O 0.59869 0.80538 0.08952 0.0
O228 O 0.61394 0.84333 0.23844 0.0
O229 O 0.63244 0.89499 0.19824 0.0
C230 C 0.61893 0.8818 0.23319 0.0
C231 C 0.71458 0.83517 0.05842 0.0
C232 C 0.57459 0.79476 0.11886 0.0
C233 C 0.68369 0.77106 0.17356 0.0
O234 O 0.67148 0.76621 0.13764 0.0
O235 O 0.68126 0.80409 0.19193 0.0
O236 O 0.70683 0.85409 0.09112 0.0
O237 O 0.68896 0.80519 0.04926 0.0
O238 O 0.89895 0.0759 0.64979 0.0
Cd239 Cd 0.91852 0.11399 0.60072 0.0
Cd240 Cd 0.8453 0.06986 0.57391 0.0
O241 O 0.83554 0.05786 0.63402 0.0
O242 O 0.97497 0.13486 0.61665 0.0
O243 O 0.92841 0.17555 0.60347 0.0
C244 C 0.96528 0.17105 0.61249 0.0
C245 C 0.79495 0.08115 0.52612 0.0
C246 C 0.86531 0.05519 0.65736 0.0
C247 C 0.92084 0.04839 0.54058 0.0
O248 O 0.88647 0.03376 0.55329 0.0
O249 O 0.93362 0.08472 0.54829 0.0
O250 O 0.79252 0.04952 0.54919 0.0
O251 O 0.82519 0.1077 0.53186 0.0
O252 O 0.629 0.05773 0.29309 0.0
Cd253 Cd 0.65283 0.10208 0.332 0.0
Cd254 Cd 0.59322 0.14463 0.29354 0.0
O255 O 0.58199 0.08984 0.26275 0.0
O256 O 0.69488 0.07614 0.36285 0.0
O257 O 0.64844 0.10891 0.39279 0.0
C258 C 0.68076 0.09068 0.39544 0.0
C259 C 0.54906 0.18678 0.32368 0.0
C260 C 0.60197 0.05909 0.2662 0.0
C261 C 0.67972 0.17371 0.27996 0.0
O262 O 0.64345 0.17871 0.27219 0.0
O263 O 0.68898 0.14553 0.30288 0.0
O264 O 0.55123 0.18299 0.28477 0.0
O265 O 0.56823 0.16274 0.34574 0.0
O266 O 0.55974 0.94674 0.11239 0.0
Cd267 Cd 0.54778 0.91905 0.05761 0.0
Cd268 Cd 0.62392 0.92701 0.05479 0.0
O269 O 0.62018 0.92621 0.11814 0.0
O270 O 0.48959 0.89799 0.05986 0.0
O271 O 0.53929 0.85857 0.05495 0.0
C272 C 0.50122 0.86214 0.05932 0.0
C273 C 0.65921 0.89484 0.0052 0.0
C274 C 0.59135 0.94436 0.13304 0.0
C275 C 0.58372 0.98827 0.0145 0.0
O276 O 0.61443 0.98298 0.03521 0.0
O277 O 0.55575 0.95975 0.01067 0.0
O278 O 0.67746 0.91803 0.0318 0.0
O279 O 0.62065 0.88621 0.00963 0.0
O280 O 0.81309 0.89543 0.76897 0.0
Cd281 Cd 0.79647 0.84719 0.80772 0.0
Cd282 Cd 0.8729 0.8394 0.7931 0.0
O283 O 0.87733 0.90134 0.78515 0.0
O284 O 0.7401 0.85181 0.82885 0.0
O285 O 0.79417 0.8568 0.86752 0.0
C286 C 0.75566 0.85741 0.86426 0.0
C287 C 0.90755 0.79272 0.8277 0.0
C288 C 0.84787 0.91494 0.76679 0.0
C289 C 0.82159 0.78493 0.75366 0.0
O290 O 0.85072 0.81047 0.74423 0.0
O291 O 0.7991 0.79043 0.78417 0.0
O292 O 0.87211 0.8004 0.8401 0.0
O293 O 0.92474 0.81565 0.79931 0.0
O294 O 0.39991 0.55269 0.17068 0.0
Cd295 Cd 0.43406 0.58209 0.12324 0.0
Cd296 Cd 0.37251 0.53968 0.07835 0.0
O297 O 0.34944 0.52209 0.13586 0.0
O298 O 0.47837 0.62158 0.14514 0.0
O299 O 0.43425 0.63898 0.10042 0.0
C300 C 0.46607 0.6488 0.12158 0.0
C301 C 0.33942 0.56784 0.02306 0.0
C302 C 0.36754 0.52869 0.16942 0.0
C303 C 0.45485 0.51424 0.07045 0.0
O304 O 0.41815 0.50654 0.06088 0.0
O305 O 0.46655 0.54362 0.09288 0.0
O306 O 0.32907 0.53161 0.03639 0.0
O307 O 0.36699 0.58907 0.04299 0.0
O308 O 0.1574 0.56669 0.81159 0.0
Cd309 Cd 0.19456 0.61424 0.83589 0.0
Cd310 Cd 0.1023 0.66498 0.77944 0.0
O311 O 0.11257 0.61017 0.80781 0.0
O312 O 0.25365 0.6077 0.84526 0.0
O313 O 0.20834 0.61303 0.89417 0.0
C314 C 0.24499 0.60817 0.88369 0.0
C315 C 0.07161 0.7205 0.80869 0.0
C316 C 0.12561 0.57751 0.79504 0.0
C317 C 0.18444 0.68182 0.77966 0.0
O318 O 0.1562 0.68817 0.7555 0.0
O319 O 0.17486 0.66699 0.81447 0.0
O320 O 0.10003 0.70381 0.82603 0.0
O321 O 0.05674 0.70198 0.77729 0.0
O322 O 0.03514 0.46048 0.65622 0.0
Cd323 Cd 0.01142 0.4208 0.61199 0.0
Cd324 Cd 0.08752 0.42887 0.59289 0.0
O325 O 0.09594 0.4404 0.6542 0.0
O326 O 0.95457 0.39984 0.6266 0.0
O327 O 0.00368 0.36019 0.61789 0.0
C328 C 0.96607 0.36396 0.62544 0.0
C329 C 0.12171 0.39462 0.54359 0.0
C330 C 0.07058 0.46189 0.67053 0.0
C331 C 0.03761 0.47409 0.54501 0.0
O332 O 0.07062 0.47821 0.56364 0.0
O333 O 0.01046 0.44628 0.55525 0.0
O334 O 0.13987 0.42306 0.56488 0.0
O335 O 0.08537 0.38131 0.55452 0.0
O336 O 0.10366 0.30454 0.67468 0.0
Cd337 Cd 0.14664 0.34459 0.70113 0.0
Cd338 Cd 0.17916 0.3313 0.61934 0.0
O339 O 0.11748 0.31655 0.60982 0.0
O340 O 0.12165 0.3537 0.75571 0.0
O341 O 0.14006 0.40334 0.71252 0.0
C342 C 0.12482 0.39171 0.74737 0.0
C343 C 0.22714 0.35899 0.56945 0.0
C344 C 0.09455 0.29951 0.6376 0.0
C345 C 0.20959 0.29124 0.69479 0.0
O346 O 0.20244 0.28973 0.65701 0.0
O347 O 0.19692 0.31847 0.71682 0.0
O348 O 0.20871 0.32332 0.56621 0.0
O349 O 0.21681 0.3803 0.59969 0.0
O350 O 0.39706 0.7023 0.13578 0.0
Cd351 Cd 0.3564 0.67078 0.17542 0.0
Cd352 Cd 0.30126 0.69261 0.10849 0.0
O353 O 0.35565 0.72086 0.08826 0.0
O354 O 0.38825 0.65853 0.22522 0.0
O355 O 0.35037 0.61203 0.19241 0.0
C356 C 0.3733 0.62159 0.22276 0.0
C357 C 0.25219 0.66411 0.06294 0.0
C358 C 0.39036 0.72284 0.10409 0.0
C359 C 0.2904 0.72583 0.19022 0.0
O360 O 0.27735 0.72383 0.15425 0.0
O361 O 0.31941 0.70711 0.20194 0.0
O362 O 0.26696 0.70124 0.06025 0.0
O363 O 0.26688 0.64253 0.09072 0.0
O364 O 0.59916 0.54701 0.6261 0.0
Cd365 Cd 0.58474 0.58046 0.5771 0.0
Cd366 Cd 0.51153 0.58704 0.64781 0.0
O367 O 0.55919 0.56163 0.6779 0.0
O368 O 0.62762 0.61765 0.55218 0.0
O369 O 0.60535 0.55727 0.52743 0.0
C370 C 0.62987 0.58983 0.5253 0.0
C371 C 0.49143 0.65202 0.65169 0.0
C372 C 0.58917 0.54447 0.66349 0.0
C373 C 0.50375 0.56331 0.56994 0.0
O374 O 0.48447 0.55224 0.60206 0.0
O375 O 0.52832 0.59441 0.57232 0.0
O376 O 0.47413 0.62305 0.6742 0.0
O377 O 0.52232 0.64485 0.63003 0.0
O378 O 0.89262 0.46804 0.14347 0.0
Cd379 Cd 0.91408 0.44724 0.08903 0.0
Cd380 Cd 0.9796 0.42331 0.16449 0.0
O381 O 0.93215 0.44818 0.19332 0.0
O382 O 0.89712 0.48057 0.04238 0.0
O383 O 0.87853 0.41513 0.04993 0.0
C384 C 0.87767 0.4481 0.02907 0.0
C385 C 0.00774 0.3627 0.16662 0.0
C386 C 0.90324 0.46752 0.18062 0.0
C387 C -0.0001 0.46955 0.09838 0.0
O388 O 0.01319 0.4677 0.13386 0.0
O389 O 0.97432 0.44137 0.08673 0.0
O390 O 0.01701 0.3902 0.19338 0.0
O391 O 0.97898 0.36803 0.14153 0.0
O392 O 0.6402 0.682 0.63087 0.0
Cd393 Cd 0.68639 0.64264 0.62973 0.0
Cd394 Cd 0.63757 0.64072 0.71989 0.0
O395 O 0.59643 0.65621 0.67834 0.0
O396 O 0.73213 0.66761 0.59396 0.0
O397 O 0.7013 0.60698 0.58369 0.0
C398 C 0.7298 0.63454 0.57385 0.0
C399 C 0.63031 0.59372 0.77147 0.0
C400 C 0.60687 0.6823 0.65062 0.0
C401 C 0.7195 0.66211 0.70601 0.0
O402 O 0.68925 0.67694 0.72103 0.0
O403 O 0.71448 0.63201 0.68298 0.0
O404 O 0.61645 0.62835 0.77639 0.0
O405 O 0.64594 0.58584 0.73687 0.0
O406 O 0.36881 0.4359 0.44036 0.0
Cd407 Cd 0.41372 0.45784 0.3998 0.0
Cd408 Cd 0.44277 0.379 0.41979 0.0
O409 O 0.38489 0.37335 0.44688 0.0
O410 O 0.39671 0.51249 0.38578 0.0
O411 O 0.40796 0.46725 0.33961 0.0
C412 C 0.39905 0.50309 0.34817 0.0
C413 C 0.47198 0.32427 0.38801 0.0
C414 C 0.36148 0.40046 0.45513 0.0
C415 C 0.49036 0.45456 0.44726 0.0
O416 O 0.48351 0.41656 0.45121 0.0
O417 O 0.46801 0.47408 0.42506 0.0
O418 O 0.46363 0.32442 0.42624 0.0
O419 O 0.46301 0.35506 0.36706 0.0
O420 O 0.11323 0.5795 0.94519 0.0
Cd421 Cd 0.06486 0.5538 0.91423 0.0
Cd422 Cd 0.05625 0.63447 0.91285 0.0
O423 O 0.11899 0.63959 0.9161 0.0
O424 O 0.07558 0.49578 0.90693 0.0
O425 O 0.06885 0.53856 0.85613 0.0
C426 C 0.07629 0.50317 0.86842 0.0
C427 C 0.01118 0.67301 0.87989 0.0
C428 C 0.13226 0.61418 0.9407 0.0
C429 C 0.01489 0.58234 0.97484 0.0
O430 O 0.03377 0.61656 0.96806 0.0
O431 O 0.01304 0.55563 0.94742 0.0
O432 O 0.03727 0.68887 0.9052 0.0
O433 O 0.01355 0.63578 0.87019 0.0
O434 O 0.2804 0.40531 0.30612 0.0
Cd435 Cd 0.25552 0.35689 0.34202 0.0
Cd436 Cd 0.33008 0.35043 0.35213 0.0
O437 O 0.33977 0.41128 0.3353 0.0
O438 O 0.19965 0.36425 0.36165 0.0
O439 O 0.25142 0.35974 0.4027 0.0
C440 C 0.21362 0.36427 0.39809 0.0
C441 C 0.36149 0.30538 0.39379 0.0
C442 C 0.31581 0.42334 0.30871 0.0
C443 C 0.28962 0.29769 0.29373 0.0
O444 O 0.32167 0.31983 0.30042 0.0
O445 O 0.2575 0.30239 0.31355 0.0
O446 O 0.38138 0.32883 0.36772 0.0
O447 O 0.32436 0.31151 0.40088 0.0
C448 C 0.99571 0.03495 0.01454 0.0
C449 C 0.03189 0.01784 0.02352 0.0
C450 C 0.02309 0.97422 0.96509 0.0
C451 C 0.98355 0.98549 0.96115 0.0
N452 N 0.92933 0.02254 0.98639 0.0
N453 N 0.07576 0.9648 0.01241 0.0
C454 C 0.969 0.01516 0.98661 0.0
C455 C 0.04478 0.98591 1e-05 0.0
N456 N 0.98712 0.07019 0.03208 0.0
N457 N 0.0396 0.95199 0.93569 0.0
H458 H 0.09072 0.97003 0.03975 0.0
H459 H 0.08343 0.9389 0.99786 0.0
H460 H 0.02445 0.94364 0.90905 0.0
H461 H 0.06966 0.94576 0.93584 0.0
H462 H 0.96294 0.08578 0.02328 0.0
H463 H 0.00634 0.0859 0.05245 0.0
H464 H 0.91685 0.04069 0.00781 0.0
H465 H 0.9079 0.00795 0.96746 0.0
C466 C 0.29822 0.78864 0.22884 0.0
C467 C 0.27429 0.75268 0.21929 0.0
C468 C 0.22771 0.76424 0.27369 0.0
C469 C 0.25572 0.79574 0.28833 0.0
N470 N 0.32079 0.83457 0.28193 0.0
N471 N 0.21886 0.7027 0.23525 0.0
C472 C 0.29204 0.80701 0.2665 0.0
C473 C 0.23993 0.73915 0.24268 0.0
N474 N 0.32593 0.8057 0.20133 0.0
N475 N 0.1884 0.76077 0.28615 0.0
H476 H 0.22602 0.68428 0.2113 0.0
H477 H 0.19599 0.68984 0.25459 0.0
H478 H 0.17681 0.78276 0.30351 0.0
H479 H 0.16636 0.74005 0.27403 0.0
H480 H 0.34228 0.83366 0.20549 0.0
H481 H 0.32871 0.79399 0.17227 0.0
H482 H 0.34927 0.841 0.26861 0.0
H483 H 0.31764 0.84804 0.31006 0.0
C484 C 0.50931 0.94279 0.48551 0.0
C485 C 0.51481 0.95235 0.52705 0.0
C486 C 0.50198 0.02209 0.51263 0.0
C487 C 0.49151 0.0113 0.47203 0.0
N488 N 0.47715 0.95885 0.42278 0.0
N489 N 0.50573 0.99923 0.58172 0.0
C490 C 0.49307 0.97093 0.45922 0.0
C491 C 0.50849 0.99146 0.54112 0.0
N492 N 0.5199 0.90689 0.47107 0.0
N493 N 0.50686 0.06147 0.52448 0.0
H494 H 0.5091 0.97822 0.60461 0.0
H495 H 0.49565 0.02571 0.59289 0.0
H496 H 0.50081 0.08578 0.50654 0.0
H497 H 0.52045 0.07042 0.55172 0.0
H498 H 0.52022 0.90004 0.44028 0.0
H499 H 0.53207 0.88556 0.48948 0.0
H500 H 0.47341 0.92875 0.41397 0.0
H501 H 0.4642 0.97836 0.40293 0.0
C502 C 0.22993 0.20694 0.76783 0.0
C503 C 0.26451 0.19315 0.7492 0.0
C504 C 0.26525 0.24637 0.69758 0.0
C505 C 0.22877 0.25798 0.71398 0.0
N506 N 0.17024 0.24127 0.75759 0.0
N507 N 0.30776 0.19215 0.68988 0.0
C508 C 0.20915 0.23591 0.74703 0.0
C509 C 0.27978 0.21043 0.71189 0.0
N510 N 0.218 0.19416 0.80603 0.0
N511 N 0.2871 0.27062 0.66989 0.0
H512 H 0.31795 0.16475 0.69877 0.0
H513 H 0.3173 0.2018 0.66082 0.0
H514 H 0.2786 0.29861 0.66073 0.0
H515 H 0.31575 0.26509 0.65966 0.0
H516 H 0.19553 0.20683 0.82243 0.0
H517 H 0.23288 0.17362 0.82281 0.0
H518 H 0.15366 0.22306 0.77901 0.0
H519 H 0.15301 0.26074 0.74199 0.0
C520 C 0.0153 0.0058 0.50259 0.0
C521 C -0.00104 0.97199 0.47999 0.0
C522 C 0.93139 0.99219 0.49224 0.0
C523 C 0.94749 0.02201 0.51967 0.0
N524 N 0.00438 0.04554 0.56148 0.0
N525 N 0.93989 0.92683 0.46432 0.0
C526 C 0.98932 0.02532 0.52823 0.0
C527 C 0.95645 0.96315 0.47826 0.0
N528 N 0.05463 0.02136 0.498 0.0
N529 N 0.89311 0.99244 0.47791 0.0
H530 H 0.95735 0.90368 0.45657 0.0
H531 H 0.90894 0.91818 0.46539 0.0
H532 H 0.87468 0.01513 0.48459 0.0
H533 H 0.88167 0.97283 0.45542 0.0
H534 H 0.06604 0.04786 0.51221 0.0
H535 H 0.07425 0.0116 0.4762 0.0
H536 H 0.03455 0.04591 0.56974 0.0
H537 H 0.98614 0.05704 0.58358 0.0
C538 C 0.27266 0.75662 0.7784 0.0
C539 C 0.28214 0.7567 0.73641 0.0
C540 C 0.23851 0.69439 0.72739 0.0
C541 C 0.22637 0.69643 0.76858 0.0
N542 N 0.2464 0.71675 0.83621 0.0
N543 N 0.28679 0.71837 0.67491 0.0
C544 C 0.24843 0.72318 0.79523 0.0
C545 C 0.26921 0.72309 0.71207 0.0
N546 N 0.28477 0.78923 0.80171 0.0
N547 N 0.21948 0.66595 0.70278 0.0
H548 H 0.3103 0.7384 0.66332 0.0
H549 H 0.28092 0.69267 0.65735 0.0
H550 H 0.19865 0.64302 0.71411 0.0
H551 H 0.22318 0.66596 0.67135 0.0
H552 H 0.27468 0.79244 0.83145 0.0
H553 H 0.30227 0.81465 0.79038 0.0
H554 H 0.26416 0.73409 0.85661 0.0
H555 H 0.23148 0.69082 0.8493 0.0
C556 C 0.54643 0.07387 0.95795 0.0
C557 C 0.5192 0.08443 0.98863 0.0
C558 C 0.55572 0.04923 0.03893 0.0
C559 C 0.57384 0.02935 0.00669 0.0
N560 N 0.59152 0.02507 0.93618 0.0
N561 N 0.49875 0.08428 0.05935 0.0
C562 C 0.57152 0.04306 0.96634 0.0
C563 C 0.52481 0.07392 0.02975 0.0
N564 N 0.54738 0.09284 0.92093 0.0
N565 N 0.56697 0.04326 0.07809 0.0
H566 H 0.4757 0.10257 0.05406 0.0
H567 H 0.49848 0.07274 0.08887 0.0
H568 H 0.58995 0.02557 0.08563 0.0
H569 H 0.5568 0.05933 0.1025 0.0
H570 H 0.56835 0.08824 0.89816 0.0
H571 H 0.52948 0.11614 0.91462 0.0
H572 H 0.58736 0.03049 0.90539 0.0
H573 H 0.61145 0.00352 0.94242 0.0
C574 C 0.2816 0.22464 0.27631 0.0
C575 C 0.29114 0.26561 0.26401 0.0
C576 C 0.30098 0.24436 0.19443 0.0
C577 C 0.27873 0.20778 0.20516 0.0
N578 N 0.27285 0.15458 0.25442 0.0
N579 N 0.31453 0.31467 0.21149 0.0
C580 C 0.27804 0.19489 0.24587 0.0
C581 C 0.30376 0.27553 0.2233 0.0
N582 N 0.27443 0.21468 0.31627 0.0
N583 N 0.31684 0.2493 0.15618 0.0
H584 H 0.31494 0.33906 0.2311 0.0
H585 H 0.32028 0.32343 0.18138 0.0
H586 H 0.31383 0.22567 0.13543 0.0
H587 H 0.33562 0.27464 0.14673 0.0
H588 H 0.26378 0.18581 0.32637 0.0
H589 H 0.27833 0.23569 0.33952 0.0
H590 H 0.27417 0.14234 0.28352 0.0
H591 H 0.27053 0.13352 0.23102 0.0
C592 C 0.51466 0.51037 0.02637 0.0
C593 C 0.48549 0.49068 0.05329 0.0
C594 C 0.51728 0.42779 0.04854 0.0
C595 C 0.54769 0.44825 0.02353 0.0
N596 N 0.57992 0.51014 0.99373 0.0
N597 N 0.46177 0.43348 0.09574 0.0
C598 C 0.54799 0.49002 0.01435 0.0
C599 C 0.48747 0.45011 0.06607 0.0
N600 N 0.50932 0.54772 0.01068 0.0
N601 N 0.51651 0.38703 0.05464 0.0
H602 H 0.43929 0.44896 0.10899 0.0
H603 H 0.46446 0.4055 0.10931 0.0
H604 H 0.53922 0.37033 0.04375 0.0
H605 H 0.49254 0.36952 0.06864 0.0
H606 H 0.52712 0.56168 0.9874 0.0
H607 H 0.4847 0.56343 0.01818 0.0
H608 H 0.58383 0.54142 0.99024 0.0
H609 H 0.60447 0.49617 0.98279 0.0
C610 C 0.76565 0.20398 0.20879 0.0
C611 C 0.78365 0.23904 0.22807 0.0
C612 C 0.73196 0.23199 0.28159 0.0
C613 C 0.71238 0.1992 0.26023 0.0
N614 N 0.70535 0.15827 0.20028 0.0
N615 N 0.78082 0.29063 0.27903 0.0
C616 C 0.72749 0.18668 0.22265 0.0
C617 C 0.76606 0.25426 0.26354 0.0
N618 N 0.78602 0.18592 0.17882 0.0
N619 N 0.71842 0.24125 0.3194 0.0
H620 H 0.80602 0.30783 0.26705 0.0
H621 H 0.7663 0.3053 0.30189 0.0
H622 H 0.69223 0.22674 0.3327 0.0
H623 H 0.73439 0.26155 0.33857 0.0
H624 H 0.77596 0.15807 0.16656 0.0
H625 H 0.81509 0.19652 0.16911 0.0
H626 H 0.71314 0.15087 0.17076 0.0
H627 H 0.67716 0.14479 0.20976 0.0
C628 C 0.03116 0.54099 0.51184 0.0
C629 C 0.0323 0.49864 0.5088 0.0
C630 C 0.00521 0.49887 0.44069 0.0
C631 C 0.0004 0.5403 0.44525 0.0
N632 N 0.02094 0.60369 0.47691 0.0
N633 N 0.03492 0.4403 0.46641 0.0
C634 C 0.01817 0.56246 0.47787 0.0
C635 C 0.02439 0.47861 0.47166 0.0
N636 N 0.03927 0.55999 0.54785 0.0
N637 N 0.98899 0.47859 0.40803 0.0
H638 H 0.04925 0.42484 0.48888 0.0
H639 H 0.03297 0.4254 0.43876 0.0
H640 H 0.97594 0.49349 0.38441 0.0
H641 H 0.98695 0.44732 0.40522 0.0
H642 H 0.03432 0.58991 0.55312 0.0
H643 H 0.04873 0.54524 0.57356 0.0
H644 H 0.0363 0.62176 0.49844 0.0
H645 H 0.01123 0.61985 0.45221 0.0
C646 C 0.73407 0.68111 0.20979 0.0
C647 C 0.71519 0.67586 0.2484 0.0
C648 C 0.66753 0.7235 0.23094 0.0
C649 C 0.69246 0.73565 0.19683 0.0
N650 N 0.74883 0.7262 0.1523 0.0
N651 N 0.66304 0.68875 0.29608 0.0
C652 C 0.72505 0.7139 0.18513 0.0
C653 C 0.68107 0.69554 0.25884 0.0
N654 N 0.7615 0.65556 0.19768 0.0
N655 N 0.63086 0.73811 0.23604 0.0
H656 H 0.67145 0.66659 0.31608 0.0
H657 H 0.6411 0.70592 0.30762 0.0
H658 H 0.61942 0.75773 0.21523 0.0
H659 H 0.61013 0.72776 0.25862 0.0
H660 H 0.77405 0.65583 0.16857 0.0
H661 H 0.76877 0.63144 0.21573 0.0
H662 H 0.77562 0.7141 0.14501 0.0
H663 H 0.74337 0.75056 0.13369 0.0
C664 C 0.71333 0.30186 0.70767 0.0
C665 C 0.7113 0.26195 0.72331 0.0
C666 C 0.73833 0.28596 0.78773 0.0
C667 C 0.74536 0.32561 0.77097 0.0
N668 N 0.72749 0.37348 0.71965 0.0
N669 N 0.6984 0.22136 0.78357 0.0
C670 C 0.72924 0.33443 0.73222 0.0
C671 C 0.71607 0.2557 0.76527 0.0
N672 N 0.7004 0.30801 0.66912 0.0
N673 N 0.75381 0.27683 0.82457 0.0
H674 H 0.67926 0.20049 0.76769 0.0
H675 H 0.69837 0.21651 0.81488 0.0
H676 H 0.77117 0.29789 0.84191 0.0
H677 H 0.75242 0.24744 0.83613 0.0
H678 H 0.70557 0.33518 0.65311 0.0
H679 H 0.6845 0.28485 0.65299 0.0
H680 H 0.71268 0.38175 0.69371 0.0
H681 H 0.73819 0.39835 0.73652 0.0
C682 C 0.79281 0.75346 0.69278 0.0
C683 C 0.81292 0.74892 0.72954 0.0
C684 C 0.7869 0.67818 0.73379 0.0
C685 C 0.75781 0.68694 0.70518 0.0
N686 N 0.73241 0.73263 0.65634 0.0
N687 N 0.8342 0.70672 0.78336 0.0
C688 C 0.76127 0.72404 0.68324 0.0
C689 C 0.81258 0.71072 0.74889 0.0
N690 N 0.80202 0.78687 0.66879 0.0
N691 N 0.78807 0.6396 0.74795 0.0
H692 H 0.85333 0.73053 0.79464 0.0
H693 H 0.83193 0.68075 0.80148 0.0
H694 H 0.76867 0.61558 0.73727 0.0
H695 H 0.81027 0.63096 0.76726 0.0
H696 H 0.78981 0.79021 0.64012 0.0
H697 H 0.82515 0.80905 0.67573 0.0
H698 H 0.73099 0.76106 0.64321 0.0
H699 H 0.70819 0.71194 0.64936 0.0
C700 C 0.52386 0.52015 0.46674 0.0
C701 C 0.51714 0.4786 0.47562 0.0
C702 C 0.51936 0.49367 0.54797 0.0
C703 C 0.5112 0.53392 0.53803 0.0
N704 N 0.50748 0.58613 0.48646 0.0
N705 N 0.52388 0.42531 0.52405 0.0
C706 C 0.51499 0.54774 0.49701 0.0
C707 C 0.52036 0.46513 0.51618 0.0
N708 N 0.53595 0.53247 0.42854 0.0
N709 N 0.52813 0.48338 0.58691 0.0
H710 H 0.53124 0.40567 0.50123 0.0
H711 H 0.52022 0.41204 0.55278 0.0
H712 H 0.53017 0.50391 0.61055 0.0
H713 H 0.53736 0.45553 0.59529 0.0
H714 H 0.54402 0.56262 0.42063 0.0
H715 H 0.54164 0.51153 0.40627 0.0
H716 H 0.50652 0.59605 0.45642 0.0
H717 H 0.49857 0.60706 0.50721 0.0
C718 C 0.97484 0.55728 0.03555 0.0
C719 C 0.01246 0.5679 0.01679 0.0
C720 C 0.04456 0.52089 0.05944 0.0
C721 C 0.00622 0.50783 0.07591 0.0
N722 N 0.94353 0.53096 0.09776 0.0
N723 N 0.08432 0.57713 0.02761 0.0
C724 C 0.97354 0.53118 0.06954 0.0
C725 C 0.04799 0.55538 0.03411 0.0
N726 N 0.94091 0.57193 0.02111 0.0
N727 N 0.0771 0.50006 0.06677 0.0
H728 H 0.08645 0.60532 0.0134 0.0
H729 H 0.11079 0.57019 0.04147 0.0
H730 H 0.07568 0.47478 0.08592 0.0
H731 H 0.10474 0.50661 0.05175 0.0
H732 H 0.91212 0.56238 0.03236 0.0
H733 H 0.94196 0.59269 0.99703 0.0
H734 H 0.91996 0.54929 0.09578 0.0
H735 H 0.9466 0.51686 0.12563 0.0
C736 C 0.17078 0.98159 0.22266 0.0
C737 C 0.13187 0.97937 0.20546 0.0
C738 C 0.1094 0.92235 0.25156 0.0
C739 C 0.14845 0.92511 0.26865 0.0
N740 N 0.21873 0.95189 0.2642 0.0
N741 N 0.06658 0.94221 0.19712 0.0
C742 C 0.17976 0.95275 0.25197 0.0
C743 C 0.10176 0.94819 0.21815 0.0
N744 N 0.20014 0.01159 0.21249 0.0
N745 N 0.07934 0.8961 0.26815 0.0
H746 H 0.06017 0.95993 0.17218 0.0
H747 H 0.0451 0.91771 0.20201 0.0
H748 H 0.08418 0.87628 0.29191 0.0
H749 H 0.0491 0.89574 0.26048 0.0
H750 H 0.19623 0.03558 0.19276 0.0
H751 H 0.19623 0.03558 0.19276 0.0
H752 H 0.2423 0.97219 0.25308 0.0
H753 H 0.22791 0.92959 0.28342 0.0
C754 C 0.36084 0.89436 0.45759 0.0
C755 C 0.35804 0.91716 0.49327 0.0
C756 C 0.2953 0.94186 0.47003 0.0
C757 C 0.29616 0.91591 0.43635 0.0
N758 N 0.32605 0.86315 0.40034 0.0
N759 N 0.32203 0.95994 0.53636 0.0
C760 C 0.32799 0.89105 0.43064 0.0
C761 C 0.32516 0.94038 0.50031 0.0
N762 N 0.39532 0.87668 0.44903 0.0
N763 N 0.26627 0.96806 0.47267 0.0
H764 H 0.34375 0.95988 0.55892 0.0
H765 H 0.29679 0.97393 0.54521 0.0
H766 H 0.24373 0.96924 0.45108 0.0
H767 H 0.26588 0.99034 0.49457 0.0
H768 H 0.40099 0.86359 0.42123 0.0
H769 H 0.41991 0.87801 0.46846 0.0
H770 H 0.34588 0.84099 0.39762 0.0
H771 H 0.3026 0.85996 0.37962 0.0
C772 C 0.36687 0.01082 0.70821 0.0
C773 C 0.39066 0.03323 0.73717 0.0
C774 C 0.45111 0.00504 0.71036 0.0
C775 C 0.42639 0.97757 0.68639 0.0
N776 N 0.35909 0.95232 0.66522 0.0
N777 N 0.45558 0.04904 0.7684 0.0
C778 C 0.3838 0.98007 0.68595 0.0
C779 C 0.43283 0.02962 0.73894 0.0
N780 N 0.32876 0.02044 0.70008 0.0
N781 N 0.49196 0.0099 0.70404 0.0
H782 H 0.44376 0.06705 0.7903 0.0
H783 H 0.48541 0.04393 0.77382 0.0
H784 H 0.50673 0.99453 0.6819 0.0
H785 H 0.51086 0.03263 0.71748 0.0
H786 H 0.31183 0.0085 0.67588 0.0
H787 H 0.31554 0.04371 0.71443 0.0
H788 H 0.32773 0.95047 0.66703 0.0
H789 H 0.3693 0.92743 0.65087 0.0
C790 C 0.27417 0.04597 0.95484 0.0
C791 C 0.25898 0.07058 0.92412 0.0
C792 C 0.20217 0.0829 0.96916 0.0
C793 C 0.21904 0.06062 0.0007 0.0
N794 N 0.27265 0.02423 0.02561 0.0
N795 N 0.21147 0.11677 0.90364 0.0
C796 C 0.2554 0.0429 0.99401 0.0
C797 C 0.22373 0.09018 0.93177 0.0
N798 N 0.30593 0.02456 0.94616 0.0
N799 N 0.16459 0.09558 0.97423 0.0
H800 H 0.22633 0.12283 0.8759 0.0
H801 H 0.18861 0.13533 0.90882 0.0
H802 H 0.14773 0.09131 0.00104 0.0
H803 H 0.14849 0.10757 0.95091 0.0
H804 H 0.31558 0.00215 0.9649 0.0
H805 H 0.32147 0.02803 0.9188 0.0
H806 H 0.30128 0.01428 0.02428 0.0
H807 H 0.25969 0.0217 0.05463 0.0
C808 C 0.08571 0.05723 0.27358 0.0
C809 C 0.12521 0.07452 0.26424 0.0
C810 C 0.15251 0.0291 0.31437 0.0
C811 C 0.11256 0.01181 0.32346 0.0
N812 N 0.04178 0.02235 0.32397 0.0
N813 N 0.19593 0.08226 0.28003 0.0
C814 C 0.07932 0.0296 0.30653 0.0
C815 C 0.15852 0.06212 0.2861 0.0
N816 N 0.05406 0.06696 0.25086 0.0
N817 N 0.18477 0.01373 0.33183 0.0
H818 H 0.20184 0.10477 0.25793 0.0
H819 H 0.22067 0.07839 0.29812 0.0
H820 H 0.18213 0.99305 0.35573 0.0
H821 H 0.21445 0.02063 0.32195 0.0
H822 H 0.02523 0.05178 0.25329 0.0
H823 H 0.05768 0.08767 0.22701 0.0
H824 H 0.01722 0.03736 0.31521 0.0
H825 H 0.03635 0.00547 0.35069 0.0
C826 C 0.25268 0.85445 0.52094 0.0
C827 C 0.25954 0.87349 0.55875 0.0
C828 C 0.20411 0.91568 0.54374 0.0
C829 C 0.1951 0.89402 0.50705 0.0
N830 N 0.20383 0.83138 0.47148 0.0
N831 N 0.235 0.91651 0.61017 0.0
C832 C 0.21706 0.85996 0.4989 0.0
C833 C 0.23374 0.90293 0.5711 0.0
N834 N 0.28102 0.83186 0.50496 0.0
N835 N 0.18296 0.94732 0.554 0.0
H836 H 0.25446 0.90694 0.63192 0.0
H837 H 0.21398 0.93429 0.62247 0.0
H838 H 0.15554 0.9525 0.54111 0.0
H839 H 0.19288 0.96859 0.57558 0.0
H840 H 0.27938 0.82054 0.47556 0.0
H841 H 0.30848 0.82877 0.51899 0.0
H842 H 0.2168 0.80429 0.4683 0.0
H843 H 0.1779 0.8321 0.45481 0.0
C844 C 0.43395 0.97912 0.83111 0.0
C845 C 0.39741 0.99403 0.84388 0.0
C846 C 0.35893 0.93946 0.80744 0.0
C847 C 0.39518 0.92871 0.78949 0.0
N848 N 0.4675 0.94034 0.78134 0.0
N849 N 0.32505 0.99113 0.84055 0.0
C850 C 0.43291 0.94871 0.80088 0.0
C851 C 0.35986 0.97473 0.83127 0.0
N852 N 0.4696 0.99383 0.84805 0.0
N853 N 0.32373 0.91518 0.80285 0.0
H854 H 0.3254 0.01874 0.85486 0.0
H855 H 0.29693 0.98067 0.82924 0.0
H856 H 0.32196 0.8884 0.78654 0.0
H857 H 0.29722 0.91917 0.81875 0.0
H858 H 0.49663 0.98122 0.84321 0.0
H859 H 0.47166 0.01687 0.8694 0.0
H860 H 0.49522 0.95718 0.78504 0.0
H861 H 0.46796 0.91885 0.75859 0.0
C862 C 0.28551 0.16935 0.9627 0.0
C863 C 0.31301 0.14476 0.98086 0.0
C864 C 0.27513 0.14388 0.04511 0.0
C865 C 0.24615 0.16663 0.02646 0.0
N866 N 0.22031 0.19651 0.96668 0.0
N867 N 0.331 0.10323 0.03702 0.0
C868 C 0.25036 0.17804 0.9849 0.0
C869 C 0.30655 0.13001 0.02116 0.0
N870 N 0.29339 0.18476 0.92448 0.0
N871 N 0.27487 0.13833 0.08637 0.0
H872 H 0.35586 0.09382 0.02162 0.0
H873 H 0.32472 0.08759 0.06426 0.0
H874 H 0.25338 0.14846 0.10591 0.0
H875 H 0.29826 0.12693 0.10211 0.0
H876 H 0.27696 0.20607 0.91076 0.0
H877 H 0.31792 0.17758 0.90693 0.0
H878 H 0.21969 0.20313 0.93578 0.0
H879 H 0.19404 0.20241 0.98216 0.0
C880 C 0.9854 0.20934 0.18774 0.0
C881 C 0.97379 0.22974 0.15217 0.0
C882 C 0.01371 0.18664 0.11075 0.0
C883 C 0.02743 0.1688 0.14678 0.0
N884 N 0.03614 0.17264 0.21898 0.0
N885 N 0.98284 0.24269 0.08027 0.0
C886 C 0.01643 0.1833 0.18506 0.0
C887 C 0.98962 0.21975 0.1137 0.0
N888 N 0.96477 0.21195 0.22363 0.0
N889 N 0.0227 0.17134 0.07378 0.0
H890 H 0.96766 0.2686 0.08175 0.0
H891 H 0.99571 0.23869 0.05184 0.0
H892 H 0.04203 0.14883 0.07015 0.0
H893 H 0.00935 0.17941 0.04687 0.0
H894 H 0.97014 0.19467 0.2492 0.0
H895 H 0.93894 0.22698 0.22672 0.0
H896 H 0.03193 0.18539 0.2473 0.0
H897 H 0.0604 0.15518 0.21746 0.0
C898 C 0.48345 0.29141 0.8835 0.0
C899 C 0.53458 0.29124 0.8765 0.0
C900 C 0.50554 0.20465 0.81449 0.0
C901 C 0.45994 0.21773 0.83058 0.0
N902 N 0.41069 0.2619 0.87018 0.0
N903 N 0.58496 0.21841 0.8116 0.0
C904 C 0.44983 0.25703 0.86165 0.0
C905 C 0.55004 0.23134 0.82859 0.0
N906 N 0.4689 0.31854 0.90893 0.0
N907 N 0.50632 0.17023 0.79265 0.0
H908 H 0.61522 0.22776 0.81694 0.0
H909 H 0.5836 0.19683 0.78905 0.0
H910 H 0.48003 0.15262 0.78486 0.0
H911 H 0.53261 0.1577 0.78473 0.0
H912 H 0.43797 0.31928 0.9136 0.0
H913 H 0.4876 0.33815 0.92647 0.0
H914 H 0.38658 0.24347 0.85842 0.0
H915 H 0.38658 0.24347 0.85842 0.0
C916 C -0.00084 0.79217 0.32159 0.0
C917 C 0.96304 0.78306 0.36199 0.0
C918 C 0.03331 0.80016 0.42462 0.0
C919 C 0.06916 0.78856 0.38418 0.0
N920 N 0.07537 0.78588 0.29913 0.0
N921 N 0.9565 0.8264 0.43482 0.0
C922 C 0.05085 0.78516 0.33226 0.0
C923 C 0.98105 0.80751 0.41008 0.0
N924 N 0.98809 0.80326 0.28404 0.0
N925 N 0.04707 0.81078 0.4617 0.0
H926 H 0.92695 0.82998 0.42642 0.0
H927 H 0.92695 0.82998 0.42642 0.0
H928 H 0.02759 0.82041 0.48382 0.0
H929 H 0.02759 0.82041 0.48382 0.0
H930 H 0.00946 0.80816 0.26065 0.0
H931 H 0.95815 0.80803 0.27837 0.0
H932 H 0.10651 0.78623 0.30008 0.0
H933 H 0.10651 0.78623 0.30008 0.0
C934 C 0.04909 0.31921 0.12361 0.0
C935 C 0.03265 0.32804 0.16218 0.0
C936 C 0.07378 0.27934 0.19365 0.0
C937 C 0.08561 0.26625 0.15457 0.0
N938 N 0.07557 0.26842 0.0819 0.0
N939 N 0.02286 0.30942 0.23285 0.0
C940 C 0.07061 0.28462 0.11939 0.0
C941 C 0.04291 0.30583 0.19686 0.0
N942 N 0.04633 0.34489 0.09132 0.0
N943 N 0.0938 0.26927 0.22769 0.0
H944 H -0.00054 0.3278 0.23623 0.0
H945 H 0.02644 0.29071 0.25786 0.0
H946 H 0.11937 0.25365 0.22705 0.0
H947 H 0.08826 0.28111 0.25615 0.0
H948 H 0.06145 0.34174 0.06382 0.0
H949 H 0.03315 0.37194 0.09318 0.0
H950 H 0.0629 0.27932 0.05574 0.0
H951 H 0.08754 0.24098 0.07755 0.0
C952 C 0.58006 0.74175 0.68463 0.0
C953 C 0.58507 0.71924 0.64865 0.0
C954 C 0.55575 0.77172 0.60911 0.0
C955 C 0.54715 0.79179 0.64576 0.0
N956 N 0.54209 0.79005 0.71876 0.0
N957 N 0.57137 0.70939 0.5776 0.0
C958 C 0.5565 0.77494 0.68362 0.0
C959 C 0.57095 0.73319 0.61113 0.0
N960 N 0.59996 0.73337 0.71929 0.0
N961 N 0.55174 0.79029 0.57237 0.0
H962 H 0.58244 0.68114 0.57801 0.0
H963 H 0.55728 0.71591 0.55059 0.0
H964 H 0.54211 0.81898 0.56918 0.0
H965 H 0.56159 0.77883 0.5451 0.0
H966 H 0.60039 0.75153 0.74489 0.0
H967 H 0.61999 0.71137 0.72111 0.0
H968 H 0.54486 0.77641 0.74707 0.0
H969 H 0.52337 0.81342 0.71912 0.0
C970 C 0.94678 0.73001 0.31606 0.0
C971 C 0.90633 0.73929 0.35114 0.0
C972 C 0.96834 0.74108 0.42191 0.0
C973 C 0.0096 0.74872 0.38211 0.0
N974 N 0.02318 0.70372 0.31427 0.0
N975 N 0.88735 0.74794 0.43182 0.0
C976 C 0.99673 0.72473 0.33466 0.0
C977 C 0.91741 0.7451 0.4046 0.0
N978 N 0.93942 0.72123 0.27661 0.0
N979 N 0.97585 0.73485 0.46165 0.0
H980 H 0.85819 0.75108 0.42198 0.0
H981 H 0.89337 0.74916 0.46282 0.0
H982 H 0.00507 0.73173 0.4714 0.0
H983 H 0.00507 0.73173 0.4714 0.0
H984 H 0.96273 0.71408 0.25744 0.0
H985 H 0.91217 0.72476 0.26277 0.0
H986 H 0.01535 0.68915 0.28725 0.0
H987 H 0.05152 0.70052 0.32638 0.0
C988 C 0.55849 0.23035 0.90009 0.0
C989 C 0.51067 0.2284 0.88175 0.0
C990 C 0.55545 0.30014 0.80775 0.0
C991 C 0.59566 0.29192 0.83685 0.0
N992 N 0.63455 0.25922 0.89488 0.0
N993 N 0.47795 0.28556 0.79159 0.0
C994 C 0.59741 0.26033 0.87835 0.0
C995 C 0.50812 0.2762 0.81797 0.0
N996 N 0.56515 0.20672 0.9328 0.0
N997 N 0.56106 0.32847 0.77758 0.0
H998 H 0.44708 0.27647 0.79192 0.0
H999 H 0.48444 0.30338 0.76593 0.0
H1000 H 0.58926 0.34377 0.77125 0.0
H1001 H 0.53807 0.33793 0.75999 0.0
H1002 H 0.5931 0.20591 0.9462 0.0
H1003 H 0.54223 0.18736 0.94629 0.0
H1004 H 0.6402 0.24194 0.92018 0.0
H1005 H 0.66014 0.27553 0.88239 0.0
C1006 C 0.85941 0.08903 0.76718 0.0
C1007 C 0.81908 0.09917 0.77071 0.0
C1008 C 0.80579 0.04936 0.82583 0.0
C1009 C 0.84482 0.0371 0.82065 0.0
N1010 N 0.90982 0.04459 0.78678 0.0
N1011 N 0.75355 0.08867 0.80451 0.0
C1012 C 0.87202 0.05677 0.79139 0.0
C1013 C 0.79239 0.07965 0.80032 0.0
N1014 N 0.88597 0.11138 0.74182 0.0
N1015 N 0.78101 0.03012 0.85462 0.0
H1016 H 0.74056 0.10994 0.78672 0.0
H1017 H 0.74056 0.10994 0.78672 0.0
H1018 H 0.75145 0.03668 0.86026 0.0
H1019 H 0.75145 0.03668 0.86026 0.0
H1020 H 0.91672 0.10841 0.74017 0.0
H1021 H 0.87766 0.13497 0.72364 0.0
H1022 H 0.92923 0.05342 0.76266 0.0
H1023 H 0.92169 0.0244 0.80665 0.0
C1024 C 0.63886 0.09317 0.52457 0.0
C1025 C 0.62154 0.11998 0.49739 0.0
C1026 C 0.66031 0.17681 0.52997 0.0
C1027 C 0.68247 0.14988 0.55281 0.0
N1028 N 0.69741 0.0806 0.56331 0.0
N1029 N 0.62124 0.18802 0.47082 0.0
C1030 C 0.67302 0.1075 0.54779 0.0
C1031 C 0.63427 0.16183 0.49882 0.0
N1032 N 0.62162 0.05446 0.53006 0.0
N1033 N 0.66153 0.21696 0.53811 0.0
H1034 H 0.60423 0.17856 0.44569 0.0
H1035 H 0.63012 0.219 0.47132 0.0
H1036 H 0.67589 0.23086 0.56297 0.0
H1037 H 0.67589 0.23086 0.56297 0.0
H1038 H 0.63081 0.03517 0.55249 0.0
H1039 H 0.5952 0.04309 0.51585 0.0
H1040 H 0.69365 0.04987 0.55685 0.0
H1041 H 0.7243 0.08913 0.57801 0.0
C1042 C 0.63913 0.93917 0.28096 0.0
C1043 C 0.60904 0.90968 0.2664 0.0
C1044 C 0.55964 0.934 0.31439 0.0
C1045 C 0.59034 0.9617 0.33052 0.0
N1046 N 0.66053 0.98611 0.33417 0.0
N1047 N 0.54117 0.87668 0.2713 0.0
C1048 C 0.63038 0.96316 0.315 0.0
C1049 C 0.5696 0.90613 0.2841 0.0
N1050 N 0.67627 0.94428 0.26246 0.0
N1051 N 0.52037 0.93626 0.32598 0.0
H1052 H 0.54502 0.85901 0.24588 0.0
H1053 H 0.51407 0.86865 0.28674 0.0
H1054 H 0.51178 0.957 0.34708 0.0
H1055 H 0.49584 0.9204 0.31217 0.0
H1056 H 0.69721 0.96898 0.26755 0.0
H1057 H 0.68566 0.92502 0.24031 0.0
H1058 H 0.69108 0.98528 0.32761 0.0
H1059 H 0.65511 0.0038 0.35913 0.0
C1060 C 0.79279 0.82655 0.97393 0.0
C1061 C 0.81264 0.86622 0.97128 0.0
C1062 C 0.77213 0.88593 0.02962 0.0
C1063 C 0.75178 0.84599 0.03215 0.0
N1064 N 0.75542 0.77556 0.01481 0.0
N1065 N 0.83277 0.927 0.00843 0.0
C1066 C 0.76608 0.8156 0.00688 0.0
C1067 C 0.80559 0.89402 0.00245 0.0
N1068 N 0.79886 0.79787 0.94593 0.0
N1069 N 0.76001 0.91695 0.0521 0.0
H1070 H 0.85956 0.9327 0.99176 0.0
H1071 H 0.83156 0.94579 0.03344 0.0
H1072 H 0.73907 0.91407 0.07567 0.0
H1073 H 0.76967 0.94709 0.04549 0.0
H1074 H 0.81716 0.80277 0.92012 0.0
H1075 H 0.81716 0.80277 0.92012 0.0
H1076 H 0.76441 0.75277 0.99619 0.0
H1077 H 0.74194 0.76503 0.04212 0.0
C1078 C 0.89432 0.99474 0.69038 0.0
C1079 C 0.86287 0.02101 0.68782 0.0
C1080 C 0.8233 0.97849 0.73874 0.0
C1081 C 0.85399 0.95196 0.74027 0.0
N1082 N 0.91248 0.92819 0.70791 0.0
N1083 N 0.79567 0.03444 0.70301 0.0
C1084 C 0.88822 0.95857 0.71411 0.0
C1085 C 0.82658 0.01154 0.71037 0.0
N1086 N 0.9293 0.00242 0.66831 0.0
N1087 N 0.79186 0.97128 0.76555 0.0
H1088 H 0.76668 0.02941 0.71539 0.0
H1089 H 0.76668 0.02941 0.71539 0.0
H1090 H 0.7683 0.98934 0.76931 0.0
H1091 H 0.7683 0.98934 0.76931 0.0
H1092 H 0.95568 0.98968 0.67563 0.0
H1093 H 0.93254 0.02094 0.64266 0.0
H1094 H 0.93531 0.92939 0.68594 0.0
H1095 H 0.90695 0.89945 0.72078 0.0
C1096 C 0.74546 0.04974 0.47511 0.0
C1097 C 0.76465 0.08529 0.49317 0.0
C1098 C 0.72655 0.12588 0.44696 0.0
C1099 C 0.70434 0.09009 0.43334 0.0
N1100 N 0.68491 0.01931 0.44353 0.0
N1101 N 0.76717 0.15819 0.49986 0.0
C1102 C 0.71119 0.05251 0.45059 0.0
C1103 C 0.75351 0.12374 0.48011 0.0
N1104 N 0.76175 0.01372 0.47817 0.0
N1105 N 0.723 0.16181 0.42746 0.0
H1106 H 0.7846 0.15861 0.5258 0.0
H1107 H 0.75716 0.18622 0.49348 0.0
H1108 H 0.70272 0.16502 0.40407 0.0
H1109 H 0.74225 0.18785 0.43241 0.0
H1110 H 0.7501 0.98793 0.46295 0.0
H1111 H 0.79001 0.01092 0.49051 0.0
H1112 H 0.68687 0.99161 0.45809 0.0
H1113 H 0.65856 0.02112 0.42709 0.0
C1114 C 0.63032 0.99968 0.17309 0.0
C1115 C 0.59663 0.96999 0.17017 0.0
C1116 C 0.565 0.00022 0.22911 0.0
C1117 C 0.59975 0.02794 0.23372 0.0
N1118 N 0.66865 0.04973 0.21348 0.0
N1119 N 0.53278 0.9406 0.19793 0.0
C1120 C 0.63348 0.02593 0.20706 0.0
C1121 C 0.56443 0.96992 0.19898 0.0
N1122 N 0.65742 0.00595 0.14154 0.0
N1123 N 0.53203 0.00114 0.25376 0.0
H1124 H 0.53226 0.91594 0.17858 0.0
H1125 H 0.50827 0.93986 0.21808 0.0
H1126 H 0.52991 0.02168 0.27724 0.0
H1127 H 0.52991 0.02168 0.27724 0.0
H1128 H 0.67939 0.03047 0.13984 0.0
H1129 H 0.65569 0.98982 0.11465 0.0
H1130 H 0.69579 0.04505 0.19907 0.0
H1131 H 0.67171 0.07262 0.23486 0.0
C1132 C 0.67925 0.84408 0.95262 0.0
C1133 C 0.68154 0.88426 0.96758 0.0
C1134 C 0.73176 0.90637 0.91429 0.0
C1135 C 0.7301 0.86632 0.89982 0.0
N1136 N 0.70602 0.79603 0.90658 0.0
N1137 N 0.69973 0.95528 0.95387 0.0
C1138 C 0.70441 0.83495 0.91904 0.0
C1139 C 0.70527 0.91582 0.9462 0.0
N1140 N 0.65245 0.81487 0.96984 0.0
N1141 N 0.75907 0.93557 0.89778 0.0
H1142 H 0.67818 0.96392 0.97436 0.0
H1143 H 0.71283 0.97954 0.93652 0.0
H1144 H 0.7771 0.93089 0.87249 0.0
H1145 H 0.76614 0.9636 0.91107 0.0
H1146 H 0.64575 0.78623 0.95791 0.0
H1147 H 0.63499 0.81959 0.99543 0.0
H1148 H 0.69193 0.77081 0.92168 0.0
H1149 H 0.72395 0.78846 0.88219 0.0
C1150 C 0.01697 0.81769 0.8153 0.0
C1151 C 0.01118 0.81974 0.85807 0.0
C1152 C 0.06274 0.77175 0.86524 0.0
C1153 C 0.05648 0.75923 0.8243 0.0
N1154 N 0.03473 0.77866 0.75757 0.0
N1155 N 0.03813 0.80502 0.92395 0.0
C1156 C 0.03542 0.78451 0.79851 0.0
C1157 C 0.03665 0.79834 0.88317 0.0
N1158 N 0.00893 0.84927 0.79088 0.0
N1159 N 0.0958 0.76198 0.88599 0.0
H1160 H 0.02917 0.83108 0.93714 0.0
H1161 H 0.04947 0.78495 0.94436 0.0
H1162 H 0.12016 0.75007 0.87224 0.0
H1163 H 0.10275 0.77212 0.91511 0.0
H1164 H 0.01503 0.85053 0.75979 0.0
H1165 H 0.0025 0.877 0.8023 0.0
H1166 H 0.0142 0.79117 0.73872 0.0
H1167 H 0.05503 0.76208 0.74235 0.0
C1168 C 0.5106 0.70129 0.08152 0.0
C1169 C 0.48898 0.68972 0.11794 0.0
C1170 C 0.5124 0.75518 0.1478 0.0
C1171 C 0.53794 0.76481 0.11347 0.0
N1172 N 0.54721 0.75483 0.04151 0.0
N1173 N 0.47159 0.70443 0.18702 0.0
C1174 C 0.53307 0.74014 0.07841 0.0
C1175 C 0.49048 0.71643 0.15135 0.0
N1176 N 0.51148 0.67425 0.0506 0.0
N1177 N 0.50714 0.78429 0.17587 0.0
H1178 H 0.45311 0.67759 0.18983 0.0
H1179 H 0.47599 0.71975 0.21424 0.0
H1180 H 0.519 0.81427 0.17167 0.0
H1181 H 0.48686 0.78054 0.2002 0.0
H1182 H 0.53072 0.67849 0.02547 0.0
H1183 H 0.49519 0.64584 0.05139 0.0
H1184 H 0.54204 0.73964 0.01434 0.0
H1185 H 0.55837 0.78482 0.03674 0.0
C1186 C 0.91714 0.30946 0.59706 0.0
C1187 C 0.9362 0.32809 0.63115 0.0
C1188 C 0.89862 0.27805 0.67555 0.0
C1189 C 0.87504 0.26232 0.64208 0.0
N1190 N 0.85567 0.27478 0.57227 0.0
N1191 N 0.94244 0.33222 0.70385 0.0
C1192 C 0.88281 0.2808 0.60295 0.0
C1193 C 0.92556 0.31345 0.67058 0.0
N1194 N 0.93124 0.31962 0.55883 0.0
N1195 N 0.89769 0.2594 0.71264 0.0
H1196 H 0.963 0.35796 0.70181 0.0
H1197 H 0.93511 0.32231 0.73344 0.0
H1198 H 0.88352 0.23065 0.71901 0.0
H1199 H 0.88352 0.23065 0.71901 0.0
H1200 H 0.92118 0.30377 0.53316 0.0
H1201 H 0.95548 0.34137 0.55323 0.0
H1202 H 0.85886 0.2904 0.54466 0.0
H1203 H 0.82719 0.25928 0.57575 0.0
C1204 C 0.96619 0.69911 0.8253 0.0
C1205 C 0.97721 0.69639 0.86666 0.0
C1206 C 0.93036 0.74698 0.88397 0.0
C1207 C 0.92694 0.75626 0.84198 0.0
N1208 N 0.93705 0.73719 0.77213 0.0
N1209 N 0.96379 0.71184 0.93663 0.0
C1210 C 0.94322 0.73086 0.81259 0.0
C1211 C 0.95712 0.71835 0.89631 0.0
N1212 N 0.97649 0.67094 0.79817 0.0
N1213 N 0.90789 0.76497 0.91222 0.0
H1214 H 0.97729 0.68688 0.94737 0.0
H1215 H 0.95652 0.73133 0.95951 0.0
H1216 H 0.89031 0.78813 0.90552 0.0
H1217 H 0.90477 0.75558 0.94241 0.0
H1218 H 0.96485 0.66824 0.76904 0.0
H1219 H 0.99426 0.64794 0.80516 0.0
H1220 H 0.95375 0.72508 0.74916 0.0
H1221 H 0.91581 0.75541 0.76115 0.0
C1222 C 0.3837 0.2365 0.38023 0.0
C1223 C 0.37893 0.26806 0.40802 0.0
C1224 C 0.4262 0.23979 0.45396 0.0
C1225 C 0.43086 0.20783 0.42643 0.0
N1226 N 0.4002 0.16791 0.37188 0.0
N1227 N 0.38138 0.28786 0.47772 0.0
C1228 C 0.40547 0.20373 0.39201 0.0
C1229 C 0.39541 0.26576 0.44711 0.0
N1230 N 0.36752 0.23774 0.34247 0.0
N1231 N 0.45248 0.24733 0.48507 0.0
H1232 H 0.35663 0.30426 0.47356 0.0
H1233 H 0.39044 0.28508 0.50772 0.0
H1234 H 0.47758 0.23149 0.48937 0.0
H1235 H 0.45193 0.27247 0.50363 0.0
H1236 H 0.37327 0.2177 0.31952 0.0
H1237 H 0.35023 0.26045 0.33337 0.0
H1238 H 0.37937 0.16242 0.34877 0.0
H1239 H 0.41263 0.14196 0.38154 0.0
C1240 C 0.02833 0.21244 0.58791 0.0
C1241 C 0.99637 0.20602 0.61678 0.0
C1242 C 0.02442 0.26557 0.65362 0.0
C1243 C 0.05922 0.2697 0.6276 0.0
N1244 N 0.09828 0.23672 0.57726 0.0
N1245 N 0.96855 0.2243 0.68152 0.0
C1246 C 0.06219 0.24065 0.59628 0.0
C1247 C 0.9958 0.23168 0.65064 0.0
N1248 N 0.02654 0.19152 0.5524 0.0
N1249 N 0.01748 0.29319 0.68242 0.0
H1250 H 0.94687 0.19941 0.68277 0.0
H1251 H 0.94687 0.19941 0.68277 0.0
H1252 H 0.03462 0.32091 0.68568 0.0
H1253 H 0.03462 0.32091 0.68568 0.0
H1254 H 0.04698 0.19809 0.52848 0.0
H1255 H 0.0025 0.17031 0.5454 0.0
H1256 H 0.10251 0.21348 0.55717 0.0
H1257 H 0.1253 0.25298 0.58506 0.0
C1258 C 0.43773 0.76013 0.05297 0.0
C1259 C 0.41962 0.75776 0.09224 0.0
C1260 C 0.45383 0.82444 0.10897 0.0
C1261 C 0.47236 0.82654 0.06983 0.0
N1262 N 0.47742 0.8008 0.00218 0.0
N1263 N 0.41005 0.78676 0.1583 0.0
C1264 C 0.46309 0.79555 0.04114 0.0
C1265 C 0.42725 0.78991 0.12025 0.0
N1266 N 0.43211 0.72767 0.02784 0.0
N1267 N 0.46173 0.85571 0.13539 0.0
H1268 H 0.38859 0.76355 0.16748 0.0
H1269 H 0.41746 0.80629 0.18203 0.0
H1270 H 0.48445 0.87914 0.13063 0.0
H1271 H 0.44576 0.85941 0.16215 0.0
H1272 H 0.44761 0.72526 0.00052 0.0
H1273 H 0.41389 0.70139 0.03579 0.0
H1274 H 0.46896 0.78147 0.9785 0.0
H1275 H 0.49613 0.82624 0.99274 0.0
C1276 C 0.61676 0.47293 0.74784 0.0
C1277 C 0.65945 0.47386 0.74221 0.0
C1278 C 0.656 0.52136 0.68541 0.0
C1279 C 0.61317 0.5194 0.69011 0.0
N1280 N 0.55273 0.48194 0.71678 0.0
N1281 N 0.71631 0.48813 0.69626 0.0
C1282 C 0.59347 0.49196 0.71879 0.0
C1283 C 0.67811 0.49483 0.70821 0.0
N1284 N 0.59817 0.45445 0.78122 0.0
N1285 N 0.67622 0.55057 0.66143 0.0
H1286 H 0.73327 0.46778 0.71086 0.0
H1287 H 0.72941 0.49917 0.66896 0.0
H1288 H 0.66216 0.57354 0.64761 0.0
H1289 H 0.70757 0.55528 0.65969 0.0
H1290 H 0.56801 0.45663 0.7888 0.0
H1291 H 0.61344 0.44042 0.80375 0.0
H1292 H 0.53741 0.45887 0.73418 0.0
H1293 H 0.53487 0.49293 0.69427 0.0
C1294 C 0.87202 0.43111 0.95524 0.0
C1295 C 0.85596 0.44875 0.9901 0.0
C1296 C 0.80268 0.47395 0.94887 0.0
C1297 C 0.81671 0.4535 0.91473 0.0
N1298 N 0.86048 0.40668 0.88694 0.0
N1299 N 0.80262 0.48128 0.02214 0.0
C1300 C 0.85033 0.43055 0.91828 0.0
C1301 C 0.82031 0.46863 0.98749 0.0
N1302 N 0.90863 0.4159 0.95711 0.0
N1303 N 0.7735 0.49961 0.94405 0.0
H1304 H 0.81467 0.47768 0.05089 0.0
H1305 H 0.77433 0.49206 0.02289 0.0
H1306 H 0.7612 0.50515 0.91589 0.0
H1307 H 0.76438 0.51829 0.96685 0.0
H1308 H 0.92416 0.40697 0.93163 0.0
H1309 H 0.92513 0.41508 0.98377 0.0
H1310 H 0.88138 0.38552 0.88954 0.0
H1311 H 0.84568 0.40548 0.8592 0.0
C1312 C 0.89943 0.55953 0.24866 0.0
C1313 C 0.85728 0.5595 0.2544 0.0
C1314 C 0.84526 0.49839 0.21318 0.0
C1315 C 0.88745 0.49808 0.20751 0.0
N1316 N 0.95428 0.53411 0.21123 0.0
N1317 N 0.78991 0.53621 0.23346 0.0
C1318 C 0.91448 0.53027 0.2228 0.0
C1319 C 0.83013 0.53101 0.23409 0.0
N1320 N 0.92516 0.58658 0.26905 0.0
N1321 N 0.81969 0.46683 0.19963 0.0
H1322 H 0.77785 0.56047 0.24729 0.0
H1323 H 0.76903 0.51906 0.2159 0.0
H1324 H 0.82971 0.44221 0.18452 0.0
H1325 H 0.78898 0.46298 0.20655 0.0
H1326 H 0.95613 0.58485 0.27057 0.0
H1327 H 0.91525 0.6092 0.28724 0.0
H1328 H 0.97408 0.55948 0.21716 0.0
H1329 H 0.96734 0.51368 0.19275 0.0
C1330 C 0.6921 0.63114 0.43461 0.0
C1331 C 0.71878 0.6006 0.43033 0.0
C1332 C 0.69033 0.56612 0.49154 0.0
C1333 C 0.6611 0.59436 0.49338 0.0
N1334 N 0.63024 0.65056 0.46471 0.0
N1335 N 0.74259 0.5379 0.45241 0.0
C1336 C 0.6612 0.62637 0.46474 0.0
C1337 C 0.71772 0.56776 0.45819 0.0
N1338 N 0.69578 0.66437 0.40952 0.0
N1339 N 0.69287 0.53878 0.52252 0.0
H1340 H 0.76511 0.53947 0.43003 0.0
H1341 H 0.73986 0.51066 0.46848 0.0
H1342 H 0.67343 0.53665 0.54766 0.0
H1343 H 0.71634 0.52053 0.52535 0.0
H1344 H 0.68083 0.68993 0.41462 0.0
H1345 H 0.71574 0.66795 0.38491 0.0
H1346 H 0.62588 0.67137 0.44177 0.0
H1347 H 0.6066 0.64765 0.48591 0.0
C1348 C 0.67264 0.52183 0.84568 0.0
C1349 C 0.63669 0.50106 0.86189 0.0
C1350 C 0.59606 0.54421 0.8218 0.0
C1351 C 0.63193 0.56473 0.80549 0.0
N1352 N 0.70397 0.58054 0.80879 0.0
N1353 N 0.56542 0.50196 0.87619 0.0
C1354 C 0.67017 0.55591 0.81974 0.0
C1355 C 0.59873 0.51523 0.85332 0.0
N1356 N 0.70893 0.50794 0.85367 0.0
N1357 N 0.55958 0.5508 0.80583 0.0
H1358 H 0.56643 0.48212 0.9008 0.0
H1359 H 0.53786 0.51405 0.87365 0.0
H1360 H 0.5564 0.57194 0.78279 0.0
H1361 H 0.53293 0.533 0.81316 0.0
H1362 H 0.73617 0.51967 0.84047 0.0
H1363 H 0.71137 0.48201 0.87094 0.0
H1364 H 0.73234 0.57819 0.82096 0.0
H1365 H 0.70308 0.60596 0.79013 0.0
C1366 C 0.77947 0.37046 0.07892 0.0
C1367 C 0.80995 0.35085 0.05869 0.0
C1368 C 0.77954 0.36413 0.99264 0.0
C1369 C 0.74827 0.38224 0.0132 0.0
N1370 N 0.71351 0.39478 0.07588 0.0
N1371 N 0.84301 0.33355 0.99693 0.0
C1372 C 0.74727 0.38393 0.05627 0.0
C1373 C 0.8109 0.34866 0.01563 0.0
N1374 N 0.78074 0.37587 0.12005 0.0
N1375 N 0.77874 0.36129 0.95127 0.0
H1376 H 0.86691 0.32344 0.01306 0.0
H1377 H 0.84775 0.33314 0.96572 0.0
H1378 H 0.7574 0.37397 0.93362 0.0
H1379 H 0.79827 0.34565 0.93403 0.0
H1380 H 0.76375 0.39582 0.13523 0.0
H1381 H 0.80021 0.36245 0.13926 0.0
H1382 H 0.7086 0.39182 0.10708 0.0
H1383 H 0.68806 0.40285 0.06094 0.0
C1384 C 0.85014 0.45069 0.30332 0.0
C1385 C 0.88508 0.47516 0.31564 0.0
C1386 C 0.92827 0.43024 0.2811 0.0
C1387 C 0.89348 0.40673 0.26713 0.0
N1388 N 0.82107 0.39656 0.26069 0.0
N1389 N 0.9568 0.4941 0.30725 0.0
C1390 C 0.85429 0.41762 0.27691 0.0
C1391 C 0.92394 0.4668 0.30178 0.0
N1392 N 0.81297 0.45938 0.31673 0.0
N1393 N 0.96564 0.41755 0.27489 0.0
H1394 H 0.95584 0.52109 0.32266 0.0
H1395 H 0.98464 0.49182 0.2932 0.0
H1396 H 0.97052 0.3922 0.25795 0.0
H1397 H 0.99155 0.43052 0.28891 0.0
H1398 H 0.78659 0.44029 0.31342 0.0
H1399 H 0.80851 0.48561 0.33254 0.0
H1400 H 0.79188 0.40486 0.2635 0.0
H1401 H 0.82268 0.37202 0.24162 0.0
C1402 C 0.81175 0.58677 0.51399 0.0
C1403 C 0.82123 0.61628 0.48294 0.0
C1404 C 0.76813 0.65581 0.50949 0.0
C1405 C 0.76059 0.62774 0.54206 0.0
N1406 N 0.78113 0.57099 0.58009 0.0
N1407 N 0.81314 0.68192 0.45504 0.0
C1408 C 0.78388 0.59431 0.54554 0.0
C1409 C 0.80093 0.65183 0.48208 0.0
N1410 N 0.8293 0.55131 0.51334 0.0
N1411 N 0.74271 0.68515 0.50356 0.0
H1412 H 0.83698 0.67959 0.43487 0.0
H1413 H 0.80223 0.71017 0.455 0.0
H1414 H 0.7176 0.68812 0.5221 0.0
H1415 H 0.74393 0.70401 0.47809 0.0
H1416 H 0.81951 0.52643 0.53157 0.0
H1417 H 0.85223 0.54579 0.49291 0.0
H1418 H 0.80039 0.54897 0.58637 0.0
H1419 H 0.76215 0.57606 0.6045 0.0
C1420 C 0.46978 0.71312 0.68615 0.0
C1421 C 0.47542 0.69218 0.6498 0.0
C1422 C 0.44929 0.7475 0.61099 0.0
C1423 C 0.43818 0.7654 0.64778 0.0
N1424 N 0.43196 0.76018 0.72138 0.0
N1425 N 0.46557 0.68666 0.57736 0.0
C1426 C 0.44709 0.74707 0.68567 0.0
C1427 C 0.46419 0.70875 0.61202 0.0
N1428 N 0.48712 0.70128 0.72117 0.0
N1429 N 0.44641 0.76791 0.57511 0.0
H1430 H 0.47504 0.65774 0.5767 0.0
H1431 H 0.45385 0.69544 0.54986 0.0
H1432 H 0.4359 0.79641 0.57346 0.0
H1433 H 0.45814 0.7585 0.54774 0.0
H1434 H 0.48754 0.71793 0.7478 0.0
H1435 H 0.50503 0.67729 0.72246 0.0
H1436 H 0.4333 0.74452 0.7488 0.0
H1437 H 0.4147 0.78433 0.72359 0.0
C1438 C 0.41892 0.57666 0.25866 0.0
C1439 C 0.38052 0.59168 0.25522 0.0
C1440 C 0.35636 0.55088 0.31475 0.0
C1441 C 0.39324 0.53351 0.31601 0.0
N1442 N 0.45987 0.52794 0.28863 0.0
N1443 N 0.31288 0.59434 0.28301 0.0
C1444 C 0.42463 0.54581 0.28777 0.0
C1445 C 0.34943 0.57927 0.2839 0.0
N1446 N 0.45034 0.5929 0.23492 0.0
N1447 N 0.32748 0.53877 0.34313 0.0
H1448 H 0.30495 0.61559 0.26179 0.0
H1449 H 0.30495 0.61559 0.26179 0.0
H1450 H 0.29911 0.54957 0.34432 0.0
H1451 H 0.29911 0.54957 0.34432 0.0
H1452 H 0.4802 0.58714 0.23873 0.0
H1453 H 0.44672 0.61445 0.21269 0.0
H1454 H 0.48163 0.53117 0.26559 0.0
H1455 H 0.4668 0.50811 0.31161 0.0
C1456 C 0.18953 0.67497 0.02376 0.0
C1457 C 0.2186 0.6484 0.0354 0.0
C1458 C 0.19068 0.59922 0.98509 0.0
C1459 C 0.16315 0.62685 0.97198 0.0
N1460 N 0.12669 0.68362 0.99053 0.0
N1461 N 0.23724 0.57952 0.0355 0.0
C1462 C 0.16012 0.66296 0.99416 0.0
C1463 C 0.21608 0.60872 0.01896 0.0
N1464 N 0.18835 0.71121 0.04272 0.0
N1465 N 0.19389 0.56425 0.9642 0.0
H1466 H 0.2589 0.58429 0.05767 0.0
H1467 H 0.23125 0.54893 0.02929 0.0
H1468 H 0.17698 0.55581 0.93876 0.0
H1469 H 0.21635 0.54519 0.96911 0.0
H1470 H 0.17447 0.73517 0.03034 0.0
H1471 H 0.20112 0.71735 0.071 0.0
H1472 H 0.12069 0.70762 0.00891 0.0
H1473 H 0.10191 0.67423 0.97293 0.0
C1474 C 0.05854 0.44643 0.81992 0.0
C1475 C 0.08829 0.47285 0.83909 0.0
C1476 C 0.14129 0.44804 0.79648 0.0
C1477 C 0.11187 0.42084 0.77766 0.0
N1478 N 0.04295 0.39177 0.77224 0.0
N1479 N 0.15826 0.4917 0.85349 0.0
C1480 C 0.07058 0.41913 0.78989 0.0
C1481 C 0.12975 0.47165 0.82958 0.0
N1482 N 0.01882 0.44796 0.83026 0.0
N1483 N 0.18035 0.4516 0.78262 0.0
H1484 H 0.15101 0.50957 0.87784 0.0
H1485 H 0.18893 0.48829 0.85125 0.0
H1486 H 0.19088 0.43324 0.76023 0.0
H1487 H 0.20182 0.47464 0.79139 0.0
H1488 H 0.99482 0.4319 0.81587 0.0
H1489 H 0.00942 0.46682 0.85286 0.0
H1490 H 0.01306 0.38601 0.78174 0.0
H1491 H 0.0501 0.37376 0.74798 0.0
C1492 C 0.29833 0.35276 0.54441 0.0
C1493 C 0.26249 0.3725 0.54217 0.0
C1494 C 0.29045 0.40987 0.48171 0.0
C1495 C 0.32729 0.3917 0.48536 0.0
N1496 N 0.3703 0.36068 0.53264 0.0
N1497 N 0.2321 0.4306 0.51748 0.0
C1498 C 0.33248 0.36729 0.52026 0.0
C1499 C 0.26094 0.40455 0.51365 0.0
N1500 N 0.30048 0.32067 0.57017 0.0
N1501 N 0.28265 0.43098 0.44739 0.0
H1502 H 0.21122 0.42834 0.54128 0.0
H1503 H 0.23193 0.45682 0.49992 0.0
H1504 H 0.30112 0.4324 0.42159 0.0
H1505 H 0.25538 0.443 0.44264 0.0
H1506 H 0.32464 0.30298 0.56968 0.0
H1507 H 0.27707 0.31008 0.58991 0.0
H1508 H 0.37559 0.34612 0.55996 0.0
H1509 H 0.39651 0.37387 0.51837 0.0
C1510 C 0.30545 0.48084 0.26047 0.0
C1511 C 0.33085 0.45233 0.27503 0.0
C1512 C 0.38095 0.47536 0.22161 0.0
C1513 C 0.35464 0.50304 0.20612 0.0
N1514 N 0.28936 0.52955 0.21084 0.0
N1515 N 0.38737 0.41413 0.26024 0.0
C1516 C 0.31626 0.50478 0.22514 0.0
C1517 C 0.36743 0.44758 0.25347 0.0
N1518 N 0.27037 0.48452 0.2811 0.0
N1519 N 0.41887 0.4747 0.20541 0.0
H1520 H 0.37729 0.39096 0.28041 0.0
H1521 H 0.41143 0.40664 0.24231 0.0
H1522 H 0.42895 0.49037 0.17912 0.0
H1523 H 0.44132 0.46013 0.21954 0.0
H1524 H 0.24988 0.50495 0.27304 0.0
H1525 H 0.24988 0.50495 0.27304 0.0
H1526 H 0.29444 0.54829 0.18534 0.0
H1527 H 0.29444 0.54829 0.18534 0.0
C1528 C 0.31587 0.5545 0.95158 0.0
C1529 C 0.32192 0.58228 0.98404 0.0
C1530 C 0.28635 0.63127 0.94465 0.0
C1531 C 0.27541 0.60107 0.91543 0.0
N1532 N 0.27631 0.53223 0.89342 0.0
N1533 N 0.32332 0.6519 0.0052 0.0
C1534 C 0.28977 0.56246 0.91918 0.0
C1535 C 0.31055 0.62223 0.97863 0.0
N1536 N 0.33741 0.5216 0.95022 0.0
N1537 N 0.27138 0.66796 0.94121 0.0
H1538 H 0.33711 0.64678 0.0326 0.0
H1539 H 0.32205 0.68252 -0.00071 0.0
H1540 H 0.25544 0.67632 0.91597 0.0
H1541 H 0.27276 0.68946 0.96398 0.0
H1542 H 0.33744 0.50242 0.92543 0.0
H1543 H 0.35942 0.51641 0.97139 0.0
H1544 H 0.28122 0.50211 0.89815 0.0
H1545 H 0.25735 0.53642 0.86912 0.0
C1546 C 0.12248 0.5161 0.69699 0.0
C1547 C 0.08388 0.49378 0.70109 0.0
C1548 C 0.06811 0.53986 0.75617 0.0
C1549 C 0.10948 0.55484 0.75839 0.0
N1550 N 0.17668 0.55699 0.72907 0.0
N1551 N 0.02053 0.48326 0.73826 0.0
C1552 C 0.13686 0.54255 0.72846 0.0
C1553 C 0.05667 0.50563 0.73147 0.0
N1554 N 0.14412 0.51525 0.6615 0.0
N1555 N 0.03955 0.55816 0.77725 0.0
H1556 H 0.01242 0.45588 0.72409 0.0
H1557 H 0.00052 0.48925 0.76143 0.0
H1558 H 0.04627 0.58366 0.79483 0.0
H1559 H 0.00869 0.55087 0.77362 0.0
H1560 H 0.17069 0.53378 0.65577 0.0
H1561 H 0.13304 0.50073 0.63551 0.0
H1562 H 0.19873 0.54434 0.71203 0.0
H1563 H 0.18795 0.5807 0.74739 0.0
C1564 C 0.14911 0.34511 0.49452 0.0
C1565 C 0.1393 0.38462 0.50322 0.0
C1566 C 0.17124 0.40868 0.43825 0.0
C1567 C 0.1871 0.37088 0.43365 0.0
N1568 N 0.19338 0.30345 0.45878 0.0
N1569 N 0.13827 0.45413 0.48167 0.0
C1570 C 0.17676 0.33922 0.46226 0.0
C1571 C 0.14923 0.41632 0.47429 0.0
N1572 N 0.13054 0.31293 0.51562 0.0
N1573 N 0.17746 0.43749 0.40829 0.0
H1574 H 0.1186 0.46022 0.5051 0.0
H1575 H 0.14953 0.47989 0.46548 0.0
H1576 H 0.19623 0.43469 0.38315 0.0
H1577 H 0.16245 0.46346 0.40706 0.0
H1578 H 0.13395 0.28304 0.50845 0.0
H1579 H 0.10755 0.31605 0.53662 0.0
H1580 H 0.19089 0.28123 0.48143 0.0
H1581 H 0.21194 0.29701 0.43445 0.0
C1582 C 0.47645 0.26815 0.33621 0.0
C1583 C 0.49286 0.29037 0.36992 0.0
C1584 C 0.54855 0.24653 0.37112 0.0
C1585 C 0.52863 0.22085 0.34174 0.0
N1586 N 0.46886 0.20335 0.30277 0.0
N1587 N 0.5444 0.29863 0.4212 0.0
C1588 C 0.49127 0.23067 0.32606 0.0
C1589 C 0.52848 0.27848 0.38824 0.0
N1590 N 0.44708 0.28263 0.31329 0.0
N1591 N 0.58801 0.24297 0.38028 0.0
H1592 H 0.53513 0.32588 0.43125 0.0
H1593 H 0.56611 0.28735 0.43949 0.0
H1594 H 0.60534 0.22244 0.3665 0.0
H1595 H 0.60526 0.26353 0.39817 0.0
H1596 H 0.43747 0.26971 0.28596 0.0
H1597 H 0.43477 0.30947 0.31919 0.0
H1598 H 0.4398 0.20731 0.29326 0.0
H1599 H 0.47737 0.17463 0.29681 0.0
loop_
_geom_bond_atom_site_label_1
_geom_bond_atom_site_label_2
_geom_bond_distance
_geom_bond_site_symmetry_2
_ccdc_geom_bond_type
O0 Cd1 2.223 1_565 S
O0 C8 1.315 1_565 S
Cd1 O0 2.223 1_545 S
Cd1 O4 2.297 . S
Cd1 O5 2.439 . S
Cd1 O11 2.240 . S
Cd2 O3 2.240 . S
Cd2 O10 2.223 1_455 S
Cd2 O12 2.297 1_455 S
Cd2 O13 2.439 . S
O3 Cd2 2.240 . S
O3 C8 1.279 . S
O4 Cd1 2.297 . S
O4 C6 1.247 . S
O5 Cd1 2.439 . S
O5 C6 1.208 . S
C6 O4 1.247 . S
C6 O5 1.208 . S
C7 O12 1.247 . S
C7 O13 1.208 1_655 S
C8 O0 1.315 1_545 S
C8 O3 1.279 . S
C9 O10 1.315 . S
C9 O11 1.279 1_655 S
O10 Cd2 2.223 1_655 S
O10 C9 1.315 . S
O11 Cd1 2.240 . S
O11 C9 1.279 1_455 S
O12 Cd2 2.297 1_655 S
O12 C7 1.247 . S
O13 Cd2 2.439 . S
O13 C7 1.208 1_455 S
O14 Cd15 2.223 . S
O14 C22 1.315 . S
Cd15 O14 2.223 . S
Cd15 O18 2.297 . S
Cd15 O19 2.439 . S
Cd15 O25 2.240 . S
Cd16 O17 2.240 . S
Cd16 O24 2.223 . S
Cd16 O26 2.297 . S
Cd16 O27 2.439 . S
O17 Cd16 2.240 . S
O17 C22 1.279 . S
O18 Cd15 2.297 . S
O18 C20 1.247 . S
O19 Cd15 2.439 . S
O19 C20 1.208 . S
C20 O18 1.247 . S
C20 O19 1.208 . S
C21 O26 1.247 . S
C21 O27 1.208 . S
C22 O14 1.315 . S
C22 O17 1.279 . S
C23 O24 1.315 . S
C23 O25 1.279 . S
O24 Cd16 2.223 . S
O24 C23 1.315 . S
O25 Cd15 2.240 . S
O25 C23 1.279 . S
O26 Cd16 2.297 . S
O26 C21 1.247 . S
O27 Cd16 2.439 . S
O27 C21 1.208 . S
O28 Cd29 2.223 1_545 S
O28 C36 1.315 1_545 S
Cd29 O28 2.223 1_565 S
Cd29 O32 2.297 . S
Cd29 O33 2.439 . S
Cd29 O39 2.240 . S
Cd30 O31 2.240 . S
Cd30 O38 2.223 . S
Cd30 O40 2.297 . S
Cd30 O41 2.439 . S
O31 Cd30 2.240 . S
O31 C36 1.279 . S
O32 Cd29 2.297 . S
O32 C34 1.247 . S
O33 Cd29 2.439 . S
O33 C34 1.208 . S
C34 O32 1.247 . S
C34 O33 1.208 . S
C35 O40 1.247 . S
C35 O41 1.208 . S
C36 O28 1.315 1_565 S
C36 O31 1.279 . S
C37 O38 1.315 . S
C37 O39 1.279 . S
O38 Cd30 2.223 . S
O38 C37 1.315 . S
O39 Cd29 2.240 . S
O39 C37 1.279 . S
O40 Cd30 2.297 . S
O40 C35 1.247 . S
O41 Cd30 2.439 . S
O41 C35 1.208 . S
O42 Cd43 2.223 . S
O42 C50 1.315 . S
Cd43 O42 2.223 . S
Cd43 O46 2.297 . S
Cd43 O47 2.439 . S
Cd43 O53 2.240 . S
Cd44 O45 2.240 . S
Cd44 O52 2.223 . S
Cd44 O54 2.297 . S
Cd44 O55 2.439 . S
O45 Cd44 2.240 . S
O45 C50 1.279 . S
O46 Cd43 2.297 . S
O46 C48 1.247 . S
O47 Cd43 2.439 . S
O47 C48 1.208 . S
C48 O46 1.247 . S
C48 O47 1.208 . S
C49 O54 1.247 . S
C49 O55 1.208 . S
C50 O42 1.315 . S
C50 O45 1.279 . S
C51 O52 1.315 . S
C51 O53 1.279 . S
O52 Cd44 2.223 . S
O52 C51 1.315 . S
O53 Cd43 2.240 . S
O53 C51 1.279 . S
O54 Cd44 2.297 . S
O54 C49 1.247 . S
O55 Cd44 2.439 . S
O55 C49 1.208 . S
O56 Cd57 2.223 . S
O56 C64 1.315 . S
Cd57 O56 2.223 . S
Cd57 O60 2.297 . S
Cd57 O61 2.439 . S
Cd57 O67 2.240 . S
Cd58 O59 2.240 . S
Cd58 O66 2.223 . S
Cd58 O68 2.297 . S
Cd58 O69 2.439 . S
O59 Cd58 2.240 . S
O59 C64 1.279 . S
O60 Cd57 2.297 . S
O60 C62 1.247 . S
O61 Cd57 2.439 . S
O61 C62 1.208 . S
C62 O60 1.247 . S
C62 O61 1.208 . S
C63 O68 1.247 . S
C63 O69 1.208 . S
C64 O56 1.315 . S
C64 O59 1.279 . S
C65 O66 1.315 . S
C65 O67 1.279 . S
O66 Cd58 2.223 . S
O66 C65 1.315 . S
O67 Cd57 2.240 . S
O67 C65 1.279 . S
O68 Cd58 2.297 . S
O68 C63 1.247 . S
O69 Cd58 2.439 . S
O69 C63 1.208 . S
O70 Cd71 2.223 . S
O70 C78 1.315 . S
Cd71 O70 2.223 . S
Cd71 O74 2.297 . S
Cd71 O75 2.439 . S
Cd71 O81 2.240 . S
Cd72 O73 2.240 . S
Cd72 O80 2.223 . S
Cd72 O82 2.297 . S
Cd72 O83 2.439 . S
O73 Cd72 2.240 . S
O73 C78 1.279 . S
O74 Cd71 2.297 . S
O74 C76 1.247 . S
O75 Cd71 2.439 . S
O75 C76 1.208 . S
C76 O74 1.247 . S
C76 O75 1.208 . S
C77 O82 1.247 . S
C77 O83 1.208 . S
C78 O70 1.315 . S
C78 O73 1.279 . S
C79 O80 1.315 . S
C79 O81 1.279 . S
O80 Cd72 2.223 . S
O80 C79 1.315 . S
O81 Cd71 2.240 . S
O81 C79 1.279 . S
O82 Cd72 2.297 . S
O82 C77 1.247 . S
O83 Cd72 2.439 . S
O83 C77 1.208 . S
O84 Cd85 2.223 . S
O84 C92 1.315 . S
Cd85 O84 2.223 . S
Cd85 O88 2.297 . S
Cd85 O89 2.439 . S
Cd85 O95 2.240 . S
Cd86 O87 2.240 . S
Cd86 O94 2.223 . S
Cd86 O96 2.297 . S
Cd86 O97 2.439 . S
O87 Cd86 2.240 . S
O87 C92 1.279 . S
O88 Cd85 2.297 . S
O88 C90 1.247 . S
O89 Cd85 2.439 . S
O89 C90 1.208 . S
C90 O88 1.247 . S
C90 O89 1.208 . S
C91 O96 1.247 . S
C91 O97 1.208 . S
C92 O84 1.315 . S
C92 O87 1.279 . S
C93 O94 1.315 . S
C93 O95 1.279 . S
O94 Cd86 2.223 . S
O94 C93 1.315 . S
O95 Cd85 2.240 . S
O95 C93 1.279 . S
O96 Cd86 2.297 . S
O96 C91 1.247 . S
O97 Cd86 2.439 . S
O97 C91 1.208 . S
O98 Cd99 2.223 . S
O98 C106 1.315 . S
Cd99 O98 2.223 . S
Cd99 O102 2.297 . S
Cd99 O103 2.439 . S
Cd99 O109 2.240 . S
Cd100 O101 2.240 . S
Cd100 O108 2.223 . S
Cd100 O110 2.297 . S
Cd100 O111 2.439 . S
O101 Cd100 2.240 . S
O101 C106 1.279 . S
O102 Cd99 2.297 . S
O102 C104 1.247 . S
O103 Cd99 2.439 . S
O103 C104 1.208 . S
C104 O102 1.247 . S
C104 O103 1.208 . S
C105 O110 1.247 . S
C105 O111 1.208 . S
C106 O98 1.315 . S
C106 O101 1.279 . S
C107 O108 1.315 . S
C107 O109 1.279 . S
O108 Cd100 2.223 . S
O108 C107 1.315 . S
O109 Cd99 2.240 . S
O109 C107 1.279 . S
O110 Cd100 2.297 . S
O110 C105 1.247 . S
O111 Cd100 2.439 . S
O111 C105 1.208 . S
O112 Cd113 2.223 . S
O112 C120 1.315 . S
Cd113 O112 2.223 . S
Cd113 O116 2.297 . S
Cd113 O117 2.439 . S
Cd113 O123 2.240 . S
Cd114 O115 2.240 . S
Cd114 O122 2.223 . S
Cd114 O124 2.297 . S
Cd114 O125 2.439 . S
O115 Cd114 2.240 . S
O115 C120 1.279 . S
O116 Cd113 2.297 . S
O116 C118 1.247 . S
O117 Cd113 2.439 . S
O117 C118 1.208 . S
C118 O116 1.247 . S
C118 O117 1.208 . S
C119 O124 1.247 . S
C119 O125 1.208 . S
C120 O112 1.315 . S
C120 O115 1.279 . S
C121 O122 1.315 . S
C121 O123 1.279 . S
O122 Cd114 2.223 . S
O122 C121 1.315 . S
O123 Cd113 2.240 . S
O123 C121 1.279 . S
O124 Cd114 2.297 . S
O124 C119 1.247 . S
O125 Cd114 2.439 . S
O125 C119 1.208 . S
O126 Cd127 2.223 . S
O126 C134 1.315 . S
Cd127 O126 2.223 . S
Cd127 O130 2.297 . S
Cd127 O131 2.439 . S
Cd127 O137 2.240 . S
Cd128 O129 2.240 . S
Cd128 O136 2.223 . S
Cd128 O138 2.297 . S
Cd128 O139 2.439 . S
O129 Cd128 2.240 . S
O129 C134 1.279 . S
O130 Cd127 2.297 . S
O130 C132 1.247 . S
O131 Cd127 2.439 . S
O131 C132 1.208 . S
C132 O130 1.247 . S
C132 O131 1.208 . S
C133 O138 1.247 . S
C133 O139 1.208 . S
C134 O126 1.315 . S
C134 O129 1.279 . S
C135 O136 1.315 . S
C135 O137 1.279 . S
O136 Cd128 2.223 . S
O136 C135 1.315 . S
O137 Cd127 2.240 . S
O137 C135 1.279 . S
O138 Cd128 2.297 . S
O138 C133 1.247 . S
O139 Cd128 2.439 . S
O139 C133 1.208 . S
O140 Cd141 2.223 . S
O140 C148 1.315 . S
Cd141 O140 2.223 . S
Cd141 O144 2.297 . S
Cd141 O145 2.439 . S
Cd141 O151 2.240 . S
Cd142 O143 2.240 . S
Cd142 O150 2.223 . S
Cd142 O152 2.297 . S
Cd142 O153 2.439 . S
O143 Cd142 2.240 . S
O143 C148 1.279 . S
O144 Cd141 2.297 . S
O144 C146 1.247 . S
O145 Cd141 2.439 . S
O145 C146 1.208 . S
C146 O144 1.247 . S
C146 O145 1.208 . S
C147 O152 1.247 . S
C147 O153 1.208 . S
C148 O140 1.315 . S
C148 O143 1.279 . S
C149 O150 1.315 . S
C149 O151 1.279 . S
O150 Cd142 2.223 . S
O150 C149 1.315 . S
O151 Cd141 2.240 . S
O151 C149 1.279 . S
O152 Cd142 2.297 . S
O152 C147 1.247 . S
O153 Cd142 2.439 . S
O153 C147 1.208 . S
O154 Cd155 2.223 . S
O154 C162 1.315 . S
Cd155 O154 2.223 . S
Cd155 O158 2.297 . S
Cd155 O159 2.439 . S
Cd155 O165 2.240 . S
Cd156 O157 2.240 . S
Cd156 O164 2.223 . S
Cd156 O166 2.297 . S
Cd156 O167 2.439 . S
O157 Cd156 2.240 . S
O157 C162 1.279 . S
O158 Cd155 2.297 . S
O158 C160 1.247 . S
O159 Cd155 2.439 . S
O159 C160 1.208 . S
C160 O158 1.247 . S
C160 O159 1.208 . S
C161 O166 1.247 . S
C161 O167 1.208 . S
C162 O154 1.315 . S
C162 O157 1.279 . S
C163 O164 1.315 . S
C163 O165 1.279 . S
O164 Cd156 2.223 . S
O164 C163 1.315 . S
O165 Cd155 2.240 . S
O165 C163 1.279 . S
O166 Cd156 2.297 . S
O166 C161 1.247 . S
O167 Cd156 2.439 . S
O167 C161 1.208 . S
O168 Cd169 2.223 . S
O168 C176 1.315 . S
Cd169 O168 2.223 . S
Cd169 O172 2.297 . S
Cd169 O173 2.439 . S
Cd169 O179 2.240 . S
Cd170 O171 2.240 . S
Cd170 O178 2.223 . S
Cd170 O180 2.297 . S
Cd170 O181 2.439 . S
O171 Cd170 2.240 . S
O171 C176 1.279 . S
O172 Cd169 2.297 . S
O172 C174 1.247 . S
O173 Cd169 2.439 . S
O173 C174 1.208 . S
C174 O172 1.247 . S
C174 O173 1.208 . S
C175 O180 1.247 . S
C175 O181 1.208 . S
C176 O168 1.315 . S
C176 O171 1.279 . S
C177 O178 1.315 . S
C177 O179 1.279 . S
O178 Cd170 2.223 . S
O178 C177 1.315 . S
O179 Cd169 2.240 . S
O179 C177 1.279 . S
O180 Cd170 2.297 . S
O180 C175 1.247 . S
O181 Cd170 2.439 . S
O181 C175 1.208 . S
O182 Cd183 2.223 . S
O182 C190 1.315 . S
Cd183 O182 2.223 . S
Cd183 O186 2.297 . S
Cd183 O187 2.439 . S
Cd183 O193 2.240 . S
Cd184 O185 2.240 . S
Cd184 O192 2.223 1_556 S
Cd184 O194 2.297 . S
Cd184 O195 2.439 . S
O185 Cd184 2.240 . S
O185 C190 1.279 . S
O186 Cd183 2.297 . S
O186 C188 1.247 . S
O187 Cd183 2.439 . S
O187 C188 1.208 . S
C188 O186 1.247 . S
C188 O187 1.208 . S
C189 O194 1.247 . S
C189 O195 1.208 . S
C190 O182 1.315 . S
C190 O185 1.279 . S
C191 O192 1.315 1_556 S
C191 O193 1.279 . S
O192 Cd184 2.223 1_554 S
O192 C191 1.315 1_554 S
O193 Cd183 2.240 . S
O193 C191 1.279 . S
O194 Cd184 2.297 . S
O194 C189 1.247 . S
O195 Cd184 2.439 . S
O195 C189 1.208 . S
O196 Cd197 2.223 . S
O196 C204 1.315 . S
Cd197 O196 2.223 . S
Cd197 O200 2.297 . S
Cd197 O201 2.439 . S
Cd197 O207 2.240 . S
Cd198 O199 2.240 . S
Cd198 O206 2.223 . S
Cd198 O208 2.297 . S
Cd198 O209 2.439 . S
O199 Cd198 2.240 . S
O199 C204 1.279 . S
O200 Cd197 2.297 . S
O200 C202 1.247 . S
O201 Cd197 2.439 . S
O201 C202 1.208 . S
C202 O200 1.247 . S
C202 O201 1.208 . S
C203 O208 1.247 . S
C203 O209 1.208 . S
C204 O196 1.315 . S
C204 O199 1.279 . S
C205 O206 1.315 . S
C205 O207 1.279 . S
O206 Cd198 2.223 . S
O206 C205 1.315 . S
O207 Cd197 2.240 . S
O207 C205 1.279 . S
O208 Cd198 2.297 . S
O208 C203 1.247 . S
O209 Cd198 2.439 . S
O209 C203 1.208 . S
O210 Cd211 2.223 . S
O210 C218 1.315 . S
Cd211 O210 2.223 . S
Cd211 O214 2.297 . S
Cd211 O215 2.439 . S
Cd211 O221 2.240 . S
Cd212 O213 2.240 . S
Cd212 O220 2.223 . S
Cd212 O222 2.297 . S
Cd212 O223 2.439 . S
O213 Cd212 2.240 . S
O213 C218 1.279 . S
O214 Cd211 2.297 . S
O214 C216 1.247 . S
O215 Cd211 2.439 . S
O215 C216 1.208 . S
C216 O214 1.247 . S
C216 O215 1.208 . S
C217 O222 1.247 . S
C217 O223 1.208 . S
C218 O210 1.315 . S
C218 O213 1.279 . S
C219 O220 1.315 . S
C219 O221 1.279 . S
O220 Cd212 2.223 . S
O220 C219 1.315 . S
O221 Cd211 2.240 . S
O221 C219 1.279 . S
O222 Cd212 2.297 . S
O222 C217 1.247 . S
O223 Cd212 2.439 . S
O223 C217 1.208 . S
O224 Cd225 2.223 . S
O224 C232 1.315 . S
Cd225 O224 2.223 . S
Cd225 O228 2.297 . S
Cd225 O229 2.439 . S
Cd225 O235 2.240 . S
Cd226 O227 2.240 . S
Cd226 O234 2.223 . S
Cd226 O236 2.297 . S
Cd226 O237 2.439 . S
O227 Cd226 2.240 . S
O227 C232 1.279 . S
O228 Cd225 2.297 . S
O228 C230 1.247 . S
O229 Cd225 2.439 . S
O229 C230 1.208 . S
C230 O228 1.247 . S
C230 O229 1.208 . S
C231 O236 1.247 . S
C231 O237 1.208 . S
C232 O224 1.315 . S
C232 O227 1.279 . S
C233 O234 1.315 . S
C233 O235 1.279 . S
O234 Cd226 2.223 . S
O234 C233 1.315 . S
O235 Cd225 2.240 . S
O235 C233 1.279 . S
O236 Cd226 2.297 . S
O236 C231 1.247 . S
O237 Cd226 2.439 . S
O237 C231 1.208 . S
O238 Cd239 2.223 . S
O238 C246 1.315 . S
Cd239 O238 2.223 . S
Cd239 O242 2.297 . S
Cd239 O243 2.439 . S
Cd239 O249 2.240 . S
Cd240 O241 2.240 . S
Cd240 O248 2.223 1_545 S
Cd240 O250 2.297 . S
Cd240 O251 2.439 . S
O241 Cd240 2.240 . S
O241 C246 1.279 . S
O242 Cd239 2.297 . S
O242 C244 1.247 . S
O243 Cd239 2.439 . S
O243 C244 1.208 . S
C244 O242 1.247 . S
C244 O243 1.208 . S
C245 O250 1.247 . S
C245 O251 1.208 . S
C246 O238 1.315 . S
C246 O241 1.279 . S
C247 O248 1.315 1_545 S
C247 O249 1.279 . S
O248 Cd240 2.223 1_565 S
O248 C247 1.315 1_565 S
O249 Cd239 2.240 . S
O249 C247 1.279 . S
O250 Cd240 2.297 . S
O250 C245 1.247 . S
O251 Cd240 2.439 . S
O251 C245 1.208 . S
O252 Cd253 2.223 . S
O252 C260 1.315 . S
Cd253 O252 2.223 . S
Cd253 O256 2.297 . S
Cd253 O257 2.439 . S
Cd253 O263 2.240 . S
Cd254 O255 2.240 . S
Cd254 O262 2.223 . S
Cd254 O264 2.297 . S
Cd254 O265 2.439 . S
O255 Cd254 2.240 . S
O255 C260 1.279 . S
O256 Cd253 2.297 . S
O256 C258 1.247 . S
O257 Cd253 2.439 . S
O257 C258 1.208 . S
C258 O256 1.247 . S
C258 O257 1.208 . S
C259 O264 1.247 . S
C259 O265 1.208 . S
C260 O252 1.315 . S
C260 O255 1.279 . S
C261 O262 1.315 . S
C261 O263 1.279 . S
O262 Cd254 2.223 . S
O262 C261 1.315 . S
O263 Cd253 2.240 . S
O263 C261 1.279 . S
O264 Cd254 2.297 . S
O264 C259 1.247 . S
O265 Cd254 2.439 . S
O265 C259 1.208 . S
O266 Cd267 2.223 . S
O266 C274 1.315 . S
Cd267 O266 2.223 . S
Cd267 O270 2.297 . S
Cd267 O271 2.439 . S
Cd267 O277 2.240 . S
Cd268 O269 2.240 . S
Cd268 O276 2.223 . S
Cd268 O278 2.297 . S
Cd268 O279 2.439 . S
O269 Cd268 2.240 . S
O269 C274 1.279 . S
O270 Cd267 2.297 . S
O270 C272 1.247 . S
O271 Cd267 2.439 . S
O271 C272 1.208 . S
C272 O270 1.247 . S
C272 O271 1.208 . S
C273 O278 1.247 . S
C273 O279 1.208 . S
C274 O266 1.315 . S
C274 O269 1.279 . S
C275 O276 1.315 . S
C275 O277 1.279 . S
O276 Cd268 2.223 . S
O276 C275 1.315 . S
O277 Cd267 2.240 . S
O277 C275 1.279 . S
O278 Cd268 2.297 . S
O278 C273 1.247 . S
O279 Cd268 2.439 . S
O279 C273 1.208 . S
O280 Cd281 2.223 . S
O280 C288 1.315 . S
Cd281 O280 2.223 . S
Cd281 O284 2.297 . S
Cd281 O285 2.439 . S
Cd281 O291 2.240 . S
Cd282 O283 2.240 . S
Cd282 O290 2.223 . S
Cd282 O292 2.297 . S
Cd282 O293 2.439 . S
O283 Cd282 2.240 . S
O283 C288 1.279 . S
O284 Cd281 2.297 . S
O284 C286 1.247 . S
O285 Cd281 2.439 . S
O285 C286 1.208 . S
C286 O284 1.247 . S
C286 O285 1.208 . S
C287 O292 1.247 . S
C287 O293 1.208 . S
C288 O280 1.315 . S
C288 O283 1.279 . S
C289 O290 1.315 . S
C289 O291 1.279 . S
O290 Cd282 2.223 . S
O290 C289 1.315 . S
O291 Cd281 2.240 . S
O291 C289 1.279 . S
O292 Cd282 2.297 . S
O292 C287 1.247 . S
O293 Cd282 2.439 . S
O293 C287 1.208 . S
O294 Cd295 2.223 . S
O294 C302 1.315 . S
Cd295 O294 2.223 . S
Cd295 O298 2.297 . S
Cd295 O299 2.439 . S
Cd295 O305 2.240 . S
Cd296 O297 2.240 . S
Cd296 O304 2.223 . S
Cd296 O306 2.297 . S
Cd296 O307 2.439 . S
O297 Cd296 2.240 . S
O297 C302 1.279 . S
O298 Cd295 2.297 . S
O298 C300 1.247 . S
O299 Cd295 2.439 . S
O299 C300 1.208 . S
C300 O298 1.247 . S
C300 O299 1.208 . S
C301 O306 1.247 . S
C301 O307 1.208 . S
C302 O294 1.315 . S
C302 O297 1.279 . S
C303 O304 1.315 . S
C303 O305 1.279 . S
O304 Cd296 2.223 . S
O304 C303 1.315 . S
O305 Cd295 2.240 . S
O305 C303 1.279 . S
O306 Cd296 2.297 . S
O306 C301 1.247 . S
O307 Cd296 2.439 . S
O307 C301 1.208 . S
O308 Cd309 2.223 . S
O308 C316 1.315 . S
Cd309 O308 2.223 . S
Cd309 O312 2.297 . S
Cd309 O313 2.439 . S
Cd309 O319 2.240 . S
Cd310 O311 2.240 . S
Cd310 O318 2.223 . S
Cd310 O320 2.297 . S
Cd310 O321 2.439 . S
O311 Cd310 2.240 . S
O311 C316 1.279 . S
O312 Cd309 2.297 . S
O312 C314 1.247 . S
O313 Cd309 2.439 . S
O313 C314 1.208 . S
C314 O312 1.247 . S
C314 O313 1.208 . S
C315 O320 1.247 . S
C315 O321 1.208 . S
C316 O308 1.315 . S
C316 O311 1.279 . S
C317 O318 1.315 . S
C317 O319 1.279 . S
O318 Cd310 2.223 . S
O318 C317 1.315 . S
O319 Cd309 2.240 . S
O319 C317 1.279 . S
O320 Cd310 2.297 . S
O320 C315 1.247 . S
O321 Cd310 2.439 . S
O321 C315 1.208 . S
O322 Cd323 2.223 . S
O322 C330 1.315 . S
Cd323 O322 2.223 . S
Cd323 O326 2.297 . S
Cd323 O327 2.439 . S
Cd323 O333 2.240 . S
Cd324 O325 2.240 . S
Cd324 O332 2.223 . S
Cd324 O334 2.297 . S
Cd324 O335 2.439 . S
O325 Cd324 2.240 . S
O325 C330 1.279 . S
O326 Cd323 2.297 . S
O326 C328 1.247 . S
O327 Cd323 2.439 . S
O327 C328 1.208 . S
C328 O326 1.247 . S
C328 O327 1.208 . S
C329 O334 1.247 . S
C329 O335 1.208 . S
C330 O322 1.315 . S
C330 O325 1.279 . S
C331 O332 1.315 . S
C331 O333 1.279 . S
O332 Cd324 2.223 . S
O332 C331 1.315 . S
O333 Cd323 2.240 . S
O333 C331 1.279 . S
O334 Cd324 2.297 . S
O334 C329 1.247 . S
O335 Cd324 2.439 . S
O335 C329 1.208 . S
O336 Cd337 2.223 . S
O336 C344 1.315 . S
Cd337 O336 2.223 . S
Cd337 O340 2.297 . S
Cd337 O341 2.439 . S
Cd337 O347 2.240 . S
Cd338 O339 2.240 . S
Cd338 O346 2.223 . S
Cd338 O348 2.297 . S
Cd338 O349 2.439 . S
O339 Cd338 2.240 . S
O339 C344 1.279 . S
O340 Cd337 2.297 . S
O340 C342 1.247 . S
O341 Cd337 2.439 . S
O341 C342 1.208 . S
C342 O340 1.247 . S
C342 O341 1.208 . S
C343 O348 1.247 . S
C343 O349 1.208 . S
C344 O336 1.315 . S
C344 O339 1.279 . S
C345 O346 1.315 . S
C345 O347 1.279 . S
O346 Cd338 2.223 . S
O346 C345 1.315 . S
O347 Cd337 2.240 . S
O347 C345 1.279 . S
O348 Cd338 2.297 . S
O348 C343 1.247 . S
O349 Cd338 2.439 . S
O349 C343 1.208 . S
O350 Cd351 2.223 . S
O350 C358 1.315 . S
Cd351 O350 2.223 . S
Cd351 O354 2.297 . S
Cd351 O355 2.439 . S
Cd351 O361 2.240 . S
Cd352 O353 2.240 . S
Cd352 O360 2.223 . S
Cd352 O362 2.297 . S
Cd352 O363 2.439 . S
O353 Cd352 2.240 . S
O353 C358 1.279 . S
O354 Cd351 2.297 . S
O354 C356 1.247 . S
O355 Cd351 2.439 . S
O355 C356 1.208 . S
C356 O354 1.247 . S
C356 O355 1.208 . S
C357 O362 1.247 . S
C357 O363 1.208 . S
C358 O350 1.315 . S
C358 O353 1.279 . S
C359 O360 1.315 . S
C359 O361 1.279 . S
O360 Cd352 2.223 . S
O360 C359 1.315 . S
O361 Cd351 2.240 . S
O361 C359 1.279 . S
O362 Cd352 2.297 . S
O362 C357 1.247 . S
O363 Cd352 2.439 . S
O363 C357 1.208 . S
O364 Cd365 2.223 . S
O364 C372 1.315 . S
Cd365 O364 2.223 . S
Cd365 O368 2.297 . S
Cd365 O369 2.439 . S
Cd365 O375 2.240 . S
Cd366 O367 2.240 . S
Cd366 O374 2.223 . S
Cd366 O376 2.297 . S
Cd366 O377 2.439 . S
O367 Cd366 2.240 . S
O367 C372 1.279 . S
O368 Cd365 2.297 . S
O368 C370 1.247 . S
O369 Cd365 2.439 . S
O369 C370 1.208 . S
C370 O368 1.247 . S
C370 O369 1.208 . S
C371 O376 1.247 . S
C371 O377 1.208 . S
C372 O364 1.315 . S
C372 O367 1.279 . S
C373 O374 1.315 . S
C373 O375 1.279 . S
O374 Cd366 2.223 . S
O374 C373 1.315 . S
O375 Cd365 2.240 . S
O375 C373 1.279 . S
O376 Cd366 2.297 . S
O376 C371 1.247 . S
O377 Cd366 2.439 . S
O377 C371 1.208 . S
O378 Cd379 2.223 . S
O378 C386 1.315 . S
Cd379 O378 2.223 . S
Cd379 O382 2.297 . S
Cd379 O383 2.439 . S
Cd379 O389 2.240 . S
Cd380 O381 2.240 . S
Cd380 O388 2.223 1_655 S
Cd380 O390 2.297 1_655 S
Cd380 O391 2.439 . S
O381 Cd380 2.240 . S
O381 C386 1.279 . S
O382 Cd379 2.297 . S
O382 C384 1.247 . S
O383 Cd379 2.439 . S
O383 C384 1.208 . S
C384 O382 1.247 . S
C384 O383 1.208 . S
C385 O390 1.247 . S
C385 O391 1.208 1_455 S
C386 O378 1.315 . S
C386 O381 1.279 . S
C387 O388 1.315 . S
C387 O389 1.279 1_455 S
O388 Cd380 2.223 1_455 S
O388 C387 1.315 . S
O389 Cd379 2.240 . S
O389 C387 1.279 1_655 S
O390 Cd380 2.297 1_455 S
O390 C385 1.247 . S
O391 Cd380 2.439 . S
O391 C385 1.208 1_655 S
O392 Cd393 2.223 . S
O392 C400 1.315 . S
Cd393 O392 2.223 . S
Cd393 O396 2.297 . S
Cd393 O397 2.439 . S
Cd393 O403 2.240 . S
Cd394 O395 2.240 . S
Cd394 O402 2.223 . S
Cd394 O404 2.297 . S
Cd394 O405 2.439 . S
O395 Cd394 2.240 . S
O395 C400 1.279 . S
O396 Cd393 2.297 . S
O396 C398 1.247 . S
O397 Cd393 2.439 . S
O397 C398 1.208 . S
C398 O396 1.247 . S
C398 O397 1.208 . S
C399 O404 1.247 . S
C399 O405 1.208 . S
C400 O392 1.315 . S
C400 O395 1.279 . S
C401 O402 1.315 . S
C401 O403 1.279 . S
O402 Cd394 2.223 . S
O402 C401 1.315 . S
O403 Cd393 2.240 . S
O403 C401 1.279 . S
O404 Cd394 2.297 . S
O404 C399 1.247 . S
O405 Cd394 2.439 . S
O405 C399 1.208 . S
O406 Cd407 2.223 . S
O406 C414 1.315 . S
Cd407 O406 2.223 . S
Cd407 O410 2.297 . S
Cd407 O411 2.439 . S
Cd407 O417 2.240 . S
Cd408 O409 2.240 . S
Cd408 O416 2.223 . S
Cd408 O418 2.297 . S
Cd408 O419 2.439 . S
O409 Cd408 2.240 . S
O409 C414 1.279 . S
O410 Cd407 2.297 . S
O410 C412 1.247 . S
O411 Cd407 2.439 . S
O411 C412 1.208 . S
C412 O410 1.247 . S
C412 O411 1.208 . S
C413 O418 1.247 . S
C413 O419 1.208 . S
C414 O406 1.315 . S
C414 O409 1.279 . S
C415 O416 1.315 . S
C415 O417 1.279 . S
O416 Cd408 2.223 . S
O416 C415 1.315 . S
O417 Cd407 2.240 . S
O417 C415 1.279 . S
O418 Cd408 2.297 . S
O418 C413 1.247 . S
O419 Cd408 2.439 . S
O419 C413 1.208 . S
O420 Cd421 2.223 . S
O420 C428 1.315 . S
Cd421 O420 2.223 . S
Cd421 O424 2.297 . S
Cd421 O425 2.439 . S
Cd421 O431 2.240 . S
Cd422 O423 2.240 . S
Cd422 O430 2.223 1_556 S
Cd422 O432 2.297 . S
Cd422 O433 2.439 . S
O423 Cd422 2.240 . S
O423 C428 1.279 . S
O424 Cd421 2.297 . S
O424 C426 1.247 . S
O425 Cd421 2.439 . S
O425 C426 1.208 . S
C426 O424 1.247 . S
C426 O425 1.208 . S
C427 O432 1.247 . S
C427 O433 1.208 . S
C428 O420 1.315 . S
C428 O423 1.279 . S
C429 O430 1.315 1_556 S
C429 O431 1.279 . S
O430 Cd422 2.223 1_554 S
O430 C429 1.315 1_554 S
O431 Cd421 2.240 . S
O431 C429 1.279 . S
O432 Cd422 2.297 . S
O432 C427 1.247 . S
O433 Cd422 2.439 . S
O433 C427 1.208 . S
O434 Cd435 2.223 . S
O434 C442 1.315 . S
Cd435 O434 2.223 . S
Cd435 O438 2.297 . S
Cd435 O439 2.439 . S
Cd435 O445 2.240 . S
Cd436 O437 2.240 . S
Cd436 O444 2.223 . S
Cd436 O446 2.297 . S
Cd436 O447 2.439 . S
O437 Cd436 2.240 . S
O437 C442 1.279 . S
O438 Cd435 2.297 . S
O438 C440 1.247 . S
O439 Cd435 2.439 . S
O439 C440 1.208 . S
C440 O438 1.247 . S
C440 O439 1.208 . S
C441 O446 1.247 . S
C441 O447 1.208 . S
C442 O434 1.315 . S
C442 O437 1.279 . S
C443 O444 1.315 . S
C443 O445 1.279 . S
O444 Cd436 2.223 . S
O444 C443 1.315 . S
O445 Cd435 2.240 . S
O445 C443 1.279 . S
O446 Cd436 2.297 . S
O446 C441 1.247 . S
O447 Cd436 2.439 . S
O447 C441 1.208 . S
C448 C449 1.363 1_545 S
C448 C454 1.379 1_545 S
C448 N456 1.356 . S
C449 C448 1.363 1_565 S
C449 C455 1.363 . S
C450 C451 1.363 . S
C450 C455 1.379 . S
C450 N457 1.356 . S
C451 C450 1.363 . S
C451 C454 1.363 . S
N452 C454 1.356 1_556 S
N452 H464 0.992 . S
N452 H465 0.985 . S
N453 C455 1.356 1_455 S
N453 H458 0.984 . S
N453 H459 0.985 . S
C454 C448 1.379 1_565 S
C454 C451 1.363 . S
C454 N452 1.356 1_554 S
C455 C449 1.363 . S
C455 C450 1.379 . S
C455 N453 1.356 1_655 S
N456 C448 1.356 . S
N456 H462 0.984 . S
N456 H463 0.984 . S
N457 C450 1.356 . S
N457 H460 0.984 . S
N457 H461 0.985 . S
H458 N453 0.984 . S
H459 N453 0.985 . S
H460 N457 0.984 . S
H461 N457 0.985 . S
H462 N456 0.984 . S
H463 N456 0.984 . S
H464 N452 0.992 . S
H465 N452 0.985 . S
C466 C467 1.363 . S
C466 C472 1.379 . S
C466 N474 1.356 . S
C467 C466 1.363 . S
C467 C473 1.363 . S
C468 C469 1.363 . S
C468 C473 1.379 . S
C468 N475 1.356 . S
C469 C468 1.363 . S
C469 C472 1.363 . S
N470 C472 1.356 . S
N470 H482 0.984 . S
N470 H483 0.985 . S
N471 C473 1.356 . S
N471 H476 0.984 . S
N471 H477 0.985 . S
C472 C466 1.379 . S
C472 C469 1.363 . S
C472 N470 1.356 . S
C473 C467 1.363 . S
C473 C468 1.379 . S
C473 N471 1.356 . S
N474 C466 1.356 . S
N474 H480 0.984 . S
N474 H481 0.984 . S
N475 C468 1.356 . S
N475 H478 0.984 . S
N475 H479 0.985 . S
H476 N471 0.984 . S
H477 N471 0.985 . S
H478 N475 0.984 . S
H479 N475 0.985 . S
H480 N474 0.984 . S
H481 N474 0.984 . S
H482 N470 0.984 . S
H483 N470 0.985 . S
C484 C485 1.363 . S
C484 C490 1.379 . S
C484 N492 1.356 1_545 S
C485 C484 1.363 . S
C485 C491 1.363 . S
C486 C487 1.363 . S
C486 C491 1.379 . S
C486 N493 1.356 . S
C487 C486 1.363 . S
C487 C490 1.363 . S
N488 C490 1.356 . S
N488 H500 0.984 . S
N488 H501 0.985 . S
N489 C491 1.356 . S
N489 H494 0.984 . S
N489 H495 0.985 . S
C490 C484 1.379 . S
C490 C487 1.363 . S
C490 N488 1.356 . S
C491 C485 1.363 . S
C491 C486 1.379 . S
C491 N489 1.356 . S
N492 C484 1.356 1_565 S
N492 H498 0.984 . S
N492 H499 0.984 . S
N493 C486 1.356 . S
N493 H496 0.984 . S
N493 H497 0.985 . S
H494 N489 0.984 . S
H495 N489 0.985 . S
H496 N493 0.984 . S
H497 N493 0.985 . S
H498 N492 0.984 . S
H499 N492 0.984 . S
H500 N488 0.984 . S
H501 N488 0.985 . S
C502 C503 1.363 . S
C502 C508 1.379 . S
C502 N510 1.356 . S
C503 C502 1.363 . S
C503 C509 1.363 . S
C504 C505 1.363 . S
C504 C509 1.379 . S
C504 N511 1.356 . S
C505 C504 1.363 . S
C505 C508 1.363 . S
N506 C508 1.356 . S
N506 H518 0.984 . S
N506 H519 0.985 . S
N507 C509 1.356 . S
N507 H512 0.984 . S
N507 H513 0.985 . S
C508 C502 1.379 . S
C508 C505 1.363 . S
C508 N506 1.356 . S
C509 C503 1.363 . S
C509 C504 1.379 . S
C509 N507 1.356 . S
N510 C502 1.356 . S
N510 H516 0.984 . S
N510 H517 0.984 . S
N511 C504 1.356 . S
N511 H514 0.984 . S
N511 H515 0.985 . S
H512 N507 0.984 . S
H513 N507 0.985 . S
H514 N511 0.984 . S
H515 N511 0.985 . S
H516 N510 0.984 . S
H517 N510 0.984 . S
H518 N506 0.984 . S
H519 N506 0.985 . S
C520 C521 1.363 1_455 S
C520 C526 1.379 1_455 S
C520 N528 1.356 . S
C521 C520 1.363 1_655 S
C521 C527 1.363 . S
C522 C523 1.363 . S
C522 C527 1.379 . S
C522 N529 1.356 . S
C523 C522 1.363 . S
C523 C526 1.363 . S
N524 C526 1.356 . S
N524 H536 0.985 1_665 S
N524 H537 0.985 1_565 S
N525 C527 1.356 . S
N525 H530 0.984 . S
N525 H531 0.985 . S
C526 C520 1.379 1_655 S
C526 C523 1.363 . S
C526 N524 1.356 . S
C527 C521 1.363 . S
C527 C522 1.379 . S
C527 N525 1.356 . S
N528 C520 1.356 . S
N528 H534 0.984 . S
N528 H535 0.984 . S
N529 C522 1.356 . S
N529 H532 0.984 . S
N529 H533 0.985 . S
H530 N525 0.984 . S
H531 N525 0.985 . S
H532 N529 0.984 . S
H533 N529 0.985 . S
H534 N528 0.984 . S
H535 N528 0.984 . S
H536 N524 0.985 1_445 S
H537 N524 0.985 1_545 S
C538 C539 1.363 . S
C538 C544 1.379 . S
C538 N546 1.356 . S
C539 C538 1.363 . S
C539 C545 1.363 . S
C540 C541 1.363 . S
C540 C545 1.379 . S
C540 N547 1.356 . S
C541 C540 1.363 . S
C541 C544 1.363 . S
N542 C544 1.356 . S
N542 H554 0.984 . S
N542 H555 0.985 . S
N543 C545 1.356 . S
N543 H548 0.984 . S
N543 H549 0.985 . S
C544 C538 1.379 . S
C544 C541 1.363 . S
C544 N542 1.356 . S
C545 C539 1.363 . S
C545 C540 1.379 . S
C545 N543 1.356 . S
N546 C538 1.356 . S
N546 H552 0.984 . S
N546 H553 0.984 . S
N547 C540 1.356 . S
N547 H550 0.984 . S
N547 H551 0.985 . S
H548 N543 0.984 . S
H549 N543 0.985 . S
H550 N547 0.984 . S
H551 N547 0.985 . S
H552 N546 0.984 . S
H553 N546 0.984 . S
H554 N542 0.984 . S
H555 N542 0.985 . S
C556 C557 1.355 1_565 S
C556 C562 1.382 1_556 S
C556 N564 1.359 . S
C557 C556 1.355 1_545 S
C557 C563 1.363 1_556 S
C558 C559 1.363 . S
C558 C563 1.379 . S
C558 N565 1.356 . S
C559 C558 1.363 . S
C559 C562 1.363 1_545 S
N560 C562 1.356 . S
N560 H572 0.984 1_554 S
N560 H573 0.985 . S
N561 C563 1.356 . S
N561 H566 0.984 . S
N561 H567 0.985 . S
C562 C556 1.382 1_554 S
C562 C559 1.363 1_565 S
C562 N560 1.356 . S
C563 C557 1.363 1_554 S
C563 C558 1.379 . S
C563 N561 1.356 . S
N564 C556 1.359 . S
N564 H570 0.984 . S
N564 H571 0.984 1_565 S
N565 C558 1.356 . S
N565 H568 0.984 . S
N565 H569 0.985 . S
H566 N561 0.984 . S
H567 N561 0.985 . S
H568 N565 0.984 . S
H569 N565 0.985 . S
H570 N564 0.984 . S
H571 N564 0.984 1_545 S
H572 N560 0.984 1_556 S
H573 N560 0.985 . S
C574 C575 1.363 . S
C574 C580 1.379 . S
C574 N582 1.356 . S
C575 C574 1.363 . S
C575 C581 1.363 . S
C576 C577 1.363 . S
C576 C581 1.379 . S
C576 N583 1.356 . S
C577 C576 1.363 . S
C577 C580 1.363 . S
N578 C580 1.356 . S
N578 H590 0.984 . S
N578 H591 0.985 . S
N579 C581 1.356 . S
N579 H584 0.984 . S
N579 H585 0.985 . S
C580 C574 1.379 . S
C580 C577 1.363 . S
C580 N578 1.356 . S
C581 C575 1.363 . S
C581 C576 1.379 . S
C581 N579 1.356 . S
N582 C574 1.356 . S
N582 H588 0.984 . S
N582 H589 0.984 . S
N583 C576 1.356 . S
N583 H586 0.984 . S
N583 H587 0.985 . S
H584 N579 0.984 . S
H585 N579 0.985 . S
H586 N583 0.984 . S
H587 N583 0.985 . S
H588 N582 0.984 . S
H589 N582 0.984 . S
H590 N578 0.984 . S
H591 N578 0.985 . S
C592 C593 1.363 1_556 S
C592 C598 1.379 . S
C592 N600 1.356 . S
C593 C592 1.363 1_554 S
C593 C599 1.363 . S
C594 C595 1.363 . S
C594 C599 1.379 1_556 S
C594 N601 1.356 . S
C595 C594 1.363 . S
C595 C598 1.363 . S
N596 C598 1.356 . S
N596 H608 0.984 . S
N596 H609 0.985 . S
N597 C599 1.356 . S
N597 H602 0.984 . S
N597 H603 0.985 . S
C598 C592 1.379 . S
C598 C595 1.363 . S
C598 N596 1.356 . S
C599 C593 1.363 . S
C599 C594 1.379 1_554 S
C599 N597 1.356 . S
N600 C592 1.356 . S
N600 H606 0.984 . S
N600 H607 0.984 1_556 S
N601 C594 1.356 . S
N601 H604 0.984 . S
N601 H605 0.985 1_556 S
H602 N597 0.984 . S
H603 N597 0.985 . S
H604 N601 0.984 . S
H605 N601 0.985 1_554 S
H606 N600 0.984 . S
H607 N600 0.984 1_554 S
H608 N596 0.984 . S
H609 N596 0.985 . S
C610 C611 1.363 . S
C610 C616 1.379 . S
C610 N618 1.356 . S
C611 C610 1.363 . S
C611 C617 1.363 . S
C612 C613 1.363 . S
C612 C617 1.379 . S
C612 N619 1.356 . S
C613 C612 1.363 . S
C613 C616 1.363 . S
N614 C616 1.356 . S
N614 H626 0.984 . S
N614 H627 0.985 . S
N615 C617 1.356 . S
N615 H620 0.984 . S
N615 H621 0.985 . S
C616 C610 1.379 . S
C616 C613 1.363 . S
C616 N614 1.356 . S
C617 C611 1.363 . S
C617 C612 1.379 . S
C617 N615 1.356 . S
N618 C610 1.356 . S
N618 H624 0.984 . S
N618 H625 0.984 . S
N619 C612 1.356 . S
N619 H622 0.984 . S
N619 H623 0.985 . S
H620 N615 0.984 . S
H621 N615 0.985 . S
H622 N619 0.984 . S
H623 N619 0.985 . S
H624 N618 0.984 . S
H625 N618 0.984 . S
H626 N614 0.984 . S
H627 N614 0.985 . S
C628 C629 1.363 1_655 S
C628 C634 1.379 . S
C628 N636 1.356 1_655 S
C629 C628 1.363 1_455 S
C629 C635 1.363 . S
C630 C631 1.363 . S
C630 C635 1.379 1_655 S
C630 N637 1.356 . S
C631 C630 1.363 . S
C631 C634 1.363 . S
N632 C634 1.356 . S
N632 H644 0.984 . S
N632 H645 0.985 . S
N633 C635 1.356 . S
N633 H638 0.984 . S
N633 H639 0.985 . S
C634 C628 1.379 . S
C634 C631 1.363 . S
C634 N632 1.356 . S
C635 C629 1.363 . S
C635 C630 1.379 1_455 S
C635 N633 1.356 . S
N636 C628 1.356 1_455 S
N636 H642 0.984 1_455 S
N636 H643 0.984 . S
N637 C630 1.356 . S
N637 H640 0.984 . S
N637 H641 0.985 1_655 S
H638 N633 0.984 . S
H639 N633 0.985 . S
H640 N637 0.984 . S
H641 N637 0.985 1_455 S
H642 N636 0.984 1_655 S
H643 N636 0.984 . S
H644 N632 0.984 . S
H645 N632 0.985 . S
C646 C647 1.363 . S
C646 C652 1.379 . S
C646 N654 1.356 . S
C647 C646 1.363 . S
C647 C653 1.363 . S
C648 C649 1.363 . S
C648 C653 1.379 . S
C648 N655 1.356 . S
C649 C648 1.363 . S
C649 C652 1.363 . S
N650 C652 1.356 . S
N650 H662 0.984 . S
N650 H663 0.985 . S
N651 C653 1.356 . S
N651 H656 0.984 . S
N651 H657 0.985 . S
C652 C646 1.379 . S
C652 C649 1.363 . S
C652 N650 1.356 . S
C653 C647 1.363 . S
C653 C648 1.379 . S
C653 N651 1.356 . S
N654 C646 1.356 . S
N654 H660 0.984 . S
N654 H661 0.984 . S
N655 C648 1.356 . S
N655 H658 0.984 . S
N655 H659 0.985 . S
H656 N651 0.984 . S
H657 N651 0.985 . S
H658 N655 0.984 . S
H659 N655 0.985 . S
H660 N654 0.984 . S
H661 N654 0.984 . S
H662 N650 0.984 . S
H663 N650 0.985 . S
C664 C665 1.363 . S
C664 C670 1.379 . S
C664 N672 1.356 . S
C665 C664 1.363 . S
C665 C671 1.363 . S
C666 C667 1.363 . S
C666 C671 1.379 . S
C666 N673 1.356 . S
C667 C666 1.363 . S
C667 C670 1.363 . S
N668 C670 1.356 . S
N668 H680 0.984 . S
N668 H681 0.985 . S
N669 C671 1.356 . S
N669 H674 0.984 . S
N669 H675 0.985 . S
C670 C664 1.379 . S
C670 C667 1.363 . S
C670 N668 1.356 . S
C671 C665 1.363 . S
C671 C666 1.379 . S
C671 N669 1.356 . S
N672 C664 1.356 . S
N672 H678 0.984 . S
N672 H679 0.984 . S
N673 C666 1.356 . S
N673 H676 0.984 . S
N673 H677 0.985 . S
H674 N669 0.984 . S
H675 N669 0.985 . S
H676 N673 0.984 . S
H677 N673 0.985 . S
H678 N672 0.984 . S
H679 N672 0.984 . S
H680 N668 0.984 . S
H681 N668 0.985 . S
C682 C683 1.363 . S
C682 C688 1.379 . S
C682 N690 1.356 . S
C683 C682 1.363 . S
C683 C689 1.363 . S
C684 C685 1.363 . S
C684 C689 1.379 . S
C684 N691 1.356 . S
C685 C684 1.363 . S
C685 C688 1.363 . S
N686 C688 1.356 . S
N686 H698 0.984 . S
N686 H699 0.985 . S
N687 C689 1.356 . S
N687 H692 0.984 . S
N687 H693 0.985 . S
C688 C682 1.379 . S
C688 C685 1.363 . S
C688 N686 1.356 . S
C689 C683 1.363 . S
C689 C684 1.379 . S
C689 N687 1.356 . S
N690 C682 1.356 . S
N690 H696 0.984 . S
N690 H697 0.984 . S
N691 C684 1.356 . S
N691 H694 0.984 . S
N691 H695 0.985 . S
H692 N687 0.984 . S
H693 N687 0.985 . S
H694 N691 0.984 . S
H695 N691 0.985 . S
H696 N690 0.984 . S
H697 N690 0.984 . S
H698 N686 0.984 . S
H699 N686 0.985 . S
C700 C701 1.363 . S
C700 C706 1.379 . S
C700 N708 1.356 . S
C701 C700 1.363 . S
C701 C707 1.363 . S
C702 C703 1.363 . S
C702 C707 1.379 . S
C702 N709 1.356 . S
C703 C702 1.363 . S
C703 C706 1.363 . S
N704 C706 1.356 . S
N704 H716 0.984 . S
N704 H717 0.985 . S
N705 C707 1.356 . S
N705 H710 0.984 . S
N705 H711 0.985 . S
C706 C700 1.379 . S
C706 C703 1.363 . S
C706 N704 1.356 . S
C707 C701 1.363 . S
C707 C702 1.379 . S
C707 N705 1.356 . S
N708 C700 1.356 . S
N708 H714 0.984 . S
N708 H715 0.984 . S
N709 C702 1.356 . S
N709 H712 0.984 . S
N709 H713 0.985 . S
H710 N705 0.984 . S
H711 N705 0.985 . S
H712 N709 0.984 . S
H713 N709 0.985 . S
H714 N708 0.984 . S
H715 N708 0.984 . S
H716 N704 0.984 . S
H717 N704 0.985 . S
C718 C719 1.363 1_655 S
C718 C724 1.379 . S
C718 N726 1.356 1_554 S
C719 C718 1.363 1_455 S
C719 C725 1.363 . S
C720 C721 1.363 . S
C720 C725 1.379 . S
C720 N727 1.356 . S
C721 C720 1.363 . S
C721 C724 1.363 1_455 S
N722 C724 1.356 . S
N722 H734 0.984 . S
N722 H735 0.985 . S
N723 C725 1.356 . S
N723 H728 0.984 . S
N723 H729 0.985 . S
C724 C718 1.379 . S
C724 C721 1.363 1_655 S
C724 N722 1.356 . S
C725 C719 1.363 . S
C725 C720 1.379 . S
C725 N723 1.356 . S
N726 C718 1.356 1_556 S
N726 H732 0.984 . S
N726 H733 0.984 . S
N727 C720 1.356 . S
N727 H730 0.984 . S
N727 H731 0.985 . S
H728 N723 0.984 . S
H729 N723 0.985 . S
H730 N727 0.984 . S
H731 N727 0.985 . S
H732 N726 0.984 . S
H733 N726 0.984 . S
H734 N722 0.984 . S
H735 N722 0.985 . S
C736 C737 1.363 . S
C736 C742 1.379 . S
C736 N744 1.356 1_565 S
C737 C736 1.363 . S
C737 C743 1.363 . S
C738 C739 1.363 . S
C738 C743 1.379 . S
C738 N745 1.356 . S
C739 C738 1.363 . S
C739 C742 1.363 . S
N740 C742 1.356 . S
N740 H752 0.984 1_565 S
N740 H753 0.985 . S
N741 C743 1.356 . S
N741 H746 0.984 . S
N741 H747 0.985 . S
C742 C736 1.379 . S
C742 C739 1.363 . S
C742 N740 1.356 . S
C743 C737 1.363 . S
C743 C738 1.379 . S
C743 N741 1.356 . S
N744 C736 1.356 1_545 S
N744 H750 0.984 . S
N744 H751 0.984 . S
N745 C738 1.356 . S
N745 H748 0.984 . S
N745 H749 0.985 . S
H746 N741 0.984 . S
H747 N741 0.985 . S
H748 N745 0.984 . S
H749 N745 0.985 . S
H750 N744 0.984 . S
H751 N744 0.984 . S
H752 N740 0.984 1_545 S
H753 N740 0.985 . S
C754 C755 1.363 . S
C754 C760 1.379 . S
C754 N762 1.356 . S
C755 C754 1.363 . S
C755 C761 1.363 . S
C756 C757 1.363 . S
C756 C761 1.379 . S
C756 N763 1.356 . S
C757 C756 1.363 . S
C757 C760 1.363 . S
N758 C760 1.356 . S
N758 H770 0.984 . S
N758 H771 0.985 . S
N759 C761 1.356 . S
N759 H764 0.984 . S
N759 H765 0.985 . S
C760 C754 1.379 . S
C760 C757 1.363 . S
C760 N758 1.356 . S
C761 C755 1.363 . S
C761 C756 1.379 . S
C761 N759 1.356 . S
N762 C754 1.356 . S
N762 H768 0.984 . S
N762 H769 0.984 . S
N763 C756 1.356 . S
N763 H766 0.984 . S
N763 H767 0.985 . S
H764 N759 0.984 . S
H765 N759 0.985 . S
H766 N763 0.984 . S
H767 N763 0.985 . S
H768 N762 0.984 . S
H769 N762 0.984 . S
H770 N758 0.984 . S
H771 N758 0.985 . S
C772 C773 1.363 . S
C772 C778 1.379 . S
C772 N780 1.356 . S
C773 C772 1.363 . S
C773 C779 1.363 . S
C774 C775 1.363 . S
C774 C779 1.379 . S
C774 N781 1.356 . S
C775 C774 1.363 . S
C775 C778 1.363 . S
N776 C778 1.356 . S
N776 H788 0.984 . S
N776 H789 0.985 1_545 S
N777 C779 1.356 . S
N777 H782 0.984 . S
N777 H783 0.985 . S
C778 C772 1.379 . S
C778 C775 1.363 . S
C778 N776 1.356 . S
C779 C773 1.363 . S
C779 C774 1.379 . S
C779 N777 1.356 . S
N780 C772 1.356 . S
N780 H786 0.984 . S
N780 H787 0.984 . S
N781 C774 1.356 . S
N781 H784 0.968 1_545 S
N781 H785 0.985 . S
H782 N777 0.984 . S
H783 N777 0.985 . S
H784 N781 0.968 1_565 S
H785 N781 0.985 . S
H786 N780 0.984 . S
H787 N780 0.984 . S
H788 N776 0.984 . S
H789 N776 0.985 1_565 S
C790 C791 1.363 . S
C790 C796 1.379 . S
C790 N798 1.356 . S
C791 C790 1.363 . S
C791 C797 1.363 . S
C792 C793 1.363 . S
C792 C797 1.379 1_554 S
C792 N799 1.356 . S
C793 C792 1.363 . S
C793 C796 1.363 1_554 S
N794 C796 1.356 1_554 S
N794 H806 0.984 1_554 S
N794 H807 0.985 . S
N795 C797 1.356 . S
N795 H800 0.984 . S
N795 H801 0.985 . S
C796 C790 1.379 . S
C796 C793 1.363 1_556 S
C796 N794 1.356 1_556 S
C797 C791 1.363 . S
C797 C792 1.379 1_556 S
C797 N795 1.356 . S
N798 C790 1.356 . S
N798 H804 0.984 . S
N798 H805 0.984 . S
N799 C792 1.356 . S
N799 H802 0.984 . S
N799 H803 0.985 . S
H800 N795 0.984 . S
H801 N795 0.985 . S
H802 N799 0.984 . S
H803 N799 0.985 . S
H804 N798 0.984 . S
H805 N798 0.984 . S
H806 N794 0.984 1_556 S
H807 N794 0.985 . S
C808 C809 1.363 . S
C808 C814 1.379 1_545 S
C808 N816 1.356 . S
C809 C808 1.363 . S
C809 C815 1.363 . S
C810 C811 1.363 1_545 S
C810 C815 1.379 . S
C810 N817 1.356 . S
C811 C810 1.363 1_565 S
C811 C814 1.363 . S
N812 C814 1.356 . S
N812 H824 0.984 . S
N812 H825 0.985 . S
N813 C815 1.356 . S
N813 H818 0.984 . S
N813 H819 0.985 . S
C814 C808 1.379 1_565 S
C814 C811 1.363 . S
C814 N812 1.356 . S
C815 C809 1.363 . S
C815 C810 1.379 . S
C815 N813 1.356 . S
N816 C808 1.356 . S
N816 H822 0.984 . S
N816 H823 0.984 . S
N817 C810 1.356 . S
N817 H820 0.984 1_545 S
N817 H821 0.985 . S
H818 N813 0.984 . S
H819 N813 0.985 . S
H820 N817 0.984 1_565 S
H821 N817 0.985 . S
H822 N816 0.984 . S
H823 N816 0.984 . S
H824 N812 0.984 . S
H825 N812 0.985 . S
C826 C827 1.363 . S
C826 C832 1.379 . S
C826 N834 1.356 . S
C827 C826 1.363 . S
C827 C833 1.363 . S
C828 C829 1.363 . S
C828 C833 1.379 . S
C828 N835 1.356 . S
C829 C828 1.363 . S
C829 C832 1.363 . S
N830 C832 1.356 . S
N830 H842 0.984 . S
N830 H843 0.985 . S
N831 C833 1.356 . S
N831 H836 0.984 . S
N831 H837 0.985 . S
C832 C826 1.379 . S
C832 C829 1.363 . S
C832 N830 1.356 . S
C833 C827 1.363 . S
C833 C828 1.379 . S
C833 N831 1.356 . S
N834 C826 1.356 . S
N834 H840 0.984 . S
N834 H841 0.984 . S
N835 C828 1.356 . S
N835 H838 0.984 . S
N835 H839 0.985 . S
H836 N831 0.984 . S
H837 N831 0.985 . S
H838 N835 0.984 . S
H839 N835 0.985 . S
H840 N834 0.984 . S
H841 N834 0.984 . S
H842 N830 0.984 . S
H843 N830 0.985 . S
C844 C845 1.363 1_565 S
C844 C850 1.379 . S
C844 N852 1.356 1_565 S
C845 C844 1.363 1_545 S
C845 C851 1.363 . S
C846 C847 1.363 . S
C846 C851 1.379 1_565 S
C846 N853 1.356 . S
C847 C846 1.363 . S
C847 C850 1.363 . S
N848 C850 1.356 . S
N848 H860 0.984 . S
N848 H861 0.985 . S
N849 C851 1.356 . S
N849 H854 0.984 . S
N849 H855 0.985 . S
C850 C844 1.379 . S
C850 C847 1.363 . S
C850 N848 1.356 . S
C851 C845 1.363 . S
C851 C846 1.379 1_545 S
C851 N849 1.356 . S
N852 C844 1.356 1_545 S
N852 H858 0.984 1_545 S
N852 H859 0.986 . S
N853 C846 1.356 . S
N853 H856 0.984 . S
N853 H857 0.985 . S
H854 N849 0.984 . S
H855 N849 0.985 . S
H856 N853 0.984 . S
H857 N853 0.985 . S
H858 N852 0.984 1_565 S
H859 N852 0.986 . S
H860 N848 0.984 . S
H861 N848 0.985 . S
C862 C863 1.363 1_554 S
C862 C868 1.379 . S
C862 N870 1.356 1_554 S
C863 C862 1.363 1_556 S
C863 C869 1.363 . S
C864 C865 1.363 . S
C864 C869 1.379 1_554 S
C864 N871 1.356 . S
C865 C864 1.363 . S
C865 C868 1.363 . S
N866 C868 1.356 . S
N866 H878 0.984 . S
N866 H879 0.985 . S
N867 C869 1.356 . S
N867 H872 0.984 . S
N867 H873 0.985 . S
C868 C862 1.379 . S
C868 C865 1.363 . S
C868 N866 1.356 . S
C869 C863 1.363 . S
C869 C864 1.379 1_556 S
C869 N867 1.356 . S
N870 C862 1.356 1_556 S
N870 H876 0.980 1_556 S
N870 H877 0.984 . S
N871 C864 1.356 . S
N871 H874 0.984 . S
N871 H875 0.985 . S
H872 N867 0.984 . S
H873 N867 0.985 . S
H874 N871 0.984 . S
H875 N871 0.985 . S
H876 N870 0.980 1_554 S
H877 N870 0.984 . S
H878 N866 0.984 . S
H879 N866 0.985 . S
C880 C881 1.363 . S
C880 C886 1.379 . S
C880 N888 1.356 . S
C881 C880 1.363 . S
C881 C887 1.363 . S
C882 C883 1.363 . S
C882 C887 1.379 . S
C882 N889 1.356 . S
C883 C882 1.363 . S
C883 C886 1.363 . S
N884 C886 1.358 1_455 S
N884 H896 0.984 . S
N884 H897 0.983 . S
N885 C887 1.356 . S
N885 H890 0.984 . S
N885 H891 0.985 . S
C886 C880 1.379 . S
C886 C883 1.363 . S
C886 N884 1.358 1_655 S
C887 C881 1.363 . S
C887 C882 1.379 . S
C887 N885 1.356 . S
N888 C880 1.356 . S
N888 H894 0.984 . S
N888 H895 0.984 . S
N889 C882 1.356 . S
N889 H892 0.984 . S
N889 H893 0.985 . S
H890 N885 0.984 . S
H891 N885 0.985 . S
H892 N889 0.984 . S
H893 N889 0.985 . S
H894 N888 0.984 . S
H895 N888 0.984 . S
H896 N884 0.984 . S
H897 N884 0.983 . S
C898 C899 1.363 . S
C898 C904 1.379 . S
C898 N906 1.356 . S
C899 C898 1.363 . S
C899 C905 1.363 . S
C900 C901 1.363 . S
C900 C905 1.379 . S
C900 N907 1.356 . S
C901 C900 1.363 . S
C901 C904 1.363 . S
N902 C904 1.356 . S
N902 H914 0.984 . S
N902 H915 0.985 . S
N903 C905 1.356 . S
N903 H908 0.984 . S
N903 H909 0.985 . S
C904 C898 1.379 . S
C904 C901 1.363 . S
C904 N902 1.356 . S
C905 C899 1.363 . S
C905 C900 1.379 . S
C905 N903 1.356 . S
N906 C898 1.356 . S
N906 H912 0.984 . S
N906 H913 0.984 . S
N907 C900 1.356 . S
N907 H910 0.984 . S
N907 H911 0.985 . S
H908 N903 0.984 . S
H909 N903 0.985 . S
H910 N907 0.984 . S
H911 N907 0.985 . S
H912 N906 0.984 . S
H913 N906 0.984 . S
H914 N902 0.984 . S
H915 N902 0.985 . S
C916 C917 1.363 1_455 S
C916 C922 1.379 . S
C916 N924 1.356 1_455 S
C917 C916 1.363 1_655 S
C917 C923 1.363 . S
C918 C919 1.363 . S
C918 C923 1.379 1_455 S
C918 N925 1.356 . S
C919 C918 1.363 . S
C919 C922 1.363 . S
N920 C922 1.356 . S
N920 H932 0.984 . S
N920 H933 0.985 . S
N921 C923 1.356 . S
N921 H926 0.984 . S
N921 H927 0.985 . S
C922 C916 1.379 . S
C922 C919 1.363 . S
C922 N920 1.356 . S
C923 C917 1.363 . S
C923 C918 1.379 1_655 S
C923 N921 1.356 . S
N924 C916 1.356 1_655 S
N924 H930 0.984 1_655 S
N924 H931 0.984 . S
N925 C918 1.356 . S
N925 H928 0.984 . S
N925 H929 0.985 1_455 S
H926 N921 0.984 . S
H927 N921 0.985 . S
H928 N925 0.984 . S
H929 N925 0.985 1_655 S
H930 N924 0.984 1_455 S
H931 N924 0.984 . S
H932 N920 0.984 . S
H933 N920 0.985 . S
C934 C935 1.363 . S
C934 C940 1.379 . S
C934 N942 1.356 . S
C935 C934 1.363 . S
C935 C941 1.363 . S
C936 C937 1.363 . S
C936 C941 1.379 . S
C936 N943 1.356 . S
C937 C936 1.363 . S
C937 C940 1.363 . S
N938 C940 1.356 . S
N938 H950 0.984 . S
N938 H951 0.985 . S
N939 C941 1.356 . S
N939 H944 0.984 . S
N939 H945 0.985 . S
C940 C934 1.379 . S
C940 C937 1.363 . S
C940 N938 1.356 . S
C941 C935 1.363 . S
C941 C936 1.379 . S
C941 N939 1.356 . S
N942 C934 1.356 . S
N942 H948 0.984 . S
N942 H949 0.984 . S
N943 C936 1.356 . S
N943 H946 0.984 . S
N943 H947 0.985 . S
H944 N939 0.984 . S
H945 N939 0.985 . S
H946 N943 0.984 . S
H947 N943 0.985 . S
H948 N942 0.984 . S
H949 N942 0.984 . S
H950 N938 0.984 . S
H951 N938 0.985 . S
C952 C953 1.363 . S
C952 C958 1.379 . S
C952 N960 1.356 . S
C953 C952 1.363 . S
C953 C959 1.363 . S
C954 C955 1.363 . S
C954 C959 1.379 . S
C954 N961 1.356 . S
C955 C954 1.363 . S
C955 C958 1.363 . S
N956 C958 1.356 . S
N956 H968 0.984 . S
N956 H969 0.985 . S
N957 C959 1.356 . S
N957 H962 0.984 . S
N957 H963 0.985 . S
C958 C952 1.379 . S
C958 C955 1.363 . S
C958 N956 1.356 . S
C959 C953 1.363 . S
C959 C954 1.379 . S
C959 N957 1.356 . S
N960 C952 1.356 . S
N960 H966 0.984 . S
N960 H967 0.984 . S
N961 C954 1.356 . S
N961 H964 0.984 . S
N961 H965 0.985 . S
H962 N957 0.984 . S
H963 N957 0.985 . S
H964 N961 0.984 . S
H965 N961 0.985 . S
H966 N960 0.984 . S
H967 N960 0.984 . S
H968 N956 0.984 . S
H969 N956 0.985 . S
C970 C971 1.363 . S
C970 C976 1.379 1_655 S
C970 N978 1.356 . S
C971 C970 1.363 . S
C971 C977 1.363 . S
C972 C973 1.363 . S
C972 C977 1.379 . S
C972 N979 1.356 . S
C973 C972 1.363 . S
C973 C976 1.363 1_655 S
N974 C976 1.356 . S
N974 H986 0.984 . S
N974 H987 0.985 . S
N975 C977 1.356 . S
N975 H980 0.984 . S
N975 H981 0.985 . S
C976 C970 1.379 1_455 S
C976 C973 1.363 1_455 S
C976 N974 1.356 . S
C977 C971 1.363 . S
C977 C972 1.379 . S
C977 N975 1.356 . S
N978 C970 1.356 . S
N978 H984 0.984 1_655 S
N978 H985 0.984 . S
N979 C972 1.356 . S
N979 H982 0.984 . S
N979 H983 0.985 . S
H980 N975 0.984 . S
H981 N975 0.985 . S
H982 N979 0.984 . S
H983 N979 0.985 . S
H984 N978 0.984 1_455 S
H985 N978 0.984 . S
H986 N974 0.984 . S
H987 N974 0.985 . S
C988 C989 1.363 . S
C988 C994 1.379 . S
C988 N996 1.356 . S
C989 C988 1.363 . S
C989 C995 1.363 . S
C990 C991 1.363 . S
C990 C995 1.379 . S
C990 N997 1.356 . S
C991 C990 1.363 . S
C991 C994 1.363 . S
N992 C994 1.356 . S
N992 H1004 0.984 . S
N992 H1005 0.985 . S
N993 C995 1.356 . S
N993 H998 0.984 . S
N993 H999 0.985 . S
C994 C988 1.379 . S
C994 C991 1.363 . S
C994 N992 1.356 . S
C995 C989 1.363 . S
C995 C990 1.379 . S
C995 N993 1.356 . S
N996 C988 1.356 . S
N996 H1002 0.984 . S
N996 H1003 0.984 . S
N997 C990 1.356 . S
N997 H1000 0.984 . S
N997 H1001 0.985 . S
H998 N993 0.984 . S
H999 N993 0.985 . S
H1000 N997 0.984 . S
H1001 N997 0.985 . S
H1002 N996 0.984 . S
H1003 N996 0.984 . S
H1004 N992 0.984 . S
H1005 N992 0.985 . S
C1006 C1007 1.363 . S
C1006 C1012 1.379 . S
C1006 N1014 1.356 . S
C1007 C1006 1.363 . S
C1007 C1013 1.363 . S
C1008 C1009 1.363 . S
C1008 C1013 1.379 1_565 S
C1008 N1015 1.356 . S
C1009 C1008 1.363 . S
C1009 C1012 1.363 1_565 S
N1010 C1012 1.363 . S
N1010 H1022 0.998 . S
N1010 H1023 0.965 1_545 S
N1011 C1013 1.356 . S
N1011 H1016 0.984 . S
N1011 H1017 0.985 . S
C1012 C1006 1.379 . S
C1012 C1009 1.363 1_545 S
C1012 N1010 1.363 . S
C1013 C1007 1.363 . S
C1013 C1008 1.379 1_545 S
C1013 N1011 1.356 . S
N1014 C1006 1.356 . S
N1014 H1020 0.984 . S
N1014 H1021 0.984 . S
N1015 C1008 1.356 . S
N1015 H1018 0.984 . S
N1015 H1019 0.985 . S
H1016 N1011 0.984 . S
H1017 N1011 0.985 . S
H1018 N1015 0.984 . S
H1019 N1015 0.985 . S
H1020 N1014 0.984 . S
H1021 N1014 0.984 . S
H1022 N1010 0.998 . S
H1023 N1010 0.965 1_565 S
C1024 C1025 1.363 . S
C1024 C1030 1.379 . S
C1024 N1032 1.356 . S
C1025 C1024 1.363 . S
C1025 C1031 1.363 . S
C1026 C1027 1.363 . S
C1026 C1031 1.379 . S
C1026 N1033 1.356 . S
C1027 C1026 1.363 . S
C1027 C1030 1.363 . S
N1028 C1030 1.356 . S
N1028 H1040 0.984 . S
N1028 H1041 0.985 . S
N1029 C1031 1.356 . S
N1029 H1034 0.984 . S
N1029 H1035 0.985 . S
C1030 C1024 1.379 . S
C1030 C1027 1.363 . S
C1030 N1028 1.356 . S
C1031 C1025 1.363 . S
C1031 C1026 1.379 . S
C1031 N1029 1.356 . S
N1032 C1024 1.356 . S
N1032 H1038 0.984 . S
N1032 H1039 0.984 . S
N1033 C1026 1.356 . S
N1033 H1036 0.984 . S
N1033 H1037 0.985 . S
H1034 N1029 0.984 . S
H1035 N1029 0.985 . S
H1036 N1033 0.984 . S
H1037 N1033 0.985 . S
H1038 N1032 0.984 . S
H1039 N1032 0.984 . S
H1040 N1028 0.984 . S
H1041 N1028 0.985 . S
C1042 C1043 1.363 . S
C1042 C1048 1.379 1_565 S
C1042 N1050 1.356 . S
C1043 C1042 1.363 . S
C1043 C1049 1.363 . S
C1044 C1045 1.363 1_565 S
C1044 C1049 1.379 . S
C1044 N1051 1.356 1_565 S
C1045 C1044 1.363 1_545 S
C1045 C1048 1.363 . S
N1046 C1048 1.356 . S
N1046 H1058 0.984 . S
N1046 H1059 0.985 . S
N1047 C1049 1.356 . S
N1047 H1052 0.984 . S
N1047 H1053 0.985 . S
C1048 C1042 1.379 1_545 S
C1048 C1045 1.363 . S
C1048 N1046 1.356 . S
C1049 C1043 1.363 . S
C1049 C1044 1.379 . S
C1049 N1047 1.356 . S
N1050 C1042 1.356 . S
N1050 H1056 0.984 . S
N1050 H1057 0.984 . S
N1051 C1044 1.356 1_545 S
N1051 H1054 0.984 . S
N1051 H1055 0.985 1_545 S
H1052 N1047 0.984 . S
H1053 N1047 0.985 . S
H1054 N1051 0.984 . S
H1055 N1051 0.985 1_565 S
H1056 N1050 0.984 . S
H1057 N1050 0.984 . S
H1058 N1046 0.984 . S
H1059 N1046 0.985 . S
C1060 C1061 1.363 . S
C1060 C1066 1.379 . S
C1060 N1068 1.356 1_554 S
C1061 C1060 1.363 . S
C1061 C1067 1.363 . S
C1062 C1063 1.363 . S
C1062 C1067 1.379 . S
C1062 N1069 1.356 . S
C1063 C1062 1.363 . S
C1063 C1066 1.363 . S
N1064 C1066 1.356 . S
N1064 H1076 0.984 . S
N1064 H1077 0.985 . S
N1065 C1067 1.356 . S
N1065 H1070 0.984 . S
N1065 H1071 0.985 . S
C1066 C1060 1.379 . S
C1066 C1063 1.363 . S
C1066 N1064 1.356 . S
C1067 C1061 1.363 . S
C1067 C1062 1.379 . S
C1067 N1065 1.356 . S
N1068 C1060 1.356 1_556 S
N1068 H1074 0.984 . S
N1068 H1075 0.984 . S
N1069 C1062 1.356 . S
N1069 H1072 0.984 . S
N1069 H1073 0.985 . S
H1070 N1065 0.984 . S
H1071 N1065 0.985 . S
H1072 N1069 0.984 . S
H1073 N1069 0.985 . S
H1074 N1068 0.984 . S
H1075 N1068 0.984 . S
H1076 N1064 0.984 . S
H1077 N1064 0.985 . S
C1078 C1079 1.363 . S
C1078 C1084 1.379 . S
C1078 N1086 1.356 . S
C1079 C1078 1.363 . S
C1079 C1085 1.365 . S
C1080 C1081 1.363 . S
C1080 C1085 1.387 . S
C1080 N1087 1.356 . S
C1081 C1080 1.363 . S
C1081 C1084 1.363 . S
N1082 C1084 1.356 . S
N1082 H1094 0.984 . S
N1082 H1095 0.985 . S
N1083 C1085 1.345 1_545 S
N1083 H1088 0.984 . S
N1083 H1089 0.985 . S
C1084 C1078 1.379 . S
C1084 C1081 1.363 . S
C1084 N1082 1.356 . S
C1085 C1079 1.365 . S
C1085 C1080 1.387 . S
C1085 N1083 1.345 1_565 S
N1086 C1078 1.356 . S
N1086 H1092 0.984 . S
N1086 H1093 0.984 . S
N1087 C1080 1.356 . S
N1087 H1090 0.984 . S
N1087 H1091 0.985 . S
H1088 N1083 0.984 . S
H1089 N1083 0.985 . S
H1090 N1087 0.984 . S
H1091 N1087 0.985 . S
H1092 N1086 0.984 . S
H1093 N1086 0.984 . S
H1094 N1082 0.984 . S
H1095 N1082 0.985 . S
C1096 C1097 1.363 . S
C1096 C1102 1.379 . S
C1096 N1104 1.356 . S
C1097 C1096 1.363 . S
C1097 C1103 1.363 . S
C1098 C1099 1.363 . S
C1098 C1103 1.379 . S
C1098 N1105 1.356 . S
C1099 C1098 1.363 . S
C1099 C1102 1.363 . S
N1100 C1102 1.356 . S
N1100 H1112 0.984 . S
N1100 H1113 0.985 . S
N1101 C1103 1.356 . S
N1101 H1106 0.984 . S
N1101 H1107 0.985 . S
C1102 C1096 1.379 . S
C1102 C1099 1.363 . S
C1102 N1100 1.356 . S
C1103 C1097 1.363 . S
C1103 C1098 1.379 . S
C1103 N1101 1.356 . S
N1104 C1096 1.356 . S
N1104 H1110 0.984 . S
N1104 H1111 0.984 . S
N1105 C1098 1.356 . S
N1105 H1108 0.984 . S
N1105 H1109 0.985 . S
H1106 N1101 0.984 . S
H1107 N1101 0.985 . S
H1108 N1105 0.984 . S
H1109 N1105 0.985 . S
H1110 N1104 0.984 . S
H1111 N1104 0.984 . S
H1112 N1100 0.984 . S
H1113 N1100 0.985 . S
C1114 C1115 1.366 . S
C1114 C1120 1.379 . S
C1114 N1122 1.356 . S
C1115 C1114 1.366 . S
C1115 C1121 1.363 . S
C1116 C1117 1.363 . S
C1116 C1121 1.379 . S
C1116 N1123 1.356 . S
C1117 C1116 1.363 . S
C1117 C1120 1.363 . S
N1118 C1120 1.356 . S
N1118 H1130 0.984 . S
N1118 H1131 0.985 . S
N1119 C1121 1.356 1_565 S
N1119 H1124 0.984 . S
N1119 H1125 0.985 . S
C1120 C1114 1.379 . S
C1120 C1117 1.363 . S
C1120 N1118 1.356 . S
C1121 C1115 1.363 . S
C1121 C1116 1.379 . S
C1121 N1119 1.356 1_545 S
N1122 C1114 1.356 . S
N1122 H1128 0.984 . S
N1122 H1129 0.984 1_545 S
N1123 C1116 1.356 . S
N1123 H1126 0.984 . S
N1123 H1127 0.985 . S
H1124 N1119 0.984 . S
H1125 N1119 0.985 . S
H1126 N1123 0.984 . S
H1127 N1123 0.985 . S
H1128 N1122 0.984 . S
H1129 N1122 0.984 1_565 S
H1130 N1118 0.984 . S
H1131 N1118 0.985 . S
C1132 C1133 1.363 . S
C1132 C1138 1.379 1_554 S
C1132 N1140 1.356 . S
C1133 C1132 1.363 . S
C1133 C1139 1.363 1_554 S
C1134 C1135 1.363 . S
C1134 C1139 1.379 . S
C1134 N1141 1.356 . S
C1135 C1134 1.363 . S
C1135 C1138 1.363 . S
N1136 C1138 1.356 . S
N1136 H1148 0.984 . S
N1136 H1149 0.985 . S
N1137 C1139 1.356 . S
N1137 H1142 0.984 1_556 S
N1137 H1143 0.985 . S
C1138 C1132 1.379 1_556 S
C1138 C1135 1.363 . S
C1138 N1136 1.356 . S
C1139 C1133 1.363 1_556 S
C1139 C1134 1.379 . S
C1139 N1137 1.356 . S
N1140 C1132 1.356 . S
N1140 H1146 0.984 . S
N1140 H1147 0.984 . S
N1141 C1134 1.356 . S
N1141 H1144 0.984 . S
N1141 H1145 0.985 . S
H1142 N1137 0.984 1_554 S
H1143 N1137 0.985 . S
H1144 N1141 0.984 . S
H1145 N1141 0.985 . S
H1146 N1140 0.984 . S
H1147 N1140 0.984 . S
H1148 N1136 0.984 . S
H1149 N1136 0.985 . S
C1150 C1151 1.363 . S
C1150 C1156 1.379 . S
C1150 N1158 1.356 1_455 S
C1151 C1150 1.363 . S
C1151 C1157 1.363 . S
C1152 C1153 1.363 . S
C1152 C1157 1.379 . S
C1152 N1159 1.356 . S
C1153 C1152 1.363 . S
C1153 C1156 1.363 . S
N1154 C1156 1.356 . S
N1154 H1166 0.984 . S
N1154 H1167 0.985 . S
N1155 C1157 1.356 . S
N1155 H1160 0.984 . S
N1155 H1161 0.985 . S
C1156 C1150 1.379 . S
C1156 C1153 1.363 . S
C1156 N1154 1.356 . S
C1157 C1151 1.363 . S
C1157 C1152 1.379 . S
C1157 N1155 1.356 . S
N1158 C1150 1.356 1_655 S
N1158 H1164 0.984 . S
N1158 H1165 0.984 . S
N1159 C1152 1.356 . S
N1159 H1162 0.984 . S
N1159 H1163 0.985 . S
H1160 N1155 0.984 . S
H1161 N1155 0.985 . S
H1162 N1159 0.984 . S
H1163 N1159 0.985 . S
H1164 N1158 0.984 . S
H1165 N1158 0.984 . S
H1166 N1154 0.984 . S
H1167 N1154 0.985 . S
C1168 C1169 1.363 . S
C1168 C1174 1.379 . S
C1168 N1176 1.356 . S
C1169 C1168 1.363 . S
C1169 C1175 1.363 . S
C1170 C1171 1.363 . S
C1170 C1175 1.379 . S
C1170 N1177 1.356 . S
C1171 C1170 1.363 . S
C1171 C1174 1.363 . S
N1172 C1174 1.356 . S
N1172 H1184 0.984 . S
N1172 H1185 0.985 . S
N1173 C1175 1.356 . S
N1173 H1178 0.984 . S
N1173 H1179 0.985 . S
C1174 C1168 1.379 . S
C1174 C1171 1.363 . S
C1174 N1172 1.356 . S
C1175 C1169 1.363 . S
C1175 C1170 1.379 . S
C1175 N1173 1.356 . S
N1176 C1168 1.356 . S
N1176 H1182 0.984 . S
N1176 H1183 0.984 . S
N1177 C1170 1.356 . S
N1177 H1180 0.984 . S
N1177 H1181 0.985 . S
H1178 N1173 0.984 . S
H1179 N1173 0.985 . S
H1180 N1177 0.984 . S
H1181 N1177 0.985 . S
H1182 N1176 0.984 . S
H1183 N1176 0.984 . S
H1184 N1172 0.984 . S
H1185 N1172 0.985 . S
C1186 C1187 1.363 1_655 S
C1186 C1192 1.379 . S
C1186 N1194 1.356 1_655 S
C1187 C1186 1.363 1_455 S
C1187 C1193 1.363 1_455 S
C1188 C1189 1.363 . S
C1188 C1193 1.379 . S
C1188 N1195 1.356 . S
C1189 C1188 1.363 . S
C1189 C1192 1.363 . S
N1190 C1192 1.356 . S
N1190 H1202 0.984 . S
N1190 H1203 0.985 . S
N1191 C1193 1.356 1_455 S
N1191 H1196 0.984 . S
N1191 H1197 0.985 . S
C1192 C1186 1.379 . S
C1192 C1189 1.363 . S
C1192 N1190 1.356 . S
C1193 C1187 1.363 1_655 S
C1193 C1188 1.379 . S
C1193 N1191 1.356 1_655 S
N1194 C1186 1.356 1_455 S
N1194 H1200 0.988 . S
N1194 H1201 0.984 . S
N1195 C1188 1.356 . S
N1195 H1198 0.984 . S
N1195 H1199 0.985 . S
H1196 N1191 0.984 . S
H1197 N1191 0.985 . S
H1198 N1195 0.984 . S
H1199 N1195 0.985 . S
H1200 N1194 0.988 . S
H1201 N1194 0.984 . S
H1202 N1190 0.984 . S
H1203 N1190 0.985 . S
C1204 C1205 1.363 . S
C1204 C1210 1.379 . S
C1204 N1212 1.356 1_655 S
C1205 C1204 1.363 . S
C1205 C1211 1.363 . S
C1206 C1207 1.363 . S
C1206 C1211 1.379 . S
C1206 N1213 1.356 . S
C1207 C1206 1.363 . S
C1207 C1210 1.363 . S
N1208 C1210 1.356 . S
N1208 H1220 0.984 . S
N1208 H1221 0.985 . S
N1209 C1211 1.356 . S
N1209 H1214 0.984 . S
N1209 H1215 0.985 . S
C1210 C1204 1.379 . S
C1210 C1207 1.363 . S
C1210 N1208 1.356 . S
C1211 C1205 1.363 . S
C1211 C1206 1.379 . S
C1211 N1209 1.356 . S
N1212 C1204 1.356 1_455 S
N1212 H1218 0.984 . S
N1212 H1219 0.984 . S
N1213 C1206 1.356 . S
N1213 H1216 0.984 . S
N1213 H1217 0.985 . S
H1214 N1209 0.984 . S
H1215 N1209 0.985 . S
H1216 N1213 0.984 . S
H1217 N1213 0.985 . S
H1218 N1212 0.984 . S
H1219 N1212 0.984 . S
H1220 N1208 0.984 . S
H1221 N1208 0.985 . S
C1222 C1223 1.363 . S
C1222 C1228 1.379 . S
C1222 N1230 1.356 . S
C1223 C1222 1.363 . S
C1223 C1229 1.363 . S
C1224 C1225 1.363 . S
C1224 C1229 1.379 . S
C1224 N1231 1.356 . S
C1225 C1224 1.363 . S
C1225 C1228 1.363 . S
N1226 C1228 1.356 . S
N1226 H1238 0.984 . S
N1226 H1239 0.985 . S
N1227 C1229 1.356 . S
N1227 H1232 0.984 . S
N1227 H1233 0.985 . S
C1228 C1222 1.379 . S
C1228 C1225 1.363 . S
C1228 N1226 1.356 . S
C1229 C1223 1.363 . S
C1229 C1224 1.379 . S
C1229 N1227 1.356 . S
N1230 C1222 1.356 . S
N1230 H1236 0.984 . S
N1230 H1237 0.984 . S
N1231 C1224 1.356 . S
N1231 H1234 0.984 . S
N1231 H1235 0.985 . S
H1232 N1227 0.984 . S
H1233 N1227 0.985 . S
H1234 N1231 0.984 . S
H1235 N1231 0.985 . S
H1236 N1230 0.984 . S
H1237 N1230 0.984 . S
H1238 N1226 0.984 . S
H1239 N1226 0.985 . S
C1240 C1241 1.367 . S
C1240 C1246 1.375 1_655 S
C1240 N1248 1.358 . S
C1241 C1240 1.367 . S
C1241 C1247 1.363 . S
C1242 C1243 1.363 . S
C1242 C1247 1.379 1_455 S
C1242 N1249 1.356 . S
C1243 C1242 1.363 . S
C1243 C1246 1.363 . S
N1244 C1246 1.356 . S
N1244 H1256 0.984 . S
N1244 H1257 0.985 . S
N1245 C1247 1.356 . S
N1245 H1250 0.984 . S
N1245 H1251 0.985 . S
C1246 C1240 1.375 1_455 S
C1246 C1243 1.363 . S
C1246 N1244 1.356 . S
C1247 C1241 1.363 . S
C1247 C1242 1.379 1_655 S
C1247 N1245 1.356 . S
N1248 C1240 1.358 . S
N1248 H1254 0.977 1_655 S
N1248 H1255 0.984 . S
N1249 C1242 1.356 . S
N1249 H1252 0.984 . S
N1249 H1253 0.985 . S
H1250 N1245 0.984 . S
H1251 N1245 0.985 . S
H1252 N1249 0.984 . S
H1253 N1249 0.985 . S
H1254 N1248 0.977 1_455 S
H1255 N1248 0.984 . S
H1256 N1244 0.984 . S
H1257 N1244 0.985 . S
C1258 C1259 1.363 . S
C1258 C1264 1.379 . S
C1258 N1266 1.356 . S
C1259 C1258 1.363 . S
C1259 C1265 1.363 . S
C1260 C1261 1.363 . S
C1260 C1265 1.379 . S
C1260 N1267 1.356 . S
C1261 C1260 1.363 . S
C1261 C1264 1.363 . S
N1262 C1264 1.356 . S
N1262 H1274 0.984 . S
N1262 H1275 0.985 . S
N1263 C1265 1.356 . S
N1263 H1268 0.984 . S
N1263 H1269 0.985 . S
C1264 C1258 1.379 . S
C1264 C1261 1.363 . S
C1264 N1262 1.356 . S
C1265 C1259 1.363 . S
C1265 C1260 1.379 . S
C1265 N1263 1.356 . S
N1266 C1258 1.356 . S
N1266 H1272 0.984 . S
N1266 H1273 0.984 . S
N1267 C1260 1.356 . S
N1267 H1270 0.984 . S
N1267 H1271 0.985 . S
H1268 N1263 0.984 . S
H1269 N1263 0.985 . S
H1270 N1267 0.984 . S
H1271 N1267 0.985 . S
H1272 N1266 0.984 . S
H1273 N1266 0.984 . S
H1274 N1262 0.984 . S
H1275 N1262 0.985 . S
C1276 C1277 1.363 . S
C1276 C1282 1.379 . S
C1276 N1284 1.356 . S
C1277 C1276 1.363 . S
C1277 C1283 1.363 . S
C1278 C1279 1.363 . S
C1278 C1283 1.379 . S
C1278 N1285 1.356 . S
C1279 C1278 1.363 . S
C1279 C1282 1.363 . S
N1280 C1282 1.356 . S
N1280 H1292 0.984 . S
N1280 H1293 0.985 . S
N1281 C1283 1.356 . S
N1281 H1286 0.984 . S
N1281 H1287 0.985 . S
C1282 C1276 1.379 . S
C1282 C1279 1.363 . S
C1282 N1280 1.356 . S
C1283 C1277 1.363 . S
C1283 C1278 1.379 . S
C1283 N1281 1.356 . S
N1284 C1276 1.356 . S
N1284 H1290 0.984 . S
N1284 H1291 0.984 . S
N1285 C1278 1.356 . S
N1285 H1288 0.984 . S
N1285 H1289 0.985 . S
H1286 N1281 0.984 . S
H1287 N1281 0.985 . S
H1288 N1285 0.984 . S
H1289 N1285 0.985 . S
H1290 N1284 0.984 . S
H1291 N1284 0.984 . S
H1292 N1280 0.984 . S
H1293 N1280 0.985 . S
C1294 C1295 1.363 1_556 S
C1294 C1300 1.379 . S
C1294 N1302 1.356 . S
C1295 C1294 1.363 1_554 S
C1295 C1301 1.363 . S
C1296 C1297 1.363 . S
C1296 C1301 1.379 1_556 S
C1296 N1303 1.356 . S
C1297 C1296 1.363 . S
C1297 C1300 1.363 . S
N1298 C1300 1.356 . S
N1298 H1310 0.984 . S
N1298 H1311 0.985 . S
N1299 C1301 1.356 . S
N1299 H1304 0.984 . S
N1299 H1305 0.985 . S
C1300 C1294 1.379 . S
C1300 C1297 1.363 . S
C1300 N1298 1.356 . S
C1301 C1295 1.363 . S
C1301 C1296 1.379 1_554 S
C1301 N1299 1.356 . S
N1302 C1294 1.356 . S
N1302 H1308 0.984 . S
N1302 H1309 0.984 1_556 S
N1303 C1296 1.356 . S
N1303 H1306 0.984 . S
N1303 H1307 0.985 . S
H1304 N1299 0.984 . S
H1305 N1299 0.985 . S
H1306 N1303 0.984 . S
H1307 N1303 0.985 . S
H1308 N1302 0.984 . S
H1309 N1302 0.984 1_554 S
H1310 N1298 0.984 . S
H1311 N1298 0.985 . S
C1312 C1313 1.363 . S
C1312 C1318 1.379 . S
C1312 N1320 1.356 . S
C1313 C1312 1.363 . S
C1313 C1319 1.363 . S
C1314 C1315 1.363 . S
C1314 C1319 1.379 . S
C1314 N1321 1.356 . S
C1315 C1314 1.363 . S
C1315 C1318 1.363 . S
N1316 C1318 1.356 . S
N1316 H1328 0.984 . S
N1316 H1329 0.985 . S
N1317 C1319 1.356 . S
N1317 H1322 0.984 . S
N1317 H1323 0.985 . S
C1318 C1312 1.379 . S
C1318 C1315 1.363 . S
C1318 N1316 1.356 . S
C1319 C1313 1.363 . S
C1319 C1314 1.379 . S
C1319 N1317 1.356 . S
N1320 C1312 1.356 . S
N1320 H1326 0.984 . S
N1320 H1327 0.984 . S
N1321 C1314 1.356 . S
N1321 H1324 0.984 . S
N1321 H1325 0.985 . S
H1322 N1317 0.984 . S
H1323 N1317 0.985 . S
H1324 N1321 0.984 . S
H1325 N1321 0.985 . S
H1326 N1320 0.984 . S
H1327 N1320 0.984 . S
H1328 N1316 0.984 . S
H1329 N1316 0.985 . S
C1330 C1331 1.363 . S
C1330 C1336 1.379 . S
C1330 N1338 1.356 . S
C1331 C1330 1.363 . S
C1331 C1337 1.363 . S
C1332 C1333 1.363 . S
C1332 C1337 1.379 . S
C1332 N1339 1.356 . S
C1333 C1332 1.363 . S
C1333 C1336 1.363 . S
N1334 C1336 1.356 . S
N1334 H1346 0.984 . S
N1334 H1347 0.985 . S
N1335 C1337 1.356 . S
N1335 H1340 0.984 . S
N1335 H1341 0.985 . S
C1336 C1330 1.379 . S
C1336 C1333 1.363 . S
C1336 N1334 1.356 . S
C1337 C1331 1.363 . S
C1337 C1332 1.379 . S
C1337 N1335 1.356 . S
N1338 C1330 1.356 . S
N1338 H1344 0.984 . S
N1338 H1345 0.984 . S
N1339 C1332 1.356 . S
N1339 H1342 0.984 . S
N1339 H1343 0.985 . S
H1340 N1335 0.984 . S
H1341 N1335 0.985 . S
H1342 N1339 0.984 . S
H1343 N1339 0.985 . S
H1344 N1338 0.984 . S
H1345 N1338 0.984 . S
H1346 N1334 0.984 . S
H1347 N1334 0.985 . S
C1348 C1349 1.363 . S
C1348 C1354 1.379 . S
C1348 N1356 1.356 . S
C1349 C1348 1.363 . S
C1349 C1355 1.363 . S
C1350 C1351 1.363 . S
C1350 C1355 1.379 . S
C1350 N1357 1.356 . S
C1351 C1350 1.363 . S
C1351 C1354 1.363 . S
N1352 C1354 1.356 . S
N1352 H1364 0.984 . S
N1352 H1365 0.985 . S
N1353 C1355 1.356 . S
N1353 H1358 0.984 . S
N1353 H1359 0.985 . S
C1354 C1348 1.379 . S
C1354 C1351 1.363 . S
C1354 N1352 1.356 . S
C1355 C1349 1.363 . S
C1355 C1350 1.379 . S
C1355 N1353 1.356 . S
N1356 C1348 1.356 . S
N1356 H1362 0.984 . S
N1356 H1363 0.984 . S
N1357 C1350 1.356 . S
N1357 H1360 0.984 . S
N1357 H1361 0.985 . S
H1358 N1353 0.984 . S
H1359 N1353 0.985 . S
H1360 N1357 0.984 . S
H1361 N1357 0.985 . S
H1362 N1356 0.984 . S
H1363 N1356 0.984 . S
H1364 N1352 0.984 . S
H1365 N1352 0.985 . S
C1366 C1367 1.363 . S
C1366 C1372 1.379 . S
C1366 N1374 1.356 1_556 S
C1367 C1366 1.363 . S
C1367 C1373 1.363 . S
C1368 C1369 1.363 . S
C1368 C1373 1.379 . S
C1368 N1375 1.356 . S
C1369 C1368 1.363 . S
C1369 C1372 1.363 . S
N1370 C1372 1.356 . S
N1370 H1382 0.984 . S
N1370 H1383 0.985 . S
N1371 C1373 1.356 . S
N1371 H1376 0.984 . S
N1371 H1377 0.985 . S
C1372 C1366 1.379 . S
C1372 C1369 1.363 . S
C1372 N1370 1.356 . S
C1373 C1367 1.363 . S
C1373 C1368 1.379 . S
C1373 N1371 1.356 . S
N1374 C1366 1.356 1_554 S
N1374 H1380 0.984 . S
N1374 H1381 0.984 . S
N1375 C1368 1.356 . S
N1375 H1378 0.984 . S
N1375 H1379 0.985 . S
H1376 N1371 0.984 . S
H1377 N1371 0.985 . S
H1378 N1375 0.984 . S
H1379 N1375 0.985 . S
H1380 N1374 0.984 . S
H1381 N1374 0.984 . S
H1382 N1370 0.984 . S
H1383 N1370 0.985 . S
C1384 C1385 1.363 . S
C1384 C1390 1.379 . S
C1384 N1392 1.356 . S
C1385 C1384 1.363 . S
C1385 C1391 1.363 . S
C1386 C1387 1.363 . S
C1386 C1391 1.379 . S
C1386 N1393 1.356 . S
C1387 C1386 1.363 . S
C1387 C1390 1.363 . S
N1388 C1390 1.356 . S
N1388 H1400 0.984 . S
N1388 H1401 0.985 . S
N1389 C1391 1.356 . S
N1389 H1394 0.984 . S
N1389 H1395 0.985 . S
C1390 C1384 1.379 . S
C1390 C1387 1.363 . S
C1390 N1388 1.356 . S
C1391 C1385 1.363 . S
C1391 C1386 1.379 . S
C1391 N1389 1.356 . S
N1392 C1384 1.356 . S
N1392 H1398 0.984 . S
N1392 H1399 0.984 . S
N1393 C1386 1.356 . S
N1393 H1396 0.984 . S
N1393 H1397 0.985 . S
H1394 N1389 0.984 . S
H1395 N1389 0.985 . S
H1396 N1393 0.984 . S
H1397 N1393 0.985 . S
H1398 N1392 0.984 . S
H1399 N1392 0.984 . S
H1400 N1388 0.984 . S
H1401 N1388 0.985 . S
C1402 C1403 1.363 . S
C1402 C1408 1.379 . S
C1402 N1410 1.356 . S
C1403 C1402 1.363 . S
C1403 C1409 1.363 . S
C1404 C1405 1.363 . S
C1404 C1409 1.379 . S
C1404 N1411 1.356 . S
C1405 C1404 1.363 . S
C1405 C1408 1.363 . S
N1406 C1408 1.356 . S
N1406 H1418 0.984 . S
N1406 H1419 0.985 . S
N1407 C1409 1.356 . S
N1407 H1412 0.984 . S
N1407 H1413 0.985 . S
C1408 C1402 1.379 . S
C1408 C1405 1.363 . S
C1408 N1406 1.356 . S
C1409 C1403 1.363 . S
C1409 C1404 1.379 . S
C1409 N1407 1.356 . S
N1410 C1402 1.356 . S
N1410 H1416 0.984 . S
N1410 H1417 0.984 . S
N1411 C1404 1.356 . S
N1411 H1414 0.984 . S
N1411 H1415 0.985 . S
H1412 N1407 0.984 . S
H1413 N1407 0.985 . S
H1414 N1411 0.984 . S
H1415 N1411 0.985 . S
H1416 N1410 0.984 . S
H1417 N1410 0.984 . S
H1418 N1406 0.984 . S
H1419 N1406 0.985 . S
C1420 C1421 1.363 . S
C1420 C1426 1.379 . S
C1420 N1428 1.356 . S
C1421 C1420 1.363 . S
C1421 C1427 1.363 . S
C1422 C1423 1.363 . S
C1422 C1427 1.379 . S
C1422 N1429 1.356 . S
C1423 C1422 1.363 . S
C1423 C1426 1.363 . S
N1424 C1426 1.356 . S
N1424 H1436 0.984 . S
N1424 H1437 0.985 . S
N1425 C1427 1.356 . S
N1425 H1430 0.984 . S
N1425 H1431 0.985 . S
C1426 C1420 1.379 . S
C1426 C1423 1.363 . S
C1426 N1424 1.356 . S
C1427 C1421 1.363 . S
C1427 C1422 1.379 . S
C1427 N1425 1.356 . S
N1428 C1420 1.356 . S
N1428 H1434 0.984 . S
N1428 H1435 0.984 . S
N1429 C1422 1.356 . S
N1429 H1432 0.984 . S
N1429 H1433 0.985 . S
H1430 N1425 0.984 . S
H1431 N1425 0.985 . S
H1432 N1429 0.984 . S
H1433 N1429 0.985 . S
H1434 N1428 0.984 . S
H1435 N1428 0.984 . S
H1436 N1424 0.984 . S
H1437 N1424 0.985 . S
C1438 C1439 1.363 . S
C1438 C1444 1.379 . S
C1438 N1446 1.356 . S
C1439 C1438 1.363 . S
C1439 C1445 1.363 . S
C1440 C1441 1.363 . S
C1440 C1445 1.379 . S
C1440 N1447 1.356 . S
C1441 C1440 1.363 . S
C1441 C1444 1.363 . S
N1442 C1444 1.356 . S
N1442 H1454 0.984 . S
N1442 H1455 0.985 . S
N1443 C1445 1.356 . S
N1443 H1448 0.984 . S
N1443 H1449 0.985 . S
C1444 C1438 1.379 . S
C1444 C1441 1.363 . S
C1444 N1442 1.356 . S
C1445 C1439 1.363 . S
C1445 C1440 1.379 . S
C1445 N1443 1.356 . S
N1446 C1438 1.356 . S
N1446 H1452 0.984 . S
N1446 H1453 0.984 . S
N1447 C1440 1.356 . S
N1447 H1450 0.984 . S
N1447 H1451 0.985 . S
H1448 N1443 0.984 . S
H1449 N1443 0.985 . S
H1450 N1447 0.984 . S
H1451 N1447 0.985 . S
H1452 N1446 0.984 . S
H1453 N1446 0.984 . S
H1454 N1442 0.984 . S
H1455 N1442 0.985 . S
C1456 C1457 1.363 . S
C1456 C1462 1.379 . S
C1456 N1464 1.356 . S
C1457 C1456 1.363 . S
C1457 C1463 1.363 . S
C1458 C1459 1.363 . S
C1458 C1463 1.379 . S
C1458 N1465 1.356 1_554 S
C1459 C1458 1.363 . S
C1459 C1462 1.363 . S
N1460 C1462 1.356 . S
N1460 H1472 0.984 . S
N1460 H1473 0.985 1_554 S
N1461 C1463 1.356 . S
N1461 H1466 0.984 . S
N1461 H1467 0.985 . S
C1462 C1456 1.379 . S
C1462 C1459 1.363 . S
C1462 N1460 1.356 . S
C1463 C1457 1.363 . S
C1463 C1458 1.379 . S
C1463 N1461 1.356 . S
N1464 C1456 1.356 . S
N1464 H1470 0.984 . S
N1464 H1471 0.984 . S
N1465 C1458 1.356 1_556 S
N1465 H1468 0.984 . S
N1465 H1469 0.985 . S
H1466 N1461 0.984 . S
H1467 N1461 0.985 . S
H1468 N1465 0.984 . S
H1469 N1465 0.985 . S
H1470 N1464 0.984 . S
H1471 N1464 0.984 . S
H1472 N1460 0.984 . S
H1473 N1460 0.985 1_556 S
C1474 C1475 1.363 . S
C1474 C1480 1.379 . S
C1474 N1482 1.356 . S
C1475 C1474 1.363 . S
C1475 C1481 1.363 . S
C1476 C1477 1.363 . S
C1476 C1481 1.379 . S
C1476 N1483 1.356 . S
C1477 C1476 1.363 . S
C1477 C1480 1.363 . S
N1478 C1480 1.356 . S
N1478 H1490 0.984 . S
N1478 H1491 0.985 . S
N1479 C1481 1.356 . S
N1479 H1484 0.984 . S
N1479 H1485 0.985 . S
C1480 C1474 1.379 . S
C1480 C1477 1.363 . S
C1480 N1478 1.356 . S
C1481 C1475 1.363 . S
C1481 C1476 1.379 . S
C1481 N1479 1.356 . S
N1482 C1474 1.356 . S
N1482 H1488 0.984 . S
N1482 H1489 0.984 . S
N1483 C1476 1.356 . S
N1483 H1486 0.984 . S
N1483 H1487 0.985 . S
H1484 N1479 0.984 . S
H1485 N1479 0.985 . S
H1486 N1483 0.984 . S
H1487 N1483 0.985 . S
H1488 N1482 0.984 . S
H1489 N1482 0.984 . S
H1490 N1478 0.984 . S
H1491 N1478 0.985 . S
C1492 C1493 1.363 . S
C1492 C1498 1.379 . S
C1492 N1500 1.356 . S
C1493 C1492 1.363 . S
C1493 C1499 1.363 . S
C1494 C1495 1.363 . S
C1494 C1499 1.379 . S
C1494 N1501 1.356 . S
C1495 C1494 1.363 . S
C1495 C1498 1.363 . S
N1496 C1498 1.356 . S
N1496 H1508 0.984 . S
N1496 H1509 0.985 . S
N1497 C1499 1.356 . S
N1497 H1502 0.984 . S
N1497 H1503 0.985 . S
C1498 C1492 1.379 . S
C1498 C1495 1.363 . S
C1498 N1496 1.356 . S
C1499 C1493 1.363 . S
C1499 C1494 1.379 . S
C1499 N1497 1.356 . S
N1500 C1492 1.356 . S
N1500 H1506 0.984 . S
N1500 H1507 0.984 . S
N1501 C1494 1.356 . S
N1501 H1504 0.984 . S
N1501 H1505 0.985 . S
H1502 N1497 0.984 . S
H1503 N1497 0.985 . S
H1504 N1501 0.984 . S
H1505 N1501 0.985 . S
H1506 N1500 0.984 . S
H1507 N1500 0.984 . S
H1508 N1496 0.984 . S
H1509 N1496 0.985 . S
C1510 C1511 1.363 . S
C1510 C1516 1.379 . S
C1510 N1518 1.356 . S
C1511 C1510 1.363 . S
C1511 C1517 1.363 . S
C1512 C1513 1.363 . S
C1512 C1517 1.379 . S
C1512 N1519 1.356 . S
C1513 C1512 1.363 . S
C1513 C1516 1.363 . S
N1514 C1516 1.356 . S
N1514 H1526 0.984 . S
N1514 H1527 0.985 . S
N1515 C1517 1.356 . S
N1515 H1520 0.984 . S
N1515 H1521 0.985 . S
C1516 C1510 1.379 . S
C1516 C1513 1.363 . S
C1516 N1514 1.356 . S
C1517 C1511 1.363 . S
C1517 C1512 1.379 . S
C1517 N1515 1.356 . S
N1518 C1510 1.356 . S
N1518 H1524 0.984 . S
N1518 H1525 0.984 . S
N1519 C1512 1.356 . S
N1519 H1522 0.984 . S
N1519 H1523 0.985 . S
H1520 N1515 0.984 . S
H1521 N1515 0.985 . S
H1522 N1519 0.984 . S
H1523 N1519 0.985 . S
H1524 N1518 0.984 . S
H1525 N1518 0.984 . S
H1526 N1514 0.984 . S
H1527 N1514 0.985 . S
C1528 C1529 1.363 . S
C1528 C1534 1.379 . S
C1528 N1536 1.356 . S
C1529 C1528 1.363 . S
C1529 C1535 1.363 1_556 S
C1530 C1531 1.363 . S
C1530 C1535 1.375 1_556 S
C1530 N1537 1.356 . S
C1531 C1530 1.363 . S
C1531 C1534 1.363 . S
N1532 C1534 1.356 . S
N1532 H1544 0.984 . S
N1532 H1545 0.985 . S
N1533 C1535 1.360 . S
N1533 H1538 0.984 . S
N1533 H1539 0.985 . S
C1534 C1528 1.379 . S
C1534 C1531 1.363 . S
C1534 N1532 1.356 . S
C1535 C1529 1.363 1_554 S
C1535 C1530 1.375 1_554 S
C1535 N1533 1.360 . S
N1536 C1528 1.356 . S
N1536 H1542 0.984 . S
N1536 H1543 1.006 . S
N1537 C1530 1.356 . S
N1537 H1540 0.984 . S
N1537 H1541 0.985 . S
H1538 N1533 0.984 . S
H1539 N1533 0.985 . S
H1540 N1537 0.984 . S
H1541 N1537 0.985 . S
H1542 N1536 0.984 . S
H1543 N1536 1.006 . S
H1544 N1532 0.984 . S
H1545 N1532 0.985 . S
C1546 C1547 1.363 . S
C1546 C1552 1.379 . S
C1546 N1554 1.356 . S
C1547 C1546 1.363 . S
C1547 C1553 1.363 . S
C1548 C1549 1.363 . S
C1548 C1553 1.379 . S
C1548 N1555 1.356 . S
C1549 C1548 1.363 . S
C1549 C1552 1.363 . S
N1550 C1552 1.356 . S
N1550 H1562 0.984 . S
N1550 H1563 0.985 . S
N1551 C1553 1.356 . S
N1551 H1556 0.984 . S
N1551 H1557 0.985 . S
C1552 C1546 1.379 . S
C1552 C1549 1.363 . S
C1552 N1550 1.356 . S
C1553 C1547 1.363 . S
C1553 C1548 1.379 . S
C1553 N1551 1.356 . S
N1554 C1546 1.356 . S
N1554 H1560 0.984 . S
N1554 H1561 0.984 . S
N1555 C1548 1.356 . S
N1555 H1558 0.984 . S
N1555 H1559 0.985 . S
H1556 N1551 0.984 . S
H1557 N1551 0.985 . S
H1558 N1555 0.984 . S
H1559 N1555 0.985 . S
H1560 N1554 0.984 . S
H1561 N1554 0.984 . S
H1562 N1550 0.984 . S
H1563 N1550 0.985 . S
C1564 C1565 1.363 . S
C1564 C1570 1.379 . S
C1564 N1572 1.356 . S
C1565 C1564 1.363 . S
C1565 C1571 1.363 . S
C1566 C1567 1.363 . S
C1566 C1571 1.379 . S
C1566 N1573 1.356 . S
C1567 C1566 1.363 . S
C1567 C1570 1.363 . S
N1568 C1570 1.356 . S
N1568 H1580 0.984 . S
N1568 H1581 0.985 . S
N1569 C1571 1.356 . S
N1569 H1574 0.984 . S
N1569 H1575 0.985 . S
C1570 C1564 1.379 . S
C1570 C1567 1.363 . S
C1570 N1568 1.356 . S
C1571 C1565 1.363 . S
C1571 C1566 1.379 . S
C1571 N1569 1.356 . S
N1572 C1564 1.356 . S
N1572 H1578 0.984 . S
N1572 H1579 0.984 . S
N1573 C1566 1.356 . S
N1573 H1576 0.984 . S
N1573 H1577 0.985 . S
H1574 N1569 0.984 . S
H1575 N1569 0.985 . S
H1576 N1573 0.984 . S
H1577 N1573 0.985 . S
H1578 N1572 0.984 . S
H1579 N1572 0.984 . S
H1580 N1568 0.984 . S
H1581 N1568 0.985 . S
C1582 C1583 1.363 . S
C1582 C1588 1.379 . S
C1582 N1590 1.356 . S
C1583 C1582 1.363 . S
C1583 C1589 1.363 . S
C1584 C1585 1.363 . S
C1584 C1589 1.379 . S
C1584 N1591 1.356 . S
C1585 C1584 1.363 . S
C1585 C1588 1.363 . S
N1586 C1588 1.356 . S
N1586 H1598 0.984 . S
N1586 H1599 0.985 . S
N1587 C1589 1.356 . S
N1587 H1592 0.984 . S
N1587 H1593 0.985 . S
C1588 C1582 1.379 . S
C1588 C1585 1.363 . S
C1588 N1586 1.356 . S
C1589 C1583 1.363 . S
C1589 C1584 1.379 . S
C1589 N1587 1.356 . S
N1590 C1582 1.356 . S
N1590 H1596 0.984 . S
N1590 H1597 0.984 . S
N1591 C1584 1.356 . S
N1591 H1594 0.984 . S
N1591 H1595 0.985 . S
H1592 N1587 0.984 . S
H1593 N1587 0.985 . S
H1594 N1591 0.984 . S
H1595 N1591 0.985 . S
H1596 N1590 0.984 . S
H1597 N1590 0.984 . S
H1598 N1586 0.984 . S
H1599 N1586 0.985 . S
C449 C9 0.782 1_565 S
C451 C191 0.785 1_554 S
C467 C359 1.686 . S
C469 C23 1.670 . S
C485 C37 0.735 1_545 S
C487 C219 0.734 . S
C503 C51 1.677 . S
C505 C345 1.692 . S
C521 C65 2.267 1_655 S
C523 C247 2.261 1_565 S
C539 C79 1.706 . S
C541 C317 1.717 . S
C557 C93 2.226 . S
C559 C275 2.218 1_545 S
C575 C443 1.094 . S
C577 C107 1.096 . S
C593 C303 2.262 . S
C595 C121 2.267 . S
C611 C135 1.706 . S
C613 C261 1.717 . S
C629 C331 2.218 . S
C631 C149 2.226 . S
C647 C163 1.677 . S
C649 C233 1.692 . S
C665 C205 1.686 . S
C667 C177 1.670 . S
C683 C289 1.094 . S
C685 C401 1.096 . S
C701 C415 0.785 . S
C703 C373 0.783 . S
C719 C429 0.734 1_554 S
C721 C387 0.735 . S
C737 C8 1.573 1_565 S
C739 C22 1.566 . S
C755 C34 1.661 . S
C757 C21 1.890 . S
C773 C50 1.640 . S
C775 C36 1.643 1_545 S
C791 C49 1.619 . S
C793 C6 1.445 . S
C809 C105 1.843 . S
C811 C64 1.901 . S
C827 C76 1.315 . S
C829 C62 1.380 . S
C845 C91 1.661 . S
C847 C77 1.635 . S
C863 C92 1.614 . S
C865 C104 1.434 . S
C881 C134 1.758 . S
C883 C7 1.766 . S
C899 C119 1.389 . S
C901 C48 1.241 . S
C917 C146 1.324 . S
C919 C20 1.318 . S
C935 C385 2.038 . S
C937 C106 2.096 . S
C953 C400 2.096 . S
C955 C35 2.038 . S
C971 C160 1.241 . S
C973 C63 1.389 1_655 S
C989 C90 1.324 . S
C991 C174 1.318 . S
C1007 C202 1.708 . S
C1009 C188 1.698 . S
C1025 C218 1.481 . S
C1027 C203 1.426 . S
C1043 C230 1.833 . S
C1045 C216 1.818 . S
C1061 C190 1.525 1_554 S
C1063 C231 1.471 . S
C1079 C246 1.724 1_565 S
C1081 C288 1.723 . S
C1097 C245 1.322 . S
C1099 C258 1.265 . S
C1115 C274 1.727 1_545 S
C1117 C260 1.730 . S
C1133 C273 1.523 . S
C1135 C286 1.459 . S
C1151 C189 1.449 1_455 S
C1153 C315 1.437 . S
C1169 C300 1.731 . S
C1171 C232 1.887 . S
C1187 C328 1.520 . S
C1189 C204 1.658 . S
C1205 C427 1.415 1_655 S
C1207 C287 1.423 . S
C1223 C441 1.423 . S
C1225 C217 1.415 . S
C1241 C244 1.731 . S
C1243 C344 1.887 . S
C1259 C358 1.658 . S
C1261 C272 1.520 . S
C1277 C176 1.566 . S
C1279 C372 1.572 . S
C1295 C384 1.661 . S
C1297 C175 1.890 . S
C1313 C162 1.640 . S
C1315 C386 1.643 . S
C1331 C161 1.619 . S
C1333 C370 1.445 . S
C1349 C120 1.901 . S
C1351 C399 1.843 . S
C1367 C132 1.315 1_556 S
C1369 C118 1.380 . S
C1385 C147 1.661 . S
C1387 C133 1.635 . S
C1403 C148 1.614 . S
C1405 C398 1.434 . S
C1421 C371 1.766 . S
C1423 C78 1.758 . S
C1439 C356 1.708 . S
C1441 C412 1.698 . S
C1457 C357 1.426 . S
C1459 C428 1.481 1_554 S
C1475 C426 1.818 . S
C1477 C342 1.832 . S
C1493 C343 1.471 . S
C1495 C414 1.525 . S
C1511 C442 1.723 . S
C1513 C302 1.724 . S
C1529 C301 1.322 1_556 S
C1531 C314 1.265 . S
C1547 C330 1.729 . S
C1549 C316 1.730 . S
C1565 C329 1.523 . S
C1567 C440 1.459 . S
C1583 C413 1.449 . S
C1585 C259 1.437 . S
