# Generated by pormake.
# Topology wjq, (5)-cn, num edge types: 1
# Building blocks:
#     Node 0, Type 0, BuildingBlock: XOMCOT_clean_sbu_1, # of connection points: 5
#     Node 1, Type 0, BuildingBlock: XOMCOT_clean_sbu_1, # of connection points: 5
#     Node 2, Type 0, BuildingBlock: XOMCOT_clean_sbu_1, # of connection points: 5
#     Node 3, Type 0, BuildingBlock: XOMCOT_clean_sbu_1, # of connection points: 5
#     Node 4, Type 0, BuildingBlock: XOMCOT_clean_sbu_1, # of connection points: 5
#     Node 5, Type 0, BuildingBlock: XOMCOT_clean_sbu_1, # of connection points: 5
#     Node 6, Type 0, BuildingBlock: XOMCOT_clean_sbu_1, # of connection points: 5
#     Node 7, Type 0, BuildingBlock: XOMCOT_clean_sbu_1, # of connection points: 5
#     Node 8, Type 0, BuildingBlock: XOMCOT_clean_sbu_1, # of connection points: 5
#     Node 9, Type 0, BuildingBlock: XOMCOT_clean_sbu_1, # of connection points: 5
#     Node 10, Type 0, BuildingBlock: XOMCOT_clean_sbu_1, # of connection points: 5
#     Node 11, Type 0, BuildingBlock: XOMCOT_clean_sbu_1, # of connection points: 5
#     Edge 12, Type (0, 0), BuildingBlock: AJUNOK_clean_linker_0, # of connection points: 2
#     Edge 13, Type (0, 0), BuildingBlock: AJUNOK_clean_linker_0, # of connection points: 2
#     Edge 14, Type (0, 0), BuildingBlock: AJUNOK_clean_linker_0, # of connection points: 2
#     Edge 15, Type (0, 0), BuildingBlock: AJUNOK_clean_linker_0, # of connection points: 2
#     Edge 16, Type (0, 0), BuildingBlock: AJUNOK_clean_linker_0, # of connection points: 2
#     Edge 17, Type (0, 0), BuildingBlock: AJUNOK_clean_linker_0, # of connection points: 2
#     Edge 18, Type (0, 0), BuildingBlock: AJUNOK_clean_linker_0, # of connection points: 2
#     Edge 19, Type (0, 0), BuildingBlock: AJUNOK_clean_linker_0, # of connection points: 2
#     Edge 20, Type (0, 0), BuildingBlock: AJUNOK_clean_linker_0, # of connection points: 2
#     Edge 21, Type (0, 0), BuildingBlock: AJUNOK_clean_linker_0, # of connection points: 2
#     Edge 22, Type (0, 0), BuildingBlock: AJUNOK_clean_linker_0, # of connection points: 2
#     Edge 23, Type (0, 0), BuildingBlock: AJUNOK_clean_linker_0, # of connection points: 2
#     Edge 24, Type (0, 0), BuildingBlock: AJUNOK_clean_linker_0, # of connection points: 2
#     Edge 25, Type (0, 0), BuildingBlock: AJUNOK_clean_linker_0, # of connection points: 2
#     Edge 26, Type (0, 0), BuildingBlock: AJUNOK_clean_linker_0, # of connection points: 2
#     Edge 27, Type (0, 0), BuildingBlock: AJUNOK_clean_linker_0, # of connection points: 2
#     Edge 28, Type (0, 0), BuildingBlock: AJUNOK_clean_linker_0, # of connection points: 2
#     Edge 29, Type (0, 0), BuildingBlock: AJUNOK_clean_linker_0, # of connection points: 2
#     Edge 30, Type (0, 0), BuildingBlock: AJUNOK_clean_linker_0, # of connection points: 2
#     Edge 31, Type (0, 0), BuildingBlock: AJUNOK_clean_linker_0, # of connection points: 2
#     Edge 32, Type (0, 0), BuildingBlock: AJUNOK_clean_linker_0, # of connection points: 2
#     Edge 33, Type (0, 0), BuildingBlock: AJUNOK_clean_linker_0, # of connection points: 2
#     Edge 34, Type (0, 0), BuildingBlock: AJUNOK_clean_linker_0, # of connection points: 2
#     Edge 35, Type (0, 0), BuildingBlock: AJUNOK_clean_linker_0, # of connection points: 2
#     Edge 36, Type (0, 0), BuildingBlock: AJUNOK_clean_linker_0, # of connection points: 2
#     Edge 37, Type (0, 0), BuildingBlock: AJUNOK_clean_linker_0, # of connection points: 2
#     Edge 38, Type (0, 0), BuildingBlock: AJUNOK_clean_linker_0, # of connection points: 2
#     Edge 39, Type (0, 0), BuildingBlock: AJUNOK_clean_linker_0, # of connection points: 2
#     Edge 40, Type (0, 0), BuildingBlock: AJUNOK_clean_linker_0, # of connection points: 2
#     Edge 41, Type (0, 0), BuildingBlock: AJUNOK_clean_linker_0, # of connection points: 2
# Relax obj value: 0.572
# Max RMSD: 0.292
# Mean RMSD: 0.292
data_MOF--net-wjq--node1-XOMCOT_clean_sbu_1--edge1-AJUNOK_clean_linker_0
_symmetry_space_group_name_H-M    P1
_symmetry_Int_Tables_number       1
_symmetry_cell_setting            triclinic
loop_
_symmetry_equiv_pos_as_xyz
'x, y, z'
_cell_length_a     20.316568
_cell_length_b     20.313046
_cell_length_c     72.28407
_cell_angle_alpha  90.068319
_cell_angle_beta   90.089234
_cell_angle_gamma 119.90928
loop_
_atom_site_label
_atom_site_type_symbol
_atom_site_fract_x
_atom_site_fract_y
_atom_site_fract_z
_atom_type_partial_charge
C0 C 0.38107 0.31609 0.01993 0.0
C1 C 0.34514 0.32148 0.00433 0.0
N2 N 0.26971 0.28457 0.00735 0.0
N3 N 0.32923 0.27612 0.03302 0.0
C4 C 0.26147 0.2581 0.02498 0.0
H5 H 0.44147 0.33829 0.02147 0.0
Co6 Co 0.35785 0.24807 0.0555 0.0
C7 C 0.21618 0.1248 0.07118 0.0
O8 O 0.25508 0.09116 0.07548 0.0
N9 N 0.38779 0.22126 0.07805 0.0
C10 C 0.44442 0.19052 0.10014 0.0
C11 C 0.4387 0.19803 0.08146 0.0
C12 C 0.36446 0.22834 0.09511 0.0
N13 N 0.39778 0.2097 0.10866 0.0
O14 O 0.37813 0.3417 0.06684 0.0
H15 H 0.47181 0.18825 0.07139 0.0
H16 H 0.3246 0.24808 0.09757 0.0
O17 O 0.25002 0.19074 0.06354 0.0
C18 C 0.45089 0.37974 0.06602 0.0
O19 O 0.48594 0.34858 0.05767 0.0
N20 N 0.35107 0.16515 0.04341 0.0
C21 C 0.36898 0.06889 0.01965 0.0
C22 C 0.29601 0.05516 0.02417 0.0
C23 C 0.2883 0.10544 0.03575 0.0
C24 C 0.42191 0.1793 0.0388 0.0
C25 C 0.43231 0.13022 0.02758 0.0
H26 H 0.23283 0.09965 0.03719 0.0
H27 H 0.47119 0.23149 0.04308 0.0
H28 H 0.20703 0.22386 0.0316 0.0
H29 H 0.37261 0.35047 -0.00834 0.0
H30 H 0.48032 0.17258 0.10696 0.0
H31 H 0.246 1.01115 0.01723 0.0
H32 H 0.48929 0.14447 0.02358 0.0
C33 C 0.11833 0.34931 0.35703 0.0
C34 C 0.07696 0.31911 0.34105 0.0
N35 N 1.02628 0.24523 0.34393 0.0
N36 N 0.09444 0.29529 0.37018 0.0
C37 C 0.03747 0.23238 0.36181 0.0
H38 H 0.1642 0.40701 0.35886 0.0
Co39 Co 0.14338 0.3124 0.39369 0.0
C40 C 0.10963 0.16 0.40586 0.0
O41 O 0.18082 0.19138 0.41107 0.0
N42 N 0.19265 0.3298 0.41746 0.0
C43 C 0.27341 0.34922 0.44068 0.0
C44 C 0.26299 0.3421 0.42191 0.0
C45 C 0.16215 0.33039 0.4341 0.0
N46 N 0.21016 0.34218 0.44822 0.0
O47 O 0.06976 0.33474 0.40399 0.0
H48 H 0.30413 0.34239 0.41247 0.0
H49 H 0.10544 0.32136 0.436 0.0
O50 O 0.08469 0.20187 0.39905 0.0
C51 C 0.10668 0.40767 0.40346 0.0
O52 O 0.17712 0.44119 0.39759 0.0
N53 N 0.22067 0.3057 0.38238 0.0
C54 C 0.32693 0.33576 0.35539 0.0
C55 C 0.26781 0.26112 0.3582 0.0
C56 C 0.21364 0.24734 0.37165 0.0
C57 C 0.28148 0.37718 0.38057 0.0
C58 C 0.33662 0.39319 0.36742 0.0
H59 H 0.1623 0.19273 0.37179 0.0
H60 H 0.28438 0.4236 0.38849 0.0
H61 H 1.00626 0.1776 0.36846 0.0
H62 H 0.08335 0.34958 0.3283 0.0
H63 H 0.32356 0.35903 0.44824 0.0
H64 H 0.25774 0.2164 0.34847 0.0
H65 H 0.38058 0.45153 0.36513 0.0
C66 C 0.71544 0.04418 0.69282 0.0
C67 C 0.70157 1.00137 0.67701 0.0
N68 N 0.7514 0.9759 0.67616 0.0
N69 N 0.77393 0.0464 0.70215 0.0
C70 C 0.79529 1.0047 0.69155 0.0
H71 H 0.68524 0.07279 0.69719 0.0
Co72 Co 0.81235 0.10287 0.72436 0.0
C73 C 0.94065 0.08162 0.73566 0.0
O74 O 0.97817 0.1541 0.73997 0.0
N75 N 0.85133 0.15978 0.7468 0.0
C76 C 0.90625 0.25138 0.76805 0.0
C77 C 0.89551 0.23578 0.74948 0.0
C78 C 0.83703 0.13087 0.76416 0.0
N79 N 0.86979 0.18538 0.77715 0.0
O80 O 0.7237 0.02815 0.73713 0.0
H81 H 0.91876 0.27856 0.73887 0.0
H82 H 0.80125 0.0712 0.76729 0.0
O83 O 0.8727 0.05229 0.72923 0.0
C84 C 0.68328 0.0598 0.7398 0.0
O85 O 0.7144 0.13297 0.7367 0.0
N86 N 0.88669 0.17937 0.71083 0.0
C87 C 0.9586 0.29318 0.68519 0.0
C88 C 0.98504 0.24229 0.6887 0.0
C89 C 0.94687 0.18403 0.70143 0.0
C90 C 0.86093 0.22863 0.70742 0.0
C91 C 0.89731 0.28742 0.695 0.0
H92 H 0.96203 0.14032 0.70258 0.0
H93 H 0.81011 0.2208 0.7141 0.0
H94 H 0.84173 0.99524 0.69505 0.0
H95 H 0.65862 0.99086 0.66672 0.0
H96 H 0.9363 0.307 0.77444 0.0
H97 H 0.03021 0.24351 0.68048 0.0
H98 H 0.87434 0.32435 0.69206 0.0
C99 C 0.70341 0.76099 0.0244 0.0
C100 C 0.73526 0.75166 0.00851 0.0
N101 N 0.81127 0.78699 0.01064 0.0
N102 N 0.75845 0.80233 0.03678 0.0
C103 C 0.82387 0.81735 0.02799 0.0
H104 H 0.64362 0.74008 0.02668 0.0
Co105 Co 0.73708 0.83365 0.05984 0.0
C106 C 0.88524 0.95204 0.07421 0.0
O107 O 0.85104 0.98893 0.07973 0.0
N108 N 0.71512 0.8647 0.08315 0.0
C109 C 0.67954 0.91616 0.1056 0.0
C110 C 0.68818 0.91254 0.0869 0.0
C111 C 0.72278 0.84077 0.10013 0.0
N112 N 0.70151 0.87129 0.11381 0.0
O113 O 0.71531 0.73871 0.07062 0.0
H114 H 0.67604 0.94466 0.07703 0.0
H115 H 0.74261 0.80095 0.10248 0.0
O116 O 0.84629 0.88685 0.06637 0.0
C117 C 0.64241 0.70212 0.07057 0.0
O118 O 0.60725 0.73772 0.06481 0.0
N119 N 0.74413 0.9169 0.04809 0.0
C120 C 0.7209 1.0072 0.02358 0.0
C121 C 0.79485 0.02186 0.02738 0.0
C122 C 0.80527 0.97469 0.03951 0.0
C123 C 0.67241 0.90297 0.04452 0.0
C124 C 0.65962 0.94915 0.03286 0.0
H125 H 0.86092 0.98057 0.04057 0.0
H126 H 0.62416 0.85411 0.05044 0.0
H127 H 0.87977 0.85213 0.03391 0.0
H128 H 0.7045 0.72084 -0.00373 0.0
H129 H 0.65784 0.94843 0.11265 0.0
H130 H 0.843 0.06376 0.01955 0.0
H131 H 0.60183 0.93496 0.02971 0.0
C132 C 0.99739 0.6609 0.35411 0.0
C133 C 0.04219 0.69566 0.33894 0.0
N134 N 0.06697 0.77075 0.33978 0.0
N135 N 0.99322 0.71316 0.36475 0.0
C136 C 0.03577 0.77985 0.35554 0.0
H137 H 0.96849 0.60074 0.35707 0.0
Co138 Co 0.93238 0.68596 0.38644 0.0
C139 C 0.94549 0.82915 0.40026 0.0
O140 O 0.87226 0.79072 0.40366 0.0
N141 N 0.87175 0.65833 0.40832 0.0
C142 C 0.78092 0.60269 0.42956 0.0
C143 C 0.79798 0.60551 0.4111 0.0
C144 C 0.89815 0.68571 0.42549 0.0
N145 N 0.8438 0.65373 0.43852 0.0
O146 O 1.00558 0.66981 0.39955 0.0
H147 H 0.75854 0.56897 0.40073 0.0
H148 H 0.95677 0.72725 0.42842 0.0
O149 O 0.97895 0.7947 0.39364 0.0
C150 C 0.9727 0.59699 0.39999 0.0
O151 O 0.906 0.55793 0.39203 0.0
N152 N 0.8569 0.68763 0.37274 0.0
C153 C 0.73963 0.65978 0.3489 0.0
C154 C 0.795 0.73467 0.35329 0.0
C155 C 0.85488 0.74753 0.36488 0.0
C156 C 0.80527 0.61499 0.36783 0.0
C157 C 0.74497 0.59948 0.35626 0.0
H158 H 0.90102 0.8049 0.36657 0.0
H159 H 0.81202 0.5684 0.37256 0.0
H160 H 0.04391 0.834 0.36026 0.0
H161 H 0.05441 0.66734 0.32789 0.0
H162 H 0.72674 0.56529 0.43598 0.0
H163 H 0.79527 0.7826 0.34664 0.0
H164 H 0.70556 0.54138 0.35224 0.0
C165 C 0.26269 0.91404 0.6829 0.0
C166 C 0.26796 0.95801 0.66787 0.0
N167 N 0.25936 1.01611 0.67375 0.0
N168 N 0.24983 0.94319 0.69836 0.0
C169 C 0.24908 1.00636 0.69234 0.0
H170 H 0.26607 0.86261 0.6825 0.0
Co171 Co 0.22807 0.89236 0.72168 0.0
C172 C 0.11041 0.91903 0.73787 0.0
O173 O 0.0764 0.8478 0.74324 0.0
N174 N 0.20811 0.84231 0.74506 0.0
C175 C 0.19254 0.76373 0.76832 0.0
C176 C 0.19537 0.77206 0.74949 0.0
C177 C 0.21448 0.87582 0.76173 0.0
N178 N 0.20399 0.82875 0.77596 0.0
O179 O 0.32579 0.96607 0.73104 0.0
H180 H 0.19166 0.72934 0.7401 0.0
H181 H 0.22921 0.93457 0.76341 0.0
O182 O 0.17534 0.9477 0.72982 0.0
C183 C 0.36233 0.9309 0.72767 0.0
O184 O 0.3272 0.86735 0.71822 0.0
N185 N 0.13979 0.81407 0.71141 0.0
C186 C 0.0486 0.70767 0.68546 0.0
C187 C 0.03554 0.76703 0.69029 0.0
C188 C 0.08336 0.82118 0.70304 0.0
C189 C 0.14924 0.75365 0.70748 0.0
C190 C 0.1019 0.69767 0.69521 0.0
H191 H 0.08094 0.87286 0.70417 0.0
H192 H 0.20033 0.75413 0.7116 0.0
H193 H 0.2387 0.04308 0.70124 0.0
H194 H 0.27734 0.94806 0.65365 0.0
H195 H 0.18461 0.71431 0.77589 0.0
H196 H 0.9967 0.77785 0.68231 0.0
H197 H 0.11537 0.65439 0.6911 0.0
C198 C 0.735 0.68201 0.60148 0.0
C199 C 0.71837 0.70871 0.61726 0.0
N200 N 0.76081 0.78512 0.61758 0.0
N201 N 0.78799 0.74074 0.59164 0.0
C202 C 0.8033 0.80319 0.60191 0.0
H203 H 0.71076 0.62303 0.59752 0.0
Co204 Co 0.82823 0.72512 0.56942 0.0
C205 C 0.95212 0.87667 0.5584 0.0
O206 O 0.99086 0.84337 0.55369 0.0
N207 N 0.86846 0.70868 0.54693 0.0
C208 C 0.9235 0.67096 0.52599 0.0
C209 C 0.91469 0.67897 0.54449 0.0
C210 C 0.8515 0.71949 0.52943 0.0
N211 N 0.88404 0.69666 0.5166 0.0
O212 O 0.73713 0.70581 0.55664 0.0
H213 H 0.94062 0.66278 0.55521 0.0
H214 H 0.81342 0.74063 0.52612 0.0
O215 O 0.88415 0.83618 0.56461 0.0
C216 C 0.69956 0.63315 0.55484 0.0
O217 O 0.73451 0.59518 0.5587 0.0
N218 N 0.90565 0.72833 0.58311 0.0
C219 C 0.97589 0.69412 0.61103 0.0
C220 C 0.99826 0.77014 0.60715 0.0
C221 C 0.96092 0.78623 0.59324 0.0
C222 C 0.88498 0.65464 0.58668 0.0
C223 C 0.92064 0.63622 0.60028 0.0
H224 H 0.97144 0.84357 0.59196 0.0
H225 H 0.83758 0.60928 0.57945 0.0
H226 H 0.84457 0.86068 0.59802 0.0
H227 H 0.67887 0.6741 0.62791 0.0
H228 H 0.95484 0.64625 0.51986 0.0
H229 H 0.03836 0.81567 0.616 0.0
H230 H 0.90067 0.57707 0.60344 0.0
C231 C 0.0661 0.72357 0.93823 0.0
C232 C 1.02642 0.71692 0.95426 0.0
N233 N 1.00302 0.76842 0.95391 0.0
N234 N 0.06799 0.77885 0.92757 0.0
C235 C 1.02833 0.80475 0.93746 0.0
H236 H 0.09411 0.69172 0.93484 0.0
Co237 Co 0.1289 0.81676 0.9059 0.0
C238 C 0.10609 0.94237 0.89305 0.0
O239 O 0.17875 0.98069 0.88902 0.0
N240 N 0.19031 0.85565 0.88417 0.0
C241 C 0.28623 0.90684 0.8641 0.0
C242 C 0.26696 0.89538 0.88244 0.0
C243 C 0.16475 0.84486 0.86647 0.0
N244 N 0.222 0.8753 0.8541 0.0
O245 O 0.05853 0.72657 0.89235 0.0
H246 H 0.30783 0.91459 0.89352 0.0
H247 H 0.10533 0.81266 0.86268 0.0
O248 O 0.07754 0.87482 0.89958 0.0
C249 C 0.09412 0.68915 0.89131 0.0
O250 O 0.16372 0.72143 0.89774 0.0
N251 N 0.20163 0.89304 0.9201 0.0
C252 C 0.30485 0.96368 0.94816 0.0
C253 C 0.25505 0.98976 0.94312 0.0
C254 C 0.20222 0.95237 0.92907 0.0
C255 C 0.25088 0.86872 0.9249 0.0
C256 C 0.30461 0.90465 0.93851 0.0
H257 H 0.15854 0.96682 0.9267 0.0
H258 H 0.24677 0.8189 0.91856 0.0
H259 H 1.02112 0.85176 0.93314 0.0
H260 H 1.01588 0.67722 0.96537 0.0
H261 H 0.34317 0.93466 0.85848 0.0
H262 H 0.2523 0.03353 0.9511 0.0
H263 H 0.341 0.88222 0.94256 0.0
C264 C 0.36703 0.0737 0.27058 0.0
C265 C 0.33888 0.02655 0.28568 0.0
N266 N 0.26239 0.9901 0.28508 0.0
N267 N 0.3091 0.0678 0.26025 0.0
C268 C 0.24564 1.0167 0.26955 0.0
H269 H 0.42636 0.11082 0.26739 0.0
Co270 Co 0.32618 0.127 0.23855 0.0
C271 C 0.17532 0.09927 0.22688 0.0
O272 O 0.20819 0.17216 0.22323 0.0
N273 N 0.34369 0.18665 0.21658 0.0
C274 C 0.37869 0.28043 0.19608 0.0
C275 C 0.37069 0.26231 0.21449 0.0
C276 C 0.33444 0.1604 0.19897 0.0
N277 N 0.35573 0.21632 0.18642 0.0
O278 O 0.34911 0.0587 0.22516 0.0
H279 H 0.38449 0.30339 0.22537 0.0
H280 H 0.31523 0.10186 0.19535 0.0
O281 O 0.21575 0.07112 0.23284 0.0
C282 C 0.42201 0.09605 0.22413 0.0
O283 O 0.4573 0.16683 0.22985 0.0
N284 N 0.31962 0.19828 0.25274 0.0
C285 C 0.34866 0.30225 0.28051 0.0
C286 C 0.27365 0.24554 0.27664 0.0
C287 C 0.26026 0.19257 0.26277 0.0
C288 C 0.39221 0.2539 0.25637 0.0
C289 C 0.40785 0.3082 0.26973 0.0
H290 H 0.20406 0.14395 0.26139 0.0
H291 H 0.43905 0.25468 0.24921 0.0
H292 H 0.18837 0.99892 0.26503 0.0
H293 H 0.37243 0.02037 0.29646 0.0
H294 H 0.4016 0.33662 0.19019 0.0
H295 H 0.22721 0.2373 0.28551 0.0
H296 H 0.46638 0.34975 0.27286 0.0
C297 C 0.31335 0.36829 0.61441 0.0
C298 C 0.31754 0.32811 0.62925 0.0
N299 N 0.28511 0.25392 0.62462 0.0
N300 N 0.2784 0.32066 0.60017 0.0
C301 C 0.26231 0.25137 0.60674 0.0
H302 H 0.33159 0.42823 0.61429 0.0
Co303 Co 0.2481 0.35095 0.57833 0.0
C304 C 0.12216 0.20856 0.56285 0.0
O305 O 0.08756 0.24694 0.55904 0.0
N306 N 0.21747 0.3811 0.55636 0.0
C307 C 0.16416 0.41938 0.53511 0.0
C308 C 0.17632 0.41614 0.55366 0.0
C309 C 0.23029 0.36496 0.53902 0.0
N310 N 0.19855 0.38753 0.52585 0.0
O311 O 0.34056 0.37147 0.56604 0.0
H312 H 0.15263 0.43558 0.56419 0.0
H313 H 0.26109 0.33539 0.53616 0.0
O314 O 0.18905 0.24308 0.57004 0.0
C315 C 0.37962 0.44409 0.56759 0.0
O316 O 0.35066 0.47796 0.57733 0.0
N317 N 0.16778 0.34516 0.59138 0.0
C318 C 0.07608 0.3663 0.61593 0.0
C319 C 0.05993 0.29261 0.61118 0.0
C320 C 0.10794 0.28319 0.59915 0.0
C321 C 0.18461 0.41671 0.59631 0.0
C322 C 0.13828 0.42874 0.60812 0.0
H323 H 0.09996 0.227 0.59723 0.0
H324 H 0.23526 0.46532 0.59115 0.0
H325 H 0.23353 0.2002 0.59854 0.0
H326 H 0.34027 0.35196 0.64271 0.0
H327 H 0.12923 0.44019 0.52911 0.0
H328 H 1.01499 0.24321 0.61803 0.0
H329 H 0.15401 0.48614 0.61218 0.0
C330 C 0.99383 0.33379 0.93904 0.0
C331 C 0.03808 0.34222 0.95434 0.0
N332 N 0.0626 0.29166 0.95327 0.0
N333 N 0.98974 0.27805 0.92814 0.0
C334 C 0.03232 0.25341 0.93719 0.0
H335 H 0.96472 0.3651 0.93628 0.0
Co336 Co 0.92599 0.24014 0.90686 0.0
C337 C 0.94189 0.11085 0.89395 0.0
O338 O 0.86844 0.07494 0.89077 0.0
N339 N 0.8624 0.20208 0.88546 0.0
C340 C 0.76701 0.15035 0.86515 0.0
C341 C 0.78583 0.16498 0.88351 0.0
C342 C 0.88828 0.20901 0.86792 0.0
N343 N 0.83156 0.1785 0.85536 0.0
O344 O 0.99556 0.3291 0.89302 0.0
H345 H 0.7448 0.14816 0.89448 0.0
H346 H 0.94794 0.23659 0.86439 0.0
O347 O 0.97479 0.17967 0.89992 0.0
C348 C 0.96043 0.36705 0.89255 0.0
O349 O 0.89394 0.33759 0.9006 0.0
N350 N 0.85401 0.16438 0.92138 0.0
C351 C 0.75653 0.09551 0.9505 0.0
C352 C 0.80731 0.07112 0.9452 0.0
C353 C 0.85726 0.10772 0.93068 0.0
C354 C 0.80309 0.18644 0.92626 0.0
C355 C 0.75224 0.15135 0.94046 0.0
H356 H 0.90234 0.09535 0.92829 0.0
H357 H 0.80441 0.23464 0.91971 0.0
H358 H 0.03816 0.20602 0.93249 0.0
H359 H 0.05106 0.38265 0.96546 0.0
H360 H 0.71011 0.12025 0.85947 0.0
H361 H 0.81379 0.03012 0.95342 0.0
H362 H 0.71521 0.17272 0.94472 0.0
C363 C 0.68623 1.00138 0.27533 0.0
C364 C 0.72577 0.04422 0.29051 0.0
N365 N 0.79807 0.05857 0.28962 0.0
N366 N 0.73273 0.98812 0.26467 0.0
C367 C 0.80061 0.02372 0.27377 0.0
H368 H 0.62667 0.9798 0.27245 0.0
Co369 Co 0.70134 0.92405 0.24338 0.0
C370 C 0.84329 0.93525 0.229 0.0
O371 O 0.80444 0.86221 0.22535 0.0
N372 N 0.67083 0.86033 0.22192 0.0
C373 C 0.62075 0.76499 0.20156 0.0
C374 C 0.62578 0.78424 0.21993 0.0
C375 C 0.69159 0.88561 0.20438 0.0
N376 N 0.66196 0.82889 0.19179 0.0
O377 O 0.68457 0.99651 0.22985 0.0
H378 H 0.59798 0.74384 0.23086 0.0
H379 H 0.7279 0.94487 0.20092 0.0
O380 O 0.80904 0.96861 0.23576 0.0
C381 C 0.61169 0.96376 0.22982 0.0
O382 O 0.57376 0.89902 0.23859 0.0
N383 N 0.7027 0.8494 0.2575 0.0
C384 C 0.67133 0.73531 0.28261 0.0
C385 C 0.74667 0.78617 0.27748 0.0
C386 C 0.76148 0.84428 0.26505 0.0
C387 C 0.6298 0.80119 0.26285 0.0
C388 C 0.61244 0.7421 0.27489 0.0
H389 H 0.81967 0.88698 0.26255 0.0
H390 H 0.58417 0.80875 0.25781 0.0
H391 H 0.85014 0.02146 0.26924 0.0
H392 H 0.70276 0.06329 0.30142 0.0
H393 H 0.5902 0.70808 0.1959 0.0
H394 H 0.79375 0.78447 0.28407 0.0
H395 H 0.55403 0.70508 0.27903 0.0
C396 C 0.51507 0.58646 0.07382 0.0
C397 C 0.59509 0.61973 0.07432 0.0
C398 C 0.46719 0.50766 0.07276 0.0
C399 C 0.49762 0.45928 0.07232 0.0
H400 H 0.48889 0.62158 0.07306 0.0
H401 H 0.40676 0.48518 0.07093 0.0
S402 S 0.7012 0.516 0.07812 0.0
N403 N 0.7011 0.5972 0.07758 0.0
N404 N 0.61141 0.4488 0.07617 0.0
C405 C 0.57673 0.49118 0.07504 0.0
C406 C 0.6255 0.57155 0.07593 0.0
C407 C 0.11878 0.53608 0.40476 0.0
C408 C 0.07304 0.45657 0.4072 0.0
C409 C 0.08741 0.58381 0.40431 0.0
C410 C 1.00923 0.55385 0.40644 0.0
H411 H 0.17897 0.56163 0.40201 0.0
H412 H 0.12367 0.64312 0.40082 0.0
S413 S 0.86754 0.35367 0.41778 0.0
N414 N 0.94776 0.35287 0.41492 0.0
N415 N 0.88861 0.44255 0.41456 0.0
C416 C 0.96425 0.47615 0.41102 0.0
C417 C 0.99614 0.42742 0.41128 0.0
C418 C 0.56183 0.05716 0.74637 0.0
C419 C 0.59952 1.01707 0.74143 0.0
C420 C 0.48442 0.02809 0.74261 0.0
C421 C 0.44157 0.95751 0.73388 0.0
H422 H 0.59353 0.11387 0.75215 0.0
H423 H 0.45907 0.06267 0.74582 0.0
S424 S 0.51047 0.82416 0.72112 0.0
N425 N 0.58619 0.89954 0.72946 0.0
N426 N 0.44064 0.84318 0.72276 0.0
C427 C 0.47715 0.91376 0.73044 0.0
C428 C 0.55608 0.94379 0.7342 0.0
C429 C 0.5804 0.5079 0.55191 0.0
C430 C 0.61561 0.58807 0.55296 0.0
C431 C 0.50264 0.46077 0.55538 0.0
C432 C 0.45692 0.49203 0.55983 0.0
H433 H 0.61402 0.48077 0.54961 0.0
H434 H 0.47951 0.39983 0.55572 0.0
S435 S 0.51698 0.69789 0.55981 0.0
N436 N 0.59591 0.69597 0.55573 0.0
N437 N 0.44942 0.60824 0.56159 0.0
C438 C 0.48962 0.57199 0.5588 0.0
C439 C 0.56901 0.61986 0.55548 0.0
C440 C 0.07334 0.49445 0.88636 0.0
C441 C 0.99456 0.44675 0.88619 0.0
C442 C 0.10494 0.5735 0.88614 0.0
C443 C 0.05893 0.60782 0.88603 0.0
H444 H 0.11061 0.47109 0.88819 0.0
H445 H 0.16607 0.60774 0.88744 0.0
S446 S 0.85012 0.50703 0.88046 0.0
N447 N 0.87164 0.43876 0.88173 0.0
N448 N 0.93156 0.58751 0.88213 0.0
C449 C 0.9807 0.56073 0.88362 0.0
C450 C 0.94843 0.48009 0.88351 0.0
C451 C 0.59767 0.07649 0.22248 0.0
C452 C 0.56718 0.99774 0.22251 0.0
C453 C 0.54989 0.10771 0.22118 0.0
C454 C 0.46983 0.06133 0.22014 0.0
H455 H 0.65775 0.11398 0.22495 0.0
H456 H 0.57605 0.16884 0.22236 0.0
S457 S 0.3644 0.85224 0.21491 0.0
N458 N 0.45392 0.87436 0.21745 0.0
N459 N 0.3644 0.93347 0.21576 0.0
C460 C 0.43976 0.98304 0.21802 0.0
C461 C 0.48846 0.95121 0.21904 0.0
C462 C 0.39599 0.06046 0.9696 0.0
C463 C 0.34237 0.98467 0.96605 0.0
C464 C 0.4146 0.08576 -0.01224 0.0
C465 C 0.37828 0.03586 0.00262 0.0
H466 H 0.4183 0.10134 0.95843 0.0
H467 H 0.44992 0.1463 -0.00993 0.0
S468 S 0.24516 0.8292 6e-05 0.0
N469 N 0.2625 0.85736 0.9783 0.0
N470 N 0.29722 0.90587 0.01269 0.0
C471 C 0.33226 0.95822 -0.00087 0.0
C472 C 0.31385 0.93229 0.98066 0.0
C473 C 0.40261 0.32671 0.33006 0.0
C474 C 0.35834 0.35624 0.33688 0.0
C475 C 0.40741 0.31857 0.31108 0.0
C476 C 0.36658 0.33831 0.29867 0.0
H477 H 0.42711 0.30305 0.33942 0.0
H478 H 0.43596 0.28873 0.30628 0.0
S479 S 0.25375 0.42993 0.30984 0.0
N480 N 0.28274 0.41596 0.33006 0.0
N481 N 0.29037 0.39838 0.29415 0.0
C482 C 0.32937 0.37568 0.30525 0.0
C483 C 0.32566 0.38533 0.32453 0.0
C484 C 0.08938 0.40953 0.64803 0.0
C485 C 0.04181 0.37676 0.63257 0.0
C486 C 0.06015 0.38982 0.66584 0.0
C487 C 0.98286 0.33848 0.66839 0.0
H488 H 0.15052 0.44202 0.64645 0.0
H489 H 0.09905 0.40794 0.67747 0.0
S490 S 0.83318 0.25454 0.63237 0.0
N491 N 0.91313 0.30415 0.6208 0.0
N492 N 0.85715 0.26756 0.65448 0.0
C493 C 0.9333 0.31547 0.65314 0.0
C494 C 0.96323 0.33482 0.63504 0.0
C495 C 0.66567 0.98165 -0.00757 0.0
C496 C 0.70677 0.03536 0.00634 0.0
C497 C 0.67544 1.00287 0.97391 0.0
C498 C 0.72511 0.0783 0.96905 0.0
H499 H 0.63292 0.92162 -0.00437 0.0
H500 H 0.64975 0.95932 0.96335 0.0
S501 S 0.83291 0.24201 0.00052 0.0
N502 N 0.78885 0.16793 0.01436 0.0
N503 N 0.80667 0.20873 0.97931 0.0
C504 C 0.75863 0.13399 -0.01709 0.0
C505 C 0.7494 0.11219 0.00173 0.0
C506 C 0.68853 0.64014 0.29972 0.0
C507 C 0.65692 0.68756 0.29886 0.0
C508 C 0.70416 0.61938 0.31681 0.0
C509 C 0.6895 0.64693 0.33322 0.0
H510 H 0.70895 0.6264 0.28728 0.0
H511 H 0.73716 0.5908 0.31707 0.0
S512 S 0.58899 0.75536 0.33809 0.0
N513 N 0.59677 0.74779 0.31556 0.0
N514 N 0.62733 0.70883 0.34781 0.0
C515 C 0.64704 0.68378 0.3325 0.0
C516 C 0.63051 0.70442 0.31515 0.0
C517 C 0.95421 0.64132 0.66077 0.0
C518 C 0.03 0.67846 0.6666 0.0
C519 C 0.93687 0.63902 0.64205 0.0
C520 C 0.99509 0.67505 0.6289 0.0
H521 H 0.90867 0.62036 0.67082 0.0
H522 H 0.87791 0.61581 0.63808 0.0
S523 S 0.20186 0.7696 0.637 0.0
N524 N 0.1635 0.74307 0.65771 0.0
N525 N 0.12993 0.73979 0.62241 0.0
C526 C 0.07062 0.70551 0.63433 0.0
C527 C 0.08839 0.70679 0.65331 0.0
C528 C 0.08945 0.11552 0.07544 0.0
C529 C 0.13214 0.07981 0.0721 0.0
C530 C 1.00995 0.07322 0.07653 0.0
C531 C 0.96972 0.9936 0.07393 0.0
H532 H 0.11768 0.17648 0.07743 0.0
H533 H 0.97986 0.10378 0.07912 0.0
S534 S 0.05527 0.87346 0.06379 0.0
N535 N 0.12854 0.96028 0.06565 0.0
N536 N 0.9793 0.88136 0.0674 0.0
C537 C 1.01185 0.95738 0.07033 0.0
C538 C 0.09291 1.0003 0.06949 0.0
C539 C 0.10228 0.03328 0.40727 0.0
C540 C 0.06476 0.07555 0.40493 0.0
C541 C 0.06369 0.95393 0.40559 0.0
C542 C 0.98562 0.91318 0.40183 0.0
H543 H 0.16262 0.06162 0.41015 0.0
H544 H 0.09518 0.92426 0.40742 0.0
S545 S 0.86046 0.99569 0.3941 0.0
N546 N 0.9448 0.06994 0.39835 0.0
N547 N 0.87184 0.92082 0.39539 0.0
C548 C 0.94705 0.95437 0.39952 0.0
C549 C 0.98666 0.03543 0.40101 0.0
C550 C 0.0618 0.0774 0.73799 0.0
C551 C 0.98178 0.03809 0.73638 0.0
C552 C 0.10314 0.03887 0.73843 0.0
C553 C 0.06615 0.95931 0.73766 0.0
H554 H 0.0933 0.13884 0.73869 0.0
H555 H 0.16446 0.07164 0.73952 0.0
S556 S 0.85793 0.82925 0.73279 0.0
N557 N 0.86763 0.91487 0.73351 0.0
N558 N 0.94461 0.84223 0.73464 0.0
C559 C 0.98616 0.91915 0.73603 0.0
C560 C 0.94421 0.95852 0.7353 0.0
C561 C 0.07294 1.00257 0.55718 0.0
C562 C 0.99308 0.96137 0.55922 0.0
C563 C 0.11446 0.08216 0.55855 0.0
C564 C 0.07786 0.12421 0.56167 0.0
H565 H 0.10428 0.97318 0.55472 0.0
H566 H 0.17558 0.11096 0.55694 0.0
S567 S 0.87054 0.04467 0.56887 0.0
N568 N 0.87971 0.96943 0.56519 0.0
N569 N 0.95708 0.11865 0.5675 0.0
C570 C 0.99812 0.08397 0.56383 0.0
C571 C 0.95597 1.00279 0.56268 0.0
C572 C 0.09991 0.06241 0.88992 0.0
C573 C 0.0619 0.98296 0.89269 0.0
C574 C 0.06115 0.10353 0.89044 0.0
C575 C 0.98249 0.06686 0.89342 0.0
H576 H 0.16062 0.09373 0.8876 0.0
H577 H 0.09302 0.16442 0.88836 0.0
S578 S 0.85618 0.86035 0.90206 0.0
N579 N 0.94093 0.86981 0.89897 0.0
N580 N 0.86793 0.94639 0.89974 0.0
C581 C 0.94361 0.98745 0.89619 0.0
C582 C 0.98327 0.94575 0.89588 0.0
C583 C 0.04922 0.09363 0.22625 0.0
C584 C 0.09072 0.05482 0.2269 0.0
C585 C 0.9696 0.05479 0.22692 0.0
C586 C 0.9277 0.97525 0.22795 0.0
H587 H 0.07837 0.15504 0.22553 0.0
H588 H 0.94071 0.08745 0.22657 0.0
S589 S 1.00831 0.84628 0.23036 0.0
N590 N 0.08341 0.93208 0.22896 0.0
N591 N 0.93392 0.85864 0.22994 0.0
C592 C 0.9683 0.93547 0.22853 0.0
C593 C 0.04961 0.97528 0.2281 0.0
C594 C 0.10498 0.29531 -0.01408 0.0
C595 C 0.1099 0.28152 0.96691 0.0
C596 C 0.15456 0.29242 -0.00077 0.0
C597 C 0.21209 0.27666 -0.00588 0.0
H598 H 0.06286 0.3094 -0.00943 0.0
H599 H 0.14987 0.30567 0.01351 0.0
S600 S 0.24628 0.23026 0.94665 0.0
N601 N 0.1752 0.24707 0.94407 0.0
N602 N 0.26746 0.24151 0.96892 0.0
C603 C 0.21588 0.25994 0.97533 0.0
C604 C 0.16508 0.26222 0.96181 0.0
C605 C 0.89537 0.1439 0.33554 0.0
C606 C 0.97145 0.19298 0.33051 0.0
C607 C 0.83977 0.09935 0.32221 0.0
C608 C 0.85777 0.10078 0.30326 0.0
H609 H 0.87813 0.142 0.34979 0.0
H610 H 0.78185 0.06377 0.32681 0.0
S611 S 0.05071 0.21459 0.28318 0.0
N612 N 0.06297 0.23624 0.30542 0.0
N613 N 0.95928 0.15333 0.28053 0.0
C614 C 0.93446 0.14733 0.29822 0.0
C615 C 0.99088 0.19319 0.31176 0.0
C616 C 0.82589 0.89631 0.63912 0.0
C617 C 0.75876 0.83481 0.63184 0.0
C618 C 0.82375 0.94116 0.65393 0.0
C619 C 0.75432 0.92707 0.6618 0.0
H620 H 0.8804 0.90887 0.63357 0.0
H621 H 0.87658 0.98792 0.65904 0.0
S622 S 0.56273 0.77374 0.64764 0.0
N623 N 0.62111 0.76366 0.6336 0.0
N624 N 0.61723 0.84629 0.6612 0.0
C625 C 0.68717 0.86599 0.65454 0.0
C626 C 0.68935 0.82043 0.63966 0.0
C627 C 0.85088 0.79385 0.97769 0.0
C628 C 0.8651 0.79058 -0.00325 0.0
C629 C 0.89777 0.78993 0.96381 0.0
C630 C 0.96038 0.78112 0.96831 0.0
H631 H 0.80236 0.79866 0.97343 0.0
H632 H 0.88323 0.79092 0.94944 0.0
S633 S 1.02667 0.77548 0.0159 0.0
N634 N 0.94991 0.78246 0.01917 0.0
N635 N 0.0373 0.77486 -0.00674 0.0
C636 C 0.97688 0.78041 -0.01273 0.0
C637 C 0.92968 0.78535 0.0014 0.0
C638 C 0.14837 0.9358 0.30576 0.0
C639 C 0.21152 0.93366 0.29832 0.0
C640 C 0.10241 0.88409 0.31969 0.0
C641 C 0.11701 0.8274 0.32646 0.0
H642 H 0.13537 0.97861 0.30104 0.0
H643 H 0.05437 0.88757 0.32496 0.0
S644 S 0.27457 0.79703 0.3114 0.0
N645 N 0.28494 0.86916 0.29874 0.0
N646 N 0.19996 0.77352 0.32463 0.0
C647 C 0.17973 0.8248 0.31902 0.0
C648 C 0.22648 0.87738 0.30506 0.0
C649 C 0.31559 0.15172 0.66506 0.0
C650 C 0.26122 0.07517 0.66212 0.0
C651 C 0.32329 0.20885 0.65269 0.0
C652 C 0.27603 0.19255 0.63691 0.0
H653 H 0.35414 0.16718 0.6767 0.0
H654 H 0.36795 0.2663 0.65547 0.0
S655 S 0.11958 0.99967 0.6241 0.0
N656 N 0.15751 0.98537 0.6428 0.0
N657 N 0.16863 0.09194 0.62011 0.0
C658 C 0.21981 0.11566 0.63417 0.0
C659 C 0.21322 0.05742 0.64662 0.0
C660 C 0.31408 0.17825 0.13581 0.0
C661 C 0.38752 0.21159 0.12824 0.0
C662 C 0.30354 0.17784 0.15501 0.0
C663 C 0.3662 0.21199 0.16701 0.0
H664 H 0.26484 0.15163 0.12682 0.0
H665 H 0.24651 0.15205 0.16053 0.0
S666 S 0.56923 0.30868 0.15412 0.0
N667 N 0.52334 0.28035 0.13422 0.0
N668 N 0.50315 0.28035 0.17025 0.0
C669 C 0.43951 0.24581 0.15962 0.0
C670 C 0.45031 0.2454 0.14021 0.0
C671 C 0.20414 0.30083 0.48029 0.0
C672 C 0.19922 0.34983 0.46745 0.0
C673 C 0.20233 0.31263 0.49932 0.0
C674 C 0.19736 0.37503 0.50616 0.0
H675 H 0.21012 0.25353 0.47551 0.0
H676 H 0.20513 0.27265 0.5087 0.0
S677 S 0.18774 0.52214 0.47758 0.0
N678 N 0.19006 0.46265 0.46236 0.0
N679 N 0.19039 0.48805 0.49813 0.0
C680 C 0.1925 0.42454 0.49325 0.0
C681 C 0.19264 0.4112 0.47389 0.0
C682 C 0.89423 0.16389 0.82768 0.0
C683 C 0.83863 0.17724 0.8356 0.0
C684 C 0.9027 0.16393 0.80841 0.0
C685 C 0.85603 0.17759 0.79661 0.0
H686 H 0.93122 0.15334 0.83646 0.0
H687 H 0.94669 0.15473 0.80268 0.0
S688 S 0.70471 0.21856 0.81011 0.0
N689 N 0.73784 0.20647 0.82993 0.0
N690 N 0.75406 0.20592 0.79375 0.0
C691 C 0.80043 0.19074 0.80424 0.0
C692 C 0.79154 0.19061 0.82376 0.0
C693 C 0.74343 0.88846 0.16452 0.0
C694 C 0.67259 0.83544 0.17204 0.0
C695 C 0.75396 0.89748 0.14531 0.0
C696 C 0.69406 0.85369 0.1331 0.0
H697 H 0.79074 0.92346 0.17357 0.0
H698 H 0.80838 0.94023 0.13992 0.0
S699 S 0.49767 0.70949 0.14542 0.0
N700 N 0.54142 0.73987 0.16552 0.0
N701 N 0.56226 0.75698 0.12946 0.0
C702 C 0.6236 0.80022 0.14032 0.0
C703 C 0.61261 0.79089 0.15981 0.0
C704 C 0.8224 0.60383 0.47024 0.0
C705 C 0.85214 0.66622 0.45815 0.0
C706 C 0.83171 0.61443 0.48941 0.0
C707 C 0.86944 0.68766 0.49711 0.0
H708 H 0.79354 0.54652 0.46477 0.0
H709 H 0.81002 0.5652 0.49833 0.0
S710 S 0.95426 0.86942 0.47161 0.0
N711 N 0.91902 0.80368 0.45525 0.0
N712 N 0.93498 0.8233 0.49149 0.0
C713 C 0.89768 0.75047 0.48529 0.0
C714 C 0.88951 0.7398 0.46572 0.0
C715 C 0.25681 0.8278 0.80641 0.0
C716 C 0.2106 0.84522 0.79539 0.0
C717 C 0.2607 0.8386 0.82557 0.0
C718 C 0.2172 0.86561 0.8344 0.0
H719 H 0.29009 0.80557 0.80011 0.0
H720 H 0.29683 0.82437 0.83363 0.0
S721 S 0.08767 0.91983 0.81172 0.0
N722 N 0.12142 0.89182 0.7945 0.0
N723 N 0.12741 0.91059 0.83079 0.0
C724 C 0.17081 0.88336 0.82357 0.0
C725 C 0.16802 0.87377 0.80396 0.0
loop_
_geom_bond_atom_site_label_1
_geom_bond_atom_site_label_2
_geom_bond_distance
_geom_bond_site_symmetry_2
_ccdc_geom_bond_type
C0 C1 1.351 . S
C0 N3 1.368 . S
C0 H5 0.931 . S
C1 C0 1.351 . S
C1 N2 1.373 . S
C1 H29 0.930 . S
N2 C1 1.373 . S
N2 C4 1.340 . S
N3 C0 1.368 . S
N3 C4 1.321 . S
N3 Co6 2.135 . S
C4 N2 1.340 . S
C4 N3 1.321 . S
C4 H28 0.930 . S
H5 C0 0.931 . S
Co6 N3 2.135 . S
Co6 N9 2.121 . S
Co6 O14 2.055 . S
Co6 O17 2.039 . S
Co6 N20 2.140 . S
C7 O8 1.227 . S
C7 O17 1.265 . S
O8 C7 1.227 . S
N9 Co6 2.121 . S
N9 C11 1.375 . S
N9 C12 1.313 . S
C10 C11 1.338 . S
C10 N13 1.377 . S
C10 H30 0.930 . S
C11 N9 1.375 . S
C11 C10 1.338 . S
C11 H15 0.931 . S
C12 N9 1.313 . S
C12 N13 1.344 . S
C12 H16 0.930 . S
N13 C10 1.377 . S
N13 C12 1.344 . S
O14 Co6 2.055 . S
O14 C18 1.253 . S
H15 C11 0.931 . S
H16 C12 0.930 . S
O17 Co6 2.039 . S
O17 C7 1.265 . S
C18 O14 1.253 . S
C18 O19 1.227 . S
O19 C18 1.227 . S
N20 Co6 2.140 . S
N20 C23 1.346 . S
N20 C24 1.345 . S
C21 C22 1.387 . S
C21 C25 1.391 . S
C22 C21 1.387 . S
C22 C23 1.369 . S
C22 H31 0.929 . S
C23 N20 1.346 . S
C23 C22 1.369 . S
C23 H26 0.928 . S
C24 N20 1.345 . S
C24 C25 1.371 . S
C24 H27 0.931 . S
C25 C21 1.391 . S
C25 C24 1.371 . S
C25 H32 0.930 . S
H26 C23 0.928 . S
H27 C24 0.931 . S
H28 C4 0.930 . S
H29 C1 0.930 . S
H30 C10 0.930 . S
H31 C22 0.929 . S
H32 C25 0.930 . S
C33 C34 1.351 1_455 S
C33 N36 1.368 . S
C33 H38 0.931 . S
C34 C33 1.351 1_655 S
C34 N35 1.373 . S
C34 H62 0.930 . S
N35 C34 1.373 . S
N35 C37 1.340 . S
N36 C33 1.368 . S
N36 C37 1.321 1_455 S
N36 Co39 2.135 . S
C37 N35 1.340 . S
C37 N36 1.321 1_655 S
C37 H61 0.930 . S
H38 C33 0.931 . S
Co39 N36 2.135 . S
Co39 N42 2.121 . S
Co39 O47 2.055 . S
Co39 O50 2.039 . S
Co39 N53 2.140 . S
C40 O41 1.227 . S
C40 O50 1.265 . S
O41 C40 1.227 . S
N42 Co39 2.121 . S
N42 C44 1.375 . S
N42 C45 1.313 . S
C43 C44 1.338 . S
C43 N46 1.377 . S
C43 H63 0.930 . S
C44 N42 1.375 . S
C44 C43 1.338 . S
C44 H48 0.931 . S
C45 N42 1.313 . S
C45 N46 1.344 . S
C45 H49 0.930 . S
N46 C43 1.377 . S
N46 C45 1.344 . S
O47 Co39 2.055 . S
O47 C51 1.253 . S
H48 C44 0.931 . S
H49 C45 0.930 . S
O50 Co39 2.039 . S
O50 C40 1.265 . S
C51 O47 1.253 . S
C51 O52 1.227 . S
O52 C51 1.227 . S
N53 Co39 2.140 . S
N53 C56 1.346 . S
N53 C57 1.345 . S
C54 C55 1.387 . S
C54 C58 1.391 . S
C55 C54 1.387 . S
C55 C56 1.369 . S
C55 H64 0.929 . S
C56 N53 1.346 . S
C56 C55 1.369 . S
C56 H59 0.928 . S
C57 N53 1.345 . S
C57 C58 1.371 . S
C57 H60 0.931 . S
C58 C54 1.391 . S
C58 C57 1.371 . S
C58 H65 0.930 . S
H59 C56 0.928 . S
H60 C57 0.931 . S
H61 C37 0.930 . S
H62 C34 0.930 . S
H63 C43 0.930 . S
H64 C55 0.929 . S
H65 C58 0.930 . S
C66 C67 1.351 1_545 S
C66 N69 1.368 . S
C66 H71 0.931 . S
C67 C66 1.351 1_565 S
C67 N68 1.373 . S
C67 H95 0.930 . S
N68 C67 1.373 . S
N68 C70 1.340 . S
N69 C66 1.368 . S
N69 C70 1.321 1_545 S
N69 Co72 2.135 . S
C70 N68 1.340 . S
C70 N69 1.321 1_565 S
C70 H94 0.930 . S
H71 C66 0.931 . S
Co72 N69 2.135 . S
Co72 N75 2.121 . S
Co72 O80 2.055 . S
Co72 O83 2.039 . S
Co72 N86 2.140 . S
C73 O74 1.227 . S
C73 O83 1.265 . S
O74 C73 1.227 . S
N75 Co72 2.121 . S
N75 C77 1.375 . S
N75 C78 1.313 . S
C76 C77 1.338 . S
C76 N79 1.377 . S
C76 H96 0.930 . S
C77 N75 1.375 . S
C77 C76 1.338 . S
C77 H81 0.931 . S
C78 N75 1.313 . S
C78 N79 1.344 . S
C78 H82 0.930 . S
N79 C76 1.377 . S
N79 C78 1.344 . S
O80 Co72 2.055 . S
O80 C84 1.253 . S
H81 C77 0.931 . S
H82 C78 0.930 . S
O83 Co72 2.039 . S
O83 C73 1.265 . S
C84 O80 1.253 . S
C84 O85 1.227 . S
O85 C84 1.227 . S
N86 Co72 2.140 . S
N86 C89 1.346 . S
N86 C90 1.345 . S
C87 C88 1.387 . S
C87 C91 1.391 . S
C88 C87 1.387 . S
C88 C89 1.369 . S
C88 H97 0.929 . S
C89 N86 1.346 . S
C89 C88 1.369 . S
C89 H92 0.928 . S
C90 N86 1.345 . S
C90 C91 1.371 . S
C90 H93 0.931 . S
C91 C87 1.391 . S
C91 C90 1.371 . S
C91 H98 0.930 . S
H92 C89 0.928 . S
H93 C90 0.931 . S
H94 C70 0.930 . S
H95 C67 0.930 . S
H96 C76 0.930 . S
H97 C88 0.929 . S
H98 C91 0.930 . S
C99 C100 1.351 . S
C99 N102 1.368 . S
C99 H104 0.931 . S
C100 C99 1.351 . S
C100 N101 1.373 . S
C100 H128 0.930 . S
N101 C100 1.373 . S
N101 C103 1.340 . S
N102 C99 1.368 . S
N102 C103 1.321 . S
N102 Co105 2.135 . S
C103 N101 1.340 . S
C103 N102 1.321 . S
C103 H127 0.930 . S
H104 C99 0.931 . S
Co105 N102 2.135 . S
Co105 N108 2.121 . S
Co105 O113 2.055 . S
Co105 O116 2.039 . S
Co105 N119 2.140 . S
C106 O107 1.227 . S
C106 O116 1.265 . S
O107 C106 1.227 . S
N108 Co105 2.121 . S
N108 C110 1.375 . S
N108 C111 1.313 . S
C109 C110 1.338 . S
C109 N112 1.377 . S
C109 H129 0.930 . S
C110 N108 1.375 . S
C110 C109 1.338 . S
C110 H114 0.931 . S
C111 N108 1.313 . S
C111 N112 1.344 . S
C111 H115 0.930 . S
N112 C109 1.377 . S
N112 C111 1.344 . S
O113 Co105 2.055 . S
O113 C117 1.253 . S
H114 C110 0.931 . S
H115 C111 0.930 . S
O116 Co105 2.039 . S
O116 C106 1.265 . S
C117 O113 1.253 . S
C117 O118 1.227 . S
O118 C117 1.227 . S
N119 Co105 2.140 . S
N119 C122 1.346 . S
N119 C123 1.345 . S
C120 C121 1.387 . S
C120 C124 1.391 . S
C121 C120 1.387 . S
C121 C122 1.369 . S
C121 H130 0.929 . S
C122 N119 1.346 . S
C122 C121 1.369 . S
C122 H125 0.928 . S
C123 N119 1.345 . S
C123 C124 1.371 . S
C123 H126 0.931 . S
C124 C120 1.391 . S
C124 C123 1.371 . S
C124 H131 0.930 . S
H125 C122 0.928 . S
H126 C123 0.931 . S
H127 C103 0.930 . S
H128 C100 0.930 . S
H129 C109 0.930 . S
H130 C121 0.929 . S
H131 C124 0.930 . S
C132 C133 1.351 1_655 S
C132 N135 1.368 . S
C132 H137 0.931 . S
C133 C132 1.351 1_455 S
C133 N134 1.373 . S
C133 H161 0.930 . S
N134 C133 1.373 . S
N134 C136 1.340 . S
N135 C132 1.368 . S
N135 C136 1.321 1_655 S
N135 Co138 2.135 . S
C136 N134 1.340 . S
C136 N135 1.321 1_455 S
C136 H160 0.930 . S
H137 C132 0.931 . S
Co138 N135 2.135 . S
Co138 N141 2.121 . S
Co138 O146 2.055 . S
Co138 O149 2.039 . S
Co138 N152 2.140 . S
C139 O140 1.227 . S
C139 O149 1.265 . S
O140 C139 1.227 . S
N141 Co138 2.121 . S
N141 C143 1.375 . S
N141 C144 1.313 . S
C142 C143 1.338 . S
C142 N145 1.377 . S
C142 H162 0.930 . S
C143 N141 1.375 . S
C143 C142 1.338 . S
C143 H147 0.931 . S
C144 N141 1.313 . S
C144 N145 1.344 . S
C144 H148 0.930 . S
N145 C142 1.377 . S
N145 C144 1.344 . S
O146 Co138 2.055 . S
O146 C150 1.253 . S
H147 C143 0.931 . S
H148 C144 0.930 . S
O149 Co138 2.039 . S
O149 C139 1.265 . S
C150 O146 1.253 . S
C150 O151 1.227 . S
O151 C150 1.227 . S
N152 Co138 2.140 . S
N152 C155 1.346 . S
N152 C156 1.345 . S
C153 C154 1.387 . S
C153 C157 1.391 . S
C154 C153 1.387 . S
C154 C155 1.369 . S
C154 H163 0.929 . S
C155 N152 1.346 . S
C155 C154 1.369 . S
C155 H158 0.928 . S
C156 N152 1.345 . S
C156 C157 1.371 . S
C156 H159 0.931 . S
C157 C153 1.391 . S
C157 C156 1.371 . S
C157 H164 0.930 . S
H158 C155 0.928 . S
H159 C156 0.931 . S
H160 C136 0.930 . S
H161 C133 0.930 . S
H162 C142 0.930 . S
H163 C154 0.929 . S
H164 C157 0.930 . S
C165 C166 1.351 1_565 S
C165 N168 1.368 . S
C165 H170 0.931 . S
C166 C165 1.351 1_545 S
C166 N167 1.373 . S
C166 H194 0.930 . S
N167 C166 1.373 . S
N167 C169 1.340 . S
N168 C165 1.368 . S
N168 C169 1.321 1_565 S
N168 Co171 2.135 . S
C169 N167 1.340 . S
C169 N168 1.321 1_545 S
C169 H193 0.930 . S
H170 C165 0.931 . S
Co171 N168 2.135 . S
Co171 N174 2.121 . S
Co171 O179 2.055 . S
Co171 O182 2.039 . S
Co171 N185 2.140 . S
C172 O173 1.227 . S
C172 O182 1.265 . S
O173 C172 1.227 . S
N174 Co171 2.121 . S
N174 C176 1.375 . S
N174 C177 1.313 . S
C175 C176 1.338 . S
C175 N178 1.377 . S
C175 H195 0.930 . S
C176 N174 1.375 . S
C176 C175 1.338 . S
C176 H180 0.931 . S
C177 N174 1.313 . S
C177 N178 1.344 . S
C177 H181 0.930 . S
N178 C175 1.377 . S
N178 C177 1.344 . S
O179 Co171 2.055 . S
O179 C183 1.253 . S
H180 C176 0.931 . S
H181 C177 0.930 . S
O182 Co171 2.039 . S
O182 C172 1.265 . S
C183 O179 1.253 . S
C183 O184 1.227 . S
O184 C183 1.227 . S
N185 Co171 2.140 . S
N185 C188 1.346 . S
N185 C189 1.345 . S
C186 C187 1.387 . S
C186 C190 1.391 . S
C187 C186 1.387 . S
C187 C188 1.369 . S
C187 H196 0.929 . S
C188 N185 1.346 . S
C188 C187 1.369 . S
C188 H191 0.928 . S
C189 N185 1.345 . S
C189 C190 1.371 . S
C189 H192 0.931 . S
C190 C186 1.391 . S
C190 C189 1.371 . S
C190 H197 0.930 . S
H191 C188 0.928 . S
H192 C189 0.931 . S
H193 C169 0.930 . S
H194 C166 0.930 . S
H195 C175 0.930 . S
H196 C187 0.929 . S
H197 C190 0.930 . S
C198 C199 1.351 . S
C198 N201 1.368 . S
C198 H203 0.931 . S
C199 C198 1.351 . S
C199 N200 1.373 . S
C199 H227 0.930 . S
N200 C199 1.373 . S
N200 C202 1.340 . S
N201 C198 1.368 . S
N201 C202 1.321 . S
N201 Co204 2.135 . S
C202 N200 1.340 . S
C202 N201 1.321 . S
C202 H226 0.930 . S
H203 C198 0.931 . S
Co204 N201 2.135 . S
Co204 N207 2.121 . S
Co204 O212 2.055 . S
Co204 O215 2.039 . S
Co204 N218 2.140 . S
C205 O206 1.227 . S
C205 O215 1.265 . S
O206 C205 1.227 . S
N207 Co204 2.121 . S
N207 C209 1.375 . S
N207 C210 1.313 . S
C208 C209 1.338 . S
C208 N211 1.377 . S
C208 H228 0.930 . S
C209 N207 1.375 . S
C209 C208 1.338 . S
C209 H213 0.931 . S
C210 N207 1.313 . S
C210 N211 1.344 . S
C210 H214 0.930 . S
N211 C208 1.377 . S
N211 C210 1.344 . S
O212 Co204 2.055 . S
O212 C216 1.253 . S
H213 C209 0.931 . S
H214 C210 0.930 . S
O215 Co204 2.039 . S
O215 C205 1.265 . S
C216 O212 1.253 . S
C216 O217 1.227 . S
O217 C216 1.227 . S
N218 Co204 2.140 . S
N218 C221 1.346 . S
N218 C222 1.345 . S
C219 C220 1.387 . S
C219 C223 1.391 . S
C220 C219 1.387 . S
C220 C221 1.369 . S
C220 H229 0.929 . S
C221 N218 1.346 . S
C221 C220 1.369 . S
C221 H224 0.928 . S
C222 N218 1.345 . S
C222 C223 1.371 . S
C222 H225 0.931 . S
C223 C219 1.391 . S
C223 C222 1.371 . S
C223 H230 0.930 . S
H224 C221 0.928 . S
H225 C222 0.931 . S
H226 C202 0.930 . S
H227 C199 0.930 . S
H228 C208 0.930 . S
H229 C220 0.929 . S
H230 C223 0.930 . S
C231 C232 1.351 1_455 S
C231 N234 1.368 . S
C231 H236 0.931 . S
C232 C231 1.351 1_655 S
C232 N233 1.373 . S
C232 H260 0.930 . S
N233 C232 1.373 . S
N233 C235 1.340 . S
N234 C231 1.368 . S
N234 C235 1.321 1_455 S
N234 Co237 2.135 . S
C235 N233 1.340 . S
C235 N234 1.321 1_655 S
C235 H259 0.930 . S
H236 C231 0.931 . S
Co237 N234 2.135 . S
Co237 N240 2.121 . S
Co237 O245 2.055 . S
Co237 O248 2.039 . S
Co237 N251 2.140 . S
C238 O239 1.227 . S
C238 O248 1.265 . S
O239 C238 1.227 . S
N240 Co237 2.121 . S
N240 C242 1.375 . S
N240 C243 1.313 . S
C241 C242 1.338 . S
C241 N244 1.377 . S
C241 H261 0.930 . S
C242 N240 1.375 . S
C242 C241 1.338 . S
C242 H246 0.931 . S
C243 N240 1.313 . S
C243 N244 1.344 . S
C243 H247 0.930 . S
N244 C241 1.377 . S
N244 C243 1.344 . S
O245 Co237 2.055 . S
O245 C249 1.253 . S
H246 C242 0.931 . S
H247 C243 0.930 . S
O248 Co237 2.039 . S
O248 C238 1.265 . S
C249 O245 1.253 . S
C249 O250 1.227 . S
O250 C249 1.227 . S
N251 Co237 2.140 . S
N251 C254 1.346 . S
N251 C255 1.345 . S
C252 C253 1.387 . S
C252 C256 1.391 . S
C253 C252 1.387 . S
C253 C254 1.369 . S
C253 H262 0.929 . S
C254 N251 1.346 . S
C254 C253 1.369 . S
C254 H257 0.928 . S
C255 N251 1.345 . S
C255 C256 1.371 . S
C255 H258 0.931 . S
C256 C252 1.391 . S
C256 C255 1.371 . S
C256 H263 0.930 . S
H257 C254 0.928 . S
H258 C255 0.931 . S
H259 C235 0.930 . S
H260 C232 0.930 . S
H261 C241 0.930 . S
H262 C253 0.929 . S
H263 C256 0.930 . S
C264 C265 1.351 1_545 S
C264 N267 1.368 . S
C264 H269 0.931 . S
C265 C264 1.351 1_565 S
C265 N266 1.373 . S
C265 H293 0.930 . S
N266 C265 1.373 . S
N266 C268 1.340 . S
N267 C264 1.368 . S
N267 C268 1.321 1_545 S
N267 Co270 2.135 . S
C268 N266 1.340 . S
C268 N267 1.321 1_565 S
C268 H292 0.930 . S
H269 C264 0.931 . S
Co270 N267 2.135 . S
Co270 N273 2.121 . S
Co270 O278 2.055 . S
Co270 O281 2.039 . S
Co270 N284 2.140 . S
C271 O272 1.227 . S
C271 O281 1.265 . S
O272 C271 1.227 . S
N273 Co270 2.121 . S
N273 C275 1.375 . S
N273 C276 1.313 . S
C274 C275 1.338 . S
C274 N277 1.377 . S
C274 H294 0.930 . S
C275 N273 1.375 . S
C275 C274 1.338 . S
C275 H279 0.931 . S
C276 N273 1.313 . S
C276 N277 1.344 . S
C276 H280 0.930 . S
N277 C274 1.377 . S
N277 C276 1.344 . S
O278 Co270 2.055 . S
O278 C282 1.253 . S
H279 C275 0.931 . S
H280 C276 0.930 . S
O281 Co270 2.039 . S
O281 C271 1.265 . S
C282 O278 1.253 . S
C282 O283 1.227 . S
O283 C282 1.227 . S
N284 Co270 2.140 . S
N284 C287 1.346 . S
N284 C288 1.345 . S
C285 C286 1.387 . S
C285 C289 1.391 . S
C286 C285 1.387 . S
C286 C287 1.369 . S
C286 H295 0.929 . S
C287 N284 1.346 . S
C287 C286 1.369 . S
C287 H290 0.928 . S
C288 N284 1.345 . S
C288 C289 1.371 . S
C288 H291 0.931 . S
C289 C285 1.391 . S
C289 C288 1.371 . S
C289 H296 0.930 . S
H290 C287 0.928 . S
H291 C288 0.931 . S
H292 C268 0.930 . S
H293 C265 0.930 . S
H294 C274 0.930 . S
H295 C286 0.929 . S
H296 C289 0.930 . S
C297 C298 1.351 . S
C297 N300 1.368 . S
C297 H302 0.931 . S
C298 C297 1.351 . S
C298 N299 1.373 . S
C298 H326 0.930 . S
N299 C298 1.373 . S
N299 C301 1.340 . S
N300 C297 1.368 . S
N300 C301 1.321 . S
N300 Co303 2.135 . S
C301 N299 1.340 . S
C301 N300 1.321 . S
C301 H325 0.930 . S
H302 C297 0.931 . S
Co303 N300 2.135 . S
Co303 N306 2.121 . S
Co303 O311 2.055 . S
Co303 O314 2.039 . S
Co303 N317 2.140 . S
C304 O305 1.227 . S
C304 O314 1.265 . S
O305 C304 1.227 . S
N306 Co303 2.121 . S
N306 C308 1.375 . S
N306 C309 1.313 . S
C307 C308 1.338 . S
C307 N310 1.377 . S
C307 H327 0.930 . S
C308 N306 1.375 . S
C308 C307 1.338 . S
C308 H312 0.931 . S
C309 N306 1.313 . S
C309 N310 1.344 . S
C309 H313 0.930 . S
N310 C307 1.377 . S
N310 C309 1.344 . S
O311 Co303 2.055 . S
O311 C315 1.253 . S
H312 C308 0.931 . S
H313 C309 0.930 . S
O314 Co303 2.039 . S
O314 C304 1.265 . S
C315 O311 1.253 . S
C315 O316 1.227 . S
O316 C315 1.227 . S
N317 Co303 2.140 . S
N317 C320 1.346 . S
N317 C321 1.345 . S
C318 C319 1.387 . S
C318 C322 1.391 . S
C319 C318 1.387 . S
C319 C320 1.369 . S
C319 H328 0.929 . S
C320 N317 1.346 . S
C320 C319 1.369 . S
C320 H323 0.928 . S
C321 N317 1.345 . S
C321 C322 1.371 . S
C321 H324 0.931 . S
C322 C318 1.391 . S
C322 C321 1.371 . S
C322 H329 0.930 . S
H323 C320 0.928 . S
H324 C321 0.931 . S
H325 C301 0.930 . S
H326 C298 0.930 . S
H327 C307 0.930 . S
H328 C319 0.929 . S
H329 C322 0.930 . S
C330 C331 1.351 1_655 S
C330 N333 1.368 . S
C330 H335 0.931 . S
C331 C330 1.351 1_455 S
C331 N332 1.373 . S
C331 H359 0.930 . S
N332 C331 1.373 . S
N332 C334 1.340 . S
N333 C330 1.368 . S
N333 C334 1.321 1_655 S
N333 Co336 2.135 . S
C334 N332 1.340 . S
C334 N333 1.321 1_455 S
C334 H358 0.930 . S
H335 C330 0.931 . S
Co336 N333 2.135 . S
Co336 N339 2.121 . S
Co336 O344 2.055 . S
Co336 O347 2.039 . S
Co336 N350 2.140 . S
C337 O338 1.227 . S
C337 O347 1.265 . S
O338 C337 1.227 . S
N339 Co336 2.121 . S
N339 C341 1.375 . S
N339 C342 1.313 . S
C340 C341 1.338 . S
C340 N343 1.377 . S
C340 H360 0.930 . S
C341 N339 1.375 . S
C341 C340 1.338 . S
C341 H345 0.931 . S
C342 N339 1.313 . S
C342 N343 1.344 . S
C342 H346 0.930 . S
N343 C340 1.377 . S
N343 C342 1.344 . S
O344 Co336 2.055 . S
O344 C348 1.253 . S
H345 C341 0.931 . S
H346 C342 0.930 . S
O347 Co336 2.039 . S
O347 C337 1.265 . S
C348 O344 1.253 . S
C348 O349 1.227 . S
O349 C348 1.227 . S
N350 Co336 2.140 . S
N350 C353 1.346 . S
N350 C354 1.345 . S
C351 C352 1.387 . S
C351 C355 1.391 . S
C352 C351 1.387 . S
C352 C353 1.369 . S
C352 H361 0.929 . S
C353 N350 1.346 . S
C353 C352 1.369 . S
C353 H356 0.928 . S
C354 N350 1.345 . S
C354 C355 1.371 . S
C354 H357 0.931 . S
C355 C351 1.391 . S
C355 C354 1.371 . S
C355 H362 0.930 . S
H356 C353 0.928 . S
H357 C354 0.931 . S
H358 C334 0.930 . S
H359 C331 0.930 . S
H360 C340 0.930 . S
H361 C352 0.929 . S
H362 C355 0.930 . S
C363 C364 1.351 1_565 S
C363 N366 1.368 . S
C363 H368 0.931 . S
C364 C363 1.351 1_545 S
C364 N365 1.373 . S
C364 H392 0.930 . S
N365 C364 1.373 . S
N365 C367 1.340 . S
N366 C363 1.368 . S
N366 C367 1.321 1_565 S
N366 Co369 2.135 . S
C367 N365 1.340 . S
C367 N366 1.321 1_545 S
C367 H391 0.930 . S
H368 C363 0.931 . S
Co369 N366 2.135 . S
Co369 N372 2.121 . S
Co369 O377 2.055 . S
Co369 O380 2.039 . S
Co369 N383 2.140 . S
C370 O371 1.227 . S
C370 O380 1.265 . S
O371 C370 1.227 . S
N372 Co369 2.121 . S
N372 C374 1.375 . S
N372 C375 1.313 . S
C373 C374 1.338 . S
C373 N376 1.377 . S
C373 H393 0.930 . S
C374 N372 1.375 . S
C374 C373 1.338 . S
C374 H378 0.931 . S
C375 N372 1.313 . S
C375 N376 1.344 . S
C375 H379 0.930 . S
N376 C373 1.377 . S
N376 C375 1.344 . S
O377 Co369 2.055 . S
O377 C381 1.253 . S
H378 C374 0.931 . S
H379 C375 0.930 . S
O380 Co369 2.039 . S
O380 C370 1.265 . S
C381 O377 1.253 . S
C381 O382 1.227 . S
O382 C381 1.227 . S
N383 Co369 2.140 . S
N383 C386 1.346 . S
N383 C387 1.345 . S
C384 C385 1.387 . S
C384 C388 1.391 . S
C385 C384 1.387 . S
C385 C386 1.369 . S
C385 H394 0.929 . S
C386 N383 1.346 . S
C386 C385 1.369 . S
C386 H389 0.928 . S
C387 N383 1.345 . S
C387 C388 1.371 . S
C387 H390 0.931 . S
C388 C384 1.391 . S
C388 C387 1.371 . S
C388 H395 0.930 . S
H389 C386 0.928 . S
H390 C387 0.931 . S
H391 C367 0.930 . S
H392 C364 0.930 . S
H393 C373 0.930 . S
H394 C385 0.929 . S
H395 C388 0.930 . S
C396 C397 1.369 . S
C396 C398 1.419 . S
C396 H400 0.930 . S
C397 C396 1.369 . S
C397 C406 1.429 . S
C398 C396 1.419 . S
C398 C399 1.363 . S
C398 H401 0.929 . S
C399 C398 1.363 . S
C399 C405 1.428 . S
H400 C396 0.930 . S
H401 C398 0.929 . S
S402 N403 1.613 . S
S402 N404 1.610 . S
N403 S402 1.613 . S
N403 C406 1.350 . S
N404 S402 1.610 . S
N404 C405 1.351 . S
C405 C399 1.428 . S
C405 N404 1.351 . S
C405 C406 1.434 . S
C406 C397 1.429 . S
C406 N403 1.350 . S
C406 C405 1.434 . S
C407 C408 1.369 . S
C407 C409 1.419 . S
C407 H411 0.930 . S
C408 C407 1.369 . S
C408 C417 1.429 1_455 S
C409 C407 1.419 . S
C409 C410 1.363 1_455 S
C409 H412 0.929 . S
C410 C409 1.363 1_655 S
C410 C416 1.428 . S
H411 C407 0.930 . S
H412 C409 0.929 . S
S413 N414 1.613 . S
S413 N415 1.610 . S
N414 S413 1.613 . S
N414 C417 1.350 . S
N415 S413 1.610 . S
N415 C416 1.351 . S
C416 C410 1.428 . S
C416 N415 1.351 . S
C416 C417 1.434 . S
C417 C408 1.429 1_655 S
C417 N414 1.350 . S
C417 C416 1.434 . S
C418 C419 1.369 . S
C418 C420 1.419 1_545 S
C418 H422 0.930 . S
C419 C418 1.369 . S
C419 C428 1.429 . S
C420 C418 1.419 1_565 S
C420 C421 1.363 . S
C420 H423 0.929 . S
C421 C420 1.363 . S
C421 C427 1.428 . S
H422 C418 0.930 . S
H423 C420 0.929 . S
S424 N425 1.613 1_565 S
S424 N426 1.610 . S
N425 S424 1.613 1_545 S
N425 C428 1.350 . S
N426 S424 1.610 . S
N426 C427 1.351 . S
C427 C421 1.428 . S
C427 N426 1.351 . S
C427 C428 1.434 1_565 S
C428 C419 1.429 . S
C428 N425 1.350 . S
C428 C427 1.434 1_545 S
C429 C430 1.369 . S
C429 C431 1.419 . S
C429 H433 0.930 . S
C430 C429 1.369 . S
C430 C439 1.429 . S
C431 C429 1.419 . S
C431 C432 1.363 . S
C431 H434 0.929 . S
C432 C431 1.363 . S
C432 C438 1.428 . S
H433 C429 0.930 . S
H434 C431 0.929 . S
S435 N436 1.613 . S
S435 N437 1.610 . S
N436 S435 1.613 . S
N436 C439 1.350 . S
N437 S435 1.610 . S
N437 C438 1.351 . S
C438 C432 1.428 . S
C438 N437 1.351 . S
C438 C439 1.434 . S
C439 C430 1.429 . S
C439 N436 1.350 . S
C439 C438 1.434 . S
C440 C441 1.369 1_455 S
C440 C442 1.419 . S
C440 H444 0.930 . S
C441 C440 1.369 1_655 S
C441 C450 1.429 . S
C442 C440 1.419 . S
C442 C443 1.363 . S
C442 H445 0.929 . S
C443 C442 1.363 . S
C443 C449 1.428 1_455 S
H444 C440 0.930 . S
H445 C442 0.929 . S
S446 N447 1.613 . S
S446 N448 1.610 . S
N447 S446 1.613 . S
N447 C450 1.350 . S
N448 S446 1.610 . S
N448 C449 1.351 . S
C449 C443 1.428 1_655 S
C449 N448 1.351 . S
C449 C450 1.434 . S
C450 C441 1.429 . S
C450 N447 1.350 . S
C450 C449 1.434 . S
C451 C452 1.369 1_545 S
C451 C453 1.419 . S
C451 H455 0.930 . S
C452 C451 1.369 1_565 S
C452 C461 1.429 . S
C453 C451 1.419 . S
C453 C454 1.363 . S
C453 H456 0.929 . S
C454 C453 1.363 . S
C454 C460 1.428 1_545 S
H455 C451 0.930 . S
H456 C453 0.929 . S
S457 N458 1.613 . S
S457 N459 1.610 . S
N458 S457 1.613 . S
N458 C461 1.350 . S
N459 S457 1.610 . S
N459 C460 1.351 . S
C460 C454 1.428 1_565 S
C460 N459 1.351 . S
C460 C461 1.434 . S
C461 C452 1.429 . S
C461 N458 1.350 . S
C461 C460 1.434 . S
C462 C463 1.369 1_545 S
C462 C464 1.419 1_556 S
C462 H466 0.930 . S
C463 C462 1.369 1_565 S
C463 C472 1.429 . S
C464 C462 1.419 1_554 S
C464 C465 1.363 . S
C464 H467 0.929 . S
C465 C464 1.363 . S
C465 C471 1.428 1_545 S
H466 C462 0.930 . S
H467 C464 0.929 . S
S468 N469 1.613 1_554 S
S468 N470 1.610 . S
N469 S468 1.613 1_556 S
N469 C472 1.350 . S
N470 S468 1.610 . S
N470 C471 1.351 . S
C471 C465 1.428 1_565 S
C471 N470 1.351 . S
C471 C472 1.434 1_554 S
C472 C463 1.429 . S
C472 N469 1.350 . S
C472 C471 1.434 1_556 S
C473 C474 1.369 . S
C473 C475 1.419 . S
C473 H477 0.930 . S
C474 C473 1.369 . S
C474 C483 1.429 . S
C475 C473 1.419 . S
C475 C476 1.363 . S
C475 H478 0.929 . S
C476 C475 1.363 . S
C476 C482 1.428 . S
H477 C473 0.930 . S
H478 C475 0.929 . S
S479 N480 1.613 . S
S479 N481 1.610 . S
N480 S479 1.613 . S
N480 C483 1.350 . S
N481 S479 1.610 . S
N481 C482 1.351 . S
C482 C476 1.428 . S
C482 N481 1.351 . S
C482 C483 1.434 . S
C483 C474 1.429 . S
C483 N480 1.350 . S
C483 C482 1.434 . S
C484 C485 1.369 . S
C484 C486 1.419 . S
C484 H488 0.930 . S
C485 C484 1.369 . S
C485 C494 1.429 1_455 S
C486 C484 1.419 . S
C486 C487 1.363 1_455 S
C486 H489 0.929 . S
C487 C486 1.363 1_655 S
C487 C493 1.428 . S
H488 C484 0.930 . S
H489 C486 0.929 . S
S490 N491 1.613 . S
S490 N492 1.610 . S
N491 S490 1.613 . S
N491 C494 1.350 . S
N492 S490 1.610 . S
N492 C493 1.351 . S
C493 C487 1.428 . S
C493 N492 1.351 . S
C493 C494 1.434 . S
C494 C485 1.429 1_655 S
C494 N491 1.350 . S
C494 C493 1.434 . S
C495 C496 1.369 . S
C495 C497 1.419 1_554 S
C495 H499 0.930 . S
C496 C495 1.369 . S
C496 C505 1.429 1_565 S
C497 C495 1.419 1_556 S
C497 C498 1.363 1_565 S
C497 H500 0.929 . S
C498 C497 1.363 1_545 S
C498 C504 1.428 . S
H499 C495 0.930 . S
H500 C497 0.929 . S
S501 N502 1.613 . S
S501 N503 1.610 1_554 S
N502 S501 1.613 . S
N502 C505 1.350 . S
N503 S501 1.610 1_556 S
N503 C504 1.351 . S
C504 C498 1.428 . S
C504 N503 1.351 . S
C504 C505 1.434 1_556 S
C505 C496 1.429 1_545 S
C505 N502 1.350 . S
C505 C504 1.434 1_554 S
C506 C507 1.369 . S
C506 C508 1.419 . S
C506 H510 0.930 . S
C507 C506 1.369 . S
C507 C516 1.429 . S
C508 C506 1.419 . S
C508 C509 1.363 . S
C508 H511 0.929 . S
C509 C508 1.363 . S
C509 C515 1.428 . S
H510 C506 0.930 . S
H511 C508 0.929 . S
S512 N513 1.613 . S
S512 N514 1.610 . S
N513 S512 1.613 . S
N513 C516 1.350 . S
N514 S512 1.610 . S
N514 C515 1.351 . S
C515 C509 1.428 . S
C515 N514 1.351 . S
C515 C516 1.434 . S
C516 C507 1.429 . S
C516 N513 1.350 . S
C516 C515 1.434 . S
C517 C518 1.369 1_655 S
C517 C519 1.419 . S
C517 H521 0.930 . S
C518 C517 1.369 1_455 S
C518 C527 1.429 . S
C519 C517 1.419 . S
C519 C520 1.363 . S
C519 H522 0.929 . S
C520 C519 1.363 . S
C520 C526 1.428 1_655 S
H521 C517 0.930 . S
H522 C519 0.929 . S
S523 N524 1.613 . S
S523 N525 1.610 . S
N524 S523 1.613 . S
N524 C527 1.350 . S
N525 S523 1.610 . S
N525 C526 1.351 . S
C526 C520 1.428 1_455 S
C526 N525 1.351 . S
C526 C527 1.434 . S
C527 C518 1.429 . S
C527 N524 1.350 . S
C527 C526 1.434 . S
C528 C529 1.369 . S
C528 C530 1.419 1_445 S
C528 H532 0.930 . S
C529 C528 1.369 . S
C529 C538 1.429 . S
C530 C528 1.419 1_665 S
C530 C531 1.363 . S
C530 H533 0.929 . S
C531 C530 1.363 . S
C531 C537 1.428 . S
H532 C528 0.930 . S
H533 C530 0.929 . S
S534 N535 1.613 1_565 S
S534 N536 1.610 1_455 S
N535 S534 1.613 1_545 S
N535 C538 1.350 . S
N536 S534 1.610 1_655 S
N536 C537 1.351 . S
C537 C531 1.428 . S
C537 N536 1.351 . S
C537 C538 1.434 1_665 S
C538 C529 1.429 . S
C538 N535 1.350 . S
C538 C537 1.434 1_445 S
C539 C540 1.369 . S
C539 C541 1.419 1_545 S
C539 H543 0.930 . S
C540 C539 1.369 . S
C540 C549 1.429 1_455 S
C541 C539 1.419 1_565 S
C541 C542 1.363 1_455 S
C541 H544 0.929 . S
C542 C541 1.363 1_655 S
C542 C548 1.428 . S
H543 C539 0.930 . S
H544 C541 0.929 . S
S545 N546 1.613 1_565 S
S545 N547 1.610 . S
N546 S545 1.613 1_545 S
N546 C549 1.350 . S
N547 S545 1.610 . S
N547 C548 1.351 . S
C548 C542 1.428 . S
C548 N547 1.351 . S
C548 C549 1.434 1_565 S
C549 C540 1.429 1_655 S
C549 N546 1.350 . S
C549 C548 1.434 1_545 S
C550 C551 1.369 1_455 S
C550 C552 1.419 . S
C550 H554 0.930 . S
C551 C550 1.369 1_655 S
C551 C560 1.429 1_545 S
C552 C550 1.419 . S
C552 C553 1.363 1_545 S
C552 H555 0.929 . S
C553 C552 1.363 1_565 S
C553 C559 1.428 1_455 S
H554 C550 0.930 . S
H555 C552 0.929 . S
S556 N557 1.613 . S
S556 N558 1.610 . S
N557 S556 1.613 . S
N557 C560 1.350 . S
N558 S556 1.610 . S
N558 C559 1.351 . S
C559 C553 1.428 1_655 S
C559 N558 1.351 . S
C559 C560 1.434 . S
C560 C551 1.429 1_565 S
C560 N557 1.350 . S
C560 C559 1.434 . S
C561 C562 1.369 1_455 S
C561 C563 1.419 1_565 S
C561 H565 0.930 . S
C562 C561 1.369 1_655 S
C562 C571 1.429 . S
C563 C561 1.419 1_545 S
C563 C564 1.363 . S
C563 H566 0.929 . S
C564 C563 1.363 . S
C564 C570 1.428 1_455 S
H565 C561 0.930 . S
H566 C563 0.929 . S
S567 N568 1.613 1_545 S
S567 N569 1.610 . S
N568 S567 1.613 1_565 S
N568 C571 1.350 . S
N569 S567 1.610 . S
N569 C570 1.351 . S
C570 C564 1.428 1_655 S
C570 N569 1.351 . S
C570 C571 1.434 1_545 S
C571 C562 1.429 . S
C571 N568 1.350 . S
C571 C570 1.434 1_565 S
C572 C573 1.369 1_545 S
C572 C574 1.419 . S
C572 H576 0.930 . S
C573 C572 1.369 1_565 S
C573 C582 1.429 1_455 S
C574 C572 1.419 . S
C574 C575 1.363 1_455 S
C574 H577 0.929 . S
C575 C574 1.363 1_655 S
C575 C581 1.428 1_545 S
H576 C572 0.930 . S
H577 C574 0.929 . S
S578 N579 1.613 . S
S578 N580 1.610 . S
N579 S578 1.613 . S
N579 C582 1.350 . S
N580 S578 1.610 . S
N580 C581 1.351 . S
C581 C575 1.428 1_565 S
C581 N580 1.351 . S
C581 C582 1.434 . S
C582 C573 1.429 1_655 S
C582 N579 1.350 . S
C582 C581 1.434 . S
C583 C584 1.369 . S
C583 C585 1.419 1_455 S
C583 H587 0.930 . S
C584 C583 1.369 . S
C584 C593 1.429 1_545 S
C585 C583 1.419 1_655 S
C585 C586 1.363 1_545 S
C585 H588 0.929 . S
C586 C585 1.363 1_565 S
C586 C592 1.428 . S
H587 C583 0.930 . S
H588 C585 0.929 . S
S589 N590 1.613 1_655 S
S589 N591 1.610 . S
N590 S589 1.613 1_455 S
N590 C593 1.350 . S
N591 S589 1.610 . S
N591 C592 1.351 . S
C592 C586 1.428 . S
C592 N591 1.351 . S
C592 C593 1.434 1_655 S
C593 C584 1.429 1_565 S
C593 N590 1.350 . S
C593 C592 1.434 1_455 S
C594 C595 1.369 1_554 S
C594 C596 1.419 . S
C594 H598 0.930 . S
C595 C594 1.369 1_556 S
C595 C604 1.429 . S
C596 C594 1.419 . S
C596 C597 1.363 . S
C596 H599 0.929 . S
C597 C596 1.363 . S
C597 C603 1.428 1_554 S
H598 C594 0.930 . S
H599 C596 0.929 . S
S600 N601 1.613 . S
S600 N602 1.610 . S
N601 S600 1.613 . S
N601 C604 1.350 . S
N602 S600 1.610 . S
N602 C603 1.351 . S
C603 C597 1.428 1_556 S
C603 N602 1.351 . S
C603 C604 1.434 . S
C604 C595 1.429 . S
C604 N601 1.350 . S
C604 C603 1.434 . S
C605 C606 1.369 . S
C605 C607 1.419 . S
C605 H609 0.930 . S
C606 C605 1.369 . S
C606 C615 1.429 . S
C607 C605 1.419 . S
C607 C608 1.363 . S
C607 H610 0.929 . S
C608 C607 1.363 . S
C608 C614 1.428 . S
H609 C605 0.930 . S
H610 C607 0.929 . S
S611 N612 1.613 . S
S611 N613 1.610 . S
N612 S611 1.613 . S
N612 C615 1.350 . S
N613 S611 1.610 . S
N613 C614 1.351 . S
C614 C608 1.428 . S
C614 N613 1.351 . S
C614 C615 1.434 . S
C615 C606 1.429 . S
C615 N612 1.350 . S
C615 C614 1.434 . S
C616 C617 1.369 . S
C616 C618 1.419 . S
C616 H620 0.930 . S
C617 C616 1.369 . S
C617 C626 1.429 . S
C618 C616 1.419 . S
C618 C619 1.363 . S
C618 H621 0.929 . S
C619 C618 1.363 . S
C619 C625 1.428 . S
H620 C616 0.930 . S
H621 C618 0.929 . S
S622 N623 1.613 . S
S622 N624 1.610 . S
N623 S622 1.613 . S
N623 C626 1.350 . S
N624 S622 1.610 . S
N624 C625 1.351 . S
C625 C619 1.428 . S
C625 N624 1.351 . S
C625 C626 1.434 . S
C626 C617 1.429 . S
C626 N623 1.350 . S
C626 C625 1.434 . S
C627 C628 1.369 1_556 S
C627 C629 1.419 . S
C627 H631 0.930 . S
C628 C627 1.369 1_554 S
C628 C637 1.429 . S
C629 C627 1.419 . S
C629 C630 1.363 . S
C629 H632 0.929 . S
C630 C629 1.363 . S
C630 C636 1.428 1_556 S
H631 C627 0.930 . S
H632 C629 0.929 . S
S633 N634 1.613 . S
S633 N635 1.610 . S
N634 S633 1.613 . S
N634 C637 1.350 . S
N635 S633 1.610 . S
N635 C636 1.351 . S
C636 C630 1.428 1_554 S
C636 N635 1.351 . S
C636 C637 1.434 . S
C637 C628 1.429 . S
C637 N634 1.350 . S
C637 C636 1.434 . S
C638 C639 1.369 . S
C638 C640 1.419 . S
C638 H642 0.930 . S
C639 C638 1.369 . S
C639 C648 1.429 . S
C640 C638 1.419 . S
C640 C641 1.363 . S
C640 H643 0.929 . S
C641 C640 1.363 . S
C641 C647 1.428 . S
H642 C638 0.930 . S
H643 C640 0.929 . S
S644 N645 1.613 . S
S644 N646 1.610 . S
N645 S644 1.613 . S
N645 C648 1.350 . S
N646 S644 1.610 . S
N646 C647 1.351 . S
C647 C641 1.428 . S
C647 N646 1.351 . S
C647 C648 1.434 . S
C648 C639 1.429 . S
C648 N645 1.350 . S
C648 C647 1.434 . S
C649 C650 1.369 . S
C649 C651 1.419 . S
C649 H653 0.930 . S
C650 C649 1.369 . S
C650 C659 1.429 . S
C651 C649 1.419 . S
C651 C652 1.363 . S
C651 H654 0.929 . S
C652 C651 1.363 . S
C652 C658 1.428 . S
H653 C649 0.930 . S
H654 C651 0.929 . S
S655 N656 1.613 1_545 S
S655 N657 1.610 . S
N656 S655 1.613 1_565 S
N656 C659 1.350 1_565 S
N657 S655 1.610 . S
N657 C658 1.351 . S
C658 C652 1.428 . S
C658 N657 1.351 . S
C658 C659 1.434 . S
C659 C650 1.429 . S
C659 N656 1.350 1_545 S
C659 C658 1.434 . S
C660 C661 1.369 . S
C660 C662 1.419 . S
C660 H664 0.930 . S
C661 C660 1.369 . S
C661 C670 1.429 . S
C662 C660 1.419 . S
C662 C663 1.363 . S
C662 H665 0.929 . S
C663 C662 1.363 . S
C663 C669 1.428 . S
H664 C660 0.930 . S
H665 C662 0.929 . S
S666 N667 1.613 . S
S666 N668 1.610 . S
N667 S666 1.613 . S
N667 C670 1.350 . S
N668 S666 1.610 . S
N668 C669 1.351 . S
C669 C663 1.428 . S
C669 N668 1.351 . S
C669 C670 1.434 . S
C670 C661 1.429 . S
C670 N667 1.350 . S
C670 C669 1.434 . S
C671 C672 1.369 . S
C671 C673 1.419 . S
C671 H675 0.930 . S
C672 C671 1.369 . S
C672 C681 1.429 . S
C673 C671 1.419 . S
C673 C674 1.363 . S
C673 H676 0.929 . S
C674 C673 1.363 . S
C674 C680 1.428 . S
H675 C671 0.930 . S
H676 C673 0.929 . S
S677 N678 1.613 . S
S677 N679 1.610 . S
N678 S677 1.613 . S
N678 C681 1.350 . S
N679 S677 1.610 . S
N679 C680 1.351 . S
C680 C674 1.428 . S
C680 N679 1.351 . S
C680 C681 1.434 . S
C681 C672 1.429 . S
C681 N678 1.350 . S
C681 C680 1.434 . S
C682 C683 1.369 . S
C682 C684 1.419 . S
C682 H686 0.930 . S
C683 C682 1.369 . S
C683 C692 1.429 . S
C684 C682 1.419 . S
C684 C685 1.363 . S
C684 H687 0.929 . S
C685 C684 1.363 . S
C685 C691 1.428 . S
H686 C682 0.930 . S
H687 C684 0.929 . S
S688 N689 1.613 . S
S688 N690 1.610 . S
N689 S688 1.613 . S
N689 C692 1.350 . S
N690 S688 1.610 . S
N690 C691 1.351 . S
C691 C685 1.428 . S
C691 N690 1.351 . S
C691 C692 1.434 . S
C692 C683 1.429 . S
C692 N689 1.350 . S
C692 C691 1.434 . S
C693 C694 1.369 . S
C693 C695 1.419 . S
C693 H697 0.930 . S
C694 C693 1.369 . S
C694 C703 1.429 . S
C695 C693 1.419 . S
C695 C696 1.363 . S
C695 H698 0.929 . S
C696 C695 1.363 . S
C696 C702 1.428 . S
H697 C693 0.930 . S
H698 C695 0.929 . S
S699 N700 1.613 . S
S699 N701 1.610 . S
N700 S699 1.613 . S
N700 C703 1.350 . S
N701 S699 1.610 . S
N701 C702 1.351 . S
C702 C696 1.428 . S
C702 N701 1.351 . S
C702 C703 1.434 . S
C703 C694 1.429 . S
C703 N700 1.350 . S
C703 C702 1.434 . S
C704 C705 1.369 . S
C704 C706 1.419 . S
C704 H708 0.930 . S
C705 C704 1.369 . S
C705 C714 1.429 . S
C706 C704 1.419 . S
C706 C707 1.363 . S
C706 H709 0.929 . S
C707 C706 1.363 . S
C707 C713 1.428 . S
H708 C704 0.930 . S
H709 C706 0.929 . S
S710 N711 1.613 . S
S710 N712 1.610 . S
N711 S710 1.613 . S
N711 C714 1.350 . S
N712 S710 1.610 . S
N712 C713 1.351 . S
C713 C707 1.428 . S
C713 N712 1.351 . S
C713 C714 1.434 . S
C714 C705 1.429 . S
C714 N711 1.350 . S
C714 C713 1.434 . S
C715 C716 1.369 . S
C715 C717 1.419 . S
C715 H719 0.930 . S
C716 C715 1.369 . S
C716 C725 1.429 . S
C717 C715 1.419 . S
C717 C718 1.363 . S
C717 H720 0.929 . S
C718 C717 1.363 . S
C718 C724 1.428 . S
H719 C715 0.930 . S
H720 C717 0.929 . S
S721 N722 1.613 . S
S721 N723 1.610 . S
N722 S721 1.613 . S
N722 C725 1.350 . S
N723 S721 1.610 . S
N723 C724 1.351 . S
C724 C718 1.428 . S
C724 N723 1.351 . S
C724 C725 1.434 . S
C725 C716 1.429 . S
C725 N722 1.350 . S
C725 C724 1.434 . S
C397 C117 1.537 . S
C399 C18 1.539 . S
C408 C51 1.537 . S
C410 C150 1.539 . S
C419 C84 1.538 . S
C421 C183 1.538 . S
C430 C216 1.539 . S
C432 C315 1.541 . S
C441 C348 1.540 . S
C443 C249 1.538 . S
C452 C381 1.541 . S
C454 C282 1.538 . S
C463 C252 1.166 . S
C465 C21 1.174 . S
C474 C54 1.177 . S
C476 C285 1.181 . S
C485 C318 1.183 . S
C487 C87 1.178 . S
C496 C120 1.182 . S
C498 C351 1.173 . S
C507 C384 1.177 . S
C509 C153 1.181 . S
C518 C186 1.167 . S
C520 C219 1.175 . S
C529 C7 1.364 . S
C531 C106 1.364 . S
C540 C40 1.360 . S
C542 C139 1.357 . S
C551 C73 1.365 . S
C553 C172 1.361 . S
C562 C205 1.366 . S
C564 C304 1.362 . S
C573 C238 1.366 . S
C575 C337 1.363 . S
C584 C271 1.364 . S
C586 C370 1.364 . S
C595 N332 0.952 . S
C597 N2 0.961 . S
C606 N35 0.957 . S
C608 N365 0.953 . S
C617 N200 0.952 . S
C619 N68 0.957 . S
C628 N101 0.952 . S
C630 N233 0.960 . S
C639 N266 0.952 . S
C641 N134 0.957 . S
C650 N167 0.963 . S
C652 N299 0.955 . S
C661 N13 1.839 . S
C663 N277 1.836 . S
C672 N46 1.840 . S
C674 N310 1.839 . S
C683 N343 1.838 . S
C685 N79 1.835 . S
C694 N376 1.840 . S
C696 N112 1.838 . S
C705 N145 1.830 . S
C707 N211 1.831 . S
C716 N178 1.830 . S
C718 N244 1.832 . S
