# Generated by pormake.
# Topology eci, (8)-cn, num edge types: 1
# Building blocks:
#     Node 0, Type 0, BuildingBlock: TAGTUT_clean_sbu_1, # of connection points: 8
#     Node 1, Type 0, BuildingBlock: TAGTUT_clean_sbu_1, # of connection points: 8
#     Node 2, Type 0, BuildingBlock: TAGTUT_clean_sbu_1, # of connection points: 8
#     Node 3, Type 0, BuildingBlock: TAGTUT_clean_sbu_1, # of connection points: 8
#     Edge 4, Type (0, 0), BuildingBlock: MIFKUJ_clean_linker_0, # of connection points: 2
#     Edge 5, Type (0, 0), BuildingBlock: MIFKUJ_clean_linker_0, # of connection points: 2
#     Edge 6, Type (0, 0), BuildingBlock: MIFKUJ_clean_linker_0, # of connection points: 2
#     Edge 7, Type (0, 0), BuildingBlock: MIFKUJ_clean_linker_0, # of connection points: 2
#     Edge 8, Type (0, 0), BuildingBlock: MIFKUJ_clean_linker_0, # of connection points: 2
#     Edge 9, Type (0, 0), BuildingBlock: MIFKUJ_clean_linker_0, # of connection points: 2
#     Edge 10, Type (0, 0), BuildingBlock: MIFKUJ_clean_linker_0, # of connection points: 2
#     Edge 11, Type (0, 0), BuildingBlock: MIFKUJ_clean_linker_0, # of connection points: 2
#     Edge 12, Type (0, 0), BuildingBlock: MIFKUJ_clean_linker_0, # of connection points: 2
#     Edge 13, Type (0, 0), BuildingBlock: MIFKUJ_clean_linker_0, # of connection points: 2
#     Edge 14, Type (0, 0), BuildingBlock: MIFKUJ_clean_linker_0, # of connection points: 2
#     Edge 15, Type (0, 0), BuildingBlock: MIFKUJ_clean_linker_0, # of connection points: 2
#     Edge 16, Type (0, 0), BuildingBlock: MIFKUJ_clean_linker_0, # of connection points: 2
#     Edge 17, Type (0, 0), BuildingBlock: MIFKUJ_clean_linker_0, # of connection points: 2
#     Edge 18, Type (0, 0), BuildingBlock: MIFKUJ_clean_linker_0, # of connection points: 2
#     Edge 19, Type (0, 0), BuildingBlock: MIFKUJ_clean_linker_0, # of connection points: 2
# Relax obj value: 0.208
# Max RMSD: 0.264
# Mean RMSD: 0.256
data_MOF--net-eci--node1-TAGTUT_clean_sbu_1--edge1-MIFKUJ_clean_linker_0
_symmetry_space_group_name_H-M    P1
_symmetry_Int_Tables_number       1
_symmetry_cell_setting            triclinic
loop_
_symmetry_equiv_pos_as_xyz
'x, y, z'
_cell_length_a     36.005371
_cell_length_b     38.841813
_cell_length_c     23.04481
_cell_angle_alpha  92.541774
_cell_angle_beta   92.611459
_cell_angle_gamma 89.84884
loop_
_atom_site_label
_atom_site_type_symbol
_atom_site_fract_x
_atom_site_fract_y
_atom_site_fract_z
_atom_type_partial_charge
C0 C 0.79155 0.71852 0.16381 0.0
C1 C 0.84949 0.81073 0.22362 0.0
C2 C 0.76928 0.869 0.04877 0.0
Mg3 Mg 0.86157 0.75668 0.12548 0.0
O4 O 0.82493 0.77708 0.07822 0.0
Mg5 Mg 0.7814 0.79914 0.1173 0.0
Mg6 Mg 0.83789 0.81523 0.02837 0.0
O7 O 0.84926 0.85296 0.97766 0.0
Mg8 Mg 0.80901 0.86528 0.92851 0.0
Mg9 Mg 0.89392 0.83367 0.9396 0.0
C10 C 0.90854 0.76167 0.0106 0.0
C11 C 0.91485 0.85235 0.07594 0.0
O12 O 0.77175 0.74542 0.15419 0.0
O13 O 0.82644 0.71685 0.1549 0.0
O14 O 0.81689 0.81499 0.2005 0.0
O15 O 0.87334 0.79132 0.19913 0.0
O16 O 0.90381 0.749 0.06045 0.0
O17 O 0.88483 0.78276 0.98774 0.0
C18 C 0.75719 0.78476 0.98116 0.0
O19 O 0.78957 0.79388 0.96621 0.0
O20 O 0.74852 0.78467 0.03433 0.0
O21 O 0.89619 0.88782 0.89824 0.0
O22 O 0.83719 0.90758 0.89567 0.0
O23 O 0.86139 0.81374 0.85676 0.0
C24 C 0.87176 0.91123 0.88676 0.0
O25 O 0.80159 0.82861 0.8564 0.0
O26 O 0.76882 0.87597 0.9947 0.0
C27 C 0.82875 0.81333 0.83253 0.0
O28 O 0.79415 0.84923 0.07136 0.0
O29 O 0.88435 0.83853 0.08998 0.0
O30 O 0.92392 0.85332 0.02294 0.0
C31 C 0.70614 0.21228 0.20076 0.0
C32 C 0.68677 0.30641 0.10073 0.0
C33 C 0.76618 0.37324 0.2732 0.0
Mg34 Mg 0.65304 0.27517 0.20772 0.0
O35 O 0.69282 0.29334 0.25331 0.0
Mg36 Mg 0.74287 0.29208 0.22065 0.0
Mg37 Mg 0.69223 0.34067 0.29055 0.0
O38 O 0.6912 0.38847 0.33452 0.0
Mg39 Mg 0.73826 0.3979 0.385 0.0
Mg40 Mg 0.6346 0.38669 0.36346 0.0
C41 C 0.61162 0.31073 0.31469 0.0
C42 C 0.62827 0.3838 0.22051 0.0
O43 O 0.73419 0.23278 0.20225 0.0
O44 O 0.67263 0.22306 0.2037 0.0
O45 O 0.71853 0.30398 0.12786 0.0
O46 O 0.65668 0.29856 0.1245 0.0
O47 O 0.61154 0.28968 0.27002 0.0
O48 O 0.63942 0.32993 0.33091 0.0
C49 C 0.75169 0.29428 0.3618 0.0
O50 O 0.72647 0.31737 0.36519 0.0
O51 O 0.76273 0.28198 0.31316 0.0
O52 O 0.68496 0.42059 0.34892 0.0
O53 O 0.72912 0.45397 0.38456 0.0
O54 O 0.65873 0.37592 0.45729 0.0
C55 C 0.69498 0.45105 0.36793 0.0
O56 O 0.72125 0.37872 0.46757 0.0
O57 O 0.77383 0.36791 0.32667 0.0
C58 C 0.68927 0.37338 0.48808 0.0
O59 O 0.74599 0.35115 0.24398 0.0
O60 O 0.6566 0.36391 0.21735 0.0
O61 O 0.6157 0.39477 0.26908 0.0
C62 C 0.25396 0.20995 0.32066 0.0
C63 C 0.14907 0.16156 0.2724 0.0
C64 C 0.10004 0.24204 0.45844 0.0
Mg65 Mg 0.21032 0.1494 0.36649 0.0
O66 O 0.19254 0.18616 0.41251 0.0
Mg67 Mg 0.16983 0.22623 0.37225 0.0
Mg68 Mg 0.15405 0.18014 0.46912 0.0
O69 O 0.11584 0.1758 0.52825 0.0
Mg70 Mg 0.10718 0.21539 0.57796 0.0
Mg71 Mg 0.13305 0.13264 0.56407 0.0
C72 C 0.20468 0.1097 0.48574 0.0
C73 C 0.10611 0.11132 0.43157 0.0
O74 O 0.2253 0.22909 0.32792 0.0
O75 O 0.25516 0.17831 0.33449 0.0
O76 O 0.1463 0.19212 0.29483 0.0
O77 O 0.17076 0.1394 0.29521 0.0
O78 O 0.21614 0.11161 0.43387 0.0
O79 O 0.18672 0.13475 0.51062 0.0
C80 C 0.19675 0.25364 0.50203 0.0
O81 O 0.18474 0.22595 0.52371 0.0
O82 O 0.19349 0.25833 0.44765 0.0
O83 O 0.07702 0.13782 0.6074 0.0
O84 O 0.05715 0.19328 0.60884 0.0
O85 O 0.16014 0.16001 0.64494 0.0
C86 C 0.05262 0.16123 0.6183 0.0
O87 O 0.14673 0.21594 0.65108 0.0
O88 O 0.11549 0.25091 0.50774 0.0
C89 C 0.16252 0.18942 0.67177 0.0
O90 O 0.1168 0.22047 0.4248 0.0
O91 O 0.1238 0.13701 0.41357 0.0
O92 O 0.1052 0.1054 0.48546 0.0
C93 C 0.26695 0.75544 0.56799 0.0
C94 C 0.32732 0.66582 0.50238 0.0
C95 C 0.27502 0.59593 0.67805 0.0
Mg96 Mg 0.34191 0.72028 0.60047 0.0
O97 O 0.31081 0.69744 0.64919 0.0
Mg98 Mg 0.26717 0.67208 0.61145 0.0
Mg99 Mg 0.3334 0.66108 0.69707 0.0
O100 O 0.35719 0.62511 0.74535 0.0
Mg101 Mg 0.32825 0.6006 0.79454 0.0
Mg102 Mg 0.39899 0.65356 0.78321 0.0
C103 C 0.3975 0.72042 0.71154 0.0
C104 C 0.41413 0.64051 0.64613 0.0
O105 O 0.24935 0.72737 0.57737 0.0
O106 O 0.30236 0.75811 0.57456 0.0
O107 O 0.29677 0.65939 0.52599 0.0
O108 O 0.35114 0.6867 0.52655 0.0
O109 O 0.38929 0.73115 0.66059 0.0
O110 O 0.37574 0.70041 0.73727 0.0
C111 C 0.25331 0.68439 0.74899 0.0
O112 O 0.28708 0.67587 0.76242 0.0
O113 O 0.24071 0.68465 0.69628 0.0
O114 O 0.41979 0.60328 0.82216 0.0
O115 O 0.37193 0.56639 0.82564 0.0
O116 O 0.36725 0.66555 0.86681 0.0
C117 C 0.40656 0.57386 0.83374 0.0
O118 O 0.3149 0.63489 0.86561 0.0
O119 O 0.28517 0.58564 0.72871 0.0
C120 C 0.33699 0.65737 0.88979 0.0
O121 O 0.2912 0.62142 0.65504 0.0
O122 O 0.37962 0.64624 0.6328 0.0
O123 O 0.42703 0.64173 0.69892 0.0
H124 H 0.90815 0.79369 0.29675 0.0
H125 H 0.90867 0.79672 0.40273 0.0
H126 H 0.80754 0.85634 0.39706 0.0
H127 H 0.80649 0.85329 0.29089 0.0
H128 H 0.85685 0.87391 0.4949 0.0
H129 H 0.79906 0.77359 0.39524 0.0
H130 H 0.79705 0.72205 0.32865 0.0
H131 H 0.88844 0.67794 0.42608 0.0
H132 H 0.89136 0.72949 0.49269 0.0
H133 H 0.77529 0.83307 0.75289 0.0
H134 H 0.78192 0.83336 0.64798 0.0
H135 H 0.88188 0.77258 0.66467 0.0
H136 H 0.87581 0.77243 0.76991 0.0
H137 H 0.83699 0.75601 0.5628 0.0
H138 H 0.89296 0.85315 0.66621 0.0
H139 H 0.89567 0.9036 0.73505 0.0
H140 H 0.81051 0.95357 0.63286 0.0
H141 H 0.80668 0.90304 0.56402 0.0
C142 C 0.88663 0.80845 0.31784 0.0
C143 C 0.85666 0.82241 0.28523 0.0
C144 C 0.88695 0.81005 0.37854 0.0
C145 C 0.85762 0.82596 0.4075 0.0
C146 C 0.83022 0.84362 0.37539 0.0
C147 C 0.82967 0.8418 0.31464 0.0
C148 C 0.85253 0.81999 0.46966 0.0
C149 C 0.85222 0.84822 0.50975 0.0
C150 C 0.84718 0.78632 0.48907 0.0
C151 C 0.84571 0.75555 0.44853 0.0
C152 C 0.81898 0.75306 0.40207 0.0
C153 C 0.81763 0.72381 0.3644 0.0
C154 C 0.84265 0.69676 0.3731 0.0
C155 C 0.86912 0.69893 0.41937 0.0
C156 C 0.87064 0.72815 0.45707 0.0
C157 C 0.79795 0.81865 0.7342 0.0
C158 C 0.82532 0.80312 0.76991 0.0
C159 C 0.8019 0.81919 0.67424 0.0
C160 C 0.83292 0.80379 0.64904 0.0
C161 C 0.85799 0.78496 0.68355 0.0
C162 C 0.85435 0.78476 0.74364 0.0
C163 C 0.84092 0.80992 0.58795 0.0
C164 C 0.84177 0.78171 0.54807 0.0
C165 C 0.847 0.84357 0.56895 0.0
C166 C 0.8492 0.87407 0.61028 0.0
C167 C 0.87449 0.87471 0.65873 0.0
C168 C 0.87628 0.90335 0.69773 0.0
C169 C 0.85321 0.93174 0.68843 0.0
C170 C 0.82831 0.93153 0.64008 0.0
C171 C 0.8263 0.90288 0.60106 0.0
H172 H 0.85472 0.95393 0.71856 0.0
H173 H 0.84147 0.67403 0.34421 0.0
H174 H 0.62727 0.36235 0.55046 0.0
H175 H 0.62458 0.35293 0.65442 0.0
H176 H 0.74416 0.35899 0.67263 0.0
H177 H 0.74719 0.36769 0.56878 0.0
H178 H 0.72079 0.30759 0.73059 0.0
H179 H 0.68467 0.42644 0.71618 0.0
H180 H 0.64707 0.47519 0.68138 0.0
H181 H 0.54949 0.43159 0.74931 0.0
H182 H 0.58639 0.38233 0.78389 0.0
H183 H 0.74476 0.32412 0.03491 0.0
H184 H 0.74271 0.33768 0.93245 0.0
H185 H 0.62341 0.32692 0.92418 0.0
H186 H 0.62508 0.31389 0.02725 0.0
H187 H 0.64395 0.38003 0.8613 0.0
H188 H 0.67912 0.26151 0.87473 0.0
H189 H 0.71611 0.21262 0.9104 0.0
H190 H 0.81454 0.25548 0.84383 0.0
H191 H 0.77822 0.30492 0.80849 0.0
C192 C 0.65306 0.36154 0.57644 0.0
C193 C 0.68747 0.36587 0.55087 0.0
C194 C 0.65143 0.35643 0.63616 0.0
C195 C 0.68412 0.3558 0.67188 0.0
C196 C 0.71849 0.3595 0.64625 0.0
C197 C 0.72017 0.36449 0.58663 0.0
C198 C 0.68286 0.35047 0.73562 0.0
C199 C 0.70435 0.3238 0.75916 0.0
C200 C 0.66052 0.37086 0.77302 0.0
C201 C 0.63825 0.40043 0.75197 0.0
C202 C 0.65513 0.42706 0.72323 0.0
C203 C 0.63395 0.45484 0.70366 0.0
C204 C 0.5959 0.45643 0.71298 0.0
C205 C 0.57896 0.4303 0.74206 0.0
C206 C 0.6 0.40245 0.76166 0.0
C207 C 0.71798 0.32481 0.01159 0.0
C208 C 0.68513 0.31732 0.03942 0.0
C209 C 0.71689 0.33249 0.95276 0.0
C210 C 0.68299 0.3326 0.92003 0.0
C211 C 0.64995 0.32673 0.94825 0.0
C212 C 0.651 0.31912 0.00726 0.0
C213 C 0.6823 0.33752 0.85606 0.0
C214 C 0.66037 0.36392 0.83255 0.0
C215 C 0.70412 0.31686 0.81847 0.0
C216 C 0.72601 0.28708 0.83945 0.0
C217 C 0.70871 0.26064 0.86807 0.0
C218 C 0.72954 0.23282 0.88818 0.0
C219 C 0.76767 0.23099 0.87951 0.0
C220 C 0.78502 0.25696 0.85058 0.0
C221 C 0.76432 0.28487 0.83047 0.0
H222 H 0.78375 0.20942 0.8951 0.0
H223 H 0.57956 0.47792 0.69772 0.0
H224 H 0.19627 0.13786 0.73183 0.0
H225 H 0.1926 0.13025 0.83587 0.0
H226 H 0.14947 0.23338 0.85852 0.0
H227 H 0.15288 0.24132 0.75442 0.0
H228 H 0.19428 0.21465 0.95178 0.0
H229 H 0.0915 0.16826 0.83377 0.0
H230 H 0.06083 0.1321 0.75529 0.0
H231 H 0.10223 0.0409 0.83451 0.0
H232 H 0.13415 0.07651 0.91279 0.0
H233 H 0.10492 0.20368 0.20678 0.0
H234 H 0.10333 0.20408 0.10105 0.0
H235 H 0.15895 0.10572 0.0937 0.0
H236 H 0.16083 0.10496 0.19974 0.0
H237 H 0.10755 0.12036 0.99301 0.0
H238 H 0.21362 0.16732 0.10684 0.0
H239 H 0.24273 0.20351 0.18691 0.0
H240 H 0.19249 0.29369 0.11571 0.0
H241 H 0.16259 0.25789 0.03564 0.0
C242 C 0.18717 0.15942 0.75907 0.0
C243 C 0.17402 0.18994 0.7344 0.0
C244 C 0.18478 0.15485 0.81854 0.0
C245 C 0.16951 0.1808 0.85438 0.0
C246 C 0.16078 0.21282 0.83131 0.0
C247 C 0.16303 0.2174 0.77172 0.0
C248 C 0.15959 0.1736 0.91437 0.0
C249 C 0.17511 0.19422 0.96061 0.0
C250 C 0.13481 0.14661 0.92598 0.0
C251 C 0.11575 0.12513 0.87874 0.0
C252 C 0.0945 0.14052 0.83414 0.0
C253 C 0.0768 0.12012 0.78971 0.0
C254 C 0.07965 0.08426 0.78975 0.0
C255 C 0.10021 0.0687 0.83434 0.0
C256 C 0.11815 0.08898 0.87873 0.0
C257 C 0.11553 0.18142 0.18284 0.0
C258 C 0.13434 0.15493 0.21185 0.0
C259 C 0.11462 0.18176 0.1223 0.0
C260 C 0.13214 0.1555 0.09001 0.0
C261 C 0.1458 0.12648 0.11814 0.0
C262 C 0.1468 0.12612 0.17885 0.0
C263 C 0.14226 0.16144 0.02982 0.0
C264 C 0.12681 0.14065 0.98381 0.0
C265 C 0.16708 0.18824 0.0182 0.0
C266 C 0.18559 0.2099 0.06563 0.0
C267 C 0.20856 0.19483 0.10852 0.0
C268 C 0.22522 0.21527 0.15388 0.0
C269 C 0.21936 0.25086 0.1565 0.0
C270 C 0.19694 0.2661 0.11366 0.0
C271 C 0.18016 0.24575 0.06826 0.0
H272 H 0.23226 0.26666 0.19161 0.0
H273 H 0.06577 0.06855 0.75541 0.0
H274 H 0.38756 0.68821 0.96713 0.0
H275 H 0.38533 0.6893 0.07279 0.0
H276 H 0.27285 0.65103 0.05795 0.0
H277 H 0.27464 0.64985 0.95196 0.0
H278 H 0.28706 0.69984 0.15203 0.0
H279 H 0.33838 0.59572 0.06773 0.0
H280 H 0.38125 0.56156 0.00769 0.0
H281 H 0.4743 0.60046 0.11375 0.0
H282 H 0.43205 0.6356 0.17355 0.0
H283 H 0.27595 0.63416 0.42704 0.0
H284 H 0.27824 0.62975 0.32134 0.0
H285 H 0.39123 0.66679 0.33302 0.0
H286 H 0.38939 0.6712 0.43895 0.0
H287 H 0.37698 0.61791 0.24027 0.0
H288 H 0.3254 0.72304 0.32204 0.0
H289 H 0.28248 0.75708 0.38221 0.0
H290 H 0.18921 0.71514 0.28007 0.0
H291 H 0.23157 0.6803 0.21999 0.0
C292 C 0.36186 0.68109 0.98612 0.0
C293 C 0.33152 0.66824 0.9511 0.0
C294 C 0.36079 0.68149 0.04657 0.0
C295 C 0.3293 0.66939 0.07284 0.0
C296 C 0.29753 0.66014 0.03826 0.0
C297 C 0.29863 0.65949 0.97772 0.0
C298 C 0.33074 0.6633 0.13571 0.0
C299 C 0.30623 0.68152 0.17119 0.0
C300 C 0.35652 0.63991 0.16063 0.0
C301 C 0.38202 0.61871 0.12469 0.0
C302 C 0.368 0.59735 0.07785 0.0
C303 C 0.3922 0.57776 0.04388 0.0
C304 C 0.43048 0.57894 0.05673 0.0
C305 C 0.44464 0.59967 0.10368 0.0
C306 C 0.42058 0.61946 0.1376 0.0
C307 C 0.30172 0.64038 0.40741 0.0
C308 C 0.3322 0.65386 0.44137 0.0
C309 C 0.30289 0.63795 0.34692 0.0
C310 C 0.33456 0.64881 0.31956 0.0
C311 C 0.36641 0.65863 0.35346 0.0
C312 C 0.36524 0.66122 0.41399 0.0
C313 C 0.33288 0.65411 0.25637 0.0
C314 C 0.3575 0.63592 0.22091 0.0
C315 C 0.30713 0.67745 0.23132 0.0
C316 C 0.28164 0.69869 0.26702 0.0
C317 C 0.29572 0.72082 0.31276 0.0
C318 C 0.2715 0.74029 0.34681 0.0
C319 C 0.23314 0.73819 0.3351 0.0
C320 C 0.21893 0.71668 0.28919 0.0
C321 C 0.24303 0.69704 0.25515 0.0
H322 H 0.21444 0.7533 0.3615 0.0
H323 H 0.44915 0.56371 0.03043 0.0
H324 H 0.42406 0.71626 0.82482 0.0
H325 H 0.48828 0.72515 0.86278 0.0
H326 H 0.52219 0.74415 0.68991 0.0
H327 H 0.45841 0.73629 0.65223 0.0
H328 H 0.55324 0.69472 0.84459 0.0
H329 H 0.58868 0.8046 0.69441 0.0
H330 H 0.55667 0.85112 0.64229 0.0
H331 H 0.47099 0.8537 0.76608 0.0
H332 H 0.50275 0.80757 0.81935 0.0
H333 H 0.74688 0.73221 0.89794 0.0
H334 H 0.68833 0.71912 0.84139 0.0
H335 H 0.63952 0.81205 0.91435 0.0
H336 H 0.69746 0.825 0.96972 0.0
H337 H 0.61742 0.80355 0.80507 0.0
H338 H 0.62785 0.73393 0.97278 0.0
H339 H 0.65617 0.69067 0.03638 0.0
H340 H 0.64451 0.61343 0.8976 0.0
H341 H 0.61672 0.65641 0.83282 0.0
C342 C 0.44522 0.72249 0.79506 0.0
C343 C 0.43596 0.7262 0.73573 0.0
C344 C 0.48194 0.72735 0.81669 0.0
C345 C 0.51002 0.73582 0.77934 0.0
C346 C 0.50094 0.73843 0.71985 0.0
C347 C 0.46432 0.73403 0.69841 0.0
C348 C 0.54858 0.74309 0.80253 0.0
C349 C 0.56735 0.71844 0.83574 0.0
C350 C 0.56692 0.77421 0.79161 0.0
C351 C 0.5479 0.80237 0.76044 0.0
C352 C 0.56309 0.8152 0.7106 0.0
C353 C 0.54498 0.84148 0.68086 0.0
C354 C 0.51175 0.85527 0.70074 0.0
C355 C 0.49665 0.84291 0.75059 0.0
C356 C 0.51468 0.81668 0.78054 0.0
C357 C 0.72388 0.75017 0.90022 0.0
C358 C 0.72644 0.77966 0.93759 0.0
C359 C 0.69041 0.74257 0.86857 0.0
C360 C 0.65935 0.76442 0.8742 0.0
C361 C 0.66298 0.79483 0.90913 0.0
C362 C 0.69608 0.80225 0.94069 0.0
C363 C 0.62221 0.75522 0.84716 0.0
C364 C 0.6036 0.77955 0.81316 0.0
C365 C 0.6037 0.72431 0.85894 0.0
C366 C 0.62069 0.69851 0.89769 0.0
C367 C 0.63169 0.70781 0.95562 0.0
C368 C 0.64758 0.68333 0.99193 0.0
C369 C 0.65225 0.64935 0.97099 0.0
C370 C 0.64099 0.63978 0.91371 0.0
C371 C 0.62519 0.6642 0.87717 0.0
H372 H 0.66449 0.63042 -0.0008 0.0
H373 H 0.49774 0.87557 0.6776 0.0
H374 H 0.75753 0.17502 0.14041 0.0
H375 H 0.76337 0.11205 0.13252 0.0
H376 H 0.67648 0.1027 0.25405 0.0
H377 H 0.66902 0.16518 0.25874 0.0
H378 H 0.78071 0.06265 0.19525 0.0
H379 H 0.62492 0.03236 0.22573 0.0
H380 H 0.56337 0.05909 0.20826 0.0
H381 H 0.60697 0.11855 0.07417 0.0
H382 H 0.66859 0.09187 0.09034 0.0
H383 H 0.78156 0.88445 0.16558 0.0
H384 H 0.76325 0.93852 0.21468 0.0
H385 H 0.69242 0.96194 0.06537 0.0
H386 H 0.70899 0.90751 0.01774 0.0
H387 H 0.66637 0.99351 0.15129 0.0
H388 H 0.78874 0.98255 0.07713 0.0
H389 H 0.85198 0.95882 0.06852 0.0
H390 H 0.87731 0.98565 0.24872 0.0
H391 H 0.81398 0.00923 0.25852 0.0
C392 C 0.73975 0.15937 0.16525 0.0
C393 C 0.71231 0.17475 0.19911 0.0
C394 C 0.74318 0.12345 0.16107 0.0
C395 C 0.71974 0.10244 0.19165 0.0
C396 C 0.69403 0.11813 0.22847 0.0
C397 C 0.68986 0.15385 0.23127 0.0
C398 C 0.72104 0.06425 0.1831 0.0
C399 C 0.75565 0.04755 0.18605 0.0
C400 C 0.68847 0.0444 0.17005 0.0
C401 C 0.65145 0.06045 0.15984 0.0
C402 C 0.62132 0.0511 0.19247 0.0
C403 C 0.58643 0.06624 0.18278 0.0
C404 C 0.5813 0.09061 0.14031 0.0
C405 C 0.61101 0.09978 0.10724 0.0
C406 C 0.64593 0.08469 0.11668 0.0
C407 C 0.76067 0.90031 0.14443 0.0
C408 C 0.74764 0.89228 0.08694 0.0
C409 C 0.7506 0.93149 0.17227 0.0
C410 C 0.72781 0.95505 0.14264 0.0
C411 C 0.71058 0.94458 0.0889 0.0
C412 C 0.72015 0.91333 0.06153 0.0
C413 C 0.72605 0.99199 0.1623 0.0
C414 C 0.69134 0.00852 0.16176 0.0
C415 C 0.75871 0.01195 0.17405 0.0
C416 C 0.79653 0.99725 0.16873 0.0
C417 C 0.8077 0.98312 0.11503 0.0
C418 C 0.84355 0.96975 0.10991 0.0
C419 C 0.86861 0.97072 0.15806 0.0
C420 C 0.85783 0.9849 0.2115 0.0
C421 C 0.82196 0.99826 0.21687 0.0
H422 H 0.89645 0.96069 0.1538 0.0
H423 H 0.55429 0.10231 0.13291 0.0
H424 H 0.32381 0.18239 0.32159 0.0
H425 H 0.38162 0.21503 0.33092 0.0
H426 H 0.32128 0.30918 0.30179 0.0
H427 H 0.26309 0.27695 0.2924 0.0
H428 H 0.39372 0.30155 0.24888 0.0
H429 H 0.33718 0.29506 0.43483 0.0
H430 H 0.30766 0.26443 0.5123 0.0
H431 H 0.40408 0.20034 0.53291 0.0
H432 H 0.43414 0.23018 0.45535 0.0
H433 H 0.56869 0.36829 0.3287 0.0
H434 H 0.5024 0.36789 0.3471 0.0
H435 H 0.51004 0.26006 0.38418 0.0
H436 H 0.57595 0.26034 0.3646 0.0
H437 H 0.45558 0.29343 0.44489 0.0
H438 H 0.50057 0.27982 0.24934 0.0
H439 H 0.53182 0.29697 0.16212 0.0
H440 H 0.46091 0.3857 0.15074 0.0
H441 H 0.42969 0.36937 0.23879 0.0
C442 C 0.3228 0.20987 0.31541 0.0
C443 C 0.28877 0.22718 0.30764 0.0
C444 C 0.35581 0.22847 0.32125 0.0
C445 C 0.35515 0.26446 0.31898 0.0
C446 C 0.32193 0.28142 0.30466 0.0
C447 C 0.28882 0.26287 0.29904 0.0
C448 C 0.38891 0.2842 0.33554 0.0
C449 C 0.40682 0.30088 0.29218 0.0
C450 C 0.40587 0.28252 0.39192 0.0
C451 C 0.38789 0.26486 0.43913 0.0
C452 C 0.35202 0.27433 0.45566 0.0
C453 C 0.33519 0.25713 0.49958 0.0
C454 C 0.35391 0.23048 0.52735 0.0
C455 C 0.3896 0.221 0.5114 0.0
C456 C 0.40659 0.2381 0.46757 0.0
C457 C 0.55657 0.34501 0.34324 0.0
C458 C 0.57694 0.3142 0.34457 0.0
C459 C 0.51874 0.34481 0.35374 0.0
C460 C 0.50147 0.31384 0.36603 0.0
C461 C 0.52299 0.28422 0.37475 0.0
C462 C 0.56051 0.28432 0.36337 0.0
C463 C 0.46106 0.30962 0.3576 0.0
C464 C 0.4417 0.29582 0.40245 0.0
C465 C 0.44325 0.31278 0.30199 0.0
C466 C 0.46327 0.32373 0.25113 0.0
C467 C 0.49207 0.3033 0.22881 0.0
C468 C 0.50966 0.31277 0.17911 0.0
C469 C 0.49827 0.34233 0.15083 0.0
C470 C 0.46965 0.36278 0.1727 0.0
C471 C 0.45208 0.35349 0.2226 0.0
H472 H 0.51155 0.34931 0.11184 0.0
H473 H 0.34078 0.21721 0.56128 0.0
H474 H 0.28531 0.80119 0.48925 0.0
H475 H 0.26537 0.86117 0.48596 0.0
H476 H 0.18515 0.84376 0.61481 0.0
H477 H 0.20497 0.78305 0.6178 0.0
H478 H 0.16177 0.89361 0.52741 0.0
H479 H 0.26178 0.87346 0.6652 0.0
H480 H 0.32162 0.84863 0.69891 0.0
H481 H 0.37799 0.9036 0.57139 0.0
H482 H 0.31836 0.92829 0.53619 0.0
H483 H 0.16197 0.07885 0.56709 0.0
H484 H 0.16481 0.01858 0.5941 0.0
H485 H 0.25999 0.00231 0.48917 0.0
H486 H 0.25773 0.06216 0.46311 0.0
H487 H 0.26934 0.96914 0.58567 0.0
H488 H 0.16768 0.98195 0.43954 0.0
H489 H 0.10778 0.00628 0.40498 0.0
H490 H 0.05442 0.96582 0.55023 0.0
H491 H 0.11416 0.94146 0.58594 0.0
C492 C 0.26251 0.80978 0.51541 0.0
C493 C 0.24675 0.78748 0.55387 0.0
C494 C 0.25126 0.84414 0.51372 0.0
C495 C 0.22432 0.85717 0.55101 0.0
C496 C 0.20606 0.83427 0.58577 0.0
C497 C 0.21722 0.79955 0.58719 0.0
C498 C 0.21915 0.89518 0.55801 0.0
C499 C 0.18503 0.91017 0.54122 0.0
C500 C 0.24946 0.91687 0.57613 0.0
C501 C 0.28553 0.90257 0.59783 0.0
C502 C 0.2869 0.88009 0.6441 0.0
C503 C 0.32079 0.86605 0.66349 0.0
C504 C 0.35358 0.87449 0.63726 0.0
C505 C 0.35256 0.89707 0.59166 0.0
C506 C 0.31872 0.91113 0.57201 0.0
C507 C 0.18394 0.06277 0.55075 0.0
C508 C 0.20935 0.07555 0.51232 0.0
C509 C 0.18533 0.02806 0.5658 0.0
C510 C 0.21219 0.00555 0.54278 0.0
C511 C 0.23884 0.01891 0.50737 0.0
C512 C 0.23743 0.0533 0.49236 0.0
C513 C 0.2124 0.9678 0.55273 0.0
C514 C 0.24576 0.95272 0.57293 0.0
C515 C 0.18135 0.94621 0.53791 0.0
C516 C 0.14542 0.96026 0.51575 0.0
C517 C 0.1432 0.9784 0.46424 0.0
C518 C 0.10927 0.99219 0.44444 0.0
C519 C 0.07734 0.98778 0.47557 0.0
C520 C 0.0792 0.96931 0.52628 0.0
C521 C 0.11307 0.95548 0.54629 0.0
H522 H 0.05113 0.99861 0.46045 0.0
H523 H 0.37979 0.86359 0.65232 0.0
H524 H 0.94495 0.79713 0.92835 0.0
H525 H 0.00613 0.78476 0.89132 0.0
H526 H 0.01378 0.69347 0.99123 0.0
H527 H 0.9533 0.70646 0.03014 0.0
H528 H 0.07707 0.72471 0.00166 0.0
H529 H 0.99517 0.69114 0.83943 0.0
H530 H 0.9439 0.69906 0.76654 0.0
H531 H 0.0026 0.78296 0.69736 0.0
H532 H 0.05402 0.77586 0.7704 0.0
H533 H 0.22875 0.649 0.84044 0.0
H534 H 0.17223 0.66265 0.8933 0.0
H535 H 0.16182 0.75881 0.80699 0.0
H536 H 0.21728 0.74482 0.7537 0.0
H537 H 0.09994 0.7228 0.79108 0.0
H538 H 0.1834 0.75387 0.95491 0.0
H539 H 0.23344 0.74425 0.02913 0.0
H540 H 0.17112 0.66162 0.09504 0.0
H541 H 0.12099 0.67026 0.02049 0.0
C542 C 0.95933 0.77433 0.94216 0.0
C543 C 0.94396 0.75294 0.98243 0.0
C544 C 0.9945 0.76717 0.9208 0.0
C545 C 0.01468 0.73797 0.93806 0.0
C546 C -0.00096 0.71626 0.97741 0.0
C547 C 0.96424 0.72369 -0.00061 0.0
C548 C 0.05216 0.73009 0.91565 0.0
C549 C 0.08196 0.72387 0.95552 0.0
C550 C 0.05882 0.72931 0.85554 0.0
C551 C 0.02831 0.73316 0.81073 0.0
C552 C 0.99706 0.71139 0.80885 0.0
C553 C 0.96798 0.71573 0.76751 0.0
C554 C 0.96995 0.74156 0.72745 0.0
C555 C 0.0011 0.76299 0.72848 0.0
C556 C 0.03024 0.7588 0.76979 0.0
C557 C 0.21506 0.67356 0.83465 0.0
C558 C 0.22734 0.696 0.79344 0.0
C559 C 0.18266 0.68129 0.8645 0.0
C560 C 0.16249 0.71169 0.85375 0.0
C561 C 0.17658 0.73511 0.81568 0.0
C562 C 0.2085 0.72727 0.78569 0.0
C563 C 0.12501 0.71794 0.87711 0.0
C564 C 0.0951 0.72366 0.83726 0.0
C565 C 0.11827 0.71783 0.93712 0.0
C566 C 0.14857 0.71251 0.98169 0.0
C567 C 0.18051 0.73341 0.98482 0.0
C568 C 0.20887 0.72817 0.02702 0.0
C569 C 0.20543 0.70234 0.06673 0.0
C570 C 0.17372 0.68161 0.06422 0.0
C571 C 0.14533 0.68666 0.022 0.0
H572 H 0.22726 0.69844 0.09956 0.0
H573 H 0.94738 0.7449 0.69554 0.0
H574 H 0.7171 0.39817 0.1899 0.0
H575 H 0.70358 0.45828 0.17106 0.0
H576 H 0.78785 0.49059 0.30094 0.0
H577 H 0.80111 0.43036 0.32122 0.0
H578 H 0.7177 0.52637 0.30847 0.0
H579 H 0.80901 0.49036 0.16701 0.0
H580 H 0.83033 0.4524 0.08653 0.0
H581 H 0.73404 0.47911 0.98106 0.0
H582 H 0.71211 0.51698 0.06116 0.0
H583 H 0.81853 0.67386 0.24198 0.0
H584 H 0.79258 0.61781 0.26288 0.0
H585 H 0.69919 0.63547 0.14393 0.0
H586 H 0.72415 0.69264 0.12533 0.0
H587 H 0.75087 0.57444 0.12182 0.0
H588 H 0.67317 0.62614 0.25699 0.0
H589 H 0.65091 0.6622 0.3387 0.0
H590 H 0.72001 0.60616 0.45846 0.0
H591 H 0.74346 0.57022 0.37744 0.0
C592 C 0.73264 0.41796 0.21489 0.0
C593 C 0.75964 0.40948 0.25827 0.0
C594 C 0.72483 0.45229 0.20392 0.0
C595 C 0.74438 0.47867 0.23524 0.0
C596 C 0.77211 0.47041 0.27706 0.0
C597 C 0.77981 0.43608 0.28832 0.0
C598 C 0.73734 0.51506 0.22304 0.0
C599 C 0.725 0.53715 0.2679 0.0
C600 C 0.74502 0.52835 0.16883 0.0
C601 C 0.75861 0.50611 0.12032 0.0
C602 C 0.79226 0.48793 0.12679 0.0
C603 C 0.80451 0.46648 0.08121 0.0
C604 C 0.78348 0.46322 0.02878 0.0
C605 C 0.75026 0.48157 0.02174 0.0
C606 C 0.73792 0.50305 0.06721 0.0
C607 C 0.79188 0.66621 0.22188 0.0
C608 C 0.77322 0.68739 0.18238 0.0
C609 C 0.77703 0.63436 0.23389 0.0
C610 C 0.7439 0.62281 0.20522 0.0
C611 C 0.72453 0.64431 0.16699 0.0
C612 C 0.73879 0.67679 0.15645 0.0
C613 C 0.73356 0.58635 0.20878 0.0
C614 C 0.74255 0.56392 0.16209 0.0
C615 C 0.72302 0.57288 0.2616 0.0
C616 C 0.71036 0.59551 0.31066 0.0
C617 C 0.68418 0.62179 0.30055 0.0
C618 C 0.67122 0.6422 0.34687 0.0
C619 C 0.68409 0.63653 0.40374 0.0
C620 C 0.71007 0.61055 0.41437 0.0
C621 C 0.72321 0.59013 0.36818 0.0
H622 H 0.67388 0.65224 0.43957 0.0
H623 H 0.79298 0.44658 0.99356 0.0
H624 H 0.79919 0.33198 0.4319 0.0
H625 H 0.85035 0.30765 0.48955 0.0
H626 H 0.7995 0.20703 0.46859 0.0
H627 H 0.74959 0.2312 0.407 0.0
H628 H 0.87646 0.26878 0.57306 0.0
H629 H 0.86113 0.15185 0.4254 0.0
H630 H 0.82404 0.12895 0.3394 0.0
H631 H 0.8196 0.2298 0.27015 0.0
H632 H 0.85686 0.25315 0.3556 0.0
H633 H 0.05864 0.1827 0.44829 0.0
H634 H 0.99274 0.17731 0.46873 0.0
H635 H 0.98502 0.28804 0.49211 0.0
H636 H 0.05119 0.29314 0.47563 0.0
H637 H 0.93361 0.19823 0.4159 0.0
H638 H 0.92381 0.31496 0.58392 0.0
H639 H 0.96369 0.34316 0.66157 0.0
H640 H 0.02436 0.24906 0.68314 0.0
H641 H 0.98394 0.21978 0.60681 0.0
C642 C 0.79817 0.305 0.44189 0.0
C643 C 0.77131 0.28317 0.41447 0.0
C644 C 0.82731 0.29104 0.47509 0.0
C645 C 0.82946 0.25522 0.48137 0.0
C646 C 0.79889 0.23454 0.46275 0.0
C647 C 0.77035 0.24833 0.42788 0.0
C648 C 0.86666 0.23981 0.49216 0.0
C649 C 0.88906 0.2529 0.53939 0.0
C650 C 0.8828 0.21808 0.44906 0.0
C651 C 0.86137 0.2042 0.39691 0.0
C652 C 0.85231 0.16903 0.39165 0.0
C653 C 0.83125 0.15601 0.3431 0.0
C654 C 0.81937 0.17793 0.29944 0.0
C655 C 0.82877 0.21288 0.30403 0.0
C656 C 0.84989 0.226 0.35241 0.0
C657 C 0.04268 0.20581 0.45751 0.0
C658 C 0.05965 0.23842 0.46027 0.0
C659 C 0.0052 0.20269 0.46966 0.0
C660 C 0.9842 0.23216 0.48387 0.0
C661 C 0.00094 0.2648 0.48373 0.0
C662 C 0.03849 0.26782 0.47313 0.0
C663 C 0.94408 0.22953 0.49449 0.0
C664 C 0.92119 0.21268 0.45146 0.0
C665 C 0.92776 0.24827 0.54105 0.0
C666 C 0.95076 0.26509 0.58954 0.0
C667 C 0.9452 0.30002 0.60585 0.0
C668 C 0.96795 0.31622 0.64958 0.0
C669 C 0.99644 0.29783 0.67738 0.0
C670 C 0.0021 0.26313 0.66175 0.0
C671 C 0.97925 0.24671 0.61834 0.0
H672 H 0.01419 0.31049 0.71094 0.0
H673 H 0.80295 0.16783 0.26203 0.0
H674 H 0.16927 0.28197 0.60313 0.0
H675 H 0.17941 0.34184 0.64002 0.0
H676 H 0.26343 0.35408 0.51494 0.0
H677 H 0.25334 0.29505 0.47844 0.0
H678 H 0.28165 0.39082 0.61246 0.0
H679 H 0.17081 0.37349 0.48526 0.0
H680 H 0.10972 0.34691 0.45973 0.0
H681 H 0.06648 0.39097 0.617 0.0
H682 H 0.12753 0.41733 0.64393 0.0
H683 H 0.28991 0.56582 0.57278 0.0
H684 H 0.27149 0.50675 0.54301 0.0
H685 H 0.19258 0.50752 0.67822 0.0
H686 H 0.2109 0.56646 0.70789 0.0
H687 H 0.16967 0.46416 0.58449 0.0
H688 H 0.27773 0.48336 0.71077 0.0
H689 H 0.33864 0.50888 0.74073 0.0
H690 H 0.38685 0.46045 0.59083 0.0
H691 H 0.32602 0.4351 0.55943 0.0
C692 C 0.19107 0.297 0.58553 0.0
C693 C 0.21081 0.28367 0.53832 0.0
C694 C 0.19646 0.3314 0.60595 0.0
C695 C 0.22165 0.35283 0.57938 0.0
C696 C 0.24378 0.33832 0.53614 0.0
C697 C 0.23822 0.30433 0.51561 0.0
C698 C 0.22277 0.39096 0.59135 0.0
C699 C 0.25717 0.40679 0.60601 0.0
C700 C 0.19077 0.41202 0.58399 0.0
C701 C 0.15379 0.39712 0.56685 0.0
C702 C 0.14829 0.37741 0.51447 0.0
C703 C 0.1137 0.36236 0.49977 0.0
C704 C 0.08426 0.36721 0.53677 0.0
C705 C 0.08932 0.38721 0.58843 0.0
C706 C 0.12391 0.40222 0.60343 0.0
C707 C 0.26702 0.5542 0.59378 0.0
C708 C 0.25185 0.57079 0.64268 0.0
C709 C 0.25694 0.52014 0.57742 0.0
C710 C 0.23141 0.50229 0.60953 0.0
C711 C 0.21253 0.52054 0.65307 0.0
C712 C 0.22276 0.55445 0.66962 0.0
C713 C 0.22872 0.4639 0.60412 0.0
C714 C 0.1941 0.44813 0.59102 0.0
C715 C 0.26046 0.4428 0.61332 0.0
C716 C 0.29722 0.45762 0.63243 0.0
C717 C 0.30126 0.47835 0.68397 0.0
C718 C 0.33577 0.49277 0.70124 0.0
C719 C 0.36658 0.48635 0.66764 0.0
C720 C 0.36295 0.46543 0.61677 0.0
C721 C 0.32845 0.45103 0.59921 0.0
H722 H 0.39329 0.49753 0.68109 0.0
H723 H 0.0575 0.35552 0.52538 0.0
H724 H 0.12863 0.08463 0.32722 0.0
H725 H 0.09796 0.03872 0.2664 0.0
H726 H 0.0069 0.03941 0.38224 0.0
H727 H 0.03853 0.0837 0.44437 0.0
H728 H 0.02605 0.9774 0.3627 0.0
H729 H 0.00111 0.07212 0.23768 0.0
H730 H 0.01741 0.12175 0.18065 0.0
H731 H 0.08756 0.05697 0.07676 0.0
H732 H 0.07189 0.00695 0.13347 0.0
H733 H 0.89507 0.87892 0.18222 0.0
H734 H 0.93004 0.92112 0.24458 0.0
H735 H 0.02239 0.91191 0.13184 0.0
H736 H 0.98734 0.8704 0.06875 0.0
H737 H 0.00461 0.97699 0.14872 0.0
H738 H 0.02575 0.88138 0.27291 0.0
H739 H 0.00662 0.8324 0.32923 0.0
H740 H 0.94082 0.90026 0.43506 0.0
H741 H 0.95926 0.94963 0.37899 0.0
C742 C 0.10177 0.07532 0.33883 0.0
C743 C 0.08583 0.08755 0.39019 0.0
C744 C 0.08419 0.04915 0.30411 0.0
C745 C 0.04991 0.03565 0.31949 0.0
C746 C 0.03339 0.04914 0.36961 0.0
C747 C 0.05136 0.07454 0.40493 0.0
C748 C 0.03206 0.00621 0.28571 0.0
C749 C 0.02097 0.97757 0.31599 0.0
C750 C 0.02626 0.00587 0.22454 0.0
C751 C 0.03552 0.03585 0.19011 0.0
C752 C 0.02015 0.06849 0.20286 0.0
C753 C 0.02924 0.09667 0.17055 0.0
C754 C 0.05349 0.09249 0.12513 0.0
C755 C 0.06879 0.06014 0.11199 0.0
C756 C 0.05974 0.03185 0.1441 0.0
C757 C 0.92321 0.88518 0.17162 0.0
C758 C 0.93837 0.87157 0.12036 0.0
C759 C 0.94319 0.90934 0.20729 0.0
C760 C 0.97882 0.91981 0.19271 0.0
C761 C 0.99481 0.90452 0.14356 0.0
C762 C 0.9748 0.88066 0.10773 0.0
C763 C 0.99838 0.94846 0.22591 0.0
C764 C 0.00983 0.97687 0.19547 0.0
C765 C 0.00423 0.94874 0.28699 0.0
C766 C 0.99371 0.91917 0.32147 0.0
C767 C 0.00707 0.88584 0.30802 0.0
C768 C 0.99637 0.85801 0.33993 0.0
C769 C 0.97251 0.86323 0.38566 0.0
C770 C 0.95934 0.89629 0.39966 0.0
C771 C 0.96996 0.9242 0.3679 0.0
H772 H 0.96432 0.84167 0.41036 0.0
H773 H 0.06035 0.1143 0.10003 0.0
H774 H 0.62175 0.45232 0.33298 0.0
H775 H 0.57412 0.49281 0.36513 0.0
H776 H 0.6576 0.55142 0.46655 0.0
H777 H 0.70551 0.51083 0.43449 0.0
H778 H 0.59962 0.53003 0.53056 0.0
H779 H 0.61468 0.58443 0.35031 0.0
H780 H 0.6161 0.58981 0.24416 0.0
H781 H 0.50231 0.55727 0.22397 0.0
H782 H 0.50027 0.55104 0.32979 0.0
H783 H 0.48713 0.65641 0.64768 0.0
H784 H 0.53407 0.63113 0.5859 0.0
H785 H 0.44853 0.57668 0.4819 0.0
H786 H 0.40091 0.60278 0.54343 0.0
H787 H 0.50671 0.5967 0.41601 0.0
H788 H 0.49143 0.53687 0.58972 0.0
H789 H 0.48676 0.52999 0.69502 0.0
H790 H 0.59818 0.56783 0.72565 0.0
H791 H 0.60331 0.57551 0.62061 0.0
C792 C 0.63006 0.47398 0.36169 0.0
C793 C 0.66723 0.47791 0.38229 0.0
C794 C 0.60283 0.49733 0.37955 0.0
C795 C 0.61228 0.52509 0.41832 0.0
C796 C 0.64971 0.53008 0.4367 0.0
C797 C 0.67703 0.50683 0.4185 0.0
C798 C 0.58268 0.54621 0.44518 0.0
C799 C 0.57978 0.54515 0.50556 0.0
C800 C 0.55572 0.56456 0.41212 0.0
C801 C 0.55741 0.56707 0.34814 0.0
C802 C 0.59008 0.57805 0.32326 0.0
C803 C 0.59093 0.58144 0.26317 0.0
C804 C 0.55929 0.57409 0.22748 0.0
C805 C 0.52677 0.56306 0.25171 0.0
C806 C 0.52575 0.5596 0.31174 0.0
C807 C 0.47819 0.6396 0.61091 0.0
C808 C 0.44049 0.63098 0.60091 0.0
C809 C 0.50506 0.62514 0.57571 0.0
C810 C 0.4949 0.60127 0.53038 0.0
C811 C 0.45697 0.59482 0.51707 0.0
C812 C 0.42982 0.60972 0.55211 0.0
C813 C 0.52421 0.58087 0.50126 0.0
C814 C 0.52682 0.58175 0.44078 0.0
C815 C 0.55062 0.56167 0.53391 0.0
C816 C 0.5476 0.55715 0.59727 0.0
C817 C 0.51482 0.54405 0.61894 0.0
C818 C 0.5121 0.53996 0.67859 0.0
C819 C 0.54211 0.54859 0.717 0.0
C820 C 0.57492 0.56125 0.69584 0.0
C821 C 0.57776 0.56546 0.63625 0.0
H822 H 0.54 0.54531 0.76313 0.0
H823 H 0.56 0.57683 0.181 0.0
H824 H 0.01286 0.10525 0.583 0.0
H825 H 0.96516 0.07775 0.63611 0.0
H826 H 0.96806 0.16298 0.76311 0.0
H827 H 0.01666 0.19048 0.70983 0.0
H828 H 0.98207 0.10295 0.81186 0.0
H829 H 0.88772 0.14481 0.68754 0.0
H830 H 0.85733 0.16112 0.59476 0.0
H831 H 0.85383 0.0549 0.53478 0.0
H832 H 0.88495 0.03793 0.62656 0.0
H833 H 0.82793 0.96706 0.86625 0.0
H834 H 0.84606 0.02223 0.83089 0.0
H835 H 0.95904 0.98619 0.81939 0.0
H836 H 0.94129 0.93063 0.85598 0.0
H837 H 0.87179 0.03766 0.7312 0.0
H838 H 0.01859 0.05205 0.84953 0.0
H839 H 0.04915 0.03856 0.94377 0.0
H840 H 0.94312 0.03816 0.0218 0.0
H841 H 0.91204 0.05254 0.92842 0.0
C842 C 0.00244 0.11861 0.62124 0.0
C843 C 0.01822 0.14982 0.64264 0.0
C844 C 0.97499 0.10306 0.65131 0.0
C845 C 0.96292 0.11848 0.70332 0.0
C846 C 0.97684 0.15092 0.72272 0.0
C847 C 0.00426 0.1667 0.69213 0.0
C848 C 0.94096 0.09757 0.74109 0.0
C849 C 0.95747 0.08913 0.79493 0.0
C850 C 0.90842 0.08024 0.71931 0.0
C851 C 0.88873 0.09008 0.66425 0.0
C852 C 0.88061 0.12489 0.65454 0.0
C853 C 0.86327 0.13427 0.60204 0.0
C854 C 0.85362 0.10906 0.55894 0.0
C855 C 0.86125 0.0744 0.56827 0.0
C856 C 0.8787 0.06488 0.62062 0.0
C857 C 0.85675 0.97071 0.85643 0.0
C858 C 0.88327 0.94435 0.86411 0.0
C859 C 0.86697 0.00237 0.83623 0.0
C860 C 0.90389 0.00844 0.82334 0.0
C861 C 0.93047 0.98219 0.83031 0.0
C862 C 0.92028 0.9504 0.85081 0.0
C863 C 0.91434 0.04169 0.80008 0.0
C864 C 0.8956 0.05226 0.74912 0.0
C865 C 0.94439 0.06144 0.82507 0.0
C866 C 0.96297 0.05321 0.88173 0.0
C867 C 0.00184 0.04941 0.88689 0.0
C868 C 0.01924 0.04156 0.94017 0.0
C869 C 0.99805 0.03737 0.98867 0.0
C870 C 0.95947 0.04129 0.98412 0.0
C871 C 0.94195 0.04929 0.931 0.0
H872 H 0.01149 0.03103 0.02976 0.0
H873 H 0.84022 0.11637 0.51831 0.0
H874 H 0.65921 0.39853 0.11824 0.0
H875 H 0.62753 0.4251 0.03448 0.0
H876 H 0.52317 0.41967 0.11834 0.0
H877 H 0.55468 0.3947 0.20271 0.0
H878 H 0.52617 0.39967 0.9869 0.0
H879 H 0.56488 0.4827 0.14401 0.0
H880 H 0.61241 0.51261 0.20723 0.0
H881 H 0.65819 0.55661 0.0586 0.0
H882 H 0.61324 0.52403 0.99369 0.0
H883 H 0.39 0.51872 0.89774 0.0
H884 H 0.43395 0.48039 0.94686 0.0
H885 H 0.52551 0.53297 0.87484 0.0
H886 H 0.48184 0.57185 0.82679 0.0
H887 H 0.53871 0.52682 0.98575 0.0
H888 H 0.50258 0.45031 0.82846 0.0
H889 H 0.46012 0.41868 0.75822 0.0
H890 H 0.41288 0.36616 0.89743 0.0
H891 H 0.45475 0.39782 0.96864 0.0
C892 C 0.62944 0.4026 0.1182 0.0
C893 C 0.6093 0.39503 0.16689 0.0
C894 C 0.61147 0.41766 0.07052 0.0
C895 C 0.57316 0.42429 0.07073 0.0
C896 C 0.55275 0.41456 0.11761 0.0
C897 C 0.57077 0.40057 0.16578 0.0
C898 C 0.55435 0.4444 0.02544 0.0
C899 C 0.5289 0.42746 0.98625 0.0
C900 C 0.559 0.48052 0.02409 0.0
C901 C 0.58628 0.49985 0.06359 0.0
C902 C 0.58587 0.49761 0.12438 0.0
C903 C 0.61245 0.51507 0.16063 0.0
C904 C 0.63853 0.53628 0.13694 0.0
C905 C 0.63828 0.5398 0.07687 0.0
C906 C 0.61256 0.52145 0.04025 0.0
C907 C 0.41945 0.52176 0.89169 0.0
C908 C 0.43247 0.54837 0.85871 0.0
C909 C 0.44456 0.49978 0.9196 0.0
C910 C 0.48304 0.50366 0.91413 0.0
C911 C 0.49598 0.52958 0.87977 0.0
C912 C 0.47096 0.55175 0.85238 0.0
C913 C 0.50973 0.48223 0.94759 0.0
C914 C 0.53655 0.49895 0.98498 0.0
C915 C 0.50691 0.44588 0.94653 0.0
C916 C 0.48168 0.42663 0.90395 0.0
C917 C 0.48298 0.43218 0.84415 0.0
C918 C 0.45904 0.41422 0.80415 0.0
C919 C 0.43376 0.39047 0.82336 0.0
C920 C 0.43246 0.38458 0.88261 0.0
C921 C 0.45634 0.40249 0.92282 0.0
H922 H 0.41523 0.3766 0.79232 0.0
H923 H 0.65864 0.55025 0.16518 0.0
loop_
_geom_bond_atom_site_label_1
_geom_bond_atom_site_label_2
_geom_bond_distance
_geom_bond_site_symmetry_2
_ccdc_geom_bond_type
C0 O12 1.241 . S
C0 O13 1.280 . S
C1 O14 1.277 . S
C1 O15 1.245 . S
C2 O26 1.247 1_554 S
C2 O28 1.289 . S
Mg3 O4 1.926 . S
Mg3 O13 1.984 . S
Mg3 O15 1.988 . S
Mg3 O16 2.061 . S
O4 Mg3 1.926 . S
O4 Mg5 1.986 . S
O4 Mg6 1.917 . S
Mg5 O4 1.986 . S
Mg5 O12 2.042 . S
Mg5 O14 2.041 . S
Mg5 O20 2.038 . S
Mg5 O28 2.238 . S
Mg6 O4 1.917 . S
Mg6 O7 1.917 1_554 S
Mg6 O17 2.106 1_554 S
Mg6 O19 2.079 1_554 S
Mg6 O28 2.106 . S
Mg6 O29 2.079 . S
O7 Mg6 1.917 1_556 S
O7 Mg8 1.926 . S
O7 Mg9 1.986 . S
Mg8 O7 1.926 . S
Mg8 O22 1.984 . S
Mg8 O25 1.988 . S
Mg8 O26 2.061 . S
Mg9 O7 1.986 . S
Mg9 O17 2.238 . S
Mg9 O21 2.042 . S
Mg9 O23 2.041 . S
Mg9 O30 2.038 1_556 S
C10 O16 1.247 1_556 S
C10 O17 1.289 . S
C11 O29 1.245 . S
C11 O30 1.274 . S
O12 C0 1.241 . S
O12 Mg5 2.042 . S
O13 C0 1.280 . S
O13 Mg3 1.984 . S
O14 C1 1.277 . S
O14 Mg5 2.041 . S
O15 C1 1.245 . S
O15 Mg3 1.988 . S
O16 Mg3 2.061 . S
O16 C10 1.247 1_554 S
O17 Mg6 2.106 1_556 S
O17 Mg9 2.238 . S
O17 C10 1.289 . S
C18 O19 1.245 . S
C18 O20 1.274 1_556 S
O19 Mg6 2.079 1_556 S
O19 C18 1.245 . S
O20 Mg5 2.038 . S
O20 C18 1.274 1_554 S
O21 Mg9 2.042 . S
O21 C24 1.241 . S
O22 Mg8 1.984 . S
O22 C24 1.280 . S
O23 Mg9 2.041 . S
O23 C27 1.277 . S
C24 O21 1.241 . S
C24 O22 1.280 . S
O25 Mg8 1.988 . S
O25 C27 1.245 . S
O26 C2 1.247 1_556 S
O26 Mg8 2.061 . S
C27 O23 1.277 . S
C27 O25 1.245 . S
O28 C2 1.289 . S
O28 Mg5 2.238 . S
O28 Mg6 2.106 . S
O29 Mg6 2.079 . S
O29 C11 1.245 . S
O30 Mg9 2.038 1_554 S
O30 C11 1.274 . S
C31 O43 1.241 . S
C31 O44 1.280 . S
C32 O45 1.277 . S
C32 O46 1.245 . S
C33 O57 1.247 . S
C33 O59 1.289 . S
Mg34 O35 1.926 . S
Mg34 O44 1.984 . S
Mg34 O46 1.988 . S
Mg34 O47 2.061 . S
O35 Mg34 1.926 . S
O35 Mg36 1.986 . S
O35 Mg37 1.917 . S
Mg36 O35 1.986 . S
Mg36 O43 2.042 . S
Mg36 O45 2.041 . S
Mg36 O51 2.038 . S
Mg36 O59 2.238 . S
Mg37 O35 1.917 . S
Mg37 O38 1.917 . S
Mg37 O48 2.106 . S
Mg37 O50 2.079 . S
Mg37 O59 2.106 . S
Mg37 O60 2.079 . S
O38 Mg37 1.917 . S
O38 Mg39 1.926 . S
O38 Mg40 1.986 . S
Mg39 O38 1.926 . S
Mg39 O53 1.984 . S
Mg39 O56 1.988 . S
Mg39 O57 2.061 . S
Mg40 O38 1.986 . S
Mg40 O48 2.238 . S
Mg40 O52 2.042 . S
Mg40 O54 2.041 . S
Mg40 O61 2.038 . S
C41 O47 1.247 . S
C41 O48 1.289 . S
C42 O60 1.245 . S
C42 O61 1.274 . S
O43 C31 1.241 . S
O43 Mg36 2.042 . S
O44 C31 1.280 . S
O44 Mg34 1.984 . S
O45 C32 1.277 . S
O45 Mg36 2.041 . S
O46 C32 1.245 . S
O46 Mg34 1.988 . S
O47 Mg34 2.061 . S
O47 C41 1.247 . S
O48 Mg37 2.106 . S
O48 Mg40 2.238 . S
O48 C41 1.289 . S
C49 O50 1.245 . S
C49 O51 1.274 . S
O50 Mg37 2.079 . S
O50 C49 1.245 . S
O51 Mg36 2.038 . S
O51 C49 1.274 . S
O52 Mg40 2.042 . S
O52 C55 1.241 . S
O53 Mg39 1.984 . S
O53 C55 1.280 . S
O54 Mg40 2.041 . S
O54 C58 1.277 . S
C55 O52 1.241 . S
C55 O53 1.280 . S
O56 Mg39 1.988 . S
O56 C58 1.245 . S
O57 C33 1.247 . S
O57 Mg39 2.061 . S
C58 O54 1.277 . S
C58 O56 1.245 . S
O59 C33 1.289 . S
O59 Mg36 2.238 . S
O59 Mg37 2.106 . S
O60 Mg37 2.079 . S
O60 C42 1.245 . S
O61 Mg40 2.038 . S
O61 C42 1.274 . S
C62 O74 1.241 . S
C62 O75 1.280 . S
C63 O76 1.277 . S
C63 O77 1.245 . S
C64 O88 1.247 . S
C64 O90 1.289 . S
Mg65 O66 1.926 . S
Mg65 O75 1.984 . S
Mg65 O77 1.988 . S
Mg65 O78 2.061 . S
O66 Mg65 1.926 . S
O66 Mg67 1.986 . S
O66 Mg68 1.917 . S
Mg67 O66 1.986 . S
Mg67 O74 2.042 . S
Mg67 O76 2.041 . S
Mg67 O82 2.038 . S
Mg67 O90 2.238 . S
Mg68 O66 1.917 . S
Mg68 O69 1.917 . S
Mg68 O79 2.106 . S
Mg68 O81 2.079 . S
Mg68 O90 2.106 . S
Mg68 O91 2.079 . S
O69 Mg68 1.917 . S
O69 Mg70 1.926 . S
O69 Mg71 1.986 . S
Mg70 O69 1.926 . S
Mg70 O84 1.984 . S
Mg70 O87 1.988 . S
Mg70 O88 2.061 . S
Mg71 O69 1.986 . S
Mg71 O79 2.238 . S
Mg71 O83 2.042 . S
Mg71 O85 2.041 . S
Mg71 O92 2.038 . S
C72 O78 1.247 . S
C72 O79 1.289 . S
C73 O91 1.245 . S
C73 O92 1.274 . S
O74 C62 1.241 . S
O74 Mg67 2.042 . S
O75 C62 1.280 . S
O75 Mg65 1.984 . S
O76 C63 1.277 . S
O76 Mg67 2.041 . S
O77 C63 1.245 . S
O77 Mg65 1.988 . S
O78 Mg65 2.061 . S
O78 C72 1.247 . S
O79 Mg68 2.106 . S
O79 Mg71 2.238 . S
O79 C72 1.289 . S
C80 O81 1.245 . S
C80 O82 1.274 . S
O81 Mg68 2.079 . S
O81 C80 1.245 . S
O82 Mg67 2.038 . S
O82 C80 1.274 . S
O83 Mg71 2.042 . S
O83 C86 1.241 . S
O84 Mg70 1.984 . S
O84 C86 1.280 . S
O85 Mg71 2.041 . S
O85 C89 1.277 . S
C86 O83 1.241 . S
C86 O84 1.280 . S
O87 Mg70 1.988 . S
O87 C89 1.245 . S
O88 C64 1.247 . S
O88 Mg70 2.061 . S
C89 O85 1.277 . S
C89 O87 1.245 . S
O90 C64 1.289 . S
O90 Mg67 2.238 . S
O90 Mg68 2.106 . S
O91 Mg68 2.079 . S
O91 C73 1.245 . S
O92 Mg71 2.038 . S
O92 C73 1.274 . S
C93 O105 1.241 . S
C93 O106 1.280 . S
C94 O107 1.277 . S
C94 O108 1.245 . S
C95 O119 1.247 . S
C95 O121 1.289 . S
Mg96 O97 1.926 . S
Mg96 O106 1.984 . S
Mg96 O108 1.988 . S
Mg96 O109 2.061 . S
O97 Mg96 1.926 . S
O97 Mg98 1.986 . S
O97 Mg99 1.917 . S
Mg98 O97 1.986 . S
Mg98 O105 2.042 . S
Mg98 O107 2.041 . S
Mg98 O113 2.038 . S
Mg98 O121 2.238 . S
Mg99 O97 1.917 . S
Mg99 O100 1.917 . S
Mg99 O110 2.106 . S
Mg99 O112 2.079 . S
Mg99 O121 2.106 . S
Mg99 O122 2.079 . S
O100 Mg99 1.917 . S
O100 Mg101 1.926 . S
O100 Mg102 1.986 . S
Mg101 O100 1.926 . S
Mg101 O115 1.984 . S
Mg101 O118 1.988 . S
Mg101 O119 2.061 . S
Mg102 O100 1.986 . S
Mg102 O110 2.238 . S
Mg102 O114 2.042 . S
Mg102 O116 2.041 . S
Mg102 O123 2.038 . S
C103 O109 1.247 . S
C103 O110 1.289 . S
C104 O122 1.245 . S
C104 O123 1.274 . S
O105 C93 1.241 . S
O105 Mg98 2.042 . S
O106 C93 1.280 . S
O106 Mg96 1.984 . S
O107 C94 1.277 . S
O107 Mg98 2.041 . S
O108 C94 1.245 . S
O108 Mg96 1.988 . S
O109 Mg96 2.061 . S
O109 C103 1.247 . S
O110 Mg99 2.106 . S
O110 Mg102 2.238 . S
O110 C103 1.289 . S
C111 O112 1.245 . S
C111 O113 1.274 . S
O112 Mg99 2.079 . S
O112 C111 1.245 . S
O113 Mg98 2.038 . S
O113 C111 1.274 . S
O114 Mg102 2.042 . S
O114 C117 1.241 . S
O115 Mg101 1.984 . S
O115 C117 1.280 . S
O116 Mg102 2.041 . S
O116 C120 1.277 . S
C117 O114 1.241 . S
C117 O115 1.280 . S
O118 Mg101 1.988 . S
O118 C120 1.245 . S
O119 C95 1.247 . S
O119 Mg101 2.061 . S
C120 O116 1.277 . S
C120 O118 1.245 . S
O121 C95 1.289 . S
O121 Mg98 2.238 . S
O121 Mg99 2.106 . S
O122 Mg99 2.079 . S
O122 C104 1.245 . S
O123 Mg102 2.038 . S
O123 C104 1.274 . S
H124 C142 0.951 . S
H125 C144 0.951 . S
H126 C146 0.950 . S
H127 C147 0.950 . S
H128 C149 0.950 . S
H129 C152 0.950 . S
H130 C153 0.950 . S
H131 C155 0.950 1_455 S
H132 C156 0.950 . S
H133 C157 0.951 . S
H134 C159 0.951 . S
H135 C161 0.950 . S
H136 C162 0.950 . S
H137 C164 0.950 . S
H138 C167 0.950 . S
H139 C168 0.950 . S
H140 C170 0.950 . S
H141 C171 0.950 . S
C142 H124 0.951 . S
C142 C143 1.366 . S
C142 C144 1.388 . S
C143 C142 1.366 . S
C143 C147 1.385 . S
C144 H125 0.951 . S
C144 C142 1.388 . S
C144 C145 1.366 . S
C145 C144 1.366 . S
C145 C146 1.414 . S
C145 C148 1.499 . S
C146 H126 0.950 . S
C146 C145 1.414 . S
C146 C147 1.374 . S
C147 H127 0.950 . S
C147 C143 1.385 . S
C147 C146 1.374 . S
C148 C145 1.499 . S
C148 C149 1.373 . S
C148 C150 1.389 . S
C149 H128 0.950 . S
C149 C148 1.373 . S
C149 C165 1.377 . S
C150 C148 1.389 . S
C150 C151 1.524 . S
C150 C164 1.377 . S
C151 C150 1.524 . S
C151 C152 1.397 . S
C151 C156 1.363 . S
C152 H129 0.950 . S
C152 C151 1.397 . S
C152 C153 1.334 . S
C153 H130 0.950 . S
C153 C152 1.334 . S
C153 C154 1.287 . S
C154 C153 1.287 . S
C154 C155 1.524 . S
C154 H173 0.913 . S
C155 H131 0.950 1_655 S
C155 C154 1.524 . S
C155 C156 1.415 . S
C156 H132 0.950 . S
C156 C151 1.363 . S
C156 C155 1.415 . S
C157 H133 0.951 . S
C157 C158 1.366 . S
C157 C159 1.388 . S
C158 C157 1.366 . S
C158 C162 1.385 . S
C159 H134 0.951 . S
C159 C157 1.388 . S
C159 C160 1.366 . S
C160 C159 1.366 . S
C160 C161 1.414 . S
C160 C163 1.499 . S
C161 H135 0.950 . S
C161 C160 1.414 . S
C161 C162 1.374 . S
C162 H136 0.950 . S
C162 C158 1.385 . S
C162 C161 1.374 . S
C163 C160 1.499 . S
C163 C164 1.373 . S
C163 C165 1.389 . S
C164 H137 0.950 . S
C164 C150 1.377 . S
C164 C163 1.373 . S
C165 C149 1.377 . S
C165 C163 1.389 . S
C165 C166 1.524 . S
C166 C165 1.524 . S
C166 C167 1.397 . S
C166 C171 1.363 . S
C167 H138 0.950 . S
C167 C166 1.397 . S
C167 C168 1.334 . S
C168 H139 0.950 . S
C168 C167 1.334 . S
C168 C169 1.287 . S
C169 C168 1.287 . S
C169 C170 1.524 . S
C169 H172 0.999 . S
C170 H140 0.950 . S
C170 C169 1.524 . S
C170 C171 1.415 . S
C171 H141 0.950 . S
C171 C166 1.363 . S
C171 C170 1.415 . S
H172 C169 0.999 . S
H173 C154 0.913 . S
H174 C192 0.951 . S
H175 C194 0.951 . S
H176 C196 0.950 . S
H177 C197 0.950 . S
H178 C199 0.950 . S
H179 C202 0.950 . S
H180 C203 0.950 . S
H181 C205 0.950 . S
H182 C206 0.950 . S
H183 C207 0.951 1_554 S
H184 C209 0.951 . S
H185 C211 0.950 . S
H186 C212 0.950 . S
H187 C214 0.950 . S
H188 C217 0.950 . S
H189 C218 0.950 . S
H190 C220 0.950 . S
H191 C221 0.950 . S
C192 H174 0.951 . S
C192 C193 1.366 . S
C192 C194 1.388 . S
C193 C192 1.366 . S
C193 C197 1.385 . S
C194 H175 0.951 . S
C194 C192 1.388 . S
C194 C195 1.366 . S
C195 C194 1.366 . S
C195 C196 1.414 . S
C195 C198 1.499 . S
C196 H176 0.950 . S
C196 C195 1.414 . S
C196 C197 1.374 . S
C197 H177 0.950 . S
C197 C193 1.385 . S
C197 C196 1.374 . S
C198 C195 1.499 . S
C198 C199 1.373 . S
C198 C200 1.389 . S
C199 H178 0.950 . S
C199 C198 1.373 . S
C199 C215 1.377 . S
C200 C198 1.389 . S
C200 C201 1.524 . S
C200 C214 1.377 . S
C201 C200 1.524 . S
C201 C202 1.397 . S
C201 C206 1.363 . S
C202 H179 0.950 . S
C202 C201 1.397 . S
C202 C203 1.334 . S
C203 H180 0.950 . S
C203 C202 1.334 . S
C203 C204 1.287 . S
C204 C203 1.287 . S
C204 C205 1.524 . S
C204 H223 0.913 . S
C205 H181 0.950 . S
C205 C204 1.524 . S
C205 C206 1.415 . S
C206 H182 0.950 . S
C206 C201 1.363 . S
C206 C205 1.415 . S
C207 H183 0.951 1_556 S
C207 C208 1.366 1_556 S
C207 C209 1.388 . S
C208 C207 1.366 1_554 S
C208 C212 1.385 1_554 S
C209 H184 0.951 . S
C209 C207 1.388 . S
C209 C210 1.366 . S
C210 C209 1.366 . S
C210 C211 1.414 . S
C210 C213 1.499 . S
C211 H185 0.950 . S
C211 C210 1.414 . S
C211 C212 1.374 . S
C212 H186 0.950 . S
C212 C208 1.385 1_556 S
C212 C211 1.374 . S
C213 C210 1.499 . S
C213 C214 1.373 . S
C213 C215 1.389 . S
C214 H187 0.950 . S
C214 C200 1.377 . S
C214 C213 1.373 . S
C215 C199 1.377 . S
C215 C213 1.389 . S
C215 C216 1.524 . S
C216 C215 1.524 . S
C216 C217 1.397 . S
C216 C221 1.363 . S
C217 H188 0.950 . S
C217 C216 1.397 . S
C217 C218 1.334 . S
C218 H189 0.950 . S
C218 C217 1.334 . S
C218 C219 1.287 . S
C219 C218 1.287 . S
C219 C220 1.524 . S
C219 H222 0.999 . S
C220 H190 0.950 . S
C220 C219 1.524 . S
C220 C221 1.415 . S
C221 H191 0.950 . S
C221 C216 1.363 . S
C221 C220 1.415 . S
H222 C219 0.999 . S
H223 C204 0.913 . S
H224 C242 0.951 . S
H225 C244 0.951 . S
H226 C246 0.950 . S
H227 C247 0.950 . S
H228 C249 0.950 . S
H229 C252 0.950 . S
H230 C253 0.950 . S
H231 C255 0.950 . S
H232 C256 0.950 . S
H233 C257 0.951 . S
H234 C259 0.951 . S
H235 C261 0.950 . S
H236 C262 0.950 . S
H237 C264 0.950 . S
H238 C267 0.950 . S
H239 C268 0.950 . S
H240 C270 0.950 . S
H241 C271 0.950 1_556 S
C242 H224 0.951 . S
C242 C243 1.366 . S
C242 C244 1.388 . S
C243 C242 1.366 . S
C243 C247 1.385 . S
C244 H225 0.951 . S
C244 C242 1.388 . S
C244 C245 1.366 . S
C245 C244 1.366 . S
C245 C246 1.414 . S
C245 C248 1.499 . S
C246 H226 0.950 . S
C246 C245 1.414 . S
C246 C247 1.374 . S
C247 H227 0.950 . S
C247 C243 1.385 . S
C247 C246 1.374 . S
C248 C245 1.499 . S
C248 C249 1.373 . S
C248 C250 1.389 . S
C249 H228 0.950 . S
C249 C248 1.373 . S
C249 C265 1.377 1_556 S
C250 C248 1.389 . S
C250 C251 1.524 . S
C250 C264 1.377 1_556 S
C251 C250 1.524 . S
C251 C252 1.397 . S
C251 C256 1.363 . S
C252 H229 0.950 . S
C252 C251 1.397 . S
C252 C253 1.334 . S
C253 H230 0.950 . S
C253 C252 1.334 . S
C253 C254 1.287 . S
C254 C253 1.287 . S
C254 C255 1.524 . S
C254 H273 0.898 1_545 S
C255 H231 0.950 . S
C255 C254 1.524 . S
C255 C256 1.415 . S
C256 H232 0.950 . S
C256 C251 1.363 . S
C256 C255 1.415 . S
C257 H233 0.951 . S
C257 C258 1.366 . S
C257 C259 1.388 . S
C258 C257 1.366 . S
C258 C262 1.385 . S
C259 H234 0.951 . S
C259 C257 1.388 . S
C259 C260 1.366 . S
C260 C259 1.366 . S
C260 C261 1.414 . S
C260 C263 1.499 . S
C261 H235 0.950 . S
C261 C260 1.414 . S
C261 C262 1.374 . S
C262 H236 0.950 . S
C262 C258 1.385 . S
C262 C261 1.374 . S
C263 C260 1.499 . S
C263 C264 1.373 . S
C263 C265 1.389 . S
C264 H237 0.950 . S
C264 C250 1.377 1_554 S
C264 C263 1.373 . S
C265 C249 1.377 1_554 S
C265 C263 1.389 . S
C265 C266 1.524 . S
C266 C265 1.524 . S
C266 C267 1.397 . S
C266 C271 1.363 . S
C267 H238 0.950 . S
C267 C266 1.397 . S
C267 C268 1.334 . S
C268 H239 0.950 . S
C268 C267 1.334 . S
C268 C269 1.287 . S
C269 C268 1.287 . S
C269 C270 1.524 . S
C269 H272 0.999 . S
C270 H240 0.950 . S
C270 C269 1.524 . S
C270 C271 1.415 . S
C271 H241 0.950 1_554 S
C271 C266 1.363 . S
C271 C270 1.415 . S
H272 C269 0.999 . S
H273 C254 0.898 1_565 S
H274 C292 0.951 . S
H275 C294 0.951 . S
H276 C296 0.950 . S
H277 C297 0.950 . S
H278 C299 0.950 . S
H279 C302 0.950 . S
H280 C303 0.950 . S
H281 C305 0.950 . S
H282 C306 0.950 . S
H283 C307 0.951 . S
H284 C309 0.951 . S
H285 C311 0.950 . S
H286 C312 0.950 . S
H287 C314 0.950 . S
H288 C317 0.950 . S
H289 C318 0.950 . S
H290 C320 0.950 . S
H291 C321 0.950 . S
C292 H274 0.951 . S
C292 C293 1.366 . S
C292 C294 1.388 . S
C293 C292 1.366 . S
C293 C297 1.385 . S
C294 H275 0.951 . S
C294 C292 1.388 . S
C294 C295 1.366 . S
C295 C294 1.366 . S
C295 C296 1.414 . S
C295 C298 1.499 . S
C296 H276 0.950 . S
C296 C295 1.414 . S
C296 C297 1.374 . S
C297 H277 0.950 . S
C297 C293 1.385 . S
C297 C296 1.374 . S
C298 C295 1.499 . S
C298 C299 1.373 . S
C298 C300 1.389 . S
C299 H278 0.950 . S
C299 C298 1.373 . S
C299 C315 1.377 . S
C300 C298 1.389 . S
C300 C301 1.524 . S
C300 C314 1.377 . S
C301 C300 1.524 . S
C301 C302 1.397 . S
C301 C306 1.363 . S
C302 H279 0.950 . S
C302 C301 1.397 . S
C302 C303 1.334 . S
C303 H280 0.950 . S
C303 C302 1.334 . S
C303 C304 1.287 . S
C304 C303 1.287 . S
C304 C305 1.524 . S
C304 H323 0.913 . S
C305 H281 0.950 . S
C305 C304 1.524 . S
C305 C306 1.415 . S
C306 H282 0.950 . S
C306 C301 1.363 . S
C306 C305 1.415 . S
C307 H283 0.951 . S
C307 C308 1.366 . S
C307 C309 1.388 . S
C308 C307 1.366 . S
C308 C312 1.385 . S
C309 H284 0.951 . S
C309 C307 1.388 . S
C309 C310 1.366 . S
C310 C309 1.366 . S
C310 C311 1.414 . S
C310 C313 1.499 . S
C311 H285 0.950 . S
C311 C310 1.414 . S
C311 C312 1.374 . S
C312 H286 0.950 . S
C312 C308 1.385 . S
C312 C311 1.374 . S
C313 C310 1.499 . S
C313 C314 1.373 . S
C313 C315 1.389 . S
C314 H287 0.950 . S
C314 C300 1.377 . S
C314 C313 1.373 . S
C315 C299 1.377 . S
C315 C313 1.389 . S
C315 C316 1.524 . S
C316 C315 1.524 . S
C316 C317 1.397 . S
C316 C321 1.363 . S
C317 H288 0.950 . S
C317 C316 1.397 . S
C317 C318 1.334 . S
C318 H289 0.950 . S
C318 C317 1.334 . S
C318 C319 1.287 . S
C319 C318 1.287 . S
C319 C320 1.524 . S
C319 H322 0.999 . S
C320 H290 0.950 . S
C320 C319 1.524 . S
C320 C321 1.415 . S
C321 H291 0.950 . S
C321 C316 1.363 . S
C321 C320 1.415 . S
H322 C319 0.999 . S
H323 C304 0.913 . S
H324 C342 0.951 . S
H325 C344 0.951 . S
H326 C346 0.950 . S
H327 C347 0.950 . S
H328 C349 0.950 . S
H329 C352 0.950 . S
H330 C353 0.950 . S
H331 C355 0.950 . S
H332 C356 0.950 . S
H333 C357 0.951 . S
H334 C359 0.951 . S
H335 C361 0.950 . S
H336 C362 0.950 . S
H337 C364 0.950 . S
H338 C367 0.952 . S
H339 C368 0.950 . S
H340 C370 0.950 . S
H341 C371 0.950 . S
C342 H324 0.951 . S
C342 C343 1.366 . S
C342 C344 1.388 . S
C343 C342 1.366 . S
C343 C347 1.385 . S
C344 H325 0.951 . S
C344 C342 1.388 . S
C344 C345 1.366 . S
C345 C344 1.366 . S
C345 C346 1.414 . S
C345 C348 1.499 . S
C346 H326 0.950 . S
C346 C345 1.414 . S
C346 C347 1.374 . S
C347 H327 0.950 . S
C347 C343 1.385 . S
C347 C346 1.374 . S
C348 C345 1.499 . S
C348 C349 1.373 . S
C348 C350 1.389 . S
C349 H328 0.950 . S
C349 C348 1.373 . S
C349 C365 1.377 . S
C350 C348 1.389 . S
C350 C351 1.524 . S
C350 C364 1.377 . S
C351 C350 1.524 . S
C351 C352 1.397 . S
C351 C356 1.363 . S
C352 H329 0.950 . S
C352 C351 1.397 . S
C352 C353 1.334 . S
C353 H330 0.950 . S
C353 C352 1.334 . S
C353 C354 1.287 . S
C354 C353 1.287 . S
C354 C355 1.524 . S
C354 H373 0.913 . S
C355 H331 0.950 . S
C355 C354 1.524 . S
C355 C356 1.415 . S
C356 H332 0.950 . S
C356 C351 1.363 . S
C356 C355 1.415 . S
C357 H333 0.951 . S
C357 C358 1.366 . S
C357 C359 1.388 . S
C358 C357 1.366 . S
C358 C362 1.385 . S
C359 H334 0.951 . S
C359 C357 1.388 . S
C359 C360 1.366 . S
C360 C359 1.366 . S
C360 C361 1.414 . S
C360 C363 1.499 . S
C361 H335 0.950 . S
C361 C360 1.414 . S
C361 C362 1.374 . S
C362 H336 0.950 . S
C362 C358 1.385 . S
C362 C361 1.374 . S
C363 C360 1.499 . S
C363 C364 1.373 . S
C363 C365 1.389 . S
C364 H337 0.950 . S
C364 C350 1.377 . S
C364 C363 1.373 . S
C365 C349 1.377 . S
C365 C363 1.389 . S
C365 C366 1.524 . S
C366 C365 1.524 . S
C366 C367 1.397 . S
C366 C371 1.363 . S
C367 H338 0.952 . S
C367 C366 1.397 . S
C367 C368 1.334 1_556 S
C368 H339 0.950 . S
C368 C367 1.334 1_554 S
C368 C369 1.287 1_554 S
C369 C368 1.287 1_556 S
C369 C370 1.524 . S
C369 H372 0.999 1_556 S
C370 H340 0.950 . S
C370 C369 1.524 . S
C370 C371 1.415 . S
C371 H341 0.950 . S
C371 C366 1.363 . S
C371 C370 1.415 . S
H372 C369 0.999 1_554 S
H373 C354 0.913 . S
H374 C392 0.951 . S
H375 C394 0.951 . S
H376 C396 0.950 . S
H377 C397 0.950 . S
H378 C399 0.950 . S
H379 C402 0.950 . S
H380 C403 0.950 . S
H381 C405 0.950 . S
H382 C406 0.950 . S
H383 C407 0.951 . S
H384 C409 0.951 . S
H385 C411 0.950 . S
H386 C412 0.950 1_556 S
H387 C414 0.950 . S
H388 C417 0.950 . S
H389 C418 0.950 . S
H390 C420 0.950 . S
H391 C421 0.950 . S
C392 H374 0.951 . S
C392 C393 1.366 . S
C392 C394 1.388 . S
C393 C392 1.366 . S
C393 C397 1.385 . S
C394 H375 0.951 . S
C394 C392 1.388 . S
C394 C395 1.366 . S
C395 C394 1.366 . S
C395 C396 1.414 . S
C395 C398 1.499 . S
C396 H376 0.950 . S
C396 C395 1.414 . S
C396 C397 1.374 . S
C397 H377 0.950 . S
C397 C393 1.385 . S
C397 C396 1.374 . S
C398 C395 1.499 . S
C398 C399 1.373 . S
C398 C400 1.389 . S
C399 H378 0.950 . S
C399 C398 1.373 . S
C399 C415 1.377 . S
C400 C398 1.389 . S
C400 C401 1.524 . S
C400 C414 1.377 . S
C401 C400 1.524 . S
C401 C402 1.397 . S
C401 C406 1.363 1_554 S
C402 H379 0.950 . S
C402 C401 1.397 . S
C402 C403 1.334 1_554 S
C403 H380 0.950 . S
C403 C402 1.334 1_556 S
C403 C404 1.287 . S
C404 C403 1.287 . S
C404 C405 1.524 . S
C404 H423 0.913 . S
C405 H381 0.950 . S
C405 C404 1.524 . S
C405 C406 1.415 . S
C406 H382 0.950 . S
C406 C401 1.363 1_556 S
C406 C405 1.415 . S
C407 H383 0.951 . S
C407 C408 1.366 . S
C407 C409 1.388 . S
C408 C407 1.366 . S
C408 C412 1.385 . S
C409 H384 0.951 . S
C409 C407 1.388 . S
C409 C410 1.366 1_565 S
C410 C409 1.366 1_545 S
C410 C411 1.414 . S
C410 C413 1.499 . S
C411 H385 0.950 . S
C411 C410 1.414 . S
C411 C412 1.374 1_545 S
C412 H386 0.950 1_554 S
C412 C408 1.385 . S
C412 C411 1.374 1_565 S
C413 C410 1.499 . S
C413 C414 1.373 . S
C413 C415 1.389 . S
C414 H387 0.950 . S
C414 C400 1.377 . S
C414 C413 1.373 . S
C415 C399 1.377 . S
C415 C413 1.389 . S
C415 C416 1.524 . S
C416 C415 1.524 . S
C416 C417 1.397 . S
C416 C421 1.363 . S
C417 H388 0.950 . S
C417 C416 1.397 . S
C417 C418 1.334 . S
C418 H389 0.950 . S
C418 C417 1.334 . S
C418 C419 1.287 . S
C419 C418 1.287 . S
C419 C420 1.524 . S
C419 H422 0.999 . S
C420 H390 0.950 . S
C420 C419 1.524 . S
C420 C421 1.415 . S
C421 H391 0.950 . S
C421 C416 1.363 . S
C421 C420 1.415 . S
H422 C419 0.999 . S
H423 C404 0.913 . S
H424 C442 0.951 . S
H425 C444 0.951 . S
H426 C446 0.950 . S
H427 C447 0.950 . S
H428 C449 0.950 . S
H429 C452 0.950 . S
H430 C453 0.950 . S
H431 C455 0.950 . S
H432 C456 0.950 . S
H433 C457 0.951 . S
H434 C459 0.951 . S
H435 C461 0.950 . S
H436 C462 0.950 . S
H437 C464 0.950 . S
H438 C467 0.950 . S
H439 C468 0.950 . S
H440 C470 0.950 . S
H441 C471 0.950 . S
C442 H424 0.951 . S
C442 C443 1.366 . S
C442 C444 1.388 . S
C443 C442 1.366 . S
C443 C447 1.385 . S
C444 H425 0.951 . S
C444 C442 1.388 . S
C444 C445 1.366 . S
C445 C444 1.366 . S
C445 C446 1.414 . S
C445 C448 1.499 . S
C446 H426 0.950 . S
C446 C445 1.414 . S
C446 C447 1.374 . S
C447 H427 0.950 . S
C447 C443 1.385 . S
C447 C446 1.374 . S
C448 C445 1.499 . S
C448 C449 1.373 . S
C448 C450 1.389 . S
C449 H428 0.950 . S
C449 C448 1.373 . S
C449 C465 1.377 . S
C450 C448 1.389 . S
C450 C451 1.524 . S
C450 C464 1.377 . S
C451 C450 1.524 . S
C451 C452 1.397 . S
C451 C456 1.363 . S
C452 H429 0.950 . S
C452 C451 1.397 . S
C452 C453 1.334 . S
C453 H430 0.950 . S
C453 C452 1.334 . S
C453 C454 1.287 . S
C454 C453 1.287 . S
C454 C455 1.524 . S
C454 H473 0.913 . S
C455 H431 0.950 . S
C455 C454 1.524 . S
C455 C456 1.415 . S
C456 H432 0.950 . S
C456 C451 1.363 . S
C456 C455 1.415 . S
C457 H433 0.951 . S
C457 C458 1.366 . S
C457 C459 1.388 . S
C458 C457 1.366 . S
C458 C462 1.385 . S
C459 H434 0.951 . S
C459 C457 1.388 . S
C459 C460 1.366 . S
C460 C459 1.366 . S
C460 C461 1.414 . S
C460 C463 1.499 . S
C461 H435 0.950 . S
C461 C460 1.414 . S
C461 C462 1.374 . S
C462 H436 0.950 . S
C462 C458 1.385 . S
C462 C461 1.374 . S
C463 C460 1.499 . S
C463 C464 1.373 . S
C463 C465 1.389 . S
C464 H437 0.950 . S
C464 C450 1.377 . S
C464 C463 1.373 . S
C465 C449 1.377 . S
C465 C463 1.389 . S
C465 C466 1.524 . S
C466 C465 1.524 . S
C466 C467 1.397 . S
C466 C471 1.363 . S
C467 H438 0.950 . S
C467 C466 1.397 . S
C467 C468 1.334 . S
C468 H439 0.950 . S
C468 C467 1.334 . S
C468 C469 1.287 . S
C469 C468 1.287 . S
C469 C470 1.524 . S
C469 H472 0.999 . S
C470 H440 0.950 . S
C470 C469 1.524 . S
C470 C471 1.415 . S
C471 H441 0.950 . S
C471 C466 1.363 . S
C471 C470 1.415 . S
H472 C469 0.999 . S
H473 C454 0.913 . S
H474 C492 0.951 . S
H475 C494 0.951 . S
H476 C496 0.950 . S
H477 C497 0.950 . S
H478 C499 0.950 . S
H479 C502 0.950 . S
H480 C503 0.950 . S
H481 C505 0.950 . S
H482 C506 0.950 . S
H483 C507 0.951 . S
H484 C509 0.951 1_565 S
H485 C511 0.950 . S
H486 C512 0.950 . S
H487 C514 0.950 . S
H488 C517 0.950 . S
H489 C518 0.950 . S
H490 C520 0.950 . S
H491 C521 0.950 . S
C492 H474 0.951 . S
C492 C493 1.366 . S
C492 C494 1.388 . S
C493 C492 1.366 . S
C493 C497 1.385 . S
C494 H475 0.951 . S
C494 C492 1.388 . S
C494 C495 1.366 . S
C495 C494 1.366 . S
C495 C496 1.414 . S
C495 C498 1.499 . S
C496 H476 0.950 . S
C496 C495 1.414 . S
C496 C497 1.374 . S
C497 H477 0.950 . S
C497 C493 1.385 . S
C497 C496 1.374 . S
C498 C495 1.499 . S
C498 C499 1.373 . S
C498 C500 1.389 . S
C499 H478 0.950 . S
C499 C498 1.373 . S
C499 C515 1.377 . S
C500 C498 1.389 . S
C500 C501 1.524 . S
C500 C514 1.377 . S
C501 C500 1.524 . S
C501 C502 1.397 . S
C501 C506 1.363 . S
C502 H479 0.950 . S
C502 C501 1.397 . S
C502 C503 1.334 . S
C503 H480 0.950 . S
C503 C502 1.334 . S
C503 C504 1.287 . S
C504 C503 1.287 . S
C504 C505 1.524 . S
C504 H523 0.913 . S
C505 H481 0.950 . S
C505 C504 1.524 . S
C505 C506 1.415 . S
C506 H482 0.950 . S
C506 C501 1.363 . S
C506 C505 1.415 . S
C507 H483 0.951 . S
C507 C508 1.366 . S
C507 C509 1.388 . S
C508 C507 1.366 . S
C508 C512 1.385 . S
C509 H484 0.951 1_545 S
C509 C507 1.388 . S
C509 C510 1.366 1_545 S
C510 C509 1.366 1_565 S
C510 C511 1.414 1_565 S
C510 C513 1.499 . S
C511 H485 0.950 . S
C511 C510 1.414 1_545 S
C511 C512 1.374 . S
C512 H486 0.950 . S
C512 C508 1.385 . S
C512 C511 1.374 . S
C513 C510 1.499 . S
C513 C514 1.373 . S
C513 C515 1.389 . S
C514 H487 0.950 . S
C514 C500 1.377 . S
C514 C513 1.373 . S
C515 C499 1.377 . S
C515 C513 1.389 . S
C515 C516 1.524 . S
C516 C515 1.524 . S
C516 C517 1.397 . S
C516 C521 1.363 . S
C517 H488 0.950 . S
C517 C516 1.397 . S
C517 C518 1.334 . S
C518 H489 0.950 . S
C518 C517 1.334 . S
C518 C519 1.287 . S
C519 C518 1.287 . S
C519 C520 1.524 . S
C519 H522 0.999 . S
C520 H490 0.950 . S
C520 C519 1.524 . S
C520 C521 1.415 . S
C521 H491 0.950 . S
C521 C516 1.363 . S
C521 C520 1.415 . S
H522 C519 0.999 . S
H523 C504 0.913 . S
H524 C542 0.951 . S
H525 C544 0.951 . S
H526 C546 0.950 . S
H527 C547 0.950 1_554 S
H528 C549 0.950 . S
H529 C552 0.950 . S
H530 C553 0.950 . S
H531 C555 0.950 . S
H532 C556 0.950 . S
H533 C557 0.951 . S
H534 C559 0.951 . S
H535 C561 0.950 . S
H536 C562 0.950 . S
H537 C564 0.950 . S
H538 C567 0.950 . S
H539 C568 0.950 . S
H540 C570 0.950 . S
H541 C571 0.950 . S
C542 H524 0.951 . S
C542 C543 1.366 . S
C542 C544 1.388 1_655 S
C543 C542 1.366 . S
C543 C547 1.385 . S
C544 H525 0.951 . S
C544 C542 1.388 1_455 S
C544 C545 1.366 . S
C545 C544 1.366 . S
C545 C546 1.414 . S
C545 C548 1.499 . S
C546 H526 0.950 . S
C546 C545 1.414 . S
C546 C547 1.374 1_455 S
C547 H527 0.950 1_556 S
C547 C543 1.385 . S
C547 C546 1.374 1_655 S
C548 C545 1.499 . S
C548 C549 1.373 . S
C548 C550 1.389 . S
C549 H528 0.950 . S
C549 C548 1.373 . S
C549 C565 1.377 . S
C550 C548 1.389 . S
C550 C551 1.524 . S
C550 C564 1.377 . S
C551 C550 1.524 . S
C551 C552 1.397 . S
C551 C556 1.363 . S
C552 H529 0.950 . S
C552 C551 1.397 . S
C552 C553 1.334 1_455 S
C553 H530 0.950 . S
C553 C552 1.334 1_655 S
C553 C554 1.287 . S
C554 C553 1.287 . S
C554 C555 1.524 1_655 S
C554 H573 0.913 . S
C555 H531 0.950 . S
C555 C554 1.524 1_455 S
C555 C556 1.415 . S
C556 H532 0.950 . S
C556 C551 1.363 . S
C556 C555 1.415 . S
C557 H533 0.951 . S
C557 C558 1.366 . S
C557 C559 1.388 . S
C558 C557 1.366 . S
C558 C562 1.385 . S
C559 H534 0.951 . S
C559 C557 1.388 . S
C559 C560 1.366 . S
C560 C559 1.366 . S
C560 C561 1.414 . S
C560 C563 1.499 . S
C561 H535 0.950 . S
C561 C560 1.414 . S
C561 C562 1.374 . S
C562 H536 0.950 . S
C562 C558 1.385 . S
C562 C561 1.374 . S
C563 C560 1.499 . S
C563 C564 1.373 . S
C563 C565 1.389 . S
C564 H537 0.950 . S
C564 C550 1.377 . S
C564 C563 1.373 . S
C565 C549 1.377 . S
C565 C563 1.389 . S
C565 C566 1.524 . S
C566 C565 1.524 . S
C566 C567 1.397 . S
C566 C571 1.363 1_556 S
C567 H538 0.950 . S
C567 C566 1.397 . S
C567 C568 1.334 1_556 S
C568 H539 0.950 . S
C568 C567 1.334 1_554 S
C568 C569 1.287 . S
C569 C568 1.287 . S
C569 C570 1.524 . S
C569 H572 0.999 . S
C570 H540 0.950 . S
C570 C569 1.524 . S
C570 C571 1.415 . S
C571 H541 0.950 . S
C571 C566 1.363 1_554 S
C571 C570 1.415 . S
H572 C569 0.999 . S
H573 C554 0.913 . S
H574 C592 0.951 . S
H575 C594 0.951 . S
H576 C596 0.950 . S
H577 C597 0.950 . S
H578 C599 0.950 . S
H579 C602 0.950 . S
H580 C603 0.950 . S
H581 C605 0.950 . S
H582 C606 0.950 . S
H583 C607 0.951 . S
H584 C609 0.951 . S
H585 C611 0.950 . S
H586 C612 0.950 . S
H587 C614 0.950 . S
H588 C617 0.950 . S
H589 C618 0.950 . S
H590 C620 0.950 . S
H591 C621 0.950 . S
C592 H574 0.951 . S
C592 C593 1.366 . S
C592 C594 1.388 . S
C593 C592 1.366 . S
C593 C597 1.385 . S
C594 H575 0.951 . S
C594 C592 1.388 . S
C594 C595 1.366 . S
C595 C594 1.366 . S
C595 C596 1.414 . S
C595 C598 1.499 . S
C596 H576 0.950 . S
C596 C595 1.414 . S
C596 C597 1.374 . S
C597 H577 0.950 . S
C597 C593 1.385 . S
C597 C596 1.374 . S
C598 C595 1.499 . S
C598 C599 1.373 . S
C598 C600 1.389 . S
C599 H578 0.950 . S
C599 C598 1.373 . S
C599 C615 1.377 . S
C600 C598 1.389 . S
C600 C601 1.524 . S
C600 C614 1.377 . S
C601 C600 1.524 . S
C601 C602 1.397 . S
C601 C606 1.363 . S
C602 H579 0.950 . S
C602 C601 1.397 . S
C602 C603 1.334 . S
C603 H580 0.950 . S
C603 C602 1.334 . S
C603 C604 1.287 1_554 S
C604 C603 1.287 1_556 S
C604 C605 1.524 . S
C604 H623 0.913 . S
C605 H581 0.950 . S
C605 C604 1.524 . S
C605 C606 1.415 1_556 S
C606 H582 0.950 . S
C606 C601 1.363 . S
C606 C605 1.415 1_554 S
C607 H583 0.951 . S
C607 C608 1.366 . S
C607 C609 1.388 . S
C608 C607 1.366 . S
C608 C612 1.385 . S
C609 H584 0.951 . S
C609 C607 1.388 . S
C609 C610 1.366 . S
C610 C609 1.366 . S
C610 C611 1.414 . S
C610 C613 1.499 . S
C611 H585 0.950 . S
C611 C610 1.414 . S
C611 C612 1.374 . S
C612 H586 0.950 . S
C612 C608 1.385 . S
C612 C611 1.374 . S
C613 C610 1.499 . S
C613 C614 1.373 . S
C613 C615 1.389 . S
C614 H587 0.950 . S
C614 C600 1.377 . S
C614 C613 1.373 . S
C615 C599 1.377 . S
C615 C613 1.389 . S
C615 C616 1.524 . S
C616 C615 1.524 . S
C616 C617 1.397 . S
C616 C621 1.363 . S
C617 H588 0.950 . S
C617 C616 1.397 . S
C617 C618 1.334 . S
C618 H589 0.950 . S
C618 C617 1.334 . S
C618 C619 1.287 . S
C619 C618 1.287 . S
C619 C620 1.524 . S
C619 H622 0.999 . S
C620 H590 0.950 . S
C620 C619 1.524 . S
C620 C621 1.415 . S
C621 H591 0.950 . S
C621 C616 1.363 . S
C621 C620 1.415 . S
H622 C619 0.999 . S
H623 C604 0.913 . S
H624 C642 0.951 . S
H625 C644 0.951 . S
H626 C646 0.950 . S
H627 C647 0.950 . S
H628 C649 0.950 . S
H629 C652 0.950 . S
H630 C653 0.950 . S
H631 C655 0.950 . S
H632 C656 0.950 . S
H633 C657 0.951 . S
H634 C659 0.951 . S
H635 C661 0.950 1_655 S
H636 C662 0.950 . S
H637 C664 0.950 . S
H638 C667 0.950 . S
H639 C668 0.950 . S
H640 C670 0.950 . S
H641 C671 0.950 . S
C642 H624 0.951 . S
C642 C643 1.366 . S
C642 C644 1.388 . S
C643 C642 1.366 . S
C643 C647 1.385 . S
C644 H625 0.951 . S
C644 C642 1.388 . S
C644 C645 1.366 . S
C645 C644 1.366 . S
C645 C646 1.414 . S
C645 C648 1.499 . S
C646 H626 0.950 . S
C646 C645 1.414 . S
C646 C647 1.374 . S
C647 H627 0.950 . S
C647 C643 1.385 . S
C647 C646 1.374 . S
C648 C645 1.499 . S
C648 C649 1.373 . S
C648 C650 1.389 . S
C649 H628 0.950 . S
C649 C648 1.373 . S
C649 C665 1.377 . S
C650 C648 1.389 . S
C650 C651 1.524 . S
C650 C664 1.377 . S
C651 C650 1.524 . S
C651 C652 1.397 . S
C651 C656 1.363 . S
C652 H629 0.950 . S
C652 C651 1.397 . S
C652 C653 1.334 . S
C653 H630 0.950 . S
C653 C652 1.334 . S
C653 C654 1.287 . S
C654 C653 1.287 . S
C654 C655 1.524 . S
C654 H673 0.913 . S
C655 H631 0.950 . S
C655 C654 1.524 . S
C655 C656 1.415 . S
C656 H632 0.950 . S
C656 C651 1.363 . S
C656 C655 1.415 . S
C657 H633 0.951 . S
C657 C658 1.366 . S
C657 C659 1.388 1_455 S
C658 C657 1.366 . S
C658 C662 1.385 . S
C659 H634 0.951 . S
C659 C657 1.388 1_655 S
C659 C660 1.366 . S
C660 C659 1.366 . S
C660 C661 1.414 1_655 S
C660 C663 1.499 . S
C661 H635 0.950 1_455 S
C661 C660 1.414 1_455 S
C661 C662 1.374 . S
C662 H636 0.950 . S
C662 C658 1.385 . S
C662 C661 1.374 . S
C663 C660 1.499 . S
C663 C664 1.373 . S
C663 C665 1.389 . S
C664 H637 0.950 . S
C664 C650 1.377 . S
C664 C663 1.373 . S
C665 C649 1.377 . S
C665 C663 1.389 . S
C665 C666 1.524 . S
C666 C665 1.524 . S
C666 C667 1.397 . S
C666 C671 1.363 . S
C667 H638 0.950 . S
C667 C666 1.397 . S
C667 C668 1.334 . S
C668 H639 0.950 . S
C668 C667 1.334 . S
C668 C669 1.287 . S
C669 C668 1.287 . S
C669 C670 1.524 . S
C669 H672 0.999 . S
C670 H640 0.950 . S
C670 C669 1.524 . S
C670 C671 1.415 . S
C671 H641 0.950 . S
C671 C666 1.363 . S
C671 C670 1.415 . S
H672 C669 0.999 . S
H673 C654 0.913 . S
H674 C692 0.951 . S
H675 C694 0.951 . S
H676 C696 0.950 . S
H677 C697 0.950 . S
H678 C699 0.950 . S
H679 C702 0.950 . S
H680 C703 0.950 . S
H681 C705 0.950 . S
H682 C706 0.950 . S
H683 C707 0.951 . S
H684 C709 0.951 . S
H685 C711 0.950 . S
H686 C712 0.950 . S
H687 C714 0.950 . S
H688 C717 0.950 . S
H689 C718 0.950 . S
H690 C720 0.950 . S
H691 C721 0.950 . S
C692 H674 0.951 . S
C692 C693 1.366 . S
C692 C694 1.388 . S
C693 C692 1.366 . S
C693 C697 1.385 . S
C694 H675 0.951 . S
C694 C692 1.388 . S
C694 C695 1.366 . S
C695 C694 1.366 . S
C695 C696 1.414 . S
C695 C698 1.499 . S
C696 H676 0.950 . S
C696 C695 1.414 . S
C696 C697 1.374 . S
C697 H677 0.950 . S
C697 C693 1.385 . S
C697 C696 1.374 . S
C698 C695 1.499 . S
C698 C699 1.373 . S
C698 C700 1.389 . S
C699 H678 0.950 . S
C699 C698 1.373 . S
C699 C715 1.377 . S
C700 C698 1.389 . S
C700 C701 1.524 . S
C700 C714 1.377 . S
C701 C700 1.524 . S
C701 C702 1.397 . S
C701 C706 1.363 . S
C702 H679 0.950 . S
C702 C701 1.397 . S
C702 C703 1.334 . S
C703 H680 0.950 . S
C703 C702 1.334 . S
C703 C704 1.287 . S
C704 C703 1.287 . S
C704 C705 1.524 . S
C704 H723 0.913 . S
C705 H681 0.950 . S
C705 C704 1.524 . S
C705 C706 1.415 . S
C706 H682 0.950 . S
C706 C701 1.363 . S
C706 C705 1.415 . S
C707 H683 0.951 . S
C707 C708 1.366 . S
C707 C709 1.388 . S
C708 C707 1.366 . S
C708 C712 1.385 . S
C709 H684 0.951 . S
C709 C707 1.388 . S
C709 C710 1.366 . S
C710 C709 1.366 . S
C710 C711 1.414 . S
C710 C713 1.499 . S
C711 H685 0.950 . S
C711 C710 1.414 . S
C711 C712 1.374 . S
C712 H686 0.950 . S
C712 C708 1.385 . S
C712 C711 1.374 . S
C713 C710 1.499 . S
C713 C714 1.373 . S
C713 C715 1.389 . S
C714 H687 0.950 . S
C714 C700 1.377 . S
C714 C713 1.373 . S
C715 C699 1.377 . S
C715 C713 1.389 . S
C715 C716 1.524 . S
C716 C715 1.524 . S
C716 C717 1.397 . S
C716 C721 1.363 . S
C717 H688 0.950 . S
C717 C716 1.397 . S
C717 C718 1.334 . S
C718 H689 0.950 . S
C718 C717 1.334 . S
C718 C719 1.287 . S
C719 C718 1.287 . S
C719 C720 1.524 . S
C719 H722 0.999 . S
C720 H690 0.950 . S
C720 C719 1.524 . S
C720 C721 1.415 . S
C721 H691 0.950 . S
C721 C716 1.363 . S
C721 C720 1.415 . S
H722 C719 0.999 . S
H723 C704 0.913 . S
H724 C742 0.951 . S
H725 C744 0.951 . S
H726 C746 0.950 . S
H727 C747 0.950 . S
H728 C749 0.950 1_545 S
H729 C752 0.950 . S
H730 C753 0.950 . S
H731 C755 0.950 . S
H732 C756 0.950 1_565 S
H733 C757 0.951 . S
H734 C759 0.951 . S
H735 C761 0.950 1_455 S
H736 C762 0.950 . S
H737 C764 0.950 . S
H738 C767 0.950 . S
H739 C768 0.950 . S
H740 C770 0.950 . S
H741 C771 0.950 . S
C742 H724 0.951 . S
C742 C743 1.366 . S
C742 C744 1.388 . S
C743 C742 1.366 . S
C743 C747 1.385 . S
C744 H725 0.951 . S
C744 C742 1.388 . S
C744 C745 1.366 . S
C745 C744 1.366 . S
C745 C746 1.414 . S
C745 C748 1.499 . S
C746 H726 0.950 . S
C746 C745 1.414 . S
C746 C747 1.374 . S
C747 H727 0.950 . S
C747 C743 1.385 . S
C747 C746 1.374 . S
C748 C745 1.499 . S
C748 C749 1.373 1_445 S
C748 C750 1.389 . S
C749 H728 0.950 1_565 S
C749 C748 1.373 1_665 S
C749 C765 1.377 . S
C750 C748 1.389 . S
C750 C751 1.524 . S
C750 C764 1.377 1_545 S
C751 C750 1.524 . S
C751 C752 1.397 . S
C751 C756 1.363 . S
C752 H729 0.950 . S
C752 C751 1.397 . S
C752 C753 1.334 . S
C753 H730 0.950 . S
C753 C752 1.334 . S
C753 C754 1.287 . S
C754 C753 1.287 . S
C754 C755 1.524 . S
C754 H773 0.913 . S
C755 H731 0.950 . S
C755 C754 1.524 . S
C755 C756 1.415 . S
C756 H732 0.950 1_545 S
C756 C751 1.363 . S
C756 C755 1.415 . S
C757 H733 0.951 . S
C757 C758 1.366 . S
C757 C759 1.388 . S
C758 C757 1.366 . S
C758 C762 1.385 . S
C759 H734 0.951 . S
C759 C757 1.388 . S
C759 C760 1.366 . S
C760 C759 1.366 . S
C760 C761 1.414 . S
C760 C763 1.499 . S
C761 H735 0.950 1_655 S
C761 C760 1.414 . S
C761 C762 1.374 . S
C762 H736 0.950 . S
C762 C758 1.385 . S
C762 C761 1.374 . S
C763 C760 1.499 . S
C763 C764 1.373 1_655 S
C763 C765 1.389 . S
C764 H737 0.950 . S
C764 C750 1.377 1_565 S
C764 C763 1.373 1_455 S
C765 C749 1.377 . S
C765 C763 1.389 . S
C765 C766 1.524 . S
C766 C765 1.524 . S
C766 C767 1.397 . S
C766 C771 1.363 . S
C767 H738 0.950 . S
C767 C766 1.397 . S
C767 C768 1.334 . S
C768 H739 0.950 . S
C768 C767 1.334 . S
C768 C769 1.287 . S
C769 C768 1.287 . S
C769 C770 1.524 . S
C769 H772 0.999 . S
C770 H740 0.950 . S
C770 C769 1.524 . S
C770 C771 1.415 . S
C771 H741 0.950 . S
C771 C766 1.363 . S
C771 C770 1.415 . S
H772 C769 0.999 . S
H773 C754 0.913 . S
H774 C792 0.951 . S
H775 C794 0.951 . S
H776 C796 0.950 . S
H777 C797 0.950 . S
H778 C799 0.950 . S
H779 C802 0.950 . S
H780 C803 0.950 . S
H781 C805 0.950 . S
H782 C806 0.950 . S
H783 C807 0.951 . S
H784 C809 0.951 . S
H785 C811 0.950 . S
H786 C812 0.950 . S
H787 C814 0.950 . S
H788 C817 0.950 . S
H789 C818 0.950 . S
H790 C820 0.950 . S
H791 C821 0.950 . S
C792 H774 0.951 . S
C792 C793 1.366 . S
C792 C794 1.388 . S
C793 C792 1.366 . S
C793 C797 1.385 . S
C794 H775 0.951 . S
C794 C792 1.388 . S
C794 C795 1.366 . S
C795 C794 1.366 . S
C795 C796 1.414 . S
C795 C798 1.499 . S
C796 H776 0.950 . S
C796 C795 1.414 . S
C796 C797 1.374 . S
C797 H777 0.950 . S
C797 C793 1.385 . S
C797 C796 1.374 . S
C798 C795 1.499 . S
C798 C799 1.373 . S
C798 C800 1.389 . S
C799 H778 0.950 . S
C799 C798 1.373 . S
C799 C815 1.377 . S
C800 C798 1.389 . S
C800 C801 1.524 . S
C800 C814 1.377 . S
C801 C800 1.524 . S
C801 C802 1.397 . S
C801 C806 1.363 . S
C802 H779 0.950 . S
C802 C801 1.397 . S
C802 C803 1.334 . S
C803 H780 0.950 . S
C803 C802 1.334 . S
C803 C804 1.287 . S
C804 C803 1.287 . S
C804 C805 1.524 . S
C804 H823 0.913 . S
C805 H781 0.950 . S
C805 C804 1.524 . S
C805 C806 1.415 . S
C806 H782 0.950 . S
C806 C801 1.363 . S
C806 C805 1.415 . S
C807 H783 0.951 . S
C807 C808 1.366 . S
C807 C809 1.388 . S
C808 C807 1.366 . S
C808 C812 1.385 . S
C809 H784 0.951 . S
C809 C807 1.388 . S
C809 C810 1.366 . S
C810 C809 1.366 . S
C810 C811 1.414 . S
C810 C813 1.499 . S
C811 H785 0.950 . S
C811 C810 1.414 . S
C811 C812 1.374 . S
C812 H786 0.950 . S
C812 C808 1.385 . S
C812 C811 1.374 . S
C813 C810 1.499 . S
C813 C814 1.373 . S
C813 C815 1.389 . S
C814 H787 0.950 . S
C814 C800 1.377 . S
C814 C813 1.373 . S
C815 C799 1.377 . S
C815 C813 1.389 . S
C815 C816 1.524 . S
C816 C815 1.524 . S
C816 C817 1.397 . S
C816 C821 1.363 . S
C817 H788 0.950 . S
C817 C816 1.397 . S
C817 C818 1.334 . S
C818 H789 0.950 . S
C818 C817 1.334 . S
C818 C819 1.287 . S
C819 C818 1.287 . S
C819 C820 1.524 . S
C819 H822 0.999 . S
C820 H790 0.950 . S
C820 C819 1.524 . S
C820 C821 1.415 . S
C821 H791 0.950 . S
C821 C816 1.363 . S
C821 C820 1.415 . S
H822 C819 0.999 . S
H823 C804 0.913 . S
H824 C842 0.951 . S
H825 C844 0.951 . S
H826 C846 0.950 . S
H827 C847 0.950 . S
H828 C849 0.950 . S
H829 C852 0.950 . S
H830 C853 0.950 . S
H831 C855 0.950 . S
H832 C856 0.950 . S
H833 C857 0.951 1_545 S
H834 C859 0.951 . S
H835 C861 0.950 . S
H836 C862 0.950 . S
H837 C864 0.950 1_565 S
H838 C867 0.950 1_455 S
H839 C868 0.950 . S
H840 C870 0.950 . S
H841 C871 0.950 . S
C842 H824 0.951 . S
C842 C843 1.366 . S
C842 C844 1.388 . S
C843 C842 1.366 . S
C843 C847 1.385 . S
C844 H825 0.951 . S
C844 C842 1.388 . S
C844 C845 1.366 1_455 S
C845 C844 1.366 1_655 S
C845 C846 1.414 . S
C845 C848 1.499 . S
C846 H826 0.950 . S
C846 C845 1.414 . S
C846 C847 1.374 1_655 S
C847 H827 0.950 . S
C847 C843 1.385 . S
C847 C846 1.374 1_455 S
C848 C845 1.499 . S
C848 C849 1.373 . S
C848 C850 1.389 . S
C849 H828 0.950 . S
C849 C848 1.373 . S
C849 C865 1.377 . S
C850 C848 1.389 . S
C850 C851 1.524 . S
C850 C864 1.377 . S
C851 C850 1.524 . S
C851 C852 1.397 . S
C851 C856 1.363 1_545 S
C852 H829 0.950 . S
C852 C851 1.397 . S
C852 C853 1.334 . S
C853 H830 0.950 . S
C853 C852 1.334 . S
C853 C854 1.287 1_545 S
C854 C853 1.287 1_565 S
C854 C855 1.524 . S
C854 H873 0.913 . S
C855 H831 0.950 . S
C855 C854 1.524 . S
C855 C856 1.415 . S
C856 H832 0.950 . S
C856 C851 1.363 1_565 S
C856 C855 1.415 . S
C857 H833 0.951 1_565 S
C857 C858 1.366 . S
C857 C859 1.388 1_565 S
C858 C857 1.366 . S
C858 C862 1.385 . S
C859 H834 0.951 . S
C859 C857 1.388 1_545 S
C859 C860 1.366 1_545 S
C860 C859 1.366 1_565 S
C860 C861 1.414 . S
C860 C863 1.499 1_565 S
C861 H835 0.950 . S
C861 C860 1.414 . S
C861 C862 1.374 . S
C862 H836 0.950 . S
C862 C858 1.385 . S
C862 C861 1.374 . S
C863 C860 1.499 1_545 S
C863 C864 1.373 . S
C863 C865 1.389 . S
C864 H837 0.950 1_545 S
C864 C850 1.377 . S
C864 C863 1.373 . S
C865 C849 1.377 . S
C865 C863 1.389 . S
C865 C866 1.524 . S
C866 C865 1.524 . S
C866 C867 1.397 . S
C866 C871 1.363 . S
C867 H838 0.950 1_655 S
C867 C866 1.397 . S
C867 C868 1.334 1_655 S
C868 H839 0.950 . S
C868 C867 1.334 1_455 S
C868 C869 1.287 . S
C869 C868 1.287 . S
C869 C870 1.524 1_455 S
C869 H872 0.999 1_556 S
C870 H840 0.950 . S
C870 C869 1.524 1_655 S
C870 C871 1.415 . S
C871 H841 0.950 . S
C871 C866 1.363 . S
C871 C870 1.415 . S
H872 C869 0.999 1_554 S
H873 C854 0.913 . S
H874 C892 0.951 . S
H875 C894 0.951 . S
H876 C896 0.950 . S
H877 C897 0.950 . S
H878 C899 0.950 . S
H879 C902 0.950 . S
H880 C903 0.950 . S
H881 C905 0.950 . S
H882 C906 0.950 . S
H883 C907 0.951 . S
H884 C909 0.951 . S
H885 C911 0.950 . S
H886 C912 0.950 . S
H887 C914 0.950 . S
H888 C917 0.950 . S
H889 C918 0.950 . S
H890 C920 0.950 . S
H891 C921 0.950 . S
C892 H874 0.951 . S
C892 C893 1.366 . S
C892 C894 1.388 . S
C893 C892 1.366 . S
C893 C897 1.385 . S
C894 H875 0.951 . S
C894 C892 1.388 . S
C894 C895 1.366 . S
C895 C894 1.366 . S
C895 C896 1.414 . S
C895 C898 1.499 . S
C896 H876 0.950 . S
C896 C895 1.414 . S
C896 C897 1.374 . S
C897 H877 0.950 . S
C897 C893 1.385 . S
C897 C896 1.374 . S
C898 C895 1.499 . S
C898 C899 1.373 . S
C898 C900 1.389 . S
C899 H878 0.950 . S
C899 C898 1.373 . S
C899 C915 1.377 1_554 S
C900 C898 1.389 . S
C900 C901 1.524 . S
C900 C914 1.377 . S
C901 C900 1.524 . S
C901 C902 1.397 . S
C901 C906 1.363 . S
C902 H879 0.950 . S
C902 C901 1.397 . S
C902 C903 1.334 . S
C903 H880 0.950 . S
C903 C902 1.334 . S
C903 C904 1.287 . S
C904 C903 1.287 . S
C904 C905 1.524 . S
C904 H923 0.913 . S
C905 H881 0.950 . S
C905 C904 1.524 . S
C905 C906 1.415 . S
C906 H882 0.950 . S
C906 C901 1.363 . S
C906 C905 1.415 . S
C907 H883 0.951 . S
C907 C908 1.366 . S
C907 C909 1.388 . S
C908 C907 1.366 . S
C908 C912 1.385 . S
C909 H884 0.951 . S
C909 C907 1.388 . S
C909 C910 1.366 . S
C910 C909 1.366 . S
C910 C911 1.414 . S
C910 C913 1.499 . S
C911 H885 0.950 . S
C911 C910 1.414 . S
C911 C912 1.374 . S
C912 H886 0.950 . S
C912 C908 1.385 . S
C912 C911 1.374 . S
C913 C910 1.499 . S
C913 C914 1.373 1_556 S
C913 C915 1.389 . S
C914 H887 0.950 . S
C914 C900 1.377 . S
C914 C913 1.373 1_554 S
C915 C899 1.377 1_556 S
C915 C913 1.389 . S
C915 C916 1.524 . S
C916 C915 1.524 . S
C916 C917 1.397 . S
C916 C921 1.363 . S
C917 H888 0.950 . S
C917 C916 1.397 . S
C917 C918 1.334 . S
C918 H889 0.950 . S
C918 C917 1.334 . S
C918 C919 1.287 . S
C919 C918 1.287 . S
C919 C920 1.524 . S
C919 H922 0.999 . S
C920 H890 0.950 . S
C920 C919 1.524 . S
C920 C921 1.415 . S
C921 H891 0.950 . S
C921 C916 1.363 . S
C921 C920 1.415 . S
H922 C919 0.999 . S
H923 C904 0.913 . S
C143 C1 1.561 . S
C158 C27 1.561 . S
C193 C58 1.576 . S
C208 C32 1.576 . S
C243 C89 1.567 . S
C258 C63 1.567 . S
C293 C120 1.581 1_554 S
C308 C94 1.581 . S
C343 C103 1.499 . S
C358 C18 1.515 . S
C393 C31 1.233 . S
C408 C2 1.188 . S
C443 C62 1.224 . S
C458 C41 1.132 . S
C493 C93 1.891 . S
C508 C72 1.750 . S
C543 C10 2.139 . S
C558 C111 2.160 . S
C593 C33 1.729 . S
C608 C0 1.775 . S
C643 C49 1.437 . S
C658 C64 1.493 . S
C693 C80 2.165 . S
C708 C95 2.240 . S
C743 C73 0.735 . S
C758 C11 0.735 . S
C793 C55 0.602 . S
C808 C104 0.337 . S
C843 C86 0.737 . S
C858 C24 0.719 . S
C893 C42 0.327 . S
C908 C117 0.591 . S
