# Generated by pormake.
# Topology ukh, (4)-cn, num edge types: 1
# Building blocks:
#     Node 0, Type 0, BuildingBlock: QUQFOY_clean_sbu_3, # of connection points: 4
#     Node 1, Type 0, BuildingBlock: QUQFOY_clean_sbu_3, # of connection points: 4
#     Node 2, Type 0, BuildingBlock: QUQFOY_clean_sbu_3, # of connection points: 4
#     Node 3, Type 0, BuildingBlock: QUQFOY_clean_sbu_3, # of connection points: 4
#     Node 4, Type 0, BuildingBlock: QUQFOY_clean_sbu_3, # of connection points: 4
#     Node 5, Type 0, BuildingBlock: QUQFOY_clean_sbu_3, # of connection points: 4
#     Node 6, Type 0, BuildingBlock: QUQFOY_clean_sbu_3, # of connection points: 4
#     Node 7, Type 0, BuildingBlock: QUQFOY_clean_sbu_3, # of connection points: 4
#     Node 8, Type 0, BuildingBlock: QUQFOY_clean_sbu_3, # of connection points: 4
#     Node 9, Type 0, BuildingBlock: QUQFOY_clean_sbu_3, # of connection points: 4
#     Node 10, Type 0, BuildingBlock: QUQFOY_clean_sbu_3, # of connection points: 4
#     Node 11, Type 0, BuildingBlock: QUQFOY_clean_sbu_3, # of connection points: 4
#     Edge 12, Type (0, 0), BuildingBlock: EZIPEK_clean_linker_0, # of connection points: 2
#     Edge 13, Type (0, 0), BuildingBlock: EZIPEK_clean_linker_0, # of connection points: 2
#     Edge 14, Type (0, 0), BuildingBlock: EZIPEK_clean_linker_0, # of connection points: 2
#     Edge 15, Type (0, 0), BuildingBlock: EZIPEK_clean_linker_0, # of connection points: 2
#     Edge 16, Type (0, 0), BuildingBlock: EZIPEK_clean_linker_0, # of connection points: 2
#     Edge 17, Type (0, 0), BuildingBlock: EZIPEK_clean_linker_0, # of connection points: 2
#     Edge 18, Type (0, 0), BuildingBlock: EZIPEK_clean_linker_0, # of connection points: 2
#     Edge 19, Type (0, 0), BuildingBlock: EZIPEK_clean_linker_0, # of connection points: 2
#     Edge 20, Type (0, 0), BuildingBlock: EZIPEK_clean_linker_0, # of connection points: 2
#     Edge 21, Type (0, 0), BuildingBlock: EZIPEK_clean_linker_0, # of connection points: 2
#     Edge 22, Type (0, 0), BuildingBlock: EZIPEK_clean_linker_0, # of connection points: 2
#     Edge 23, Type (0, 0), BuildingBlock: EZIPEK_clean_linker_0, # of connection points: 2
#     Edge 24, Type (0, 0), BuildingBlock: EZIPEK_clean_linker_0, # of connection points: 2
#     Edge 25, Type (0, 0), BuildingBlock: EZIPEK_clean_linker_0, # of connection points: 2
#     Edge 26, Type (0, 0), BuildingBlock: EZIPEK_clean_linker_0, # of connection points: 2
#     Edge 27, Type (0, 0), BuildingBlock: EZIPEK_clean_linker_0, # of connection points: 2
#     Edge 28, Type (0, 0), BuildingBlock: EZIPEK_clean_linker_0, # of connection points: 2
#     Edge 29, Type (0, 0), BuildingBlock: EZIPEK_clean_linker_0, # of connection points: 2
#     Edge 30, Type (0, 0), BuildingBlock: EZIPEK_clean_linker_0, # of connection points: 2
#     Edge 31, Type (0, 0), BuildingBlock: EZIPEK_clean_linker_0, # of connection points: 2
#     Edge 32, Type (0, 0), BuildingBlock: EZIPEK_clean_linker_0, # of connection points: 2
#     Edge 33, Type (0, 0), BuildingBlock: EZIPEK_clean_linker_0, # of connection points: 2
#     Edge 34, Type (0, 0), BuildingBlock: EZIPEK_clean_linker_0, # of connection points: 2
#     Edge 35, Type (0, 0), BuildingBlock: EZIPEK_clean_linker_0, # of connection points: 2
# Relax obj value: 0.081
# Max RMSD: 0.104
# Mean RMSD: 0.099
data_MOF--net-ukh--node1-QUQFOY_clean_sbu_3--edge1-EZIPEK_clean_linker_0
_symmetry_space_group_name_H-M    P1
_symmetry_Int_Tables_number       1
_symmetry_cell_setting            triclinic
loop_
_symmetry_equiv_pos_as_xyz
'x, y, z'
_cell_length_a     24.056134
_cell_length_b     24.54285
_cell_length_c     48.414674
_cell_angle_alpha  89.972459
_cell_angle_beta   89.921293
_cell_angle_gamma 119.16772
loop_
_atom_site_label
_atom_site_type_symbol
_atom_site_fract_x
_atom_site_fract_y
_atom_site_fract_z
_atom_type_partial_charge
C0 C 0.14103 0.15471 0.0383 0.0
O1 O 0.1287 0.12416 0.06074 0.0
Cd2 Cd 0.20677 0.10996 0.08535 0.0
O3 O 0.19805 0.18623 0.02949 0.0
Cd4 Cd 0.30876 0.2193 0.04393 0.0
C5 C 0.2783 0.0737 0.03029 0.0
O6 O 0.29155 0.21112 0.09272 0.0
O7 O 0.37985 0.21628 0.07973 0.0
O8 O 0.32953 0.32506 0.04058 0.0
C9 C 0.34307 0.21256 0.09929 0.0
O10 O 0.24373 0.06009 0.05194 0.0
C11 C 0.37944 0.34468 0.026 0.0
O12 O 0.30523 0.12929 0.02089 0.0
O13 O 0.3959 0.30505 0.01826 0.0
C14 C 0.19407 0.34871 0.32835 0.0
O15 O 0.18596 0.38545 0.31261 0.0
Cd16 Cd 0.08919 0.38912 0.31971 0.0
O17 O 0.15781 0.32343 0.34893 0.0
Cd18 Cd 0.07319 0.32411 0.37593 0.0
C19 C -0.02026 0.23277 0.3264 0.0
O20 O 0.08268 0.42527 0.36516 0.0
O21 O -0.00802 0.35286 0.38119 0.0
O22 O 0.14384 0.35091 0.41482 0.0
C23 C 0.02722 0.40932 0.37429 0.0
O24 O 0.00202 0.28243 0.31193 0.0
C25 C 0.10297 0.31053 0.43101 0.0
O26 O -0.00026 0.23298 0.3507 0.0
O27 O 0.04776 0.2751 0.42137 0.0
C28 C 0.86632 0.20828 0.67068 0.0
O29 O 0.82692 0.19449 0.65107 0.0
Cd30 Cd 0.7214 0.10769 0.65781 0.0
O31 O 0.84877 0.18107 0.69385 0.0
Cd32 Cd 0.75513 0.10634 0.71833 0.0
C33 C 0.75322 -0.00694 0.68046 0.0
O34 O 0.66505 0.11278 0.69806 0.0
O35 O 0.64702 0.02877 0.72052 0.0
O36 O 0.77644 0.17827 0.7562 0.0
C37 C 0.62543 0.06032 0.70848 0.0
O38 O 0.73167 0.01364 0.66149 0.0
C39 C 0.78149 0.14294 0.77398 0.0
O40 O 0.77074 0.02065 0.70361 0.0
O41 O 0.77469 0.09088 0.76582 0.0
C42 C 0.76609 0.80945 0.01295 0.0
O43 O 0.78727 0.84954 0.03223 0.0
Cd44 Cd 0.72149 0.86399 0.06527 0.0
O45 O 0.70683 0.7713 0.01062 0.0
Cd46 Cd 0.60622 0.74112 0.03546 0.0
C47 C 0.61723 0.8801 0.02058 0.0
O48 O 0.64933 0.76292 0.08148 0.0
O49 O 0.55294 0.74645 0.07782 0.0
O50 O 0.59012 0.63673 0.03236 0.0
C51 C 0.60008 0.75807 0.09317 0.0
O52 O 0.66191 0.90179 0.03836 0.0
C53 C 0.53352 0.61214 0.02342 0.0
O54 O 0.59096 0.82285 0.01354 0.0
O55 O 0.51051 0.64815 0.01862 0.0
C56 C 0.7671 0.63338 0.32699 0.0
O57 O 0.77941 0.59791 0.31224 0.0
Cd58 Cd 0.87398 0.59257 0.32292 0.0
O59 O 0.79816 0.65798 0.34889 0.0
Cd60 Cd 0.87719 0.6604 0.38053 0.0
C61 C -0.02056 0.75068 0.33224 0.0
O62 O 0.87133 0.5616 0.37 0.0
O63 O 0.95544 0.62999 0.39184 0.0
O64 O 0.7982 0.63213 0.41631 0.0
C65 C 0.9238 0.57575 0.38179 0.0
O66 O 0.96002 0.70112 0.31791 0.0
C67 C 0.83546 0.67275 0.43338 0.0
O68 O 0.9554 0.75041 0.3557 0.0
O69 O 0.89194 0.70968 0.42538 0.0
C70 C 0.12799 0.7674 0.66022 0.0
O71 O 0.17357 0.78069 0.6436 0.0
Cd72 Cd 0.27286 0.87352 0.65316 0.0
O73 O 0.13731 0.79616 0.68292 0.0
Cd74 Cd 0.22081 0.87084 0.71213 0.0
C75 C 0.22016 0.97723 0.67045 0.0
O76 O 0.32117 0.87847 0.69702 0.0
O77 O 0.32326 0.95766 0.71847 0.0
O78 O 0.19801 0.79645 0.74913 0.0
C79 C 0.35319 0.93246 0.70777 0.0
O80 O 0.24955 0.95994 0.65375 0.0
C81 C 0.18379 0.82658 0.76643 0.0
O82 O 0.19873 0.9497 0.69345 0.0
O83 O 0.18626 0.87701 0.75839 0.0
C84 C 0.86002 0.65805 0.64467 0.0
O85 O 0.82354 0.63121 0.66501 0.0
Cd86 Cd 0.71503 0.61156 0.66284 0.0
O87 O 0.83918 0.67205 0.62333 0.0
Cd88 Cd 0.74325 0.66589 0.60492 0.0
C89 C 0.74333 0.76044 0.65391 0.0
O90 O 0.66238 0.56232 0.62011 0.0
O91 O 0.63121 0.62717 0.60588 0.0
O92 O 0.7785 0.63871 0.56342 0.0
C93 C 0.61738 0.57211 0.61259 0.0
O94 O 0.72005 0.71263 0.66952 0.0
C95 C 0.76938 0.67486 0.54766 0.0
O96 O 0.76149 0.75858 0.62945 0.0
O97 O 0.74814 0.70811 0.55862 0.0
C98 C 0.95629 0.8044 0.94168 0.0
O99 O -0.0247 0.83718 0.91988 0.0
Cd100 Cd 0.0721 0.85548 0.8987 0.0
O101 O -0.01856 0.77176 0.94959 0.0
Cd102 Cd 0.05806 0.73816 0.93324 0.0
C103 C 0.16529 0.877 0.95712 0.0
O104 O 0.05381 0.75531 0.88468 0.0
O105 O 0.13523 0.74711 0.89784 0.0
O106 O 0.97315 0.6316 0.93428 0.0
C107 C 0.10348 0.75284 0.87827 0.0
O108 O 0.14815 0.89884 0.93697 0.0
C109 C 0.00282 0.61094 0.94871 0.0
O110 O 0.14171 0.81848 0.96048 0.0
O111 O 0.05831 0.64995 0.95699 0.0
C112 C 0.31203 0.19865 0.312 0.0
O113 O 0.33062 0.18053 0.33279 0.0
Cd114 Cd 0.34829 0.09207 0.32745 0.0
O115 O 0.30581 0.17279 0.28874 0.0
Cd116 Cd 0.3174 0.09165 0.26648 0.0
C117 C 0.20177 0.98194 0.30444 0.0
O118 O 0.41099 0.09488 0.28792 0.0
O119 O 0.345 0.01153 0.26521 0.0
O120 O 0.37528 0.16469 0.22996 0.0
C121 C 0.39789 0.04242 0.27739 0.0
O122 O 0.24389 2e-05 0.32329 0.0
C123 C 0.33568 0.13351 0.21124 0.0
O124 O 0.21278 0.01037 0.2814 0.0
O125 O 0.2877 0.08203 0.21807 0.0
C126 C 0.13383 0.33222 0.64991 0.0
O127 O 0.17901 0.36155 0.66677 0.0
Cd128 Cd 0.27878 0.36505 0.65796 0.0
O129 O 0.14257 0.31044 0.62755 0.0
Cd130 Cd 0.22285 0.3081 0.59791 0.0
C131 C 0.22619 0.20852 0.64346 0.0
O132 O 0.3136 0.40461 0.61245 0.0
O133 O 0.33315 0.33948 0.58969 0.0
O134 O 0.17706 0.34098 0.56166 0.0
C135 C 0.35373 0.39205 0.60124 0.0
O136 O 0.2551 0.25561 0.65932 0.0
C137 C 0.17687 0.30307 0.54379 0.0
O138 O 0.20533 0.21303 0.61994 0.0
O139 O 0.19691 0.26613 0.55133 0.0
C140 C 0.94271 0.14958 0.96935 0.0
O141 O 0.92365 0.10968 0.94998 0.0
Cd142 Cd 0.84511 0.09695 0.91645 0.0
O143 O 0.92174 0.18799 0.97189 0.0
Cd144 Cd 0.85016 0.21658 0.94682 0.0
C145 C 0.72067 0.07754 0.95904 0.0
O146 O 0.87455 0.19854 0.90034 0.0
O147 O 0.79197 0.21104 0.90492 0.0
O148 O 0.93356 0.32324 0.94854 0.0
C149 C 0.8299 0.20382 0.88913 0.0
O150 O 0.74485 0.05677 0.9413 0.0
C151 C 0.89949 0.34507 0.9582 0.0
O152 O 0.75176 0.13398 0.96717 0.0
O153 O 0.84206 0.30651 0.96434 0.0
C154 C 0.65216 0.78364 0.30622 0.0
O155 O 0.63331 0.80173 0.32696 0.0
Cd156 Cd 0.61573 0.89001 0.32212 0.0
O157 O 0.65865 0.80936 0.28288 0.0
Cd158 Cd 0.64624 0.8896 0.25999 0.0
C159 C 0.76149 0.00022 0.29765 0.0
O160 O 0.55322 0.88568 0.28258 0.0
O161 O 0.6154 0.96771 0.25815 0.0
O162 O 0.59061 0.81394 0.2242 0.0
C163 C 0.56463 0.9376 0.27197 0.0
O164 O 0.71975 0.98208 0.31673 0.0
C165 C 0.62842 0.84621 0.20507 0.0
O166 O 0.75041 0.97161 0.27468 0.0
O167 O 0.67452 0.89937 0.21132 0.0
C168 C 0.4673 0.51098 -0.00191 0.0
C169 C 0.49364 0.54356 0.0231 0.0
C170 C 0.45472 0.44483 0.04792 0.0
C171 C 0.42282 0.41236 0.0237 0.0
N172 N 0.39289 0.4129 0.97633 0.0
N173 N 0.50114 0.54228 0.07287 0.0
C174 C 0.42758 0.44492 -0.00115 0.0
C175 C 0.48443 0.51071 0.04831 0.0
N176 N 0.48185 0.54291 0.97365 0.0
N177 N 0.45766 0.41263 0.07045 0.0
H178 H 0.52109 0.59062 0.07432 0.0
H179 H 0.48924 0.52018 0.09204 0.0
H180 H 0.43665 0.36408 0.07098 0.0
H181 H 0.48608 0.43418 0.08759 0.0
H182 H 0.46949 0.5213 0.95443 0.0
H183 H 0.51044 0.59125 0.97249 0.0
H184 H 0.38875 0.43443 0.95852 0.0
H185 H 0.36495 0.3644 0.97613 0.0
C186 C -0.00243 0.48359 0.35231 0.0
C187 C 0.00338 0.45404 0.37642 0.0
C188 C 0.95282 0.50141 0.40395 0.0
C189 C 0.95195 0.53466 0.38021 0.0
N190 N -0.01147 0.57029 0.33384 0.0
N191 N -0.002 0.44339 0.42609 0.0
C192 C -0.02117 0.52966 0.35496 0.0
C193 C -0.0158 0.4653 0.40257 0.0
N194 N 0.00664 0.4655 0.32679 0.0
N195 N 0.92255 0.50332 0.42756 0.0
H196 H 0.02205 0.41768 0.42592 0.0
H197 H -0.00912 0.45541 0.44589 0.0
H198 H 0.90006 0.53032 0.42941 0.0
H199 H 0.91561 0.47468 0.44457 0.0
H200 H -0.00334 0.48132 0.30848 0.0
H201 H 0.01752 0.42973 0.32389 0.0
H202 H 0.0137 0.57251 0.31596 0.0
H203 H -0.02244 0.6063 0.3355 0.0
C204 C 0.45609 -0.01073 0.68216 0.0
C205 C 0.42298 0.96658 0.70746 0.0
C206 C 0.5227 0.02146 0.73292 0.0
C207 C 0.55633 0.03581 0.70755 0.0
N208 N 0.5559 0.02658 0.65786 0.0
N209 N 0.42429 0.95459 0.75691 0.0
C210 C 0.5234 0.01828 0.68205 0.0
C211 C 0.45611 0.98109 0.7329 0.0
N212 N 0.42356 0.98546 0.65849 0.0
N213 N 0.55443 0.04766 0.75691 0.0
H214 H 0.37537 0.924 0.75768 0.0
H215 H 0.44709 0.95847 0.77566 0.0
H216 H 0.60321 0.079 0.75742 0.0
H217 H 0.53165 0.04351 0.77573 0.0
H218 H 0.44588 0.00698 0.64006 0.0
H219 H 0.37428 0.96632 0.65799 0.0
H220 H 0.53352 0.00791 0.6391 0.0
H221 H 0.60532 0.0479 0.65684 0.0
C222 C 0.52257 0.51152 0.583 0.0
C223 C 0.55181 0.52112 0.60932 0.0
C224 C 0.4535 0.43752 0.62884 0.0
C225 C 0.42224 0.43457 0.60365 0.0
N226 N 0.42415 0.47117 0.55725 0.0
N227 N 0.54418 0.49878 0.6582 0.0
C228 C 0.456 0.47203 0.58078 0.0
C229 C 0.51728 0.48527 0.63251 0.0
N230 N 0.55886 0.53862 0.56004 0.0
N231 N 0.42274 0.39376 0.64892 0.0
H232 H 0.59079 0.5337 0.6618 0.0
H233 H 0.51873 0.4788 0.67625 0.0
H234 H 0.37622 0.35747 0.64664 0.0
H235 H 0.44518 0.38981 0.66658 0.0
H236 H 0.54122 0.5283 0.53998 0.0
H237 H 0.60814 0.56703 0.5608 0.0
H238 H 0.44507 0.50278 0.5411 0.0
H239 H 0.37538 0.4417 0.55465 0.0
C240 C 0.93393 0.44081 0.93021 0.0
C241 C 0.92254 0.41273 0.95671 0.0
C242 C 0.96007 0.51479 0.97854 0.0
C243 C -0.02295 0.54312 0.95205 0.0
N244 N -0.00736 0.53478 0.90326 0.0
N245 N 0.93002 0.42185 0.00624 0.0
C246 C 0.9674 0.50659 0.92803 0.0
C247 C 0.93687 0.44934 0.981 0.0
N248 N 0.91091 0.40452 0.9071 0.0
N249 N 0.96431 0.55007 0.00109 0.0
H250 H 0.91192 0.37388 0.00864 0.0
H251 H 0.94599 0.44676 0.0246 0.0
H252 H -0.01836 0.59812 -4e-05 0.0
H253 H 0.94658 0.5313 0.0205 0.0
H254 H 0.91194 0.42263 0.88753 0.0
H255 H 0.885 0.3559 0.90778 0.0
H256 H -0.00696 0.51034 0.88574 0.0
H257 H 0.01897 0.58307 0.90079 0.0
C258 C 0.46357 0.00343 0.30161 0.0
C259 C 0.44399 0.01958 0.27678 0.0
C260 C 0.49497 0.97262 0.24954 0.0
C261 C 0.51977 0.96181 0.27418 0.0
N262 N 0.5381 0.97728 0.32329 0.0
N263 N 0.45259 0.03262 0.22725 0.0
C264 C 0.50694 0.97994 0.30019 0.0
C265 C 0.46307 0.00798 0.25074 0.0
N266 N 0.43903 0.00827 0.32639 0.0
N267 N 0.50011 0.94736 0.22513 0.0
H268 H 0.43119 0.06077 0.22746 0.0
H269 H 0.47098 0.03066 0.20802 0.0
H270 H 0.52179 0.91959 0.22355 0.0
H271 H 0.47733 0.94863 0.20705 0.0
H272 H 0.4462 -0.00944 0.34478 0.0
H273 H 0.40728 0.02554 0.32826 0.0
H274 H 0.5357 -0.00376 0.34221 0.0
H275 H 0.57082 0.96104 0.32301 0.0
C276 C 0.34982 0.12068 0.16104 0.0
C277 C 0.34455 0.15681 0.18265 0.0
C278 C 0.35596 0.23672 0.1494 0.0
C279 C 0.35172 0.1964 0.12764 0.0
N280 N 0.33691 0.09635 0.11233 0.0
N281 N 0.33482 0.2458 0.19755 0.0
C282 C 0.34723 0.13758 0.13326 0.0
C283 C 0.3462 0.21433 0.17696 0.0
N284 N 0.35883 0.07109 0.16707 0.0
N285 N 0.37002 0.29666 0.14366 0.0
H286 H 0.32612 0.23048 0.21799 0.0
H287 H 0.32844 0.28423 0.19399 0.0
H288 H 0.37774 0.31447 0.12358 0.0
H289 H 0.38002 0.33027 0.15881 0.0
H290 H 0.36983 0.04716 0.15219 0.0
H291 H 0.36132 0.05749 0.18724 0.0
H292 H 0.3253 0.05007 0.11566 0.0
H293 H 0.33507 0.10662 0.09159 0.0
C294 C 0.152 0.36335 0.47551 0.0
C295 C 0.11889 0.30727 0.46022 0.0
C296 C 0.11499 0.24753 0.50133 0.0
C297 C 0.15665 0.30402 0.51506 0.0
N298 N 0.22796 0.41542 0.51184 0.0
N299 N 0.0802 0.19609 0.4572 0.0
C300 C 0.17893 0.36198 0.50124 0.0
C301 C 0.10332 0.24919 0.47271 0.0
N302 N 0.15577 0.41758 0.46611 0.0
N303 N 0.08458 0.19271 0.51569 0.0
H304 H 0.07351 0.19547 0.43591 0.0
H305 H 0.0741 0.15395 0.46501 0.0
H306 H 0.08942 0.18979 0.53695 0.0
H307 H 0.04922 0.15149 0.507 0.0
H308 H 0.17472 0.45823 0.4779 0.0
H309 H 0.13327 0.42007 0.44813 0.0
H310 H 0.24922 0.45754 0.50103 0.0
H311 H 0.25246 0.41628 0.52972 0.0
C312 C 0.85075 0.21308 0.81147 0.0
C313 C 0.79278 0.16064 0.80326 0.0
C314 C 0.76007 0.13534 0.85145 0.0
C315 C 0.81592 0.19021 0.8596 0.0
N316 N 0.9092 0.28709 0.84772 0.0
N317 N 0.68663 0.07939 0.81451 0.0
C318 C 0.85982 0.23086 0.83969 0.0
C319 C 0.74573 0.12392 0.82299 0.0
N320 N 0.89812 0.24416 0.79253 0.0
N321 N 0.72229 0.0926 0.87079 0.0
H322 H 0.67412 0.06971 0.79376 0.0
H323 H 0.64826 0.05604 0.82793 0.0
H324 H 0.73127 0.09876 0.89192 0.0
H325 H 0.6852 0.04852 0.8658 0.0
H326 H 0.94395 0.27833 0.79782 0.0
H327 H 0.89336 0.23239 0.77164 0.0
H328 H 0.93878 0.32164 0.83389 0.0
H329 H 0.91741 0.30148 0.8683 0.0
C330 C 0.60175 0.83459 0.12776 0.0
C331 C 0.60296 0.77846 0.12198 0.0
C332 C 0.62476 0.76888 0.17055 0.0
C333 C 0.61899 0.82249 0.17659 0.0
N334 N 0.58985 0.89939 0.16236 0.0
N335 N 0.60465 0.68628 0.13798 0.0
C336 C 0.60397 0.85339 0.1556 0.0
C337 C 0.61126 0.74382 0.14344 0.0
N338 N 0.60157 0.87155 0.10667 0.0
N339 N 0.64572 0.74356 0.19041 0.0
H340 H 0.59473 0.66651 0.11829 0.0
H341 H 0.60346 0.65586 0.15326 0.0
H342 H 0.6565 0.76085 0.21051 0.0
H343 H 0.65756 0.70878 0.18644 0.0
H344 H 0.60846 0.91646 0.10961 0.0
H345 H 0.59992 0.85971 0.08592 0.0
H346 H 0.57154 0.91868 0.14831 0.0
H347 H 0.59099 0.91454 0.18258 0.0
C348 C 0.81778 0.73278 0.50328 0.0
C349 C 0.78119 0.6757 0.51767 0.0
C350 C 0.78434 0.61755 0.4774 0.0
C351 C 0.81509 0.67392 0.46205 0.0
N352 N 0.84686 0.78347 0.45863 0.0
N353 N 0.7136 0.56376 0.5153 0.0
C354 C 0.82752 0.73114 0.47443 0.0
C355 C 0.75936 0.61805 0.50374 0.0
N356 N 0.84624 0.78823 0.51718 0.0
N357 N 0.78222 0.5642 0.46775 0.0
H358 H 0.69183 0.56226 0.53413 0.0
H359 H 0.69221 0.52147 0.50469 0.0
H360 H 0.80379 0.56216 0.44939 0.0
H361 H 0.76553 0.52377 0.47962 0.0
H362 H 0.87864 0.83019 0.5079 0.0
H363 H 0.84271 0.79173 0.53848 0.0
H364 H 0.8507 0.82482 0.46632 0.0
H365 H 0.85246 0.78362 0.43726 0.0
C366 C 0.18253 0.82752 0.84451 0.0
C367 C 0.12898 0.76843 0.85004 0.0
C368 C 0.11124 0.74689 0.80058 0.0
C369 C 0.16654 0.80473 0.7951 0.0
N370 N 0.26316 0.89306 0.81144 0.0
N371 N 0.05004 0.66669 0.83436 0.0
C372 C 0.20478 0.84297 0.81696 0.0
C373 C 0.09574 0.72641 0.82835 0.0
N374 N 0.21018 0.87009 0.86529 0.0
N375 N 0.07181 0.71314 0.77945 0.0
H376 H 0.03757 0.65035 0.85457 0.0
H377 H 0.02862 0.63188 0.81952 0.0
H378 H 0.08111 0.7268 0.7588 0.0
H379 H 0.02727 0.67421 0.78249 0.0
H380 H 0.24442 0.9164 0.86185 0.0
H381 H 0.19546 0.86082 0.88583 0.0
H382 H 0.29594 0.91871 0.82674 0.0
H383 H 0.28145 0.90545 0.79148 0.0
C384 C 0.26506 0.97658 0.96768 0.0
C385 C 0.21113 0.92134 0.97742 0.0
C386 C 0.24009 0.96015 0.02444 0.0
C387 C 0.27668 0.02115 0.0139 0.0
N388 N 0.34463 0.08428 0.97691 0.0
N389 N 0.14652 0.86163 0.01669 0.0
C390 C 0.2963 0.02851 0.98588 0.0
C391 C 0.19928 0.9123 0.00634 0.0
N392 N 0.28673 0.97833 0.94141 0.0
N393 N 0.24394 0.94853 0.05172 0.0
H394 H 0.11169 0.82667 0.00464 0.0
H395 H 0.13406 0.85761 0.03753 0.0
H396 H 0.27655 0.98309 0.06485 0.0
H397 H 0.22107 0.90368 0.0601 0.0
H398 H 0.32782 0.01555 0.93335 0.0
H399 H 0.26637 0.93963 0.92835 0.0
H400 H 0.35561 0.09585 0.95619 0.0
H401 H 0.37522 0.11848 -0.00936 0.0
C402 C 0.201 0.2651 0.30384 0.0
C403 C 0.23271 0.32086 0.3192 0.0
C404 C 0.32235 0.30181 0.32684 0.0
C405 C 0.28579 0.2415 0.31519 0.0
N406 N 0.18335 0.16041 0.29897 0.0
N407 N 0.32134 0.39205 0.34695 0.0
C408 C 0.22335 0.22177 0.30518 0.0
C409 C 0.29306 0.33945 0.33111 0.0
N410 N 0.1484 0.25273 0.28854 0.0
N411 N 0.38499 0.32353 0.33311 0.0
H412 H 0.30204 0.42178 0.34922 0.0
H413 H 0.36192 0.40444 0.35876 0.0
H414 H 0.40784 0.29723 0.32997 0.0
H415 H 0.41546 0.36923 0.3393 0.0
H416 H 0.12715 0.21526 0.2749 0.0
H417 H 0.12978 0.28317 0.28741 0.0
H418 H 0.13536 0.14284 0.29428 0.0
H419 H 0.19562 0.12551 0.30176 0.0
C420 C 0.96619 0.30751 0.65811 0.0
C421 C 0.93511 0.24327 0.66514 0.0
C422 C 0.03715 0.24565 0.66937 0.0
C423 C 0.06787 0.30735 0.65911 0.0
N424 N 0.06338 0.39681 0.64147 0.0
N425 N 0.93986 0.14759 0.66999 0.0
C426 C 0.03296 0.33854 0.65289 0.0
C427 C 0.97028 0.21133 0.66882 0.0
N428 N 0.93233 0.33879 0.65704 0.0
N429 N 0.07196 0.2196 0.67946 0.0
H430 H 0.89071 0.12009 0.6678 0.0
H431 H 0.96394 0.12196 0.66977 0.0
H432 H 0.12161 0.24333 0.68002 0.0
H433 H 0.05143 0.17681 0.68971 0.0
H434 H 0.95328 0.38694 0.65457 0.0
H435 H 0.88329 0.31682 0.66045 0.0
H436 H 0.03969 0.4195 0.63374 0.0
H437 H 0.11261 0.42122 0.63853 0.0
C438 C 0.59136 0.91884 0.9769 0.0
C439 C 0.60421 0.92575 0.00556 0.0
C440 C 0.64934 0.03861 0.00093 0.0
C441 C 0.66013 0.03161 0.97276 0.0
N442 N 0.61767 0.96969 0.93185 0.0
N443 N 0.61834 -0.01198 0.0459 0.0
C444 C 0.62217 0.9729 0.95996 0.0
C445 C 0.6233 0.98459 0.01796 0.0
N446 N 0.54996 0.8617 0.96635 0.0
N447 N 0.66293 0.09574 0.01089 0.0
H448 H 0.59474 0.94773 0.05794 0.0
H449 H 0.63701 0.02957 0.05694 0.0
H450 H 0.67538 0.13372 -0.00221 0.0
H451 H 0.65497 0.10389 0.03121 0.0
H452 H 0.53778 0.85337 0.94558 0.0
H453 H 0.52232 0.82373 0.97913 0.0
H454 H 0.59598 0.92825 0.9207 0.0
H455 H 0.63593 0.01003 0.91976 0.0
C456 C 0.63929 0.67967 0.32098 0.0
C457 C 0.67738 0.7401 0.30963 0.0
C458 C 0.76278 0.71598 0.30041 0.0
C459 C 0.72931 0.66029 0.31577 0.0
N460 N 0.63741 0.58882 0.34194 0.0
N461 N 0.78111 0.82071 0.29423 0.0
C462 C 0.66769 0.64169 0.3263 0.0
C463 C 0.74051 0.75949 0.30057 0.0
N464 N 0.57612 0.65828 0.32606 0.0
N465 N 0.81706 0.72823 0.28641 0.0
H466 H 0.76869 0.85572 0.29601 0.0
H467 H 0.82947 0.83818 0.29037 0.0
H468 H 0.83562 0.6977 0.28624 0.0
H469 H 0.83999 0.76564 0.2728 0.0
H470 H 0.54476 0.61257 0.332 0.0
H471 H 0.55392 0.68488 0.32213 0.0
H472 H 0.5956 0.57638 0.35288 0.0
H473 H 0.65613 0.55878 0.34489 0.0
C474 C 0.02195 0.67029 0.65783 0.0
C475 C 0.06201 0.73349 0.65047 0.0
C476 C 0.97017 0.74721 0.64145 0.0
C477 C 0.92936 0.68282 0.64696 0.0
N478 N 0.91624 0.58019 0.65526 0.0
N479 N 0.07552 0.82738 0.62846 0.0
C480 C 0.95513 0.64327 0.65365 0.0
C481 C 0.03636 0.77004 0.63972 0.0
N482 N 0.04769 0.63691 0.66943 0.0
N483 N 0.94641 0.78771 0.63997 0.0
H484 H 0.1248 0.84628 0.62721 0.0
H485 H 0.05854 0.85334 0.61794 0.0
H486 H 0.89855 0.77425 0.643 0.0
H487 H -0.02481 0.83599 0.63896 0.0
H488 H 0.0205 0.59284 0.67814 0.0
H489 H 0.09677 0.65502 0.67146 0.0
H490 H 0.93313 0.54863 0.65757 0.0
H491 H 0.86725 0.55897 0.65196 0.0
C492 C 0.04972 0.20875 -0.00783 0.0
C493 C -0.00848 0.1524 0.98872 0.0
C494 C 0.03273 0.09664 0.01635 0.0
C495 C 0.08849 0.15401 0.02207 0.0
N496 N 0.14123 0.26682 0.02145 0.0
N497 N 0.92133 0.04733 0.00425 0.0
C498 C 0.09445 0.21083 0.01178 0.0
C499 C -0.01897 0.09768 0.00288 0.0
N500 N 0.06384 0.25949 0.97596 0.0
N501 N 0.03006 0.04094 0.02226 0.0
H502 H 0.88179 0.04693 -0.0048 0.0
H503 H 0.9102 0.00891 0.01687 0.0
H504 H 0.06824 0.03745 0.03046 0.0
H505 H -0.0077 -0.00187 0.01618 0.0
H506 H 0.1085 0.29933 0.97582 0.0
H507 H 0.03342 0.25969 0.96069 0.0
H508 H 0.14376 0.30927 0.0164 0.0
H509 H 0.17303 0.27053 0.0369 0.0
C510 C 0.87911 0.06276 0.30622 0.0
C511 C 0.82002 0.06049 0.30112 0.0
C512 C 0.86641 0.17169 0.31139 0.0
C513 C 0.92613 0.17466 0.31576 0.0
N514 N -0.0068 0.12725 0.31241 0.0
N515 N 0.76059 0.11421 0.292 0.0
C516 C 0.9337 0.12138 0.31164 0.0
C517 C 0.81477 0.11553 0.30151 0.0
N518 N 0.88239 0.00873 0.30694 0.0
N519 N 0.85787 0.22122 0.31823 0.0
H520 H 0.72167 0.07376 0.28452 0.0
H521 H 0.75651 0.15415 0.28904 0.0
H522 H 0.89412 0.26324 0.32591 0.0
H523 H 0.81349 0.21893 0.31859 0.0
H524 H 0.92221 0.00623 0.31361 0.0
H525 H 0.84356 0.96534 0.30239 0.0
H526 H 0.00287 0.09172 0.3069 0.0
H527 H 0.03404 0.16955 0.31646 0.0
C528 C 0.68911 0.82339 0.66172 0.0
C529 C 0.745 0.81802 0.66349 0.0
C530 C 0.80698 0.9272 0.67769 0.0
C531 C 0.75065 0.93222 0.6765 0.0
N532 N 0.63582 0.88136 0.67494 0.0
N533 N 0.85351 0.85889 0.67839 0.0
C534 C 0.69095 0.87916 0.67072 0.0
C535 C 0.80294 0.8682 0.67311 0.0
N536 N 0.63477 0.77593 0.65064 0.0
N537 N 0.86449 0.97909 0.68216 0.0
H538 H 0.85159 0.81592 0.67541 0.0
H539 H 0.89523 0.89174 0.68793 0.0
H540 H 0.86908 0.02255 0.68661 0.0
H541 H 0.908 0.98006 0.67984 0.0
H542 H 0.59495 0.78021 0.6457 0.0
H543 H 0.63091 0.73349 0.64449 0.0
H544 H 0.59074 0.84234 0.67378 0.0
H545 H 0.63501 0.92085 0.68239 0.0
C546 C 0.855 0.86145 0.97894 0.0
C547 C 0.81138 0.80663 -0.00688 0.0
C548 C 0.85455 0.74808 0.96879 0.0
C549 C 0.90509 0.80496 0.95852 0.0
N550 N 0.96023 0.91814 0.95937 0.0
N551 N 0.77668 0.69904 0.0051 0.0
C552 C 0.90719 0.86243 0.96497 0.0
C553 C 0.81283 0.75008 0.989 0.0
N554 N 0.84564 0.912 0.97801 0.0
N555 N 0.84473 0.69218 0.95857 0.0
H556 H 0.74682 0.69882 0.02077 0.0
H557 H 0.7812 0.65891 0.00469 0.0
H558 H 0.87207 0.68864 0.94267 0.0
H559 H 0.80503 0.64978 0.96366 0.0
H560 H 0.87236 0.95031 0.96526 0.0
H561 H 0.80698 0.91264 0.98749 0.0
H562 H 0.96533 0.96081 0.96591 0.0
H563 H 0.00187 0.92166 0.9511 0.0
C564 C 0.09479 0.81153 0.32024 0.0
C565 C 0.03471 0.80881 0.32255 0.0
C566 C 0.08332 0.92027 0.31168 0.0
C567 C 0.14276 0.92208 0.30827 0.0
N568 N 0.20222 0.86719 0.30231 0.0
N569 N 0.96856 0.8563 0.31558 0.0
C570 C 0.14755 0.86691 0.31036 0.0
C571 C 0.02795 0.86198 0.31678 0.0
N572 N 0.10241 0.76251 0.32894 0.0
N573 N 0.08029 0.97443 0.31112 0.0
H574 H 0.92709 0.81421 0.31925 0.0
H575 H 0.95989 0.89171 0.30877 0.0
H576 H 0.11978 0.01763 0.30693 0.0
H577 H 0.03987 0.97724 0.31654 0.0
H578 H 0.14666 0.76484 0.33069 0.0
H579 H 0.06535 0.72124 0.33687 0.0
H580 H 0.20608 0.82685 0.30061 0.0
H581 H 0.24187 0.90689 0.29467 0.0
C582 C 0.27921 0.09211 0.66374 0.0
C583 C 0.22002 0.03612 0.6648 0.0
C584 C 0.16373 0.09448 0.65509 0.0
C585 C 0.22337 0.14912 0.65116 0.0
N586 N 0.33767 0.19745 0.64622 0.0
N587 N 0.10612 0.98146 0.65886 0.0
C588 C 0.28112 0.14736 0.65404 0.0
C589 C 0.16213 0.03652 0.65988 0.0
N590 N 0.33347 0.09302 0.67287 0.0
N591 N 0.10896 0.0984 0.65497 0.0
H592 H 0.10333 0.93833 0.66261 0.0
H593 H 0.06322 0.97794 0.65242 0.0
H594 H 0.10848 0.14002 0.65124 0.0
H595 H 0.06466 0.06172 0.6606 0.0
H596 H 0.37658 0.13397 0.67539 0.0
H597 H 0.33423 0.05368 0.68057 0.0
H598 H 0.38017 0.19601 0.64498 0.0
H599 H 0.34136 0.23863 0.63833 0.0
loop_
_geom_bond_atom_site_label_1
_geom_bond_atom_site_label_2
_geom_bond_distance
_geom_bond_site_symmetry_2
_ccdc_geom_bond_type
C0 O1 1.306 . S
C0 O3 1.160 . S
O1 C0 1.306 . S
O1 Cd2 2.228 . S
Cd2 O1 2.228 . S
Cd2 O6 2.273 . S
Cd2 O10 2.277 . S
O3 C0 1.160 . S
O3 Cd4 2.203 . S
Cd4 O3 2.203 . S
Cd4 O6 2.411 . S
Cd4 O7 2.333 . S
Cd4 O8 2.352 . S
Cd4 O12 2.277 . S
Cd4 O13 2.356 . S
C5 O10 1.209 . S
C5 O12 1.226 . S
O6 Cd2 2.273 . S
O6 Cd4 2.411 . S
O6 C9 1.320 . S
O7 Cd4 2.333 . S
O7 C9 1.214 . S
O8 Cd4 2.352 . S
O8 C11 1.258 . S
C9 O6 1.320 . S
C9 O7 1.214 . S
O10 Cd2 2.277 . S
O10 C5 1.209 . S
C11 O8 1.258 . S
C11 O13 1.282 . S
O12 Cd4 2.277 . S
O12 C5 1.226 . S
O13 Cd4 2.356 . S
O13 C11 1.282 . S
C14 O15 1.306 . S
C14 O17 1.160 . S
O15 C14 1.306 . S
O15 Cd16 2.228 . S
Cd16 O15 2.228 . S
Cd16 O20 2.273 . S
Cd16 O24 2.277 . S
O17 C14 1.160 . S
O17 Cd18 2.203 . S
Cd18 O17 2.203 . S
Cd18 O20 2.411 . S
Cd18 O21 2.333 . S
Cd18 O22 2.352 . S
Cd18 O26 2.277 1_455 S
Cd18 O27 2.356 . S
C19 O24 1.209 1_655 S
C19 O26 1.226 . S
O20 Cd16 2.273 . S
O20 Cd18 2.411 . S
O20 C23 1.320 . S
O21 Cd18 2.333 . S
O21 C23 1.214 . S
O22 Cd18 2.352 . S
O22 C25 1.258 . S
C23 O20 1.320 . S
C23 O21 1.214 . S
O24 Cd16 2.277 . S
O24 C19 1.209 1_455 S
C25 O22 1.258 . S
C25 O27 1.282 . S
O26 Cd18 2.277 1_655 S
O26 C19 1.226 . S
O27 Cd18 2.356 . S
O27 C25 1.282 . S
C28 O29 1.306 . S
C28 O31 1.160 . S
O29 C28 1.306 . S
O29 Cd30 2.228 . S
Cd30 O29 2.228 . S
Cd30 O34 2.273 . S
Cd30 O38 2.277 . S
O31 C28 1.160 . S
O31 Cd32 2.203 . S
Cd32 O31 2.203 . S
Cd32 O34 2.411 . S
Cd32 O35 2.333 . S
Cd32 O36 2.352 . S
Cd32 O40 2.277 1_545 S
Cd32 O41 2.356 . S
C33 O38 1.209 1_565 S
C33 O40 1.226 . S
O34 Cd30 2.273 . S
O34 Cd32 2.411 . S
O34 C37 1.320 . S
O35 Cd32 2.333 . S
O35 C37 1.214 . S
O36 Cd32 2.352 . S
O36 C39 1.258 . S
C37 O34 1.320 . S
C37 O35 1.214 . S
O38 Cd30 2.277 . S
O38 C33 1.209 1_545 S
C39 O36 1.258 . S
C39 O41 1.282 . S
O40 Cd32 2.277 1_565 S
O40 C33 1.226 . S
O41 Cd32 2.356 . S
O41 C39 1.282 . S
C42 O43 1.306 . S
C42 O45 1.160 . S
O43 C42 1.306 . S
O43 Cd44 2.228 . S
Cd44 O43 2.228 . S
Cd44 O48 2.273 . S
Cd44 O52 2.277 . S
O45 C42 1.160 . S
O45 Cd46 2.203 . S
Cd46 O45 2.203 . S
Cd46 O48 2.411 . S
Cd46 O49 2.333 . S
Cd46 O50 2.352 . S
Cd46 O54 2.277 . S
Cd46 O55 2.356 . S
C47 O52 1.209 . S
C47 O54 1.226 . S
O48 Cd44 2.273 . S
O48 Cd46 2.411 . S
O48 C51 1.320 . S
O49 Cd46 2.333 . S
O49 C51 1.214 . S
O50 Cd46 2.352 . S
O50 C53 1.258 . S
C51 O48 1.320 . S
C51 O49 1.214 . S
O52 Cd44 2.277 . S
O52 C47 1.209 . S
C53 O50 1.258 . S
C53 O55 1.282 . S
O54 Cd46 2.277 . S
O54 C47 1.226 . S
O55 Cd46 2.356 . S
O55 C53 1.282 . S
C56 O57 1.306 . S
C56 O59 1.160 . S
O57 C56 1.306 . S
O57 Cd58 2.228 . S
Cd58 O57 2.228 . S
Cd58 O62 2.273 . S
Cd58 O66 2.277 . S
O59 C56 1.160 . S
O59 Cd60 2.203 . S
Cd60 O59 2.203 . S
Cd60 O62 2.411 . S
Cd60 O63 2.333 . S
Cd60 O64 2.352 . S
Cd60 O68 2.277 1_655 S
Cd60 O69 2.356 . S
C61 O66 1.209 1_455 S
C61 O68 1.226 . S
O62 Cd58 2.273 . S
O62 Cd60 2.411 . S
O62 C65 1.320 . S
O63 Cd60 2.333 . S
O63 C65 1.214 . S
O64 Cd60 2.352 . S
O64 C67 1.258 . S
C65 O62 1.320 . S
C65 O63 1.214 . S
O66 Cd58 2.277 . S
O66 C61 1.209 1_655 S
C67 O64 1.258 . S
C67 O69 1.282 . S
O68 Cd60 2.277 1_455 S
O68 C61 1.226 . S
O69 Cd60 2.356 . S
O69 C67 1.282 . S
C70 O71 1.306 . S
C70 O73 1.160 . S
O71 C70 1.306 . S
O71 Cd72 2.228 . S
Cd72 O71 2.228 . S
Cd72 O76 2.273 . S
Cd72 O80 2.277 . S
O73 C70 1.160 . S
O73 Cd74 2.203 . S
Cd74 O73 2.203 . S
Cd74 O76 2.411 . S
Cd74 O77 2.333 . S
Cd74 O78 2.352 . S
Cd74 O82 2.277 1_565 S
Cd74 O83 2.356 . S
C75 O80 1.209 1_545 S
C75 O82 1.226 . S
O76 Cd72 2.273 . S
O76 Cd74 2.411 . S
O76 C79 1.320 . S
O77 Cd74 2.333 . S
O77 C79 1.214 . S
O78 Cd74 2.352 . S
O78 C81 1.258 . S
C79 O76 1.320 . S
C79 O77 1.214 . S
O80 Cd72 2.277 . S
O80 C75 1.209 1_565 S
C81 O78 1.258 . S
C81 O83 1.282 . S
O82 Cd74 2.277 1_545 S
O82 C75 1.226 . S
O83 Cd74 2.356 . S
O83 C81 1.282 . S
C84 O85 1.306 . S
C84 O87 1.160 . S
O85 C84 1.306 . S
O85 Cd86 2.228 . S
Cd86 O85 2.228 . S
Cd86 O90 2.273 . S
Cd86 O94 2.277 . S
O87 C84 1.160 . S
O87 Cd88 2.203 . S
Cd88 O87 2.203 . S
Cd88 O90 2.411 . S
Cd88 O91 2.333 . S
Cd88 O92 2.352 . S
Cd88 O96 2.277 . S
Cd88 O97 2.356 . S
C89 O94 1.209 . S
C89 O96 1.226 . S
O90 Cd86 2.273 . S
O90 Cd88 2.411 . S
O90 C93 1.320 . S
O91 Cd88 2.333 . S
O91 C93 1.214 . S
O92 Cd88 2.352 . S
O92 C95 1.258 . S
C93 O90 1.320 . S
C93 O91 1.214 . S
O94 Cd86 2.277 . S
O94 C89 1.209 . S
C95 O92 1.258 . S
C95 O97 1.282 . S
O96 Cd88 2.277 . S
O96 C89 1.226 . S
O97 Cd88 2.356 . S
O97 C95 1.282 . S
C98 O99 1.308 1_655 S
C98 O101 1.160 1_655 S
O99 C98 1.308 1_455 S
O99 Cd100 2.233 . S
Cd100 O99 2.233 . S
Cd100 O104 2.273 . S
Cd100 O108 2.277 . S
O101 C98 1.160 1_455 S
O101 Cd102 2.203 . S
Cd102 O101 2.203 . S
Cd102 O104 2.411 . S
Cd102 O105 2.333 . S
Cd102 O106 2.352 . S
Cd102 O110 2.277 . S
Cd102 O111 2.356 . S
C103 O108 1.209 . S
C103 O110 1.226 . S
O104 Cd100 2.273 . S
O104 Cd102 2.411 . S
O104 C107 1.320 . S
O105 Cd102 2.333 . S
O105 C107 1.214 . S
O106 Cd102 2.352 . S
O106 C109 1.258 . S
C107 O104 1.320 . S
C107 O105 1.214 . S
O108 Cd100 2.277 . S
O108 C103 1.209 . S
C109 O106 1.258 . S
C109 O111 1.282 . S
O110 Cd102 2.277 . S
O110 C103 1.226 . S
O111 Cd102 2.356 . S
O111 C109 1.282 . S
C112 O113 1.306 . S
C112 O115 1.160 . S
O113 C112 1.306 . S
O113 Cd114 2.228 . S
Cd114 O113 2.228 . S
Cd114 O118 2.273 . S
Cd114 O122 2.277 . S
O115 C112 1.160 . S
O115 Cd116 2.203 . S
Cd116 O115 2.203 . S
Cd116 O118 2.411 . S
Cd116 O119 2.333 . S
Cd116 O120 2.352 . S
Cd116 O124 2.277 1_545 S
Cd116 O125 2.356 . S
C117 O122 1.209 1_565 S
C117 O124 1.226 . S
O118 Cd114 2.273 . S
O118 Cd116 2.411 . S
O118 C121 1.320 . S
O119 Cd116 2.333 . S
O119 C121 1.214 . S
O120 Cd116 2.352 . S
O120 C123 1.258 . S
C121 O118 1.320 . S
C121 O119 1.214 . S
O122 Cd114 2.277 . S
O122 C117 1.209 1_545 S
C123 O120 1.258 . S
C123 O125 1.282 . S
O124 Cd116 2.277 1_565 S
O124 C117 1.226 . S
O125 Cd116 2.356 . S
O125 C123 1.282 . S
C126 O127 1.306 . S
C126 O129 1.160 . S
O127 C126 1.306 . S
O127 Cd128 2.228 . S
Cd128 O127 2.228 . S
Cd128 O132 2.273 . S
Cd128 O136 2.277 . S
O129 C126 1.160 . S
O129 Cd130 2.203 . S
Cd130 O129 2.203 . S
Cd130 O132 2.411 . S
Cd130 O133 2.333 . S
Cd130 O134 2.352 . S
Cd130 O138 2.277 . S
Cd130 O139 2.356 . S
C131 O136 1.209 . S
C131 O138 1.226 . S
O132 Cd128 2.273 . S
O132 Cd130 2.411 . S
O132 C135 1.320 . S
O133 Cd130 2.333 . S
O133 C135 1.214 . S
O134 Cd130 2.352 . S
O134 C137 1.258 . S
C135 O132 1.320 . S
C135 O133 1.214 . S
O136 Cd128 2.277 . S
O136 C131 1.209 . S
C137 O134 1.258 . S
C137 O139 1.282 . S
O138 Cd130 2.277 . S
O138 C131 1.226 . S
O139 Cd130 2.356 . S
O139 C137 1.282 . S
C140 O141 1.308 1_455 S
C140 O143 1.160 1_455 S
O141 C140 1.308 1_655 S
O141 Cd142 2.233 . S
Cd142 O141 2.233 . S
Cd142 O146 2.273 . S
Cd142 O150 2.277 . S
O143 C140 1.160 1_655 S
O143 Cd144 2.203 . S
Cd144 O143 2.203 . S
Cd144 O146 2.411 . S
Cd144 O147 2.333 . S
Cd144 O148 2.352 . S
Cd144 O152 2.277 . S
Cd144 O153 2.356 . S
C145 O150 1.209 . S
C145 O152 1.226 . S
O146 Cd142 2.273 . S
O146 Cd144 2.411 . S
O146 C149 1.320 . S
O147 Cd144 2.333 . S
O147 C149 1.214 . S
O148 Cd144 2.352 . S
O148 C151 1.258 . S
C149 O146 1.320 . S
C149 O147 1.214 . S
O150 Cd142 2.277 . S
O150 C145 1.209 . S
C151 O148 1.258 . S
C151 O153 1.282 . S
O152 Cd144 2.277 . S
O152 C145 1.226 . S
O153 Cd144 2.356 . S
O153 C151 1.282 . S
C154 O155 1.306 . S
C154 O157 1.160 . S
O155 C154 1.306 . S
O155 Cd156 2.228 . S
Cd156 O155 2.228 . S
Cd156 O160 2.273 . S
Cd156 O164 2.277 . S
O157 C154 1.160 . S
O157 Cd158 2.203 . S
Cd158 O157 2.203 . S
Cd158 O160 2.411 . S
Cd158 O161 2.333 . S
Cd158 O162 2.352 . S
Cd158 O166 2.277 1_565 S
Cd158 O167 2.356 . S
C159 O164 1.209 1_545 S
C159 O166 1.226 . S
O160 Cd156 2.273 . S
O160 Cd158 2.411 . S
O160 C163 1.320 . S
O161 Cd158 2.333 . S
O161 C163 1.214 . S
O162 Cd158 2.352 . S
O162 C165 1.258 . S
C163 O160 1.320 . S
C163 O161 1.214 . S
O164 Cd156 2.277 . S
O164 C159 1.209 1_565 S
C165 O162 1.258 . S
C165 O167 1.282 . S
O166 Cd158 2.277 1_545 S
O166 C159 1.226 . S
O167 Cd158 2.356 . S
O167 C165 1.282 . S
C168 C169 1.363 . S
C168 C174 1.379 . S
C168 N176 1.356 . S
C169 C168 1.363 . S
C169 C175 1.363 . S
C170 C171 1.363 . S
C170 C175 1.379 . S
C170 N177 1.356 . S
C171 C170 1.363 . S
C171 C174 1.363 . S
N172 C174 1.356 . S
N172 H184 0.984 1_554 S
N172 H185 0.985 . S
N173 C175 1.356 . S
N173 H178 0.984 . S
N173 H179 0.985 . S
C174 C168 1.379 . S
C174 C171 1.363 . S
C174 N172 1.356 . S
C175 C169 1.363 . S
C175 C170 1.379 . S
C175 N173 1.356 . S
N176 C168 1.356 . S
N176 H182 0.984 1_554 S
N176 H183 0.984 . S
N177 C170 1.356 . S
N177 H180 0.984 . S
N177 H181 0.985 . S
H178 N173 0.984 . S
H179 N173 0.985 . S
H180 N177 0.984 . S
H181 N177 0.985 . S
H182 N176 0.984 1_556 S
H183 N176 0.984 . S
H184 N172 0.984 1_556 S
H185 N172 0.985 . S
C186 C187 1.363 . S
C186 C192 1.379 . S
C186 N194 1.356 . S
C187 C186 1.363 . S
C187 C193 1.363 1_455 S
C188 C189 1.363 . S
C188 C193 1.379 . S
C188 N195 1.356 . S
C189 C188 1.363 . S
C189 C192 1.363 1_655 S
N190 C192 1.356 1_655 S
N190 H202 0.984 1_655 S
N190 H203 0.985 . S
N191 C193 1.356 1_455 S
N191 H196 0.984 . S
N191 H197 0.985 1_455 S
C192 C186 1.379 . S
C192 C189 1.363 1_455 S
C192 N190 1.356 1_455 S
C193 C187 1.363 1_655 S
C193 C188 1.379 . S
C193 N191 1.356 1_655 S
N194 C186 1.356 . S
N194 H200 0.984 . S
N194 H201 0.984 . S
N195 C188 1.356 . S
N195 H198 0.984 . S
N195 H199 0.985 . S
H196 N191 0.984 . S
H197 N191 0.985 1_655 S
H198 N195 0.984 . S
H199 N195 0.985 . S
H200 N194 0.984 . S
H201 N194 0.984 . S
H202 N190 0.984 1_455 S
H203 N190 0.985 . S
C204 C205 1.363 . S
C204 C210 1.379 . S
C204 N212 1.356 . S
C205 C204 1.363 . S
C205 C211 1.363 1_565 S
C206 C207 1.363 . S
C206 C211 1.379 . S
C206 N213 1.356 . S
C207 C206 1.363 . S
C207 C210 1.363 1_545 S
N208 C210 1.356 1_545 S
N208 H220 0.984 1_545 S
N208 H221 0.985 . S
N209 C211 1.356 1_565 S
N209 H214 0.984 . S
N209 H215 0.985 1_565 S
C210 C204 1.379 . S
C210 C207 1.363 1_565 S
C210 N208 1.356 1_565 S
C211 C205 1.363 1_545 S
C211 C206 1.379 . S
C211 N209 1.356 1_545 S
N212 C204 1.356 . S
N212 H218 0.984 . S
N212 H219 0.984 . S
N213 C206 1.356 . S
N213 H216 0.984 . S
N213 H217 0.985 . S
H214 N209 0.984 . S
H215 N209 0.985 1_545 S
H216 N213 0.984 . S
H217 N213 0.985 . S
H218 N212 0.984 . S
H219 N212 0.984 . S
H220 N208 0.984 1_565 S
H221 N208 0.985 . S
C222 C223 1.363 . S
C222 C228 1.379 . S
C222 N230 1.356 . S
C223 C222 1.363 . S
C223 C229 1.363 . S
C224 C225 1.363 . S
C224 C229 1.379 . S
C224 N231 1.356 . S
C225 C224 1.363 . S
C225 C228 1.363 . S
N226 C228 1.356 . S
N226 H238 0.984 . S
N226 H239 0.985 . S
N227 C229 1.356 . S
N227 H232 0.984 . S
N227 H233 0.985 . S
C228 C222 1.379 . S
C228 C225 1.363 . S
C228 N226 1.356 . S
C229 C223 1.363 . S
C229 C224 1.379 . S
C229 N227 1.356 . S
N230 C222 1.356 . S
N230 H236 0.984 . S
N230 H237 0.984 . S
N231 C224 1.356 . S
N231 H234 0.984 . S
N231 H235 0.985 . S
H232 N227 0.984 . S
H233 N227 0.985 . S
H234 N231 0.984 . S
H235 N231 0.985 . S
H236 N230 0.984 . S
H237 N230 0.984 . S
H238 N226 0.984 . S
H239 N226 0.985 . S
C240 C241 1.363 1_455 S
C240 C246 1.379 . S
C240 N248 1.356 1_455 S
C241 C240 1.363 1_655 S
C241 C247 1.363 . S
C242 C243 1.363 1_655 S
C242 C247 1.379 . S
C242 N249 1.356 1_655 S
C243 C242 1.363 1_455 S
C243 C246 1.363 . S
N244 C246 1.356 . S
N244 H256 0.984 . S
N244 H257 0.985 . S
N245 C247 1.356 . S
N245 H250 0.984 . S
N245 H251 0.985 1_556 S
C246 C240 1.379 . S
C246 C243 1.363 . S
C246 N244 1.356 . S
C247 C241 1.363 . S
C247 C242 1.379 . S
C247 N245 1.356 . S
N248 C240 1.356 1_655 S
N248 H254 0.984 1_655 S
N248 H255 0.984 . S
N249 C242 1.356 1_455 S
N249 H252 0.984 . S
N249 H253 0.985 1_456 S
H250 N245 0.984 . S
H251 N245 0.985 1_554 S
H252 N249 0.984 . S
H253 N249 0.985 1_654 S
H254 N248 0.984 1_455 S
H255 N248 0.984 . S
H256 N244 0.984 . S
H257 N244 0.985 . S
C258 C259 1.363 . S
C258 C264 1.379 . S
C258 N266 1.356 . S
C259 C258 1.363 . S
C259 C265 1.363 1_545 S
C260 C261 1.363 . S
C260 C265 1.379 . S
C260 N267 1.356 . S
C261 C260 1.363 . S
C261 C264 1.363 1_565 S
N262 C264 1.356 1_565 S
N262 H274 0.984 1_565 S
N262 H275 0.985 . S
N263 C265 1.356 1_545 S
N263 H268 0.984 . S
N263 H269 0.985 1_545 S
C264 C258 1.379 . S
C264 C261 1.363 1_545 S
C264 N262 1.356 1_545 S
C265 C259 1.363 1_565 S
C265 C260 1.379 . S
C265 N263 1.356 1_565 S
N266 C258 1.356 . S
N266 H272 0.984 . S
N266 H273 0.984 . S
N267 C260 1.356 . S
N267 H270 0.984 . S
N267 H271 0.985 . S
H268 N263 0.984 . S
H269 N263 0.985 1_565 S
H270 N267 0.984 . S
H271 N267 0.985 . S
H272 N266 0.984 . S
H273 N266 0.984 . S
H274 N262 0.984 1_545 S
H275 N262 0.985 . S
C276 C277 1.363 . S
C276 C282 1.379 . S
C276 N284 1.356 . S
C277 C276 1.363 . S
C277 C283 1.363 . S
C278 C279 1.363 . S
C278 C283 1.379 . S
C278 N285 1.356 . S
C279 C278 1.363 . S
C279 C282 1.363 . S
N280 C282 1.356 . S
N280 H292 0.984 . S
N280 H293 0.985 . S
N281 C283 1.356 . S
N281 H286 0.984 . S
N281 H287 0.985 . S
C282 C276 1.379 . S
C282 C279 1.363 . S
C282 N280 1.356 . S
C283 C277 1.363 . S
C283 C278 1.379 . S
C283 N281 1.356 . S
N284 C276 1.356 . S
N284 H290 0.984 . S
N284 H291 0.984 . S
N285 C278 1.356 . S
N285 H288 0.984 . S
N285 H289 0.985 . S
H286 N281 0.984 . S
H287 N281 0.985 . S
H288 N285 0.984 . S
H289 N285 0.985 . S
H290 N284 0.984 . S
H291 N284 0.984 . S
H292 N280 0.984 . S
H293 N280 0.985 . S
C294 C295 1.363 . S
C294 C300 1.379 . S
C294 N302 1.356 . S
C295 C294 1.363 . S
C295 C301 1.363 . S
C296 C297 1.363 . S
C296 C301 1.379 . S
C296 N303 1.356 . S
C297 C296 1.363 . S
C297 C300 1.363 . S
N298 C300 1.356 . S
N298 H310 0.984 . S
N298 H311 0.985 . S
N299 C301 1.356 . S
N299 H304 0.984 . S
N299 H305 0.985 . S
C300 C294 1.379 . S
C300 C297 1.363 . S
C300 N298 1.356 . S
C301 C295 1.363 . S
C301 C296 1.379 . S
C301 N299 1.356 . S
N302 C294 1.356 . S
N302 H308 0.984 . S
N302 H309 0.984 . S
N303 C296 1.356 . S
N303 H306 0.984 . S
N303 H307 0.985 . S
H304 N299 0.984 . S
H305 N299 0.985 . S
H306 N303 0.984 . S
H307 N303 0.985 . S
H308 N302 0.984 . S
H309 N302 0.984 . S
H310 N298 0.984 . S
H311 N298 0.985 . S
C312 C313 1.363 . S
C312 C318 1.379 . S
C312 N320 1.356 . S
C313 C312 1.363 . S
C313 C319 1.363 . S
C314 C315 1.363 . S
C314 C319 1.379 . S
C314 N321 1.356 . S
C315 C314 1.363 . S
C315 C318 1.363 . S
N316 C318 1.356 . S
N316 H328 0.984 . S
N316 H329 0.985 . S
N317 C319 1.356 . S
N317 H322 0.984 . S
N317 H323 0.985 . S
C318 C312 1.379 . S
C318 C315 1.363 . S
C318 N316 1.356 . S
C319 C313 1.363 . S
C319 C314 1.379 . S
C319 N317 1.356 . S
N320 C312 1.356 . S
N320 H326 0.984 . S
N320 H327 0.984 . S
N321 C314 1.356 . S
N321 H324 0.984 . S
N321 H325 0.985 . S
H322 N317 0.984 . S
H323 N317 0.985 . S
H324 N321 0.984 . S
H325 N321 0.985 . S
H326 N320 0.984 . S
H327 N320 0.984 . S
H328 N316 0.984 . S
H329 N316 0.985 . S
C330 C331 1.363 . S
C330 C336 1.379 . S
C330 N338 1.356 . S
C331 C330 1.363 . S
C331 C337 1.363 . S
C332 C333 1.363 . S
C332 C337 1.379 . S
C332 N339 1.356 . S
C333 C332 1.363 . S
C333 C336 1.363 . S
N334 C336 1.356 . S
N334 H346 0.984 . S
N334 H347 0.985 . S
N335 C337 1.356 . S
N335 H340 0.984 . S
N335 H341 0.985 . S
C336 C330 1.379 . S
C336 C333 1.363 . S
C336 N334 1.356 . S
C337 C331 1.363 . S
C337 C332 1.379 . S
C337 N335 1.356 . S
N338 C330 1.356 . S
N338 H344 0.984 . S
N338 H345 0.984 . S
N339 C332 1.356 . S
N339 H342 0.984 . S
N339 H343 0.985 . S
H340 N335 0.984 . S
H341 N335 0.985 . S
H342 N339 0.984 . S
H343 N339 0.985 . S
H344 N338 0.984 . S
H345 N338 0.984 . S
H346 N334 0.984 . S
H347 N334 0.985 . S
C348 C349 1.363 . S
C348 C354 1.379 . S
C348 N356 1.356 . S
C349 C348 1.363 . S
C349 C355 1.363 . S
C350 C351 1.363 . S
C350 C355 1.379 . S
C350 N357 1.356 . S
C351 C350 1.363 . S
C351 C354 1.363 . S
N352 C354 1.356 . S
N352 H364 0.984 . S
N352 H365 0.985 . S
N353 C355 1.356 . S
N353 H358 0.984 . S
N353 H359 0.985 . S
C354 C348 1.379 . S
C354 C351 1.363 . S
C354 N352 1.356 . S
C355 C349 1.363 . S
C355 C350 1.379 . S
C355 N353 1.356 . S
N356 C348 1.356 . S
N356 H362 0.984 . S
N356 H363 0.984 . S
N357 C350 1.356 . S
N357 H360 0.984 . S
N357 H361 0.985 . S
H358 N353 0.984 . S
H359 N353 0.985 . S
H360 N357 0.984 . S
H361 N357 0.985 . S
H362 N356 0.984 . S
H363 N356 0.984 . S
H364 N352 0.984 . S
H365 N352 0.985 . S
C366 C367 1.363 . S
C366 C372 1.379 . S
C366 N374 1.356 . S
C367 C366 1.363 . S
C367 C373 1.363 . S
C368 C369 1.363 . S
C368 C373 1.379 . S
C368 N375 1.356 . S
C369 C368 1.363 . S
C369 C372 1.363 . S
N370 C372 1.356 . S
N370 H382 0.984 . S
N370 H383 0.985 . S
N371 C373 1.356 . S
N371 H376 0.984 . S
N371 H377 0.985 . S
C372 C366 1.379 . S
C372 C369 1.363 . S
C372 N370 1.356 . S
C373 C367 1.363 . S
C373 C368 1.379 . S
C373 N371 1.356 . S
N374 C366 1.356 . S
N374 H380 0.984 . S
N374 H381 0.984 . S
N375 C368 1.356 . S
N375 H378 0.984 . S
N375 H379 0.985 . S
H376 N371 0.984 . S
H377 N371 0.985 . S
H378 N375 0.984 . S
H379 N375 0.985 . S
H380 N374 0.984 . S
H381 N374 0.984 . S
H382 N370 0.984 . S
H383 N370 0.985 . S
C384 C385 1.363 . S
C384 C390 1.379 1_565 S
C384 N392 1.356 . S
C385 C384 1.363 . S
C385 C391 1.363 1_556 S
C386 C387 1.363 . S
C386 C391 1.379 1_545 S
C386 N393 1.356 . S
C387 C386 1.363 . S
C387 C390 1.363 1_554 S
N388 C390 1.356 . S
N388 H400 0.984 . S
N388 H401 0.985 . S
N389 C391 1.356 . S
N389 H394 0.984 . S
N389 H395 0.985 . S
C390 C384 1.379 1_545 S
C390 C387 1.363 1_556 S
C390 N388 1.356 . S
C391 C385 1.363 1_554 S
C391 C386 1.379 1_565 S
C391 N389 1.356 . S
N392 C384 1.356 . S
N392 H398 0.984 . S
N392 H399 0.984 . S
N393 C386 1.356 . S
N393 H396 0.984 . S
N393 H397 0.985 . S
H394 N389 0.984 . S
H395 N389 0.985 . S
H396 N393 0.984 . S
H397 N393 0.985 . S
H398 N392 0.984 . S
H399 N392 0.984 . S
H400 N388 0.984 . S
H401 N388 0.985 . S
C402 C403 1.363 . S
C402 C408 1.379 . S
C402 N410 1.356 . S
C403 C402 1.363 . S
C403 C409 1.363 . S
C404 C405 1.363 . S
C404 C409 1.379 . S
C404 N411 1.356 . S
C405 C404 1.363 . S
C405 C408 1.363 . S
N406 C408 1.356 . S
N406 H418 0.984 . S
N406 H419 0.985 . S
N407 C409 1.356 . S
N407 H412 0.984 . S
N407 H413 0.985 . S
C408 C402 1.379 . S
C408 C405 1.363 . S
C408 N406 1.356 . S
C409 C403 1.363 . S
C409 C404 1.379 . S
C409 N407 1.356 . S
N410 C402 1.356 . S
N410 H416 0.984 . S
N410 H417 0.984 . S
N411 C404 1.356 . S
N411 H414 0.984 . S
N411 H415 0.985 . S
H412 N407 0.984 . S
H413 N407 0.985 . S
H414 N411 0.984 . S
H415 N411 0.985 . S
H416 N410 0.984 . S
H417 N410 0.984 . S
H418 N406 0.984 . S
H419 N406 0.985 . S
C420 C421 1.363 . S
C420 C426 1.379 1_655 S
C420 N428 1.356 . S
C421 C420 1.363 . S
C421 C427 1.363 . S
C422 C423 1.363 . S
C422 C427 1.379 1_455 S
C422 N429 1.356 . S
C423 C422 1.363 . S
C423 C426 1.363 . S
N424 C426 1.356 . S
N424 H436 0.984 . S
N424 H437 0.985 . S
N425 C427 1.356 . S
N425 H430 0.984 . S
N425 H431 0.985 . S
C426 C420 1.379 1_455 S
C426 C423 1.363 . S
C426 N424 1.356 . S
C427 C421 1.363 . S
C427 C422 1.379 1_655 S
C427 N425 1.356 . S
N428 C420 1.356 . S
N428 H434 0.984 . S
N428 H435 0.984 . S
N429 C422 1.356 . S
N429 H432 0.984 . S
N429 H433 0.985 . S
H430 N425 0.984 . S
H431 N425 0.985 . S
H432 N429 0.984 . S
H433 N429 0.985 . S
H434 N428 0.984 . S
H435 N428 0.984 . S
H436 N424 0.984 . S
H437 N424 0.985 . S
C438 C439 1.363 1_556 S
C438 C444 1.379 1_565 S
C438 N446 1.356 . S
C439 C438 1.363 1_554 S
C439 C445 1.363 . S
C440 C441 1.363 1_554 S
C440 C445 1.379 1_545 S
C440 N447 1.356 . S
C441 C440 1.363 1_556 S
C441 C444 1.363 . S
N442 C444 1.356 . S
N442 H454 0.984 . S
N442 H455 0.985 . S
N443 C445 1.356 . S
N443 H448 0.984 . S
N443 H449 0.985 . S
C444 C438 1.379 1_545 S
C444 C441 1.363 . S
C444 N442 1.356 . S
C445 C439 1.363 . S
C445 C440 1.379 1_565 S
C445 N443 1.356 . S
N446 C438 1.356 . S
N446 H452 0.984 . S
N446 H453 0.984 . S
N447 C440 1.356 . S
N447 H450 0.984 . S
N447 H451 0.985 . S
H448 N443 0.984 . S
H449 N443 0.985 . S
H450 N447 0.984 . S
H451 N447 0.985 . S
H452 N446 0.984 . S
H453 N446 0.984 . S
H454 N442 0.984 . S
H455 N442 0.985 . S
C456 C457 1.363 . S
C456 C462 1.379 . S
C456 N464 1.356 . S
C457 C456 1.363 . S
C457 C463 1.363 . S
C458 C459 1.363 . S
C458 C463 1.379 . S
C458 N465 1.356 . S
C459 C458 1.363 . S
C459 C462 1.363 . S
N460 C462 1.356 . S
N460 H472 0.984 . S
N460 H473 0.985 . S
N461 C463 1.356 . S
N461 H466 0.984 . S
N461 H467 0.985 . S
C462 C456 1.379 . S
C462 C459 1.363 . S
C462 N460 1.356 . S
C463 C457 1.363 . S
C463 C458 1.379 . S
C463 N461 1.356 . S
N464 C456 1.356 . S
N464 H470 0.984 . S
N464 H471 0.984 . S
N465 C458 1.356 . S
N465 H468 0.984 . S
N465 H469 0.985 . S
H466 N461 0.984 . S
H467 N461 0.985 . S
H468 N465 0.984 . S
H469 N465 0.985 . S
H470 N464 0.984 . S
H471 N464 0.984 . S
H472 N460 0.984 . S
H473 N460 0.985 . S
C474 C475 1.363 . S
C474 C480 1.379 1_455 S
C474 N482 1.356 . S
C475 C474 1.363 . S
C475 C481 1.363 . S
C476 C477 1.363 . S
C476 C481 1.379 1_655 S
C476 N483 1.356 . S
C477 C476 1.363 . S
C477 C480 1.363 . S
N478 C480 1.356 . S
N478 H490 0.984 . S
N478 H491 0.985 . S
N479 C481 1.356 . S
N479 H484 0.984 . S
N479 H485 0.985 . S
C480 C474 1.379 1_655 S
C480 C477 1.363 . S
C480 N478 1.356 . S
C481 C475 1.363 . S
C481 C476 1.379 1_455 S
C481 N479 1.356 . S
N482 C474 1.356 . S
N482 H488 0.984 . S
N482 H489 0.984 . S
N483 C476 1.356 . S
N483 H486 0.984 . S
N483 H487 0.985 . S
H484 N479 0.984 . S
H485 N479 0.985 . S
H486 N483 0.984 . S
H487 N483 0.985 . S
H488 N482 0.984 . S
H489 N482 0.984 . S
H490 N478 0.984 . S
H491 N478 0.985 . S
C492 C493 1.363 . S
C492 C498 1.379 . S
C492 N500 1.356 . S
C493 C492 1.363 . S
C493 C499 1.363 1_556 S
C494 C495 1.363 . S
C494 C499 1.379 . S
C494 N501 1.356 . S
C495 C494 1.363 . S
C495 C498 1.363 1_554 S
N496 C498 1.356 . S
N496 H508 0.984 . S
N496 H509 0.985 1_556 S
N497 C499 1.356 1_655 S
N497 H502 0.984 1_554 S
N497 H503 0.985 . S
C498 C492 1.379 . S
C498 C495 1.363 1_556 S
C498 N496 1.356 . S
C499 C493 1.363 1_554 S
C499 C494 1.379 . S
C499 N497 1.356 1_455 S
N500 C492 1.356 . S
N500 H506 0.984 . S
N500 H507 0.984 . S
N501 C494 1.356 . S
N501 H504 0.984 . S
N501 H505 0.985 . S
H502 N497 0.984 1_556 S
H503 N497 0.985 . S
H504 N501 0.984 . S
H505 N501 0.985 . S
H506 N500 0.984 . S
H507 N500 0.984 . S
H508 N496 0.984 . S
H509 N496 0.985 1_554 S
C510 C511 1.363 . S
C510 C516 1.379 . S
C510 N518 1.356 . S
C511 C510 1.363 . S
C511 C517 1.363 . S
C512 C513 1.363 . S
C512 C517 1.379 . S
C512 N519 1.356 . S
C513 C512 1.363 . S
C513 C516 1.363 . S
N514 C516 1.356 . S
N514 H526 0.984 1_655 S
N514 H527 0.985 1_655 S
N515 C517 1.356 . S
N515 H520 0.984 . S
N515 H521 0.985 . S
C516 C510 1.379 . S
C516 C513 1.363 . S
C516 N514 1.356 . S
C517 C511 1.363 . S
C517 C512 1.379 . S
C517 N515 1.356 . S
N518 C510 1.356 . S
N518 H524 0.984 . S
N518 H525 0.984 . S
N519 C512 1.356 . S
N519 H522 0.984 . S
N519 H523 0.985 . S
H520 N515 0.984 . S
H521 N515 0.985 . S
H522 N519 0.984 . S
H523 N519 0.985 . S
H524 N518 0.984 . S
H525 N518 0.984 . S
H526 N514 0.984 1_455 S
H527 N514 0.985 1_455 S
C528 C529 1.363 . S
C528 C534 1.379 . S
C528 N536 1.356 . S
C529 C528 1.363 . S
C529 C535 1.363 . S
C530 C531 1.363 . S
C530 C535 1.379 . S
C530 N537 1.356 . S
C531 C530 1.363 . S
C531 C534 1.363 . S
N532 C534 1.356 . S
N532 H544 0.984 . S
N532 H545 0.985 . S
N533 C535 1.356 . S
N533 H538 0.984 . S
N533 H539 0.985 . S
C534 C528 1.379 . S
C534 C531 1.363 . S
C534 N532 1.356 . S
C535 C529 1.363 . S
C535 C530 1.379 . S
C535 N533 1.356 . S
N536 C528 1.356 . S
N536 H542 0.984 . S
N536 H543 0.984 . S
N537 C530 1.356 . S
N537 H540 0.984 . S
N537 H541 0.985 . S
H538 N533 0.984 . S
H539 N533 0.985 . S
H540 N537 0.984 . S
H541 N537 0.985 . S
H542 N536 0.984 . S
H543 N536 0.984 . S
H544 N532 0.984 . S
H545 N532 0.985 . S
C546 C547 1.363 1_556 S
C546 C552 1.379 . S
C546 N554 1.356 . S
C547 C546 1.363 1_554 S
C547 C553 1.363 . S
C548 C549 1.363 1_554 S
C548 C553 1.379 . S
C548 N555 1.356 . S
C549 C548 1.363 1_556 S
C549 C552 1.363 . S
N550 C552 1.356 . S
N550 H562 0.984 . S
N550 H563 0.990 . S
N551 C553 1.356 . S
N551 H556 0.984 . S
N551 H557 0.985 . S
C552 C546 1.379 . S
C552 C549 1.363 . S
C552 N550 1.356 . S
C553 C547 1.363 . S
C553 C548 1.379 . S
C553 N551 1.356 . S
N554 C546 1.356 . S
N554 H560 0.984 . S
N554 H561 0.984 1_556 S
N555 C548 1.356 . S
N555 H558 0.984 1_554 S
N555 H559 0.985 . S
H556 N551 0.984 . S
H557 N551 0.985 . S
H558 N555 0.984 1_556 S
H559 N555 0.985 . S
H560 N554 0.984 . S
H561 N554 0.984 1_554 S
H562 N550 0.984 . S
H563 N550 0.990 . S
C564 C565 1.363 . S
C564 C570 1.379 . S
C564 N572 1.356 . S
C565 C564 1.363 . S
C565 C571 1.363 . S
C566 C567 1.363 . S
C566 C571 1.379 . S
C566 N573 1.356 . S
C567 C566 1.363 . S
C567 C570 1.363 . S
N568 C570 1.356 . S
N568 H580 0.984 . S
N568 H581 0.985 . S
N569 C571 1.356 . S
N569 H574 0.984 . S
N569 H575 0.985 . S
C570 C564 1.379 . S
C570 C567 1.363 . S
C570 N568 1.356 . S
C571 C565 1.363 . S
C571 C566 1.379 . S
C571 N569 1.356 . S
N572 C564 1.356 . S
N572 H578 0.984 . S
N572 H579 0.984 . S
N573 C566 1.356 . S
N573 H576 0.984 1_565 S
N573 H577 0.985 . S
H574 N569 0.984 . S
H575 N569 0.985 . S
H576 N573 0.984 1_545 S
H577 N573 0.985 . S
H578 N572 0.984 . S
H579 N572 0.984 . S
H580 N568 0.984 . S
H581 N568 0.985 . S
C582 C583 1.363 . S
C582 C588 1.379 . S
C582 N590 1.356 . S
C583 C582 1.363 . S
C583 C589 1.363 . S
C584 C585 1.363 . S
C584 C589 1.379 . S
C584 N591 1.356 . S
C585 C584 1.363 . S
C585 C588 1.363 . S
N586 C588 1.356 . S
N586 H598 0.984 . S
N586 H599 0.985 . S
N587 C589 1.356 . S
N587 H592 0.984 . S
N587 H593 0.985 . S
C588 C582 1.379 . S
C588 C585 1.363 . S
C588 N586 1.356 . S
C589 C583 1.363 . S
C589 C584 1.379 . S
C589 N587 1.356 . S
N590 C582 1.356 . S
N590 H596 0.984 . S
N590 H597 0.984 . S
N591 C584 1.356 . S
N591 H594 0.984 . S
N591 H595 0.985 . S
H592 N587 0.984 . S
H593 N587 0.985 . S
H594 N591 0.984 . S
H595 N591 0.985 . S
H596 N590 0.984 . S
H597 N590 0.984 . S
H598 N586 0.984 . S
H599 N586 0.985 . S
C169 C53 1.439 . S
C171 C11 1.439 . S
C187 C23 1.499 . S
C189 C65 1.499 . S
C205 C79 1.415 . S
C207 C37 1.415 . S
C223 C93 1.499 . S
C225 C135 1.499 . S
C241 C151 1.439 . S
C243 C109 1.439 . S
C259 C121 1.415 . S
C261 C163 1.415 . S
C277 C123 1.595 . S
C279 C9 1.605 . S
C295 C25 1.619 . S
C297 C137 1.619 . S
C313 C39 1.595 . S
C315 C149 1.605 . S
C331 C51 1.605 . S
C333 C165 1.595 . S
C349 C95 1.620 . S
C351 C67 1.620 . S
C367 C107 1.605 . S
C369 C81 1.595 . S
C385 C103 1.308 . S
C387 C5 1.308 . S
C403 C14 1.445 . S
C405 C112 1.456 . S
C421 C28 1.456 . S
C423 C126 1.445 . S
C439 C47 1.308 . S
C441 C145 1.308 . S
C457 C154 1.456 . S
C459 C56 1.445 . S
C475 C70 1.456 . S
C477 C84 1.445 . S
C493 C140 1.364 . S
C495 C0 1.364 . S
C511 C159 1.500 . S
C513 C19 1.497 . S
C529 C89 1.497 . S
C531 C33 1.500 . S
C547 C42 1.364 . S
C549 C98 1.364 . S
C565 C61 1.497 . S
C567 C117 1.500 . S
C583 C75 1.500 . S
C585 C131 1.497 . S
