# Generated by pormake.
# Topology nov, (5)-cn, num edge types: 1
# Building blocks:
#     Node 0, Type 0, BuildingBlock: XOMCOT_clean_sbu_0, # of connection points: 5
#     Node 1, Type 0, BuildingBlock: XOMCOT_clean_sbu_0, # of connection points: 5
#     Node 2, Type 0, BuildingBlock: XOMCOT_clean_sbu_0, # of connection points: 5
#     Node 3, Type 0, BuildingBlock: XOMCOT_clean_sbu_0, # of connection points: 5
#     Node 4, Type 0, BuildingBlock: XOMCOT_clean_sbu_0, # of connection points: 5
#     Node 5, Type 0, BuildingBlock: XOMCOT_clean_sbu_0, # of connection points: 5
#     Node 6, Type 0, BuildingBlock: XOMCOT_clean_sbu_0, # of connection points: 5
#     Node 7, Type 0, BuildingBlock: XOMCOT_clean_sbu_0, # of connection points: 5
#     Edge 8, Type (0, 0), BuildingBlock: EYOCIG_clean_linker_4, # of connection points: 2
#     Edge 9, Type (0, 0), BuildingBlock: EYOCIG_clean_linker_4, # of connection points: 2
#     Edge 10, Type (0, 0), BuildingBlock: EYOCIG_clean_linker_4, # of connection points: 2
#     Edge 11, Type (0, 0), BuildingBlock: EYOCIG_clean_linker_4, # of connection points: 2
#     Edge 12, Type (0, 0), BuildingBlock: EYOCIG_clean_linker_4, # of connection points: 2
#     Edge 13, Type (0, 0), BuildingBlock: EYOCIG_clean_linker_4, # of connection points: 2
#     Edge 14, Type (0, 0), BuildingBlock: EYOCIG_clean_linker_4, # of connection points: 2
#     Edge 15, Type (0, 0), BuildingBlock: EYOCIG_clean_linker_4, # of connection points: 2
#     Edge 16, Type (0, 0), BuildingBlock: EYOCIG_clean_linker_4, # of connection points: 2
#     Edge 17, Type (0, 0), BuildingBlock: EYOCIG_clean_linker_4, # of connection points: 2
#     Edge 18, Type (0, 0), BuildingBlock: EYOCIG_clean_linker_4, # of connection points: 2
#     Edge 19, Type (0, 0), BuildingBlock: EYOCIG_clean_linker_4, # of connection points: 2
#     Edge 20, Type (0, 0), BuildingBlock: EYOCIG_clean_linker_4, # of connection points: 2
#     Edge 21, Type (0, 0), BuildingBlock: EYOCIG_clean_linker_4, # of connection points: 2
#     Edge 22, Type (0, 0), BuildingBlock: EYOCIG_clean_linker_4, # of connection points: 2
#     Edge 23, Type (0, 0), BuildingBlock: EYOCIG_clean_linker_4, # of connection points: 2
#     Edge 24, Type (0, 0), BuildingBlock: EYOCIG_clean_linker_4, # of connection points: 2
#     Edge 25, Type (0, 0), BuildingBlock: EYOCIG_clean_linker_4, # of connection points: 2
#     Edge 26, Type (0, 0), BuildingBlock: EYOCIG_clean_linker_4, # of connection points: 2
#     Edge 27, Type (0, 0), BuildingBlock: EYOCIG_clean_linker_4, # of connection points: 2
# Relax obj value: 0.154
# Max RMSD: 0.186
# Mean RMSD: 0.186
data_MOF--net-nov--node1-XOMCOT_clean_sbu_0--edge1-EYOCIG_clean_linker_4
_symmetry_space_group_name_H-M    P1
_symmetry_Int_Tables_number       1
_symmetry_cell_setting            triclinic
loop_
_symmetry_equiv_pos_as_xyz
'x, y, z'
_cell_length_a     21.416332
_cell_length_b     42.842578
_cell_length_c     23.590667
_cell_angle_alpha  89.95892
_cell_angle_beta   89.897585
_cell_angle_gamma 90.161003
loop_
_atom_site_label
_atom_site_type_symbol
_atom_site_fract_x
_atom_site_fract_y
_atom_site_fract_z
_atom_type_partial_charge
Co0 Co 0.04219 0.18198 0.16428 0.0
C1 C 0.04568 0.12431 0.09432 0.0
C2 C 0.09978 0.12033 0.17069 0.0
C3 C 0.10283 0.09238 0.14205 0.0
N4 N 0.06427 0.14031 0.14069 0.0
N5 N 0.06884 0.09505 0.09447 0.0
H6 H 1.01561 0.1337 0.06169 0.0
H7 H 0.12123 0.12559 0.21105 0.0
C8 C 0.16385 0.21205 0.19726 0.0
O9 O 0.14498 0.23829 0.17434 0.0
N10 N 0.01948 0.2236 0.19044 0.0
C11 C 0.98437 0.2457 0.1648 0.0
C12 C 0.97475 0.27 0.20199 0.0
C13 C 0.02911 0.2346 0.24347 0.0
N14 N 1.00288 0.26281 0.25102 0.0
C15 C 1.01889 0.20649 0.05334 0.0
C16 C 0.14152 0.21293 0.01891 0.0
C17 C 0.0939 0.22529 0.98526 0.0
C18 C 0.032 0.22101 1.00179 0.0
C19 C 0.12617 0.19843 0.07043 0.0
N20 N 0.06567 0.19768 0.08922 0.0
H21 H 0.97061 0.20324 0.06492 0.0
H22 H 0.16314 0.18807 0.09496 0.0
H23 H 0.96442 0.2443 0.1231 0.0
H24 H 0.05387 0.22192 0.27613 0.0
O25 O 0.95527 0.1732 0.14962 0.0
O26 O 1.00274 0.16496 0.23177 0.0
O27 O 0.12968 0.18756 0.19569 0.0
C28 C 0.95169 0.16417 0.20197 0.0
H29 H 0.12765 0.07163 0.15525 0.0
H30 H 0.9479 0.29094 0.19417 0.0
H31 H 0.18994 0.21475 0.00594 0.0
H32 H 0.99396 0.22931 0.97561 0.0
Co33 Co 0.5745 0.89191 0.66408 0.0
C34 C 0.57101 0.94968 0.59423 0.0
C35 C 0.51681 0.95352 0.67072 0.0
C36 C 0.51375 0.98151 0.64216 0.0
N37 N 0.55239 0.9336 0.6406 0.0
N38 N 0.54781 0.97892 0.59449 0.0
H39 H 0.60114 0.94034 0.56151 0.0
H40 H 0.49532 0.9482 0.71112 0.0
C41 C 0.4528 0.86178 0.69731 0.0
O42 O 0.47176 0.83553 0.67447 0.0
N43 N 0.59724 0.85027 0.69014 0.0
C44 C 0.63237 0.82821 0.66437 0.0
C45 C 0.64208 0.80389 0.70154 0.0
C46 C 0.58768 0.83924 0.74321 0.0
N47 N 0.61399 0.81104 0.75068 0.0
C48 C 0.59806 0.86756 0.55304 0.0
C49 C 0.4755 0.86096 0.51894 0.0
C50 C 0.52321 0.84866 0.4852 0.0
C51 C 0.58507 0.85304 0.50155 0.0
C52 C 0.49072 0.87547 0.5704 0.0
N53 N 0.5512 0.87629 0.58904 0.0
H54 H 0.64631 0.87086 0.56452 0.0
H55 H 0.45367 0.88577 0.59499 0.0
H56 H 0.6523 0.82964 0.6226 0.0
H57 H 0.56294 0.85189 0.77597 0.0
O58 O 0.66145 0.90076 0.64931 0.0
O59 O 0.61377 0.90887 0.73154 0.0
O60 O 0.48696 0.88628 0.69561 0.0
C61 C 0.66489 0.90973 0.70167 0.0
H62 H 0.48888 1.00223 0.65545 0.0
H63 H 0.669 0.78298 0.69364 0.0
H64 H 0.42709 0.85907 0.5061 0.0
H65 H 0.62318 0.84478 0.47529 0.0
Co66 Co 0.04192 0.89211 0.84028 0.0
C67 C 0.04561 0.94983 0.9101 0.0
C68 C 0.10021 0.95378 0.83383 0.0
C69 C 0.10335 0.98175 0.86241 0.0
N70 N 0.06433 0.9338 0.86381 0.0
N71 N 0.06903 0.9791 0.90993 0.0
H72 H 1.01523 0.94044 0.94269 0.0
H73 H 0.12185 0.9485 0.79351 0.0
C74 C 0.16334 0.86206 0.80727 0.0
O75 O 0.14411 0.83585 0.83031 0.0
N76 N 1.01885 0.85048 0.81417 0.0
C77 C 0.98334 0.8284 0.83981 0.0
C78 C 0.97358 0.80409 0.80264 0.0
C79 C 0.02857 0.83947 0.76116 0.0
N80 N 1.00203 0.81126 0.75362 0.0
C81 C 1.01823 0.86755 0.95126 0.0
C82 C 0.14077 0.86134 0.98548 0.0
C83 C 0.09305 0.84887 0.01918 0.0
C84 C 0.03119 0.85304 0.00277 0.0
C85 C 0.12557 0.87582 0.934 0.0
N86 N 0.06512 0.87645 0.9153 0.0
H87 H 0.96999 0.87074 0.93977 0.0
H88 H 0.16262 0.88627 0.90942 0.0
H89 H 0.96319 0.82982 0.88149 0.0
H90 H 0.05362 0.85214 0.72849 0.0
O91 O 0.95504 0.90087 0.85506 0.0
O92 O 1.00277 0.9091 0.77283 0.0
O93 O 0.12942 0.88655 0.80875 0.0
C94 C 0.95167 0.90988 0.8027 0.0
H95 H 0.12843 1.00251 0.8492 0.0
H96 H 0.94642 0.78317 0.81046 0.0
H97 H 0.18917 0.85961 0.99836 0.0
H98 H 0.99308 0.84466 0.02902 0.0
Co99 Co 0.57418 0.18216 0.34048 0.0
C100 C 0.57058 0.12442 0.41038 0.0
C101 C 0.51577 0.12053 0.3344 0.0
C102 C 0.51272 0.09253 0.36298 0.0
N103 N 0.55172 0.14049 0.36419 0.0
N104 N 0.54717 0.09515 0.41032 0.0
H105 H 0.60106 0.13378 0.44278 0.0
H106 H 0.49406 0.12583 0.29418 0.0
C107 C 0.45277 0.21216 0.30746 0.0
O108 O 0.47185 0.2384 0.33037 0.0
N109 N 0.59729 0.22379 0.31419 0.0
C110 C 0.63276 0.24586 0.33969 0.0
C111 C 0.6425 0.27019 0.30245 0.0
C112 C 0.58756 0.23481 0.26119 0.0
N113 N 0.61407 0.26303 0.25353 0.0
C114 C 0.59765 0.20675 0.45133 0.0
C115 C 0.47506 0.21304 0.48573 0.0
C116 C 0.52275 0.22549 0.51932 0.0
C117 C 0.58463 0.22128 0.50281 0.0
C118 C 0.49033 0.19853 0.43427 0.0
N119 N 0.55082 0.19786 0.41548 0.0
H120 H 0.64591 0.20353 0.43978 0.0
H121 H 0.4533 0.18811 0.40978 0.0
H122 H 0.65289 0.24444 0.38132 0.0
H123 H 0.56252 0.22215 0.22863 0.0
O124 O 0.66102 0.17342 0.35519 0.0
O125 O 0.61349 0.16515 0.27305 0.0
O126 O 0.48675 0.18769 0.30904 0.0
C127 C 0.66451 0.16437 0.30287 0.0
H128 H 0.48764 0.07178 0.34989 0.0
H129 H 0.66962 0.29113 0.31016 0.0
H130 H 0.42665 0.21481 0.49868 0.0
H131 H 0.62271 0.22964 0.52897 0.0
Co132 Co 0.54207 0.68198 0.16427 0.0
C133 C 0.54561 0.6243 0.09432 0.0
C134 C 0.59964 0.62033 0.17073 0.0
C135 C 0.60272 0.59238 0.1421 0.0
N136 N 0.56415 0.64031 0.1407 0.0
N137 N 0.56877 0.59504 0.09448 0.0
H138 H 0.51558 0.6337 0.06167 0.0
H139 H 0.62106 0.62559 0.21111 0.0
C140 C 0.66372 0.71206 0.19725 0.0
O141 O 0.64485 0.73829 0.17433 0.0
N142 N 0.51935 0.7236 0.19042 0.0
C143 C 0.48426 0.7457 0.16476 0.0
C144 C 0.47463 0.77001 0.20194 0.0
C145 C 0.52896 0.7346 0.24344 0.0
N146 N 0.50274 0.76282 0.25098 0.0
C147 C 0.51877 0.70647 0.05332 0.0
C148 C 0.64139 0.71292 0.0189 0.0
C149 C 0.59377 0.72528 0.98524 0.0
C150 C 0.53187 0.72098 1.00177 0.0
C151 C 0.62605 0.69843 0.07042 0.0
N152 N 0.56555 0.69767 0.08921 0.0
H153 H 0.47049 0.70321 0.0649 0.0
H154 H 0.66303 0.68808 0.09496 0.0
H155 H 0.46432 0.7443 0.12305 0.0
H156 H 0.55371 0.72193 0.27611 0.0
O157 O 0.45515 0.67319 0.14962 0.0
O158 O 0.50262 0.66497 0.23177 0.0
O159 O 0.62956 0.68756 0.19568 0.0
C160 C 0.45157 0.66417 0.20197 0.0
H161 H 0.62753 0.57163 0.15531 0.0
H162 H 0.44778 0.79095 0.1941 0.0
H163 H 0.68981 0.71476 0.00593 0.0
H164 H 0.49382 0.72928 0.97558 0.0
Co165 Co 0.07473 0.39193 0.6641 0.0
C166 C 0.07119 0.44969 0.59423 0.0
C167 C 1.01704 0.45354 0.67076 0.0
C168 C 1.01395 0.48152 0.64218 0.0
N169 N 0.0526 0.43361 0.64061 0.0
N170 N 0.04797 0.47893 0.5945 0.0
H171 H 0.10129 0.44035 0.5615 0.0
H172 H 0.99557 0.44821 0.71116 0.0
C173 C 0.95303 0.36179 0.69732 0.0
O174 O 0.97199 0.33555 0.67448 0.0
N175 N 0.09748 0.35029 0.69017 0.0
C176 C 0.13264 0.32823 0.66441 0.0
C177 C 0.14235 0.30392 0.70158 0.0
C178 C 0.0879 0.33926 0.74323 0.0
N179 N 0.11422 0.31106 0.75071 0.0
C180 C 0.09828 0.36756 0.55307 0.0
C181 C 0.97572 0.36097 0.51897 0.0
C182 C 0.02342 0.34866 0.48523 0.0
C183 C 0.08529 0.35304 0.50159 0.0
C184 C 0.99094 0.37548 0.57042 0.0
N185 N 0.05142 0.3763 0.58906 0.0
H186 H 0.14653 0.37086 0.56454 0.0
H187 H 0.95389 0.38578 0.59501 0.0
H188 H 0.15259 0.32967 0.62265 0.0
H189 H 0.06313 0.3519 0.77598 0.0
O190 O 0.16167 0.40078 0.64932 0.0
O191 O 0.114 0.40889 0.73155 0.0
O192 O 0.98719 0.38629 0.69563 0.0
C193 C 0.16511 0.40975 0.70168 0.0
H194 H 0.98908 0.50224 0.65548 0.0
H195 H 0.16928 0.28301 0.69369 0.0
H196 H 0.92731 0.35908 0.50613 0.0
H197 H 0.12339 0.34478 0.47533 0.0
Co198 Co 0.54214 0.39211 0.84028 0.0
C199 C 0.54578 0.44983 0.9101 0.0
C200 C 0.60046 0.45377 0.83386 0.0
C201 C 0.60357 0.48175 0.86245 0.0
N202 N 0.56455 0.43379 0.86382 0.0
N203 N 0.56921 0.4791 0.90995 0.0
H204 H 0.51538 0.44044 0.94266 0.0
H205 H 0.62214 0.4485 0.79357 0.0
C206 C 0.66356 0.36206 0.80726 0.0
O207 O 0.64433 0.33584 0.83029 0.0
N208 N 0.51907 0.35048 0.81416 0.0
C209 C 0.48356 0.3284 0.83979 0.0
C210 C 0.4738 0.3041 0.80261 0.0
C211 C 0.52879 0.33948 0.76114 0.0
N212 N 0.50224 0.31127 0.75359 0.0
C213 C 0.51844 0.36754 0.95125 0.0
C214 C 0.64098 0.36133 0.98547 0.0
C215 C 0.59326 0.34885 0.01918 0.0
C216 C 0.5314 0.35303 0.00276 0.0
C217 C 0.62578 0.37581 0.934 0.0
N218 N 0.56533 0.37644 0.91529 0.0
H219 H 0.4702 0.37074 0.93976 0.0
H220 H 0.66284 0.38626 0.90942 0.0
H221 H 0.46342 0.32982 0.88147 0.0
H222 H 0.55383 0.35215 0.72847 0.0
O223 O 0.45526 0.40087 0.85505 0.0
O224 O 0.503 0.40911 0.77283 0.0
O225 O 0.62965 0.38655 0.80876 0.0
C226 C 0.45189 0.40989 0.8027 0.0
H227 H 0.62866 0.5025 0.84926 0.0
H228 H 0.44664 0.28317 0.81043 0.0
H229 H 0.68937 0.35959 0.99836 0.0
H230 H 0.49328 0.34465 0.029 0.0
Co231 Co 0.07405 0.68218 0.3405 0.0
C232 C 0.07051 0.62443 0.41038 0.0
C233 C 1.01566 0.62054 0.33443 0.0
C234 C 1.01264 0.59254 0.36301 0.0
N235 N 0.05162 0.6405 0.36421 0.0
N236 N 0.04712 0.59516 0.41033 0.0
H237 H 0.10101 0.63379 0.44277 0.0
H238 H 0.99392 0.62584 0.29423 0.0
C239 C 0.95263 0.71216 0.30748 0.0
O240 O 0.9717 0.7384 0.33039 0.0
N241 N 0.09714 0.7238 0.31421 0.0
C242 C 0.13261 0.74589 0.3397 0.0
C243 C 0.14233 0.77021 0.30246 0.0
C244 C 0.08742 0.73482 0.26121 0.0
N245 N 0.11391 0.76305 0.25354 0.0
C246 C 0.09752 0.70677 0.45135 0.0
C247 C 0.97492 0.71303 0.48575 0.0
C248 C 0.0226 0.72549 0.51934 0.0
C249 C 0.08448 0.72129 0.50283 0.0
C250 C 0.9902 0.69853 0.43428 0.0
N251 N 0.05069 0.69787 0.41549 0.0
H252 H 0.14578 0.70356 0.4398 0.0
H253 H 0.95317 0.6881 0.4098 0.0
H254 H 0.15274 0.74446 0.38133 0.0
H255 H 0.06238 0.72216 0.22864 0.0
O256 O 0.1609 0.67344 0.3552 0.0
O257 O 0.11337 0.66516 0.27307 0.0
O258 O 0.98662 0.6877 0.30906 0.0
C259 C 0.16439 0.66439 0.30289 0.0
H260 H 0.98757 0.57179 0.34993 0.0
H261 H 0.16944 0.79115 0.31017 0.0
H262 H 0.9265 0.71479 0.4987 0.0
H263 H 0.12256 0.72966 0.52899 0.0
C264 C 0.05575 1.02418 0.98341 0.0
C265 C 0.06051 1.00265 0.95062 0.0
C266 C 0.05571 0.05 0.02087 0.0
C267 C 0.0604 0.07153 0.0537 0.0
C268 C 0.56076 0.04998 0.48361 0.0
C269 C 0.55587 0.07156 0.45091 0.0
C270 C 0.5609 1.02409 0.52098 0.0
C271 C 0.55624 1.00251 0.55375 0.0
C272 C 0.55574 0.55 0.02087 0.0
C273 C 0.56039 0.57152 0.0537 0.0
C274 C 0.55584 0.52418 0.9834 0.0
C275 C 0.56065 0.50265 0.95062 0.0
C276 C 0.06099 0.52409 0.52097 0.0
C277 C 0.05637 0.50251 0.55375 0.0
C278 C 0.06079 0.54998 0.4836 0.0
C279 C 0.05586 0.57156 0.45091 0.0
C280 C 0.33891 0.20983 0.26379 0.0
C281 C 0.39097 0.21049 0.28354 0.0
C282 C 0.2777 0.2098 0.24093 0.0
C283 C 0.22564 0.21042 0.22118 0.0
C284 C 0.33874 0.86414 0.74084 0.0
C285 C 0.39089 0.86344 0.72114 0.0
C286 C 0.27741 0.86423 0.76364 0.0
C287 C 0.22525 0.86367 0.78336 0.0
C288 C 0.83972 0.9214 0.7613 0.0
C289 C 0.8921 0.91649 0.77768 0.0
C290 C 0.77691 0.92136 0.74307 0.0
C291 C 0.72449 0.9164 0.72669 0.0
C292 C 0.77657 0.15269 0.26154 0.0
C293 C 0.72413 0.15766 0.27786 0.0
C294 C 0.83948 0.15264 0.2434 0.0
C295 C 0.892 0.15754 0.22706 0.0
C296 C 0.83877 0.70983 0.2638 0.0
C297 C 0.89083 0.71049 0.28355 0.0
C298 C 0.77757 0.70981 0.24093 0.0
C299 C 0.72551 0.71042 0.22118 0.0
C300 C 0.83896 0.36414 0.74086 0.0
C301 C 0.89112 0.36345 0.72116 0.0
C302 C 0.77763 0.36423 0.76364 0.0
C303 C 0.72547 0.36367 0.78336 0.0
C304 C 0.33995 0.42141 0.7613 0.0
C305 C 0.39233 0.4165 0.77768 0.0
C306 C 0.27713 0.42138 0.74307 0.0
C307 C 0.22472 0.41642 0.7267 0.0
C308 C 0.27645 0.65271 0.26156 0.0
C309 C 0.22401 0.65768 0.27787 0.0
C310 C 0.33936 0.65265 0.24341 0.0
C311 C 0.39187 0.65755 0.22706 0.0
C312 C 0.1144 0.27693 0.84244 0.0
C313 C 0.11407 0.29287 0.80022 0.0
C314 C 0.1127 0.25823 0.89185 0.0
C315 C 0.10737 0.24303 0.93469 0.0
C316 C 0.50453 0.81567 0.39195 0.0
C317 C 0.50986 0.83089 0.43472 0.0
C318 C 0.50276 0.79695 0.34262 0.0
C319 C 0.50301 0.781 0.30045 0.0
C320 C 0.1118 0.81593 0.1125 0.0
C321 C 0.10641 0.83113 0.0697 0.0
C322 C 0.11369 0.79722 0.16187 0.0
C323 C 0.11354 0.78126 0.20407 0.0
C324 C 0.50225 0.27715 0.66194 0.0
C325 C 0.5025 0.29309 0.70412 0.0
C326 C 0.50402 0.25844 0.6126 0.0
C327 C 0.50936 0.24323 0.56982 0.0
C328 C 0.61421 0.77692 0.84241 0.0
C329 C 0.61386 0.79286 0.80019 0.0
C330 C 0.61254 0.75822 0.89182 0.0
C331 C 0.60722 0.74302 0.93467 0.0
C332 C 1.00473 0.31566 0.392 0.0
C333 C 1.01007 0.33088 0.43476 0.0
C334 C 1.00295 0.29694 0.34266 0.0
C335 C 1.00318 0.281 0.30049 0.0
C336 C 0.61199 0.31591 0.11249 0.0
C337 C 0.6066 0.33112 0.06969 0.0
C338 C 0.61387 0.2972 0.16186 0.0
C339 C 0.61372 0.28124 0.20406 0.0
C340 C 1.00385 0.75843 0.61263 0.0
C341 C 1.0092 0.74323 0.56984 0.0
C342 C 1.00206 0.77714 0.66197 0.0
C343 C 1.0023 0.79308 0.70415 0.0
loop_
_geom_bond_atom_site_label_1
_geom_bond_atom_site_label_2
_geom_bond_distance
_geom_bond_site_symmetry_2
_ccdc_geom_bond_type
Co0 N4 2.148 . S
Co0 N10 2.128 . S
Co0 N20 2.194 . S
Co0 O25 2.351 1_455 S
Co0 O26 2.155 1_455 S
Co0 O27 2.096 . S
C1 N4 1.301 1_655 S
C1 N5 1.328 1_655 S
C1 H6 0.930 . S
C2 C3 1.333 . S
C2 N4 1.317 . S
C2 H7 0.930 . S
C3 C2 1.333 . S
C3 N5 1.350 . S
C3 H29 0.931 . S
N4 Co0 2.148 . S
N4 C1 1.301 1_455 S
N4 C2 1.317 . S
N5 C1 1.328 1_455 S
N5 C3 1.350 . S
H6 C1 0.930 . S
H7 C2 0.930 . S
C8 O9 1.224 . S
C8 O27 1.247 . S
O9 C8 1.224 . S
N10 Co0 2.128 . S
N10 C11 1.355 1_455 S
N10 C13 1.311 . S
C11 N10 1.355 1_655 S
C11 C12 1.363 . S
C11 H23 0.929 . S
C12 C11 1.363 . S
C12 N14 1.375 1_655 S
C12 H30 0.931 . S
C13 N10 1.311 . S
C13 N14 1.347 . S
C13 H24 0.929 . S
N14 C12 1.375 1_455 S
N14 C13 1.347 . S
C15 C18 1.365 . S
C15 N20 1.328 1_655 S
C15 H21 0.929 . S
C16 C17 1.364 1_554 S
C16 C19 1.378 . S
C16 H31 0.929 . S
C17 C16 1.364 1_556 S
C17 C18 1.366 1_456 S
C18 C15 1.365 . S
C18 C17 1.366 1_654 S
C18 H32 0.930 1_554 S
C19 C16 1.378 . S
C19 N20 1.315 . S
C19 H22 0.930 . S
N20 Co0 2.194 . S
N20 C15 1.328 1_455 S
N20 C19 1.315 . S
H21 C15 0.929 . S
H22 C19 0.930 . S
H23 C11 0.929 . S
H24 C13 0.929 . S
O25 Co0 2.351 1_655 S
O25 C28 1.244 . S
O26 Co0 2.155 1_655 S
O26 C28 1.240 . S
O27 Co0 2.096 . S
O27 C8 1.247 . S
C28 O25 1.244 . S
C28 O26 1.240 . S
H29 C3 0.931 . S
H30 C12 0.931 . S
H31 C16 0.929 . S
H32 C18 0.930 1_556 S
Co33 N37 2.148 . S
Co33 N43 2.128 . S
Co33 N53 2.194 . S
Co33 O58 2.351 . S
Co33 O59 2.155 . S
Co33 O60 2.096 . S
C34 N37 1.301 . S
C34 N38 1.328 . S
C34 H39 0.930 . S
C35 C36 1.333 . S
C35 N37 1.317 . S
C35 H40 0.930 . S
C36 C35 1.333 . S
C36 N38 1.350 . S
C36 H62 0.931 . S
N37 Co33 2.148 . S
N37 C34 1.301 . S
N37 C35 1.317 . S
N38 C34 1.328 . S
N38 C36 1.350 . S
H39 C34 0.930 . S
H40 C35 0.930 . S
C41 O42 1.224 . S
C41 O60 1.247 . S
O42 C41 1.224 . S
N43 Co33 2.128 . S
N43 C44 1.355 . S
N43 C46 1.311 . S
C44 N43 1.355 . S
C44 C45 1.363 . S
C44 H56 0.929 . S
C45 C44 1.363 . S
C45 N47 1.375 . S
C45 H63 0.931 . S
C46 N43 1.311 . S
C46 N47 1.347 . S
C46 H57 0.929 . S
N47 C45 1.375 . S
N47 C46 1.347 . S
C48 C51 1.365 . S
C48 N53 1.328 . S
C48 H54 0.929 . S
C49 C50 1.362 . S
C49 C52 1.378 . S
C49 H64 0.929 . S
C50 C49 1.362 . S
C50 C51 1.366 . S
C51 C48 1.365 . S
C51 C50 1.366 . S
C51 H65 0.930 . S
C52 C49 1.378 . S
C52 N53 1.315 . S
C52 H55 0.930 . S
N53 Co33 2.194 . S
N53 C48 1.328 . S
N53 C52 1.315 . S
H54 C48 0.929 . S
H55 C52 0.930 . S
H56 C44 0.929 . S
H57 C46 0.929 . S
O58 Co33 2.351 . S
O58 C61 1.244 . S
O59 Co33 2.155 . S
O59 C61 1.240 . S
O60 Co33 2.096 . S
O60 C41 1.247 . S
C61 O58 1.244 . S
C61 O59 1.240 . S
H62 C36 0.931 . S
H63 C45 0.931 . S
H64 C49 0.929 . S
H65 C51 0.930 . S
Co66 N70 2.148 . S
Co66 N76 2.128 . S
Co66 N86 2.194 . S
Co66 O91 2.351 1_455 S
Co66 O92 2.155 1_455 S
Co66 O93 2.096 . S
C67 N70 1.301 1_655 S
C67 N71 1.328 1_655 S
C67 H72 0.930 . S
C68 C69 1.333 . S
C68 N70 1.317 . S
C68 H73 0.930 . S
C69 C68 1.333 . S
C69 N71 1.350 . S
C69 H95 0.931 . S
N70 Co66 2.148 . S
N70 C67 1.301 1_455 S
N70 C68 1.317 . S
N71 C67 1.328 1_455 S
N71 C69 1.350 . S
H72 C67 0.930 . S
H73 C68 0.930 . S
C74 O75 1.224 . S
C74 O93 1.247 . S
O75 C74 1.224 . S
N76 Co66 2.128 . S
N76 C77 1.355 1_455 S
N76 C79 1.311 . S
C77 N76 1.355 1_655 S
C77 C78 1.363 . S
C77 H89 0.929 . S
C78 C77 1.363 . S
C78 N80 1.375 1_655 S
C78 H96 0.931 . S
C79 N76 1.311 . S
C79 N80 1.347 . S
C79 H90 0.929 . S
N80 C78 1.375 1_455 S
N80 C79 1.347 . S
C81 C84 1.365 . S
C81 N86 1.328 1_655 S
C81 H87 0.929 . S
C82 C83 1.364 1_556 S
C82 C85 1.378 . S
C82 H97 0.929 . S
C83 C82 1.364 1_554 S
C83 C84 1.366 1_454 S
C84 C81 1.365 . S
C84 C83 1.366 1_656 S
C84 H98 0.930 1_556 S
C85 C82 1.378 . S
C85 N86 1.315 . S
C85 H88 0.930 . S
N86 Co66 2.194 . S
N86 C81 1.328 1_455 S
N86 C85 1.315 . S
H87 C81 0.929 . S
H88 C85 0.930 . S
H89 C77 0.929 . S
H90 C79 0.929 . S
O91 Co66 2.351 1_655 S
O91 C94 1.244 . S
O92 Co66 2.155 1_655 S
O92 C94 1.240 . S
O93 Co66 2.096 . S
O93 C74 1.247 . S
C94 O91 1.244 . S
C94 O92 1.240 . S
H95 C69 0.931 . S
H96 C78 0.931 . S
H97 C82 0.929 . S
H98 C84 0.930 1_554 S
Co99 N103 2.148 . S
Co99 N109 2.128 . S
Co99 N119 2.194 . S
Co99 O124 2.351 . S
Co99 O125 2.155 . S
Co99 O126 2.096 . S
C100 N103 1.301 . S
C100 N104 1.328 . S
C100 H105 0.930 . S
C101 C102 1.333 . S
C101 N103 1.317 . S
C101 H106 0.930 . S
C102 C101 1.333 . S
C102 N104 1.350 . S
C102 H128 0.931 . S
N103 Co99 2.148 . S
N103 C100 1.301 . S
N103 C101 1.317 . S
N104 C100 1.328 . S
N104 C102 1.350 . S
H105 C100 0.930 . S
H106 C101 0.930 . S
C107 O108 1.224 . S
C107 O126 1.247 . S
O108 C107 1.224 . S
N109 Co99 2.128 . S
N109 C110 1.355 . S
N109 C112 1.311 . S
C110 N109 1.355 . S
C110 C111 1.363 . S
C110 H122 0.929 . S
C111 C110 1.363 . S
C111 N113 1.375 . S
C111 H129 0.931 . S
C112 N109 1.311 . S
C112 N113 1.347 . S
C112 H123 0.929 . S
N113 C111 1.375 . S
N113 C112 1.347 . S
C114 C117 1.365 . S
C114 N119 1.328 . S
C114 H120 0.929 . S
C115 C116 1.362 . S
C115 C118 1.378 . S
C115 H130 0.929 . S
C116 C115 1.362 . S
C116 C117 1.366 . S
C117 C114 1.365 . S
C117 C116 1.366 . S
C117 H131 0.930 . S
C118 C115 1.378 . S
C118 N119 1.315 . S
C118 H121 0.930 . S
N119 Co99 2.194 . S
N119 C114 1.328 . S
N119 C118 1.315 . S
H120 C114 0.929 . S
H121 C118 0.930 . S
H122 C110 0.929 . S
H123 C112 0.929 . S
O124 Co99 2.351 . S
O124 C127 1.244 . S
O125 Co99 2.155 . S
O125 C127 1.240 . S
O126 Co99 2.096 . S
O126 C107 1.247 . S
C127 O124 1.244 . S
C127 O125 1.240 . S
H128 C102 0.931 . S
H129 C111 0.931 . S
H130 C115 0.929 . S
H131 C117 0.930 . S
Co132 N136 2.148 . S
Co132 N142 2.128 . S
Co132 N152 2.194 . S
Co132 O157 2.351 . S
Co132 O158 2.155 . S
Co132 O159 2.096 . S
C133 N136 1.301 . S
C133 N137 1.328 . S
C133 H138 0.930 . S
C134 C135 1.333 . S
C134 N136 1.317 . S
C134 H139 0.930 . S
C135 C134 1.333 . S
C135 N137 1.350 . S
C135 H161 0.931 . S
N136 Co132 2.148 . S
N136 C133 1.301 . S
N136 C134 1.317 . S
N137 C133 1.328 . S
N137 C135 1.350 . S
H138 C133 0.930 . S
H139 C134 0.930 . S
C140 O141 1.224 . S
C140 O159 1.247 . S
O141 C140 1.224 . S
N142 Co132 2.128 . S
N142 C143 1.355 . S
N142 C145 1.311 . S
C143 N142 1.355 . S
C143 C144 1.363 . S
C143 H155 0.929 . S
C144 C143 1.363 . S
C144 N146 1.375 . S
C144 H162 0.931 . S
C145 N142 1.311 . S
C145 N146 1.347 . S
C145 H156 0.929 . S
N146 C144 1.375 . S
N146 C145 1.347 . S
C147 C150 1.365 . S
C147 N152 1.328 . S
C147 H153 0.929 . S
C148 C149 1.364 1_554 S
C148 C151 1.378 . S
C148 H163 0.929 . S
C149 C148 1.364 1_556 S
C149 C150 1.366 1_556 S
C150 C147 1.365 . S
C150 C149 1.366 1_554 S
C150 H164 0.930 1_554 S
C151 C148 1.378 . S
C151 N152 1.315 . S
C151 H154 0.930 . S
N152 Co132 2.194 . S
N152 C147 1.328 . S
N152 C151 1.315 . S
H153 C147 0.929 . S
H154 C151 0.930 . S
H155 C143 0.929 . S
H156 C145 0.929 . S
O157 Co132 2.351 . S
O157 C160 1.244 . S
O158 Co132 2.155 . S
O158 C160 1.240 . S
O159 Co132 2.096 . S
O159 C140 1.247 . S
C160 O157 1.244 . S
C160 O158 1.240 . S
H161 C135 0.931 . S
H162 C144 0.931 . S
H163 C148 0.929 . S
H164 C150 0.930 1_556 S
Co165 N169 2.148 . S
Co165 N175 2.128 . S
Co165 N185 2.194 . S
Co165 O190 2.351 . S
Co165 O191 2.155 . S
Co165 O192 2.096 1_455 S
C166 N169 1.301 . S
C166 N170 1.328 . S
C166 H171 0.930 . S
C167 C168 1.333 1_655 S
C167 N169 1.317 1_655 S
C167 H172 0.930 . S
C168 C167 1.333 1_455 S
C168 N170 1.350 . S
C168 H194 0.931 1_455 S
N169 Co165 2.148 . S
N169 C166 1.301 . S
N169 C167 1.317 1_455 S
N170 C166 1.328 . S
N170 C168 1.350 . S
H171 C166 0.930 . S
H172 C167 0.930 . S
C173 O174 1.224 . S
C173 O192 1.247 . S
O174 C173 1.224 . S
N175 Co165 2.128 . S
N175 C176 1.355 . S
N175 C178 1.311 . S
C176 N175 1.355 . S
C176 C177 1.363 . S
C176 H188 0.929 . S
C177 C176 1.363 . S
C177 N179 1.375 . S
C177 H195 0.931 . S
C178 N175 1.311 . S
C178 N179 1.347 . S
C178 H189 0.926 1_455 S
N179 C177 1.375 . S
N179 C178 1.347 . S
C180 C183 1.365 . S
C180 N185 1.328 . S
C180 H186 0.929 . S
C181 C182 1.362 1_655 S
C181 C184 1.378 1_655 S
C181 H196 0.929 . S
C182 C181 1.362 1_455 S
C182 C183 1.366 . S
C183 C180 1.365 . S
C183 C182 1.366 . S
C183 H197 0.930 . S
C184 C181 1.378 1_455 S
C184 N185 1.315 . S
C184 H187 0.930 1_455 S
N185 Co165 2.194 . S
N185 C180 1.328 . S
N185 C184 1.315 . S
H186 C180 0.929 . S
H187 C184 0.930 1_655 S
H188 C176 0.929 . S
H189 C178 0.926 1_655 S
O190 Co165 2.351 . S
O190 C193 1.244 . S
O191 Co165 2.155 . S
O191 C193 1.240 . S
O192 Co165 2.096 1_655 S
O192 C173 1.247 . S
C193 O190 1.244 . S
C193 O191 1.240 . S
H194 C168 0.931 1_655 S
H195 C177 0.931 . S
H196 C181 0.929 . S
H197 C183 0.930 . S
Co198 N202 2.148 . S
Co198 N208 2.128 . S
Co198 N218 2.194 . S
Co198 O223 2.351 . S
Co198 O224 2.155 . S
Co198 O225 2.096 . S
C199 N202 1.301 . S
C199 N203 1.328 . S
C199 H204 0.930 . S
C200 C201 1.333 . S
C200 N202 1.317 . S
C200 H205 0.930 . S
C201 C200 1.333 . S
C201 N203 1.350 . S
C201 H227 0.931 . S
N202 Co198 2.148 . S
N202 C199 1.301 . S
N202 C200 1.317 . S
N203 C199 1.328 . S
N203 C201 1.350 . S
H204 C199 0.930 . S
H205 C200 0.930 . S
C206 O207 1.224 . S
C206 O225 1.247 . S
O207 C206 1.224 . S
N208 Co198 2.128 . S
N208 C209 1.355 . S
N208 C211 1.311 . S
C209 N208 1.355 . S
C209 C210 1.363 . S
C209 H221 0.929 . S
C210 C209 1.363 . S
C210 N212 1.375 . S
C210 H228 0.931 . S
C211 N208 1.311 . S
C211 N212 1.347 . S
C211 H222 0.929 . S
N212 C210 1.375 . S
N212 C211 1.347 . S
C213 C216 1.365 . S
C213 N218 1.328 . S
C213 H219 0.929 . S
C214 C215 1.364 1_556 S
C214 C217 1.378 . S
C214 H229 0.929 . S
C215 C214 1.364 1_554 S
C215 C216 1.366 1_554 S
C216 C213 1.365 . S
C216 C215 1.366 1_556 S
C216 H230 0.930 1_556 S
C217 C214 1.378 . S
C217 N218 1.315 . S
C217 H220 0.930 . S
N218 Co198 2.194 . S
N218 C213 1.328 . S
N218 C217 1.315 . S
H219 C213 0.929 . S
H220 C217 0.930 . S
H221 C209 0.929 . S
H222 C211 0.929 . S
O223 Co198 2.351 . S
O223 C226 1.244 . S
O224 Co198 2.155 . S
O224 C226 1.240 . S
O225 Co198 2.096 . S
O225 C206 1.247 . S
C226 O223 1.244 . S
C226 O224 1.240 . S
H227 C201 0.931 . S
H228 C210 0.931 . S
H229 C214 0.929 . S
H230 C216 0.930 1_554 S
Co231 N235 2.148 . S
Co231 N241 2.128 . S
Co231 N251 2.194 . S
Co231 O256 2.351 . S
Co231 O257 2.155 . S
Co231 O258 2.096 1_455 S
C232 N235 1.301 . S
C232 N236 1.328 . S
C232 H237 0.930 . S
C233 C234 1.333 1_655 S
C233 N235 1.317 1_655 S
C233 H238 0.930 . S
C234 C233 1.333 1_455 S
C234 N236 1.350 . S
C234 H260 0.931 1_455 S
N235 Co231 2.148 . S
N235 C232 1.301 . S
N235 C233 1.317 1_455 S
N236 C232 1.328 . S
N236 C234 1.350 . S
H237 C232 0.930 . S
H238 C233 0.930 . S
C239 O240 1.224 . S
C239 O258 1.247 . S
O240 C239 1.224 . S
N241 Co231 2.128 . S
N241 C242 1.355 . S
N241 C244 1.311 . S
C242 N241 1.355 . S
C242 C243 1.363 . S
C242 H254 0.929 . S
C243 C242 1.363 . S
C243 N245 1.375 . S
C243 H261 0.931 . S
C244 N241 1.311 . S
C244 N245 1.347 . S
C244 H255 0.926 1_455 S
N245 C243 1.375 . S
N245 C244 1.347 . S
C246 C249 1.365 . S
C246 N251 1.328 . S
C246 H252 0.929 . S
C247 C248 1.362 1_655 S
C247 C250 1.378 1_655 S
C247 H262 0.929 . S
C248 C247 1.362 1_455 S
C248 C249 1.366 . S
C249 C246 1.365 . S
C249 C248 1.366 . S
C249 H263 0.930 . S
C250 C247 1.378 1_455 S
C250 N251 1.315 . S
C250 H253 0.930 1_455 S
N251 Co231 2.194 . S
N251 C246 1.328 . S
N251 C250 1.315 . S
H252 C246 0.929 . S
H253 C250 0.930 1_655 S
H254 C242 0.929 . S
H255 C244 0.926 1_655 S
O256 Co231 2.351 . S
O256 C259 1.244 . S
O257 Co231 2.155 . S
O257 C259 1.240 . S
O258 Co231 2.096 1_655 S
O258 C239 1.247 . S
C259 O256 1.244 . S
C259 O257 1.240 . S
H260 C234 0.931 1_655 S
H261 C243 0.931 . S
H262 C247 0.929 . S
H263 C249 0.930 . S
C264 C265 1.170 . S
C264 C266 1.380 1_566 S
C265 C264 1.170 . S
C266 C264 1.380 1_544 S
C266 C267 1.170 1_655 S
C267 C266 1.170 1_455 S
C268 C269 1.170 . S
C268 C270 1.380 1_545 S
C269 C268 1.170 . S
C270 C268 1.380 1_565 S
C270 C271 1.170 . S
C271 C270 1.170 . S
C272 C273 1.170 . S
C272 C274 1.380 1_554 S
C273 C272 1.170 . S
C274 C272 1.380 1_556 S
C274 C275 1.170 . S
C275 C274 1.170 . S
C276 C277 1.170 . S
C276 C278 1.380 . S
C277 C276 1.170 . S
C278 C276 1.380 . S
C278 C279 1.170 . S
C279 C278 1.170 . S
C280 C281 1.170 . S
C280 C282 1.380 . S
C281 C280 1.170 . S
C282 C280 1.380 . S
C282 C283 1.170 . S
C283 C282 1.170 . S
C284 C285 1.170 . S
C284 C286 1.380 . S
C285 C284 1.170 . S
C286 C284 1.380 . S
C286 C287 1.170 . S
C287 C286 1.170 . S
C288 C289 1.170 . S
C288 C290 1.380 . S
C289 C288 1.170 . S
C290 C288 1.380 . S
C290 C291 1.170 . S
C291 C290 1.170 . S
C292 C293 1.170 . S
C292 C294 1.380 . S
C293 C292 1.170 . S
C294 C292 1.380 . S
C294 C295 1.170 . S
C295 C294 1.170 . S
C296 C297 1.170 . S
C296 C298 1.380 . S
C297 C296 1.170 . S
C298 C296 1.380 . S
C298 C299 1.170 . S
C299 C298 1.170 . S
C300 C301 1.170 . S
C300 C302 1.380 . S
C301 C300 1.170 . S
C302 C300 1.380 . S
C302 C303 1.170 . S
C303 C302 1.170 . S
C304 C305 1.170 . S
C304 C306 1.380 . S
C305 C304 1.170 . S
C306 C304 1.380 . S
C306 C307 1.170 . S
C307 C306 1.170 . S
C308 C309 1.170 . S
C308 C310 1.380 . S
C309 C308 1.170 . S
C310 C308 1.380 . S
C310 C311 1.170 . S
C311 C310 1.170 . S
C312 C313 1.170 . S
C312 C314 1.380 . S
C313 C312 1.170 . S
C314 C312 1.380 . S
C314 C315 1.170 . S
C315 C314 1.170 . S
C316 C317 1.170 . S
C316 C318 1.380 . S
C317 C316 1.170 . S
C318 C316 1.380 . S
C318 C319 1.170 . S
C319 C318 1.170 . S
C320 C321 1.170 . S
C320 C322 1.380 . S
C321 C320 1.170 . S
C322 C320 1.380 . S
C322 C323 1.170 . S
C323 C322 1.170 . S
C324 C325 1.170 . S
C324 C326 1.380 . S
C325 C324 1.170 . S
C326 C324 1.380 . S
C326 C327 1.170 . S
C327 C326 1.170 . S
C328 C329 1.170 . S
C328 C330 1.380 . S
C329 C328 1.170 . S
C330 C328 1.380 . S
C330 C331 1.170 . S
C331 C330 1.170 . S
C332 C333 1.170 . S
C332 C334 1.380 . S
C333 C332 1.170 . S
C334 C332 1.380 . S
C334 C335 1.170 . S
C335 C334 1.170 . S
C336 C337 1.170 . S
C336 C338 1.380 . S
C337 C336 1.170 . S
C338 C336 1.380 . S
C338 C339 1.170 . S
C339 C338 1.170 . S
C340 C341 1.170 . S
C340 C342 1.380 . S
C341 C340 1.170 . S
C342 C340 1.380 . S
C342 C343 1.170 . S
C343 C342 1.170 . S
C265 N71 1.419 1_655 S
C267 N5 1.427 . S
C269 N104 1.381 . S
C271 N38 1.394 . S
C273 N137 1.404 . S
C275 N203 1.388 . S
C277 N170 1.379 . S
C279 N236 1.389 . S
C281 C107 1.580 . S
C283 C8 1.605 . S
C285 C41 1.604 . S
C287 C74 1.585 . S
C289 C94 1.177 . S
C291 C61 1.190 . S
C293 C127 1.192 . S
C295 C28 1.177 . S
C297 C239 1.589 . S
C299 C140 1.582 . S
C301 C173 1.605 . S
C303 C206 1.578 . S
C305 C226 1.202 . S
C307 C193 1.183 . S
C309 C259 1.203 . S
C311 C160 1.183 . S
C313 N179 1.522 . S
C315 C17 1.584 . S
C317 C50 1.587 . S
C319 N146 1.523 . S
C321 C83 1.579 . S
C323 N245 1.538 . S
C325 N212 1.546 . S
C327 C116 1.581 . S
C329 N47 1.553 . S
C331 C149 1.580 . S
C333 C182 1.584 . S
C335 N14 1.557 . S
C337 C215 1.582 . S
C339 N113 1.557 . S
C341 C248 1.583 . S
C343 N80 1.526 . S
