# Generated by pormake.
# Topology zfk, (5)-cn, num edge types: 1
# Building blocks:
#     Node 0, Type 0, BuildingBlock: XOMCOT_clean_sbu_0, # of connection points: 5
#     Node 1, Type 0, BuildingBlock: XOMCOT_clean_sbu_0, # of connection points: 5
#     Node 2, Type 0, BuildingBlock: XOMCOT_clean_sbu_0, # of connection points: 5
#     Node 3, Type 0, BuildingBlock: XOMCOT_clean_sbu_0, # of connection points: 5
#     Node 4, Type 0, BuildingBlock: XOMCOT_clean_sbu_0, # of connection points: 5
#     Node 5, Type 0, BuildingBlock: XOMCOT_clean_sbu_0, # of connection points: 5
#     Node 6, Type 0, BuildingBlock: XOMCOT_clean_sbu_0, # of connection points: 5
#     Node 7, Type 0, BuildingBlock: XOMCOT_clean_sbu_0, # of connection points: 5
#     Node 8, Type 0, BuildingBlock: XOMCOT_clean_sbu_0, # of connection points: 5
#     Node 9, Type 0, BuildingBlock: XOMCOT_clean_sbu_0, # of connection points: 5
#     Node 10, Type 0, BuildingBlock: XOMCOT_clean_sbu_0, # of connection points: 5
#     Node 11, Type 0, BuildingBlock: XOMCOT_clean_sbu_0, # of connection points: 5
#     Node 12, Type 0, BuildingBlock: XOMCOT_clean_sbu_0, # of connection points: 5
#     Node 13, Type 0, BuildingBlock: XOMCOT_clean_sbu_0, # of connection points: 5
#     Node 14, Type 0, BuildingBlock: XOMCOT_clean_sbu_0, # of connection points: 5
#     Node 15, Type 0, BuildingBlock: XOMCOT_clean_sbu_0, # of connection points: 5
#     Edge 16, Type (0, 0), BuildingBlock: OJICUG_clean_linker_0, # of connection points: 2
#     Edge 17, Type (0, 0), BuildingBlock: OJICUG_clean_linker_0, # of connection points: 2
#     Edge 18, Type (0, 0), BuildingBlock: OJICUG_clean_linker_0, # of connection points: 2
#     Edge 19, Type (0, 0), BuildingBlock: OJICUG_clean_linker_0, # of connection points: 2
#     Edge 20, Type (0, 0), BuildingBlock: OJICUG_clean_linker_0, # of connection points: 2
#     Edge 21, Type (0, 0), BuildingBlock: OJICUG_clean_linker_0, # of connection points: 2
#     Edge 22, Type (0, 0), BuildingBlock: OJICUG_clean_linker_0, # of connection points: 2
#     Edge 23, Type (0, 0), BuildingBlock: OJICUG_clean_linker_0, # of connection points: 2
#     Edge 24, Type (0, 0), BuildingBlock: OJICUG_clean_linker_0, # of connection points: 2
#     Edge 25, Type (0, 0), BuildingBlock: OJICUG_clean_linker_0, # of connection points: 2
#     Edge 26, Type (0, 0), BuildingBlock: OJICUG_clean_linker_0, # of connection points: 2
#     Edge 27, Type (0, 0), BuildingBlock: OJICUG_clean_linker_0, # of connection points: 2
#     Edge 28, Type (0, 0), BuildingBlock: OJICUG_clean_linker_0, # of connection points: 2
#     Edge 29, Type (0, 0), BuildingBlock: OJICUG_clean_linker_0, # of connection points: 2
#     Edge 30, Type (0, 0), BuildingBlock: OJICUG_clean_linker_0, # of connection points: 2
#     Edge 31, Type (0, 0), BuildingBlock: OJICUG_clean_linker_0, # of connection points: 2
#     Edge 32, Type (0, 0), BuildingBlock: OJICUG_clean_linker_0, # of connection points: 2
#     Edge 33, Type (0, 0), BuildingBlock: OJICUG_clean_linker_0, # of connection points: 2
#     Edge 34, Type (0, 0), BuildingBlock: OJICUG_clean_linker_0, # of connection points: 2
#     Edge 35, Type (0, 0), BuildingBlock: OJICUG_clean_linker_0, # of connection points: 2
#     Edge 36, Type (0, 0), BuildingBlock: OJICUG_clean_linker_0, # of connection points: 2
#     Edge 37, Type (0, 0), BuildingBlock: OJICUG_clean_linker_0, # of connection points: 2
#     Edge 38, Type (0, 0), BuildingBlock: OJICUG_clean_linker_0, # of connection points: 2
#     Edge 39, Type (0, 0), BuildingBlock: OJICUG_clean_linker_0, # of connection points: 2
#     Edge 40, Type (0, 0), BuildingBlock: OJICUG_clean_linker_0, # of connection points: 2
#     Edge 41, Type (0, 0), BuildingBlock: OJICUG_clean_linker_0, # of connection points: 2
#     Edge 42, Type (0, 0), BuildingBlock: OJICUG_clean_linker_0, # of connection points: 2
#     Edge 43, Type (0, 0), BuildingBlock: OJICUG_clean_linker_0, # of connection points: 2
#     Edge 44, Type (0, 0), BuildingBlock: OJICUG_clean_linker_0, # of connection points: 2
#     Edge 45, Type (0, 0), BuildingBlock: OJICUG_clean_linker_0, # of connection points: 2
#     Edge 46, Type (0, 0), BuildingBlock: OJICUG_clean_linker_0, # of connection points: 2
#     Edge 47, Type (0, 0), BuildingBlock: OJICUG_clean_linker_0, # of connection points: 2
#     Edge 48, Type (0, 0), BuildingBlock: OJICUG_clean_linker_0, # of connection points: 2
#     Edge 49, Type (0, 0), BuildingBlock: OJICUG_clean_linker_0, # of connection points: 2
#     Edge 50, Type (0, 0), BuildingBlock: OJICUG_clean_linker_0, # of connection points: 2
#     Edge 51, Type (0, 0), BuildingBlock: OJICUG_clean_linker_0, # of connection points: 2
#     Edge 52, Type (0, 0), BuildingBlock: OJICUG_clean_linker_0, # of connection points: 2
#     Edge 53, Type (0, 0), BuildingBlock: OJICUG_clean_linker_0, # of connection points: 2
#     Edge 54, Type (0, 0), BuildingBlock: OJICUG_clean_linker_0, # of connection points: 2
#     Edge 55, Type (0, 0), BuildingBlock: OJICUG_clean_linker_0, # of connection points: 2
# Relax obj value: 0.349
# Max RMSD: 0.202
# Mean RMSD: 0.202
data_MOF--net-zfk--node1-XOMCOT_clean_sbu_0--edge1-OJICUG_clean_linker_0
_symmetry_space_group_name_H-M    P1
_symmetry_Int_Tables_number       1
_symmetry_cell_setting            triclinic
loop_
_symmetry_equiv_pos_as_xyz
'x, y, z'
_cell_length_a     21.403621
_cell_length_b     21.280767
_cell_length_c     50.76389
_cell_angle_alpha  90.334435
_cell_angle_beta   90.040667
_cell_angle_gamma 89.535244
loop_
_atom_site_label
_atom_site_type_symbol
_atom_site_fract_x
_atom_site_fract_y
_atom_site_fract_z
_atom_type_partial_charge
Co0 Co 0.044 0.22189 0.15972 0.0
C1 C 1.03086 0.27246 0.21508 0.0
C2 C 0.12169 0.23292 0.2083 0.0
C3 C 0.12158 0.26209 0.23258 0.0
N4 N 0.06433 0.23764 0.19724 0.0
N5 N 0.06479 0.28775 0.23683 0.0
H6 H 0.98381 0.28949 0.21163 0.0
H7 H 0.16294 0.21457 0.19864 0.0
C8 C 0.9726 0.10258 0.15376 0.0
O9 O 0.94175 0.11675 0.13221 0.0
N10 N 1.02372 0.21045 0.12193 0.0
C11 C 0.98519 0.24802 0.10781 0.0
C12 C 0.9838 0.22807 0.08205 0.0
C13 C 0.04458 0.16725 0.10401 0.0
N14 N 1.02108 0.1771 0.07947 0.0
C15 C 0.16018 0.17484 0.14011 0.0
C16 C 0.17147 0.07737 0.17583 0.0
C17 C 0.22427 0.09689 0.16201 0.0
C18 C 0.21541 0.14037 0.14136 0.0
C19 C 0.11694 0.11295 0.17395 0.0
N20 N 0.11274 0.16262 0.15702 0.0
H21 H 0.15668 0.21396 0.12668 0.0
H22 H 0.08158 0.10554 0.18867 0.0
H23 H 0.95942 0.28804 0.11534 0.0
H24 H 0.07459 0.12805 0.10893 0.0
O25 O 0.08745 0.29913 0.15135 0.0
O26 O 0.98735 0.2941 0.16157 0.0
O27 O 0.98904 0.14699 0.16961 0.0
C28 C 1.0354 0.329 0.15577 0.0
H29 H 0.16186 0.26848 0.24521 0.0
H30 H 0.95786 0.2506 0.0664 0.0
H31 H 0.17561 0.04333 0.19154 0.0
H32 H 0.25356 0.15568 0.12904 0.0
Co33 Co 0.37378 1.0151 0.65554 0.0
C34 C 0.34094 1.01659 0.7129 0.0
C35 C 0.35067 0.10958 0.69772 0.0
C36 C 0.3277 0.11386 0.723 0.0
N37 N 0.36074 0.04863 0.69135 0.0
N38 N 0.3209 0.05544 0.73251 0.0
H39 H 0.33693 0.96596 0.71355 0.0
H40 H 0.35349 0.1482 0.68412 0.0
C41 C 0.49621 0.94306 0.65391 0.0
O42 O 0.47324 0.90143 0.63743 0.0
N43 N 0.38391 0.98106 0.61961 0.0
C44 C 0.34671 0.93859 0.60758 0.0
C45 C 0.36685 0.92905 0.58213 0.0
C46 C 0.42697 0.99585 0.60103 0.0
N47 N 0.41724 0.96512 0.57793 0.0
C48 C 0.3895 0.12479 0.62536 0.0
C49 C 0.47656 0.17969 0.65831 0.0
C50 C 0.43964 0.21754 0.64187 0.0
C51 C 0.40267 0.18806 0.62266 0.0
C52 C 0.46343 0.1157 0.65984 0.0
N53 N 0.41595 0.09095 0.64516 0.0
H54 H 0.35299 0.10457 0.61335 0.0
H55 H 0.4844 0.08916 0.67561 0.0
H56 H 0.30706 0.91576 0.61637 0.0
H57 H 0.46429 1.02903 0.6042 0.0
O58 O 0.28968 0.04182 0.64728 0.0
O59 O 0.31336 0.94921 0.66407 0.0
O60 O 0.45916 0.9802 0.66646 0.0
C61 C 0.27 0.98927 0.65665 0.0
H62 H 0.31146 0.15641 0.7327 0.0
H63 H 0.34591 0.89771 0.56783 0.0
H64 H 0.50657 0.20068 0.67307 0.0
H65 H 0.3744 0.21495 0.609 0.0
Co66 Co 0.50473 0.34468 0.16324 0.0
C67 C 0.52318 0.27867 0.21488 0.0
C68 C 0.58752 0.35423 0.21065 0.0
C69 C 0.60108 0.32243 0.23368 0.0
N70 N 0.53722 0.32815 0.19907 0.0
N71 N 0.56049 0.27464 0.23641 0.0
H72 H 0.48695 0.24526 0.21042 0.0
H73 H 0.61452 0.39209 0.20245 0.0
C74 C 0.52718 0.47794 0.17884 0.0
O75 O 0.50449 0.4632 0.20191 0.0
N76 N 0.47864 0.35739 0.12608 0.0
C77 C 0.44451 0.31709 0.11137 0.0
C78 C 0.44315 0.33686 0.08563 0.0
C79 C 0.49858 0.40088 0.10837 0.0
N80 N 0.47738 0.38948 0.08347 0.0
C81 C 0.41252 0.36388 0.20267 0.0
C82 C 0.34141 0.31681 0.16258 0.0
C83 C 0.34896 0.2813 0.18565 0.0
C84 C 0.37717 0.3102 0.20734 0.0
C85 C 0.37664 0.37149 0.16009 0.0
N86 N 0.42525 0.37965 0.17709 0.0
H87 H 0.44064 0.38114 0.21876 0.0
H88 H 0.37459 0.39732 0.14184 0.0
H89 H 0.42225 0.27531 0.11863 0.0
H90 H 0.52997 0.43872 0.11329 0.0
O91 O 0.4759 0.26019 0.16208 0.0
O92 O 0.57079 0.28601 0.14995 0.0
O93 O 0.54143 0.43374 0.16238 0.0
C94 C 0.52921 0.2418 0.15346 0.0
H95 H 0.63978 0.33234 0.24673 0.0
H96 H 0.41863 0.31374 0.0697 0.0
H97 H 0.31394 0.29977 0.14613 0.0
H98 H 0.37927 0.2877 0.22641 0.0
Co99 Co 0.18987 0.55684 0.6653 0.0
C100 C 0.23957 0.55691 0.72034 0.0
C101 C 0.15997 0.61768 0.71728 0.0
C102 C 0.18614 0.62476 0.74209 0.0
N103 N 0.19279 0.57407 0.7036 0.0
N104 N 0.23669 0.58662 0.74402 0.0
H105 H 0.27597 0.52378 0.71502 0.0
H106 H 0.12192 0.64546 0.70937 0.0
C107 C 0.0528 0.56577 0.67407 0.0
O108 O 0.06221 0.52559 0.6932 0.0
N109 N 0.19138 0.54534 0.62661 0.0
C110 C 0.23883 0.51871 0.61285 0.0
C111 C 0.22639 0.5222 0.5864 0.0
C112 C 0.15061 0.56538 0.60777 0.0
N113 N 0.17106 0.55168 0.58296 0.0
C114 C 0.17783 0.44386 0.69344 0.0
C115 C 0.20552 0.3889 0.64607 0.0
C116 C 0.24624 0.37887 0.66746 0.0
C117 C 0.22727 0.40106 0.69231 0.0
C118 C 0.15779 0.43351 0.6489 0.0
N119 N 0.15826 0.47129 0.67064 0.0
H120 H 0.16428 0.46297 0.71235 0.0
H121 H 0.13034 0.44618 0.63182 0.0
H122 H 0.28003 0.49724 0.62129 0.0
H123 H 0.10729 0.58988 0.61202 0.0
O124 O 0.27632 0.5335 0.66686 0.0
O125 O 0.24336 0.63079 0.6605 0.0
O126 O 0.09998 0.59053 0.66241 0.0
C127 C 0.29053 0.59153 0.6632 0.0
H128 H 0.17097 0.6582 0.75694 0.0
H129 H 0.25552 0.50288 0.57089 0.0
H130 H 0.2134 0.36689 0.62706 0.0
H131 H 0.25268 0.39035 0.71018 0.0
Co132 Co 0.10961 1.03317 0.90097 0.0
C133 C 0.17166 1.02448 0.84797 0.0
C134 C 0.07366 0.04546 0.84494 0.0
C135 C 0.09862 0.04187 0.81986 0.0
N136 N 0.11943 1.03501 0.86263 0.0
N137 N 0.16035 1.02924 0.82176 0.0
H138 H 0.21721 1.01447 0.8563 0.0
H139 H 1.02548 0.05553 0.84994 0.0
C140 C 0.08312 0.17158 0.91253 0.0
O141 O 0.12625 0.16762 0.93086 0.0
N142 N 0.09882 1.02757 0.93975 0.0
C143 C 0.12127 0.97985 0.95465 0.0
C144 C 0.10926 0.99148 0.98073 0.0
C145 C 0.06931 0.06567 0.95755 0.0
N146 N 0.07741 0.04597 0.98275 0.0
C147 C 0.22938 0.05804 0.92563 0.0
C148 C 0.24711 0.16858 0.89869 0.0
C149 C 0.2763 0.15992 0.92304 0.0
C150 C 0.2713 0.10219 0.9357 0.0
C151 C 0.20417 0.12456 0.89001 0.0
N152 N 0.19081 0.0734 0.90512 0.0
H153 H 0.22463 1.01412 0.93572 0.0
H154 H 0.1753 0.13685 0.87333 0.0
H155 H 0.14723 0.93962 0.9474 0.0
H156 H 0.04267 0.1071 0.95252 0.0
O157 O 0.13587 0.94523 0.90001 0.0
O158 O 0.03795 0.97783 0.89706 0.0
O159 O 0.06671 0.12147 0.89981 0.0
C160 C 0.07716 0.93057 0.89802 0.0
H161 H 0.07366 0.05006 0.80163 0.0
H162 H 0.12365 0.96213 0.99702 0.0
H163 H 0.25167 0.21241 0.88812 0.0
H164 H 0.29583 0.09315 0.95398 0.0
Co165 Co 0.54969 0.04409 0.39929 0.0
C166 C 0.55991 0.1014 0.34627 0.0
C167 C 0.53339 1.00455 0.34334 0.0
C168 C 0.53486 1.03007 0.31833 0.0
N169 N 0.54842 0.04955 0.36088 0.0
N170 N 0.5511 0.09133 0.3201 0.0
H171 H 0.57167 0.14634 0.35493 0.0
H172 H 0.52108 0.95692 0.34839 0.0
C173 C 0.41767 1.00294 0.41325 0.0
O174 O 0.41934 0.04773 0.43112 0.0
N175 N 0.55562 1.03895 0.43803 0.0
C176 C 0.59525 0.07304 0.45303 0.0
C177 C 0.58721 0.0585 0.47906 0.0
C178 C 0.52703 1.00065 0.45558 0.0
N179 N 0.54359 1.01353 0.48086 0.0
C180 C 0.4993 0.16333 0.4201 0.0
C181 C 0.39522 0.16024 0.38789 0.0
C182 C 0.39425 0.19916 0.41009 0.0
C183 C 0.44856 0.20353 0.42547 0.0
C184 C 0.44565 0.12033 0.38364 0.0
N185 N 0.49506 0.11848 0.4008 0.0
H186 H 0.54007 0.16661 0.43234 0.0
H187 H 0.44108 0.08603 0.36805 0.0
H188 H 0.62695 0.10822 0.4458 0.0
H189 H 0.49477 0.96401 0.45018 0.0
O190 O 0.632 0.08327 0.39853 0.0
O191 O 0.61851 0.98121 0.39702 0.0
O192 O 0.4674 0.99063 0.39925 0.0
C193 C 0.65787 1.02788 0.39742 0.0
H194 H 0.52431 1.00508 0.30027 0.0
H195 H 0.60974 0.0818 0.49547 0.0
H196 H 0.35564 0.15792 0.37461 0.0
H197 H 0.45078 0.23534 0.44217 0.0
Co198 Co 0.48416 0.5638 0.90571 0.0
C199 C 0.41103 0.57616 0.8549 0.0
C200 C 0.50955 0.56244 0.84906 0.0
C201 C 0.48092 0.56591 0.82484 0.0
N202 N 0.46601 0.56829 0.86799 0.0
N203 N 0.41867 0.57387 0.82827 0.0
H204 H 0.36638 0.58125 0.8647 0.0
H205 H 0.55895 0.55562 0.85268 0.0
C206 C 0.5727 0.44886 0.91264 0.0
O207 O 0.60447 0.47747 0.93125 0.0
N208 N 0.50385 0.56032 0.94406 0.0
C209 C 0.52613 0.60797 0.95892 0.0
C210 C 0.53046 0.58949 0.9848 0.0
C211 C 0.4964 0.51264 0.96169 0.0
N212 N 0.51114 0.52951 0.9869 0.0
C213 C 0.37637 0.51321 0.93299 0.0
C214 C 0.37814 0.40584 0.90214 0.0
C215 C 0.35417 0.40281 0.92764 0.0
C216 C 0.34804 0.45841 0.94243 0.0
C217 C 0.40697 0.46007 0.89402 0.0
N218 N 0.41211 0.51027 0.9107 0.0
H219 H 0.37733 0.55473 0.94538 0.0
H220 H 0.43233 0.45807 0.87567 0.0
H221 H 0.53838 0.65396 0.95186 0.0
H222 H 0.47995 0.46655 0.95613 0.0
O223 O 0.44594 0.64702 0.90999 0.0
O224 O 0.54506 0.63274 0.90057 0.0
O225 O 0.53303 0.48058 0.89897 0.0
C226 C 0.49894 0.67269 0.90406 0.0
H227 H 0.50479 0.56291 0.8061 0.0
H228 H 0.54668 0.61891 1.00078 0.0
H229 H 0.37998 0.36467 0.88947 0.0
H230 H 0.32687 0.45821 0.96179 0.0
Co231 Co 0.03949 0.5197 0.39995 0.0
C232 C 1.02767 0.45995 0.34689 0.0
C233 C 0.05294 0.55692 0.3435 0.0
C234 C 0.05073 0.53021 0.31851 0.0
N235 N 0.03909 0.51261 0.36136 0.0
N236 N 1.0356 0.4689 0.32067 0.0
H237 H 1.01612 0.41515 0.35554 0.0
H238 H 0.06569 0.60471 0.34832 0.0
C239 C 0.1763 0.54799 0.41148 0.0
O240 O 0.17345 0.50264 0.42888 0.0
N241 N 1.03537 0.52561 0.43902 0.0
C242 C 0.98962 0.499 0.45347 0.0
C243 C 0.99902 0.51069 0.47971 0.0
C244 C 0.07081 0.55593 0.45741 0.0
N245 N 0.0504 0.54603 0.48246 0.0
C246 C 0.07236 0.39493 0.42017 0.0
C247 C 0.17844 0.3845 0.38933 0.0
C248 C 0.1717 0.34492 0.41089 0.0
C249 C 0.11642 0.34753 0.42557 0.0
C250 C 0.13409 0.4309 0.3848 0.0
N251 N 0.08423 0.43911 0.4014 0.0
H252 H 1.0307 0.39752 0.43194 0.0
H253 H 0.14409 0.46467 0.36961 0.0
H254 H 0.95226 0.47045 0.44577 0.0
H255 H 0.11027 0.58519 0.45287 0.0
O256 O 0.95193 0.49234 0.39933 0.0
O257 O 0.98145 0.59108 0.39825 0.0
O258 O 0.12596 0.56484 0.39906 0.0
C259 C 0.93538 0.55136 0.39883 0.0
H260 H 0.06243 0.55346 0.30028 0.0
H261 H 0.97157 0.49172 0.49565 0.0
H262 H 0.21993 0.38235 0.37711 0.0
H263 H 0.10892 0.31563 0.44179 0.0
Co264 Co 0.96879 0.53607 0.90592 0.0
C265 C 0.90699 0.53208 0.85267 0.0
C266 C 1.00234 0.5623 0.85138 0.0
C267 C 0.97756 0.56615 0.82645 0.0
N268 N 0.95814 0.54167 0.86792 0.0
N269 N 0.9173 0.54752 0.82707 0.0
H270 H 0.86282 0.51625 0.86043 0.0
H271 H 0.04897 0.57575 0.85725 0.0
C272 C 0.99498 0.67434 0.91717 0.0
O273 O 0.95285 0.67192 0.93593 0.0
N274 N 0.98226 0.52885 0.94433 0.0
C275 C 0.96142 0.48197 0.95982 0.0
C276 C 0.97274 0.49648 0.98579 0.0
C277 C 1.01057 0.56873 0.96147 0.0
N278 N 1.00274 0.55181 0.98694 0.0
C279 C 0.85017 0.55938 0.93193 0.0
C280 C 0.8288 0.67293 0.90753 0.0
C281 C 0.80091 0.6614 0.93194 0.0
C282 C 0.80785 0.60212 0.94322 0.0
C283 C 0.87167 0.62953 0.89734 0.0
N284 N 0.88733 0.57703 0.9114 0.0
H285 H 0.85632 0.51434 0.94107 0.0
H286 H 0.89881 0.6432 0.88041 0.0
H287 H 0.93588 0.44137 0.95304 0.0
H288 H 0.03693 0.60928 0.95576 0.0
O289 O 0.94224 0.44851 0.90443 0.0
O290 O 0.03994 0.47902 0.90056 0.0
O291 O 1.01149 0.62345 0.90494 0.0
C292 C 1.00054 0.43249 0.90136 0.0
H293 H 1.00193 0.58399 0.80945 0.0
H294 H 0.95636 0.47004 1.00252 0.0
H295 H 0.82292 0.71797 0.89794 0.0
H296 H 0.78459 0.59073 0.96151 0.0
Co297 Co 0.04619 0.91845 0.41968 0.0
C298 C 0.03763 0.87259 0.36404 0.0
C299 C 0.08462 0.80778 0.38988 0.0
C300 C 0.07964 0.7803 0.3655 0.0
N301 N 0.05792 0.86526 0.38907 0.0
N302 N 0.04978 0.82069 0.34932 0.0
H303 H 1.01244 0.91357 0.3571 0.0
H304 H 0.10455 0.78652 0.4073 0.0
C305 C 0.93213 1.00248 0.40834 0.0
O306 O 0.96187 0.05011 0.41893 0.0
N307 N 1.03534 0.97177 0.45135 0.0
C308 C 0.08095 1.00177 0.4646 0.0
C309 C 0.0609 1.01487 0.48978 0.0
C310 C 0.98665 0.97132 0.46852 0.0
N311 N 1.00216 0.99321 0.49283 0.0
C312 C 1.00148 0.83864 0.46236 0.0
C313 C 0.89738 0.80565 0.43353 0.0
C314 C 0.89189 0.81302 0.46077 0.0
C315 C 0.94621 0.82268 0.47568 0.0
C316 C 0.95131 0.82584 0.42135 0.0
N317 N 0.99873 0.85079 0.43595 0.0
H318 H 0.04155 0.85356 0.47373 0.0
H319 H 0.94984 0.83105 0.40024 0.0
H320 H 0.12785 1.00926 0.45759 0.0
H321 H 0.94288 0.94899 0.464 0.0
O322 O 0.13143 0.89616 0.4306 0.0
O323 O 0.10921 0.97613 0.40502 0.0
O324 O 0.9616 0.95025 0.40488 0.0
C325 C 0.15249 0.94148 0.41612 0.0
H326 H 0.09648 0.73387 0.36012 0.0
H327 H 0.09012 1.03428 0.5051 0.0
H328 H 0.85674 0.79595 0.42146 0.0
H329 H 0.94414 0.82611 0.49694 0.0
Co330 Co 0.59942 0.06063 0.90985 0.0
C331 C 0.66116 0.05012 0.85607 0.0
C332 C 0.71478 0.10002 0.88511 0.0
C333 C 0.74944 0.09542 0.86258 0.0
N334 N 0.65942 0.07169 0.88133 0.0
N335 N 0.71661 0.06329 0.84432 0.0
H336 H 0.62453 1.02256 0.84708 0.0
H337 H 0.7302 0.12074 0.90347 0.0
C338 C 0.51329 0.95039 0.8972 0.0
O339 O 0.46506 0.98214 0.9064 0.0
N340 N 0.54016 0.0516 0.93923 0.0
C341 C 0.50299 0.09719 0.94951 0.0
C342 C 0.47701 0.07643 0.97258 0.0
C343 C 0.53366 1.00259 0.95602 0.0
N344 N 0.49706 1.01727 0.97691 0.0
C345 C 0.67151 1.00398 0.95315 0.0
C346 C 0.71127 0.90477 0.92181 0.0
C347 C 0.71388 0.89855 0.94905 0.0
C348 C 0.69724 0.94996 0.96507 0.0
C349 C 0.68367 0.95738 0.91106 0.0
N350 N 0.65912 1.00381 0.92668 0.0
H351 H 0.65533 0.04259 0.96538 0.0
H352 H 0.67703 0.95735 0.89004 0.0
H353 H 0.49674 0.14385 0.94173 0.0
H354 H 0.55785 0.95805 0.95381 0.0
O355 O 0.62592 0.14165 0.92434 0.0
O356 O 0.55044 0.13271 0.89543 0.0
O357 O 0.56421 0.97997 0.89234 0.0
C358 C 0.58573 0.1703 0.9094 0.0
H359 H 0.79611 0.11362 0.86005 0.0
H360 H 0.44762 0.10383 0.98574 0.0
H361 H 0.72598 0.86672 0.90886 0.0
H362 H 0.7008 0.94715 0.98631 0.0
Co363 Co 0.53804 0.6627 0.40793 0.0
C364 C 0.54247 0.72234 0.35355 0.0
C365 C 0.55874 0.62264 0.35375 0.0
C366 C 0.5608 0.643 0.32812 0.0
N367 N 0.54725 0.67196 0.36984 0.0
N368 N 0.55102 0.70556 0.32792 0.0
H369 H 0.53299 0.7699 0.36018 0.0
H370 H 0.56518 0.57475 0.3603 0.0
C371 C 0.67797 0.63729 0.41888 0.0
O372 O 0.67641 0.6827 0.43636 0.0
N373 N 0.52693 0.65022 0.44656 0.0
C374 C 0.47315 0.66186 0.45988 0.0
C375 C 0.4835 0.65811 0.48649 0.0
C376 C 0.56854 0.63622 0.46607 0.0
N377 N 0.54379 0.64285 0.49058 0.0
C378 C 0.55109 0.78034 0.43514 0.0
C379 C 0.66594 0.80889 0.41434 0.0
C380 C 0.65043 0.83091 0.43968 0.0
C381 C 0.59001 0.8212 0.449 0.0
C382 C 0.62668 0.76564 0.40189 0.0
N383 N 0.57401 0.74579 0.41444 0.0
H384 H 0.50553 0.77087 0.44307 0.0
H385 H 0.64426 0.74068 0.38481 0.0
H386 H 0.42946 0.67699 0.4513 0.0
H387 H 0.61555 0.62012 0.46292 0.0
O388 O 0.45054 0.68887 0.4048 0.0
O389 O 0.4827 0.59068 0.4017 0.0
O390 O 0.62649 0.61947 0.40783 0.0
C391 C 0.43565 0.63029 0.40151 0.0
H392 H 0.57007 0.61419 0.31089 0.0
H393 H 0.44983 0.67009 0.50163 0.0
H394 H 0.71238 0.81584 0.40645 0.0
H395 H 0.57554 0.83936 0.46804 0.0
Co396 Co 1.01207 0.73317 0.16158 0.0
C397 C 1.00739 0.76706 0.21964 0.0
C398 C 0.08333 0.70582 0.20887 0.0
C399 C 0.08798 0.71872 0.23522 0.0
N400 N 1.03115 0.7333 0.19914 0.0
N401 N 0.04038 0.75702 0.24193 0.0
H402 H 0.96745 0.7984 0.21838 0.0
H403 H 0.11669 0.67876 0.19745 0.0
C404 C 1.02911 0.59883 0.1725 0.0
O405 O 0.99521 0.61191 0.19342 0.0
N406 N 1.00223 0.73446 0.12301 0.0
C407 C 0.98468 0.78326 0.10776 0.0
C408 C 0.98666 0.76508 0.0817 0.0
C409 C 1.01654 0.68782 0.10563 0.0
N410 N 1.00662 0.70485 0.08028 0.0
C411 C 0.89458 0.72266 0.18503 0.0
C412 C 0.86219 0.72961 0.13323 0.0
C413 C 0.85101 0.78265 0.14951 0.0
C414 C 0.85701 0.77281 0.1769 0.0
C415 C 0.8991 0.681 0.14353 0.0
N416 N 0.93 0.69311 0.16642 0.0
H417 H 0.90318 0.71515 0.20571 0.0
H418 H 0.91496 0.64359 0.13061 0.0
H419 H 0.97045 0.82901 0.11488 0.0
H420 H 1.03348 0.642 0.11134 0.0
O421 O 0.98068 0.8178 0.16478 0.0
O422 O 0.07953 0.79709 0.15741 0.0
O423 O 0.05004 0.64427 0.1583 0.0
C424 C 1.03555 0.83952 0.16135 0.0
H425 H 0.12396 0.70191 0.2485 0.0
H426 H 0.97292 0.79394 0.06518 0.0
H427 H 0.84924 0.72789 0.11267 0.0
H428 H 0.83838 0.80485 0.19155 0.0
Co429 Co 0.86772 0.94608 0.66998 0.0
C430 C 0.81491 0.98199 0.72267 0.0
C431 C 0.88794 0.04365 0.71011 0.0
C432 C 0.8674 0.06315 0.73449 0.0
N433 N 0.85605 0.99201 0.70288 0.0
N434 N 0.82141 1.02466 0.74232 0.0
H435 H 0.78235 0.94352 0.72306 0.0
H436 H 0.92426 0.06538 0.69862 0.0
C437 C 1.00333 0.9413 0.6611 0.0
O438 O 0.99099 0.8824 0.65536 0.0
N439 N 0.87817 0.90745 0.63518 0.0
C440 C 0.8433 0.86402 0.6227 0.0
C441 C 0.85501 0.86645 0.59585 0.0
C442 C 0.90796 0.93748 0.61539 0.0
N443 N 0.89616 0.91287 0.59135 0.0
C444 C 0.87274 0.81953 0.68876 0.0
C445 C 0.93179 0.85521 0.73495 0.0
C446 C 0.88919 0.80573 0.73555 0.0
C447 C 0.86681 0.7827 0.71127 0.0
C448 C 0.93836 0.88944 0.71173 0.0
N449 N 0.90223 0.87589 0.69014 0.0
H450 H 0.84518 0.80748 0.67174 0.0
H451 H 0.96349 0.93318 0.71288 0.0
H452 H 0.80736 0.83719 0.63197 0.0
H453 H 0.93378 0.98043 0.61826 0.0
O454 O 0.78265 0.91823 0.67171 0.0
O455 O 0.80975 1.00692 0.65294 0.0
O456 O 0.95761 0.97982 0.66625 0.0
C457 C 0.76517 0.96808 0.65958 0.0
H458 H 0.88537 0.10227 0.74585 0.0
H459 H 0.83277 0.83818 0.58079 0.0
H460 H 0.95113 0.87387 0.75308 0.0
H461 H 0.83476 0.74368 0.71047 0.0
Co462 Co 0.54412 0.85236 0.15099 0.0
C463 C 0.55135 0.83644 0.20873 0.0
C464 C 0.64329 0.84375 0.19233 0.0
C465 C 0.64849 0.83107 0.21895 0.0
N466 N 0.58221 0.84775 0.18594 0.0
N467 N 0.59059 0.82589 0.2292 0.0
H468 H 0.50103 0.83299 0.21004 0.0
H469 H 0.68149 0.84632 0.17844 0.0
C470 C 0.47696 0.97777 0.14828 0.0
O471 O 0.43462 0.96036 0.13106 0.0
N472 N 0.50446 0.85551 0.11594 0.0
C473 C 0.46791 0.81131 0.10464 0.0
C474 C 0.456 0.82742 0.07883 0.0
C475 C 0.51324 0.89831 0.09657 0.0
N476 N 0.48452 0.88218 0.07384 0.0
C477 C 0.64285 0.87523 0.11561 0.0
C478 C 0.68838 0.98229 0.13963 0.0
C479 C 0.72311 0.95393 0.11915 0.0
C480 C 0.69471 0.90429 0.10516 0.0
C481 C 0.63476 0.95291 0.14892 0.0
N482 N 0.61405 0.89886 0.13741 0.0
H483 H 0.62584 0.83286 0.1063 0.0
H484 H 0.61309 0.9708 0.16662 0.0
H485 H 0.45148 0.76923 0.11408 0.0
H486 H 0.54092 0.94032 0.09889 0.0
O487 O 0.57567 0.76869 0.14326 0.0
O488 O 0.48533 0.78743 0.16271 0.0
O489 O 0.50495 0.9363 0.16232 0.0
C490 C 0.52678 0.746 0.15456 0.0
H491 H 0.69152 0.82196 0.22954 0.0
H492 H 0.42842 0.8009 0.06484 0.0
H493 H 0.70647 1.02205 0.15053 0.0
H494 H 0.71638 0.88187 0.08827 0.0
Co495 Co 0.68985 0.64695 0.6695 0.0
C496 C 0.74978 0.60833 0.72006 0.0
C497 C 0.6641 0.55915 0.71355 0.0
C498 C 0.68994 0.53889 0.73699 0.0
N499 N 0.70116 0.60351 0.70308 0.0
N500 N 0.74403 0.56954 0.74093 0.0
H501 H 0.78857 0.63985 0.7174 0.0
H502 H 0.62132 0.54225 0.70479 0.0
C503 C 0.5543 0.6548 0.66045 0.0
O504 O 0.56747 0.71346 0.65489 0.0
N505 N 0.6804 0.68477 0.63457 0.0
C506 C 0.71723 0.72728 0.62278 0.0
C507 C 0.70426 0.72851 0.5961 0.0
C508 C 0.64775 0.65868 0.61439 0.0
N509 N 0.66015 0.68534 0.59089 0.0
C510 C 0.62178 0.70885 0.71078 0.0
C511 C 0.70181 0.80909 0.71144 0.0
C512 C 0.67781 0.78716 0.73547 0.0
C513 C 0.63178 0.74104 0.73446 0.0
C514 C 0.69276 0.7738 0.68852 0.0
N515 N 0.65894 0.71993 0.68931 0.0
H516 H 0.593 0.66749 0.71151 0.0
H517 H 0.72126 0.78423 0.67169 0.0
H518 H 0.75494 0.75125 0.63233 0.0
H519 H 0.61835 0.61792 0.61648 0.0
O520 O 0.77652 0.67032 0.67003 0.0
O521 O 0.74295 0.5813 0.65299 0.0
O522 O 0.59929 0.6162 0.66625 0.0
C523 C 0.7903 0.61774 0.65868 0.0
H524 H 0.6712 0.50323 0.74982 0.0
H525 H 0.7271 0.75739 0.58156 0.0
H526 H 0.73686 0.84536 0.71112 0.0
H527 H 0.61136 0.7232 0.75242 0.0
C528 C 0.09919 0.06972 1.02979 0.0
C529 C 0.06199 0.07837 1.00714 0.0
H530 H 0.11635 0.09409 0.07003 0.0
C531 C 1.01043 0.11933 1.00886 0.0
H532 H 0.14007 1.03951 1.02916 0.0
C533 C 0.99637 0.15057 1.0326 0.0
C534 C 1.034 0.14245 0.05526 0.0
H535 H 0.98046 0.12667 0.99196 0.0
H536 H 0.95564 0.1809 1.03304 0.0
C537 C 0.08552 0.10125 0.05342 0.0
C538 C 0.54533 0.9993 0.52939 0.0
C539 C 0.51418 0.99312 0.50503 0.0
H540 H 0.53925 0.99523 0.57153 0.0
C541 C 0.45167 0.97327 0.50517 0.0
H542 H 0.5938 1.01322 0.53014 0.0
C543 C 0.42048 0.96274 0.52901 0.0
C544 C 0.45084 0.97191 0.55337 0.0
H545 H 0.42582 0.96864 0.48695 0.0
H546 H 0.37172 0.94984 0.52832 0.0
C547 C 0.51403 0.98917 0.55321 0.0
C548 C 0.50404 0.48836 0.05979 0.0
C549 C 0.48883 0.42423 0.05924 0.0
H550 H 0.52191 0.57178 0.03807 0.0
C551 C 0.48286 0.39502 1.03429 0.0
H552 H 0.50853 0.5129 0.07842 0.0
C553 C 0.49072 0.42889 1.01078 0.0
C554 C 0.50487 0.49344 1.01124 0.0
H555 H 0.47233 0.34552 1.03277 0.0
H556 H 0.48563 0.40403 0.99228 0.0
C557 C 0.51169 0.52234 1.03629 0.0
C558 C 0.14599 0.5624 0.50942 0.0
C559 C 0.08062 0.55979 0.50746 0.0
H560 H 0.22587 0.56316 0.5348 0.0
C561 C 0.04547 0.56266 0.531 0.0
H562 H 0.17465 0.56029 0.49188 0.0
C563 C 0.07483 0.56339 0.55576 0.0
C564 C 0.14027 0.56127 0.55774 0.0
H565 H 0.99495 0.56194 0.53031 0.0
H566 H 0.04617 0.5623 0.57331 0.0
C567 C 0.17535 0.56314 0.53418 0.0
C568 C 1.01473 0.69336 1.03157 0.0
C569 C 1.01219 0.66603 0.05676 0.0
H570 H 1.01377 0.67921 0.98984 0.0
C571 C 1.01253 0.59998 0.05837 0.0
H572 H 1.01578 0.74385 1.02934 0.0
C573 C 1.01267 0.56263 1.03554 0.0
C574 C 1.0121 0.59004 1.01036 0.0
H575 H 1.01048 0.57672 0.07722 0.0
H576 H 1.0117 0.51211 1.0377 0.0
C577 C 1.01455 0.656 1.00874 0.0
C578 C 0.91258 0.94982 0.51875 0.0
C579 C 0.97174 0.97876 0.51783 0.0
H580 H 0.84251 0.90539 0.54244 0.0
C581 C 1.00335 0.98764 0.54196 0.0
H582 H 0.88565 0.94294 0.50101 0.0
C583 C 0.97833 0.96633 0.56571 0.0
C584 C 0.92057 0.93542 0.56647 0.0
H585 H 0.04864 1.00947 0.5428 0.0
H586 H 1.00543 0.97272 0.58352 0.0
C587 C 0.88766 0.92791 0.54265 0.0
C588 C 0.48938 1.01476 1.02548 0.0
C589 C 0.4912 0.98266 1.00117 0.0
H590 H 0.48621 1.00793 0.06752 0.0
C591 C 0.48992 0.91663 1.00115 0.0
H592 H 0.49134 0.06553 1.02624 0.0
C593 C 0.48653 0.88357 1.02495 0.0
C594 C 0.48569 0.91588 0.04924 0.0
H595 H 0.49137 0.89068 0.98275 0.0
H596 H 0.48604 0.83272 1.0244 0.0
C597 C 0.48712 0.98179 0.04918 0.0
C598 C 0.54216 0.63834 0.53952 0.0
C599 C 0.57577 0.64528 0.51585 0.0
H600 H 0.54242 0.64567 0.58167 0.0
C601 C 0.63943 0.66103 0.5176 0.0
H602 H 0.49348 0.62506 0.53916 0.0
C603 C 0.66735 0.67387 0.54212 0.0
C604 C 0.63281 0.66935 0.56561 0.0
H605 H 0.66728 0.66536 0.5 0.0
H606 H 0.71596 0.68748 0.54268 0.0
C607 C 0.57033 0.64986 0.564 0.0
C608 C 1.01809 1.00263 0.13421 0.0
C609 C 0.99785 1.03672 0.15662 0.0
H610 H 0.05087 0.91439 0.1183 0.0
C611 C 1.00219 1.00699 0.18122 0.0
H612 H 1.01578 1.02388 0.11489 0.0
C613 C 1.02285 0.94407 0.18311 0.0
C614 C 0.04119 0.90929 0.1606 0.0
H615 H 0.987 1.03149 0.19888 0.0
H616 H 1.02049 0.92109 0.20208 0.0
C617 C 0.03982 0.94011 0.13619 0.0
C618 C 0.59342 0.99451 0.67312 0.0
C619 C 0.56562 0.95356 0.65464 0.0
H620 H 0.67875 1.03327 0.68858 0.0
C621 C 0.60477 0.92507 0.63562 0.0
H622 H 0.56531 1.01693 0.68825 0.0
C623 C 0.6695 0.93564 0.63553 0.0
C624 C 0.69731 0.9757 0.65419 0.0
H625 H 0.5856 0.89359 0.62091 0.0
H626 H 0.69842 0.90983 0.62161 0.0
C627 C 0.65842 1.00502 0.673 0.0
C628 C 0.55818 0.634 0.14388 0.0
C629 C 0.52242 0.67687 0.15914 0.0
H630 H 0.58758 0.53785 0.13764 0.0
C631 C 0.48797 0.65337 0.1803 0.0
H632 H 0.58557 0.65061 0.12743 0.0
C633 C 0.49052 0.58922 0.18652 0.0
C634 C 0.52679 0.54615 0.17152 0.0
H635 H 0.46064 0.68488 0.19264 0.0
H636 H 0.46364 0.5734 0.20325 0.0
C637 C 0.55972 0.56934 0.14977 0.0
C638 C 0.94236 0.5292 0.66842 0.0
C639 C 0.98687 0.5774 0.66561 0.0
H640 H 0.84544 0.50316 0.66738 0.0
C641 C 0.96633 0.63614 0.65651 0.0
H642 H 0.95667 0.48309 0.67518 0.0
C643 C 0.90226 0.6476 0.65228 0.0
C644 C 0.8575 0.60012 0.65628 0.0
H645 H 0.99915 0.67418 0.65415 0.0
H646 H 0.88731 0.69466 0.64702 0.0
C647 C 0.87858 0.54022 0.66357 0.0
C648 C 0.9774 0.31512 0.90045 0.0
C649 C 1.02107 0.36471 0.90101 0.0
H650 H 0.96214 0.21499 0.903 0.0
C651 C 0.08472 0.34874 0.90282 0.0
H652 H 0.92789 0.32545 0.89905 0.0
C653 C 0.10397 0.2858 0.90524 0.0
C654 C 0.06052 0.23633 0.90563 0.0
H655 H 0.11985 0.38508 0.90327 0.0
H656 H 0.15338 0.27589 0.9073 0.0
C657 C 0.99692 0.25164 0.90254 0.0
C658 C 0.24579 0.9952 0.39446 0.0
C659 C 0.22202 0.95223 0.41288 0.0
H660 H 0.32655 0.0421 0.379 0.0
C661 C 0.26591 0.91902 0.42841 0.0
H662 H 0.21406 1.02162 0.38203 0.0
C663 C 0.3307 0.93074 0.42658 0.0
C664 C 0.35439 0.97474 0.40862 0.0
H665 H 0.25003 0.88548 0.44285 0.0
H666 H 0.36212 0.90765 0.44026 0.0
C667 C 0.31076 1.00619 0.39238 0.0
C668 C 0.53941 0.34238 0.89267 0.0
C669 C 0.57768 0.37767 0.90995 0.0
H670 H 0.51075 0.25054 0.87892 0.0
C671 C 0.61823 0.34335 0.92652 0.0
H672 H 0.50738 0.36628 0.87955 0.0
C673 C 0.62021 0.2771 0.92609 0.0
C674 C 0.58156 0.24164 0.90918 0.0
H675 H 0.64835 0.3677 0.94028 0.0
H676 H 0.65223 0.25354 0.93936 0.0
C677 C 0.54119 0.27556 0.89233 0.0
C678 C 0.31847 0.65428 0.40062 0.0
C679 C 0.36829 0.61 0.40055 0.0
H680 H 0.21867 0.67031 0.4035 0.0
C681 C 0.35279 0.54605 0.40139 0.0
H682 H 0.3283 0.70409 0.39999 0.0
C683 C 0.29024 0.52708 0.4035 0.0
C684 C 0.24054 0.57101 0.40463 0.0
H685 H 0.3892 0.51041 0.40132 0.0
H686 H 0.28073 0.47739 0.40482 0.0
C687 C 0.25537 0.63505 0.40246 0.0
C688 C 0.97426 0.78898 0.9106 0.0
C689 C 1.01667 0.73804 0.90915 0.0
H690 H 0.95936 0.88839 0.90773 0.0
C691 C 0.07873 0.75044 0.90192 0.0
H692 H 0.9259 0.78123 0.91584 0.0
C693 C 0.09832 0.8128 0.89761 0.0
C694 C 0.05592 0.86383 0.89982 0.0
H695 H 0.11258 0.71244 0.90069 0.0
H696 H 0.14695 0.82116 0.89304 0.0
C697 C 0.99337 0.85068 0.90579 0.0
C698 C 0.82512 0.95651 0.39571 0.0
C699 C 0.86241 1.00829 0.40316 0.0
H700 H 0.73232 0.92152 0.38782 0.0
C701 C 0.83131 0.06612 0.4075 0.0
H702 H 0.84665 0.91098 0.3923 0.0
C703 C 0.76594 0.07193 0.40507 0.0
C704 C 0.72835 1.02016 0.39831 0.0
H705 H 0.85744 0.10731 0.4133 0.0
H706 H 0.74465 0.11731 0.40911 0.0
C707 C 0.75921 0.96243 0.39327 0.0
C708 C 0.56048 0.77366 0.89421 0.0
C709 C 0.50455 0.74355 0.90152 0.0
H710 H 0.60731 0.86106 0.88631 0.0
C711 C 0.45184 0.78236 0.90603 0.0
H712 H 0.6022 0.74593 0.89044 0.0
C713 C 0.45477 0.84825 0.90373 0.0
C714 C 0.51052 0.87888 0.89669 0.0
H715 H 0.40768 0.76178 0.91158 0.0
H716 H 0.41288 0.87538 0.90791 0.0
C717 C 0.56336 0.84012 0.89176 0.0
C718 C 0.75502 0.55098 0.40356 0.0
C719 C 0.74189 0.61364 0.41092 0.0
H720 H 0.82616 0.48164 0.39435 0.0
C721 C 0.79268 0.65543 0.41262 0.0
H722 H 0.71747 0.51732 0.40216 0.0
C723 C 0.85433 0.63554 0.40776 0.0
C724 C 0.8682 0.57259 0.40143 0.0
H725 H 0.78482 0.70414 0.41807 0.0
H726 H 0.89151 0.66947 0.40978 0.0
C727 C 0.81749 0.53057 0.39917 0.0
C728 C 0.08422 0.50179 0.15383 0.0
C729 C 1.0307 0.53167 0.16403 0.0
H730 H 0.12801 0.41371 0.14335 0.0
C731 C 0.97749 0.49493 0.169 0.0
H732 H 0.12592 0.52865 0.1499 0.0
C733 C 0.97832 0.42985 0.16516 0.0
C734 C 1.03262 0.39911 0.15639 0.0
H735 H 0.9351 0.51649 0.1766 0.0
H736 H 0.93693 0.4034 0.17004 0.0
C737 C 0.0853 0.43595 0.15022 0.0
C738 C 0.0933 1.01698 0.65562 0.0
C739 C 0.07071 0.95784 0.66268 0.0
H740 H 0.17408 0.07285 0.64779 0.0
C741 C 0.11434 0.90999 0.66896 0.0
H742 H 0.06114 0.05455 0.65053 0.0
C743 C 0.17878 0.9201 0.66739 0.0
C744 C 0.20159 0.97828 0.65927 0.0
H745 H 0.09858 0.86382 0.67473 0.0
H746 H 0.21064 0.88194 0.67205 0.0
C747 C 0.15809 1.02698 0.65381 0.0
C748 C 0.48918 0.08348 0.12666 0.0
C749 C 0.49803 0.04497 0.14886 0.0
H750 H 0.49641 0.17572 0.11005 0.0
C751 C 0.52919 0.07091 0.17078 0.0
H752 H 0.46578 0.06541 0.10932 0.0
C753 C 0.54804 0.13424 0.17089 0.0
C754 C 0.53716 0.17323 0.14899 0.0
H755 H 0.53678 0.04299 0.18827 0.0
H756 H 0.56709 0.15399 0.18887 0.0
C757 C 0.50843 0.14649 0.12673 0.0
C758 C 0.40373 0.56262 0.66799 0.0
C759 C 0.35768 0.6088 0.66246 0.0
H760 H 0.50148 0.54031 0.67175 0.0
C761 C 0.37706 0.6694 0.65608 0.0
H762 H 0.39054 0.51515 0.67304 0.0
C763 C 0.44089 0.68346 0.65519 0.0
C764 C 0.48703 0.63736 0.6608 0.0
H765 H 0.34308 0.70584 0.65168 0.0
H766 H 0.4539 0.73099 0.65019 0.0
C767 C 0.46756 0.57673 0.66723 0.0
C768 C 0.06065 0.36068 0.30477 0.0
C769 C 0.03699 0.42144 0.29986 0.0
H770 H 0.08829 0.27108 0.28856 0.0
C771 C 1.0182 0.43569 0.27389 0.0
H772 H 0.07634 0.34813 0.32434 0.0
C773 C 1.02377 0.39074 0.25342 0.0
C774 C 0.04969 0.33087 0.25827 0.0
H775 H 0.99979 0.48191 0.26937 0.0
H776 H 1.01049 0.40372 0.23359 0.0
C777 C 0.06763 0.31648 0.28425 0.0
C778 C 0.23015 1.00538 0.75407 0.0
C779 C 0.28551 1.04026 0.75591 0.0
H780 H 0.14641 0.97527 0.7736 0.0
C781 C 0.30108 0.06747 0.78036 0.0
H782 H 0.21641 0.98496 0.73537 0.0
C783 C 0.26181 0.06084 0.80236 0.0
C784 C 0.20492 1.02855 0.80023 0.0
H785 H 0.34299 0.09531 0.78218 0.0
H786 H 0.27429 0.08376 0.8207 0.0
C787 C 0.18994 1.00029 0.77587 0.0
C788 C 0.58573 0.19462 0.30221 0.0
C789 C 0.55447 0.13706 0.29883 0.0
H790 H 0.61173 0.28294 0.2856 0.0
C791 C 0.52571 0.12569 0.27425 0.0
H792 H 0.60902 0.20546 0.32057 0.0
C793 C 0.52781 0.17026 0.25392 0.0
C794 C 0.5588 0.22797 0.25736 0.0
H795 H 0.50061 0.0826 0.27066 0.0
H796 H 0.50529 0.15891 0.23544 0.0
C797 C 0.58784 0.23919 0.28187 0.0
C798 C 0.38562 0.55376 0.78192 0.0
C799 C 0.37162 0.57623 0.80746 0.0
H800 H 0.35597 0.54023 0.74223 0.0
C801 C 0.31129 0.60127 0.81183 0.0
H802 H 0.43068 0.533 0.77751 0.0
C803 C 0.26704 0.60445 0.79123 0.0
C804 C 0.28163 0.58256 0.76561 0.0
H805 H 0.29837 0.61921 0.83106 0.0
H806 H 0.22129 0.6239 0.79549 0.0
C807 C 0.34178 0.55708 0.76145 0.0
C808 C 0.80815 0.54593 0.80945 0.0
C809 C 0.87314 0.54965 0.80524 0.0
H810 H 0.71627 0.54944 0.7923 0.0
C811 C 0.89421 0.55793 0.77913 0.0
H812 H 0.78952 0.54007 0.82906 0.0
C813 C 0.85201 0.56418 0.7582 0.0
C814 C 0.78738 0.56153 0.76255 0.0
H815 H 0.94347 0.55974 0.77462 0.0
H816 H 0.86999 0.57091 0.73848 0.0
C817 C 0.76591 0.55143 0.78835 0.0
C818 C 1.0178 0.731 0.28756 0.0
C819 C 1.02707 0.77692 0.26834 0.0
H820 H 1.01595 0.70952 0.32855 0.0
C821 C 1.03508 0.83975 0.2761 0.0
H822 H 1.0118 0.6823 0.28184 0.0
C823 C 0.03849 0.85548 0.30298 0.0
C824 C 1.03419 0.80831 0.3222 0.0
H825 H 0.04315 0.87554 0.26144 0.0
H826 H 0.04875 0.90341 0.30866 0.0
C827 C 1.02094 0.74654 0.31418 0.0
C828 C 0.70156 1.03873 0.7965 0.0
C829 C 0.74058 0.0445 0.81875 0.0
H830 H 0.69724 1.02735 0.7542 0.0
C831 C 0.80544 1.03633 0.81532 0.0
H832 H 0.65149 0.04451 0.79847 0.0
C833 C 0.83111 1.02769 0.79034 0.0
C834 C 0.79283 1.02549 0.768 0.0
H835 H 0.83695 1.03818 0.83197 0.0
H836 H 0.88138 1.02388 0.78833 0.0
C837 C 0.7276 1.0291 0.77125 0.0
C838 C 0.60943 0.8198 0.27754 0.0
C839 C 0.57494 0.80206 0.25506 0.0
H840 H 0.62709 0.8043 0.31886 0.0
C841 C 0.52793 0.75683 0.25796 0.0
H842 H 0.64592 0.8545 0.27593 0.0
C843 C 0.518 0.72767 0.2823 0.0
C844 C 0.55352 0.74409 0.30458 0.0
H845 H 0.50112 0.74149 0.24105 0.0
H846 H 0.48386 0.69053 0.2836 0.0
C847 C 0.59831 0.79163 0.30213 0.0
C848 C 0.35879 0.17586 0.16409 0.0
C849 C 0.33766 0.21311 0.18541 0.0
H850 H 0.34654 0.09083 0.14245 0.0
C851 C 0.30497 0.18403 0.20581 0.0
H852 H 0.38692 0.19535 0.14857 0.0
C853 C 0.2818 0.12357 0.2017 0.0
C854 C 0.28531 0.09739 0.17609 0.0
H855 H 0.29185 0.2098 0.22344 0.0
H856 H 0.24878 0.10601 0.21598 0.0
C857 C 0.33697 0.11471 0.16094 0.0
C858 C 0.33694 0.31336 0.68308 0.0
C859 C 0.30864 0.34984 0.6634 0.0
H860 H 0.40763 0.24657 0.69232 0.0
C861 C 0.34076 0.35858 0.6395 0.0
H862 H 0.31489 0.30667 0.70201 0.0
C863 C 0.39435 0.32344 0.63382 0.0
C864 C 0.41585 0.27851 0.65186 0.0
H865 H 0.32242 0.38947 0.62445 0.0
H866 H 0.41364 0.32513 0.61411 0.0
C867 C 0.39114 0.27928 0.67756 0.0
C868 C 0.36534 0.2293 0.93283 0.0
C869 C 0.30228 0.2153 0.93617 0.0
H870 H 0.43234 0.30248 0.92923 0.0
C871 C 0.26048 0.26251 0.94475 0.0
H872 H 0.398 0.19353 0.92611 0.0
C873 C 0.27919 0.32515 0.94544 0.0
C874 C 0.34018 0.34017 0.93813 0.0
H875 H 0.2116 0.25198 0.94773 0.0
H876 H 0.24449 0.36176 0.94862 0.0
C877 C 0.38451 0.29159 0.93434 0.0
C878 C 0.28237 0.33273 0.42426 0.0
C879 C 0.22495 0.30458 0.41812 0.0
H880 H 0.38172 0.32141 0.42634 0.0
C881 C 0.22243 0.23971 0.41389 0.0
H882 H 0.28484 0.38277 0.42796 0.0
C883 C 0.27767 0.20442 0.4133 0.0
C884 C 0.33603 0.23382 0.41662 0.0
H885 H 0.17856 0.21725 0.40914 0.0
H886 H 0.27502 0.1547 0.40874 0.0
C887 C 0.33766 0.29765 0.42347 0.0
C888 C 0.8155 0.76081 0.95656 0.0
C889 C 0.77454 0.71478 0.9469 0.0
H890 H 0.8268 0.85807 0.96636 0.0
C891 C 0.71017 0.7267 0.9469 0.0
H892 H 0.8654 0.75204 0.9569 0.0
C893 C 0.68793 0.78689 0.95323 0.0
C894 C 0.73011 0.83569 0.95889 0.0
H895 H 0.67794 0.6918 0.93947 0.0
H896 H 0.63893 0.79751 0.94991 0.0
C897 C 0.79341 0.82113 0.96249 0.0
C898 C 0.7242 0.79028 0.47275 0.0
C899 C 0.70213 0.84211 0.4583 0.0
H900 H 0.80565 0.73873 0.48502 0.0
C901 C 0.74122 0.89357 0.45485 0.0
H902 H 0.69395 0.75094 0.47624 0.0
C903 C 0.80445 0.88825 0.4613 0.0
C904 C 0.82913 0.83057 0.47033 0.0
H905 H 0.72463 0.93461 0.44442 0.0
H906 H 0.83539 0.92536 0.45512 0.0
C907 C 0.78797 0.78355 0.47812 0.0
C908 C 0.83874 0.90078 0.15507 0.0
C909 C 0.84213 0.84721 0.13846 0.0
H910 H 0.80969 0.99663 0.15833 0.0
C911 C 0.84218 0.85854 0.11098 0.0
H912 H 0.84828 0.89876 0.17593 0.0
C913 C 0.82411 0.91769 0.10154 0.0
C914 C 0.7931 0.95803 0.1193 0.0
H915 H 0.85298 0.82234 0.09669 0.0
H916 H 0.8172 0.92308 0.08053 0.0
C917 C 0.81894 0.95829 0.14474 0.0
C918 C 0.82 0.74004 0.76307 0.0
C919 C 0.8479 0.79857 0.75888 0.0
H920 H 0.73345 0.69103 0.76229 0.0
C921 C 0.81252 0.85243 0.76561 0.0
H922 H 0.84666 0.69727 0.75992 0.0
C923 C 0.74726 0.84932 0.76452 0.0
C924 C 0.71933 0.7914 0.75885 0.0
H925 H 0.83381 0.89825 0.76516 0.0
H926 H 0.72066 0.89251 0.76251 0.0
C927 C 0.75473 0.73674 0.76401 0.0
loop_
_geom_bond_atom_site_label_1
_geom_bond_atom_site_label_2
_geom_bond_distance
_geom_bond_site_symmetry_2
_ccdc_geom_bond_type
Co0 N4 2.148 . S
Co0 N10 2.128 1_655 S
Co0 N20 2.194 1_655 S
Co0 O25 2.351 1_655 S
Co0 O26 2.155 . S
Co0 O27 2.096 . S
C1 N4 1.299 1_455 S
C1 N5 1.328 . S
C1 H6 0.930 . S
C2 C3 1.333 . S
C2 N4 1.320 . S
C2 H7 0.930 . S
C3 C2 1.333 . S
C3 N5 1.350 1_655 S
C3 H29 0.931 . S
N4 Co0 2.148 . S
N4 C1 1.299 1_655 S
N4 C2 1.320 . S
N5 C1 1.328 . S
N5 C3 1.350 1_455 S
H6 C1 0.930 . S
H7 C2 0.930 . S
C8 O9 1.224 1_655 S
C8 O27 1.247 . S
O9 C8 1.224 1_455 S
N10 Co0 2.128 1_455 S
N10 C11 1.355 . S
N10 C13 1.311 1_455 S
C11 N10 1.355 . S
C11 C12 1.363 . S
C11 H23 0.929 . S
C12 C11 1.363 . S
C12 N14 1.375 1_455 S
C12 H30 0.931 . S
C13 N10 1.311 1_655 S
C13 N14 1.347 . S
C13 H24 0.929 . S
N14 C12 1.375 1_655 S
N14 C13 1.347 . S
C15 C18 1.365 . S
C15 N20 1.328 . S
C15 H21 0.929 . S
C16 C17 1.362 . S
C16 C19 1.378 . S
C16 H31 0.929 . S
C17 C16 1.362 . S
C17 C18 1.366 . S
C18 C15 1.365 . S
C18 C17 1.366 . S
C18 H32 0.930 . S
C19 C16 1.378 . S
C19 N20 1.315 . S
C19 H22 0.930 . S
N20 Co0 2.194 1_455 S
N20 C15 1.328 . S
N20 C19 1.315 . S
H21 C15 0.929 . S
H22 C19 0.930 . S
H23 C11 0.929 . S
H24 C13 0.929 . S
O25 Co0 2.351 1_455 S
O25 C28 1.244 1_455 S
O26 Co0 2.155 . S
O26 C28 1.240 . S
O27 Co0 2.096 . S
O27 C8 1.247 . S
C28 O25 1.244 1_655 S
C28 O26 1.240 . S
H29 C3 0.931 . S
H30 C12 0.931 . S
H31 C16 0.929 . S
H32 C18 0.930 . S
Co33 N37 2.148 . S
Co33 N43 2.128 1_565 S
Co33 N53 2.194 1_565 S
Co33 O58 2.351 1_565 S
Co33 O59 2.155 . S
Co33 O60 2.096 . S
C34 N37 1.299 1_545 S
C34 N38 1.328 . S
C34 H39 0.930 . S
C35 C36 1.333 . S
C35 N37 1.320 . S
C35 H40 0.930 . S
C36 C35 1.333 . S
C36 N38 1.350 1_565 S
C36 H62 0.931 . S
N37 Co33 2.148 . S
N37 C34 1.299 1_565 S
N37 C35 1.320 . S
N38 C34 1.328 . S
N38 C36 1.350 1_545 S
H39 C34 0.930 . S
H40 C35 0.930 . S
C41 O42 1.224 1_565 S
C41 O60 1.247 . S
O42 C41 1.224 1_545 S
N43 Co33 2.128 1_545 S
N43 C44 1.355 . S
N43 C46 1.311 1_545 S
C44 N43 1.355 . S
C44 C45 1.363 . S
C44 H56 0.929 . S
C45 C44 1.363 . S
C45 N47 1.375 1_545 S
C45 H63 0.931 . S
C46 N43 1.311 1_565 S
C46 N47 1.347 . S
C46 H57 0.929 . S
N47 C45 1.375 1_565 S
N47 C46 1.347 . S
C48 C51 1.365 . S
C48 N53 1.328 . S
C48 H54 0.929 . S
C49 C50 1.362 . S
C49 C52 1.378 . S
C49 H64 0.929 . S
C50 C49 1.362 . S
C50 C51 1.366 . S
C51 C48 1.365 . S
C51 C50 1.366 . S
C51 H65 0.930 . S
C52 C49 1.378 . S
C52 N53 1.315 . S
C52 H55 0.930 . S
N53 Co33 2.194 1_545 S
N53 C48 1.328 . S
N53 C52 1.315 . S
H54 C48 0.929 . S
H55 C52 0.930 . S
H56 C44 0.929 . S
H57 C46 0.929 . S
O58 Co33 2.351 1_545 S
O58 C61 1.244 1_545 S
O59 Co33 2.155 . S
O59 C61 1.240 . S
O60 Co33 2.096 . S
O60 C41 1.247 . S
C61 O58 1.244 1_565 S
C61 O59 1.240 . S
H62 C36 0.931 . S
H63 C45 0.931 . S
H64 C49 0.929 . S
H65 C51 0.930 . S
Co66 N70 2.148 . S
Co66 N76 2.128 . S
Co66 N86 2.194 . S
Co66 O91 2.351 . S
Co66 O92 2.155 . S
Co66 O93 2.096 . S
C67 N70 1.301 . S
C67 N71 1.328 . S
C67 H72 0.930 . S
C68 C69 1.333 . S
C68 N70 1.317 . S
C68 H73 0.930 . S
C69 C68 1.333 . S
C69 N71 1.350 . S
C69 H95 0.931 . S
N70 Co66 2.148 . S
N70 C67 1.301 . S
N70 C68 1.317 . S
N71 C67 1.328 . S
N71 C69 1.350 . S
H72 C67 0.930 . S
H73 C68 0.930 . S
C74 O75 1.224 . S
C74 O93 1.247 . S
O75 C74 1.224 . S
N76 Co66 2.128 . S
N76 C77 1.355 . S
N76 C79 1.311 . S
C77 N76 1.355 . S
C77 C78 1.363 . S
C77 H89 0.929 . S
C78 C77 1.363 . S
C78 N80 1.375 . S
C78 H96 0.931 . S
C79 N76 1.311 . S
C79 N80 1.347 . S
C79 H90 0.929 . S
N80 C78 1.375 . S
N80 C79 1.347 . S
C81 C84 1.365 . S
C81 N86 1.328 . S
C81 H87 0.929 . S
C82 C83 1.362 . S
C82 C85 1.378 . S
C82 H97 0.929 . S
C83 C82 1.362 . S
C83 C84 1.366 . S
C84 C81 1.365 . S
C84 C83 1.366 . S
C84 H98 0.930 . S
C85 C82 1.378 . S
C85 N86 1.315 . S
C85 H88 0.930 . S
N86 Co66 2.194 . S
N86 C81 1.328 . S
N86 C85 1.315 . S
H87 C81 0.929 . S
H88 C85 0.930 . S
H89 C77 0.929 . S
H90 C79 0.929 . S
O91 Co66 2.351 . S
O91 C94 1.244 . S
O92 Co66 2.155 . S
O92 C94 1.240 . S
O93 Co66 2.096 . S
O93 C74 1.247 . S
C94 O91 1.244 . S
C94 O92 1.240 . S
H95 C69 0.931 . S
H96 C78 0.931 . S
H97 C82 0.929 . S
H98 C84 0.930 . S
Co99 N103 2.148 . S
Co99 N109 2.128 . S
Co99 N119 2.194 . S
Co99 O124 2.351 . S
Co99 O125 2.155 . S
Co99 O126 2.096 . S
C100 N103 1.301 . S
C100 N104 1.328 . S
C100 H105 0.930 . S
C101 C102 1.333 . S
C101 N103 1.317 . S
C101 H106 0.930 . S
C102 C101 1.333 . S
C102 N104 1.350 . S
C102 H128 0.931 . S
N103 Co99 2.148 . S
N103 C100 1.301 . S
N103 C101 1.317 . S
N104 C100 1.328 . S
N104 C102 1.350 . S
H105 C100 0.930 . S
H106 C101 0.930 . S
C107 O108 1.224 . S
C107 O126 1.247 . S
O108 C107 1.224 . S
N109 Co99 2.128 . S
N109 C110 1.355 . S
N109 C112 1.311 . S
C110 N109 1.355 . S
C110 C111 1.363 . S
C110 H122 0.929 . S
C111 C110 1.363 . S
C111 N113 1.375 . S
C111 H129 0.931 . S
C112 N109 1.311 . S
C112 N113 1.347 . S
C112 H123 0.929 . S
N113 C111 1.375 . S
N113 C112 1.347 . S
C114 C117 1.365 . S
C114 N119 1.328 . S
C114 H120 0.929 . S
C115 C116 1.362 . S
C115 C118 1.378 . S
C115 H130 0.929 . S
C116 C115 1.362 . S
C116 C117 1.366 . S
C117 C114 1.365 . S
C117 C116 1.366 . S
C117 H131 0.930 . S
C118 C115 1.378 . S
C118 N119 1.315 . S
C118 H121 0.930 . S
N119 Co99 2.194 . S
N119 C114 1.328 . S
N119 C118 1.315 . S
H120 C114 0.929 . S
H121 C118 0.930 . S
H122 C110 0.929 . S
H123 C112 0.929 . S
O124 Co99 2.351 . S
O124 C127 1.244 . S
O125 Co99 2.155 . S
O125 C127 1.240 . S
O126 Co99 2.096 . S
O126 C107 1.247 . S
C127 O124 1.244 . S
C127 O125 1.240 . S
H128 C102 0.931 . S
H129 C111 0.931 . S
H130 C115 0.929 . S
H131 C117 0.930 . S
Co132 N136 2.148 . S
Co132 N142 2.128 1_655 S
Co132 N152 2.194 1_655 S
Co132 O157 2.351 1_655 S
Co132 O158 2.155 . S
Co132 O159 2.096 . S
C133 N136 1.299 1_455 S
C133 N137 1.328 . S
C133 H138 0.930 . S
C134 C135 1.333 . S
C134 N136 1.320 . S
C134 H139 0.930 . S
C135 C134 1.333 . S
C135 N137 1.350 1_655 S
C135 H161 0.931 . S
N136 Co132 2.148 . S
N136 C133 1.299 1_655 S
N136 C134 1.320 . S
N137 C133 1.328 . S
N137 C135 1.350 1_455 S
H138 C133 0.930 . S
H139 C134 0.930 . S
C140 O141 1.224 1_655 S
C140 O159 1.247 . S
O141 C140 1.224 1_455 S
N142 Co132 2.128 1_455 S
N142 C143 1.355 . S
N142 C145 1.311 1_455 S
C143 N142 1.355 . S
C143 C144 1.363 . S
C143 H155 0.929 . S
C144 C143 1.363 . S
C144 N146 1.375 1_455 S
C144 H162 0.931 . S
C145 N142 1.311 1_655 S
C145 N146 1.347 . S
C145 H156 0.929 . S
N146 C144 1.375 1_655 S
N146 C145 1.347 . S
C147 C150 1.365 . S
C147 N152 1.328 . S
C147 H153 0.929 . S
C148 C149 1.362 . S
C148 C151 1.378 . S
C148 H163 0.929 . S
C149 C148 1.362 . S
C149 C150 1.366 . S
C150 C147 1.365 . S
C150 C149 1.366 . S
C150 H164 0.930 . S
C151 C148 1.378 . S
C151 N152 1.315 . S
C151 H154 0.930 . S
N152 Co132 2.194 1_455 S
N152 C147 1.328 . S
N152 C151 1.315 . S
H153 C147 0.929 . S
H154 C151 0.930 . S
H155 C143 0.929 . S
H156 C145 0.929 . S
O157 Co132 2.351 1_455 S
O157 C160 1.244 1_455 S
O158 Co132 2.155 . S
O158 C160 1.240 . S
O159 Co132 2.096 . S
O159 C140 1.247 . S
C160 O157 1.244 1_655 S
C160 O158 1.240 . S
H161 C135 0.931 . S
H162 C144 0.931 . S
H163 C148 0.929 . S
H164 C150 0.930 . S
Co165 N169 2.148 . S
Co165 N175 2.128 1_565 S
Co165 N185 2.194 1_565 S
Co165 O190 2.351 1_565 S
Co165 O191 2.155 . S
Co165 O192 2.096 . S
C166 N169 1.299 1_545 S
C166 N170 1.328 . S
C166 H171 0.930 . S
C167 C168 1.333 . S
C167 N169 1.320 . S
C167 H172 0.930 . S
C168 C167 1.333 . S
C168 N170 1.350 1_565 S
C168 H194 0.931 . S
N169 Co165 2.148 . S
N169 C166 1.299 1_565 S
N169 C167 1.320 . S
N170 C166 1.328 . S
N170 C168 1.350 1_545 S
H171 C166 0.930 . S
H172 C167 0.930 . S
C173 O174 1.224 1_565 S
C173 O192 1.247 . S
O174 C173 1.224 1_545 S
N175 Co165 2.128 1_545 S
N175 C176 1.355 . S
N175 C178 1.311 1_545 S
C176 N175 1.355 . S
C176 C177 1.363 . S
C176 H188 0.929 . S
C177 C176 1.363 . S
C177 N179 1.375 1_545 S
C177 H195 0.931 . S
C178 N175 1.311 1_565 S
C178 N179 1.347 . S
C178 H189 0.929 . S
N179 C177 1.375 1_565 S
N179 C178 1.347 . S
C180 C183 1.365 . S
C180 N185 1.328 . S
C180 H186 0.929 . S
C181 C182 1.362 . S
C181 C184 1.378 . S
C181 H196 0.929 . S
C182 C181 1.362 . S
C182 C183 1.366 . S
C183 C180 1.365 . S
C183 C182 1.366 . S
C183 H197 0.930 . S
C184 C181 1.378 . S
C184 N185 1.315 . S
C184 H187 0.930 . S
N185 Co165 2.194 1_545 S
N185 C180 1.328 . S
N185 C184 1.315 . S
H186 C180 0.929 . S
H187 C184 0.930 . S
H188 C176 0.929 . S
H189 C178 0.929 . S
O190 Co165 2.351 1_545 S
O190 C193 1.244 1_545 S
O191 Co165 2.155 . S
O191 C193 1.240 . S
O192 Co165 2.096 . S
O192 C173 1.247 . S
C193 O190 1.244 1_565 S
C193 O191 1.240 . S
H194 C168 0.931 . S
H195 C177 0.931 . S
H196 C181 0.929 . S
H197 C183 0.930 . S
Co198 N202 2.148 . S
Co198 N208 2.128 . S
Co198 N218 2.194 . S
Co198 O223 2.351 . S
Co198 O224 2.155 . S
Co198 O225 2.096 . S
C199 N202 1.301 . S
C199 N203 1.328 . S
C199 H204 0.930 . S
C200 C201 1.333 . S
C200 N202 1.317 . S
C200 H205 0.930 . S
C201 C200 1.333 . S
C201 N203 1.350 . S
C201 H227 0.931 . S
N202 Co198 2.148 . S
N202 C199 1.301 . S
N202 C200 1.317 . S
N203 C199 1.328 . S
N203 C201 1.350 . S
H204 C199 0.930 . S
H205 C200 0.930 . S
C206 O207 1.224 . S
C206 O225 1.247 . S
O207 C206 1.224 . S
N208 Co198 2.128 . S
N208 C209 1.355 . S
N208 C211 1.311 . S
C209 N208 1.355 . S
C209 C210 1.363 . S
C209 H221 0.929 . S
C210 C209 1.363 . S
C210 N212 1.375 . S
C210 H228 0.931 . S
C211 N208 1.311 . S
C211 N212 1.347 . S
C211 H222 0.929 . S
N212 C210 1.375 . S
N212 C211 1.347 . S
C213 C216 1.365 . S
C213 N218 1.328 . S
C213 H219 0.929 . S
C214 C215 1.362 . S
C214 C217 1.378 . S
C214 H229 0.929 . S
C215 C214 1.362 . S
C215 C216 1.366 . S
C216 C213 1.365 . S
C216 C215 1.366 . S
C216 H230 0.930 . S
C217 C214 1.378 . S
C217 N218 1.315 . S
C217 H220 0.930 . S
N218 Co198 2.194 . S
N218 C213 1.328 . S
N218 C217 1.315 . S
H219 C213 0.929 . S
H220 C217 0.930 . S
H221 C209 0.929 . S
H222 C211 0.929 . S
O223 Co198 2.351 . S
O223 C226 1.244 . S
O224 Co198 2.155 . S
O224 C226 1.240 . S
O225 Co198 2.096 . S
O225 C206 1.247 . S
C226 O223 1.244 . S
C226 O224 1.240 . S
H227 C201 0.931 . S
H228 C210 0.931 . S
H229 C214 0.929 . S
H230 C216 0.930 . S
Co231 N235 2.148 . S
Co231 N241 2.128 . S
Co231 N251 2.194 . S
Co231 O256 2.351 . S
Co231 O257 2.155 . S
Co231 O258 2.096 . S
C232 N235 1.301 . S
C232 N236 1.328 . S
C232 H237 0.930 . S
C233 C234 1.333 . S
C233 N235 1.317 . S
C233 H238 0.930 . S
C234 C233 1.333 . S
C234 N236 1.350 . S
C234 H260 0.931 . S
N235 Co231 2.148 . S
N235 C232 1.301 . S
N235 C233 1.317 . S
N236 C232 1.328 . S
N236 C234 1.350 . S
H237 C232 0.930 . S
H238 C233 0.930 . S
C239 O240 1.224 . S
C239 O258 1.247 . S
O240 C239 1.224 . S
N241 Co231 2.128 . S
N241 C242 1.355 . S
N241 C244 1.311 . S
C242 N241 1.355 . S
C242 C243 1.363 . S
C242 H254 0.929 . S
C243 C242 1.363 . S
C243 N245 1.375 . S
C243 H261 0.931 . S
C244 N241 1.311 . S
C244 N245 1.347 . S
C244 H255 0.929 . S
N245 C243 1.375 . S
N245 C244 1.347 . S
C246 C249 1.365 . S
C246 N251 1.328 . S
C246 H252 0.929 . S
C247 C248 1.362 . S
C247 C250 1.378 . S
C247 H262 0.929 . S
C248 C247 1.362 . S
C248 C249 1.366 . S
C249 C246 1.365 . S
C249 C248 1.366 . S
C249 H263 0.930 . S
C250 C247 1.378 . S
C250 N251 1.315 . S
C250 H253 0.930 . S
N251 Co231 2.194 . S
N251 C246 1.328 . S
N251 C250 1.315 . S
H252 C246 0.929 . S
H253 C250 0.930 . S
H254 C242 0.929 . S
H255 C244 0.929 . S
O256 Co231 2.351 . S
O256 C259 1.244 . S
O257 Co231 2.155 . S
O257 C259 1.240 . S
O258 Co231 2.096 . S
O258 C239 1.247 . S
C259 O256 1.244 . S
C259 O257 1.240 . S
H260 C234 0.931 . S
H261 C243 0.931 . S
H262 C247 0.929 . S
H263 C249 0.930 . S
Co264 N268 2.148 . S
Co264 N274 2.128 1_455 S
Co264 N284 2.194 1_455 S
Co264 O289 2.351 1_455 S
Co264 O290 2.155 . S
Co264 O291 2.096 . S
C265 N268 1.299 1_655 S
C265 N269 1.328 . S
C265 H270 0.930 . S
C266 C267 1.333 . S
C266 N268 1.320 . S
C266 H271 0.930 . S
C267 C266 1.333 . S
C267 N269 1.350 1_455 S
C267 H293 0.931 . S
N268 Co264 2.148 . S
N268 C265 1.299 1_455 S
N268 C266 1.320 . S
N269 C265 1.328 . S
N269 C267 1.350 1_655 S
H270 C265 0.930 . S
H271 C266 0.930 . S
C272 O273 1.224 1_455 S
C272 O291 1.247 . S
O273 C272 1.224 1_655 S
N274 Co264 2.128 1_655 S
N274 C275 1.355 . S
N274 C277 1.311 1_655 S
C275 N274 1.355 . S
C275 C276 1.363 . S
C275 H287 0.929 . S
C276 C275 1.363 . S
C276 N278 1.375 1_655 S
C276 H294 0.931 . S
C277 N274 1.311 1_455 S
C277 N278 1.347 . S
C277 H288 0.929 . S
N278 C276 1.375 1_455 S
N278 C277 1.347 . S
C279 C282 1.365 . S
C279 N284 1.328 . S
C279 H285 0.929 . S
C280 C281 1.362 . S
C280 C283 1.378 . S
C280 H295 0.929 . S
C281 C280 1.362 . S
C281 C282 1.366 . S
C282 C279 1.365 . S
C282 C281 1.366 . S
C282 H296 0.930 . S
C283 C280 1.378 . S
C283 N284 1.315 . S
C283 H286 0.930 . S
N284 Co264 2.194 1_655 S
N284 C279 1.328 . S
N284 C283 1.315 . S
H285 C279 0.929 . S
H286 C283 0.930 . S
H287 C275 0.929 . S
H288 C277 0.929 . S
O289 Co264 2.351 1_655 S
O289 C292 1.244 1_655 S
O290 Co264 2.155 . S
O290 C292 1.240 . S
O291 Co264 2.096 . S
O291 C272 1.247 . S
C292 O289 1.244 1_455 S
C292 O290 1.240 . S
H293 C267 0.931 . S
H294 C276 0.931 . S
H295 C280 0.929 . S
H296 C282 0.930 . S
Co297 N301 2.148 . S
Co297 N307 2.128 1_545 S
Co297 N317 2.194 1_545 S
Co297 O322 2.351 1_545 S
Co297 O323 2.155 . S
Co297 O324 2.096 . S
C298 N301 1.299 1_565 S
C298 N302 1.328 . S
C298 H303 0.930 . S
C299 C300 1.333 . S
C299 N301 1.320 . S
C299 H304 0.930 . S
C300 C299 1.333 . S
C300 N302 1.350 1_545 S
C300 H326 0.931 . S
N301 Co297 2.148 . S
N301 C298 1.299 1_545 S
N301 C299 1.320 . S
N302 C298 1.328 . S
N302 C300 1.350 1_565 S
H303 C298 0.930 . S
H304 C299 0.930 . S
C305 O306 1.224 1_545 S
C305 O324 1.247 . S
O306 C305 1.224 1_565 S
N307 Co297 2.128 1_565 S
N307 C308 1.355 . S
N307 C310 1.311 1_565 S
C308 N307 1.355 . S
C308 C309 1.363 . S
C308 H320 0.929 . S
C309 C308 1.363 . S
C309 N311 1.375 1_565 S
C309 H327 0.931 . S
C310 N307 1.311 1_545 S
C310 N311 1.347 . S
C310 H321 0.929 . S
N311 C309 1.375 1_545 S
N311 C310 1.347 . S
C312 C315 1.365 . S
C312 N317 1.328 . S
C312 H318 0.929 . S
C313 C314 1.362 . S
C313 C316 1.378 . S
C313 H328 0.929 . S
C314 C313 1.362 . S
C314 C315 1.366 . S
C315 C312 1.365 . S
C315 C314 1.366 . S
C315 H329 0.930 . S
C316 C313 1.378 . S
C316 N317 1.315 . S
C316 H319 0.930 . S
N317 Co297 2.194 1_565 S
N317 C312 1.328 . S
N317 C316 1.315 . S
H318 C312 0.929 . S
H319 C316 0.930 . S
H320 C308 0.929 . S
H321 C310 0.929 . S
O322 Co297 2.351 1_565 S
O322 C325 1.244 1_565 S
O323 Co297 2.155 . S
O323 C325 1.240 . S
O324 Co297 2.096 . S
O324 C305 1.247 . S
C325 O322 1.244 1_545 S
C325 O323 1.240 . S
H326 C300 0.931 . S
H327 C309 0.931 . S
H328 C313 0.929 . S
H329 C315 0.930 . S
Co330 N334 2.148 . S
Co330 N340 2.128 . S
Co330 N350 2.194 . S
Co330 O355 2.351 . S
Co330 O356 2.155 . S
Co330 O357 2.096 . S
C331 N334 1.301 . S
C331 N335 1.328 . S
C331 H336 0.930 . S
C332 C333 1.333 . S
C332 N334 1.317 . S
C332 H337 0.930 . S
C333 C332 1.333 . S
C333 N335 1.350 . S
C333 H359 0.931 . S
N334 Co330 2.148 . S
N334 C331 1.301 . S
N334 C332 1.317 . S
N335 C331 1.328 . S
N335 C333 1.350 . S
H336 C331 0.930 . S
H337 C332 0.930 . S
C338 O339 1.224 . S
C338 O357 1.247 . S
O339 C338 1.224 . S
N340 Co330 2.128 . S
N340 C341 1.355 . S
N340 C343 1.311 . S
C341 N340 1.355 . S
C341 C342 1.363 . S
C341 H353 0.929 . S
C342 C341 1.363 . S
C342 N344 1.375 . S
C342 H360 0.931 . S
C343 N340 1.311 . S
C343 N344 1.347 . S
C343 H354 0.929 . S
N344 C342 1.375 . S
N344 C343 1.347 . S
C345 C348 1.365 . S
C345 N350 1.328 . S
C345 H351 0.929 . S
C346 C347 1.362 . S
C346 C349 1.378 . S
C346 H361 0.929 . S
C347 C346 1.362 . S
C347 C348 1.366 . S
C348 C345 1.365 . S
C348 C347 1.366 . S
C348 H362 0.930 . S
C349 C346 1.378 . S
C349 N350 1.315 . S
C349 H352 0.930 . S
N350 Co330 2.194 . S
N350 C345 1.328 . S
N350 C349 1.315 . S
H351 C345 0.929 . S
H352 C349 0.930 . S
H353 C341 0.929 . S
H354 C343 0.929 . S
O355 Co330 2.351 . S
O355 C358 1.244 . S
O356 Co330 2.155 . S
O356 C358 1.240 . S
O357 Co330 2.096 . S
O357 C338 1.247 . S
C358 O355 1.244 . S
C358 O356 1.240 . S
H359 C333 0.931 . S
H360 C342 0.931 . S
H361 C346 0.929 . S
H362 C348 0.930 . S
Co363 N367 2.148 . S
Co363 N373 2.128 . S
Co363 N383 2.194 . S
Co363 O388 2.351 . S
Co363 O389 2.155 . S
Co363 O390 2.096 . S
C364 N367 1.301 . S
C364 N368 1.328 . S
C364 H369 0.930 . S
C365 C366 1.333 . S
C365 N367 1.317 . S
C365 H370 0.930 . S
C366 C365 1.333 . S
C366 N368 1.350 . S
C366 H392 0.931 . S
N367 Co363 2.148 . S
N367 C364 1.301 . S
N367 C365 1.317 . S
N368 C364 1.328 . S
N368 C366 1.350 . S
H369 C364 0.930 . S
H370 C365 0.930 . S
C371 O372 1.224 . S
C371 O390 1.247 . S
O372 C371 1.224 . S
N373 Co363 2.128 . S
N373 C374 1.355 . S
N373 C376 1.311 . S
C374 N373 1.355 . S
C374 C375 1.363 . S
C374 H386 0.929 . S
C375 C374 1.363 . S
C375 N377 1.375 . S
C375 H393 0.931 . S
C376 N373 1.311 . S
C376 N377 1.347 . S
C376 H387 0.929 . S
N377 C375 1.375 . S
N377 C376 1.347 . S
C378 C381 1.365 . S
C378 N383 1.328 . S
C378 H384 0.929 . S
C379 C380 1.362 . S
C379 C382 1.378 . S
C379 H394 0.929 . S
C380 C379 1.362 . S
C380 C381 1.366 . S
C381 C378 1.365 . S
C381 C380 1.366 . S
C381 H395 0.930 . S
C382 C379 1.378 . S
C382 N383 1.315 . S
C382 H385 0.930 . S
N383 Co363 2.194 . S
N383 C378 1.328 . S
N383 C382 1.315 . S
H384 C378 0.929 . S
H385 C382 0.930 . S
H386 C374 0.929 . S
H387 C376 0.929 . S
O388 Co363 2.351 . S
O388 C391 1.244 . S
O389 Co363 2.155 . S
O389 C391 1.240 . S
O390 Co363 2.096 . S
O390 C371 1.247 . S
C391 O388 1.244 . S
C391 O389 1.240 . S
H392 C366 0.931 . S
H393 C375 0.931 . S
H394 C379 0.929 . S
H395 C381 0.930 . S
Co396 N400 2.148 . S
Co396 N406 2.128 1_455 S
Co396 N416 2.194 1_455 S
Co396 O421 2.351 1_455 S
Co396 O422 2.155 . S
Co396 O423 2.096 . S
C397 N400 1.299 1_655 S
C397 N401 1.328 . S
C397 H402 0.930 . S
C398 C399 1.333 . S
C398 N400 1.320 . S
C398 H403 0.930 . S
C399 C398 1.333 . S
C399 N401 1.350 1_455 S
C399 H425 0.931 . S
N400 Co396 2.148 . S
N400 C397 1.299 1_455 S
N400 C398 1.320 . S
N401 C397 1.328 . S
N401 C399 1.350 1_655 S
H402 C397 0.930 . S
H403 C398 0.930 . S
C404 O405 1.224 1_455 S
C404 O423 1.247 . S
O405 C404 1.224 1_655 S
N406 Co396 2.128 1_655 S
N406 C407 1.355 . S
N406 C409 1.311 1_655 S
C407 N406 1.355 . S
C407 C408 1.363 . S
C407 H419 0.929 . S
C408 C407 1.363 . S
C408 N410 1.375 1_655 S
C408 H426 0.931 . S
C409 N406 1.311 1_455 S
C409 N410 1.347 . S
C409 H420 0.929 . S
N410 C408 1.375 1_455 S
N410 C409 1.347 . S
C411 C414 1.365 . S
C411 N416 1.328 . S
C411 H417 0.929 . S
C412 C413 1.362 . S
C412 C415 1.378 . S
C412 H427 0.929 . S
C413 C412 1.362 . S
C413 C414 1.366 . S
C414 C411 1.365 . S
C414 C413 1.366 . S
C414 H428 0.930 . S
C415 C412 1.378 . S
C415 N416 1.315 . S
C415 H418 0.930 . S
N416 Co396 2.194 1_655 S
N416 C411 1.328 . S
N416 C415 1.315 . S
H417 C411 0.929 . S
H418 C415 0.930 . S
H419 C407 0.929 . S
H420 C409 0.929 . S
O421 Co396 2.351 1_655 S
O421 C424 1.244 1_655 S
O422 Co396 2.155 . S
O422 C424 1.240 . S
O423 Co396 2.096 . S
O423 C404 1.247 . S
C424 O421 1.244 1_455 S
C424 O422 1.240 . S
H425 C399 0.931 . S
H426 C408 0.931 . S
H427 C412 0.929 . S
H428 C414 0.930 . S
Co429 N433 2.148 . S
Co429 N439 2.128 1_545 S
Co429 N449 2.194 1_545 S
Co429 O454 2.351 1_545 S
Co429 O455 2.155 . S
Co429 O456 2.096 . S
C430 N433 1.299 1_565 S
C430 N434 1.328 . S
C430 H435 0.930 . S
C431 C432 1.333 . S
C431 N433 1.320 . S
C431 H436 0.930 . S
C432 C431 1.333 . S
C432 N434 1.350 1_545 S
C432 H458 0.931 . S
N433 Co429 2.148 . S
N433 C430 1.299 1_545 S
N433 C431 1.320 . S
N434 C430 1.328 . S
N434 C432 1.350 1_565 S
H435 C430 0.930 . S
H436 C431 0.930 . S
C437 O438 1.224 1_545 S
C437 O456 1.247 . S
O438 C437 1.224 1_565 S
N439 Co429 2.128 1_565 S
N439 C440 1.355 . S
N439 C442 1.311 1_565 S
C440 N439 1.355 . S
C440 C441 1.363 . S
C440 H452 0.929 . S
C441 C440 1.363 . S
C441 N443 1.375 1_565 S
C441 H459 0.931 . S
C442 N439 1.311 1_545 S
C442 N443 1.347 . S
C442 H453 0.929 . S
N443 C441 1.375 1_545 S
N443 C442 1.347 . S
C444 C447 1.365 . S
C444 N449 1.328 . S
C444 H450 0.929 . S
C445 C446 1.362 . S
C445 C448 1.378 . S
C445 H460 0.929 . S
C446 C445 1.362 . S
C446 C447 1.366 . S
C447 C444 1.365 . S
C447 C446 1.366 . S
C447 H461 0.930 . S
C448 C445 1.378 . S
C448 N449 1.315 . S
C448 H451 0.930 . S
N449 Co429 2.194 1_565 S
N449 C444 1.328 . S
N449 C448 1.315 . S
H450 C444 0.929 . S
H451 C448 0.930 . S
H452 C440 0.929 . S
H453 C442 0.929 . S
O454 Co429 2.351 1_565 S
O454 C457 1.244 1_565 S
O455 Co429 2.155 . S
O455 C457 1.240 . S
O456 Co429 2.096 . S
O456 C437 1.247 . S
C457 O454 1.244 1_545 S
C457 O455 1.240 . S
H458 C432 0.931 . S
H459 C441 0.931 . S
H460 C445 0.929 . S
H461 C447 0.930 . S
Co462 N466 2.148 . S
Co462 N472 2.128 . S
Co462 N482 2.194 . S
Co462 O487 2.351 . S
Co462 O488 2.155 . S
Co462 O489 2.096 . S
C463 N466 1.301 . S
C463 N467 1.328 . S
C463 H468 0.930 . S
C464 C465 1.333 . S
C464 N466 1.317 . S
C464 H469 0.930 . S
C465 C464 1.333 . S
C465 N467 1.350 . S
C465 H491 0.931 . S
N466 Co462 2.148 . S
N466 C463 1.301 . S
N466 C464 1.317 . S
N467 C463 1.328 . S
N467 C465 1.350 . S
H468 C463 0.930 . S
H469 C464 0.930 . S
C470 O471 1.224 . S
C470 O489 1.247 . S
O471 C470 1.224 . S
N472 Co462 2.128 . S
N472 C473 1.355 . S
N472 C475 1.311 . S
C473 N472 1.355 . S
C473 C474 1.363 . S
C473 H485 0.929 . S
C474 C473 1.363 . S
C474 N476 1.375 . S
C474 H492 0.931 . S
C475 N472 1.311 . S
C475 N476 1.347 . S
C475 H486 0.929 . S
N476 C474 1.375 . S
N476 C475 1.347 . S
C477 C480 1.365 . S
C477 N482 1.328 . S
C477 H483 0.929 . S
C478 C479 1.362 . S
C478 C481 1.378 . S
C478 H493 0.929 . S
C479 C478 1.362 . S
C479 C480 1.366 . S
C480 C477 1.365 . S
C480 C479 1.366 . S
C480 H494 0.930 . S
C481 C478 1.378 . S
C481 N482 1.315 . S
C481 H484 0.930 . S
N482 Co462 2.194 . S
N482 C477 1.328 . S
N482 C481 1.315 . S
H483 C477 0.929 . S
H484 C481 0.930 . S
H485 C473 0.929 . S
H486 C475 0.929 . S
O487 Co462 2.351 . S
O487 C490 1.244 . S
O488 Co462 2.155 . S
O488 C490 1.240 . S
O489 Co462 2.096 . S
O489 C470 1.247 . S
C490 O487 1.244 . S
C490 O488 1.240 . S
H491 C465 0.931 . S
H492 C474 0.931 . S
H493 C478 0.929 . S
H494 C480 0.930 . S
Co495 N499 2.148 . S
Co495 N505 2.128 . S
Co495 N515 2.194 . S
Co495 O520 2.351 . S
Co495 O521 2.155 . S
Co495 O522 2.096 . S
C496 N499 1.301 . S
C496 N500 1.328 . S
C496 H501 0.930 . S
C497 C498 1.333 . S
C497 N499 1.317 . S
C497 H502 0.930 . S
C498 C497 1.333 . S
C498 N500 1.350 . S
C498 H524 0.931 . S
N499 Co495 2.148 . S
N499 C496 1.301 . S
N499 C497 1.317 . S
N500 C496 1.328 . S
N500 C498 1.350 . S
H501 C496 0.930 . S
H502 C497 0.930 . S
C503 O504 1.224 . S
C503 O522 1.247 . S
O504 C503 1.224 . S
N505 Co495 2.128 . S
N505 C506 1.355 . S
N505 C508 1.311 . S
C506 N505 1.355 . S
C506 C507 1.363 . S
C506 H518 0.929 . S
C507 C506 1.363 . S
C507 N509 1.375 . S
C507 H525 0.931 . S
C508 N505 1.311 . S
C508 N509 1.347 . S
C508 H519 0.929 . S
N509 C507 1.375 . S
N509 C508 1.347 . S
C510 C513 1.365 . S
C510 N515 1.328 . S
C510 H516 0.929 . S
C511 C512 1.362 . S
C511 C514 1.378 . S
C511 H526 0.929 . S
C512 C511 1.362 . S
C512 C513 1.366 . S
C513 C510 1.365 . S
C513 C512 1.366 . S
C513 H527 0.930 . S
C514 C511 1.378 . S
C514 N515 1.315 . S
C514 H517 0.930 . S
N515 Co495 2.194 . S
N515 C510 1.328 . S
N515 C514 1.315 . S
H516 C510 0.929 . S
H517 C514 0.930 . S
H518 C506 0.929 . S
H519 C508 0.929 . S
O520 Co495 2.351 . S
O520 C523 1.244 . S
O521 Co495 2.155 . S
O521 C523 1.240 . S
O522 Co495 2.096 . S
O522 C503 1.247 . S
C523 O520 1.244 . S
C523 O521 1.240 . S
H524 C498 0.931 . S
H525 C507 0.931 . S
H526 C511 0.929 . S
H527 C513 0.930 . S
C528 C529 1.387 1_455 S
C528 H532 0.950 . S
C528 C537 1.390 1_556 S
C529 C528 1.387 1_655 S
C529 C531 1.387 . S
H530 C537 0.950 . S
C531 C529 1.387 . S
C531 C533 1.390 1_556 S
C531 H535 0.950 . S
H532 C528 0.950 . S
C533 C531 1.390 1_554 S
C533 C534 1.387 . S
C533 H536 0.950 . S
C534 C533 1.387 . S
C534 C537 1.387 1_655 S
H535 C531 0.950 . S
H536 C533 0.950 . S
C537 C528 1.390 1_554 S
C537 H530 0.950 . S
C537 C534 1.387 1_455 S
C538 C539 1.387 1_545 S
C538 H542 0.950 . S
C538 C547 1.390 . S
C539 C538 1.387 1_565 S
C539 C541 1.387 . S
H540 C547 0.950 . S
C541 C539 1.387 . S
C541 C543 1.390 . S
C541 H545 0.950 . S
H542 C538 0.950 . S
C543 C541 1.390 . S
C543 C544 1.387 . S
C543 H546 0.950 . S
C544 C543 1.387 . S
C544 C547 1.387 1_565 S
H545 C541 0.950 . S
H546 C543 0.950 . S
C547 C538 1.390 . S
C547 H540 0.950 . S
C547 C544 1.387 1_545 S
C548 C549 1.387 . S
C548 H552 0.950 . S
C548 C557 1.390 1_554 S
C549 C548 1.387 . S
C549 C551 1.387 . S
H550 C557 0.950 . S
C551 C549 1.387 . S
C551 C553 1.390 1_554 S
C551 H555 0.950 . S
H552 C548 0.950 . S
C553 C551 1.390 1_556 S
C553 C554 1.387 . S
C553 H556 0.950 . S
C554 C553 1.387 . S
C554 C557 1.387 . S
H555 C551 0.950 . S
H556 C553 0.950 . S
C557 C548 1.390 1_556 S
C557 H550 0.950 . S
C557 C554 1.387 . S
C558 C559 1.387 . S
C558 H562 0.950 . S
C558 C567 1.390 . S
C559 C558 1.387 . S
C559 C561 1.387 . S
H560 C567 0.950 . S
C561 C559 1.387 . S
C561 C563 1.390 . S
C561 H565 0.950 . S
H562 C558 0.950 . S
C563 C561 1.390 . S
C563 C564 1.387 . S
C563 H566 0.950 . S
C564 C563 1.387 . S
C564 C567 1.387 . S
H565 C561 0.950 . S
H566 C563 0.950 . S
C567 C558 1.390 . S
C567 H560 0.950 . S
C567 C564 1.387 . S
C568 C569 1.387 1_655 S
C568 H572 0.950 . S
C568 C577 1.390 1_554 S
C569 C568 1.387 1_455 S
C569 C571 1.387 . S
H570 C577 0.950 . S
C571 C569 1.387 . S
C571 C573 1.390 1_554 S
C571 H575 0.950 . S
H572 C568 0.950 . S
C573 C571 1.390 1_556 S
C573 C574 1.387 . S
C573 H576 0.950 . S
C574 C573 1.387 . S
C574 C577 1.387 1_455 S
H575 C571 0.950 . S
H576 C573 0.950 . S
C577 C568 1.390 1_556 S
C577 H570 0.950 . S
C577 C574 1.387 1_655 S
C578 C579 1.387 1_565 S
C578 H582 0.950 . S
C578 C587 1.390 . S
C579 C578 1.387 1_545 S
C579 C581 1.387 . S
H580 C587 0.950 . S
C581 C579 1.387 . S
C581 C583 1.390 . S
C581 H585 0.950 . S
H582 C578 0.950 . S
C583 C581 1.390 . S
C583 C584 1.387 . S
C583 H586 0.950 . S
C584 C583 1.387 . S
C584 C587 1.387 1_545 S
H585 C581 0.950 . S
H586 C583 0.950 . S
C587 C578 1.390 . S
C587 H580 0.950 . S
C587 C584 1.387 1_565 S
C588 C589 1.387 . S
C588 H592 0.950 . S
C588 C597 1.390 1_556 S
C589 C588 1.387 . S
C589 C591 1.387 . S
H590 C597 0.950 . S
C591 C589 1.387 . S
C591 C593 1.390 1_556 S
C591 H595 0.950 . S
H592 C588 0.950 . S
C593 C591 1.390 1_554 S
C593 C594 1.387 . S
C593 H596 0.950 . S
C594 C593 1.387 . S
C594 C597 1.387 . S
H595 C591 0.950 . S
H596 C593 0.950 . S
C597 C588 1.390 1_554 S
C597 H590 0.950 . S
C597 C594 1.387 . S
C598 C599 1.387 . S
C598 H602 0.950 . S
C598 C607 1.390 . S
C599 C598 1.387 . S
C599 C601 1.387 . S
H600 C607 0.950 . S
C601 C599 1.387 . S
C601 C603 1.390 . S
C601 H605 0.950 . S
H602 C598 0.950 . S
C603 C601 1.390 . S
C603 C604 1.387 . S
C603 H606 0.950 . S
C604 C603 1.387 . S
C604 C607 1.387 . S
H605 C601 0.950 . S
H606 C603 0.950 . S
C607 C598 1.390 . S
C607 H600 0.950 . S
C607 C604 1.387 . S
C608 C609 1.387 . S
C608 H612 0.950 . S
C608 C617 1.390 . S
C609 C608 1.387 . S
C609 C611 1.387 . S
H610 C617 0.950 1_455 S
C611 C609 1.387 . S
C611 C613 1.390 . S
C611 H615 0.950 . S
H612 C608 0.950 . S
C613 C611 1.390 . S
C613 C614 1.387 1_655 S
C613 H616 0.950 1_655 S
C614 C613 1.387 1_455 S
C614 C617 1.387 1_455 S
H615 C611 0.950 . S
H616 C613 0.950 1_455 S
C617 C608 1.390 . S
C617 H610 0.950 1_655 S
C617 C614 1.387 1_655 S
C618 C619 1.387 . S
C618 H622 0.950 . S
C618 C627 1.390 1_565 S
C619 C618 1.387 . S
C619 C621 1.387 . S
H620 C627 0.950 . S
C621 C619 1.387 . S
C621 C623 1.390 . S
C621 H625 0.950 . S
H622 C618 0.950 . S
C623 C621 1.390 . S
C623 C624 1.387 1_565 S
C623 H626 0.950 1_565 S
C624 C623 1.387 1_545 S
C624 C627 1.387 . S
H625 C621 0.950 . S
H626 C623 0.950 1_545 S
C627 C618 1.390 1_545 S
C627 H620 0.950 . S
C627 C624 1.387 . S
C628 C629 1.387 . S
C628 H632 0.950 . S
C628 C637 1.390 . S
C629 C628 1.387 . S
C629 C631 1.387 . S
H630 C637 0.950 . S
C631 C629 1.387 . S
C631 C633 1.390 . S
C631 H635 0.950 . S
H632 C628 0.950 . S
C633 C631 1.390 . S
C633 C634 1.387 . S
C633 H636 0.950 . S
C634 C633 1.387 . S
C634 C637 1.387 . S
H635 C631 0.950 . S
H636 C633 0.950 . S
C637 C628 1.390 . S
C637 H630 0.950 . S
C637 C634 1.387 . S
C638 C639 1.387 . S
C638 H642 0.950 . S
C638 C647 1.390 . S
C639 C638 1.387 . S
C639 C641 1.387 . S
H640 C647 0.950 . S
C641 C639 1.387 . S
C641 C643 1.390 . S
C641 H645 0.950 . S
H642 C638 0.950 . S
C643 C641 1.390 . S
C643 C644 1.387 . S
C643 H646 0.950 . S
C644 C643 1.387 . S
C644 C647 1.387 . S
H645 C641 0.950 . S
H646 C643 0.950 . S
C647 C638 1.390 . S
C647 H640 0.950 . S
C647 C644 1.387 . S
C648 C649 1.389 . S
C648 H652 0.952 . S
C648 C657 1.387 1_455 S
C649 C648 1.389 . S
C649 C651 1.387 1_455 S
H650 C657 0.950 . S
C651 C649 1.387 1_655 S
C651 C653 1.390 . S
C651 H655 0.950 1_655 S
H652 C648 0.952 . S
C653 C651 1.390 . S
C653 C654 1.387 . S
C653 H656 0.950 . S
C654 C653 1.387 . S
C654 C657 1.387 . S
H655 C651 0.950 1_455 S
H656 C653 0.950 . S
C657 C648 1.387 1_655 S
C657 H650 0.950 . S
C657 C654 1.387 . S
C658 C659 1.387 . S
C658 H662 0.950 . S
C658 C667 1.390 1_545 S
C659 C658 1.387 . S
C659 C661 1.387 1_545 S
H660 C667 0.950 . S
C661 C659 1.387 1_565 S
C661 C663 1.390 . S
C661 H665 0.950 1_565 S
H662 C658 0.950 . S
C663 C661 1.390 . S
C663 C664 1.387 . S
C663 H666 0.950 . S
C664 C663 1.387 . S
C664 C667 1.387 . S
H665 C661 0.950 1_545 S
H666 C663 0.950 . S
C667 C658 1.390 1_565 S
C667 H660 0.950 . S
C667 C664 1.387 . S
C668 C669 1.387 . S
C668 H672 0.950 . S
C668 C677 1.390 . S
C669 C668 1.387 . S
C669 C671 1.387 . S
H670 C677 0.950 . S
C671 C669 1.387 . S
C671 C673 1.390 . S
C671 H675 0.950 . S
H672 C668 0.950 . S
C673 C671 1.390 . S
C673 C674 1.387 . S
C673 H676 0.950 . S
C674 C673 1.387 . S
C674 C677 1.387 . S
H675 C671 0.950 . S
H676 C673 0.950 . S
C677 C668 1.390 . S
C677 H670 0.950 . S
C677 C674 1.387 . S
C678 C679 1.387 . S
C678 H682 0.950 . S
C678 C687 1.390 . S
C679 C678 1.387 . S
C679 C681 1.387 . S
H680 C687 0.950 . S
C681 C679 1.387 . S
C681 C683 1.390 . S
C681 H685 0.950 . S
H682 C678 0.950 . S
C683 C681 1.390 . S
C683 C684 1.387 . S
C683 H686 0.950 . S
C684 C683 1.387 . S
C684 C687 1.387 . S
H685 C681 0.950 . S
H686 C683 0.950 . S
C687 C678 1.390 . S
C687 H680 0.950 . S
C687 C684 1.387 . S
C688 C689 1.387 . S
C688 H692 0.950 . S
C688 C697 1.390 . S
C689 C688 1.387 . S
C689 C691 1.387 . S
H690 C697 0.950 1_655 S
C691 C689 1.387 . S
C691 C693 1.391 . S
C691 H695 0.950 . S
H692 C688 0.950 . S
C693 C691 1.391 . S
C693 C694 1.387 1_455 S
C693 H696 0.949 1_455 S
C694 C693 1.387 1_655 S
C694 C697 1.387 1_655 S
H695 C691 0.950 . S
H696 C693 0.949 1_655 S
C697 C688 1.390 . S
C697 H690 0.950 1_455 S
C697 C694 1.387 1_455 S
C698 C699 1.387 . S
C698 H702 0.950 . S
C698 C707 1.390 1_545 S
C699 C698 1.387 . S
C699 C701 1.387 . S
H700 C707 0.950 . S
C701 C699 1.387 . S
C701 C703 1.390 . S
C701 H705 0.950 . S
H702 C698 0.950 . S
C703 C701 1.390 . S
C703 C704 1.387 1_545 S
C703 H706 0.950 1_545 S
C704 C703 1.387 1_565 S
C704 C707 1.387 . S
H705 C701 0.950 . S
H706 C703 0.950 1_565 S
C707 C698 1.390 1_565 S
C707 H700 0.950 . S
C707 C704 1.387 . S
C708 C709 1.387 . S
C708 H712 0.950 . S
C708 C717 1.390 . S
C709 C708 1.387 . S
C709 C711 1.387 . S
H710 C717 0.950 . S
C711 C709 1.387 . S
C711 C713 1.390 . S
C711 H715 0.950 . S
H712 C708 0.950 . S
C713 C711 1.390 . S
C713 C714 1.387 . S
C713 H716 0.950 . S
C714 C713 1.387 . S
C714 C717 1.387 . S
H715 C711 0.950 . S
H716 C713 0.950 . S
C717 C708 1.390 . S
C717 H710 0.950 . S
C717 C714 1.387 . S
C718 C719 1.387 . S
C718 H722 0.950 . S
C718 C727 1.390 . S
C719 C718 1.387 . S
C719 C721 1.387 . S
H720 C727 0.950 . S
C721 C719 1.387 . S
C721 C723 1.390 . S
C721 H725 0.950 . S
H722 C718 0.950 . S
C723 C721 1.390 . S
C723 C724 1.387 . S
C723 H726 0.950 . S
C724 C723 1.387 . S
C724 C727 1.387 . S
H725 C721 0.950 . S
H726 C723 0.950 . S
C727 C718 1.390 . S
C727 H720 0.950 . S
C727 C724 1.387 . S
C728 C729 1.387 . S
C728 H732 0.950 . S
C728 C737 1.390 . S
C729 C728 1.387 . S
C729 C731 1.387 . S
H730 C737 0.950 1_655 S
C731 C729 1.387 . S
C731 C733 1.390 . S
C731 H735 0.950 . S
H732 C728 0.950 . S
C733 C731 1.390 . S
C733 C734 1.387 1_455 S
C733 H736 0.950 1_455 S
C734 C733 1.387 1_655 S
C734 C737 1.387 1_655 S
H735 C731 0.950 . S
H736 C733 0.950 1_655 S
C737 C728 1.390 . S
C737 H730 0.950 1_455 S
C737 C734 1.387 1_455 S
C738 C739 1.387 . S
C738 H742 0.950 . S
C738 C747 1.390 . S
C739 C738 1.387 . S
C739 C741 1.387 . S
H740 C747 0.950 1_565 S
C741 C739 1.387 . S
C741 C743 1.390 1_545 S
C741 H745 0.950 . S
H742 C738 0.950 . S
C743 C741 1.390 1_565 S
C743 C744 1.388 . S
C743 H746 0.950 . S
C744 C743 1.388 . S
C744 C747 1.387 1_565 S
H745 C741 0.950 . S
H746 C743 0.950 . S
C747 C738 1.390 . S
C747 H740 0.950 1_545 S
C747 C744 1.387 1_545 S
C748 C749 1.387 . S
C748 H752 0.950 . S
C748 C757 1.390 . S
C749 C748 1.387 . S
C749 C751 1.387 . S
H750 C757 0.950 . S
C751 C749 1.387 . S
C751 C753 1.390 . S
C751 H755 0.950 . S
H752 C748 0.950 . S
C753 C751 1.390 . S
C753 C754 1.387 . S
C753 H756 0.950 . S
C754 C753 1.387 . S
C754 C757 1.387 . S
H755 C751 0.950 . S
H756 C753 0.950 . S
C757 C748 1.390 . S
C757 H750 0.950 . S
C757 C754 1.387 . S
C758 C759 1.387 . S
C758 H762 0.950 . S
C758 C767 1.390 . S
C759 C758 1.387 . S
C759 C761 1.387 . S
H760 C767 0.950 . S
C761 C759 1.387 . S
C761 C763 1.390 . S
C761 H765 0.950 . S
H762 C758 0.950 . S
C763 C761 1.390 . S
C763 C764 1.387 . S
C763 H766 0.950 . S
C764 C763 1.387 . S
C764 C767 1.387 . S
H765 C761 0.950 . S
H766 C763 0.950 . S
C767 C758 1.390 . S
C767 H760 0.950 . S
C767 C764 1.387 . S
C768 C769 1.387 . S
C768 H772 0.950 . S
C768 C777 1.390 . S
C769 C768 1.387 . S
C769 C771 1.387 . S
H770 C777 0.950 . S
C771 C769 1.387 . S
C771 C773 1.390 . S
C771 H775 0.950 . S
H772 C768 0.950 . S
C773 C771 1.390 . S
C773 C774 1.387 . S
C773 H776 0.950 . S
C774 C773 1.387 . S
C774 C777 1.387 . S
H775 C771 0.950 . S
H776 C773 0.950 . S
C777 C768 1.390 . S
C777 H770 0.950 . S
C777 C774 1.387 . S
C778 C779 1.387 . S
C778 H782 0.950 . S
C778 C787 1.390 . S
C779 C778 1.387 . S
C779 C781 1.387 . S
H780 C787 0.950 . S
C781 C779 1.387 . S
C781 C783 1.390 . S
C781 H785 0.950 1_545 S
H782 C778 0.950 . S
C783 C781 1.390 . S
C783 C784 1.387 . S
C783 H786 0.950 . S
C784 C783 1.387 . S
C784 C787 1.387 . S
H785 C781 0.950 1_565 S
H786 C783 0.950 . S
C787 C778 1.390 . S
C787 H780 0.950 . S
C787 C784 1.387 . S
C788 C789 1.387 . S
C788 H792 0.950 . S
C788 C797 1.390 . S
C789 C788 1.387 . S
C789 C791 1.387 . S
H790 C797 0.950 . S
C791 C789 1.387 . S
C791 C793 1.390 . S
C791 H795 0.950 . S
H792 C788 0.950 . S
C793 C791 1.390 . S
C793 C794 1.387 . S
C793 H796 0.950 . S
C794 C793 1.387 . S
C794 C797 1.387 . S
H795 C791 0.950 . S
H796 C793 0.950 . S
C797 C788 1.390 . S
C797 H790 0.950 . S
C797 C794 1.387 . S
C798 C799 1.387 . S
C798 H802 0.950 . S
C798 C807 1.390 . S
C799 C798 1.387 . S
C799 C801 1.387 . S
H800 C807 0.950 . S
C801 C799 1.387 . S
C801 C803 1.390 . S
C801 H805 0.950 . S
H802 C798 0.950 . S
C803 C801 1.390 . S
C803 C804 1.387 . S
C803 H806 0.950 . S
C804 C803 1.387 . S
C804 C807 1.387 . S
H805 C801 0.950 . S
H806 C803 0.950 . S
C807 C798 1.390 . S
C807 H800 0.950 . S
C807 C804 1.387 . S
C808 C809 1.387 . S
C808 H812 0.950 . S
C808 C817 1.390 . S
C809 C808 1.387 . S
C809 C811 1.387 . S
H810 C817 0.950 . S
C811 C809 1.387 . S
C811 C813 1.390 . S
C811 H815 0.950 . S
H812 C808 0.950 . S
C813 C811 1.390 . S
C813 C814 1.387 . S
C813 H816 0.950 . S
C814 C813 1.387 . S
C814 C817 1.387 . S
H815 C811 0.950 . S
H816 C813 0.950 . S
C817 C808 1.390 . S
C817 H810 0.950 . S
C817 C814 1.387 . S
C818 C819 1.387 . S
C818 H822 0.950 . S
C818 C827 1.390 . S
C819 C818 1.387 . S
C819 C821 1.387 . S
H820 C827 0.935 1_545 S
C821 C819 1.387 . S
C821 C823 1.390 . S
C821 H825 0.950 . S
H822 C818 0.950 . S
C823 C821 1.390 . S
C823 C824 1.387 . S
C823 H826 0.950 . S
C824 C823 1.387 . S
C824 C827 1.387 . S
H825 C821 0.950 . S
H826 C823 0.950 . S
C827 C818 1.390 . S
C827 H820 0.935 1_565 S
C827 C824 1.387 . S
C828 C829 1.387 . S
C828 H832 0.950 . S
C828 C837 1.390 . S
C829 C828 1.387 . S
C829 C831 1.387 . S
H830 C837 0.950 . S
C831 C829 1.387 . S
C831 C833 1.390 . S
C831 H835 0.950 . S
H832 C828 0.950 . S
C833 C831 1.390 . S
C833 C834 1.387 . S
C833 H836 0.950 1_565 S
C834 C833 1.387 . S
C834 C837 1.387 . S
H835 C831 0.950 . S
H836 C833 0.950 1_545 S
C837 C828 1.390 . S
C837 H830 0.950 . S
C837 C834 1.387 . S
C838 C839 1.387 . S
C838 H842 0.950 . S
C838 C847 1.390 . S
C839 C838 1.387 . S
C839 C841 1.387 . S
H840 C847 0.950 . S
C841 C839 1.387 . S
C841 C843 1.390 . S
C841 H845 0.950 . S
H842 C838 0.950 . S
C843 C841 1.390 . S
C843 C844 1.387 . S
C843 H846 0.950 . S
C844 C843 1.387 . S
C844 C847 1.387 . S
H845 C841 0.950 . S
H846 C843 0.950 . S
C847 C838 1.390 . S
C847 H840 0.950 . S
C847 C844 1.387 . S
C848 C849 1.387 . S
C848 H852 0.950 . S
C848 C857 1.390 . S
C849 C848 1.387 . S
C849 C851 1.387 . S
H850 C857 0.950 . S
C851 C849 1.387 . S
C851 C853 1.390 . S
C851 H855 0.950 . S
H852 C848 0.950 . S
C853 C851 1.390 . S
C853 C854 1.387 . S
C853 H856 0.950 . S
C854 C853 1.387 . S
C854 C857 1.387 . S
H855 C851 0.950 . S
H856 C853 0.950 . S
C857 C848 1.390 . S
C857 H850 0.950 . S
C857 C854 1.387 . S
C858 C859 1.387 . S
C858 H862 0.950 . S
C858 C867 1.390 . S
C859 C858 1.387 . S
C859 C861 1.387 . S
H860 C867 0.950 . S
C861 C859 1.387 . S
C861 C863 1.390 . S
C861 H865 0.950 . S
H862 C858 0.950 . S
C863 C861 1.390 . S
C863 C864 1.387 . S
C863 H866 0.950 . S
C864 C863 1.387 . S
C864 C867 1.387 . S
H865 C861 0.950 . S
H866 C863 0.950 . S
C867 C858 1.390 . S
C867 H860 0.950 . S
C867 C864 1.387 . S
C868 C869 1.387 . S
C868 H872 0.950 . S
C868 C877 1.390 . S
C869 C868 1.387 . S
C869 C871 1.387 . S
H870 C877 0.950 . S
C871 C869 1.387 . S
C871 C873 1.390 . S
C871 H875 0.950 . S
H872 C868 0.950 . S
C873 C871 1.390 . S
C873 C874 1.387 . S
C873 H876 0.950 . S
C874 C873 1.387 . S
C874 C877 1.387 . S
H875 C871 0.950 . S
H876 C873 0.950 . S
C877 C868 1.390 . S
C877 H870 0.950 . S
C877 C874 1.387 . S
C878 C879 1.387 . S
C878 H882 0.950 . S
C878 C887 1.390 . S
C879 C878 1.387 . S
C879 C881 1.387 . S
H880 C887 0.950 . S
C881 C879 1.387 . S
C881 C883 1.390 . S
C881 H885 0.950 . S
H882 C878 0.950 . S
C883 C881 1.390 . S
C883 C884 1.387 . S
C883 H886 0.950 . S
C884 C883 1.387 . S
C884 C887 1.387 . S
H885 C881 0.950 . S
H886 C883 0.950 . S
C887 C878 1.390 . S
C887 H880 0.950 . S
C887 C884 1.387 . S
C888 C889 1.387 . S
C888 H892 0.950 . S
C888 C897 1.390 . S
C889 C888 1.387 . S
C889 C891 1.387 . S
H890 C897 0.950 . S
C891 C889 1.387 . S
C891 C893 1.390 . S
C891 H895 0.950 . S
H892 C888 0.950 . S
C893 C891 1.390 . S
C893 C894 1.387 . S
C893 H896 0.950 . S
C894 C893 1.387 . S
C894 C897 1.387 . S
H895 C891 0.950 . S
H896 C893 0.950 . S
C897 C888 1.390 . S
C897 H890 0.950 . S
C897 C894 1.387 . S
C898 C899 1.387 . S
C898 H902 0.950 . S
C898 C907 1.390 . S
C899 C898 1.387 . S
C899 C901 1.387 . S
H900 C907 0.950 . S
C901 C899 1.387 . S
C901 C903 1.390 . S
C901 H905 0.950 . S
H902 C898 0.950 . S
C903 C901 1.390 . S
C903 C904 1.387 . S
C903 H906 0.950 . S
C904 C903 1.387 . S
C904 C907 1.387 . S
H905 C901 0.950 . S
H906 C903 0.950 . S
C907 C898 1.390 . S
C907 H900 0.950 . S
C907 C904 1.387 . S
C908 C909 1.387 . S
C908 H912 0.950 . S
C908 C917 1.390 . S
C909 C908 1.387 . S
C909 C911 1.387 . S
H910 C917 0.950 . S
C911 C909 1.387 . S
C911 C913 1.390 . S
C911 H915 0.950 . S
H912 C908 0.950 . S
C913 C911 1.390 . S
C913 C914 1.387 . S
C913 H916 0.950 . S
C914 C913 1.387 . S
C914 C917 1.387 . S
H915 C911 0.950 . S
H916 C913 0.950 . S
C917 C908 1.390 . S
C917 H910 0.950 . S
C917 C914 1.387 . S
C918 C919 1.387 . S
C918 H922 0.950 . S
C918 C927 1.390 . S
C919 C918 1.387 . S
C919 C921 1.387 . S
H920 C927 0.950 . S
C921 C919 1.387 . S
C921 C923 1.390 . S
C921 H925 0.950 . S
H922 C918 0.950 . S
C923 C921 1.390 . S
C923 C924 1.387 . S
C923 H926 0.950 . S
C924 C923 1.387 . S
C924 C927 1.387 . S
H925 C921 0.950 . S
H926 C923 0.950 . S
C927 C918 1.390 . S
C927 H920 0.950 . S
C927 C924 1.387 . S
C529 N146 1.565 . S
C534 N14 1.565 . S
C539 N179 1.565 . S
C544 N47 1.565 . S
C549 N80 1.568 . S
C554 N212 1.568 . S
C559 N245 1.566 . S
C564 N113 1.566 . S
C569 N410 1.568 . S
C574 N278 1.567 . S
C579 N311 1.568 . S
C584 N443 1.567 . S
C589 N344 1.566 . S
C594 N476 1.566 . S
C599 N377 1.568 . S
C604 N509 1.568 . S
C609 C8 1.947 . S
C614 C424 2.105 1_545 S
C619 C41 1.942 . S
C624 C457 2.102 . S
C629 C490 2.106 . S
C634 C74 1.947 . S
C639 C107 1.942 . S
C644 C523 2.102 1_455 S
C649 C292 2.105 . S
C654 C140 1.946 . S
C659 C325 2.102 1_455 S
C664 C173 1.942 . S
C669 C206 1.942 . S
C674 C358 2.102 1_545 S
C679 C391 2.105 . S
C684 C239 1.947 . S
C689 C272 1.947 . S
C694 C160 2.105 1_565 S
C699 C305 1.946 . S
C704 C193 2.105 . S
C709 C226 2.106 . S
C714 C338 1.947 . S
C719 C371 1.942 . S
C724 C259 2.102 1_655 S
C729 C404 1.942 . S
C734 C28 2.102 . S
C739 C437 1.942 . S
C744 C61 2.102 1_655 S
C749 C470 1.942 . S
C754 C94 2.102 1_565 S
C759 C127 2.102 . S
C764 C503 1.942 . S
C769 N236 1.879 . S
C774 N5 1.879 . S
C779 N38 1.878 . S
C784 N137 1.879 . S
C789 N170 1.878 . S
C794 N71 1.879 . S
C799 N203 1.879 . S
C804 N104 1.878 . S
C809 N269 1.879 . S
C814 N500 1.878 . S
C819 N401 1.879 . S
C824 N302 1.878 . S
C829 N335 1.878 . S
C834 N434 1.878 . S
C839 N467 1.878 . S
C844 N368 1.878 . S
C849 C83 0.798 . S
C854 C17 0.798 . S
C859 C116 0.808 . S
C864 C50 0.808 . S
C869 C149 0.808 . S
C874 C215 0.808 . S
C879 C248 0.798 . S
C884 C182 0.798 . S
C889 C281 0.808 . S
C894 C347 0.808 . S
C899 C380 0.808 . S
C904 C314 0.808 . S
C909 C413 0.797 . S
C914 C479 0.797 . S
C919 C446 0.808 . S
C924 C512 0.808 . S
