# Generated by pormake.
# Topology vme, (6)-cn, num edge types: 1
# Building blocks:
#     Node 0, Type 0, BuildingBlock: IZENUY_clean_sbu_0, # of connection points: 6
#     Node 1, Type 0, BuildingBlock: IZENUY_clean_sbu_0, # of connection points: 6
#     Node 2, Type 0, BuildingBlock: IZENUY_clean_sbu_0, # of connection points: 6
#     Node 3, Type 0, BuildingBlock: IZENUY_clean_sbu_0, # of connection points: 6
#     Edge 4, Type (0, 0), BuildingBlock: UVAHIK_clean_linker_0, # of connection points: 2
#     Edge 5, Type (0, 0), BuildingBlock: UVAHIK_clean_linker_0, # of connection points: 2
#     Edge 6, Type (0, 0), BuildingBlock: UVAHIK_clean_linker_0, # of connection points: 2
#     Edge 7, Type (0, 0), BuildingBlock: UVAHIK_clean_linker_0, # of connection points: 2
#     Edge 8, Type (0, 0), BuildingBlock: UVAHIK_clean_linker_0, # of connection points: 2
#     Edge 9, Type (0, 0), BuildingBlock: UVAHIK_clean_linker_0, # of connection points: 2
#     Edge 10, Type (0, 0), BuildingBlock: UVAHIK_clean_linker_0, # of connection points: 2
#     Edge 11, Type (0, 0), BuildingBlock: UVAHIK_clean_linker_0, # of connection points: 2
#     Edge 12, Type (0, 0), BuildingBlock: UVAHIK_clean_linker_0, # of connection points: 2
#     Edge 13, Type (0, 0), BuildingBlock: UVAHIK_clean_linker_0, # of connection points: 2
#     Edge 14, Type (0, 0), BuildingBlock: UVAHIK_clean_linker_0, # of connection points: 2
#     Edge 15, Type (0, 0), BuildingBlock: UVAHIK_clean_linker_0, # of connection points: 2
# Relax obj value: 0.240
# Max RMSD: 0.243
# Mean RMSD: 0.243
data_MOF--net-vme--node1-IZENUY_clean_sbu_0--edge1-UVAHIK_clean_linker_0
_symmetry_space_group_name_H-M    P1
_symmetry_Int_Tables_number       1
_symmetry_cell_setting            triclinic
loop_
_symmetry_equiv_pos_as_xyz
'x, y, z'
_cell_length_a     33.092499
_cell_length_b     32.866041
_cell_length_c     36.078666
_cell_angle_alpha  89.934147
_cell_angle_beta   116.28641
_cell_angle_gamma 89.990157
loop_
_atom_site_label
_atom_site_type_symbol
_atom_site_fract_x
_atom_site_fract_y
_atom_site_fract_z
_atom_type_partial_charge
Fe0 Fe 0.13731 0.37663 0.33919 0.0
Fe1 Fe 0.23004 0.33706 0.38566 0.0
O2 O 0.19097 0.37537 0.38197 0.0
Fe3 Fe 0.20524 0.41194 0.42144 0.0
O4 O 0.15962 0.39598 0.43234 0.0
O5 O 0.10774 0.3979 0.36809 0.0
O6 O 0.12399 0.3268 0.35176 0.0
C7 C 0.14632 0.29532 0.35326 0.0
C8 C 0.15457 0.45734 0.34744 0.0
O9 O 0.18661 0.29804 0.35799 0.0
C10 C 0.28465 0.40769 0.41666 0.0
O11 O 0.15718 0.35568 0.30251 0.0
O12 O 0.23089 0.35407 0.33843 0.0
O13 O 0.17114 0.45314 0.38646 0.0
O14 O 0.14758 0.42664 0.32453 0.0
C15 C 0.23906 0.33858 0.46454 0.0
O16 O 0.28048 0.36919 0.4141 0.0
O17 O 0.25201 0.42979 0.41301 0.0
C18 C 0.19632 0.35407 0.30407 0.0
O19 O 0.23061 0.31781 0.43266 0.0
O20 O 0.24097 0.37711 0.46342 0.0
C21 C 0.11885 0.39743 0.40657 0.0
Fe22 Fe 0.78055 0.83836 0.12553 0.0
Fe23 Fe 0.80227 0.91382 0.08814 0.0
O24 O 0.81755 0.87853 0.12893 0.0
Fe25 Fe 0.87013 0.88335 0.17265 0.0
O26 O 0.88773 0.83417 0.16343 0.0
O27 O 0.8262 0.8014 0.15464 0.0
O28 O 0.78204 0.81895 0.07932 0.0
C29 C 0.77261 0.83924 0.04693 0.0
C30 C 0.81113 0.85738 0.20666 0.0
O31 O 0.7686 0.87757 0.04712 0.0
C32 C 0.84834 0.96284 0.15996 0.0
O33 O 0.72854 0.86857 0.09581 0.0
O34 O 0.75427 0.93019 0.09517 0.0
O35 O 0.8504 0.86201 0.20921 0.0
O36 O 0.77735 0.85496 0.17188 0.0
C37 C 0.88976 0.90281 0.10555 0.0
O38 O 0.8339 0.95668 0.12146 0.0
O39 O 0.8555 0.93322 0.18427 0.0
C40 C 0.72272 0.90697 0.09226 0.0
O41 O 0.84945 0.89892 0.07909 0.0
O42 O 0.89957 0.90514 0.14375 0.0
C43 C 0.86753 0.80133 0.16197 0.0
Fe44 Fe 0.80103 0.59034 0.58873 0.0
Fe45 Fe 0.86987 0.62316 0.67169 0.0
O46 O 0.8168 0.62689 0.62839 0.0
Fe47 Fe 0.77987 0.66733 0.62446 0.0
O48 O 0.78056 0.68537 0.57752 0.0
O49 O 0.76743 0.62597 0.54672 0.0
O50 O 0.84786 0.6038 0.5786 0.0
C51 C 0.88832 0.60034 0.60476 0.0
C52 C 0.72167 0.5988 0.59308 0.0
O53 O 0.89874 0.59969 0.64312 0.0
C54 C 0.81177 0.65016 0.70611 0.0
O55 O 0.83267 0.54804 0.62353 0.0
O56 O 0.85586 0.5742 0.68546 0.0
O57 O 0.72775 0.63714 0.59587 0.0
O58 O 0.75313 0.57516 0.59659 0.0
C59 C 0.86652 0.70463 0.65832 0.0
O60 O 0.85085 0.64604 0.70808 0.0
O61 O 0.77754 0.6519 0.67157 0.0
C62 C 0.84812 0.54354 0.66242 0.0
O63 O 0.88674 0.6717 0.66014 0.0
O64 O 0.82558 0.70458 0.6522 0.0
C65 C 0.77102 0.66433 0.5456 0.0
Fe66 Fe 0.22758 0.16645 0.885 0.0
Fe67 Fe 0.20461 0.09031 0.92061 0.0
O68 O 0.19004 0.12648 0.88064 0.0
Fe69 Fe 0.13756 0.12285 0.83665 0.0
O70 O 0.12056 0.17172 0.84718 0.0
O71 O 0.18242 0.20402 0.85627 0.0
O72 O 0.22576 0.18507 0.93116 0.0
C73 C 0.23456 0.16441 0.96319 0.0
C74 C 0.19747 0.1488 0.80376 0.0
O75 O 0.23798 0.126 0.96257 0.0
C76 C 0.15871 0.04311 0.84722 0.0
O77 O 0.27922 0.13582 0.91461 0.0
O78 O 0.25293 0.07423 0.91393 0.0
O79 O 0.15795 0.14501 0.80084 0.0
O80 O 0.23105 0.15039 0.8387 0.0
C81 C 0.11697 0.10166 0.90271 0.0
O82 O 0.17307 0.04801 0.88594 0.0
O83 O 0.15176 0.07351 0.82391 0.0
C84 C 0.28479 0.0974 0.91764 0.0
O85 O 0.15721 0.10476 0.92946 0.0
O86 O 0.10746 0.10023 0.86455 0.0
C87 C 0.14126 0.20445 0.84945 0.0
C88 C 0.89016 0.02502 0.1574 0.0
C89 C 0.87023 0.00201 0.17773 0.0
C90 C 0.91874 0.05746 0.17742 0.0
C91 C 0.9884 0.09757 0.28373 0.0
H92 H 0.00624 0.18767 0.22308 0.0
C93 C 0.08747 0.24775 0.35258 0.0
C94 C 0.12142 0.25667 0.34047 0.0
C95 C 0.05864 0.21471 0.33538 0.0
C96 C 1.0017 0.16246 0.24026 0.0
H97 H 0.86228 0.99642 0.23393 0.0
H98 H 0.90976 0.05475 0.26802 0.0
H99 H 0.94753 0.13778 0.18655 0.0
H100 H 0.15255 0.23788 0.30158 0.0
H101 H 0.10094 0.18059 0.2704 0.0
H102 H 0.04151 0.124 0.33778 0.0
C103 C 0.90508 0.04674 0.23729 0.0
C104 C 0.96818 0.13371 0.21939 0.0
C105 C 0.87728 0.01364 0.21757 0.0
C106 C 0.12701 0.23126 0.31182 0.0
C107 C 0.09738 0.19881 0.29379 0.0
C108 C 0.02121 0.12693 0.30471 0.0
C109 C 0.9274 0.06834 0.21802 0.0
C110 C 0.96129 0.10053 0.24071 0.0
C111 C 0.06257 0.19074 0.305 0.0
C112 C 0.02841 0.1593 0.28304 0.0
H113 H 0.88605 0.01638 0.12696 0.0
H114 H 0.93566 0.07263 0.16159 0.0
H115 H 0.98503 0.07218 0.30128 0.0
H116 H 0.08242 0.26708 0.37449 0.0
H117 H 0.0319 0.20906 0.34432 0.0
C118 C 0.11012 0.49945 0.28448 0.0
C119 C 0.13284 0.49628 0.32785 0.0
C120 C 0.08275 0.53298 0.26565 0.0
C121 C 0.05754 0.63853 0.28211 0.0
H122 H 0.93879 0.6146 0.19433 0.0
C123 C 0.94021 0.76458 0.18167 0.0
C124 C 0.89511 0.76374 0.17543 0.0
C125 C 0.96854 0.73133 0.19888 0.0
C126 C 0.97172 0.6217 0.21892 0.0
H127 H 0.14653 0.52724 0.38529 0.0
H128 H 0.09911 0.58612 0.35224 0.0
H129 H 0.99172 0.55907 0.22793 0.0
H130 H 0.84394 0.72633 0.18072 0.0
H131 H 0.89374 0.66769 0.21066 0.0
H132 H 0.03753 0.7011 0.27327 0.0
C133 C 0.10238 0.5624 0.33292 0.0
C134 C 1.0022 0.59001 0.23787 0.0
C135 C 0.12962 0.52868 0.35185 0.0
C136 C 0.87847 0.72797 0.18511 0.0
C137 C 0.90696 0.69443 0.20225 0.0
C138 C 0.02723 0.67022 0.26294 0.0
C139 C 0.07769 0.56433 0.28966 0.0
C140 C 0.04549 0.5981 0.26958 0.0
C141 C 0.95257 0.69619 0.21014 0.0
C142 C 0.98406 0.66218 0.23102 0.0
H143 H 0.11202 0.47525 0.26495 0.0
H144 H 0.06489 0.53403 0.23222 0.0
H145 H 0.09065 0.64573 0.30636 0.0
H146 H 0.95414 0.79139 0.17412 0.0
H147 H 1.00322 0.73327 0.20372 0.0
C148 C 0.13025 0.97319 0.85105 0.0
C149 C 0.13809 0.00387 0.82783 0.0
C150 C 0.10276 0.93993 0.83129 0.0
C151 C 0.01745 0.89227 0.78032 0.0
H152 H 0.01584 0.8415 0.68275 0.0
C153 C 0.87865 0.7775 0.68243 0.0
C154 C 0.89393 0.74228 0.67048 0.0
C155 C 0.90749 0.81085 0.69891 0.0
C156 C 0.01593 0.85522 0.71006 0.0
H157 H 0.12566 0.02215 0.76584 0.0
H158 H 0.07772 0.96459 0.73159 0.0
H159 H 0.07228 0.893 0.7195 0.0
H160 H 0.95072 0.71535 0.66454 0.0
H161 H 1.00066 0.77277 0.69349 0.0
H162 H 0.96193 0.85358 0.77156 0.0
C163 C 0.09276 0.96601 0.76502 0.0
C164 C 0.0481 0.88502 0.73096 0.0
C165 C 0.12023 0.99916 0.78472 0.0
C166 C 0.93784 0.74188 0.67362 0.0
C167 C 0.96651 0.77503 0.69 0.0
C168 C 0.98537 0.86234 0.75949 0.0
C169 C 0.08262 0.93658 0.78793 0.0
C170 C 0.04936 0.90386 0.76642 0.0
C171 C 0.95206 0.80966 0.70356 0.0
C172 C 0.98431 0.84332 0.7242 0.0
H173 H 0.14348 0.9758 0.8843 0.0
H174 H 0.09643 0.91732 0.84995 0.0
H175 H 0.0169 0.90664 0.80708 0.0
H176 H 0.84501 0.77879 0.68038 0.0
H177 H 0.89509 0.83735 0.70849 0.0
C178 C 0.87603 0.47334 0.65867 0.0
C179 C 0.86909 0.5044 0.68201 0.0
C180 C 0.90388 0.44018 0.67835 0.0
C181 C 0.96142 0.38639 0.77929 0.0
H182 H 0.04452 0.35327 0.73576 0.0
C183 C 0.07087 0.2426 0.83553 0.0
C184 C 0.11427 0.24238 0.83747 0.0
C185 C 0.04238 0.27596 0.81945 0.0
C186 C 0.02197 0.36251 0.74864 0.0
H187 H 0.88361 0.52348 0.74424 0.0
H188 H 0.93217 0.46613 0.77835 0.0
H189 H 0.98926 0.40639 0.70071 0.0
H190 H 0.16251 0.27795 0.82568 0.0
H191 H 0.11271 0.33691 0.79799 0.0
H192 H 0.99484 0.34328 0.8278 0.0
C193 C 0.91612 0.46715 0.74489 0.0
C194 C 0.9897 0.39248 0.72811 0.0
C195 C 0.88828 0.50019 0.72526 0.0
C196 C 0.12928 0.27718 0.82459 0.0
C197 C 0.10058 0.31074 0.80836 0.0
C198 C 0.99377 0.35656 0.79989 0.0
C199 C 0.92532 0.43733 0.72177 0.0
C200 C 0.95886 0.40465 0.74305 0.0
C201 C 0.05649 0.31018 0.80496 0.0
C202 C 0.02426 0.34403 0.78468 0.0
H203 H 0.86178 0.47556 0.62531 0.0
H204 H 0.90945 0.41727 0.65956 0.0
H205 H 0.9381 0.39482 0.79159 0.0
H206 H 0.05825 0.21639 0.84539 0.0
H207 H 0.00859 0.27417 0.81694 0.0
C208 C 0.95444 0.55853 0.61148 0.0
C209 C 0.9204 0.58675 0.58917 0.0
C210 C 0.9772 0.53821 0.59224 0.0
C211 C 0.95742 0.50662 0.48785 0.0
H212 H 0.08406 0.4779 0.54021 0.0
C213 C 0.05122 0.43618 0.40062 0.0
C214 C 0.08651 0.40896 0.42258 0.0
C215 C 0.02812 0.45512 0.42031 0.0
C216 C 0.04844 0.48514 0.52537 0.0
H217 H 0.88618 0.61854 0.5307 0.0
H218 H 0.92662 0.58395 0.4976 0.0
H219 H 0.05342 0.5199 0.57741 0.0
H220 H 0.12263 0.37728 0.48084 0.0
H221 H 0.08148 0.4093 0.51471 0.0
H222 H 0.95241 0.47189 0.43581 0.0
C223 C 0.93484 0.57654 0.52941 0.0
C224 C 0.031 0.50936 0.54666 0.0
C225 C 0.91204 0.59664 0.5485 0.0
C226 C 0.09576 0.39845 0.46332 0.0
C227 C 0.07255 0.4171 0.48285 0.0
C228 C 0.97484 0.48236 0.46659 0.0
C229 C 0.96636 0.54597 0.5505 0.0
C230 C 0.98535 0.52054 0.52805 0.0
C231 C 0.0398 0.44689 0.46215 0.0
C232 C 0.02056 0.47137 0.48508 0.0
H233 H 0.96123 0.55005 0.64273 0.0
H234 H 1.00132 0.51476 0.60928 0.0
H235 H 0.92185 0.51402 0.47298 0.0
H236 H 0.04372 0.44512 0.36933 0.0
H237 H 1.0031 0.47801 0.40353 0.0
C238 C 0.91477 0.90375 0.05006 0.0
C239 C 0.92223 0.91538 0.09004 0.0
C240 C 0.93775 0.92289 0.03057 0.0
C241 C 0.98864 0.02148 0.03052 0.0
H242 H 0.02743 0.96839 0.95579 0.0
C243 C 0.09106 0.10099 0.95755 0.0
C244 C 0.08394 0.0894 0.91765 0.0
C245 C 0.06755 0.08204 0.97663 0.0
C246 C 0.01602 0.98371 0.97601 0.0
H247 H 0.96174 0.95417 0.14214 0.0
H248 H 1.0026 0.98741 0.10817 0.0
H249 H 1.00064 0.9274 0.99679 0.0
H250 H 0.04449 0.05097 0.86524 0.0
H251 H 1.0027 0.01801 0.89852 0.0
H252 H 0.00407 0.07779 0.00977 0.0
C253 C 0.97844 0.96382 0.09174 0.0
C254 C 1.00103 0.96021 0.99974 0.0
C255 C 0.95556 0.94442 0.1114 0.0
C256 C 0.0504 0.06065 0.89592 0.0
C257 C 0.02699 0.04143 0.91518 0.0
C258 C 1.00362 0.04498 0.00679 0.0
C259 C 0.96859 0.9542 0.0506 0.0
C260 C 0.98722 0.97883 0.02729 0.0
C261 C 0.03653 0.05095 0.95627 0.0
C262 C 0.01751 0.02636 0.97929 0.0
H263 H 0.88922 0.8814 0.03291 0.0
H264 H 0.92922 0.91486 0.99885 0.0
H265 H 0.97727 0.0368 0.05077 0.0
H266 H 0.11675 0.12313 0.97496 0.0
H267 H 0.07585 0.08998 0.00832 0.0
C268 C 0.2415 0.16363 0.03548 0.0
C269 C 0.23897 0.18557 1.00104 0.0
C270 C 0.2399 0.18396 0.06889 0.0
C271 C 0.19792 0.27916 0.09288 0.0
H272 H 0.27263 0.2491 0.20703 0.0
C273 C 0.16403 0.33317 0.22948 0.0
C274 C 0.2017 0.3429 0.2667 0.0
C275 C 0.16968 0.31683 0.19628 0.0
C276 C 0.25177 0.25808 0.1753 0.0
H277 H 0.23465 0.24624 0.97555 0.0
H278 H 0.2323 0.2814 0.03378 0.0
H279 H 0.28244 0.21416 0.15186 0.0
H280 H 0.27486 0.34526 0.29721 0.0
H281 H 0.28452 0.3171 0.23929 0.0
H282 H 0.16729 0.32312 0.11629 0.0
C283 C 0.23478 0.24851 0.03471 0.0
C284 C 0.25709 0.23776 0.14373 0.0
C285 C 0.23648 0.2283 1.00146 0.0
C286 C 0.24505 0.3378 0.26917 0.0
C287 C 0.25067 0.32137 0.23608 0.0
C288 C 0.19242 0.29931 0.12443 0.0
C289 C 0.23558 0.22658 0.06843 0.0
C290 C 0.23028 0.24813 0.10217 0.0
C291 C 0.21311 0.30984 0.19964 0.0
C292 C 0.21933 0.28903 0.166 0.0
H293 H 0.24315 0.13071 0.03604 0.0
H294 H 0.24035 0.1662 0.09438 0.0
H295 H 0.17634 0.28751 0.06111 0.0
H296 H 0.13017 0.33664 0.22651 0.0
H297 H 0.14006 0.30812 0.16862 0.0
C298 C 0.84309 0.83537 0.28091 0.0
C299 C 0.80552 0.8459 0.24389 0.0
C300 C 0.8373 0.81834 0.31379 0.0
C301 C 0.75485 0.803 0.35611 0.0
H302 H 0.82744 0.70765 0.40708 0.0
C303 C 0.76366 0.7276 0.50442 0.0
C304 C 0.76596 0.68489 0.50721 0.0
C305 C 0.76486 0.74764 0.47076 0.0
C306 C 0.80661 0.73399 0.39289 0.0
H307 H 0.73243 0.84896 0.21341 0.0
H308 H 0.72246 0.81943 0.27075 0.0
H309 H 0.83821 0.74405 0.3532 0.0
H310 H 0.76992 0.62971 0.47608 0.0
H311 H 0.77176 0.66479 0.41707 0.0
H312 H 0.72296 0.79264 0.3956 0.0
C313 C 0.75638 0.82425 0.27435 0.0
C314 C 0.81324 0.75522 0.36245 0.0
C315 C 0.76214 0.84107 0.24141 0.0
C316 C 0.76787 0.66261 0.47479 0.0
C317 C 0.76939 0.68272 0.4412 0.0
C318 C 0.74837 0.78188 0.38674 0.0
C319 C 0.79385 0.81173 0.31051 0.0
C320 C 0.78749 0.79 0.34372 0.0
C321 C 0.76868 0.72549 0.43918 0.0
C322 C 0.77418 0.74712 0.40548 0.0
H323 H 0.87698 0.8387 0.28394 0.0
H324 H 0.86687 0.80964 0.34154 0.0
H325 H 0.73459 0.82977 0.3424 0.0
H326 H 0.76223 0.74574 0.52886 0.0
H327 H 0.76463 0.78059 0.47035 0.0
C328 C 0.76856 0.84028 0.97585 0.0
C329 C 0.76824 0.81812 0.00907 0.0
C330 C 0.7704 0.82011 0.94251 0.0
C331 C 0.7524 0.72073 0.8896 0.0
H332 H 0.83934 0.76163 0.8538 0.0
C333 C 0.76359 0.66537 0.74194 0.0
C334 C 0.80672 0.66135 0.74365 0.0
C335 C 0.75833 0.68126 0.77546 0.0
C336 C 0.8152 0.74961 0.86368 0.0
H337 H 0.7678 0.75733 0.03247 0.0
H338 H 0.77068 0.72228 0.97421 0.0
H339 H 0.82895 0.79691 0.90837 0.0
H340 H 0.87829 0.66909 0.78287 0.0
H341 H 0.86904 0.69667 0.84141 0.0
H342 H 0.73892 0.67323 0.845 0.0
C343 C 0.76945 0.75522 0.97391 0.0
C344 C 0.80879 0.77016 0.89454 0.0
C345 C 0.76795 0.77535 0.00738 0.0
C346 C 0.84458 0.67185 0.78041 0.0
C347 C 0.83928 0.68799 0.81385 0.0
C348 C 0.75859 0.70031 0.85848 0.0
C349 C 0.77163 0.77737 0.94152 0.0
C350 C 0.77733 0.75597 0.90787 0.0
C351 C 0.79605 0.69367 0.81141 0.0
C352 C 0.79015 0.71448 0.84525 0.0
H353 H 0.769 0.87323 0.97623 0.0
H354 H 0.77145 0.83801 0.91773 0.0
H355 H 0.72777 0.70916 0.89909 0.0
H356 H 0.73369 0.65744 0.71417 0.0
H357 H 0.72457 0.68541 0.77253 0.0
C358 C 0.24766 0.16662 0.77077 0.0
C359 C 0.20396 0.15999 0.76694 0.0
C360 C 0.25401 0.18291 0.73799 0.0
C361 C 0.1985 0.20218 0.62562 0.0
H362 H 0.28505 0.29032 0.65342 0.0
C363 C 0.24376 0.27467 0.50388 0.0
C364 C 0.24426 0.31745 0.50268 0.0
C365 C 0.24218 0.25432 0.53716 0.0
C366 C 0.26069 0.26585 0.64517 0.0
H367 H 0.13273 0.16337 0.72475 0.0
H368 H 0.14391 0.19173 0.66741 0.0
H369 H 0.27439 0.2554 0.7082 0.0
H370 H 0.24516 0.37232 0.53639 0.0
H371 H 0.24255 0.33663 0.59474 0.0
H372 H 0.18415 0.21315 0.56252 0.0
C373 C 0.17323 0.18429 0.69589 0.0
C374 C 0.2549 0.24556 0.67655 0.0
C375 C 0.16683 0.16806 0.72877 0.0
C376 C 0.2451 0.33936 0.53646 0.0
C377 C 0.24359 0.31891 0.56988 0.0
C378 C 0.20446 0.22232 0.59426 0.0
C379 C 0.21687 0.19281 0.70052 0.0
C380 C 0.22368 0.21355 0.66712 0.0
C381 C 0.2411 0.27618 0.57012 0.0
C382 C 0.23556 0.25443 0.60368 0.0
H383 H 0.27709 0.16042 0.79958 0.0
H384 H 0.28807 0.18834 0.74222 0.0
H385 H 0.17436 0.17753 0.61739 0.0
H386 H 0.24326 0.25676 0.4785 0.0
H387 H 0.24115 0.22137 0.53681 0.0
C388 C 0.36924 0.40371 0.44651 0.0
C389 C 0.32953 0.42706 0.4306 0.0
C390 C 0.41151 0.42271 0.46363 0.0
C391 C 0.4689 0.52098 0.46827 0.0
H392 H 0.55926 0.47872 0.57244 0.0
C393 C 0.63716 0.60557 0.56339 0.0
C394 C 0.67604 0.58109 0.57942 0.0
C395 C 0.59422 0.58775 0.54663 0.0
C396 C 0.53456 0.49075 0.54319 0.0
H397 H 0.30324 0.48873 0.41862 0.0
H398 H 0.37658 0.52159 0.4484 0.0
H399 H 0.4866 0.44465 0.53788 0.0
H400 H 0.70013 0.51873 0.59193 0.0
H401 H 0.6259 0.48802 0.56268 0.0
H402 H 0.51699 0.56696 0.47349 0.0
C403 C 0.37522 0.48866 0.44765 0.0
C404 C 0.49294 0.4711 0.5233 0.0
C405 C 0.33309 0.46974 0.43075 0.0
C406 C 0.67098 0.5386 0.57971 0.0
C407 C 0.62828 0.52089 0.56314 0.0
C408 C 0.51059 0.5406 0.48814 0.0
C409 C 0.41496 0.46544 0.46494 0.0
C410 C 0.45963 0.48588 0.48553 0.0
C411 C 0.58931 0.54513 0.54583 0.0
C412 C 0.54403 0.52563 0.52578 0.0
H413 H 0.36774 0.3708 0.44683 0.0
H414 H 0.44151 0.40393 0.47615 0.0
H415 H 0.44416 0.53295 0.43902 0.0
H416 H 0.63984 0.63837 0.56271 0.0
H417 H 0.56486 0.60733 0.53405 0.0
C418 C 0.33447 0.03645 0.93087 0.0
C419 C 0.33017 0.07901 0.93159 0.0
C420 C 0.37684 0.01804 0.94768 0.0
C421 C 0.49805 0.03704 0.98115 0.0
H422 H 0.51294 0.94009 0.04751 0.0
C423 C 0.67286 0.96775 0.07911 0.0
C424 C 0.67729 0.9252 0.07845 0.0
C425 C 0.63044 0.98605 0.06229 0.0
C426 C 0.50925 0.96684 0.02872 0.0
H427 H 0.36738 0.13567 0.94928 0.0
H428 H 0.44176 0.10338 0.97894 0.0
H429 H 0.43969 0.97363 0.01483 0.0
H430 H 0.64028 0.86844 0.06088 0.0
H431 H 0.56578 0.90055 0.03118 0.0
H432 H 0.5676 0.03025 0.99502 0.0
C433 C 0.41209 0.08431 0.96513 0.0
C434 C 0.46724 0.98611 0.00995 0.0
C435 C 0.36948 0.10284 0.94818 0.0
C436 C 0.63806 0.90126 0.06194 0.0
C437 C 0.59539 0.91969 0.04496 0.0
C438 C 0.54005 0.01776 0.9999 0.0
C439 C 0.41619 0.04161 0.96575 0.0
C440 C 0.4611 0.02143 0.98589 0.0
C441 C 0.59116 0.96238 0.04424 0.0
C442 C 0.54621 0.98247 0.024 0.0
H443 H 0.30496 0.01709 0.91788 0.0
H444 H 0.37872 0.98518 0.94671 0.0
H445 H 0.49436 0.06379 0.96236 0.0
H446 H 0.70232 0.98718 0.09206 0.0
H447 H 0.62846 0.0189 0.0632 0.0
loop_
_geom_bond_atom_site_label_1
_geom_bond_atom_site_label_2
_geom_bond_distance
_geom_bond_site_symmetry_2
_ccdc_geom_bond_type
Fe0 O2 1.918 . S
Fe0 O5 1.997 . S
Fe0 O6 2.002 . S
Fe0 O11 1.976 . S
Fe0 O14 1.996 . S
Fe1 O2 1.918 . S
Fe1 O9 1.997 . S
Fe1 O12 1.996 . S
Fe1 O16 1.976 . S
Fe1 O19 2.002 . S
O2 Fe0 1.918 . S
O2 Fe1 1.918 . S
O2 Fe3 1.918 . S
Fe3 O2 1.918 . S
Fe3 O4 2.002 . S
Fe3 O13 1.976 . S
Fe3 O17 1.996 . S
Fe3 O20 1.997 . S
O4 Fe3 2.002 . S
O4 C21 1.295 . S
O5 Fe0 1.997 . S
O5 C21 1.235 . S
O6 Fe0 2.002 . S
O6 C7 1.295 . S
C7 O6 1.295 . S
C7 O9 1.235 . S
C8 O13 1.287 . S
C8 O14 1.255 . S
O9 Fe1 1.997 . S
O9 C7 1.235 . S
C10 O16 1.287 . S
C10 O17 1.255 . S
O11 Fe0 1.976 . S
O11 C18 1.287 . S
O12 Fe1 1.996 . S
O12 C18 1.255 . S
O13 Fe3 1.976 . S
O13 C8 1.287 . S
O14 Fe0 1.996 . S
O14 C8 1.255 . S
C15 O19 1.295 . S
C15 O20 1.235 . S
O16 Fe1 1.976 . S
O16 C10 1.287 . S
O17 Fe3 1.996 . S
O17 C10 1.255 . S
C18 O11 1.287 . S
C18 O12 1.255 . S
O19 Fe1 2.002 . S
O19 C15 1.295 . S
O20 Fe3 1.997 . S
O20 C15 1.235 . S
C21 O4 1.295 . S
C21 O5 1.235 . S
Fe22 O24 1.918 . S
Fe22 O27 1.997 . S
Fe22 O28 2.002 . S
Fe22 O33 1.976 . S
Fe22 O36 1.996 . S
Fe23 O24 1.918 . S
Fe23 O31 1.997 . S
Fe23 O34 1.996 . S
Fe23 O38 1.976 . S
Fe23 O41 2.002 . S
O24 Fe22 1.918 . S
O24 Fe23 1.918 . S
O24 Fe25 1.918 . S
Fe25 O24 1.918 . S
Fe25 O26 2.002 . S
Fe25 O35 1.976 . S
Fe25 O39 1.996 . S
Fe25 O42 1.997 . S
O26 Fe25 2.002 . S
O26 C43 1.295 . S
O27 Fe22 1.997 . S
O27 C43 1.235 . S
O28 Fe22 2.002 . S
O28 C29 1.295 . S
C29 O28 1.295 . S
C29 O31 1.235 . S
C30 O35 1.287 . S
C30 O36 1.255 . S
O31 Fe23 1.997 . S
O31 C29 1.235 . S
C32 O38 1.287 . S
C32 O39 1.255 . S
O33 Fe22 1.976 . S
O33 C40 1.287 . S
O34 Fe23 1.996 . S
O34 C40 1.255 . S
O35 Fe25 1.976 . S
O35 C30 1.287 . S
O36 Fe22 1.996 . S
O36 C30 1.255 . S
C37 O41 1.295 . S
C37 O42 1.235 . S
O38 Fe23 1.976 . S
O38 C32 1.287 . S
O39 Fe25 1.996 . S
O39 C32 1.255 . S
C40 O33 1.287 . S
C40 O34 1.255 . S
O41 Fe23 2.002 . S
O41 C37 1.295 . S
O42 Fe25 1.997 . S
O42 C37 1.235 . S
C43 O26 1.295 . S
C43 O27 1.235 . S
Fe44 O46 1.918 . S
Fe44 O49 1.997 . S
Fe44 O50 2.002 . S
Fe44 O55 1.976 . S
Fe44 O58 1.996 . S
Fe45 O46 1.918 . S
Fe45 O53 1.997 . S
Fe45 O56 1.996 . S
Fe45 O60 1.976 . S
Fe45 O63 2.002 . S
O46 Fe44 1.918 . S
O46 Fe45 1.918 . S
O46 Fe47 1.918 . S
Fe47 O46 1.918 . S
Fe47 O48 2.002 . S
Fe47 O57 1.976 . S
Fe47 O61 1.996 . S
Fe47 O64 1.997 . S
O48 Fe47 2.002 . S
O48 C65 1.295 . S
O49 Fe44 1.997 . S
O49 C65 1.235 . S
O50 Fe44 2.002 . S
O50 C51 1.295 . S
C51 O50 1.295 . S
C51 O53 1.235 . S
C52 O57 1.287 . S
C52 O58 1.255 . S
O53 Fe45 1.997 . S
O53 C51 1.235 . S
C54 O60 1.287 . S
C54 O61 1.255 . S
O55 Fe44 1.976 . S
O55 C62 1.287 . S
O56 Fe45 1.996 . S
O56 C62 1.255 . S
O57 Fe47 1.976 . S
O57 C52 1.287 . S
O58 Fe44 1.996 . S
O58 C52 1.255 . S
C59 O63 1.295 . S
C59 O64 1.235 . S
O60 Fe45 1.976 . S
O60 C54 1.287 . S
O61 Fe47 1.996 . S
O61 C54 1.255 . S
C62 O55 1.287 . S
C62 O56 1.255 . S
O63 Fe45 2.002 . S
O63 C59 1.295 . S
O64 Fe47 1.997 . S
O64 C59 1.235 . S
C65 O48 1.295 . S
C65 O49 1.235 . S
Fe66 O68 1.918 . S
Fe66 O71 1.997 . S
Fe66 O72 2.002 . S
Fe66 O77 1.976 . S
Fe66 O80 1.996 . S
Fe67 O68 1.918 . S
Fe67 O75 1.997 . S
Fe67 O78 1.996 . S
Fe67 O82 1.976 . S
Fe67 O85 2.002 . S
O68 Fe66 1.918 . S
O68 Fe67 1.918 . S
O68 Fe69 1.918 . S
Fe69 O68 1.918 . S
Fe69 O70 2.002 . S
Fe69 O79 1.976 . S
Fe69 O83 1.996 . S
Fe69 O86 1.997 . S
O70 Fe69 2.002 . S
O70 C87 1.295 . S
O71 Fe66 1.997 . S
O71 C87 1.235 . S
O72 Fe66 2.002 . S
O72 C73 1.295 . S
C73 O72 1.295 . S
C73 O75 1.235 . S
C74 O79 1.287 . S
C74 O80 1.255 . S
O75 Fe67 1.997 . S
O75 C73 1.235 . S
C76 O82 1.287 . S
C76 O83 1.255 . S
O77 Fe66 1.976 . S
O77 C84 1.287 . S
O78 Fe67 1.996 . S
O78 C84 1.255 . S
O79 Fe69 1.976 . S
O79 C74 1.287 . S
O80 Fe66 1.996 . S
O80 C74 1.255 . S
C81 O85 1.295 . S
C81 O86 1.235 . S
O82 Fe67 1.976 . S
O82 C76 1.287 . S
O83 Fe69 1.996 . S
O83 C76 1.255 . S
C84 O77 1.287 . S
C84 O78 1.255 . S
O85 Fe67 2.002 . S
O85 C81 1.295 . S
O86 Fe69 1.997 . S
O86 C81 1.235 . S
C87 O70 1.295 . S
C87 O71 1.235 . S
C88 C89 1.349 . S
C88 C90 1.327 . S
C88 H113 0.950 . S
C89 C88 1.349 . S
C89 C105 1.349 . S
C90 C88 1.327 . S
C90 C109 1.429 . S
C90 H114 0.950 . S
C91 C108 1.574 1_655 S
C91 C110 1.368 . S
C91 H115 0.949 . S
H92 C96 0.947 1_455 S
C93 C94 1.349 . S
C93 C95 1.327 . S
C93 H116 0.950 . S
C94 C93 1.349 . S
C94 C106 1.349 . S
C95 C93 1.327 . S
C95 C111 1.429 . S
C95 H117 0.950 . S
C96 H92 0.947 1_655 S
C96 C104 1.574 . S
C96 C112 1.368 1_655 S
H97 C105 0.950 1_565 S
H98 C103 0.950 . S
H99 C104 0.949 . S
H100 C106 0.950 . S
H101 C107 0.950 . S
H102 C108 0.949 . S
C103 H98 0.950 . S
C103 C105 1.327 . S
C103 C109 1.429 . S
C104 C96 1.574 . S
C104 H99 0.949 . S
C104 C110 1.368 . S
C105 C89 1.349 . S
C105 H97 0.950 1_545 S
C105 C103 1.327 . S
C106 C94 1.349 . S
C106 H100 0.950 . S
C106 C107 1.327 . S
C107 H101 0.950 . S
C107 C106 1.327 . S
C107 C111 1.429 . S
C108 C91 1.574 1_455 S
C108 H102 0.949 . S
C108 C112 1.368 . S
C109 C90 1.429 . S
C109 C103 1.429 . S
C109 C110 1.523 . S
C110 C91 1.368 . S
C110 C104 1.368 . S
C110 C109 1.523 . S
C111 C95 1.429 . S
C111 C107 1.429 . S
C111 C112 1.523 . S
C112 C96 1.368 1_455 S
C112 C108 1.368 . S
C112 C111 1.523 . S
H113 C88 0.950 . S
H114 C90 0.950 . S
H115 C91 0.949 . S
H116 C93 0.950 . S
H117 C95 0.950 . S
C118 C119 1.349 . S
C118 C120 1.327 . S
C118 H143 0.950 . S
C119 C118 1.349 . S
C119 C135 1.349 . S
C120 C118 1.327 . S
C120 C139 1.429 . S
C120 H144 0.950 . S
C121 C138 1.574 . S
C121 C140 1.368 . S
C121 H145 0.949 . S
H122 C126 0.949 . S
C123 C124 1.349 . S
C123 C125 1.327 . S
C123 H146 0.950 . S
C124 C123 1.349 . S
C124 C136 1.349 . S
C125 C123 1.327 . S
C125 C141 1.429 . S
C125 H147 0.950 1_655 S
C126 H122 0.949 . S
C126 C134 1.574 1_655 S
C126 C142 1.368 . S
H127 C135 0.950 . S
H128 C133 0.950 . S
H129 C134 0.949 1_655 S
H130 C136 0.950 . S
H131 C137 0.950 . S
H132 C138 0.949 . S
C133 H128 0.950 . S
C133 C135 1.327 . S
C133 C139 1.429 . S
C134 C126 1.574 1_455 S
C134 H129 0.949 1_455 S
C134 C140 1.368 . S
C135 C119 1.349 . S
C135 H127 0.950 . S
C135 C133 1.327 . S
C136 C124 1.349 . S
C136 H130 0.950 . S
C136 C137 1.327 . S
C137 H131 0.950 . S
C137 C136 1.327 . S
C137 C141 1.429 . S
C138 C121 1.574 . S
C138 H132 0.949 . S
C138 C142 1.368 1_455 S
C139 C120 1.429 . S
C139 C133 1.429 . S
C139 C140 1.523 . S
C140 C121 1.368 . S
C140 C134 1.368 . S
C140 C139 1.523 . S
C141 C125 1.429 . S
C141 C137 1.429 . S
C141 C142 1.523 . S
C142 C126 1.368 . S
C142 C138 1.368 1_655 S
C142 C141 1.523 . S
H143 C118 0.950 . S
H144 C120 0.950 . S
H145 C121 0.949 . S
H146 C123 0.950 . S
H147 C125 0.950 1_455 S
C148 C149 1.349 . S
C148 C150 1.327 . S
C148 H173 0.950 . S
C149 C148 1.349 . S
C149 C165 1.349 . S
C150 C148 1.327 . S
C150 C169 1.429 . S
C150 H174 0.950 . S
C151 C168 1.574 1_455 S
C151 C170 1.368 . S
C151 H175 0.949 1_455 S
H152 C156 0.949 . S
C153 C154 1.349 . S
C153 C155 1.327 . S
C153 H176 0.950 . S
C154 C153 1.349 . S
C154 C166 1.349 . S
C155 C153 1.327 . S
C155 C171 1.429 . S
C155 H177 0.950 . S
C156 H152 0.949 . S
C156 C164 1.574 . S
C156 C172 1.368 1_455 S
H157 C165 0.950 1_545 S
H158 C163 0.950 . S
H159 C164 0.949 . S
H160 C166 0.950 . S
H161 C167 0.950 1_455 S
H162 C168 0.949 . S
C163 H158 0.950 . S
C163 C165 1.327 . S
C163 C169 1.429 . S
C164 C156 1.574 . S
C164 H159 0.949 . S
C164 C170 1.368 . S
C165 C149 1.349 . S
C165 H157 0.950 1_565 S
C165 C163 1.327 . S
C166 C154 1.349 . S
C166 H160 0.950 . S
C166 C167 1.327 . S
C167 H161 0.950 1_655 S
C167 C166 1.327 . S
C167 C171 1.429 . S
C168 C151 1.574 1_655 S
C168 H162 0.949 . S
C168 C172 1.368 . S
C169 C150 1.429 . S
C169 C163 1.429 . S
C169 C170 1.523 . S
C170 C151 1.368 . S
C170 C164 1.368 . S
C170 C169 1.523 . S
C171 C155 1.429 . S
C171 C167 1.429 . S
C171 C172 1.523 . S
C172 C156 1.368 1_655 S
C172 C168 1.368 . S
C172 C171 1.523 . S
H173 C148 0.950 . S
H174 C150 0.950 . S
H175 C151 0.949 1_655 S
H176 C153 0.950 . S
H177 C155 0.950 . S
C178 C179 1.349 . S
C178 C180 1.327 . S
C178 H203 0.950 . S
C179 C178 1.349 . S
C179 C195 1.349 . S
C180 C178 1.327 . S
C180 C199 1.429 . S
C180 H204 0.950 . S
C181 C198 1.574 . S
C181 C200 1.368 . S
C181 H205 0.949 . S
H182 C186 0.949 . S
C183 C184 1.349 . S
C183 C185 1.327 . S
C183 H206 0.950 . S
C184 C183 1.349 . S
C184 C196 1.349 . S
C185 C183 1.327 . S
C185 C201 1.429 . S
C185 H207 0.950 . S
C186 H182 0.949 . S
C186 C194 1.574 1_455 S
C186 C202 1.368 . S
H187 C195 0.950 . S
H188 C193 0.950 . S
H189 C194 0.949 . S
H190 C196 0.950 . S
H191 C197 0.950 . S
H192 C198 0.949 . S
C193 H188 0.950 . S
C193 C195 1.327 . S
C193 C199 1.429 . S
C194 C186 1.574 1_655 S
C194 H189 0.949 . S
C194 C200 1.368 . S
C195 C179 1.349 . S
C195 H187 0.950 . S
C195 C193 1.327 . S
C196 C184 1.349 . S
C196 H190 0.950 . S
C196 C197 1.327 . S
C197 H191 0.950 . S
C197 C196 1.327 . S
C197 C201 1.429 . S
C198 C181 1.574 . S
C198 H192 0.949 . S
C198 C202 1.368 1_655 S
C199 C180 1.429 . S
C199 C193 1.429 . S
C199 C200 1.523 . S
C200 C181 1.368 . S
C200 C194 1.368 . S
C200 C199 1.523 . S
C201 C185 1.429 . S
C201 C197 1.429 . S
C201 C202 1.523 . S
C202 C186 1.368 . S
C202 C198 1.368 1_455 S
C202 C201 1.523 . S
H203 C178 0.950 . S
H204 C180 0.950 . S
H205 C181 0.949 . S
H206 C183 0.950 . S
H207 C185 0.950 . S
C208 C209 1.349 . S
C208 C210 1.327 . S
C208 H233 0.950 . S
C209 C208 1.349 . S
C209 C225 1.349 . S
C210 C208 1.327 . S
C210 C229 1.429 . S
C210 H234 0.950 1_655 S
C211 C228 1.574 . S
C211 C230 1.368 . S
C211 H235 0.949 . S
H212 C216 0.949 . S
C213 C214 1.349 . S
C213 C215 1.327 . S
C213 H236 0.950 . S
C214 C213 1.349 . S
C214 C226 1.349 . S
C215 C213 1.327 . S
C215 C231 1.429 . S
C215 H237 0.950 1_455 S
C216 H212 0.949 . S
C216 C224 1.574 . S
C216 C232 1.368 . S
H217 C225 0.950 . S
H218 C223 0.950 . S
H219 C224 0.949 . S
H220 C226 0.950 . S
H221 C227 0.950 . S
H222 C228 0.949 . S
C223 H218 0.950 . S
C223 C225 1.327 . S
C223 C229 1.429 . S
C224 C216 1.574 . S
C224 H219 0.949 . S
C224 C230 1.368 1_455 S
C225 C209 1.349 . S
C225 H217 0.950 . S
C225 C223 1.327 . S
C226 C214 1.349 . S
C226 H220 0.950 . S
C226 C227 1.327 . S
C227 H221 0.950 . S
C227 C226 1.327 . S
C227 C231 1.429 . S
C228 C211 1.574 . S
C228 H222 0.949 . S
C228 C232 1.368 1_655 S
C229 C210 1.429 . S
C229 C223 1.429 . S
C229 C230 1.523 . S
C230 C211 1.368 . S
C230 C224 1.368 1_655 S
C230 C229 1.523 . S
C231 C215 1.429 . S
C231 C227 1.429 . S
C231 C232 1.523 . S
C232 C216 1.368 . S
C232 C228 1.368 1_455 S
C232 C231 1.523 . S
H233 C208 0.950 . S
H234 C210 0.950 1_455 S
H235 C211 0.949 . S
H236 C213 0.950 . S
H237 C215 0.950 1_655 S
C238 C239 1.349 . S
C238 C240 1.327 . S
C238 H263 0.950 . S
C239 C238 1.349 . S
C239 C255 1.349 . S
C240 C238 1.327 . S
C240 C259 1.429 . S
C240 H264 0.950 . S
C241 C258 1.574 . S
C241 C260 1.368 1_445 S
C241 H265 0.947 1_455 S
H242 C246 0.947 1_455 S
C243 C244 1.349 . S
C243 C245 1.327 . S
C243 H266 0.950 . S
C244 C243 1.349 . S
C244 C256 1.349 . S
C245 C243 1.327 . S
C245 C261 1.429 . S
C245 H267 0.950 . S
C246 H242 0.947 1_655 S
C246 C254 1.574 . S
C246 C262 1.368 1_665 S
H247 C255 0.950 . S
H248 C253 0.950 1_545 S
H249 C254 0.949 . S
H250 C256 0.950 . S
H251 C257 0.950 1_565 S
H252 C258 0.949 . S
C253 H248 0.950 1_565 S
C253 C255 1.327 . S
C253 C259 1.429 . S
C254 C246 1.574 . S
C254 H249 0.949 . S
C254 C260 1.368 1_556 S
C255 C239 1.349 . S
C255 H247 0.950 . S
C255 C253 1.327 . S
C256 C244 1.349 . S
C256 H250 0.950 . S
C256 C257 1.327 . S
C257 H251 0.950 1_545 S
C257 C256 1.327 . S
C257 C261 1.429 . S
C258 C241 1.574 . S
C258 H252 0.949 . S
C258 C262 1.368 1_554 S
C259 C240 1.429 . S
C259 C253 1.429 . S
C259 C260 1.523 . S
C260 C241 1.368 1_665 S
C260 C254 1.368 1_554 S
C260 C259 1.523 . S
C261 C245 1.429 . S
C261 C257 1.429 . S
C261 C262 1.523 . S
C262 C246 1.368 1_445 S
C262 C258 1.368 1_556 S
C262 C261 1.523 . S
H263 C238 0.950 . S
H264 C240 0.950 . S
H265 C241 0.947 1_655 S
H266 C243 0.950 . S
H267 C245 0.950 . S
C268 C269 1.349 . S
C268 C270 1.327 . S
C268 H293 0.950 . S
C269 C268 1.349 . S
C269 C285 1.349 . S
C270 C268 1.327 . S
C270 C289 1.429 . S
C270 H294 0.950 . S
C271 C288 1.574 . S
C271 C290 1.368 . S
C271 H295 0.949 . S
H272 C276 0.949 . S
C273 C274 1.349 . S
C273 C275 1.327 . S
C273 H296 0.950 . S
C274 C273 1.349 . S
C274 C286 1.349 . S
C275 C273 1.327 . S
C275 C291 1.429 . S
C275 H297 0.950 . S
C276 H272 0.949 . S
C276 C284 1.574 . S
C276 C292 1.368 . S
H277 C285 0.950 1_556 S
H278 C283 0.950 . S
H279 C284 0.949 . S
H280 C286 0.950 . S
H281 C287 0.950 . S
H282 C288 0.949 . S
C283 H278 0.950 . S
C283 C285 1.327 . S
C283 C289 1.429 . S
C284 C276 1.574 . S
C284 H279 0.949 . S
C284 C290 1.368 . S
C285 C269 1.349 . S
C285 H277 0.950 1_554 S
C285 C283 1.327 . S
C286 C274 1.349 . S
C286 H280 0.950 . S
C286 C287 1.327 . S
C287 H281 0.950 . S
C287 C286 1.327 . S
C287 C291 1.429 . S
C288 C271 1.574 . S
C288 H282 0.949 . S
C288 C292 1.368 . S
C289 C270 1.429 . S
C289 C283 1.429 . S
C289 C290 1.523 . S
C290 C271 1.368 . S
C290 C284 1.368 . S
C290 C289 1.523 . S
C291 C275 1.429 . S
C291 C287 1.429 . S
C291 C292 1.523 . S
C292 C276 1.368 . S
C292 C288 1.368 . S
C292 C291 1.523 . S
H293 C268 0.950 . S
H294 C270 0.950 . S
H295 C271 0.949 . S
H296 C273 0.950 . S
H297 C275 0.950 . S
C298 C299 1.349 . S
C298 C300 1.327 . S
C298 H323 0.950 . S
C299 C298 1.349 . S
C299 C315 1.349 . S
C300 C298 1.327 . S
C300 C319 1.429 . S
C300 H324 0.950 . S
C301 C318 1.574 . S
C301 C320 1.368 . S
C301 H325 0.949 . S
H302 C306 0.949 . S
C303 C304 1.349 . S
C303 C305 1.327 . S
C303 H326 0.950 . S
C304 C303 1.349 . S
C304 C316 1.349 . S
C305 C303 1.327 . S
C305 C321 1.429 . S
C305 H327 0.950 . S
C306 H302 0.949 . S
C306 C314 1.574 . S
C306 C322 1.368 . S
H307 C315 0.950 . S
H308 C313 0.950 . S
H309 C314 0.949 . S
H310 C316 0.950 . S
H311 C317 0.950 . S
H312 C318 0.949 . S
C313 H308 0.950 . S
C313 C315 1.327 . S
C313 C319 1.429 . S
C314 C306 1.574 . S
C314 H309 0.949 . S
C314 C320 1.368 . S
C315 C299 1.349 . S
C315 H307 0.950 . S
C315 C313 1.327 . S
C316 C304 1.349 . S
C316 H310 0.950 . S
C316 C317 1.327 . S
C317 H311 0.950 . S
C317 C316 1.327 . S
C317 C321 1.429 . S
C318 C301 1.574 . S
C318 H312 0.949 . S
C318 C322 1.368 . S
C319 C300 1.429 . S
C319 C313 1.429 . S
C319 C320 1.523 . S
C320 C301 1.368 . S
C320 C314 1.368 . S
C320 C319 1.523 . S
C321 C305 1.429 . S
C321 C317 1.429 . S
C321 C322 1.523 . S
C322 C306 1.368 . S
C322 C318 1.368 . S
C322 C321 1.523 . S
H323 C298 0.950 . S
H324 C300 0.950 . S
H325 C301 0.949 . S
H326 C303 0.950 . S
H327 C305 0.950 . S
C328 C329 1.349 . S
C328 C330 1.327 . S
C328 H353 0.950 . S
C329 C328 1.349 . S
C329 C345 1.349 . S
C330 C328 1.327 . S
C330 C349 1.429 . S
C330 H354 0.950 . S
C331 C348 1.574 . S
C331 C350 1.368 . S
C331 H355 0.949 . S
H332 C336 0.949 . S
C333 C334 1.349 . S
C333 C335 1.327 . S
C333 H356 0.950 . S
C334 C333 1.349 . S
C334 C346 1.349 . S
C335 C333 1.327 . S
C335 C351 1.429 . S
C335 H357 0.950 . S
C336 H332 0.949 . S
C336 C344 1.574 . S
C336 C352 1.368 . S
H337 C345 0.950 . S
H338 C343 0.950 . S
H339 C344 0.949 . S
H340 C346 0.950 . S
H341 C347 0.950 . S
H342 C348 0.949 . S
C343 H338 0.950 . S
C343 C345 1.327 . S
C343 C349 1.429 . S
C344 C336 1.574 . S
C344 H339 0.949 . S
C344 C350 1.368 . S
C345 C329 1.349 . S
C345 H337 0.950 . S
C345 C343 1.327 . S
C346 C334 1.349 . S
C346 H340 0.950 . S
C346 C347 1.327 . S
C347 H341 0.950 . S
C347 C346 1.327 . S
C347 C351 1.429 . S
C348 C331 1.574 . S
C348 H342 0.949 . S
C348 C352 1.368 . S
C349 C330 1.429 . S
C349 C343 1.429 . S
C349 C350 1.523 . S
C350 C331 1.368 . S
C350 C344 1.368 . S
C350 C349 1.523 . S
C351 C335 1.429 . S
C351 C347 1.429 . S
C351 C352 1.523 . S
C352 C336 1.368 . S
C352 C348 1.368 . S
C352 C351 1.523 . S
H353 C328 0.950 . S
H354 C330 0.950 . S
H355 C331 0.949 . S
H356 C333 0.950 . S
H357 C335 0.950 . S
C358 C359 1.349 . S
C358 C360 1.327 . S
C358 H383 0.950 . S
C359 C358 1.349 . S
C359 C375 1.349 . S
C360 C358 1.327 . S
C360 C379 1.429 . S
C360 H384 0.950 . S
C361 C378 1.574 . S
C361 C380 1.368 . S
C361 H385 0.949 . S
H362 C366 0.949 . S
C363 C364 1.349 . S
C363 C365 1.327 . S
C363 H386 0.950 . S
C364 C363 1.349 . S
C364 C376 1.349 . S
C365 C363 1.327 . S
C365 C381 1.429 . S
C365 H387 0.950 . S
C366 H362 0.949 . S
C366 C374 1.574 . S
C366 C382 1.368 . S
H367 C375 0.950 . S
H368 C373 0.950 . S
H369 C374 0.949 . S
H370 C376 0.950 . S
H371 C377 0.950 . S
H372 C378 0.949 . S
C373 H368 0.950 . S
C373 C375 1.327 . S
C373 C379 1.429 . S
C374 C366 1.574 . S
C374 H369 0.949 . S
C374 C380 1.368 . S
C375 C359 1.349 . S
C375 H367 0.950 . S
C375 C373 1.327 . S
C376 C364 1.349 . S
C376 H370 0.950 . S
C376 C377 1.327 . S
C377 H371 0.950 . S
C377 C376 1.327 . S
C377 C381 1.429 . S
C378 C361 1.574 . S
C378 H372 0.949 . S
C378 C382 1.368 . S
C379 C360 1.429 . S
C379 C373 1.429 . S
C379 C380 1.523 . S
C380 C361 1.368 . S
C380 C374 1.368 . S
C380 C379 1.523 . S
C381 C365 1.429 . S
C381 C377 1.429 . S
C381 C382 1.523 . S
C382 C366 1.368 . S
C382 C378 1.368 . S
C382 C381 1.523 . S
H383 C358 0.950 . S
H384 C360 0.950 . S
H385 C361 0.949 . S
H386 C363 0.950 . S
H387 C365 0.950 . S
C388 C389 1.349 . S
C388 C390 1.327 . S
C388 H413 0.950 . S
C389 C388 1.349 . S
C389 C405 1.349 . S
C390 C388 1.327 . S
C390 C409 1.429 . S
C390 H414 0.950 . S
C391 C408 1.574 . S
C391 C410 1.368 . S
C391 H415 0.949 . S
H392 C396 0.949 . S
C393 C394 1.349 . S
C393 C395 1.327 . S
C393 H416 0.950 . S
C394 C393 1.349 . S
C394 C406 1.349 . S
C395 C393 1.327 . S
C395 C411 1.429 . S
C395 H417 0.950 . S
C396 H392 0.949 . S
C396 C404 1.574 . S
C396 C412 1.368 . S
H397 C405 0.950 . S
H398 C403 0.950 . S
H399 C404 0.949 . S
H400 C406 0.950 . S
H401 C407 0.950 . S
H402 C408 0.949 . S
C403 H398 0.950 . S
C403 C405 1.327 . S
C403 C409 1.429 . S
C404 C396 1.574 . S
C404 H399 0.949 . S
C404 C410 1.368 . S
C405 C389 1.349 . S
C405 H397 0.950 . S
C405 C403 1.327 . S
C406 C394 1.349 . S
C406 H400 0.950 . S
C406 C407 1.327 . S
C407 H401 0.950 . S
C407 C406 1.327 . S
C407 C411 1.429 . S
C408 C391 1.574 . S
C408 H402 0.949 . S
C408 C412 1.368 . S
C409 C390 1.429 . S
C409 C403 1.429 . S
C409 C410 1.523 . S
C410 C391 1.368 . S
C410 C404 1.368 . S
C410 C409 1.523 . S
C411 C395 1.429 . S
C411 C407 1.429 . S
C411 C412 1.523 . S
C412 C396 1.368 . S
C412 C408 1.368 . S
C412 C411 1.523 . S
H413 C388 0.950 . S
H414 C390 0.950 . S
H415 C391 0.949 . S
H416 C393 0.950 . S
H417 C395 0.950 . S
C418 C419 1.349 . S
C418 C420 1.327 . S
C418 H443 0.950 . S
C419 C418 1.349 . S
C419 C435 1.349 . S
C420 C418 1.327 . S
C420 C439 1.429 . S
C420 H444 0.950 1_545 S
C421 C438 1.574 . S
C421 C440 1.368 . S
C421 H445 0.949 . S
H422 C426 0.949 . S
C423 C424 1.349 . S
C423 C425 1.327 . S
C423 H446 0.950 . S
C424 C423 1.349 . S
C424 C436 1.349 . S
C425 C423 1.327 . S
C425 C441 1.429 . S
C425 H447 0.950 1_565 S
C426 H422 0.949 . S
C426 C434 1.574 . S
C426 C442 1.368 . S
H427 C435 0.950 . S
H428 C433 0.950 . S
H429 C434 0.949 . S
H430 C436 0.950 . S
H431 C437 0.950 . S
H432 C438 0.949 . S
C433 H428 0.950 . S
C433 C435 1.327 . S
C433 C439 1.429 . S
C434 C426 1.574 . S
C434 H429 0.949 . S
C434 C440 1.368 1_564 S
C435 C419 1.349 . S
C435 H427 0.950 . S
C435 C433 1.327 . S
C436 C424 1.349 . S
C436 H430 0.950 . S
C436 C437 1.327 . S
C437 H431 0.950 . S
C437 C436 1.327 . S
C437 C441 1.429 . S
C438 C421 1.574 . S
C438 H432 0.949 . S
C438 C442 1.368 1_546 S
C439 C420 1.429 . S
C439 C433 1.429 . S
C439 C440 1.523 . S
C440 C421 1.368 . S
C440 C434 1.368 1_546 S
C440 C439 1.523 . S
C441 C425 1.429 . S
C441 C437 1.429 . S
C441 C442 1.523 . S
C442 C426 1.368 . S
C442 C438 1.368 1_564 S
C442 C441 1.523 . S
H443 C418 0.950 . S
H444 C420 0.950 1_565 S
H445 C421 0.949 . S
H446 C423 0.950 . S
H447 C425 0.950 1_545 S
C89 C32 1.428 1_545 S
C94 C7 1.447 . S
C119 C8 1.428 . S
C124 C43 1.447 . S
C149 C76 1.428 1_565 S
C154 C59 1.447 . S
C179 C62 1.428 . S
C184 C87 1.447 . S
C209 C51 0.771 . S
C214 C21 0.771 . S
C239 C37 0.771 . S
C244 C81 0.771 . S
C269 C73 1.496 1_554 S
C274 C18 1.482 . S
C299 C30 1.482 . S
C304 C65 1.496 . S
C329 C29 1.496 1_556 S
C334 C54 1.482 . S
C359 C74 1.482 . S
C364 C15 1.496 . S
C389 C10 1.555 . S
C394 C52 1.555 . S
C419 C84 1.555 . S
C424 C40 1.555 . S
