# Generated by pormake.
# Topology ukh, (4)-cn, num edge types: 1
# Building blocks:
#     Node 0, Type 0, BuildingBlock: KUFVIS_clean_sbu_0, # of connection points: 4
#     Node 1, Type 0, BuildingBlock: KUFVIS_clean_sbu_0, # of connection points: 4
#     Node 2, Type 0, BuildingBlock: KUFVIS_clean_sbu_0, # of connection points: 4
#     Node 3, Type 0, BuildingBlock: KUFVIS_clean_sbu_0, # of connection points: 4
#     Node 4, Type 0, BuildingBlock: KUFVIS_clean_sbu_0, # of connection points: 4
#     Node 5, Type 0, BuildingBlock: KUFVIS_clean_sbu_0, # of connection points: 4
#     Node 6, Type 0, BuildingBlock: KUFVIS_clean_sbu_0, # of connection points: 4
#     Node 7, Type 0, BuildingBlock: KUFVIS_clean_sbu_0, # of connection points: 4
#     Node 8, Type 0, BuildingBlock: KUFVIS_clean_sbu_0, # of connection points: 4
#     Node 9, Type 0, BuildingBlock: KUFVIS_clean_sbu_0, # of connection points: 4
#     Node 10, Type 0, BuildingBlock: KUFVIS_clean_sbu_0, # of connection points: 4
#     Node 11, Type 0, BuildingBlock: KUFVIS_clean_sbu_0, # of connection points: 4
#     Edge 12, Type (0, 0), BuildingBlock: EZIPEK_clean_linker_0, # of connection points: 2
#     Edge 13, Type (0, 0), BuildingBlock: EZIPEK_clean_linker_0, # of connection points: 2
#     Edge 14, Type (0, 0), BuildingBlock: EZIPEK_clean_linker_0, # of connection points: 2
#     Edge 15, Type (0, 0), BuildingBlock: EZIPEK_clean_linker_0, # of connection points: 2
#     Edge 16, Type (0, 0), BuildingBlock: EZIPEK_clean_linker_0, # of connection points: 2
#     Edge 17, Type (0, 0), BuildingBlock: EZIPEK_clean_linker_0, # of connection points: 2
#     Edge 18, Type (0, 0), BuildingBlock: EZIPEK_clean_linker_0, # of connection points: 2
#     Edge 19, Type (0, 0), BuildingBlock: EZIPEK_clean_linker_0, # of connection points: 2
#     Edge 20, Type (0, 0), BuildingBlock: EZIPEK_clean_linker_0, # of connection points: 2
#     Edge 21, Type (0, 0), BuildingBlock: EZIPEK_clean_linker_0, # of connection points: 2
#     Edge 22, Type (0, 0), BuildingBlock: EZIPEK_clean_linker_0, # of connection points: 2
#     Edge 23, Type (0, 0), BuildingBlock: EZIPEK_clean_linker_0, # of connection points: 2
#     Edge 24, Type (0, 0), BuildingBlock: EZIPEK_clean_linker_0, # of connection points: 2
#     Edge 25, Type (0, 0), BuildingBlock: EZIPEK_clean_linker_0, # of connection points: 2
#     Edge 26, Type (0, 0), BuildingBlock: EZIPEK_clean_linker_0, # of connection points: 2
#     Edge 27, Type (0, 0), BuildingBlock: EZIPEK_clean_linker_0, # of connection points: 2
#     Edge 28, Type (0, 0), BuildingBlock: EZIPEK_clean_linker_0, # of connection points: 2
#     Edge 29, Type (0, 0), BuildingBlock: EZIPEK_clean_linker_0, # of connection points: 2
#     Edge 30, Type (0, 0), BuildingBlock: EZIPEK_clean_linker_0, # of connection points: 2
#     Edge 31, Type (0, 0), BuildingBlock: EZIPEK_clean_linker_0, # of connection points: 2
#     Edge 32, Type (0, 0), BuildingBlock: EZIPEK_clean_linker_0, # of connection points: 2
#     Edge 33, Type (0, 0), BuildingBlock: EZIPEK_clean_linker_0, # of connection points: 2
#     Edge 34, Type (0, 0), BuildingBlock: EZIPEK_clean_linker_0, # of connection points: 2
#     Edge 35, Type (0, 0), BuildingBlock: EZIPEK_clean_linker_0, # of connection points: 2
# Relax obj value: 0.087
# Max RMSD: 0.127
# Mean RMSD: 0.127
data_MOF--net-ukh--node1-KUFVIS_clean_sbu_0--edge1-EZIPEK_clean_linker_0
_symmetry_space_group_name_H-M    P1
_symmetry_Int_Tables_number       1
_symmetry_cell_setting            triclinic
loop_
_symmetry_equiv_pos_as_xyz
'x, y, z'
_cell_length_a     23.814766
_cell_length_b     23.824674
_cell_length_c     44.538481
_cell_angle_alpha  90.010968
_cell_angle_beta   89.843239
_cell_angle_gamma 120.06607
loop_
_atom_site_label
_atom_site_type_symbol
_atom_site_fract_x
_atom_site_fract_y
_atom_site_fract_z
_atom_type_partial_charge
Mn0 Mn 0.33397 0.23218 0.04674 0.0
Mn1 Mn 0.26804 0.30615 0.08624 0.0
C2 C 0.25684 0.24976 0.02485 0.0
C3 C 0.32785 0.13487 0.03167 0.0
C4 C 0.40031 0.37993 0.05665 0.0
O5 O 0.35969 0.22686 0.08942 0.0
O6 O 0.31353 0.27559 0.11375 0.0
C7 C 0.16911 0.19145 0.1197 0.0
N8 N 0.18462 0.24224 0.10087 0.0
C9 C 0.07381 0.21856 0.0998 0.0
C10 C 0.05667 0.16613 0.11929 0.0
C11 C 0.10449 0.15235 0.12915 0.0
C12 C 0.13891 0.25559 0.09104 0.0
H13 H 0.20582 0.18099 0.12749 0.0
C14 C 0.34894 0.24907 0.11344 0.0
O15 O 0.38223 0.18968 0.02985 0.0
O16 O 0.27952 0.13628 0.04409 0.0
N17 N 0.22213 0.33771 0.06304 0.0
C18 C 0.24609 0.38778 0.04306 0.0
C19 C 0.20401 0.40614 0.03011 0.0
C20 C 0.13799 0.37339 0.03802 0.0
C21 C 0.11463 0.32257 0.05893 0.0
C22 C 0.15881 0.3063 0.07106 0.0
H23 H 0.29689 0.41341 0.03703 0.0
O24 O 0.29555 0.23872 0.00866 0.0
O25 O 0.26364 0.2489 0.05384 0.0
O26 O 0.40235 0.33096 0.04581 0.0
O27 O 0.35232 0.37521 0.07163 0.0
C28 C 0.0491 0.28687 0.06793 0.0
C29 C 0.02872 0.23498 0.08841 0.0
H30 H 0.0069 0.1359 0.12666 0.0
H31 H 0.09161 0.11184 0.1441 0.0
H32 H 0.22257 0.44586 0.01432 0.0
H33 H 0.10573 0.38765 0.02787 0.0
H34 H 0.0138 0.29831 0.05892 0.0
H35 H 0.97805 0.20728 0.09482 0.0
Mn36 Mn 0.07571 0.31346 0.38674 0.0
Mn37 Mn 0.94491 0.28052 0.43009 0.0
C38 C 0.97263 0.24503 0.36775 0.0
C39 C 0.15486 0.28843 0.37077 0.0
C40 C 0.02645 0.40791 0.39711 0.0
O41 O 0.11408 0.3409 0.4282 0.0
O42 O 0.02213 0.30154 0.45582 0.0
C43 C 0.91395 0.16708 0.46851 0.0
N44 N 0.89606 0.19502 0.44671 0.0
C45 C 0.78344 0.11341 0.45307 0.0
C46 C 0.8015 0.08215 0.47437 0.0
C47 C 0.86709 0.10915 0.48212 0.0
C48 C 0.83264 0.17004 0.43961 0.0
H49 H 0.963 0.19009 0.47635 0.0
C50 C 0.08398 0.32665 0.45319 0.0
O51 O 0.16348 0.34649 0.36793 0.0
O52 O 0.10277 0.24643 0.38473 0.0
N53 N 0.8683 0.25844 0.40755 0.0
C54 C 0.8592 0.29297 0.38563 0.0
C55 C 0.79644 0.27143 0.37471 0.0
C56 C 0.74357 0.21522 0.38674 0.0
C57 C 0.75418 0.18044 0.40924 0.0
C58 C 0.81811 0.20323 0.41858 0.0
H59 H 0.89939 0.33683 0.37668 0.0
O60 O 0.02373 0.27505 0.35093 0.0
O61 O 0.98309 0.25507 0.39668 0.0
O62 O 0.06457 0.39425 0.38274 0.0
O63 O 0.98528 0.36989 0.41612 0.0
C64 C 0.70384 0.12428 0.42288 0.0
C65 C 0.71842 0.09104 0.44495 0.0
H66 H 0.76532 0.03811 0.48533 0.0
H67 H 0.88125 0.08649 0.49926 0.0
H68 H 0.78874 0.29874 0.35742 0.0
H69 H 0.69507 0.19925 0.37856 0.0
H70 H 0.65383 0.10591 0.41637 0.0
H71 H 0.67937 0.0477 0.45516 0.0
Mn72 Mn 0.77893 0.06027 0.72042 0.0
Mn73 Mn 0.69151 0.94162 0.77065 0.0
C74 C 0.75141 0.95511 0.70716 0.0
C75 C 0.8806 0.13729 0.69997 0.0
C76 C 0.63596 0.00909 0.73325 0.0
O77 O 0.79717 0.11038 0.75917 0.0
O78 O 0.746 0.02655 0.79142 0.0
C79 C 0.78341 0.93032 0.8116 0.0
N80 N 0.73305 0.90271 0.79194 0.0
C81 C 0.70719 0.79547 0.80762 0.0
C82 C 0.76051 0.82305 0.82708 0.0
C83 C 0.79874 0.89082 0.82909 0.0
C84 C 0.69477 0.8374 0.79053 0.0
H85 H 0.81032 0.98182 0.81457 0.0
C86 C 0.78218 0.08718 0.78556 0.0
O87 O 0.82938 0.14265 0.69625 0.0
O88 O 0.87326 0.08914 0.71624 0.0
N89 N 0.63756 0.85752 0.75397 0.0
C90 C 0.59076 0.83875 0.7326 0.0
C91 C 0.54855 0.77239 0.72751 0.0
C92 C 0.55477 0.72612 0.74449 0.0
C93 C 0.60358 0.74672 0.76627 0.0
C94 C 0.64438 0.81349 0.77023 0.0
H95 H 0.58502 0.87414 0.71988 0.0
O96 O 0.757 0.99813 0.68781 0.0
O97 O 0.754 0.97167 0.73564 0.0
O98 O 0.68622 0.04706 0.71806 0.0
O99 O 0.63644 0.97164 0.75318 0.0
C100 C 0.6143 0.70365 0.78374 0.0
C101 C 0.6662 0.72801 0.80431 0.0
H102 H 0.77222 0.79272 0.84076 0.0
H103 H 0.83909 0.91256 0.84457 0.0
H104 H 0.51069 0.75695 0.71085 0.0
H105 H 0.52212 0.67496 0.74048 0.0
H106 H 0.58356 0.65171 0.78116 0.0
H107 H 0.67449 0.69441 0.8173 0.0
Mn108 Mn 0.71118 0.78506 0.04954 0.0
Mn109 Mn 0.73586 0.69417 0.10008 0.0
C110 C 0.78898 0.75655 0.03773 0.0
C111 C 0.73867 0.88707 0.02927 0.0
C112 C 0.61642 0.64231 0.06048 0.0
O113 O 0.67721 0.80325 0.08785 0.0
O114 O 0.70484 0.74861 0.12035 0.0
C115 C 0.83467 0.78206 0.14358 0.0
N116 N 0.81387 0.73325 0.12314 0.0
C117 C 0.88987 0.70262 0.14153 0.0
C118 C 0.91294 0.75367 0.16226 0.0
C119 C 0.88551 0.79382 0.16314 0.0
C120 C 0.83943 0.6937 0.12244 0.0
H121 H 0.81118 0.81022 0.1457 0.0
C122 C 0.68265 0.78654 0.11432 0.0
O123 O 0.68196 0.83649 0.02476 0.0
O124 O 0.77799 0.87897 0.04625 0.0
N125 N 0.76634 0.64012 0.08387 0.0
C126 C 0.7397 0.59441 0.06192 0.0
C127 C 0.76276 0.55114 0.0575 0.0
C128 C 0.81267 0.55514 0.07574 0.0
C129 C 0.83928 0.60268 0.09818 0.0
C130 C 0.81469 0.64477 0.10136 0.0
H131 H 0.70032 0.59022 0.04831 0.0
O132 O 0.75345 0.76316 0.0177 0.0
O133 O 0.77264 0.75837 0.06591 0.0
O134 O 0.63058 0.69341 0.04575 0.0
O135 O 0.65248 0.64122 0.0809 0.0
C136 C 0.88946 0.6102 0.11742 0.0
C137 C 0.91455 0.65995 0.13915 0.0
H138 H 0.95091 0.762 0.17795 0.0
H139 H 0.90225 0.83257 0.17945 0.0
H140 H 0.74126 0.51399 0.04045 0.0
H141 H 0.83014 0.52147 0.07233 0.0
H142 H 0.90927 0.57814 0.11562 0.0
H143 H 0.95286 0.6649 0.15386 0.0
Mn144 Mn 0.9093 0.6975 0.37623 0.0
Mn145 Mn 0.05046 0.7627 0.41483 0.0
C146 C 1.00516 0.77077 0.35304 0.0
C147 C 0.82168 0.70858 0.36008 0.0
C148 C 0.98097 0.62444 0.39099 0.0
O149 O 0.87873 0.6789 0.41956 0.0
O150 O 0.97533 0.73397 0.44359 0.0
C151 C 0.06434 0.87896 0.44578 0.0
N152 N 0.08445 0.85255 0.42418 0.0
C153 C 0.17911 0.95645 0.41425 0.0
C154 C 0.15653 0.98522 0.43479 0.0
C155 C 0.09922 0.94611 0.45091 0.0
C156 C 0.14156 0.88931 0.40977 0.0
H157 H 0.0238 0.84867 0.45986 0.0
C158 C 0.9127 0.70076 0.44334 0.0
O159 O 0.81817 0.65227 0.35966 0.0
O160 O 0.87312 0.75608 0.37168 0.0
N161 N 0.12395 0.79263 0.38854 0.0
C162 C 0.13962 0.75756 0.3696 0.0
C163 C 0.19661 0.78936 0.35235 0.0
C164 C 0.23719 0.85677 0.35483 0.0
C165 C 0.22017 0.89183 0.37448 0.0
C166 C 0.1623 0.85763 0.39082 0.0
H167 H 0.10878 0.70573 0.36752 0.0
O168 O 0.95503 0.73073 0.33749 0.0
O169 O 0.99789 0.76579 0.38206 0.0
O170 O 0.93398 0.62524 0.37738 0.0
O171 O 0.02346 0.67205 0.4062 0.0
C172 C 0.25832 0.95939 0.37848 0.0
C173 C 0.23798 0.99164 0.39842 0.0
H174 H 0.18377 0.03694 0.43898 0.0
H175 H 0.08288 0.96738 0.46782 0.0
H176 H 0.20938 0.76185 0.33729 0.0
H177 H 0.28126 0.88109 0.34158 0.0
H178 H 0.3035 0.98709 0.3664 0.0
H179 H 0.26802 0.04353 0.40146 0.0
Mn180 Mn 0.22936 0.89745 0.71253 0.0
Mn181 Mn 0.30884 0.03992 0.75029 0.0
C182 C 0.25469 0.99366 0.68881 0.0
C183 C 0.13021 0.8092 0.69675 0.0
C184 C 0.37384 0.96568 0.72784 0.0
O185 O 0.21621 0.86881 0.75623 0.0
O186 O 0.25895 0.96665 0.77934 0.0
C187 C 0.20917 0.06066 0.77985 0.0
N188 N 0.2561 0.07804 0.75855 0.0
C189 C 0.25316 0.17562 0.74758 0.0
C190 C 0.20169 0.15616 0.76793 0.0
C191 C 0.18006 0.0987 0.78438 0.0
C192 C 0.27965 0.13514 0.74378 0.0
H193 H 0.19616 0.01978 0.79414 0.0
C194 C 0.22788 0.90406 0.7796 0.0
O195 O 0.18297 0.80568 0.69688 0.0
O196 O 0.13434 0.86155 0.70743 0.0
N197 N 0.35568 0.11176 0.72348 0.0
C198 C 0.4061 0.12419 0.70481 0.0
C199 C 0.43414 0.18055 0.68711 0.0
C200 C 0.41047 0.22386 0.68888 0.0
C201 C 0.35866 0.21015 0.70825 0.0
C202 C 0.33206 0.15275 0.72508 0.0
H203 H 0.42467 0.09126 0.70325 0.0
O204 O 0.24325 0.94276 0.67345 0.0
O205 O 0.25213 0.98696 0.71781 0.0
O206 O 0.32555 0.91984 0.71398 0.0
O207 O 0.37 0.00904 0.74293 0.0
C208 C 0.33225 0.25112 0.71147 0.0
C209 C 0.27973 0.23403 0.73121 0.0
H210 H 0.17959 0.18578 0.77167 0.0
H211 H 0.14218 0.08461 0.80106 0.0
H212 H 0.47414 0.19065 0.67225 0.0
H213 H 0.43242 0.26747 0.67528 0.0
H214 H 0.35202 0.29594 0.69891 0.0
H215 H 0.26001 0.26608 0.73356 0.0
Mn216 Mn 0.78453 0.67443 0.62421 0.0
Mn217 Mn 0.70503 0.73759 0.58678 0.0
C218 C 0.75872 0.74458 0.64834 0.0
C219 C 0.88385 0.68569 0.63984 0.0
C220 C 0.63998 0.59793 0.60891 0.0
O221 O 0.79803 0.65978 0.58041 0.0
O222 O 0.75568 0.71545 0.55765 0.0
C223 C 0.80506 0.85906 0.55801 0.0
N224 N 0.75768 0.82874 0.57905 0.0
C225 C 0.76066 0.92895 0.59083 0.0
C226 C 0.8126 0.96171 0.57079 0.0
C227 C 0.83443 0.92643 0.55405 0.0
C228 C 0.73395 0.86179 0.59408 0.0
H229 H 0.81832 0.83169 0.5435 0.0
C230 C 0.787 0.68425 0.55719 0.0
O231 O 0.83122 0.62921 0.63958 0.0
O232 O 0.87948 0.73391 0.62937 0.0
N233 N 0.65756 0.76162 0.61366 0.0
C234 C 0.60654 0.72291 0.6319 0.0
C235 C 0.57792 0.75055 0.64963 0.0
C236 C 0.60174 0.81764 0.6484 0.0
C237 C 0.65422 0.85651 0.62949 0.0
C238 C 0.6812 0.82631 0.61251 0.0
H239 H 0.58779 0.67131 0.63305 0.0
O240 O 0.77042 0.70506 0.66346 0.0
O241 O 0.76145 0.74101 0.61931 0.0
O242 O 0.68831 0.60038 0.6227 0.0
O243 O 0.64396 0.64513 0.59374 0.0
C244 C 0.68086 0.92407 0.62685 0.0
C245 C 0.73387 0.96025 0.60746 0.0
H246 H 0.83494 0.01361 0.56751 0.0
H247 H 0.87272 0.95084 0.53759 0.0
H248 H 0.53732 0.72 0.66407 0.0
H249 H 0.57933 0.83879 0.662 0.0
H250 H 0.66088 0.94869 0.63958 0.0
H251 H 0.75378 0.01215 0.60554 0.0
Mn252 Mn 0.10965 0.78945 0.96079 0.0
Mn253 Mn 0.96917 0.71209 0.92146 0.0
C254 C 0.01239 0.76515 0.98348 0.0
C255 C 0.19897 0.88764 0.97668 0.0
C256 C 0.04047 0.64524 0.94521 0.0
O257 O 0.14047 0.80176 0.9174 0.0
O258 O 0.0442 0.76141 0.89317 0.0
C259 C 0.95225 0.81401 0.89188 0.0
N260 N 0.93258 0.76594 0.91269 0.0
C261 C 0.83475 0.76963 0.92218 0.0
C262 C 0.85635 0.82204 0.90229 0.0
C263 C 0.91512 0.8439 0.88683 0.0
C264 C 0.87442 0.74243 0.92657 0.0
H265 H 0.99441 0.82752 0.8784 0.0
C266 C 0.10676 0.79092 0.89359 0.0
O267 O 0.20084 0.83404 0.97699 0.0
O268 O 0.14737 0.88475 0.96572 0.0
N269 N 0.89547 0.6653 0.94729 0.0
C270 C 0.88081 0.61367 0.96546 0.0
C271 C 0.82269 0.58489 0.98192 0.0
C272 C 0.77999 0.6092 0.97951 0.0
C273 C 0.79603 0.66232 0.9607 0.0
C274 C 0.85494 0.68936 0.94498 0.0
H275 H 0.91312 0.59445 0.96745 0.0
O276 O 0.06249 0.7764 0.99941 0.0
O277 O 0.02067 0.76792 0.95455 0.0
O278 O 0.08564 0.69295 0.95963 0.0
O279 O 0.99857 0.64996 0.92936 0.0
C280 C 0.75579 0.68938 0.95688 0.0
C281 C 0.77502 0.74287 0.93756 0.0
H282 H 0.82748 0.84477 0.89816 0.0
H283 H 0.93098 0.88264 0.87052 0.0
H284 H 0.81073 0.5437 0.99622 0.0
H285 H 0.73494 0.5866 0.99209 0.0
H286 H 0.70989 0.66936 0.96864 0.0
H287 H 0.74355 0.76314 0.93472 0.0
Mn288 Mn 0.30297 0.09172 0.28651 0.0
Mn289 Mn 0.27061 0.9779 0.23407 0.0
C290 C 0.22004 0.98699 0.29681 0.0
C291 C 0.28193 0.16887 0.30902 0.0
C292 C 0.38603 0.02942 0.27592 0.0
O293 O 0.3425 0.14629 0.24916 0.0
O294 O 0.31598 0.06651 0.21623 0.0
C295 C 0.18121 0.99254 0.19297 0.0
N296 N 0.19638 0.95436 0.20982 0.0
C297 C 0.1152 0.85773 0.18528 0.0
C298 C 0.09818 0.89584 0.16774 0.0
C299 C 0.1309 0.96348 0.17183 0.0
C300 C 0.16467 0.88924 0.20635 0.0
H301 H 0.20802 0.04469 0.19534 0.0
C302 C 0.34305 0.12682 0.22264 0.0
O303 O 0.33677 0.1706 0.31313 0.0
O304 O 0.24162 0.12537 0.29068 0.0
N305 N 0.22775 0.88928 0.24613 0.0
C306 C 0.24662 0.85965 0.26663 0.0
C307 C 0.21727 0.79175 0.26645 0.0
C308 C 0.1698 0.7553 0.24487 0.0
C309 C 0.15092 0.78704 0.22414 0.0
C310 C 0.18167 0.85468 0.22552 0.0
H311 H 0.28488 0.8878 0.28246 0.0
O312 O 0.2564 0.02688 0.31737 0.0
O313 O 0.23708 0.00665 0.26885 0.0
O314 O 0.37805 0.07178 0.28967 0.0
O315 O 0.34835 0.99399 0.25539 0.0
C316 C 0.1027 0.75438 0.20224 0.0
C317 C 0.08515 0.78976 0.18275 0.0
H318 H 0.05996 0.87369 0.15117 0.0
H319 H 0.11823 0.99323 0.1583 0.0
H320 H 0.23216 0.76762 0.28245 0.0
H321 H 0.14757 0.70298 0.24469 0.0
H322 H 0.07853 0.70207 0.20032 0.0
H323 H 0.04857 0.76427 0.16585 0.0
Mn324 Mn 0.23289 0.29059 0.62011 0.0
Mn325 Mn 0.31581 0.25915 0.5676 0.0
C326 C 0.26028 0.21204 0.63169 0.0
C327 C 0.13236 0.26555 0.64202 0.0
C328 C 0.37548 0.38165 0.60563 0.0
O329 O 0.21248 0.32356 0.58231 0.0
O330 O 0.26088 0.29096 0.54854 0.0
C331 C 0.21897 0.15671 0.52779 0.0
N332 N 0.27156 0.17914 0.54608 0.0
C333 C 0.29448 0.09705 0.52837 0.0
C334 C 0.23928 0.07193 0.5101 0.0
C335 C 0.20138 0.10194 0.50981 0.0
C336 C 0.30933 0.15154 0.54591 0.0
H337 H 0.19171 0.18129 0.52637 0.0
C338 C 0.22543 0.31555 0.55551 0.0
O339 O 0.18392 0.32196 0.64582 0.0
O340 O 0.13878 0.22528 0.62497 0.0
N341 N 0.36995 0.2276 0.58243 0.0
C342 C 0.4179 0.25419 0.60335 0.0
C343 C 0.45943 0.22883 0.60711 0.0
C344 C 0.45142 0.17676 0.58921 0.0
C345 C 0.40129 0.14989 0.56799 0.0
C346 C 0.36131 0.17706 0.56536 0.0
H347 H 0.42494 0.295 0.61675 0.0
O348 O 0.25623 0.24929 0.65166 0.0
O349 O 0.25592 0.22657 0.6035 0.0
O350 O 0.32633 0.36974 0.62165 0.0
O351 O 0.37307 0.34369 0.58521 0.0
C352 C 0.38827 0.09611 0.54995 0.0
C353 C 0.33481 0.0696 0.53022 0.0
H354 H 0.22566 0.02977 0.49618 0.0
H355 H 0.15935 0.0836 0.49537 0.0
H356 H 0.49805 0.24994 0.62347 0.0
H357 H 0.4835 0.15727 0.59221 0.0
H358 H 0.41835 0.074 0.55149 0.0
H359 H 0.32467 0.0276 0.51683 0.0
Mn360 Mn 0.94695 0.24116 0.95342 0.0
Mn361 Mn 0.0691 0.32979 0.90489 0.0
C362 C 0.05061 0.26692 0.96788 0.0
C363 C 0.86874 0.13956 0.97291 0.0
C364 C 0.99823 0.38381 0.94099 0.0
O365 O 0.89978 0.22407 0.91385 0.0
O366 O 0.98611 0.27502 0.88277 0.0
C367 C 0.08569 0.24136 0.86368 0.0
N368 N 0.11077 0.28984 0.8844 0.0
C369 C 0.21986 0.31746 0.87093 0.0
C370 C 0.19472 0.26565 0.85059 0.0
C371 C 0.12731 0.2275 0.84693 0.0
C372 C 0.17585 0.32817 0.88738 0.0
H373 H 0.03466 0.21497 0.85922 0.0
C374 C 0.92505 0.23867 0.88778 0.0
O375 O 0.86313 0.19067 0.97647 0.0
O376 O 0.91773 0.14694 0.95724 0.0
N377 N 0.15143 0.38354 0.92331 0.0
C378 C 0.16778 0.42963 0.94492 0.0
C379 C 0.23354 0.4721 0.95129 0.0
C380 C 0.2817 0.46687 0.93538 0.0
C381 C 0.26361 0.41887 0.91333 0.0
C382 C 0.19732 0.3775 0.90818 0.0
H383 H 0.13099 0.43465 0.95683 0.0
O384 O 0.00703 0.26177 0.98687 0.0
O385 O 0.03597 0.26598 0.93927 0.0
O386 O 0.96001 0.33354 0.95602 0.0
O387 O 0.03673 0.38373 0.92147 0.0
C388 C 0.30875 0.40981 0.89658 0.0
C389 C 0.28687 0.35892 0.87552 0.0
H390 H 0.22671 0.25528 0.83738 0.0
H391 H 0.10752 0.18857 0.83064 0.0
H392 H 0.24715 0.50944 0.96812 0.0
H393 H 0.33238 0.49986 0.94031 0.0
H394 H 0.36036 0.44107 0.90006 0.0
H395 H 0.32201 0.35195 0.86304 0.0
Mn396 Mn 0.68685 0.92354 0.28815 0.0
Mn397 Mn 0.72799 0.05798 0.24592 0.0
C398 C 0.7568 0.02545 0.30836 0.0
C399 C 0.70553 0.84017 0.30365 0.0
C400 C 0.59763 0.97829 0.27702 0.0
O401 O 0.66136 0.88755 0.24604 0.0
O402 O 0.70494 0.98118 0.21961 0.0
C403 C 0.84256 0.08514 0.20899 0.0
N404 N 0.81437 0.10453 0.23006 0.0
C405 C 0.89704 0.21648 0.22302 0.0
C406 C 0.9283 0.19699 0.2023 0.0
C407 C 0.90099 0.13097 0.19532 0.0
C408 C 0.84003 0.16826 0.23666 0.0
H409 H 0.81949 0.03565 0.20183 0.0
C410 C 0.67749 0.91907 0.22143 0.0
O411 O 0.64858 0.83449 0.30594 0.0
O412 O 0.75052 0.89231 0.29081 0.0
N413 N 0.75169 0.1347 0.26867 0.0
C414 C 0.71721 0.14506 0.29024 0.0
C415 C 0.73928 0.20834 0.30061 0.0
C416 C 0.79575 0.26042 0.28827 0.0
C417 C 0.83029 0.2485 0.26605 0.0
C418 C 0.8071 0.18412 0.25735 0.0
H419 H 0.6729 0.10545 0.29926 0.0
O420 O 0.7246 0.97403 0.32477 0.0
O421 O 0.74859 0.01608 0.27933 0.0
O422 O 0.6077 0.93749 0.29107 0.0
O423 O 0.63888 0.02041 0.25931 0.0
C424 C 0.88668 0.29793 0.25211 0.0
C425 C 0.91985 0.28195 0.23047 0.0
H426 H 0.97267 0.23236 0.19127 0.0
H427 H 0.92382 0.11565 0.17872 0.0
H428 H 0.71204 0.21709 0.31761 0.0
H429 H 0.81208 0.30932 0.296 0.0
H430 H 0.9054 0.34826 0.25812 0.0
H431 H 0.96346 0.32028 0.2201 0.0
C432 C 0.51914 0.54898 0.0826 0.0
C433 C 0.55443 0.58006 0.05622 0.0
C434 C 0.48649 0.47907 0.02813 0.0
C435 C 0.45834 0.44639 0.05559 0.0
N436 N 0.46291 0.44803 0.10973 0.0
N437 N 0.57746 0.57179 0.00413 0.0
C438 C 0.47905 0.48085 0.08304 0.0
C439 C 0.53952 0.5445 0.0289 0.0
N440 N 0.52424 0.58485 0.10745 0.0
N441 N 0.46173 0.44864 0.00144 0.0
H442 H 0.61572 0.61954 0.00375 0.0
H443 H 0.57352 0.54576 0.98468 0.0
H444 H 0.42376 0.40085 0.00012 0.0
H445 H 0.47577 0.47233 0.98079 0.0
H446 H 0.49523 0.56516 0.12647 0.0
H447 H 0.55251 0.63531 0.10767 0.0
H448 H 0.48147 0.47053 0.1303 0.0
H449 H 0.43753 0.39751 0.11091 0.0
C450 C 0.02746 0.50394 0.41913 0.0
C451 C 0.0266 0.47011 0.39279 0.0
C452 C 0.99664 0.53913 0.36364 0.0
C453 C 0.98853 0.56587 0.39079 0.0
N454 N 0.98221 0.56135 0.44493 0.0
N455 N 1.00032 0.44905 0.34015 0.0
C456 C 0.99992 0.54458 0.41869 0.0
C457 C 0.00873 0.48607 0.36497 0.0
N458 N 0.05502 0.49726 0.44474 0.0
N459 N 0.99541 0.5657 0.33666 0.0
H460 H 0.00935 0.41054 0.34003 0.0
H461 H 0.97997 0.45378 0.3203 0.0
H462 H 0.98714 0.60456 0.3347 0.0
H463 H 0.00792 0.55259 0.31648 0.0
H464 H 0.06247 0.5253 0.46388 0.0
H465 H 0.0766 0.46853 0.44561 0.0
H466 H 0.98367 0.54202 0.46571 0.0
H467 H 0.95936 0.58895 0.44559 0.0
C468 C 0.47189 0.98215 0.75545 0.0
C469 C 0.43919 0.97126 0.72762 0.0
C470 C 0.53826 0.98856 0.70169 0.0
C471 C 0.57247 0.00666 0.72938 0.0
N472 N 0.57466 0.03659 0.78127 0.0
N473 N 0.44615 0.97725 0.67345 0.0
C474 C 0.54001 0.00851 0.7558 0.0
C475 C 0.47363 0.97802 0.70042 0.0
N476 N 0.43747 0.96541 0.78174 0.0
N477 N 0.56601 0.97866 0.6769 0.0
H478 H 0.39951 0.97034 0.67148 0.0
H479 H 0.47176 0.98894 0.65325 0.0
H480 H 0.61303 0.9862 0.67684 0.0
H481 H 0.54054 0.95829 0.65714 0.0
H482 H 0.45817 0.96661 0.80249 0.0
H483 H 0.38703 0.94354 0.78243 0.0
H484 H 0.55432 0.04471 0.80036 0.0
H485 H 0.62505 0.05812 0.78212 0.0
C486 C 0.54011 0.51668 0.58214 0.0
C487 C 0.57415 0.53848 0.60966 0.0
C488 C 0.47542 0.45794 0.63638 0.0
C489 C 0.43994 0.44213 0.60904 0.0
N490 N 0.43632 0.47014 0.55733 0.0
N491 N 0.5693 0.53823 0.6639 0.0
C492 C 0.47177 0.47601 0.58242 0.0
C493 C 0.54055 0.51143 0.63713 0.0
N494 N 0.57342 0.53333 0.55555 0.0
N495 N 0.4484 0.42056 0.66132 0.0
H496 H 0.61629 0.57754 0.66554 0.0
H497 H 0.5444 0.52484 0.6843 0.0
H498 H 0.40114 0.38146 0.66176 0.0
H499 H 0.47466 0.42541 0.68078 0.0
H500 H 0.55157 0.51385 0.53498 0.0
H501 H 0.62393 0.56081 0.55444 0.0
H502 H 0.45638 0.49834 0.53814 0.0
H503 H 0.38581 0.44232 0.55696 0.0
C504 C 0.99779 0.47848 0.91796 0.0
C505 C 0.99962 0.44673 0.94455 0.0
C506 C 0.02682 0.54564 0.97312 0.0
C507 C 0.03407 0.5796 0.94575 0.0
N508 N 0.04112 0.58039 0.89163 0.0
N509 N 0.02667 0.45416 0.99718 0.0
C510 C 0.02383 0.54649 0.91803 0.0
C511 C 0.01691 0.48128 0.97217 0.0
N512 N 0.97022 0.44325 0.89255 0.0
N513 N 0.02648 0.57327 0.99993 0.0
H514 H 0.01966 0.40733 0.99751 0.0
H515 H 0.04645 0.48003 0.01692 0.0
H516 H 0.03254 0.6196 0.00169 0.0
H517 H 0.01449 0.54792 0.02018 0.0
H518 H 0.96221 0.46308 0.8733 0.0
H519 H 0.94897 0.39289 0.89192 0.0
H520 H 0.04033 0.55928 0.87102 0.0
H521 H 0.06309 0.63079 0.89072 0.0
C522 C 0.45926 1.00202 0.30698 0.0
C523 C 0.44513 0.02393 0.27989 0.0
C524 C 0.51313 0.99235 0.25226 0.0
C525 C 0.53586 0.97969 0.27937 0.0
N526 N 0.53693 0.98289 0.33371 0.0
N527 N 0.47783 0.06064 0.22923 0.0
C528 C 0.51056 0.98705 0.30723 0.0
C529 C 0.47828 0.02556 0.25333 0.0
N530 N 0.42319 0.99415 0.33209 0.0
N531 N 0.52542 0.9731 0.22535 0.0
H532 H 0.45714 0.09017 0.23061 0.0
H533 H 0.50495 0.06682 0.20982 0.0
H534 H 0.54915 0.94641 0.22384 0.0
H535 H 0.50585 0.97764 0.20519 0.0
H536 H 0.42679 0.9719 0.35156 0.0
H537 H 0.38689 0.0064 0.33259 0.0
H538 H 0.52471 0.99463 0.35432 0.0
H539 H 0.57416 0.97207 0.3349 0.0
C540 C 0.3704 0.23437 0.19804 0.0
C541 C 0.37058 0.17471 0.19708 0.0
C542 C 0.39962 0.19599 0.14371 0.0
C543 C 0.37304 0.23753 0.14283 0.0
N544 N 0.354 0.31322 0.17125 0.0
N545 N 0.40138 0.10729 0.16858 0.0
C546 C 0.36459 0.262 0.17066 0.0
C547 C 0.39024 0.15812 0.16979 0.0
N548 N 0.38151 0.2676 0.2244 0.0
N549 N 0.43846 0.19677 0.1209 0.0
H550 H 0.40514 0.08412 0.18757 0.0
H551 H 0.40614 0.08786 0.14839 0.0
H552 H 0.45516 0.23175 0.10397 0.0
H553 H 0.46252 0.17036 0.1214 0.0
H554 H 0.38536 0.313 0.226 0.0
H555 H 0.39779 0.25557 0.24367 0.0
H556 H 0.33616 0.32521 0.1901 0.0
H557 H 0.36465 0.34467 0.15315 0.0
C558 C 0.10831 0.26683 0.49182 0.0
C559 C 0.12092 0.32706 0.4799 0.0
C560 C 0.20578 0.38321 0.51786 0.0
C561 C 0.18702 0.32235 0.53133 0.0
N562 N 0.10492 0.20969 0.53687 0.0
N563 N 0.17944 0.4438 0.48212 0.0
C564 C 0.13332 0.26526 0.52016 0.0
C565 C 0.16914 0.3859 0.49311 0.0
N566 N 0.07679 0.21146 0.47516 0.0
N567 N 0.25882 0.43774 0.52844 0.0
H568 H 0.15527 0.44691 0.46329 0.0
H569 H 0.20919 0.48821 0.49245 0.0
H570 H 0.28408 0.43714 0.54741 0.0
H571 H 0.27936 0.48265 0.51779 0.0
H572 H 0.07196 0.16748 0.4822 0.0
H573 H 0.0614 0.21107 0.4532 0.0
H574 H 0.06207 0.16844 0.53034 0.0
H575 H 0.121 0.20698 0.55832 0.0
C576 C 0.80266 0.17478 0.82338 0.0
C577 C 0.81919 0.13031 0.81064 0.0
C578 C 0.89392 0.14955 0.85145 0.0
C579 C 0.88442 0.19981 0.86243 0.0
N580 N 0.83221 0.26373 0.85847 0.0
N581 N 0.89834 0.09558 0.80676 0.0
C582 C 0.83931 0.21358 0.8483 0.0
C583 C 0.87017 0.1237 0.8229 0.0
N584 N 0.75201 0.17931 0.81187 0.0
N585 N 0.92292 0.12408 0.8688 0.0
H586 H 0.88396 0.0782 0.78497 0.0
H587 H 0.93959 0.09503 0.81418 0.0
H588 H 0.93913 0.14019 0.89057 0.0
H589 H 0.92552 0.08335 0.86232 0.0
H590 H 0.73325 0.20594 0.82188 0.0
H591 H 0.72676 0.15362 0.79285 0.0
H592 H 0.80491 0.28045 0.84745 0.0
H593 H 0.85655 0.29074 0.87737 0.0
C594 C 0.61667 0.80624 0.15322 0.0
C595 C 0.67717 0.8237 0.13958 0.0
C596 C 0.73447 0.89409 0.18155 0.0
C597 C 0.67514 0.88317 0.19393 0.0
N598 N 0.5587 0.83166 0.19104 0.0
N599 N 0.79139 0.90203 0.13568 0.0
C600 C 0.61561 0.83994 0.17961 0.0
C601 C 0.73534 0.87337 0.1521 0.0
N602 N 0.56089 0.75738 0.14117 0.0
N603 N 0.78934 0.91987 0.1986 0.0
H604 H 0.79366 0.889 0.11352 0.0
H605 H 0.83378 0.94225 0.14343 0.0
H606 H 0.78974 0.93171 0.22121 0.0
H607 H 0.8324 0.92324 0.19099 0.0
H608 H 0.51577 0.73744 0.15163 0.0
H609 H 0.56054 0.73512 0.12095 0.0
H610 H 0.51428 0.80586 0.18015 0.0
H611 H 0.55664 0.85357 0.21096 0.0
C612 C 0.86838 0.74509 0.51726 0.0
C613 C 0.82004 0.68477 0.52877 0.0
C614 C 0.83619 0.63121 0.48507 0.0
C615 C 0.8775 0.69316 0.47204 0.0
N616 N 0.90814 0.80617 0.47167 0.0
N617 N 0.75319 0.56914 0.52255 0.0
C618 C 0.88662 0.74941 0.48693 0.0
C619 C 0.8025 0.62712 0.5124 0.0
N620 N 0.89963 0.79776 0.53553 0.0
N621 N 0.83005 0.57682 0.47173 0.0
H622 H 0.7289 0.56475 0.54271 0.0
H623 H 0.73373 0.52645 0.51012 0.0
H624 H 0.85276 0.57823 0.45146 0.0
H625 H 0.80598 0.53111 0.48168 0.0
H626 H 0.93851 0.84162 0.52803 0.0
H627 H 0.89058 0.79529 0.55859 0.0
H628 H 0.91106 0.84721 0.48162 0.0
H629 H 0.91605 0.80953 0.4485 0.0
C630 C 0.13201 0.86791 0.85115 0.0
C631 C 0.14193 0.82045 0.86515 0.0
C632 C 0.21474 0.83043 0.8236 0.0
C633 C 0.19643 0.871 0.80816 0.0
N634 N 0.11654 0.90438 0.80333 0.0
N635 N 0.18925 0.75159 0.86363 0.0
C636 C 0.14882 0.88274 0.82074 0.0
C637 C 0.18254 0.80019 0.85111 0.0
N638 N 0.11049 0.90209 0.86726 0.0
N639 N 0.26327 0.8218 0.81236 0.0
H640 H 0.16767 0.72988 0.88402 0.0
H641 H 0.21269 0.73014 0.85293 0.0
H642 H 0.28621 0.84181 0.79196 0.0
H643 H 0.28336 0.79831 0.82408 0.0
H644 H 0.107 0.94046 0.85798 0.0
H645 H 0.10292 0.89632 0.89044 0.0
H646 H 0.07804 0.90909 0.81158 0.0
H647 H 0.1242 0.9112 0.7802 0.0
C648 C 0.2825 0.00518 0.9719 0.0
C649 C 0.25019 0.9493 0.99032 0.0
C650 C 0.29522 0.01778 0.03513 0.0
C651 C 0.31655 0.0738 0.01706 0.0
N652 N 0.33102 0.12194 0.96792 0.0
N653 N 0.2251 0.90129 0.03976 0.0
C654 C 0.31182 0.06797 0.98526 0.0
C655 C 0.25763 0.95508 0.02203 0.0
N656 N 0.28476 0.99784 0.94157 0.0
N657 N 0.31073 0.02503 0.06494 0.0
H658 H 0.19809 0.85454 0.03113 0.0
H659 H 0.22182 0.90312 0.06302 0.0
H660 H 0.33841 0.07063 0.07479 0.0
H661 H 0.30173 0.98666 0.07911 0.0
H662 H 0.31231 0.03604 0.92692 0.0
H663 H 0.26373 0.95228 0.93139 0.0
H664 H 0.32098 0.12026 0.9451 0.0
H665 H 0.35433 0.16881 0.97662 0.0
C666 C 0.2251 0.23705 0.37267 0.0
C667 C 0.19789 0.26799 0.3557 0.0
C668 C 0.24383 0.24966 0.30964 0.0
C669 C 0.26236 0.21048 0.32595 0.0
N670 N 0.26473 0.16106 0.37292 0.0
N671 N 0.17356 0.29563 0.30704 0.0
C672 C 0.25224 0.20324 0.35755 0.0
C673 C 0.20592 0.27301 0.32394 0.0
N674 N 0.22577 0.24077 0.40331 0.0
N675 N 0.26287 0.26484 0.28038 0.0
H676 H 0.14379 0.31169 0.31616 0.0
H677 H 0.17142 0.29302 0.28369 0.0
H678 H 0.29062 0.24844 0.26935 0.0
H679 H 0.25676 0.29858 0.26808 0.0
H680 H 0.25039 0.22474 0.41694 0.0
H681 H 0.2068 0.26556 0.41499 0.0
H682 H 0.25055 0.1474 0.39511 0.0
H683 H 0.28496 0.13569 0.36293 0.0
C684 C 0.94975 0.18421 0.65327 0.0
C685 C 0.94439 0.18102 0.68512 0.0
C686 C 0.06364 0.2397 0.68911 0.0
C687 C 0.06894 0.24502 0.6573 0.0
N688 N 0.01766 0.23589 0.60962 0.0
N689 N 0.99564 0.21839 0.73324 0.0
C690 C 0.01205 0.22165 0.6396 0.0
C691 C 1.00128 0.21294 0.70297 0.0
N692 N 0.8961 0.14812 0.63598 0.0
N693 N 0.11748 0.25624 0.70608 0.0
H694 H 0.95083 0.20002 0.74401 0.0
H695 H 0.03503 0.24639 0.74715 0.0
H696 H 0.16397 0.27596 0.69702 0.0
H697 H 0.11547 0.2457 0.72889 0.0
H698 H 0.89832 0.14207 0.61293 0.0
H699 H 0.84967 0.11961 0.64485 0.0
H700 H 0.97822 0.22576 0.59599 0.0
H701 H 0.06246 0.2637 0.59901 0.0
C702 C 0.7663 0.9569 0.98271 0.0
C703 C 0.76047 0.95097 0.01449 0.0
C704 C 0.82059 0.06988 0.01921 0.0
C705 C 0.82437 0.07581 0.98739 0.0
N706 N 0.78817 0.02576 0.93896 0.0
N707 N 0.76866 1.00094 0.0625 0.0
C708 C 0.79302 0.01943 0.96921 0.0
C709 C 0.78332 0.00732 0.03255 0.0
N710 N 0.75031 0.90353 0.96543 0.0
N711 N 0.8559 0.12329 0.03678 0.0
H712 H 0.74104 0.95589 0.07289 0.0
H713 H 0.77835 0.03995 0.07638 0.0
H714 H 0.88394 0.16997 0.02814 0.0
H715 H 0.86165 0.12074 0.05982 0.0
H716 H 0.76123 0.90609 0.94264 0.0
H717 H 0.73083 0.85688 0.97421 0.0
H718 H 0.76055 0.98669 0.92481 0.0
H719 H 0.80666 0.07079 0.92845 0.0
C720 C 0.74487 0.76029 0.29942 0.0
C721 C 0.72098 0.79265 0.31762 0.0
C722 C 0.74045 0.74516 0.36269 0.0
C723 C 0.77433 0.72247 0.34495 0.0
N724 N 0.81051 0.70876 0.29631 0.0
N725 N 0.69918 0.81938 0.36705 0.0
C726 C 0.77592 0.72894 0.31319 0.0
C727 C 0.71833 0.78499 0.34939 0.0
N728 N 0.73732 0.7592 0.26898 0.0
N729 N 0.73002 0.72879 0.39241 0.0
H730 H 0.68313 0.84955 0.35847 0.0
H731 H 0.70366 0.82193 0.39033 0.0
H732 H 0.74592 0.69964 0.40247 0.0
H733 H 0.7006 0.73851 0.40623 0.0
H734 H 0.74809 0.73152 0.25452 0.0
H735 H 0.71465 0.78161 0.25837 0.0
H736 H 0.82095 0.71972 0.27364 0.0
H737 H 0.83176 0.68352 0.30537 0.0
C738 C 0.01213 0.7261 0.69996 0.0
C739 C 0.06884 0.75996 0.68214 0.0
C740 C 1.00211 0.72181 0.63646 0.0
C741 C 0.94536 0.698 0.65432 0.0
N742 N 0.89509 0.6772 0.70325 0.0
N743 N 0.11907 0.791 0.63326 0.0
C744 C 0.94988 0.6987 0.68617 0.0
C745 C 0.06433 0.75687 0.65029 0.0
N746 N 0.01823 0.72048 0.73015 0.0
N747 N 0.99611 0.71083 0.60621 0.0
H748 H 0.16551 0.81573 0.64241 0.0
H749 H 0.11848 0.79774 0.61019 0.0
H750 H 0.95098 0.68519 0.59574 0.0
H751 H 0.03501 0.72164 0.592 0.0
H752 H 0.97941 0.69171 0.7443 0.0
H753 H 0.06339 0.74015 0.74061 0.0
H754 H 0.89562 0.68395 0.72636 0.0
H755 H 0.84863 0.65531 0.6941 0.0
C756 C 0.15373 0.26138 0.96424 0.0
C757 C 0.09641 0.24561 0.9794 0.0
C758 C 0.13648 0.20589 0.0204 0.0
C759 C 0.20072 0.24855 0.0101 0.0
N760 N 0.26908 0.31538 0.96919 0.0
N761 N 0.02277 0.17322 0.01764 0.0
C762 C 0.20914 0.27694 0.98128 0.0
C763 C 0.08424 0.20903 0.00653 0.0
N764 N 0.15038 0.24108 0.9356 0.0
N765 N 0.12478 0.1588 0.04108 0.0
H766 H 0.98186 0.16111 0.00484 0.0
H767 H 0.01231 0.15308 0.03908 0.0
H768 H 0.16108 0.15147 0.04987 0.0
H769 H 0.07852 0.12265 0.04743 0.0
H770 H 0.19014 0.24217 0.92504 0.0
H771 H 0.10556 0.21416 0.92501 0.0
H772 H 0.27483 0.33253 0.94728 0.0
H773 H 0.31171 0.33332 0.98159 0.0
C774 C 0.86608 0.12994 0.30773 0.0
C775 C 0.80865 0.08564 0.32303 0.0
C776 C 0.86732 0.1356 0.3692 0.0
C777 C 0.9123 0.1922 0.3535 0.0
N778 N 0.94444 0.24338 0.30437 0.0
N779 N 0.75396 0.05598 0.37151 0.0
C780 C 0.90754 0.19009 0.32159 0.0
C781 C 0.80833 0.09235 0.35481 0.0
N782 N 0.88671 0.11207 0.2829 0.0
N783 N 0.88403 0.11681 0.3949 0.0
H784 H 0.70761 0.03198 0.36218 0.0
H785 H 0.75524 0.05603 0.39482 0.0
H786 H 0.93098 0.14112 0.40347 0.0
H787 H 0.85317 0.07228 0.40512 0.0
H788 H 0.93185 0.14253 0.27307 0.0
H789 H 0.86307 0.06472 0.27476 0.0
H790 H 0.94727 0.24033 0.28121 0.0
H791 H 0.9662 0.29041 0.31294 0.0
C792 C 0.807 0.86534 0.65402 0.0
C793 C 0.7624 0.80123 0.66391 0.0
C794 C 0.75105 0.84841 0.71019 0.0
C795 C 0.77008 0.90713 0.69558 0.0
N796 N 0.84383 0.97981 0.65749 0.0
N797 N 0.69371 0.73295 0.7043 0.0
C798 C 0.80624 0.9184 0.66836 0.0
C799 C 0.73383 0.79296 0.69269 0.0
N800 N 0.85364 0.87609 0.63316 0.0
N801 N 0.76975 0.84966 0.73892 0.0
H802 H 0.67584 0.69055 0.69168 0.0
H803 H 0.67529 0.72691 0.726 0.0
H804 H 0.79819 0.89383 0.74981 0.0
H805 H 0.76597 0.80853 0.74925 0.0
H806 H 0.89083 0.92201 0.62706 0.0
H807 H 0.85995 0.83938 0.62407 0.0
H808 H 0.86295 0.99004 0.63583 0.0
H809 H 0.85787 0.02076 0.67061 0.0
C810 C 0.88445 0.81219 0.00075 0.0
C811 C 0.85662 0.77501 0.02746 0.0
C812 C 0.93467 0.73862 0.02636 0.0
C813 C 0.95816 0.76851 0.99806 0.0
N814 N 0.97772 0.86067 0.96742 0.0
N815 N 0.90822 0.77133 0.07216 0.0
C816 C 0.9397 0.81342 0.98764 0.0
C817 C 0.89453 0.75499 0.04295 0.0
N818 N 0.86193 0.85025 0.98924 0.0
N819 N 0.95293 0.69768 0.0384 0.0
H820 H 0.89167 0.79947 0.08271 0.0
H821 H 0.94382 0.76626 0.08346 0.0
H822 H 0.97929 0.68088 0.02645 0.0
H823 H 0.93722 0.6774 0.05963 0.0
H824 H 0.87307 0.87014 0.96775 0.0
H825 H 0.83388 0.86398 0.00171 0.0
H826 H 0.96974 0.89809 0.961 0.0
H827 H 0.02155 0.86711 0.95925 0.0
C828 C 0.07384 0.89223 0.34835 0.0
C829 C 0.05682 0.82919 0.33785 0.0
C830 C 0.11477 0.88002 0.29175 0.0
C831 C 0.1525 0.93826 0.30694 0.0
N832 N 0.14856 0.00772 0.34561 0.0
N833 N 0.05972 0.76434 0.29648 0.0
C834 C 0.12646 0.94702 0.33429 0.0
C835 C 0.07757 0.82331 0.30873 0.0
N836 N 0.03675 0.90023 0.36954 0.0
N837 N 0.09909 0.88192 0.26276 0.0
H838 H 0.03674 0.72124 0.30874 0.0
H839 H 0.07244 0.75998 0.27458 0.0
H840 H 0.11476 0.9264 0.25214 0.0
H841 H 0.06359 0.84073 0.25169 0.0
H842 H 0.04386 0.94523 0.37614 0.0
H843 H 0.99429 0.86211 0.37844 0.0
H844 H 0.13879 0.01667 0.36734 0.0
H845 H 0.17551 0.04928 0.33277 0.0
C846 C 0.20563 0.06547 0.68392 0.0
C847 C 0.25035 0.04656 0.67359 0.0
C848 C 0.26079 0.10589 0.62771 0.0
C849 C 0.24161 0.14501 0.64274 0.0
N850 N 0.16891 0.14321 0.68157 0.0
N851 N 0.31897 0.04853 0.63282 0.0
C852 C 0.20605 0.11952 0.67006 0.0
C853 C 0.27863 0.06768 0.64482 0.0
N854 N 0.15924 0.02889 0.70477 0.0
N855 N 0.24123 0.08841 0.59909 0.0
H856 H 0.33715 0.02391 0.64512 0.0
H857 H 0.33726 0.06164 0.61112 0.0
H858 H 0.21194 0.10362 0.58865 0.0
H859 H 0.24524 0.05146 0.58846 0.0
H860 H 0.12196 0.03722 0.71114 0.0
H861 H 0.15313 0.98567 0.7135 0.0
H862 H 0.15012 0.13364 0.7033 0.0
H863 H 0.15509 0.17088 0.66895 0.0
loop_
_geom_bond_atom_site_label_1
_geom_bond_atom_site_label_2
_geom_bond_distance
_geom_bond_site_symmetry_2
_ccdc_geom_bond_type
Mn0 O5 2.095 . S
Mn0 O15 2.162 . S
Mn0 O16 2.297 . S
Mn0 O24 2.385 . S
Mn0 O25 2.209 . S
Mn0 O26 2.094 . S
Mn1 O6 2.121 . S
Mn1 N8 2.257 . S
Mn1 N17 2.282 . S
Mn1 O25 2.215 . S
Mn1 O27 2.117 . S
C2 O24 1.234 . S
C2 O25 1.283 . S
C3 O15 1.281 . S
C3 O16 1.236 . S
C4 O26 1.240 . S
C4 O27 1.264 . S
O5 Mn0 2.095 . S
O5 C14 1.250 . S
O6 Mn1 2.121 . S
O6 C14 1.258 . S
C7 N8 1.326 . S
C7 C11 1.460 . S
C7 H13 0.929 . S
N8 Mn1 2.257 . S
N8 C7 1.326 . S
N8 C12 1.362 . S
C9 C10 1.258 . S
C9 C12 1.431 . S
C9 C29 1.449 . S
C10 C9 1.258 . S
C10 C11 1.477 . S
C10 H30 0.931 . S
C11 C7 1.460 . S
C11 C10 1.477 . S
C11 H31 0.930 . S
C12 N8 1.362 . S
C12 C9 1.431 . S
C12 C22 1.476 . S
H13 C7 0.929 . S
C14 O5 1.250 . S
C14 O6 1.258 . S
O15 Mn0 2.162 . S
O15 C3 1.281 . S
O16 Mn0 2.297 . S
O16 C3 1.236 . S
N17 Mn1 2.282 . S
N17 C18 1.328 . S
N17 C22 1.318 . S
C18 N17 1.328 . S
C18 C19 1.457 . S
C18 H23 0.929 . S
C19 C18 1.457 . S
C19 C20 1.291 . S
C19 H32 0.931 . S
C20 C19 1.291 . S
C20 C21 1.373 . S
C20 H33 0.929 . S
C21 C20 1.373 . S
C21 C22 1.396 . S
C21 C28 1.403 . S
C22 C12 1.476 . S
C22 N17 1.318 . S
C22 C21 1.396 . S
H23 C18 0.929 . S
O24 Mn0 2.385 . S
O24 C2 1.234 . S
O25 Mn0 2.209 . S
O25 Mn1 2.215 . S
O25 C2 1.283 . S
O26 Mn0 2.094 . S
O26 C4 1.240 . S
O27 Mn1 2.117 . S
O27 C4 1.264 . S
C28 C21 1.403 . S
C28 C29 1.399 . S
C28 H34 0.929 . S
C29 C9 1.449 . S
C29 C28 1.399 . S
C29 H35 0.930 . S
H30 C10 0.931 . S
H31 C11 0.930 . S
H32 C19 0.931 . S
H33 C20 0.929 . S
H34 C28 0.929 . S
H35 C29 0.930 . S
Mn36 O41 2.095 . S
Mn36 O51 2.162 . S
Mn36 O52 2.297 . S
Mn36 O60 2.385 . S
Mn36 O61 2.209 . S
Mn36 O62 2.094 . S
Mn37 O42 2.121 1_655 S
Mn37 N44 2.257 . S
Mn37 N53 2.282 . S
Mn37 O61 2.215 1_655 S
Mn37 O63 2.117 1_655 S
C38 O60 1.234 1_655 S
C38 O61 1.283 1_655 S
C39 O51 1.281 . S
C39 O52 1.236 . S
C40 O62 1.240 . S
C40 O63 1.264 . S
O41 Mn36 2.095 . S
O41 C50 1.250 . S
O42 Mn37 2.121 1_455 S
O42 C50 1.258 . S
C43 N44 1.326 . S
C43 C47 1.460 . S
C43 H49 0.929 . S
N44 Mn37 2.257 . S
N44 C43 1.326 . S
N44 C48 1.362 . S
C45 C46 1.258 . S
C45 C48 1.431 . S
C45 C65 1.449 . S
C46 C45 1.258 . S
C46 C47 1.477 . S
C46 H66 0.931 . S
C47 C43 1.460 . S
C47 C46 1.477 . S
C47 H67 0.930 . S
C48 N44 1.362 . S
C48 C45 1.431 . S
C48 C58 1.476 . S
H49 C43 0.929 . S
C50 O41 1.250 . S
C50 O42 1.258 . S
O51 Mn36 2.162 . S
O51 C39 1.281 . S
O52 Mn36 2.297 . S
O52 C39 1.236 . S
N53 Mn37 2.282 . S
N53 C54 1.328 . S
N53 C58 1.318 . S
C54 N53 1.328 . S
C54 C55 1.457 . S
C54 H59 0.929 . S
C55 C54 1.457 . S
C55 C56 1.291 . S
C55 H68 0.931 . S
C56 C55 1.291 . S
C56 C57 1.373 . S
C56 H69 0.929 . S
C57 C56 1.373 . S
C57 C58 1.396 . S
C57 C64 1.403 . S
C58 C48 1.476 . S
C58 N53 1.318 . S
C58 C57 1.396 . S
H59 C54 0.929 . S
O60 Mn36 2.385 . S
O60 C38 1.234 1_455 S
O61 Mn36 2.209 . S
O61 Mn37 2.215 1_455 S
O61 C38 1.283 1_455 S
O62 Mn36 2.094 . S
O62 C40 1.240 . S
O63 Mn37 2.117 1_455 S
O63 C40 1.264 . S
C64 C57 1.403 . S
C64 C65 1.399 . S
C64 H70 0.929 . S
C65 C45 1.449 . S
C65 C64 1.399 . S
C65 H71 0.930 . S
H66 C46 0.931 . S
H67 C47 0.930 . S
H68 C55 0.931 . S
H69 C56 0.929 . S
H70 C64 0.929 . S
H71 C65 0.930 . S
Mn72 O77 2.095 . S
Mn72 O87 2.162 . S
Mn72 O88 2.297 . S
Mn72 O96 2.385 . S
Mn72 O97 2.209 . S
Mn72 O98 2.094 . S
Mn73 O78 2.121 1_565 S
Mn73 N80 2.257 . S
Mn73 N89 2.282 . S
Mn73 O97 2.215 1_565 S
Mn73 O99 2.117 1_565 S
C74 O96 1.234 1_565 S
C74 O97 1.283 1_565 S
C75 O87 1.281 . S
C75 O88 1.236 . S
C76 O98 1.240 . S
C76 O99 1.264 . S
O77 Mn72 2.095 . S
O77 C86 1.250 . S
O78 Mn73 2.121 1_545 S
O78 C86 1.258 . S
C79 N80 1.326 . S
C79 C83 1.460 . S
C79 H85 0.929 . S
N80 Mn73 2.257 . S
N80 C79 1.326 . S
N80 C84 1.362 . S
C81 C82 1.258 . S
C81 C84 1.431 . S
C81 C101 1.449 . S
C82 C81 1.258 . S
C82 C83 1.477 . S
C82 H102 0.931 . S
C83 C79 1.460 . S
C83 C82 1.477 . S
C83 H103 0.930 . S
C84 N80 1.362 . S
C84 C81 1.431 . S
C84 C94 1.476 . S
H85 C79 0.929 . S
C86 O77 1.250 . S
C86 O78 1.258 . S
O87 Mn72 2.162 . S
O87 C75 1.281 . S
O88 Mn72 2.297 . S
O88 C75 1.236 . S
N89 Mn73 2.282 . S
N89 C90 1.328 . S
N89 C94 1.318 . S
C90 N89 1.328 . S
C90 C91 1.457 . S
C90 H95 0.929 . S
C91 C90 1.457 . S
C91 C92 1.291 . S
C91 H104 0.931 . S
C92 C91 1.291 . S
C92 C93 1.373 . S
C92 H105 0.929 . S
C93 C92 1.373 . S
C93 C94 1.396 . S
C93 C100 1.403 . S
C94 C84 1.476 . S
C94 N89 1.318 . S
C94 C93 1.396 . S
H95 C90 0.929 . S
O96 Mn72 2.385 . S
O96 C74 1.234 1_545 S
O97 Mn72 2.209 . S
O97 Mn73 2.215 1_545 S
O97 C74 1.283 1_545 S
O98 Mn72 2.094 . S
O98 C76 1.240 . S
O99 Mn73 2.117 1_545 S
O99 C76 1.264 . S
C100 C93 1.403 . S
C100 C101 1.399 . S
C100 H106 0.929 . S
C101 C81 1.449 . S
C101 C100 1.399 . S
C101 H107 0.930 . S
H102 C82 0.931 . S
H103 C83 0.930 . S
H104 C91 0.931 . S
H105 C92 0.929 . S
H106 C100 0.929 . S
H107 C101 0.930 . S
Mn108 O113 2.095 . S
Mn108 O123 2.162 . S
Mn108 O124 2.297 . S
Mn108 O132 2.385 . S
Mn108 O133 2.209 . S
Mn108 O134 2.094 . S
Mn109 O114 2.121 . S
Mn109 N116 2.257 . S
Mn109 N125 2.282 . S
Mn109 O133 2.215 . S
Mn109 O135 2.117 . S
C110 O132 1.234 . S
C110 O133 1.283 . S
C111 O123 1.281 . S
C111 O124 1.236 . S
C112 O134 1.240 . S
C112 O135 1.264 . S
O113 Mn108 2.095 . S
O113 C122 1.250 . S
O114 Mn109 2.121 . S
O114 C122 1.258 . S
C115 N116 1.326 . S
C115 C119 1.460 . S
C115 H121 0.929 . S
N116 Mn109 2.257 . S
N116 C115 1.326 . S
N116 C120 1.362 . S
C117 C118 1.258 . S
C117 C120 1.431 . S
C117 C137 1.449 . S
C118 C117 1.258 . S
C118 C119 1.477 . S
C118 H138 0.931 . S
C119 C115 1.460 . S
C119 C118 1.477 . S
C119 H139 0.930 . S
C120 N116 1.362 . S
C120 C117 1.431 . S
C120 C130 1.476 . S
H121 C115 0.929 . S
C122 O113 1.250 . S
C122 O114 1.258 . S
O123 Mn108 2.162 . S
O123 C111 1.281 . S
O124 Mn108 2.297 . S
O124 C111 1.236 . S
N125 Mn109 2.282 . S
N125 C126 1.328 . S
N125 C130 1.318 . S
C126 N125 1.328 . S
C126 C127 1.457 . S
C126 H131 0.929 . S
C127 C126 1.457 . S
C127 C128 1.291 . S
C127 H140 0.931 . S
C128 C127 1.291 . S
C128 C129 1.373 . S
C128 H141 0.929 . S
C129 C128 1.373 . S
C129 C130 1.396 . S
C129 C136 1.403 . S
C130 C120 1.476 . S
C130 N125 1.318 . S
C130 C129 1.396 . S
H131 C126 0.929 . S
O132 Mn108 2.385 . S
O132 C110 1.234 . S
O133 Mn108 2.209 . S
O133 Mn109 2.215 . S
O133 C110 1.283 . S
O134 Mn108 2.094 . S
O134 C112 1.240 . S
O135 Mn109 2.117 . S
O135 C112 1.264 . S
C136 C129 1.403 . S
C136 C137 1.399 . S
C136 H142 0.929 . S
C137 C117 1.449 . S
C137 C136 1.399 . S
C137 H143 0.930 . S
H138 C118 0.931 . S
H139 C119 0.930 . S
H140 C127 0.931 . S
H141 C128 0.929 . S
H142 C136 0.929 . S
H143 C137 0.930 . S
Mn144 O149 2.095 . S
Mn144 O159 2.162 . S
Mn144 O160 2.297 . S
Mn144 O168 2.385 . S
Mn144 O169 2.209 . S
Mn144 O170 2.094 . S
Mn145 O150 2.121 1_455 S
Mn145 N152 2.257 . S
Mn145 N161 2.282 . S
Mn145 O169 2.215 1_455 S
Mn145 O171 2.117 1_455 S
C146 O168 1.234 1_455 S
C146 O169 1.283 1_455 S
C147 O159 1.281 . S
C147 O160 1.236 . S
C148 O170 1.240 . S
C148 O171 1.264 . S
O149 Mn144 2.095 . S
O149 C158 1.250 . S
O150 Mn145 2.121 1_655 S
O150 C158 1.258 . S
C151 N152 1.326 . S
C151 C155 1.460 . S
C151 H157 0.929 . S
N152 Mn145 2.257 . S
N152 C151 1.326 . S
N152 C156 1.362 . S
C153 C154 1.258 . S
C153 C156 1.431 . S
C153 C173 1.449 . S
C154 C153 1.258 . S
C154 C155 1.477 . S
C154 H174 0.931 . S
C155 C151 1.460 . S
C155 C154 1.477 . S
C155 H175 0.930 . S
C156 N152 1.362 . S
C156 C153 1.431 . S
C156 C166 1.476 . S
H157 C151 0.929 . S
C158 O149 1.250 . S
C158 O150 1.258 . S
O159 Mn144 2.162 . S
O159 C147 1.281 . S
O160 Mn144 2.297 . S
O160 C147 1.236 . S
N161 Mn145 2.282 . S
N161 C162 1.328 . S
N161 C166 1.318 . S
C162 N161 1.328 . S
C162 C163 1.457 . S
C162 H167 0.929 . S
C163 C162 1.457 . S
C163 C164 1.291 . S
C163 H176 0.931 . S
C164 C163 1.291 . S
C164 C165 1.373 . S
C164 H177 0.929 . S
C165 C164 1.373 . S
C165 C166 1.396 . S
C165 C172 1.403 . S
C166 C156 1.476 . S
C166 N161 1.318 . S
C166 C165 1.396 . S
H167 C162 0.929 . S
O168 Mn144 2.385 . S
O168 C146 1.234 1_655 S
O169 Mn144 2.209 . S
O169 Mn145 2.215 1_655 S
O169 C146 1.283 1_655 S
O170 Mn144 2.094 . S
O170 C148 1.240 . S
O171 Mn145 2.117 1_655 S
O171 C148 1.264 . S
C172 C165 1.403 . S
C172 C173 1.399 . S
C172 H178 0.929 . S
C173 C153 1.449 . S
C173 C172 1.399 . S
C173 H179 0.930 . S
H174 C154 0.931 . S
H175 C155 0.930 . S
H176 C163 0.931 . S
H177 C164 0.929 . S
H178 C172 0.929 . S
H179 C173 0.930 . S
Mn180 O185 2.095 . S
Mn180 O195 2.162 . S
Mn180 O196 2.297 . S
Mn180 O204 2.385 . S
Mn180 O205 2.209 . S
Mn180 O206 2.094 . S
Mn181 O186 2.121 1_545 S
Mn181 N188 2.257 . S
Mn181 N197 2.282 . S
Mn181 O205 2.215 1_545 S
Mn181 O207 2.117 1_545 S
C182 O204 1.234 1_545 S
C182 O205 1.283 1_545 S
C183 O195 1.281 . S
C183 O196 1.236 . S
C184 O206 1.240 . S
C184 O207 1.264 . S
O185 Mn180 2.095 . S
O185 C194 1.250 . S
O186 Mn181 2.121 1_565 S
O186 C194 1.258 . S
C187 N188 1.326 . S
C187 C191 1.460 . S
C187 H193 0.929 . S
N188 Mn181 2.257 . S
N188 C187 1.326 . S
N188 C192 1.362 . S
C189 C190 1.258 . S
C189 C192 1.431 . S
C189 C209 1.449 . S
C190 C189 1.258 . S
C190 C191 1.477 . S
C190 H210 0.931 . S
C191 C187 1.460 . S
C191 C190 1.477 . S
C191 H211 0.930 . S
C192 N188 1.362 . S
C192 C189 1.431 . S
C192 C202 1.476 . S
H193 C187 0.929 . S
C194 O185 1.250 . S
C194 O186 1.258 . S
O195 Mn180 2.162 . S
O195 C183 1.281 . S
O196 Mn180 2.297 . S
O196 C183 1.236 . S
N197 Mn181 2.282 . S
N197 C198 1.328 . S
N197 C202 1.318 . S
C198 N197 1.328 . S
C198 C199 1.457 . S
C198 H203 0.929 . S
C199 C198 1.457 . S
C199 C200 1.291 . S
C199 H212 0.931 . S
C200 C199 1.291 . S
C200 C201 1.373 . S
C200 H213 0.929 . S
C201 C200 1.373 . S
C201 C202 1.396 . S
C201 C208 1.403 . S
C202 C192 1.476 . S
C202 N197 1.318 . S
C202 C201 1.396 . S
H203 C198 0.929 . S
O204 Mn180 2.385 . S
O204 C182 1.234 1_565 S
O205 Mn180 2.209 . S
O205 Mn181 2.215 1_565 S
O205 C182 1.283 1_565 S
O206 Mn180 2.094 . S
O206 C184 1.240 . S
O207 Mn181 2.117 1_565 S
O207 C184 1.264 . S
C208 C201 1.403 . S
C208 C209 1.399 . S
C208 H214 0.929 . S
C209 C189 1.449 . S
C209 C208 1.399 . S
C209 H215 0.930 . S
H210 C190 0.931 . S
H211 C191 0.930 . S
H212 C199 0.931 . S
H213 C200 0.929 . S
H214 C208 0.929 . S
H215 C209 0.930 . S
Mn216 O221 2.095 . S
Mn216 O231 2.162 . S
Mn216 O232 2.297 . S
Mn216 O240 2.385 . S
Mn216 O241 2.209 . S
Mn216 O242 2.094 . S
Mn217 O222 2.121 . S
Mn217 N224 2.257 . S
Mn217 N233 2.282 . S
Mn217 O241 2.215 . S
Mn217 O243 2.117 . S
C218 O240 1.234 . S
C218 O241 1.283 . S
C219 O231 1.281 . S
C219 O232 1.236 . S
C220 O242 1.240 . S
C220 O243 1.264 . S
O221 Mn216 2.095 . S
O221 C230 1.250 . S
O222 Mn217 2.121 . S
O222 C230 1.258 . S
C223 N224 1.326 . S
C223 C227 1.460 . S
C223 H229 0.929 . S
N224 Mn217 2.257 . S
N224 C223 1.326 . S
N224 C228 1.362 . S
C225 C226 1.258 . S
C225 C228 1.431 . S
C225 C245 1.449 . S
C226 C225 1.258 . S
C226 C227 1.477 . S
C226 H246 0.931 . S
C227 C223 1.460 . S
C227 C226 1.477 . S
C227 H247 0.930 . S
C228 N224 1.362 . S
C228 C225 1.431 . S
C228 C238 1.476 . S
H229 C223 0.929 . S
C230 O221 1.250 . S
C230 O222 1.258 . S
O231 Mn216 2.162 . S
O231 C219 1.281 . S
O232 Mn216 2.297 . S
O232 C219 1.236 . S
N233 Mn217 2.282 . S
N233 C234 1.328 . S
N233 C238 1.318 . S
C234 N233 1.328 . S
C234 C235 1.457 . S
C234 H239 0.929 . S
C235 C234 1.457 . S
C235 C236 1.291 . S
C235 H248 0.931 . S
C236 C235 1.291 . S
C236 C237 1.373 . S
C236 H249 0.929 . S
C237 C236 1.373 . S
C237 C238 1.396 . S
C237 C244 1.403 . S
C238 C228 1.476 . S
C238 N233 1.318 . S
C238 C237 1.396 . S
H239 C234 0.929 . S
O240 Mn216 2.385 . S
O240 C218 1.234 . S
O241 Mn216 2.209 . S
O241 Mn217 2.215 . S
O241 C218 1.283 . S
O242 Mn216 2.094 . S
O242 C220 1.240 . S
O243 Mn217 2.117 . S
O243 C220 1.264 . S
C244 C237 1.403 . S
C244 C245 1.399 . S
C244 H250 0.929 . S
C245 C225 1.449 . S
C245 C244 1.399 . S
C245 H251 0.930 . S
H246 C226 0.931 . S
H247 C227 0.930 . S
H248 C235 0.931 . S
H249 C236 0.929 . S
H250 C244 0.929 . S
H251 C245 0.930 . S
Mn252 O257 2.095 . S
Mn252 O267 2.162 . S
Mn252 O268 2.297 . S
Mn252 O276 2.385 . S
Mn252 O277 2.209 . S
Mn252 O278 2.094 . S
Mn253 O258 2.121 1_655 S
Mn253 N260 2.257 . S
Mn253 N269 2.282 . S
Mn253 O277 2.215 1_655 S
Mn253 O279 2.117 1_655 S
C254 O276 1.234 1_655 S
C254 O277 1.283 1_655 S
C255 O267 1.281 . S
C255 O268 1.236 . S
C256 O278 1.240 . S
C256 O279 1.264 . S
O257 Mn252 2.095 . S
O257 C266 1.250 . S
O258 Mn253 2.121 1_455 S
O258 C266 1.258 . S
C259 N260 1.326 . S
C259 C263 1.460 . S
C259 H265 0.929 . S
N260 Mn253 2.257 . S
N260 C259 1.326 . S
N260 C264 1.362 . S
C261 C262 1.258 . S
C261 C264 1.431 . S
C261 C281 1.449 . S
C262 C261 1.258 . S
C262 C263 1.477 . S
C262 H282 0.931 . S
C263 C259 1.460 . S
C263 C262 1.477 . S
C263 H283 0.930 . S
C264 N260 1.362 . S
C264 C261 1.431 . S
C264 C274 1.476 . S
H265 C259 0.929 . S
C266 O257 1.250 . S
C266 O258 1.258 . S
O267 Mn252 2.162 . S
O267 C255 1.281 . S
O268 Mn252 2.297 . S
O268 C255 1.236 . S
N269 Mn253 2.282 . S
N269 C270 1.328 . S
N269 C274 1.318 . S
C270 N269 1.328 . S
C270 C271 1.457 . S
C270 H275 0.929 . S
C271 C270 1.457 . S
C271 C272 1.291 . S
C271 H284 0.931 . S
C272 C271 1.291 . S
C272 C273 1.373 . S
C272 H285 0.929 . S
C273 C272 1.373 . S
C273 C274 1.396 . S
C273 C280 1.403 . S
C274 C264 1.476 . S
C274 N269 1.318 . S
C274 C273 1.396 . S
H275 C270 0.929 . S
O276 Mn252 2.385 . S
O276 C254 1.234 1_455 S
O277 Mn252 2.209 . S
O277 Mn253 2.215 1_455 S
O277 C254 1.283 1_455 S
O278 Mn252 2.094 . S
O278 C256 1.240 . S
O279 Mn253 2.117 1_455 S
O279 C256 1.264 . S
C280 C273 1.403 . S
C280 C281 1.399 . S
C280 H286 0.929 . S
C281 C261 1.449 . S
C281 C280 1.399 . S
C281 H287 0.930 . S
H282 C262 0.931 . S
H283 C263 0.930 . S
H284 C271 0.931 . S
H285 C272 0.929 . S
H286 C280 0.929 . S
H287 C281 0.930 . S
Mn288 O293 2.095 . S
Mn288 O303 2.162 . S
Mn288 O304 2.297 . S
Mn288 O312 2.385 . S
Mn288 O313 2.209 . S
Mn288 O314 2.094 . S
Mn289 O294 2.121 1_565 S
Mn289 N296 2.257 . S
Mn289 N305 2.282 . S
Mn289 O313 2.215 1_565 S
Mn289 O315 2.117 1_565 S
C290 O312 1.234 1_565 S
C290 O313 1.283 1_565 S
C291 O303 1.281 . S
C291 O304 1.236 . S
C292 O314 1.240 . S
C292 O315 1.264 . S
O293 Mn288 2.095 . S
O293 C302 1.250 . S
O294 Mn289 2.121 1_545 S
O294 C302 1.258 . S
C295 N296 1.326 . S
C295 C299 1.460 . S
C295 H301 0.929 . S
N296 Mn289 2.257 . S
N296 C295 1.326 . S
N296 C300 1.362 . S
C297 C298 1.258 . S
C297 C300 1.431 . S
C297 C317 1.449 . S
C298 C297 1.258 . S
C298 C299 1.477 . S
C298 H318 0.931 . S
C299 C295 1.460 . S
C299 C298 1.477 . S
C299 H319 0.930 . S
C300 N296 1.362 . S
C300 C297 1.431 . S
C300 C310 1.476 . S
H301 C295 0.929 . S
C302 O293 1.250 . S
C302 O294 1.258 . S
O303 Mn288 2.162 . S
O303 C291 1.281 . S
O304 Mn288 2.297 . S
O304 C291 1.236 . S
N305 Mn289 2.282 . S
N305 C306 1.328 . S
N305 C310 1.318 . S
C306 N305 1.328 . S
C306 C307 1.457 . S
C306 H311 0.929 . S
C307 C306 1.457 . S
C307 C308 1.291 . S
C307 H320 0.931 . S
C308 C307 1.291 . S
C308 C309 1.373 . S
C308 H321 0.929 . S
C309 C308 1.373 . S
C309 C310 1.396 . S
C309 C316 1.403 . S
C310 C300 1.476 . S
C310 N305 1.318 . S
C310 C309 1.396 . S
H311 C306 0.929 . S
O312 Mn288 2.385 . S
O312 C290 1.234 1_545 S
O313 Mn288 2.209 . S
O313 Mn289 2.215 1_545 S
O313 C290 1.283 1_545 S
O314 Mn288 2.094 . S
O314 C292 1.240 . S
O315 Mn289 2.117 1_545 S
O315 C292 1.264 . S
C316 C309 1.403 . S
C316 C317 1.399 . S
C316 H322 0.929 . S
C317 C297 1.449 . S
C317 C316 1.399 . S
C317 H323 0.930 . S
H318 C298 0.931 . S
H319 C299 0.930 . S
H320 C307 0.931 . S
H321 C308 0.929 . S
H322 C316 0.929 . S
H323 C317 0.930 . S
Mn324 O329 2.095 . S
Mn324 O339 2.162 . S
Mn324 O340 2.297 . S
Mn324 O348 2.385 . S
Mn324 O349 2.209 . S
Mn324 O350 2.094 . S
Mn325 O330 2.121 . S
Mn325 N332 2.257 . S
Mn325 N341 2.282 . S
Mn325 O349 2.215 . S
Mn325 O351 2.117 . S
C326 O348 1.234 . S
C326 O349 1.283 . S
C327 O339 1.281 . S
C327 O340 1.236 . S
C328 O350 1.240 . S
C328 O351 1.264 . S
O329 Mn324 2.095 . S
O329 C338 1.250 . S
O330 Mn325 2.121 . S
O330 C338 1.258 . S
C331 N332 1.326 . S
C331 C335 1.460 . S
C331 H337 0.929 . S
N332 Mn325 2.257 . S
N332 C331 1.326 . S
N332 C336 1.362 . S
C333 C334 1.258 . S
C333 C336 1.431 . S
C333 C353 1.449 . S
C334 C333 1.258 . S
C334 C335 1.477 . S
C334 H354 0.931 . S
C335 C331 1.460 . S
C335 C334 1.477 . S
C335 H355 0.930 . S
C336 N332 1.362 . S
C336 C333 1.431 . S
C336 C346 1.476 . S
H337 C331 0.929 . S
C338 O329 1.250 . S
C338 O330 1.258 . S
O339 Mn324 2.162 . S
O339 C327 1.281 . S
O340 Mn324 2.297 . S
O340 C327 1.236 . S
N341 Mn325 2.282 . S
N341 C342 1.328 . S
N341 C346 1.318 . S
C342 N341 1.328 . S
C342 C343 1.457 . S
C342 H347 0.929 . S
C343 C342 1.457 . S
C343 C344 1.291 . S
C343 H356 0.931 . S
C344 C343 1.291 . S
C344 C345 1.373 . S
C344 H357 0.929 . S
C345 C344 1.373 . S
C345 C346 1.396 . S
C345 C352 1.403 . S
C346 C336 1.476 . S
C346 N341 1.318 . S
C346 C345 1.396 . S
H347 C342 0.929 . S
O348 Mn324 2.385 . S
O348 C326 1.234 . S
O349 Mn324 2.209 . S
O349 Mn325 2.215 . S
O349 C326 1.283 . S
O350 Mn324 2.094 . S
O350 C328 1.240 . S
O351 Mn325 2.117 . S
O351 C328 1.264 . S
C352 C345 1.403 . S
C352 C353 1.399 . S
C352 H358 0.929 . S
C353 C333 1.449 . S
C353 C352 1.399 . S
C353 H359 0.930 . S
H354 C334 0.931 . S
H355 C335 0.930 . S
H356 C343 0.931 . S
H357 C344 0.929 . S
H358 C352 0.929 . S
H359 C353 0.930 . S
Mn360 O365 2.095 . S
Mn360 O375 2.162 . S
Mn360 O376 2.297 . S
Mn360 O384 2.385 . S
Mn360 O385 2.209 . S
Mn360 O386 2.094 . S
Mn361 O366 2.121 1_455 S
Mn361 N368 2.257 . S
Mn361 N377 2.282 . S
Mn361 O385 2.215 1_455 S
Mn361 O387 2.117 1_455 S
C362 O384 1.234 1_455 S
C362 O385 1.283 1_455 S
C363 O375 1.281 . S
C363 O376 1.236 . S
C364 O386 1.240 . S
C364 O387 1.264 . S
O365 Mn360 2.095 . S
O365 C374 1.250 . S
O366 Mn361 2.121 1_655 S
O366 C374 1.258 . S
C367 N368 1.326 . S
C367 C371 1.460 . S
C367 H373 0.929 . S
N368 Mn361 2.257 . S
N368 C367 1.326 . S
N368 C372 1.362 . S
C369 C370 1.258 . S
C369 C372 1.431 . S
C369 C389 1.449 . S
C370 C369 1.258 . S
C370 C371 1.477 . S
C370 H390 0.931 . S
C371 C367 1.460 . S
C371 C370 1.477 . S
C371 H391 0.930 . S
C372 N368 1.362 . S
C372 C369 1.431 . S
C372 C382 1.476 . S
H373 C367 0.929 . S
C374 O365 1.250 . S
C374 O366 1.258 . S
O375 Mn360 2.162 . S
O375 C363 1.281 . S
O376 Mn360 2.297 . S
O376 C363 1.236 . S
N377 Mn361 2.282 . S
N377 C378 1.328 . S
N377 C382 1.318 . S
C378 N377 1.328 . S
C378 C379 1.457 . S
C378 H383 0.929 . S
C379 C378 1.457 . S
C379 C380 1.291 . S
C379 H392 0.931 . S
C380 C379 1.291 . S
C380 C381 1.373 . S
C380 H393 0.929 . S
C381 C380 1.373 . S
C381 C382 1.396 . S
C381 C388 1.403 . S
C382 C372 1.476 . S
C382 N377 1.318 . S
C382 C381 1.396 . S
H383 C378 0.929 . S
O384 Mn360 2.385 . S
O384 C362 1.234 1_655 S
O385 Mn360 2.209 . S
O385 Mn361 2.215 1_655 S
O385 C362 1.283 1_655 S
O386 Mn360 2.094 . S
O386 C364 1.240 . S
O387 Mn361 2.117 1_655 S
O387 C364 1.264 . S
C388 C381 1.403 . S
C388 C389 1.399 . S
C388 H394 0.929 . S
C389 C369 1.449 . S
C389 C388 1.399 . S
C389 H395 0.930 . S
H390 C370 0.931 . S
H391 C371 0.930 . S
H392 C379 0.931 . S
H393 C380 0.929 . S
H394 C388 0.929 . S
H395 C389 0.930 . S
Mn396 O401 2.095 . S
Mn396 O411 2.162 . S
Mn396 O412 2.297 . S
Mn396 O420 2.385 . S
Mn396 O421 2.209 . S
Mn396 O422 2.094 . S
Mn397 O402 2.121 1_545 S
Mn397 N404 2.257 . S
Mn397 N413 2.282 . S
Mn397 O421 2.215 1_545 S
Mn397 O423 2.117 1_545 S
C398 O420 1.234 1_545 S
C398 O421 1.283 1_545 S
C399 O411 1.281 . S
C399 O412 1.236 . S
C400 O422 1.240 . S
C400 O423 1.264 . S
O401 Mn396 2.095 . S
O401 C410 1.250 . S
O402 Mn397 2.121 1_565 S
O402 C410 1.258 . S
C403 N404 1.326 . S
C403 C407 1.460 . S
C403 H409 0.929 . S
N404 Mn397 2.257 . S
N404 C403 1.326 . S
N404 C408 1.362 . S
C405 C406 1.258 . S
C405 C408 1.431 . S
C405 C425 1.449 . S
C406 C405 1.258 . S
C406 C407 1.477 . S
C406 H426 0.931 . S
C407 C403 1.460 . S
C407 C406 1.477 . S
C407 H427 0.930 . S
C408 N404 1.362 . S
C408 C405 1.431 . S
C408 C418 1.476 . S
H409 C403 0.929 . S
C410 O401 1.250 . S
C410 O402 1.258 . S
O411 Mn396 2.162 . S
O411 C399 1.281 . S
O412 Mn396 2.297 . S
O412 C399 1.236 . S
N413 Mn397 2.282 . S
N413 C414 1.328 . S
N413 C418 1.318 . S
C414 N413 1.328 . S
C414 C415 1.457 . S
C414 H419 0.929 . S
C415 C414 1.457 . S
C415 C416 1.291 . S
C415 H428 0.931 . S
C416 C415 1.291 . S
C416 C417 1.373 . S
C416 H429 0.929 . S
C417 C416 1.373 . S
C417 C418 1.396 . S
C417 C424 1.403 . S
C418 C408 1.476 . S
C418 N413 1.318 . S
C418 C417 1.396 . S
H419 C414 0.929 . S
O420 Mn396 2.385 . S
O420 C398 1.234 1_565 S
O421 Mn396 2.209 . S
O421 Mn397 2.215 1_565 S
O421 C398 1.283 1_565 S
O422 Mn396 2.094 . S
O422 C400 1.240 . S
O423 Mn397 2.117 1_565 S
O423 C400 1.264 . S
C424 C417 1.403 . S
C424 C425 1.399 . S
C424 H430 0.929 . S
C425 C405 1.449 . S
C425 C424 1.399 . S
C425 H431 0.930 . S
H426 C406 0.931 . S
H427 C407 0.930 . S
H428 C415 0.931 . S
H429 C416 0.929 . S
H430 C424 0.929 . S
H431 C425 0.930 . S
C432 C433 1.363 . S
C432 C438 1.379 . S
C432 N440 1.356 . S
C433 C432 1.363 . S
C433 C439 1.363 . S
C434 C435 1.363 . S
C434 C439 1.379 . S
C434 N441 1.356 . S
C435 C434 1.363 . S
C435 C438 1.363 . S
N436 C438 1.356 . S
N436 H448 0.984 . S
N436 H449 0.985 . S
N437 C439 1.356 . S
N437 H442 0.984 . S
N437 H443 0.985 1_554 S
C438 C432 1.379 . S
C438 C435 1.363 . S
C438 N436 1.356 . S
C439 C433 1.363 . S
C439 C434 1.379 . S
C439 N437 1.356 . S
N440 C432 1.356 . S
N440 H446 0.984 . S
N440 H447 0.984 . S
N441 C434 1.356 . S
N441 H444 0.984 . S
N441 H445 0.985 1_554 S
H442 N437 0.984 . S
H443 N437 0.985 1_556 S
H444 N441 0.984 . S
H445 N441 0.985 1_556 S
H446 N440 0.984 . S
H447 N440 0.984 . S
H448 N436 0.984 . S
H449 N436 0.985 . S
C450 C451 1.363 1_655 S
C450 C456 1.379 . S
C450 N458 1.352 1_655 S
C451 C450 1.363 1_455 S
C451 C457 1.363 . S
C452 C453 1.363 1_455 S
C452 C457 1.379 . S
C452 N459 1.352 1_455 S
C453 C452 1.363 1_655 S
C453 C456 1.363 . S
N454 C456 1.356 . S
N454 H466 0.984 . S
N454 H467 0.985 . S
N455 C457 1.356 . S
N455 H460 0.984 . S
N455 H461 0.985 . S
C456 C450 1.379 . S
C456 C453 1.363 . S
C456 N454 1.356 . S
C457 C451 1.363 . S
C457 C452 1.379 . S
C457 N455 1.356 . S
N458 C450 1.352 1_455 S
N458 H464 0.981 1_455 S
N458 H465 0.993 . S
N459 C452 1.352 1_655 S
N459 H462 0.993 . S
N459 H463 0.981 1_655 S
H460 N455 0.984 . S
H461 N455 0.985 . S
H462 N459 0.993 . S
H463 N459 0.981 1_455 S
H464 N458 0.981 1_655 S
H465 N458 0.993 . S
H466 N454 0.984 . S
H467 N454 0.985 . S
C468 C469 1.363 1_545 S
C468 C474 1.379 . S
C468 N476 1.359 1_545 S
C469 C468 1.363 1_565 S
C469 C475 1.363 . S
C470 C471 1.363 1_565 S
C470 C475 1.379 . S
C470 N477 1.359 1_565 S
C471 C470 1.363 1_545 S
C471 C474 1.363 . S
N472 C474 1.356 . S
N472 H484 0.984 . S
N472 H485 0.985 . S
N473 C475 1.356 . S
N473 H478 0.984 . S
N473 H479 0.985 . S
C474 C468 1.379 . S
C474 C471 1.363 . S
C474 N472 1.356 . S
C475 C469 1.363 . S
C475 C470 1.379 . S
C475 N473 1.356 . S
N476 C468 1.359 1_565 S
N476 H482 0.979 1_565 S
N476 H483 0.987 . S
N477 C470 1.359 1_545 S
N477 H480 0.987 . S
N477 H481 0.979 1_545 S
H478 N473 0.984 . S
H479 N473 0.985 . S
H480 N477 0.987 . S
H481 N477 0.979 1_565 S
H482 N476 0.979 1_545 S
H483 N476 0.987 . S
H484 N472 0.984 . S
H485 N472 0.985 . S
C486 C487 1.363 . S
C486 C492 1.379 . S
C486 N494 1.356 . S
C487 C486 1.363 . S
C487 C493 1.363 . S
C488 C489 1.363 . S
C488 C493 1.379 . S
C488 N495 1.356 . S
C489 C488 1.363 . S
C489 C492 1.363 . S
N490 C492 1.356 . S
N490 H502 0.984 . S
N490 H503 0.985 . S
N491 C493 1.356 . S
N491 H496 0.984 . S
N491 H497 0.985 . S
C492 C486 1.379 . S
C492 C489 1.363 . S
C492 N490 1.356 . S
C493 C487 1.363 . S
C493 C488 1.379 . S
C493 N491 1.356 . S
N494 C486 1.356 . S
N494 H500 0.984 . S
N494 H501 0.984 . S
N495 C488 1.356 . S
N495 H498 0.984 . S
N495 H499 0.985 . S
H496 N491 0.984 . S
H497 N491 0.985 . S
H498 N495 0.984 . S
H499 N495 0.985 . S
H500 N494 0.984 . S
H501 N494 0.984 . S
H502 N490 0.984 . S
H503 N490 0.985 . S
C504 C505 1.363 1_455 S
C504 C510 1.379 . S
C504 N512 1.359 1_455 S
C505 C504 1.363 1_655 S
C505 C511 1.363 . S
C506 C507 1.363 1_655 S
C506 C511 1.379 . S
C506 N513 1.359 1_655 S
C507 C506 1.363 1_455 S
C507 C510 1.363 . S
N508 C510 1.356 . S
N508 H520 0.984 . S
N508 H521 0.985 . S
N509 C511 1.356 . S
N509 H514 0.984 . S
N509 H515 0.985 1_556 S
C510 C504 1.379 . S
C510 C507 1.363 . S
C510 N508 1.356 . S
C511 C505 1.363 . S
C511 C506 1.379 . S
C511 N509 1.356 . S
N512 C504 1.359 1_655 S
N512 H518 0.979 1_655 S
N512 H519 0.987 . S
N513 C506 1.359 1_455 S
N513 H516 0.987 . S
N513 H517 0.979 1_456 S
H514 N509 0.984 . S
H515 N509 0.985 1_554 S
H516 N513 0.987 . S
H517 N513 0.979 1_654 S
H518 N512 0.979 1_455 S
H519 N512 0.987 . S
H520 N508 0.984 . S
H521 N508 0.985 . S
C522 C523 1.363 . S
C522 C528 1.379 . S
C522 N530 1.356 . S
C523 C522 1.363 . S
C523 C529 1.363 1_545 S
C524 C525 1.363 . S
C524 C529 1.379 . S
C524 N531 1.356 . S
C525 C524 1.363 . S
C525 C528 1.363 1_565 S
N526 C528 1.352 1_565 S
N526 H538 0.981 1_565 S
N526 H539 0.993 . S
N527 C529 1.352 1_545 S
N527 H532 0.993 . S
N527 H533 0.981 1_545 S
C528 C522 1.379 . S
C528 C525 1.363 1_545 S
C528 N526 1.352 1_545 S
C529 C523 1.363 1_565 S
C529 C524 1.379 . S
C529 N527 1.352 1_565 S
N530 C522 1.356 . S
N530 H536 0.984 . S
N530 H537 0.984 . S
N531 C524 1.356 . S
N531 H534 0.984 . S
N531 H535 0.985 . S
H532 N527 0.993 . S
H533 N527 0.981 1_565 S
H534 N531 0.984 . S
H535 N531 0.985 . S
H536 N530 0.984 . S
H537 N530 0.984 . S
H538 N526 0.981 1_545 S
H539 N526 0.993 . S
C540 C541 1.363 . S
C540 C546 1.379 . S
C540 N548 1.356 . S
C541 C540 1.363 . S
C541 C547 1.363 . S
C542 C543 1.363 . S
C542 C547 1.379 . S
C542 N549 1.356 . S
C543 C542 1.363 . S
C543 C546 1.363 . S
N544 C546 1.356 . S
N544 H556 0.984 . S
N544 H557 0.985 . S
N545 C547 1.356 . S
N545 H550 0.984 . S
N545 H551 0.985 . S
C546 C540 1.379 . S
C546 C543 1.363 . S
C546 N544 1.356 . S
C547 C541 1.363 . S
C547 C542 1.379 . S
C547 N545 1.356 . S
N548 C540 1.356 . S
N548 H554 0.984 . S
N548 H555 0.984 . S
N549 C542 1.356 . S
N549 H552 0.984 . S
N549 H553 0.985 . S
H550 N545 0.984 . S
H551 N545 0.985 . S
H552 N549 0.984 . S
H553 N549 0.985 . S
H554 N548 0.984 . S
H555 N548 0.984 . S
H556 N544 0.984 . S
H557 N544 0.985 . S
C558 C559 1.363 . S
C558 C564 1.379 . S
C558 N566 1.356 . S
C559 C558 1.363 . S
C559 C565 1.363 . S
C560 C561 1.363 . S
C560 C565 1.379 . S
C560 N567 1.356 . S
C561 C560 1.363 . S
C561 C564 1.363 . S
N562 C564 1.356 . S
N562 H574 0.984 . S
N562 H575 0.985 . S
N563 C565 1.356 . S
N563 H568 0.984 . S
N563 H569 0.985 . S
C564 C558 1.379 . S
C564 C561 1.363 . S
C564 N562 1.356 . S
C565 C559 1.363 . S
C565 C560 1.379 . S
C565 N563 1.356 . S
N566 C558 1.356 . S
N566 H572 0.984 . S
N566 H573 0.984 . S
N567 C560 1.356 . S
N567 H570 0.984 . S
N567 H571 0.985 . S
H568 N563 0.984 . S
H569 N563 0.985 . S
H570 N567 0.984 . S
H571 N567 0.985 . S
H572 N566 0.984 . S
H573 N566 0.984 . S
H574 N562 0.984 . S
H575 N562 0.985 . S
C576 C577 1.363 . S
C576 C582 1.379 . S
C576 N584 1.356 . S
C577 C576 1.363 . S
C577 C583 1.363 . S
C578 C579 1.363 . S
C578 C583 1.379 . S
C578 N585 1.356 . S
C579 C578 1.363 . S
C579 C582 1.363 . S
N580 C582 1.356 . S
N580 H592 0.984 . S
N580 H593 0.985 . S
N581 C583 1.356 . S
N581 H586 0.984 . S
N581 H587 0.985 . S
C582 C576 1.379 . S
C582 C579 1.363 . S
C582 N580 1.356 . S
C583 C577 1.363 . S
C583 C578 1.379 . S
C583 N581 1.356 . S
N584 C576 1.356 . S
N584 H590 0.984 . S
N584 H591 0.984 . S
N585 C578 1.356 . S
N585 H588 0.984 . S
N585 H589 0.985 . S
H586 N581 0.984 . S
H587 N581 0.985 . S
H588 N585 0.984 . S
H589 N585 0.985 . S
H590 N584 0.984 . S
H591 N584 0.984 . S
H592 N580 0.984 . S
H593 N580 0.985 . S
C594 C595 1.363 . S
C594 C600 1.379 . S
C594 N602 1.356 . S
C595 C594 1.363 . S
C595 C601 1.363 . S
C596 C597 1.363 . S
C596 C601 1.379 . S
C596 N603 1.356 . S
C597 C596 1.363 . S
C597 C600 1.363 . S
N598 C600 1.356 . S
N598 H610 0.984 . S
N598 H611 0.985 . S
N599 C601 1.356 . S
N599 H604 0.984 . S
N599 H605 0.985 . S
C600 C594 1.379 . S
C600 C597 1.363 . S
C600 N598 1.356 . S
C601 C595 1.363 . S
C601 C596 1.379 . S
C601 N599 1.356 . S
N602 C594 1.356 . S
N602 H608 0.984 . S
N602 H609 0.984 . S
N603 C596 1.356 . S
N603 H606 0.984 . S
N603 H607 0.985 . S
H604 N599 0.984 . S
H605 N599 0.985 . S
H606 N603 0.984 . S
H607 N603 0.985 . S
H608 N602 0.984 . S
H609 N602 0.984 . S
H610 N598 0.984 . S
H611 N598 0.985 . S
C612 C613 1.363 . S
C612 C618 1.379 . S
C612 N620 1.356 . S
C613 C612 1.363 . S
C613 C619 1.363 . S
C614 C615 1.363 . S
C614 C619 1.379 . S
C614 N621 1.356 . S
C615 C614 1.363 . S
C615 C618 1.363 . S
N616 C618 1.356 . S
N616 H628 0.984 . S
N616 H629 0.985 . S
N617 C619 1.356 . S
N617 H622 0.984 . S
N617 H623 0.985 . S
C618 C612 1.379 . S
C618 C615 1.363 . S
C618 N616 1.356 . S
C619 C613 1.363 . S
C619 C614 1.379 . S
C619 N617 1.356 . S
N620 C612 1.356 . S
N620 H626 0.984 . S
N620 H627 0.984 . S
N621 C614 1.356 . S
N621 H624 0.984 . S
N621 H625 0.985 . S
H622 N617 0.984 . S
H623 N617 0.985 . S
H624 N621 0.984 . S
H625 N621 0.985 . S
H626 N620 0.984 . S
H627 N620 0.984 . S
H628 N616 0.984 . S
H629 N616 0.985 . S
C630 C631 1.363 . S
C630 C636 1.379 . S
C630 N638 1.356 . S
C631 C630 1.363 . S
C631 C637 1.363 . S
C632 C633 1.363 . S
C632 C637 1.379 . S
C632 N639 1.356 . S
C633 C632 1.363 . S
C633 C636 1.363 . S
N634 C636 1.356 . S
N634 H646 0.984 . S
N634 H647 0.985 . S
N635 C637 1.356 . S
N635 H640 0.984 . S
N635 H641 0.985 . S
C636 C630 1.379 . S
C636 C633 1.363 . S
C636 N634 1.356 . S
C637 C631 1.363 . S
C637 C632 1.379 . S
C637 N635 1.356 . S
N638 C630 1.356 . S
N638 H644 0.984 . S
N638 H645 0.984 . S
N639 C632 1.356 . S
N639 H642 0.984 . S
N639 H643 0.985 . S
H640 N635 0.984 . S
H641 N635 0.985 . S
H642 N639 0.984 . S
H643 N639 0.985 . S
H644 N638 0.984 . S
H645 N638 0.984 . S
H646 N634 0.984 . S
H647 N634 0.985 . S
C648 C649 1.363 . S
C648 C654 1.379 1_565 S
C648 N656 1.356 . S
C649 C648 1.363 . S
C649 C655 1.363 1_556 S
C650 C651 1.363 . S
C650 C655 1.379 1_545 S
C650 N657 1.356 . S
C651 C650 1.363 . S
C651 C654 1.363 1_554 S
N652 C654 1.356 . S
N652 H664 0.984 . S
N652 H665 0.985 . S
N653 C655 1.356 . S
N653 H658 0.984 . S
N653 H659 0.985 . S
C654 C648 1.379 1_545 S
C654 C651 1.363 1_556 S
C654 N652 1.356 . S
C655 C649 1.363 1_554 S
C655 C650 1.379 1_565 S
C655 N653 1.356 . S
N656 C648 1.356 . S
N656 H662 0.984 . S
N656 H663 0.984 . S
N657 C650 1.356 . S
N657 H660 0.984 . S
N657 H661 0.985 . S
H658 N653 0.984 . S
H659 N653 0.985 . S
H660 N657 0.984 . S
H661 N657 0.985 . S
H662 N656 0.984 . S
H663 N656 0.984 . S
H664 N652 0.984 . S
H665 N652 0.985 . S
C666 C667 1.363 . S
C666 C672 1.379 . S
C666 N674 1.356 . S
C667 C666 1.363 . S
C667 C673 1.363 . S
C668 C669 1.363 . S
C668 C673 1.379 . S
C668 N675 1.356 . S
C669 C668 1.363 . S
C669 C672 1.363 . S
N670 C672 1.356 . S
N670 H682 0.984 . S
N670 H683 0.985 . S
N671 C673 1.356 . S
N671 H676 0.984 . S
N671 H677 0.985 . S
C672 C666 1.379 . S
C672 C669 1.363 . S
C672 N670 1.356 . S
C673 C667 1.363 . S
C673 C668 1.379 . S
C673 N671 1.356 . S
N674 C666 1.356 . S
N674 H680 0.984 . S
N674 H681 0.984 . S
N675 C668 1.356 . S
N675 H678 0.984 . S
N675 H679 0.985 . S
H676 N671 0.984 . S
H677 N671 0.985 . S
H678 N675 0.984 . S
H679 N675 0.985 . S
H680 N674 0.984 . S
H681 N674 0.984 . S
H682 N670 0.984 . S
H683 N670 0.985 . S
C684 C685 1.363 . S
C684 C690 1.379 1_655 S
C684 N692 1.356 . S
C685 C684 1.363 . S
C685 C691 1.363 . S
C686 C687 1.363 . S
C686 C691 1.379 1_455 S
C686 N693 1.356 . S
C687 C686 1.363 . S
C687 C690 1.363 . S
N688 C690 1.356 . S
N688 H700 0.984 . S
N688 H701 0.985 . S
N689 C691 1.356 . S
N689 H694 0.984 . S
N689 H695 0.985 . S
C690 C684 1.379 1_455 S
C690 C687 1.363 . S
C690 N688 1.356 . S
C691 C685 1.363 . S
C691 C686 1.379 1_655 S
C691 N689 1.356 . S
N692 C684 1.356 . S
N692 H698 0.984 . S
N692 H699 0.984 . S
N693 C686 1.356 . S
N693 H696 0.984 . S
N693 H697 0.985 . S
H694 N689 0.984 . S
H695 N689 0.985 . S
H696 N693 0.984 . S
H697 N693 0.985 . S
H698 N692 0.984 . S
H699 N692 0.984 . S
H700 N688 0.984 . S
H701 N688 0.985 . S
C702 C703 1.363 1_556 S
C702 C708 1.379 1_565 S
C702 N710 1.356 . S
C703 C702 1.363 1_554 S
C703 C709 1.363 . S
C704 C705 1.363 1_554 S
C704 C709 1.379 1_545 S
C704 N711 1.356 . S
C705 C704 1.363 1_556 S
C705 C708 1.363 . S
N706 C708 1.356 . S
N706 H718 0.984 . S
N706 H719 0.985 . S
N707 C709 1.356 . S
N707 H712 0.984 . S
N707 H713 0.985 . S
C708 C702 1.379 1_545 S
C708 C705 1.363 . S
C708 N706 1.356 . S
C709 C703 1.363 . S
C709 C704 1.379 1_565 S
C709 N707 1.356 . S
N710 C702 1.356 . S
N710 H716 0.984 . S
N710 H717 0.984 . S
N711 C704 1.356 . S
N711 H714 0.984 . S
N711 H715 0.985 . S
H712 N707 0.984 . S
H713 N707 0.985 . S
H714 N711 0.984 . S
H715 N711 0.985 . S
H716 N710 0.984 . S
H717 N710 0.984 . S
H718 N706 0.984 . S
H719 N706 0.985 . S
C720 C721 1.363 . S
C720 C726 1.379 . S
C720 N728 1.356 . S
C721 C720 1.363 . S
C721 C727 1.363 . S
C722 C723 1.363 . S
C722 C727 1.379 . S
C722 N729 1.356 . S
C723 C722 1.363 . S
C723 C726 1.363 . S
N724 C726 1.356 . S
N724 H736 0.984 . S
N724 H737 0.985 . S
N725 C727 1.356 . S
N725 H730 0.984 . S
N725 H731 0.985 . S
C726 C720 1.379 . S
C726 C723 1.363 . S
C726 N724 1.356 . S
C727 C721 1.363 . S
C727 C722 1.379 . S
C727 N725 1.356 . S
N728 C720 1.356 . S
N728 H734 0.984 . S
N728 H735 0.984 . S
N729 C722 1.356 . S
N729 H732 0.984 . S
N729 H733 0.985 . S
H730 N725 0.984 . S
H731 N725 0.985 . S
H732 N729 0.984 . S
H733 N729 0.985 . S
H734 N728 0.984 . S
H735 N728 0.984 . S
H736 N724 0.984 . S
H737 N724 0.985 . S
C738 C739 1.363 . S
C738 C744 1.379 1_455 S
C738 N746 1.356 . S
C739 C738 1.363 . S
C739 C745 1.363 . S
C740 C741 1.363 . S
C740 C745 1.379 1_655 S
C740 N747 1.356 . S
C741 C740 1.363 . S
C741 C744 1.363 . S
N742 C744 1.356 . S
N742 H754 0.984 . S
N742 H755 0.985 . S
N743 C745 1.356 . S
N743 H748 0.984 . S
N743 H749 0.985 . S
C744 C738 1.379 1_655 S
C744 C741 1.363 . S
C744 N742 1.356 . S
C745 C739 1.363 . S
C745 C740 1.379 1_455 S
C745 N743 1.356 . S
N746 C738 1.356 . S
N746 H752 0.984 . S
N746 H753 0.984 . S
N747 C740 1.356 . S
N747 H750 0.984 . S
N747 H751 0.985 . S
H748 N743 0.984 . S
H749 N743 0.985 . S
H750 N747 0.984 . S
H751 N747 0.985 . S
H752 N746 0.984 . S
H753 N746 0.984 . S
H754 N742 0.984 . S
H755 N742 0.985 . S
C756 C757 1.363 . S
C756 C762 1.379 . S
C756 N764 1.356 . S
C757 C756 1.363 . S
C757 C763 1.363 1_556 S
C758 C759 1.363 . S
C758 C763 1.379 . S
C758 N765 1.356 . S
C759 C758 1.363 . S
C759 C762 1.363 1_554 S
N760 C762 1.356 . S
N760 H772 0.984 . S
N760 H773 0.985 1_556 S
N761 C763 1.344 1_655 S
N761 H766 0.996 1_554 S
N761 H767 0.986 . S
C762 C756 1.379 . S
C762 C759 1.363 1_556 S
C762 N760 1.356 . S
C763 C757 1.363 1_554 S
C763 C758 1.379 . S
C763 N761 1.344 1_455 S
N764 C756 1.356 . S
N764 H770 0.984 . S
N764 H771 0.984 . S
N765 C758 1.356 . S
N765 H768 0.984 . S
N765 H769 0.985 . S
H766 N761 0.996 1_556 S
H767 N761 0.986 . S
H768 N765 0.984 . S
H769 N765 0.985 . S
H770 N764 0.984 . S
H771 N764 0.984 . S
H772 N760 0.984 . S
H773 N760 0.985 1_554 S
C774 C775 1.363 . S
C774 C780 1.379 . S
C774 N782 1.356 . S
C775 C774 1.363 . S
C775 C781 1.363 . S
C776 C777 1.363 . S
C776 C781 1.379 . S
C776 N783 1.356 . S
C777 C776 1.363 . S
C777 C780 1.363 . S
N778 C780 1.356 . S
N778 H790 0.984 1_655 S
N778 H791 0.985 1_655 S
N779 C781 1.356 . S
N779 H784 0.984 . S
N779 H785 0.985 . S
C780 C774 1.379 . S
C780 C777 1.363 . S
C780 N778 1.356 . S
C781 C775 1.363 . S
C781 C776 1.379 . S
C781 N779 1.356 . S
N782 C774 1.356 . S
N782 H788 0.984 . S
N782 H789 0.984 . S
N783 C776 1.356 . S
N783 H786 0.984 . S
N783 H787 0.985 . S
H784 N779 0.984 . S
H785 N779 0.985 . S
H786 N783 0.984 . S
H787 N783 0.985 . S
H788 N782 0.984 . S
H789 N782 0.984 . S
H790 N778 0.984 1_455 S
H791 N778 0.985 1_455 S
C792 C793 1.363 . S
C792 C798 1.379 . S
C792 N800 1.356 . S
C793 C792 1.363 . S
C793 C799 1.363 . S
C794 C795 1.363 . S
C794 C799 1.379 . S
C794 N801 1.356 . S
C795 C794 1.363 . S
C795 C798 1.363 . S
N796 C798 1.356 . S
N796 H808 0.984 1_565 S
N796 H809 0.985 1_565 S
N797 C799 1.356 . S
N797 H802 0.984 . S
N797 H803 0.985 . S
C798 C792 1.379 . S
C798 C795 1.363 . S
C798 N796 1.356 . S
C799 C793 1.363 . S
C799 C794 1.379 . S
C799 N797 1.356 . S
N800 C792 1.356 . S
N800 H806 0.984 . S
N800 H807 0.984 . S
N801 C794 1.356 . S
N801 H804 0.984 . S
N801 H805 0.985 . S
H802 N797 0.984 . S
H803 N797 0.985 . S
H804 N801 0.984 . S
H805 N801 0.985 . S
H806 N800 0.984 . S
H807 N800 0.984 . S
H808 N796 0.984 1_545 S
H809 N796 0.985 1_545 S
C810 C811 1.363 1_556 S
C810 C816 1.379 . S
C810 N818 1.356 . S
C811 C810 1.363 1_554 S
C811 C817 1.363 . S
C812 C813 1.363 1_554 S
C812 C817 1.379 . S
C812 N819 1.356 . S
C813 C812 1.363 1_556 S
C813 C816 1.363 . S
N814 C816 1.356 . S
N814 H826 0.984 . S
N814 H827 0.985 . S
N815 C817 1.356 . S
N815 H820 0.984 . S
N815 H821 0.985 . S
C816 C810 1.379 . S
C816 C813 1.363 . S
C816 N814 1.356 . S
C817 C811 1.363 . S
C817 C812 1.379 . S
C817 N815 1.356 . S
N818 C810 1.356 . S
N818 H824 0.984 . S
N818 H825 0.984 1_556 S
N819 C812 1.356 . S
N819 H822 0.984 1_554 S
N819 H823 0.985 . S
H820 N815 0.984 . S
H821 N815 0.985 . S
H822 N819 0.984 1_556 S
H823 N819 0.985 . S
H824 N818 0.984 . S
H825 N818 0.984 1_554 S
H826 N814 0.984 . S
H827 N814 0.985 . S
C828 C829 1.363 . S
C828 C834 1.379 . S
C828 N836 1.356 . S
C829 C828 1.363 . S
C829 C835 1.363 . S
C830 C831 1.363 . S
C830 C835 1.379 . S
C830 N837 1.356 . S
C831 C830 1.363 . S
C831 C834 1.363 . S
N832 C834 1.356 . S
N832 H844 0.984 1_565 S
N832 H845 0.985 1_565 S
N833 C835 1.356 . S
N833 H838 0.984 . S
N833 H839 0.985 . S
C834 C828 1.379 . S
C834 C831 1.363 . S
C834 N832 1.356 . S
C835 C829 1.363 . S
C835 C830 1.379 . S
C835 N833 1.356 . S
N836 C828 1.356 . S
N836 H842 0.984 . S
N836 H843 0.984 . S
N837 C830 1.356 . S
N837 H840 0.984 . S
N837 H841 0.985 . S
H838 N833 0.984 . S
H839 N833 0.985 . S
H840 N837 0.984 . S
H841 N837 0.985 . S
H842 N836 0.984 . S
H843 N836 0.984 . S
H844 N832 0.984 1_545 S
H845 N832 0.985 1_545 S
C846 C847 1.363 . S
C846 C852 1.379 . S
C846 N854 1.356 . S
C847 C846 1.363 . S
C847 C853 1.363 . S
C848 C849 1.363 . S
C848 C853 1.379 . S
C848 N855 1.356 . S
C849 C848 1.363 . S
C849 C852 1.363 . S
N850 C852 1.356 . S
N850 H862 0.984 . S
N850 H863 0.985 . S
N851 C853 1.356 . S
N851 H856 0.984 . S
N851 H857 0.985 . S
C852 C846 1.379 . S
C852 C849 1.363 . S
C852 N850 1.356 . S
C853 C847 1.363 . S
C853 C848 1.379 . S
C853 N851 1.356 . S
N854 C846 1.356 . S
N854 H860 0.984 . S
N854 H861 0.984 . S
N855 C848 1.356 . S
N855 H858 0.984 . S
N855 H859 0.985 . S
H856 N851 0.984 . S
H857 N851 0.985 . S
H858 N855 0.984 . S
H859 N855 0.985 . S
H860 N854 0.984 . S
H861 N854 0.984 . S
H862 N850 0.984 . S
H863 N850 0.985 . S
C433 C112 1.400 . S
C435 C4 1.400 . S
C451 C40 1.400 . S
C453 C148 1.400 . S
C469 C184 1.400 . S
C471 C76 1.400 . S
C487 C220 1.400 . S
C489 C328 1.400 . S
C505 C364 1.400 . S
C507 C256 1.400 . S
C523 C292 1.400 . S
C525 C400 1.400 . S
C541 C302 1.561 . S
C543 C14 1.561 . S
C559 C50 1.561 . S
C561 C338 1.561 . S
C577 C86 1.561 . S
C579 C374 1.561 . S
C595 C122 1.561 . S
C597 C410 1.561 . S
C613 C230 1.561 . S
C615 C158 1.561 . S
C631 C266 1.561 . S
C633 C194 1.561 . S
C649 C255 1.212 . S
C651 C3 1.212 . S
C667 C39 1.212 . S
C669 C291 1.212 . S
C685 C75 1.212 . S
C687 C327 1.212 . S
C703 C111 1.212 . S
C705 C363 1.212 . S
C721 C399 1.212 . S
C723 C147 1.212 . S
C739 C183 1.212 . S
C741 C219 1.212 . S
C757 C362 1.528 . S
C759 C2 1.528 . S
C775 C398 1.528 . S
C777 C38 1.528 . S
C793 C218 1.528 . S
C795 C74 1.528 . S
C811 C110 1.528 . S
C813 C254 1.528 . S
C829 C146 1.528 . S
C831 C290 1.528 . S
C847 C182 1.528 . S
C849 C326 1.528 . S
