# Generated by pormake.
# Topology umh, (4)-cn, num edge types: 1
# Building blocks:
#     Node 0, Type 0, BuildingBlock: ICAMEG_clean_sbu_1, # of connection points: 4
#     Node 1, Type 0, BuildingBlock: ICAMEG_clean_sbu_1, # of connection points: 4
#     Node 2, Type 0, BuildingBlock: ICAMEG_clean_sbu_1, # of connection points: 4
#     Node 3, Type 0, BuildingBlock: ICAMEG_clean_sbu_1, # of connection points: 4
#     Node 4, Type 0, BuildingBlock: ICAMEG_clean_sbu_1, # of connection points: 4
#     Node 5, Type 0, BuildingBlock: ICAMEG_clean_sbu_1, # of connection points: 4
#     Node 6, Type 0, BuildingBlock: ICAMEG_clean_sbu_1, # of connection points: 4
#     Node 7, Type 0, BuildingBlock: ICAMEG_clean_sbu_1, # of connection points: 4
#     Node 8, Type 0, BuildingBlock: ICAMEG_clean_sbu_1, # of connection points: 4
#     Node 9, Type 0, BuildingBlock: ICAMEG_clean_sbu_1, # of connection points: 4
#     Node 10, Type 0, BuildingBlock: ICAMEG_clean_sbu_1, # of connection points: 4
#     Node 11, Type 0, BuildingBlock: ICAMEG_clean_sbu_1, # of connection points: 4
#     Node 12, Type 0, BuildingBlock: ICAMEG_clean_sbu_1, # of connection points: 4
#     Node 13, Type 0, BuildingBlock: ICAMEG_clean_sbu_1, # of connection points: 4
#     Node 14, Type 0, BuildingBlock: ICAMEG_clean_sbu_1, # of connection points: 4
#     Node 15, Type 0, BuildingBlock: ICAMEG_clean_sbu_1, # of connection points: 4
#     Edge 16, Type (0, 0), BuildingBlock: ZUJKAS_clean_linker_0, # of connection points: 2
#     Edge 17, Type (0, 0), BuildingBlock: ZUJKAS_clean_linker_0, # of connection points: 2
#     Edge 18, Type (0, 0), BuildingBlock: ZUJKAS_clean_linker_0, # of connection points: 2
#     Edge 19, Type (0, 0), BuildingBlock: ZUJKAS_clean_linker_0, # of connection points: 2
#     Edge 20, Type (0, 0), BuildingBlock: ZUJKAS_clean_linker_0, # of connection points: 2
#     Edge 21, Type (0, 0), BuildingBlock: ZUJKAS_clean_linker_0, # of connection points: 2
#     Edge 22, Type (0, 0), BuildingBlock: ZUJKAS_clean_linker_0, # of connection points: 2
#     Edge 23, Type (0, 0), BuildingBlock: ZUJKAS_clean_linker_0, # of connection points: 2
#     Edge 24, Type (0, 0), BuildingBlock: ZUJKAS_clean_linker_0, # of connection points: 2
#     Edge 25, Type (0, 0), BuildingBlock: ZUJKAS_clean_linker_0, # of connection points: 2
#     Edge 26, Type (0, 0), BuildingBlock: ZUJKAS_clean_linker_0, # of connection points: 2
#     Edge 27, Type (0, 0), BuildingBlock: ZUJKAS_clean_linker_0, # of connection points: 2
#     Edge 28, Type (0, 0), BuildingBlock: ZUJKAS_clean_linker_0, # of connection points: 2
#     Edge 29, Type (0, 0), BuildingBlock: ZUJKAS_clean_linker_0, # of connection points: 2
#     Edge 30, Type (0, 0), BuildingBlock: ZUJKAS_clean_linker_0, # of connection points: 2
#     Edge 31, Type (0, 0), BuildingBlock: ZUJKAS_clean_linker_0, # of connection points: 2
#     Edge 32, Type (0, 0), BuildingBlock: ZUJKAS_clean_linker_0, # of connection points: 2
#     Edge 33, Type (0, 0), BuildingBlock: ZUJKAS_clean_linker_0, # of connection points: 2
#     Edge 34, Type (0, 0), BuildingBlock: ZUJKAS_clean_linker_0, # of connection points: 2
#     Edge 35, Type (0, 0), BuildingBlock: ZUJKAS_clean_linker_0, # of connection points: 2
#     Edge 36, Type (0, 0), BuildingBlock: ZUJKAS_clean_linker_0, # of connection points: 2
#     Edge 37, Type (0, 0), BuildingBlock: ZUJKAS_clean_linker_0, # of connection points: 2
#     Edge 38, Type (0, 0), BuildingBlock: ZUJKAS_clean_linker_0, # of connection points: 2
#     Edge 39, Type (0, 0), BuildingBlock: ZUJKAS_clean_linker_0, # of connection points: 2
#     Edge 40, Type (0, 0), BuildingBlock: ZUJKAS_clean_linker_0, # of connection points: 2
#     Edge 41, Type (0, 0), BuildingBlock: ZUJKAS_clean_linker_0, # of connection points: 2
#     Edge 42, Type (0, 0), BuildingBlock: ZUJKAS_clean_linker_0, # of connection points: 2
#     Edge 43, Type (0, 0), BuildingBlock: ZUJKAS_clean_linker_0, # of connection points: 2
#     Edge 44, Type (0, 0), BuildingBlock: ZUJKAS_clean_linker_0, # of connection points: 2
#     Edge 45, Type (0, 0), BuildingBlock: ZUJKAS_clean_linker_0, # of connection points: 2
#     Edge 46, Type (0, 0), BuildingBlock: ZUJKAS_clean_linker_0, # of connection points: 2
#     Edge 47, Type (0, 0), BuildingBlock: ZUJKAS_clean_linker_0, # of connection points: 2
# Relax obj value: 0.087
# Max RMSD: 0.249
# Mean RMSD: 0.249
data_MOF--net-umh--node1-ICAMEG_clean_sbu_1--edge1-ZUJKAS_clean_linker_0
_symmetry_space_group_name_H-M    P1
_symmetry_Int_Tables_number       1
_symmetry_cell_setting            triclinic
loop_
_symmetry_equiv_pos_as_xyz
'x, y, z'
_cell_length_a     54.488988
_cell_length_b     54.489211
_cell_length_c     73.470915
_cell_angle_alpha  90.009563
_cell_angle_beta   89.998411
_cell_angle_gamma 89.965236
loop_
_atom_site_label
_atom_site_type_symbol
_atom_site_fract_x
_atom_site_fract_y
_atom_site_fract_z
_atom_type_partial_charge
Co0 Co 0.30986 0.09004 0.12535 0.0
Co1 Co 0.35918 0.10154 0.15367 0.0
O2 O 0.34421 0.08691 0.1322 0.0
C3 C 0.33808 0.11154 0.09534 0.0
O4 O 0.35055 0.12269 0.10817 0.0
C5 C 0.36591 0.04859 0.15773 0.0
O6 O 0.34266 0.04675 0.15333 0.0
O7 O 0.33155 0.09081 0.16921 0.0
O8 O 0.29901 0.08351 0.15109 0.0
H9 H 0.36088 0.15083 0.21147 0.0
H10 H 0.3423 0.0563 0.10473 0.0
O11 O 0.32042 0.09724 0.0996 0.0
H12 H 0.27669 0.00409 0.12995 0.0
H13 H 0.23772 0.07774 0.08359 0.0
H14 H 0.26595 0.11376 0.1415 0.0
H15 H 0.27668 0.04877 0.13541 0.0
H16 H 0.2809 0.07351 0.09326 0.0
O17 O 0.37613 0.06961 0.15854 0.0
H18 H 0.34187 0.13311 0.18398 0.0
H19 H 0.40935 0.09922 0.16962 0.0
H20 H 0.22258 0.11828 0.13245 0.0
H21 H 0.34295 0.01173 0.09884 0.0
H22 H 0.20822 0.10019 0.1033 0.0
H23 H 0.31001 0.9853 0.11154 0.0
O24 O 0.31009 0.12566 0.13062 0.0
H25 H 0.42422 0.0907 0.10586 0.0
H26 H 0.38554 0.14894 0.14851 0.0
H27 H 0.41897 0.16316 0.12848 0.0
H28 H 0.43853 0.13394 0.10695 0.0
H29 H 0.39062 0.07729 0.12604 0.0
H30 H 0.42907 0.1164 0.19704 0.0
H31 H 0.40479 0.1425 0.21814 0.0
O32 O 0.34189 0.1334 0.14932 0.0
C33 C 0.30922 0.08469 0.16676 0.0
C34 C 0.37168 0.13959 0.20233 0.0
C35 C 0.40994 0.12024 0.19425 0.0
N36 N 0.37458 0.11544 0.1751 0.0
C37 C 0.36104 0.1296 0.18671 0.0
C38 C 0.39868 0.11055 0.17876 0.0
C39 C 0.39631 0.13488 0.20608 0.0
C40 C 0.32777 0.04495 0.11014 0.0
N41 N 0.30939 0.05512 0.1203 0.0
C42 C 0.32829 0.01971 0.10683 0.0
C43 C 0.30982 0.00489 0.11399 0.0
C44 C 0.29113 0.01542 0.12432 0.0
C45 C 0.29123 0.04072 0.12739 0.0
C46 C 0.24373 0.08564 0.09635 0.0
C47 C 0.25978 0.10567 0.12888 0.0
C48 C 0.26815 0.08332 0.10188 0.0
N49 N 0.27583 0.09314 0.11802 0.0
C50 C 0.23523 0.10836 0.12379 0.0
C51 C 0.22719 0.09823 0.10742 0.0
C52 C 0.32306 0.14013 0.14026 0.0
C53 C 0.41589 0.10358 0.11522 0.0
C54 C 0.39397 0.13612 0.13918 0.0
C55 C 0.41291 0.14427 0.12789 0.0
C56 C 0.42389 0.12786 0.11582 0.0
N57 N 0.38624 0.11228 0.13851 0.0
C58 C 0.39694 0.09607 0.12674 0.0
Co59 Co 0.42248 0.2961 0.62453 0.0
Co60 Co 0.39558 0.33835 0.65336 0.0
O61 O 0.4139 0.32942 0.63164 0.0
C62 C 0.39332 0.31623 0.59452 0.0
O63 O 0.37787 0.32303 0.60725 0.0
C64 C 0.44233 0.36412 0.65619 0.0
O65 O 0.45244 0.34279 0.65265 0.0
O66 O 0.41621 0.31665 0.66866 0.0
O67 O 0.43186 0.28754 0.65022 0.0
H68 H 0.35067 0.32258 0.71192 0.0
H69 H 0.44384 0.33843 0.60468 0.0
O70 O 0.4127 0.30438 0.59881 0.0
H71 H 0.51451 0.29335 0.63002 0.0
H72 H 0.45886 0.23311 0.58232 0.0
H73 H 0.41465 0.24647 0.64005 0.0
H74 H 0.4723 0.27828 0.63479 0.0
H75 H 0.44817 0.275 0.59237 0.0
O76 O 0.41909 0.36596 0.65744 0.0
H77 H 0.3733 0.31105 0.68412 0.0
H78 H 0.37998 0.3861 0.66936 0.0
H79 H 0.42514 0.20429 0.63061 0.0
H80 H 0.48573 0.35409 0.59952 0.0
H81 H 0.44741 0.19742 0.60155 0.0
H82 H 0.52141 0.33154 0.61229 0.0
O83 O 0.38865 0.28433 0.62939 0.0
H84 H 0.3801 0.402 0.6052 0.0
H85 H 0.34163 0.34557 0.64923 0.0
H86 H 0.31543 0.37114 0.62947 0.0
H87 H 0.33467 0.3996 0.60726 0.0
H88 H 0.40561 0.37598 0.62513 0.0
H89 H 0.35757 0.39847 0.69707 0.0
H90 H 0.34266 0.36657 0.71854 0.0
O91 O 0.37215 0.31071 0.64955 0.0
C92 C 0.4286 0.29712 0.66594 0.0
C93 C 0.35698 0.33664 0.70264 0.0
C94 C 0.36089 0.37924 0.69431 0.0
N95 N 0.37771 0.34787 0.67505 0.0
C96 C 0.36973 0.33022 0.68685 0.0
C97 C 0.37359 0.37213 0.67866 0.0
C98 C 0.35252 0.36133 0.70635 0.0
C99 C 0.45929 0.32837 0.61011 0.0
N100 N 0.45565 0.30738 0.61992 0.0
C101 C 0.48296 0.33738 0.60721 0.0
C102 C 0.50297 0.32474 0.61441 0.0
C103 C 0.49911 0.30332 0.62437 0.0
C104 C 0.47518 0.29489 0.62704 0.0
C105 C 0.44922 0.23588 0.59503 0.0
C106 C 0.42451 0.24362 0.62746 0.0
C107 C 0.44309 0.25954 0.60078 0.0
N108 N 0.43104 0.26315 0.61687 0.0
C109 C 0.43032 0.2197 0.62215 0.0
C110 C 0.44279 0.21586 0.60583 0.0
C111 C 0.37137 0.29122 0.63992 0.0
C112 C 0.37151 0.38974 0.61488 0.0
C113 C 0.35014 0.35793 0.63961 0.0
C114 C 0.33521 0.37238 0.62847 0.0
C115 C 0.34601 0.38836 0.61602 0.0
N116 N 0.37513 0.3594 0.63841 0.0
C117 C 0.38586 0.37505 0.62626 0.0
Co118 Co 0.19267 0.41886 0.13173 0.0
Co119 Co 0.14896 0.39395 0.16041 0.0
O120 O 0.15882 0.41181 0.13864 0.0
C121 C 0.17114 0.39132 0.10137 0.0
O122 O 0.16203 0.37672 0.11384 0.0
C123 C 0.12463 0.44159 0.16314 0.0
O124 O 0.14616 0.4511 0.15936 0.0
O125 O 0.17107 0.41403 0.17573 0.0
O126 O 0.20133 0.42784 0.1575 0.0
H127 H 0.16267 0.34935 0.21939 0.0
H128 H 0.15169 0.44217 0.11155 0.0
O129 O 0.18455 0.4095 0.10591 0.0
H130 H 0.19961 0.51067 0.13723 0.0
H131 H 0.25795 0.45238 0.09017 0.0
H132 H 0.24163 0.40836 0.14754 0.0
H133 H 0.21259 0.4678 0.1422 0.0
H134 H 0.21545 0.44379 0.09987 0.0
O135 O 0.12214 0.41842 0.16431 0.0
H136 H 0.17519 0.37118 0.19149 0.0
H137 H 0.10055 0.38009 0.17621 0.0
H138 H 0.28441 0.41673 0.13845 0.0
H139 H 0.13813 0.48476 0.10615 0.0
H140 H 0.29277 0.43889 0.10957 0.0
H141 H 0.16212 0.51935 0.1191 0.0
O142 O 0.20273 0.38456 0.13657 0.0
H143 H 0.0842 0.38039 0.11276 0.0
H144 H 0.14009 0.34023 0.15636 0.0
H145 H 0.11325 0.31482 0.13698 0.0
H146 H 0.08501 0.33492 0.11502 0.0
H147 H 0.11158 0.40508 0.13222 0.0
H148 H 0.08719 0.35849 0.20401 0.0
H149 H 0.11838 0.34288 0.2258 0.0
O150 O 0.17585 0.36946 0.15692 0.0
C151 C 0.19118 0.42543 0.17309 0.0
C152 C 0.14891 0.35597 0.20997 0.0
C153 C 0.10655 0.36113 0.20135 0.0
N154 N 0.13863 0.37663 0.18214 0.0
C155 C 0.15589 0.36826 0.19412 0.0
C156 C 0.11421 0.37336 0.18564 0.0
C157 C 0.12405 0.35237 0.21356 0.0
C158 C 0.16237 0.45714 0.11706 0.0
N159 N 0.18299 0.45253 0.12707 0.0
C160 C 0.15454 0.48121 0.11403 0.0
C161 C 0.16799 0.50061 0.12132 0.0
C162 C 0.18902 0.49575 0.1315 0.0
C163 C 0.19626 0.47145 0.13429 0.0
C164 C 0.25454 0.44278 0.10281 0.0
C165 C 0.24514 0.41821 0.13504 0.0
C166 C 0.23053 0.43785 0.10836 0.0
N167 N 0.22609 0.42585 0.12436 0.0
C168 C 0.26939 0.4228 0.12993 0.0
C169 C 0.27407 0.43521 0.11371 0.0
C170 C 0.19522 0.36773 0.14724 0.0
C171 C 0.09636 0.37143 0.12233 0.0
C172 C 0.12792 0.3491 0.14679 0.0
C173 C 0.11272 0.33462 0.13588 0.0
C174 C 0.09686 0.34591 0.12357 0.0
N175 N 0.12731 0.37412 0.14548 0.0
C176 C 0.11182 0.38531 0.13344 0.0
Co177 Co 0.08658 0.18962 0.62881 0.0
Co178 Co 0.09978 0.13874 0.65523 0.0
O179 O 0.08301 0.15506 0.63514 0.0
C180 C 0.10221 0.16181 0.59664 0.0
O181 O 0.11333 0.14718 0.60815 0.0
C182 C 0.04722 0.1323 0.66228 0.0
O183 O 0.04492 0.15591 0.65923 0.0
O184 O 0.09149 0.16588 0.67208 0.0
O185 O 0.08378 0.19941 0.65511 0.0
H186 H 0.1557 0.13336 0.70946 0.0
H187 H 0.04911 0.15939 0.61007 0.0
O188 O 0.0901 0.1803 0.6024 0.0
H189 H 0.00294 0.2256 0.64049 0.0
H190 H 0.07165 0.26428 0.59004 0.0
H191 H 0.11395 0.23176 0.64427 0.0
H192 H 0.0481 0.22381 0.64261 0.0
H193 H 0.06704 0.22081 0.59884 0.0
O194 O 0.06828 0.12215 0.66161 0.0
H195 H 0.13522 0.15397 0.6837 0.0
H196 H 0.09817 0.08792 0.6701 0.0
H197 H 0.11892 0.27538 0.63607 0.0
H198 H 0.00396 0.16053 0.60752 0.0
H199 H 0.09768 0.29189 0.60877 0.0
H200 H 0.98059 0.19378 0.62285 0.0
O201 O 0.12267 0.18771 0.63125 0.0
H202 H 0.08175 0.07576 0.60707 0.0
H203 H 0.14578 0.11155 0.64638 0.0
H204 H 0.15673 0.07851 0.6249 0.0
H205 H 0.12458 0.06039 0.60506 0.0
H206 H 0.07164 0.10898 0.62861 0.0
H207 H 0.11808 0.06663 0.69581 0.0
H208 H 0.14716 0.08936 0.71564 0.0
O209 O 0.13143 0.15537 0.64917 0.0
C210 C 0.08609 0.18853 0.67045 0.0
C211 C 0.14316 0.12322 0.70086 0.0
C212 C 0.12202 0.08578 0.69321 0.0
N213 N 0.11578 0.12207 0.67529 0.0
C214 C 0.13159 0.13477 0.68622 0.0
C215 C 0.11078 0.09793 0.6787 0.0
C216 C 0.13833 0.09854 0.70434 0.0
C217 C 0.03906 0.17405 0.61662 0.0
N218 N 0.05121 0.1916 0.62637 0.0
C219 C 0.01351 0.17455 0.6152 0.0
C220 C 0.0004 0.19319 0.62382 0.0
C221 C 0.01293 0.21104 0.63373 0.0
C222 C 0.03849 0.20992 0.6349 0.0
C223 C 0.08095 0.25732 0.60199 0.0
C224 C 0.1045 0.23887 0.63246 0.0
C225 C 0.07843 0.23273 0.60702 0.0
N226 N 0.09001 0.22386 0.62215 0.0
C227 C 0.10745 0.26356 0.62784 0.0
C228 C 0.09555 0.2728 0.61251 0.0
C229 C 0.13775 0.1739 0.63965 0.0
C230 C 0.0959 0.08346 0.61569 0.0
C231 C 0.1317 0.10378 0.63777 0.0
C232 C 0.138 0.08505 0.62566 0.0
C233 C 0.11995 0.07487 0.61455 0.0
N234 N 0.10807 0.11211 0.63881 0.0
C235 C 0.09026 0.10219 0.62797 0.0
Co236 Co 0.3173 0.41272 0.38017 0.0
Co237 Co 0.35561 0.38177 0.3505 0.0
O238 O 0.34938 0.40096 0.37236 0.0
C239 C 0.33549 0.38167 0.40985 0.0
O240 O 0.34067 0.36573 0.39703 0.0
C241 C 0.38537 0.4259 0.34648 0.0
O242 O 0.36537 0.43789 0.35097 0.0
O243 O 0.33524 0.40427 0.33561 0.0
O244 O 0.30878 0.42298 0.35467 0.0
H245 H 0.33311 0.33836 0.29251 0.0
H246 H 0.36215 0.42977 0.39925 0.0
O247 O 0.32542 0.40208 0.40571 0.0
H248 H 0.32328 0.5046 0.37486 0.0
H249 H 0.25968 0.45492 0.42361 0.0
H250 H 0.26659 0.40976 0.36565 0.0
H251 H 0.3041 0.46407 0.37024 0.0
H252 H 0.29996 0.44028 0.41272 0.0
O253 O 0.38509 0.40257 0.34551 0.0
H254 H 0.32501 0.36213 0.32046 0.0
H255 H 0.40094 0.36156 0.33349 0.0
H256 H 0.22598 0.42423 0.37594 0.0
H257 H 0.38187 0.46994 0.40429 0.0
H258 H 0.22235 0.44698 0.40511 0.0
H259 H 0.36245 0.5077 0.392 0.0
O260 O 0.30207 0.38027 0.37554 0.0
H261 H 0.41976 0.36074 0.3971 0.0
H262 H 0.35791 0.32742 0.35479 0.0
H263 H 0.38183 0.29908 0.37406 0.0
H264 H 0.413 0.31572 0.39541 0.0
H265 H 0.39532 0.38843 0.37768 0.0
H266 H 0.40991 0.33794 0.30561 0.0
H267 H 0.37583 0.3261 0.28494 0.0
O268 O 0.32606 0.36108 0.35505 0.0
C269 C 0.31724 0.41864 0.33874 0.0
C270 C 0.3481 0.34332 0.30145 0.0
C271 C 0.39121 0.34311 0.30879 0.0
N272 N 0.36244 0.36296 0.32868 0.0
C273 C 0.34361 0.3567 0.31732 0.0
C274 C 0.38603 0.3565 0.32454 0.0
C275 C 0.37208 0.33647 0.2972 0.0
C276 C 0.35346 0.44615 0.39403 0.0
N277 N 0.33193 0.44461 0.38457 0.0
C278 C 0.36477 0.46883 0.39686 0.0
C279 C 0.35387 0.49001 0.38993 0.0
C280 C 0.3319 0.48828 0.3803 0.0
C281 C 0.32115 0.46528 0.37771 0.0
C282 C 0.26103 0.44509 0.41084 0.0
C283 C 0.26517 0.41983 0.37829 0.0
C284 C 0.28378 0.43673 0.40463 0.0
N285 N 0.28563 0.42443 0.38848 0.0
C286 C 0.24212 0.42789 0.38408 0.0
C287 C 0.2401 0.44063 0.40046 0.0
C288 C 0.30687 0.36234 0.36497 0.0
C289 C 0.40629 0.35326 0.38781 0.0
C290 C 0.37146 0.33479 0.36404 0.0
C291 C 0.38496 0.31866 0.3749 0.0
C292 C 0.40246 0.32801 0.38687 0.0
N293 N 0.37533 0.35954 0.36504 0.0
C294 C 0.39248 0.36884 0.37671 0.0
Co295 Co 0.09635 0.31686 0.88117 0.0
Co296 Co 0.11286 0.36801 0.8561 0.0
O297 O 0.09459 0.35179 0.87552 0.0
C298 C 0.11296 0.34274 0.91401 0.0
O299 O 0.12443 0.35771 0.90296 0.0
C300 C 0.06098 0.37612 0.84738 0.0
O301 O 0.05778 0.35266 0.85062 0.0
O302 O 0.10481 0.34141 0.8386 0.0
O303 O 0.09297 0.30837 0.85474 0.0
H304 H 0.17246 0.37282 0.80404 0.0
H305 H 0.06062 0.34842 0.90063 0.0
O306 O 0.1004 0.32487 0.90777 0.0
H307 H 0.01085 0.28608 0.86894 0.0
H308 H 0.07738 0.24162 0.91831 0.0
H309 H 0.12119 0.27384 0.86466 0.0
H310 H 0.05602 0.28544 0.86674 0.0
H311 H 0.07521 0.28562 0.91051 0.0
O312 O 0.08223 0.38566 0.84883 0.0
H313 H 0.14987 0.35235 0.82886 0.0
H314 H 0.11336 0.41906 0.84161 0.0
H315 H 0.12372 0.22969 0.87186 0.0
H316 H 0.0155 0.34967 0.90329 0.0
H317 H 0.1017 0.21332 0.89886 0.0
H318 H 0.9903 0.31838 0.88732 0.0
O319 O 0.13253 0.31671 0.87864 0.0
H320 H 0.09373 0.43041 0.90444 0.0
H321 H 0.15898 0.39379 0.86664 0.0
H322 H 0.16954 0.42609 0.88883 0.0
H323 H 0.13678 0.44462 0.90791 0.0
H324 H 0.08401 0.39795 0.88219 0.0
H325 H 0.13541 0.44022 0.81683 0.0
H326 H 0.16528 0.41707 0.7979 0.0
O327 O 0.14358 0.35038 0.863 0.0
C328 C 0.09731 0.31928 0.83968 0.0
C329 C 0.15956 0.38313 0.81224 0.0
C330 C 0.13874 0.42095 0.8194 0.0
N331 N 0.1305 0.38456 0.83677 0.0
C332 C 0.14678 0.37165 0.82635 0.0
C333 C 0.12628 0.40887 0.83339 0.0
C334 C 0.1555 0.40795 0.80879 0.0
C335 C 0.04978 0.3346 0.8938 0.0
N336 N 0.06093 0.31678 0.88365 0.0
C337 C 0.02424 0.33546 0.89529 0.0
C338 C 0.01011 0.31792 0.88631 0.0
C339 C 0.02163 0.2998 0.87599 0.0
C340 C 0.04721 0.29954 0.87477 0.0
C341 C 0.08701 0.24852 0.90648 0.0
C342 C 0.11142 0.26681 0.87636 0.0
C343 C 0.08588 0.27341 0.90202 0.0
N344 N 0.09788 0.28222 0.88706 0.0
C345 C 0.11299 0.24182 0.8804 0.0
C346 C 0.10065 0.23265 0.89557 0.0
C347 C 0.14866 0.33055 0.87141 0.0
C348 C 0.10816 0.42254 0.89616 0.0
C349 C 0.14463 0.40176 0.87491 0.0
C350 C 0.15071 0.42007 0.88743 0.0
C351 C 0.13232 0.43047 0.89812 0.0
N352 N 0.12089 0.39408 0.87306 0.0
C353 C 0.10274 0.40423 0.88348 0.0
Co354 Co 0.17616 0.09374 0.37572 0.0
Co355 Co 0.12626 0.10954 0.34904 0.0
O356 O 0.14163 0.0916 0.36902 0.0
C357 C 0.1484 0.11019 0.40777 0.0
O358 O 0.13386 0.12137 0.39622 0.0
C359 C 0.11989 0.05757 0.34025 0.0
O360 O 0.14326 0.0551 0.3441 0.0
O361 O 0.15387 0.10179 0.33243 0.0
O362 O 0.18621 0.09048 0.34953 0.0
H363 H 0.12341 0.16796 0.29617 0.0
H364 H 0.14408 0.05757 0.39414 0.0
O365 O 0.16666 0.0977 0.40205 0.0
H366 H 0.20888 0.00869 0.3644 0.0
H367 H 0.24958 0.07592 0.41513 0.0
H368 H 0.2196 0.11932 0.36058 0.0
H369 H 0.20901 0.05388 0.36228 0.0
H370 H 0.2061 0.073 0.40596 0.0
O371 O 0.10961 0.07853 0.34141 0.0
H372 H 0.1429 0.14603 0.32175 0.0
H373 H 0.07594 0.10934 0.33324 0.0
H374 H 0.26325 0.12262 0.36917 0.0
H375 H 0.1433 0.01242 0.39669 0.0
H376 H 0.27849 0.10081 0.39663 0.0
H377 H 0.17584 0.98768 0.3817 0.0
O378 O 0.17577 0.12987 0.37328 0.0
H379 H 0.06147 0.08992 0.39548 0.0
H380 H 0.09936 0.15541 0.35867 0.0
H381 H 0.06575 0.16571 0.37984 0.0
H382 H 0.04658 0.13282 0.39843 0.0
H383 H 0.09525 0.08047 0.37426 0.0
H384 H 0.05575 0.13071 0.30769 0.0
H385 H 0.07952 0.16034 0.28901 0.0
O386 O 0.14313 0.14062 0.35625 0.0
C387 C 0.17603 0.09463 0.33415 0.0
C388 C 0.11283 0.1552 0.30427 0.0
C389 C 0.07486 0.13426 0.31072 0.0
N390 N 0.11047 0.12672 0.32912 0.0
C391 C 0.12373 0.14282 0.31882 0.0
C392 C 0.08639 0.12221 0.32516 0.0
C393 C 0.08821 0.15089 0.30025 0.0
C394 C 0.15843 0.04692 0.38774 0.0
N395 N 0.17665 0.05833 0.37818 0.0
C396 C 0.15784 0.02137 0.38916 0.0
C397 C 0.17608 0.0075 0.38073 0.0
C398 C 0.19462 0.01927 0.37101 0.0
C399 C 0.19459 0.04486 0.36985 0.0
C400 C 0.24317 0.08545 0.40311 0.0
C401 C 0.22615 0.10963 0.37247 0.0
C402 C 0.21858 0.08389 0.39787 0.0
N403 N 0.21041 0.09578 0.38266 0.0
C404 C 0.25086 0.11164 0.3773 0.0
C405 C 0.25939 0.09942 0.39272 0.0
C406 C 0.16221 0.14582 0.36555 0.0
C407 C 0.06963 0.10439 0.38742 0.0
C408 C 0.09112 0.14101 0.36673 0.0
C409 C 0.07207 0.14694 0.37867 0.0
C410 C 0.06131 0.12848 0.38908 0.0
N411 N 0.09918 0.11734 0.36517 0.0
C412 C 0.08868 0.09913 0.37531 0.0
Co413 Co 0.42189 0.18377 0.87712 0.0
Co414 Co 0.38596 0.14531 0.85085 0.0
O415 O 0.40799 0.15185 0.87108 0.0
C416 C 0.39273 0.16875 0.90871 0.0
O417 O 0.37547 0.16412 0.89676 0.0
C418 C 0.42852 0.11389 0.84446 0.0
O419 O 0.44166 0.13352 0.84786 0.0
O420 O 0.40717 0.16423 0.834 0.0
O421 O 0.43011 0.19015 0.85086 0.0
H422 H 0.33577 0.16699 0.79578 0.0
H423 H 0.43857 0.13926 0.89688 0.0
O424 O 0.41324 0.17757 0.90341 0.0
H425 H 0.51268 0.17281 0.86749 0.0
H426 H 0.47063 0.24159 0.91639 0.0
H427 H 0.42017 0.23364 0.86098 0.0
H428 H 0.47273 0.19369 0.86419 0.0
H429 H 0.45308 0.20154 0.90765 0.0
O430 O 0.40519 0.11495 0.84514 0.0
H431 H 0.36322 0.1754 0.82174 0.0
H432 H 0.36255 0.09998 0.83631 0.0
H433 H 0.43751 0.274 0.86911 0.0
H434 H 0.47816 0.11789 0.90064 0.0
H435 H 0.46294 0.27815 0.897 0.0
H436 H 0.51556 0.13463 0.88584 0.0
O437 O 0.38988 0.20049 0.87356 0.0
H438 H 0.36928 0.08423 0.90054 0.0
H439 H 0.33229 0.14467 0.85878 0.0
H440 H 0.30592 0.12263 0.88063 0.0
H441 H 0.32442 0.09218 0.90172 0.0
H442 H 0.39499 0.10679 0.87855 0.0
H443 H 0.33524 0.09071 0.81042 0.0
H444 H 0.32159 0.12438 0.78999 0.0
O445 O 0.36675 0.17567 0.85613 0.0
C446 C 0.42315 0.18121 0.8356 0.0
C447 C 0.34151 0.15218 0.80462 0.0
C448 C 0.34124 0.10936 0.81283 0.0
N449 N 0.36427 0.13824 0.83061 0.0
C450 C 0.35699 0.15684 0.81938 0.0
C451 C 0.35674 0.11471 0.82744 0.0
C452 C 0.33359 0.12826 0.80137 0.0
C453 C 0.45481 0.14679 0.89055 0.0
N454 N 0.45338 0.16778 0.88043 0.0
C455 C 0.47716 0.13455 0.89266 0.0
C456 C 0.49812 0.14394 0.88433 0.0
C457 C 0.49652 0.16535 0.87403 0.0
C458 C 0.47385 0.17708 0.87219 0.0
C459 C 0.45964 0.24 0.90417 0.0
C460 C 0.4314 0.23528 0.87305 0.0
C461 C 0.44963 0.21739 0.89918 0.0
N462 N 0.43585 0.21524 0.88372 0.0
C463 C 0.44108 0.25819 0.87762 0.0
C464 C 0.45532 0.26051 0.89329 0.0
C465 C 0.37027 0.19565 0.86482 0.0
C466 C 0.36099 0.09739 0.89138 0.0
C467 C 0.34046 0.13143 0.86791 0.0
C468 C 0.32544 0.11898 0.88023 0.0
C469 C 0.33583 0.10189 0.89205 0.0
N470 N 0.36513 0.12693 0.86734 0.0
C471 C 0.37544 0.11014 0.87885 0.0
Co472 Co 0.66448 0.90566 0.87414 0.0
Co473 Co 0.62102 0.87482 0.84852 0.0
O474 O 0.63075 0.89663 0.86827 0.0
C475 C 0.64441 0.88221 0.90687 0.0
O476 O 0.63492 0.86595 0.89577 0.0
C477 C 0.59641 0.92135 0.841 0.0
O478 O 0.61789 0.9315 0.84388 0.0
O479 O 0.64304 0.89195 0.8312 0.0
O480 O 0.6722 0.91104 0.84767 0.0
H481 H 0.63499 0.8195 0.79478 0.0
H482 H 0.62321 0.93054 0.8929 0.0
O483 O 0.65732 0.89988 0.90071 0.0
H484 H 0.66824 0.99626 0.8611 0.0
H485 H 0.72957 0.94719 0.91171 0.0
H486 H 0.71337 0.89461 0.8584 0.0
H487 H 0.68255 0.95335 0.85947 0.0
H488 H 0.68717 0.93579 0.90347 0.0
O489 O 0.59399 0.89816 0.84216 0.0
H490 H 0.64739 0.84655 0.82009 0.0
H491 H 0.5727 0.85782 0.83436 0.0
H492 H 0.75604 0.9057 0.86605 0.0
H493 H 0.60833 0.97322 0.89498 0.0
H494 H 0.76435 0.93218 0.89287 0.0
H495 H 0.63087 0.00641 0.87895 0.0
O496 O 0.67558 0.87117 0.87203 0.0
H497 H 0.55694 0.86999 0.89757 0.0
H498 H 0.61244 0.82232 0.85802 0.0
H499 H 0.58605 0.80066 0.88007 0.0
H500 H 0.55805 0.82455 0.90003 0.0
H501 H 0.58378 0.89092 0.87545 0.0
H502 H 0.55947 0.83104 0.80912 0.0
H503 H 0.59074 0.8116 0.78917 0.0
O504 O 0.64808 0.85143 0.85449 0.0
C505 C 0.66243 0.90493 0.8325 0.0
C506 C 0.6212 0.82778 0.80342 0.0
C507 C 0.5788 0.83428 0.81146 0.0
N508 N 0.6108 0.8535 0.8288 0.0
C509 C 0.62811 0.84304 0.81781 0.0
C510 C 0.5864 0.84945 0.82571 0.0
C511 C 0.59636 0.82338 0.80027 0.0
C512 C 0.63325 0.94492 0.88605 0.0
N513 N 0.6538 0.9395 0.87618 0.0
C514 C 0.62468 0.96904 0.88721 0.0
C515 C 0.63732 0.98765 0.87819 0.0
C516 C 0.65828 0.98196 0.86816 0.0
C517 C 0.66628 0.95764 0.86727 0.0
C518 C 0.72619 0.93569 0.89996 0.0
C519 C 0.71685 0.90629 0.87002 0.0
C520 C 0.70223 0.92915 0.89525 0.0
N521 N 0.69782 0.91476 0.88037 0.0
C522 C 0.74104 0.91244 0.87431 0.0
C523 C 0.74569 0.92727 0.88938 0.0
C524 C 0.66794 0.85215 0.86368 0.0
C525 C 0.569 0.85938 0.8889 0.0
C526 C 0.60031 0.83284 0.86667 0.0
C527 C 0.58539 0.82047 0.87911 0.0
C528 C 0.56966 0.83388 0.8903 0.0
N529 N 0.59954 0.85785 0.86538 0.0
C530 C 0.58415 0.87112 0.87629 0.0
Co531 Co 0.58776 0.67013 0.37643 0.0
Co532 Co 0.61794 0.62747 0.34971 0.0
O533 O 0.5975 0.63672 0.37033 0.0
C534 C 0.61487 0.65178 0.40814 0.0
O535 O 0.63123 0.64441 0.39624 0.0
C536 C 0.57195 0.60107 0.3444 0.0
O537 O 0.56127 0.62222 0.34761 0.0
O538 O 0.59849 0.64846 0.33307 0.0
O539 O 0.58034 0.67765 0.35016 0.0
H540 H 0.66761 0.64244 0.29317 0.0
H541 H 0.5656 0.62821 0.39624 0.0
O542 O 0.59564 0.66304 0.40273 0.0
H543 H 0.4963 0.67099 0.36694 0.0
H544 H 0.54685 0.73383 0.41567 0.0
H545 H 0.59602 0.71937 0.36034 0.0
H546 H 0.53856 0.68655 0.36357 0.0
H547 H 0.55907 0.69182 0.40693 0.0
O548 O 0.59526 0.59942 0.3447 0.0
H549 H 0.64238 0.65431 0.31963 0.0
H550 H 0.63585 0.57959 0.33533 0.0
H551 H 0.58405 0.76165 0.36847 0.0
H552 H 0.52361 0.6121 0.40007 0.0
H553 H 0.55928 0.76908 0.39632 0.0
H554 H 0.48862 0.6335 0.3853 0.0
O555 O 0.62165 0.68242 0.37285 0.0
H556 H 0.62966 0.56523 0.39941 0.0
H557 H 0.67145 0.62121 0.35676 0.0
H558 H 0.69605 0.59653 0.37821 0.0
H559 H 0.67513 0.56831 0.39974 0.0
H560 H 0.60577 0.59037 0.37782 0.0
H561 H 0.66087 0.56687 0.30896 0.0
H562 H 0.67701 0.59843 0.28771 0.0
O563 O 0.64057 0.65558 0.35425 0.0
C564 C 0.58537 0.66771 0.33481 0.0
C565 C 0.66078 0.62852 0.30238 0.0
C566 C 0.65697 0.58611 0.31123 0.0
N567 N 0.63792 0.61768 0.32912 0.0
C568 C 0.64657 0.63514 0.31742 0.0
C569 C 0.6428 0.59341 0.32612 0.0
C570 C 0.66602 0.60383 0.29931 0.0
C571 C 0.55043 0.63776 0.38993 0.0
N572 N 0.55449 0.65837 0.37979 0.0
C573 C 0.52672 0.62849 0.39208 0.0
C574 C 0.50709 0.64049 0.38377 0.0
C575 C 0.51139 0.66152 0.37345 0.0
C576 C 0.53536 0.67022 0.37157 0.0
C577 C 0.55758 0.73082 0.40347 0.0
C578 C 0.58507 0.72246 0.37239 0.0
C579 C 0.56457 0.70709 0.39847 0.0
N580 N 0.578 0.70316 0.38304 0.0
C581 C 0.57843 0.74644 0.37697 0.0
C582 C 0.56456 0.75059 0.39261 0.0
C583 C 0.64 0.67548 0.3634 0.0
C584 C 0.63899 0.5774 0.39005 0.0
C585 C 0.66223 0.60895 0.36608 0.0
C586 C 0.67625 0.59501 0.37818 0.0
C587 C 0.6645 0.57916 0.39025 0.0
N588 N 0.63721 0.60711 0.36597 0.0
C589 C 0.62556 0.59158 0.37774 0.0
Co590 Co 0.81002 0.58168 0.88067 0.0
Co591 Co 0.85479 0.60247 0.85111 0.0
O592 O 0.84389 0.58437 0.87249 0.0
C593 C 0.83667 0.60557 0.91055 0.0
O594 O 0.84669 0.61901 0.89775 0.0
C595 C 0.86924 0.55152 0.84464 0.0
O596 O 0.84674 0.54587 0.8494 0.0
O597 O 0.82794 0.58861 0.83614 0.0
O598 O 0.7985 0.57499 0.85511 0.0
H599 H 0.84459 0.65521 0.79552 0.0
H600 H 0.84877 0.5523 0.89878 0.0
O601 O 0.82113 0.58898 0.9063 0.0
H602 H 0.79034 0.49192 0.87389 0.0
H603 H 0.74378 0.55578 0.92432 0.0
H604 H 0.76186 0.59894 0.86687 0.0
H605 H 0.78294 0.53632 0.87021 0.0
H606 H 0.78634 0.55901 0.91307 0.0
O607 O 0.87607 0.57389 0.8444 0.0
H608 H 0.83062 0.63297 0.82287 0.0
H609 H 0.90342 0.6089 0.83327 0.0
H610 H 0.71902 0.59598 0.87752 0.0
H611 H 0.85682 0.50808 0.90286 0.0
H612 H 0.70977 0.57426 0.90645 0.0
H613 H 0.82751 0.47756 0.89031 0.0
O614 O 0.80439 0.61721 0.87684 0.0
H615 H 0.92432 0.59881 0.89596 0.0
H616 H 0.87402 0.653 0.85724 0.0
H617 H 0.90641 0.67094 0.87655 0.0
H618 H 0.93182 0.64376 0.8961 0.0
H619 H 0.89162 0.58167 0.87655 0.0
H620 H 0.91818 0.63071 0.80594 0.0
H621 H 0.88867 0.65416 0.78691 0.0
O622 O 0.83328 0.63096 0.85744 0.0
C623 C 0.80709 0.57879 0.83915 0.0
C624 C 0.85765 0.64516 0.80375 0.0
C625 C 0.89894 0.63138 0.80959 0.0
N626 N 0.86624 0.61994 0.82976 0.0
C627 C 0.84986 0.63262 0.81929 0.0
C628 C 0.89048 0.61905 0.82503 0.0
C629 C 0.88238 0.64453 0.79892 0.0
C630 C 0.83582 0.53912 0.89345 0.0
N631 N 0.81535 0.54686 0.88437 0.0
C632 C 0.84052 0.51411 0.89573 0.0
C633 C 0.82408 0.49699 0.88866 0.0
C634 C 0.80323 0.50504 0.87944 0.0
C635 C 0.79915 0.5302 0.87738 0.0
C636 C 0.74757 0.56523 0.91167 0.0
C637 C 0.75794 0.58931 0.8794 0.0
C638 C 0.77162 0.56715 0.90526 0.0
N639 N 0.77651 0.57894 0.88925 0.0
C640 C 0.73367 0.58776 0.88539 0.0
C641 C 0.72849 0.5756 0.90163 0.0
C642 C 0.81439 0.63414 0.86746 0.0
C643 C 0.91342 0.61083 0.88746 0.0
C644 C 0.885 0.64106 0.86571 0.0
C645 C 0.90334 0.65132 0.8766 0.0
C646 C 0.9176 0.63606 0.88755 0.0
N647 N 0.88103 0.6163 0.8657 0.0
C648 C 0.89496 0.60121 0.87638 0.0
Co649 Co 0.91179 0.81062 0.3806 0.0
Co650 Co 0.89336 0.8572 0.35172 0.0
O651 O 0.91077 0.84483 0.37299 0.0
C652 C 0.88837 0.83737 0.41064 0.0
O653 O 0.87559 0.84826 0.39785 0.0
C654 C 0.945 0.86883 0.34534 0.0
O655 O 0.94954 0.84621 0.35042 0.0
O656 O 0.90577 0.82996 0.33643 0.0
O657 O 0.91861 0.79963 0.35493 0.0
H658 H 0.84037 0.85116 0.29592 0.0
H659 H 0.94239 0.84741 0.39979 0.0
O660 O 0.9044 0.82127 0.40633 0.0
H661 H 0.00074 0.78702 0.3747 0.0
H662 H 0.93364 0.74191 0.42339 0.0
H663 H 0.89284 0.76373 0.3657 0.0
H664 H 0.95616 0.78185 0.37023 0.0
H665 H 0.93258 0.78491 0.41287 0.0
O666 O 0.92303 0.87689 0.34517 0.0
H667 H 0.86172 0.83538 0.32312 0.0
H668 H 0.88957 0.90651 0.3345 0.0
H669 H 0.89362 0.72048 0.37562 0.0
H670 H 0.98681 0.85321 0.40469 0.0
H671 H 0.91414 0.70934 0.40467 0.0
H672 H 0.01631 0.82291 0.39204 0.0
O673 O 0.87614 0.80665 0.37621 0.0
H674 H 0.90086 0.92542 0.3974 0.0
H675 H 0.84396 0.87913 0.35808 0.0
H676 H 0.82785 0.91207 0.3778 0.0
H677 H 0.85639 0.93546 0.39764 0.0
H678 H 0.91616 0.89223 0.37757 0.0
H679 H 0.86869 0.92306 0.30733 0.0
H680 H 0.84379 0.89531 0.28788 0.0
O681 O 0.86376 0.83722 0.35775 0.0
C682 C 0.915 0.80876 0.3391 0.0
C683 C 0.85106 0.86346 0.30434 0.0
C684 C 0.86699 0.90381 0.31073 0.0
N685 N 0.87658 0.87008 0.33051 0.0
C686 C 0.8631 0.85465 0.3198 0.0
C687 C 0.87878 0.89434 0.32608 0.0
C688 C 0.85302 0.88823 0.29982 0.0
C689 C 0.95512 0.83403 0.39441 0.0
N690 N 0.94671 0.81424 0.38484 0.0
C691 C 0.98024 0.83746 0.39716 0.0
C692 C -0.00321 0.82047 0.39004 0.0
C693 C 0.98806 0.80033 0.3803 0.0
C694 C 0.96281 0.79751 0.37779 0.0
C695 C 0.9247 0.74652 0.41069 0.0
C696 C 0.90196 0.75898 0.37828 0.0
C697 C 0.92401 0.77083 0.40468 0.0
N698 N 0.91287 0.77675 0.38861 0.0
C699 C 0.90227 0.73449 0.38386 0.0
C700 C 0.91376 0.72826 0.40017 0.0
C701 C 0.85971 0.81794 0.36713 0.0
C702 C 0.88825 0.91541 0.38877 0.0
C703 C 0.85649 0.88924 0.36668 0.0
C704 C 0.84726 0.90788 0.3778 0.0
C705 C 0.86329 0.92101 0.38892 0.0
N706 N 0.88099 0.88387 0.36661 0.0
C707 C 0.89683 0.89667 0.37746 0.0
Co708 Co 0.68527 0.58321 0.62969 0.0
Co709 Co 0.63788 0.60736 0.6553 0.0
O710 O 0.65069 0.58909 0.63464 0.0
C711 C 0.66607 0.60928 0.59776 0.0
O712 O 0.65662 0.62463 0.6096 0.0
C713 C 0.61634 0.55854 0.65794 0.0
O714 O 0.63882 0.55046 0.6557 0.0
O715 O 0.65959 0.5894 0.67235 0.0
O716 O 0.69183 0.57564 0.65608 0.0
H717 H 0.64321 0.65566 0.71343 0.0
H718 H 0.64727 0.55737 0.60803 0.0
O719 O 0.67897 0.59118 0.6033 0.0
H720 H 0.69546 0.49205 0.63774 0.0
H721 H 0.75552 0.55095 0.59223 0.0
H722 H 0.7322 0.5961 0.64778 0.0
H723 H 0.70618 0.53561 0.64229 0.0
H724 H 0.71192 0.55823 0.59956 0.0
O725 O 0.61214 0.58154 0.65844 0.0
H726 H 0.65967 0.63316 0.68696 0.0
H727 H 0.58737 0.61916 0.66807 0.0
H728 H 0.77601 0.58907 0.64107 0.0
H729 H 0.63601 0.51406 0.60303 0.0
H730 H 0.7879 0.56634 0.61311 0.0
H731 H 0.66013 0.48105 0.618 0.0
O732 O 0.69346 0.6181 0.63433 0.0
H733 H 0.57855 0.61508 0.60324 0.0
H734 H 0.6264 0.66024 0.64933 0.0
H735 H 0.60086 0.68322 0.62746 0.0
H736 H 0.57673 0.66061 0.60419 0.0
H737 H 0.60445 0.59284 0.6253 0.0
H738 H 0.57009 0.64136 0.6944 0.0
H739 H 0.59811 0.65988 0.71727 0.0
O740 O 0.66371 0.63306 0.65249 0.0
C741 C 0.68033 0.57868 0.6711 0.0
C742 C 0.63082 0.64777 0.70352 0.0
C743 C 0.58978 0.63971 0.69285 0.0
N744 N 0.6245 0.62512 0.67589 0.0
C745 C 0.64003 0.63508 0.68847 0.0
C746 C 0.59966 0.62714 0.67799 0.0
C747 C 0.60551 0.6501 0.70567 0.0
C748 C 0.65803 0.5431 0.61443 0.0
N749 N 0.67745 0.54899 0.62534 0.0
C750 C 0.65149 0.51861 0.61161 0.0
C751 C 0.66501 0.50011 0.62004 0.0
C752 C 0.68483 0.50627 0.63113 0.0
C753 C 0.69079 0.53096 0.63366 0.0
C754 C 0.75057 0.56082 0.60447 0.0
C755 C 0.73724 0.58603 0.63567 0.0
C756 C 0.72593 0.56502 0.60868 0.0
N757 N 0.71955 0.57734 0.62418 0.0
C758 C 0.76207 0.58218 0.6319 0.0
C759 C 0.76873 0.56945 0.6162 0.0
C760 C 0.68403 0.63512 0.64397 0.0
C761 C 0.58891 0.62513 0.61335 0.0
C762 C 0.61592 0.65027 0.63926 0.0
C763 C 0.60148 0.66338 0.62692 0.0
C764 C 0.58793 0.65068 0.61388 0.0
N765 N 0.61679 0.62522 0.63865 0.0
C766 C 0.60352 0.61263 0.62593 0.0
Co767 Co 0.91287 0.68848 0.12838 0.0
Co768 Co 0.88719 0.64294 0.15496 0.0
O769 O 0.90603 0.65431 0.13415 0.0
C770 C 0.88594 0.66859 0.09714 0.0
O771 O 0.87039 0.66047 0.10935 0.0
C772 C 0.93546 0.62037 0.1588 0.0
O773 O 0.94414 0.64239 0.15555 0.0
O774 O 0.90546 0.665 0.17152 0.0
O775 O 0.92076 0.69595 0.15461 0.0
H776 H 0.83834 0.65237 0.21255 0.0
H777 H 0.93749 0.64881 0.10754 0.0
O778 O 0.90454 0.68115 0.10217 0.0
H779 H 0.00433 0.69631 0.13591 0.0
H780 H 0.94692 0.75595 0.08907 0.0
H781 H 0.90158 0.73658 0.14536 0.0
H782 H 0.96111 0.70844 0.14039 0.0
H783 H 0.93838 0.71295 0.09751 0.0
O784 O 0.91236 0.61678 0.15912 0.0
H785 H 0.86158 0.66693 0.18584 0.0
H786 H 0.87394 0.59341 0.16897 0.0
H787 H 0.90989 0.77982 0.13754 0.0
H788 H 0.98045 0.63614 0.10261 0.0
H789 H 0.93272 0.78972 0.10921 0.0
H790 H 0.01421 0.65992 0.1169 0.0
O791 O 0.87828 0.69804 0.13288 0.0
H792 H 0.87886 0.58145 0.10438 0.0
H793 H 0.83414 0.63244 0.14885 0.0
H794 H 0.8109 0.60651 0.1274 0.0
H795 H 0.83329 0.58081 0.10494 0.0
H796 H 0.90137 0.60775 0.12601 0.0
H797 H 0.85099 0.57802 0.19557 0.0
H798 H 0.83292 0.60761 0.21754 0.0
O799 O 0.86213 0.66923 0.15127 0.0
C800 C 0.91708 0.68518 0.16986 0.0
C801 C 0.84603 0.63929 0.20303 0.0
C802 C 0.85316 0.59756 0.19351 0.0
N803 N 0.86883 0.63104 0.17576 0.0
C804 C 0.85913 0.64744 0.18785 0.0
C805 C 0.86615 0.60638 0.17849 0.0
C806 C 0.84302 0.61418 0.20583 0.0
C807 C 0.9521 0.65941 0.11364 0.0
N808 N 0.94682 0.67943 0.12414 0.0
C809 C 0.97638 0.65208 0.11087 0.0
C810 C 0.99531 0.66541 0.11892 0.0
C811 C 0.98978 0.68582 0.1296 0.0
C812 C 0.96528 0.69258 0.1321 0.0
C813 C 0.93702 0.75187 0.10148 0.0
C814 C 0.9117 0.74075 0.13309 0.0
C815 C 0.93211 0.72757 0.1063 0.0
N816 N 0.91974 0.72229 0.122 0.0
C817 C 0.91627 0.76527 0.12869 0.0
C818 C 0.92905 0.77081 0.11278 0.0
C819 C 0.86083 0.6894 0.14249 0.0
C820 C 0.8689 0.5925 0.11414 0.0
C821 C 0.84401 0.62126 0.13914 0.0
C822 C 0.83075 0.60661 0.12704 0.0
C823 C 0.84333 0.59218 0.11445 0.0
N824 N 0.86908 0.62148 0.13875 0.0
C825 C 0.88155 0.60734 0.12648 0.0
Co826 Co 0.79737 0.91793 0.62526 0.0
Co827 Co 0.84364 0.90329 0.6555 0.0
O828 O 0.83135 0.91853 0.63336 0.0
C829 C 0.8256 0.89422 0.59612 0.0
O830 O 0.83599 0.88167 0.60927 0.0
C831 C 0.85572 0.95543 0.65895 0.0
O832 O 0.83279 0.95979 0.65454 0.0
O833 O 0.81634 0.91726 0.66999 0.0
O834 O 0.78531 0.92515 0.65059 0.0
H835 H 0.83742 0.85601 0.71404 0.0
H836 H 0.83352 0.94928 0.60605 0.0
O837 O 0.80913 0.91012 0.5999 0.0
H838 H 0.77022 0.00607 0.62906 0.0
H839 H 0.7292 0.93564 0.58097 0.0
H840 H 0.75085 0.89741 0.63965 0.0
H841 H 0.76661 0.96149 0.63428 0.0
H842 H 0.77186 0.93668 0.59223 0.0
O843 O 0.86347 0.93343 0.66025 0.0
H844 H 0.82173 0.87457 0.6857 0.0
H845 H 0.8929 0.90125 0.67298 0.0
H846 H 0.70793 0.8961 0.62899 0.0
H847 H 0.8378 0.99371 0.60043 0.0
H848 H 0.69689 0.91532 0.59944 0.0
H849 H 0.80602 0.02243 0.61202 0.0
O850 O 0.79467 0.88234 0.63038 0.0
H851 H 0.91186 0.90584 0.60951 0.0
H852 H 0.86551 0.85334 0.65202 0.0
H853 H 0.89841 0.83515 0.63329 0.0
H854 H 0.92182 0.86146 0.61185 0.0
H855 H 0.87871 0.92324 0.62839 0.0
H856 H 0.90935 0.88315 0.70125 0.0
H857 H 0.88154 0.86025 0.72196 0.0
O858 O 0.82364 0.87316 0.65113 0.0
C859 C 0.79448 0.92429 0.66662 0.0
C860 C 0.84975 0.86585 0.70508 0.0
C861 C 0.89011 0.88111 0.69792 0.0
N862 N 0.85644 0.88871 0.67761 0.0
C863 C 0.84098 0.87631 0.68899 0.0
C864 C 0.88069 0.89134 0.68195 0.0
C865 C 0.87449 0.86826 0.70953 0.0
C866 C 0.8195 0.96165 0.61097 0.0
N867 N 0.79977 0.95281 0.62038 0.0
C868 C 0.82207 0.98679 0.60782 0.0
C869 C 0.80425 0.0029 0.61435 0.0
C870 C 0.78416 0.99374 0.62392 0.0
C871 C 0.78223 0.96849 0.62685 0.0
C872 C 0.73377 0.92727 0.59389 0.0
C873 C 0.74613 0.90599 0.62686 0.0
C874 C 0.75789 0.92778 0.60032 0.0
N875 N 0.76375 0.91736 0.61667 0.0
C876 C 0.72182 0.90511 0.62085 0.0
C877 C 0.71565 0.91587 0.60426 0.0
C878 C 0.80545 0.86739 0.64107 0.0
C879 C 0.90184 0.8942 0.61885 0.0
C880 C 0.87562 0.86491 0.64272 0.0
C881 C 0.89425 0.85451 0.63217 0.0
C882 C 0.90739 0.86929 0.62015 0.0
N883 N 0.87029 0.88936 0.64137 0.0
C884 C 0.88312 0.90397 0.62964 0.0
Co885 Co 0.57711 0.79881 0.12582 0.0
Co886 Co 0.59164 0.84738 0.15417 0.0
O887 O 0.57518 0.83319 0.13307 0.0
C888 C 0.59588 0.82726 0.09481 0.0
O889 O 0.60741 0.84064 0.10692 0.0
C890 C 0.53927 0.85666 0.16009 0.0
O891 O 0.53573 0.83347 0.15606 0.0
O892 O 0.5807 0.81998 0.16993 0.0
O893 O 0.57224 0.78788 0.1517 0.0
H894 H 0.64445 0.84644 0.21023 0.0
H895 H 0.54252 0.83221 0.10695 0.0
O896 O 0.58255 0.80923 0.09982 0.0
H897 H 0.49097 0.76737 0.13393 0.0
H898 H 0.56014 0.72718 0.08445 0.0
H899 H 0.60113 0.75436 0.1408 0.0
H900 H 0.53599 0.76632 0.13742 0.0
H901 H 0.55749 0.77037 0.0944 0.0
O902 O 0.56087 0.86558 0.16013 0.0
H903 H 0.62431 0.82849 0.18326 0.0
H904 H 0.59227 0.89743 0.17048 0.0
H905 H 0.60411 0.71097 0.13144 0.0
H906 H 0.49758 0.83392 0.10304 0.0
H907 H 0.58351 0.69714 0.10308 0.0
H908 H 0.47149 0.80137 0.11664 0.0
O909 O 0.61311 0.79836 0.12941 0.0
H910 H 0.58031 0.91387 0.10752 0.0
H911 H 0.63969 0.872 0.14757 0.0
H912 H 0.65387 0.90542 0.12751 0.0
H913 H 0.62407 0.92661 0.10731 0.0
H914 H 0.56696 0.88023 0.12766 0.0
H915 H 0.61189 0.9161 0.1974 0.0
H916 H 0.63829 0.89056 0.21743 0.0
O917 O 0.62251 0.8291 0.14863 0.0
C918 C 0.57413 0.79779 0.16743 0.0
C919 C 0.63309 0.85779 0.20155 0.0
C920 C 0.61479 0.89688 0.19437 0.0
N921 N 0.6074 0.86197 0.1752 0.0
C922 C 0.62172 0.84775 0.18623 0.0
C923 C 0.6037 0.8862 0.17916 0.0
C924 C 0.6296 0.88254 0.2056 0.0
C925 C 0.5313 0.81785 0.11274 0.0
N926 N 0.54186 0.79911 0.12229 0.0
C927 C 0.50586 0.81897 0.11055 0.0
C928 C 0.49123 0.80072 0.11821 0.0
C929 C 0.50214 0.78165 0.12792 0.0
C930 C 0.52764 0.78116 0.12987 0.0
C931 C 0.56914 0.73297 0.09687 0.0
C932 C 0.59197 0.74843 0.12852 0.0
C933 C 0.56773 0.75739 0.10255 0.0
N934 N 0.57894 0.76479 0.11826 0.0
C935 C 0.59379 0.72386 0.12325 0.0
C936 C 0.58225 0.71612 0.10732 0.0
C937 C 0.62838 0.81068 0.13883 0.0
C938 C 0.59345 0.90484 0.1163 0.0
C939 C 0.62663 0.88111 0.13879 0.0
C940 C 0.63475 0.90005 0.12749 0.0
C941 C 0.61802 0.91194 0.11617 0.0
N942 N 0.6025 0.87425 0.13884 0.0
C943 C 0.58598 0.88585 0.1278 0.0
H944 H 0.42218 0.17867 0.93818 0.0
H945 H 0.41441 0.16782 0.97011 0.0
H946 H 0.34584 0.13424 0.95475 0.0
H947 H 0.35337 0.1448 0.92301 0.0
H948 H 0.37219 0.18158 0.99178 0.0
H949 H 0.3814 0.08053 0.98468 0.0
H950 H 0.39326 0.10176 0.96798 0.0
H951 H 0.36107 0.0947 0.96854 0.0
C952 C 0.40549 0.16892 0.94162 0.0
C953 C 0.38841 0.16261 0.92806 0.0
C954 C 0.40109 0.16275 0.95983 0.0
C955 C 0.37973 0.14993 0.96471 0.0
C956 C 0.36264 0.14375 0.95122 0.0
H957 H 0.31292 0.09743 0.06469 0.0
H958 H 0.32333 0.10688 0.03296 0.0
C959 C 0.36693 0.14998 0.93309 0.0
C960 C 0.37475 0.14362 0.98395 0.0
H961 H 0.36501 0.09524 0.0126 0.0
C962 C 0.37082 0.16273 0.9964 0.0
C963 C 0.37277 0.11899 0.98984 0.0
C964 C 0.37754 0.09777 0.97713 0.0
C965 C 0.36441 0.15787 0.01455 0.0
C966 C 0.36242 0.13322 0.02047 0.0
C967 C 0.36649 0.11411 0.00802 0.0
C968 C 0.35643 0.12693 0.03959 0.0
C969 C 0.35915 0.17919 0.02708 0.0
C970 C 0.37187 0.13459 0.05375 0.0
C971 C 0.36594 0.12934 0.07181 0.0
C972 C 0.34455 0.11608 0.07608 0.0
C973 C 0.32947 0.10776 0.06184 0.0
C974 C 0.33538 0.11314 0.04373 0.0
H975 H 0.35481 0.19618 0.01937 0.0
H976 H 0.34356 0.17502 0.03632 0.0
H977 H 0.37559 0.18288 0.03555 0.0
H978 H 0.38853 0.1447 0.05084 0.0
H979 H 0.37816 0.13575 0.08243 0.0
H980 H 0.36421 0.34417 0.42208 0.0
H981 H 0.37451 0.33406 0.45357 0.0
H982 H 0.3318 0.39568 0.47235 0.0
H983 H 0.32141 0.40612 0.44078 0.0
H984 H 0.39745 0.36835 0.48125 0.0
H985 H 0.30533 0.33173 0.49962 0.0
H986 H 0.31578 0.33365 0.47633 0.0
H987 H 0.30646 0.36091 0.48815 0.0
C988 C 0.35693 0.35559 0.43288 0.0
C989 C 0.34185 0.37588 0.42894 0.0
C990 C 0.36293 0.34981 0.45085 0.0
C991 C 0.35376 0.36402 0.46522 0.0
C992 C 0.33887 0.3844 0.46139 0.0
H993 H 0.35903 0.34857 0.58221 0.0
H994 H 0.35066 0.3605 0.55085 0.0
C995 C 0.33301 0.39036 0.44338 0.0
C996 C 0.35976 0.35735 0.48421 0.0
H997 H 0.33506 0.33306 0.52286 0.0
C998 C 0.38387 0.36064 0.4904 0.0
C999 C 0.34193 0.34733 0.496 0.0
C1000 C 0.31591 0.34299 0.48977 0.0
C1001 C 0.39059 0.35451 0.5083 0.0
C1002 C 0.37281 0.34419 0.52009 0.0
C1003 C 0.34868 0.34091 0.51381 0.0
C1004 C 0.37862 0.33712 0.53912 0.0
C1005 C 0.41646 0.35974 0.51451 0.0
C1006 C 0.39706 0.31984 0.543 0.0
C1007 C 0.40206 0.3131 0.56101 0.0
C1008 C 0.38841 0.32322 0.57541 0.0
C1009 C 0.36982 0.34032 0.57145 0.0
C1010 C 0.36501 0.3472 0.5535 0.0
H1011 H 0.42547 0.37376 0.5058 0.0
H1012 H 0.41676 0.36626 0.52883 0.0
H1013 H 0.42746 0.34265 0.51365 0.0
H1014 H 0.40739 0.31136 0.5321 0.0
H1015 H 0.41639 0.29976 0.56363 0.0
H1016 H 0.12673 0.30954 0.93965 0.0
H1017 H 0.13569 0.31775 0.97174 0.0
H1018 H 0.11204 0.39287 0.96471 0.0
H1019 H 0.10533 0.38508 0.9323 0.0
H1020 H 0.15014 0.39418 0.98279 0.0
H1021 H 0.09453 0.32155 0.01494 0.0
H1022 H 0.11649 0.30819 0.99978 0.0
H1023 H 0.09267 0.32791 0.99093 0.0
C1024 C 0.12318 0.32767 0.94512 0.0
C1025 C 0.11521 0.34667 0.93371 0.0
C1026 C 0.12809 0.33234 0.9635 0.0
C1027 C 0.12405 0.35583 0.97092 0.0
C1028 C 0.11536 0.37459 0.95944 0.0
H1029 H 0.12645 0.37931 0.08808 0.0
H1030 H 0.11495 0.37242 0.05636 0.0
C1031 C 0.11136 0.37014 0.94096 0.0
C1032 C 0.13035 0.36141 0.99024 0.0
H1033 H 0.12516 0.34024 0.03378 0.0
C1034 C 0.14433 0.38252 0.99394 0.0
C1035 C 0.12261 0.3465 0.00495 0.0
C1036 C 0.10552 0.32496 1.00245 0.0
C1037 C 0.15077 0.38911 0.01178 0.0
C1038 C 0.14443 0.37332 0.02637 0.0
C1039 C 0.13038 0.35226 0.02267 0.0
C1040 C 0.15151 0.37851 0.04559 0.0
C1041 C 0.16355 0.41337 0.0147 0.0
C1042 C 0.17588 0.38431 0.0503 0.0
C1043 C 0.18221 0.38923 0.0684 0.0
C1044 C 0.16454 0.38729 0.08219 0.0
C1045 C 0.14039 0.38087 0.07763 0.0
C1046 C 0.13386 0.37685 0.0595 0.0
H1047 H 0.15912 0.42658 0.00365 0.0
H1048 H 0.15832 0.42183 0.02789 0.0
H1049 H 0.1837 0.41047 0.01452 0.0
H1050 H 0.19011 0.38478 0.04004 0.0
H1051 H 0.20105 0.39381 0.07169 0.0
H1052 H 0.10202 0.11756 0.57989 0.0
H1053 H 0.10913 0.10896 0.54768 0.0
H1054 H 0.11734 0.18654 0.53732 0.0
H1055 H 0.10827 0.19521 0.56938 0.0
H1056 H 0.09498 0.16816 0.51067 0.0
H1057 H 0.17329 0.10643 0.52371 0.0
H1058 H 0.14625 0.09462 0.53439 0.0
H1059 H 0.15881 0.12366 0.54167 0.0
C1060 C 0.10513 0.13275 0.57065 0.0
C1061 C 0.10474 0.15702 0.57702 0.0
C1062 C 0.10953 0.12782 0.55229 0.0
C1063 C 0.11473 0.147 0.54011 0.0
C1064 C 0.11363 0.17136 0.54643 0.0
H1065 H 0.18242 0.11599 0.43461 0.0
H1066 H 0.1746 0.12607 0.46661 0.0
C1067 C 0.10842 0.17635 0.56472 0.0
C1068 C 0.121 0.14166 0.52077 0.0
H1069 H 0.15621 0.10483 0.49368 0.0
C1070 C 0.10857 0.15449 0.50699 0.0
C1071 C 0.13919 0.12427 0.51582 0.0
C1072 C 0.15532 0.11171 0.5297 0.0
C1073 C 0.11342 0.1501 0.4885 0.0
C1074 C 0.13019 0.13132 0.48357 0.0
C1075 C 0.143 0.11888 0.49736 0.0
C1076 C 0.13496 0.1245 0.46426 0.0
C1077 C 0.10097 0.16624 0.47457 0.0
C1078 C 0.11541 0.11956 0.45233 0.0
C1079 C 0.11987 0.11458 0.43398 0.0
C1080 C 0.144 0.11334 0.42738 0.0
C1081 C 0.16364 0.11678 0.43945 0.0
C1082 C 0.15916 0.12257 0.45771 0.0
H1083 H 0.09629 0.18447 0.4804 0.0
H1084 H 0.11273 0.16914 0.46243 0.0
H1085 H 0.08354 0.1575 0.47021 0.0
H1086 H 0.09663 0.1198 0.45714 0.0
H1087 H 0.10443 0.11167 0.42494 0.0
H1088 H 0.59624 0.87258 0.0797 0.0
H1089 H 0.60206 0.8832 0.04766 0.0
H1090 H 0.61028 0.80632 0.03462 0.0
H1091 H 0.60228 0.7957 0.06645 0.0
H1092 H 0.63767 0.87989 0.02685 0.0
H1093 H 0.56557 0.82311 0.99517 0.0
H1094 H 0.56773 0.82676 0.01947 0.0
H1095 H 0.58619 0.80412 0.00785 0.0
C1096 C 0.59884 0.85798 0.06987 0.0
C1097 C 0.59854 0.83335 0.0754 0.0
C1098 C 0.60229 0.86403 0.05157 0.0
C1099 C 0.60619 0.84559 0.03849 0.0
C1100 C 0.60635 0.82091 0.04417 0.0
H1101 H 0.67732 0.87864 0.93456 0.0
H1102 H 0.66833 0.8702 0.96664 0.0
C1103 C 0.60201 0.81482 0.0624 0.0
C1104 C 0.61119 0.85237 0.01916 0.0
H1105 H 0.59683 0.83811 0.9752 0.0
C1106 C 0.62845 0.87094 0.01558 0.0
C1107 C 0.59898 0.84111 0.00432 0.0
C1108 C 0.5784 0.82289 0.00692 0.0
C1109 C 0.63391 0.87843 0.99774 0.0
C1110 C 0.62292 0.86601 0.98288 0.0
C1111 C 0.60556 0.84754 0.98647 0.0
C1112 C 0.62875 0.87192 0.96352 0.0
C1113 C 0.6508 0.90012 0.99519 0.0
C1114 C 0.60966 0.87481 0.9508 0.0
C1115 C 0.61486 0.87851 0.93239 0.0
C1116 C 0.63923 0.88015 0.92641 0.0
C1117 C 0.65839 0.8779 0.93903 0.0
C1118 C 0.6532 0.87329 0.95738 0.0
H1119 H 0.65016 0.9126 0.00714 0.0
H1120 H 0.66997 0.89348 0.99385 0.0
H1121 H 0.64595 0.91087 0.98287 0.0
H1122 H 0.59066 0.87386 0.95507 0.0
H1123 H 0.59984 0.88006 0.9228 0.0
H1124 H 0.68611 0.58466 0.56871 0.0
H1125 H 0.67713 0.59095 0.5363 0.0
H1126 H 0.62534 0.64782 0.55014 0.0
H1127 H 0.63409 0.64172 0.58241 0.0
H1128 H 0.60817 0.61131 0.52414 0.0
H1129 H 0.69835 0.65217 0.50568 0.0
H1130 H 0.69931 0.62359 0.51791 0.0
H1131 H 0.68757 0.65057 0.5289 0.0
C1132 C 0.67285 0.59854 0.56484 0.0
C1133 C 0.66095 0.6128 0.57813 0.0
C1134 C 0.66781 0.60216 0.54634 0.0
C1135 C 0.65076 0.62003 0.54086 0.0
C1136 C 0.63863 0.63402 0.5541 0.0
H1137 H 0.58953 0.67003 0.4375 0.0
H1138 H 0.59758 0.6621 0.46979 0.0
C1139 C 0.64375 0.63054 0.57254 0.0
C1140 C 0.64533 0.62412 0.52133 0.0
H1141 H 0.67032 0.64532 0.48176 0.0
C1142 C 0.62172 0.61875 0.51483 0.0
C1143 C 0.66306 0.63383 0.5093 0.0
C1144 C 0.68847 0.64059 0.51574 0.0
C1145 C 0.61546 0.62247 0.49648 0.0
C1146 C 0.63314 0.6324 0.48444 0.0
C1147 C 0.65677 0.63774 0.49099 0.0
C1148 C 0.62774 0.63704 0.46492 0.0
C1149 C 0.59018 0.61515 0.4901 0.0
C1150 C 0.64234 0.62606 0.45146 0.0
C1151 C 0.638 0.63081 0.43307 0.0
C1152 C 0.61894 0.64666 0.42771 0.0
C1153 C 0.60424 0.65761 0.44118 0.0
C1154 C 0.60873 0.65297 0.45964 0.0
H1155 H 0.5815 0.60175 0.4995 0.0
H1156 H 0.57829 0.63168 0.4896 0.0
H1157 H 0.59084 0.60699 0.47626 0.0
H1158 H 0.65713 0.61376 0.45519 0.0
H1159 H 0.64962 0.62198 0.42305 0.0
H1160 H 0.81492 0.58707 0.94137 0.0
H1161 H 0.82451 0.59754 0.97307 0.0
H1162 H 0.88271 0.64514 0.95482 0.0
H1163 H 0.8731 0.63516 0.92327 0.0
H1164 H 0.86794 0.59242 0.99304 0.0
H1165 H 0.84188 0.69054 0.98689 0.0
H1166 H 0.83375 0.66797 0.96995 0.0
H1167 H 0.86418 0.68074 0.97043 0.0
C1168 C 0.82978 0.59973 0.94413 0.0
C1169 C 0.84305 0.61049 0.92979 0.0
C1170 C 0.83523 0.6057 0.96223 0.0
C1171 C 0.85398 0.62253 0.96627 0.0
C1172 C 0.86776 0.63262 0.952 0.0
H1173 H 0.91229 0.68388 0.0673 0.0
H1174 H 0.90562 0.67219 0.03539 0.0
C1175 C 0.86228 0.62678 0.93396 0.0
C1176 C 0.85925 0.62955 0.98539 0.0
H1177 H 0.86175 0.67868 0.01425 0.0
C1178 C 0.8665 0.61125 0.9977 0.0
C1179 C 0.85743 0.65417 0.99142 0.0
C1180 C 0.84867 0.67448 0.97905 0.0
C1181 C 0.87226 0.61695 0.01585 0.0
C1182 C 0.87041 0.64155 0.02187 0.0
C1183 C 0.8633 0.65987 0.00955 0.0
C1184 C 0.87473 0.64847 0.04112 0.0
C1185 C 0.8806 0.59666 0.02839 0.0
C1186 C 0.85936 0.63929 0.0548 0.0
C1187 C 0.86304 0.64596 0.07293 0.0
C1188 C 0.88214 0.66207 0.07778 0.0
C1189 C 0.89745 0.67142 0.06402 0.0
C1190 C 0.89367 0.66477 0.04581 0.0
H1191 H 0.8872 0.5804 0.02068 0.0
H1192 H 0.89553 0.60307 0.03751 0.0
H1193 H 0.86495 0.59077 0.037 0.0
H1194 H 0.84436 0.62706 0.05144 0.0
H1195 H 0.85088 0.63839 0.08316 0.0
H1196 H 0.90874 0.81701 0.44139 0.0
H1197 H 0.89893 0.82692 0.47318 0.0
H1198 H 0.84752 0.88195 0.45513 0.0
H1199 H 0.85699 0.8722 0.42353 0.0
H1200 H 0.90205 0.87337 0.49182 0.0
H1201 H 0.8066 0.83791 0.48929 0.0
H1202 H 0.82936 0.83014 0.47237 0.0
H1203 H 0.81406 0.85935 0.47157 0.0
C1204 C 0.89537 0.83122 0.44421 0.0
C1205 C 0.88348 0.84364 0.42992 0.0
C1206 C 0.8898 0.83686 0.46236 0.0
C1207 C 0.87219 0.85486 0.46647 0.0
C1208 C 0.86078 0.86765 0.45225 0.0
H1209 H 0.80685 0.91468 0.56492 0.0
H1210 H 0.81911 0.90592 0.53346 0.0
C1211 C 0.86632 0.86208 0.43417 0.0
C1212 C 0.86568 0.86049 0.48561 0.0
H1213 H 0.81771 0.86073 0.51553 0.0
C1214 C 0.88367 0.87048 0.49707 0.0
C1215 C 0.84164 0.85679 0.49235 0.0
C1216 C 0.82182 0.84526 0.48083 0.0
C1217 C 0.87812 0.87736 0.51504 0.0
C1218 C 0.85405 0.87372 0.52177 0.0
C1219 C 0.83611 0.86363 0.51031 0.0
C1220 C 0.84722 0.87966 0.54082 0.0
C1221 C 0.89792 0.88899 0.52652 0.0
C1222 C 0.85882 0.86766 0.55534 0.0
C1223 C 0.8519 0.87262 0.57327 0.0
C1224 C 0.83307 0.88956 0.57705 0.0
C1225 C 0.82144 0.90157 0.56247 0.0
C1226 C 0.8284 0.89658 0.5445 0.0
H1227 H 0.91292 0.89665 0.518 0.0
H1228 H 0.89032 0.90389 0.53516 0.0
H1229 H 0.90602 0.87486 0.53559 0.0
H1230 H 0.87301 0.85415 0.55281 0.0
H1231 H 0.86124 0.86298 0.58415 0.0
H1232 H 0.19202 0.33149 0.17293 0.0
H1233 H 0.21741 0.29466 0.17539 0.0
H1234 H 0.25673 0.31568 0.12687 0.0
H1235 H 0.23206 0.35285 0.1246 0.0
H1236 H 0.22093 0.25757 0.15252 0.0
H1237 H 0.3128 0.29919 0.16013 0.0
H1238 H 0.28489 0.31679 0.16243 0.0
H1239 H 0.29752 0.31056 0.14024 0.0
C1240 C 0.20617 0.32835 0.16284 0.0
C1241 C 0.21007 0.34515 0.1486 0.0
C1242 C 0.22072 0.30735 0.16431 0.0
C1243 C 0.23933 0.30274 0.15156 0.0
C1244 C 0.24303 0.31929 0.13721 0.0
H1245 H 0.2933 0.16445 0.11665 0.0
H1246 H 0.2747 0.20472 0.12082 0.0
C1247 C 0.2287 0.3404 0.13582 0.0
C1248 C 0.25367 0.27973 0.15241 0.0
H1249 H 0.31196 0.25689 0.15021 0.0
C1250 C 0.24084 0.25744 0.15229 0.0
C1251 C 0.27966 0.27956 0.15245 0.0
C1252 C 0.2945 0.30283 0.15403 0.0
C1253 C 0.25324 0.23499 0.1513 0.0
C1254 C 0.27913 0.23492 0.14986 0.0
C1255 C 0.29207 0.25709 0.15095 0.0
C1256 C 0.2928 0.21199 0.14647 0.0
C1257 C 0.23846 0.21156 0.15168 0.0
C1258 C 0.3103 0.20349 0.15898 0.0
C1259 C 0.32131 0.18055 0.1565 0.0
C1260 C 0.3148 0.16584 0.14153 0.0
C1261 C 0.29838 0.17516 0.1285 0.0
C1262 C 0.28763 0.1981 0.13089 0.0
H1263 H 0.22042 0.21434 0.15843 0.0
H1264 H 0.23491 0.20546 0.13751 0.0
H1265 H 0.24846 0.19671 0.1589 0.0
H1266 H 0.3147 0.21415 0.17099 0.0
H1267 H 0.33399 0.17389 0.16673 0.0
H1268 H 0.35804 0.25401 0.61698 0.0
H1269 H 0.31977 0.23069 0.61726 0.0
H1270 H 0.29607 0.27024 0.66499 0.0
H1271 H 0.33391 0.29417 0.66457 0.0
H1272 H 0.29815 0.20057 0.64272 0.0
H1273 H 0.24072 0.28273 0.62926 0.0
H1274 H 0.2737 0.28315 0.62725 0.0
H1275 H 0.2594 0.28553 0.64926 0.0
C1276 C 0.34471 0.25775 0.62757 0.0
C1277 C 0.34887 0.27619 0.64061 0.0
C1278 C 0.32291 0.24434 0.62773 0.0
C1279 C 0.30498 0.24908 0.64095 0.0
C1280 C 0.30948 0.26674 0.65443 0.0
H1281 H 0.17408 0.16354 0.66419 0.0
H1282 H 0.21605 0.17953 0.66402 0.0
C1283 C 0.33114 0.28034 0.65418 0.0
C1284 C 0.2812 0.23614 0.64025 0.0
H1285 H 0.21969 0.24596 0.63641 0.0
C1286 C 0.28095 0.21042 0.64128 0.0
C1287 C 0.25891 0.2491 0.63808 0.0
C1288 C 0.25813 0.27662 0.63571 0.0
C1289 C 0.25885 0.19726 0.64038 0.0
C1290 C 0.23651 0.2103 0.63881 0.0
C1291 C 0.23686 0.23601 0.63769 0.0
C1292 C 0.2124 0.19794 0.63803 0.0
C1293 C 0.25968 0.16959 0.64074 0.0
C1294 C 0.19649 0.20299 0.6235 0.0
C1295 C 0.17245 0.19438 0.62376 0.0
C1296 C 0.16393 0.18035 0.6385 0.0
C1297 C 0.18022 0.17422 0.65262 0.0
C1298 C 0.20423 0.18321 0.65248 0.0
H1299 H 0.27802 0.16252 0.63669 0.0
H1300 H 0.2559 0.16313 0.65478 0.0
H1301 H 0.24563 0.16159 0.63154 0.0
H1302 H 0.20246 0.21429 0.6122 0.0
H1303 H 0.16037 0.19917 0.6126 0.0
H1304 H 0.30441 0.32584 0.33954 0.0
H1305 H 0.27495 0.29221 0.3381 0.0
H1306 H 0.24034 0.31844 0.38722 0.0
H1307 H 0.2692 0.35263 0.38846 0.0
H1308 H 0.26932 0.25653 0.3619 0.0
H1309 H 0.1813 0.3066 0.35552 0.0
H1310 H 0.21066 0.32135 0.35237 0.0
H1311 H 0.1987 0.31642 0.37492 0.0
C1312 C 0.29043 0.32459 0.34997 0.0
C1313 C 0.28914 0.34192 0.36412 0.0
C1314 C 0.27355 0.30541 0.34908 0.0
C1315 C 0.25519 0.30311 0.36236 0.0
C1316 C 0.25391 0.3203 0.37654 0.0
H1317 H 0.18923 0.16663 0.39245 0.0
H1318 H 0.20915 0.2067 0.39182 0.0
C1319 C 0.27059 0.33968 0.37732 0.0
C1320 C 0.23871 0.28158 0.36217 0.0
H1321 H 0.17858 0.26407 0.36396 0.0
C1322 C 0.24948 0.25821 0.36217 0.0
C1323 C 0.21282 0.28382 0.36229 0.0
C1324 C 0.20018 0.30841 0.36108 0.0
C1325 C 0.23512 0.23698 0.36276 0.0
C1326 C 0.20931 0.23922 0.36397 0.0
C1327 C 0.19842 0.26252 0.36339 0.0
C1328 C 0.19362 0.21735 0.36589 0.0
C1329 C 0.24777 0.21232 0.36198 0.0
C1330 C 0.177 0.21093 0.35211 0.0
C1331 C 0.16524 0.18814 0.35257 0.0
C1332 C 0.17024 0.17154 0.36674 0.0
C1333 C 0.18541 0.1789 0.3812 0.0
C1334 C 0.19683 0.20173 0.38085 0.0
H1335 H 0.26643 0.21376 0.35597 0.0
H1336 H 0.24974 0.20497 0.37598 0.0
H1337 H 0.23696 0.19897 0.35385 0.0
H1338 H 0.17416 0.22293 0.34055 0.0
H1339 H 0.15351 0.18297 0.34131 0.0
H1340 H 0.37183 0.24249 0.87831 0.0
H1341 H 0.3384 0.27236 0.8794 0.0
H1342 H 0.29014 0.22025 0.8535 0.0
H1343 H 0.32347 0.19048 0.85193 0.0
H1344 H 0.2864 0.26714 0.8392 0.0
H1345 H 0.28087 0.26813 0.91485 0.0
H1346 H 0.31028 0.27565 0.90531 0.0
H1347 H 0.29811 0.24525 0.90254 0.0
C1348 C 0.35411 0.23735 0.87284 0.0
C1349 C 0.35026 0.21396 0.8652 0.0
C1350 C 0.33503 0.25444 0.87353 0.0
C1351 C 0.31176 0.24834 0.86679 0.0
C1352 C 0.308 0.22526 0.85882 0.0
H1353 H 0.16655 0.28891 0.88719 0.0
H1354 H 0.20839 0.27351 0.88634 0.0
C1355 C 0.32706 0.20823 0.858 0.0
C1356 C 0.291 0.26565 0.86827 0.0
H1357 H 0.25245 0.29248 0.89897 0.0
C1358 C 0.27909 0.27297 0.85223 0.0
C1359 C 0.28159 0.27306 0.88534 0.0
C1360 C 0.2932 0.26502 0.90302 0.0
C1361 C 0.25734 0.28669 0.85282 0.0
C1362 C 0.24763 0.29364 0.86991 0.0
C1363 C 0.26013 0.28723 0.88591 0.0
C1364 C 0.22296 0.30461 0.87157 0.0
C1365 C 0.24421 0.29238 0.83522 0.0
C1366 C 0.21743 0.32752 0.86388 0.0
C1367 C 0.19335 0.33639 0.8642 0.0
C1368 C 0.17453 0.32251 0.87235 0.0
C1369 C 0.18049 0.30006 0.88071 0.0
C1370 C 0.20444 0.29123 0.8803 0.0
H1371 H 0.25196 0.282 0.82354 0.0
H1372 H 0.22437 0.28799 0.83636 0.0
H1373 H 0.24594 0.31225 0.83221 0.0
H1374 H 0.23162 0.33829 0.85735 0.0
H1375 H 0.18943 0.35383 0.85775 0.0
H1376 H 0.6651 0.81128 0.84215 0.0
H1377 H 0.6917 0.77521 0.84295 0.0
H1378 H 0.73163 0.80621 0.88814 0.0
H1379 H 0.70568 0.84268 0.8871 0.0
H1380 H 0.76215 0.7876 0.86284 0.0
H1381 H 0.68951 0.71993 0.87931 0.0
H1382 H 0.68321 0.737 0.85896 0.0
H1383 H 0.68442 0.75259 0.88054 0.0
C1384 C 0.67944 0.81037 0.85234 0.0
C1385 C 0.68322 0.82981 0.8646 0.0
C1386 C 0.69455 0.7897 0.85282 0.0
C1387 C 0.71337 0.7879 0.86579 0.0
C1388 C 0.71717 0.80725 0.87805 0.0
H1389 H 0.78563 0.65264 0.89439 0.0
H1390 H 0.76331 0.69143 0.89441 0.0
C1391 C 0.70228 0.82804 0.87745 0.0
C1392 C 0.72938 0.76602 0.86646 0.0
H1393 H 0.72847 0.70381 0.87107 0.0
C1394 C 0.75484 0.76927 0.86473 0.0
C1395 C 0.71978 0.74221 0.86917 0.0
C1396 C 0.69276 0.73769 0.87229 0.0
C1397 C 0.77099 0.74925 0.8655 0.0
C1398 C 0.7613 0.72535 0.86755 0.0
C1399 C 0.73585 0.72216 0.86938 0.0
C1400 C 0.77705 0.70327 0.8682 0.0
C1401 C 0.79825 0.75397 0.8645 0.0
C1402 C 0.79255 0.69728 0.85359 0.0
C1403 C 0.80567 0.67523 0.85366 0.0
C1404 C 0.80299 0.65864 0.86817 0.0
C1405 C 0.7879 0.66498 0.88295 0.0
C1406 C 0.77514 0.68712 0.88298 0.0
H1407 H 0.80279 0.77316 0.86837 0.0
H1408 H 0.80855 0.7413 0.87354 0.0
H1409 H 0.80461 0.75105 0.85032 0.0
H1410 H 0.79388 0.70922 0.84185 0.0
H1411 H 0.81704 0.67074 0.84204 0.0
H1412 H 0.65141 0.7127 0.38679 0.0
H1413 H 0.68728 0.73945 0.38583 0.0
H1414 H 0.71307 0.70206 0.3377 0.0
H1415 H 0.67773 0.67461 0.33893 0.0
H1416 H 0.74869 0.70748 0.36138 0.0
H1417 H 0.70153 0.79675 0.35328 0.0
H1418 H 0.69089 0.7805 0.37297 0.0
H1419 H 0.68582 0.76783 0.35065 0.0
C1420 C 0.66467 0.71022 0.37595 0.0
C1421 C 0.66173 0.69156 0.36292 0.0
C1422 C 0.68503 0.72569 0.37533 0.0
C1423 C 0.70251 0.72312 0.36145 0.0
C1424 C 0.69966 0.70447 0.34845 0.0
H1425 H 0.82311 0.82516 0.34217 0.0
H1426 H 0.78412 0.80298 0.34026 0.0
C1427 C 0.6795 0.68876 0.34921 0.0
C1428 C 0.72459 0.73884 0.36116 0.0
H1429 H 0.74385 0.79841 0.36241 0.0
C1430 C 0.74762 0.72736 0.36142 0.0
C1431 C 0.72315 0.76478 0.36089 0.0
C1432 C 0.69901 0.77818 0.35923 0.0
C1433 C 0.76929 0.74108 0.36198 0.0
C1434 C 0.76781 0.76697 0.36292 0.0
C1435 C 0.74484 0.77853 0.36203 0.0
C1436 C 0.79001 0.78219 0.36498 0.0
C1437 C 0.79354 0.72768 0.3614 0.0
C1438 C 0.80563 0.77851 0.37989 0.0
C1439 C 0.82796 0.79084 0.38089 0.0
C1440 C 0.83482 0.80742 0.36716 0.0
C1441 C 0.81837 0.81237 0.35288 0.0
C1442 C 0.79612 0.79974 0.35177 0.0
H1443 H 0.79162 0.7092 0.35516 0.0
H1444 H 0.80746 0.73818 0.35358 0.0
H1445 H 0.80043 0.72515 0.37548 0.0
H1446 H 0.80085 0.76558 0.39051 0.0
H1447 H 0.84006 0.78698 0.39224 0.0
H1448 H 0.77497 0.84469 0.61696 0.0
H1449 H 0.75614 0.80434 0.6199 0.0
H1450 H 0.79434 0.79285 0.67062 0.0
H1451 H 0.81394 0.83304 0.66755 0.0
H1452 H 0.79422 0.75193 0.64953 0.0
H1453 H 0.70028 0.78994 0.6545 0.0
H1454 H 0.71557 0.79983 0.63417 0.0
H1455 H 0.72731 0.80892 0.65607 0.0
C1456 C 0.77948 0.83357 0.62872 0.0
C1457 C 0.79571 0.84218 0.64215 0.0
C1458 C 0.76857 0.81059 0.63043 0.0
C1459 C 0.77333 0.79598 0.64573 0.0
C1460 C 0.79026 0.80403 0.65881 0.0
H1461 H 0.67727 0.67188 0.66883 0.0
H1462 H 0.70032 0.71016 0.67138 0.0
C1463 C 0.80144 0.82696 0.65701 0.0
C1464 C 0.76043 0.77236 0.64802 0.0
H1465 H 0.70332 0.7469 0.64825 0.0
C1466 C 0.77435 0.75079 0.64945 0.0
C1467 C 0.73451 0.77103 0.64838 0.0
C1468 C 0.71855 0.7937 0.6484 0.0
C1469 C 0.76298 0.72775 0.65041 0.0
C1470 C 0.73708 0.72634 0.64939 0.0
C1471 C 0.72318 0.748 0.64876 0.0
C1472 C 0.72397 0.70265 0.64836 0.0
C1473 C 0.77885 0.70523 0.65257 0.0
C1474 C 0.72943 0.68591 0.63443 0.0
C1475 C 0.71649 0.66393 0.63304 0.0
C1476 C 0.69749 0.65852 0.64535 0.0
C1477 C 0.69177 0.67552 0.65911 0.0
C1478 C 0.70496 0.69736 0.66063 0.0
H1479 H 0.79658 0.70977 0.65924 0.0
H1480 H 0.76946 0.69089 0.66074 0.0
H1481 H 0.78304 0.69755 0.63893 0.0
H1482 H 0.74348 0.68998 0.62446 0.0
H1483 H 0.72119 0.65134 0.62217 0.0
H1484 H 0.84583 0.72596 0.11965 0.0
H1485 H 0.80754 0.74907 0.1209 0.0
H1486 H 0.78571 0.70859 0.16871 0.0
H1487 H 0.8236 0.68471 0.16718 0.0
H1488 H 0.74965 0.71076 0.1451 0.0
H1489 H 0.78746 0.80421 0.15376 0.0
H1490 H 0.79975 0.78941 0.13396 0.0
H1491 H 0.80606 0.777 0.1562 0.0
C1492 C 0.83295 0.72205 0.1305 0.0
C1493 C 0.83776 0.70352 0.14334 0.0
C1494 C 0.81118 0.73545 0.13129 0.0
C1495 C 0.79405 0.73095 0.14515 0.0
C1496 C 0.7988 0.71248 0.15799 0.0
H1497 H 0.664 0.82107 0.16396 0.0
H1498 H 0.70478 0.80245 0.1661 0.0
C1499 C 0.82042 0.69881 0.15706 0.0
C1500 C 0.77047 0.74437 0.14551 0.0
H1501 H 0.74528 0.80172 0.1443 0.0
C1502 C 0.74871 0.73065 0.14512 0.0
C1503 C 0.76926 0.77032 0.14585 0.0
C1504 C 0.79189 0.78607 0.14767 0.0
C1505 C 0.72576 0.74214 0.14448 0.0
C1506 C 0.72461 0.76805 0.14359 0.0
C1507 C 0.74629 0.78184 0.14463 0.0
C1508 C 0.70099 0.78103 0.14146 0.0
C1509 C 0.70298 0.72638 0.14492 0.0
C1510 C 0.68585 0.77585 0.12652 0.0
C1511 C 0.66251 0.78617 0.12537 0.0
C1512 C 0.65409 0.80223 0.13897 0.0
C1513 C 0.66992 0.80866 0.15332 0.0
C1514 C 0.6932 0.79804 0.15457 0.0
H1515 H 0.70671 0.70819 0.15118 0.0
H1516 H 0.68798 0.73542 0.15265 0.0
H1517 H 0.69655 0.72316 0.13079 0.0
H1518 H 0.69186 0.76334 0.11596 0.0
H1519 H 0.6509 0.78118 0.11398 0.0
H1520 H 0.22428 0.08043 0.33066 0.0
H1521 H 0.24726 0.07414 0.30236 0.0
H1522 H 0.18289 0.09275 0.27114 0.0
H1523 H 0.15975 0.09887 0.29912 0.0
H1524 H 0.20854 0.05041 0.25837 0.0
H1525 H 0.26966 0.13094 0.26885 0.0
H1526 H 0.26869 0.1092 0.28723 0.0
H1527 H 0.24172 0.1266 0.28165 0.0
C1528 C 0.215 0.08314 0.31778 0.0
C1529 C 0.19019 0.09031 0.31722 0.0
C1530 C 0.22817 0.0796 0.30164 0.0
C1531 C 0.21679 0.08322 0.2847 0.0
C1532 C 0.19199 0.08989 0.28409 0.0
H1533 H 0.25905 0.08504 0.17074 0.0
H1534 H 0.23603 0.08198 0.19933 0.0
C1535 C 0.17883 0.09347 0.30015 0.0
C1536 C 0.23073 0.08069 0.26751 0.0
H1537 H 0.27688 0.10673 0.24285 0.0
C1538 C 0.22356 0.06264 0.25495 0.0
C1539 C 0.25016 0.09679 0.26312 0.0
C1540 C 0.25797 0.11713 0.27581 0.0
C1541 C 0.23554 0.06008 0.23813 0.0
C1542 C 0.25487 0.07631 0.23368 0.0
C1543 C 0.26208 0.09427 0.24631 0.0
C1544 C 0.26806 0.07521 0.21606 0.0
C1545 C 0.22768 0.03984 0.2254 0.0
C1546 C 0.29361 0.07232 0.21597 0.0
C1547 C 0.30676 0.07435 0.19978 0.0
C1548 C 0.29464 0.07931 0.18327 0.0
C1549 C 0.26889 0.08109 0.18321 0.0
C1550 C 0.25572 0.07924 0.19953 0.0
H1551 H 0.21748 0.02518 0.23269 0.0
H1552 H 0.21536 0.04757 0.21483 0.0
H1553 H 0.24376 0.03149 0.21847 0.0
H1554 H 0.30349 0.06918 0.22856 0.0
H1555 H 0.32656 0.07265 0.20031 0.0
H1556 H 0.44529 0.24967 0.66864 0.0
H1557 H 0.45442 0.22717 0.69673 0.0
H1558 H 0.44284 0.29308 0.72803 0.0
H1559 H 0.43372 0.31571 0.70021 0.0
H1560 H 0.48443 0.25968 0.73978 0.0
H1561 H 0.39285 0.21562 0.73112 0.0
H1562 H 0.41384 0.21419 0.71224 0.0
H1563 H 0.4013 0.24321 0.71907 0.0
C1564 C 0.44521 0.25951 0.68145 0.0
C1565 C 0.43837 0.28439 0.68221 0.0
C1566 C 0.45043 0.24662 0.69747 0.0
C1567 C 0.44906 0.25848 0.7144 0.0
C1568 C 0.44398 0.28365 0.71507 0.0
H1569 H 0.43987 0.22773 0.82886 0.0
H1570 H 0.45054 0.24509 0.79915 0.0
C1571 C 0.43863 0.29649 0.69914 0.0
C1572 C 0.44979 0.24432 0.73154 0.0
H1573 H 0.4145 0.20674 0.75776 0.0
C1574 C 0.46934 0.24783 0.74369 0.0
C1575 C 0.42997 0.22906 0.73656 0.0
C1576 C 0.40816 0.22529 0.72418 0.0
C1577 C 0.46954 0.23643 0.76087 0.0
C1578 C 0.44933 0.22172 0.7661 0.0
C1579 C 0.43004 0.21792 0.75373 0.0
C1580 C 0.44695 0.21074 0.78451 0.0
C1581 C 0.4914 0.24017 0.77315 0.0
C1582 C 0.44144 0.1857 0.78623 0.0
C1583 C 0.43478 0.17594 0.80306 0.0
C1584 C 0.43372 0.19097 0.81858 0.0
C1585 C 0.44068 0.21571 0.81713 0.0
C1586 C 0.44695 0.2256 0.80017 0.0
H1587 H 0.50815 0.24462 0.76518 0.0
H1588 H 0.4877 0.25583 0.78241 0.0
H1589 H 0.49508 0.22363 0.78154 0.0
H1590 H 0.44132 0.17387 0.77437 0.0
H1591 H 0.42975 0.15673 0.80381 0.0
H1592 H 0.24053 0.43144 0.17855 0.0
H1593 H 0.26096 0.4397 0.20765 0.0
H1594 H 0.19053 0.45017 0.23331 0.0
H1595 H 0.17003 0.44109 0.20452 0.0
H1596 H 0.26161 0.4768 0.23376 0.0
H1597 H 0.21829 0.39209 0.26093 0.0
H1598 H 0.21731 0.40004 0.23713 0.0
H1599 H 0.19671 0.41452 0.25298 0.0
C1600 C 0.22945 0.43594 0.19033 0.0
C1601 C 0.2037 0.43515 0.18938 0.0
C1602 C 0.24112 0.44065 0.20693 0.0
C1603 C 0.22721 0.44488 0.22272 0.0
C1604 C 0.20157 0.44626 0.2214 0.0
H1605 H 0.27126 0.43909 0.33698 0.0
H1606 H 0.24884 0.45083 0.30941 0.0
C1607 C 0.18991 0.44116 0.20493 0.0
C1608 C 0.23929 0.44559 0.24079 0.0
H1609 H 0.24229 0.41511 0.28132 0.0
C1610 C 0.25732 0.46341 0.24421 0.0
C1611 C 0.23373 0.42799 0.25437 0.0
C1612 C 0.21564 0.40743 0.25116 0.0
C1613 C 0.27 0.46402 0.26087 0.0
C1614 C 0.26454 0.4463 0.27432 0.0
C1615 C 0.24617 0.42886 0.27104 0.0
C1616 C 0.27918 0.44372 0.29116 0.0
C1617 C 0.28925 0.48345 0.26393 0.0
C1618 C 0.30373 0.43621 0.29001 0.0
C1619 C 0.31648 0.42928 0.30565 0.0
C1620 C 0.3049 0.4297 0.32278 0.0
C1621 C 0.28071 0.43856 0.32402 0.0
C1622 C 0.26788 0.44529 0.3083 0.0
H1623 H 0.28666 0.49936 0.25468 0.0
H1624 H 0.28893 0.49004 0.27823 0.0
H1625 H 0.30765 0.47549 0.26122 0.0
H1626 H 0.31264 0.43443 0.27689 0.0
H1627 H 0.33513 0.42267 0.3042 0.0
H1628 H 0.08014 0.17054 0.70479 0.0
H1629 H 0.07817 0.19343 0.7332 0.0
H1630 H 0.08345 0.26148 0.70348 0.0
H1631 H 0.0849 0.23866 0.67477 0.0
H1632 H 0.11397 0.22284 0.74637 0.0
H1633 H 0.02769 0.27597 0.73854 0.0
H1634 H 0.0353 0.2503 0.72405 0.0
H1635 H 0.04895 0.27986 0.7201 0.0
C1636 C 0.08059 0.1904 0.7042 0.0
C1637 C 0.08277 0.20276 0.68746 0.0
C1638 C 0.07944 0.20345 0.7205 0.0
C1639 C 0.08046 0.22915 0.72048 0.0
C1640 C 0.08213 0.24166 0.7038 0.0
H1641 H 0.10013 0.33738 0.80501 0.0
H1642 H 0.095 0.31506 0.77649 0.0
C1643 C 0.08309 0.22858 0.6874 0.0
C1644 C 0.08157 0.24254 0.73804 0.0
H1645 H 0.05329 0.28665 0.76359 0.0
C1646 C 0.10059 0.23667 0.75019 0.0
C1647 C 0.06413 0.26061 0.74296 0.0
C1648 C 0.04272 0.26695 0.73082 0.0
C1649 C 0.10288 0.24861 0.76701 0.0
C1650 C 0.08552 0.26672 0.77189 0.0
C1651 C 0.06651 0.27267 0.75978 0.0
C1652 C 0.08735 0.2802 0.78932 0.0
C1653 C 0.12416 0.24216 0.77926 0.0
C1654 C 0.08436 0.268 0.806 0.0
C1655 C 0.08727 0.28069 0.82241 0.0
C1656 C 0.09323 0.30582 0.8224 0.0
C1657 C 0.09569 0.31802 0.80559 0.0
C1658 C 0.09268 0.30534 0.78924 0.0
H1659 H 0.13853 0.23154 0.77197 0.0
H1660 H 0.13261 0.25901 0.78501 0.0
H1661 H 0.11742 0.23084 0.79077 0.0
H1662 H 0.07995 0.24862 0.8063 0.0
H1663 H 0.08514 0.27073 0.83507 0.0
H1664 H 0.64178 0.90636 0.79872 0.0
H1665 H 0.6617 0.91594 0.76989 0.0
H1666 H 0.72946 0.93078 0.79813 0.0
H1667 H 0.70944 0.92181 0.82727 0.0
H1668 H 0.7202 0.96387 0.76996 0.0
H1669 H 0.70879 0.86778 0.7463 0.0
H1670 H 0.68048 0.88238 0.75251 0.0
H1671 H 0.70349 0.87682 0.76958 0.0
C1672 C 0.6609 0.91179 0.79887 0.0
C1673 C 0.67413 0.91295 0.8153 0.0
C1674 C 0.67227 0.91719 0.78234 0.0
C1675 C 0.6972 0.92346 0.78182 0.0
C1676 C 0.71022 0.92578 0.79824 0.0
H1677 H 0.8094 0.9351 0.70112 0.0
H1678 H 0.78398 0.93875 0.72827 0.0
C1679 C 0.69877 0.92062 0.81487 0.0
C1680 C 0.70986 0.92656 0.7641 0.0
H1681 H 0.72442 0.89613 0.72492 0.0
C1682 C 0.72112 0.94909 0.76009 0.0
C1683 C 0.71106 0.9072 0.75126 0.0
C1684 C 0.70053 0.88211 0.75515 0.0
C1685 C 0.73347 0.9528 0.74352 0.0
C1686 C 0.73468 0.93343 0.73075 0.0
C1687 C 0.72317 0.91104 0.73466 0.0
C1688 C 0.74953 0.93506 0.71392 0.0
C1689 C 0.74511 0.97739 0.73977 0.0
C1690 C 0.73855 0.93199 0.69677 0.0
C1691 C 0.75307 0.92992 0.68112 0.0
C1692 C 0.77882 0.93043 0.68246 0.0
C1693 C 0.78963 0.93452 0.6996 0.0
C1694 C 0.77512 0.9368 0.71515 0.0
H1695 H 0.73713 0.99205 0.74846 0.0
H1696 H 0.76505 0.97628 0.74273 0.0
H1697 H 0.74287 0.98262 0.72526 0.0
H1698 H 0.7188 0.93041 0.69559 0.0
H1699 H 0.74417 0.92672 0.66816 0.0
H1700 H 0.57933 0.64616 0.30168 0.0
H1701 H 0.57089 0.66628 0.27269 0.0
H1702 H 0.56392 0.73587 0.30018 0.0
H1703 H 0.57174 0.7157 0.32946 0.0
H1704 H 0.53004 0.72985 0.27181 0.0
H1705 H 0.62456 0.70715 0.24907 0.0
H1706 H 0.60674 0.68086 0.25551 0.0
H1707 H 0.61471 0.70347 0.27234 0.0
C1708 C 0.57571 0.66571 0.30162 0.0
C1709 C 0.5766 0.67942 0.31784 0.0
C1710 C 0.57098 0.67719 0.28502 0.0
C1711 C 0.56747 0.70265 0.28423 0.0
C1712 C 0.56681 0.7162 0.30049 0.0
H1713 H 0.56751 0.81417 0.20219 0.0
H1714 H 0.56264 0.78979 0.22974 0.0
C1715 C 0.57126 0.70466 0.31721 0.0
C1716 C 0.56603 0.71524 0.26637 0.0
H1717 H 0.59853 0.72573 0.22738 0.0
C1718 C 0.54498 0.72894 0.26208 0.0
C1719 C 0.58561 0.71408 0.25371 0.0
C1720 C 0.60928 0.7008 0.25791 0.0
C1721 C 0.54295 0.74141 0.2454 0.0
C1722 C 0.56255 0.74025 0.23281 0.0
C1723 C 0.58343 0.72632 0.237 0.0
C1724 C 0.56274 0.75483 0.2158 0.0
C1725 C 0.51986 0.75567 0.24133 0.0
C1726 C 0.56451 0.74323 0.19878 0.0
C1727 C 0.56733 0.75714 0.1829 0.0
C1728 C 0.56883 0.78289 0.18384 0.0
C1729 C 0.56651 0.79439 0.20092 0.0
C1730 C 0.5635 0.7805 0.21672 0.0
H1731 H 0.50428 0.74952 0.24994 0.0
H1732 H 0.52314 0.7754 0.24414 0.0
H1733 H 0.51463 0.75378 0.22679 0.0
H1734 H 0.56418 0.72339 0.19784 0.0
H1735 H 0.56911 0.7477 0.16999 0.0
H1736 H 0.82253 0.5761 0.8039 0.0
H1737 H 0.79791 0.5685 0.77685 0.0
H1738 H 0.73381 0.55768 0.81029 0.0
H1739 H 0.75837 0.56546 0.83771 0.0
H1740 H 0.76696 0.5276 0.76625 0.0
H1741 H 0.71632 0.6156 0.77547 0.0
H1742 H 0.74442 0.60894 0.78749 0.0
H1743 H 0.71627 0.59459 0.79435 0.0
C1744 C 0.80322 0.57194 0.80562 0.0
C1745 C 0.79236 0.57171 0.82302 0.0
C1746 C 0.78922 0.56747 0.7901 0.0
C1747 C 0.76404 0.56279 0.79157 0.0
C1748 C 0.75322 0.56152 0.8089 0.0
H1749 H 0.65764 0.57047 0.7036 0.0
H1750 H 0.67678 0.56218 0.73294 0.0
C1751 C 0.76728 0.5659 0.82453 0.0
C1752 C 0.74913 0.56095 0.77478 0.0
H1753 H 0.70774 0.59282 0.74921 0.0
C1754 C 0.75378 0.54168 0.76256 0.0
C1755 C 0.73208 0.57942 0.77002 0.0
C1756 C 0.72698 0.60094 0.7824 0.0
C1757 C 0.74191 0.54049 0.7456 0.0
C1758 C 0.72542 0.5594 0.7406 0.0
C1759 C 0.72036 0.57831 0.75305 0.0
C1760 C 0.7138 0.56069 0.72235 0.0
C1761 C 0.74711 0.519 0.73324 0.0
C1762 C 0.72819 0.56209 0.7065 0.0
C1763 C 0.71725 0.56662 0.68958 0.0
C1764 C 0.69176 0.57029 0.6883 0.0
C1765 C 0.67735 0.56794 0.7041 0.0
C1766 C 0.68825 0.56317 0.72092 0.0
H1767 H 0.75348 0.50276 0.74109 0.0
H1768 H 0.73059 0.51377 0.7253 0.0
H1769 H 0.76189 0.52408 0.72356 0.0
H1770 H 0.74799 0.5608 0.7073 0.0
H1771 H 0.72887 0.56846 0.6777 0.0
H1772 H 0.91699 0.82502 0.30404 0.0
H1773 H 0.92498 0.80129 0.27665 0.0
H1774 H 0.93697 0.73648 0.30911 0.0
H1775 H 0.92873 0.76015 0.3369 0.0
H1776 H 0.96626 0.77205 0.26552 0.0
H1777 H 0.88014 0.7182 0.27395 0.0
H1778 H 0.88598 0.74598 0.28659 0.0
H1779 H 0.90119 0.71797 0.29279 0.0
C1780 C 0.92143 0.80574 0.30549 0.0
C1781 C 0.9219 0.79443 0.32272 0.0
C1782 C 0.92614 0.79224 0.28976 0.0
C1783 C 0.93131 0.76712 0.29085 0.0
C1784 C 0.93273 0.75584 0.30801 0.0
H1785 H 0.92742 0.66242 0.20187 0.0
H1786 H 0.93554 0.68147 0.23127 0.0
C1787 C 0.92808 0.7694 0.32386 0.0
C1788 C 0.93364 0.75277 0.27382 0.0
H1789 H 0.90335 0.71088 0.24768 0.0
C1790 C 0.95269 0.75846 0.26165 0.0
C1791 C 0.91581 0.73519 0.26882 0.0
C1792 C 0.89449 0.72899 0.28111 0.0
C1793 C 0.95429 0.7471 0.24451 0.0
C1794 C 0.93605 0.73002 0.23931 0.0
C1795 C 0.91735 0.72395 0.25169 0.0
C1796 C 0.93526 0.71865 0.22096 0.0
C1797 C 0.97549 0.75346 0.2322 0.0
C1798 C 0.93306 0.7332 0.20523 0.0
C1799 C 0.92863 0.7223 0.18827 0.0
C1800 C 0.92588 0.69673 0.18687 0.0
C1801 C 0.92921 0.68221 0.20252 0.0
C1802 C 0.93388 0.69305 0.21935 0.0
H1803 H 0.99143 0.76046 0.24007 0.0
H1804 H 0.98146 0.7373 0.22411 0.0
H1805 H 0.9697 0.7681 0.22262 0.0
H1806 H 0.93352 0.75302 0.20618 0.0
H1807 H 0.92601 0.73396 0.17649 0.0
H1808 H 0.35066 0.00108 0.15458 0.0
H1809 H 0.37504 0.96395 0.15927 0.0
H1810 H 0.43793 0.00823 0.17308 0.0
H1811 H 0.4137 0.04547 0.16864 0.0
H1812 H 0.41723 0.95229 0.13986 0.0
H1813 H 0.43665 0.95676 0.21377 0.0
H1814 H 0.41232 0.9742 0.20317 0.0
H1815 H 0.44353 0.9849 0.20215 0.0
C1816 C 0.3696 0.00293 0.15884 0.0
C1817 C 0.38029 0.0262 0.16126 0.0
C1818 C 0.38345 0.9817 0.16153 0.0
C1819 C 0.40809 0.98341 0.16682 0.0
C1820 C 0.41874 0.00657 0.16942 0.0
H1821 H 0.54027 0.9051 0.16922 0.0
H1822 H 0.50539 0.93282 0.17244 0.0
C1823 C 0.40494 0.02782 0.16672 0.0
C1824 C 0.4234 0.96116 0.16805 0.0
H1825 H 0.46341 0.93112 0.19591 0.0
C1826 C 0.42698 0.94729 0.15219 0.0
C1827 C 0.43595 0.95477 0.1842 0.0
C1828 C 0.43175 0.9683 0.20184 0.0
C1829 C 0.44406 0.92809 0.15172 0.0
C1830 C 0.45751 0.92248 0.16764 0.0
C1831 C 0.45305 0.93557 0.18374 0.0
C1832 C 0.47805 0.9049 0.16728 0.0
C1833 C 0.44861 0.91491 0.13396 0.0
C1834 C 0.47407 0.87995 0.16368 0.0
C1835 C 0.49399 0.86403 0.16174 0.0
C1836 C 0.51812 0.87289 0.16345 0.0
C1837 C 0.52192 0.89774 0.16773 0.0
C1838 C 0.50203 0.91358 0.16964 0.0
H1839 H 0.43959 0.92422 0.12229 0.0
H1840 H 0.4686 0.91361 0.13116 0.0
H1841 H 0.44124 0.89597 0.13487 0.0
H1842 H 0.45561 0.87292 0.16205 0.0
H1843 H 0.49049 0.84495 0.15852 0.0
H1844 H 0.56759 0.56826 0.66357 0.0
H1845 H 0.53375 0.53862 0.66386 0.0
H1846 H 0.58511 0.47968 0.65458 0.0
H1847 H 0.61892 0.50895 0.65415 0.0
H1848 H 0.54265 0.48198 0.63037 0.0
H1849 H 0.51871 0.48586 0.70411 0.0
H1850 H 0.52149 0.51442 0.69195 0.0
H1851 H 0.54819 0.49582 0.69563 0.0
C1852 C 0.57167 0.54896 0.66171 0.0
C1853 C 0.59591 0.54091 0.65889 0.0
C1854 C 0.55236 0.53211 0.66195 0.0
C1855 C 0.55709 0.50706 0.65938 0.0
C1856 C 0.58122 0.49899 0.65664 0.0
H1857 H 0.49179 0.36693 0.6514 0.0
H1858 H 0.51731 0.40366 0.65199 0.0
C1859 C 0.60049 0.51574 0.65644 0.0
C1860 C 0.53696 0.48906 0.65889 0.0
H1861 H 0.4968 0.45785 0.68592 0.0
C1862 C 0.53243 0.47683 0.64245 0.0
C1863 C 0.52364 0.48267 0.67468 0.0
C1864 C 0.52821 0.49522 0.69267 0.0
C1865 C 0.51532 0.45774 0.64149 0.0
C1866 C 0.50285 0.45052 0.65748 0.0
C1867 C 0.50656 0.46346 0.67375 0.0
C1868 C 0.48727 0.42846 0.65778 0.0
C1869 C 0.51099 0.44521 0.62346 0.0
C1870 C 0.46209 0.43029 0.6614 0.0
C1871 C 0.44741 0.40929 0.66116 0.0
C1872 C 0.45783 0.38619 0.65744 0.0
C1873 C 0.48319 0.38444 0.65427 0.0
C1874 C 0.49779 0.4054 0.65449 0.0
H1875 H 0.51648 0.45709 0.61186 0.0
H1876 H 0.52216 0.42819 0.62283 0.0
H1877 H 0.49139 0.44009 0.62182 0.0
H1878 H 0.45377 0.44798 0.66409 0.0
H1879 H 0.42792 0.41119 0.66369 0.0
H1880 H 0.07739 0.42828 0.17095 0.0
H1881 H 0.04164 0.4553 0.17362 0.0
H1882 H 0.08749 0.51813 0.16281 0.0
H1883 H 0.12331 0.49143 0.16024 0.0
H1884 H 0.05398 0.52302 0.19318 0.0
H1885 H 0.009 0.49041 0.12947 0.0
H1886 H 0.01776 0.46746 0.14584 0.0
H1887 H 0.04101 0.48475 0.13425 0.0
C1888 C 0.07987 0.44786 0.16919 0.0
C1889 C 0.10314 0.45775 0.16533 0.0
C1890 C 0.05943 0.46321 0.17066 0.0
C1891 C 0.062 0.48858 0.16823 0.0
C1892 C 0.08523 0.49853 0.16471 0.0
H1893 H 0.98536 0.62214 0.15856 0.0
H1894 H 0.01393 0.58828 0.16306 0.0
C1895 C 0.10564 0.48325 0.16323 0.0
C1896 C 0.04054 0.50499 0.16908 0.0
H1897 H 0.9896 0.52239 0.1454 0.0
C1898 C 0.03973 0.52276 0.18287 0.0
C1899 C 0.02199 0.50437 0.15565 0.0
C1900 C 0.0224 0.48586 0.14036 0.0
C1901 C 0.02115 0.5405 0.18327 0.0
C1902 C 0.00327 0.54062 0.16934 0.0
C1903 C 0.00342 0.52217 0.15603 0.0
C1904 C 0.98568 0.561 0.16736 0.0
C1905 C 0.02103 0.55921 0.19841 0.0
C1906 C 0.96033 0.55667 0.16787 0.0
C1907 C 0.94386 0.57601 0.16521 0.0
C1908 C 0.9526 0.59986 0.16185 0.0
C1909 C 0.97803 0.60402 0.16125 0.0
C1910 C 0.99441 0.58474 0.16393 0.0
H1911 H 0.03087 0.55232 0.21063 0.0
H1912 H 0.03051 0.57608 0.19371 0.0
H1913 H 0.00199 0.56421 0.20234 0.0
H1914 H 0.95332 0.53836 0.17031 0.0
H1915 H 0.92435 0.57224 0.16569 0.0
H1916 H 0.84634 0.0045 0.65516 0.0
H1917 H 0.876 0.03821 0.65691 0.0
H1918 H 0.93352 0.98657 0.66953 0.0
H1919 H 0.90421 0.9528 0.66781 0.0
H1920 H 0.91066 0.0514 0.6871 0.0
H1921 H 0.95535 0.02428 0.62216 0.0
H1922 H 0.92487 0.01431 0.62839 0.0
H1923 H 0.95132 -0.00028 0.63821 0.0
C1924 C 0.86527 0.00034 0.65846 0.0
C1925 C 0.873 0.97598 0.66123 0.0
C1926 C 0.88211 0.0196 0.65947 0.0
C1927 C 0.90686 0.0147 0.66314 0.0
C1928 C 0.91447 0.99056 0.66648 0.0
H1929 H 0.04566 0.08351 0.67021 0.0
H1930 H 0.00951 0.05718 0.67133 0.0
C1931 C 0.8977 0.97133 0.66551 0.0
C1932 C 0.92513 0.03457 0.66285 0.0
H1933 H 0.9766 0.05326 0.64051 0.0
C1934 C 0.92495 0.05209 0.67683 0.0
C1935 C 0.9435 0.03534 0.64931 0.0
C1936 C 0.94375 0.01756 0.63355 0.0
C1937 C 0.94358 0.06979 0.67811 0.0
C1938 C 0.9625 0.06988 0.66497 0.0
C1939 C 0.9621 0.05291 0.65063 0.0
C1940 C 0.98369 0.08654 0.66619 0.0
C1941 C 0.94352 0.0876 0.69382 0.0
C1942 C 0.98096 0.11178 0.66314 0.0
C1943 C 0.00161 0.12694 0.66248 0.0
C1944 C 0.02523 0.11695 0.66477 0.0
C1945 C 0.02774 0.09175 0.66835 0.0
C1946 C 0.00713 0.07668 0.66901 0.0
H1947 H 0.92963 0.08272 0.70428 0.0
H1948 H 0.9619 0.08823 0.70033 0.0
H1949 H 0.93931 0.10629 0.68868 0.0
H1950 H 0.96298 0.11959 0.66067 0.0
H1951 H -0.00089 0.14628 0.6596 0.0
H1952 H 0.58732 0.5536 0.33967 0.0
H1953 H 0.56149 0.51736 0.33461 0.0
H1954 H 0.49687 0.56306 0.33618 0.0
H1955 H 0.52228 0.59917 0.34115 0.0
H1956 H 0.52399 0.50092 0.35836 0.0
H1957 H 0.48702 0.52162 0.28998 0.0
H1958 H 0.51441 0.53602 0.29883 0.0
H1959 H 0.48455 0.54735 0.30511 0.0
C1960 C 0.56761 0.55592 0.33875 0.0
C1961 C 0.55681 0.57923 0.34076 0.0
C1962 C 0.55295 0.53525 0.33583 0.0
C1963 C 0.52739 0.5377 0.33467 0.0
C1964 C 0.51663 0.56093 0.33659 0.0
H1965 H 0.39148 0.47542 0.34663 0.0
H1966 H 0.42927 0.49827 0.34147 0.0
C1967 C 0.53119 0.58151 0.33957 0.0
C1968 C 0.51144 0.51599 0.33292 0.0
H1969 H 0.46208 0.49516 0.30902 0.0
C1970 C 0.51087 0.49913 0.34733 0.0
C1971 C 0.49453 0.51375 0.31844 0.0
C1972 C 0.4953 0.53052 0.30212 0.0
C1973 C 0.49235 0.48135 0.34844 0.0
C1974 C 0.47427 0.48045 0.33468 0.0
C1975 C 0.47596 0.49608 0.31958 0.0
C1976 C 0.45166 0.46603 0.33701 0.0
C1977 C 0.49109 0.46489 0.36492 0.0
C1978 C 0.45187 0.44035 0.33606 0.0
C1979 C 0.43024 0.42715 0.339 0.0
C1980 C 0.4082 0.43956 0.34292 0.0
C1981 C 0.40813 0.46531 0.34365 0.0
C1982 C 0.42967 0.47841 0.34066 0.0
H1983 H 0.50561 0.46918 0.37505 0.0
H1984 H 0.4729 0.4667 0.37161 0.0
H1985 H 0.49322 0.44548 0.36063 0.0
H1986 H 0.46873 0.43057 0.33314 0.0
H1987 H 0.43082 0.4073 0.33833 0.0
H1988 H 0.06095 0.42531 0.84047 0.0
H1989 H 0.02532 0.45183 0.83594 0.0
H1990 H 0.97736 0.38915 0.84009 0.0
H1991 H 0.01286 0.36241 0.84489 0.0
H1992 H 0.98634 0.4503 0.80953 0.0
H1993 H 0.95416 0.4363 0.88074 0.0
H1994 H 0.98462 0.42785 0.8734 0.0
H1995 H 0.95882 0.409 0.86745 0.0
C1996 C 0.04284 0.41711 0.84031 0.0
C1997 C 0.03968 0.39181 0.84322 0.0
C1998 C 0.02255 0.43227 0.83765 0.0
C1999 C -0.00119 0.42241 0.8379 0.0
C2000 C 0.99559 0.39707 0.8401 0.0
H2001 H 0.86073 0.50221 0.84462 0.0
H2002 H 0.89068 0.46938 0.84027 0.0
C2003 C 0.01588 0.38186 0.84279 0.0
C2004 C 0.97749 0.43899 0.83684 0.0
H2005 H 0.93085 0.46266 0.8623 0.0
C2006 C 0.97405 0.45291 0.82099 0.0
C2007 C 0.96157 0.44223 0.85184 0.0
C2008 C 0.96497 0.42823 0.8694 0.0
C2009 C 0.95517 0.47033 0.81982 0.0
C2010 C 0.93974 0.47409 0.83503 0.0
C2011 C 0.94275 0.45965 0.85066 0.0
C2012 C 0.92126 0.49387 0.83555 0.0
C2013 C 0.95194 0.48457 0.80238 0.0
C2014 C 0.9286 0.51848 0.83427 0.0
C2015 C 0.91156 0.53731 0.83673 0.0
C2016 C 0.88694 0.53178 0.84068 0.0
C2017 C 0.87956 0.50708 0.84159 0.0
C2018 C 0.89661 0.48829 0.83908 0.0
H2019 H 0.95997 0.47464 0.79058 0.0
H2020 H 0.93224 0.4882 0.79958 0.0
H2021 H 0.96151 0.50247 0.80361 0.0
H2022 H 0.94767 0.52314 0.83198 0.0
H2023 H 0.91781 0.55615 0.83602 0.0
H2024 H 0.9425 0.9167 0.33456 0.0
H2025 H 0.97674 0.94426 0.32825 0.0
H2026 H 0.02793 0.88541 0.33841 0.0
H2027 H 0.99382 0.85774 0.34505 0.0
H2028 H 0.03751 0.92698 0.3581 0.0
H2029 H 0.02408 0.95046 0.2855 0.0
H2030 H -0.00338 0.95437 0.29867 0.0
H2031 H 0.00966 0.92422 0.29605 0.0
C2032 C 0.96102 0.90953 0.33524 0.0
C2033 C 0.96548 0.8851 0.34036 0.0
C2034 C 0.98054 0.92523 0.33144 0.0
C2035 C 0.00479 0.9167 0.33254 0.0
C2036 C 0.0093 0.8922 0.33731 0.0
H2037 H 0.13563 0.0101 0.33775 0.0
H2038 H 0.11037 0.97352 0.33326 0.0
C2039 C 0.98979 0.87648 0.34114 0.0
C2040 C 0.02532 0.9341 0.33072 0.0
H2041 H 0.04855 0.97871 0.30314 0.0
C2042 C 0.04032 0.93796 0.34596 0.0
C2043 C 0.02884 0.9483 0.31485 0.0
C2044 C 0.01409 0.94397 0.29777 0.0
C2045 C 0.0578 0.95676 0.34617 0.0
C2046 C 0.0605 0.97174 0.3306 0.0
C2047 C 0.04631 0.96716 0.31504 0.0
C2048 C 0.07628 0.99364 0.33093 0.0
C2049 C 0.07223 0.96133 0.36339 0.0
C2050 C 0.06546 0.01696 0.33041 0.0
C2051 C 0.07977 0.03787 0.3329 0.0
C2052 C 0.10514 0.03572 0.33591 0.0
C2053 C 0.11609 0.01234 0.33559 0.0
C2054 C 0.10174 0.99143 0.33306 0.0
H2055 H 0.06489 0.95079 0.37513 0.0
H2056 H 0.09159 0.95573 0.36125 0.0
H2057 H 0.07207 0.98115 0.36692 0.0
H2058 H 0.04579 0.01893 0.32877 0.0
H2059 H 0.07083 0.05564 0.33297 0.0
H2060 H 0.59555 0.9711 0.83802 0.0
H2061 H 0.55988 -0.0026 0.83359 0.0
H2062 H 0.51297 0.93376 0.83115 0.0
H2063 H 0.5487 0.90707 0.83573 0.0
H2064 H 0.52372 -0.00292 0.80436 0.0
H2065 H 0.4847 0.97727 0.87304 0.0
H2066 H 0.51621 0.9703 0.86748 0.0
H2067 H 0.49192 0.95183 0.85836 0.0
C2068 C 0.57771 0.96261 0.83644 0.0
C2069 C 0.57492 0.93701 0.83732 0.0
C2070 C 0.55737 0.97767 0.83385 0.0
C2071 C 0.53388 0.96746 0.83217 0.0
C2072 C 0.53099 0.94191 0.8326 0.0
H2073 H 0.40794 0.06831 0.84043 0.0
H2074 H 0.42945 0.0296 0.83424 0.0
C2075 C 0.5514 0.92675 0.83517 0.0
C2076 C 0.51258 0.98403 0.83077 0.0
H2077 H 0.46731 0.00968 0.85656 0.0
C2078 C 0.511 -0.00047 0.81558 0.0
C2079 C 0.49598 0.98696 0.84539 0.0
C2080 C 0.49718 0.97085 0.86207 0.0
C2081 C 0.49416 0.01894 0.81513 0.0
C2082 C 0.47889 0.02304 0.83037 0.0
C2083 C 0.47916 0.00643 0.84494 0.0
C2084 C 0.46539 0.04629 0.83266 0.0
C2085 C 0.49357 0.03552 0.7987 0.0
C2086 C 0.47861 0.06827 0.83402 0.0
C2087 C 0.46653 0.09023 0.83767 0.0
C2088 C 0.44096 0.09061 0.84008 0.0
C2089 C 0.42766 0.06857 0.83857 0.0
C2090 C 0.43985 0.0465 0.83501 0.0
H2091 H 0.49995 0.02574 0.78629 0.0
H2092 H 0.4748 0.04275 0.79624 0.0
H2093 H 0.50605 0.0513 0.80102 0.0
H2094 H 0.49841 0.06834 0.83268 0.0
H2095 H 0.47731 0.10686 0.83879 0.0
loop_
_geom_bond_atom_site_label_1
_geom_bond_atom_site_label_2
_geom_bond_distance
_geom_bond_site_symmetry_2
_ccdc_geom_bond_type
Co0 O2 2.143 . S
Co0 O8 2.074 . S
Co0 O11 2.093 . S
Co0 O24 2.097 . S
Co0 N41 2.151 . S
Co0 N49 2.214 . S
Co1 O2 2.160 . S
Co1 O7 2.058 . S
Co1 O17 2.057 . S
Co1 O32 2.037 . S
Co1 N36 2.145 . S
Co1 N57 2.257 . S
O2 Co0 2.143 . S
O2 Co1 2.160 . S
C3 O4 1.278 . S
C3 O11 1.224 . S
O4 C3 1.278 . S
C5 O6 1.245 . S
C5 O17 1.232 . S
O6 C5 1.245 . S
O7 Co1 2.058 . S
O7 C33 1.269 . S
O8 Co0 2.074 . S
O8 C33 1.257 . S
H9 C34 0.930 . S
H10 C40 0.930 . S
O11 Co0 2.093 . S
O11 C3 1.224 . S
H12 C44 0.929 . S
H13 C46 0.930 . S
H14 C47 0.930 . S
H15 C45 0.929 . S
H16 C48 0.928 . S
O17 Co1 2.057 . S
O17 C5 1.232 . S
H18 C37 0.929 . S
H19 C38 0.929 . S
H20 C50 0.931 . S
H21 C42 0.929 . S
H22 C51 0.930 . S
H23 C43 0.931 1_565 S
O24 Co0 2.097 . S
O24 C52 1.214 . S
H25 C53 0.929 . S
H26 C54 0.929 . S
H27 C55 0.930 . S
H28 C56 0.929 . S
H29 C58 0.930 . S
H30 C35 0.930 . S
H31 C39 0.930 . S
O32 Co1 2.037 . S
O32 C52 1.234 . S
C33 O7 1.269 . S
C33 O8 1.257 . S
C34 H9 0.930 . S
C34 C37 1.388 . S
C34 C39 1.418 . S
C35 H30 0.930 . S
C35 C38 1.404 . S
C35 C39 1.353 . S
N36 Co1 2.145 . S
N36 C37 1.397 . S
N36 C38 1.334 . S
C37 H18 0.929 . S
C37 C34 1.388 . S
C37 N36 1.397 . S
C38 H19 0.929 . S
C38 C35 1.404 . S
C38 N36 1.334 . S
C39 H31 0.930 . S
C39 C34 1.418 . S
C39 C35 1.353 . S
C40 H10 0.930 . S
C40 N41 1.330 . S
C40 C42 1.446 . S
N41 Co0 2.151 . S
N41 C40 1.330 . S
N41 C45 1.418 . S
C42 H21 0.929 . S
C42 C40 1.446 . S
C42 C43 1.332 . S
C43 H23 0.931 1_545 S
C43 C42 1.332 . S
C43 C44 1.267 . S
C44 H12 0.929 . S
C44 C43 1.267 . S
C44 C45 1.251 . S
C45 H15 0.929 . S
C45 N41 1.418 . S
C45 C44 1.251 . S
C46 H13 0.930 . S
C46 C48 1.406 . S
C46 C51 1.261 . S
C47 H14 0.930 . S
C47 N49 1.325 . S
C47 C50 1.357 . S
C48 H16 0.928 . S
C48 C46 1.406 . S
C48 N49 1.261 . S
N49 Co0 2.214 . S
N49 C47 1.325 . S
N49 C48 1.261 . S
C50 H20 0.931 . S
C50 C47 1.357 . S
C50 C51 1.312 . S
C51 H22 0.930 . S
C51 C46 1.261 . S
C51 C50 1.312 . S
C52 O24 1.214 . S
C52 O32 1.234 . S
C53 H25 0.929 . S
C53 C56 1.391 . S
C53 C58 1.391 . S
C54 H26 0.929 . S
C54 C55 1.390 . S
C54 N57 1.391 . S
C55 H27 0.930 . S
C55 C54 1.390 . S
C55 C56 1.392 . S
C56 H28 0.929 . S
C56 C53 1.391 . S
C56 C55 1.392 . S
N57 Co1 2.257 . S
N57 C54 1.391 . S
N57 C58 1.388 . S
C58 H29 0.930 . S
C58 C53 1.391 . S
C58 N57 1.388 . S
Co59 O61 2.143 . S
Co59 O67 2.074 . S
Co59 O70 2.093 . S
Co59 O83 2.097 . S
Co59 N100 2.151 . S
Co59 N108 2.214 . S
Co60 O61 2.160 . S
Co60 O66 2.058 . S
Co60 O76 2.057 . S
Co60 O91 2.037 . S
Co60 N95 2.145 . S
Co60 N116 2.257 . S
O61 Co59 2.143 . S
O61 Co60 2.160 . S
C62 O63 1.278 . S
C62 O70 1.224 . S
O63 C62 1.278 . S
C64 O65 1.245 . S
C64 O76 1.232 . S
O65 C64 1.245 . S
O66 Co60 2.058 . S
O66 C92 1.269 . S
O67 Co59 2.074 . S
O67 C92 1.257 . S
H68 C93 0.930 . S
H69 C99 0.930 . S
O70 Co59 2.093 . S
O70 C62 1.224 . S
H71 C103 0.929 . S
H72 C105 0.930 . S
H73 C106 0.930 . S
H74 C104 0.929 . S
H75 C107 0.928 . S
O76 Co60 2.057 . S
O76 C64 1.232 . S
H77 C96 0.929 . S
H78 C97 0.929 . S
H79 C109 0.931 . S
H80 C101 0.929 . S
H81 C110 0.930 . S
H82 C102 0.931 . S
O83 Co59 2.097 . S
O83 C111 1.214 . S
H84 C112 0.929 . S
H85 C113 0.929 . S
H86 C114 0.930 . S
H87 C115 0.929 . S
H88 C117 0.930 . S
H89 C94 0.930 . S
H90 C98 0.930 . S
O91 Co60 2.037 . S
O91 C111 1.234 . S
C92 O66 1.269 . S
C92 O67 1.257 . S
C93 H68 0.930 . S
C93 C96 1.388 . S
C93 C98 1.418 . S
C94 H89 0.930 . S
C94 C97 1.404 . S
C94 C98 1.353 . S
N95 Co60 2.145 . S
N95 C96 1.397 . S
N95 C97 1.334 . S
C96 H77 0.929 . S
C96 C93 1.388 . S
C96 N95 1.397 . S
C97 H78 0.929 . S
C97 C94 1.404 . S
C97 N95 1.334 . S
C98 H90 0.930 . S
C98 C93 1.418 . S
C98 C94 1.353 . S
C99 H69 0.930 . S
C99 N100 1.330 . S
C99 C101 1.446 . S
N100 Co59 2.151 . S
N100 C99 1.330 . S
N100 C104 1.418 . S
C101 H80 0.929 . S
C101 C99 1.446 . S
C101 C102 1.332 . S
C102 H82 0.931 . S
C102 C101 1.332 . S
C102 C103 1.267 . S
C103 H71 0.929 . S
C103 C102 1.267 . S
C103 C104 1.251 . S
C104 H74 0.929 . S
C104 N100 1.418 . S
C104 C103 1.251 . S
C105 H72 0.930 . S
C105 C107 1.406 . S
C105 C110 1.261 . S
C106 H73 0.930 . S
C106 N108 1.325 . S
C106 C109 1.357 . S
C107 H75 0.928 . S
C107 C105 1.406 . S
C107 N108 1.261 . S
N108 Co59 2.214 . S
N108 C106 1.325 . S
N108 C107 1.261 . S
C109 H79 0.931 . S
C109 C106 1.357 . S
C109 C110 1.312 . S
C110 H81 0.930 . S
C110 C105 1.261 . S
C110 C109 1.312 . S
C111 O83 1.214 . S
C111 O91 1.234 . S
C112 H84 0.929 . S
C112 C115 1.391 . S
C112 C117 1.391 . S
C113 H85 0.929 . S
C113 C114 1.390 . S
C113 N116 1.391 . S
C114 H86 0.930 . S
C114 C113 1.390 . S
C114 C115 1.392 . S
C115 H87 0.929 . S
C115 C112 1.391 . S
C115 C114 1.392 . S
N116 Co60 2.257 . S
N116 C113 1.391 . S
N116 C117 1.388 . S
C117 H88 0.930 . S
C117 C112 1.391 . S
C117 N116 1.388 . S
Co118 O120 2.143 . S
Co118 O126 2.074 . S
Co118 O129 2.093 . S
Co118 O142 2.097 . S
Co118 N159 2.151 . S
Co118 N167 2.214 . S
Co119 O120 2.160 . S
Co119 O125 2.058 . S
Co119 O135 2.057 . S
Co119 O150 2.037 . S
Co119 N154 2.145 . S
Co119 N175 2.257 . S
O120 Co118 2.143 . S
O120 Co119 2.160 . S
C121 O122 1.278 . S
C121 O129 1.224 . S
O122 C121 1.278 . S
C123 O124 1.245 . S
C123 O135 1.232 . S
O124 C123 1.245 . S
O125 Co119 2.058 . S
O125 C151 1.269 . S
O126 Co118 2.074 . S
O126 C151 1.257 . S
H127 C152 0.930 . S
H128 C158 0.930 . S
O129 Co118 2.093 . S
O129 C121 1.224 . S
H130 C162 0.929 . S
H131 C164 0.930 . S
H132 C165 0.930 . S
H133 C163 0.929 . S
H134 C166 0.928 . S
O135 Co119 2.057 . S
O135 C123 1.232 . S
H136 C155 0.929 . S
H137 C156 0.929 . S
H138 C168 0.931 . S
H139 C160 0.929 . S
H140 C169 0.930 . S
H141 C161 0.931 . S
O142 Co118 2.097 . S
O142 C170 1.214 . S
H143 C171 0.929 . S
H144 C172 0.929 . S
H145 C173 0.930 . S
H146 C174 0.929 . S
H147 C176 0.930 . S
H148 C153 0.930 . S
H149 C157 0.930 . S
O150 Co119 2.037 . S
O150 C170 1.234 . S
C151 O125 1.269 . S
C151 O126 1.257 . S
C152 H127 0.930 . S
C152 C155 1.388 . S
C152 C157 1.418 . S
C153 H148 0.930 . S
C153 C156 1.404 . S
C153 C157 1.353 . S
N154 Co119 2.145 . S
N154 C155 1.397 . S
N154 C156 1.334 . S
C155 H136 0.929 . S
C155 C152 1.388 . S
C155 N154 1.397 . S
C156 H137 0.929 . S
C156 C153 1.404 . S
C156 N154 1.334 . S
C157 H149 0.930 . S
C157 C152 1.418 . S
C157 C153 1.353 . S
C158 H128 0.930 . S
C158 N159 1.330 . S
C158 C160 1.446 . S
N159 Co118 2.151 . S
N159 C158 1.330 . S
N159 C163 1.418 . S
C160 H139 0.929 . S
C160 C158 1.446 . S
C160 C161 1.332 . S
C161 H141 0.931 . S
C161 C160 1.332 . S
C161 C162 1.267 . S
C162 H130 0.929 . S
C162 C161 1.267 . S
C162 C163 1.251 . S
C163 H133 0.929 . S
C163 N159 1.418 . S
C163 C162 1.251 . S
C164 H131 0.930 . S
C164 C166 1.406 . S
C164 C169 1.261 . S
C165 H132 0.930 . S
C165 N167 1.325 . S
C165 C168 1.357 . S
C166 H134 0.928 . S
C166 C164 1.406 . S
C166 N167 1.261 . S
N167 Co118 2.214 . S
N167 C165 1.325 . S
N167 C166 1.261 . S
C168 H138 0.931 . S
C168 C165 1.357 . S
C168 C169 1.312 . S
C169 H140 0.930 . S
C169 C164 1.261 . S
C169 C168 1.312 . S
C170 O142 1.214 . S
C170 O150 1.234 . S
C171 H143 0.929 . S
C171 C174 1.391 . S
C171 C176 1.391 . S
C172 H144 0.929 . S
C172 C173 1.390 . S
C172 N175 1.391 . S
C173 H145 0.930 . S
C173 C172 1.390 . S
C173 C174 1.392 . S
C174 H146 0.929 . S
C174 C171 1.391 . S
C174 C173 1.392 . S
N175 Co119 2.257 . S
N175 C172 1.391 . S
N175 C176 1.388 . S
C176 H147 0.930 . S
C176 C171 1.391 . S
C176 N175 1.388 . S
Co177 O179 2.143 . S
Co177 O185 2.074 . S
Co177 O188 2.093 . S
Co177 O201 2.097 . S
Co177 N218 2.151 . S
Co177 N226 2.214 . S
Co178 O179 2.160 . S
Co178 O184 2.058 . S
Co178 O194 2.057 . S
Co178 O209 2.037 . S
Co178 N213 2.145 . S
Co178 N234 2.257 . S
O179 Co177 2.143 . S
O179 Co178 2.160 . S
C180 O181 1.278 . S
C180 O188 1.224 . S
O181 C180 1.278 . S
C182 O183 1.245 . S
C182 O194 1.232 . S
O183 C182 1.245 . S
O184 Co178 2.058 . S
O184 C210 1.269 . S
O185 Co177 2.074 . S
O185 C210 1.257 . S
H186 C211 0.930 . S
H187 C217 0.930 . S
O188 Co177 2.093 . S
O188 C180 1.224 . S
H189 C221 0.929 . S
H190 C223 0.930 . S
H191 C224 0.930 . S
H192 C222 0.929 . S
H193 C225 0.928 . S
O194 Co178 2.057 . S
O194 C182 1.232 . S
H195 C214 0.929 . S
H196 C215 0.929 . S
H197 C227 0.931 . S
H198 C219 0.929 . S
H199 C228 0.930 . S
H200 C220 0.931 1_655 S
O201 Co177 2.097 . S
O201 C229 1.214 . S
H202 C230 0.929 . S
H203 C231 0.929 . S
H204 C232 0.930 . S
H205 C233 0.929 . S
H206 C235 0.930 . S
H207 C212 0.930 . S
H208 C216 0.930 . S
O209 Co178 2.037 . S
O209 C229 1.234 . S
C210 O184 1.269 . S
C210 O185 1.257 . S
C211 H186 0.930 . S
C211 C214 1.388 . S
C211 C216 1.418 . S
C212 H207 0.930 . S
C212 C215 1.404 . S
C212 C216 1.353 . S
N213 Co178 2.145 . S
N213 C214 1.397 . S
N213 C215 1.334 . S
C214 H195 0.929 . S
C214 C211 1.388 . S
C214 N213 1.397 . S
C215 H196 0.929 . S
C215 C212 1.404 . S
C215 N213 1.334 . S
C216 H208 0.930 . S
C216 C211 1.418 . S
C216 C212 1.353 . S
C217 H187 0.930 . S
C217 N218 1.330 . S
C217 C219 1.446 . S
N218 Co177 2.151 . S
N218 C217 1.330 . S
N218 C222 1.418 . S
C219 H198 0.929 . S
C219 C217 1.446 . S
C219 C220 1.332 . S
C220 H200 0.931 1_455 S
C220 C219 1.332 . S
C220 C221 1.267 . S
C221 H189 0.929 . S
C221 C220 1.267 . S
C221 C222 1.251 . S
C222 H192 0.929 . S
C222 N218 1.418 . S
C222 C221 1.251 . S
C223 H190 0.930 . S
C223 C225 1.406 . S
C223 C228 1.261 . S
C224 H191 0.930 . S
C224 N226 1.325 . S
C224 C227 1.357 . S
C225 H193 0.928 . S
C225 C223 1.406 . S
C225 N226 1.261 . S
N226 Co177 2.214 . S
N226 C224 1.325 . S
N226 C225 1.261 . S
C227 H197 0.931 . S
C227 C224 1.357 . S
C227 C228 1.312 . S
C228 H199 0.930 . S
C228 C223 1.261 . S
C228 C227 1.312 . S
C229 O201 1.214 . S
C229 O209 1.234 . S
C230 H202 0.929 . S
C230 C233 1.391 . S
C230 C235 1.391 . S
C231 H203 0.929 . S
C231 C232 1.390 . S
C231 N234 1.391 . S
C232 H204 0.930 . S
C232 C231 1.390 . S
C232 C233 1.392 . S
C233 H205 0.929 . S
C233 C230 1.391 . S
C233 C232 1.392 . S
N234 Co178 2.257 . S
N234 C231 1.391 . S
N234 C235 1.388 . S
C235 H206 0.930 . S
C235 C230 1.391 . S
C235 N234 1.388 . S
Co236 O238 2.143 . S
Co236 O244 2.074 . S
Co236 O247 2.093 . S
Co236 O260 2.097 . S
Co236 N277 2.151 . S
Co236 N285 2.214 . S
Co237 O238 2.160 . S
Co237 O243 2.058 . S
Co237 O253 2.057 . S
Co237 O268 2.037 . S
Co237 N272 2.145 . S
Co237 N293 2.257 . S
O238 Co236 2.143 . S
O238 Co237 2.160 . S
C239 O240 1.278 . S
C239 O247 1.224 . S
O240 C239 1.278 . S
C241 O242 1.245 . S
C241 O253 1.232 . S
O242 C241 1.245 . S
O243 Co237 2.058 . S
O243 C269 1.269 . S
O244 Co236 2.074 . S
O244 C269 1.257 . S
H245 C270 0.930 . S
H246 C276 0.930 . S
O247 Co236 2.093 . S
O247 C239 1.224 . S
H248 C280 0.929 . S
H249 C282 0.930 . S
H250 C283 0.930 . S
H251 C281 0.929 . S
H252 C284 0.928 . S
O253 Co237 2.057 . S
O253 C241 1.232 . S
H254 C273 0.929 . S
H255 C274 0.929 . S
H256 C286 0.931 . S
H257 C278 0.929 . S
H258 C287 0.930 . S
H259 C279 0.931 . S
O260 Co236 2.097 . S
O260 C288 1.214 . S
H261 C289 0.929 . S
H262 C290 0.929 . S
H263 C291 0.930 . S
H264 C292 0.929 . S
H265 C294 0.930 . S
H266 C271 0.930 . S
H267 C275 0.930 . S
O268 Co237 2.037 . S
O268 C288 1.234 . S
C269 O243 1.269 . S
C269 O244 1.257 . S
C270 H245 0.930 . S
C270 C273 1.388 . S
C270 C275 1.418 . S
C271 H266 0.930 . S
C271 C274 1.404 . S
C271 C275 1.353 . S
N272 Co237 2.145 . S
N272 C273 1.397 . S
N272 C274 1.334 . S
C273 H254 0.929 . S
C273 C270 1.388 . S
C273 N272 1.397 . S
C274 H255 0.929 . S
C274 C271 1.404 . S
C274 N272 1.334 . S
C275 H267 0.930 . S
C275 C270 1.418 . S
C275 C271 1.353 . S
C276 H246 0.930 . S
C276 N277 1.330 . S
C276 C278 1.446 . S
N277 Co236 2.151 . S
N277 C276 1.330 . S
N277 C281 1.418 . S
C278 H257 0.929 . S
C278 C276 1.446 . S
C278 C279 1.332 . S
C279 H259 0.931 . S
C279 C278 1.332 . S
C279 C280 1.267 . S
C280 H248 0.929 . S
C280 C279 1.267 . S
C280 C281 1.251 . S
C281 H251 0.929 . S
C281 N277 1.418 . S
C281 C280 1.251 . S
C282 H249 0.930 . S
C282 C284 1.406 . S
C282 C287 1.261 . S
C283 H250 0.930 . S
C283 N285 1.325 . S
C283 C286 1.357 . S
C284 H252 0.928 . S
C284 C282 1.406 . S
C284 N285 1.261 . S
N285 Co236 2.214 . S
N285 C283 1.325 . S
N285 C284 1.261 . S
C286 H256 0.931 . S
C286 C283 1.357 . S
C286 C287 1.312 . S
C287 H258 0.930 . S
C287 C282 1.261 . S
C287 C286 1.312 . S
C288 O260 1.214 . S
C288 O268 1.234 . S
C289 H261 0.929 . S
C289 C292 1.391 . S
C289 C294 1.391 . S
C290 H262 0.929 . S
C290 C291 1.390 . S
C290 N293 1.391 . S
C291 H263 0.930 . S
C291 C290 1.390 . S
C291 C292 1.392 . S
C292 H264 0.929 . S
C292 C289 1.391 . S
C292 C291 1.392 . S
N293 Co237 2.257 . S
N293 C290 1.391 . S
N293 C294 1.388 . S
C294 H265 0.930 . S
C294 C289 1.391 . S
C294 N293 1.388 . S
Co295 O297 2.143 . S
Co295 O303 2.074 . S
Co295 O306 2.093 . S
Co295 O319 2.097 . S
Co295 N336 2.151 . S
Co295 N344 2.214 . S
Co296 O297 2.160 . S
Co296 O302 2.058 . S
Co296 O312 2.057 . S
Co296 O327 2.037 . S
Co296 N331 2.145 . S
Co296 N352 2.257 . S
O297 Co295 2.143 . S
O297 Co296 2.160 . S
C298 O299 1.278 . S
C298 O306 1.224 . S
O299 C298 1.278 . S
C300 O301 1.245 . S
C300 O312 1.232 . S
O301 C300 1.245 . S
O302 Co296 2.058 . S
O302 C328 1.269 . S
O303 Co295 2.074 . S
O303 C328 1.257 . S
H304 C329 0.930 . S
H305 C335 0.930 . S
O306 Co295 2.093 . S
O306 C298 1.224 . S
H307 C339 0.929 . S
H308 C341 0.930 . S
H309 C342 0.930 . S
H310 C340 0.929 . S
H311 C343 0.928 . S
O312 Co296 2.057 . S
O312 C300 1.232 . S
H313 C332 0.929 . S
H314 C333 0.929 . S
H315 C345 0.931 . S
H316 C337 0.929 . S
H317 C346 0.930 . S
H318 C338 0.931 1_655 S
O319 Co295 2.097 . S
O319 C347 1.214 . S
H320 C348 0.929 . S
H321 C349 0.929 . S
H322 C350 0.930 . S
H323 C351 0.929 . S
H324 C353 0.930 . S
H325 C330 0.930 . S
H326 C334 0.930 . S
O327 Co296 2.037 . S
O327 C347 1.234 . S
C328 O302 1.269 . S
C328 O303 1.257 . S
C329 H304 0.930 . S
C329 C332 1.388 . S
C329 C334 1.418 . S
C330 H325 0.930 . S
C330 C333 1.404 . S
C330 C334 1.353 . S
N331 Co296 2.145 . S
N331 C332 1.397 . S
N331 C333 1.334 . S
C332 H313 0.929 . S
C332 C329 1.388 . S
C332 N331 1.397 . S
C333 H314 0.929 . S
C333 C330 1.404 . S
C333 N331 1.334 . S
C334 H326 0.930 . S
C334 C329 1.418 . S
C334 C330 1.353 . S
C335 H305 0.930 . S
C335 N336 1.330 . S
C335 C337 1.446 . S
N336 Co295 2.151 . S
N336 C335 1.330 . S
N336 C340 1.418 . S
C337 H316 0.929 . S
C337 C335 1.446 . S
C337 C338 1.332 . S
C338 H318 0.931 1_455 S
C338 C337 1.332 . S
C338 C339 1.267 . S
C339 H307 0.929 . S
C339 C338 1.267 . S
C339 C340 1.251 . S
C340 H310 0.929 . S
C340 N336 1.418 . S
C340 C339 1.251 . S
C341 H308 0.930 . S
C341 C343 1.406 . S
C341 C346 1.261 . S
C342 H309 0.930 . S
C342 N344 1.325 . S
C342 C345 1.357 . S
C343 H311 0.928 . S
C343 C341 1.406 . S
C343 N344 1.261 . S
N344 Co295 2.214 . S
N344 C342 1.325 . S
N344 C343 1.261 . S
C345 H315 0.931 . S
C345 C342 1.357 . S
C345 C346 1.312 . S
C346 H317 0.930 . S
C346 C341 1.261 . S
C346 C345 1.312 . S
C347 O319 1.214 . S
C347 O327 1.234 . S
C348 H320 0.929 . S
C348 C351 1.391 . S
C348 C353 1.391 . S
C349 H321 0.929 . S
C349 C350 1.390 . S
C349 N352 1.391 . S
C350 H322 0.930 . S
C350 C349 1.390 . S
C350 C351 1.392 . S
C351 H323 0.929 . S
C351 C348 1.391 . S
C351 C350 1.392 . S
N352 Co296 2.257 . S
N352 C349 1.391 . S
N352 C353 1.388 . S
C353 H324 0.930 . S
C353 C348 1.391 . S
C353 N352 1.388 . S
Co354 O356 2.143 . S
Co354 O362 2.074 . S
Co354 O365 2.093 . S
Co354 O378 2.097 . S
Co354 N395 2.151 . S
Co354 N403 2.214 . S
Co355 O356 2.160 . S
Co355 O361 2.058 . S
Co355 O371 2.057 . S
Co355 O386 2.037 . S
Co355 N390 2.145 . S
Co355 N411 2.257 . S
O356 Co354 2.143 . S
O356 Co355 2.160 . S
C357 O358 1.278 . S
C357 O365 1.224 . S
O358 C357 1.278 . S
C359 O360 1.245 . S
C359 O371 1.232 . S
O360 C359 1.245 . S
O361 Co355 2.058 . S
O361 C387 1.269 . S
O362 Co354 2.074 . S
O362 C387 1.257 . S
H363 C388 0.930 . S
H364 C394 0.930 . S
O365 Co354 2.093 . S
O365 C357 1.224 . S
H366 C398 0.929 . S
H367 C400 0.930 . S
H368 C401 0.930 . S
H369 C399 0.929 . S
H370 C402 0.928 . S
O371 Co355 2.057 . S
O371 C359 1.232 . S
H372 C391 0.929 . S
H373 C392 0.929 . S
H374 C404 0.931 . S
H375 C396 0.929 . S
H376 C405 0.930 . S
H377 C397 0.931 1_565 S
O378 Co354 2.097 . S
O378 C406 1.214 . S
H379 C407 0.929 . S
H380 C408 0.929 . S
H381 C409 0.930 . S
H382 C410 0.929 . S
H383 C412 0.930 . S
H384 C389 0.930 . S
H385 C393 0.930 . S
O386 Co355 2.037 . S
O386 C406 1.234 . S
C387 O361 1.269 . S
C387 O362 1.257 . S
C388 H363 0.930 . S
C388 C391 1.388 . S
C388 C393 1.418 . S
C389 H384 0.930 . S
C389 C392 1.404 . S
C389 C393 1.353 . S
N390 Co355 2.145 . S
N390 C391 1.397 . S
N390 C392 1.334 . S
C391 H372 0.929 . S
C391 C388 1.388 . S
C391 N390 1.397 . S
C392 H373 0.929 . S
C392 C389 1.404 . S
C392 N390 1.334 . S
C393 H385 0.930 . S
C393 C388 1.418 . S
C393 C389 1.353 . S
C394 H364 0.930 . S
C394 N395 1.330 . S
C394 C396 1.446 . S
N395 Co354 2.151 . S
N395 C394 1.330 . S
N395 C399 1.418 . S
C396 H375 0.929 . S
C396 C394 1.446 . S
C396 C397 1.332 . S
C397 H377 0.931 1_545 S
C397 C396 1.332 . S
C397 C398 1.267 . S
C398 H366 0.929 . S
C398 C397 1.267 . S
C398 C399 1.251 . S
C399 H369 0.929 . S
C399 N395 1.418 . S
C399 C398 1.251 . S
C400 H367 0.930 . S
C400 C402 1.406 . S
C400 C405 1.261 . S
C401 H368 0.930 . S
C401 N403 1.325 . S
C401 C404 1.357 . S
C402 H370 0.928 . S
C402 C400 1.406 . S
C402 N403 1.261 . S
N403 Co354 2.214 . S
N403 C401 1.325 . S
N403 C402 1.261 . S
C404 H374 0.931 . S
C404 C401 1.357 . S
C404 C405 1.312 . S
C405 H376 0.930 . S
C405 C400 1.261 . S
C405 C404 1.312 . S
C406 O378 1.214 . S
C406 O386 1.234 . S
C407 H379 0.929 . S
C407 C410 1.391 . S
C407 C412 1.391 . S
C408 H380 0.929 . S
C408 C409 1.390 . S
C408 N411 1.391 . S
C409 H381 0.930 . S
C409 C408 1.390 . S
C409 C410 1.392 . S
C410 H382 0.929 . S
C410 C407 1.391 . S
C410 C409 1.392 . S
N411 Co355 2.257 . S
N411 C408 1.391 . S
N411 C412 1.388 . S
C412 H383 0.930 . S
C412 C407 1.391 . S
C412 N411 1.388 . S
Co413 O415 2.143 . S
Co413 O421 2.074 . S
Co413 O424 2.093 . S
Co413 O437 2.097 . S
Co413 N454 2.151 . S
Co413 N462 2.214 . S
Co414 O415 2.160 . S
Co414 O420 2.058 . S
Co414 O430 2.057 . S
Co414 O445 2.037 . S
Co414 N449 2.145 . S
Co414 N470 2.257 . S
O415 Co413 2.143 . S
O415 Co414 2.160 . S
C416 O417 1.278 . S
C416 O424 1.224 . S
O417 C416 1.278 . S
C418 O419 1.245 . S
C418 O430 1.232 . S
O419 C418 1.245 . S
O420 Co414 2.058 . S
O420 C446 1.269 . S
O421 Co413 2.074 . S
O421 C446 1.257 . S
H422 C447 0.930 . S
H423 C453 0.930 . S
O424 Co413 2.093 . S
O424 C416 1.224 . S
H425 C457 0.929 . S
H426 C459 0.930 . S
H427 C460 0.930 . S
H428 C458 0.929 . S
H429 C461 0.928 . S
O430 Co414 2.057 . S
O430 C418 1.232 . S
H431 C450 0.929 . S
H432 C451 0.929 . S
H433 C463 0.931 . S
H434 C455 0.929 . S
H435 C464 0.930 . S
H436 C456 0.931 . S
O437 Co413 2.097 . S
O437 C465 1.214 . S
H438 C466 0.929 . S
H439 C467 0.929 . S
H440 C468 0.930 . S
H441 C469 0.929 . S
H442 C471 0.930 . S
H443 C448 0.930 . S
H444 C452 0.930 . S
O445 Co414 2.037 . S
O445 C465 1.234 . S
C446 O420 1.269 . S
C446 O421 1.257 . S
C447 H422 0.930 . S
C447 C450 1.388 . S
C447 C452 1.418 . S
C448 H443 0.930 . S
C448 C451 1.404 . S
C448 C452 1.353 . S
N449 Co414 2.145 . S
N449 C450 1.397 . S
N449 C451 1.334 . S
C450 H431 0.929 . S
C450 C447 1.388 . S
C450 N449 1.397 . S
C451 H432 0.929 . S
C451 C448 1.404 . S
C451 N449 1.334 . S
C452 H444 0.930 . S
C452 C447 1.418 . S
C452 C448 1.353 . S
C453 H423 0.930 . S
C453 N454 1.330 . S
C453 C455 1.446 . S
N454 Co413 2.151 . S
N454 C453 1.330 . S
N454 C458 1.418 . S
C455 H434 0.929 . S
C455 C453 1.446 . S
C455 C456 1.332 . S
C456 H436 0.931 . S
C456 C455 1.332 . S
C456 C457 1.267 . S
C457 H425 0.929 . S
C457 C456 1.267 . S
C457 C458 1.251 . S
C458 H428 0.929 . S
C458 N454 1.418 . S
C458 C457 1.251 . S
C459 H426 0.930 . S
C459 C461 1.406 . S
C459 C464 1.261 . S
C460 H427 0.930 . S
C460 N462 1.325 . S
C460 C463 1.357 . S
C461 H429 0.928 . S
C461 C459 1.406 . S
C461 N462 1.261 . S
N462 Co413 2.214 . S
N462 C460 1.325 . S
N462 C461 1.261 . S
C463 H433 0.931 . S
C463 C460 1.357 . S
C463 C464 1.312 . S
C464 H435 0.930 . S
C464 C459 1.261 . S
C464 C463 1.312 . S
C465 O437 1.214 . S
C465 O445 1.234 . S
C466 H438 0.929 . S
C466 C469 1.391 . S
C466 C471 1.391 . S
C467 H439 0.929 . S
C467 C468 1.390 . S
C467 N470 1.391 . S
C468 H440 0.930 . S
C468 C467 1.390 . S
C468 C469 1.392 . S
C469 H441 0.929 . S
C469 C466 1.391 . S
C469 C468 1.392 . S
N470 Co414 2.257 . S
N470 C467 1.391 . S
N470 C471 1.388 . S
C471 H442 0.930 . S
C471 C466 1.391 . S
C471 N470 1.388 . S
Co472 O474 2.143 . S
Co472 O480 2.074 . S
Co472 O483 2.093 . S
Co472 O496 2.097 . S
Co472 N513 2.151 . S
Co472 N521 2.214 . S
Co473 O474 2.160 . S
Co473 O479 2.058 . S
Co473 O489 2.057 . S
Co473 O504 2.037 . S
Co473 N508 2.145 . S
Co473 N529 2.257 . S
O474 Co472 2.143 . S
O474 Co473 2.160 . S
C475 O476 1.278 . S
C475 O483 1.224 . S
O476 C475 1.278 . S
C477 O478 1.245 . S
C477 O489 1.232 . S
O478 C477 1.245 . S
O479 Co473 2.058 . S
O479 C505 1.269 . S
O480 Co472 2.074 . S
O480 C505 1.257 . S
H481 C506 0.930 . S
H482 C512 0.930 . S
O483 Co472 2.093 . S
O483 C475 1.224 . S
H484 C516 0.929 . S
H485 C518 0.930 . S
H486 C519 0.930 . S
H487 C517 0.929 . S
H488 C520 0.928 . S
O489 Co473 2.057 . S
O489 C477 1.232 . S
H490 C509 0.929 . S
H491 C510 0.929 . S
H492 C522 0.931 . S
H493 C514 0.929 . S
H494 C523 0.930 . S
H495 C515 0.931 1_545 S
O496 Co472 2.097 . S
O496 C524 1.214 . S
H497 C525 0.929 . S
H498 C526 0.929 . S
H499 C527 0.930 . S
H500 C528 0.929 . S
H501 C530 0.930 . S
H502 C507 0.930 . S
H503 C511 0.930 . S
O504 Co473 2.037 . S
O504 C524 1.234 . S
C505 O479 1.269 . S
C505 O480 1.257 . S
C506 H481 0.930 . S
C506 C509 1.388 . S
C506 C511 1.418 . S
C507 H502 0.930 . S
C507 C510 1.404 . S
C507 C511 1.353 . S
N508 Co473 2.145 . S
N508 C509 1.397 . S
N508 C510 1.334 . S
C509 H490 0.929 . S
C509 C506 1.388 . S
C509 N508 1.397 . S
C510 H491 0.929 . S
C510 C507 1.404 . S
C510 N508 1.334 . S
C511 H503 0.930 . S
C511 C506 1.418 . S
C511 C507 1.353 . S
C512 H482 0.930 . S
C512 N513 1.330 . S
C512 C514 1.446 . S
N513 Co472 2.151 . S
N513 C512 1.330 . S
N513 C517 1.418 . S
C514 H493 0.929 . S
C514 C512 1.446 . S
C514 C515 1.332 . S
C515 H495 0.931 1_565 S
C515 C514 1.332 . S
C515 C516 1.267 . S
C516 H484 0.929 . S
C516 C515 1.267 . S
C516 C517 1.251 . S
C517 H487 0.929 . S
C517 N513 1.418 . S
C517 C516 1.251 . S
C518 H485 0.930 . S
C518 C520 1.406 . S
C518 C523 1.261 . S
C519 H486 0.930 . S
C519 N521 1.325 . S
C519 C522 1.357 . S
C520 H488 0.928 . S
C520 C518 1.406 . S
C520 N521 1.261 . S
N521 Co472 2.214 . S
N521 C519 1.325 . S
N521 C520 1.261 . S
C522 H492 0.931 . S
C522 C519 1.357 . S
C522 C523 1.312 . S
C523 H494 0.930 . S
C523 C518 1.261 . S
C523 C522 1.312 . S
C524 O496 1.214 . S
C524 O504 1.234 . S
C525 H497 0.929 . S
C525 C528 1.391 . S
C525 C530 1.391 . S
C526 H498 0.929 . S
C526 C527 1.390 . S
C526 N529 1.391 . S
C527 H499 0.930 . S
C527 C526 1.390 . S
C527 C528 1.392 . S
C528 H500 0.929 . S
C528 C525 1.391 . S
C528 C527 1.392 . S
N529 Co473 2.257 . S
N529 C526 1.391 . S
N529 C530 1.388 . S
C530 H501 0.930 . S
C530 C525 1.391 . S
C530 N529 1.388 . S
Co531 O533 2.143 . S
Co531 O539 2.074 . S
Co531 O542 2.093 . S
Co531 O555 2.097 . S
Co531 N572 2.151 . S
Co531 N580 2.214 . S
Co532 O533 2.160 . S
Co532 O538 2.058 . S
Co532 O548 2.057 . S
Co532 O563 2.037 . S
Co532 N567 2.145 . S
Co532 N588 2.257 . S
O533 Co531 2.143 . S
O533 Co532 2.160 . S
C534 O535 1.278 . S
C534 O542 1.224 . S
O535 C534 1.278 . S
C536 O537 1.245 . S
C536 O548 1.232 . S
O537 C536 1.245 . S
O538 Co532 2.058 . S
O538 C564 1.269 . S
O539 Co531 2.074 . S
O539 C564 1.257 . S
H540 C565 0.930 . S
H541 C571 0.930 . S
O542 Co531 2.093 . S
O542 C534 1.224 . S
H543 C575 0.929 . S
H544 C577 0.930 . S
H545 C578 0.930 . S
H546 C576 0.929 . S
H547 C579 0.928 . S
O548 Co532 2.057 . S
O548 C536 1.232 . S
H549 C568 0.929 . S
H550 C569 0.929 . S
H551 C581 0.931 . S
H552 C573 0.929 . S
H553 C582 0.930 . S
H554 C574 0.931 . S
O555 Co531 2.097 . S
O555 C583 1.214 . S
H556 C584 0.929 . S
H557 C585 0.929 . S
H558 C586 0.930 . S
H559 C587 0.929 . S
H560 C589 0.930 . S
H561 C566 0.930 . S
H562 C570 0.930 . S
O563 Co532 2.037 . S
O563 C583 1.234 . S
C564 O538 1.269 . S
C564 O539 1.257 . S
C565 H540 0.930 . S
C565 C568 1.388 . S
C565 C570 1.418 . S
C566 H561 0.930 . S
C566 C569 1.404 . S
C566 C570 1.353 . S
N567 Co532 2.145 . S
N567 C568 1.397 . S
N567 C569 1.334 . S
C568 H549 0.929 . S
C568 C565 1.388 . S
C568 N567 1.397 . S
C569 H550 0.929 . S
C569 C566 1.404 . S
C569 N567 1.334 . S
C570 H562 0.930 . S
C570 C565 1.418 . S
C570 C566 1.353 . S
C571 H541 0.930 . S
C571 N572 1.330 . S
C571 C573 1.446 . S
N572 Co531 2.151 . S
N572 C571 1.330 . S
N572 C576 1.418 . S
C573 H552 0.929 . S
C573 C571 1.446 . S
C573 C574 1.332 . S
C574 H554 0.931 . S
C574 C573 1.332 . S
C574 C575 1.267 . S
C575 H543 0.929 . S
C575 C574 1.267 . S
C575 C576 1.251 . S
C576 H546 0.929 . S
C576 N572 1.418 . S
C576 C575 1.251 . S
C577 H544 0.930 . S
C577 C579 1.406 . S
C577 C582 1.261 . S
C578 H545 0.930 . S
C578 N580 1.325 . S
C578 C581 1.357 . S
C579 H547 0.928 . S
C579 C577 1.406 . S
C579 N580 1.261 . S
N580 Co531 2.214 . S
N580 C578 1.325 . S
N580 C579 1.261 . S
C581 H551 0.931 . S
C581 C578 1.357 . S
C581 C582 1.312 . S
C582 H553 0.930 . S
C582 C577 1.261 . S
C582 C581 1.312 . S
C583 O555 1.214 . S
C583 O563 1.234 . S
C584 H556 0.929 . S
C584 C587 1.391 . S
C584 C589 1.391 . S
C585 H557 0.929 . S
C585 C586 1.390 . S
C585 N588 1.391 . S
C586 H558 0.930 . S
C586 C585 1.390 . S
C586 C587 1.392 . S
C587 H559 0.929 . S
C587 C584 1.391 . S
C587 C586 1.392 . S
N588 Co532 2.257 . S
N588 C585 1.391 . S
N588 C589 1.388 . S
C589 H560 0.930 . S
C589 C584 1.391 . S
C589 N588 1.388 . S
Co590 O592 2.143 . S
Co590 O598 2.074 . S
Co590 O601 2.093 . S
Co590 O614 2.097 . S
Co590 N631 2.151 . S
Co590 N639 2.214 . S
Co591 O592 2.160 . S
Co591 O597 2.058 . S
Co591 O607 2.057 . S
Co591 O622 2.037 . S
Co591 N626 2.145 . S
Co591 N647 2.257 . S
O592 Co590 2.143 . S
O592 Co591 2.160 . S
C593 O594 1.278 . S
C593 O601 1.224 . S
O594 C593 1.278 . S
C595 O596 1.245 . S
C595 O607 1.232 . S
O596 C595 1.245 . S
O597 Co591 2.058 . S
O597 C623 1.269 . S
O598 Co590 2.074 . S
O598 C623 1.257 . S
H599 C624 0.930 . S
H600 C630 0.930 . S
O601 Co590 2.093 . S
O601 C593 1.224 . S
H602 C634 0.929 . S
H603 C636 0.930 . S
H604 C637 0.930 . S
H605 C635 0.929 . S
H606 C638 0.928 . S
O607 Co591 2.057 . S
O607 C595 1.232 . S
H608 C627 0.929 . S
H609 C628 0.929 . S
H610 C640 0.931 . S
H611 C632 0.929 . S
H612 C641 0.930 . S
H613 C633 0.931 . S
O614 Co590 2.097 . S
O614 C642 1.214 . S
H615 C643 0.929 . S
H616 C644 0.929 . S
H617 C645 0.930 . S
H618 C646 0.929 . S
H619 C648 0.930 . S
H620 C625 0.930 . S
H621 C629 0.930 . S
O622 Co591 2.037 . S
O622 C642 1.234 . S
C623 O597 1.269 . S
C623 O598 1.257 . S
C624 H599 0.930 . S
C624 C627 1.388 . S
C624 C629 1.418 . S
C625 H620 0.930 . S
C625 C628 1.404 . S
C625 C629 1.353 . S
N626 Co591 2.145 . S
N626 C627 1.397 . S
N626 C628 1.334 . S
C627 H608 0.929 . S
C627 C624 1.388 . S
C627 N626 1.397 . S
C628 H609 0.929 . S
C628 C625 1.404 . S
C628 N626 1.334 . S
C629 H621 0.930 . S
C629 C624 1.418 . S
C629 C625 1.353 . S
C630 H600 0.930 . S
C630 N631 1.330 . S
C630 C632 1.446 . S
N631 Co590 2.151 . S
N631 C630 1.330 . S
N631 C635 1.418 . S
C632 H611 0.929 . S
C632 C630 1.446 . S
C632 C633 1.332 . S
C633 H613 0.931 . S
C633 C632 1.332 . S
C633 C634 1.267 . S
C634 H602 0.929 . S
C634 C633 1.267 . S
C634 C635 1.251 . S
C635 H605 0.929 . S
C635 N631 1.418 . S
C635 C634 1.251 . S
C636 H603 0.930 . S
C636 C638 1.406 . S
C636 C641 1.261 . S
C637 H604 0.930 . S
C637 N639 1.325 . S
C637 C640 1.357 . S
C638 H606 0.928 . S
C638 C636 1.406 . S
C638 N639 1.261 . S
N639 Co590 2.214 . S
N639 C637 1.325 . S
N639 C638 1.261 . S
C640 H610 0.931 . S
C640 C637 1.357 . S
C640 C641 1.312 . S
C641 H612 0.930 . S
C641 C636 1.261 . S
C641 C640 1.312 . S
C642 O614 1.214 . S
C642 O622 1.234 . S
C643 H615 0.929 . S
C643 C646 1.391 . S
C643 C648 1.391 . S
C644 H616 0.929 . S
C644 C645 1.390 . S
C644 N647 1.391 . S
C645 H617 0.930 . S
C645 C644 1.390 . S
C645 C646 1.392 . S
C646 H618 0.929 . S
C646 C643 1.391 . S
C646 C645 1.392 . S
N647 Co591 2.257 . S
N647 C644 1.391 . S
N647 C648 1.388 . S
C648 H619 0.930 . S
C648 C643 1.391 . S
C648 N647 1.388 . S
Co649 O651 2.143 . S
Co649 O657 2.074 . S
Co649 O660 2.093 . S
Co649 O673 2.097 . S
Co649 N690 2.151 . S
Co649 N698 2.214 . S
Co650 O651 2.160 . S
Co650 O656 2.058 . S
Co650 O666 2.057 . S
Co650 O681 2.037 . S
Co650 N685 2.145 . S
Co650 N706 2.257 . S
O651 Co649 2.143 . S
O651 Co650 2.160 . S
C652 O653 1.278 . S
C652 O660 1.224 . S
O653 C652 1.278 . S
C654 O655 1.245 . S
C654 O666 1.232 . S
O655 C654 1.245 . S
O656 Co650 2.058 . S
O656 C682 1.269 . S
O657 Co649 2.074 . S
O657 C682 1.257 . S
H658 C683 0.930 . S
H659 C689 0.930 . S
O660 Co649 2.093 . S
O660 C652 1.224 . S
H661 C693 0.929 . S
H662 C695 0.930 . S
H663 C696 0.930 . S
H664 C694 0.929 . S
H665 C697 0.928 . S
O666 Co650 2.057 . S
O666 C654 1.232 . S
H667 C686 0.929 . S
H668 C687 0.929 . S
H669 C699 0.931 . S
H670 C691 0.929 . S
H671 C700 0.930 . S
H672 C692 0.931 1_455 S
O673 Co649 2.097 . S
O673 C701 1.214 . S
H674 C702 0.929 . S
H675 C703 0.929 . S
H676 C704 0.930 . S
H677 C705 0.929 . S
H678 C707 0.930 . S
H679 C684 0.930 . S
H680 C688 0.930 . S
O681 Co650 2.037 . S
O681 C701 1.234 . S
C682 O656 1.269 . S
C682 O657 1.257 . S
C683 H658 0.930 . S
C683 C686 1.388 . S
C683 C688 1.418 . S
C684 H679 0.930 . S
C684 C687 1.404 . S
C684 C688 1.353 . S
N685 Co650 2.145 . S
N685 C686 1.397 . S
N685 C687 1.334 . S
C686 H667 0.929 . S
C686 C683 1.388 . S
C686 N685 1.397 . S
C687 H668 0.929 . S
C687 C684 1.404 . S
C687 N685 1.334 . S
C688 H680 0.930 . S
C688 C683 1.418 . S
C688 C684 1.353 . S
C689 H659 0.930 . S
C689 N690 1.330 . S
C689 C691 1.446 . S
N690 Co649 2.151 . S
N690 C689 1.330 . S
N690 C694 1.418 . S
C691 H670 0.929 . S
C691 C689 1.446 . S
C691 C692 1.332 . S
C692 H672 0.931 1_655 S
C692 C691 1.332 . S
C692 C693 1.267 . S
C693 H661 0.929 . S
C693 C692 1.267 . S
C693 C694 1.251 . S
C694 H664 0.929 . S
C694 N690 1.418 . S
C694 C693 1.251 . S
C695 H662 0.930 . S
C695 C697 1.406 . S
C695 C700 1.261 . S
C696 H663 0.930 . S
C696 N698 1.325 . S
C696 C699 1.357 . S
C697 H665 0.928 . S
C697 C695 1.406 . S
C697 N698 1.261 . S
N698 Co649 2.214 . S
N698 C696 1.325 . S
N698 C697 1.261 . S
C699 H669 0.931 . S
C699 C696 1.357 . S
C699 C700 1.312 . S
C700 H671 0.930 . S
C700 C695 1.261 . S
C700 C699 1.312 . S
C701 O673 1.214 . S
C701 O681 1.234 . S
C702 H674 0.929 . S
C702 C705 1.391 . S
C702 C707 1.391 . S
C703 H675 0.929 . S
C703 C704 1.390 . S
C703 N706 1.391 . S
C704 H676 0.930 . S
C704 C703 1.390 . S
C704 C705 1.392 . S
C705 H677 0.929 . S
C705 C702 1.391 . S
C705 C704 1.392 . S
N706 Co650 2.257 . S
N706 C703 1.391 . S
N706 C707 1.388 . S
C707 H678 0.930 . S
C707 C702 1.391 . S
C707 N706 1.388 . S
Co708 O710 2.143 . S
Co708 O716 2.074 . S
Co708 O719 2.093 . S
Co708 O732 2.097 . S
Co708 N749 2.151 . S
Co708 N757 2.214 . S
Co709 O710 2.160 . S
Co709 O715 2.058 . S
Co709 O725 2.057 . S
Co709 O740 2.037 . S
Co709 N744 2.145 . S
Co709 N765 2.257 . S
O710 Co708 2.143 . S
O710 Co709 2.160 . S
C711 O712 1.278 . S
C711 O719 1.224 . S
O712 C711 1.278 . S
C713 O714 1.245 . S
C713 O725 1.232 . S
O714 C713 1.245 . S
O715 Co709 2.058 . S
O715 C741 1.269 . S
O716 Co708 2.074 . S
O716 C741 1.257 . S
H717 C742 0.930 . S
H718 C748 0.930 . S
O719 Co708 2.093 . S
O719 C711 1.224 . S
H720 C752 0.929 . S
H721 C754 0.930 . S
H722 C755 0.930 . S
H723 C753 0.929 . S
H724 C756 0.928 . S
O725 Co709 2.057 . S
O725 C713 1.232 . S
H726 C745 0.929 . S
H727 C746 0.929 . S
H728 C758 0.931 . S
H729 C750 0.929 . S
H730 C759 0.930 . S
H731 C751 0.931 . S
O732 Co708 2.097 . S
O732 C760 1.214 . S
H733 C761 0.929 . S
H734 C762 0.929 . S
H735 C763 0.930 . S
H736 C764 0.929 . S
H737 C766 0.930 . S
H738 C743 0.930 . S
H739 C747 0.930 . S
O740 Co709 2.037 . S
O740 C760 1.234 . S
C741 O715 1.269 . S
C741 O716 1.257 . S
C742 H717 0.930 . S
C742 C745 1.388 . S
C742 C747 1.418 . S
C743 H738 0.930 . S
C743 C746 1.404 . S
C743 C747 1.353 . S
N744 Co709 2.145 . S
N744 C745 1.397 . S
N744 C746 1.334 . S
C745 H726 0.929 . S
C745 C742 1.388 . S
C745 N744 1.397 . S
C746 H727 0.929 . S
C746 C743 1.404 . S
C746 N744 1.334 . S
C747 H739 0.930 . S
C747 C742 1.418 . S
C747 C743 1.353 . S
C748 H718 0.930 . S
C748 N749 1.330 . S
C748 C750 1.446 . S
N749 Co708 2.151 . S
N749 C748 1.330 . S
N749 C753 1.418 . S
C750 H729 0.929 . S
C750 C748 1.446 . S
C750 C751 1.332 . S
C751 H731 0.931 . S
C751 C750 1.332 . S
C751 C752 1.267 . S
C752 H720 0.929 . S
C752 C751 1.267 . S
C752 C753 1.251 . S
C753 H723 0.929 . S
C753 N749 1.418 . S
C753 C752 1.251 . S
C754 H721 0.930 . S
C754 C756 1.406 . S
C754 C759 1.261 . S
C755 H722 0.930 . S
C755 N757 1.325 . S
C755 C758 1.357 . S
C756 H724 0.928 . S
C756 C754 1.406 . S
C756 N757 1.261 . S
N757 Co708 2.214 . S
N757 C755 1.325 . S
N757 C756 1.261 . S
C758 H728 0.931 . S
C758 C755 1.357 . S
C758 C759 1.312 . S
C759 H730 0.930 . S
C759 C754 1.261 . S
C759 C758 1.312 . S
C760 O732 1.214 . S
C760 O740 1.234 . S
C761 H733 0.929 . S
C761 C764 1.391 . S
C761 C766 1.391 . S
C762 H734 0.929 . S
C762 C763 1.390 . S
C762 N765 1.391 . S
C763 H735 0.930 . S
C763 C762 1.390 . S
C763 C764 1.392 . S
C764 H736 0.929 . S
C764 C761 1.391 . S
C764 C763 1.392 . S
N765 Co709 2.257 . S
N765 C762 1.391 . S
N765 C766 1.388 . S
C766 H737 0.930 . S
C766 C761 1.391 . S
C766 N765 1.388 . S
Co767 O769 2.143 . S
Co767 O775 2.074 . S
Co767 O778 2.093 . S
Co767 O791 2.097 . S
Co767 N808 2.151 . S
Co767 N816 2.214 . S
Co768 O769 2.160 . S
Co768 O774 2.058 . S
Co768 O784 2.057 . S
Co768 O799 2.037 . S
Co768 N803 2.145 . S
Co768 N824 2.257 . S
O769 Co767 2.143 . S
O769 Co768 2.160 . S
C770 O771 1.278 . S
C770 O778 1.224 . S
O771 C770 1.278 . S
C772 O773 1.245 . S
C772 O784 1.232 . S
O773 C772 1.245 . S
O774 Co768 2.058 . S
O774 C800 1.269 . S
O775 Co767 2.074 . S
O775 C800 1.257 . S
H776 C801 0.930 . S
H777 C807 0.930 . S
O778 Co767 2.093 . S
O778 C770 1.224 . S
H779 C811 0.929 . S
H780 C813 0.930 . S
H781 C814 0.930 . S
H782 C812 0.929 . S
H783 C815 0.928 . S
O784 Co768 2.057 . S
O784 C772 1.232 . S
H785 C804 0.929 . S
H786 C805 0.929 . S
H787 C817 0.931 . S
H788 C809 0.929 . S
H789 C818 0.930 . S
H790 C810 0.931 1_455 S
O791 Co767 2.097 . S
O791 C819 1.214 . S
H792 C820 0.929 . S
H793 C821 0.929 . S
H794 C822 0.930 . S
H795 C823 0.929 . S
H796 C825 0.930 . S
H797 C802 0.930 . S
H798 C806 0.930 . S
O799 Co768 2.037 . S
O799 C819 1.234 . S
C800 O774 1.269 . S
C800 O775 1.257 . S
C801 H776 0.930 . S
C801 C804 1.388 . S
C801 C806 1.418 . S
C802 H797 0.930 . S
C802 C805 1.404 . S
C802 C806 1.353 . S
N803 Co768 2.145 . S
N803 C804 1.397 . S
N803 C805 1.334 . S
C804 H785 0.929 . S
C804 C801 1.388 . S
C804 N803 1.397 . S
C805 H786 0.929 . S
C805 C802 1.404 . S
C805 N803 1.334 . S
C806 H798 0.930 . S
C806 C801 1.418 . S
C806 C802 1.353 . S
C807 H777 0.930 . S
C807 N808 1.330 . S
C807 C809 1.446 . S
N808 Co767 2.151 . S
N808 C807 1.330 . S
N808 C812 1.418 . S
C809 H788 0.929 . S
C809 C807 1.446 . S
C809 C810 1.332 . S
C810 H790 0.931 1_655 S
C810 C809 1.332 . S
C810 C811 1.267 . S
C811 H779 0.929 . S
C811 C810 1.267 . S
C811 C812 1.251 . S
C812 H782 0.929 . S
C812 N808 1.418 . S
C812 C811 1.251 . S
C813 H780 0.930 . S
C813 C815 1.406 . S
C813 C818 1.261 . S
C814 H781 0.930 . S
C814 N816 1.325 . S
C814 C817 1.357 . S
C815 H783 0.928 . S
C815 C813 1.406 . S
C815 N816 1.261 . S
N816 Co767 2.214 . S
N816 C814 1.325 . S
N816 C815 1.261 . S
C817 H787 0.931 . S
C817 C814 1.357 . S
C817 C818 1.312 . S
C818 H789 0.930 . S
C818 C813 1.261 . S
C818 C817 1.312 . S
C819 O791 1.214 . S
C819 O799 1.234 . S
C820 H792 0.929 . S
C820 C823 1.391 . S
C820 C825 1.391 . S
C821 H793 0.929 . S
C821 C822 1.390 . S
C821 N824 1.391 . S
C822 H794 0.930 . S
C822 C821 1.390 . S
C822 C823 1.392 . S
C823 H795 0.929 . S
C823 C820 1.391 . S
C823 C822 1.392 . S
N824 Co768 2.257 . S
N824 C821 1.391 . S
N824 C825 1.388 . S
C825 H796 0.930 . S
C825 C820 1.391 . S
C825 N824 1.388 . S
Co826 O828 2.143 . S
Co826 O834 2.074 . S
Co826 O837 2.093 . S
Co826 O850 2.097 . S
Co826 N867 2.151 . S
Co826 N875 2.214 . S
Co827 O828 2.160 . S
Co827 O833 2.058 . S
Co827 O843 2.057 . S
Co827 O858 2.037 . S
Co827 N862 2.145 . S
Co827 N883 2.257 . S
O828 Co826 2.143 . S
O828 Co827 2.160 . S
C829 O830 1.278 . S
C829 O837 1.224 . S
O830 C829 1.278 . S
C831 O832 1.245 . S
C831 O843 1.232 . S
O832 C831 1.245 . S
O833 Co827 2.058 . S
O833 C859 1.269 . S
O834 Co826 2.074 . S
O834 C859 1.257 . S
H835 C860 0.930 . S
H836 C866 0.930 . S
O837 Co826 2.093 . S
O837 C829 1.224 . S
H838 C870 0.929 . S
H839 C872 0.930 . S
H840 C873 0.930 . S
H841 C871 0.929 . S
H842 C874 0.928 . S
O843 Co827 2.057 . S
O843 C831 1.232 . S
H844 C863 0.929 . S
H845 C864 0.929 . S
H846 C876 0.931 . S
H847 C868 0.929 . S
H848 C877 0.930 . S
H849 C869 0.931 1_545 S
O850 Co826 2.097 . S
O850 C878 1.214 . S
H851 C879 0.929 . S
H852 C880 0.929 . S
H853 C881 0.930 . S
H854 C882 0.929 . S
H855 C884 0.930 . S
H856 C861 0.930 . S
H857 C865 0.930 . S
O858 Co827 2.037 . S
O858 C878 1.234 . S
C859 O833 1.269 . S
C859 O834 1.257 . S
C860 H835 0.930 . S
C860 C863 1.388 . S
C860 C865 1.418 . S
C861 H856 0.930 . S
C861 C864 1.404 . S
C861 C865 1.353 . S
N862 Co827 2.145 . S
N862 C863 1.397 . S
N862 C864 1.334 . S
C863 H844 0.929 . S
C863 C860 1.388 . S
C863 N862 1.397 . S
C864 H845 0.929 . S
C864 C861 1.404 . S
C864 N862 1.334 . S
C865 H857 0.930 . S
C865 C860 1.418 . S
C865 C861 1.353 . S
C866 H836 0.930 . S
C866 N867 1.330 . S
C866 C868 1.446 . S
N867 Co826 2.151 . S
N867 C866 1.330 . S
N867 C871 1.418 . S
C868 H847 0.929 . S
C868 C866 1.446 . S
C868 C869 1.332 . S
C869 H849 0.931 1_565 S
C869 C868 1.332 . S
C869 C870 1.267 . S
C870 H838 0.929 . S
C870 C869 1.267 . S
C870 C871 1.251 . S
C871 H841 0.929 . S
C871 N867 1.418 . S
C871 C870 1.251 . S
C872 H839 0.930 . S
C872 C874 1.406 . S
C872 C877 1.261 . S
C873 H840 0.930 . S
C873 N875 1.325 . S
C873 C876 1.357 . S
C874 H842 0.928 . S
C874 C872 1.406 . S
C874 N875 1.261 . S
N875 Co826 2.214 . S
N875 C873 1.325 . S
N875 C874 1.261 . S
C876 H846 0.931 . S
C876 C873 1.357 . S
C876 C877 1.312 . S
C877 H848 0.930 . S
C877 C872 1.261 . S
C877 C876 1.312 . S
C878 O850 1.214 . S
C878 O858 1.234 . S
C879 H851 0.929 . S
C879 C882 1.391 . S
C879 C884 1.391 . S
C880 H852 0.929 . S
C880 C881 1.390 . S
C880 N883 1.391 . S
C881 H853 0.930 . S
C881 C880 1.390 . S
C881 C882 1.392 . S
C882 H854 0.929 . S
C882 C879 1.391 . S
C882 C881 1.392 . S
N883 Co827 2.257 . S
N883 C880 1.391 . S
N883 C884 1.388 . S
C884 H855 0.930 . S
C884 C879 1.391 . S
C884 N883 1.388 . S
Co885 O887 2.143 . S
Co885 O893 2.074 . S
Co885 O896 2.093 . S
Co885 O909 2.097 . S
Co885 N926 2.151 . S
Co885 N934 2.214 . S
Co886 O887 2.160 . S
Co886 O892 2.058 . S
Co886 O902 2.057 . S
Co886 O917 2.037 . S
Co886 N921 2.145 . S
Co886 N942 2.257 . S
O887 Co885 2.143 . S
O887 Co886 2.160 . S
C888 O889 1.278 . S
C888 O896 1.224 . S
O889 C888 1.278 . S
C890 O891 1.245 . S
C890 O902 1.232 . S
O891 C890 1.245 . S
O892 Co886 2.058 . S
O892 C918 1.269 . S
O893 Co885 2.074 . S
O893 C918 1.257 . S
H894 C919 0.930 . S
H895 C925 0.930 . S
O896 Co885 2.093 . S
O896 C888 1.224 . S
H897 C929 0.929 . S
H898 C931 0.930 . S
H899 C932 0.930 . S
H900 C930 0.929 . S
H901 C933 0.928 . S
O902 Co886 2.057 . S
O902 C890 1.232 . S
H903 C922 0.929 . S
H904 C923 0.929 . S
H905 C935 0.931 . S
H906 C927 0.929 . S
H907 C936 0.930 . S
H908 C928 0.931 . S
O909 Co885 2.097 . S
O909 C937 1.214 . S
H910 C938 0.929 . S
H911 C939 0.929 . S
H912 C940 0.930 . S
H913 C941 0.929 . S
H914 C943 0.930 . S
H915 C920 0.930 . S
H916 C924 0.930 . S
O917 Co886 2.037 . S
O917 C937 1.234 . S
C918 O892 1.269 . S
C918 O893 1.257 . S
C919 H894 0.930 . S
C919 C922 1.388 . S
C919 C924 1.418 . S
C920 H915 0.930 . S
C920 C923 1.404 . S
C920 C924 1.353 . S
N921 Co886 2.145 . S
N921 C922 1.397 . S
N921 C923 1.334 . S
C922 H903 0.929 . S
C922 C919 1.388 . S
C922 N921 1.397 . S
C923 H904 0.929 . S
C923 C920 1.404 . S
C923 N921 1.334 . S
C924 H916 0.930 . S
C924 C919 1.418 . S
C924 C920 1.353 . S
C925 H895 0.930 . S
C925 N926 1.330 . S
C925 C927 1.446 . S
N926 Co885 2.151 . S
N926 C925 1.330 . S
N926 C930 1.418 . S
C927 H906 0.929 . S
C927 C925 1.446 . S
C927 C928 1.332 . S
C928 H908 0.931 . S
C928 C927 1.332 . S
C928 C929 1.267 . S
C929 H897 0.929 . S
C929 C928 1.267 . S
C929 C930 1.251 . S
C930 H900 0.929 . S
C930 N926 1.418 . S
C930 C929 1.251 . S
C931 H898 0.930 . S
C931 C933 1.406 . S
C931 C936 1.261 . S
C932 H899 0.930 . S
C932 N934 1.325 . S
C932 C935 1.357 . S
C933 H901 0.928 . S
C933 C931 1.406 . S
C933 N934 1.261 . S
N934 Co885 2.214 . S
N934 C932 1.325 . S
N934 C933 1.261 . S
C935 H905 0.931 . S
C935 C932 1.357 . S
C935 C936 1.312 . S
C936 H907 0.930 . S
C936 C931 1.261 . S
C936 C935 1.312 . S
C937 O909 1.214 . S
C937 O917 1.234 . S
C938 H910 0.929 . S
C938 C941 1.391 . S
C938 C943 1.391 . S
C939 H911 0.929 . S
C939 C940 1.390 . S
C939 N942 1.391 . S
C940 H912 0.930 . S
C940 C939 1.390 . S
C940 C941 1.392 . S
C941 H913 0.929 . S
C941 C938 1.391 . S
C941 C940 1.392 . S
N942 Co886 2.257 . S
N942 C939 1.391 . S
N942 C943 1.388 . S
C943 H914 0.930 . S
C943 C938 1.391 . S
C943 N942 1.388 . S
H944 C952 0.929 . S
H945 C954 0.930 . S
H946 C956 0.930 . S
H947 C959 0.929 . S
H948 C962 0.930 . S
H949 C964 0.960 . S
H950 C964 0.960 . S
H951 C964 0.960 . S
C952 H944 0.929 . S
C952 C953 1.377 . S
C952 C954 1.384 . S
C953 C952 1.377 . S
C953 C959 1.390 . S
C954 H945 0.930 . S
C954 C952 1.384 . S
C954 C955 1.372 . S
C955 C954 1.372 . S
C955 C956 1.400 . S
C955 C960 1.490 . S
C956 H946 0.930 . S
C956 C955 1.400 . S
C956 C959 1.386 . S
H957 C973 0.930 . S
H958 C974 0.931 . S
C959 H947 0.929 . S
C959 C953 1.390 . S
C959 C956 1.386 . S
C960 C955 1.490 . S
C960 C962 1.395 . S
C960 C963 1.403 . S
H961 C967 0.930 . S
C962 H948 0.930 . S
C962 C960 1.395 . S
C962 C965 1.403 1_556 S
C963 C960 1.403 . S
C963 C964 1.524 . S
C963 C967 1.400 1_556 S
C964 H949 0.960 . S
C964 H950 0.960 . S
C964 H951 0.960 . S
C964 C963 1.524 . S
C965 C962 1.403 1_554 S
C965 C966 1.392 . S
C965 C969 1.495 . S
C966 C965 1.392 . S
C966 C967 1.385 . S
C966 C968 1.478 . S
C967 H961 0.930 . S
C967 C963 1.400 1_554 S
C967 C966 1.385 . S
C968 C966 1.478 . S
C968 C970 1.381 . S
C968 C974 1.383 . S
C969 C965 1.495 . S
C969 H975 0.959 . S
C969 H976 0.961 . S
C969 H977 0.960 . S
C970 C968 1.381 . S
C970 C971 1.394 . S
C970 H978 0.930 . S
C971 C970 1.394 . S
C971 C972 1.383 . S
C971 H979 0.929 . S
C972 C971 1.383 . S
C972 C973 1.377 . S
C973 H957 0.930 . S
C973 C972 1.377 . S
C973 C974 1.379 . S
C974 H958 0.931 . S
C974 C968 1.383 . S
C974 C973 1.379 . S
H975 C969 0.959 . S
H976 C969 0.961 . S
H977 C969 0.960 . S
H978 C970 0.930 . S
H979 C971 0.929 . S
H980 C988 0.929 . S
H981 C990 0.930 . S
H982 C992 0.930 . S
H983 C995 0.929 . S
H984 C998 0.930 . S
H985 C1000 0.960 . S
H986 C1000 0.960 . S
H987 C1000 0.960 . S
C988 H980 0.929 . S
C988 C989 1.377 . S
C988 C990 1.384 . S
C989 C988 1.377 . S
C989 C995 1.390 . S
C990 H981 0.930 . S
C990 C988 1.384 . S
C990 C991 1.372 . S
C991 C990 1.372 . S
C991 C992 1.400 . S
C991 C996 1.490 . S
C992 H982 0.930 . S
C992 C991 1.400 . S
C992 C995 1.386 . S
H993 C1009 0.930 . S
H994 C1010 0.931 . S
C995 H983 0.929 . S
C995 C989 1.390 . S
C995 C992 1.386 . S
C996 C991 1.490 . S
C996 C998 1.395 . S
C996 C999 1.403 . S
H997 C1003 0.930 . S
C998 H984 0.930 . S
C998 C996 1.395 . S
C998 C1001 1.403 . S
C999 C996 1.403 . S
C999 C1000 1.524 . S
C999 C1003 1.400 . S
C1000 H985 0.960 . S
C1000 H986 0.960 . S
C1000 H987 0.960 . S
C1000 C999 1.524 . S
C1001 C998 1.403 . S
C1001 C1002 1.392 . S
C1001 C1005 1.495 . S
C1002 C1001 1.392 . S
C1002 C1003 1.385 . S
C1002 C1004 1.478 . S
C1003 H997 0.930 . S
C1003 C999 1.400 . S
C1003 C1002 1.385 . S
C1004 C1002 1.478 . S
C1004 C1006 1.381 . S
C1004 C1010 1.383 . S
C1005 C1001 1.495 . S
C1005 H1011 0.959 . S
C1005 H1012 0.961 . S
C1005 H1013 0.960 . S
C1006 C1004 1.381 . S
C1006 C1007 1.394 . S
C1006 H1014 0.930 . S
C1007 C1006 1.394 . S
C1007 C1008 1.383 . S
C1007 H1015 0.929 . S
C1008 C1007 1.383 . S
C1008 C1009 1.377 . S
C1009 H993 0.930 . S
C1009 C1008 1.377 . S
C1009 C1010 1.379 . S
C1010 H994 0.931 . S
C1010 C1004 1.383 . S
C1010 C1009 1.379 . S
H1011 C1005 0.959 . S
H1012 C1005 0.961 . S
H1013 C1005 0.960 . S
H1014 C1006 0.930 . S
H1015 C1007 0.929 . S
H1016 C1024 0.929 . S
H1017 C1026 0.930 . S
H1018 C1028 0.930 . S
H1019 C1031 0.929 . S
H1020 C1034 0.930 . S
H1021 C1036 0.960 . S
H1022 C1036 0.960 1_556 S
H1023 C1036 0.960 1_556 S
C1024 H1016 0.929 . S
C1024 C1025 1.377 . S
C1024 C1026 1.384 . S
C1025 C1024 1.377 . S
C1025 C1031 1.390 . S
C1026 H1017 0.930 . S
C1026 C1024 1.384 . S
C1026 C1027 1.372 . S
C1027 C1026 1.372 . S
C1027 C1028 1.400 . S
C1027 C1032 1.490 . S
C1028 H1018 0.930 . S
C1028 C1027 1.400 . S
C1028 C1031 1.386 . S
H1029 C1045 0.930 . S
H1030 C1046 0.931 . S
C1031 H1019 0.929 . S
C1031 C1025 1.390 . S
C1031 C1028 1.386 . S
C1032 C1027 1.490 . S
C1032 C1034 1.395 . S
C1032 C1035 1.405 1_556 S
H1033 C1039 0.930 . S
C1034 H1020 0.930 . S
C1034 C1032 1.395 . S
C1034 C1037 1.403 . S
C1035 C1032 1.405 1_554 S
C1035 C1036 1.523 . S
C1035 C1039 1.398 . S
C1036 H1021 0.960 . S
C1036 H1022 0.960 1_554 S
C1036 H1023 0.960 1_554 S
C1036 C1035 1.523 . S
C1037 C1034 1.403 . S
C1037 C1038 1.392 1_556 S
C1037 C1041 1.495 . S
C1038 C1037 1.392 1_554 S
C1038 C1039 1.385 . S
C1038 C1040 1.478 . S
C1039 H1033 0.930 . S
C1039 C1035 1.398 . S
C1039 C1038 1.385 . S
C1040 C1038 1.478 . S
C1040 C1042 1.381 . S
C1040 C1046 1.383 . S
C1041 C1037 1.495 . S
C1041 H1047 0.959 . S
C1041 H1048 0.961 1_556 S
C1041 H1049 0.960 1_556 S
C1042 C1040 1.381 . S
C1042 C1043 1.394 . S
C1042 H1050 0.930 . S
C1043 C1042 1.394 . S
C1043 C1044 1.383 . S
C1043 H1051 0.929 . S
C1044 C1043 1.383 . S
C1044 C1045 1.377 . S
C1045 H1029 0.930 . S
C1045 C1044 1.377 . S
C1045 C1046 1.379 . S
C1046 H1030 0.931 . S
C1046 C1040 1.383 . S
C1046 C1045 1.379 . S
H1047 C1041 0.959 . S
H1048 C1041 0.961 1_554 S
H1049 C1041 0.960 1_554 S
H1050 C1042 0.930 . S
H1051 C1043 0.929 . S
H1052 C1060 0.929 . S
H1053 C1062 0.930 . S
H1054 C1064 0.930 . S
H1055 C1067 0.929 . S
H1056 C1070 0.930 . S
H1057 C1072 0.960 . S
H1058 C1072 0.960 . S
H1059 C1072 0.960 . S
C1060 H1052 0.929 . S
C1060 C1061 1.377 . S
C1060 C1062 1.384 . S
C1061 C1060 1.377 . S
C1061 C1067 1.390 . S
C1062 H1053 0.930 . S
C1062 C1060 1.384 . S
C1062 C1063 1.372 . S
C1063 C1062 1.372 . S
C1063 C1064 1.400 . S
C1063 C1068 1.490 . S
C1064 H1054 0.930 . S
C1064 C1063 1.400 . S
C1064 C1067 1.386 . S
H1065 C1081 0.930 . S
H1066 C1082 0.931 . S
C1067 H1055 0.929 . S
C1067 C1061 1.390 . S
C1067 C1064 1.386 . S
C1068 C1063 1.490 . S
C1068 C1070 1.395 . S
C1068 C1071 1.403 . S
H1069 C1075 0.930 . S
C1070 H1056 0.930 . S
C1070 C1068 1.395 . S
C1070 C1073 1.403 . S
C1071 C1068 1.403 . S
C1071 C1072 1.524 . S
C1071 C1075 1.400 . S
C1072 H1057 0.960 . S
C1072 H1058 0.960 . S
C1072 H1059 0.960 . S
C1072 C1071 1.524 . S
C1073 C1070 1.403 . S
C1073 C1074 1.392 . S
C1073 C1077 1.495 . S
C1074 C1073 1.392 . S
C1074 C1075 1.385 . S
C1074 C1076 1.478 . S
C1075 H1069 0.930 . S
C1075 C1071 1.400 . S
C1075 C1074 1.385 . S
C1076 C1074 1.478 . S
C1076 C1078 1.381 . S
C1076 C1082 1.383 . S
C1077 C1073 1.495 . S
C1077 H1083 0.959 . S
C1077 H1084 0.961 . S
C1077 H1085 0.960 . S
C1078 C1076 1.381 . S
C1078 C1079 1.394 . S
C1078 H1086 0.930 . S
C1079 C1078 1.394 . S
C1079 C1080 1.383 . S
C1079 H1087 0.929 . S
C1080 C1079 1.383 . S
C1080 C1081 1.377 . S
C1081 H1065 0.930 . S
C1081 C1080 1.377 . S
C1081 C1082 1.379 . S
C1082 H1066 0.931 . S
C1082 C1076 1.383 . S
C1082 C1081 1.379 . S
H1083 C1077 0.959 . S
H1084 C1077 0.961 . S
H1085 C1077 0.960 . S
H1086 C1078 0.930 . S
H1087 C1079 0.929 . S
H1088 C1096 0.929 . S
H1089 C1098 0.930 . S
H1090 C1100 0.930 . S
H1091 C1103 0.929 . S
H1092 C1106 0.930 . S
H1093 C1108 0.960 1_556 S
H1094 C1108 0.960 . S
H1095 C1108 0.960 . S
C1096 H1088 0.929 . S
C1096 C1097 1.377 . S
C1096 C1098 1.384 . S
C1097 C1096 1.377 . S
C1097 C1103 1.390 . S
C1098 H1089 0.930 . S
C1098 C1096 1.384 . S
C1098 C1099 1.372 . S
C1099 C1098 1.372 . S
C1099 C1100 1.400 . S
C1099 C1104 1.490 . S
C1100 H1090 0.930 . S
C1100 C1099 1.400 . S
C1100 C1103 1.386 . S
H1101 C1117 0.930 . S
H1102 C1118 0.931 . S
C1103 H1091 0.929 . S
C1103 C1097 1.390 . S
C1103 C1100 1.386 . S
C1104 C1099 1.490 . S
C1104 C1106 1.395 . S
C1104 C1107 1.403 . S
H1105 C1111 0.930 . S
C1106 H1092 0.930 . S
C1106 C1104 1.395 . S
C1106 C1109 1.403 1_554 S
C1107 C1104 1.403 . S
C1107 C1108 1.524 . S
C1107 C1111 1.400 1_554 S
C1108 H1093 0.960 1_554 S
C1108 H1094 0.960 . S
C1108 H1095 0.960 . S
C1108 C1107 1.524 . S
C1109 C1106 1.403 1_556 S
C1109 C1110 1.392 . S
C1109 C1113 1.495 . S
C1110 C1109 1.392 . S
C1110 C1111 1.385 . S
C1110 C1112 1.478 . S
C1111 H1105 0.930 . S
C1111 C1107 1.400 1_556 S
C1111 C1110 1.385 . S
C1112 C1110 1.478 . S
C1112 C1114 1.381 . S
C1112 C1118 1.383 . S
C1113 C1109 1.495 . S
C1113 H1119 0.959 1_556 S
C1113 H1120 0.961 . S
C1113 H1121 0.960 . S
C1114 C1112 1.381 . S
C1114 C1115 1.394 . S
C1114 H1122 0.930 . S
C1115 C1114 1.394 . S
C1115 C1116 1.383 . S
C1115 H1123 0.929 . S
C1116 C1115 1.383 . S
C1116 C1117 1.377 . S
C1117 H1101 0.930 . S
C1117 C1116 1.377 . S
C1117 C1118 1.379 . S
C1118 H1102 0.931 . S
C1118 C1112 1.383 . S
C1118 C1117 1.379 . S
H1119 C1113 0.959 1_554 S
H1120 C1113 0.961 . S
H1121 C1113 0.960 . S
H1122 C1114 0.930 . S
H1123 C1115 0.929 . S
H1124 C1132 0.929 . S
H1125 C1134 0.930 . S
H1126 C1136 0.930 . S
H1127 C1139 0.929 . S
H1128 C1142 0.930 . S
H1129 C1144 0.960 . S
H1130 C1144 0.960 . S
H1131 C1144 0.960 . S
C1132 H1124 0.929 . S
C1132 C1133 1.377 . S
C1132 C1134 1.384 . S
C1133 C1132 1.377 . S
C1133 C1139 1.390 . S
C1134 H1125 0.930 . S
C1134 C1132 1.384 . S
C1134 C1135 1.372 . S
C1135 C1134 1.372 . S
C1135 C1136 1.400 . S
C1135 C1140 1.490 . S
C1136 H1126 0.930 . S
C1136 C1135 1.400 . S
C1136 C1139 1.386 . S
H1137 C1153 0.930 . S
H1138 C1154 0.931 . S
C1139 H1127 0.929 . S
C1139 C1133 1.390 . S
C1139 C1136 1.386 . S
C1140 C1135 1.490 . S
C1140 C1142 1.395 . S
C1140 C1143 1.403 . S
H1141 C1147 0.930 . S
C1142 H1128 0.930 . S
C1142 C1140 1.395 . S
C1142 C1145 1.403 . S
C1143 C1140 1.403 . S
C1143 C1144 1.524 . S
C1143 C1147 1.400 . S
C1144 H1129 0.960 . S
C1144 H1130 0.960 . S
C1144 H1131 0.960 . S
C1144 C1143 1.524 . S
C1145 C1142 1.403 . S
C1145 C1146 1.392 . S
C1145 C1149 1.495 . S
C1146 C1145 1.392 . S
C1146 C1147 1.385 . S
C1146 C1148 1.478 . S
C1147 H1141 0.930 . S
C1147 C1143 1.400 . S
C1147 C1146 1.385 . S
C1148 C1146 1.478 . S
C1148 C1150 1.381 . S
C1148 C1154 1.383 . S
C1149 C1145 1.495 . S
C1149 H1155 0.959 . S
C1149 H1156 0.961 . S
C1149 H1157 0.960 . S
C1150 C1148 1.381 . S
C1150 C1151 1.394 . S
C1150 H1158 0.930 . S
C1151 C1150 1.394 . S
C1151 C1152 1.383 . S
C1151 H1159 0.929 . S
C1152 C1151 1.383 . S
C1152 C1153 1.377 . S
C1153 H1137 0.930 . S
C1153 C1152 1.377 . S
C1153 C1154 1.379 . S
C1154 H1138 0.931 . S
C1154 C1148 1.383 . S
C1154 C1153 1.379 . S
H1155 C1149 0.959 . S
H1156 C1149 0.961 . S
H1157 C1149 0.960 . S
H1158 C1150 0.930 . S
H1159 C1151 0.929 . S
H1160 C1168 0.929 . S
H1161 C1170 0.930 . S
H1162 C1172 0.930 . S
H1163 C1175 0.929 . S
H1164 C1178 0.930 . S
H1165 C1180 0.960 . S
H1166 C1180 0.960 . S
H1167 C1180 0.960 . S
C1168 H1160 0.929 . S
C1168 C1169 1.377 . S
C1168 C1170 1.384 . S
C1169 C1168 1.377 . S
C1169 C1175 1.390 . S
C1170 H1161 0.930 . S
C1170 C1168 1.384 . S
C1170 C1171 1.372 . S
C1171 C1170 1.372 . S
C1171 C1172 1.400 . S
C1171 C1176 1.490 . S
C1172 H1162 0.930 . S
C1172 C1171 1.400 . S
C1172 C1175 1.386 . S
H1173 C1189 0.930 . S
H1174 C1190 0.931 . S
C1175 H1163 0.929 . S
C1175 C1169 1.390 . S
C1175 C1172 1.386 . S
C1176 C1171 1.490 . S
C1176 C1178 1.395 . S
C1176 C1179 1.403 . S
H1177 C1183 0.930 . S
C1178 H1164 0.930 . S
C1178 C1176 1.395 . S
C1178 C1181 1.403 1_556 S
C1179 C1176 1.403 . S
C1179 C1180 1.524 . S
C1179 C1183 1.400 1_556 S
C1180 H1165 0.960 . S
C1180 H1166 0.960 . S
C1180 H1167 0.960 . S
C1180 C1179 1.524 . S
C1181 C1178 1.403 1_554 S
C1181 C1182 1.392 . S
C1181 C1185 1.495 . S
C1182 C1181 1.392 . S
C1182 C1183 1.385 . S
C1182 C1184 1.478 . S
C1183 H1177 0.930 . S
C1183 C1179 1.400 1_554 S
C1183 C1182 1.385 . S
C1184 C1182 1.478 . S
C1184 C1186 1.381 . S
C1184 C1190 1.383 . S
C1185 C1181 1.495 . S
C1185 H1191 0.959 . S
C1185 H1192 0.961 . S
C1185 H1193 0.960 . S
C1186 C1184 1.381 . S
C1186 C1187 1.394 . S
C1186 H1194 0.930 . S
C1187 C1186 1.394 . S
C1187 C1188 1.383 . S
C1187 H1195 0.929 . S
C1188 C1187 1.383 . S
C1188 C1189 1.377 . S
C1189 H1173 0.930 . S
C1189 C1188 1.377 . S
C1189 C1190 1.379 . S
C1190 H1174 0.931 . S
C1190 C1184 1.383 . S
C1190 C1189 1.379 . S
H1191 C1185 0.959 . S
H1192 C1185 0.961 . S
H1193 C1185 0.960 . S
H1194 C1186 0.930 . S
H1195 C1187 0.929 . S
H1196 C1204 0.929 . S
H1197 C1206 0.930 . S
H1198 C1208 0.930 . S
H1199 C1211 0.929 . S
H1200 C1214 0.930 . S
H1201 C1216 0.960 . S
H1202 C1216 0.960 . S
H1203 C1216 0.960 . S
C1204 H1196 0.929 . S
C1204 C1205 1.377 . S
C1204 C1206 1.384 . S
C1205 C1204 1.377 . S
C1205 C1211 1.390 . S
C1206 H1197 0.930 . S
C1206 C1204 1.384 . S
C1206 C1207 1.372 . S
C1207 C1206 1.372 . S
C1207 C1208 1.400 . S
C1207 C1212 1.490 . S
C1208 H1198 0.930 . S
C1208 C1207 1.400 . S
C1208 C1211 1.386 . S
H1209 C1225 0.930 . S
H1210 C1226 0.931 . S
C1211 H1199 0.929 . S
C1211 C1205 1.390 . S
C1211 C1208 1.386 . S
C1212 C1207 1.490 . S
C1212 C1214 1.395 . S
C1212 C1215 1.403 . S
H1213 C1219 0.930 . S
C1214 H1200 0.930 . S
C1214 C1212 1.395 . S
C1214 C1217 1.403 . S
C1215 C1212 1.403 . S
C1215 C1216 1.524 . S
C1215 C1219 1.400 . S
C1216 H1201 0.960 . S
C1216 H1202 0.960 . S
C1216 H1203 0.960 . S
C1216 C1215 1.524 . S
C1217 C1214 1.403 . S
C1217 C1218 1.392 . S
C1217 C1221 1.495 . S
C1218 C1217 1.392 . S
C1218 C1219 1.385 . S
C1218 C1220 1.478 . S
C1219 H1213 0.930 . S
C1219 C1215 1.400 . S
C1219 C1218 1.385 . S
C1220 C1218 1.478 . S
C1220 C1222 1.381 . S
C1220 C1226 1.383 . S
C1221 C1217 1.495 . S
C1221 H1227 0.959 . S
C1221 H1228 0.961 . S
C1221 H1229 0.960 . S
C1222 C1220 1.381 . S
C1222 C1223 1.394 . S
C1222 H1230 0.930 . S
C1223 C1222 1.394 . S
C1223 C1224 1.383 . S
C1223 H1231 0.929 . S
C1224 C1223 1.383 . S
C1224 C1225 1.377 . S
C1225 H1209 0.930 . S
C1225 C1224 1.377 . S
C1225 C1226 1.379 . S
C1226 H1210 0.931 . S
C1226 C1220 1.383 . S
C1226 C1225 1.379 . S
H1227 C1221 0.959 . S
H1228 C1221 0.961 . S
H1229 C1221 0.960 . S
H1230 C1222 0.930 . S
H1231 C1223 0.929 . S
H1232 C1240 0.929 . S
H1233 C1242 0.930 . S
H1234 C1244 0.930 . S
H1235 C1247 0.929 . S
H1236 C1250 0.930 . S
H1237 C1252 0.960 . S
H1238 C1252 0.960 . S
H1239 C1252 0.960 . S
C1240 H1232 0.929 . S
C1240 C1241 1.377 . S
C1240 C1242 1.384 . S
C1241 C1240 1.377 . S
C1241 C1247 1.390 . S
C1242 H1233 0.930 . S
C1242 C1240 1.384 . S
C1242 C1243 1.372 . S
C1243 C1242 1.372 . S
C1243 C1244 1.400 . S
C1243 C1248 1.490 . S
C1244 H1234 0.930 . S
C1244 C1243 1.400 . S
C1244 C1247 1.386 . S
H1245 C1261 0.930 . S
H1246 C1262 0.931 . S
C1247 H1235 0.929 . S
C1247 C1241 1.390 . S
C1247 C1244 1.386 . S
C1248 C1243 1.490 . S
C1248 C1250 1.395 . S
C1248 C1251 1.403 . S
H1249 C1255 0.930 . S
C1250 H1236 0.930 . S
C1250 C1248 1.395 . S
C1250 C1253 1.403 . S
C1251 C1248 1.403 . S
C1251 C1252 1.524 . S
C1251 C1255 1.400 . S
C1252 H1237 0.960 . S
C1252 H1238 0.960 . S
C1252 H1239 0.960 . S
C1252 C1251 1.524 . S
C1253 C1250 1.403 . S
C1253 C1254 1.392 . S
C1253 C1257 1.495 . S
C1254 C1253 1.392 . S
C1254 C1255 1.385 . S
C1254 C1256 1.478 . S
C1255 H1249 0.930 . S
C1255 C1251 1.400 . S
C1255 C1254 1.385 . S
C1256 C1254 1.478 . S
C1256 C1258 1.381 . S
C1256 C1262 1.383 . S
C1257 C1253 1.495 . S
C1257 H1263 0.959 . S
C1257 H1264 0.961 . S
C1257 H1265 0.960 . S
C1258 C1256 1.381 . S
C1258 C1259 1.394 . S
C1258 H1266 0.930 . S
C1259 C1258 1.394 . S
C1259 C1260 1.383 . S
C1259 H1267 0.929 . S
C1260 C1259 1.383 . S
C1260 C1261 1.377 . S
C1261 H1245 0.930 . S
C1261 C1260 1.377 . S
C1261 C1262 1.379 . S
C1262 H1246 0.931 . S
C1262 C1256 1.383 . S
C1262 C1261 1.379 . S
H1263 C1257 0.959 . S
H1264 C1257 0.961 . S
H1265 C1257 0.960 . S
H1266 C1258 0.930 . S
H1267 C1259 0.929 . S
H1268 C1276 0.929 . S
H1269 C1278 0.930 . S
H1270 C1280 0.930 . S
H1271 C1283 0.929 . S
H1272 C1286 0.930 . S
H1273 C1288 0.960 . S
H1274 C1288 0.960 . S
H1275 C1288 0.960 . S
C1276 H1268 0.929 . S
C1276 C1277 1.377 . S
C1276 C1278 1.384 . S
C1277 C1276 1.377 . S
C1277 C1283 1.390 . S
C1278 H1269 0.930 . S
C1278 C1276 1.384 . S
C1278 C1279 1.372 . S
C1279 C1278 1.372 . S
C1279 C1280 1.400 . S
C1279 C1284 1.490 . S
C1280 H1270 0.930 . S
C1280 C1279 1.400 . S
C1280 C1283 1.386 . S
H1281 C1297 0.930 . S
H1282 C1298 0.931 . S
C1283 H1271 0.929 . S
C1283 C1277 1.390 . S
C1283 C1280 1.386 . S
C1284 C1279 1.490 . S
C1284 C1286 1.395 . S
C1284 C1287 1.403 . S
H1285 C1291 0.930 . S
C1286 H1272 0.930 . S
C1286 C1284 1.395 . S
C1286 C1289 1.403 . S
C1287 C1284 1.403 . S
C1287 C1288 1.524 . S
C1287 C1291 1.400 . S
C1288 H1273 0.960 . S
C1288 H1274 0.960 . S
C1288 H1275 0.960 . S
C1288 C1287 1.524 . S
C1289 C1286 1.403 . S
C1289 C1290 1.392 . S
C1289 C1293 1.495 . S
C1290 C1289 1.392 . S
C1290 C1291 1.385 . S
C1290 C1292 1.478 . S
C1291 H1285 0.930 . S
C1291 C1287 1.400 . S
C1291 C1290 1.385 . S
C1292 C1290 1.478 . S
C1292 C1294 1.381 . S
C1292 C1298 1.383 . S
C1293 C1289 1.495 . S
C1293 H1299 0.959 . S
C1293 H1300 0.961 . S
C1293 H1301 0.960 . S
C1294 C1292 1.381 . S
C1294 C1295 1.394 . S
C1294 H1302 0.930 . S
C1295 C1294 1.394 . S
C1295 C1296 1.383 . S
C1295 H1303 0.929 . S
C1296 C1295 1.383 . S
C1296 C1297 1.377 . S
C1297 H1281 0.930 . S
C1297 C1296 1.377 . S
C1297 C1298 1.379 . S
C1298 H1282 0.931 . S
C1298 C1292 1.383 . S
C1298 C1297 1.379 . S
H1299 C1293 0.959 . S
H1300 C1293 0.961 . S
H1301 C1293 0.960 . S
H1302 C1294 0.930 . S
H1303 C1295 0.929 . S
H1304 C1312 0.929 . S
H1305 C1314 0.930 . S
H1306 C1316 0.930 . S
H1307 C1319 0.929 . S
H1308 C1322 0.930 . S
H1309 C1324 0.960 . S
H1310 C1324 0.960 . S
H1311 C1324 0.960 . S
C1312 H1304 0.929 . S
C1312 C1313 1.377 . S
C1312 C1314 1.384 . S
C1313 C1312 1.377 . S
C1313 C1319 1.390 . S
C1314 H1305 0.930 . S
C1314 C1312 1.384 . S
C1314 C1315 1.372 . S
C1315 C1314 1.372 . S
C1315 C1316 1.400 . S
C1315 C1320 1.490 . S
C1316 H1306 0.930 . S
C1316 C1315 1.400 . S
C1316 C1319 1.386 . S
H1317 C1333 0.930 . S
H1318 C1334 0.931 . S
C1319 H1307 0.929 . S
C1319 C1313 1.390 . S
C1319 C1316 1.386 . S
C1320 C1315 1.490 . S
C1320 C1322 1.395 . S
C1320 C1323 1.403 . S
H1321 C1327 0.930 . S
C1322 H1308 0.930 . S
C1322 C1320 1.395 . S
C1322 C1325 1.403 . S
C1323 C1320 1.403 . S
C1323 C1324 1.524 . S
C1323 C1327 1.400 . S
C1324 H1309 0.960 . S
C1324 H1310 0.960 . S
C1324 H1311 0.960 . S
C1324 C1323 1.524 . S
C1325 C1322 1.403 . S
C1325 C1326 1.392 . S
C1325 C1329 1.495 . S
C1326 C1325 1.392 . S
C1326 C1327 1.385 . S
C1326 C1328 1.478 . S
C1327 H1321 0.930 . S
C1327 C1323 1.400 . S
C1327 C1326 1.385 . S
C1328 C1326 1.478 . S
C1328 C1330 1.381 . S
C1328 C1334 1.383 . S
C1329 C1325 1.495 . S
C1329 H1335 0.959 . S
C1329 H1336 0.961 . S
C1329 H1337 0.960 . S
C1330 C1328 1.381 . S
C1330 C1331 1.394 . S
C1330 H1338 0.930 . S
C1331 C1330 1.394 . S
C1331 C1332 1.383 . S
C1331 H1339 0.929 . S
C1332 C1331 1.383 . S
C1332 C1333 1.377 . S
C1333 H1317 0.930 . S
C1333 C1332 1.377 . S
C1333 C1334 1.379 . S
C1334 H1318 0.931 . S
C1334 C1328 1.383 . S
C1334 C1333 1.379 . S
H1335 C1329 0.959 . S
H1336 C1329 0.961 . S
H1337 C1329 0.960 . S
H1338 C1330 0.930 . S
H1339 C1331 0.929 . S
H1340 C1348 0.929 . S
H1341 C1350 0.930 . S
H1342 C1352 0.930 . S
H1343 C1355 0.929 . S
H1344 C1358 0.930 . S
H1345 C1360 0.960 . S
H1346 C1360 0.960 . S
H1347 C1360 0.960 . S
C1348 H1340 0.929 . S
C1348 C1349 1.377 . S
C1348 C1350 1.384 . S
C1349 C1348 1.377 . S
C1349 C1355 1.390 . S
C1350 H1341 0.930 . S
C1350 C1348 1.384 . S
C1350 C1351 1.372 . S
C1351 C1350 1.372 . S
C1351 C1352 1.400 . S
C1351 C1356 1.490 . S
C1352 H1342 0.930 . S
C1352 C1351 1.400 . S
C1352 C1355 1.386 . S
H1353 C1369 0.930 . S
H1354 C1370 0.931 . S
C1355 H1343 0.929 . S
C1355 C1349 1.390 . S
C1355 C1352 1.386 . S
C1356 C1351 1.490 . S
C1356 C1358 1.395 . S
C1356 C1359 1.403 . S
H1357 C1363 0.930 . S
C1358 H1344 0.930 . S
C1358 C1356 1.395 . S
C1358 C1361 1.403 . S
C1359 C1356 1.403 . S
C1359 C1360 1.524 . S
C1359 C1363 1.400 . S
C1360 H1345 0.960 . S
C1360 H1346 0.960 . S
C1360 H1347 0.960 . S
C1360 C1359 1.524 . S
C1361 C1358 1.403 . S
C1361 C1362 1.392 . S
C1361 C1365 1.495 . S
C1362 C1361 1.392 . S
C1362 C1363 1.385 . S
C1362 C1364 1.478 . S
C1363 H1357 0.930 . S
C1363 C1359 1.400 . S
C1363 C1362 1.385 . S
C1364 C1362 1.478 . S
C1364 C1366 1.381 . S
C1364 C1370 1.383 . S
C1365 C1361 1.495 . S
C1365 H1371 0.959 . S
C1365 H1372 0.961 . S
C1365 H1373 0.960 . S
C1366 C1364 1.381 . S
C1366 C1367 1.394 . S
C1366 H1374 0.930 . S
C1367 C1366 1.394 . S
C1367 C1368 1.383 . S
C1367 H1375 0.929 . S
C1368 C1367 1.383 . S
C1368 C1369 1.377 . S
C1369 H1353 0.930 . S
C1369 C1368 1.377 . S
C1369 C1370 1.379 . S
C1370 H1354 0.931 . S
C1370 C1364 1.383 . S
C1370 C1369 1.379 . S
H1371 C1365 0.959 . S
H1372 C1365 0.961 . S
H1373 C1365 0.960 . S
H1374 C1366 0.930 . S
H1375 C1367 0.929 . S
H1376 C1384 0.929 . S
H1377 C1386 0.930 . S
H1378 C1388 0.930 . S
H1379 C1391 0.929 . S
H1380 C1394 0.930 . S
H1381 C1396 0.960 . S
H1382 C1396 0.960 . S
H1383 C1396 0.960 . S
C1384 H1376 0.929 . S
C1384 C1385 1.377 . S
C1384 C1386 1.384 . S
C1385 C1384 1.377 . S
C1385 C1391 1.390 . S
C1386 H1377 0.930 . S
C1386 C1384 1.384 . S
C1386 C1387 1.372 . S
C1387 C1386 1.372 . S
C1387 C1388 1.400 . S
C1387 C1392 1.490 . S
C1388 H1378 0.930 . S
C1388 C1387 1.400 . S
C1388 C1391 1.386 . S
H1389 C1405 0.930 . S
H1390 C1406 0.931 . S
C1391 H1379 0.929 . S
C1391 C1385 1.390 . S
C1391 C1388 1.386 . S
C1392 C1387 1.490 . S
C1392 C1394 1.395 . S
C1392 C1395 1.403 . S
H1393 C1399 0.930 . S
C1394 H1380 0.930 . S
C1394 C1392 1.395 . S
C1394 C1397 1.403 . S
C1395 C1392 1.403 . S
C1395 C1396 1.524 . S
C1395 C1399 1.400 . S
C1396 H1381 0.960 . S
C1396 H1382 0.960 . S
C1396 H1383 0.960 . S
C1396 C1395 1.524 . S
C1397 C1394 1.403 . S
C1397 C1398 1.392 . S
C1397 C1401 1.495 . S
C1398 C1397 1.392 . S
C1398 C1399 1.385 . S
C1398 C1400 1.478 . S
C1399 H1393 0.930 . S
C1399 C1395 1.400 . S
C1399 C1398 1.385 . S
C1400 C1398 1.478 . S
C1400 C1402 1.381 . S
C1400 C1406 1.383 . S
C1401 C1397 1.495 . S
C1401 H1407 0.959 . S
C1401 H1408 0.961 . S
C1401 H1409 0.960 . S
C1402 C1400 1.381 . S
C1402 C1403 1.394 . S
C1402 H1410 0.930 . S
C1403 C1402 1.394 . S
C1403 C1404 1.383 . S
C1403 H1411 0.929 . S
C1404 C1403 1.383 . S
C1404 C1405 1.377 . S
C1405 H1389 0.930 . S
C1405 C1404 1.377 . S
C1405 C1406 1.379 . S
C1406 H1390 0.931 . S
C1406 C1400 1.383 . S
C1406 C1405 1.379 . S
H1407 C1401 0.959 . S
H1408 C1401 0.961 . S
H1409 C1401 0.960 . S
H1410 C1402 0.930 . S
H1411 C1403 0.929 . S
H1412 C1420 0.929 . S
H1413 C1422 0.930 . S
H1414 C1424 0.930 . S
H1415 C1427 0.929 . S
H1416 C1430 0.930 . S
H1417 C1432 0.960 . S
H1418 C1432 0.960 . S
H1419 C1432 0.960 . S
C1420 H1412 0.929 . S
C1420 C1421 1.377 . S
C1420 C1422 1.384 . S
C1421 C1420 1.377 . S
C1421 C1427 1.390 . S
C1422 H1413 0.930 . S
C1422 C1420 1.384 . S
C1422 C1423 1.372 . S
C1423 C1422 1.372 . S
C1423 C1424 1.400 . S
C1423 C1428 1.490 . S
C1424 H1414 0.930 . S
C1424 C1423 1.400 . S
C1424 C1427 1.386 . S
H1425 C1441 0.930 . S
H1426 C1442 0.931 . S
C1427 H1415 0.929 . S
C1427 C1421 1.390 . S
C1427 C1424 1.386 . S
C1428 C1423 1.490 . S
C1428 C1430 1.395 . S
C1428 C1431 1.403 . S
H1429 C1435 0.930 . S
C1430 H1416 0.930 . S
C1430 C1428 1.395 . S
C1430 C1433 1.403 . S
C1431 C1428 1.403 . S
C1431 C1432 1.524 . S
C1431 C1435 1.400 . S
C1432 H1417 0.960 . S
C1432 H1418 0.960 . S
C1432 H1419 0.960 . S
C1432 C1431 1.524 . S
C1433 C1430 1.403 . S
C1433 C1434 1.392 . S
C1433 C1437 1.495 . S
C1434 C1433 1.392 . S
C1434 C1435 1.385 . S
C1434 C1436 1.478 . S
C1435 H1429 0.930 . S
C1435 C1431 1.400 . S
C1435 C1434 1.385 . S
C1436 C1434 1.478 . S
C1436 C1438 1.381 . S
C1436 C1442 1.383 . S
C1437 C1433 1.495 . S
C1437 H1443 0.959 . S
C1437 H1444 0.961 . S
C1437 H1445 0.960 . S
C1438 C1436 1.381 . S
C1438 C1439 1.394 . S
C1438 H1446 0.930 . S
C1439 C1438 1.394 . S
C1439 C1440 1.383 . S
C1439 H1447 0.929 . S
C1440 C1439 1.383 . S
C1440 C1441 1.377 . S
C1441 H1425 0.930 . S
C1441 C1440 1.377 . S
C1441 C1442 1.379 . S
C1442 H1426 0.931 . S
C1442 C1436 1.383 . S
C1442 C1441 1.379 . S
H1443 C1437 0.959 . S
H1444 C1437 0.961 . S
H1445 C1437 0.960 . S
H1446 C1438 0.930 . S
H1447 C1439 0.929 . S
H1448 C1456 0.929 . S
H1449 C1458 0.930 . S
H1450 C1460 0.930 . S
H1451 C1463 0.929 . S
H1452 C1466 0.930 . S
H1453 C1468 0.960 . S
H1454 C1468 0.960 . S
H1455 C1468 0.960 . S
C1456 H1448 0.929 . S
C1456 C1457 1.377 . S
C1456 C1458 1.384 . S
C1457 C1456 1.377 . S
C1457 C1463 1.390 . S
C1458 H1449 0.930 . S
C1458 C1456 1.384 . S
C1458 C1459 1.372 . S
C1459 C1458 1.372 . S
C1459 C1460 1.400 . S
C1459 C1464 1.490 . S
C1460 H1450 0.930 . S
C1460 C1459 1.400 . S
C1460 C1463 1.386 . S
H1461 C1477 0.930 . S
H1462 C1478 0.931 . S
C1463 H1451 0.929 . S
C1463 C1457 1.390 . S
C1463 C1460 1.386 . S
C1464 C1459 1.490 . S
C1464 C1466 1.395 . S
C1464 C1467 1.403 . S
H1465 C1471 0.930 . S
C1466 H1452 0.930 . S
C1466 C1464 1.395 . S
C1466 C1469 1.403 . S
C1467 C1464 1.403 . S
C1467 C1468 1.524 . S
C1467 C1471 1.400 . S
C1468 H1453 0.960 . S
C1468 H1454 0.960 . S
C1468 H1455 0.960 . S
C1468 C1467 1.524 . S
C1469 C1466 1.403 . S
C1469 C1470 1.392 . S
C1469 C1473 1.495 . S
C1470 C1469 1.392 . S
C1470 C1471 1.385 . S
C1470 C1472 1.478 . S
C1471 H1465 0.930 . S
C1471 C1467 1.400 . S
C1471 C1470 1.385 . S
C1472 C1470 1.478 . S
C1472 C1474 1.381 . S
C1472 C1478 1.383 . S
C1473 C1469 1.495 . S
C1473 H1479 0.959 . S
C1473 H1480 0.961 . S
C1473 H1481 0.960 . S
C1474 C1472 1.381 . S
C1474 C1475 1.394 . S
C1474 H1482 0.930 . S
C1475 C1474 1.394 . S
C1475 C1476 1.383 . S
C1475 H1483 0.929 . S
C1476 C1475 1.383 . S
C1476 C1477 1.377 . S
C1477 H1461 0.930 . S
C1477 C1476 1.377 . S
C1477 C1478 1.379 . S
C1478 H1462 0.931 . S
C1478 C1472 1.383 . S
C1478 C1477 1.379 . S
H1479 C1473 0.959 . S
H1480 C1473 0.961 . S
H1481 C1473 0.960 . S
H1482 C1474 0.930 . S
H1483 C1475 0.929 . S
H1484 C1492 0.929 . S
H1485 C1494 0.930 . S
H1486 C1496 0.930 . S
H1487 C1499 0.929 . S
H1488 C1502 0.930 . S
H1489 C1504 0.960 . S
H1490 C1504 0.960 . S
H1491 C1504 0.960 . S
C1492 H1484 0.929 . S
C1492 C1493 1.377 . S
C1492 C1494 1.384 . S
C1493 C1492 1.377 . S
C1493 C1499 1.390 . S
C1494 H1485 0.930 . S
C1494 C1492 1.384 . S
C1494 C1495 1.372 . S
C1495 C1494 1.372 . S
C1495 C1496 1.400 . S
C1495 C1500 1.490 . S
C1496 H1486 0.930 . S
C1496 C1495 1.400 . S
C1496 C1499 1.386 . S
H1497 C1513 0.930 . S
H1498 C1514 0.931 . S
C1499 H1487 0.929 . S
C1499 C1493 1.390 . S
C1499 C1496 1.386 . S
C1500 C1495 1.490 . S
C1500 C1502 1.395 . S
C1500 C1503 1.403 . S
H1501 C1507 0.930 . S
C1502 H1488 0.930 . S
C1502 C1500 1.395 . S
C1502 C1505 1.403 . S
C1503 C1500 1.403 . S
C1503 C1504 1.524 . S
C1503 C1507 1.400 . S
C1504 H1489 0.960 . S
C1504 H1490 0.960 . S
C1504 H1491 0.960 . S
C1504 C1503 1.524 . S
C1505 C1502 1.403 . S
C1505 C1506 1.392 . S
C1505 C1509 1.495 . S
C1506 C1505 1.392 . S
C1506 C1507 1.385 . S
C1506 C1508 1.478 . S
C1507 H1501 0.930 . S
C1507 C1503 1.400 . S
C1507 C1506 1.385 . S
C1508 C1506 1.478 . S
C1508 C1510 1.381 . S
C1508 C1514 1.383 . S
C1509 C1505 1.495 . S
C1509 H1515 0.959 . S
C1509 H1516 0.961 . S
C1509 H1517 0.960 . S
C1510 C1508 1.381 . S
C1510 C1511 1.394 . S
C1510 H1518 0.930 . S
C1511 C1510 1.394 . S
C1511 C1512 1.383 . S
C1511 H1519 0.929 . S
C1512 C1511 1.383 . S
C1512 C1513 1.377 . S
C1513 H1497 0.930 . S
C1513 C1512 1.377 . S
C1513 C1514 1.379 . S
C1514 H1498 0.931 . S
C1514 C1508 1.383 . S
C1514 C1513 1.379 . S
H1515 C1509 0.959 . S
H1516 C1509 0.961 . S
H1517 C1509 0.960 . S
H1518 C1510 0.930 . S
H1519 C1511 0.929 . S
H1520 C1528 0.929 . S
H1521 C1530 0.930 . S
H1522 C1532 0.930 . S
H1523 C1535 0.929 . S
H1524 C1538 0.930 . S
H1525 C1540 0.960 . S
H1526 C1540 0.960 . S
H1527 C1540 0.960 . S
C1528 H1520 0.929 . S
C1528 C1529 1.377 . S
C1528 C1530 1.384 . S
C1529 C1528 1.377 . S
C1529 C1535 1.390 . S
C1530 H1521 0.930 . S
C1530 C1528 1.384 . S
C1530 C1531 1.372 . S
C1531 C1530 1.372 . S
C1531 C1532 1.400 . S
C1531 C1536 1.490 . S
C1532 H1522 0.930 . S
C1532 C1531 1.400 . S
C1532 C1535 1.386 . S
H1533 C1549 0.930 . S
H1534 C1550 0.931 . S
C1535 H1523 0.929 . S
C1535 C1529 1.390 . S
C1535 C1532 1.386 . S
C1536 C1531 1.490 . S
C1536 C1538 1.395 . S
C1536 C1539 1.403 . S
H1537 C1543 0.930 . S
C1538 H1524 0.930 . S
C1538 C1536 1.395 . S
C1538 C1541 1.403 . S
C1539 C1536 1.403 . S
C1539 C1540 1.524 . S
C1539 C1543 1.400 . S
C1540 H1525 0.960 . S
C1540 H1526 0.960 . S
C1540 H1527 0.960 . S
C1540 C1539 1.524 . S
C1541 C1538 1.403 . S
C1541 C1542 1.392 . S
C1541 C1545 1.495 . S
C1542 C1541 1.392 . S
C1542 C1543 1.385 . S
C1542 C1544 1.478 . S
C1543 H1537 0.930 . S
C1543 C1539 1.400 . S
C1543 C1542 1.385 . S
C1544 C1542 1.478 . S
C1544 C1546 1.381 . S
C1544 C1550 1.383 . S
C1545 C1541 1.495 . S
C1545 H1551 0.959 . S
C1545 H1552 0.961 . S
C1545 H1553 0.960 . S
C1546 C1544 1.381 . S
C1546 C1547 1.394 . S
C1546 H1554 0.930 . S
C1547 C1546 1.394 . S
C1547 C1548 1.383 . S
C1547 H1555 0.929 . S
C1548 C1547 1.383 . S
C1548 C1549 1.377 . S
C1549 H1533 0.930 . S
C1549 C1548 1.377 . S
C1549 C1550 1.379 . S
C1550 H1534 0.931 . S
C1550 C1544 1.383 . S
C1550 C1549 1.379 . S
H1551 C1545 0.959 . S
H1552 C1545 0.961 . S
H1553 C1545 0.960 . S
H1554 C1546 0.930 . S
H1555 C1547 0.929 . S
H1556 C1564 0.929 . S
H1557 C1566 0.930 . S
H1558 C1568 0.930 . S
H1559 C1571 0.929 . S
H1560 C1574 0.930 . S
H1561 C1576 0.960 . S
H1562 C1576 0.960 . S
H1563 C1576 0.960 . S
C1564 H1556 0.929 . S
C1564 C1565 1.377 . S
C1564 C1566 1.384 . S
C1565 C1564 1.377 . S
C1565 C1571 1.390 . S
C1566 H1557 0.930 . S
C1566 C1564 1.384 . S
C1566 C1567 1.372 . S
C1567 C1566 1.372 . S
C1567 C1568 1.400 . S
C1567 C1572 1.490 . S
C1568 H1558 0.930 . S
C1568 C1567 1.400 . S
C1568 C1571 1.386 . S
H1569 C1585 0.930 . S
H1570 C1586 0.931 . S
C1571 H1559 0.929 . S
C1571 C1565 1.390 . S
C1571 C1568 1.386 . S
C1572 C1567 1.490 . S
C1572 C1574 1.395 . S
C1572 C1575 1.403 . S
H1573 C1579 0.930 . S
C1574 H1560 0.930 . S
C1574 C1572 1.395 . S
C1574 C1577 1.403 . S
C1575 C1572 1.403 . S
C1575 C1576 1.524 . S
C1575 C1579 1.400 . S
C1576 H1561 0.960 . S
C1576 H1562 0.960 . S
C1576 H1563 0.960 . S
C1576 C1575 1.524 . S
C1577 C1574 1.403 . S
C1577 C1578 1.392 . S
C1577 C1581 1.495 . S
C1578 C1577 1.392 . S
C1578 C1579 1.385 . S
C1578 C1580 1.478 . S
C1579 H1573 0.930 . S
C1579 C1575 1.400 . S
C1579 C1578 1.385 . S
C1580 C1578 1.478 . S
C1580 C1582 1.381 . S
C1580 C1586 1.383 . S
C1581 C1577 1.495 . S
C1581 H1587 0.959 . S
C1581 H1588 0.961 . S
C1581 H1589 0.960 . S
C1582 C1580 1.381 . S
C1582 C1583 1.394 . S
C1582 H1590 0.930 . S
C1583 C1582 1.394 . S
C1583 C1584 1.383 . S
C1583 H1591 0.929 . S
C1584 C1583 1.383 . S
C1584 C1585 1.377 . S
C1585 H1569 0.930 . S
C1585 C1584 1.377 . S
C1585 C1586 1.379 . S
C1586 H1570 0.931 . S
C1586 C1580 1.383 . S
C1586 C1585 1.379 . S
H1587 C1581 0.959 . S
H1588 C1581 0.961 . S
H1589 C1581 0.960 . S
H1590 C1582 0.930 . S
H1591 C1583 0.929 . S
H1592 C1600 0.929 . S
H1593 C1602 0.930 . S
H1594 C1604 0.930 . S
H1595 C1607 0.929 . S
H1596 C1610 0.930 . S
H1597 C1612 0.960 . S
H1598 C1612 0.960 . S
H1599 C1612 0.960 . S
C1600 H1592 0.929 . S
C1600 C1601 1.377 . S
C1600 C1602 1.384 . S
C1601 C1600 1.377 . S
C1601 C1607 1.390 . S
C1602 H1593 0.930 . S
C1602 C1600 1.384 . S
C1602 C1603 1.372 . S
C1603 C1602 1.372 . S
C1603 C1604 1.400 . S
C1603 C1608 1.490 . S
C1604 H1594 0.930 . S
C1604 C1603 1.400 . S
C1604 C1607 1.386 . S
H1605 C1621 0.930 . S
H1606 C1622 0.931 . S
C1607 H1595 0.929 . S
C1607 C1601 1.390 . S
C1607 C1604 1.386 . S
C1608 C1603 1.490 . S
C1608 C1610 1.395 . S
C1608 C1611 1.403 . S
H1609 C1615 0.930 . S
C1610 H1596 0.930 . S
C1610 C1608 1.395 . S
C1610 C1613 1.403 . S
C1611 C1608 1.403 . S
C1611 C1612 1.524 . S
C1611 C1615 1.400 . S
C1612 H1597 0.960 . S
C1612 H1598 0.960 . S
C1612 H1599 0.960 . S
C1612 C1611 1.524 . S
C1613 C1610 1.403 . S
C1613 C1614 1.392 . S
C1613 C1617 1.495 . S
C1614 C1613 1.392 . S
C1614 C1615 1.385 . S
C1614 C1616 1.478 . S
C1615 H1609 0.930 . S
C1615 C1611 1.400 . S
C1615 C1614 1.385 . S
C1616 C1614 1.478 . S
C1616 C1618 1.381 . S
C1616 C1622 1.383 . S
C1617 C1613 1.495 . S
C1617 H1623 0.959 . S
C1617 H1624 0.961 . S
C1617 H1625 0.960 . S
C1618 C1616 1.381 . S
C1618 C1619 1.394 . S
C1618 H1626 0.930 . S
C1619 C1618 1.394 . S
C1619 C1620 1.383 . S
C1619 H1627 0.929 . S
C1620 C1619 1.383 . S
C1620 C1621 1.377 . S
C1621 H1605 0.930 . S
C1621 C1620 1.377 . S
C1621 C1622 1.379 . S
C1622 H1606 0.931 . S
C1622 C1616 1.383 . S
C1622 C1621 1.379 . S
H1623 C1617 0.959 . S
H1624 C1617 0.961 . S
H1625 C1617 0.960 . S
H1626 C1618 0.930 . S
H1627 C1619 0.929 . S
H1628 C1636 0.929 . S
H1629 C1638 0.930 . S
H1630 C1640 0.930 . S
H1631 C1643 0.929 . S
H1632 C1646 0.930 . S
H1633 C1648 0.960 . S
H1634 C1648 0.960 . S
H1635 C1648 0.960 . S
C1636 H1628 0.929 . S
C1636 C1637 1.377 . S
C1636 C1638 1.384 . S
C1637 C1636 1.377 . S
C1637 C1643 1.390 . S
C1638 H1629 0.930 . S
C1638 C1636 1.384 . S
C1638 C1639 1.372 . S
C1639 C1638 1.372 . S
C1639 C1640 1.400 . S
C1639 C1644 1.490 . S
C1640 H1630 0.930 . S
C1640 C1639 1.400 . S
C1640 C1643 1.386 . S
H1641 C1657 0.930 . S
H1642 C1658 0.931 . S
C1643 H1631 0.929 . S
C1643 C1637 1.390 . S
C1643 C1640 1.386 . S
C1644 C1639 1.490 . S
C1644 C1646 1.395 . S
C1644 C1647 1.403 . S
H1645 C1651 0.930 . S
C1646 H1632 0.930 . S
C1646 C1644 1.395 . S
C1646 C1649 1.403 . S
C1647 C1644 1.403 . S
C1647 C1648 1.524 . S
C1647 C1651 1.400 . S
C1648 H1633 0.960 . S
C1648 H1634 0.960 . S
C1648 H1635 0.960 . S
C1648 C1647 1.524 . S
C1649 C1646 1.403 . S
C1649 C1650 1.392 . S
C1649 C1653 1.495 . S
C1650 C1649 1.392 . S
C1650 C1651 1.385 . S
C1650 C1652 1.478 . S
C1651 H1645 0.930 . S
C1651 C1647 1.400 . S
C1651 C1650 1.385 . S
C1652 C1650 1.478 . S
C1652 C1654 1.381 . S
C1652 C1658 1.383 . S
C1653 C1649 1.495 . S
C1653 H1659 0.959 . S
C1653 H1660 0.961 . S
C1653 H1661 0.960 . S
C1654 C1652 1.381 . S
C1654 C1655 1.394 . S
C1654 H1662 0.930 . S
C1655 C1654 1.394 . S
C1655 C1656 1.383 . S
C1655 H1663 0.929 . S
C1656 C1655 1.383 . S
C1656 C1657 1.377 . S
C1657 H1641 0.930 . S
C1657 C1656 1.377 . S
C1657 C1658 1.379 . S
C1658 H1642 0.931 . S
C1658 C1652 1.383 . S
C1658 C1657 1.379 . S
H1659 C1653 0.959 . S
H1660 C1653 0.961 . S
H1661 C1653 0.960 . S
H1662 C1654 0.930 . S
H1663 C1655 0.929 . S
H1664 C1672 0.929 . S
H1665 C1674 0.930 . S
H1666 C1676 0.930 . S
H1667 C1679 0.929 . S
H1668 C1682 0.930 . S
H1669 C1684 0.960 . S
H1670 C1684 0.960 . S
H1671 C1684 0.960 . S
C1672 H1664 0.929 . S
C1672 C1673 1.377 . S
C1672 C1674 1.384 . S
C1673 C1672 1.377 . S
C1673 C1679 1.390 . S
C1674 H1665 0.930 . S
C1674 C1672 1.384 . S
C1674 C1675 1.372 . S
C1675 C1674 1.372 . S
C1675 C1676 1.400 . S
C1675 C1680 1.490 . S
C1676 H1666 0.930 . S
C1676 C1675 1.400 . S
C1676 C1679 1.386 . S
H1677 C1693 0.930 . S
H1678 C1694 0.931 . S
C1679 H1667 0.929 . S
C1679 C1673 1.390 . S
C1679 C1676 1.386 . S
C1680 C1675 1.490 . S
C1680 C1682 1.395 . S
C1680 C1683 1.403 . S
H1681 C1687 0.930 . S
C1682 H1668 0.930 . S
C1682 C1680 1.395 . S
C1682 C1685 1.403 . S
C1683 C1680 1.403 . S
C1683 C1684 1.524 . S
C1683 C1687 1.400 . S
C1684 H1669 0.960 . S
C1684 H1670 0.960 . S
C1684 H1671 0.960 . S
C1684 C1683 1.524 . S
C1685 C1682 1.403 . S
C1685 C1686 1.392 . S
C1685 C1689 1.495 . S
C1686 C1685 1.392 . S
C1686 C1687 1.385 . S
C1686 C1688 1.478 . S
C1687 H1681 0.930 . S
C1687 C1683 1.400 . S
C1687 C1686 1.385 . S
C1688 C1686 1.478 . S
C1688 C1690 1.381 . S
C1688 C1694 1.383 . S
C1689 C1685 1.495 . S
C1689 H1695 0.959 . S
C1689 H1696 0.961 . S
C1689 H1697 0.960 . S
C1690 C1688 1.381 . S
C1690 C1691 1.394 . S
C1690 H1698 0.930 . S
C1691 C1690 1.394 . S
C1691 C1692 1.383 . S
C1691 H1699 0.929 . S
C1692 C1691 1.383 . S
C1692 C1693 1.377 . S
C1693 H1677 0.930 . S
C1693 C1692 1.377 . S
C1693 C1694 1.379 . S
C1694 H1678 0.931 . S
C1694 C1688 1.383 . S
C1694 C1693 1.379 . S
H1695 C1689 0.959 . S
H1696 C1689 0.961 . S
H1697 C1689 0.960 . S
H1698 C1690 0.930 . S
H1699 C1691 0.929 . S
H1700 C1708 0.929 . S
H1701 C1710 0.930 . S
H1702 C1712 0.930 . S
H1703 C1715 0.929 . S
H1704 C1718 0.930 . S
H1705 C1720 0.960 . S
H1706 C1720 0.960 . S
H1707 C1720 0.960 . S
C1708 H1700 0.929 . S
C1708 C1709 1.377 . S
C1708 C1710 1.384 . S
C1709 C1708 1.377 . S
C1709 C1715 1.390 . S
C1710 H1701 0.930 . S
C1710 C1708 1.384 . S
C1710 C1711 1.372 . S
C1711 C1710 1.372 . S
C1711 C1712 1.400 . S
C1711 C1716 1.490 . S
C1712 H1702 0.930 . S
C1712 C1711 1.400 . S
C1712 C1715 1.386 . S
H1713 C1729 0.930 . S
H1714 C1730 0.931 . S
C1715 H1703 0.929 . S
C1715 C1709 1.390 . S
C1715 C1712 1.386 . S
C1716 C1711 1.490 . S
C1716 C1718 1.395 . S
C1716 C1719 1.403 . S
H1717 C1723 0.930 . S
C1718 H1704 0.930 . S
C1718 C1716 1.395 . S
C1718 C1721 1.403 . S
C1719 C1716 1.403 . S
C1719 C1720 1.524 . S
C1719 C1723 1.400 . S
C1720 H1705 0.960 . S
C1720 H1706 0.960 . S
C1720 H1707 0.960 . S
C1720 C1719 1.524 . S
C1721 C1718 1.403 . S
C1721 C1722 1.392 . S
C1721 C1725 1.495 . S
C1722 C1721 1.392 . S
C1722 C1723 1.385 . S
C1722 C1724 1.478 . S
C1723 H1717 0.930 . S
C1723 C1719 1.400 . S
C1723 C1722 1.385 . S
C1724 C1722 1.478 . S
C1724 C1726 1.381 . S
C1724 C1730 1.383 . S
C1725 C1721 1.495 . S
C1725 H1731 0.959 . S
C1725 H1732 0.961 . S
C1725 H1733 0.960 . S
C1726 C1724 1.381 . S
C1726 C1727 1.394 . S
C1726 H1734 0.930 . S
C1727 C1726 1.394 . S
C1727 C1728 1.383 . S
C1727 H1735 0.929 . S
C1728 C1727 1.383 . S
C1728 C1729 1.377 . S
C1729 H1713 0.930 . S
C1729 C1728 1.377 . S
C1729 C1730 1.379 . S
C1730 H1714 0.931 . S
C1730 C1724 1.383 . S
C1730 C1729 1.379 . S
H1731 C1725 0.959 . S
H1732 C1725 0.961 . S
H1733 C1725 0.960 . S
H1734 C1726 0.930 . S
H1735 C1727 0.929 . S
H1736 C1744 0.929 . S
H1737 C1746 0.930 . S
H1738 C1748 0.930 . S
H1739 C1751 0.929 . S
H1740 C1754 0.930 . S
H1741 C1756 0.960 . S
H1742 C1756 0.960 . S
H1743 C1756 0.960 . S
C1744 H1736 0.929 . S
C1744 C1745 1.377 . S
C1744 C1746 1.384 . S
C1745 C1744 1.377 . S
C1745 C1751 1.390 . S
C1746 H1737 0.930 . S
C1746 C1744 1.384 . S
C1746 C1747 1.372 . S
C1747 C1746 1.372 . S
C1747 C1748 1.400 . S
C1747 C1752 1.490 . S
C1748 H1738 0.930 . S
C1748 C1747 1.400 . S
C1748 C1751 1.386 . S
H1749 C1765 0.930 . S
H1750 C1766 0.931 . S
C1751 H1739 0.929 . S
C1751 C1745 1.390 . S
C1751 C1748 1.386 . S
C1752 C1747 1.490 . S
C1752 C1754 1.395 . S
C1752 C1755 1.403 . S
H1753 C1759 0.930 . S
C1754 H1740 0.930 . S
C1754 C1752 1.395 . S
C1754 C1757 1.403 . S
C1755 C1752 1.403 . S
C1755 C1756 1.524 . S
C1755 C1759 1.400 . S
C1756 H1741 0.960 . S
C1756 H1742 0.960 . S
C1756 H1743 0.960 . S
C1756 C1755 1.524 . S
C1757 C1754 1.403 . S
C1757 C1758 1.392 . S
C1757 C1761 1.495 . S
C1758 C1757 1.392 . S
C1758 C1759 1.385 . S
C1758 C1760 1.478 . S
C1759 H1753 0.930 . S
C1759 C1755 1.400 . S
C1759 C1758 1.385 . S
C1760 C1758 1.478 . S
C1760 C1762 1.381 . S
C1760 C1766 1.383 . S
C1761 C1757 1.495 . S
C1761 H1767 0.959 . S
C1761 H1768 0.961 . S
C1761 H1769 0.960 . S
C1762 C1760 1.381 . S
C1762 C1763 1.394 . S
C1762 H1770 0.930 . S
C1763 C1762 1.394 . S
C1763 C1764 1.383 . S
C1763 H1771 0.929 . S
C1764 C1763 1.383 . S
C1764 C1765 1.377 . S
C1765 H1749 0.930 . S
C1765 C1764 1.377 . S
C1765 C1766 1.379 . S
C1766 H1750 0.931 . S
C1766 C1760 1.383 . S
C1766 C1765 1.379 . S
H1767 C1761 0.959 . S
H1768 C1761 0.961 . S
H1769 C1761 0.960 . S
H1770 C1762 0.930 . S
H1771 C1763 0.929 . S
H1772 C1780 0.929 . S
H1773 C1782 0.930 . S
H1774 C1784 0.930 . S
H1775 C1787 0.929 . S
H1776 C1790 0.930 . S
H1777 C1792 0.960 . S
H1778 C1792 0.960 . S
H1779 C1792 0.960 . S
C1780 H1772 0.929 . S
C1780 C1781 1.377 . S
C1780 C1782 1.384 . S
C1781 C1780 1.377 . S
C1781 C1787 1.390 . S
C1782 H1773 0.930 . S
C1782 C1780 1.384 . S
C1782 C1783 1.372 . S
C1783 C1782 1.372 . S
C1783 C1784 1.400 . S
C1783 C1788 1.490 . S
C1784 H1774 0.930 . S
C1784 C1783 1.400 . S
C1784 C1787 1.386 . S
H1785 C1801 0.930 . S
H1786 C1802 0.931 . S
C1787 H1775 0.929 . S
C1787 C1781 1.390 . S
C1787 C1784 1.386 . S
C1788 C1783 1.490 . S
C1788 C1790 1.395 . S
C1788 C1791 1.403 . S
H1789 C1795 0.930 . S
C1790 H1776 0.930 . S
C1790 C1788 1.395 . S
C1790 C1793 1.403 . S
C1791 C1788 1.403 . S
C1791 C1792 1.524 . S
C1791 C1795 1.400 . S
C1792 H1777 0.960 . S
C1792 H1778 0.960 . S
C1792 H1779 0.960 . S
C1792 C1791 1.524 . S
C1793 C1790 1.403 . S
C1793 C1794 1.392 . S
C1793 C1797 1.495 . S
C1794 C1793 1.392 . S
C1794 C1795 1.385 . S
C1794 C1796 1.478 . S
C1795 H1789 0.930 . S
C1795 C1791 1.400 . S
C1795 C1794 1.385 . S
C1796 C1794 1.478 . S
C1796 C1798 1.381 . S
C1796 C1802 1.383 . S
C1797 C1793 1.495 . S
C1797 H1803 0.959 . S
C1797 H1804 0.961 . S
C1797 H1805 0.960 . S
C1798 C1796 1.381 . S
C1798 C1799 1.394 . S
C1798 H1806 0.930 . S
C1799 C1798 1.394 . S
C1799 C1800 1.383 . S
C1799 H1807 0.929 . S
C1800 C1799 1.383 . S
C1800 C1801 1.377 . S
C1801 H1785 0.930 . S
C1801 C1800 1.377 . S
C1801 C1802 1.379 . S
C1802 H1786 0.931 . S
C1802 C1796 1.383 . S
C1802 C1801 1.379 . S
H1803 C1797 0.959 . S
H1804 C1797 0.961 . S
H1805 C1797 0.960 . S
H1806 C1798 0.930 . S
H1807 C1799 0.929 . S
H1808 C1816 0.929 . S
H1809 C1818 0.930 . S
H1810 C1820 0.930 . S
H1811 C1823 0.929 . S
H1812 C1826 0.930 . S
H1813 C1828 0.960 . S
H1814 C1828 0.960 . S
H1815 C1828 0.960 . S
C1816 H1808 0.929 . S
C1816 C1817 1.377 . S
C1816 C1818 1.384 1_545 S
C1817 C1816 1.377 . S
C1817 C1823 1.390 . S
C1818 H1809 0.930 . S
C1818 C1816 1.384 1_565 S
C1818 C1819 1.372 . S
C1819 C1818 1.372 . S
C1819 C1820 1.399 1_565 S
C1819 C1824 1.491 . S
C1820 H1810 0.930 . S
C1820 C1819 1.399 1_545 S
C1820 C1823 1.386 . S
H1821 C1837 0.930 . S
H1822 C1838 0.931 . S
C1823 H1811 0.929 . S
C1823 C1817 1.390 . S
C1823 C1820 1.386 . S
C1824 C1819 1.491 . S
C1824 C1826 1.395 . S
C1824 C1827 1.403 . S
H1825 C1831 0.930 . S
C1826 H1812 0.930 . S
C1826 C1824 1.395 . S
C1826 C1829 1.403 . S
C1827 C1824 1.403 . S
C1827 C1828 1.524 . S
C1827 C1831 1.400 . S
C1828 H1813 0.960 . S
C1828 H1814 0.960 . S
C1828 H1815 0.960 . S
C1828 C1827 1.524 . S
C1829 C1826 1.403 . S
C1829 C1830 1.392 . S
C1829 C1833 1.495 . S
C1830 C1829 1.392 . S
C1830 C1831 1.385 . S
C1830 C1832 1.478 . S
C1831 H1825 0.930 . S
C1831 C1827 1.400 . S
C1831 C1830 1.385 . S
C1832 C1830 1.478 . S
C1832 C1834 1.381 . S
C1832 C1838 1.383 . S
C1833 C1829 1.495 . S
C1833 H1839 0.959 . S
C1833 H1840 0.961 . S
C1833 H1841 0.960 . S
C1834 C1832 1.381 . S
C1834 C1835 1.394 . S
C1834 H1842 0.930 . S
C1835 C1834 1.394 . S
C1835 C1836 1.383 . S
C1835 H1843 0.929 . S
C1836 C1835 1.383 . S
C1836 C1837 1.377 . S
C1837 H1821 0.930 . S
C1837 C1836 1.377 . S
C1837 C1838 1.379 . S
C1838 H1822 0.931 . S
C1838 C1832 1.383 . S
C1838 C1837 1.379 . S
H1839 C1833 0.959 . S
H1840 C1833 0.961 . S
H1841 C1833 0.960 . S
H1842 C1834 0.930 . S
H1843 C1835 0.929 . S
H1844 C1852 0.929 . S
H1845 C1854 0.930 . S
H1846 C1856 0.930 . S
H1847 C1859 0.929 . S
H1848 C1862 0.930 . S
H1849 C1864 0.960 . S
H1850 C1864 0.960 . S
H1851 C1864 0.960 . S
C1852 H1844 0.929 . S
C1852 C1853 1.377 . S
C1852 C1854 1.384 . S
C1853 C1852 1.377 . S
C1853 C1859 1.390 . S
C1854 H1845 0.930 . S
C1854 C1852 1.384 . S
C1854 C1855 1.372 . S
C1855 C1854 1.372 . S
C1855 C1856 1.400 . S
C1855 C1860 1.490 . S
C1856 H1846 0.930 . S
C1856 C1855 1.400 . S
C1856 C1859 1.386 . S
H1857 C1873 0.930 . S
H1858 C1874 0.931 . S
C1859 H1847 0.929 . S
C1859 C1853 1.390 . S
C1859 C1856 1.386 . S
C1860 C1855 1.490 . S
C1860 C1862 1.395 . S
C1860 C1863 1.403 . S
H1861 C1867 0.930 . S
C1862 H1848 0.930 . S
C1862 C1860 1.395 . S
C1862 C1865 1.403 . S
C1863 C1860 1.403 . S
C1863 C1864 1.524 . S
C1863 C1867 1.400 . S
C1864 H1849 0.960 . S
C1864 H1850 0.960 . S
C1864 H1851 0.960 . S
C1864 C1863 1.524 . S
C1865 C1862 1.403 . S
C1865 C1866 1.392 . S
C1865 C1869 1.495 . S
C1866 C1865 1.392 . S
C1866 C1867 1.385 . S
C1866 C1868 1.478 . S
C1867 H1861 0.930 . S
C1867 C1863 1.400 . S
C1867 C1866 1.385 . S
C1868 C1866 1.478 . S
C1868 C1870 1.381 . S
C1868 C1874 1.383 . S
C1869 C1865 1.495 . S
C1869 H1875 0.959 . S
C1869 H1876 0.961 . S
C1869 H1877 0.960 . S
C1870 C1868 1.381 . S
C1870 C1871 1.394 . S
C1870 H1878 0.930 . S
C1871 C1870 1.394 . S
C1871 C1872 1.383 . S
C1871 H1879 0.929 . S
C1872 C1871 1.383 . S
C1872 C1873 1.377 . S
C1873 H1857 0.930 . S
C1873 C1872 1.377 . S
C1873 C1874 1.379 . S
C1874 H1858 0.931 . S
C1874 C1868 1.383 . S
C1874 C1873 1.379 . S
H1875 C1869 0.959 . S
H1876 C1869 0.961 . S
H1877 C1869 0.960 . S
H1878 C1870 0.930 . S
H1879 C1871 0.929 . S
H1880 C1888 0.929 . S
H1881 C1890 0.930 . S
H1882 C1892 0.930 . S
H1883 C1895 0.929 . S
H1884 C1898 0.930 . S
H1885 C1900 0.960 . S
H1886 C1900 0.960 . S
H1887 C1900 0.960 . S
C1888 H1880 0.929 . S
C1888 C1889 1.377 . S
C1888 C1890 1.384 . S
C1889 C1888 1.377 . S
C1889 C1895 1.390 . S
C1890 H1881 0.930 . S
C1890 C1888 1.384 . S
C1890 C1891 1.372 . S
C1891 C1890 1.372 . S
C1891 C1892 1.400 . S
C1891 C1896 1.490 . S
C1892 H1882 0.930 . S
C1892 C1891 1.400 . S
C1892 C1895 1.386 . S
H1893 C1909 0.930 . S
H1894 C1910 0.928 1_455 S
C1895 H1883 0.929 . S
C1895 C1889 1.390 . S
C1895 C1892 1.386 . S
C1896 C1891 1.490 . S
C1896 C1898 1.395 . S
C1896 C1899 1.403 . S
H1897 C1903 0.886 1_655 S
C1898 H1884 0.930 . S
C1898 C1896 1.395 . S
C1898 C1901 1.403 . S
C1899 C1896 1.403 . S
C1899 C1900 1.524 . S
C1899 C1903 1.400 . S
C1900 H1885 0.960 . S
C1900 H1886 0.960 . S
C1900 H1887 0.960 . S
C1900 C1899 1.524 . S
C1901 C1898 1.403 . S
C1901 C1902 1.392 . S
C1901 C1905 1.495 . S
C1902 C1901 1.392 . S
C1902 C1903 1.385 . S
C1902 C1904 1.478 . S
C1903 H1897 0.886 1_455 S
C1903 C1899 1.400 . S
C1903 C1902 1.385 . S
C1904 C1902 1.478 . S
C1904 C1906 1.381 1_455 S
C1904 C1910 1.383 1_455 S
C1905 C1901 1.495 . S
C1905 H1911 0.959 . S
C1905 H1912 0.961 . S
C1905 H1913 0.960 . S
C1906 C1904 1.381 1_655 S
C1906 C1907 1.394 . S
C1906 H1914 0.930 . S
C1907 C1906 1.394 . S
C1907 C1908 1.383 . S
C1907 H1915 0.929 . S
C1908 C1907 1.383 . S
C1908 C1909 1.377 . S
C1909 H1893 0.930 . S
C1909 C1908 1.377 . S
C1909 C1910 1.379 . S
C1910 H1894 0.928 1_655 S
C1910 C1904 1.383 1_655 S
C1910 C1909 1.379 . S
H1911 C1905 0.959 . S
H1912 C1905 0.961 . S
H1913 C1905 0.960 . S
H1914 C1906 0.930 . S
H1915 C1907 0.929 . S
H1916 C1924 0.929 . S
H1917 C1926 0.930 1_545 S
H1918 C1928 0.930 . S
H1919 C1931 0.929 . S
H1920 C1934 0.930 . S
H1921 C1936 0.960 . S
H1922 C1936 0.960 . S
H1923 C1936 0.960 . S
C1924 H1916 0.929 . S
C1924 C1925 1.377 . S
C1924 C1926 1.384 . S
C1925 C1924 1.377 . S
C1925 C1931 1.390 . S
C1926 H1917 0.930 1_565 S
C1926 C1924 1.384 . S
C1926 C1927 1.376 . S
C1927 C1926 1.376 . S
C1927 C1928 1.413 . S
C1927 C1932 1.474 1_565 S
C1928 H1918 0.930 . S
C1928 C1927 1.413 . S
C1928 C1931 1.386 . S
H1929 C1945 0.930 . S
H1930 C1946 0.931 . S
C1931 H1919 0.929 . S
C1931 C1925 1.390 . S
C1931 C1928 1.386 . S
C1932 C1927 1.474 1_545 S
C1932 C1934 1.395 . S
C1932 C1935 1.403 . S
H1933 C1939 0.930 1_455 S
C1934 H1920 0.930 . S
C1934 C1932 1.395 . S
C1934 C1937 1.403 . S
C1935 C1932 1.403 . S
C1935 C1936 1.524 1_545 S
C1935 C1939 1.400 . S
C1936 H1921 0.960 . S
C1936 H1922 0.960 . S
C1936 H1923 0.960 . S
C1936 C1935 1.524 1_565 S
C1937 C1934 1.403 . S
C1937 C1938 1.392 . S
C1937 C1941 1.495 . S
C1938 C1937 1.392 . S
C1938 C1939 1.385 . S
C1938 C1940 1.478 . S
C1939 H1933 0.930 1_655 S
C1939 C1935 1.400 . S
C1939 C1938 1.385 . S
C1940 C1938 1.478 . S
C1940 C1942 1.381 1_655 S
C1940 C1946 1.383 1_655 S
C1941 C1937 1.495 . S
C1941 H1947 0.959 . S
C1941 H1948 0.961 . S
C1941 H1949 0.960 . S
C1942 C1940 1.381 1_455 S
C1942 C1943 1.394 . S
C1942 H1950 0.930 1_455 S
C1943 C1942 1.394 . S
C1943 C1944 1.383 . S
C1943 H1951 0.929 . S
C1944 C1943 1.383 . S
C1944 C1945 1.377 . S
C1945 H1929 0.930 . S
C1945 C1944 1.377 . S
C1945 C1946 1.379 . S
C1946 H1930 0.931 . S
C1946 C1940 1.383 1_455 S
C1946 C1945 1.379 . S
H1947 C1941 0.959 . S
H1948 C1941 0.961 . S
H1949 C1941 0.960 . S
H1950 C1942 0.930 1_655 S
H1951 C1943 0.929 . S
H1952 C1960 0.929 . S
H1953 C1962 0.930 . S
H1954 C1964 0.930 . S
H1955 C1967 0.929 . S
H1956 C1970 0.930 . S
H1957 C1972 0.960 . S
H1958 C1972 0.960 . S
H1959 C1972 0.960 . S
C1960 H1952 0.929 . S
C1960 C1961 1.377 . S
C1960 C1962 1.384 . S
C1961 C1960 1.377 . S
C1961 C1967 1.390 . S
C1962 H1953 0.930 . S
C1962 C1960 1.384 . S
C1962 C1963 1.372 . S
C1963 C1962 1.372 . S
C1963 C1964 1.400 . S
C1963 C1968 1.490 . S
C1964 H1954 0.930 . S
C1964 C1963 1.400 . S
C1964 C1967 1.386 . S
H1965 C1981 0.930 . S
H1966 C1982 0.931 . S
C1967 H1955 0.929 . S
C1967 C1961 1.390 . S
C1967 C1964 1.386 . S
C1968 C1963 1.490 . S
C1968 C1970 1.395 . S
C1968 C1971 1.403 . S
H1969 C1975 0.930 . S
C1970 H1956 0.930 . S
C1970 C1968 1.395 . S
C1970 C1973 1.403 . S
C1971 C1968 1.403 . S
C1971 C1972 1.524 . S
C1971 C1975 1.400 . S
C1972 H1957 0.960 . S
C1972 H1958 0.960 . S
C1972 H1959 0.960 . S
C1972 C1971 1.524 . S
C1973 C1970 1.403 . S
C1973 C1974 1.392 . S
C1973 C1977 1.495 . S
C1974 C1973 1.392 . S
C1974 C1975 1.385 . S
C1974 C1976 1.478 . S
C1975 H1969 0.930 . S
C1975 C1971 1.400 . S
C1975 C1974 1.385 . S
C1976 C1974 1.478 . S
C1976 C1978 1.381 . S
C1976 C1982 1.383 . S
C1977 C1973 1.495 . S
C1977 H1983 0.959 . S
C1977 H1984 0.961 . S
C1977 H1985 0.960 . S
C1978 C1976 1.381 . S
C1978 C1979 1.394 . S
C1978 H1986 0.930 . S
C1979 C1978 1.394 . S
C1979 C1980 1.383 . S
C1979 H1987 0.929 . S
C1980 C1979 1.383 . S
C1980 C1981 1.377 . S
C1981 H1965 0.930 . S
C1981 C1980 1.377 . S
C1981 C1982 1.379 . S
C1982 H1966 0.931 . S
C1982 C1976 1.383 . S
C1982 C1981 1.379 . S
H1983 C1977 0.959 . S
H1984 C1977 0.961 . S
H1985 C1977 0.960 . S
H1986 C1978 0.930 . S
H1987 C1979 0.929 . S
H1988 C1996 0.929 . S
H1989 C1998 0.930 . S
H1990 C2000 0.930 . S
H1991 C2003 0.929 . S
H1992 C2006 0.930 . S
H1993 C2008 0.960 . S
H1994 C2008 0.960 . S
H1995 C2008 0.960 . S
C1996 H1988 0.929 . S
C1996 C1997 1.377 . S
C1996 C1998 1.384 . S
C1997 C1996 1.377 . S
C1997 C2003 1.390 . S
C1998 H1989 0.930 . S
C1998 C1996 1.384 . S
C1998 C1999 1.372 . S
C1999 C1998 1.372 . S
C1999 C2000 1.400 1_455 S
C1999 C2004 1.490 1_455 S
C2000 H1990 0.930 . S
C2000 C1999 1.400 1_655 S
C2000 C2003 1.386 1_655 S
H2001 C2017 0.930 . S
H2002 C2018 0.931 . S
C2003 H1991 0.929 . S
C2003 C1997 1.390 . S
C2003 C2000 1.386 1_455 S
C2004 C1999 1.490 1_655 S
C2004 C2006 1.395 . S
C2004 C2007 1.403 . S
H2005 C2011 0.930 . S
C2006 H1992 0.930 . S
C2006 C2004 1.395 . S
C2006 C2009 1.403 . S
C2007 C2004 1.403 . S
C2007 C2008 1.524 . S
C2007 C2011 1.400 . S
C2008 H1993 0.960 . S
C2008 H1994 0.960 . S
C2008 H1995 0.960 . S
C2008 C2007 1.524 . S
C2009 C2006 1.403 . S
C2009 C2010 1.392 . S
C2009 C2013 1.495 . S
C2010 C2009 1.392 . S
C2010 C2011 1.385 . S
C2010 C2012 1.478 . S
C2011 H2005 0.930 . S
C2011 C2007 1.400 . S
C2011 C2010 1.385 . S
C2012 C2010 1.478 . S
C2012 C2014 1.381 . S
C2012 C2018 1.383 . S
C2013 C2009 1.495 . S
C2013 H2019 0.959 . S
C2013 H2020 0.961 . S
C2013 H2021 0.960 . S
C2014 C2012 1.381 . S
C2014 C2015 1.394 . S
C2014 H2022 0.930 . S
C2015 C2014 1.394 . S
C2015 C2016 1.383 . S
C2015 H2023 0.929 . S
C2016 C2015 1.383 . S
C2016 C2017 1.377 . S
C2017 H2001 0.930 . S
C2017 C2016 1.377 . S
C2017 C2018 1.379 . S
C2018 H2002 0.931 . S
C2018 C2012 1.383 . S
C2018 C2017 1.379 . S
H2019 C2013 0.959 . S
H2020 C2013 0.961 . S
H2021 C2013 0.960 . S
H2022 C2014 0.930 . S
H2023 C2015 0.929 . S
H2024 C2032 0.929 . S
H2025 C2034 0.930 . S
H2026 C2036 0.930 1_455 S
H2027 C2039 0.929 . S
H2028 C2042 0.930 . S
H2029 C2044 0.960 . S
H2030 C2044 0.960 1_655 S
H2031 C2044 0.961 . S
C2032 H2024 0.929 . S
C2032 C2033 1.377 . S
C2032 C2034 1.384 . S
C2033 C2032 1.377 . S
C2033 C2039 1.390 . S
C2034 H2025 0.930 . S
C2034 C2032 1.384 . S
C2034 C2035 1.372 . S
C2035 C2034 1.372 . S
C2035 C2036 1.400 . S
C2035 C2040 1.490 1_655 S
C2036 H2026 0.930 1_655 S
C2036 C2035 1.400 . S
C2036 C2039 1.386 . S
H2037 C2053 0.930 . S
H2038 C2054 0.941 . S
C2039 H2027 0.929 . S
C2039 C2033 1.390 . S
C2039 C2036 1.386 . S
C2040 C2035 1.490 1_455 S
C2040 C2042 1.395 . S
C2040 C2043 1.403 . S
H2041 C2047 0.930 . S
C2042 H2028 0.930 . S
C2042 C2040 1.395 . S
C2042 C2045 1.403 . S
C2043 C2040 1.403 . S
C2043 C2044 1.524 . S
C2043 C2047 1.400 . S
C2044 H2029 0.960 . S
C2044 H2030 0.960 1_455 S
C2044 H2031 0.961 . S
C2044 C2043 1.524 . S
C2045 C2042 1.403 . S
C2045 C2046 1.392 . S
C2045 C2049 1.495 . S
C2046 C2045 1.392 . S
C2046 C2047 1.385 . S
C2046 C2048 1.511 . S
C2047 H2041 0.930 . S
C2047 C2043 1.400 . S
C2047 C2046 1.385 . S
C2048 C2046 1.511 . S
C2048 C2050 1.347 1_565 S
C2048 C2054 1.382 . S
C2049 C2045 1.495 . S
C2049 H2055 0.959 . S
C2049 H2056 0.961 . S
C2049 H2057 0.960 . S
C2050 C2048 1.347 1_545 S
C2050 C2051 1.394 . S
C2050 H2058 0.930 . S
C2051 C2050 1.394 . S
C2051 C2052 1.383 . S
C2051 H2059 0.929 . S
C2052 C2051 1.383 . S
C2052 C2053 1.377 . S
C2053 H2037 0.930 . S
C2053 C2052 1.377 . S
C2053 C2054 1.369 1_545 S
C2054 H2038 0.941 . S
C2054 C2048 1.382 . S
C2054 C2053 1.369 1_565 S
H2055 C2049 0.959 . S
H2056 C2049 0.961 . S
H2057 C2049 0.960 . S
H2058 C2050 0.930 . S
H2059 C2051 0.929 . S
H2060 C2068 0.929 . S
H2061 C2070 0.930 1_545 S
H2062 C2072 0.930 . S
H2063 C2075 0.929 . S
H2064 C2078 0.930 . S
H2065 C2080 0.960 . S
H2066 C2080 0.960 . S
H2067 C2080 0.960 . S
C2068 H2060 0.929 . S
C2068 C2069 1.377 . S
C2068 C2070 1.384 . S
C2069 C2068 1.377 . S
C2069 C2075 1.390 . S
C2070 H2061 0.930 1_565 S
C2070 C2068 1.384 . S
C2070 C2071 1.374 . S
C2071 C2070 1.374 . S
C2071 C2072 1.412 . S
C2071 C2076 1.476 1_565 S
C2072 H2062 0.930 . S
C2072 C2071 1.412 . S
C2072 C2075 1.386 . S
H2073 C2089 0.930 . S
H2074 C2090 0.931 . S
C2075 H2063 0.929 . S
C2075 C2069 1.390 . S
C2075 C2072 1.386 . S
C2076 C2071 1.476 1_545 S
C2076 C2078 1.395 . S
C2076 C2079 1.403 . S
H2077 C2083 0.930 . S
C2078 H2064 0.930 . S
C2078 C2076 1.395 . S
C2078 C2081 1.403 . S
C2079 C2076 1.403 . S
C2079 C2080 1.524 1_545 S
C2079 C2083 1.400 . S
C2080 H2065 0.960 . S
C2080 H2066 0.960 . S
C2080 H2067 0.960 . S
C2080 C2079 1.524 1_565 S
C2081 C2078 1.403 . S
C2081 C2082 1.392 . S
C2081 C2085 1.495 . S
C2082 C2081 1.392 . S
C2082 C2083 1.385 . S
C2082 C2084 1.478 . S
C2083 H2077 0.930 . S
C2083 C2079 1.400 . S
C2083 C2082 1.385 . S
C2084 C2082 1.478 . S
C2084 C2086 1.381 . S
C2084 C2090 1.383 . S
C2085 C2081 1.495 . S
C2085 H2091 0.959 . S
C2085 H2092 0.961 . S
C2085 H2093 0.960 . S
C2086 C2084 1.381 . S
C2086 C2087 1.394 . S
C2086 H2094 0.930 . S
C2087 C2086 1.394 . S
C2087 C2088 1.383 . S
C2087 H2095 0.929 . S
C2088 C2087 1.383 . S
C2088 C2089 1.377 . S
C2089 H2073 0.930 . S
C2089 C2088 1.377 . S
C2089 C2090 1.379 . S
C2090 H2074 0.931 . S
C2090 C2084 1.383 . S
C2090 C2089 1.379 . S
H2091 C2085 0.959 . S
H2092 C2085 0.961 . S
H2093 C2085 0.960 . S
H2094 C2086 0.930 . S
H2095 C2087 0.929 . S
C953 C416 1.490 . S
C972 C3 1.465 . S
C989 C239 1.478 . S
C1008 C62 1.486 . S
C1025 C298 1.484 . S
C1044 C121 1.510 . S
C1061 C180 1.483 . S
C1080 C357 1.453 . S
C1097 C888 1.490 . S
C1116 C475 1.507 . S
C1133 C711 1.489 . S
C1152 C534 1.499 . S
C1169 C593 1.485 . S
C1188 C770 1.475 . S
C1205 C652 1.485 . S
C1224 C829 1.476 . S
C1241 C170 1.037 . S
C1260 C52 1.038 . S
C1277 C111 1.038 . S
C1296 C229 1.052 . S
C1313 C288 1.037 . S
C1332 C406 1.036 . S
C1349 C465 1.034 . S
C1368 C347 1.053 . S
C1385 C524 1.044 . S
C1404 C642 1.055 . S
C1421 C583 1.035 . S
C1440 C701 1.025 . S
C1457 C878 1.034 . S
C1476 C760 1.019 . S
C1493 C819 1.037 . S
C1512 C937 1.037 . S
C1529 C387 1.294 . S
C1548 C33 1.312 . S
C1565 C92 1.294 . S
C1584 C446 1.312 . S
C1601 C151 1.288 . S
C1620 C269 1.290 . S
C1637 C210 1.290 . S
C1656 C328 1.284 . S
C1673 C505 1.285 . S
C1692 C859 1.295 . S
C1709 C564 1.286 . S
C1728 C918 1.284 . S
C1745 C623 1.290 . S
C1764 C741 1.302 . S
C1781 C682 1.289 . S
C1800 C800 1.306 . S
C1817 C5 1.303 . S
C1836 C890 1.297 . S
C1853 C713 1.307 . S
C1872 C64 1.292 . S
C1889 C123 1.307 . S
C1908 C772 1.296 . S
C1925 C831 1.304 . S
C1944 C182 1.293 . S
C1961 C536 1.305 . S
C1980 C241 1.311 . S
C1997 C300 1.305 . S
C2016 C595 1.312 . S
C2033 C654 1.306 . S
C2052 C359 1.290 . S
C2069 C477 1.304 . S
C2088 C418 1.293 . S
