# Generated by pormake.
# Topology ict, (4)-cn, num edge types: 1
# Building blocks:
#     Node 0, Type 0, BuildingBlock: NAHDIM_clean_sbu_0, # of connection points: 4
#     Node 1, Type 0, BuildingBlock: NAHDIM_clean_sbu_0, # of connection points: 4
#     Node 2, Type 0, BuildingBlock: NAHDIM_clean_sbu_0, # of connection points: 4
#     Node 3, Type 0, BuildingBlock: NAHDIM_clean_sbu_0, # of connection points: 4
#     Node 4, Type 0, BuildingBlock: NAHDIM_clean_sbu_0, # of connection points: 4
#     Node 5, Type 0, BuildingBlock: NAHDIM_clean_sbu_0, # of connection points: 4
#     Node 6, Type 0, BuildingBlock: NAHDIM_clean_sbu_0, # of connection points: 4
#     Node 7, Type 0, BuildingBlock: NAHDIM_clean_sbu_0, # of connection points: 4
#     Node 8, Type 0, BuildingBlock: NAHDIM_clean_sbu_0, # of connection points: 4
#     Node 9, Type 0, BuildingBlock: NAHDIM_clean_sbu_0, # of connection points: 4
#     Node 10, Type 0, BuildingBlock: NAHDIM_clean_sbu_0, # of connection points: 4
#     Node 11, Type 0, BuildingBlock: NAHDIM_clean_sbu_0, # of connection points: 4
#     Node 12, Type 0, BuildingBlock: NAHDIM_clean_sbu_0, # of connection points: 4
#     Node 13, Type 0, BuildingBlock: NAHDIM_clean_sbu_0, # of connection points: 4
#     Node 14, Type 0, BuildingBlock: NAHDIM_clean_sbu_0, # of connection points: 4
#     Node 15, Type 0, BuildingBlock: NAHDIM_clean_sbu_0, # of connection points: 4
#     Node 16, Type 0, BuildingBlock: NAHDIM_clean_sbu_0, # of connection points: 4
#     Node 17, Type 0, BuildingBlock: NAHDIM_clean_sbu_0, # of connection points: 4
#     Node 18, Type 0, BuildingBlock: NAHDIM_clean_sbu_0, # of connection points: 4
#     Node 19, Type 0, BuildingBlock: NAHDIM_clean_sbu_0, # of connection points: 4
#     Node 20, Type 0, BuildingBlock: NAHDIM_clean_sbu_0, # of connection points: 4
#     Node 21, Type 0, BuildingBlock: NAHDIM_clean_sbu_0, # of connection points: 4
#     Node 22, Type 0, BuildingBlock: NAHDIM_clean_sbu_0, # of connection points: 4
#     Node 23, Type 0, BuildingBlock: NAHDIM_clean_sbu_0, # of connection points: 4
#     Node 24, Type 0, BuildingBlock: NAHDIM_clean_sbu_0, # of connection points: 4
#     Node 25, Type 0, BuildingBlock: NAHDIM_clean_sbu_0, # of connection points: 4
#     Node 26, Type 0, BuildingBlock: NAHDIM_clean_sbu_0, # of connection points: 4
#     Node 27, Type 0, BuildingBlock: NAHDIM_clean_sbu_0, # of connection points: 4
#     Node 28, Type 0, BuildingBlock: NAHDIM_clean_sbu_0, # of connection points: 4
#     Node 29, Type 0, BuildingBlock: NAHDIM_clean_sbu_0, # of connection points: 4
#     Node 30, Type 0, BuildingBlock: NAHDIM_clean_sbu_0, # of connection points: 4
#     Node 31, Type 0, BuildingBlock: NAHDIM_clean_sbu_0, # of connection points: 4
#     Node 32, Type 0, BuildingBlock: NAHDIM_clean_sbu_0, # of connection points: 4
#     Node 33, Type 0, BuildingBlock: NAHDIM_clean_sbu_0, # of connection points: 4
#     Node 34, Type 0, BuildingBlock: NAHDIM_clean_sbu_0, # of connection points: 4
#     Node 35, Type 0, BuildingBlock: NAHDIM_clean_sbu_0, # of connection points: 4
#     Edge 36, Type (0, 0), BuildingBlock: EZIPEK_clean_linker_0, # of connection points: 2
#     Edge 37, Type (0, 0), BuildingBlock: EZIPEK_clean_linker_0, # of connection points: 2
#     Edge 38, Type (0, 0), BuildingBlock: EZIPEK_clean_linker_0, # of connection points: 2
#     Edge 39, Type (0, 0), BuildingBlock: EZIPEK_clean_linker_0, # of connection points: 2
#     Edge 40, Type (0, 0), BuildingBlock: EZIPEK_clean_linker_0, # of connection points: 2
#     Edge 41, Type (0, 0), BuildingBlock: EZIPEK_clean_linker_0, # of connection points: 2
#     Edge 42, Type (0, 0), BuildingBlock: EZIPEK_clean_linker_0, # of connection points: 2
#     Edge 43, Type (0, 0), BuildingBlock: EZIPEK_clean_linker_0, # of connection points: 2
#     Edge 44, Type (0, 0), BuildingBlock: EZIPEK_clean_linker_0, # of connection points: 2
#     Edge 45, Type (0, 0), BuildingBlock: EZIPEK_clean_linker_0, # of connection points: 2
#     Edge 46, Type (0, 0), BuildingBlock: EZIPEK_clean_linker_0, # of connection points: 2
#     Edge 47, Type (0, 0), BuildingBlock: EZIPEK_clean_linker_0, # of connection points: 2
#     Edge 48, Type (0, 0), BuildingBlock: EZIPEK_clean_linker_0, # of connection points: 2
#     Edge 49, Type (0, 0), BuildingBlock: EZIPEK_clean_linker_0, # of connection points: 2
#     Edge 50, Type (0, 0), BuildingBlock: EZIPEK_clean_linker_0, # of connection points: 2
#     Edge 51, Type (0, 0), BuildingBlock: EZIPEK_clean_linker_0, # of connection points: 2
#     Edge 52, Type (0, 0), BuildingBlock: EZIPEK_clean_linker_0, # of connection points: 2
#     Edge 53, Type (0, 0), BuildingBlock: EZIPEK_clean_linker_0, # of connection points: 2
#     Edge 54, Type (0, 0), BuildingBlock: EZIPEK_clean_linker_0, # of connection points: 2
#     Edge 55, Type (0, 0), BuildingBlock: EZIPEK_clean_linker_0, # of connection points: 2
#     Edge 56, Type (0, 0), BuildingBlock: EZIPEK_clean_linker_0, # of connection points: 2
#     Edge 57, Type (0, 0), BuildingBlock: EZIPEK_clean_linker_0, # of connection points: 2
#     Edge 58, Type (0, 0), BuildingBlock: EZIPEK_clean_linker_0, # of connection points: 2
#     Edge 59, Type (0, 0), BuildingBlock: EZIPEK_clean_linker_0, # of connection points: 2
#     Edge 60, Type (0, 0), BuildingBlock: EZIPEK_clean_linker_0, # of connection points: 2
#     Edge 61, Type (0, 0), BuildingBlock: EZIPEK_clean_linker_0, # of connection points: 2
#     Edge 62, Type (0, 0), BuildingBlock: EZIPEK_clean_linker_0, # of connection points: 2
#     Edge 63, Type (0, 0), BuildingBlock: EZIPEK_clean_linker_0, # of connection points: 2
#     Edge 64, Type (0, 0), BuildingBlock: EZIPEK_clean_linker_0, # of connection points: 2
#     Edge 65, Type (0, 0), BuildingBlock: EZIPEK_clean_linker_0, # of connection points: 2
#     Edge 66, Type (0, 0), BuildingBlock: EZIPEK_clean_linker_0, # of connection points: 2
#     Edge 67, Type (0, 0), BuildingBlock: EZIPEK_clean_linker_0, # of connection points: 2
#     Edge 68, Type (0, 0), BuildingBlock: EZIPEK_clean_linker_0, # of connection points: 2
#     Edge 69, Type (0, 0), BuildingBlock: EZIPEK_clean_linker_0, # of connection points: 2
#     Edge 70, Type (0, 0), BuildingBlock: EZIPEK_clean_linker_0, # of connection points: 2
#     Edge 71, Type (0, 0), BuildingBlock: EZIPEK_clean_linker_0, # of connection points: 2
#     Edge 72, Type (0, 0), BuildingBlock: EZIPEK_clean_linker_0, # of connection points: 2
#     Edge 73, Type (0, 0), BuildingBlock: EZIPEK_clean_linker_0, # of connection points: 2
#     Edge 74, Type (0, 0), BuildingBlock: EZIPEK_clean_linker_0, # of connection points: 2
#     Edge 75, Type (0, 0), BuildingBlock: EZIPEK_clean_linker_0, # of connection points: 2
#     Edge 76, Type (0, 0), BuildingBlock: EZIPEK_clean_linker_0, # of connection points: 2
#     Edge 77, Type (0, 0), BuildingBlock: EZIPEK_clean_linker_0, # of connection points: 2
#     Edge 78, Type (0, 0), BuildingBlock: EZIPEK_clean_linker_0, # of connection points: 2
#     Edge 79, Type (0, 0), BuildingBlock: EZIPEK_clean_linker_0, # of connection points: 2
#     Edge 80, Type (0, 0), BuildingBlock: EZIPEK_clean_linker_0, # of connection points: 2
#     Edge 81, Type (0, 0), BuildingBlock: EZIPEK_clean_linker_0, # of connection points: 2
#     Edge 82, Type (0, 0), BuildingBlock: EZIPEK_clean_linker_0, # of connection points: 2
#     Edge 83, Type (0, 0), BuildingBlock: EZIPEK_clean_linker_0, # of connection points: 2
#     Edge 84, Type (0, 0), BuildingBlock: EZIPEK_clean_linker_0, # of connection points: 2
#     Edge 85, Type (0, 0), BuildingBlock: EZIPEK_clean_linker_0, # of connection points: 2
#     Edge 86, Type (0, 0), BuildingBlock: EZIPEK_clean_linker_0, # of connection points: 2
#     Edge 87, Type (0, 0), BuildingBlock: EZIPEK_clean_linker_0, # of connection points: 2
#     Edge 88, Type (0, 0), BuildingBlock: EZIPEK_clean_linker_0, # of connection points: 2
#     Edge 89, Type (0, 0), BuildingBlock: EZIPEK_clean_linker_0, # of connection points: 2
#     Edge 90, Type (0, 0), BuildingBlock: EZIPEK_clean_linker_0, # of connection points: 2
#     Edge 91, Type (0, 0), BuildingBlock: EZIPEK_clean_linker_0, # of connection points: 2
#     Edge 92, Type (0, 0), BuildingBlock: EZIPEK_clean_linker_0, # of connection points: 2
#     Edge 93, Type (0, 0), BuildingBlock: EZIPEK_clean_linker_0, # of connection points: 2
#     Edge 94, Type (0, 0), BuildingBlock: EZIPEK_clean_linker_0, # of connection points: 2
#     Edge 95, Type (0, 0), BuildingBlock: EZIPEK_clean_linker_0, # of connection points: 2
#     Edge 96, Type (0, 0), BuildingBlock: EZIPEK_clean_linker_0, # of connection points: 2
#     Edge 97, Type (0, 0), BuildingBlock: EZIPEK_clean_linker_0, # of connection points: 2
#     Edge 98, Type (0, 0), BuildingBlock: EZIPEK_clean_linker_0, # of connection points: 2
#     Edge 99, Type (0, 0), BuildingBlock: EZIPEK_clean_linker_0, # of connection points: 2
#     Edge 100, Type (0, 0), BuildingBlock: EZIPEK_clean_linker_0, # of connection points: 2
#     Edge 101, Type (0, 0), BuildingBlock: EZIPEK_clean_linker_0, # of connection points: 2
#     Edge 102, Type (0, 0), BuildingBlock: EZIPEK_clean_linker_0, # of connection points: 2
#     Edge 103, Type (0, 0), BuildingBlock: EZIPEK_clean_linker_0, # of connection points: 2
#     Edge 104, Type (0, 0), BuildingBlock: EZIPEK_clean_linker_0, # of connection points: 2
#     Edge 105, Type (0, 0), BuildingBlock: EZIPEK_clean_linker_0, # of connection points: 2
#     Edge 106, Type (0, 0), BuildingBlock: EZIPEK_clean_linker_0, # of connection points: 2
#     Edge 107, Type (0, 0), BuildingBlock: EZIPEK_clean_linker_0, # of connection points: 2
# Relax obj value: 0.088
# Max RMSD: 0.119
# Mean RMSD: 0.119
data_MOF--net-ict--node1-NAHDIM_clean_sbu_0--edge1-EZIPEK_clean_linker_0
_symmetry_space_group_name_H-M    P1
_symmetry_Int_Tables_number       1
_symmetry_cell_setting            triclinic
loop_
_symmetry_equiv_pos_as_xyz
'x, y, z'
_cell_length_a     48.585761
_cell_length_b     48.582596
_cell_length_c     26.59373
_cell_angle_alpha  89.97665
_cell_angle_beta   90.014942
_cell_angle_gamma 120.03023
loop_
_atom_site_label
_atom_site_type_symbol
_atom_site_fract_x
_atom_site_fract_y
_atom_site_fract_z
_atom_type_partial_charge
C0 C 0.27498 0.25392 0.95606 0.0
O1 O 0.24815 0.23356 0.93418 0.0
O2 O 0.20215 0.24163 0.01826 0.0
Zn3 Zn 0.23528 0.23055 0.04028 0.0
O4 O 0.22288 0.18558 0.02077 0.0
C5 C 0.22167 0.23176 0.14544 0.0
O6 O 0.19302 0.22254 0.12843 0.0
O7 O 0.27561 0.25818 0.00322 0.0
C8 C 0.20688 0.16101 0.0477 0.0
O9 O 0.19583 0.16347 0.09148 0.0
C10 C 0.17275 0.22094 0.01822 0.0
O11 O 0.16357 0.1917 0.03232 0.0
O12 O 0.24388 0.23716 0.11486 0.0
C13 C 0.7569 0.02578 0.96628 0.0
O14 O 0.78383 0.03188 0.94529 0.0
O15 O 0.7798 0.96436 0.02125 0.0
Zn16 Zn 0.78241 0.00527 0.04368 0.0
O17 O 0.82551 0.04238 0.02709 0.0
C18 C 0.75341 0.98141 0.14088 0.0
O19 O 0.72991 0.9594 0.11431 0.0
O20 O 0.74977 0.01298 0.00955 0.0
C21 C 0.84938 0.05196 0.05599 0.0
O22 O 0.84681 0.0368 0.0982 0.0
C23 C 0.79291 0.96242 0.98113 0.0
O24 O 0.80778 0.98728 0.95164 0.0
O25 O 0.7774 0.00365 0.11875 0.0
C26 C 0.99138 0.71577 0.9938 0.0
O27 O 0.02109 0.7309 0.00896 0.0
O28 O 0.02836 0.80216 0.01674 0.0
Zn29 Zn 0.98551 0.76731 0.04032 0.0
O30 O 0.95185 0.77894 0.02502 0.0
C31 C 0.00794 0.75862 0.13785 0.0
O32 O 0.03213 0.7606 0.11273 0.0
O33 O 0.97328 0.72701 0.00311 0.0
C34 C 0.93382 0.77967 0.05901 0.0
O35 O 0.93772 0.77408 0.10602 0.0
C36 C 0.03901 0.83059 0.0315 0.0
O37 O 0.02205 0.83723 0.06238 0.0
O38 O 0.98594 0.76018 0.1146 0.0
C39 C 0.25281 0.28155 0.55112 0.0
O40 O 0.23462 0.25538 0.57642 0.0
O41 O 0.2291 0.2036 0.48514 0.0
Zn42 Zn 0.2247 0.24135 0.46427 0.0
O43 O 0.17932 0.23117 0.4729 0.0
C44 C 0.21868 0.22945 0.36018 0.0
O45 O 0.19472 0.20255 0.37624 0.0
O46 O 0.25316 0.28081 0.50346 0.0
C47 C 0.17146 0.25231 0.46751 0.0
O48 O 0.19325 0.28155 0.45609 0.0
C49 C 0.20447 0.17663 0.49274 0.0
O50 O 0.17616 0.17363 0.48875 0.0
O51 O 0.23621 0.25065 0.39159 0.0
C52 C 0.72402 0.99077 0.52806 0.0
O53 O 0.74732 0.01988 0.53606 0.0
O54 O 0.80472 0.02542 0.48834 0.0
Zn55 Zn 0.76829 0.98459 0.46069 0.0
O56 O 0.77574 0.94772 0.47134 0.0
C57 C 0.75597 0.96723 0.35615 0.0
O58 O 0.75202 0.94005 0.37279 0.0
O59 O 0.72767 0.97289 0.49728 0.0
C60 C 0.80178 0.94797 0.4651 0.0
O61 O 0.82734 0.97422 0.45099 0.0
C62 C 0.82921 0.04247 0.4617 0.0
O63 O 0.83103 0.03317 0.41605 0.0
O64 O 0.76293 0.9899 0.38666 0.0
C65 C 0.02345 0.74215 0.51435 0.0
O66 O 0.99363 0.73476 0.51924 0.0
O67 O 0.98813 0.78709 0.47431 0.0
Zn68 Zn 0.02965 0.79306 0.44872 0.0
O69 O 0.06431 0.83847 0.45951 0.0
C70 C 0.00829 0.75677 0.35502 0.0
O71 O 0.99068 0.73189 0.38334 0.0
O72 O 0.04208 0.76506 0.48614 0.0
C73 C 0.07622 0.85819 0.42347 0.0
O74 O 0.06521 0.84958 0.37761 0.0
C75 C 0.97826 0.80543 0.45918 0.0
O76 O 0.99536 0.82825 0.42711 0.0
O77 O 0.02601 0.78371 0.37504 0.0
C78 C 0.72636 0.75284 0.02694 0.0
O79 O 0.74953 0.77796 0.04896 0.0
O80 O 0.80685 0.77509 0.97313 0.0
Zn81 Zn 0.76955 0.77823 0.94716 0.0
O82 O 0.7746 0.82142 0.96009 0.0
C83 C 0.78875 0.77735 0.84603 0.0
O84 O 0.81667 0.78823 0.86739 0.0
O85 O 0.72956 0.74667 0.98172 0.0
C86 C 0.79439 0.84663 0.93733 0.0
O87 O 0.814 0.84578 0.90424 0.0
C88 C 0.82775 0.79558 0.00235 0.0
O89 O 0.82515 0.81976 0.01819 0.0
O90 O 0.76451 0.7702 0.87293 0.0
C91 C 0.23869 0.98211 0.04129 0.0
O92 O 0.21272 0.97858 0.06256 0.0
O93 O 0.21577 0.03792 0.97689 0.0
Zn94 Zn 0.21249 0.99656 0.95664 0.0
O95 O 0.1687 0.96037 0.9727 0.0
C96 C 0.20443 0.00021 0.85108 0.0
O97 O 0.18061 0.00364 0.86623 0.0
O98 O 0.2444 0.99068 0.99561 0.0
C99 C 0.1612 0.93179 0.96368 0.0
O100 O 0.18189 0.92567 0.94221 0.0
C101 C 0.1914 0.04111 0.97938 0.0
O102 O 0.16327 0.01715 0.96784 0.0
O103 O 0.22186 0.9969 0.88319 0.0
C104 C 0.99021 0.27135 0.02472 0.0
O105 O 0.96091 0.24737 0.02373 0.0
O106 O 0.96653 0.19117 0.9929 0.0
Zn107 Zn 0.00608 0.22991 0.96767 0.0
O108 O 0.04421 0.22524 0.98215 0.0
C109 C 0.00084 0.21147 0.86576 0.0
O110 O 0.0018 0.18757 0.88683 0.0
O111 O 0.01227 0.26919 0.00276 0.0
C112 C 0.07129 0.24434 0.96366 0.0
O113 O 0.07482 0.26773 0.93455 0.0
C114 C 0.96592 0.16491 -0.0012 0.0
O115 O 0.99136 0.16292 0.98904 0.0
O116 O 0.00247 0.23372 0.89293 0.0
C117 C 0.74709 0.72705 0.44748 0.0
O118 O 0.75263 0.75317 0.42416 0.0
O119 O 0.78442 0.80588 0.50397 0.0
Zn120 Zn 0.79093 0.76924 0.52425 0.0
O121 O 0.83478 0.77825 0.50337 0.0
C122 C 0.79447 0.78382 0.63032 0.0
O123 O 0.8099 0.8133 0.6142 0.0
O124 O 0.75991 0.72868 0.48978 0.0
C125 C 0.85851 0.78794 0.53269 0.0
O126 O 0.85579 0.79358 0.58013 0.0
C127 C 0.80812 0.83399 0.50241 0.0
O128 O 0.83666 0.83888 0.51249 0.0
O129 O 0.78411 0.76112 0.59893 0.0
C130 C 0.2779 0.00359 0.47903 0.0
O131 O 0.25537 0.97402 0.48618 0.0
O132 O 0.19835 0.98188 0.51153 0.0
Zn133 Zn 0.23732 0.02158 0.53496 0.0
O134 O 0.23353 0.06003 0.51879 0.0
C135 C 0.21888 0.00081 0.63643 0.0
O136 O 0.19235 0.98017 0.61424 0.0
O137 O 0.27516 0.02628 0.4973 0.0
C138 C 0.21118 0.06351 0.53642 0.0
O139 O 0.18921 0.04127 0.56481 0.0
C140 C 0.18508 0.98024 0.46967 0.0
O141 O 0.19662 0.00512 0.43989 0.0
O142 O 0.24243 0.02045 0.61013 0.0
C143 C 0.97561 0.25339 0.47087 0.0
O144 O 0.98364 0.23689 0.44139 0.0
O145 O 0.03346 0.23221 0.53144 0.0
Zn146 Zn 0.98849 0.22041 0.54849 0.0
O147 O 0.95731 0.17626 0.52362 0.0
C148 C 0.9923 0.20462 0.6498 0.0
O149 O 0.99993 0.18522 0.62764 0.0
O150 O 0.97688 0.25108 0.51824 0.0
C151 C 0.92865 0.16303 0.53855 0.0
O152 O 0.92007 0.17779 0.5708 0.0
C153 C 0.04062 0.22072 0.49413 0.0
O154 O 0.01824 0.20076 0.46365 0.0
O155 O 0.98562 0.22224 0.6234 0.0
C156 C 0.94664 0.6078 0.32146 0.0
O157 O 0.92856 0.62051 0.32773 0.0
O158 O 0.86418 0.56163 0.35624 0.0
Zn159 Zn 0.89889 0.55336 0.37868 0.0
O160 O 0.88716 0.50805 0.3644 0.0
C161 C 0.91753 0.58671 0.47618 0.0
O162 O 0.92537 0.61308 0.45161 0.0
O163 O 0.93883 0.58093 0.34054 0.0
C164 C 0.8773 0.48719 0.39897 0.0
O165 O 0.87274 0.4945 0.44456 0.0
C166 C 0.83536 0.54219 0.36709 0.0
O167 O 0.82816 0.51656 0.39337 0.0
O168 O 0.90647 0.56056 0.45268 0.0
C169 C 0.39733 0.33008 0.27353 0.0
O170 O 0.40109 0.30955 0.2466 0.0
O171 O 0.43102 0.28344 0.32356 0.0
Zn172 Zn 0.44272 0.32821 0.34393 0.0
O173 O 0.48616 0.36011 0.31673 0.0
C174 C 0.44911 0.31735 0.45013 0.0
O175 O 0.45725 0.29706 0.43319 0.0
O176 O 0.41178 0.33987 0.3152 0.0
C177 C 0.51181 0.36873 0.34069 0.0
O178 O 0.50961 0.35773 0.38647 0.0
C179 C 0.4518 0.27482 0.32327 0.0
O180 O 0.48127 0.29535 0.33565 0.0
O181 O 0.44165 0.33257 0.41941 0.0
C182 C 0.64863 0.05329 0.28547 0.0
O183 O 0.64762 0.07646 0.26163 0.0
O184 O 0.6965 0.13361 0.35012 0.0
Zn185 Zn 0.6567 0.09313 0.36811 0.0
O186 O 0.61874 0.0965 0.34636 0.0
C187 C 0.67899 0.09442 0.46958 0.0
O188 O 0.7073 0.10846 0.44874 0.0
O189 O 0.65436 0.05579 0.33234 0.0
C190 C 0.60078 0.09968 0.37768 0.0
O191 O 0.60679 0.10099 0.42602 0.0
C192 C 0.699 0.15972 0.36433 0.0
O193 O 0.67608 0.15954 0.39073 0.0
O194 O 0.65447 0.08568 0.44256 0.0
C195 C 0.92682 0.60072 0.87748 0.0
O196 O 0.90269 0.5769 0.90032 0.0
O197 O 0.89668 0.52203 0.80624 0.0
Zn198 Zn 0.8959 0.56259 0.79256 0.0
O199 O 0.85431 0.55817 0.81516 0.0
C200 C 0.92288 0.57432 0.69153 0.0
O201 O 0.94508 0.56995 0.71169 0.0
O202 O 0.93033 0.59927 0.83041 0.0
C203 C 0.83097 0.54932 0.78529 0.0
O204 O 0.83353 0.54246 0.73837 0.0
C205 C 0.87248 0.49765 0.82415 0.0
O206 O 0.84652 0.49864 0.83397 0.0
O207 O 0.90064 0.57261 0.71882 0.0
C208 C 0.39434 0.30978 0.84985 0.0
O209 O 0.4198 0.31679 0.87643 0.0
O210 O 0.47141 0.36901 0.7919 0.0
Zn211 Zn 0.43809 0.32515 0.76937 0.0
O212 O 0.45109 0.29337 0.78939 0.0
C213 C 0.45588 0.33076 0.66569 0.0
O214 O 0.48413 0.3406 0.6851 0.0
O215 O 0.39627 0.31232 0.80233 0.0
C216 C 0.43347 0.26458 0.77649 0.0
O217 O 0.40756 0.25622 0.75034 0.0
C218 C 0.49998 0.37548 0.79816 0.0
O219 O 0.50764 0.3535 0.78989 0.0
O220 O 0.43233 0.32342 0.6944 0.0
C221 C 0.69117 0.08162 0.86636 0.0
O222 O 0.68422 0.10099 0.89039 0.0
O223 O 0.63358 0.10034 0.80673 0.0
Zn224 Zn 0.67674 0.10903 0.78463 0.0
O225 O 0.71039 0.15372 0.80257 0.0
C226 C 0.66642 0.07941 0.68521 0.0
O227 O 0.65375 0.05211 0.70914 0.0
O228 O 0.68867 0.0796 0.81879 0.0
C229 C 0.73597 0.16623 0.77709 0.0
O230 O 0.73918 0.14998 0.74036 0.0
C231 C 0.62325 0.11797 0.79001 0.0
O232 O 0.64107 0.14165 0.75971 0.0
O233 O 0.67689 0.10516 0.70964 0.0
C234 C 0.38854 0.0579 0.35421 0.0
O235 O 0.41374 0.07742 0.38048 0.0
O236 O 0.46747 0.0867 0.29664 0.0
Zn237 Zn 0.43051 0.09172 0.27452 0.0
O238 O 0.43786 0.135 0.29488 0.0
C239 C 0.45108 0.10664 0.17388 0.0
O240 O 0.47741 0.12676 0.19713 0.0
O241 O 0.3902 0.05828 0.30656 0.0
C242 C 0.42232 0.14674 0.27471 0.0
O243 O 0.40051 0.13034 0.24085 0.0
C244 C 0.49269 0.11022 0.31388 0.0
O245 O 0.49479 0.13816 0.31751 0.0
O246 O 0.42658 0.08821 0.19937 0.0
C247 C 0.91309 0.31525 0.37955 0.0
O248 O 0.89328 0.32054 0.4057 0.0
O249 O 0.8805 0.36266 0.32007 0.0
Zn250 Zn 0.87867 0.32181 0.29873 0.0
O251 O 0.83729 0.28274 0.31694 0.0
C252 C 0.87066 0.33277 0.1957 0.0
O253 O 0.85457 0.34515 0.21554 0.0
O254 O 0.91273 0.31643 0.33192 0.0
C255 C 0.80986 0.27962 0.31234 0.0
O256 O 0.80685 0.30327 0.29495 0.0
C257 C 0.86467 0.36486 0.35631 0.0
O258 O 0.84605 0.33977 0.38344 0.0
O259 O 0.88384 0.32171 0.22405 0.0
C260 C 0.69032 0.60056 0.36693 0.0
O261 O 0.70179 0.58418 0.38869 0.0
O262 O 0.62889 0.51138 0.30608 0.0
Zn263 Zn 0.67041 0.5517 0.29177 0.0
O264 O 0.70701 0.5458 0.31311 0.0
C265 C 0.67672 0.54396 0.18503 0.0
O266 O 0.67729 0.51835 0.19903 0.0
O267 O 0.67419 0.59022 0.32678 0.0
C268 C 0.73492 0.56311 0.29595 0.0
O269 O 0.74055 0.58548 0.26303 0.0
C270 C 0.62856 0.48512 0.30181 0.0
O271 O 0.65493 0.48526 0.29056 0.0
O272 O 0.67385 0.56136 0.21777 0.0
C273 C 0.37968 0.05083 0.8224 0.0
O274 O 0.3701 0.06787 0.84725 0.0
O275 O 0.43547 0.13561 0.8318 0.0
Zn276 Zn 0.44233 0.09978 0.85293 0.0
O277 O 0.48585 0.10883 0.8305 0.0
C278 C 0.45883 0.11427 0.95754 0.0
O279 O 0.48425 0.13882 0.93882 0.0
O280 O 0.40909 0.05965 0.82049 0.0
C281 C 0.49811 0.09314 0.84832 0.0
O282 O 0.48212 0.07044 0.88112 0.0
C283 C 0.45821 0.16418 0.83169 0.0
O284 O 0.48688 0.17063 0.84482 0.0
O285 O 0.43759 0.09433 0.92818 0.0
C286 C 0.94004 0.34426 0.80318 0.0
O287 O 0.91569 0.33818 0.77436 0.0
O288 O 0.85922 0.29572 0.85681 0.0
Zn289 Zn 0.89602 0.33785 0.8784 0.0
O290 O 0.89181 0.37484 0.85399 0.0
C291 C 0.87304 0.32378 0.97954 0.0
O292 O 0.8459 0.30552 0.95669 0.0
O293 O 0.93701 0.34379 0.85064 0.0
C294 C 0.87083 0.38069 0.87088 0.0
O295 O 0.84969 0.36127 0.90338 0.0
C296 C 0.84074 0.29221 0.82053 0.0
O297 O 0.84557 0.31696 0.79376 0.0
O298 O 0.89822 0.33964 0.95384 0.0
C299 C 0.67094 0.60623 0.81687 0.0
O300 O 0.69895 0.61078 0.80365 0.0
O301 O 0.70487 0.55734 0.84538 0.0
Zn302 Zn 0.66319 0.55054 0.87171 0.0
O303 O 0.62824 0.50795 0.84861 0.0
C304 C 0.68568 0.57131 0.97282 0.0
O305 O 0.70954 0.59571 0.95055 0.0
O306 O 0.65329 0.58339 0.84599 0.0
C307 C 0.59984 0.49945 0.86104 0.0
O308 O 0.59399 0.51844 0.88839 0.0
C309 C 0.71414 0.53841 0.85991 0.0
O310 O 0.69659 0.51549 0.89159 0.0
O311 O 0.66329 0.54994 0.94684 0.0
C312 C 0.60343 0.92141 0.62829 0.0
O313 O 0.58494 0.89407 0.60615 0.0
O314 O 0.51597 0.89408 0.68473 0.0
Zn315 Zn 0.55561 0.8933 0.7044 0.0
O316 O 0.55022 0.85056 0.68715 0.0
C317 C 0.53665 0.87828 0.80516 0.0
O318 O 0.51123 0.85618 0.78223 0.0
O319 O 0.5952 0.92747 0.67035 0.0
C320 C 0.56906 0.84255 0.70662 0.0
O321 O 0.59163 0.8622 0.73713 0.0
C322 C 0.50954 0.89923 0.64066 0.0
O323 O 0.52979 0.9053 0.60387 0.0
O324 O 0.56023 0.8983 0.77941 0.0
C325 C 0.09722 0.70226 0.62881 0.0
O326 O 0.12638 0.71547 0.61137 0.0
O327 O 0.12359 0.64241 0.68708 0.0
Zn328 Zn 0.12404 0.68261 0.70699 0.0
O329 O 0.16667 0.72204 0.6943 0.0
C330 C 0.12577 0.66843 0.81058 0.0
O331 O 0.14133 0.65502 0.7924 0.0
O332 O 0.09 0.68584 0.66884 0.0
C333 C 0.19312 0.72495 0.70764 0.0
O334 O 0.19394 0.70108 0.72922 0.0
C335 C 0.13713 0.64003 0.64785 0.0
O336 O 0.15259 0.66464 0.61803 0.0
O337 O 0.1149 0.68116 0.78087 0.0
C338 C 0.31629 0.40702 0.63865 0.0
O339 O 0.31765 0.42949 0.60951 0.0
O340 O 0.37541 0.49057 0.69473 0.0
Zn341 Zn 0.33213 0.45432 0.71466 0.0
O342 O 0.29747 0.46274 0.69145 0.0
C343 C 0.3432 0.47199 0.81955 0.0
O344 O 0.36086 0.50085 0.80181 0.0
O345 O 0.32321 0.41266 0.68491 0.0
C346 C 0.27015 0.44778 0.7117 0.0
O347 O 0.2649 0.4275 0.74817 0.0
C348 C 0.37935 0.518 0.68533 0.0
O349 O 0.35496 0.52262 0.68759 0.0
O350 O 0.32919 0.44872 0.78955 0.0
C351 C 0.5972 0.93809 0.17049 0.0
O352 O 0.61081 0.92223 0.15438 0.0
O353 O 0.54515 0.85236 0.14788 0.0
Zn354 Zn 0.53854 0.88805 0.12473 0.0
O355 O 0.49423 0.8785 0.1408 0.0
C356 C 0.52808 0.87203 0.02123 0.0
O357 O 0.5055 0.84521 0.04014 0.0
O358 O 0.56796 0.92784 0.16183 0.0
C359 C 0.48585 0.89838 0.12771 0.0
O360 O 0.50583 0.92409 0.10287 0.0
C361 C 0.52187 0.82437 0.15389 0.0
O362 O 0.4928 0.81832 0.1448 0.0
O363 O 0.54608 0.89462 0.05041 0.0
C364 C 0.05781 0.64106 0.20576 0.0
O365 O 0.07381 0.62846 0.22527 0.0
O366 O 0.14373 0.69507 0.15112 0.0
Zn367 Zn 0.10344 0.65601 0.12883 0.0
O368 O 0.10339 0.61533 0.14472 0.0
C369 C 0.12309 0.67085 0.02676 0.0
O370 O 0.15135 0.68488 0.04769 0.0
O371 O 0.06648 0.65538 0.16382 0.0
C372 C 0.12707 0.61145 0.13752 0.0
O373 O 0.15366 0.63498 0.11961 0.0
C374 C 0.15943 0.6964 0.19011 0.0
O375 O 0.15001 0.67109 0.21841 0.0
O376 O 0.0984 0.65734 0.05413 0.0
C377 C 0.33423 0.39493 0.19464 0.0
O378 O 0.30817 0.39229 0.21405 0.0
O379 O 0.29585 0.43979 0.15827 0.0
Zn380 Zn 0.3394 0.44885 0.1368 0.0
O381 O 0.37284 0.49102 0.16382 0.0
C382 C 0.32133 0.44673 0.03207 0.0
O383 O 0.29267 0.43674 0.04985 0.0
O384 O 0.34964 0.41603 0.16162 0.0
C385 C 0.40094 0.50144 0.1476 0.0
O386 O 0.40679 0.48424 0.11598 0.0
C387 C 0.29022 0.46265 0.16033 0.0
O388 O 0.31284 0.49153 0.14887 0.0
O389 O 0.34399 0.45239 0.06176 0.0
C390 C 0.05734 0.39686 0.69316 0.0
O391 O 0.07615 0.38507 0.68586 0.0
O392 O 0.13832 0.44419 0.65086 0.0
Zn393 Zn 0.10154 0.44994 0.6295 0.0
O394 O 0.11208 0.49561 0.63931 0.0
C395 C 0.10898 0.44207 0.5234 0.0
O396 O 0.13924 0.45614 0.53523 0.0
O397 O 0.06394 0.42331 0.67351 0.0
C398 C 0.12329 0.51697 0.60546 0.0
O399 O 0.12984 0.51038 0.56072 0.0
C400 C 0.16712 0.46575 0.64465 0.0
O401 O 0.1738 0.49274 0.62326 0.0
O402 O 0.08849 0.43611 0.55755 0.0
C403 C 0.61113 0.66966 0.72133 0.0
O404 O 0.60288 0.68757 0.74675 0.0
O405 O 0.57748 0.71399 0.66213 0.0
Zn406 Zn 0.57045 0.67085 0.64151 0.0
O407 O 0.52621 0.63569 0.66112 0.0
C408 C 0.56819 0.6822 0.53495 0.0
O409 O 0.55526 0.6988 0.5504 0.0
O410 O 0.60108 0.66123 0.67673 0.0
C411 C 0.50269 0.6235 0.63106 0.0
O412 O 0.506 0.63435 0.58499 0.0
C413 C 0.55492 0.72004 0.6592 0.0
O414 O 0.52685 0.69796 0.64341 0.0
O415 O 0.57741 0.66914 0.56694 0.0
C416 C 0.31881 0.94083 0.70138 0.0
O417 O 0.29018 0.91612 0.69629 0.0
O418 O 0.30332 0.86651 0.64565 0.0
Zn419 Zn 0.34058 0.90982 0.62977 0.0
O420 O 0.38166 0.90956 0.63776 0.0
C421 C 0.32291 0.90043 0.52654 0.0
O422 O 0.30638 0.87083 0.54181 0.0
O423 O 0.3421 0.94236 0.67733 0.0
C424 C 0.38829 0.89204 0.61092 0.0
O425 O 0.3677 0.8728 0.5776 0.0
C426 C 0.30474 0.84853 0.67901 0.0
O427 O 0.33098 0.8583 0.70508 0.0
O428 O 0.3385 0.92231 0.55828 0.0
C429 C 0.04562 0.38677 0.13804 0.0
O430 O 0.04053 0.41088 0.1369 0.0
O431 O 0.09757 0.46537 0.18403 0.0
Zn432 Zn 0.09996 0.42615 0.20381 0.0
O433 O 0.14333 0.43221 0.18684 0.0
C434 C 0.10035 0.43827 0.30993 0.0
O435 O 0.11551 0.46793 0.29474 0.0
O436 O 0.0683 0.38834 0.16402 0.0
C437 C 0.16693 0.44396 0.21673 0.0
O438 O 0.16405 0.45324 0.26178 0.0
C439 C 0.12184 0.49307 0.18653 0.0
O440 O 0.14903 0.49676 0.20243 0.0
O441 O 0.09055 0.416 0.27781 0.0
C442 C 0.60516 0.69126 0.12753 0.0
O443 O 0.57911 0.68707 0.1056 0.0
O444 O 0.53098 0.63468 0.19642 0.0
Zn445 Zn 0.56677 0.67861 0.21386 0.0
O446 O 0.55606 0.71235 0.19377 0.0
C447 C 0.55693 0.66877 0.321 0.0
O448 O 0.52705 0.65089 0.30788 0.0
O449 O 0.60552 0.6878 0.17475 0.0
C450 C 0.54276 0.72323 0.22226 0.0
O451 O 0.53421 0.71193 0.26797 0.0
C452 C 0.50199 0.62735 0.19957 0.0
O453 O 0.49473 0.64867 0.21462 0.0
O454 O 0.57805 0.68239 0.2874 0.0
C455 C 0.3104 0.94133 0.1609 0.0
O456 O 0.33716 0.95871 0.18529 0.0
O457 O 0.35353 0.89606 0.18531 0.0
Zn458 Zn 0.31016 0.88726 0.20803 0.0
O459 O 0.27691 0.84075 0.19977 0.0
C460 C 0.32649 0.89649 0.3131 0.0
O461 O 0.34298 0.88283 0.30077 0.0
O462 O 0.29599 0.91125 0.16447 0.0
C463 C 0.26763 0.81978 0.23415 0.0
O464 O 0.28074 0.82731 0.27889 0.0
C465 C 0.36214 0.87542 0.18987 0.0
O466 O 0.34269 0.84766 0.20997 0.0
O467 O 0.31122 0.90175 0.27938 0.0
C468 C 0.34309 0.26226 0.87534 0.0
C469 C 0.36306 0.29578 0.87474 0.0
C470 C 0.32327 0.30191 0.92225 0.0
C471 C 0.30498 0.26841 0.92734 0.0
N472 N 0.29998 0.21672 0.91671 0.0
N473 N 0.37422 0.34781 0.90123 0.0
C474 C 0.31545 0.24853 0.90584 0.0
C475 C 0.35376 0.31574 0.89929 0.0
N476 N 0.35036 0.24353 0.84639 0.0
N477 N 0.31094 0.32038 0.93755 0.0
H478 H 0.39621 0.35887 0.88308 0.0
H479 H 0.37033 0.36319 0.92343 0.0
H480 H 0.28872 0.31107 0.95464 0.0
H481 H 0.32138 0.34447 0.92922 0.0
H482 H 0.33493 0.21931 0.84097 0.0
H483 H 0.3707 0.25266 0.82421 0.0
H484 H 0.30864 0.20173 0.90677 0.0
H485 H 0.27997 0.2057 0.93979 0.0
C486 C 0.73779 0.08669 0.91396 0.0
C487 C 0.70711 0.06685 0.89335 0.0
C488 C 0.70872 0.01942 0.92071 0.0
C489 C 0.73852 0.03941 0.94388 0.0
N490 N 0.77842 0.09156 0.97192 0.0
N491 N 0.66111 0.01484 0.88274 0.0
C492 C 0.75216 0.07292 0.94328 0.0
C493 C 0.69189 0.0333 0.89829 0.0
N494 N 0.75388 0.11856 0.90357 0.0
N495 N 0.6971 0.98734 0.91873 0.0
H496 H 0.64826 0.02428 0.8658 0.0
H497 H 0.6475 0.99057 0.8899 0.0
H498 H 0.70852 0.97643 0.93574 0.0
H499 H 0.67731 0.97178 0.89763 0.0
H500 H 0.77772 0.13354 0.91257 0.0
H501 H 0.74441 0.1297 0.88185 0.0
H502 H 0.7874 0.11581 0.97733 0.0
H503 H 0.78957 0.08233 0.99424 0.0
C504 C 0.96696 0.68799 0.91353 0.0
C505 C 0.97928 0.6873 0.96149 0.0
C506 C 0.96305 0.6312 0.94903 0.0
C507 C 0.94649 0.63087 0.90484 0.0
N508 N 0.92774 0.65793 0.85018 0.0
N509 N 0.98672 0.65768 0.02779 0.0
C510 C 0.94729 0.65903 0.88812 0.0
C511 C 0.97702 0.65882 0.97996 0.0
N512 N 0.9745 0.71643 0.89184 0.0
N513 N 0.96594 0.60538 0.96085 0.0
H514 H 0.99711 0.6774 0.05152 0.0
H515 H 0.98233 0.63668 0.04529 0.0
H516 H 0.9562 0.5849 0.93874 0.0
H517 H 0.98035 0.60535 0.98983 0.0
H518 H 0.96871 0.71846 0.85481 0.0
H519 H 0.9895 0.73826 0.90896 0.0
H520 H 0.92502 0.67722 0.84049 0.0
H521 H 0.91169 0.63705 0.83175 0.0
C522 C 0.3184 0.36399 0.58962 0.0
C523 C 0.30103 0.37398 0.61996 0.0
C524 C 0.25205 0.32359 0.60468 0.0
C525 C 0.26971 0.31264 0.5771 0.0
N526 N 0.32035 0.31983 0.55059 0.0
N527 N 0.25292 0.36119 0.66507 0.0
C528 C 0.30313 0.33213 0.5716 0.0
C529 C 0.2684 0.35303 0.63046 0.0
N530 N 0.34932 0.38508 0.57753 0.0
N531 N 0.21955 0.30699 0.60354 0.0
H532 H 0.26372 0.38287 0.68398 0.0
H533 H 0.23017 0.34538 0.67827 0.0
H534 H 0.20647 0.28585 0.58368 0.0
H535 H 0.20551 0.31573 0.61804 0.0
H536 H 0.36222 0.38041 0.55102 0.0
H537 H 0.36156 0.40817 0.59184 0.0
H538 H 0.34509 0.33173 0.54996 0.0
H539 H 0.30992 0.29647 0.53762 0.0
C540 C 0.63608 0.95587 0.55699 0.0
C541 C 0.63477 0.94363 0.60589 0.0
C542 C 0.69298 0.96975 0.60777 0.0
C543 C 0.69382 0.97782 0.55631 0.0
N544 N 0.66663 0.97823 0.4807 0.0
N545 N 0.66152 0.93582 0.67639 0.0
C546 C 0.66547 0.97086 0.53058 0.0
C547 C 0.66312 0.95016 0.63133 0.0
N548 N 0.60935 0.95392 0.53649 0.0
N549 N 0.72069 0.98034 0.63397 0.0
H550 H 0.64024 0.92097 0.6949 0.0
H551 H 0.68106 0.93647 0.69366 0.0
H552 H 0.74309 0.99335 0.61755 0.0
H553 H 0.72155 0.9784 0.67287 0.0
H554 H 0.60928 0.96507 0.5031 0.0
H555 H 0.58761 0.94354 0.55534 0.0
H556 H 0.64654 0.97037 0.4582 0.0
H557 H 0.68793 0.99107 0.46098 0.0
C558 C 0.04505 0.7375 0.59715 0.0
C559 C 0.03688 0.72711 0.54671 0.0
C560 C 0.06449 0.69664 0.55259 0.0
C561 C 0.07349 0.70775 0.60264 0.0
N562 N 0.06782 0.73373 0.67618 0.0
N563 N 0.03269 0.69239 0.47918 0.0
C564 C 0.06203 0.72631 0.62624 0.0
C565 C 0.04471 0.70524 0.52529 0.0
N566 N 0.0383 0.75965 0.61616 0.0
N567 N 0.0753 0.67823 0.53111 0.0
H568 H 0.01802 0.69821 0.45858 0.0
H569 H 0.03499 0.67419 0.46294 0.0
H570 H 0.0878 0.66955 0.55121 0.0
H571 H 0.07291 0.67231 0.49316 0.0
H572 H 0.04713 0.77143 0.65013 0.0
H573 H 0.02519 0.76781 0.59654 0.0
H574 H 0.05685 0.74367 0.69703 0.0
H575 H 0.08216 0.72822 0.69814 0.0
C576 C 0.64912 0.73842 0.08466 0.0
C577 C 0.63544 0.70617 0.09963 0.0
C578 C 0.68202 0.70453 0.06818 0.0
C579 C 0.69471 0.73617 0.05063 0.0
N580 N 0.68773 0.78096 0.03219 0.0
N581 N 0.63595 0.65683 0.09999 0.0
C582 C 0.67749 0.75247 0.05596 0.0
C583 C 0.65106 0.68868 0.08977 0.0
N584 N 0.6358 0.75608 0.09976 0.0
N585 N 0.69998 0.6901 0.06559 0.0
H586 H 0.61337 0.64466 0.11617 0.0
H587 H 0.64458 0.64198 0.08912 0.0
H588 H 0.72255 0.70094 0.04931 0.0
H589 H 0.69357 0.66836 0.08241 0.0
H590 H 0.6468 0.78061 0.09501 0.0
H591 H 0.61501 0.74682 0.12103 0.0
H592 H 0.6743 0.79221 0.03006 0.0
H593 H 0.70837 0.79205 0.01048 0.0
C594 C 0.28758 0.97736 0.14875 0.0
C595 C 0.2967 0.95611 0.12837 0.0
C596 C 0.26804 0.95205 0.05062 0.0
C597 C 0.26028 0.97461 0.0698 0.0
N598 N 0.26953 0.01475 0.13154 0.0
N599 N 0.30339 0.93055 0.05548 0.0
C600 C 0.2722 0.98916 0.1172 0.0
C601 C 0.28943 0.94584 0.0778 0.0
N602 N 0.29196 0.98496 0.19872 0.0
N603 N 0.25355 0.93501 0.00822 0.0
H604 H 0.31979 0.92624 0.07408 0.0
H605 H 0.30134 0.92527 0.01722 0.0
H606 H 0.23676 0.93773 0.98788 0.0
H607 H 0.25583 0.91587 0.996 0.0
H608 H 0.28245 0.99741 0.2166 0.0
H609 H 0.30284 0.97666 0.2234 0.0
H610 H 0.28054 0.02823 0.16346 0.0
H611 H 0.25904 0.0245 0.10888 0.0
C612 C 0.02731 0.35872 0.05503 0.0
C613 C 0.0257 0.35771 0.10834 0.0
C614 C 0.9967 0.29949 0.10674 0.0
C615 C 0.99837 0.30049 0.05343 0.0
N616 N 0.00742 0.32999 0.97654 0.0
N617 N 0.00193 0.32816 0.18412 0.0
C618 C 0.01113 0.32984 0.02749 0.0
C619 C 0.00806 0.32834 0.13391 0.0
N620 N 0.0458 0.38696 0.03083 0.0
N621 N 0.98609 0.27129 0.13154 0.0
H622 H 0.00976 0.349 0.20487 0.0
H623 H 0.98662 0.30764 0.20401 0.0
H624 H 0.97744 0.24956 0.11316 0.0
H625 H 0.98794 0.26965 0.1703 0.0
H626 H 0.05096 0.38866 0.99257 0.0
H627 H 0.05792 0.4087 0.0495 0.0
H628 H 0.01341 0.35047 0.95595 0.0
H629 H 0.99548 0.30912 0.95547 0.0
C630 C 0.68843 0.63956 0.42656 0.0
C631 C 0.70166 0.63359 0.38329 0.0
C632 C 0.74338 0.68961 0.37963 0.0
C633 C 0.72968 0.69583 0.42215 0.0
N634 N 0.68607 0.67883 0.48013 0.0
N635 N 0.73745 0.65347 0.31237 0.0
C636 C 0.70119 0.67138 0.44382 0.0
C637 C 0.72764 0.65886 0.35763 0.0
N638 N 0.66413 0.61473 0.45166 0.0
N639 N 0.77251 0.7124 0.3623 0.0
H640 H 0.72745 0.63108 0.29578 0.0
H641 H 0.75378 0.67158 0.2892 0.0
H642 H 0.78509 0.73524 0.37734 0.0
H643 H 0.78553 0.70799 0.33566 0.0
H644 H 0.65579 0.61693 0.48661 0.0
H645 H 0.65334 0.59134 0.43866 0.0
H646 H 0.66368 0.66278 0.49422 0.0
H647 H 0.6948 0.70199 0.49319 0.0
C648 C 0.32822 0.00497 0.45174 0.0
C649 C 0.30325 0.01129 0.44168 0.0
C650 C 0.3322 0.04443 0.36961 0.0
C651 C 0.35765 0.03881 0.38002 0.0
N652 N 0.3769 0.00779 0.42205 0.0
N653 N 0.27677 0.02793 0.38278 0.0
C654 C 0.35467 0.01709 0.41833 0.0
C655 C 0.30375 0.02805 0.3978 0.0
N656 N 0.32724 0.98861 0.49417 0.0
N657 N 0.33578 0.06696 0.33527 0.0
H658 H 0.25542 0.01596 0.40255 0.0
H659 H 0.27463 0.03681 0.34825 0.0
H660 H 0.35609 0.07983 0.31351 0.0
H661 H 0.31953 0.07484 0.33111 0.0
H662 H 0.34615 0.98606 0.50663 0.0
H663 H 0.30783 0.97879 0.51858 0.0
H664 H 0.37489 0.99008 0.44634 0.0
H665 H 0.39618 0.01593 0.3975 0.0
C666 C 0.91113 0.26964 0.42574 0.0
C667 C 0.92957 0.30027 0.40408 0.0
C668 C 0.97857 0.29966 0.42402 0.0
C669 C 0.96013 0.27022 0.44925 0.0
N670 N 0.90936 0.22935 0.48114 0.0
N671 N 0.98054 0.34647 0.38741 0.0
C672 C 0.92658 0.25598 0.45248 0.0
C673 C 0.96327 0.31587 0.40441 0.0
N674 N 0.87894 0.25274 0.41823 0.0
N675 N 0.01059 0.31191 0.41851 0.0
H676 H 0.96998 0.35887 0.37265 0.0
H677 H 0.00509 0.36044 0.39122 0.0
H678 H 0.0227 0.30132 0.43428 0.0
H679 H 0.02492 0.33146 0.39599 0.0
H680 H 0.86476 0.22892 0.42804 0.0
H681 H 0.86657 0.26138 0.39772 0.0
H682 H 0.88546 0.22026 0.48988 0.0
H683 H 0.91938 0.21757 0.49957 0.0
C684 C 0.03333 0.647 0.28453 0.0
C685 C 0.02997 0.6383 0.23301 0.0
C686 C 0.97305 0.62034 0.23765 0.0
C687 C 0.97569 0.62363 0.29059 0.0
N688 N 0.00778 0.63941 0.36558 0.0
N689 N 0.99587 0.61376 0.16094 0.0
C690 C 0.00573 0.63701 0.31436 0.0
C691 C 0.99972 0.62471 0.20927 0.0
N692 N 0.06294 0.6658 0.30444 0.0
N693 N 0.9449 0.61247 0.21464 0.0
H694 H 0.01436 0.61532 0.13903 0.0
H695 H 0.97376 0.60051 0.14378 0.0
H696 H 0.92469 0.60832 0.23456 0.0
H697 H 0.94242 0.61297 0.1758 0.0
H698 H 0.06684 0.67546 0.34045 0.0
H699 H 0.08364 0.67454 0.28306 0.0
H700 H 0.02835 0.64476 0.38541 0.0
H701 H 0.98831 0.6343 0.38841 0.0
C702 C 0.39723 0.37945 0.2481 0.0
C703 C 0.38056 0.34583 0.25232 0.0
C704 C 0.33308 0.34375 0.21611 0.0
C705 C 0.34898 0.37749 0.21689 0.0
N706 N 0.39314 0.42691 0.24661 0.0
N707 N 0.33108 0.29599 0.24804 0.0
C708 C 0.38017 0.39519 0.2367 0.0
C709 C 0.34801 0.32789 0.23839 0.0
N710 N 0.42961 0.39637 0.25273 0.0
N711 N 0.30432 0.32694 0.19261 0.0
H712 H 0.34121 0.28363 0.26445 0.0
H713 H 0.30652 0.28233 0.24368 0.0
H714 H 0.29264 0.33775 0.17611 0.0
H715 H 0.29328 0.30257 0.18597 0.0
H716 H 0.44305 0.42061 0.24498 0.0
H717 H 0.44339 0.38573 0.25874 0.0
H718 H 0.41452 0.44009 0.26589 0.0
H719 H 0.38096 0.43925 0.24075 0.0
C720 C 0.64049 0.99474 0.18405 0.0
C721 C 0.61452 0.9663 0.20304 0.0
C722 C 0.61169 0.99454 0.27708 0.0
C723 C 0.63851 0.02284 0.25932 0.0
N724 N 0.68297 0.04824 0.20241 0.0
N725 N 0.58172 0.93708 0.27356 0.0
C726 C 0.65436 0.02243 0.21474 0.0
C727 C 0.60224 0.96557 0.2516 0.0
N728 N 0.65097 0.99574 0.13603 0.0
N729 N 0.59379 0.9955 0.31601 0.0
H730 H 0.57474 0.9153 0.25614 0.0
H731 H 0.57441 0.93498 0.31088 0.0
H732 H 0.59873 0.01634 0.33465 0.0
H733 H 0.57208 0.97607 0.32654 0.0
H734 H 0.6674 0.0167 0.11822 0.0
H735 H 0.64168 0.97587 0.11264 0.0
H736 H 0.69721 0.04819 0.17317 0.0
H737 H 0.69392 0.06874 0.22448 0.0
C738 C 0.32148 0.99127 0.72826 0.0
C739 C 0.32558 0.96514 0.74002 0.0
C740 C 0.35511 0.99211 0.81602 0.0
C741 C 0.35654 0.02039 0.79877 0.0
N742 N 0.34062 0.04755 0.73968 0.0
N743 N 0.34394 0.93877 0.79602 0.0
C744 C 0.33892 0.02003 0.75587 0.0
C745 C 0.34129 0.96481 0.78471 0.0
N746 N 0.30136 0.98861 0.69024 0.0
N747 N 0.3667 0.99147 0.86261 0.0
H748 H 0.33239 0.9177 0.77538 0.0
H749 H 0.35843 0.93834 0.82448 0.0
H750 H 0.3765 0.01113 0.88657 0.0
H751 H 0.36407 0.97094 0.87942 0.0
H752 H 0.29498 0.00568 0.68248 0.0
H753 H 0.28875 0.96783 0.6692 0.0
H754 H 0.33132 0.04969 0.7056 0.0
H755 H 0.35291 0.06897 0.75916 0.0
C756 C 0.00379 0.34992 0.71452 0.0
C757 C 0.02927 0.3807 0.72647 0.0
C758 C 0.9968 0.38695 0.79073 0.0
C759 C 0.97165 0.35573 0.7802 0.0
N760 N 0.95366 0.30481 0.74103 0.0
N761 N 0.05325 0.42432 0.78511 0.0
C762 C 0.97595 0.33632 0.7449 0.0
C763 C 0.02678 0.39784 0.76762 0.0
N764 N 0.00536 0.33443 0.6727 0.0
N765 N 0.99165 0.40703 0.82014 0.0
H766 H 0.07578 0.43259 0.76964 0.0
H767 H 0.05344 0.43599 0.81808 0.0
H768 H 0.96983 0.40063 0.83676 0.0
H769 H 0.00821 0.43111 0.82418 0.0
H770 H 0.98609 0.31361 0.65899 0.0
H771 H 0.02523 0.34356 0.64932 0.0
H772 H 0.95692 0.28871 0.71963 0.0
H773 H 0.93312 0.29412 0.76304 0.0
C774 C 0.62819 0.60557 0.76433 0.0
C775 C 0.65714 0.62346 0.79089 0.0
C776 C 0.65779 0.67272 0.768 0.0
C777 C 0.62694 0.65429 0.74699 0.0
N778 N 0.57969 0.60287 0.73644 0.0
N779 N 0.69807 0.67385 0.82343 0.0
C780 C 0.61124 0.62062 0.74835 0.0
C781 C 0.67169 0.65706 0.79414 0.0
N782 N 0.61748 0.57446 0.75234 0.0
N783 N 0.67418 0.70496 0.76155 0.0
H784 H 0.70884 0.66315 0.84303 0.0
H785 H 0.70784 0.69795 0.83137 0.0
H786 H 0.66467 0.71714 0.7427 0.0
H787 H 0.69801 0.71928 0.77126 0.0
H788 H 0.59819 0.56142 0.72853 0.0
H789 H 0.62987 0.56273 0.76137 0.0
H790 H 0.5665 0.57834 0.74177 0.0
H791 H 0.5658 0.61287 0.72658 0.0
C792 C 0.20696 0.08277 0.04581 0.0
C793 C 0.19461 0.07141 0.99711 0.0
C794 C 0.18673 0.11694 0.98411 0.0
C795 C 0.20218 0.12994 0.03059 0.0
N796 N 0.233 0.12841 0.10071 0.0
N797 N 0.17776 0.08013 0.91621 0.0
C798 C 0.21389 0.1137 0.06022 0.0
C799 C 0.18578 0.08912 0.9652 0.0
N800 N 0.21113 0.06364 0.07898 0.0
N801 N 0.17205 0.13054 0.95881 0.0
H802 H 0.17715 0.0601 0.90074 0.0
H803 H 0.17451 0.09404 0.88971 0.0
H804 H 0.17195 0.15076 0.97166 0.0
H805 H 0.15755 0.12018 0.92758 0.0
H806 H 0.21685 0.06945 0.11671 0.0
H807 H 0.2059 0.04059 0.0702 0.0
H808 H 0.24491 0.11897 0.12043 0.0
H809 H 0.23967 0.15153 0.11148 0.0
C810 C 0.92119 0.1103 0.97976 0.0
C811 C 0.93612 0.13615 0.01376 0.0
C812 C 0.89293 0.10769 0.07431 0.0
C813 C 0.87972 0.08065 0.04233 0.0
N814 N 0.88441 0.05413 0.96888 0.0
N815 N 0.93929 0.15797 0.09642 0.0
C816 C 0.89471 0.08138 0.99618 0.0
C817 C 0.92286 0.13446 0.06194 0.0
N818 N 0.93147 0.11377 0.93108 0.0
N819 N 0.87625 0.10842 0.1152 0.0
H820 H 0.96123 0.17802 0.08867 0.0
H821 H 0.93251 0.15633 0.13395 0.0
H822 H 0.854 0.08955 0.12515 0.0
H823 H 0.8831 0.12876 0.13669 0.0
H824 H 0.91927 0.09696 0.90316 0.0
H825 H 0.95052 0.13475 0.91729 0.0
H826 H 0.89653 0.05245 0.93781 0.0
H827 H 0.8654 0.03235 0.9801 0.0
C828 C 0.8496 0.76506 0.04617 0.0
C829 C 0.85507 0.79215 0.01811 0.0
C830 C 0.91256 0.81273 0.02147 0.0
C831 C 0.90682 0.78415 0.04512 0.0
N832 N 0.86963 0.73049 0.07145 0.0
N833 N 0.89103 0.83936 0.97167 0.0
C834 C 0.87526 0.75959 0.05529 0.0
C835 C 0.88638 0.81543 0.00382 0.0
N836 N 0.82008 0.74506 0.06551 0.0
N837 N 0.94296 0.83767 0.01734 0.0
H838 H 0.87245 0.84198 0.95748 0.0
H839 H 0.91295 0.85497 0.95557 0.0
H840 H 0.96273 0.83665 0.03007 0.0
H841 H 0.94838 0.86025 0.00537 0.0
H842 H 0.81549 0.72689 0.09082 0.0
H843 H 0.80069 0.74842 0.06005 0.0
H844 H 0.84694 0.71069 0.07419 0.0
H845 H 0.88767 0.72517 0.07753 0.0
C846 C 0.12169 0.24955 0.43438 0.0
C847 C 0.13785 0.24394 0.47409 0.0
C848 C 0.08896 0.2197 0.52429 0.0
C849 C 0.07394 0.22845 0.48686 0.0
N850 N 0.07736 0.25628 0.40993 0.0
N851 N 0.13844 0.22842 0.56025 0.0
C852 C 0.09066 0.24463 0.44284 0.0
C853 C 0.12191 0.23027 0.52001 0.0
N854 N 0.13536 0.25815 0.38787 0.0
N855 N 0.07146 0.20018 0.5629 0.0
H856 H 0.16258 0.23577 0.5589 0.0
H857 H 0.12889 0.22219 0.59629 0.0
H858 H 0.0471 0.19131 0.56674 0.0
H859 H 0.08037 0.19025 0.58831 0.0
H860 H 0.12337 0.25928 0.35617 0.0
H861 H 0.15766 0.26113 0.37973 0.0
H862 H 0.08982 0.27132 0.38014 0.0
H863 H 0.05471 0.25326 0.41491 0.0
C864 C 0.81649 0.87863 0.44534 0.0
C865 C 0.80394 0.86149 0.49074 0.0
C866 C 0.7927 0.90252 0.5208 0.0
C867 C 0.803 0.91847 0.47394 0.0
N868 N 0.81848 0.91825 0.38775 0.0
N869 N 0.77431 0.85363 0.56742 0.0
C870 C 0.81331 0.90565 0.43511 0.0
C871 C 0.79006 0.87226 0.52701 0.0
N872 N 0.83147 0.86911 0.41196 0.0
N873 N 0.78711 0.91706 0.56036 0.0
H874 H 0.77219 0.83151 0.57365 0.0
H875 H 0.76085 0.85873 0.59216 0.0
H876 H 0.78991 0.93975 0.55805 0.0
H877 H 0.78286 0.90808 0.59686 0.0
H878 H 0.84459 0.88283 0.38142 0.0
H879 H 0.83234 0.84822 0.41634 0.0
H880 H 0.82273 0.90788 0.35666 0.0
H881 H 0.81559 0.93747 0.37834 0.0
C882 C 0.13366 0.89888 0.41138 0.0
C883 C 0.10364 0.89025 0.43283 0.0
C884 C 0.12707 0.9409 0.47825 0.0
C885 C 0.15667 0.95015 0.45482 0.0
N886 N 0.18758 0.94063 0.3936 0.0
N887 N 0.07008 0.90467 0.47906 0.0
C888 C 0.15972 0.93002 0.41941 0.0
C889 C 0.09986 0.91171 0.46425 0.0
N890 N 0.1377 0.87675 0.38571 0.0
N891 N 0.12507 0.95989 0.51432 0.0
H892 H 0.04962 0.88366 0.46891 0.0
H893 H 0.06524 0.92062 0.49767 0.0
H894 H 0.14402 0.98227 0.52351 0.0
H895 H 0.10526 0.95281 0.5372 0.0
H896 H 0.15975 0.8804 0.37414 0.0
H897 H 0.11933 0.85356 0.37946 0.0
H898 H 0.19016 0.9286 0.36322 0.0
H899 H 0.20767 0.96272 0.40013 0.0
C900 C 0.76547 0.90594 0.95132 0.0
C901 C 0.79337 0.93288 0.96957 0.0
C902 C 0.82175 0.90292 0.9685 0.0
C903 C 0.79447 0.87666 0.94717 0.0
N904 N 0.74231 0.85458 0.91014 0.0
N905 N 0.84888 0.95863 0.99197 0.0
C906 C 0.76678 0.87849 0.93654 0.0
C907 C 0.82181 0.93188 0.97684 0.0
N908 N 0.73766 0.90654 0.94847 0.0
N909 N 0.84696 0.89966 0.98319 0.0
H910 H 0.84926 0.97944 0.00268 0.0
H911 H 0.87133 0.96084 0.99159 0.0
H912 H 0.84791 0.87892 0.97758 0.0
H913 H 0.866 0.91652 0.00426 0.0
H914 H 0.71568 0.88651 0.94131 0.0
H915 H 0.73611 0.92673 0.95661 0.0
H916 H 0.72294 0.85592 0.89647 0.0
H917 H 0.74258 0.83433 0.89787 0.0
C918 C 0.10168 0.90226 0.95893 0.0
C919 C 0.12994 0.90548 0.98017 0.0
C920 C 0.09857 0.85798 0.03191 0.0
C921 C 0.07029 0.85621 0.01355 0.0
N922 N 0.04431 0.87811 0.96377 0.0
N923 N 0.1557 0.88997 0.04246 0.0
C924 C 0.07168 0.87888 0.9784 0.0
C925 C 0.12854 0.88418 0.01796 0.0
N926 N 0.10355 0.92065 0.91865 0.0
N927 N 0.09679 0.83463 0.06277 0.0
H928 H 0.17809 0.9091 0.03388 0.0
H929 H 0.15589 0.87749 0.07416 0.0
H930 H 0.07537 0.81619 0.07645 0.0
H931 H 0.11634 0.83235 0.07234 0.0
H932 H 0.08392 0.91725 0.8979 0.0
H933 H 0.12509 0.93782 0.90309 0.0
H934 H 0.04394 0.89613 0.94313 0.0
H935 H 0.02174 0.8603 0.97484 0.0
C936 C 0.12781 0.21157 0.96171 0.0
C937 C 0.14878 0.22926 0.00135 0.0
C938 C 0.122 0.26049 0.01005 0.0
C939 C 0.0987 0.24006 0.97498 0.0
N940 N 0.07728 0.19417 0.92064 0.0
N941 N 0.16401 0.26832 0.06751 0.0
C942 C 0.10098 0.215 0.95175 0.0
C943 C 0.14566 0.25341 0.02637 0.0
N944 N 0.13435 0.19252 0.93214 0.0
N945 N 0.12141 0.28657 0.02798 0.0
H946 H 0.18163 0.26396 0.08085 0.0
H947 H 0.16023 0.28327 0.09095 0.0
H948 H 0.10358 0.29171 0.01884 0.0
H949 H 0.13977 0.30438 0.049 0.0
H950 H 0.1218 0.18152 0.89952 0.0
H951 H 0.15441 0.19024 0.93723 0.0
H952 H 0.07568 0.17323 0.90746 0.0
H953 H 0.05791 0.19664 0.91068 0.0
C954 C 0.94694 0.82579 0.5049 0.0
C955 C 0.94761 0.80105 0.47761 0.0
C956 C 0.89033 0.7667 0.49063 0.0
C957 C 0.88914 0.79251 0.51348 0.0
N958 N 0.91532 0.8484 0.534 0.0
N959 N 0.91931 0.75011 0.43618 0.0
C960 C 0.91718 0.82258 0.51835 0.0
C961 C 0.91911 0.77207 0.46812 0.0
N962 N 0.97473 0.85179 0.51981 0.0
N963 N 0.86442 0.73676 0.49237 0.0
H964 H 0.93985 0.7533 0.41844 0.0
H965 H 0.89868 0.73013 0.42361 0.0
H966 H 0.84308 0.73158 0.50959 0.0
H967 H 0.86503 0.71655 0.48108 0.0
H968 H 0.97566 0.86892 0.5444 0.0
H969 H 0.99703 0.85476 0.51154 0.0
H970 H 0.93451 0.87155 0.53292 0.0
H971 H 0.89397 0.84723 0.54367 0.0
C972 C 0.19154 0.12114 0.47135 0.0
C973 C 0.20735 0.14817 0.50315 0.0
C974 C 0.22864 0.12067 0.55335 0.0
C975 C 0.20998 0.09264 0.52492 0.0
N976 N 0.17037 0.06448 0.46122 0.0
N977 N 0.2369 0.17211 0.57917 0.0
C978 C 0.19037 0.09234 0.48528 0.0
C979 C 0.225 0.14763 0.54534 0.0
N980 N 0.17903 0.12343 0.42653 0.0
N981 N 0.25004 0.12162 0.58771 0.0
H982 H 0.23425 0.19201 0.57523 0.0
H983 H 0.24693 0.17147 0.61343 0.0
H984 H 0.25281 0.1021 0.59547 0.0
H985 H 0.26677 0.14239 0.60559 0.0
H986 H 0.17019 0.10557 0.39942 0.0
H987 H 0.18037 0.1444 0.41401 0.0
H988 H 0.1529 0.06205 0.43599 0.0
H989 H 0.16955 0.04306 0.46934 0.0
C990 C 0.89318 0.10411 0.54788 0.0
C991 C 0.90452 0.13188 0.51799 0.0
C992 C 0.86472 0.10156 0.45346 0.0
C993 C 0.85514 0.0732 0.48126 0.0
N994 N 0.8643 0.04648 0.55029 0.0
N995 N 0.90518 0.15636 0.43869 0.0
C996 C 0.8704 0.07418 0.52736 0.0
C997 C 0.89165 0.13035 0.46952 0.0
N998 N 0.90406 0.10635 0.59598 0.0
N999 N 0.84702 0.10143 0.41335 0.0
H1000 H 0.92452 0.17809 0.44941 0.0
H1001 H 0.89902 0.15564 0.401 0.0
H1002 H 0.82639 0.08116 0.40142 0.0
H1003 H 0.85087 0.122 0.39502 0.0
H1004 H 0.89399 0.08766 0.62164 0.0
H1005 H 0.92191 0.12757 0.61142 0.0
H1006 H 0.87707 0.0456 0.58109 0.0
H1007 H 0.84844 0.02408 0.53582 0.0
C1008 C 0.85112 0.43543 0.35229 0.0
C1009 C 0.87345 0.45553 0.38878 0.0
C1010 C 0.8875 0.41464 0.40746 0.0
C1011 C 0.8673 0.3958 0.36792 0.0
N1012 N 0.83252 0.38917 0.29856 0.0
N1013 N 0.917 0.46699 0.44489 0.0
C1014 C 0.84992 0.4065 0.33901 0.0
C1015 C 0.89266 0.44582 0.41497 0.0
N1016 N 0.83016 0.44336 0.33194 0.0
N1017 N 0.90167 0.40268 0.43799 0.0
H1018 H 0.92213 0.49032 0.45054 0.0
H1019 H 0.93399 0.46246 0.46052 0.0
H1020 H 0.89951 0.38043 0.43241 0.0
H1021 H 0.91364 0.41374 0.47099 0.0
H1022 H 0.81111 0.42818 0.30919 0.0
H1023 H 0.83008 0.46417 0.34127 0.0
H1024 H 0.82241 0.39748 0.27245 0.0
H1025 H 0.82991 0.36718 0.28905 0.0
C1026 C 0.57285 0.44499 0.27543 0.0
C1027 C 0.5989 0.45428 0.3088 0.0
C1028 C 0.57135 0.40178 0.34848 0.0
C1029 C 0.54339 0.39443 0.32129 0.0
N1030 N 0.52389 0.4017 0.24174 0.0
N1031 N 0.62188 0.44281 0.38066 0.0
C1032 C 0.54569 0.41397 0.27977 0.0
C1033 C 0.598 0.43291 0.34596 0.0
N1034 N 0.57406 0.46573 0.23953 0.0
N1035 N 0.57336 0.37822 0.37328 0.0
H1036 H 0.64156 0.46572 0.38109 0.0
H1037 H 0.62064 0.42932 0.41194 0.0
H1038 H 0.55578 0.35435 0.37022 0.0
H1039 H 0.5941 0.38152 0.39035 0.0
H1040 H 0.5544 0.46224 0.21876 0.0
H1041 H 0.59438 0.4875 0.23217 0.0
H1042 H 0.52509 0.414 0.20902 0.0
H1043 H 0.50742 0.37754 0.23881 0.0
C1044 C 0.51618 0.08398 0.3661 0.0
C1045 C 0.52 0.10648 0.32871 0.0
C1046 C 0.57722 0.12583 0.32556 0.0
C1047 C 0.57296 0.1016 0.35983 0.0
N1048 N 0.53742 0.05321 0.40407 0.0
N1049 N 0.55269 0.14392 0.26475 0.0
C1050 C 0.54214 0.07938 0.37766 0.0
C1051 C 0.55012 0.12602 0.30608 0.0
N1052 N 0.48827 0.06798 0.39219 0.0
N1053 N 0.60715 0.14948 0.3132 0.0
H1054 H 0.5333 0.14423 0.24859 0.0
H1055 H 0.57341 0.15594 0.24351 0.0
H1056 H 0.62773 0.15057 0.32708 0.0
H1057 H 0.61159 0.16963 0.29287 0.0
H1058 H 0.48541 0.05392 0.42353 0.0
H1059 H 0.4688 0.07101 0.3856 0.0
H1060 H 0.51495 0.03453 0.41341 0.0
H1061 H 0.5557 0.04856 0.41231 0.0
C1062 C 0.77217 0.51718 0.8002 0.0
C1063 C 0.80098 0.54668 0.80352 0.0
C1064 C 0.77328 0.57002 0.84768 0.0
C1065 C 0.74401 0.54145 0.8401 0.0
N1066 N 0.71466 0.49009 0.80013 0.0
N1067 N 0.82801 0.60296 0.8214 0.0
C1068 C 0.74316 0.51562 0.81384 0.0
C1069 C 0.80131 0.57364 0.82478 0.0
N1070 N 0.77259 0.49033 0.78606 0.0
N1071 N 0.77459 0.59321 0.87838 0.0
H1072 H 0.84886 0.60678 0.80395 0.0
H1073 H 0.82855 0.62393 0.83151 0.0
H1074 H 0.75467 0.59135 0.89634 0.0
H1075 H 0.79582 0.61295 0.88974 0.0
H1076 H 0.75277 0.46762 0.78839 0.0
H1077 H 0.79336 0.49027 0.77646 0.0
H1078 H 0.71272 0.47218 0.77631 0.0
H1079 H 0.69284 0.48828 0.80843 0.0
C1080 C 0.4651 0.20716 0.77211 0.0
C1081 C 0.45231 0.19022 0.81766 0.0
C1082 C 0.43125 0.22524 0.83905 0.0
C1083 C 0.44158 0.2403 0.79167 0.0
N1084 N 0.46641 0.24513 0.71127 0.0
N1085 N 0.42 0.18017 0.89188 0.0
C1086 C 0.45807 0.23119 0.75769 0.0
C1087 C 0.43439 0.19837 0.85036 0.0
N1088 N 0.484 0.20027 0.74277 0.0
N1089 N 0.41924 0.23722 0.87375 0.0
H1090 H 0.42255 0.16094 0.90253 0.0
H1091 H 0.40363 0.1826 0.91391 0.0
H1092 H 0.41679 0.257 0.86678 0.0
H1093 H 0.41433 0.22947 0.91087 0.0
H1094 H 0.49707 0.21402 0.71228 0.0
H1095 H 0.48804 0.18152 0.75036 0.0
H1096 H 0.47502 0.23713 0.6823 0.0
H1097 H 0.46325 0.26403 0.70064 0.0
C1098 C 0.79344 0.20318 0.79718 0.0
C1099 C 0.76247 0.19847 0.78927 0.0
C1100 C 0.78231 0.25482 0.80711 0.0
C1101 C 0.81382 0.26015 0.80882 0.0
N1102 N 0.84998 0.24038 0.79483 0.0
N1103 N 0.72861 0.22115 0.77692 0.0
C1104 C 0.81959 0.23459 0.80088 0.0
C1105 C 0.75716 0.22465 0.79156 0.0
N1106 N 0.79781 0.17768 0.80329 0.0
N1107 N 0.77609 0.27802 0.8224 0.0
H1108 H 0.7098 0.19971 0.76395 0.0
H1109 H 0.72469 0.24025 0.77291 0.0
H1110 H 0.79364 0.30011 0.83563 0.0
H1111 H 0.75313 0.2742 0.8268 0.0
H1112 H 0.8194 0.17989 0.81435 0.0
H1113 H 0.77918 0.1542 0.80259 0.0
H1114 H 0.85523 0.22292 0.78388 0.0
H1115 H 0.86982 0.26318 0.79554 0.0
C1116 C 0.45727 0.20579 0.26735 0.0
C1117 C 0.42973 0.17937 0.28765 0.0
C1118 C 0.4175 0.21546 0.33433 0.0
C1119 C 0.44313 0.24181 0.30972 0.0
N1120 N 0.48273 0.26129 0.24395 0.0
N1121 N 0.38099 0.15861 0.33494 0.0
C1122 C 0.46177 0.23678 0.27378 0.0
C1123 C 0.40891 0.18409 0.3192 0.0
N1124 N 0.47939 0.20142 0.24244 0.0
N1125 N 0.40257 0.22022 0.37415 0.0
H1126 H 0.37465 0.13521 0.32674 0.0
H1127 H 0.36317 0.16081 0.35304 0.0
H1128 H 0.4087 0.24267 0.38777 0.0
H1129 H 0.38614 0.20188 0.39688 0.0
H1130 H 0.50147 0.22012 0.23151 0.0
H1131 H 0.47697 0.1791 0.23674 0.0
H1132 H 0.49458 0.25823 0.21373 0.0
H1133 H 0.4857 0.28406 0.24575 0.0
C1134 C 0.7593 0.23056 0.2875 0.0
C1135 C 0.78137 0.24898 0.32569 0.0
C1136 C 0.74902 0.20904 0.38928 0.0
C1137 C 0.72745 0.19027 0.35092 0.0
N1138 N 0.71187 0.18128 0.26372 0.0
N1139 N 0.79943 0.2552 0.41173 0.0
C1140 C 0.73256 0.20051 0.30002 0.0
C1141 C 0.77685 0.23803 0.37626 0.0
N1142 N 0.76404 0.24189 0.23924 0.0
N1143 N 0.74258 0.19925 0.43831 0.0
H1144 H 0.81895 0.27762 0.40487 0.0
H1145 H 0.79993 0.24685 0.44754 0.0
H1146 H 0.72364 0.17723 0.44906 0.0
H1147 H 0.75493 0.21334 0.46894 0.0
H1148 H 0.74746 0.23176 0.21046 0.0
H1149 H 0.78453 0.26242 0.22768 0.0
H1150 H 0.71559 0.1853 0.22529 0.0
H1151 H 0.69099 0.16013 0.27178 0.0
C1152 C 0.78768 0.5266 0.31288 0.0
C1153 C 0.80991 0.54781 0.34851 0.0
C1154 C 0.78473 0.58076 0.34589 0.0
C1155 C 0.76101 0.55814 0.31338 0.0
N1156 N 0.73756 0.50797 0.26951 0.0
N1157 N 0.82759 0.59256 0.40448 0.0
C1158 C 0.76173 0.53052 0.2981 0.0
C1159 C 0.80804 0.57436 0.36633 0.0
N1160 N 0.79229 0.50364 0.29133 0.0
N1161 N 0.78496 0.60833 0.35726 0.0
H1162 H 0.84482 0.5885 0.42057 0.0
H1163 H 0.8252 0.6101 0.42306 0.0
H1164 H 0.76729 0.61309 0.34548 0.0
H1165 H 0.80363 0.62743 0.37575 0.0
H1166 H 0.77902 0.48966 0.26115 0.0
H1167 H 0.81125 0.50029 0.30067 0.0
H1168 H 0.73453 0.48554 0.26251 0.0
H1169 H 0.71924 0.51088 0.25507 0.0
C1170 C 0.58812 0.13445 0.83366 0.0
C1171 C 0.59121 0.11179 0.80429 0.0
C1172 C 0.53331 0.07656 0.8047 0.0
C1173 C 0.53008 0.1 0.83179 0.0
N1174 N 0.55373 0.15293 0.86662 0.0
N1175 N 0.56727 0.06378 0.75482 0.0
C1176 C 0.5573 0.12954 0.84437 0.0
C1177 C 0.56395 0.08342 0.78806 0.0
N1178 N 0.61466 0.15988 0.85349 0.0
N1179 N 0.50705 0.04773 0.79473 0.0
H1180 H 0.58929 0.06801 0.74175 0.0
H1181 H 0.54828 0.04463 0.73699 0.0
H1182 H 0.48392 0.04264 0.80236 0.0
H1183 H 0.50814 0.0282 0.78115 0.0
H1184 H 0.61398 0.17532 0.87992 0.0
H1185 H 0.63765 0.16421 0.84676 0.0
H1186 H 0.5722 0.17624 0.87089 0.0
H1187 H 0.53184 0.14974 0.87808 0.0
C1188 C 0.85126 0.43956 0.80943 0.0
C1189 C 0.87329 0.4681 0.83417 0.0
C1190 C 0.89601 0.4398 0.87848 0.0
C1191 C 0.872 0.41078 0.8574 0.0
N1192 N 0.82466 0.38196 0.80718 0.0
N1193 N 0.91346 0.4949 0.89781 0.0
C1194 C 0.84893 0.41034 0.82423 0.0
C1195 C 0.89503 0.46819 0.86993 0.0
N1196 N 0.83354 0.44064 0.7703 0.0
N1197 N 0.91973 0.44024 0.90682 0.0
H1198 H 0.91318 0.51608 0.89326 0.0
H1199 H 0.92707 0.49542 0.92842 0.0
H1200 H 0.92041 0.41978 0.91642 0.0
H1201 H 0.93995 0.46108 0.91804 0.0
H1202 H 0.81948 0.42126 0.7473 0.0
H1203 H 0.83506 0.4617 0.75772 0.0
H1204 H 0.80503 0.37974 0.78778 0.0
H1205 H 0.823 0.36018 0.81531 0.0
C1206 C 0.56865 0.44044 0.87234 0.0
C1207 C 0.57357 0.46791 0.84599 0.0
C1208 C 0.53105 0.43479 0.78688 0.0
C1209 C 0.52459 0.40746 0.81535 0.0
N1210 N 0.5326 0.38487 0.89098 0.0
N1211 N 0.55639 0.49226 0.78386 0.0
C1212 C 0.54217 0.41041 0.85967 0.0
C1213 C 0.5537 0.4654 0.80511 0.0
N1214 N 0.58938 0.44301 0.90931 0.0
N1215 N 0.51686 0.43146 0.74113 0.0
H1216 H 0.57329 0.5151 0.79536 0.0
H1217 H 0.5403 0.49196 0.75766 0.0
H1218 H 0.50064 0.40945 0.72586 0.0
H1219 H 0.52324 0.45023 0.71619 0.0
H1220 H 0.58926 0.42348 0.92569 0.0
H1221 H 0.6082 0.46477 0.92137 0.0
H1222 H 0.54242 0.38634 0.92637 0.0
H1223 H 0.5127 0.36271 0.88386 0.0
C1224 C 0.53955 0.75391 0.70904 0.0
C1225 C 0.55995 0.75177 0.67305 0.0
C1226 C 0.58838 0.80977 0.66286 0.0
C1227 C 0.56582 0.81136 0.69476 0.0
N1228 N 0.51709 0.78472 0.74253 0.0
N1229 N 0.60059 0.77693 0.60941 0.0
C1230 C 0.54048 0.78334 0.71604 0.0
C1231 C 0.58372 0.77953 0.64847 0.0
N1232 N 0.52032 0.72818 0.73828 0.0
N1233 N 0.61418 0.83715 0.64606 0.0
H1234 H 0.59765 0.75529 0.59699 0.0
H1235 H 0.61557 0.7959 0.58634 0.0
H1236 H 0.61749 0.85971 0.65323 0.0
H1237 H 0.63338 0.83764 0.6278 0.0
H1238 H 0.50734 0.72919 0.76867 0.0
H1239 H 0.51979 0.7065 0.73557 0.0
H1240 H 0.49621 0.76462 0.75402 0.0
H1241 H 0.51727 0.80589 0.74961 0.0
C1242 C 0.2371 0.77594 0.74296 0.0
C1243 C 0.22275 0.75579 0.70084 0.0
C1244 C 0.26511 0.79457 0.64633 0.0
C1245 C 0.27716 0.81628 0.68713 0.0
N1246 N 0.27185 0.82967 0.77259 0.0
N1247 N 0.22076 0.74699 0.61132 0.0
C1248 C 0.26256 0.80747 0.73516 0.0
C1249 C 0.23602 0.76548 0.65213 0.0
N1250 N 0.22645 0.76498 0.79042 0.0
N1251 N 0.28228 0.80104 0.60285 0.0
H1252 H 0.20024 0.72481 0.61425 0.0
H1253 H 0.22722 0.75458 0.57436 0.0
H1254 H 0.30434 0.8215 0.59795 0.0
H1255 H 0.27634 0.78476 0.57363 0.0
H1256 H 0.23812 0.77731 0.82285 0.0
H1257 H 0.20738 0.74233 0.79764 0.0
H1258 H 0.25976 0.82563 0.80655 0.0
H1259 H 0.28997 0.85318 0.76814 0.0
C1260 C 0.22792 0.43831 0.64886 0.0
C1261 C 0.24417 0.45287 0.69412 0.0
C1262 C 0.21078 0.47707 0.70569 0.0
C1263 C 0.19316 0.46077 0.66226 0.0
N1264 N 0.18165 0.42254 0.5961 0.0
N1265 N 0.24956 0.48322 0.76885 0.0
C1266 C 0.20074 0.44036 0.63491 0.0
C1267 C 0.23514 0.47143 0.7235 0.0
N1268 N 0.23882 0.42298 0.61876 0.0
N1269 N 0.20437 0.49817 0.7296 0.0
H1270 H 0.26843 0.48076 0.78202 0.0
H1271 H 0.24175 0.49378 0.79491 0.0
H1272 H 0.18553 0.50157 0.71951 0.0
H1273 H 0.21865 0.51366 0.75767 0.0
H1274 H 0.23035 0.41495 0.58266 0.0
H1275 H 0.25812 0.42028 0.62834 0.0
H1276 H 0.18367 0.40454 0.57834 0.0
H1277 H 0.1621 0.42405 0.58378 0.0
C1278 C 0.39623 0.86389 0.13315 0.0
C1279 C 0.39392 0.88243 0.17239 0.0
C1280 C 0.45209 0.91355 0.1786 0.0
C1281 C 0.45426 0.89326 0.14233 0.0
N1282 N 0.42898 0.84761 0.0876 0.0
N1283 N 0.41888 0.92236 0.23686 0.0
C1284 C 0.42646 0.8679 0.12046 0.0
C1285 C 0.42166 0.90681 0.19601 0.0
N1286 N 0.36963 0.84348 0.10649 0.0
N1287 N 0.47917 0.93919 0.19666 0.0
H1288 H 0.3971 0.91836 0.25058 0.0
H1289 H 0.43788 0.9376 0.25963 0.0
H1290 H 0.50196 0.94363 0.18805 0.0
H1291 H 0.47923 0.95717 0.218 0.0
H1292 H 0.37007 0.83172 0.07406 0.0
H1293 H 0.34716 0.84026 0.11419 0.0
H1294 H 0.40966 0.82639 0.07527 0.0
H1295 H 0.45071 0.85101 0.0746 0.0
C1296 C 0.11361 0.56624 0.19713 0.0
C1297 C 0.12448 0.58034 0.14906 0.0
C1298 C 0.13291 0.53636 0.12485 0.0
C1299 C 0.11993 0.52136 0.17153 0.0
N1300 N 0.09118 0.51818 0.24721 0.0
N1301 N 0.13758 0.57519 0.06321 0.0
C1302 C 0.10798 0.53502 0.20602 0.0
C1303 C 0.13228 0.56443 0.11174 0.0
N1304 N 0.11051 0.58332 0.23532 0.0
N1305 N 0.14606 0.52394 0.09317 0.0
H1306 H 0.13639 0.59507 0.05162 0.0
H1307 H 0.14009 0.56271 0.03343 0.0
H1308 H 0.1453 0.50243 0.10012 0.0
H1309 H 0.15936 0.53589 0.06158 0.0
H1310 H 0.10583 0.57538 0.2724 0.0
H1311 H 0.11597 0.60685 0.23128 0.0
H1312 H 0.07923 0.52573 0.271 0.0
H1313 H 0.08647 0.49518 0.25475 0.0
C1314 C 0.45404 0.59118 0.14831 0.0
C1315 C 0.47639 0.59499 0.18599 0.0
C1316 C 0.45066 0.5371 0.19538 0.0
C1317 C 0.42658 0.53356 0.16146 0.0
N1318 N 0.40283 0.5569 0.10962 0.0
N1319 N 0.49309 0.57208 0.25153 0.0
C1320 C 0.42741 0.56054 0.13936 0.0
C1321 C 0.47405 0.56807 0.21109 0.0
N1322 N 0.45922 0.61651 0.11909 0.0
N1323 N 0.45132 0.51086 0.21232 0.0
H1324 H 0.51026 0.59432 0.26476 0.0
H1325 H 0.49007 0.55353 0.27481 0.0
H1326 H 0.43393 0.48772 0.20312 0.0
H1327 H 0.47028 0.51202 0.2324 0.0
H1328 H 0.44562 0.61458 0.08761 0.0
H1329 H 0.47908 0.63909 0.12313 0.0
H1330 H 0.40024 0.57586 0.09747 0.0
H1331 H 0.38372 0.53476 0.09977 0.0
C1332 C 0.11544 0.59092 0.59492 0.0
C1333 C 0.13484 0.60925 0.63561 0.0
C1334 C 0.14892 0.56828 0.65372 0.0
C1335 C 0.12746 0.54881 0.61575 0.0
N1336 N 0.08602 0.53893 0.55622 0.0
N1337 N 0.1678 0.61474 0.70709 0.0
C1338 C 0.10972 0.55949 0.58764 0.0
C1339 C 0.15085 0.59768 0.6661 0.0
N1340 N 0.10224 0.60342 0.56341 0.0
N1341 N 0.16846 0.5593 0.67645 0.0
H1342 H 0.17165 0.63736 0.71544 0.0
H1343 H 0.17655 0.60582 0.73449 0.0
H1344 H 0.16778 0.53798 0.66842 0.0
H1345 H 0.1871 0.57397 0.70026 0.0
H1346 H 0.09118 0.59286 0.52962 0.0
H1347 H 0.10415 0.62553 0.56917 0.0
H1348 H 0.06993 0.54409 0.53882 0.0
H1349 H 0.08037 0.51542 0.55108 0.0
C1350 C 0.42815 0.54209 0.63086 0.0
C1351 C 0.41133 0.54479 0.67243 0.0
C1352 C 0.4541 0.59981 0.68602 0.0
C1353 C 0.4719 0.59615 0.64699 0.0
N1354 N 0.47902 0.56181 0.58954 0.0
N1355 N 0.41072 0.57418 0.74533 0.0
C1356 C 0.45982 0.56669 0.62148 0.0
C1357 C 0.42496 0.5731 0.70163 0.0
N1358 N 0.4134 0.51675 0.59886 0.0
N1359 N 0.46436 0.62907 0.70691 0.0
H1360 H 0.38932 0.55535 0.75816 0.0
H1361 H 0.42145 0.59272 0.77114 0.0
H1362 H 0.48576 0.64912 0.69715 0.0
H1363 H 0.45053 0.63406 0.73101 0.0
H1364 H 0.42333 0.5153 0.56495 0.0
H1365 H 0.38995 0.49854 0.60357 0.0
H1366 H 0.47263 0.53975 0.57391 0.0
H1367 H 0.50261 0.57901 0.5826 0.0
C1368 C 0.42037 0.86658 0.63446 0.0
C1369 C 0.41932 0.89362 0.61696 0.0
C1370 C 0.4776 0.92481 0.61664 0.0
C1371 C 0.47861 0.89718 0.6308 0.0
N1372 N 0.45147 0.84048 0.6443 0.0
N1373 N 0.44636 0.94682 0.58293 0.0
C1374 C 0.45011 0.86767 0.63721 0.0
C1375 C 0.44779 0.92231 0.60566 0.0
N1376 N 0.39312 0.84031 0.65045 0.0
N1377 N 0.505 0.95368 0.61569 0.0
H1378 H 0.42501 0.946 0.57452 0.0
H1379 H 0.46619 0.96688 0.56856 0.0
H1380 H 0.52732 0.95648 0.62331 0.0
H1381 H 0.50541 0.97518 0.61137 0.0
H1382 H 0.39286 0.82129 0.66895 0.0
H1383 H 0.37084 0.83857 0.64912 0.0
H1384 H 0.43152 0.81781 0.64381 0.0
H1385 H 0.47281 0.84027 0.64618 0.0
C1386 C 0.21233 0.43411 0.23086 0.0
C1387 C 0.19777 0.44745 0.20086 0.0
C1388 C 0.2417 0.46642 0.14064 0.0
C1389 C 0.25812 0.45673 0.1739 0.0
N1390 N 0.26134 0.43613 0.25502 0.0
N1391 N 0.20117 0.48098 0.13112 0.0
C1392 C 0.24404 0.44178 0.2202 0.0
C1393 C 0.21308 0.46481 0.15669 0.0
N1394 N 0.19547 0.41311 0.26836 0.0
N1395 N 0.25272 0.47601 0.09288 0.0
H1396 H 0.18038 0.48071 0.14142 0.0
H1397 H 0.21344 0.49702 0.10229 0.0
H1398 H 0.27325 0.47696 0.07924 0.0
H1399 H 0.23986 0.47994 0.06526 0.0
H1400 H 0.2038 0.4002 0.28804 0.0
H1401 H 0.17184 0.40605 0.27629 0.0
H1402 H 0.25335 0.42844 0.29149 0.0
H1403 H 0.28488 0.442 0.24928 0.0
C1404 C 0.54273 0.80147 0.21786 0.0
C1405 C 0.5275 0.79865 0.17108 0.0
C1406 C 0.51984 0.7452 0.15989 0.0
C1407 C 0.53767 0.74923 0.20433 0.0
N1408 N 0.57212 0.78405 0.2695 0.0
N1409 N 0.50736 0.77075 0.09258 0.0
C1410 C 0.5508 0.77816 0.23171 0.0
C1411 C 0.51764 0.77131 0.14064 0.0
N1412 N 0.54846 0.82575 0.24997 0.0
N1413 N 0.50393 0.71612 0.13707 0.0
H1414 H 0.50597 0.78964 0.07671 0.0
H1415 H 0.50316 0.75289 0.06688 0.0
H1416 H 0.50455 0.69625 0.15027 0.0
H1417 H 0.48778 0.71096 0.10786 0.0
H1418 H 0.55635 0.82698 0.28677 0.0
H1419 H 0.5425 0.8431 0.24165 0.0
H1420 H 0.58492 0.80604 0.2872 0.0
H1421 H 0.57956 0.76808 0.27967 0.0
C1422 C 0.1868 0.7445 0.24524 0.0
C1423 C 0.18801 0.72679 0.20375 0.0
C1424 C 0.24292 0.76838 0.1862 0.0
C1425 C 0.24056 0.78743 0.22452 0.0
N1426 N 0.20859 0.79608 0.28498 0.0
N1427 N 0.21585 0.72223 0.13205 0.0
C1428 C 0.21216 0.77606 0.25294 0.0
C1429 C 0.21568 0.73888 0.17338 0.0
N1430 N 0.16129 0.73128 0.2771 0.0
N1431 N 0.27154 0.77789 0.16347 0.0
H1432 H 0.19731 0.6995 0.1235 0.0
H1433 H 0.23355 0.73153 0.10469 0.0
H1434 H 0.29203 0.79925 0.17198 0.0
H1435 H 0.27578 0.76359 0.13926 0.0
H1436 H 0.16073 0.74145 0.31126 0.0
H1437 H 0.14145 0.70891 0.27132 0.0
H1438 H 0.18722 0.79037 0.30248 0.0
H1439 H 0.22615 0.81966 0.29065 0.0
C1440 C 0.22307 0.25844 0.22614 0.0
C1441 C 0.22756 0.23552 0.20018 0.0
C1442 C 0.23514 0.21519 0.2802 0.0
C1443 C 0.22542 0.23444 0.30584 0.0
N1444 N 0.21007 0.2746 0.30469 0.0
N1445 N 0.23807 0.19195 0.20131 0.0
C1446 C 0.21986 0.25654 0.27931 0.0
C1447 C 0.23421 0.21419 0.22684 0.0
N1448 N 0.22253 0.28235 0.1998 0.0
N1449 N 0.24582 0.19837 0.30707 0.0
H1450 H 0.23907 0.19142 0.16227 0.0
H1451 H 0.23869 0.17303 0.21853 0.0
H1452 H 0.24689 0.19878 0.34628 0.0
H1453 H 0.25625 0.18634 0.29077 0.0
H1454 H 0.22246 0.30165 0.21665 0.0
H1455 H 0.22525 0.2845 0.16082 0.0
H1456 H 0.20176 0.28817 0.28708 0.0
H1457 H 0.20857 0.27471 0.34377 0.0
C1458 C 0.77836 0.97436 0.21849 0.0
C1459 C 0.75395 0.97822 0.19616 0.0
C1460 C 0.72996 0.97383 0.27911 0.0
C1461 C 0.75573 0.97241 0.30148 0.0
N1462 N 0.80779 0.97813 0.29416 0.0
N1463 N 0.70937 0.98671 0.20515 0.0
C1464 C 0.78093 0.97468 0.27164 0.0
C1465 C 0.73045 0.9793 0.22644 0.0
N1466 N 0.79822 0.9689 0.18902 0.0
N1467 N 0.70463 0.96902 0.30796 0.0
H1468 H 0.70904 0.99092 0.16675 0.0
H1469 H 0.694 0.99129 0.22604 0.0
H1470 H 0.70381 0.96561 0.34679 0.0
H1471 H 0.68352 0.96617 0.29312 0.0
H1472 H 0.81419 0.96255 0.20347 0.0
H1473 H 0.7967 0.96763 0.1499 0.0
H1474 H 0.82832 0.98326 0.2744 0.0
H1475 H 0.81071 0.979 0.3331 0.0
C1476 C 0.01361 0.73465 0.27231 0.0
C1477 C 0.00557 0.7547 0.29961 0.0
C1478 C 0.00239 0.77929 0.22128 0.0
C1479 C 0.00733 0.75718 0.19351 0.0
N1480 N 0.01112 0.70946 0.19256 0.0
N1481 N 0.98431 0.79022 0.29943 0.0
C1482 C 0.01112 0.73358 0.21897 0.0
C1483 C 0.99747 0.77521 0.27386 0.0
N1484 N 0.02499 0.71772 0.29692 0.0
N1485 N 0.00413 0.80525 0.1981 0.0
H1486 H 0.97935 0.78699 0.33785 0.0
H1487 H 0.97516 0.80302 0.28158 0.0
H1488 H 0.00954 0.81033 0.1601 0.0
H1489 H 0.00378 0.82363 0.21773 0.0
H1490 H 0.03518 0.70621 0.2782 0.0
H1491 H 0.02696 0.71757 0.33595 0.0
H1492 H 0.01075 0.69003 0.20978 0.0
H1493 H 0.00841 0.70724 0.15362 0.0
C1494 C 0.7966 0.75692 0.7642 0.0
C1495 C 0.7861 0.77531 0.79066 0.0
C1496 C 0.77278 0.791 0.711 0.0
C1497 C 0.78852 0.77748 0.68479 0.0
N1498 N 0.81736 0.74887 0.68635 0.0
N1499 N 0.76745 0.8131 0.78924 0.0
C1500 C 0.80066 0.76042 0.71123 0.0
C1501 C 0.77472 0.793 0.76416 0.0
N1502 N 0.80191 0.73554 0.78959 0.0
N1503 N 0.7552 0.80113 0.68507 0.0
H1504 H 0.76903 0.81592 0.82814 0.0
H1505 H 0.76256 0.82917 0.77104 0.0
H1506 H 0.7522 0.79868 0.64619 0.0
H1507 H 0.74076 0.80848 0.7025 0.0
H1508 H 0.80647 0.71916 0.77176 0.0
H1509 H 0.79862 0.73202 0.82834 0.0
H1510 H 0.83008 0.7398 0.70462 0.0
H1511 H 0.82042 0.75028 0.64751 0.0
C1512 C 0.21634 0.97634 0.7201 0.0
C1513 C 0.21995 0.0027 0.69191 0.0
C1514 C 0.21998 0.02976 0.76966 0.0
C1515 C 0.21169 0.00158 0.7969 0.0
N1516 N 0.19906 0.94678 0.79818 0.0
N1517 N 0.2223 0.05354 0.68872 0.0
C1518 C 0.20942 0.97459 0.77231 0.0
C1519 C 0.22134 0.02935 0.71637 0.0
N1520 N 0.22011 0.9533 0.69703 0.0
N1521 N 0.22736 0.05714 0.79486 0.0
H1522 H 0.22368 0.05444 0.64964 0.0
H1523 H 0.21936 0.07159 0.7042 0.0
H1524 H 0.22689 0.0584 0.834 0.0
H1525 H 0.23683 0.07924 0.77742 0.0
H1526 H 0.22109 0.9352 0.71644 0.0
H1527 H 0.22538 0.95407 0.65883 0.0
H1528 H 0.19352 0.92535 0.78104 0.0
H1529 H 0.19353 0.94443 0.83639 0.0
C1530 C 0.02487 0.2211 0.72826 0.0
C1531 C 0.99464 0.20826 0.70498 0.0
C1532 C 0.96957 0.20333 0.78703 0.0
C1533 C 0.99919 0.21279 0.81051 0.0
N1534 N 0.05483 0.22909 0.80508 0.0
N1535 N 0.9377 0.18427 0.71118 0.0
C1536 C 0.02682 0.22127 0.78155 0.0
C1537 C 0.96683 0.19887 0.73403 0.0
N1538 N 0.0518 0.23429 0.69937 0.0
N1539 N 0.94413 0.19865 0.81546 0.0
H1540 H 0.93479 0.18055 0.67247 0.0
H1541 H 0.91624 0.17367 0.73068 0.0
H1542 H 0.94504 0.2007 0.85455 0.0
H1543 H 0.92283 0.19507 0.80028 0.0
H1544 H 0.07469 0.24705 0.71404 0.0
H1545 H 0.05135 0.23489 0.66018 0.0
H1546 H 0.07476 0.23148 0.78646 0.0
H1547 H 0.05773 0.23163 0.84396 0.0
C1548 C 0.94808 0.6048 0.55762 0.0
C1549 C 0.91891 0.58629 0.53174 0.0
C1550 C 0.89375 0.55801 0.60951 0.0
C1551 C 0.92193 0.57848 0.63648 0.0
N1552 N 0.97387 0.62572 0.63775 0.0
N1553 N 0.86206 0.55131 0.53559 0.0
C1554 C 0.94858 0.60318 0.61101 0.0
C1555 C 0.89114 0.56474 0.55851 0.0
N1556 N 0.97556 0.62277 0.53131 0.0
N1557 N 0.87007 0.53115 0.63166 0.0
H1558 H 0.85899 0.55652 0.49865 0.0
H1559 H 0.84075 0.53782 0.5549 0.0
H1560 H 0.87159 0.52423 0.66821 0.0
H1561 H 0.85048 0.51389 0.61193 0.0
H1562 H 0.99796 0.63373 0.54804 0.0
H1563 H 0.97631 0.62447 0.49221 0.0
H1564 H 0.99243 0.64605 0.62138 0.0
H1565 H 0.97489 0.6257 0.67692 0.0
C1566 C 0.46751 0.35214 0.5272 0.0
C1567 C 0.44807 0.32179 0.50499 0.0
C1568 C 0.43298 0.29736 0.58838 0.0
C1569 C 0.45153 0.32779 0.61058 0.0
N1570 N 0.48037 0.38481 0.60202 0.0
N1571 N 0.40612 0.26732 0.51378 0.0
C1572 C 0.46698 0.35541 0.58021 0.0
C1573 C 0.42892 0.29492 0.53543 0.0
N1574 N 0.48757 0.37755 0.4981 0.0
N1575 N 0.42041 0.27063 0.61758 0.0
H1576 H 0.40191 0.26492 0.47512 0.0
H1577 H 0.38925 0.24794 0.53436 0.0
H1578 H 0.42269 0.27137 0.65653 0.0
H1579 H 0.40997 0.24771 0.60292 0.0
H1580 H 0.50515 0.39909 0.51285 0.0
H1581 H 0.48829 0.3766 0.45907 0.0
H1582 H 0.489 0.40584 0.58163 0.0
H1583 H 0.48014 0.38805 0.64075 0.0
C1584 C 0.68555 0.06956 0.60289 0.0
C1585 C 0.66775 0.0807 0.62965 0.0
C1586 C 0.66016 0.10337 0.55224 0.0
C1587 C 0.67552 0.08991 0.5247 0.0
N1588 N 0.69821 0.05573 0.52193 0.0
N1589 N 0.63214 0.10182 0.62831 0.0
C1590 C 0.68693 0.07171 0.54948 0.0
C1591 C 0.65326 0.09571 0.60384 0.0
N1592 N 0.70217 0.05815 0.62851 0.0
N1593 N 0.65359 0.12478 0.52982 0.0
H1594 H 0.62589 0.09589 0.66592 0.0
H1595 H 0.61841 0.10975 0.61006 0.0
H1596 H 0.65942 0.13205 0.49254 0.0
H1597 H 0.64541 0.1378 0.54953 0.0
H1598 H 0.71833 0.05292 0.61152 0.0
H1599 H 0.70185 0.05626 0.66757 0.0
H1600 H 0.70436 0.03999 0.53764 0.0
H1601 H 0.69898 0.05611 0.48274 0.0
C1602 C 0.45169 0.13368 0.09359 0.0
C1603 C 0.44972 0.1069 0.11841 0.0
C1604 C 0.45267 0.08425 0.03762 0.0
C1605 C 0.45425 0.11087 0.01268 0.0
N1606 N 0.44923 0.15779 0.0151 0.0
N1607 N 0.44281 0.0542 0.11498 0.0
C1608 C 0.45215 0.13478 0.04019 0.0
C1609 C 0.44827 0.08129 0.09064 0.0
N1610 N 0.45316 0.15812 0.12123 0.0
N1611 N 0.45716 0.06274 0.01101 0.0
H1612 H 0.4411 0.05175 0.15398 0.0
H1613 H 0.43772 0.03328 0.09656 0.0
H1614 H 0.46031 0.06396 0.97219 0.0
H1615 H 0.46012 0.04496 0.02752 0.0
H1616 H 0.45905 0.1802 0.10628 0.0
H1617 H 0.4496 0.15674 0.15999 0.0
H1618 H 0.44414 0.17391 0.03249 0.0
H1619 H 0.44939 0.15931 0.97602 0.0
C1620 C 0.85967 0.3004 0.11724 0.0
C1621 C 0.87239 0.33063 0.14052 0.0
C1622 C 0.88413 0.35638 0.05796 0.0
C1623 C 0.87395 0.32644 0.03493 0.0
N1624 N 0.85821 0.27099 0.04286 0.0
N1625 N 0.90234 0.38783 0.13411 0.0
C1626 C 0.86349 0.29871 0.06464 0.0
C1627 C 0.88626 0.35879 0.11119 0.0
N1628 N 0.84267 0.27327 0.14491 0.0
N1629 N 0.89034 0.38222 0.02924 0.0
H1630 H 0.9047 0.39056 0.17305 0.0
H1631 H 0.91583 0.40901 0.11449 0.0
H1632 H 0.88861 0.38144 0.99016 0.0
H1633 H 0.89441 0.40371 0.04436 0.0
H1634 H 0.8299 0.25074 0.12889 0.0
H1635 H 0.83878 0.2734 0.18345 0.0
H1636 H 0.85381 0.25095 0.06344 0.0
H1637 H 0.86128 0.26894 0.00449 0.0
C1638 C 0.70729 0.55773 0.10427 0.0
C1639 C 0.68003 0.55288 0.13131 0.0
C1640 C 0.66025 0.56671 0.05629 0.0
C1641 C 0.68529 0.56746 0.02791 0.0
N1642 N 0.73031 0.55927 0.02287 0.0
N1643 N 0.62804 0.54802 0.13155 0.0
C1644 C 0.70834 0.56196 0.05134 0.0
C1645 C 0.65587 0.5563 0.10705 0.0
N1646 N 0.73263 0.55933 0.12934 0.0
N1647 N 0.64108 0.57665 0.03501 0.0
H1648 H 0.62349 0.53953 0.16838 0.0
H1649 H 0.60831 0.54677 0.11392 0.0
H1650 H 0.64381 0.58466 0.99794 0.0
H1651 H 0.62456 0.57981 0.05535 0.0
H1652 H 0.75442 0.56618 0.11228 0.0
H1653 H 0.733 0.55677 0.16822 0.0
H1654 H 0.74527 0.5516 0.03731 0.0
H1655 H 0.73189 0.56209 0.98392 0.0
C1656 C 0.54196 0.85585 0.94025 0.0
C1657 C 0.53284 0.87551 0.96623 0.0
C1658 C 0.53237 0.90113 0.88702 0.0
C1659 C 0.53787 0.879 0.86063 0.0
N1660 N 0.54668 0.83437 0.86048 0.0
N1661 N 0.51576 0.91437 0.9649 0.0
C1662 C 0.54236 0.85609 0.88681 0.0
C1663 C 0.5274 0.89777 0.93987 0.0
N1664 N 0.55138 0.83784 0.9668 0.0
N1665 N 0.53186 0.92532 0.86151 0.0
H1666 H 0.5115 0.91234 0.00351 0.0
H1667 H 0.50788 0.92824 0.94707 0.0
H1668 H 0.53431 0.92787 0.82256 0.0
H1669 H 0.53148 0.94426 0.87914 0.0
H1670 H 0.56139 0.82546 0.95036 0.0
H1671 H 0.55169 0.83733 0.00601 0.0
H1672 H 0.54599 0.81455 0.87675 0.0
H1673 H 0.54947 0.83531 0.82155 0.0
C1674 C 0.13173 0.69871 0.94444 0.0
C1675 C 0.12031 0.66988 0.97145 0.0
C1676 C 0.10614 0.64001 0.89245 0.0
C1677 C 0.12161 0.6691 0.86555 0.0
N1678 N 0.152 0.72655 0.86565 0.0
N1679 N 0.09959 0.61315 0.97199 0.0
C1680 C 0.13492 0.69862 0.89137 0.0
C1681 C 0.10803 0.64046 0.94574 0.0
N1682 N 0.13879 0.72605 0.9695 0.0
N1683 N 0.08888 0.612 0.86704 0.0
H1684 H 0.10039 0.61233 0.01111 0.0
H1685 H 0.09415 0.59173 0.95491 0.0
H1686 H 0.08654 0.61086 0.82797 0.0
H1687 H 0.07439 0.59032 0.88476 0.0
H1688 H 0.144 0.74715 0.95146 0.0
H1689 H 0.13656 0.7269 0.00841 0.0
H1690 H 0.16556 0.74848 0.8832 0.0
H1691 H 0.15469 0.72775 0.82672 0.0
C1692 C 0.33991 0.43758 0.94911 0.0
C1693 C 0.3279 0.4538 0.97797 0.0
C1694 C 0.32498 0.48116 0.90267 0.0
C1695 C 0.33888 0.46653 0.8743 0.0
N1696 N 0.36556 0.43593 0.87182 0.0
N1697 N 0.31718 0.49706 0.98514 0.0
C1698 C 0.3481 0.44617 0.8979 0.0
C1699 C 0.3227 0.4773 0.9556 0.0
N1700 N 0.34258 0.41335 0.9702 0.0
N1701 N 0.31286 0.49777 0.879 0.0
H1702 H 0.31701 0.49603 0.0243 0.0
H1703 H 0.31633 0.51666 0.97118 0.0
H1704 H 0.31394 0.50117 0.84019 0.0
H1705 H 0.29924 0.50577 0.89736 0.0
H1706 H 0.34874 0.39893 0.94997 0.0
H1707 H 0.3363 0.40598 0.00735 0.0
H1708 H 0.3758 0.42375 0.88829 0.0
H1709 H 0.37237 0.44213 0.83445 0.0
C1710 C 0.08364 0.44819 0.44462 0.0
C1711 C 0.09945 0.43431 0.47007 0.0
C1712 C 0.11013 0.41669 0.38984 0.0
C1713 C 0.09531 0.43153 0.36441 0.0
N1714 N 0.05949 0.45215 0.36711 0.0
N1715 N 0.11862 0.39722 0.46903 0.0
C1716 C 0.07923 0.44421 0.3918 0.0
C1717 C 0.10971 0.41586 0.44325 0.0
N1718 N 0.07464 0.46684 0.47006 0.0
N1719 N 0.1262 0.40506 0.36332 0.0
H1720 H 0.11797 0.39576 0.50821 0.0
H1721 H 0.12351 0.38091 0.45176 0.0
H1722 H 0.12631 0.40423 0.32422 0.0
H1723 H 0.14095 0.39785 0.38002 0.0
H1724 H 0.06696 0.48092 0.45234 0.0
H1725 H 0.07665 0.46995 0.50883 0.0
H1726 H 0.04465 0.45865 0.38541 0.0
H1727 H 0.05554 0.44904 0.32841 0.0
C1728 C 0.58031 0.70344 0.39734 0.0
C1729 C 0.56557 0.67282 0.37487 0.0
C1730 C 0.55654 0.64787 0.45779 0.0
C1731 C 0.57118 0.67852 0.48031 0.0
N1732 N 0.60551 0.73509 0.47152 0.0
N1733 N 0.54863 0.61715 0.38191 0.0
C1734 C 0.58582 0.7062 0.44997 0.0
C1735 C 0.55655 0.64541 0.40461 0.0
N1736 N 0.58746 0.7297 0.36913 0.0
N1737 N 0.54105 0.62108 0.48664 0.0
H1738 H 0.54904 0.61475 0.34297 0.0
H1739 H 0.54492 0.59703 0.40161 0.0
H1740 H 0.54096 0.62136 0.52571 0.0
H1741 H 0.52641 0.59852 0.47169 0.0
H1742 H 0.59447 0.75193 0.38467 0.0
H1743 H 0.58423 0.72898 0.33038 0.0
H1744 H 0.61929 0.75574 0.45083 0.0
H1745 H 0.61066 0.73773 0.50991 0.0
C1746 C 0.35431 0.92195 0.39295 0.0
C1747 C 0.3253 0.90461 0.36641 0.0
C1748 C 0.29605 0.89653 0.44509 0.0
C1749 C 0.32473 0.90731 0.47212 0.0
N1750 N 0.38173 0.929 0.47179 0.0
N1751 N 0.26773 0.87388 0.36766 0.0
C1752 C 0.35417 0.92027 0.4462 0.0
C1753 C 0.29584 0.89201 0.39234 0.0
N1754 N 0.38193 0.94021 0.36715 0.0
N1755 N 0.26907 0.89073 0.47 0.0
H1756 H 0.26611 0.86972 0.32913 0.0
H1757 H 0.24601 0.86095 0.3861 0.0
H1758 H 0.26878 0.8943 0.50866 0.0
H1759 H 0.24809 0.88572 0.45174 0.0
H1760 H 0.40338 0.95574 0.38469 0.0
H1761 H 0.38255 0.94243 0.32806 0.0
H1762 H 0.40312 0.935 0.45402 0.0
H1763 H 0.3829 0.92795 0.51076 0.0
loop_
_geom_bond_atom_site_label_1
_geom_bond_atom_site_label_2
_geom_bond_distance
_geom_bond_site_symmetry_2
_ccdc_geom_bond_type
C0 O1 1.160 . S
C0 O7 1.185 1_556 S
O1 C0 1.160 . S
O2 Zn3 1.899 . S
O2 C10 1.284 . S
Zn3 O2 1.899 . S
Zn3 O4 2.032 . S
Zn3 O7 2.086 . S
Zn3 O12 1.977 . S
O4 Zn3 2.032 . S
O4 C8 1.278 . S
C5 O6 1.203 . S
C5 O12 1.267 . S
O6 C5 1.203 . S
O7 C0 1.185 1_554 S
O7 Zn3 2.086 . S
C8 O4 1.278 . S
C8 O9 1.211 . S
O9 C8 1.211 . S
C10 O2 1.284 . S
C10 O11 1.273 . S
O11 C10 1.273 . S
O12 Zn3 1.977 . S
O12 C5 1.267 . S
C13 O14 1.160 . S
C13 O20 1.185 1_556 S
O14 C13 1.160 . S
O15 Zn16 1.899 1_565 S
O15 C23 1.284 . S
Zn16 O15 1.899 1_545 S
Zn16 O17 2.032 . S
Zn16 O20 2.086 . S
Zn16 O25 1.977 . S
O17 Zn16 2.032 . S
O17 C21 1.278 . S
C18 O19 1.203 1_545 S
C18 O25 1.267 . S
O19 C18 1.203 1_565 S
O20 C13 1.185 1_554 S
O20 Zn16 2.086 . S
C21 O17 1.278 . S
C21 O22 1.211 . S
O22 C21 1.211 . S
C23 O15 1.284 . S
C23 O24 1.273 . S
O24 C23 1.273 . S
O25 Zn16 1.977 . S
O25 C18 1.267 . S
C26 O27 1.160 . S
C26 O33 1.185 1_556 S
O27 C26 1.160 . S
O28 Zn29 1.899 1_455 S
O28 C36 1.284 . S
Zn29 O28 1.899 1_655 S
Zn29 O30 2.032 . S
Zn29 O33 2.086 . S
Zn29 O38 1.977 . S
O30 Zn29 2.032 . S
O30 C34 1.278 . S
C31 O32 1.203 1_655 S
C31 O38 1.267 . S
O32 C31 1.203 1_455 S
O33 C26 1.185 1_554 S
O33 Zn29 2.086 . S
C34 O30 1.278 . S
C34 O35 1.211 . S
O35 C34 1.211 . S
C36 O28 1.284 . S
C36 O37 1.273 . S
O37 C36 1.273 . S
O38 Zn29 1.977 . S
O38 C31 1.267 . S
C39 O40 1.160 . S
C39 O46 1.185 . S
O40 C39 1.160 . S
O41 Zn42 1.899 . S
O41 C49 1.284 . S
Zn42 O41 1.899 . S
Zn42 O43 2.032 . S
Zn42 O46 2.086 . S
Zn42 O51 1.977 . S
O43 Zn42 2.032 . S
O43 C47 1.278 . S
C44 O45 1.203 . S
C44 O51 1.267 . S
O45 C44 1.203 . S
O46 C39 1.185 . S
O46 Zn42 2.086 . S
C47 O43 1.278 . S
C47 O48 1.211 . S
O48 C47 1.211 . S
C49 O41 1.284 . S
C49 O50 1.273 . S
O50 C49 1.273 . S
O51 Zn42 1.977 . S
O51 C44 1.267 . S
C52 O53 1.160 . S
C52 O59 1.185 . S
O53 C52 1.160 . S
O54 Zn55 1.899 1_545 S
O54 C62 1.284 . S
Zn55 O54 1.899 1_565 S
Zn55 O56 2.032 . S
Zn55 O59 2.086 . S
Zn55 O64 1.977 . S
O56 Zn55 2.032 . S
O56 C60 1.278 . S
C57 O58 1.203 1_565 S
C57 O64 1.267 . S
O58 C57 1.203 1_545 S
O59 C52 1.185 . S
O59 Zn55 2.086 . S
C60 O56 1.278 . S
C60 O61 1.211 . S
O61 C60 1.211 . S
C62 O54 1.284 . S
C62 O63 1.273 . S
O63 C62 1.273 . S
O64 Zn55 1.977 . S
O64 C57 1.267 . S
C65 O66 1.160 . S
C65 O72 1.185 . S
O66 C65 1.160 . S
O67 Zn68 1.899 1_655 S
O67 C75 1.284 . S
Zn68 O67 1.899 1_455 S
Zn68 O69 2.032 . S
Zn68 O72 2.086 . S
Zn68 O77 1.977 . S
O69 Zn68 2.032 . S
O69 C73 1.278 . S
C70 O71 1.203 1_455 S
C70 O77 1.267 . S
O71 C70 1.203 1_655 S
O72 C65 1.185 . S
O72 Zn68 2.086 . S
C73 O69 1.278 . S
C73 O74 1.211 . S
O74 C73 1.211 . S
C75 O67 1.284 . S
C75 O76 1.273 . S
O76 C75 1.273 . S
O77 Zn68 1.977 . S
O77 C70 1.267 . S
C78 O79 1.160 . S
C78 O85 1.185 1_554 S
O79 C78 1.160 . S
O80 Zn81 1.899 . S
O80 C88 1.284 . S
Zn81 O80 1.899 . S
Zn81 O82 2.032 . S
Zn81 O85 2.086 . S
Zn81 O90 1.977 . S
O82 Zn81 2.032 . S
O82 C86 1.278 . S
C83 O84 1.203 . S
C83 O90 1.267 . S
O84 C83 1.203 . S
O85 C78 1.185 1_556 S
O85 Zn81 2.086 . S
C86 O82 1.278 . S
C86 O87 1.211 . S
O87 C86 1.211 . S
C88 O80 1.284 . S
C88 O89 1.273 . S
O89 C88 1.273 . S
O90 Zn81 1.977 . S
O90 C83 1.267 . S
C91 O92 1.160 . S
C91 O98 1.185 1_554 S
O92 C91 1.160 . S
O93 Zn94 1.899 1_545 S
O93 C101 1.284 . S
Zn94 O93 1.899 1_565 S
Zn94 O95 2.032 . S
Zn94 O98 2.086 . S
Zn94 O103 1.977 . S
O95 Zn94 2.032 . S
O95 C99 1.278 . S
C96 O97 1.203 1_565 S
C96 O103 1.267 . S
O97 C96 1.203 1_545 S
O98 C91 1.185 1_556 S
O98 Zn94 2.086 . S
C99 O95 1.278 . S
C99 O100 1.211 . S
O100 C99 1.211 . S
C101 O93 1.284 . S
C101 O102 1.273 . S
O102 C101 1.273 . S
O103 Zn94 1.977 . S
O103 C96 1.267 . S
C104 O105 1.160 . S
C104 O111 1.185 1_554 S
O105 C104 1.160 . S
O106 Zn107 1.899 1_655 S
O106 C114 1.284 . S
Zn107 O106 1.899 1_455 S
Zn107 O108 2.032 . S
Zn107 O111 2.086 . S
Zn107 O116 1.977 . S
O108 Zn107 2.032 . S
O108 C112 1.278 . S
C109 O110 1.203 1_455 S
C109 O116 1.267 . S
O110 C109 1.203 1_655 S
O111 C104 1.185 1_556 S
O111 Zn107 2.086 . S
C112 O108 1.278 . S
C112 O113 1.211 . S
O113 C112 1.211 . S
C114 O106 1.284 . S
C114 O115 1.273 . S
O115 C114 1.273 . S
O116 Zn107 1.977 . S
O116 C109 1.267 . S
C117 O118 1.160 . S
C117 O124 1.185 . S
O118 C117 1.160 . S
O119 Zn120 1.899 . S
O119 C127 1.284 . S
Zn120 O119 1.899 . S
Zn120 O121 2.032 . S
Zn120 O124 2.086 . S
Zn120 O129 1.977 . S
O121 Zn120 2.032 . S
O121 C125 1.278 . S
C122 O123 1.203 . S
C122 O129 1.267 . S
O123 C122 1.203 . S
O124 C117 1.185 . S
O124 Zn120 2.086 . S
C125 O121 1.278 . S
C125 O126 1.211 . S
O126 C125 1.211 . S
C127 O119 1.284 . S
C127 O128 1.273 . S
O128 C127 1.273 . S
O129 Zn120 1.977 . S
O129 C122 1.267 . S
C130 O131 1.160 . S
C130 O137 1.185 . S
O131 C130 1.160 . S
O132 Zn133 1.899 1_565 S
O132 C140 1.284 . S
Zn133 O132 1.899 1_545 S
Zn133 O134 2.032 . S
Zn133 O137 2.086 . S
Zn133 O142 1.977 . S
O134 Zn133 2.032 . S
O134 C138 1.278 . S
C135 O136 1.203 1_545 S
C135 O142 1.267 . S
O136 C135 1.203 1_565 S
O137 C130 1.185 . S
O137 Zn133 2.086 . S
C138 O134 1.278 . S
C138 O139 1.211 . S
O139 C138 1.211 . S
C140 O132 1.284 . S
C140 O141 1.273 . S
O141 C140 1.273 . S
O142 Zn133 1.977 . S
O142 C135 1.267 . S
C143 O144 1.160 . S
C143 O150 1.185 . S
O144 C143 1.160 . S
O145 Zn146 1.899 1_455 S
O145 C153 1.284 . S
Zn146 O145 1.899 1_655 S
Zn146 O147 2.032 . S
Zn146 O150 2.086 . S
Zn146 O155 1.977 . S
O147 Zn146 2.032 . S
O147 C151 1.278 . S
C148 O149 1.203 1_655 S
C148 O155 1.267 . S
O149 C148 1.203 1_455 S
O150 C143 1.185 . S
O150 Zn146 2.086 . S
C151 O147 1.278 . S
C151 O152 1.211 . S
O152 C151 1.211 . S
C153 O145 1.284 . S
C153 O154 1.273 . S
O154 C153 1.273 . S
O155 Zn146 1.977 . S
O155 C148 1.267 . S
C156 O157 1.160 . S
C156 O163 1.185 . S
O157 C156 1.160 . S
O158 Zn159 1.899 . S
O158 C166 1.284 . S
Zn159 O158 1.899 . S
Zn159 O160 2.032 . S
Zn159 O163 2.086 . S
Zn159 O168 1.977 . S
O160 Zn159 2.032 . S
O160 C164 1.278 . S
C161 O162 1.203 . S
C161 O168 1.267 . S
O162 C161 1.203 . S
O163 C156 1.185 . S
O163 Zn159 2.086 . S
C164 O160 1.278 . S
C164 O165 1.211 . S
O165 C164 1.211 . S
C166 O158 1.284 . S
C166 O167 1.273 . S
O167 C166 1.273 . S
O168 Zn159 1.977 . S
O168 C161 1.267 . S
C169 O170 1.160 . S
C169 O176 1.185 . S
O170 C169 1.160 . S
O171 Zn172 1.899 . S
O171 C179 1.284 . S
Zn172 O171 1.899 . S
Zn172 O173 2.032 . S
Zn172 O176 2.086 . S
Zn172 O181 1.977 . S
O173 Zn172 2.032 . S
O173 C177 1.278 . S
C174 O175 1.203 . S
C174 O181 1.267 . S
O175 C174 1.203 . S
O176 C169 1.185 . S
O176 Zn172 2.086 . S
C177 O173 1.278 . S
C177 O178 1.211 . S
O178 C177 1.211 . S
C179 O171 1.284 . S
C179 O180 1.273 . S
O180 C179 1.273 . S
O181 Zn172 1.977 . S
O181 C174 1.267 . S
C182 O183 1.160 . S
C182 O189 1.185 . S
O183 C182 1.160 . S
O184 Zn185 1.899 . S
O184 C192 1.284 . S
Zn185 O184 1.899 . S
Zn185 O186 2.032 . S
Zn185 O189 2.086 . S
Zn185 O194 1.977 . S
O186 Zn185 2.032 . S
O186 C190 1.278 . S
C187 O188 1.203 . S
C187 O194 1.267 . S
O188 C187 1.203 . S
O189 C182 1.185 . S
O189 Zn185 2.086 . S
C190 O186 1.278 . S
C190 O191 1.211 . S
O191 C190 1.211 . S
C192 O184 1.284 . S
C192 O193 1.273 . S
O193 C192 1.273 . S
O194 Zn185 1.977 . S
O194 C187 1.267 . S
C195 O196 1.160 . S
C195 O202 1.185 . S
O196 C195 1.160 . S
O197 Zn198 1.899 . S
O197 C205 1.284 . S
Zn198 O197 1.899 . S
Zn198 O199 2.032 . S
Zn198 O202 2.086 . S
Zn198 O207 1.977 . S
O199 Zn198 2.032 . S
O199 C203 1.278 . S
C200 O201 1.203 . S
C200 O207 1.267 . S
O201 C200 1.203 . S
O202 C195 1.185 . S
O202 Zn198 2.086 . S
C203 O199 1.278 . S
C203 O204 1.211 . S
O204 C203 1.211 . S
C205 O197 1.284 . S
C205 O206 1.273 . S
O206 C205 1.273 . S
O207 Zn198 1.977 . S
O207 C200 1.267 . S
C208 O209 1.160 . S
C208 O215 1.185 . S
O209 C208 1.160 . S
O210 Zn211 1.899 . S
O210 C218 1.284 . S
Zn211 O210 1.899 . S
Zn211 O212 2.032 . S
Zn211 O215 2.086 . S
Zn211 O220 1.977 . S
O212 Zn211 2.032 . S
O212 C216 1.278 . S
C213 O214 1.203 . S
C213 O220 1.267 . S
O214 C213 1.203 . S
O215 C208 1.185 . S
O215 Zn211 2.086 . S
C216 O212 1.278 . S
C216 O217 1.211 . S
O217 C216 1.211 . S
C218 O210 1.284 . S
C218 O219 1.273 . S
O219 C218 1.273 . S
O220 Zn211 1.977 . S
O220 C213 1.267 . S
C221 O222 1.160 . S
C221 O228 1.185 . S
O222 C221 1.160 . S
O223 Zn224 1.899 . S
O223 C231 1.284 . S
Zn224 O223 1.899 . S
Zn224 O225 2.032 . S
Zn224 O228 2.086 . S
Zn224 O233 1.977 . S
O225 Zn224 2.032 . S
O225 C229 1.278 . S
C226 O227 1.203 . S
C226 O233 1.267 . S
O227 C226 1.203 . S
O228 C221 1.185 . S
O228 Zn224 2.086 . S
C229 O225 1.278 . S
C229 O230 1.211 . S
O230 C229 1.211 . S
C231 O223 1.284 . S
C231 O232 1.273 . S
O232 C231 1.273 . S
O233 Zn224 1.977 . S
O233 C226 1.267 . S
C234 O235 1.160 . S
C234 O241 1.185 . S
O235 C234 1.160 . S
O236 Zn237 1.899 . S
O236 C244 1.284 . S
Zn237 O236 1.899 . S
Zn237 O238 2.032 . S
Zn237 O241 2.086 . S
Zn237 O246 1.977 . S
O238 Zn237 2.032 . S
O238 C242 1.278 . S
C239 O240 1.203 . S
C239 O246 1.267 . S
O240 C239 1.203 . S
O241 C234 1.185 . S
O241 Zn237 2.086 . S
C242 O238 1.278 . S
C242 O243 1.211 . S
O243 C242 1.211 . S
C244 O236 1.284 . S
C244 O245 1.273 . S
O245 C244 1.273 . S
O246 Zn237 1.977 . S
O246 C239 1.267 . S
C247 O248 1.160 . S
C247 O254 1.185 . S
O248 C247 1.160 . S
O249 Zn250 1.899 . S
O249 C257 1.284 . S
Zn250 O249 1.899 . S
Zn250 O251 2.032 . S
Zn250 O254 2.086 . S
Zn250 O259 1.977 . S
O251 Zn250 2.032 . S
O251 C255 1.278 . S
C252 O253 1.203 . S
C252 O259 1.267 . S
O253 C252 1.203 . S
O254 C247 1.185 . S
O254 Zn250 2.086 . S
C255 O251 1.278 . S
C255 O256 1.211 . S
O256 C255 1.211 . S
C257 O249 1.284 . S
C257 O258 1.273 . S
O258 C257 1.273 . S
O259 Zn250 1.977 . S
O259 C252 1.267 . S
C260 O261 1.160 . S
C260 O267 1.185 . S
O261 C260 1.160 . S
O262 Zn263 1.899 . S
O262 C270 1.284 . S
Zn263 O262 1.899 . S
Zn263 O264 2.032 . S
Zn263 O267 2.086 . S
Zn263 O272 1.977 . S
O264 Zn263 2.032 . S
O264 C268 1.278 . S
C265 O266 1.203 . S
C265 O272 1.267 . S
O266 C265 1.203 . S
O267 C260 1.185 . S
O267 Zn263 2.086 . S
C268 O264 1.278 . S
C268 O269 1.211 . S
O269 C268 1.211 . S
C270 O262 1.284 . S
C270 O271 1.273 . S
O271 C270 1.273 . S
O272 Zn263 1.977 . S
O272 C265 1.267 . S
C273 O274 1.160 . S
C273 O280 1.185 . S
O274 C273 1.160 . S
O275 Zn276 1.899 . S
O275 C283 1.284 . S
Zn276 O275 1.899 . S
Zn276 O277 2.032 . S
Zn276 O280 2.086 . S
Zn276 O285 1.977 . S
O277 Zn276 2.032 . S
O277 C281 1.278 . S
C278 O279 1.203 . S
C278 O285 1.267 . S
O279 C278 1.203 . S
O280 C273 1.185 . S
O280 Zn276 2.086 . S
C281 O277 1.278 . S
C281 O282 1.211 . S
O282 C281 1.211 . S
C283 O275 1.284 . S
C283 O284 1.273 . S
O284 C283 1.273 . S
O285 Zn276 1.977 . S
O285 C278 1.267 . S
C286 O287 1.160 . S
C286 O293 1.185 . S
O287 C286 1.160 . S
O288 Zn289 1.899 . S
O288 C296 1.284 . S
Zn289 O288 1.899 . S
Zn289 O290 2.032 . S
Zn289 O293 2.086 . S
Zn289 O298 1.977 . S
O290 Zn289 2.032 . S
O290 C294 1.278 . S
C291 O292 1.203 . S
C291 O298 1.267 . S
O292 C291 1.203 . S
O293 C286 1.185 . S
O293 Zn289 2.086 . S
C294 O290 1.278 . S
C294 O295 1.211 . S
O295 C294 1.211 . S
C296 O288 1.284 . S
C296 O297 1.273 . S
O297 C296 1.273 . S
O298 Zn289 1.977 . S
O298 C291 1.267 . S
C299 O300 1.160 . S
C299 O306 1.185 . S
O300 C299 1.160 . S
O301 Zn302 1.899 . S
O301 C309 1.284 . S
Zn302 O301 1.899 . S
Zn302 O303 2.032 . S
Zn302 O306 2.086 . S
Zn302 O311 1.977 . S
O303 Zn302 2.032 . S
O303 C307 1.278 . S
C304 O305 1.203 . S
C304 O311 1.267 . S
O305 C304 1.203 . S
O306 C299 1.185 . S
O306 Zn302 2.086 . S
C307 O303 1.278 . S
C307 O308 1.211 . S
O308 C307 1.211 . S
C309 O301 1.284 . S
C309 O310 1.273 . S
O310 C309 1.273 . S
O311 Zn302 1.977 . S
O311 C304 1.267 . S
C312 O313 1.160 . S
C312 O319 1.185 . S
O313 C312 1.160 . S
O314 Zn315 1.899 . S
O314 C322 1.284 . S
Zn315 O314 1.899 . S
Zn315 O316 2.032 . S
Zn315 O319 2.086 . S
Zn315 O324 1.977 . S
O316 Zn315 2.032 . S
O316 C320 1.278 . S
C317 O318 1.203 . S
C317 O324 1.267 . S
O318 C317 1.203 . S
O319 C312 1.185 . S
O319 Zn315 2.086 . S
C320 O316 1.278 . S
C320 O321 1.211 . S
O321 C320 1.211 . S
C322 O314 1.284 . S
C322 O323 1.273 . S
O323 C322 1.273 . S
O324 Zn315 1.977 . S
O324 C317 1.267 . S
C325 O326 1.160 . S
C325 O332 1.185 . S
O326 C325 1.160 . S
O327 Zn328 1.899 . S
O327 C335 1.284 . S
Zn328 O327 1.899 . S
Zn328 O329 2.032 . S
Zn328 O332 2.086 . S
Zn328 O337 1.977 . S
O329 Zn328 2.032 . S
O329 C333 1.278 . S
C330 O331 1.203 . S
C330 O337 1.267 . S
O331 C330 1.203 . S
O332 C325 1.185 . S
O332 Zn328 2.086 . S
C333 O329 1.278 . S
C333 O334 1.211 . S
O334 C333 1.211 . S
C335 O327 1.284 . S
C335 O336 1.273 . S
O336 C335 1.273 . S
O337 Zn328 1.977 . S
O337 C330 1.267 . S
C338 O339 1.160 . S
C338 O345 1.185 . S
O339 C338 1.160 . S
O340 Zn341 1.899 . S
O340 C348 1.284 . S
Zn341 O340 1.899 . S
Zn341 O342 2.032 . S
Zn341 O345 2.086 . S
Zn341 O350 1.977 . S
O342 Zn341 2.032 . S
O342 C346 1.278 . S
C343 O344 1.203 . S
C343 O350 1.267 . S
O344 C343 1.203 . S
O345 C338 1.185 . S
O345 Zn341 2.086 . S
C346 O342 1.278 . S
C346 O347 1.211 . S
O347 C346 1.211 . S
C348 O340 1.284 . S
C348 O349 1.273 . S
O349 C348 1.273 . S
O350 Zn341 1.977 . S
O350 C343 1.267 . S
C351 O352 1.160 . S
C351 O358 1.185 . S
O352 C351 1.160 . S
O353 Zn354 1.899 . S
O353 C361 1.284 . S
Zn354 O353 1.899 . S
Zn354 O355 2.032 . S
Zn354 O358 2.086 . S
Zn354 O363 1.977 . S
O355 Zn354 2.032 . S
O355 C359 1.278 . S
C356 O357 1.203 . S
C356 O363 1.267 . S
O357 C356 1.203 . S
O358 C351 1.185 . S
O358 Zn354 2.086 . S
C359 O355 1.278 . S
C359 O360 1.211 . S
O360 C359 1.211 . S
C361 O353 1.284 . S
C361 O362 1.273 . S
O362 C361 1.273 . S
O363 Zn354 1.977 . S
O363 C356 1.267 . S
C364 O365 1.160 . S
C364 O371 1.185 . S
O365 C364 1.160 . S
O366 Zn367 1.899 . S
O366 C374 1.284 . S
Zn367 O366 1.899 . S
Zn367 O368 2.032 . S
Zn367 O371 2.086 . S
Zn367 O376 1.977 . S
O368 Zn367 2.032 . S
O368 C372 1.278 . S
C369 O370 1.203 . S
C369 O376 1.267 . S
O370 C369 1.203 . S
O371 C364 1.185 . S
O371 Zn367 2.086 . S
C372 O368 1.278 . S
C372 O373 1.211 . S
O373 C372 1.211 . S
C374 O366 1.284 . S
C374 O375 1.273 . S
O375 C374 1.273 . S
O376 Zn367 1.977 . S
O376 C369 1.267 . S
C377 O378 1.160 . S
C377 O384 1.185 . S
O378 C377 1.160 . S
O379 Zn380 1.899 . S
O379 C387 1.284 . S
Zn380 O379 1.899 . S
Zn380 O381 2.032 . S
Zn380 O384 2.086 . S
Zn380 O389 1.977 . S
O381 Zn380 2.032 . S
O381 C385 1.278 . S
C382 O383 1.203 . S
C382 O389 1.267 . S
O383 C382 1.203 . S
O384 C377 1.185 . S
O384 Zn380 2.086 . S
C385 O381 1.278 . S
C385 O386 1.211 . S
O386 C385 1.211 . S
C387 O379 1.284 . S
C387 O388 1.273 . S
O388 C387 1.273 . S
O389 Zn380 1.977 . S
O389 C382 1.267 . S
C390 O391 1.160 . S
C390 O397 1.185 . S
O391 C390 1.160 . S
O392 Zn393 1.899 . S
O392 C400 1.284 . S
Zn393 O392 1.899 . S
Zn393 O394 2.032 . S
Zn393 O397 2.086 . S
Zn393 O402 1.977 . S
O394 Zn393 2.032 . S
O394 C398 1.278 . S
C395 O396 1.203 . S
C395 O402 1.267 . S
O396 C395 1.203 . S
O397 C390 1.185 . S
O397 Zn393 2.086 . S
C398 O394 1.278 . S
C398 O399 1.211 . S
O399 C398 1.211 . S
C400 O392 1.284 . S
C400 O401 1.273 . S
O401 C400 1.273 . S
O402 Zn393 1.977 . S
O402 C395 1.267 . S
C403 O404 1.160 . S
C403 O410 1.185 . S
O404 C403 1.160 . S
O405 Zn406 1.899 . S
O405 C413 1.284 . S
Zn406 O405 1.899 . S
Zn406 O407 2.032 . S
Zn406 O410 2.086 . S
Zn406 O415 1.977 . S
O407 Zn406 2.032 . S
O407 C411 1.278 . S
C408 O409 1.203 . S
C408 O415 1.267 . S
O409 C408 1.203 . S
O410 C403 1.185 . S
O410 Zn406 2.086 . S
C411 O407 1.278 . S
C411 O412 1.211 . S
O412 C411 1.211 . S
C413 O405 1.284 . S
C413 O414 1.273 . S
O414 C413 1.273 . S
O415 Zn406 1.977 . S
O415 C408 1.267 . S
C416 O417 1.160 . S
C416 O423 1.185 . S
O417 C416 1.160 . S
O418 Zn419 1.899 . S
O418 C426 1.284 . S
Zn419 O418 1.899 . S
Zn419 O420 2.032 . S
Zn419 O423 2.086 . S
Zn419 O428 1.977 . S
O420 Zn419 2.032 . S
O420 C424 1.278 . S
C421 O422 1.203 . S
C421 O428 1.267 . S
O422 C421 1.203 . S
O423 C416 1.185 . S
O423 Zn419 2.086 . S
C424 O420 1.278 . S
C424 O425 1.211 . S
O425 C424 1.211 . S
C426 O418 1.284 . S
C426 O427 1.273 . S
O427 C426 1.273 . S
O428 Zn419 1.977 . S
O428 C421 1.267 . S
C429 O430 1.160 . S
C429 O436 1.185 . S
O430 C429 1.160 . S
O431 Zn432 1.899 . S
O431 C439 1.284 . S
Zn432 O431 1.899 . S
Zn432 O433 2.032 . S
Zn432 O436 2.086 . S
Zn432 O441 1.977 . S
O433 Zn432 2.032 . S
O433 C437 1.278 . S
C434 O435 1.203 . S
C434 O441 1.267 . S
O435 C434 1.203 . S
O436 C429 1.185 . S
O436 Zn432 2.086 . S
C437 O433 1.278 . S
C437 O438 1.211 . S
O438 C437 1.211 . S
C439 O431 1.284 . S
C439 O440 1.273 . S
O440 C439 1.273 . S
O441 Zn432 1.977 . S
O441 C434 1.267 . S
C442 O443 1.160 . S
C442 O449 1.185 . S
O443 C442 1.160 . S
O444 Zn445 1.899 . S
O444 C452 1.284 . S
Zn445 O444 1.899 . S
Zn445 O446 2.032 . S
Zn445 O449 2.086 . S
Zn445 O454 1.977 . S
O446 Zn445 2.032 . S
O446 C450 1.278 . S
C447 O448 1.203 . S
C447 O454 1.267 . S
O448 C447 1.203 . S
O449 C442 1.185 . S
O449 Zn445 2.086 . S
C450 O446 1.278 . S
C450 O451 1.211 . S
O451 C450 1.211 . S
C452 O444 1.284 . S
C452 O453 1.273 . S
O453 C452 1.273 . S
O454 Zn445 1.977 . S
O454 C447 1.267 . S
C455 O456 1.160 . S
C455 O462 1.185 . S
O456 C455 1.160 . S
O457 Zn458 1.899 . S
O457 C465 1.284 . S
Zn458 O457 1.899 . S
Zn458 O459 2.032 . S
Zn458 O462 2.086 . S
Zn458 O467 1.977 . S
O459 Zn458 2.032 . S
O459 C463 1.278 . S
C460 O461 1.203 . S
C460 O467 1.267 . S
O461 C460 1.203 . S
O462 C455 1.185 . S
O462 Zn458 2.086 . S
C463 O459 1.278 . S
C463 O464 1.211 . S
O464 C463 1.211 . S
C465 O457 1.284 . S
C465 O466 1.273 . S
O466 C465 1.273 . S
O467 Zn458 1.977 . S
O467 C460 1.267 . S
C468 C469 1.363 . S
C468 C474 1.379 . S
C468 N476 1.356 . S
C469 C468 1.363 . S
C469 C475 1.363 . S
C470 C471 1.363 . S
C470 C475 1.379 . S
C470 N477 1.356 . S
C471 C470 1.363 . S
C471 C474 1.363 . S
N472 C474 1.356 . S
N472 H484 0.984 . S
N472 H485 0.985 . S
N473 C475 1.356 . S
N473 H478 0.984 . S
N473 H479 0.985 . S
C474 C468 1.379 . S
C474 C471 1.363 . S
C474 N472 1.356 . S
C475 C469 1.363 . S
C475 C470 1.379 . S
C475 N473 1.356 . S
N476 C468 1.356 . S
N476 H482 0.984 . S
N476 H483 0.984 . S
N477 C470 1.356 . S
N477 H480 0.984 . S
N477 H481 0.985 . S
H478 N473 0.984 . S
H479 N473 0.985 . S
H480 N477 0.984 . S
H481 N477 0.985 . S
H482 N476 0.984 . S
H483 N476 0.984 . S
H484 N472 0.984 . S
H485 N472 0.985 . S
C486 C487 1.363 . S
C486 C492 1.379 . S
C486 N494 1.356 . S
C487 C486 1.363 . S
C487 C493 1.363 . S
C488 C489 1.363 . S
C488 C493 1.379 . S
C488 N495 1.356 1_545 S
C489 C488 1.363 . S
C489 C492 1.363 . S
N490 C492 1.356 . S
N490 H502 0.984 . S
N490 H503 0.985 . S
N491 C493 1.356 . S
N491 H496 0.984 . S
N491 H497 0.985 . S
C492 C486 1.379 . S
C492 C489 1.363 . S
C492 N490 1.356 . S
C493 C487 1.363 . S
C493 C488 1.379 . S
C493 N491 1.356 . S
N494 C486 1.356 . S
N494 H500 0.984 . S
N494 H501 0.984 . S
N495 C488 1.356 1_565 S
N495 H498 0.984 . S
N495 H499 0.985 . S
H496 N491 0.984 . S
H497 N491 0.985 . S
H498 N495 0.984 . S
H499 N495 0.985 . S
H500 N494 0.984 . S
H501 N494 0.984 . S
H502 N490 0.984 . S
H503 N490 0.985 . S
C504 C505 1.363 . S
C504 C510 1.379 . S
C504 N512 1.356 . S
C505 C504 1.363 . S
C505 C511 1.363 . S
C506 C507 1.363 . S
C506 C511 1.379 . S
C506 N513 1.356 . S
C507 C506 1.363 . S
C507 C510 1.363 . S
N508 C510 1.356 . S
N508 H520 0.984 . S
N508 H521 0.985 . S
N509 C511 1.356 1_554 S
N509 H514 0.984 . S
N509 H515 0.985 . S
C510 C504 1.379 . S
C510 C507 1.363 . S
C510 N508 1.356 . S
C511 C505 1.363 . S
C511 C506 1.379 . S
C511 N509 1.356 1_556 S
N512 C504 1.356 . S
N512 H518 0.984 . S
N512 H519 0.984 . S
N513 C506 1.356 . S
N513 H516 0.984 . S
N513 H517 0.985 . S
H514 N509 0.984 . S
H515 N509 0.985 . S
H516 N513 0.984 . S
H517 N513 0.985 . S
H518 N512 0.984 . S
H519 N512 0.984 . S
H520 N508 0.984 . S
H521 N508 0.985 . S
C522 C523 1.363 . S
C522 C528 1.379 . S
C522 N530 1.356 . S
C523 C522 1.363 . S
C523 C529 1.363 . S
C524 C525 1.363 . S
C524 C529 1.379 . S
C524 N531 1.356 . S
C525 C524 1.363 . S
C525 C528 1.363 . S
N526 C528 1.356 . S
N526 H538 0.984 . S
N526 H539 0.985 . S
N527 C529 1.356 . S
N527 H532 0.984 . S
N527 H533 0.985 . S
C528 C522 1.379 . S
C528 C525 1.363 . S
C528 N526 1.356 . S
C529 C523 1.363 . S
C529 C524 1.379 . S
C529 N527 1.356 . S
N530 C522 1.356 . S
N530 H536 0.984 . S
N530 H537 0.984 . S
N531 C524 1.356 . S
N531 H534 0.984 . S
N531 H535 0.985 . S
H532 N527 0.984 . S
H533 N527 0.985 . S
H534 N531 0.984 . S
H535 N531 0.985 . S
H536 N530 0.984 . S
H537 N530 0.984 . S
H538 N526 0.984 . S
H539 N526 0.985 . S
C540 C541 1.363 . S
C540 C546 1.379 . S
C540 N548 1.356 . S
C541 C540 1.363 . S
C541 C547 1.363 . S
C542 C543 1.363 . S
C542 C547 1.379 . S
C542 N549 1.356 . S
C543 C542 1.363 . S
C543 C546 1.363 . S
N544 C546 1.356 . S
N544 H556 0.984 . S
N544 H557 0.985 . S
N545 C547 1.356 . S
N545 H550 0.984 . S
N545 H551 0.985 . S
C546 C540 1.379 . S
C546 C543 1.363 . S
C546 N544 1.356 . S
C547 C541 1.363 . S
C547 C542 1.379 . S
C547 N545 1.356 . S
N548 C540 1.356 . S
N548 H554 0.984 . S
N548 H555 0.984 . S
N549 C542 1.356 . S
N549 H552 0.984 . S
N549 H553 0.985 . S
H550 N545 0.984 . S
H551 N545 0.985 . S
H552 N549 0.984 . S
H553 N549 0.985 . S
H554 N548 0.984 . S
H555 N548 0.984 . S
H556 N544 0.984 . S
H557 N544 0.985 . S
C558 C559 1.363 . S
C558 C564 1.379 . S
C558 N566 1.356 . S
C559 C558 1.363 . S
C559 C565 1.363 . S
C560 C561 1.363 . S
C560 C565 1.379 . S
C560 N567 1.356 . S
C561 C560 1.363 . S
C561 C564 1.363 . S
N562 C564 1.356 . S
N562 H574 0.984 . S
N562 H575 0.985 . S
N563 C565 1.356 . S
N563 H568 0.984 . S
N563 H569 0.985 . S
C564 C558 1.379 . S
C564 C561 1.363 . S
C564 N562 1.356 . S
C565 C559 1.363 . S
C565 C560 1.379 . S
C565 N563 1.356 . S
N566 C558 1.356 . S
N566 H572 0.984 . S
N566 H573 0.984 . S
N567 C560 1.356 . S
N567 H570 0.984 . S
N567 H571 0.985 . S
H568 N563 0.984 . S
H569 N563 0.985 . S
H570 N567 0.984 . S
H571 N567 0.985 . S
H572 N566 0.984 . S
H573 N566 0.984 . S
H574 N562 0.984 . S
H575 N562 0.985 . S
C576 C577 1.363 . S
C576 C582 1.379 . S
C576 N584 1.356 . S
C577 C576 1.363 . S
C577 C583 1.363 . S
C578 C579 1.363 . S
C578 C583 1.379 . S
C578 N585 1.356 . S
C579 C578 1.363 . S
C579 C582 1.363 . S
N580 C582 1.356 . S
N580 H592 0.984 . S
N580 H593 0.985 . S
N581 C583 1.356 . S
N581 H586 0.984 . S
N581 H587 0.985 . S
C582 C576 1.379 . S
C582 C579 1.363 . S
C582 N580 1.356 . S
C583 C577 1.363 . S
C583 C578 1.379 . S
C583 N581 1.356 . S
N584 C576 1.356 . S
N584 H590 0.984 . S
N584 H591 0.984 . S
N585 C578 1.356 . S
N585 H588 0.984 . S
N585 H589 0.985 . S
H586 N581 0.984 . S
H587 N581 0.985 . S
H588 N585 0.984 . S
H589 N585 0.985 . S
H590 N584 0.984 . S
H591 N584 0.984 . S
H592 N580 0.984 . S
H593 N580 0.985 . S
C594 C595 1.363 . S
C594 C600 1.379 . S
C594 N602 1.356 . S
C595 C594 1.363 . S
C595 C601 1.363 . S
C596 C597 1.363 . S
C596 C601 1.379 . S
C596 N603 1.356 1_554 S
C597 C596 1.363 . S
C597 C600 1.363 . S
N598 C600 1.356 . S
N598 H610 0.984 1_565 S
N598 H611 0.985 . S
N599 C601 1.356 . S
N599 H604 0.984 . S
N599 H605 0.985 . S
C600 C594 1.379 . S
C600 C597 1.363 . S
C600 N598 1.356 . S
C601 C595 1.363 . S
C601 C596 1.379 . S
C601 N599 1.356 . S
N602 C594 1.356 . S
N602 H608 0.984 . S
N602 H609 0.984 . S
N603 C596 1.356 1_556 S
N603 H606 0.984 . S
N603 H607 0.985 . S
H604 N599 0.984 . S
H605 N599 0.985 . S
H606 N603 0.984 . S
H607 N603 0.985 . S
H608 N602 0.984 . S
H609 N602 0.984 . S
H610 N598 0.984 1_545 S
H611 N598 0.985 . S
C612 C613 1.363 . S
C612 C618 1.379 . S
C612 N620 1.356 . S
C613 C612 1.363 . S
C613 C619 1.363 . S
C614 C615 1.363 . S
C614 C619 1.379 . S
C614 N621 1.356 . S
C615 C614 1.363 . S
C615 C618 1.363 . S
N616 C618 1.356 1_556 S
N616 H628 0.984 . S
N616 H629 0.985 . S
N617 C619 1.356 . S
N617 H622 0.984 . S
N617 H623 0.985 . S
C618 C612 1.379 . S
C618 C615 1.363 . S
C618 N616 1.356 1_554 S
C619 C613 1.363 . S
C619 C614 1.379 . S
C619 N617 1.356 . S
N620 C612 1.356 . S
N620 H626 0.984 . S
N620 H627 0.984 . S
N621 C614 1.356 . S
N621 H624 0.984 . S
N621 H625 0.985 . S
H622 N617 0.984 . S
H623 N617 0.985 . S
H624 N621 0.984 . S
H625 N621 0.985 . S
H626 N620 0.984 . S
H627 N620 0.984 . S
H628 N616 0.984 . S
H629 N616 0.985 . S
C630 C631 1.363 . S
C630 C636 1.379 . S
C630 N638 1.356 . S
C631 C630 1.363 . S
C631 C637 1.363 . S
C632 C633 1.363 . S
C632 C637 1.379 . S
C632 N639 1.356 . S
C633 C632 1.363 . S
C633 C636 1.363 . S
N634 C636 1.356 . S
N634 H646 0.984 . S
N634 H647 0.985 . S
N635 C637 1.356 . S
N635 H640 0.984 . S
N635 H641 0.985 . S
C636 C630 1.379 . S
C636 C633 1.363 . S
C636 N634 1.356 . S
C637 C631 1.363 . S
C637 C632 1.379 . S
C637 N635 1.356 . S
N638 C630 1.356 . S
N638 H644 0.984 . S
N638 H645 0.984 . S
N639 C632 1.356 . S
N639 H642 0.984 . S
N639 H643 0.985 . S
H640 N635 0.984 . S
H641 N635 0.985 . S
H642 N639 0.984 . S
H643 N639 0.985 . S
H644 N638 0.984 . S
H645 N638 0.984 . S
H646 N634 0.984 . S
H647 N634 0.985 . S
C648 C649 1.363 . S
C648 C654 1.379 . S
C648 N656 1.360 . S
C649 C648 1.363 . S
C649 C655 1.363 . S
C650 C651 1.363 . S
C650 C655 1.379 . S
C650 N657 1.356 . S
C651 C650 1.363 . S
C651 C654 1.363 . S
N652 C654 1.356 . S
N652 H664 0.984 . S
N652 H665 0.985 . S
N653 C655 1.356 . S
N653 H658 0.984 . S
N653 H659 0.985 . S
C654 C648 1.379 . S
C654 C651 1.363 . S
C654 N652 1.356 . S
C655 C649 1.363 . S
C655 C650 1.379 . S
C655 N653 1.356 . S
N656 C648 1.360 . S
N656 H662 0.979 1_545 S
N656 H663 0.986 1_545 S
N657 C650 1.356 . S
N657 H660 0.984 . S
N657 H661 0.985 . S
H658 N653 0.984 . S
H659 N653 0.985 . S
H660 N657 0.984 . S
H661 N657 0.985 . S
H662 N656 0.979 1_565 S
H663 N656 0.986 1_565 S
H664 N652 0.984 . S
H665 N652 0.985 . S
C666 C667 1.363 . S
C666 C672 1.379 . S
C666 N674 1.356 . S
C667 C666 1.363 . S
C667 C673 1.363 . S
C668 C669 1.363 . S
C668 C673 1.379 . S
C668 N675 1.356 1_655 S
C669 C668 1.363 . S
C669 C672 1.363 . S
N670 C672 1.356 . S
N670 H682 0.984 . S
N670 H683 0.985 . S
N671 C673 1.356 . S
N671 H676 0.984 . S
N671 H677 0.985 . S
C672 C666 1.379 . S
C672 C669 1.363 . S
C672 N670 1.356 . S
C673 C667 1.363 . S
C673 C668 1.379 . S
C673 N671 1.356 . S
N674 C666 1.356 . S
N674 H680 0.984 . S
N674 H681 0.984 . S
N675 C668 1.356 1_455 S
N675 H678 0.984 . S
N675 H679 0.985 . S
H676 N671 0.984 . S
H677 N671 0.985 . S
H678 N675 0.984 . S
H679 N675 0.985 . S
H680 N674 0.984 . S
H681 N674 0.984 . S
H682 N670 0.984 . S
H683 N670 0.985 . S
C684 C685 1.363 . S
C684 C690 1.379 . S
C684 N692 1.356 . S
C685 C684 1.363 . S
C685 C691 1.363 1_455 S
C686 C687 1.363 . S
C686 C691 1.379 . S
C686 N693 1.356 . S
C687 C686 1.363 . S
C687 C690 1.363 1_655 S
N688 C690 1.356 1_655 S
N688 H700 0.984 1_655 S
N688 H701 0.985 . S
N689 C691 1.356 1_455 S
N689 H694 0.984 . S
N689 H695 0.985 1_455 S
C690 C684 1.379 . S
C690 C687 1.363 1_455 S
C690 N688 1.356 1_455 S
C691 C685 1.363 1_655 S
C691 C686 1.379 . S
C691 N689 1.356 1_655 S
N692 C684 1.356 . S
N692 H698 0.984 . S
N692 H699 0.984 . S
N693 C686 1.356 . S
N693 H696 0.984 . S
N693 H697 0.985 . S
H694 N689 0.984 . S
H695 N689 0.985 1_655 S
H696 N693 0.984 . S
H697 N693 0.985 . S
H698 N692 0.984 . S
H699 N692 0.984 . S
H700 N688 0.984 1_455 S
H701 N688 0.985 . S
C702 C703 1.363 . S
C702 C708 1.379 . S
C702 N710 1.356 . S
C703 C702 1.363 . S
C703 C709 1.363 . S
C704 C705 1.363 . S
C704 C709 1.379 . S
C704 N711 1.356 . S
C705 C704 1.363 . S
C705 C708 1.363 . S
N706 C708 1.356 . S
N706 H718 0.984 . S
N706 H719 0.985 . S
N707 C709 1.356 . S
N707 H712 0.984 . S
N707 H713 0.985 . S
C708 C702 1.379 . S
C708 C705 1.363 . S
C708 N706 1.356 . S
C709 C703 1.363 . S
C709 C704 1.379 . S
C709 N707 1.356 . S
N710 C702 1.356 . S
N710 H716 0.984 . S
N710 H717 0.984 . S
N711 C704 1.356 . S
N711 H714 0.984 . S
N711 H715 0.985 . S
H712 N707 0.984 . S
H713 N707 0.985 . S
H714 N711 0.984 . S
H715 N711 0.985 . S
H716 N710 0.984 . S
H717 N710 0.984 . S
H718 N706 0.984 . S
H719 N706 0.985 . S
C720 C721 1.363 1_545 S
C720 C726 1.379 . S
C720 N728 1.351 1_545 S
C721 C720 1.363 1_565 S
C721 C727 1.363 . S
C722 C723 1.363 1_565 S
C722 C727 1.379 . S
C722 N729 1.351 1_565 S
C723 C722 1.363 1_545 S
C723 C726 1.363 . S
N724 C726 1.356 . S
N724 H736 0.984 . S
N724 H737 0.985 . S
N725 C727 1.356 . S
N725 H730 0.984 . S
N725 H731 0.985 . S
C726 C720 1.379 . S
C726 C723 1.363 . S
C726 N724 1.356 . S
C727 C721 1.363 . S
C727 C722 1.379 . S
C727 N725 1.356 . S
N728 C720 1.351 1_565 S
N728 H734 0.969 1_565 S
N728 H735 1.006 . S
N729 C722 1.351 1_545 S
N729 H732 1.006 . S
N729 H733 0.969 1_545 S
H730 N725 0.984 . S
H731 N725 0.985 . S
H732 N729 1.006 . S
H733 N729 0.969 1_565 S
H734 N728 0.969 1_545 S
H735 N728 1.006 . S
H736 N724 0.984 . S
H737 N724 0.985 . S
C738 C739 1.363 1_545 S
C738 C744 1.379 . S
C738 N746 1.357 1_545 S
C739 C738 1.363 1_565 S
C739 C745 1.363 . S
C740 C741 1.363 1_565 S
C740 C745 1.379 . S
C740 N747 1.357 1_565 S
C741 C740 1.363 1_545 S
C741 C744 1.363 . S
N742 C744 1.356 . S
N742 H754 0.984 . S
N742 H755 0.985 . S
N743 C745 1.356 . S
N743 H748 0.984 . S
N743 H749 0.985 . S
C744 C738 1.379 . S
C744 C741 1.363 . S
C744 N742 1.356 . S
C745 C739 1.363 . S
C745 C740 1.379 . S
C745 N743 1.356 . S
N746 C738 1.357 1_565 S
N746 H752 0.987 1_565 S
N746 H753 0.981 . S
N747 C740 1.357 1_545 S
N747 H750 0.981 . S
N747 H751 0.987 1_545 S
H748 N743 0.984 . S
H749 N743 0.985 . S
H750 N747 0.981 . S
H751 N747 0.987 1_565 S
H752 N746 0.987 1_545 S
H753 N746 0.981 . S
H754 N742 0.984 . S
H755 N742 0.985 . S
C756 C757 1.363 . S
C756 C762 1.379 1_455 S
C756 N764 1.356 . S
C757 C756 1.363 . S
C757 C763 1.363 . S
C758 C759 1.363 . S
C758 C763 1.379 1_655 S
C758 N765 1.356 . S
C759 C758 1.363 . S
C759 C762 1.363 . S
N760 C762 1.356 . S
N760 H772 0.984 . S
N760 H773 0.985 . S
N761 C763 1.356 . S
N761 H766 0.984 . S
N761 H767 0.985 . S
C762 C756 1.379 1_655 S
C762 C759 1.363 . S
C762 N760 1.356 . S
C763 C757 1.363 . S
C763 C758 1.379 1_455 S
C763 N761 1.356 . S
N764 C756 1.356 . S
N764 H770 0.984 . S
N764 H771 0.984 . S
N765 C758 1.356 . S
N765 H768 0.984 . S
N765 H769 0.985 . S
H766 N761 0.984 . S
H767 N761 0.985 . S
H768 N765 0.984 . S
H769 N765 0.985 . S
H770 N764 0.984 . S
H771 N764 0.984 . S
H772 N760 0.984 . S
H773 N760 0.985 . S
C774 C775 1.363 . S
C774 C780 1.379 . S
C774 N782 1.356 . S
C775 C774 1.363 . S
C775 C781 1.363 . S
C776 C777 1.363 . S
C776 C781 1.379 . S
C776 N783 1.356 . S
C777 C776 1.363 . S
C777 C780 1.363 . S
N778 C780 1.356 . S
N778 H790 0.984 . S
N778 H791 0.985 . S
N779 C781 1.356 . S
N779 H784 0.984 . S
N779 H785 0.985 . S
C780 C774 1.379 . S
C780 C777 1.363 . S
C780 N778 1.356 . S
C781 C775 1.363 . S
C781 C776 1.379 . S
C781 N779 1.356 . S
N782 C774 1.356 . S
N782 H788 0.984 . S
N782 H789 0.984 . S
N783 C776 1.356 . S
N783 H786 0.984 . S
N783 H787 0.985 . S
H784 N779 0.984 . S
H785 N779 0.985 . S
H786 N783 0.984 . S
H787 N783 0.985 . S
H788 N782 0.984 . S
H789 N782 0.984 . S
H790 N778 0.984 . S
H791 N778 0.985 . S
C792 C793 1.364 1_554 S
C792 C798 1.379 . S
C792 N800 1.356 . S
C793 C792 1.364 1_556 S
C793 C799 1.362 . S
C794 C795 1.363 1_556 S
C794 C799 1.379 . S
C794 N801 1.356 . S
C795 C794 1.363 1_554 S
C795 C798 1.363 . S
N796 C798 1.356 . S
N796 H808 0.984 . S
N796 H809 0.985 . S
N797 C799 1.356 . S
N797 H802 0.984 . S
N797 H803 0.985 . S
C798 C792 1.379 . S
C798 C795 1.363 . S
C798 N796 1.356 . S
C799 C793 1.362 . S
C799 C794 1.379 . S
C799 N797 1.356 . S
N800 C792 1.356 . S
N800 H806 0.984 . S
N800 H807 0.984 . S
N801 C794 1.356 . S
N801 H804 0.984 . S
N801 H805 0.985 . S
H802 N797 0.984 . S
H803 N797 0.985 . S
H804 N801 0.984 . S
H805 N801 0.985 . S
H806 N800 0.984 . S
H807 N800 0.984 . S
H808 N796 0.984 . S
H809 N796 0.985 . S
C810 C811 1.362 . S
C810 C816 1.379 . S
C810 N818 1.356 . S
C811 C810 1.362 . S
C811 C817 1.364 1_556 S
C812 C813 1.363 . S
C812 C817 1.379 . S
C812 N819 1.356 . S
C813 C812 1.363 . S
C813 C816 1.363 1_554 S
N814 C816 1.356 . S
N814 H826 0.984 . S
N814 H827 0.985 . S
N815 C817 1.356 . S
N815 H820 0.984 . S
N815 H821 0.985 . S
C816 C810 1.379 . S
C816 C813 1.363 1_556 S
C816 N814 1.356 . S
C817 C811 1.364 1_554 S
C817 C812 1.379 . S
C817 N815 1.356 . S
N818 C810 1.356 . S
N818 H824 0.984 . S
N818 H825 0.984 . S
N819 C812 1.356 . S
N819 H822 0.984 . S
N819 H823 0.985 . S
H820 N815 0.984 . S
H821 N815 0.985 . S
H822 N819 0.984 . S
H823 N819 0.985 . S
H824 N818 0.984 . S
H825 N818 0.984 . S
H826 N814 0.984 . S
H827 N814 0.985 . S
C828 C829 1.364 1_554 S
C828 C834 1.379 . S
C828 N836 1.356 . S
C829 C828 1.364 1_556 S
C829 C835 1.362 . S
C830 C831 1.363 1_556 S
C830 C835 1.379 . S
C830 N837 1.356 . S
C831 C830 1.363 1_554 S
C831 C834 1.363 . S
N832 C834 1.356 . S
N832 H844 0.984 . S
N832 H845 0.985 . S
N833 C835 1.356 . S
N833 H838 0.984 . S
N833 H839 0.985 . S
C834 C828 1.379 . S
C834 C831 1.363 . S
C834 N832 1.356 . S
C835 C829 1.362 . S
C835 C830 1.379 . S
C835 N833 1.356 . S
N836 C828 1.356 . S
N836 H842 0.984 . S
N836 H843 0.984 . S
N837 C830 1.356 . S
N837 H840 0.984 . S
N837 H841 0.985 . S
H838 N833 0.984 . S
H839 N833 0.985 . S
H840 N837 0.984 . S
H841 N837 0.985 . S
H842 N836 0.984 . S
H843 N836 0.984 . S
H844 N832 0.984 . S
H845 N832 0.985 . S
C846 C847 1.363 . S
C846 C852 1.379 . S
C846 N854 1.356 . S
C847 C846 1.363 . S
C847 C853 1.363 . S
C848 C849 1.363 . S
C848 C853 1.379 . S
C848 N855 1.356 . S
C849 C848 1.363 . S
C849 C852 1.363 . S
N850 C852 1.356 . S
N850 H862 0.984 . S
N850 H863 0.985 . S
N851 C853 1.356 . S
N851 H856 0.984 . S
N851 H857 0.985 . S
C852 C846 1.379 . S
C852 C849 1.363 . S
C852 N850 1.356 . S
C853 C847 1.363 . S
C853 C848 1.379 . S
C853 N851 1.356 . S
N854 C846 1.356 . S
N854 H860 0.984 . S
N854 H861 0.984 . S
N855 C848 1.356 . S
N855 H858 0.984 . S
N855 H859 0.985 . S
H856 N851 0.984 . S
H857 N851 0.985 . S
H858 N855 0.984 . S
H859 N855 0.985 . S
H860 N854 0.984 . S
H861 N854 0.984 . S
H862 N850 0.984 . S
H863 N850 0.985 . S
C864 C865 1.363 . S
C864 C870 1.379 . S
C864 N872 1.356 . S
C865 C864 1.363 . S
C865 C871 1.363 . S
C866 C867 1.363 . S
C866 C871 1.379 . S
C866 N873 1.356 . S
C867 C866 1.363 . S
C867 C870 1.363 . S
N868 C870 1.356 . S
N868 H880 0.984 . S
N868 H881 0.985 . S
N869 C871 1.356 . S
N869 H874 0.984 . S
N869 H875 0.985 . S
C870 C864 1.379 . S
C870 C867 1.363 . S
C870 N868 1.356 . S
C871 C865 1.363 . S
C871 C866 1.379 . S
C871 N869 1.356 . S
N872 C864 1.356 . S
N872 H878 0.984 . S
N872 H879 0.984 . S
N873 C866 1.356 . S
N873 H876 0.984 . S
N873 H877 0.985 . S
H874 N869 0.984 . S
H875 N869 0.985 . S
H876 N873 0.984 . S
H877 N873 0.985 . S
H878 N872 0.984 . S
H879 N872 0.984 . S
H880 N868 0.984 . S
H881 N868 0.985 . S
C882 C883 1.363 . S
C882 C888 1.379 . S
C882 N890 1.356 . S
C883 C882 1.363 . S
C883 C889 1.363 . S
C884 C885 1.363 . S
C884 C889 1.379 . S
C884 N891 1.356 . S
C885 C884 1.363 . S
C885 C888 1.363 . S
N886 C888 1.356 . S
N886 H898 0.984 . S
N886 H899 0.985 . S
N887 C889 1.356 . S
N887 H892 0.984 . S
N887 H893 0.985 . S
C888 C882 1.379 . S
C888 C885 1.363 . S
C888 N886 1.356 . S
C889 C883 1.363 . S
C889 C884 1.379 . S
C889 N887 1.356 . S
N890 C882 1.356 . S
N890 H896 0.984 . S
N890 H897 0.984 . S
N891 C884 1.356 . S
N891 H894 0.984 . S
N891 H895 0.985 . S
H892 N887 0.984 . S
H893 N887 0.985 . S
H894 N891 0.984 . S
H895 N891 0.985 . S
H896 N890 0.984 . S
H897 N890 0.984 . S
H898 N886 0.984 . S
H899 N886 0.985 . S
C900 C901 1.364 1_556 S
C900 C906 1.379 . S
C900 N908 1.356 . S
C901 C900 1.364 1_554 S
C901 C907 1.362 . S
C902 C903 1.363 1_554 S
C902 C907 1.379 . S
C902 N909 1.356 . S
C903 C902 1.363 1_556 S
C903 C906 1.363 . S
N904 C906 1.356 . S
N904 H916 0.984 . S
N904 H917 0.985 . S
N905 C907 1.356 . S
N905 H910 0.984 . S
N905 H911 0.985 . S
C906 C900 1.379 . S
C906 C903 1.363 . S
C906 N904 1.356 . S
C907 C901 1.362 . S
C907 C902 1.379 . S
C907 N905 1.356 . S
N908 C900 1.356 . S
N908 H914 0.984 . S
N908 H915 0.984 . S
N909 C902 1.356 . S
N909 H912 0.984 . S
N909 H913 0.985 . S
H910 N905 0.984 . S
H911 N905 0.985 . S
H912 N909 0.984 . S
H913 N909 0.985 . S
H914 N908 0.984 . S
H915 N908 0.984 . S
H916 N904 0.984 . S
H917 N904 0.985 . S
C918 C919 1.363 . S
C918 C924 1.379 . S
C918 N926 1.356 . S
C919 C918 1.363 . S
C919 C925 1.363 1_556 S
C920 C921 1.362 . S
C920 C925 1.379 . S
C920 N927 1.356 . S
C921 C920 1.362 . S
C921 C924 1.364 1_554 S
N922 C924 1.356 . S
N922 H934 0.984 . S
N922 H935 0.985 . S
N923 C925 1.356 . S
N923 H928 0.984 . S
N923 H929 0.985 . S
C924 C918 1.379 . S
C924 C921 1.364 1_556 S
C924 N922 1.356 . S
C925 C919 1.363 1_554 S
C925 C920 1.379 . S
C925 N923 1.356 . S
N926 C918 1.356 . S
N926 H932 0.984 . S
N926 H933 0.984 . S
N927 C920 1.356 . S
N927 H930 0.984 . S
N927 H931 0.985 . S
H928 N923 0.984 . S
H929 N923 0.985 . S
H930 N927 0.984 . S
H931 N927 0.985 . S
H932 N926 0.984 . S
H933 N926 0.984 . S
H934 N922 0.984 . S
H935 N922 0.985 . S
C936 C937 1.364 1_556 S
C936 C942 1.379 . S
C936 N944 1.356 . S
C937 C936 1.364 1_554 S
C937 C943 1.363 . S
C938 C939 1.363 1_554 S
C938 C943 1.379 . S
C938 N945 1.356 . S
C939 C938 1.363 1_556 S
C939 C942 1.363 . S
N940 C942 1.356 . S
N940 H952 0.984 . S
N940 H953 0.985 . S
N941 C943 1.356 . S
N941 H946 0.984 . S
N941 H947 0.985 . S
C942 C936 1.379 . S
C942 C939 1.363 . S
C942 N940 1.356 . S
C943 C937 1.363 . S
C943 C938 1.379 . S
C943 N941 1.356 . S
N944 C936 1.356 . S
N944 H950 0.984 . S
N944 H951 0.984 . S
N945 C938 1.356 . S
N945 H948 0.983 1_554 S
N945 H949 0.985 . S
H946 N941 0.984 . S
H947 N941 0.985 . S
H948 N945 0.983 1_556 S
H949 N945 0.985 . S
H950 N944 0.984 . S
H951 N944 0.984 . S
H952 N940 0.984 . S
H953 N940 0.985 . S
C954 C955 1.363 . S
C954 C960 1.379 . S
C954 N962 1.356 . S
C955 C954 1.363 . S
C955 C961 1.363 . S
C956 C957 1.363 . S
C956 C961 1.379 . S
C956 N963 1.356 . S
C957 C956 1.363 . S
C957 C960 1.363 . S
N958 C960 1.356 . S
N958 H970 0.984 . S
N958 H971 0.985 . S
N959 C961 1.356 . S
N959 H964 0.984 . S
N959 H965 0.985 . S
C960 C954 1.379 . S
C960 C957 1.363 . S
C960 N958 1.356 . S
C961 C955 1.363 . S
C961 C956 1.379 . S
C961 N959 1.356 . S
N962 C954 1.356 . S
N962 H968 0.984 . S
N962 H969 0.984 . S
N963 C956 1.356 . S
N963 H966 0.984 . S
N963 H967 0.985 . S
H964 N959 0.984 . S
H965 N959 0.985 . S
H966 N963 0.984 . S
H967 N963 0.985 . S
H968 N962 0.984 . S
H969 N962 0.984 . S
H970 N958 0.984 . S
H971 N958 0.985 . S
C972 C973 1.363 . S
C972 C978 1.379 . S
C972 N980 1.356 . S
C973 C972 1.363 . S
C973 C979 1.363 . S
C974 C975 1.363 . S
C974 C979 1.379 . S
C974 N981 1.356 . S
C975 C974 1.363 . S
C975 C978 1.363 . S
N976 C978 1.356 . S
N976 H988 0.984 . S
N976 H989 0.985 . S
N977 C979 1.356 . S
N977 H982 0.984 . S
N977 H983 0.985 . S
C978 C972 1.379 . S
C978 C975 1.363 . S
C978 N976 1.356 . S
C979 C973 1.363 . S
C979 C974 1.379 . S
C979 N977 1.356 . S
N980 C972 1.356 . S
N980 H986 0.984 . S
N980 H987 0.984 . S
N981 C974 1.356 . S
N981 H984 0.984 . S
N981 H985 0.985 . S
H982 N977 0.984 . S
H983 N977 0.985 . S
H984 N981 0.984 . S
H985 N981 0.985 . S
H986 N980 0.984 . S
H987 N980 0.984 . S
H988 N976 0.984 . S
H989 N976 0.985 . S
C990 C991 1.363 . S
C990 C996 1.379 . S
C990 N998 1.356 . S
C991 C990 1.363 . S
C991 C997 1.363 . S
C992 C993 1.363 . S
C992 C997 1.379 . S
C992 N999 1.356 . S
C993 C992 1.363 . S
C993 C996 1.363 . S
N994 C996 1.356 . S
N994 H1006 0.984 . S
N994 H1007 0.985 . S
N995 C997 1.356 . S
N995 H1000 0.984 . S
N995 H1001 0.985 . S
C996 C990 1.379 . S
C996 C993 1.363 . S
C996 N994 1.356 . S
C997 C991 1.363 . S
C997 C992 1.379 . S
C997 N995 1.356 . S
N998 C990 1.356 . S
N998 H1004 0.984 . S
N998 H1005 0.984 . S
N999 C992 1.356 . S
N999 H1002 0.984 . S
N999 H1003 0.985 . S
H1000 N995 0.984 . S
H1001 N995 0.985 . S
H1002 N999 0.984 . S
H1003 N999 0.985 . S
H1004 N998 0.984 . S
H1005 N998 0.984 . S
H1006 N994 0.984 . S
H1007 N994 0.985 . S
C1008 C1009 1.363 . S
C1008 C1014 1.379 . S
C1008 N1016 1.356 . S
C1009 C1008 1.363 . S
C1009 C1015 1.363 . S
C1010 C1011 1.363 . S
C1010 C1015 1.379 . S
C1010 N1017 1.356 . S
C1011 C1010 1.363 . S
C1011 C1014 1.363 . S
N1012 C1014 1.356 . S
N1012 H1024 0.984 . S
N1012 H1025 0.985 . S
N1013 C1015 1.356 . S
N1013 H1018 0.984 . S
N1013 H1019 0.985 . S
C1014 C1008 1.379 . S
C1014 C1011 1.363 . S
C1014 N1012 1.356 . S
C1015 C1009 1.363 . S
C1015 C1010 1.379 . S
C1015 N1013 1.356 . S
N1016 C1008 1.356 . S
N1016 H1022 0.984 . S
N1016 H1023 0.984 . S
N1017 C1010 1.356 . S
N1017 H1020 0.984 . S
N1017 H1021 0.985 . S
H1018 N1013 0.984 . S
H1019 N1013 0.985 . S
H1020 N1017 0.984 . S
H1021 N1017 0.985 . S
H1022 N1016 0.984 . S
H1023 N1016 0.984 . S
H1024 N1012 0.984 . S
H1025 N1012 0.985 . S
C1026 C1027 1.363 . S
C1026 C1032 1.379 . S
C1026 N1034 1.356 . S
C1027 C1026 1.363 . S
C1027 C1033 1.363 . S
C1028 C1029 1.363 . S
C1028 C1033 1.379 . S
C1028 N1035 1.356 . S
C1029 C1028 1.363 . S
C1029 C1032 1.363 . S
N1030 C1032 1.356 . S
N1030 H1042 0.984 . S
N1030 H1043 0.985 . S
N1031 C1033 1.356 . S
N1031 H1036 0.984 . S
N1031 H1037 0.985 . S
C1032 C1026 1.379 . S
C1032 C1029 1.363 . S
C1032 N1030 1.356 . S
C1033 C1027 1.363 . S
C1033 C1028 1.379 . S
C1033 N1031 1.356 . S
N1034 C1026 1.356 . S
N1034 H1040 0.984 . S
N1034 H1041 0.984 . S
N1035 C1028 1.356 . S
N1035 H1038 0.984 . S
N1035 H1039 0.985 . S
H1036 N1031 0.984 . S
H1037 N1031 0.985 . S
H1038 N1035 0.984 . S
H1039 N1035 0.985 . S
H1040 N1034 0.984 . S
H1041 N1034 0.984 . S
H1042 N1030 0.984 . S
H1043 N1030 0.985 . S
C1044 C1045 1.363 . S
C1044 C1050 1.379 . S
C1044 N1052 1.356 . S
C1045 C1044 1.363 . S
C1045 C1051 1.363 . S
C1046 C1047 1.363 . S
C1046 C1051 1.379 . S
C1046 N1053 1.356 . S
C1047 C1046 1.363 . S
C1047 C1050 1.363 . S
N1048 C1050 1.356 . S
N1048 H1060 0.984 . S
N1048 H1061 0.985 . S
N1049 C1051 1.356 . S
N1049 H1054 0.984 . S
N1049 H1055 0.985 . S
C1050 C1044 1.379 . S
C1050 C1047 1.363 . S
C1050 N1048 1.356 . S
C1051 C1045 1.363 . S
C1051 C1046 1.379 . S
C1051 N1049 1.356 . S
N1052 C1044 1.356 . S
N1052 H1058 0.984 . S
N1052 H1059 0.984 . S
N1053 C1046 1.356 . S
N1053 H1056 0.984 . S
N1053 H1057 0.985 . S
H1054 N1049 0.984 . S
H1055 N1049 0.985 . S
H1056 N1053 0.984 . S
H1057 N1053 0.985 . S
H1058 N1052 0.984 . S
H1059 N1052 0.984 . S
H1060 N1048 0.984 . S
H1061 N1048 0.985 . S
C1062 C1063 1.363 . S
C1062 C1068 1.379 . S
C1062 N1070 1.356 . S
C1063 C1062 1.363 . S
C1063 C1069 1.363 . S
C1064 C1065 1.363 . S
C1064 C1069 1.379 . S
C1064 N1071 1.356 . S
C1065 C1064 1.363 . S
C1065 C1068 1.363 . S
N1066 C1068 1.356 . S
N1066 H1078 0.984 . S
N1066 H1079 0.985 . S
N1067 C1069 1.356 . S
N1067 H1072 0.984 . S
N1067 H1073 0.985 . S
C1068 C1062 1.379 . S
C1068 C1065 1.363 . S
C1068 N1066 1.356 . S
C1069 C1063 1.363 . S
C1069 C1064 1.379 . S
C1069 N1067 1.356 . S
N1070 C1062 1.356 . S
N1070 H1076 0.984 . S
N1070 H1077 0.984 . S
N1071 C1064 1.356 . S
N1071 H1074 0.984 . S
N1071 H1075 0.985 . S
H1072 N1067 0.984 . S
H1073 N1067 0.985 . S
H1074 N1071 0.984 . S
H1075 N1071 0.985 . S
H1076 N1070 0.984 . S
H1077 N1070 0.984 . S
H1078 N1066 0.984 . S
H1079 N1066 0.985 . S
C1080 C1081 1.363 . S
C1080 C1086 1.379 . S
C1080 N1088 1.356 . S
C1081 C1080 1.363 . S
C1081 C1087 1.363 . S
C1082 C1083 1.363 . S
C1082 C1087 1.379 . S
C1082 N1089 1.356 . S
C1083 C1082 1.363 . S
C1083 C1086 1.363 . S
N1084 C1086 1.356 . S
N1084 H1096 0.984 . S
N1084 H1097 0.985 . S
N1085 C1087 1.356 . S
N1085 H1090 0.984 . S
N1085 H1091 0.985 . S
C1086 C1080 1.379 . S
C1086 C1083 1.363 . S
C1086 N1084 1.356 . S
C1087 C1081 1.363 . S
C1087 C1082 1.379 . S
C1087 N1085 1.356 . S
N1088 C1080 1.356 . S
N1088 H1094 0.984 . S
N1088 H1095 0.984 . S
N1089 C1082 1.356 . S
N1089 H1092 0.984 . S
N1089 H1093 0.985 . S
H1090 N1085 0.984 . S
H1091 N1085 0.985 . S
H1092 N1089 0.984 . S
H1093 N1089 0.985 . S
H1094 N1088 0.984 . S
H1095 N1088 0.984 . S
H1096 N1084 0.984 . S
H1097 N1084 0.985 . S
C1098 C1099 1.363 . S
C1098 C1104 1.379 . S
C1098 N1106 1.356 . S
C1099 C1098 1.363 . S
C1099 C1105 1.363 . S
C1100 C1101 1.363 . S
C1100 C1105 1.379 . S
C1100 N1107 1.356 . S
C1101 C1100 1.363 . S
C1101 C1104 1.363 . S
N1102 C1104 1.356 . S
N1102 H1114 0.984 . S
N1102 H1115 0.985 . S
N1103 C1105 1.356 . S
N1103 H1108 0.984 . S
N1103 H1109 0.985 . S
C1104 C1098 1.379 . S
C1104 C1101 1.363 . S
C1104 N1102 1.356 . S
C1105 C1099 1.363 . S
C1105 C1100 1.379 . S
C1105 N1103 1.356 . S
N1106 C1098 1.356 . S
N1106 H1112 0.984 . S
N1106 H1113 0.984 . S
N1107 C1100 1.356 . S
N1107 H1110 0.984 . S
N1107 H1111 0.985 . S
H1108 N1103 0.984 . S
H1109 N1103 0.985 . S
H1110 N1107 0.984 . S
H1111 N1107 0.985 . S
H1112 N1106 0.984 . S
H1113 N1106 0.984 . S
H1114 N1102 0.984 . S
H1115 N1102 0.985 . S
C1116 C1117 1.363 . S
C1116 C1122 1.379 . S
C1116 N1124 1.356 . S
C1117 C1116 1.363 . S
C1117 C1123 1.363 . S
C1118 C1119 1.363 . S
C1118 C1123 1.379 . S
C1118 N1125 1.356 . S
C1119 C1118 1.363 . S
C1119 C1122 1.363 . S
N1120 C1122 1.356 . S
N1120 H1132 0.984 . S
N1120 H1133 0.985 . S
N1121 C1123 1.356 . S
N1121 H1126 0.984 . S
N1121 H1127 0.985 . S
C1122 C1116 1.379 . S
C1122 C1119 1.363 . S
C1122 N1120 1.356 . S
C1123 C1117 1.363 . S
C1123 C1118 1.379 . S
C1123 N1121 1.356 . S
N1124 C1116 1.356 . S
N1124 H1130 0.984 . S
N1124 H1131 0.984 . S
N1125 C1118 1.356 . S
N1125 H1128 0.984 . S
N1125 H1129 0.985 . S
H1126 N1121 0.984 . S
H1127 N1121 0.985 . S
H1128 N1125 0.984 . S
H1129 N1125 0.985 . S
H1130 N1124 0.984 . S
H1131 N1124 0.984 . S
H1132 N1120 0.984 . S
H1133 N1120 0.985 . S
C1134 C1135 1.363 . S
C1134 C1140 1.379 . S
C1134 N1142 1.356 . S
C1135 C1134 1.363 . S
C1135 C1141 1.363 . S
C1136 C1137 1.363 . S
C1136 C1141 1.379 . S
C1136 N1143 1.356 . S
C1137 C1136 1.363 . S
C1137 C1140 1.363 . S
N1138 C1140 1.356 . S
N1138 H1150 0.984 . S
N1138 H1151 0.985 . S
N1139 C1141 1.356 . S
N1139 H1144 0.984 . S
N1139 H1145 0.985 . S
C1140 C1134 1.379 . S
C1140 C1137 1.363 . S
C1140 N1138 1.356 . S
C1141 C1135 1.363 . S
C1141 C1136 1.379 . S
C1141 N1139 1.356 . S
N1142 C1134 1.356 . S
N1142 H1148 0.984 . S
N1142 H1149 0.984 . S
N1143 C1136 1.356 . S
N1143 H1146 0.984 . S
N1143 H1147 0.985 . S
H1144 N1139 0.984 . S
H1145 N1139 0.985 . S
H1146 N1143 0.984 . S
H1147 N1143 0.985 . S
H1148 N1142 0.984 . S
H1149 N1142 0.984 . S
H1150 N1138 0.984 . S
H1151 N1138 0.985 . S
C1152 C1153 1.363 . S
C1152 C1158 1.379 . S
C1152 N1160 1.356 . S
C1153 C1152 1.363 . S
C1153 C1159 1.363 . S
C1154 C1155 1.363 . S
C1154 C1159 1.379 . S
C1154 N1161 1.356 . S
C1155 C1154 1.363 . S
C1155 C1158 1.363 . S
N1156 C1158 1.356 . S
N1156 H1168 0.984 . S
N1156 H1169 0.985 . S
N1157 C1159 1.356 . S
N1157 H1162 0.984 . S
N1157 H1163 0.985 . S
C1158 C1152 1.379 . S
C1158 C1155 1.363 . S
C1158 N1156 1.356 . S
C1159 C1153 1.363 . S
C1159 C1154 1.379 . S
C1159 N1157 1.356 . S
N1160 C1152 1.356 . S
N1160 H1166 0.984 . S
N1160 H1167 0.984 . S
N1161 C1154 1.356 . S
N1161 H1164 0.984 . S
N1161 H1165 0.985 . S
H1162 N1157 0.984 . S
H1163 N1157 0.985 . S
H1164 N1161 0.984 . S
H1165 N1161 0.985 . S
H1166 N1160 0.984 . S
H1167 N1160 0.984 . S
H1168 N1156 0.984 . S
H1169 N1156 0.985 . S
C1170 C1171 1.363 . S
C1170 C1176 1.379 . S
C1170 N1178 1.356 . S
C1171 C1170 1.363 . S
C1171 C1177 1.363 . S
C1172 C1173 1.363 . S
C1172 C1177 1.379 . S
C1172 N1179 1.356 . S
C1173 C1172 1.363 . S
C1173 C1176 1.363 . S
N1174 C1176 1.356 . S
N1174 H1186 0.984 . S
N1174 H1187 0.985 . S
N1175 C1177 1.356 . S
N1175 H1180 0.984 . S
N1175 H1181 0.985 . S
C1176 C1170 1.379 . S
C1176 C1173 1.363 . S
C1176 N1174 1.356 . S
C1177 C1171 1.363 . S
C1177 C1172 1.379 . S
C1177 N1175 1.356 . S
N1178 C1170 1.356 . S
N1178 H1184 0.984 . S
N1178 H1185 0.984 . S
N1179 C1172 1.356 . S
N1179 H1182 0.984 . S
N1179 H1183 0.985 . S
H1180 N1175 0.984 . S
H1181 N1175 0.985 . S
H1182 N1179 0.984 . S
H1183 N1179 0.985 . S
H1184 N1178 0.984 . S
H1185 N1178 0.984 . S
H1186 N1174 0.984 . S
H1187 N1174 0.985 . S
C1188 C1189 1.363 . S
C1188 C1194 1.379 . S
C1188 N1196 1.356 . S
C1189 C1188 1.363 . S
C1189 C1195 1.363 . S
C1190 C1191 1.363 . S
C1190 C1195 1.379 . S
C1190 N1197 1.356 . S
C1191 C1190 1.363 . S
C1191 C1194 1.363 . S
N1192 C1194 1.356 . S
N1192 H1204 0.984 . S
N1192 H1205 0.985 . S
N1193 C1195 1.356 . S
N1193 H1198 0.984 . S
N1193 H1199 0.985 . S
C1194 C1188 1.379 . S
C1194 C1191 1.363 . S
C1194 N1192 1.356 . S
C1195 C1189 1.363 . S
C1195 C1190 1.379 . S
C1195 N1193 1.356 . S
N1196 C1188 1.356 . S
N1196 H1202 0.984 . S
N1196 H1203 0.984 . S
N1197 C1190 1.356 . S
N1197 H1200 0.984 . S
N1197 H1201 0.985 . S
H1198 N1193 0.984 . S
H1199 N1193 0.985 . S
H1200 N1197 0.984 . S
H1201 N1197 0.985 . S
H1202 N1196 0.984 . S
H1203 N1196 0.984 . S
H1204 N1192 0.984 . S
H1205 N1192 0.985 . S
C1206 C1207 1.363 . S
C1206 C1212 1.379 . S
C1206 N1214 1.356 . S
C1207 C1206 1.363 . S
C1207 C1213 1.363 . S
C1208 C1209 1.363 . S
C1208 C1213 1.379 . S
C1208 N1215 1.356 . S
C1209 C1208 1.363 . S
C1209 C1212 1.363 . S
N1210 C1212 1.356 . S
N1210 H1222 0.984 . S
N1210 H1223 0.985 . S
N1211 C1213 1.356 . S
N1211 H1216 0.984 . S
N1211 H1217 0.985 . S
C1212 C1206 1.379 . S
C1212 C1209 1.363 . S
C1212 N1210 1.356 . S
C1213 C1207 1.363 . S
C1213 C1208 1.379 . S
C1213 N1211 1.356 . S
N1214 C1206 1.356 . S
N1214 H1220 0.984 . S
N1214 H1221 0.984 . S
N1215 C1208 1.356 . S
N1215 H1218 0.984 . S
N1215 H1219 0.985 . S
H1216 N1211 0.984 . S
H1217 N1211 0.985 . S
H1218 N1215 0.984 . S
H1219 N1215 0.985 . S
H1220 N1214 0.984 . S
H1221 N1214 0.984 . S
H1222 N1210 0.984 . S
H1223 N1210 0.985 . S
C1224 C1225 1.363 . S
C1224 C1230 1.379 . S
C1224 N1232 1.356 . S
C1225 C1224 1.363 . S
C1225 C1231 1.363 . S
C1226 C1227 1.363 . S
C1226 C1231 1.379 . S
C1226 N1233 1.356 . S
C1227 C1226 1.363 . S
C1227 C1230 1.363 . S
N1228 C1230 1.356 . S
N1228 H1240 0.984 . S
N1228 H1241 0.985 . S
N1229 C1231 1.356 . S
N1229 H1234 0.984 . S
N1229 H1235 0.985 . S
C1230 C1224 1.379 . S
C1230 C1227 1.363 . S
C1230 N1228 1.356 . S
C1231 C1225 1.363 . S
C1231 C1226 1.379 . S
C1231 N1229 1.356 . S
N1232 C1224 1.356 . S
N1232 H1238 0.984 . S
N1232 H1239 0.984 . S
N1233 C1226 1.356 . S
N1233 H1236 0.984 . S
N1233 H1237 0.985 . S
H1234 N1229 0.984 . S
H1235 N1229 0.985 . S
H1236 N1233 0.984 . S
H1237 N1233 0.985 . S
H1238 N1232 0.984 . S
H1239 N1232 0.984 . S
H1240 N1228 0.984 . S
H1241 N1228 0.985 . S
C1242 C1243 1.363 . S
C1242 C1248 1.379 . S
C1242 N1250 1.356 . S
C1243 C1242 1.363 . S
C1243 C1249 1.363 . S
C1244 C1245 1.363 . S
C1244 C1249 1.379 . S
C1244 N1251 1.356 . S
C1245 C1244 1.363 . S
C1245 C1248 1.363 . S
N1246 C1248 1.356 . S
N1246 H1258 0.984 . S
N1246 H1259 0.985 . S
N1247 C1249 1.356 . S
N1247 H1252 0.984 . S
N1247 H1253 0.985 . S
C1248 C1242 1.379 . S
C1248 C1245 1.363 . S
C1248 N1246 1.356 . S
C1249 C1243 1.363 . S
C1249 C1244 1.379 . S
C1249 N1247 1.356 . S
N1250 C1242 1.356 . S
N1250 H1256 0.984 . S
N1250 H1257 0.984 . S
N1251 C1244 1.356 . S
N1251 H1254 0.984 . S
N1251 H1255 0.985 . S
H1252 N1247 0.984 . S
H1253 N1247 0.985 . S
H1254 N1251 0.984 . S
H1255 N1251 0.985 . S
H1256 N1250 0.984 . S
H1257 N1250 0.984 . S
H1258 N1246 0.984 . S
H1259 N1246 0.985 . S
C1260 C1261 1.363 . S
C1260 C1266 1.379 . S
C1260 N1268 1.356 . S
C1261 C1260 1.363 . S
C1261 C1267 1.363 . S
C1262 C1263 1.363 . S
C1262 C1267 1.379 . S
C1262 N1269 1.356 . S
C1263 C1262 1.363 . S
C1263 C1266 1.363 . S
N1264 C1266 1.356 . S
N1264 H1276 0.984 . S
N1264 H1277 0.985 . S
N1265 C1267 1.356 . S
N1265 H1270 0.984 . S
N1265 H1271 0.985 . S
C1266 C1260 1.379 . S
C1266 C1263 1.363 . S
C1266 N1264 1.356 . S
C1267 C1261 1.363 . S
C1267 C1262 1.379 . S
C1267 N1265 1.356 . S
N1268 C1260 1.356 . S
N1268 H1274 0.984 . S
N1268 H1275 0.984 . S
N1269 C1262 1.356 . S
N1269 H1272 0.984 . S
N1269 H1273 0.985 . S
H1270 N1265 0.984 . S
H1271 N1265 0.985 . S
H1272 N1269 0.984 . S
H1273 N1269 0.985 . S
H1274 N1268 0.984 . S
H1275 N1268 0.984 . S
H1276 N1264 0.984 . S
H1277 N1264 0.985 . S
C1278 C1279 1.363 . S
C1278 C1284 1.379 . S
C1278 N1286 1.356 . S
C1279 C1278 1.363 . S
C1279 C1285 1.363 . S
C1280 C1281 1.363 . S
C1280 C1285 1.379 . S
C1280 N1287 1.356 . S
C1281 C1280 1.363 . S
C1281 C1284 1.363 . S
N1282 C1284 1.356 . S
N1282 H1294 0.984 . S
N1282 H1295 0.985 . S
N1283 C1285 1.356 . S
N1283 H1288 0.984 . S
N1283 H1289 0.985 . S
C1284 C1278 1.379 . S
C1284 C1281 1.363 . S
C1284 N1282 1.356 . S
C1285 C1279 1.363 . S
C1285 C1280 1.379 . S
C1285 N1283 1.356 . S
N1286 C1278 1.356 . S
N1286 H1292 0.984 . S
N1286 H1293 0.984 . S
N1287 C1280 1.356 . S
N1287 H1290 0.984 . S
N1287 H1291 0.985 . S
H1288 N1283 0.984 . S
H1289 N1283 0.985 . S
H1290 N1287 0.984 . S
H1291 N1287 0.985 . S
H1292 N1286 0.984 . S
H1293 N1286 0.984 . S
H1294 N1282 0.984 . S
H1295 N1282 0.985 . S
C1296 C1297 1.363 . S
C1296 C1302 1.379 . S
C1296 N1304 1.356 . S
C1297 C1296 1.363 . S
C1297 C1303 1.363 . S
C1298 C1299 1.363 . S
C1298 C1303 1.379 . S
C1298 N1305 1.356 . S
C1299 C1298 1.363 . S
C1299 C1302 1.363 . S
N1300 C1302 1.356 . S
N1300 H1312 0.984 . S
N1300 H1313 0.985 . S
N1301 C1303 1.356 . S
N1301 H1306 0.984 . S
N1301 H1307 0.985 . S
C1302 C1296 1.379 . S
C1302 C1299 1.363 . S
C1302 N1300 1.356 . S
C1303 C1297 1.363 . S
C1303 C1298 1.379 . S
C1303 N1301 1.356 . S
N1304 C1296 1.356 . S
N1304 H1310 0.984 . S
N1304 H1311 0.984 . S
N1305 C1298 1.356 . S
N1305 H1308 0.984 . S
N1305 H1309 0.985 . S
H1306 N1301 0.984 . S
H1307 N1301 0.985 . S
H1308 N1305 0.984 . S
H1309 N1305 0.985 . S
H1310 N1304 0.984 . S
H1311 N1304 0.984 . S
H1312 N1300 0.984 . S
H1313 N1300 0.985 . S
C1314 C1315 1.363 . S
C1314 C1320 1.379 . S
C1314 N1322 1.356 . S
C1315 C1314 1.363 . S
C1315 C1321 1.363 . S
C1316 C1317 1.363 . S
C1316 C1321 1.379 . S
C1316 N1323 1.356 . S
C1317 C1316 1.363 . S
C1317 C1320 1.363 . S
N1318 C1320 1.356 . S
N1318 H1330 0.984 . S
N1318 H1331 0.985 . S
N1319 C1321 1.356 . S
N1319 H1324 0.984 . S
N1319 H1325 0.985 . S
C1320 C1314 1.379 . S
C1320 C1317 1.363 . S
C1320 N1318 1.356 . S
C1321 C1315 1.363 . S
C1321 C1316 1.379 . S
C1321 N1319 1.356 . S
N1322 C1314 1.356 . S
N1322 H1328 0.984 . S
N1322 H1329 0.984 . S
N1323 C1316 1.356 . S
N1323 H1326 0.984 . S
N1323 H1327 0.985 . S
H1324 N1319 0.984 . S
H1325 N1319 0.985 . S
H1326 N1323 0.984 . S
H1327 N1323 0.985 . S
H1328 N1322 0.984 . S
H1329 N1322 0.984 . S
H1330 N1318 0.984 . S
H1331 N1318 0.985 . S
C1332 C1333 1.363 . S
C1332 C1338 1.379 . S
C1332 N1340 1.356 . S
C1333 C1332 1.363 . S
C1333 C1339 1.363 . S
C1334 C1335 1.363 . S
C1334 C1339 1.379 . S
C1334 N1341 1.356 . S
C1335 C1334 1.363 . S
C1335 C1338 1.363 . S
N1336 C1338 1.356 . S
N1336 H1348 0.984 . S
N1336 H1349 0.985 . S
N1337 C1339 1.356 . S
N1337 H1342 0.984 . S
N1337 H1343 0.985 . S
C1338 C1332 1.379 . S
C1338 C1335 1.363 . S
C1338 N1336 1.356 . S
C1339 C1333 1.363 . S
C1339 C1334 1.379 . S
C1339 N1337 1.356 . S
N1340 C1332 1.356 . S
N1340 H1346 0.984 . S
N1340 H1347 0.984 . S
N1341 C1334 1.356 . S
N1341 H1344 0.984 . S
N1341 H1345 0.985 . S
H1342 N1337 0.984 . S
H1343 N1337 0.985 . S
H1344 N1341 0.984 . S
H1345 N1341 0.985 . S
H1346 N1340 0.984 . S
H1347 N1340 0.984 . S
H1348 N1336 0.984 . S
H1349 N1336 0.985 . S
C1350 C1351 1.363 . S
C1350 C1356 1.379 . S
C1350 N1358 1.356 . S
C1351 C1350 1.363 . S
C1351 C1357 1.363 . S
C1352 C1353 1.363 . S
C1352 C1357 1.379 . S
C1352 N1359 1.356 . S
C1353 C1352 1.363 . S
C1353 C1356 1.363 . S
N1354 C1356 1.356 . S
N1354 H1366 0.984 . S
N1354 H1367 0.985 . S
N1355 C1357 1.356 . S
N1355 H1360 0.984 . S
N1355 H1361 0.985 . S
C1356 C1350 1.379 . S
C1356 C1353 1.363 . S
C1356 N1354 1.356 . S
C1357 C1351 1.363 . S
C1357 C1352 1.379 . S
C1357 N1355 1.356 . S
N1358 C1350 1.356 . S
N1358 H1364 0.984 . S
N1358 H1365 0.984 . S
N1359 C1352 1.356 . S
N1359 H1362 0.984 . S
N1359 H1363 0.985 . S
H1360 N1355 0.984 . S
H1361 N1355 0.985 . S
H1362 N1359 0.984 . S
H1363 N1359 0.985 . S
H1364 N1358 0.984 . S
H1365 N1358 0.984 . S
H1366 N1354 0.984 . S
H1367 N1354 0.985 . S
C1368 C1369 1.363 . S
C1368 C1374 1.379 . S
C1368 N1376 1.356 . S
C1369 C1368 1.363 . S
C1369 C1375 1.363 . S
C1370 C1371 1.363 . S
C1370 C1375 1.379 . S
C1370 N1377 1.356 . S
C1371 C1370 1.363 . S
C1371 C1374 1.363 . S
N1372 C1374 1.356 . S
N1372 H1384 0.984 . S
N1372 H1385 0.985 . S
N1373 C1375 1.356 . S
N1373 H1378 0.984 . S
N1373 H1379 0.985 . S
C1374 C1368 1.379 . S
C1374 C1371 1.363 . S
C1374 N1372 1.356 . S
C1375 C1369 1.363 . S
C1375 C1370 1.379 . S
C1375 N1373 1.356 . S
N1376 C1368 1.356 . S
N1376 H1382 0.984 . S
N1376 H1383 0.984 . S
N1377 C1370 1.356 . S
N1377 H1380 0.984 . S
N1377 H1381 0.985 . S
H1378 N1373 0.984 . S
H1379 N1373 0.985 . S
H1380 N1377 0.984 . S
H1381 N1377 0.985 . S
H1382 N1376 0.984 . S
H1383 N1376 0.984 . S
H1384 N1372 0.984 . S
H1385 N1372 0.985 . S
C1386 C1387 1.363 . S
C1386 C1392 1.379 . S
C1386 N1394 1.356 . S
C1387 C1386 1.363 . S
C1387 C1393 1.363 . S
C1388 C1389 1.363 . S
C1388 C1393 1.379 . S
C1388 N1395 1.356 . S
C1389 C1388 1.363 . S
C1389 C1392 1.363 . S
N1390 C1392 1.356 . S
N1390 H1402 0.984 . S
N1390 H1403 0.985 . S
N1391 C1393 1.356 . S
N1391 H1396 0.984 . S
N1391 H1397 0.985 . S
C1392 C1386 1.379 . S
C1392 C1389 1.363 . S
C1392 N1390 1.356 . S
C1393 C1387 1.363 . S
C1393 C1388 1.379 . S
C1393 N1391 1.356 . S
N1394 C1386 1.356 . S
N1394 H1400 0.984 . S
N1394 H1401 0.984 . S
N1395 C1388 1.356 . S
N1395 H1398 0.984 . S
N1395 H1399 0.985 . S
H1396 N1391 0.984 . S
H1397 N1391 0.985 . S
H1398 N1395 0.984 . S
H1399 N1395 0.985 . S
H1400 N1394 0.984 . S
H1401 N1394 0.984 . S
H1402 N1390 0.984 . S
H1403 N1390 0.985 . S
C1404 C1405 1.363 . S
C1404 C1410 1.379 . S
C1404 N1412 1.356 . S
C1405 C1404 1.363 . S
C1405 C1411 1.363 . S
C1406 C1407 1.363 . S
C1406 C1411 1.379 . S
C1406 N1413 1.356 . S
C1407 C1406 1.363 . S
C1407 C1410 1.363 . S
N1408 C1410 1.356 . S
N1408 H1420 0.984 . S
N1408 H1421 0.985 . S
N1409 C1411 1.356 . S
N1409 H1414 0.984 . S
N1409 H1415 0.985 . S
C1410 C1404 1.379 . S
C1410 C1407 1.363 . S
C1410 N1408 1.356 . S
C1411 C1405 1.363 . S
C1411 C1406 1.379 . S
C1411 N1409 1.356 . S
N1412 C1404 1.356 . S
N1412 H1418 0.984 . S
N1412 H1419 0.984 . S
N1413 C1406 1.356 . S
N1413 H1416 0.984 . S
N1413 H1417 0.985 . S
H1414 N1409 0.984 . S
H1415 N1409 0.985 . S
H1416 N1413 0.984 . S
H1417 N1413 0.985 . S
H1418 N1412 0.984 . S
H1419 N1412 0.984 . S
H1420 N1408 0.984 . S
H1421 N1408 0.985 . S
C1422 C1423 1.363 . S
C1422 C1428 1.379 . S
C1422 N1430 1.356 . S
C1423 C1422 1.363 . S
C1423 C1429 1.363 . S
C1424 C1425 1.363 . S
C1424 C1429 1.379 . S
C1424 N1431 1.356 . S
C1425 C1424 1.363 . S
C1425 C1428 1.363 . S
N1426 C1428 1.356 . S
N1426 H1438 0.984 . S
N1426 H1439 0.985 . S
N1427 C1429 1.356 . S
N1427 H1432 0.984 . S
N1427 H1433 0.985 . S
C1428 C1422 1.379 . S
C1428 C1425 1.363 . S
C1428 N1426 1.356 . S
C1429 C1423 1.363 . S
C1429 C1424 1.379 . S
C1429 N1427 1.356 . S
N1430 C1422 1.356 . S
N1430 H1436 0.984 . S
N1430 H1437 0.984 . S
N1431 C1424 1.356 . S
N1431 H1434 0.984 . S
N1431 H1435 0.985 . S
H1432 N1427 0.984 . S
H1433 N1427 0.985 . S
H1434 N1431 0.984 . S
H1435 N1431 0.985 . S
H1436 N1430 0.984 . S
H1437 N1430 0.984 . S
H1438 N1426 0.984 . S
H1439 N1426 0.985 . S
C1440 C1441 1.363 . S
C1440 C1446 1.379 . S
C1440 N1448 1.356 . S
C1441 C1440 1.363 . S
C1441 C1447 1.363 . S
C1442 C1443 1.363 . S
C1442 C1447 1.379 . S
C1442 N1449 1.356 . S
C1443 C1442 1.363 . S
C1443 C1446 1.363 . S
N1444 C1446 1.356 . S
N1444 H1456 0.984 . S
N1444 H1457 0.985 . S
N1445 C1447 1.356 . S
N1445 H1450 0.984 . S
N1445 H1451 0.985 . S
C1446 C1440 1.379 . S
C1446 C1443 1.363 . S
C1446 N1444 1.356 . S
C1447 C1441 1.363 . S
C1447 C1442 1.379 . S
C1447 N1445 1.356 . S
N1448 C1440 1.356 . S
N1448 H1454 0.984 . S
N1448 H1455 0.984 . S
N1449 C1442 1.356 . S
N1449 H1452 0.984 . S
N1449 H1453 0.985 . S
H1450 N1445 0.984 . S
H1451 N1445 0.985 . S
H1452 N1449 0.984 . S
H1453 N1449 0.985 . S
H1454 N1448 0.984 . S
H1455 N1448 0.984 . S
H1456 N1444 0.984 . S
H1457 N1444 0.985 . S
C1458 C1459 1.363 . S
C1458 C1464 1.379 . S
C1458 N1466 1.356 . S
C1459 C1458 1.363 . S
C1459 C1465 1.363 1_545 S
C1460 C1461 1.363 . S
C1460 C1465 1.379 . S
C1460 N1467 1.356 . S
C1461 C1460 1.363 . S
C1461 C1464 1.363 1_565 S
N1462 C1464 1.356 . S
N1462 H1474 0.984 . S
N1462 H1475 0.985 . S
N1463 C1465 1.356 . S
N1463 H1468 0.984 . S
N1463 H1469 0.985 . S
C1464 C1458 1.379 . S
C1464 C1461 1.363 1_545 S
C1464 N1462 1.356 . S
C1465 C1459 1.363 1_565 S
C1465 C1460 1.379 . S
C1465 N1463 1.356 . S
N1466 C1458 1.356 . S
N1466 H1472 0.984 . S
N1466 H1473 0.984 . S
N1467 C1460 1.356 . S
N1467 H1470 0.984 . S
N1467 H1471 0.985 . S
H1468 N1463 0.984 . S
H1469 N1463 0.985 . S
H1470 N1467 0.984 . S
H1471 N1467 0.985 . S
H1472 N1466 0.984 . S
H1473 N1466 0.984 . S
H1474 N1462 0.984 . S
H1475 N1462 0.985 . S
C1476 C1477 1.363 . S
C1476 C1482 1.374 1_455 S
C1476 N1484 1.356 . S
C1477 C1476 1.363 . S
C1477 C1483 1.381 . S
C1478 C1479 1.363 . S
C1478 C1483 1.374 1_655 S
C1478 N1485 1.356 . S
C1479 C1478 1.363 . S
C1479 C1482 1.381 . S
N1480 C1482 1.348 . S
N1480 H1492 0.996 . S
N1480 H1493 0.985 . S
N1481 C1483 1.348 . S
N1481 H1486 0.984 . S
N1481 H1487 0.996 . S
C1482 C1476 1.374 1_655 S
C1482 C1479 1.381 . S
C1482 N1480 1.348 . S
C1483 C1477 1.381 . S
C1483 C1478 1.374 1_455 S
C1483 N1481 1.348 . S
N1484 C1476 1.356 . S
N1484 H1490 0.984 . S
N1484 H1491 0.984 . S
N1485 C1478 1.356 . S
N1485 H1488 0.984 . S
N1485 H1489 0.985 . S
H1486 N1481 0.984 . S
H1487 N1481 0.996 . S
H1488 N1485 0.984 . S
H1489 N1485 0.985 . S
H1490 N1484 0.984 . S
H1491 N1484 0.984 . S
H1492 N1480 0.996 . S
H1493 N1480 0.985 . S
C1494 C1495 1.363 . S
C1494 C1500 1.379 . S
C1494 N1502 1.356 . S
C1495 C1494 1.363 . S
C1495 C1501 1.363 . S
C1496 C1497 1.363 . S
C1496 C1501 1.379 . S
C1496 N1503 1.356 . S
C1497 C1496 1.363 . S
C1497 C1500 1.363 . S
N1498 C1500 1.356 . S
N1498 H1510 0.984 . S
N1498 H1511 0.985 . S
N1499 C1501 1.356 . S
N1499 H1504 0.984 . S
N1499 H1505 0.985 . S
C1500 C1494 1.379 . S
C1500 C1497 1.363 . S
C1500 N1498 1.356 . S
C1501 C1495 1.363 . S
C1501 C1496 1.379 . S
C1501 N1499 1.356 . S
N1502 C1494 1.356 . S
N1502 H1508 0.984 . S
N1502 H1509 0.984 . S
N1503 C1496 1.356 . S
N1503 H1506 0.984 . S
N1503 H1507 0.985 . S
H1504 N1499 0.984 . S
H1505 N1499 0.985 . S
H1506 N1503 0.984 . S
H1507 N1503 0.985 . S
H1508 N1502 0.984 . S
H1509 N1502 0.984 . S
H1510 N1498 0.984 . S
H1511 N1498 0.985 . S
C1512 C1513 1.363 1_565 S
C1512 C1518 1.379 . S
C1512 N1520 1.356 . S
C1513 C1512 1.363 1_545 S
C1513 C1519 1.363 . S
C1514 C1515 1.363 1_545 S
C1514 C1519 1.379 . S
C1514 N1521 1.356 . S
C1515 C1514 1.363 1_565 S
C1515 C1518 1.363 . S
N1516 C1518 1.356 . S
N1516 H1528 0.984 . S
N1516 H1529 0.985 . S
N1517 C1519 1.356 . S
N1517 H1522 0.984 . S
N1517 H1523 0.985 . S
C1518 C1512 1.379 . S
C1518 C1515 1.363 . S
C1518 N1516 1.356 . S
C1519 C1513 1.363 . S
C1519 C1514 1.379 . S
C1519 N1517 1.356 . S
N1520 C1512 1.356 . S
N1520 H1526 0.984 . S
N1520 H1527 0.984 . S
N1521 C1514 1.356 . S
N1521 H1524 0.984 . S
N1521 H1525 0.985 . S
H1522 N1517 0.984 . S
H1523 N1517 0.985 . S
H1524 N1521 0.984 . S
H1525 N1521 0.985 . S
H1526 N1520 0.984 . S
H1527 N1520 0.984 . S
H1528 N1516 0.984 . S
H1529 N1516 0.985 . S
C1530 C1531 1.363 1_455 S
C1530 C1536 1.379 . S
C1530 N1538 1.356 . S
C1531 C1530 1.363 1_655 S
C1531 C1537 1.363 . S
C1532 C1533 1.363 1_655 S
C1532 C1537 1.379 . S
C1532 N1539 1.356 . S
C1533 C1532 1.363 1_455 S
C1533 C1536 1.363 . S
N1534 C1536 1.356 . S
N1534 H1546 0.984 . S
N1534 H1547 0.985 . S
N1535 C1537 1.356 . S
N1535 H1540 0.984 . S
N1535 H1541 0.985 . S
C1536 C1530 1.379 . S
C1536 C1533 1.363 . S
C1536 N1534 1.356 . S
C1537 C1531 1.363 . S
C1537 C1532 1.379 . S
C1537 N1535 1.356 . S
N1538 C1530 1.356 . S
N1538 H1544 0.984 . S
N1538 H1545 0.984 . S
N1539 C1532 1.356 . S
N1539 H1542 0.984 . S
N1539 H1543 0.985 . S
H1540 N1535 0.984 . S
H1541 N1535 0.985 . S
H1542 N1539 0.984 . S
H1543 N1539 0.985 . S
H1544 N1538 0.984 . S
H1545 N1538 0.984 . S
H1546 N1534 0.984 . S
H1547 N1534 0.985 . S
C1548 C1549 1.363 . S
C1548 C1554 1.379 . S
C1548 N1556 1.356 . S
C1549 C1548 1.363 . S
C1549 C1555 1.363 . S
C1550 C1551 1.363 . S
C1550 C1555 1.379 . S
C1550 N1557 1.356 . S
C1551 C1550 1.363 . S
C1551 C1554 1.363 . S
N1552 C1554 1.356 . S
N1552 H1564 0.984 . S
N1552 H1565 0.985 . S
N1553 C1555 1.356 . S
N1553 H1558 0.984 . S
N1553 H1559 0.985 . S
C1554 C1548 1.379 . S
C1554 C1551 1.363 . S
C1554 N1552 1.356 . S
C1555 C1549 1.363 . S
C1555 C1550 1.379 . S
C1555 N1553 1.356 . S
N1556 C1548 1.356 . S
N1556 H1562 0.984 . S
N1556 H1563 0.984 . S
N1557 C1550 1.356 . S
N1557 H1560 0.984 . S
N1557 H1561 0.985 . S
H1558 N1553 0.984 . S
H1559 N1553 0.985 . S
H1560 N1557 0.984 . S
H1561 N1557 0.985 . S
H1562 N1556 0.984 . S
H1563 N1556 0.984 . S
H1564 N1552 0.984 . S
H1565 N1552 0.985 . S
C1566 C1567 1.363 . S
C1566 C1572 1.379 . S
C1566 N1574 1.356 . S
C1567 C1566 1.363 . S
C1567 C1573 1.363 . S
C1568 C1569 1.363 . S
C1568 C1573 1.379 . S
C1568 N1575 1.356 . S
C1569 C1568 1.363 . S
C1569 C1572 1.363 . S
N1570 C1572 1.356 . S
N1570 H1582 0.984 . S
N1570 H1583 0.985 . S
N1571 C1573 1.356 . S
N1571 H1576 0.984 . S
N1571 H1577 0.985 . S
C1572 C1566 1.379 . S
C1572 C1569 1.363 . S
C1572 N1570 1.356 . S
C1573 C1567 1.363 . S
C1573 C1568 1.379 . S
C1573 N1571 1.356 . S
N1574 C1566 1.356 . S
N1574 H1580 0.984 . S
N1574 H1581 0.984 . S
N1575 C1568 1.356 . S
N1575 H1578 0.984 . S
N1575 H1579 0.985 . S
H1576 N1571 0.984 . S
H1577 N1571 0.985 . S
H1578 N1575 0.984 . S
H1579 N1575 0.985 . S
H1580 N1574 0.984 . S
H1581 N1574 0.984 . S
H1582 N1570 0.984 . S
H1583 N1570 0.985 . S
C1584 C1585 1.363 . S
C1584 C1590 1.379 . S
C1584 N1592 1.356 . S
C1585 C1584 1.363 . S
C1585 C1591 1.363 . S
C1586 C1587 1.363 . S
C1586 C1591 1.379 . S
C1586 N1593 1.356 . S
C1587 C1586 1.363 . S
C1587 C1590 1.363 . S
N1588 C1590 1.356 . S
N1588 H1600 0.984 . S
N1588 H1601 0.985 . S
N1589 C1591 1.356 . S
N1589 H1594 0.984 . S
N1589 H1595 0.985 . S
C1590 C1584 1.379 . S
C1590 C1587 1.363 . S
C1590 N1588 1.356 . S
C1591 C1585 1.363 . S
C1591 C1586 1.379 . S
C1591 N1589 1.356 . S
N1592 C1584 1.356 . S
N1592 H1598 0.984 . S
N1592 H1599 0.984 . S
N1593 C1586 1.356 . S
N1593 H1596 0.984 . S
N1593 H1597 0.985 . S
H1594 N1589 0.984 . S
H1595 N1589 0.985 . S
H1596 N1593 0.984 . S
H1597 N1593 0.985 . S
H1598 N1592 0.984 . S
H1599 N1592 0.984 . S
H1600 N1588 0.984 . S
H1601 N1588 0.985 . S
C1602 C1603 1.363 . S
C1602 C1608 1.379 . S
C1602 N1610 1.356 . S
C1603 C1602 1.363 . S
C1603 C1609 1.363 . S
C1604 C1605 1.363 . S
C1604 C1609 1.379 . S
C1604 N1611 1.356 . S
C1605 C1604 1.363 . S
C1605 C1608 1.363 . S
N1606 C1608 1.356 . S
N1606 H1618 0.984 . S
N1606 H1619 0.985 1_554 S
N1607 C1609 1.356 . S
N1607 H1612 0.984 . S
N1607 H1613 0.985 . S
C1608 C1602 1.379 . S
C1608 C1605 1.363 . S
C1608 N1606 1.356 . S
C1609 C1603 1.363 . S
C1609 C1604 1.379 . S
C1609 N1607 1.356 . S
N1610 C1602 1.356 . S
N1610 H1616 0.984 . S
N1610 H1617 0.984 . S
N1611 C1604 1.356 . S
N1611 H1614 0.984 1_554 S
N1611 H1615 0.985 . S
H1612 N1607 0.984 . S
H1613 N1607 0.985 . S
H1614 N1611 0.984 1_556 S
H1615 N1611 0.985 . S
H1616 N1610 0.984 . S
H1617 N1610 0.984 . S
H1618 N1606 0.984 . S
H1619 N1606 0.985 1_556 S
C1620 C1621 1.363 . S
C1620 C1626 1.379 . S
C1620 N1628 1.356 . S
C1621 C1620 1.363 . S
C1621 C1627 1.363 . S
C1622 C1623 1.363 . S
C1622 C1627 1.379 . S
C1622 N1629 1.356 . S
C1623 C1622 1.363 . S
C1623 C1626 1.363 . S
N1624 C1626 1.356 . S
N1624 H1636 0.984 . S
N1624 H1637 0.985 1_554 S
N1625 C1627 1.356 . S
N1625 H1630 0.984 . S
N1625 H1631 0.985 . S
C1626 C1620 1.379 . S
C1626 C1623 1.363 . S
C1626 N1624 1.356 . S
C1627 C1621 1.363 . S
C1627 C1622 1.379 . S
C1627 N1625 1.356 . S
N1628 C1620 1.356 . S
N1628 H1634 0.984 . S
N1628 H1635 0.984 . S
N1629 C1622 1.356 . S
N1629 H1632 0.984 1_554 S
N1629 H1633 0.985 . S
H1630 N1625 0.984 . S
H1631 N1625 0.985 . S
H1632 N1629 0.984 1_556 S
H1633 N1629 0.985 . S
H1634 N1628 0.984 . S
H1635 N1628 0.984 . S
H1636 N1624 0.984 . S
H1637 N1624 0.985 1_556 S
C1638 C1639 1.363 . S
C1638 C1644 1.379 . S
C1638 N1646 1.356 . S
C1639 C1638 1.363 . S
C1639 C1645 1.363 . S
C1640 C1641 1.363 . S
C1640 C1645 1.379 . S
C1640 N1647 1.356 . S
C1641 C1640 1.363 . S
C1641 C1644 1.363 . S
N1642 C1644 1.356 . S
N1642 H1654 0.984 . S
N1642 H1655 0.985 1_554 S
N1643 C1645 1.356 . S
N1643 H1648 0.984 . S
N1643 H1649 0.985 . S
C1644 C1638 1.379 . S
C1644 C1641 1.363 . S
C1644 N1642 1.356 . S
C1645 C1639 1.363 . S
C1645 C1640 1.379 . S
C1645 N1643 1.356 . S
N1646 C1638 1.356 . S
N1646 H1652 0.984 . S
N1646 H1653 0.984 . S
N1647 C1640 1.356 . S
N1647 H1650 0.984 1_554 S
N1647 H1651 0.985 . S
H1648 N1643 0.984 . S
H1649 N1643 0.985 . S
H1650 N1647 0.984 1_556 S
H1651 N1647 0.985 . S
H1652 N1646 0.984 . S
H1653 N1646 0.984 . S
H1654 N1642 0.984 . S
H1655 N1642 0.985 1_556 S
C1656 C1657 1.363 . S
C1656 C1662 1.379 . S
C1656 N1664 1.356 . S
C1657 C1656 1.363 . S
C1657 C1663 1.363 . S
C1658 C1659 1.363 . S
C1658 C1663 1.379 . S
C1658 N1665 1.356 . S
C1659 C1658 1.363 . S
C1659 C1662 1.363 . S
N1660 C1662 1.356 . S
N1660 H1672 0.984 . S
N1660 H1673 0.985 . S
N1661 C1663 1.356 . S
N1661 H1666 0.984 1_556 S
N1661 H1667 0.985 . S
C1662 C1656 1.379 . S
C1662 C1659 1.363 . S
C1662 N1660 1.356 . S
C1663 C1657 1.363 . S
C1663 C1658 1.379 . S
C1663 N1661 1.356 . S
N1664 C1656 1.356 . S
N1664 H1670 0.984 . S
N1664 H1671 0.984 1_556 S
N1665 C1658 1.356 . S
N1665 H1668 0.984 . S
N1665 H1669 0.985 . S
H1666 N1661 0.984 1_554 S
H1667 N1661 0.985 . S
H1668 N1665 0.984 . S
H1669 N1665 0.985 . S
H1670 N1664 0.984 . S
H1671 N1664 0.984 1_554 S
H1672 N1660 0.984 . S
H1673 N1660 0.985 . S
C1674 C1675 1.363 . S
C1674 C1680 1.379 . S
C1674 N1682 1.356 . S
C1675 C1674 1.363 . S
C1675 C1681 1.363 . S
C1676 C1677 1.363 . S
C1676 C1681 1.379 . S
C1676 N1683 1.356 . S
C1677 C1676 1.363 . S
C1677 C1680 1.363 . S
N1678 C1680 1.356 . S
N1678 H1690 0.984 . S
N1678 H1691 0.985 . S
N1679 C1681 1.356 . S
N1679 H1684 0.984 1_556 S
N1679 H1685 0.985 . S
C1680 C1674 1.379 . S
C1680 C1677 1.363 . S
C1680 N1678 1.356 . S
C1681 C1675 1.363 . S
C1681 C1676 1.379 . S
C1681 N1679 1.356 . S
N1682 C1674 1.356 . S
N1682 H1688 0.984 . S
N1682 H1689 0.984 1_556 S
N1683 C1676 1.356 . S
N1683 H1686 0.984 . S
N1683 H1687 0.985 . S
H1684 N1679 0.984 1_554 S
H1685 N1679 0.985 . S
H1686 N1683 0.984 . S
H1687 N1683 0.985 . S
H1688 N1682 0.984 . S
H1689 N1682 0.984 1_554 S
H1690 N1678 0.984 . S
H1691 N1678 0.985 . S
C1692 C1693 1.363 . S
C1692 C1698 1.379 . S
C1692 N1700 1.356 . S
C1693 C1692 1.363 . S
C1693 C1699 1.363 . S
C1694 C1695 1.363 . S
C1694 C1699 1.379 . S
C1694 N1701 1.356 . S
C1695 C1694 1.363 . S
C1695 C1698 1.363 . S
N1696 C1698 1.356 . S
N1696 H1708 0.984 . S
N1696 H1709 0.985 . S
N1697 C1699 1.356 . S
N1697 H1702 0.984 1_556 S
N1697 H1703 0.985 . S
C1698 C1692 1.379 . S
C1698 C1695 1.363 . S
C1698 N1696 1.356 . S
C1699 C1693 1.363 . S
C1699 C1694 1.379 . S
C1699 N1697 1.356 . S
N1700 C1692 1.356 . S
N1700 H1706 0.984 . S
N1700 H1707 0.984 1_556 S
N1701 C1694 1.356 . S
N1701 H1704 0.984 . S
N1701 H1705 0.985 . S
H1702 N1697 0.984 1_554 S
H1703 N1697 0.985 . S
H1704 N1701 0.984 . S
H1705 N1701 0.985 . S
H1706 N1700 0.984 . S
H1707 N1700 0.984 1_554 S
H1708 N1696 0.984 . S
H1709 N1696 0.985 . S
C1710 C1711 1.363 . S
C1710 C1716 1.379 . S
C1710 N1718 1.356 . S
C1711 C1710 1.363 . S
C1711 C1717 1.363 . S
C1712 C1713 1.363 . S
C1712 C1717 1.379 . S
C1712 N1719 1.356 . S
C1713 C1712 1.363 . S
C1713 C1716 1.363 . S
N1714 C1716 1.356 . S
N1714 H1726 0.984 . S
N1714 H1727 0.985 . S
N1715 C1717 1.356 . S
N1715 H1720 0.984 . S
N1715 H1721 0.985 . S
C1716 C1710 1.379 . S
C1716 C1713 1.363 . S
C1716 N1714 1.356 . S
C1717 C1711 1.363 . S
C1717 C1712 1.379 . S
C1717 N1715 1.356 . S
N1718 C1710 1.356 . S
N1718 H1724 0.984 . S
N1718 H1725 0.984 . S
N1719 C1712 1.356 . S
N1719 H1722 0.984 . S
N1719 H1723 0.985 . S
H1720 N1715 0.984 . S
H1721 N1715 0.985 . S
H1722 N1719 0.984 . S
H1723 N1719 0.985 . S
H1724 N1718 0.984 . S
H1725 N1718 0.984 . S
H1726 N1714 0.984 . S
H1727 N1714 0.985 . S
C1728 C1729 1.363 . S
C1728 C1734 1.379 . S
C1728 N1736 1.356 . S
C1729 C1728 1.363 . S
C1729 C1735 1.363 . S
C1730 C1731 1.363 . S
C1730 C1735 1.379 . S
C1730 N1737 1.356 . S
C1731 C1730 1.363 . S
C1731 C1734 1.363 . S
N1732 C1734 1.356 . S
N1732 H1744 0.984 . S
N1732 H1745 0.985 . S
N1733 C1735 1.356 . S
N1733 H1738 0.984 . S
N1733 H1739 0.985 . S
C1734 C1728 1.379 . S
C1734 C1731 1.363 . S
C1734 N1732 1.356 . S
C1735 C1729 1.363 . S
C1735 C1730 1.379 . S
C1735 N1733 1.356 . S
N1736 C1728 1.356 . S
N1736 H1742 0.984 . S
N1736 H1743 0.984 . S
N1737 C1730 1.356 . S
N1737 H1740 0.984 . S
N1737 H1741 0.985 . S
H1738 N1733 0.984 . S
H1739 N1733 0.985 . S
H1740 N1737 0.984 . S
H1741 N1737 0.985 . S
H1742 N1736 0.984 . S
H1743 N1736 0.984 . S
H1744 N1732 0.984 . S
H1745 N1732 0.985 . S
C1746 C1747 1.363 . S
C1746 C1752 1.379 . S
C1746 N1754 1.356 . S
C1747 C1746 1.363 . S
C1747 C1753 1.363 . S
C1748 C1749 1.363 . S
C1748 C1753 1.379 . S
C1748 N1755 1.356 . S
C1749 C1748 1.363 . S
C1749 C1752 1.363 . S
N1750 C1752 1.356 . S
N1750 H1762 0.984 . S
N1750 H1763 0.985 . S
N1751 C1753 1.356 . S
N1751 H1756 0.984 . S
N1751 H1757 0.985 . S
C1752 C1746 1.379 . S
C1752 C1749 1.363 . S
C1752 N1750 1.356 . S
C1753 C1747 1.363 . S
C1753 C1748 1.379 . S
C1753 N1751 1.356 . S
N1754 C1746 1.356 . S
N1754 H1760 0.984 . S
N1754 H1761 0.984 . S
N1755 C1748 1.356 . S
N1755 H1758 0.984 . S
N1755 H1759 0.985 . S
H1756 N1751 0.984 . S
H1757 N1751 0.985 . S
H1758 N1755 0.984 . S
H1759 N1755 0.985 . S
H1760 N1754 0.984 . S
H1761 N1754 0.984 . S
H1762 N1750 0.984 . S
H1763 N1750 0.985 . S
C469 C208 1.386 . S
C471 C0 1.386 . S
C487 C221 1.386 . S
C489 C13 1.386 . S
C505 C26 1.386 . S
C507 C195 1.386 . S
C523 C338 1.386 . S
C525 C39 1.386 . S
C541 C312 1.386 . S
C543 C52 1.386 . S
C559 C65 1.386 . S
C561 C325 1.386 . S
C577 C442 1.386 . S
C579 C78 1.386 . S
C595 C455 1.386 . S
C597 C91 1.386 . S
C613 C429 1.386 . S
C615 C104 1.386 . S
C631 C260 1.386 . S
C633 C117 1.386 . S
C649 C130 1.386 . S
C651 C234 1.386 . S
C667 C247 1.386 . S
C669 C143 1.386 . S
C685 C364 1.386 . S
C687 C156 1.386 . S
C703 C169 1.386 . S
C705 C377 1.386 . S
C721 C351 1.386 . S
C723 C182 1.386 . S
C739 C416 1.386 . S
C741 C273 1.386 . S
C757 C390 1.386 . S
C759 C286 1.386 . S
C775 C299 1.386 . S
C777 C403 1.386 . S
C793 C101 1.365 . S
C795 C8 1.367 . S
C811 C114 1.365 . S
C813 C21 1.367 . S
C829 C88 1.365 . S
C831 C34 1.367 . S
C847 C47 1.367 . S
C849 C153 1.365 . S
C865 C127 1.365 . S
C867 C60 1.367 . S
C883 C73 1.367 . S
C885 C140 1.365 . S
C901 C23 1.365 . S
C903 C86 1.367 . S
C919 C99 1.367 . S
C921 C36 1.365 . S
C937 C10 1.365 . S
C939 C112 1.367 . S
C955 C75 1.365 . S
C957 C125 1.367 . S
C973 C49 1.365 . S
C975 C138 1.367 . S
C991 C151 1.367 . S
C993 C62 1.365 . S
C1009 C164 1.367 . S
C1011 C257 1.365 . S
C1027 C270 1.365 . S
C1029 C177 1.367 . S
C1045 C244 1.365 . S
C1047 C190 1.367 . S
C1063 C203 1.367 . S
C1065 C309 1.365 . S
C1081 C283 1.365 . S
C1083 C216 1.367 . S
C1099 C229 1.367 . S
C1101 C296 1.365 . S
C1117 C242 1.367 . S
C1119 C179 1.365 . S
C1135 C255 1.367 . S
C1137 C192 1.365 . S
C1153 C166 1.365 . S
C1155 C268 1.367 . S
C1171 C231 1.365 . S
C1173 C281 1.367 . S
C1189 C205 1.365 . S
C1191 C294 1.367 . S
C1207 C307 1.367 . S
C1209 C218 1.365 . S
C1225 C413 1.365 . S
C1227 C320 1.367 . S
C1243 C333 1.367 . S
C1245 C426 1.365 . S
C1261 C346 1.367 . S
C1263 C400 1.365 . S
C1279 C465 1.365 . S
C1281 C359 1.367 . S
C1297 C372 1.367 . S
C1299 C439 1.365 . S
C1315 C452 1.365 . S
C1317 C385 1.367 . S
C1333 C335 1.365 . S
C1335 C398 1.367 . S
C1351 C348 1.365 . S
C1353 C411 1.367 . S
C1369 C424 1.367 . S
C1371 C322 1.365 . S
C1387 C437 1.367 . S
C1389 C387 1.365 . S
C1405 C361 1.365 . S
C1407 C450 1.367 . S
C1423 C374 1.365 . S
C1425 C463 1.367 . S
C1441 C5 1.374 . S
C1443 C44 1.374 . S
C1459 C18 1.374 . S
C1461 C57 1.374 . S
C1477 C70 1.374 . S
C1479 C31 1.374 . S
C1495 C83 1.374 . S
C1497 C122 1.374 . S
C1513 C135 1.374 . S
C1515 C96 1.374 . S
C1531 C148 1.374 . S
C1533 C109 1.374 . S
C1549 C161 1.374 . S
C1551 C200 1.374 . S
C1567 C174 1.374 . S
C1569 C213 1.374 . S
C1585 C226 1.374 . S
C1587 C187 1.374 . S
C1603 C239 1.374 . S
C1605 C278 1.374 1_554 S
C1621 C252 1.374 . S
C1623 C291 1.374 1_554 S
C1639 C265 1.374 . S
C1641 C304 1.374 1_554 S
C1657 C356 1.374 1_556 S
C1659 C317 1.374 . S
C1675 C369 1.374 1_556 S
C1677 C330 1.374 . S
C1693 C382 1.374 1_556 S
C1695 C343 1.374 . S
C1711 C395 1.374 . S
C1713 C434 1.374 . S
C1729 C447 1.374 . S
C1731 C408 1.374 . S
C1747 C460 1.374 . S
C1749 C421 1.374 . S
