# Generated by pormake.
# Topology rhr-a, (3)-cn, num edge types: 1
# Building blocks:
#     Node 0, Type 0, BuildingBlock: OLANEW_clean_sbu_2, # of connection points: 3
#     Node 1, Type 0, BuildingBlock: OLANEW_clean_sbu_2, # of connection points: 3
#     Node 2, Type 0, BuildingBlock: OLANEW_clean_sbu_2, # of connection points: 3
#     Node 3, Type 0, BuildingBlock: OLANEW_clean_sbu_2, # of connection points: 3
#     Node 4, Type 0, BuildingBlock: OLANEW_clean_sbu_2, # of connection points: 3
#     Node 5, Type 0, BuildingBlock: OLANEW_clean_sbu_2, # of connection points: 3
#     Node 6, Type 0, BuildingBlock: OLANEW_clean_sbu_2, # of connection points: 3
#     Node 7, Type 0, BuildingBlock: OLANEW_clean_sbu_2, # of connection points: 3
#     Node 8, Type 0, BuildingBlock: OLANEW_clean_sbu_2, # of connection points: 3
#     Node 9, Type 0, BuildingBlock: OLANEW_clean_sbu_2, # of connection points: 3
#     Node 10, Type 0, BuildingBlock: OLANEW_clean_sbu_2, # of connection points: 3
#     Node 11, Type 0, BuildingBlock: OLANEW_clean_sbu_2, # of connection points: 3
#     Node 12, Type 0, BuildingBlock: OLANEW_clean_sbu_2, # of connection points: 3
#     Node 13, Type 0, BuildingBlock: OLANEW_clean_sbu_2, # of connection points: 3
#     Node 14, Type 0, BuildingBlock: OLANEW_clean_sbu_2, # of connection points: 3
#     Node 15, Type 0, BuildingBlock: OLANEW_clean_sbu_2, # of connection points: 3
#     Node 16, Type 0, BuildingBlock: OLANEW_clean_sbu_2, # of connection points: 3
#     Node 17, Type 0, BuildingBlock: OLANEW_clean_sbu_2, # of connection points: 3
#     Node 18, Type 0, BuildingBlock: OLANEW_clean_sbu_2, # of connection points: 3
#     Node 19, Type 0, BuildingBlock: OLANEW_clean_sbu_2, # of connection points: 3
#     Node 20, Type 0, BuildingBlock: OLANEW_clean_sbu_2, # of connection points: 3
#     Node 21, Type 0, BuildingBlock: OLANEW_clean_sbu_2, # of connection points: 3
#     Node 22, Type 0, BuildingBlock: OLANEW_clean_sbu_2, # of connection points: 3
#     Node 23, Type 0, BuildingBlock: OLANEW_clean_sbu_2, # of connection points: 3
#     Node 24, Type 0, BuildingBlock: OLANEW_clean_sbu_2, # of connection points: 3
#     Node 25, Type 0, BuildingBlock: OLANEW_clean_sbu_2, # of connection points: 3
#     Node 26, Type 0, BuildingBlock: OLANEW_clean_sbu_2, # of connection points: 3
#     Node 27, Type 0, BuildingBlock: OLANEW_clean_sbu_2, # of connection points: 3
#     Node 28, Type 0, BuildingBlock: OLANEW_clean_sbu_2, # of connection points: 3
#     Node 29, Type 0, BuildingBlock: OLANEW_clean_sbu_2, # of connection points: 3
#     Node 30, Type 0, BuildingBlock: OLANEW_clean_sbu_2, # of connection points: 3
#     Node 31, Type 0, BuildingBlock: OLANEW_clean_sbu_2, # of connection points: 3
#     Node 32, Type 0, BuildingBlock: OLANEW_clean_sbu_2, # of connection points: 3
#     Node 33, Type 0, BuildingBlock: OLANEW_clean_sbu_2, # of connection points: 3
#     Node 34, Type 0, BuildingBlock: OLANEW_clean_sbu_2, # of connection points: 3
#     Node 35, Type 0, BuildingBlock: OLANEW_clean_sbu_2, # of connection points: 3
#     Node 36, Type 0, BuildingBlock: OLANEW_clean_sbu_2, # of connection points: 3
#     Node 37, Type 0, BuildingBlock: OLANEW_clean_sbu_2, # of connection points: 3
#     Node 38, Type 0, BuildingBlock: OLANEW_clean_sbu_2, # of connection points: 3
#     Node 39, Type 0, BuildingBlock: OLANEW_clean_sbu_2, # of connection points: 3
#     Node 40, Type 0, BuildingBlock: OLANEW_clean_sbu_2, # of connection points: 3
#     Node 41, Type 0, BuildingBlock: OLANEW_clean_sbu_2, # of connection points: 3
#     Node 42, Type 0, BuildingBlock: OLANEW_clean_sbu_2, # of connection points: 3
#     Node 43, Type 0, BuildingBlock: OLANEW_clean_sbu_2, # of connection points: 3
#     Node 44, Type 0, BuildingBlock: OLANEW_clean_sbu_2, # of connection points: 3
#     Node 45, Type 0, BuildingBlock: OLANEW_clean_sbu_2, # of connection points: 3
#     Node 46, Type 0, BuildingBlock: OLANEW_clean_sbu_2, # of connection points: 3
#     Node 47, Type 0, BuildingBlock: OLANEW_clean_sbu_2, # of connection points: 3
#     Node 48, Type 0, BuildingBlock: OLANEW_clean_sbu_2, # of connection points: 3
#     Node 49, Type 0, BuildingBlock: OLANEW_clean_sbu_2, # of connection points: 3
#     Node 50, Type 0, BuildingBlock: OLANEW_clean_sbu_2, # of connection points: 3
#     Node 51, Type 0, BuildingBlock: OLANEW_clean_sbu_2, # of connection points: 3
#     Node 52, Type 0, BuildingBlock: OLANEW_clean_sbu_2, # of connection points: 3
#     Node 53, Type 0, BuildingBlock: OLANEW_clean_sbu_2, # of connection points: 3
#     Node 54, Type 0, BuildingBlock: OLANEW_clean_sbu_2, # of connection points: 3
#     Node 55, Type 0, BuildingBlock: OLANEW_clean_sbu_2, # of connection points: 3
#     Node 56, Type 0, BuildingBlock: OLANEW_clean_sbu_2, # of connection points: 3
#     Node 57, Type 0, BuildingBlock: OLANEW_clean_sbu_2, # of connection points: 3
#     Node 58, Type 0, BuildingBlock: OLANEW_clean_sbu_2, # of connection points: 3
#     Node 59, Type 0, BuildingBlock: OLANEW_clean_sbu_2, # of connection points: 3
#     Node 60, Type 0, BuildingBlock: OLANEW_clean_sbu_2, # of connection points: 3
#     Node 61, Type 0, BuildingBlock: OLANEW_clean_sbu_2, # of connection points: 3
#     Node 62, Type 0, BuildingBlock: OLANEW_clean_sbu_2, # of connection points: 3
#     Node 63, Type 0, BuildingBlock: OLANEW_clean_sbu_2, # of connection points: 3
#     Node 64, Type 0, BuildingBlock: OLANEW_clean_sbu_2, # of connection points: 3
#     Node 65, Type 0, BuildingBlock: OLANEW_clean_sbu_2, # of connection points: 3
#     Node 66, Type 0, BuildingBlock: OLANEW_clean_sbu_2, # of connection points: 3
#     Node 67, Type 0, BuildingBlock: OLANEW_clean_sbu_2, # of connection points: 3
#     Node 68, Type 0, BuildingBlock: OLANEW_clean_sbu_2, # of connection points: 3
#     Node 69, Type 0, BuildingBlock: OLANEW_clean_sbu_2, # of connection points: 3
#     Node 70, Type 0, BuildingBlock: OLANEW_clean_sbu_2, # of connection points: 3
#     Node 71, Type 0, BuildingBlock: OLANEW_clean_sbu_2, # of connection points: 3
#     Node 72, Type 0, BuildingBlock: OLANEW_clean_sbu_2, # of connection points: 3
#     Node 73, Type 0, BuildingBlock: OLANEW_clean_sbu_2, # of connection points: 3
#     Node 74, Type 0, BuildingBlock: OLANEW_clean_sbu_2, # of connection points: 3
#     Node 75, Type 0, BuildingBlock: OLANEW_clean_sbu_2, # of connection points: 3
#     Node 76, Type 0, BuildingBlock: OLANEW_clean_sbu_2, # of connection points: 3
#     Node 77, Type 0, BuildingBlock: OLANEW_clean_sbu_2, # of connection points: 3
#     Node 78, Type 0, BuildingBlock: OLANEW_clean_sbu_2, # of connection points: 3
#     Node 79, Type 0, BuildingBlock: OLANEW_clean_sbu_2, # of connection points: 3
#     Node 80, Type 0, BuildingBlock: OLANEW_clean_sbu_2, # of connection points: 3
#     Node 81, Type 0, BuildingBlock: OLANEW_clean_sbu_2, # of connection points: 3
#     Node 82, Type 0, BuildingBlock: OLANEW_clean_sbu_2, # of connection points: 3
#     Node 83, Type 0, BuildingBlock: OLANEW_clean_sbu_2, # of connection points: 3
#     Node 84, Type 0, BuildingBlock: OLANEW_clean_sbu_2, # of connection points: 3
#     Node 85, Type 0, BuildingBlock: OLANEW_clean_sbu_2, # of connection points: 3
#     Node 86, Type 0, BuildingBlock: OLANEW_clean_sbu_2, # of connection points: 3
#     Node 87, Type 0, BuildingBlock: OLANEW_clean_sbu_2, # of connection points: 3
#     Node 88, Type 0, BuildingBlock: OLANEW_clean_sbu_2, # of connection points: 3
#     Node 89, Type 0, BuildingBlock: OLANEW_clean_sbu_2, # of connection points: 3
#     Node 90, Type 0, BuildingBlock: OLANEW_clean_sbu_2, # of connection points: 3
#     Node 91, Type 0, BuildingBlock: OLANEW_clean_sbu_2, # of connection points: 3
#     Node 92, Type 0, BuildingBlock: OLANEW_clean_sbu_2, # of connection points: 3
#     Node 93, Type 0, BuildingBlock: OLANEW_clean_sbu_2, # of connection points: 3
#     Node 94, Type 0, BuildingBlock: OLANEW_clean_sbu_2, # of connection points: 3
#     Node 95, Type 0, BuildingBlock: OLANEW_clean_sbu_2, # of connection points: 3
#     Edge 96, Type (0, 0), None
#     Edge 97, Type (0, 0), None
#     Edge 98, Type (0, 0), None
#     Edge 99, Type (0, 0), None
#     Edge 100, Type (0, 0), None
#     Edge 101, Type (0, 0), None
#     Edge 102, Type (0, 0), None
#     Edge 103, Type (0, 0), None
#     Edge 104, Type (0, 0), None
#     Edge 105, Type (0, 0), None
#     Edge 106, Type (0, 0), None
#     Edge 107, Type (0, 0), None
#     Edge 108, Type (0, 0), None
#     Edge 109, Type (0, 0), None
#     Edge 110, Type (0, 0), None
#     Edge 111, Type (0, 0), None
#     Edge 112, Type (0, 0), None
#     Edge 113, Type (0, 0), None
#     Edge 114, Type (0, 0), None
#     Edge 115, Type (0, 0), None
#     Edge 116, Type (0, 0), None
#     Edge 117, Type (0, 0), None
#     Edge 118, Type (0, 0), None
#     Edge 119, Type (0, 0), None
#     Edge 120, Type (0, 0), None
#     Edge 121, Type (0, 0), None
#     Edge 122, Type (0, 0), None
#     Edge 123, Type (0, 0), None
#     Edge 124, Type (0, 0), None
#     Edge 125, Type (0, 0), None
#     Edge 126, Type (0, 0), None
#     Edge 127, Type (0, 0), None
#     Edge 128, Type (0, 0), None
#     Edge 129, Type (0, 0), None
#     Edge 130, Type (0, 0), None
#     Edge 131, Type (0, 0), None
#     Edge 132, Type (0, 0), None
#     Edge 133, Type (0, 0), None
#     Edge 134, Type (0, 0), None
#     Edge 135, Type (0, 0), None
#     Edge 136, Type (0, 0), None
#     Edge 137, Type (0, 0), None
#     Edge 138, Type (0, 0), None
#     Edge 139, Type (0, 0), None
#     Edge 140, Type (0, 0), None
#     Edge 141, Type (0, 0), None
#     Edge 142, Type (0, 0), None
#     Edge 143, Type (0, 0), None
#     Edge 144, Type (0, 0), None
#     Edge 145, Type (0, 0), None
#     Edge 146, Type (0, 0), None
#     Edge 147, Type (0, 0), None
#     Edge 148, Type (0, 0), None
#     Edge 149, Type (0, 0), None
#     Edge 150, Type (0, 0), None
#     Edge 151, Type (0, 0), None
#     Edge 152, Type (0, 0), None
#     Edge 153, Type (0, 0), None
#     Edge 154, Type (0, 0), None
#     Edge 155, Type (0, 0), None
#     Edge 156, Type (0, 0), None
#     Edge 157, Type (0, 0), None
#     Edge 158, Type (0, 0), None
#     Edge 159, Type (0, 0), None
#     Edge 160, Type (0, 0), None
#     Edge 161, Type (0, 0), None
#     Edge 162, Type (0, 0), None
#     Edge 163, Type (0, 0), None
#     Edge 164, Type (0, 0), None
#     Edge 165, Type (0, 0), None
#     Edge 166, Type (0, 0), None
#     Edge 167, Type (0, 0), None
#     Edge 168, Type (0, 0), None
#     Edge 169, Type (0, 0), None
#     Edge 170, Type (0, 0), None
#     Edge 171, Type (0, 0), None
#     Edge 172, Type (0, 0), None
#     Edge 173, Type (0, 0), None
#     Edge 174, Type (0, 0), None
#     Edge 175, Type (0, 0), None
#     Edge 176, Type (0, 0), None
#     Edge 177, Type (0, 0), None
#     Edge 178, Type (0, 0), None
#     Edge 179, Type (0, 0), None
#     Edge 180, Type (0, 0), None
#     Edge 181, Type (0, 0), None
#     Edge 182, Type (0, 0), None
#     Edge 183, Type (0, 0), None
#     Edge 184, Type (0, 0), None
#     Edge 185, Type (0, 0), None
#     Edge 186, Type (0, 0), None
#     Edge 187, Type (0, 0), None
#     Edge 188, Type (0, 0), None
#     Edge 189, Type (0, 0), None
#     Edge 190, Type (0, 0), None
#     Edge 191, Type (0, 0), None
#     Edge 192, Type (0, 0), None
#     Edge 193, Type (0, 0), None
#     Edge 194, Type (0, 0), None
#     Edge 195, Type (0, 0), None
#     Edge 196, Type (0, 0), None
#     Edge 197, Type (0, 0), None
#     Edge 198, Type (0, 0), None
#     Edge 199, Type (0, 0), None
#     Edge 200, Type (0, 0), None
#     Edge 201, Type (0, 0), None
#     Edge 202, Type (0, 0), None
#     Edge 203, Type (0, 0), None
#     Edge 204, Type (0, 0), None
#     Edge 205, Type (0, 0), None
#     Edge 206, Type (0, 0), None
#     Edge 207, Type (0, 0), None
#     Edge 208, Type (0, 0), None
#     Edge 209, Type (0, 0), None
#     Edge 210, Type (0, 0), None
#     Edge 211, Type (0, 0), None
#     Edge 212, Type (0, 0), None
#     Edge 213, Type (0, 0), None
#     Edge 214, Type (0, 0), None
#     Edge 215, Type (0, 0), None
#     Edge 216, Type (0, 0), None
#     Edge 217, Type (0, 0), None
#     Edge 218, Type (0, 0), None
#     Edge 219, Type (0, 0), None
#     Edge 220, Type (0, 0), None
#     Edge 221, Type (0, 0), None
#     Edge 222, Type (0, 0), None
#     Edge 223, Type (0, 0), None
#     Edge 224, Type (0, 0), None
#     Edge 225, Type (0, 0), None
#     Edge 226, Type (0, 0), None
#     Edge 227, Type (0, 0), None
#     Edge 228, Type (0, 0), None
#     Edge 229, Type (0, 0), None
#     Edge 230, Type (0, 0), None
#     Edge 231, Type (0, 0), None
#     Edge 232, Type (0, 0), None
#     Edge 233, Type (0, 0), None
#     Edge 234, Type (0, 0), None
#     Edge 235, Type (0, 0), None
#     Edge 236, Type (0, 0), None
#     Edge 237, Type (0, 0), None
#     Edge 238, Type (0, 0), None
#     Edge 239, Type (0, 0), None
# Relax obj value: 0.005
# Max RMSD: 0.028
# Mean RMSD: 0.028
data_MOF--net-rhr-a--node1-OLANEW_clean_sbu_2--edge1-none
_symmetry_space_group_name_H-M    P1
_symmetry_Int_Tables_number       1
_symmetry_cell_setting            triclinic
loop_
_symmetry_equiv_pos_as_xyz
'x, y, z'
_cell_length_a     65.885003
_cell_length_b     70.346445
_cell_length_c     60.953242
_cell_angle_alpha  90.523976
_cell_angle_beta   90.584841
_cell_angle_gamma 90.452075
loop_
_atom_site_label
_atom_site_type_symbol
_atom_site_fract_x
_atom_site_fract_y
_atom_site_fract_z
_atom_type_partial_charge
O0 O 0.00601 0.26803 0.38209 0.0
Cd1 Cd 0.03106 0.24532 0.36879 0.0
O2 O -0.01195 0.27472 0.35225 0.0
Cd3 Cd 0.00912 0.26251 0.32848 0.0
O4 O 0.03008 0.2853 0.32041 0.0
C5 C 0.02213 0.29889 0.30996 0.0
O6 O 0.00548 0.29545 0.29853 0.0
C7 C -0.0088 0.27627 0.37283 0.0
C8 C 0.06117 0.23991 0.40141 0.0
O9 O 0.04241 0.24127 0.40604 0.0
O10 O 0.06616 0.24105 0.38126 0.0
O11 O 0.74434 0.0129 0.33849 0.0
Cd12 Cd 0.74778 0.04595 0.33226 0.0
O13 O 0.72625 0.00457 0.30897 0.0
Cd14 Cd 0.72131 0.03133 0.29183 0.0
O15 O 0.69269 0.04087 0.30595 0.0
C16 C 0.67606 0.03295 0.30017 0.0
O17 O 0.67588 0.02061 0.28387 0.0
C18 C 0.73507 0.00048 0.32701 0.0
C19 C 0.76351 0.06498 0.36943 0.0
O20 O 0.76008 0.04718 0.37032 0.0
O21 O 0.75979 0.07342 0.35147 0.0
O22 O 0.9852 0.72967 0.33776 0.0
Cd23 Cd 0.94955 0.73324 0.33322 0.0
O24 O -0.01018 0.71017 0.30941 0.0
Cd25 Cd 0.96069 0.70817 0.29213 0.0
O26 O 0.94804 0.68273 0.3074 0.0
C27 C 0.95453 0.66641 0.30198 0.0
O28 O 0.96699 0.66479 0.28539 0.0
C29 C -0.00362 0.71883 0.32654 0.0
C30 C 0.93184 0.75208 0.36887 0.0
O31 O 0.94876 0.74369 0.37142 0.0
O32 O 0.92371 0.75195 0.34982 0.0
O33 O 0.26313 0.98126 0.40095 0.0
Cd34 Cd 0.27019 0.94812 0.39786 0.0
O35 O 0.27341 0.97925 0.36712 0.0
Cd36 Cd 0.28279 0.96337 0.33832 0.0
O37 O 0.31189 0.95269 0.34915 0.0
C38 C 0.32596 0.96356 0.34278 0.0
O39 O 0.3216 0.97732 0.32915 0.0
C40 C 0.26804 -0.0107 0.38338 0.0
C41 C 0.23985 0.92538 0.41449 0.0
O42 O 0.2464 0.93979 0.42538 0.0
O43 O 0.24688 0.92222 0.39534 0.0
O44 O 0.01163 0.70039 0.57776 0.0
Cd45 Cd 0.04637 0.6905 0.58158 0.0
O46 O 0.01396 0.68982 0.61109 0.0
Cd47 Cd 0.0289 0.67974 0.64062 0.0
O48 O 0.03867 0.65187 0.62999 0.0
C49 C 0.02647 0.63939 0.63686 0.0
O50 O 0.01232 0.64442 0.65071 0.0
C51 C 0.00302 0.69551 0.59526 0.0
C52 C 0.07607 0.71422 0.56536 0.0
O53 O 0.06164 0.70819 0.55287 0.0
O54 O 0.07581 0.70995 0.58572 0.0
O55 O 0.22931 0.00629 0.64043 0.0
Cd56 Cd 0.22791 0.03986 0.64522 0.0
O57 O 0.24992 0.00067 0.66865 0.0
Cd58 Cd 0.2537 0.02765 0.68621 0.0
O59 O 0.28168 0.03783 0.67111 0.0
C60 C 0.29861 0.03066 0.67655 0.0
O61 O 0.29947 0.01885 0.6931 0.0
C62 C 0.24028 -0.00486 0.65151 0.0
C63 C 0.20925 0.05799 0.6096 0.0
O64 O 0.21707 0.04162 0.60695 0.0
O65 O 0.20983 0.06543 0.62874 0.0
O66 O 0.94511 0.25104 0.63917 0.0
Cd67 Cd 0.90982 0.2504 0.64627 0.0
O68 O 0.95491 0.26788 0.66852 0.0
Cd69 Cd 0.92738 0.27455 0.68677 0.0
O70 O 0.91914 0.30209 0.67295 0.0
C71 C 0.92877 0.31708 0.67866 0.0
O72 O 0.94212 0.31636 0.69478 0.0
C73 C 0.95879 0.25924 0.65059 0.0
C74 C 0.88406 0.2401 0.6111 0.0
O75 O 0.90277 0.24326 0.60723 0.0
O76 O 0.87807 0.24163 0.63081 0.0
O77 O 0.71975 0.95542 0.59491 0.0
Cd78 Cd 0.74225 0.93072 0.6087 0.0
O79 O 0.71322 0.97252 0.62469 0.0
Cd80 Cd 0.72489 0.95223 0.6487 0.0
O81 O 0.69933 0.93396 0.65654 0.0
C82 C 0.68525 0.94215 0.66691 0.0
O83 O 0.68981 0.95748 0.67844 0.0
C84 C 0.71163 0.96968 0.60408 0.0
C85 C 0.74673 0.9023 0.57613 0.0
O86 O 0.74636 0.91993 0.5715 0.0
O87 O 0.745 0.89768 0.59625 0.0
O88 O 0.37027 0.02041 0.26931 0.0
Cd89 Cd 0.35908 0.04491 0.24384 0.0
O90 O 0.34231 0.00337 0.27442 0.0
Cd91 Cd 0.32095 0.02345 0.25977 0.0
O92 O 0.31168 0.04195 0.28647 0.0
C93 C 0.30107 0.03387 0.30094 0.0
O94 O 0.29073 0.01853 0.29529 0.0
C95 C 0.36122 0.00623 0.27758 0.0
C96 C 0.38939 0.07337 0.24094 0.0
O97 O 0.39369 0.05576 0.24192 0.0
O98 O 0.37067 0.07795 0.2413 0.0
O99 O 0.97185 0.39157 0.27689 0.0
Cd100 Cd 0.93652 0.39072 0.28493 0.0
O101 O 0.96755 0.36175 0.28527 0.0
Cd102 Cd 0.94874 0.33741 0.2933 0.0
O103 O 0.93829 0.3454 0.32563 0.0
C104 C 0.94949 0.33808 0.34018 0.0
O105 O 0.96319 0.32564 0.33428 0.0
C106 C 0.97929 0.37546 0.28065 0.0
C107 C 0.9132 0.40932 0.25422 0.0
O108 O 0.92936 0.41707 0.26195 0.0
O109 O 0.90856 0.39247 0.26016 0.0
O110 O 0.59429 0.9661 0.28049 0.0
Cd111 Cd 0.60527 0.93608 0.26733 0.0
O112 O 0.62415 0.97946 0.27319 0.0
Cd113 Cd 0.64391 0.95779 0.2587 0.0
O114 O 0.65397 0.94204 0.28704 0.0
C115 C 0.66937 0.94828 0.29749 0.0
O116 O 0.68128 0.9608 0.2881 0.0
C117 C 0.60624 0.98026 0.2809 0.0
C118 C 0.57639 0.91449 0.24441 0.0
O119 O 0.57068 0.92849 0.25615 0.0
O120 O 0.5953 0.91113 0.24307 0.0
O121 O 0.01386 0.58423 0.27769 0.0
Cd122 Cd 0.04663 0.59176 0.26385 0.0
O123 O 0.00306 0.61382 0.27332 0.0
Cd124 Cd 0.02759 0.62952 0.2573 0.0
O125 O 0.04717 0.63755 0.28458 0.0
C126 C 0.04223 0.65211 0.2956 0.0
O127 O 0.0293 0.66414 0.287 0.0
C128 C 0.00053 0.59689 0.28018 0.0
C129 C 0.06496 0.5648 0.23711 0.0
O130 O 0.0516 0.55954 0.25083 0.0
O131 O 0.06892 0.58249 0.23546 0.0
O132 O 0.38238 0.96931 0.70029 0.0
Cd133 Cd 0.37206 0.93922 0.71385 0.0
O134 O 0.35156 0.98127 0.70491 0.0
Cd135 Cd 0.33246 0.95991 0.72098 0.0
O136 O 0.32283 0.94212 0.69366 0.0
C137 C 0.30769 0.94762 0.68252 0.0
O138 O 0.29559 0.96043 0.69103 0.0
C139 C 0.36972 0.98258 0.69798 0.0
C140 C 0.39944 0.92007 0.74044 0.0
O141 O 0.40599 0.93226 0.72679 0.0
O142 O 0.38033 0.91761 0.74208 0.0
O143 O 0.00533 0.38824 0.69816 0.0
Cd144 Cd 0.03678 0.3759 0.71129 0.0
O145 O -0.01111 0.36135 0.70519 0.0
Cd146 Cd 0.01203 0.34265 0.71917 0.0
O147 O 0.02768 0.33149 0.69086 0.0
C148 C 0.01949 0.3176 0.6807 0.0
O149 O 0.00523 0.30773 0.69045 0.0
C150 C -0.01065 0.37817 0.69757 0.0
C151 C 0.06195 0.40163 0.73381 0.0
O152 O 0.04738 0.40781 0.72204 0.0
O153 O 0.06422 0.38373 0.73535 0.0
O154 O 0.58987 -0.00494 0.69945 0.0
Cd155 Cd 0.59327 0.02825 0.69213 0.0
O156 O 0.62193 -0.00304 0.69116 0.0
Cd157 Cd 0.64926 0.01296 0.68369 0.0
O158 O 0.64173 0.02367 0.65148 0.0
C159 C 0.64868 0.01273 0.63686 0.0
O160 O 0.6608 -0.00111 0.64268 0.0
C161 C 0.60644 0.98694 0.69547 0.0
C162 C 0.57526 0.05119 0.72316 0.0
O163 O 0.56584 0.03669 0.71534 0.0
O164 O 0.59351 0.05436 0.71717 0.0
O165 O 0.96324 0.60205 0.71088 0.0
Cd166 Cd 0.93797 0.61413 0.73643 0.0
O167 O 0.98317 0.62707 0.70552 0.0
Cd168 Cd 0.96325 0.64837 0.72022 0.0
O169 O 0.94408 0.65819 0.69353 0.0
C170 C 0.95337 0.66754 0.67901 0.0
O171 O 0.97039 0.67622 0.68462 0.0
C172 C 0.97888 0.60956 0.70247 0.0
C173 C 0.9057 0.58765 0.73938 0.0
O174 O 0.92417 0.58248 0.73843 0.0
O175 O 0.90202 0.60545 0.73896 0.0
O176 O 0.27921 0.37346 -0.00165 0.0
Cd177 Cd 0.25383 0.3616 0.02393 0.0
O178 O 0.28529 0.34847 0.97708 0.0
Cd179 Cd 0.27045 0.32727 -0.00228 0.0
O180 O 0.2939 0.31746 0.02008 0.0
C181 C 0.30792 0.30813 0.01097 0.0
O182 O 0.30386 0.2995 -0.00778 0.0
C183 C 0.2879 0.36596 0.98195 0.0
C184 C 0.24921 0.38805 0.05863 0.0
O185 O 0.25129 0.39324 0.0388 0.0
O186 O 0.24924 0.37024 0.06256 0.0
O187 O 0.29668 0.5861 0.95611 0.0
Cd188 Cd 0.28499 0.59917 0.92251 0.0
O189 O 0.29057 0.61366 0.97284 0.0
Cd190 Cd 0.27885 0.63333 0.94804 0.0
O191 O 0.30634 0.64425 0.93342 0.0
C192 C 0.3153 0.65805 0.94297 0.0
O193 O 0.30547 0.66795 0.95778 0.0
C194 C 0.29717 0.59665 0.97305 0.0
C195 C 0.27077 0.57597 0.88827 0.0
O196 O 0.27953 0.56824 0.90467 0.0
O197 O 0.26861 0.59393 0.88847 0.0
O198 O 0.40598 0.27563 0.95536 0.0
Cd199 Cd 0.40502 0.28583 0.91777 0.0
O200 O 0.37538 0.28617 0.95031 0.0
Cd201 Cd 0.34913 0.29635 0.93234 0.0
O202 O 0.35971 0.32427 0.92285 0.0
C203 C 0.35234 0.33671 0.93547 0.0
O204 O 0.3384 0.33162 0.94954 0.0
C205 C 0.38912 0.28042 0.9633 0.0
C206 C 0.42231 0.26231 0.88683 0.0
O207 O 0.43276 0.26833 0.90331 0.0
O208 O 0.40346 0.2665 0.88564 0.0
O209 O 0.68409 0.39251 0.97584 0.0
Cd210 Cd 0.69945 0.38497 0.94159 0.0
O211 O 0.68733 0.36301 0.98802 0.0
Cd212 Cd 0.70357 0.34742 0.96244 0.0
O213 O 0.67987 0.33951 0.93922 0.0
C214 C 0.66926 0.325 0.94369 0.0
O215 O 0.67616 0.31295 0.95828 0.0
C216 C 0.68088 0.37997 -0.00984 0.0
C217 C 0.72596 0.41182 0.92434 0.0
O218 O 0.71222 0.41711 0.93761 0.0
O219 O 0.72763 0.39414 0.92004 0.0
O220 O 0.59023 0.7087 0.97953 0.0
Cd221 Cd 0.60426 0.73157 0.95367 0.0
O222 O 0.61649 0.70189 0.00097 0.0
Cd223 Cd 0.63995 0.71424 0.9801 0.0
O224 O 0.64905 0.6916 0.95793 0.0
C225 C 0.65817 0.67799 0.96715 0.0
O226 O 0.66756 0.68138 0.98591 0.0
C227 C 0.59772 0.70036 -0.00392 0.0
C228 C 0.57625 0.73703 0.91895 0.0
O229 O 0.57065 0.73562 0.93883 0.0
O230 O 0.59521 0.73592 0.91499 0.0
O231 O 0.68593 0.58449 0.02288 0.0
Cd232 Cd 0.67543 0.58579 0.06064 0.0
O233 O 0.67684 0.61393 0.02731 0.0
Cd234 Cd 0.66804 0.63865 0.04636 0.0
O235 O 0.63759 0.6307 0.05573 0.0
C236 C 0.62488 0.63836 0.04299 0.0
O237 O 0.63127 0.65099 0.02887 0.0
C238 C 0.68196 0.60046 0.01463 0.0
C239 C 0.69916 0.56779 0.09164 0.0
O240 O 0.6921 0.55854 0.07504 0.0
O241 O 0.69602 0.58569 0.09293 0.0
O242 O 0.34803 0.72436 0.026 0.0
Cd243 Cd 0.33886 0.72469 0.06348 0.0
O244 O 0.32178 0.70729 0.01337 0.0
Cd245 Cd 0.3025 0.70076 0.04141 0.0
O246 O 0.31466 0.67319 0.05118 0.0
C247 C 0.31012 0.65822 0.04035 0.0
O248 O 0.29621 0.65894 0.02478 0.0
C249 C 0.33857 0.71599 0.01047 0.0
C250 C 0.36935 0.735 0.09391 0.0
O251 O 0.37438 0.73172 0.07409 0.0
O252 O 0.35068 0.73358 0.09882 0.0
O253 O 0.62597 0.2473 0.0014 0.0
Cd254 Cd 0.62736 0.24381 0.04016 0.0
O255 O 0.65238 0.26693 -0.00129 0.0
Cd256 Cd 0.66618 0.26887 0.03136 0.0
O257 O 0.65112 0.29426 0.04401 0.0
C258 C 0.65659 0.3106 0.03752 0.0
O259 O 0.67282 0.31228 0.02532 0.0
C260 C 0.63712 0.25824 -0.00971 0.0
C261 C 0.59335 0.22454 0.05641 0.0
O262 O 0.59209 0.23322 0.03819 0.0
O263 O 0.61041 0.22457 0.06645 0.0
O264 O 0.97315 0.7135 0.5942 0.0
Cd265 Cd 0.93775 0.71095 0.60265 0.0
O266 O 0.97007 0.68343 0.60207 0.0
Cd267 Cd 0.9511 0.65907 0.60998 0.0
O268 O 0.94112 0.66767 0.64228 0.0
C269 C 0.95215 0.65999 0.65673 0.0
O270 O 0.96525 0.64705 0.65069 0.0
C271 C 0.98124 0.69758 0.59747 0.0
C272 C 0.91572 0.73201 0.5732 0.0
O273 O 0.9276 0.74003 0.58725 0.0
O274 O 0.91428 0.71383 0.57286 0.0
O275 O 0.23562 0.96365 0.63887 0.0
Cd276 Cd 0.24548 0.93211 0.62782 0.0
O277 O 0.26561 0.97772 0.63445 0.0
Cd278 Cd 0.28467 0.95603 0.61951 0.0
O279 O 0.29444 0.94021 0.64786 0.0
C280 C 0.30928 0.94707 0.65873 0.0
O281 O 0.32084 0.96005 0.64964 0.0
C282 C 0.24728 0.97797 0.64086 0.0
C283 C 0.21517 0.91517 0.60209 0.0
O284 O 0.2114 0.92161 0.62126 0.0
O285 O 0.23328 0.91671 0.59486 0.0
O286 O -0.00819 0.2516 0.63937 0.0
Cd287 Cd 0.02668 0.25547 0.62837 0.0
O288 O 0.97995 0.28055 0.63271 0.0
Cd289 Cd 0.00503 0.29611 0.61801 0.0
O290 O 0.02363 0.30356 0.6462 0.0
C291 C 0.01873 0.31832 0.65685 0.0
O292 O 0.00602 0.33036 0.64789 0.0
C293 C 0.97776 0.26378 0.64006 0.0
C294 C 0.03915 0.22605 0.60065 0.0
O295 O 0.03039 0.2224 0.61874 0.0
O296 O 0.04199 0.24346 0.59558 0.0
O297 O 0.71032 -0.00277 0.5826 0.0
Cd298 Cd 0.69913 0.02588 0.56422 0.0
O299 O 0.68142 0.98206 0.58873 0.0
Cd300 Cd 0.66161 0.0033 0.57372 0.0
O301 O 0.65206 0.02145 0.60057 0.0
C302 C 0.64099 0.01309 0.61441 0.0
O303 O 0.63041 -0.00184 0.60784 0.0
C304 C 0.70063 0.98335 0.59064 0.0
C305 C 0.73437 0.0481 0.55726 0.0
O306 O 0.73345 0.03577 0.57234 0.0
O307 O 0.71856 0.0505 0.54536 0.0
O308 O 0.96174 0.27989 0.39395 0.0
Cd309 Cd 0.93419 0.29362 0.41492 0.0
O310 O 0.98077 0.30542 0.38861 0.0
Cd311 Cd 0.95951 0.32559 0.40329 0.0
O312 O 0.94049 0.33569 0.37665 0.0
C313 C 0.94995 0.3454 0.36258 0.0
O314 O 0.96666 0.3543 0.36882 0.0
C315 C 0.97746 0.28769 0.38611 0.0
C316 C 0.90465 0.26516 0.42267 0.0
O317 O 0.92091 0.26166 0.41242 0.0
O318 O 0.90171 0.28222 0.42904 0.0
O319 O 0.74119 0.9692 0.33861 0.0
Cd320 Cd 0.73462 0.93689 0.3499 0.0
O321 O 0.71111 0.98214 0.34514 0.0
Cd322 Cd 0.6933 0.95961 0.36016 0.0
O323 O 0.68383 0.9429 0.33195 0.0
C324 C 0.66849 0.94866 0.32133 0.0
O325 O 0.65657 0.96131 0.33043 0.0
C326 C 0.72906 0.98307 0.33768 0.0
C327 C 0.76501 0.92296 0.37759 0.0
O328 O 0.76956 0.93105 0.35961 0.0
O329 O 0.74626 0.92145 0.38256 0.0
O330 O 0.03025 0.72112 0.33924 0.0
Cd331 Cd 0.06223 0.70778 0.35026 0.0
O332 O 0.01334 0.69401 0.34355 0.0
Cd333 Cd 0.0352 0.67474 0.35849 0.0
O334 O 0.05117 0.66423 0.33012 0.0
C335 C 0.04278 0.65077 0.31941 0.0
O336 O 0.02819 0.64094 0.32866 0.0
C337 C 0.01425 0.71117 0.33712 0.0
C338 C 0.08605 0.73223 0.37612 0.0
O339 O 0.07565 0.73855 0.36004 0.0
O340 O 0.08531 0.71444 0.38007 0.0
O341 O 0.25035 0.01809 0.38495 0.0
Cd342 Cd 0.25524 0.05105 0.37688 0.0
O343 O 0.28265 0.01946 0.37745 0.0
Cd344 Cd 0.30985 0.03561 0.3701 0.0
O345 O 0.30141 0.04526 0.33768 0.0
C346 C 0.30907 0.03455 0.32327 0.0
O347 O 0.32211 0.02156 0.32936 0.0
C348 C 0.26694 0.00975 0.38173 0.0
C349 C 0.2337 0.07284 0.40598 0.0
O350 O 0.22464 0.06222 0.39179 0.0
O351 O 0.25315 0.07307 0.40667 0.0
O352 O 0.60357 0.95871 0.71546 0.0
Cd353 Cd 0.61157 0.92564 0.71083 0.0
O354 O 0.61312 0.9561 0.68154 0.0
Cd355 Cd 0.62225 0.94113 0.65208 0.0
O356 O 0.65129 0.93092 0.66378 0.0
C357 C 0.66521 0.94158 0.65666 0.0
O358 O 0.66061 0.95462 0.64221 0.0
C359 C 0.60796 0.96651 0.69758 0.0
C360 C 0.58335 0.90389 0.73226 0.0
O361 O 0.59582 0.91463 0.74285 0.0
O362 O 0.58403 0.90344 0.71125 0.0
O363 O 0.00667 0.58903 0.69895 0.0
Cd364 Cd 0.03578 0.57197 0.68479 0.0
O365 O -0.00919 0.59773 0.66855 0.0
Cd366 Cd 0.01219 0.58463 0.64574 0.0
O367 O 0.03327 0.60719 0.63749 0.0
C368 C 0.02528 0.62059 0.62677 0.0
O369 O 0.00889 0.61684 0.61502 0.0
C370 C -0.00758 0.59778 0.68936 0.0
C371 C 0.05933 0.56151 0.72169 0.0
O372 O 0.04729 0.57553 0.72218 0.0
O373 O 0.06085 0.55229 0.70366 0.0
O374 O 0.38539 0.01228 0.69648 0.0
Cd375 Cd 0.38581 0.04611 0.69155 0.0
O376 O 0.36508 0.00326 0.66893 0.0
Cd377 Cd 0.35992 0.02916 0.65056 0.0
O378 O 0.33185 0.03882 0.66571 0.0
C379 C 0.31519 0.03057 0.66077 0.0
O380 O 0.3147 0.01787 0.64483 0.0
C381 C 0.37522 -0.00038 0.68624 0.0
C382 C 0.40361 0.06248 0.72937 0.0
O383 O 0.39092 0.04879 0.73071 0.0
O384 O 0.40794 0.06865 0.71031 0.0
O385 O 0.95924 0.39504 0.69929 0.0
Cd386 Cd 0.92288 0.39837 0.6987 0.0
O387 O 0.96478 0.3769 0.66999 0.0
Cd388 Cd 0.935 0.37499 0.65445 0.0
O389 O 0.92311 0.3492 0.66955 0.0
C390 C 0.92973 0.33308 0.66354 0.0
O391 O 0.94198 0.33196 0.64671 0.0
C392 C 0.97099 0.38528 0.6874 0.0
C393 C 0.91178 0.41725 0.73766 0.0
O394 O 0.92495 0.40407 0.73795 0.0
O395 O 0.90361 0.42141 0.71923 0.0
O396 O 0.59084 0.00975 0.27928 0.0
Cd397 Cd 0.58994 0.04391 0.28018 0.0
O398 O 0.60961 0.00291 0.30861 0.0
Cd399 Cd 0.61414 0.03037 0.32457 0.0
O400 O 0.64225 0.04013 0.30951 0.0
C401 C 0.65904 0.03291 0.31538 0.0
O402 O 0.65954 0.02122 0.33205 0.0
C403 C 0.60019 -0.00208 0.29115 0.0
C404 C 0.5703 0.05584 0.24154 0.0
O405 O 0.58341 0.04262 0.241 0.0
O406 O 0.56657 0.06363 0.26007 0.0
O407 O 0.96797 0.58394 0.28194 0.0
Cd408 Cd 0.93194 0.58599 0.28699 0.0
O409 O 0.97889 0.60253 0.30932 0.0
Cd410 Cd 0.9518 0.60897 0.32802 0.0
O411 O 0.94354 0.63592 0.31289 0.0
C412 C 0.95351 0.65092 0.31778 0.0
O413 O 0.96711 0.65049 0.33369 0.0
C414 C 0.98211 0.59277 0.29205 0.0
C415 C 0.91309 0.57069 0.24917 0.0
O416 O 0.92854 0.58161 0.24782 0.0
O417 O 0.9063 0.56699 0.26823 0.0
O418 O 0.38119 0.97885 0.28091 0.0
Cd419 Cd 0.39728 0.95034 0.29479 0.0
O420 O 0.37294 -0.00596 0.31143 0.0
Cd421 Cd 0.38532 0.97298 0.33411 0.0
O422 O 0.35975 0.95486 0.3422 0.0
C423 C 0.34604 0.96325 0.35292 0.0
O424 O 0.3512 0.97822 0.36481 0.0
C425 C 0.37283 -0.0073 0.29061 0.0
C426 C 0.40661 0.92782 0.25768 0.0
O427 O 0.39259 0.94012 0.25731 0.0
O428 O 0.41633 0.9256 0.27568 0.0
O429 O 0.00994 0.37608 0.26139 0.0
Cd430 Cd 0.04464 0.3665 0.26556 0.0
O431 O 0.01126 0.36731 0.29557 0.0
Cd432 Cd 0.02828 0.35803 0.32406 0.0
O433 O 0.03648 0.32986 0.31283 0.0
C434 C 0.02403 0.31768 0.31995 0.0
O435 O 0.01042 0.32301 0.33429 0.0
C436 C 0.00099 0.37273 0.27912 0.0
C437 C 0.06942 0.39159 0.244 0.0
O438 O 0.05716 0.38062 0.23343 0.0
O439 O 0.06989 0.39091 0.265 0.0
O440 O 0.70286 0.60017 0.98365 0.0
Cd441 Cd 0.70097 0.61029 0.94606 0.0
O442 O 0.67183 0.60943 0.97861 0.0
Cd443 Cd 0.64521 0.61916 0.96087 0.0
O444 O 0.65639 0.64696 0.95166 0.0
C445 C 0.64897 0.65924 0.96445 0.0
O446 O 0.63482 0.654 0.97819 0.0
C447 C 0.68568 0.60376 -0.00848 0.0
C448 C 0.72205 0.5852 0.92033 0.0
O449 O 0.73117 0.59603 0.93427 0.0
O450 O 0.70269 0.58609 0.91849 0.0
O451 O 0.67677 0.39292 0.02513 0.0
Cd452 Cd 0.66803 0.38977 0.06302 0.0
O453 O 0.65223 0.37457 0.01116 0.0
Cd454 Cd 0.63273 0.3682 0.03884 0.0
O455 O 0.64593 0.34113 0.04867 0.0
C456 C 0.64196 0.32613 0.03763 0.0
O457 O 0.62815 0.32661 0.02196 0.0
C458 C 0.66852 0.3842 0.00907 0.0
C459 C 0.69909 0.40629 0.08879 0.0
O460 O 0.70318 0.39708 0.07132 0.0
O461 O 0.68051 0.4076 0.09434 0.0
O462 O 0.57603 0.69653 0.02621 0.0
Cd463 Cd 0.55462 0.68257 0.05416 0.0
O464 O 0.58244 0.67113 0.0059 0.0
Cd465 Cd 0.56732 0.65081 0.02751 0.0
O466 O 0.59053 0.64068 0.04992 0.0
C467 C 0.60425 0.63102 0.04075 0.0
O468 O 0.59979 0.62218 0.02223 0.0
C469 C 0.58447 0.68884 0.00981 0.0
C470 C 0.54514 0.71079 0.08566 0.0
O471 O 0.55579 0.71444 0.06895 0.0
O472 O 0.53911 0.69369 0.08819 0.0
O473 O 0.2932 0.58005 0.00541 0.0
Cd474 Cd 0.29034 0.57715 0.04459 0.0
O475 O 0.32068 0.5982 0.00165 0.0
Cd476 Cd 0.33289 0.60037 0.03484 0.0
O477 O 0.31808 0.62606 0.04681 0.0
C478 C 0.32418 0.64223 0.04039 0.0
O479 O 0.3407 0.64345 0.02858 0.0
C480 C 0.30516 0.58967 -0.00637 0.0
C481 C 0.25335 0.5585 0.05333 0.0
O482 O 0.25422 0.57174 0.03921 0.0
O483 O 0.26968 0.55415 0.06353 0.0
O484 O 0.38789 0.26231 -0.00456 0.0
Cd485 Cd 0.37748 0.26458 0.03303 0.0
O486 O 0.38033 0.29231 -0.00155 0.0
Cd487 Cd 0.37159 0.3164 0.01868 0.0
O488 O 0.34094 0.30793 0.02683 0.0
C489 C 0.32844 0.3156 0.01385 0.0
O490 O 0.33499 0.32852 0.00016 0.0
C491 C 0.38543 0.27826 0.98661 0.0
C492 C 0.40323 0.2435 0.0587 0.0
O493 O 0.39113 0.2355 0.04487 0.0
O494 O 0.40337 0.26168 0.06037 0.0
O495 O 0.29355 0.38622 0.95206 0.0
Cd496 Cd 0.31006 0.40535 0.92432 0.0
O497 O 0.3201 0.37829 0.97235 0.0
Cd498 Cd 0.34284 0.39126 0.951 0.0
O499 O 0.3522 0.36898 0.92856 0.0
C500 C 0.36157 0.35549 0.93772 0.0
O501 O 0.37126 0.35905 0.95626 0.0
C502 C 0.30111 0.37767 0.9684 0.0
C503 C 0.28088 0.41623 0.89262 0.0
O504 O 0.27614 0.40646 0.90926 0.0
O505 O 0.29951 0.4207 0.89027 0.0
O506 O 0.62787 0.25607 0.95287 0.0
Cd507 Cd 0.61997 0.26959 0.91778 0.0
O508 O 0.6227 0.28314 0.97091 0.0
Cd509 Cd 0.61052 0.30264 0.94648 0.0
O510 O 0.63801 0.31299 0.93148 0.0
C511 C 0.64732 0.32644 0.94129 0.0
O512 O 0.63772 0.33636 0.95627 0.0
C513 C 0.62867 0.26596 0.9703 0.0
C514 C 0.59802 0.24513 0.89008 0.0
O515 O 0.61201 0.23881 0.90258 0.0
O516 O 0.59434 0.26292 0.89053 0.0
O517 O 0.35141 0.72364 0.97576 0.0
Cd518 Cd 0.36428 0.71997 0.939 0.0
O519 O 0.35668 0.69468 0.98896 0.0
Cd520 Cd 0.37204 0.67975 0.96252 0.0
O521 O 0.34742 0.67206 0.94046 0.0
C522 C 0.3373 0.6573 0.94514 0.0
O523 O 0.34483 0.64534 0.95947 0.0
C524 C 0.34972 0.71145 -0.00918 0.0
C525 C 0.39047 0.74974 0.92788 0.0
O526 O 0.37309 0.75316 0.93602 0.0
O527 O 0.39554 0.73239 0.92499 0.0
O528 O 0.50598 0.76806 0.88214 0.0
Cd529 Cd 0.53103 0.74535 0.86882 0.0
O530 O 0.48801 0.77476 0.8523 0.0
Cd531 Cd 0.50908 0.76255 0.82853 0.0
O532 O 0.53005 0.78533 0.82046 0.0
C533 C 0.52211 0.79892 0.81 0.0
O534 O 0.50545 0.79549 0.79858 0.0
C535 C 0.49116 0.77631 0.87288 0.0
C536 C 0.56113 0.73991 0.90144 0.0
O537 O 0.54238 0.74129 0.90607 0.0
O538 O 0.56612 0.74106 0.88129 0.0
O539 O 0.24375 0.51303 0.83846 0.0
Cd540 Cd 0.24774 0.54604 0.83208 0.0
O541 O 0.22652 0.50427 0.80855 0.0
Cd542 Cd 0.22139 0.53143 0.7924 0.0
O543 O 0.19268 0.54105 0.80622 0.0
C544 C 0.17613 0.53307 0.80026 0.0
O545 O 0.17618 0.52068 0.78401 0.0
C546 C 0.23501 0.50039 0.82682 0.0
C547 C 0.2635 0.56504 0.8693 0.0
O548 O 0.26025 0.5472 0.8701 0.0
O549 O 0.25961 0.57352 0.85141 0.0
O550 O 0.48526 0.2297 0.83765 0.0
Cd551 Cd 0.44956 0.23309 0.83327 0.0
O552 O 0.48992 0.21021 0.80932 0.0
Cd553 Cd 0.46071 0.20818 0.79222 0.0
O554 O 0.448 0.18274 0.80742 0.0
C555 C 0.4545 0.16643 0.80199 0.0
O556 O 0.46698 0.16484 0.78541 0.0
C557 C 0.49648 0.2189 0.82642 0.0
C558 C 0.43191 0.2521 0.86884 0.0
O559 O 0.44873 0.24356 0.87146 0.0
O560 O 0.42385 0.25205 0.84974 0.0
O561 O 0.76314 0.48128 0.90099 0.0
Cd562 Cd 0.77018 0.44814 0.89792 0.0
O563 O 0.77343 0.47926 0.86716 0.0
Cd564 Cd 0.78281 0.46339 0.83834 0.0
O565 O 0.8119 0.4527 0.84919 0.0
C566 C 0.82598 0.46357 0.84282 0.0
O567 O 0.82162 0.47732 0.82919 0.0
C568 C 0.76807 0.48932 0.88341 0.0
C569 C 0.73982 0.42538 0.9145 0.0
O570 O 0.74635 0.43978 0.92541 0.0
O571 O 0.74687 0.42224 0.89536 0.0
O572 O 0.51167 0.20039 0.07776 0.0
Cd573 Cd 0.54641 0.19048 0.08159 0.0
O574 O 0.51399 0.18982 0.11109 0.0
Cd575 Cd 0.52893 0.17975 0.14062 0.0
O576 O 0.5387 0.15188 0.13 0.0
C577 C 0.52649 0.1394 0.13688 0.0
O578 O 0.51235 0.14443 0.15073 0.0
C579 C 0.50306 0.19551 0.09526 0.0
C580 C 0.5761 0.21421 0.06537 0.0
O581 O 0.56168 0.20817 0.05287 0.0
O582 O 0.57584 0.20995 0.08573 0.0
O583 O 0.72928 0.50627 0.14046 0.0
Cd584 Cd 0.72788 0.53984 0.14526 0.0
O585 O 0.74995 0.50068 0.16865 0.0
Cd586 Cd 0.75369 0.52765 0.18624 0.0
O587 O 0.7817 0.53781 0.17114 0.0
C588 C 0.79863 0.53063 0.17657 0.0
O589 O 0.79948 0.51882 0.19313 0.0
C590 C 0.7403 0.49514 0.15152 0.0
C591 C 0.70925 0.55798 0.10963 0.0
O592 O 0.71707 0.54162 0.10699 0.0
O593 O 0.70982 0.56542 0.12877 0.0
O594 O 0.44516 0.75099 0.13918 0.0
Cd595 Cd 0.40986 0.75042 0.14623 0.0
O596 O 0.45491 0.76789 0.16851 0.0
Cd597 Cd 0.42739 0.77455 0.18678 0.0
O598 O 0.41914 0.80206 0.17293 0.0
C599 C 0.42875 0.81706 0.17862 0.0
O600 O 0.44206 0.81639 0.19478 0.0
C601 C 0.45882 0.75922 0.15061 0.0
C602 C 0.38408 0.7401 0.11108 0.0
O603 O 0.40278 0.74329 0.1072 0.0
O604 O 0.37811 0.7416 0.13081 0.0
O605 O 0.21979 0.45543 0.09492 0.0
Cd606 Cd 0.2423 0.43073 0.1087 0.0
O607 O 0.21326 0.47252 0.1247 0.0
Cd608 Cd 0.22494 0.45224 0.1487 0.0
O609 O 0.19938 0.43397 0.15656 0.0
C610 C 0.1853 0.44215 0.16693 0.0
O611 O 0.18987 0.45749 0.17846 0.0
C612 C 0.21167 0.46969 0.10409 0.0
C613 C 0.24678 0.40232 0.07613 0.0
O614 O 0.24641 0.41995 0.0715 0.0
O615 O 0.24505 0.39769 0.09625 0.0
O616 O 0.87031 0.52039 0.76937 0.0
Cd617 Cd 0.85912 0.5449 0.7439 0.0
O618 O 0.84235 0.50336 0.77447 0.0
Cd619 Cd 0.82099 0.52344 0.75982 0.0
O620 O 0.81171 0.54195 0.78651 0.0
C621 C 0.8011 0.53387 0.80098 0.0
O622 O 0.79076 0.51852 0.79533 0.0
C623 C 0.86126 0.50621 0.77763 0.0
C624 C 0.88942 0.57336 0.74099 0.0
O625 O 0.89373 0.55575 0.74199 0.0
O626 O 0.8707 0.57794 0.74134 0.0
O627 O 0.47182 0.89156 0.77699 0.0
Cd628 Cd 0.43646 0.89073 0.78499 0.0
O629 O 0.46755 0.86182 0.78561 0.0
Cd630 Cd 0.44873 0.83742 0.79331 0.0
O631 O 0.43828 0.84544 0.82566 0.0
C632 C 0.44947 0.83812 0.84022 0.0
O633 O 0.46318 0.82568 0.83433 0.0
C634 C 0.47936 0.87554 0.78118 0.0
C635 C 0.4132 0.90937 0.75428 0.0
O636 O 0.42937 0.91708 0.76202 0.0
O637 O 0.40851 0.89253 0.76021 0.0
O638 O 0.09466 0.46617 0.78026 0.0
Cd639 Cd 0.1056 0.43609 0.76696 0.0
O640 O 0.1245 0.47961 0.77323 0.0
Cd641 Cd 0.14342 0.4573 0.75881 0.0
O642 O 0.15393 0.44172 0.78712 0.0
C643 C 0.16931 0.44819 0.79742 0.0
O644 O 0.18104 0.46075 0.78784 0.0
C645 C 0.10657 0.48036 0.78089 0.0
C646 C 0.07654 0.41442 0.74431 0.0
O647 O 0.07092 0.42843 0.7561 0.0
O648 O 0.09545 0.41109 0.7428 0.0
O649 O 0.51384 0.08422 0.7777 0.0
Cd650 Cd 0.54661 0.09174 0.76388 0.0
O651 O 0.50305 0.11381 0.77333 0.0
Cd652 Cd 0.52759 0.12952 0.7573 0.0
O653 O 0.54718 0.13755 0.78458 0.0
C654 C 0.54224 0.1521 0.7956 0.0
O655 O 0.52932 0.16414 0.78701 0.0
C656 C 0.50052 0.09689 0.78019 0.0
C657 C 0.56493 0.0648 0.73711 0.0
O658 O 0.55159 0.05953 0.75085 0.0
O659 O 0.56889 0.08249 0.73546 0.0
O660 O 0.88207 0.46935 0.20039 0.0
Cd661 Cd 0.87178 0.43919 0.21404 0.0
O662 O 0.85134 0.48148 0.20492 0.0
Cd663 Cd 0.83297 0.45951 0.22081 0.0
O664 O 0.82296 0.44182 0.19353 0.0
C665 C 0.80782 0.44752 0.18254 0.0
O666 O 0.79593 0.46042 0.19121 0.0
C667 C 0.86952 0.4827 0.19803 0.0
C668 C 0.89935 0.42001 0.24045 0.0
O669 O 0.90581 0.43222 0.22678 0.0
O670 O 0.88026 0.41752 0.24219 0.0
O671 O 0.50541 0.88843 0.19803 0.0
Cd672 Cd 0.5368 0.87608 0.21105 0.0
O673 O 0.4889 0.86159 0.20529 0.0
Cd674 Cd 0.51152 0.84231 0.21927 0.0
O675 O 0.52736 0.83142 0.19096 0.0
C676 C 0.51937 0.81751 0.18067 0.0
O677 O 0.50516 0.80746 0.19027 0.0
C678 C 0.48939 0.8784 0.19763 0.0
C679 C 0.56187 0.90172 0.23376 0.0
O680 O 0.54729 0.90794 0.22203 0.0
O681 O 0.56419 0.88382 0.23517 0.0
O682 O 0.08991 0.49507 0.19949 0.0
Cd683 Cd 0.09331 0.52825 0.19214 0.0
O684 O 0.12198 0.49697 0.1912 0.0
Cd685 Cd 0.1493 0.51297 0.1837 0.0
O686 O 0.14177 0.52367 0.15148 0.0
C687 C 0.14871 0.51273 0.13687 0.0
O688 O 0.16083 0.49889 0.1427 0.0
C689 C 0.10649 0.48695 0.19552 0.0
C690 C 0.07529 0.55119 0.22316 0.0
O691 O 0.06587 0.53668 0.21535 0.0
O692 O 0.09354 0.55436 0.21718 0.0
O693 O 0.46321 0.10206 0.21087 0.0
Cd694 Cd 0.43794 0.11414 0.23641 0.0
O695 O 0.48314 0.12708 0.20551 0.0
Cd696 Cd 0.46322 0.14838 0.22021 0.0
O697 O 0.44407 0.15819 0.1935 0.0
C698 C 0.45337 0.16754 0.17899 0.0
O699 O 0.47038 0.17622 0.1846 0.0
C700 C 0.47885 0.10957 0.20247 0.0
C701 C 0.40566 0.08766 0.23934 0.0
O702 O 0.42414 0.08249 0.2384 0.0
O703 O 0.40199 0.10546 0.23892 0.0
O704 O 0.77918 0.87344 0.49836 0.0
Cd705 Cd 0.75379 0.86158 0.52394 0.0
O706 O 0.78525 0.84845 0.4771 0.0
Cd707 Cd 0.77042 0.82725 0.49773 0.0
O708 O 0.79385 0.81742 0.5201 0.0
C709 C 0.80787 0.8081 0.51099 0.0
O710 O 0.80381 0.79947 0.49224 0.0
C711 C 0.78786 0.86594 0.48197 0.0
C712 C 0.74916 0.88803 0.55864 0.0
O713 O 0.75125 0.89322 0.5388 0.0
O714 O 0.74919 0.87022 0.56256 0.0
O715 O 0.79671 0.08589 0.45608 0.0
Cd716 Cd 0.7851 0.09905 0.42257 0.0
O717 O 0.79063 0.11354 0.47266 0.0
Cd718 Cd 0.77864 0.13372 0.44853 0.0
O719 O 0.80619 0.1443 0.43375 0.0
C720 C 0.81531 0.15811 0.44308 0.0
O721 O 0.80561 0.16826 0.45777 0.0
C722 C 0.79722 0.09653 0.47295 0.0
C723 C 0.77081 0.07591 0.38837 0.0
O724 O 0.77955 0.06817 0.40476 0.0
O725 O 0.76868 0.09388 0.38856 0.0
O726 O 0.90588 0.77564 0.45541 0.0
Cd727 Cd 0.90498 0.78581 0.41782 0.0
O728 O 0.87531 0.7862 0.45036 0.0
Cd729 Cd 0.84907 0.79632 0.43234 0.0
O730 O 0.85966 0.82424 0.42286 0.0
C731 C 0.8523 0.83668 0.43549 0.0
O732 O 0.83836 0.83159 0.44956 0.0
C733 C 0.88905 0.78048 0.46337 0.0
C734 C 0.92224 0.76228 0.38688 0.0
O735 O 0.93271 0.76832 0.40334 0.0
O736 O 0.90339 0.76644 0.38571 0.0
O737 O 0.18405 0.89268 0.47581 0.0
Cd738 Cd 0.1994 0.88512 0.44163 0.0
O739 O 0.18733 0.86313 0.48787 0.0
Cd740 Cd 0.20371 0.84707 0.46272 0.0
O741 O 0.17996 0.83941 0.43947 0.0
C742 C 0.16926 0.82491 0.44376 0.0
O743 O 0.17607 0.81272 0.45824 0.0
C744 C 0.18085 0.88007 0.49006 0.0
C745 C 0.22596 0.91186 0.42435 0.0
O746 O 0.21225 0.91721 0.43764 0.0
O747 O 0.22758 0.89418 0.42006 0.0
O748 O 0.09025 0.20872 0.47951 0.0
Cd749 Cd 0.10428 0.23159 0.45366 0.0
O750 O 0.11651 0.2019 0.50096 0.0
Cd751 Cd 0.13997 0.21424 0.48009 0.0
O752 O 0.14908 0.1916 0.45792 0.0
C753 C 0.1582 0.17798 0.46713 0.0
O754 O 0.1676 0.18138 0.48588 0.0
C755 C 0.09774 0.20038 0.49607 0.0
C756 C 0.07628 0.23703 0.41893 0.0
O757 O 0.07068 0.23564 0.43881 0.0
O758 O 0.09524 0.23591 0.41498 0.0
O759 O 0.18577 0.08458 0.52273 0.0
Cd760 Cd 0.17542 0.08581 0.56061 0.0
O761 O 0.17665 0.11399 0.52708 0.0
Cd762 Cd 0.16805 0.13862 0.54636 0.0
O763 O 0.13759 0.13069 0.5557 0.0
C764 C 0.12489 0.13836 0.54296 0.0
O765 O 0.13128 0.15099 0.52883 0.0
C766 C 0.18168 0.1005 0.5144 0.0
C767 C 0.19915 0.06779 0.59161 0.0
O768 O 0.19209 0.05855 0.57501 0.0
O769 O 0.19602 0.08569 0.5929 0.0
O770 O 0.84811 0.22417 0.52603 0.0
Cd771 Cd 0.83888 0.22463 0.56348 0.0
O772 O 0.82171 0.20742 0.51317 0.0
Cd773 Cd 0.80265 0.20076 0.54133 0.0
O774 O 0.81471 0.17319 0.55121 0.0
C775 C 0.81013 0.15822 0.54039 0.0
O776 O 0.79624 0.15897 0.52481 0.0
C777 C 0.83858 0.21603 0.51039 0.0
C778 C 0.86935 0.23498 0.59392 0.0
O779 O 0.87438 0.23174 0.57409 0.0
O780 O 0.85068 0.23352 0.59883 0.0
O781 O 0.12595 0.74731 0.50142 0.0
Cd782 Cd 0.12732 0.74384 0.54017 0.0
O783 O 0.15237 0.76693 0.49871 0.0
Cd784 Cd 0.16615 0.76888 0.53137 0.0
O785 O 0.15109 0.79427 0.54402 0.0
C786 C 0.15658 0.81061 0.53753 0.0
O787 O 0.1728 0.81227 0.52532 0.0
C788 C 0.13711 0.75824 0.49029 0.0
C789 C 0.09332 0.72456 0.55641 0.0
O790 O 0.09205 0.73326 0.53821 0.0
O791 O 0.11039 0.72457 0.56644 0.0
O792 O 0.47318 0.2135 0.09418 0.0
Cd793 Cd 0.43777 0.21095 0.10262 0.0
O794 O 0.47009 0.18343 0.10205 0.0
Cd795 Cd 0.45106 0.1591 0.10993 0.0
O796 O 0.44112 0.16768 0.14226 0.0
C797 C 0.45215 0.16 0.1567 0.0
O798 O 0.46525 0.14705 0.15066 0.0
C799 C 0.48126 0.19758 0.09745 0.0
C800 C 0.41576 0.23203 0.07317 0.0
O801 O 0.42765 0.24004 0.08722 0.0
O802 O 0.41431 0.21385 0.07283 0.0
O803 O 0.73566 0.46366 0.13884 0.0
Cd804 Cd 0.74552 0.43211 0.1278 0.0
O805 O 0.76565 0.47773 0.13446 0.0
Cd806 Cd 0.7846 0.45597 0.11952 0.0
O807 O 0.7944 0.44019 0.1479 0.0
C808 C 0.80926 0.44708 0.15873 0.0
O809 O 0.82073 0.46012 0.14963 0.0
C810 C 0.74731 0.47798 0.14085 0.0
C811 C 0.71521 0.41516 0.10208 0.0
O812 O 0.71145 0.42159 0.12126 0.0
O813 O 0.73331 0.4167 0.09485 0.0
O814 O 0.49185 0.75161 0.1394 0.0
Cd815 Cd 0.5267 0.75549 0.12836 0.0
O816 O 0.47995 0.78055 0.13271 0.0
Cd817 Cd 0.50496 0.79617 0.11797 0.0
O818 O 0.5236 0.80359 0.14613 0.0
C819 C 0.51873 0.81834 0.15683 0.0
O820 O 0.5061 0.83045 0.14787 0.0
C821 C 0.47779 0.76378 0.14008 0.0
C822 C 0.53916 0.72606 0.10066 0.0
O823 O 0.53037 0.72242 0.11874 0.0
O824 O 0.54205 0.74347 0.0956 0.0
O825 O 0.21035 0.49724 0.0826 0.0
Cd826 Cd 0.19914 0.52587 0.06421 0.0
O827 O 0.18145 0.48206 0.08874 0.0
Cd828 Cd 0.16164 0.5033 0.07373 0.0
O829 O 0.15209 0.52145 0.10057 0.0
C830 C 0.14102 0.51308 0.11442 0.0
O831 O 0.13044 0.49815 0.10785 0.0
C832 C 0.20066 0.48335 0.09065 0.0
C833 C 0.23438 0.5481 0.05726 0.0
O834 O 0.23346 0.53577 0.07233 0.0
O835 O 0.21857 0.5505 0.04535 0.0
O836 O 0.4617 0.77995 0.89401 0.0
Cd837 Cd 0.43413 0.79367 0.91497 0.0
O838 O 0.48075 0.80546 0.88866 0.0
Cd839 Cd 0.45948 0.82563 0.90333 0.0
O840 O 0.44047 0.83573 0.8767 0.0
C841 C 0.44992 0.84545 0.86263 0.0
O842 O 0.46663 0.85435 0.86887 0.0
C843 C 0.47743 0.78773 0.88616 0.0
C844 C 0.40461 0.76517 0.92269 0.0
O845 O 0.42088 0.76171 0.91243 0.0
O846 O 0.40165 0.78222 0.92909 0.0
O847 O 0.24145 0.46918 0.83848 0.0
Cd848 Cd 0.23485 0.43695 0.84981 0.0
O849 O 0.21122 0.48189 0.84497 0.0
Cd850 Cd 0.193 0.45979 0.86037 0.0
O851 O 0.18384 0.44317 0.83196 0.0
C852 C 0.16849 0.4488 0.82126 0.0
O853 O 0.15645 0.46141 0.83026 0.0
C854 C 0.22916 0.48292 0.83747 0.0
C855 C 0.26513 0.42296 0.87755 0.0
O856 O 0.26973 0.43103 0.85957 0.0
O857 O 0.24637 0.42151 0.88251 0.0
O858 O 0.53033 0.22122 0.83917 0.0
Cd859 Cd 0.56222 0.20781 0.85029 0.0
O860 O 0.51343 0.1941 0.84346 0.0
Cd861 Cd 0.53509 0.17468 0.85851 0.0
O862 O 0.5511 0.1642 0.83016 0.0
C863 C 0.54276 0.15073 0.81941 0.0
O864 O 0.52817 0.14087 0.82862 0.0
C865 C 0.51435 0.21126 0.83701 0.0
C866 C 0.58608 0.23225 0.87612 0.0
O867 O 0.57564 0.23857 0.86007 0.0
O868 O 0.58535 0.21446 0.88005 0.0
O869 O 0.75034 0.51809 0.88497 0.0
Cd870 Cd 0.75523 0.55105 0.8769 0.0
O871 O 0.78263 0.5195 0.87748 0.0
Cd872 Cd 0.80987 0.5356 0.87013 0.0
O873 O 0.80142 0.54525 0.83772 0.0
C874 C 0.8091 0.53455 0.82331 0.0
O875 O 0.82215 0.52158 0.8294 0.0
C876 C 0.76694 0.50976 0.88175 0.0
C877 C 0.7337 0.57283 0.906 0.0
O878 O 0.72464 0.56221 0.8918 0.0
O879 O 0.75314 0.57307 0.90669 0.0
O880 O 0.10363 0.45869 0.21546 0.0
Cd881 Cd 0.11162 0.42563 0.21084 0.0
O882 O 0.11316 0.45616 0.18152 0.0
Cd883 Cd 0.12229 0.44109 0.15211 0.0
O884 O 0.15135 0.43092 0.16379 0.0
C885 C 0.16527 0.44159 0.15668 0.0
O886 O 0.16066 0.45464 0.14224 0.0
C887 C 0.108 0.46652 0.19759 0.0
C888 C 0.08338 0.40388 0.23225 0.0
O889 O 0.09585 0.41461 0.24286 0.0
O890 O 0.08408 0.40344 0.21125 0.0
O891 O 0.50665 0.08905 0.19897 0.0
Cd892 Cd 0.53576 0.07203 0.18479 0.0
O893 O 0.4908 0.09773 0.16856 0.0
Cd894 Cd 0.5122 0.08463 0.14575 0.0
O895 O 0.53329 0.1072 0.13752 0.0
C896 C 0.5253 0.1206 0.1268 0.0
O897 O 0.50892 0.11685 0.11503 0.0
C898 C 0.4924 0.09779 0.18937 0.0
C899 C 0.5593 0.06153 0.22167 0.0
O900 O 0.54727 0.07556 0.22219 0.0
O901 O 0.56081 0.05233 0.20361 0.0
O902 O 0.88558 0.51224 0.19644 0.0
Cd903 Cd 0.88587 0.54608 0.19156 0.0
O904 O 0.86498 0.50346 0.16903 0.0
Cd905 Cd 0.85995 0.52927 0.15043 0.0
O906 O 0.83186 0.53879 0.16569 0.0
C907 C 0.8152 0.53053 0.16078 0.0
O908 O 0.81468 0.51785 0.14483 0.0
C909 C 0.87517 0.4997 0.18627 0.0
C910 C 0.90361 0.56248 0.22939 0.0
O911 O 0.89087 0.54883 0.23073 0.0
O912 O 0.908 0.56861 0.21033 0.0
O913 O 0.4593 0.89526 0.19936 0.0
Cd914 Cd 0.42296 0.89837 0.1988 0.0
O915 O 0.46483 0.87702 0.1701 0.0
Cd916 Cd 0.43529 0.87483 0.15405 0.0
O917 O 0.42326 0.84916 0.16928 0.0
C918 C 0.4298 0.83298 0.16339 0.0
O919 O 0.44205 0.83171 0.14657 0.0
C920 C 0.47103 0.88549 0.18747 0.0
C921 C 0.41179 0.91726 0.23769 0.0
O922 O 0.42496 0.90409 0.23804 0.0
O923 O 0.40367 0.92143 0.21924 0.0
O924 O 0.09093 0.50977 0.77939 0.0
Cd925 Cd 0.08992 0.54397 0.7803 0.0
O926 O 0.10978 0.50302 0.80866 0.0
Cd927 Cd 0.11401 0.53067 0.82423 0.0
O928 O 0.14223 0.5403 0.80926 0.0
C929 C 0.15894 0.533 0.81525 0.0
O930 O 0.15927 0.52127 0.83189 0.0
C931 C 0.10039 0.49797 0.7912 0.0
C932 C 0.07033 0.55586 0.74159 0.0
O933 O 0.08347 0.54267 0.74109 0.0
O934 O 0.06656 0.56366 0.7601 0.0
O935 O 0.46795 0.08396 0.78193 0.0
Cd936 Cd 0.43191 0.08603 0.78697 0.0
O937 O 0.47888 0.10253 0.80933 0.0
Cd938 Cd 0.45179 0.10899 0.82801 0.0
O939 O 0.44352 0.13593 0.81287 0.0
C940 C 0.45349 0.15092 0.81777 0.0
O941 O 0.46709 0.15049 0.83366 0.0
C942 C 0.48209 0.09277 0.79205 0.0
C943 C 0.41309 0.0707 0.74914 0.0
O944 O 0.42853 0.08164 0.74779 0.0
O945 O 0.40629 0.06701 0.76821 0.0
O946 O 0.88123 0.47882 0.78097 0.0
Cd947 Cd 0.89736 0.45031 0.79482 0.0
O948 O 0.87297 0.49402 0.81148 0.0
Cd949 Cd 0.88534 0.47297 0.83417 0.0
O950 O 0.85976 0.45485 0.84224 0.0
C951 C 0.84605 0.46325 0.85297 0.0
O952 O 0.85122 0.47822 0.86486 0.0
C953 C 0.87287 0.49268 0.79066 0.0
C954 C 0.90664 0.4278 0.75767 0.0
O955 O 0.89262 0.4401 0.75734 0.0
O956 O 0.91639 0.42556 0.77566 0.0
O957 O 0.50956 0.87624 0.76115 0.0
Cd958 Cd 0.54454 0.86655 0.76557 0.0
O959 O 0.51228 0.86729 0.7949 0.0
Cd960 Cd 0.52799 0.85795 0.8242 0.0
O961 O 0.53645 0.82989 0.81287 0.0
C962 C 0.52402 0.81771 0.82 0.0
O963 O 0.51042 0.82305 0.83434 0.0
C964 C 0.50115 0.87269 0.77908 0.0
C965 C 0.56939 0.89161 0.74402 0.0
O966 O 0.55712 0.88064 0.73346 0.0
O967 O 0.56987 0.89093 0.76502 0.0
O968 O 0.20302 0.09995 0.48378 0.0
Cd969 Cd 0.20105 0.11026 0.44614 0.0
O970 O 0.17232 0.10956 0.47801 0.0
Cd971 Cd 0.1451 0.11929 0.46143 0.0
O972 O 0.15639 0.14692 0.45174 0.0
C973 C 0.14897 0.15925 0.46446 0.0
O974 O 0.13482 0.15405 0.47822 0.0
C975 C 0.18581 0.10387 0.49135 0.0
C976 C 0.22207 0.08521 0.42031 0.0
O977 O 0.2312 0.09602 0.43426 0.0
O978 O 0.20271 0.08613 0.41848 0.0
O979 O 0.1768 0.89272 0.52516 0.0
Cd980 Cd 0.16801 0.8897 0.56306 0.0
O981 O 0.15214 0.87466 0.51095 0.0
Cd982 Cd 0.13293 0.86824 0.53882 0.0
O983 O 0.14599 0.84114 0.54874 0.0
C984 C 0.14198 0.82616 0.53769 0.0
O985 O 0.12817 0.82669 0.522 0.0
C986 C 0.16849 0.88421 0.50898 0.0
C987 C 0.19906 0.90629 0.5888 0.0
O988 O 0.20315 0.89709 0.57131 0.0
O989 O 0.18048 0.90756 0.59437 0.0
O990 O 0.07604 0.19654 0.52619 0.0
Cd991 Cd 0.05462 0.18258 0.55413 0.0
O992 O 0.08246 0.17114 0.50588 0.0
Cd993 Cd 0.06733 0.15082 0.52748 0.0
O994 O 0.09053 0.14068 0.54989 0.0
C995 C 0.10426 0.13102 0.54072 0.0
O996 O 0.09979 0.12218 0.5222 0.0
C997 C 0.08449 0.18885 0.50979 0.0
C998 C 0.04512 0.21079 0.58564 0.0
O999 O 0.05577 0.21445 0.56892 0.0
O1000 O 0.03912 0.19368 0.58817 0.0
O1001 O 0.79316 0.08017 0.50544 0.0
Cd1002 Cd 0.79031 0.07719 0.54461 0.0
O1003 O 0.82074 0.09814 0.50152 0.0
Cd1004 Cd 0.83278 0.10039 0.53475 0.0
O1005 O 0.81803 0.12606 0.54684 0.0
C1006 C 0.82416 0.14222 0.54043 0.0
O1007 O 0.84067 0.1434 0.5286 0.0
C1008 C 0.80518 0.08964 0.49357 0.0
C1009 C 0.75334 0.05851 0.55334 0.0
O1010 O 0.75421 0.07173 0.5392 0.0
O1011 O 0.76967 0.05418 0.56356 0.0
O1012 O 0.88788 0.76217 0.49535 0.0
Cd1013 Cd 0.87744 0.76452 0.53302 0.0
O1014 O 0.88026 0.79206 0.49882 0.0
Cd1015 Cd 0.87154 0.81645 0.51856 0.0
O1016 O 0.84091 0.80791 0.52682 0.0
C1017 C 0.82839 0.81557 0.51386 0.0
O1018 O 0.83493 0.82849 0.50017 0.0
C1019 C 0.88536 0.77817 0.48671 0.0
C1020 C 0.90319 0.74348 0.55873 0.0
O1021 O 0.89109 0.73546 0.5449 0.0
O1022 O 0.90332 0.76165 0.56039 0.0
O1023 O 0.79352 0.88621 0.45207 0.0
Cd1024 Cd 0.81002 0.90534 0.4243 0.0
O1025 O 0.82007 0.87827 0.47237 0.0
Cd1026 Cd 0.84282 0.89123 0.45102 0.0
O1027 O 0.85217 0.86895 0.42858 0.0
C1028 C 0.86153 0.85546 0.43774 0.0
O1029 O 0.87122 0.85901 0.45628 0.0
C1030 C 0.80108 0.87765 0.46841 0.0
C1031 C 0.7808 0.91624 0.39263 0.0
O1032 O 0.7761 0.90645 0.40926 0.0
O1033 O 0.79943 0.92074 0.39026 0.0
O1034 O 0.12786 0.75605 0.45287 0.0
Cd1035 Cd 0.11997 0.76957 0.41778 0.0
O1036 O 0.1227 0.78314 0.47089 0.0
Cd1037 Cd 0.11052 0.80267 0.4465 0.0
O1038 O 0.138 0.813 0.43148 0.0
C1039 C 0.14735 0.82644 0.44128 0.0
O1040 O 0.13775 0.83641 0.45621 0.0
C1041 C 0.12867 0.76596 0.4703 0.0
C1042 C 0.098 0.74511 0.39008 0.0
O1043 O 0.11198 0.73879 0.40259 0.0
O1044 O 0.09433 0.76291 0.39052 0.0
O1045 O 0.85137 0.22379 0.47571 0.0
Cd1046 Cd 0.8642 0.2201 0.43901 0.0
O1047 O 0.85672 0.1948 0.48884 0.0
Cd1048 Cd 0.87219 0.17933 0.46285 0.0
O1049 O 0.84753 0.1719 0.44074 0.0
C1050 C 0.8373 0.15716 0.44522 0.0
O1051 O 0.84473 0.145 0.45937 0.0
C1052 C 0.84972 0.21156 0.49072 0.0
C1053 C 0.89048 0.24976 0.42789 0.0
O1054 O 0.8731 0.25325 0.43602 0.0
O1055 O 0.89551 0.2324 0.42504 0.0
loop_
_geom_bond_atom_site_label_1
_geom_bond_atom_site_label_2
_geom_bond_distance
_geom_bond_site_symmetry_2
_ccdc_geom_bond_type
O0 Cd1 2.300 . S
O0 C7 1.275 . S
Cd1 O0 2.300 . S
Cd1 O9 2.381 . S
Cd1 O10 2.378 . S
O2 Cd3 2.385 . S
O2 C7 1.255 . S
Cd3 O2 2.385 . S
Cd3 O4 2.317 . S
O4 Cd3 2.317 . S
O4 C5 1.232 . S
C5 O4 1.232 . S
C5 O6 1.218 . S
O6 C5 1.218 . S
C7 O0 1.275 . S
C7 O2 1.255 . S
C8 O9 1.258 . S
C8 O10 1.256 . S
O9 Cd1 2.381 . S
O9 C8 1.258 . S
O10 Cd1 2.378 . S
O10 C8 1.256 . S
O11 Cd12 2.300 . S
O11 C18 1.275 . S
Cd12 O11 2.300 . S
Cd12 O20 2.381 . S
Cd12 O21 2.378 . S
O13 Cd14 2.385 . S
O13 C18 1.255 . S
Cd14 O13 2.385 . S
Cd14 O15 2.317 . S
O15 Cd14 2.317 . S
O15 C16 1.232 . S
C16 O15 1.232 . S
C16 O17 1.218 . S
O17 C16 1.218 . S
C18 O11 1.275 . S
C18 O13 1.255 . S
C19 O20 1.258 . S
C19 O21 1.256 . S
O20 Cd12 2.381 . S
O20 C19 1.258 . S
O21 Cd12 2.378 . S
O21 C19 1.256 . S
O22 Cd23 2.267 1_455 S
O22 C29 1.287 . S
Cd23 O22 2.267 1_655 S
Cd23 O31 2.381 . S
Cd23 O32 2.378 . S
O24 Cd25 2.385 . S
O24 C29 1.255 1_655 S
Cd25 O24 2.385 . S
Cd25 O26 2.317 . S
O26 Cd25 2.317 . S
O26 C27 1.232 . S
C27 O26 1.232 . S
C27 O28 1.218 . S
O28 C27 1.218 . S
C29 O22 1.287 . S
C29 O24 1.255 1_455 S
C30 O31 1.258 . S
C30 O32 1.256 . S
O31 Cd23 2.381 . S
O31 C30 1.258 . S
O32 Cd23 2.378 . S
O32 C30 1.256 . S
O33 Cd34 2.300 . S
O33 C40 1.275 1_565 S
Cd34 O33 2.300 . S
Cd34 O42 2.381 . S
Cd34 O43 2.378 . S
O35 Cd36 2.385 . S
O35 C40 1.255 1_565 S
Cd36 O35 2.385 . S
Cd36 O37 2.317 . S
O37 Cd36 2.317 . S
O37 C38 1.232 . S
C38 O37 1.232 . S
C38 O39 1.218 . S
O39 C38 1.218 . S
C40 O33 1.275 1_545 S
C40 O35 1.255 1_545 S
C41 O42 1.258 . S
C41 O43 1.256 . S
O42 Cd34 2.381 . S
O42 C41 1.258 . S
O43 Cd34 2.378 . S
O43 C41 1.256 . S
O44 Cd45 2.300 . S
O44 C51 1.275 . S
Cd45 O44 2.300 . S
Cd45 O53 2.381 . S
Cd45 O54 2.378 . S
O46 Cd47 2.385 . S
O46 C51 1.255 . S
Cd47 O46 2.385 . S
Cd47 O48 2.317 . S
O48 Cd47 2.317 . S
O48 C49 1.232 . S
C49 O48 1.232 . S
C49 O50 1.218 . S
O50 C49 1.218 . S
C51 O44 1.275 . S
C51 O46 1.255 . S
C52 O53 1.258 . S
C52 O54 1.256 . S
O53 Cd45 2.381 . S
O53 C52 1.258 . S
O54 Cd45 2.378 . S
O54 C52 1.256 . S
O55 Cd56 2.300 . S
O55 C62 1.275 . S
Cd56 O55 2.300 . S
Cd56 O64 2.381 . S
Cd56 O65 2.378 . S
O57 Cd58 2.385 . S
O57 C62 1.255 . S
Cd58 O57 2.385 . S
Cd58 O59 2.317 . S
O59 Cd58 2.317 . S
O59 C60 1.232 . S
C60 O59 1.232 . S
C60 O61 1.218 . S
O61 C60 1.218 . S
C62 O55 1.275 . S
C62 O57 1.255 . S
C63 O64 1.258 . S
C63 O65 1.256 . S
O64 Cd56 2.381 . S
O64 C63 1.258 . S
O65 Cd56 2.378 . S
O65 C63 1.256 . S
O66 Cd67 2.300 . S
O66 C73 1.275 . S
Cd67 O66 2.300 . S
Cd67 O75 2.381 . S
Cd67 O76 2.378 . S
O68 Cd69 2.385 . S
O68 C73 1.255 . S
Cd69 O68 2.385 . S
Cd69 O70 2.317 . S
O70 Cd69 2.317 . S
O70 C71 1.232 . S
C71 O70 1.232 . S
C71 O72 1.218 . S
O72 C71 1.218 . S
C73 O66 1.275 . S
C73 O68 1.255 . S
C74 O75 1.258 . S
C74 O76 1.256 . S
O75 Cd67 2.381 . S
O75 C74 1.258 . S
O76 Cd67 2.378 . S
O76 C74 1.256 . S
O77 Cd78 2.300 . S
O77 C84 1.275 . S
Cd78 O77 2.300 . S
Cd78 O86 2.381 . S
Cd78 O87 2.378 . S
O79 Cd80 2.385 . S
O79 C84 1.255 . S
Cd80 O79 2.385 . S
Cd80 O81 2.317 . S
O81 Cd80 2.317 . S
O81 C82 1.232 . S
C82 O81 1.232 . S
C82 O83 1.218 . S
O83 C82 1.218 . S
C84 O77 1.275 . S
C84 O79 1.255 . S
C85 O86 1.258 . S
C85 O87 1.256 . S
O86 Cd78 2.381 . S
O86 C85 1.258 . S
O87 Cd78 2.378 . S
O87 C85 1.256 . S
O88 Cd89 2.300 . S
O88 C95 1.275 . S
Cd89 O88 2.300 . S
Cd89 O97 2.381 . S
Cd89 O98 2.378 . S
O90 Cd91 2.385 . S
O90 C95 1.255 . S
Cd91 O90 2.385 . S
Cd91 O92 2.317 . S
O92 Cd91 2.317 . S
O92 C93 1.232 . S
C93 O92 1.232 . S
C93 O94 1.218 . S
O94 C93 1.218 . S
C95 O88 1.275 . S
C95 O90 1.255 . S
C96 O97 1.258 . S
C96 O98 1.256 . S
O97 Cd89 2.381 . S
O97 C96 1.258 . S
O98 Cd89 2.378 . S
O98 C96 1.256 . S
O99 Cd100 2.300 . S
O99 C106 1.275 . S
Cd100 O99 2.300 . S
Cd100 O108 2.381 . S
Cd100 O109 2.378 . S
O101 Cd102 2.385 . S
O101 C106 1.255 . S
Cd102 O101 2.385 . S
Cd102 O103 2.317 . S
O103 Cd102 2.317 . S
O103 C104 1.232 . S
C104 O103 1.232 . S
C104 O105 1.218 . S
O105 C104 1.218 . S
C106 O99 1.275 . S
C106 O101 1.255 . S
C107 O108 1.258 . S
C107 O109 1.256 . S
O108 Cd100 2.381 . S
O108 C107 1.258 . S
O109 Cd100 2.378 . S
O109 C107 1.256 . S
O110 Cd111 2.300 . S
O110 C117 1.275 . S
Cd111 O110 2.300 . S
Cd111 O119 2.381 . S
Cd111 O120 2.378 . S
O112 Cd113 2.385 . S
O112 C117 1.255 . S
Cd113 O112 2.385 . S
Cd113 O114 2.317 . S
O114 Cd113 2.317 . S
O114 C115 1.232 . S
C115 O114 1.232 . S
C115 O116 1.218 . S
O116 C115 1.218 . S
C117 O110 1.275 . S
C117 O112 1.255 . S
C118 O119 1.258 . S
C118 O120 1.256 . S
O119 Cd111 2.381 . S
O119 C118 1.258 . S
O120 Cd111 2.378 . S
O120 C118 1.256 . S
O121 Cd122 2.300 . S
O121 C128 1.275 . S
Cd122 O121 2.300 . S
Cd122 O130 2.381 . S
Cd122 O131 2.378 . S
O123 Cd124 2.385 . S
O123 C128 1.255 . S
Cd124 O123 2.385 . S
Cd124 O125 2.317 . S
O125 Cd124 2.317 . S
O125 C126 1.232 . S
C126 O125 1.232 . S
C126 O127 1.218 . S
O127 C126 1.218 . S
C128 O121 1.275 . S
C128 O123 1.255 . S
C129 O130 1.258 . S
C129 O131 1.256 . S
O130 Cd122 2.381 . S
O130 C129 1.258 . S
O131 Cd122 2.378 . S
O131 C129 1.256 . S
O132 Cd133 2.300 . S
O132 C139 1.275 . S
Cd133 O132 2.300 . S
Cd133 O141 2.381 . S
Cd133 O142 2.378 . S
O134 Cd135 2.385 . S
O134 C139 1.255 . S
Cd135 O134 2.385 . S
Cd135 O136 2.317 . S
O136 Cd135 2.317 . S
O136 C137 1.232 . S
C137 O136 1.232 . S
C137 O138 1.218 . S
O138 C137 1.218 . S
C139 O132 1.275 . S
C139 O134 1.255 . S
C140 O141 1.258 . S
C140 O142 1.256 . S
O141 Cd133 2.381 . S
O141 C140 1.258 . S
O142 Cd133 2.378 . S
O142 C140 1.256 . S
O143 Cd144 2.300 . S
O143 C150 1.275 . S
Cd144 O143 2.300 . S
Cd144 O152 2.381 . S
Cd144 O153 2.378 . S
O145 Cd146 2.385 . S
O145 C150 1.255 . S
Cd146 O145 2.385 . S
Cd146 O147 2.317 . S
O147 Cd146 2.317 . S
O147 C148 1.232 . S
C148 O147 1.232 . S
C148 O149 1.218 . S
O149 C148 1.218 . S
C150 O143 1.275 . S
C150 O145 1.255 . S
C151 O152 1.258 . S
C151 O153 1.256 . S
O152 Cd144 2.381 . S
O152 C151 1.258 . S
O153 Cd144 2.378 . S
O153 C151 1.256 . S
O154 Cd155 2.300 . S
O154 C161 1.275 1_545 S
Cd155 O154 2.300 . S
Cd155 O163 2.381 . S
Cd155 O164 2.378 . S
O156 Cd157 2.385 . S
O156 C161 1.255 1_545 S
Cd157 O156 2.385 . S
Cd157 O158 2.317 . S
O158 Cd157 2.317 . S
O158 C159 1.232 . S
C159 O158 1.232 . S
C159 O160 1.218 . S
O160 C159 1.218 . S
C161 O154 1.275 1_565 S
C161 O156 1.255 1_565 S
C162 O163 1.258 . S
C162 O164 1.256 . S
O163 Cd155 2.381 . S
O163 C162 1.258 . S
O164 Cd155 2.378 . S
O164 C162 1.256 . S
O165 Cd166 2.300 . S
O165 C172 1.275 . S
Cd166 O165 2.300 . S
Cd166 O174 2.381 . S
Cd166 O175 2.378 . S
O167 Cd168 2.385 . S
O167 C172 1.255 . S
Cd168 O167 2.385 . S
Cd168 O169 2.317 . S
O169 Cd168 2.317 . S
O169 C170 1.232 . S
C170 O169 1.232 . S
C170 O171 1.218 . S
O171 C170 1.218 . S
C172 O165 1.275 . S
C172 O167 1.255 . S
C173 O174 1.258 . S
C173 O175 1.256 . S
O174 Cd166 2.381 . S
O174 C173 1.258 . S
O175 Cd166 2.378 . S
O175 C173 1.256 . S
O176 Cd177 2.300 . S
O176 C183 1.275 1_554 S
Cd177 O176 2.300 . S
Cd177 O185 2.381 . S
Cd177 O186 2.378 . S
O178 Cd179 2.385 1_556 S
O178 C183 1.255 . S
Cd179 O178 2.385 1_554 S
Cd179 O180 2.317 . S
O180 Cd179 2.317 . S
O180 C181 1.232 . S
C181 O180 1.232 . S
C181 O182 1.218 . S
O182 C181 1.218 . S
C183 O176 1.275 1_556 S
C183 O178 1.255 . S
C184 O185 1.258 . S
C184 O186 1.256 . S
O185 Cd177 2.381 . S
O185 C184 1.258 . S
O186 Cd177 2.378 . S
O186 C184 1.256 . S
O187 Cd188 2.300 . S
O187 C194 1.275 . S
Cd188 O187 2.300 . S
Cd188 O196 2.381 . S
Cd188 O197 2.378 . S
O189 Cd190 2.385 . S
O189 C194 1.255 . S
Cd190 O189 2.385 . S
Cd190 O191 2.317 . S
O191 Cd190 2.317 . S
O191 C192 1.232 . S
C192 O191 1.232 . S
C192 O193 1.218 . S
O193 C192 1.218 . S
C194 O187 1.275 . S
C194 O189 1.255 . S
C195 O196 1.258 . S
C195 O197 1.256 . S
O196 Cd188 2.381 . S
O196 C195 1.258 . S
O197 Cd188 2.378 . S
O197 C195 1.256 . S
O198 Cd199 2.300 . S
O198 C205 1.275 . S
Cd199 O198 2.300 . S
Cd199 O207 2.381 . S
Cd199 O208 2.378 . S
O200 Cd201 2.385 . S
O200 C205 1.255 . S
Cd201 O200 2.385 . S
Cd201 O202 2.317 . S
O202 Cd201 2.317 . S
O202 C203 1.232 . S
C203 O202 1.232 . S
C203 O204 1.218 . S
O204 C203 1.218 . S
C205 O198 1.275 . S
C205 O200 1.255 . S
C206 O207 1.258 . S
C206 O208 1.256 . S
O207 Cd199 2.381 . S
O207 C206 1.258 . S
O208 Cd199 2.378 . S
O208 C206 1.256 . S
O209 Cd210 2.300 . S
O209 C216 1.275 . S
Cd210 O209 2.300 . S
Cd210 O218 2.381 . S
Cd210 O219 2.378 . S
O211 Cd212 2.385 . S
O211 C216 1.255 . S
Cd212 O211 2.385 . S
Cd212 O213 2.317 . S
O213 Cd212 2.317 . S
O213 C214 1.232 . S
C214 O213 1.232 . S
C214 O215 1.218 . S
O215 C214 1.218 . S
C216 O209 1.275 . S
C216 O211 1.255 . S
C217 O218 1.258 . S
C217 O219 1.256 . S
O218 Cd210 2.381 . S
O218 C217 1.258 . S
O219 Cd210 2.378 . S
O219 C217 1.256 . S
O220 Cd221 2.300 . S
O220 C227 1.275 1_556 S
Cd221 O220 2.300 . S
Cd221 O229 2.381 . S
Cd221 O230 2.378 . S
O222 Cd223 2.385 1_554 S
O222 C227 1.255 . S
Cd223 O222 2.385 1_556 S
Cd223 O224 2.317 . S
O224 Cd223 2.317 . S
O224 C225 1.232 . S
C225 O224 1.232 . S
C225 O226 1.218 . S
O226 C225 1.218 . S
C227 O220 1.275 1_554 S
C227 O222 1.255 . S
C228 O229 1.258 . S
C228 O230 1.256 . S
O229 Cd221 2.381 . S
O229 C228 1.258 . S
O230 Cd221 2.378 . S
O230 C228 1.256 . S
O231 Cd232 2.300 . S
O231 C238 1.275 . S
Cd232 O231 2.300 . S
Cd232 O240 2.381 . S
Cd232 O241 2.378 . S
O233 Cd234 2.385 . S
O233 C238 1.255 . S
Cd234 O233 2.385 . S
Cd234 O235 2.317 . S
O235 Cd234 2.317 . S
O235 C236 1.232 . S
C236 O235 1.232 . S
C236 O237 1.218 . S
O237 C236 1.218 . S
C238 O231 1.275 . S
C238 O233 1.255 . S
C239 O240 1.258 . S
C239 O241 1.256 . S
O240 Cd232 2.381 . S
O240 C239 1.258 . S
O241 Cd232 2.378 . S
O241 C239 1.256 . S
O242 Cd243 2.300 . S
O242 C249 1.275 . S
Cd243 O242 2.300 . S
Cd243 O251 2.381 . S
Cd243 O252 2.378 . S
O244 Cd245 2.385 . S
O244 C249 1.255 . S
Cd245 O244 2.385 . S
Cd245 O246 2.317 . S
O246 Cd245 2.317 . S
O246 C247 1.232 . S
C247 O246 1.232 . S
C247 O248 1.218 . S
O248 C247 1.218 . S
C249 O242 1.275 . S
C249 O244 1.255 . S
C250 O251 1.258 . S
C250 O252 1.256 . S
O251 Cd243 2.381 . S
O251 C250 1.258 . S
O252 Cd243 2.378 . S
O252 C250 1.256 . S
O253 Cd254 2.300 . S
O253 C260 1.275 . S
Cd254 O253 2.300 . S
Cd254 O262 2.381 . S
Cd254 O263 2.378 . S
O255 Cd256 2.385 . S
O255 C260 1.255 . S
Cd256 O255 2.385 . S
Cd256 O257 2.317 . S
O257 Cd256 2.317 . S
O257 C258 1.232 . S
C258 O257 1.232 . S
C258 O259 1.218 . S
O259 C258 1.218 . S
C260 O253 1.275 . S
C260 O255 1.255 . S
C261 O262 1.258 . S
C261 O263 1.256 . S
O262 Cd254 2.381 . S
O262 C261 1.258 . S
O263 Cd254 2.378 . S
O263 C261 1.256 . S
O264 Cd265 2.300 . S
O264 C271 1.275 . S
Cd265 O264 2.300 . S
Cd265 O273 2.381 . S
Cd265 O274 2.378 . S
O266 Cd267 2.385 . S
O266 C271 1.255 . S
Cd267 O266 2.385 . S
Cd267 O268 2.317 . S
O268 Cd267 2.317 . S
O268 C269 1.232 . S
C269 O268 1.232 . S
C269 O270 1.218 . S
O270 C269 1.218 . S
C271 O264 1.275 . S
C271 O266 1.255 . S
C272 O273 1.258 . S
C272 O274 1.256 . S
O273 Cd265 2.381 . S
O273 C272 1.258 . S
O274 Cd265 2.378 . S
O274 C272 1.256 . S
O275 Cd276 2.300 . S
O275 C282 1.275 . S
Cd276 O275 2.300 . S
Cd276 O284 2.381 . S
Cd276 O285 2.378 . S
O277 Cd278 2.385 . S
O277 C282 1.255 . S
Cd278 O277 2.385 . S
Cd278 O279 2.317 . S
O279 Cd278 2.317 . S
O279 C280 1.232 . S
C280 O279 1.232 . S
C280 O281 1.218 . S
O281 C280 1.218 . S
C282 O275 1.275 . S
C282 O277 1.255 . S
C283 O284 1.258 . S
C283 O285 1.256 . S
O284 Cd276 2.381 . S
O284 C283 1.258 . S
O285 Cd276 2.378 . S
O285 C283 1.256 . S
O286 Cd287 2.332 . S
O286 C293 1.258 1_455 S
Cd287 O286 2.332 . S
Cd287 O295 2.381 . S
Cd287 O296 2.378 . S
O288 Cd289 2.380 1_655 S
O288 C293 1.262 . S
Cd289 O288 2.380 1_455 S
Cd289 O290 2.317 . S
O290 Cd289 2.317 . S
O290 C291 1.232 . S
C291 O290 1.232 . S
C291 O292 1.218 . S
O292 C291 1.218 . S
C293 O286 1.258 1_655 S
C293 O288 1.262 . S
C294 O295 1.258 . S
C294 O296 1.256 . S
O295 Cd287 2.381 . S
O295 C294 1.258 . S
O296 Cd287 2.378 . S
O296 C294 1.256 . S
O297 Cd298 2.300 . S
O297 C304 1.275 1_545 S
Cd298 O297 2.300 . S
Cd298 O306 2.381 . S
Cd298 O307 2.378 . S
O299 Cd300 2.385 . S
O299 C304 1.255 1_545 S
Cd300 O299 2.385 . S
Cd300 O301 2.317 . S
O301 Cd300 2.317 . S
O301 C302 1.232 . S
C302 O301 1.232 . S
C302 O303 1.218 . S
O303 C302 1.218 . S
C304 O297 1.275 1_565 S
C304 O299 1.255 1_565 S
C305 O306 1.258 . S
C305 O307 1.256 . S
O306 Cd298 2.381 . S
O306 C305 1.258 . S
O307 Cd298 2.378 . S
O307 C305 1.256 . S
O308 Cd309 2.300 . S
O308 C315 1.275 . S
Cd309 O308 2.300 . S
Cd309 O317 2.381 . S
Cd309 O318 2.378 . S
O310 Cd311 2.385 . S
O310 C315 1.255 . S
Cd311 O310 2.385 . S
Cd311 O312 2.317 . S
O312 Cd311 2.317 . S
O312 C313 1.232 . S
C313 O312 1.232 . S
C313 O314 1.218 . S
O314 C313 1.218 . S
C315 O308 1.275 . S
C315 O310 1.255 . S
C316 O317 1.258 . S
C316 O318 1.256 . S
O317 Cd309 2.381 . S
O317 C316 1.258 . S
O318 Cd309 2.378 . S
O318 C316 1.256 . S
O319 Cd320 2.300 . S
O319 C326 1.275 . S
Cd320 O319 2.300 . S
Cd320 O328 2.381 . S
Cd320 O329 2.378 . S
O321 Cd322 2.385 . S
O321 C326 1.255 . S
Cd322 O321 2.385 . S
Cd322 O323 2.317 . S
O323 Cd322 2.317 . S
O323 C324 1.232 . S
C324 O323 1.232 . S
C324 O325 1.218 . S
O325 C324 1.218 . S
C326 O319 1.275 . S
C326 O321 1.255 . S
C327 O328 1.258 . S
C327 O329 1.256 . S
O328 Cd320 2.381 . S
O328 C327 1.258 . S
O329 Cd320 2.378 . S
O329 C327 1.256 . S
O330 Cd331 2.300 . S
O330 C337 1.275 . S
Cd331 O330 2.300 . S
Cd331 O339 2.381 . S
Cd331 O340 2.378 . S
O332 Cd333 2.385 . S
O332 C337 1.255 . S
Cd333 O332 2.385 . S
Cd333 O334 2.317 . S
O334 Cd333 2.317 . S
O334 C335 1.232 . S
C335 O334 1.232 . S
C335 O336 1.218 . S
O336 C335 1.218 . S
C337 O330 1.275 . S
C337 O332 1.255 . S
C338 O339 1.258 . S
C338 O340 1.256 . S
O339 Cd331 2.381 . S
O339 C338 1.258 . S
O340 Cd331 2.378 . S
O340 C338 1.256 . S
O341 Cd342 2.300 . S
O341 C348 1.275 . S
Cd342 O341 2.300 . S
Cd342 O350 2.381 . S
Cd342 O351 2.378 . S
O343 Cd344 2.385 . S
O343 C348 1.255 . S
Cd344 O343 2.385 . S
Cd344 O345 2.317 . S
O345 Cd344 2.317 . S
O345 C346 1.232 . S
C346 O345 1.232 . S
C346 O347 1.218 . S
O347 C346 1.218 . S
C348 O341 1.275 . S
C348 O343 1.255 . S
C349 O350 1.258 . S
C349 O351 1.256 . S
O350 Cd342 2.381 . S
O350 C349 1.258 . S
O351 Cd342 2.378 . S
O351 C349 1.256 . S
O352 Cd353 2.300 . S
O352 C359 1.275 . S
Cd353 O352 2.300 . S
Cd353 O361 2.381 . S
Cd353 O362 2.378 . S
O354 Cd355 2.385 . S
O354 C359 1.255 . S
Cd355 O354 2.385 . S
Cd355 O356 2.317 . S
O356 Cd355 2.317 . S
O356 C357 1.232 . S
C357 O356 1.232 . S
C357 O358 1.218 . S
O358 C357 1.218 . S
C359 O352 1.275 . S
C359 O354 1.255 . S
C360 O361 1.258 . S
C360 O362 1.256 . S
O361 Cd353 2.381 . S
O361 C360 1.258 . S
O362 Cd353 2.378 . S
O362 C360 1.256 . S
O363 Cd364 2.300 . S
O363 C370 1.275 . S
Cd364 O363 2.300 . S
Cd364 O372 2.381 . S
Cd364 O373 2.378 . S
O365 Cd366 2.385 . S
O365 C370 1.255 . S
Cd366 O365 2.385 . S
Cd366 O367 2.317 . S
O367 Cd366 2.317 . S
O367 C368 1.232 . S
C368 O367 1.232 . S
C368 O369 1.218 . S
O369 C368 1.218 . S
C370 O363 1.275 . S
C370 O365 1.255 . S
C371 O372 1.258 . S
C371 O373 1.256 . S
O372 Cd364 2.381 . S
O372 C371 1.258 . S
O373 Cd364 2.378 . S
O373 C371 1.256 . S
O374 Cd375 2.300 . S
O374 C381 1.275 . S
Cd375 O374 2.300 . S
Cd375 O383 2.381 . S
Cd375 O384 2.378 . S
O376 Cd377 2.385 . S
O376 C381 1.255 . S
Cd377 O376 2.385 . S
Cd377 O378 2.317 . S
O378 Cd377 2.317 . S
O378 C379 1.232 . S
C379 O378 1.232 . S
C379 O380 1.218 . S
O380 C379 1.218 . S
C381 O374 1.275 . S
C381 O376 1.255 . S
C382 O383 1.258 . S
C382 O384 1.256 . S
O383 Cd375 2.381 . S
O383 C382 1.258 . S
O384 Cd375 2.378 . S
O384 C382 1.256 . S
O385 Cd386 2.300 . S
O385 C392 1.275 . S
Cd386 O385 2.300 . S
Cd386 O394 2.381 . S
Cd386 O395 2.378 . S
O387 Cd388 2.385 . S
O387 C392 1.255 . S
Cd388 O387 2.385 . S
Cd388 O389 2.317 . S
O389 Cd388 2.317 . S
O389 C390 1.232 . S
C390 O389 1.232 . S
C390 O391 1.218 . S
O391 C390 1.218 . S
C392 O385 1.275 . S
C392 O387 1.255 . S
C393 O394 1.258 . S
C393 O395 1.256 . S
O394 Cd386 2.381 . S
O394 C393 1.258 . S
O395 Cd386 2.378 . S
O395 C393 1.256 . S
O396 Cd397 2.300 . S
O396 C403 1.275 . S
Cd397 O396 2.300 . S
Cd397 O405 2.381 . S
Cd397 O406 2.378 . S
O398 Cd399 2.385 . S
O398 C403 1.255 . S
Cd399 O398 2.385 . S
Cd399 O400 2.317 . S
O400 Cd399 2.317 . S
O400 C401 1.232 . S
C401 O400 1.232 . S
C401 O402 1.218 . S
O402 C401 1.218 . S
C403 O396 1.275 . S
C403 O398 1.255 . S
C404 O405 1.258 . S
C404 O406 1.256 . S
O405 Cd397 2.381 . S
O405 C404 1.258 . S
O406 Cd397 2.378 . S
O406 C404 1.256 . S
O407 Cd408 2.300 . S
O407 C414 1.275 . S
Cd408 O407 2.300 . S
Cd408 O416 2.381 . S
Cd408 O417 2.378 . S
O409 Cd410 2.385 . S
O409 C414 1.255 . S
Cd410 O409 2.385 . S
Cd410 O411 2.317 . S
O411 Cd410 2.317 . S
O411 C412 1.232 . S
C412 O411 1.232 . S
C412 O413 1.218 . S
O413 C412 1.218 . S
C414 O407 1.275 . S
C414 O409 1.255 . S
C415 O416 1.258 . S
C415 O417 1.256 . S
O416 Cd408 2.381 . S
O416 C415 1.258 . S
O417 Cd408 2.378 . S
O417 C415 1.256 . S
O418 Cd419 2.300 . S
O418 C425 1.275 1_565 S
Cd419 O418 2.300 . S
Cd419 O427 2.381 . S
Cd419 O428 2.378 . S
O420 Cd421 2.385 . S
O420 C425 1.255 1_565 S
Cd421 O420 2.385 . S
Cd421 O422 2.317 . S
O422 Cd421 2.317 . S
O422 C423 1.232 . S
C423 O422 1.232 . S
C423 O424 1.218 . S
O424 C423 1.218 . S
C425 O418 1.275 1_545 S
C425 O420 1.255 1_545 S
C426 O427 1.258 . S
C426 O428 1.256 . S
O427 Cd419 2.381 . S
O427 C426 1.258 . S
O428 Cd419 2.378 . S
O428 C426 1.256 . S
O429 Cd430 2.300 . S
O429 C436 1.275 . S
Cd430 O429 2.300 . S
Cd430 O438 2.381 . S
Cd430 O439 2.378 . S
O431 Cd432 2.385 . S
O431 C436 1.255 . S
Cd432 O431 2.385 . S
Cd432 O433 2.317 . S
O433 Cd432 2.317 . S
O433 C434 1.232 . S
C434 O433 1.232 . S
C434 O435 1.218 . S
O435 C434 1.218 . S
C436 O429 1.275 . S
C436 O431 1.255 . S
C437 O438 1.258 . S
C437 O439 1.256 . S
O438 Cd430 2.381 . S
O438 C437 1.258 . S
O439 Cd430 2.378 . S
O439 C437 1.256 . S
O440 Cd441 2.300 . S
O440 C447 1.275 1_556 S
Cd441 O440 2.300 . S
Cd441 O449 2.381 . S
Cd441 O450 2.378 . S
O442 Cd443 2.385 . S
O442 C447 1.255 1_556 S
Cd443 O442 2.385 . S
Cd443 O444 2.317 . S
O444 Cd443 2.317 . S
O444 C445 1.232 . S
C445 O444 1.232 . S
C445 O446 1.218 . S
O446 C445 1.218 . S
C447 O440 1.275 1_554 S
C447 O442 1.255 1_554 S
C448 O449 1.258 . S
C448 O450 1.256 . S
O449 Cd441 2.381 . S
O449 C448 1.258 . S
O450 Cd441 2.378 . S
O450 C448 1.256 . S
O451 Cd452 2.300 . S
O451 C458 1.275 . S
Cd452 O451 2.300 . S
Cd452 O460 2.381 . S
Cd452 O461 2.378 . S
O453 Cd454 2.385 . S
O453 C458 1.255 . S
Cd454 O453 2.385 . S
Cd454 O455 2.317 . S
O455 Cd454 2.317 . S
O455 C456 1.232 . S
C456 O455 1.232 . S
C456 O457 1.218 . S
O457 C456 1.218 . S
C458 O451 1.275 . S
C458 O453 1.255 . S
C459 O460 1.258 . S
C459 O461 1.256 . S
O460 Cd452 2.381 . S
O460 C459 1.258 . S
O461 Cd452 2.378 . S
O461 C459 1.256 . S
O462 Cd463 2.300 . S
O462 C469 1.275 . S
Cd463 O462 2.300 . S
Cd463 O471 2.381 . S
Cd463 O472 2.378 . S
O464 Cd465 2.385 . S
O464 C469 1.255 . S
Cd465 O464 2.385 . S
Cd465 O466 2.317 . S
O466 Cd465 2.317 . S
O466 C467 1.232 . S
C467 O466 1.232 . S
C467 O468 1.218 . S
O468 C467 1.218 . S
C469 O462 1.275 . S
C469 O464 1.255 . S
C470 O471 1.258 . S
C470 O472 1.256 . S
O471 Cd463 2.381 . S
O471 C470 1.258 . S
O472 Cd463 2.378 . S
O472 C470 1.256 . S
O473 Cd474 2.300 . S
O473 C480 1.275 . S
Cd474 O473 2.300 . S
Cd474 O482 2.381 . S
Cd474 O483 2.378 . S
O475 Cd476 2.385 . S
O475 C480 1.255 . S
Cd476 O475 2.385 . S
Cd476 O477 2.317 . S
O477 Cd476 2.317 . S
O477 C478 1.232 . S
C478 O477 1.232 . S
C478 O479 1.218 . S
O479 C478 1.218 . S
C480 O473 1.275 . S
C480 O475 1.255 . S
C481 O482 1.258 . S
C481 O483 1.256 . S
O482 Cd474 2.381 . S
O482 C481 1.258 . S
O483 Cd474 2.378 . S
O483 C481 1.256 . S
O484 Cd485 2.300 . S
O484 C491 1.275 1_554 S
Cd485 O484 2.300 . S
Cd485 O493 2.381 . S
Cd485 O494 2.378 . S
O486 Cd487 2.385 . S
O486 C491 1.255 1_554 S
Cd487 O486 2.385 . S
Cd487 O488 2.317 . S
O488 Cd487 2.317 . S
O488 C489 1.232 . S
C489 O488 1.232 . S
C489 O490 1.218 . S
O490 C489 1.218 . S
C491 O484 1.275 1_556 S
C491 O486 1.255 1_556 S
C492 O493 1.258 . S
C492 O494 1.256 . S
O493 Cd485 2.381 . S
O493 C492 1.258 . S
O494 Cd485 2.378 . S
O494 C492 1.256 . S
O495 Cd496 2.300 . S
O495 C502 1.275 . S
Cd496 O495 2.300 . S
Cd496 O504 2.381 . S
Cd496 O505 2.378 . S
O497 Cd498 2.385 . S
O497 C502 1.255 . S
Cd498 O497 2.385 . S
Cd498 O499 2.317 . S
O499 Cd498 2.317 . S
O499 C500 1.232 . S
C500 O499 1.232 . S
C500 O501 1.218 . S
O501 C500 1.218 . S
C502 O495 1.275 . S
C502 O497 1.255 . S
C503 O504 1.258 . S
C503 O505 1.256 . S
O504 Cd496 2.381 . S
O504 C503 1.258 . S
O505 Cd496 2.378 . S
O505 C503 1.256 . S
O506 Cd507 2.300 . S
O506 C513 1.275 . S
Cd507 O506 2.300 . S
Cd507 O515 2.381 . S
Cd507 O516 2.378 . S
O508 Cd509 2.385 . S
O508 C513 1.255 . S
Cd509 O508 2.385 . S
Cd509 O510 2.317 . S
O510 Cd509 2.317 . S
O510 C511 1.232 . S
C511 O510 1.232 . S
C511 O512 1.218 . S
O512 C511 1.218 . S
C513 O506 1.275 . S
C513 O508 1.255 . S
C514 O515 1.258 . S
C514 O516 1.256 . S
O515 Cd507 2.381 . S
O515 C514 1.258 . S
O516 Cd507 2.378 . S
O516 C514 1.256 . S
O517 Cd518 2.300 . S
O517 C524 1.275 . S
Cd518 O517 2.300 . S
Cd518 O526 2.381 . S
Cd518 O527 2.378 . S
O519 Cd520 2.385 . S
O519 C524 1.255 . S
Cd520 O519 2.385 . S
Cd520 O521 2.317 . S
O521 Cd520 2.317 . S
O521 C522 1.232 . S
C522 O521 1.232 . S
C522 O523 1.218 . S
O523 C522 1.218 . S
C524 O517 1.275 . S
C524 O519 1.255 . S
C525 O526 1.258 . S
C525 O527 1.256 . S
O526 Cd518 2.381 . S
O526 C525 1.258 . S
O527 Cd518 2.378 . S
O527 C525 1.256 . S
O528 Cd529 2.300 . S
O528 C535 1.275 . S
Cd529 O528 2.300 . S
Cd529 O537 2.381 . S
Cd529 O538 2.378 . S
O530 Cd531 2.385 . S
O530 C535 1.255 . S
Cd531 O530 2.385 . S
Cd531 O532 2.317 . S
O532 Cd531 2.317 . S
O532 C533 1.232 . S
C533 O532 1.232 . S
C533 O534 1.218 . S
O534 C533 1.218 . S
C535 O528 1.275 . S
C535 O530 1.255 . S
C536 O537 1.258 . S
C536 O538 1.256 . S
O537 Cd529 2.381 . S
O537 C536 1.258 . S
O538 Cd529 2.378 . S
O538 C536 1.256 . S
O539 Cd540 2.300 . S
O539 C546 1.275 . S
Cd540 O539 2.300 . S
Cd540 O548 2.381 . S
Cd540 O549 2.378 . S
O541 Cd542 2.385 . S
O541 C546 1.255 . S
Cd542 O541 2.385 . S
Cd542 O543 2.317 . S
O543 Cd542 2.317 . S
O543 C544 1.232 . S
C544 O543 1.232 . S
C544 O545 1.218 . S
O545 C544 1.218 . S
C546 O539 1.275 . S
C546 O541 1.255 . S
C547 O548 1.258 . S
C547 O549 1.256 . S
O548 Cd540 2.381 . S
O548 C547 1.258 . S
O549 Cd540 2.378 . S
O549 C547 1.256 . S
O550 Cd551 2.300 . S
O550 C557 1.275 . S
Cd551 O550 2.300 . S
Cd551 O559 2.381 . S
Cd551 O560 2.378 . S
O552 Cd553 2.385 . S
O552 C557 1.255 . S
Cd553 O552 2.385 . S
Cd553 O554 2.317 . S
O554 Cd553 2.317 . S
O554 C555 1.232 . S
C555 O554 1.232 . S
C555 O556 1.218 . S
O556 C555 1.218 . S
C557 O550 1.275 . S
C557 O552 1.255 . S
C558 O559 1.258 . S
C558 O560 1.256 . S
O559 Cd551 2.381 . S
O559 C558 1.258 . S
O560 Cd551 2.378 . S
O560 C558 1.256 . S
O561 Cd562 2.300 . S
O561 C568 1.275 . S
Cd562 O561 2.300 . S
Cd562 O570 2.381 . S
Cd562 O571 2.378 . S
O563 Cd564 2.385 . S
O563 C568 1.255 . S
Cd564 O563 2.385 . S
Cd564 O565 2.317 . S
O565 Cd564 2.317 . S
O565 C566 1.232 . S
C566 O565 1.232 . S
C566 O567 1.218 . S
O567 C566 1.218 . S
C568 O561 1.275 . S
C568 O563 1.255 . S
C569 O570 1.258 . S
C569 O571 1.256 . S
O570 Cd562 2.381 . S
O570 C569 1.258 . S
O571 Cd562 2.378 . S
O571 C569 1.256 . S
O572 Cd573 2.300 . S
O572 C579 1.275 . S
Cd573 O572 2.300 . S
Cd573 O581 2.381 . S
Cd573 O582 2.378 . S
O574 Cd575 2.385 . S
O574 C579 1.255 . S
Cd575 O574 2.385 . S
Cd575 O576 2.317 . S
O576 Cd575 2.317 . S
O576 C577 1.232 . S
C577 O576 1.232 . S
C577 O578 1.218 . S
O578 C577 1.218 . S
C579 O572 1.275 . S
C579 O574 1.255 . S
C580 O581 1.258 . S
C580 O582 1.256 . S
O581 Cd573 2.381 . S
O581 C580 1.258 . S
O582 Cd573 2.378 . S
O582 C580 1.256 . S
O583 Cd584 2.300 . S
O583 C590 1.275 . S
Cd584 O583 2.300 . S
Cd584 O592 2.381 . S
Cd584 O593 2.378 . S
O585 Cd586 2.385 . S
O585 C590 1.255 . S
Cd586 O585 2.385 . S
Cd586 O587 2.317 . S
O587 Cd586 2.317 . S
O587 C588 1.232 . S
C588 O587 1.232 . S
C588 O589 1.218 . S
O589 C588 1.218 . S
C590 O583 1.275 . S
C590 O585 1.255 . S
C591 O592 1.258 . S
C591 O593 1.256 . S
O592 Cd584 2.381 . S
O592 C591 1.258 . S
O593 Cd584 2.378 . S
O593 C591 1.256 . S
O594 Cd595 2.300 . S
O594 C601 1.275 . S
Cd595 O594 2.300 . S
Cd595 O603 2.381 . S
Cd595 O604 2.378 . S
O596 Cd597 2.385 . S
O596 C601 1.255 . S
Cd597 O596 2.385 . S
Cd597 O598 2.317 . S
O598 Cd597 2.317 . S
O598 C599 1.232 . S
C599 O598 1.232 . S
C599 O600 1.218 . S
O600 C599 1.218 . S
C601 O594 1.275 . S
C601 O596 1.255 . S
C602 O603 1.258 . S
C602 O604 1.256 . S
O603 Cd595 2.381 . S
O603 C602 1.258 . S
O604 Cd595 2.378 . S
O604 C602 1.256 . S
O605 Cd606 2.300 . S
O605 C612 1.275 . S
Cd606 O605 2.300 . S
Cd606 O614 2.381 . S
Cd606 O615 2.378 . S
O607 Cd608 2.385 . S
O607 C612 1.255 . S
Cd608 O607 2.385 . S
Cd608 O609 2.317 . S
O609 Cd608 2.317 . S
O609 C610 1.232 . S
C610 O609 1.232 . S
C610 O611 1.218 . S
O611 C610 1.218 . S
C612 O605 1.275 . S
C612 O607 1.255 . S
C613 O614 1.258 . S
C613 O615 1.256 . S
O614 Cd606 2.381 . S
O614 C613 1.258 . S
O615 Cd606 2.378 . S
O615 C613 1.256 . S
O616 Cd617 2.300 . S
O616 C623 1.275 . S
Cd617 O616 2.300 . S
Cd617 O625 2.381 . S
Cd617 O626 2.378 . S
O618 Cd619 2.385 . S
O618 C623 1.255 . S
Cd619 O618 2.385 . S
Cd619 O620 2.317 . S
O620 Cd619 2.317 . S
O620 C621 1.232 . S
C621 O620 1.232 . S
C621 O622 1.218 . S
O622 C621 1.218 . S
C623 O616 1.275 . S
C623 O618 1.255 . S
C624 O625 1.258 . S
C624 O626 1.256 . S
O625 Cd617 2.381 . S
O625 C624 1.258 . S
O626 Cd617 2.378 . S
O626 C624 1.256 . S
O627 Cd628 2.300 . S
O627 C634 1.275 . S
Cd628 O627 2.300 . S
Cd628 O636 2.381 . S
Cd628 O637 2.378 . S
O629 Cd630 2.385 . S
O629 C634 1.255 . S
Cd630 O629 2.385 . S
Cd630 O631 2.317 . S
O631 Cd630 2.317 . S
O631 C632 1.232 . S
C632 O631 1.232 . S
C632 O633 1.218 . S
O633 C632 1.218 . S
C634 O627 1.275 . S
C634 O629 1.255 . S
C635 O636 1.258 . S
C635 O637 1.256 . S
O636 Cd628 2.381 . S
O636 C635 1.258 . S
O637 Cd628 2.378 . S
O637 C635 1.256 . S
O638 Cd639 2.300 . S
O638 C645 1.275 . S
Cd639 O638 2.300 . S
Cd639 O647 2.381 . S
Cd639 O648 2.378 . S
O640 Cd641 2.385 . S
O640 C645 1.255 . S
Cd641 O640 2.385 . S
Cd641 O642 2.317 . S
O642 Cd641 2.317 . S
O642 C643 1.232 . S
C643 O642 1.232 . S
C643 O644 1.218 . S
O644 C643 1.218 . S
C645 O638 1.275 . S
C645 O640 1.255 . S
C646 O647 1.258 . S
C646 O648 1.256 . S
O647 Cd639 2.381 . S
O647 C646 1.258 . S
O648 Cd639 2.378 . S
O648 C646 1.256 . S
O649 Cd650 2.300 . S
O649 C656 1.275 . S
Cd650 O649 2.300 . S
Cd650 O658 2.381 . S
Cd650 O659 2.378 . S
O651 Cd652 2.385 . S
O651 C656 1.255 . S
Cd652 O651 2.385 . S
Cd652 O653 2.317 . S
O653 Cd652 2.317 . S
O653 C654 1.232 . S
C654 O653 1.232 . S
C654 O655 1.218 . S
O655 C654 1.218 . S
C656 O649 1.275 . S
C656 O651 1.255 . S
C657 O658 1.258 . S
C657 O659 1.256 . S
O658 Cd650 2.381 . S
O658 C657 1.258 . S
O659 Cd650 2.378 . S
O659 C657 1.256 . S
O660 Cd661 2.300 . S
O660 C667 1.275 . S
Cd661 O660 2.300 . S
Cd661 O669 2.381 . S
Cd661 O670 2.378 . S
O662 Cd663 2.385 . S
O662 C667 1.255 . S
Cd663 O662 2.385 . S
Cd663 O664 2.317 . S
O664 Cd663 2.317 . S
O664 C665 1.232 . S
C665 O664 1.232 . S
C665 O666 1.218 . S
O666 C665 1.218 . S
C667 O660 1.275 . S
C667 O662 1.255 . S
C668 O669 1.258 . S
C668 O670 1.256 . S
O669 Cd661 2.381 . S
O669 C668 1.258 . S
O670 Cd661 2.378 . S
O670 C668 1.256 . S
O671 Cd672 2.300 . S
O671 C678 1.275 . S
Cd672 O671 2.300 . S
Cd672 O680 2.381 . S
Cd672 O681 2.378 . S
O673 Cd674 2.385 . S
O673 C678 1.255 . S
Cd674 O673 2.385 . S
Cd674 O675 2.317 . S
O675 Cd674 2.317 . S
O675 C676 1.232 . S
C676 O675 1.232 . S
C676 O677 1.218 . S
O677 C676 1.218 . S
C678 O671 1.275 . S
C678 O673 1.255 . S
C679 O680 1.258 . S
C679 O681 1.256 . S
O680 Cd672 2.381 . S
O680 C679 1.258 . S
O681 Cd672 2.378 . S
O681 C679 1.256 . S
O682 Cd683 2.300 . S
O682 C689 1.275 . S
Cd683 O682 2.300 . S
Cd683 O691 2.381 . S
Cd683 O692 2.378 . S
O684 Cd685 2.385 . S
O684 C689 1.255 . S
Cd685 O684 2.385 . S
Cd685 O686 2.317 . S
O686 Cd685 2.317 . S
O686 C687 1.232 . S
C687 O686 1.232 . S
C687 O688 1.218 . S
O688 C687 1.218 . S
C689 O682 1.275 . S
C689 O684 1.255 . S
C690 O691 1.258 . S
C690 O692 1.256 . S
O691 Cd683 2.381 . S
O691 C690 1.258 . S
O692 Cd683 2.378 . S
O692 C690 1.256 . S
O693 Cd694 2.300 . S
O693 C700 1.275 . S
Cd694 O693 2.300 . S
Cd694 O702 2.381 . S
Cd694 O703 2.378 . S
O695 Cd696 2.385 . S
O695 C700 1.255 . S
Cd696 O695 2.385 . S
Cd696 O697 2.317 . S
O697 Cd696 2.317 . S
O697 C698 1.232 . S
C698 O697 1.232 . S
C698 O699 1.218 . S
O699 C698 1.218 . S
C700 O693 1.275 . S
C700 O695 1.255 . S
C701 O702 1.258 . S
C701 O703 1.256 . S
O702 Cd694 2.381 . S
O702 C701 1.258 . S
O703 Cd694 2.378 . S
O703 C701 1.256 . S
O704 Cd705 2.300 . S
O704 C711 1.275 . S
Cd705 O704 2.300 . S
Cd705 O713 2.381 . S
Cd705 O714 2.378 . S
O706 Cd707 2.385 . S
O706 C711 1.255 . S
Cd707 O706 2.385 . S
Cd707 O708 2.317 . S
O708 Cd707 2.317 . S
O708 C709 1.232 . S
C709 O708 1.232 . S
C709 O710 1.218 . S
O710 C709 1.218 . S
C711 O704 1.275 . S
C711 O706 1.255 . S
C712 O713 1.258 . S
C712 O714 1.256 . S
O713 Cd705 2.381 . S
O713 C712 1.258 . S
O714 Cd705 2.378 . S
O714 C712 1.256 . S
O715 Cd716 2.300 . S
O715 C722 1.275 . S
Cd716 O715 2.300 . S
Cd716 O724 2.381 . S
Cd716 O725 2.378 . S
O717 Cd718 2.385 . S
O717 C722 1.255 . S
Cd718 O717 2.385 . S
Cd718 O719 2.317 . S
O719 Cd718 2.317 . S
O719 C720 1.232 . S
C720 O719 1.232 . S
C720 O721 1.218 . S
O721 C720 1.218 . S
C722 O715 1.275 . S
C722 O717 1.255 . S
C723 O724 1.258 . S
C723 O725 1.256 . S
O724 Cd716 2.381 . S
O724 C723 1.258 . S
O725 Cd716 2.378 . S
O725 C723 1.256 . S
O726 Cd727 2.300 . S
O726 C733 1.275 . S
Cd727 O726 2.300 . S
Cd727 O735 2.381 . S
Cd727 O736 2.378 . S
O728 Cd729 2.385 . S
O728 C733 1.255 . S
Cd729 O728 2.385 . S
Cd729 O730 2.317 . S
O730 Cd729 2.317 . S
O730 C731 1.232 . S
C731 O730 1.232 . S
C731 O732 1.218 . S
O732 C731 1.218 . S
C733 O726 1.275 . S
C733 O728 1.255 . S
C734 O735 1.258 . S
C734 O736 1.256 . S
O735 Cd727 2.381 . S
O735 C734 1.258 . S
O736 Cd727 2.378 . S
O736 C734 1.256 . S
O737 Cd738 2.300 . S
O737 C744 1.275 . S
Cd738 O737 2.300 . S
Cd738 O746 2.381 . S
Cd738 O747 2.378 . S
O739 Cd740 2.385 . S
O739 C744 1.255 . S
Cd740 O739 2.385 . S
Cd740 O741 2.317 . S
O741 Cd740 2.317 . S
O741 C742 1.232 . S
C742 O741 1.232 . S
C742 O743 1.218 . S
O743 C742 1.218 . S
C744 O737 1.275 . S
C744 O739 1.255 . S
C745 O746 1.258 . S
C745 O747 1.256 . S
O746 Cd738 2.381 . S
O746 C745 1.258 . S
O747 Cd738 2.378 . S
O747 C745 1.256 . S
O748 Cd749 2.300 . S
O748 C755 1.275 . S
Cd749 O748 2.300 . S
Cd749 O757 2.381 . S
Cd749 O758 2.378 . S
O750 Cd751 2.385 . S
O750 C755 1.255 . S
Cd751 O750 2.385 . S
Cd751 O752 2.317 . S
O752 Cd751 2.317 . S
O752 C753 1.232 . S
C753 O752 1.232 . S
C753 O754 1.218 . S
O754 C753 1.218 . S
C755 O748 1.275 . S
C755 O750 1.255 . S
C756 O757 1.258 . S
C756 O758 1.256 . S
O757 Cd749 2.381 . S
O757 C756 1.258 . S
O758 Cd749 2.378 . S
O758 C756 1.256 . S
O759 Cd760 2.300 . S
O759 C766 1.275 . S
Cd760 O759 2.300 . S
Cd760 O768 2.381 . S
Cd760 O769 2.378 . S
O761 Cd762 2.385 . S
O761 C766 1.255 . S
Cd762 O761 2.385 . S
Cd762 O763 2.317 . S
O763 Cd762 2.317 . S
O763 C764 1.232 . S
C764 O763 1.232 . S
C764 O765 1.218 . S
O765 C764 1.218 . S
C766 O759 1.275 . S
C766 O761 1.255 . S
C767 O768 1.258 . S
C767 O769 1.256 . S
O768 Cd760 2.381 . S
O768 C767 1.258 . S
O769 Cd760 2.378 . S
O769 C767 1.256 . S
O770 Cd771 2.300 . S
O770 C777 1.275 . S
Cd771 O770 2.300 . S
Cd771 O779 2.381 . S
Cd771 O780 2.378 . S
O772 Cd773 2.385 . S
O772 C777 1.255 . S
Cd773 O772 2.385 . S
Cd773 O774 2.317 . S
O774 Cd773 2.317 . S
O774 C775 1.232 . S
C775 O774 1.232 . S
C775 O776 1.218 . S
O776 C775 1.218 . S
C777 O770 1.275 . S
C777 O772 1.255 . S
C778 O779 1.258 . S
C778 O780 1.256 . S
O779 Cd771 2.381 . S
O779 C778 1.258 . S
O780 Cd771 2.378 . S
O780 C778 1.256 . S
O781 Cd782 2.300 . S
O781 C788 1.275 . S
Cd782 O781 2.300 . S
Cd782 O790 2.381 . S
Cd782 O791 2.378 . S
O783 Cd784 2.385 . S
O783 C788 1.255 . S
Cd784 O783 2.385 . S
Cd784 O785 2.317 . S
O785 Cd784 2.317 . S
O785 C786 1.232 . S
C786 O785 1.232 . S
C786 O787 1.218 . S
O787 C786 1.218 . S
C788 O781 1.275 . S
C788 O783 1.255 . S
C789 O790 1.258 . S
C789 O791 1.256 . S
O790 Cd782 2.381 . S
O790 C789 1.258 . S
O791 Cd782 2.378 . S
O791 C789 1.256 . S
O792 Cd793 2.300 . S
O792 C799 1.275 . S
Cd793 O792 2.300 . S
Cd793 O801 2.381 . S
Cd793 O802 2.378 . S
O794 Cd795 2.385 . S
O794 C799 1.255 . S
Cd795 O794 2.385 . S
Cd795 O796 2.317 . S
O796 Cd795 2.317 . S
O796 C797 1.232 . S
C797 O796 1.232 . S
C797 O798 1.218 . S
O798 C797 1.218 . S
C799 O792 1.275 . S
C799 O794 1.255 . S
C800 O801 1.258 . S
C800 O802 1.256 . S
O801 Cd793 2.381 . S
O801 C800 1.258 . S
O802 Cd793 2.378 . S
O802 C800 1.256 . S
O803 Cd804 2.300 . S
O803 C810 1.275 . S
Cd804 O803 2.300 . S
Cd804 O812 2.381 . S
Cd804 O813 2.378 . S
O805 Cd806 2.385 . S
O805 C810 1.255 . S
Cd806 O805 2.385 . S
Cd806 O807 2.317 . S
O807 Cd806 2.317 . S
O807 C808 1.232 . S
C808 O807 1.232 . S
C808 O809 1.218 . S
O809 C808 1.218 . S
C810 O803 1.275 . S
C810 O805 1.255 . S
C811 O812 1.258 . S
C811 O813 1.256 . S
O812 Cd804 2.381 . S
O812 C811 1.258 . S
O813 Cd804 2.378 . S
O813 C811 1.256 . S
O814 Cd815 2.300 . S
O814 C821 1.275 . S
Cd815 O814 2.300 . S
Cd815 O823 2.381 . S
Cd815 O824 2.378 . S
O816 Cd817 2.385 . S
O816 C821 1.255 . S
Cd817 O816 2.385 . S
Cd817 O818 2.317 . S
O818 Cd817 2.317 . S
O818 C819 1.232 . S
C819 O818 1.232 . S
C819 O820 1.218 . S
O820 C819 1.218 . S
C821 O814 1.275 . S
C821 O816 1.255 . S
C822 O823 1.258 . S
C822 O824 1.256 . S
O823 Cd815 2.381 . S
O823 C822 1.258 . S
O824 Cd815 2.378 . S
O824 C822 1.256 . S
O825 Cd826 2.300 . S
O825 C832 1.275 . S
Cd826 O825 2.300 . S
Cd826 O834 2.381 . S
Cd826 O835 2.378 . S
O827 Cd828 2.385 . S
O827 C832 1.255 . S
Cd828 O827 2.385 . S
Cd828 O829 2.317 . S
O829 Cd828 2.317 . S
O829 C830 1.232 . S
C830 O829 1.232 . S
C830 O831 1.218 . S
O831 C830 1.218 . S
C832 O825 1.275 . S
C832 O827 1.255 . S
C833 O834 1.258 . S
C833 O835 1.256 . S
O834 Cd826 2.381 . S
O834 C833 1.258 . S
O835 Cd826 2.378 . S
O835 C833 1.256 . S
O836 Cd837 2.300 . S
O836 C843 1.275 . S
Cd837 O836 2.300 . S
Cd837 O845 2.381 . S
Cd837 O846 2.378 . S
O838 Cd839 2.385 . S
O838 C843 1.255 . S
Cd839 O838 2.385 . S
Cd839 O840 2.317 . S
O840 Cd839 2.317 . S
O840 C841 1.232 . S
C841 O840 1.232 . S
C841 O842 1.218 . S
O842 C841 1.218 . S
C843 O836 1.275 . S
C843 O838 1.255 . S
C844 O845 1.258 . S
C844 O846 1.256 . S
O845 Cd837 2.381 . S
O845 C844 1.258 . S
O846 Cd837 2.378 . S
O846 C844 1.256 . S
O847 Cd848 2.300 . S
O847 C854 1.275 . S
Cd848 O847 2.300 . S
Cd848 O856 2.381 . S
Cd848 O857 2.378 . S
O849 Cd850 2.385 . S
O849 C854 1.255 . S
Cd850 O849 2.385 . S
Cd850 O851 2.317 . S
O851 Cd850 2.317 . S
O851 C852 1.232 . S
C852 O851 1.232 . S
C852 O853 1.218 . S
O853 C852 1.218 . S
C854 O847 1.275 . S
C854 O849 1.255 . S
C855 O856 1.258 . S
C855 O857 1.256 . S
O856 Cd848 2.381 . S
O856 C855 1.258 . S
O857 Cd848 2.378 . S
O857 C855 1.256 . S
O858 Cd859 2.300 . S
O858 C865 1.275 . S
Cd859 O858 2.300 . S
Cd859 O867 2.381 . S
Cd859 O868 2.378 . S
O860 Cd861 2.385 . S
O860 C865 1.255 . S
Cd861 O860 2.385 . S
Cd861 O862 2.317 . S
O862 Cd861 2.317 . S
O862 C863 1.232 . S
C863 O862 1.232 . S
C863 O864 1.218 . S
O864 C863 1.218 . S
C865 O858 1.275 . S
C865 O860 1.255 . S
C866 O867 1.258 . S
C866 O868 1.256 . S
O867 Cd859 2.381 . S
O867 C866 1.258 . S
O868 Cd859 2.378 . S
O868 C866 1.256 . S
O869 Cd870 2.300 . S
O869 C876 1.275 . S
Cd870 O869 2.300 . S
Cd870 O878 2.381 . S
Cd870 O879 2.378 . S
O871 Cd872 2.385 . S
O871 C876 1.255 . S
Cd872 O871 2.385 . S
Cd872 O873 2.317 . S
O873 Cd872 2.317 . S
O873 C874 1.232 . S
C874 O873 1.232 . S
C874 O875 1.218 . S
O875 C874 1.218 . S
C876 O869 1.275 . S
C876 O871 1.255 . S
C877 O878 1.258 . S
C877 O879 1.256 . S
O878 Cd870 2.381 . S
O878 C877 1.258 . S
O879 Cd870 2.378 . S
O879 C877 1.256 . S
O880 Cd881 2.300 . S
O880 C887 1.275 . S
Cd881 O880 2.300 . S
Cd881 O889 2.381 . S
Cd881 O890 2.378 . S
O882 Cd883 2.385 . S
O882 C887 1.255 . S
Cd883 O882 2.385 . S
Cd883 O884 2.317 . S
O884 Cd883 2.317 . S
O884 C885 1.232 . S
C885 O884 1.232 . S
C885 O886 1.218 . S
O886 C885 1.218 . S
C887 O880 1.275 . S
C887 O882 1.255 . S
C888 O889 1.258 . S
C888 O890 1.256 . S
O889 Cd881 2.381 . S
O889 C888 1.258 . S
O890 Cd881 2.378 . S
O890 C888 1.256 . S
O891 Cd892 2.300 . S
O891 C898 1.275 . S
Cd892 O891 2.300 . S
Cd892 O900 2.381 . S
Cd892 O901 2.378 . S
O893 Cd894 2.385 . S
O893 C898 1.255 . S
Cd894 O893 2.385 . S
Cd894 O895 2.317 . S
O895 Cd894 2.317 . S
O895 C896 1.232 . S
C896 O895 1.232 . S
C896 O897 1.218 . S
O897 C896 1.218 . S
C898 O891 1.275 . S
C898 O893 1.255 . S
C899 O900 1.258 . S
C899 O901 1.256 . S
O900 Cd892 2.381 . S
O900 C899 1.258 . S
O901 Cd892 2.378 . S
O901 C899 1.256 . S
O902 Cd903 2.300 . S
O902 C909 1.275 . S
Cd903 O902 2.300 . S
Cd903 O911 2.381 . S
Cd903 O912 2.378 . S
O904 Cd905 2.385 . S
O904 C909 1.255 . S
Cd905 O904 2.385 . S
Cd905 O906 2.317 . S
O906 Cd905 2.317 . S
O906 C907 1.232 . S
C907 O906 1.232 . S
C907 O908 1.218 . S
O908 C907 1.218 . S
C909 O902 1.275 . S
C909 O904 1.255 . S
C910 O911 1.258 . S
C910 O912 1.256 . S
O911 Cd903 2.381 . S
O911 C910 1.258 . S
O912 Cd903 2.378 . S
O912 C910 1.256 . S
O913 Cd914 2.300 . S
O913 C920 1.275 . S
Cd914 O913 2.300 . S
Cd914 O922 2.381 . S
Cd914 O923 2.378 . S
O915 Cd916 2.385 . S
O915 C920 1.255 . S
Cd916 O915 2.385 . S
Cd916 O917 2.317 . S
O917 Cd916 2.317 . S
O917 C918 1.232 . S
C918 O917 1.232 . S
C918 O919 1.218 . S
O919 C918 1.218 . S
C920 O913 1.275 . S
C920 O915 1.255 . S
C921 O922 1.258 . S
C921 O923 1.256 . S
O922 Cd914 2.381 . S
O922 C921 1.258 . S
O923 Cd914 2.378 . S
O923 C921 1.256 . S
O924 Cd925 2.300 . S
O924 C931 1.275 . S
Cd925 O924 2.300 . S
Cd925 O933 2.381 . S
Cd925 O934 2.378 . S
O926 Cd927 2.385 . S
O926 C931 1.255 . S
Cd927 O926 2.385 . S
Cd927 O928 2.317 . S
O928 Cd927 2.317 . S
O928 C929 1.232 . S
C929 O928 1.232 . S
C929 O930 1.218 . S
O930 C929 1.218 . S
C931 O924 1.275 . S
C931 O926 1.255 . S
C932 O933 1.258 . S
C932 O934 1.256 . S
O933 Cd925 2.381 . S
O933 C932 1.258 . S
O934 Cd925 2.378 . S
O934 C932 1.256 . S
O935 Cd936 2.300 . S
O935 C942 1.275 . S
Cd936 O935 2.300 . S
Cd936 O944 2.381 . S
Cd936 O945 2.378 . S
O937 Cd938 2.385 . S
O937 C942 1.255 . S
Cd938 O937 2.385 . S
Cd938 O939 2.317 . S
O939 Cd938 2.317 . S
O939 C940 1.232 . S
C940 O939 1.232 . S
C940 O941 1.218 . S
O941 C940 1.218 . S
C942 O935 1.275 . S
C942 O937 1.255 . S
C943 O944 1.258 . S
C943 O945 1.256 . S
O944 Cd936 2.381 . S
O944 C943 1.258 . S
O945 Cd936 2.378 . S
O945 C943 1.256 . S
O946 Cd947 2.300 . S
O946 C953 1.275 . S
Cd947 O946 2.300 . S
Cd947 O955 2.381 . S
Cd947 O956 2.378 . S
O948 Cd949 2.385 . S
O948 C953 1.255 . S
Cd949 O948 2.385 . S
Cd949 O950 2.317 . S
O950 Cd949 2.317 . S
O950 C951 1.232 . S
C951 O950 1.232 . S
C951 O952 1.218 . S
O952 C951 1.218 . S
C953 O946 1.275 . S
C953 O948 1.255 . S
C954 O955 1.258 . S
C954 O956 1.256 . S
O955 Cd947 2.381 . S
O955 C954 1.258 . S
O956 Cd947 2.378 . S
O956 C954 1.256 . S
O957 Cd958 2.300 . S
O957 C964 1.275 . S
Cd958 O957 2.300 . S
Cd958 O966 2.381 . S
Cd958 O967 2.378 . S
O959 Cd960 2.385 . S
O959 C964 1.255 . S
Cd960 O959 2.385 . S
Cd960 O961 2.317 . S
O961 Cd960 2.317 . S
O961 C962 1.232 . S
C962 O961 1.232 . S
C962 O963 1.218 . S
O963 C962 1.218 . S
C964 O957 1.275 . S
C964 O959 1.255 . S
C965 O966 1.258 . S
C965 O967 1.256 . S
O966 Cd958 2.381 . S
O966 C965 1.258 . S
O967 Cd958 2.378 . S
O967 C965 1.256 . S
O968 Cd969 2.300 . S
O968 C975 1.275 . S
Cd969 O968 2.300 . S
Cd969 O977 2.381 . S
Cd969 O978 2.378 . S
O970 Cd971 2.385 . S
O970 C975 1.255 . S
Cd971 O970 2.385 . S
Cd971 O972 2.317 . S
O972 Cd971 2.317 . S
O972 C973 1.232 . S
C973 O972 1.232 . S
C973 O974 1.218 . S
O974 C973 1.218 . S
C975 O968 1.275 . S
C975 O970 1.255 . S
C976 O977 1.258 . S
C976 O978 1.256 . S
O977 Cd969 2.381 . S
O977 C976 1.258 . S
O978 Cd969 2.378 . S
O978 C976 1.256 . S
O979 Cd980 2.300 . S
O979 C986 1.275 . S
Cd980 O979 2.300 . S
Cd980 O988 2.381 . S
Cd980 O989 2.378 . S
O981 Cd982 2.385 . S
O981 C986 1.255 . S
Cd982 O981 2.385 . S
Cd982 O983 2.317 . S
O983 Cd982 2.317 . S
O983 C984 1.232 . S
C984 O983 1.232 . S
C984 O985 1.218 . S
O985 C984 1.218 . S
C986 O979 1.275 . S
C986 O981 1.255 . S
C987 O988 1.258 . S
C987 O989 1.256 . S
O988 Cd980 2.381 . S
O988 C987 1.258 . S
O989 Cd980 2.378 . S
O989 C987 1.256 . S
O990 Cd991 2.300 . S
O990 C997 1.275 . S
Cd991 O990 2.300 . S
Cd991 O999 2.381 . S
Cd991 O1000 2.378 . S
O992 Cd993 2.385 . S
O992 C997 1.255 . S
Cd993 O992 2.385 . S
Cd993 O994 2.317 . S
O994 Cd993 2.317 . S
O994 C995 1.232 . S
C995 O994 1.232 . S
C995 O996 1.218 . S
O996 C995 1.218 . S
C997 O990 1.275 . S
C997 O992 1.255 . S
C998 O999 1.258 . S
C998 O1000 1.256 . S
O999 Cd991 2.381 . S
O999 C998 1.258 . S
O1000 Cd991 2.378 . S
O1000 C998 1.256 . S
O1001 Cd1002 2.300 . S
O1001 C1008 1.275 . S
Cd1002 O1001 2.300 . S
Cd1002 O1010 2.381 . S
Cd1002 O1011 2.378 . S
O1003 Cd1004 2.385 . S
O1003 C1008 1.255 . S
Cd1004 O1003 2.385 . S
Cd1004 O1005 2.317 . S
O1005 Cd1004 2.317 . S
O1005 C1006 1.232 . S
C1006 O1005 1.232 . S
C1006 O1007 1.218 . S
O1007 C1006 1.218 . S
C1008 O1001 1.275 . S
C1008 O1003 1.255 . S
C1009 O1010 1.258 . S
C1009 O1011 1.256 . S
O1010 Cd1002 2.381 . S
O1010 C1009 1.258 . S
O1011 Cd1002 2.378 . S
O1011 C1009 1.256 . S
O1012 Cd1013 2.300 . S
O1012 C1019 1.275 . S
Cd1013 O1012 2.300 . S
Cd1013 O1021 2.381 . S
Cd1013 O1022 2.378 . S
O1014 Cd1015 2.385 . S
O1014 C1019 1.255 . S
Cd1015 O1014 2.385 . S
Cd1015 O1016 2.317 . S
O1016 Cd1015 2.317 . S
O1016 C1017 1.232 . S
C1017 O1016 1.232 . S
C1017 O1018 1.218 . S
O1018 C1017 1.218 . S
C1019 O1012 1.275 . S
C1019 O1014 1.255 . S
C1020 O1021 1.258 . S
C1020 O1022 1.256 . S
O1021 Cd1013 2.381 . S
O1021 C1020 1.258 . S
O1022 Cd1013 2.378 . S
O1022 C1020 1.256 . S
O1023 Cd1024 2.300 . S
O1023 C1030 1.275 . S
Cd1024 O1023 2.300 . S
Cd1024 O1032 2.381 . S
Cd1024 O1033 2.378 . S
O1025 Cd1026 2.385 . S
O1025 C1030 1.255 . S
Cd1026 O1025 2.385 . S
Cd1026 O1027 2.317 . S
O1027 Cd1026 2.317 . S
O1027 C1028 1.232 . S
C1028 O1027 1.232 . S
C1028 O1029 1.218 . S
O1029 C1028 1.218 . S
C1030 O1023 1.275 . S
C1030 O1025 1.255 . S
C1031 O1032 1.258 . S
C1031 O1033 1.256 . S
O1032 Cd1024 2.381 . S
O1032 C1031 1.258 . S
O1033 Cd1024 2.378 . S
O1033 C1031 1.256 . S
O1034 Cd1035 2.300 . S
O1034 C1041 1.275 . S
Cd1035 O1034 2.300 . S
Cd1035 O1043 2.381 . S
Cd1035 O1044 2.378 . S
O1036 Cd1037 2.385 . S
O1036 C1041 1.255 . S
Cd1037 O1036 2.385 . S
Cd1037 O1038 2.317 . S
O1038 Cd1037 2.317 . S
O1038 C1039 1.232 . S
C1039 O1038 1.232 . S
C1039 O1040 1.218 . S
O1040 C1039 1.218 . S
C1041 O1034 1.275 . S
C1041 O1036 1.255 . S
C1042 O1043 1.258 . S
C1042 O1044 1.256 . S
O1043 Cd1035 2.381 . S
O1043 C1042 1.258 . S
O1044 Cd1035 2.378 . S
O1044 C1042 1.256 . S
O1045 Cd1046 2.300 . S
O1045 C1052 1.275 . S
Cd1046 O1045 2.300 . S
Cd1046 O1054 2.381 . S
Cd1046 O1055 2.378 . S
O1047 Cd1048 2.385 . S
O1047 C1052 1.255 . S
Cd1048 O1047 2.385 . S
Cd1048 O1049 2.317 . S
O1049 Cd1048 2.317 . S
O1049 C1050 1.232 . S
C1050 O1049 1.232 . S
C1050 O1051 1.218 . S
O1051 C1050 1.218 . S
C1052 O1045 1.275 . S
C1052 O1047 1.255 . S
C1053 O1054 1.258 . S
C1053 O1055 1.256 . S
O1054 Cd1046 2.381 . S
O1054 C1053 1.258 . S
O1055 Cd1046 2.378 . S
O1055 C1053 1.256 . S
C8 C756 1.978 . S
C723 C19 1.634 . S
C30 C734 1.691 . S
C745 C41 1.596 . S
C52 C789 1.684 . S
C767 C63 1.694 . S
C778 C74 1.815 . S
C712 C85 1.962 . S
C96 C701 1.949 . S
C107 C668 1.582 . S
C118 C679 1.567 . S
C129 C690 1.592 . S
C635 C140 1.582 . S
C151 C646 1.567 . S
C657 C162 1.592 . S
C173 C624 1.949 . S
C184 C613 1.963 . S
C195 C547 1.634 . S
C206 C558 1.691 . S
C217 C569 1.596 . S
C536 C228 1.976 . S
C591 C239 1.694 . S
C602 C250 1.815 . S
C261 C580 1.684 . S
C1020 C272 1.601 . S
C283 C987 1.611 . S
C294 C998 1.683 . S
C305 C1009 1.932 . S
C316 C1053 1.680 . S
C327 C1031 1.684 . S
C1042 C338 1.567 . S
C349 C976 1.592 . S
C360 C965 1.582 . S
C932 C371 1.912 . S
C943 C382 1.929 . S
C954 C393 1.925 . S
C899 C404 1.912 . S
C415 C910 1.927 . S
C921 C426 1.925 . S
C888 C437 1.583 . S
C448 C877 1.592 . S
C459 C811 1.611 . S
C822 C470 1.683 . S
C833 C481 1.932 . S
C800 C492 1.601 . S
C855 C503 1.684 . S
C866 C514 1.566 . S
C844 C525 1.681 . S
C5 C434 1.452 . S
C401 C16 2.428 . S
C27 C412 2.379 . S
C423 C38 1.467 . S
C49 C368 1.467 . S
C60 C379 2.383 . S
C390 C71 2.422 . S
C82 C357 1.448 . S
C346 C93 1.431 . S
C313 C104 1.460 . S
C115 C324 0.659 . S
C126 C335 0.650 . S
C280 C137 0.649 . S
C148 C291 0.660 . S
C159 C302 1.469 . S
C170 C269 1.435 . S
C489 C181 1.443 . S
C522 C192 0.656 . S
C203 C500 1.457 . S
C214 C511 0.649 . S
C445 C225 1.449 . S
C467 C236 1.464 . S
C478 C247 2.416 . S
C258 C456 2.398 . S
C962 C533 1.452 . S
C929 C544 2.427 . S
C940 C555 2.380 . S
C566 C951 1.467 . S
C896 C577 1.466 . S
C588 C907 2.382 . S
C918 C599 2.424 . S
C885 C610 1.448 . S
C621 C874 1.430 . S
C632 C841 1.460 . S
C852 C643 0.659 . S
C863 C654 0.650 . S
C808 C665 0.649 . S
C819 C676 0.660 . S
C830 C687 1.469 . S
C698 C797 1.435 . S
C1017 C709 1.442 . S
C1050 C720 0.656 . S
C731 C1028 1.458 . S
C742 C1039 0.649 . S
C753 C973 1.449 . S
C764 C995 1.464 . S
C1006 C775 2.417 . S
C984 C786 2.397 . S
C315 C7 1.977 1_655 S
C326 C18 1.540 1_565 S
C337 C29 1.525 . S
C348 C40 1.383 . S
C271 C51 1.382 1_655 S
C62 C282 1.531 1_545 S
C73 C293 1.532 . S
C304 C84 1.979 . S
C425 C95 1.976 . S
C106 C436 1.382 1_655 S
C117 C403 1.525 1_565 S
C414 C128 1.514 1_655 S
C139 C381 1.510 1_565 S
C150 C392 1.528 1_455 S
C161 C359 1.382 . S
C370 C172 1.977 1_455 S
C502 C183 1.980 . S
C480 C194 1.532 1_554 S
C491 C205 1.386 . S
C458 C216 1.532 1_554 S
C227 C469 1.981 . S
C447 C238 1.384 . S
C524 C249 1.522 1_556 S
C513 C260 1.515 1_556 S
C535 C843 1.977 . S
C546 C854 1.540 . S
C557 C865 1.525 . S
C876 C568 1.383 . S
C799 C579 1.382 . S
C590 C810 1.531 . S
C821 C601 1.532 . S
C832 C612 1.979 . S
C623 C953 1.976 . S
C634 C964 1.382 . S
C645 C931 1.524 . S
C942 C656 1.514 . S
C667 C909 1.510 . S
C678 C920 1.528 . S
C689 C887 1.382 . S
C700 C898 1.977 . S
C711 C1030 1.980 . S
C1008 C722 1.532 . S
C733 C1019 1.386 . S
C986 C744 1.532 . S
C997 C755 1.982 . S
C766 C975 1.384 . S
C1052 C777 1.523 . S
C1041 C788 1.515 . S
