# Generated by pormake.
# Topology uki, (4)-cn, num edge types: 1
# Building blocks:
#     Node 0, Type 0, BuildingBlock: QUQFOY_clean_sbu_3, # of connection points: 4
#     Node 1, Type 0, BuildingBlock: QUQFOY_clean_sbu_3, # of connection points: 4
#     Node 2, Type 0, BuildingBlock: QUQFOY_clean_sbu_3, # of connection points: 4
#     Node 3, Type 0, BuildingBlock: QUQFOY_clean_sbu_3, # of connection points: 4
#     Node 4, Type 0, BuildingBlock: QUQFOY_clean_sbu_3, # of connection points: 4
#     Node 5, Type 0, BuildingBlock: QUQFOY_clean_sbu_3, # of connection points: 4
#     Node 6, Type 0, BuildingBlock: QUQFOY_clean_sbu_3, # of connection points: 4
#     Node 7, Type 0, BuildingBlock: QUQFOY_clean_sbu_3, # of connection points: 4
#     Node 8, Type 0, BuildingBlock: QUQFOY_clean_sbu_3, # of connection points: 4
#     Node 9, Type 0, BuildingBlock: QUQFOY_clean_sbu_3, # of connection points: 4
#     Node 10, Type 0, BuildingBlock: QUQFOY_clean_sbu_3, # of connection points: 4
#     Node 11, Type 0, BuildingBlock: QUQFOY_clean_sbu_3, # of connection points: 4
#     Node 12, Type 0, BuildingBlock: QUQFOY_clean_sbu_3, # of connection points: 4
#     Node 13, Type 0, BuildingBlock: QUQFOY_clean_sbu_3, # of connection points: 4
#     Node 14, Type 0, BuildingBlock: QUQFOY_clean_sbu_3, # of connection points: 4
#     Node 15, Type 0, BuildingBlock: QUQFOY_clean_sbu_3, # of connection points: 4
#     Edge 16, Type (0, 0), BuildingBlock: UVAHIK_clean_linker_0, # of connection points: 2
#     Edge 17, Type (0, 0), BuildingBlock: UVAHIK_clean_linker_0, # of connection points: 2
#     Edge 18, Type (0, 0), BuildingBlock: UVAHIK_clean_linker_0, # of connection points: 2
#     Edge 19, Type (0, 0), BuildingBlock: UVAHIK_clean_linker_0, # of connection points: 2
#     Edge 20, Type (0, 0), BuildingBlock: UVAHIK_clean_linker_0, # of connection points: 2
#     Edge 21, Type (0, 0), BuildingBlock: UVAHIK_clean_linker_0, # of connection points: 2
#     Edge 22, Type (0, 0), BuildingBlock: UVAHIK_clean_linker_0, # of connection points: 2
#     Edge 23, Type (0, 0), BuildingBlock: UVAHIK_clean_linker_0, # of connection points: 2
#     Edge 24, Type (0, 0), BuildingBlock: UVAHIK_clean_linker_0, # of connection points: 2
#     Edge 25, Type (0, 0), BuildingBlock: UVAHIK_clean_linker_0, # of connection points: 2
#     Edge 26, Type (0, 0), BuildingBlock: UVAHIK_clean_linker_0, # of connection points: 2
#     Edge 27, Type (0, 0), BuildingBlock: UVAHIK_clean_linker_0, # of connection points: 2
#     Edge 28, Type (0, 0), BuildingBlock: UVAHIK_clean_linker_0, # of connection points: 2
#     Edge 29, Type (0, 0), BuildingBlock: UVAHIK_clean_linker_0, # of connection points: 2
#     Edge 30, Type (0, 0), BuildingBlock: UVAHIK_clean_linker_0, # of connection points: 2
#     Edge 31, Type (0, 0), BuildingBlock: UVAHIK_clean_linker_0, # of connection points: 2
#     Edge 32, Type (0, 0), BuildingBlock: UVAHIK_clean_linker_0, # of connection points: 2
#     Edge 33, Type (0, 0), BuildingBlock: UVAHIK_clean_linker_0, # of connection points: 2
#     Edge 34, Type (0, 0), BuildingBlock: UVAHIK_clean_linker_0, # of connection points: 2
#     Edge 35, Type (0, 0), BuildingBlock: UVAHIK_clean_linker_0, # of connection points: 2
#     Edge 36, Type (0, 0), BuildingBlock: UVAHIK_clean_linker_0, # of connection points: 2
#     Edge 37, Type (0, 0), BuildingBlock: UVAHIK_clean_linker_0, # of connection points: 2
#     Edge 38, Type (0, 0), BuildingBlock: UVAHIK_clean_linker_0, # of connection points: 2
#     Edge 39, Type (0, 0), BuildingBlock: UVAHIK_clean_linker_0, # of connection points: 2
#     Edge 40, Type (0, 0), BuildingBlock: UVAHIK_clean_linker_0, # of connection points: 2
#     Edge 41, Type (0, 0), BuildingBlock: UVAHIK_clean_linker_0, # of connection points: 2
#     Edge 42, Type (0, 0), BuildingBlock: UVAHIK_clean_linker_0, # of connection points: 2
#     Edge 43, Type (0, 0), BuildingBlock: UVAHIK_clean_linker_0, # of connection points: 2
#     Edge 44, Type (0, 0), BuildingBlock: UVAHIK_clean_linker_0, # of connection points: 2
#     Edge 45, Type (0, 0), BuildingBlock: UVAHIK_clean_linker_0, # of connection points: 2
#     Edge 46, Type (0, 0), BuildingBlock: UVAHIK_clean_linker_0, # of connection points: 2
#     Edge 47, Type (0, 0), BuildingBlock: UVAHIK_clean_linker_0, # of connection points: 2
# Relax obj value: 0.098
# Max RMSD: 0.201
# Mean RMSD: 0.200
data_MOF--net-uki--node1-QUQFOY_clean_sbu_3--edge1-UVAHIK_clean_linker_0
_symmetry_space_group_name_H-M    P1
_symmetry_Int_Tables_number       1
_symmetry_cell_setting            triclinic
loop_
_symmetry_equiv_pos_as_xyz
'x, y, z'
_cell_length_a     42.792797
_cell_length_b     42.042855
_cell_length_c     95.986246
_cell_angle_alpha  89.389605
_cell_angle_beta   90.478793
_cell_angle_gamma 90.305749
loop_
_atom_site_label
_atom_site_type_symbol
_atom_site_fract_x
_atom_site_fract_y
_atom_site_fract_z
_atom_type_partial_charge
C0 C 0.04561 0.11447 0.26956 0.0
O1 O 0.05299 0.12527 0.25763 0.0
Cd2 Cd 0.06063 0.18066 0.25311 0.0
O3 O 0.04652 0.1325 0.28016 0.0
Cd4 Cd 0.06285 0.18805 0.28592 0.0
C5 C -0.00487 0.20805 0.27083 0.0
O6 O 0.10007 0.20298 0.26749 0.0
O7 O 0.07516 0.24101 0.2774 0.0
O8 O 0.10035 0.16506 0.30233 0.0
C9 C 0.09609 0.23268 0.26894 0.0
O10 O 0.01059 0.20285 0.2598 0.0
C11 C 0.09507 0.18406 0.31221 0.0
O12 O 0.00735 0.20306 0.28284 0.0
O13 O 0.07343 0.20431 0.31023 0.0
C14 C 0.19412 0.83051 0.73231 0.0
O15 O 0.17431 0.84642 0.73909 0.0
Cd16 Cd 0.13635 0.88172 0.72833 0.0
O17 O 0.19439 0.8318 0.71904 0.0
Cd18 Cd 0.16689 0.85765 0.69922 0.0
C19 C 0.18885 0.93019 0.71128 0.0
O20 O 0.11348 0.85767 0.70834 0.0
O21 O 0.12162 0.88522 0.68962 0.0
O22 O 0.16983 0.80702 0.68703 0.0
C23 C 0.10259 0.87589 0.69887 0.0
O24 O 0.16725 0.92671 0.72023 0.0
C25 C 0.18147 0.81848 0.67592 0.0
O26 O 0.19603 0.90779 0.70304 0.0
O27 O 0.18696 0.84824 0.6757 0.0
C28 C 0.88288 0.81494 0.26885 0.0
O29 O 0.87724 0.80329 0.25693 0.0
Cd30 Cd 0.87196 0.74723 0.25339 0.0
O31 O 0.88106 0.79752 0.27977 0.0
Cd32 Cd 0.86565 0.74245 0.28681 0.0
C33 C 0.93623 0.72495 0.27393 0.0
O34 O 0.83201 0.72467 0.26739 0.0
O35 O 0.85313 0.68856 0.28055 0.0
O36 O 0.82612 0.76682 0.3013 0.0
C37 C 0.83504 0.69534 0.27044 0.0
O38 O 0.92224 0.7292 0.26229 0.0
C39 C 0.83108 0.74964 0.31203 0.0
O40 O 0.92193 0.72884 0.28543 0.0
O41 O 0.85337 0.72979 0.31139 0.0
C42 C 0.73277 0.10375 0.73401 0.0
O43 O 0.75316 0.08753 0.74061 0.0
Cd44 Cd 0.79152 0.05375 0.72969 0.0
O45 O 0.73169 0.10351 0.72074 0.0
Cd46 Cd 0.75826 0.07913 0.70078 0.0
C47 C 0.73966 0.00497 0.71254 0.0
O48 O 0.81243 0.07911 0.70953 0.0
O49 O 0.80304 0.05322 0.69065 0.0
O50 O 0.75394 0.12999 0.68831 0.0
C51 C 0.82269 0.06176 0.69984 0.0
O52 O 0.7618 0.00842 0.72135 0.0
C53 C 0.74158 0.11853 0.67736 0.0
O54 O 0.73089 0.02781 0.70458 0.0
O55 O 0.73617 0.08876 0.67742 0.0
C56 C 0.04554 0.32122 0.9608 0.0
O57 O 0.05145 0.30998 0.97285 0.0
Cd58 Cd 0.05197 0.25399 0.97661 0.0
O59 O 0.04638 0.30324 0.95019 0.0
Cd60 Cd 0.06162 0.24731 0.94452 0.0
C61 C -0.01113 0.23422 0.955 0.0
O62 O 0.09317 0.22873 0.96454 0.0
O63 O 0.06703 0.19322 0.95316 0.0
O64 O 0.10398 0.26894 0.93037 0.0
C65 C 0.08701 0.19953 0.96257 0.0
O66 O 0.00102 0.23891 0.96697 0.0
C67 C 0.09956 0.25091 0.92 0.0
O68 O 0.00516 0.23604 0.94395 0.0
O69 O 0.07647 0.23178 0.92068 0.0
C70 C 0.22973 0.83309 -0.00177 0.0
O71 O 0.24953 0.85005 -0.00832 0.0
Cd72 Cd 0.28764 0.88454 0.00274 0.0
O73 O 0.22936 0.83285 0.0115 0.0
Cd74 Cd 0.25684 0.85721 0.0316 0.0
C75 C 0.23536 0.9309 0.02027 0.0
O76 O 0.31026 0.85855 0.02246 0.0
O77 O 0.30229 0.88404 0.04146 0.0
O78 O 0.2534 0.80565 0.04357 0.0
C79 C 0.32126 0.87588 0.0321 0.0
O80 O 0.25701 0.92849 0.01132 0.0
C81 C 0.24209 0.81638 0.05477 0.0
O82 O 0.22799 0.90759 0.02825 0.0
O83 O 0.23692 0.84612 0.05511 0.0
C84 C 0.8839 0.61919 0.96152 0.0
O85 O 0.87892 0.63051 0.97351 0.0
Cd86 Cd 0.87478 0.68649 0.97732 0.0
O87 O 0.88185 0.63694 0.9507 0.0
Cd88 Cd 0.86679 0.69231 0.94406 0.0
C89 C 0.93832 0.70901 0.95674 0.0
O90 O 0.83431 0.70969 0.96365 0.0
O91 O 0.85547 0.74607 0.95069 0.0
O92 O 0.82622 0.66849 0.92952 0.0
C93 C 0.83764 0.7391 0.96076 0.0
O94 O 0.92491 0.70445 0.9684 0.0
C95 C 0.83084 0.686 0.91888 0.0
O96 O 0.9233 0.70562 0.94527 0.0
O97 O 0.85339 0.7058 0.91959 0.0
C98 C 0.69834 0.11017 0.00025 0.0
O99 O 0.67662 0.09888 -0.00735 0.0
Cd100 Cd 0.64148 0.05867 0.00157 0.0
O101 O 0.69933 0.10369 0.01325 0.0
Cd102 Cd 0.67038 0.07606 0.0322 0.0
C103 C 0.69745 0.00973 0.0172 0.0
O104 O 0.61711 0.07585 0.02245 0.0
O105 O 0.62622 0.04532 0.04031 0.0
O106 O 0.67179 0.12663 0.04428 0.0
C107 C 0.60692 0.05558 0.03127 0.0
O108 O 0.67816 0.01648 0.00743 0.0
C109 C 0.68236 0.11567 0.05575 0.0
O110 O 0.70049 0.02743 0.02785 0.0
O111 O 0.68798 0.08599 0.05631 0.0
C112 C 0.54122 0.61628 0.77034 0.0
O113 O 0.54707 0.62725 0.75826 0.0
Cd114 Cd 0.55141 0.683 0.75389 0.0
O115 O 0.5424 0.63446 0.78088 0.0
Cd116 Cd 0.55728 0.6905 0.78653 0.0
C117 C 0.48672 0.7065 0.77318 0.0
O118 O 0.59213 0.70622 0.76739 0.0
O119 O 0.56793 0.74389 0.77789 0.0
O120 O 0.59645 0.66741 0.8021 0.0
C121 C 0.58811 0.73585 0.76902 0.0
O122 O 0.50073 0.70162 0.76173 0.0
C123 C 0.59205 0.68609 0.81217 0.0
O124 O 0.50108 0.70331 0.78483 0.0
O125 O 0.57028 0.70639 0.81069 0.0
C126 C 0.69332 0.32329 0.23142 0.0
O127 O 0.67234 0.33458 0.23921 0.0
Cd128 Cd 0.63637 0.37427 0.23032 0.0
O129 O 0.69316 0.32959 0.2184 0.0
Cd130 Cd 0.66401 0.35666 0.19939 0.0
C131 C 0.69206 0.42316 0.21454 0.0
O132 O 0.61122 0.35804 0.2092 0.0
O133 O 0.62047 0.38759 0.19108 0.0
O134 O 0.6642 0.30651 0.18688 0.0
C135 C 0.60137 0.37848 0.20034 0.0
O136 O 0.67311 0.41649 0.22433 0.0
C137 C 0.67589 0.31779 0.17574 0.0
O138 O 0.69454 0.40537 0.20392 0.0
O139 O 0.6824 0.34736 0.17558 0.0
C140 C 0.38703 0.31244 0.77198 0.0
O141 O 0.38023 0.3015 0.76005 0.0
Cd142 Cd 0.37645 0.24562 0.7563 0.0
O143 O 0.38658 0.29427 0.7827 0.0
Cd144 Cd 0.37172 0.23846 0.78913 0.0
C145 C 0.44215 0.22364 0.7761 0.0
O146 O 0.33704 0.22125 0.77006 0.0
O147 O 0.36272 0.18468 0.78116 0.0
O148 O 0.33225 0.26162 0.804 0.0
C149 C 0.3423 0.19183 0.77203 0.0
O150 O 0.42767 0.22823 0.76459 0.0
C151 C 0.33702 0.24357 0.81447 0.0
O152 O 0.42813 0.22655 0.78771 0.0
O153 O 0.35905 0.22351 0.81351 0.0
C154 C 0.22857 0.60324 0.23424 0.0
O155 O 0.24893 0.5877 0.24116 0.0
Cd156 Cd 0.28949 0.55554 0.23096 0.0
O157 O 0.22864 0.60304 0.22096 0.0
Cd158 Cd 0.25794 0.57946 0.2015 0.0
C159 C 0.24159 0.50446 0.21291 0.0
O160 O 0.31116 0.58211 0.2113 0.0
O161 O 0.30498 0.55564 0.19234 0.0
O162 O 0.25265 0.62998 0.1888 0.0
C163 C 0.32324 0.56527 0.20187 0.0
O164 O 0.26274 0.50888 0.22211 0.0
C165 C 0.24188 0.61789 0.17766 0.0
O166 O 0.2325 0.52692 0.20482 0.0
O167 O 0.23774 0.58792 0.17771 0.0
C168 C 0.54534 0.82095 0.46052 0.0
O169 O 0.55296 0.80996 0.47243 0.0
Cd170 Cd 0.55981 0.7544 0.47681 0.0
O171 O 0.54585 0.80311 0.44987 0.0
Cd172 Cd 0.56194 0.74787 0.44394 0.0
C173 C 0.4941 0.72736 0.45832 0.0
O174 O 0.59829 0.73105 0.46268 0.0
O175 O 0.57186 0.69444 0.45211 0.0
O176 O 0.6006 0.7714 0.42845 0.0
C177 C 0.59279 0.7016 0.46097 0.0
O178 O 0.50969 0.73249 0.46946 0.0
C179 C 0.59534 0.75319 0.41823 0.0
O180 O 0.50623 0.73264 0.44638 0.0
O181 O 0.57323 0.73304 0.41959 0.0
C182 C 0.73 0.33337 0.49871 0.0
O183 O 0.7502 0.34944 0.49197 0.0
Cd184 Cd 0.78895 0.38376 0.50279 0.0
O185 O 0.72957 0.33402 0.51197 0.0
Cd186 Cd 0.75719 0.35857 0.5319 0.0
C187 C 0.73783 0.43233 0.51994 0.0
O188 O 0.81075 0.35873 0.52293 0.0
O189 O 0.80279 0.38466 0.54182 0.0
O190 O 0.75269 0.30731 0.54393 0.0
C191 C 0.82176 0.37623 0.53251 0.0
O192 O 0.75928 0.42875 0.51098 0.0
C193 C 0.74146 0.31833 0.55509 0.0
O194 O 0.72978 0.40967 0.52815 0.0
O195 O 0.73683 0.34816 0.5554 0.0
C196 C 0.38318 0.1189 0.46223 0.0
O197 O 0.37679 0.1292 0.47425 0.0
Cd198 Cd 0.37284 0.18494 0.47826 0.0
O199 O 0.38201 0.1375 0.45166 0.0
Cd200 Cd 0.36609 0.19322 0.44582 0.0
C201 C 0.4372 0.20887 0.45842 0.0
O202 O 0.33223 0.20955 0.46508 0.0
O203 O 0.35793 0.24657 0.45427 0.0
O204 O 0.32569 0.17021 0.431 0.0
C205 C 0.33759 0.23906 0.46326 0.0
O206 O 0.4235 0.20367 0.46998 0.0
C207 C 0.32984 0.18865 0.42063 0.0
O208 O 0.42244 0.20604 0.44687 0.0
O209 O 0.35195 0.20889 0.42161 0.0
C210 C 0.19875 0.60191 0.50003 0.0
O211 O 0.17771 0.58835 0.49276 0.0
Cd212 Cd 0.13773 0.55431 0.50295 0.0
O213 O 0.19837 0.59968 0.51327 0.0
Cd214 Cd 0.16829 0.57682 0.53281 0.0
C215 C 0.18755 0.50379 0.52095 0.0
O216 O 0.11539 0.57866 0.52276 0.0
O217 O 0.1218 0.55115 0.54172 0.0
O218 O 0.17328 0.62812 0.54429 0.0
C219 C 0.10353 0.56093 0.53216 0.0
O220 O 0.16685 0.50843 0.51153 0.0
C221 C 0.18329 0.61703 0.55584 0.0
O222 O 0.19506 0.52557 0.52955 0.0
O223 O 0.18706 0.58707 0.55665 0.0
C224 C 0.09776 0.28655 0.25787 0.0
C225 C 0.11129 0.25641 0.25975 0.0
C226 C 0.11193 0.30939 0.24934 0.0
C227 C 0.18734 0.33631 0.23818 0.0
H228 H 0.14137 0.38679 0.21095 0.0
C229 C 0.2453 0.44563 0.21368 0.0
C230 C 0.22671 0.47288 0.21241 0.0
C231 C 0.23162 0.41583 0.2159 0.0
C232 C 0.15452 0.37312 0.21858 0.0
H233 H 0.15008 0.22638 0.2541 0.0
H234 H 0.17561 0.26703 0.23949 0.0
H235 H 0.11638 0.34068 0.22195 0.0
H236 H 0.17935 0.49054 0.21181 0.0
H237 H 0.15525 0.4388 0.2164 0.0
H238 H 0.22465 0.36954 0.23574 0.0
C239 C 0.15375 0.27261 0.2445 0.0
C240 C 0.14025 0.34659 0.22479 0.0
C241 C 0.13919 0.24944 0.25283 0.0
C242 C 0.1941 0.46973 0.21264 0.0
C243 C 0.18036 0.43998 0.21524 0.0
C244 C 0.20142 0.36311 0.23219 0.0
C245 C 0.14021 0.30279 0.24271 0.0
C246 C 0.15639 0.32829 0.23481 0.0
C247 C 0.19904 0.41277 0.21736 0.0
C248 C 0.18505 0.38225 0.22246 0.0
H249 H 0.07614 0.29255 0.26299 0.0
H250 H 0.10123 0.3326 0.24827 0.0
H251 H 0.20012 0.32283 0.24602 0.0
H252 H 0.27055 0.44753 0.21341 0.0
H253 H 0.24676 0.3954 0.21699 0.0
C254 C 0.43628 0.70964 0.76012 0.0
C255 C 0.45313 0.71495 0.77252 0.0
C256 C 0.40499 0.71818 0.75892 0.0
C257 C 0.3477 0.77394 0.7718 0.0
H258 H 0.29045 0.72025 0.75095 0.0
C259 C 0.22474 0.81682 0.75404 0.0
C260 C 0.21859 0.81201 0.73978 0.0
C261 C 0.25004 0.80172 0.76064 0.0
C262 C 0.30611 0.73551 0.75681 0.0
H263 H 0.45004 0.73314 0.79351 0.0
H264 H 0.39484 0.74866 0.79132 0.0
H265 H 0.34123 0.69957 0.75821 0.0
H266 H 0.23345 0.78655 0.72147 0.0
H267 H 0.27722 0.76024 0.73295 0.0
H268 H 0.31293 0.8103 0.76991 0.0
C269 C 0.40618 0.73769 0.78256 0.0
C270 C 0.33516 0.72366 0.76099 0.0
C271 C 0.43768 0.72873 0.78383 0.0
C272 C 0.23752 0.79085 0.73244 0.0
C273 C 0.26253 0.77558 0.73906 0.0
C274 C 0.31852 0.78583 0.76762 0.0
C275 C 0.38956 0.73247 0.77006 0.0
C276 C 0.35673 0.7431 0.76808 0.0
C277 C 0.26941 0.7812 0.75317 0.0
C278 C 0.29788 0.76707 0.75966 0.0
H279 H 0.44731 0.69895 0.75121 0.0
H280 H 0.39308 0.71432 0.74908 0.0
H281 H 0.36387 0.78955 0.77718 0.0
H282 H 0.21065 0.83302 0.75999 0.0
H283 H 0.25464 0.80636 0.77155 0.0
C284 C 0.72483 0.45776 0.22945 0.0
C285 C 0.71235 0.45126 0.21622 0.0
C286 C 0.74215 0.48535 0.2317 0.0
C287 C 0.74692 0.56653 0.22312 0.0
H288 H 0.82856 0.56256 0.24088 0.0
C289 C 0.80754 0.67631 0.24874 0.0
C290 C 0.82159 0.66978 0.26174 0.0
C291 C 0.79675 0.65139 0.24034 0.0
C292 C 0.80576 0.56413 0.23594 0.0
H293 H 0.70822 0.4682 0.1949 0.0
H294 H 0.73791 0.51778 0.19904 0.0
H295 H 0.80578 0.51472 0.23074 0.0
H296 H 0.83447 0.63219 0.27632 0.0
H297 H 0.8152 0.5892 0.26196 0.0
H298 H 0.74583 0.61542 0.22923 0.0
C299 C 0.73461 0.50095 0.20753 0.0
C300 C 0.79294 0.53683 0.23002 0.0
C301 C 0.71785 0.4727 0.20516 0.0
C302 C 0.82405 0.63805 0.26629 0.0
C303 C 0.81325 0.61332 0.25798 0.0
C304 C 0.75962 0.59389 0.22921 0.0
C305 C 0.74679 0.50739 0.22085 0.0
C306 C 0.76301 0.53756 0.22399 0.0
C307 C 0.79986 0.61957 0.24482 0.0
C308 C 0.78866 0.59262 0.23617 0.0
H309 H 0.72095 0.44154 0.23813 0.0
H310 H 0.75112 0.48998 0.24208 0.0
H311 H 0.72364 0.56748 0.21862 0.0
H312 H 0.80541 0.70057 0.24495 0.0
H313 H 0.7865 0.65698 0.23026 0.0
C314 C 0.4917 0.20111 0.78673 0.0
C315 C 0.47586 0.21582 0.77552 0.0
C316 C 0.52321 0.19241 0.78544 0.0
C317 C 0.59354 0.20832 0.76399 0.0
H318 H 0.61576 0.12076 0.7721 0.0
C319 C 0.68933 0.14332 0.73459 0.0
C320 C 0.70863 0.1215 0.7417 0.0
C321 C 0.66471 0.15804 0.74141 0.0
C322 C 0.61018 0.14547 0.77003 0.0
H323 H 0.48102 0.23395 0.75439 0.0
H324 H 0.53526 0.21906 0.75221 0.0
H325 H 0.56526 0.14106 0.77964 0.0
H326 H 0.71762 0.09867 0.7617 0.0
H327 H 0.67427 0.12434 0.77361 0.0
H328 H 0.63778 0.21244 0.75388 0.0
C329 C 0.52366 0.21421 0.762 0.0
C330 C 0.58126 0.15709 0.77437 0.0
C331 C 0.49236 0.22248 0.76322 0.0
C332 C 0.70322 0.11541 0.75592 0.0
C333 C 0.6783 0.12995 0.76273 0.0
C334 C 0.62233 0.19672 0.75965 0.0
C335 C 0.53946 0.19886 0.77302 0.0
C336 C 0.57219 0.18832 0.77095 0.0
C337 C 0.65859 0.15119 0.7555 0.0
C338 C 0.63053 0.16486 0.76219 0.0
H339 H 0.4796 0.19565 0.79634 0.0
H340 H 0.53483 0.18061 0.79411 0.0
H341 H 0.58746 0.23268 0.76144 0.0
H342 H 0.69283 0.1486 0.72364 0.0
H343 H 0.64974 0.17396 0.73547 0.0
C344 C 0.1849 0.96032 0.02211 0.0
C345 C 0.21747 0.96075 0.02044 0.0
C346 C 0.16747 -0.01217 0.01942 0.0
C347 C 0.17089 0.07471 0.01443 0.0
H348 H 0.11333 0.06053 0.98372 0.0
C349 C 0.12805 0.17726 0.97862 0.0
C350 C 0.09894 0.17427 0.97194 0.0
C351 C 0.13981 0.15228 0.98685 0.0
C352 C 0.12861 0.0651 -0.00748 0.0
H353 H 0.25763 -0.00946 0.01581 0.0
H354 H 0.22729 0.0387 0.01153 0.0
H355 H 0.13751 0.01541 -0.00462 0.0
H356 H 0.05838 0.14382 0.96924 0.0
H357 H 0.07787 0.10115 0.9841 0.0
H358 H 0.162 0.1244 0.01165 0.0
C359 C 0.21519 0.01717 0.01474 0.0
C360 C 0.14254 0.03909 -0.00082 0.0
C361 C 0.23251 -0.0104 0.01712 0.0
C362 C 0.08119 0.14651 0.97408 0.0
C363 C 0.09252 0.12193 0.98255 0.0
C364 C 0.15646 0.1008 0.00794 0.0
C365 C 0.18246 0.01626 0.01537 0.0
C366 C 0.16427 0.04366 0.01 0.0
C367 C 0.12231 0.12408 0.98881 0.0
C368 C 0.13562 0.0964 -0.00333 0.0
H369 H 0.17277 0.93833 0.02459 0.0
H370 H 0.14221 -0.01337 0.01998 0.0
H371 H 0.1876 0.07878 0.02277 0.0
H372 H 0.14218 0.19846 0.97711 0.0
H373 H 0.16301 0.15479 -0.00872 0.0
C374 C 0.18679 0.79246 -0.00258 0.0
C375 C 0.20544 0.81507 0.99046 0.0
C376 C 0.16205 0.77742 -0.00948 0.0
C377 C 0.10587 0.79006 0.96222 0.0
H378 H 0.08503 0.70175 0.96984 0.0
C379 C -0.0132 0.7328 0.94577 0.0
C380 C -0.02794 0.71717 0.95697 0.0
C381 C 0.01836 0.74197 0.94685 0.0
C382 C 0.09058 0.72642 0.96755 0.0
H383 H 0.21313 0.83902 0.97063 0.0
H384 H 0.16956 0.81284 0.9586 0.0
H385 H 0.13546 0.7229 0.97744 0.0
H386 H -0.02078 0.69779 0.97782 0.0
H387 H 0.03351 0.7135 0.97962 0.0
H388 H 0.0603 0.79386 0.95289 0.0
C389 C 0.17421 0.80683 0.96942 0.0
C390 C 0.11944 0.73853 0.97192 0.0
C391 C 0.19925 0.82166 0.9763 0.0
C392 C -0.0103 0.71 0.96901 0.0
C393 C 0.02104 0.71873 0.97 0.0
C394 C 0.07687 0.77793 0.95787 0.0
C395 C 0.15515 0.78477 0.97651 0.0
C396 C 0.12697 0.77075 0.96975 0.0
C397 C 0.03574 0.73508 0.95903 0.0
C398 C 0.06849 0.74627 0.96096 0.0
H399 H 0.1909 0.78677 0.00831 0.0
H400 H 0.14759 0.76084 -0.00367 0.0
H401 H 0.11094 0.81503 0.96044 0.0
H402 H -0.02621 0.73865 0.93637 0.0
H403 H 0.02913 0.75455 0.93822 0.0
C404 C 0.82735 0.7963 0.9651 0.0
C405 C 0.82466 0.76447 0.96952 0.0
C406 C 0.81686 0.82084 0.97346 0.0
C407 C 0.7637 0.83951 0.00207 0.0
H408 H 0.81012 0.91902 0.00095 0.0
C409 C 0.72343 0.96026 0.02647 0.0
C410 C 0.71745 -0.01831 0.01545 0.0
C411 C 0.73994 0.93211 0.02404 0.0
C412 C 0.79722 0.8968 0.00155 0.0
H413 H 0.80844 0.73334 0.98612 0.0
H414 H 0.79011 0.7766 0.00089 0.0
H415 H 0.83254 0.8715 -0.00925 0.0
H416 H 0.72495 -0.0085 -0.00649 0.0
H417 H 0.7547 0.94325 0.98945 0.0
H418 H 0.72803 0.8655 0.01263 0.0
C419 C 0.80027 0.78241 -0.00912 0.0
C420 C 0.80982 0.86969 -0.0044 0.0
C421 C 0.81074 0.75767 0.98244 0.0
C422 C 0.72919 -0.02471 0.00217 0.0
C423 C 0.74627 0.9478 -0.00015 0.0
C424 C 0.75122 0.86668 0.0082 0.0
C425 C 0.80357 0.81432 0.98653 0.0
C426 C 0.79262 0.84109 -0.00479 0.0
C427 C 0.75139 0.92577 0.01069 0.0
C428 C 0.76742 0.89577 0.00749 0.0
H429 H 0.83767 0.80237 0.95515 0.0
H430 H 0.81894 0.84504 0.96957 0.0
H431 H 0.74982 0.8179 0.00193 0.0
H432 H 0.71437 0.96468 0.03677 0.0
H433 H 0.74362 0.91529 0.03252 0.0
C434 C 0.74999 0.13813 0.00202 0.0
C435 C 0.72407 0.12899 -0.00611 0.0
C436 C 0.77562 0.15332 -0.00406 0.0
C437 C 0.81512 0.16488 0.96209 0.0
H438 H 0.86269 0.22658 0.9833 0.0
C439 C 0.94408 0.19751 0.95029 0.0
C440 C 0.95518 0.22745 0.95436 0.0
C441 C 0.91296 0.18877 0.95282 0.0
C442 C 0.84952 0.20987 0.97704 0.0
H443 H 0.70449 0.12958 0.97296 0.0
H444 H 0.74906 0.15683 0.96237 0.0
H445 H 0.81355 0.20681 -0.00772 0.0
H446 H 0.94258 0.27257 0.96327 0.0
H447 H 0.88798 0.25827 0.96692 0.0
H448 H 0.85103 0.16846 0.94671 0.0
C449 C 0.74976 0.15163 0.97344 0.0
C450 C 0.82145 0.19807 0.98234 0.0
C451 C 0.72409 0.13623 0.97954 0.0
C452 C 0.93439 0.24931 0.96006 0.0
C453 C 0.90324 0.2409 0.96231 0.0
C454 C 0.84317 0.17694 0.95669 0.0
C455 C 0.77601 0.16007 0.98155 0.0
C456 C 0.8042 0.17491 0.97511 0.0
C457 C 0.8924 0.21003 0.95931 0.0
C458 C 0.86102 0.19923 0.96421 0.0
H459 H 0.75093 0.1328 0.01308 0.0
H460 H 0.79558 0.15889 0.0025 0.0
H461 H 0.80258 0.1469 0.95625 0.0
H462 H 0.95994 0.18016 0.94605 0.0
H463 H 0.90565 0.16472 0.95046 0.0
C464 C 0.63038 0.7527 0.75254 0.0
C465 C 0.60312 0.75985 0.7599 0.0
C466 C 0.64496 0.77605 0.74432 0.0
C467 C 0.63235 0.8516 0.72573 0.0
H468 H 0.71832 0.87073 0.73558 0.0
C469 C 0.69064 -0.02744 0.71312 0.0
C470 C 0.7233 -0.02586 0.71235 0.0
C471 C 0.67576 0.94348 0.71593 0.0
C472 C 0.6946 0.86538 0.73234 0.0
H473 H 0.5691 0.79657 0.76407 0.0
H474 H 0.59426 0.83702 0.74955 0.0
H475 H 0.69277 0.82462 0.74587 0.0
H476 H 0.76594 0.94672 0.7126 0.0
H477 H 0.74007 0.89575 0.71653 0.0
H478 H 0.63404 0.89224 0.71215 0.0
C479 C 0.60442 0.81349 0.75018 0.0
C480 C 0.67994 0.83894 0.73834 0.0
C481 C 0.59021 0.79041 0.75859 0.0
C482 C 0.74068 0.94602 0.7133 0.0
C483 C 0.72583 0.9169 0.71572 0.0
C484 C 0.64719 0.87778 0.7195 0.0
C485 C 0.63211 0.80666 0.74312 0.0
C486 C 0.64851 0.83222 0.73534 0.0
C487 C 0.6933 0.91539 0.71772 0.0
C488 C 0.67835 0.88547 0.72296 0.0
H489 H 0.64079 0.72932 0.75336 0.0
H490 H 0.66634 0.77026 0.73896 0.0
H491 H 0.6081 0.84671 0.72318 0.0
H492 H 0.67683 -0.00593 0.71254 0.0
H493 H 0.65075 0.94349 0.71751 0.0
C494 C 0.95061 0.22539 0.25573 0.0
C495 C 0.9626 0.21976 0.26922 0.0
C496 C 0.92038 0.2366 0.25374 0.0
C497 C 0.84284 0.24254 0.26924 0.0
H498 H 0.83242 0.30632 0.24009 0.0
C499 C 0.72476 0.30364 0.25209 0.0
C500 C 0.72031 0.30592 0.23756 0.0
C501 C 0.75288 0.2919 0.25768 0.0
C502 C 0.83492 0.28844 0.24823 0.0
H503 H 0.95168 0.22111 0.29123 0.0
H504 H 0.89821 0.24105 0.28767 0.0
H505 H 0.88469 0.29021 0.24718 0.0
H506 H 0.74109 0.29546 0.21757 0.0
H507 H 0.78976 0.27523 0.22729 0.0
H508 H 0.79262 0.2409 0.2701 0.0
C509 C 0.91261 0.23659 0.27868 0.0
C510 C 0.86485 0.27922 0.25231 0.0
C511 C 0.94322 0.22533 0.28071 0.0
C512 C 0.74377 0.29443 0.2288 0.0
C513 C 0.77176 0.28295 0.23436 0.0
C514 C 0.81265 0.252 0.26518 0.0
C515 C 0.90108 0.24268 0.26514 0.0
C516 C 0.86921 0.25545 0.26253 0.0
C517 C 0.77702 0.28249 0.24882 0.0
C518 C 0.80849 0.27435 0.25433 0.0
H519 H -0.03542 0.22121 0.24659 0.0
H520 H 0.91202 0.24033 0.24316 0.0
H521 H 0.84548 0.22415 0.27714 0.0
H522 H 0.70715 0.31222 0.25914 0.0
H523 H 0.75634 0.2917 0.26887 0.0
C524 C 0.23963 0.95977 0.70988 0.0
C525 C 0.20705 0.96004 0.7115 0.0
C526 C 0.25736 -0.01311 0.713 0.0
C527 C 0.25517 0.07302 0.71923 0.0
H528 H 0.3119 0.05482 0.74993 0.0
C529 C 0.30026 0.17135 0.7561 0.0
C530 C 0.32936 0.16732 0.7627 0.0
C531 C 0.28777 0.14727 0.74772 0.0
C532 C 0.29685 0.06053 0.74114 0.0
H533 H 0.1672 -0.01071 0.71647 0.0
H534 H 0.19808 0.03685 0.7215 0.0
H535 H 0.28707 0.01129 0.73761 0.0
H536 H 0.36908 0.13594 0.76512 0.0
H537 H 0.34834 0.0949 0.75001 0.0
H538 H 0.265 0.12227 0.72265 0.0
C539 C 0.20994 0.01571 0.718 0.0
C540 C 0.28255 0.03543 0.7341 0.0
C541 C 0.19232 -0.01152 0.71519 0.0
C542 C 0.34629 0.13942 0.76037 0.0
C543 C 0.33424 0.11577 0.75174 0.0
C544 C 0.26999 0.09822 0.72609 0.0
C545 C 0.24267 0.01481 0.71744 0.0
C546 C 0.26114 0.04143 0.72327 0.0
C547 C 0.30451 0.11898 0.74552 0.0
C548 C 0.29058 0.09234 0.73735 0.0
H549 H 0.25152 0.93807 0.70713 0.0
H550 H 0.28261 -0.0143 0.71249 0.0
H551 H 0.2387 0.07819 0.71088 0.0
H552 H 0.28675 0.19269 0.75775 0.0
H553 H 0.26464 0.15056 0.74332 0.0
C554 C -0.01322 0.72275 0.26139 0.0
C555 C -0.03015 0.7166 0.27362 0.0
C556 C 0.018 0.71406 0.26038 0.0
C557 C 0.07471 0.65663 0.27324 0.0
H558 H 0.13217 0.71118 0.25286 0.0
C559 C 0.19748 0.61457 0.25576 0.0
C560 C 0.20347 0.62043 0.24156 0.0
C561 C 0.17211 0.62897 0.26228 0.0
C562 C 0.11645 0.69568 0.2586 0.0
H563 H -0.02727 0.69685 0.29454 0.0
H564 H 0.02787 0.68103 0.29268 0.0
H565 H 0.08188 0.73199 0.26015 0.0
H566 H 0.18806 0.64683 0.22323 0.0
H567 H 0.14418 0.67199 0.2346 0.0
H568 H 0.10899 0.61996 0.27123 0.0
C569 C 0.01663 0.69279 0.2839 0.0
C570 C 0.08768 0.7076 0.26279 0.0
C571 C -0.01482 0.70193 0.28498 0.0
C572 C 0.18414 0.64174 0.23417 0.0
C573 C 0.15907 0.65634 0.24072 0.0
C574 C 0.10364 0.64468 0.26907 0.0
C575 C 0.0333 0.69877 0.27155 0.0
C576 C 0.066 0.6879 0.2697 0.0
C577 C 0.15251 0.64986 0.25479 0.0
C578 C 0.12432 0.66379 0.26126 0.0
H579 H -0.02415 0.73419 0.25244 0.0
H580 H 0.02992 0.71855 0.25064 0.0
H581 H 0.05845 0.64082 0.27849 0.0
H582 H 0.21188 0.59821 0.26174 0.0
H583 H 0.16771 0.62364 0.27316 0.0
C584 C 0.68871 0.46395 0.52208 0.0
C585 C 0.72109 0.46289 0.51992 0.0
C586 C 0.67221 0.49203 0.51931 0.0
C587 C 0.67899 0.57844 0.51291 0.0
H588 H 0.61733 0.5642 0.48382 0.0
C589 C 0.63535 0.67962 0.47635 0.0
C590 C 0.60528 0.67704 0.47054 0.0
C591 C 0.64737 0.655 0.48472 0.0
C592 C 0.63383 0.56884 0.49217 0.0
H593 H 0.76202 0.49071 0.51438 0.0
H594 H 0.73336 0.5398 0.5099 0.0
H595 H 0.64094 0.51907 0.49568 0.0
H596 H 0.56335 0.64797 0.46963 0.0
H597 H 0.5834 0.60612 0.48475 0.0
H598 H 0.67191 0.62826 0.50945 0.0
C599 C 0.72066 0.51902 0.51356 0.0
C600 C 0.64741 0.54281 0.49896 0.0
C601 C 0.73701 0.49088 0.51604 0.0
C602 C 0.5869 0.65026 0.47375 0.0
C603 C 0.59853 0.62613 0.48237 0.0
C604 C 0.66495 0.6046 0.50629 0.0
C605 C 0.688 0.51954 0.51467 0.0
C606 C 0.67052 0.54732 0.50919 0.0
C607 C 0.62922 0.62768 0.4877 0.0
C608 C 0.64258 0.60015 0.49563 0.0
H609 H 0.6759 0.44266 0.52502 0.0
H610 H 0.647 0.49193 0.52026 0.0
H611 H 0.6968 0.58248 0.52079 0.0
H612 H 0.64992 0.70011 0.47402 0.0
H613 H 0.67122 0.657 0.48847 0.0
C614 C 0.69923 0.32097 0.47695 0.0
C615 C 0.70543 0.31524 0.49118 0.0
C616 C 0.67393 0.30601 0.4703 0.0
C617 C 0.61826 0.23863 0.47384 0.0
H618 H 0.5598 0.29329 0.45402 0.0
C619 C 0.48817 0.21114 0.47108 0.0
C620 C 0.47088 0.21734 0.45884 0.0
C621 C 0.51951 0.21988 0.4721 0.0
C622 C 0.57618 0.27753 0.45924 0.0
H623 H 0.69065 0.28833 0.5094 0.0
H624 H 0.64692 0.26224 0.49783 0.0
H625 H 0.61076 0.31434 0.46122 0.0
H626 H 0.47323 0.23726 0.43795 0.0
H627 H 0.52852 0.25313 0.43984 0.0
H628 H 0.58335 0.2022 0.47235 0.0
C629 C 0.66155 0.2782 0.49178 0.0
C630 C 0.60535 0.28958 0.46339 0.0
C631 C 0.68653 0.29336 0.49845 0.0
C632 C 0.48595 0.23214 0.44751 0.0
C633 C 0.51749 0.24131 0.44861 0.0
C634 C 0.58922 0.22661 0.46969 0.0
C635 C 0.65465 0.28469 0.47769 0.0
C636 C 0.62624 0.27056 0.47117 0.0
C637 C 0.53455 0.23527 0.46096 0.0
C638 C 0.56739 0.24625 0.46281 0.0
H639 H 0.71329 0.33775 0.47106 0.0
H640 H 0.66928 0.31134 0.45942 0.0
H641 H 0.63411 0.2232 0.47957 0.0
H642 H 0.47743 0.19963 0.48 0.0
H643 H 0.53175 0.21535 0.48184 0.0
C644 C 0.18894 0.44562 0.51649 0.0
C645 C 0.20445 0.47331 0.52092 0.0
C646 C 0.20566 0.41787 0.514 0.0
C647 C 0.27909 0.39591 0.50008 0.0
H648 H 0.25706 0.3095 0.51073 0.0
C649 C 0.34216 0.2908 0.47547 0.0
C650 C 0.32464 0.26334 0.47253 0.0
C651 C 0.32997 0.31453 0.48385 0.0
C652 C 0.26332 0.33343 0.50751 0.0
H653 H 0.24925 0.4934 0.52688 0.0
H654 H 0.27878 0.4449 0.52206 0.0
H655 H 0.23098 0.35418 0.52175 0.0
H656 H 0.28088 0.23877 0.47618 0.0
H657 H 0.25855 0.2811 0.49015 0.0
H658 H 0.30956 0.3759 0.48515 0.0
C659 C 0.25362 0.44468 0.52074 0.0
C660 C 0.2486 0.35896 0.51395 0.0
C661 C 0.23675 0.4723 0.52355 0.0
C662 C 0.29483 0.25976 0.47832 0.0
C663 C 0.28222 0.28397 0.48643 0.0
C664 C 0.29329 0.3705 0.49343 0.0
C665 C 0.23826 0.41751 0.51561 0.0
C666 C 0.25623 0.3904 0.51021 0.0
C667 C 0.29951 0.3119 0.48918 0.0
C668 C 0.28547 0.33884 0.49695 0.0
H669 H 0.16401 0.44578 0.51443 0.0
H670 H 0.19332 0.39733 0.50995 0.0
H671 H 0.28491 0.41995 0.4968 0.0
H672 H 0.36548 0.29388 0.47134 0.0
H673 H 0.34449 0.33505 0.48605 0.0
C674 C 0.4497 0.70985 0.4732 0.0
C675 C 0.46176 0.7148 0.45975 0.0
C676 C 0.4201 0.69684 0.47508 0.0
C677 C 0.34327 0.68414 0.45954 0.0
H678 H 0.33796 0.62042 0.48898 0.0
C679 C 0.22879 0.61859 0.4786 0.0
C680 C 0.22565 0.61797 0.49321 0.0
C681 C 0.25622 0.63038 0.47246 0.0
C682 C 0.33905 0.63817 0.48072 0.0
H683 H 0.45144 0.71069 0.43768 0.0
H684 H 0.39892 0.68772 0.44106 0.0
H685 H 0.3889 0.63971 0.48152 0.0
H686 H 0.24826 0.63093 0.5127 0.0
H687 H 0.29572 0.6511 0.50202 0.0
H688 H 0.29299 0.68274 0.45904 0.0
C689 C 0.41288 0.69402 0.45009 0.0
C690 C 0.36819 0.64919 0.47644 0.0
C691 C 0.44291 0.70706 0.44817 0.0
C692 C 0.24988 0.63071 0.50144 0.0
C693 C 0.27719 0.64217 0.49533 0.0
C694 C 0.31387 0.67289 0.46382 0.0
C695 C 0.4015 0.68829 0.4636 0.0
C696 C 0.37064 0.6731 0.46616 0.0
C697 C 0.28099 0.64142 0.48083 0.0
C698 C 0.31157 0.65059 0.47479 0.0
H699 H 0.46322 0.71575 0.48241 0.0
H700 H 0.41173 0.69342 0.48561 0.0
H701 H 0.34451 0.70259 0.45159 0.0
H702 H 0.21054 0.60904 0.47195 0.0
H703 H 0.25858 0.62963 0.46124 0.0
C704 C 0.29185 0.15967 0.40539 0.0
C705 C 0.30825 0.18775 0.4085 0.0
C706 C 0.26895 0.15937 0.39492 0.0
C707 C 0.23539 0.20801 0.36534 0.0
H708 H 0.16517 0.15039 0.37035 0.0
C709 C 0.12102 0.21248 0.33205 0.0
C710 C 0.11526 0.18413 0.32481 0.0
C711 C 0.14358 0.21345 0.34271 0.0
C712 C 0.18465 0.1666 0.36885 0.0
H713 H 0.31375 0.23751 0.40302 0.0
H714 H 0.27282 0.23758 0.38521 0.0
H715 H 0.20698 0.15146 0.38771 0.0
H716 H 0.12754 0.13433 0.32343 0.0
H717 H 0.16592 0.13576 0.34248 0.0
H718 H 0.21192 0.22387 0.34668 0.0
C719 C 0.27821 0.21535 0.39047 0.0
C720 C 0.2089 0.16704 0.37871 0.0
C721 C 0.30171 0.21542 0.40073 0.0
C722 C 0.13145 0.15648 0.32885 0.0
C723 C 0.15338 0.15728 0.33973 0.0
C724 C 0.21073 0.20805 0.35565 0.0
C725 C 0.26114 0.18738 0.38751 0.0
C726 C 0.2349 0.18748 0.37705 0.0
C727 C 0.16014 0.18591 0.34655 0.0
C728 C 0.18531 0.18714 0.35725 0.0
H729 H 0.29657 0.13789 0.41115 0.0
H730 H 0.25725 0.13707 0.39274 0.0
H731 H 0.25505 0.22372 0.36346 0.0
H732 H 0.10912 0.23422 0.32907 0.0
H733 H 0.14834 0.23578 0.34787 0.0
C734 C 0.1919 0.62516 0.58145 0.0
C735 C 0.18878 0.63799 0.56794 0.0
C736 C 0.19453 0.64515 0.59298 0.0
C737 C 0.17806 0.72825 0.60357 0.0
H738 H 0.22612 0.70441 0.63644 0.0
C739 C 0.19329 0.81204 0.65055 0.0
C740 C 0.18707 0.79826 0.66364 0.0
C741 C 0.19634 0.79297 0.63877 0.0
C742 C 0.21252 0.71131 0.62734 0.0
H743 H 0.18731 0.68182 0.55586 0.0
H744 H 0.19299 0.71663 0.57584 0.0
H745 H 0.22689 0.67047 0.61596 0.0
H746 H 0.18014 0.75359 0.67474 0.0
H747 H 0.18587 0.72033 0.65422 0.0
H748 H 0.16398 0.76924 0.61495 0.0
C749 C 0.19241 0.69117 0.57765 0.0
C750 C 0.21283 0.6918 0.61561 0.0
C751 C 0.1894 0.67119 0.56616 0.0
C752 C 0.18489 0.76495 0.66479 0.0
C753 C 0.18832 0.74587 0.65305 0.0
C754 C 0.17805 0.74789 0.61523 0.0
C755 C 0.19446 0.67847 0.59126 0.0
C756 C 0.19537 0.69986 0.60359 0.0
C757 C 0.19364 0.75969 0.63988 0.0
C758 C 0.19506 0.73952 0.62728 0.0
H759 H 0.19135 0.59966 0.58318 0.0
H760 H 0.19563 0.63441 0.60327 0.0
H761 H 0.16378 0.73501 0.59467 0.0
H762 H 0.1951 0.83762 0.64931 0.0
H763 H 0.20071 0.80427 0.62878 0.0
C764 C 0.63221 0.78187 0.40236 0.0
C765 C 0.61605 0.75387 0.40596 0.0
C766 C 0.65477 0.7818 0.3919 0.0
C767 C 0.68828 0.73155 0.36349 0.0
H768 H 0.75853 0.7894 0.36784 0.0
C769 C 0.80444 0.72386 0.33243 0.0
C770 C 0.81 0.75107 0.32416 0.0
C771 C 0.78135 0.72407 0.34269 0.0
C772 C 0.73903 0.77314 0.36653 0.0
H773 H 0.61053 0.70388 0.40133 0.0
H774 H 0.65087 0.70317 0.3836 0.0
H775 H 0.71651 0.78969 0.38479 0.0
H776 H 0.79673 0.80016 0.32052 0.0
H777 H 0.7574 0.8009 0.33893 0.0
H778 H 0.71204 0.7142 0.34549 0.0
C779 C 0.64554 0.72562 0.38842 0.0
C780 C 0.71464 0.77347 0.37615 0.0
C781 C 0.62237 0.72592 0.39865 0.0
C782 C 0.79298 0.77887 0.32676 0.0
C783 C 0.7705 0.77932 0.33726 0.0
C784 C 0.71308 0.73073 0.35407 0.0
C785 C 0.66249 0.75348 0.38502 0.0
C786 C 0.68867 0.75289 0.37473 0.0
C787 C 0.76404 0.75174 0.34511 0.0
C788 C 0.73853 0.75167 0.35546 0.0
H789 H 0.62766 0.80383 0.40777 0.0
H790 H 0.66636 0.80403 0.38936 0.0
H791 H 0.66864 0.71571 0.36179 0.0
H792 H 0.81699 0.70202 0.33057 0.0
H793 H 0.7768 0.70257 0.34867 0.0
C794 C 0.73751 0.172 0.66568 0.0
C795 C 0.73538 0.13868 0.66489 0.0
C796 C 0.73395 0.19094 0.65371 0.0
C797 C 0.7449 0.18841 0.61611 0.0
H798 H 0.69565 0.26555 0.61517 0.0
C799 C 0.73531 0.26427 0.56595 0.0
C800 C 0.73553 0.29749 0.56734 0.0
C801 C 0.73186 0.24445 0.57763 0.0
C802 C 0.70983 0.2443 0.61529 0.0
H803 H 0.72719 0.09916 0.65097 0.0
H804 H 0.72142 0.13228 0.63003 0.0
H805 H 0.69596 0.23199 0.6361 0.0
H806 H 0.73181 0.33602 0.58203 0.0
H807 H 0.72685 0.30157 0.60248 0.0
H808 H 0.75984 0.20102 0.5956 0.0
C809 C 0.72581 0.14368 0.63992 0.0
C810 C 0.70986 0.22501 0.62727 0.0
C811 C 0.72895 0.12475 0.65193 0.0
C812 C 0.73157 0.3105 0.58062 0.0
C813 C 0.72855 0.29067 0.59235 0.0
C814 C 0.7452 0.20785 0.60421 0.0
C815 C 0.7286 0.17695 0.64067 0.0
C816 C 0.72745 0.1969 0.62781 0.0
C817 C 0.72901 0.25733 0.59104 0.0
C818 C 0.72774 0.23614 0.60362 0.0
H819 H 0.7424 0.18345 0.67552 0.0
H820 H 0.73644 0.2165 0.65458 0.0
H821 H 0.75908 0.16713 0.6163 0.0
H822 H 0.73803 0.25351 0.55583 0.0
H823 H 0.73158 0.21896 0.57613 0.0
C824 C 0.12697 0.22306 0.90067 0.0
C825 C 0.12178 0.25087 0.90826 0.0
C826 C 0.15069 0.22201 0.89071 0.0
C827 C 0.22269 0.26666 0.87939 0.0
H828 H 0.2171 0.21031 0.84775 0.0
C829 C 0.30024 0.27284 0.8298 0.0
C830 C 0.31617 0.24467 0.82669 0.0
C831 C 0.27805 0.27327 0.84041 0.0
C832 C 0.21898 0.22598 0.85661 0.0
H833 H 0.13625 0.29986 0.9109 0.0
H834 H 0.17603 0.29888 0.89297 0.0
H835 H 0.17382 0.21272 0.86407 0.0
H836 H 0.32149 0.19491 0.83228 0.0
H837 H 0.2817 0.19547 0.85058 0.0
H838 H 0.26731 0.28099 0.87131 0.0
C839 C 0.16304 0.27724 0.89509 0.0
C840 C 0.19425 0.22731 0.86605 0.0
C841 C 0.13988 0.278 0.90528 0.0
C842 C 0.30978 0.21702 0.83454 0.0
C843 C 0.28693 0.21726 0.84492 0.0
C844 C 0.24703 0.26586 0.86975 0.0
C845 C 0.16937 0.24902 0.88785 0.0
C846 C 0.19568 0.24766 0.87763 0.0
C847 C 0.27074 0.24535 0.84787 0.0
C848 C 0.24543 0.24545 0.85832 0.0
H849 H 0.1136 0.20166 0.90286 0.0
H850 H 0.15491 0.19963 0.88561 0.0
H851 H 0.22534 0.28204 0.88829 0.0
H852 H 0.30466 0.29448 0.8239 0.0
H853 H 0.26579 0.29519 0.84249 0.0
C854 C 0.2369 0.67101 0.16573 0.0
C855 C 0.23607 0.63763 0.16502 0.0
C856 C 0.23364 0.68966 0.15365 0.0
C857 C 0.24721 0.68708 0.11616 0.0
H858 H 0.19552 0.7625 0.11448 0.0
C859 C 0.23762 0.76217 0.06571 0.0
C860 C 0.2366 0.79539 0.06702 0.0
C861 C 0.23439 0.74233 0.0774 0.0
C862 C 0.21039 0.74174 0.11481 0.0
H863 H 0.23053 0.59766 0.1511 0.0
H864 H 0.22521 0.63028 0.12998 0.0
H865 H 0.1957 0.72919 0.13547 0.0
H866 H 0.23098 0.83386 0.08162 0.0
H867 H 0.22636 0.79943 0.10208 0.0
H868 H 0.26287 0.69997 0.09579 0.0
C869 C 0.22839 0.64197 0.1399 0.0
C870 C 0.21035 0.72259 0.12683 0.0
C871 C 0.23126 0.62332 0.152 0.0
C872 C 0.23171 0.80834 0.08025 0.0
C873 C 0.22888 0.78851 0.09199 0.0
C874 C 0.24756 0.7064 0.10422 0.0
C875 C 0.22985 0.67533 0.14058 0.0
C876 C 0.22883 0.6951 0.12765 0.0
C877 C 0.23049 0.7552 0.09076 0.0
C878 C 0.22922 0.73408 0.10337 0.0
H879 H 0.24054 0.68276 0.1756 0.0
H880 H 0.23508 0.7153 0.15449 0.0
H881 H 0.26207 0.6663 0.11656 0.0
H882 H 0.2411 0.75144 0.05563 0.0
H883 H 0.23506 0.71684 0.07595 0.0
C884 C 0.79175 0.6573 0.90406 0.0
C885 C 0.80913 0.68497 0.9068 0.0
C886 C 0.76864 0.6572 0.89366 0.0
C887 C 0.73595 0.70563 0.86378 0.0
H888 H 0.6639 0.65087 0.86965 0.0
C889 C 0.61977 0.71361 0.83181 0.0
C890 C 0.61313 0.68556 0.82448 0.0
C891 C 0.64292 0.7139 0.84222 0.0
C892 C 0.6839 0.66628 0.86791 0.0
H893 H 0.81617 0.73421 0.90074 0.0
H894 H 0.77495 0.73469 0.8831 0.0
H895 H 0.70634 0.65095 0.88672 0.0
H896 H 0.62452 0.63561 0.82269 0.0
H897 H 0.66394 0.63586 0.84134 0.0
H898 H 0.71235 0.72178 0.84519 0.0
C899 C 0.7797 0.71257 0.88856 0.0
C900 C 0.70851 0.66613 0.87761 0.0
C901 C 0.80338 0.7124 0.89873 0.0
C902 C 0.62911 0.65755 0.82818 0.0
C903 C 0.65163 0.65766 0.83883 0.0
C904 C 0.71095 0.70629 0.85427 0.0
C905 C 0.76163 0.68505 0.88597 0.0
C906 C 0.73514 0.68556 0.87564 0.0
C907 C 0.6592 0.68597 0.84573 0.0
C908 C 0.68485 0.68644 0.8562 0.0
H909 H 0.79582 0.63573 0.91006 0.0
H910 H 0.75614 0.6352 0.89178 0.0
H911 H 0.75608 0.72052 0.86165 0.0
H912 H 0.60803 0.7356 0.82908 0.0
H913 H 0.64833 0.73598 0.84745 0.0
C914 C 0.68977 0.12363 0.08146 0.0
C915 C 0.6867 0.13653 0.06796 0.0
C916 C 0.69144 0.14356 0.09304 0.0
C917 C 0.67264 0.22625 0.1036 0.0
H918 H 0.7207 0.2037 0.13664 0.0
C919 C 0.68705 0.31105 0.15031 0.0
C920 C 0.68088 0.29745 0.16345 0.0
C921 C 0.69006 0.29179 0.1386 0.0
C922 C 0.7071 0.21022 0.12749 0.0
H923 H 0.68434 0.18043 0.05596 0.0
H924 H 0.68842 0.21513 0.07601 0.0
H925 H 0.72241 0.16956 0.11624 0.0
H926 H 0.67389 0.25296 0.17467 0.0
H927 H 0.67959 0.21938 0.15425 0.0
H928 H 0.65772 0.26713 0.11484 0.0
C929 C 0.68847 0.18966 0.07778 0.0
C930 C 0.70793 0.1906 0.11581 0.0
C931 C 0.68638 0.16974 0.06625 0.0
C932 C 0.67857 0.26417 0.16469 0.0
C933 C 0.682 0.24491 0.15301 0.0
C934 C 0.67213 0.24603 0.11521 0.0
C935 C 0.69047 0.17688 0.09137 0.0
C936 C 0.69054 0.19822 0.10372 0.0
C937 C 0.68741 0.25853 0.13982 0.0
C938 C 0.68917 0.23813 0.12731 0.0
H939 H 0.68993 0.0981 0.08311 0.0
H940 H 0.69256 0.13275 0.10332 0.0
H941 H 0.65837 0.23265 0.09465 0.0
H942 H 0.68895 0.33661 0.14902 0.0
H943 H 0.69447 0.30292 0.12857 0.0
C944 C 0.90332 0.86489 0.2577 0.0
C945 C 0.89534 0.84782 0.26985 0.0
C946 C 0.91941 0.89378 0.25855 0.0
C947 C 0.93979 0.96042 0.28134 0.0
H948 H 0.0126 -0.03243 0.25769 0.0
C949 C 0.02293 0.06937 0.28371 0.0
C950 C 0.03295 0.08166 0.27081 0.0
C951 C 0.00778 0.0398 0.28451 0.0
C952 C -0.00781 0.96616 0.26427 0.0
H953 H 0.89652 0.84875 0.29246 0.0
H954 H 0.92432 0.89958 0.2939 0.0
H955 H -0.01935 0.91952 0.25708 0.0
H956 H 0.03565 0.07198 0.24868 0.0
H957 H 0.00895 0.02109 0.25002 0.0
H958 H 0.95084 0.00741 0.28828 0.0
C959 C 0.91825 0.89035 0.28373 0.0
C960 C -0.0261 0.9386 0.26392 0.0
C961 C 0.90236 0.86123 0.28289 0.0
C962 C 0.02838 0.06326 0.25881 0.0
C963 C 0.01314 0.03389 0.25959 0.0
C964 C 0.95795 -0.01179 0.2816 0.0
C965 C 0.92767 0.90645 0.27156 0.0
C966 C 0.94732 0.93556 0.27233 0.0
C967 C 0.00225 0.02193 0.27241 0.0
C968 C -0.0158 -0.00844 0.27294 0.0
H969 H 0.89823 0.85538 0.24748 0.0
H970 H 0.92592 0.90597 0.249 0.0
H971 H 0.91937 0.95873 0.28791 0.0
H972 H 0.02613 0.08287 0.29317 0.0
H973 H 0.00016 0.03109 0.29458 0.0
C974 C 0.86885 0.04087 0.71331 0.0
C975 C 0.85368 0.04657 0.7005 0.0
C976 C 0.89567 0.0219 0.71395 0.0
C977 C 0.93608 0.96029 0.69325 0.0
H978 H 0.00459 -0.02545 0.71916 0.0
C979 C 0.05747 0.9038 0.68778 0.0
C980 C 0.07138 0.89048 0.69977 0.0
C981 C 0.02958 0.92067 0.68867 0.0
C982 C -0.01459 -0.02989 0.71199 0.0
H983 H 0.85563 0.03877 0.67825 0.0
H984 H 0.90299 0.00716 0.67924 0.0
H985 H 0.95985 0.0105 0.71899 0.0
H986 H 0.06689 0.88401 0.7221 0.0
H987 H 0.01812 0.91421 0.7237 0.0
H988 H 0.96224 0.92062 0.68593 0.0
C989 C 0.89368 0.01604 0.6889 0.0
C990 C 0.95976 -0.00933 0.71189 0.0
C991 C 0.86672 0.03449 0.6883 0.0
C992 C 0.05651 0.89382 0.71268 0.0
C993 C 0.02883 0.91128 0.71361 0.0
C994 C 0.96184 0.94008 0.69324 0.0
C995 C 0.908 0.00863 0.70177 0.0
C996 C 0.93494 -0.01373 0.70237 0.0
C997 C 0.01527 0.92506 0.70162 0.0
C998 C -0.01311 0.94496 0.7025 0.0
H999 H 0.85912 0.04968 0.7229 0.0
H1000 H 0.90593 0.01662 0.72406 0.0
H1001 H 0.91705 0.95549 0.68606 0.0
H1002 H 0.06846 0.90164 0.67771 0.0
H1003 H 0.01973 0.93122 0.67928 0.0
C1004 C 0.0285 0.37222 0.97149 0.0
C1005 C 0.03342 0.35412 0.95947 0.0
C1006 C 0.01222 0.40085 0.97069 0.0
C1007 C -0.0143 0.46535 0.94757 0.0
H1008 H 0.91905 0.47273 0.97448 0.0
C1009 C 0.90239 0.57331 0.94723 0.0
C1010 C 0.89556 0.58618 0.96032 0.0
C1011 C 0.91712 0.54377 0.94625 0.0
C1012 C 0.93773 0.47126 0.96697 0.0
H1013 H 0.02672 0.35307 0.93704 0.0
H1014 H -0.00139 0.40357 0.93567 0.0
H1015 H 0.9513 0.42522 0.97446 0.0
H1016 H 0.898 0.57749 0.98263 0.0
H1017 H 0.924 0.5266 0.98095 0.0
H1018 H -0.02727 0.51179 0.94032 0.0
C1019 C 0.00721 0.39527 0.9457 0.0
C1020 C 0.95619 0.444 0.96697 0.0
C1021 C 0.02332 0.36638 0.9465 0.0
C1022 C 0.90275 0.5683 0.97237 0.0
C1023 C 0.91761 0.53894 0.9714 0.0
C1024 C -0.0326 0.49285 0.94767 0.0
C1025 C 0.00069 0.41226 0.95786 0.0
C1026 C -0.0194 0.44091 0.95739 0.0
C1027 C 0.92545 0.52649 0.95834 0.0
C1028 C 0.94341 0.49631 0.95749 0.0
H1029 H 0.03607 0.36368 0.98165 0.0
H1030 H 0.00805 0.41378 0.9802 0.0
H1031 H 0.00442 0.4636 0.9401 0.0
H1032 H 0.89708 0.58638 0.93772 0.0
H1033 H 0.92229 0.53466 0.93602 0.0
C1034 C 0.3661 0.90409 0.04321 0.0
C1035 C 0.35224 0.89137 0.03119 0.0
C1036 C 0.39337 0.9223 0.04232 0.0
C1037 C 0.45887 0.94519 0.01882 0.0
H1038 H 0.46553 0.01591 0.04433 0.0
C1039 C 0.5593 0.03954 0.01754 0.0
C1040 C 0.57522 0.04171 0.03037 0.0
C1041 C 0.53082 0.02302 0.01665 0.0
C1042 C 0.46391 -0.00371 0.03713 0.0
H1043 H 0.35641 0.88699 0.00881 0.0
H1044 H 0.40368 0.91966 0.00714 0.0
H1045 H 0.41897 -0.0176 0.04456 0.0
H1046 H 0.57346 0.0295 0.05234 0.0
H1047 H 0.52339 0.00169 0.05086 0.0
H1048 H 0.50388 0.95981 0.01129 0.0
C1049 C 0.39388 0.91505 0.01733 0.0
C1050 C 0.43739 -0.02316 0.03733 0.0
C1051 C 0.36677 0.89633 0.01827 0.0
C1052 C 0.56167 0.02819 0.04233 0.0
C1053 C 0.53301 0.01235 0.04149 0.0
C1054 C 0.48526 0.96502 0.01848 0.0
C1055 C 0.40718 0.92882 0.02933 0.0
C1056 C 0.43477 0.95056 0.0284 0.0
C1057 C 0.51756 0.00915 0.02862 0.0
C1058 C 0.48824 -0.00964 0.02782 0.0
H1059 H 0.35555 0.90039 0.05332 0.0
H1060 H 0.40341 0.93158 0.05184 0.0
H1061 H 0.45785 0.92511 0.01186 0.0
H1062 H 0.56939 0.04955 0.00815 0.0
H1063 H 0.51924 0.02093 0.00662 0.0
C1064 C 0.40768 0.35815 0.7861 0.0
C1065 C 0.39917 0.34542 0.77309 0.0
C1066 C 0.42316 0.38752 0.78687 0.0
C1067 C 0.47531 0.43793 0.76625 0.0
H1068 H 0.45301 0.50568 0.79131 0.0
C1069 C 0.52477 0.56438 0.76 0.0
C1070 C 0.53001 0.58301 0.77188 0.0
C1071 C 0.51079 0.53442 0.76115 0.0
C1072 C 0.45994 0.48679 0.78443 0.0
H1073 H 0.39898 0.35441 0.75077 0.0
H1074 H 0.42599 0.40536 0.75217 0.0
H1075 H 0.423 0.45603 0.79151 0.0
H1076 H 0.52579 0.58407 0.79438 0.0
H1077 H 0.50203 0.5313 0.79641 0.0
H1078 H 0.51235 0.46817 0.75923 0.0
C1079 C 0.42096 0.39247 0.76173 0.0
C1080 C 0.44261 0.45844 0.78451 0.0
C1081 C 0.40526 0.36336 0.76096 0.0
C1082 C 0.522 0.57039 0.78501 0.0
C1083 C 0.50812 0.54025 0.78617 0.0
C1084 C 0.49279 0.46604 0.76627 0.0
C1085 C 0.43068 0.40452 0.77466 0.0
C1086 C 0.4498 0.43399 0.77523 0.0
C1087 C 0.50187 0.52211 0.77421 0.0
C1088 C 0.48501 0.49109 0.77517 0.0
H1089 H 0.40331 0.34498 0.79565 0.0
H1090 H 0.43038 0.3963 0.79697 0.0
H1091 H 0.48177 0.41918 0.75919 0.0
H1092 H 0.53049 0.57333 0.74971 0.0
H1093 H 0.50596 0.52143 0.75169 0.0
C1094 C 0.55809 0.4102 0.18995 0.0
C1095 C 0.57107 0.39479 0.20165 0.0
C1096 C 0.53187 0.42942 0.19123 0.0
C1097 C 0.4667 0.45083 0.2146 0.0
H1098 H 0.46604 0.52674 0.19124 0.0
C1099 C 0.36888 0.54656 0.21627 0.0
C1100 C 0.35499 0.55196 0.20315 0.0
C1101 C 0.39693 0.52963 0.21741 0.0
C1102 C 0.46597 0.50568 0.19785 0.0
H1103 H 0.56622 0.38651 0.22384 0.0
H1104 H 0.5205 0.42084 0.2262 0.0
H1105 H 0.51092 0.49145 0.19086 0.0
H1106 H 0.36 0.54524 0.18093 0.0
H1107 H 0.40934 0.51667 0.18287 0.0
H1108 H 0.42157 0.46558 0.22161 0.0
C1109 C 0.53038 0.41767 0.21596 0.0
C1110 C 0.49154 0.48526 0.19756 0.0
C1111 C 0.55653 0.39797 0.21463 0.0
C1112 C 0.37026 0.54145 0.19117 0.0
C1113 C 0.3985 0.52517 0.19228 0.0
C1114 C 0.4412 0.47156 0.21501 0.0
C1115 C 0.51819 0.43423 0.20431 0.0
C1116 C 0.49192 0.45711 0.20564 0.0
C1117 C 0.4118 0.51853 0.20541 0.0
C1118 C 0.44033 0.49878 0.20639 0.0
H1119 H 0.56862 0.40789 0.17978 0.0
H1120 H 0.52258 0.4409 0.18194 0.0
H1121 H 0.46611 0.42935 0.22092 0.0
H1122 H 0.35741 0.55415 0.22568 0.0
H1123 H 0.40683 0.52488 0.22764 0.0
C1124 C 0.40372 0.07429 0.4477 0.0
C1125 C 0.39578 0.08629 0.46083 0.0
C1126 C 0.4197 0.04544 0.44664 0.0
C1127 C 0.47424 -0.00387 0.46662 0.0
H1128 H 0.45201 0.9286 0.44115 0.0
C1129 C 0.52802 0.87164 0.47141 0.0
C1130 C 0.53286 0.85373 0.45935 0.0
C1131 C 0.51296 0.90098 0.47064 0.0
C1132 C 0.45891 0.94746 0.44814 0.0
H1133 H 0.39715 0.07652 0.48309 0.0
H1134 H 0.42505 0.02649 0.4812 0.0
H1135 H 0.42074 -0.02292 0.44153 0.0
H1136 H 0.52673 0.85334 0.43689 0.0
H1137 H 0.50113 0.90507 0.4355 0.0
H1138 H 0.51255 0.96707 0.47316 0.0
C1139 C 0.41916 0.03954 0.47175 0.0
C1140 C 0.44086 -0.02487 0.4484 0.0
C1141 C 0.40295 0.06811 0.47281 0.0
C1142 C 0.52329 0.86647 0.4464 0.0
C1143 C 0.50836 0.89601 0.44561 0.0
C1144 C 0.49245 -0.03128 0.46627 0.0
C1145 C 0.42831 0.02826 0.45869 0.0
C1146 C 0.44805 -0.00053 0.45782 0.0
C1147 C 0.50256 0.9134 0.45776 0.0
C1148 C 0.48473 0.94374 0.45721 0.0
H1149 H 0.39851 0.08766 0.43826 0.0
H1150 H 0.42647 0.03725 0.43644 0.0
H1151 H 0.48071 0.01483 0.47379 0.0
H1152 H 0.5349 0.86256 0.48158 0.0
H1153 H 0.50853 0.91336 0.48025 0.0
C1154 C 0.86723 0.39659 0.51861 0.0
C1155 C 0.85264 0.39188 0.53153 0.0
C1156 C 0.89392 0.41591 0.51758 0.0
C1157 C 0.93463 0.4803 0.53695 0.0
H1158 H 0.00333 0.46326 0.51209 0.0
C1159 C 0.05675 0.53586 0.54297 0.0
C1160 C 0.07169 0.54752 0.53098 0.0
C1161 C 0.02832 0.51967 0.54193 0.0
C1162 C -0.01593 0.46851 0.51893 0.0
H1163 H 0.85555 0.40184 0.5536 0.0
H1164 H 0.90261 0.43422 0.55195 0.0
H1165 H 0.95827 0.42722 0.51261 0.0
H1166 H 0.06846 0.55189 0.5085 0.0
H1167 H 0.01866 0.52281 0.50664 0.0
H1168 H 0.96099 0.52087 0.54363 0.0
C1169 C 0.89294 0.4242 0.5425 0.0
C1170 C 0.95827 0.44788 0.51924 0.0
C1171 C 0.86614 0.40533 0.54348 0.0
C1172 C 0.05727 0.54336 0.51792 0.0
C1173 C 0.029 0.52654 0.51684 0.0
C1174 C 0.9605 0.50062 0.53675 0.0
C1175 C 0.90666 0.43057 0.52949 0.0
C1176 C 0.93346 0.45322 0.52845 0.0
C1177 C 0.01446 0.5143 0.52885 0.0
C1178 C -0.01433 0.49468 0.52789 0.0
H1179 H 0.85716 0.38667 0.50921 0.0
H1180 H 0.90379 0.42035 0.50739 0.0
H1181 H 0.91558 0.48577 0.54387 0.0
H1182 H 0.0674 0.5387 0.55318 0.0
H1183 H 0.01773 0.51028 0.55134 0.0
loop_
_geom_bond_atom_site_label_1
_geom_bond_atom_site_label_2
_geom_bond_distance
_geom_bond_site_symmetry_2
_ccdc_geom_bond_type
C0 O1 1.306 . S
C0 O3 1.160 . S
O1 C0 1.306 . S
O1 Cd2 2.228 . S
Cd2 O1 2.228 . S
Cd2 O6 2.273 . S
Cd2 O10 2.277 . S
O3 C0 1.160 . S
O3 Cd4 2.203 . S
Cd4 O3 2.203 . S
Cd4 O6 2.411 . S
Cd4 O7 2.333 . S
Cd4 O8 2.352 . S
Cd4 O12 2.277 . S
Cd4 O13 2.356 . S
C5 O10 1.209 . S
C5 O12 1.226 . S
O6 Cd2 2.273 . S
O6 Cd4 2.411 . S
O6 C9 1.320 . S
O7 Cd4 2.333 . S
O7 C9 1.214 . S
O8 Cd4 2.352 . S
O8 C11 1.258 . S
C9 O6 1.320 . S
C9 O7 1.214 . S
O10 Cd2 2.277 . S
O10 C5 1.209 . S
C11 O8 1.258 . S
C11 O13 1.282 . S
O12 Cd4 2.277 . S
O12 C5 1.226 . S
O13 Cd4 2.356 . S
O13 C11 1.282 . S
C14 O15 1.306 . S
C14 O17 1.160 . S
O15 C14 1.306 . S
O15 Cd16 2.228 . S
Cd16 O15 2.228 . S
Cd16 O20 2.273 . S
Cd16 O24 2.277 . S
O17 C14 1.160 . S
O17 Cd18 2.203 . S
Cd18 O17 2.203 . S
Cd18 O20 2.411 . S
Cd18 O21 2.333 . S
Cd18 O22 2.352 . S
Cd18 O26 2.277 . S
Cd18 O27 2.356 . S
C19 O24 1.209 . S
C19 O26 1.226 . S
O20 Cd16 2.273 . S
O20 Cd18 2.411 . S
O20 C23 1.320 . S
O21 Cd18 2.333 . S
O21 C23 1.214 . S
O22 Cd18 2.352 . S
O22 C25 1.258 . S
C23 O20 1.320 . S
C23 O21 1.214 . S
O24 Cd16 2.277 . S
O24 C19 1.209 . S
C25 O22 1.258 . S
C25 O27 1.282 . S
O26 Cd18 2.277 . S
O26 C19 1.226 . S
O27 Cd18 2.356 . S
O27 C25 1.282 . S
C28 O29 1.306 . S
C28 O31 1.160 . S
O29 C28 1.306 . S
O29 Cd30 2.228 . S
Cd30 O29 2.228 . S
Cd30 O34 2.273 . S
Cd30 O38 2.277 . S
O31 C28 1.160 . S
O31 Cd32 2.203 . S
Cd32 O31 2.203 . S
Cd32 O34 2.411 . S
Cd32 O35 2.333 . S
Cd32 O36 2.352 . S
Cd32 O40 2.277 . S
Cd32 O41 2.356 . S
C33 O38 1.209 . S
C33 O40 1.226 . S
O34 Cd30 2.273 . S
O34 Cd32 2.411 . S
O34 C37 1.320 . S
O35 Cd32 2.333 . S
O35 C37 1.214 . S
O36 Cd32 2.352 . S
O36 C39 1.258 . S
C37 O34 1.320 . S
C37 O35 1.214 . S
O38 Cd30 2.277 . S
O38 C33 1.209 . S
C39 O36 1.258 . S
C39 O41 1.282 . S
O40 Cd32 2.277 . S
O40 C33 1.226 . S
O41 Cd32 2.356 . S
O41 C39 1.282 . S
C42 O43 1.306 . S
C42 O45 1.160 . S
O43 C42 1.306 . S
O43 Cd44 2.228 . S
Cd44 O43 2.228 . S
Cd44 O48 2.273 . S
Cd44 O52 2.277 . S
O45 C42 1.160 . S
O45 Cd46 2.203 . S
Cd46 O45 2.203 . S
Cd46 O48 2.411 . S
Cd46 O49 2.333 . S
Cd46 O50 2.352 . S
Cd46 O54 2.277 . S
Cd46 O55 2.356 . S
C47 O52 1.209 . S
C47 O54 1.226 . S
O48 Cd44 2.273 . S
O48 Cd46 2.411 . S
O48 C51 1.320 . S
O49 Cd46 2.333 . S
O49 C51 1.214 . S
O50 Cd46 2.352 . S
O50 C53 1.258 . S
C51 O48 1.320 . S
C51 O49 1.214 . S
O52 Cd44 2.277 . S
O52 C47 1.209 . S
C53 O50 1.258 . S
C53 O55 1.282 . S
O54 Cd46 2.277 . S
O54 C47 1.226 . S
O55 Cd46 2.356 . S
O55 C53 1.282 . S
C56 O57 1.306 . S
C56 O59 1.160 . S
O57 C56 1.306 . S
O57 Cd58 2.228 . S
Cd58 O57 2.228 . S
Cd58 O62 2.273 . S
Cd58 O66 2.277 . S
O59 C56 1.160 . S
O59 Cd60 2.203 . S
Cd60 O59 2.203 . S
Cd60 O62 2.411 . S
Cd60 O63 2.333 . S
Cd60 O64 2.352 . S
Cd60 O68 2.277 . S
Cd60 O69 2.356 . S
C61 O66 1.209 . S
C61 O68 1.226 . S
O62 Cd58 2.273 . S
O62 Cd60 2.411 . S
O62 C65 1.320 . S
O63 Cd60 2.333 . S
O63 C65 1.214 . S
O64 Cd60 2.352 . S
O64 C67 1.258 . S
C65 O62 1.320 . S
C65 O63 1.214 . S
O66 Cd58 2.277 . S
O66 C61 1.209 . S
C67 O64 1.258 . S
C67 O69 1.282 . S
O68 Cd60 2.277 . S
O68 C61 1.226 . S
O69 Cd60 2.356 . S
O69 C67 1.282 . S
C70 O71 1.306 . S
C70 O73 1.160 . S
O71 C70 1.306 . S
O71 Cd72 2.228 . S
Cd72 O71 2.228 . S
Cd72 O76 2.273 . S
Cd72 O80 2.277 . S
O73 C70 1.160 . S
O73 Cd74 2.203 . S
Cd74 O73 2.203 . S
Cd74 O76 2.411 . S
Cd74 O77 2.333 . S
Cd74 O78 2.352 . S
Cd74 O82 2.277 . S
Cd74 O83 2.356 . S
C75 O80 1.209 . S
C75 O82 1.226 . S
O76 Cd72 2.273 . S
O76 Cd74 2.411 . S
O76 C79 1.320 . S
O77 Cd74 2.333 . S
O77 C79 1.214 . S
O78 Cd74 2.352 . S
O78 C81 1.258 . S
C79 O76 1.320 . S
C79 O77 1.214 . S
O80 Cd72 2.277 . S
O80 C75 1.209 . S
C81 O78 1.258 . S
C81 O83 1.282 . S
O82 Cd74 2.277 . S
O82 C75 1.226 . S
O83 Cd74 2.356 . S
O83 C81 1.282 . S
C84 O85 1.306 . S
C84 O87 1.160 . S
O85 C84 1.306 . S
O85 Cd86 2.228 . S
Cd86 O85 2.228 . S
Cd86 O90 2.273 . S
Cd86 O94 2.277 . S
O87 C84 1.160 . S
O87 Cd88 2.203 . S
Cd88 O87 2.203 . S
Cd88 O90 2.411 . S
Cd88 O91 2.333 . S
Cd88 O92 2.352 . S
Cd88 O96 2.277 . S
Cd88 O97 2.356 . S
C89 O94 1.209 . S
C89 O96 1.226 . S
O90 Cd86 2.273 . S
O90 Cd88 2.411 . S
O90 C93 1.320 . S
O91 Cd88 2.333 . S
O91 C93 1.214 . S
O92 Cd88 2.352 . S
O92 C95 1.258 . S
C93 O90 1.320 . S
C93 O91 1.214 . S
O94 Cd86 2.277 . S
O94 C89 1.209 . S
C95 O92 1.258 . S
C95 O97 1.282 . S
O96 Cd88 2.277 . S
O96 C89 1.226 . S
O97 Cd88 2.356 . S
O97 C95 1.282 . S
C98 O99 1.306 . S
C98 O101 1.160 . S
O99 C98 1.306 . S
O99 Cd100 2.228 . S
Cd100 O99 2.228 . S
Cd100 O104 2.273 . S
Cd100 O108 2.277 . S
O101 C98 1.160 . S
O101 Cd102 2.203 . S
Cd102 O101 2.203 . S
Cd102 O104 2.411 . S
Cd102 O105 2.333 . S
Cd102 O106 2.352 . S
Cd102 O110 2.277 . S
Cd102 O111 2.356 . S
C103 O108 1.209 . S
C103 O110 1.226 . S
O104 Cd100 2.273 . S
O104 Cd102 2.411 . S
O104 C107 1.320 . S
O105 Cd102 2.333 . S
O105 C107 1.214 . S
O106 Cd102 2.352 . S
O106 C109 1.258 . S
C107 O104 1.320 . S
C107 O105 1.214 . S
O108 Cd100 2.277 . S
O108 C103 1.209 . S
C109 O106 1.258 . S
C109 O111 1.282 . S
O110 Cd102 2.277 . S
O110 C103 1.226 . S
O111 Cd102 2.356 . S
O111 C109 1.282 . S
C112 O113 1.306 . S
C112 O115 1.160 . S
O113 C112 1.306 . S
O113 Cd114 2.228 . S
Cd114 O113 2.228 . S
Cd114 O118 2.273 . S
Cd114 O122 2.277 . S
O115 C112 1.160 . S
O115 Cd116 2.203 . S
Cd116 O115 2.203 . S
Cd116 O118 2.411 . S
Cd116 O119 2.333 . S
Cd116 O120 2.352 . S
Cd116 O124 2.277 . S
Cd116 O125 2.356 . S
C117 O122 1.209 . S
C117 O124 1.226 . S
O118 Cd114 2.273 . S
O118 Cd116 2.411 . S
O118 C121 1.320 . S
O119 Cd116 2.333 . S
O119 C121 1.214 . S
O120 Cd116 2.352 . S
O120 C123 1.258 . S
C121 O118 1.320 . S
C121 O119 1.214 . S
O122 Cd114 2.277 . S
O122 C117 1.209 . S
C123 O120 1.258 . S
C123 O125 1.282 . S
O124 Cd116 2.277 . S
O124 C117 1.226 . S
O125 Cd116 2.356 . S
O125 C123 1.282 . S
C126 O127 1.306 . S
C126 O129 1.160 . S
O127 C126 1.306 . S
O127 Cd128 2.228 . S
Cd128 O127 2.228 . S
Cd128 O132 2.273 . S
Cd128 O136 2.277 . S
O129 C126 1.160 . S
O129 Cd130 2.203 . S
Cd130 O129 2.203 . S
Cd130 O132 2.411 . S
Cd130 O133 2.333 . S
Cd130 O134 2.352 . S
Cd130 O138 2.277 . S
Cd130 O139 2.356 . S
C131 O136 1.209 . S
C131 O138 1.226 . S
O132 Cd128 2.273 . S
O132 Cd130 2.411 . S
O132 C135 1.320 . S
O133 Cd130 2.333 . S
O133 C135 1.214 . S
O134 Cd130 2.352 . S
O134 C137 1.258 . S
C135 O132 1.320 . S
C135 O133 1.214 . S
O136 Cd128 2.277 . S
O136 C131 1.209 . S
C137 O134 1.258 . S
C137 O139 1.282 . S
O138 Cd130 2.277 . S
O138 C131 1.226 . S
O139 Cd130 2.356 . S
O139 C137 1.282 . S
C140 O141 1.306 . S
C140 O143 1.160 . S
O141 C140 1.306 . S
O141 Cd142 2.228 . S
Cd142 O141 2.228 . S
Cd142 O146 2.273 . S
Cd142 O150 2.277 . S
O143 C140 1.160 . S
O143 Cd144 2.203 . S
Cd144 O143 2.203 . S
Cd144 O146 2.411 . S
Cd144 O147 2.333 . S
Cd144 O148 2.352 . S
Cd144 O152 2.277 . S
Cd144 O153 2.356 . S
C145 O150 1.209 . S
C145 O152 1.226 . S
O146 Cd142 2.273 . S
O146 Cd144 2.411 . S
O146 C149 1.320 . S
O147 Cd144 2.333 . S
O147 C149 1.214 . S
O148 Cd144 2.352 . S
O148 C151 1.258 . S
C149 O146 1.320 . S
C149 O147 1.214 . S
O150 Cd142 2.277 . S
O150 C145 1.209 . S
C151 O148 1.258 . S
C151 O153 1.282 . S
O152 Cd144 2.277 . S
O152 C145 1.226 . S
O153 Cd144 2.356 . S
O153 C151 1.282 . S
C154 O155 1.306 . S
C154 O157 1.160 . S
O155 C154 1.306 . S
O155 Cd156 2.228 . S
Cd156 O155 2.228 . S
Cd156 O160 2.273 . S
Cd156 O164 2.277 . S
O157 C154 1.160 . S
O157 Cd158 2.203 . S
Cd158 O157 2.203 . S
Cd158 O160 2.411 . S
Cd158 O161 2.333 . S
Cd158 O162 2.352 . S
Cd158 O166 2.277 . S
Cd158 O167 2.356 . S
C159 O164 1.209 . S
C159 O166 1.226 . S
O160 Cd156 2.273 . S
O160 Cd158 2.411 . S
O160 C163 1.320 . S
O161 Cd158 2.333 . S
O161 C163 1.214 . S
O162 Cd158 2.352 . S
O162 C165 1.258 . S
C163 O160 1.320 . S
C163 O161 1.214 . S
O164 Cd156 2.277 . S
O164 C159 1.209 . S
C165 O162 1.258 . S
C165 O167 1.282 . S
O166 Cd158 2.277 . S
O166 C159 1.226 . S
O167 Cd158 2.356 . S
O167 C165 1.282 . S
C168 O169 1.306 . S
C168 O171 1.160 . S
O169 C168 1.306 . S
O169 Cd170 2.228 . S
Cd170 O169 2.228 . S
Cd170 O174 2.273 . S
Cd170 O178 2.277 . S
O171 C168 1.160 . S
O171 Cd172 2.203 . S
Cd172 O171 2.203 . S
Cd172 O174 2.411 . S
Cd172 O175 2.333 . S
Cd172 O176 2.352 . S
Cd172 O180 2.277 . S
Cd172 O181 2.356 . S
C173 O178 1.209 . S
C173 O180 1.226 . S
O174 Cd170 2.273 . S
O174 Cd172 2.411 . S
O174 C177 1.320 . S
O175 Cd172 2.333 . S
O175 C177 1.214 . S
O176 Cd172 2.352 . S
O176 C179 1.258 . S
C177 O174 1.320 . S
C177 O175 1.214 . S
O178 Cd170 2.277 . S
O178 C173 1.209 . S
C179 O176 1.258 . S
C179 O181 1.282 . S
O180 Cd172 2.277 . S
O180 C173 1.226 . S
O181 Cd172 2.356 . S
O181 C179 1.282 . S
C182 O183 1.306 . S
C182 O185 1.160 . S
O183 C182 1.306 . S
O183 Cd184 2.228 . S
Cd184 O183 2.228 . S
Cd184 O188 2.273 . S
Cd184 O192 2.277 . S
O185 C182 1.160 . S
O185 Cd186 2.203 . S
Cd186 O185 2.203 . S
Cd186 O188 2.411 . S
Cd186 O189 2.333 . S
Cd186 O190 2.352 . S
Cd186 O194 2.277 . S
Cd186 O195 2.356 . S
C187 O192 1.209 . S
C187 O194 1.226 . S
O188 Cd184 2.273 . S
O188 Cd186 2.411 . S
O188 C191 1.320 . S
O189 Cd186 2.333 . S
O189 C191 1.214 . S
O190 Cd186 2.352 . S
O190 C193 1.258 . S
C191 O188 1.320 . S
C191 O189 1.214 . S
O192 Cd184 2.277 . S
O192 C187 1.209 . S
C193 O190 1.258 . S
C193 O195 1.282 . S
O194 Cd186 2.277 . S
O194 C187 1.226 . S
O195 Cd186 2.356 . S
O195 C193 1.282 . S
C196 O197 1.306 . S
C196 O199 1.160 . S
O197 C196 1.306 . S
O197 Cd198 2.228 . S
Cd198 O197 2.228 . S
Cd198 O202 2.273 . S
Cd198 O206 2.277 . S
O199 C196 1.160 . S
O199 Cd200 2.203 . S
Cd200 O199 2.203 . S
Cd200 O202 2.411 . S
Cd200 O203 2.333 . S
Cd200 O204 2.352 . S
Cd200 O208 2.277 . S
Cd200 O209 2.356 . S
C201 O206 1.209 . S
C201 O208 1.226 . S
O202 Cd198 2.273 . S
O202 Cd200 2.411 . S
O202 C205 1.320 . S
O203 Cd200 2.333 . S
O203 C205 1.214 . S
O204 Cd200 2.352 . S
O204 C207 1.258 . S
C205 O202 1.320 . S
C205 O203 1.214 . S
O206 Cd198 2.277 . S
O206 C201 1.209 . S
C207 O204 1.258 . S
C207 O209 1.282 . S
O208 Cd200 2.277 . S
O208 C201 1.226 . S
O209 Cd200 2.356 . S
O209 C207 1.282 . S
C210 O211 1.306 . S
C210 O213 1.160 . S
O211 C210 1.306 . S
O211 Cd212 2.228 . S
Cd212 O211 2.228 . S
Cd212 O216 2.273 . S
Cd212 O220 2.277 . S
O213 C210 1.160 . S
O213 Cd214 2.203 . S
Cd214 O213 2.203 . S
Cd214 O216 2.411 . S
Cd214 O217 2.333 . S
Cd214 O218 2.352 . S
Cd214 O222 2.277 . S
Cd214 O223 2.356 . S
C215 O220 1.209 . S
C215 O222 1.226 . S
O216 Cd212 2.273 . S
O216 Cd214 2.411 . S
O216 C219 1.320 . S
O217 Cd214 2.333 . S
O217 C219 1.214 . S
O218 Cd214 2.352 . S
O218 C221 1.258 . S
C219 O216 1.320 . S
C219 O217 1.214 . S
O220 Cd212 2.277 . S
O220 C215 1.209 . S
C221 O218 1.258 . S
C221 O223 1.282 . S
O222 Cd214 2.277 . S
O222 C215 1.226 . S
O223 Cd214 2.356 . S
O223 C221 1.282 . S
C224 C225 1.349 . S
C224 C226 1.327 . S
C224 H249 0.950 . S
C225 C224 1.349 . S
C225 C241 1.349 . S
C226 C224 1.327 . S
C226 C245 1.429 . S
C226 H250 0.950 . S
C227 C244 1.574 . S
C227 C246 1.368 . S
C227 H251 0.949 . S
H228 C232 0.949 . S
C229 C230 1.349 . S
C229 C231 1.327 . S
C229 H252 0.950 . S
C230 C229 1.349 . S
C230 C242 1.349 . S
C231 C229 1.327 . S
C231 C247 1.429 . S
C231 H253 0.950 . S
C232 H228 0.949 . S
C232 C240 1.574 . S
C232 C248 1.368 . S
H233 C241 0.950 . S
H234 C239 0.950 . S
H235 C240 0.949 . S
H236 C242 0.950 . S
H237 C243 0.950 . S
H238 C244 0.949 . S
C239 H234 0.950 . S
C239 C241 1.327 . S
C239 C245 1.429 . S
C240 C232 1.574 . S
C240 H235 0.949 . S
C240 C246 1.368 . S
C241 C225 1.349 . S
C241 H233 0.950 . S
C241 C239 1.327 . S
C242 C230 1.349 . S
C242 H236 0.950 . S
C242 C243 1.327 . S
C243 H237 0.950 . S
C243 C242 1.327 . S
C243 C247 1.429 . S
C244 C227 1.574 . S
C244 H238 0.949 . S
C244 C248 1.368 . S
C245 C226 1.429 . S
C245 C239 1.429 . S
C245 C246 1.523 . S
C246 C227 1.368 . S
C246 C240 1.368 . S
C246 C245 1.523 . S
C247 C231 1.429 . S
C247 C243 1.429 . S
C247 C248 1.523 . S
C248 C232 1.368 . S
C248 C244 1.368 . S
C248 C247 1.523 . S
H249 C224 0.950 . S
H250 C226 0.950 . S
H251 C227 0.949 . S
H252 C229 0.950 . S
H253 C231 0.950 . S
C254 C255 1.349 . S
C254 C256 1.327 . S
C254 H279 0.950 . S
C255 C254 1.349 . S
C255 C271 1.349 . S
C256 C254 1.327 . S
C256 C275 1.429 . S
C256 H280 0.950 . S
C257 C274 1.574 . S
C257 C276 1.368 . S
C257 H281 0.949 . S
H258 C262 0.949 . S
C259 C260 1.349 . S
C259 C261 1.327 . S
C259 H282 0.950 . S
C260 C259 1.349 . S
C260 C272 1.349 . S
C261 C259 1.327 . S
C261 C277 1.429 . S
C261 H283 0.950 . S
C262 H258 0.949 . S
C262 C270 1.574 . S
C262 C278 1.368 . S
H263 C271 0.950 . S
H264 C269 0.950 . S
H265 C270 0.949 . S
H266 C272 0.950 . S
H267 C273 0.950 . S
H268 C274 0.949 . S
C269 H264 0.950 . S
C269 C271 1.327 . S
C269 C275 1.429 . S
C270 C262 1.574 . S
C270 H265 0.949 . S
C270 C276 1.368 . S
C271 C255 1.349 . S
C271 H263 0.950 . S
C271 C269 1.327 . S
C272 C260 1.349 . S
C272 H266 0.950 . S
C272 C273 1.327 . S
C273 H267 0.950 . S
C273 C272 1.327 . S
C273 C277 1.429 . S
C274 C257 1.574 . S
C274 H268 0.949 . S
C274 C278 1.368 . S
C275 C256 1.429 . S
C275 C269 1.429 . S
C275 C276 1.523 . S
C276 C257 1.368 . S
C276 C270 1.368 . S
C276 C275 1.523 . S
C277 C261 1.429 . S
C277 C273 1.429 . S
C277 C278 1.523 . S
C278 C262 1.368 . S
C278 C274 1.368 . S
C278 C277 1.523 . S
H279 C254 0.950 . S
H280 C256 0.950 . S
H281 C257 0.949 . S
H282 C259 0.950 . S
H283 C261 0.950 . S
C284 C285 1.349 . S
C284 C286 1.327 . S
C284 H309 0.950 . S
C285 C284 1.349 . S
C285 C301 1.349 . S
C286 C284 1.327 . S
C286 C305 1.429 . S
C286 H310 0.950 . S
C287 C304 1.574 . S
C287 C306 1.368 . S
C287 H311 0.949 . S
H288 C292 0.949 . S
C289 C290 1.349 . S
C289 C291 1.327 . S
C289 H312 0.950 . S
C290 C289 1.349 . S
C290 C302 1.349 . S
C291 C289 1.327 . S
C291 C307 1.429 . S
C291 H313 0.950 . S
C292 H288 0.949 . S
C292 C300 1.574 . S
C292 C308 1.368 . S
H293 C301 0.950 . S
H294 C299 0.950 . S
H295 C300 0.949 . S
H296 C302 0.950 . S
H297 C303 0.950 . S
H298 C304 0.949 . S
C299 H294 0.950 . S
C299 C301 1.327 . S
C299 C305 1.429 . S
C300 C292 1.574 . S
C300 H295 0.949 . S
C300 C306 1.368 . S
C301 C285 1.349 . S
C301 H293 0.950 . S
C301 C299 1.327 . S
C302 C290 1.349 . S
C302 H296 0.950 . S
C302 C303 1.327 . S
C303 H297 0.950 . S
C303 C302 1.327 . S
C303 C307 1.429 . S
C304 C287 1.574 . S
C304 H298 0.949 . S
C304 C308 1.368 . S
C305 C286 1.429 . S
C305 C299 1.429 . S
C305 C306 1.523 . S
C306 C287 1.368 . S
C306 C300 1.368 . S
C306 C305 1.523 . S
C307 C291 1.429 . S
C307 C303 1.429 . S
C307 C308 1.523 . S
C308 C292 1.368 . S
C308 C304 1.368 . S
C308 C307 1.523 . S
H309 C284 0.950 . S
H310 C286 0.950 . S
H311 C287 0.949 . S
H312 C289 0.950 . S
H313 C291 0.950 . S
C314 C315 1.349 . S
C314 C316 1.327 . S
C314 H339 0.950 . S
C315 C314 1.349 . S
C315 C331 1.349 . S
C316 C314 1.327 . S
C316 C335 1.429 . S
C316 H340 0.950 . S
C317 C334 1.574 . S
C317 C336 1.368 . S
C317 H341 0.949 . S
H318 C322 0.949 . S
C319 C320 1.349 . S
C319 C321 1.327 . S
C319 H342 0.950 . S
C320 C319 1.349 . S
C320 C332 1.349 . S
C321 C319 1.327 . S
C321 C337 1.429 . S
C321 H343 0.950 . S
C322 H318 0.949 . S
C322 C330 1.574 . S
C322 C338 1.368 . S
H323 C331 0.950 . S
H324 C329 0.950 . S
H325 C330 0.949 . S
H326 C332 0.950 . S
H327 C333 0.950 . S
H328 C334 0.949 . S
C329 H324 0.950 . S
C329 C331 1.327 . S
C329 C335 1.429 . S
C330 C322 1.574 . S
C330 H325 0.949 . S
C330 C336 1.368 . S
C331 C315 1.349 . S
C331 H323 0.950 . S
C331 C329 1.327 . S
C332 C320 1.349 . S
C332 H326 0.950 . S
C332 C333 1.327 . S
C333 H327 0.950 . S
C333 C332 1.327 . S
C333 C337 1.429 . S
C334 C317 1.574 . S
C334 H328 0.949 . S
C334 C338 1.368 . S
C335 C316 1.429 . S
C335 C329 1.429 . S
C335 C336 1.523 . S
C336 C317 1.368 . S
C336 C330 1.368 . S
C336 C335 1.523 . S
C337 C321 1.429 . S
C337 C333 1.429 . S
C337 C338 1.523 . S
C338 C322 1.368 . S
C338 C334 1.368 . S
C338 C337 1.523 . S
H339 C314 0.950 . S
H340 C316 0.950 . S
H341 C317 0.949 . S
H342 C319 0.950 . S
H343 C321 0.950 . S
C344 C345 1.349 . S
C344 C346 1.327 1_565 S
C344 H369 0.950 . S
C345 C344 1.349 . S
C345 C361 1.349 1_565 S
C346 C344 1.327 1_545 S
C346 C365 1.429 . S
C346 H370 0.950 . S
C347 C364 1.574 . S
C347 C366 1.368 . S
C347 H371 0.949 . S
H348 C352 0.949 . S
C349 C350 1.349 . S
C349 C351 1.326 . S
C349 H372 0.989 . S
C350 C349 1.349 . S
C350 C362 1.349 . S
C351 C349 1.326 . S
C351 C367 1.427 . S
C351 H373 0.952 1_556 S
C352 H348 0.949 . S
C352 C360 1.574 . S
C352 C368 1.388 . S
H353 C361 0.950 . S
H354 C359 0.950 . S
H355 C360 0.949 . S
H356 C362 0.950 . S
H357 C363 0.950 . S
H358 C364 0.949 . S
C359 H354 0.950 . S
C359 C361 1.327 . S
C359 C365 1.429 . S
C360 C352 1.574 . S
C360 H355 0.949 . S
C360 C366 1.368 1_556 S
C361 C345 1.349 1_545 S
C361 H353 0.950 . S
C361 C359 1.327 . S
C362 C350 1.349 . S
C362 H356 0.950 . S
C362 C363 1.327 . S
C363 H357 0.950 . S
C363 C362 1.327 . S
C363 C367 1.429 . S
C364 C347 1.574 . S
C364 H358 0.949 . S
C364 C368 1.339 1_554 S
C365 C346 1.429 . S
C365 C359 1.429 . S
C365 C366 1.523 . S
C366 C347 1.368 . S
C366 C360 1.368 1_554 S
C366 C365 1.523 . S
C367 C351 1.427 . S
C367 C363 1.429 . S
C367 C368 1.537 . S
C368 C352 1.388 . S
C368 C364 1.339 1_556 S
C368 C367 1.537 . S
H369 C344 0.950 . S
H370 C346 0.950 . S
H371 C347 0.949 . S
H372 C349 0.989 . S
H373 C351 0.952 1_554 S
C374 C375 1.349 . S
C374 C376 1.327 . S
C374 H399 0.950 . S
C375 C374 1.349 . S
C375 C391 1.349 . S
C376 C374 1.327 . S
C376 C395 1.429 . S
C376 H400 0.950 . S
C377 C394 1.574 . S
C377 C396 1.450 . S
C377 H401 0.949 . S
H378 C382 0.949 . S
C379 C380 1.349 1_455 S
C379 C381 1.327 . S
C379 H402 0.950 . S
C380 C379 1.349 1_655 S
C380 C392 1.349 . S
C381 C379 1.327 . S
C381 C397 1.429 . S
C381 H403 0.950 . S
C382 H378 0.949 . S
C382 C390 1.574 . S
C382 C398 1.368 1_554 S
H383 C391 0.950 1_556 S
H384 C389 0.950 . S
H385 C390 0.949 . S
H386 C392 0.950 . S
H387 C393 0.950 1_554 S
H388 C394 0.949 . S
C389 H384 0.950 . S
C389 C391 1.327 1_556 S
C389 C395 1.429 1_556 S
C390 C382 1.574 . S
C390 H385 0.949 . S
C390 C396 1.311 1_554 S
C391 C375 1.349 . S
C391 H383 0.950 1_554 S
C391 C389 1.327 1_554 S
C392 C380 1.349 . S
C392 H386 0.950 . S
C392 C393 1.327 1_655 S
C393 H387 0.950 1_556 S
C393 C392 1.327 1_455 S
C393 C397 1.429 . S
C394 C377 1.574 . S
C394 H388 0.949 . S
C394 C398 1.368 . S
C395 C376 1.429 . S
C395 C389 1.429 1_554 S
C395 C396 1.495 1_554 S
C396 C377 1.450 . S
C396 C390 1.311 1_556 S
C396 C395 1.495 1_556 S
C397 C381 1.429 . S
C397 C393 1.429 . S
C397 C398 1.523 . S
C398 C382 1.368 1_556 S
C398 C394 1.368 . S
C398 C397 1.523 . S
H399 C374 0.950 . S
H400 C376 0.950 . S
H401 C377 0.949 . S
H402 C379 0.950 . S
H403 C381 0.950 . S
C404 C405 1.349 . S
C404 C406 1.327 . S
C404 H429 0.950 . S
C405 C404 1.349 . S
C405 C421 1.349 . S
C406 C404 1.327 . S
C406 C425 1.429 . S
C406 H430 0.950 . S
C407 C424 1.574 . S
C407 C426 1.332 1_554 S
C407 H431 0.949 . S
H408 C412 0.949 . S
C409 C410 1.349 1_565 S
C409 C411 1.327 . S
C409 H432 0.950 . S
C410 C409 1.349 1_545 S
C410 C422 1.349 . S
C411 C409 1.327 . S
C411 C427 1.429 . S
C411 H433 0.950 . S
C412 H408 0.949 . S
C412 C420 1.574 . S
C412 C428 1.368 1_556 S
H413 C421 0.950 1_554 S
H414 C419 0.950 . S
H415 C420 0.949 . S
H416 C422 0.950 . S
H417 C423 0.950 1_556 S
H418 C424 0.949 . S
C419 H414 0.950 . S
C419 C421 1.327 1_554 S
C419 C425 1.429 1_554 S
C420 C412 1.574 . S
C420 H415 0.949 . S
C420 C426 1.394 . S
C421 C405 1.349 . S
C421 H413 0.950 1_556 S
C421 C419 1.327 1_556 S
C422 C410 1.349 . S
C422 H416 0.950 . S
C422 C423 1.327 1_545 S
C423 H417 0.950 1_554 S
C423 C422 1.327 1_565 S
C423 C427 1.429 . S
C424 C407 1.574 . S
C424 H418 0.949 . S
C424 C428 1.368 . S
C425 C406 1.429 . S
C425 C419 1.429 1_556 S
C425 C426 1.537 . S
C426 C407 1.332 1_556 S
C426 C420 1.394 . S
C426 C425 1.537 . S
C427 C411 1.429 . S
C427 C423 1.429 . S
C427 C428 1.523 . S
C428 C412 1.368 1_554 S
C428 C424 1.368 . S
C428 C427 1.523 . S
H429 C404 0.950 . S
H430 C406 0.950 . S
H431 C407 0.949 . S
H432 C409 0.950 . S
H433 C411 0.950 . S
C434 C435 1.349 . S
C434 C436 1.327 . S
C434 H459 0.950 . S
C435 C434 1.349 . S
C435 C451 1.349 . S
C436 C434 1.327 . S
C436 C455 1.429 . S
C436 H460 0.950 . S
C437 C454 1.574 . S
C437 C456 1.447 . S
C437 H461 0.949 . S
H438 C442 0.949 . S
C439 C440 1.349 1_655 S
C439 C441 1.327 . S
C439 H462 0.950 . S
C440 C439 1.349 1_455 S
C440 C452 1.349 . S
C441 C439 1.327 . S
C441 C457 1.429 . S
C441 H463 0.950 . S
C442 H438 0.949 . S
C442 C450 1.574 . S
C442 C458 1.368 1_554 S
H443 C451 0.950 1_556 S
H444 C449 0.950 . S
H445 C450 0.949 . S
H446 C452 0.950 . S
H447 C453 0.950 1_554 S
H448 C454 0.949 . S
C449 H444 0.950 . S
C449 C451 1.327 1_556 S
C449 C455 1.429 1_556 S
C450 C442 1.574 . S
C450 H445 0.949 . S
C450 C456 1.313 1_554 S
C451 C435 1.349 . S
C451 H443 0.950 1_554 S
C451 C449 1.327 1_554 S
C452 C440 1.349 . S
C452 H446 0.950 . S
C452 C453 1.327 1_455 S
C453 H447 0.950 1_556 S
C453 C452 1.327 1_655 S
C453 C457 1.429 . S
C454 C437 1.574 . S
C454 H448 0.949 . S
C454 C458 1.368 . S
C455 C436 1.429 . S
C455 C449 1.429 1_554 S
C455 C456 1.495 1_554 S
C456 C437 1.447 . S
C456 C450 1.313 1_556 S
C456 C455 1.495 1_556 S
C457 C441 1.429 . S
C457 C453 1.429 . S
C457 C458 1.523 . S
C458 C442 1.368 1_556 S
C458 C454 1.368 . S
C458 C457 1.523 . S
H459 C434 0.950 . S
H460 C436 0.950 . S
H461 C437 0.949 . S
H462 C439 0.950 . S
H463 C441 0.950 . S
C464 C465 1.349 . S
C464 C466 1.327 . S
C464 H489 0.950 . S
C465 C464 1.349 . S
C465 C481 1.349 . S
C466 C464 1.327 . S
C466 C485 1.429 . S
C466 H490 0.950 . S
C467 C484 1.574 . S
C467 C486 1.368 . S
C467 H491 0.949 . S
H468 C472 0.949 . S
C469 C470 1.343 1_565 S
C469 C471 1.339 . S
C469 H492 0.944 1_565 S
C470 C469 1.343 1_545 S
C470 C482 1.349 . S
C471 C469 1.339 . S
C471 C487 1.429 . S
C471 H493 0.950 . S
C472 H468 0.949 . S
C472 C480 1.574 . S
C472 C488 1.368 . S
H473 C481 0.950 . S
H474 C479 0.950 . S
H475 C480 0.949 . S
H476 C482 0.950 . S
H477 C483 0.950 . S
H478 C484 0.949 . S
C479 H474 0.950 . S
C479 C481 1.327 . S
C479 C485 1.429 . S
C480 C472 1.574 . S
C480 H475 0.949 . S
C480 C486 1.368 . S
C481 C465 1.349 . S
C481 H473 0.950 . S
C481 C479 1.327 . S
C482 C470 1.349 . S
C482 H476 0.950 . S
C482 C483 1.327 1_545 S
C483 H477 0.950 . S
C483 C482 1.327 1_565 S
C483 C487 1.429 . S
C484 C467 1.574 . S
C484 H478 0.949 . S
C484 C488 1.368 . S
C485 C466 1.429 . S
C485 C479 1.429 . S
C485 C486 1.523 . S
C486 C467 1.368 . S
C486 C480 1.368 . S
C486 C485 1.523 . S
C487 C471 1.429 . S
C487 C483 1.429 . S
C487 C488 1.523 . S
C488 C472 1.368 . S
C488 C484 1.368 . S
C488 C487 1.523 . S
H489 C464 0.950 . S
H490 C466 0.950 . S
H491 C467 0.949 . S
H492 C469 0.944 1_545 S
H493 C471 0.950 . S
C494 C495 1.349 . S
C494 C496 1.327 1_455 S
C494 H519 0.950 . S
C495 C494 1.349 . S
C495 C511 1.349 1_455 S
C496 C494 1.327 1_655 S
C496 C515 1.429 . S
C496 H520 0.950 . S
C497 C514 1.574 . S
C497 C516 1.368 . S
C497 H521 0.949 . S
H498 C502 0.949 . S
C499 C500 1.349 . S
C499 C501 1.327 . S
C499 H522 0.950 . S
C500 C499 1.349 . S
C500 C512 1.349 . S
C501 C499 1.327 . S
C501 C517 1.429 . S
C501 H523 0.950 . S
C502 H498 0.949 . S
C502 C510 1.574 . S
C502 C518 1.368 . S
H503 C511 0.950 . S
H504 C509 0.950 . S
H505 C510 0.949 . S
H506 C512 0.950 . S
H507 C513 0.950 . S
H508 C514 0.949 . S
C509 H504 0.950 . S
C509 C511 1.327 . S
C509 C515 1.429 . S
C510 C502 1.574 . S
C510 H505 0.949 . S
C510 C516 1.368 . S
C511 C495 1.349 1_655 S
C511 H503 0.950 . S
C511 C509 1.327 . S
C512 C500 1.349 . S
C512 H506 0.950 . S
C512 C513 1.327 . S
C513 H507 0.950 . S
C513 C512 1.327 . S
C513 C517 1.429 . S
C514 C497 1.574 . S
C514 H508 0.949 . S
C514 C518 1.368 . S
C515 C496 1.429 . S
C515 C509 1.429 . S
C515 C516 1.523 . S
C516 C497 1.368 . S
C516 C510 1.368 . S
C516 C515 1.523 . S
C517 C501 1.429 . S
C517 C513 1.429 . S
C517 C518 1.523 . S
C518 C502 1.368 . S
C518 C514 1.368 . S
C518 C517 1.523 . S
H519 C494 0.950 . S
H520 C496 0.950 . S
H521 C497 0.949 . S
H522 C499 0.950 . S
H523 C501 0.950 . S
C524 C525 1.349 . S
C524 C526 1.327 1_565 S
C524 H549 0.950 . S
C525 C524 1.349 . S
C525 C541 1.349 1_565 S
C526 C524 1.327 1_545 S
C526 C545 1.429 . S
C526 H550 0.950 . S
C527 C544 1.574 . S
C527 C546 1.368 . S
C527 H551 0.949 . S
H528 C532 0.949 . S
C529 C530 1.349 . S
C529 C531 1.327 . S
C529 H552 0.950 . S
C530 C529 1.349 . S
C530 C542 1.349 . S
C531 C529 1.327 . S
C531 C547 1.429 . S
C531 H553 0.950 . S
C532 H528 0.949 . S
C532 C540 1.574 . S
C532 C548 1.368 . S
H533 C541 0.950 . S
H534 C539 0.950 . S
H535 C540 0.949 . S
H536 C542 0.950 . S
H537 C543 0.950 . S
H538 C544 0.949 . S
C539 H534 0.950 . S
C539 C541 1.327 . S
C539 C545 1.429 . S
C540 C532 1.574 . S
C540 H535 0.949 . S
C540 C546 1.368 . S
C541 C525 1.349 1_545 S
C541 H533 0.950 . S
C541 C539 1.327 . S
C542 C530 1.349 . S
C542 H536 0.950 . S
C542 C543 1.327 . S
C543 H537 0.950 . S
C543 C542 1.327 . S
C543 C547 1.429 . S
C544 C527 1.574 . S
C544 H538 0.949 . S
C544 C548 1.368 . S
C545 C526 1.429 . S
C545 C539 1.429 . S
C545 C546 1.523 . S
C546 C527 1.368 . S
C546 C540 1.368 . S
C546 C545 1.523 . S
C547 C531 1.429 . S
C547 C543 1.429 . S
C547 C548 1.523 . S
C548 C532 1.368 . S
C548 C544 1.368 . S
C548 C547 1.523 . S
H549 C524 0.950 . S
H550 C526 0.950 . S
H551 C527 0.949 . S
H552 C529 0.950 . S
H553 C531 0.950 . S
C554 C555 1.349 1_455 S
C554 C556 1.327 . S
C554 H579 0.950 1_455 S
C555 C554 1.349 1_655 S
C555 C571 1.349 . S
C556 C554 1.327 . S
C556 C575 1.429 . S
C556 H580 0.950 . S
C557 C574 1.574 . S
C557 C576 1.368 . S
C557 H581 0.949 . S
H558 C562 0.949 . S
C559 C560 1.349 . S
C559 C561 1.327 . S
C559 H582 0.950 . S
C560 C559 1.349 . S
C560 C572 1.349 . S
C561 C559 1.327 . S
C561 C577 1.429 . S
C561 H583 0.950 . S
C562 H558 0.949 . S
C562 C570 1.574 . S
C562 C578 1.368 . S
H563 C571 0.950 . S
H564 C569 0.950 . S
H565 C570 0.949 . S
H566 C572 0.950 . S
H567 C573 0.950 . S
H568 C574 0.949 . S
C569 H564 0.950 . S
C569 C571 1.327 1_455 S
C569 C575 1.429 . S
C570 C562 1.574 . S
C570 H565 0.949 . S
C570 C576 1.368 . S
C571 C555 1.349 . S
C571 H563 0.950 . S
C571 C569 1.327 1_655 S
C572 C560 1.349 . S
C572 H566 0.950 . S
C572 C573 1.327 . S
C573 H567 0.950 . S
C573 C572 1.327 . S
C573 C577 1.429 . S
C574 C557 1.574 . S
C574 H568 0.949 . S
C574 C578 1.368 . S
C575 C556 1.429 . S
C575 C569 1.429 . S
C575 C576 1.523 . S
C576 C557 1.368 . S
C576 C570 1.368 . S
C576 C575 1.523 . S
C577 C561 1.429 . S
C577 C573 1.429 . S
C577 C578 1.523 . S
C578 C562 1.368 . S
C578 C574 1.368 . S
C578 C577 1.523 . S
H579 C554 0.950 1_655 S
H580 C556 0.950 . S
H581 C557 0.949 . S
H582 C559 0.950 . S
H583 C561 0.950 . S
C584 C585 1.349 . S
C584 C586 1.327 . S
C584 H609 0.950 . S
C585 C584 1.349 . S
C585 C601 1.349 . S
C586 C584 1.327 . S
C586 C605 1.429 . S
C586 H610 0.950 . S
C587 C604 1.574 . S
C587 C606 1.368 . S
C587 H611 0.949 . S
H588 C592 0.949 . S
C589 C590 1.349 . S
C589 C591 1.327 . S
C589 H612 0.950 . S
C590 C589 1.349 . S
C590 C602 1.349 . S
C591 C589 1.327 . S
C591 C607 1.429 . S
C591 H613 0.950 . S
C592 H588 0.949 . S
C592 C600 1.574 . S
C592 C608 1.368 . S
H593 C601 0.950 . S
H594 C599 0.950 . S
H595 C600 0.949 . S
H596 C602 0.950 . S
H597 C603 0.950 . S
H598 C604 0.949 . S
C599 H594 0.950 . S
C599 C601 1.327 . S
C599 C605 1.429 . S
C600 C592 1.574 . S
C600 H595 0.949 . S
C600 C606 1.368 . S
C601 C585 1.349 . S
C601 H593 0.950 . S
C601 C599 1.327 . S
C602 C590 1.349 . S
C602 H596 0.950 . S
C602 C603 1.327 . S
C603 H597 0.950 . S
C603 C602 1.327 . S
C603 C607 1.429 . S
C604 C587 1.574 . S
C604 H598 0.949 . S
C604 C608 1.368 . S
C605 C586 1.429 . S
C605 C599 1.429 . S
C605 C606 1.523 . S
C606 C587 1.368 . S
C606 C600 1.368 . S
C606 C605 1.523 . S
C607 C591 1.429 . S
C607 C603 1.429 . S
C607 C608 1.523 . S
C608 C592 1.368 . S
C608 C604 1.368 . S
C608 C607 1.523 . S
H609 C584 0.950 . S
H610 C586 0.950 . S
H611 C587 0.949 . S
H612 C589 0.950 . S
H613 C591 0.950 . S
C614 C615 1.349 . S
C614 C616 1.327 . S
C614 H639 0.950 . S
C615 C614 1.349 . S
C615 C631 1.349 . S
C616 C614 1.327 . S
C616 C635 1.429 . S
C616 H640 0.950 . S
C617 C634 1.574 . S
C617 C636 1.368 . S
C617 H641 0.949 . S
H618 C622 0.949 . S
C619 C620 1.349 . S
C619 C621 1.327 . S
C619 H642 0.950 . S
C620 C619 1.349 . S
C620 C632 1.349 . S
C621 C619 1.327 . S
C621 C637 1.429 . S
C621 H643 0.950 . S
C622 H618 0.949 . S
C622 C630 1.574 . S
C622 C638 1.368 . S
H623 C631 0.950 . S
H624 C629 0.950 . S
H625 C630 0.949 . S
H626 C632 0.950 . S
H627 C633 0.950 . S
H628 C634 0.949 . S
C629 H624 0.950 . S
C629 C631 1.327 . S
C629 C635 1.429 . S
C630 C622 1.574 . S
C630 H625 0.949 . S
C630 C636 1.368 . S
C631 C615 1.349 . S
C631 H623 0.950 . S
C631 C629 1.327 . S
C632 C620 1.349 . S
C632 H626 0.950 . S
C632 C633 1.327 . S
C633 H627 0.950 . S
C633 C632 1.327 . S
C633 C637 1.429 . S
C634 C617 1.574 . S
C634 H628 0.949 . S
C634 C638 1.368 . S
C635 C616 1.429 . S
C635 C629 1.429 . S
C635 C636 1.523 . S
C636 C617 1.368 . S
C636 C630 1.368 . S
C636 C635 1.523 . S
C637 C621 1.429 . S
C637 C633 1.429 . S
C637 C638 1.523 . S
C638 C622 1.368 . S
C638 C634 1.368 . S
C638 C637 1.523 . S
H639 C614 0.950 . S
H640 C616 0.950 . S
H641 C617 0.949 . S
H642 C619 0.950 . S
H643 C621 0.950 . S
C644 C645 1.349 . S
C644 C646 1.327 . S
C644 H669 0.950 . S
C645 C644 1.349 . S
C645 C661 1.349 . S
C646 C644 1.327 . S
C646 C665 1.429 . S
C646 H670 0.950 . S
C647 C664 1.574 . S
C647 C666 1.368 . S
C647 H671 0.949 . S
H648 C652 0.949 . S
C649 C650 1.349 . S
C649 C651 1.327 . S
C649 H672 0.950 . S
C650 C649 1.349 . S
C650 C662 1.349 . S
C651 C649 1.327 . S
C651 C667 1.429 . S
C651 H673 0.950 . S
C652 H648 0.949 . S
C652 C660 1.574 . S
C652 C668 1.368 . S
H653 C661 0.950 . S
H654 C659 0.950 . S
H655 C660 0.949 . S
H656 C662 0.950 . S
H657 C663 0.950 . S
H658 C664 0.949 . S
C659 H654 0.950 . S
C659 C661 1.327 . S
C659 C665 1.429 . S
C660 C652 1.574 . S
C660 H655 0.949 . S
C660 C666 1.368 . S
C661 C645 1.349 . S
C661 H653 0.950 . S
C661 C659 1.327 . S
C662 C650 1.349 . S
C662 H656 0.950 . S
C662 C663 1.327 . S
C663 H657 0.950 . S
C663 C662 1.327 . S
C663 C667 1.429 . S
C664 C647 1.574 . S
C664 H658 0.949 . S
C664 C668 1.368 . S
C665 C646 1.429 . S
C665 C659 1.429 . S
C665 C666 1.523 . S
C666 C647 1.368 . S
C666 C660 1.368 . S
C666 C665 1.523 . S
C667 C651 1.429 . S
C667 C663 1.429 . S
C667 C668 1.523 . S
C668 C652 1.368 . S
C668 C664 1.368 . S
C668 C667 1.523 . S
H669 C644 0.950 . S
H670 C646 0.950 . S
H671 C647 0.949 . S
H672 C649 0.950 . S
H673 C651 0.950 . S
C674 C675 1.349 . S
C674 C676 1.327 . S
C674 H699 0.950 . S
C675 C674 1.349 . S
C675 C691 1.349 . S
C676 C674 1.327 . S
C676 C695 1.429 . S
C676 H700 0.950 . S
C677 C694 1.574 . S
C677 C696 1.368 . S
C677 H701 0.949 . S
H678 C682 0.949 . S
C679 C680 1.349 . S
C679 C681 1.327 . S
C679 H702 0.950 . S
C680 C679 1.349 . S
C680 C692 1.349 . S
C681 C679 1.327 . S
C681 C697 1.429 . S
C681 H703 0.950 . S
C682 H678 0.949 . S
C682 C690 1.574 . S
C682 C698 1.368 . S
H683 C691 0.950 . S
H684 C689 0.950 . S
H685 C690 0.949 . S
H686 C692 0.950 . S
H687 C693 0.950 . S
H688 C694 0.949 . S
C689 H684 0.950 . S
C689 C691 1.327 . S
C689 C695 1.429 . S
C690 C682 1.574 . S
C690 H685 0.949 . S
C690 C696 1.368 . S
C691 C675 1.349 . S
C691 H683 0.950 . S
C691 C689 1.327 . S
C692 C680 1.349 . S
C692 H686 0.950 . S
C692 C693 1.327 . S
C693 H687 0.950 . S
C693 C692 1.327 . S
C693 C697 1.429 . S
C694 C677 1.574 . S
C694 H688 0.949 . S
C694 C698 1.368 . S
C695 C676 1.429 . S
C695 C689 1.429 . S
C695 C696 1.523 . S
C696 C677 1.368 . S
C696 C690 1.368 . S
C696 C695 1.523 . S
C697 C681 1.429 . S
C697 C693 1.429 . S
C697 C698 1.523 . S
C698 C682 1.368 . S
C698 C694 1.368 . S
C698 C697 1.523 . S
H699 C674 0.950 . S
H700 C676 0.950 . S
H701 C677 0.949 . S
H702 C679 0.950 . S
H703 C681 0.950 . S
C704 C705 1.349 . S
C704 C706 1.327 . S
C704 H729 0.950 . S
C705 C704 1.349 . S
C705 C721 1.349 . S
C706 C704 1.327 . S
C706 C725 1.429 . S
C706 H730 0.950 . S
C707 C724 1.574 . S
C707 C726 1.368 . S
C707 H731 0.949 . S
H708 C712 0.949 . S
C709 C710 1.349 . S
C709 C711 1.327 . S
C709 H732 0.950 . S
C710 C709 1.349 . S
C710 C722 1.349 . S
C711 C709 1.327 . S
C711 C727 1.429 . S
C711 H733 0.950 . S
C712 H708 0.949 . S
C712 C720 1.574 . S
C712 C728 1.368 . S
H713 C721 0.950 . S
H714 C719 0.950 . S
H715 C720 0.949 . S
H716 C722 0.950 . S
H717 C723 0.950 . S
H718 C724 0.949 . S
C719 H714 0.950 . S
C719 C721 1.327 . S
C719 C725 1.429 . S
C720 C712 1.574 . S
C720 H715 0.949 . S
C720 C726 1.368 . S
C721 C705 1.349 . S
C721 H713 0.950 . S
C721 C719 1.327 . S
C722 C710 1.349 . S
C722 H716 0.950 . S
C722 C723 1.327 . S
C723 H717 0.950 . S
C723 C722 1.327 . S
C723 C727 1.429 . S
C724 C707 1.574 . S
C724 H718 0.949 . S
C724 C728 1.368 . S
C725 C706 1.429 . S
C725 C719 1.429 . S
C725 C726 1.523 . S
C726 C707 1.368 . S
C726 C720 1.368 . S
C726 C725 1.523 . S
C727 C711 1.429 . S
C727 C723 1.429 . S
C727 C728 1.523 . S
C728 C712 1.368 . S
C728 C724 1.368 . S
C728 C727 1.523 . S
H729 C704 0.950 . S
H730 C706 0.950 . S
H731 C707 0.949 . S
H732 C709 0.950 . S
H733 C711 0.950 . S
C734 C735 1.349 . S
C734 C736 1.327 . S
C734 H759 0.950 . S
C735 C734 1.349 . S
C735 C751 1.349 . S
C736 C734 1.327 . S
C736 C755 1.429 . S
C736 H760 0.950 . S
C737 C754 1.574 . S
C737 C756 1.368 . S
C737 H761 0.949 . S
H738 C742 0.949 . S
C739 C740 1.349 . S
C739 C741 1.327 . S
C739 H762 0.950 . S
C740 C739 1.349 . S
C740 C752 1.349 . S
C741 C739 1.327 . S
C741 C757 1.429 . S
C741 H763 0.950 . S
C742 H738 0.949 . S
C742 C750 1.574 . S
C742 C758 1.368 . S
H743 C751 0.950 . S
H744 C749 0.950 . S
H745 C750 0.949 . S
H746 C752 0.950 . S
H747 C753 0.950 . S
H748 C754 0.949 . S
C749 H744 0.950 . S
C749 C751 1.327 . S
C749 C755 1.429 . S
C750 C742 1.574 . S
C750 H745 0.949 . S
C750 C756 1.368 . S
C751 C735 1.349 . S
C751 H743 0.950 . S
C751 C749 1.327 . S
C752 C740 1.349 . S
C752 H746 0.950 . S
C752 C753 1.327 . S
C753 H747 0.950 . S
C753 C752 1.327 . S
C753 C757 1.429 . S
C754 C737 1.574 . S
C754 H748 0.949 . S
C754 C758 1.368 . S
C755 C736 1.429 . S
C755 C749 1.429 . S
C755 C756 1.523 . S
C756 C737 1.368 . S
C756 C750 1.368 . S
C756 C755 1.523 . S
C757 C741 1.429 . S
C757 C753 1.429 . S
C757 C758 1.523 . S
C758 C742 1.368 . S
C758 C754 1.368 . S
C758 C757 1.523 . S
H759 C734 0.950 . S
H760 C736 0.950 . S
H761 C737 0.949 . S
H762 C739 0.950 . S
H763 C741 0.950 . S
C764 C765 1.349 . S
C764 C766 1.327 . S
C764 H789 0.950 . S
C765 C764 1.349 . S
C765 C781 1.349 . S
C766 C764 1.327 . S
C766 C785 1.429 . S
C766 H790 0.950 . S
C767 C784 1.574 . S
C767 C786 1.368 . S
C767 H791 0.949 . S
H768 C772 0.949 . S
C769 C770 1.349 . S
C769 C771 1.327 . S
C769 H792 0.950 . S
C770 C769 1.349 . S
C770 C782 1.349 . S
C771 C769 1.327 . S
C771 C787 1.429 . S
C771 H793 0.950 . S
C772 H768 0.949 . S
C772 C780 1.574 . S
C772 C788 1.368 . S
H773 C781 0.950 . S
H774 C779 0.950 . S
H775 C780 0.949 . S
H776 C782 0.950 . S
H777 C783 0.950 . S
H778 C784 0.949 . S
C779 H774 0.950 . S
C779 C781 1.327 . S
C779 C785 1.429 . S
C780 C772 1.574 . S
C780 H775 0.949 . S
C780 C786 1.368 . S
C781 C765 1.349 . S
C781 H773 0.950 . S
C781 C779 1.327 . S
C782 C770 1.349 . S
C782 H776 0.950 . S
C782 C783 1.327 . S
C783 H777 0.950 . S
C783 C782 1.327 . S
C783 C787 1.429 . S
C784 C767 1.574 . S
C784 H778 0.949 . S
C784 C788 1.368 . S
C785 C766 1.429 . S
C785 C779 1.429 . S
C785 C786 1.523 . S
C786 C767 1.368 . S
C786 C780 1.368 . S
C786 C785 1.523 . S
C787 C771 1.429 . S
C787 C783 1.429 . S
C787 C788 1.523 . S
C788 C772 1.368 . S
C788 C784 1.368 . S
C788 C787 1.523 . S
H789 C764 0.950 . S
H790 C766 0.950 . S
H791 C767 0.949 . S
H792 C769 0.950 . S
H793 C771 0.950 . S
C794 C795 1.349 . S
C794 C796 1.327 . S
C794 H819 0.950 . S
C795 C794 1.349 . S
C795 C811 1.349 . S
C796 C794 1.327 . S
C796 C815 1.429 . S
C796 H820 0.950 . S
C797 C814 1.574 . S
C797 C816 1.368 . S
C797 H821 0.949 . S
H798 C802 0.949 . S
C799 C800 1.349 . S
C799 C801 1.327 . S
C799 H822 0.950 . S
C800 C799 1.349 . S
C800 C812 1.349 . S
C801 C799 1.327 . S
C801 C817 1.429 . S
C801 H823 0.950 . S
C802 H798 0.949 . S
C802 C810 1.574 . S
C802 C818 1.368 . S
H803 C811 0.950 . S
H804 C809 0.950 . S
H805 C810 0.949 . S
H806 C812 0.950 . S
H807 C813 0.950 . S
H808 C814 0.949 . S
C809 H804 0.950 . S
C809 C811 1.327 . S
C809 C815 1.429 . S
C810 C802 1.574 . S
C810 H805 0.949 . S
C810 C816 1.368 . S
C811 C795 1.349 . S
C811 H803 0.950 . S
C811 C809 1.327 . S
C812 C800 1.349 . S
C812 H806 0.950 . S
C812 C813 1.327 . S
C813 H807 0.950 . S
C813 C812 1.327 . S
C813 C817 1.429 . S
C814 C797 1.574 . S
C814 H808 0.949 . S
C814 C818 1.368 . S
C815 C796 1.429 . S
C815 C809 1.429 . S
C815 C816 1.523 . S
C816 C797 1.368 . S
C816 C810 1.368 . S
C816 C815 1.523 . S
C817 C801 1.429 . S
C817 C813 1.429 . S
C817 C818 1.523 . S
C818 C802 1.368 . S
C818 C814 1.368 . S
C818 C817 1.523 . S
H819 C794 0.950 . S
H820 C796 0.950 . S
H821 C797 0.949 . S
H822 C799 0.950 . S
H823 C801 0.950 . S
C824 C825 1.349 . S
C824 C826 1.327 . S
C824 H849 0.950 . S
C825 C824 1.349 . S
C825 C841 1.349 . S
C826 C824 1.327 . S
C826 C845 1.429 . S
C826 H850 0.950 . S
C827 C844 1.574 . S
C827 C846 1.368 . S
C827 H851 0.949 . S
H828 C832 0.949 . S
C829 C830 1.349 . S
C829 C831 1.327 . S
C829 H852 0.950 . S
C830 C829 1.349 . S
C830 C842 1.349 . S
C831 C829 1.327 . S
C831 C847 1.429 . S
C831 H853 0.950 . S
C832 H828 0.949 . S
C832 C840 1.574 . S
C832 C848 1.368 . S
H833 C841 0.950 . S
H834 C839 0.950 . S
H835 C840 0.949 . S
H836 C842 0.950 . S
H837 C843 0.950 . S
H838 C844 0.949 . S
C839 H834 0.950 . S
C839 C841 1.327 . S
C839 C845 1.429 . S
C840 C832 1.574 . S
C840 H835 0.949 . S
C840 C846 1.368 . S
C841 C825 1.349 . S
C841 H833 0.950 . S
C841 C839 1.327 . S
C842 C830 1.349 . S
C842 H836 0.950 . S
C842 C843 1.327 . S
C843 H837 0.950 . S
C843 C842 1.327 . S
C843 C847 1.429 . S
C844 C827 1.574 . S
C844 H838 0.949 . S
C844 C848 1.368 . S
C845 C826 1.429 . S
C845 C839 1.429 . S
C845 C846 1.523 . S
C846 C827 1.368 . S
C846 C840 1.368 . S
C846 C845 1.523 . S
C847 C831 1.429 . S
C847 C843 1.429 . S
C847 C848 1.523 . S
C848 C832 1.368 . S
C848 C844 1.368 . S
C848 C847 1.523 . S
H849 C824 0.950 . S
H850 C826 0.950 . S
H851 C827 0.949 . S
H852 C829 0.950 . S
H853 C831 0.950 . S
C854 C855 1.349 . S
C854 C856 1.327 . S
C854 H879 0.950 . S
C855 C854 1.349 . S
C855 C871 1.349 . S
C856 C854 1.327 . S
C856 C875 1.429 . S
C856 H880 0.950 . S
C857 C874 1.574 . S
C857 C876 1.368 . S
C857 H881 0.949 . S
H858 C862 0.949 . S
C859 C860 1.349 . S
C859 C861 1.327 . S
C859 H882 0.950 . S
C860 C859 1.349 . S
C860 C872 1.349 . S
C861 C859 1.327 . S
C861 C877 1.429 . S
C861 H883 0.950 . S
C862 H858 0.949 . S
C862 C870 1.574 . S
C862 C878 1.368 . S
H863 C871 0.950 . S
H864 C869 0.950 . S
H865 C870 0.949 . S
H866 C872 0.950 . S
H867 C873 0.950 . S
H868 C874 0.949 . S
C869 H864 0.950 . S
C869 C871 1.327 . S
C869 C875 1.429 . S
C870 C862 1.574 . S
C870 H865 0.949 . S
C870 C876 1.368 . S
C871 C855 1.349 . S
C871 H863 0.950 . S
C871 C869 1.327 . S
C872 C860 1.349 . S
C872 H866 0.950 . S
C872 C873 1.327 . S
C873 H867 0.950 . S
C873 C872 1.327 . S
C873 C877 1.429 . S
C874 C857 1.574 . S
C874 H868 0.949 . S
C874 C878 1.368 . S
C875 C856 1.429 . S
C875 C869 1.429 . S
C875 C876 1.523 . S
C876 C857 1.368 . S
C876 C870 1.368 . S
C876 C875 1.523 . S
C877 C861 1.429 . S
C877 C873 1.429 . S
C877 C878 1.523 . S
C878 C862 1.368 . S
C878 C874 1.368 . S
C878 C877 1.523 . S
H879 C854 0.950 . S
H880 C856 0.950 . S
H881 C857 0.949 . S
H882 C859 0.950 . S
H883 C861 0.950 . S
C884 C885 1.349 . S
C884 C886 1.327 . S
C884 H909 0.950 . S
C885 C884 1.349 . S
C885 C901 1.349 . S
C886 C884 1.327 . S
C886 C905 1.429 . S
C886 H910 0.950 . S
C887 C904 1.574 . S
C887 C906 1.368 . S
C887 H911 0.949 . S
H888 C892 0.949 . S
C889 C890 1.349 . S
C889 C891 1.327 . S
C889 H912 0.950 . S
C890 C889 1.349 . S
C890 C902 1.349 . S
C891 C889 1.327 . S
C891 C907 1.429 . S
C891 H913 0.950 . S
C892 H888 0.949 . S
C892 C900 1.574 . S
C892 C908 1.368 . S
H893 C901 0.950 . S
H894 C899 0.950 . S
H895 C900 0.949 . S
H896 C902 0.950 . S
H897 C903 0.950 . S
H898 C904 0.949 . S
C899 H894 0.950 . S
C899 C901 1.327 . S
C899 C905 1.429 . S
C900 C892 1.574 . S
C900 H895 0.949 . S
C900 C906 1.368 . S
C901 C885 1.349 . S
C901 H893 0.950 . S
C901 C899 1.327 . S
C902 C890 1.349 . S
C902 H896 0.950 . S
C902 C903 1.327 . S
C903 H897 0.950 . S
C903 C902 1.327 . S
C903 C907 1.429 . S
C904 C887 1.574 . S
C904 H898 0.949 . S
C904 C908 1.368 . S
C905 C886 1.429 . S
C905 C899 1.429 . S
C905 C906 1.523 . S
C906 C887 1.368 . S
C906 C900 1.368 . S
C906 C905 1.523 . S
C907 C891 1.429 . S
C907 C903 1.429 . S
C907 C908 1.523 . S
C908 C892 1.368 . S
C908 C904 1.368 . S
C908 C907 1.523 . S
H909 C884 0.950 . S
H910 C886 0.950 . S
H911 C887 0.949 . S
H912 C889 0.950 . S
H913 C891 0.950 . S
C914 C915 1.349 . S
C914 C916 1.327 . S
C914 H939 0.950 . S
C915 C914 1.349 . S
C915 C931 1.349 . S
C916 C914 1.327 . S
C916 C935 1.429 . S
C916 H940 0.950 . S
C917 C934 1.574 . S
C917 C936 1.368 . S
C917 H941 0.949 . S
H918 C922 0.949 . S
C919 C920 1.349 . S
C919 C921 1.327 . S
C919 H942 0.950 . S
C920 C919 1.349 . S
C920 C932 1.349 . S
C921 C919 1.327 . S
C921 C937 1.429 . S
C921 H943 0.950 . S
C922 H918 0.949 . S
C922 C930 1.574 . S
C922 C938 1.368 . S
H923 C931 0.950 . S
H924 C929 0.950 . S
H925 C930 0.949 . S
H926 C932 0.950 . S
H927 C933 0.950 . S
H928 C934 0.949 . S
C929 H924 0.950 . S
C929 C931 1.327 . S
C929 C935 1.429 . S
C930 C922 1.574 . S
C930 H925 0.949 . S
C930 C936 1.368 . S
C931 C915 1.349 . S
C931 H923 0.950 . S
C931 C929 1.327 . S
C932 C920 1.349 . S
C932 H926 0.950 . S
C932 C933 1.327 . S
C933 H927 0.950 . S
C933 C932 1.327 . S
C933 C937 1.429 . S
C934 C917 1.574 . S
C934 H928 0.949 . S
C934 C938 1.368 . S
C935 C916 1.429 . S
C935 C929 1.429 . S
C935 C936 1.523 . S
C936 C917 1.368 . S
C936 C930 1.368 . S
C936 C935 1.523 . S
C937 C921 1.429 . S
C937 C933 1.429 . S
C937 C938 1.523 . S
C938 C922 1.368 . S
C938 C934 1.368 . S
C938 C937 1.523 . S
H939 C914 0.950 . S
H940 C916 0.950 . S
H941 C917 0.949 . S
H942 C919 0.950 . S
H943 C921 0.950 . S
C944 C945 1.349 . S
C944 C946 1.327 . S
C944 H969 0.950 . S
C945 C944 1.349 . S
C945 C961 1.349 . S
C946 C944 1.327 . S
C946 C965 1.429 . S
C946 H970 0.950 . S
C947 C964 1.574 1_565 S
C947 C966 1.368 1_455 S
C947 H971 0.949 . S
H948 C952 0.949 . S
C949 C950 1.349 . S
C949 C951 1.327 . S
C949 H972 0.950 . S
C950 C949 1.349 . S
C950 C962 1.349 . S
C951 C949 1.327 . S
C951 C967 1.429 . S
C951 H973 0.950 . S
C952 H948 0.949 . S
C952 C960 1.574 1_545 S
C952 C968 1.368 1_655 S
H953 C961 0.950 . S
H954 C959 0.950 . S
H955 C960 0.949 . S
H956 C962 0.950 . S
H957 C963 0.950 . S
H958 C964 0.949 . S
C959 H954 0.950 . S
C959 C961 1.327 . S
C959 C965 1.429 . S
C960 C952 1.574 1_565 S
C960 H955 0.949 . S
C960 C966 1.368 . S
C961 C945 1.349 . S
C961 H953 0.950 . S
C961 C959 1.327 . S
C962 C950 1.349 . S
C962 H956 0.950 . S
C962 C963 1.327 . S
C963 H957 0.950 . S
C963 C962 1.327 . S
C963 C967 1.429 . S
C964 C947 1.574 1_545 S
C964 H958 0.949 . S
C964 C968 1.368 . S
C965 C946 1.429 . S
C965 C959 1.429 . S
C965 C966 1.523 . S
C966 C947 1.368 1_655 S
C966 C960 1.368 . S
C966 C965 1.523 . S
C967 C951 1.429 . S
C967 C963 1.429 . S
C967 C968 1.523 . S
C968 C952 1.368 1_455 S
C968 C964 1.368 . S
C968 C967 1.523 . S
H969 C944 0.950 . S
H970 C946 0.950 . S
H971 C947 0.949 . S
H972 C949 0.950 . S
H973 C951 0.950 . S
C974 C975 1.349 . S
C974 C976 1.327 . S
C974 H999 0.950 . S
C975 C974 1.349 . S
C975 C991 1.349 . S
C976 C974 1.327 . S
C976 C995 1.429 . S
C976 H1000 0.950 . S
C977 C994 1.574 1_655 S
C977 C996 1.368 . S
C977 H1001 0.949 . S
H978 C982 0.949 . S
C979 C980 1.349 . S
C979 C981 1.327 . S
C979 H1002 0.950 . S
C980 C979 1.349 . S
C980 C992 1.349 . S
C981 C979 1.327 . S
C981 C997 1.429 . S
C981 H1003 0.950 . S
C982 H978 0.949 . S
C982 C990 1.574 1_455 S
C982 C998 1.368 . S
H983 C991 0.950 . S
H984 C989 0.950 . S
H985 C990 0.949 . S
H986 C992 0.950 . S
H987 C993 0.950 . S
H988 C994 0.949 . S
C989 H984 0.950 . S
C989 C991 1.327 . S
C989 C995 1.429 . S
C990 C982 1.574 1_655 S
C990 H985 0.949 . S
C990 C996 1.368 1_565 S
C991 C975 1.349 . S
C991 H983 0.950 . S
C991 C989 1.327 . S
C992 C980 1.349 . S
C992 H986 0.950 . S
C992 C993 1.327 . S
C993 H987 0.950 . S
C993 C992 1.327 . S
C993 C997 1.429 . S
C994 C977 1.574 1_455 S
C994 H988 0.949 . S
C994 C998 1.368 1_545 S
C995 C976 1.429 . S
C995 C989 1.429 . S
C995 C996 1.523 . S
C996 C977 1.368 . S
C996 C990 1.368 1_545 S
C996 C995 1.523 . S
C997 C981 1.429 . S
C997 C993 1.429 . S
C997 C998 1.523 . S
C998 C982 1.368 . S
C998 C994 1.368 1_565 S
C998 C997 1.523 . S
H999 C974 0.950 . S
H1000 C976 0.950 . S
H1001 C977 0.949 . S
H1002 C979 0.950 . S
H1003 C981 0.950 . S
C1004 C1005 1.349 . S
C1004 C1006 1.327 . S
C1004 H1029 0.950 . S
C1005 C1004 1.349 . S
C1005 C1021 1.349 . S
C1006 C1004 1.327 . S
C1006 C1025 1.429 . S
C1006 H1030 0.950 . S
C1007 C1024 1.574 . S
C1007 C1026 1.368 1_655 S
C1007 H1031 0.949 . S
H1008 C1012 0.949 . S
C1009 C1010 1.349 . S
C1009 C1011 1.327 . S
C1009 H1032 0.950 . S
C1010 C1009 1.349 . S
C1010 C1022 1.349 . S
C1011 C1009 1.327 . S
C1011 C1027 1.429 . S
C1011 H1033 0.950 . S
C1012 H1008 0.949 . S
C1012 C1020 1.574 . S
C1012 C1028 1.368 1_455 S
H1013 C1021 0.950 . S
H1014 C1019 0.950 . S
H1015 C1020 0.949 . S
H1016 C1022 0.950 . S
H1017 C1023 0.950 . S
H1018 C1024 0.949 . S
C1019 H1014 0.950 . S
C1019 C1021 1.327 . S
C1019 C1025 1.429 . S
C1020 C1012 1.574 . S
C1020 H1015 0.949 . S
C1020 C1026 1.368 . S
C1021 C1005 1.349 . S
C1021 H1013 0.950 . S
C1021 C1019 1.327 . S
C1022 C1010 1.349 . S
C1022 H1016 0.950 . S
C1022 C1023 1.327 . S
C1023 H1017 0.950 . S
C1023 C1022 1.327 . S
C1023 C1027 1.429 . S
C1024 C1007 1.574 . S
C1024 H1018 0.949 . S
C1024 C1028 1.368 . S
C1025 C1006 1.429 . S
C1025 C1019 1.429 . S
C1025 C1026 1.523 . S
C1026 C1007 1.368 1_455 S
C1026 C1020 1.368 . S
C1026 C1025 1.523 . S
C1027 C1011 1.429 . S
C1027 C1023 1.429 . S
C1027 C1028 1.523 . S
C1028 C1012 1.368 1_655 S
C1028 C1024 1.368 . S
C1028 C1027 1.523 . S
H1029 C1004 0.950 . S
H1030 C1006 0.950 . S
H1031 C1007 0.949 . S
H1032 C1009 0.950 . S
H1033 C1011 0.950 . S
C1034 C1035 1.349 . S
C1034 C1036 1.327 . S
C1034 H1059 0.950 . S
C1035 C1034 1.349 . S
C1035 C1051 1.349 . S
C1036 C1034 1.327 . S
C1036 C1055 1.429 . S
C1036 H1060 0.950 . S
C1037 C1054 1.574 . S
C1037 C1056 1.368 1_545 S
C1037 H1061 0.949 . S
H1038 C1042 0.949 . S
C1039 C1040 1.349 . S
C1039 C1041 1.327 . S
C1039 H1062 0.950 . S
C1040 C1039 1.349 . S
C1040 C1052 1.349 . S
C1041 C1039 1.327 . S
C1041 C1057 1.429 . S
C1041 H1063 0.950 . S
C1042 H1038 0.949 . S
C1042 C1050 1.574 . S
C1042 C1058 1.368 1_565 S
H1043 C1051 0.950 . S
H1044 C1049 0.950 . S
H1045 C1050 0.949 . S
H1046 C1052 0.950 . S
H1047 C1053 0.950 . S
H1048 C1054 0.949 . S
C1049 H1044 0.950 . S
C1049 C1051 1.327 . S
C1049 C1055 1.429 . S
C1050 C1042 1.574 . S
C1050 H1045 0.949 . S
C1050 C1056 1.368 . S
C1051 C1035 1.349 . S
C1051 H1043 0.950 . S
C1051 C1049 1.327 . S
C1052 C1040 1.349 . S
C1052 H1046 0.950 . S
C1052 C1053 1.327 . S
C1053 H1047 0.950 . S
C1053 C1052 1.327 . S
C1053 C1057 1.429 . S
C1054 C1037 1.574 . S
C1054 H1048 0.949 . S
C1054 C1058 1.368 . S
C1055 C1036 1.429 . S
C1055 C1049 1.429 . S
C1055 C1056 1.523 . S
C1056 C1037 1.368 1_565 S
C1056 C1050 1.368 . S
C1056 C1055 1.523 . S
C1057 C1041 1.429 . S
C1057 C1053 1.429 . S
C1057 C1058 1.523 . S
C1058 C1042 1.368 1_545 S
C1058 C1054 1.368 . S
C1058 C1057 1.523 . S
H1059 C1034 0.950 . S
H1060 C1036 0.950 . S
H1061 C1037 0.949 . S
H1062 C1039 0.950 . S
H1063 C1041 0.950 . S
C1064 C1065 1.349 . S
C1064 C1066 1.327 . S
C1064 H1089 0.950 . S
C1065 C1064 1.349 . S
C1065 C1081 1.349 . S
C1066 C1064 1.327 . S
C1066 C1085 1.429 . S
C1066 H1090 0.950 . S
C1067 C1084 1.574 . S
C1067 C1086 1.368 . S
C1067 H1091 0.949 . S
H1068 C1072 0.949 . S
C1069 C1070 1.349 . S
C1069 C1071 1.327 . S
C1069 H1092 0.950 . S
C1070 C1069 1.349 . S
C1070 C1082 1.349 . S
C1071 C1069 1.327 . S
C1071 C1087 1.429 . S
C1071 H1093 0.950 . S
C1072 H1068 0.949 . S
C1072 C1080 1.574 . S
C1072 C1088 1.368 . S
H1073 C1081 0.950 . S
H1074 C1079 0.950 . S
H1075 C1080 0.949 . S
H1076 C1082 0.950 . S
H1077 C1083 0.950 . S
H1078 C1084 0.949 . S
C1079 H1074 0.950 . S
C1079 C1081 1.327 . S
C1079 C1085 1.429 . S
C1080 C1072 1.574 . S
C1080 H1075 0.949 . S
C1080 C1086 1.368 . S
C1081 C1065 1.349 . S
C1081 H1073 0.950 . S
C1081 C1079 1.327 . S
C1082 C1070 1.349 . S
C1082 H1076 0.950 . S
C1082 C1083 1.327 . S
C1083 H1077 0.950 . S
C1083 C1082 1.327 . S
C1083 C1087 1.429 . S
C1084 C1067 1.574 . S
C1084 H1078 0.949 . S
C1084 C1088 1.368 . S
C1085 C1066 1.429 . S
C1085 C1079 1.429 . S
C1085 C1086 1.523 . S
C1086 C1067 1.368 . S
C1086 C1080 1.368 . S
C1086 C1085 1.523 . S
C1087 C1071 1.429 . S
C1087 C1083 1.429 . S
C1087 C1088 1.523 . S
C1088 C1072 1.368 . S
C1088 C1084 1.368 . S
C1088 C1087 1.523 . S
H1089 C1064 0.950 . S
H1090 C1066 0.950 . S
H1091 C1067 0.949 . S
H1092 C1069 0.950 . S
H1093 C1071 0.950 . S
C1094 C1095 1.349 . S
C1094 C1096 1.327 . S
C1094 H1119 0.950 . S
C1095 C1094 1.349 . S
C1095 C1111 1.349 . S
C1096 C1094 1.327 . S
C1096 C1115 1.429 . S
C1096 H1120 0.950 . S
C1097 C1114 1.574 . S
C1097 C1116 1.368 . S
C1097 H1121 0.949 . S
H1098 C1102 0.949 . S
C1099 C1100 1.349 . S
C1099 C1101 1.327 . S
C1099 H1122 0.950 . S
C1100 C1099 1.349 . S
C1100 C1112 1.349 . S
C1101 C1099 1.327 . S
C1101 C1117 1.429 . S
C1101 H1123 0.950 . S
C1102 H1098 0.949 . S
C1102 C1110 1.574 . S
C1102 C1118 1.368 . S
H1103 C1111 0.950 . S
H1104 C1109 0.950 . S
H1105 C1110 0.949 . S
H1106 C1112 0.950 . S
H1107 C1113 0.950 . S
H1108 C1114 0.949 . S
C1109 H1104 0.950 . S
C1109 C1111 1.327 . S
C1109 C1115 1.429 . S
C1110 C1102 1.574 . S
C1110 H1105 0.949 . S
C1110 C1116 1.368 . S
C1111 C1095 1.349 . S
C1111 H1103 0.950 . S
C1111 C1109 1.327 . S
C1112 C1100 1.349 . S
C1112 H1106 0.950 . S
C1112 C1113 1.327 . S
C1113 H1107 0.950 . S
C1113 C1112 1.327 . S
C1113 C1117 1.429 . S
C1114 C1097 1.574 . S
C1114 H1108 0.949 . S
C1114 C1118 1.368 . S
C1115 C1096 1.429 . S
C1115 C1109 1.429 . S
C1115 C1116 1.523 . S
C1116 C1097 1.368 . S
C1116 C1110 1.368 . S
C1116 C1115 1.523 . S
C1117 C1101 1.429 . S
C1117 C1113 1.429 . S
C1117 C1118 1.523 . S
C1118 C1102 1.368 . S
C1118 C1114 1.368 . S
C1118 C1117 1.523 . S
H1119 C1094 0.950 . S
H1120 C1096 0.950 . S
H1121 C1097 0.949 . S
H1122 C1099 0.950 . S
H1123 C1101 0.950 . S
C1124 C1125 1.349 . S
C1124 C1126 1.327 . S
C1124 H1149 0.950 . S
C1125 C1124 1.349 . S
C1125 C1141 1.349 . S
C1126 C1124 1.327 . S
C1126 C1145 1.429 . S
C1126 H1150 0.950 . S
C1127 C1144 1.574 1_545 S
C1127 C1146 1.368 . S
C1127 H1151 0.949 . S
H1128 C1132 0.949 . S
C1129 C1130 1.349 . S
C1129 C1131 1.327 . S
C1129 H1152 0.950 . S
C1130 C1129 1.349 . S
C1130 C1142 1.349 . S
C1131 C1129 1.327 . S
C1131 C1147 1.429 . S
C1131 H1153 0.950 . S
C1132 H1128 0.949 . S
C1132 C1140 1.574 1_565 S
C1132 C1148 1.368 . S
H1133 C1141 0.950 . S
H1134 C1139 0.950 . S
H1135 C1140 0.949 . S
H1136 C1142 0.950 . S
H1137 C1143 0.950 . S
H1138 C1144 0.949 . S
C1139 H1134 0.950 . S
C1139 C1141 1.327 . S
C1139 C1145 1.429 . S
C1140 C1132 1.574 1_545 S
C1140 H1135 0.949 . S
C1140 C1146 1.368 . S
C1141 C1125 1.349 . S
C1141 H1133 0.950 . S
C1141 C1139 1.327 . S
C1142 C1130 1.349 . S
C1142 H1136 0.950 . S
C1142 C1143 1.327 . S
C1143 H1137 0.950 . S
C1143 C1142 1.327 . S
C1143 C1147 1.429 . S
C1144 C1127 1.574 1_565 S
C1144 H1138 0.949 . S
C1144 C1148 1.368 . S
C1145 C1126 1.429 . S
C1145 C1139 1.429 . S
C1145 C1146 1.523 . S
C1146 C1127 1.368 . S
C1146 C1140 1.368 . S
C1146 C1145 1.523 . S
C1147 C1131 1.429 . S
C1147 C1143 1.429 . S
C1147 C1148 1.523 . S
C1148 C1132 1.368 . S
C1148 C1144 1.368 . S
C1148 C1147 1.523 . S
H1149 C1124 0.950 . S
H1150 C1126 0.950 . S
H1151 C1127 0.949 . S
H1152 C1129 0.950 . S
H1153 C1131 0.950 . S
C1154 C1155 1.349 . S
C1154 C1156 1.327 . S
C1154 H1179 0.950 . S
C1155 C1154 1.349 . S
C1155 C1171 1.349 . S
C1156 C1154 1.327 . S
C1156 C1175 1.429 . S
C1156 H1180 0.950 . S
C1157 C1174 1.574 1_655 S
C1157 C1176 1.368 . S
C1157 H1181 0.949 . S
H1158 C1162 0.949 . S
C1159 C1160 1.349 . S
C1159 C1161 1.327 . S
C1159 H1182 0.950 . S
C1160 C1159 1.349 . S
C1160 C1172 1.349 . S
C1161 C1159 1.327 . S
C1161 C1177 1.429 . S
C1161 H1183 0.950 . S
C1162 H1158 0.949 . S
C1162 C1170 1.574 1_455 S
C1162 C1178 1.368 . S
H1163 C1171 0.950 . S
H1164 C1169 0.950 . S
H1165 C1170 0.949 . S
H1166 C1172 0.950 . S
H1167 C1173 0.950 . S
H1168 C1174 0.949 . S
C1169 H1164 0.950 . S
C1169 C1171 1.327 . S
C1169 C1175 1.429 . S
C1170 C1162 1.574 1_655 S
C1170 H1165 0.949 . S
C1170 C1176 1.368 . S
C1171 C1155 1.349 . S
C1171 H1163 0.950 . S
C1171 C1169 1.327 . S
C1172 C1160 1.349 . S
C1172 H1166 0.950 . S
C1172 C1173 1.327 . S
C1173 H1167 0.950 . S
C1173 C1172 1.327 . S
C1173 C1177 1.429 . S
C1174 C1157 1.574 1_455 S
C1174 H1168 0.949 . S
C1174 C1178 1.368 . S
C1175 C1156 1.429 . S
C1175 C1169 1.429 . S
C1175 C1176 1.523 . S
C1176 C1157 1.368 . S
C1176 C1170 1.368 . S
C1176 C1175 1.523 . S
C1177 C1161 1.429 . S
C1177 C1173 1.429 . S
C1177 C1178 1.523 . S
C1178 C1162 1.368 . S
C1178 C1174 1.368 . S
C1178 C1177 1.523 . S
H1179 C1154 0.950 . S
H1180 C1156 0.950 . S
H1181 C1157 0.949 . S
H1182 C1159 0.950 . S
H1183 C1161 0.950 . S
C225 C9 1.065 . S
C230 C159 1.088 . S
C255 C117 1.101 . S
C260 C14 1.086 . S
C285 C131 1.088 . S
C290 C37 1.065 . S
C315 C145 1.101 . S
C320 C42 1.086 . S
C345 C75 1.089 . S
C350 C65 1.065 . S
C375 C70 1.086 . S
C380 C89 1.102 . S
C405 C93 1.065 . S
C410 C103 1.089 . S
C435 C98 1.086 . S
C440 C61 1.102 . S
C465 C121 1.065 . S
C470 C47 1.088 . S
C495 C5 1.101 . S
C500 C126 1.086 . S
C525 C19 1.088 . S
C530 C149 1.065 . S
C555 C33 1.101 . S
C560 C154 1.086 . S
C585 C187 1.088 . S
C590 C177 1.065 . S
C615 C182 1.086 . S
C620 C201 1.101 . S
C645 C215 1.088 . S
C650 C205 1.065 . S
C675 C173 1.101 . S
C680 C210 1.086 . S
C705 C207 1.559 . S
C710 C11 1.559 . S
C735 C221 1.610 . S
C740 C25 1.610 . S
C765 C179 1.559 . S
C770 C39 1.559 . S
C795 C53 1.610 . S
C800 C193 1.610 . S
C825 C67 1.559 . S
C830 C151 1.559 . S
C855 C165 1.609 . S
C860 C81 1.610 . S
C885 C95 1.559 . S
C890 C123 1.559 . S
C915 C109 1.610 . S
C920 C137 1.610 . S
C945 C28 1.092 . S
C950 C0 1.092 . S
C975 C51 1.125 . S
C980 C23 1.125 . S
C1005 C56 1.092 . S
C1010 C84 1.092 . S
C1035 C79 1.125 . S
C1040 C107 1.125 . S
C1065 C140 1.093 . S
C1070 C112 1.093 . S
C1095 C135 1.125 . S
C1100 C163 1.125 . S
C1125 C196 1.092 . S
C1130 C168 1.092 . S
C1155 C191 1.125 . S
C1160 C219 1.125 . S
