# Generated by pormake.
# Topology uml, (4)-cn, num edge types: 1
# Building blocks:
#     Node 0, Type 0, BuildingBlock: CEKHIL_clean_sbu_0, # of connection points: 4
#     Node 1, Type 0, BuildingBlock: CEKHIL_clean_sbu_0, # of connection points: 4
#     Node 2, Type 0, BuildingBlock: CEKHIL_clean_sbu_0, # of connection points: 4
#     Node 3, Type 0, BuildingBlock: CEKHIL_clean_sbu_0, # of connection points: 4
#     Node 4, Type 0, BuildingBlock: CEKHIL_clean_sbu_0, # of connection points: 4
#     Node 5, Type 0, BuildingBlock: CEKHIL_clean_sbu_0, # of connection points: 4
#     Node 6, Type 0, BuildingBlock: CEKHIL_clean_sbu_0, # of connection points: 4
#     Node 7, Type 0, BuildingBlock: CEKHIL_clean_sbu_0, # of connection points: 4
#     Node 8, Type 0, BuildingBlock: CEKHIL_clean_sbu_0, # of connection points: 4
#     Node 9, Type 0, BuildingBlock: CEKHIL_clean_sbu_0, # of connection points: 4
#     Node 10, Type 0, BuildingBlock: CEKHIL_clean_sbu_0, # of connection points: 4
#     Node 11, Type 0, BuildingBlock: CEKHIL_clean_sbu_0, # of connection points: 4
#     Node 12, Type 0, BuildingBlock: CEKHIL_clean_sbu_0, # of connection points: 4
#     Node 13, Type 0, BuildingBlock: CEKHIL_clean_sbu_0, # of connection points: 4
#     Node 14, Type 0, BuildingBlock: CEKHIL_clean_sbu_0, # of connection points: 4
#     Node 15, Type 0, BuildingBlock: CEKHIL_clean_sbu_0, # of connection points: 4
#     Node 16, Type 0, BuildingBlock: CEKHIL_clean_sbu_0, # of connection points: 4
#     Node 17, Type 0, BuildingBlock: CEKHIL_clean_sbu_0, # of connection points: 4
#     Node 18, Type 0, BuildingBlock: CEKHIL_clean_sbu_0, # of connection points: 4
#     Node 19, Type 0, BuildingBlock: CEKHIL_clean_sbu_0, # of connection points: 4
#     Node 20, Type 0, BuildingBlock: CEKHIL_clean_sbu_0, # of connection points: 4
#     Node 21, Type 0, BuildingBlock: CEKHIL_clean_sbu_0, # of connection points: 4
#     Node 22, Type 0, BuildingBlock: CEKHIL_clean_sbu_0, # of connection points: 4
#     Node 23, Type 0, BuildingBlock: CEKHIL_clean_sbu_0, # of connection points: 4
#     Node 24, Type 0, BuildingBlock: CEKHIL_clean_sbu_0, # of connection points: 4
#     Node 25, Type 0, BuildingBlock: CEKHIL_clean_sbu_0, # of connection points: 4
#     Node 26, Type 0, BuildingBlock: CEKHIL_clean_sbu_0, # of connection points: 4
#     Node 27, Type 0, BuildingBlock: CEKHIL_clean_sbu_0, # of connection points: 4
#     Node 28, Type 0, BuildingBlock: CEKHIL_clean_sbu_0, # of connection points: 4
#     Node 29, Type 0, BuildingBlock: CEKHIL_clean_sbu_0, # of connection points: 4
#     Node 30, Type 0, BuildingBlock: CEKHIL_clean_sbu_0, # of connection points: 4
#     Node 31, Type 0, BuildingBlock: CEKHIL_clean_sbu_0, # of connection points: 4
#     Node 32, Type 0, BuildingBlock: CEKHIL_clean_sbu_0, # of connection points: 4
#     Node 33, Type 0, BuildingBlock: CEKHIL_clean_sbu_0, # of connection points: 4
#     Node 34, Type 0, BuildingBlock: CEKHIL_clean_sbu_0, # of connection points: 4
#     Node 35, Type 0, BuildingBlock: CEKHIL_clean_sbu_0, # of connection points: 4
#     Edge 36, Type (0, 0), BuildingBlock: CIFDUS_clean_linker_0, # of connection points: 2
#     Edge 37, Type (0, 0), BuildingBlock: CIFDUS_clean_linker_0, # of connection points: 2
#     Edge 38, Type (0, 0), BuildingBlock: CIFDUS_clean_linker_0, # of connection points: 2
#     Edge 39, Type (0, 0), BuildingBlock: CIFDUS_clean_linker_0, # of connection points: 2
#     Edge 40, Type (0, 0), BuildingBlock: CIFDUS_clean_linker_0, # of connection points: 2
#     Edge 41, Type (0, 0), BuildingBlock: CIFDUS_clean_linker_0, # of connection points: 2
#     Edge 42, Type (0, 0), BuildingBlock: CIFDUS_clean_linker_0, # of connection points: 2
#     Edge 43, Type (0, 0), BuildingBlock: CIFDUS_clean_linker_0, # of connection points: 2
#     Edge 44, Type (0, 0), BuildingBlock: CIFDUS_clean_linker_0, # of connection points: 2
#     Edge 45, Type (0, 0), BuildingBlock: CIFDUS_clean_linker_0, # of connection points: 2
#     Edge 46, Type (0, 0), BuildingBlock: CIFDUS_clean_linker_0, # of connection points: 2
#     Edge 47, Type (0, 0), BuildingBlock: CIFDUS_clean_linker_0, # of connection points: 2
#     Edge 48, Type (0, 0), BuildingBlock: CIFDUS_clean_linker_0, # of connection points: 2
#     Edge 49, Type (0, 0), BuildingBlock: CIFDUS_clean_linker_0, # of connection points: 2
#     Edge 50, Type (0, 0), BuildingBlock: CIFDUS_clean_linker_0, # of connection points: 2
#     Edge 51, Type (0, 0), BuildingBlock: CIFDUS_clean_linker_0, # of connection points: 2
#     Edge 52, Type (0, 0), BuildingBlock: CIFDUS_clean_linker_0, # of connection points: 2
#     Edge 53, Type (0, 0), BuildingBlock: CIFDUS_clean_linker_0, # of connection points: 2
#     Edge 54, Type (0, 0), BuildingBlock: CIFDUS_clean_linker_0, # of connection points: 2
#     Edge 55, Type (0, 0), BuildingBlock: CIFDUS_clean_linker_0, # of connection points: 2
#     Edge 56, Type (0, 0), BuildingBlock: CIFDUS_clean_linker_0, # of connection points: 2
#     Edge 57, Type (0, 0), BuildingBlock: CIFDUS_clean_linker_0, # of connection points: 2
#     Edge 58, Type (0, 0), BuildingBlock: CIFDUS_clean_linker_0, # of connection points: 2
#     Edge 59, Type (0, 0), BuildingBlock: CIFDUS_clean_linker_0, # of connection points: 2
#     Edge 60, Type (0, 0), BuildingBlock: CIFDUS_clean_linker_0, # of connection points: 2
#     Edge 61, Type (0, 0), BuildingBlock: CIFDUS_clean_linker_0, # of connection points: 2
#     Edge 62, Type (0, 0), BuildingBlock: CIFDUS_clean_linker_0, # of connection points: 2
#     Edge 63, Type (0, 0), BuildingBlock: CIFDUS_clean_linker_0, # of connection points: 2
#     Edge 64, Type (0, 0), BuildingBlock: CIFDUS_clean_linker_0, # of connection points: 2
#     Edge 65, Type (0, 0), BuildingBlock: CIFDUS_clean_linker_0, # of connection points: 2
#     Edge 66, Type (0, 0), BuildingBlock: CIFDUS_clean_linker_0, # of connection points: 2
#     Edge 67, Type (0, 0), BuildingBlock: CIFDUS_clean_linker_0, # of connection points: 2
#     Edge 68, Type (0, 0), BuildingBlock: CIFDUS_clean_linker_0, # of connection points: 2
#     Edge 69, Type (0, 0), BuildingBlock: CIFDUS_clean_linker_0, # of connection points: 2
#     Edge 70, Type (0, 0), BuildingBlock: CIFDUS_clean_linker_0, # of connection points: 2
#     Edge 71, Type (0, 0), BuildingBlock: CIFDUS_clean_linker_0, # of connection points: 2
#     Edge 72, Type (0, 0), BuildingBlock: CIFDUS_clean_linker_0, # of connection points: 2
#     Edge 73, Type (0, 0), BuildingBlock: CIFDUS_clean_linker_0, # of connection points: 2
#     Edge 74, Type (0, 0), BuildingBlock: CIFDUS_clean_linker_0, # of connection points: 2
#     Edge 75, Type (0, 0), BuildingBlock: CIFDUS_clean_linker_0, # of connection points: 2
#     Edge 76, Type (0, 0), BuildingBlock: CIFDUS_clean_linker_0, # of connection points: 2
#     Edge 77, Type (0, 0), BuildingBlock: CIFDUS_clean_linker_0, # of connection points: 2
#     Edge 78, Type (0, 0), BuildingBlock: CIFDUS_clean_linker_0, # of connection points: 2
#     Edge 79, Type (0, 0), BuildingBlock: CIFDUS_clean_linker_0, # of connection points: 2
#     Edge 80, Type (0, 0), BuildingBlock: CIFDUS_clean_linker_0, # of connection points: 2
#     Edge 81, Type (0, 0), BuildingBlock: CIFDUS_clean_linker_0, # of connection points: 2
#     Edge 82, Type (0, 0), BuildingBlock: CIFDUS_clean_linker_0, # of connection points: 2
#     Edge 83, Type (0, 0), BuildingBlock: CIFDUS_clean_linker_0, # of connection points: 2
#     Edge 84, Type (0, 0), BuildingBlock: CIFDUS_clean_linker_0, # of connection points: 2
#     Edge 85, Type (0, 0), BuildingBlock: CIFDUS_clean_linker_0, # of connection points: 2
#     Edge 86, Type (0, 0), BuildingBlock: CIFDUS_clean_linker_0, # of connection points: 2
#     Edge 87, Type (0, 0), BuildingBlock: CIFDUS_clean_linker_0, # of connection points: 2
#     Edge 88, Type (0, 0), BuildingBlock: CIFDUS_clean_linker_0, # of connection points: 2
#     Edge 89, Type (0, 0), BuildingBlock: CIFDUS_clean_linker_0, # of connection points: 2
#     Edge 90, Type (0, 0), BuildingBlock: CIFDUS_clean_linker_0, # of connection points: 2
#     Edge 91, Type (0, 0), BuildingBlock: CIFDUS_clean_linker_0, # of connection points: 2
#     Edge 92, Type (0, 0), BuildingBlock: CIFDUS_clean_linker_0, # of connection points: 2
#     Edge 93, Type (0, 0), BuildingBlock: CIFDUS_clean_linker_0, # of connection points: 2
#     Edge 94, Type (0, 0), BuildingBlock: CIFDUS_clean_linker_0, # of connection points: 2
#     Edge 95, Type (0, 0), BuildingBlock: CIFDUS_clean_linker_0, # of connection points: 2
#     Edge 96, Type (0, 0), BuildingBlock: CIFDUS_clean_linker_0, # of connection points: 2
#     Edge 97, Type (0, 0), BuildingBlock: CIFDUS_clean_linker_0, # of connection points: 2
#     Edge 98, Type (0, 0), BuildingBlock: CIFDUS_clean_linker_0, # of connection points: 2
#     Edge 99, Type (0, 0), BuildingBlock: CIFDUS_clean_linker_0, # of connection points: 2
#     Edge 100, Type (0, 0), BuildingBlock: CIFDUS_clean_linker_0, # of connection points: 2
#     Edge 101, Type (0, 0), BuildingBlock: CIFDUS_clean_linker_0, # of connection points: 2
#     Edge 102, Type (0, 0), BuildingBlock: CIFDUS_clean_linker_0, # of connection points: 2
#     Edge 103, Type (0, 0), BuildingBlock: CIFDUS_clean_linker_0, # of connection points: 2
#     Edge 104, Type (0, 0), BuildingBlock: CIFDUS_clean_linker_0, # of connection points: 2
#     Edge 105, Type (0, 0), BuildingBlock: CIFDUS_clean_linker_0, # of connection points: 2
#     Edge 106, Type (0, 0), BuildingBlock: CIFDUS_clean_linker_0, # of connection points: 2
#     Edge 107, Type (0, 0), BuildingBlock: CIFDUS_clean_linker_0, # of connection points: 2
# Relax obj value: 0.147
# Max RMSD: 0.485
# Mean RMSD: 0.264
data_MOF--net-uml--node1-CEKHIL_clean_sbu_0--edge1-CIFDUS_clean_linker_0
_symmetry_space_group_name_H-M    P1
_symmetry_Int_Tables_number       1
_symmetry_cell_setting            triclinic
loop_
_symmetry_equiv_pos_as_xyz
'x, y, z'
_cell_length_a     80.929833
_cell_length_b     78.824326
_cell_length_c     24.303357
_cell_angle_alpha  90.091068
_cell_angle_beta   90.039053
_cell_angle_gamma 116.13638
loop_
_atom_site_label
_atom_site_type_symbol
_atom_site_fract_x
_atom_site_fract_y
_atom_site_fract_z
_atom_type_partial_charge
Co0 Co 0.34171 0.09873 0.15921 0.0
O1 O 0.35004 0.07949 0.15417 0.0
O2 O 0.36498 0.10863 0.12123 0.0
C3 C 0.33262 0.09431 0.24786 0.0
O4 O 0.33744 0.12225 0.15745 0.0
Co5 Co 0.29999 0.08639 0.181 0.0
O6 O 0.30767 0.114 0.17748 0.0
C7 C 0.31189 0.08024 0.07225 0.0
C8 C 0.36394 0.09179 0.127 0.0
C9 C 0.32384 0.12628 0.16494 0.0
O10 O 0.32874 0.09041 0.08616 0.0
O11 O 0.29849 0.07515 0.1062 0.0
O12 O 0.34994 0.10425 0.23608 0.0
O13 O 0.32222 0.08569 0.20683 0.0
Co14 Co 0.88665 0.27339 0.18466 0.0
O15 O 0.881 0.27509 0.26072 0.0
O16 O 0.90241 0.26688 0.23196 0.0
C17 C 0.88705 0.30101 0.15723 0.0
O18 O 0.89651 0.27094 0.10852 0.0
Co19 Co 0.85677 0.26944 0.09799 0.0
O20 O 0.87662 0.27253 0.04587 0.0
C21 C 0.85283 0.23594 0.15981 0.0
C22 C 0.89369 0.26992 0.27296 0.0
C23 C 0.89163 0.27195 0.05845 0.0
O24 O 0.86844 0.24592 0.18276 0.0
O25 O 0.84504 0.24288 0.12692 0.0
O26 O 0.90123 0.30077 0.18162 0.0
O27 O 0.87248 0.28499 0.15637 0.0
Co28 Co 0.71971 0.6223 0.15446 0.0
O29 O 0.69427 0.60512 0.15883 0.0
O30 O 0.71528 0.59768 0.1227 0.0
C31 C 0.72169 0.63296 0.24037 0.0
O32 O 0.74797 0.63829 0.14795 0.0
Co33 Co 0.72699 0.6644 0.16181 0.0
O34 O 0.75218 0.66732 0.17544 0.0
C35 C 0.71375 0.64437 0.05833 0.0
C36 C 0.69805 0.59261 0.13526 0.0
C37 C 0.75848 0.65553 0.16337 0.0
O38 O 0.71554 0.63042 0.07969 0.0
O39 O 0.71667 0.65943 0.08506 0.0
O40 O 0.723 0.61739 0.23076 0.0
O41 O 0.71703 0.64015 0.19882 0.0
Co42 Co 0.09579 0.34759 0.32593 0.0
O43 O 0.08137 0.36141 0.33093 0.0
O44 O 0.10958 0.37131 0.36445 0.0
C45 C 0.08976 0.33974 0.23573 0.0
O46 O 0.11509 0.33736 0.32555 0.0
Co47 Co 0.07656 0.30502 0.30507 0.0
O48 O 0.10171 0.3083 0.28833 0.0
C49 C 0.07583 0.31851 0.41723 0.0
C50 C 0.09513 0.37428 0.35718 0.0
C51 C 0.11591 0.32259 0.30549 0.0
O52 O 0.08599 0.33529 0.39965 0.0
O53 O 0.06959 0.30413 0.38514 0.0
O54 O 0.10248 0.35612 0.25066 0.0
O55 O 0.07977 0.32926 0.27555 0.0
Co56 Co 0.62923 0.75598 0.30774 0.0
O57 O 0.62695 0.75352 0.22964 0.0
O58 O 0.65221 0.75847 0.27659 0.0
C59 C 0.60247 0.7308 0.32751 0.0
O60 O 0.63587 0.75822 0.38937 0.0
Co61 Co 0.60089 0.76544 0.37021 0.0
O62 O 0.61235 0.75977 0.43509 0.0
C63 C 0.63188 0.79598 0.31466 0.0
C64 C 0.64377 0.75567 0.2294 0.0
C65 C 0.62748 0.75839 0.43427 0.0
O66 O 0.6383 0.78417 0.30243 0.0
O67 O 0.61629 0.79105 0.33817 0.0
O68 O 0.61708 0.72871 0.31557 0.0
O69 O 0.60388 0.74768 0.32076 0.0
Co70 Co 0.24032 0.90452 0.34071 0.0
O71 O 0.26657 0.91351 0.34233 0.0
O72 O 0.24681 0.88539 0.37216 0.0
C73 C 0.23902 0.91445 0.25464 0.0
O74 O 0.21188 0.89104 0.34199 0.0
Co75 Co 0.22625 0.93538 0.33087 0.0
O76 O 0.20249 0.91299 0.31716 0.0
C77 C 0.23982 0.9293 0.43735 0.0
C78 C 0.2639 0.89767 0.36469 0.0
C79 C 0.19909 0.89595 0.32838 0.0
O80 O 0.24084 0.91471 0.41718 0.0
O81 O 0.23584 0.94053 0.40831 0.0
O82 O 0.23979 0.8985 0.2623 0.0
O83 O 0.24116 0.92452 0.29831 0.0
Co84 Co 0.65203 0.91154 0.82821 0.0
O85 O 0.64846 0.90603 0.75111 0.0
O86 O 0.67556 0.91864 0.79326 0.0
C87 C 0.63304 0.92526 0.83505 0.0
O88 O 0.66115 0.92009 0.90584 0.0
Co89 Co 0.61969 0.89457 0.91181 0.0
O90 O 0.63724 0.9139 0.96243 0.0
C91 C 0.63645 0.87087 0.86656 0.0
C92 C 0.66625 0.91292 0.74774 0.0
C93 C 0.65445 0.92175 0.95241 0.0
O94 O 0.64942 0.88533 0.84366 0.0
O95 O 0.62276 0.87153 0.89121 0.0
O96 O 0.64978 0.93505 0.81763 0.0
O97 O 0.62804 0.90751 0.84265 0.0
Co98 Co 0.10121 0.76603 0.81351 0.0
O99 O 0.10846 0.76678 0.73794 0.0
O100 O 0.08665 0.77433 0.76693 0.0
C101 C 0.0996 0.73724 0.83213 0.0
O102 O 0.08986 0.76632 0.88872 0.0
Co103 Co 0.12756 0.76505 0.90512 0.0
O104 O 0.10643 0.76042 0.95386 0.0
C105 C 0.135 0.80133 0.85143 0.0
C106 C 0.09597 0.77226 0.72592 0.0
C107 C 0.09267 0.76314 0.9392 0.0
O108 O 0.11985 0.79317 0.82437 0.0
O109 O 0.14118 0.79229 0.8825 0.0
O110 O 0.08606 0.73881 0.80787 0.0
O111 O 0.11431 0.75287 0.83917 0.0
Co112 Co 0.24836 0.38706 0.85555 0.0
O113 O 0.24469 0.39588 0.785 0.0
O114 O 0.2509 0.37142 0.7989 0.0
C115 C 0.26825 0.41519 0.89088 0.0
O116 O 0.2539 0.37458 0.92202 0.0
Co117 Co 0.23339 0.39891 0.95797 0.0
O118 O 0.24708 0.38721 0.99674 0.0
C119 C 0.20747 0.36808 0.88986 0.0
C120 C 0.24783 0.38236 0.76457 0.0
C121 C 0.25416 0.37737 0.97428 0.0
O122 O 0.22112 0.3696 0.85989 0.0
O123 O 0.20915 0.37905 0.93048 0.0
O124 O 0.27365 0.40603 0.85675 0.0
O125 O 0.2505 0.40844 0.89666 0.0
Co126 Co 0.90095 0.66232 0.69176 0.0
O127 O 0.89874 0.65542 0.76767 0.0
O128 O 0.90547 0.68421 0.73715 0.0
C129 C 0.91819 0.64791 0.66601 0.0
O130 O 0.90479 0.67406 0.61521 0.0
Co131 Co 0.88301 0.63 0.60609 0.0
O132 O 0.89788 0.65037 0.55412 0.0
C133 C 0.85973 0.64399 0.66501 0.0
C134 C 0.90244 0.6728 0.77877 0.0
C135 C 0.90431 0.66792 0.56568 0.0
O136 O 0.87417 0.65642 0.68872 0.0
O137 O 0.86006 0.63122 0.63302 0.0
O138 O 0.9258 0.66445 0.6892 0.0
O139 O 0.90039 0.63969 0.66612 0.0
Co140 Co 0.38479 0.27519 0.65 0.0
O141 O 0.39562 0.27526 0.72125 0.0
O142 O 0.36823 0.27436 0.70856 0.0
C143 C 0.40951 0.30209 0.61435 0.0
O144 O 0.3713 0.27477 0.58191 0.0
Co145 Co 0.39797 0.26077 0.63294 0.0
O146 O 0.3874 0.25996 0.55531 0.0
C147 C 0.37299 0.23419 0.67432 0.0
C148 C 0.38079 0.2748 0.74262 0.0
C149 C 0.37593 0.26659 0.54375 0.0
O150 O 0.36908 0.24628 0.65013 0.0
O151 O 0.38971 0.23895 0.68398 0.0
O152 O 0.39803 0.30228 0.64975 0.0
O153 O 0.40812 0.28574 0.6 0.0
Co154 Co 0.7309 0.1248 0.67439 0.0
O155 O 0.73033 0.12751 0.75307 0.0
O156 O 0.74216 0.11069 0.70924 0.0
C157 C 0.70129 0.11879 0.65738 0.0
O158 O 0.7335 0.11759 0.59623 0.0
Co159 Co 0.72535 0.15176 0.59251 0.0
O160 O 0.72459 0.13332 0.53561 0.0
C161 C 0.76135 0.16408 0.64815 0.0
C162 C 0.7384 0.11644 0.75553 0.0
C163 C 0.73 0.12079 0.54692 0.0
O164 O 0.75575 0.14759 0.6698 0.0
O165 O 0.75084 0.16895 0.61953 0.0
O166 O 0.70543 0.1056 0.67511 0.0
O167 O 0.71484 0.13559 0.65575 0.0
Co168 Co 0.02027 0.43226 0.5088 0.0
O169 O 0.03291 0.41691 0.49836 0.0
O170 O 0.04246 0.44601 0.46599 0.0
C171 C 0.01439 0.42645 0.59964 0.0
O172 O 0.01056 0.45214 0.51456 0.0
Co173 Co 0.97885 0.41159 0.53843 0.0
O174 O 0.98318 0.43768 0.55761 0.0
C175 C 0.9898 0.41193 0.42312 0.0
C176 C 0.04498 0.43085 0.47057 0.0
C177 C 0.99658 0.45248 0.53917 0.0
O178 O 0.00645 0.42272 0.43736 0.0
O179 O 0.97669 0.40469 0.45802 0.0
O180 O 0.03038 0.43888 0.5829 0.0
O181 O 0.00345 0.41626 0.56102 0.0
Co182 Co 0.55124 0.6102 0.52136 0.0
O183 O 0.54564 0.61069 0.59812 0.0
O184 O 0.56331 0.5982 0.5663 0.0
C185 C 0.55801 0.64057 0.50527 0.0
O186 O 0.56022 0.60829 0.44261 0.0
Co187 Co 0.52514 0.61623 0.43809 0.0
O188 O 0.54534 0.61986 0.38654 0.0
C189 C 0.51337 0.57901 0.48852 0.0
C190 C 0.55598 0.60245 0.60876 0.0
C191 C 0.55758 0.6141 0.39493 0.0
O192 O 0.52921 0.58528 0.51187 0.0
O193 O 0.50829 0.58945 0.45963 0.0
O194 O 0.57013 0.63592 0.52667 0.0
O195 O 0.54159 0.62697 0.50002 0.0
Co196 Co 0.38746 0.96572 0.48975 0.0
O197 O 0.3614 0.95022 0.49164 0.0
O198 O 0.38101 0.94186 0.45049 0.0
C199 C 0.39057 0.97444 0.57859 0.0
O200 O 0.41588 0.97951 0.48335 0.0
Co201 Co 0.39842 0.00839 0.50745 0.0
O202 O 0.42318 0.00929 0.51163 0.0
C203 C 0.386 0.99234 0.39865 0.0
C204 C 0.36395 0.93794 0.46223 0.0
C205 C 0.42783 0.99655 0.49601 0.0
O206 O 0.38496 0.97675 0.4177 0.0
O207 O 0.39026 0.00704 0.42862 0.0
O208 O 0.38993 0.95825 0.56449 0.0
O209 O 0.38676 0.98337 0.53974 0.0
Co210 Co 0.7461 0.67448 0.63781 0.0
O211 O 0.73398 0.69024 0.62774 0.0
O212 O 0.76176 0.69978 0.66452 0.0
C213 C 0.73945 0.66145 0.55445 0.0
O214 O 0.76292 0.66167 0.65108 0.0
Co215 Co 0.7225 0.63116 0.63773 0.0
O216 O 0.74671 0.63094 0.62909 0.0
C217 C 0.72254 0.65284 0.73574 0.0
C218 C 0.7484 0.70374 0.64937 0.0
C219 C 0.76182 0.6451 0.64119 0.0
O220 O 0.73516 0.66751 0.71316 0.0
O221 O 0.71465 0.63683 0.71131 0.0
O222 O 0.75341 0.67783 0.56146 0.0
O223 O 0.72893 0.65435 0.59669 0.0
Co224 Co 0.28881 0.09481 0.63964 0.0
O225 O 0.28588 0.09618 0.56161 0.0
O226 O 0.31208 0.10149 0.60342 0.0
C227 C 0.26439 0.06712 0.65636 0.0
O228 O 0.29673 0.09386 0.71864 0.0
Co229 Co 0.25973 0.09746 0.71778 0.0
O230 O 0.27189 0.0877 0.7716 0.0
C231 C 0.28868 0.1323 0.67345 0.0
C232 C 0.30321 0.10015 0.55773 0.0
C233 C 0.28812 0.08926 0.76481 0.0
O234 O 0.29535 0.12226 0.64903 0.0
O235 O 0.27368 0.12528 0.70094 0.0
O236 O 0.27934 0.0678 0.63488 0.0
O237 O 0.26348 0.08317 0.6578 0.0
Co238 Co 0.9124 0.23594 0.66647 0.0
O239 O 0.93863 0.24484 0.66884 0.0
O240 O 0.91869 0.21876 0.70958 0.0
C241 C 0.91085 0.24078 0.57506 0.0
O242 O 0.8841 0.22231 0.66988 0.0
Co243 Co 0.89762 0.26495 0.63583 0.0
O244 O 0.87363 0.24218 0.63459 0.0
C245 C 0.91183 0.26564 0.74753 0.0
C246 C 0.93578 0.23032 0.69904 0.0
C247 C 0.87083 0.22613 0.6541 0.0
O248 O 0.91328 0.25039 0.73636 0.0
O249 O 0.9073 0.27463 0.71136 0.0
O250 O 0.91159 0.22557 0.59264 0.0
O251 O 0.91299 0.25321 0.61257 0.0
Co252 Co 0.33094 0.26323 0.12835 0.0
O253 O 0.32864 0.26489 0.0508 0.0
O254 O 0.35515 0.27261 0.09398 0.0
C255 C 0.31268 0.2768 0.15073 0.0
O256 O 0.33763 0.26388 0.20982 0.0
Co257 Co 0.2952 0.23896 0.19497 0.0
O258 O 0.3109 0.2541 0.25662 0.0
C259 C 0.31356 0.2204 0.13077 0.0
C260 C 0.34632 0.27139 0.04809 0.0
C261 C 0.32844 0.26195 0.25474 0.0
O262 O 0.32749 0.23636 0.12166 0.0
O263 O 0.29876 0.21873 0.15425 0.0
O264 O 0.32983 0.28731 0.13855 0.0
O265 O 0.30691 0.25896 0.14264 0.0
Co266 Co 0.76438 0.08741 0.14457 0.0
O267 O 0.76584 0.0844 0.06624 0.0
O268 O 0.74809 0.09538 0.10786 0.0
C269 C 0.7623 0.05928 0.17223 0.0
O270 O 0.75835 0.09226 0.22205 0.0
Co271 Co 0.79465 0.08926 0.22505 0.0
O272 O 0.7773 0.08873 0.28343 0.0
C273 C 0.80023 0.12323 0.16213 0.0
C274 C 0.75395 0.09134 0.06233 0.0
C275 C 0.76345 0.09168 0.27173 0.0
O276 O 0.78433 0.11394 0.1402 0.0
O277 O 0.80739 0.11582 0.19563 0.0
O278 O 0.74799 0.06081 0.15334 0.0
O279 O 0.77785 0.07422 0.16734 0.0
Co280 Co 0.90389 0.72602 0.16201 0.0
O281 O 0.90283 0.73271 0.0867 0.0
O282 O 0.89878 0.70444 0.11515 0.0
C283 C 0.93059 0.75118 0.18452 0.0
O284 O 0.90488 0.71472 0.23687 0.0
Co285 Co 0.90004 0.75149 0.25228 0.0
O286 O 0.90924 0.73722 0.3 0.0
C287 C 0.86632 0.72264 0.20057 0.0
C288 C 0.89989 0.7156 0.07438 0.0
C289 C 0.90848 0.72127 0.28641 0.0
O290 O 0.87645 0.7175 0.17081 0.0
O291 O 0.87315 0.73669 0.23382 0.0
O292 O 0.93044 0.73677 0.15862 0.0
O293 O 0.91462 0.75126 0.18921 0.0
Co294 Co 0.56609 0.98698 0.03517 0.0
O295 O 0.56415 0.98323 0.11318 0.0
O296 O 0.56866 0.00992 0.07173 0.0
C297 C 0.58561 0.97438 0.01851 0.0
O298 O 0.56909 0.99536 0.95475 0.0
Co299 Co 0.55126 0.95113 0.96035 0.0
O300 O 0.56523 0.96999 0.90341 0.0
C301 C 0.52523 0.96389 0.00783 0.0
C302 C 0.56656 0.00055 0.11743 0.0
C303 C 0.56977 0.98759 0.9085 0.0
O304 O 0.53876 0.97826 0.02903 0.0
O305 O 0.52718 0.95067 0.98229 0.0
O306 O 0.59183 0.99161 0.03661 0.0
O307 O 0.56791 0.96475 0.01912 0.0
Co308 Co 0.04737 0.61115 1.00044 0.0
O309 O 0.05588 0.60925 0.07286 0.0
O310 O 0.02728 0.60365 0.05104 0.0
C311 C 0.07082 0.6404 0.9828 0.0
O312 O 0.03569 0.6121 0.92954 0.0
Co313 Co 0.07114 0.60198 0.93543 0.0
O314 O 0.05544 0.60625 0.87665 0.0
C315 C 0.04569 0.57132 0.98685 0.0
C316 C 0.0391 0.60449 0.08853 0.0
C317 C 0.04155 0.60993 0.88222 0.0
O318 O 0.03835 0.58278 0.98766 0.0
O319 O 0.06247 0.57728 0.97383 0.0
O320 O 0.05669 0.63808 0.0116 0.0
O321 O 0.07096 0.62505 0.96384 0.0
Co322 Co 0.39574 0.46277 0.01439 0.0
O323 O 0.39734 0.46724 0.09304 0.0
O324 O 0.40494 0.44675 0.05178 0.0
C325 C 0.36706 0.46107 0.00389 0.0
O326 O 0.39527 0.45405 0.93367 0.0
Co327 Co 0.39217 0.49259 0.93665 0.0
O328 O 0.38937 0.47381 0.87891 0.0
C329 C 0.42869 0.49951 0.98102 0.0
C330 C 0.40328 0.45449 0.09755 0.0
C331 C 0.39206 0.45921 0.88575 0.0
O332 O 0.42191 0.48307 0.00371 0.0
O333 O 0.41876 0.50624 0.95714 0.0
O334 O 0.36913 0.44653 0.02099 0.0
O335 O 0.38213 0.47637 0.99911 0.0
Co336 Co 0.67694 0.75694 0.83075 0.0
O337 O 0.68837 0.74079 0.81589 0.0
O338 O 0.69989 0.77109 0.79222 0.0
C339 C 0.67006 0.74821 0.91926 0.0
O340 O 0.66917 0.77798 0.84181 0.0
Co341 Co 0.63546 0.73915 0.86414 0.0
O342 O 0.64111 0.76575 0.88091 0.0
C343 C 0.64576 0.74118 0.74659 0.0
C344 C 0.70162 0.75546 0.79409 0.0
C345 C 0.65553 0.77978 0.8636 0.0
O346 O 0.663 0.75 0.7586 0.0
O347 O 0.63308 0.73451 0.783 0.0
O348 O 0.68647 0.76072 0.90607 0.0
O349 O 0.65924 0.74015 0.87846 0.0
Co350 Co 0.21619 0.94498 0.86318 0.0
O351 O 0.21234 0.94428 0.94118 0.0
O352 O 0.22789 0.93105 0.89807 0.0
C353 C 0.2248 0.97576 0.84764 0.0
O354 O 0.22346 0.94383 0.78284 0.0
Co355 Co 0.189 0.95229 0.78958 0.0
O356 O 0.20847 0.95712 0.73423 0.0
C357 C 0.17772 0.91415 0.83078 0.0
C358 C 0.22178 0.93461 0.94405 0.0
C359 C 0.22053 0.95091 0.73809 0.0
O360 O 0.19357 0.92054 0.85369 0.0
O361 O 0.17226 0.9248 0.80439 0.0
O362 O 0.23607 0.96998 0.86928 0.0
O363 O 0.20764 0.96324 0.84696 0.0
Co364 Co 0.06098 0.29011 0.83983 0.0
O365 O 0.03483 0.27992 0.83169 0.0
O366 O 0.05152 0.26611 0.8 0.0
C367 C 0.062 0.29779 0.93011 0.0
O368 O 0.08863 0.29723 0.8449 0.0
Co369 Co 0.08094 0.33299 0.86135 0.0
O370 O 0.10098 0.32644 0.88265 0.0
C371 C 0.0708 0.32025 0.74782 0.0
C372 C 0.03541 0.26592 0.80553 0.0
C373 C 0.10209 0.3115 0.86753 0.0
O374 O 0.06467 0.30327 0.76606 0.0
O375 O 0.07715 0.33464 0.77986 0.0
O376 O 0.05809 0.28066 0.91487 0.0
O377 O 0.06267 0.30908 0.89036 0.0
Co378 Co 0.41506 0.00713 0.98515 0.0
O379 O 0.40021 0.02041 0.98143 0.0
O380 O 0.42802 0.03181 0.01896 0.0
C381 C 0.41018 0.99659 0.89791 0.0
O382 O 0.43455 0.99754 0.99443 0.0
Co383 Co 0.39668 0.96371 0.97334 0.0
O384 O 0.4223 0.96676 0.97152 0.0
C385 C 0.39251 0.98051 0.07696 0.0
C386 C 0.41339 0.03406 0.00747 0.0
C387 C 0.43597 0.98211 0.98559 0.0
O388 O 0.40409 0.99666 0.05875 0.0
O389 O 0.38662 0.96542 0.04785 0.0
O390 O 0.42257 0.01359 0.90908 0.0
O391 O 0.40002 0.98723 0.93877 0.0
Co392 Co 0.96288 0.42315 0.98808 0.0
O393 O 0.95613 0.42207 0.91162 0.0
O394 O 0.98276 0.42409 0.94112 0.0
C395 C 0.93634 0.39905 0.01743 0.0
O396 O 0.97384 0.42354 0.0646 0.0
Co397 Co 0.94061 0.43486 0.07183 0.0
O398 O 0.95619 0.42974 0.1259 0.0
C399 C 0.96853 0.46409 0.0046 0.0
C400 C 0.972 0.42269 0.89973 0.0
C401 C 0.9693 0.42555 0.11428 0.0
O402 O 0.97391 0.45182 0.98794 0.0
O403 O 0.95403 0.45977 0.03353 0.0
O404 O 0.94894 0.39573 0.99351 0.0
O405 O 0.93916 0.41654 0.01644 0.0
Co406 Co 0.57984 0.56568 0.99742 0.0
O407 O 0.60608 0.57582 0.99518 0.0
O408 O 0.588 0.5478 0.02964 0.0
C409 C 0.57679 0.57275 0.90812 0.0
O410 O 0.55171 0.55099 0.00272 0.0
Co411 Co 0.56446 0.5949 0.98448 0.0
O412 O 0.54134 0.57165 0.97324 0.0
C413 C 0.57768 0.59062 0.09339 0.0
C414 C 0.60458 0.56031 0.01709 0.0
C415 C 0.53855 0.55505 0.98767 0.0
O416 O 0.58067 0.57707 0.07335 0.0
O417 O 0.57245 0.60073 0.06356 0.0
O418 O 0.57843 0.55763 0.92095 0.0
O419 O 0.5792 0.58426 0.94893 0.0
Co420 Co 0.98413 0.58211 0.47287 0.0
O421 O 0.97666 0.57676 0.39787 0.0
O422 O 0.00565 0.59164 0.42633 0.0
C423 C 0.96381 0.59313 0.49624 0.0
O424 O 0.99665 0.5905 0.54721 0.0
Co425 Co 0.9566 0.5607 0.56599 0.0
O426 O 0.97446 0.58164 0.61146 0.0
C427 C 0.97719 0.54258 0.50992 0.0
C428 C 0.99401 0.58513 0.38571 0.0
C429 C 0.99118 0.5909 0.59668 0.0
O430 O 0.98552 0.55731 0.47987 0.0
O431 O 0.96466 0.54086 0.5447 0.0
O432 O 0.9791 0.6041 0.47201 0.0
O433 O 0.96047 0.57557 0.50005 0.0
Co434 Co 0.4323 0.43126 0.49502 0.0
O435 O 0.43605 0.43277 0.41622 0.0
O436 O 0.41497 0.4386 0.45837 0.0
C437 C 0.43367 0.40337 0.50591 0.0
O438 O 0.42421 0.43043 0.5763 0.0
Co439 Co 0.46325 0.43102 0.57191 0.0
O440 O 0.44426 0.42507 0.62944 0.0
C441 C 0.4671 0.4668 0.52249 0.0
C442 C 0.42265 0.43748 0.41226 0.0
C443 C 0.42954 0.427 0.62362 0.0
O444 O 0.45055 0.45869 0.50355 0.0
O445 O 0.47497 0.4578 0.54617 0.0
O446 O 0.41846 0.40362 0.4898 0.0
O447 O 0.44762 0.41965 0.50964 0.0
Co448 Co 0.57218 0.04452 0.51488 0.0
O449 O 0.57521 0.04818 0.43704 0.0
O450 O 0.56434 0.0203 0.47804 0.0
C451 C 0.60015 0.06685 0.5408 0.0
O452 O 0.56814 0.03649 0.59564 0.0
Co453 Co 0.5707 0.07756 0.57973 0.0
O454 O 0.5717 0.06249 0.64344 0.0
C455 C 0.53754 0.05142 0.5213 0.0
C456 C 0.56881 0.03002 0.43251 0.0
C457 C 0.56932 0.0454 0.64126 0.0
O458 O 0.54603 0.04148 0.50925 0.0
O459 O 0.54546 0.06744 0.54567 0.0
O460 O 0.59792 0.05039 0.52389 0.0
O461 O 0.58608 0.07038 0.53313 0.0
Co462 Co 0.25381 0.33751 0.38028 0.0
O463 O 0.25033 0.33379 0.45745 0.0
O464 O 0.25961 0.36155 0.41551 0.0
C465 C 0.26984 0.32077 0.36821 0.0
O466 O 0.25967 0.34596 0.30042 0.0
Co467 Co 0.23541 0.30235 0.30452 0.0
O468 O 0.25269 0.3197 0.24988 0.0
C469 C 0.21315 0.32068 0.34632 0.0
C470 C 0.25585 0.35186 0.46098 0.0
C471 C 0.26012 0.33762 0.25506 0.0
O472 O 0.22753 0.33321 0.37016 0.0
O473 O 0.21313 0.30651 0.32038 0.0
O474 O 0.27788 0.33795 0.38671 0.0
O475 O 0.25204 0.31346 0.36568 0.0
Co476 Co 0.71258 0.93783 0.35331 0.0
O477 O 0.71665 0.93374 0.42922 0.0
O478 O 0.68994 0.92969 0.3932 0.0
C479 C 0.73667 0.96596 0.34031 0.0
O480 O 0.7032 0.94111 0.27845 0.0
Co481 Co 0.73969 0.93769 0.26413 0.0
O482 O 0.72555 0.94688 0.21619 0.0
C483 C 0.71122 0.90149 0.30258 0.0
C484 C 0.69925 0.92909 0.43614 0.0
C485 C 0.70977 0.94546 0.22952 0.0
O486 O 0.70579 0.91085 0.33492 0.0
O487 O 0.72548 0.90934 0.27203 0.0
O488 O 0.7221 0.96451 0.3663 0.0
O489 O 0.73751 0.95009 0.33131 0.0
Co490 Co 0.05939 0.79778 0.34186 0.0
O491 O 0.0579 0.80383 0.41771 0.0
O492 O 0.07182 0.7869 0.38817 0.0
C493 C 0.02919 0.78819 0.32216 0.0
O494 O 0.06284 0.78824 0.26628 0.0
Co495 Co 0.05262 0.82132 0.25285 0.0
O496 O 0.05146 0.80097 0.2029 0.0
C497 C 0.0892 0.83642 0.30468 0.0
C498 C 0.06692 0.79421 0.42947 0.0
C499 C 0.0581 0.78962 0.21635 0.0
O500 O 0.08345 0.82119 0.33312 0.0
O501 O 0.07866 0.83992 0.27199 0.0
O502 O 0.03509 0.77714 0.34561 0.0
O503 O 0.04142 0.80565 0.31678 0.0
H504 H 0.28604 0.08851 0.46022 0.0
H505 H 0.34001 0.11489 0.53402 0.0
H506 H 0.35413 0.11587 0.44414 0.0
H507 H 0.35092 0.10849 0.34446 0.0
H508 H 0.29645 0.08029 0.27407 0.0
H509 H 0.28281 0.08077 0.36262 0.0
C510 C 0.30091 0.09463 0.45664 0.0
C511 C 0.31198 0.10173 0.50352 0.0
C512 C 0.30885 0.09473 0.4054 0.0
C513 C 0.3312 0.10937 0.49837 0.0
C514 C 0.33927 0.1099 0.44705 0.0
C515 C 0.33608 0.10248 0.34864 0.0
C516 C 0.32476 0.09446 0.3026 0.0
C517 C 0.32821 0.10249 0.40027 0.0
C518 C 0.30553 0.0866 0.30867 0.0
C519 C 0.29767 0.08687 0.35937 0.0
H520 H 0.90209 0.2674 0.53059 0.0
H521 H 0.91447 0.2212 0.48702 0.0
H522 H 0.9115 0.22679 0.38935 0.0
H523 H 0.90493 0.24469 0.31582 0.0
H524 H 0.89044 0.28936 0.36067 0.0
H525 H 0.89483 0.28466 0.45786 0.0
C526 C 0.90416 0.25858 0.49971 0.0
C527 C 0.90855 0.24395 0.51605 0.0
C528 C 0.90213 0.26168 0.44366 0.0
C529 C 0.91103 0.23253 0.47553 0.0
C530 C 0.90939 0.23576 0.41963 0.0
C531 C 0.90294 0.25349 0.34696 0.0
C532 C 0.89755 0.26747 0.33115 0.0
C533 C 0.90495 0.25031 0.40312 0.0
C534 C 0.89464 0.27854 0.37188 0.0
C535 C 0.89712 0.27584 0.42748 0.0
H536 H 0.74369 0.67994 0.45944 0.0
H537 H 0.72423 0.62406 0.5282 0.0
H538 H 0.71705 0.61024 0.43563 0.0
H539 H 0.7169 0.61438 0.33568 0.0
H540 H 0.73371 0.67007 0.26782 0.0
H541 H 0.74131 0.68386 0.36014 0.0
C542 C 0.73791 0.66474 0.45394 0.0
C543 C 0.73468 0.65294 0.4998 0.0
C544 C 0.73334 0.657 0.4012 0.0
C545 C 0.72684 0.63329 0.49297 0.0
C546 C 0.72278 0.62545 0.4403 0.0
C547 C 0.7222 0.62953 0.34126 0.0
C548 C 0.72503 0.6413 0.29546 0.0
C549 C 0.72605 0.63721 0.39422 0.0
C550 C 0.73154 0.66083 0.30277 0.0
C551 C 0.7359 0.66868 0.35536 0.0
H552 H 0.08142 0.33302 0.97589 0.0
H553 H 0.04938 0.27432 0.01733 0.0
H554 H 0.05467 0.28182 0.11502 0.0
H555 H 0.06877 0.30501 0.18971 0.0
H556 H 0.10241 0.36341 0.14825 0.0
H557 H 0.09625 0.35612 0.05067 0.0
C558 C 0.0755 0.32194 0.00638 0.0
C559 C 0.06491 0.30317 0.98921 0.0
C560 C 0.07898 0.32627 0.06291 0.0
C561 C 0.05758 0.28891 0.02931 0.0
C562 C 0.06059 0.29317 0.08535 0.0
C563 C 0.07471 0.31612 0.15929 0.0
C564 C 0.08597 0.33473 0.17649 0.0
C565 C 0.07134 0.31178 0.10278 0.0
C566 C 0.09371 0.34893 0.13635 0.0
C567 C 0.09015 0.3448 0.08035 0.0
H568 H 0.62636 0.7362 0.13994 0.0
H569 H 0.6804 0.77258 0.20233 0.0
H570 H 0.69373 0.77276 0.11142 0.0
H571 H 0.68939 0.76415 0.01268 0.0
H572 H 0.63506 0.72678 0.95339 0.0
H573 H 0.62245 0.72534 0.04495 0.0
C574 C 0.64108 0.74411 0.1337 0.0
C575 C 0.6524 0.75458 0.17718 0.0
C576 C 0.64854 0.74401 0.08197 0.0
C577 C 0.67146 0.76446 0.16913 0.0
C578 C 0.67904 0.76461 0.11724 0.0
C579 C 0.67484 0.75556 0.02003 0.0
C580 C 0.66313 0.74584 0.97614 0.0
C581 C 0.66764 0.75468 0.0731 0.0
C582 C 0.64434 0.73459 0.98627 0.0
C583 C 0.63709 0.73374 0.03864 0.0
H584 H 0.23602 0.89687 0.15613 0.0
H585 H 0.23456 0.94589 0.23107 0.0
H586 H 0.22897 0.95628 0.1415 0.0
H587 H 0.22439 0.95145 0.04213 0.0
H588 H 0.22718 0.90341 0.96553 0.0
H589 H 0.23227 0.89251 0.0556 0.0
C590 C 0.23445 0.90981 0.15279 0.0
C591 C 0.23561 0.92055 0.20017 0.0
C592 C 0.23146 0.91583 0.10098 0.0
C593 C 0.23366 0.93733 0.19526 0.0
C594 C 0.23047 0.94329 0.14406 0.0
C595 C 0.22611 0.93859 0.04524 0.0
C596 C 0.2254 0.9282 0.99759 0.0
C597 C 0.22932 0.93265 0.09674 0.0
C598 C 0.22783 0.91168 0.00183 0.0
C599 C 0.23066 0.90543 0.05323 0.0
H600 H 0.64991 0.90569 0.64803 0.0
H601 H 0.703 0.92541 0.7266 0.0
H602 H 0.71796 0.93126 0.63643 0.0
H603 H 0.71592 0.93227 0.5354 0.0
H604 H 0.66266 0.91361 0.45838 0.0
H605 H 0.64778 0.90581 0.5481 0.0
C606 C 0.66475 0.91112 0.64555 0.0
C607 C 0.67534 0.91515 0.69386 0.0
C608 C 0.67322 0.91474 0.59389 0.0
C609 C 0.69455 0.92222 0.68991 0.0
C610 C 0.7031 0.9256 0.63843 0.0
C611 C 0.70105 0.92638 0.5383 0.0
C612 C 0.6904 0.92361 0.49042 0.0
C613 C 0.69258 0.92215 0.59015 0.0
C614 C 0.67117 0.916 0.4947 0.0
C615 C 0.66264 0.91151 0.54595 0.0
H616 H 0.08882 0.77866 0.46855 0.0
H617 H 0.05365 0.80381 0.52099 0.0
H618 H 0.05933 0.79925 0.61702 0.0
H619 H 0.07416 0.78794 0.68681 0.0
H620 H 0.10997 0.76355 0.6344 0.0
H621 H 0.10419 0.76799 0.53836 0.0
C622 C 0.08242 0.78314 0.50102 0.0
C623 C 0.07083 0.79153 0.4875 0.0
C624 C 0.08585 0.78061 0.55645 0.0
C625 C 0.06269 0.79734 0.53013 0.0
C626 C 0.06589 0.79471 0.5852 0.0
C627 C 0.08069 0.78361 0.65436 0.0
C628 C 0.09244 0.7754 0.66788 0.0
C629 C 0.07743 0.78634 0.59893 0.0
C630 C 0.10088 0.76995 0.62526 0.0
C631 C 0.09756 0.77245 0.57018 0.0
H632 H 0.24025 0.37283 0.50681 0.0
H633 H 0.27839 0.34924 0.5367 0.0
H634 H 0.2799 0.35736 0.63406 0.0
H635 H 0.26801 0.36813 0.71175 0.0
H636 H 0.22968 0.39166 0.68442 0.0
H637 H 0.23034 0.38645 0.58508 0.0
C638 C 0.24921 0.36999 0.53468 0.0
C639 C 0.25928 0.36059 0.51537 0.0
C640 C 0.2496 0.37424 0.59099 0.0
C641 C 0.27062 0.35657 0.55133 0.0
C642 C 0.27138 0.36106 0.60686 0.0
C643 C 0.25983 0.37213 0.68395 0.0
C644 C 0.2486 0.37995 0.70493 0.0
C645 C 0.26048 0.36933 0.62737 0.0
C646 C 0.23834 0.38549 0.66877 0.0
C647 C 0.23874 0.38254 0.61213 0.0
H648 H 0.90135 0.7049 0.81719 0.0
H649 H 0.90354 0.65366 0.86992 0.0
H650 H 0.90217 0.6619 0.96576 0.0
H651 H 0.90035 0.68357 0.03507 0.0
H652 H 0.89818 0.73489 0.98341 0.0
H653 H 0.8993 0.72662 0.88711 0.0
C654 C 0.90164 0.69563 0.84974 0.0
C655 C 0.90257 0.67873 0.83646 0.0
C656 C 0.90067 0.70036 0.90507 0.0
C657 C 0.90279 0.66676 0.87902 0.0
C658 C 0.90198 0.67142 0.93392 0.0
C659 C 0.89997 0.69286 0.00272 0.0
C660 C 0.89915 0.70977 0.01634 0.0
C661 C 0.90082 0.68813 0.94746 0.0
C662 C 0.8988 0.72175 0.97398 0.0
C663 C 0.8995 0.71708 0.91886 0.0
H664 H 0.37251 0.2631 1.00002 0.0
H665 H 0.33928 0.29274 0.97536 0.0
H666 H 0.34772 0.29727 0.87842 0.0
H667 H 0.3615 0.2896 0.79859 0.0
H668 H 0.395 0.26019 0.82083 0.0
H669 H 0.38943 0.25855 0.9203 0.0
C670 C 0.3676 0.27098 0.97354 0.0
C671 C 0.35528 0.27755 0.99436 0.0
C672 C 0.37215 0.27313 0.91717 0.0
C673 C 0.34875 0.28753 0.95983 0.0
C674 C 0.35345 0.29001 0.90438 0.0
C675 C 0.36762 0.28291 0.82534 0.0
C676 C 0.37835 0.27476 0.80268 0.0
C677 C 0.36457 0.28227 0.88222 0.0
C678 C 0.38657 0.26647 0.83763 0.0
C679 C 0.3834 0.26554 0.89443 0.0
H680 H 0.72651 0.12031 0.85681 0.0
H681 H 0.76006 0.09852 0.77249 0.0
H682 H 0.76733 0.08813 0.85991 0.0
H683 H 0.76464 0.0858 0.96055 0.0
H684 H 0.73067 0.10723 0.04431 0.0
H685 H 0.72296 0.11701 0.95681 0.0
C686 C 0.73545 0.11334 0.85761 0.0
C687 C 0.74284 0.11031 0.80844 0.0
C688 C 0.73943 0.10724 0.90786 0.0
C689 C 0.75423 0.10106 0.80993 0.0
C690 C 0.75839 0.09509 0.85985 0.0
C691 C 0.75545 0.09249 0.95957 0.0
C692 C 0.74828 0.09582 0.00879 0.0
C693 C 0.75111 0.09815 0.90909 0.0
C694 C 0.73638 0.10449 0.00694 0.0
C695 C 0.732 0.11016 0.95695 0.0
H696 H 0.00626 0.43258 0.85686 0.0
H697 H 0.94892 0.40979 0.81192 0.0
H698 H 0.95662 0.40761 0.71591 0.0
H699 H 0.97977 0.41292 0.64362 0.0
H700 H 0.03727 0.43795 0.6876 0.0
H701 H 0.02942 0.43831 0.78442 0.0
C702 C 0.99546 0.42708 0.82606 0.0
C703 C 0.97706 0.42136 0.84168 0.0
C704 C 1.00002 0.42621 0.77047 0.0
C705 C 0.96323 0.41439 0.80109 0.0
C706 C 0.96761 0.41308 0.74607 0.0
C707 C 0.99055 0.41832 0.67447 0.0
C708 C 0.00907 0.42534 0.65839 0.0
C709 C 0.98596 0.41904 0.73013 0.0
C710 C 0.02289 0.43247 0.69887 0.0
C711 C 0.01842 0.43271 0.75431 0.0
H712 H 0.56929 0.57824 0.64949 0.0
H713 H 0.55043 0.61926 0.69958 0.0
H714 H 0.55557 0.61442 0.7958 0.0
H715 H 0.56517 0.59825 0.8672 0.0
H716 H 0.58241 0.55598 0.81738 0.0
H717 H 0.57821 0.56156 0.72097 0.0
C718 C 0.56638 0.58615 0.68147 0.0
C719 C 0.55952 0.59912 0.66701 0.0
C720 C 0.56907 0.58306 0.73737 0.0
C721 C 0.55566 0.60912 0.70926 0.0
C722 C 0.55863 0.6064 0.76456 0.0
C723 C 0.56806 0.59034 0.83519 0.0
C724 C 0.57416 0.57678 0.84975 0.0
C725 C 0.56529 0.59337 0.77931 0.0
C726 C 0.57766 0.5665 0.80759 0.0
C727 C 0.57529 0.56969 0.7522 0.0
H728 H 0.41521 0.01722 0.80551 0.0
H729 H 0.39621 0.96002 0.86352 0.0
H730 H 0.38898 0.94818 0.76898 0.0
H731 H 0.38758 0.95415 0.67038 0.0
H732 H 0.40405 0.01109 0.61323 0.0
H733 H 0.4127 0.02308 0.70714 0.0
C734 C 0.40962 0.00217 0.79727 0.0
C735 C 0.40638 0.98947 0.84103 0.0
C736 C 0.40494 0.99548 0.74322 0.0
C737 C 0.39882 0.97001 0.83026 0.0
C738 C 0.39469 0.96326 0.77635 0.0
C739 C 0.39309 0.96919 0.67854 0.0
C740 C 0.39528 0.98177 0.63513 0.0
C741 C 0.3976 0.97587 0.73261 0.0
C742 C 0.40221 0.00117 0.64614 0.0
C743 C 0.4072 0.00801 0.69971 0.0
H744 H 0.57416 0.04755 0.33403 0.0
H745 H 0.55906 0.99288 0.40749 0.0
H746 H 0.5568 0.97899 0.31592 0.0
H747 H 0.55967 0.9826 0.21566 0.0
H748 H 0.57456 0.03726 0.14237 0.0
H749 H 0.57631 0.05101 0.23382 0.0
C750 C 0.57035 0.03257 0.33015 0.0
C751 C 0.56685 0.02125 0.37756 0.0
C752 C 0.56905 0.02474 0.27758 0.0
C753 C 0.56183 0.00188 0.37168 0.0
C754 C 0.56056 0.99396 0.31937 0.0
C755 C 0.56327 0.99753 0.21958 0.0
C756 C 0.56705 0.00893 0.17224 0.0
C757 C 0.56422 0.00529 0.27213 0.0
C758 C 0.57159 0.0282 0.1781 0.0
C759 C 0.57262 0.03606 0.23036 0.0
H760 H 0.02869 0.59618 0.34552 0.0
H761 H 0.97225 0.57889 0.29619 0.0
H762 H 0.98125 0.5828 0.19997 0.0
H763 H 0.00495 0.59175 0.12998 0.0
H764 H 0.06147 0.60871 0.17695 0.0
H765 H 0.0526 0.6041 0.27398 0.0
C766 C 0.01841 0.59327 0.31362 0.0
C767 C 0.99987 0.58733 0.32787 0.0
C768 C 0.02364 0.59543 0.25807 0.0
C769 C 0.98663 0.58346 0.28626 0.0
C770 C 0.99173 0.5857 0.23119 0.0
C771 C 0.01533 0.5944 0.16141 0.0
C772 C 0.0338 0.6007 0.14658 0.0
C773 C 0.01017 0.59175 0.2167 0.0
C774 C 0.04711 0.6039 0.18758 0.0
C775 C 0.04207 0.60131 0.243 0.0
H776 H 0.39393 0.46252 0.19879 0.0
H777 H 0.42296 0.43458 0.1198 0.0
H778 H 0.43142 0.42688 0.20984 0.0
H779 H 0.43107 0.42859 0.3111 0.0
H780 H 0.40093 0.45529 0.39032 0.0
H781 H 0.39236 0.46291 0.30026 0.0
C782 C 0.40211 0.45474 0.20122 0.0
C783 C 0.40791 0.44926 0.15238 0.0
C784 C 0.40672 0.45014 0.25327 0.0
C785 C 0.41832 0.43899 0.15651 0.0
C786 C 0.42318 0.43461 0.20808 0.0
C787 C 0.4226 0.43606 0.30873 0.0
C788 C 0.41676 0.44147 0.35761 0.0
C789 C 0.41755 0.44019 0.25673 0.0
C790 C 0.40563 0.45096 0.35356 0.0
C791 C 0.40076 0.45536 0.30199 0.0
H792 H 0.34242 0.21274 0.15308 0.0
H793 H 0.2875 0.18857 0.0856 0.0
H794 H 0.28657 0.1572 0.08668 0.0
H795 H 0.29964 0.13634 0.11765 0.0
H796 H 0.35413 0.1596 0.18779 0.0
H797 H 0.35701 0.19172 0.17537 0.0
C798 C 0.3305 0.20064 0.13722 0.0
C799 C 0.31501 0.20281 0.11939 0.0
C800 C 0.32982 0.18252 0.13987 0.0
C801 C 0.29952 0.1871 0.09961 0.0
C802 C 0.29894 0.16919 0.1006 0.0
C803 C 0.31217 0.14846 0.13013 0.0
C804 C 0.32648 0.14572 0.15471 0.0
C805 C 0.31369 0.16667 0.12266 0.0
C806 C 0.34286 0.16146 0.16928 0.0
C807 C 0.3445 0.17978 0.16214 0.0
H808 H 0.82704 0.15037 0.22379 0.0
H809 H 0.79422 0.1424 0.07725 0.0
H810 H 0.807 0.17652 0.065 0.0
H811 H 0.82694 0.20862 0.09671 0.0
H812 H 0.85984 0.21676 0.24312 0.0
H813 H 0.84738 0.18259 0.25484 0.0
C814 C 0.82288 0.15608 0.18872 0.0
C815 C 0.80974 0.14381 0.15144 0.0
C816 C 0.83007 0.17576 0.1823 0.0
C817 C 0.80432 0.1515 0.10663 0.0
C818 C 0.81156 0.17103 0.09967 0.0
C819 C 0.83126 0.20295 0.1315 0.0
C820 C 0.84422 0.21526 0.1691 0.0
C821 C 0.82426 0.18329 0.13761 0.0
C822 C 0.84986 0.20762 0.21352 0.0
C823 C 0.8428 0.18807 0.22019 0.0
H824 H 0.84547 0.69082 0.13808 0.0
H825 H 0.84089 0.72808 0.26165 0.0
H826 H 0.80784 0.70914 0.26467 0.0
H827 H 0.7802 0.68302 0.23162 0.0
H828 H 0.78285 0.64588 0.10513 0.0
H829 H 0.81673 0.66337 0.10529 0.0
C830 C 0.83723 0.69486 0.16546 0.0
C831 C 0.84588 0.71112 0.19926 0.0
C832 C 0.8179 0.68379 0.16706 0.0
C833 C 0.83485 0.71589 0.23477 0.0
C834 C 0.81586 0.70497 0.23682 0.0
C835 C 0.7881 0.6786 0.20396 0.0
C836 C 0.7789 0.66321 0.16798 0.0
C837 C 0.80728 0.68902 0.20309 0.0
C838 C 0.78951 0.65757 0.13344 0.0
C839 C 0.80887 0.66774 0.13315 0.0
H840 H 0.14697 0.34276 0.36646 0.0
H841 H 0.12463 0.29927 0.24213 0.0
H842 H 0.15246 0.29473 0.24459 0.0
H843 H 0.18266 0.30227 0.28333 0.0
H844 H 0.20552 0.34565 0.40771 0.0
H845 H 0.17795 0.35091 0.40406 0.0
C846 C 0.14828 0.33243 0.33957 0.0
C847 C 0.13366 0.32133 0.30441 0.0
C848 C 0.16433 0.32967 0.34157 0.0
C849 C 0.13557 0.30792 0.26999 0.0
C850 C 0.15149 0.30527 0.27134 0.0
C851 C 0.18162 0.31279 0.31002 0.0
C852 C 0.19612 0.32338 0.34609 0.0
C853 C 0.16584 0.31587 0.30745 0.0
C854 C 0.19455 0.33718 0.37969 0.0
C855 C 0.1788 0.34026 0.37755 0.0
H856 H 0.66748 0.81269 0.27788 0.0
H857 H 0.62348 0.82542 0.33416 0.0
H858 H 0.64432 0.85897 0.33417 0.0
H859 H 0.67504 0.88435 0.32426 0.0
H860 H 0.71953 0.87273 0.26731 0.0
H861 H 0.69832 0.83889 0.26155 0.0
C862 C 0.66236 0.82279 0.2895 0.0
C863 C 0.6439 0.81642 0.30657 0.0
C864 C 0.6745 0.84218 0.29003 0.0
C865 C 0.63757 0.8298 0.32118 0.0
C866 C 0.6495 0.84903 0.32143 0.0
C867 C 0.68024 0.87446 0.31087 0.0
C868 C 0.69896 0.881 0.29745 0.0
C869 C 0.66804 0.85529 0.30719 0.0
C870 C 0.70524 0.86802 0.27853 0.0
C871 C 0.69311 0.84871 0.27517 0.0
H872 H 0.17037 0.90132 0.28881 0.0
H873 H 0.18291 0.85888 0.36488 0.0
H874 H 0.14998 0.837 0.36606 0.0
H875 H 0.1176 0.83012 0.34585 0.0
H876 H 0.10591 0.87296 0.26851 0.0
H877 H 0.13865 0.89457 0.26828 0.0
C878 C 0.16605 0.88729 0.30578 0.0
C879 C 0.17928 0.88186 0.32693 0.0
C880 C 0.14718 0.87489 0.30648 0.0
C881 C 0.17316 0.8635 0.34818 0.0
C882 C 0.1543 0.85101 0.34907 0.0
C883 C 0.12217 0.84424 0.32932 0.0
C884 C 0.10915 0.84988 0.30748 0.0
C885 C 0.14117 0.85659 0.32857 0.0
C886 C 0.11548 0.86818 0.28565 0.0
C887 C 0.13425 0.88056 0.28539 0.0
H888 H 0.66621 0.86407 0.84479 0.0
H889 H 0.60862 0.83634 0.88881 0.0
H890 H 0.60988 0.80619 0.89425 0.0
H891 H 0.62694 0.78761 0.8867 0.0
H892 H 0.68438 0.81437 0.84151 0.0
H893 H 0.68356 0.84502 0.83705 0.0
C894 C 0.65392 0.85141 0.8552 0.0
C895 C 0.63737 0.85254 0.86644 0.0
C896 C 0.65471 0.83397 0.85861 0.0
C897 C 0.62159 0.83598 0.88023 0.0
C898 C 0.62227 0.81868 0.88343 0.0
C899 C 0.63938 0.80012 0.87627 0.0
C900 C 0.65571 0.79865 0.86458 0.0
C901 C 0.63875 0.81753 0.873 0.0
C902 C 0.67161 0.81507 0.85074 0.0
C903 C 0.67113 0.83259 0.848 0.0
H904 H 0.18735 0.88822 0.87449 0.0
H905 H 0.14281 0.89293 0.78868 0.0
H906 H 0.12579 0.85835 0.78594 0.0
H907 H 0.1239 0.82675 0.80733 0.0
H908 H 0.16932 0.82321 0.89166 0.0
H909 H 0.18573 0.85748 0.89463 0.0
C910 C 0.17386 0.88183 0.85532 0.0
C911 C 0.16638 0.8933 0.83197 0.0
C912 C 0.16438 0.86209 0.85309 0.0
C913 C 0.1489 0.88453 0.80722 0.0
C914 C 0.13921 0.86474 0.80542 0.0
C915 C 0.13744 0.83347 0.826 0.0
C916 C 0.14531 0.82228 0.84928 0.0
C917 C 0.14688 0.85336 0.82792 0.0
C918 C 0.16285 0.83132 0.87353 0.0
C919 C 0.17226 0.85097 0.87539 0.0
H920 H 0.12884 0.31886 0.79201 0.0
H921 H 0.11621 0.30763 0.964 0.0
H922 H 0.14893 0.32347 0.987 0.0
H923 H 0.1803 0.34594 0.95951 0.0
H924 H 0.19324 0.35701 0.78736 0.0
H925 H 0.16136 0.3359 0.76288 0.0
C926 C 0.13338 0.31899 0.8341 0.0
C927 C 0.12022 0.31192 0.87626 0.0
C928 C 0.15223 0.32877 0.84713 0.0
C929 C 0.12617 0.31264 0.93087 0.0
C930 C 0.14486 0.32206 0.94411 0.0
C931 C 0.17615 0.3435 0.91664 0.0
C932 C 0.18891 0.35338 0.87534 0.0
C933 C 0.15788 0.33111 0.90287 0.0
C934 C 0.18356 0.34974 0.81989 0.0
C935 C 0.16534 0.33766 0.80588 0.0
H936 H 0.79485 0.66743 0.68967 0.0
H937 H 0.76633 0.61549 0.59831 0.0
H938 H 0.79362 0.60999 0.60064 0.0
H939 H 0.82585 0.62031 0.62541 0.0
H940 H 0.85453 0.672 0.71778 0.0
H941 H 0.82687 0.67697 0.71869 0.0
C942 C 0.79462 0.65493 0.67026 0.0
C943 C 0.77857 0.64199 0.64365 0.0
C944 C 0.81037 0.6517 0.67205 0.0
C945 C 0.77847 0.62573 0.6192 0.0
C946 C 0.79408 0.62253 0.62042 0.0
C947 C 0.82605 0.63258 0.64621 0.0
C948 C 0.84232 0.64576 0.67115 0.0
C949 C 0.81014 0.63546 0.64642 0.0
C950 C 0.84222 0.66156 0.69814 0.0
C951 C 0.82642 0.6645 0.69851 0.0
H952 H 0.33633 0.2202 0.65296 0.0
H953 H 0.37738 0.2046 0.7182 0.0
H954 H 0.3542 0.17189 0.72699 0.0
H955 H 0.32309 0.14745 0.70966 0.0
H956 H 0.2816 0.16232 0.64539 0.0
H957 H 0.3042 0.19583 0.64274 0.0
C958 C 0.34018 0.20967 0.66946 0.0
C959 C 0.35863 0.21477 0.68417 0.0
C960 C 0.32678 0.19086 0.67421 0.0
C961 C 0.36335 0.20102 0.70607 0.0
C962 C 0.35011 0.18232 0.71108 0.0
C963 C 0.31899 0.15811 0.69551 0.0
C964 C 0.30091 0.15262 0.67717 0.0
C965 C 0.33194 0.17706 0.69423 0.0
C966 C 0.29552 0.16637 0.65966 0.0
C967 C 0.30844 0.18543 0.65795 0.0
H968 H 0.79104 0.15728 0.67383 0.0
H969 H 0.77606 0.20212 0.6343 0.0
H970 H 0.80832 0.22489 0.63453 0.0
H971 H 0.84055 0.23204 0.64142 0.0
H972 H 0.85677 0.18801 0.67927 0.0
H973 H 0.82423 0.16499 0.68435 0.0
C974 C 0.79484 0.17207 0.6659 0.0
C975 C 0.78104 0.17791 0.65382 0.0
C976 C 0.81362 0.18522 0.66528 0.0
C977 C 0.78628 0.19714 0.64332 0.0
C978 C 0.80477 0.21021 0.64339 0.0
C979 C 0.83713 0.21742 0.65077 0.0
C980 C 0.85124 0.21181 0.65938 0.0
C981 C 0.81853 0.20437 0.65343 0.0
C982 C 0.84628 0.19278 0.6722 0.0
C983 C 0.82765 0.1796 0.67508 0.0
H984 H 0.00667 0.48146 0.4654 0.0
H985 H 0.98229 0.46302 0.62532 0.0
H986 H 0.97433 0.48941 0.63034 0.0
H987 H 0.97226 0.51619 0.58715 0.0
H988 H 0.99617 0.53516 0.42697 0.0
H989 H 0.00623 0.51005 0.42397 0.0
C990 C 0.99996 0.48351 0.50169 0.0
C991 C 0.995 0.47033 0.54483 0.0
C992 C 0.99501 0.49854 0.50381 0.0
C993 C 0.98613 0.47296 0.59147 0.0
C994 C 0.9815 0.48798 0.59429 0.0
C995 C 0.97957 0.51481 0.55134 0.0
C996 C 0.98316 0.52733 0.50697 0.0
C997 C 0.98543 0.50054 0.55015 0.0
C998 C 0.99307 0.52558 0.46152 0.0
C999 C 0.99888 0.51127 0.45985 0.0
H1000 H 0.45669 0.49239 0.47548 0.0
H1001 H 0.50114 0.4883 0.56433 0.0
H1002 H 0.51841 0.52232 0.56414 0.0
H1003 H 0.52144 0.55305 0.53857 0.0
H1004 H 0.47829 0.55855 0.44714 0.0
H1005 H 0.45992 0.52416 0.44935 0.0
C1006 C 0.47017 0.49895 0.49464 0.0
C1007 C 0.47754 0.48765 0.51972 0.0
C1008 C 0.48025 0.51878 0.49435 0.0
C1009 C 0.49505 0.49647 0.54445 0.0
C1010 C 0.50498 0.51601 0.5446 0.0
C1011 C 0.50798 0.54688 0.51922 0.0
C1012 C 0.5013 0.55845 0.49268 0.0
C1013 C 0.49775 0.52726 0.51971 0.0
C1014 C 0.48379 0.55001 0.46794 0.0
C1015 C 0.47331 0.53033 0.46901 0.0
H1016 H 0.51246 0.01419 0.50786 0.0
H1017 H 0.51739 0.07104 0.50791 0.0
H1018 H 0.48429 0.05875 0.49525 0.0
H1019 H 0.45411 0.03242 0.4897 0.0
H1020 H 0.4475 0.97504 0.49449 0.0
H1021 H 0.48121 0.98701 0.49869 0.0
C1022 C 0.50629 0.02388 0.50446 0.0
C1023 C 0.51749 0.0436 0.50903 0.0
C1024 C 0.48699 0.01663 0.49828 0.0
C1025 C 0.5092 0.05589 0.50496 0.0
C1026 C 0.49024 0.04885 0.49766 0.0
C1027 C 0.45988 0.02236 0.49166 0.0
C1028 C 0.44812 0.00277 0.49253 0.0
C1029 C 0.47903 0.02931 0.49526 0.0
C1030 C 0.45611 0.99015 0.49385 0.0
C1031 C 0.4754 0.99703 0.49656 0.0
H1032 H 0.44387 0.95217 0.97277 0.0
H1033 H 0.46864 0.01128 0.01771 0.0
H1034 H 0.49811 0.01043 0.03266 0.0
H1035 H 0.51699 0.99314 0.03041 0.0
H1036 H 0.49218 0.93422 0.98346 0.0
H1037 H 0.46246 0.93477 0.97263 0.0
C1038 C 0.45568 0.96492 0.98585 0.0
C1039 C 0.45399 0.9818 0.99389 0.0
C1040 C 0.47255 0.96434 0.9944 0.0
C1041 C 0.4695 0.99811 0.01097 0.0
C1042 C 0.48637 0.99762 0.0197 0.0
C1043 C 0.50504 0.98033 0.01859 0.0
C1044 C 0.50684 0.96364 0.00789 0.0
C1045 C 0.48805 0.98082 0.0114 0.0
C1046 C 0.49122 0.94725 0.99198 0.0
C1047 C 0.47422 0.94757 0.98556 0.0
H1048 H 0.00857 0.55263 0.97243 0.0
H1049 H 0.05578 0.54355 0.01548 0.0
H1050 H 0.03614 0.50951 0.02233 0.0
H1051 H 0.00556 0.48224 0.01514 0.0
H1052 H 0.9583 0.49146 0.97485 0.0
H1053 H 0.978 0.52547 0.96622 0.0
C1054 C 0.01459 0.54323 0.98343 0.0
C1055 C 0.03371 0.55068 0.99301 0.0
C1056 C 0.00324 0.52366 0.98678 0.0
C1057 C 0.0412 0.53823 0.00723 0.0
C1058 C 0.02996 0.51875 0.01114 0.0
C1059 C 0.99966 0.49171 0.00379 0.0
C1060 C 0.98057 0.48438 0.99497 0.0
C1061 C 0.011 0.51129 1.00046 0.0
C1062 C 0.97297 0.4968 0.98158 0.0
C1063 C 0.98422 0.51623 0.97688 0.0
H1064 H 0.45649 0.49334 0.03066 0.0
H1065 H 0.44684 0.53159 0.92222 0.0
H1066 H 0.47951 0.55038 0.91141 0.0
H1067 H 0.51063 0.55689 0.93312 0.0
H1068 H 0.52232 0.52097 0.04433 0.0
H1069 H 0.48912 0.50014 0.05237 0.0
C1070 C 0.46157 0.50583 0.00491 0.0
C1071 C 0.449 0.511 0.97782 0.0
C1072 C 0.48075 0.51694 0.9988 0.0
C1073 C 0.45594 0.52721 0.94427 0.0
C1074 C 0.47473 0.53802 0.93764 0.0
C1075 C 0.50605 0.54451 0.95927 0.0
C1076 C 0.519 0.54064 0.98848 0.0
C1077 C 0.48719 0.53309 0.96482 0.0
C1078 C 0.51268 0.52429 0.02121 0.0
C1079 C 0.49368 0.51248 0.02616 0.0
H1080 H 0.38962 0.04637 0.96798 0.0
H1081 H 0.43018 0.05715 0.09519 0.0
H1082 H 0.4198 0.07836 0.14178 0.0
H1083 H 0.39588 0.08989 0.15289 0.0
H1084 H 0.35528 0.07818 0.02536 0.0
H1085 H 0.36886 0.06119 0.97227 0.0
C1086 C 0.39644 0.05366 0.00534 0.0
C1087 C 0.41044 0.05005 0.0286 0.0
C1088 C 0.39019 0.06546 0.03214 0.0
C1089 C 0.41935 0.05974 0.07657 0.0
C1090 C 0.4133 0.07172 0.10345 0.0
C1091 C 0.39044 0.08402 0.11278 0.0
C1092 C 0.37476 0.08524 0.09249 0.0
C1093 C 0.39826 0.07411 0.08267 0.0
C1094 C 0.3675 0.07747 0.04106 0.0
C1095 C 0.37518 0.0677 0.01094 0.0
H1096 H 0.90158 0.33698 0.19421 0.0
H1097 H 0.8764 0.30304 0.0513 0.0
H1098 H 0.88842 0.33118 0.99353 0.0
H1099 H 0.91069 0.36496 0.9827 0.0
H1100 H 0.93011 0.39954 0.12769 0.0
H1101 H 0.91553 0.37184 0.18609 0.0
C1102 C 0.89828 0.33583 0.15067 0.0
C1103 C 0.88892 0.31789 0.12647 0.0
C1104 C 0.90437 0.35221 0.11823 0.0
C1105 C 0.88423 0.31657 0.0705 0.0
C1106 C 0.89104 0.33273 0.03742 0.0
C1107 C 0.91113 0.36649 0.02712 0.0
C1108 C 0.92212 0.38419 0.05094 0.0
C1109 C 0.90185 0.35054 0.06057 0.0
C1110 C 0.92233 0.38607 0.10834 0.0
C1111 C 0.91391 0.37016 0.14185 0.0
H1112 H 0.68738 0.58124 0.03124 0.0
H1113 H 0.67261 0.5663 0.20026 0.0
H1114 H 0.64008 0.55026 0.17532 0.0
H1115 H 0.616 0.54886 0.10998 0.0
H1116 H 0.63138 0.56737 0.9431 0.0
H1117 H 0.66312 0.57358 0.96198 0.0
C1118 C 0.67709 0.57357 0.06197 0.0
C1119 C 0.68234 0.57504 0.11742 0.0
C1120 C 0.65829 0.56564 0.04779 0.0
C1121 C 0.66888 0.56521 0.15712 0.0
C1122 C 0.6502 0.55639 0.14301 0.0
C1123 C 0.62617 0.55345 0.07734 0.0
C1124 C 0.62145 0.55778 0.02539 0.0
C1125 C 0.64469 0.55775 0.08915 0.0
C1126 C 0.63478 0.56403 0.98353 0.0
C1127 C 0.65297 0.56767 0.99434 0.0
H1128 H 0.07072 0.42164 0.51297 0.0
H1129 H 0.04989 0.43231 0.36044 0.0
H1130 H 0.06612 0.41746 0.30908 0.0
H1131 H 0.08145 0.39642 0.31015 0.0
H1132 H 0.10332 0.38682 0.46228 0.0
H1133 H 0.09184 0.40661 0.51151 0.0
C1134 C 0.07039 0.42136 0.46833 0.0
C1135 C 0.05926 0.42803 0.44024 0.0
C1136 C 0.07972 0.41278 0.43931 0.0
C1137 C 0.05866 0.42748 0.38259 0.0
C1138 C 0.06773 0.41879 0.35338 0.0
C1139 C 0.0842 0.39922 0.35376 0.0
C1140 C 0.09306 0.39016 0.38284 0.0
C1141 C 0.07762 0.41065 0.38157 0.0
C1142 C 0.09663 0.39381 0.43918 0.0
C1143 C 0.08992 0.40496 0.46735 0.0
H1144 H 0.60525 0.72245 0.43148 0.0
H1145 H 0.56826 0.70519 0.29347 0.0
H1146 H 0.54849 0.67566 0.34141 0.0
H1147 H 0.5451 0.65303 0.41717 0.0
H1148 H 0.58365 0.67174 0.55242 0.0
H1149 H 0.59893 0.70314 0.51268 0.0
C1150 C 0.59234 0.71286 0.41321 0.0
C1151 C 0.58791 0.71618 0.36001 0.0
C1152 C 0.58142 0.69612 0.44056 0.0
C1153 C 0.57166 0.703 0.33516 0.0
C1154 C 0.56049 0.6861 0.36235 0.0
C1155 C 0.55653 0.66416 0.43842 0.0
C1156 C 0.56355 0.66007 0.48694 0.0
C1157 C 0.56568 0.68218 0.41431 0.0
C1158 C 0.57826 0.67455 0.51448 0.0
C1159 C 0.58703 0.69248 0.49178 0.0
H1160 H 0.29562 0.90406 0.31232 0.0
H1161 H 0.26848 0.88857 0.46936 0.0
H1162 H 0.29807 0.89664 0.51457 0.0
H1163 H 0.33196 0.91445 0.51071 0.0
H1164 H 0.35911 0.92891 0.3535 0.0
H1165 H 0.32927 0.91447 0.30665 0.0
C1166 C 0.29614 0.90168 0.35611 0.0
C1167 C 0.27993 0.89573 0.38758 0.0
C1168 C 0.31324 0.90641 0.38173 0.0
C1169 C 0.28072 0.89287 0.44428 0.0
C1170 C 0.29769 0.89772 0.47018 0.0
C1171 C 0.33135 0.91362 0.46613 0.0
C1172 C 0.3477 0.92279 0.43554 0.0
C1173 C 0.3141 0.90538 0.43961 0.0
C1174 C 0.34676 0.9218 0.37789 0.0
C1175 C 0.32965 0.91376 0.35113 0.0
H1176 H 0.57471 0.9422 0.9596 0.0
H1177 H 0.62302 0.99242 0.00668 0.0
H1178 H 0.64213 0.98274 0.94879 0.0
H1179 H 0.645 0.95939 0.88605 0.0
H1180 H 0.59618 0.90967 0.83927 0.0
H1181 H 0.5772 0.92018 0.89407 0.0
C1182 C 0.58941 0.95109 0.95719 0.0
C1183 C 0.59744 0.96797 0.98736 0.0
C1184 C 0.60014 0.94571 0.92293 0.0
C1185 C 0.61653 0.97928 0.98394 0.0
C1186 C 0.62743 0.97383 0.95055 0.0
C1187 C 0.63016 0.95118 0.88685 0.0
C1188 C 0.62189 0.93389 0.85856 0.0
C1189 C 0.61936 0.95709 0.91965 0.0
C1190 C 0.60274 0.92309 0.86066 0.0
C1191 C 0.59193 0.92899 0.89232 0.0
H1192 H 0.10575 0.72719 0.93427 0.0
H1193 H 0.08887 0.70569 0.77037 0.0
H1194 H 0.08207 0.67373 0.80118 0.0
H1195 H 0.07711 0.65136 0.8769 0.0
H1196 H 0.08911 0.67221 0.04308 0.0
H1197 H 0.10176 0.70484 0.00986 0.0
C1198 C 0.10091 0.71553 0.90531 0.0
C1199 C 0.09789 0.71869 0.85016 0.0
C1200 C 0.09611 0.69704 0.92399 0.0
C1201 C 0.09129 0.70348 0.81303 0.0
C1202 C 0.08739 0.68524 0.83064 0.0
C1203 C 0.08318 0.66311 0.90546 0.0
C1204 C 0.08278 0.65949 0.9621 0.0
C1205 C 0.08929 0.68175 0.8863 0.0
C1206 C 0.0898 0.67475 0.99915 0.0
C1207 C 0.09682 0.69338 0.98021 0.0
H1208 H 0.33313 0.44357 0.05113 0.0
H1209 H 0.36117 0.47522 0.9078 0.0
H1210 H 0.33192 0.46618 0.86099 0.0
H1211 H 0.29882 0.44461 0.85601 0.0
H1212 H 0.26984 0.41885 0.00448 0.0
H1213 H 0.29887 0.43066 0.05508 0.0
C1214 C 0.33276 0.44877 0.01009 0.0
C1215 C 0.34932 0.45917 0.98169 0.0
C1216 C 0.31575 0.44452 0.98454 0.0
C1217 C 0.3487 0.46648 0.92953 0.0
C1218 C 0.33193 0.46147 0.90287 0.0
C1219 C 0.29875 0.4423 0.90005 0.0
C1220 C 0.28234 0.42981 0.92573 0.0
C1221 C 0.31542 0.44985 0.92923 0.0
C1222 C 0.28237 0.42735 0.9829 0.0
C1223 C 0.29903 0.43421 0.01196 0.0
H1224 H 0.90686 0.61232 0.62641 0.0
H1225 H 0.95408 0.66675 0.63605 0.0
H1226 H 0.97213 0.65486 0.58185 0.0
H1227 H 0.97457 0.62895 0.53209 0.0
H1228 H 0.92803 0.57398 0.52684 0.0
H1229 H 0.90957 0.58611 0.57866 0.0
C1230 C 0.92111 0.62153 0.61667 0.0
C1231 C 0.92914 0.64035 0.63512 0.0
C1232 C 0.93148 0.61453 0.58606 0.0
C1233 C 0.94763 0.65216 0.62252 0.0
C1234 C 0.95794 0.6454 0.59135 0.0
C1235 C 0.96033 0.61969 0.54191 0.0
C1236 C 0.95255 0.60068 0.52534 0.0
C1237 C 0.95 0.62663 0.57284 0.0
C1238 C 0.93423 0.58871 0.53912 0.0
C1239 C 0.92371 0.59562 0.56876 0.0
H1240 H 0.41614 0.36787 0.46406 0.0
H1241 H 0.45349 0.4003 0.59253 0.0
H1242 H 0.45136 0.37151 0.6351 0.0
H1243 H 0.43549 0.33676 0.64218 0.0
H1244 H 0.40138 0.30433 0.50802 0.0
H1245 H 0.40606 0.33333 0.46018 0.0
C1246 C 0.42396 0.36858 0.50098 0.0
C1247 C 0.43432 0.38609 0.52645 0.0
C1248 C 0.4234 0.35196 0.52384 0.0
C1249 C 0.44492 0.38696 0.57312 0.0
C1250 C 0.44382 0.37048 0.59736 0.0
C1251 C 0.42978 0.33614 0.6014 0.0
C1252 C 0.41814 0.31859 0.5785 0.0
C1253 C 0.43268 0.35287 0.57397 0.0
C1254 C 0.41058 0.31777 0.526 0.0
C1255 C 0.41303 0.33435 0.49902 0.0
H1256 H 0.62823 0.10245 0.52597 0.0
H1257 H 0.60795 0.05446 0.63486 0.0
H1258 H 0.63715 0.06719 0.68379 0.0
H1259 H 0.66962 0.08957 0.68803 0.0
H1260 H 0.69101 0.13777 0.58011 0.0
H1261 H 0.66044 0.1275 0.53847 0.0
C1262 C 0.63008 0.09522 0.56165 0.0
C1263 C 0.61586 0.07769 0.57744 0.0
C1264 C 0.64729 0.10242 0.58887 0.0
C1265 C 0.61856 0.06814 0.62269 0.0
C1266 C 0.63536 0.07529 0.65029 0.0
C1267 C 0.66755 0.09796 0.65583 0.0
C1268 C 0.68258 0.11423 0.63664 0.0
C1269 C 0.65001 0.09203 0.63249 0.0
C1270 C 0.67965 0.12512 0.59546 0.0
C1271 C 0.66217 0.11922 0.57156 0.0
H1272 H 0.71242 0.75673 0.68879 0.0
H1273 H 0.72604 0.74928 0.85535 0.0
H1274 H 0.74705 0.73679 0.82243 0.0
H1275 H 0.75543 0.72124 0.74754 0.0
H1276 H 0.73816 0.72465 0.58206 0.0
H1277 H 0.7253 0.74594 0.61223 0.0
C1278 C 0.72065 0.75311 0.71747 0.0
C1279 C 0.71795 0.75395 0.77409 0.0
C1280 C 0.73191 0.74499 0.69818 0.0
C1281 C 0.72816 0.74882 0.81146 0.0
C1282 C 0.74004 0.74156 0.79265 0.0
C1283 C 0.74966 0.72744 0.71788 0.0
C1284 C 0.74773 0.72155 0.66287 0.0
C1285 C 0.74123 0.73862 0.73622 0.0
C1286 C 0.73983 0.72918 0.62468 0.0
C1287 C 0.73229 0.74115 0.64203 0.0
H1288 H 0.21188 0.00195 0.81747 0.0
H1289 H 0.25563 0.9855 0.79009 0.0
H1290 H 0.27028 0.01106 0.72625 0.0
H1291 H 0.27167 0.03815 0.67977 0.0
H1292 H 0.23118 0.05875 0.7094 0.0
H1293 H 0.21413 0.03145 0.76996 0.0
C1294 C 0.22458 0.00406 0.79729 0.0
C1295 C 0.23264 0.99182 0.80889 0.0
C1296 C 0.23348 0.01943 0.76081 0.0
C1297 C 0.24919 0.99478 0.78279 0.0
C1298 C 0.25761 0.00938 0.74583 0.0
C1299 C 0.25903 0.03677 0.69891 0.0
C1300 C 0.25264 0.05041 0.68966 0.0
C1301 C 0.24997 0.02177 0.73479 0.0
C1302 C 0.23633 0.04833 0.71558 0.0
C1303 C 0.22666 0.03278 0.75036 0.0
H1304 H 0.00235 0.24544 0.85225 0.0
H1305 H 0.03068 0.25741 0.69677 0.0
H1306 H 0.00116 0.24457 0.64794 0.0
H1307 H 0.96783 0.23578 0.65075 0.0
H1308 H 0.9394 0.2228 0.80619 0.0
H1309 H 0.96835 0.22982 0.85411 0.0
C1310 C 0.00197 0.24445 0.80769 0.0
C1311 C 0.01857 0.25226 0.77796 0.0
C1312 C 0.98495 0.23717 0.78009 0.0
C1313 C 0.01804 0.25118 0.72035 0.0
C1314 C 0.00117 0.24409 0.6925 0.0
C1315 C 0.96792 0.23387 0.69493 0.0
C1316 C 0.9516 0.2289 0.72511 0.0
C1317 C 0.9846 0.23789 0.72203 0.0
C1318 C 0.95179 0.22645 0.78221 0.0
C1319 C 0.96837 0.23065 0.8096 0.0
H1320 H 0.32609 0.30617 0.22203 0.0
H1321 H 0.27571 0.26157 0.16006 0.0
H1322 H 0.25791 0.26977 0.22713 0.0
H1323 H 0.25675 0.28965 0.30285 0.0
H1324 H 0.30709 0.33466 0.36387 0.0
H1325 H 0.32495 0.32566 0.29943 0.0
C1326 C 0.31119 0.29852 0.22264 0.0
C1327 C 0.30211 0.28356 0.18578 0.0
C1328 C 0.30113 0.30301 0.26204 0.0
C1329 C 0.28288 0.27333 0.18782 0.0
C1330 C 0.27275 0.27787 0.2264 0.0
C1331 C 0.27163 0.2974 0.30234 0.0
C1332 C 0.28056 0.31295 0.33736 0.0
C1333 C 0.28174 0.29261 0.2639 0.0
C1334 C 0.29987 0.32269 0.33689 0.0
C1335 C 0.31009 0.31769 0.29972 0.0
H1336 H 0.73634 0.99913 0.35917 0.0
H1337 H 0.76206 0.97302 0.25629 0.0
H1338 H 0.77453 0.00123 0.19724 0.0
H1339 H 0.77438 0.03175 0.16862 0.0
H1340 H 0.74334 0.05346 0.26579 0.0
H1341 H 0.7367 0.0287 0.33336 0.0
C1342 C 0.74487 -0.00039 0.32421 0.0
C1343 C 0.74803 0.9839 0.31162 0.0
C1344 C 0.7509 0.01516 0.28911 0.0
C1345 C 0.75937 0.98493 0.26674 0.0
C1346 C 0.76633 0.00098 0.23271 0.0
C1347 C 0.7664 0.03107 0.20507 0.0
C1348 C 0.75967 0.0446 0.2131 0.0
C1349 C 0.76159 0.01592 0.24238 0.0
C1350 C 0.74901 0.04348 0.25959 0.0
C1351 C 0.7451 0.02923 0.29804 0.0
H1352 H 0.01067 0.8057 0.26644 0.0
H1353 H 0.00312 0.75304 0.34138 0.0
H1354 H 0.97143 0.73814 0.31193 0.0
H1355 H 0.94664 0.73856 0.25785 0.0
H1356 H 0.95213 0.78982 0.18062 0.0
H1357 H 0.98353 0.8068 0.21849 0.0
C1358 C 0.002 0.79104 0.27661 0.0
C1359 C 0.00951 0.78052 0.30555 0.0
C1360 C 0.98335 0.78226 0.25928 0.0
C1361 C 0.99798 0.76154 0.31867 0.0
C1362 C 0.97972 0.75291 0.30199 0.0
C1363 C 0.95448 0.75361 0.25072 0.0
C1364 C 0.94707 0.763 0.21727 0.0
C1365 C 0.97238 0.76297 0.27148 0.0
C1366 C 0.95748 0.7824 0.20727 0.0
C1367 C 0.9755 0.792 0.22832 0.0
H1368 H 0.33194 0.09984 0.98413 0.0
H1369 H 0.28137 0.0517 0.02853 0.0
H1370 H 0.27061 0.04871 0.9337 0.0
H1371 H 0.27358 0.06256 0.84218 0.0
H1372 H 0.32343 0.11123 0.79734 0.0
H1373 H 0.33658 0.11121 0.88828 0.0
C1374 C 0.31876 0.08841 0.97274 0.0
C1375 C 0.30734 0.07616 0.01341 0.0
C1376 C 0.31245 0.08706 0.91832 0.0
C1377 C 0.2903 0.06146 0.99809 0.0
C1378 C 0.28411 0.05976 0.94393 0.0
C1379 C 0.28748 0.07289 0.85211 0.0
C1380 C 0.29754 0.08694 0.81379 0.0
C1381 C 0.29475 0.07292 0.90435 0.0
C1382 C 0.31555 0.10021 0.82641 0.0
C1383 C 0.32297 0.10029 0.87845 0.0
H1384 H 0.90293 0.29707 0.97682 0.0
H1385 H 0.90433 0.24593 0.03274 0.0
H1386 H 0.9133 0.24051 0.94022 0.0
H1387 H 0.91528 0.24764 0.84051 0.0
H1388 H 0.91237 0.29843 0.78602 0.0
H1389 H 0.90962 0.30672 0.88081 0.0
C1390 C 0.90587 0.2851 0.96909 0.0
C1391 C 0.90305 0.27193 0.01124 0.0
C1392 C 0.91032 0.28179 0.9157 0.0
C1393 C 0.9067 0.25638 0.00101 0.0
C1394 C 0.91153 0.25315 0.9479 0.0
C1395 C 0.91442 0.26071 0.84937 0.0
C1396 C 0.91365 0.27217 0.80573 0.0
C1397 C 0.91254 0.26533 0.90436 0.0
C1398 C 0.91269 0.28914 0.81836 0.0
C1399 C 0.91112 0.29394 0.8727 0.0
H1400 H 0.7227 0.67329 0.98552 0.0
H1401 H 0.69556 0.61251 0.9979 0.0
H1402 H 0.6938 0.60968 0.89801 0.0
H1403 H 0.70366 0.62435 0.80762 0.0
H1404 H 0.73182 0.68519 0.79516 0.0
H1405 H 0.72926 0.68809 0.8942 0.0
C1406 C 0.71603 0.65946 0.96632 0.0
C1407 C 0.70955 0.64313 0.99895 0.0
C1408 C 0.71545 0.65792 0.9087 0.0
C1409 C 0.70095 0.62529 0.97353 0.0
C1410 C 0.69994 0.62365 0.9164 0.0
C1411 C 0.70894 0.63825 0.82637 0.0
C1412 C 0.7182 0.65447 0.79407 0.0
C1413 C 0.70775 0.63985 0.88358 0.0
C1414 C 0.72488 0.6724 0.81914 0.0
C1415 C 0.72343 0.67411 0.87585 0.0
H1416 H 0.05809 0.29332 0.6666 0.0
H1417 H 0.08547 0.35377 0.69101 0.0
H1418 H 0.08884 0.35851 0.59166 0.0
H1419 H 0.0852 0.34559 0.49778 0.0
H1420 H 0.05794 0.28513 0.47341 0.0
H1421 H 0.05335 0.28044 0.57251 0.0
C1422 C 0.06469 0.30757 0.65038 0.0
C1423 C 0.07154 0.32316 0.68685 0.0
C1424 C 0.0667 0.31024 0.59293 0.0
C1425 C 0.08002 0.34147 0.66443 0.0
C1426 C 0.08202 0.34421 0.60741 0.0
C1427 C 0.07816 0.33135 0.51393 0.0
C1428 C 0.07199 0.31574 0.47761 0.0
C1429 C 0.07559 0.32871 0.57126 0.0
C1430 C 0.06285 0.29745 0.49989 0.0
C1431 C 0.06024 0.29473 0.55677 0.0
H1432 H 0.667 0.75174 0.65264 0.0
H1433 H 0.61078 0.72992 0.71007 0.0
H1434 H 0.60061 0.73327 0.61901 0.0
H1435 H 0.60742 0.74389 0.52511 0.0
H1436 H 0.66278 0.76477 0.46275 0.0
H1437 H 0.67346 0.76008 0.55365 0.0
C1438 C 0.6525 0.74748 0.64501 0.0
C1439 C 0.63976 0.74068 0.68865 0.0
C1440 C 0.64656 0.74941 0.59185 0.0
C1441 C 0.62099 0.73515 0.67772 0.0
C1442 C 0.61509 0.73716 0.62553 0.0
C1443 C 0.62188 0.74754 0.53121 0.0
C1444 C 0.63437 0.75508 0.48761 0.0
C1445 C 0.62777 0.74459 0.58275 0.0
C1446 C 0.65293 0.75915 0.49592 0.0
C1447 C 0.65901 0.75646 0.54783 0.0
H1448 H 0.22839 0.92347 0.69358 0.0
H1449 H 0.23467 0.98011 0.66784 0.0
H1450 H 0.24409 0.97947 0.57316 0.0
H1451 H 0.24531 0.96104 0.49402 0.0
H1452 H 0.23762 0.90373 0.51672 0.0
H1453 H 0.23418 0.90643 0.61573 0.0
C1454 C 0.23245 0.93584 0.66762 0.0
C1455 C 0.23084 0.9518 0.68743 0.0
C1456 C 0.23718 0.9351 0.61219 0.0
C1457 C 0.23587 0.96769 0.65337 0.0
C1458 C 0.24109 0.96728 0.59905 0.0
C1459 C 0.24318 0.94923 0.52067 0.0
C1460 C 0.24134 0.93211 0.49779 0.0
C1461 C 0.24094 0.95076 0.57736 0.0
C1462 C 0.23893 0.91706 0.53312 0.0
C1463 C 0.23688 0.91855 0.58984 0.0
H1464 H 0.71893 0.95472 0.12267 0.0
H1465 H 0.67314 0.937 0.23544 0.0
H1466 H 0.65192 0.93043 0.1582 0.0
H1467 H 0.64607 0.92499 0.05928 0.0
H1468 H 0.69192 0.94105 0.94718 0.0
H1469 H 0.71339 0.95304 0.02383 0.0
C1470 C 0.70435 0.94973 0.13058 0.0
C1471 C 0.69761 0.94595 0.18476 0.0
C1472 C 0.69218 0.94538 0.08607 0.0
C1473 C 0.67871 0.93985 0.19414 0.0
C1474 C 0.66653 0.93596 0.14996 0.0
C1475 C 0.66076 0.93136 0.05141 0.0
C1476 C 0.66734 0.9317 0.99763 0.0
C1477 C 0.67306 0.93789 0.09578 0.0
C1478 C 0.68643 0.94028 0.98823 0.0
C1479 C 0.69875 0.94716 0.03205 0.0
H1480 H 0.04901 0.78843 0.10794 0.0
H1481 H 0.07683 0.76787 0.22251 0.0
H1482 H 0.08792 0.75559 0.14599 0.0
H1483 H 0.09275 0.75411 0.0471 0.0
H1484 H 0.06629 0.77613 0.93234 0.0
H1485 H 0.05137 0.78412 0.00881 0.0
C1486 C 0.05731 0.78106 0.11646 0.0
C1487 C 0.06229 0.77937 0.17115 0.0
C1488 C 0.06398 0.77439 0.07222 0.0
C1489 C 0.07286 0.76953 0.18104 0.0
C1490 C 0.07928 0.76255 0.13723 0.0
C1491 C 0.08354 0.76045 0.03851 0.0
C1492 C 0.08091 0.76478 0.98384 0.0
C1493 C 0.0754 0.76544 0.08268 0.0
C1494 C 0.06868 0.77271 0.97382 0.0
C1495 C 0.06022 0.77739 0.01762 0.0
H1496 H 0.25927 0.32438 0.15121 0.0
H1497 H 0.2774 0.37617 0.24494 0.0
H1498 H 0.28215 0.39406 0.1598 0.0
H1499 H 0.27415 0.39378 0.06317 0.0
H1500 H 0.25215 0.34168 0.97102 0.0
H1501 H 0.25647 0.32507 0.05099 0.0
C1502 C 0.26459 0.33963 0.15319 0.0
C1503 C 0.26733 0.34888 0.20454 0.0
C1504 C 0.26645 0.34968 0.10435 0.0
C1505 C 0.27472 0.36867 0.2061 0.0
C1506 C 0.27742 0.37889 0.15744 0.0
C1507 C 0.27079 0.37888 0.06018 0.0
C1508 C 0.26239 0.36876 0.01222 0.0
C1509 C 0.27225 0.36938 0.1069 0.0
C1510 C 0.25848 0.34964 0.00789 0.0
C1511 C 0.26074 0.34015 0.05377 0.0
H1512 H 0.904 0.65962 0.45697 0.0
H1513 H 0.91668 0.70643 0.56883 0.0
H1514 H 0.92116 0.7275 0.49082 0.0
H1515 H 0.9182 0.73178 0.39246 0.0
H1516 H 0.9038 0.6846 0.28097 0.0
H1517 H 0.90349 0.66451 0.35785 0.0
C1518 C 0.90793 0.67447 0.46456 0.0
C1519 C 0.90971 0.68134 0.51894 0.0
C1520 C 0.91004 0.68639 0.41969 0.0
C1521 C 0.91505 0.70069 0.52758 0.0
C1522 C 0.91756 0.71274 0.48297 0.0
C1523 C 0.91511 0.71714 0.38464 0.0
C1524 C 0.91069 0.70964 0.33099 0.0
C1525 C 0.91455 0.7056 0.42905 0.0
C1526 C 0.90708 0.69072 0.3218 0.0
C1527 C 0.90685 0.67921 0.36578 0.0
H1528 H 0.35186 0.27917 0.50263 0.0
H1529 H 0.38651 0.25281 0.45507 0.0
H1530 H 0.37675 0.25136 0.35991 0.0
H1531 H 0.35687 0.25563 0.29057 0.0
H1532 H 0.32076 0.2801 0.3382 0.0
H1533 H 0.33282 0.28463 0.43222 0.0
C1534 C 0.35727 0.27314 0.47141 0.0
C1535 C 0.36974 0.26595 0.48619 0.0
C1536 C 0.35145 0.27215 0.41647 0.0
C1537 C 0.37674 0.2583 0.44509 0.0
C1538 C 0.37123 0.25752 0.39045 0.0
C1539 C 0.35199 0.26233 0.32135 0.0
C1540 C 0.33809 0.26762 0.3078 0.0
C1541 C 0.35846 0.2642 0.37571 0.0
C1542 C 0.33154 0.27596 0.34806 0.0
C1543 C 0.33833 0.27844 0.40179 0.0
H1544 H 0.72314 0.12197 0.43767 0.0
H1545 H 0.74677 0.09742 0.55402 0.0
H1546 H 0.75806 0.08501 0.47877 0.0
H1547 H 0.76383 0.08373 0.38028 0.0
H1548 H 0.74024 0.10827 0.26394 0.0
H1549 H 0.72625 0.11791 0.33896 0.0
C1550 C 0.73057 0.11373 0.44665 0.0
C1551 C 0.73432 0.11093 0.50144 0.0
C1552 C 0.73719 0.10673 0.40321 0.0
C1553 C 0.74377 0.09996 0.51224 0.0
C1554 C 0.75032 0.09289 0.46923 0.0
C1555 C 0.75552 0.09107 0.37133 0.0
C1556 C 0.75333 0.09553 0.31674 0.0
C1557 C 0.74755 0.09664 0.41461 0.0
C1558 C 0.74224 0.10473 0.30568 0.0
C1559 C 0.73426 0.11031 0.34855 0.0
H1560 H 0.95396 0.39778 0.18767 0.0
H1561 H 0.00469 0.44625 0.14936 0.0
H1562 H 0.01657 0.4451 0.24171 0.0
H1563 H 0.01059 0.43273 0.33682 0.0
H1564 H 0.95877 0.38516 0.37484 0.0
H1565 H 0.9493 0.38337 0.27892 0.0
C1566 C 0.96783 0.40773 0.19908 0.0
C1567 C 0.97856 0.42194 0.16188 0.0
C1568 C 0.97421 0.40728 0.25246 0.0
C1569 C 0.99639 0.43495 0.17709 0.0
C1570 C 0.00304 0.43442 0.23009 0.0
C1571 C 0.99736 0.42173 0.324 0.0
C1572 C 0.98532 0.4092 0.36339 0.0
C1573 C 0.99181 0.42102 0.26873 0.0
C1574 C 0.96823 0.39511 0.34578 0.0
C1575 C 0.96279 0.39407 0.29086 0.0
H1576 H 0.58375 0.62266 0.15096 0.0
H1577 H 0.57236 0.56429 0.17339 0.0
H1578 H 0.56783 0.56688 0.272 0.0
H1579 H 0.56293 0.58473 0.35012 0.0
H1580 H 0.57488 0.64317 0.32614 0.0
H1581 H 0.58373 0.64168 0.23108 0.0
C1582 C 0.58061 0.61059 0.17754 0.0
C1583 C 0.57823 0.59326 0.1544 0.0
C1584 C 0.5781 0.61219 0.23443 0.0
C1585 C 0.57431 0.57783 0.18982 0.0
C1586 C 0.57162 0.57927 0.24639 0.0
C1587 C 0.56819 0.5973 0.32467 0.0
C1588 C 0.56834 0.61408 0.3454 0.0
C1589 C 0.57297 0.59625 0.26906 0.0
C1590 C 0.57477 0.63013 0.31134 0.0
C1591 C 0.57965 0.62924 0.25669 0.0
H1592 H 0.37173 0.96313 0.32658 0.0
H1593 H 0.39673 0.02408 0.33446 0.0
H1594 H 0.39944 0.02564 0.23418 0.0
H1595 H 0.39799 0.00978 0.146 0.0
H1596 H 0.37393 0.94879 0.13922 0.0
H1597 H 0.36757 0.94722 0.23772 0.0
C1598 C 0.37756 0.97678 0.30646 0.0
C1599 C 0.38425 0.99347 0.33819 0.0
C1600 C 0.37947 0.97757 0.24909 0.0
C1601 C 0.39149 0.01101 0.31119 0.0
C1602 C 0.39319 0.01191 0.25385 0.0
C1603 C 0.39122 0.9961 0.16587 0.0
C1604 C 0.3867 0.97942 0.13523 0.0
C1605 C 0.38777 0.99529 0.22264 0.0
C1606 C 0.37766 0.96185 0.16167 0.0
C1607 C 0.37406 0.96094 0.21807 0.0
H1608 H 0.56258 0.01733 0.88625 0.0
H1609 H 0.58516 0.98193 0.81505 0.0
H1610 H 0.58668 0.99629 0.72497 0.0
H1611 H 0.57996 0.0178 0.66521 0.0
H1612 H 0.55686 0.05264 0.73738 0.0
H1613 H 0.55692 0.03944 0.82774 0.0
C1614 C 0.56819 0.01305 0.85125 0.0
C1615 C 0.57376 0.99865 0.8572 0.0
C1616 C 0.56855 0.02098 0.79936 0.0
C1617 C 0.58075 0.99302 0.81132 0.0
C1618 C 0.58151 0.00112 0.75976 0.0
C1619 C 0.57479 0.02232 0.7007 0.0
C1620 C 0.5683 0.03605 0.69455 0.0
C1621 C 0.57504 0.01481 0.75298 0.0
C1622 C 0.56193 0.04206 0.74103 0.0
C1623 C 0.56201 0.03458 0.79283 0.0
H1624 H 0.98552 0.60317 0.69559 0.0
H1625 H 0.02747 0.59836 0.59631 0.0
H1626 H 0.04779 0.60595 0.67623 0.0
H1627 H 0.05172 0.60937 0.77607 0.0
H1628 H 0.00933 0.61322 0.87588 0.0
H1629 H 0.99115 0.61076 0.79358 0.0
C1630 C 0.99925 0.60413 0.69125 0.0
C1631 C 0.00488 0.5999 0.64048 0.0
C1632 C 0.01066 0.60806 0.7375 0.0
C1633 C 0.0228 0.60153 0.63504 0.0
C1634 C 0.03436 0.60569 0.68082 0.0
C1635 C 0.03859 0.60986 0.77991 0.0
C1636 C 0.0317 0.61103 0.83221 0.0
C1637 C 0.02812 0.60822 0.7326 0.0
C1638 C 0.01484 0.61205 0.83623 0.0
C1639 C 0.00442 0.61063 0.7892 0.0
H1640 H 0.40317 0.43973 0.64144 0.0
H1641 H 0.43383 0.41424 0.7242 0.0
H1642 H 0.42332 0.4198 0.81292 0.0
H1643 H 0.40886 0.43585 0.86853 0.0
H1644 H 0.37752 0.46057 0.78587 0.0
H1645 H 0.38455 0.45111 0.6971 0.0
C1646 C 0.40723 0.43501 0.67872 0.0
C1647 C 0.41966 0.42697 0.67562 0.0
C1648 C 0.40116 0.43831 0.73043 0.0
C1649 C 0.42458 0.42084 0.72484 0.0
C1650 C 0.41858 0.424 0.77601 0.0
C1651 C 0.40319 0.43874 0.83126 0.0
C1652 C 0.39302 0.4493 0.83427 0.0
C1653 C 0.40739 0.43335 0.77958 0.0
C1654 C 0.38573 0.4528 0.78514 0.0
C1655 C 0.38975 0.44741 0.73399 0.0
loop_
_geom_bond_atom_site_label_1
_geom_bond_atom_site_label_2
_geom_bond_distance
_geom_bond_site_symmetry_2
_ccdc_geom_bond_type
Co0 O1 2.216 . S
Co0 O2 2.091 . S
Co0 O4 2.004 . S
Co0 O10 2.021 . S
Co0 O12 2.137 . S
Co0 O13 2.244 . S
O1 Co0 2.216 . S
O1 C8 1.247 . S
O2 Co0 2.091 . S
O2 C8 1.261 . S
C3 O12 1.247 . S
C3 O13 1.272 . S
O4 Co0 2.004 . S
O4 C9 1.259 . S
Co5 O6 2.061 . S
Co5 O11 2.052 . S
Co5 O13 2.135 . S
O6 Co5 2.061 . S
O6 C9 1.235 . S
C7 O10 1.238 . S
C7 O11 1.241 . S
C8 O1 1.247 . S
C8 O2 1.261 . S
C9 O4 1.259 . S
C9 O6 1.235 . S
O10 Co0 2.021 . S
O10 C7 1.238 . S
O11 Co5 2.052 . S
O11 C7 1.241 . S
O12 Co0 2.137 . S
O12 C3 1.247 . S
O13 Co0 2.244 . S
O13 C3 1.272 . S
O13 Co5 2.135 . S
Co14 O15 2.216 . S
Co14 O16 2.091 . S
Co14 O18 2.004 . S
Co14 O24 2.021 . S
Co14 O26 2.137 . S
Co14 O27 2.244 . S
O15 Co14 2.216 . S
O15 C22 1.247 . S
O16 Co14 2.091 . S
O16 C22 1.261 . S
C17 O26 1.247 . S
C17 O27 1.272 . S
O18 Co14 2.004 . S
O18 C23 1.259 . S
Co19 O20 2.061 . S
Co19 O25 2.052 . S
Co19 O27 2.135 . S
O20 Co19 2.061 . S
O20 C23 1.235 . S
C21 O24 1.238 . S
C21 O25 1.241 . S
C22 O15 1.247 . S
C22 O16 1.261 . S
C23 O18 1.259 . S
C23 O20 1.235 . S
O24 Co14 2.021 . S
O24 C21 1.238 . S
O25 Co19 2.052 . S
O25 C21 1.241 . S
O26 Co14 2.137 . S
O26 C17 1.247 . S
O27 Co14 2.244 . S
O27 C17 1.272 . S
O27 Co19 2.135 . S
Co28 O29 2.216 . S
Co28 O30 2.091 . S
Co28 O32 2.004 . S
Co28 O38 2.021 . S
Co28 O40 2.137 . S
Co28 O41 2.244 . S
O29 Co28 2.216 . S
O29 C36 1.247 . S
O30 Co28 2.091 . S
O30 C36 1.261 . S
C31 O40 1.247 . S
C31 O41 1.272 . S
O32 Co28 2.004 . S
O32 C37 1.259 . S
Co33 O34 2.061 . S
Co33 O39 2.052 . S
Co33 O41 2.135 . S
O34 Co33 2.061 . S
O34 C37 1.235 . S
C35 O38 1.238 . S
C35 O39 1.241 . S
C36 O29 1.247 . S
C36 O30 1.261 . S
C37 O32 1.259 . S
C37 O34 1.235 . S
O38 Co28 2.021 . S
O38 C35 1.238 . S
O39 Co33 2.052 . S
O39 C35 1.241 . S
O40 Co28 2.137 . S
O40 C31 1.247 . S
O41 Co28 2.244 . S
O41 C31 1.272 . S
O41 Co33 2.135 . S
Co42 O43 2.216 . S
Co42 O44 2.091 . S
Co42 O46 2.004 . S
Co42 O52 2.021 . S
Co42 O54 2.137 . S
Co42 O55 2.244 . S
O43 Co42 2.216 . S
O43 C50 1.247 . S
O44 Co42 2.091 . S
O44 C50 1.261 . S
C45 O54 1.247 . S
C45 O55 1.272 . S
O46 Co42 2.004 . S
O46 C51 1.259 . S
Co47 O48 2.061 . S
Co47 O53 2.052 . S
Co47 O55 2.135 . S
O48 Co47 2.061 . S
O48 C51 1.235 . S
C49 O52 1.238 . S
C49 O53 1.241 . S
C50 O43 1.247 . S
C50 O44 1.261 . S
C51 O46 1.259 . S
C51 O48 1.235 . S
O52 Co42 2.021 . S
O52 C49 1.238 . S
O53 Co47 2.052 . S
O53 C49 1.241 . S
O54 Co42 2.137 . S
O54 C45 1.247 . S
O55 Co42 2.244 . S
O55 C45 1.272 . S
O55 Co47 2.135 . S
Co56 O57 2.216 . S
Co56 O58 2.091 . S
Co56 O60 2.004 . S
Co56 O66 2.021 . S
Co56 O68 2.137 . S
Co56 O69 2.244 . S
O57 Co56 2.216 . S
O57 C64 1.247 . S
O58 Co56 2.091 . S
O58 C64 1.261 . S
C59 O68 1.247 . S
C59 O69 1.272 . S
O60 Co56 2.004 . S
O60 C65 1.259 . S
Co61 O62 2.061 . S
Co61 O67 2.052 . S
Co61 O69 2.135 . S
O62 Co61 2.061 . S
O62 C65 1.235 . S
C63 O66 1.238 . S
C63 O67 1.241 . S
C64 O57 1.247 . S
C64 O58 1.261 . S
C65 O60 1.259 . S
C65 O62 1.235 . S
O66 Co56 2.021 . S
O66 C63 1.238 . S
O67 Co61 2.052 . S
O67 C63 1.241 . S
O68 Co56 2.137 . S
O68 C59 1.247 . S
O69 Co56 2.244 . S
O69 C59 1.272 . S
O69 Co61 2.135 . S
Co70 O71 2.216 . S
Co70 O72 2.091 . S
Co70 O74 2.004 . S
Co70 O80 2.021 . S
Co70 O82 2.137 . S
Co70 O83 2.244 . S
O71 Co70 2.216 . S
O71 C78 1.247 . S
O72 Co70 2.091 . S
O72 C78 1.261 . S
C73 O82 1.247 . S
C73 O83 1.272 . S
O74 Co70 2.004 . S
O74 C79 1.259 . S
Co75 O76 2.061 . S
Co75 O81 2.052 . S
Co75 O83 2.135 . S
O76 Co75 2.061 . S
O76 C79 1.235 . S
C77 O80 1.238 . S
C77 O81 1.241 . S
C78 O71 1.247 . S
C78 O72 1.261 . S
C79 O74 1.259 . S
C79 O76 1.235 . S
O80 Co70 2.021 . S
O80 C77 1.238 . S
O81 Co75 2.052 . S
O81 C77 1.241 . S
O82 Co70 2.137 . S
O82 C73 1.247 . S
O83 Co70 2.244 . S
O83 C73 1.272 . S
O83 Co75 2.135 . S
Co84 O85 2.216 . S
Co84 O86 2.091 . S
Co84 O88 2.004 . S
Co84 O94 2.021 . S
Co84 O96 2.137 . S
Co84 O97 2.244 . S
O85 Co84 2.216 . S
O85 C92 1.247 . S
O86 Co84 2.091 . S
O86 C92 1.261 . S
C87 O96 1.247 . S
C87 O97 1.272 . S
O88 Co84 2.004 . S
O88 C93 1.259 . S
Co89 O90 2.061 . S
Co89 O95 2.052 . S
Co89 O97 2.135 . S
O90 Co89 2.061 . S
O90 C93 1.235 . S
C91 O94 1.238 . S
C91 O95 1.241 . S
C92 O85 1.247 . S
C92 O86 1.261 . S
C93 O88 1.259 . S
C93 O90 1.235 . S
O94 Co84 2.021 . S
O94 C91 1.238 . S
O95 Co89 2.052 . S
O95 C91 1.241 . S
O96 Co84 2.137 . S
O96 C87 1.247 . S
O97 Co84 2.244 . S
O97 C87 1.272 . S
O97 Co89 2.135 . S
Co98 O99 2.216 . S
Co98 O100 2.091 . S
Co98 O102 2.004 . S
Co98 O108 2.021 . S
Co98 O110 2.137 . S
Co98 O111 2.244 . S
O99 Co98 2.216 . S
O99 C106 1.247 . S
O100 Co98 2.091 . S
O100 C106 1.261 . S
C101 O110 1.247 . S
C101 O111 1.272 . S
O102 Co98 2.004 . S
O102 C107 1.259 . S
Co103 O104 2.061 . S
Co103 O109 2.052 . S
Co103 O111 2.135 . S
O104 Co103 2.061 . S
O104 C107 1.235 . S
C105 O108 1.238 . S
C105 O109 1.241 . S
C106 O99 1.247 . S
C106 O100 1.261 . S
C107 O102 1.259 . S
C107 O104 1.235 . S
O108 Co98 2.021 . S
O108 C105 1.238 . S
O109 Co103 2.052 . S
O109 C105 1.241 . S
O110 Co98 2.137 . S
O110 C101 1.247 . S
O111 Co98 2.244 . S
O111 C101 1.272 . S
O111 Co103 2.135 . S
Co112 O113 2.216 . S
Co112 O114 2.091 . S
Co112 O116 2.004 . S
Co112 O122 2.021 . S
Co112 O124 2.137 . S
Co112 O125 2.244 . S
O113 Co112 2.216 . S
O113 C120 1.247 . S
O114 Co112 2.091 . S
O114 C120 1.261 . S
C115 O124 1.247 . S
C115 O125 1.272 . S
O116 Co112 2.004 . S
O116 C121 1.259 . S
Co117 O118 2.061 . S
Co117 O123 2.052 . S
Co117 O125 2.135 . S
O118 Co117 2.061 . S
O118 C121 1.235 . S
C119 O122 1.238 . S
C119 O123 1.241 . S
C120 O113 1.247 . S
C120 O114 1.261 . S
C121 O116 1.259 . S
C121 O118 1.235 . S
O122 Co112 2.021 . S
O122 C119 1.238 . S
O123 Co117 2.052 . S
O123 C119 1.241 . S
O124 Co112 2.137 . S
O124 C115 1.247 . S
O125 Co112 2.244 . S
O125 C115 1.272 . S
O125 Co117 2.135 . S
Co126 O127 2.216 . S
Co126 O128 2.091 . S
Co126 O130 2.004 . S
Co126 O136 2.021 . S
Co126 O138 2.137 . S
Co126 O139 2.244 . S
O127 Co126 2.216 . S
O127 C134 1.247 . S
O128 Co126 2.091 . S
O128 C134 1.261 . S
C129 O138 1.247 . S
C129 O139 1.272 . S
O130 Co126 2.004 . S
O130 C135 1.259 . S
Co131 O132 2.061 . S
Co131 O137 2.052 . S
Co131 O139 2.135 . S
O132 Co131 2.061 . S
O132 C135 1.235 . S
C133 O136 1.238 . S
C133 O137 1.241 . S
C134 O127 1.247 . S
C134 O128 1.261 . S
C135 O130 1.259 . S
C135 O132 1.235 . S
O136 Co126 2.021 . S
O136 C133 1.238 . S
O137 Co131 2.052 . S
O137 C133 1.241 . S
O138 Co126 2.137 . S
O138 C129 1.247 . S
O139 Co126 2.244 . S
O139 C129 1.272 . S
O139 Co131 2.135 . S
Co140 O141 2.216 . S
Co140 O142 2.091 . S
Co140 O144 2.004 . S
Co140 O150 2.021 . S
Co140 O152 2.137 . S
Co140 O153 2.244 . S
O141 Co140 2.216 . S
O141 C148 1.247 . S
O142 Co140 2.091 . S
O142 C148 1.261 . S
C143 O152 1.247 . S
C143 O153 1.272 . S
O144 Co140 2.004 . S
O144 C149 1.259 . S
Co145 O146 2.061 . S
Co145 O151 2.052 . S
Co145 O153 2.135 . S
O146 Co145 2.061 . S
O146 C149 1.235 . S
C147 O150 1.238 . S
C147 O151 1.241 . S
C148 O141 1.247 . S
C148 O142 1.261 . S
C149 O144 1.259 . S
C149 O146 1.235 . S
O150 Co140 2.021 . S
O150 C147 1.238 . S
O151 Co145 2.052 . S
O151 C147 1.241 . S
O152 Co140 2.137 . S
O152 C143 1.247 . S
O153 Co140 2.244 . S
O153 C143 1.272 . S
O153 Co145 2.135 . S
Co154 O155 2.216 . S
Co154 O156 2.091 . S
Co154 O158 2.004 . S
Co154 O164 2.021 . S
Co154 O166 2.137 . S
Co154 O167 2.244 . S
O155 Co154 2.216 . S
O155 C162 1.247 . S
O156 Co154 2.091 . S
O156 C162 1.261 . S
C157 O166 1.247 . S
C157 O167 1.272 . S
O158 Co154 2.004 . S
O158 C163 1.259 . S
Co159 O160 2.061 . S
Co159 O165 2.052 . S
Co159 O167 2.135 . S
O160 Co159 2.061 . S
O160 C163 1.235 . S
C161 O164 1.238 . S
C161 O165 1.241 . S
C162 O155 1.247 . S
C162 O156 1.261 . S
C163 O158 1.259 . S
C163 O160 1.235 . S
O164 Co154 2.021 . S
O164 C161 1.238 . S
O165 Co159 2.052 . S
O165 C161 1.241 . S
O166 Co154 2.137 . S
O166 C157 1.247 . S
O167 Co154 2.244 . S
O167 C157 1.272 . S
O167 Co159 2.135 . S
Co168 O169 2.216 . S
Co168 O170 2.091 . S
Co168 O172 2.004 . S
Co168 O178 2.021 1_455 S
Co168 O180 2.137 . S
Co168 O181 2.244 1_455 S
O169 Co168 2.216 . S
O169 C176 1.247 . S
O170 Co168 2.091 . S
O170 C176 1.261 . S
C171 O180 1.247 1_655 S
C171 O181 1.272 . S
O172 Co168 2.004 . S
O172 C177 1.259 . S
Co173 O174 2.061 . S
Co173 O179 2.052 . S
Co173 O181 2.135 . S
O174 Co173 2.061 . S
O174 C177 1.235 1_655 S
C175 O178 1.238 . S
C175 O179 1.241 . S
C176 O169 1.247 . S
C176 O170 1.261 . S
C177 O172 1.259 . S
C177 O174 1.235 1_455 S
O178 Co168 2.021 1_655 S
O178 C175 1.238 . S
O179 Co173 2.052 . S
O179 C175 1.241 . S
O180 Co168 2.137 . S
O180 C171 1.247 1_455 S
O181 Co168 2.244 1_655 S
O181 C171 1.272 . S
O181 Co173 2.135 . S
Co182 O183 2.216 . S
Co182 O184 2.091 . S
Co182 O186 2.004 . S
Co182 O192 2.021 . S
Co182 O194 2.137 . S
Co182 O195 2.244 . S
O183 Co182 2.216 . S
O183 C190 1.247 . S
O184 Co182 2.091 . S
O184 C190 1.261 . S
C185 O194 1.247 . S
C185 O195 1.272 . S
O186 Co182 2.004 . S
O186 C191 1.259 . S
Co187 O188 2.061 . S
Co187 O193 2.052 . S
Co187 O195 2.135 . S
O188 Co187 2.061 . S
O188 C191 1.235 . S
C189 O192 1.238 . S
C189 O193 1.241 . S
C190 O183 1.247 . S
C190 O184 1.261 . S
C191 O186 1.259 . S
C191 O188 1.235 . S
O192 Co182 2.021 . S
O192 C189 1.238 . S
O193 Co187 2.052 . S
O193 C189 1.241 . S
O194 Co182 2.137 . S
O194 C185 1.247 . S
O195 Co182 2.244 . S
O195 C185 1.272 . S
O195 Co187 2.135 . S
Co196 O197 2.216 . S
Co196 O198 2.091 . S
Co196 O200 2.004 . S
Co196 O206 2.021 . S
Co196 O208 2.137 . S
Co196 O209 2.244 . S
O197 Co196 2.216 . S
O197 C204 1.247 . S
O198 Co196 2.091 . S
O198 C204 1.261 . S
C199 O208 1.247 . S
C199 O209 1.272 . S
O200 Co196 2.004 . S
O200 C205 1.259 . S
Co201 O202 2.100 . S
Co201 O207 2.051 . S
Co201 O209 2.145 . S
O202 Co201 2.100 . S
O202 C205 1.235 . S
C203 O206 1.238 . S
C203 O207 1.241 . S
C204 O197 1.247 . S
C204 O198 1.261 . S
C205 O200 1.259 . S
C205 O202 1.235 . S
O206 Co196 2.021 . S
O206 C203 1.238 . S
O207 Co201 2.051 . S
O207 C203 1.241 . S
O208 Co196 2.137 . S
O208 C199 1.247 . S
O209 Co196 2.244 . S
O209 C199 1.272 . S
O209 Co201 2.145 . S
Co210 O211 2.216 . S
Co210 O212 2.091 . S
Co210 O214 2.004 . S
Co210 O220 2.021 . S
Co210 O222 2.137 . S
Co210 O223 2.244 . S
O211 Co210 2.216 . S
O211 C218 1.247 . S
O212 Co210 2.091 . S
O212 C218 1.261 . S
C213 O222 1.247 . S
C213 O223 1.272 . S
O214 Co210 2.004 . S
O214 C219 1.259 . S
Co215 O216 2.061 . S
Co215 O221 2.052 . S
Co215 O223 2.135 . S
O216 Co215 2.061 . S
O216 C219 1.235 . S
C217 O220 1.238 . S
C217 O221 1.241 . S
C218 O211 1.247 . S
C218 O212 1.261 . S
C219 O214 1.259 . S
C219 O216 1.235 . S
O220 Co210 2.021 . S
O220 C217 1.238 . S
O221 Co215 2.052 . S
O221 C217 1.241 . S
O222 Co210 2.137 . S
O222 C213 1.247 . S
O223 Co210 2.244 . S
O223 C213 1.272 . S
O223 Co215 2.135 . S
Co224 O225 2.216 . S
Co224 O226 2.091 . S
Co224 O228 2.004 . S
Co224 O234 2.021 . S
Co224 O236 2.137 . S
Co224 O237 2.244 . S
O225 Co224 2.216 . S
O225 C232 1.247 . S
O226 Co224 2.091 . S
O226 C232 1.261 . S
C227 O236 1.247 . S
C227 O237 1.272 . S
O228 Co224 2.004 . S
O228 C233 1.259 . S
Co229 O230 2.061 . S
Co229 O235 2.052 . S
Co229 O237 2.135 . S
O230 Co229 2.061 . S
O230 C233 1.235 . S
C231 O234 1.238 . S
C231 O235 1.241 . S
C232 O225 1.247 . S
C232 O226 1.261 . S
C233 O228 1.259 . S
C233 O230 1.235 . S
O234 Co224 2.021 . S
O234 C231 1.238 . S
O235 Co229 2.052 . S
O235 C231 1.241 . S
O236 Co224 2.137 . S
O236 C227 1.247 . S
O237 Co224 2.244 . S
O237 C227 1.272 . S
O237 Co229 2.135 . S
Co238 O239 2.216 . S
Co238 O240 2.091 . S
Co238 O242 2.004 . S
Co238 O248 2.021 . S
Co238 O250 2.137 . S
Co238 O251 2.244 . S
O239 Co238 2.216 . S
O239 C246 1.247 . S
O240 Co238 2.091 . S
O240 C246 1.261 . S
C241 O250 1.247 . S
C241 O251 1.272 . S
O242 Co238 2.004 . S
O242 C247 1.259 . S
Co243 O244 2.061 . S
Co243 O249 2.052 . S
Co243 O251 2.135 . S
O244 Co243 2.061 . S
O244 C247 1.235 . S
C245 O248 1.238 . S
C245 O249 1.241 . S
C246 O239 1.247 . S
C246 O240 1.261 . S
C247 O242 1.259 . S
C247 O244 1.235 . S
O248 Co238 2.021 . S
O248 C245 1.238 . S
O249 Co243 2.052 . S
O249 C245 1.241 . S
O250 Co238 2.137 . S
O250 C241 1.247 . S
O251 Co238 2.244 . S
O251 C241 1.272 . S
O251 Co243 2.135 . S
Co252 O253 2.216 . S
Co252 O254 2.091 . S
Co252 O256 2.004 . S
Co252 O262 2.021 . S
Co252 O264 2.137 . S
Co252 O265 2.244 . S
O253 Co252 2.216 . S
O253 C260 1.247 . S
O254 Co252 2.091 . S
O254 C260 1.261 . S
C255 O264 1.247 . S
C255 O265 1.272 . S
O256 Co252 2.004 . S
O256 C261 1.259 . S
Co257 O258 2.061 . S
Co257 O263 2.052 . S
Co257 O265 2.135 . S
O258 Co257 2.061 . S
O258 C261 1.235 . S
C259 O262 1.238 . S
C259 O263 1.241 . S
C260 O253 1.247 . S
C260 O254 1.261 . S
C261 O256 1.259 . S
C261 O258 1.235 . S
O262 Co252 2.021 . S
O262 C259 1.238 . S
O263 Co257 2.052 . S
O263 C259 1.241 . S
O264 Co252 2.137 . S
O264 C255 1.247 . S
O265 Co252 2.244 . S
O265 C255 1.272 . S
O265 Co257 2.135 . S
Co266 O267 2.216 . S
Co266 O268 2.091 . S
Co266 O270 2.004 . S
Co266 O276 2.021 . S
Co266 O278 2.137 . S
Co266 O279 2.244 . S
O267 Co266 2.216 . S
O267 C274 1.247 . S
O268 Co266 2.091 . S
O268 C274 1.261 . S
C269 O278 1.247 . S
C269 O279 1.272 . S
O270 Co266 2.004 . S
O270 C275 1.259 . S
Co271 O272 2.061 . S
Co271 O277 2.052 . S
Co271 O279 2.135 . S
O272 Co271 2.061 . S
O272 C275 1.235 . S
C273 O276 1.238 . S
C273 O277 1.241 . S
C274 O267 1.247 . S
C274 O268 1.261 . S
C275 O270 1.259 . S
C275 O272 1.235 . S
O276 Co266 2.021 . S
O276 C273 1.238 . S
O277 Co271 2.052 . S
O277 C273 1.241 . S
O278 Co266 2.137 . S
O278 C269 1.247 . S
O279 Co266 2.244 . S
O279 C269 1.272 . S
O279 Co271 2.135 . S
Co280 O281 2.216 . S
Co280 O282 2.091 . S
Co280 O284 2.004 . S
Co280 O290 2.021 . S
Co280 O292 2.137 . S
Co280 O293 2.244 . S
O281 Co280 2.216 . S
O281 C288 1.247 . S
O282 Co280 2.091 . S
O282 C288 1.261 . S
C283 O292 1.247 . S
C283 O293 1.272 . S
O284 Co280 2.004 . S
O284 C289 1.259 . S
Co285 O286 2.061 . S
Co285 O291 2.052 . S
Co285 O293 2.135 . S
O286 Co285 2.061 . S
O286 C289 1.235 . S
C287 O290 1.238 . S
C287 O291 1.241 . S
C288 O281 1.247 . S
C288 O282 1.261 . S
C289 O284 1.259 . S
C289 O286 1.235 . S
O290 Co280 2.021 . S
O290 C287 1.238 . S
O291 Co285 2.052 . S
O291 C287 1.241 . S
O292 Co280 2.137 . S
O292 C283 1.247 . S
O293 Co280 2.244 . S
O293 C283 1.272 . S
O293 Co285 2.135 . S
Co294 O295 2.216 1_545 S
Co294 O296 2.091 . S
Co294 O298 2.004 1_554 S
Co294 O304 2.021 . S
Co294 O306 2.137 1_545 S
Co294 O307 2.244 1_544 S
O295 Co294 2.216 1_565 S
O295 C302 1.247 1_565 S
O296 Co294 2.091 . S
O296 C302 1.261 . S
C297 O306 1.247 1_556 S
C297 O307 1.272 . S
O298 Co294 2.004 1_556 S
O298 C303 1.259 . S
Co299 O300 2.061 . S
Co299 O305 2.052 . S
Co299 O307 2.135 . S
O300 Co299 2.061 . S
O300 C303 1.235 1_565 S
C301 O304 1.238 1_566 S
C301 O305 1.241 . S
C302 O295 1.247 1_545 S
C302 O296 1.261 . S
C303 O298 1.259 . S
C303 O300 1.235 1_545 S
O304 Co294 2.021 . S
O304 C301 1.238 1_544 S
O305 Co299 2.052 . S
O305 C301 1.241 . S
O306 Co294 2.137 1_565 S
O306 C297 1.247 1_554 S
O307 Co294 2.244 1_566 S
O307 C297 1.272 . S
O307 Co299 2.135 . S
Co308 O309 2.216 . S
Co308 O310 2.091 . S
Co308 O312 2.004 1_554 S
Co308 O318 2.021 . S
Co308 O320 2.137 . S
Co308 O321 2.244 1_554 S
O309 Co308 2.216 . S
O309 C316 1.247 . S
O310 Co308 2.091 . S
O310 C316 1.261 . S
C311 O320 1.247 1_556 S
C311 O321 1.272 . S
O312 Co308 2.004 1_556 S
O312 C317 1.259 . S
Co313 O314 2.061 . S
Co313 O319 2.052 . S
Co313 O321 2.135 . S
O314 Co313 2.061 . S
O314 C317 1.235 . S
C315 O318 1.238 1_556 S
C315 O319 1.241 . S
C316 O309 1.247 . S
C316 O310 1.261 . S
C317 O312 1.259 . S
C317 O314 1.235 . S
O318 Co308 2.021 . S
O318 C315 1.238 1_554 S
O319 Co313 2.052 . S
O319 C315 1.241 . S
O320 Co308 2.137 . S
O320 C311 1.247 1_554 S
O321 Co308 2.244 1_556 S
O321 C311 1.272 . S
O321 Co313 2.135 . S
Co322 O323 2.216 . S
Co322 O324 2.091 . S
Co322 O326 2.004 1_554 S
Co322 O332 2.021 . S
Co322 O334 2.137 . S
Co322 O335 2.244 1_554 S
O323 Co322 2.216 . S
O323 C330 1.247 . S
O324 Co322 2.091 . S
O324 C330 1.261 . S
C325 O334 1.247 1_556 S
C325 O335 1.272 . S
O326 Co322 2.004 1_556 S
O326 C331 1.259 . S
Co327 O328 2.061 . S
Co327 O333 2.052 . S
Co327 O335 2.135 . S
O328 Co327 2.061 . S
O328 C331 1.235 . S
C329 O332 1.238 1_556 S
C329 O333 1.241 . S
C330 O323 1.247 . S
C330 O324 1.261 . S
C331 O326 1.259 . S
C331 O328 1.235 . S
O332 Co322 2.021 . S
O332 C329 1.238 1_554 S
O333 Co327 2.052 . S
O333 C329 1.241 . S
O334 Co322 2.137 . S
O334 C325 1.247 1_554 S
O335 Co322 2.244 1_556 S
O335 C325 1.272 . S
O335 Co327 2.135 . S
Co336 O337 2.216 . S
Co336 O338 2.091 . S
Co336 O340 2.004 . S
Co336 O346 2.021 . S
Co336 O348 2.137 . S
Co336 O349 2.244 . S
O337 Co336 2.216 . S
O337 C344 1.247 . S
O338 Co336 2.091 . S
O338 C344 1.261 . S
C339 O348 1.247 . S
C339 O349 1.272 . S
O340 Co336 2.004 . S
O340 C345 1.259 . S
Co341 O342 2.061 . S
Co341 O347 2.052 . S
Co341 O349 2.135 . S
O342 Co341 2.061 . S
O342 C345 1.235 . S
C343 O346 1.238 . S
C343 O347 1.241 . S
C344 O337 1.247 . S
C344 O338 1.261 . S
C345 O340 1.259 . S
C345 O342 1.235 . S
O346 Co336 2.021 . S
O346 C343 1.238 . S
O347 Co341 2.052 . S
O347 C343 1.241 . S
O348 Co336 2.137 . S
O348 C339 1.247 . S
O349 Co336 2.244 . S
O349 C339 1.272 . S
O349 Co341 2.135 . S
Co350 O351 2.216 . S
Co350 O352 2.091 . S
Co350 O354 2.004 . S
Co350 O360 2.021 . S
Co350 O362 2.137 . S
Co350 O363 2.244 . S
O351 Co350 2.216 . S
O351 C358 1.247 . S
O352 Co350 2.091 . S
O352 C358 1.261 . S
C353 O362 1.247 . S
C353 O363 1.272 . S
O354 Co350 2.004 . S
O354 C359 1.259 . S
Co355 O356 2.061 . S
Co355 O361 2.052 . S
Co355 O363 2.135 . S
O356 Co355 2.061 . S
O356 C359 1.235 . S
C357 O360 1.238 . S
C357 O361 1.241 . S
C358 O351 1.247 . S
C358 O352 1.261 . S
C359 O354 1.259 . S
C359 O356 1.235 . S
O360 Co350 2.021 . S
O360 C357 1.238 . S
O361 Co355 2.052 . S
O361 C357 1.241 . S
O362 Co350 2.137 . S
O362 C353 1.247 . S
O363 Co350 2.244 . S
O363 C353 1.272 . S
O363 Co355 2.135 . S
Co364 O365 2.216 . S
Co364 O366 2.091 . S
Co364 O368 2.004 . S
Co364 O374 2.021 . S
Co364 O376 2.137 . S
Co364 O377 2.244 . S
O365 Co364 2.216 . S
O365 C372 1.247 . S
O366 Co364 2.091 . S
O366 C372 1.261 . S
C367 O376 1.247 . S
C367 O377 1.272 . S
O368 Co364 2.004 . S
O368 C373 1.259 . S
Co369 O370 2.061 . S
Co369 O375 2.052 . S
Co369 O377 2.135 . S
O370 Co369 2.061 . S
O370 C373 1.235 . S
C371 O374 1.238 . S
C371 O375 1.241 . S
C372 O365 1.247 . S
C372 O366 1.261 . S
C373 O368 1.259 . S
C373 O370 1.235 . S
O374 Co364 2.021 . S
O374 C371 1.238 . S
O375 Co369 2.052 . S
O375 C371 1.241 . S
O376 Co364 2.137 . S
O376 C367 1.247 . S
O377 Co364 2.244 . S
O377 C367 1.272 . S
O377 Co369 2.135 . S
Co378 O379 2.216 1_556 S
Co378 O380 2.091 1_556 S
Co378 O382 2.004 . S
Co378 O388 2.021 1_546 S
Co378 O390 2.137 . S
Co378 O391 2.244 1_545 S
O379 Co378 2.216 1_554 S
O379 C386 1.247 . S
O380 Co378 2.091 1_554 S
O380 C386 1.261 . S
C381 O390 1.247 1_565 S
C381 O391 1.272 . S
O382 Co378 2.004 . S
O382 C387 1.259 . S
Co383 O384 2.061 . S
Co383 O389 2.052 1_556 S
Co383 O391 2.135 . S
O384 Co383 2.061 . S
O384 C387 1.235 1_565 S
C385 O388 1.238 . S
C385 O389 1.241 . S
C386 O379 1.247 . S
C386 O380 1.261 . S
C387 O382 1.259 . S
C387 O384 1.235 1_545 S
O388 Co378 2.021 1_564 S
O388 C385 1.238 . S
O389 Co383 2.052 1_554 S
O389 C385 1.241 . S
O390 Co378 2.137 . S
O390 C381 1.247 1_545 S
O391 Co378 2.244 1_565 S
O391 C381 1.272 . S
O391 Co383 2.135 . S
Co392 O393 2.216 . S
Co392 O394 2.091 . S
Co392 O396 2.004 1_556 S
Co392 O402 2.021 . S
Co392 O404 2.137 . S
Co392 O405 2.244 1_556 S
O393 Co392 2.216 . S
O393 C400 1.247 . S
O394 Co392 2.091 . S
O394 C400 1.261 . S
C395 O404 1.247 1_554 S
C395 O405 1.272 . S
O396 Co392 2.004 1_554 S
O396 C401 1.259 . S
Co397 O398 2.061 . S
Co397 O403 2.052 . S
Co397 O405 2.135 . S
O398 Co397 2.061 . S
O398 C401 1.235 . S
C399 O402 1.238 1_554 S
C399 O403 1.241 . S
C400 O393 1.247 . S
C400 O394 1.261 . S
C401 O396 1.259 . S
C401 O398 1.235 . S
O402 Co392 2.021 . S
O402 C399 1.238 1_556 S
O403 Co397 2.052 . S
O403 C399 1.241 . S
O404 Co392 2.137 . S
O404 C395 1.247 1_556 S
O405 Co392 2.244 1_554 S
O405 C395 1.272 . S
O405 Co397 2.135 . S
Co406 O407 2.216 1_556 S
Co406 O408 2.091 1_556 S
Co406 O410 2.004 . S
Co406 O416 2.021 1_556 S
Co406 O418 2.137 . S
Co406 O419 2.244 . S
O407 Co406 2.216 1_554 S
O407 C414 1.247 . S
O408 Co406 2.091 1_554 S
O408 C414 1.261 . S
C409 O418 1.247 . S
C409 O419 1.272 . S
O410 Co406 2.004 . S
O410 C415 1.259 . S
Co411 O412 2.061 . S
Co411 O417 2.052 1_556 S
Co411 O419 2.135 . S
O412 Co411 2.061 . S
O412 C415 1.235 . S
C413 O416 1.238 . S
C413 O417 1.241 . S
C414 O407 1.247 . S
C414 O408 1.261 . S
C415 O410 1.259 . S
C415 O412 1.235 . S
O416 Co406 2.021 1_554 S
O416 C413 1.238 . S
O417 Co411 2.052 1_554 S
O417 C413 1.241 . S
O418 Co406 2.137 . S
O418 C409 1.247 . S
O419 Co406 2.244 . S
O419 C409 1.272 . S
O419 Co411 2.135 . S
Co420 O421 2.216 1_455 S
Co420 O422 2.091 . S
Co420 O424 2.004 . S
Co420 O430 2.021 . S
Co420 O432 2.137 1_455 S
Co420 O433 2.244 1_455 S
O421 Co420 2.216 1_655 S
O421 C428 1.247 1_655 S
O422 Co420 2.091 . S
O422 C428 1.261 . S
C423 O432 1.247 . S
C423 O433 1.272 . S
O424 Co420 2.004 . S
O424 C429 1.259 . S
Co425 O426 2.061 . S
Co425 O431 2.052 . S
Co425 O433 2.135 . S
O426 Co425 2.061 . S
O426 C429 1.235 1_655 S
C427 O430 1.238 1_655 S
C427 O431 1.241 . S
C428 O421 1.247 1_455 S
C428 O422 1.261 . S
C429 O424 1.259 . S
C429 O426 1.235 1_455 S
O430 Co420 2.021 . S
O430 C427 1.238 1_455 S
O431 Co425 2.052 . S
O431 C427 1.241 . S
O432 Co420 2.137 1_655 S
O432 C423 1.247 . S
O433 Co420 2.244 1_655 S
O433 C423 1.272 . S
O433 Co425 2.135 . S
Co434 O435 2.216 . S
Co434 O436 2.091 . S
Co434 O438 2.004 . S
Co434 O444 2.021 . S
Co434 O446 2.137 . S
Co434 O447 2.244 . S
O435 Co434 2.216 . S
O435 C442 1.247 . S
O436 Co434 2.091 . S
O436 C442 1.261 . S
C437 O446 1.247 . S
C437 O447 1.272 . S
O438 Co434 2.004 . S
O438 C443 1.259 . S
Co439 O440 2.061 . S
Co439 O445 2.052 . S
Co439 O447 2.135 . S
O440 Co439 2.061 . S
O440 C443 1.235 . S
C441 O444 1.238 . S
C441 O445 1.241 . S
C442 O435 1.247 . S
C442 O436 1.261 . S
C443 O438 1.259 . S
C443 O440 1.235 . S
O444 Co434 2.021 . S
O444 C441 1.238 . S
O445 Co439 2.052 . S
O445 C441 1.241 . S
O446 Co434 2.137 . S
O446 C437 1.247 . S
O447 Co434 2.244 . S
O447 C437 1.272 . S
O447 Co439 2.135 . S
Co448 O449 2.216 . S
Co448 O450 2.091 . S
Co448 O452 2.004 . S
Co448 O458 2.021 . S
Co448 O460 2.137 . S
Co448 O461 2.244 . S
O449 Co448 2.216 . S
O449 C456 1.247 . S
O450 Co448 2.091 . S
O450 C456 1.261 . S
C451 O460 1.247 . S
C451 O461 1.272 . S
O452 Co448 2.004 . S
O452 C457 1.259 . S
Co453 O454 2.061 . S
Co453 O459 2.052 . S
Co453 O461 2.135 . S
O454 Co453 2.061 . S
O454 C457 1.235 . S
C455 O458 1.238 . S
C455 O459 1.241 . S
C456 O449 1.247 . S
C456 O450 1.261 . S
C457 O452 1.259 . S
C457 O454 1.235 . S
O458 Co448 2.021 . S
O458 C455 1.238 . S
O459 Co453 2.052 . S
O459 C455 1.241 . S
O460 Co448 2.137 . S
O460 C451 1.247 . S
O461 Co448 2.244 . S
O461 C451 1.272 . S
O461 Co453 2.135 . S
Co462 O463 2.216 . S
Co462 O464 2.091 . S
Co462 O466 2.004 . S
Co462 O472 2.021 . S
Co462 O474 2.137 . S
Co462 O475 2.244 . S
O463 Co462 2.216 . S
O463 C470 1.247 . S
O464 Co462 2.091 . S
O464 C470 1.261 . S
C465 O474 1.247 . S
C465 O475 1.272 . S
O466 Co462 2.004 . S
O466 C471 1.259 . S
Co467 O468 2.061 . S
Co467 O473 2.052 . S
Co467 O475 2.135 . S
O468 Co467 2.061 . S
O468 C471 1.235 . S
C469 O472 1.238 . S
C469 O473 1.241 . S
C470 O463 1.247 . S
C470 O464 1.261 . S
C471 O466 1.259 . S
C471 O468 1.235 . S
O472 Co462 2.021 . S
O472 C469 1.238 . S
O473 Co467 2.052 . S
O473 C469 1.241 . S
O474 Co462 2.137 . S
O474 C465 1.247 . S
O475 Co462 2.244 . S
O475 C465 1.272 . S
O475 Co467 2.135 . S
Co476 O477 2.216 . S
Co476 O478 2.091 . S
Co476 O480 2.004 . S
Co476 O486 2.021 . S
Co476 O488 2.137 . S
Co476 O489 2.244 . S
O477 Co476 2.216 . S
O477 C484 1.247 . S
O478 Co476 2.091 . S
O478 C484 1.261 . S
C479 O488 1.247 . S
C479 O489 1.272 . S
O480 Co476 2.004 . S
O480 C485 1.259 . S
Co481 O482 2.061 . S
Co481 O487 2.052 . S
Co481 O489 2.135 . S
O482 Co481 2.061 . S
O482 C485 1.235 . S
C483 O486 1.238 . S
C483 O487 1.241 . S
C484 O477 1.247 . S
C484 O478 1.261 . S
C485 O480 1.259 . S
C485 O482 1.235 . S
O486 Co476 2.021 . S
O486 C483 1.238 . S
O487 Co481 2.052 . S
O487 C483 1.241 . S
O488 Co476 2.137 . S
O488 C479 1.247 . S
O489 Co476 2.244 . S
O489 C479 1.272 . S
O489 Co481 2.135 . S
Co490 O491 2.216 . S
Co490 O492 2.091 . S
Co490 O494 2.004 . S
Co490 O500 2.021 . S
Co490 O502 2.137 . S
Co490 O503 2.244 . S
O491 Co490 2.216 . S
O491 C498 1.247 . S
O492 Co490 2.091 . S
O492 C498 1.261 . S
C493 O502 1.247 . S
C493 O503 1.272 . S
O494 Co490 2.004 . S
O494 C499 1.259 . S
Co495 O496 2.061 . S
Co495 O501 2.052 . S
Co495 O503 2.135 . S
O496 Co495 2.061 . S
O496 C499 1.235 . S
C497 O500 1.238 . S
C497 O501 1.241 . S
C498 O491 1.247 . S
C498 O492 1.261 . S
C499 O494 1.259 . S
C499 O496 1.235 . S
O500 Co490 2.021 . S
O500 C497 1.238 . S
O501 Co495 2.052 . S
O501 C497 1.241 . S
O502 Co490 2.137 . S
O502 C493 1.247 . S
O503 Co490 2.244 . S
O503 C493 1.272 . S
O503 Co495 2.135 . S
H504 C510 0.930 . S
H505 C513 0.930 . S
H506 C514 0.930 . S
H507 C515 0.930 . S
H508 C518 0.930 . S
H509 C519 0.930 . S
C510 H504 0.930 . S
C510 C511 1.355 . S
C510 C512 1.415 . S
C511 C510 1.355 . S
C511 C513 1.419 . S
C512 C510 1.415 . S
C512 C517 1.425 . S
C512 C519 1.409 . S
C513 H505 0.930 . S
C513 C511 1.419 . S
C513 C514 1.362 . S
C514 H506 0.930 . S
C514 C513 1.362 . S
C514 C517 1.409 . S
C515 H507 0.930 . S
C515 C516 1.355 . S
C515 C517 1.415 . S
C516 C515 1.355 . S
C516 C518 1.419 . S
C517 C512 1.425 . S
C517 C514 1.409 . S
C517 C515 1.415 . S
C518 H508 0.930 . S
C518 C516 1.419 . S
C518 C519 1.362 . S
C519 H509 0.930 . S
C519 C512 1.409 . S
C519 C518 1.362 . S
H520 C526 0.930 . S
H521 C529 0.930 . S
H522 C530 0.930 . S
H523 C531 0.930 . S
H524 C534 0.930 . S
H525 C535 0.930 . S
C526 H520 0.930 . S
C526 C527 1.355 . S
C526 C528 1.415 . S
C527 C526 1.355 . S
C527 C529 1.419 . S
C528 C526 1.415 . S
C528 C533 1.425 . S
C528 C535 1.409 . S
C529 H521 0.930 . S
C529 C527 1.419 . S
C529 C530 1.362 . S
C530 H522 0.930 . S
C530 C529 1.362 . S
C530 C533 1.409 . S
C531 H523 0.930 . S
C531 C532 1.355 . S
C531 C533 1.415 . S
C532 C531 1.355 . S
C532 C534 1.419 . S
C533 C528 1.425 . S
C533 C530 1.409 . S
C533 C531 1.415 . S
C534 H524 0.930 . S
C534 C532 1.419 . S
C534 C535 1.362 . S
C535 H525 0.930 . S
C535 C528 1.409 . S
C535 C534 1.362 . S
H536 C542 0.930 . S
H537 C545 0.930 . S
H538 C546 0.930 . S
H539 C547 0.930 . S
H540 C550 0.930 . S
H541 C551 0.930 . S
C542 H536 0.930 . S
C542 C543 1.355 . S
C542 C544 1.415 . S
C543 C542 1.355 . S
C543 C545 1.419 . S
C544 C542 1.415 . S
C544 C549 1.425 . S
C544 C551 1.409 . S
C545 H537 0.930 . S
C545 C543 1.419 . S
C545 C546 1.362 . S
C546 H538 0.930 . S
C546 C545 1.362 . S
C546 C549 1.409 . S
C547 H539 0.930 . S
C547 C548 1.355 . S
C547 C549 1.415 . S
C548 C547 1.355 . S
C548 C550 1.419 . S
C549 C544 1.425 . S
C549 C546 1.409 . S
C549 C547 1.415 . S
C550 H540 0.930 . S
C550 C548 1.419 . S
C550 C551 1.362 . S
C551 H541 0.930 . S
C551 C544 1.409 . S
C551 C550 1.362 . S
H552 C558 0.930 1_556 S
H553 C561 0.938 . S
H554 C562 0.930 . S
H555 C563 0.930 . S
H556 C566 0.930 . S
H557 C567 0.930 . S
C558 H552 0.930 1_554 S
C558 C559 1.355 1_554 S
C558 C560 1.415 . S
C559 C558 1.355 1_556 S
C559 C561 1.419 1_556 S
C560 C558 1.415 . S
C560 C565 1.425 . S
C560 C567 1.409 . S
C561 H553 0.938 . S
C561 C559 1.419 1_554 S
C561 C562 1.362 . S
C562 H554 0.930 . S
C562 C561 1.362 . S
C562 C565 1.409 . S
C563 H555 0.930 . S
C563 C564 1.355 . S
C563 C565 1.415 . S
C564 C563 1.355 . S
C564 C566 1.419 . S
C565 C560 1.425 . S
C565 C562 1.409 . S
C565 C563 1.415 . S
C566 H556 0.930 . S
C566 C564 1.419 . S
C566 C567 1.362 . S
C567 H557 0.930 . S
C567 C560 1.409 . S
C567 C566 1.362 . S
H568 C574 0.930 . S
H569 C577 0.930 . S
H570 C578 0.930 . S
H571 C579 0.930 . S
H572 C582 0.930 . S
H573 C583 0.930 . S
C574 H568 0.930 . S
C574 C575 1.355 . S
C574 C576 1.415 . S
C575 C574 1.355 . S
C575 C577 1.419 . S
C576 C574 1.415 . S
C576 C581 1.425 . S
C576 C583 1.409 . S
C577 H569 0.930 . S
C577 C575 1.419 . S
C577 C578 1.362 . S
C578 H570 0.930 . S
C578 C577 1.362 . S
C578 C581 1.409 . S
C579 H571 0.930 . S
C579 C580 1.355 . S
C579 C581 1.415 1_556 S
C580 C579 1.355 . S
C580 C582 1.419 . S
C581 C576 1.425 . S
C581 C578 1.409 . S
C581 C579 1.415 1_554 S
C582 H572 0.930 . S
C582 C580 1.419 . S
C582 C583 1.362 1_556 S
C583 H573 0.930 . S
C583 C576 1.409 . S
C583 C582 1.362 1_554 S
H584 C590 0.930 . S
H585 C593 0.930 . S
H586 C594 0.930 . S
H587 C595 0.930 . S
H588 C598 0.930 1_556 S
H589 C599 0.930 . S
C590 H584 0.930 . S
C590 C591 1.355 . S
C590 C592 1.415 . S
C591 C590 1.355 . S
C591 C593 1.419 . S
C592 C590 1.415 . S
C592 C597 1.425 . S
C592 C599 1.409 . S
C593 H585 0.930 . S
C593 C591 1.419 . S
C593 C594 1.362 . S
C594 H586 0.930 . S
C594 C593 1.362 . S
C594 C597 1.409 . S
C595 H587 0.930 . S
C595 C596 1.355 1_554 S
C595 C597 1.415 . S
C596 C595 1.355 1_556 S
C596 C598 1.419 1_556 S
C597 C592 1.425 . S
C597 C594 1.409 . S
C597 C595 1.415 . S
C598 H588 0.930 1_554 S
C598 C596 1.419 1_554 S
C598 C599 1.362 . S
C599 H589 0.930 . S
C599 C592 1.409 . S
C599 C598 1.362 . S
H600 C606 0.930 . S
H601 C609 0.930 . S
H602 C610 0.930 . S
H603 C611 0.930 . S
H604 C614 0.930 . S
H605 C615 0.930 . S
C606 H600 0.930 . S
C606 C607 1.355 . S
C606 C608 1.415 . S
C607 C606 1.355 . S
C607 C609 1.419 . S
C608 C606 1.415 . S
C608 C613 1.425 . S
C608 C615 1.409 . S
C609 H601 0.930 . S
C609 C607 1.419 . S
C609 C610 1.362 . S
C610 H602 0.930 . S
C610 C609 1.362 . S
C610 C613 1.409 . S
C611 H603 0.930 . S
C611 C612 1.355 . S
C611 C613 1.415 . S
C612 C611 1.355 . S
C612 C614 1.419 . S
C613 C608 1.425 . S
C613 C610 1.409 . S
C613 C611 1.415 . S
C614 H604 0.930 . S
C614 C612 1.419 . S
C614 C615 1.362 . S
C615 H605 0.930 . S
C615 C608 1.409 . S
C615 C614 1.362 . S
H616 C622 0.930 . S
H617 C625 0.930 . S
H618 C626 0.930 . S
H619 C627 0.930 . S
H620 C630 0.930 . S
H621 C631 0.930 . S
C622 H616 0.930 . S
C622 C623 1.355 . S
C622 C624 1.415 . S
C623 C622 1.355 . S
C623 C625 1.419 . S
C624 C622 1.415 . S
C624 C629 1.425 . S
C624 C631 1.409 . S
C625 H617 0.930 . S
C625 C623 1.419 . S
C625 C626 1.362 . S
C626 H618 0.930 . S
C626 C625 1.362 . S
C626 C629 1.409 . S
C627 H619 0.930 . S
C627 C628 1.355 . S
C627 C629 1.415 . S
C628 C627 1.355 . S
C628 C630 1.419 . S
C629 C624 1.425 . S
C629 C626 1.409 . S
C629 C627 1.415 . S
C630 H620 0.930 . S
C630 C628 1.419 . S
C630 C631 1.362 . S
C631 H621 0.930 . S
C631 C624 1.409 . S
C631 C630 1.362 . S
H632 C638 0.930 . S
H633 C641 0.930 . S
H634 C642 0.930 . S
H635 C643 0.930 . S
H636 C646 0.930 . S
H637 C647 0.930 . S
C638 H632 0.930 . S
C638 C639 1.355 . S
C638 C640 1.415 . S
C639 C638 1.355 . S
C639 C641 1.419 . S
C640 C638 1.415 . S
C640 C645 1.425 . S
C640 C647 1.409 . S
C641 H633 0.930 . S
C641 C639 1.419 . S
C641 C642 1.362 . S
C642 H634 0.930 . S
C642 C641 1.362 . S
C642 C645 1.409 . S
C643 H635 0.930 . S
C643 C644 1.355 . S
C643 C645 1.415 . S
C644 C643 1.355 . S
C644 C646 1.419 . S
C645 C640 1.425 . S
C645 C642 1.409 . S
C645 C643 1.415 . S
C646 H636 0.930 . S
C646 C644 1.419 . S
C646 C647 1.362 . S
C647 H637 0.930 . S
C647 C640 1.409 . S
C647 C646 1.362 . S
H648 C654 0.930 . S
H649 C657 0.930 . S
H650 C658 0.930 . S
H651 C659 0.930 1_554 S
H652 C662 0.930 1_554 S
H653 C663 0.930 . S
C654 H648 0.930 . S
C654 C655 1.355 . S
C654 C656 1.415 . S
C655 C654 1.355 . S
C655 C657 1.419 . S
C656 C654 1.415 . S
C656 C661 1.425 . S
C656 C663 1.409 . S
C657 H649 0.930 . S
C657 C655 1.419 . S
C657 C658 1.362 . S
C658 H650 0.930 . S
C658 C657 1.362 . S
C658 C661 1.409 . S
C659 H651 0.930 1_556 S
C659 C660 1.355 1_556 S
C659 C661 1.415 . S
C660 C659 1.355 1_554 S
C660 C662 1.419 1_554 S
C661 C656 1.425 . S
C661 C658 1.409 . S
C661 C659 1.415 . S
C662 H652 0.930 1_556 S
C662 C660 1.419 1_556 S
C662 C663 1.362 . S
C663 H653 0.930 . S
C663 C656 1.409 . S
C663 C662 1.362 . S
H664 C670 0.930 . S
H665 C673 0.930 . S
H666 C674 0.930 . S
H667 C675 0.930 . S
H668 C678 0.930 . S
H669 C679 0.930 . S
C670 H664 0.930 . S
C670 C671 1.355 1_556 S
C670 C672 1.415 . S
C671 C670 1.355 1_554 S
C671 C673 1.419 . S
C672 C670 1.415 . S
C672 C677 1.425 . S
C672 C679 1.409 . S
C673 H665 0.930 . S
C673 C671 1.419 . S
C673 C674 1.362 1_554 S
C674 H666 0.930 . S
C674 C673 1.362 1_556 S
C674 C677 1.409 . S
C675 H667 0.930 . S
C675 C676 1.355 . S
C675 C677 1.415 . S
C676 C675 1.355 . S
C676 C678 1.419 . S
C677 C672 1.425 . S
C677 C674 1.409 . S
C677 C675 1.415 . S
C678 H668 0.930 . S
C678 C676 1.419 . S
C678 C679 1.362 . S
C679 H669 0.930 . S
C679 C672 1.409 . S
C679 C678 1.362 . S
H680 C686 0.930 . S
H681 C689 0.930 . S
H682 C690 0.930 . S
H683 C691 0.930 1_554 S
H684 C694 0.930 . S
H685 C695 0.930 . S
C686 H680 0.930 . S
C686 C687 1.355 . S
C686 C688 1.415 . S
C687 C686 1.355 . S
C687 C689 1.419 . S
C688 C686 1.415 . S
C688 C693 1.425 . S
C688 C695 1.409 . S
C689 H681 0.930 . S
C689 C687 1.419 . S
C689 C690 1.362 . S
C690 H682 0.930 . S
C690 C689 1.362 . S
C690 C693 1.409 . S
C691 H683 0.930 1_556 S
C691 C692 1.355 1_556 S
C691 C693 1.415 . S
C692 C691 1.355 1_554 S
C692 C694 1.419 . S
C693 C688 1.425 . S
C693 C690 1.409 . S
C693 C691 1.415 . S
C694 H684 0.930 . S
C694 C692 1.419 . S
C694 C695 1.362 1_554 S
C695 H685 0.930 . S
C695 C688 1.409 . S
C695 C694 1.362 1_556 S
H696 C702 0.930 . S
H697 C705 0.930 . S
H698 C706 0.930 . S
H699 C707 0.930 . S
H700 C710 0.930 . S
H701 C711 0.930 . S
C702 H696 0.930 . S
C702 C703 1.355 . S
C702 C704 1.415 . S
C703 C702 1.355 . S
C703 C705 1.419 . S
C704 C702 1.415 . S
C704 C709 1.425 . S
C704 C711 1.409 . S
C705 H697 0.930 . S
C705 C703 1.419 . S
C705 C706 1.362 . S
C706 H698 0.930 . S
C706 C705 1.362 . S
C706 C709 1.409 . S
C707 H699 0.930 . S
C707 C708 1.355 . S
C707 C709 1.415 . S
C708 C707 1.355 . S
C708 C710 1.419 . S
C709 C704 1.425 . S
C709 C706 1.409 . S
C709 C707 1.415 . S
C710 H700 0.930 . S
C710 C708 1.419 . S
C710 C711 1.362 . S
C711 H701 0.930 . S
C711 C704 1.409 . S
C711 C710 1.362 . S
H712 C718 0.930 . S
H713 C721 0.930 . S
H714 C722 0.930 . S
H715 C723 0.930 . S
H716 C726 0.930 . S
H717 C727 0.930 . S
C718 H712 0.930 . S
C718 C719 1.355 . S
C718 C720 1.415 . S
C719 C718 1.355 . S
C719 C721 1.419 . S
C720 C718 1.415 . S
C720 C725 1.425 . S
C720 C727 1.409 . S
C721 H713 0.930 . S
C721 C719 1.419 . S
C721 C722 1.362 . S
C722 H714 0.930 . S
C722 C721 1.362 . S
C722 C725 1.409 . S
C723 H715 0.930 . S
C723 C724 1.355 . S
C723 C725 1.415 . S
C724 C723 1.355 . S
C724 C726 1.419 . S
C725 C720 1.425 . S
C725 C722 1.409 . S
C725 C723 1.415 . S
C726 H716 0.930 . S
C726 C724 1.419 . S
C726 C727 1.362 . S
C727 H717 0.930 . S
C727 C720 1.409 . S
C727 C726 1.362 . S
H728 C734 0.930 . S
H729 C737 0.930 . S
H730 C738 0.930 . S
H731 C739 0.930 . S
H732 C742 0.930 . S
H733 C743 0.930 . S
C734 H728 0.930 . S
C734 C735 1.355 . S
C734 C736 1.415 . S
C735 C734 1.355 . S
C735 C737 1.419 . S
C736 C734 1.415 . S
C736 C741 1.425 . S
C736 C743 1.409 . S
C737 H729 0.930 . S
C737 C735 1.419 . S
C737 C738 1.362 . S
C738 H730 0.930 . S
C738 C737 1.362 . S
C738 C741 1.409 . S
C739 H731 0.930 . S
C739 C740 1.355 . S
C739 C741 1.415 . S
C740 C739 1.355 . S
C740 C742 1.419 . S
C741 C736 1.425 . S
C741 C738 1.409 . S
C741 C739 1.415 . S
C742 H732 0.930 . S
C742 C740 1.419 . S
C742 C743 1.362 . S
C743 H733 0.930 . S
C743 C736 1.409 . S
C743 C742 1.362 . S
H744 C750 0.930 . S
H745 C753 0.930 . S
H746 C754 0.930 . S
H747 C755 0.930 . S
H748 C758 0.930 . S
H749 C759 0.930 . S
C750 H744 0.930 . S
C750 C751 1.355 . S
C750 C752 1.415 . S
C751 C750 1.355 . S
C751 C753 1.419 . S
C752 C750 1.415 . S
C752 C757 1.425 . S
C752 C759 1.409 . S
C753 H745 0.930 . S
C753 C751 1.419 . S
C753 C754 1.362 . S
C754 H746 0.930 . S
C754 C753 1.362 . S
C754 C757 1.409 . S
C755 H747 0.930 . S
C755 C756 1.355 . S
C755 C757 1.415 . S
C756 C755 1.355 . S
C756 C758 1.419 . S
C757 C752 1.425 . S
C757 C754 1.409 . S
C757 C755 1.415 . S
C758 H748 0.930 . S
C758 C756 1.419 . S
C758 C759 1.362 . S
C759 H749 0.930 . S
C759 C752 1.409 . S
C759 C758 1.362 . S
H760 C766 0.930 . S
H761 C769 0.930 . S
H762 C770 0.930 . S
H763 C771 0.930 1_655 S
H764 C774 0.930 . S
H765 C775 0.930 . S
C766 H760 0.930 . S
C766 C767 1.355 . S
C766 C768 1.415 . S
C767 C766 1.355 . S
C767 C769 1.419 1_455 S
C768 C766 1.415 . S
C768 C773 1.425 . S
C768 C775 1.409 . S
C769 H761 0.930 . S
C769 C767 1.419 1_655 S
C769 C770 1.362 . S
C770 H762 0.930 . S
C770 C769 1.362 . S
C770 C773 1.409 1_655 S
C771 H763 0.930 1_455 S
C771 C772 1.355 . S
C771 C773 1.415 . S
C772 C771 1.355 . S
C772 C774 1.419 . S
C773 C768 1.425 . S
C773 C770 1.409 1_455 S
C773 C771 1.415 . S
C774 H764 0.930 . S
C774 C772 1.419 . S
C774 C775 1.362 . S
C775 H765 0.930 . S
C775 C768 1.409 . S
C775 C774 1.362 . S
H776 C782 0.930 . S
H777 C785 0.930 . S
H778 C786 0.930 . S
H779 C787 0.930 . S
H780 C790 0.930 . S
H781 C791 0.930 . S
C782 H776 0.930 . S
C782 C783 1.355 . S
C782 C784 1.415 . S
C783 C782 1.355 . S
C783 C785 1.419 . S
C784 C782 1.415 . S
C784 C789 1.425 . S
C784 C791 1.409 . S
C785 H777 0.930 . S
C785 C783 1.419 . S
C785 C786 1.362 . S
C786 H778 0.930 . S
C786 C785 1.362 . S
C786 C789 1.409 . S
C787 H779 0.930 . S
C787 C788 1.355 . S
C787 C789 1.415 . S
C788 C787 1.355 . S
C788 C790 1.419 . S
C789 C784 1.425 . S
C789 C786 1.409 . S
C789 C787 1.415 . S
C790 H780 0.930 . S
C790 C788 1.419 . S
C790 C791 1.362 . S
C791 H781 0.930 . S
C791 C784 1.409 . S
C791 C790 1.362 . S
H792 C798 0.930 . S
H793 C801 0.930 . S
H794 C802 0.930 . S
H795 C803 0.930 . S
H796 C806 0.930 . S
H797 C807 0.930 . S
C798 H792 0.930 . S
C798 C799 1.355 . S
C798 C800 1.415 . S
C799 C798 1.355 . S
C799 C801 1.419 . S
C800 C798 1.415 . S
C800 C805 1.425 . S
C800 C807 1.409 . S
C801 H793 0.930 . S
C801 C799 1.419 . S
C801 C802 1.362 . S
C802 H794 0.930 . S
C802 C801 1.362 . S
C802 C805 1.409 . S
C803 H795 0.930 . S
C803 C804 1.355 . S
C803 C805 1.415 . S
C804 C803 1.355 . S
C804 C806 1.419 . S
C805 C800 1.425 . S
C805 C802 1.409 . S
C805 C803 1.415 . S
C806 H796 0.930 . S
C806 C804 1.419 . S
C806 C807 1.362 . S
C807 H797 0.930 . S
C807 C800 1.409 . S
C807 C806 1.362 . S
H808 C814 0.930 . S
H809 C817 0.930 . S
H810 C818 0.930 . S
H811 C819 0.930 . S
H812 C822 0.930 . S
H813 C823 0.930 . S
C814 H808 0.930 . S
C814 C815 1.355 . S
C814 C816 1.415 . S
C815 C814 1.355 . S
C815 C817 1.419 . S
C816 C814 1.415 . S
C816 C821 1.425 . S
C816 C823 1.409 . S
C817 H809 0.930 . S
C817 C815 1.419 . S
C817 C818 1.362 . S
C818 H810 0.930 . S
C818 C817 1.362 . S
C818 C821 1.409 . S
C819 H811 0.930 . S
C819 C820 1.355 . S
C819 C821 1.415 . S
C820 C819 1.355 . S
C820 C822 1.419 . S
C821 C816 1.425 . S
C821 C818 1.409 . S
C821 C819 1.415 . S
C822 H812 0.930 . S
C822 C820 1.419 . S
C822 C823 1.362 . S
C823 H813 0.930 . S
C823 C816 1.409 . S
C823 C822 1.362 . S
H824 C830 0.930 . S
H825 C833 0.930 . S
H826 C834 0.930 . S
H827 C835 0.930 . S
H828 C838 0.930 . S
H829 C839 0.930 . S
C830 H824 0.930 . S
C830 C831 1.355 . S
C830 C832 1.415 . S
C831 C830 1.355 . S
C831 C833 1.419 . S
C832 C830 1.415 . S
C832 C837 1.425 . S
C832 C839 1.409 . S
C833 H825 0.930 . S
C833 C831 1.419 . S
C833 C834 1.362 . S
C834 H826 0.930 . S
C834 C833 1.362 . S
C834 C837 1.409 . S
C835 H827 0.930 . S
C835 C836 1.355 . S
C835 C837 1.415 . S
C836 C835 1.355 . S
C836 C838 1.419 . S
C837 C832 1.425 . S
C837 C834 1.409 . S
C837 C835 1.415 . S
C838 H828 0.930 . S
C838 C836 1.419 . S
C838 C839 1.362 . S
C839 H829 0.930 . S
C839 C832 1.409 . S
C839 C838 1.362 . S
H840 C846 0.930 . S
H841 C849 0.930 . S
H842 C850 0.930 . S
H843 C851 0.930 . S
H844 C854 0.930 . S
H845 C855 0.930 . S
C846 H840 0.930 . S
C846 C847 1.355 . S
C846 C848 1.415 . S
C847 C846 1.355 . S
C847 C849 1.419 . S
C848 C846 1.415 . S
C848 C853 1.425 . S
C848 C855 1.409 . S
C849 H841 0.930 . S
C849 C847 1.419 . S
C849 C850 1.362 . S
C850 H842 0.930 . S
C850 C849 1.362 . S
C850 C853 1.409 . S
C851 H843 0.930 . S
C851 C852 1.355 . S
C851 C853 1.415 . S
C852 C851 1.355 . S
C852 C854 1.419 . S
C853 C848 1.425 . S
C853 C850 1.409 . S
C853 C851 1.415 . S
C854 H844 0.930 . S
C854 C852 1.419 . S
C854 C855 1.362 . S
C855 H845 0.930 . S
C855 C848 1.409 . S
C855 C854 1.362 . S
H856 C862 0.930 . S
H857 C865 0.930 . S
H858 C866 0.930 . S
H859 C867 0.930 . S
H860 C870 0.930 . S
H861 C871 0.930 . S
C862 H856 0.930 . S
C862 C863 1.355 . S
C862 C864 1.415 . S
C863 C862 1.355 . S
C863 C865 1.419 . S
C864 C862 1.415 . S
C864 C869 1.425 . S
C864 C871 1.409 . S
C865 H857 0.930 . S
C865 C863 1.419 . S
C865 C866 1.362 . S
C866 H858 0.930 . S
C866 C865 1.362 . S
C866 C869 1.409 . S
C867 H859 0.930 . S
C867 C868 1.355 . S
C867 C869 1.415 . S
C868 C867 1.355 . S
C868 C870 1.419 . S
C869 C864 1.425 . S
C869 C866 1.409 . S
C869 C867 1.415 . S
C870 H860 0.930 . S
C870 C868 1.419 . S
C870 C871 1.362 . S
C871 H861 0.930 . S
C871 C864 1.409 . S
C871 C870 1.362 . S
H872 C878 0.930 . S
H873 C881 0.930 . S
H874 C882 0.930 . S
H875 C883 0.930 . S
H876 C886 0.930 . S
H877 C887 0.930 . S
C878 H872 0.930 . S
C878 C879 1.355 . S
C878 C880 1.415 . S
C879 C878 1.355 . S
C879 C881 1.419 . S
C880 C878 1.415 . S
C880 C885 1.425 . S
C880 C887 1.409 . S
C881 H873 0.930 . S
C881 C879 1.419 . S
C881 C882 1.362 . S
C882 H874 0.930 . S
C882 C881 1.362 . S
C882 C885 1.409 . S
C883 H875 0.930 . S
C883 C884 1.355 . S
C883 C885 1.415 . S
C884 C883 1.355 . S
C884 C886 1.419 . S
C885 C880 1.425 . S
C885 C882 1.409 . S
C885 C883 1.415 . S
C886 H876 0.930 . S
C886 C884 1.419 . S
C886 C887 1.362 . S
C887 H877 0.930 . S
C887 C880 1.409 . S
C887 C886 1.362 . S
H888 C894 0.930 . S
H889 C897 0.930 . S
H890 C898 0.930 . S
H891 C899 0.930 . S
H892 C902 0.930 . S
H893 C903 0.930 . S
C894 H888 0.930 . S
C894 C895 1.355 . S
C894 C896 1.415 . S
C895 C894 1.355 . S
C895 C897 1.419 . S
C896 C894 1.415 . S
C896 C901 1.425 . S
C896 C903 1.409 . S
C897 H889 0.930 . S
C897 C895 1.419 . S
C897 C898 1.362 . S
C898 H890 0.930 . S
C898 C897 1.362 . S
C898 C901 1.409 . S
C899 H891 0.930 . S
C899 C900 1.355 . S
C899 C901 1.415 . S
C900 C899 1.355 . S
C900 C902 1.419 . S
C901 C896 1.425 . S
C901 C898 1.409 . S
C901 C899 1.415 . S
C902 H892 0.930 . S
C902 C900 1.419 . S
C902 C903 1.362 . S
C903 H893 0.930 . S
C903 C896 1.409 . S
C903 C902 1.362 . S
H904 C910 0.930 . S
H905 C913 0.930 . S
H906 C914 0.930 . S
H907 C915 0.930 . S
H908 C918 0.930 . S
H909 C919 0.930 . S
C910 H904 0.930 . S
C910 C911 1.355 . S
C910 C912 1.415 . S
C911 C910 1.355 . S
C911 C913 1.419 . S
C912 C910 1.415 . S
C912 C917 1.425 . S
C912 C919 1.409 . S
C913 H905 0.930 . S
C913 C911 1.419 . S
C913 C914 1.362 . S
C914 H906 0.930 . S
C914 C913 1.362 . S
C914 C917 1.409 . S
C915 H907 0.930 . S
C915 C916 1.355 . S
C915 C917 1.415 . S
C916 C915 1.355 . S
C916 C918 1.419 . S
C917 C912 1.425 . S
C917 C914 1.409 . S
C917 C915 1.415 . S
C918 H908 0.930 . S
C918 C916 1.419 . S
C918 C919 1.362 . S
C919 H909 0.930 . S
C919 C912 1.409 . S
C919 C918 1.362 . S
H920 C926 0.930 . S
H921 C929 0.930 . S
H922 C930 0.930 . S
H923 C931 0.930 . S
H924 C934 0.930 . S
H925 C935 0.930 . S
C926 H920 0.930 . S
C926 C927 1.355 . S
C926 C928 1.415 . S
C927 C926 1.355 . S
C927 C929 1.419 . S
C928 C926 1.415 . S
C928 C933 1.425 . S
C928 C935 1.409 . S
C929 H921 0.930 . S
C929 C927 1.419 . S
C929 C930 1.362 . S
C930 H922 0.930 . S
C930 C929 1.362 . S
C930 C933 1.409 . S
C931 H923 0.930 . S
C931 C932 1.355 . S
C931 C933 1.415 . S
C932 C931 1.355 . S
C932 C934 1.419 . S
C933 C928 1.425 . S
C933 C930 1.409 . S
C933 C931 1.415 . S
C934 H924 0.930 . S
C934 C932 1.419 . S
C934 C935 1.362 . S
C935 H925 0.930 . S
C935 C928 1.409 . S
C935 C934 1.362 . S
H936 C942 0.930 . S
H937 C945 0.930 . S
H938 C946 0.930 . S
H939 C947 0.930 . S
H940 C950 0.930 . S
H941 C951 0.930 . S
C942 H936 0.930 . S
C942 C943 1.355 . S
C942 C944 1.415 . S
C943 C942 1.355 . S
C943 C945 1.419 . S
C944 C942 1.415 . S
C944 C949 1.425 . S
C944 C951 1.409 . S
C945 H937 0.930 . S
C945 C943 1.419 . S
C945 C946 1.362 . S
C946 H938 0.930 . S
C946 C945 1.362 . S
C946 C949 1.409 . S
C947 H939 0.930 . S
C947 C948 1.355 . S
C947 C949 1.415 . S
C948 C947 1.355 . S
C948 C950 1.419 . S
C949 C944 1.425 . S
C949 C946 1.409 . S
C949 C947 1.415 . S
C950 H940 0.930 . S
C950 C948 1.419 . S
C950 C951 1.362 . S
C951 H941 0.930 . S
C951 C944 1.409 . S
C951 C950 1.362 . S
H952 C958 0.930 . S
H953 C961 0.930 . S
H954 C962 0.930 . S
H955 C963 0.930 . S
H956 C966 0.930 . S
H957 C967 0.930 . S
C958 H952 0.930 . S
C958 C959 1.355 . S
C958 C960 1.415 . S
C959 C958 1.355 . S
C959 C961 1.419 . S
C960 C958 1.415 . S
C960 C965 1.425 . S
C960 C967 1.409 . S
C961 H953 0.930 . S
C961 C959 1.419 . S
C961 C962 1.362 . S
C962 H954 0.930 . S
C962 C961 1.362 . S
C962 C965 1.409 . S
C963 H955 0.930 . S
C963 C964 1.355 . S
C963 C965 1.415 . S
C964 C963 1.355 . S
C964 C966 1.419 . S
C965 C960 1.425 . S
C965 C962 1.409 . S
C965 C963 1.415 . S
C966 H956 0.930 . S
C966 C964 1.419 . S
C966 C967 1.362 . S
C967 H957 0.930 . S
C967 C960 1.409 . S
C967 C966 1.362 . S
H968 C974 0.930 . S
H969 C977 0.930 . S
H970 C978 0.930 . S
H971 C979 0.930 . S
H972 C982 0.930 . S
H973 C983 0.930 . S
C974 H968 0.930 . S
C974 C975 1.355 . S
C974 C976 1.415 . S
C975 C974 1.355 . S
C975 C977 1.419 . S
C976 C974 1.415 . S
C976 C981 1.425 . S
C976 C983 1.409 . S
C977 H969 0.930 . S
C977 C975 1.419 . S
C977 C978 1.362 . S
C978 H970 0.930 . S
C978 C977 1.362 . S
C978 C981 1.409 . S
C979 H971 0.930 . S
C979 C980 1.355 . S
C979 C981 1.415 . S
C980 C979 1.355 . S
C980 C982 1.419 . S
C981 C976 1.425 . S
C981 C978 1.409 . S
C981 C979 1.415 . S
C982 H972 0.930 . S
C982 C980 1.419 . S
C982 C983 1.362 . S
C983 H973 0.930 . S
C983 C976 1.409 . S
C983 C982 1.362 . S
H984 C990 0.930 . S
H985 C993 0.930 . S
H986 C994 0.930 . S
H987 C995 0.930 . S
H988 C998 0.930 . S
H989 C999 0.930 . S
C990 H984 0.930 . S
C990 C991 1.355 . S
C990 C992 1.415 . S
C991 C990 1.355 . S
C991 C993 1.419 1_455 S
C992 C990 1.415 . S
C992 C997 1.425 1_455 S
C992 C999 1.409 . S
C993 H985 0.930 . S
C993 C991 1.419 1_655 S
C993 C994 1.362 . S
C994 H986 0.930 . S
C994 C993 1.362 . S
C994 C997 1.409 . S
C995 H987 0.930 . S
C995 C996 1.355 . S
C995 C997 1.415 . S
C996 C995 1.355 . S
C996 C998 1.419 1_655 S
C997 C992 1.425 1_655 S
C997 C994 1.409 . S
C997 C995 1.415 . S
C998 H988 0.930 . S
C998 C996 1.419 1_455 S
C998 C999 1.362 . S
C999 H989 0.930 . S
C999 C992 1.409 . S
C999 C998 1.362 . S
H1000 C1006 0.930 . S
H1001 C1009 0.930 . S
H1002 C1010 0.930 . S
H1003 C1011 0.930 . S
H1004 C1014 0.930 . S
H1005 C1015 0.930 . S
C1006 H1000 0.930 . S
C1006 C1007 1.355 . S
C1006 C1008 1.415 . S
C1007 C1006 1.355 . S
C1007 C1009 1.419 . S
C1008 C1006 1.415 . S
C1008 C1013 1.425 . S
C1008 C1015 1.409 . S
C1009 H1001 0.930 . S
C1009 C1007 1.419 . S
C1009 C1010 1.362 . S
C1010 H1002 0.930 . S
C1010 C1009 1.362 . S
C1010 C1013 1.409 . S
C1011 H1003 0.930 . S
C1011 C1012 1.355 . S
C1011 C1013 1.415 . S
C1012 C1011 1.355 . S
C1012 C1014 1.419 . S
C1013 C1008 1.425 . S
C1013 C1010 1.409 . S
C1013 C1011 1.415 . S
C1014 H1004 0.930 . S
C1014 C1012 1.419 . S
C1014 C1015 1.362 . S
C1015 H1005 0.930 . S
C1015 C1008 1.409 . S
C1015 C1014 1.362 . S
H1016 C1022 0.930 . S
H1017 C1025 0.930 . S
H1018 C1026 0.930 . S
H1019 C1027 0.930 . S
H1020 C1030 0.930 . S
H1021 C1031 0.930 . S
C1022 H1016 0.930 . S
C1022 C1023 1.355 . S
C1022 C1024 1.415 1_545 S
C1023 C1022 1.355 . S
C1023 C1025 1.419 . S
C1024 C1022 1.415 1_565 S
C1024 C1029 1.425 1_565 S
C1024 C1031 1.409 . S
C1025 H1017 0.930 . S
C1025 C1023 1.419 . S
C1025 C1026 1.362 . S
C1026 H1018 0.930 . S
C1026 C1025 1.362 . S
C1026 C1029 1.409 . S
C1027 H1019 0.930 . S
C1027 C1028 1.355 . S
C1027 C1029 1.415 1_565 S
C1028 C1027 1.355 . S
C1028 C1030 1.419 . S
C1029 C1024 1.425 1_545 S
C1029 C1026 1.409 . S
C1029 C1027 1.415 1_545 S
C1030 H1020 0.930 . S
C1030 C1028 1.419 . S
C1030 C1031 1.362 . S
C1031 H1021 0.930 . S
C1031 C1024 1.409 . S
C1031 C1030 1.362 . S
H1032 C1038 0.930 . S
H1033 C1041 0.950 . S
H1034 C1042 0.930 . S
H1035 C1043 0.930 . S
H1036 C1046 0.930 . S
H1037 C1047 0.930 1_545 S
C1038 H1032 0.930 . S
C1038 C1039 1.355 . S
C1038 C1040 1.383 1_545 S
C1039 C1038 1.355 . S
C1039 C1041 1.434 1_556 S
C1040 C1038 1.383 1_565 S
C1040 C1045 1.441 1_556 S
C1040 C1047 1.429 . S
C1041 H1033 0.950 . S
C1041 C1039 1.434 1_554 S
C1041 C1042 1.330 1_545 S
C1042 H1034 0.930 . S
C1042 C1041 1.330 1_565 S
C1042 C1045 1.409 . S
C1043 H1035 0.930 . S
C1043 C1044 1.343 1_554 S
C1043 C1045 1.415 . S
C1044 C1043 1.343 1_556 S
C1044 C1046 1.435 . S
C1045 C1040 1.441 1_554 S
C1045 C1042 1.409 . S
C1045 C1043 1.415 . S
C1046 H1036 0.930 . S
C1046 C1044 1.435 . S
C1046 C1047 1.362 . S
C1047 H1037 0.930 1_565 S
C1047 C1040 1.429 . S
C1047 C1046 1.362 . S
H1048 C1054 0.930 . S
H1049 C1057 0.930 . S
H1050 C1058 0.930 . S
H1051 C1059 0.930 . S
H1052 C1062 0.930 . S
H1053 C1063 0.930 . S
C1054 H1048 0.930 . S
C1054 C1055 1.355 1_556 S
C1054 C1056 1.415 . S
C1055 C1054 1.355 1_554 S
C1055 C1057 1.419 . S
C1056 C1054 1.415 . S
C1056 C1061 1.425 1_456 S
C1056 C1063 1.409 1_455 S
C1057 H1049 0.930 . S
C1057 C1055 1.419 . S
C1057 C1058 1.362 . S
C1058 H1050 0.930 . S
C1058 C1057 1.362 . S
C1058 C1061 1.409 1_455 S
C1059 H1051 0.930 . S
C1059 C1060 1.355 1_554 S
C1059 C1061 1.415 . S
C1060 C1059 1.355 1_556 S
C1060 C1062 1.419 . S
C1061 C1056 1.425 1_654 S
C1061 C1058 1.409 1_655 S
C1061 C1059 1.415 . S
C1062 H1052 0.930 . S
C1062 C1060 1.419 . S
C1062 C1063 1.362 . S
C1063 H1053 0.930 . S
C1063 C1056 1.409 1_655 S
C1063 C1062 1.362 . S
H1064 C1070 0.930 . S
H1065 C1073 0.930 . S
H1066 C1074 0.930 . S
H1067 C1075 0.930 . S
H1068 C1078 0.930 . S
H1069 C1079 0.930 . S
C1070 H1064 0.930 . S
C1070 C1071 1.353 1_554 S
C1070 C1072 1.415 . S
C1071 C1070 1.353 1_556 S
C1071 C1073 1.422 . S
C1072 C1070 1.415 . S
C1072 C1077 1.425 1_554 S
C1072 C1079 1.409 . S
C1073 H1065 0.930 . S
C1073 C1071 1.422 . S
C1073 C1074 1.362 . S
C1074 H1066 0.930 . S
C1074 C1073 1.362 . S
C1074 C1077 1.409 . S
C1075 H1067 0.930 . S
C1075 C1076 1.355 . S
C1075 C1077 1.415 . S
C1076 C1075 1.355 . S
C1076 C1078 1.419 1_556 S
C1077 C1072 1.425 1_556 S
C1077 C1074 1.409 . S
C1077 C1075 1.415 . S
C1078 H1068 0.930 . S
C1078 C1076 1.419 1_554 S
C1078 C1079 1.362 . S
C1079 H1069 0.930 . S
C1079 C1072 1.409 . S
C1079 C1078 1.362 . S
H1080 C1086 0.930 1_556 S
H1081 C1089 0.930 . S
H1082 C1090 0.930 . S
H1083 C1091 0.930 . S
H1084 C1094 0.930 . S
H1085 C1095 0.930 1_556 S
C1086 H1080 0.930 1_554 S
C1086 C1087 1.355 . S
C1086 C1088 1.415 . S
C1087 C1086 1.355 . S
C1087 C1089 1.419 . S
C1088 C1086 1.415 . S
C1088 C1093 1.425 . S
C1088 C1095 1.409 . S
C1089 H1081 0.930 . S
C1089 C1087 1.419 . S
C1089 C1090 1.362 . S
C1090 H1082 0.930 . S
C1090 C1089 1.362 . S
C1090 C1093 1.409 . S
C1091 H1083 0.930 . S
C1091 C1092 1.355 . S
C1091 C1093 1.415 . S
C1092 C1091 1.355 . S
C1092 C1094 1.419 . S
C1093 C1088 1.425 . S
C1093 C1090 1.409 . S
C1093 C1091 1.415 . S
C1094 H1084 0.930 . S
C1094 C1092 1.419 . S
C1094 C1095 1.362 . S
C1095 H1085 0.930 1_554 S
C1095 C1088 1.409 . S
C1095 C1094 1.362 . S
H1096 C1102 0.930 . S
H1097 C1105 0.930 . S
H1098 C1106 0.930 . S
H1099 C1107 0.930 . S
H1100 C1110 0.930 . S
H1101 C1111 0.930 . S
C1102 H1096 0.930 . S
C1102 C1103 1.355 . S
C1102 C1104 1.415 . S
C1103 C1102 1.355 . S
C1103 C1105 1.419 . S
C1104 C1102 1.415 . S
C1104 C1109 1.425 . S
C1104 C1111 1.409 . S
C1105 H1097 0.930 . S
C1105 C1103 1.419 . S
C1105 C1106 1.362 . S
C1106 H1098 0.930 . S
C1106 C1105 1.362 . S
C1106 C1109 1.409 . S
C1107 H1099 0.930 . S
C1107 C1108 1.355 . S
C1107 C1109 1.415 . S
C1108 C1107 1.355 . S
C1108 C1110 1.419 . S
C1109 C1104 1.425 . S
C1109 C1106 1.409 . S
C1109 C1107 1.415 . S
C1110 H1100 0.930 . S
C1110 C1108 1.419 . S
C1110 C1111 1.362 . S
C1111 H1101 0.930 . S
C1111 C1104 1.409 . S
C1111 C1110 1.362 . S
H1112 C1118 0.930 . S
H1113 C1121 0.930 . S
H1114 C1122 0.930 . S
H1115 C1123 0.930 . S
H1116 C1126 0.930 1_556 S
H1117 C1127 0.930 . S
C1118 H1112 0.930 . S
C1118 C1119 1.355 . S
C1118 C1120 1.415 . S
C1119 C1118 1.355 . S
C1119 C1121 1.419 . S
C1120 C1118 1.415 . S
C1120 C1125 1.425 . S
C1120 C1127 1.409 . S
C1121 H1113 0.930 . S
C1121 C1119 1.419 . S
C1121 C1122 1.362 . S
C1122 H1114 0.930 . S
C1122 C1121 1.362 . S
C1122 C1125 1.409 . S
C1123 H1115 0.930 . S
C1123 C1124 1.355 . S
C1123 C1125 1.415 . S
C1124 C1123 1.355 . S
C1124 C1126 1.419 . S
C1125 C1120 1.425 . S
C1125 C1122 1.409 . S
C1125 C1123 1.415 . S
C1126 H1116 0.930 1_554 S
C1126 C1124 1.419 . S
C1126 C1127 1.362 . S
C1127 H1117 0.930 . S
C1127 C1120 1.409 . S
C1127 C1126 1.362 . S
H1128 C1134 0.930 . S
H1129 C1137 0.930 . S
H1130 C1138 0.930 . S
H1131 C1139 0.930 . S
H1132 C1142 0.930 . S
H1133 C1143 0.930 . S
C1134 H1128 0.930 . S
C1134 C1135 1.355 . S
C1134 C1136 1.415 . S
C1135 C1134 1.355 . S
C1135 C1137 1.419 . S
C1136 C1134 1.415 . S
C1136 C1141 1.425 . S
C1136 C1143 1.409 . S
C1137 H1129 0.930 . S
C1137 C1135 1.419 . S
C1137 C1138 1.362 . S
C1138 H1130 0.930 . S
C1138 C1137 1.362 . S
C1138 C1141 1.409 . S
C1139 H1131 0.930 . S
C1139 C1140 1.355 . S
C1139 C1141 1.415 . S
C1140 C1139 1.355 . S
C1140 C1142 1.419 . S
C1141 C1136 1.425 . S
C1141 C1138 1.409 . S
C1141 C1139 1.415 . S
C1142 H1132 0.930 . S
C1142 C1140 1.419 . S
C1142 C1143 1.362 . S
C1143 H1133 0.930 . S
C1143 C1136 1.409 . S
C1143 C1142 1.362 . S
H1144 C1150 0.930 . S
H1145 C1153 0.930 . S
H1146 C1154 0.930 . S
H1147 C1155 0.930 . S
H1148 C1158 0.930 . S
H1149 C1159 0.930 . S
C1150 H1144 0.930 . S
C1150 C1151 1.355 . S
C1150 C1152 1.415 . S
C1151 C1150 1.355 . S
C1151 C1153 1.419 . S
C1152 C1150 1.415 . S
C1152 C1157 1.425 . S
C1152 C1159 1.409 . S
C1153 H1145 0.930 . S
C1153 C1151 1.419 . S
C1153 C1154 1.362 . S
C1154 H1146 0.930 . S
C1154 C1153 1.362 . S
C1154 C1157 1.409 . S
C1155 H1147 0.930 . S
C1155 C1156 1.355 . S
C1155 C1157 1.415 . S
C1156 C1155 1.355 . S
C1156 C1158 1.419 . S
C1157 C1152 1.425 . S
C1157 C1154 1.409 . S
C1157 C1155 1.415 . S
C1158 H1148 0.930 . S
C1158 C1156 1.419 . S
C1158 C1159 1.362 . S
C1159 H1149 0.930 . S
C1159 C1152 1.409 . S
C1159 C1158 1.362 . S
H1160 C1166 0.930 . S
H1161 C1169 0.930 . S
H1162 C1170 0.930 . S
H1163 C1171 0.930 . S
H1164 C1174 0.930 . S
H1165 C1175 0.930 . S
C1166 H1160 0.930 . S
C1166 C1167 1.355 . S
C1166 C1168 1.415 . S
C1167 C1166 1.355 . S
C1167 C1169 1.419 . S
C1168 C1166 1.415 . S
C1168 C1173 1.425 . S
C1168 C1175 1.409 . S
C1169 H1161 0.930 . S
C1169 C1167 1.419 . S
C1169 C1170 1.362 . S
C1170 H1162 0.930 . S
C1170 C1169 1.362 . S
C1170 C1173 1.409 . S
C1171 H1163 0.930 . S
C1171 C1172 1.355 . S
C1171 C1173 1.415 . S
C1172 C1171 1.355 . S
C1172 C1174 1.419 . S
C1173 C1168 1.425 . S
C1173 C1170 1.409 . S
C1173 C1171 1.415 . S
C1174 H1164 0.930 . S
C1174 C1172 1.419 . S
C1174 C1175 1.362 . S
C1175 H1165 0.930 . S
C1175 C1168 1.409 . S
C1175 C1174 1.362 . S
H1176 C1182 0.930 . S
H1177 C1185 0.930 . S
H1178 C1186 0.930 . S
H1179 C1187 0.930 . S
H1180 C1190 0.930 . S
H1181 C1191 0.930 . S
C1182 H1176 0.930 . S
C1182 C1183 1.355 . S
C1182 C1184 1.415 . S
C1183 C1182 1.355 . S
C1183 C1185 1.419 1_556 S
C1184 C1182 1.415 . S
C1184 C1189 1.425 . S
C1184 C1191 1.409 . S
C1185 H1177 0.930 . S
C1185 C1183 1.419 1_554 S
C1185 C1186 1.362 . S
C1186 H1178 0.930 . S
C1186 C1185 1.362 . S
C1186 C1189 1.409 1_554 S
C1187 H1179 0.930 . S
C1187 C1188 1.355 . S
C1187 C1189 1.415 . S
C1188 C1187 1.355 . S
C1188 C1190 1.419 . S
C1189 C1184 1.425 . S
C1189 C1186 1.409 1_556 S
C1189 C1187 1.415 . S
C1190 H1180 0.930 . S
C1190 C1188 1.419 . S
C1190 C1191 1.362 . S
C1191 H1181 0.930 . S
C1191 C1184 1.409 . S
C1191 C1190 1.362 . S
H1192 C1198 0.930 . S
H1193 C1201 0.930 . S
H1194 C1202 0.930 . S
H1195 C1203 0.930 . S
H1196 C1206 0.930 . S
H1197 C1207 0.930 1_554 S
C1198 H1192 0.930 . S
C1198 C1199 1.355 . S
C1198 C1200 1.415 . S
C1199 C1198 1.355 . S
C1199 C1201 1.419 . S
C1200 C1198 1.415 . S
C1200 C1205 1.425 . S
C1200 C1207 1.409 . S
C1201 H1193 0.930 . S
C1201 C1199 1.419 . S
C1201 C1202 1.362 . S
C1202 H1194 0.930 . S
C1202 C1201 1.362 . S
C1202 C1205 1.409 . S
C1203 H1195 0.930 . S
C1203 C1204 1.355 . S
C1203 C1205 1.415 . S
C1204 C1203 1.355 . S
C1204 C1206 1.419 1_556 S
C1205 C1200 1.425 . S
C1205 C1202 1.409 . S
C1205 C1203 1.415 . S
C1206 H1196 0.930 . S
C1206 C1204 1.419 1_554 S
C1206 C1207 1.362 1_554 S
C1207 H1197 0.930 1_556 S
C1207 C1200 1.409 . S
C1207 C1206 1.362 1_556 S
H1208 C1214 0.930 1_554 S
H1209 C1217 0.930 . S
H1210 C1218 0.930 . S
H1211 C1219 0.930 . S
H1212 C1222 0.930 . S
H1213 C1223 0.930 1_554 S
C1214 H1208 0.930 1_556 S
C1214 C1215 1.355 . S
C1214 C1216 1.415 . S
C1215 C1214 1.355 . S
C1215 C1217 1.419 . S
C1216 C1214 1.415 . S
C1216 C1221 1.425 . S
C1216 C1223 1.409 . S
C1217 H1209 0.930 . S
C1217 C1215 1.419 . S
C1217 C1218 1.362 . S
C1218 H1210 0.930 . S
C1218 C1217 1.362 . S
C1218 C1221 1.409 . S
C1219 H1211 0.930 . S
C1219 C1220 1.355 . S
C1219 C1221 1.415 . S
C1220 C1219 1.355 . S
C1220 C1222 1.419 . S
C1221 C1216 1.425 . S
C1221 C1218 1.409 . S
C1221 C1219 1.415 . S
C1222 H1212 0.930 . S
C1222 C1220 1.419 . S
C1222 C1223 1.362 . S
C1223 H1213 0.930 1_556 S
C1223 C1216 1.409 . S
C1223 C1222 1.362 . S
H1224 C1230 0.930 . S
H1225 C1233 0.930 . S
H1226 C1234 0.930 . S
H1227 C1235 0.930 . S
H1228 C1238 0.930 . S
H1229 C1239 0.930 . S
C1230 H1224 0.930 . S
C1230 C1231 1.355 . S
C1230 C1232 1.415 . S
C1231 C1230 1.355 . S
C1231 C1233 1.419 . S
C1232 C1230 1.415 . S
C1232 C1237 1.425 . S
C1232 C1239 1.409 . S
C1233 H1225 0.930 . S
C1233 C1231 1.419 . S
C1233 C1234 1.362 . S
C1234 H1226 0.930 . S
C1234 C1233 1.362 . S
C1234 C1237 1.409 . S
C1235 H1227 0.930 . S
C1235 C1236 1.355 . S
C1235 C1237 1.415 . S
C1236 C1235 1.355 . S
C1236 C1238 1.419 . S
C1237 C1232 1.425 . S
C1237 C1234 1.409 . S
C1237 C1235 1.415 . S
C1238 H1228 0.930 . S
C1238 C1236 1.419 . S
C1238 C1239 1.362 . S
C1239 H1229 0.930 . S
C1239 C1232 1.409 . S
C1239 C1238 1.362 . S
H1240 C1246 0.930 . S
H1241 C1249 0.930 . S
H1242 C1250 0.930 . S
H1243 C1251 0.930 . S
H1244 C1254 0.930 . S
H1245 C1255 0.930 . S
C1246 H1240 0.930 . S
C1246 C1247 1.355 . S
C1246 C1248 1.415 . S
C1247 C1246 1.355 . S
C1247 C1249 1.419 . S
C1248 C1246 1.415 . S
C1248 C1253 1.425 . S
C1248 C1255 1.409 . S
C1249 H1241 0.930 . S
C1249 C1247 1.419 . S
C1249 C1250 1.362 . S
C1250 H1242 0.930 . S
C1250 C1249 1.362 . S
C1250 C1253 1.409 . S
C1251 H1243 0.930 . S
C1251 C1252 1.355 . S
C1251 C1253 1.415 . S
C1252 C1251 1.355 . S
C1252 C1254 1.419 . S
C1253 C1248 1.425 . S
C1253 C1250 1.409 . S
C1253 C1251 1.415 . S
C1254 H1244 0.930 . S
C1254 C1252 1.419 . S
C1254 C1255 1.362 . S
C1255 H1245 0.930 . S
C1255 C1248 1.409 . S
C1255 C1254 1.362 . S
H1256 C1262 0.930 . S
H1257 C1265 0.930 . S
H1258 C1266 0.930 . S
H1259 C1267 0.930 . S
H1260 C1270 0.930 . S
H1261 C1271 0.930 . S
C1262 H1256 0.930 . S
C1262 C1263 1.355 . S
C1262 C1264 1.415 . S
C1263 C1262 1.355 . S
C1263 C1265 1.419 . S
C1264 C1262 1.415 . S
C1264 C1269 1.425 . S
C1264 C1271 1.409 . S
C1265 H1257 0.930 . S
C1265 C1263 1.419 . S
C1265 C1266 1.362 . S
C1266 H1258 0.930 . S
C1266 C1265 1.362 . S
C1266 C1269 1.409 . S
C1267 H1259 0.930 . S
C1267 C1268 1.355 . S
C1267 C1269 1.415 . S
C1268 C1267 1.355 . S
C1268 C1270 1.419 . S
C1269 C1264 1.425 . S
C1269 C1266 1.409 . S
C1269 C1267 1.415 . S
C1270 H1260 0.930 . S
C1270 C1268 1.419 . S
C1270 C1271 1.362 . S
C1271 H1261 0.930 . S
C1271 C1264 1.409 . S
C1271 C1270 1.362 . S
H1272 C1278 0.930 . S
H1273 C1281 0.930 . S
H1274 C1282 0.930 . S
H1275 C1283 0.930 . S
H1276 C1286 0.930 . S
H1277 C1287 0.930 . S
C1278 H1272 0.930 . S
C1278 C1279 1.355 . S
C1278 C1280 1.415 . S
C1279 C1278 1.355 . S
C1279 C1281 1.419 . S
C1280 C1278 1.415 . S
C1280 C1285 1.425 . S
C1280 C1287 1.409 . S
C1281 H1273 0.930 . S
C1281 C1279 1.419 . S
C1281 C1282 1.362 . S
C1282 H1274 0.930 . S
C1282 C1281 1.362 . S
C1282 C1285 1.409 . S
C1283 H1275 0.930 . S
C1283 C1284 1.355 . S
C1283 C1285 1.415 . S
C1284 C1283 1.355 . S
C1284 C1286 1.419 . S
C1285 C1280 1.425 . S
C1285 C1282 1.409 . S
C1285 C1283 1.415 . S
C1286 H1276 0.930 . S
C1286 C1284 1.419 . S
C1286 C1287 1.362 . S
C1287 H1277 0.930 . S
C1287 C1280 1.409 . S
C1287 C1286 1.362 . S
H1288 C1294 0.930 . S
H1289 C1297 0.930 . S
H1290 C1298 0.930 . S
H1291 C1299 0.930 . S
H1292 C1302 0.930 . S
H1293 C1303 0.930 . S
C1294 H1288 0.930 . S
C1294 C1295 1.374 . S
C1294 C1296 1.396 1_565 S
C1295 C1294 1.374 . S
C1295 C1297 1.419 . S
C1296 C1294 1.396 1_545 S
C1296 C1301 1.425 . S
C1296 C1303 1.409 . S
C1297 H1289 0.930 . S
C1297 C1295 1.419 . S
C1297 C1298 1.362 1_565 S
C1298 H1290 0.930 . S
C1298 C1297 1.362 1_545 S
C1298 C1301 1.409 . S
C1299 H1291 0.930 . S
C1299 C1300 1.355 . S
C1299 C1301 1.415 . S
C1300 C1299 1.355 . S
C1300 C1302 1.419 . S
C1301 C1296 1.425 . S
C1301 C1298 1.409 . S
C1301 C1299 1.415 . S
C1302 H1292 0.930 . S
C1302 C1300 1.419 . S
C1302 C1303 1.362 . S
C1303 H1293 0.930 . S
C1303 C1296 1.409 . S
C1303 C1302 1.362 . S
H1304 C1310 0.930 1_655 S
H1305 C1313 0.930 . S
H1306 C1314 0.930 . S
H1307 C1315 0.930 . S
H1308 C1318 0.930 . S
H1309 C1319 0.930 . S
C1310 H1304 0.930 1_455 S
C1310 C1311 1.357 . S
C1310 C1312 1.412 1_455 S
C1311 C1310 1.357 . S
C1311 C1313 1.419 . S
C1312 C1310 1.412 1_655 S
C1312 C1317 1.425 . S
C1312 C1319 1.409 . S
C1313 H1305 0.930 . S
C1313 C1311 1.419 . S
C1313 C1314 1.362 . S
C1314 H1306 0.930 . S
C1314 C1313 1.362 . S
C1314 C1317 1.409 1_455 S
C1315 H1307 0.930 . S
C1315 C1316 1.355 . S
C1315 C1317 1.415 . S
C1316 C1315 1.355 . S
C1316 C1318 1.419 . S
C1317 C1312 1.425 . S
C1317 C1314 1.409 1_655 S
C1317 C1315 1.415 . S
C1318 H1308 0.930 . S
C1318 C1316 1.419 . S
C1318 C1319 1.362 . S
C1319 H1309 0.930 . S
C1319 C1312 1.409 . S
C1319 C1318 1.362 . S
H1320 C1326 0.930 . S
H1321 C1329 0.930 . S
H1322 C1330 0.930 . S
H1323 C1331 0.930 . S
H1324 C1334 0.930 . S
H1325 C1335 0.930 . S
C1326 H1320 0.930 . S
C1326 C1327 1.355 . S
C1326 C1328 1.415 . S
C1327 C1326 1.355 . S
C1327 C1329 1.419 . S
C1328 C1326 1.415 . S
C1328 C1333 1.425 . S
C1328 C1335 1.409 . S
C1329 H1321 0.930 . S
C1329 C1327 1.419 . S
C1329 C1330 1.362 . S
C1330 H1322 0.930 . S
C1330 C1329 1.362 . S
C1330 C1333 1.409 . S
C1331 H1323 0.930 . S
C1331 C1332 1.355 . S
C1331 C1333 1.415 . S
C1332 C1331 1.355 . S
C1332 C1334 1.419 . S
C1333 C1328 1.425 . S
C1333 C1330 1.409 . S
C1333 C1331 1.415 . S
C1334 H1324 0.930 . S
C1334 C1332 1.419 . S
C1334 C1335 1.362 . S
C1335 H1325 0.930 . S
C1335 C1328 1.409 . S
C1335 C1334 1.362 . S
H1336 C1342 0.935 . S
H1337 C1345 0.930 . S
H1338 C1346 0.930 . S
H1339 C1347 0.930 . S
H1340 C1350 0.930 . S
H1341 C1351 0.930 . S
C1342 H1336 0.935 . S
C1342 C1343 1.396 . S
C1342 C1344 1.370 1_565 S
C1343 C1342 1.396 . S
C1343 C1345 1.419 . S
C1344 C1342 1.370 1_545 S
C1344 C1349 1.425 . S
C1344 C1351 1.409 . S
C1345 H1337 0.930 . S
C1345 C1343 1.419 . S
C1345 C1346 1.362 1_565 S
C1346 H1338 0.930 . S
C1346 C1345 1.362 1_545 S
C1346 C1349 1.409 . S
C1347 H1339 0.930 . S
C1347 C1348 1.355 . S
C1347 C1349 1.415 . S
C1348 C1347 1.355 . S
C1348 C1350 1.419 . S
C1349 C1344 1.425 . S
C1349 C1346 1.409 . S
C1349 C1347 1.415 . S
C1350 H1340 0.930 . S
C1350 C1348 1.419 . S
C1350 C1351 1.362 . S
C1351 H1341 0.930 . S
C1351 C1344 1.409 . S
C1351 C1350 1.362 . S
H1352 C1358 0.930 . S
H1353 C1361 0.930 . S
H1354 C1362 0.930 . S
H1355 C1363 0.930 . S
H1356 C1366 0.930 . S
H1357 C1367 0.930 . S
C1358 H1352 0.930 . S
C1358 C1359 1.355 . S
C1358 C1360 1.415 1_455 S
C1359 C1358 1.355 . S
C1359 C1361 1.419 . S
C1360 C1358 1.415 1_655 S
C1360 C1365 1.425 . S
C1360 C1367 1.409 . S
C1361 H1353 0.930 . S
C1361 C1359 1.419 . S
C1361 C1362 1.362 1_455 S
C1362 H1354 0.930 . S
C1362 C1361 1.362 1_655 S
C1362 C1365 1.409 . S
C1363 H1355 0.930 . S
C1363 C1364 1.355 . S
C1363 C1365 1.415 . S
C1364 C1363 1.355 . S
C1364 C1366 1.419 . S
C1365 C1360 1.425 . S
C1365 C1362 1.409 . S
C1365 C1363 1.415 . S
C1366 H1356 0.930 . S
C1366 C1364 1.419 . S
C1366 C1367 1.362 . S
C1367 H1357 0.930 . S
C1367 C1360 1.409 . S
C1367 C1366 1.362 . S
H1368 C1374 0.930 . S
H1369 C1377 0.930 . S
H1370 C1378 0.930 . S
H1371 C1379 0.930 . S
H1372 C1382 0.930 . S
H1373 C1383 0.930 . S
C1374 H1368 0.930 . S
C1374 C1375 1.355 1_556 S
C1374 C1376 1.415 . S
C1375 C1374 1.355 1_554 S
C1375 C1377 1.419 1_554 S
C1376 C1374 1.415 . S
C1376 C1381 1.425 . S
C1376 C1383 1.409 . S
C1377 H1369 0.930 . S
C1377 C1375 1.419 1_556 S
C1377 C1378 1.362 . S
C1378 H1370 0.930 . S
C1378 C1377 1.362 . S
C1378 C1381 1.409 . S
C1379 H1371 0.930 . S
C1379 C1380 1.355 . S
C1379 C1381 1.415 . S
C1380 C1379 1.355 . S
C1380 C1382 1.419 . S
C1381 C1376 1.425 . S
C1381 C1378 1.409 . S
C1381 C1379 1.415 . S
C1382 H1372 0.930 . S
C1382 C1380 1.419 . S
C1382 C1383 1.362 . S
C1383 H1373 0.930 . S
C1383 C1376 1.409 . S
C1383 C1382 1.362 . S
H1384 C1390 0.930 . S
H1385 C1393 0.930 1_554 S
H1386 C1394 0.930 . S
H1387 C1395 0.930 . S
H1388 C1398 0.930 . S
H1389 C1399 0.930 . S
C1390 H1384 0.930 . S
C1390 C1391 1.355 1_556 S
C1390 C1392 1.415 . S
C1391 C1390 1.355 1_554 S
C1391 C1393 1.419 1_554 S
C1392 C1390 1.415 . S
C1392 C1397 1.425 . S
C1392 C1399 1.409 . S
C1393 H1385 0.930 1_556 S
C1393 C1391 1.419 1_556 S
C1393 C1394 1.362 . S
C1394 H1386 0.930 . S
C1394 C1393 1.362 . S
C1394 C1397 1.409 . S
C1395 H1387 0.930 . S
C1395 C1396 1.355 . S
C1395 C1397 1.415 . S
C1396 C1395 1.355 . S
C1396 C1398 1.419 . S
C1397 C1392 1.425 . S
C1397 C1394 1.409 . S
C1397 C1395 1.415 . S
C1398 H1388 0.930 . S
C1398 C1396 1.419 . S
C1398 C1399 1.362 . S
C1399 H1389 0.930 . S
C1399 C1392 1.409 . S
C1399 C1398 1.362 . S
H1400 C1406 0.930 . S
H1401 C1409 0.930 . S
H1402 C1410 0.930 . S
H1403 C1411 0.930 . S
H1404 C1414 0.930 . S
H1405 C1415 0.930 . S
C1406 H1400 0.930 . S
C1406 C1407 1.355 1_556 S
C1406 C1408 1.415 . S
C1407 C1406 1.355 1_554 S
C1407 C1409 1.419 . S
C1408 C1406 1.415 . S
C1408 C1413 1.425 . S
C1408 C1415 1.409 . S
C1409 H1401 0.930 . S
C1409 C1407 1.419 . S
C1409 C1410 1.362 1_554 S
C1410 H1402 0.930 . S
C1410 C1409 1.362 1_556 S
C1410 C1413 1.409 . S
C1411 H1403 0.930 . S
C1411 C1412 1.355 . S
C1411 C1413 1.415 . S
C1412 C1411 1.355 . S
C1412 C1414 1.419 . S
C1413 C1408 1.425 . S
C1413 C1410 1.409 . S
C1413 C1411 1.415 . S
C1414 H1404 0.930 . S
C1414 C1412 1.419 . S
C1414 C1415 1.362 . S
C1415 H1405 0.930 . S
C1415 C1408 1.409 . S
C1415 C1414 1.362 . S
H1416 C1422 0.930 . S
H1417 C1425 0.930 . S
H1418 C1426 0.930 . S
H1419 C1427 0.930 . S
H1420 C1430 0.930 . S
H1421 C1431 0.930 . S
C1422 H1416 0.930 . S
C1422 C1423 1.355 . S
C1422 C1424 1.415 . S
C1423 C1422 1.355 . S
C1423 C1425 1.419 . S
C1424 C1422 1.415 . S
C1424 C1429 1.425 . S
C1424 C1431 1.409 . S
C1425 H1417 0.930 . S
C1425 C1423 1.419 . S
C1425 C1426 1.362 . S
C1426 H1418 0.930 . S
C1426 C1425 1.362 . S
C1426 C1429 1.409 . S
C1427 H1419 0.930 . S
C1427 C1428 1.355 . S
C1427 C1429 1.415 . S
C1428 C1427 1.355 . S
C1428 C1430 1.419 . S
C1429 C1424 1.425 . S
C1429 C1426 1.409 . S
C1429 C1427 1.415 . S
C1430 H1420 0.930 . S
C1430 C1428 1.419 . S
C1430 C1431 1.362 . S
C1431 H1421 0.930 . S
C1431 C1424 1.409 . S
C1431 C1430 1.362 . S
H1432 C1438 0.930 . S
H1433 C1441 0.930 . S
H1434 C1442 0.930 . S
H1435 C1443 0.930 . S
H1436 C1446 0.930 . S
H1437 C1447 0.930 . S
C1438 H1432 0.930 . S
C1438 C1439 1.355 . S
C1438 C1440 1.415 . S
C1439 C1438 1.355 . S
C1439 C1441 1.419 . S
C1440 C1438 1.415 . S
C1440 C1445 1.425 . S
C1440 C1447 1.409 . S
C1441 H1433 0.930 . S
C1441 C1439 1.419 . S
C1441 C1442 1.362 . S
C1442 H1434 0.930 . S
C1442 C1441 1.362 . S
C1442 C1445 1.409 . S
C1443 H1435 0.930 . S
C1443 C1444 1.355 . S
C1443 C1445 1.415 . S
C1444 C1443 1.355 . S
C1444 C1446 1.419 . S
C1445 C1440 1.425 . S
C1445 C1442 1.409 . S
C1445 C1443 1.415 . S
C1446 H1436 0.930 . S
C1446 C1444 1.419 . S
C1446 C1447 1.362 . S
C1447 H1437 0.930 . S
C1447 C1440 1.409 . S
C1447 C1446 1.362 . S
H1448 C1454 0.930 . S
H1449 C1457 0.930 . S
H1450 C1458 0.930 . S
H1451 C1459 0.930 . S
H1452 C1462 0.930 . S
H1453 C1463 0.930 . S
C1454 H1448 0.930 . S
C1454 C1455 1.355 . S
C1454 C1456 1.415 . S
C1455 C1454 1.355 . S
C1455 C1457 1.419 . S
C1456 C1454 1.415 . S
C1456 C1461 1.425 . S
C1456 C1463 1.409 . S
C1457 H1449 0.930 . S
C1457 C1455 1.419 . S
C1457 C1458 1.362 . S
C1458 H1450 0.930 . S
C1458 C1457 1.362 . S
C1458 C1461 1.409 . S
C1459 H1451 0.930 . S
C1459 C1460 1.355 . S
C1459 C1461 1.415 . S
C1460 C1459 1.355 . S
C1460 C1462 1.419 . S
C1461 C1456 1.425 . S
C1461 C1458 1.409 . S
C1461 C1459 1.415 . S
C1462 H1452 0.930 . S
C1462 C1460 1.419 . S
C1462 C1463 1.362 . S
C1463 H1453 0.930 . S
C1463 C1456 1.409 . S
C1463 C1462 1.362 . S
H1464 C1470 0.930 . S
H1465 C1473 0.930 . S
H1466 C1474 0.930 . S
H1467 C1475 0.930 . S
H1468 C1478 0.930 1_556 S
H1469 C1479 0.930 . S
C1470 H1464 0.930 . S
C1470 C1471 1.355 . S
C1470 C1472 1.415 . S
C1471 C1470 1.355 . S
C1471 C1473 1.419 . S
C1472 C1470 1.415 . S
C1472 C1477 1.425 . S
C1472 C1479 1.409 . S
C1473 H1465 0.930 . S
C1473 C1471 1.419 . S
C1473 C1474 1.362 . S
C1474 H1466 0.930 . S
C1474 C1473 1.362 . S
C1474 C1477 1.409 . S
C1475 H1467 0.930 . S
C1475 C1476 1.355 1_554 S
C1475 C1477 1.415 . S
C1476 C1475 1.355 1_556 S
C1476 C1478 1.419 1_556 S
C1477 C1472 1.425 . S
C1477 C1474 1.409 . S
C1477 C1475 1.415 . S
C1478 H1468 0.930 1_554 S
C1478 C1476 1.419 1_554 S
C1478 C1479 1.362 . S
C1479 H1469 0.930 . S
C1479 C1472 1.409 . S
C1479 C1478 1.362 . S
H1480 C1486 0.930 . S
H1481 C1489 0.930 . S
H1482 C1490 0.930 . S
H1483 C1491 0.930 . S
H1484 C1494 0.930 . S
H1485 C1495 0.930 . S
C1486 H1480 0.930 . S
C1486 C1487 1.355 . S
C1486 C1488 1.415 . S
C1487 C1486 1.355 . S
C1487 C1489 1.419 . S
C1488 C1486 1.415 . S
C1488 C1493 1.425 . S
C1488 C1495 1.409 . S
C1489 H1481 0.930 . S
C1489 C1487 1.419 . S
C1489 C1490 1.362 . S
C1490 H1482 0.930 . S
C1490 C1489 1.362 . S
C1490 C1493 1.409 . S
C1491 H1483 0.930 . S
C1491 C1492 1.355 1_554 S
C1491 C1493 1.415 . S
C1492 C1491 1.355 1_556 S
C1492 C1494 1.419 . S
C1493 C1488 1.425 . S
C1493 C1490 1.409 . S
C1493 C1491 1.415 . S
C1494 H1484 0.930 . S
C1494 C1492 1.419 . S
C1494 C1495 1.362 1_556 S
C1495 H1485 0.930 . S
C1495 C1488 1.409 . S
C1495 C1494 1.362 1_554 S
H1496 C1502 0.930 . S
H1497 C1505 0.930 . S
H1498 C1506 0.930 . S
H1499 C1507 0.930 . S
H1500 C1510 0.930 . S
H1501 C1511 0.930 . S
C1502 H1496 0.930 . S
C1502 C1503 1.355 . S
C1502 C1504 1.415 . S
C1503 C1502 1.355 . S
C1503 C1505 1.419 . S
C1504 C1502 1.415 . S
C1504 C1509 1.425 . S
C1504 C1511 1.409 . S
C1505 H1497 0.930 . S
C1505 C1503 1.419 . S
C1505 C1506 1.362 . S
C1506 H1498 0.930 . S
C1506 C1505 1.362 . S
C1506 C1509 1.409 . S
C1507 H1499 0.930 . S
C1507 C1508 1.355 . S
C1507 C1509 1.415 . S
C1508 C1507 1.355 . S
C1508 C1510 1.419 1_554 S
C1509 C1504 1.425 . S
C1509 C1506 1.409 . S
C1509 C1507 1.415 . S
C1510 H1500 0.930 . S
C1510 C1508 1.419 1_556 S
C1510 C1511 1.362 1_556 S
C1511 H1501 0.930 . S
C1511 C1504 1.409 . S
C1511 C1510 1.362 1_554 S
H1512 C1518 0.930 . S
H1513 C1521 0.930 . S
H1514 C1522 0.930 . S
H1515 C1523 0.930 . S
H1516 C1526 0.930 . S
H1517 C1527 0.930 . S
C1518 H1512 0.930 . S
C1518 C1519 1.355 . S
C1518 C1520 1.415 . S
C1519 C1518 1.355 . S
C1519 C1521 1.419 . S
C1520 C1518 1.415 . S
C1520 C1525 1.425 . S
C1520 C1527 1.409 . S
C1521 H1513 0.930 . S
C1521 C1519 1.419 . S
C1521 C1522 1.362 . S
C1522 H1514 0.930 . S
C1522 C1521 1.362 . S
C1522 C1525 1.409 . S
C1523 H1515 0.930 . S
C1523 C1524 1.355 . S
C1523 C1525 1.415 . S
C1524 C1523 1.355 . S
C1524 C1526 1.419 . S
C1525 C1520 1.425 . S
C1525 C1522 1.409 . S
C1525 C1523 1.415 . S
C1526 H1516 0.930 . S
C1526 C1524 1.419 . S
C1526 C1527 1.362 . S
C1527 H1517 0.930 . S
C1527 C1520 1.409 . S
C1527 C1526 1.362 . S
H1528 C1534 0.930 . S
H1529 C1537 0.930 . S
H1530 C1538 0.930 . S
H1531 C1539 0.930 . S
H1532 C1542 0.930 . S
H1533 C1543 0.930 . S
C1534 H1528 0.930 . S
C1534 C1535 1.355 . S
C1534 C1536 1.415 . S
C1535 C1534 1.355 . S
C1535 C1537 1.419 . S
C1536 C1534 1.415 . S
C1536 C1541 1.425 . S
C1536 C1543 1.409 . S
C1537 H1529 0.930 . S
C1537 C1535 1.419 . S
C1537 C1538 1.362 . S
C1538 H1530 0.930 . S
C1538 C1537 1.362 . S
C1538 C1541 1.409 . S
C1539 H1531 0.930 . S
C1539 C1540 1.355 . S
C1539 C1541 1.415 . S
C1540 C1539 1.355 . S
C1540 C1542 1.419 . S
C1541 C1536 1.425 . S
C1541 C1538 1.409 . S
C1541 C1539 1.415 . S
C1542 H1532 0.930 . S
C1542 C1540 1.419 . S
C1542 C1543 1.362 . S
C1543 H1533 0.930 . S
C1543 C1536 1.409 . S
C1543 C1542 1.362 . S
H1544 C1550 0.930 . S
H1545 C1553 0.930 . S
H1546 C1554 0.930 . S
H1547 C1555 0.930 . S
H1548 C1558 0.930 . S
H1549 C1559 0.930 . S
C1550 H1544 0.930 . S
C1550 C1551 1.355 . S
C1550 C1552 1.415 . S
C1551 C1550 1.355 . S
C1551 C1553 1.419 . S
C1552 C1550 1.415 . S
C1552 C1557 1.425 . S
C1552 C1559 1.409 . S
C1553 H1545 0.930 . S
C1553 C1551 1.419 . S
C1553 C1554 1.362 . S
C1554 H1546 0.930 . S
C1554 C1553 1.362 . S
C1554 C1557 1.409 . S
C1555 H1547 0.930 . S
C1555 C1556 1.355 . S
C1555 C1557 1.415 . S
C1556 C1555 1.355 . S
C1556 C1558 1.419 . S
C1557 C1552 1.425 . S
C1557 C1554 1.409 . S
C1557 C1555 1.415 . S
C1558 H1548 0.930 . S
C1558 C1556 1.419 . S
C1558 C1559 1.362 . S
C1559 H1549 0.930 . S
C1559 C1552 1.409 . S
C1559 C1558 1.362 . S
H1560 C1566 0.930 . S
H1561 C1569 0.930 . S
H1562 C1570 0.930 . S
H1563 C1571 0.930 . S
H1564 C1574 0.931 . S
H1565 C1575 0.930 1_455 S
C1566 H1560 0.930 . S
C1566 C1567 1.355 . S
C1566 C1568 1.415 . S
C1567 C1566 1.355 . S
C1567 C1569 1.419 . S
C1568 C1566 1.415 . S
C1568 C1573 1.425 . S
C1568 C1575 1.409 . S
C1569 H1561 0.930 . S
C1569 C1567 1.419 . S
C1569 C1570 1.362 . S
C1570 H1562 0.930 . S
C1570 C1569 1.362 . S
C1570 C1573 1.409 . S
C1571 H1563 0.930 . S
C1571 C1572 1.355 . S
C1571 C1573 1.415 . S
C1572 C1571 1.355 . S
C1572 C1574 1.419 . S
C1573 C1568 1.425 . S
C1573 C1570 1.409 . S
C1573 C1571 1.415 . S
C1574 H1564 0.931 . S
C1574 C1572 1.419 . S
C1574 C1575 1.362 . S
C1575 H1565 0.930 1_655 S
C1575 C1568 1.409 . S
C1575 C1574 1.362 . S
H1576 C1582 0.930 . S
H1577 C1585 0.930 . S
H1578 C1586 0.930 . S
H1579 C1587 0.930 . S
H1580 C1590 0.930 . S
H1581 C1591 0.930 . S
C1582 H1576 0.930 . S
C1582 C1583 1.355 . S
C1582 C1584 1.415 . S
C1583 C1582 1.355 . S
C1583 C1585 1.419 . S
C1584 C1582 1.415 . S
C1584 C1589 1.425 . S
C1584 C1591 1.409 . S
C1585 H1577 0.930 . S
C1585 C1583 1.419 . S
C1585 C1586 1.362 . S
C1586 H1578 0.930 . S
C1586 C1585 1.362 . S
C1586 C1589 1.409 . S
C1587 H1579 0.930 . S
C1587 C1588 1.355 . S
C1587 C1589 1.415 . S
C1588 C1587 1.355 . S
C1588 C1590 1.419 . S
C1589 C1584 1.425 . S
C1589 C1586 1.409 . S
C1589 C1587 1.415 . S
C1590 H1580 0.930 . S
C1590 C1588 1.419 . S
C1590 C1591 1.362 . S
C1591 H1581 0.930 . S
C1591 C1584 1.409 . S
C1591 C1590 1.362 . S
H1592 C1598 0.930 . S
H1593 C1601 0.930 . S
H1594 C1602 0.930 . S
H1595 C1603 0.930 . S
H1596 C1606 0.930 . S
H1597 C1607 0.930 . S
C1598 H1592 0.930 . S
C1598 C1599 1.355 . S
C1598 C1600 1.415 . S
C1599 C1598 1.355 . S
C1599 C1601 1.419 . S
C1600 C1598 1.415 . S
C1600 C1605 1.425 . S
C1600 C1607 1.409 . S
C1601 H1593 0.930 . S
C1601 C1599 1.419 . S
C1601 C1602 1.362 . S
C1602 H1594 0.930 . S
C1602 C1601 1.362 . S
C1602 C1605 1.409 . S
C1603 H1595 0.930 . S
C1603 C1604 1.355 . S
C1603 C1605 1.415 . S
C1604 C1603 1.355 . S
C1604 C1606 1.419 . S
C1605 C1600 1.425 . S
C1605 C1602 1.409 . S
C1605 C1603 1.415 . S
C1606 H1596 0.930 . S
C1606 C1604 1.419 . S
C1606 C1607 1.362 . S
C1607 H1597 0.930 . S
C1607 C1600 1.409 . S
C1607 C1606 1.362 . S
H1608 C1614 0.930 . S
H1609 C1617 0.930 . S
H1610 C1618 0.930 . S
H1611 C1619 0.930 . S
H1612 C1622 0.930 . S
H1613 C1623 0.930 . S
C1614 H1608 0.930 . S
C1614 C1615 1.355 . S
C1614 C1616 1.415 . S
C1615 C1614 1.355 . S
C1615 C1617 1.419 . S
C1616 C1614 1.415 . S
C1616 C1621 1.425 . S
C1616 C1623 1.409 . S
C1617 H1609 0.930 . S
C1617 C1615 1.419 . S
C1617 C1618 1.362 . S
C1618 H1610 0.930 . S
C1618 C1617 1.362 . S
C1618 C1621 1.409 . S
C1619 H1611 0.930 . S
C1619 C1620 1.355 . S
C1619 C1621 1.415 . S
C1620 C1619 1.355 . S
C1620 C1622 1.419 . S
C1621 C1616 1.425 . S
C1621 C1618 1.409 . S
C1621 C1619 1.415 . S
C1622 H1612 0.930 . S
C1622 C1620 1.419 . S
C1622 C1623 1.362 . S
C1623 H1613 0.930 . S
C1623 C1616 1.409 . S
C1623 C1622 1.362 . S
H1624 C1630 0.930 1_655 S
H1625 C1633 0.930 . S
H1626 C1634 0.930 . S
H1627 C1635 0.930 . S
H1628 C1638 0.935 1_655 S
H1629 C1639 0.930 . S
C1630 H1624 0.930 1_455 S
C1630 C1631 1.355 . S
C1630 C1632 1.415 . S
C1631 C1630 1.355 . S
C1631 C1633 1.419 . S
C1632 C1630 1.415 . S
C1632 C1637 1.425 . S
C1632 C1639 1.409 1_455 S
C1633 H1625 0.930 . S
C1633 C1631 1.419 . S
C1633 C1634 1.362 . S
C1634 H1626 0.930 . S
C1634 C1633 1.362 . S
C1634 C1637 1.409 . S
C1635 H1627 0.930 . S
C1635 C1636 1.355 . S
C1635 C1637 1.415 . S
C1636 C1635 1.355 . S
C1636 C1638 1.413 . S
C1637 C1632 1.425 . S
C1637 C1634 1.409 . S
C1637 C1635 1.415 . S
C1638 H1628 0.935 1_455 S
C1638 C1636 1.413 . S
C1638 C1639 1.364 1_455 S
C1639 H1629 0.930 . S
C1639 C1632 1.409 1_655 S
C1639 C1638 1.364 1_655 S
H1640 C1646 0.930 . S
H1641 C1649 0.930 . S
H1642 C1650 0.930 . S
H1643 C1651 0.930 . S
H1644 C1654 0.930 . S
H1645 C1655 0.930 . S
C1646 H1640 0.930 . S
C1646 C1647 1.355 . S
C1646 C1648 1.415 . S
C1647 C1646 1.355 . S
C1647 C1649 1.419 . S
C1648 C1646 1.415 . S
C1648 C1653 1.425 . S
C1648 C1655 1.409 . S
C1649 H1641 0.930 . S
C1649 C1647 1.419 . S
C1649 C1650 1.362 . S
C1650 H1642 0.930 . S
C1650 C1649 1.362 . S
C1650 C1653 1.409 . S
C1651 H1643 0.930 . S
C1651 C1652 1.355 . S
C1651 C1653 1.415 . S
C1652 C1651 1.355 . S
C1652 C1654 1.419 . S
C1653 C1648 1.425 . S
C1653 C1650 1.409 . S
C1653 C1651 1.415 . S
C1654 H1644 0.930 . S
C1654 C1652 1.419 . S
C1654 C1655 1.362 . S
C1655 H1645 0.930 . S
C1655 C1648 1.409 . S
C1655 C1654 1.362 . S
C511 C232 1.583 . S
C516 C3 1.567 . S
C527 C241 1.439 . S
C532 C22 1.487 . S
C543 C213 1.642 . S
C548 C31 1.671 . S
C559 C367 1.698 . S
C564 C45 1.698 . S
C575 C64 1.533 . S
C580 C339 1.511 . S
C591 C73 1.449 . S
C596 C358 1.464 . S
C607 C92 1.380 . S
C612 C484 1.386 . S
C623 C498 1.327 . S
C628 C106 1.316 . S
C639 C470 1.676 . S
C644 C120 1.679 . S
C655 C134 1.368 . S
C660 C288 1.364 . S
C671 C260 1.334 . S
C676 C148 1.328 . S
C687 C162 1.331 . S
C692 C274 1.321 . S
C703 C400 1.485 . S
C708 C171 1.429 . S
C719 C190 1.410 . S
C724 C409 1.407 . S
C735 C381 1.570 . S
C740 C199 1.549 . S
C751 C456 1.287 . S
C756 C302 1.298 . S
C767 C428 1.284 . S
C772 C316 1.286 . S
C783 C330 1.297 . S
C788 C442 1.304 . S
C799 C259 1.225 . S
C804 C9 1.209 . S
C815 C273 1.471 . S
C820 C21 1.467 . S
C831 C287 2.242 . S
C836 C37 2.027 . S
C847 C51 1.280 . S
C852 C469 1.344 . S
C863 C63 2.247 . S
C868 C483 2.209 . S
C879 C79 1.413 . S
C884 C497 1.413 . S
C895 C91 1.203 . S
C900 C345 1.226 . S
C911 C357 1.472 . S
C916 C105 1.471 . S
C927 C373 1.425 . S
C932 C119 1.584 . S
C943 C219 1.192 . S
C948 C133 1.245 . S
C959 C147 2.155 . S
C964 C231 2.215 . S
C975 C161 1.467 . S
C980 C247 1.410 . S
C991 C177 1.171 . S
C996 C427 1.275 . S
C1007 C441 1.319 . S
C1012 C189 1.328 . S
C1023 C455 1.947 . S
C1028 C205 1.718 . S
C1039 C387 1.226 . S
C1044 C301 1.246 . S
C1055 C315 1.920 1_554 S
C1060 C399 1.951 1_556 S
C1071 C329 1.719 . S
C1076 C415 1.702 . S
C1087 C386 1.507 . S
C1092 C8 1.504 . S
C1103 C17 1.502 . S
C1108 C395 1.362 . S
C1119 C36 1.648 . S
C1124 C414 1.738 . S
C1135 C176 1.452 . S
C1140 C50 1.447 . S
C1151 C59 1.423 . S
C1156 C185 1.555 . S
C1167 C78 1.615 . S
C1172 C204 1.502 . S
C1183 C297 1.487 . S
C1188 C87 1.515 . S
C1199 C101 1.624 . S
C1204 C311 1.423 . S
C1215 C325 1.377 . S
C1220 C115 1.578 . S
C1231 C129 1.472 . S
C1236 C423 1.467 . S
C1247 C437 1.930 . S
C1252 C143 1.626 . S
C1263 C451 1.247 . S
C1268 C157 1.371 . S
C1279 C344 1.597 . S
C1284 C218 1.598 . S
C1295 C353 1.510 . S
C1300 C227 1.451 . S
C1311 C372 1.428 . S
C1316 C246 1.473 . S
C1327 C255 1.468 . S
C1332 C465 1.424 . S
C1343 C479 1.605 . S
C1348 C269 1.801 . S
C1359 C493 1.623 . S
C1364 C283 1.500 . S
C1375 C7 1.084 . S
C1380 C233 1.001 . S
C1391 C23 1.055 . S
C1396 C245 1.051 . S
C1407 C35 1.145 . S
C1412 C217 1.118 . S
C1423 C371 1.256 . S
C1428 C49 1.263 . S
C1439 C343 1.006 . S
C1444 C65 0.957 . S
C1455 C359 0.986 . S
C1460 C77 1.010 . S
C1471 C485 0.926 . S
C1476 C93 0.923 . S
C1487 C499 0.828 . S
C1492 C107 0.869 . S
C1503 C471 1.167 . S
C1508 C121 1.203 1_554 S
C1519 C135 0.911 . S
C1524 C289 0.933 . S
C1535 C149 0.918 . S
C1540 C261 0.936 . S
C1551 C163 0.938 . S
C1556 C275 0.900 . S
C1567 C401 0.969 . S
C1572 C175 1.076 . S
C1583 C413 1.079 . S
C1588 C191 0.970 . S
C1599 C203 1.259 . S
C1604 C385 1.204 . S
C1615 C303 0.936 . S
C1620 C457 0.925 . S
C1631 C429 0.974 . S
C1636 C317 0.981 . S
C1647 C443 0.804 . S
C1652 C331 0.816 . S
