# Generated by pormake.
# Topology msp, (4)-cn, num edge types: 1
# Building blocks:
#     Node 0, Type 0, BuildingBlock: ICAMEG_clean_sbu_1, # of connection points: 4
#     Node 1, Type 0, BuildingBlock: ICAMEG_clean_sbu_1, # of connection points: 4
#     Node 2, Type 0, BuildingBlock: ICAMEG_clean_sbu_1, # of connection points: 4
#     Node 3, Type 0, BuildingBlock: ICAMEG_clean_sbu_1, # of connection points: 4
#     Node 4, Type 0, BuildingBlock: ICAMEG_clean_sbu_1, # of connection points: 4
#     Node 5, Type 0, BuildingBlock: ICAMEG_clean_sbu_1, # of connection points: 4
#     Node 6, Type 0, BuildingBlock: ICAMEG_clean_sbu_1, # of connection points: 4
#     Node 7, Type 0, BuildingBlock: ICAMEG_clean_sbu_1, # of connection points: 4
#     Edge 8, Type (0, 0), BuildingBlock: ZUJKAS_clean_linker_0, # of connection points: 2
#     Edge 9, Type (0, 0), BuildingBlock: ZUJKAS_clean_linker_0, # of connection points: 2
#     Edge 10, Type (0, 0), BuildingBlock: ZUJKAS_clean_linker_0, # of connection points: 2
#     Edge 11, Type (0, 0), BuildingBlock: ZUJKAS_clean_linker_0, # of connection points: 2
#     Edge 12, Type (0, 0), BuildingBlock: ZUJKAS_clean_linker_0, # of connection points: 2
#     Edge 13, Type (0, 0), BuildingBlock: ZUJKAS_clean_linker_0, # of connection points: 2
#     Edge 14, Type (0, 0), BuildingBlock: ZUJKAS_clean_linker_0, # of connection points: 2
#     Edge 15, Type (0, 0), BuildingBlock: ZUJKAS_clean_linker_0, # of connection points: 2
#     Edge 16, Type (0, 0), BuildingBlock: ZUJKAS_clean_linker_0, # of connection points: 2
#     Edge 17, Type (0, 0), BuildingBlock: ZUJKAS_clean_linker_0, # of connection points: 2
#     Edge 18, Type (0, 0), BuildingBlock: ZUJKAS_clean_linker_0, # of connection points: 2
#     Edge 19, Type (0, 0), BuildingBlock: ZUJKAS_clean_linker_0, # of connection points: 2
#     Edge 20, Type (0, 0), BuildingBlock: ZUJKAS_clean_linker_0, # of connection points: 2
#     Edge 21, Type (0, 0), BuildingBlock: ZUJKAS_clean_linker_0, # of connection points: 2
#     Edge 22, Type (0, 0), BuildingBlock: ZUJKAS_clean_linker_0, # of connection points: 2
#     Edge 23, Type (0, 0), BuildingBlock: ZUJKAS_clean_linker_0, # of connection points: 2
# Relax obj value: 0.056
# Max RMSD: 0.145
# Mean RMSD: 0.145
data_MOF--net-msp--node1-ICAMEG_clean_sbu_1--edge1-ZUJKAS_clean_linker_0
_symmetry_space_group_name_H-M    P1
_symmetry_Int_Tables_number       1
_symmetry_cell_setting            triclinic
loop_
_symmetry_equiv_pos_as_xyz
'x, y, z'
_cell_length_a     34.115833
_cell_length_b     24.716645
_cell_length_c     56.448893
_cell_angle_alpha  89.998913
_cell_angle_beta   103.67939
_cell_angle_gamma 89.984129
loop_
_atom_site_label
_atom_site_type_symbol
_atom_site_fract_x
_atom_site_fract_y
_atom_site_fract_z
_atom_type_partial_charge
Co0 Co 0.06522 0.35168 0.35349 0.0
Co1 Co 0.00684 0.2462 0.36605 0.0
O2 O 0.02707 0.29248 0.34352 0.0
C3 C 0.10614 0.28166 0.32462 0.0
O4 O 0.09649 0.24081 0.33699 0.0
C5 C 0.9338 0.29095 0.33355 0.0
O6 O 0.95084 0.33881 0.33725 0.0
O7 O 0.99418 0.30987 0.38466 0.0
O8 O 0.03718 0.37484 0.37907 0.0
H9 H 0.99258 0.18254 0.44815 0.0
H10 H 0.02356 0.33952 0.30141 0.0
O11 O 0.09485 0.32939 0.32837 0.0
H12 H 0.98354 0.5193 0.32543 0.0
H13 H 0.15288 0.5056 0.33844 0.0
H14 H 0.10905 0.3975 0.40095 0.0
H15 H 0.03032 0.46194 0.35501 0.0
H16 H 0.10378 0.43144 0.3265 0.0
O17 O 0.95196 0.2494 0.34405 0.0
H18 H 0.0187 0.24045 0.41979 0.0
H19 H 0.94985 0.15295 0.35937 0.0
H20 H 0.15795 0.47151 0.4137 0.0
H21 H 0.97689 0.3957 0.27118 0.0
H22 H 0.18019 0.52616 0.38232 0.0
H23 H 0.9565 0.48623 0.28316 0.0
O24 O 0.10151 0.30503 0.37792 0.0
H25 H 0.00827 0.13889 0.29063 0.0
H26 H 0.05043 0.14226 0.38042 0.0
H27 H 0.06834 0.0639 0.35806 0.0
H28 H 0.04717 0.06186 0.31283 0.0
H29 H 0.9913 0.21667 0.3137 0.0
H30 H 0.92274 0.09432 0.38708 0.0
H31 H 0.94424 0.10883 0.43182 0.0
O32 O 0.06111 0.24217 0.3884 0.0
C33 C 0.01046 0.35637 0.38936 0.0
C34 C 0.98309 0.17569 0.4287 0.0
C35 C 0.94385 0.12623 0.39442 0.0
N36 N 0.98607 0.19981 0.38797 0.0
C37 C -0.00214 0.20826 0.41255 0.0
C38 C 0.95924 0.15962 0.37882 0.0
C39 C 0.95593 0.13438 0.41952 0.0
C40 C 0.01511 0.37909 0.30668 0.0
N41 N 0.02979 0.39756 0.32989 0.0
C42 C 0.98856 0.41062 0.28952 0.0
C43 C 0.97709 0.46138 0.29626 0.0
C44 C 0.99222 0.47995 0.31998 0.0
C45 C 0.01864 0.44725 0.33667 0.0
C46 C 0.14335 0.48216 0.35228 0.0
C47 C 0.11837 0.42133 0.38719 0.0
C48 C 0.11562 0.44008 0.34563 0.0
N49 N 0.10331 0.41049 0.363 0.0
C50 C 0.14616 0.46308 0.39452 0.0
C51 C 0.15865 0.49368 0.37691 0.0
C52 C 0.09519 0.26528 0.39095 0.0
C53 C 0.01757 0.13924 0.31033 0.0
C54 C 0.04118 0.14173 0.36074 0.0
C55 C 0.05135 0.0972 0.34818 0.0
C56 C 0.03944 0.09607 0.3228 0.0
N57 N 0.01964 0.18387 0.34838 0.0
C58 C 0.0079 0.18307 0.3235 0.0
Co59 Co 0.42665 0.35848 0.64511 0.0
Co60 Co 0.48214 0.25196 0.63035 0.0
O61 O 0.46536 0.29946 0.65382 0.0
C62 C 0.39022 0.28934 0.67656 0.0
O63 O 0.39918 0.24809 0.66417 0.0
C64 C 0.55742 0.2997 0.65874 0.0
O65 O 0.53938 0.34693 0.65515 0.0
O66 O 0.49104 0.31446 0.60993 0.0
O67 O 0.45083 0.38085 0.61768 0.0
H68 H 0.48468 0.18365 0.54688 0.0
H69 H 0.47402 0.34775 0.69611 0.0
O70 O 0.4007 0.337 0.67205 0.0
H71 H 0.51005 0.52655 0.66878 0.0
H72 H 0.34249 0.51311 0.66354 0.0
H73 H 0.37756 0.40291 0.59869 0.0
H74 H 0.46045 0.46857 0.64127 0.0
H75 H 0.39221 0.43916 0.67382 0.0
O76 O 0.53895 0.25709 0.64966 0.0
H77 H 0.46286 0.24313 0.57642 0.0
H78 H 0.53961 0.15947 0.63523 0.0
H79 H 0.32794 0.47673 0.58758 0.0
H80 H 0.52362 0.40455 0.72428 0.0
H81 H 0.31011 0.53241 0.62014 0.0
H82 H 0.542 0.49458 0.71061 0.0
O83 O 0.38812 0.31105 0.62239 0.0
H84 H 0.49357 0.14921 0.70854 0.0
H85 H 0.4386 0.14692 0.6195 0.0
H86 H 0.42548 0.06979 0.64426 0.0
H87 H 0.45312 0.07059 0.68911 0.0
H88 H 0.50565 0.22573 0.68313 0.0
H89 H 0.56252 0.09933 0.60632 0.0
H90 H 0.53486 0.1111 0.56179 0.0
O91 O 0.4258 0.24614 0.61071 0.0
C92 C 0.47509 0.36128 0.60584 0.0
C93 C 0.49682 0.17796 0.56624 0.0
C94 C 0.54055 0.13069 0.5996 0.0
N95 N 0.49961 0.20439 0.60752 0.0
C96 C 0.48448 0.21139 0.58305 0.0
C97 C 0.52751 0.16491 0.61588 0.0
C98 C 0.52501 0.13731 0.57462 0.0
C99 C 0.4816 0.38712 0.69014 0.0
N100 N 0.46424 0.40496 0.66714 0.0
C101 C 0.50981 0.41899 0.70612 0.0
C102 C 0.52015 0.46947 0.69843 0.0
C103 C 0.50226 0.48742 0.67495 0.0
C104 C 0.47425 0.45439 0.65945 0.0
C105 C 0.35009 0.48922 0.64919 0.0
C106 C 0.37016 0.42721 0.61295 0.0
C107 C 0.37816 0.44725 0.6549 0.0
N108 N 0.38803 0.41709 0.63686 0.0
C109 C 0.34196 0.46884 0.60655 0.0
C110 C 0.33193 0.50003 0.62483 0.0
C111 C 0.39225 0.2698 0.60962 0.0
C112 C 0.48146 0.14832 0.68901 0.0
C113 C 0.45064 0.14764 0.63902 0.0
C114 C 0.44318 0.10379 0.65293 0.0
C115 C 0.45872 0.10426 0.67809 0.0
N116 N 0.47306 0.19066 0.64985 0.0
C117 C 0.48835 0.19143 0.67451 0.0
Co118 Co 0.93165 0.6451 0.64481 0.0
Co119 Co 0.98471 0.75275 0.62884 0.0
O120 O 0.96846 0.7063 0.65285 0.0
C121 C 0.89243 0.71434 0.67481 0.0
O122 O 0.90014 0.75512 0.66172 0.0
C123 C 0.06077 0.71136 0.65926 0.0
O124 O 0.04458 0.66293 0.65614 0.0
O125 O -0.00322 0.68918 0.61001 0.0
O126 O 0.95713 0.62234 0.61798 0.0
H127 H 0.98877 0.81449 0.54463 0.0
H128 H 0.97768 0.6608 0.69582 0.0
O129 O 0.90446 0.66694 0.67115 0.0
H130 H 0.01969 0.48228 0.67158 0.0
H131 H 0.85149 0.48792 0.66493 0.0
H132 H 0.8848 0.59586 0.59887 0.0
H133 H 0.96892 0.53647 0.64291 0.0
H134 H 0.89891 0.56459 0.67441 0.0
O135 O 0.04111 0.75224 0.6491 0.0
H136 H 0.96753 0.75631 0.57483 0.0
H137 H 0.03898 0.84848 0.63269 0.0
H138 H 0.83749 0.51927 0.58857 0.0
H139 H 0.02839 0.60783 0.72514 0.0
H140 H 0.82055 0.46471 0.62174 0.0
H141 H 0.04977 0.51795 0.71303 0.0
O142 O 0.89218 0.68941 0.62114 0.0
H143 H 0.98874 0.86216 0.70444 0.0
H144 H 0.93767 0.85438 0.61516 0.0
H145 H 0.9205 0.93262 0.63788 0.0
H146 H 0.94616 0.93688 0.68285 0.0
H147 H 0.00489 0.78443 0.68105 0.0
H148 H 0.06125 0.90744 0.60312 0.0
H149 H 0.03596 0.89072 0.55874 0.0
O150 O 0.92873 0.75397 0.60826 0.0
C151 C 0.98169 0.6418 0.60631 0.0
C152 C -0.00014 0.82234 0.56392 0.0
C153 C 0.04059 0.87445 0.59675 0.0
N154 N 0.00166 0.79935 0.60548 0.0
C155 C 0.98784 0.78964 0.5811 0.0
C156 C 0.02793 0.84089 0.6134 0.0
C157 C 0.02638 0.86506 0.57185 0.0
C158 C 0.98657 0.62149 0.69053 0.0
N159 N 0.97023 0.60161 0.66775 0.0
C160 C 0.0154 0.59178 0.70716 0.0
C161 C 0.02743 0.54139 0.70034 0.0
C162 C 0.01058 0.52137 0.67708 0.0
C163 C 0.9819 0.55226 0.66091 0.0
C164 C 0.85871 0.5113 0.65032 0.0
C165 C 0.87779 0.57207 0.6134 0.0
C166 C 0.88548 0.5548 0.65557 0.0
N167 N 0.89488 0.58434 0.63721 0.0
C168 C 0.85089 0.52886 0.60746 0.0
C169 C 0.84136 0.4983 0.62608 0.0
C170 C 0.89567 0.72921 0.6074 0.0
C171 C 0.97748 0.86084 0.68485 0.0
C172 C 0.94887 0.85587 0.63473 0.0
C173 C 0.93911 0.90033 0.64749 0.0
C174 C 0.95354 0.90271 0.67272 0.0
N175 N 0.97245 0.81501 0.64675 0.0
C176 C 0.98667 0.81704 0.67149 0.0
Co177 Co 0.56311 0.63159 0.3513 0.0
Co178 Co 0.50706 0.74105 0.36219 0.0
O179 O 0.52668 0.69206 0.34051 0.0
C180 C 0.60645 0.6985 0.32286 0.0
O181 O 0.5972 0.73977 0.33512 0.0
C182 C 0.43072 0.69986 0.3311 0.0
O183 O 0.44138 0.65071 0.33882 0.0
O184 O 0.49171 0.67937 0.38101 0.0
O185 O 0.53339 0.61159 0.37651 0.0
H186 H 0.49041 0.81112 0.44283 0.0
H187 H 0.52308 0.64333 0.29893 0.0
O188 O 0.59426 0.6512 0.32654 0.0
H189 H 0.47816 0.4667 0.3234 0.0
H190 H 0.64783 0.47251 0.33839 0.0
H191 H 0.6041 0.58571 0.39935 0.0
H192 H 0.52536 0.52335 0.35308 0.0
H193 H 0.60089 0.54869 0.32544 0.0
O194 O 0.45308 0.74027 0.33895 0.0
H195 H 0.51637 0.74966 0.41569 0.0
H196 H 0.45283 0.83726 0.3537 0.0
H197 H 0.65082 0.50973 0.4131 0.0
H198 H 0.47605 0.58784 0.26859 0.0
H199 H 0.67299 0.45252 0.38251 0.0
H200 H 0.45325 0.49886 0.2808 0.0
O201 O 0.59991 0.67745 0.3758 0.0
H202 H 0.51681 0.84309 0.28674 0.0
H203 H 0.55314 0.84306 0.37666 0.0
H204 H 0.57504 0.91873 0.35438 0.0
H205 H 0.55682 0.91908 0.30909 0.0
H206 H 0.49587 0.76798 0.30974 0.0
H207 H 0.42593 0.89946 0.38017 0.0
H208 H 0.44484 0.8867 0.42508 0.0
O209 O 0.56066 0.74287 0.38547 0.0
C210 C 0.50671 0.63225 0.38626 0.0
C211 C 0.48206 0.81723 0.42329 0.0
C212 C 0.44583 0.86676 0.38812 0.0
N213 N 0.48643 0.79016 0.38316 0.0
C214 C 0.49676 0.78265 0.40783 0.0
C215 C 0.46109 0.83135 0.37322 0.0
C216 C 0.45646 0.85958 0.41332 0.0
C217 C 0.51352 0.60446 0.3043 0.0
N218 N 0.52712 0.58642 0.32768 0.0
C219 C 0.48679 0.57331 0.28708 0.0
C220 C 0.47397 0.52342 0.29395 0.0
C221 C 0.48792 0.50536 0.31785 0.0
C222 C 0.51458 0.53765 0.33459 0.0
C223 C 0.63832 0.49707 0.35189 0.0
C224 C 0.6134 0.56077 0.38592 0.0
C225 C 0.6118 0.54029 0.34467 0.0
N226 N 0.59951 0.57129 0.36162 0.0
C227 C 0.63995 0.51791 0.39382 0.0
C228 C 0.65241 0.48586 0.37665 0.0
C229 C 0.59416 0.71795 0.38857 0.0
C230 C 0.5248 0.84351 0.30648 0.0
C231 C 0.54511 0.8429 0.35695 0.0
C232 C 0.55755 0.88589 0.34443 0.0
C233 C 0.5473 0.88609 0.31903 0.0
N234 N 0.52294 0.80136 0.34451 0.0
C235 C 0.51283 0.80123 0.3196 0.0
Co236 Co 0.56686 0.85415 0.85268 0.0
Co237 Co 0.509 0.74812 0.86532 0.0
O238 O 0.5286 0.79509 0.84277 0.0
C239 C 0.60707 0.78466 0.82323 0.0
O240 O 0.59739 0.74359 0.83546 0.0
C241 C 0.43565 0.79454 0.83379 0.0
O242 O 0.45309 0.84209 0.83786 0.0
O243 O 0.49731 0.81115 0.88464 0.0
O244 O 0.53945 0.87683 0.87863 0.0
H245 H 0.49737 0.68133 0.94747 0.0
H246 H 0.52421 0.84286 0.80074 0.0
O247 O 0.5959 0.83233 0.8272 0.0
H248 H 0.48492 0.02213 0.82577 0.0
H249 H 0.6541 0.00839 0.83748 0.0
H250 H 0.61163 0.89907 0.9001 0.0
H251 H 0.53221 0.96434 0.85487 0.0
H252 H 0.60479 0.93444 0.8256 0.0
O253 O 0.45363 0.75241 0.84384 0.0
H254 H 0.52267 0.74024 0.91911 0.0
H255 H 0.45144 0.65552 0.85858 0.0
H256 H 0.66077 0.97285 0.91278 0.0
H257 H 0.47701 0.89946 0.77099 0.0
H258 H 0.68232 0.0281 0.88135 0.0
H259 H 0.45699 0.98973 0.78349 0.0
O260 O 0.60349 0.80705 0.87668 0.0
H261 H 0.5073 0.64343 0.78874 0.0
H262 H 0.55228 0.64351 0.87845 0.0
H263 H 0.56891 0.56584 0.85519 0.0
H264 H 0.54631 0.56545 0.81 0.0
H265 H 0.49164 0.72049 0.81269 0.0
H266 H 0.42512 0.59593 0.88629 0.0
H267 H 0.44823 0.60854 0.93108 0.0
O268 O 0.56385 0.74305 0.88709 0.0
C269 C 0.51335 0.85781 0.88926 0.0
C270 C 0.48718 0.67531 0.92799 0.0
C271 C 0.44658 0.62743 0.89365 0.0
N272 N 0.48881 0.70103 0.88723 0.0
C273 C 0.50148 0.70844 0.91184 0.0
C274 C 0.46153 0.66136 0.87805 0.0
C275 C 0.45957 0.63452 0.91878 0.0
C276 C 0.51592 0.88232 0.80622 0.0
N277 N 0.53108 0.90041 0.82945 0.0
C278 C 0.48907 0.91409 0.78934 0.0
C279 C 0.4778 0.96471 0.79637 0.0
C280 C 0.49344 0.98289 0.8201 0.0
C281 C 0.52015 0.94996 0.83651 0.0
C282 C 0.64487 0.98469 0.85134 0.0
C283 C 0.62065 0.92318 0.88631 0.0
C284 C 0.61702 0.94273 0.84473 0.0
N285 N 0.60509 0.91281 0.86214 0.0
C286 C 0.64858 0.96479 0.89361 0.0
C287 C 0.66069 0.99574 0.87596 0.0
C288 C 0.59779 0.76649 0.88943 0.0
C289 C 0.51722 0.64306 0.80843 0.0
C290 C 0.54242 0.6437 0.85879 0.0
C291 C 0.55186 0.59956 0.84572 0.0
C292 C 0.53915 0.59935 0.82037 0.0
N293 N 0.52081 0.68637 0.84695 0.0
C294 C 0.50829 0.68648 0.82209 0.0
Co295 Co 0.92343 0.86215 0.14423 0.0
Co296 Co 0.98566 0.76305 0.12988 0.0
O297 O 0.96495 0.80651 0.15324 0.0
C298 C 0.88885 0.78672 0.17424 0.0
O299 O 0.90027 0.74745 0.16172 0.0
C300 C 0.05695 0.81475 0.16124 0.0
O301 O 0.03573 0.85933 0.16015 0.0
O302 O 0.99258 0.82817 0.11055 0.0
O303 O 0.94815 0.88943 0.11776 0.0
H304 H -0.00396 0.70324 0.0465 0.0
H305 H 0.96809 0.85244 0.19587 0.0
O306 O 0.89702 0.83567 0.1702 0.0
H307 H -0.00354 0.0368 0.17098 0.0
H308 H 0.82945 0.00572 0.16177 0.0
H309 H 0.87447 0.90525 0.0975 0.0
H310 H 0.95202 0.97568 0.142 0.0
H311 H 0.88277 0.93642 0.17252 0.0
O312 O 0.04166 0.77232 0.15004 0.0
H313 H 0.96951 0.75737 0.07595 0.0
H314 H 0.04794 0.67642 0.13496 0.0
H315 H 0.82131 0.9745 0.08594 0.0
H316 H 0.01245 0.91238 0.22552 0.0
H317 H 0.79846 0.02527 0.1182 0.0
H318 H 0.02697 0.00524 0.21309 0.0
O319 O 0.88852 0.81279 0.12054 0.0
H320 H -0.0018 0.6548 0.20668 0.0
H321 H 0.94802 0.6547 0.11726 0.0
H322 H 0.93747 0.57422 0.14084 0.0
H323 H 0.96271 0.57393 0.18587 0.0
H324 H 0.00779 0.73459 0.18242 0.0
H325 H 0.07556 0.62169 0.10615 0.0
H326 H 0.04947 0.6348 0.06157 0.0
O327 O 0.93032 0.75306 0.10917 0.0
C328 C 0.97438 0.87352 0.1065 0.0
C329 C 0.00754 0.69698 0.06588 0.0
C330 C 0.0522 0.65126 0.09936 0.0
N331 N 0.00682 0.71962 0.10713 0.0
C332 C 0.99252 0.72736 0.08264 0.0
C333 C 0.03648 0.68241 0.11558 0.0
C334 C 0.03754 0.65863 0.07435 0.0
C335 C 0.97396 0.89299 0.19043 0.0
N336 N 0.95737 0.91063 0.16729 0.0
C337 C -0.00077 0.92666 0.20725 0.0
C338 C 0.00742 0.97872 0.20025 0.0
C339 C 0.99034 0.99644 0.17662 0.0
C340 C 0.96529 0.96161 0.16027 0.0
C341 C 0.83922 0.98396 0.14755 0.0
C342 C 0.86489 0.92745 0.11165 0.0
C343 C 0.86935 0.94463 0.15353 0.0
N344 N 0.88197 0.91719 0.13565 0.0
C345 C 0.83469 0.96649 0.10499 0.0
C346 C 0.82185 0.99492 0.1231 0.0
C347 C 0.89544 0.77324 0.10761 0.0
C348 C 0.98717 0.65438 0.18705 0.0
C349 C 0.95902 0.65492 0.13686 0.0
C350 C 0.95302 0.6092 0.15011 0.0
C351 C 0.96721 0.60905 0.17537 0.0
N352 N 0.97871 0.69918 0.14844 0.0
C353 C 0.99267 0.69936 0.17321 0.0
Co354 Co 0.4267 0.14304 0.14335 0.0
Co355 Co 0.48331 0.24952 0.12978 0.0
O356 O 0.46484 0.2025 0.15277 0.0
C357 C 0.38743 0.21231 0.17337 0.0
O358 O 0.39653 0.2534 0.16094 0.0
C359 C 0.55787 0.20479 0.16071 0.0
O360 O 0.5409 0.15685 0.15728 0.0
O361 O 0.49491 0.18639 0.1105 0.0
O362 O 0.45327 0.12052 0.11698 0.0
H363 H 0.492 0.3152 0.04692 0.0
H364 H 0.47076 0.15489 0.19501 0.0
O365 O 0.39852 0.16469 0.16927 0.0
H366 H 0.50999 0.97588 0.16964 0.0
H367 H 0.34125 0.98804 0.15991 0.0
H368 H 0.38086 0.09747 0.09632 0.0
H369 H 0.46173 0.03318 0.14088 0.0
H370 H 0.39028 0.06251 0.17113 0.0
O371 O 0.53907 0.24636 0.15066 0.0
H372 H 0.46817 0.25634 0.0759 0.0
H373 H 0.53983 0.34321 0.13557 0.0
H374 H 0.33197 0.02315 0.08429 0.0
H375 H 0.51894 0.09878 0.22442 0.0
H376 H 0.31186 0.96785 0.11621 0.0
H377 H 0.53892 0.00863 0.21175 0.0
O378 O 0.38913 0.18968 0.11961 0.0
H379 H 0.4864 0.35504 0.20632 0.0
H380 H 0.43892 0.35341 0.11674 0.0
H381 H 0.42238 0.43106 0.14004 0.0
H382 H 0.44623 0.43223 0.18516 0.0
H383 H 0.50195 0.27796 0.18233 0.0
H384 H 0.56468 0.40276 0.10724 0.0
H385 H 0.54061 0.38905 0.06256 0.0
O386 O 0.42812 0.25362 0.10855 0.0
C387 C 0.47898 0.13962 0.10607 0.0
C388 C 0.50261 0.3217 0.06635 0.0
C389 C 0.54344 0.3708 0.1002 0.0
N390 N 0.50233 0.29662 0.10739 0.0
C391 C 0.48914 0.2886 0.08284 0.0
C392 C 0.52933 0.33688 0.11616 0.0
C393 C 0.52992 0.36309 0.07514 0.0
C394 C 0.47904 0.11549 0.18945 0.0
N395 N 0.46332 0.0972 0.16632 0.0
C396 C 0.50644 0.08399 0.20615 0.0
C397 C 0.51769 0.03345 0.19902 0.0
C398 C 0.50149 0.01507 0.17538 0.0
C399 C 0.47424 0.04772 0.15917 0.0
C400 C 0.34985 0.01177 0.14583 0.0
C401 C 0.37246 0.07335 0.11031 0.0
C402 C 0.37754 0.05403 0.15208 0.0
N403 N 0.38867 0.08398 0.1344 0.0
C404 C 0.34468 0.03142 0.10339 0.0
C405 C 0.33338 1.00045 0.12131 0.0
C406 C 0.39433 0.23009 0.10663 0.0
C407 C 0.47593 0.35507 0.18666 0.0
C408 C 0.44933 0.35355 0.13637 0.0
C409 C 0.43993 0.39769 0.14946 0.0
C410 C 0.45335 0.39833 0.17478 0.0
N411 N 0.47157 0.31131 0.14816 0.0
C412 C 0.48479 0.31164 0.17297 0.0
Co413 Co 0.0599 0.15608 0.85205 0.0
Co414 Co 0.00471 0.2644 0.86536 0.0
O415 O 0.0227 0.21643 0.84251 0.0
C416 C 0.10037 0.22376 0.82216 0.0
O417 O 0.09142 0.26525 0.83441 0.0
C418 C 0.93017 0.22004 0.83453 0.0
O419 O 0.94699 0.17207 0.83845 0.0
O420 O 0.99235 0.20211 0.88481 0.0
O421 O 0.03296 0.13483 0.87843 0.0
H422 H -0.00424 0.33193 0.94789 0.0
H423 H 0.01622 0.16811 0.80034 0.0
O424 O 0.08855 0.17648 0.82618 0.0
H425 H 0.97432 0.99084 0.82599 0.0
H426 H 0.14329 0.99838 0.83588 0.0
H427 H 0.10502 0.11019 0.89919 0.0
H428 H 0.02331 0.04731 0.85468 0.0
H429 H 0.09532 0.07401 0.82447 0.0
O430 O 0.94896 0.26182 0.84436 0.0
H431 H 0.01922 0.27184 0.91919 0.0
H432 H 0.94932 0.35935 0.85912 0.0
H433 H 0.15283 0.0347 0.91141 0.0
H434 H 0.96732 0.11281 0.77098 0.0
H435 H 0.17227 0.9782 0.87963 0.0
H436 H 0.94599 0.02355 0.7838 0.0
O437 O 0.09793 0.20219 0.87567 0.0
H438 H 0.00302 0.3682 0.78855 0.0
H439 H 0.05029 0.36743 0.87814 0.0
H440 H 0.06781 0.44411 0.85465 0.0
H441 H 0.04407 0.44484 0.80952 0.0
H442 H 0.98649 0.29209 0.81272 0.0
H443 H 0.92483 0.42016 0.88716 0.0
H444 H 0.94822 0.40676 0.9319 0.0
O445 O 0.06002 0.26767 0.88671 0.0
C446 C 0.00758 0.15499 0.88934 0.0
C447 C 0.9855 0.33835 0.92844 0.0
C448 C 0.94564 0.38781 0.89435 0.0
N449 N 0.98603 0.31247 0.88753 0.0
C450 C -0.00121 0.30457 0.9121 0.0
C451 C 0.95957 0.35321 0.87856 0.0
C452 C 0.95878 0.38027 0.91945 0.0
C453 C 0.00736 0.12907 0.80595 0.0
N454 N 0.02273 0.11081 0.82913 0.0
C455 C 0.97955 0.09805 0.78929 0.0
C456 C 0.96755 0.048 0.79651 0.0
C457 C 0.98341 0.02964 0.82018 0.0
C458 C 0.01108 0.06182 0.83636 0.0
C459 C 0.13498 0.02262 0.84989 0.0
C460 C 0.11311 0.08554 0.88526 0.0
C461 C 0.10788 0.06554 0.84354 0.0
N462 N 0.09711 0.09614 0.86115 0.0
C463 C 0.14029 0.04296 0.89229 0.0
C464 C 0.15122 0.01131 0.87445 0.0
C465 C 0.09342 0.24306 0.88856 0.0
C466 C 0.01344 0.36842 0.80821 0.0
C467 C 0.03992 0.36739 0.8585 0.0
C468 C 0.04987 0.41097 0.8453 0.0
C469 C 0.03652 0.41137 0.81998 0.0
N470 N 0.0172 0.32546 0.84682 0.0
C471 C 0.00403 0.32555 0.822 0.0
H472 H 0.03556 0.45918 0.40342 0.0
H473 H 0.0295 0.50653 0.4403 0.0
H474 H 0.95918 0.37469 0.45839 0.0
H475 H 0.96532 0.32643 0.42159 0.0
H476 H 0.96182 0.53958 0.45765 0.0
H477 H 0.05521 0.38733 0.51841 0.0
H478 H 0.05275 0.39081 0.48615 0.0
H479 H 0.01222 0.36058 0.49682 0.0
C480 C 0.01834 0.44034 0.41502 0.0
C481 C 0.00123 0.38862 0.40957 0.0
C482 C 0.01498 0.46755 0.43614 0.0
C483 C 0.99464 0.44362 0.45232 0.0
C484 C 0.97572 0.39335 0.44637 0.0
H485 H 0.95641 0.53867 0.59281 0.0
H486 H 0.96101 0.49089 0.55574 0.0
C487 C 0.97898 0.36605 0.4252 0.0
C488 C 0.99437 0.47075 0.47571 0.0
H489 H 0.02695 0.45754 0.53751 0.0
C490 C 0.97608 0.52174 0.47512 0.0
C491 C 0.01317 0.44739 0.49846 0.0
C492 C 0.03478 0.39373 0.50014 0.0
C493 C 0.97549 0.54967 0.49671 0.0
C494 C 0.9944 0.52639 0.51946 0.0
C495 C 0.0126 0.47533 0.52005 0.0
C496 C 0.99472 0.55394 0.54286 0.0
C497 C 0.95384 0.6033 0.49499 0.0
C498 C 0.01346 0.60445 0.54837 0.0
C499 C 0.01098 0.63202 0.56961 0.0
C500 C 0.98978 0.60945 0.58581 0.0
C501 C 0.97283 0.55753 0.58077 0.0
C502 C 0.97537 0.53007 0.55954 0.0
H503 H 0.93283 0.60912 0.47687 0.0
H504 H 0.93649 0.60675 0.50928 0.0
H505 H 0.97634 0.63651 0.49777 0.0
H506 H 0.02934 0.62305 0.53598 0.0
H507 H 0.02453 0.67177 0.57288 0.0
H508 H 0.52855 0.52892 0.40113 0.0
H509 H 0.52045 0.48413 0.43813 0.0
H510 H 0.45424 0.62163 0.45508 0.0
H511 H 0.46179 0.66688 0.41788 0.0
H512 H 0.55085 0.526 0.48493 0.0
H513 H 0.38537 0.49267 0.46691 0.0
H514 H 0.41067 0.5073 0.44292 0.0
H515 H 0.40028 0.56075 0.46213 0.0
C516 C 0.51154 0.54941 0.4124 0.0
C517 C 0.49591 0.60173 0.40647 0.0
C518 C 0.50707 0.52369 0.43363 0.0
C519 C 0.48666 0.54943 0.44932 0.0
C520 C 0.46959 0.60068 0.44303 0.0
H521 H 0.44786 0.46319 0.59136 0.0
H522 H 0.45296 0.51076 0.55431 0.0
C523 C 0.474 0.62653 0.42175 0.0
C524 C 0.48603 0.52421 0.47307 0.0
H525 H 0.42354 0.47417 0.50692 0.0
C526 C 0.52302 0.51449 0.48973 0.0
C527 C 0.4497 0.50962 0.47932 0.0
C528 C 0.40922 0.51763 0.46184 0.0
C529 C 0.52467 0.49087 0.51256 0.0
C530 C 0.48837 0.47572 0.51873 0.0
C531 C 0.45135 0.48587 0.50216 0.0
C532 C 0.48807 0.44838 0.54209 0.0
C533 C 0.56523 0.48324 0.53004 0.0
C534 C 0.50649 0.39768 0.54766 0.0
C535 C 0.50384 0.37034 0.56892 0.0
C536 C 0.48236 0.393 0.58495 0.0
C537 C 0.46472 0.44444 0.57953 0.0
C538 C 0.46746 0.4717 0.55829 0.0
H539 H 0.58851 0.51012 0.52549 0.0
H540 H 0.56348 0.49137 0.54911 0.0
H541 H 0.57523 0.44078 0.52896 0.0
H542 H 0.52193 0.37846 0.5352 0.0
H543 H 0.51751 0.33067 0.57234 0.0
H544 H 0.45317 0.03717 0.09179 0.0
H545 H 0.46007 0.98909 0.05526 0.0
H546 H 0.52981 0.1213 0.03688 0.0
H547 H 0.52352 0.16972 0.07356 0.0
H548 H 0.43186 0.02615 0.00773 0.0
H549 H 0.59692 0.98899 0.02801 0.0
H550 H 0.57112 0.00773 0.05127 0.0
H551 H 0.58325 0.05829 0.03125 0.0
C552 C 0.47061 0.05581 0.08026 0.0
C553 C 0.48783 0.10746 0.08572 0.0
C554 C 0.47439 0.02823 0.05931 0.0
C555 C 0.49564 0.05141 0.04342 0.0
C556 C 0.51384 0.10222 0.0491 0.0
H557 H 0.53888 0.9603 0.90364 0.0
H558 H 0.53175 0.00811 0.94018 0.0
C559 C 0.51014 0.1299 0.07009 0.0
C560 C 0.49658 0.02385 0.0202 0.0
H561 H 0.5599 0.97066 0.98762 0.0
C562 C 0.45983 0.01374 0.00337 0.0
C563 C 0.5331 0.00789 0.01453 0.0
C564 C 0.57335 0.01577 0.03228 0.0
C565 C 0.45866 0.9889 0.98082 0.0
C566 C 0.49518 0.97299 0.97514 0.0
C567 C 0.53193 0.98305 0.99199 0.0
C568 C 0.49615 0.94562 0.95188 0.0
C569 C 0.41841 0.98101 0.96307 0.0
C570 C 0.47797 0.89483 0.9461 0.0
C571 C 0.4818 0.8673 0.92509 0.0
C572 C 0.50422 0.88988 0.90956 0.0
C573 C 0.52136 0.94155 0.9151 0.0
C574 C 0.51746 0.96897 0.93606 0.0
H575 H 0.39481 0.0077 0.96738 0.0
H576 H 0.42062 0.98918 0.94409 0.0
H577 H 0.40856 0.93846 0.96405 0.0
H578 H 0.46196 0.87562 0.95826 0.0
H579 H 0.46847 0.82747 0.92156 0.0
H580 H 0.94227 0.97324 0.09183 0.0
H581 H 0.94703 0.02338 0.05534 0.0
H582 H 0.02549 0.90051 0.03796 0.0
H583 H 0.02148 0.85027 0.07457 0.0
H584 H 0.05051 0.00574 0.0311 0.0
H585 H 0.88837 0.97694 0.98645 0.0
H586 H 0.8978 0.00779 0.01606 0.0
H587 H 0.91351 0.93921 0.0131 0.0
C588 C 0.96091 0.95701 0.08043 0.0
C589 C 0.98126 0.90737 0.08613 0.0
C590 C 0.96331 0.98559 0.05944 0.0
C591 C 0.98584 0.96503 0.04365 0.0
C592 C 0.00763 0.91685 0.04981 0.0
H593 H 0.03382 0.05338 0.90489 0.0
H594 H 0.02695 0.00767 0.94199 0.0
C595 C 0.00535 0.88825 0.07081 0.0
C596 C 0.98631 0.9932 0.02051 0.0
H597 H 0.926 0.03297 0.96594 0.0
C598 C 0.02332 0.01163 0.01684 0.0
C599 C 0.95074 1.0008 0.00192 0.0
C600 C 0.91037 0.97977 0.00439 0.0
C601 C 0.02569 0.03793 0.99518 0.0
C602 C 0.99019 0.04522 0.97655 0.0
C603 C 0.95312 0.02727 0.98027 0.0
C604 C 0.99121 0.07097 0.95299 0.0
C605 C 0.06611 0.05841 0.99252 0.0
C606 C 0.97183 0.12064 0.94632 0.0
C607 C 0.97549 0.14696 0.925 0.0
C608 C -0.00151 0.12386 0.9099 0.0
C609 C 0.01611 0.07268 0.91609 0.0
C610 C 0.01245 0.04654 0.9374 0.0
H611 H 0.08825 0.06132 0.01041 0.0
H612 H 0.07839 0.03003 0.98086 0.0
H613 H 0.06308 0.09882 0.98367 0.0
H614 H 0.95501 0.13991 0.95805 0.0
H615 H 0.96147 0.18624 0.92084 0.0
H616 H 0.60321 0.12941 0.19088 0.0
H617 H 0.6677 0.1445 0.22038 0.0
H618 H 0.66704 0.31108 0.19755 0.0
H619 H 0.60286 0.29679 0.16832 0.0
H620 H 0.74259 0.18385 0.21206 0.0
H621 H 0.67943 0.32019 0.27197 0.0
H622 H 0.64816 0.27699 0.24938 0.0
H623 H 0.66764 0.33926 0.24037 0.0
C624 C 0.61693 0.16914 0.19208 0.0
C625 C 0.59784 0.21198 0.17742 0.0
C626 C 0.65364 0.17768 0.20892 0.0
C627 C 0.67154 0.22913 0.21136 0.0
C628 C 0.65317 0.27142 0.19626 0.0
H629 H 0.88956 0.36677 0.30308 0.0
H630 H 0.82582 0.35221 0.27281 0.0
C631 C 0.61659 0.26302 0.17949 0.0
C632 C 0.70956 0.23891 0.22963 0.0
H633 H 0.75076 0.3131 0.28038 0.0
C634 C 0.74443 0.21185 0.22709 0.0
C635 C 0.71165 0.27574 0.24907 0.0
C636 C 0.67469 0.30443 0.25307 0.0
C637 C 0.78171 0.22128 0.24336 0.0
C638 C 0.78379 0.25803 0.26282 0.0
C639 C 0.74893 0.28517 0.26534 0.0
C640 C 0.82167 0.26732 0.28129 0.0
C641 C 0.81867 0.19257 0.23937 0.0
C642 C 0.83964 0.22468 0.29631 0.0
C643 C 0.87577 0.23279 0.31352 0.0
C644 C 0.89447 0.28388 0.31615 0.0
C645 C 0.87586 0.32699 0.30148 0.0
C646 C 0.83959 0.31875 0.28418 0.0
H647 H 0.81405 0.17729 0.2204 0.0
H648 H 0.84531 0.2198 0.2433 0.0
H649 H 0.82543 0.15739 0.25189 0.0
H650 H 0.82573 0.18503 0.29468 0.0
H651 H 0.88914 0.1988 0.32466 0.0
H652 H 0.60132 0.37739 0.68806 0.0
H653 H 0.66656 0.36561 0.71718 0.0
H654 H 0.66956 0.19861 0.69552 0.0
H655 H 0.60495 0.20993 0.66631 0.0
H656 H 0.6813 0.28977 0.75607 0.0
H657 H 0.78188 0.25529 0.69326 0.0
H658 H 0.73254 0.28567 0.68342 0.0
H659 H 0.73753 0.21359 0.68722 0.0
C660 C 0.61622 0.33843 0.68923 0.0
C661 C 0.59807 0.29462 0.67488 0.0
C662 C 0.65334 0.33176 0.70588 0.0
C663 C 0.67293 0.28144 0.70821 0.0
C664 C 0.65522 0.238 0.69363 0.0
H665 H 0.88607 0.14395 0.80431 0.0
H666 H 0.82204 0.15789 0.77428 0.0
C667 C 0.61817 0.24452 0.67706 0.0
C668 C 0.71057 0.27301 0.727 0.0
H669 H 0.80895 0.2349 0.73515 0.0
C670 C 0.70933 0.27821 0.75155 0.0
C671 C 0.74683 0.25747 0.72091 0.0
C672 C 0.75004 0.2531 0.69477 0.0
C673 C 0.74342 0.26734 0.7703 0.0
C674 C 0.77965 0.25169 0.76421 0.0
C675 C 0.78093 0.24658 0.73966 0.0
C676 C 0.81707 0.24245 0.78306 0.0
C677 C 0.74022 0.27167 0.79644 0.0
C678 C 0.83522 0.28547 0.79777 0.0
C679 C 0.87157 0.27772 0.81486 0.0
C680 C 0.8905 0.22678 0.81746 0.0
C681 C 0.87204 0.18353 0.80284 0.0
C682 C 0.83563 0.19143 0.78565 0.0
H683 H 0.70834 0.27044 0.79794 0.0
H684 H 0.75713 0.23849 0.80766 0.0
H685 H 0.75345 0.31071 0.80415 0.0
H686 H 0.82164 0.32534 0.7957 0.0
H687 H 0.88507 0.31192 0.82579 0.0
H688 H 0.10774 0.63674 0.6889 0.0
H689 H 0.17198 0.65303 0.71836 0.0
H690 H 0.16801 0.82063 0.69668 0.0
H691 H 0.10389 0.8051 0.66744 0.0
H692 H 0.24572 0.69476 0.71027 0.0
H693 H 0.18135 0.82719 0.77111 0.0
H694 H 0.15045 0.78432 0.74822 0.0
H695 H 0.16958 0.84722 0.73962 0.0
C696 C 0.12066 0.67698 0.69032 0.0
C697 C 0.10066 0.71968 0.67595 0.0
C698 C 0.15725 0.68621 0.70716 0.0
C699 C 0.1742 0.73821 0.70991 0.0
C700 C 0.1549 0.78049 0.69513 0.0
H701 H 0.39186 0.8723 0.80432 0.0
H702 H 0.32836 0.85971 0.77363 0.0
C703 C 0.11838 0.7714 0.67836 0.0
C704 C 0.21221 0.74836 0.7282 0.0
H705 H 0.2526 0.81985 0.77994 0.0
C706 C 0.24728 0.72194 0.72556 0.0
C707 C 0.21397 0.7841 0.74799 0.0
C708 C 0.1768 0.81205 0.75212 0.0
C709 C 0.28436 0.73073 0.74214 0.0
C710 C 0.28606 0.76613 0.76204 0.0
C711 C 0.25106 0.79288 0.76458 0.0
C712 C 0.32368 0.7743 0.78091 0.0
C713 C 0.3215 0.70261 0.73807 0.0
C714 C 0.3413 0.7307 0.79543 0.0
C715 C 0.37732 0.73769 0.8129 0.0
C716 C 0.39627 0.78858 0.81628 0.0
C717 C 0.37797 0.83263 0.80214 0.0
C718 C 0.34181 0.82552 0.7846 0.0
H719 H 0.31727 0.68865 0.71892 0.0
H720 H 0.34816 0.72976 0.74258 0.0
H721 H 0.32797 0.6666 0.75011 0.0
H722 H 0.32723 0.69115 0.79317 0.0
H723 H 0.39045 0.70298 0.8236 0.0
H724 H 0.35845 0.64886 0.32662 0.0
H725 H 0.29472 0.67061 0.29762 0.0
H726 H 0.35573 0.79194 0.26451 0.0
H727 H 0.4184 0.77296 0.2945 0.0
H728 H 0.2898 0.83148 0.26964 0.0
H729 H 0.25513 0.62835 0.22888 0.0
H730 H 0.25925 0.62722 0.2611 0.0
H731 H 0.30274 0.64363 0.24952 0.0
C732 C 0.35808 0.6798 0.31298 0.0
C733 C 0.39309 0.7092 0.31265 0.0
C734 C 0.32181 0.69199 0.29632 0.0
C735 C 0.32051 0.73226 0.27853 0.0
C736 C 0.35587 0.76079 0.27804 0.0
H737 H 0.12119 0.76191 0.15216 0.0
H738 H 0.18673 0.74733 0.1803 0.0
C739 C 0.39169 0.7498 0.2951 0.0
C740 C 0.28221 0.74655 0.26099 0.0
H741 H 0.20234 0.69356 0.21948 0.0
C742 C 0.27087 0.80132 0.25849 0.0
C743 C 0.25772 0.7074 0.24621 0.0
C744 C 0.26956 0.6485 0.24636 0.0
C745 C 0.23594 0.81809 0.24159 0.0
C746 C 0.21046 0.77865 0.22765 0.0
C747 C 0.2217 0.72386 0.23025 0.0
C748 C 0.17232 0.79287 0.20995 0.0
C749 C 0.22762 0.87798 0.23839 0.0
C750 C 0.14266 0.82433 0.21701 0.0
C751 C 0.10575 0.83433 0.2006 0.0
C752 C 0.0975 0.81129 0.17725 0.0
C753 C 0.1271 0.78019 0.17011 0.0
C754 C 0.16438 0.77164 0.18621 0.0
H755 H 0.25588 0.90196 0.24378 0.0
H756 H 0.21266 0.88811 0.21923 0.0
H757 H 0.20766 0.89066 0.25031 0.0
H758 H 0.14743 0.83969 0.23543 0.0
H759 H 0.08293 0.85759 0.20658 0.0
H760 H 0.35924 0.13537 0.19997 0.0
H761 H 0.31139 0.14769 0.22562 0.0
H762 H 0.30842 0.31927 0.21151 0.0
H763 H 0.35598 0.3074 0.18556 0.0
H764 H 0.3162 0.212 0.2674 0.0
H765 H 0.18899 0.27479 0.19134 0.0
H766 H 0.23413 0.24341 0.18632 0.0
H767 H 0.23427 0.31385 0.19424 0.0
C768 C 0.3486 0.17582 0.20239 0.0
C769 C 0.36118 0.22037 0.19053 0.0
C770 C 0.32124 0.18274 0.21706 0.0
C771 C 0.30581 0.23421 0.22007 0.0
C772 C 0.31933 0.27903 0.20897 0.0
H773 H 0.13505 0.35805 0.29811 0.0
H774 H 0.18325 0.34512 0.27275 0.0
C775 C 0.3467 0.27219 0.19428 0.0
C776 C 0.27538 0.24079 0.23473 0.0
H777 H 0.17828 0.28048 0.23123 0.0
C778 C 0.28599 0.22678 0.25951 0.0
C779 C 0.236 0.25999 0.22432 0.0
C780 C 0.2224 0.27346 0.19755 0.0
C781 C 0.25848 0.23247 0.27432 0.0
C782 C 0.21911 0.25174 0.26392 0.0
C783 C 0.20849 0.26567 0.23913 0.0
C784 C 0.18872 0.25867 0.27858 0.0
C785 C 0.27207 0.21902 0.30109 0.0
C786 C 0.17508 0.21409 0.28978 0.0
C787 C 0.14749 0.22129 0.30432 0.0
C788 C 0.13293 0.27321 0.3078 0.0
C789 C 0.14574 0.31752 0.2959 0.0
C790 C 0.17331 0.31026 0.28139 0.0
H791 H 0.30548 0.21753 0.30729 0.0
H792 H 0.26043 0.24916 0.31232 0.0
H793 H 0.26009 0.1787 0.30442 0.0
H794 H 0.18596 0.17376 0.2874 0.0
H795 H 0.13803 0.18627 0.31308 0.0
H796 H 0.35766 0.19472 0.68833 0.0
H797 H 0.30848 0.18379 0.71329 0.0
H798 H 0.3142 0.35489 0.72861 0.0
H799 H 0.36294 0.36645 0.70351 0.0
H800 H 0.31268 0.20985 0.76264 0.0
H801 H 0.19348 0.3277 0.69952 0.0
H802 H 0.23804 0.30326 0.69093 0.0
H803 H 0.24063 0.36265 0.70961 0.0
C804 C 0.34869 0.23 0.69714 0.0
C805 C 0.36393 0.28155 0.69372 0.0
C806 C 0.32057 0.22366 0.71138 0.0
C807 C 0.30712 0.26871 0.72235 0.0
C808 C 0.32354 0.31981 0.71983 0.0
H809 H 0.13419 0.31773 0.81077 0.0
H810 H 0.18412 0.32783 0.78629 0.0
C811 C 0.35161 0.32624 0.7056 0.0
C812 C 0.2755 0.26238 0.73616 0.0
H813 H 0.17982 0.3013 0.73713 0.0
C814 C 0.28356 0.22963 0.75704 0.0
C815 C 0.23756 0.28826 0.72874 0.0
C816 C 0.22663 0.32208 0.70586 0.0
C817 C 0.25492 0.22288 0.77103 0.0
C818 C 0.217 0.24883 0.76363 0.0
C819 C 0.20893 0.28152 0.74273 0.0
C820 C 0.18539 0.24277 0.77747 0.0
C821 C 0.26582 0.18903 0.7939 0.0
C822 C 0.16877 0.19182 0.78002 0.0
C823 C 0.14024 0.18586 0.79397 0.0
C824 C 0.12767 0.23087 0.80555 0.0
C825 C 0.14333 0.2822 0.8022 0.0
C826 C 0.17188 0.28808 0.78823 0.0
H827 H 0.29896 0.18326 0.80022 0.0
H828 H 0.25448 0.20789 0.80884 0.0
H829 H 0.25171 0.14852 0.79014 0.0
H830 H 0.17815 0.15654 0.7714 0.0
H831 H 0.12862 0.1458 0.79604 0.0
H832 H 0.64049 0.68986 0.81235 0.0
H833 H 0.68971 0.67824 0.78746 0.0
H834 H 0.68379 0.84898 0.77132 0.0
H835 H 0.63505 0.86123 0.79637 0.0
H836 H 0.68445 0.7024 0.73812 0.0
H837 H 0.80467 0.82267 0.7991 0.0
H838 H 0.76053 0.799 0.80839 0.0
H839 H 0.75745 0.85757 0.78916 0.0
C840 C 0.64952 0.72493 0.80343 0.0
C841 C 0.63411 0.77656 0.80653 0.0
C842 C 0.67766 0.7182 0.78923 0.0
C843 C 0.69098 0.76293 0.77798 0.0
C844 C 0.67459 0.81415 0.78032 0.0
H845 H 0.85866 0.8087 0.68586 0.0
H846 H 0.81025 0.81976 0.71132 0.0
C847 C 0.64651 0.82097 0.79451 0.0
C848 C 0.72209 0.75604 0.76382 0.0
H849 H 0.81697 0.79531 0.76122 0.0
C850 C 0.71351 0.72246 0.74321 0.0
C851 C 0.75995 0.78233 0.77055 0.0
C852 C 0.77148 0.81704 0.79313 0.0
C853 C 0.74151 0.71528 0.72882 0.0
C854 C 0.77933 0.74167 0.73552 0.0
C855 C 0.78794 0.77519 0.75615 0.0
C856 C 0.81024 0.7352 0.72121 0.0
C857 C 0.73004 0.6805 0.70627 0.0
C858 C 0.8271 0.68426 0.71893 0.0
C859 C 0.85477 0.67777 0.70443 0.0
C860 C 0.8662 0.72221 0.69201 0.0
C861 C 0.85037 0.7736 0.69508 0.0
C862 C 0.8227 0.78002 0.70961 0.0
H863 H 0.69691 0.67414 0.70047 0.0
H864 H 0.74051 0.69896 0.69092 0.0
H865 H 0.74462 0.64029 0.71015 0.0
H866 H 0.81852 0.64938 0.72817 0.0
H867 H 0.86654 0.63768 0.70259 0.0
H868 H 0.85776 0.85879 0.20165 0.0
H869 H 0.81067 0.84035 0.22719 0.0
H870 H 0.81345 0.67027 0.21064 0.0
H871 H 0.86102 0.68814 0.18523 0.0
H872 H 0.73419 0.79367 0.21107 0.0
H873 H 0.8309 0.67191 0.2851 0.0
H874 H 0.8514 0.71291 0.26445 0.0
H875 H 0.8291 0.64836 0.25475 0.0
C876 C 0.84882 0.81732 0.20367 0.0
C877 C 0.86316 0.77491 0.19138 0.0
C878 C 0.82182 0.80691 0.21824 0.0
C879 C 0.80883 0.75394 0.22095 0.0
C880 C 0.82363 0.71134 0.20911 0.0
H881 H 0.6365 0.62121 0.29722 0.0
H882 H 0.68387 0.63412 0.27122 0.0
C883 C 0.85069 0.72169 0.19451 0.0
C884 C 0.77812 0.74391 0.23511 0.0
H885 H 0.76159 0.6783 0.28507 0.0
C886 C 0.74018 0.76856 0.22729 0.0
C887 C 0.786 0.71086 0.25616 0.0
C888 C 0.82664 0.68478 0.2658 0.0
C889 C 0.70976 0.76084 0.23989 0.0
C890 C 0.71778 0.72832 0.2611 0.0
C891 C 0.75556 0.70317 0.26878 0.0
C892 C 0.68771 0.72097 0.27595 0.0
C893 C 0.66912 0.78689 0.23017 0.0
C894 C 0.67423 0.76555 0.28721 0.0
C895 C 0.64711 0.75839 0.30202 0.0
C896 C 0.6332 0.70639 0.30599 0.0
C897 C 0.64652 0.66182 0.29449 0.0
C898 C 0.67367 0.66906 0.27969 0.0
H899 H 0.66434 0.79762 0.21058 0.0
H900 H 0.64433 0.75972 0.23241 0.0
H901 H 0.66733 0.82469 0.24047 0.0
H902 H 0.68527 0.80583 0.28492 0.0
H903 H 0.63758 0.79355 0.31066 0.0
H904 H 0.31277 0.29481 0.60562 0.0
H905 H 0.25634 0.27479 0.57111 0.0
H906 H 0.33633 0.18509 0.53671 0.0
H907 H 0.39202 0.20234 0.57143 0.0
H908 H 0.25338 0.31325 0.52848 0.0
H909 H 0.23959 0.09183 0.51841 0.0
H910 H 0.26843 0.12312 0.54594 0.0
H911 H 0.29075 0.11167 0.52041 0.0
C912 C 0.31803 0.26954 0.591 0.0
C913 C 0.35694 0.25079 0.59109 0.0
C914 C 0.28578 0.25803 0.57134 0.0
C915 C 0.29204 0.22811 0.5514 0.0
C916 C 0.33043 0.20697 0.55212 0.0
H917 H 0.17339 0.30125 0.40334 0.0
H918 H 0.22235 0.28569 0.44197 0.0
C919 C 0.36246 0.21754 0.57193 0.0
C920 C 0.26065 0.22655 0.52836 0.0
H921 H 0.21592 0.14421 0.4812 0.0
C922 C 0.24466 0.27609 0.51838 0.0
C923 C 0.24904 0.1781 0.51522 0.0
C924 C 0.26258 0.12322 0.52573 0.0
C925 C 0.21852 0.27883 0.49528 0.0
C926 C 0.20946 0.23093 0.48137 0.0
C927 C 0.22398 0.18103 0.49167 0.0
C928 C 0.18355 0.2321 0.45646 0.0
C929 C 0.20068 0.33303 0.48612 0.0
C930 C 0.14699 0.2038 0.45124 0.0
C931 C 0.11934 0.21169 0.42906 0.0
C932 C 0.12768 0.2485 0.41185 0.0
C933 C 0.16577 0.27335 0.41636 0.0
C934 C 0.19365 0.26479 0.43846 0.0
H935 H 0.20127 0.36168 0.50137 0.0
H936 H 0.21866 0.35113 0.47413 0.0
H937 H 0.169 0.32877 0.47548 0.0
H938 H 0.13891 0.1779 0.46483 0.0
H939 H 0.09054 0.19118 0.42607 0.0
H940 H 0.89475 0.79203 0.56759 0.0
H941 H 0.83909 0.80446 0.53226 0.0
H942 H 0.76039 0.7162 0.56809 0.0
H943 H 0.81673 0.70119 0.60327 0.0
H944 H 0.7583 0.67462 0.52579 0.0
H945 H 0.74074 0.8954 0.51313 0.0
H946 H 0.79207 0.87603 0.51531 0.0
H947 H 0.76999 0.86596 0.54101 0.0
C948 C 0.86546 0.77612 0.56824 0.0
C949 C 0.86028 0.74493 0.58811 0.0
C950 C 0.83347 0.78386 0.54806 0.0
C951 C 0.79545 0.76183 0.54762 0.0
C952 C 0.78953 0.73361 0.56809 0.0
H953 H 0.5899 0.79097 0.4242 0.0
H954 H 0.63928 0.80496 0.46254 0.0
C955 C 0.82173 0.725 0.58815 0.0
C956 C 0.76391 0.76143 0.52462 0.0
H957 H 0.71591 0.8406 0.47706 0.0
C958 C 0.74857 0.71107 0.51534 0.0
C959 C 0.75102 0.80898 0.51106 0.0
C960 C 0.76404 0.86462 0.52081 0.0
C961 C 0.72158 0.7067 0.49256 0.0
C962 C 0.7109 0.75379 0.47827 0.0
C963 C 0.72505 0.80443 0.48784 0.0
C964 C 0.68376 0.75109 0.45372 0.0
C965 C 0.70449 0.65167 0.48421 0.0
C966 C 0.69329 0.71811 0.43563 0.0
C967 C 0.66485 0.70919 0.41379 0.0
C968 C 0.62675 0.73399 0.40957 0.0
C969 C 0.61874 0.77063 0.42694 0.0
C970 C 0.64697 0.77887 0.44888 0.0
H971 H 0.70641 0.62361 0.49983 0.0
H972 H 0.67244 0.65462 0.47405 0.0
H973 H 0.72207 0.63365 0.47197 0.0
H974 H 0.72212 0.69759 0.43882 0.0
H975 H 0.6722 0.68141 0.40063 0.0
H976 H 0.81467 0.78959 0.10282 0.0
H977 H 0.76041 0.76756 0.06744 0.0
H978 H 0.84633 0.69063 0.03316 0.0
H979 H 0.9002 0.71017 0.06873 0.0
H980 H 0.75852 0.81119 0.02533 0.0
H981 H 0.75348 0.58953 0.01266 0.0
H982 H 0.77973 0.62087 0.04084 0.0
H983 H 0.8037 0.61466 0.01574 0.0
C984 C 0.8218 0.76669 0.08801 0.0
C985 C 0.86179 0.75231 0.08841 0.0
C986 C 0.79077 0.754 0.06786 0.0
C987 C 0.79929 0.72721 0.04771 0.0
C988 C 0.83882 0.71013 0.04869 0.0
H989 H 0.67611 0.8018 0.90039 0.0
H990 H 0.72701 0.78486 0.93806 0.0
C991 C 0.86974 0.72196 0.06899 0.0
C992 C 0.76859 0.72516 0.02438 0.0
H993 H 0.72581 0.64312 0.97663 0.0
C994 C 0.75095 0.77423 0.01488 0.0
C995 C 0.75865 0.67694 0.01079 0.0
C996 C 0.77461 0.62249 0.02068 0.0
C997 C 0.72441 0.77676 0.99191 0.0
C998 C 0.71642 0.72919 0.97769 0.0
C999 C 0.73292 0.6797 0.98741 0.0
C1000 C 0.6895 0.73038 0.95308 0.0
C1001 C 0.70489 0.83035 0.98324 0.0
C1002 C 0.65286 0.70228 0.94849 0.0
C1003 C 0.62394 0.71121 0.92688 0.0
C1004 C 0.63119 0.74879 0.90965 0.0
C1005 C 0.66932 0.77334 0.91346 0.0
C1006 C 0.69838 0.76386 0.93498 0.0
H1007 H 0.70572 0.85865 -0.00135 0.0
H1008 H 0.72144 0.84957 0.97073 0.0
H1009 H 0.67297 0.82481 0.97321 0.0
H1010 H 0.6457 0.67589 0.96221 0.0
H1011 H 0.59511 0.69097 0.9244 0.0
H1012 H 0.31581 0.19527 0.09647 0.0
H1013 H 0.26383 0.21344 0.05937 0.0
H1014 H 0.34494 0.3211 0.03424 0.0
H1015 H 0.39632 0.30523 0.07149 0.0
H1016 H 0.26798 0.35667 0.02089 0.0
H1017 H 0.27778 0.13962 0.99787 0.0
H1018 H 0.26291 0.15004 0.02596 0.0
H1019 H 0.31228 0.17083 0.02334 0.0
C1020 C 0.32231 0.22364 0.08328 0.0
C1021 C 0.36054 0.24776 0.08668 0.0
C1022 C 0.29268 0.23375 0.06207 0.0
C1023 C 0.30116 0.26723 0.04383 0.0
C1024 C 0.33804 0.29467 0.04803 0.0
H1025 H 0.17301 0.2174 0.89395 0.0
H1026 H 0.22775 0.23359 0.92986 0.0
C1027 C 0.36744 0.28526 0.06933 0.0
C1028 C 0.27332 0.26992 0.01953 0.0
H1029 H 0.22696 0.19105 0.97166 0.0
C1030 C 0.25903 0.32058 0.01003 0.0
C1031 C 0.2629 0.2229 0.00515 0.0
C1032 C 0.28009 0.16786 0.01346 0.0
C1033 C 0.2335 0.32527 0.98668 0.0
C1034 C 0.22122 0.27783 0.97291 0.0
C1035 C 0.23634 0.22742 0.98225 0.0
C1036 C 0.19082 0.27834 0.94946 0.0
C1037 C 0.22046 0.38094 0.97696 0.0
C1038 C 0.15236 0.29974 0.94827 0.0
C1039 C 0.12128 0.29138 0.92766 0.0
C1040 C 0.12788 0.26014 0.90814 0.0
C1041 C 0.16693 0.24116 0.90881 0.0
C1042 C 0.19821 0.25045 0.92928 0.0
H1043 H 0.24324 0.41194 0.98512 0.0
H1044 H 0.21551 0.38266 0.95681 0.0
H1045 H 0.19183 0.39171 0.9819 0.0
H1046 H 0.14564 0.32016 0.96382 0.0
H1047 H 0.09156 0.30661 0.92773 0.0
loop_
_geom_bond_atom_site_label_1
_geom_bond_atom_site_label_2
_geom_bond_distance
_geom_bond_site_symmetry_2
_ccdc_geom_bond_type
Co0 O2 2.143 . S
Co0 O8 2.074 . S
Co0 O11 2.093 . S
Co0 O24 2.097 . S
Co0 N41 2.151 . S
Co0 N49 2.214 . S
Co1 O2 2.160 . S
Co1 O7 2.058 . S
Co1 O17 2.057 1_455 S
Co1 O32 2.037 . S
Co1 N36 2.145 1_455 S
Co1 N57 2.257 . S
O2 Co0 2.143 . S
O2 Co1 2.160 . S
C3 O4 1.278 . S
C3 O11 1.224 . S
O4 C3 1.278 . S
C5 O6 1.245 . S
C5 O17 1.232 . S
O6 C5 1.245 . S
O7 Co1 2.058 . S
O7 C33 1.269 . S
O8 Co0 2.074 . S
O8 C33 1.257 . S
H9 C34 0.930 . S
H10 C40 0.930 . S
O11 Co0 2.093 . S
O11 C3 1.224 . S
H12 C44 0.929 . S
H13 C46 0.930 . S
H14 C47 0.930 . S
H15 C45 0.929 . S
H16 C48 0.928 . S
O17 Co1 2.057 1_655 S
O17 C5 1.232 . S
H18 C37 0.929 . S
H19 C38 0.929 . S
H20 C50 0.931 . S
H21 C42 0.929 . S
H22 C51 0.930 . S
H23 C43 0.931 . S
O24 Co0 2.097 . S
O24 C52 1.214 . S
H25 C53 0.929 . S
H26 C54 0.929 . S
H27 C55 0.930 . S
H28 C56 0.929 . S
H29 C58 0.930 . S
H30 C35 0.930 . S
H31 C39 0.930 . S
O32 Co1 2.037 . S
O32 C52 1.234 . S
C33 O7 1.269 . S
C33 O8 1.257 . S
C34 H9 0.930 . S
C34 C37 1.388 1_655 S
C34 C39 1.418 . S
C35 H30 0.930 . S
C35 C38 1.404 . S
C35 C39 1.353 . S
N36 Co1 2.145 1_655 S
N36 C37 1.397 1_655 S
N36 C38 1.334 . S
C37 H18 0.929 . S
C37 C34 1.388 1_455 S
C37 N36 1.397 1_455 S
C38 H19 0.929 . S
C38 C35 1.404 . S
C38 N36 1.334 . S
C39 H31 0.930 . S
C39 C34 1.418 . S
C39 C35 1.353 . S
C40 H10 0.930 . S
C40 N41 1.330 . S
C40 C42 1.446 . S
N41 Co0 2.151 . S
N41 C40 1.330 . S
N41 C45 1.418 . S
C42 H21 0.929 . S
C42 C40 1.446 . S
C42 C43 1.332 . S
C43 H23 0.931 . S
C43 C42 1.332 . S
C43 C44 1.267 . S
C44 H12 0.929 . S
C44 C43 1.267 . S
C44 C45 1.251 . S
C45 H15 0.929 . S
C45 N41 1.418 . S
C45 C44 1.251 . S
C46 H13 0.930 . S
C46 C48 1.406 . S
C46 C51 1.261 . S
C47 H14 0.930 . S
C47 N49 1.325 . S
C47 C50 1.357 . S
C48 H16 0.928 . S
C48 C46 1.406 . S
C48 N49 1.261 . S
N49 Co0 2.214 . S
N49 C47 1.325 . S
N49 C48 1.261 . S
C50 H20 0.931 . S
C50 C47 1.357 . S
C50 C51 1.312 . S
C51 H22 0.930 . S
C51 C46 1.261 . S
C51 C50 1.312 . S
C52 O24 1.214 . S
C52 O32 1.234 . S
C53 H25 0.929 . S
C53 C56 1.391 . S
C53 C58 1.391 . S
C54 H26 0.929 . S
C54 C55 1.390 . S
C54 N57 1.391 . S
C55 H27 0.930 . S
C55 C54 1.390 . S
C55 C56 1.392 . S
C56 H28 0.929 . S
C56 C53 1.391 . S
C56 C55 1.392 . S
N57 Co1 2.257 . S
N57 C54 1.391 . S
N57 C58 1.388 . S
C58 H29 0.930 . S
C58 C53 1.391 . S
C58 N57 1.388 . S
Co59 O61 2.143 . S
Co59 O67 2.074 . S
Co59 O70 2.093 . S
Co59 O83 2.097 . S
Co59 N100 2.151 . S
Co59 N108 2.214 . S
Co60 O61 2.160 . S
Co60 O66 2.058 . S
Co60 O76 2.057 . S
Co60 O91 2.037 . S
Co60 N95 2.145 . S
Co60 N116 2.257 . S
O61 Co59 2.143 . S
O61 Co60 2.160 . S
C62 O63 1.278 . S
C62 O70 1.224 . S
O63 C62 1.278 . S
C64 O65 1.245 . S
C64 O76 1.232 . S
O65 C64 1.245 . S
O66 Co60 2.058 . S
O66 C92 1.269 . S
O67 Co59 2.074 . S
O67 C92 1.257 . S
H68 C93 0.930 . S
H69 C99 0.930 . S
O70 Co59 2.093 . S
O70 C62 1.224 . S
H71 C103 0.929 . S
H72 C105 0.930 . S
H73 C106 0.930 . S
H74 C104 0.929 . S
H75 C107 0.928 . S
O76 Co60 2.057 . S
O76 C64 1.232 . S
H77 C96 0.929 . S
H78 C97 0.929 . S
H79 C109 0.931 . S
H80 C101 0.929 . S
H81 C110 0.930 . S
H82 C102 0.931 . S
O83 Co59 2.097 . S
O83 C111 1.214 . S
H84 C112 0.929 . S
H85 C113 0.929 . S
H86 C114 0.930 . S
H87 C115 0.929 . S
H88 C117 0.930 . S
H89 C94 0.930 . S
H90 C98 0.930 . S
O91 Co60 2.037 . S
O91 C111 1.234 . S
C92 O66 1.269 . S
C92 O67 1.257 . S
C93 H68 0.930 . S
C93 C96 1.388 . S
C93 C98 1.418 . S
C94 H89 0.930 . S
C94 C97 1.404 . S
C94 C98 1.353 . S
N95 Co60 2.145 . S
N95 C96 1.397 . S
N95 C97 1.334 . S
C96 H77 0.929 . S
C96 C93 1.388 . S
C96 N95 1.397 . S
C97 H78 0.929 . S
C97 C94 1.404 . S
C97 N95 1.334 . S
C98 H90 0.930 . S
C98 C93 1.418 . S
C98 C94 1.353 . S
C99 H69 0.930 . S
C99 N100 1.330 . S
C99 C101 1.446 . S
N100 Co59 2.151 . S
N100 C99 1.330 . S
N100 C104 1.418 . S
C101 H80 0.929 . S
C101 C99 1.446 . S
C101 C102 1.332 . S
C102 H82 0.931 . S
C102 C101 1.332 . S
C102 C103 1.267 . S
C103 H71 0.929 . S
C103 C102 1.267 . S
C103 C104 1.251 . S
C104 H74 0.929 . S
C104 N100 1.418 . S
C104 C103 1.251 . S
C105 H72 0.930 . S
C105 C107 1.406 . S
C105 C110 1.261 . S
C106 H73 0.930 . S
C106 N108 1.325 . S
C106 C109 1.357 . S
C107 H75 0.928 . S
C107 C105 1.406 . S
C107 N108 1.261 . S
N108 Co59 2.214 . S
N108 C106 1.325 . S
N108 C107 1.261 . S
C109 H79 0.931 . S
C109 C106 1.357 . S
C109 C110 1.312 . S
C110 H81 0.930 . S
C110 C105 1.261 . S
C110 C109 1.312 . S
C111 O83 1.214 . S
C111 O91 1.234 . S
C112 H84 0.929 . S
C112 C115 1.391 . S
C112 C117 1.391 . S
C113 H85 0.929 . S
C113 C114 1.390 . S
C113 N116 1.391 . S
C114 H86 0.930 . S
C114 C113 1.390 . S
C114 C115 1.392 . S
C115 H87 0.929 . S
C115 C112 1.391 . S
C115 C114 1.392 . S
N116 Co60 2.257 . S
N116 C113 1.391 . S
N116 C117 1.388 . S
C117 H88 0.930 . S
C117 C112 1.391 . S
C117 N116 1.388 . S
Co118 O120 2.143 . S
Co118 O126 2.074 . S
Co118 O129 2.093 . S
Co118 O142 2.097 . S
Co118 N159 2.151 . S
Co118 N167 2.214 . S
Co119 O120 2.160 . S
Co119 O125 2.058 . S
Co119 O135 2.057 1_655 S
Co119 O150 2.037 . S
Co119 N154 2.145 1_655 S
Co119 N175 2.257 . S
O120 Co118 2.143 . S
O120 Co119 2.160 . S
C121 O122 1.278 . S
C121 O129 1.224 . S
O122 C121 1.278 . S
C123 O124 1.245 . S
C123 O135 1.232 . S
O124 C123 1.245 . S
O125 Co119 2.058 . S
O125 C151 1.269 . S
O126 Co118 2.074 . S
O126 C151 1.257 . S
H127 C152 0.930 . S
H128 C158 0.930 . S
O129 Co118 2.093 . S
O129 C121 1.224 . S
H130 C162 0.929 . S
H131 C164 0.930 . S
H132 C165 0.930 . S
H133 C163 0.929 . S
H134 C166 0.928 . S
O135 Co119 2.057 1_455 S
O135 C123 1.232 . S
H136 C155 0.929 . S
H137 C156 0.929 . S
H138 C168 0.931 . S
H139 C160 0.929 . S
H140 C169 0.930 . S
H141 C161 0.931 . S
O142 Co118 2.097 . S
O142 C170 1.214 . S
H143 C171 0.929 . S
H144 C172 0.929 . S
H145 C173 0.930 . S
H146 C174 0.929 . S
H147 C176 0.930 . S
H148 C153 0.930 . S
H149 C157 0.930 . S
O150 Co119 2.037 . S
O150 C170 1.234 . S
C151 O125 1.269 . S
C151 O126 1.257 . S
C152 H127 0.930 . S
C152 C155 1.388 1_455 S
C152 C157 1.418 . S
C153 H148 0.930 . S
C153 C156 1.404 . S
C153 C157 1.353 . S
N154 Co119 2.145 1_455 S
N154 C155 1.397 1_455 S
N154 C156 1.334 . S
C155 H136 0.929 . S
C155 C152 1.388 1_655 S
C155 N154 1.397 1_655 S
C156 H137 0.929 . S
C156 C153 1.404 . S
C156 N154 1.334 . S
C157 H149 0.930 . S
C157 C152 1.418 . S
C157 C153 1.353 . S
C158 H128 0.930 . S
C158 N159 1.330 . S
C158 C160 1.446 . S
N159 Co118 2.151 . S
N159 C158 1.330 . S
N159 C163 1.418 . S
C160 H139 0.929 . S
C160 C158 1.446 . S
C160 C161 1.332 . S
C161 H141 0.931 . S
C161 C160 1.332 . S
C161 C162 1.267 . S
C162 H130 0.929 . S
C162 C161 1.267 . S
C162 C163 1.251 . S
C163 H133 0.929 . S
C163 N159 1.418 . S
C163 C162 1.251 . S
C164 H131 0.930 . S
C164 C166 1.406 . S
C164 C169 1.261 . S
C165 H132 0.930 . S
C165 N167 1.325 . S
C165 C168 1.357 . S
C166 H134 0.928 . S
C166 C164 1.406 . S
C166 N167 1.261 . S
N167 Co118 2.214 . S
N167 C165 1.325 . S
N167 C166 1.261 . S
C168 H138 0.931 . S
C168 C165 1.357 . S
C168 C169 1.312 . S
C169 H140 0.930 . S
C169 C164 1.261 . S
C169 C168 1.312 . S
C170 O142 1.214 . S
C170 O150 1.234 . S
C171 H143 0.929 . S
C171 C174 1.391 . S
C171 C176 1.391 . S
C172 H144 0.929 . S
C172 C173 1.390 . S
C172 N175 1.391 . S
C173 H145 0.930 . S
C173 C172 1.390 . S
C173 C174 1.392 . S
C174 H146 0.929 . S
C174 C171 1.391 . S
C174 C173 1.392 . S
N175 Co119 2.257 . S
N175 C172 1.391 . S
N175 C176 1.388 . S
C176 H147 0.930 . S
C176 C171 1.391 . S
C176 N175 1.388 . S
Co177 O179 2.143 . S
Co177 O185 2.074 . S
Co177 O188 2.093 . S
Co177 O201 2.097 . S
Co177 N218 2.151 . S
Co177 N226 2.214 . S
Co178 O179 2.160 . S
Co178 O184 2.058 . S
Co178 O194 2.057 . S
Co178 O209 2.037 . S
Co178 N213 2.145 . S
Co178 N234 2.257 . S
O179 Co177 2.143 . S
O179 Co178 2.160 . S
C180 O181 1.278 . S
C180 O188 1.224 . S
O181 C180 1.278 . S
C182 O183 1.245 . S
C182 O194 1.232 . S
O183 C182 1.245 . S
O184 Co178 2.058 . S
O184 C210 1.269 . S
O185 Co177 2.074 . S
O185 C210 1.257 . S
H186 C211 0.930 . S
H187 C217 0.930 . S
O188 Co177 2.093 . S
O188 C180 1.224 . S
H189 C221 0.929 . S
H190 C223 0.930 . S
H191 C224 0.930 . S
H192 C222 0.929 . S
H193 C225 0.928 . S
O194 Co178 2.057 . S
O194 C182 1.232 . S
H195 C214 0.929 . S
H196 C215 0.929 . S
H197 C227 0.931 . S
H198 C219 0.929 . S
H199 C228 0.930 . S
H200 C220 0.931 . S
O201 Co177 2.097 . S
O201 C229 1.214 . S
H202 C230 0.929 . S
H203 C231 0.929 . S
H204 C232 0.930 . S
H205 C233 0.929 . S
H206 C235 0.930 . S
H207 C212 0.930 . S
H208 C216 0.930 . S
O209 Co178 2.037 . S
O209 C229 1.234 . S
C210 O184 1.269 . S
C210 O185 1.257 . S
C211 H186 0.930 . S
C211 C214 1.388 . S
C211 C216 1.418 . S
C212 H207 0.930 . S
C212 C215 1.404 . S
C212 C216 1.353 . S
N213 Co178 2.145 . S
N213 C214 1.397 . S
N213 C215 1.334 . S
C214 H195 0.929 . S
C214 C211 1.388 . S
C214 N213 1.397 . S
C215 H196 0.929 . S
C215 C212 1.404 . S
C215 N213 1.334 . S
C216 H208 0.930 . S
C216 C211 1.418 . S
C216 C212 1.353 . S
C217 H187 0.930 . S
C217 N218 1.330 . S
C217 C219 1.446 . S
N218 Co177 2.151 . S
N218 C217 1.330 . S
N218 C222 1.418 . S
C219 H198 0.929 . S
C219 C217 1.446 . S
C219 C220 1.332 . S
C220 H200 0.931 . S
C220 C219 1.332 . S
C220 C221 1.267 . S
C221 H189 0.929 . S
C221 C220 1.267 . S
C221 C222 1.251 . S
C222 H192 0.929 . S
C222 N218 1.418 . S
C222 C221 1.251 . S
C223 H190 0.930 . S
C223 C225 1.406 . S
C223 C228 1.261 . S
C224 H191 0.930 . S
C224 N226 1.325 . S
C224 C227 1.357 . S
C225 H193 0.928 . S
C225 C223 1.406 . S
C225 N226 1.261 . S
N226 Co177 2.214 . S
N226 C224 1.325 . S
N226 C225 1.261 . S
C227 H197 0.931 . S
C227 C224 1.357 . S
C227 C228 1.312 . S
C228 H199 0.930 . S
C228 C223 1.261 . S
C228 C227 1.312 . S
C229 O201 1.214 . S
C229 O209 1.234 . S
C230 H202 0.929 . S
C230 C233 1.391 . S
C230 C235 1.391 . S
C231 H203 0.929 . S
C231 C232 1.390 . S
C231 N234 1.391 . S
C232 H204 0.930 . S
C232 C231 1.390 . S
C232 C233 1.392 . S
C233 H205 0.929 . S
C233 C230 1.391 . S
C233 C232 1.392 . S
N234 Co178 2.257 . S
N234 C231 1.391 . S
N234 C235 1.388 . S
C235 H206 0.930 . S
C235 C230 1.391 . S
C235 N234 1.388 . S
Co236 O238 2.143 . S
Co236 O244 2.074 . S
Co236 O247 2.093 . S
Co236 O260 2.097 . S
Co236 N277 2.151 . S
Co236 N285 2.214 . S
Co237 O238 2.160 . S
Co237 O243 2.058 . S
Co237 O253 2.057 . S
Co237 O268 2.037 . S
Co237 N272 2.145 . S
Co237 N293 2.257 . S
O238 Co236 2.143 . S
O238 Co237 2.160 . S
C239 O240 1.278 . S
C239 O247 1.224 . S
O240 C239 1.278 . S
C241 O242 1.245 . S
C241 O253 1.232 . S
O242 C241 1.245 . S
O243 Co237 2.058 . S
O243 C269 1.269 . S
O244 Co236 2.074 . S
O244 C269 1.257 . S
H245 C270 0.930 . S
H246 C276 0.930 . S
O247 Co236 2.093 . S
O247 C239 1.224 . S
H248 C280 0.929 1_545 S
H249 C282 0.930 . S
H250 C283 0.930 . S
H251 C281 0.929 . S
H252 C284 0.928 . S
O253 Co237 2.057 . S
O253 C241 1.232 . S
H254 C273 0.929 . S
H255 C274 0.929 . S
H256 C286 0.931 . S
H257 C278 0.929 . S
H258 C287 0.930 . S
H259 C279 0.931 . S
O260 Co236 2.097 . S
O260 C288 1.214 . S
H261 C289 0.929 . S
H262 C290 0.929 . S
H263 C291 0.930 . S
H264 C292 0.929 . S
H265 C294 0.930 . S
H266 C271 0.930 . S
H267 C275 0.930 . S
O268 Co237 2.037 . S
O268 C288 1.234 . S
C269 O243 1.269 . S
C269 O244 1.257 . S
C270 H245 0.930 . S
C270 C273 1.388 . S
C270 C275 1.418 . S
C271 H266 0.930 . S
C271 C274 1.404 . S
C271 C275 1.353 . S
N272 Co237 2.145 . S
N272 C273 1.397 . S
N272 C274 1.334 . S
C273 H254 0.929 . S
C273 C270 1.388 . S
C273 N272 1.397 . S
C274 H255 0.929 . S
C274 C271 1.404 . S
C274 N272 1.334 . S
C275 H267 0.930 . S
C275 C270 1.418 . S
C275 C271 1.353 . S
C276 H246 0.930 . S
C276 N277 1.330 . S
C276 C278 1.446 . S
N277 Co236 2.151 . S
N277 C276 1.330 . S
N277 C281 1.418 . S
C278 H257 0.929 . S
C278 C276 1.446 . S
C278 C279 1.332 . S
C279 H259 0.931 . S
C279 C278 1.332 . S
C279 C280 1.267 . S
C280 H248 0.929 1_565 S
C280 C279 1.267 . S
C280 C281 1.251 . S
C281 H251 0.929 . S
C281 N277 1.418 . S
C281 C280 1.251 . S
C282 H249 0.930 . S
C282 C284 1.406 . S
C282 C287 1.261 . S
C283 H250 0.930 . S
C283 N285 1.325 . S
C283 C286 1.357 . S
C284 H252 0.928 . S
C284 C282 1.406 . S
C284 N285 1.261 . S
N285 Co236 2.214 . S
N285 C283 1.325 . S
N285 C284 1.261 . S
C286 H256 0.931 . S
C286 C283 1.357 . S
C286 C287 1.312 . S
C287 H258 0.930 . S
C287 C282 1.261 . S
C287 C286 1.312 . S
C288 O260 1.214 . S
C288 O268 1.234 . S
C289 H261 0.929 . S
C289 C292 1.391 . S
C289 C294 1.391 . S
C290 H262 0.929 . S
C290 C291 1.390 . S
C290 N293 1.391 . S
C291 H263 0.930 . S
C291 C290 1.390 . S
C291 C292 1.392 . S
C292 H264 0.929 . S
C292 C289 1.391 . S
C292 C291 1.392 . S
N293 Co237 2.257 . S
N293 C290 1.391 . S
N293 C294 1.388 . S
C294 H265 0.930 . S
C294 C289 1.391 . S
C294 N293 1.388 . S
Co295 O297 2.143 . S
Co295 O303 2.074 . S
Co295 O306 2.093 . S
Co295 O319 2.097 . S
Co295 N336 2.151 . S
Co295 N344 2.214 . S
Co296 O297 2.160 . S
Co296 O302 2.058 . S
Co296 O312 2.057 1_655 S
Co296 O327 2.037 . S
Co296 N331 2.145 1_655 S
Co296 N352 2.257 . S
O297 Co295 2.143 . S
O297 Co296 2.160 . S
C298 O299 1.278 . S
C298 O306 1.224 . S
O299 C298 1.278 . S
C300 O301 1.245 . S
C300 O312 1.232 . S
O301 C300 1.245 . S
O302 Co296 2.058 . S
O302 C328 1.269 . S
O303 Co295 2.074 . S
O303 C328 1.257 . S
H304 C329 0.930 . S
H305 C335 0.930 . S
O306 Co295 2.093 . S
O306 C298 1.224 . S
H307 C339 0.929 1_545 S
H308 C341 0.930 . S
H309 C342 0.930 . S
H310 C340 0.929 . S
H311 C343 0.928 . S
O312 Co296 2.057 1_455 S
O312 C300 1.232 . S
H313 C332 0.929 . S
H314 C333 0.929 . S
H315 C345 0.931 . S
H316 C337 0.929 . S
H317 C346 0.930 . S
H318 C338 0.931 . S
O319 Co295 2.097 . S
O319 C347 1.214 . S
H320 C348 0.929 . S
H321 C349 0.929 . S
H322 C350 0.930 . S
H323 C351 0.929 . S
H324 C353 0.930 . S
H325 C330 0.930 . S
H326 C334 0.930 . S
O327 Co296 2.037 . S
O327 C347 1.234 . S
C328 O302 1.269 . S
C328 O303 1.257 . S
C329 H304 0.930 . S
C329 C332 1.388 1_455 S
C329 C334 1.418 . S
C330 H325 0.930 . S
C330 C333 1.404 . S
C330 C334 1.353 . S
N331 Co296 2.145 1_455 S
N331 C332 1.397 1_455 S
N331 C333 1.334 . S
C332 H313 0.929 . S
C332 C329 1.388 1_655 S
C332 N331 1.397 1_655 S
C333 H314 0.929 . S
C333 C330 1.404 . S
C333 N331 1.334 . S
C334 H326 0.930 . S
C334 C329 1.418 . S
C334 C330 1.353 . S
C335 H305 0.930 . S
C335 N336 1.330 . S
C335 C337 1.446 . S
N336 Co295 2.151 . S
N336 C335 1.330 . S
N336 C340 1.418 . S
C337 H316 0.929 . S
C337 C335 1.446 . S
C337 C338 1.332 . S
C338 H318 0.931 . S
C338 C337 1.332 . S
C338 C339 1.267 . S
C339 H307 0.929 1_565 S
C339 C338 1.267 . S
C339 C340 1.251 . S
C340 H310 0.929 . S
C340 N336 1.418 . S
C340 C339 1.251 . S
C341 H308 0.930 . S
C341 C343 1.406 . S
C341 C346 1.261 . S
C342 H309 0.930 . S
C342 N344 1.325 . S
C342 C345 1.357 . S
C343 H311 0.928 . S
C343 C341 1.406 . S
C343 N344 1.261 . S
N344 Co295 2.214 . S
N344 C342 1.325 . S
N344 C343 1.261 . S
C345 H315 0.931 . S
C345 C342 1.357 . S
C345 C346 1.312 . S
C346 H317 0.930 . S
C346 C341 1.261 . S
C346 C345 1.312 . S
C347 O319 1.214 . S
C347 O327 1.234 . S
C348 H320 0.929 . S
C348 C351 1.391 . S
C348 C353 1.391 . S
C349 H321 0.929 . S
C349 C350 1.390 . S
C349 N352 1.391 . S
C350 H322 0.930 . S
C350 C349 1.390 . S
C350 C351 1.392 . S
C351 H323 0.929 . S
C351 C348 1.391 . S
C351 C350 1.392 . S
N352 Co296 2.257 . S
N352 C349 1.391 . S
N352 C353 1.388 . S
C353 H324 0.930 . S
C353 C348 1.391 . S
C353 N352 1.388 . S
Co354 O356 2.143 . S
Co354 O362 2.074 . S
Co354 O365 2.093 . S
Co354 O378 2.097 . S
Co354 N395 2.151 . S
Co354 N403 2.214 . S
Co355 O356 2.160 . S
Co355 O361 2.058 . S
Co355 O371 2.057 . S
Co355 O386 2.037 . S
Co355 N390 2.145 . S
Co355 N411 2.257 . S
O356 Co354 2.143 . S
O356 Co355 2.160 . S
C357 O358 1.278 . S
C357 O365 1.224 . S
O358 C357 1.278 . S
C359 O360 1.245 . S
C359 O371 1.232 . S
O360 C359 1.245 . S
O361 Co355 2.058 . S
O361 C387 1.269 . S
O362 Co354 2.074 . S
O362 C387 1.257 . S
H363 C388 0.930 . S
H364 C394 0.930 . S
O365 Co354 2.093 . S
O365 C357 1.224 . S
H366 C398 0.929 1_565 S
H367 C400 0.930 . S
H368 C401 0.930 . S
H369 C399 0.929 . S
H370 C402 0.928 . S
O371 Co355 2.057 . S
O371 C359 1.232 . S
H372 C391 0.929 . S
H373 C392 0.929 . S
H374 C404 0.931 . S
H375 C396 0.929 . S
H376 C405 0.930 . S
H377 C397 0.931 . S
O378 Co354 2.097 . S
O378 C406 1.214 . S
H379 C407 0.929 . S
H380 C408 0.929 . S
H381 C409 0.930 . S
H382 C410 0.929 . S
H383 C412 0.930 . S
H384 C389 0.930 . S
H385 C393 0.930 . S
O386 Co355 2.037 . S
O386 C406 1.234 . S
C387 O361 1.269 . S
C387 O362 1.257 . S
C388 H363 0.930 . S
C388 C391 1.388 . S
C388 C393 1.418 . S
C389 H384 0.930 . S
C389 C392 1.404 . S
C389 C393 1.353 . S
N390 Co355 2.145 . S
N390 C391 1.397 . S
N390 C392 1.334 . S
C391 H372 0.929 . S
C391 C388 1.388 . S
C391 N390 1.397 . S
C392 H373 0.929 . S
C392 C389 1.404 . S
C392 N390 1.334 . S
C393 H385 0.930 . S
C393 C388 1.418 . S
C393 C389 1.353 . S
C394 H364 0.930 . S
C394 N395 1.330 . S
C394 C396 1.446 . S
N395 Co354 2.151 . S
N395 C394 1.330 . S
N395 C399 1.418 . S
C396 H375 0.929 . S
C396 C394 1.446 . S
C396 C397 1.332 . S
C397 H377 0.931 . S
C397 C396 1.332 . S
C397 C398 1.267 . S
C398 H366 0.929 1_545 S
C398 C397 1.267 . S
C398 C399 1.251 . S
C399 H369 0.929 . S
C399 N395 1.418 . S
C399 C398 1.251 . S
C400 H367 0.930 . S
C400 C402 1.406 . S
C400 C405 1.261 . S
C401 H368 0.930 . S
C401 N403 1.325 . S
C401 C404 1.357 . S
C402 H370 0.928 . S
C402 C400 1.406 . S
C402 N403 1.261 . S
N403 Co354 2.214 . S
N403 C401 1.325 . S
N403 C402 1.261 . S
C404 H374 0.931 . S
C404 C401 1.357 . S
C404 C405 1.312 . S
C405 H376 0.930 . S
C405 C400 1.261 . S
C405 C404 1.312 . S
C406 O378 1.214 . S
C406 O386 1.234 . S
C407 H379 0.929 . S
C407 C410 1.391 . S
C407 C412 1.391 . S
C408 H380 0.929 . S
C408 C409 1.390 . S
C408 N411 1.391 . S
C409 H381 0.930 . S
C409 C408 1.390 . S
C409 C410 1.392 . S
C410 H382 0.929 . S
C410 C407 1.391 . S
C410 C409 1.392 . S
N411 Co355 2.257 . S
N411 C408 1.391 . S
N411 C412 1.388 . S
C412 H383 0.930 . S
C412 C407 1.391 . S
C412 N411 1.388 . S
Co413 O415 2.143 . S
Co413 O421 2.074 . S
Co413 O424 2.093 . S
Co413 O437 2.097 . S
Co413 N454 2.151 . S
Co413 N462 2.214 . S
Co414 O415 2.160 . S
Co414 O420 2.058 . S
Co414 O430 2.057 1_455 S
Co414 O445 2.037 . S
Co414 N449 2.145 1_455 S
Co414 N470 2.257 . S
O415 Co413 2.143 . S
O415 Co414 2.160 . S
C416 O417 1.278 . S
C416 O424 1.224 . S
O417 C416 1.278 . S
C418 O419 1.245 . S
C418 O430 1.232 . S
O419 C418 1.245 . S
O420 Co414 2.058 . S
O420 C446 1.269 . S
O421 Co413 2.074 . S
O421 C446 1.257 . S
H422 C447 0.930 . S
H423 C453 0.930 . S
O424 Co413 2.093 . S
O424 C416 1.224 . S
H425 C457 0.929 1_565 S
H426 C459 0.930 . S
H427 C460 0.930 . S
H428 C458 0.929 . S
H429 C461 0.928 . S
O430 Co414 2.057 1_655 S
O430 C418 1.232 . S
H431 C450 0.929 . S
H432 C451 0.929 . S
H433 C463 0.931 . S
H434 C455 0.929 . S
H435 C464 0.930 . S
H436 C456 0.931 . S
O437 Co413 2.097 . S
O437 C465 1.214 . S
H438 C466 0.929 . S
H439 C467 0.929 . S
H440 C468 0.930 . S
H441 C469 0.929 . S
H442 C471 0.930 . S
H443 C448 0.930 . S
H444 C452 0.930 . S
O445 Co414 2.037 . S
O445 C465 1.234 . S
C446 O420 1.269 . S
C446 O421 1.257 . S
C447 H422 0.930 . S
C447 C450 1.388 1_655 S
C447 C452 1.418 . S
C448 H443 0.930 . S
C448 C451 1.404 . S
C448 C452 1.353 . S
N449 Co414 2.145 1_655 S
N449 C450 1.397 1_655 S
N449 C451 1.334 . S
C450 H431 0.929 . S
C450 C447 1.388 1_455 S
C450 N449 1.397 1_455 S
C451 H432 0.929 . S
C451 C448 1.404 . S
C451 N449 1.334 . S
C452 H444 0.930 . S
C452 C447 1.418 . S
C452 C448 1.353 . S
C453 H423 0.930 . S
C453 N454 1.330 . S
C453 C455 1.446 . S
N454 Co413 2.151 . S
N454 C453 1.330 . S
N454 C458 1.418 . S
C455 H434 0.929 . S
C455 C453 1.446 . S
C455 C456 1.332 . S
C456 H436 0.931 . S
C456 C455 1.332 . S
C456 C457 1.267 . S
C457 H425 0.929 1_545 S
C457 C456 1.267 . S
C457 C458 1.251 . S
C458 H428 0.929 . S
C458 N454 1.418 . S
C458 C457 1.251 . S
C459 H426 0.930 . S
C459 C461 1.406 . S
C459 C464 1.261 . S
C460 H427 0.930 . S
C460 N462 1.325 . S
C460 C463 1.357 . S
C461 H429 0.928 . S
C461 C459 1.406 . S
C461 N462 1.261 . S
N462 Co413 2.214 . S
N462 C460 1.325 . S
N462 C461 1.261 . S
C463 H433 0.931 . S
C463 C460 1.357 . S
C463 C464 1.312 . S
C464 H435 0.930 . S
C464 C459 1.261 . S
C464 C463 1.312 . S
C465 O437 1.214 . S
C465 O445 1.234 . S
C466 H438 0.929 . S
C466 C469 1.391 . S
C466 C471 1.391 . S
C467 H439 0.929 . S
C467 C468 1.390 . S
C467 N470 1.391 . S
C468 H440 0.930 . S
C468 C467 1.390 . S
C468 C469 1.392 . S
C469 H441 0.929 . S
C469 C466 1.391 . S
C469 C468 1.392 . S
N470 Co414 2.257 . S
N470 C467 1.391 . S
N470 C471 1.388 . S
C471 H442 0.930 . S
C471 C466 1.391 . S
C471 N470 1.388 . S
H472 C480 0.929 . S
H473 C482 0.930 . S
H474 C484 0.930 . S
H475 C487 0.929 . S
H476 C490 0.930 . S
H477 C492 0.960 . S
H478 C492 0.960 . S
H479 C492 0.960 . S
C480 H472 0.929 . S
C480 C481 1.377 . S
C480 C482 1.384 . S
C481 C480 1.377 . S
C481 C487 1.390 1_455 S
C482 H473 0.930 . S
C482 C480 1.384 . S
C482 C483 1.372 . S
C483 C482 1.372 . S
C483 C484 1.400 1_455 S
C483 C488 1.490 . S
C484 H474 0.930 . S
C484 C483 1.400 1_655 S
C484 C487 1.386 . S
H485 C501 0.930 . S
H486 C502 0.931 . S
C487 H475 0.929 . S
C487 C481 1.390 1_655 S
C487 C484 1.386 . S
C488 C483 1.490 . S
C488 C490 1.395 . S
C488 C491 1.403 1_455 S
H489 C495 0.930 . S
C490 H476 0.930 . S
C490 C488 1.395 . S
C490 C493 1.403 . S
C491 C488 1.403 1_655 S
C491 C492 1.524 . S
C491 C495 1.400 . S
C492 H477 0.960 . S
C492 H478 0.960 . S
C492 H479 0.960 . S
C492 C491 1.524 . S
C493 C490 1.403 . S
C493 C494 1.394 . S
C493 C497 1.495 . S
C494 C493 1.394 . S
C494 C495 1.384 1_455 S
C494 C496 1.476 1_455 S
C495 H489 0.930 . S
C495 C491 1.400 . S
C495 C494 1.384 1_655 S
C496 C494 1.476 1_655 S
C496 C498 1.381 1_655 S
C496 C502 1.383 . S
C497 C493 1.495 . S
C497 H503 0.959 . S
C497 H504 0.961 . S
C497 H505 0.960 . S
C498 C496 1.381 1_455 S
C498 C499 1.394 . S
C498 H506 0.930 . S
C499 C498 1.394 . S
C499 C500 1.383 1_455 S
C499 H507 0.929 . S
C500 C499 1.383 1_655 S
C500 C501 1.377 . S
C501 H485 0.930 . S
C501 C500 1.377 . S
C501 C502 1.379 . S
C502 H486 0.931 . S
C502 C496 1.383 . S
C502 C501 1.379 . S
H503 C497 0.959 . S
H504 C497 0.961 . S
H505 C497 0.960 . S
H506 C498 0.930 . S
H507 C499 0.929 . S
H508 C516 0.929 . S
H509 C518 0.930 . S
H510 C520 0.930 . S
H511 C523 0.929 . S
H512 C526 0.930 . S
H513 C528 0.960 . S
H514 C528 0.960 . S
H515 C528 0.960 . S
C516 H508 0.929 . S
C516 C517 1.377 . S
C516 C518 1.384 . S
C517 C516 1.377 . S
C517 C523 1.390 . S
C518 H509 0.930 . S
C518 C516 1.384 . S
C518 C519 1.372 . S
C519 C518 1.372 . S
C519 C520 1.400 . S
C519 C524 1.490 . S
C520 H510 0.930 . S
C520 C519 1.400 . S
C520 C523 1.386 . S
H521 C537 0.930 . S
H522 C538 0.931 . S
C523 H511 0.929 . S
C523 C517 1.390 . S
C523 C520 1.386 . S
C524 C519 1.490 . S
C524 C526 1.395 . S
C524 C527 1.403 . S
H525 C531 0.930 . S
C526 H512 0.930 . S
C526 C524 1.395 . S
C526 C529 1.403 . S
C527 C524 1.403 . S
C527 C528 1.524 . S
C527 C531 1.400 . S
C528 H513 0.960 . S
C528 H514 0.960 . S
C528 H515 0.960 . S
C528 C527 1.524 . S
C529 C526 1.403 . S
C529 C530 1.392 . S
C529 C533 1.495 . S
C530 C529 1.392 . S
C530 C531 1.385 . S
C530 C532 1.478 . S
C531 H525 0.930 . S
C531 C527 1.400 . S
C531 C530 1.385 . S
C532 C530 1.478 . S
C532 C534 1.381 . S
C532 C538 1.383 . S
C533 C529 1.495 . S
C533 H539 0.959 . S
C533 H540 0.961 . S
C533 H541 0.960 . S
C534 C532 1.381 . S
C534 C535 1.394 . S
C534 H542 0.930 . S
C535 C534 1.394 . S
C535 C536 1.383 . S
C535 H543 0.929 . S
C536 C535 1.383 . S
C536 C537 1.377 . S
C537 H521 0.930 . S
C537 C536 1.377 . S
C537 C538 1.379 . S
C538 H522 0.931 . S
C538 C532 1.383 . S
C538 C537 1.379 . S
H539 C533 0.959 . S
H540 C533 0.961 . S
H541 C533 0.960 . S
H542 C534 0.930 . S
H543 C535 0.929 . S
H544 C552 0.929 . S
H545 C554 0.930 . S
H546 C556 0.930 . S
H547 C559 0.929 . S
H548 C562 0.930 . S
H549 C564 0.960 . S
H550 C564 0.960 . S
H551 C564 0.960 . S
C552 H544 0.929 . S
C552 C553 1.377 . S
C552 C554 1.384 . S
C553 C552 1.377 . S
C553 C559 1.390 . S
C554 H545 0.930 . S
C554 C552 1.384 . S
C554 C555 1.372 . S
C555 C554 1.372 . S
C555 C556 1.400 . S
C555 C560 1.490 . S
C556 H546 0.930 . S
C556 C555 1.400 . S
C556 C559 1.386 . S
H557 C573 0.930 . S
H558 C574 0.931 . S
C559 H547 0.929 . S
C559 C553 1.390 . S
C559 C556 1.386 . S
C560 C555 1.490 . S
C560 C562 1.395 1_554 S
C560 C563 1.403 1_545 S
H561 C567 0.931 . S
C562 H548 0.930 . S
C562 C560 1.395 1_556 S
C562 C565 1.403 . S
C563 C560 1.403 1_565 S
C563 C564 1.524 . S
C563 C567 1.427 . S
C564 H549 0.960 . S
C564 H550 0.960 . S
C564 H551 0.960 . S
C564 C563 1.524 . S
C565 C562 1.403 . S
C565 C566 1.392 1_545 S
C565 C569 1.495 . S
C566 C565 1.392 1_565 S
C566 C567 1.358 1_556 S
C566 C568 1.478 . S
C567 H561 0.931 . S
C567 C563 1.427 . S
C567 C566 1.358 1_554 S
C568 C566 1.478 . S
C568 C570 1.381 . S
C568 C574 1.383 . S
C569 C565 1.495 . S
C569 H575 0.959 . S
C569 H576 0.961 . S
C569 H577 0.960 . S
C570 C568 1.381 . S
C570 C571 1.394 . S
C570 H578 0.930 . S
C571 C570 1.394 . S
C571 C572 1.383 . S
C571 H579 0.929 . S
C572 C571 1.383 . S
C572 C573 1.377 . S
C573 H557 0.930 . S
C573 C572 1.377 . S
C573 C574 1.379 . S
C574 H558 0.931 . S
C574 C568 1.383 . S
C574 C573 1.379 . S
H575 C569 0.959 . S
H576 C569 0.961 . S
H577 C569 0.960 . S
H578 C570 0.930 . S
H579 C571 0.929 . S
H580 C588 0.929 . S
H581 C590 0.930 1_455 S
H582 C592 0.930 . S
H583 C595 0.929 . S
H584 C598 0.930 . S
H585 C600 0.960 . S
H586 C600 0.960 1_554 S
H587 C600 0.960 . S
C588 H580 0.929 . S
C588 C589 1.377 . S
C588 C590 1.384 . S
C589 C588 1.377 . S
C589 C595 1.390 . S
C590 H581 0.930 1_655 S
C590 C588 1.384 . S
C590 C591 1.372 . S
C591 C590 1.372 . S
C591 C592 1.400 . S
C591 C596 1.490 . S
C592 H582 0.930 . S
C592 C591 1.400 . S
C592 C595 1.386 . S
H593 C609 0.930 . S
H594 C610 0.931 . S
C595 H583 0.929 . S
C595 C589 1.390 . S
C595 C592 1.386 . S
C596 C591 1.490 . S
C596 C598 1.395 1_655 S
C596 C599 1.410 . S
H597 C603 0.930 . S
C598 H584 0.930 . S
C598 C596 1.395 1_455 S
C598 C601 1.403 1_565 S
C599 C596 1.410 . S
C599 C600 1.526 1_554 S
C599 C603 1.391 1_564 S
C600 H585 0.960 . S
C600 H586 0.960 1_556 S
C600 H587 0.960 . S
C600 C599 1.526 1_556 S
C601 C598 1.403 1_545 S
C601 C602 1.392 1_554 S
C601 C605 1.495 . S
C602 C601 1.392 1_556 S
C602 C603 1.385 1_455 S
C602 C604 1.478 . S
C603 H597 0.930 . S
C603 C599 1.391 1_546 S
C603 C602 1.385 1_655 S
C604 C602 1.478 . S
C604 C606 1.381 . S
C604 C610 1.383 . S
C605 C601 1.495 . S
C605 H611 0.959 . S
C605 H612 0.961 1_554 S
C605 H613 0.960 . S
C606 C604 1.381 . S
C606 C607 1.394 . S
C606 H614 0.930 . S
C607 C606 1.394 . S
C607 C608 1.383 . S
C607 H615 0.929 . S
C608 C607 1.383 . S
C608 C609 1.377 . S
C609 H593 0.930 . S
C609 C608 1.377 . S
C609 C610 1.379 . S
C610 H594 0.931 . S
C610 C604 1.383 . S
C610 C609 1.379 . S
H611 C605 0.959 . S
H612 C605 0.961 1_556 S
H613 C605 0.960 . S
H614 C606 0.930 . S
H615 C607 0.929 . S
H616 C624 0.929 . S
H617 C626 0.930 . S
H618 C628 0.930 . S
H619 C631 0.929 . S
H620 C634 0.930 . S
H621 C636 0.960 . S
H622 C636 0.960 . S
H623 C636 0.960 . S
C624 H616 0.929 . S
C624 C625 1.377 . S
C624 C626 1.384 . S
C625 C624 1.377 . S
C625 C631 1.390 . S
C626 H617 0.930 . S
C626 C624 1.384 . S
C626 C627 1.372 . S
C627 C626 1.372 . S
C627 C628 1.400 . S
C627 C632 1.490 . S
C628 H618 0.930 . S
C628 C627 1.400 . S
C628 C631 1.386 . S
H629 C645 0.930 . S
H630 C646 0.931 . S
C631 H619 0.929 . S
C631 C625 1.390 . S
C631 C628 1.386 . S
C632 C627 1.490 . S
C632 C634 1.395 . S
C632 C635 1.403 . S
H633 C639 0.930 . S
C634 H620 0.930 . S
C634 C632 1.395 . S
C634 C637 1.403 . S
C635 C632 1.403 . S
C635 C636 1.524 . S
C635 C639 1.400 . S
C636 H621 0.960 . S
C636 H622 0.960 . S
C636 H623 0.960 . S
C636 C635 1.524 . S
C637 C634 1.403 . S
C637 C638 1.392 . S
C637 C641 1.495 . S
C638 C637 1.392 . S
C638 C639 1.385 . S
C638 C640 1.478 . S
C639 H633 0.930 . S
C639 C635 1.400 . S
C639 C638 1.385 . S
C640 C638 1.478 . S
C640 C642 1.381 . S
C640 C646 1.383 . S
C641 C637 1.495 . S
C641 H647 0.959 . S
C641 H648 0.961 . S
C641 H649 0.960 . S
C642 C640 1.381 . S
C642 C643 1.394 . S
C642 H650 0.930 . S
C643 C642 1.394 . S
C643 C644 1.383 . S
C643 H651 0.929 . S
C644 C643 1.383 . S
C644 C645 1.377 . S
C645 H629 0.930 . S
C645 C644 1.377 . S
C645 C646 1.379 . S
C646 H630 0.931 . S
C646 C640 1.383 . S
C646 C645 1.379 . S
H647 C641 0.959 . S
H648 C641 0.961 . S
H649 C641 0.960 . S
H650 C642 0.930 . S
H651 C643 0.929 . S
H652 C660 0.929 . S
H653 C662 0.930 . S
H654 C664 0.930 . S
H655 C667 0.929 . S
H656 C670 0.930 . S
H657 C672 0.960 . S
H658 C672 0.960 . S
H659 C672 0.960 . S
C660 H652 0.929 . S
C660 C661 1.377 . S
C660 C662 1.384 . S
C661 C660 1.377 . S
C661 C667 1.390 . S
C662 H653 0.930 . S
C662 C660 1.384 . S
C662 C663 1.372 . S
C663 C662 1.372 . S
C663 C664 1.400 . S
C663 C668 1.490 . S
C664 H654 0.930 . S
C664 C663 1.400 . S
C664 C667 1.386 . S
H665 C681 0.930 . S
H666 C682 0.931 . S
C667 H655 0.929 . S
C667 C661 1.390 . S
C667 C664 1.386 . S
C668 C663 1.490 . S
C668 C670 1.395 . S
C668 C671 1.403 . S
H669 C675 0.930 . S
C670 H656 0.930 . S
C670 C668 1.395 . S
C670 C673 1.403 . S
C671 C668 1.403 . S
C671 C672 1.524 . S
C671 C675 1.400 . S
C672 H657 0.960 . S
C672 H658 0.960 . S
C672 H659 0.960 . S
C672 C671 1.524 . S
C673 C670 1.403 . S
C673 C674 1.392 . S
C673 C677 1.495 . S
C674 C673 1.392 . S
C674 C675 1.385 . S
C674 C676 1.478 . S
C675 H669 0.930 . S
C675 C671 1.400 . S
C675 C674 1.385 . S
C676 C674 1.478 . S
C676 C678 1.381 . S
C676 C682 1.383 . S
C677 C673 1.495 . S
C677 H683 0.959 . S
C677 H684 0.961 . S
C677 H685 0.960 . S
C678 C676 1.381 . S
C678 C679 1.394 . S
C678 H686 0.930 . S
C679 C678 1.394 . S
C679 C680 1.383 . S
C679 H687 0.929 . S
C680 C679 1.383 . S
C680 C681 1.377 . S
C681 H665 0.930 . S
C681 C680 1.377 . S
C681 C682 1.379 . S
C682 H666 0.931 . S
C682 C676 1.383 . S
C682 C681 1.379 . S
H683 C677 0.959 . S
H684 C677 0.961 . S
H685 C677 0.960 . S
H686 C678 0.930 . S
H687 C679 0.929 . S
H688 C696 0.929 . S
H689 C698 0.930 . S
H690 C700 0.930 . S
H691 C703 0.929 . S
H692 C706 0.930 . S
H693 C708 0.960 . S
H694 C708 0.960 . S
H695 C708 0.960 . S
C696 H688 0.929 . S
C696 C697 1.377 . S
C696 C698 1.384 . S
C697 C696 1.377 . S
C697 C703 1.390 . S
C698 H689 0.930 . S
C698 C696 1.384 . S
C698 C699 1.372 . S
C699 C698 1.372 . S
C699 C700 1.400 . S
C699 C704 1.490 . S
C700 H690 0.930 . S
C700 C699 1.400 . S
C700 C703 1.386 . S
H701 C717 0.930 . S
H702 C718 0.931 . S
C703 H691 0.929 . S
C703 C697 1.390 . S
C703 C700 1.386 . S
C704 C699 1.490 . S
C704 C706 1.395 . S
C704 C707 1.403 . S
H705 C711 0.930 . S
C706 H692 0.930 . S
C706 C704 1.395 . S
C706 C709 1.403 . S
C707 C704 1.403 . S
C707 C708 1.524 . S
C707 C711 1.400 . S
C708 H693 0.960 . S
C708 H694 0.960 . S
C708 H695 0.960 . S
C708 C707 1.524 . S
C709 C706 1.403 . S
C709 C710 1.392 . S
C709 C713 1.495 . S
C710 C709 1.392 . S
C710 C711 1.385 . S
C710 C712 1.478 . S
C711 H705 0.930 . S
C711 C707 1.400 . S
C711 C710 1.385 . S
C712 C710 1.478 . S
C712 C714 1.381 . S
C712 C718 1.383 . S
C713 C709 1.495 . S
C713 H719 0.959 . S
C713 H720 0.961 . S
C713 H721 0.960 . S
C714 C712 1.381 . S
C714 C715 1.394 . S
C714 H722 0.930 . S
C715 C714 1.394 . S
C715 C716 1.383 . S
C715 H723 0.929 . S
C716 C715 1.383 . S
C716 C717 1.377 . S
C717 H701 0.930 . S
C717 C716 1.377 . S
C717 C718 1.379 . S
C718 H702 0.931 . S
C718 C712 1.383 . S
C718 C717 1.379 . S
H719 C713 0.959 . S
H720 C713 0.961 . S
H721 C713 0.960 . S
H722 C714 0.930 . S
H723 C715 0.929 . S
H724 C732 0.929 . S
H725 C734 0.930 . S
H726 C736 0.930 . S
H727 C739 0.929 . S
H728 C742 0.930 . S
H729 C744 0.960 . S
H730 C744 0.960 . S
H731 C744 0.960 . S
C732 H724 0.929 . S
C732 C733 1.377 . S
C732 C734 1.384 . S
C733 C732 1.377 . S
C733 C739 1.390 . S
C734 H725 0.930 . S
C734 C732 1.384 . S
C734 C735 1.372 . S
C735 C734 1.372 . S
C735 C736 1.400 . S
C735 C740 1.490 . S
C736 H726 0.930 . S
C736 C735 1.400 . S
C736 C739 1.386 . S
H737 C753 0.930 . S
H738 C754 0.931 . S
C739 H727 0.929 . S
C739 C733 1.390 . S
C739 C736 1.386 . S
C740 C735 1.490 . S
C740 C742 1.395 . S
C740 C743 1.403 . S
H741 C747 0.930 . S
C742 H728 0.930 . S
C742 C740 1.395 . S
C742 C745 1.403 . S
C743 C740 1.403 . S
C743 C744 1.524 . S
C743 C747 1.400 . S
C744 H729 0.960 . S
C744 H730 0.960 . S
C744 H731 0.960 . S
C744 C743 1.524 . S
C745 C742 1.403 . S
C745 C746 1.392 . S
C745 C749 1.495 . S
C746 C745 1.392 . S
C746 C747 1.385 . S
C746 C748 1.478 . S
C747 H741 0.930 . S
C747 C743 1.400 . S
C747 C746 1.385 . S
C748 C746 1.478 . S
C748 C750 1.381 . S
C748 C754 1.383 . S
C749 C745 1.495 . S
C749 H755 0.959 . S
C749 H756 0.961 . S
C749 H757 0.960 . S
C750 C748 1.381 . S
C750 C751 1.394 . S
C750 H758 0.930 . S
C751 C750 1.394 . S
C751 C752 1.383 . S
C751 H759 0.929 . S
C752 C751 1.383 . S
C752 C753 1.377 . S
C753 H737 0.930 . S
C753 C752 1.377 . S
C753 C754 1.379 . S
C754 H738 0.931 . S
C754 C748 1.383 . S
C754 C753 1.379 . S
H755 C749 0.959 . S
H756 C749 0.961 . S
H757 C749 0.960 . S
H758 C750 0.930 . S
H759 C751 0.929 . S
H760 C768 0.929 . S
H761 C770 0.930 . S
H762 C772 0.930 . S
H763 C775 0.929 . S
H764 C778 0.930 . S
H765 C780 0.960 . S
H766 C780 0.960 . S
H767 C780 0.960 . S
C768 H760 0.929 . S
C768 C769 1.377 . S
C768 C770 1.384 . S
C769 C768 1.377 . S
C769 C775 1.390 . S
C770 H761 0.930 . S
C770 C768 1.384 . S
C770 C771 1.372 . S
C771 C770 1.372 . S
C771 C772 1.400 . S
C771 C776 1.490 . S
C772 H762 0.930 . S
C772 C771 1.400 . S
C772 C775 1.386 . S
H773 C789 0.930 . S
H774 C790 0.931 . S
C775 H763 0.929 . S
C775 C769 1.390 . S
C775 C772 1.386 . S
C776 C771 1.490 . S
C776 C778 1.395 . S
C776 C779 1.403 . S
H777 C783 0.930 . S
C778 H764 0.930 . S
C778 C776 1.395 . S
C778 C781 1.403 . S
C779 C776 1.403 . S
C779 C780 1.524 . S
C779 C783 1.400 . S
C780 H765 0.960 . S
C780 H766 0.960 . S
C780 H767 0.960 . S
C780 C779 1.524 . S
C781 C778 1.403 . S
C781 C782 1.392 . S
C781 C785 1.495 . S
C782 C781 1.392 . S
C782 C783 1.385 . S
C782 C784 1.478 . S
C783 H777 0.930 . S
C783 C779 1.400 . S
C783 C782 1.385 . S
C784 C782 1.478 . S
C784 C786 1.381 . S
C784 C790 1.383 . S
C785 C781 1.495 . S
C785 H791 0.959 . S
C785 H792 0.961 . S
C785 H793 0.960 . S
C786 C784 1.381 . S
C786 C787 1.394 . S
C786 H794 0.930 . S
C787 C786 1.394 . S
C787 C788 1.383 . S
C787 H795 0.929 . S
C788 C787 1.383 . S
C788 C789 1.377 . S
C789 H773 0.930 . S
C789 C788 1.377 . S
C789 C790 1.379 . S
C790 H774 0.931 . S
C790 C784 1.383 . S
C790 C789 1.379 . S
H791 C785 0.959 . S
H792 C785 0.961 . S
H793 C785 0.960 . S
H794 C786 0.930 . S
H795 C787 0.929 . S
H796 C804 0.929 . S
H797 C806 0.930 . S
H798 C808 0.930 . S
H799 C811 0.929 . S
H800 C814 0.930 . S
H801 C816 0.960 . S
H802 C816 0.960 . S
H803 C816 0.960 . S
C804 H796 0.929 . S
C804 C805 1.377 . S
C804 C806 1.384 . S
C805 C804 1.377 . S
C805 C811 1.390 . S
C806 H797 0.930 . S
C806 C804 1.384 . S
C806 C807 1.372 . S
C807 C806 1.372 . S
C807 C808 1.400 . S
C807 C812 1.490 . S
C808 H798 0.930 . S
C808 C807 1.400 . S
C808 C811 1.386 . S
H809 C825 0.930 . S
H810 C826 0.931 . S
C811 H799 0.929 . S
C811 C805 1.390 . S
C811 C808 1.386 . S
C812 C807 1.490 . S
C812 C814 1.395 . S
C812 C815 1.403 . S
H813 C819 0.930 . S
C814 H800 0.930 . S
C814 C812 1.395 . S
C814 C817 1.403 . S
C815 C812 1.403 . S
C815 C816 1.524 . S
C815 C819 1.400 . S
C816 H801 0.960 . S
C816 H802 0.960 . S
C816 H803 0.960 . S
C816 C815 1.524 . S
C817 C814 1.403 . S
C817 C818 1.392 . S
C817 C821 1.495 . S
C818 C817 1.392 . S
C818 C819 1.385 . S
C818 C820 1.478 . S
C819 H813 0.930 . S
C819 C815 1.400 . S
C819 C818 1.385 . S
C820 C818 1.478 . S
C820 C822 1.381 . S
C820 C826 1.383 . S
C821 C817 1.495 . S
C821 H827 0.959 . S
C821 H828 0.961 . S
C821 H829 0.960 . S
C822 C820 1.381 . S
C822 C823 1.394 . S
C822 H830 0.930 . S
C823 C822 1.394 . S
C823 C824 1.383 . S
C823 H831 0.929 . S
C824 C823 1.383 . S
C824 C825 1.377 . S
C825 H809 0.930 . S
C825 C824 1.377 . S
C825 C826 1.379 . S
C826 H810 0.931 . S
C826 C820 1.383 . S
C826 C825 1.379 . S
H827 C821 0.959 . S
H828 C821 0.961 . S
H829 C821 0.960 . S
H830 C822 0.930 . S
H831 C823 0.929 . S
H832 C840 0.929 . S
H833 C842 0.930 . S
H834 C844 0.930 . S
H835 C847 0.929 . S
H836 C850 0.930 . S
H837 C852 0.960 . S
H838 C852 0.960 . S
H839 C852 0.960 . S
C840 H832 0.929 . S
C840 C841 1.377 . S
C840 C842 1.384 . S
C841 C840 1.377 . S
C841 C847 1.390 . S
C842 H833 0.930 . S
C842 C840 1.384 . S
C842 C843 1.372 . S
C843 C842 1.372 . S
C843 C844 1.400 . S
C843 C848 1.490 . S
C844 H834 0.930 . S
C844 C843 1.400 . S
C844 C847 1.386 . S
H845 C861 0.930 . S
H846 C862 0.931 . S
C847 H835 0.929 . S
C847 C841 1.390 . S
C847 C844 1.386 . S
C848 C843 1.490 . S
C848 C850 1.395 . S
C848 C851 1.403 . S
H849 C855 0.930 . S
C850 H836 0.930 . S
C850 C848 1.395 . S
C850 C853 1.403 . S
C851 C848 1.403 . S
C851 C852 1.524 . S
C851 C855 1.400 . S
C852 H837 0.960 . S
C852 H838 0.960 . S
C852 H839 0.960 . S
C852 C851 1.524 . S
C853 C850 1.403 . S
C853 C854 1.392 . S
C853 C857 1.495 . S
C854 C853 1.392 . S
C854 C855 1.385 . S
C854 C856 1.478 . S
C855 H849 0.930 . S
C855 C851 1.400 . S
C855 C854 1.385 . S
C856 C854 1.478 . S
C856 C858 1.381 . S
C856 C862 1.383 . S
C857 C853 1.495 . S
C857 H863 0.959 . S
C857 H864 0.961 . S
C857 H865 0.960 . S
C858 C856 1.381 . S
C858 C859 1.394 . S
C858 H866 0.930 . S
C859 C858 1.394 . S
C859 C860 1.383 . S
C859 H867 0.929 . S
C860 C859 1.383 . S
C860 C861 1.377 . S
C861 H845 0.930 . S
C861 C860 1.377 . S
C861 C862 1.379 . S
C862 H846 0.931 . S
C862 C856 1.383 . S
C862 C861 1.379 . S
H863 C857 0.959 . S
H864 C857 0.961 . S
H865 C857 0.960 . S
H866 C858 0.930 . S
H867 C859 0.929 . S
H868 C876 0.929 . S
H869 C878 0.930 . S
H870 C880 0.930 . S
H871 C883 0.929 . S
H872 C886 0.930 . S
H873 C888 0.960 . S
H874 C888 0.960 . S
H875 C888 0.960 . S
C876 H868 0.929 . S
C876 C877 1.377 . S
C876 C878 1.384 . S
C877 C876 1.377 . S
C877 C883 1.390 . S
C878 H869 0.930 . S
C878 C876 1.384 . S
C878 C879 1.372 . S
C879 C878 1.372 . S
C879 C880 1.400 . S
C879 C884 1.490 . S
C880 H870 0.930 . S
C880 C879 1.400 . S
C880 C883 1.386 . S
H881 C897 0.930 . S
H882 C898 0.931 . S
C883 H871 0.929 . S
C883 C877 1.390 . S
C883 C880 1.386 . S
C884 C879 1.490 . S
C884 C886 1.395 . S
C884 C887 1.403 . S
H885 C891 0.930 . S
C886 H872 0.930 . S
C886 C884 1.395 . S
C886 C889 1.403 . S
C887 C884 1.403 . S
C887 C888 1.524 . S
C887 C891 1.400 . S
C888 H873 0.960 . S
C888 H874 0.960 . S
C888 H875 0.960 . S
C888 C887 1.524 . S
C889 C886 1.403 . S
C889 C890 1.392 . S
C889 C893 1.495 . S
C890 C889 1.392 . S
C890 C891 1.385 . S
C890 C892 1.478 . S
C891 H885 0.930 . S
C891 C887 1.400 . S
C891 C890 1.385 . S
C892 C890 1.478 . S
C892 C894 1.381 . S
C892 C898 1.383 . S
C893 C889 1.495 . S
C893 H899 0.959 . S
C893 H900 0.961 . S
C893 H901 0.960 . S
C894 C892 1.381 . S
C894 C895 1.394 . S
C894 H902 0.930 . S
C895 C894 1.394 . S
C895 C896 1.383 . S
C895 H903 0.929 . S
C896 C895 1.383 . S
C896 C897 1.377 . S
C897 H881 0.930 . S
C897 C896 1.377 . S
C897 C898 1.379 . S
C898 H882 0.931 . S
C898 C892 1.383 . S
C898 C897 1.379 . S
H899 C893 0.959 . S
H900 C893 0.961 . S
H901 C893 0.960 . S
H902 C894 0.930 . S
H903 C895 0.929 . S
H904 C912 0.929 . S
H905 C914 0.930 . S
H906 C916 0.930 . S
H907 C919 0.929 . S
H908 C922 0.930 . S
H909 C924 0.960 . S
H910 C924 0.960 . S
H911 C924 0.960 . S
C912 H904 0.929 . S
C912 C913 1.377 . S
C912 C914 1.384 . S
C913 C912 1.377 . S
C913 C919 1.390 . S
C914 H905 0.930 . S
C914 C912 1.384 . S
C914 C915 1.372 . S
C915 C914 1.372 . S
C915 C916 1.400 . S
C915 C920 1.490 . S
C916 H906 0.930 . S
C916 C915 1.400 . S
C916 C919 1.386 . S
H917 C933 0.930 . S
H918 C934 0.931 . S
C919 H907 0.929 . S
C919 C913 1.390 . S
C919 C916 1.386 . S
C920 C915 1.490 . S
C920 C922 1.395 . S
C920 C923 1.403 . S
H921 C927 0.930 . S
C922 H908 0.930 . S
C922 C920 1.395 . S
C922 C925 1.403 . S
C923 C920 1.403 . S
C923 C924 1.524 . S
C923 C927 1.400 . S
C924 H909 0.960 . S
C924 H910 0.960 . S
C924 H911 0.960 . S
C924 C923 1.524 . S
C925 C922 1.403 . S
C925 C926 1.392 . S
C925 C929 1.495 . S
C926 C925 1.392 . S
C926 C927 1.385 . S
C926 C928 1.478 . S
C927 H921 0.930 . S
C927 C923 1.400 . S
C927 C926 1.385 . S
C928 C926 1.478 . S
C928 C930 1.381 . S
C928 C934 1.383 . S
C929 C925 1.495 . S
C929 H935 0.959 . S
C929 H936 0.961 . S
C929 H937 0.960 . S
C930 C928 1.381 . S
C930 C931 1.394 . S
C930 H938 0.930 . S
C931 C930 1.394 . S
C931 C932 1.383 . S
C931 H939 0.929 . S
C932 C931 1.383 . S
C932 C933 1.377 . S
C933 H917 0.930 . S
C933 C932 1.377 . S
C933 C934 1.379 . S
C934 H918 0.931 . S
C934 C928 1.383 . S
C934 C933 1.379 . S
H935 C929 0.959 . S
H936 C929 0.961 . S
H937 C929 0.960 . S
H938 C930 0.930 . S
H939 C931 0.929 . S
H940 C948 0.929 . S
H941 C950 0.930 . S
H942 C952 0.930 . S
H943 C955 0.929 . S
H944 C958 0.930 . S
H945 C960 0.960 . S
H946 C960 0.960 . S
H947 C960 0.960 . S
C948 H940 0.929 . S
C948 C949 1.377 . S
C948 C950 1.384 . S
C949 C948 1.377 . S
C949 C955 1.390 . S
C950 H941 0.930 . S
C950 C948 1.384 . S
C950 C951 1.372 . S
C951 C950 1.372 . S
C951 C952 1.400 . S
C951 C956 1.490 . S
C952 H942 0.930 . S
C952 C951 1.400 . S
C952 C955 1.386 . S
H953 C969 0.930 . S
H954 C970 0.931 . S
C955 H943 0.929 . S
C955 C949 1.390 . S
C955 C952 1.386 . S
C956 C951 1.490 . S
C956 C958 1.395 . S
C956 C959 1.403 . S
H957 C963 0.930 . S
C958 H944 0.930 . S
C958 C956 1.395 . S
C958 C961 1.403 . S
C959 C956 1.403 . S
C959 C960 1.524 . S
C959 C963 1.400 . S
C960 H945 0.960 . S
C960 H946 0.960 . S
C960 H947 0.960 . S
C960 C959 1.524 . S
C961 C958 1.403 . S
C961 C962 1.392 . S
C961 C965 1.495 . S
C962 C961 1.392 . S
C962 C963 1.385 . S
C962 C964 1.478 . S
C963 H957 0.930 . S
C963 C959 1.400 . S
C963 C962 1.385 . S
C964 C962 1.478 . S
C964 C966 1.381 . S
C964 C970 1.383 . S
C965 C961 1.495 . S
C965 H971 0.959 . S
C965 H972 0.961 . S
C965 H973 0.960 . S
C966 C964 1.381 . S
C966 C967 1.394 . S
C966 H974 0.930 . S
C967 C966 1.394 . S
C967 C968 1.383 . S
C967 H975 0.929 . S
C968 C967 1.383 . S
C968 C969 1.377 . S
C969 H953 0.930 . S
C969 C968 1.377 . S
C969 C970 1.379 . S
C970 H954 0.931 . S
C970 C964 1.383 . S
C970 C969 1.379 . S
H971 C965 0.959 . S
H972 C965 0.961 . S
H973 C965 0.960 . S
H974 C966 0.930 . S
H975 C967 0.929 . S
H976 C984 0.929 . S
H977 C986 0.930 . S
H978 C988 0.930 . S
H979 C991 0.929 . S
H980 C994 0.930 . S
H981 C996 0.960 . S
H982 C996 0.960 1_554 S
H983 C996 0.960 . S
C984 H976 0.929 . S
C984 C985 1.377 . S
C984 C986 1.384 . S
C985 C984 1.377 . S
C985 C991 1.390 . S
C986 H977 0.930 . S
C986 C984 1.384 . S
C986 C987 1.372 . S
C987 C986 1.372 . S
C987 C988 1.400 . S
C987 C992 1.490 . S
C988 H978 0.930 . S
C988 C987 1.400 . S
C988 C991 1.386 . S
H989 C1005 0.930 . S
H990 C1006 0.931 . S
C991 H979 0.929 . S
C991 C985 1.390 . S
C991 C988 1.386 . S
C992 C987 1.490 . S
C992 C994 1.395 . S
C992 C995 1.403 1_554 S
H993 C999 0.930 . S
C994 H980 0.930 . S
C994 C992 1.395 . S
C994 C997 1.403 . S
C995 C992 1.403 1_556 S
C995 C996 1.524 . S
C995 C999 1.400 . S
C996 H981 0.960 . S
C996 H982 0.960 1_556 S
C996 H983 0.960 . S
C996 C995 1.524 . S
C997 C994 1.403 . S
C997 C998 1.392 1_554 S
C997 C1001 1.495 . S
C998 C997 1.392 1_556 S
C998 C999 1.385 . S
C998 C1000 1.478 . S
C999 H993 0.930 . S
C999 C995 1.400 . S
C999 C998 1.385 . S
C1000 C998 1.478 . S
C1000 C1002 1.381 . S
C1000 C1006 1.383 . S
C1001 C997 1.495 . S
C1001 H1007 0.959 . S
C1001 H1008 0.965 . S
C1001 H1009 0.960 . S
C1002 C1000 1.381 . S
C1002 C1003 1.394 . S
C1002 H1010 0.930 . S
C1003 C1002 1.394 . S
C1003 C1004 1.383 . S
C1003 H1011 0.929 . S
C1004 C1003 1.383 . S
C1004 C1005 1.377 . S
C1005 H989 0.930 . S
C1005 C1004 1.377 . S
C1005 C1006 1.379 . S
C1006 H990 0.931 . S
C1006 C1000 1.383 . S
C1006 C1005 1.379 . S
H1007 C1001 0.959 . S
H1008 C1001 0.965 . S
H1009 C1001 0.960 . S
H1010 C1002 0.930 . S
H1011 C1003 0.929 . S
H1012 C1020 0.929 . S
H1013 C1022 0.930 . S
H1014 C1024 0.930 . S
H1015 C1027 0.929 . S
H1016 C1030 0.930 . S
H1017 C1032 0.960 . S
H1018 C1032 0.960 . S
H1019 C1032 0.960 . S
C1020 H1012 0.929 . S
C1020 C1021 1.377 . S
C1020 C1022 1.384 . S
C1021 C1020 1.377 . S
C1021 C1027 1.390 . S
C1022 H1013 0.930 . S
C1022 C1020 1.384 . S
C1022 C1023 1.372 . S
C1023 C1022 1.372 . S
C1023 C1024 1.400 . S
C1023 C1028 1.490 . S
C1024 H1014 0.930 . S
C1024 C1023 1.400 . S
C1024 C1027 1.386 . S
H1025 C1041 0.930 . S
H1026 C1042 0.931 . S
C1027 H1015 0.929 . S
C1027 C1021 1.390 . S
C1027 C1024 1.386 . S
C1028 C1023 1.490 . S
C1028 C1030 1.395 . S
C1028 C1031 1.403 1_554 S
H1029 C1035 0.930 . S
C1030 H1016 0.930 . S
C1030 C1028 1.395 . S
C1030 C1033 1.403 . S
C1031 C1028 1.403 1_556 S
C1031 C1032 1.524 . S
C1031 C1035 1.400 . S
C1032 H1017 0.960 . S
C1032 H1018 0.960 . S
C1032 H1019 0.960 . S
C1032 C1031 1.524 . S
C1033 C1030 1.403 . S
C1033 C1034 1.392 1_554 S
C1033 C1037 1.495 . S
C1034 C1033 1.392 1_556 S
C1034 C1035 1.385 . S
C1034 C1036 1.478 . S
C1035 H1029 0.930 . S
C1035 C1031 1.400 . S
C1035 C1034 1.385 . S
C1036 C1034 1.478 . S
C1036 C1038 1.381 . S
C1036 C1042 1.383 . S
C1037 C1033 1.495 . S
C1037 H1043 0.959 . S
C1037 H1044 0.961 . S
C1037 H1045 0.960 . S
C1038 C1036 1.381 . S
C1038 C1039 1.394 . S
C1038 H1046 0.930 . S
C1039 C1038 1.394 . S
C1039 C1040 1.383 . S
C1039 H1047 0.929 . S
C1040 C1039 1.383 . S
C1040 C1041 1.377 . S
C1041 H1025 0.930 . S
C1041 C1040 1.377 . S
C1041 C1042 1.379 . S
C1042 H1026 0.931 . S
C1042 C1036 1.383 . S
C1042 C1041 1.379 . S
H1043 C1037 0.959 . S
H1044 C1037 0.961 . S
H1045 C1037 0.960 . S
H1046 C1038 0.930 . S
H1047 C1039 0.929 . S
C481 C33 1.523 . S
C500 C151 1.518 . S
C517 C210 1.528 . S
C536 C92 1.527 . S
C553 C387 1.526 . S
C572 C269 1.533 . S
C589 C328 1.526 . S
C608 C446 1.513 . S
C625 C359 1.727 . S
C644 C5 1.738 . S
C661 C64 1.725 . S
C680 C418 1.731 . S
C697 C123 1.724 . S
C716 C241 1.724 . S
C733 C182 1.723 . S
C752 C300 1.713 . S
C769 C357 1.562 . S
C788 C3 1.557 . S
C805 C62 1.563 . S
C824 C416 1.546 . S
C841 C239 1.563 . S
C860 C121 1.547 . S
C877 C298 1.567 . S
C896 C180 1.578 . S
C913 C111 0.476 . S
C932 C52 0.467 . S
C949 C170 0.476 . S
C968 C229 0.414 . S
C985 C347 0.476 . S
C1004 C288 0.466 . S
C1021 C406 0.457 . S
C1040 C465 0.490 . S
