# Generated by pormake.
# Topology irl, (4)-cn, num edge types: 1
# Building blocks:
#     Node 0, Type 0, BuildingBlock: TATPOV_clean_sbu_0, # of connection points: 4
#     Node 1, Type 0, BuildingBlock: TATPOV_clean_sbu_0, # of connection points: 4
#     Node 2, Type 0, BuildingBlock: TATPOV_clean_sbu_0, # of connection points: 4
#     Node 3, Type 0, BuildingBlock: TATPOV_clean_sbu_0, # of connection points: 4
#     Node 4, Type 0, BuildingBlock: TATPOV_clean_sbu_0, # of connection points: 4
#     Node 5, Type 0, BuildingBlock: TATPOV_clean_sbu_0, # of connection points: 4
#     Node 6, Type 0, BuildingBlock: TATPOV_clean_sbu_0, # of connection points: 4
#     Node 7, Type 0, BuildingBlock: TATPOV_clean_sbu_0, # of connection points: 4
#     Edge 8, Type (0, 0), BuildingBlock: CIFDUS_clean_linker_0, # of connection points: 2
#     Edge 9, Type (0, 0), BuildingBlock: CIFDUS_clean_linker_0, # of connection points: 2
#     Edge 10, Type (0, 0), BuildingBlock: CIFDUS_clean_linker_0, # of connection points: 2
#     Edge 11, Type (0, 0), BuildingBlock: CIFDUS_clean_linker_0, # of connection points: 2
#     Edge 12, Type (0, 0), BuildingBlock: CIFDUS_clean_linker_0, # of connection points: 2
#     Edge 13, Type (0, 0), BuildingBlock: CIFDUS_clean_linker_0, # of connection points: 2
#     Edge 14, Type (0, 0), BuildingBlock: CIFDUS_clean_linker_0, # of connection points: 2
#     Edge 15, Type (0, 0), BuildingBlock: CIFDUS_clean_linker_0, # of connection points: 2
#     Edge 16, Type (0, 0), BuildingBlock: CIFDUS_clean_linker_0, # of connection points: 2
#     Edge 17, Type (0, 0), BuildingBlock: CIFDUS_clean_linker_0, # of connection points: 2
#     Edge 18, Type (0, 0), BuildingBlock: CIFDUS_clean_linker_0, # of connection points: 2
#     Edge 19, Type (0, 0), BuildingBlock: CIFDUS_clean_linker_0, # of connection points: 2
#     Edge 20, Type (0, 0), BuildingBlock: CIFDUS_clean_linker_0, # of connection points: 2
#     Edge 21, Type (0, 0), BuildingBlock: CIFDUS_clean_linker_0, # of connection points: 2
#     Edge 22, Type (0, 0), BuildingBlock: CIFDUS_clean_linker_0, # of connection points: 2
#     Edge 23, Type (0, 0), BuildingBlock: CIFDUS_clean_linker_0, # of connection points: 2
# Relax obj value: 0.140
# Max RMSD: 0.158
# Mean RMSD: 0.158
data_MOF--net-irl--node1-TATPOV_clean_sbu_0--edge1-CIFDUS_clean_linker_0
_symmetry_space_group_name_H-M    P1
_symmetry_Int_Tables_number       1
_symmetry_cell_setting            triclinic
loop_
_symmetry_equiv_pos_as_xyz
'x, y, z'
_cell_length_a     34.553401
_cell_length_b     26.061595
_cell_length_c     24.85291
_cell_angle_alpha  90.076527
_cell_angle_beta   90.27372
_cell_angle_gamma 88.839812
loop_
_atom_site_label
_atom_site_type_symbol
_atom_site_fract_x
_atom_site_fract_y
_atom_site_fract_z
_atom_type_partial_charge
Zn0 Zn 0.99123 0.25882 -0.00575 0.0
Zn1 Zn 0.06929 0.26068 -0.01732 0.0
O2 O 0.04768 0.2938 0.91297 0.0
O3 O 0.98437 0.2941 0.92285 0.0
O4 O 0.1278 0.26248 0.97507 0.0
O5 O 0.99556 0.29888 0.06322 0.0
O6 O 0.05893 0.29777 0.05456 0.0
C7 C 1.01377 0.30414 0.89486 0.0
C8 C 0.02787 0.158 -0.00752 0.0
O9 O 0.05858 0.18371 -0.01297 0.0
O10 O 0.99532 0.18097 -0.00352 0.0
C11 C 0.14463 0.23465 0.9398 0.0
O12 O 0.1234 0.20644 0.90775 0.0
C13 C 0.02869 0.30989 0.08133 0.0
Zn14 Zn 0.04016 0.75233 -0.00087 0.0
Zn15 Zn 0.96159 0.75132 0.0015 0.0
O16 O 0.97554 0.71769 0.92883 0.0
O17 O 0.03924 0.71525 0.92758 0.0
O18 O 0.90299 0.74928 0.00386 0.0
O19 O 0.04248 0.71431 0.07004 0.0
O20 O 0.9788 0.71508 0.07157 0.0
C21 C 1.00716 0.70617 0.90497 0.0
C22 C 1.00376 0.85364 0.00123 0.0
O23 O 0.97271 0.82813 0.00244 0.0
O24 O 0.03635 0.83044 -0.00041 0.0
C25 C 0.88283 0.77657 0.97137 0.0
O26 O 0.90066 0.80515 0.93614 0.0
C27 C 1.01125 0.70363 0.09363 0.0
Zn28 Zn 1.01613 0.74859 0.49687 0.0
Zn29 Zn 0.09433 0.74607 0.50036 0.0
O30 O 0.07616 0.71349 0.57128 0.0
O31 O 1.01256 0.71298 0.56874 0.0
O32 O 0.15271 0.73952 0.50745 0.0
O33 O 1.01763 0.70958 0.42659 0.0
O34 O 0.0813 0.71099 0.42818 0.0
C35 C 0.044 0.7031 0.59333 0.0
C36 C 0.05139 0.84936 0.49536 0.0
O37 O 0.08311 0.82357 0.49745 0.0
O38 O 1.01934 0.82646 0.49493 0.0
C39 C 0.17666 0.75578 0.473 0.0
O40 O 0.16347 0.77814 0.42906 0.0
C41 C 0.04982 0.69951 0.40437 0.0
Zn42 Zn 0.04873 0.25483 0.48216 0.0
Zn43 Zn 0.97004 0.25566 0.49034 0.0
O44 O 0.98776 0.29036 0.56081 0.0
O45 O 0.05123 0.29208 0.55302 0.0
O46 O 0.91111 0.25517 0.4917 0.0
O47 O 0.04483 0.29351 0.41221 0.0
O48 O 0.98138 0.29278 0.41923 0.0
C49 C 1.02088 0.30194 0.57978 0.0
C50 C 1.01642 0.15354 0.48533 0.0
O51 O 0.98458 0.17894 0.48856 0.0
O52 O 0.04814 0.17688 0.48198 0.0
C53 C 0.88922 0.28624 0.5176 0.0
O54 O 0.90489 0.32202 0.54738 0.0
C55 C 1.01165 0.30478 0.39332 0.0
Zn56 Zn 0.49767 0.77651 0.97437 0.0
Zn57 Zn 0.57648 0.77509 -0.01828 0.0
O58 O 0.56392 0.81096 0.91011 0.0
O59 O 0.50041 0.81336 0.90306 0.0
O60 O 0.63508 0.77613 -0.0156 0.0
O61 O 0.49538 0.81524 0.04479 0.0
O62 O 0.55896 0.81107 0.05129 0.0
C63 C 0.53332 0.82319 0.88388 0.0
C64 C 0.53248 0.67415 -0.02099 0.0
O65 O 0.56403 0.69858 -0.0188 0.0
O66 O 0.50037 0.69843 -0.02406 0.0
C67 C 0.65482 0.74846 0.01701 0.0
O68 O 0.63664 0.71886 0.05094 0.0
C69 C 0.52615 0.82422 0.07078 0.0
Zn70 Zn 0.53546 0.26886 -0.01342 0.0
Zn71 Zn 0.45656 0.27011 -0.0131 0.0
O72 O 0.47161 0.23469 0.91538 0.0
O73 O 0.53531 0.23103 0.91573 0.0
O74 O 0.39751 0.27114 -0.0114 0.0
O75 O 0.53628 0.23163 0.05764 0.0
O76 O 0.47256 0.23452 0.0581 0.0
C77 C 0.50342 0.2221 0.89257 0.0
C78 C 0.50091 0.37109 -0.01394 0.0
O79 O 0.46934 0.34662 -0.01359 0.0
O80 O 0.53309 0.34683 -0.01385 0.0
C81 C 0.37613 0.24354 0.95891 0.0
O82 O 0.39244 0.2112 0.92493 0.0
C83 C 0.50464 0.2223 0.08083 0.0
Zn84 Zn 0.50437 0.26306 0.48594 0.0
Zn85 Zn 0.5824 0.27157 0.48757 0.0
O86 O 0.56876 0.23564 0.55876 0.0
O87 O 0.50561 0.22644 0.55732 0.0
O88 O 0.6412 0.27478 0.49072 0.0
O89 O 0.50761 0.22514 0.41534 0.0
O90 O 0.57075 0.23487 0.41568 0.0
C91 C 0.53785 0.22063 0.58119 0.0
C92 C 0.53049 0.36828 0.48498 0.0
O93 O 0.56407 0.34704 0.48608 0.0
O94 O 0.50055 0.34093 0.48479 0.0
C95 C 0.6572 0.30298 0.5259 0.0
O96 O 0.63511 0.32969 0.559 0.0
C97 C 0.54007 0.21941 0.39244 0.0
Zn98 Zn 0.5681 0.77994 0.48349 0.0
Zn99 Zn 0.49046 0.77158 0.46873 0.0
O100 O 0.49548 0.80796 0.5417 0.0
O101 O 0.55809 0.8179 0.55305 0.0
O102 O 0.43256 0.77072 0.45502 0.0
O103 O 0.57338 0.81705 0.41286 0.0
O104 O 0.51068 0.80816 0.40153 0.0
C105 C 0.52375 0.8237 0.56996 0.0
C106 C 0.54111 0.67461 0.4789 0.0
O107 O 0.50782 0.69587 0.47257 0.0
O108 O 0.57086 0.70192 0.4842 0.0
C109 C 0.40845 0.75352 0.48871 0.0
O110 O 0.42134 0.73446 0.53447 0.0
C111 C 0.54321 0.82341 0.38437 0.0
H112 H 0.06379 0.91943 -0.00543 0.0
H113 H 0.93926 0.91586 0.00748 0.0
H114 H 0.9359 1.00945 0.00632 0.0
H115 H 0.9681 0.09216 0.00102 0.0
H116 H 0.09257 0.0959 -0.01272 0.0
H117 H 0.09604 1.00227 -0.0106 0.0
C118 C 0.03588 0.93904 -0.00278 0.0
C119 C 1.00184 0.91051 0.00114 0.0
C120 C 0.03411 0.99291 -0.00367 0.0
C121 C 0.96595 0.93673 0.00444 0.0
C122 C 0.96398 0.9903 0.00376 0.0
C123 C 0.99604 0.0726 -0.00147 0.0
C124 C 0.03002 0.10116 -0.006 0.0
C125 C 0.99785 0.01876 -0.00038 0.0
C126 C 0.06593 0.07499 -0.00922 0.0
C127 C 0.06796 0.0214 -0.00801 0.0
H128 H 0.98917 0.91491 0.49324 0.0
H129 H 0.11418 0.91181 0.49238 0.0
H130 H 0.1143 1.00546 0.48848 0.0
H131 H 0.07896 0.08813 0.48579 0.0
H132 H 0.95394 0.09086 0.48731 0.0
H133 H 0.95392 0.9973 0.49036 0.0
C134 C 1.01651 0.9346 0.49219 0.0
C135 C 0.05162 0.90622 0.49316 0.0
C136 C 1.01639 0.98841 0.49003 0.0
C137 C 0.08671 0.93258 0.49178 0.0
C138 C 0.08681 0.98617 0.4895 0.0
C139 C 0.05167 0.06834 0.48667 0.0
C140 C 1.0165 0.09665 0.48631 0.0
C141 C 0.05183 0.01447 0.48865 0.0
C142 C 0.98145 0.07019 0.48759 0.0
C143 C 0.98139 0.01662 0.48935 0.0
H144 H 0.47079 0.61081 -0.02117 0.0
H145 H 0.59579 0.60947 -0.01728 0.0
H146 H 0.59692 0.51584 -0.01455 0.0
H147 H 0.56257 0.43447 -0.01339 0.0
H148 H 0.43756 0.43579 -0.01687 0.0
H149 H 0.43643 0.52943 -0.01954 0.0
C150 C 0.49833 0.59012 -0.01978 0.0
C151 C 0.53315 0.61728 -0.01954 0.0
C152 C 0.4988 0.53627 -0.01808 0.0
C153 C 0.56853 0.58968 -0.01757 0.0
C154 C 0.56922 0.53608 -0.01599 0.0
C155 C 0.53502 0.45515 -0.0147 0.0
C156 C 0.50021 0.42798 -0.01496 0.0
C157 C 0.53455 0.509 -0.01623 0.0
C158 C 0.46483 0.45559 -0.01662 0.0
C159 C 0.46413 0.50919 -0.01818 0.0
H160 H 0.58751 0.43903 0.48837 0.0
H161 H 0.46335 0.42516 0.47822 0.0
H162 H 0.45568 0.51827 0.47513 0.0
H163 H 0.48403 0.60387 0.47525 0.0
H164 H 0.60818 0.61768 0.48596 0.0
H165 H 0.61584 0.52458 0.48882 0.0
C166 C 0.55876 0.45632 0.48547 0.0
C167 C 0.52612 0.42497 0.4835 0.0
C168 C 0.55446 0.51002 0.48377 0.0
C169 C 0.48907 0.44821 0.47984 0.0
C170 C 0.48459 0.50155 0.47803 0.0
C171 C 0.51278 0.58656 0.47813 0.0
C172 C 0.54542 0.6179 0.48032 0.0
C173 C 0.51707 0.53285 0.47993 0.0
C174 C 0.58246 0.59465 0.48422 0.0
C175 C 0.58693 0.54131 0.48586 0.0
H176 H 0.97037 0.33325 0.15072 0.0
H177 H 0.09503 0.32719 0.13877 0.0
H178 H 0.10057 0.33485 0.23634 0.0
H179 H 0.07009 0.3267 0.32464 0.0
H180 H 0.94541 0.32677 0.33631 0.0
H181 H 0.93991 0.33888 0.23926 0.0
C182 C 0.99881 0.33475 0.16924 0.0
C183 C 0.03222 0.32834 0.13751 0.0
C184 C 1.00179 0.33734 0.22547 0.0
C185 C 0.0688 0.33131 0.16221 0.0
C186 C 0.072 0.33539 0.21811 0.0
C187 C 0.04166 0.33045 0.30621 0.0
C188 C 1.00822 0.32454 0.33761 0.0
C189 C 0.03869 0.33579 0.25018 0.0
C190 C 0.97165 0.33038 0.31307 0.0
C191 C 0.96847 0.33711 0.25748 0.0
H192 H 0.98801 0.67653 0.34118 0.0
H193 H 0.11262 0.68597 0.33853 0.0
H194 H 0.11184 0.67936 0.24056 0.0
H195 H 0.07517 0.68567 0.15596 0.0
H196 H 0.95032 0.6813 0.15897 0.0
H197 H 0.95196 0.67038 0.25642 0.0
C198 C 1.01513 0.67606 0.31937 0.0
C199 C 0.05027 0.68278 0.34727 0.0
C200 C 1.0144 0.67382 0.26293 0.0
C201 C 0.0851 0.68137 0.31821 0.0
C202 C 0.08467 0.67789 0.26207 0.0
C203 C 0.0483 0.68126 0.17769 0.0
C204 C 1.01262 0.68535 0.15015 0.0
C205 C 0.04938 0.67642 0.23397 0.0
C206 C 0.97818 0.67894 0.17907 0.0
C207 C 0.97908 0.67289 0.23492 0.0
H208 H 0.98063 0.68959 0.65624 0.0
H209 H 0.10558 0.68126 0.6596 0.0
H210 H 0.10468 0.67317 0.75733 0.0
H211 H 0.06905 0.68188 0.84192 0.0
H212 H 0.94426 0.69461 0.83884 0.0
H213 H 0.94456 0.6866 0.74098 0.0
C214 C 1.00769 0.68495 0.67816 0.0
C215 C 0.04315 0.68698 0.65054 0.0
C216 C 1.00703 0.68163 0.73457 0.0
C217 C 0.07786 0.68042 0.67973 0.0
C218 C 0.0774 0.67598 0.73573 0.0
C219 C 0.04182 0.6819 0.82004 0.0
C220 C 1.00673 0.68978 0.84777 0.0
C221 C 0.04223 0.67864 0.76365 0.0
C222 C 0.97174 0.68907 0.81864 0.0
C223 C 0.97188 0.68475 0.76256 0.0
H224 H 0.06925 0.32533 0.82094 0.0
H225 H 0.94536 0.31886 0.84095 0.0
H226 H 0.93611 0.32559 0.74403 0.0
H227 H 0.96361 0.31893 0.65334 0.0
H228 H 0.08757 0.32423 0.6335 0.0
H229 H 0.0961 0.33327 0.73026 0.0
C230 C 0.04018 0.3265 0.80425 0.0
C231 C 1.00818 0.32037 0.83818 0.0
C232 C 0.03498 0.32958 0.74827 0.0
C233 C 0.97066 0.32277 0.81582 0.0
C234 C 0.96527 0.32642 0.76025 0.0
C235 C 0.99243 0.3232 0.67001 0.0
C236 C 0.02488 0.31962 0.6362 0.0
C237 C 0.99729 0.32759 0.72597 0.0
C238 C 0.06201 0.326 0.65854 0.0
C239 C 0.06701 0.33102 0.71403 0.0
H240 H 0.58517 0.84148 0.14128 0.0
H241 H 0.4605 0.84698 0.12758 0.0
H242 H 0.45491 0.85563 0.22479 0.0
H243 H 0.48498 0.84651 0.31386 0.0
H244 H 0.60958 0.83906 0.32779 0.0
H245 H 0.61548 0.84731 0.23052 0.0
C246 C 0.55678 0.84575 0.15938 0.0
C247 C 0.52334 0.84227 0.1272 0.0
C248 C 0.55368 0.84974 0.21555 0.0
C249 C 0.48679 0.8487 0.15135 0.0
C250 C 0.48351 0.85345 0.20708 0.0
C251 C 0.51346 0.84777 0.29577 0.0
C252 C 0.54671 0.84092 0.32799 0.0
C253 C 0.5167 0.8516 0.23967 0.0
C254 C 0.58341 0.84362 0.30395 0.0
C255 C 0.58686 0.84808 0.2482 0.0
H256 H 0.47899 0.19607 0.3281 0.0
H257 H 0.60355 0.20679 0.32767 0.0
H258 H 0.60371 0.19978 0.22972 0.0
H259 H 0.56785 0.20508 0.14453 0.0
H260 H 0.44298 0.20048 0.14518 0.0
H261 H 0.44372 0.18985 0.24274 0.0
C262 C 0.50632 0.1958 0.3068 0.0
C263 C 0.54117 0.20293 0.33529 0.0
C264 C 0.5061 0.19351 0.25037 0.0
C265 C 0.57626 0.20191 0.30686 0.0
C266 C 0.57636 0.19817 0.25075 0.0
C267 C 0.54077 0.20072 0.16576 0.0
C268 C 0.50535 0.20456 0.13753 0.0
C269 C 0.54133 0.19623 0.22205 0.0
C270 C 0.47064 0.19828 0.16583 0.0
C271 C 0.47103 0.19239 0.22172 0.0
H272 H 0.56603 0.20308 0.82914 0.0
H273 H 0.44104 0.20287 0.82763 0.0
H274 H 0.44122 0.19338 0.72994 0.0
H275 H 0.47634 0.19944 0.64483 0.0
H276 H 0.60116 0.20564 0.64638 0.0
H277 H 0.60148 0.19761 0.7442 0.0
C278 C 0.53878 0.19991 0.80768 0.0
C279 C 0.50355 0.20467 0.83573 0.0
C280 C 0.53905 0.19611 0.75135 0.0
C281 C 0.46859 0.1999 0.80714 0.0
C282 C 0.46866 0.1947 0.75116 0.0
C283 C 0.50372 0.19796 0.66635 0.0
C284 C 0.53864 0.20409 0.63825 0.0
C285 C 0.50365 0.19499 0.72275 0.0
C286 C 0.57381 0.20158 0.66692 0.0
C287 C 0.57402 0.19721 0.72295 0.0
H288 H 0.475 0.83678 0.81102 0.0
H289 H 0.59868 0.85028 0.83016 0.0
H290 H 0.60557 0.86131 0.73329 0.0
H291 H 0.578 0.85216 0.64305 0.0
H292 H 0.45488 0.83276 0.62361 0.0
H293 H 0.44625 0.84014 0.72071 0.0
C294 C 0.5034 0.84326 0.79423 0.0
C295 C 0.53636 0.84161 0.82775 0.0
C296 C 0.50732 0.84798 0.73829 0.0
C297 C 0.57286 0.85063 0.80526 0.0
C298 C 0.57686 0.85678 0.74979 0.0
C299 C 0.54912 0.85063 0.65983 0.0
C300 C 0.51726 0.8408 0.62612 0.0
C301 C 0.54451 0.85318 0.7158 0.0
C302 C 0.48002 0.83968 0.6486 0.0
C303 C 0.47506 0.84362 0.70422 0.0
H304 H 0.32295 0.19503 0.89689 0.0
H305 H 0.3327 0.30265 0.02819 0.0
H306 H 0.26221 0.31007 0.03348 0.0
H307 H 0.19756 0.28544 0.00126 0.0
H308 H 0.18841 0.17798 0.86964 0.0
H309 H 0.25872 0.17133 0.8641 0.0
C310 C 0.30973 0.22012 0.92674 0.0
C311 C 0.33325 0.24812 0.96216 0.0
C312 C 0.26915 0.22434 0.9295 0.0
C313 C 0.31543 0.28057 0.0004 0.0
C314 C 0.27505 0.28487 0.00347 0.0
C315 C 0.21092 0.26067 0.97126 0.0
C316 C 0.18755 0.23224 0.93597 0.0
C317 C 0.25159 0.25688 0.96826 0.0
C318 C 0.20551 0.20034 0.89738 0.0
C319 C 0.24582 0.19642 0.89417 0.0
H320 H 0.70108 0.80319 0.95062 0.0
H321 H 0.70534 0.69374 0.08085 0.0
H322 H 0.77597 0.69265 0.0783 0.0
H323 H 0.83672 0.72239 0.03884 0.0
H324 H 0.83219 0.8317 0.90845 0.0
H325 H 0.76165 0.83307 0.91143 0.0
C326 C 0.71741 0.77913 -0.02146 0.0
C327 C 0.69779 0.74861 0.01587 0.0
C328 C 0.75809 0.77856 -0.02318 0.0
C329 C 0.71956 0.71767 0.05168 0.0
C330 C 0.76003 0.71697 0.05025 0.0
C331 C 0.82033 0.74651 0.01104 0.0
C332 C 0.83987 0.77683 0.97344 0.0
C333 C 0.77962 0.74718 0.01293 0.0
C334 C 0.81805 0.80788 0.93779 0.0
C335 C 0.77762 0.80875 0.93946 0.0
H336 H 0.23561 0.78606 0.40833 0.0
H337 H 0.21304 0.71314 0.56056 0.0
H338 H 0.28239 0.70539 0.57837 0.0
H339 H 0.34955 0.7203 0.55157 0.0
H340 H 0.37226 0.79322 0.3994 0.0
H341 H 0.3029 0.7998 0.38088 0.0
C342 C 0.24581 0.76838 0.44538 0.0
C343 C 0.21898 0.75033 0.48303 0.0
C344 C 0.28586 0.76404 0.45549 0.0
C345 C 0.23289 0.72746 0.5308 0.0
C346 C 0.27263 0.723 0.54109 0.0
C347 C 0.3394 0.73755 0.51428 0.0
C348 C 0.36623 0.7563 0.47704 0.0
C349 C 0.29938 0.74131 0.50384 0.0
C350 C 0.35238 0.77846 0.42889 0.0
C351 C 0.31265 0.7823 0.41822 0.0
H352 H 0.71183 0.24662 0.47091 0.0
H353 H 0.69911 0.36575 0.59077 0.0
H354 H 0.76925 0.37098 0.59883 0.0
H355 H 0.83443 0.34208 0.57203 0.0
H356 H 0.84753 0.22218 0.45313 0.0
H357 H 0.77729 0.21698 0.44474 0.0
C358 C 0.72438 0.27378 0.49874 0.0
C359 C 0.70005 0.30578 0.53008 0.0
C360 C 0.76495 0.27648 0.50348 0.0
C361 C 0.71697 0.34059 0.5661 0.0
C362 C 0.75718 0.34366 0.57078 0.0
C363 C 0.82198 0.31477 0.54426 0.0
C364 C 0.8464 0.28266 0.51325 0.0
C365 C 0.78147 0.31182 0.5397 0.0
C366 C 0.82958 0.2474 0.47761 0.0
C367 C 0.78932 0.24441 0.4727 0.0
loop_
_geom_bond_atom_site_label_1
_geom_bond_atom_site_label_2
_geom_bond_distance
_geom_bond_site_symmetry_2
_ccdc_geom_bond_type
Zn0 O3 2.031 1_654 S
Zn0 O5 2.049 . S
Zn0 O10 2.067 1_655 S
Zn1 O2 1.962 1_554 S
Zn1 O4 1.986 . S
Zn1 O6 1.996 . S
Zn1 O9 1.943 . S
O2 Zn1 1.962 1_556 S
O2 C7 1.254 . S
O3 Zn0 2.031 1_456 S
O3 C7 1.269 . S
O4 Zn1 1.986 . S
O4 C11 1.262 . S
O5 Zn0 2.049 . S
O5 C13 1.260 1_655 S
O6 Zn1 1.996 . S
O6 C13 1.257 . S
C7 O2 1.254 . S
C7 O3 1.269 . S
C8 O9 1.249 . S
C8 O10 1.270 . S
O9 Zn1 1.943 . S
O9 C8 1.249 . S
O10 Zn0 2.067 1_455 S
O10 C8 1.270 . S
C11 O4 1.262 . S
C11 O12 1.232 1_554 S
O12 C11 1.232 1_556 S
C13 O5 1.260 1_455 S
C13 O6 1.257 . S
Zn14 O17 2.031 1_454 S
Zn14 O19 2.049 . S
Zn14 O24 2.067 1_455 S
Zn15 O16 1.962 1_554 S
Zn15 O18 1.986 . S
Zn15 O20 1.996 . S
Zn15 O23 1.943 . S
O16 Zn15 1.962 1_556 S
O16 C21 1.254 . S
O17 Zn14 2.031 1_656 S
O17 C21 1.269 . S
O18 Zn15 1.986 . S
O18 C25 1.262 . S
O19 Zn14 2.049 . S
O19 C27 1.260 1_455 S
O20 Zn15 1.996 . S
O20 C27 1.257 . S
C21 O16 1.254 . S
C21 O17 1.269 . S
C22 O23 1.249 . S
C22 O24 1.270 . S
O23 Zn15 1.943 . S
O23 C22 1.249 . S
O24 Zn14 2.067 1_655 S
O24 C22 1.270 . S
C25 O18 1.262 . S
C25 O26 1.232 1_554 S
O26 C25 1.232 1_556 S
C27 O19 1.260 1_655 S
C27 O20 1.257 . S
Zn28 O31 2.031 1_655 S
Zn28 O33 2.049 . S
Zn28 O38 2.067 1_655 S
Zn29 O30 1.962 . S
Zn29 O32 1.986 . S
Zn29 O34 1.996 . S
Zn29 O37 1.943 . S
O30 Zn29 1.962 . S
O30 C35 1.254 . S
O31 Zn28 2.031 1_455 S
O31 C35 1.269 . S
O32 Zn29 1.986 . S
O32 C39 1.262 . S
O33 Zn28 2.049 . S
O33 C41 1.260 1_655 S
O34 Zn29 1.996 . S
O34 C41 1.257 . S
C35 O30 1.254 . S
C35 O31 1.269 . S
C36 O37 1.249 . S
C36 O38 1.270 . S
O37 Zn29 1.943 . S
O37 C36 1.249 . S
O38 Zn28 2.067 1_455 S
O38 C36 1.270 . S
C39 O32 1.262 . S
C39 O40 1.232 . S
O40 C39 1.232 . S
C41 O33 1.260 1_455 S
C41 O34 1.257 . S
Zn42 O45 2.031 1_455 S
Zn42 O47 2.049 . S
Zn42 O52 2.067 1_455 S
Zn43 O44 1.962 . S
Zn43 O46 1.986 . S
Zn43 O48 1.996 . S
Zn43 O51 1.943 . S
O44 Zn43 1.962 . S
O44 C49 1.254 . S
O45 Zn42 2.031 1_655 S
O45 C49 1.269 . S
O46 Zn43 1.986 . S
O46 C53 1.262 . S
O47 Zn42 2.049 . S
O47 C55 1.260 1_455 S
O48 Zn43 1.996 . S
O48 C55 1.257 . S
C49 O44 1.254 . S
C49 O45 1.269 . S
C50 O51 1.249 . S
C50 O52 1.270 . S
O51 Zn43 1.943 . S
O51 C50 1.249 . S
O52 Zn42 2.067 1_655 S
O52 C50 1.270 . S
C53 O46 1.262 . S
C53 O54 1.232 . S
O54 C53 1.232 . S
C55 O47 1.260 1_655 S
C55 O48 1.257 . S
Zn56 O59 2.031 1_554 S
Zn56 O61 2.049 . S
Zn56 O66 2.067 . S
Zn57 O58 1.962 1_554 S
Zn57 O60 1.986 . S
Zn57 O62 1.996 . S
Zn57 O65 1.943 . S
O58 Zn57 1.962 1_556 S
O58 C63 1.254 . S
O59 Zn56 2.031 1_556 S
O59 C63 1.269 . S
O60 Zn57 1.986 . S
O60 C67 1.262 . S
O61 Zn56 2.049 . S
O61 C69 1.260 . S
O62 Zn57 1.996 . S
O62 C69 1.257 . S
C63 O58 1.254 . S
C63 O59 1.269 . S
C64 O65 1.249 . S
C64 O66 1.270 . S
O65 Zn57 1.943 . S
O65 C64 1.249 . S
O66 Zn56 2.067 . S
O66 C64 1.270 . S
C67 O60 1.262 . S
C67 O68 1.232 1_554 S
O68 C67 1.232 1_556 S
C69 O61 1.260 . S
C69 O62 1.257 . S
Zn70 O73 2.031 1_554 S
Zn70 O75 2.049 . S
Zn70 O80 2.067 . S
Zn71 O72 1.962 1_554 S
Zn71 O74 1.986 . S
Zn71 O76 1.996 . S
Zn71 O79 1.943 . S
O72 Zn71 1.962 1_556 S
O72 C77 1.254 . S
O73 Zn70 2.031 1_556 S
O73 C77 1.269 . S
O74 Zn71 1.986 . S
O74 C81 1.262 . S
O75 Zn70 2.049 . S
O75 C83 1.260 . S
O76 Zn71 1.996 . S
O76 C83 1.257 . S
C77 O72 1.254 . S
C77 O73 1.269 . S
C78 O79 1.249 . S
C78 O80 1.270 . S
O79 Zn71 1.943 . S
O79 C78 1.249 . S
O80 Zn70 2.067 . S
O80 C78 1.270 . S
C81 O74 1.262 . S
C81 O82 1.232 1_554 S
O82 C81 1.232 1_556 S
C83 O75 1.260 . S
C83 O76 1.257 . S
Zn84 O87 2.031 . S
Zn84 O89 2.049 . S
Zn84 O94 2.067 . S
Zn85 O86 1.962 . S
Zn85 O88 1.986 . S
Zn85 O90 1.996 . S
Zn85 O93 1.943 . S
O86 Zn85 1.962 . S
O86 C91 1.254 . S
O87 Zn84 2.031 . S
O87 C91 1.269 . S
O88 Zn85 1.986 . S
O88 C95 1.262 . S
O89 Zn84 2.049 . S
O89 C97 1.260 . S
O90 Zn85 1.996 . S
O90 C97 1.257 . S
C91 O86 1.254 . S
C91 O87 1.269 . S
C92 O93 1.249 . S
C92 O94 1.270 . S
O93 Zn85 1.943 . S
O93 C92 1.249 . S
O94 Zn84 2.067 . S
O94 C92 1.270 . S
C95 O88 1.262 . S
C95 O96 1.232 . S
O96 C95 1.232 . S
C97 O89 1.260 . S
C97 O90 1.257 . S
Zn98 O101 2.031 . S
Zn98 O103 2.049 . S
Zn98 O108 2.067 . S
Zn99 O100 1.962 . S
Zn99 O102 1.986 . S
Zn99 O104 1.996 . S
Zn99 O107 1.943 . S
O100 Zn99 1.962 . S
O100 C105 1.254 . S
O101 Zn98 2.031 . S
O101 C105 1.269 . S
O102 Zn99 1.986 . S
O102 C109 1.262 . S
O103 Zn98 2.049 . S
O103 C111 1.260 . S
O104 Zn99 1.996 . S
O104 C111 1.257 . S
C105 O100 1.254 . S
C105 O101 1.269 . S
C106 O107 1.249 . S
C106 O108 1.270 . S
O107 Zn99 1.943 . S
O107 C106 1.249 . S
O108 Zn98 2.067 . S
O108 C106 1.270 . S
C109 O102 1.262 . S
C109 O110 1.232 . S
O110 C109 1.232 . S
C111 O103 1.260 . S
C111 O104 1.257 . S
H112 C118 0.930 . S
H113 C121 0.930 . S
H114 C122 0.941 . S
H115 C123 0.930 . S
H116 C126 0.930 . S
H117 C127 0.941 . S
C118 H112 0.930 . S
C118 C119 1.355 1_455 S
C118 C120 1.415 . S
C119 C118 1.355 1_655 S
C119 C121 1.419 1_554 S
C120 C118 1.415 . S
C120 C125 1.425 1_464 S
C120 C127 1.414 . S
C121 H113 0.930 . S
C121 C119 1.419 1_556 S
C121 C122 1.347 1_565 S
C122 H114 0.941 . S
C122 C121 1.347 1_545 S
C122 C125 1.414 . S
C123 H115 0.930 . S
C123 C124 1.355 1_656 S
C123 C125 1.415 . S
C124 C123 1.355 1_454 S
C124 C126 1.419 . S
C125 C120 1.425 1_646 S
C125 C122 1.414 . S
C125 C123 1.415 . S
C126 H116 0.930 . S
C126 C124 1.419 . S
C126 C127 1.347 1_545 S
C127 H117 0.941 . S
C127 C120 1.414 . S
C127 C126 1.347 1_565 S
H128 C134 0.930 . S
H129 C137 0.930 . S
H130 C138 0.930 1_545 S
H131 C139 0.930 . S
H132 C142 0.930 . S
H133 C143 0.930 1_565 S
C134 H128 0.930 . S
C134 C135 1.355 1_655 S
C134 C136 1.415 . S
C135 C134 1.355 1_455 S
C135 C137 1.419 . S
C136 C134 1.415 . S
C136 C141 1.425 1_665 S
C136 C143 1.409 1_565 S
C137 H129 0.930 . S
C137 C135 1.419 . S
C137 C138 1.362 . S
C138 H130 0.930 1_565 S
C138 C137 1.362 . S
C138 C141 1.409 1_565 S
C139 H131 0.930 . S
C139 C140 1.355 1_455 S
C139 C141 1.415 . S
C140 C139 1.355 1_655 S
C140 C142 1.419 . S
C141 C136 1.425 1_445 S
C141 C138 1.409 1_545 S
C141 C139 1.415 . S
C142 H132 0.930 . S
C142 C140 1.419 . S
C142 C143 1.362 . S
C143 H133 0.930 1_545 S
C143 C136 1.409 1_545 S
C143 C142 1.362 . S
H144 C150 0.930 . S
H145 C153 0.930 . S
H146 C154 0.930 . S
H147 C155 0.930 . S
H148 C158 0.930 . S
H149 C159 0.930 . S
C150 H144 0.930 . S
C150 C151 1.355 1_554 S
C150 C152 1.415 . S
C151 C150 1.355 1_556 S
C151 C153 1.419 . S
C152 C150 1.415 . S
C152 C157 1.425 1_554 S
C152 C159 1.409 . S
C153 H145 0.930 . S
C153 C151 1.419 . S
C153 C154 1.362 . S
C154 H146 0.930 . S
C154 C153 1.362 . S
C154 C157 1.409 . S
C155 H147 0.930 . S
C155 C156 1.355 1_556 S
C155 C157 1.415 . S
C156 C155 1.355 1_554 S
C156 C158 1.419 . S
C157 C152 1.425 1_556 S
C157 C154 1.409 . S
C157 C155 1.415 . S
C158 H148 0.930 . S
C158 C156 1.419 . S
C158 C159 1.362 . S
C159 H149 0.930 . S
C159 C152 1.409 . S
C159 C158 1.362 . S
H160 C166 0.930 . S
H161 C169 0.930 . S
H162 C170 0.930 . S
H163 C171 0.930 . S
H164 C174 0.930 . S
H165 C175 0.930 . S
C166 H160 0.930 . S
C166 C167 1.355 . S
C166 C168 1.415 . S
C167 C166 1.355 . S
C167 C169 1.419 . S
C168 C166 1.415 . S
C168 C173 1.425 . S
C168 C175 1.409 . S
C169 H161 0.930 . S
C169 C167 1.419 . S
C169 C170 1.362 . S
C170 H162 0.930 . S
C170 C169 1.362 . S
C170 C173 1.409 . S
C171 H163 0.930 . S
C171 C172 1.355 . S
C171 C173 1.415 . S
C172 C171 1.355 . S
C172 C174 1.419 . S
C173 C168 1.425 . S
C173 C170 1.409 . S
C173 C171 1.415 . S
C174 H164 0.930 . S
C174 C172 1.419 . S
C174 C175 1.362 . S
C175 H165 0.930 . S
C175 C168 1.409 . S
C175 C174 1.362 . S
H176 C182 0.930 . S
H177 C185 0.930 . S
H178 C186 0.930 . S
H179 C187 0.930 . S
H180 C190 0.930 . S
H181 C191 0.930 . S
C182 H176 0.930 . S
C182 C183 1.355 1_655 S
C182 C184 1.415 . S
C183 C182 1.355 1_455 S
C183 C185 1.419 . S
C184 C182 1.415 . S
C184 C189 1.425 1_655 S
C184 C191 1.409 . S
C185 H177 0.930 . S
C185 C183 1.419 . S
C185 C186 1.362 . S
C186 H178 0.930 . S
C186 C185 1.362 . S
C186 C189 1.409 . S
C187 H179 0.930 . S
C187 C188 1.355 1_455 S
C187 C189 1.415 . S
C188 C187 1.355 1_655 S
C188 C190 1.419 . S
C189 C184 1.425 1_455 S
C189 C186 1.409 . S
C189 C187 1.415 . S
C190 H180 0.930 . S
C190 C188 1.419 . S
C190 C191 1.362 . S
C191 H181 0.930 . S
C191 C184 1.409 . S
C191 C190 1.362 . S
H192 C198 0.930 . S
H193 C201 0.930 . S
H194 C202 0.930 . S
H195 C203 0.930 . S
H196 C206 0.930 . S
H197 C207 0.930 . S
C198 H192 0.930 . S
C198 C199 1.355 1_655 S
C198 C200 1.415 . S
C199 C198 1.355 1_455 S
C199 C201 1.419 . S
C200 C198 1.415 . S
C200 C205 1.425 1_655 S
C200 C207 1.409 . S
C201 H193 0.930 . S
C201 C199 1.419 . S
C201 C202 1.362 . S
C202 H194 0.930 . S
C202 C201 1.362 . S
C202 C205 1.409 . S
C203 H195 0.930 . S
C203 C204 1.355 1_455 S
C203 C205 1.415 . S
C204 C203 1.355 1_655 S
C204 C206 1.419 . S
C205 C200 1.425 1_455 S
C205 C202 1.409 . S
C205 C203 1.415 . S
C206 H196 0.930 . S
C206 C204 1.419 . S
C206 C207 1.362 . S
C207 H197 0.930 . S
C207 C200 1.409 . S
C207 C206 1.362 . S
H208 C214 0.930 . S
H209 C217 0.930 . S
H210 C218 0.930 . S
H211 C219 0.930 . S
H212 C222 0.930 . S
H213 C223 0.930 . S
C214 H208 0.930 . S
C214 C215 1.355 . S
C214 C216 1.415 . S
C215 C214 1.355 . S
C215 C217 1.419 . S
C216 C214 1.415 . S
C216 C221 1.425 1_455 S
C216 C223 1.409 . S
C217 H209 0.930 . S
C217 C215 1.419 . S
C217 C218 1.362 1_455 S
C218 H210 0.930 . S
C218 C217 1.362 1_655 S
C218 C221 1.409 . S
C219 H211 0.930 . S
C219 C220 1.355 . S
C219 C221 1.415 . S
C220 C219 1.355 . S
C220 C222 1.419 . S
C221 C216 1.425 1_655 S
C221 C218 1.409 . S
C221 C219 1.415 . S
C222 H212 0.930 . S
C222 C220 1.419 . S
C222 C223 1.362 1_655 S
C223 H213 0.930 . S
C223 C216 1.409 . S
C223 C222 1.362 1_455 S
H224 C230 0.930 . S
H225 C233 0.930 . S
H226 C234 0.930 . S
H227 C235 0.930 . S
H228 C238 0.930 . S
H229 C239 0.930 . S
C230 H224 0.930 . S
C230 C231 1.355 . S
C230 C232 1.415 . S
C231 C230 1.355 . S
C231 C233 1.419 1_455 S
C232 C230 1.415 . S
C232 C237 1.425 1_455 S
C232 C239 1.409 . S
C233 H225 0.930 . S
C233 C231 1.419 1_655 S
C233 C234 1.362 . S
C234 H226 0.930 . S
C234 C233 1.362 . S
C234 C237 1.409 . S
C235 H227 0.930 . S
C235 C236 1.355 . S
C235 C237 1.415 . S
C236 C235 1.355 . S
C236 C238 1.419 1_655 S
C237 C232 1.425 1_655 S
C237 C234 1.409 . S
C237 C235 1.415 . S
C238 H228 0.930 . S
C238 C236 1.419 1_455 S
C238 C239 1.362 . S
C239 H229 0.930 . S
C239 C232 1.409 . S
C239 C238 1.362 . S
H240 C246 0.930 . S
H241 C249 0.930 . S
H242 C250 0.930 . S
H243 C251 0.930 . S
H244 C254 0.930 . S
H245 C255 0.930 . S
C246 H240 0.930 . S
C246 C247 1.355 . S
C246 C248 1.415 . S
C247 C246 1.355 . S
C247 C249 1.419 . S
C248 C246 1.415 . S
C248 C253 1.425 . S
C248 C255 1.409 . S
C249 H241 0.930 . S
C249 C247 1.419 . S
C249 C250 1.362 . S
C250 H242 0.930 . S
C250 C249 1.362 . S
C250 C253 1.409 . S
C251 H243 0.930 . S
C251 C252 1.355 . S
C251 C253 1.415 . S
C252 C251 1.355 . S
C252 C254 1.419 . S
C253 C248 1.425 . S
C253 C250 1.409 . S
C253 C251 1.415 . S
C254 H244 0.930 . S
C254 C252 1.419 . S
C254 C255 1.362 . S
C255 H245 0.930 . S
C255 C248 1.409 . S
C255 C254 1.362 . S
H256 C262 0.930 . S
H257 C265 0.930 . S
H258 C266 0.930 . S
H259 C267 0.930 . S
H260 C270 0.930 . S
H261 C271 0.930 . S
C262 H256 0.930 . S
C262 C263 1.355 . S
C262 C264 1.415 . S
C263 C262 1.355 . S
C263 C265 1.419 . S
C264 C262 1.415 . S
C264 C269 1.425 . S
C264 C271 1.409 . S
C265 H257 0.930 . S
C265 C263 1.419 . S
C265 C266 1.362 . S
C266 H258 0.930 . S
C266 C265 1.362 . S
C266 C269 1.409 . S
C267 H259 0.930 . S
C267 C268 1.355 . S
C267 C269 1.415 . S
C268 C267 1.355 . S
C268 C270 1.419 . S
C269 C264 1.425 . S
C269 C266 1.409 . S
C269 C267 1.415 . S
C270 H260 0.930 . S
C270 C268 1.419 . S
C270 C271 1.362 . S
C271 H261 0.930 . S
C271 C264 1.409 . S
C271 C270 1.362 . S
H272 C278 0.930 . S
H273 C281 0.930 . S
H274 C282 0.930 . S
H275 C283 0.930 . S
H276 C286 0.930 . S
H277 C287 0.930 . S
C278 H272 0.930 . S
C278 C279 1.355 . S
C278 C280 1.415 . S
C279 C278 1.355 . S
C279 C281 1.419 . S
C280 C278 1.415 . S
C280 C285 1.425 . S
C280 C287 1.409 . S
C281 H273 0.930 . S
C281 C279 1.419 . S
C281 C282 1.362 . S
C282 H274 0.930 . S
C282 C281 1.362 . S
C282 C285 1.409 . S
C283 H275 0.930 . S
C283 C284 1.355 . S
C283 C285 1.415 . S
C284 C283 1.355 . S
C284 C286 1.419 . S
C285 C280 1.425 . S
C285 C282 1.409 . S
C285 C283 1.415 . S
C286 H276 0.930 . S
C286 C284 1.419 . S
C286 C287 1.362 . S
C287 H277 0.930 . S
C287 C280 1.409 . S
C287 C286 1.362 . S
H288 C294 0.930 . S
H289 C297 0.930 . S
H290 C298 0.930 . S
H291 C299 0.930 . S
H292 C302 0.930 . S
H293 C303 0.930 . S
C294 H288 0.930 . S
C294 C295 1.355 . S
C294 C296 1.415 . S
C295 C294 1.355 . S
C295 C297 1.419 . S
C296 C294 1.415 . S
C296 C301 1.425 . S
C296 C303 1.409 . S
C297 H289 0.930 . S
C297 C295 1.419 . S
C297 C298 1.362 . S
C298 H290 0.930 . S
C298 C297 1.362 . S
C298 C301 1.409 . S
C299 H291 0.930 . S
C299 C300 1.355 . S
C299 C301 1.415 . S
C300 C299 1.355 . S
C300 C302 1.419 . S
C301 C296 1.425 . S
C301 C298 1.409 . S
C301 C299 1.415 . S
C302 H292 0.930 . S
C302 C300 1.419 . S
C302 C303 1.362 . S
C303 H293 0.930 . S
C303 C296 1.409 . S
C303 C302 1.362 . S
H304 C310 0.930 . S
H305 C313 0.930 . S
H306 C314 0.930 . S
H307 C315 0.930 . S
H308 C318 0.930 . S
H309 C319 0.930 . S
C310 H304 0.930 . S
C310 C311 1.355 1_556 S
C310 C312 1.415 . S
C311 C310 1.355 1_554 S
C311 C313 1.419 . S
C312 C310 1.415 . S
C312 C317 1.425 1_556 S
C312 C319 1.409 . S
C313 H305 0.930 . S
C313 C311 1.419 . S
C313 C314 1.362 . S
C314 H306 0.930 . S
C314 C313 1.362 . S
C314 C317 1.409 . S
C315 H307 0.930 . S
C315 C316 1.355 . S
C315 C317 1.415 . S
C316 C315 1.355 . S
C316 C318 1.419 1_554 S
C317 C312 1.425 1_554 S
C317 C314 1.409 . S
C317 C315 1.415 . S
C318 H308 0.930 . S
C318 C316 1.419 1_556 S
C318 C319 1.362 . S
C319 H309 0.930 . S
C319 C312 1.409 . S
C319 C318 1.362 . S
H320 C326 0.930 . S
H321 C329 0.930 . S
H322 C330 0.930 . S
H323 C331 0.930 . S
H324 C334 0.930 . S
H325 C335 0.930 . S
C326 H320 0.930 . S
C326 C327 1.355 1_556 S
C326 C328 1.413 1_556 S
C327 C326 1.355 1_554 S
C327 C329 1.419 . S
C328 C326 1.413 1_554 S
C328 C333 1.430 . S
C328 C335 1.406 1_554 S
C329 H321 0.930 . S
C329 C327 1.419 . S
C329 C330 1.362 . S
C330 H322 0.930 . S
C330 C329 1.362 . S
C330 C333 1.409 . S
C331 H323 0.930 . S
C331 C332 1.355 . S
C331 C333 1.415 . S
C332 C331 1.355 . S
C332 C334 1.419 1_554 S
C333 C328 1.430 . S
C333 C330 1.409 . S
C333 C331 1.415 . S
C334 H324 0.930 . S
C334 C332 1.419 1_556 S
C334 C335 1.362 . S
C335 H325 0.930 . S
C335 C328 1.406 1_556 S
C335 C334 1.362 . S
H336 C342 0.930 . S
H337 C345 0.930 . S
H338 C346 0.930 . S
H339 C347 0.930 . S
H340 C350 0.930 . S
H341 C351 0.930 . S
C342 H336 0.930 . S
C342 C343 1.355 . S
C342 C344 1.415 . S
C343 C342 1.355 . S
C343 C345 1.419 . S
C344 C342 1.415 . S
C344 C349 1.425 . S
C344 C351 1.409 . S
C345 H337 0.930 . S
C345 C343 1.419 . S
C345 C346 1.362 . S
C346 H338 0.930 . S
C346 C345 1.362 . S
C346 C349 1.409 . S
C347 H339 0.930 . S
C347 C348 1.355 . S
C347 C349 1.415 . S
C348 C347 1.355 . S
C348 C350 1.419 . S
C349 C344 1.425 . S
C349 C346 1.409 . S
C349 C347 1.415 . S
C350 H340 0.930 . S
C350 C348 1.419 . S
C350 C351 1.362 . S
C351 H341 0.930 . S
C351 C344 1.409 . S
C351 C350 1.362 . S
H352 C358 0.930 . S
H353 C361 0.930 . S
H354 C362 0.930 . S
H355 C363 0.930 . S
H356 C366 0.930 . S
H357 C367 0.930 . S
C358 H352 0.930 . S
C358 C359 1.355 . S
C358 C360 1.415 . S
C359 C358 1.355 . S
C359 C361 1.419 . S
C360 C358 1.415 . S
C360 C365 1.425 . S
C360 C367 1.409 . S
C361 H353 0.930 . S
C361 C359 1.419 . S
C361 C362 1.362 . S
C362 H354 0.930 . S
C362 C361 1.362 . S
C362 C365 1.409 . S
C363 H355 0.930 . S
C363 C364 1.355 . S
C363 C365 1.415 . S
C364 C363 1.355 . S
C364 C366 1.419 . S
C365 C360 1.425 . S
C365 C362 1.409 . S
C365 C363 1.415 . S
C366 H356 0.930 . S
C366 C364 1.419 . S
C366 C367 1.362 . S
C367 H357 0.930 . S
C367 C360 1.409 . S
C367 C366 1.362 . S
C119 C22 1.478 . S
C124 C8 1.484 . S
C135 C36 1.484 . S
C140 C50 1.477 . S
C151 C64 1.488 1_556 S
C156 C78 1.458 . S
C167 C92 1.445 . S
C172 C106 1.413 . S
C183 C13 1.297 . S
C188 C55 1.322 . S
C199 C41 1.311 . S
C204 C27 1.258 . S
C215 C35 1.252 . S
C220 C21 1.292 . S
C231 C7 1.292 . S
C236 C49 1.251 . S
C247 C69 1.236 . S
C252 C111 1.290 . S
C263 C97 1.318 . S
C268 C83 1.309 . S
C279 C77 1.252 . S
C284 C91 1.287 . S
C295 C63 1.248 . S
C300 C105 1.292 . S
C311 C81 1.535 . S
C316 C11 1.533 . S
C327 C67 1.534 . S
C332 C25 1.534 . S
C343 C39 1.548 . S
C348 C109 1.545 . S
C359 C95 1.527 . S
C364 C53 1.548 . S
