# Generated by pormake.
# Topology msp, (4)-cn, num edge types: 1
# Building blocks:
#     Node 0, Type 0, BuildingBlock: QUQFOY_clean_sbu_1, # of connection points: 4
#     Node 1, Type 0, BuildingBlock: QUQFOY_clean_sbu_1, # of connection points: 4
#     Node 2, Type 0, BuildingBlock: QUQFOY_clean_sbu_1, # of connection points: 4
#     Node 3, Type 0, BuildingBlock: QUQFOY_clean_sbu_1, # of connection points: 4
#     Node 4, Type 0, BuildingBlock: QUQFOY_clean_sbu_1, # of connection points: 4
#     Node 5, Type 0, BuildingBlock: QUQFOY_clean_sbu_1, # of connection points: 4
#     Node 6, Type 0, BuildingBlock: QUQFOY_clean_sbu_1, # of connection points: 4
#     Node 7, Type 0, BuildingBlock: QUQFOY_clean_sbu_1, # of connection points: 4
#     Edge 8, Type (0, 0), BuildingBlock: XIVTED_clean_linker_0, # of connection points: 2
#     Edge 9, Type (0, 0), BuildingBlock: XIVTED_clean_linker_0, # of connection points: 2
#     Edge 10, Type (0, 0), BuildingBlock: XIVTED_clean_linker_0, # of connection points: 2
#     Edge 11, Type (0, 0), BuildingBlock: XIVTED_clean_linker_0, # of connection points: 2
#     Edge 12, Type (0, 0), BuildingBlock: XIVTED_clean_linker_0, # of connection points: 2
#     Edge 13, Type (0, 0), BuildingBlock: XIVTED_clean_linker_0, # of connection points: 2
#     Edge 14, Type (0, 0), BuildingBlock: XIVTED_clean_linker_0, # of connection points: 2
#     Edge 15, Type (0, 0), BuildingBlock: XIVTED_clean_linker_0, # of connection points: 2
#     Edge 16, Type (0, 0), BuildingBlock: XIVTED_clean_linker_0, # of connection points: 2
#     Edge 17, Type (0, 0), BuildingBlock: XIVTED_clean_linker_0, # of connection points: 2
#     Edge 18, Type (0, 0), BuildingBlock: XIVTED_clean_linker_0, # of connection points: 2
#     Edge 19, Type (0, 0), BuildingBlock: XIVTED_clean_linker_0, # of connection points: 2
#     Edge 20, Type (0, 0), BuildingBlock: XIVTED_clean_linker_0, # of connection points: 2
#     Edge 21, Type (0, 0), BuildingBlock: XIVTED_clean_linker_0, # of connection points: 2
#     Edge 22, Type (0, 0), BuildingBlock: XIVTED_clean_linker_0, # of connection points: 2
#     Edge 23, Type (0, 0), BuildingBlock: XIVTED_clean_linker_0, # of connection points: 2
# Relax obj value: 0.065
# Max RMSD: 0.123
# Mean RMSD: 0.123
data_MOF--net-msp--node1-QUQFOY_clean_sbu_1--edge1-XIVTED_clean_linker_0
_symmetry_space_group_name_H-M    P1
_symmetry_Int_Tables_number       1
_symmetry_cell_setting            triclinic
loop_
_symmetry_equiv_pos_as_xyz
'x, y, z'
_cell_length_a     24.478103
_cell_length_b     36.672117
_cell_length_c     34.565469
_cell_angle_alpha  89.997212
_cell_angle_beta   95.101188
_cell_angle_gamma 90.029889
loop_
_atom_site_label
_atom_site_type_symbol
_atom_site_fract_x
_atom_site_fract_y
_atom_site_fract_z
_atom_type_partial_charge
O0 O 0.05224 0.31577 0.32448 0.0
Cd1 Cd -0.00317 0.30988 0.36459 0.0
Cd2 Cd 0.05656 0.36778 0.398 0.0
O3 O 0.09979 0.36285 0.34891 0.0
O4 O 0.94315 0.27594 0.33687 0.0
O5 O 0.92133 0.33173 0.35389 0.0
C6 C 0.90744 0.30172 0.33605 0.0
C7 C 0.03473 0.42495 0.42407 0.0
C8 C 0.09175 0.33799 0.32326 0.0
C9 C 0.06384 0.29402 0.43838 0.0
O10 O 0.07709 0.32754 0.43822 0.0
O11 O 0.02949 0.281 0.41226 0.0
O12 O 0.08454 0.41342 0.42516 0.0
O13 O -0.00301 0.40461 0.40676 0.0
O14 O 0.42329 0.31755 0.66433 0.0
Cd15 Cd 0.47772 0.31099 0.62366 0.0
Cd16 Cd 0.41825 0.36875 0.59027 0.0
O17 O 0.37548 0.36437 0.63962 0.0
O18 O 0.53105 0.27671 0.65116 0.0
O19 O 0.55385 0.33214 0.63356 0.0
C20 C 0.56734 0.30212 0.65148 0.0
C21 C 0.44174 0.42553 0.56403 0.0
C22 C 0.38384 0.33978 0.66554 0.0
C23 C 0.40892 0.29479 0.55063 0.0
O24 O 0.39638 0.32844 0.55042 0.0
O25 O 0.44359 0.28186 0.57659 0.0
O26 O 0.39158 0.41465 0.56301 0.0
O27 O 0.47888 0.40474 0.58135 0.0
O28 O 0.92555 0.76357 0.6659 0.0
Cd29 Cd 0.97978 0.76924 0.62496 0.0
Cd30 Cd 0.92045 0.71056 0.59321 0.0
O31 O 0.87845 0.71577 0.64285 0.0
O32 O 0.03373 0.80367 0.65157 0.0
O33 O 0.05558 0.74774 0.63502 0.0
C34 C 0.06961 0.77798 0.65234 0.0
C35 C 0.94256 0.6533 0.56747 0.0
C36 C 0.8866 0.74106 0.668 0.0
C37 C 0.91067 0.78375 0.55178 0.0
O38 O 0.89806 0.75015 0.55267 0.0
O39 O 0.94556 0.79733 0.57719 0.0
O40 O 0.89262 0.66446 0.56695 0.0
O41 O 0.98033 0.67406 0.5841 0.0
O42 O 0.55095 0.76419 0.32183 0.0
Cd43 Cd 0.49653 0.77005 0.36261 0.0
Cd44 Cd 0.55521 0.71114 0.39446 0.0
O45 O 0.59748 0.71619 0.34491 0.0
O46 O 0.44312 0.80481 0.33601 0.0
O47 O 0.42054 0.74889 0.35214 0.0
C48 C 0.40695 0.77926 0.33498 0.0
C49 C 0.53156 0.65405 0.41988 0.0
C50 C 0.58966 0.74151 0.31977 0.0
C51 C 0.56521 0.78421 0.4361 0.0
O52 O 0.5777 0.7506 0.43517 0.0
O53 O 0.5307 0.79793 0.41054 0.0
O54 O 0.58178 0.66476 0.42075 0.0
O55 O 0.49443 0.67516 0.40308 0.0
O56 O 0.55518 0.81865 0.82275 0.0
Cd57 Cd 0.49972 0.81214 0.86272 0.0
Cd58 Cd 0.55962 0.8695 0.89713 0.0
O59 O 0.60339 0.86499 0.84826 0.0
O60 O 0.44664 0.77811 0.8345 0.0
O61 O 0.42386 0.83353 0.85209 0.0
C62 C 0.41049 0.80361 0.83392 0.0
C63 C 0.53715 0.9264 0.92352 0.0
C64 C 0.59509 0.84062 0.8221 0.0
C65 C 0.56658 0.79532 0.93644 0.0
O66 O 0.57974 0.82887 0.93696 0.0
O67 O 0.53244 0.78268 0.90995 0.0
O68 O 0.58704 0.91499 0.92486 0.0
O69 O 0.49971 0.90609 0.90579 0.0
O70 O 0.92144 0.81656 0.16375 0.0
Cd71 Cd 0.97707 0.81016 0.12388 0.0
Cd72 Cd 0.91795 0.86805 0.08996 0.0
O73 O 0.87416 0.86353 0.13884 0.0
O74 O 0.02971 0.77574 0.15187 0.0
O75 O 0.05303 0.83129 0.13504 0.0
C76 C 0.06605 0.80117 0.15289 0.0
C77 C 0.94166 0.92487 0.06398 0.0
C78 C 0.88198 0.83883 0.16469 0.0
C79 C 0.91024 0.79417 0.04997 0.0
O80 O 0.8973 0.82774 0.04985 0.0
O81 O 0.94433 0.7812 0.07628 0.0
O82 O 0.89153 0.91386 0.06245 0.0
O83 O 0.97861 0.9042 0.0817 0.0
O84 O 0.42285 0.26327 0.16638 0.0
Cd85 Cd 0.47751 0.26922 0.12578 0.0
Cd86 Cd 0.41863 0.21068 0.09344 0.0
O87 O 0.37615 0.21546 0.14291 0.0
O88 O 0.53141 0.30339 0.15286 0.0
O89 O 0.55314 0.24752 0.13601 0.0
C90 C 0.56717 0.27763 0.15359 0.0
C91 C 0.44151 0.15365 0.06753 0.0
C92 C 0.38399 0.24064 0.16822 0.0
C93 C 0.40919 0.28408 0.05237 0.0
O94 O 0.39653 0.25047 0.05305 0.0
O95 O 0.44381 0.29756 0.07803 0.0
O96 O 0.39145 0.16462 0.06677 0.0
O97 O 0.47895 0.17446 0.08448 0.0
O98 O 0.05286 0.26191 0.82067 0.0
Cd99 Cd -0.00214 0.26787 0.86104 0.0
Cd100 Cd 0.05705 0.2098 0.89394 0.0
O101 O 0.10035 0.21475 0.84487 0.0
O102 O 0.94438 0.30209 0.83362 0.0
O103 O 0.92209 0.24634 0.85054 0.0
C104 C 0.9084 0.27644 0.83284 0.0
C105 C 0.03326 0.15283 0.91953 0.0
C106 C 0.09228 0.23968 0.8193 0.0
C107 C 0.06554 0.28328 0.93469 0.0
O108 O 0.07831 0.24969 0.93439 0.0
O109 O 0.03119 0.29652 0.90871 0.0
O110 O 0.08345 0.1637 0.92088 0.0
O111 O -0.00371 0.17371 0.90216 0.0
H112 H 0.10625 0.47326 0.46192 0.0
H113 H 0.8711 0.60458 0.53028 0.0
H114 H 0.93344 0.45533 0.43191 0.0
H115 H 0.04397 0.62326 0.55918 0.0
H116 H 0.8931 0.54964 0.49486 0.0
H117 H 0.08429 0.52818 0.4974 0.0
C118 C 0.06362 0.48094 0.46259 0.0
C119 C 0.02163 0.45953 0.44379 0.0
C120 C 0.92628 0.56566 0.509 0.0
C121 C -0.00388 0.52258 0.48482 0.0
C122 C 0.91375 0.59706 0.52938 0.0
C123 C 0.95575 0.61869 0.54785 0.0
C124 C 0.98131 0.55561 0.50689 0.0
C125 C 0.01022 0.60746 0.54551 0.0
C126 C 0.05112 0.51234 0.483 0.0
C127 C 0.96719 0.47096 0.44584 0.0
N128 N 0.02139 0.5768 0.52537 0.0
N129 N 0.95604 0.50159 0.46602 0.0
H130 H 0.42937 0.62462 0.42669 0.0
H131 H 0.54385 0.45505 0.55726 0.0
H132 H 0.60139 0.60497 0.45811 0.0
H133 H 0.37187 0.4742 0.52516 0.0
H134 H 0.56574 0.5101 0.52153 0.0
H135 H 0.40745 0.56945 0.46221 0.0
C136 C 0.46257 0.60863 0.44084 0.0
C137 C 0.51733 0.61954 0.43932 0.0
C138 C 0.52318 0.50231 0.52238 0.0
C139 C 0.4925 0.55634 0.4804 0.0
C140 C 0.51066 0.4709 0.5429 0.0
C141 C 0.45592 0.4599 0.54431 0.0
C142 C 0.48071 0.52298 0.50301 0.0
C143 C 0.41467 0.48155 0.52496 0.0
C144 C 0.45002 0.57715 0.46125 0.0
C145 C 0.55857 0.5977 0.45841 0.0
N146 N 0.4279 0.51192 0.50513 0.0
N147 N 0.54533 0.56729 0.47815 0.0
H148 H 0.37083 0.10489 0.02962 0.0
H149 H 0.60793 0.97464 0.96222 0.0
H150 H 0.54332 0.12399 0.05974 0.0
H151 H 0.43551 0.95646 0.93082 0.0
H152 H 0.58513 1.0293 -0.00215 0.0
H153 H 0.3937 0.05021 0.99408 0.0
C154 C 0.41358 0.09752 0.02896 0.0
C155 C 0.45521 0.11919 0.04781 0.0
C156 C 0.55223 1.01346 0.98311 0.0
C157 C 0.48177 0.05641 0.00671 0.0
C158 C 0.56521 0.98221 0.96262 0.0
C159 C 0.52357 0.96081 0.94338 0.0
C160 C 0.4971 1.02355 0.98458 0.0
C161 C 0.469 0.97208 0.94509 0.0
C162 C 0.4266 0.06626 0.00851 0.0
C163 C 0.50983 0.10816 0.04577 0.0
N164 N 0.45738 1.00257 0.96537 0.0
N165 N 0.5215 0.07764 0.02556 0.0
H166 H 0.04386 0.95466 0.05825 0.0
H167 H 0.93102 0.12313 0.92536 0.0
H168 H 0.87225 0.97321 0.02417 0.0
H169 H 0.10268 0.10425 0.95895 0.0
H170 H 0.90866 0.06813 0.96101 0.0
H171 H 0.06621 1.0096 0.0225 0.0
C172 C 0.01084 0.97036 0.04346 0.0
C173 C 0.95607 0.95922 0.04431 0.0
C174 C 0.95124 0.07596 0.9605 0.0
C175 C 0.9814 1.02216 0.00298 0.0
C176 C 0.96405 0.10734 0.94002 0.0
C177 C 0.01883 0.11842 0.93907 0.0
C178 C -0.00651 0.05542 0.9803 0.0
C179 C 0.05985 0.09684 0.9588 0.0
C180 C 0.02364 1.00171 0.02292 0.0
C181 C 0.91507 0.98068 0.02441 0.0
N182 N 0.04636 0.06652 0.97859 0.0
N183 N 0.92855 1.01098 0.00458 0.0
H184 H 0.64775 0.22622 0.16879 0.0
H185 H 0.82706 0.35325 0.32062 0.0
H186 H 0.60677 0.33783 0.19335 0.0
H187 H 0.86809 0.24167 0.29595 0.0
H188 H 0.7453 0.3479 0.27477 0.0
H189 H 0.7297 0.23166 0.21444 0.0
C190 C 0.65631 0.25199 0.1834 0.0
C191 C 0.6203 0.28158 0.17723 0.0
C192 C 0.77207 0.32453 0.27955 0.0
C193 C 0.71353 0.28787 0.22997 0.0
C194 C 0.81856 0.32751 0.30593 0.0
C195 C 0.85451 0.29789 0.31214 0.0
C196 C 0.76149 0.2917 0.25919 0.0
C197 C 0.84158 0.26525 0.29208 0.0
C198 C 0.70291 0.25503 0.20967 0.0
C199 C 0.63332 0.31427 0.19719 0.0
N200 N 0.79631 0.26309 0.26643 0.0
N201 N 0.67868 0.31647 0.22275 0.0
H202 H 0.64901 0.35296 0.66602 0.0
H203 H 0.82721 0.22535 0.81778 0.0
H204 H 0.60598 0.24191 0.69159 0.0
H205 H 0.86966 0.33662 0.79274 0.0
H206 H 0.74523 0.23108 0.77221 0.0
H207 H 0.73118 0.34713 0.7114 0.0
C208 C 0.65716 0.32723 0.6808 0.0
C209 C 0.62052 0.29791 0.675 0.0
C210 C 0.77236 0.2543 0.77685 0.0
C211 C 0.71401 0.29119 0.72741 0.0
C212 C 0.81898 0.2511 0.80307 0.0
C213 C 0.85538 0.28053 0.8091 0.0
C214 C 0.76211 0.28714 0.75646 0.0
C215 C 0.84279 0.31319 0.78902 0.0
C216 C 0.70389 0.32398 0.70692 0.0
C217 C 0.63302 0.26527 0.69515 0.0
N218 N 0.79739 0.31556 0.76352 0.0
N219 N 0.67853 0.26285 0.72054 0.0
H220 H 0.15073 0.72689 0.66734 0.0
H221 H 0.32932 0.85465 0.81884 0.0
H222 H 0.10901 0.8384 0.69176 0.0
H223 H 0.37204 0.74353 0.79346 0.0
H224 H 0.24748 0.84894 0.77312 0.0
H225 H 0.23294 0.73273 0.71268 0.0
C226 C 0.15917 0.75272 0.68185 0.0
C227 C 0.12288 0.78217 0.67575 0.0
C228 C 0.27464 0.82575 0.7777 0.0
C229 C 0.21641 0.78891 0.72813 0.0
C230 C 0.32119 0.82894 0.80401 0.0
C231 C 0.35761 0.79955 0.81001 0.0
C232 C 0.26449 0.79296 0.75721 0.0
C233 C 0.34514 0.76693 0.78977 0.0
C234 C 0.20593 0.75598 0.70795 0.0
C235 C 0.13577 0.81494 0.69556 0.0
N236 N 0.2998 0.76457 0.76422 0.0
N237 N 0.18128 0.81736 0.72096 0.0
H238 H 0.36733 0.84056 0.29736 0.0
H239 H 0.1047 0.7402 0.19157 0.0
H240 H 0.32653 0.72806 0.31775 0.0
H241 H 0.14645 0.85236 0.17029 0.0
H242 H 0.18604 0.73514 0.23741 0.0
H243 H 0.28555 0.84575 0.25196 0.0
C244 C 0.34085 0.81701 0.29262 0.0
C245 C 0.35389 0.78377 0.3114 0.0
C246 C 0.17763 0.76082 0.22261 0.0
C247 C 0.26037 0.78946 0.25889 0.0
C248 C 0.13128 0.7637 0.19623 0.0
C249 C 0.11868 0.79679 0.17702 0.0
C250 C 0.21171 0.79127 0.23002 0.0
C251 C 0.15463 0.8263 0.18433 0.0
C252 C 0.29426 0.81997 0.26648 0.0
C253 C 0.31803 0.75423 0.30402 0.0
N254 N 0.19938 0.82288 0.21038 0.0
N255 N 0.27305 0.75772 0.27819 0.0
H256 H 0.27715 0.21704 0.16566 0.0
H257 H 0.19896 0.361 0.32659 0.0
H258 H 0.39553 0.28486 0.23189 0.0
H259 H 0.0805 0.29396 0.25943 0.0
H260 H 0.27145 0.33469 0.2909 0.0
H261 H 0.20481 0.24318 0.20161 0.0
C262 C 0.28816 0.23674 0.18837 0.0
C263 C 0.34247 0.24886 0.19561 0.0
C264 C 0.22948 0.326 0.28374 0.0
C265 C 0.25975 0.2797 0.23607 0.0
C266 C 0.18797 0.34143 0.30375 0.0
C267 C 0.13357 0.32959 0.29615 0.0
C268 C 0.21645 0.29856 0.25599 0.0
C269 C 0.12192 0.30377 0.26647 0.0
C270 C 0.24673 0.25207 0.20852 0.0
C271 C 0.35416 0.27483 0.22513 0.0
N272 N 0.16301 0.28892 0.24776 0.0
N273 N 0.31315 0.28959 0.24399 0.0
H274 H 0.27617 0.36172 0.66162 0.0
H275 H 0.20003 0.21787 0.82331 0.0
H276 H 0.39588 0.29687 0.73021 0.0
H277 H 0.0804 0.28298 0.75495 0.0
H278 H 0.27225 0.24498 0.78793 0.0
H279 H 0.20401 0.33477 0.69716 0.0
C280 C 0.28748 0.34254 0.68478 0.0
C281 C 0.34216 0.33145 0.69279 0.0
C282 C 0.2301 0.25306 0.78042 0.0
C283 C 0.25967 0.29965 0.73277 0.0
C284 C 0.18875 0.23715 0.80024 0.0
C285 C 0.13408 0.24825 0.79223 0.0
C286 C 0.21662 0.28022 0.75244 0.0
C287 C 0.12204 0.27374 0.76229 0.0
C288 C 0.24617 0.32673 0.7047 0.0
C289 C 0.35424 0.30609 0.72286 0.0
N290 N 0.16297 0.28908 0.74377 0.0
N291 N 0.31334 0.29083 0.74146 0.0
H292 H 0.70302 0.86229 0.82675 0.0
H293 H 0.77942 0.71825 0.66539 0.0
H294 H 0.58352 0.79791 0.75729 0.0
H295 H 0.89883 0.78529 0.73166 0.0
H296 H 0.70743 0.74511 0.70111 0.0
H297 H 0.7754 0.83545 0.79134 0.0
C298 C 0.69181 0.84323 0.80345 0.0
C299 C 0.63711 0.83225 0.79513 0.0
C300 C 0.74949 0.75368 0.70809 0.0
C301 C 0.71983 0.80057 0.75531 0.0
C302 C 0.79072 0.73792 0.68809 0.0
C303 C 0.84523 0.74962 0.69539 0.0
C304 C 0.76291 0.78129 0.73558 0.0
C305 C 0.8573 0.77558 0.72487 0.0
C306 C 0.73324 0.82749 0.7836 0.0
C307 C 0.62517 0.80705 0.76489 0.0
N308 N 0.81647 0.79075 0.74361 0.0
N309 N 0.66617 0.79184 0.74638 0.0
H310 H 0.77452 0.8614 0.16058 0.0
H311 H 0.69641 0.71789 0.32205 0.0
H312 H 0.89309 0.79563 0.22913 0.0
H313 H 0.57797 0.78589 0.25621 0.0
H314 H 0.76864 0.7441 0.28604 0.0
H315 H 0.70191 0.83511 0.19623 0.0
C316 C 0.78549 0.84213 0.18373 0.0
C317 C 0.83998 0.83062 0.19173 0.0
C318 C 0.72673 0.75303 0.27922 0.0
C319 C 0.75698 0.7996 0.23183 0.0
C320 C 0.68535 0.73765 0.29941 0.0
C321 C 0.63106 0.7498 0.2923 0.0
C322 C 0.71369 0.78072 0.25176 0.0
C323 C 0.61932 0.77584 0.26286 0.0
C324 C 0.74392 0.82672 0.20371 0.0
C325 C 0.85161 0.80518 0.22177 0.0
N326 N 0.6603 0.79063 0.24395 0.0
N327 N 0.81048 0.79032 0.24044 0.0
H328 H 0.35653 0.23744 0.57961 0.0
H329 H 0.09771 0.29652 0.51577 0.0
H330 H 0.36814 0.29921 0.47456 0.0
H331 H 0.12159 0.23941 0.40967 0.0
H332 H 0.18769 0.27492 0.54329 0.0
H333 H 0.26447 0.21728 0.55474 0.0
C334 C 0.34117 0.24493 0.55031 0.0
C335 C 0.3697 0.27019 0.52907 0.0
C336 C 0.17198 0.26568 0.51466 0.0
C337 C 0.26535 0.2471 0.50077 0.0
C338 C 0.12062 0.27783 0.4991 0.0
C339 C 0.10224 0.26945 0.46061 0.0
C340 C 0.20572 0.24651 0.49089 0.0
C341 C 0.1342 0.24604 0.43968 0.0
C342 C 0.28849 0.23371 0.53646 0.0
C343 C 0.34736 0.27977 0.49174 0.0
N344 N 0.18563 0.23672 0.45443 0.0
N345 N 0.29596 0.26863 0.47895 0.0
H346 H 0.85744 0.84149 0.57909 0.0
H347 H 0.59909 0.78042 0.51341 0.0
H348 H 0.87075 0.77759 0.47571 0.0
H349 H 0.62437 0.83855 0.40815 0.0
H350 H 0.68912 0.80151 0.54154 0.0
H351 H 0.76548 0.86092 0.55319 0.0
C352 C 0.84247 0.83336 0.54991 0.0
C353 C 0.87147 0.80778 0.52945 0.0
C354 C 0.67372 0.81104 0.51296 0.0
C355 C 0.76727 0.83004 0.49997 0.0
C356 C 0.62236 0.79918 0.49706 0.0
C357 C 0.60429 0.80811 0.45866 0.0
C358 C 0.70776 0.83047 0.48962 0.0
C359 C 0.63671 0.83157 0.43811 0.0
C360 C 0.78986 0.84418 0.53547 0.0
C361 C 0.84962 0.79734 0.49227 0.0
N362 N 0.68811 0.84064 0.4532 0.0
N363 N 0.79828 0.8081 0.47889 0.0
H364 H 0.87578 0.79677 0.97267 0.0
H365 H 0.60121 0.79718 0.01374 0.0
H366 H 0.85299 0.7392 0.07871 0.0
H367 H 0.62324 0.74042 0.9071 0.0
H368 H 0.69107 0.77491 0.04072 0.0
H369 H 0.78568 0.7751 0.94543 0.0
C370 C 0.85303 0.77803 0.9894 0.0
C371 C 0.87174 0.76957 0.02781 0.0
C372 C 0.67504 0.76597 0.01204 0.0
C373 C 0.76804 0.74669 -0.00207 0.0
C374 C 0.62373 0.77849 -0.0032 0.0
C375 C 0.60489 0.77043 0.95832 0.0
C376 C 0.70833 0.74686 0.98792 0.0
C377 C 0.63627 0.74689 0.93709 0.0
C378 C 0.80158 0.76585 0.97401 0.0
C379 C 0.84007 0.74598 0.04879 0.0
N380 N 0.68768 0.7372 0.95154 0.0
N381 N 0.78855 0.73662 0.03422 0.0
H382 H 0.35382 0.34061 0.07995 0.0
H383 H 0.12053 0.33995 0.90692 0.0
H384 H 0.372 0.27906 0.97567 0.0
H385 H 0.10262 0.27871 0.01146 0.0
H386 H 0.21185 0.3596 0.93399 0.0
H387 H 0.26234 0.35987 0.05283 0.0
C388 C 0.34007 0.33306 0.05036 0.0
C389 C 0.37031 0.30818 0.0299 0.0
C390 C 0.18652 0.34351 0.95168 0.0
C391 C 0.26681 0.33047 -0.00104 0.0
C392 C 0.13428 0.33255 0.93655 0.0
C393 C 0.10419 0.30763 0.9571 0.0
C394 C 0.20753 0.33036 0.98798 0.0
C395 C 0.12455 0.29801 -0.00514 0.0
C396 C 0.28775 0.3438 0.0352 0.0
C397 C 0.34996 0.29835 0.99219 0.0
N398 N 0.17553 0.30895 0.00893 0.0
N399 N 0.29891 0.30908 0.9781 0.0
loop_
_geom_bond_atom_site_label_1
_geom_bond_atom_site_label_2
_geom_bond_distance
_geom_bond_site_symmetry_2
_ccdc_geom_bond_type
O0 Cd1 2.223 . S
O0 C8 1.315 . S
Cd1 O0 2.223 . S
Cd1 O4 2.297 1_455 S
Cd1 O5 2.439 1_455 S
Cd1 O11 2.240 . S
Cd2 O3 2.240 . S
Cd2 O10 2.223 . S
Cd2 O12 2.297 . S
Cd2 O13 2.439 1_455 S
O3 Cd2 2.240 . S
O3 C8 1.279 . S
O4 Cd1 2.297 1_655 S
O4 C6 1.247 . S
O5 Cd1 2.439 1_655 S
O5 C6 1.208 . S
C6 O4 1.247 . S
C6 O5 1.208 . S
C7 O12 1.247 . S
C7 O13 1.208 1_455 S
C8 O0 1.315 . S
C8 O3 1.279 . S
C9 O10 1.315 . S
C9 O11 1.279 . S
O10 Cd2 2.223 . S
O10 C9 1.315 . S
O11 Cd1 2.240 . S
O11 C9 1.279 . S
O12 Cd2 2.297 . S
O12 C7 1.247 . S
O13 Cd2 2.439 1_655 S
O13 C7 1.208 1_655 S
O14 Cd15 2.223 . S
O14 C22 1.315 . S
Cd15 O14 2.223 . S
Cd15 O18 2.297 . S
Cd15 O19 2.439 . S
Cd15 O25 2.240 . S
Cd16 O17 2.240 . S
Cd16 O24 2.223 . S
Cd16 O26 2.297 . S
Cd16 O27 2.439 . S
O17 Cd16 2.240 . S
O17 C22 1.279 . S
O18 Cd15 2.297 . S
O18 C20 1.247 . S
O19 Cd15 2.439 . S
O19 C20 1.208 . S
C20 O18 1.247 . S
C20 O19 1.208 . S
C21 O26 1.247 . S
C21 O27 1.208 . S
C22 O14 1.315 . S
C22 O17 1.279 . S
C23 O24 1.315 . S
C23 O25 1.279 . S
O24 Cd16 2.223 . S
O24 C23 1.315 . S
O25 Cd15 2.240 . S
O25 C23 1.279 . S
O26 Cd16 2.297 . S
O26 C21 1.247 . S
O27 Cd16 2.439 . S
O27 C21 1.208 . S
O28 Cd29 2.223 . S
O28 C36 1.315 . S
Cd29 O28 2.223 . S
Cd29 O32 2.297 1_655 S
Cd29 O33 2.439 1_655 S
Cd29 O39 2.240 . S
Cd30 O31 2.240 . S
Cd30 O38 2.223 . S
Cd30 O40 2.297 . S
Cd30 O41 2.439 1_655 S
O31 Cd30 2.240 . S
O31 C36 1.279 . S
O32 Cd29 2.297 1_455 S
O32 C34 1.247 . S
O33 Cd29 2.439 1_455 S
O33 C34 1.208 . S
C34 O32 1.247 . S
C34 O33 1.208 . S
C35 O40 1.247 . S
C35 O41 1.208 1_655 S
C36 O28 1.315 . S
C36 O31 1.279 . S
C37 O38 1.315 . S
C37 O39 1.279 . S
O38 Cd30 2.223 . S
O38 C37 1.315 . S
O39 Cd29 2.240 . S
O39 C37 1.279 . S
O40 Cd30 2.297 . S
O40 C35 1.247 . S
O41 Cd30 2.439 1_455 S
O41 C35 1.208 1_455 S
O42 Cd43 2.223 . S
O42 C50 1.315 . S
Cd43 O42 2.223 . S
Cd43 O46 2.297 . S
Cd43 O47 2.439 . S
Cd43 O53 2.240 . S
Cd44 O45 2.240 . S
Cd44 O52 2.223 . S
Cd44 O54 2.297 . S
Cd44 O55 2.439 . S
O45 Cd44 2.240 . S
O45 C50 1.279 . S
O46 Cd43 2.297 . S
O46 C48 1.247 . S
O47 Cd43 2.439 . S
O47 C48 1.208 . S
C48 O46 1.247 . S
C48 O47 1.208 . S
C49 O54 1.247 . S
C49 O55 1.208 . S
C50 O42 1.315 . S
C50 O45 1.279 . S
C51 O52 1.315 . S
C51 O53 1.279 . S
O52 Cd44 2.223 . S
O52 C51 1.315 . S
O53 Cd43 2.240 . S
O53 C51 1.279 . S
O54 Cd44 2.297 . S
O54 C49 1.247 . S
O55 Cd44 2.439 . S
O55 C49 1.208 . S
O56 Cd57 2.223 . S
O56 C64 1.315 . S
Cd57 O56 2.223 . S
Cd57 O60 2.297 . S
Cd57 O61 2.439 . S
Cd57 O67 2.240 . S
Cd58 O59 2.240 . S
Cd58 O66 2.223 . S
Cd58 O68 2.297 . S
Cd58 O69 2.439 . S
O59 Cd58 2.240 . S
O59 C64 1.279 . S
O60 Cd57 2.297 . S
O60 C62 1.247 . S
O61 Cd57 2.439 . S
O61 C62 1.208 . S
C62 O60 1.247 . S
C62 O61 1.208 . S
C63 O68 1.247 . S
C63 O69 1.208 . S
C64 O56 1.315 . S
C64 O59 1.279 . S
C65 O66 1.315 . S
C65 O67 1.279 . S
O66 Cd58 2.223 . S
O66 C65 1.315 . S
O67 Cd57 2.240 . S
O67 C65 1.279 . S
O68 Cd58 2.297 . S
O68 C63 1.247 . S
O69 Cd58 2.439 . S
O69 C63 1.208 . S
O70 Cd71 2.223 . S
O70 C78 1.315 . S
Cd71 O70 2.223 . S
Cd71 O74 2.297 1_655 S
Cd71 O75 2.439 1_655 S
Cd71 O81 2.240 . S
Cd72 O73 2.240 . S
Cd72 O80 2.223 . S
Cd72 O82 2.297 . S
Cd72 O83 2.439 1_655 S
O73 Cd72 2.240 . S
O73 C78 1.279 . S
O74 Cd71 2.297 1_455 S
O74 C76 1.247 . S
O75 Cd71 2.439 1_455 S
O75 C76 1.208 . S
C76 O74 1.247 . S
C76 O75 1.208 . S
C77 O82 1.247 . S
C77 O83 1.208 1_655 S
C78 O70 1.315 . S
C78 O73 1.279 . S
C79 O80 1.315 . S
C79 O81 1.279 . S
O80 Cd72 2.223 . S
O80 C79 1.315 . S
O81 Cd71 2.240 . S
O81 C79 1.279 . S
O82 Cd72 2.297 . S
O82 C77 1.247 . S
O83 Cd72 2.439 1_455 S
O83 C77 1.208 1_455 S
O84 Cd85 2.223 . S
O84 C92 1.315 . S
Cd85 O84 2.223 . S
Cd85 O88 2.297 . S
Cd85 O89 2.439 . S
Cd85 O95 2.240 . S
Cd86 O87 2.240 . S
Cd86 O94 2.223 . S
Cd86 O96 2.297 . S
Cd86 O97 2.439 . S
O87 Cd86 2.240 . S
O87 C92 1.279 . S
O88 Cd85 2.297 . S
O88 C90 1.247 . S
O89 Cd85 2.439 . S
O89 C90 1.208 . S
C90 O88 1.247 . S
C90 O89 1.208 . S
C91 O96 1.247 . S
C91 O97 1.208 . S
C92 O84 1.315 . S
C92 O87 1.279 . S
C93 O94 1.315 . S
C93 O95 1.279 . S
O94 Cd86 2.223 . S
O94 C93 1.315 . S
O95 Cd85 2.240 . S
O95 C93 1.279 . S
O96 Cd86 2.297 . S
O96 C91 1.247 . S
O97 Cd86 2.439 . S
O97 C91 1.208 . S
O98 Cd99 2.223 . S
O98 C106 1.315 . S
Cd99 O98 2.223 . S
Cd99 O102 2.297 1_455 S
Cd99 O103 2.439 1_455 S
Cd99 O109 2.240 . S
Cd100 O101 2.240 . S
Cd100 O108 2.223 . S
Cd100 O110 2.297 . S
Cd100 O111 2.439 1_455 S
O101 Cd100 2.240 . S
O101 C106 1.279 . S
O102 Cd99 2.297 1_655 S
O102 C104 1.247 . S
O103 Cd99 2.439 1_655 S
O103 C104 1.208 . S
C104 O102 1.247 . S
C104 O103 1.208 . S
C105 O110 1.247 . S
C105 O111 1.208 1_455 S
C106 O98 1.315 . S
C106 O101 1.279 . S
C107 O108 1.315 . S
C107 O109 1.279 . S
O108 Cd100 2.223 . S
O108 C107 1.315 . S
O109 Cd99 2.240 . S
O109 C107 1.279 . S
O110 Cd100 2.297 . S
O110 C105 1.247 . S
O111 Cd100 2.439 1_655 S
O111 C105 1.208 1_655 S
H112 C118 0.930 . S
H113 C122 0.930 . S
H114 C127 0.929 . S
H115 C125 0.929 . S
H116 C120 0.929 . S
H117 C126 0.929 . S
C118 H112 0.930 . S
C118 C119 1.367 . S
C118 C126 1.378 . S
C119 C118 1.367 . S
C119 C127 1.433 1_455 S
C120 H116 0.929 . S
C120 C122 1.378 . S
C120 C124 1.350 . S
C121 C124 1.463 1_455 S
C121 C126 1.350 . S
C121 N129 1.427 1_455 S
C122 H113 0.930 . S
C122 C120 1.378 . S
C122 C123 1.367 . S
C123 C122 1.367 . S
C123 C125 1.433 1_655 S
C124 C120 1.350 . S
C124 C121 1.463 1_655 S
C124 N128 1.427 1_655 S
C125 H115 0.929 . S
C125 C123 1.433 1_455 S
C125 N128 1.384 . S
C126 H117 0.929 . S
C126 C118 1.378 . S
C126 C121 1.350 . S
C127 H114 0.929 . S
C127 C119 1.433 1_655 S
C127 N129 1.384 . S
N128 C124 1.427 1_455 S
N128 C125 1.384 . S
N129 C121 1.427 1_655 S
N129 C127 1.384 . S
H130 C136 0.930 . S
H131 C140 0.930 . S
H132 C145 0.929 . S
H133 C143 0.929 . S
H134 C138 0.929 . S
H135 C144 0.929 . S
C136 H130 0.930 . S
C136 C137 1.367 . S
C136 C144 1.378 . S
C137 C136 1.367 . S
C137 C145 1.433 . S
C138 H134 0.929 . S
C138 C140 1.378 . S
C138 C142 1.350 . S
C139 C142 1.463 . S
C139 C144 1.350 . S
C139 N147 1.427 . S
C140 H131 0.930 . S
C140 C138 1.378 . S
C140 C141 1.367 . S
C141 C140 1.367 . S
C141 C143 1.433 . S
C142 C138 1.350 . S
C142 C139 1.463 . S
C142 N146 1.427 . S
C143 H133 0.929 . S
C143 C141 1.433 . S
C143 N146 1.384 . S
C144 H135 0.929 . S
C144 C136 1.378 . S
C144 C139 1.350 . S
C145 H132 0.929 . S
C145 C137 1.433 . S
C145 N147 1.384 . S
N146 C142 1.427 . S
N146 C143 1.384 . S
N147 C139 1.427 . S
N147 C145 1.384 . S
H148 C154 0.930 . S
H149 C158 0.930 . S
H150 C163 0.929 . S
H151 C161 0.929 . S
H152 C156 0.929 . S
H153 C162 0.929 . S
C154 H148 0.930 . S
C154 C155 1.367 . S
C154 C162 1.378 . S
C155 C154 1.367 . S
C155 C163 1.433 . S
C156 H152 0.929 . S
C156 C158 1.378 . S
C156 C160 1.350 . S
C157 C160 1.463 1_544 S
C157 C162 1.350 . S
C157 N165 1.427 . S
C158 H149 0.930 . S
C158 C156 1.378 . S
C158 C159 1.367 . S
C159 C158 1.367 . S
C159 C161 1.433 . S
C160 C156 1.350 . S
C160 C157 1.463 1_566 S
C160 N164 1.427 . S
C161 H151 0.929 . S
C161 C159 1.433 . S
C161 N164 1.384 . S
C162 H153 0.929 . S
C162 C154 1.378 . S
C162 C157 1.350 . S
C163 H150 0.929 . S
C163 C155 1.433 . S
C163 N165 1.384 . S
N164 C160 1.427 . S
N164 C161 1.384 . S
N165 C157 1.427 . S
N165 C163 1.384 . S
H166 C172 0.930 . S
H167 C176 0.930 . S
H168 C181 0.929 . S
H169 C179 0.929 . S
H170 C174 0.929 . S
H171 C180 0.929 . S
C172 H166 0.930 . S
C172 C173 1.354 1_455 S
C172 C180 1.378 . S
C173 C172 1.354 1_655 S
C173 C181 1.446 . S
C174 H170 0.929 . S
C174 C176 1.378 . S
C174 C178 1.350 . S
C175 C178 1.463 1_464 S
C175 C180 1.350 . S
C175 N183 1.427 1_455 S
C176 H167 0.930 . S
C176 C174 1.378 . S
C176 C177 1.354 1_655 S
C177 C176 1.354 1_455 S
C177 C179 1.446 . S
C178 C174 1.350 . S
C178 C175 1.463 1_646 S
C178 N182 1.427 1_655 S
C179 H169 0.929 . S
C179 C177 1.446 . S
C179 N182 1.384 . S
C180 H171 0.929 . S
C180 C172 1.378 . S
C180 C175 1.350 . S
C181 H168 0.929 . S
C181 C173 1.446 . S
C181 N183 1.384 . S
N182 C178 1.427 1_455 S
N182 C179 1.384 . S
N183 C175 1.427 1_655 S
N183 C181 1.384 . S
H184 C190 0.930 . S
H185 C194 0.930 . S
H186 C199 0.929 . S
H187 C197 0.929 . S
H188 C192 0.929 . S
H189 C198 0.929 . S
C190 H184 0.930 . S
C190 C191 1.367 . S
C190 C198 1.378 . S
C191 C190 1.367 . S
C191 C199 1.433 . S
C192 H188 0.929 . S
C192 C194 1.378 . S
C192 C196 1.350 . S
C193 C196 1.463 . S
C193 C198 1.350 . S
C193 N201 1.427 . S
C194 H185 0.930 . S
C194 C192 1.378 . S
C194 C195 1.367 . S
C195 C194 1.367 . S
C195 C197 1.433 . S
C196 C192 1.350 . S
C196 C193 1.463 . S
C196 N200 1.427 . S
C197 H187 0.929 . S
C197 C195 1.433 . S
C197 N200 1.384 . S
C198 H189 0.929 . S
C198 C190 1.378 . S
C198 C193 1.350 . S
C199 H186 0.929 . S
C199 C191 1.433 . S
C199 N201 1.384 . S
N200 C196 1.427 . S
N200 C197 1.384 . S
N201 C193 1.427 . S
N201 C199 1.384 . S
H202 C208 0.930 . S
H203 C212 0.930 . S
H204 C217 0.929 . S
H205 C215 0.929 . S
H206 C210 0.929 . S
H207 C216 0.929 . S
C208 H202 0.930 . S
C208 C209 1.367 . S
C208 C216 1.378 . S
C209 C208 1.367 . S
C209 C217 1.433 . S
C210 H206 0.929 . S
C210 C212 1.378 . S
C210 C214 1.350 . S
C211 C214 1.463 . S
C211 C216 1.350 . S
C211 N219 1.427 . S
C212 H203 0.930 . S
C212 C210 1.378 . S
C212 C213 1.367 . S
C213 C212 1.367 . S
C213 C215 1.433 . S
C214 C210 1.350 . S
C214 C211 1.463 . S
C214 N218 1.427 . S
C215 H205 0.929 . S
C215 C213 1.433 . S
C215 N218 1.384 . S
C216 H207 0.929 . S
C216 C208 1.378 . S
C216 C211 1.350 . S
C217 H204 0.929 . S
C217 C209 1.433 . S
C217 N219 1.384 . S
N218 C214 1.427 . S
N218 C215 1.384 . S
N219 C211 1.427 . S
N219 C217 1.384 . S
H220 C226 0.930 . S
H221 C230 0.930 . S
H222 C235 0.929 . S
H223 C233 0.929 . S
H224 C228 0.929 . S
H225 C234 0.929 . S
C226 H220 0.930 . S
C226 C227 1.367 . S
C226 C234 1.378 . S
C227 C226 1.367 . S
C227 C235 1.433 . S
C228 H224 0.929 . S
C228 C230 1.378 . S
C228 C232 1.350 . S
C229 C232 1.463 . S
C229 C234 1.350 . S
C229 N237 1.427 . S
C230 H221 0.930 . S
C230 C228 1.378 . S
C230 C231 1.367 . S
C231 C230 1.367 . S
C231 C233 1.433 . S
C232 C228 1.350 . S
C232 C229 1.463 . S
C232 N236 1.427 . S
C233 H223 0.929 . S
C233 C231 1.433 . S
C233 N236 1.384 . S
C234 H225 0.929 . S
C234 C226 1.378 . S
C234 C229 1.350 . S
C235 H222 0.929 . S
C235 C227 1.433 . S
C235 N237 1.384 . S
N236 C232 1.427 . S
N236 C233 1.384 . S
N237 C229 1.427 . S
N237 C235 1.384 . S
H238 C244 0.930 . S
H239 C248 0.930 . S
H240 C253 0.929 . S
H241 C251 0.929 . S
H242 C246 0.929 . S
H243 C252 0.929 . S
C244 H238 0.930 . S
C244 C245 1.367 . S
C244 C252 1.378 . S
C245 C244 1.367 . S
C245 C253 1.433 . S
C246 H242 0.929 . S
C246 C248 1.378 . S
C246 C250 1.350 . S
C247 C250 1.463 . S
C247 C252 1.350 . S
C247 N255 1.427 . S
C248 H239 0.930 . S
C248 C246 1.378 . S
C248 C249 1.367 . S
C249 C248 1.367 . S
C249 C251 1.433 . S
C250 C246 1.350 . S
C250 C247 1.463 . S
C250 N254 1.427 . S
C251 H241 0.929 . S
C251 C249 1.433 . S
C251 N254 1.384 . S
C252 H243 0.929 . S
C252 C244 1.378 . S
C252 C247 1.350 . S
C253 H240 0.929 . S
C253 C245 1.433 . S
C253 N255 1.384 . S
N254 C250 1.427 . S
N254 C251 1.384 . S
N255 C247 1.427 . S
N255 C253 1.384 . S
H256 C262 0.930 . S
H257 C266 0.930 . S
H258 C271 0.929 . S
H259 C269 0.929 . S
H260 C264 0.929 . S
H261 C270 0.929 . S
C262 H256 0.930 . S
C262 C263 1.367 . S
C262 C270 1.378 . S
C263 C262 1.367 . S
C263 C271 1.433 . S
C264 H260 0.929 . S
C264 C266 1.378 . S
C264 C268 1.350 . S
C265 C268 1.463 . S
C265 C270 1.350 . S
C265 N273 1.427 . S
C266 H257 0.930 . S
C266 C264 1.378 . S
C266 C267 1.367 . S
C267 C266 1.367 . S
C267 C269 1.433 . S
C268 C264 1.350 . S
C268 C265 1.463 . S
C268 N272 1.427 . S
C269 H259 0.929 . S
C269 C267 1.433 . S
C269 N272 1.384 . S
C270 H261 0.929 . S
C270 C262 1.378 . S
C270 C265 1.350 . S
C271 H258 0.929 . S
C271 C263 1.433 . S
C271 N273 1.384 . S
N272 C268 1.427 . S
N272 C269 1.384 . S
N273 C265 1.427 . S
N273 C271 1.384 . S
H274 C280 0.930 . S
H275 C284 0.930 . S
H276 C289 0.929 . S
H277 C287 0.929 . S
H278 C282 0.929 . S
H279 C288 0.929 . S
C280 H274 0.930 . S
C280 C281 1.367 . S
C280 C288 1.378 . S
C281 C280 1.367 . S
C281 C289 1.433 . S
C282 H278 0.929 . S
C282 C284 1.378 . S
C282 C286 1.350 . S
C283 C286 1.463 . S
C283 C288 1.350 . S
C283 N291 1.427 . S
C284 H275 0.930 . S
C284 C282 1.378 . S
C284 C285 1.367 . S
C285 C284 1.367 . S
C285 C287 1.433 . S
C286 C282 1.350 . S
C286 C283 1.463 . S
C286 N290 1.427 . S
C287 H277 0.929 . S
C287 C285 1.433 . S
C287 N290 1.384 . S
C288 H279 0.929 . S
C288 C280 1.378 . S
C288 C283 1.350 . S
C289 H276 0.929 . S
C289 C281 1.433 . S
C289 N291 1.384 . S
N290 C286 1.427 . S
N290 C287 1.384 . S
N291 C283 1.427 . S
N291 C289 1.384 . S
H292 C298 0.930 . S
H293 C302 0.930 . S
H294 C307 0.929 . S
H295 C305 0.929 . S
H296 C300 0.929 . S
H297 C306 0.929 . S
C298 H292 0.930 . S
C298 C299 1.367 . S
C298 C306 1.378 . S
C299 C298 1.367 . S
C299 C307 1.433 . S
C300 H296 0.929 . S
C300 C302 1.378 . S
C300 C304 1.350 . S
C301 C304 1.463 . S
C301 C306 1.350 . S
C301 N309 1.427 . S
C302 H293 0.930 . S
C302 C300 1.378 . S
C302 C303 1.367 . S
C303 C302 1.367 . S
C303 C305 1.433 . S
C304 C300 1.350 . S
C304 C301 1.463 . S
C304 N308 1.427 . S
C305 H295 0.929 . S
C305 C303 1.433 . S
C305 N308 1.384 . S
C306 H297 0.929 . S
C306 C298 1.378 . S
C306 C301 1.350 . S
C307 H294 0.929 . S
C307 C299 1.433 . S
C307 N309 1.384 . S
N308 C304 1.427 . S
N308 C305 1.384 . S
N309 C301 1.427 . S
N309 C307 1.384 . S
H310 C316 0.930 . S
H311 C320 0.930 . S
H312 C325 0.929 . S
H313 C323 0.929 . S
H314 C318 0.929 . S
H315 C324 0.929 . S
C316 H310 0.930 . S
C316 C317 1.367 . S
C316 C324 1.378 . S
C317 C316 1.367 . S
C317 C325 1.433 . S
C318 H314 0.929 . S
C318 C320 1.378 . S
C318 C322 1.350 . S
C319 C322 1.463 . S
C319 C324 1.350 . S
C319 N327 1.427 . S
C320 H311 0.930 . S
C320 C318 1.378 . S
C320 C321 1.367 . S
C321 C320 1.367 . S
C321 C323 1.433 . S
C322 C318 1.350 . S
C322 C319 1.463 . S
C322 N326 1.427 . S
C323 H313 0.929 . S
C323 C321 1.433 . S
C323 N326 1.384 . S
C324 H315 0.929 . S
C324 C316 1.378 . S
C324 C319 1.350 . S
C325 H312 0.929 . S
C325 C317 1.433 . S
C325 N327 1.384 . S
N326 C322 1.427 . S
N326 C323 1.384 . S
N327 C319 1.427 . S
N327 C325 1.384 . S
H328 C334 0.930 . S
H329 C338 0.930 . S
H330 C343 0.929 . S
H331 C341 0.929 . S
H332 C336 0.929 . S
H333 C342 0.929 . S
C334 H328 0.930 . S
C334 C335 1.367 . S
C334 C342 1.378 . S
C335 C334 1.367 . S
C335 C343 1.433 . S
C336 H332 0.929 . S
C336 C338 1.378 . S
C336 C340 1.350 . S
C337 C340 1.463 . S
C337 C342 1.350 . S
C337 N345 1.427 . S
C338 H329 0.930 . S
C338 C336 1.378 . S
C338 C339 1.367 . S
C339 C338 1.367 . S
C339 C341 1.433 . S
C340 C336 1.350 . S
C340 C337 1.463 . S
C340 N344 1.427 . S
C341 H331 0.929 . S
C341 C339 1.433 . S
C341 N344 1.384 . S
C342 H333 0.929 . S
C342 C334 1.378 . S
C342 C337 1.350 . S
C343 H330 0.929 . S
C343 C335 1.433 . S
C343 N345 1.384 . S
N344 C340 1.427 . S
N344 C341 1.384 . S
N345 C337 1.427 . S
N345 C343 1.384 . S
H346 C352 0.930 . S
H347 C356 0.930 . S
H348 C361 0.929 . S
H349 C359 0.929 . S
H350 C354 0.929 . S
H351 C360 0.929 . S
C352 H346 0.930 . S
C352 C353 1.367 . S
C352 C360 1.378 . S
C353 C352 1.367 . S
C353 C361 1.433 . S
C354 H350 0.929 . S
C354 C356 1.378 . S
C354 C358 1.350 . S
C355 C358 1.463 . S
C355 C360 1.350 . S
C355 N363 1.427 . S
C356 H347 0.930 . S
C356 C354 1.378 . S
C356 C357 1.367 . S
C357 C356 1.367 . S
C357 C359 1.433 . S
C358 C354 1.350 . S
C358 C355 1.463 . S
C358 N362 1.427 . S
C359 H349 0.929 . S
C359 C357 1.433 . S
C359 N362 1.384 . S
C360 H351 0.929 . S
C360 C352 1.378 . S
C360 C355 1.350 . S
C361 H348 0.929 . S
C361 C353 1.433 . S
C361 N363 1.384 . S
N362 C358 1.427 . S
N362 C359 1.384 . S
N363 C355 1.427 . S
N363 C361 1.384 . S
H364 C370 0.930 . S
H365 C374 0.930 . S
H366 C379 0.929 . S
H367 C377 0.929 . S
H368 C372 0.929 . S
H369 C378 0.929 . S
C370 H364 0.930 . S
C370 C371 1.367 . S
C370 C378 1.378 1_554 S
C371 C370 1.367 . S
C371 C379 1.433 . S
C372 H368 0.929 . S
C372 C374 1.378 1_554 S
C372 C376 1.350 1_554 S
C373 C376 1.463 1_554 S
C373 C378 1.350 1_554 S
C373 N381 1.427 . S
C374 H365 0.930 . S
C374 C372 1.378 1_556 S
C374 C375 1.367 . S
C375 C374 1.367 . S
C375 C377 1.433 . S
C376 C372 1.350 1_556 S
C376 C373 1.463 1_556 S
C376 N380 1.427 . S
C377 H367 0.929 . S
C377 C375 1.433 . S
C377 N380 1.384 . S
C378 H369 0.929 . S
C378 C370 1.378 1_556 S
C378 C373 1.350 1_556 S
C379 H366 0.929 . S
C379 C371 1.433 . S
C379 N381 1.384 . S
N380 C376 1.427 . S
N380 C377 1.384 . S
N381 C373 1.427 . S
N381 C379 1.384 . S
H382 C388 0.930 . S
H383 C392 0.930 . S
H384 C397 0.929 . S
H385 C395 0.929 . S
H386 C390 0.929 . S
H387 C396 0.929 . S
C388 H382 0.930 . S
C388 C389 1.367 . S
C388 C396 1.378 . S
C389 C388 1.367 . S
C389 C397 1.433 . S
C390 H386 0.929 . S
C390 C392 1.378 . S
C390 C394 1.350 . S
C391 C394 1.463 1_554 S
C391 C396 1.350 . S
C391 N399 1.427 1_554 S
C392 H383 0.930 . S
C392 C390 1.378 . S
C392 C393 1.367 . S
C393 C392 1.367 . S
C393 C395 1.433 . S
C394 C390 1.350 . S
C394 C391 1.463 1_556 S
C394 N398 1.427 1_556 S
C395 H385 0.929 . S
C395 C393 1.433 . S
C395 N398 1.384 1_556 S
C396 H387 0.929 . S
C396 C388 1.378 . S
C396 C391 1.350 . S
C397 H384 0.929 . S
C397 C389 1.433 . S
C397 N399 1.384 1_554 S
N398 C394 1.427 1_554 S
N398 C395 1.384 1_554 S
N399 C391 1.427 1_556 S
N399 C397 1.384 1_556 S
C119 C7 1.495 . S
C123 C35 1.495 . S
C137 C49 1.502 . S
C141 C21 1.502 . S
C155 C91 1.490 . S
C159 C63 1.490 . S
C173 C77 1.509 . S
C177 C105 1.509 . S
C191 C90 1.673 . S
C195 C6 1.673 . S
C209 C20 1.673 . S
C213 C104 1.673 . S
C227 C34 1.672 . S
C231 C62 1.672 . S
C245 C48 1.669 . S
C249 C76 1.669 . S
C263 C92 1.588 . S
C267 C8 1.588 . S
C281 C22 1.586 . S
C285 C106 1.586 . S
C299 C64 1.589 . S
C303 C36 1.589 . S
C317 C78 1.589 . S
C321 C50 1.589 . S
C335 C23 0.624 . S
C339 C9 0.585 . S
C353 C37 0.627 . S
C357 C51 0.588 . S
C371 C79 0.608 . S
C375 C65 0.625 . S
C389 C93 0.587 . S
C393 C107 0.604 . S
