# Generated by pormake.
# Topology fcs, (5)-cn, num edge types: 1
# Building blocks:
#     Node 0, Type 0, BuildingBlock: XOMCOT_clean_sbu_1, # of connection points: 5
#     Node 1, Type 0, BuildingBlock: XOMCOT_clean_sbu_1, # of connection points: 5
#     Node 2, Type 0, BuildingBlock: XOMCOT_clean_sbu_1, # of connection points: 5
#     Node 3, Type 0, BuildingBlock: XOMCOT_clean_sbu_1, # of connection points: 5
#     Node 4, Type 0, BuildingBlock: XOMCOT_clean_sbu_1, # of connection points: 5
#     Node 5, Type 0, BuildingBlock: XOMCOT_clean_sbu_1, # of connection points: 5
#     Node 6, Type 0, BuildingBlock: XOMCOT_clean_sbu_1, # of connection points: 5
#     Node 7, Type 0, BuildingBlock: XOMCOT_clean_sbu_1, # of connection points: 5
#     Node 8, Type 0, BuildingBlock: XOMCOT_clean_sbu_1, # of connection points: 5
#     Node 9, Type 0, BuildingBlock: XOMCOT_clean_sbu_1, # of connection points: 5
#     Node 10, Type 0, BuildingBlock: XOMCOT_clean_sbu_1, # of connection points: 5
#     Node 11, Type 0, BuildingBlock: XOMCOT_clean_sbu_1, # of connection points: 5
#     Node 12, Type 0, BuildingBlock: XOMCOT_clean_sbu_1, # of connection points: 5
#     Node 13, Type 0, BuildingBlock: XOMCOT_clean_sbu_1, # of connection points: 5
#     Node 14, Type 0, BuildingBlock: XOMCOT_clean_sbu_1, # of connection points: 5
#     Node 15, Type 0, BuildingBlock: XOMCOT_clean_sbu_1, # of connection points: 5
#     Node 16, Type 0, BuildingBlock: XOMCOT_clean_sbu_1, # of connection points: 5
#     Node 17, Type 0, BuildingBlock: XOMCOT_clean_sbu_1, # of connection points: 5
#     Node 18, Type 0, BuildingBlock: XOMCOT_clean_sbu_1, # of connection points: 5
#     Node 19, Type 0, BuildingBlock: XOMCOT_clean_sbu_1, # of connection points: 5
#     Node 20, Type 0, BuildingBlock: XOMCOT_clean_sbu_1, # of connection points: 5
#     Node 21, Type 0, BuildingBlock: XOMCOT_clean_sbu_1, # of connection points: 5
#     Node 22, Type 0, BuildingBlock: XOMCOT_clean_sbu_1, # of connection points: 5
#     Node 23, Type 0, BuildingBlock: XOMCOT_clean_sbu_1, # of connection points: 5
#     Node 24, Type 0, BuildingBlock: XOMCOT_clean_sbu_1, # of connection points: 5
#     Node 25, Type 0, BuildingBlock: XOMCOT_clean_sbu_1, # of connection points: 5
#     Node 26, Type 0, BuildingBlock: XOMCOT_clean_sbu_1, # of connection points: 5
#     Node 27, Type 0, BuildingBlock: XOMCOT_clean_sbu_1, # of connection points: 5
#     Node 28, Type 0, BuildingBlock: XOMCOT_clean_sbu_1, # of connection points: 5
#     Node 29, Type 0, BuildingBlock: XOMCOT_clean_sbu_1, # of connection points: 5
#     Node 30, Type 0, BuildingBlock: XOMCOT_clean_sbu_1, # of connection points: 5
#     Node 31, Type 0, BuildingBlock: XOMCOT_clean_sbu_1, # of connection points: 5
#     Node 32, Type 0, BuildingBlock: XOMCOT_clean_sbu_1, # of connection points: 5
#     Node 33, Type 0, BuildingBlock: XOMCOT_clean_sbu_1, # of connection points: 5
#     Node 34, Type 0, BuildingBlock: XOMCOT_clean_sbu_1, # of connection points: 5
#     Node 35, Type 0, BuildingBlock: XOMCOT_clean_sbu_1, # of connection points: 5
#     Node 36, Type 0, BuildingBlock: XOMCOT_clean_sbu_1, # of connection points: 5
#     Node 37, Type 0, BuildingBlock: XOMCOT_clean_sbu_1, # of connection points: 5
#     Node 38, Type 0, BuildingBlock: XOMCOT_clean_sbu_1, # of connection points: 5
#     Node 39, Type 0, BuildingBlock: XOMCOT_clean_sbu_1, # of connection points: 5
#     Node 40, Type 0, BuildingBlock: XOMCOT_clean_sbu_1, # of connection points: 5
#     Node 41, Type 0, BuildingBlock: XOMCOT_clean_sbu_1, # of connection points: 5
#     Node 42, Type 0, BuildingBlock: XOMCOT_clean_sbu_1, # of connection points: 5
#     Node 43, Type 0, BuildingBlock: XOMCOT_clean_sbu_1, # of connection points: 5
#     Node 44, Type 0, BuildingBlock: XOMCOT_clean_sbu_1, # of connection points: 5
#     Node 45, Type 0, BuildingBlock: XOMCOT_clean_sbu_1, # of connection points: 5
#     Node 46, Type 0, BuildingBlock: XOMCOT_clean_sbu_1, # of connection points: 5
#     Node 47, Type 0, BuildingBlock: XOMCOT_clean_sbu_1, # of connection points: 5
#     Edge 48, Type (0, 0), BuildingBlock: XUDNAN_clean_linker_2, # of connection points: 2
#     Edge 49, Type (0, 0), BuildingBlock: XUDNAN_clean_linker_2, # of connection points: 2
#     Edge 50, Type (0, 0), BuildingBlock: XUDNAN_clean_linker_2, # of connection points: 2
#     Edge 51, Type (0, 0), BuildingBlock: XUDNAN_clean_linker_2, # of connection points: 2
#     Edge 52, Type (0, 0), BuildingBlock: XUDNAN_clean_linker_2, # of connection points: 2
#     Edge 53, Type (0, 0), BuildingBlock: XUDNAN_clean_linker_2, # of connection points: 2
#     Edge 54, Type (0, 0), BuildingBlock: XUDNAN_clean_linker_2, # of connection points: 2
#     Edge 55, Type (0, 0), BuildingBlock: XUDNAN_clean_linker_2, # of connection points: 2
#     Edge 56, Type (0, 0), BuildingBlock: XUDNAN_clean_linker_2, # of connection points: 2
#     Edge 57, Type (0, 0), BuildingBlock: XUDNAN_clean_linker_2, # of connection points: 2
#     Edge 58, Type (0, 0), BuildingBlock: XUDNAN_clean_linker_2, # of connection points: 2
#     Edge 59, Type (0, 0), BuildingBlock: XUDNAN_clean_linker_2, # of connection points: 2
#     Edge 60, Type (0, 0), BuildingBlock: XUDNAN_clean_linker_2, # of connection points: 2
#     Edge 61, Type (0, 0), BuildingBlock: XUDNAN_clean_linker_2, # of connection points: 2
#     Edge 62, Type (0, 0), BuildingBlock: XUDNAN_clean_linker_2, # of connection points: 2
#     Edge 63, Type (0, 0), BuildingBlock: XUDNAN_clean_linker_2, # of connection points: 2
#     Edge 64, Type (0, 0), BuildingBlock: XUDNAN_clean_linker_2, # of connection points: 2
#     Edge 65, Type (0, 0), BuildingBlock: XUDNAN_clean_linker_2, # of connection points: 2
#     Edge 66, Type (0, 0), BuildingBlock: XUDNAN_clean_linker_2, # of connection points: 2
#     Edge 67, Type (0, 0), BuildingBlock: XUDNAN_clean_linker_2, # of connection points: 2
#     Edge 68, Type (0, 0), BuildingBlock: XUDNAN_clean_linker_2, # of connection points: 2
#     Edge 69, Type (0, 0), BuildingBlock: XUDNAN_clean_linker_2, # of connection points: 2
#     Edge 70, Type (0, 0), BuildingBlock: XUDNAN_clean_linker_2, # of connection points: 2
#     Edge 71, Type (0, 0), BuildingBlock: XUDNAN_clean_linker_2, # of connection points: 2
#     Edge 72, Type (0, 0), BuildingBlock: XUDNAN_clean_linker_2, # of connection points: 2
#     Edge 73, Type (0, 0), BuildingBlock: XUDNAN_clean_linker_2, # of connection points: 2
#     Edge 74, Type (0, 0), BuildingBlock: XUDNAN_clean_linker_2, # of connection points: 2
#     Edge 75, Type (0, 0), BuildingBlock: XUDNAN_clean_linker_2, # of connection points: 2
#     Edge 76, Type (0, 0), BuildingBlock: XUDNAN_clean_linker_2, # of connection points: 2
#     Edge 77, Type (0, 0), BuildingBlock: XUDNAN_clean_linker_2, # of connection points: 2
#     Edge 78, Type (0, 0), BuildingBlock: XUDNAN_clean_linker_2, # of connection points: 2
#     Edge 79, Type (0, 0), BuildingBlock: XUDNAN_clean_linker_2, # of connection points: 2
#     Edge 80, Type (0, 0), BuildingBlock: XUDNAN_clean_linker_2, # of connection points: 2
#     Edge 81, Type (0, 0), BuildingBlock: XUDNAN_clean_linker_2, # of connection points: 2
#     Edge 82, Type (0, 0), BuildingBlock: XUDNAN_clean_linker_2, # of connection points: 2
#     Edge 83, Type (0, 0), BuildingBlock: XUDNAN_clean_linker_2, # of connection points: 2
#     Edge 84, Type (0, 0), BuildingBlock: XUDNAN_clean_linker_2, # of connection points: 2
#     Edge 85, Type (0, 0), BuildingBlock: XUDNAN_clean_linker_2, # of connection points: 2
#     Edge 86, Type (0, 0), BuildingBlock: XUDNAN_clean_linker_2, # of connection points: 2
#     Edge 87, Type (0, 0), BuildingBlock: XUDNAN_clean_linker_2, # of connection points: 2
#     Edge 88, Type (0, 0), BuildingBlock: XUDNAN_clean_linker_2, # of connection points: 2
#     Edge 89, Type (0, 0), BuildingBlock: XUDNAN_clean_linker_2, # of connection points: 2
#     Edge 90, Type (0, 0), BuildingBlock: XUDNAN_clean_linker_2, # of connection points: 2
#     Edge 91, Type (0, 0), BuildingBlock: XUDNAN_clean_linker_2, # of connection points: 2
#     Edge 92, Type (0, 0), BuildingBlock: XUDNAN_clean_linker_2, # of connection points: 2
#     Edge 93, Type (0, 0), BuildingBlock: XUDNAN_clean_linker_2, # of connection points: 2
#     Edge 94, Type (0, 0), BuildingBlock: XUDNAN_clean_linker_2, # of connection points: 2
#     Edge 95, Type (0, 0), BuildingBlock: XUDNAN_clean_linker_2, # of connection points: 2
#     Edge 96, Type (0, 0), BuildingBlock: XUDNAN_clean_linker_2, # of connection points: 2
#     Edge 97, Type (0, 0), BuildingBlock: XUDNAN_clean_linker_2, # of connection points: 2
#     Edge 98, Type (0, 0), BuildingBlock: XUDNAN_clean_linker_2, # of connection points: 2
#     Edge 99, Type (0, 0), BuildingBlock: XUDNAN_clean_linker_2, # of connection points: 2
#     Edge 100, Type (0, 0), BuildingBlock: XUDNAN_clean_linker_2, # of connection points: 2
#     Edge 101, Type (0, 0), BuildingBlock: XUDNAN_clean_linker_2, # of connection points: 2
#     Edge 102, Type (0, 0), BuildingBlock: XUDNAN_clean_linker_2, # of connection points: 2
#     Edge 103, Type (0, 0), BuildingBlock: XUDNAN_clean_linker_2, # of connection points: 2
#     Edge 104, Type (0, 0), BuildingBlock: XUDNAN_clean_linker_2, # of connection points: 2
#     Edge 105, Type (0, 0), BuildingBlock: XUDNAN_clean_linker_2, # of connection points: 2
#     Edge 106, Type (0, 0), BuildingBlock: XUDNAN_clean_linker_2, # of connection points: 2
#     Edge 107, Type (0, 0), BuildingBlock: XUDNAN_clean_linker_2, # of connection points: 2
#     Edge 108, Type (0, 0), BuildingBlock: XUDNAN_clean_linker_2, # of connection points: 2
#     Edge 109, Type (0, 0), BuildingBlock: XUDNAN_clean_linker_2, # of connection points: 2
#     Edge 110, Type (0, 0), BuildingBlock: XUDNAN_clean_linker_2, # of connection points: 2
#     Edge 111, Type (0, 0), BuildingBlock: XUDNAN_clean_linker_2, # of connection points: 2
#     Edge 112, Type (0, 0), BuildingBlock: XUDNAN_clean_linker_2, # of connection points: 2
#     Edge 113, Type (0, 0), BuildingBlock: XUDNAN_clean_linker_2, # of connection points: 2
#     Edge 114, Type (0, 0), BuildingBlock: XUDNAN_clean_linker_2, # of connection points: 2
#     Edge 115, Type (0, 0), BuildingBlock: XUDNAN_clean_linker_2, # of connection points: 2
#     Edge 116, Type (0, 0), BuildingBlock: XUDNAN_clean_linker_2, # of connection points: 2
#     Edge 117, Type (0, 0), BuildingBlock: XUDNAN_clean_linker_2, # of connection points: 2
#     Edge 118, Type (0, 0), BuildingBlock: XUDNAN_clean_linker_2, # of connection points: 2
#     Edge 119, Type (0, 0), BuildingBlock: XUDNAN_clean_linker_2, # of connection points: 2
#     Edge 120, Type (0, 0), BuildingBlock: XUDNAN_clean_linker_2, # of connection points: 2
#     Edge 121, Type (0, 0), BuildingBlock: XUDNAN_clean_linker_2, # of connection points: 2
#     Edge 122, Type (0, 0), BuildingBlock: XUDNAN_clean_linker_2, # of connection points: 2
#     Edge 123, Type (0, 0), BuildingBlock: XUDNAN_clean_linker_2, # of connection points: 2
#     Edge 124, Type (0, 0), BuildingBlock: XUDNAN_clean_linker_2, # of connection points: 2
#     Edge 125, Type (0, 0), BuildingBlock: XUDNAN_clean_linker_2, # of connection points: 2
#     Edge 126, Type (0, 0), BuildingBlock: XUDNAN_clean_linker_2, # of connection points: 2
#     Edge 127, Type (0, 0), BuildingBlock: XUDNAN_clean_linker_2, # of connection points: 2
#     Edge 128, Type (0, 0), BuildingBlock: XUDNAN_clean_linker_2, # of connection points: 2
#     Edge 129, Type (0, 0), BuildingBlock: XUDNAN_clean_linker_2, # of connection points: 2
#     Edge 130, Type (0, 0), BuildingBlock: XUDNAN_clean_linker_2, # of connection points: 2
#     Edge 131, Type (0, 0), BuildingBlock: XUDNAN_clean_linker_2, # of connection points: 2
#     Edge 132, Type (0, 0), BuildingBlock: XUDNAN_clean_linker_2, # of connection points: 2
#     Edge 133, Type (0, 0), BuildingBlock: XUDNAN_clean_linker_2, # of connection points: 2
#     Edge 134, Type (0, 0), BuildingBlock: XUDNAN_clean_linker_2, # of connection points: 2
#     Edge 135, Type (0, 0), BuildingBlock: XUDNAN_clean_linker_2, # of connection points: 2
#     Edge 136, Type (0, 0), BuildingBlock: XUDNAN_clean_linker_2, # of connection points: 2
#     Edge 137, Type (0, 0), BuildingBlock: XUDNAN_clean_linker_2, # of connection points: 2
#     Edge 138, Type (0, 0), BuildingBlock: XUDNAN_clean_linker_2, # of connection points: 2
#     Edge 139, Type (0, 0), BuildingBlock: XUDNAN_clean_linker_2, # of connection points: 2
#     Edge 140, Type (0, 0), BuildingBlock: XUDNAN_clean_linker_2, # of connection points: 2
#     Edge 141, Type (0, 0), BuildingBlock: XUDNAN_clean_linker_2, # of connection points: 2
#     Edge 142, Type (0, 0), BuildingBlock: XUDNAN_clean_linker_2, # of connection points: 2
#     Edge 143, Type (0, 0), BuildingBlock: XUDNAN_clean_linker_2, # of connection points: 2
#     Edge 144, Type (0, 0), BuildingBlock: XUDNAN_clean_linker_2, # of connection points: 2
#     Edge 145, Type (0, 0), BuildingBlock: XUDNAN_clean_linker_2, # of connection points: 2
#     Edge 146, Type (0, 0), BuildingBlock: XUDNAN_clean_linker_2, # of connection points: 2
#     Edge 147, Type (0, 0), BuildingBlock: XUDNAN_clean_linker_2, # of connection points: 2
#     Edge 148, Type (0, 0), BuildingBlock: XUDNAN_clean_linker_2, # of connection points: 2
#     Edge 149, Type (0, 0), BuildingBlock: XUDNAN_clean_linker_2, # of connection points: 2
#     Edge 150, Type (0, 0), BuildingBlock: XUDNAN_clean_linker_2, # of connection points: 2
#     Edge 151, Type (0, 0), BuildingBlock: XUDNAN_clean_linker_2, # of connection points: 2
#     Edge 152, Type (0, 0), BuildingBlock: XUDNAN_clean_linker_2, # of connection points: 2
#     Edge 153, Type (0, 0), BuildingBlock: XUDNAN_clean_linker_2, # of connection points: 2
#     Edge 154, Type (0, 0), BuildingBlock: XUDNAN_clean_linker_2, # of connection points: 2
#     Edge 155, Type (0, 0), BuildingBlock: XUDNAN_clean_linker_2, # of connection points: 2
#     Edge 156, Type (0, 0), BuildingBlock: XUDNAN_clean_linker_2, # of connection points: 2
#     Edge 157, Type (0, 0), BuildingBlock: XUDNAN_clean_linker_2, # of connection points: 2
#     Edge 158, Type (0, 0), BuildingBlock: XUDNAN_clean_linker_2, # of connection points: 2
#     Edge 159, Type (0, 0), BuildingBlock: XUDNAN_clean_linker_2, # of connection points: 2
#     Edge 160, Type (0, 0), BuildingBlock: XUDNAN_clean_linker_2, # of connection points: 2
#     Edge 161, Type (0, 0), BuildingBlock: XUDNAN_clean_linker_2, # of connection points: 2
#     Edge 162, Type (0, 0), BuildingBlock: XUDNAN_clean_linker_2, # of connection points: 2
#     Edge 163, Type (0, 0), BuildingBlock: XUDNAN_clean_linker_2, # of connection points: 2
#     Edge 164, Type (0, 0), BuildingBlock: XUDNAN_clean_linker_2, # of connection points: 2
#     Edge 165, Type (0, 0), BuildingBlock: XUDNAN_clean_linker_2, # of connection points: 2
#     Edge 166, Type (0, 0), BuildingBlock: XUDNAN_clean_linker_2, # of connection points: 2
#     Edge 167, Type (0, 0), BuildingBlock: XUDNAN_clean_linker_2, # of connection points: 2
# Relax obj value: 0.337
# Max RMSD: 0.241
# Mean RMSD: 0.241
data_MOF--net-fcs--node1-XOMCOT_clean_sbu_1--edge1-XUDNAN_clean_linker_2
_symmetry_space_group_name_H-M    P1
_symmetry_Int_Tables_number       1
_symmetry_cell_setting            triclinic
loop_
_symmetry_equiv_pos_as_xyz
'x, y, z'
_cell_length_a     57.607555
_cell_length_b     57.63171
_cell_length_c     57.63649
_cell_angle_alpha  89.99684
_cell_angle_beta   89.964842
_cell_angle_gamma 90.008869
loop_
_atom_site_label
_atom_site_type_symbol
_atom_site_fract_x
_atom_site_fract_y
_atom_site_fract_z
_atom_type_partial_charge
C0 C 0.07239 0.14513 0.25676 0.0
C1 C 0.09325 0.13608 0.24931 0.0
N2 N 0.09223 0.11277 0.25112 0.0
N3 N 0.0582 0.12759 0.26297 0.0
C4 C 0.07099 0.10817 0.25984 0.0
H5 H 0.06739 0.16321 0.25642 0.0
Co6 Co 0.02663 0.13013 0.27052 0.0
C7 C 0.01412 0.08391 0.24818 0.0
O8 O 0.00302 0.09353 0.23076 0.0
N9 N 0.9949 0.1329 0.27906 0.0
C10 C 0.95702 0.12816 0.28543 0.0
C11 C 0.97613 0.1199 0.27371 0.0
C12 C 0.98652 0.14903 0.29397 0.0
N13 N 0.96358 0.14652 0.29831 0.0
O14 O 0.03437 0.12394 0.30238 0.0
H15 H 0.97603 0.10497 0.26253 0.0
H16 H 0.99709 0.16254 0.30147 0.0
O17 O 0.02268 0.09661 0.2643 0.0
C18 C 0.04057 0.14332 0.31118 0.0
O19 O 0.04057 0.16177 0.29776 0.0
N20 N 0.02023 0.13945 0.23948 0.0
C21 C 0.02879 0.16881 0.20183 0.0
C22 C 0.03726 0.14599 0.20184 0.0
C23 C 0.0327 0.13149 0.22084 0.0
C24 C 0.00956 0.16057 0.23821 0.0
C25 C 0.0133 0.17531 0.21941 0.0
H26 H 0.04176 0.11511 0.2218 0.0
H27 H 1.00048 0.16755 0.253 0.0
H28 H 0.06439 0.09081 0.2624 0.0
H29 H 0.10769 0.14588 0.24235 0.0
H30 H 0.93984 0.1206 0.28508 0.0
H31 H 0.04936 0.14022 0.18866 0.0
H32 H 0.00603 0.19264 0.2199 0.0
C33 C 0.39244 0.69614 0.99327 0.0
C34 C 0.38069 0.67711 1.00175 0.0
N35 N 0.35797 0.6825 0.00307 0.0
N36 N 0.37722 0.71346 0.98934 0.0
C37 C 0.35638 0.70449 0.99529 0.0
H38 H 0.41104 0.69768 0.99126 0.0
Co39 Co 0.38521 0.74407 0.98227 0.0
C40 C 0.34212 0.77133 0.99172 0.0
O41 O 0.35484 0.78796 1.00064 0.0
N42 N 0.39407 0.77555 0.97471 0.0
C43 C 0.40915 0.81126 0.9758 0.0
C44 C 0.40249 0.79242 0.98874 0.0
C45 C 0.39544 0.78521 0.95323 0.0
N46 N 0.40495 0.80674 0.95328 0.0
O47 O 0.38321 0.73667 0.94983 0.0
H48 H 0.40392 0.79145 0.00738 0.0
H49 H 0.38985 0.77649 0.93767 0.0
O50 O 0.352 0.75314 0.98363 0.0
C51 C 0.40375 0.73098 0.94367 0.0
O52 O 0.42041 0.73184 0.95919 0.0
N53 N 0.39014 0.74895 0.01397 0.0
C54 C 0.40623 0.74172 0.05895 0.0
C55 C 0.38232 0.74173 0.0543 0.0
C56 C 0.37453 0.74554 0.03153 0.0
C57 C 0.41338 0.74892 0.01843 0.0
C58 C 0.42176 0.74603 0.04085 0.0
H59 H 0.35625 0.74373 0.02783 0.0
H60 H 0.42556 0.75005 0.00419 0.0
H61 H 0.34052 0.71432 0.99563 0.0
H62 H 0.38838 0.66088 0.00722 0.0
H63 H 0.41724 0.82674 0.98264 0.0
H64 H 0.36993 0.73769 0.06785 0.0
H65 H 0.44034 0.74538 0.04371 0.0
C66 C 0.9336 0.35677 0.25481 0.0
C67 C 0.91479 0.36232 0.24129 0.0
N68 N 0.91645 0.38483 0.23539 0.0
N69 N 0.94719 0.37568 0.25745 0.0
C70 C 0.93608 0.39261 0.24551 0.0
H71 H 0.93815 0.33945 0.26029 0.0
Co72 Co 0.97806 0.37433 0.26759 0.0
C73 C 0.98863 0.42347 0.27865 0.0
O74 O 0.99697 0.41729 0.29895 0.0
N75 N 0.0092 0.37229 0.27738 0.0
C76 C 0.04757 0.37594 0.2802 0.0
C77 C 0.02808 0.38237 0.26787 0.0
C78 C 0.01773 0.35972 0.29526 0.0
N79 N 0.04103 0.36162 0.29754 0.0
O80 O 0.9677 0.37665 0.29931 0.0
H81 H 0.02771 0.39369 0.25291 0.0
H82 H 0.00702 0.3495 0.30664 0.0
O83 O 0.98067 0.40801 0.26492 0.0
C84 C 0.96228 0.35654 0.30686 0.0
O85 O 0.96579 0.33865 0.29317 0.0
N86 N 0.9869 0.36975 0.23682 0.0
C87 C 0.97745 0.35552 0.19167 0.0
C88 C 0.98134 0.37911 0.19673 0.0
C89 C 0.98594 0.38595 0.21958 0.0
C90 C 0.98661 0.34671 0.23169 0.0
C91 C 0.98175 0.33917 0.20923 0.0
H92 H 0.98623 0.40425 0.22355 0.0
H93 H 0.98705 0.33418 0.24567 0.0
H94 H 0.94337 0.40954 0.24211 0.0
H95 H 0.90181 0.35035 0.23487 0.0
H96 H 0.06515 0.38133 0.27645 0.0
H97 H 0.9789 0.39233 0.18362 0.0
H98 H 0.97891 0.32082 0.20642 0.0
C99 C 0.62518 0.82849 0.97018 0.0
C100 C 0.63756 0.84793 0.97629 0.0
N101 N 0.65468 0.84147 0.9908 0.0
N102 N 0.63463 0.80976 0.98052 0.0
C103 C 0.65244 0.81827 0.99328 0.0
H104 H 0.61032 0.82807 0.95876 0.0
Co105 Co 0.62454 0.77926 0.97622 0.0
C106 C 0.67345 0.76449 0.96766 0.0
O107 O 0.6709 0.76551 0.94505 0.0
N108 N 0.61401 0.74852 0.97161 0.0
C109 C 0.58931 0.71881 0.97089 0.0
C110 C 0.59563 0.7387 0.98239 0.0
C111 C 0.61868 0.73401 0.9537 0.0
N112 N 0.60366 0.71598 0.95269 0.0
O113 O 0.62826 0.78321 0.94341 0.0
H114 H 0.5861 0.74636 0.99661 0.0
H115 H 0.6313 0.73778 0.94031 0.0
O116 O 0.65622 0.76867 0.98094 0.0
C117 C 0.6083 0.78627 0.93433 0.0
O118 O 0.58992 0.7843 0.94773 0.0
N119 N 0.61829 0.77702 0.00769 0.0
C120 C 0.59897 0.77483 0.05183 0.0
C121 C 0.61898 0.76192 0.04646 0.0
C122 C 0.62837 0.76311 0.024 0.0
C123 C 0.59937 0.79012 0.01291 0.0
C124 C 0.58951 0.78938 0.03482 0.0
H125 H 0.64306 0.75234 0.01952 0.0
H126 H 0.59144 0.8007 0.99959 0.0
H127 H 0.66387 0.80767 0.00374 0.0
H128 H 0.63422 0.8655 0.97055 0.0
H129 H 0.57439 0.70806 0.97475 0.0
H130 H 0.62677 0.75054 0.05922 0.0
H131 H 0.57442 0.80004 0.03836 0.0
C132 C 0.07091 0.8441 0.24205 0.0
C133 C 0.09021 0.84845 0.25541 0.0
N134 N 0.08997 0.871 0.2614 0.0
N135 N 0.05844 0.86378 0.23982 0.0
C136 C 0.07068 0.87995 0.25167 0.0
H137 H 0.06535 0.82723 0.23605 0.0
Co138 Co 0.02777 0.86477 0.22943 0.0
C139 C 0.02522 0.9155 0.21867 0.0
O140 O 0.02095 0.91127 0.19668 0.0
N141 N 0.99674 0.8651 0.21922 0.0
C142 C 0.96064 0.87537 0.20984 0.0
C143 C 0.98038 0.88172 0.22179 0.0
C144 C 0.98613 0.84843 0.20652 0.0
N145 N 0.96434 0.85436 0.20043 0.0
O146 O 0.03867 0.86693 0.19798 0.0
H147 H 0.98262 0.89766 0.23141 0.0
H148 H 0.99432 0.83246 0.20115 0.0
O149 O 0.02782 0.89861 0.23279 0.0
C150 C 0.04166 0.84705 0.18874 0.0
O151 O 0.03678 0.8284 0.20088 0.0
N152 N 0.01818 0.86034 0.26001 0.0
C153 C 0.02737 0.84634 0.30526 0.0
C154 C 0.0234 0.86988 0.30008 0.0
C155 C 0.01889 0.8766 0.27719 0.0
C156 C 0.01833 0.83732 0.26527 0.0
C157 C 0.02309 0.82988 0.28782 0.0
H158 H 0.01843 0.89488 0.27318 0.0
H159 H 0.01801 0.82471 0.25136 0.0
H160 H 0.0646 0.89735 0.25506 0.0
H161 H 0.10274 0.83578 0.26137 0.0
H162 H 0.94488 0.88544 0.20801 0.0
H163 H 0.02578 0.88317 0.31315 0.0
H164 H 0.02593 0.81155 0.29079 0.0
C165 C 0.15633 0.66976 0.0324 0.0
C166 C 0.17094 0.65449 0.02118 0.0
N167 N 0.18126 0.66573 0.00342 0.0
N168 N 0.15749 0.69057 0.02182 0.0
C169 C 0.17294 0.6876 0.00441 0.0
H170 H 0.14481 0.66559 0.04661 0.0
Co171 Co 0.13942 0.71698 0.02698 0.0
C172 C 0.17348 0.75638 0.01919 0.0
O173 O 0.15723 0.77221 0.01702 0.0
N174 N 0.12089 0.74354 0.03228 0.0
C175 C 0.08949 0.76604 0.03369 0.0
C176 C 0.10025 0.74816 0.02214 0.0
C177 C 0.12224 0.75898 0.04999 0.0
N178 N 0.10337 0.77282 0.05115 0.0
O179 O 0.14414 0.71397 0.06003 0.0
H180 H 0.09264 0.73823 0.00819 0.0
H181 H 0.13603 0.75903 0.06273 0.0
O182 O 0.16791 0.73529 0.02307 0.0
C183 C 0.12525 0.70548 0.06807 0.0
O184 O 0.10853 0.70059 0.05334 0.0
N185 N 0.13209 0.71763 0.99534 0.0
C186 C 0.11267 0.71114 0.95146 0.0
C187 C 0.12875 0.72911 0.95539 0.0
C188 C 0.13841 0.73207 0.97762 0.0
C189 C 0.11656 0.70023 0.9917 0.0
C190 C 0.10666 0.69671 0.97007 0.0
H191 H 0.15061 0.74594 0.98043 0.0
H192 H 0.11145 0.68923 0.00602 0.0
H193 H 0.17729 0.70111 0.99212 0.0
H194 H 0.17267 0.63618 0.02498 0.0
H195 H 0.07231 0.77281 0.03023 0.0
H196 H 0.13382 0.74067 0.94147 0.0
H197 H 0.09388 0.68305 0.96818 0.0
C198 C 0.9476 0.65537 0.25765 0.0
C199 C 0.92732 0.64678 0.26695 0.0
N200 N 0.92821 0.62343 0.2662 0.0
N201 N 0.96127 0.63753 0.25114 0.0
C202 C 0.94879 0.61831 0.25622 0.0
H203 H 0.95272 0.67341 0.25708 0.0
Co204 Co 0.99263 0.6404 0.24311 0.0
C205 C 0.00886 0.59227 0.25718 0.0
O206 O 0.02456 0.59992 0.27178 0.0
N207 N 0.02464 0.64383 0.23477 0.0
C208 C 0.06309 0.64851 0.23612 0.0
C209 C 0.04357 0.64266 0.24858 0.0
C210 C 0.03342 0.65037 0.2139 0.0
N211 N 0.05672 0.65348 0.21421 0.0
O212 O 0.98425 0.63699 0.21115 0.0
H213 H 0.04334 0.63889 0.26693 0.0
H214 H 0.02292 0.6531 0.19869 0.0
O215 O 0.99646 0.60664 0.24569 0.0
C216 C 0.97757 0.65653 0.20315 0.0
O217 O 0.97888 0.67477 0.21678 0.0
N218 N 0.99905 0.64633 0.27447 0.0
C219 C 0.98987 0.66799 0.31676 0.0
C220 C 0.98555 0.64419 0.31384 0.0
C221 C 0.9903 0.63361 0.2925 0.0
C222 C 0.005 0.669 0.27766 0.0
C223 C 1.00087 0.68008 0.29874 0.0
H224 H 0.98434 0.61607 0.28977 0.0
H225 H 0.01066 0.67926 0.26299 0.0
H226 H 0.95536 0.60084 0.25444 0.0
H227 H 0.91344 0.65695 0.27448 0.0
H228 H 0.08047 0.64986 0.24308 0.0
H229 H 0.97701 0.63425 0.32733 0.0
H230 H 0.00411 0.69855 0.30003 0.0
C231 C 0.89679 0.81158 0.00522 0.0
C232 C 0.88612 0.83047 0.99509 0.0
N233 N 0.86298 0.82752 0.99666 0.0
N234 N 0.8804 0.79679 0.01307 0.0
C235 C 0.86003 0.80735 0.00812 0.0
H236 H 0.91524 0.80811 0.00547 0.0
Co237 Co 0.8849 0.7665 0.02455 0.0
C238 C 0.84011 0.74971 0.00256 0.0
O239 O 0.85061 0.73924 0.98528 0.0
N240 N 0.88898 0.7366 0.03694 0.0
C241 C 0.8877 0.69888 0.04498 0.0
C242 C 0.87913 0.71619 0.03098 0.0
C243 C 0.90344 0.73119 0.0546 0.0
N244 N 0.90301 0.70834 0.05988 0.0
O245 O 0.87748 0.77737 0.05532 0.0
H246 H 0.86671 0.71375 0.01724 0.0
H247 H 0.91443 0.74379 0.06312 0.0
O248 O 0.85195 0.75957 0.01855 0.0
C249 C 0.89446 0.78892 0.06368 0.0
O250 O 0.91297 0.79214 0.05076 0.0
N251 N 0.89537 0.75653 0.99439 0.0
C252 C 0.92431 0.75463 0.95505 0.0
C253 C 0.90334 0.76716 0.95466 0.0
C254 C 0.88889 0.7674 0.97425 0.0
C255 C 0.91459 0.74263 0.99417 0.0
C256 C 0.92847 0.74057 0.9745 0.0
H257 H 0.87352 0.7781 0.97372 0.0
H258 H 0.92079 0.73438 0.00974 0.0
H259 H 0.84318 0.79999 0.01183 0.0
H260 H 0.8947 0.84441 0.98587 0.0
H261 H 0.88273 0.68078 0.04441 0.0
H262 H 0.89871 0.77816 0.9402 0.0
H263 H 0.94344 0.7293 0.97551 0.0
C264 C 0.2732 0.06664 0.15442 0.0
C265 C 0.26641 0.08891 0.14906 0.0
N266 N 0.26168 0.08974 0.12622 0.0
N267 N 0.27298 0.05361 0.13499 0.0
C268 C 0.26591 0.06825 0.11805 0.0
H269 H 0.27768 0.06024 0.17147 0.0
Co270 Co 0.28034 0.02209 0.13399 0.0
C271 C 0.26066 0.0099 0.0873 0.0
O272 O 0.24799 0.99326 0.09643 0.0
N273 N 0.28884 0.99014 0.13355 0.0
C274 C 0.30472 0.95667 0.12238 0.0
C275 C 0.29451 0.97686 0.11505 0.0
C276 C 0.29657 0.9776 0.15195 0.0
N277 N 0.30639 0.95722 0.14564 0.0
O278 O 0.31223 0.03025 0.12887 0.0
H279 H 0.2937 0.98208 0.09713 0.0
H280 H 0.29705 0.98424 0.16947 0.0
O281 O 0.27431 0.02177 0.10023 0.0
C282 C 0.32228 0.03193 0.14853 0.0
O283 O 0.31026 0.02679 0.16722 0.0
N284 N 0.24914 0.01535 0.1417 0.0
C285 C 0.20707 0.02173 0.16511 0.0
C286 C 0.20955 0.02863 0.14192 0.0
C287 C 0.23077 0.0256 0.13064 0.0
C288 C 0.24635 0.00689 0.16363 0.0
C289 C 0.22542 0.00969 0.17557 0.0
H290 H 0.23292 0.03378 0.11396 0.0
H291 H 0.26108 1.00037 0.17308 0.0
H292 H 0.2637 0.06336 0.10007 0.0
H293 H 0.26453 0.10322 0.16108 0.0
H294 H 0.31182 0.94337 0.11118 0.0
H295 H 0.1958 0.03796 0.13312 0.0
H296 H 0.22449 0.00448 0.19361 0.0
C297 C 0.30588 0.51668 0.09182 0.0
C298 C 0.32486 0.52983 0.09774 0.0
N299 N 0.32545 0.53181 0.12101 0.0
N300 N 0.29443 0.51038 0.11123 0.0
C301 C 0.30714 0.51943 0.12881 0.0
H302 H 0.29958 0.5139 0.07438 0.0
Co303 Co 0.26368 0.49984 0.11086 0.0
C304 C 0.24932 0.50865 0.16006 0.0
O305 O 0.23118 0.52055 0.15316 0.0
N306 N 0.23203 0.48903 0.1098 0.0
C307 C 0.19342 0.48712 0.10612 0.0
C308 C 0.21204 0.50135 0.11076 0.0
C309 C 0.22469 0.46721 0.10484 0.0
N310 N 0.20142 0.46555 0.10214 0.0
O311 O 0.27487 0.46829 0.11035 0.0
H312 H 0.21083 0.51982 0.11371 0.0
H313 H 0.23619 0.45278 0.10227 0.0
O314 O 0.26302 0.49968 0.14506 0.0
C315 C 0.27737 0.46282 0.08901 0.0
O316 O 0.27201 0.47843 0.07327 0.0
N317 N 0.25426 0.53095 0.10805 0.0
C318 C 0.25933 0.57511 0.0891 0.0
C319 C 0.26454 0.57105 0.11254 0.0
C320 C 0.26172 0.54879 0.1218 0.0
C321 C 0.24722 0.53518 0.08585 0.0
C322 C 0.24924 0.55724 0.07614 0.0
H323 H 0.26828 0.54551 0.13901 0.0
H324 H 0.24244 0.52081 0.07476 0.0
H325 H 0.30165 0.51938 0.14677 0.0
H326 H 0.33634 0.53867 0.08577 0.0
H327 H 0.17548 0.49255 0.10518 0.0
H328 H 0.27255 0.58444 0.12301 0.0
H329 H 0.2454 0.55955 0.05789 0.0
C330 C 0.74746 0.4259 0.13245 0.0
C331 C 0.75907 0.40855 0.121 0.0
N332 N 0.75966 0.41384 0.09825 0.0
N333 N 0.74054 0.44209 0.11706 0.0
C334 C 0.7481 0.43414 0.09629 0.0
H335 H 0.7454 0.42725 0.15103 0.0
Co336 Co 0.72836 0.47074 0.12626 0.0
C337 C 0.73284 0.501 0.08424 0.0
O338 O 0.73881 0.51841 0.09758 0.0
N339 N 0.71576 0.49982 0.13705 0.0
C340 C 0.71163 0.53475 0.1537 0.0
C341 C 0.72703 0.51936 0.14383 0.0
C342 C 0.69346 0.50398 0.14349 0.0
N343 N 0.69055 0.52488 0.15367 0.0
O344 O 0.69754 0.45814 0.12309 0.0
H345 H 0.74553 0.52218 0.14251 0.0
H346 H 0.67949 0.49167 0.14179 0.0
O347 O 0.72815 0.4813 0.09338 0.0
C348 C 0.69225 0.44722 0.14163 0.0
O349 O 0.70677 0.44768 0.15917 0.0
N350 N 0.75888 0.48065 0.13139 0.0
C351 C 0.80436 0.47176 0.14515 0.0
C352 C 0.79903 0.47548 0.12166 0.0
C353 C 0.77608 0.47985 0.11507 0.0
C354 C 0.76418 0.47951 0.1544 0.0
C355 C 0.78687 0.4753 0.16169 0.0
H356 H 0.77198 0.4795 0.09682 0.0
H357 H 0.75031 0.47909 0.16706 0.0
H358 H 0.74665 0.44374 0.08031 0.0
H359 H 0.76707 0.39355 0.12898 0.0
H360 H 0.71588 0.55118 0.16176 0.0
H361 H 0.81206 0.47292 0.10834 0.0
H362 H 0.79005 0.47225 0.17996 0.0
C363 C 0.68768 1.00202 0.09985 0.0
C364 C 0.66852 0.9885 0.10433 0.0
N365 N 0.66556 0.98736 0.12748 0.0
N366 N 0.69709 0.00894 0.12011 0.0
C367 C 0.68273 1.00037 0.13665 0.0
H368 H 0.69574 0.00448 0.08308 0.0
Co369 Co 0.72746 0.02039 0.12228 0.0
C370 C 0.73434 0.00267 0.17195 0.0
O371 O 0.74634 0.98418 0.1662 0.0
N372 N 0.75799 0.03258 0.12394 0.0
C373 C 0.79481 0.03999 0.13306 0.0
C374 C 0.77556 0.02689 0.13833 0.0
C375 C 0.76722 0.04904 0.1099 0.0
N376 N 0.78963 0.05402 0.11507 0.0
O377 O 0.71492 0.0511 0.12591 0.0
H378 H 0.77484 0.01387 0.1517 0.0
H379 H 0.75778 0.05685 0.09578 0.0
O380 O 0.72709 0.01668 0.1563 0.0
C381 C 0.71042 0.06067 0.10647 0.0
O382 O 0.71524 0.04945 0.08724 0.0
N383 N 0.73904 0.98995 0.11594 0.0
C384 C 0.73929 0.95026 0.08777 0.0
C385 C 0.72723 0.95047 0.10897 0.0
C386 C 0.72772 0.97028 0.123 0.0
C387 C 0.75322 0.98892 0.09699 0.0
C388 C 0.75415 0.96906 0.08314 0.0
H389 H 0.71647 0.97056 0.13794 0.0
H390 H 0.76192 0.0043 0.09078 0.0
H391 H 0.68647 1.0009 0.15502 0.0
H392 H 0.65882 0.97852 0.09171 0.0
H393 H 0.81125 0.03923 0.14205 0.0
H394 H 0.7156 0.93655 0.1138 0.0
H395 H 0.76487 0.96948 0.06772 0.0
C396 C 0.27859 0.92058 0.36008 0.0
C397 C 0.2716 0.8993 0.36837 0.0
N398 N 0.26051 0.90272 0.38862 0.0
N399 N 0.27236 0.93727 0.37529 0.0
C400 C 0.26107 0.92577 0.39232 0.0
H401 H 0.28759 0.92356 0.34391 0.0
Co402 Co 0.27814 0.96908 0.37262 0.0
C403 C 0.2819 0.98414 0.42224 0.0
O404 O 0.30063 0.99649 0.41813 0.0
N405 N 0.28394 1.00127 0.36942 0.0
C406 C 0.28126 0.03988 0.37028 0.0
C407 C 0.2708 0.01927 0.37668 0.0
C408 C 0.30215 0.01147 0.35865 0.0
N409 N 0.30106 0.0349 0.35882 0.0
O410 O 0.31051 0.96295 0.37818 0.0
H411 H 0.25461 0.01755 0.38604 0.0
H412 H 0.3163 1.00202 0.35107 0.0
O413 O 0.27229 0.97295 0.40573 0.0
C414 C 0.32124 0.95844 0.35934 0.0
O415 O 0.31024 0.96089 0.33952 0.0
N416 N 0.24683 0.97338 0.36533 0.0
C417 C 0.20304 0.96045 0.34961 0.0
C418 C 0.20671 0.96561 0.37313 0.0
C419 C 0.22881 0.97215 0.38071 0.0
C420 C 0.243 0.97101 0.34215 0.0
C421 C 0.22115 0.96458 0.33385 0.0
H422 H 0.23162 0.97408 0.3991 0.0
H423 H 0.25755 0.97165 0.3303 0.0
H424 H 0.25355 0.93395 0.40733 0.0
H425 H 0.27425 0.88265 0.36009 0.0
H426 H 0.27462 0.05711 0.37364 0.0
H427 H 0.19306 0.96296 0.3858 0.0
H428 H 0.21915 0.96068 0.31558 0.0
C429 C 0.18275 0.47265 0.85916 0.0
C430 C 0.16611 0.48402 0.84623 0.0
N431 N 0.17646 0.50164 0.83488 0.0
N432 N 0.20347 0.48303 0.85579 0.0
C433 C 0.19902 0.50053 0.84084 0.0
H434 H 0.17974 0.45816 0.87068 0.0
Co435 Co 0.23229 0.47662 0.86916 0.0
C436 C 0.26577 0.48135 0.82899 0.0
O437 O 0.28393 0.48253 0.8427 0.0
N438 N 0.26175 0.47016 0.88291 0.0
C439 C 0.29284 0.47179 0.90591 0.0
C440 C 0.27372 0.48359 0.89801 0.0
C441 C 0.27415 0.45015 0.88212 0.0
N442 N 0.29304 0.45066 0.89606 0.0
O443 O 0.22649 0.44373 0.8658 0.0
H444 H 0.2686 0.5006 0.90394 0.0
H445 H 0.26916 0.43522 0.87192 0.0
O446 O 0.24552 0.47901 0.83774 0.0
C447 C 0.2207 0.43635 0.88594 0.0
O448 O 0.22034 0.45132 0.90315 0.0
N449 N 0.23579 0.50822 0.87551 0.0
C450 C 0.23617 0.55201 0.89601 0.0
C451 C 0.24862 0.54789 0.87539 0.0
C452 C 0.24834 0.52561 0.86537 0.0
C453 C 0.22303 0.51232 0.89495 0.0
C454 C 0.22301 0.53394 0.90548 0.0
H455 H 0.25829 0.52243 0.84985 0.0
H456 H 0.21308 0.49837 0.9026 0.0
H457 H 0.21206 0.51255 0.83467 0.0
H458 H 0.14769 0.48028 0.84602 0.0
H459 H 0.30488 0.47784 0.919 0.0
H460 H 0.25879 0.56155 0.86744 0.0
H461 H 0.21263 0.53648 0.92096 0.0
C462 C 0.72715 0.58497 0.36697 0.0
C463 C 0.73171 0.60509 0.37893 0.0
N464 N 0.74053 0.59929 0.39974 0.0
N465 N 0.73273 0.56659 0.38034 0.0
C466 C 0.74107 0.57593 0.40018 0.0
H467 H 0.72016 0.58386 0.34961 0.0
Co468 Co 0.72858 0.53577 0.37174 0.0
C469 C 0.74232 0.50854 0.41324 0.0
O470 O 0.75303 0.49384 0.39955 0.0
N471 N 0.72377 0.50396 0.36223 0.0
C472 C 0.72727 0.46882 0.34597 0.0
C473 C 0.73892 0.48843 0.35306 0.0
C474 C 0.70305 0.4928 0.36076 0.0
N475 N 0.70463 0.4718 0.35055 0.0
O476 O 0.69564 0.53996 0.37535 0.0
H477 H 0.75739 0.491 0.35119 0.0
H478 H 0.68673 0.49994 0.36658 0.0
O479 O 0.73196 0.52613 0.40454 0.0
C480 C 0.68741 0.54467 0.3553 0.0
O481 O 0.70171 0.54429 0.33752 0.0
N482 N 0.76039 0.53408 0.36539 0.0
C483 C 0.80462 0.5418 0.34739 0.0
C484 C 0.80103 0.54133 0.37148 0.0
C485 C 0.77861 0.53737 0.38022 0.0
C486 C 0.76369 0.5351 0.342 0.0
C487 C 0.7857 0.5383 0.33264 0.0
H488 H 0.77582 0.53831 0.39872 0.0
H489 H 0.74891 0.5339 0.33051 0.0
H490 H 0.7472 0.56595 0.41482 0.0
H491 H 0.72906 0.62263 0.37275 0.0
H492 H 0.73473 0.45406 0.33706 0.0
H493 H 0.81525 0.54456 0.38333 0.0
H494 H 0.7877 0.53922 0.31397 0.0
C495 C 0.81487 0.99729 0.90678 0.0
C496 C 0.83421 0.98516 0.8998 0.0
N497 N 0.83419 0.98395 0.87643 0.0
N498 N 0.80263 0.0038 0.88797 0.0
C499 C 0.815 0.99569 0.86973 0.0
H500 H 0.80917 0.99963 0.9245 0.0
Co501 Co 0.77215 0.01487 0.88936 0.0
C502 C 0.76329 0.02488 0.83966 0.0
O503 O 0.75761 0.04635 0.84481 0.0
N504 N 0.74145 0.02558 0.89141 0.0
C505 C 0.70362 0.03129 0.88598 0.0
C506 C 0.72305 0.01978 0.8781 0.0
C507 C 0.73262 0.04002 0.90767 0.0
N508 N 0.70971 0.04388 0.90466 0.0
O509 O 0.78337 0.04612 0.88588 0.0
H510 H 0.72359 0.00774 0.86373 0.0
H511 H 0.74275 0.04768 0.92146 0.0
O512 O 0.76903 0.01087 0.85582 0.0
C513 C 0.78949 0.05402 0.90563 0.0
O514 O 0.78683 0.04059 0.92387 0.0
N515 N 0.7623 0.98475 0.89518 0.0
C516 C 0.76755 0.94117 0.91476 0.0
C517 C 0.76908 0.94398 0.89064 0.0
C518 C 0.76644 0.96616 0.88106 0.0
C519 C 0.7581 0.98175 0.91823 0.0
C520 C 0.76076 0.96003 0.92844 0.0
H521 H 0.77042 0.96866 0.86292 0.0
H522 H 0.75556 0.99676 0.9292 0.0
H523 H 0.80943 0.9973 0.85193 0.0
H524 H 0.84637 0.97653 0.9112 0.0
H525 H 0.68628 0.03014 0.87884 0.0
H526 H 0.77461 0.92975 0.87967 0.0
H527 H 0.75962 0.95842 0.94714 0.0
C528 C 0.15363 0.26855 0.07347 0.0
C529 C 0.14481 0.26255 0.09484 0.0
N530 N 0.12198 0.25842 0.09235 0.0
N531 N 0.13633 0.26854 0.05767 0.0
C532 C 0.1172 0.26223 0.0698 0.0
H533 H 0.17164 0.27207 0.06958 0.0
Co534 Co 0.1401 0.27443 0.02587 0.0
C535 C 0.0946 0.25235 0.01061 0.0
O536 O 0.10458 0.23547 0.99906 0.0
N537 N 0.14422 0.28082 0.99354 0.0
C538 C 0.14894 0.27715 0.95525 0.0
C539 C 0.14239 0.26608 0.97537 0.0
C540 C 0.15206 0.30077 0.98375 0.0
N541 N 0.15515 0.29903 0.96053 0.0
O542 O 0.13305 0.30657 0.03173 0.0
H543 H 0.13803 0.24794 0.97661 0.0
H544 H 0.15582 0.31631 0.99343 0.0
O545 O 0.10697 0.26776 0.02076 0.0
C546 C 0.15191 0.31601 0.03857 0.0
O547 O 0.17104 0.30361 0.03758 0.0
N548 N 0.15008 0.24353 0.02203 0.0
C549 C 0.17824 0.20645 0.0352 0.0
C550 C 0.15431 0.20597 0.03976 0.0
C551 C 0.14046 0.22483 0.03309 0.0
C552 C 0.17282 0.24299 0.01545 0.0
C553 C 0.1871 0.2245 0.02156 0.0
H554 H 0.12282 0.22556 0.03939 0.0
H555 H 0.18073 0.25822 0.00786 0.0
H556 H 0.10012 0.26001 0.06235 0.0
H557 H 0.15451 0.26057 0.1108 0.0
H558 H 0.15012 0.26927 0.93825 0.0
H559 H 0.14687 0.19247 0.05052 0.0
H560 H 0.20547 0.22547 0.01764 0.0
C561 C 0.14934 0.74696 0.43854 0.0
C562 C 0.14374 0.75926 0.41892 0.0
N563 N 0.12047 0.76126 0.41787 0.0
N564 N 0.12973 0.74133 0.45 0.0
C565 C 0.11233 0.74976 0.4366 0.0
H566 H 0.16669 0.74431 0.44518 0.0
Co567 Co 0.12994 0.73069 0.48084 0.0
C568 C 0.08183 0.74973 0.49173 0.0
O569 O 0.08951 0.76752 0.50371 0.0
N570 N 0.13073 0.71924 0.51171 0.0
C571 C 0.12452 0.71081 0.54895 0.0
C572 C 0.11702 0.72362 0.53021 0.0
C573 C 0.14651 0.70382 0.51984 0.0
N574 N 0.14313 0.69828 0.54239 0.0
O575 O 0.1254 0.69956 0.46968 0.0
H576 H 0.10242 0.73526 0.53043 0.0
H577 H 0.16062 0.69713 0.50952 0.0
O578 O 0.09606 0.73503 0.48302 0.0
C579 C 0.14519 0.69128 0.46412 0.0
O580 O 0.16356 0.70452 0.46689 0.0
N581 N 0.13757 0.76122 0.49092 0.0
C582 C 0.16754 0.79877 0.48492 0.0
C583 C 0.14488 0.79955 0.47606 0.0
C584 C 0.12999 0.78068 0.47955 0.0
C585 C 0.15817 0.76191 0.5026 0.0
C586 C 0.1732 0.78071 0.5002 0.0
H587 H 0.11382 0.78055 0.47015 0.0
H588 H 0.16475 0.74666 0.5112 0.0
H589 H 0.09429 0.74999 0.44181 0.0
H590 H 0.15589 0.76771 0.40734 0.0
H591 H 0.11654 0.71051 0.56594 0.0
H592 H 0.13955 0.81317 0.46428 0.0
H593 H 0.19024 0.77974 0.50808 0.0
C594 C 0.98409 0.62144 0.82564 0.0
C595 C 0.99551 0.63172 0.8439 0.0
N596 N 0.00729 0.65018 0.83573 0.0
N597 N 0.98874 0.63333 0.80603 0.0
C598 C 0.00285 0.65084 0.81278 0.0
H599 H 0.97423 0.60551 0.82642 0.0
Co600 Co 0.98194 0.62362 0.77599 0.0
C601 C 0.98716 0.66603 0.74619 0.0
O602 O 0.99067 0.65312 0.72776 0.0
N603 N 0.97503 0.61311 0.74534 0.0
C604 C 0.97666 0.5951 0.7111 0.0
C605 C 0.9887 0.60055 0.73093 0.0
C606 C 0.95466 0.6149 0.73366 0.0
N607 N 0.95517 0.60402 0.71287 0.0
O608 O 0.94915 0.62571 0.78291 0.0
H609 H 0.00625 0.59508 0.7345 0.0
H610 H 0.93956 0.62384 0.74035 0.0
O611 O 0.98347 0.6564 0.76585 0.0
C612 C 0.94262 0.60506 0.78787 0.0
O613 O 0.95798 0.58831 0.78589 0.0
N614 N 0.01357 0.61845 0.77145 0.0
C615 C 0.0587 0.6009 0.77268 0.0
C616 C 0.05434 0.62343 0.76424 0.0
C617 C 0.03148 0.63201 0.76384 0.0
C618 C 0.01766 0.5968 0.77988 0.0
C619 C 0.03989 0.58771 0.78063 0.0
H620 H 0.02846 0.64953 0.75802 0.0
H621 H 0.00337 0.58657 0.78643 0.0
H622 H 0.01125 0.6627 0.8009 0.0
H623 H 0.99595 0.62554 0.86164 0.0
H624 H 0.98294 0.58446 0.69696 0.0
H625 H 0.06842 0.63434 0.75825 0.0
H626 H 0.04229 0.57066 0.78815 0.0
C627 C 0.85505 0.75925 0.44098 0.0
C628 C 0.86544 0.75036 0.42131 0.0
N629 N 0.8886 0.75322 0.42324 0.0
N630 N 0.87162 0.76731 0.45542 0.0
C631 C 0.89174 0.76396 0.4438 0.0
H632 H 0.83674 0.7586 0.44513 0.0
Co633 Co 0.86804 0.77729 0.48636 0.0
C634 C 0.91167 0.75331 0.50231 0.0
O635 O 0.8999 0.73842 0.51494 0.0
N636 N 0.86456 0.7884 0.51726 0.0
C637 C 0.86899 0.79799 0.55446 0.0
C638 C 0.87768 0.78506 0.5364 0.0
C639 C 0.84806 0.80365 0.52431 0.0
N640 N 0.85032 0.80976 0.54684 0.0
O641 O 0.87533 0.80833 0.47658 0.0
H642 H 0.89312 0.77466 0.53746 0.0
H643 H 0.8345 0.81011 0.51312 0.0
O644 O 0.90121 0.76994 0.49192 0.0
C645 C 0.85603 0.81658 0.4694 0.0
O646 O 0.83773 0.80294 0.46972 0.0
N647 N 0.85747 0.74698 0.49483 0.0
C648 C 0.82831 0.70818 0.49212 0.0
C649 C 0.8504 0.70787 0.48181 0.0
C650 C 0.86482 0.72735 0.48358 0.0
C651 C 0.83713 0.74644 0.50701 0.0
C652 C 0.82271 0.72704 0.50643 0.0
H653 H 0.88082 0.72742 0.47379 0.0
H654 H 0.83052 0.76179 0.51535 0.0
H655 H 0.90863 0.76794 0.45088 0.0
H656 H 0.85667 0.74178 0.4071 0.0
H657 H 0.87649 0.79931 0.57161 0.0
H658 H 0.85571 0.69377 0.47059 0.0
H659 H 0.80622 0.72782 0.51543 0.0
C660 C 0.51383 0.39946 0.32429 0.0
C661 C 0.50102 0.3931 0.34342 0.0
N662 N 0.49278 0.37154 0.33987 0.0
N663 N 0.51343 0.38207 0.30866 0.0
C664 C 0.50075 0.36512 0.31885 0.0
H665 H 0.52101 0.41649 0.32107 0.0
Co666 Co 0.52086 0.3858 0.27744 0.0
C667 C 0.51646 0.338 0.25709 0.0
O668 O 0.51094 0.34608 0.23651 0.0
N669 N 0.52848 0.3904 0.24571 0.0
C670 C 0.52996 0.40593 0.21028 0.0
C671 C 0.51647 0.40266 0.22968 0.0
C672 C 0.54911 0.38603 0.23523 0.0
N673 N 0.55054 0.39557 0.21386 0.0
O674 O 0.55323 0.38528 0.28535 0.0
H675 H 0.49939 0.40993 0.23208 0.0
H676 H 0.56346 0.37736 0.24367 0.0
O677 O 0.52076 0.35209 0.27367 0.0
C678 C 0.56124 0.40579 0.28764 0.0
O679 O 0.54744 0.42333 0.28292 0.0
N680 N 0.489 0.38875 0.27149 0.0
C681 C 0.44338 0.4005 0.28254 0.0
C682 C 0.44931 0.37747 0.27721 0.0
C683 C 0.47232 0.37188 0.27174 0.0
C684 C 0.48308 0.41141 0.2747 0.0
C685 C 0.46039 0.41771 0.28002 0.0
H686 H 0.47676 0.35381 0.27027 0.0
H687 H 0.49659 0.42444 0.27532 0.0
H688 H 0.49522 0.34948 0.31007 0.0
H689 H 0.49665 0.40409 0.35801 0.0
H690 H 0.52533 0.41591 0.19506 0.0
H691 H 0.43667 0.36366 0.27895 0.0
H692 H 0.45682 0.43564 0.28437 0.0
C693 C 0.37409 0.73382 0.5723 0.0
C694 C 0.38712 0.74308 0.59009 0.0
N695 N 0.406 0.75332 0.58081 0.0
N696 N 0.38484 0.73803 0.55196 0.0
C697 C 0.40417 0.74991 0.55776 0.0
H698 H 0.35747 0.72528 0.57403 0.0
Co699 Co 0.37356 0.7313 0.5225 0.0
C700 C 0.41357 0.74079 0.49009 0.0
O701 O 0.39945 0.74505 0.47277 0.0
N702 N 0.3613 0.72424 0.49233 0.0
C703 C 0.34321 0.72657 0.45805 0.0
C704 C 0.35092 0.7388 0.47701 0.0
C705 C 0.35944 0.70316 0.48198 0.0
N706 N 0.3484 0.70411 0.46132 0.0
O707 O 0.37929 0.699 0.52858 0.0
H708 H 0.34895 0.7573 0.47916 0.0
H709 H 0.36582 0.68717 0.48938 0.0
O710 O 0.40529 0.73519 0.50991 0.0
C711 C 0.36094 0.68908 0.53603 0.0
O712 O 0.34138 0.70077 0.53612 0.0
N713 N 0.36596 0.76268 0.51929 0.0
C714 C 0.34976 0.80677 0.5309 0.0
C715 C 0.37285 0.80351 0.52368 0.0
C716 C 0.38066 0.78122 0.5178 0.0
C717 C 0.34326 0.76578 0.52511 0.0
C718 C 0.3347 0.78769 0.53062 0.0
H719 H 0.39884 0.77879 0.51402 0.0
H720 H 0.33209 0.7508 0.52697 0.0
H721 H 0.41637 0.75664 0.54528 0.0
H722 H 0.38247 0.74319 0.60829 0.0
H723 H 0.3337 0.73352 0.44341 0.0
H724 H 0.38505 0.81782 0.52382 0.0
H725 H 0.31691 0.78926 0.5365 0.0
C726 C 0.97823 0.39683 0.68227 0.0
C727 C 0.9825 0.38765 0.66064 0.0
N728 N 0.99341 0.36716 0.6634 0.0
N729 N 0.98616 0.38206 0.69856 0.0
C730 C 0.99543 0.36418 0.68651 0.0
H731 H 0.96991 0.41325 0.68589 0.0
Co732 Co 0.98435 0.38669 0.73041 0.0
C733 C 0.99216 0.33966 0.75057 0.0
O734 O 0.00355 0.34848 0.76823 0.0
N735 N 0.98221 0.39186 0.76314 0.0
C736 C 0.9869 0.40729 0.7983 0.0
C737 C 0.99745 0.40251 0.77745 0.0
C738 C 0.96283 0.3896 0.7763 0.0
N739 N 0.96484 0.39957 0.7975 0.0
O740 O 0.95103 0.38741 0.72771 0.0
H741 H 0.01481 0.40783 0.77291 0.0
H742 H 0.94705 0.3818 0.76992 0.0
O743 O 0.98388 0.35307 0.73498 0.0
C744 C 0.9434 0.40816 0.72891 0.0
O745 O 0.95808 0.42502 0.7334 0.0
N746 N 0.01675 0.38885 0.73108 0.0
C747 C 0.06216 0.40164 0.72003 0.0
C748 C 0.05625 0.37818 0.72316 0.0
C749 C 0.03331 0.37207 0.72851 0.0
C750 C 0.02238 0.41166 0.72856 0.0
C751 C 0.04495 0.41847 0.72342 0.0
H752 H 0.02884 0.35393 0.72877 0.0
H753 H 0.00884 0.42464 0.72952 0.0
H754 H 0.00325 0.34908 0.69446 0.0
H755 H 0.97822 0.39556 0.64415 0.0
H756 H 0.99456 0.41726 0.81223 0.0
H757 H 0.06896 0.36461 0.72034 0.0
H758 H 0.04841 0.4367 0.72048 0.0
C759 C 0.99762 0.10066 0.69007 0.0
C760 C 0.98375 0.10558 0.67131 0.0
N761 N 0.9822 0.12879 0.66926 0.0
N762 N 0.00464 0.12068 0.69995 0.0
C763 C 0.99532 0.13755 0.68654 0.0
H764 H 1.00047 0.08363 0.6974 0.0
Co765 Co 0.01623 0.12201 0.73018 0.0
C766 C 0.02476 0.17228 0.73693 0.0
O767 O 0.04588 0.16795 0.74437 0.0
N768 N 0.02755 0.12261 0.76068 0.0
C769 C 0.03271 0.12944 0.79834 0.0
C770 C 0.01944 0.1346 0.7791 0.0
C771 C 0.04539 0.11006 0.76922 0.0
N772 N 0.04912 0.11402 0.79202 0.0
O773 O 0.04728 0.12536 0.7181 0.0
H774 H 0.00483 0.14638 0.77856 0.0
H775 H 0.05527 0.09783 0.75905 0.0
O776 O 0.01159 0.15553 0.7309 0.0
C777 C 0.05551 0.10542 0.71309 0.0
O778 O 0.04245 0.08712 0.717 0.0
N779 N 0.9862 0.11653 0.74105 0.0
C780 C 0.94251 0.0963 0.73861 0.0
C781 C 0.94545 0.11995 0.73358 0.0
C782 C 0.96753 0.12989 0.73515 0.0
C783 C 0.98322 0.09428 0.74844 0.0
C784 C 0.96138 0.08382 0.74753 0.0
H785 H 0.9699 0.14741 0.72894 0.0
H786 H 0.99825 0.08378 0.75246 0.0
H787 H 0.99594 0.1558 0.69074 0.0
H788 H 0.97418 0.0931 0.66102 0.0
H789 H 0.03063 0.13677 0.8155 0.0
H790 H 0.93123 0.13014 0.72671 0.0
H791 H 0.95987 0.06549 0.75139 0.0
C792 C 0.57234 0.64394 0.75288 0.0
C793 C 0.59101 0.63369 0.74204 0.0
N794 N 0.58832 0.6105 0.74317 0.0
N795 N 0.55795 0.62729 0.76085 0.0
C796 C 0.56841 0.60709 0.75503 0.0
H797 H 0.56875 0.66234 0.7537 0.0
Co798 Co 0.52832 0.63252 0.77331 0.0
C799 C 0.5082 0.58698 0.75605 0.0
O800 O 0.49394 0.59702 0.74137 0.0
N801 N 0.49886 0.63827 0.78668 0.0
C802 C 0.46274 0.63718 0.80052 0.0
C803 C 0.4787 0.62629 0.78649 0.0
C804 C 0.49457 0.65634 0.80108 0.0
N805 N 0.47276 0.65612 0.8098 0.0
O806 O 0.54046 0.62654 0.80377 0.0
H807 H 0.47551 0.61031 0.77744 0.0
H808 H 0.50752 0.66915 0.80551 0.0
O809 O 0.52103 0.59929 0.76939 0.0
C810 C 0.55101 0.64436 0.81159 0.0
O811 O 0.55205 0.66315 0.79875 0.0
N812 N 0.51761 0.64088 0.74326 0.0
C813 C 0.51694 0.66374 0.70052 0.0
C814 C 0.52497 0.64089 0.70216 0.0
C815 C 0.52512 0.62974 0.72365 0.0
C816 C 0.50829 0.66262 0.74156 0.0
C817 C 0.50747 0.67424 0.72026 0.0
H818 H 0.53324 0.6129 0.72473 0.0
H819 H 0.50353 0.67207 0.757 0.0
H820 H 0.56109 0.59014 0.75836 0.0
H821 H 0.60469 0.64261 0.73273 0.0
H822 H 0.44515 0.63141 0.80371 0.0
H823 H 0.53262 0.63233 0.68727 0.0
H824 H 0.50157 0.69208 0.71972 0.0
C825 C 0.88451 0.17961 0.47966 0.0
C826 C 0.87441 0.1613 0.4912 0.0
N827 N 0.85536 0.16915 0.50219 0.0
N828 N 0.87204 0.19898 0.48369 0.0
C829 C 0.85424 0.19196 0.49728 0.0
H830 H 0.90107 0.17925 0.47084 0.0
Co831 Co 0.88256 0.22899 0.47821 0.0
C832 C 0.84145 0.26003 0.48454 0.0
O833 O 0.85506 0.27766 0.48927 0.0
N834 N 0.89411 0.25956 0.47251 0.0
C835 C 0.91336 0.29314 0.47495 0.0
C836 C 0.90622 0.27372 0.48686 0.0
C837 C 0.89406 0.27112 0.45202 0.0
N838 N 0.9059 0.29131 0.45295 0.0
O839 O 0.87995 0.22348 0.44537 0.0
H840 H 0.91027 0.27019 0.50479 0.0
H841 H 0.88592 0.26472 0.43638 0.0
O842 O 0.85024 0.24018 0.47993 0.0
C843 C 0.89997 0.21852 0.4372 0.0
O844 O 0.91783 0.21916 0.45137 0.0
N845 N 0.8875 0.23208 0.51011 0.0
C846 C 0.90008 0.2206 0.55531 0.0
C847 C 0.87779 0.22923 0.55049 0.0
C848 C 0.87181 0.23507 0.52765 0.0
C849 C 0.90952 0.22488 0.51476 0.0
C850 C 0.91628 0.21935 0.53723 0.0
H851 H 0.85413 0.23999 0.52404 0.0
H852 H 0.92148 0.222 0.50058 0.0
H853 H 0.84218 0.20367 0.50561 0.0
H854 H 0.88168 0.14409 0.49319 0.0
H855 H 0.92427 0.3069 0.48162 0.0
H856 H 0.86476 0.23026 0.56401 0.0
H857 H 0.9335 0.21234 0.54003 0.0
C858 C 0.44038 0.85963 0.7524 0.0
C859 C 0.42091 0.86582 0.74016 0.0
N860 N 0.4214 0.88891 0.73682 0.0
N861 N 0.45324 0.87871 0.75666 0.0
C862 C 0.44098 0.89641 0.74724 0.0
H863 H 0.44593 0.84206 0.75589 0.0
Co864 Co 0.48425 0.87693 0.76605 0.0
C865 C 0.50159 0.9231 0.74867 0.0
O866 O 0.51768 0.91329 0.73595 0.0
N867 N 0.51592 0.87423 0.77568 0.0
C868 C 0.55424 0.86819 0.77549 0.0
C869 C 0.53534 0.87439 0.76241 0.0
C870 C 0.52379 0.86764 0.79685 0.0
N871 N 0.54694 0.86373 0.79716 0.0
O872 O 0.47452 0.88245 0.79757 0.0
H873 H 0.53585 0.87678 0.74386 0.0
H874 H 0.51273 0.86482 0.81169 0.0
O875 O 0.48792 0.91069 0.76102 0.0
C876 C 0.46736 0.86332 0.80616 0.0
O877 O 0.46991 0.84437 0.79374 0.0
N878 N 0.49201 0.86881 0.73545 0.0
C879 C 0.49027 0.84587 0.69288 0.0
C880 C 0.48439 0.86945 0.69451 0.0
C881 C 0.48514 0.88057 0.71604 0.0
C882 C 0.49886 0.84622 0.7339 0.0
C883 C 0.49853 0.83455 0.71275 0.0
H884 H 0.47823 0.89792 0.71729 0.0
H885 H 0.50305 0.83669 0.74952 0.0
H886 H 0.44745 0.91396 0.74559 0.0
H887 H 0.40837 0.85405 0.73258 0.0
H888 H 0.57168 0.86547 0.76905 0.0
H889 H 0.47733 0.87871 0.67976 0.0
H890 H 0.50328 0.81637 0.71228 0.0
C891 C 0.09115 0.3171 0.4933 0.0
C892 C 0.09531 0.3383 0.50329 0.0
N893 N 0.11844 0.34102 0.50568 0.0
N894 N 0.1115 0.30635 0.48931 0.0
C895 C 0.12788 0.32141 0.49685 0.0
H896 H 0.07429 0.30937 0.49041 0.0
Co897 Co 0.11322 0.27539 0.48006 0.0
C898 C 0.16325 0.26728 0.47551 0.0
O899 O 0.15943 0.25912 0.45457 0.0
N900 N 0.11425 0.24407 0.47071 0.0
C901 C 0.11945 0.20585 0.46934 0.0
C902 C 0.12447 0.22592 0.48137 0.0
C903 C 0.10306 0.23457 0.45245 0.0
N904 N 0.10587 0.21129 0.45105 0.0
O905 O 0.1193 0.28558 0.44874 0.0
H906 H 0.13456 0.22715 0.49714 0.0
H907 H 0.09281 0.24459 0.44051 0.0
O908 O 0.14621 0.27447 0.48774 0.0
C909 C 0.10006 0.28998 0.43865 0.0
O910 O 0.08071 0.28624 0.45016 0.0
N911 N 0.10476 0.26654 0.51019 0.0
C912 C 0.07697 0.27348 0.54907 0.0
C913 C 0.10038 0.28046 0.54916 0.0
C914 C 0.11422 0.27642 0.52955 0.0
C915 C 0.08327 0.25678 0.51107 0.0
C916 C 0.06928 0.25956 0.5306 0.0
H917 H 0.13128 0.2842 0.52879 0.0
H918 H 0.07576 0.24929 0.4956 0.0
H919 H 0.14627 0.31769 0.49677 0.0
H920 H 0.08215 0.35015 0.50955 0.0
H921 H 0.12508 0.1886 0.47411 0.0
H922 H 0.10726 0.29109 0.56303 0.0
H923 H 0.05169 0.25293 0.5301 0.0
C924 C 0.56594 0.35124 0.74596 0.0
C925 C 0.58467 0.35818 0.75912 0.0
N926 N 0.5844 0.38153 0.76056 0.0
N927 N 0.55396 0.37012 0.73914 0.0
C928 C 0.56592 0.38828 0.74789 0.0
H929 H 0.56039 0.33354 0.74307 0.0
Co930 Co 0.52406 0.36967 0.72681 0.0
C931 C 0.51591 0.41999 0.72061 0.0
O932 O 0.51112 0.41676 0.69856 0.0
N933 N 0.49391 0.36887 0.71479 0.0
C934 C 0.45601 0.37402 0.70986 0.0
C935 C 0.47523 0.38087 0.72224 0.0
C936 C 0.48554 0.35457 0.69825 0.0
N937 N 0.46249 0.35737 0.69475 0.0
O938 O 0.53674 0.37575 0.69647 0.0
H939 H 0.47545 0.39352 0.73609 0.0
H940 H 0.49604 0.34179 0.68947 0.0
O941 O 0.52074 0.40262 0.73345 0.0
C942 C 0.54282 0.35702 0.68636 0.0
O943 O 0.53949 0.33715 0.69703 0.0
N944 N 0.51272 0.36151 0.75596 0.0
C945 C 0.51022 0.33877 0.79843 0.0
C946 C 0.51537 0.36257 0.79747 0.0
C947 C 0.51657 0.37372 0.77591 0.0
C948 C 0.50556 0.33902 0.75678 0.0
C949 C 0.50397 0.32736 0.77787 0.0
H950 H 0.52281 0.39138 0.77519 0.0
H951 H 0.50314 0.32946 0.74082 0.0
H952 H 0.56059 0.40613 0.74606 0.0
H953 H 0.59649 0.34683 0.76827 0.0
H954 H 0.43866 0.3809 0.7119 0.0
H955 H 0.5205 0.37194 0.81293 0.0
H956 H 0.49965 0.30907 0.77789 0.0
C957 C 0.642 0.17797 0.54697 0.0
C958 C 0.65621 0.15919 0.54323 0.0
N959 N 0.67271 0.16535 0.52784 0.0
N960 N 0.64958 0.196 0.53414 0.0
C961 C 0.6682 0.18771 0.52249 0.0
H962 H 0.62693 0.17833 0.55814 0.0
Co963 Co 0.63608 0.22531 0.53337 0.0
C964 C 0.67355 0.25751 0.51795 0.0
O965 O 0.65808 0.27206 0.50969 0.0
N966 N 0.62176 0.2552 0.5332 0.0
C967 C 0.5944 0.28241 0.53034 0.0
C968 C 0.60317 0.26234 0.52079 0.0
C969 C 0.62425 0.27176 0.54977 0.0
N970 N 0.60756 0.28818 0.54873 0.0
O971 O 0.63981 0.22746 0.56641 0.0
H972 H 0.59519 0.25286 0.50677 0.0
H973 H 0.63675 0.27066 0.56373 0.0
O974 O 0.66693 0.2387 0.52766 0.0
C975 C 0.61969 0.22368 0.57493 0.0
O976 O 0.60237 0.22009 0.56053 0.0
N977 N 0.62982 0.22086 0.50189 0.0
C978 C 0.61354 0.20416 0.45945 0.0
C979 C 0.63506 0.21564 0.46086 0.0
C980 C 0.64308 0.2237 0.48243 0.0
C981 C 0.60902 0.20973 0.50068 0.0
C982 C 0.60042 0.20159 0.47974 0.0
H983 H 0.66017 0.23123 0.4834 0.0
H984 H 0.59906 0.20701 0.51635 0.0
H985 H 0.67823 0.19783 0.51027 0.0
H986 H 0.65413 0.14211 0.55078 0.0
H987 H 0.57868 0.29124 0.52507 0.0
H988 H 0.6459 0.21767 0.44564 0.0
H989 H 0.58356 0.19328 0.47954 0.0
C990 C 0.43698 0.15573 0.7482 0.0
C991 C 0.41698 0.14588 0.75697 0.0
N992 N 0.41854 0.12269 0.75447 0.0
N993 N 0.45109 0.13876 0.7404 0.0
C994 C 0.43891 0.11897 0.74361 0.0
H995 H 0.44189 0.1738 0.74947 0.0
Co996 Co 0.4827 0.1418 0.73321 0.0
C997 C 0.49384 0.09299 0.75063 0.0
O998 O 0.50286 0.09981 0.77039 0.0
N999 N 0.51429 0.14488 0.7253 0.0
C1000 C 0.55261 0.14116 0.72242 0.0
C1001 C 0.53278 0.13228 0.73224 0.0
C1002 C 0.52345 0.16143 0.71142 0.0
N1003 N 0.54678 0.1596 0.70931 0.0
O1004 O 0.47492 0.1386 0.70085 0.0
H1005 H 0.53227 0.11768 0.74384 0.0
H1006 H 0.51318 0.17489 0.70342 0.0
O1007 O 0.4867 0.10786 0.73572 0.0
C1008 C 0.46814 0.15795 0.69241 0.0
O1009 O 0.46812 0.17624 0.70605 0.0
N1010 N 0.4894 0.1477 0.76518 0.0
C1011 C 0.48785 0.16941 0.80888 0.0
C1012 C 0.47543 0.14883 0.80454 0.0
C1013 C 0.47672 0.13814 0.78284 0.0
C1014 C 0.50281 0.16675 0.76959 0.0
C1015 C 0.50295 0.17726 0.79141 0.0
H1016 H 0.46596 0.12313 0.77987 0.0
H1017 H 0.51221 0.17524 0.75582 0.0
H1018 H 0.44561 0.10183 0.74005 0.0
H1019 H 0.40351 0.15486 0.76652 0.0
H1020 H 0.5699 0.13418 0.72458 0.0
H1021 H 0.46331 0.1417 0.81694 0.0
H1022 H 0.51379 0.19239 0.79382 0.0
C1023 C 0.38536 0.32058 0.50554 0.0
C1024 C 0.37483 0.33924 0.49493 0.0
N1025 N 0.35227 0.33406 0.49168 0.0
N1026 N 0.36949 0.30376 0.50911 0.0
C1027 C 0.34943 0.31268 0.50078 0.0
H1028 H 0.40374 0.31875 0.50886 0.0
Co1029 Co 0.37629 0.27311 0.51753 0.0
C1030 C 0.32979 0.25034 0.51008 0.0
O1031 O 0.33858 0.23282 0.49847 0.0
N1032 N 0.38379 0.2418 0.52622 0.0
C1033 C 0.39509 0.20467 0.5254 0.0
C1034 C 0.38684 0.22299 0.51245 0.0
C1035 C 0.3901 0.23404 0.54756 0.0
N1036 N 0.39739 0.21176 0.54751 0.0
O1037 O 0.37494 0.28206 0.54942 0.0
H1038 H 0.38403 0.22259 0.49392 0.0
H1039 H 0.38968 0.24443 0.56308 0.0
O1040 O 0.34314 0.26609 0.51809 0.0
C1041 C 0.39503 0.28852 0.55611 0.0
O1042 O 0.41235 0.28705 0.54133 0.0
N1043 N 0.37998 0.26645 0.48588 0.0
C1044 C 0.3949 0.27965 0.44182 0.0
C1045 C 0.37111 0.27741 0.44672 0.0
C1046 C 0.36394 0.27078 0.46895 0.0
C1047 C 0.40304 0.26599 0.48061 0.0
C1048 C 0.41089 0.27234 0.45862 0.0
H1049 H 0.34574 0.27215 0.47306 0.0
H1050 H 0.41558 0.26344 0.49434 0.0
H1051 H 0.33327 0.30318 0.49998 0.0
H1052 H 0.38348 0.35465 0.48854 0.0
H1053 H 0.4 0.18779 0.5188 0.0
H1054 H 0.35818 0.28279 0.43418 0.0
H1055 H 0.4294 0.27405 0.45578 0.0
C1056 C 0.75352 0.57259 0.64032 0.0
C1057 C 0.73952 0.59019 0.63252 0.0
N1058 N 0.73714 0.58808 0.60933 0.0
N1059 N 0.76004 0.55932 0.62223 0.0
C1060 C 0.74992 0.56926 0.60353 0.0
H1061 H 0.7576 0.56891 0.65825 0.0
Co1062 Co 0.77544 0.53109 0.62578 0.0
C1063 C 0.76377 0.50498 0.58329 0.0
O1064 O 0.75889 0.48736 0.59694 0.0
N1065 N 0.79195 0.50277 0.63003 0.0
C1066 C 0.82001 0.47663 0.62455 0.0
C1067 C 0.80636 0.49316 0.61417 0.0
C1068 C 0.79793 0.4921 0.65014 0.0
N1069 N 0.8149 0.47606 0.64732 0.0
O1070 O 0.80468 0.54604 0.62008 0.0
H1071 H 0.8085 0.49923 0.59656 0.0
H1072 H 0.79152 0.49728 0.66689 0.0
O1073 O 0.77081 0.52405 0.59229 0.0
C1074 C 0.81169 0.55214 0.64021 0.0
O1075 O 0.79827 0.54743 0.65806 0.0
N1076 N 0.74671 0.51802 0.63454 0.0
C1077 C 0.70383 0.52118 0.65686 0.0
C1078 C 0.70503 0.52086 0.63259 0.0
C1079 C 0.72675 0.51958 0.62168 0.0
C1080 C 0.74538 0.51647 0.6581 0.0
C1081 C 0.72416 0.5177 0.66957 0.0
H1082 H 0.72741 0.52302 0.60331 0.0
H1083 H 0.76082 0.5181 0.66843 0.0
H1084 H 0.75119 0.56238 0.58614 0.0
H1085 H 0.73081 0.6028 0.64336 0.0
H1086 H 0.83414 0.46741 0.61629 0.0
H1087 H 0.68969 0.52421 0.62225 0.0
H1088 H 0.72394 0.51844 0.68836 0.0
C1089 C 0.81182 0.00251 0.61355 0.0
C1090 C 0.83167 0.01079 0.62396 0.0
N1091 N 0.82828 0.01099 0.6471 0.0
N1092 N 0.79596 0.99757 0.63002 0.0
C1093 C 0.80664 0.00264 0.6503 0.0
H1094 H 0.80861 1.00154 0.5951 0.0
Co1095 Co 0.76475 0.99122 0.62407 0.0
C1096 C 0.74406 1.00048 0.67145 0.0
O1097 O 0.72781 0.01425 0.66341 0.0
N1098 N 0.73284 0.98474 0.61745 0.0
C1099 C 0.69518 0.98823 0.6087 0.0
C1100 C 0.71464 0.9996 0.61661 0.0
C1101 C 0.72366 0.96439 0.60998 0.0
N1102 N 0.70097 0.96607 0.60433 0.0
O1103 O 0.77173 0.95866 0.6251 0.0
H1104 H 0.7154 0.01789 0.62065 0.0
H1105 H 0.73333 0.94847 0.6084 0.0
O1106 O 0.75843 0.99094 0.6575 0.0
C1107 C 0.77831 0.9511 0.60534 0.0
O1108 O 0.77803 0.96546 0.58762 0.0
N1109 N 0.75997 0.02324 0.6207 0.0
C1110 C 0.77105 0.06797 0.60578 0.0
C1111 C 0.77114 0.06236 0.62952 0.0
C1112 C 0.76588 0.03976 0.63663 0.0
C1113 C 0.75775 0.02895 0.59787 0.0
C1114 C 0.76302 0.05123 0.59004 0.0
H1115 H 0.76906 0.03516 0.65449 0.0
H1116 H 0.75415 0.01547 0.5853 0.0
H1117 H 0.79816 0.00207 0.66703 0.0
H1118 H 0.84703 0.01702 0.61512 0.0
H1119 H 0.67837 0.99597 0.60545 0.0
H1120 H 0.77711 0.07475 0.64233 0.0
H1121 H 0.76305 0.05446 0.57153 0.0
C1122 C 0.23731 0.93209 0.64702 0.0
C1123 C 0.24988 0.91301 0.64003 0.0
N1124 N 0.25673 0.91645 0.61798 0.0
N1125 N 0.23658 0.94761 0.62954 0.0
C1126 C 0.24838 0.93744 0.61195 0.0
H1127 H 0.23098 0.93535 0.66437 0.0
Co1128 Co 0.22833 0.97856 0.63363 0.0
C1129 C 0.23514 0.99953 0.5862 0.0
O1130 O 0.24269 0.01926 0.59469 0.0
N1131 N 0.21999 0.01041 0.6387 0.0
C1132 C 0.22173 0.048 0.64834 0.0
C1133 C 0.2344 0.02861 0.64257 0.0
C1134 C 0.19856 0.01953 0.64231 0.0
N1135 N 0.19917 0.04217 0.64843 0.0
O1136 O 0.19621 0.96947 0.63166 0.0
H1137 H 0.25312 0.02802 0.64182 0.0
H1138 H 0.1826 0.00981 0.64099 0.0
O1139 O 0.22918 0.98311 0.59989 0.0
C1140 C 0.18674 0.96556 0.6513 0.0
O1141 O 0.19823 0.97061 0.67031 0.0
N1142 N 0.25997 0.98513 0.63774 0.0
C1143 C 0.30557 0.9762 0.65142 0.0
C1144 C 0.30012 0.97999 0.62796 0.0
C1145 C 0.27713 0.98405 0.62139 0.0
C1146 C 0.26534 0.984 0.66072 0.0
C1147 C 0.288 0.97951 0.66798 0.0
H1148 H 0.2732 0.98384 0.60316 0.0
H1149 H 0.25149 0.98419 0.67341 0.0
H1150 H 0.25294 0.94615 0.59596 0.0
H1151 H 0.2551 0.89855 0.65083 0.0
H1152 H 0.22867 0.06474 0.65326 0.0
H1153 H 0.31315 0.97799 0.61456 0.0
H1154 H 0.29111 0.97651 0.68625 0.0
C1155 C 0.18633 0.51769 0.61055 0.0
C1156 C 0.16729 0.50607 0.61903 0.0
N1157 N 0.17264 0.49767 0.64013 0.0
N1158 N 0.20374 0.51625 0.62609 0.0
C1159 C 0.1947 0.50427 0.64415 0.0
H1160 H 0.18816 0.52453 0.59318 0.0
Co1161 Co 0.2346 0.52198 0.61846 0.0
C1162 C 0.26175 0.50601 0.65897 0.0
O1163 O 0.27649 0.49665 0.64433 0.0
N1164 N 0.26629 0.52822 0.6099 0.0
C1165 C 0.30044 0.5275 0.59145 0.0
C1166 C 0.28102 0.51493 0.59721 0.0
C1167 C 0.2779 0.54861 0.61223 0.0
N1168 N 0.29841 0.54865 0.60091 0.0
O1169 O 0.22923 0.55452 0.62392 0.0
H1170 H 0.27791 0.49732 0.5917 0.0
H1171 H 0.27094 0.56379 0.62078 0.0
O1172 O 0.24389 0.51664 0.65114 0.0
C1173 C 0.22482 0.56333 0.60403 0.0
O1174 O 0.22707 0.54995 0.5857 0.0
N1175 N 0.23705 0.49059 0.60985 0.0
C1176 C 0.21631 0.45205 0.58942 0.0
C1177 C 0.22155 0.45198 0.61321 0.0
C1178 C 0.23221 0.47155 0.62319 0.0
C1179 C 0.2339 0.48981 0.58642 0.0
C1180 C 0.22399 0.47058 0.57582 0.0
H1181 H 0.23357 0.47238 0.64184 0.0
H1182 H 0.23665 0.50528 0.57618 0.0
H1183 H 0.20483 0.49795 0.65862 0.0
H1184 H 0.15156 0.50214 0.60953 0.0
H1185 H 0.31458 0.52185 0.58044 0.0
H1186 H 0.21531 0.43814 0.62429 0.0
H1187 H 0.21988 0.47137 0.55749 0.0
C1188 C 0.7817 0.41806 0.8822 0.0
C1189 C 0.77094 0.40029 0.89399 0.0
N1190 N 0.75631 0.4096 0.90969 0.0
N1191 N 0.77408 0.43857 0.8905 0.0
C1192 C 0.75876 0.43278 0.90736 0.0
H1193 H 0.79327 0.416 0.86758 0.0
Co1194 Co 0.77949 0.46806 0.87793 0.0
C1195 C 0.76886 0.50137 0.91671 0.0
O1196 O 0.7662 0.51864 0.90213 0.0
N1197 N 0.785 0.49816 0.86441 0.0
C1198 C 0.78066 0.53107 0.84431 0.0
C1199 C 0.76964 0.51175 0.85287 0.0
C1200 C 0.80537 0.50991 0.86235 0.0
N1201 N 0.8032 0.52985 0.85012 0.0
O1202 O 0.81228 0.46414 0.88349 0.0
H1203 H 0.75142 0.50808 0.85048 0.0
H1204 H 0.82168 0.50398 0.86946 0.0
O1205 O 0.77437 0.48129 0.90909 0.0
C1206 C 0.82007 0.45623 0.86428 0.0
O1207 O 0.80563 0.45495 0.84668 0.0
N1208 N 0.74817 0.46931 0.86993 0.0
C1209 C 0.70485 0.45813 0.85176 0.0
C1210 C 0.70669 0.46828 0.87388 0.0
C1211 C 0.72874 0.47373 0.8828 0.0
C1212 C 0.74642 0.46058 0.84807 0.0
C1213 C 0.72502 0.45511 0.83859 0.0
H1214 H 0.73011 0.48014 0.90033 0.0
H1215 H 0.76196 0.45704 0.8382 0.0
H1216 H 0.74877 0.44534 0.91705 0.0
H1217 H 0.77257 0.38198 0.89015 0.0
H1218 H 0.77283 0.54453 0.83382 0.0
H1219 H 0.69144 0.47084 0.88457 0.0
H1220 H 0.72436 0.44784 0.82126 0.0
C1221 C 0.69176 0.0064 0.41123 0.0
C1222 C 0.67184 0.01905 0.40756 0.0
N1223 N 0.66903 0.02185 0.38451 0.0
N1224 N 0.70164 1.00146 0.39061 0.0
C1225 C 0.68702 0.01055 0.37462 0.0
H1226 H 0.69946 0.00246 0.42788 0.0
Co1227 Co 0.73157 0.98919 0.38731 0.0
C1228 C 0.74118 0.013 0.34155 0.0
O1229 O 0.75639 0.02726 0.35072 0.0
N1230 N 0.76157 0.97582 0.38448 0.0
C1231 C 0.79671 0.96378 0.37359 0.0
C1232 C 0.77798 0.97741 0.36778 0.0
C1233 C 0.7708 0.96083 0.40006 0.0
N1234 N 0.79219 0.95332 0.39397 0.0
O1235 O 0.71791 0.95964 0.38027 0.0
H1236 H 0.77664 0.98732 0.35202 0.0
H1237 H 0.76219 0.95592 0.41596 0.0
O1238 O 0.73142 0.99738 0.35398 0.0
C1239 C 0.71349 0.94854 0.39891 0.0
O1240 O 0.71891 0.95798 0.41891 0.0
N1241 N 0.74427 0.0183 0.39713 0.0
C1242 C 0.74899 0.05638 0.42712 0.0
C1243 C 0.73562 0.05806 0.40681 0.0
C1244 C 0.73374 0.03898 0.39194 0.0
C1245 C 0.75924 0.01727 0.41546 0.0
C1246 C 0.76236 0.03625 0.43018 0.0
H1247 H 0.72187 0.04027 0.37752 0.0
H1248 H 0.76719 1.00113 0.42042 0.0
H1249 H 0.69055 0.01084 0.3562 0.0
H1250 H 0.66092 0.02659 0.42086 0.0
H1251 H 0.81218 0.96129 0.36322 0.0
H1252 H 0.72491 0.07308 0.40336 0.0
H1253 H 0.7737 0.03427 0.44501 0.0
C1254 C 0.25084 0.07881 0.85946 0.0
C1255 C 0.26006 0.09803 0.87031 0.0
N1256 N 0.25568 0.09637 0.89323 0.0
N1257 N 0.2409 0.06495 0.87549 0.0
C1258 C 0.24366 0.07643 0.89576 0.0
H1259 H 0.25273 0.0744 0.84131 0.0
Co1260 Co 0.23172 0.03403 0.87102 0.0
C1261 C 0.22423 0.02163 0.92063 0.0
O1262 O 0.20259 0.01559 0.91678 0.0
N1263 N 0.22281 0.00302 0.86649 0.0
C1264 C 0.21942 0.96465 0.86938 0.0
C1265 C 0.23002 0.98411 0.87832 0.0
C1266 C 0.20833 0.99452 0.85008 0.0
N1267 N 0.20588 0.97126 0.85156 0.0
O1268 O 0.19994 0.04278 0.87587 0.0
H1269 H 0.24238 0.98437 0.89242 0.0
H1270 H 0.19958 0.00517 0.83736 0.0
O1271 O 0.23701 0.02823 0.9038 0.0
C1272 C 0.19275 0.05028 0.8563 0.0
O1273 O 0.20749 0.05049 0.83887 0.0
N1274 N 0.26219 0.02659 0.86364 0.0
C1275 C 0.30509 0.03283 0.84275 0.0
C1276 C 0.30295 0.03422 0.86696 0.0
C1277 C 0.2811 0.03114 0.87719 0.0
C1278 C 0.26454 0.02293 0.84042 0.0
C1279 C 0.28589 0.02602 0.82958 0.0
H1280 H 0.27903 0.03484 0.89544 0.0
H1281 H 0.24927 0.0201 0.82989 0.0
H1282 H 0.23849 0.06955 0.9124 0.0
H1283 H 0.27008 0.11162 0.86206 0.0
H1284 H 0.22178 0.94697 0.87526 0.0
H1285 H 0.31746 0.03976 0.87755 0.0
H1286 H 0.28697 0.02491 0.81084 0.0
C1287 C 0.30962 0.50211 0.40082 0.0
C1288 C 0.32803 0.4876 0.39649 0.0
N1289 N 0.32989 0.48489 0.37338 0.0
N1290 N 0.29982 0.5085 0.38054 0.0
C1291 C 0.31286 0.49799 0.36409 0.0
H1292 H 0.30246 0.50582 0.41775 0.0
Co1293 Co 0.26987 0.52077 0.37879 0.0
C1294 C 0.26533 0.53163 0.32883 0.0
O1295 O 0.25897 0.55287 0.33414 0.0
N1296 N 0.23965 0.53269 0.37797 0.0
C1297 C 0.20252 0.53986 0.37028 0.0
C1298 C 0.22168 0.52686 0.36417 0.0
C1299 C 0.23087 0.54873 0.39261 0.0
N1300 N 0.20836 0.55371 0.38823 0.0
O1301 O 0.28253 0.55167 0.37666 0.0
H1302 H 0.22242 0.51398 0.35054 0.0
H1303 H 0.24074 0.55628 0.40659 0.0
O1304 O 0.26998 0.51722 0.345 0.0
C1305 C 0.28744 0.5594 0.39681 0.0
O1306 O 0.28317 0.54603 0.41478 0.0
N1307 N 0.25837 0.49096 0.38323 0.0
C1308 C 0.26254 0.44718 0.40262 0.0
C1309 C 0.26516 0.45021 0.37861 0.0
C1310 C 0.26299 0.47248 0.36912 0.0
C1311 C 0.25275 0.48773 0.40593 0.0
C1312 C 0.25484 0.4659 0.41606 0.0
H1313 H 0.26788 0.47512 0.35122 0.0
H1314 H 0.2497 0.50265 0.41691 0.0
H1315 H 0.30854 0.49781 0.34586 0.0
H1316 H 0.33825 0.47851 0.40937 0.0
H1317 H 0.18575 0.53926 0.36189 0.0
H1318 H 0.27124 0.43611 0.36777 0.0
H1319 H 0.25262 0.46412 0.43465 0.0
C1320 C 0.62195 0.78348 0.5752 0.0
C1321 C 0.61052 0.77396 0.59387 0.0
N1322 N 0.59109 0.76363 0.58605 0.0
N1323 N 0.60983 0.77904 0.5557 0.0
C1324 C 0.59102 0.76695 0.56289 0.0
H1325 H 0.63866 0.79201 0.57565 0.0
Co1326 Co 0.62099 0.78446 0.52593 0.0
C1327 C 0.58191 0.77373 0.49382 0.0
O1328 O 0.59683 0.76779 0.47765 0.0
N1329 N 0.63326 0.7903 0.4956 0.0
C1330 C 0.6568 0.78999 0.46482 0.0
C1331 C 0.64921 0.77771 0.48378 0.0
C1332 C 0.63108 0.81 0.48282 0.0
N1333 N 0.64544 0.81032 0.4643 0.0
O1334 O 0.6165 0.81721 0.53061 0.0
H1335 H 0.65596 0.76103 0.48887 0.0
H1336 H 0.62039 0.8246 0.48782 0.0
O1337 O 0.58928 0.78059 0.5136 0.0
C1338 C 0.63634 0.82573 0.53569 0.0
O1339 O 0.65443 0.81183 0.53534 0.0
N1340 N 0.62806 0.75291 0.52392 0.0
C1341 C 0.64574 0.70904 0.53395 0.0
C1342 C 0.62322 0.71149 0.52488 0.0
C1343 C 0.61448 0.73381 0.52022 0.0
C1344 C 0.65004 0.75058 0.53223 0.0
C1345 C 0.65932 0.72892 0.53698 0.0
H1346 H 0.59658 0.7356 0.51506 0.0
H1347 H 0.66026 0.7659 0.53581 0.0
H1348 H 0.57844 0.75922 0.55132 0.0
H1349 H 0.61642 0.77391 0.6117 0.0
H1350 H 0.67038 0.78484 0.4529 0.0
H1351 H 0.6121 0.6965 0.52268 0.0
H1352 H 0.67684 0.72782 0.54375 0.0
C1353 C 0.60329 0.20836 0.92384 0.0
C1354 C 0.58953 0.2174 0.90663 0.0
N1355 N 0.57926 0.23683 0.9147 0.0
N1356 N 0.60162 0.2218 0.9429 0.0
C1357 C 0.58683 0.23897 0.9368 0.0
H1358 H 0.61409 0.19315 0.92222 0.0
Co1359 Co 0.61735 0.2183 0.97107 0.0
C1360 C 0.58101 0.22989 0.00726 0.0
O1361 O 0.59631 0.2313 0.02407 0.0
N1362 N 0.63369 0.21434 0.99935 0.0
C1363 C 0.66282 0.21412 0.02476 0.0
C1364 C 0.65352 0.22512 0.00573 0.0
C1365 C 0.63138 0.19684 0.01492 0.0
N1366 N 0.64894 0.19621 0.03044 0.0
O1367 O 0.61105 0.18552 0.97063 0.0
H1368 H 0.66168 0.23917 0.99638 0.0
H1369 H 0.61788 0.18382 0.01398 0.0
O1370 O 0.5877 0.22498 0.9867 0.0
C1371 C 0.62934 0.1758 0.96274 0.0
O1372 O 0.64687 0.1889 0.95633 0.0
N1373 N 0.62606 0.24962 0.96979 0.0
C1374 C 0.64891 0.29203 0.96448 0.0
C1375 C 0.63092 0.28954 0.9808 0.0
C1376 C 0.61968 0.26804 0.98327 0.0
C1377 C 0.64289 0.25206 0.95337 0.0
C1378 C 0.65443 0.27303 0.95036 0.0
H1379 H 0.60649 0.26623 0.99638 0.0
H1380 H 0.64783 0.23728 0.94292 0.0
H1381 H 0.58241 0.2532 0.94821 0.0
H1382 H 0.58755 0.21019 0.88943 0.0
H1383 H 0.67911 0.21835 0.03311 0.0
H1384 H 0.6261 0.3038 0.99205 0.0
H1385 H 0.66775 0.27423 0.93714 0.0
C1386 C 0.49214 0.1059 0.32733 0.0
C1387 C 0.50622 0.11185 0.34573 0.0
N1388 N 0.51367 0.13381 0.34259 0.0
N1389 N 0.49052 0.12405 0.31266 0.0
C1390 C 0.50349 0.14079 0.32268 0.0
H1391 H 0.48555 0.08871 0.32381 0.0
Co1392 Co 0.4817 0.12269 0.28136 0.0
C1393 C 0.47342 0.17265 0.26854 0.0
O1394 O 0.45583 0.16761 0.25494 0.0
N1395 N 0.47351 0.12071 0.24976 0.0
C1396 C 0.47388 0.1233 0.21119 0.0
C1397 C 0.48481 0.12993 0.23141 0.0
C1398 C 0.45595 0.10846 0.24017 0.0
N1399 N 0.45567 0.10969 0.21674 0.0
O1400 O 0.44945 0.12502 0.29032 0.0
H1401 H 0.50017 0.14066 0.23263 0.0
H1402 H 0.44348 0.09879 0.25016 0.0
O1403 O 0.48422 0.15651 0.27919 0.0
C1404 C 0.44109 0.10502 0.29492 0.0
O1405 O 0.45448 0.08679 0.2919 0.0
N1406 N 0.51298 0.11827 0.27396 0.0
C1407 C 0.55714 0.10483 0.28775 0.0
C1408 C 0.55227 0.12826 0.28302 0.0
C1409 C 0.52997 0.13468 0.27584 0.0
C1410 C 0.51831 0.09529 0.27507 0.0
C1411 C 0.54038 0.08813 0.28199 0.0
H1412 H 0.52586 0.15293 0.27475 0.0
H1413 H 0.50454 0.08259 0.27379 0.0
H1414 H 0.50723 0.15702 0.31437 0.0
H1415 H 0.51198 0.10016 0.35923 0.0
H1416 H 0.47927 0.12786 0.1938 0.0
H1417 H 0.5649 0.14166 0.28682 0.0
H1418 H 0.5433 0.06988 0.28539 0.0
C1419 C 0.3645 0.24401 0.94608 0.0
C1420 C 0.37722 0.23396 0.92858 0.0
N1421 N 0.39886 0.24268 0.92946 0.0
N1422 N 0.3783 0.25853 0.95823 0.0
C1423 C 0.39903 0.25775 0.94731 0.0
H1424 H 0.3466 0.24023 0.95034 0.0
Co1425 Co 0.37025 0.27355 0.98578 0.0
C1426 C 0.41315 0.2634 0.01387 0.0
O1427 O 0.40072 0.25402 0.03043 0.0
N1428 N 0.36136 0.28938 0.01372 0.0
C1429 C 0.34922 0.2985 0.04953 0.0
C1430 C 0.35911 0.28158 0.03582 0.0
C1431 C 0.3521 0.31099 0.01464 0.0
N1432 N 0.34467 0.31691 0.03604 0.0
O1433 O 0.37579 0.30289 0.97082 0.0
H1434 H 0.36228 0.26404 0.04148 0.0
H1435 H 0.34967 0.32206 0.99976 0.0
O1436 O 0.40318 0.2717 0.99586 0.0
C1437 C 0.35845 0.30749 0.95778 0.0
O1438 O 0.34152 0.29222 0.9567 0.0
N1439 N 0.36227 0.24457 0.99851 0.0
C1440 C 0.34021 0.20173 0.99508 0.0
C1441 C 0.36448 0.20328 0.99348 0.0
C1442 C 0.37529 0.22496 0.99548 0.0
C1443 C 0.33895 0.24295 0.00228 0.0
C1444 C 0.32763 0.22163 1.00105 0.0
H1445 H 0.39351 0.22626 0.99119 0.0
H1446 H 0.32858 0.25855 0.00339 0.0
H1447 H 0.41421 0.26734 0.9528 0.0
H1448 H 0.37118 0.22108 0.91631 0.0
H1449 H 0.344 0.29669 0.06748 0.0
H1450 H 0.37474 0.18827 0.98868 0.0
H1451 H 0.30885 0.22127 0.00202 0.0
C1452 C 0.04772 0.86207 0.83638 0.0
C1453 C 0.04271 0.8473 0.8544 0.0
N1454 N 0.0264 0.8322 0.84721 0.0
N1455 N 0.03484 0.85615 0.81779 0.0
C1456 C 0.02177 0.83803 0.82502 0.0
H1457 H 0.05985 0.87635 0.83697 0.0
Co1458 Co 0.03543 0.87065 0.78897 0.0
C1459 C 0.02136 0.83394 0.75482 0.0
O1460 O 0.01478 0.84976 0.73982 0.0
N1461 N 0.03658 0.88593 0.75977 0.0
C1462 C 0.03417 0.91353 0.73279 0.0
C1463 C 0.02435 0.90465 0.75268 0.0
C1464 C 0.05347 0.88362 0.74351 0.0
N1465 N 0.05263 0.90037 0.72715 0.0
O1466 O 0.06857 0.86637 0.78764 0.0
H1467 H 0.01009 0.91245 0.762 0.0
H1468 H 0.06726 0.87093 0.74459 0.0
O1469 O 0.02967 0.84017 0.77443 0.0
C1470 C 0.07763 0.88578 0.79331 0.0
O1471 O 0.06392 0.90323 0.79851 0.0
N1472 N 0.00384 0.87743 0.7924 0.0
C1473 C 0.96056 0.89504 0.80541 0.0
C1474 C 0.96223 0.87443 0.79241 0.0
C1475 C 0.98416 0.86573 0.7862 0.0
C1476 C 0.00242 0.89726 0.80513 0.0
C1477 C 0.9811 0.90647 0.81159 0.0
H1478 H 0.9851 0.84948 0.77703 0.0
H1479 H 0.01817 0.90609 0.81022 0.0
H1480 H 0.00919 0.82921 0.81423 0.0
H1481 H 0.0501 0.84796 0.87166 0.0
H1482 H 0.02882 0.92915 0.72384 0.0
H1483 H 0.9468 0.86486 0.78757 0.0
H1484 H 0.98079 0.92259 0.82125 0.0
C1485 C 0.85476 0.25071 0.06341 0.0
C1486 C 0.85984 0.26554 0.08138 0.0
N1487 N 0.88308 0.26726 0.08313 0.0
N1488 N 0.8747 0.24318 0.05373 0.0
C1489 C 0.89169 0.25326 0.06645 0.0
H1490 H 0.83765 0.24739 0.05646 0.0
Co1491 Co 0.87589 0.22955 0.02429 0.0
C1492 C 0.92653 0.22005 0.02014 0.0
O1493 O 0.92256 0.19804 0.01572 0.0
N1494 N 0.87649 0.21616 0.99463 0.0
C1495 C 0.88415 0.2076 0.95778 0.0
C1496 C 0.89001 0.22159 0.97629 0.0
C1497 C 0.86235 0.19923 0.98673 0.0
N1498 N 0.86674 0.19344 0.96443 0.0
O1499 O 0.87856 0.19926 0.03832 0.0
H1500 H 0.90324 0.2349 0.97634 0.0
H1501 H 0.84867 0.19157 0.99697 0.0
O1502 O 0.90949 0.2338 0.02349 0.0
C1503 C 0.85834 0.19158 0.0432 0.0
O1504 O 0.84038 0.20485 0.03854 0.0
N1505 N 0.87079 0.25882 0.01136 0.0
C1506 C 0.85092 0.30273 0.01025 0.0
C1507 C 0.87451 0.29998 0.01571 0.0
C1508 C 0.88426 0.27777 0.01597 0.0
C1509 C 0.84865 0.26142 0.00353 0.0
C1510 C 0.83837 0.28333 0.00264 0.0
H1511 H 0.90168 0.27574 0.02253 0.0
H1512 H 0.83804 0.24622 1.00054 0.0
H1513 H 0.90993 0.25241 0.06216 0.0
H1514 H 0.84741 0.2755 0.09135 0.0
H1515 H 0.89234 0.20769 0.94088 0.0
H1516 H 0.88474 0.3146 0.02164 0.0
H1517 H 0.82007 0.28469 0.99853 0.0
C1518 C 0.47226 0.85747 0.17592 0.0
C1519 C 0.48205 0.84324 0.15935 0.0
N1520 N 0.49812 0.8298 0.16975 0.0
N1521 N 0.48201 0.85286 0.19666 0.0
C1522 C 0.49756 0.83587 0.19229 0.0
H1523 H 0.45973 0.87104 0.17274 0.0
Co1524 Co 0.47848 0.86823 0.22489 0.0
C1525 C 0.4907 0.83135 0.2601 0.0
O1526 O 0.49574 0.84646 0.2764 0.0
N1527 N 0.47485 0.88399 0.25355 0.0
C1528 C 0.47633 0.91147 0.28071 0.0
C1529 C 0.48685 0.90265 0.26123 0.0
C1530 C 0.45727 0.88169 0.26905 0.0
N1531 N 0.45772 0.89829 0.28557 0.0
O1532 O 0.44554 0.86273 0.22384 0.0
H1533 H 0.50165 0.91036 0.25275 0.0
H1534 H 0.4435 0.86901 0.26745 0.0
O1535 O 0.48387 0.83844 0.24028 0.0
C1536 C 0.43636 0.88107 0.21547 0.0
O1537 O 0.44992 0.89854 0.20993 0.0
N1538 N 0.51002 0.87609 0.2236 0.0
C1539 C 0.55334 0.89375 0.21112 0.0
C1540 C 0.55163 0.87329 0.22433 0.0
C1541 C 0.52963 0.86476 0.23064 0.0
C1542 C 0.51157 0.8958 0.21067 0.0
C1543 C 0.53294 0.90511 0.20458 0.0
H1544 H 0.52854 0.8487 0.24016 0.0
H1545 H 0.49588 0.90422 0.20477 0.0
H1546 H 0.50898 0.82867 0.2053 0.0
H1547 H 0.47866 0.84383 0.14089 0.0
H1548 H 0.48136 0.92699 0.29002 0.0
H1549 H 0.56707 0.86385 0.22938 0.0
H1550 H 0.53345 0.9206 0.19392 0.0
C1551 C 0.50756 0.61549 0.1795 0.0
C1552 C 0.49827 0.62772 0.1612 0.0
N1553 N 0.49409 0.64957 0.16836 0.0
N1554 N 0.50919 0.62955 0.19812 0.0
C1555 C 0.50113 0.65028 0.19065 0.0
H1556 H 0.51131 0.59712 0.17966 0.0
Co1557 Co 0.51431 0.61937 0.22841 0.0
C1558 C 0.51179 0.66152 0.25827 0.0
O1559 O 0.5028 0.64882 0.2749 0.0
N1560 N 0.5196 0.60821 0.25933 0.0
C1561 C 0.51662 0.59073 0.29385 0.0
C1562 C 0.50468 0.59829 0.27459 0.0
C1563 C 0.54046 0.60661 0.27011 0.0
N1564 N 0.53918 0.59574 0.29081 0.0
O1565 O 0.54722 0.61681 0.22184 0.0
H1566 H 0.48624 0.59623 0.27208 0.0
H1567 H 0.55657 0.6129 0.26284 0.0
O1568 O 0.51731 0.65206 0.23892 0.0
C1569 C 0.5505 0.59533 0.21736 0.0
O1570 O 0.53241 0.58144 0.21771 0.0
N1571 N 0.48209 0.6188 0.23246 0.0
C1572 C 0.43628 0.6107 0.21908 0.0
C1573 C 0.4437 0.63319 0.22501 0.0
C1574 C 0.46681 0.63693 0.23174 0.0
C1575 C 0.4747 0.59677 0.22814 0.0
C1576 C 0.45188 0.59228 0.22182 0.0
H1577 H 0.47271 0.65454 0.234 0.0
H1578 H 0.48716 0.58276 0.22779 0.0
H1579 H 0.49838 0.66504 0.20184 0.0
H1580 H 0.49393 0.62078 0.1443 0.0
H1581 H 0.50942 0.58131 0.30843 0.0
H1582 H 0.43222 0.64793 0.22295 0.0
H1583 H 0.44722 0.57474 0.21694 0.0
H1584 H 0.09426 0.22051 0.09016 0.0
H1585 H 0.11551 0.27733 0.13441 0.0
H1586 H 0.09043 0.26227 0.16593 0.0
H1587 H 0.034 0.2146 0.11167 0.0
H1588 H 0.03461 0.18336 0.11049 0.0
H1589 H 0.05183 0.2001 0.09043 0.0
H1590 H 0.08878 0.17824 0.10376 0.0
H1591 H 0.07171 0.16146 0.12385 0.0
H1592 H 0.09627 0.17788 0.13413 0.0
H1593 H 0.06512 0.24042 0.19286 0.0
H1594 H 0.04354 0.21146 0.21542 0.0
H1595 H 0.03975 0.16677 0.15486 0.0
C1596 C 0.09312 0.22993 0.10637 0.0
C1597 C 0.10638 0.25024 0.10996 0.0
C1598 C 0.10525 0.26186 0.1315 0.0
C1599 C 0.09102 0.25348 0.14935 0.0
C1600 C 0.07831 0.23327 0.14544 0.0
C1601 C 0.07936 0.22146 0.12459 0.0
C1602 C 0.06568 0.19895 0.1258 0.0
C1603 C 0.04532 0.19928 0.10857 0.0
C1604 C 0.08156 0.17789 0.12164 0.0
C1605 C 0.05712 0.19979 0.15071 0.0
C1606 C 0.06428 0.22 0.16147 0.0
C1607 C 0.05918 0.22465 0.18457 0.0
C1608 C 0.04671 0.2081 0.1972 0.0
C1609 C 0.03954 0.18694 0.18685 0.0
C1610 C 0.04478 0.18284 0.1632 0.0
H1611 H 0.45894 0.64318 0.13767 0.0
H1612 H 0.50003 0.6961 0.17186 0.0
H1613 H 0.47825 0.72657 0.1508 0.0
H1614 H 0.45642 0.66975 0.08272 0.0
H1615 H 0.42701 0.66083 0.07681 0.0
H1616 H 0.44494 0.64374 0.09578 0.0
H1617 H 0.41379 0.64713 0.12794 0.0
H1618 H 0.39585 0.66463 0.10924 0.0
H1619 H 0.40427 0.67539 0.13739 0.0
H1620 H 0.45479 0.75078 0.12277 0.0
H1621 H 0.43161 0.76663 0.09018 0.0
H1622 H 0.40427 0.69809 0.07619 0.0
C1623 C 0.46338 0.66118 0.14069 0.0
C1624 C 0.48133 0.66731 0.15621 0.0
C1625 C 0.48633 0.69107 0.16005 0.0
C1626 C 0.47401 0.70846 0.14821 0.0
C1627 C 0.45646 0.70178 0.13293 0.0
C1628 C 0.45107 0.6787 0.12928 0.0
C1629 C 0.43206 0.67601 0.11134 0.0
C1630 C 0.44063 0.66175 0.09043 0.0
C1631 C 0.41019 0.66516 0.12213 0.0
C1632 C 0.42806 0.70116 0.10489 0.0
C1633 C 0.44222 0.7158 0.11761 0.0
C1634 C 0.44324 0.73957 0.11309 0.0
C1635 C 0.42997 0.74845 0.0947 0.0
C1636 C 0.41567 0.73365 0.08133 0.0
C1637 C 0.41434 0.70985 0.08684 0.0
H1638 H 0.98211 0.31479 0.1664 0.0
H1639 H 0.94323 0.37936 0.16889 0.0
H1640 H 0.91698 0.36469 0.1388 0.0
H1641 H 0.97368 0.30336 0.10287 0.0
H1642 H 0.9706 0.27259 0.10753 0.0
H1643 H 0.98885 0.28953 0.12647 0.0
H1644 H 0.96566 0.27455 0.16194 0.0
H1645 H 0.94715 0.25785 0.14316 0.0
H1646 H 0.93464 0.27867 0.16288 0.0
H1647 H 0.89139 0.34133 0.11314 0.0
H1648 H 0.8702 0.31163 0.09076 0.0
H1649 H 0.92477 0.26182 0.10453 0.0
C1650 C 0.96841 0.32608 0.16027 0.0
C1651 C 0.96496 0.34835 0.17013 0.0
C1652 C 0.94674 0.36247 0.16146 0.0
C1653 C 0.93151 0.35421 0.14442 0.0
C1654 C 0.93479 0.33184 0.13593 0.0
C1655 C 0.95301 0.31808 0.14321 0.0
C1656 C 0.95159 0.29407 0.13245 0.0
C1657 C 0.97242 0.28963 0.11637 0.0
C1658 C 0.94964 0.27518 0.15123 0.0
C1659 C 0.92925 0.29626 0.11872 0.0
C1660 C 0.91995 0.31827 0.12088 0.0
C1661 C 0.89867 0.32414 0.11106 0.0
C1662 C 0.8866 0.3071 0.09862 0.0
C1663 C 0.89577 0.28445 0.0961 0.0
C1664 C 0.91751 0.27908 0.10608 0.0
H1665 H 0.5528 0.7706 0.06067 0.0
H1666 H 0.61943 0.77817 0.09465 0.0
H1667 H 0.59941 0.78586 0.13185 0.0
H1668 H 0.52811 0.81675 0.08413 0.0
H1669 H 0.49918 0.80532 0.0876 0.0
H1670 H 0.51795 0.79359 0.0657 0.0
H1671 H 0.51309 0.75228 0.08291 0.0
H1672 H 0.49381 0.76394 0.10463 0.0
H1673 H 0.5189 0.74741 0.11326 0.0
H1674 H 0.5728 0.80095 0.1625 0.0
H1675 H 0.54234 0.8217 0.18403 0.0
H1676 H 0.49275 0.80553 0.12981 0.0
C1677 C 0.56315 0.77306 0.07616 0.0
C1678 C 0.58763 0.77381 0.07489 0.0
C1679 C 0.60067 0.77722 0.09537 0.0
C1680 C 0.58941 0.78162 0.11654 0.0
C1681 C 0.56517 0.78219 0.1169 0.0
C1682 C 0.55217 0.77763 0.09727 0.0
C1683 C 0.52666 0.7827 0.10118 0.0
C1684 C 0.51746 0.80066 0.08363 0.0
C1685 C 0.51227 0.76024 0.10046 0.0
C1686 C 0.52754 0.79252 0.12548 0.0
C1687 C 0.54975 0.79138 0.13454 0.0
C1688 C 0.55524 0.80135 0.15585 0.0
C1689 C 0.53775 0.81311 0.16799 0.0
C1690 C 0.51506 0.81514 0.15865 0.0
C1691 C 0.50989 0.8042 0.13738 0.0
H1692 H 0.02249 0.80614 0.33146 0.0
H1693 H 0.06227 0.87007 0.32684 0.0
H1694 H 0.0882 0.85615 0.35752 0.0
H1695 H 0.03018 0.79712 0.39539 0.0
H1696 H 0.03298 0.76615 0.39212 0.0
H1697 H 0.01518 0.78242 0.37222 0.0
H1698 H 0.03864 0.7657 0.33777 0.0
H1699 H 0.05669 0.74961 0.35751 0.0
H1700 H 0.06971 0.7694 0.33706 0.0
H1701 H 0.11306 0.83378 0.38434 0.0
H1702 H 0.13378 0.80503 0.4083 0.0
H1703 H 0.07878 0.7551 0.39647 0.0
C1704 C 0.03632 0.81744 0.33727 0.0
C1705 C 0.04002 0.8394 0.32678 0.0
C1706 C 0.0585 0.85351 0.33488 0.0
C1707 C 0.07355 0.84566 0.35224 0.0
C1708 C 0.0699 0.82369 0.36158 0.0
C1709 C 0.05156 0.80986 0.3547 0.0
C1710 C 0.05257 0.78632 0.36655 0.0
C1711 C 0.03147 0.7828 0.38252 0.0
C1712 C 0.05453 0.7666 0.34865 0.0
C1713 C 0.07479 0.78886 0.38049 0.0
C1714 C 0.08437 0.81064 0.37739 0.0
C1715 C 0.10558 0.81679 0.38717 0.0
C1716 C 0.11734 0.80028 0.40054 0.0
C1717 C 0.10792 0.77786 0.40406 0.0
C1718 C 0.08621 0.77219 0.39414 0.0
H1719 H 0.03924 0.63403 0.86571 0.0
H1720 H 0.01345 0.69677 0.83353 0.0
H1721 H 0.04135 0.72013 0.85676 0.0
H1722 H 0.04643 0.65547 0.92157 0.0
H1723 H 0.07274 0.63961 0.92743 0.0
H1724 H 0.05209 0.6284 0.90694 0.0
H1725 H 0.08424 0.62665 0.87546 0.0
H1726 H 0.10502 0.638 0.89589 0.0
H1727 H 0.10049 0.65248 0.86854 0.0
H1728 H 0.06931 0.73646 0.88751 0.0
H1729 H 0.09464 0.74387 0.92149 0.0
H1730 H 0.10387 0.66972 0.93036 0.0
C1731 C 0.0396 0.65268 0.8635 0.0
C1732 C 0.02414 0.66374 0.84814 0.0
C1733 C 0.02525 0.68811 0.84531 0.0
C1734 C 0.04102 0.70143 0.85838 0.0
C1735 C 0.0559 0.68995 0.8737 0.0
C1736 C 0.05548 0.66605 0.87598 0.0
C1737 C 0.07262 0.65775 0.89397 0.0
C1738 C 0.06022 0.64454 0.91364 0.0
C1739 C 0.09172 0.64284 0.88279 0.0
C1740 C 0.08213 0.68072 0.90226 0.0
C1741 C 0.07249 0.69917 0.89036 0.0
C1742 C 0.07732 0.7221 0.89659 0.0
C1743 C 0.09184 0.72617 0.91583 0.0
C1744 C 0.10123 0.70738 0.92861 0.0
C1745 C 0.09689 0.68448 0.92105 0.0
H1746 H 0.8859 0.71529 0.39494 0.0
H1747 H 0.93253 0.76962 0.41837 0.0
H1748 H 0.96441 0.75192 0.39597 0.0
H1749 H 0.92724 0.66872 0.39617 0.0
H1750 H 0.91649 0.65499 0.3702 0.0
H1751 H 0.89712 0.67168 0.38821 0.0
H1752 H 0.88597 0.69742 0.35309 0.0
H1753 H 0.90492 0.68048 0.33493 0.0
H1754 H 0.90854 0.71151 0.33659 0.0
H1755 H 0.99123 0.72861 0.37067 0.0
H1756 H 0.01029 0.70267 0.34229 0.0
H1757 H 0.94615 0.66385 0.33499 0.0
C1758 C 0.90271 0.72366 0.39515 0.0
C1759 C 0.90665 0.74385 0.40856 0.0
C1760 C 0.92909 0.754 0.40853 0.0
C1761 C 0.94733 0.74409 0.39583 0.0
C1762 C 0.94294 0.72398 0.38317 0.0
C1763 C 0.92114 0.71397 0.38256 0.0
C1764 C 0.92096 0.69261 0.36721 0.0
C1765 C 0.91511 0.67071 0.3813 0.0
C1766 C 0.90411 0.6957 0.34674 0.0
C1767 C 0.946 0.69233 0.35912 0.0
C1768 C 0.95843 0.71049 0.36865 0.0
C1769 C 0.9817 0.71427 0.36317 0.0
C1770 C 0.99239 0.69945 0.34706 0.0
C1771 C 0.97981 0.68109 0.33659 0.0
C1772 C 0.95643 0.67733 0.3431 0.0
H1773 H 0.98118 0.81861 0.84647 0.0
H1774 H 0.04751 0.80591 0.87954 0.0
H1775 H 0.02875 0.77904 0.90703 0.0
H1776 H 0.94899 0.82204 0.89588 0.0
H1777 H 0.92338 0.80747 0.88538 0.0
H1778 H 0.94234 0.82201 0.86531 0.0
H1779 H 0.94714 0.78403 0.84177 0.0
H1780 H 0.92797 0.76932 0.86169 0.0
H1781 H 0.95662 0.75799 0.85624 0.0
H1782 H 0.00276 0.76031 0.93474 0.0
H1783 H 0.97169 0.74947 0.96089 0.0
H1784 H 0.92073 0.77095 0.90929 0.0
C1785 C 0.99178 0.8095 0.85902 0.0
C1786 C 0.01578 0.81427 0.86096 0.0
C1787 C 0.02909 0.80258 0.87794 0.0
C1788 C 0.0186 0.78717 0.89347 0.0
C1789 C 0.99478 0.78348 0.89172 0.0
C1790 C 0.98149 0.79406 0.8748 0.0
C1791 C 0.95587 0.78891 0.87841 0.0
C1792 C 0.94183 0.81145 0.88143 0.0
C1793 C 0.94634 0.77418 0.85833 0.0
C1794 C 0.95681 0.77502 0.90079 0.0
C1795 C 0.97949 0.7718 0.9078 0.0
C1796 C 0.98493 0.76193 0.92907 0.0
C1797 C 0.9668 0.75554 0.94385 0.0
C1798 C 0.94314 0.75863 0.93738 0.0
C1799 C 0.93832 0.7681 0.91513 0.0
H1800 H 0.18775 0.06502 0.16425 0.0
H1801 H 0.18248 0.99835 0.19887 0.0
H1802 H 0.15254 0.01454 0.22515 0.0
H1803 H 0.18254 0.09974 0.21408 0.0
H1804 H 0.16561 0.1221 0.20024 0.0
H1805 H 0.18555 0.10494 0.18338 0.0
H1806 H 0.15232 0.09292 0.15558 0.0
H1807 H 0.13232 0.11034 0.17213 0.0
H1808 H 0.12633 0.08002 0.16733 0.0
H1809 H 0.12405 0.03877 0.24845 0.0
H1810 H 0.09847 0.06842 0.26593 0.0
H1811 H 0.12261 0.1188 0.21544 0.0
C1812 C 0.17991 0.05358 0.17693 0.0
C1813 C 0.18728 0.03029 0.17931 0.0
C1814 C 0.17708 0.01622 0.19671 0.0
C1815 C 0.16008 0.02526 0.21169 0.0
C1816 C 0.15352 0.04842 0.20905 0.0
C1817 C 0.16303 0.06231 0.19199 0.0
C1818 C 0.15354 0.08677 0.19308 0.0
C1819 C 0.17297 0.10442 0.19799 0.0
C1820 C 0.14034 0.09286 0.1707 0.0
C1821 C 0.13723 0.08457 0.21354 0.0
C1822 C 0.13742 0.06233 0.22251 0.0
C1823 C 0.1237 0.0562 0.24147 0.0
C1824 C 0.10919 0.07315 0.25126 0.0
C1825 C 0.10851 0.096 0.24212 0.0
C1826 C 0.12294 0.10168 0.22311 0.0
H1827 H 0.36207 0.65105 0.03795 0.0
H1828 H 0.3121 0.6839 0.99227 0.0
H1829 H 0.28038 0.66205 0.01127 0.0
H1830 H 0.33545 0.59513 0.03819 0.0
H1831 H 0.34216 0.58936 0.06814 0.0
H1832 H 0.36066 0.60813 0.0514 0.0
H1833 H 0.35539 0.64068 0.08178 0.0
H1834 H 0.33648 0.62242 0.09871 0.0
H1835 H 0.32658 0.65047 0.08912 0.0
H1836 H 0.25435 0.63482 0.03427 0.0
H1837 H 0.23658 0.60438 0.05901 0.0
H1838 H 0.30361 0.59089 0.09025 0.0
C1839 C 0.3445 0.65352 0.03179 0.0
C1840 C 0.33959 0.66911 0.01355 0.0
C1841 C 0.31626 0.67213 0.0063 0.0
C1842 C 0.29814 0.6598 0.01699 0.0
C1843 C 0.30361 0.64467 0.03505 0.0
C1844 C 0.32624 0.64154 0.04238 0.0
C1845 C 0.32765 0.62397 0.06182 0.0
C1846 C 0.34234 0.60291 0.05445 0.0
C1847 C 0.33709 0.63506 0.08417 0.0
C1848 C 0.30228 0.61762 0.06428 0.0
C1849 C 0.28864 0.62966 0.04867 0.0
C1850 C 0.26483 0.62554 0.04679 0.0
C1851 C 0.25486 0.60833 0.06092 0.0
C1852 C 0.26864 0.59576 0.07692 0.0
C1853 C 0.29255 0.6008 0.07876 0.0
H1854 H 0.83215 0.48016 0.18327 0.0
H1855 H 0.82463 0.43495 0.1235 0.0
H1856 H 0.85563 0.4098 0.13856 0.0
H1857 H 0.89681 0.47213 0.19025 0.0
H1858 H 0.89463 0.47254 0.22144 0.0
H1859 H 0.87454 0.48916 0.20415 0.0
H1860 H 0.84017 0.46845 0.22442 0.0
H1861 H 0.86007 0.45156 0.24152 0.0
H1862 H 0.8386 0.43721 0.22387 0.0
H1863 H 0.88193 0.386 0.163 0.0
H1864 H 0.90528 0.36718 0.19363 0.0
H1865 H 0.89772 0.42794 0.23716 0.0
C1866 C 0.83756 0.46536 0.17303 0.0
C1867 C 0.82615 0.45975 0.15202 0.0
C1868 C 0.83347 0.44001 0.13929 0.0
C1869 C 0.85098 0.42547 0.14782 0.0
C1870 C 0.86126 0.43102 0.16896 0.0
C1871 C 0.8552 0.45073 0.18121 0.0
C1872 C 0.86786 0.45177 0.20428 0.0
C1873 C 0.88445 0.47264 0.20507 0.0
C1874 C 0.85064 0.45227 0.22472 0.0
C1875 C 0.88116 0.42908 0.20349 0.0
C1876 C 0.87713 0.41744 0.1829 0.0
C1877 C 0.88568 0.39518 0.17894 0.0
C1878 C 0.89874 0.38456 0.19645 0.0
C1879 C 0.90337 0.39626 0.21753 0.0
C1880 C 0.89471 0.41891 0.22096 0.0
H1881 H 0.67125 0.84134 0.03504 0.0
H1882 H 0.67692 0.8759 0.96854 0.0
H1883 H 0.704 0.90441 0.98547 0.0
H1884 H 0.66895 0.89168 0.06824 0.0
H1885 H 0.68565 0.88097 0.0924 0.0
H1886 H 0.66967 0.86103 0.07449 0.0
H1887 H 0.70732 0.8378 0.06643 0.0
H1888 H 0.72345 0.85768 0.08442 0.0
H1889 H 0.73239 0.85255 0.05488 0.0
H1890 H 0.7258 0.93166 0.00998 0.0
H1891 H 0.74053 0.95693 0.04045 0.0
H1892 H 0.72289 0.90472 0.09218 0.0
C1893 C 0.67877 0.85456 0.02402 0.0
C1894 C 0.67217 0.85644 1.00046 0.0
C1895 C 0.68177 0.87429 0.98661 0.0
C1896 C 0.69726 0.89043 0.99605 0.0
C1897 C 0.70302 0.88852 0.01943 0.0
C1898 C 0.69416 0.87106 0.0333 0.0
C1899 C 0.70147 0.87446 0.05841 0.0
C1900 C 0.68017 0.8772 0.07431 0.0
C1901 C 0.71709 0.85443 0.06651 0.0
C1902 C 0.71507 0.89699 0.05653 0.0
C1903 C 0.71598 0.9045 0.03381 0.0
C1904 C 0.72577 0.92569 0.02779 0.0
C1905 C 0.7344 0.93991 0.04545 0.0
C1906 C 0.73346 0.93299 0.06913 0.0
C1907 C 0.72406 0.91083 0.07447 0.0
H1908 H 0.17621 0.96673 0.3104 0.0
H1909 H 0.1839 0.92312 0.37131 0.0
H1910 H 0.15374 0.8968 0.35636 0.0
H1911 H 0.11217 0.95794 0.30384 0.0
H1912 H 0.11397 0.95779 0.27262 0.0
H1913 H 0.13425 0.97474 0.28936 0.0
H1914 H 0.16842 0.95368 0.26913 0.0
H1915 H 0.14832 0.93649 0.25255 0.0
H1916 H 0.17 0.92245 0.27019 0.0
H1917 H 0.12717 0.87233 0.33252 0.0
H1918 H 0.10248 0.85346 0.3029 0.0
H1919 H 0.11003 0.91337 0.25817 0.0
C1920 C 0.17112 0.95194 0.32081 0.0
C1921 C 0.18225 0.94714 0.34215 0.0
C1922 C 0.17529 0.92746 0.35518 0.0
C1923 C 0.15828 0.91229 0.34675 0.0
C1924 C 0.14811 0.91716 0.32539 0.0
C1925 C 0.1539 0.93673 0.31277 0.0
C1926 C 0.14097 0.93734 0.28985 0.0
C1927 C 0.12435 0.95819 0.28887 0.0
C1928 C 0.15795 0.93749 0.26922 0.0
C1929 C 0.12771 0.91465 0.29122 0.0
C1930 C 0.13211 0.90329 0.31188 0.0
C1931 C 0.12326 0.88124 0.31646 0.0
C1932 C 0.10945 0.87058 0.29952 0.0
C1933 C 0.10441 0.88207 0.27843 0.0
C1934 C 0.11348 0.90445 0.27434 0.0
H1935 H 0.24181 0.56028 0.94218 0.0
H1936 H 0.22856 0.59492 0.8768 0.0
H1937 H 0.21924 0.63111 0.89802 0.0
H1938 H 0.19555 0.58099 0.97042 0.0
H1939 H 0.20881 0.58449 0.99853 0.0
H1940 H 0.2202 0.56349 0.97852 0.0
H1941 H 0.26097 0.58258 0.9808 0.0
H1942 H 0.24961 0.6032 1.00138 0.0
H1943 H 0.26393 0.61327 0.97546 0.0
H1944 H 0.20399 0.66054 0.92634 0.0
H1945 H 0.18499 0.68082 0.95874 0.0
H1946 H 0.20793 0.62687 0.00597 0.0
C1947 C 0.23773 0.57575 0.93231 0.0
C1948 C 0.23597 0.57489 0.90786 0.0
C1949 C 0.23036 0.59533 0.8955 0.0
C1950 C 0.22498 0.61592 0.90744 0.0
C1951 C 0.22566 0.61581 0.93168 0.0
C1952 C 0.23229 0.5963 0.94397 0.0
C1953 C 0.22881 0.59959 0.96983 0.0
C1954 C 0.21236 0.58105 0.97989 0.0
C1955 C 0.25223 0.59968 0.98261 0.0
C1956 C 0.2178 0.62341 0.97013 0.0
C1957 C 0.21665 0.63274 0.94804 0.0
C1958 C 0.20534 0.65367 0.94376 0.0
C1959 C 0.1946 0.66512 0.96238 0.0
C1960 C 0.19497 0.65552 0.98506 0.0
C1961 C 0.20728 0.63467 0.98891 0.0
H1962 H 0.89969 0.63113 0.30322 0.0
H1963 H 0.92063 0.57882 0.25324 0.0
H1964 H 0.89419 0.55066 0.27176 0.0
H1965 H 0.89341 0.59237 0.3527 0.0
H1966 H 0.86825 0.60724 0.36386 0.0
H1967 H 0.8898 0.62301 0.34755 0.0
H1968 H 0.85824 0.63707 0.31886 0.0
H1969 H 0.83656 0.62162 0.33519 0.0
H1970 H 0.83997 0.61605 0.3046 0.0
H1971 H 0.86356 0.52911 0.29373 0.0
H1972 H 0.82982 0.5161 0.31692 0.0
H1973 H 0.82917 0.58194 0.35318 0.0
C1974 C 0.89866 0.6138 0.29607 0.0
C1975 C 0.91228 0.60721 0.27672 0.0
C1976 C 0.91058 0.58422 0.26817 0.0
C1977 C 0.89561 0.5681 0.27858 0.0
C1978 C 0.88254 0.57515 0.29766 0.0
C1979 C 0.88387 0.59746 0.30632 0.0
C1980 C 0.86723 0.60088 0.32643 0.0
C1981 C 0.88047 0.60618 0.34897 0.0
C1982 C 0.84945 0.62003 0.32093 0.0
C1983 C 0.8559 0.57715 0.32735 0.0
C1984 C 0.86515 0.56252 0.31071 0.0
C1985 C 0.85643 0.54026 0.30706 0.0
C1986 C 0.83736 0.53298 0.32031 0.0
C1987 C 0.82732 0.54786 0.33707 0.0
C1988 C 0.83704 0.57001 0.34097 0.0
H1989 H 0.86265 0.87395 0.98881 0.0
H1990 H 0.82342 0.81076 0.97731 0.0
H1991 H 0.79402 0.83289 0.95541 0.0
H1992 H 0.81282 0.91167 0.99653 0.0
H1993 H 0.82624 0.93585 0.9819 0.0
H1994 H 0.84394 0.91498 0.997 0.0
H1995 H 0.86755 0.90775 0.95935 0.0
H1996 H 0.84986 0.92852 0.94414 0.0
H1997 H 0.85256 0.89935 0.93322 0.0
H1998 H 0.76996 0.86189 0.93252 0.0
H1999 H 0.75203 0.89606 0.91316 0.0
H2000 H 0.80617 0.94006 0.94113 0.0
C2001 C 0.84783 0.86484 0.98173 0.0
C2002 C 0.84528 0.84069 0.98488 0.0
C2003 C 0.82557 0.82933 0.97545 0.0
C2004 C 0.80885 0.84172 0.96283 0.0
C2005 C 0.81196 0.86551 0.95992 0.0
C2006 C 0.83085 0.87698 0.9693 0.0
C2007 C 0.8301 0.90264 0.96381 0.0
C2008 C 0.82815 0.91713 0.98614 0.0
C2009 C 0.85127 0.90998 0.94927 0.0
C2010 C 0.80796 0.90378 0.94974 0.0
C2011 C 0.79778 0.88219 0.94749 0.0
C2012 C 0.77763 0.87892 0.9344 0.0
C2013 C 0.76759 0.8983 0.92346 0.0
C2014 C 0.7776 0.92053 0.92606 0.0
C2015 C 0.79801 0.92322 0.93931 0.0
H2016 H 0.22737 0.08992 0.09395 0.0
H2017 H 0.27655 0.13384 0.13004 0.0
H2018 H 0.26168 0.16806 0.10879 0.0
H2019 H 0.22829 0.12019 0.03824 0.0
H2020 H 0.19755 0.11688 0.03344 0.0
H2021 H 0.21313 0.09556 0.05019 0.0
H2022 H 0.18465 0.1016 0.08447 0.0
H2023 H 0.16901 0.12294 0.06785 0.0
H2024 H 0.18039 0.13036 0.09601 0.0
H2025 H 0.24161 0.19715 0.08431 0.0
H2026 H 0.21545 0.2206 0.0601 0.0
H2027 H 0.17722 0.15861 0.04088 0.0
C2028 C 0.23514 0.10674 0.09705 0.0
C2029 C 0.25325 0.10938 0.1134 0.0
C2030 C 0.26269 0.13163 0.11755 0.0
C2031 C 0.25443 0.15105 0.10551 0.0
C2032 C 0.2365 0.14794 0.08959 0.0
C2033 C 0.22676 0.12643 0.08547 0.0
C2034 C 0.20666 0.12823 0.06852 0.0
C2035 C 0.21172 0.11439 0.04628 0.0
C2036 C 0.18383 0.12032 0.0799 0.0
C2037 C 0.20658 0.15415 0.06385 0.0
C2038 C 0.22421 0.16503 0.07597 0.0
C2039 C 0.22782 0.18884 0.07465 0.0
C2040 C 0.21294 0.20198 0.06071 0.0
C2041 C 0.19449 0.19139 0.04835 0.0
C2042 C 0.19126 0.16712 0.05002 0.0
H2043 H 0.22034 0.90545 0.41309 0.0
H2044 H 0.27903 0.86085 0.39815 0.0
H2045 H 0.26305 0.83098 0.42448 0.0
H2046 H 0.21288 0.8893 0.47408 0.0
H2047 H 0.18163 0.88982 0.47263 0.0
H2048 H 0.19848 0.90848 0.454 0.0
H2049 H 0.17789 0.8913 0.41788 0.0
H2050 H 0.16091 0.87273 0.4364 0.0
H2051 H 0.1781 0.86034 0.41339 0.0
H2052 H 0.24056 0.80583 0.45099 0.0
H2053 H 0.2112 0.7847 0.47328 0.0
H2054 H 0.16593 0.84502 0.4712 0.0
C2055 C 0.22988 0.88947 0.41565 0.0
C2056 C 0.25097 0.88538 0.40378 0.0
C2057 C 0.26281 0.86415 0.40705 0.0
C2058 C 0.25397 0.84723 0.42209 0.0
C2059 C 0.23316 0.85178 0.43356 0.0
C2060 C 0.22109 0.87223 0.43036 0.0
C2061 C 0.19827 0.87194 0.44353 0.0
C2062 C 0.1978 0.89102 0.46217 0.0
C2063 C 0.17758 0.87421 0.4268 0.0
C2064 C 0.1993 0.84798 0.45439 0.0
C2065 C 0.21979 0.8369 0.44866 0.0
C2066 C 0.22457 0.8144 0.45585 0.0
C2067 C 0.20777 0.80262 0.4688 0.0
C2068 C 0.18627 0.81326 0.47448 0.0
C2069 C 0.1822 0.83642 0.46736 0.0
H2070 H 0.13995 0.49692 0.80569 0.0
H2071 H 0.18745 0.54729 0.83494 0.0
H2072 H 0.16584 0.57895 0.81576 0.0
H2073 H 0.13009 0.52881 0.74934 0.0
H2074 H 0.09998 0.52032 0.74855 0.0
H2075 H 0.12123 0.50143 0.76157 0.0
H2076 H 0.09754 0.50064 0.79972 0.0
H2077 H 0.07616 0.51932 0.78688 0.0
H2078 H 0.09002 0.52764 0.81365 0.0
H2079 H 0.13505 0.60523 0.79947 0.0
H2080 H 0.09831 0.62346 0.78698 0.0
H2081 H 0.07265 0.55611 0.76522 0.0
C2082 C 0.14602 0.5146 0.80759 0.0
C2083 C 0.16535 0.5197 0.8217 0.0
C2084 C 0.17286 0.54301 0.82392 0.0
C2085 C 0.16069 0.56109 0.81309 0.0
C2086 C 0.14137 0.55554 0.79965 0.0
C2087 C 0.13432 0.53279 0.79654 0.0
C2088 C 0.11201 0.53155 0.78276 0.0
C2089 C 0.11608 0.51984 0.75915 0.0
C2090 C 0.09281 0.51907 0.79659 0.0
C2091 C 0.10682 0.55715 0.77991 0.0
C2092 C 0.1241 0.57077 0.78945 0.0
C2093 C 0.1217 0.5948 0.79135 0.0
C2094 C 0.1008 0.60506 0.78409 0.0
C2095 C 0.08255 0.59126 0.77512 0.0
C2096 C 0.08622 0.56717 0.77206 0.0
H2097 H 0.78032 0.59737 0.42469 0.0
H2098 H 0.71737 0.63704 0.41429 0.0
H2099 H 0.73104 0.66634 0.44244 0.0
H2100 H 0.78931 0.61256 0.48763 0.0
H2101 H 0.82033 0.61478 0.48409 0.0
H2102 H 0.80395 0.59475 0.4665 0.0
H2103 H 0.82067 0.61364 0.42929 0.0
H2104 H 0.83706 0.6337 0.44667 0.0
H2105 H 0.81734 0.64444 0.4249 0.0
H2106 H 0.75291 0.69319 0.46712 0.0
H2107 H 0.78235 0.71774 0.48512 0.0
H2108 H 0.83246 0.66152 0.48022 0.0
C2109 C 0.76924 0.61192 0.42898 0.0
C2110 C 0.74772 0.615 0.41765 0.0
C2111 C 0.73386 0.63451 0.42293 0.0
C2112 C 0.74141 0.65108 0.43898 0.0
C2113 C 0.76295 0.64789 0.44951 0.0
C2114 C 0.77675 0.62887 0.44474 0.0
C2115 C 0.80032 0.63117 0.45629 0.0
C2116 C 0.80367 0.61219 0.47473 0.0
C2117 C 0.82 0.63072 0.43821 0.0
C2118 C 0.79793 0.65494 0.4674 0.0
C2119 C 0.77599 0.6639 0.46371 0.0
C2120 C 0.76998 0.68619 0.47063 0.0
C2121 C 0.78694 0.69999 0.4811 0.0
C2122 C 0.80985 0.6916 0.48461 0.0
C2123 C 0.81516 0.6685 0.47802 0.0
H2124 H 0.35056 0.48966 0.33145 0.0
H2125 H 0.34026 0.44161 0.38838 0.0
H2126 H 0.36416 0.41236 0.36812 0.0
H2127 H 0.35118 0.44622 0.28428 0.0
H2128 H 0.37377 0.46109 0.26854 0.0
H2129 H 0.35377 0.47733 0.28631 0.0
H2130 H 0.38825 0.49526 0.30898 0.0
H2131 H 0.40828 0.47925 0.29118 0.0
H2132 H 0.40932 0.47635 0.3223 0.0
H2133 H 0.39106 0.38939 0.34303 0.0
H2134 H 0.42224 0.37589 0.31709 0.0
H2135 H 0.41557 0.43885 0.2763 0.0
C2136 C 0.35313 0.47284 0.33941 0.0
C2137 C 0.34368 0.46786 0.36144 0.0
C2138 C 0.34762 0.44584 0.37162 0.0
C2139 C 0.36092 0.42903 0.36012 0.0
C2140 C 0.37015 0.43452 0.33845 0.0
C2141 C 0.36658 0.45595 0.32825 0.0
C2142 C 0.38016 0.45819 0.30585 0.0
C2143 C 0.36373 0.46086 0.28501 0.0
C2144 C 0.39753 0.47845 0.30717 0.0
C2145 C 0.39244 0.43495 0.3054 0.0
C2146 C 0.38602 0.42137 0.32409 0.0
C2147 C 0.396 0.39973 0.32814 0.0
C2148 C 0.4136 0.39211 0.31317 0.0
C2149 C 0.42129 0.40624 0.29455 0.0
C2150 C 0.40999 0.42761 0.2903 0.0
H2151 H 0.30877 0.83038 0.52433 0.0
H2152 H 0.3727 0.83152 0.56401 0.0
H2153 H 0.35679 0.86267 0.5887 0.0
H2154 H 0.29646 0.89457 0.52894 0.0
H2155 H 0.26566 0.88959 0.5313 0.0
H2156 H 0.28343 0.87005 0.51452 0.0
H2157 H 0.26816 0.83554 0.5389 0.0
H2158 H 0.25065 0.85492 0.55599 0.0
H2159 H 0.27134 0.83612 0.57002 0.0
H2160 H 0.33167 0.88825 0.61319 0.0
H2161 H 0.30034 0.91012 0.63299 0.0
H2162 H 0.2533 0.89441 0.5767 0.0
C2163 C 0.31965 0.83773 0.53777 0.0
C2164 C 0.34206 0.82867 0.54213 0.0
C2165 C 0.3557 0.83849 0.56005 0.0
C2166 C 0.34673 0.85609 0.57428 0.0
C2167 C 0.32424 0.86397 0.57012 0.0
C2168 C 0.31105 0.85551 0.55196 0.0
C2169 C 0.28687 0.86595 0.55213 0.0
C2170 C 0.28288 0.88094 0.53043 0.0
C2171 C 0.26816 0.847 0.5544 0.0
C2172 C 0.28818 0.88077 0.57382 0.0
C2173 C 0.30994 0.87942 0.58389 0.0
C2174 C 0.31477 0.88988 0.60517 0.0
C2175 C 0.29694 0.9021 0.61635 0.0
C2176 C 0.27472 0.90397 0.60614 0.0
C2177 C 0.27035 0.89342 0.58452 0.0
H2178 H 0.15286 0.49775 0.6827 0.0
H2179 H 0.16639 0.45521 0.62242 0.0
H2180 H 0.14474 0.42266 0.6402 0.0
H2181 H 0.15418 0.44955 0.72658 0.0
H2182 H 0.13057 0.46167 0.74313 0.0
H2183 H 0.15016 0.48055 0.72764 0.0
H2184 H 0.11575 0.49926 0.7058 0.0
H2185 H 0.09593 0.48094 0.72143 0.0
H2186 H 0.09573 0.48101 0.69015 0.0
H2187 H 0.11809 0.39687 0.66202 0.0
H2188 H 0.08571 0.3806 0.68466 0.0
H2189 H 0.0889 0.43953 0.73144 0.0
C2190 C 0.15155 0.48135 0.67364 0.0
C2191 C 0.16111 0.4787 0.6513 0.0
C2192 C 0.15896 0.45732 0.63953 0.0
C2193 C 0.14694 0.43877 0.6496 0.0
C2194 C 0.13725 0.44194 0.67152 0.0
C2195 C 0.13936 0.46269 0.68344 0.0
C2196 C 0.12514 0.46236 0.70557 0.0
C2197 C 0.14096 0.46361 0.727 0.0
C2198 C 0.10706 0.48205 0.70572 0.0
C2199 C 0.11374 0.43871 0.70354 0.0
C2200 C 0.1215 0.42697 0.68412 0.0
C2201 C 0.11219 0.40564 0.67754 0.0
C2202 C 0.09387 0.39644 0.69063 0.0
C2203 C 0.08484 0.40869 0.70993 0.0
C2204 C 0.09552 0.4297 0.71685 0.0
H2205 H 0.92308 0.09825 0.69578 0.0
H2206 H 0.91603 0.06468 0.76266 0.0
H2207 H 0.88464 0.03985 0.74681 0.0
H2208 H 0.8618 0.09694 0.67857 0.0
H2209 H 0.86875 0.09075 0.64871 0.0
H2210 H 0.88866 0.10726 0.66626 0.0
H2211 H 0.92137 0.07776 0.65658 0.0
H2212 H 0.9014 0.06116 0.63927 0.0
H2213 H 0.9169 0.04745 0.66272 0.0
H2214 H 0.85551 0.01726 0.72268 0.0
H2215 H 0.83118 0.99882 0.69251 0.0
H2216 H 0.85853 0.04679 0.64134 0.0
C2217 C 0.91442 0.08618 0.70727 0.0
C2218 C 0.92157 0.08369 0.73056 0.0
C2219 C 0.91053 0.06703 0.74485 0.0
C2220 C 0.89276 0.05287 0.73597 0.0
C2221 C 0.88646 0.05547 0.71274 0.0
C2222 C 0.89697 0.07175 0.6986 0.0
C2223 C 0.88831 0.07002 0.67386 0.0
C2224 C 0.87615 0.09258 0.66642 0.0
C2225 C 0.90818 0.06373 0.65713 0.0
C2226 C 0.87125 0.05021 0.67623 0.0
C2227 C 0.87032 0.04209 0.69877 0.0
C2228 C 0.85603 0.02358 0.70501 0.0
C2229 C 0.84226 0.01323 0.68777 0.0
C2230 C 0.84302 0.02125 0.66454 0.0
C2231 C 0.85778 0.03999 0.65882 0.0
H2232 H 0.55955 0.6712 0.68242 0.0
H2233 H 0.48715 0.68922 0.67316 0.0
H2234 H 0.49793 0.71515 0.64039 0.0
H2235 H 0.58089 0.72755 0.6743 0.0
H2236 H 0.60716 0.71859 0.65985 0.0
H2237 H 0.59331 0.69948 0.68029 0.0
H2238 H 0.59115 0.66723 0.64902 0.0
H2239 H 0.60513 0.68622 0.62848 0.0
H2240 H 0.57748 0.67332 0.62155 0.0
H2241 H 0.51752 0.73997 0.60893 0.0
H2242 H 0.54409 0.7635 0.58434 0.0
H2243 H 0.60329 0.73113 0.61731 0.0
C2244 C 0.54592 0.6802 0.6731 0.0
C2245 C 0.52249 0.67788 0.67981 0.0
C2246 C 0.50516 0.69058 0.66792 0.0
C2247 C 0.51114 0.7053 0.64936 0.0
C2248 C 0.53454 0.70736 0.6433 0.0
C2249 C 0.55163 0.69525 0.65501 0.0
C2250 C 0.57563 0.70186 0.64668 0.0
C2251 C 0.59008 0.71251 0.66646 0.0
C2252 C 0.58807 0.68091 0.63578 0.0
C2253 C 0.5695 0.71979 0.62857 0.0
C2254 C 0.54573 0.72247 0.62647 0.0
C2255 C 0.53613 0.73801 0.61054 0.0
C2256 C 0.55126 0.75126 0.59666 0.0
C2257 C 0.5756 0.74924 0.59928 0.0
C2258 C 0.58472 0.73319 0.6153 0.0
H2259 H 0.93991 0.22519 0.581 0.0
H2260 H 0.87356 0.18967 0.57937 0.0
H2261 H 0.8865 0.16404 0.61111 0.0
H2262 H 0.97386 0.17741 0.58782 0.0
H2263 H 0.99474 0.18991 0.60746 0.0
H2264 H 0.97914 0.20825 0.58763 0.0
H2265 H 0.9642 0.23337 0.62177 0.0
H2266 H 0.98014 0.21537 0.64177 0.0
H2267 H 0.9494 0.21967 0.6457 0.0
H2268 H 0.90894 0.13809 0.63761 0.0
H2269 H 0.93776 0.11658 0.66089 0.0
H2270 H 0.98924 0.16943 0.6467 0.0
C2271 C 0.92785 0.21253 0.58791 0.0
C2272 C 0.9057 0.20947 0.57782 0.0
C2273 C 0.89046 0.19255 0.58708 0.0
C2274 C 0.89772 0.17782 0.60502 0.0
C2275 C 0.92009 0.18056 0.61381 0.0
C2276 C 0.93476 0.19786 0.60598 0.0
C2277 C 0.95848 0.19609 0.61724 0.0
C2278 C 0.97767 0.19271 0.59894 0.0
C2279 C 0.96333 0.21739 0.63253 0.0
C2280 C 0.9552 0.17447 0.6318 0.0
C2281 C 0.9329 0.16584 0.62962 0.0
C2282 C 0.92628 0.14496 0.63985 0.0
C2283 C 0.9428 0.13272 0.6528 0.0
C2284 C 0.96563 0.14139 0.65553 0.0
C2285 C 0.9718 0.16264 0.64506 0.0
H2286 H 0.41964 0.74927 0.62572 0.0
H2287 H 0.43114 0.78908 0.56284 0.0
H2288 H 0.45861 0.81423 0.58371 0.0
H2289 H 0.41773 0.79587 0.66328 0.0
H2290 H 0.43247 0.78168 0.68694 0.0
H2291 H 0.4165 0.76474 0.6662 0.0
H2292 H 0.45347 0.74033 0.65749 0.0
H2293 H 0.46942 0.75727 0.67839 0.0
H2294 H 0.47983 0.75492 0.649 0.0
H2295 H 0.48091 0.83814 0.61259 0.0
H2296 H 0.49621 0.8585 0.64716 0.0
H2297 H 0.46962 0.80333 0.69099 0.0
C2298 C 0.42813 0.7631 0.61628 0.0
C2299 C 0.42325 0.76706 0.59261 0.0
C2300 C 0.43482 0.78536 0.58086 0.0
C2301 C 0.45046 0.79982 0.5926 0.0
C2302 C 0.45454 0.79568 0.61604 0.0
C2303 C 0.44383 0.77765 0.62771 0.0
C2304 C 0.44981 0.77793 0.65325 0.0
C2305 C 0.42782 0.7802 0.66829 0.0
C2306 C 0.46397 0.75632 0.65992 0.0
C2307 C 0.46459 0.79961 0.65432 0.0
C2308 C 0.46749 0.80939 0.63264 0.0
C2309 C 0.4791 0.83042 0.62961 0.0
C2310 C 0.48762 0.84192 0.64933 0.0
C2311 C 0.48437 0.83239 0.67175 0.0
C2312 C 0.47305 0.81075 0.67408 0.0
H2313 H 0.03303 0.34142 0.66261 0.0
H2314 H 0.97122 0.35832 0.62321 0.0
H2315 H 0.98468 0.33316 0.59125 0.0
H2316 H 0.07169 0.34279 0.61491 0.0
H2317 H 0.08958 0.31907 0.62466 0.0
H2318 H 0.07416 0.33656 0.64546 0.0
H2319 H 0.05453 0.29969 0.66211 0.0
H2320 H 0.06989 0.28206 0.64132 0.0
H2321 H 0.03868 0.2807 0.64296 0.0
H2322 H 0.00539 0.30863 0.563 0.0
H2323 H 0.03288 0.28742 0.53865 0.0
H2324 H 0.08221 0.28546 0.5957 0.0
C2325 C 0.0222 0.33943 0.64739 0.0
C2326 C 1.00101 0.35168 0.64534 0.0
C2327 C 0.98753 0.34915 0.625 0.0
C2328 C 0.99496 0.33479 0.60687 0.0
C2329 C 0.016 0.32314 0.6093 0.0
C2330 C 0.02954 0.32532 0.62895 0.0
C2331 C 0.05221 0.31211 0.62627 0.0
C2332 C 0.07314 0.32862 0.62792 0.0
C2333 C 0.05392 0.29247 0.64423 0.0
C2334 C 0.04942 0.30253 0.60188 0.0
C2335 C 0.02823 0.30891 0.59265 0.0
C2336 C 0.02187 0.30315 0.57014 0.0
C2337 C 0.03765 0.29079 0.55649 0.0
C2338 C 0.05971 0.28413 0.56526 0.0
C2339 C 0.0655 0.29002 0.58844 0.0
H2340 H 0.57523 0.23989 0.86769 0.0
H2341 H 0.55083 0.27077 0.93196 0.0
H2342 H 0.52818 0.29929 0.90942 0.0
H2343 H 0.58264 0.29147 0.83689 0.0
H2344 H 0.57312 0.27961 0.80957 0.0
H2345 H 0.58611 0.26095 0.83093 0.0
H2346 H 0.54979 0.23437 0.82998 0.0
H2347 H 0.53657 0.25299 0.80862 0.0
H2348 H 0.5216 0.24676 0.83534 0.0
H2349 H 0.51046 0.32658 0.87903 0.0
H2350 H 0.49874 0.34872 0.84395 0.0
H2351 H 0.53431 0.2984 0.80076 0.0
C2352 C 0.56483 0.25222 0.87724 0.0
C2353 C 0.5649 0.25284 0.90175 0.0
C2354 C 0.5513 0.26988 0.91323 0.0
C2355 C 0.53824 0.28614 0.90056 0.0
C2356 C 0.53884 0.28509 0.87639 0.0
C2357 C 0.55172 0.26842 0.86493 0.0
C2358 C 0.55034 0.27133 0.83892 0.0
C2359 C 0.57448 0.27613 0.82848 0.0
C2360 C 0.5389 0.25009 0.82753 0.0
C2361 C 0.53489 0.29244 0.83746 0.0
C2362 C 0.52836 0.30023 0.85917 0.0
C2363 C 0.51519 0.32039 0.86194 0.0
C2364 C 0.50867 0.33289 0.84198 0.0
C2365 C 0.5152 0.32502 0.81963 0.0
C2366 C 0.52837 0.30447 0.81753 0.0
H2367 H 0.5909 0.16291 0.45267 0.0
H2368 H 0.61479 0.22431 0.41619 0.0
H2369 H 0.59451 0.21094 0.38081 0.0
H2370 H 0.59196 0.12254 0.40235 0.0
H2371 H 0.56591 0.10806 0.41187 0.0
H2372 H 0.58545 0.12051 0.43288 0.0
H2373 H 0.55151 0.14465 0.44999 0.0
H2374 H 0.53195 0.13247 0.42895 0.0
H2375 H 0.53511 0.16351 0.43117 0.0
H2376 H 0.56816 0.19292 0.35093 0.0
H2377 H 0.53878 0.17192 0.32866 0.0
H2378 H 0.52993 0.12356 0.38594 0.0
C2379 C 0.59214 0.17344 0.43716 0.0
C2380 C 0.60437 0.19474 0.43724 0.0
C2381 C 0.60577 0.20783 0.41649 0.0
C2382 C 0.59422 0.2004 0.39635 0.0
C2383 C 0.58153 0.17978 0.39722 0.0
C2384 C 0.58062 0.16639 0.41706 0.0
C2385 C 0.56433 0.14596 0.41416 0.0
C2386 C 0.57771 0.12291 0.41538 0.0
C2387 C 0.54456 0.14671 0.43213 0.0
C2388 C 0.55543 0.15045 0.38989 0.0
C2389 C 0.56588 0.16976 0.38027 0.0
C2390 C 0.55994 0.17771 0.35829 0.0
C2391 C 0.54285 0.16569 0.34584 0.0
C2392 C 0.53151 0.14597 0.35548 0.0
C2393 C 0.53819 0.13832 0.37781 0.0
H2394 H 0.41272 0.19922 0.91942 0.0
H2395 H 0.42772 0.27168 0.90681 0.0
H2396 H 0.4577 0.26052 0.87796 0.0
H2397 H 0.47488 0.17874 0.91183 0.0
H2398 H 0.46545 0.15199 0.89865 0.0
H2399 H 0.44775 0.16577 0.92048 0.0
H2400 H 0.4129 0.16608 0.89206 0.0
H2401 H 0.43042 0.15245 0.87016 0.0
H2402 H 0.41615 0.1796 0.86403 0.0
H2403 H 0.47885 0.24161 0.84527 0.0
H2404 H 0.49292 0.21706 0.81387 0.0
H2405 H 0.46937 0.15588 0.85154 0.0
C2406 C 0.42277 0.21261 0.91088 0.0
C2407 C 0.41803 0.23625 0.91499 0.0
C2408 C 0.43134 0.2535 0.90376 0.0
C2409 C 0.44834 0.24729 0.88746 0.0
C2410 C 0.4522 0.22376 0.88327 0.0
C2411 C 0.44022 0.20667 0.8951 0.0
C2412 C 0.44675 0.18272 0.88651 0.0
C2413 C 0.45947 0.169 0.9055 0.0
C2414 C 0.42528 0.16945 0.87766 0.0
C2415 C 0.46302 0.18905 0.86686 0.0
C2416 C 0.46605 0.21278 0.8654 0.0
C2417 C 0.47749 0.22293 0.84676 0.0
C2418 C 0.48566 0.20857 0.82892 0.0
C2419 C 0.48271 0.18406 0.82983 0.0
C2420 C 0.47195 0.17436 0.84972 0.0
H2421 H 0.43254 0.27166 0.41315 0.0
H2422 H 0.37672 0.32049 0.42645 0.0
H2423 H 0.3943 0.34806 0.39901 0.0
H2424 H 0.47687 0.3115 0.41216 0.0
H2425 H 0.4934 0.29852 0.38897 0.0
H2426 H 0.47475 0.28077 0.40664 0.0
H2427 H 0.45302 0.26641 0.37003 0.0
H2428 H 0.47186 0.28387 0.35215 0.0
H2429 H 0.44083 0.28727 0.35017 0.0
H2430 H 0.42091 0.37281 0.37566 0.0
H2431 H 0.45294 0.39148 0.35399 0.0
H2432 H 0.49115 0.3268 0.35418 0.0
C2433 C 0.42368 0.28788 0.40974 0.0
C2434 C 0.40306 0.29373 0.42177 0.0
C2435 C 0.39216 0.31528 0.41706 0.0
C2436 C 0.40214 0.3312 0.40162 0.0
C2437 C 0.42289 0.32525 0.39075 0.0
C2438 C 0.43333 0.30393 0.39418 0.0
C2439 C 0.45634 0.30251 0.3814 0.0
C2440 C 0.47652 0.29807 0.39831 0.0
C2441 C 0.45545 0.28391 0.3623 0.0
C2442 C 0.45762 0.32668 0.37109 0.0
C2443 C 0.4381 0.33948 0.37668 0.0
C2444 C 0.43606 0.36284 0.37078 0.0
C2445 C 0.45438 0.37336 0.35873 0.0
C2446 C 0.47436 0.3605 0.35254 0.0
C2447 C 0.47587 0.33682 0.35857 0.0
H2448 H 0.63457 0.61162 0.73471 0.0
H2449 H 0.57245 0.57066 0.72354 0.0
H2450 H 0.59516 0.54249 0.70049 0.0
H2451 H 0.65894 0.60391 0.67846 0.0
H2452 H 0.68845 0.60207 0.68866 0.0
H2453 H 0.66736 0.61854 0.7048 0.0
H2454 H 0.67633 0.5943 0.74162 0.0
H2455 H 0.69753 0.57781 0.72561 0.0
H2456 H 0.6742 0.56311 0.7404 0.0
H2457 H 0.62471 0.52005 0.6762 0.0
H2458 H 0.65918 0.50398 0.65571 0.0
H2459 H 0.70155 0.55913 0.68428 0.0
C2460 C 0.62579 0.59668 0.72748 0.0
C2461 C 0.60179 0.5933 0.73099 0.0
C2462 C 0.59091 0.57343 0.72137 0.0
C2463 C 0.60363 0.55742 0.7081 0.0
C2464 C 0.62726 0.56141 0.70477 0.0
C2465 C 0.63826 0.58045 0.71441 0.0
C2466 C 0.66379 0.58083 0.70836 0.0
C2467 C 0.66999 0.60263 0.69423 0.0
C2468 C 0.67884 0.57889 0.73031 0.0
C2469 C 0.66545 0.55914 0.69368 0.0
C2470 C 0.64421 0.5482 0.69159 0.0
C2471 C 0.64148 0.52831 0.67798 0.0
C2472 C 0.66104 0.51933 0.66639 0.0
C2473 C 0.68295 0.53009 0.66886 0.0
C2474 C 0.68504 0.55027 0.68258 0.0
H2475 H 0.811 0.15385 0.50538 0.0
H2476 H 0.87578 0.16002 0.54279 0.0
H2477 H 0.85835 0.14008 0.57663 0.0
H2478 H 0.77195 0.15991 0.55674 0.0
H2479 H 0.75165 0.1384 0.54672 0.0
H2480 H 0.76745 0.15581 0.52606 0.0
H2481 H 0.78317 0.11937 0.50592 0.0
H2482 H 0.76754 0.1012 0.52591 0.0
H2483 H 0.79842 0.09772 0.52262 0.0
H2484 H 0.83592 0.11604 0.60406 0.0
H2485 H 0.81114 0.08687 0.62263 0.0
H2486 H 0.75987 0.09562 0.56805 0.0
C2487 C 0.8212 0.15124 0.52093 0.0
C2488 C 0.84462 0.15829 0.52179 0.0
C2489 C 0.85782 0.15452 0.54208 0.0
C2490 C 0.848 0.14344 0.56133 0.0
C2491 C 0.82494 0.13628 0.55995 0.0
C2492 C 0.81166 0.13994 0.54028 0.0
C2493 C 0.78806 0.12845 0.54258 0.0
C2494 C 0.76863 0.14674 0.54305 0.0
C2495 C 0.7841 0.11063 0.52309 0.0
C2496 C 0.79069 0.11674 0.56605 0.0
C2497 C 0.81185 0.12207 0.57598 0.0
C2498 C 0.81909 0.11209 0.59673 0.0
C2499 C 0.80471 0.09559 0.60729 0.0
C2500 C 0.78332 0.08902 0.59702 0.0
C2501 C 0.77601 0.10033 0.57644 0.0
H2502 H 0.33125 0.98247 0.69163 0.0
H2503 H 0.32984 0.94333 0.62719 0.0
H2504 H 0.36225 0.91951 0.64092 0.0
H2505 H 0.39569 0.97892 0.70106 0.0
H2506 H 0.39223 0.97555 0.73196 0.0
H2507 H 0.37144 0.9923 0.71564 0.0
H2508 H 0.33826 0.96656 0.7317 0.0
H2509 H 0.3589 0.94959 0.74782 0.0
H2510 H 0.33956 0.93557 0.72763 0.0
H2511 H 0.39016 0.89597 0.6634 0.0
H2512 H 0.41418 0.87589 0.69269 0.0
H2513 H 0.39861 0.92967 0.74279 0.0
C2514 C 0.33809 0.96924 0.68018 0.0
C2515 C 0.32791 0.96501 0.6582 0.0
C2516 C 0.33746 0.94742 0.64385 0.0
C2517 C 0.35587 0.9336 0.65157 0.0
C2518 C 0.36484 0.93766 0.6736 0.0
C2519 C 0.35656 0.95526 0.68762 0.0
C2520 C 0.36814 0.95471 0.71128 0.0
C2521 C 0.38275 0.97668 0.71521 0.0
C2522 C 0.35014 0.9514 0.73074 0.0
C2523 C 0.38346 0.93346 0.70864 0.0
C2524 C 0.38136 0.92405 0.68667 0.0
C2525 C 0.39229 0.90339 0.68051 0.0
C2526 C 0.4057 0.89202 0.69725 0.0
C2527 C 0.40811 0.90132 0.71983 0.0
C2528 C 0.39716 0.92248 0.7255 0.0
H2529 H 0.21865 0.40529 0.57784 0.0
H2530 H 0.17326 0.4653 0.57817 0.0
H2531 H 0.14331 0.44305 0.5573 0.0
H2532 H 0.20454 0.38603 0.52115 0.0
H2533 H 0.20491 0.35545 0.52769 0.0
H2534 H 0.22246 0.37519 0.54438 0.0
H2535 H 0.20307 0.36081 0.58231 0.0
H2536 H 0.18569 0.3408 0.56571 0.0
H2537 H 0.17188 0.36136 0.58483 0.0
H2538 H 0.11984 0.41625 0.53386 0.0
H2539 H 0.10202 0.38467 0.51154 0.0
H2540 H 0.1613 0.34057 0.52666 0.0
C2541 C 0.20218 0.41343 0.5739 0.0
C2542 C 0.19806 0.4369 0.57968 0.0
C2543 C 0.17656 0.44727 0.57393 0.0
C2544 C 0.15951 0.43481 0.56206 0.0
C2545 C 0.16419 0.41193 0.55602 0.0
C2546 C 0.18481 0.40113 0.56191 0.0
C2547 C 0.18533 0.37645 0.55259 0.0
C2548 C 0.20551 0.3731 0.53543 0.0
C2549 C 0.18656 0.35881 0.57255 0.0
C2550 C 0.16201 0.37537 0.54029 0.0
C2551 C 0.15022 0.39609 0.54255 0.0
C2552 C 0.1287 0.39977 0.53226 0.0
C2553 C 0.11867 0.38164 0.51965 0.0
C2554 C 0.12999 0.35991 0.51748 0.0
C2555 C 0.15213 0.3569 0.52782 0.0
H2556 H 0.69719 0.41643 0.83105 0.0
H2557 H 0.66236 0.48008 0.85103 0.0
H2558 H 0.62668 0.46662 0.83099 0.0
H2559 H 0.67477 0.41332 0.77478 0.0
H2560 H 0.67209 0.38216 0.77442 0.0
H2561 H 0.69377 0.39573 0.79233 0.0
H2562 H 0.67726 0.37487 0.82861 0.0
H2563 H 0.65563 0.36104 0.81078 0.0
H2564 H 0.64692 0.37788 0.83566 0.0
H2565 H 0.59604 0.44718 0.80596 0.0
H2566 H 0.57227 0.42294 0.78003 0.0
H2567 H 0.62825 0.37273 0.77556 0.0
C2568 C 0.68199 0.42749 0.83139 0.0
C2569 C 0.68252 0.44938 0.84243 0.0
C2570 C 0.66223 0.4632 0.84277 0.0
C2571 C 0.64198 0.45573 0.83135 0.0
C2572 C 0.64237 0.43435 0.81993 0.0
C2573 C 0.66182 0.42035 0.82011 0.0
C2574 C 0.65827 0.39862 0.80581 0.0
C2575 C 0.67576 0.39741 0.78564 0.0
C2576 C 0.65959 0.37681 0.82113 0.0
C2577 C 0.63388 0.4027 0.79711 0.0
C2578 C 0.62494 0.42332 0.80551 0.0
C2579 C 0.60287 0.43098 0.79936 0.0
C2580 C 0.58959 0.41716 0.78436 0.0
C2581 C 0.59843 0.39591 0.77552 0.0
C2582 C 0.62089 0.38871 0.78212 0.0
H2583 H 0.69126 0.16718 0.48441 0.0
H2584 H 0.69376 0.12939 0.54941 0.0
H2585 H 0.71985 0.10054 0.53167 0.0
H2586 H 0.68685 0.12067 0.44887 0.0
H2587 H 0.70505 0.13123 0.42571 0.0
H2588 H 0.69049 0.15144 0.44447 0.0
H2589 H 0.72981 0.17064 0.4547 0.0
H2590 H 0.74466 0.15049 0.4359 0.0
H2591 H 0.75315 0.1531 0.4659 0.0
H2592 H 0.73908 0.07263 0.5058 0.0
H2593 H 0.75069 0.0474 0.47391 0.0
H2594 H 0.73835 0.10353 0.42497 0.0
C2595 C 0.69798 0.15328 0.4951 0.0
C2596 C 0.69042 0.15048 0.51828 0.0
C2597 C 0.69909 0.13172 0.53155 0.0
C2598 C 0.7141 0.11536 0.52168 0.0
C2599 C 0.72058 0.11815 0.49857 0.0
C2600 C 0.71303 0.13676 0.48546 0.0
C2601 C 0.72055 0.13423 0.46034 0.0
C2602 C 0.69948 0.13439 0.4439 0.0
C2603 C 0.73809 0.15324 0.45383 0.0
C2604 C 0.73207 0.11055 0.46111 0.0
C2605 C 0.73235 0.10192 0.48346 0.0
C2606 C 0.73971 0.07948 0.48832 0.0
C2607 C 0.7465 0.06524 0.46988 0.0
C2608 C 0.74591 0.07333 0.4466 0.0
C2609 C 0.73917 0.09664 0.44241 0.0
H2610 H 0.30601 0.06979 0.81394 0.0
H2611 H 0.35024 0.0177 0.84525 0.0
H2612 H 0.38425 0.03417 0.82437 0.0
H2613 H 0.33381 0.07244 0.75803 0.0
H2614 H 0.33052 0.10343 0.75536 0.0
H2615 H 0.30983 0.08691 0.77199 0.0
H2616 H 0.31755 0.11297 0.80782 0.0
H2617 H 0.33818 0.12964 0.79129 0.0
H2618 H 0.34684 0.11642 0.81827 0.0
H2619 H 0.41297 0.05628 0.79953 0.0
H2620 H 0.4351 0.08413 0.77576 0.0
H2621 H 0.37205 0.12289 0.76209 0.0
C2622 C 0.32287 0.06177 0.8162 0.0
C2623 C 0.32567 0.04233 0.83082 0.0
C2624 C 0.34792 0.03252 0.83393 0.0
C2625 C 0.3672 0.04172 0.82212 0.0
C2626 C 0.36381 0.06086 0.80762 0.0
C2627 C 0.34223 0.07093 0.80488 0.0
C2628 C 0.34332 0.09202 0.78925 0.0
C2629 C 0.32849 0.08847 0.76736 0.0
C2630 C 0.33605 0.11406 0.80245 0.0
C2631 C 0.36894 0.0923 0.7835 0.0
C2632 C 0.3804 0.07403 0.79404 0.0
C2633 C 0.40415 0.07061 0.79119 0.0
C2634 C 0.41653 0.08642 0.77747 0.0
C2635 C 0.4052 0.10556 0.76689 0.0
C2636 C 0.38108 0.10842 0.76995 0.0
H2637 H 0.34935 0.38081 0.48696 0.0
H2638 H 0.31827 0.31612 0.46432 0.0
H2639 H 0.29116 0.33786 0.43928 0.0
H2640 H 0.2965 0.4142 0.4887 0.0
H2641 H 0.31002 0.44035 0.47811 0.0
H2642 H 0.3268 0.41961 0.49439 0.0
H2643 H 0.35648 0.41699 0.46061 0.0
H2644 H 0.33977 0.43771 0.44424 0.0
H2645 H 0.34643 0.40978 0.43188 0.0
H2646 H 0.2686 0.36698 0.41492 0.0
H2647 H 0.25115 0.40133 0.39546 0.0
H2648 H 0.29633 0.44646 0.43514 0.0
C2649 C 0.33682 0.37125 0.47675 0.0
C2650 C 0.33584 0.3468 0.47776 0.0
C2651 C 0.3191 0.33488 0.4642 0.0
C2652 C 0.30373 0.34707 0.44975 0.0
C2653 C 0.30523 0.37119 0.44912 0.0
C2654 C 0.32127 0.38314 0.46238 0.0
C2655 C 0.31931 0.40905 0.45865 0.0
C2656 C 0.31276 0.42153 0.48131 0.0
C2657 C 0.34183 0.41896 0.44823 0.0
C2658 C 0.29965 0.40981 0.44128 0.0
C2659 C 0.29185 0.38783 0.43576 0.0
C2660 C 0.27438 0.3843 0.41932 0.0
C2661 C 0.26459 0.4038 0.40837 0.0
C2662 C 0.27209 0.4264 0.41424 0.0
C2663 C 0.28988 0.42933 0.43082 0.0
H2664 H 0.72182 0.6318 0.6178 0.0
H2665 H 0.71884 0.57617 0.56709 0.0
H2666 H 0.69293 0.60005 0.54268 0.0
H2667 H 0.66182 0.6493 0.61275 0.0
H2668 H 0.66848 0.67962 0.6165 0.0
H2669 H 0.68656 0.6579 0.62986 0.0
H2670 H 0.72278 0.67514 0.60936 0.0
H2671 H 0.70486 0.69697 0.59607 0.0
H2672 H 0.72268 0.67845 0.57825 0.0
H2673 H 0.66726 0.63123 0.52344 0.0
H2674 H 0.64681 0.66709 0.51082 0.0
H2675 H 0.666 0.70036 0.57546 0.0
C2676 C 0.71556 0.62438 0.60175 0.0
C2677 C 0.72242 0.60199 0.59454 0.0
C2678 C 0.71411 0.59334 0.57302 0.0
C2679 C 0.69917 0.60671 0.55909 0.0
C2680 C 0.69257 0.62863 0.56696 0.0
C2681 C 0.70059 0.63733 0.58782 0.0
C2682 C 0.69158 0.66151 0.59233 0.0
C2683 C 0.67619 0.6621 0.61415 0.0
C2684 C 0.71167 0.67904 0.59409 0.0
C2685 C 0.67743 0.66529 0.57062 0.0
C2686 C 0.67798 0.64617 0.55616 0.0
C2687 C 0.66664 0.64623 0.53472 0.0
C2688 C 0.65497 0.66655 0.52774 0.0
C2689 C 0.65498 0.68646 0.54212 0.0
C2690 C 0.66588 0.68545 0.56402 0.0
H2691 H 0.69578 0.2968 0.95833 0.0
H2692 H 0.63233 0.33685 0.96449 0.0
H2693 H 0.65434 0.37271 0.95575 0.0
H2694 H 0.73604 0.34171 0.98142 0.0
H2695 H 0.75845 0.33385 0.96106 0.0
H2696 H 0.73842 0.31216 0.97142 0.0
H2697 H 0.72732 0.30215 0.92899 0.0
H2698 H 0.74719 0.32381 0.91853 0.0
H2699 H 0.71709 0.32486 0.91006 0.0
H2700 H 0.68254 0.40334 0.94161 0.0
H2701 H 0.71391 0.42578 0.92304 0.0
H2702 H 0.75873 0.36536 0.92572 0.0
C2703 C 0.68652 0.31315 0.95814 0.0
C2704 C 0.66229 0.31401 0.96202 0.0
C2705 C 0.6509 0.33579 0.96182 0.0
C2706 C 0.66328 0.35623 0.95682 0.0
C2707 C 0.68705 0.35461 0.95234 0.0
C2708 C 0.69856 0.3336 0.95316 0.0
C2709 C 0.7237 0.3361 0.94584 0.0
C2710 C 0.74012 0.33063 0.96615 0.0
C2711 C 0.72912 0.32083 0.92459 0.0
C2712 C 0.72432 0.36162 0.93977 0.0
C2713 C 0.70317 0.37213 0.94405 0.0
C2714 C 0.69927 0.39536 0.93857 0.0
C2715 C 0.71729 0.40802 0.92809 0.0
C2716 C 0.7389 0.39738 0.92296 0.0
C2717 C 0.74245 0.37399 0.92935 0.0
H2718 H 0.65007 0.017 0.34156 0.0
H2719 H 0.65251 0.0625 0.40144 0.0
H2720 H 0.62671 0.09023 0.38152 0.0
H2721 H 0.64901 0.06225 0.29752 0.0
H2722 H 0.62891 0.04695 0.27907 0.0
H2723 H 0.64838 0.03098 0.2976 0.0
H2724 H 0.61346 0.00959 0.31624 0.0
H2725 H 0.59393 0.02532 0.29762 0.0
H2726 H 0.59006 0.02627 0.32864 0.0
H2727 H 0.60046 0.11285 0.35545 0.0
H2728 H 0.57232 0.127 0.32663 0.0
H2729 H 0.58612 0.06682 0.28349 0.0
C2730 C 0.64524 0.03286 0.35038 0.0
C2731 C 0.65324 0.03754 0.37309 0.0
C2732 C 0.64634 0.05837 0.3842 0.0
C2733 C 0.6319 0.07436 0.37292 0.0
C2734 C 0.62442 0.06928 0.35051 0.0
C2735 C 0.63063 0.04895 0.33942 0.0
C2736 C 0.61918 0.04719 0.31579 0.0
C2737 C 0.63746 0.04682 0.29635 0.0
C2738 C 0.60321 0.02583 0.31451 0.0
C2739 C 0.60535 0.06959 0.31548 0.0
C2740 C 0.60894 0.08222 0.33554 0.0
C2741 C 0.59766 0.10321 0.33958 0.0
C2742 C 0.58184 0.11123 0.32296 0.0
C2743 C 0.57717 0.09819 0.30262 0.0
C2744 C 0.58944 0.07727 0.29875 0.0
H2745 H 0.2958 0.12151 0.89248 0.0
H2746 H 0.2374 0.10274 0.93621 0.0
H2747 H 0.25477 0.12461 0.96869 0.0
H2748 H 0.33989 0.11823 0.93682 0.0
H2749 H 0.35584 0.14289 0.92603 0.0
H2750 H 0.33918 0.12522 0.90634 0.0
H2751 H 0.31647 0.1615 0.89249 0.0
H2752 H 0.33333 0.17927 0.91184 0.0
H2753 H 0.30209 0.17958 0.91359 0.0
H2754 H 0.27769 0.15015 0.99591 0.0
H2755 H 0.30352 0.17873 0.01497 0.0
H2756 H 0.34709 0.18016 0.95363 0.0
C2757 C 0.2865 0.12216 0.90877 0.0
C2758 C 0.26517 0.11036 0.91173 0.0
C2759 C 0.25384 0.11142 0.93355 0.0
C2760 C 0.26358 0.12381 0.95212 0.0
C2761 C 0.28476 0.13499 0.94867 0.0
C2762 C 0.29603 0.13436 0.92751 0.0
C2763 C 0.31829 0.14834 0.92814 0.0
C2764 C 0.33956 0.13273 0.9241 0.0
C2765 C 0.31748 0.16836 0.91048 0.0
C2766 C 0.31759 0.15726 0.95285 0.0
C2767 C 0.29818 0.14926 0.96448 0.0
C2768 C 0.29309 0.1563 0.98708 0.0
C2769 C 0.30787 0.17244 0.9978 0.0
C2770 C 0.32753 0.18126 0.98596 0.0
C2771 C 0.33263 0.17313 0.9634 0.0
H2772 H 0.94964 0.91469 0.8473 0.0
H2773 H 0.92018 0.89818 0.78002 0.0
H2774 H 0.88388 0.91836 0.79117 0.0
H2775 H 0.89641 0.9095 0.88099 0.0
H2776 H 0.9038 0.93353 0.89959 0.0
H2777 H 0.92643 0.91609 0.88688 0.0
H2778 H 0.9449 0.95306 0.86906 0.0
H2779 H 0.92226 0.97058 0.88156 0.0
H2780 H 0.92757 0.97157 0.85075 0.0
H2781 H 0.85159 0.94257 0.80923 0.0
H2782 H 0.82569 0.967 0.83288 0.0
H2783 H 0.87774 0.96912 0.88734 0.0
C2784 C 0.93556 0.91521 0.83487 0.0
C2785 C 0.93782 0.90492 0.81271 0.0
C2786 C 0.91879 0.90572 0.79717 0.0
C2787 C 0.89817 0.91728 0.80331 0.0
C2788 C 0.89685 0.92783 0.82507 0.0
C2789 C 0.91502 0.92672 0.84065 0.0
C2790 C 0.9097 0.9401 0.86261 0.0
C2791 C 0.90904 0.92383 0.88376 0.0
C2792 C 0.92714 0.96001 0.86619 0.0
C2793 C 0.88578 0.94925 0.85689 0.0
C2794 C 0.87857 0.94191 0.83523 0.0
C2795 C 0.85709 0.94838 0.82622 0.0
C2796 C 0.84255 0.96251 0.83977 0.0
C2797 C 0.84957 0.9702 0.8621 0.0
C2798 C 0.8716 0.96345 0.87054 0.0
H2799 H 0.85251 0.32421 0.05197 0.0
H2800 H 0.81943 0.32799 0.9846 0.0
H2801 H 0.79421 0.35987 0.99887 0.0
H2802 H 0.80127 0.33038 0.08357 0.0
H2803 H 0.81441 0.34648 0.10693 0.0
H2804 H 0.83155 0.32652 0.09019 0.0
H2805 H 0.86062 0.3598 0.08067 0.0
H2806 H 0.84324 0.37974 0.09737 0.0
H2807 H 0.85 0.38612 0.06751 0.0
H2808 H 0.77049 0.38941 0.02207 0.0
H2809 H 0.74979 0.4123 0.05205 0.0
H2810 H 0.79835 0.38767 0.10397 0.0
C2811 C 0.84059 0.33236 0.03995 0.0
C2812 C 0.83832 0.32413 0.017 0.0
C2813 C 0.82169 0.3344 0.00212 0.0
C2814 C 0.80733 0.35248 0.01009 0.0
C2815 C 0.80972 0.35987 0.03304 0.0
C2816 C 0.82597 0.35005 0.04773 0.0
C2817 C 0.82356 0.35914 0.07222 0.0
C2818 C 0.81734 0.33947 0.08922 0.0
C2819 C 0.84567 0.37197 0.07989 0.0
C2820 C 0.80342 0.37563 0.06913 0.0
C2821 C 0.79569 0.37602 0.04644 0.0
C2822 C 0.77654 0.38932 0.03984 0.0
C2823 C 0.7649 0.40229 0.05696 0.0
C2824 C 0.77228 0.4016 0.08041 0.0
C2825 C 0.79201 0.38832 0.08632 0.0
H2826 H 0.57007 0.93809 0.21345 0.0
H2827 H 0.58623 0.86954 0.1871 0.0
H2828 H 0.61903 0.88595 0.1647 0.0
H2829 H 0.57903 0.96809 0.163 0.0
H2830 H 0.59219 0.99345 0.17573 0.0
H2831 H 0.5724 0.97608 0.19251 0.0
H2832 H 0.60358 0.97047 0.22438 0.0
H2833 H 0.6234 0.98822 0.2079 0.0
H2834 H 0.63178 0.95937 0.21659 0.0
H2835 H 0.64555 0.91068 0.14041 0.0
H2836 H 0.66721 0.94138 0.11953 0.0
H2837 H 0.63516 0.99377 0.16276 0.0
C2838 C 0.58102 0.92647 0.20354 0.0
C2839 C 0.5758 0.90253 0.2021 0.0
C2840 C 0.59023 0.88784 0.18873 0.0
C2841 C 0.60876 0.89705 0.17584 0.0
C2842 C 0.61285 0.9209 0.17687 0.0
C2843 C 0.59972 0.93535 0.19081 0.0
C2844 C 0.60685 0.96052 0.18786 0.0
C2845 C 0.5864 0.97539 0.17926 0.0
C2846 C 0.61701 0.97021 0.21053 0.0
C2847 C 0.6254 0.95812 0.16938 0.0
C2848 C 0.6286 0.9351 0.1633 0.0
C2849 C 0.6435 0.92868 0.14535 0.0
C2850 C 0.65553 0.94618 0.13346 0.0
C2851 C 0.6527 0.96978 0.13962 0.0
C2852 C 0.63766 0.97579 0.15796 0.0
H2853 H 0.34245 0.52628 0.16463 0.0
H2854 H 0.33902 0.57453 0.10711 0.0
H2855 H 0.36226 0.60283 0.1292 0.0
H2856 H 0.34128 0.57008 0.21185 0.0
H2857 H 0.36194 0.55435 0.22927 0.0
H2858 H 0.34263 0.53888 0.21012 0.0
H2859 H 0.37786 0.5193 0.1901 0.0
H2860 H 0.39717 0.53449 0.20933 0.0
H2861 H 0.40072 0.53717 0.17837 0.0
H2862 H 0.38796 0.6247 0.15606 0.0
H2863 H 0.41843 0.63656 0.18361 0.0
H2864 H 0.40562 0.57445 0.22425 0.0
C2865 C 0.34633 0.54296 0.15692 0.0
C2866 C 0.33897 0.54823 0.13415 0.0
C2867 C 0.34468 0.57006 0.1244 0.0
C2868 C 0.35761 0.58636 0.13694 0.0
C2869 C 0.36472 0.58063 0.15929 0.0
C2870 C 0.35948 0.55939 0.16916 0.0
C2871 C 0.37124 0.5567 0.19253 0.0
C2872 C 0.35319 0.5549 0.2121 0.0
C2873 C 0.38772 0.53568 0.19257 0.0
C2874 C 0.3845 0.57941 0.19385 0.0
C2875 C 0.38004 0.59319 0.17475 0.0
C2876 C 0.3914 0.61425 0.17126 0.0
C2877 C 0.40854 0.62098 0.18718 0.0
C2878 C 0.41429 0.60656 0.20624 0.0
C2879 C 0.40147 0.58592 0.20996 0.0
H2880 H 0.0043 0.05274 0.21349 0.0
H2881 H 0.03178 0.05704 0.28347 0.0
H2882 H 0.03777 0.01453 0.28357 0.0
H2883 H 0.97403 0.99863 0.22004 0.0
H2884 H 0.98109 0.98855 0.19128 0.0
H2885 H 0.97874 0.01919 0.19694 0.0
H2886 H 0.02035 0.0254 0.181 0.0
H2887 H 0.02286 0.99477 0.17533 0.0
H2888 H 0.0441 0.00913 0.19324 0.0
H2889 H 0.04012 0.97115 0.27608 0.0
H2890 H 0.03964 0.93094 0.26142 0.0
H2891 H 0.01181 0.95527 0.1958 0.0
C2892 C 0.01146 0.04479 0.22893 0.0
C2893 C 0.01738 0.0583 0.24857 0.0
C2894 C 0.02699 0.04712 0.26825 0.0
C2895 C 0.03047 0.02296 0.26846 0.0
C2896 C 0.02444 0.01019 0.24879 0.0
C2897 C 0.01523 0.02076 0.22935 0.0
C2898 C 0.01056 0.00321 0.2103 0.0
C2899 C 0.98456 0.00235 0.2043 0.0
C2900 C 0.02535 0.00844 0.18869 0.0
C2901 C 0.0184 0.98104 0.22208 0.0
C2902 C 0.02629 0.98542 0.2443 0.0
C2903 C 0.03405 0.96758 0.25868 0.0
C2904 C 0.03368 0.94473 0.25017 0.0
C2905 C 0.02577 0.93981 0.22739 0.0
C2906 C 0.01812 0.95836 0.21322 0.0
H2907 H 0.30887 0.73619 0.99199 0.0
H2908 H 0.31691 0.81097 0.99571 0.0
H2909 H 0.27485 0.81507 0.00227 0.0
H2910 H 0.25205 0.73508 0.96407 0.0
H2911 H 0.24172 0.71088 0.981 0.0
H2912 H 0.27224 0.7137 0.97475 0.0
H2913 H 0.28157 0.71212 0.01867 0.0
H2914 H 0.25109 0.70908 0.02492 0.0
H2915 H 0.26753 0.73222 0.03808 0.0
H2916 H 0.23233 0.81135 0.00963 0.0
H2917 H 0.19184 0.80001 0.01755 0.0
H2918 H 0.21105 0.7274 0.01129 0.0
C2919 C 0.30184 0.75342 0.9939 0.0
C2920 C 0.31638 0.77326 0.99329 0.0
C2921 C 0.30624 0.79549 0.99611 0.0
C2922 C 0.28232 0.79802 0.99984 0.0
C2923 C 0.26863 0.77814 1.00095 0.0
C2924 C 0.27795 0.75624 0.99809 0.0
C2925 C 0.25942 0.73769 1.0013 0.0
C2926 C 0.25617 0.72351 0.97894 0.0
C2927 C 0.26525 0.72185 0.02197 0.0
C2928 C 0.23829 0.75266 0.00637 0.0
C2929 C 0.24404 0.77594 0.00593 0.0
C2930 C 0.22759 0.79318 0.01 0.0
C2931 C 0.2046 0.78655 0.01451 0.0
C2932 C 0.19817 0.76283 0.01512 0.0
C2933 C 0.21537 0.74568 0.01109 0.0
H2934 H 0.0235 0.55784 0.28682 0.0
H2935 H 0.9823 0.56947 0.22488 0.0
H2936 H 0.97293 0.52763 0.22339 0.0
H2937 H 0.04681 0.50194 0.27074 0.0
H2938 H 0.04494 0.49033 0.29972 0.0
H2939 H 0.04897 0.52103 0.29544 0.0
H2940 H 0.01236 0.52933 0.32022 0.0
H2941 H 0.00818 0.49866 0.32453 0.0
H2942 H 0.98515 0.51601 0.31242 0.0
H2943 H 0.96843 0.48419 0.22848 0.0
H2944 H 0.96788 0.44312 0.2405 0.0
H2945 H 0.01059 0.4601 0.30017 0.0
C2946 C 0.01268 0.5516 0.2728 0.0
C2947 C 0.00382 0.56699 0.25582 0.0
C2948 C 0.9894 0.55806 0.23801 0.0
C2949 C 0.98398 0.5343 0.23702 0.0
C2950 C 0.99293 0.51964 0.25408 0.0
C2951 C 0.00688 0.52798 0.2717 0.0
C2952 C 0.0137 0.50871 0.2883 0.0
C2953 C 0.04018 0.5053 0.28855 0.0
C2954 C 0.00428 0.51347 0.31282 0.0
C2955 C 1.00152 0.48819 0.27721 0.0
C2956 C 0.98974 0.49484 0.25742 0.0
C2957 C 0.97751 0.47884 0.24402 0.0
C2958 C 0.97729 0.45549 0.25103 0.0
C2959 C 0.98902 0.44827 0.27141 0.0
C2960 C 1.00127 0.46499 0.28461 0.0
H2961 H 0.81075 0.74428 0.96563 0.0
H2962 H 0.81141 0.75968 0.03931 0.0
H2963 H 0.76859 0.76344 0.03881 0.0
H2964 H 0.76668 0.78543 0.95124 0.0
H2965 H 0.75378 0.76757 0.92904 0.0
H2966 H 0.78422 0.76481 0.93557 0.0
H2967 H 0.77872 0.72083 0.9432 0.0
H2968 H 0.74825 0.72342 0.9367 0.0
H2969 H 0.7574 0.71138 0.96407 0.0
H2970 H 0.7255 0.7656 0.03 0.0
H2971 H 0.68614 0.76845 0.01339 0.0
H2972 H 0.71402 0.75315 0.94507 0.0
C2973 C 0.80189 0.74814 0.98175 0.0
C2974 C 0.81441 0.75137 0.0026 0.0
C2975 C 0.80217 0.75698 0.02317 0.0
C2976 C 0.77785 0.75911 0.02305 0.0
C2977 C 0.76605 0.75583 0.00216 0.0
C2978 C 0.77771 0.75066 0.98186 0.0
C2979 C 0.76115 0.74916 0.96148 0.0
C2980 C 0.76679 0.76786 0.94327 0.0
C2981 C 0.7614 0.72474 0.95074 0.0
C2982 C 0.73827 0.7541 0.97349 0.0
C2983 C 0.74145 0.75776 0.99698 0.0
C2984 C 0.72285 0.76274 0.01164 0.0
C2985 C 0.70051 0.76426 0.00201 0.0
C2986 C 0.69688 0.761 0.97788 0.0
C2987 C 0.71612 0.75569 0.96357 0.0
H2988 H 0.20571 1.00181 0.96005 0.0
H2989 H 0.26419 0.04258 0.93558 0.0
H2990 H 0.27949 0.04461 0.97543 0.0
H2991 H 0.19825 0.03117 0.01472 0.0
H2992 H 0.19125 0.0051 0.03052 0.0
H2993 H 0.18461 0.00714 1.00005 0.0
H2994 H 0.20828 0.9697 0.99224 0.0
H2995 H 0.21495 0.96753 0.02269 0.0
H2996 H 0.23809 0.96813 1.00164 0.0
H2997 H 0.28804 0.04308 0.01835 0.0
H2998 H 0.29036 0.03589 0.0606 0.0
H2999 H 0.22733 0.99477 0.05688 0.0
C3000 C 0.22173 0.01115 0.96306 0.0
C3001 C 0.23368 0.02206 0.9446 0.0
C3002 C 0.2547 0.034 0.94933 0.0
C3003 C 0.26353 0.03533 0.97197 0.0
C3004 C 0.2513 0.02445 0.98976 0.0
C3005 C 0.23096 0.01242 0.98555 0.0
C3006 C 0.22149 1.00184 0.0077 0.0
C3007 C 0.19748 0.01192 0.01359 0.0
C3008 C 0.22066 0.97522 0.00596 0.0
C3009 C 0.23968 0.00976 0.02497 0.0
C3010 C 0.25661 0.02298 0.01433 0.0
C3011 C 0.27495 0.03262 0.02685 0.0
C3012 C 0.27611 0.02848 0.05085 0.0
C3013 C 0.25917 0.01461 0.06204 0.0
C3014 C 0.24071 0.00524 0.04883 0.0
H3015 H 0.24508 0.55286 0.29135 0.0
H3016 H 0.28707 0.49334 0.31035 0.0
H3017 H 0.28859 0.48132 0.26921 0.0
H3018 H 0.21072 0.5231 0.24902 0.0
H3019 H 0.20881 0.54769 0.2298 0.0
H3020 H 0.21214 0.55215 0.26053 0.0
H3021 H 0.24883 0.57711 0.25304 0.0
H3022 H 0.2456 0.57273 0.22227 0.0
H3023 H 0.27246 0.56512 0.23637 0.0
H3024 H 0.28613 0.47643 0.22514 0.0
H3025 H 0.27723 0.47745 0.18305 0.0
H3026 H 0.23468 0.5386 0.19383 0.0
C3027 C 0.25474 0.53737 0.28688 0.0
C3028 C 0.2662 0.52421 0.30412 0.0
C3029 C 0.27828 0.50382 0.2975 0.0
C3030 C 0.27926 0.49686 0.27413 0.0
C3031 C 0.26778 0.51026 0.25756 0.0
C3032 C 0.25554 0.52996 0.26372 0.0
C3033 C 0.24386 0.54081 0.24283 0.0
C3034 C 0.21731 0.54093 0.24573 0.0
C3035 C 0.25325 0.5654 0.23837 0.0
C3036 C 0.25137 0.52416 0.22393 0.0
C3037 C 0.26542 0.50681 0.23264 0.0
C3038 C 0.27497 0.48984 0.2182 0.0
C3039 C 0.26986 0.49056 0.19432 0.0
C3040 C 0.25503 0.5079 0.18518 0.0
C3041 C 0.24578 0.52488 0.2003 0.0
H3042 H 0.7645 0.46862 0.95199 0.0
H3043 H 0.75973 0.54255 0.93792 0.0
H3044 H 0.74795 0.54949 0.97827 0.0
H3045 H 0.71483 0.46567 0.99069 0.0
H3046 H 0.72794 0.44501 0.01017 0.0
H3047 H 0.73607 0.44535 0.97997 0.0
H3048 H 0.77921 0.45034 0.9915 0.0
H3049 H 0.77115 0.44985 0.02169 0.0
H3050 H 0.78748 0.47397 0.01025 0.0
H3051 H 0.7372 0.54915 0.01967 0.0
H3052 H 0.72974 0.54167 0.06099 0.0
H3053 H 0.74027 0.46796 0.04957 0.0
C3054 C 0.76106 0.48626 0.95744 0.0
C3055 C 0.76305 0.50504 0.94161 0.0
C3056 C 0.75832 0.52784 0.94953 0.0
C3057 C 0.75154 0.532 0.97248 0.0
C3058 C 0.74944 0.5132 0.98748 0.0
C3059 C 0.75414 0.49077 0.98045 0.0
C3060 C 0.75069 0.47385 1.00046 0.0
C3061 C 0.73122 0.45645 0.99499 0.0
C3062 C 0.77349 0.46127 0.00632 0.0
C3063 C 0.74358 0.49041 0.01979 0.0
C3064 C 0.74292 0.51298 0.01173 0.0
C3065 C 0.73759 0.53155 0.0262 0.0
C3066 C 0.73336 0.52709 0.04969 0.0
C3067 C 0.73439 0.50423 0.05868 0.0
C3068 C 0.73912 0.48558 0.04333 0.0
H3069 H 0.73722 0.97299 0.20914 0.0
H3070 H 0.72406 0.04492 0.19115 0.0
H3071 H 0.72165 0.05481 0.2328 0.0
H3072 H 0.69801 0.9717 0.25999 0.0
H3073 H 0.71694 0.9528 0.2762 0.0
H3074 H 0.71619 0.95113 0.24497 0.0
H3075 H 0.76064 0.95778 0.24349 0.0
H3076 H 0.76153 0.95954 0.27465 0.0
H3077 H 0.77285 0.98302 0.25736 0.0
H3078 H 0.72535 0.05766 0.27617 0.0
H3079 H 0.7317 0.05271 0.31833 0.0
H3080 H 0.7394 0.97855 0.30865 0.0
C3081 C 0.73356 0.99078 0.21396 0.0
C3082 C 0.73092 0.00822 0.19686 0.0
C3083 C 0.72606 0.03126 0.2039 0.0
C3084 C 0.72469 0.03704 0.22753 0.0
C3085 C 0.72776 0.01952 0.24394 0.0
C3086 C 0.73172 0.99678 0.23747 0.0
C3087 C 0.73482 0.98132 0.25858 0.0
C3088 C 0.71532 0.96316 0.26001 0.0
C3089 C 0.75889 0.96974 0.2585 0.0
C3090 C 0.73275 0.99904 0.27792 0.0
C3091 C 0.72871 0.02099 0.26906 0.0
C3092 C 0.72803 0.04051 0.28332 0.0
C3093 C 0.73173 0.03756 0.3072 0.0
C3094 C 0.73566 0.01525 0.31665 0.0
C3095 C 0.73584 0.99571 0.30186 0.0
H3096 H 0.29355 0.01047 0.46058 0.0
H3097 H 0.24598 0.95679 0.4376 0.0
H3098 H 0.22896 0.95494 0.47659 0.0
H3099 H 0.30296 0.98863 0.5183 0.0
H3100 H 0.30323 0.01692 0.53163 0.0
H3101 H 0.31227 0.0136 0.50189 0.0
H3102 H 0.28189 0.04423 0.48921 0.0
H3103 H 0.27273 0.0476 0.51891 0.0
H3104 H 0.25182 0.04017 0.49688 0.0
H3105 H 0.21796 0.95771 0.5188 0.0
H3106 H 0.21225 0.9669 0.56037 0.0
H3107 H 0.26463 0.02078 0.55541 0.0
C3108 C 0.27961 0.99827 0.46374 0.0
C3109 C 0.27148 0.98346 0.4459 0.0
C3110 C 0.25293 0.96803 0.45084 0.0
C3111 C 0.243 0.96691 0.47303 0.0
C3112 C 0.25149 0.98162 0.49018 0.0
C3113 C 0.2692 0.9972 0.48577 0.0
C3114 C 0.27464 0.01151 0.50717 0.0
C3115 C 0.29977 0.00741 0.51522 0.0
C3116 C 0.26998 0.03741 0.50277 0.0
C3117 C 0.25733 1.00144 0.52429 0.0
C3118 C 0.24428 0.98407 0.51419 0.0
C3119 C 0.22788 0.97149 0.52682 0.0
C3120 C 0.22474 0.97681 0.55041 0.0
C3121 C 0.23769 0.99478 0.56104 0.0
C3122 C 0.2541 0.00728 0.54767 0.0
H3123 H 0.23244 0.49056 0.79525 0.0
H3124 H 0.30633 0.47901 0.80487 0.0
H3125 H 0.31271 0.48486 0.76308 0.0
H3126 H 0.22768 0.46203 0.73919 0.0
H3127 H 0.20733 0.48272 0.72751 0.0
H3128 H 0.20814 0.4773 0.75829 0.0
H3129 H 0.21441 0.52107 0.76588 0.0
H3130 H 0.21374 0.52663 0.73512 0.0
H3131 H 0.23834 0.53582 0.7521 0.0
H3132 H 0.31164 0.49129 0.72074 0.0
H3133 H 0.30325 0.49825 0.67952 0.0
H3134 H 0.23017 0.50718 0.69575 0.0
C3135 C 0.24993 0.48912 0.78852 0.0
C3136 C 0.26891 0.48423 0.80348 0.0
C3137 C 0.29152 0.48275 0.79392 0.0
C3138 C 0.29534 0.48604 0.77014 0.0
C3139 C 0.27642 0.49099 0.75596 0.0
C3140 C 0.25413 0.49257 0.76466 0.0
C3141 C 0.23702 0.49841 0.74534 0.0
C3142 C 0.21898 0.47895 0.74241 0.0
C3143 C 0.22518 0.52188 0.74989 0.0
C3144 C 0.25325 0.49971 0.72449 0.0
C3145 C 0.27586 0.49528 0.73118 0.0
C3146 C 0.29403 0.49485 0.71527 0.0
C3147 C 0.28905 0.49881 0.69184 0.0
C3148 C 0.26609 0.50335 0.6843 0.0
C3149 C 0.24794 0.50403 0.70097 0.0
H3150 H 0.74337 0.54086 0.44921 0.0
H3151 H 0.74433 0.46697 0.43463 0.0
H3152 H 0.74949 0.45875 0.47618 0.0
H3153 H 0.78788 0.53927 0.49253 0.0
H3154 H 0.77498 0.56087 0.51112 0.0
H3155 H 0.76954 0.56149 0.48035 0.0
H3156 H 0.72531 0.56022 0.48793 0.0
H3157 H 0.73057 0.55975 0.51875 0.0
H3158 H 0.71331 0.53728 0.5055 0.0
H3159 H 0.75535 0.4579 0.5183 0.0
H3160 H 0.76177 0.46433 0.55989 0.0
H3161 H 0.759 0.53888 0.54897 0.0
C3162 C 0.74428 0.52299 0.45488 0.0
C3163 C 0.74329 0.5045 0.43865 0.0
C3164 C 0.74503 0.48137 0.4467 0.0
C3165 C 0.74795 0.47651 0.47029 0.0
C3166 C 0.74934 0.49498 0.48576 0.0
C3167 C 0.74758 0.51779 0.47856 0.0
C3168 C 0.7507 0.53422 0.49905 0.0
C3169 C 0.77204 0.54988 0.49555 0.0
C3170 C 0.72866 0.54872 0.50304 0.0
C3171 C 0.75452 0.51699 0.51874 0.0
C3172 C 0.75348 0.4945 0.5105 0.0
C3173 C 0.75618 0.47542 0.52502 0.0
C3174 C 0.75981 0.47929 0.54868 0.0
C3175 C 0.76092 0.50209 0.55781 0.0
C3176 C 0.75841 0.52124 0.54253 0.0
H3177 H 0.7423 0.04615 0.80245 0.0
H3178 H 0.78189 0.98497 0.82146 0.0
H3179 H 0.78088 0.9717 0.78074 0.0
H3180 H 0.70477 0.01714 0.76144 0.0
H3181 H 0.70379 0.04142 0.74175 0.0
H3182 H 0.70798 0.04629 0.77233 0.0
H3183 H 0.74578 0.06909 0.76364 0.0
H3184 H 0.74166 0.06434 0.73304 0.0
H3185 H 0.76837 0.05555 0.74674 0.0
H3186 H 0.77699 0.966 0.73724 0.0
H3187 H 0.76859 0.9673 0.69514 0.0
H3188 H 0.72947 0.03085 0.70511 0.0
C3189 C 0.7508 0.02997 0.79807 0.0
C3190 C 0.76235 0.01672 0.8152 0.0
C3191 C 0.77301 0.99551 0.80871 0.0
C3192 C 0.77253 0.98781 0.78558 0.0
C3193 C 0.76104 1.00132 0.76913 0.0
C3194 C 0.75018 0.02185 0.77513 0.0
C3195 C 0.73866 0.03293 0.75424 0.0
C3196 C 0.71223 0.03453 0.75765 0.0
C3197 C 0.74926 0.05689 0.74912 0.0
C3198 C 0.74486 0.01554 0.73551 0.0
C3199 C 0.75793 0.99751 0.74439 0.0
C3200 C 0.76653 0.9799 0.73017 0.0
C3201 C 0.76167 0.98077 0.70628 0.0
C3202 C 0.74808 0.99896 0.69685 0.0
C3203 C 0.73951 0.01645 0.7118 0.0
H3204 H 0.96676 0.19785 0.00681 0.0
H3205 H 0.9412 0.26298 0.03472 0.0
H3206 H 0.98118 0.27825 0.03563 0.0
H3207 H 0.02026 0.1961 0.03967 0.0
H3208 H 0.03692 0.18404 0.0161 0.0
H3209 H 0.00631 0.17804 0.01828 0.0
H3210 H 1.00027 0.19384 0.9766 0.0
H3211 H 0.03084 0.19995 0.97435 0.0
H3212 H 0.00996 0.22274 0.96957 0.0
H3213 H 0.0244 0.28641 0.0338 0.0
H3214 H 0.06698 0.28705 0.02821 0.0
H3215 H 0.0641 0.21719 1.00021 0.0
C3216 C 0.96955 0.2153 0.0132 0.0
C3217 C 0.95072 0.22914 0.02076 0.0
C3218 C 0.95522 0.25196 0.02883 0.0
C3219 C 0.97793 0.26082 0.02944 0.0
C3220 C 0.99606 0.24675 0.02179 0.0
C3221 C 0.99211 0.2245 0.01374 0.0
C3222 C 0.01457 0.2131 0.00609 0.0
C3223 C 0.01982 0.19155 0.02093 0.0
C3224 C 0.01386 0.20706 0.98011 0.0
C3225 C 0.03174 0.23245 0.01095 0.0
C3226 C 0.02077 0.25165 0.02018 0.0
C3227 C 0.03314 0.27149 0.02647 0.0
C3228 C 0.05734 0.2717 0.02322 0.0
C3229 C 0.06894 0.25228 0.01358 0.0
C3230 C 0.05581 0.23245 0.00738 0.0
H3231 H 0.94745 0.78504 0.49881 0.0
H3232 H 0.93204 0.71143 0.49671 0.0
H3233 H 0.97354 0.70278 0.49054 0.0
H3234 H 0.99527 0.7847 0.45636 0.0
H3235 H 0.01233 0.80547 0.47236 0.0
H3236 H 0.9811 0.80621 0.47412 0.0
H3237 H 0.98342 0.80295 0.51891 0.0
H3238 H 0.01461 0.80224 0.51728 0.0
H3239 H 0.99919 0.77919 0.53176 0.0
H3240 H 0.0167 0.70188 0.48528 0.0
H3241 H 0.0591 0.70857 0.48532 0.0
H3242 H 0.04728 0.78242 0.49399 0.0
C3243 C 0.95288 0.76717 0.49675 0.0
C3244 C 0.9366 0.74888 0.49814 0.0
C3245 C 0.94429 0.72567 0.49579 0.0
C3246 C 0.96779 0.72059 0.49212 0.0
C3247 C 0.98351 0.73891 0.49113 0.0
C3248 C 0.97646 0.76173 0.49362 0.0
C3249 C 0.99722 0.77795 0.49377 0.0
C3250 C 0.99643 0.79456 0.47291 0.0
C3251 C 0.99869 0.79137 0.5168 0.0
C3252 C 0.01695 0.76065 0.49141 0.0
C3253 C 0.00861 0.73828 0.48937 0.0
C3254 C 0.02346 0.71932 0.48689 0.0
C3255 C 0.04751 0.72328 0.48688 0.0
C3256 C 0.05647 0.74596 0.48981 0.0
C3257 C 0.04092 0.76486 0.49189 0.0
H3258 H 0.01939 0.79652 0.7853 0.0
H3259 H 0.01206 0.81511 0.71264 0.0
H3260 H 1.00162 0.77479 0.70336 0.0
H3261 H 0.04381 0.73907 0.7758 0.0
H3262 H 0.0283 0.72579 0.7995 0.0
H3263 H 0.03574 0.75612 0.80076 0.0
H3264 H 0.99258 0.7665 0.80746 0.0
H3265 H 0.98498 0.7362 0.80614 0.0
H3266 H 0.97103 0.75665 0.78703 0.0
H3267 H 0.99204 0.7331 0.70139 0.0
H3268 H 0.98449 0.69144 0.70666 0.0
H3269 H 0.99661 0.69854 0.7807 0.0
C3270 C 0.01578 0.79204 0.76743 0.0
C3271 C 0.0166 0.80909 0.74967 0.0
C3272 C 0.01153 0.80249 0.72655 0.0
C3273 C 0.00555 0.77958 0.72108 0.0
C3274 C 0.00455 0.76333 0.73892 0.0
C3275 C 0.00954 0.76912 0.76164 0.0
C3276 C 0.00686 0.74806 0.7774 0.0
C3277 C 0.03006 0.7419 0.78905 0.0
C3278 C 0.98772 0.7521 0.79558 0.0
C3279 C 0.99971 0.72961 0.75987 0.0
C3280 C 0.99854 0.73896 0.73782 0.0
C3281 C 0.99286 0.72555 0.71856 0.0
C3282 C 0.98859 0.70186 0.72176 0.0
C3283 C 0.98989 0.69162 0.74407 0.0
C3284 C 0.99525 0.70584 0.76345 0.0
H3285 H 0.47004 0.20826 0.23677 0.0
H3286 H 0.49431 0.19253 0.3062 0.0
H3287 H 0.50919 0.23236 0.31018 0.0
H3288 H 0.51803 0.24505 0.2205 0.0
H3289 H 0.5004 0.26528 0.20444 0.0
H3290 H 0.49155 0.2354 0.20692 0.0
H3291 H 0.45197 0.2483 0.22396 0.0
H3292 H 0.46065 0.27821 0.22139 0.0
H3293 H 0.4514 0.26695 0.24906 0.0
H3294 H 0.52093 0.27417 0.30701 0.0
H3295 H 0.52846 0.31511 0.29696 0.0
H3296 H 0.49709 0.30413 0.22935 0.0
C3297 C 0.4784 0.21325 0.25283 0.0
C3298 C 0.48134 0.19706 0.27106 0.0
C3299 C 0.49242 0.2043 0.29176 0.0
C3300 C 0.50077 0.22702 0.29426 0.0
C3301 C 0.49796 0.24243 0.27587 0.0
C3302 C 0.48701 0.23591 0.25555 0.0
C3303 C 0.48628 0.25595 0.23847 0.0
C3304 C 0.49988 0.25006 0.21627 0.0
C3305 C 0.46108 0.26275 0.2329 0.0
C3306 C 0.49843 0.27472 0.2524 0.0
C3307 C 0.50498 0.26653 0.27395 0.0
C3308 C 0.51598 0.28074 0.29013 0.0
C3309 C 0.52022 0.304 0.28424 0.0
C3310 C 0.51355 0.31289 0.2623 0.0
C3311 C 0.50268 0.29787 0.24615 0.0
H3312 H 0.44824 0.74569 0.52343 0.0
H3313 H 0.43648 0.74472 0.449 0.0
H3314 H 0.47773 0.75353 0.44239 0.0
H3315 H 0.48795 0.79401 0.52295 0.0
H3316 H 0.50632 0.78263 0.54557 0.0
H3317 H 0.47597 0.77513 0.54484 0.0
H3318 H 0.48657 0.73153 0.54461 0.0
H3319 H 0.51695 0.73891 0.54548 0.0
H3320 H 0.506 0.72051 0.52268 0.0
H3321 H 0.51981 0.76238 0.44334 0.0
H3322 H 0.56082 0.77078 0.45182 0.0
H3323 H 0.54602 0.76838 0.52566 0.0
C3324 C 0.45431 0.74725 0.50576 0.0
C3325 C 0.43892 0.74456 0.48673 0.0
C3326 C 0.44777 0.74675 0.46389 0.0
C3327 C 0.47123 0.75178 0.45992 0.0
C3328 C 0.48576 0.75478 0.47897 0.0
C3329 C 0.47775 0.75264 0.50146 0.0
C3330 C 0.49716 0.75732 0.51875 0.0
C3331 C 0.49151 0.77854 0.53392 0.0
C3332 C 0.50195 0.73578 0.53376 0.0
C3333 C 0.51728 0.76229 0.50237 0.0
C3334 C 0.51021 0.7606 0.47953 0.0
C3335 C 0.52557 0.76381 0.46115 0.0
C3336 C 0.54887 0.76858 0.46616 0.0
C3337 C 0.55672 0.77032 0.48938 0.0
C3338 C 0.54057 0.76738 0.50773 0.0
H3339 H 0.02275 0.30766 0.76808 0.0
H3340 H 0.96239 0.31425 0.72359 0.0
H3341 H 0.96368 0.27204 0.71573 0.0
H3342 H 0.05247 0.26676 0.73202 0.0
H3343 H 0.06483 0.25083 0.75592 0.0
H3344 H 0.0583 0.28122 0.75913 0.0
H3345 H 0.03269 0.27212 0.79497 0.0
H3346 H 0.03921 0.24171 0.79194 0.0
H3347 H 0.00944 0.25134 0.7924 0.0
H3348 H 0.97138 0.22881 0.71326 0.0
H3349 H 0.98607 0.18861 0.71446 0.0
H3350 H 0.04307 0.21079 0.7584 0.0
C3351 C 0.00959 0.30018 0.75694 0.0
C3352 C 0.99223 0.3142 0.74671 0.0
C3353 C 0.97572 0.30382 0.73175 0.0
C3354 C 0.97633 0.27986 0.7272 0.0
C3355 C 0.99376 0.26656 0.73746 0.0
C3356 C 0.01021 0.2764 0.75187 0.0
C3357 C 0.02779 0.2585 0.75982 0.0
C3358 C 0.05229 0.2647 0.7512 0.0
C3359 C 0.02724 0.25576 0.78636 0.0
C3360 C 0.01859 0.237 0.74779 0.0
C3361 C 0.99883 0.24197 0.73513 0.0
C3362 C 0.98693 0.22478 0.72299 0.0
C3363 C 0.99544 0.20195 0.72376 0.0
C3364 C 0.0159 0.1965 0.7363 0.0
C3365 C 0.02755 0.21438 0.74843 0.0
H3366 H 0.50042 0.46034 0.70037 0.0
H3367 H 0.53146 0.43352 0.76353 0.0
H3368 H 0.53279 0.47314 0.77968 0.0
H3369 H 0.53258 0.51353 0.69789 0.0
H3370 H 0.50842 0.53044 0.68747 0.0
H3371 H 0.51012 0.49995 0.68087 0.0
H3372 H 0.46938 0.49369 0.69899 0.0
H3373 H 0.46759 0.52417 0.70566 0.0
H3374 H 0.46403 0.50297 0.72838 0.0
H3375 H 0.53214 0.51632 0.78834 0.0
H3376 H 0.52742 0.55902 0.78953 0.0
H3377 H 0.49495 0.55708 0.72164 0.0
C3378 C 0.50748 0.46276 0.71761 0.0
C3379 C 0.51599 0.44375 0.73059 0.0
C3380 C 0.52492 0.44774 0.75317 0.0
C3381 C 0.52576 0.47022 0.76252 0.0
C3382 C 0.51734 0.48858 0.74921 0.0
C3383 C 0.50819 0.48505 0.72733 0.0
C3384 C 0.49998 0.50765 0.71672 0.0
C3385 C 0.51359 0.51321 0.69442 0.0
C3386 C 0.47368 0.50708 0.71217 0.0
C3387 C 0.50599 0.52446 0.73601 0.0
C3388 C 0.51617 0.51318 0.75454 0.0
C3389 C 0.52397 0.52529 0.77401 0.0
C3390 C 0.52123 0.54953 0.77453 0.0
C3391 C 0.51055 0.56136 0.75584 0.0
C3392 C 0.50282 0.54853 0.7364 0.0
H3393 H 0.70995 0.22601 0.51706 0.0
H3394 H 0.69353 0.29898 0.50788 0.0
H3395 H 0.73423 0.30682 0.49745 0.0
H3396 H 0.76768 0.23389 0.54118 0.0
H3397 H 0.78001 0.20944 0.52604 0.0
H3398 H 0.74967 0.20944 0.53359 0.0
H3399 H 0.739 0.20236 0.49063 0.0
H3400 H 0.7693 0.20252 0.4829 0.0
H3401 H 0.74945 0.22208 0.46869 0.0
H3402 H 0.77608 0.30727 0.48826 0.0
H3403 H 0.81762 0.30042 0.48103 0.0
H3404 H 0.80781 0.22687 0.49417 0.0
C3405 C 0.71499 0.24365 0.51307 0.0
C3406 C 0.69851 0.26193 0.51336 0.0
C3407 C 0.70578 0.28472 0.50776 0.0
C3408 C 0.72887 0.28935 0.50179 0.0
C3409 C 0.74456 0.27098 0.50126 0.0
C3410 C 0.73805 0.24857 0.50673 0.0
C3411 C 0.75851 0.23203 0.5043 0.0
C3412 C 0.76431 0.22054 0.52767 0.0
C3413 C 0.75378 0.21367 0.48551 0.0
C3414 C 0.7775 0.2488 0.49681 0.0
C3415 C 0.76893 0.27115 0.49524 0.0
C3416 C 0.78302 0.28986 0.48934 0.0
C3417 C 0.80661 0.28577 0.48527 0.0
C3418 C 0.816 0.26313 0.48693 0.0
C3419 C 0.80111 0.24433 0.49248 0.0
H3420 H 0.49533 0.95746 0.78132 0.0
H3421 H 0.49785 0.94461 0.70727 0.0
H3422 H 0.49292 0.9865 0.69967 0.0
H3423 H 0.45382 0.00675 0.77976 0.0
H3424 H 0.46891 0.02246 0.80219 0.0
H3425 H 0.46949 0.99118 0.8019 0.0
H3426 H 0.51447 0.99202 0.80192 0.0
H3427 H 0.51402 0.02324 0.8021 0.0
H3428 H 0.52955 0.00799 0.77962 0.0
H3429 H 0.48953 0.02982 0.69994 0.0
H3430 H 0.49055 0.07193 0.70818 0.0
H3431 H 0.4931 0.05722 0.78198 0.0
C3432 C 0.49432 0.96353 0.76356 0.0
C3433 C 0.49672 0.94793 0.74484 0.0
C3434 C 0.49596 0.9564 0.7218 0.0
C3435 C 0.49308 0.98011 0.71732 0.0
C3436 C 0.49124 0.99521 0.73609 0.0
C3437 C 0.49194 0.98733 0.75877 0.0
C3438 C 0.49168 0.00749 0.77569 0.0
C3439 C 0.46966 0.00693 0.79077 0.0
C3440 C 0.51374 0.00769 0.79071 0.0
C3441 C 0.49124 0.02783 0.75897 0.0
C3442 C 0.49049 0.02035 0.73623 0.0
C3443 C 0.49008 0.03591 0.71769 0.0
C3444 C 0.49067 0.05978 0.72252 0.0
C3445 C 0.49212 0.06784 0.74567 0.0
C3446 C 0.49223 0.05158 0.76408 0.0
H3447 H 0.29729 0.2318 0.48062 0.0
H3448 H 0.30481 0.27844 0.53921 0.0
H3449 H 0.26277 0.28714 0.53762 0.0
H3450 H 0.25774 0.26738 0.44952 0.0
H3451 H 0.24113 0.24351 0.43802 0.0
H3452 H 0.27135 0.23959 0.44494 0.0
H3453 H 0.26091 0.20518 0.47196 0.0
H3454 H 0.23065 0.20889 0.46502 0.0
H3455 H 0.24 0.20939 0.49486 0.0
H3456 H 0.21959 0.29104 0.52914 0.0
H3457 H 0.17957 0.29095 0.51356 0.0
H3458 H 0.20108 0.2434 0.45925 0.0
C3459 C 0.29004 0.24352 0.4934 0.0
C3460 C 0.3043 0.25418 0.51028 0.0
C3461 C 0.29419 0.26991 0.52626 0.0
C3462 C 0.27033 0.27497 0.52548 0.0
C3463 C 0.25681 0.26435 0.50845 0.0
C3464 C 0.26635 0.24903 0.49263 0.0
C3465 C 0.24837 0.24092 0.47525 0.0
C3466 C 0.25505 0.2483 0.45047 0.0
C3467 C 0.24477 0.21453 0.47688 0.0
C3468 C 0.22719 0.254 0.48375 0.0
C3469 C 0.23233 0.26729 0.50304 0.0
C3470 C 0.21542 0.28071 0.51402 0.0
C3471 C 0.19272 0.28055 0.50506 0.0
C3472 C 0.18717 0.26727 0.48511 0.0
C3473 C 0.20475 0.25388 0.47441 0.0
H3474 H 0.54436 0.23399 0.97606 0.0
H3475 H 0.56172 0.2403 0.04916 0.0
H3476 H 0.52155 0.25182 0.05772 0.0
H3477 H 0.50464 0.28291 0.97379 0.0
H3478 H 0.48422 0.26904 0.95457 0.0
H3479 H 0.51449 0.26136 0.95337 0.0
H3480 H 0.50446 0.21824 0.96001 0.0
H3481 H 0.47408 0.22558 0.96078 0.0
H3482 H 0.48702 0.21011 0.9847 0.0
H3483 H 0.47979 0.26134 0.05916 0.0
H3484 H 0.43787 0.26747 0.05344 0.0
H3485 H 0.44619 0.25608 0.9795 0.0
C3486 C 0.53969 0.23778 0.99387 0.0
C3487 C 0.55636 0.2362 0.01195 0.0
C3488 C 0.54945 0.24136 0.03498 0.0
C3489 C 0.52662 0.248 0.04004 0.0
C3490 C 0.51072 0.24952 0.02193 0.0
C3491 C 0.51681 0.24451 0.99929 0.0
C3492 C 0.49593 0.24709 0.98328 0.0
C3493 C 0.50007 0.26625 0.96519 0.0
C3494 C 0.49003 0.22387 0.97151 0.0
C3495 C 0.47722 0.25414 1.00056 0.0
C3496 C 0.4863 0.25544 0.02272 0.0
C3497 C 0.4725 0.26057 0.04188 0.0
C3498 C 0.4487 0.26404 0.03845 0.0
C3499 C 0.4388 0.26258 0.01603 0.0
C3500 C 0.45335 0.25789 0.99675 0.0
H3501 H 0.5064 0.69685 0.22589 0.0
H3502 H 0.51887 0.68385 0.29897 0.0
H3503 H 0.51615 0.72578 0.30693 0.0
H3504 H 0.5372 0.75317 0.22234 0.0
H3505 H 0.516 0.76571 0.20307 0.0
H3506 H 0.52138 0.7349 0.20247 0.0
H3507 H 0.47776 0.72714 0.20947 0.0
H3508 H 0.47221 0.75787 0.2103 0.0
H3509 H 0.46364 0.73981 0.23437 0.0
H3510 H 0.51009 0.76857 0.30767 0.0
H3511 H 0.50128 0.80991 0.30105 0.0
H3512 H 0.49071 0.79573 0.2278 0.0
C3513 C 0.50911 0.70288 0.24344 0.0
C3514 C 0.51308 0.68702 0.2618 0.0
C3515 C 0.51592 0.69565 0.28463 0.0
C3516 C 0.51441 0.71945 0.28934 0.0
C3517 C 0.50986 0.73457 0.27105 0.0
C3518 C 0.5073 0.72672 0.24852 0.0
C3519 C 0.50104 0.74665 0.23238 0.0
C3520 C 0.52004 0.75032 0.21398 0.0
C3521 C 0.47724 0.74262 0.22097 0.0
C3522 C 0.50024 0.76676 0.24946 0.0
C3523 C 0.50562 0.75937 0.2716 0.0
C3524 C 0.50595 0.77461 0.29038 0.0
C3525 C 0.50086 0.79809 0.28645 0.0
C3526 C 0.49527 0.80621 0.26394 0.0
C3527 C 0.49487 0.79018 0.24524 0.0
H3528 H 0.03485 0.18159 0.33747 0.0
H3529 H 0.0634 0.11206 0.33948 0.0
H3530 H 0.08135 0.12078 0.37775 0.0
H3531 H 0.08267 0.2099 0.35865 0.0
H3532 H 0.06714 0.23112 0.37557 0.0
H3533 H 0.05374 0.21853 0.35037 0.0
H3534 H 0.01881 0.20478 0.37481 0.0
H3535 H 0.03152 0.2179 0.40013 0.0
H3536 H 0.02358 0.18764 0.40053 0.0
H3537 H 0.10036 0.13969 0.41351 0.0
H3538 H 0.11609 0.16525 0.44396 0.0
H3539 H 0.07337 0.2217 0.41787 0.0
C3540 C 0.04444 0.16798 0.3462 0.0
C3541 C 0.04778 0.14614 0.33562 0.0
C3542 C 0.06045 0.1288 0.34749 0.0
C3543 C 0.07078 0.13369 0.36913 0.0
C3544 C 0.06787 0.15582 0.37868 0.0
C3545 C 0.05461 0.17251 0.36769 0.0
C3546 C 0.05509 0.19536 0.38059 0.0
C3547 C 0.06527 0.21486 0.36538 0.0
C3548 C 0.0308 0.20178 0.38956 0.0
C3549 C 0.07121 0.18923 0.4003 0.0
C3550 C 0.0784 0.1664 0.39908 0.0
C3551 C 0.09447 0.15747 0.41481 0.0
C3552 C 0.10333 0.17224 0.43214 0.0
C3553 C 0.09615 0.19579 0.43371 0.0
C3554 C 0.07961 0.20405 0.41753 0.0
H3555 H 0.39259 0.69375 0.91619 0.0
H3556 H 0.43251 0.75737 0.91827 0.0
H3557 H 0.45257 0.74615 0.8821 0.0
H3558 H 0.43831 0.65904 0.89923 0.0
H3559 H 0.42207 0.64 0.88048 0.0
H3560 H 0.40774 0.65445 0.90416 0.0
H3561 H 0.37791 0.67235 0.87572 0.0
H3562 H 0.39197 0.65767 0.85193 0.0
H3563 H 0.38805 0.68869 0.85103 0.0
H3564 H 0.47065 0.72705 0.84802 0.0
H3565 H 0.48648 0.70047 0.81856 0.0
H3566 H 0.43622 0.64817 0.83913 0.0
C3567 C 0.40461 0.70582 0.90823 0.0
C3568 C 0.41041 0.72684 0.91938 0.0
C3569 C 0.42732 0.74159 0.90944 0.0
C3570 C 0.43881 0.73536 0.88896 0.0
C3571 C 0.4331 0.71436 0.87851 0.0
C3572 C 0.41635 0.69979 0.88769 0.0
C3573 C 0.41561 0.677 0.87451 0.0
C3574 C 0.42128 0.65641 0.89056 0.0
C3575 C 0.39198 0.67374 0.86259 0.0
C3576 C 0.43478 0.68095 0.85685 0.0
C3577 C 0.44445 0.70271 0.85934 0.0
C3578 C 0.46309 0.71001 0.84576 0.0
C3579 C 0.47213 0.69466 0.82917 0.0
C3580 C 0.4627 0.67211 0.82636 0.0
C3581 C 0.44364 0.66535 0.84041 0.0
H3582 H 0.94923 0.31515 0.32516 0.0
H3583 H 0.95527 0.38822 0.34233 0.0
H3584 H 0.94058 0.37977 0.38199 0.0
H3585 H 0.89673 0.30381 0.35598 0.0
H3586 H 0.9057 0.27522 0.36497 0.0
H3587 H 0.91661 0.28732 0.33831 0.0
H3588 H 0.95874 0.28078 0.35257 0.0
H3589 H 0.948 0.26885 0.37938 0.0
H3590 H 0.96782 0.29305 0.37987 0.0
H3591 H 0.92593 0.36234 0.4204 0.0
H3592 H 0.91227 0.338 0.45322 0.0
H3593 H 0.9156 0.27708 0.40931 0.0
C3594 C 0.94749 0.3295 0.33715 0.0
C3595 C 0.9534 0.3524 0.33063 0.0
C3596 C 0.95081 0.37056 0.34696 0.0
C3597 C 0.9425 0.3659 0.36949 0.0
C3598 C 0.93684 0.34303 0.37527 0.0
C3599 C 0.93925 0.32518 0.35947 0.0
C3600 C 0.93221 0.30206 0.3697 0.0
C3601 C 0.91158 0.2915 0.35645 0.0
C3602 C 0.95293 0.28521 0.37042 0.0
C3603 C 0.92521 0.3096 0.39379 0.0
C3604 C 0.92812 0.33324 0.39684 0.0
C3605 C 0.92347 0.34387 0.41809 0.0
C3606 C 0.91576 0.32995 0.43661 0.0
C3607 C 0.91258 0.30575 0.43368 0.0
C3608 C 0.9173 0.2956 0.41192 0.0
H3609 H 0.53147 0.83542 0.83173 0.0
H3610 H 0.59333 0.86847 0.80425 0.0
H3611 H 0.61693 0.84934 0.83452 0.0
H3612 H 0.54628 0.84129 0.89145 0.0
H3613 H 0.53389 0.81372 0.89953 0.0
H3614 H 0.52241 0.82938 0.87509 0.0
H3615 H 0.52934 0.7934 0.84901 0.0
H3616 H 0.54118 0.77773 0.87332 0.0
H3617 H 0.55801 0.78099 0.84715 0.0
H3618 H 0.63362 0.82713 0.8689 0.0
H3619 H 0.64113 0.80611 0.9057 0.0
H3620 H 0.56814 0.78802 0.90985 0.0
C3621 C 0.54992 0.83887 0.83214 0.0
C3622 C 0.56052 0.85349 0.81555 0.0
C3623 C 0.58485 0.85716 0.8166 0.0
C3624 C 0.5984 0.84636 0.83374 0.0
C3625 C 0.58739 0.83187 0.84966 0.0
C3626 C 0.56367 0.82823 0.84904 0.0
C3627 C 0.55587 0.81245 0.86849 0.0
C3628 C 0.5386 0.82496 0.88459 0.0
C3629 C 0.54549 0.7898 0.85891 0.0
C3630 C 0.57884 0.8081 0.88042 0.0
C3631 C 0.59691 0.8192 0.86924 0.0
C3632 C 0.61961 0.81824 0.87772 0.0
C3633 C 0.62377 0.80616 0.89852 0.0
C3634 C 0.60525 0.79541 0.91058 0.0
C3635 C 0.58269 0.796 0.90101 0.0
H3636 H 0.02654 0.81781 0.15542 0.0
H3637 H 0.08011 0.86829 0.17051 0.0
H3638 H 0.10139 0.85626 0.13498 0.0
H3639 H 0.06154 0.77355 0.13607 0.0
H3640 H 0.04251 0.76394 0.11318 0.0
H3641 H 0.03067 0.77833 0.13818 0.0
H3642 H 0.01124 0.80891 0.11144 0.0
H3643 H 0.02301 0.79435 0.08639 0.0
H3644 H 0.02875 0.82476 0.09092 0.0
H3645 H 0.11961 0.83364 0.10138 0.0
H3646 H 0.13024 0.80678 0.06931 0.0
H3647 H 0.06312 0.77357 0.07499 0.0
C3648 C 0.0424 0.8268 0.1508 0.0
C3649 C 0.0517 0.84406 0.16544 0.0
C3650 C 0.07259 0.85531 0.15919 0.0
C3651 C 0.08483 0.84845 0.13918 0.0
C3652 C 0.07556 0.83072 0.12546 0.0
C3653 C 0.05447 0.82053 0.13072 0.0
C3654 C 0.04846 0.80147 0.11369 0.0
C3655 C 0.04565 0.77795 0.12604 0.0
C3656 C 0.02657 0.80776 0.09978 0.0
C3657 C 0.06987 0.80183 0.09851 0.0
C3658 C 0.08541 0.81871 0.10557 0.0
C3659 C 0.10731 0.8208 0.09535 0.0
C3660 C 0.11328 0.80545 0.07732 0.0
C3661 C 0.0973 0.78854 0.06954 0.0
C3662 C 0.07536 0.78681 0.08026 0.0
H3663 H 0.04327 0.67493 0.17395 0.0
H3664 H 0.10409 0.65075 0.21135 0.0
H3665 H 0.12906 0.66493 0.17966 0.0
H3666 H 0.06251 0.65711 0.11853 0.0
H3667 H 0.04985 0.68151 0.10363 0.0
H3668 H 0.03713 0.67122 0.13022 0.0
H3669 H 0.04099 0.71237 0.14799 0.0
H3670 H 0.05384 0.72265 0.1214 0.0
H3671 H 0.06899 0.72636 0.1485 0.0
H3672 H 0.14763 0.68093 0.14238 0.0
H3673 H 0.15692 0.6941 0.10232 0.0
H3674 H 0.0837 0.70603 0.08983 0.0
C3675 C 0.06178 0.67246 0.17567 0.0
C3676 C 0.07149 0.6617 0.1955 0.0
C3677 C 0.09601 0.65919 0.19669 0.0
C3678 C 0.11044 0.66719 0.17868 0.0
C3679 C 0.10021 0.67768 0.15945 0.0
C3680 C 0.07639 0.68017 0.15784 0.0
C3681 C 0.06946 0.6908 0.13488 0.0
C3682 C 0.05383 0.67416 0.121 0.0
C3683 C 0.05762 0.71445 0.13843 0.0
C3684 C 0.09304 0.69355 0.12362 0.0
C3685 C 0.11069 0.68625 0.13809 0.0
C3686 C 0.13392 0.68678 0.13096 0.0
C3687 C 0.1391 0.6944 0.10828 0.0
C3688 C 0.12106 0.70102 0.09302 0.0
C3689 C 0.09788 0.701 0.10109 0.0
H3690 H 0.91988 0.72717 0.09977 0.0
H3691 H 0.91497 0.66264 0.06128 0.0
H3692 H 0.93511 0.6422 0.09307 0.0
H3693 H 0.97729 0.7167 0.12431 0.0
H3694 H 0.96996 0.73011 0.1516 0.0
H3695 H 0.9561 0.73971 0.12529 0.0
H3696 H 0.91564 0.73179 0.14345 0.0
H3697 H 0.92946 0.72249 0.16985 0.0
H3698 H 0.90936 0.7035 0.1552 0.0
H3699 H 0.95453 0.62845 0.1303 0.0
H3700 H 0.9712 0.62294 0.16959 0.0
H3701 H 0.96359 0.69673 0.18265 0.0
C3702 C 0.92337 0.70884 0.09776 0.0
C3703 C 0.91577 0.69657 0.07795 0.0
C3704 C 0.92033 0.67243 0.07637 0.0
C3705 C 0.93193 0.66067 0.09429 0.0
C3706 C 0.93896 0.67328 0.11366 0.0
C3707 C 0.9349 0.69686 0.11543 0.0
C3708 C 0.94343 0.70632 0.13837 0.0
C3709 C 0.96285 0.72427 0.13466 0.0
C3710 C 0.92327 0.71662 0.15256 0.0
C3711 C 0.95266 0.68434 0.14935 0.0
C3712 C 0.95008 0.66544 0.13486 0.0
C3713 C 0.95678 0.64318 0.14173 0.0
C3714 C 0.96621 0.64019 0.16405 0.0
C3715 C 0.96873 0.65937 0.17919 0.0
C3716 C 0.962 0.68168 0.17152 0.0
H3717 H 0.90549 0.83172 0.07909 0.0
H3718 H 0.88849 0.76246 0.10262 0.0
H3719 H 0.9017 0.77281 0.1423 0.0
H3720 H 0.95608 0.838 0.10854 0.0
H3721 H 0.95274 0.86822 0.11588 0.0
H3722 H 0.93852 0.8567 0.09063 0.0
H3723 H 0.89867 0.87086 0.10595 0.0
H3724 H 0.91282 0.88287 0.13112 0.0
H3725 H 0.8893 0.86253 0.13462 0.0
H3726 H 0.92443 0.78856 0.17684 0.0
H3727 H 0.94862 0.81046 0.20509 0.0
H3728 H 0.9477 0.87023 0.15979 0.0
C3729 C 0.9036 0.81909 0.09289 0.0
C3730 C 0.89555 0.79649 0.08807 0.0
C3731 C 0.89399 0.78007 0.10623 0.0
C3732 C 0.90171 0.78574 0.1287 0.0
C3733 C 0.91047 0.808 0.1327 0.0
C3734 C 0.91078 0.82463 0.1154 0.0
C3735 C 0.9222 0.84684 0.12362 0.0
C3736 C 0.94365 0.85277 0.10878 0.0
C3737 C 0.9047 0.86697 0.12385 0.0
C3738 C 0.92907 0.83993 0.14799 0.0
C3739 C 0.92232 0.81741 0.15293 0.0
C3740 C 0.9291 0.80643 0.17344 0.0
C3741 C 0.94289 0.81886 0.1893 0.0
C3742 C 0.9494 0.84207 0.18471 0.0
C3743 C 0.94224 0.85272 0.1639 0.0
H3744 H 0.42667 0.07348 0.22658 0.0
H3745 H 0.44686 0.12063 0.17135 0.0
H3746 H 0.41762 0.1027 0.14569 0.0
H3747 H 0.4135 0.0233 0.19127 0.0
H3748 H 0.38873 0.01537 0.20866 0.0
H3749 H 0.41286 0.03033 0.22175 0.0
H3750 H 0.3854 0.06313 0.23635 0.0
H3751 H 0.36131 0.0475 0.2241 0.0
H3752 H 0.36642 0.07727 0.21596 0.0
H3753 H 0.38352 0.08093 0.12683 0.0
H3754 H 0.34726 0.05931 0.11802 0.0
H3755 H 0.34981 0.02797 0.18637 0.0
C3756 C 0.42514 0.08021 0.20915 0.0
C3757 C 0.43929 0.09863 0.20119 0.0
C3758 C 0.43657 0.1064 0.17796 0.0
C3759 C 0.41992 0.09633 0.1632 0.0
C3760 C 0.40608 0.07843 0.17183 0.0
C3761 C 0.40857 0.07054 0.19434 0.0
C3762 C 0.3906 0.05236 0.20022 0.0
C3763 C 0.40212 0.02895 0.2058 0.0
C3764 C 0.37501 0.06055 0.22033 0.0
C3765 C 0.37738 0.05137 0.1776 0.0
C3766 C 0.3866 0.0663 0.16126 0.0
C3767 C 0.37633 0.06902 0.13945 0.0
C3768 C 0.35582 0.0566 0.13452 0.0
C3769 C 0.34577 0.04192 0.15146 0.0
C3770 C 0.35711 0.03897 0.17299 0.0
H3771 H 0.30723 0.42971 0.10745 0.0
H3772 H 0.25751 0.44202 0.05228 0.0
H3773 H 0.26755 0.40459 0.03457 0.0
H3774 H 0.35034 0.40533 0.07254 0.0
H3775 H 0.35973 0.38341 0.09277 0.0
H3776 H 0.34676 0.4098 0.1033 0.0
H3777 H 0.31577 0.38607 0.12559 0.0
H3778 H 0.32879 0.35954 0.11531 0.0
H3779 H 0.29843 0.36507 0.11019 0.0
H3780 H 0.28601 0.36916 0.01979 0.0
H3781 H 0.31008 0.33503 0.01041 0.0
H3782 H 0.34768 0.34356 0.07496 0.0
C3783 C 0.29809 0.42413 0.09202 0.0
C3784 C 0.28166 0.43877 0.08117 0.0
C3785 C 0.27032 0.43117 0.06074 0.0
C3786 C 0.27583 0.40988 0.05057 0.0
C3787 C 0.29269 0.39621 0.06106 0.0
C3788 C 0.3035 0.40275 0.08147 0.0
C3789 C 0.32203 0.38518 0.08813 0.0
C3790 C 0.34614 0.39662 0.08924 0.0
C3791 C 0.31588 0.37325 0.11118 0.0
C3792 C 0.32034 0.36832 0.0679 0.0
C3793 C 0.3032 0.37509 0.05259 0.0
C3794 C 0.29924 0.36342 0.03181 0.0
C3795 C 0.31311 0.34421 0.02652 0.0
C3796 C 0.33065 0.33672 0.04197 0.0
C3797 C 0.33415 0.34882 0.06304 0.0
H3798 H 0.56466 0.43346 0.18969 0.0
H3799 H 0.58311 0.3626 0.20662 0.0
H3800 H 0.61945 0.36671 0.18399 0.0
H3801 H 0.59019 0.43528 0.13064 0.0
H3802 H 0.60048 0.4646 0.13419 0.0
H3803 H 0.5746 0.45518 0.14907 0.0
H3804 H 0.59249 0.46759 0.18845 0.0
H3805 H 0.61819 0.47722 0.17359 0.0
H3806 H 0.62048 0.45633 0.19674 0.0
H3807 H 0.65512 0.37963 0.16309 0.0
H3808 H 0.68897 0.40117 0.14794 0.0
H3809 H 0.64773 0.46387 0.14437 0.0
C3810 C 0.57608 0.41864 0.18808 0.0
C3811 C 0.57097 0.39754 0.19957 0.0
C3812 C 0.58672 0.3788 0.19783 0.0
C3813 C 0.60727 0.38097 0.1849 0.0
C3814 C 0.61186 0.40205 0.1739 0.0
C3815 C 0.5968 0.42064 0.17548 0.0
C3816 C 0.60695 0.44212 0.16409 0.0
C3817 C 0.59217 0.44974 0.14325 0.0
C3818 C 0.60969 0.46197 0.18178 0.0
C3819 C 0.63033 0.43287 0.15629 0.0
C3820 C 0.63262 0.4096 0.16182 0.0
C3821 C 0.65334 0.39767 0.15822 0.0
C3822 C 0.67242 0.40998 0.14949 0.0
C3823 C 0.67065 0.43389 0.14432 0.0
C3824 C 0.64921 0.44537 0.14726 0.0
H3825 H 0.72796 0.10044 0.08861 0.0
H3826 H 0.66568 0.07034 0.11786 0.0
H3827 H 0.64293 0.10435 0.10449 0.0
H3828 H 0.71019 0.16438 0.10105 0.0
H3829 H 0.7255 0.17272 0.07507 0.0
H3830 H 0.73546 0.14849 0.09218 0.0
H3831 H 0.7334 0.12393 0.05349 0.0
H3832 H 0.72144 0.14817 0.03798 0.0
H3833 H 0.70578 0.12112 0.03906 0.0
H3834 H 0.62623 0.13815 0.08162 0.0
H3835 H 0.61773 0.17098 0.05516 0.0
H3836 H 0.69136 0.17953 0.04235 0.0
C3837 C 0.70973 0.10162 0.09308 0.0
C3838 C 0.69854 0.08318 0.10466 0.0
C3839 C 0.67456 0.0847 0.10958 0.0
C3840 C 0.66153 0.10385 0.10189 0.0
C3841 C 0.67291 0.12147 0.08974 0.0
C3842 C 0.69663 0.12083 0.08598 0.0
C3843 C 0.70452 0.14122 0.07138 0.0
C3844 C 0.71984 0.15768 0.08574 0.0
C3845 C 0.71701 0.13311 0.04917 0.0
C3846 C 0.6814 0.15245 0.066 0.0
C3847 C 0.66337 0.14108 0.07702 0.0
C3848 C 0.64029 0.14748 0.07336 0.0
C3849 C 0.63559 0.16602 0.0582 0.0
C3850 C 0.65386 0.17801 0.04692 0.0
C3851 C 0.67704 0.17114 0.05113 0.0
H3852 H 0.35897 0.97672 0.33838 0.0
H3853 H 0.33486 0.91678 0.3766 0.0
H3854 H 0.37 0.895 0.36459 0.0
H3855 H 0.37904 0.94908 0.29111 0.0
H3856 H 0.40447 0.96668 0.28634 0.0
H3857 H 0.37988 0.97861 0.30132 0.0
H3858 H 0.40605 0.98864 0.33726 0.0
H3859 H 0.4305 0.97764 0.32113 0.0
H3860 H 0.42402 0.96629 0.34955 0.0
H3861 H 0.40329 0.87768 0.34134 0.0
H3862 H 0.43529 0.86825 0.31396 0.0
H3863 H 0.43885 0.94036 0.29336 0.0
C3864 C 0.36178 0.95941 0.34515 0.0
C3865 C 0.34469 0.9485 0.35883 0.0
C3866 C 0.34824 0.92556 0.36672 0.0
C3867 C 0.36801 0.91304 0.35977 0.0
C3868 C 0.38418 0.92396 0.34539 0.0
C3869 C 0.38162 0.94692 0.33879 0.0
C3870 C 0.40055 0.95425 0.32211 0.0
C3871 C 0.39037 0.96264 0.29886 0.0
C3872 C 0.41621 0.97281 0.33315 0.0
C3873 C 0.41342 0.93156 0.31929 0.0
C3874 C 0.40381 0.91425 0.33285 0.0
C3875 C 0.41139 0.89127 0.33122 0.0
C3876 C 0.42939 0.88601 0.31557 0.0
C3877 C 0.43973 0.90367 0.30202 0.0
C3878 C 0.43167 0.92669 0.30408 0.0
H3879 H 0.22235 0.41455 0.92751 0.0
H3880 H 0.20214 0.40384 0.85586 0.0
H3881 H 0.18462 0.36594 0.86676 0.0
H3882 H 0.23489 0.35286 0.94159 0.0
H3883 H 0.22388 0.35652 0.97062 0.0
H3884 H 0.23716 0.38065 0.95581 0.0
H3885 H 0.19961 0.40462 0.96334 0.0
H3886 H 0.18618 0.38012 0.97726 0.0
H3887 H 0.17219 0.3938 0.95286 0.0
H3888 H 0.16568 0.33099 0.88701 0.0
H3889 H 0.1493 0.30164 0.91362 0.0
H3890 H 0.18268 0.336 0.97172 0.0
C3891 C 0.21463 0.40406 0.91396 0.0
C3892 C 0.21358 0.41211 0.8908 0.0
C3893 C 0.20333 0.39787 0.87364 0.0
C3894 C 0.19325 0.37641 0.87974 0.0
C3895 C 0.19387 0.3694 0.90298 0.0
C3896 C 0.20467 0.38273 0.91972 0.0
C3897 C 0.20214 0.37214 0.94365 0.0
C3898 C 0.22594 0.36513 0.95349 0.0
C3899 C 0.18926 0.38866 0.96024 0.0
C3900 C 0.18761 0.35104 0.93799 0.0
C3901 C 0.18314 0.34958 0.91447 0.0
C3902 C 0.1694 0.33186 0.90539 0.0
C3903 C 0.16018 0.3152 0.9207 0.0
C3904 C 0.16462 0.31633 0.94491 0.0
C3905 C 0.17863 0.33458 0.95346 0.0
H3906 H 0.58121 0.58123 0.27576 0.0
H3907 H 0.54025 0.59238 0.33782 0.0
H3908 H 0.57318 0.57862 0.36194 0.0
H3909 H 0.60924 0.52876 0.29575 0.0
H3910 H 0.6363 0.53551 0.28153 0.0
H3911 H 0.60935 0.54589 0.26961 0.0
H3912 H 0.62483 0.58804 0.27078 0.0
H3913 H 0.65186 0.57788 0.28265 0.0
H3914 H 0.63542 0.59979 0.29778 0.0
H3915 H 0.61203 0.56479 0.37916 0.0
H3916 H 0.65253 0.55248 0.38747 0.0
H3917 H 0.66636 0.5498 0.31349 0.0
C3918 C 0.57923 0.58099 0.29444 0.0
C3919 C 0.55831 0.58812 0.30499 0.0
C3920 C 0.55618 0.58698 0.32945 0.0
C3921 C 0.57477 0.5792 0.34324 0.0
C3922 C 0.59522 0.57231 0.33223 0.0
C3923 C 0.59741 0.57302 0.30834 0.0
C3924 C 0.621 0.56465 0.30056 0.0
C3925 C 0.61884 0.54237 0.28601 0.0
C3926 C 0.63404 0.58373 0.28717 0.0
C3927 C 0.6321 0.55979 0.32382 0.0
C3928 C 0.61702 0.56406 0.34196 0.0
C3929 C 0.62392 0.56127 0.36505 0.0
C3930 C 0.64691 0.55425 0.36963 0.0
C3931 C 0.66264 0.55024 0.35118 0.0
C3932 C 0.65486 0.55276 0.32807 0.0
H3933 H 0.84356 0.15573 0.98098 0.0
H3934 H 0.86435 0.18997 0.9172 0.0
H3935 H 0.8456 0.15874 0.89453 0.0
H3936 H 0.85264 0.09833 0.96257 0.0
H3937 H 0.82775 0.08678 0.9776 0.0
H3938 H 0.84209 0.11225 0.98854 0.0
H3939 H 0.80339 0.13521 0.98713 0.0
H3940 H 0.78892 0.10952 0.97673 0.0
H3941 H 0.78707 0.13619 0.96049 0.0
H3942 H 0.8247 0.12255 0.87883 0.0
H3943 H 0.80492 0.08482 0.87214 0.0
H3944 H 0.79789 0.07586 0.94657 0.0
C3945 C 0.84393 0.15701 0.96227 0.0
C3946 C 0.85544 0.1755 0.95097 0.0
C3947 C 0.85586 0.17596 0.92635 0.0
C3948 C 0.8451 0.15834 0.91329 0.0
C3949 C 0.83391 0.1404 0.92507 0.0
C3950 C 0.83327 0.1397 0.94904 0.0
C3951 C 0.82064 0.11841 0.95772 0.0
C3952 C 0.83675 0.10304 0.97246 0.0
C3953 C 0.79869 0.12524 0.97131 0.0
C3954 C 0.81458 0.10696 0.9349 0.0
C3955 C 0.82214 0.11989 0.91619 0.0
C3956 C 0.81865 0.11235 0.8934 0.0
C3957 C 0.80737 0.09095 0.88973 0.0
C3958 C 0.7999 0.07735 0.90878 0.0
C3959 C 0.80341 0.08574 0.93156 0.0
H3960 H 0.21628 0.42045 0.10039 0.0
H3961 H 0.15713 0.46451 0.08459 0.0
H3962 H 0.13676 0.43081 0.06795 0.0
H3963 H 0.21491 0.38908 0.04802 0.0
H3964 H 0.22374 0.36206 0.06106 0.0
H3965 H 0.23268 0.38913 0.07376 0.0
H3966 H 0.2147 0.37714 0.1131 0.0
H3967 H 0.20582 0.34986 0.10074 0.0
H3968 H 0.18466 0.36845 0.11436 0.0
H3969 H 0.1233 0.39144 0.05131 0.0
H3970 H 0.11906 0.35118 0.03632 0.0
H3971 H 0.18813 0.3351 0.06163 0.0
C3972 C 0.1991 0.42334 0.09347 0.0
C3973 C 0.18856 0.44551 0.0939 0.0
C3974 C 0.16573 0.44786 0.08483 0.0
C3975 C 0.15397 0.42875 0.07518 0.0
C3976 C 0.16521 0.40734 0.0746 0.0
C3977 C 0.18729 0.40464 0.08355 0.0
C3978 C 0.19619 0.38024 0.08003 0.0
C3979 C 0.21816 0.38013 0.0648 0.0
C3980 C 0.20059 0.36822 0.10345 0.0
C3981 C 0.17574 0.36959 0.06753 0.0
C3982 C 0.15787 0.38529 0.06466 0.0
C3983 C 0.13723 0.37903 0.05351 0.0
C3984 C 0.13493 0.35616 0.04507 0.0
C3985 C 0.15327 0.34003 0.04766 0.0
C3986 C 0.17379 0.347 0.05915 0.0
H3987 H 0.18574 0.66772 0.46117 0.0
H3988 H 0.11239 0.66155 0.44535 0.0
H3989 H 0.12006 0.62374 0.42605 0.0
H3990 H 0.20683 0.64695 0.40874 0.0
H3991 H 0.23123 0.63188 0.42122 0.0
H3992 H 0.21932 0.65682 0.43566 0.0
H3993 H 0.21322 0.63252 0.47305 0.0
H3994 H 0.22525 0.60749 0.45868 0.0
H3995 H 0.1968 0.60595 0.47166 0.0
H3996 H 0.13706 0.58789 0.40561 0.0
H3997 H 0.16096 0.55759 0.38705 0.0
H3998 H 0.22295 0.58926 0.41599 0.0
C3999 C 0.17115 0.65836 0.45391 0.0
C4000 C 0.14844 0.66761 0.45468 0.0
C4001 C 0.1299 0.65471 0.44504 0.0
C4002 C 0.13413 0.63327 0.43404 0.0
C4003 C 0.15693 0.62498 0.43309 0.0
C4004 C 0.17505 0.63713 0.44302 0.0
C4005 C 0.19814 0.62533 0.43888 0.0
C4006 C 0.21484 0.64119 0.42531 0.0
C4007 C 0.20898 0.61734 0.46193 0.0
C4008 C 0.19037 0.60491 0.42441 0.0
C4009 C 0.16657 0.60476 0.42142 0.0
C4010 C 0.1557 0.58783 0.40799 0.0
C4011 C 0.16951 0.57073 0.39733 0.0
C4012 C 0.19403 0.57076 0.39993 0.0
C4013 C 0.20436 0.58817 0.41382 0.0
H4014 H 0.92765 0.56256 0.80174 0.0
H4015 H 0.90446 0.63383 0.79435 0.0
H4016 H 0.86598 0.62255 0.81037 0.0
H4017 H 0.8742 0.53514 0.78592 0.0
H4018 H 0.87773 0.51185 0.80649 0.0
H4019 H 0.90287 0.52581 0.79425 0.0
H4020 H 0.91792 0.53495 0.83562 0.0
H4021 H 0.89275 0.52116 0.84799 0.0
H4022 H 0.89963 0.55073 0.85551 0.0
H4023 H 0.82972 0.60254 0.82722 0.0
H4024 H 0.79951 0.57626 0.84287 0.0
H4025 H 0.84781 0.51872 0.83952 0.0
C4026 C 0.91456 0.57594 0.80336 0.0
C4027 C 0.91912 0.59916 0.79673 0.0
C4028 C 0.90138 0.61596 0.79928 0.0
C4029 C 0.87951 0.60968 0.80839 0.0
C4030 C 0.87577 0.58658 0.81491 0.0
C4031 C 0.89289 0.57003 0.81244 0.0
C4032 C 0.88486 0.5464 0.8207 0.0
C4033 C 0.88491 0.52877 0.80064 0.0
C4034 C 0.89967 0.53782 0.84117 0.0
C4035 C 0.86042 0.5521 0.82834 0.0
C4036 C 0.85539 0.57532 0.8248 0.0
C4037 C 0.83358 0.58438 0.83007 0.0
C4038 C 0.81651 0.56932 0.83891 0.0
C4039 C 0.82132 0.54545 0.84257 0.0
C4040 C 0.8437 0.53692 0.83736 0.0
H4041 H 0.81603 0.84104 0.46889 0.0
H4042 H 0.8888 0.84616 0.45035 0.0
H4043 H 0.881 0.88414 0.43138 0.0
H4044 H 0.79371 0.86137 0.41756 0.0
H4045 H 0.76994 0.87735 0.43009 0.0
H4046 H 0.78148 0.85249 0.44498 0.0
H4047 H 0.78921 0.87707 0.48156 0.0
H4048 H 0.77703 0.90203 0.46723 0.0
H4049 H 0.80585 0.90347 0.47934 0.0
H4050 H 0.86362 0.9194 0.41048 0.0
H4051 H 0.83927 0.94912 0.39143 0.0
H4052 H 0.77806 0.91963 0.4239 0.0
C4053 C 0.83048 0.8503 0.46121 0.0
C4054 C 0.85305 0.84067 0.46101 0.0
C4055 C 0.87144 0.85335 0.45083 0.0
C4056 C 0.86711 0.87486 0.43999 0.0
C4057 C 0.8444 0.88347 0.43985 0.0
C4058 C 0.82648 0.87164 0.45053 0.0
C4059 C 0.80338 0.88361 0.44693 0.0
C4060 C 0.78614 0.86773 0.43413 0.0
C4061 C 0.79329 0.89206 0.47015 0.0
C4062 C 0.81083 0.90374 0.43188 0.0
C4063 C 0.83455 0.90355 0.42809 0.0
C4064 C 0.8451 0.9198 0.41359 0.0
C4065 C 0.83107 0.93651 0.40266 0.0
C4066 C 0.80668 0.93684 0.40615 0.0
C4067 C 0.79663 0.92027 0.42118 0.0
H4068 H 0.66291 0.48654 0.33473 0.0
H4069 H 0.70376 0.42476 0.3477 0.0
H4070 H 0.67161 0.40042 0.33255 0.0
H4071 H 0.60724 0.46356 0.35009 0.0
H4072 H 0.59221 0.47874 0.32725 0.0
H4073 H 0.61829 0.49085 0.33944 0.0
H4074 H 0.63705 0.49264 0.29856 0.0
H4075 H 0.61077 0.48095 0.2863 0.0
H4076 H 0.63817 0.46678 0.28103 0.0
H4077 H 0.63416 0.38299 0.31601 0.0
H4078 H 0.59541 0.37428 0.29937 0.0
H4079 H 0.5805 0.44805 0.29662 0.0
C4080 C 0.66497 0.46787 0.33475 0.0
C4081 C 0.68569 0.45747 0.34268 0.0
C4082 C 0.68797 0.43302 0.34174 0.0
C4083 C 0.66982 0.4191 0.3332 0.0
C4084 C 0.64962 0.42996 0.32541 0.0
C4085 C 0.64721 0.45383 0.32603 0.0
C4086 C 0.62417 0.46143 0.31605 0.0
C4087 C 0.60962 0.4744 0.33431 0.0
C4088 C 0.62776 0.47632 0.29418 0.0
C4089 C 0.61371 0.43809 0.31011 0.0
C4090 C 0.62859 0.42009 0.31552 0.0
C4091 C 0.62241 0.39697 0.31166 0.0
C4092 C 0.60039 0.39217 0.30218 0.0
C4093 C 0.5849 0.41043 0.29664 0.0
C4094 C 0.59188 0.43363 0.30057 0.0
H4095 H 0.34812 0.64682 0.51918 0.0
H4096 H 0.37226 0.68206 0.5809 0.0
H4097 H 0.36175 0.64789 0.60467 0.0
H4098 H 0.29999 0.62161 0.54231 0.0
H4099 H 0.30219 0.59443 0.52696 0.0
H4100 H 0.315 0.62019 0.51496 0.0
H4101 H 0.35556 0.59915 0.51308 0.0
H4102 H 0.34162 0.57358 0.5245 0.0
H4103 H 0.36658 0.58567 0.53896 0.0
H4104 H 0.34114 0.61341 0.6223 0.0
H4105 H 0.3177 0.57838 0.63162 0.0
H4106 H 0.30995 0.56413 0.55837 0.0
C4107 C 0.35224 0.64677 0.53751 0.0
C4108 C 0.36153 0.6667 0.54823 0.0
C4109 C 0.36577 0.66662 0.57238 0.0
C4110 C 0.35969 0.64736 0.58601 0.0
C4111 C 0.34974 0.6282 0.5751 0.0
C4112 C 0.34671 0.62745 0.55129 0.0
C4113 C 0.33441 0.60536 0.54404 0.0
C4114 C 0.31154 0.61071 0.53132 0.0
C4115 C 0.35048 0.59003 0.52926 0.0
C4116 C 0.32992 0.59443 0.56749 0.0
C4117 C 0.33887 0.60782 0.58525 0.0
C4118 C 0.33471 0.60241 0.60852 0.0
C4119 C 0.32132 0.58266 0.61369 0.0
C4120 C 0.31258 0.56849 0.5957 0.0
C4121 C 0.31708 0.57441 0.57237 0.0
H4122 H 0.91702 0.39546 0.69154 0.0
H4123 H 0.91633 0.43661 0.75437 0.0
H4124 H 0.87915 0.45433 0.74257 0.0
H4125 H 0.90024 0.43939 0.65598 0.0
H4126 H 0.88245 0.42255 0.63654 0.0
H4127 H 0.90574 0.40884 0.6521 0.0
H4128 H 0.87702 0.37893 0.66947 0.0
H4129 H 0.85359 0.39239 0.6537 0.0
H4130 H 0.8516 0.38895 0.68472 0.0
H4131 H 0.84601 0.47201 0.72153 0.0
H4132 H 0.81966 0.48896 0.69269 0.0
H4133 H 0.8416 0.43722 0.64246 0.0
C4134 C 0.90834 0.40733 0.70326 0.0
C4135 C 0.91903 0.41422 0.72418 0.0
C4136 C 0.90804 0.4308 0.73853 0.0
C4137 C 0.88694 0.44094 0.73195 0.0
C4138 C 0.87716 0.43448 0.71082 0.0
C4139 C 0.88742 0.41798 0.69667 0.0
C4140 C 0.87513 0.41666 0.67342 0.0
C4141 C 0.89189 0.4222 0.65334 0.0
C4142 C 0.86365 0.39281 0.67014 0.0
C4143 C 0.85705 0.43559 0.67639 0.0
C4144 C 0.85823 0.44529 0.69825 0.0
C4145 C 0.84454 0.46421 0.70451 0.0
C4146 C 0.82948 0.47371 0.68792 0.0
C4147 C 0.82828 0.46445 0.66515 0.0
C4148 C 0.84201 0.44479 0.65963 0.0
H4149 H 0.16171 0.02754 0.67276 0.0
H4150 H 0.19383 0.08877 0.64326 0.0
H4151 H 0.16149 0.11292 0.6583 0.0
H4152 H 0.10282 0.04264 0.66054 0.0
H4153 H 0.0927 0.02963 0.68717 0.0
H4154 H 0.11893 0.0193 0.67361 0.0
H4155 H 0.14035 0.02648 0.71297 0.0
H4156 H 0.1141 0.03801 0.72545 0.0
H4157 H 0.14018 0.05527 0.72518 0.0
H4158 H 0.12403 0.13005 0.67616 0.0
H4159 H 0.08546 0.13782 0.69394 0.0
H4160 H 0.0793 0.06483 0.7113 0.0
C4161 C 0.16186 0.04599 0.66928 0.0
C4162 C 0.18014 0.05625 0.65663 0.0
C4163 C 0.17996 0.08057 0.65293 0.0
C4164 C 0.16169 0.0944 0.66143 0.0
C4165 C 0.14388 0.08367 0.67388 0.0
C4166 C 0.14399 0.06 0.67785 0.0
C4167 C 0.12285 0.05245 0.69138 0.0
C4168 C 0.10841 0.03498 0.67734 0.0
C4169 C 0.12979 0.04247 0.71515 0.0
C4170 C 0.11043 0.07539 0.69393 0.0
C4171 C 0.12282 0.09335 0.68401 0.0
C4172 C 0.11427 0.11607 0.68404 0.0
C4173 C 0.09239 0.12036 0.69419 0.0
C4174 C 0.07931 0.10196 0.7039 0.0
C4175 C 0.08874 0.07932 0.70394 0.0
H4176 H 0.53089 0.65811 0.85176 0.0
H4177 H 0.59593 0.63541 0.8219 0.0
H4178 H 0.6167 0.64796 0.85738 0.0
H4179 H 0.55109 0.70835 0.87476 0.0
H4180 H 0.53409 0.70805 0.90102 0.0
H4181 H 0.52372 0.69318 0.87565 0.0
H4182 H 0.52053 0.65481 0.89879 0.0
H4183 H 0.53049 0.66964 0.92446 0.0
H4184 H 0.54542 0.64407 0.91439 0.0
H4185 H 0.63093 0.66949 0.89278 0.0
H4186 H 0.63697 0.69482 0.92708 0.0
H4187 H 0.56254 0.70266 0.93417 0.0
C4188 C 0.54931 0.65467 0.85333 0.0
C4189 C 0.56181 0.64503 0.83464 0.0
C4190 C 0.58607 0.64199 0.83651 0.0
C4191 C 0.59798 0.64924 0.85649 0.0
C4192 C 0.5853 0.65947 0.87442 0.0
C4193 C 0.56141 0.66179 0.8732 0.0
C4194 C 0.55212 0.67533 0.89374 0.0
C4195 C 0.53953 0.69753 0.8858 0.0
C4196 C 0.5362 0.66004 0.90874 0.0
C4197 C 0.57454 0.68096 0.90627 0.0
C4198 C 0.59351 0.67163 0.89493 0.0
C4199 C 0.61617 0.67636 0.90214 0.0
C4200 C 0.61948 0.69085 0.92149 0.0
C4201 C 0.60025 0.70029 0.93351 0.0
C4202 C 0.57754 0.69509 0.92578 0.0
H4203 H 0.94134 0.21546 0.41477 0.0
H4204 H 0.86749 0.20485 0.40469 0.0
H4205 H 0.87548 0.18828 0.36573 0.0
H4206 H 0.95538 0.22972 0.35409 0.0
H4207 H 0.98269 0.21458 0.35475 0.0
H4208 H 0.97161 0.22797 0.38077 0.0
H4209 H 0.97407 0.18932 0.40284 0.0
H4210 H 0.98533 0.17498 0.37752 0.0
H4211 H 0.95961 0.164 0.39149 0.0
H4212 H 0.89246 0.16897 0.32953 0.0
H4213 H 0.91625 0.14967 0.29959 0.0
H4214 H 0.97879 0.17252 0.33486 0.0
C4215 C 0.92673 0.21006 0.40426 0.0
C4216 C 0.90376 0.21141 0.41278 0.0
C4217 C 0.8852 0.20411 0.39844 0.0
C4218 C 0.88961 0.19466 0.37632 0.0
C4219 C 0.91261 0.19294 0.36877 0.0
C4220 C 0.93082 0.20071 0.38229 0.0
C4221 C 0.95405 0.19567 0.37108 0.0
C4222 C 0.96668 0.21833 0.36482 0.0
C4223 C 0.96914 0.18008 0.38667 0.0
C4224 C 0.94622 0.18296 0.34953 0.0
C4225 C 0.92228 0.18183 0.34825 0.0
C4226 C 0.91121 0.16997 0.33032 0.0
C4227 C 0.92493 0.15886 0.31346 0.0
C4228 C 0.94954 0.15942 0.3147 0.0
C4229 C 0.96013 0.17196 0.33294 0.0
H4230 H 0.44224 0.82718 0.82266 0.0
H4231 H 0.46855 0.89484 0.84246 0.0
H4232 H 0.45252 0.88912 0.88212 0.0
H4233 H 0.38873 0.82985 0.85712 0.0
H4234 H 0.38981 0.79932 0.8638 0.0
H4235 H 0.40165 0.80984 0.83683 0.0
H4236 H 0.4416 0.79109 0.84655 0.0
H4237 H 0.42901 0.78026 0.8729 0.0
H4238 H 0.45511 0.79753 0.87406 0.0
H4239 H 0.43536 0.87416 0.92046 0.0
H4240 H 0.41983 0.852 0.95343 0.0
H4241 H 0.40597 0.79384 0.90743 0.0
C4242 C 0.44454 0.84095 0.83523 0.0
C4243 C 0.45674 0.86144 0.82952 0.0
C4244 C 0.45918 0.87905 0.84646 0.0
C4245 C 0.45013 0.87592 0.86899 0.0
C4246 C 0.43847 0.85524 0.87408 0.0
C4247 C 0.43555 0.83817 0.85753 0.0
C4248 C 0.42318 0.81719 0.86728 0.0
C4249 C 0.39943 0.81386 0.85556 0.0
C4250 C 0.43819 0.79524 0.86507 0.0
C4251 C 0.42042 0.82453 0.89231 0.0
C4252 C 0.42892 0.84667 0.89586 0.0
C4253 C 0.42865 0.85682 0.91778 0.0
C4254 C 0.41988 0.8439 0.93653 0.0
C4255 C 0.41175 0.82078 0.93347 0.0
C4256 C 0.41177 0.81133 0.91079 0.0
H4257 H 0.06402 0.28472 0.40898 0.0
H4258 H 0.13203 0.31639 0.41463 0.0
H4259 H 0.1257 0.33626 0.37689 0.0
H4260 H 0.06466 0.27665 0.34541 0.0
H4261 H 0.03415 0.2831 0.34283 0.0
H4262 H 0.04511 0.26968 0.36884 0.0
H4263 H 0.02747 0.30259 0.39364 0.0
H4264 H 0.01632 0.31621 0.3679 0.0
H4265 H 0.03486 0.33232 0.38726 0.0
H4266 H 0.1092 0.35644 0.34084 0.0
H4267 H 0.08574 0.373 0.30918 0.0
H4268 H 0.02936 0.32614 0.32703 0.0
C4269 C 0.0778 0.2955 0.40209 0.0
C4270 C 0.09852 0.29909 0.4147 0.0
C4271 C 0.11613 0.31327 0.40512 0.0
C4272 C 0.11261 0.32467 0.38376 0.0
C4273 C 0.09157 0.32131 0.37213 0.0
C4274 C 0.07465 0.30671 0.38085 0.0
C4275 C 0.05314 0.30671 0.36577 0.0
C4276 C 0.04905 0.2826 0.35507 0.0
C4277 C 0.0317 0.31496 0.37946 0.0
C4278 C 0.0602 0.32422 0.34754 0.0
C4279 C 0.08242 0.3324 0.35135 0.0
C4280 C 0.09195 0.3498 0.33749 0.0
C4281 C 0.07841 0.35911 0.31943 0.0
C4282 C 0.05547 0.35107 0.31529 0.0
C4283 C 0.0466 0.33307 0.32951 0.0
H4284 H 0.526 0.33926 0.64624 0.0
H4285 H 0.58663 0.37158 0.67651 0.0
H4286 H 0.60976 0.36073 0.64185 0.0
H4287 H 0.55127 0.29194 0.62403 0.0
H4288 H 0.53548 0.29038 0.59708 0.0
H4289 H 0.52265 0.30444 0.62177 0.0
H4290 H 0.51744 0.34323 0.59848 0.0
H4291 H 0.52849 0.32789 0.57355 0.0
H4292 H 0.54177 0.35469 0.58271 0.0
H4293 H 0.62753 0.3398 0.6073 0.0
H4294 H 0.63737 0.31445 0.57389 0.0
H4295 H 0.56461 0.29769 0.56538 0.0
C4296 C 0.54388 0.34496 0.64499 0.0
C4297 C 0.55451 0.3567 0.66365 0.0
C4298 C 0.57811 0.36319 0.66201 0.0
C4299 C 0.59137 0.35693 0.64247 0.0
C4300 C 0.58059 0.3446 0.62461 0.0
C4301 C 0.55717 0.33929 0.62541 0.0
C4302 C 0.55001 0.32474 0.60471 0.0
C4303 C 0.53923 0.3015 0.61237 0.0
C4304 C 0.53343 0.33842 0.58892 0.0
C4305 C 0.57328 0.32131 0.59298 0.0
C4306 C 0.5907 0.33312 0.60449 0.0
C4307 C 0.61391 0.331 0.59782 0.0
C4308 C 0.61938 0.31653 0.57892 0.0
C4309 C 0.60173 0.3045 0.5668 0.0
C4310 C 0.57839 0.30721 0.57386 0.0
H4311 H 0.57825 0.22823 0.59611 0.0
H4312 H 0.6505 0.21237 0.6098 0.0
H4313 H 0.63989 0.19971 0.64957 0.0
H4314 H 0.56119 0.24546 0.65706 0.0
H4315 H 0.53326 0.23173 0.65372 0.0
H4316 H 0.54737 0.24475 0.62902 0.0
H4317 H 0.5441 0.20584 0.6068 0.0
H4318 H 0.53026 0.19265 0.63138 0.0
H4319 H 0.55622 0.1799 0.61942 0.0
H4320 H 0.62023 0.18238 0.68479 0.0
H4321 H 0.59409 0.16257 0.71214 0.0
H4322 H 0.53461 0.18805 0.6735 0.0
C4323 C 0.592 0.22284 0.60774 0.0
C4324 C 0.6152 0.22129 0.6 0.0
C4325 C 0.63267 0.21396 0.61556 0.0
C4326 C 0.62676 0.20671 0.63813 0.0
C4327 C 0.6034 0.20724 0.64477 0.0
C4328 C 0.58635 0.21545 0.63005 0.0
C4329 C 0.56229 0.21152 0.63982 0.0
C4330 C 0.55033 0.23475 0.64524 0.0
C4331 C 0.54737 0.19658 0.62338 0.0
C4332 C 0.5683 0.19857 0.6618 0.0
C4333 C 0.59206 0.19676 0.66468 0.0
C4334 C 0.60161 0.184 0.68284 0.0
C4335 C 0.58653 0.17254 0.69817 0.0
C4336 C 0.5621 0.17348 0.69504 0.0
C4337 C 0.55305 0.18715 0.67681 0.0
H4338 H 0.46202 0.19816 0.66838 0.0
H4339 H 0.45409 0.12357 0.6621 0.0
H4340 H 0.43595 0.129 0.62341 0.0
H4341 H 0.40898 0.21442 0.64355 0.0
H4342 H 0.42035 0.23945 0.6286 0.0
H4343 H 0.43401 0.22945 0.65481 0.0
H4344 H 0.47321 0.22637 0.63325 0.0
H4345 H 0.45977 0.23604 0.60674 0.0
H4346 H 0.47532 0.20893 0.60737 0.0
H4347 H 0.4162 0.14336 0.5862 0.0
H4348 H 0.3983 0.16488 0.55364 0.0
H4349 H 0.42011 0.22982 0.58486 0.0
C4350 C 0.45668 0.18288 0.65883 0.0
C4351 C 0.45941 0.1604 0.66831 0.0
C4352 C 0.45228 0.14093 0.65514 0.0
C4353 C 0.44189 0.14388 0.6332 0.0
C4354 C 0.43901 0.16639 0.62462 0.0
C4355 C 0.44648 0.18552 0.63699 0.0
C4356 C 0.44118 0.20791 0.62426 0.0
C4357 C 0.42517 0.22372 0.63867 0.0
C4358 C 0.46372 0.22055 0.61751 0.0
C4359 C 0.42883 0.19851 0.60309 0.0
C4360 C 0.4279 0.17454 0.60343 0.0
C4361 C 0.41702 0.16211 0.58574 0.0
C4362 C 0.40692 0.17449 0.56727 0.0
C4363 C 0.40762 0.19909 0.56663 0.0
C4364 C 0.41885 0.21109 0.58487 0.0
H4365 H 0.47672 0.33318 0.65666 0.0
H4366 H 0.41508 0.35422 0.69465 0.0
H4367 H 0.39058 0.33591 0.66479 0.0
H4368 H 0.45598 0.34382 0.60148 0.0
H4369 H 0.47028 0.31915 0.58857 0.0
H4370 H 0.48201 0.33225 0.61433 0.0
H4371 H 0.48058 0.29205 0.63497 0.0
H4372 H 0.46856 0.27943 0.60904 0.0
H4373 H 0.45341 0.27658 0.63627 0.0
H4374 H 0.37269 0.3176 0.62871 0.0
H4375 H 0.3636 0.30181 0.58969 0.0
H4376 H 0.43723 0.29259 0.57671 0.0
C4377 C 0.45813 0.33353 0.65918 0.0
C4378 C 0.44801 0.34531 0.67817 0.0
C4379 C 0.42344 0.34565 0.68021 0.0
C4380 C 0.4093 0.33506 0.66341 0.0
C4381 C 0.41994 0.32391 0.64478 0.0
C4382 C 0.44382 0.32293 0.64274 0.0
C4383 C 0.45109 0.31117 0.62047 0.0
C4384 C 0.46568 0.32758 0.60528 0.0
C4385 C 0.46417 0.28846 0.62551 0.0
C4386 C 0.42759 0.30646 0.60983 0.0
C4387 C 0.40975 0.31354 0.6242 0.0
C4388 C 0.38654 0.31178 0.61743 0.0
C4389 C 0.38152 0.30282 0.59527 0.0
C4390 C 0.39969 0.2961 0.58016 0.0
C4391 C 0.42292 0.29764 0.58781 0.0
H4392 H 0.82628 0.57068 0.68086 0.0
H4393 H 0.84896 0.55782 0.61022 0.0
H4394 H 0.88807 0.57297 0.62037 0.0
H4395 H 0.85961 0.6236 0.69097 0.0
H4396 H 0.86548 0.61596 0.72072 0.0
H4397 H 0.83909 0.60627 0.70704 0.0
H4398 H 0.84933 0.56369 0.71734 0.0
H4399 H 0.87571 0.57324 0.731 0.0
H4400 H 0.87682 0.55188 0.70818 0.0
H4401 H 0.92571 0.58661 0.63987 0.0
H4402 H 0.95781 0.59748 0.66622 0.0
H4403 H 0.90942 0.60065 0.72377 0.0
C4404 C 0.8393 0.57129 0.66731 0.0
C4405 C 0.83454 0.56309 0.64468 0.0
C4406 C 0.85218 0.56416 0.62761 0.0
C4407 C 0.87441 0.57271 0.63326 0.0
C4408 C 0.87856 0.58023 0.65597 0.0
C4409 C 0.86136 0.57968 0.67264 0.0
C4410 C 0.87025 0.58742 0.69611 0.0
C4411 C 0.85787 0.60964 0.70417 0.0
C4412 C 0.86789 0.56789 0.71421 0.0
C4413 C 0.89537 0.5921 0.69027 0.0
C4414 C 0.89989 0.588 0.66704 0.0
C4415 C 0.92224 0.59005 0.65801 0.0
C4416 C 0.94039 0.59612 0.67314 0.0
C4417 C 0.93614 0.60005 0.69707 0.0
C4418 C 0.91321 0.5983 0.70553 0.0
H4419 H 0.7837 0.92874 0.56396 0.0
H4420 H 0.79015 0.91861 0.63828 0.0
H4421 H 0.80619 0.87932 0.63131 0.0
H4422 H 0.768 0.86809 0.55031 0.0
H4423 H 0.78404 0.86797 0.52348 0.0
H4424 H 0.7711 0.8945 0.53384 0.0
H4425 H 0.81072 0.91533 0.53241 0.0
H4426 H 0.824 0.8893 0.5215 0.0
H4427 H 0.83525 0.90288 0.54734 0.0
H4428 H 0.82515 0.84284 0.61589 0.0
H4429 H 0.84472 0.81196 0.59365 0.0
H4430 H 0.82582 0.84635 0.52939 0.0
C4431 C 0.78818 0.91817 0.57883 0.0
C4432 C 0.78576 0.92676 0.6017 0.0
C4433 C 0.79178 0.91234 0.62064 0.0
C4434 C 0.80089 0.89002 0.61682 0.0
C4435 C 0.80352 0.8823 0.594 0.0
C4436 C 0.79709 0.89588 0.57533 0.0
C4437 C 0.80255 0.88402 0.55249 0.0
C4438 C 0.78009 0.87832 0.53925 0.0
C4439 C 0.81912 0.89876 0.53758 0.0
C4440 C 0.81423 0.86215 0.56117 0.0
C4441 C 0.81427 0.86129 0.58515 0.0
C4442 C 0.82503 0.84327 0.59712 0.0
C4443 C 0.83628 0.82588 0.5843 0.0
C4444 C 0.83694 0.82665 0.55971 0.0
C4445 C 0.82538 0.84493 0.5481 0.0
H4446 H 0.14604 0.98204 0.66872 0.0
H4447 H 0.17873 0.92044 0.64091 0.0
H4448 H 0.14538 0.89671 0.65416 0.0
H4449 H 0.1247 0.96014 0.71822 0.0
H4450 H 0.09706 0.9748 0.71818 0.0
H4451 H 0.12128 0.98724 0.70301 0.0
H4452 H 0.09739 0.9873 0.66349 0.0
H4453 H 0.0733 0.9769 0.68056 0.0
H4454 H 0.08271 0.96116 0.65522 0.0
H4455 H 0.11189 0.87913 0.67675 0.0
H4456 H 0.07907 0.8698 0.70298 0.0
H4457 H 0.06734 0.94319 0.7142 0.0
C4458 C 0.14557 0.96372 0.66456 0.0
C4459 C 0.16458 0.95302 0.65343 0.0
C4460 C 0.16396 0.92893 0.64887 0.0
C4461 C 0.14516 0.91534 0.65647 0.0
C4462 C 0.12692 0.92626 0.6681 0.0
C4463 C 0.12664 0.95004 0.67146 0.0
C4464 C 0.10556 0.95736 0.68543 0.0
C4465 C 0.11258 0.97066 0.70751 0.0
C4466 C 0.08875 0.97154 0.67032 0.0
C4467 C 0.09516 0.93392 0.69109 0.0
C4468 C 0.10742 0.91618 0.68059 0.0
C4469 C 0.10185 0.89294 0.68457 0.0
C4470 C 0.08329 0.88778 0.69957 0.0
C4471 C 0.07045 0.90574 0.71037 0.0
C4472 C 0.0764 0.92908 0.70576 0.0
H4473 H 0.17031 0.66282 0.52668 0.0
H4474 H 0.14557 0.69588 0.58969 0.0
H4475 H 0.16635 0.66661 0.61305 0.0
H4476 H 0.1649 0.60558 0.54542 0.0
H4477 H 0.19081 0.59541 0.53112 0.0
H4478 H 0.1753 0.61989 0.5196 0.0
H4479 H 0.21263 0.64475 0.52161 0.0
H4480 H 0.22837 0.62033 0.53315 0.0
H4481 H 0.22796 0.64744 0.54875 0.0
H4482 H 0.18839 0.63163 0.6296 0.0
H4483 H 0.2085 0.59423 0.63709 0.0
H4484 H 0.2194 0.58592 0.56306 0.0
C4485 C 0.16957 0.66434 0.54537 0.0
C4486 C 0.1562 0.68184 0.55621 0.0
C4487 C 0.15542 0.68259 0.58083 0.0
C4488 C 0.16735 0.66611 0.5943 0.0
C4489 C 0.18022 0.64903 0.58299 0.0
C4490 C 0.18144 0.64816 0.55904 0.0
C4491 C 0.19554 0.62756 0.55092 0.0
C4492 C 0.18074 0.61114 0.5359 0.0
C4493 C 0.21742 0.6355 0.53785 0.0
C4494 C 0.20164 0.61665 0.57402 0.0
C4495 C 0.19288 0.62929 0.5924 0.0
C4496 C 0.19553 0.62175 0.61532 0.0
C4497 C 0.20704 0.60054 0.61946 0.0
C4498 C 0.21558 0.58715 0.60073 0.0
C4499 C 0.21317 0.59571 0.57785 0.0
H4500 H 0.91803 0.39653 0.78975 0.0
H4501 H 0.96875 0.41669 0.84178 0.0
H4502 H 0.93716 0.43193 0.86629 0.0
H4503 H 0.88315 0.4436 0.79328 0.0
H4504 H 0.85578 0.42869 0.79049 0.0
H4505 H 0.88147 0.41632 0.77799 0.0
H4506 H 0.8765 0.37831 0.80056 0.0
H4507 H 0.84988 0.38946 0.81261 0.0
H4508 H 0.87249 0.37909 0.83157 0.0
H4509 H 0.89911 0.44843 0.88377 0.0
H4510 H 0.85908 0.46252 0.89211 0.0
H4511 H 0.83515 0.42989 0.82865 0.0
C4512 C 0.92278 0.40351 0.80647 0.0
C4513 C 0.94624 0.40543 0.81347 0.0
C4514 C 0.9511 0.4152 0.8356 0.0
C4515 C 0.9332 0.42385 0.84982 0.0
C4516 C 0.91039 0.42228 0.84193 0.0
C4517 C 0.90521 0.41197 0.8209 0.0
C4518 C 0.87954 0.41302 0.81576 0.0
C4519 C 0.87473 0.42623 0.79306 0.0
C4520 C 0.86899 0.38851 0.8151 0.0
C4521 C 0.87116 0.42638 0.83667 0.0
C4522 C 0.88897 0.43141 0.85186 0.0
C4523 C 0.88502 0.44433 0.87206 0.0
C4524 C 0.86229 0.45228 0.87668 0.0
C4525 C 0.84401 0.44743 0.86101 0.0
C4526 C 0.84869 0.4341 0.84098 0.0
H4527 H 0.72896 0.90758 0.41564 0.0
H4528 H 0.6689 0.94088 0.38529 0.0
H4529 H 0.64453 0.90717 0.3965 0.0
H4530 H 0.71124 0.84581 0.39968 0.0
H4531 H 0.724 0.83523 0.42619 0.0
H4532 H 0.73612 0.86023 0.41182 0.0
H4533 H 0.73147 0.88312 0.45082 0.0
H4534 H 0.71838 0.85822 0.4643 0.0
H4535 H 0.70304 0.88546 0.46369 0.0
H4536 H 0.62584 0.87311 0.41775 0.0
H4537 H 0.61555 0.83875 0.44178 0.0
H4538 H 0.68838 0.82673 0.45555 0.0
C4539 C 0.71088 0.90721 0.41046 0.0
C4540 C 0.70079 0.92642 0.39917 0.0
C4541 C 0.67697 0.92593 0.39333 0.0
C4542 C 0.66301 0.90697 0.39984 0.0
C4543 C 0.67333 0.88856 0.41176 0.0
C4544 C 0.6969 0.88825 0.41638 0.0
C4545 C 0.70363 0.86704 0.43034 0.0
C4546 C 0.7197 0.85113 0.41618 0.0
C4547 C 0.71478 0.87388 0.45365 0.0
C4548 C 0.68006 0.85599 0.43384 0.0
C4549 C 0.66274 0.8686 0.42304 0.0
C4550 C 0.63934 0.86276 0.4257 0.0
C4551 C 0.63361 0.84339 0.43944 0.0
C4552 C 0.65121 0.82998 0.45002 0.0
C4553 C 0.67467 0.83638 0.44707 0.0
H4554 H 0.17319 0.06002 0.81467 0.0
H4555 H 0.15794 0.05904 0.8884 0.0
H4556 H 0.11853 0.07459 0.88014 0.0
H4557 H 0.14511 0.11276 0.80161 0.0
H4558 H 0.13487 0.10315 0.77366 0.0
H4559 H 0.16106 0.09109 0.78563 0.0
H4560 H 0.14396 0.0497 0.78146 0.0
H4561 H 0.11769 0.06167 0.7695 0.0
H4562 H 0.11634 0.04304 0.79459 0.0
H4563 H 0.08102 0.09209 0.86299 0.0
H4564 H 0.04928 0.10842 0.83908 0.0
H4565 H 0.0908 0.0977 0.77718 0.0
C4566 C 0.16162 0.06293 0.82919 0.0
C4567 C 0.16868 0.05838 0.85223 0.0
C4568 C 0.15287 0.06237 0.87062 0.0
C4569 C 0.1305 0.07122 0.86606 0.0
C4570 C 0.12427 0.07578 0.84305 0.0
C4571 C 0.13944 0.07159 0.82496 0.0
C4572 C 0.12908 0.07821 0.80179 0.0
C4573 C 0.14338 0.09745 0.79 0.0
C4574 C 0.12662 0.05688 0.78591 0.0
C4575 C 0.10567 0.08706 0.80956 0.0
C4576 C 0.10308 0.08554 0.83336 0.0
C4577 C 0.08291 0.09324 0.84434 0.0
C4578 C 0.06501 0.10263 0.83062 0.0
C4579 C 0.06739 0.10426 0.80617 0.0
C4580 C 0.0881 0.09633 0.7957 0.0
H4581 H 0.29689 0.57917 0.43851 0.0
H4582 H 0.29963 0.59293 0.36452 0.0
H4583 H 0.31598 0.632 0.37271 0.0
H4584 H 0.27968 0.63583 0.45538 0.0
H4585 H 0.29661 0.63654 0.48156 0.0
H4586 H 0.28574 0.60929 0.47076 0.0
H4587 H 0.32647 0.59194 0.47003 0.0
H4588 H 0.33924 0.61853 0.48038 0.0
H4589 H 0.34924 0.60588 0.45367 0.0
H4590 H 0.33197 0.67016 0.39 0.0
H4591 H 0.34622 0.70278 0.41427 0.0
H4592 H 0.33319 0.66235 0.47625 0.0
C4593 C 0.30089 0.59028 0.4239 0.0
C4594 C 0.29703 0.58293 0.40082 0.0
C4595 C 0.30247 0.59819 0.38233 0.0
C4596 C 0.31175 0.62038 0.38684 0.0
C4597 C 0.31541 0.62697 0.4099 0.0
C4598 C 0.31007 0.61227 0.42806 0.0
C4599 C 0.31539 0.62316 0.4513 0.0
C4600 C 0.29304 0.62638 0.4656 0.0
C4601 C 0.33365 0.609 0.46462 0.0
C4602 C 0.32509 0.64621 0.44355 0.0
C4603 C 0.32477 0.64833 0.41964 0.0
C4604 C 0.33237 0.66855 0.4087 0.0
C4605 C 0.34041 0.68697 0.42258 0.0
C4606 C 0.34107 0.68492 0.44708 0.0
C4607 C 0.33336 0.6642 0.45756 0.0
H4608 H 0.71534 0.92967 0.57793 0.0
H4609 H 0.65391 0.96216 0.60694 0.0
H4610 H 0.6295 0.93152 0.58931 0.0
H4611 H 0.68926 0.91058 0.52384 0.0
H4612 H 0.70532 0.88375 0.52342 0.0
H4613 H 0.71761 0.90907 0.537 0.0
H4614 H 0.72309 0.88626 0.57527 0.0
H4615 H 0.71106 0.86081 0.56183 0.0
H4616 H 0.69851 0.87187 0.58827 0.0
H4617 H 0.61204 0.89545 0.56992 0.0
H4618 H 0.60386 0.85695 0.55229 0.0
H4619 H 0.6771 0.84913 0.53663 0.0
C4620 C 0.69678 0.93038 0.58072 0.0
C4621 C 0.68659 0.94834 0.59395 0.0
C4622 C 0.66213 0.94871 0.59673 0.0
C4623 C 0.64812 0.93136 0.58679 0.0
C4624 C 0.65881 0.91385 0.57394 0.0
C4625 C 0.68262 0.91332 0.57091 0.0
C4626 C 0.69011 0.89224 0.5572 0.0
C4627 C 0.70122 0.89935 0.53399 0.0
C4628 C 0.70665 0.87689 0.57151 0.0
C4629 C 0.66685 0.88062 0.5535 0.0
C4630 C 0.6489 0.89338 0.56297 0.0
C4631 C 0.62597 0.88542 0.56229 0.0
C4632 C 0.62144 0.86362 0.55216 0.0
C4633 C 0.63981 0.85007 0.54311 0.0
C4634 C 0.66264 0.85905 0.54341 0.0
H4635 H 0.62596 0.15011 0.92377 0.0
H4636 H 0.64267 0.14634 0.99681 0.0
H4637 H 0.66162 0.10832 0.99054 0.0
H4638 H 0.61806 0.08466 0.91406 0.0
H4639 H 0.63115 0.08688 0.88573 0.0
H4640 H 0.6143 0.11067 0.89711 0.0
H4641 H 0.64925 0.1381 0.89045 0.0
H4642 H 0.66644 0.11444 0.87968 0.0
H4643 H 0.67676 0.13144 0.90381 0.0
H4644 H 0.68625 0.07595 0.97468 0.0
H4645 H 0.71028 0.04897 0.95135 0.0
H4646 H 0.67643 0.07288 0.88874 0.0
C4647 C 0.63233 0.14051 0.93861 0.0
C4648 C 0.63214 0.15057 0.9609 0.0
C4649 C 0.64184 0.13835 0.97981 0.0
C4650 C 0.65284 0.11688 0.97632 0.0
C4651 C 0.65375 0.10785 0.95385 0.0
C4652 C 0.64319 0.119 0.93539 0.0
C4653 C 0.64879 0.1071 0.91261 0.0
C4654 C 0.62676 0.0967 0.90174 0.0
C4655 C 0.66104 0.12377 0.89566 0.0
C4656 C 0.66508 0.08825 0.92093 0.0
C4657 C 0.66766 0.08887 0.94478 0.0
C4658 C 0.68382 0.07485 0.9561 0.0
C4659 C 0.69754 0.05975 0.94274 0.0
C4660 C 0.69493 0.05868 0.91835 0.0
C4661 C 0.67828 0.07294 0.90742 0.0
H4662 H 0.41551 0.06591 0.28984 0.0
H4663 H 0.41232 0.13542 0.31839 0.0
H4664 H 0.37392 0.12624 0.33586 0.0
H4665 H 0.35361 0.05965 0.27686 0.0
H4666 H 0.3531 0.02946 0.28505 0.0
H4667 H 0.37918 0.04195 0.27325 0.0
H4668 H 0.40233 0.02866 0.30882 0.0
H4669 H 0.37667 0.01618 0.32148 0.0
H4670 H 0.39316 0.03736 0.33745 0.0
H4671 H 0.33768 0.10699 0.35407 0.0
H4672 H 0.30703 0.08097 0.36908 0.0
H4673 H 0.33417 0.02519 0.3263 0.0
C4674 C 0.40659 0.0794 0.29943 0.0
C4675 C 0.41688 0.10138 0.30283 0.0
C4676 C 0.40463 0.11852 0.31546 0.0
C4677 C 0.38287 0.11341 0.32548 0.0
C4678 C 0.37352 0.09123 0.32232 0.0
C4679 C 0.38494 0.07467 0.30925 0.0
C4680 C 0.37207 0.0518 0.30922 0.0
C4681 C 0.36399 0.04537 0.28463 0.0
C4682 C 0.38697 0.03238 0.31987 0.0
C4683 C 0.35178 0.05779 0.32473 0.0
C4684 C 0.35278 0.08054 0.33219 0.0
C4685 C 0.33659 0.08927 0.34796 0.0
C4686 C 0.31915 0.07431 0.35639 0.0
C4687 C 0.31799 0.0508 0.34907 0.0
C4688 C 0.33444 0.04281 0.33267 0.0
H4689 H 0.32103 0.32159 0.93267 0.0
H4690 H 0.38769 0.34558 0.95826 0.0
H4691 H 0.37953 0.38462 0.94202 0.0
H4692 H 0.31962 0.35553 0.87924 0.0
H4693 H 0.28888 0.36091 0.8816 0.0
H4694 H 0.30107 0.3346 0.89329 0.0
H4695 H 0.28322 0.34419 0.93345 0.0
H4696 H 0.27111 0.37053 0.92189 0.0
H4697 H 0.28974 0.37163 0.94697 0.0
H4698 H 0.36237 0.42182 0.92524 0.0
H4699 H 0.33787 0.4537 0.91027 0.0
H4700 H 0.28241 0.40469 0.89667 0.0
C4701 C 0.33418 0.33487 0.9346 0.0
C4702 C 0.35513 0.33046 0.94663 0.0
C4703 C 0.37163 0.34851 0.94897 0.0
C4704 C 0.36712 0.37071 0.93979 0.0
C4705 C 0.34607 0.37449 0.92833 0.0
C4706 C 0.32991 0.35699 0.92573 0.0
C4707 C 0.30802 0.36566 0.91406 0.0
C4708 C 0.30418 0.35344 0.89066 0.0
C4709 C 0.28679 0.36283 0.93006 0.0
C4710 C 0.31416 0.39093 0.91071 0.0
C4711 C 0.33622 0.39571 0.91889 0.0
C4712 C 0.34517 0.41817 0.91865 0.0
C4713 C 0.33108 0.43619 0.9102 0.0
C4714 C 0.30824 0.43171 0.90218 0.0
C4715 C 0.29993 0.40866 0.90215 0.0
H4716 H 0.18054 0.93437 0.86586 0.0
H4717 H 0.19799 0.97544 0.80541 0.0
H4718 H 0.17178 0.95127 0.78143 0.0
H4719 H 0.17232 0.87753 0.83595 0.0
H4720 H 0.1478 0.87007 0.85391 0.0
H4721 H 0.17076 0.88797 0.86539 0.0
H4722 H 0.14088 0.91989 0.87609 0.0
H4723 H 0.11793 0.90194 0.86501 0.0
H4724 H 0.12175 0.93095 0.85395 0.0
H4725 H 0.14062 0.9256 0.76514 0.0
H4726 H 0.10385 0.90427 0.75916 0.0
H4727 H 0.10596 0.88034 0.83024 0.0
C4728 C 0.17928 0.93781 0.84744 0.0
C4729 C 0.19147 0.95655 0.83737 0.0
C4730 C 0.18881 0.96113 0.8134 0.0
C4731 C 0.17416 0.94734 0.79964 0.0
C4732 C 0.16223 0.92905 0.81013 0.0
C4733 C 0.16447 0.92442 0.83357 0.0
C4734 C 0.1475 0.90587 0.84129 0.0
C4735 C 0.16037 0.88406 0.84963 0.0
C4736 C 0.13104 0.91523 0.86018 0.0
C4737 C 0.13477 0.90131 0.81873 0.0
C4738 C 0.14395 0.91441 0.8008 0.0
C4739 C 0.13368 0.91483 0.77888 0.0
C4740 C 0.11295 0.90246 0.77552 0.0
C4741 C 0.10273 0.88996 0.79399 0.0
C4742 C 0.11413 0.88882 0.81559 0.0
H4743 H 0.77712 0.08884 0.08521 0.0
H4744 H 0.83681 0.05843 0.11981 0.0
H4745 H 0.86178 0.08878 0.10317 0.0
H4746 H 0.80838 0.10612 0.03175 0.0
H4747 H 0.7912 0.13211 0.02911 0.0
H4748 H 0.7789 0.10659 0.04229 0.0
H4749 H 0.76914 0.13063 0.0791 0.0
H4750 H 0.78123 0.15603 0.06556 0.0
H4751 H 0.79176 0.14668 0.09352 0.0
H4752 H 0.88019 0.12456 0.08415 0.0
H4753 H 0.8893 0.16229 0.06532 0.0
H4754 H 0.81755 0.16795 0.04321 0.0
C4755 C 0.79546 0.08807 0.08904 0.0
C4756 C 0.80469 0.071 0.10408 0.0
C4757 C 0.82895 0.0713 0.10869 0.0
C4758 C 0.84344 0.08844 0.09911 0.0
C4759 C 0.83363 0.10512 0.08464 0.0
C4760 C 0.8102 0.10489 0.07949 0.0
C4761 C 0.80361 0.12528 0.06433 0.0
C4762 C 0.79503 0.11701 0.04045 0.0
C4763 C 0.78538 0.1406 0.07636 0.0
C4764 C 0.8268 0.13748 0.06242 0.0
C4765 C 0.84407 0.12549 0.07391 0.0
C4766 C 0.86679 0.13397 0.07495 0.0
C4767 C 0.87185 0.15538 0.06422 0.0
C4768 C 0.85416 0.16812 0.05292 0.0
C4769 C 0.8315 0.15874 0.05182 0.0
H4770 H 0.34329 0.93125 0.13185 0.0
H4771 H 0.3018 0.94903 0.19207 0.0
H4772 H 0.32774 0.92511 0.21668 0.0
H4773 H 0.35823 0.87122 0.14919 0.0
H4774 H 0.38711 0.87387 0.13744 0.0
H4775 H 0.36343 0.88967 0.12447 0.0
H4776 H 0.38598 0.92825 0.12988 0.0
H4777 H 0.4097 0.91259 0.14262 0.0
H4778 H 0.3963 0.93607 0.15835 0.0
H4779 H 0.36131 0.90244 0.23517 0.0
H4780 H 0.39996 0.88632 0.24549 0.0
H4781 H 0.41818 0.88363 0.17275 0.0
C4782 C 0.33905 0.92959 0.15005 0.0
C4783 C 0.32022 0.94186 0.15991 0.0
C4784 C 0.31608 0.93981 0.18407 0.0
C4785 C 0.33063 0.92609 0.19815 0.0
C4786 C 0.34918 0.91441 0.18779 0.0
C4787 C 0.35334 0.9161 0.16423 0.0
C4788 C 0.37564 0.90405 0.15745 0.0
C4789 C 0.3708 0.88348 0.14118 0.0
C4790 C 0.39291 0.92126 0.14644 0.0
C4791 C 0.38386 0.8958 0.18094 0.0
C4792 C 0.36825 0.90152 0.19828 0.0
C4793 C 0.37334 0.89739 0.22165 0.0
C4794 C 0.39519 0.88801 0.22739 0.0
C4795 C 0.41158 0.88304 0.20981 0.0
C4796 C 0.40555 0.88645 0.18639 0.0
H4797 H 0.67118 0.56805 0.15352 0.0
H4798 H 0.66467 0.49907 0.18275 0.0
H4799 H 0.63102 0.51195 0.20595 0.0
H4800 H 0.65259 0.60101 0.205 0.0
H4801 H 0.63607 0.62184 0.18853 0.0
H4802 H 0.66112 0.60812 0.17574 0.0
H4803 H 0.63601 0.59383 0.14131 0.0
H4804 H 0.61099 0.60771 0.15388 0.0
H4805 H 0.61013 0.57719 0.14707 0.0
H4806 H 0.59821 0.53141 0.22518 0.0
H4807 H 0.56386 0.55454 0.23533 0.0
H4808 H 0.58887 0.61116 0.19245 0.0
C4809 C 0.66269 0.55583 0.165 0.0
C4810 C 0.67053 0.53259 0.16652 0.0
C4811 C 0.65885 0.51688 0.18133 0.0
C4812 C 0.63989 0.52411 0.19472 0.0
C4813 C 0.63261 0.54711 0.19293 0.0
C4814 C 0.64331 0.56269 0.17819 0.0
C4815 C 0.63046 0.58578 0.17807 0.0
C4816 C 0.64599 0.60535 0.18739 0.0
C4817 C 0.62136 0.59145 0.15363 0.0
C4818 C 0.61068 0.58056 0.19477 0.0
C4819 C 0.61273 0.55826 0.20345 0.0
C4820 C 0.59641 0.54887 0.21852 0.0
C4821 C 0.57695 0.56218 0.22417 0.0
C4822 C 0.5737 0.58461 0.21466 0.0
C4823 C 0.59113 0.59424 0.20028 0.0
loop_
_geom_bond_atom_site_label_1
_geom_bond_atom_site_label_2
_geom_bond_distance
_geom_bond_site_symmetry_2
_ccdc_geom_bond_type
C0 C1 1.351 . S
C0 N3 1.368 . S
C0 H5 0.931 . S
C1 C0 1.351 . S
C1 N2 1.373 . S
C1 H29 0.930 . S
N2 C1 1.373 . S
N2 C4 1.340 . S
N3 C0 1.368 . S
N3 C4 1.321 . S
N3 Co6 2.135 . S
C4 N2 1.340 . S
C4 N3 1.321 . S
C4 H28 0.930 . S
H5 C0 0.931 . S
Co6 N3 2.135 . S
Co6 N9 2.121 . S
Co6 O14 2.055 . S
Co6 O17 2.039 . S
Co6 N20 2.140 . S
C7 O8 1.227 . S
C7 O17 1.265 . S
O8 C7 1.227 . S
N9 Co6 2.121 . S
N9 C11 1.375 1_455 S
N9 C12 1.313 1_455 S
C10 C11 1.338 . S
C10 N13 1.377 . S
C10 H30 0.930 . S
C11 N9 1.375 1_655 S
C11 C10 1.338 . S
C11 H15 0.931 . S
C12 N9 1.313 1_655 S
C12 N13 1.344 . S
C12 H16 0.930 1_655 S
N13 C10 1.377 . S
N13 C12 1.344 . S
O14 Co6 2.055 . S
O14 C18 1.253 . S
H15 C11 0.931 . S
H16 C12 0.930 1_455 S
O17 Co6 2.039 . S
O17 C7 1.265 . S
C18 O14 1.253 . S
C18 O19 1.227 . S
O19 C18 1.227 . S
N20 Co6 2.140 . S
N20 C23 1.346 . S
N20 C24 1.345 . S
C21 C22 1.387 . S
C21 C25 1.391 . S
C22 C21 1.387 . S
C22 C23 1.369 . S
C22 H31 0.929 . S
C23 N20 1.346 . S
C23 C22 1.369 . S
C23 H26 0.928 . S
C24 N20 1.345 . S
C24 C25 1.371 . S
C24 H27 0.931 . S
C25 C21 1.391 . S
C25 C24 1.371 . S
C25 H32 0.930 . S
H26 C23 0.928 . S
H27 C24 0.931 . S
H28 C4 0.930 . S
H29 C1 0.930 . S
H30 C10 0.930 . S
H31 C22 0.929 . S
H32 C25 0.930 . S
C33 C34 1.351 . S
C33 N36 1.368 . S
C33 H38 0.931 . S
C34 C33 1.351 . S
C34 N35 1.366 1_556 S
C34 H62 0.930 . S
N35 C34 1.366 1_554 S
N35 C37 1.333 1_554 S
N36 C33 1.368 . S
N36 C37 1.321 . S
N36 Co39 2.135 . S
C37 N35 1.333 1_556 S
C37 N36 1.321 . S
C37 H61 0.930 . S
H38 C33 0.931 . S
Co39 N36 2.135 . S
Co39 N42 2.121 . S
Co39 O47 2.055 . S
Co39 O50 2.039 . S
Co39 N53 2.136 1_556 S
C40 O41 1.227 1_556 S
C40 O50 1.265 . S
O41 C40 1.227 1_554 S
N42 Co39 2.121 . S
N42 C44 1.375 . S
N42 C45 1.313 . S
C43 C44 1.338 . S
C43 N46 1.377 . S
C43 H63 0.930 . S
C44 N42 1.375 . S
C44 C43 1.338 . S
C44 H48 0.931 . S
C45 N42 1.313 . S
C45 N46 1.344 . S
C45 H49 0.930 . S
N46 C43 1.377 . S
N46 C45 1.344 . S
O47 Co39 2.055 . S
O47 C51 1.253 . S
H48 C44 0.931 . S
H49 C45 0.930 . S
O50 Co39 2.039 . S
O50 C40 1.265 . S
C51 O47 1.253 . S
C51 O52 1.227 . S
O52 C51 1.227 . S
N53 Co39 2.136 1_554 S
N53 C56 1.350 . S
N53 C57 1.344 1_554 S
C54 C55 1.387 . S
C54 C58 1.391 . S
C55 C54 1.387 . S
C55 C56 1.369 . S
C55 H64 0.929 . S
C56 N53 1.350 . S
C56 C55 1.369 . S
C56 H59 0.928 . S
C57 N53 1.344 1_556 S
C57 C58 1.334 1_556 S
C57 H60 0.972 . S
C58 C54 1.391 . S
C58 C57 1.334 1_554 S
C58 H65 0.930 . S
H59 C56 0.928 . S
H60 C57 0.972 . S
H61 C37 0.930 . S
H62 C34 0.930 . S
H63 C43 0.930 . S
H64 C55 0.929 . S
H65 C58 0.930 . S
C66 C67 1.351 . S
C66 N69 1.368 . S
C66 H71 0.931 . S
C67 C66 1.351 . S
C67 N68 1.373 . S
C67 H95 0.930 . S
N68 C67 1.373 . S
N68 C70 1.340 . S
N69 C66 1.368 . S
N69 C70 1.321 . S
N69 Co72 2.135 . S
C70 N68 1.340 . S
C70 N69 1.321 . S
C70 H94 0.930 . S
H71 C66 0.931 . S
Co72 N69 2.135 . S
Co72 N75 2.121 . S
Co72 O80 2.055 . S
Co72 O83 2.039 . S
Co72 N86 2.140 . S
C73 O74 1.227 . S
C73 O83 1.265 . S
O74 C73 1.227 . S
N75 Co72 2.121 . S
N75 C77 1.375 1_655 S
N75 C78 1.313 1_655 S
C76 C77 1.338 . S
C76 N79 1.377 . S
C76 H96 0.930 . S
C77 N75 1.375 1_455 S
C77 C76 1.338 . S
C77 H81 0.931 . S
C78 N75 1.313 1_455 S
C78 N79 1.344 . S
C78 H82 0.930 1_455 S
N79 C76 1.377 . S
N79 C78 1.344 . S
O80 Co72 2.055 . S
O80 C84 1.253 . S
H81 C77 0.931 . S
H82 C78 0.930 1_655 S
O83 Co72 2.039 . S
O83 C73 1.265 . S
C84 O80 1.253 . S
C84 O85 1.227 . S
O85 C84 1.227 . S
N86 Co72 2.140 . S
N86 C89 1.346 . S
N86 C90 1.345 . S
C87 C88 1.387 . S
C87 C91 1.391 . S
C88 C87 1.387 . S
C88 C89 1.369 . S
C88 H97 0.929 . S
C89 N86 1.346 . S
C89 C88 1.369 . S
C89 H92 0.928 . S
C90 N86 1.345 . S
C90 C91 1.371 . S
C90 H93 0.931 . S
C91 C87 1.391 . S
C91 C90 1.371 . S
C91 H98 0.930 . S
H92 C89 0.928 . S
H93 C90 0.931 . S
H94 C70 0.930 . S
H95 C67 0.930 . S
H96 C76 0.930 . S
H97 C88 0.929 . S
H98 C91 0.930 . S
C99 C100 1.351 . S
C99 N102 1.368 . S
C99 H104 0.931 . S
C100 C99 1.351 . S
C100 N101 1.366 1_556 S
C100 H128 0.930 . S
N101 C100 1.366 1_554 S
N101 C103 1.333 1_554 S
N102 C99 1.368 . S
N102 C103 1.321 . S
N102 Co105 2.135 . S
C103 N101 1.333 1_556 S
C103 N102 1.321 . S
C103 H127 0.930 . S
H104 C99 0.931 . S
Co105 N102 2.135 . S
Co105 N108 2.121 . S
Co105 O113 2.055 . S
Co105 O116 2.039 . S
Co105 N119 2.136 1_556 S
C106 O107 1.227 1_556 S
C106 O116 1.265 . S
O107 C106 1.227 1_554 S
N108 Co105 2.121 . S
N108 C110 1.375 . S
N108 C111 1.313 . S
C109 C110 1.338 . S
C109 N112 1.377 . S
C109 H129 0.930 . S
C110 N108 1.375 . S
C110 C109 1.338 . S
C110 H114 0.931 . S
C111 N108 1.313 . S
C111 N112 1.344 . S
C111 H115 0.930 . S
N112 C109 1.377 . S
N112 C111 1.344 . S
O113 Co105 2.055 . S
O113 C117 1.253 . S
H114 C110 0.931 . S
H115 C111 0.930 . S
O116 Co105 2.039 . S
O116 C106 1.265 . S
C117 O113 1.253 . S
C117 O118 1.227 . S
O118 C117 1.227 . S
N119 Co105 2.136 1_554 S
N119 C122 1.350 . S
N119 C123 1.344 1_554 S
C120 C121 1.387 . S
C120 C124 1.391 . S
C121 C120 1.387 . S
C121 C122 1.369 . S
C121 H130 0.929 . S
C122 N119 1.350 . S
C122 C121 1.369 . S
C122 H125 0.928 . S
C123 N119 1.344 1_556 S
C123 C124 1.334 1_556 S
C123 H126 0.972 . S
C124 C120 1.391 . S
C124 C123 1.334 1_554 S
C124 H131 0.930 . S
H125 C122 0.928 . S
H126 C123 0.972 . S
H127 C103 0.930 . S
H128 C100 0.930 . S
H129 C109 0.930 . S
H130 C121 0.929 . S
H131 C124 0.930 . S
C132 C133 1.351 . S
C132 N135 1.368 . S
C132 H137 0.931 . S
C133 C132 1.351 . S
C133 N134 1.373 . S
C133 H161 0.930 . S
N134 C133 1.373 . S
N134 C136 1.340 . S
N135 C132 1.368 . S
N135 C136 1.321 . S
N135 Co138 2.135 . S
C136 N134 1.340 . S
C136 N135 1.321 . S
C136 H160 0.930 . S
H137 C132 0.931 . S
Co138 N135 2.135 . S
Co138 N141 2.121 . S
Co138 O146 2.055 . S
Co138 O149 2.039 . S
Co138 N152 2.140 . S
C139 O140 1.227 . S
C139 O149 1.265 . S
O140 C139 1.227 . S
N141 Co138 2.121 . S
N141 C143 1.375 1_455 S
N141 C144 1.313 1_455 S
C142 C143 1.338 . S
C142 N145 1.377 . S
C142 H162 0.930 . S
C143 N141 1.375 1_655 S
C143 C142 1.338 . S
C143 H147 0.931 . S
C144 N141 1.313 1_655 S
C144 N145 1.344 . S
C144 H148 0.930 1_655 S
N145 C142 1.377 . S
N145 C144 1.344 . S
O146 Co138 2.055 . S
O146 C150 1.253 . S
H147 C143 0.931 . S
H148 C144 0.930 1_455 S
O149 Co138 2.039 . S
O149 C139 1.265 . S
C150 O146 1.253 . S
C150 O151 1.227 . S
O151 C150 1.227 . S
N152 Co138 2.140 . S
N152 C155 1.346 . S
N152 C156 1.345 . S
C153 C154 1.387 . S
C153 C157 1.391 . S
C154 C153 1.387 . S
C154 C155 1.369 . S
C154 H163 0.929 . S
C155 N152 1.346 . S
C155 C154 1.369 . S
C155 H158 0.928 . S
C156 N152 1.345 . S
C156 C157 1.371 . S
C156 H159 0.931 . S
C157 C153 1.391 . S
C157 C156 1.371 . S
C157 H164 0.930 . S
H158 C155 0.928 . S
H159 C156 0.931 . S
H160 C136 0.930 . S
H161 C133 0.930 . S
H162 C142 0.930 . S
H163 C154 0.929 . S
H164 C157 0.930 . S
C165 C166 1.351 . S
C165 N168 1.368 . S
C165 H170 0.931 . S
C166 C165 1.351 . S
C166 N167 1.372 . S
C166 H194 0.930 . S
N167 C166 1.372 . S
N167 C169 1.339 . S
N168 C165 1.368 . S
N168 C169 1.321 . S
N168 Co171 2.135 . S
C169 N167 1.339 . S
C169 N168 1.321 . S
C169 H193 0.930 . S
H170 C165 0.931 . S
Co171 N168 2.135 . S
Co171 N174 2.121 . S
Co171 O179 2.055 . S
Co171 O182 2.039 . S
Co171 N185 2.154 . S
C172 O173 1.227 1_554 S
C172 O182 1.265 . S
O173 C172 1.227 1_556 S
N174 Co171 2.121 . S
N174 C176 1.375 . S
N174 C177 1.313 . S
C175 C176 1.338 . S
C175 N178 1.377 . S
C175 H195 0.930 . S
C176 N174 1.375 . S
C176 C175 1.338 . S
C176 H180 0.931 . S
C177 N174 1.313 . S
C177 N178 1.344 . S
C177 H181 0.930 . S
N178 C175 1.377 . S
N178 C177 1.344 . S
O179 Co171 2.055 . S
O179 C183 1.253 . S
H180 C176 0.931 . S
H181 C177 0.930 . S
O182 Co171 2.039 . S
O182 C172 1.265 . S
C183 O179 1.253 . S
C183 O184 1.227 . S
O184 C183 1.227 . S
N185 Co171 2.154 . S
N185 C188 1.331 1_554 S
N185 C189 1.346 . S
C186 C187 1.387 . S
C186 C190 1.391 . S
C187 C186 1.387 . S
C187 C188 1.369 . S
C187 H196 0.929 . S
C188 N185 1.331 1_556 S
C188 C187 1.369 . S
C188 H191 0.928 . S
C189 N185 1.346 . S
C189 C190 1.371 1_554 S
C189 H192 0.931 . S
C190 C186 1.391 . S
C190 C189 1.371 1_556 S
C190 H197 0.930 . S
H191 C188 0.928 . S
H192 C189 0.931 . S
H193 C169 0.930 . S
H194 C166 0.930 . S
H195 C175 0.930 . S
H196 C187 0.929 . S
H197 C190 0.930 . S
C198 C199 1.351 . S
C198 N201 1.368 . S
C198 H203 0.931 . S
C199 C198 1.351 . S
C199 N200 1.373 . S
C199 H227 0.930 . S
N200 C199 1.373 . S
N200 C202 1.340 . S
N201 C198 1.368 . S
N201 C202 1.321 . S
N201 Co204 2.135 . S
C202 N200 1.340 . S
C202 N201 1.321 . S
C202 H226 0.930 . S
H203 C198 0.931 . S
Co204 N201 2.135 . S
Co204 N207 2.121 . S
Co204 O212 2.055 . S
Co204 O215 2.039 . S
Co204 N218 2.140 . S
C205 O206 1.227 . S
C205 O215 1.265 . S
O206 C205 1.227 . S
N207 Co204 2.121 . S
N207 C209 1.375 1_655 S
N207 C210 1.313 1_655 S
C208 C209 1.338 . S
C208 N211 1.377 . S
C208 H228 0.930 . S
C209 N207 1.375 1_455 S
C209 C208 1.338 . S
C209 H213 0.931 . S
C210 N207 1.313 1_455 S
C210 N211 1.344 . S
C210 H214 0.930 1_455 S
N211 C208 1.377 . S
N211 C210 1.344 . S
O212 Co204 2.055 . S
O212 C216 1.253 . S
H213 C209 0.931 . S
H214 C210 0.930 1_655 S
O215 Co204 2.039 . S
O215 C205 1.265 . S
C216 O212 1.253 . S
C216 O217 1.227 . S
O217 C216 1.227 . S
N218 Co204 2.140 . S
N218 C221 1.346 . S
N218 C222 1.345 . S
C219 C220 1.387 . S
C219 C223 1.391 . S
C220 C219 1.387 . S
C220 C221 1.369 . S
C220 H229 0.929 . S
C221 N218 1.346 . S
C221 C220 1.369 . S
C221 H224 0.928 . S
C222 N218 1.345 . S
C222 C223 1.371 . S
C222 H225 0.931 . S
C223 C219 1.391 . S
C223 C222 1.371 . S
C223 H230 0.930 . S
H224 C221 0.928 . S
H225 C222 0.931 . S
H226 C202 0.930 . S
H227 C199 0.930 . S
H228 C208 0.930 . S
H229 C220 0.929 . S
H230 C223 0.930 . S
C231 C232 1.351 . S
C231 N234 1.368 . S
C231 H236 0.931 . S
C232 C231 1.351 . S
C232 N233 1.372 . S
C232 H260 0.930 . S
N233 C232 1.372 . S
N233 C235 1.339 . S
N234 C231 1.368 . S
N234 C235 1.321 . S
N234 Co237 2.135 . S
C235 N233 1.339 . S
C235 N234 1.321 . S
C235 H259 0.930 . S
H236 C231 0.931 . S
Co237 N234 2.135 . S
Co237 N240 2.121 . S
Co237 O245 2.055 . S
Co237 O248 2.039 . S
Co237 N251 2.154 . S
C238 O239 1.227 1_554 S
C238 O248 1.265 . S
O239 C238 1.227 1_556 S
N240 Co237 2.121 . S
N240 C242 1.375 . S
N240 C243 1.313 . S
C241 C242 1.338 . S
C241 N244 1.377 . S
C241 H261 0.930 . S
C242 N240 1.375 . S
C242 C241 1.338 . S
C242 H246 0.931 . S
C243 N240 1.313 . S
C243 N244 1.344 . S
C243 H247 0.930 . S
N244 C241 1.377 . S
N244 C243 1.344 . S
O245 Co237 2.055 . S
O245 C249 1.253 . S
H246 C242 0.931 . S
H247 C243 0.930 . S
O248 Co237 2.039 . S
O248 C238 1.265 . S
C249 O245 1.253 . S
C249 O250 1.227 . S
O250 C249 1.227 . S
N251 Co237 2.154 . S
N251 C254 1.331 1_554 S
N251 C255 1.346 . S
C252 C253 1.387 . S
C252 C256 1.391 . S
C253 C252 1.387 . S
C253 C254 1.369 . S
C253 H262 0.929 . S
C254 N251 1.331 1_556 S
C254 C253 1.369 . S
C254 H257 0.928 . S
C255 N251 1.346 . S
C255 C256 1.371 1_554 S
C255 H258 0.931 . S
C256 C252 1.391 . S
C256 C255 1.371 1_556 S
C256 H263 0.930 . S
H257 C254 0.928 . S
H258 C255 0.931 . S
H259 C235 0.930 . S
H260 C232 0.930 . S
H261 C241 0.930 . S
H262 C253 0.929 . S
H263 C256 0.930 . S
C264 C265 1.351 . S
C264 N267 1.368 . S
C264 H269 0.931 . S
C265 C264 1.351 . S
C265 N266 1.373 . S
C265 H293 0.930 . S
N266 C265 1.373 . S
N266 C268 1.340 . S
N267 C264 1.368 . S
N267 C268 1.321 . S
N267 Co270 2.135 . S
C268 N266 1.340 . S
C268 N267 1.321 . S
C268 H292 0.930 . S
H269 C264 0.931 . S
Co270 N267 2.135 . S
Co270 N273 2.121 . S
Co270 O278 2.055 . S
Co270 O281 2.039 . S
Co270 N284 2.140 . S
C271 O272 1.227 . S
C271 O281 1.265 . S
O272 C271 1.227 . S
N273 Co270 2.121 . S
N273 C275 1.375 1_545 S
N273 C276 1.313 1_545 S
C274 C275 1.338 . S
C274 N277 1.377 . S
C274 H294 0.930 . S
C275 N273 1.375 1_565 S
C275 C274 1.338 . S
C275 H279 0.931 . S
C276 N273 1.313 1_565 S
C276 N277 1.344 . S
C276 H280 0.930 1_565 S
N277 C274 1.377 . S
N277 C276 1.344 . S
O278 Co270 2.055 . S
O278 C282 1.253 . S
H279 C275 0.931 . S
H280 C276 0.930 1_545 S
O281 Co270 2.039 . S
O281 C271 1.265 . S
C282 O278 1.253 . S
C282 O283 1.227 . S
O283 C282 1.227 . S
N284 Co270 2.140 . S
N284 C287 1.346 . S
N284 C288 1.345 . S
C285 C286 1.387 . S
C285 C289 1.391 . S
C286 C285 1.387 . S
C286 C287 1.369 . S
C286 H295 0.929 . S
C287 N284 1.346 . S
C287 C286 1.369 . S
C287 H290 0.928 . S
C288 N284 1.345 . S
C288 C289 1.371 . S
C288 H291 0.931 . S
C289 C285 1.391 . S
C289 C288 1.371 . S
C289 H296 0.930 . S
H290 C287 0.928 . S
H291 C288 0.931 . S
H292 C268 0.930 . S
H293 C265 0.930 . S
H294 C274 0.930 . S
H295 C286 0.929 . S
H296 C289 0.930 . S
C297 C298 1.351 . S
C297 N300 1.368 . S
C297 H302 0.931 . S
C298 C297 1.351 . S
C298 N299 1.373 . S
C298 H326 0.930 . S
N299 C298 1.373 . S
N299 C301 1.340 . S
N300 C297 1.368 . S
N300 C301 1.321 . S
N300 Co303 2.135 . S
C301 N299 1.340 . S
C301 N300 1.321 . S
C301 H325 0.930 . S
H302 C297 0.931 . S
Co303 N300 2.135 . S
Co303 N306 2.121 . S
Co303 O311 2.055 . S
Co303 O314 2.039 . S
Co303 N317 2.140 . S
C304 O305 1.227 . S
C304 O314 1.265 . S
O305 C304 1.227 . S
N306 Co303 2.121 . S
N306 C308 1.375 . S
N306 C309 1.313 . S
C307 C308 1.338 . S
C307 N310 1.377 . S
C307 H327 0.930 . S
C308 N306 1.375 . S
C308 C307 1.338 . S
C308 H312 0.931 . S
C309 N306 1.313 . S
C309 N310 1.344 . S
C309 H313 0.930 . S
N310 C307 1.377 . S
N310 C309 1.344 . S
O311 Co303 2.055 . S
O311 C315 1.253 . S
H312 C308 0.931 . S
H313 C309 0.930 . S
O314 Co303 2.039 . S
O314 C304 1.265 . S
C315 O311 1.253 . S
C315 O316 1.227 . S
O316 C315 1.227 . S
N317 Co303 2.140 . S
N317 C320 1.346 . S
N317 C321 1.345 . S
C318 C319 1.387 . S
C318 C322 1.391 . S
C319 C318 1.387 . S
C319 C320 1.369 . S
C319 H328 0.929 . S
C320 N317 1.346 . S
C320 C319 1.369 . S
C320 H323 0.928 . S
C321 N317 1.345 . S
C321 C322 1.371 . S
C321 H324 0.931 . S
C322 C318 1.391 . S
C322 C321 1.371 . S
C322 H329 0.930 . S
H323 C320 0.928 . S
H324 C321 0.931 . S
H325 C301 0.930 . S
H326 C298 0.930 . S
H327 C307 0.930 . S
H328 C319 0.929 . S
H329 C322 0.930 . S
C330 C331 1.351 . S
C330 N333 1.368 . S
C330 H335 0.931 . S
C331 C330 1.351 . S
C331 N332 1.373 . S
C331 H359 0.930 . S
N332 C331 1.373 . S
N332 C334 1.340 . S
N333 C330 1.368 . S
N333 C334 1.321 . S
N333 Co336 2.135 . S
C334 N332 1.340 . S
C334 N333 1.321 . S
C334 H358 0.930 . S
H335 C330 0.931 . S
Co336 N333 2.135 . S
Co336 N339 2.121 . S
Co336 O344 2.055 . S
Co336 O347 2.039 . S
Co336 N350 2.140 . S
C337 O338 1.227 . S
C337 O347 1.265 . S
O338 C337 1.227 . S
N339 Co336 2.121 . S
N339 C341 1.375 . S
N339 C342 1.313 . S
C340 C341 1.338 . S
C340 N343 1.377 . S
C340 H360 0.930 . S
C341 N339 1.375 . S
C341 C340 1.338 . S
C341 H345 0.931 . S
C342 N339 1.313 . S
C342 N343 1.344 . S
C342 H346 0.930 . S
N343 C340 1.377 . S
N343 C342 1.344 . S
O344 Co336 2.055 . S
O344 C348 1.253 . S
H345 C341 0.931 . S
H346 C342 0.930 . S
O347 Co336 2.039 . S
O347 C337 1.265 . S
C348 O344 1.253 . S
C348 O349 1.227 . S
O349 C348 1.227 . S
N350 Co336 2.140 . S
N350 C353 1.346 . S
N350 C354 1.345 . S
C351 C352 1.387 . S
C351 C355 1.391 . S
C352 C351 1.387 . S
C352 C353 1.369 . S
C352 H361 0.929 . S
C353 N350 1.346 . S
C353 C352 1.369 . S
C353 H356 0.928 . S
C354 N350 1.345 . S
C354 C355 1.371 . S
C354 H357 0.931 . S
C355 C351 1.391 . S
C355 C354 1.371 . S
C355 H362 0.930 . S
H356 C353 0.928 . S
H357 C354 0.931 . S
H358 C334 0.930 . S
H359 C331 0.930 . S
H360 C340 0.930 . S
H361 C352 0.929 . S
H362 C355 0.930 . S
C363 C364 1.351 . S
C363 N366 1.368 . S
C363 H368 0.931 . S
C364 C363 1.351 . S
C364 N365 1.372 . S
C364 H392 0.930 . S
N365 C364 1.372 . S
N365 C367 1.339 . S
N366 C363 1.368 . S
N366 C367 1.321 . S
N366 Co369 2.135 . S
C367 N365 1.339 . S
C367 N366 1.321 . S
C367 H391 0.930 . S
H368 C363 0.931 . S
Co369 N366 2.135 . S
Co369 N372 2.121 . S
Co369 O377 2.055 . S
Co369 O380 2.039 . S
Co369 N383 2.154 . S
C370 O371 1.227 1_545 S
C370 O380 1.265 . S
O371 C370 1.227 1_565 S
N372 Co369 2.121 . S
N372 C374 1.375 . S
N372 C375 1.313 . S
C373 C374 1.338 . S
C373 N376 1.377 . S
C373 H393 0.930 . S
C374 N372 1.375 . S
C374 C373 1.338 . S
C374 H378 0.931 . S
C375 N372 1.313 . S
C375 N376 1.344 . S
C375 H379 0.930 . S
N376 C373 1.377 . S
N376 C375 1.344 . S
O377 Co369 2.055 . S
O377 C381 1.253 . S
H378 C374 0.931 . S
H379 C375 0.930 . S
O380 Co369 2.039 . S
O380 C370 1.265 . S
C381 O377 1.253 . S
C381 O382 1.227 . S
O382 C381 1.227 . S
N383 Co369 2.154 . S
N383 C386 1.331 1_545 S
N383 C387 1.346 . S
C384 C385 1.387 . S
C384 C388 1.391 . S
C385 C384 1.387 . S
C385 C386 1.369 . S
C385 H394 0.929 . S
C386 N383 1.331 1_565 S
C386 C385 1.369 . S
C386 H389 0.928 . S
C387 N383 1.346 . S
C387 C388 1.371 1_545 S
C387 H390 0.931 . S
C388 C384 1.391 . S
C388 C387 1.371 1_565 S
C388 H395 0.930 . S
H389 C386 0.928 . S
H390 C387 0.931 . S
H391 C367 0.930 . S
H392 C364 0.930 . S
H393 C373 0.930 . S
H394 C385 0.929 . S
H395 C388 0.930 . S
C396 C397 1.351 . S
C396 N399 1.368 . S
C396 H401 0.931 . S
C397 C396 1.351 . S
C397 N398 1.373 . S
C397 H425 0.930 . S
N398 C397 1.373 . S
N398 C400 1.340 . S
N399 C396 1.368 . S
N399 C400 1.321 . S
N399 Co402 2.135 . S
C400 N398 1.340 . S
C400 N399 1.321 . S
C400 H424 0.930 . S
H401 C396 0.931 . S
Co402 N399 2.135 . S
Co402 N405 2.121 . S
Co402 O410 2.055 . S
Co402 O413 2.039 . S
Co402 N416 2.140 . S
C403 O404 1.227 . S
C403 O413 1.265 . S
O404 C403 1.227 . S
N405 Co402 2.121 . S
N405 C407 1.375 1_565 S
N405 C408 1.313 1_565 S
C406 C407 1.338 . S
C406 N409 1.377 . S
C406 H426 0.930 . S
C407 N405 1.375 1_545 S
C407 C406 1.338 . S
C407 H411 0.931 . S
C408 N405 1.313 1_545 S
C408 N409 1.344 . S
C408 H412 0.930 1_545 S
N409 C406 1.377 . S
N409 C408 1.344 . S
O410 Co402 2.055 . S
O410 C414 1.253 . S
H411 C407 0.931 . S
H412 C408 0.930 1_565 S
O413 Co402 2.039 . S
O413 C403 1.265 . S
C414 O410 1.253 . S
C414 O415 1.227 . S
O415 C414 1.227 . S
N416 Co402 2.140 . S
N416 C419 1.346 . S
N416 C420 1.345 . S
C417 C418 1.387 . S
C417 C421 1.391 . S
C418 C417 1.387 . S
C418 C419 1.369 . S
C418 H427 0.929 . S
C419 N416 1.346 . S
C419 C418 1.369 . S
C419 H422 0.928 . S
C420 N416 1.345 . S
C420 C421 1.371 . S
C420 H423 0.931 . S
C421 C417 1.391 . S
C421 C420 1.371 . S
C421 H428 0.930 . S
H422 C419 0.928 . S
H423 C420 0.931 . S
H424 C400 0.930 . S
H425 C397 0.930 . S
H426 C406 0.930 . S
H427 C418 0.929 . S
H428 C421 0.930 . S
C429 C430 1.351 . S
C429 N432 1.368 . S
C429 H434 0.931 . S
C430 C429 1.351 . S
C430 N431 1.373 . S
C430 H458 0.930 . S
N431 C430 1.373 . S
N431 C433 1.340 . S
N432 C429 1.368 . S
N432 C433 1.321 . S
N432 Co435 2.135 . S
C433 N431 1.340 . S
C433 N432 1.321 . S
C433 H457 0.930 . S
H434 C429 0.931 . S
Co435 N432 2.135 . S
Co435 N438 2.121 . S
Co435 O443 2.055 . S
Co435 O446 2.039 . S
Co435 N449 2.140 . S
C436 O437 1.227 . S
C436 O446 1.265 . S
O437 C436 1.227 . S
N438 Co435 2.121 . S
N438 C440 1.375 . S
N438 C441 1.313 . S
C439 C440 1.338 . S
C439 N442 1.377 . S
C439 H459 0.930 . S
C440 N438 1.375 . S
C440 C439 1.338 . S
C440 H444 0.931 . S
C441 N438 1.313 . S
C441 N442 1.344 . S
C441 H445 0.930 . S
N442 C439 1.377 . S
N442 C441 1.344 . S
O443 Co435 2.055 . S
O443 C447 1.253 . S
H444 C440 0.931 . S
H445 C441 0.930 . S
O446 Co435 2.039 . S
O446 C436 1.265 . S
C447 O443 1.253 . S
C447 O448 1.227 . S
O448 C447 1.227 . S
N449 Co435 2.140 . S
N449 C452 1.346 . S
N449 C453 1.345 . S
C450 C451 1.387 . S
C450 C454 1.391 . S
C451 C450 1.387 . S
C451 C452 1.369 . S
C451 H460 0.929 . S
C452 N449 1.346 . S
C452 C451 1.369 . S
C452 H455 0.928 . S
C453 N449 1.345 . S
C453 C454 1.371 . S
C453 H456 0.931 . S
C454 C450 1.391 . S
C454 C453 1.371 . S
C454 H461 0.930 . S
H455 C452 0.928 . S
H456 C453 0.931 . S
H457 C433 0.930 . S
H458 C430 0.930 . S
H459 C439 0.930 . S
H460 C451 0.929 . S
H461 C454 0.930 . S
C462 C463 1.351 . S
C462 N465 1.368 . S
C462 H467 0.931 . S
C463 C462 1.351 . S
C463 N464 1.373 . S
C463 H491 0.930 . S
N464 C463 1.373 . S
N464 C466 1.340 . S
N465 C462 1.368 . S
N465 C466 1.321 . S
N465 Co468 2.135 . S
C466 N464 1.340 . S
C466 N465 1.321 . S
C466 H490 0.930 . S
H467 C462 0.931 . S
Co468 N465 2.135 . S
Co468 N471 2.121 . S
Co468 O476 2.055 . S
Co468 O479 2.039 . S
Co468 N482 2.140 . S
C469 O470 1.227 . S
C469 O479 1.265 . S
O470 C469 1.227 . S
N471 Co468 2.121 . S
N471 C473 1.375 . S
N471 C474 1.313 . S
C472 C473 1.338 . S
C472 N475 1.377 . S
C472 H492 0.930 . S
C473 N471 1.375 . S
C473 C472 1.338 . S
C473 H477 0.931 . S
C474 N471 1.313 . S
C474 N475 1.344 . S
C474 H478 0.930 . S
N475 C472 1.377 . S
N475 C474 1.344 . S
O476 Co468 2.055 . S
O476 C480 1.253 . S
H477 C473 0.931 . S
H478 C474 0.930 . S
O479 Co468 2.039 . S
O479 C469 1.265 . S
C480 O476 1.253 . S
C480 O481 1.227 . S
O481 C480 1.227 . S
N482 Co468 2.140 . S
N482 C485 1.346 . S
N482 C486 1.345 . S
C483 C484 1.387 . S
C483 C487 1.391 . S
C484 C483 1.387 . S
C484 C485 1.369 . S
C484 H493 0.929 . S
C485 N482 1.346 . S
C485 C484 1.369 . S
C485 H488 0.928 . S
C486 N482 1.345 . S
C486 C487 1.371 . S
C486 H489 0.931 . S
C487 C483 1.391 . S
C487 C486 1.371 . S
C487 H494 0.930 . S
H488 C485 0.928 . S
H489 C486 0.931 . S
H490 C466 0.930 . S
H491 C463 0.930 . S
H492 C472 0.930 . S
H493 C484 0.929 . S
H494 C487 0.930 . S
C495 C496 1.351 . S
C495 N498 1.368 . S
C495 H500 0.931 . S
C496 C495 1.351 . S
C496 N497 1.372 . S
C496 H524 0.930 . S
N497 C496 1.372 . S
N497 C499 1.339 . S
N498 C495 1.368 . S
N498 C499 1.321 . S
N498 Co501 2.135 . S
C499 N497 1.339 . S
C499 N498 1.321 . S
C499 H523 0.930 . S
H500 C495 0.931 . S
Co501 N498 2.135 . S
Co501 N504 2.121 . S
Co501 O509 2.055 . S
Co501 O512 2.039 . S
Co501 N515 2.154 . S
C502 O503 1.227 1_545 S
C502 O512 1.265 . S
O503 C502 1.227 1_565 S
N504 Co501 2.121 . S
N504 C506 1.375 . S
N504 C507 1.313 . S
C505 C506 1.338 . S
C505 N508 1.377 . S
C505 H525 0.930 . S
C506 N504 1.375 . S
C506 C505 1.338 . S
C506 H510 0.931 . S
C507 N504 1.313 . S
C507 N508 1.344 . S
C507 H511 0.930 . S
N508 C505 1.377 . S
N508 C507 1.344 . S
O509 Co501 2.055 . S
O509 C513 1.253 . S
H510 C506 0.931 . S
H511 C507 0.930 . S
O512 Co501 2.039 . S
O512 C502 1.265 . S
C513 O509 1.253 . S
C513 O514 1.227 . S
O514 C513 1.227 . S
N515 Co501 2.154 . S
N515 C518 1.331 1_545 S
N515 C519 1.346 . S
C516 C517 1.387 . S
C516 C520 1.391 . S
C517 C516 1.387 . S
C517 C518 1.369 . S
C517 H526 0.929 . S
C518 N515 1.331 1_565 S
C518 C517 1.369 . S
C518 H521 0.928 . S
C519 N515 1.346 . S
C519 C520 1.371 1_545 S
C519 H522 0.931 . S
C520 C516 1.391 . S
C520 C519 1.371 1_565 S
C520 H527 0.930 . S
H521 C518 0.928 . S
H522 C519 0.931 . S
H523 C499 0.930 . S
H524 C496 0.930 . S
H525 C505 0.930 . S
H526 C517 0.929 . S
H527 C520 0.930 . S
C528 C529 1.351 . S
C528 N531 1.368 . S
C528 H533 0.931 . S
C529 C528 1.351 . S
C529 N530 1.373 . S
C529 H557 0.930 . S
N530 C529 1.373 . S
N530 C532 1.340 . S
N531 C528 1.368 . S
N531 C532 1.321 . S
N531 Co534 2.135 . S
C532 N530 1.340 . S
C532 N531 1.321 . S
C532 H556 0.930 . S
H533 C528 0.931 . S
Co534 N531 2.135 . S
Co534 N537 2.121 . S
Co534 O542 2.055 . S
Co534 O545 2.039 . S
Co534 N548 2.140 . S
C535 O536 1.227 . S
C535 O545 1.265 . S
O536 C535 1.227 . S
N537 Co534 2.121 . S
N537 C539 1.375 1_554 S
N537 C540 1.313 1_554 S
C538 C539 1.338 . S
C538 N541 1.377 . S
C538 H558 0.930 . S
C539 N537 1.375 1_556 S
C539 C538 1.338 . S
C539 H543 0.931 . S
C540 N537 1.313 1_556 S
C540 N541 1.344 . S
C540 H544 0.930 1_556 S
N541 C538 1.377 . S
N541 C540 1.344 . S
O542 Co534 2.055 . S
O542 C546 1.253 . S
H543 C539 0.931 . S
H544 C540 0.930 1_554 S
O545 Co534 2.039 . S
O545 C535 1.265 . S
C546 O542 1.253 . S
C546 O547 1.227 . S
O547 C546 1.227 . S
N548 Co534 2.140 . S
N548 C551 1.346 . S
N548 C552 1.345 . S
C549 C550 1.387 . S
C549 C553 1.391 . S
C550 C549 1.387 . S
C550 C551 1.369 . S
C550 H559 0.929 . S
C551 N548 1.346 . S
C551 C550 1.369 . S
C551 H554 0.928 . S
C552 N548 1.345 . S
C552 C553 1.371 . S
C552 H555 0.931 . S
C553 C549 1.391 . S
C553 C552 1.371 . S
C553 H560 0.930 . S
H554 C551 0.928 . S
H555 C552 0.931 . S
H556 C532 0.930 . S
H557 C529 0.930 . S
H558 C538 0.930 . S
H559 C550 0.929 . S
H560 C553 0.930 . S
C561 C562 1.351 . S
C561 N564 1.368 . S
C561 H566 0.931 . S
C562 C561 1.351 . S
C562 N563 1.373 . S
C562 H590 0.930 . S
N563 C562 1.373 . S
N563 C565 1.340 . S
N564 C561 1.368 . S
N564 C565 1.321 . S
N564 Co567 2.135 . S
C565 N563 1.340 . S
C565 N564 1.321 . S
C565 H589 0.930 . S
H566 C561 0.931 . S
Co567 N564 2.135 . S
Co567 N570 2.121 . S
Co567 O575 2.055 . S
Co567 O578 2.039 . S
Co567 N581 2.140 . S
C568 O569 1.227 . S
C568 O578 1.265 . S
O569 C568 1.227 . S
N570 Co567 2.121 . S
N570 C572 1.375 . S
N570 C573 1.313 . S
C571 C572 1.338 . S
C571 N574 1.377 . S
C571 H591 0.930 . S
C572 N570 1.375 . S
C572 C571 1.338 . S
C572 H576 0.931 . S
C573 N570 1.313 . S
C573 N574 1.344 . S
C573 H577 0.930 . S
N574 C571 1.377 . S
N574 C573 1.344 . S
O575 Co567 2.055 . S
O575 C579 1.253 . S
H576 C572 0.931 . S
H577 C573 0.930 . S
O578 Co567 2.039 . S
O578 C568 1.265 . S
C579 O575 1.253 . S
C579 O580 1.227 . S
O580 C579 1.227 . S
N581 Co567 2.140 . S
N581 C584 1.346 . S
N581 C585 1.345 . S
C582 C583 1.387 . S
C582 C586 1.391 . S
C583 C582 1.387 . S
C583 C584 1.369 . S
C583 H592 0.929 . S
C584 N581 1.346 . S
C584 C583 1.369 . S
C584 H587 0.928 . S
C585 N581 1.345 . S
C585 C586 1.371 . S
C585 H588 0.931 . S
C586 C582 1.391 . S
C586 C585 1.371 . S
C586 H593 0.930 . S
H587 C584 0.928 . S
H588 C585 0.931 . S
H589 C565 0.930 . S
H590 C562 0.930 . S
H591 C571 0.930 . S
H592 C583 0.929 . S
H593 C586 0.930 . S
C594 C595 1.351 . S
C594 N597 1.368 . S
C594 H599 0.931 . S
C595 C594 1.351 . S
C595 N596 1.366 1_655 S
C595 H623 0.930 . S
N596 C595 1.366 1_455 S
N596 C598 1.333 1_455 S
N597 C594 1.368 . S
N597 C598 1.321 . S
N597 Co600 2.135 . S
C598 N596 1.333 1_655 S
C598 N597 1.321 . S
C598 H622 0.930 . S
H599 C594 0.931 . S
Co600 N597 2.135 . S
Co600 N603 2.121 . S
Co600 O608 2.055 . S
Co600 O611 2.039 . S
Co600 N614 2.136 1_655 S
C601 O602 1.227 1_655 S
C601 O611 1.265 . S
O602 C601 1.227 1_455 S
N603 Co600 2.121 . S
N603 C605 1.375 . S
N603 C606 1.313 . S
C604 C605 1.338 . S
C604 N607 1.377 . S
C604 H624 0.930 . S
C605 N603 1.375 . S
C605 C604 1.338 . S
C605 H609 0.931 . S
C606 N603 1.313 . S
C606 N607 1.344 . S
C606 H610 0.930 . S
N607 C604 1.377 . S
N607 C606 1.344 . S
O608 Co600 2.055 . S
O608 C612 1.253 . S
H609 C605 0.931 . S
H610 C606 0.930 . S
O611 Co600 2.039 . S
O611 C601 1.265 . S
C612 O608 1.253 . S
C612 O613 1.227 . S
O613 C612 1.227 . S
N614 Co600 2.136 1_455 S
N614 C617 1.350 . S
N614 C618 1.344 1_455 S
C615 C616 1.387 . S
C615 C619 1.391 . S
C616 C615 1.387 . S
C616 C617 1.369 . S
C616 H625 0.929 . S
C617 N614 1.350 . S
C617 C616 1.369 . S
C617 H620 0.928 . S
C618 N614 1.344 1_655 S
C618 C619 1.334 1_655 S
C618 H621 0.972 . S
C619 C615 1.391 . S
C619 C618 1.334 1_455 S
C619 H626 0.930 . S
H620 C617 0.928 . S
H621 C618 0.972 . S
H622 C598 0.930 . S
H623 C595 0.930 . S
H624 C604 0.930 . S
H625 C616 0.929 . S
H626 C619 0.930 . S
C627 C628 1.351 . S
C627 N630 1.368 . S
C627 H632 0.931 . S
C628 C627 1.351 . S
C628 N629 1.373 . S
C628 H656 0.930 . S
N629 C628 1.373 . S
N629 C631 1.340 . S
N630 C627 1.368 . S
N630 C631 1.321 . S
N630 Co633 2.135 . S
C631 N629 1.340 . S
C631 N630 1.321 . S
C631 H655 0.930 . S
H632 C627 0.931 . S
Co633 N630 2.135 . S
Co633 N636 2.121 . S
Co633 O641 2.055 . S
Co633 O644 2.039 . S
Co633 N647 2.140 . S
C634 O635 1.227 . S
C634 O644 1.265 . S
O635 C634 1.227 . S
N636 Co633 2.121 . S
N636 C638 1.375 . S
N636 C639 1.313 . S
C637 C638 1.338 . S
C637 N640 1.377 . S
C637 H657 0.930 . S
C638 N636 1.375 . S
C638 C637 1.338 . S
C638 H642 0.931 . S
C639 N636 1.313 . S
C639 N640 1.344 . S
C639 H643 0.930 . S
N640 C637 1.377 . S
N640 C639 1.344 . S
O641 Co633 2.055 . S
O641 C645 1.253 . S
H642 C638 0.931 . S
H643 C639 0.930 . S
O644 Co633 2.039 . S
O644 C634 1.265 . S
C645 O641 1.253 . S
C645 O646 1.227 . S
O646 C645 1.227 . S
N647 Co633 2.140 . S
N647 C650 1.346 . S
N647 C651 1.345 . S
C648 C649 1.387 . S
C648 C652 1.391 . S
C649 C648 1.387 . S
C649 C650 1.369 . S
C649 H658 0.929 . S
C650 N647 1.346 . S
C650 C649 1.369 . S
C650 H653 0.928 . S
C651 N647 1.345 . S
C651 C652 1.371 . S
C651 H654 0.931 . S
C652 C648 1.391 . S
C652 C651 1.371 . S
C652 H659 0.930 . S
H653 C650 0.928 . S
H654 C651 0.931 . S
H655 C631 0.930 . S
H656 C628 0.930 . S
H657 C637 0.930 . S
H658 C649 0.929 . S
H659 C652 0.930 . S
C660 C661 1.351 . S
C660 N663 1.368 . S
C660 H665 0.931 . S
C661 C660 1.351 . S
C661 N662 1.373 . S
C661 H689 0.930 . S
N662 C661 1.373 . S
N662 C664 1.340 . S
N663 C660 1.368 . S
N663 C664 1.321 . S
N663 Co666 2.135 . S
C664 N662 1.340 . S
C664 N663 1.321 . S
C664 H688 0.930 . S
H665 C660 0.931 . S
Co666 N663 2.135 . S
Co666 N669 2.121 . S
Co666 O674 2.055 . S
Co666 O677 2.039 . S
Co666 N680 2.140 . S
C667 O668 1.227 . S
C667 O677 1.265 . S
O668 C667 1.227 . S
N669 Co666 2.121 . S
N669 C671 1.375 . S
N669 C672 1.313 . S
C670 C671 1.338 . S
C670 N673 1.377 . S
C670 H690 0.930 . S
C671 N669 1.375 . S
C671 C670 1.338 . S
C671 H675 0.931 . S
C672 N669 1.313 . S
C672 N673 1.344 . S
C672 H676 0.930 . S
N673 C670 1.377 . S
N673 C672 1.344 . S
O674 Co666 2.055 . S
O674 C678 1.253 . S
H675 C671 0.931 . S
H676 C672 0.930 . S
O677 Co666 2.039 . S
O677 C667 1.265 . S
C678 O674 1.253 . S
C678 O679 1.227 . S
O679 C678 1.227 . S
N680 Co666 2.140 . S
N680 C683 1.346 . S
N680 C684 1.345 . S
C681 C682 1.387 . S
C681 C685 1.391 . S
C682 C681 1.387 . S
C682 C683 1.369 . S
C682 H691 0.929 . S
C683 N680 1.346 . S
C683 C682 1.369 . S
C683 H686 0.928 . S
C684 N680 1.345 . S
C684 C685 1.371 . S
C684 H687 0.931 . S
C685 C681 1.391 . S
C685 C684 1.371 . S
C685 H692 0.930 . S
H686 C683 0.928 . S
H687 C684 0.931 . S
H688 C664 0.930 . S
H689 C661 0.930 . S
H690 C670 0.930 . S
H691 C682 0.929 . S
H692 C685 0.930 . S
C693 C694 1.351 . S
C693 N696 1.368 . S
C693 H698 0.931 . S
C694 C693 1.351 . S
C694 N695 1.373 . S
C694 H722 0.930 . S
N695 C694 1.373 . S
N695 C697 1.340 . S
N696 C693 1.368 . S
N696 C697 1.321 . S
N696 Co699 2.135 . S
C697 N695 1.340 . S
C697 N696 1.321 . S
C697 H721 0.930 . S
H698 C693 0.931 . S
Co699 N696 2.135 . S
Co699 N702 2.121 . S
Co699 O707 2.055 . S
Co699 O710 2.039 . S
Co699 N713 2.140 . S
C700 O701 1.227 . S
C700 O710 1.265 . S
O701 C700 1.227 . S
N702 Co699 2.121 . S
N702 C704 1.375 . S
N702 C705 1.313 . S
C703 C704 1.338 . S
C703 N706 1.377 . S
C703 H723 0.930 . S
C704 N702 1.375 . S
C704 C703 1.338 . S
C704 H708 0.931 . S
C705 N702 1.313 . S
C705 N706 1.344 . S
C705 H709 0.930 . S
N706 C703 1.377 . S
N706 C705 1.344 . S
O707 Co699 2.055 . S
O707 C711 1.253 . S
H708 C704 0.931 . S
H709 C705 0.930 . S
O710 Co699 2.039 . S
O710 C700 1.265 . S
C711 O707 1.253 . S
C711 O712 1.227 . S
O712 C711 1.227 . S
N713 Co699 2.140 . S
N713 C716 1.346 . S
N713 C717 1.345 . S
C714 C715 1.387 . S
C714 C718 1.391 . S
C715 C714 1.387 . S
C715 C716 1.369 . S
C715 H724 0.929 . S
C716 N713 1.346 . S
C716 C715 1.369 . S
C716 H719 0.928 . S
C717 N713 1.345 . S
C717 C718 1.371 . S
C717 H720 0.931 . S
C718 C714 1.391 . S
C718 C717 1.371 . S
C718 H725 0.930 . S
H719 C716 0.928 . S
H720 C717 0.931 . S
H721 C697 0.930 . S
H722 C694 0.930 . S
H723 C703 0.930 . S
H724 C715 0.929 . S
H725 C718 0.930 . S
C726 C727 1.351 . S
C726 N729 1.368 . S
C726 H731 0.931 . S
C727 C726 1.351 . S
C727 N728 1.366 1_655 S
C727 H755 0.930 . S
N728 C727 1.366 1_455 S
N728 C730 1.333 1_455 S
N729 C726 1.368 . S
N729 C730 1.321 . S
N729 Co732 2.135 . S
C730 N728 1.333 1_655 S
C730 N729 1.321 . S
C730 H754 0.930 . S
H731 C726 0.931 . S
Co732 N729 2.135 . S
Co732 N735 2.121 . S
Co732 O740 2.055 . S
Co732 O743 2.039 . S
Co732 N746 2.136 1_655 S
C733 O734 1.227 1_655 S
C733 O743 1.265 . S
O734 C733 1.227 1_455 S
N735 Co732 2.121 . S
N735 C737 1.375 . S
N735 C738 1.313 . S
C736 C737 1.338 . S
C736 N739 1.377 . S
C736 H756 0.930 . S
C737 N735 1.375 . S
C737 C736 1.338 . S
C737 H741 0.931 . S
C738 N735 1.313 . S
C738 N739 1.344 . S
C738 H742 0.930 . S
N739 C736 1.377 . S
N739 C738 1.344 . S
O740 Co732 2.055 . S
O740 C744 1.253 . S
H741 C737 0.931 . S
H742 C738 0.930 . S
O743 Co732 2.039 . S
O743 C733 1.265 . S
C744 O740 1.253 . S
C744 O745 1.227 . S
O745 C744 1.227 . S
N746 Co732 2.136 1_455 S
N746 C749 1.350 . S
N746 C750 1.344 1_455 S
C747 C748 1.387 . S
C747 C751 1.391 . S
C748 C747 1.387 . S
C748 C749 1.369 . S
C748 H757 0.929 . S
C749 N746 1.350 . S
C749 C748 1.369 . S
C749 H752 0.928 . S
C750 N746 1.344 1_655 S
C750 C751 1.334 1_655 S
C750 H753 0.972 . S
C751 C747 1.391 . S
C751 C750 1.334 1_455 S
C751 H758 0.930 . S
H752 C749 0.928 . S
H753 C750 0.972 . S
H754 C730 0.930 . S
H755 C727 0.930 . S
H756 C736 0.930 . S
H757 C748 0.929 . S
H758 C751 0.930 . S
C759 C760 1.351 . S
C759 N762 1.368 . S
C759 H764 0.931 . S
C760 C759 1.351 . S
C760 N761 1.372 . S
C760 H788 0.930 . S
N761 C760 1.372 . S
N761 C763 1.339 . S
N762 C759 1.368 . S
N762 C763 1.321 . S
N762 Co765 2.135 . S
C763 N761 1.339 . S
C763 N762 1.321 . S
C763 H787 0.930 . S
H764 C759 0.931 . S
Co765 N762 2.135 . S
Co765 N768 2.121 . S
Co765 O773 2.055 . S
Co765 O776 2.039 . S
Co765 N779 2.154 . S
C766 O767 1.227 1_455 S
C766 O776 1.265 . S
O767 C766 1.227 1_655 S
N768 Co765 2.121 . S
N768 C770 1.375 . S
N768 C771 1.313 . S
C769 C770 1.338 . S
C769 N772 1.377 . S
C769 H789 0.930 . S
C770 N768 1.375 . S
C770 C769 1.338 . S
C770 H774 0.931 . S
C771 N768 1.313 . S
C771 N772 1.344 . S
C771 H775 0.930 . S
N772 C769 1.377 . S
N772 C771 1.344 . S
O773 Co765 2.055 . S
O773 C777 1.253 . S
H774 C770 0.931 . S
H775 C771 0.930 . S
O776 Co765 2.039 . S
O776 C766 1.265 . S
C777 O773 1.253 . S
C777 O778 1.227 . S
O778 C777 1.227 . S
N779 Co765 2.154 . S
N779 C782 1.331 1_455 S
N779 C783 1.346 . S
C780 C781 1.387 . S
C780 C784 1.391 . S
C781 C780 1.387 . S
C781 C782 1.369 . S
C781 H790 0.929 . S
C782 N779 1.331 1_655 S
C782 C781 1.369 . S
C782 H785 0.928 . S
C783 N779 1.346 . S
C783 C784 1.371 1_455 S
C783 H786 0.931 . S
C784 C780 1.391 . S
C784 C783 1.371 1_655 S
C784 H791 0.930 . S
H785 C782 0.928 . S
H786 C783 0.931 . S
H787 C763 0.930 . S
H788 C760 0.930 . S
H789 C769 0.930 . S
H790 C781 0.929 . S
H791 C784 0.930 . S
C792 C793 1.351 . S
C792 N795 1.368 . S
C792 H797 0.931 . S
C793 C792 1.351 . S
C793 N794 1.373 . S
C793 H821 0.930 . S
N794 C793 1.373 . S
N794 C796 1.340 . S
N795 C792 1.368 . S
N795 C796 1.321 . S
N795 Co798 2.135 . S
C796 N794 1.340 . S
C796 N795 1.321 . S
C796 H820 0.930 . S
H797 C792 0.931 . S
Co798 N795 2.135 . S
Co798 N801 2.121 . S
Co798 O806 2.055 . S
Co798 O809 2.039 . S
Co798 N812 2.140 . S
C799 O800 1.227 . S
C799 O809 1.265 . S
O800 C799 1.227 . S
N801 Co798 2.121 . S
N801 C803 1.375 . S
N801 C804 1.313 . S
C802 C803 1.338 . S
C802 N805 1.377 . S
C802 H822 0.930 . S
C803 N801 1.375 . S
C803 C802 1.338 . S
C803 H807 0.931 . S
C804 N801 1.313 . S
C804 N805 1.344 . S
C804 H808 0.930 . S
N805 C802 1.377 . S
N805 C804 1.344 . S
O806 Co798 2.055 . S
O806 C810 1.253 . S
H807 C803 0.931 . S
H808 C804 0.930 . S
O809 Co798 2.039 . S
O809 C799 1.265 . S
C810 O806 1.253 . S
C810 O811 1.227 . S
O811 C810 1.227 . S
N812 Co798 2.140 . S
N812 C815 1.346 . S
N812 C816 1.345 . S
C813 C814 1.387 . S
C813 C817 1.391 . S
C814 C813 1.387 . S
C814 C815 1.369 . S
C814 H823 0.929 . S
C815 N812 1.346 . S
C815 C814 1.369 . S
C815 H818 0.928 . S
C816 N812 1.345 . S
C816 C817 1.371 . S
C816 H819 0.931 . S
C817 C813 1.391 . S
C817 C816 1.371 . S
C817 H824 0.930 . S
H818 C815 0.928 . S
H819 C816 0.931 . S
H820 C796 0.930 . S
H821 C793 0.930 . S
H822 C802 0.930 . S
H823 C814 0.929 . S
H824 C817 0.930 . S
C825 C826 1.351 . S
C825 N828 1.368 . S
C825 H830 0.931 . S
C826 C825 1.351 . S
C826 N827 1.373 . S
C826 H854 0.930 . S
N827 C826 1.373 . S
N827 C829 1.340 . S
N828 C825 1.368 . S
N828 C829 1.321 . S
N828 Co831 2.135 . S
C829 N827 1.340 . S
C829 N828 1.321 . S
C829 H853 0.930 . S
H830 C825 0.931 . S
Co831 N828 2.135 . S
Co831 N834 2.121 . S
Co831 O839 2.055 . S
Co831 O842 2.039 . S
Co831 N845 2.140 . S
C832 O833 1.227 . S
C832 O842 1.265 . S
O833 C832 1.227 . S
N834 Co831 2.121 . S
N834 C836 1.375 . S
N834 C837 1.313 . S
C835 C836 1.338 . S
C835 N838 1.377 . S
C835 H855 0.930 . S
C836 N834 1.375 . S
C836 C835 1.338 . S
C836 H840 0.931 . S
C837 N834 1.313 . S
C837 N838 1.344 . S
C837 H841 0.930 . S
N838 C835 1.377 . S
N838 C837 1.344 . S
O839 Co831 2.055 . S
O839 C843 1.253 . S
H840 C836 0.931 . S
H841 C837 0.930 . S
O842 Co831 2.039 . S
O842 C832 1.265 . S
C843 O839 1.253 . S
C843 O844 1.227 . S
O844 C843 1.227 . S
N845 Co831 2.140 . S
N845 C848 1.346 . S
N845 C849 1.345 . S
C846 C847 1.387 . S
C846 C850 1.391 . S
C847 C846 1.387 . S
C847 C848 1.369 . S
C847 H856 0.929 . S
C848 N845 1.346 . S
C848 C847 1.369 . S
C848 H851 0.928 . S
C849 N845 1.345 . S
C849 C850 1.371 . S
C849 H852 0.931 . S
C850 C846 1.391 . S
C850 C849 1.371 . S
C850 H857 0.930 . S
H851 C848 0.928 . S
H852 C849 0.931 . S
H853 C829 0.930 . S
H854 C826 0.930 . S
H855 C835 0.930 . S
H856 C847 0.929 . S
H857 C850 0.930 . S
C858 C859 1.351 . S
C858 N861 1.368 . S
C858 H863 0.931 . S
C859 C858 1.351 . S
C859 N860 1.373 . S
C859 H887 0.930 . S
N860 C859 1.373 . S
N860 C862 1.340 . S
N861 C858 1.368 . S
N861 C862 1.321 . S
N861 Co864 2.135 . S
C862 N860 1.340 . S
C862 N861 1.321 . S
C862 H886 0.930 . S
H863 C858 0.931 . S
Co864 N861 2.135 . S
Co864 N867 2.121 . S
Co864 O872 2.055 . S
Co864 O875 2.039 . S
Co864 N878 2.140 . S
C865 O866 1.227 . S
C865 O875 1.265 . S
O866 C865 1.227 . S
N867 Co864 2.121 . S
N867 C869 1.375 . S
N867 C870 1.313 . S
C868 C869 1.338 . S
C868 N871 1.377 . S
C868 H888 0.930 . S
C869 N867 1.375 . S
C869 C868 1.338 . S
C869 H873 0.931 . S
C870 N867 1.313 . S
C870 N871 1.344 . S
C870 H874 0.930 . S
N871 C868 1.377 . S
N871 C870 1.344 . S
O872 Co864 2.055 . S
O872 C876 1.253 . S
H873 C869 0.931 . S
H874 C870 0.930 . S
O875 Co864 2.039 . S
O875 C865 1.265 . S
C876 O872 1.253 . S
C876 O877 1.227 . S
O877 C876 1.227 . S
N878 Co864 2.140 . S
N878 C881 1.346 . S
N878 C882 1.345 . S
C879 C880 1.387 . S
C879 C883 1.391 . S
C880 C879 1.387 . S
C880 C881 1.369 . S
C880 H889 0.929 . S
C881 N878 1.346 . S
C881 C880 1.369 . S
C881 H884 0.928 . S
C882 N878 1.345 . S
C882 C883 1.371 . S
C882 H885 0.931 . S
C883 C879 1.391 . S
C883 C882 1.371 . S
C883 H890 0.930 . S
H884 C881 0.928 . S
H885 C882 0.931 . S
H886 C862 0.930 . S
H887 C859 0.930 . S
H888 C868 0.930 . S
H889 C880 0.929 . S
H890 C883 0.930 . S
C891 C892 1.351 . S
C891 N894 1.368 . S
C891 H896 0.931 . S
C892 C891 1.351 . S
C892 N893 1.373 . S
C892 H920 0.930 . S
N893 C892 1.373 . S
N893 C895 1.340 . S
N894 C891 1.368 . S
N894 C895 1.321 . S
N894 Co897 2.135 . S
C895 N893 1.340 . S
C895 N894 1.321 . S
C895 H919 0.930 . S
H896 C891 0.931 . S
Co897 N894 2.135 . S
Co897 N900 2.121 . S
Co897 O905 2.055 . S
Co897 O908 2.039 . S
Co897 N911 2.140 . S
C898 O899 1.227 . S
C898 O908 1.265 . S
O899 C898 1.227 . S
N900 Co897 2.121 . S
N900 C902 1.375 . S
N900 C903 1.313 . S
C901 C902 1.338 . S
C901 N904 1.377 . S
C901 H921 0.930 . S
C902 N900 1.375 . S
C902 C901 1.338 . S
C902 H906 0.931 . S
C903 N900 1.313 . S
C903 N904 1.344 . S
C903 H907 0.930 . S
N904 C901 1.377 . S
N904 C903 1.344 . S
O905 Co897 2.055 . S
O905 C909 1.253 . S
H906 C902 0.931 . S
H907 C903 0.930 . S
O908 Co897 2.039 . S
O908 C898 1.265 . S
C909 O905 1.253 . S
C909 O910 1.227 . S
O910 C909 1.227 . S
N911 Co897 2.140 . S
N911 C914 1.346 . S
N911 C915 1.345 . S
C912 C913 1.387 . S
C912 C916 1.391 . S
C913 C912 1.387 . S
C913 C914 1.369 . S
C913 H922 0.929 . S
C914 N911 1.346 . S
C914 C913 1.369 . S
C914 H917 0.928 . S
C915 N911 1.345 . S
C915 C916 1.371 . S
C915 H918 0.931 . S
C916 C912 1.391 . S
C916 C915 1.371 . S
C916 H923 0.930 . S
H917 C914 0.928 . S
H918 C915 0.931 . S
H919 C895 0.930 . S
H920 C892 0.930 . S
H921 C901 0.930 . S
H922 C913 0.929 . S
H923 C916 0.930 . S
C924 C925 1.351 . S
C924 N927 1.368 . S
C924 H929 0.931 . S
C925 C924 1.351 . S
C925 N926 1.373 . S
C925 H953 0.930 . S
N926 C925 1.373 . S
N926 C928 1.340 . S
N927 C924 1.368 . S
N927 C928 1.321 . S
N927 Co930 2.135 . S
C928 N926 1.340 . S
C928 N927 1.321 . S
C928 H952 0.930 . S
H929 C924 0.931 . S
Co930 N927 2.135 . S
Co930 N933 2.121 . S
Co930 O938 2.055 . S
Co930 O941 2.039 . S
Co930 N944 2.140 . S
C931 O932 1.227 . S
C931 O941 1.265 . S
O932 C931 1.227 . S
N933 Co930 2.121 . S
N933 C935 1.375 . S
N933 C936 1.313 . S
C934 C935 1.338 . S
C934 N937 1.377 . S
C934 H954 0.930 . S
C935 N933 1.375 . S
C935 C934 1.338 . S
C935 H939 0.931 . S
C936 N933 1.313 . S
C936 N937 1.344 . S
C936 H940 0.930 . S
N937 C934 1.377 . S
N937 C936 1.344 . S
O938 Co930 2.055 . S
O938 C942 1.253 . S
H939 C935 0.931 . S
H940 C936 0.930 . S
O941 Co930 2.039 . S
O941 C931 1.265 . S
C942 O938 1.253 . S
C942 O943 1.227 . S
O943 C942 1.227 . S
N944 Co930 2.140 . S
N944 C947 1.346 . S
N944 C948 1.345 . S
C945 C946 1.387 . S
C945 C949 1.391 . S
C946 C945 1.387 . S
C946 C947 1.369 . S
C946 H955 0.929 . S
C947 N944 1.346 . S
C947 C946 1.369 . S
C947 H950 0.928 . S
C948 N944 1.345 . S
C948 C949 1.371 . S
C948 H951 0.931 . S
C949 C945 1.391 . S
C949 C948 1.371 . S
C949 H956 0.930 . S
H950 C947 0.928 . S
H951 C948 0.931 . S
H952 C928 0.930 . S
H953 C925 0.930 . S
H954 C934 0.930 . S
H955 C946 0.929 . S
H956 C949 0.930 . S
C957 C958 1.351 . S
C957 N960 1.368 . S
C957 H962 0.931 . S
C958 C957 1.351 . S
C958 N959 1.373 . S
C958 H986 0.930 . S
N959 C958 1.373 . S
N959 C961 1.340 . S
N960 C957 1.368 . S
N960 C961 1.321 . S
N960 Co963 2.135 . S
C961 N959 1.340 . S
C961 N960 1.321 . S
C961 H985 0.930 . S
H962 C957 0.931 . S
Co963 N960 2.135 . S
Co963 N966 2.121 . S
Co963 O971 2.055 . S
Co963 O974 2.039 . S
Co963 N977 2.140 . S
C964 O965 1.227 . S
C964 O974 1.265 . S
O965 C964 1.227 . S
N966 Co963 2.121 . S
N966 C968 1.375 . S
N966 C969 1.313 . S
C967 C968 1.338 . S
C967 N970 1.377 . S
C967 H987 0.930 . S
C968 N966 1.375 . S
C968 C967 1.338 . S
C968 H972 0.931 . S
C969 N966 1.313 . S
C969 N970 1.344 . S
C969 H973 0.930 . S
N970 C967 1.377 . S
N970 C969 1.344 . S
O971 Co963 2.055 . S
O971 C975 1.253 . S
H972 C968 0.931 . S
H973 C969 0.930 . S
O974 Co963 2.039 . S
O974 C964 1.265 . S
C975 O971 1.253 . S
C975 O976 1.227 . S
O976 C975 1.227 . S
N977 Co963 2.140 . S
N977 C980 1.346 . S
N977 C981 1.345 . S
C978 C979 1.387 . S
C978 C982 1.391 . S
C979 C978 1.387 . S
C979 C980 1.369 . S
C979 H988 0.929 . S
C980 N977 1.346 . S
C980 C979 1.369 . S
C980 H983 0.928 . S
C981 N977 1.345 . S
C981 C982 1.371 . S
C981 H984 0.931 . S
C982 C978 1.391 . S
C982 C981 1.371 . S
C982 H989 0.930 . S
H983 C980 0.928 . S
H984 C981 0.931 . S
H985 C961 0.930 . S
H986 C958 0.930 . S
H987 C967 0.930 . S
H988 C979 0.929 . S
H989 C982 0.930 . S
C990 C991 1.351 . S
C990 N993 1.368 . S
C990 H995 0.931 . S
C991 C990 1.351 . S
C991 N992 1.373 . S
C991 H1019 0.930 . S
N992 C991 1.373 . S
N992 C994 1.340 . S
N993 C990 1.368 . S
N993 C994 1.321 . S
N993 Co996 2.135 . S
C994 N992 1.340 . S
C994 N993 1.321 . S
C994 H1018 0.930 . S
H995 C990 0.931 . S
Co996 N993 2.135 . S
Co996 N999 2.121 . S
Co996 O1004 2.055 . S
Co996 O1007 2.039 . S
Co996 N1010 2.140 . S
C997 O998 1.227 . S
C997 O1007 1.265 . S
O998 C997 1.227 . S
N999 Co996 2.121 . S
N999 C1001 1.375 . S
N999 C1002 1.313 . S
C1000 C1001 1.338 . S
C1000 N1003 1.377 . S
C1000 H1020 0.930 . S
C1001 N999 1.375 . S
C1001 C1000 1.338 . S
C1001 H1005 0.931 . S
C1002 N999 1.313 . S
C1002 N1003 1.344 . S
C1002 H1006 0.930 . S
N1003 C1000 1.377 . S
N1003 C1002 1.344 . S
O1004 Co996 2.055 . S
O1004 C1008 1.253 . S
H1005 C1001 0.931 . S
H1006 C1002 0.930 . S
O1007 Co996 2.039 . S
O1007 C997 1.265 . S
C1008 O1004 1.253 . S
C1008 O1009 1.227 . S
O1009 C1008 1.227 . S
N1010 Co996 2.140 . S
N1010 C1013 1.346 . S
N1010 C1014 1.345 . S
C1011 C1012 1.387 . S
C1011 C1015 1.391 . S
C1012 C1011 1.387 . S
C1012 C1013 1.369 . S
C1012 H1021 0.929 . S
C1013 N1010 1.346 . S
C1013 C1012 1.369 . S
C1013 H1016 0.928 . S
C1014 N1010 1.345 . S
C1014 C1015 1.371 . S
C1014 H1017 0.931 . S
C1015 C1011 1.391 . S
C1015 C1014 1.371 . S
C1015 H1022 0.930 . S
H1016 C1013 0.928 . S
H1017 C1014 0.931 . S
H1018 C994 0.930 . S
H1019 C991 0.930 . S
H1020 C1000 0.930 . S
H1021 C1012 0.929 . S
H1022 C1015 0.930 . S
C1023 C1024 1.351 . S
C1023 N1026 1.368 . S
C1023 H1028 0.931 . S
C1024 C1023 1.351 . S
C1024 N1025 1.373 . S
C1024 H1052 0.930 . S
N1025 C1024 1.373 . S
N1025 C1027 1.340 . S
N1026 C1023 1.368 . S
N1026 C1027 1.321 . S
N1026 Co1029 2.135 . S
C1027 N1025 1.340 . S
C1027 N1026 1.321 . S
C1027 H1051 0.930 . S
H1028 C1023 0.931 . S
Co1029 N1026 2.135 . S
Co1029 N1032 2.121 . S
Co1029 O1037 2.055 . S
Co1029 O1040 2.039 . S
Co1029 N1043 2.140 . S
C1030 O1031 1.227 . S
C1030 O1040 1.265 . S
O1031 C1030 1.227 . S
N1032 Co1029 2.121 . S
N1032 C1034 1.375 . S
N1032 C1035 1.313 . S
C1033 C1034 1.338 . S
C1033 N1036 1.377 . S
C1033 H1053 0.930 . S
C1034 N1032 1.375 . S
C1034 C1033 1.338 . S
C1034 H1038 0.931 . S
C1035 N1032 1.313 . S
C1035 N1036 1.344 . S
C1035 H1039 0.930 . S
N1036 C1033 1.377 . S
N1036 C1035 1.344 . S
O1037 Co1029 2.055 . S
O1037 C1041 1.253 . S
H1038 C1034 0.931 . S
H1039 C1035 0.930 . S
O1040 Co1029 2.039 . S
O1040 C1030 1.265 . S
C1041 O1037 1.253 . S
C1041 O1042 1.227 . S
O1042 C1041 1.227 . S
N1043 Co1029 2.140 . S
N1043 C1046 1.346 . S
N1043 C1047 1.345 . S
C1044 C1045 1.387 . S
C1044 C1048 1.391 . S
C1045 C1044 1.387 . S
C1045 C1046 1.369 . S
C1045 H1054 0.929 . S
C1046 N1043 1.346 . S
C1046 C1045 1.369 . S
C1046 H1049 0.928 . S
C1047 N1043 1.345 . S
C1047 C1048 1.371 . S
C1047 H1050 0.931 . S
C1048 C1044 1.391 . S
C1048 C1047 1.371 . S
C1048 H1055 0.930 . S
H1049 C1046 0.928 . S
H1050 C1047 0.931 . S
H1051 C1027 0.930 . S
H1052 C1024 0.930 . S
H1053 C1033 0.930 . S
H1054 C1045 0.929 . S
H1055 C1048 0.930 . S
C1056 C1057 1.351 . S
C1056 N1059 1.368 . S
C1056 H1061 0.931 . S
C1057 C1056 1.351 . S
C1057 N1058 1.373 . S
C1057 H1085 0.930 . S
N1058 C1057 1.373 . S
N1058 C1060 1.340 . S
N1059 C1056 1.368 . S
N1059 C1060 1.321 . S
N1059 Co1062 2.135 . S
C1060 N1058 1.340 . S
C1060 N1059 1.321 . S
C1060 H1084 0.930 . S
H1061 C1056 0.931 . S
Co1062 N1059 2.135 . S
Co1062 N1065 2.121 . S
Co1062 O1070 2.055 . S
Co1062 O1073 2.039 . S
Co1062 N1076 2.140 . S
C1063 O1064 1.227 . S
C1063 O1073 1.265 . S
O1064 C1063 1.227 . S
N1065 Co1062 2.121 . S
N1065 C1067 1.375 . S
N1065 C1068 1.313 . S
C1066 C1067 1.338 . S
C1066 N1069 1.377 . S
C1066 H1086 0.930 . S
C1067 N1065 1.375 . S
C1067 C1066 1.338 . S
C1067 H1071 0.931 . S
C1068 N1065 1.313 . S
C1068 N1069 1.344 . S
C1068 H1072 0.930 . S
N1069 C1066 1.377 . S
N1069 C1068 1.344 . S
O1070 Co1062 2.055 . S
O1070 C1074 1.253 . S
H1071 C1067 0.931 . S
H1072 C1068 0.930 . S
O1073 Co1062 2.039 . S
O1073 C1063 1.265 . S
C1074 O1070 1.253 . S
C1074 O1075 1.227 . S
O1075 C1074 1.227 . S
N1076 Co1062 2.140 . S
N1076 C1079 1.346 . S
N1076 C1080 1.345 . S
C1077 C1078 1.387 . S
C1077 C1081 1.391 . S
C1078 C1077 1.387 . S
C1078 C1079 1.369 . S
C1078 H1087 0.929 . S
C1079 N1076 1.346 . S
C1079 C1078 1.369 . S
C1079 H1082 0.928 . S
C1080 N1076 1.345 . S
C1080 C1081 1.371 . S
C1080 H1083 0.931 . S
C1081 C1077 1.391 . S
C1081 C1080 1.371 . S
C1081 H1088 0.930 . S
H1082 C1079 0.928 . S
H1083 C1080 0.931 . S
H1084 C1060 0.930 . S
H1085 C1057 0.930 . S
H1086 C1066 0.930 . S
H1087 C1078 0.929 . S
H1088 C1081 0.930 . S
C1089 C1090 1.351 . S
C1089 N1092 1.368 . S
C1089 H1094 0.931 . S
C1090 C1089 1.351 . S
C1090 N1091 1.366 1_565 S
C1090 H1118 0.930 . S
N1091 C1090 1.366 1_545 S
N1091 C1093 1.333 1_545 S
N1092 C1089 1.368 . S
N1092 C1093 1.321 . S
N1092 Co1095 2.135 . S
C1093 N1091 1.333 1_565 S
C1093 N1092 1.321 . S
C1093 H1117 0.930 . S
H1094 C1089 0.931 . S
Co1095 N1092 2.135 . S
Co1095 N1098 2.121 . S
Co1095 O1103 2.055 . S
Co1095 O1106 2.039 . S
Co1095 N1109 2.136 1_565 S
C1096 O1097 1.227 1_565 S
C1096 O1106 1.265 . S
O1097 C1096 1.227 1_545 S
N1098 Co1095 2.121 . S
N1098 C1100 1.375 . S
N1098 C1101 1.313 . S
C1099 C1100 1.338 . S
C1099 N1102 1.377 . S
C1099 H1119 0.930 . S
C1100 N1098 1.375 . S
C1100 C1099 1.338 . S
C1100 H1104 0.931 . S
C1101 N1098 1.313 . S
C1101 N1102 1.344 . S
C1101 H1105 0.930 . S
N1102 C1099 1.377 . S
N1102 C1101 1.344 . S
O1103 Co1095 2.055 . S
O1103 C1107 1.253 . S
H1104 C1100 0.931 . S
H1105 C1101 0.930 . S
O1106 Co1095 2.039 . S
O1106 C1096 1.265 . S
C1107 O1103 1.253 . S
C1107 O1108 1.227 . S
O1108 C1107 1.227 . S
N1109 Co1095 2.136 1_545 S
N1109 C1112 1.350 . S
N1109 C1113 1.344 1_545 S
C1110 C1111 1.387 . S
C1110 C1114 1.391 . S
C1111 C1110 1.387 . S
C1111 C1112 1.369 . S
C1111 H1120 0.929 . S
C1112 N1109 1.350 . S
C1112 C1111 1.369 . S
C1112 H1115 0.928 . S
C1113 N1109 1.344 1_565 S
C1113 C1114 1.334 1_565 S
C1113 H1116 0.972 . S
C1114 C1110 1.391 . S
C1114 C1113 1.334 1_545 S
C1114 H1121 0.930 . S
H1115 C1112 0.928 . S
H1116 C1113 0.972 . S
H1117 C1093 0.930 . S
H1118 C1090 0.930 . S
H1119 C1099 0.930 . S
H1120 C1111 0.929 . S
H1121 C1114 0.930 . S
C1122 C1123 1.351 . S
C1122 N1125 1.368 . S
C1122 H1127 0.931 . S
C1123 C1122 1.351 . S
C1123 N1124 1.373 . S
C1123 H1151 0.930 . S
N1124 C1123 1.373 . S
N1124 C1126 1.340 . S
N1125 C1122 1.368 . S
N1125 C1126 1.321 . S
N1125 Co1128 2.135 . S
C1126 N1124 1.340 . S
C1126 N1125 1.321 . S
C1126 H1150 0.930 . S
H1127 C1122 0.931 . S
Co1128 N1125 2.135 . S
Co1128 N1131 2.121 . S
Co1128 O1136 2.055 . S
Co1128 O1139 2.039 . S
Co1128 N1142 2.140 . S
C1129 O1130 1.227 . S
C1129 O1139 1.265 . S
O1130 C1129 1.227 . S
N1131 Co1128 2.121 . S
N1131 C1133 1.375 1_565 S
N1131 C1134 1.313 1_565 S
C1132 C1133 1.338 . S
C1132 N1135 1.377 . S
C1132 H1152 0.930 . S
C1133 N1131 1.375 1_545 S
C1133 C1132 1.338 . S
C1133 H1137 0.931 . S
C1134 N1131 1.313 1_545 S
C1134 N1135 1.344 . S
C1134 H1138 0.930 1_545 S
N1135 C1132 1.377 . S
N1135 C1134 1.344 . S
O1136 Co1128 2.055 . S
O1136 C1140 1.253 . S
H1137 C1133 0.931 . S
H1138 C1134 0.930 1_565 S
O1139 Co1128 2.039 . S
O1139 C1129 1.265 . S
C1140 O1136 1.253 . S
C1140 O1141 1.227 . S
O1141 C1140 1.227 . S
N1142 Co1128 2.140 . S
N1142 C1145 1.346 . S
N1142 C1146 1.345 . S
C1143 C1144 1.387 . S
C1143 C1147 1.391 . S
C1144 C1143 1.387 . S
C1144 C1145 1.369 . S
C1144 H1153 0.929 . S
C1145 N1142 1.346 . S
C1145 C1144 1.369 . S
C1145 H1148 0.928 . S
C1146 N1142 1.345 . S
C1146 C1147 1.371 . S
C1146 H1149 0.931 . S
C1147 C1143 1.391 . S
C1147 C1146 1.371 . S
C1147 H1154 0.930 . S
H1148 C1145 0.928 . S
H1149 C1146 0.931 . S
H1150 C1126 0.930 . S
H1151 C1123 0.930 . S
H1152 C1132 0.930 . S
H1153 C1144 0.929 . S
H1154 C1147 0.930 . S
C1155 C1156 1.351 . S
C1155 N1158 1.368 . S
C1155 H1160 0.931 . S
C1156 C1155 1.351 . S
C1156 N1157 1.373 . S
C1156 H1184 0.930 . S
N1157 C1156 1.373 . S
N1157 C1159 1.340 . S
N1158 C1155 1.368 . S
N1158 C1159 1.321 . S
N1158 Co1161 2.135 . S
C1159 N1157 1.340 . S
C1159 N1158 1.321 . S
C1159 H1183 0.930 . S
H1160 C1155 0.931 . S
Co1161 N1158 2.135 . S
Co1161 N1164 2.121 . S
Co1161 O1169 2.055 . S
Co1161 O1172 2.039 . S
Co1161 N1175 2.140 . S
C1162 O1163 1.227 . S
C1162 O1172 1.265 . S
O1163 C1162 1.227 . S
N1164 Co1161 2.121 . S
N1164 C1166 1.375 . S
N1164 C1167 1.313 . S
C1165 C1166 1.338 . S
C1165 N1168 1.377 . S
C1165 H1185 0.930 . S
C1166 N1164 1.375 . S
C1166 C1165 1.338 . S
C1166 H1170 0.931 . S
C1167 N1164 1.313 . S
C1167 N1168 1.344 . S
C1167 H1171 0.930 . S
N1168 C1165 1.377 . S
N1168 C1167 1.344 . S
O1169 Co1161 2.055 . S
O1169 C1173 1.253 . S
H1170 C1166 0.931 . S
H1171 C1167 0.930 . S
O1172 Co1161 2.039 . S
O1172 C1162 1.265 . S
C1173 O1169 1.253 . S
C1173 O1174 1.227 . S
O1174 C1173 1.227 . S
N1175 Co1161 2.140 . S
N1175 C1178 1.346 . S
N1175 C1179 1.345 . S
C1176 C1177 1.387 . S
C1176 C1180 1.391 . S
C1177 C1176 1.387 . S
C1177 C1178 1.369 . S
C1177 H1186 0.929 . S
C1178 N1175 1.346 . S
C1178 C1177 1.369 . S
C1178 H1181 0.928 . S
C1179 N1175 1.345 . S
C1179 C1180 1.371 . S
C1179 H1182 0.931 . S
C1180 C1176 1.391 . S
C1180 C1179 1.371 . S
C1180 H1187 0.930 . S
H1181 C1178 0.928 . S
H1182 C1179 0.931 . S
H1183 C1159 0.930 . S
H1184 C1156 0.930 . S
H1185 C1165 0.930 . S
H1186 C1177 0.929 . S
H1187 C1180 0.930 . S
C1188 C1189 1.351 . S
C1188 N1191 1.368 . S
C1188 H1193 0.931 . S
C1189 C1188 1.351 . S
C1189 N1190 1.373 . S
C1189 H1217 0.930 . S
N1190 C1189 1.373 . S
N1190 C1192 1.340 . S
N1191 C1188 1.368 . S
N1191 C1192 1.321 . S
N1191 Co1194 2.135 . S
C1192 N1190 1.340 . S
C1192 N1191 1.321 . S
C1192 H1216 0.930 . S
H1193 C1188 0.931 . S
Co1194 N1191 2.135 . S
Co1194 N1197 2.121 . S
Co1194 O1202 2.055 . S
Co1194 O1205 2.039 . S
Co1194 N1208 2.140 . S
C1195 O1196 1.227 . S
C1195 O1205 1.265 . S
O1196 C1195 1.227 . S
N1197 Co1194 2.121 . S
N1197 C1199 1.375 . S
N1197 C1200 1.313 . S
C1198 C1199 1.338 . S
C1198 N1201 1.377 . S
C1198 H1218 0.930 . S
C1199 N1197 1.375 . S
C1199 C1198 1.338 . S
C1199 H1203 0.931 . S
C1200 N1197 1.313 . S
C1200 N1201 1.344 . S
C1200 H1204 0.930 . S
N1201 C1198 1.377 . S
N1201 C1200 1.344 . S
O1202 Co1194 2.055 . S
O1202 C1206 1.253 . S
H1203 C1199 0.931 . S
H1204 C1200 0.930 . S
O1205 Co1194 2.039 . S
O1205 C1195 1.265 . S
C1206 O1202 1.253 . S
C1206 O1207 1.227 . S
O1207 C1206 1.227 . S
N1208 Co1194 2.140 . S
N1208 C1211 1.346 . S
N1208 C1212 1.345 . S
C1209 C1210 1.387 . S
C1209 C1213 1.391 . S
C1210 C1209 1.387 . S
C1210 C1211 1.369 . S
C1210 H1219 0.929 . S
C1211 N1208 1.346 . S
C1211 C1210 1.369 . S
C1211 H1214 0.928 . S
C1212 N1208 1.345 . S
C1212 C1213 1.371 . S
C1212 H1215 0.931 . S
C1213 C1209 1.391 . S
C1213 C1212 1.371 . S
C1213 H1220 0.930 . S
H1214 C1211 0.928 . S
H1215 C1212 0.931 . S
H1216 C1192 0.930 . S
H1217 C1189 0.930 . S
H1218 C1198 0.930 . S
H1219 C1210 0.929 . S
H1220 C1213 0.930 . S
C1221 C1222 1.351 . S
C1221 N1224 1.368 . S
C1221 H1226 0.931 . S
C1222 C1221 1.351 . S
C1222 N1223 1.366 1_565 S
C1222 H1250 0.930 . S
N1223 C1222 1.366 1_545 S
N1223 C1225 1.333 1_545 S
N1224 C1221 1.368 . S
N1224 C1225 1.321 . S
N1224 Co1227 2.135 . S
C1225 N1223 1.333 1_565 S
C1225 N1224 1.321 . S
C1225 H1249 0.930 . S
H1226 C1221 0.931 . S
Co1227 N1224 2.135 . S
Co1227 N1230 2.121 . S
Co1227 O1235 2.055 . S
Co1227 O1238 2.039 . S
Co1227 N1241 2.136 1_565 S
C1228 O1229 1.227 1_565 S
C1228 O1238 1.265 . S
O1229 C1228 1.227 1_545 S
N1230 Co1227 2.121 . S
N1230 C1232 1.375 . S
N1230 C1233 1.313 . S
C1231 C1232 1.338 . S
C1231 N1234 1.377 . S
C1231 H1251 0.930 . S
C1232 N1230 1.375 . S
C1232 C1231 1.338 . S
C1232 H1236 0.931 . S
C1233 N1230 1.313 . S
C1233 N1234 1.344 . S
C1233 H1237 0.930 . S
N1234 C1231 1.377 . S
N1234 C1233 1.344 . S
O1235 Co1227 2.055 . S
O1235 C1239 1.253 . S
H1236 C1232 0.931 . S
H1237 C1233 0.930 . S
O1238 Co1227 2.039 . S
O1238 C1228 1.265 . S
C1239 O1235 1.253 . S
C1239 O1240 1.227 . S
O1240 C1239 1.227 . S
N1241 Co1227 2.136 1_545 S
N1241 C1244 1.350 . S
N1241 C1245 1.344 1_545 S
C1242 C1243 1.387 . S
C1242 C1246 1.391 . S
C1243 C1242 1.387 . S
C1243 C1244 1.369 . S
C1243 H1252 0.929 . S
C1244 N1241 1.350 . S
C1244 C1243 1.369 . S
C1244 H1247 0.928 . S
C1245 N1241 1.344 1_565 S
C1245 C1246 1.334 1_565 S
C1245 H1248 0.972 . S
C1246 C1242 1.391 . S
C1246 C1245 1.334 1_545 S
C1246 H1253 0.930 . S
H1247 C1244 0.928 . S
H1248 C1245 0.972 . S
H1249 C1225 0.930 . S
H1250 C1222 0.930 . S
H1251 C1231 0.930 . S
H1252 C1243 0.929 . S
H1253 C1246 0.930 . S
C1254 C1255 1.351 . S
C1254 N1257 1.368 . S
C1254 H1259 0.931 . S
C1255 C1254 1.351 . S
C1255 N1256 1.373 . S
C1255 H1283 0.930 . S
N1256 C1255 1.373 . S
N1256 C1258 1.340 . S
N1257 C1254 1.368 . S
N1257 C1258 1.321 . S
N1257 Co1260 2.135 . S
C1258 N1256 1.340 . S
C1258 N1257 1.321 . S
C1258 H1282 0.930 . S
H1259 C1254 0.931 . S
Co1260 N1257 2.135 . S
Co1260 N1263 2.121 . S
Co1260 O1268 2.055 . S
Co1260 O1271 2.039 . S
Co1260 N1274 2.140 . S
C1261 O1262 1.227 . S
C1261 O1271 1.265 . S
O1262 C1261 1.227 . S
N1263 Co1260 2.121 . S
N1263 C1265 1.375 1_545 S
N1263 C1266 1.313 1_545 S
C1264 C1265 1.338 . S
C1264 N1267 1.377 . S
C1264 H1284 0.930 . S
C1265 N1263 1.375 1_565 S
C1265 C1264 1.338 . S
C1265 H1269 0.931 . S
C1266 N1263 1.313 1_565 S
C1266 N1267 1.344 . S
C1266 H1270 0.930 1_565 S
N1267 C1264 1.377 . S
N1267 C1266 1.344 . S
O1268 Co1260 2.055 . S
O1268 C1272 1.253 . S
H1269 C1265 0.931 . S
H1270 C1266 0.930 1_545 S
O1271 Co1260 2.039 . S
O1271 C1261 1.265 . S
C1272 O1268 1.253 . S
C1272 O1273 1.227 . S
O1273 C1272 1.227 . S
N1274 Co1260 2.140 . S
N1274 C1277 1.346 . S
N1274 C1278 1.345 . S
C1275 C1276 1.387 . S
C1275 C1279 1.391 . S
C1276 C1275 1.387 . S
C1276 C1277 1.369 . S
C1276 H1285 0.929 . S
C1277 N1274 1.346 . S
C1277 C1276 1.369 . S
C1277 H1280 0.928 . S
C1278 N1274 1.345 . S
C1278 C1279 1.371 . S
C1278 H1281 0.931 . S
C1279 C1275 1.391 . S
C1279 C1278 1.371 . S
C1279 H1286 0.930 . S
H1280 C1277 0.928 . S
H1281 C1278 0.931 . S
H1282 C1258 0.930 . S
H1283 C1255 0.930 . S
H1284 C1264 0.930 . S
H1285 C1276 0.929 . S
H1286 C1279 0.930 . S
C1287 C1288 1.351 . S
C1287 N1290 1.368 . S
C1287 H1292 0.931 . S
C1288 C1287 1.351 . S
C1288 N1289 1.373 . S
C1288 H1316 0.930 . S
N1289 C1288 1.373 . S
N1289 C1291 1.340 . S
N1290 C1287 1.368 . S
N1290 C1291 1.321 . S
N1290 Co1293 2.135 . S
C1291 N1289 1.340 . S
C1291 N1290 1.321 . S
C1291 H1315 0.930 . S
H1292 C1287 0.931 . S
Co1293 N1290 2.135 . S
Co1293 N1296 2.121 . S
Co1293 O1301 2.055 . S
Co1293 O1304 2.039 . S
Co1293 N1307 2.140 . S
C1294 O1295 1.227 . S
C1294 O1304 1.265 . S
O1295 C1294 1.227 . S
N1296 Co1293 2.121 . S
N1296 C1298 1.375 . S
N1296 C1299 1.313 . S
C1297 C1298 1.338 . S
C1297 N1300 1.377 . S
C1297 H1317 0.930 . S
C1298 N1296 1.375 . S
C1298 C1297 1.338 . S
C1298 H1302 0.931 . S
C1299 N1296 1.313 . S
C1299 N1300 1.344 . S
C1299 H1303 0.930 . S
N1300 C1297 1.377 . S
N1300 C1299 1.344 . S
O1301 Co1293 2.055 . S
O1301 C1305 1.253 . S
H1302 C1298 0.931 . S
H1303 C1299 0.930 . S
O1304 Co1293 2.039 . S
O1304 C1294 1.265 . S
C1305 O1301 1.253 . S
C1305 O1306 1.227 . S
O1306 C1305 1.227 . S
N1307 Co1293 2.140 . S
N1307 C1310 1.346 . S
N1307 C1311 1.345 . S
C1308 C1309 1.387 . S
C1308 C1312 1.391 . S
C1309 C1308 1.387 . S
C1309 C1310 1.369 . S
C1309 H1318 0.929 . S
C1310 N1307 1.346 . S
C1310 C1309 1.369 . S
C1310 H1313 0.928 . S
C1311 N1307 1.345 . S
C1311 C1312 1.371 . S
C1311 H1314 0.931 . S
C1312 C1308 1.391 . S
C1312 C1311 1.371 . S
C1312 H1319 0.930 . S
H1313 C1310 0.928 . S
H1314 C1311 0.931 . S
H1315 C1291 0.930 . S
H1316 C1288 0.930 . S
H1317 C1297 0.930 . S
H1318 C1309 0.929 . S
H1319 C1312 0.930 . S
C1320 C1321 1.351 . S
C1320 N1323 1.368 . S
C1320 H1325 0.931 . S
C1321 C1320 1.351 . S
C1321 N1322 1.373 . S
C1321 H1349 0.930 . S
N1322 C1321 1.373 . S
N1322 C1324 1.340 . S
N1323 C1320 1.368 . S
N1323 C1324 1.321 . S
N1323 Co1326 2.135 . S
C1324 N1322 1.340 . S
C1324 N1323 1.321 . S
C1324 H1348 0.930 . S
H1325 C1320 0.931 . S
Co1326 N1323 2.135 . S
Co1326 N1329 2.121 . S
Co1326 O1334 2.055 . S
Co1326 O1337 2.039 . S
Co1326 N1340 2.140 . S
C1327 O1328 1.227 . S
C1327 O1337 1.265 . S
O1328 C1327 1.227 . S
N1329 Co1326 2.121 . S
N1329 C1331 1.375 . S
N1329 C1332 1.313 . S
C1330 C1331 1.338 . S
C1330 N1333 1.377 . S
C1330 H1350 0.930 . S
C1331 N1329 1.375 . S
C1331 C1330 1.338 . S
C1331 H1335 0.931 . S
C1332 N1329 1.313 . S
C1332 N1333 1.344 . S
C1332 H1336 0.930 . S
N1333 C1330 1.377 . S
N1333 C1332 1.344 . S
O1334 Co1326 2.055 . S
O1334 C1338 1.253 . S
H1335 C1331 0.931 . S
H1336 C1332 0.930 . S
O1337 Co1326 2.039 . S
O1337 C1327 1.265 . S
C1338 O1334 1.253 . S
C1338 O1339 1.227 . S
O1339 C1338 1.227 . S
N1340 Co1326 2.140 . S
N1340 C1343 1.346 . S
N1340 C1344 1.345 . S
C1341 C1342 1.387 . S
C1341 C1345 1.391 . S
C1342 C1341 1.387 . S
C1342 C1343 1.369 . S
C1342 H1351 0.929 . S
C1343 N1340 1.346 . S
C1343 C1342 1.369 . S
C1343 H1346 0.928 . S
C1344 N1340 1.345 . S
C1344 C1345 1.371 . S
C1344 H1347 0.931 . S
C1345 C1341 1.391 . S
C1345 C1344 1.371 . S
C1345 H1352 0.930 . S
H1346 C1343 0.928 . S
H1347 C1344 0.931 . S
H1348 C1324 0.930 . S
H1349 C1321 0.930 . S
H1350 C1330 0.930 . S
H1351 C1342 0.929 . S
H1352 C1345 0.930 . S
C1353 C1354 1.351 . S
C1353 N1356 1.368 . S
C1353 H1358 0.931 . S
C1354 C1353 1.351 . S
C1354 N1355 1.373 . S
C1354 H1382 0.930 . S
N1355 C1354 1.373 . S
N1355 C1357 1.340 . S
N1356 C1353 1.368 . S
N1356 C1357 1.321 . S
N1356 Co1359 2.135 . S
C1357 N1355 1.340 . S
C1357 N1356 1.321 . S
C1357 H1381 0.930 . S
H1358 C1353 0.931 . S
Co1359 N1356 2.135 . S
Co1359 N1362 2.121 . S
Co1359 O1367 2.055 . S
Co1359 O1370 2.039 . S
Co1359 N1373 2.140 . S
C1360 O1361 1.227 . S
C1360 O1370 1.265 . S
O1361 C1360 1.227 . S
N1362 Co1359 2.121 . S
N1362 C1364 1.375 1_556 S
N1362 C1365 1.313 1_556 S
C1363 C1364 1.338 . S
C1363 N1366 1.377 . S
C1363 H1383 0.930 . S
C1364 N1362 1.375 1_554 S
C1364 C1363 1.338 . S
C1364 H1368 0.931 . S
C1365 N1362 1.313 1_554 S
C1365 N1366 1.344 . S
C1365 H1369 0.930 1_554 S
N1366 C1363 1.377 . S
N1366 C1365 1.344 . S
O1367 Co1359 2.055 . S
O1367 C1371 1.253 . S
H1368 C1364 0.931 . S
H1369 C1365 0.930 1_556 S
O1370 Co1359 2.039 . S
O1370 C1360 1.265 . S
C1371 O1367 1.253 . S
C1371 O1372 1.227 . S
O1372 C1371 1.227 . S
N1373 Co1359 2.140 . S
N1373 C1376 1.346 . S
N1373 C1377 1.345 . S
C1374 C1375 1.387 . S
C1374 C1378 1.391 . S
C1375 C1374 1.387 . S
C1375 C1376 1.369 . S
C1375 H1384 0.929 . S
C1376 N1373 1.346 . S
C1376 C1375 1.369 . S
C1376 H1379 0.928 . S
C1377 N1373 1.345 . S
C1377 C1378 1.371 . S
C1377 H1380 0.931 . S
C1378 C1374 1.391 . S
C1378 C1377 1.371 . S
C1378 H1385 0.930 . S
H1379 C1376 0.928 . S
H1380 C1377 0.931 . S
H1381 C1357 0.930 . S
H1382 C1354 0.930 . S
H1383 C1363 0.930 . S
H1384 C1375 0.929 . S
H1385 C1378 0.930 . S
C1386 C1387 1.351 . S
C1386 N1389 1.368 . S
C1386 H1391 0.931 . S
C1387 C1386 1.351 . S
C1387 N1388 1.373 . S
C1387 H1415 0.930 . S
N1388 C1387 1.373 . S
N1388 C1390 1.340 . S
N1389 C1386 1.368 . S
N1389 C1390 1.321 . S
N1389 Co1392 2.135 . S
C1390 N1388 1.340 . S
C1390 N1389 1.321 . S
C1390 H1414 0.930 . S
H1391 C1386 0.931 . S
Co1392 N1389 2.135 . S
Co1392 N1395 2.121 . S
Co1392 O1400 2.055 . S
Co1392 O1403 2.039 . S
Co1392 N1406 2.140 . S
C1393 O1394 1.227 . S
C1393 O1403 1.265 . S
O1394 C1393 1.227 . S
N1395 Co1392 2.121 . S
N1395 C1397 1.375 . S
N1395 C1398 1.313 . S
C1396 C1397 1.338 . S
C1396 N1399 1.377 . S
C1396 H1416 0.930 . S
C1397 N1395 1.375 . S
C1397 C1396 1.338 . S
C1397 H1401 0.931 . S
C1398 N1395 1.313 . S
C1398 N1399 1.344 . S
C1398 H1402 0.930 . S
N1399 C1396 1.377 . S
N1399 C1398 1.344 . S
O1400 Co1392 2.055 . S
O1400 C1404 1.253 . S
H1401 C1397 0.931 . S
H1402 C1398 0.930 . S
O1403 Co1392 2.039 . S
O1403 C1393 1.265 . S
C1404 O1400 1.253 . S
C1404 O1405 1.227 . S
O1405 C1404 1.227 . S
N1406 Co1392 2.140 . S
N1406 C1409 1.346 . S
N1406 C1410 1.345 . S
C1407 C1408 1.387 . S
C1407 C1411 1.391 . S
C1408 C1407 1.387 . S
C1408 C1409 1.369 . S
C1408 H1417 0.929 . S
C1409 N1406 1.346 . S
C1409 C1408 1.369 . S
C1409 H1412 0.928 . S
C1410 N1406 1.345 . S
C1410 C1411 1.371 . S
C1410 H1413 0.931 . S
C1411 C1407 1.391 . S
C1411 C1410 1.371 . S
C1411 H1418 0.930 . S
H1412 C1409 0.928 . S
H1413 C1410 0.931 . S
H1414 C1390 0.930 . S
H1415 C1387 0.930 . S
H1416 C1396 0.930 . S
H1417 C1408 0.929 . S
H1418 C1411 0.930 . S
C1419 C1420 1.351 . S
C1419 N1422 1.368 . S
C1419 H1424 0.931 . S
C1420 C1419 1.351 . S
C1420 N1421 1.373 . S
C1420 H1448 0.930 . S
N1421 C1420 1.373 . S
N1421 C1423 1.340 . S
N1422 C1419 1.368 . S
N1422 C1423 1.321 . S
N1422 Co1425 2.135 . S
C1423 N1421 1.340 . S
C1423 N1422 1.321 . S
C1423 H1447 0.930 . S
H1424 C1419 0.931 . S
Co1425 N1422 2.135 . S
Co1425 N1428 2.121 . S
Co1425 O1433 2.055 . S
Co1425 O1436 2.039 . S
Co1425 N1439 2.140 . S
C1426 O1427 1.227 . S
C1426 O1436 1.265 . S
O1427 C1426 1.227 . S
N1428 Co1425 2.121 . S
N1428 C1430 1.375 1_556 S
N1428 C1431 1.313 1_556 S
C1429 C1430 1.338 . S
C1429 N1432 1.377 . S
C1429 H1449 0.930 . S
C1430 N1428 1.375 1_554 S
C1430 C1429 1.338 . S
C1430 H1434 0.931 . S
C1431 N1428 1.313 1_554 S
C1431 N1432 1.344 . S
C1431 H1435 0.930 1_554 S
N1432 C1429 1.377 . S
N1432 C1431 1.344 . S
O1433 Co1425 2.055 . S
O1433 C1437 1.253 . S
H1434 C1430 0.931 . S
H1435 C1431 0.930 1_556 S
O1436 Co1425 2.039 . S
O1436 C1426 1.265 . S
C1437 O1433 1.253 . S
C1437 O1438 1.227 . S
O1438 C1437 1.227 . S
N1439 Co1425 2.140 . S
N1439 C1442 1.346 . S
N1439 C1443 1.345 . S
C1440 C1441 1.387 . S
C1440 C1444 1.391 . S
C1441 C1440 1.387 . S
C1441 C1442 1.369 . S
C1441 H1450 0.929 . S
C1442 N1439 1.346 . S
C1442 C1441 1.369 . S
C1442 H1445 0.928 . S
C1443 N1439 1.345 . S
C1443 C1444 1.371 . S
C1443 H1446 0.931 . S
C1444 C1440 1.391 . S
C1444 C1443 1.371 . S
C1444 H1451 0.930 . S
H1445 C1442 0.928 . S
H1446 C1443 0.931 . S
H1447 C1423 0.930 . S
H1448 C1420 0.930 . S
H1449 C1429 0.930 . S
H1450 C1441 0.929 . S
H1451 C1444 0.930 . S
C1452 C1453 1.351 . S
C1452 N1455 1.368 . S
C1452 H1457 0.931 . S
C1453 C1452 1.351 . S
C1453 N1454 1.372 . S
C1453 H1481 0.930 . S
N1454 C1453 1.372 . S
N1454 C1456 1.339 . S
N1455 C1452 1.368 . S
N1455 C1456 1.321 . S
N1455 Co1458 2.135 . S
C1456 N1454 1.339 . S
C1456 N1455 1.321 . S
C1456 H1480 0.930 . S
H1457 C1452 0.931 . S
Co1458 N1455 2.135 . S
Co1458 N1461 2.121 . S
Co1458 O1466 2.055 . S
Co1458 O1469 2.039 . S
Co1458 N1472 2.154 . S
C1459 O1460 1.227 1_455 S
C1459 O1469 1.265 . S
O1460 C1459 1.227 1_655 S
N1461 Co1458 2.121 . S
N1461 C1463 1.375 . S
N1461 C1464 1.313 . S
C1462 C1463 1.338 . S
C1462 N1465 1.377 . S
C1462 H1482 0.930 . S
C1463 N1461 1.375 . S
C1463 C1462 1.338 . S
C1463 H1467 0.931 . S
C1464 N1461 1.313 . S
C1464 N1465 1.344 . S
C1464 H1468 0.930 . S
N1465 C1462 1.377 . S
N1465 C1464 1.344 . S
O1466 Co1458 2.055 . S
O1466 C1470 1.253 . S
H1467 C1463 0.931 . S
H1468 C1464 0.930 . S
O1469 Co1458 2.039 . S
O1469 C1459 1.265 . S
C1470 O1466 1.253 . S
C1470 O1471 1.227 . S
O1471 C1470 1.227 . S
N1472 Co1458 2.154 . S
N1472 C1475 1.331 1_455 S
N1472 C1476 1.346 . S
C1473 C1474 1.387 . S
C1473 C1477 1.391 . S
C1474 C1473 1.387 . S
C1474 C1475 1.369 . S
C1474 H1483 0.929 . S
C1475 N1472 1.331 1_655 S
C1475 C1474 1.369 . S
C1475 H1478 0.928 . S
C1476 N1472 1.346 . S
C1476 C1477 1.371 1_455 S
C1476 H1479 0.931 . S
C1477 C1473 1.391 . S
C1477 C1476 1.371 1_655 S
C1477 H1484 0.930 . S
H1478 C1475 0.928 . S
H1479 C1476 0.931 . S
H1480 C1456 0.930 . S
H1481 C1453 0.930 . S
H1482 C1462 0.930 . S
H1483 C1474 0.929 . S
H1484 C1477 0.930 . S
C1485 C1486 1.351 . S
C1485 N1488 1.368 . S
C1485 H1490 0.931 . S
C1486 C1485 1.351 . S
C1486 N1487 1.373 . S
C1486 H1514 0.930 . S
N1487 C1486 1.373 . S
N1487 C1489 1.340 . S
N1488 C1485 1.368 . S
N1488 C1489 1.321 . S
N1488 Co1491 2.135 . S
C1489 N1487 1.340 . S
C1489 N1488 1.321 . S
C1489 H1513 0.930 . S
H1490 C1485 0.931 . S
Co1491 N1488 2.135 . S
Co1491 N1494 2.121 . S
Co1491 O1499 2.055 . S
Co1491 O1502 2.039 . S
Co1491 N1505 2.140 . S
C1492 O1493 1.227 . S
C1492 O1502 1.265 . S
O1493 C1492 1.227 . S
N1494 Co1491 2.121 . S
N1494 C1496 1.375 1_554 S
N1494 C1497 1.313 1_554 S
C1495 C1496 1.338 . S
C1495 N1498 1.377 . S
C1495 H1515 0.930 . S
C1496 N1494 1.375 1_556 S
C1496 C1495 1.338 . S
C1496 H1500 0.931 . S
C1497 N1494 1.313 1_556 S
C1497 N1498 1.344 . S
C1497 H1501 0.930 1_556 S
N1498 C1495 1.377 . S
N1498 C1497 1.344 . S
O1499 Co1491 2.055 . S
O1499 C1503 1.253 . S
H1500 C1496 0.931 . S
H1501 C1497 0.930 1_554 S
O1502 Co1491 2.039 . S
O1502 C1492 1.265 . S
C1503 O1499 1.253 . S
C1503 O1504 1.227 . S
O1504 C1503 1.227 . S
N1505 Co1491 2.140 . S
N1505 C1508 1.346 . S
N1505 C1509 1.345 . S
C1506 C1507 1.387 . S
C1506 C1510 1.391 . S
C1507 C1506 1.387 . S
C1507 C1508 1.369 . S
C1507 H1516 0.929 . S
C1508 N1505 1.346 . S
C1508 C1507 1.369 . S
C1508 H1511 0.928 . S
C1509 N1505 1.345 . S
C1509 C1510 1.371 . S
C1509 H1512 0.931 . S
C1510 C1506 1.391 . S
C1510 C1509 1.371 . S
C1510 H1517 0.930 . S
H1511 C1508 0.928 . S
H1512 C1509 0.931 . S
H1513 C1489 0.930 . S
H1514 C1486 0.930 . S
H1515 C1495 0.930 . S
H1516 C1507 0.929 . S
H1517 C1510 0.930 . S
C1518 C1519 1.351 . S
C1518 N1521 1.368 . S
C1518 H1523 0.931 . S
C1519 C1518 1.351 . S
C1519 N1520 1.373 . S
C1519 H1547 0.930 . S
N1520 C1519 1.373 . S
N1520 C1522 1.340 . S
N1521 C1518 1.368 . S
N1521 C1522 1.321 . S
N1521 Co1524 2.135 . S
C1522 N1520 1.340 . S
C1522 N1521 1.321 . S
C1522 H1546 0.930 . S
H1523 C1518 0.931 . S
Co1524 N1521 2.135 . S
Co1524 N1527 2.121 . S
Co1524 O1532 2.055 . S
Co1524 O1535 2.039 . S
Co1524 N1538 2.140 . S
C1525 O1526 1.227 . S
C1525 O1535 1.265 . S
O1526 C1525 1.227 . S
N1527 Co1524 2.121 . S
N1527 C1529 1.375 . S
N1527 C1530 1.313 . S
C1528 C1529 1.338 . S
C1528 N1531 1.377 . S
C1528 H1548 0.930 . S
C1529 N1527 1.375 . S
C1529 C1528 1.338 . S
C1529 H1533 0.931 . S
C1530 N1527 1.313 . S
C1530 N1531 1.344 . S
C1530 H1534 0.930 . S
N1531 C1528 1.377 . S
N1531 C1530 1.344 . S
O1532 Co1524 2.055 . S
O1532 C1536 1.253 . S
H1533 C1529 0.931 . S
H1534 C1530 0.930 . S
O1535 Co1524 2.039 . S
O1535 C1525 1.265 . S
C1536 O1532 1.253 . S
C1536 O1537 1.227 . S
O1537 C1536 1.227 . S
N1538 Co1524 2.140 . S
N1538 C1541 1.346 . S
N1538 C1542 1.345 . S
C1539 C1540 1.387 . S
C1539 C1543 1.391 . S
C1540 C1539 1.387 . S
C1540 C1541 1.369 . S
C1540 H1549 0.929 . S
C1541 N1538 1.346 . S
C1541 C1540 1.369 . S
C1541 H1544 0.928 . S
C1542 N1538 1.345 . S
C1542 C1543 1.371 . S
C1542 H1545 0.931 . S
C1543 C1539 1.391 . S
C1543 C1542 1.371 . S
C1543 H1550 0.930 . S
H1544 C1541 0.928 . S
H1545 C1542 0.931 . S
H1546 C1522 0.930 . S
H1547 C1519 0.930 . S
H1548 C1528 0.930 . S
H1549 C1540 0.929 . S
H1550 C1543 0.930 . S
C1551 C1552 1.351 . S
C1551 N1554 1.368 . S
C1551 H1556 0.931 . S
C1552 C1551 1.351 . S
C1552 N1553 1.373 . S
C1552 H1580 0.930 . S
N1553 C1552 1.373 . S
N1553 C1555 1.340 . S
N1554 C1551 1.368 . S
N1554 C1555 1.321 . S
N1554 Co1557 2.135 . S
C1555 N1553 1.340 . S
C1555 N1554 1.321 . S
C1555 H1579 0.930 . S
H1556 C1551 0.931 . S
Co1557 N1554 2.135 . S
Co1557 N1560 2.121 . S
Co1557 O1565 2.055 . S
Co1557 O1568 2.039 . S
Co1557 N1571 2.140 . S
C1558 O1559 1.227 . S
C1558 O1568 1.265 . S
O1559 C1558 1.227 . S
N1560 Co1557 2.121 . S
N1560 C1562 1.375 . S
N1560 C1563 1.313 . S
C1561 C1562 1.338 . S
C1561 N1564 1.377 . S
C1561 H1581 0.930 . S
C1562 N1560 1.375 . S
C1562 C1561 1.338 . S
C1562 H1566 0.931 . S
C1563 N1560 1.313 . S
C1563 N1564 1.344 . S
C1563 H1567 0.930 . S
N1564 C1561 1.377 . S
N1564 C1563 1.344 . S
O1565 Co1557 2.055 . S
O1565 C1569 1.253 . S
H1566 C1562 0.931 . S
H1567 C1563 0.930 . S
O1568 Co1557 2.039 . S
O1568 C1558 1.265 . S
C1569 O1565 1.253 . S
C1569 O1570 1.227 . S
O1570 C1569 1.227 . S
N1571 Co1557 2.140 . S
N1571 C1574 1.346 . S
N1571 C1575 1.345 . S
C1572 C1573 1.387 . S
C1572 C1576 1.391 . S
C1573 C1572 1.387 . S
C1573 C1574 1.369 . S
C1573 H1582 0.929 . S
C1574 N1571 1.346 . S
C1574 C1573 1.369 . S
C1574 H1577 0.928 . S
C1575 N1571 1.345 . S
C1575 C1576 1.371 . S
C1575 H1578 0.931 . S
C1576 C1572 1.391 . S
C1576 C1575 1.371 . S
C1576 H1583 0.930 . S
H1577 C1574 0.928 . S
H1578 C1575 0.931 . S
H1579 C1555 0.930 . S
H1580 C1552 0.930 . S
H1581 C1561 0.930 . S
H1582 C1573 0.929 . S
H1583 C1576 0.930 . S
H1584 C1596 0.930 . S
H1585 C1598 0.930 . S
H1586 C1599 0.930 . S
H1587 C1603 0.959 . S
H1588 C1603 0.959 . S
H1589 C1603 0.961 . S
H1590 C1604 0.960 . S
H1591 C1604 0.961 . S
H1592 C1604 0.959 . S
H1593 C1607 0.929 . S
H1594 C1608 0.931 . S
H1595 C1610 0.930 . S
C1596 H1584 0.930 . S
C1596 C1597 1.399 . S
C1596 C1601 1.399 . S
C1597 C1596 1.399 . S
C1597 C1598 1.376 . S
C1598 H1585 0.930 . S
C1598 C1597 1.376 . S
C1598 C1599 1.388 . S
C1599 H1586 0.930 . S
C1599 C1598 1.388 . S
C1599 C1600 1.390 . S
C1600 C1599 1.390 . S
C1600 C1601 1.394 . S
C1600 C1606 1.465 . S
C1601 C1596 1.399 . S
C1601 C1600 1.394 . S
C1601 C1602 1.516 . S
C1602 C1601 1.516 . S
C1602 C1603 1.502 . S
C1602 C1604 1.561 . S
C1602 C1605 1.526 . S
C1603 H1587 0.959 . S
C1603 H1588 0.959 . S
C1603 H1589 0.961 . S
C1603 C1602 1.502 . S
C1604 H1590 0.960 . S
C1604 H1591 0.961 . S
C1604 H1592 0.959 . S
C1604 C1602 1.561 . S
C1605 C1602 1.526 . S
C1605 C1606 1.396 . S
C1605 C1610 1.390 . S
C1606 C1600 1.465 . S
C1606 C1605 1.396 . S
C1606 C1607 1.399 . S
C1607 H1593 0.929 . S
C1607 C1606 1.399 . S
C1607 C1608 1.385 . S
C1608 H1594 0.931 . S
C1608 C1607 1.385 . S
C1608 C1609 1.389 . S
C1609 C1608 1.389 . S
C1609 C1610 1.387 . S
C1610 H1595 0.930 . S
C1610 C1605 1.390 . S
C1610 C1609 1.387 . S
H1611 C1623 0.930 . S
H1612 C1625 0.930 . S
H1613 C1626 0.930 . S
H1614 C1630 0.959 . S
H1615 C1630 0.959 . S
H1616 C1630 0.961 . S
H1617 C1631 0.960 . S
H1618 C1631 0.961 . S
H1619 C1631 0.959 . S
H1620 C1634 0.929 . S
H1621 C1635 0.931 . S
H1622 C1637 0.930 . S
C1623 H1611 0.930 . S
C1623 C1624 1.399 . S
C1623 C1628 1.399 . S
C1624 C1623 1.399 . S
C1624 C1625 1.376 . S
C1625 H1612 0.930 . S
C1625 C1624 1.376 . S
C1625 C1626 1.388 . S
C1626 H1613 0.930 . S
C1626 C1625 1.388 . S
C1626 C1627 1.390 . S
C1627 C1626 1.390 . S
C1627 C1628 1.394 . S
C1627 C1633 1.465 . S
C1628 C1623 1.399 . S
C1628 C1627 1.394 . S
C1628 C1629 1.516 . S
C1629 C1628 1.516 . S
C1629 C1630 1.502 . S
C1629 C1631 1.561 . S
C1629 C1632 1.526 . S
C1630 H1614 0.959 . S
C1630 H1615 0.959 . S
C1630 H1616 0.961 . S
C1630 C1629 1.502 . S
C1631 H1617 0.960 . S
C1631 H1618 0.961 . S
C1631 H1619 0.959 . S
C1631 C1629 1.561 . S
C1632 C1629 1.526 . S
C1632 C1633 1.396 . S
C1632 C1637 1.390 . S
C1633 C1627 1.465 . S
C1633 C1632 1.396 . S
C1633 C1634 1.399 . S
C1634 H1620 0.929 . S
C1634 C1633 1.399 . S
C1634 C1635 1.385 . S
C1635 H1621 0.931 . S
C1635 C1634 1.385 . S
C1635 C1636 1.389 . S
C1636 C1635 1.389 . S
C1636 C1637 1.387 . S
C1637 H1622 0.930 . S
C1637 C1632 1.390 . S
C1637 C1636 1.387 . S
H1638 C1650 0.930 . S
H1639 C1652 0.930 . S
H1640 C1653 0.930 . S
H1641 C1657 0.959 . S
H1642 C1657 0.959 . S
H1643 C1657 0.954 1_455 S
H1644 C1658 0.960 . S
H1645 C1658 0.961 . S
H1646 C1658 0.959 . S
H1647 C1661 0.929 . S
H1648 C1662 0.931 . S
H1649 C1664 0.930 . S
C1650 H1638 0.930 . S
C1650 C1651 1.399 . S
C1650 C1655 1.399 . S
C1651 C1650 1.399 . S
C1651 C1652 1.376 . S
C1652 H1639 0.930 . S
C1652 C1651 1.376 . S
C1652 C1653 1.388 . S
C1653 H1640 0.930 . S
C1653 C1652 1.388 . S
C1653 C1654 1.390 . S
C1654 C1653 1.390 . S
C1654 C1655 1.394 . S
C1654 C1660 1.465 . S
C1655 C1650 1.399 . S
C1655 C1654 1.394 . S
C1655 C1656 1.516 . S
C1656 C1655 1.516 . S
C1656 C1657 1.502 . S
C1656 C1658 1.561 . S
C1656 C1659 1.526 . S
C1657 H1641 0.959 . S
C1657 H1642 0.959 . S
C1657 H1643 0.954 1_655 S
C1657 C1656 1.502 . S
C1658 H1644 0.960 . S
C1658 H1645 0.961 . S
C1658 H1646 0.959 . S
C1658 C1656 1.561 . S
C1659 C1656 1.526 . S
C1659 C1660 1.396 . S
C1659 C1664 1.390 . S
C1660 C1654 1.465 . S
C1660 C1659 1.396 . S
C1660 C1661 1.399 . S
C1661 H1647 0.929 . S
C1661 C1660 1.399 . S
C1661 C1662 1.385 . S
C1662 H1648 0.931 . S
C1662 C1661 1.385 . S
C1662 C1663 1.389 . S
C1663 C1662 1.389 . S
C1663 C1664 1.387 . S
C1664 H1649 0.930 . S
C1664 C1659 1.390 . S
C1664 C1663 1.387 . S
H1665 C1677 0.930 . S
H1666 C1679 0.930 . S
H1667 C1680 0.930 . S
H1668 C1684 0.959 . S
H1669 C1684 0.959 . S
H1670 C1684 0.961 . S
H1671 C1685 0.960 . S
H1672 C1685 0.961 . S
H1673 C1685 0.959 . S
H1674 C1688 0.929 . S
H1675 C1689 0.931 . S
H1676 C1691 0.930 . S
C1677 H1665 0.930 . S
C1677 C1678 1.399 . S
C1677 C1682 1.399 . S
C1678 C1677 1.399 . S
C1678 C1679 1.376 . S
C1679 H1666 0.930 . S
C1679 C1678 1.376 . S
C1679 C1680 1.388 . S
C1680 H1667 0.930 . S
C1680 C1679 1.388 . S
C1680 C1681 1.390 . S
C1681 C1680 1.390 . S
C1681 C1682 1.394 . S
C1681 C1687 1.465 . S
C1682 C1677 1.399 . S
C1682 C1681 1.394 . S
C1682 C1683 1.516 . S
C1683 C1682 1.516 . S
C1683 C1684 1.502 . S
C1683 C1685 1.561 . S
C1683 C1686 1.526 . S
C1684 H1668 0.959 . S
C1684 H1669 0.959 . S
C1684 H1670 0.961 . S
C1684 C1683 1.502 . S
C1685 H1671 0.960 . S
C1685 H1672 0.961 . S
C1685 H1673 0.959 . S
C1685 C1683 1.561 . S
C1686 C1683 1.526 . S
C1686 C1687 1.396 . S
C1686 C1691 1.390 . S
C1687 C1681 1.465 . S
C1687 C1686 1.396 . S
C1687 C1688 1.399 . S
C1688 H1674 0.929 . S
C1688 C1687 1.399 . S
C1688 C1689 1.385 . S
C1689 H1675 0.931 . S
C1689 C1688 1.385 . S
C1689 C1690 1.389 . S
C1690 C1689 1.389 . S
C1690 C1691 1.387 . S
C1691 H1676 0.930 . S
C1691 C1686 1.390 . S
C1691 C1690 1.387 . S
H1692 C1704 0.930 . S
H1693 C1706 0.930 . S
H1694 C1707 0.930 . S
H1695 C1711 0.959 . S
H1696 C1711 0.959 . S
H1697 C1711 0.961 . S
H1698 C1712 0.960 . S
H1699 C1712 0.961 . S
H1700 C1712 0.959 . S
H1701 C1715 0.929 . S
H1702 C1716 0.931 . S
H1703 C1718 0.930 . S
C1704 H1692 0.930 . S
C1704 C1705 1.399 . S
C1704 C1709 1.399 . S
C1705 C1704 1.399 . S
C1705 C1706 1.376 . S
C1706 H1693 0.930 . S
C1706 C1705 1.376 . S
C1706 C1707 1.388 . S
C1707 H1694 0.930 . S
C1707 C1706 1.388 . S
C1707 C1708 1.390 . S
C1708 C1707 1.390 . S
C1708 C1709 1.394 . S
C1708 C1714 1.465 . S
C1709 C1704 1.399 . S
C1709 C1708 1.394 . S
C1709 C1710 1.516 . S
C1710 C1709 1.516 . S
C1710 C1711 1.502 . S
C1710 C1712 1.561 . S
C1710 C1713 1.526 . S
C1711 H1695 0.959 . S
C1711 H1696 0.959 . S
C1711 H1697 0.961 . S
C1711 C1710 1.502 . S
C1712 H1698 0.960 . S
C1712 H1699 0.961 . S
C1712 H1700 0.959 . S
C1712 C1710 1.561 . S
C1713 C1710 1.526 . S
C1713 C1714 1.396 . S
C1713 C1718 1.390 . S
C1714 C1708 1.465 . S
C1714 C1713 1.396 . S
C1714 C1715 1.399 . S
C1715 H1701 0.929 . S
C1715 C1714 1.399 . S
C1715 C1716 1.385 . S
C1716 H1702 0.931 . S
C1716 C1715 1.385 . S
C1716 C1717 1.389 . S
C1717 C1716 1.389 . S
C1717 C1718 1.387 . S
C1718 H1703 0.930 . S
C1718 C1713 1.390 . S
C1718 C1717 1.387 . S
H1719 C1731 0.930 . S
H1720 C1733 0.930 1_655 S
H1721 C1734 0.930 . S
H1722 C1738 0.959 . S
H1723 C1738 0.959 . S
H1724 C1738 0.961 . S
H1725 C1739 0.960 . S
H1726 C1739 0.961 . S
H1727 C1739 0.959 . S
H1728 C1742 0.929 . S
H1729 C1743 0.931 . S
H1730 C1745 0.930 . S
C1731 H1719 0.930 . S
C1731 C1732 1.399 . S
C1731 C1736 1.399 . S
C1732 C1731 1.399 . S
C1732 C1733 1.376 . S
C1733 H1720 0.930 1_455 S
C1733 C1732 1.376 . S
C1733 C1734 1.388 . S
C1734 H1721 0.930 . S
C1734 C1733 1.388 . S
C1734 C1735 1.390 . S
C1735 C1734 1.390 . S
C1735 C1736 1.394 . S
C1735 C1741 1.465 . S
C1736 C1731 1.399 . S
C1736 C1735 1.394 . S
C1736 C1737 1.516 . S
C1737 C1736 1.516 . S
C1737 C1738 1.502 . S
C1737 C1739 1.561 . S
C1737 C1740 1.526 . S
C1738 H1722 0.959 . S
C1738 H1723 0.959 . S
C1738 H1724 0.961 . S
C1738 C1737 1.502 . S
C1739 H1725 0.960 . S
C1739 H1726 0.961 . S
C1739 H1727 0.959 . S
C1739 C1737 1.561 . S
C1740 C1737 1.526 . S
C1740 C1741 1.396 . S
C1740 C1745 1.390 . S
C1741 C1735 1.465 . S
C1741 C1740 1.396 . S
C1741 C1742 1.399 . S
C1742 H1728 0.929 . S
C1742 C1741 1.399 . S
C1742 C1743 1.385 . S
C1743 H1729 0.931 . S
C1743 C1742 1.385 . S
C1743 C1744 1.389 . S
C1744 C1743 1.389 . S
C1744 C1745 1.387 . S
C1745 H1730 0.930 . S
C1745 C1740 1.390 . S
C1745 C1744 1.387 . S
H1746 C1758 0.930 . S
H1747 C1760 0.930 . S
H1748 C1761 0.930 . S
H1749 C1765 0.959 . S
H1750 C1765 0.959 . S
H1751 C1765 0.961 . S
H1752 C1766 0.960 . S
H1753 C1766 0.961 . S
H1754 C1766 0.959 . S
H1755 C1769 0.963 . S
H1756 C1770 0.931 1_455 S
H1757 C1772 0.930 . S
C1758 H1746 0.930 . S
C1758 C1759 1.399 . S
C1758 C1763 1.399 . S
C1759 C1758 1.399 . S
C1759 C1760 1.376 . S
C1760 H1747 0.930 . S
C1760 C1759 1.376 . S
C1760 C1761 1.388 . S
C1761 H1748 0.930 . S
C1761 C1760 1.388 . S
C1761 C1762 1.390 . S
C1762 C1761 1.390 . S
C1762 C1763 1.394 . S
C1762 C1768 1.465 . S
C1763 C1758 1.399 . S
C1763 C1762 1.394 . S
C1763 C1764 1.516 . S
C1764 C1763 1.516 . S
C1764 C1765 1.502 . S
C1764 C1766 1.561 . S
C1764 C1767 1.526 . S
C1765 H1749 0.959 . S
C1765 H1750 0.959 . S
C1765 H1751 0.961 . S
C1765 C1764 1.502 . S
C1766 H1752 0.960 . S
C1766 H1753 0.961 . S
C1766 H1754 0.959 . S
C1766 C1764 1.561 . S
C1767 C1764 1.526 . S
C1767 C1768 1.396 . S
C1767 C1772 1.390 . S
C1768 C1762 1.465 . S
C1768 C1767 1.396 . S
C1768 C1769 1.399 . S
C1769 H1755 0.963 . S
C1769 C1768 1.399 . S
C1769 C1770 1.385 . S
C1770 H1756 0.931 1_655 S
C1770 C1769 1.385 . S
C1770 C1771 1.389 . S
C1771 C1770 1.389 . S
C1771 C1772 1.387 . S
C1772 H1757 0.930 . S
C1772 C1767 1.390 . S
C1772 C1771 1.387 . S
H1773 C1785 0.930 . S
H1774 C1787 0.930 1_455 S
H1775 C1788 0.930 . S
H1776 C1792 0.959 . S
H1777 C1792 0.959 . S
H1778 C1792 0.961 . S
H1779 C1793 0.960 . S
H1780 C1793 0.961 . S
H1781 C1793 0.959 . S
H1782 C1796 0.929 . S
H1783 C1797 0.931 . S
H1784 C1799 0.930 . S
C1785 H1773 0.930 . S
C1785 C1786 1.399 . S
C1785 C1790 1.399 . S
C1786 C1785 1.399 . S
C1786 C1787 1.376 . S
C1787 H1774 0.930 1_655 S
C1787 C1786 1.376 . S
C1787 C1788 1.388 . S
C1788 H1775 0.930 . S
C1788 C1787 1.388 . S
C1788 C1789 1.390 . S
C1789 C1788 1.390 . S
C1789 C1790 1.394 . S
C1789 C1795 1.465 . S
C1790 C1785 1.399 . S
C1790 C1789 1.394 . S
C1790 C1791 1.516 . S
C1791 C1790 1.516 . S
C1791 C1792 1.502 . S
C1791 C1793 1.561 . S
C1791 C1794 1.526 . S
C1792 H1776 0.959 . S
C1792 H1777 0.959 . S
C1792 H1778 0.961 . S
C1792 C1791 1.502 . S
C1793 H1779 0.960 . S
C1793 H1780 0.961 . S
C1793 H1781 0.959 . S
C1793 C1791 1.561 . S
C1794 C1791 1.526 . S
C1794 C1795 1.396 . S
C1794 C1799 1.390 . S
C1795 C1789 1.465 . S
C1795 C1794 1.396 . S
C1795 C1796 1.399 . S
C1796 H1782 0.929 . S
C1796 C1795 1.399 . S
C1796 C1797 1.385 . S
C1797 H1783 0.931 . S
C1797 C1796 1.385 . S
C1797 C1798 1.389 . S
C1798 C1797 1.389 . S
C1798 C1799 1.387 . S
C1799 H1784 0.930 . S
C1799 C1794 1.390 . S
C1799 C1798 1.387 . S
H1800 C1812 0.930 . S
H1801 C1814 0.930 1_565 S
H1802 C1815 0.930 . S
H1803 C1819 0.959 . S
H1804 C1819 0.959 . S
H1805 C1819 0.961 . S
H1806 C1820 0.960 . S
H1807 C1820 0.961 . S
H1808 C1820 0.959 . S
H1809 C1823 0.929 . S
H1810 C1824 0.931 . S
H1811 C1826 0.930 . S
C1812 H1800 0.930 . S
C1812 C1813 1.399 . S
C1812 C1817 1.399 . S
C1813 C1812 1.399 . S
C1813 C1814 1.376 . S
C1814 H1801 0.930 1_545 S
C1814 C1813 1.376 . S
C1814 C1815 1.388 . S
C1815 H1802 0.930 . S
C1815 C1814 1.388 . S
C1815 C1816 1.390 . S
C1816 C1815 1.390 . S
C1816 C1817 1.394 . S
C1816 C1822 1.465 . S
C1817 C1812 1.399 . S
C1817 C1816 1.394 . S
C1817 C1818 1.516 . S
C1818 C1817 1.516 . S
C1818 C1819 1.502 . S
C1818 C1820 1.561 . S
C1818 C1821 1.526 . S
C1819 H1803 0.959 . S
C1819 H1804 0.959 . S
C1819 H1805 0.961 . S
C1819 C1818 1.502 . S
C1820 H1806 0.960 . S
C1820 H1807 0.961 . S
C1820 H1808 0.959 . S
C1820 C1818 1.561 . S
C1821 C1818 1.526 . S
C1821 C1822 1.396 . S
C1821 C1826 1.390 . S
C1822 C1816 1.465 . S
C1822 C1821 1.396 . S
C1822 C1823 1.399 . S
C1823 H1809 0.929 . S
C1823 C1822 1.399 . S
C1823 C1824 1.385 . S
C1824 H1810 0.931 . S
C1824 C1823 1.385 . S
C1824 C1825 1.389 . S
C1825 C1824 1.389 . S
C1825 C1826 1.387 . S
C1826 H1811 0.930 . S
C1826 C1821 1.390 . S
C1826 C1825 1.387 . S
H1827 C1839 0.930 . S
H1828 C1841 0.930 . S
H1829 C1842 0.930 . S
H1830 C1846 0.959 . S
H1831 C1846 0.959 . S
H1832 C1846 0.961 . S
H1833 C1847 0.960 . S
H1834 C1847 0.961 . S
H1835 C1847 0.959 . S
H1836 C1850 0.929 . S
H1837 C1851 0.931 . S
H1838 C1853 0.930 . S
C1839 H1827 0.930 . S
C1839 C1840 1.399 . S
C1839 C1844 1.399 . S
C1840 C1839 1.399 . S
C1840 C1841 1.376 . S
C1841 H1828 0.930 . S
C1841 C1840 1.376 . S
C1841 C1842 1.388 . S
C1842 H1829 0.930 . S
C1842 C1841 1.388 . S
C1842 C1843 1.390 . S
C1843 C1842 1.390 . S
C1843 C1844 1.394 . S
C1843 C1849 1.465 . S
C1844 C1839 1.399 . S
C1844 C1843 1.394 . S
C1844 C1845 1.516 . S
C1845 C1844 1.516 . S
C1845 C1846 1.502 . S
C1845 C1847 1.561 . S
C1845 C1848 1.526 . S
C1846 H1830 0.959 . S
C1846 H1831 0.959 . S
C1846 H1832 0.961 . S
C1846 C1845 1.502 . S
C1847 H1833 0.960 . S
C1847 H1834 0.961 . S
C1847 H1835 0.959 . S
C1847 C1845 1.561 . S
C1848 C1845 1.526 . S
C1848 C1849 1.396 . S
C1848 C1853 1.390 . S
C1849 C1843 1.465 . S
C1849 C1848 1.396 . S
C1849 C1850 1.399 . S
C1850 H1836 0.929 . S
C1850 C1849 1.399 . S
C1850 C1851 1.385 . S
C1851 H1837 0.931 . S
C1851 C1850 1.385 . S
C1851 C1852 1.389 . S
C1852 C1851 1.389 . S
C1852 C1853 1.387 . S
C1853 H1838 0.930 . S
C1853 C1848 1.390 . S
C1853 C1852 1.387 . S
H1854 C1866 0.930 . S
H1855 C1868 0.930 . S
H1856 C1869 0.930 . S
H1857 C1873 0.959 . S
H1858 C1873 0.959 . S
H1859 C1873 0.961 . S
H1860 C1874 0.960 . S
H1861 C1874 0.961 . S
H1862 C1874 0.959 . S
H1863 C1877 0.929 . S
H1864 C1878 0.931 . S
H1865 C1880 0.930 . S
C1866 H1854 0.930 . S
C1866 C1867 1.399 . S
C1866 C1871 1.399 . S
C1867 C1866 1.399 . S
C1867 C1868 1.376 . S
C1868 H1855 0.930 . S
C1868 C1867 1.376 . S
C1868 C1869 1.388 . S
C1869 H1856 0.930 . S
C1869 C1868 1.388 . S
C1869 C1870 1.390 . S
C1870 C1869 1.390 . S
C1870 C1871 1.394 . S
C1870 C1876 1.465 . S
C1871 C1866 1.399 . S
C1871 C1870 1.394 . S
C1871 C1872 1.516 . S
C1872 C1871 1.516 . S
C1872 C1873 1.502 . S
C1872 C1874 1.561 . S
C1872 C1875 1.526 . S
C1873 H1857 0.959 . S
C1873 H1858 0.959 . S
C1873 H1859 0.961 . S
C1873 C1872 1.502 . S
C1874 H1860 0.960 . S
C1874 H1861 0.961 . S
C1874 H1862 0.959 . S
C1874 C1872 1.561 . S
C1875 C1872 1.526 . S
C1875 C1876 1.396 . S
C1875 C1880 1.390 . S
C1876 C1870 1.465 . S
C1876 C1875 1.396 . S
C1876 C1877 1.399 . S
C1877 H1863 0.929 . S
C1877 C1876 1.399 . S
C1877 C1878 1.385 . S
C1878 H1864 0.931 . S
C1878 C1877 1.385 . S
C1878 C1879 1.389 . S
C1879 C1878 1.389 . S
C1879 C1880 1.387 . S
C1880 H1865 0.930 . S
C1880 C1875 1.390 . S
C1880 C1879 1.387 . S
H1881 C1893 0.930 . S
H1882 C1895 0.930 1_556 S
H1883 C1896 0.930 . S
H1884 C1900 0.959 . S
H1885 C1900 0.959 . S
H1886 C1900 0.961 . S
H1887 C1901 0.960 . S
H1888 C1901 0.961 . S
H1889 C1901 0.959 . S
H1890 C1904 0.929 . S
H1891 C1905 0.931 . S
H1892 C1907 0.930 . S
C1893 H1881 0.930 . S
C1893 C1894 1.399 . S
C1893 C1898 1.399 . S
C1894 C1893 1.399 . S
C1894 C1895 1.376 . S
C1895 H1882 0.930 1_554 S
C1895 C1894 1.376 . S
C1895 C1896 1.388 . S
C1896 H1883 0.930 . S
C1896 C1895 1.388 . S
C1896 C1897 1.390 . S
C1897 C1896 1.390 . S
C1897 C1898 1.394 . S
C1897 C1903 1.465 . S
C1898 C1893 1.399 . S
C1898 C1897 1.394 . S
C1898 C1899 1.516 . S
C1899 C1898 1.516 . S
C1899 C1900 1.502 . S
C1899 C1901 1.561 . S
C1899 C1902 1.526 . S
C1900 H1884 0.959 . S
C1900 H1885 0.959 . S
C1900 H1886 0.961 . S
C1900 C1899 1.502 . S
C1901 H1887 0.960 . S
C1901 H1888 0.961 . S
C1901 H1889 0.959 . S
C1901 C1899 1.561 . S
C1902 C1899 1.526 . S
C1902 C1903 1.396 . S
C1902 C1907 1.390 . S
C1903 C1897 1.465 . S
C1903 C1902 1.396 . S
C1903 C1904 1.399 . S
C1904 H1890 0.929 . S
C1904 C1903 1.399 . S
C1904 C1905 1.385 . S
C1905 H1891 0.931 . S
C1905 C1904 1.385 . S
C1905 C1906 1.389 . S
C1906 C1905 1.389 . S
C1906 C1907 1.387 . S
C1907 H1892 0.930 . S
C1907 C1902 1.390 . S
C1907 C1906 1.387 . S
H1908 C1920 0.930 . S
H1909 C1922 0.930 . S
H1910 C1923 0.930 . S
H1911 C1927 0.959 . S
H1912 C1927 0.959 . S
H1913 C1927 0.961 1_545 S
H1914 C1928 0.960 . S
H1915 C1928 0.961 . S
H1916 C1928 0.959 . S
H1917 C1931 0.929 . S
H1918 C1932 0.931 . S
H1919 C1934 0.930 . S
C1920 H1908 0.930 . S
C1920 C1921 1.399 . S
C1920 C1925 1.399 . S
C1921 C1920 1.399 . S
C1921 C1922 1.376 . S
C1922 H1909 0.930 . S
C1922 C1921 1.376 . S
C1922 C1923 1.388 . S
C1923 H1910 0.930 . S
C1923 C1922 1.388 . S
C1923 C1924 1.390 . S
C1924 C1923 1.390 . S
C1924 C1925 1.394 . S
C1924 C1930 1.465 . S
C1925 C1920 1.399 . S
C1925 C1924 1.394 . S
C1925 C1926 1.516 . S
C1926 C1925 1.516 . S
C1926 C1927 1.502 . S
C1926 C1928 1.561 . S
C1926 C1929 1.526 . S
C1927 H1911 0.959 . S
C1927 H1912 0.959 . S
C1927 H1913 0.961 1_565 S
C1927 C1926 1.502 . S
C1928 H1914 0.960 . S
C1928 H1915 0.961 . S
C1928 H1916 0.959 . S
C1928 C1926 1.561 . S
C1929 C1926 1.526 . S
C1929 C1930 1.396 . S
C1929 C1934 1.390 . S
C1930 C1924 1.465 . S
C1930 C1929 1.396 . S
C1930 C1931 1.399 . S
C1931 H1917 0.929 . S
C1931 C1930 1.399 . S
C1931 C1932 1.385 . S
C1932 H1918 0.931 . S
C1932 C1931 1.385 . S
C1932 C1933 1.389 . S
C1933 C1932 1.389 . S
C1933 C1934 1.387 . S
C1934 H1919 0.930 . S
C1934 C1929 1.390 . S
C1934 C1933 1.387 . S
H1935 C1947 0.930 . S
H1936 C1949 0.930 . S
H1937 C1950 0.930 . S
H1938 C1954 0.959 . S
H1939 C1954 0.959 . S
H1940 C1954 0.961 . S
H1941 C1955 0.960 . S
H1942 C1955 0.961 . S
H1943 C1955 0.959 . S
H1944 C1958 0.929 . S
H1945 C1959 0.931 . S
H1946 C1961 0.930 . S
C1947 H1935 0.930 . S
C1947 C1948 1.399 . S
C1947 C1952 1.399 . S
C1948 C1947 1.399 . S
C1948 C1949 1.376 . S
C1949 H1936 0.930 . S
C1949 C1948 1.376 . S
C1949 C1950 1.388 . S
C1950 H1937 0.930 . S
C1950 C1949 1.388 . S
C1950 C1951 1.390 . S
C1951 C1950 1.390 . S
C1951 C1952 1.394 . S
C1951 C1957 1.465 . S
C1952 C1947 1.399 . S
C1952 C1951 1.394 . S
C1952 C1953 1.516 . S
C1953 C1952 1.516 . S
C1953 C1954 1.502 . S
C1953 C1955 1.561 . S
C1953 C1956 1.526 . S
C1954 H1938 0.959 . S
C1954 H1939 0.959 . S
C1954 H1940 0.961 . S
C1954 C1953 1.502 . S
C1955 H1941 0.960 . S
C1955 H1942 0.961 . S
C1955 H1943 0.959 . S
C1955 C1953 1.561 . S
C1956 C1953 1.526 . S
C1956 C1957 1.396 . S
C1956 C1961 1.390 . S
C1957 C1951 1.465 . S
C1957 C1956 1.396 . S
C1957 C1958 1.399 . S
C1958 H1944 0.929 . S
C1958 C1957 1.399 . S
C1958 C1959 1.385 . S
C1959 H1945 0.931 . S
C1959 C1958 1.385 . S
C1959 C1960 1.389 . S
C1960 C1959 1.389 . S
C1960 C1961 1.387 . S
C1961 H1946 0.930 . S
C1961 C1956 1.390 . S
C1961 C1960 1.387 . S
H1962 C1974 0.930 . S
H1963 C1976 0.930 . S
H1964 C1977 0.930 . S
H1965 C1981 0.959 . S
H1966 C1981 0.959 . S
H1967 C1981 0.961 . S
H1968 C1982 0.960 . S
H1969 C1982 0.961 . S
H1970 C1982 0.959 . S
H1971 C1985 0.929 . S
H1972 C1986 0.931 . S
H1973 C1988 0.930 . S
C1974 H1962 0.930 . S
C1974 C1975 1.399 . S
C1974 C1979 1.399 . S
C1975 C1974 1.399 . S
C1975 C1976 1.376 . S
C1976 H1963 0.930 . S
C1976 C1975 1.376 . S
C1976 C1977 1.388 . S
C1977 H1964 0.930 . S
C1977 C1976 1.388 . S
C1977 C1978 1.390 . S
C1978 C1977 1.390 . S
C1978 C1979 1.394 . S
C1978 C1984 1.465 . S
C1979 C1974 1.399 . S
C1979 C1978 1.394 . S
C1979 C1980 1.516 . S
C1980 C1979 1.516 . S
C1980 C1981 1.502 . S
C1980 C1982 1.561 . S
C1980 C1983 1.526 . S
C1981 H1965 0.959 . S
C1981 H1966 0.959 . S
C1981 H1967 0.961 . S
C1981 C1980 1.502 . S
C1982 H1968 0.960 . S
C1982 H1969 0.961 . S
C1982 H1970 0.959 . S
C1982 C1980 1.561 . S
C1983 C1980 1.526 . S
C1983 C1984 1.396 . S
C1983 C1988 1.390 . S
C1984 C1978 1.465 . S
C1984 C1983 1.396 . S
C1984 C1985 1.399 . S
C1985 H1971 0.929 . S
C1985 C1984 1.399 . S
C1985 C1986 1.385 . S
C1986 H1972 0.931 . S
C1986 C1985 1.385 . S
C1986 C1987 1.389 . S
C1987 C1986 1.389 . S
C1987 C1988 1.387 . S
C1988 H1973 0.930 . S
C1988 C1983 1.390 . S
C1988 C1987 1.387 . S
H1989 C2001 0.930 1_554 S
H1990 C2003 0.930 . S
H1991 C2004 0.930 . S
H1992 C2008 0.959 . S
H1993 C2008 0.959 . S
H1994 C2008 0.961 1_554 S
H1995 C2009 0.960 . S
H1996 C2009 0.961 . S
H1997 C2009 0.959 . S
H1998 C2012 0.929 . S
H1999 C2013 0.931 . S
H2000 C2015 0.930 . S
C2001 H1989 0.930 1_556 S
C2001 C2002 1.399 . S
C2001 C2006 1.399 . S
C2002 C2001 1.399 . S
C2002 C2003 1.376 . S
C2003 H1990 0.930 . S
C2003 C2002 1.376 . S
C2003 C2004 1.388 . S
C2004 H1991 0.930 . S
C2004 C2003 1.388 . S
C2004 C2005 1.390 . S
C2005 C2004 1.390 . S
C2005 C2006 1.394 . S
C2005 C2011 1.465 . S
C2006 C2001 1.399 . S
C2006 C2005 1.394 . S
C2006 C2007 1.516 . S
C2007 C2006 1.516 . S
C2007 C2008 1.502 . S
C2007 C2009 1.561 . S
C2007 C2010 1.526 . S
C2008 H1992 0.959 . S
C2008 H1993 0.959 . S
C2008 H1994 0.961 1_556 S
C2008 C2007 1.502 . S
C2009 H1995 0.960 . S
C2009 H1996 0.961 . S
C2009 H1997 0.959 . S
C2009 C2007 1.561 . S
C2010 C2007 1.526 . S
C2010 C2011 1.396 . S
C2010 C2015 1.390 . S
C2011 C2005 1.465 . S
C2011 C2010 1.396 . S
C2011 C2012 1.399 . S
C2012 H1998 0.929 . S
C2012 C2011 1.399 . S
C2012 C2013 1.385 . S
C2013 H1999 0.931 . S
C2013 C2012 1.385 . S
C2013 C2014 1.389 . S
C2014 C2013 1.389 . S
C2014 C2015 1.387 . S
C2015 H2000 0.930 . S
C2015 C2010 1.390 . S
C2015 C2014 1.387 . S
H2016 C2028 0.930 . S
H2017 C2030 0.930 . S
H2018 C2031 0.930 . S
H2019 C2035 0.959 . S
H2020 C2035 0.959 1_556 S
H2021 C2035 0.961 . S
H2022 C2036 0.960 . S
H2023 C2036 0.961 . S
H2024 C2036 0.959 . S
H2025 C2039 0.929 . S
H2026 C2040 0.931 . S
H2027 C2042 0.930 . S
C2028 H2016 0.930 . S
C2028 C2029 1.399 . S
C2028 C2033 1.399 . S
C2029 C2028 1.399 . S
C2029 C2030 1.376 . S
C2030 H2017 0.930 . S
C2030 C2029 1.376 . S
C2030 C2031 1.388 . S
C2031 H2018 0.930 . S
C2031 C2030 1.388 . S
C2031 C2032 1.390 . S
C2032 C2031 1.390 . S
C2032 C2033 1.394 . S
C2032 C2038 1.465 . S
C2033 C2028 1.399 . S
C2033 C2032 1.394 . S
C2033 C2034 1.516 . S
C2034 C2033 1.516 . S
C2034 C2035 1.502 . S
C2034 C2036 1.561 . S
C2034 C2037 1.526 . S
C2035 H2019 0.959 . S
C2035 H2020 0.959 1_554 S
C2035 H2021 0.961 . S
C2035 C2034 1.502 . S
C2036 H2022 0.960 . S
C2036 H2023 0.961 . S
C2036 H2024 0.959 . S
C2036 C2034 1.561 . S
C2037 C2034 1.526 . S
C2037 C2038 1.396 . S
C2037 C2042 1.390 . S
C2038 C2032 1.465 . S
C2038 C2037 1.396 . S
C2038 C2039 1.399 . S
C2039 H2025 0.929 . S
C2039 C2038 1.399 . S
C2039 C2040 1.385 . S
C2040 H2026 0.931 . S
C2040 C2039 1.385 . S
C2040 C2041 1.389 . S
C2041 C2040 1.389 . S
C2041 C2042 1.387 . S
C2042 H2027 0.930 . S
C2042 C2037 1.390 . S
C2042 C2041 1.387 . S
H2043 C2055 0.930 . S
H2044 C2057 0.930 . S
H2045 C2058 0.930 . S
H2046 C2062 0.959 . S
H2047 C2062 0.959 . S
H2048 C2062 0.961 . S
H2049 C2063 0.960 . S
H2050 C2063 0.961 . S
H2051 C2063 0.959 . S
H2052 C2066 0.929 . S
H2053 C2067 0.931 . S
H2054 C2069 0.930 . S
C2055 H2043 0.930 . S
C2055 C2056 1.399 . S
C2055 C2060 1.399 . S
C2056 C2055 1.399 . S
C2056 C2057 1.376 . S
C2057 H2044 0.930 . S
C2057 C2056 1.376 . S
C2057 C2058 1.388 . S
C2058 H2045 0.930 . S
C2058 C2057 1.388 . S
C2058 C2059 1.390 . S
C2059 C2058 1.390 . S
C2059 C2060 1.394 . S
C2059 C2065 1.465 . S
C2060 C2055 1.399 . S
C2060 C2059 1.394 . S
C2060 C2061 1.516 . S
C2061 C2060 1.516 . S
C2061 C2062 1.502 . S
C2061 C2063 1.561 . S
C2061 C2064 1.526 . S
C2062 H2046 0.959 . S
C2062 H2047 0.959 . S
C2062 H2048 0.961 . S
C2062 C2061 1.502 . S
C2063 H2049 0.960 . S
C2063 H2050 0.961 . S
C2063 H2051 0.959 . S
C2063 C2061 1.561 . S
C2064 C2061 1.526 . S
C2064 C2065 1.396 . S
C2064 C2069 1.390 . S
C2065 C2059 1.465 . S
C2065 C2064 1.396 . S
C2065 C2066 1.399 . S
C2066 H2052 0.929 . S
C2066 C2065 1.399 . S
C2066 C2067 1.385 . S
C2067 H2053 0.931 . S
C2067 C2066 1.385 . S
C2067 C2068 1.389 . S
C2068 C2067 1.389 . S
C2068 C2069 1.387 . S
C2069 H2054 0.930 . S
C2069 C2064 1.390 . S
C2069 C2068 1.387 . S
H2070 C2082 0.930 . S
H2071 C2084 0.930 . S
H2072 C2085 0.930 . S
H2073 C2089 0.959 . S
H2074 C2089 0.959 . S
H2075 C2089 0.961 . S
H2076 C2090 0.960 . S
H2077 C2090 0.961 . S
H2078 C2090 0.959 . S
H2079 C2093 0.929 . S
H2080 C2094 0.931 . S
H2081 C2096 0.930 . S
C2082 H2070 0.930 . S
C2082 C2083 1.399 . S
C2082 C2087 1.399 . S
C2083 C2082 1.399 . S
C2083 C2084 1.376 . S
C2084 H2071 0.930 . S
C2084 C2083 1.376 . S
C2084 C2085 1.388 . S
C2085 H2072 0.930 . S
C2085 C2084 1.388 . S
C2085 C2086 1.390 . S
C2086 C2085 1.390 . S
C2086 C2087 1.394 . S
C2086 C2092 1.465 . S
C2087 C2082 1.399 . S
C2087 C2086 1.394 . S
C2087 C2088 1.516 . S
C2088 C2087 1.516 . S
C2088 C2089 1.502 . S
C2088 C2090 1.561 . S
C2088 C2091 1.526 . S
C2089 H2073 0.959 . S
C2089 H2074 0.959 . S
C2089 H2075 0.961 . S
C2089 C2088 1.502 . S
C2090 H2076 0.960 . S
C2090 H2077 0.961 . S
C2090 H2078 0.959 . S
C2090 C2088 1.561 . S
C2091 C2088 1.526 . S
C2091 C2092 1.396 . S
C2091 C2096 1.390 . S
C2092 C2086 1.465 . S
C2092 C2091 1.396 . S
C2092 C2093 1.399 . S
C2093 H2079 0.929 . S
C2093 C2092 1.399 . S
C2093 C2094 1.385 . S
C2094 H2080 0.931 . S
C2094 C2093 1.385 . S
C2094 C2095 1.389 . S
C2095 C2094 1.389 . S
C2095 C2096 1.387 . S
C2096 H2081 0.930 . S
C2096 C2091 1.390 . S
C2096 C2095 1.387 . S
H2097 C2109 0.930 . S
H2098 C2111 0.930 . S
H2099 C2112 0.930 . S
H2100 C2116 0.959 . S
H2101 C2116 0.959 . S
H2102 C2116 0.961 . S
H2103 C2117 0.960 . S
H2104 C2117 0.961 . S
H2105 C2117 0.959 . S
H2106 C2120 0.929 . S
H2107 C2121 0.931 . S
H2108 C2123 0.930 . S
C2109 H2097 0.930 . S
C2109 C2110 1.399 . S
C2109 C2114 1.399 . S
C2110 C2109 1.399 . S
C2110 C2111 1.376 . S
C2111 H2098 0.930 . S
C2111 C2110 1.376 . S
C2111 C2112 1.388 . S
C2112 H2099 0.930 . S
C2112 C2111 1.388 . S
C2112 C2113 1.390 . S
C2113 C2112 1.390 . S
C2113 C2114 1.394 . S
C2113 C2119 1.465 . S
C2114 C2109 1.399 . S
C2114 C2113 1.394 . S
C2114 C2115 1.516 . S
C2115 C2114 1.516 . S
C2115 C2116 1.502 . S
C2115 C2117 1.561 . S
C2115 C2118 1.526 . S
C2116 H2100 0.959 . S
C2116 H2101 0.959 . S
C2116 H2102 0.961 . S
C2116 C2115 1.502 . S
C2117 H2103 0.960 . S
C2117 H2104 0.961 . S
C2117 H2105 0.959 . S
C2117 C2115 1.561 . S
C2118 C2115 1.526 . S
C2118 C2119 1.396 . S
C2118 C2123 1.390 . S
C2119 C2113 1.465 . S
C2119 C2118 1.396 . S
C2119 C2120 1.399 . S
C2120 H2106 0.929 . S
C2120 C2119 1.399 . S
C2120 C2121 1.385 . S
C2121 H2107 0.931 . S
C2121 C2120 1.385 . S
C2121 C2122 1.389 . S
C2122 C2121 1.389 . S
C2122 C2123 1.387 . S
C2123 H2108 0.930 . S
C2123 C2118 1.390 . S
C2123 C2122 1.387 . S
H2124 C2136 0.930 . S
H2125 C2138 0.930 . S
H2126 C2139 0.930 . S
H2127 C2143 0.959 . S
H2128 C2143 0.959 . S
H2129 C2143 0.961 . S
H2130 C2144 0.960 . S
H2131 C2144 0.961 . S
H2132 C2144 0.959 . S
H2133 C2147 0.929 . S
H2134 C2148 0.931 . S
H2135 C2150 0.930 . S
C2136 H2124 0.930 . S
C2136 C2137 1.399 . S
C2136 C2141 1.399 . S
C2137 C2136 1.399 . S
C2137 C2138 1.376 . S
C2138 H2125 0.930 . S
C2138 C2137 1.376 . S
C2138 C2139 1.388 . S
C2139 H2126 0.930 . S
C2139 C2138 1.388 . S
C2139 C2140 1.390 . S
C2140 C2139 1.390 . S
C2140 C2141 1.394 . S
C2140 C2146 1.465 . S
C2141 C2136 1.399 . S
C2141 C2140 1.394 . S
C2141 C2142 1.516 . S
C2142 C2141 1.516 . S
C2142 C2143 1.502 . S
C2142 C2144 1.561 . S
C2142 C2145 1.526 . S
C2143 H2127 0.959 . S
C2143 H2128 0.959 . S
C2143 H2129 0.961 . S
C2143 C2142 1.502 . S
C2144 H2130 0.960 . S
C2144 H2131 0.961 . S
C2144 H2132 0.959 . S
C2144 C2142 1.561 . S
C2145 C2142 1.526 . S
C2145 C2146 1.396 . S
C2145 C2150 1.390 . S
C2146 C2140 1.465 . S
C2146 C2145 1.396 . S
C2146 C2147 1.399 . S
C2147 H2133 0.929 . S
C2147 C2146 1.399 . S
C2147 C2148 1.385 . S
C2148 H2134 0.931 . S
C2148 C2147 1.385 . S
C2148 C2149 1.389 . S
C2149 C2148 1.389 . S
C2149 C2150 1.387 . S
C2150 H2135 0.930 . S
C2150 C2145 1.390 . S
C2150 C2149 1.387 . S
H2151 C2163 0.930 . S
H2152 C2165 0.930 . S
H2153 C2166 0.930 . S
H2154 C2170 0.959 . S
H2155 C2170 0.959 . S
H2156 C2170 0.961 . S
H2157 C2171 0.960 . S
H2158 C2171 0.961 . S
H2159 C2171 0.959 . S
H2160 C2174 0.929 . S
H2161 C2175 0.931 . S
H2162 C2177 0.930 . S
C2163 H2151 0.930 . S
C2163 C2164 1.399 . S
C2163 C2168 1.399 . S
C2164 C2163 1.399 . S
C2164 C2165 1.376 . S
C2165 H2152 0.930 . S
C2165 C2164 1.376 . S
C2165 C2166 1.388 . S
C2166 H2153 0.930 . S
C2166 C2165 1.388 . S
C2166 C2167 1.390 . S
C2167 C2166 1.390 . S
C2167 C2168 1.394 . S
C2167 C2173 1.465 . S
C2168 C2163 1.399 . S
C2168 C2167 1.394 . S
C2168 C2169 1.516 . S
C2169 C2168 1.516 . S
C2169 C2170 1.502 . S
C2169 C2171 1.561 . S
C2169 C2172 1.526 . S
C2170 H2154 0.959 . S
C2170 H2155 0.959 . S
C2170 H2156 0.961 . S
C2170 C2169 1.502 . S
C2171 H2157 0.960 . S
C2171 H2158 0.961 . S
C2171 H2159 0.959 . S
C2171 C2169 1.561 . S
C2172 C2169 1.526 . S
C2172 C2173 1.396 . S
C2172 C2177 1.390 . S
C2173 C2167 1.465 . S
C2173 C2172 1.396 . S
C2173 C2174 1.399 . S
C2174 H2160 0.929 . S
C2174 C2173 1.399 . S
C2174 C2175 1.385 . S
C2175 H2161 0.931 . S
C2175 C2174 1.385 . S
C2175 C2176 1.389 . S
C2176 C2175 1.389 . S
C2176 C2177 1.387 . S
C2177 H2162 0.930 . S
C2177 C2172 1.390 . S
C2177 C2176 1.387 . S
H2178 C2190 0.930 . S
H2179 C2192 0.930 . S
H2180 C2193 0.930 . S
H2181 C2197 0.959 . S
H2182 C2197 0.959 . S
H2183 C2197 0.961 . S
H2184 C2198 0.960 . S
H2185 C2198 0.961 . S
H2186 C2198 0.959 . S
H2187 C2201 0.929 . S
H2188 C2202 0.931 . S
H2189 C2204 0.930 . S
C2190 H2178 0.930 . S
C2190 C2191 1.399 . S
C2190 C2195 1.399 . S
C2191 C2190 1.399 . S
C2191 C2192 1.376 . S
C2192 H2179 0.930 . S
C2192 C2191 1.376 . S
C2192 C2193 1.388 . S
C2193 H2180 0.930 . S
C2193 C2192 1.388 . S
C2193 C2194 1.390 . S
C2194 C2193 1.390 . S
C2194 C2195 1.394 . S
C2194 C2200 1.465 . S
C2195 C2190 1.399 . S
C2195 C2194 1.394 . S
C2195 C2196 1.516 . S
C2196 C2195 1.516 . S
C2196 C2197 1.502 . S
C2196 C2198 1.561 . S
C2196 C2199 1.526 . S
C2197 H2181 0.959 . S
C2197 H2182 0.959 . S
C2197 H2183 0.961 . S
C2197 C2196 1.502 . S
C2198 H2184 0.960 . S
C2198 H2185 0.961 . S
C2198 H2186 0.959 . S
C2198 C2196 1.561 . S
C2199 C2196 1.526 . S
C2199 C2200 1.396 . S
C2199 C2204 1.390 . S
C2200 C2194 1.465 . S
C2200 C2199 1.396 . S
C2200 C2201 1.399 . S
C2201 H2187 0.929 . S
C2201 C2200 1.399 . S
C2201 C2202 1.385 . S
C2202 H2188 0.931 . S
C2202 C2201 1.385 . S
C2202 C2203 1.389 . S
C2203 C2202 1.389 . S
C2203 C2204 1.387 . S
C2204 H2189 0.930 . S
C2204 C2199 1.390 . S
C2204 C2203 1.387 . S
H2205 C2217 0.930 . S
H2206 C2219 0.930 . S
H2207 C2220 0.930 . S
H2208 C2224 0.959 . S
H2209 C2224 0.959 . S
H2210 C2224 0.961 . S
H2211 C2225 0.960 . S
H2212 C2225 0.961 . S
H2213 C2225 0.959 . S
H2214 C2228 0.929 1_565 S
H2215 C2229 0.931 . S
H2216 C2231 0.930 . S
C2217 H2205 0.930 . S
C2217 C2218 1.399 . S
C2217 C2222 1.399 . S
C2218 C2217 1.399 . S
C2218 C2219 1.376 . S
C2219 H2206 0.930 . S
C2219 C2218 1.376 . S
C2219 C2220 1.388 . S
C2220 H2207 0.930 . S
C2220 C2219 1.388 . S
C2220 C2221 1.390 . S
C2221 C2220 1.390 . S
C2221 C2222 1.394 . S
C2221 C2227 1.465 . S
C2222 C2217 1.399 . S
C2222 C2221 1.394 . S
C2222 C2223 1.516 . S
C2223 C2222 1.516 . S
C2223 C2224 1.502 . S
C2223 C2225 1.561 . S
C2223 C2226 1.526 . S
C2224 H2208 0.959 . S
C2224 H2209 0.959 . S
C2224 H2210 0.961 . S
C2224 C2223 1.502 . S
C2225 H2211 0.960 . S
C2225 H2212 0.961 . S
C2225 H2213 0.959 . S
C2225 C2223 1.561 . S
C2226 C2223 1.526 . S
C2226 C2227 1.396 . S
C2226 C2231 1.390 . S
C2227 C2221 1.465 . S
C2227 C2226 1.396 . S
C2227 C2228 1.399 . S
C2228 H2214 0.929 1_545 S
C2228 C2227 1.399 . S
C2228 C2229 1.385 1_545 S
C2229 H2215 0.931 . S
C2229 C2228 1.385 1_565 S
C2229 C2230 1.389 1_565 S
C2230 C2229 1.389 1_545 S
C2230 C2231 1.387 . S
C2231 H2216 0.930 . S
C2231 C2226 1.390 . S
C2231 C2230 1.387 . S
H2232 C2244 0.930 . S
H2233 C2246 0.930 . S
H2234 C2247 0.930 . S
H2235 C2251 0.959 . S
H2236 C2251 0.959 . S
H2237 C2251 0.961 . S
H2238 C2252 0.960 . S
H2239 C2252 0.961 . S
H2240 C2252 0.959 . S
H2241 C2255 0.929 . S
H2242 C2256 0.931 . S
H2243 C2258 0.930 . S
C2244 H2232 0.930 . S
C2244 C2245 1.399 . S
C2244 C2249 1.399 . S
C2245 C2244 1.399 . S
C2245 C2246 1.376 . S
C2246 H2233 0.930 . S
C2246 C2245 1.376 . S
C2246 C2247 1.388 . S
C2247 H2234 0.930 . S
C2247 C2246 1.388 . S
C2247 C2248 1.390 . S
C2248 C2247 1.390 . S
C2248 C2249 1.394 . S
C2248 C2254 1.465 . S
C2249 C2244 1.399 . S
C2249 C2248 1.394 . S
C2249 C2250 1.516 . S
C2250 C2249 1.516 . S
C2250 C2251 1.502 . S
C2250 C2252 1.561 . S
C2250 C2253 1.526 . S
C2251 H2235 0.959 . S
C2251 H2236 0.959 . S
C2251 H2237 0.961 . S
C2251 C2250 1.502 . S
C2252 H2238 0.960 . S
C2252 H2239 0.961 . S
C2252 H2240 0.959 . S
C2252 C2250 1.561 . S
C2253 C2250 1.526 . S
C2253 C2254 1.396 . S
C2253 C2258 1.390 . S
C2254 C2248 1.465 . S
C2254 C2253 1.396 . S
C2254 C2255 1.399 . S
C2255 H2241 0.929 . S
C2255 C2254 1.399 . S
C2255 C2256 1.385 . S
C2256 H2242 0.931 . S
C2256 C2255 1.385 . S
C2256 C2257 1.389 . S
C2257 C2256 1.389 . S
C2257 C2258 1.387 . S
C2258 H2243 0.930 . S
C2258 C2253 1.390 . S
C2258 C2257 1.387 . S
H2259 C2271 0.930 . S
H2260 C2273 0.930 . S
H2261 C2274 0.930 . S
H2262 C2278 0.959 . S
H2263 C2278 0.959 . S
H2264 C2278 0.961 . S
H2265 C2279 0.960 . S
H2266 C2279 0.961 . S
H2267 C2279 0.959 . S
H2268 C2282 0.929 . S
H2269 C2283 0.931 . S
H2270 C2285 0.930 . S
C2271 H2259 0.930 . S
C2271 C2272 1.399 . S
C2271 C2276 1.399 . S
C2272 C2271 1.399 . S
C2272 C2273 1.376 . S
C2273 H2260 0.930 . S
C2273 C2272 1.376 . S
C2273 C2274 1.388 . S
C2274 H2261 0.930 . S
C2274 C2273 1.388 . S
C2274 C2275 1.390 . S
C2275 C2274 1.390 . S
C2275 C2276 1.394 . S
C2275 C2281 1.465 . S
C2276 C2271 1.399 . S
C2276 C2275 1.394 . S
C2276 C2277 1.516 . S
C2277 C2276 1.516 . S
C2277 C2278 1.502 . S
C2277 C2279 1.561 . S
C2277 C2280 1.526 . S
C2278 H2262 0.959 . S
C2278 H2263 0.959 . S
C2278 H2264 0.961 . S
C2278 C2277 1.502 . S
C2279 H2265 0.960 . S
C2279 H2266 0.961 . S
C2279 H2267 0.959 . S
C2279 C2277 1.561 . S
C2280 C2277 1.526 . S
C2280 C2281 1.396 . S
C2280 C2285 1.390 . S
C2281 C2275 1.465 . S
C2281 C2280 1.396 . S
C2281 C2282 1.399 . S
C2282 H2268 0.929 . S
C2282 C2281 1.399 . S
C2282 C2283 1.385 . S
C2283 H2269 0.931 . S
C2283 C2282 1.385 . S
C2283 C2284 1.389 . S
C2284 C2283 1.389 . S
C2284 C2285 1.387 . S
C2285 H2270 0.930 . S
C2285 C2280 1.390 . S
C2285 C2284 1.387 . S
H2286 C2298 0.930 . S
H2287 C2300 0.930 . S
H2288 C2301 0.930 . S
H2289 C2305 0.959 . S
H2290 C2305 0.959 . S
H2291 C2305 0.961 . S
H2292 C2306 0.960 . S
H2293 C2306 0.961 . S
H2294 C2306 0.959 . S
H2295 C2309 0.929 . S
H2296 C2310 0.931 . S
H2297 C2312 0.930 . S
C2298 H2286 0.930 . S
C2298 C2299 1.399 . S
C2298 C2303 1.399 . S
C2299 C2298 1.399 . S
C2299 C2300 1.376 . S
C2300 H2287 0.930 . S
C2300 C2299 1.376 . S
C2300 C2301 1.388 . S
C2301 H2288 0.930 . S
C2301 C2300 1.388 . S
C2301 C2302 1.390 . S
C2302 C2301 1.390 . S
C2302 C2303 1.394 . S
C2302 C2308 1.465 . S
C2303 C2298 1.399 . S
C2303 C2302 1.394 . S
C2303 C2304 1.516 . S
C2304 C2303 1.516 . S
C2304 C2305 1.502 . S
C2304 C2306 1.561 . S
C2304 C2307 1.526 . S
C2305 H2289 0.959 . S
C2305 H2290 0.959 . S
C2305 H2291 0.961 . S
C2305 C2304 1.502 . S
C2306 H2292 0.960 . S
C2306 H2293 0.961 . S
C2306 H2294 0.959 . S
C2306 C2304 1.561 . S
C2307 C2304 1.526 . S
C2307 C2308 1.396 . S
C2307 C2312 1.390 . S
C2308 C2302 1.465 . S
C2308 C2307 1.396 . S
C2308 C2309 1.399 . S
C2309 H2295 0.929 . S
C2309 C2308 1.399 . S
C2309 C2310 1.385 . S
C2310 H2296 0.931 . S
C2310 C2309 1.385 . S
C2310 C2311 1.389 . S
C2311 C2310 1.389 . S
C2311 C2312 1.387 . S
C2312 H2297 0.930 . S
C2312 C2307 1.390 . S
C2312 C2311 1.387 . S
H2313 C2325 0.930 . S
H2314 C2327 0.930 . S
H2315 C2328 0.930 . S
H2316 C2332 0.959 . S
H2317 C2332 0.959 . S
H2318 C2332 0.961 . S
H2319 C2333 0.960 . S
H2320 C2333 0.961 . S
H2321 C2333 0.959 . S
H2322 C2336 0.929 . S
H2323 C2337 0.931 . S
H2324 C2339 0.930 . S
C2325 H2313 0.930 . S
C2325 C2326 1.399 . S
C2325 C2330 1.399 . S
C2326 C2325 1.399 . S
C2326 C2327 1.376 . S
C2327 H2314 0.930 . S
C2327 C2326 1.376 . S
C2327 C2328 1.388 . S
C2328 H2315 0.930 . S
C2328 C2327 1.388 . S
C2328 C2329 1.390 . S
C2329 C2328 1.390 . S
C2329 C2330 1.394 . S
C2329 C2335 1.465 . S
C2330 C2325 1.399 . S
C2330 C2329 1.394 . S
C2330 C2331 1.516 . S
C2331 C2330 1.516 . S
C2331 C2332 1.502 . S
C2331 C2333 1.561 . S
C2331 C2334 1.526 . S
C2332 H2316 0.959 . S
C2332 H2317 0.959 . S
C2332 H2318 0.961 . S
C2332 C2331 1.502 . S
C2333 H2319 0.960 . S
C2333 H2320 0.961 . S
C2333 H2321 0.959 . S
C2333 C2331 1.561 . S
C2334 C2331 1.526 . S
C2334 C2335 1.396 . S
C2334 C2339 1.390 . S
C2335 C2329 1.465 . S
C2335 C2334 1.396 . S
C2335 C2336 1.399 . S
C2336 H2322 0.929 . S
C2336 C2335 1.399 . S
C2336 C2337 1.385 . S
C2337 H2323 0.931 . S
C2337 C2336 1.385 . S
C2337 C2338 1.389 . S
C2338 C2337 1.389 . S
C2338 C2339 1.387 . S
C2339 H2324 0.930 . S
C2339 C2334 1.390 . S
C2339 C2338 1.387 . S
H2340 C2352 0.930 . S
H2341 C2354 0.930 . S
H2342 C2355 0.930 . S
H2343 C2359 0.959 . S
H2344 C2359 0.959 . S
H2345 C2359 0.961 . S
H2346 C2360 0.960 . S
H2347 C2360 0.961 . S
H2348 C2360 0.959 . S
H2349 C2363 0.929 . S
H2350 C2364 0.931 . S
H2351 C2366 0.930 . S
C2352 H2340 0.930 . S
C2352 C2353 1.399 . S
C2352 C2357 1.399 . S
C2353 C2352 1.399 . S
C2353 C2354 1.376 . S
C2354 H2341 0.930 . S
C2354 C2353 1.376 . S
C2354 C2355 1.388 . S
C2355 H2342 0.930 . S
C2355 C2354 1.388 . S
C2355 C2356 1.390 . S
C2356 C2355 1.390 . S
C2356 C2357 1.394 . S
C2356 C2362 1.465 . S
C2357 C2352 1.399 . S
C2357 C2356 1.394 . S
C2357 C2358 1.516 . S
C2358 C2357 1.516 . S
C2358 C2359 1.502 . S
C2358 C2360 1.561 . S
C2358 C2361 1.526 . S
C2359 H2343 0.959 . S
C2359 H2344 0.959 . S
C2359 H2345 0.961 . S
C2359 C2358 1.502 . S
C2360 H2346 0.960 . S
C2360 H2347 0.961 . S
C2360 H2348 0.959 . S
C2360 C2358 1.561 . S
C2361 C2358 1.526 . S
C2361 C2362 1.396 . S
C2361 C2366 1.390 . S
C2362 C2356 1.465 . S
C2362 C2361 1.396 . S
C2362 C2363 1.399 . S
C2363 H2349 0.929 . S
C2363 C2362 1.399 . S
C2363 C2364 1.385 . S
C2364 H2350 0.931 . S
C2364 C2363 1.385 . S
C2364 C2365 1.389 . S
C2365 C2364 1.389 . S
C2365 C2366 1.387 . S
C2366 H2351 0.930 . S
C2366 C2361 1.390 . S
C2366 C2365 1.387 . S
H2367 C2379 0.930 . S
H2368 C2381 0.930 . S
H2369 C2382 0.930 . S
H2370 C2386 0.959 . S
H2371 C2386 0.959 . S
H2372 C2386 0.961 . S
H2373 C2387 0.960 . S
H2374 C2387 0.961 . S
H2375 C2387 0.959 . S
H2376 C2390 0.929 . S
H2377 C2391 0.931 . S
H2378 C2393 0.930 . S
C2379 H2367 0.930 . S
C2379 C2380 1.399 . S
C2379 C2384 1.399 . S
C2380 C2379 1.399 . S
C2380 C2381 1.376 . S
C2381 H2368 0.930 . S
C2381 C2380 1.376 . S
C2381 C2382 1.388 . S
C2382 H2369 0.930 . S
C2382 C2381 1.388 . S
C2382 C2383 1.390 . S
C2383 C2382 1.390 . S
C2383 C2384 1.394 . S
C2383 C2389 1.465 . S
C2384 C2379 1.399 . S
C2384 C2383 1.394 . S
C2384 C2385 1.516 . S
C2385 C2384 1.516 . S
C2385 C2386 1.502 . S
C2385 C2387 1.561 . S
C2385 C2388 1.526 . S
C2386 H2370 0.959 . S
C2386 H2371 0.959 . S
C2386 H2372 0.961 . S
C2386 C2385 1.502 . S
C2387 H2373 0.960 . S
C2387 H2374 0.961 . S
C2387 H2375 0.959 . S
C2387 C2385 1.561 . S
C2388 C2385 1.526 . S
C2388 C2389 1.396 . S
C2388 C2393 1.390 . S
C2389 C2383 1.465 . S
C2389 C2388 1.396 . S
C2389 C2390 1.399 . S
C2390 H2376 0.929 . S
C2390 C2389 1.399 . S
C2390 C2391 1.385 . S
C2391 H2377 0.931 . S
C2391 C2390 1.385 . S
C2391 C2392 1.389 . S
C2392 C2391 1.389 . S
C2392 C2393 1.387 . S
C2393 H2378 0.930 . S
C2393 C2388 1.390 . S
C2393 C2392 1.387 . S
H2394 C2406 0.930 . S
H2395 C2408 0.930 . S
H2396 C2409 0.930 . S
H2397 C2413 0.959 . S
H2398 C2413 0.959 . S
H2399 C2413 0.961 . S
H2400 C2414 0.960 . S
H2401 C2414 0.961 . S
H2402 C2414 0.959 . S
H2403 C2417 0.929 . S
H2404 C2418 0.931 . S
H2405 C2420 0.930 . S
C2406 H2394 0.930 . S
C2406 C2407 1.399 . S
C2406 C2411 1.399 . S
C2407 C2406 1.399 . S
C2407 C2408 1.376 . S
C2408 H2395 0.930 . S
C2408 C2407 1.376 . S
C2408 C2409 1.388 . S
C2409 H2396 0.930 . S
C2409 C2408 1.388 . S
C2409 C2410 1.390 . S
C2410 C2409 1.390 . S
C2410 C2411 1.394 . S
C2410 C2416 1.465 . S
C2411 C2406 1.399 . S
C2411 C2410 1.394 . S
C2411 C2412 1.516 . S
C2412 C2411 1.516 . S
C2412 C2413 1.502 . S
C2412 C2414 1.561 . S
C2412 C2415 1.526 . S
C2413 H2397 0.959 . S
C2413 H2398 0.959 . S
C2413 H2399 0.961 . S
C2413 C2412 1.502 . S
C2414 H2400 0.960 . S
C2414 H2401 0.961 . S
C2414 H2402 0.959 . S
C2414 C2412 1.561 . S
C2415 C2412 1.526 . S
C2415 C2416 1.396 . S
C2415 C2420 1.390 . S
C2416 C2410 1.465 . S
C2416 C2415 1.396 . S
C2416 C2417 1.399 . S
C2417 H2403 0.929 . S
C2417 C2416 1.399 . S
C2417 C2418 1.385 . S
C2418 H2404 0.931 . S
C2418 C2417 1.385 . S
C2418 C2419 1.389 . S
C2419 C2418 1.389 . S
C2419 C2420 1.387 . S
C2420 H2405 0.930 . S
C2420 C2415 1.390 . S
C2420 C2419 1.387 . S
H2421 C2433 0.930 . S
H2422 C2435 0.930 . S
H2423 C2436 0.930 . S
H2424 C2440 0.959 . S
H2425 C2440 0.959 . S
H2426 C2440 0.961 . S
H2427 C2441 0.960 . S
H2428 C2441 0.961 . S
H2429 C2441 0.959 . S
H2430 C2444 0.929 . S
H2431 C2445 0.931 . S
H2432 C2447 0.930 . S
C2433 H2421 0.930 . S
C2433 C2434 1.399 . S
C2433 C2438 1.399 . S
C2434 C2433 1.399 . S
C2434 C2435 1.376 . S
C2435 H2422 0.930 . S
C2435 C2434 1.376 . S
C2435 C2436 1.388 . S
C2436 H2423 0.930 . S
C2436 C2435 1.388 . S
C2436 C2437 1.390 . S
C2437 C2436 1.390 . S
C2437 C2438 1.394 . S
C2437 C2443 1.465 . S
C2438 C2433 1.399 . S
C2438 C2437 1.394 . S
C2438 C2439 1.516 . S
C2439 C2438 1.516 . S
C2439 C2440 1.502 . S
C2439 C2441 1.561 . S
C2439 C2442 1.526 . S
C2440 H2424 0.959 . S
C2440 H2425 0.959 . S
C2440 H2426 0.961 . S
C2440 C2439 1.502 . S
C2441 H2427 0.960 . S
C2441 H2428 0.961 . S
C2441 H2429 0.959 . S
C2441 C2439 1.561 . S
C2442 C2439 1.526 . S
C2442 C2443 1.396 . S
C2442 C2447 1.390 . S
C2443 C2437 1.465 . S
C2443 C2442 1.396 . S
C2443 C2444 1.399 . S
C2444 H2430 0.929 . S
C2444 C2443 1.399 . S
C2444 C2445 1.385 . S
C2445 H2431 0.931 . S
C2445 C2444 1.385 . S
C2445 C2446 1.389 . S
C2446 C2445 1.389 . S
C2446 C2447 1.387 . S
C2447 H2432 0.930 . S
C2447 C2442 1.390 . S
C2447 C2446 1.387 . S
H2448 C2460 0.930 . S
H2449 C2462 0.930 . S
H2450 C2463 0.930 . S
H2451 C2467 0.959 . S
H2452 C2467 0.959 . S
H2453 C2467 0.961 . S
H2454 C2468 0.960 . S
H2455 C2468 0.961 . S
H2456 C2468 0.959 . S
H2457 C2471 0.929 . S
H2458 C2472 0.931 . S
H2459 C2474 0.930 . S
C2460 H2448 0.930 . S
C2460 C2461 1.399 . S
C2460 C2465 1.399 . S
C2461 C2460 1.399 . S
C2461 C2462 1.376 . S
C2462 H2449 0.930 . S
C2462 C2461 1.376 . S
C2462 C2463 1.388 . S
C2463 H2450 0.930 . S
C2463 C2462 1.388 . S
C2463 C2464 1.390 . S
C2464 C2463 1.390 . S
C2464 C2465 1.394 . S
C2464 C2470 1.465 . S
C2465 C2460 1.399 . S
C2465 C2464 1.394 . S
C2465 C2466 1.516 . S
C2466 C2465 1.516 . S
C2466 C2467 1.502 . S
C2466 C2468 1.561 . S
C2466 C2469 1.526 . S
C2467 H2451 0.959 . S
C2467 H2452 0.959 . S
C2467 H2453 0.961 . S
C2467 C2466 1.502 . S
C2468 H2454 0.960 . S
C2468 H2455 0.961 . S
C2468 H2456 0.959 . S
C2468 C2466 1.561 . S
C2469 C2466 1.526 . S
C2469 C2470 1.396 . S
C2469 C2474 1.390 . S
C2470 C2464 1.465 . S
C2470 C2469 1.396 . S
C2470 C2471 1.399 . S
C2471 H2457 0.929 . S
C2471 C2470 1.399 . S
C2471 C2472 1.385 . S
C2472 H2458 0.931 . S
C2472 C2471 1.385 . S
C2472 C2473 1.389 . S
C2473 C2472 1.389 . S
C2473 C2474 1.387 . S
C2474 H2459 0.930 . S
C2474 C2469 1.390 . S
C2474 C2473 1.387 . S
H2475 C2487 0.930 . S
H2476 C2489 0.930 . S
H2477 C2490 0.930 . S
H2478 C2494 0.959 . S
H2479 C2494 0.959 . S
H2480 C2494 0.961 . S
H2481 C2495 0.960 . S
H2482 C2495 0.961 . S
H2483 C2495 0.959 . S
H2484 C2498 0.929 . S
H2485 C2499 0.931 . S
H2486 C2501 0.930 . S
C2487 H2475 0.930 . S
C2487 C2488 1.399 . S
C2487 C2492 1.399 . S
C2488 C2487 1.399 . S
C2488 C2489 1.376 . S
C2489 H2476 0.930 . S
C2489 C2488 1.376 . S
C2489 C2490 1.388 . S
C2490 H2477 0.930 . S
C2490 C2489 1.388 . S
C2490 C2491 1.390 . S
C2491 C2490 1.390 . S
C2491 C2492 1.394 . S
C2491 C2497 1.465 . S
C2492 C2487 1.399 . S
C2492 C2491 1.394 . S
C2492 C2493 1.516 . S
C2493 C2492 1.516 . S
C2493 C2494 1.502 . S
C2493 C2495 1.561 . S
C2493 C2496 1.526 . S
C2494 H2478 0.959 . S
C2494 H2479 0.959 . S
C2494 H2480 0.961 . S
C2494 C2493 1.502 . S
C2495 H2481 0.960 . S
C2495 H2482 0.961 . S
C2495 H2483 0.959 . S
C2495 C2493 1.561 . S
C2496 C2493 1.526 . S
C2496 C2497 1.396 . S
C2496 C2501 1.390 . S
C2497 C2491 1.465 . S
C2497 C2496 1.396 . S
C2497 C2498 1.399 . S
C2498 H2484 0.929 . S
C2498 C2497 1.399 . S
C2498 C2499 1.385 . S
C2499 H2485 0.931 . S
C2499 C2498 1.385 . S
C2499 C2500 1.389 . S
C2500 C2499 1.389 . S
C2500 C2501 1.387 . S
C2501 H2486 0.930 . S
C2501 C2496 1.390 . S
C2501 C2500 1.387 . S
H2502 C2514 0.930 . S
H2503 C2516 0.930 . S
H2504 C2517 0.930 . S
H2505 C2521 0.959 . S
H2506 C2521 0.959 . S
H2507 C2521 0.961 . S
H2508 C2522 0.960 . S
H2509 C2522 0.961 . S
H2510 C2522 0.959 . S
H2511 C2525 0.929 . S
H2512 C2526 0.931 . S
H2513 C2528 0.930 . S
C2514 H2502 0.930 . S
C2514 C2515 1.399 . S
C2514 C2519 1.399 . S
C2515 C2514 1.399 . S
C2515 C2516 1.376 . S
C2516 H2503 0.930 . S
C2516 C2515 1.376 . S
C2516 C2517 1.388 . S
C2517 H2504 0.930 . S
C2517 C2516 1.388 . S
C2517 C2518 1.390 . S
C2518 C2517 1.390 . S
C2518 C2519 1.394 . S
C2518 C2524 1.465 . S
C2519 C2514 1.399 . S
C2519 C2518 1.394 . S
C2519 C2520 1.516 . S
C2520 C2519 1.516 . S
C2520 C2521 1.502 . S
C2520 C2522 1.561 . S
C2520 C2523 1.526 . S
C2521 H2505 0.959 . S
C2521 H2506 0.959 . S
C2521 H2507 0.961 . S
C2521 C2520 1.502 . S
C2522 H2508 0.960 . S
C2522 H2509 0.961 . S
C2522 H2510 0.959 . S
C2522 C2520 1.561 . S
C2523 C2520 1.526 . S
C2523 C2524 1.396 . S
C2523 C2528 1.390 . S
C2524 C2518 1.465 . S
C2524 C2523 1.396 . S
C2524 C2525 1.399 . S
C2525 H2511 0.929 . S
C2525 C2524 1.399 . S
C2525 C2526 1.385 . S
C2526 H2512 0.931 . S
C2526 C2525 1.385 . S
C2526 C2527 1.389 . S
C2527 C2526 1.389 . S
C2527 C2528 1.387 . S
C2528 H2513 0.930 . S
C2528 C2523 1.390 . S
C2528 C2527 1.387 . S
H2529 C2541 0.930 . S
H2530 C2543 0.930 . S
H2531 C2544 0.930 . S
H2532 C2548 0.959 . S
H2533 C2548 0.959 . S
H2534 C2548 0.961 . S
H2535 C2549 0.960 . S
H2536 C2549 0.961 . S
H2537 C2549 0.959 . S
H2538 C2552 0.929 . S
H2539 C2553 0.931 . S
H2540 C2555 0.930 . S
C2541 H2529 0.930 . S
C2541 C2542 1.399 . S
C2541 C2546 1.399 . S
C2542 C2541 1.399 . S
C2542 C2543 1.376 . S
C2543 H2530 0.930 . S
C2543 C2542 1.376 . S
C2543 C2544 1.388 . S
C2544 H2531 0.930 . S
C2544 C2543 1.388 . S
C2544 C2545 1.390 . S
C2545 C2544 1.390 . S
C2545 C2546 1.394 . S
C2545 C2551 1.465 . S
C2546 C2541 1.399 . S
C2546 C2545 1.394 . S
C2546 C2547 1.516 . S
C2547 C2546 1.516 . S
C2547 C2548 1.502 . S
C2547 C2549 1.561 . S
C2547 C2550 1.526 . S
C2548 H2532 0.959 . S
C2548 H2533 0.959 . S
C2548 H2534 0.961 . S
C2548 C2547 1.502 . S
C2549 H2535 0.960 . S
C2549 H2536 0.961 . S
C2549 H2537 0.959 . S
C2549 C2547 1.561 . S
C2550 C2547 1.526 . S
C2550 C2551 1.396 . S
C2550 C2555 1.390 . S
C2551 C2545 1.465 . S
C2551 C2550 1.396 . S
C2551 C2552 1.399 . S
C2552 H2538 0.929 . S
C2552 C2551 1.399 . S
C2552 C2553 1.385 . S
C2553 H2539 0.931 . S
C2553 C2552 1.385 . S
C2553 C2554 1.389 . S
C2554 C2553 1.389 . S
C2554 C2555 1.387 . S
C2555 H2540 0.930 . S
C2555 C2550 1.390 . S
C2555 C2554 1.387 . S
H2556 C2568 0.930 . S
H2557 C2570 0.930 . S
H2558 C2571 0.930 . S
H2559 C2575 0.959 . S
H2560 C2575 0.959 . S
H2561 C2575 0.961 . S
H2562 C2576 0.960 . S
H2563 C2576 0.961 . S
H2564 C2576 0.959 . S
H2565 C2579 0.929 . S
H2566 C2580 0.931 . S
H2567 C2582 0.930 . S
C2568 H2556 0.930 . S
C2568 C2569 1.399 . S
C2568 C2573 1.399 . S
C2569 C2568 1.399 . S
C2569 C2570 1.376 . S
C2570 H2557 0.930 . S
C2570 C2569 1.376 . S
C2570 C2571 1.388 . S
C2571 H2558 0.930 . S
C2571 C2570 1.388 . S
C2571 C2572 1.390 . S
C2572 C2571 1.390 . S
C2572 C2573 1.394 . S
C2572 C2578 1.465 . S
C2573 C2568 1.399 . S
C2573 C2572 1.394 . S
C2573 C2574 1.516 . S
C2574 C2573 1.516 . S
C2574 C2575 1.502 . S
C2574 C2576 1.561 . S
C2574 C2577 1.526 . S
C2575 H2559 0.959 . S
C2575 H2560 0.959 . S
C2575 H2561 0.961 . S
C2575 C2574 1.502 . S
C2576 H2562 0.960 . S
C2576 H2563 0.961 . S
C2576 H2564 0.959 . S
C2576 C2574 1.561 . S
C2577 C2574 1.526 . S
C2577 C2578 1.396 . S
C2577 C2582 1.390 . S
C2578 C2572 1.465 . S
C2578 C2577 1.396 . S
C2578 C2579 1.399 . S
C2579 H2565 0.929 . S
C2579 C2578 1.399 . S
C2579 C2580 1.385 . S
C2580 H2566 0.931 . S
C2580 C2579 1.385 . S
C2580 C2581 1.389 . S
C2581 C2580 1.389 . S
C2581 C2582 1.387 . S
C2582 H2567 0.930 . S
C2582 C2577 1.390 . S
C2582 C2581 1.387 . S
H2583 C2595 0.930 . S
H2584 C2597 0.930 . S
H2585 C2598 0.930 . S
H2586 C2602 0.959 . S
H2587 C2602 0.959 . S
H2588 C2602 0.961 . S
H2589 C2603 0.960 . S
H2590 C2603 0.961 . S
H2591 C2603 0.959 . S
H2592 C2606 0.929 . S
H2593 C2607 0.931 . S
H2594 C2609 0.930 . S
C2595 H2583 0.930 . S
C2595 C2596 1.399 . S
C2595 C2600 1.399 . S
C2596 C2595 1.399 . S
C2596 C2597 1.376 . S
C2597 H2584 0.930 . S
C2597 C2596 1.376 . S
C2597 C2598 1.388 . S
C2598 H2585 0.930 . S
C2598 C2597 1.388 . S
C2598 C2599 1.390 . S
C2599 C2598 1.390 . S
C2599 C2600 1.394 . S
C2599 C2605 1.465 . S
C2600 C2595 1.399 . S
C2600 C2599 1.394 . S
C2600 C2601 1.516 . S
C2601 C2600 1.516 . S
C2601 C2602 1.502 . S
C2601 C2603 1.561 . S
C2601 C2604 1.526 . S
C2602 H2586 0.959 . S
C2602 H2587 0.959 . S
C2602 H2588 0.961 . S
C2602 C2601 1.502 . S
C2603 H2589 0.960 . S
C2603 H2590 0.961 . S
C2603 H2591 0.959 . S
C2603 C2601 1.561 . S
C2604 C2601 1.526 . S
C2604 C2605 1.396 . S
C2604 C2609 1.390 . S
C2605 C2599 1.465 . S
C2605 C2604 1.396 . S
C2605 C2606 1.399 . S
C2606 H2592 0.929 . S
C2606 C2605 1.399 . S
C2606 C2607 1.385 . S
C2607 H2593 0.931 . S
C2607 C2606 1.385 . S
C2607 C2608 1.389 . S
C2608 C2607 1.389 . S
C2608 C2609 1.387 . S
C2609 H2594 0.930 . S
C2609 C2604 1.390 . S
C2609 C2608 1.387 . S
H2610 C2622 0.930 . S
H2611 C2624 0.930 . S
H2612 C2625 0.930 . S
H2613 C2629 0.959 . S
H2614 C2629 0.959 . S
H2615 C2629 0.961 . S
H2616 C2630 0.960 . S
H2617 C2630 0.961 . S
H2618 C2630 0.959 . S
H2619 C2633 0.929 . S
H2620 C2634 0.931 . S
H2621 C2636 0.930 . S
C2622 H2610 0.930 . S
C2622 C2623 1.399 . S
C2622 C2627 1.399 . S
C2623 C2622 1.399 . S
C2623 C2624 1.376 . S
C2624 H2611 0.930 . S
C2624 C2623 1.376 . S
C2624 C2625 1.388 . S
C2625 H2612 0.930 . S
C2625 C2624 1.388 . S
C2625 C2626 1.390 . S
C2626 C2625 1.390 . S
C2626 C2627 1.394 . S
C2626 C2632 1.465 . S
C2627 C2622 1.399 . S
C2627 C2626 1.394 . S
C2627 C2628 1.516 . S
C2628 C2627 1.516 . S
C2628 C2629 1.502 . S
C2628 C2630 1.561 . S
C2628 C2631 1.526 . S
C2629 H2613 0.959 . S
C2629 H2614 0.959 . S
C2629 H2615 0.961 . S
C2629 C2628 1.502 . S
C2630 H2616 0.960 . S
C2630 H2617 0.961 . S
C2630 H2618 0.959 . S
C2630 C2628 1.561 . S
C2631 C2628 1.526 . S
C2631 C2632 1.396 . S
C2631 C2636 1.390 . S
C2632 C2626 1.465 . S
C2632 C2631 1.396 . S
C2632 C2633 1.399 . S
C2633 H2619 0.929 . S
C2633 C2632 1.399 . S
C2633 C2634 1.385 . S
C2634 H2620 0.931 . S
C2634 C2633 1.385 . S
C2634 C2635 1.389 . S
C2635 C2634 1.389 . S
C2635 C2636 1.387 . S
C2636 H2621 0.930 . S
C2636 C2631 1.390 . S
C2636 C2635 1.387 . S
H2637 C2649 0.930 . S
H2638 C2651 0.930 . S
H2639 C2652 0.930 . S
H2640 C2656 0.959 . S
H2641 C2656 0.959 . S
H2642 C2656 0.961 . S
H2643 C2657 0.960 . S
H2644 C2657 0.961 . S
H2645 C2657 0.959 . S
H2646 C2660 0.929 . S
H2647 C2661 0.931 . S
H2648 C2663 0.930 . S
C2649 H2637 0.930 . S
C2649 C2650 1.399 . S
C2649 C2654 1.399 . S
C2650 C2649 1.399 . S
C2650 C2651 1.376 . S
C2651 H2638 0.930 . S
C2651 C2650 1.376 . S
C2651 C2652 1.388 . S
C2652 H2639 0.930 . S
C2652 C2651 1.388 . S
C2652 C2653 1.390 . S
C2653 C2652 1.390 . S
C2653 C2654 1.394 . S
C2653 C2659 1.465 . S
C2654 C2649 1.399 . S
C2654 C2653 1.394 . S
C2654 C2655 1.516 . S
C2655 C2654 1.516 . S
C2655 C2656 1.502 . S
C2655 C2657 1.561 . S
C2655 C2658 1.526 . S
C2656 H2640 0.959 . S
C2656 H2641 0.959 . S
C2656 H2642 0.961 . S
C2656 C2655 1.502 . S
C2657 H2643 0.960 . S
C2657 H2644 0.961 . S
C2657 H2645 0.959 . S
C2657 C2655 1.561 . S
C2658 C2655 1.526 . S
C2658 C2659 1.396 . S
C2658 C2663 1.390 . S
C2659 C2653 1.465 . S
C2659 C2658 1.396 . S
C2659 C2660 1.399 . S
C2660 H2646 0.929 . S
C2660 C2659 1.399 . S
C2660 C2661 1.385 . S
C2661 H2647 0.931 . S
C2661 C2660 1.385 . S
C2661 C2662 1.389 . S
C2662 C2661 1.389 . S
C2662 C2663 1.387 . S
C2663 H2648 0.930 . S
C2663 C2658 1.390 . S
C2663 C2662 1.387 . S
H2664 C2676 0.930 . S
H2665 C2678 0.930 . S
H2666 C2679 0.930 . S
H2667 C2683 0.959 . S
H2668 C2683 0.959 . S
H2669 C2683 0.961 . S
H2670 C2684 0.960 . S
H2671 C2684 0.961 . S
H2672 C2684 0.959 . S
H2673 C2687 0.929 . S
H2674 C2688 0.931 . S
H2675 C2690 0.930 . S
C2676 H2664 0.930 . S
C2676 C2677 1.399 . S
C2676 C2681 1.399 . S
C2677 C2676 1.399 . S
C2677 C2678 1.376 . S
C2678 H2665 0.930 . S
C2678 C2677 1.376 . S
C2678 C2679 1.388 . S
C2679 H2666 0.930 . S
C2679 C2678 1.388 . S
C2679 C2680 1.390 . S
C2680 C2679 1.390 . S
C2680 C2681 1.394 . S
C2680 C2686 1.465 . S
C2681 C2676 1.399 . S
C2681 C2680 1.394 . S
C2681 C2682 1.516 . S
C2682 C2681 1.516 . S
C2682 C2683 1.502 . S
C2682 C2684 1.561 . S
C2682 C2685 1.526 . S
C2683 H2667 0.959 . S
C2683 H2668 0.959 . S
C2683 H2669 0.961 . S
C2683 C2682 1.502 . S
C2684 H2670 0.960 . S
C2684 H2671 0.961 . S
C2684 H2672 0.959 . S
C2684 C2682 1.561 . S
C2685 C2682 1.526 . S
C2685 C2686 1.396 . S
C2685 C2690 1.390 . S
C2686 C2680 1.465 . S
C2686 C2685 1.396 . S
C2686 C2687 1.399 . S
C2687 H2673 0.929 . S
C2687 C2686 1.399 . S
C2687 C2688 1.385 . S
C2688 H2674 0.931 . S
C2688 C2687 1.385 . S
C2688 C2689 1.389 . S
C2689 C2688 1.389 . S
C2689 C2690 1.387 . S
C2690 H2675 0.930 . S
C2690 C2685 1.390 . S
C2690 C2689 1.387 . S
H2691 C2703 0.930 . S
H2692 C2705 0.930 . S
H2693 C2706 0.930 . S
H2694 C2710 0.959 . S
H2695 C2710 0.959 . S
H2696 C2710 0.961 1_554 S
H2697 C2711 0.960 . S
H2698 C2711 0.961 . S
H2699 C2711 0.959 . S
H2700 C2714 0.929 . S
H2701 C2715 0.931 . S
H2702 C2717 0.930 . S
C2703 H2691 0.930 . S
C2703 C2704 1.399 . S
C2703 C2708 1.399 . S
C2704 C2703 1.399 . S
C2704 C2705 1.376 . S
C2705 H2692 0.930 . S
C2705 C2704 1.376 . S
C2705 C2706 1.388 . S
C2706 H2693 0.930 . S
C2706 C2705 1.388 . S
C2706 C2707 1.390 . S
C2707 C2706 1.390 . S
C2707 C2708 1.394 . S
C2707 C2713 1.465 . S
C2708 C2703 1.399 . S
C2708 C2707 1.394 . S
C2708 C2709 1.516 . S
C2709 C2708 1.516 . S
C2709 C2710 1.502 . S
C2709 C2711 1.561 . S
C2709 C2712 1.526 . S
C2710 H2694 0.959 . S
C2710 H2695 0.959 . S
C2710 H2696 0.961 1_556 S
C2710 C2709 1.502 . S
C2711 H2697 0.960 . S
C2711 H2698 0.961 . S
C2711 H2699 0.959 . S
C2711 C2709 1.561 . S
C2712 C2709 1.526 . S
C2712 C2713 1.396 . S
C2712 C2717 1.390 . S
C2713 C2707 1.465 . S
C2713 C2712 1.396 . S
C2713 C2714 1.399 . S
C2714 H2700 0.929 . S
C2714 C2713 1.399 . S
C2714 C2715 1.385 . S
C2715 H2701 0.931 . S
C2715 C2714 1.385 . S
C2715 C2716 1.389 . S
C2716 C2715 1.389 . S
C2716 C2717 1.387 . S
C2717 H2702 0.930 . S
C2717 C2712 1.390 . S
C2717 C2716 1.387 . S
H2718 C2730 0.930 . S
H2719 C2732 0.930 . S
H2720 C2733 0.930 . S
H2721 C2737 0.959 . S
H2722 C2737 0.959 . S
H2723 C2737 0.961 . S
H2724 C2738 0.960 . S
H2725 C2738 0.961 . S
H2726 C2738 0.959 . S
H2727 C2741 0.929 . S
H2728 C2742 0.931 . S
H2729 C2744 0.930 . S
C2730 H2718 0.930 . S
C2730 C2731 1.399 . S
C2730 C2735 1.399 . S
C2731 C2730 1.399 . S
C2731 C2732 1.376 . S
C2732 H2719 0.930 . S
C2732 C2731 1.376 . S
C2732 C2733 1.388 . S
C2733 H2720 0.930 . S
C2733 C2732 1.388 . S
C2733 C2734 1.390 . S
C2734 C2733 1.390 . S
C2734 C2735 1.394 . S
C2734 C2740 1.465 . S
C2735 C2730 1.399 . S
C2735 C2734 1.394 . S
C2735 C2736 1.516 . S
C2736 C2735 1.516 . S
C2736 C2737 1.502 . S
C2736 C2738 1.561 . S
C2736 C2739 1.526 . S
C2737 H2721 0.959 . S
C2737 H2722 0.959 . S
C2737 H2723 0.961 . S
C2737 C2736 1.502 . S
C2738 H2724 0.960 . S
C2738 H2725 0.961 . S
C2738 H2726 0.959 . S
C2738 C2736 1.561 . S
C2739 C2736 1.526 . S
C2739 C2740 1.396 . S
C2739 C2744 1.390 . S
C2740 C2734 1.465 . S
C2740 C2739 1.396 . S
C2740 C2741 1.399 . S
C2741 H2727 0.929 . S
C2741 C2740 1.399 . S
C2741 C2742 1.385 . S
C2742 H2728 0.931 . S
C2742 C2741 1.385 . S
C2742 C2743 1.389 . S
C2743 C2742 1.389 . S
C2743 C2744 1.387 . S
C2744 H2729 0.930 . S
C2744 C2739 1.390 . S
C2744 C2743 1.387 . S
H2745 C2757 0.930 . S
H2746 C2759 0.930 . S
H2747 C2760 0.930 . S
H2748 C2764 0.959 . S
H2749 C2764 0.959 . S
H2750 C2764 0.961 . S
H2751 C2765 0.960 . S
H2752 C2765 0.961 . S
H2753 C2765 0.959 . S
H2754 C2768 0.929 . S
H2755 C2769 0.931 1_554 S
H2756 C2771 0.930 . S
C2757 H2745 0.930 . S
C2757 C2758 1.399 . S
C2757 C2762 1.399 . S
C2758 C2757 1.399 . S
C2758 C2759 1.376 . S
C2759 H2746 0.930 . S
C2759 C2758 1.376 . S
C2759 C2760 1.388 . S
C2760 H2747 0.930 . S
C2760 C2759 1.388 . S
C2760 C2761 1.390 . S
C2761 C2760 1.390 . S
C2761 C2762 1.394 . S
C2761 C2767 1.465 . S
C2762 C2757 1.399 . S
C2762 C2761 1.394 . S
C2762 C2763 1.516 . S
C2763 C2762 1.516 . S
C2763 C2764 1.502 . S
C2763 C2765 1.561 . S
C2763 C2766 1.526 . S
C2764 H2748 0.959 . S
C2764 H2749 0.959 . S
C2764 H2750 0.961 . S
C2764 C2763 1.502 . S
C2765 H2751 0.960 . S
C2765 H2752 0.961 . S
C2765 H2753 0.959 . S
C2765 C2763 1.561 . S
C2766 C2763 1.526 . S
C2766 C2767 1.396 . S
C2766 C2771 1.390 . S
C2767 C2761 1.465 . S
C2767 C2766 1.396 . S
C2767 C2768 1.399 . S
C2768 H2754 0.929 . S
C2768 C2767 1.399 . S
C2768 C2769 1.385 . S
C2769 H2755 0.931 1_556 S
C2769 C2768 1.385 . S
C2769 C2770 1.389 . S
C2770 C2769 1.389 . S
C2770 C2771 1.387 . S
C2771 H2756 0.930 . S
C2771 C2766 1.390 . S
C2771 C2770 1.387 . S
H2772 C2784 0.930 . S
H2773 C2786 0.930 . S
H2774 C2787 0.930 . S
H2775 C2791 0.959 . S
H2776 C2791 0.959 1_545 S
H2777 C2791 0.961 . S
H2778 C2792 0.960 . S
H2779 C2792 0.961 1_545 S
H2780 C2792 0.959 . S
H2781 C2795 0.929 . S
H2782 C2796 0.931 . S
H2783 C2798 0.930 1_545 S
C2784 H2772 0.930 . S
C2784 C2785 1.399 . S
C2784 C2789 1.399 . S
C2785 C2784 1.399 . S
C2785 C2786 1.376 . S
C2786 H2773 0.930 . S
C2786 C2785 1.376 . S
C2786 C2787 1.388 . S
C2787 H2774 0.930 . S
C2787 C2786 1.388 . S
C2787 C2788 1.390 . S
C2788 C2787 1.390 . S
C2788 C2789 1.394 . S
C2788 C2794 1.465 . S
C2789 C2784 1.399 . S
C2789 C2788 1.394 . S
C2789 C2790 1.516 . S
C2790 C2789 1.516 . S
C2790 C2791 1.502 . S
C2790 C2792 1.561 . S
C2790 C2793 1.526 . S
C2791 H2775 0.959 . S
C2791 H2776 0.959 1_565 S
C2791 H2777 0.961 . S
C2791 C2790 1.502 . S
C2792 H2778 0.960 . S
C2792 H2779 0.961 1_565 S
C2792 H2780 0.959 . S
C2792 C2790 1.561 . S
C2793 C2790 1.526 . S
C2793 C2794 1.396 . S
C2793 C2798 1.390 . S
C2794 C2788 1.465 . S
C2794 C2793 1.396 . S
C2794 C2795 1.399 . S
C2795 H2781 0.929 . S
C2795 C2794 1.399 . S
C2795 C2796 1.385 . S
C2796 H2782 0.931 . S
C2796 C2795 1.385 . S
C2796 C2797 1.389 . S
C2797 C2796 1.389 . S
C2797 C2798 1.387 . S
C2798 H2783 0.930 1_565 S
C2798 C2793 1.390 . S
C2798 C2797 1.387 . S
H2799 C2811 0.930 . S
H2800 C2813 0.930 . S
H2801 C2814 0.930 . S
H2802 C2818 0.959 . S
H2803 C2818 0.959 . S
H2804 C2818 0.961 . S
H2805 C2819 0.960 . S
H2806 C2819 0.961 . S
H2807 C2819 0.959 . S
H2808 C2822 0.929 . S
H2809 C2823 0.931 . S
H2810 C2825 0.930 . S
C2811 H2799 0.930 . S
C2811 C2812 1.399 . S
C2811 C2816 1.399 . S
C2812 C2811 1.399 . S
C2812 C2813 1.376 . S
C2813 H2800 0.930 . S
C2813 C2812 1.376 . S
C2813 C2814 1.388 . S
C2814 H2801 0.930 . S
C2814 C2813 1.388 . S
C2814 C2815 1.390 . S
C2815 C2814 1.390 . S
C2815 C2816 1.394 . S
C2815 C2821 1.465 . S
C2816 C2811 1.399 . S
C2816 C2815 1.394 . S
C2816 C2817 1.516 . S
C2817 C2816 1.516 . S
C2817 C2818 1.502 . S
C2817 C2819 1.561 . S
C2817 C2820 1.526 . S
C2818 H2802 0.959 . S
C2818 H2803 0.959 . S
C2818 H2804 0.961 . S
C2818 C2817 1.502 . S
C2819 H2805 0.960 . S
C2819 H2806 0.961 . S
C2819 H2807 0.959 . S
C2819 C2817 1.561 . S
C2820 C2817 1.526 . S
C2820 C2821 1.396 . S
C2820 C2825 1.390 . S
C2821 C2815 1.465 . S
C2821 C2820 1.396 . S
C2821 C2822 1.399 . S
C2822 H2808 0.929 . S
C2822 C2821 1.399 . S
C2822 C2823 1.385 . S
C2823 H2809 0.931 . S
C2823 C2822 1.385 . S
C2823 C2824 1.389 . S
C2824 C2823 1.389 . S
C2824 C2825 1.387 . S
C2825 H2810 0.930 . S
C2825 C2820 1.390 . S
C2825 C2824 1.387 . S
H2826 C2838 0.930 . S
H2827 C2840 0.930 . S
H2828 C2841 0.930 . S
H2829 C2845 0.959 . S
H2830 C2845 0.959 . S
H2831 C2845 0.961 . S
H2832 C2846 0.960 . S
H2833 C2846 0.961 . S
H2834 C2846 0.959 . S
H2835 C2849 0.929 . S
H2836 C2850 0.931 . S
H2837 C2852 0.930 . S
C2838 H2826 0.930 . S
C2838 C2839 1.399 . S
C2838 C2843 1.399 . S
C2839 C2838 1.399 . S
C2839 C2840 1.376 . S
C2840 H2827 0.930 . S
C2840 C2839 1.376 . S
C2840 C2841 1.388 . S
C2841 H2828 0.930 . S
C2841 C2840 1.388 . S
C2841 C2842 1.390 . S
C2842 C2841 1.390 . S
C2842 C2843 1.394 . S
C2842 C2848 1.465 . S
C2843 C2838 1.399 . S
C2843 C2842 1.394 . S
C2843 C2844 1.516 . S
C2844 C2843 1.516 . S
C2844 C2845 1.502 . S
C2844 C2846 1.561 . S
C2844 C2847 1.526 . S
C2845 H2829 0.959 . S
C2845 H2830 0.959 . S
C2845 H2831 0.961 . S
C2845 C2844 1.502 . S
C2846 H2832 0.960 . S
C2846 H2833 0.961 . S
C2846 H2834 0.959 . S
C2846 C2844 1.561 . S
C2847 C2844 1.526 . S
C2847 C2848 1.396 . S
C2847 C2852 1.390 . S
C2848 C2842 1.465 . S
C2848 C2847 1.396 . S
C2848 C2849 1.399 . S
C2849 H2835 0.929 . S
C2849 C2848 1.399 . S
C2849 C2850 1.385 . S
C2850 H2836 0.931 . S
C2850 C2849 1.385 . S
C2850 C2851 1.389 . S
C2851 C2850 1.389 . S
C2851 C2852 1.387 . S
C2852 H2837 0.930 . S
C2852 C2847 1.390 . S
C2852 C2851 1.387 . S
H2853 C2865 0.930 . S
H2854 C2867 0.930 . S
H2855 C2868 0.930 . S
H2856 C2872 0.959 . S
H2857 C2872 0.959 . S
H2858 C2872 0.961 . S
H2859 C2873 0.960 . S
H2860 C2873 0.961 . S
H2861 C2873 0.959 . S
H2862 C2876 0.929 . S
H2863 C2877 0.931 . S
H2864 C2879 0.930 . S
C2865 H2853 0.930 . S
C2865 C2866 1.399 . S
C2865 C2870 1.399 . S
C2866 C2865 1.399 . S
C2866 C2867 1.376 . S
C2867 H2854 0.930 . S
C2867 C2866 1.376 . S
C2867 C2868 1.388 . S
C2868 H2855 0.930 . S
C2868 C2867 1.388 . S
C2868 C2869 1.390 . S
C2869 C2868 1.390 . S
C2869 C2870 1.394 . S
C2869 C2875 1.465 . S
C2870 C2865 1.399 . S
C2870 C2869 1.394 . S
C2870 C2871 1.516 . S
C2871 C2870 1.516 . S
C2871 C2872 1.502 . S
C2871 C2873 1.561 . S
C2871 C2874 1.526 . S
C2872 H2856 0.959 . S
C2872 H2857 0.959 . S
C2872 H2858 0.961 . S
C2872 C2871 1.502 . S
C2873 H2859 0.960 . S
C2873 H2860 0.961 . S
C2873 H2861 0.959 . S
C2873 C2871 1.561 . S
C2874 C2871 1.526 . S
C2874 C2875 1.396 . S
C2874 C2879 1.390 . S
C2875 C2869 1.465 . S
C2875 C2874 1.396 . S
C2875 C2876 1.399 . S
C2876 H2862 0.929 . S
C2876 C2875 1.399 . S
C2876 C2877 1.385 . S
C2877 H2863 0.931 . S
C2877 C2876 1.385 . S
C2877 C2878 1.389 . S
C2878 C2877 1.389 . S
C2878 C2879 1.387 . S
C2879 H2864 0.930 . S
C2879 C2874 1.390 . S
C2879 C2878 1.387 . S
H2880 C2892 0.930 . S
H2881 C2894 0.930 . S
H2882 C2895 0.930 . S
H2883 C2899 0.959 . S
H2884 C2899 0.959 . S
H2885 C2899 0.961 . S
H2886 C2900 0.960 . S
H2887 C2900 0.961 . S
H2888 C2900 0.959 . S
H2889 C2903 0.929 . S
H2890 C2904 0.931 . S
H2891 C2906 0.930 . S
C2892 H2880 0.930 . S
C2892 C2893 1.399 . S
C2892 C2897 1.399 . S
C2893 C2892 1.399 . S
C2893 C2894 1.376 . S
C2894 H2881 0.930 . S
C2894 C2893 1.376 . S
C2894 C2895 1.388 . S
C2895 H2882 0.930 . S
C2895 C2894 1.388 . S
C2895 C2896 1.390 . S
C2896 C2895 1.390 . S
C2896 C2897 1.394 . S
C2896 C2902 1.465 1_545 S
C2897 C2892 1.399 . S
C2897 C2896 1.394 . S
C2897 C2898 1.516 . S
C2898 C2897 1.516 . S
C2898 C2899 1.502 1_455 S
C2898 C2900 1.561 . S
C2898 C2901 1.526 1_545 S
C2899 H2883 0.959 . S
C2899 H2884 0.959 . S
C2899 H2885 0.961 . S
C2899 C2898 1.502 1_655 S
C2900 H2886 0.960 . S
C2900 H2887 0.961 . S
C2900 H2888 0.959 . S
C2900 C2898 1.561 . S
C2901 C2898 1.526 1_565 S
C2901 C2902 1.396 . S
C2901 C2906 1.390 . S
C2902 C2896 1.465 1_565 S
C2902 C2901 1.396 . S
C2902 C2903 1.399 . S
C2903 H2889 0.929 . S
C2903 C2902 1.399 . S
C2903 C2904 1.385 . S
C2904 H2890 0.931 . S
C2904 C2903 1.385 . S
C2904 C2905 1.389 . S
C2905 C2904 1.389 . S
C2905 C2906 1.387 . S
C2906 H2891 0.930 . S
C2906 C2901 1.390 . S
C2906 C2905 1.387 . S
H2907 C2919 0.930 . S
H2908 C2921 0.930 . S
H2909 C2922 0.930 . S
H2910 C2926 0.959 . S
H2911 C2926 0.959 . S
H2912 C2926 0.961 . S
H2913 C2927 0.960 1_556 S
H2914 C2927 0.964 . S
H2915 C2927 0.959 . S
H2916 C2930 0.929 . S
H2917 C2931 0.931 . S
H2918 C2933 0.930 1_556 S
C2919 H2907 0.930 . S
C2919 C2920 1.399 . S
C2919 C2924 1.399 . S
C2920 C2919 1.399 . S
C2920 C2921 1.376 1_556 S
C2921 H2908 0.930 . S
C2921 C2920 1.376 1_554 S
C2921 C2922 1.388 . S
C2922 H2909 0.930 . S
C2922 C2921 1.388 . S
C2922 C2923 1.390 . S
C2923 C2922 1.390 . S
C2923 C2924 1.394 1_554 S
C2923 C2929 1.465 . S
C2924 C2919 1.399 . S
C2924 C2923 1.394 1_556 S
C2924 C2925 1.516 . S
C2925 C2924 1.516 . S
C2925 C2926 1.502 . S
C2925 C2927 1.561 1_556 S
C2925 C2928 1.526 1_556 S
C2926 H2910 0.959 . S
C2926 H2911 0.959 . S
C2926 H2912 0.961 . S
C2926 C2925 1.502 . S
C2927 H2913 0.960 1_554 S
C2927 H2914 0.964 . S
C2927 H2915 0.959 . S
C2927 C2925 1.561 1_554 S
C2928 C2925 1.526 1_554 S
C2928 C2929 1.396 . S
C2928 C2933 1.390 . S
C2929 C2923 1.465 . S
C2929 C2928 1.396 . S
C2929 C2930 1.399 . S
C2930 H2916 0.929 . S
C2930 C2929 1.399 . S
C2930 C2931 1.385 . S
C2931 H2917 0.931 . S
C2931 C2930 1.385 . S
C2931 C2932 1.389 . S
C2932 C2931 1.389 . S
C2932 C2933 1.387 . S
C2933 H2918 0.930 1_554 S
C2933 C2928 1.390 . S
C2933 C2932 1.387 . S
H2934 C2946 0.930 1_455 S
H2935 C2948 0.930 . S
H2936 C2949 0.930 . S
H2937 C2953 0.959 . S
H2938 C2953 0.959 . S
H2939 C2953 0.961 . S
H2940 C2954 0.960 . S
H2941 C2954 0.961 . S
H2942 C2954 0.959 . S
H2943 C2957 0.929 . S
H2944 C2958 0.931 . S
H2945 C2960 0.930 1_455 S
C2946 H2934 0.930 1_655 S
C2946 C2947 1.399 . S
C2946 C2951 1.399 . S
C2947 C2946 1.399 . S
C2947 C2948 1.376 . S
C2948 H2935 0.930 . S
C2948 C2947 1.376 . S
C2948 C2949 1.388 . S
C2949 H2936 0.930 . S
C2949 C2948 1.388 . S
C2949 C2950 1.390 . S
C2950 C2949 1.390 . S
C2950 C2951 1.394 . S
C2950 C2956 1.465 . S
C2951 C2946 1.399 . S
C2951 C2950 1.394 . S
C2951 C2952 1.516 1_655 S
C2952 C2951 1.516 1_455 S
C2952 C2953 1.502 . S
C2952 C2954 1.561 . S
C2952 C2955 1.526 1_455 S
C2953 H2937 0.959 . S
C2953 H2938 0.959 . S
C2953 H2939 0.961 . S
C2953 C2952 1.502 . S
C2954 H2940 0.960 . S
C2954 H2941 0.961 . S
C2954 H2942 0.959 . S
C2954 C2952 1.561 . S
C2955 C2952 1.526 1_655 S
C2955 C2956 1.396 . S
C2955 C2960 1.390 . S
C2956 C2950 1.465 . S
C2956 C2955 1.396 . S
C2956 C2957 1.399 . S
C2957 H2943 0.929 . S
C2957 C2956 1.399 . S
C2957 C2958 1.385 . S
C2958 H2944 0.931 . S
C2958 C2957 1.385 . S
C2958 C2959 1.389 . S
C2959 C2958 1.389 . S
C2959 C2960 1.387 . S
C2960 H2945 0.930 1_655 S
C2960 C2955 1.390 . S
C2960 C2959 1.387 . S
H2961 C2973 0.930 . S
H2962 C2975 0.930 . S
H2963 C2976 0.930 . S
H2964 C2980 0.959 . S
H2965 C2980 0.959 . S
H2966 C2980 0.961 . S
H2967 C2981 0.960 . S
H2968 C2981 0.961 . S
H2969 C2981 0.959 . S
H2970 C2984 0.929 . S
H2971 C2985 0.931 . S
H2972 C2987 0.930 . S
C2973 H2961 0.930 . S
C2973 C2974 1.399 . S
C2973 C2978 1.399 . S
C2974 C2973 1.399 . S
C2974 C2975 1.376 . S
C2975 H2962 0.930 . S
C2975 C2974 1.376 . S
C2975 C2976 1.388 . S
C2976 H2963 0.930 . S
C2976 C2975 1.388 . S
C2976 C2977 1.390 . S
C2977 C2976 1.390 . S
C2977 C2978 1.394 . S
C2977 C2983 1.465 . S
C2978 C2973 1.399 . S
C2978 C2977 1.394 . S
C2978 C2979 1.516 1_554 S
C2979 C2978 1.516 1_556 S
C2979 C2980 1.502 . S
C2979 C2981 1.561 1_556 S
C2979 C2982 1.526 . S
C2980 H2964 0.959 . S
C2980 H2965 0.959 . S
C2980 H2966 0.961 . S
C2980 C2979 1.502 . S
C2981 H2967 0.960 . S
C2981 H2968 0.961 . S
C2981 H2969 0.959 . S
C2981 C2979 1.561 1_554 S
C2982 C2979 1.526 . S
C2982 C2983 1.396 1_556 S
C2982 C2987 1.390 . S
C2983 C2977 1.465 . S
C2983 C2982 1.396 1_554 S
C2983 C2984 1.399 . S
C2984 H2970 0.929 . S
C2984 C2983 1.399 . S
C2984 C2985 1.385 1_554 S
C2985 H2971 0.931 . S
C2985 C2984 1.385 1_556 S
C2985 C2986 1.389 . S
C2986 C2985 1.389 . S
C2986 C2987 1.387 . S
C2987 H2972 0.930 . S
C2987 C2982 1.390 . S
C2987 C2986 1.387 . S
H2988 C3000 0.930 1_565 S
H2989 C3002 0.930 . S
H2990 C3003 0.930 . S
H2991 C3007 0.959 . S
H2992 C3007 0.959 . S
H2993 C3007 0.961 1_556 S
H2994 C3008 0.960 . S
H2995 C3008 0.961 1_554 S
H2996 C3008 0.959 . S
H2997 C3011 0.929 . S
H2998 C3012 0.931 . S
H2999 C3014 0.930 1_565 S
C3000 H2988 0.930 1_545 S
C3000 C3001 1.399 . S
C3000 C3005 1.399 . S
C3001 C3000 1.399 . S
C3001 C3002 1.376 . S
C3002 H2989 0.930 . S
C3002 C3001 1.376 . S
C3002 C3003 1.388 . S
C3003 H2990 0.930 . S
C3003 C3002 1.388 . S
C3003 C3004 1.390 . S
C3004 C3003 1.390 . S
C3004 C3005 1.394 . S
C3004 C3010 1.465 1_556 S
C3005 C3000 1.399 . S
C3005 C3004 1.394 . S
C3005 C3006 1.516 1_546 S
C3006 C3005 1.516 1_564 S
C3006 C3007 1.502 . S
C3006 C3008 1.561 1_554 S
C3006 C3009 1.526 1_565 S
C3007 H2991 0.959 . S
C3007 H2992 0.959 . S
C3007 H2993 0.961 1_554 S
C3007 C3006 1.502 . S
C3008 H2994 0.960 . S
C3008 H2995 0.961 1_556 S
C3008 H2996 0.959 . S
C3008 C3006 1.561 1_556 S
C3009 C3006 1.526 1_545 S
C3009 C3010 1.396 . S
C3009 C3014 1.390 . S
C3010 C3004 1.465 1_554 S
C3010 C3009 1.396 . S
C3010 C3011 1.399 . S
C3011 H2997 0.929 . S
C3011 C3010 1.399 . S
C3011 C3012 1.385 . S
C3012 H2998 0.931 . S
C3012 C3011 1.385 . S
C3012 C3013 1.389 . S
C3013 C3012 1.389 . S
C3013 C3014 1.387 . S
C3014 H2999 0.930 1_545 S
C3014 C3009 1.390 . S
C3014 C3013 1.387 . S
H3015 C3027 0.930 . S
H3016 C3029 0.930 . S
H3017 C3030 0.930 . S
H3018 C3034 0.959 . S
H3019 C3034 0.959 . S
H3020 C3034 0.961 . S
H3021 C3035 0.960 . S
H3022 C3035 0.961 . S
H3023 C3035 0.959 . S
H3024 C3038 0.929 . S
H3025 C3039 0.931 . S
H3026 C3041 0.930 . S
C3027 H3015 0.930 . S
C3027 C3028 1.399 . S
C3027 C3032 1.399 . S
C3028 C3027 1.399 . S
C3028 C3029 1.376 . S
C3029 H3016 0.930 . S
C3029 C3028 1.376 . S
C3029 C3030 1.388 . S
C3030 H3017 0.930 . S
C3030 C3029 1.388 . S
C3030 C3031 1.390 . S
C3031 C3030 1.390 . S
C3031 C3032 1.394 . S
C3031 C3037 1.465 . S
C3032 C3027 1.399 . S
C3032 C3031 1.394 . S
C3032 C3033 1.516 . S
C3033 C3032 1.516 . S
C3033 C3034 1.502 . S
C3033 C3035 1.561 . S
C3033 C3036 1.526 . S
C3034 H3018 0.959 . S
C3034 H3019 0.959 . S
C3034 H3020 0.961 . S
C3034 C3033 1.502 . S
C3035 H3021 0.960 . S
C3035 H3022 0.961 . S
C3035 H3023 0.959 . S
C3035 C3033 1.561 . S
C3036 C3033 1.526 . S
C3036 C3037 1.396 . S
C3036 C3041 1.390 . S
C3037 C3031 1.465 . S
C3037 C3036 1.396 . S
C3037 C3038 1.399 . S
C3038 H3024 0.929 . S
C3038 C3037 1.399 . S
C3038 C3039 1.385 . S
C3039 H3025 0.931 . S
C3039 C3038 1.385 . S
C3039 C3040 1.389 . S
C3040 C3039 1.389 . S
C3040 C3041 1.387 . S
C3041 H3026 0.930 . S
C3041 C3036 1.390 . S
C3041 C3040 1.387 . S
H3042 C3054 0.930 . S
H3043 C3056 0.930 . S
H3044 C3057 0.930 . S
H3045 C3061 0.959 . S
H3046 C3061 0.959 1_554 S
H3047 C3061 0.961 . S
H3048 C3062 0.960 1_556 S
H3049 C3062 0.961 . S
H3050 C3062 0.959 . S
H3051 C3065 0.929 . S
H3052 C3066 0.931 . S
H3053 C3068 0.930 . S
C3054 H3042 0.930 . S
C3054 C3055 1.399 . S
C3054 C3059 1.399 . S
C3055 C3054 1.399 . S
C3055 C3056 1.376 . S
C3056 H3043 0.930 . S
C3056 C3055 1.376 . S
C3056 C3057 1.388 . S
C3057 H3044 0.930 . S
C3057 C3056 1.388 . S
C3057 C3058 1.390 . S
C3058 C3057 1.390 . S
C3058 C3059 1.394 . S
C3058 C3064 1.465 1_556 S
C3059 C3054 1.399 . S
C3059 C3058 1.394 . S
C3059 C3060 1.515 . S
C3060 C3059 1.515 . S
C3060 C3061 1.501 . S
C3060 C3062 1.562 1_556 S
C3060 C3063 1.527 1_556 S
C3061 H3045 0.959 . S
C3061 H3046 0.959 1_556 S
C3061 H3047 0.961 . S
C3061 C3060 1.501 . S
C3062 H3048 0.960 1_554 S
C3062 H3049 0.961 . S
C3062 H3050 0.959 . S
C3062 C3060 1.562 1_554 S
C3063 C3060 1.527 1_554 S
C3063 C3064 1.396 . S
C3063 C3068 1.390 . S
C3064 C3058 1.465 1_554 S
C3064 C3063 1.396 . S
C3064 C3065 1.399 . S
C3065 H3051 0.929 . S
C3065 C3064 1.399 . S
C3065 C3066 1.385 . S
C3066 H3052 0.931 . S
C3066 C3065 1.385 . S
C3066 C3067 1.389 . S
C3067 C3066 1.389 . S
C3067 C3068 1.387 . S
C3068 H3053 0.930 . S
C3068 C3063 1.390 . S
C3068 C3067 1.387 . S
H3069 C3081 0.930 . S
H3070 C3083 0.930 . S
H3071 C3084 0.930 . S
H3072 C3088 0.959 . S
H3073 C3088 0.959 . S
H3074 C3088 0.961 . S
H3075 C3089 0.960 . S
H3076 C3089 0.961 . S
H3077 C3089 0.959 . S
H3078 C3092 0.929 . S
H3079 C3093 0.931 . S
H3080 C3095 0.930 . S
C3081 H3069 0.930 . S
C3081 C3082 1.399 1_565 S
C3081 C3086 1.399 . S
C3082 C3081 1.399 1_545 S
C3082 C3083 1.376 . S
C3083 H3070 0.930 . S
C3083 C3082 1.376 . S
C3083 C3084 1.388 . S
C3084 H3071 0.930 . S
C3084 C3083 1.388 . S
C3084 C3085 1.390 . S
C3085 C3084 1.390 . S
C3085 C3086 1.394 1_545 S
C3085 C3091 1.465 . S
C3086 C3081 1.399 . S
C3086 C3085 1.394 1_565 S
C3086 C3087 1.516 . S
C3087 C3086 1.516 . S
C3087 C3088 1.502 . S
C3087 C3089 1.561 . S
C3087 C3090 1.526 . S
C3088 H3072 0.959 . S
C3088 H3073 0.959 . S
C3088 H3074 0.961 . S
C3088 C3087 1.502 . S
C3089 H3075 0.960 . S
C3089 H3076 0.961 . S
C3089 H3077 0.959 . S
C3089 C3087 1.561 . S
C3090 C3087 1.526 . S
C3090 C3091 1.396 1_565 S
C3090 C3095 1.390 . S
C3091 C3085 1.465 . S
C3091 C3090 1.396 1_545 S
C3091 C3092 1.399 . S
C3092 H3078 0.929 . S
C3092 C3091 1.399 . S
C3092 C3093 1.385 . S
C3093 H3079 0.931 . S
C3093 C3092 1.385 . S
C3093 C3094 1.389 1_545 S
C3094 C3093 1.389 1_565 S
C3094 C3095 1.387 . S
C3095 H3080 0.930 . S
C3095 C3090 1.390 . S
C3095 C3094 1.387 . S
H3096 C3108 0.930 1_545 S
H3097 C3110 0.930 . S
H3098 C3111 0.930 . S
H3099 C3115 0.959 . S
H3100 C3115 0.959 . S
H3101 C3115 0.961 . S
H3102 C3116 0.960 . S
H3103 C3116 0.961 . S
H3104 C3116 0.959 . S
H3105 C3119 0.929 . S
H3106 C3120 0.931 . S
H3107 C3122 0.930 1_545 S
C3108 H3096 0.930 1_565 S
C3108 C3109 1.399 . S
C3108 C3113 1.399 . S
C3109 C3108 1.399 . S
C3109 C3110 1.376 . S
C3110 H3097 0.930 . S
C3110 C3109 1.376 . S
C3110 C3111 1.388 . S
C3111 H3098 0.930 . S
C3111 C3110 1.388 . S
C3111 C3112 1.390 . S
C3112 C3111 1.390 . S
C3112 C3113 1.394 . S
C3112 C3118 1.465 . S
C3113 C3108 1.399 . S
C3113 C3112 1.394 . S
C3113 C3114 1.516 1_565 S
C3114 C3113 1.516 1_545 S
C3114 C3115 1.502 . S
C3114 C3116 1.561 . S
C3114 C3117 1.526 1_545 S
C3115 H3099 0.959 . S
C3115 H3100 0.959 . S
C3115 H3101 0.961 . S
C3115 C3114 1.502 . S
C3116 H3102 0.960 . S
C3116 H3103 0.961 . S
C3116 H3104 0.959 . S
C3116 C3114 1.561 . S
C3117 C3114 1.526 1_565 S
C3117 C3118 1.396 . S
C3117 C3122 1.390 . S
C3118 C3112 1.465 . S
C3118 C3117 1.396 . S
C3118 C3119 1.399 . S
C3119 H3105 0.929 . S
C3119 C3118 1.399 . S
C3119 C3120 1.385 . S
C3120 H3106 0.931 . S
C3120 C3119 1.385 . S
C3120 C3121 1.389 . S
C3121 C3120 1.389 . S
C3121 C3122 1.387 . S
C3122 H3107 0.930 1_565 S
C3122 C3117 1.390 . S
C3122 C3121 1.387 . S
H3123 C3135 0.930 . S
H3124 C3137 0.930 . S
H3125 C3138 0.930 . S
H3126 C3142 0.959 . S
H3127 C3142 0.959 . S
H3128 C3142 0.961 . S
H3129 C3143 0.960 . S
H3130 C3143 0.961 . S
H3131 C3143 0.959 . S
H3132 C3146 0.929 . S
H3133 C3147 0.931 . S
H3134 C3149 0.930 . S
C3135 H3123 0.930 . S
C3135 C3136 1.399 . S
C3135 C3140 1.399 . S
C3136 C3135 1.399 . S
C3136 C3137 1.376 . S
C3137 H3124 0.930 . S
C3137 C3136 1.376 . S
C3137 C3138 1.388 . S
C3138 H3125 0.930 . S
C3138 C3137 1.388 . S
C3138 C3139 1.390 . S
C3139 C3138 1.390 . S
C3139 C3140 1.394 . S
C3139 C3145 1.465 . S
C3140 C3135 1.399 . S
C3140 C3139 1.394 . S
C3140 C3141 1.516 . S
C3141 C3140 1.516 . S
C3141 C3142 1.502 . S
C3141 C3143 1.561 . S
C3141 C3144 1.526 . S
C3142 H3126 0.959 . S
C3142 H3127 0.959 . S
C3142 H3128 0.961 . S
C3142 C3141 1.502 . S
C3143 H3129 0.960 . S
C3143 H3130 0.961 . S
C3143 H3131 0.959 . S
C3143 C3141 1.561 . S
C3144 C3141 1.526 . S
C3144 C3145 1.396 . S
C3144 C3149 1.390 . S
C3145 C3139 1.465 . S
C3145 C3144 1.396 . S
C3145 C3146 1.399 . S
C3146 H3132 0.929 . S
C3146 C3145 1.399 . S
C3146 C3147 1.385 . S
C3147 H3133 0.931 . S
C3147 C3146 1.385 . S
C3147 C3148 1.389 . S
C3148 C3147 1.389 . S
C3148 C3149 1.387 . S
C3149 H3134 0.930 . S
C3149 C3144 1.390 . S
C3149 C3148 1.387 . S
H3150 C3162 0.930 . S
H3151 C3164 0.930 . S
H3152 C3165 0.930 . S
H3153 C3169 0.959 . S
H3154 C3169 0.959 . S
H3155 C3169 0.961 . S
H3156 C3170 0.960 . S
H3157 C3170 0.961 . S
H3158 C3170 0.959 . S
H3159 C3173 0.929 . S
H3160 C3174 0.931 . S
H3161 C3176 0.930 . S
C3162 H3150 0.930 . S
C3162 C3163 1.399 . S
C3162 C3167 1.399 . S
C3163 C3162 1.399 . S
C3163 C3164 1.376 . S
C3164 H3151 0.930 . S
C3164 C3163 1.376 . S
C3164 C3165 1.388 . S
C3165 H3152 0.930 . S
C3165 C3164 1.388 . S
C3165 C3166 1.390 . S
C3166 C3165 1.390 . S
C3166 C3167 1.394 . S
C3166 C3172 1.465 . S
C3167 C3162 1.399 . S
C3167 C3166 1.394 . S
C3167 C3168 1.516 . S
C3168 C3167 1.516 . S
C3168 C3169 1.502 . S
C3168 C3170 1.561 . S
C3168 C3171 1.526 . S
C3169 H3153 0.959 . S
C3169 H3154 0.959 . S
C3169 H3155 0.961 . S
C3169 C3168 1.502 . S
C3170 H3156 0.960 . S
C3170 H3157 0.961 . S
C3170 H3158 0.959 . S
C3170 C3168 1.561 . S
C3171 C3168 1.526 . S
C3171 C3172 1.396 . S
C3171 C3176 1.390 . S
C3172 C3166 1.465 . S
C3172 C3171 1.396 . S
C3172 C3173 1.399 . S
C3173 H3159 0.929 . S
C3173 C3172 1.399 . S
C3173 C3174 1.385 . S
C3174 H3160 0.931 . S
C3174 C3173 1.385 . S
C3174 C3175 1.389 . S
C3175 C3174 1.389 . S
C3175 C3176 1.387 . S
C3176 H3161 0.930 . S
C3176 C3171 1.390 . S
C3176 C3175 1.387 . S
H3177 C3189 0.930 . S
H3178 C3191 0.930 . S
H3179 C3192 0.930 . S
H3180 C3196 0.959 . S
H3181 C3196 0.959 . S
H3182 C3196 0.961 . S
H3183 C3197 0.960 . S
H3184 C3197 0.961 . S
H3185 C3197 0.959 . S
H3186 C3200 0.929 . S
H3187 C3201 0.931 . S
H3188 C3203 0.930 . S
C3189 H3177 0.930 . S
C3189 C3190 1.399 . S
C3189 C3194 1.399 . S
C3190 C3189 1.399 . S
C3190 C3191 1.376 1_545 S
C3191 H3178 0.930 . S
C3191 C3190 1.376 1_565 S
C3191 C3192 1.388 . S
C3192 H3179 0.930 . S
C3192 C3191 1.388 . S
C3192 C3193 1.390 . S
C3193 C3192 1.390 . S
C3193 C3194 1.394 1_565 S
C3193 C3199 1.465 . S
C3194 C3189 1.399 . S
C3194 C3193 1.394 1_545 S
C3194 C3195 1.516 . S
C3195 C3194 1.516 . S
C3195 C3196 1.502 . S
C3195 C3197 1.561 . S
C3195 C3198 1.526 . S
C3196 H3180 0.959 . S
C3196 H3181 0.959 . S
C3196 H3182 0.961 . S
C3196 C3195 1.502 . S
C3197 H3183 0.960 . S
C3197 H3184 0.961 . S
C3197 H3185 0.959 . S
C3197 C3195 1.561 . S
C3198 C3195 1.526 . S
C3198 C3199 1.396 1_545 S
C3198 C3203 1.390 . S
C3199 C3193 1.465 . S
C3199 C3198 1.396 1_565 S
C3199 C3200 1.399 . S
C3200 H3186 0.929 . S
C3200 C3199 1.399 . S
C3200 C3201 1.385 . S
C3201 H3187 0.931 . S
C3201 C3200 1.385 . S
C3201 C3202 1.389 . S
C3202 C3201 1.389 . S
C3202 C3203 1.387 1_565 S
C3203 H3188 0.930 . S
C3203 C3198 1.390 . S
C3203 C3202 1.387 1_545 S
H3204 C3216 0.930 1_556 S
H3205 C3218 0.930 . S
H3206 C3219 0.930 . S
H3207 C3223 0.959 . S
H3208 C3223 0.959 . S
H3209 C3223 0.961 1_655 S
H3210 C3224 0.960 . S
H3211 C3224 0.961 1_455 S
H3212 C3224 0.959 . S
H3213 C3227 0.929 . S
H3214 C3228 0.931 . S
H3215 C3230 0.930 1_556 S
C3216 H3204 0.930 1_554 S
C3216 C3217 1.399 . S
C3216 C3221 1.399 . S
C3217 C3216 1.399 . S
C3217 C3218 1.376 . S
C3218 H3205 0.930 . S
C3218 C3217 1.376 . S
C3218 C3219 1.388 . S
C3219 H3206 0.930 . S
C3219 C3218 1.388 . S
C3219 C3220 1.390 . S
C3220 C3219 1.390 . S
C3220 C3221 1.394 . S
C3220 C3226 1.465 1_655 S
C3221 C3216 1.399 . S
C3221 C3220 1.394 . S
C3221 C3222 1.516 1_654 S
C3222 C3221 1.516 1_456 S
C3222 C3223 1.502 . S
C3222 C3224 1.561 1_455 S
C3222 C3225 1.526 1_556 S
C3223 H3207 0.959 . S
C3223 H3208 0.959 . S
C3223 H3209 0.961 1_455 S
C3223 C3222 1.502 . S
C3224 H3210 0.960 . S
C3224 H3211 0.961 1_655 S
C3224 H3212 0.959 . S
C3224 C3222 1.561 1_655 S
C3225 C3222 1.526 1_554 S
C3225 C3226 1.396 . S
C3225 C3230 1.390 . S
C3226 C3220 1.465 1_455 S
C3226 C3225 1.396 . S
C3226 C3227 1.399 . S
C3227 H3213 0.929 . S
C3227 C3226 1.399 . S
C3227 C3228 1.385 . S
C3228 H3214 0.931 . S
C3228 C3227 1.385 . S
C3228 C3229 1.389 . S
C3229 C3228 1.389 . S
C3229 C3230 1.387 . S
C3230 H3215 0.930 1_554 S
C3230 C3225 1.390 . S
C3230 C3229 1.387 . S
H3231 C3243 0.930 . S
H3232 C3245 0.930 . S
H3233 C3246 0.930 . S
H3234 C3250 0.960 . S
H3235 C3250 0.955 1_455 S
H3236 C3250 0.964 . S
H3237 C3251 0.960 1_655 S
H3238 C3251 0.961 . S
H3239 C3251 0.959 . S
H3240 C3254 0.929 . S
H3241 C3255 0.931 . S
H3242 C3257 0.930 . S
C3243 H3231 0.930 . S
C3243 C3244 1.399 . S
C3243 C3248 1.399 . S
C3244 C3243 1.399 . S
C3244 C3245 1.376 . S
C3245 H3232 0.930 . S
C3245 C3244 1.376 . S
C3245 C3246 1.388 . S
C3246 H3233 0.930 . S
C3246 C3245 1.388 . S
C3246 C3247 1.390 . S
C3247 C3246 1.390 . S
C3247 C3248 1.394 . S
C3247 C3253 1.465 1_655 S
C3248 C3243 1.399 . S
C3248 C3247 1.394 . S
C3248 C3249 1.516 1_655 S
C3249 C3248 1.516 1_455 S
C3249 C3250 1.501 1_455 S
C3249 C3251 1.561 . S
C3249 C3252 1.526 . S
C3250 H3234 0.960 . S
C3250 H3235 0.955 1_655 S
C3250 H3236 0.964 . S
C3250 C3249 1.501 1_655 S
C3251 H3237 0.960 1_455 S
C3251 H3238 0.961 . S
C3251 H3239 0.959 . S
C3251 C3249 1.561 . S
C3252 C3249 1.526 . S
C3252 C3253 1.396 . S
C3252 C3257 1.390 . S
C3253 C3247 1.465 1_455 S
C3253 C3252 1.396 . S
C3253 C3254 1.399 . S
C3254 H3240 0.929 . S
C3254 C3253 1.399 . S
C3254 C3255 1.385 . S
C3255 H3241 0.931 . S
C3255 C3254 1.385 . S
C3255 C3256 1.389 . S
C3256 C3255 1.389 . S
C3256 C3257 1.387 . S
C3257 H3242 0.930 . S
C3257 C3252 1.390 . S
C3257 C3256 1.387 . S
H3258 C3270 0.930 . S
H3259 C3272 0.930 . S
H3260 C3273 0.930 . S
H3261 C3277 0.959 . S
H3262 C3277 0.959 . S
H3263 C3277 0.961 . S
H3264 C3278 0.960 . S
H3265 C3278 0.961 . S
H3266 C3278 0.959 . S
H3267 C3281 0.929 . S
H3268 C3282 0.931 . S
H3269 C3284 0.930 . S
C3270 H3258 0.930 . S
C3270 C3271 1.399 . S
C3270 C3275 1.399 . S
C3271 C3270 1.399 . S
C3271 C3272 1.376 . S
C3272 H3259 0.930 . S
C3272 C3271 1.376 . S
C3272 C3273 1.388 1_455 S
C3273 H3260 0.930 . S
C3273 C3272 1.388 1_655 S
C3273 C3274 1.390 . S
C3274 C3273 1.390 . S
C3274 C3275 1.394 1_655 S
C3274 C3280 1.465 . S
C3275 C3270 1.399 . S
C3275 C3274 1.394 1_455 S
C3275 C3276 1.516 . S
C3276 C3275 1.516 . S
C3276 C3277 1.502 . S
C3276 C3278 1.561 1_455 S
C3276 C3279 1.526 1_455 S
C3277 H3261 0.959 . S
C3277 H3262 0.959 . S
C3277 H3263 0.961 . S
C3277 C3276 1.502 . S
C3278 H3264 0.960 . S
C3278 H3265 0.961 . S
C3278 H3266 0.959 . S
C3278 C3276 1.561 1_655 S
C3279 C3276 1.526 1_655 S
C3279 C3280 1.396 . S
C3279 C3284 1.390 . S
C3280 C3274 1.465 . S
C3280 C3279 1.396 . S
C3280 C3281 1.399 . S
C3281 H3267 0.929 . S
C3281 C3280 1.399 . S
C3281 C3282 1.385 . S
C3282 H3268 0.931 . S
C3282 C3281 1.385 . S
C3282 C3283 1.389 . S
C3283 C3282 1.389 . S
C3283 C3284 1.387 . S
C3284 H3269 0.930 . S
C3284 C3279 1.390 . S
C3284 C3283 1.387 . S
H3285 C3297 0.930 . S
H3286 C3299 0.930 . S
H3287 C3300 0.930 . S
H3288 C3304 0.959 . S
H3289 C3304 0.959 . S
H3290 C3304 0.961 . S
H3291 C3305 0.960 . S
H3292 C3305 0.961 . S
H3293 C3305 0.959 . S
H3294 C3308 0.929 . S
H3295 C3309 0.931 . S
H3296 C3311 0.930 . S
C3297 H3285 0.930 . S
C3297 C3298 1.399 . S
C3297 C3302 1.399 . S
C3298 C3297 1.399 . S
C3298 C3299 1.376 . S
C3299 H3286 0.930 . S
C3299 C3298 1.376 . S
C3299 C3300 1.388 . S
C3300 H3287 0.930 . S
C3300 C3299 1.388 . S
C3300 C3301 1.390 . S
C3301 C3300 1.390 . S
C3301 C3302 1.394 . S
C3301 C3307 1.465 . S
C3302 C3297 1.399 . S
C3302 C3301 1.394 . S
C3302 C3303 1.516 . S
C3303 C3302 1.516 . S
C3303 C3304 1.502 . S
C3303 C3305 1.561 . S
C3303 C3306 1.526 . S
C3304 H3288 0.959 . S
C3304 H3289 0.959 . S
C3304 H3290 0.961 . S
C3304 C3303 1.502 . S
C3305 H3291 0.960 . S
C3305 H3292 0.961 . S
C3305 H3293 0.959 . S
C3305 C3303 1.561 . S
C3306 C3303 1.526 . S
C3306 C3307 1.396 . S
C3306 C3311 1.390 . S
C3307 C3301 1.465 . S
C3307 C3306 1.396 . S
C3307 C3308 1.399 . S
C3308 H3294 0.929 . S
C3308 C3307 1.399 . S
C3308 C3309 1.385 . S
C3309 H3295 0.931 . S
C3309 C3308 1.385 . S
C3309 C3310 1.389 . S
C3310 C3309 1.389 . S
C3310 C3311 1.387 . S
C3311 H3296 0.930 . S
C3311 C3306 1.390 . S
C3311 C3310 1.387 . S
H3312 C3324 0.930 . S
H3313 C3326 0.930 . S
H3314 C3327 0.930 . S
H3315 C3331 0.959 . S
H3316 C3331 0.959 . S
H3317 C3331 0.961 . S
H3318 C3332 0.960 . S
H3319 C3332 0.961 . S
H3320 C3332 0.959 . S
H3321 C3335 0.929 . S
H3322 C3336 0.931 . S
H3323 C3338 0.930 . S
C3324 H3312 0.930 . S
C3324 C3325 1.399 . S
C3324 C3329 1.399 . S
C3325 C3324 1.399 . S
C3325 C3326 1.376 . S
C3326 H3313 0.930 . S
C3326 C3325 1.376 . S
C3326 C3327 1.388 . S
C3327 H3314 0.930 . S
C3327 C3326 1.388 . S
C3327 C3328 1.390 . S
C3328 C3327 1.390 . S
C3328 C3329 1.394 . S
C3328 C3334 1.465 . S
C3329 C3324 1.399 . S
C3329 C3328 1.394 . S
C3329 C3330 1.516 . S
C3330 C3329 1.516 . S
C3330 C3331 1.502 . S
C3330 C3332 1.561 . S
C3330 C3333 1.526 . S
C3331 H3315 0.959 . S
C3331 H3316 0.959 . S
C3331 H3317 0.961 . S
C3331 C3330 1.502 . S
C3332 H3318 0.960 . S
C3332 H3319 0.961 . S
C3332 H3320 0.959 . S
C3332 C3330 1.561 . S
C3333 C3330 1.526 . S
C3333 C3334 1.396 . S
C3333 C3338 1.390 . S
C3334 C3328 1.465 . S
C3334 C3333 1.396 . S
C3334 C3335 1.399 . S
C3335 H3321 0.929 . S
C3335 C3334 1.399 . S
C3335 C3336 1.385 . S
C3336 H3322 0.931 . S
C3336 C3335 1.385 . S
C3336 C3337 1.389 . S
C3337 C3336 1.389 . S
C3337 C3338 1.387 . S
C3338 H3323 0.930 . S
C3338 C3333 1.390 . S
C3338 C3337 1.387 . S
H3339 C3351 0.930 . S
H3340 C3353 0.930 . S
H3341 C3354 0.930 . S
H3342 C3358 0.959 . S
H3343 C3358 0.959 . S
H3344 C3358 0.961 . S
H3345 C3359 0.960 . S
H3346 C3359 0.961 . S
H3347 C3359 0.959 . S
H3348 C3362 0.929 . S
H3349 C3363 0.931 . S
H3350 C3365 0.930 . S
C3351 H3339 0.930 . S
C3351 C3352 1.399 1_455 S
C3351 C3356 1.399 . S
C3352 C3351 1.399 1_655 S
C3352 C3353 1.376 . S
C3353 H3340 0.930 . S
C3353 C3352 1.376 . S
C3353 C3354 1.388 . S
C3354 H3341 0.930 . S
C3354 C3353 1.388 . S
C3354 C3355 1.390 . S
C3355 C3354 1.390 . S
C3355 C3356 1.394 1_655 S
C3355 C3361 1.465 . S
C3356 C3351 1.399 . S
C3356 C3355 1.394 1_455 S
C3356 C3357 1.516 . S
C3357 C3356 1.516 . S
C3357 C3358 1.502 . S
C3357 C3359 1.561 . S
C3357 C3360 1.526 . S
C3358 H3342 0.959 . S
C3358 H3343 0.959 . S
C3358 H3344 0.961 . S
C3358 C3357 1.502 . S
C3359 H3345 0.960 . S
C3359 H3346 0.961 . S
C3359 H3347 0.959 . S
C3359 C3357 1.561 . S
C3360 C3357 1.526 . S
C3360 C3361 1.396 1_455 S
C3360 C3365 1.390 . S
C3361 C3355 1.465 . S
C3361 C3360 1.396 1_655 S
C3361 C3362 1.399 . S
C3362 H3348 0.929 . S
C3362 C3361 1.399 . S
C3362 C3363 1.385 . S
C3363 H3349 0.931 . S
C3363 C3362 1.385 . S
C3363 C3364 1.389 1_655 S
C3364 C3363 1.389 1_455 S
C3364 C3365 1.387 . S
C3365 H3350 0.930 . S
C3365 C3360 1.390 . S
C3365 C3364 1.387 . S
H3366 C3378 0.930 . S
H3367 C3380 0.930 . S
H3368 C3381 0.930 . S
H3369 C3385 0.959 . S
H3370 C3385 0.959 . S
H3371 C3385 0.961 . S
H3372 C3386 0.960 . S
H3373 C3386 0.961 . S
H3374 C3386 0.959 . S
H3375 C3389 0.929 . S
H3376 C3390 0.931 . S
H3377 C3392 0.930 . S
C3378 H3366 0.930 . S
C3378 C3379 1.399 . S
C3378 C3383 1.399 . S
C3379 C3378 1.399 . S
C3379 C3380 1.376 . S
C3380 H3367 0.930 . S
C3380 C3379 1.376 . S
C3380 C3381 1.388 . S
C3381 H3368 0.930 . S
C3381 C3380 1.388 . S
C3381 C3382 1.390 . S
C3382 C3381 1.390 . S
C3382 C3383 1.394 . S
C3382 C3388 1.465 . S
C3383 C3378 1.399 . S
C3383 C3382 1.394 . S
C3383 C3384 1.516 . S
C3384 C3383 1.516 . S
C3384 C3385 1.502 . S
C3384 C3386 1.561 . S
C3384 C3387 1.526 . S
C3385 H3369 0.959 . S
C3385 H3370 0.959 . S
C3385 H3371 0.961 . S
C3385 C3384 1.502 . S
C3386 H3372 0.960 . S
C3386 H3373 0.961 . S
C3386 H3374 0.959 . S
C3386 C3384 1.561 . S
C3387 C3384 1.526 . S
C3387 C3388 1.396 . S
C3387 C3392 1.390 . S
C3388 C3382 1.465 . S
C3388 C3387 1.396 . S
C3388 C3389 1.399 . S
C3389 H3375 0.929 . S
C3389 C3388 1.399 . S
C3389 C3390 1.385 . S
C3390 H3376 0.931 . S
C3390 C3389 1.385 . S
C3390 C3391 1.389 . S
C3391 C3390 1.389 . S
C3391 C3392 1.387 . S
C3392 H3377 0.930 . S
C3392 C3387 1.390 . S
C3392 C3391 1.387 . S
H3393 C3405 0.930 . S
H3394 C3407 0.930 . S
H3395 C3408 0.930 . S
H3396 C3412 0.959 . S
H3397 C3412 0.959 . S
H3398 C3412 0.961 . S
H3399 C3413 0.960 . S
H3400 C3413 0.961 . S
H3401 C3413 0.959 . S
H3402 C3416 0.929 . S
H3403 C3417 0.931 . S
H3404 C3419 0.930 . S
C3405 H3393 0.930 . S
C3405 C3406 1.399 . S
C3405 C3410 1.399 . S
C3406 C3405 1.399 . S
C3406 C3407 1.376 . S
C3407 H3394 0.930 . S
C3407 C3406 1.376 . S
C3407 C3408 1.388 . S
C3408 H3395 0.930 . S
C3408 C3407 1.388 . S
C3408 C3409 1.390 . S
C3409 C3408 1.390 . S
C3409 C3410 1.394 . S
C3409 C3415 1.465 . S
C3410 C3405 1.399 . S
C3410 C3409 1.394 . S
C3410 C3411 1.516 . S
C3411 C3410 1.516 . S
C3411 C3412 1.502 . S
C3411 C3413 1.561 . S
C3411 C3414 1.526 . S
C3412 H3396 0.959 . S
C3412 H3397 0.959 . S
C3412 H3398 0.961 . S
C3412 C3411 1.502 . S
C3413 H3399 0.960 . S
C3413 H3400 0.961 . S
C3413 H3401 0.959 . S
C3413 C3411 1.561 . S
C3414 C3411 1.526 . S
C3414 C3415 1.396 . S
C3414 C3419 1.390 . S
C3415 C3409 1.465 . S
C3415 C3414 1.396 . S
C3415 C3416 1.399 . S
C3416 H3402 0.929 . S
C3416 C3415 1.399 . S
C3416 C3417 1.385 . S
C3417 H3403 0.931 . S
C3417 C3416 1.385 . S
C3417 C3418 1.389 . S
C3418 C3417 1.389 . S
C3418 C3419 1.387 . S
C3419 H3404 0.930 . S
C3419 C3414 1.390 . S
C3419 C3418 1.387 . S
H3420 C3432 0.930 . S
H3421 C3434 0.930 . S
H3422 C3435 0.930 . S
H3423 C3439 0.959 . S
H3424 C3439 0.959 . S
H3425 C3439 0.961 1_565 S
H3426 C3440 0.960 . S
H3427 C3440 0.961 . S
H3428 C3440 0.959 . S
H3429 C3443 0.929 . S
H3430 C3444 0.931 . S
H3431 C3446 0.930 . S
C3432 H3420 0.930 . S
C3432 C3433 1.399 . S
C3432 C3437 1.399 . S
C3433 C3432 1.399 . S
C3433 C3434 1.376 . S
C3434 H3421 0.930 . S
C3434 C3433 1.376 . S
C3434 C3435 1.388 . S
C3435 H3422 0.930 . S
C3435 C3434 1.388 . S
C3435 C3436 1.390 . S
C3436 C3435 1.390 . S
C3436 C3437 1.394 . S
C3436 C3442 1.465 1_565 S
C3437 C3432 1.399 . S
C3437 C3436 1.394 . S
C3437 C3438 1.516 1_565 S
C3438 C3437 1.516 1_545 S
C3438 C3439 1.502 . S
C3438 C3440 1.561 . S
C3438 C3441 1.526 . S
C3439 H3423 0.959 . S
C3439 H3424 0.959 . S
C3439 H3425 0.961 1_545 S
C3439 C3438 1.502 . S
C3440 H3426 0.960 . S
C3440 H3427 0.961 . S
C3440 H3428 0.959 . S
C3440 C3438 1.561 . S
C3441 C3438 1.526 . S
C3441 C3442 1.396 . S
C3441 C3446 1.390 . S
C3442 C3436 1.465 1_545 S
C3442 C3441 1.396 . S
C3442 C3443 1.399 . S
C3443 H3429 0.929 . S
C3443 C3442 1.399 . S
C3443 C3444 1.385 . S
C3444 H3430 0.931 . S
C3444 C3443 1.385 . S
C3444 C3445 1.389 . S
C3445 C3444 1.389 . S
C3445 C3446 1.387 . S
C3446 H3431 0.930 . S
C3446 C3441 1.390 . S
C3446 C3445 1.387 . S
H3447 C3459 0.930 . S
H3448 C3461 0.930 . S
H3449 C3462 0.930 . S
H3450 C3466 0.959 . S
H3451 C3466 0.959 . S
H3452 C3466 0.961 . S
H3453 C3467 0.960 . S
H3454 C3467 0.961 . S
H3455 C3467 0.959 . S
H3456 C3470 0.929 . S
H3457 C3471 0.931 . S
H3458 C3473 0.930 . S
C3459 H3447 0.930 . S
C3459 C3460 1.399 . S
C3459 C3464 1.399 . S
C3460 C3459 1.399 . S
C3460 C3461 1.376 . S
C3461 H3448 0.930 . S
C3461 C3460 1.376 . S
C3461 C3462 1.388 . S
C3462 H3449 0.930 . S
C3462 C3461 1.388 . S
C3462 C3463 1.390 . S
C3463 C3462 1.390 . S
C3463 C3464 1.394 . S
C3463 C3469 1.465 . S
C3464 C3459 1.399 . S
C3464 C3463 1.394 . S
C3464 C3465 1.516 . S
C3465 C3464 1.516 . S
C3465 C3466 1.502 . S
C3465 C3467 1.561 . S
C3465 C3468 1.526 . S
C3466 H3450 0.959 . S
C3466 H3451 0.959 . S
C3466 H3452 0.961 . S
C3466 C3465 1.502 . S
C3467 H3453 0.960 . S
C3467 H3454 0.961 . S
C3467 H3455 0.959 . S
C3467 C3465 1.561 . S
C3468 C3465 1.526 . S
C3468 C3469 1.396 . S
C3468 C3473 1.390 . S
C3469 C3463 1.465 . S
C3469 C3468 1.396 . S
C3469 C3470 1.399 . S
C3470 H3456 0.929 . S
C3470 C3469 1.399 . S
C3470 C3471 1.385 . S
C3471 H3457 0.931 . S
C3471 C3470 1.385 . S
C3471 C3472 1.389 . S
C3472 C3471 1.389 . S
C3472 C3473 1.387 . S
C3473 H3458 0.930 . S
C3473 C3468 1.390 . S
C3473 C3472 1.387 . S
H3474 C3486 0.930 . S
H3475 C3488 0.930 . S
H3476 C3489 0.930 . S
H3477 C3493 0.959 . S
H3478 C3493 0.959 . S
H3479 C3493 0.961 . S
H3480 C3494 0.960 . S
H3481 C3494 0.961 . S
H3482 C3494 0.959 . S
H3483 C3497 0.929 . S
H3484 C3498 0.931 . S
H3485 C3500 0.930 . S
C3486 H3474 0.930 . S
C3486 C3487 1.399 . S
C3486 C3491 1.399 . S
C3487 C3486 1.399 . S
C3487 C3488 1.376 1_556 S
C3488 H3475 0.930 . S
C3488 C3487 1.376 1_554 S
C3488 C3489 1.388 . S
C3489 H3476 0.930 . S
C3489 C3488 1.388 . S
C3489 C3490 1.390 1_554 S
C3490 C3489 1.390 1_556 S
C3490 C3491 1.394 . S
C3490 C3496 1.465 . S
C3491 C3486 1.399 . S
C3491 C3490 1.394 . S
C3491 C3492 1.516 . S
C3492 C3491 1.516 . S
C3492 C3493 1.502 . S
C3492 C3494 1.561 . S
C3492 C3495 1.526 . S
C3493 H3477 0.959 . S
C3493 H3478 0.959 . S
C3493 H3479 0.961 . S
C3493 C3492 1.502 . S
C3494 H3480 0.960 . S
C3494 H3481 0.961 . S
C3494 H3482 0.959 . S
C3494 C3492 1.561 . S
C3495 C3492 1.526 . S
C3495 C3496 1.396 . S
C3495 C3500 1.390 . S
C3496 C3490 1.465 . S
C3496 C3495 1.396 . S
C3496 C3497 1.399 1_556 S
C3497 H3483 0.929 . S
C3497 C3496 1.399 1_554 S
C3497 C3498 1.385 . S
C3498 H3484 0.931 . S
C3498 C3497 1.385 . S
C3498 C3499 1.389 1_554 S
C3499 C3498 1.389 1_556 S
C3499 C3500 1.387 . S
C3500 H3485 0.930 . S
C3500 C3495 1.390 . S
C3500 C3499 1.387 . S
H3501 C3513 0.930 . S
H3502 C3515 0.930 . S
H3503 C3516 0.930 . S
H3504 C3520 0.959 . S
H3505 C3520 0.959 . S
H3506 C3520 0.961 . S
H3507 C3521 0.960 . S
H3508 C3521 0.961 . S
H3509 C3521 0.959 . S
H3510 C3524 0.929 . S
H3511 C3525 0.931 . S
H3512 C3527 0.930 . S
C3513 H3501 0.930 . S
C3513 C3514 1.399 . S
C3513 C3518 1.399 . S
C3514 C3513 1.399 . S
C3514 C3515 1.376 . S
C3515 H3502 0.930 . S
C3515 C3514 1.376 . S
C3515 C3516 1.388 . S
C3516 H3503 0.930 . S
C3516 C3515 1.388 . S
C3516 C3517 1.390 . S
C3517 C3516 1.390 . S
C3517 C3518 1.394 . S
C3517 C3523 1.465 . S
C3518 C3513 1.399 . S
C3518 C3517 1.394 . S
C3518 C3519 1.516 . S
C3519 C3518 1.516 . S
C3519 C3520 1.502 . S
C3519 C3521 1.561 . S
C3519 C3522 1.526 . S
C3520 H3504 0.959 . S
C3520 H3505 0.959 . S
C3520 H3506 0.961 . S
C3520 C3519 1.502 . S
C3521 H3507 0.960 . S
C3521 H3508 0.961 . S
C3521 H3509 0.959 . S
C3521 C3519 1.561 . S
C3522 C3519 1.526 . S
C3522 C3523 1.396 . S
C3522 C3527 1.390 . S
C3523 C3517 1.465 . S
C3523 C3522 1.396 . S
C3523 C3524 1.399 . S
C3524 H3510 0.929 . S
C3524 C3523 1.399 . S
C3524 C3525 1.385 . S
C3525 H3511 0.931 . S
C3525 C3524 1.385 . S
C3525 C3526 1.389 . S
C3526 C3525 1.389 . S
C3526 C3527 1.387 . S
C3527 H3512 0.930 . S
C3527 C3522 1.390 . S
C3527 C3526 1.387 . S
H3528 C3540 0.930 . S
H3529 C3542 0.930 . S
H3530 C3543 0.930 . S
H3531 C3547 0.959 . S
H3532 C3547 0.959 . S
H3533 C3547 0.961 . S
H3534 C3548 0.960 . S
H3535 C3548 0.961 . S
H3536 C3548 0.959 . S
H3537 C3551 0.929 . S
H3538 C3552 0.931 . S
H3539 C3554 0.930 . S
C3540 H3528 0.930 . S
C3540 C3541 1.399 . S
C3540 C3545 1.399 . S
C3541 C3540 1.399 . S
C3541 C3542 1.376 . S
C3542 H3529 0.930 . S
C3542 C3541 1.376 . S
C3542 C3543 1.388 . S
C3543 H3530 0.930 . S
C3543 C3542 1.388 . S
C3543 C3544 1.390 . S
C3544 C3543 1.390 . S
C3544 C3545 1.394 . S
C3544 C3550 1.465 . S
C3545 C3540 1.399 . S
C3545 C3544 1.394 . S
C3545 C3546 1.516 . S
C3546 C3545 1.516 . S
C3546 C3547 1.502 . S
C3546 C3548 1.561 . S
C3546 C3549 1.526 . S
C3547 H3531 0.959 . S
C3547 H3532 0.959 . S
C3547 H3533 0.961 . S
C3547 C3546 1.502 . S
C3548 H3534 0.960 . S
C3548 H3535 0.961 . S
C3548 H3536 0.959 . S
C3548 C3546 1.561 . S
C3549 C3546 1.526 . S
C3549 C3550 1.396 . S
C3549 C3554 1.390 . S
C3550 C3544 1.465 . S
C3550 C3549 1.396 . S
C3550 C3551 1.399 . S
C3551 H3537 0.929 . S
C3551 C3550 1.399 . S
C3551 C3552 1.385 . S
C3552 H3538 0.931 . S
C3552 C3551 1.385 . S
C3552 C3553 1.389 . S
C3553 C3552 1.389 . S
C3553 C3554 1.387 . S
C3554 H3539 0.930 . S
C3554 C3549 1.390 . S
C3554 C3553 1.387 . S
H3555 C3567 0.930 . S
H3556 C3569 0.930 . S
H3557 C3570 0.930 . S
H3558 C3574 0.959 . S
H3559 C3574 0.959 . S
H3560 C3574 0.961 . S
H3561 C3575 0.960 . S
H3562 C3575 0.961 . S
H3563 C3575 0.959 . S
H3564 C3578 0.929 . S
H3565 C3579 0.931 . S
H3566 C3581 0.930 . S
C3567 H3555 0.930 . S
C3567 C3568 1.399 . S
C3567 C3572 1.399 . S
C3568 C3567 1.399 . S
C3568 C3569 1.376 . S
C3569 H3556 0.930 . S
C3569 C3568 1.376 . S
C3569 C3570 1.388 . S
C3570 H3557 0.930 . S
C3570 C3569 1.388 . S
C3570 C3571 1.390 . S
C3571 C3570 1.390 . S
C3571 C3572 1.394 . S
C3571 C3577 1.465 . S
C3572 C3567 1.399 . S
C3572 C3571 1.394 . S
C3572 C3573 1.516 . S
C3573 C3572 1.516 . S
C3573 C3574 1.502 . S
C3573 C3575 1.561 . S
C3573 C3576 1.526 . S
C3574 H3558 0.959 . S
C3574 H3559 0.959 . S
C3574 H3560 0.961 . S
C3574 C3573 1.502 . S
C3575 H3561 0.960 . S
C3575 H3562 0.961 . S
C3575 H3563 0.959 . S
C3575 C3573 1.561 . S
C3576 C3573 1.526 . S
C3576 C3577 1.396 . S
C3576 C3581 1.390 . S
C3577 C3571 1.465 . S
C3577 C3576 1.396 . S
C3577 C3578 1.399 . S
C3578 H3564 0.929 . S
C3578 C3577 1.399 . S
C3578 C3579 1.385 . S
C3579 H3565 0.931 . S
C3579 C3578 1.385 . S
C3579 C3580 1.389 . S
C3580 C3579 1.389 . S
C3580 C3581 1.387 . S
C3581 H3566 0.930 . S
C3581 C3576 1.390 . S
C3581 C3580 1.387 . S
H3582 C3594 0.930 . S
H3583 C3596 0.930 . S
H3584 C3597 0.930 . S
H3585 C3601 0.959 . S
H3586 C3601 0.959 . S
H3587 C3601 0.961 . S
H3588 C3602 0.960 . S
H3589 C3602 0.961 . S
H3590 C3602 0.959 . S
H3591 C3605 0.929 . S
H3592 C3606 0.931 . S
H3593 C3608 0.930 . S
C3594 H3582 0.930 . S
C3594 C3595 1.399 . S
C3594 C3599 1.399 . S
C3595 C3594 1.399 . S
C3595 C3596 1.376 . S
C3596 H3583 0.930 . S
C3596 C3595 1.376 . S
C3596 C3597 1.388 . S
C3597 H3584 0.930 . S
C3597 C3596 1.388 . S
C3597 C3598 1.390 . S
C3598 C3597 1.390 . S
C3598 C3599 1.394 . S
C3598 C3604 1.465 . S
C3599 C3594 1.399 . S
C3599 C3598 1.394 . S
C3599 C3600 1.516 . S
C3600 C3599 1.516 . S
C3600 C3601 1.502 . S
C3600 C3602 1.561 . S
C3600 C3603 1.526 . S
C3601 H3585 0.959 . S
C3601 H3586 0.959 . S
C3601 H3587 0.961 . S
C3601 C3600 1.502 . S
C3602 H3588 0.960 . S
C3602 H3589 0.961 . S
C3602 H3590 0.959 . S
C3602 C3600 1.561 . S
C3603 C3600 1.526 . S
C3603 C3604 1.396 . S
C3603 C3608 1.390 . S
C3604 C3598 1.465 . S
C3604 C3603 1.396 . S
C3604 C3605 1.399 . S
C3605 H3591 0.929 . S
C3605 C3604 1.399 . S
C3605 C3606 1.385 . S
C3606 H3592 0.931 . S
C3606 C3605 1.385 . S
C3606 C3607 1.389 . S
C3607 C3606 1.389 . S
C3607 C3608 1.387 . S
C3608 H3593 0.930 . S
C3608 C3603 1.390 . S
C3608 C3607 1.387 . S
H3609 C3621 0.930 . S
H3610 C3623 0.930 . S
H3611 C3624 0.930 . S
H3612 C3628 0.959 . S
H3613 C3628 0.959 . S
H3614 C3628 0.961 . S
H3615 C3629 0.960 . S
H3616 C3629 0.961 . S
H3617 C3629 0.959 . S
H3618 C3632 0.929 . S
H3619 C3633 0.931 . S
H3620 C3635 0.930 . S
C3621 H3609 0.930 . S
C3621 C3622 1.399 . S
C3621 C3626 1.399 . S
C3622 C3621 1.399 . S
C3622 C3623 1.376 . S
C3623 H3610 0.930 . S
C3623 C3622 1.376 . S
C3623 C3624 1.388 . S
C3624 H3611 0.930 . S
C3624 C3623 1.388 . S
C3624 C3625 1.390 . S
C3625 C3624 1.390 . S
C3625 C3626 1.394 . S
C3625 C3631 1.465 . S
C3626 C3621 1.399 . S
C3626 C3625 1.394 . S
C3626 C3627 1.516 . S
C3627 C3626 1.516 . S
C3627 C3628 1.502 . S
C3627 C3629 1.561 . S
C3627 C3630 1.526 . S
C3628 H3612 0.959 . S
C3628 H3613 0.959 . S
C3628 H3614 0.961 . S
C3628 C3627 1.502 . S
C3629 H3615 0.960 . S
C3629 H3616 0.961 . S
C3629 H3617 0.959 . S
C3629 C3627 1.561 . S
C3630 C3627 1.526 . S
C3630 C3631 1.396 . S
C3630 C3635 1.390 . S
C3631 C3625 1.465 . S
C3631 C3630 1.396 . S
C3631 C3632 1.399 . S
C3632 H3618 0.929 . S
C3632 C3631 1.399 . S
C3632 C3633 1.385 . S
C3633 H3619 0.931 . S
C3633 C3632 1.385 . S
C3633 C3634 1.389 . S
C3634 C3633 1.389 . S
C3634 C3635 1.387 . S
C3635 H3620 0.930 . S
C3635 C3630 1.390 . S
C3635 C3634 1.387 . S
H3636 C3648 0.930 . S
H3637 C3650 0.930 . S
H3638 C3651 0.930 . S
H3639 C3655 0.959 . S
H3640 C3655 0.959 . S
H3641 C3655 0.961 . S
H3642 C3656 0.960 . S
H3643 C3656 0.961 . S
H3644 C3656 0.959 . S
H3645 C3659 0.929 . S
H3646 C3660 0.931 . S
H3647 C3662 0.930 . S
C3648 H3636 0.930 . S
C3648 C3649 1.399 . S
C3648 C3653 1.399 . S
C3649 C3648 1.399 . S
C3649 C3650 1.376 . S
C3650 H3637 0.930 . S
C3650 C3649 1.376 . S
C3650 C3651 1.388 . S
C3651 H3638 0.930 . S
C3651 C3650 1.388 . S
C3651 C3652 1.390 . S
C3652 C3651 1.390 . S
C3652 C3653 1.394 . S
C3652 C3658 1.465 . S
C3653 C3648 1.399 . S
C3653 C3652 1.394 . S
C3653 C3654 1.516 . S
C3654 C3653 1.516 . S
C3654 C3655 1.502 . S
C3654 C3656 1.561 . S
C3654 C3657 1.526 . S
C3655 H3639 0.959 . S
C3655 H3640 0.959 . S
C3655 H3641 0.961 . S
C3655 C3654 1.502 . S
C3656 H3642 0.960 . S
C3656 H3643 0.961 . S
C3656 H3644 0.959 . S
C3656 C3654 1.561 . S
C3657 C3654 1.526 . S
C3657 C3658 1.396 . S
C3657 C3662 1.390 . S
C3658 C3652 1.465 . S
C3658 C3657 1.396 . S
C3658 C3659 1.399 . S
C3659 H3645 0.929 . S
C3659 C3658 1.399 . S
C3659 C3660 1.385 . S
C3660 H3646 0.931 . S
C3660 C3659 1.385 . S
C3660 C3661 1.389 . S
C3661 C3660 1.389 . S
C3661 C3662 1.387 . S
C3662 H3647 0.930 . S
C3662 C3657 1.390 . S
C3662 C3661 1.387 . S
H3663 C3675 0.930 . S
H3664 C3677 0.930 . S
H3665 C3678 0.930 . S
H3666 C3682 0.959 . S
H3667 C3682 0.959 . S
H3668 C3682 0.961 . S
H3669 C3683 0.960 . S
H3670 C3683 0.961 . S
H3671 C3683 0.959 . S
H3672 C3686 0.929 . S
H3673 C3687 0.931 . S
H3674 C3689 0.930 . S
C3675 H3663 0.930 . S
C3675 C3676 1.399 . S
C3675 C3680 1.399 . S
C3676 C3675 1.399 . S
C3676 C3677 1.376 . S
C3677 H3664 0.930 . S
C3677 C3676 1.376 . S
C3677 C3678 1.388 . S
C3678 H3665 0.930 . S
C3678 C3677 1.388 . S
C3678 C3679 1.390 . S
C3679 C3678 1.390 . S
C3679 C3680 1.394 . S
C3679 C3685 1.465 . S
C3680 C3675 1.399 . S
C3680 C3679 1.394 . S
C3680 C3681 1.516 . S
C3681 C3680 1.516 . S
C3681 C3682 1.502 . S
C3681 C3683 1.561 . S
C3681 C3684 1.526 . S
C3682 H3666 0.959 . S
C3682 H3667 0.959 . S
C3682 H3668 0.961 . S
C3682 C3681 1.502 . S
C3683 H3669 0.960 . S
C3683 H3670 0.961 . S
C3683 H3671 0.959 . S
C3683 C3681 1.561 . S
C3684 C3681 1.526 . S
C3684 C3685 1.396 . S
C3684 C3689 1.390 . S
C3685 C3679 1.465 . S
C3685 C3684 1.396 . S
C3685 C3686 1.399 . S
C3686 H3672 0.929 . S
C3686 C3685 1.399 . S
C3686 C3687 1.385 . S
C3687 H3673 0.931 . S
C3687 C3686 1.385 . S
C3687 C3688 1.389 . S
C3688 C3687 1.389 . S
C3688 C3689 1.387 . S
C3689 H3674 0.930 . S
C3689 C3684 1.390 . S
C3689 C3688 1.387 . S
H3690 C3702 0.930 . S
H3691 C3704 0.930 . S
H3692 C3705 0.930 . S
H3693 C3709 0.959 . S
H3694 C3709 0.959 . S
H3695 C3709 0.961 . S
H3696 C3710 0.960 . S
H3697 C3710 0.961 . S
H3698 C3710 0.959 . S
H3699 C3713 0.929 . S
H3700 C3714 0.931 . S
H3701 C3716 0.930 . S
C3702 H3690 0.930 . S
C3702 C3703 1.399 . S
C3702 C3707 1.399 . S
C3703 C3702 1.399 . S
C3703 C3704 1.376 . S
C3704 H3691 0.930 . S
C3704 C3703 1.376 . S
C3704 C3705 1.388 . S
C3705 H3692 0.930 . S
C3705 C3704 1.388 . S
C3705 C3706 1.390 . S
C3706 C3705 1.390 . S
C3706 C3707 1.394 . S
C3706 C3712 1.465 . S
C3707 C3702 1.399 . S
C3707 C3706 1.394 . S
C3707 C3708 1.516 . S
C3708 C3707 1.516 . S
C3708 C3709 1.502 . S
C3708 C3710 1.561 . S
C3708 C3711 1.526 . S
C3709 H3693 0.959 . S
C3709 H3694 0.959 . S
C3709 H3695 0.961 . S
C3709 C3708 1.502 . S
C3710 H3696 0.960 . S
C3710 H3697 0.961 . S
C3710 H3698 0.959 . S
C3710 C3708 1.561 . S
C3711 C3708 1.526 . S
C3711 C3712 1.396 . S
C3711 C3716 1.390 . S
C3712 C3706 1.465 . S
C3712 C3711 1.396 . S
C3712 C3713 1.399 . S
C3713 H3699 0.929 . S
C3713 C3712 1.399 . S
C3713 C3714 1.385 . S
C3714 H3700 0.931 . S
C3714 C3713 1.385 . S
C3714 C3715 1.389 . S
C3715 C3714 1.389 . S
C3715 C3716 1.387 . S
C3716 H3701 0.930 . S
C3716 C3711 1.390 . S
C3716 C3715 1.387 . S
H3717 C3729 0.930 . S
H3718 C3731 0.930 . S
H3719 C3732 0.930 . S
H3720 C3736 0.959 . S
H3721 C3736 0.959 . S
H3722 C3736 0.961 . S
H3723 C3737 0.960 . S
H3724 C3737 0.961 . S
H3725 C3737 0.959 . S
H3726 C3740 0.929 . S
H3727 C3741 0.931 . S
H3728 C3743 0.930 . S
C3729 H3717 0.930 . S
C3729 C3730 1.399 . S
C3729 C3734 1.399 . S
C3730 C3729 1.399 . S
C3730 C3731 1.376 . S
C3731 H3718 0.930 . S
C3731 C3730 1.376 . S
C3731 C3732 1.388 . S
C3732 H3719 0.930 . S
C3732 C3731 1.388 . S
C3732 C3733 1.390 . S
C3733 C3732 1.390 . S
C3733 C3734 1.394 . S
C3733 C3739 1.465 . S
C3734 C3729 1.399 . S
C3734 C3733 1.394 . S
C3734 C3735 1.516 . S
C3735 C3734 1.516 . S
C3735 C3736 1.502 . S
C3735 C3737 1.561 . S
C3735 C3738 1.526 . S
C3736 H3720 0.959 . S
C3736 H3721 0.959 . S
C3736 H3722 0.961 . S
C3736 C3735 1.502 . S
C3737 H3723 0.960 . S
C3737 H3724 0.961 . S
C3737 H3725 0.959 . S
C3737 C3735 1.561 . S
C3738 C3735 1.526 . S
C3738 C3739 1.396 . S
C3738 C3743 1.390 . S
C3739 C3733 1.465 . S
C3739 C3738 1.396 . S
C3739 C3740 1.399 . S
C3740 H3726 0.929 . S
C3740 C3739 1.399 . S
C3740 C3741 1.385 . S
C3741 H3727 0.931 . S
C3741 C3740 1.385 . S
C3741 C3742 1.389 . S
C3742 C3741 1.389 . S
C3742 C3743 1.387 . S
C3743 H3728 0.930 . S
C3743 C3738 1.390 . S
C3743 C3742 1.387 . S
H3744 C3756 0.930 . S
H3745 C3758 0.930 . S
H3746 C3759 0.930 . S
H3747 C3763 0.959 . S
H3748 C3763 0.959 . S
H3749 C3763 0.961 . S
H3750 C3764 0.960 . S
H3751 C3764 0.961 . S
H3752 C3764 0.959 . S
H3753 C3767 0.929 . S
H3754 C3768 0.931 . S
H3755 C3770 0.930 . S
C3756 H3744 0.930 . S
C3756 C3757 1.399 . S
C3756 C3761 1.399 . S
C3757 C3756 1.399 . S
C3757 C3758 1.376 . S
C3758 H3745 0.930 . S
C3758 C3757 1.376 . S
C3758 C3759 1.388 . S
C3759 H3746 0.930 . S
C3759 C3758 1.388 . S
C3759 C3760 1.390 . S
C3760 C3759 1.390 . S
C3760 C3761 1.394 . S
C3760 C3766 1.465 . S
C3761 C3756 1.399 . S
C3761 C3760 1.394 . S
C3761 C3762 1.516 . S
C3762 C3761 1.516 . S
C3762 C3763 1.502 . S
C3762 C3764 1.561 . S
C3762 C3765 1.526 . S
C3763 H3747 0.959 . S
C3763 H3748 0.959 . S
C3763 H3749 0.961 . S
C3763 C3762 1.502 . S
C3764 H3750 0.960 . S
C3764 H3751 0.961 . S
C3764 H3752 0.959 . S
C3764 C3762 1.561 . S
C3765 C3762 1.526 . S
C3765 C3766 1.396 . S
C3765 C3770 1.390 . S
C3766 C3760 1.465 . S
C3766 C3765 1.396 . S
C3766 C3767 1.399 . S
C3767 H3753 0.929 . S
C3767 C3766 1.399 . S
C3767 C3768 1.385 . S
C3768 H3754 0.931 . S
C3768 C3767 1.385 . S
C3768 C3769 1.389 . S
C3769 C3768 1.389 . S
C3769 C3770 1.387 . S
C3770 H3755 0.930 . S
C3770 C3765 1.390 . S
C3770 C3769 1.387 . S
H3771 C3783 0.930 . S
H3772 C3785 0.930 . S
H3773 C3786 0.930 . S
H3774 C3790 0.959 . S
H3775 C3790 0.959 . S
H3776 C3790 0.961 . S
H3777 C3791 0.960 . S
H3778 C3791 0.961 . S
H3779 C3791 0.959 . S
H3780 C3794 0.929 . S
H3781 C3795 0.931 . S
H3782 C3797 0.930 . S
C3783 H3771 0.930 . S
C3783 C3784 1.399 . S
C3783 C3788 1.399 . S
C3784 C3783 1.399 . S
C3784 C3785 1.376 . S
C3785 H3772 0.930 . S
C3785 C3784 1.376 . S
C3785 C3786 1.388 . S
C3786 H3773 0.930 . S
C3786 C3785 1.388 . S
C3786 C3787 1.390 . S
C3787 C3786 1.390 . S
C3787 C3788 1.394 . S
C3787 C3793 1.465 . S
C3788 C3783 1.399 . S
C3788 C3787 1.394 . S
C3788 C3789 1.516 . S
C3789 C3788 1.516 . S
C3789 C3790 1.502 . S
C3789 C3791 1.561 . S
C3789 C3792 1.526 . S
C3790 H3774 0.959 . S
C3790 H3775 0.959 . S
C3790 H3776 0.961 . S
C3790 C3789 1.502 . S
C3791 H3777 0.960 . S
C3791 H3778 0.961 . S
C3791 H3779 0.959 . S
C3791 C3789 1.561 . S
C3792 C3789 1.526 . S
C3792 C3793 1.396 . S
C3792 C3797 1.390 . S
C3793 C3787 1.465 . S
C3793 C3792 1.396 . S
C3793 C3794 1.399 . S
C3794 H3780 0.929 . S
C3794 C3793 1.399 . S
C3794 C3795 1.385 . S
C3795 H3781 0.931 . S
C3795 C3794 1.385 . S
C3795 C3796 1.389 . S
C3796 C3795 1.389 . S
C3796 C3797 1.387 . S
C3797 H3782 0.930 . S
C3797 C3792 1.390 . S
C3797 C3796 1.387 . S
H3798 C3810 0.930 . S
H3799 C3812 0.930 . S
H3800 C3813 0.930 . S
H3801 C3817 0.959 . S
H3802 C3817 0.959 . S
H3803 C3817 0.961 . S
H3804 C3818 0.960 . S
H3805 C3818 0.961 . S
H3806 C3818 0.959 . S
H3807 C3821 0.929 . S
H3808 C3822 0.931 . S
H3809 C3824 0.930 . S
C3810 H3798 0.930 . S
C3810 C3811 1.399 . S
C3810 C3815 1.399 . S
C3811 C3810 1.399 . S
C3811 C3812 1.376 . S
C3812 H3799 0.930 . S
C3812 C3811 1.376 . S
C3812 C3813 1.388 . S
C3813 H3800 0.930 . S
C3813 C3812 1.388 . S
C3813 C3814 1.390 . S
C3814 C3813 1.390 . S
C3814 C3815 1.394 . S
C3814 C3820 1.465 . S
C3815 C3810 1.399 . S
C3815 C3814 1.394 . S
C3815 C3816 1.516 . S
C3816 C3815 1.516 . S
C3816 C3817 1.502 . S
C3816 C3818 1.561 . S
C3816 C3819 1.526 . S
C3817 H3801 0.959 . S
C3817 H3802 0.959 . S
C3817 H3803 0.961 . S
C3817 C3816 1.502 . S
C3818 H3804 0.960 . S
C3818 H3805 0.961 . S
C3818 H3806 0.959 . S
C3818 C3816 1.561 . S
C3819 C3816 1.526 . S
C3819 C3820 1.396 . S
C3819 C3824 1.390 . S
C3820 C3814 1.465 . S
C3820 C3819 1.396 . S
C3820 C3821 1.399 . S
C3821 H3807 0.929 . S
C3821 C3820 1.399 . S
C3821 C3822 1.385 . S
C3822 H3808 0.931 . S
C3822 C3821 1.385 . S
C3822 C3823 1.389 . S
C3823 C3822 1.389 . S
C3823 C3824 1.387 . S
C3824 H3809 0.930 . S
C3824 C3819 1.390 . S
C3824 C3823 1.387 . S
H3825 C3837 0.930 . S
H3826 C3839 0.930 . S
H3827 C3840 0.930 . S
H3828 C3844 0.959 . S
H3829 C3844 0.959 . S
H3830 C3844 0.961 . S
H3831 C3845 0.960 . S
H3832 C3845 0.961 . S
H3833 C3845 0.959 . S
H3834 C3848 0.929 . S
H3835 C3849 0.931 . S
H3836 C3851 0.930 . S
C3837 H3825 0.930 . S
C3837 C3838 1.399 . S
C3837 C3842 1.399 . S
C3838 C3837 1.399 . S
C3838 C3839 1.376 . S
C3839 H3826 0.930 . S
C3839 C3838 1.376 . S
C3839 C3840 1.388 . S
C3840 H3827 0.930 . S
C3840 C3839 1.388 . S
C3840 C3841 1.390 . S
C3841 C3840 1.390 . S
C3841 C3842 1.394 . S
C3841 C3847 1.465 . S
C3842 C3837 1.399 . S
C3842 C3841 1.394 . S
C3842 C3843 1.516 . S
C3843 C3842 1.516 . S
C3843 C3844 1.502 . S
C3843 C3845 1.561 . S
C3843 C3846 1.526 . S
C3844 H3828 0.959 . S
C3844 H3829 0.959 . S
C3844 H3830 0.961 . S
C3844 C3843 1.502 . S
C3845 H3831 0.960 . S
C3845 H3832 0.961 . S
C3845 H3833 0.959 . S
C3845 C3843 1.561 . S
C3846 C3843 1.526 . S
C3846 C3847 1.396 . S
C3846 C3851 1.390 . S
C3847 C3841 1.465 . S
C3847 C3846 1.396 . S
C3847 C3848 1.399 . S
C3848 H3834 0.929 . S
C3848 C3847 1.399 . S
C3848 C3849 1.385 . S
C3849 H3835 0.931 . S
C3849 C3848 1.385 . S
C3849 C3850 1.389 . S
C3850 C3849 1.389 . S
C3850 C3851 1.387 . S
C3851 H3836 0.930 . S
C3851 C3846 1.390 . S
C3851 C3850 1.387 . S
H3852 C3864 0.930 . S
H3853 C3866 0.930 . S
H3854 C3867 0.930 . S
H3855 C3871 0.959 . S
H3856 C3871 0.959 . S
H3857 C3871 0.961 . S
H3858 C3872 0.960 . S
H3859 C3872 0.961 . S
H3860 C3872 0.959 . S
H3861 C3875 0.929 . S
H3862 C3876 0.931 . S
H3863 C3878 0.930 . S
C3864 H3852 0.930 . S
C3864 C3865 1.399 . S
C3864 C3869 1.399 . S
C3865 C3864 1.399 . S
C3865 C3866 1.376 . S
C3866 H3853 0.930 . S
C3866 C3865 1.376 . S
C3866 C3867 1.388 . S
C3867 H3854 0.930 . S
C3867 C3866 1.388 . S
C3867 C3868 1.390 . S
C3868 C3867 1.390 . S
C3868 C3869 1.394 . S
C3868 C3874 1.465 . S
C3869 C3864 1.399 . S
C3869 C3868 1.394 . S
C3869 C3870 1.516 . S
C3870 C3869 1.516 . S
C3870 C3871 1.502 . S
C3870 C3872 1.561 . S
C3870 C3873 1.526 . S
C3871 H3855 0.959 . S
C3871 H3856 0.959 . S
C3871 H3857 0.961 . S
C3871 C3870 1.502 . S
C3872 H3858 0.960 . S
C3872 H3859 0.961 . S
C3872 H3860 0.959 . S
C3872 C3870 1.561 . S
C3873 C3870 1.526 . S
C3873 C3874 1.396 . S
C3873 C3878 1.390 . S
C3874 C3868 1.465 . S
C3874 C3873 1.396 . S
C3874 C3875 1.399 . S
C3875 H3861 0.929 . S
C3875 C3874 1.399 . S
C3875 C3876 1.385 . S
C3876 H3862 0.931 . S
C3876 C3875 1.385 . S
C3876 C3877 1.389 . S
C3877 C3876 1.389 . S
C3877 C3878 1.387 . S
C3878 H3863 0.930 . S
C3878 C3873 1.390 . S
C3878 C3877 1.387 . S
H3879 C3891 0.930 . S
H3880 C3893 0.930 . S
H3881 C3894 0.930 . S
H3882 C3898 0.959 . S
H3883 C3898 0.959 . S
H3884 C3898 0.961 . S
H3885 C3899 0.960 . S
H3886 C3899 0.961 . S
H3887 C3899 0.959 . S
H3888 C3902 0.929 . S
H3889 C3903 0.931 . S
H3890 C3905 0.930 . S
C3891 H3879 0.930 . S
C3891 C3892 1.399 . S
C3891 C3896 1.399 . S
C3892 C3891 1.399 . S
C3892 C3893 1.376 . S
C3893 H3880 0.930 . S
C3893 C3892 1.376 . S
C3893 C3894 1.388 . S
C3894 H3881 0.930 . S
C3894 C3893 1.388 . S
C3894 C3895 1.390 . S
C3895 C3894 1.390 . S
C3895 C3896 1.394 . S
C3895 C3901 1.465 . S
C3896 C3891 1.399 . S
C3896 C3895 1.394 . S
C3896 C3897 1.516 . S
C3897 C3896 1.516 . S
C3897 C3898 1.502 . S
C3897 C3899 1.561 . S
C3897 C3900 1.526 . S
C3898 H3882 0.959 . S
C3898 H3883 0.959 . S
C3898 H3884 0.961 . S
C3898 C3897 1.502 . S
C3899 H3885 0.960 . S
C3899 H3886 0.961 . S
C3899 H3887 0.959 . S
C3899 C3897 1.561 . S
C3900 C3897 1.526 . S
C3900 C3901 1.396 . S
C3900 C3905 1.390 . S
C3901 C3895 1.465 . S
C3901 C3900 1.396 . S
C3901 C3902 1.399 . S
C3902 H3888 0.929 . S
C3902 C3901 1.399 . S
C3902 C3903 1.385 . S
C3903 H3889 0.931 . S
C3903 C3902 1.385 . S
C3903 C3904 1.389 . S
C3904 C3903 1.389 . S
C3904 C3905 1.387 . S
C3905 H3890 0.930 . S
C3905 C3900 1.390 . S
C3905 C3904 1.387 . S
H3906 C3918 0.930 . S
H3907 C3920 0.930 . S
H3908 C3921 0.930 . S
H3909 C3925 0.959 . S
H3910 C3925 0.959 . S
H3911 C3925 0.961 . S
H3912 C3926 0.960 . S
H3913 C3926 0.961 . S
H3914 C3926 0.959 . S
H3915 C3929 0.929 . S
H3916 C3930 0.931 . S
H3917 C3932 0.930 . S
C3918 H3906 0.930 . S
C3918 C3919 1.399 . S
C3918 C3923 1.399 . S
C3919 C3918 1.399 . S
C3919 C3920 1.376 . S
C3920 H3907 0.930 . S
C3920 C3919 1.376 . S
C3920 C3921 1.388 . S
C3921 H3908 0.930 . S
C3921 C3920 1.388 . S
C3921 C3922 1.390 . S
C3922 C3921 1.390 . S
C3922 C3923 1.394 . S
C3922 C3928 1.465 . S
C3923 C3918 1.399 . S
C3923 C3922 1.394 . S
C3923 C3924 1.516 . S
C3924 C3923 1.516 . S
C3924 C3925 1.502 . S
C3924 C3926 1.561 . S
C3924 C3927 1.526 . S
C3925 H3909 0.959 . S
C3925 H3910 0.959 . S
C3925 H3911 0.961 . S
C3925 C3924 1.502 . S
C3926 H3912 0.960 . S
C3926 H3913 0.961 . S
C3926 H3914 0.959 . S
C3926 C3924 1.561 . S
C3927 C3924 1.526 . S
C3927 C3928 1.396 . S
C3927 C3932 1.390 . S
C3928 C3922 1.465 . S
C3928 C3927 1.396 . S
C3928 C3929 1.399 . S
C3929 H3915 0.929 . S
C3929 C3928 1.399 . S
C3929 C3930 1.385 . S
C3930 H3916 0.931 . S
C3930 C3929 1.385 . S
C3930 C3931 1.389 . S
C3931 C3930 1.389 . S
C3931 C3932 1.387 . S
C3932 H3917 0.930 . S
C3932 C3927 1.390 . S
C3932 C3931 1.387 . S
H3933 C3945 0.930 . S
H3934 C3947 0.930 . S
H3935 C3948 0.930 . S
H3936 C3952 0.959 . S
H3937 C3952 0.959 . S
H3938 C3952 0.961 . S
H3939 C3953 0.960 . S
H3940 C3953 0.961 . S
H3941 C3953 0.959 . S
H3942 C3956 0.929 . S
H3943 C3957 0.931 . S
H3944 C3959 0.930 . S
C3945 H3933 0.930 . S
C3945 C3946 1.399 . S
C3945 C3950 1.399 . S
C3946 C3945 1.399 . S
C3946 C3947 1.376 . S
C3947 H3934 0.930 . S
C3947 C3946 1.376 . S
C3947 C3948 1.388 . S
C3948 H3935 0.930 . S
C3948 C3947 1.388 . S
C3948 C3949 1.390 . S
C3949 C3948 1.390 . S
C3949 C3950 1.394 . S
C3949 C3955 1.465 . S
C3950 C3945 1.399 . S
C3950 C3949 1.394 . S
C3950 C3951 1.516 . S
C3951 C3950 1.516 . S
C3951 C3952 1.502 . S
C3951 C3953 1.561 . S
C3951 C3954 1.526 . S
C3952 H3936 0.959 . S
C3952 H3937 0.959 . S
C3952 H3938 0.961 . S
C3952 C3951 1.502 . S
C3953 H3939 0.960 . S
C3953 H3940 0.961 . S
C3953 H3941 0.959 . S
C3953 C3951 1.561 . S
C3954 C3951 1.526 . S
C3954 C3955 1.396 . S
C3954 C3959 1.390 . S
C3955 C3949 1.465 . S
C3955 C3954 1.396 . S
C3955 C3956 1.399 . S
C3956 H3942 0.929 . S
C3956 C3955 1.399 . S
C3956 C3957 1.385 . S
C3957 H3943 0.931 . S
C3957 C3956 1.385 . S
C3957 C3958 1.389 . S
C3958 C3957 1.389 . S
C3958 C3959 1.387 . S
C3959 H3944 0.930 . S
C3959 C3954 1.390 . S
C3959 C3958 1.387 . S
H3960 C3972 0.930 . S
H3961 C3974 0.930 . S
H3962 C3975 0.930 . S
H3963 C3979 0.959 . S
H3964 C3979 0.959 . S
H3965 C3979 0.961 . S
H3966 C3980 0.960 . S
H3967 C3980 0.961 . S
H3968 C3980 0.959 . S
H3969 C3983 0.929 . S
H3970 C3984 0.931 . S
H3971 C3986 0.930 . S
C3972 H3960 0.930 . S
C3972 C3973 1.399 . S
C3972 C3977 1.399 . S
C3973 C3972 1.399 . S
C3973 C3974 1.376 . S
C3974 H3961 0.930 . S
C3974 C3973 1.376 . S
C3974 C3975 1.388 . S
C3975 H3962 0.930 . S
C3975 C3974 1.388 . S
C3975 C3976 1.390 . S
C3976 C3975 1.390 . S
C3976 C3977 1.394 . S
C3976 C3982 1.465 . S
C3977 C3972 1.399 . S
C3977 C3976 1.394 . S
C3977 C3978 1.516 . S
C3978 C3977 1.516 . S
C3978 C3979 1.502 . S
C3978 C3980 1.561 . S
C3978 C3981 1.526 . S
C3979 H3963 0.959 . S
C3979 H3964 0.959 . S
C3979 H3965 0.961 . S
C3979 C3978 1.502 . S
C3980 H3966 0.960 . S
C3980 H3967 0.961 . S
C3980 H3968 0.959 . S
C3980 C3978 1.561 . S
C3981 C3978 1.526 . S
C3981 C3982 1.396 . S
C3981 C3986 1.390 . S
C3982 C3976 1.465 . S
C3982 C3981 1.396 . S
C3982 C3983 1.399 . S
C3983 H3969 0.929 . S
C3983 C3982 1.399 . S
C3983 C3984 1.385 . S
C3984 H3970 0.931 . S
C3984 C3983 1.385 . S
C3984 C3985 1.389 . S
C3985 C3984 1.389 . S
C3985 C3986 1.387 . S
C3986 H3971 0.930 . S
C3986 C3981 1.390 . S
C3986 C3985 1.387 . S
H3987 C3999 0.930 . S
H3988 C4001 0.930 . S
H3989 C4002 0.930 . S
H3990 C4006 0.959 . S
H3991 C4006 0.959 . S
H3992 C4006 0.961 . S
H3993 C4007 0.960 . S
H3994 C4007 0.961 . S
H3995 C4007 0.959 . S
H3996 C4010 0.929 . S
H3997 C4011 0.931 . S
H3998 C4013 0.930 . S
C3999 H3987 0.930 . S
C3999 C4000 1.399 . S
C3999 C4004 1.399 . S
C4000 C3999 1.399 . S
C4000 C4001 1.376 . S
C4001 H3988 0.930 . S
C4001 C4000 1.376 . S
C4001 C4002 1.388 . S
C4002 H3989 0.930 . S
C4002 C4001 1.388 . S
C4002 C4003 1.390 . S
C4003 C4002 1.390 . S
C4003 C4004 1.394 . S
C4003 C4009 1.465 . S
C4004 C3999 1.399 . S
C4004 C4003 1.394 . S
C4004 C4005 1.516 . S
C4005 C4004 1.516 . S
C4005 C4006 1.502 . S
C4005 C4007 1.561 . S
C4005 C4008 1.526 . S
C4006 H3990 0.959 . S
C4006 H3991 0.959 . S
C4006 H3992 0.961 . S
C4006 C4005 1.502 . S
C4007 H3993 0.960 . S
C4007 H3994 0.961 . S
C4007 H3995 0.959 . S
C4007 C4005 1.561 . S
C4008 C4005 1.526 . S
C4008 C4009 1.396 . S
C4008 C4013 1.390 . S
C4009 C4003 1.465 . S
C4009 C4008 1.396 . S
C4009 C4010 1.399 . S
C4010 H3996 0.929 . S
C4010 C4009 1.399 . S
C4010 C4011 1.385 . S
C4011 H3997 0.931 . S
C4011 C4010 1.385 . S
C4011 C4012 1.389 . S
C4012 C4011 1.389 . S
C4012 C4013 1.387 . S
C4013 H3998 0.930 . S
C4013 C4008 1.390 . S
C4013 C4012 1.387 . S
H4014 C4026 0.930 . S
H4015 C4028 0.930 . S
H4016 C4029 0.930 . S
H4017 C4033 0.959 . S
H4018 C4033 0.959 . S
H4019 C4033 0.961 . S
H4020 C4034 0.960 . S
H4021 C4034 0.961 . S
H4022 C4034 0.959 . S
H4023 C4037 0.929 . S
H4024 C4038 0.931 . S
H4025 C4040 0.930 . S
C4026 H4014 0.930 . S
C4026 C4027 1.399 . S
C4026 C4031 1.399 . S
C4027 C4026 1.399 . S
C4027 C4028 1.376 . S
C4028 H4015 0.930 . S
C4028 C4027 1.376 . S
C4028 C4029 1.388 . S
C4029 H4016 0.930 . S
C4029 C4028 1.388 . S
C4029 C4030 1.390 . S
C4030 C4029 1.390 . S
C4030 C4031 1.394 . S
C4030 C4036 1.465 . S
C4031 C4026 1.399 . S
C4031 C4030 1.394 . S
C4031 C4032 1.516 . S
C4032 C4031 1.516 . S
C4032 C4033 1.502 . S
C4032 C4034 1.561 . S
C4032 C4035 1.526 . S
C4033 H4017 0.959 . S
C4033 H4018 0.959 . S
C4033 H4019 0.961 . S
C4033 C4032 1.502 . S
C4034 H4020 0.960 . S
C4034 H4021 0.961 . S
C4034 H4022 0.959 . S
C4034 C4032 1.561 . S
C4035 C4032 1.526 . S
C4035 C4036 1.396 . S
C4035 C4040 1.390 . S
C4036 C4030 1.465 . S
C4036 C4035 1.396 . S
C4036 C4037 1.399 . S
C4037 H4023 0.929 . S
C4037 C4036 1.399 . S
C4037 C4038 1.385 . S
C4038 H4024 0.931 . S
C4038 C4037 1.385 . S
C4038 C4039 1.389 . S
C4039 C4038 1.389 . S
C4039 C4040 1.387 . S
C4040 H4025 0.930 . S
C4040 C4035 1.390 . S
C4040 C4039 1.387 . S
H4041 C4053 0.930 . S
H4042 C4055 0.930 . S
H4043 C4056 0.930 . S
H4044 C4060 0.959 . S
H4045 C4060 0.959 . S
H4046 C4060 0.961 . S
H4047 C4061 0.960 . S
H4048 C4061 0.961 . S
H4049 C4061 0.959 . S
H4050 C4064 0.929 . S
H4051 C4065 0.931 . S
H4052 C4067 0.930 . S
C4053 H4041 0.930 . S
C4053 C4054 1.399 . S
C4053 C4058 1.399 . S
C4054 C4053 1.399 . S
C4054 C4055 1.376 . S
C4055 H4042 0.930 . S
C4055 C4054 1.376 . S
C4055 C4056 1.388 . S
C4056 H4043 0.930 . S
C4056 C4055 1.388 . S
C4056 C4057 1.390 . S
C4057 C4056 1.390 . S
C4057 C4058 1.394 . S
C4057 C4063 1.465 . S
C4058 C4053 1.399 . S
C4058 C4057 1.394 . S
C4058 C4059 1.516 . S
C4059 C4058 1.516 . S
C4059 C4060 1.502 . S
C4059 C4061 1.561 . S
C4059 C4062 1.526 . S
C4060 H4044 0.959 . S
C4060 H4045 0.959 . S
C4060 H4046 0.961 . S
C4060 C4059 1.502 . S
C4061 H4047 0.960 . S
C4061 H4048 0.961 . S
C4061 H4049 0.959 . S
C4061 C4059 1.561 . S
C4062 C4059 1.526 . S
C4062 C4063 1.396 . S
C4062 C4067 1.390 . S
C4063 C4057 1.465 . S
C4063 C4062 1.396 . S
C4063 C4064 1.399 . S
C4064 H4050 0.929 . S
C4064 C4063 1.399 . S
C4064 C4065 1.385 . S
C4065 H4051 0.931 . S
C4065 C4064 1.385 . S
C4065 C4066 1.389 . S
C4066 C4065 1.389 . S
C4066 C4067 1.387 . S
C4067 H4052 0.930 . S
C4067 C4062 1.390 . S
C4067 C4066 1.387 . S
H4068 C4080 0.930 . S
H4069 C4082 0.930 . S
H4070 C4083 0.930 . S
H4071 C4087 0.959 . S
H4072 C4087 0.959 . S
H4073 C4087 0.961 . S
H4074 C4088 0.960 . S
H4075 C4088 0.961 . S
H4076 C4088 0.959 . S
H4077 C4091 0.929 . S
H4078 C4092 0.931 . S
H4079 C4094 0.930 . S
C4080 H4068 0.930 . S
C4080 C4081 1.399 . S
C4080 C4085 1.399 . S
C4081 C4080 1.399 . S
C4081 C4082 1.376 . S
C4082 H4069 0.930 . S
C4082 C4081 1.376 . S
C4082 C4083 1.388 . S
C4083 H4070 0.930 . S
C4083 C4082 1.388 . S
C4083 C4084 1.390 . S
C4084 C4083 1.390 . S
C4084 C4085 1.394 . S
C4084 C4090 1.465 . S
C4085 C4080 1.399 . S
C4085 C4084 1.394 . S
C4085 C4086 1.516 . S
C4086 C4085 1.516 . S
C4086 C4087 1.502 . S
C4086 C4088 1.561 . S
C4086 C4089 1.526 . S
C4087 H4071 0.959 . S
C4087 H4072 0.959 . S
C4087 H4073 0.961 . S
C4087 C4086 1.502 . S
C4088 H4074 0.960 . S
C4088 H4075 0.961 . S
C4088 H4076 0.959 . S
C4088 C4086 1.561 . S
C4089 C4086 1.526 . S
C4089 C4090 1.396 . S
C4089 C4094 1.390 . S
C4090 C4084 1.465 . S
C4090 C4089 1.396 . S
C4090 C4091 1.399 . S
C4091 H4077 0.929 . S
C4091 C4090 1.399 . S
C4091 C4092 1.385 . S
C4092 H4078 0.931 . S
C4092 C4091 1.385 . S
C4092 C4093 1.389 . S
C4093 C4092 1.389 . S
C4093 C4094 1.387 . S
C4094 H4079 0.930 . S
C4094 C4089 1.390 . S
C4094 C4093 1.387 . S
H4095 C4107 0.930 . S
H4096 C4109 0.930 . S
H4097 C4110 0.930 . S
H4098 C4114 0.959 . S
H4099 C4114 0.959 . S
H4100 C4114 0.961 . S
H4101 C4115 0.960 . S
H4102 C4115 0.961 . S
H4103 C4115 0.959 . S
H4104 C4118 0.929 . S
H4105 C4119 0.931 . S
H4106 C4121 0.930 . S
C4107 H4095 0.930 . S
C4107 C4108 1.399 . S
C4107 C4112 1.399 . S
C4108 C4107 1.399 . S
C4108 C4109 1.376 . S
C4109 H4096 0.930 . S
C4109 C4108 1.376 . S
C4109 C4110 1.388 . S
C4110 H4097 0.930 . S
C4110 C4109 1.388 . S
C4110 C4111 1.390 . S
C4111 C4110 1.390 . S
C4111 C4112 1.394 . S
C4111 C4117 1.465 . S
C4112 C4107 1.399 . S
C4112 C4111 1.394 . S
C4112 C4113 1.516 . S
C4113 C4112 1.516 . S
C4113 C4114 1.502 . S
C4113 C4115 1.561 . S
C4113 C4116 1.526 . S
C4114 H4098 0.959 . S
C4114 H4099 0.959 . S
C4114 H4100 0.961 . S
C4114 C4113 1.502 . S
C4115 H4101 0.960 . S
C4115 H4102 0.961 . S
C4115 H4103 0.959 . S
C4115 C4113 1.561 . S
C4116 C4113 1.526 . S
C4116 C4117 1.396 . S
C4116 C4121 1.390 . S
C4117 C4111 1.465 . S
C4117 C4116 1.396 . S
C4117 C4118 1.399 . S
C4118 H4104 0.929 . S
C4118 C4117 1.399 . S
C4118 C4119 1.385 . S
C4119 H4105 0.931 . S
C4119 C4118 1.385 . S
C4119 C4120 1.389 . S
C4120 C4119 1.389 . S
C4120 C4121 1.387 . S
C4121 H4106 0.930 . S
C4121 C4116 1.390 . S
C4121 C4120 1.387 . S
H4122 C4134 0.930 . S
H4123 C4136 0.930 . S
H4124 C4137 0.930 . S
H4125 C4141 0.959 . S
H4126 C4141 0.959 . S
H4127 C4141 0.961 . S
H4128 C4142 0.960 . S
H4129 C4142 0.961 . S
H4130 C4142 0.959 . S
H4131 C4145 0.929 . S
H4132 C4146 0.931 . S
H4133 C4148 0.930 . S
C4134 H4122 0.930 . S
C4134 C4135 1.399 . S
C4134 C4139 1.399 . S
C4135 C4134 1.399 . S
C4135 C4136 1.376 . S
C4136 H4123 0.930 . S
C4136 C4135 1.376 . S
C4136 C4137 1.388 . S
C4137 H4124 0.930 . S
C4137 C4136 1.388 . S
C4137 C4138 1.390 . S
C4138 C4137 1.390 . S
C4138 C4139 1.394 . S
C4138 C4144 1.465 . S
C4139 C4134 1.399 . S
C4139 C4138 1.394 . S
C4139 C4140 1.516 . S
C4140 C4139 1.516 . S
C4140 C4141 1.502 . S
C4140 C4142 1.561 . S
C4140 C4143 1.526 . S
C4141 H4125 0.959 . S
C4141 H4126 0.959 . S
C4141 H4127 0.961 . S
C4141 C4140 1.502 . S
C4142 H4128 0.960 . S
C4142 H4129 0.961 . S
C4142 H4130 0.959 . S
C4142 C4140 1.561 . S
C4143 C4140 1.526 . S
C4143 C4144 1.396 . S
C4143 C4148 1.390 . S
C4144 C4138 1.465 . S
C4144 C4143 1.396 . S
C4144 C4145 1.399 . S
C4145 H4131 0.929 . S
C4145 C4144 1.399 . S
C4145 C4146 1.385 . S
C4146 H4132 0.931 . S
C4146 C4145 1.385 . S
C4146 C4147 1.389 . S
C4147 C4146 1.389 . S
C4147 C4148 1.387 . S
C4148 H4133 0.930 . S
C4148 C4143 1.390 . S
C4148 C4147 1.387 . S
H4149 C4161 0.930 . S
H4150 C4163 0.930 . S
H4151 C4164 0.930 . S
H4152 C4168 0.959 . S
H4153 C4168 0.959 . S
H4154 C4168 0.961 . S
H4155 C4169 0.960 . S
H4156 C4169 0.961 . S
H4157 C4169 0.959 . S
H4158 C4172 0.929 . S
H4159 C4173 0.931 . S
H4160 C4175 0.930 . S
C4161 H4149 0.930 . S
C4161 C4162 1.399 . S
C4161 C4166 1.399 . S
C4162 C4161 1.399 . S
C4162 C4163 1.376 . S
C4163 H4150 0.930 . S
C4163 C4162 1.376 . S
C4163 C4164 1.388 . S
C4164 H4151 0.930 . S
C4164 C4163 1.388 . S
C4164 C4165 1.390 . S
C4165 C4164 1.390 . S
C4165 C4166 1.394 . S
C4165 C4171 1.465 . S
C4166 C4161 1.399 . S
C4166 C4165 1.394 . S
C4166 C4167 1.516 . S
C4167 C4166 1.516 . S
C4167 C4168 1.502 . S
C4167 C4169 1.561 . S
C4167 C4170 1.526 . S
C4168 H4152 0.959 . S
C4168 H4153 0.959 . S
C4168 H4154 0.961 . S
C4168 C4167 1.502 . S
C4169 H4155 0.960 . S
C4169 H4156 0.961 . S
C4169 H4157 0.959 . S
C4169 C4167 1.561 . S
C4170 C4167 1.526 . S
C4170 C4171 1.396 . S
C4170 C4175 1.390 . S
C4171 C4165 1.465 . S
C4171 C4170 1.396 . S
C4171 C4172 1.399 . S
C4172 H4158 0.929 . S
C4172 C4171 1.399 . S
C4172 C4173 1.385 . S
C4173 H4159 0.931 . S
C4173 C4172 1.385 . S
C4173 C4174 1.389 . S
C4174 C4173 1.389 . S
C4174 C4175 1.387 . S
C4175 H4160 0.930 . S
C4175 C4170 1.390 . S
C4175 C4174 1.387 . S
H4176 C4188 0.930 . S
H4177 C4190 0.930 . S
H4178 C4191 0.930 . S
H4179 C4195 0.959 . S
H4180 C4195 0.959 . S
H4181 C4195 0.961 . S
H4182 C4196 0.960 . S
H4183 C4196 0.961 . S
H4184 C4196 0.959 . S
H4185 C4199 0.929 . S
H4186 C4200 0.931 . S
H4187 C4202 0.930 . S
C4188 H4176 0.930 . S
C4188 C4189 1.399 . S
C4188 C4193 1.399 . S
C4189 C4188 1.399 . S
C4189 C4190 1.376 . S
C4190 H4177 0.930 . S
C4190 C4189 1.376 . S
C4190 C4191 1.388 . S
C4191 H4178 0.930 . S
C4191 C4190 1.388 . S
C4191 C4192 1.390 . S
C4192 C4191 1.390 . S
C4192 C4193 1.394 . S
C4192 C4198 1.465 . S
C4193 C4188 1.399 . S
C4193 C4192 1.394 . S
C4193 C4194 1.516 . S
C4194 C4193 1.516 . S
C4194 C4195 1.502 . S
C4194 C4196 1.561 . S
C4194 C4197 1.526 . S
C4195 H4179 0.959 . S
C4195 H4180 0.959 . S
C4195 H4181 0.961 . S
C4195 C4194 1.502 . S
C4196 H4182 0.960 . S
C4196 H4183 0.961 . S
C4196 H4184 0.959 . S
C4196 C4194 1.561 . S
C4197 C4194 1.526 . S
C4197 C4198 1.396 . S
C4197 C4202 1.390 . S
C4198 C4192 1.465 . S
C4198 C4197 1.396 . S
C4198 C4199 1.399 . S
C4199 H4185 0.929 . S
C4199 C4198 1.399 . S
C4199 C4200 1.385 . S
C4200 H4186 0.931 . S
C4200 C4199 1.385 . S
C4200 C4201 1.389 . S
C4201 C4200 1.389 . S
C4201 C4202 1.387 . S
C4202 H4187 0.930 . S
C4202 C4197 1.390 . S
C4202 C4201 1.387 . S
H4203 C4215 0.930 . S
H4204 C4217 0.930 . S
H4205 C4218 0.930 . S
H4206 C4222 0.959 . S
H4207 C4222 0.959 . S
H4208 C4222 0.961 . S
H4209 C4223 0.960 . S
H4210 C4223 0.961 . S
H4211 C4223 0.959 . S
H4212 C4226 0.929 . S
H4213 C4227 0.931 . S
H4214 C4229 0.930 . S
C4215 H4203 0.930 . S
C4215 C4216 1.399 . S
C4215 C4220 1.399 . S
C4216 C4215 1.399 . S
C4216 C4217 1.376 . S
C4217 H4204 0.930 . S
C4217 C4216 1.376 . S
C4217 C4218 1.388 . S
C4218 H4205 0.930 . S
C4218 C4217 1.388 . S
C4218 C4219 1.390 . S
C4219 C4218 1.390 . S
C4219 C4220 1.394 . S
C4219 C4225 1.465 . S
C4220 C4215 1.399 . S
C4220 C4219 1.394 . S
C4220 C4221 1.516 . S
C4221 C4220 1.516 . S
C4221 C4222 1.502 . S
C4221 C4223 1.561 . S
C4221 C4224 1.526 . S
C4222 H4206 0.959 . S
C4222 H4207 0.959 . S
C4222 H4208 0.961 . S
C4222 C4221 1.502 . S
C4223 H4209 0.960 . S
C4223 H4210 0.961 . S
C4223 H4211 0.959 . S
C4223 C4221 1.561 . S
C4224 C4221 1.526 . S
C4224 C4225 1.396 . S
C4224 C4229 1.390 . S
C4225 C4219 1.465 . S
C4225 C4224 1.396 . S
C4225 C4226 1.399 . S
C4226 H4212 0.929 . S
C4226 C4225 1.399 . S
C4226 C4227 1.385 . S
C4227 H4213 0.931 . S
C4227 C4226 1.385 . S
C4227 C4228 1.389 . S
C4228 C4227 1.389 . S
C4228 C4229 1.387 . S
C4229 H4214 0.930 . S
C4229 C4224 1.390 . S
C4229 C4228 1.387 . S
H4230 C4242 0.930 . S
H4231 C4244 0.930 . S
H4232 C4245 0.930 . S
H4233 C4249 0.959 . S
H4234 C4249 0.959 . S
H4235 C4249 0.961 . S
H4236 C4250 0.960 . S
H4237 C4250 0.961 . S
H4238 C4250 0.959 . S
H4239 C4253 0.929 . S
H4240 C4254 0.931 . S
H4241 C4256 0.930 . S
C4242 H4230 0.930 . S
C4242 C4243 1.399 . S
C4242 C4247 1.399 . S
C4243 C4242 1.399 . S
C4243 C4244 1.376 . S
C4244 H4231 0.930 . S
C4244 C4243 1.376 . S
C4244 C4245 1.388 . S
C4245 H4232 0.930 . S
C4245 C4244 1.388 . S
C4245 C4246 1.390 . S
C4246 C4245 1.390 . S
C4246 C4247 1.394 . S
C4246 C4252 1.465 . S
C4247 C4242 1.399 . S
C4247 C4246 1.394 . S
C4247 C4248 1.516 . S
C4248 C4247 1.516 . S
C4248 C4249 1.502 . S
C4248 C4250 1.561 . S
C4248 C4251 1.526 . S
C4249 H4233 0.959 . S
C4249 H4234 0.959 . S
C4249 H4235 0.961 . S
C4249 C4248 1.502 . S
C4250 H4236 0.960 . S
C4250 H4237 0.961 . S
C4250 H4238 0.959 . S
C4250 C4248 1.561 . S
C4251 C4248 1.526 . S
C4251 C4252 1.396 . S
C4251 C4256 1.390 . S
C4252 C4246 1.465 . S
C4252 C4251 1.396 . S
C4252 C4253 1.399 . S
C4253 H4239 0.929 . S
C4253 C4252 1.399 . S
C4253 C4254 1.385 . S
C4254 H4240 0.931 . S
C4254 C4253 1.385 . S
C4254 C4255 1.389 . S
C4255 C4254 1.389 . S
C4255 C4256 1.387 . S
C4256 H4241 0.930 . S
C4256 C4251 1.390 . S
C4256 C4255 1.387 . S
H4257 C4269 0.930 . S
H4258 C4271 0.930 . S
H4259 C4272 0.930 . S
H4260 C4276 0.959 . S
H4261 C4276 0.959 . S
H4262 C4276 0.961 . S
H4263 C4277 0.960 . S
H4264 C4277 0.961 . S
H4265 C4277 0.959 . S
H4266 C4280 0.929 . S
H4267 C4281 0.931 . S
H4268 C4283 0.930 . S
C4269 H4257 0.930 . S
C4269 C4270 1.399 . S
C4269 C4274 1.399 . S
C4270 C4269 1.399 . S
C4270 C4271 1.376 . S
C4271 H4258 0.930 . S
C4271 C4270 1.376 . S
C4271 C4272 1.388 . S
C4272 H4259 0.930 . S
C4272 C4271 1.388 . S
C4272 C4273 1.390 . S
C4273 C4272 1.390 . S
C4273 C4274 1.394 . S
C4273 C4279 1.465 . S
C4274 C4269 1.399 . S
C4274 C4273 1.394 . S
C4274 C4275 1.516 . S
C4275 C4274 1.516 . S
C4275 C4276 1.502 . S
C4275 C4277 1.561 . S
C4275 C4278 1.526 . S
C4276 H4260 0.959 . S
C4276 H4261 0.959 . S
C4276 H4262 0.961 . S
C4276 C4275 1.502 . S
C4277 H4263 0.960 . S
C4277 H4264 0.961 . S
C4277 H4265 0.959 . S
C4277 C4275 1.561 . S
C4278 C4275 1.526 . S
C4278 C4279 1.396 . S
C4278 C4283 1.390 . S
C4279 C4273 1.465 . S
C4279 C4278 1.396 . S
C4279 C4280 1.399 . S
C4280 H4266 0.929 . S
C4280 C4279 1.399 . S
C4280 C4281 1.385 . S
C4281 H4267 0.931 . S
C4281 C4280 1.385 . S
C4281 C4282 1.389 . S
C4282 C4281 1.389 . S
C4282 C4283 1.387 . S
C4283 H4268 0.930 . S
C4283 C4278 1.390 . S
C4283 C4282 1.387 . S
H4284 C4296 0.930 . S
H4285 C4298 0.930 . S
H4286 C4299 0.930 . S
H4287 C4303 0.959 . S
H4288 C4303 0.959 . S
H4289 C4303 0.961 . S
H4290 C4304 0.960 . S
H4291 C4304 0.961 . S
H4292 C4304 0.959 . S
H4293 C4307 0.929 . S
H4294 C4308 0.931 . S
H4295 C4310 0.930 . S
C4296 H4284 0.930 . S
C4296 C4297 1.399 . S
C4296 C4301 1.399 . S
C4297 C4296 1.399 . S
C4297 C4298 1.376 . S
C4298 H4285 0.930 . S
C4298 C4297 1.376 . S
C4298 C4299 1.388 . S
C4299 H4286 0.930 . S
C4299 C4298 1.388 . S
C4299 C4300 1.390 . S
C4300 C4299 1.390 . S
C4300 C4301 1.394 . S
C4300 C4306 1.465 . S
C4301 C4296 1.399 . S
C4301 C4300 1.394 . S
C4301 C4302 1.516 . S
C4302 C4301 1.516 . S
C4302 C4303 1.502 . S
C4302 C4304 1.561 . S
C4302 C4305 1.526 . S
C4303 H4287 0.959 . S
C4303 H4288 0.959 . S
C4303 H4289 0.961 . S
C4303 C4302 1.502 . S
C4304 H4290 0.960 . S
C4304 H4291 0.961 . S
C4304 H4292 0.959 . S
C4304 C4302 1.561 . S
C4305 C4302 1.526 . S
C4305 C4306 1.396 . S
C4305 C4310 1.390 . S
C4306 C4300 1.465 . S
C4306 C4305 1.396 . S
C4306 C4307 1.399 . S
C4307 H4293 0.929 . S
C4307 C4306 1.399 . S
C4307 C4308 1.385 . S
C4308 H4294 0.931 . S
C4308 C4307 1.385 . S
C4308 C4309 1.389 . S
C4309 C4308 1.389 . S
C4309 C4310 1.387 . S
C4310 H4295 0.930 . S
C4310 C4305 1.390 . S
C4310 C4309 1.387 . S
H4311 C4323 0.930 . S
H4312 C4325 0.930 . S
H4313 C4326 0.930 . S
H4314 C4330 0.959 . S
H4315 C4330 0.959 . S
H4316 C4330 0.961 . S
H4317 C4331 0.960 . S
H4318 C4331 0.961 . S
H4319 C4331 0.959 . S
H4320 C4334 0.929 . S
H4321 C4335 0.931 . S
H4322 C4337 0.930 . S
C4323 H4311 0.930 . S
C4323 C4324 1.399 . S
C4323 C4328 1.399 . S
C4324 C4323 1.399 . S
C4324 C4325 1.376 . S
C4325 H4312 0.930 . S
C4325 C4324 1.376 . S
C4325 C4326 1.388 . S
C4326 H4313 0.930 . S
C4326 C4325 1.388 . S
C4326 C4327 1.390 . S
C4327 C4326 1.390 . S
C4327 C4328 1.394 . S
C4327 C4333 1.465 . S
C4328 C4323 1.399 . S
C4328 C4327 1.394 . S
C4328 C4329 1.516 . S
C4329 C4328 1.516 . S
C4329 C4330 1.502 . S
C4329 C4331 1.561 . S
C4329 C4332 1.526 . S
C4330 H4314 0.959 . S
C4330 H4315 0.959 . S
C4330 H4316 0.961 . S
C4330 C4329 1.502 . S
C4331 H4317 0.960 . S
C4331 H4318 0.961 . S
C4331 H4319 0.959 . S
C4331 C4329 1.561 . S
C4332 C4329 1.526 . S
C4332 C4333 1.396 . S
C4332 C4337 1.390 . S
C4333 C4327 1.465 . S
C4333 C4332 1.396 . S
C4333 C4334 1.399 . S
C4334 H4320 0.929 . S
C4334 C4333 1.399 . S
C4334 C4335 1.385 . S
C4335 H4321 0.931 . S
C4335 C4334 1.385 . S
C4335 C4336 1.389 . S
C4336 C4335 1.389 . S
C4336 C4337 1.387 . S
C4337 H4322 0.930 . S
C4337 C4332 1.390 . S
C4337 C4336 1.387 . S
H4338 C4350 0.930 . S
H4339 C4352 0.930 . S
H4340 C4353 0.930 . S
H4341 C4357 0.959 . S
H4342 C4357 0.959 . S
H4343 C4357 0.961 . S
H4344 C4358 0.960 . S
H4345 C4358 0.961 . S
H4346 C4358 0.959 . S
H4347 C4361 0.929 . S
H4348 C4362 0.931 . S
H4349 C4364 0.930 . S
C4350 H4338 0.930 . S
C4350 C4351 1.399 . S
C4350 C4355 1.399 . S
C4351 C4350 1.399 . S
C4351 C4352 1.376 . S
C4352 H4339 0.930 . S
C4352 C4351 1.376 . S
C4352 C4353 1.388 . S
C4353 H4340 0.930 . S
C4353 C4352 1.388 . S
C4353 C4354 1.390 . S
C4354 C4353 1.390 . S
C4354 C4355 1.394 . S
C4354 C4360 1.465 . S
C4355 C4350 1.399 . S
C4355 C4354 1.394 . S
C4355 C4356 1.516 . S
C4356 C4355 1.516 . S
C4356 C4357 1.502 . S
C4356 C4358 1.561 . S
C4356 C4359 1.526 . S
C4357 H4341 0.959 . S
C4357 H4342 0.959 . S
C4357 H4343 0.961 . S
C4357 C4356 1.502 . S
C4358 H4344 0.960 . S
C4358 H4345 0.961 . S
C4358 H4346 0.959 . S
C4358 C4356 1.561 . S
C4359 C4356 1.526 . S
C4359 C4360 1.396 . S
C4359 C4364 1.390 . S
C4360 C4354 1.465 . S
C4360 C4359 1.396 . S
C4360 C4361 1.399 . S
C4361 H4347 0.929 . S
C4361 C4360 1.399 . S
C4361 C4362 1.385 . S
C4362 H4348 0.931 . S
C4362 C4361 1.385 . S
C4362 C4363 1.389 . S
C4363 C4362 1.389 . S
C4363 C4364 1.387 . S
C4364 H4349 0.930 . S
C4364 C4359 1.390 . S
C4364 C4363 1.387 . S
H4365 C4377 0.930 . S
H4366 C4379 0.930 . S
H4367 C4380 0.930 . S
H4368 C4384 0.959 . S
H4369 C4384 0.959 . S
H4370 C4384 0.961 . S
H4371 C4385 0.960 . S
H4372 C4385 0.961 . S
H4373 C4385 0.959 . S
H4374 C4388 0.929 . S
H4375 C4389 0.931 . S
H4376 C4391 0.930 . S
C4377 H4365 0.930 . S
C4377 C4378 1.399 . S
C4377 C4382 1.399 . S
C4378 C4377 1.399 . S
C4378 C4379 1.376 . S
C4379 H4366 0.930 . S
C4379 C4378 1.376 . S
C4379 C4380 1.388 . S
C4380 H4367 0.930 . S
C4380 C4379 1.388 . S
C4380 C4381 1.390 . S
C4381 C4380 1.390 . S
C4381 C4382 1.394 . S
C4381 C4387 1.465 . S
C4382 C4377 1.399 . S
C4382 C4381 1.394 . S
C4382 C4383 1.516 . S
C4383 C4382 1.516 . S
C4383 C4384 1.502 . S
C4383 C4385 1.561 . S
C4383 C4386 1.526 . S
C4384 H4368 0.959 . S
C4384 H4369 0.959 . S
C4384 H4370 0.961 . S
C4384 C4383 1.502 . S
C4385 H4371 0.960 . S
C4385 H4372 0.961 . S
C4385 H4373 0.959 . S
C4385 C4383 1.561 . S
C4386 C4383 1.526 . S
C4386 C4387 1.396 . S
C4386 C4391 1.390 . S
C4387 C4381 1.465 . S
C4387 C4386 1.396 . S
C4387 C4388 1.399 . S
C4388 H4374 0.929 . S
C4388 C4387 1.399 . S
C4388 C4389 1.385 . S
C4389 H4375 0.931 . S
C4389 C4388 1.385 . S
C4389 C4390 1.389 . S
C4390 C4389 1.389 . S
C4390 C4391 1.387 . S
C4391 H4376 0.930 . S
C4391 C4386 1.390 . S
C4391 C4390 1.387 . S
H4392 C4404 0.930 . S
H4393 C4406 0.930 . S
H4394 C4407 0.930 . S
H4395 C4411 0.959 . S
H4396 C4411 0.959 . S
H4397 C4411 0.961 . S
H4398 C4412 0.960 . S
H4399 C4412 0.961 . S
H4400 C4412 0.959 . S
H4401 C4415 0.929 . S
H4402 C4416 0.931 . S
H4403 C4418 0.930 . S
C4404 H4392 0.930 . S
C4404 C4405 1.399 . S
C4404 C4409 1.399 . S
C4405 C4404 1.399 . S
C4405 C4406 1.376 . S
C4406 H4393 0.930 . S
C4406 C4405 1.376 . S
C4406 C4407 1.388 . S
C4407 H4394 0.930 . S
C4407 C4406 1.388 . S
C4407 C4408 1.390 . S
C4408 C4407 1.390 . S
C4408 C4409 1.394 . S
C4408 C4414 1.465 . S
C4409 C4404 1.399 . S
C4409 C4408 1.394 . S
C4409 C4410 1.516 . S
C4410 C4409 1.516 . S
C4410 C4411 1.502 . S
C4410 C4412 1.561 . S
C4410 C4413 1.526 . S
C4411 H4395 0.959 . S
C4411 H4396 0.959 . S
C4411 H4397 0.961 . S
C4411 C4410 1.502 . S
C4412 H4398 0.960 . S
C4412 H4399 0.961 . S
C4412 H4400 0.959 . S
C4412 C4410 1.561 . S
C4413 C4410 1.526 . S
C4413 C4414 1.396 . S
C4413 C4418 1.390 . S
C4414 C4408 1.465 . S
C4414 C4413 1.396 . S
C4414 C4415 1.399 . S
C4415 H4401 0.929 . S
C4415 C4414 1.399 . S
C4415 C4416 1.385 . S
C4416 H4402 0.931 . S
C4416 C4415 1.385 . S
C4416 C4417 1.389 . S
C4417 C4416 1.389 . S
C4417 C4418 1.387 . S
C4418 H4403 0.930 . S
C4418 C4413 1.390 . S
C4418 C4417 1.387 . S
H4419 C4431 0.930 . S
H4420 C4433 0.930 . S
H4421 C4434 0.930 . S
H4422 C4438 0.959 . S
H4423 C4438 0.959 . S
H4424 C4438 0.961 . S
H4425 C4439 0.960 . S
H4426 C4439 0.961 . S
H4427 C4439 0.959 . S
H4428 C4442 0.929 . S
H4429 C4443 0.931 . S
H4430 C4445 0.930 . S
C4431 H4419 0.930 . S
C4431 C4432 1.399 . S
C4431 C4436 1.399 . S
C4432 C4431 1.399 . S
C4432 C4433 1.376 . S
C4433 H4420 0.930 . S
C4433 C4432 1.376 . S
C4433 C4434 1.388 . S
C4434 H4421 0.930 . S
C4434 C4433 1.388 . S
C4434 C4435 1.390 . S
C4435 C4434 1.390 . S
C4435 C4436 1.394 . S
C4435 C4441 1.465 . S
C4436 C4431 1.399 . S
C4436 C4435 1.394 . S
C4436 C4437 1.516 . S
C4437 C4436 1.516 . S
C4437 C4438 1.502 . S
C4437 C4439 1.561 . S
C4437 C4440 1.526 . S
C4438 H4422 0.959 . S
C4438 H4423 0.959 . S
C4438 H4424 0.961 . S
C4438 C4437 1.502 . S
C4439 H4425 0.960 . S
C4439 H4426 0.961 . S
C4439 H4427 0.959 . S
C4439 C4437 1.561 . S
C4440 C4437 1.526 . S
C4440 C4441 1.396 . S
C4440 C4445 1.390 . S
C4441 C4435 1.465 . S
C4441 C4440 1.396 . S
C4441 C4442 1.399 . S
C4442 H4428 0.929 . S
C4442 C4441 1.399 . S
C4442 C4443 1.385 . S
C4443 H4429 0.931 . S
C4443 C4442 1.385 . S
C4443 C4444 1.389 . S
C4444 C4443 1.389 . S
C4444 C4445 1.387 . S
C4445 H4430 0.930 . S
C4445 C4440 1.390 . S
C4445 C4444 1.387 . S
H4446 C4458 0.930 . S
H4447 C4460 0.930 . S
H4448 C4461 0.930 . S
H4449 C4465 0.959 . S
H4450 C4465 0.959 . S
H4451 C4465 0.961 . S
H4452 C4466 0.960 . S
H4453 C4466 0.961 . S
H4454 C4466 0.959 . S
H4455 C4469 0.929 . S
H4456 C4470 0.931 . S
H4457 C4472 0.930 . S
C4458 H4446 0.930 . S
C4458 C4459 1.399 . S
C4458 C4463 1.399 . S
C4459 C4458 1.399 . S
C4459 C4460 1.376 . S
C4460 H4447 0.930 . S
C4460 C4459 1.376 . S
C4460 C4461 1.388 . S
C4461 H4448 0.930 . S
C4461 C4460 1.388 . S
C4461 C4462 1.390 . S
C4462 C4461 1.390 . S
C4462 C4463 1.394 . S
C4462 C4468 1.465 . S
C4463 C4458 1.399 . S
C4463 C4462 1.394 . S
C4463 C4464 1.516 . S
C4464 C4463 1.516 . S
C4464 C4465 1.502 . S
C4464 C4466 1.561 . S
C4464 C4467 1.526 . S
C4465 H4449 0.959 . S
C4465 H4450 0.959 . S
C4465 H4451 0.961 . S
C4465 C4464 1.502 . S
C4466 H4452 0.960 . S
C4466 H4453 0.961 . S
C4466 H4454 0.959 . S
C4466 C4464 1.561 . S
C4467 C4464 1.526 . S
C4467 C4468 1.396 . S
C4467 C4472 1.390 . S
C4468 C4462 1.465 . S
C4468 C4467 1.396 . S
C4468 C4469 1.399 . S
C4469 H4455 0.929 . S
C4469 C4468 1.399 . S
C4469 C4470 1.385 . S
C4470 H4456 0.931 . S
C4470 C4469 1.385 . S
C4470 C4471 1.389 . S
C4471 C4470 1.389 . S
C4471 C4472 1.387 . S
C4472 H4457 0.930 . S
C4472 C4467 1.390 . S
C4472 C4471 1.387 . S
H4473 C4485 0.930 . S
H4474 C4487 0.930 . S
H4475 C4488 0.930 . S
H4476 C4492 0.959 . S
H4477 C4492 0.959 . S
H4478 C4492 0.961 . S
H4479 C4493 0.960 . S
H4480 C4493 0.961 . S
H4481 C4493 0.959 . S
H4482 C4496 0.929 . S
H4483 C4497 0.931 . S
H4484 C4499 0.930 . S
C4485 H4473 0.930 . S
C4485 C4486 1.399 . S
C4485 C4490 1.399 . S
C4486 C4485 1.399 . S
C4486 C4487 1.376 . S
C4487 H4474 0.930 . S
C4487 C4486 1.376 . S
C4487 C4488 1.388 . S
C4488 H4475 0.930 . S
C4488 C4487 1.388 . S
C4488 C4489 1.390 . S
C4489 C4488 1.390 . S
C4489 C4490 1.394 . S
C4489 C4495 1.465 . S
C4490 C4485 1.399 . S
C4490 C4489 1.394 . S
C4490 C4491 1.516 . S
C4491 C4490 1.516 . S
C4491 C4492 1.502 . S
C4491 C4493 1.561 . S
C4491 C4494 1.526 . S
C4492 H4476 0.959 . S
C4492 H4477 0.959 . S
C4492 H4478 0.961 . S
C4492 C4491 1.502 . S
C4493 H4479 0.960 . S
C4493 H4480 0.961 . S
C4493 H4481 0.959 . S
C4493 C4491 1.561 . S
C4494 C4491 1.526 . S
C4494 C4495 1.396 . S
C4494 C4499 1.390 . S
C4495 C4489 1.465 . S
C4495 C4494 1.396 . S
C4495 C4496 1.399 . S
C4496 H4482 0.929 . S
C4496 C4495 1.399 . S
C4496 C4497 1.385 . S
C4497 H4483 0.931 . S
C4497 C4496 1.385 . S
C4497 C4498 1.389 . S
C4498 C4497 1.389 . S
C4498 C4499 1.387 . S
C4499 H4484 0.930 . S
C4499 C4494 1.390 . S
C4499 C4498 1.387 . S
H4500 C4512 0.930 . S
H4501 C4514 0.930 . S
H4502 C4515 0.930 . S
H4503 C4519 0.959 . S
H4504 C4519 0.959 . S
H4505 C4519 0.961 . S
H4506 C4520 0.960 . S
H4507 C4520 0.961 . S
H4508 C4520 0.959 . S
H4509 C4523 0.929 . S
H4510 C4524 0.931 . S
H4511 C4526 0.930 . S
C4512 H4500 0.930 . S
C4512 C4513 1.399 . S
C4512 C4517 1.399 . S
C4513 C4512 1.399 . S
C4513 C4514 1.376 . S
C4514 H4501 0.930 . S
C4514 C4513 1.376 . S
C4514 C4515 1.388 . S
C4515 H4502 0.930 . S
C4515 C4514 1.388 . S
C4515 C4516 1.390 . S
C4516 C4515 1.390 . S
C4516 C4517 1.394 . S
C4516 C4522 1.465 . S
C4517 C4512 1.399 . S
C4517 C4516 1.394 . S
C4517 C4518 1.516 . S
C4518 C4517 1.516 . S
C4518 C4519 1.502 . S
C4518 C4520 1.561 . S
C4518 C4521 1.526 . S
C4519 H4503 0.959 . S
C4519 H4504 0.959 . S
C4519 H4505 0.961 . S
C4519 C4518 1.502 . S
C4520 H4506 0.960 . S
C4520 H4507 0.961 . S
C4520 H4508 0.959 . S
C4520 C4518 1.561 . S
C4521 C4518 1.526 . S
C4521 C4522 1.396 . S
C4521 C4526 1.390 . S
C4522 C4516 1.465 . S
C4522 C4521 1.396 . S
C4522 C4523 1.399 . S
C4523 H4509 0.929 . S
C4523 C4522 1.399 . S
C4523 C4524 1.385 . S
C4524 H4510 0.931 . S
C4524 C4523 1.385 . S
C4524 C4525 1.389 . S
C4525 C4524 1.389 . S
C4525 C4526 1.387 . S
C4526 H4511 0.930 . S
C4526 C4521 1.390 . S
C4526 C4525 1.387 . S
H4527 C4539 0.930 . S
H4528 C4541 0.930 . S
H4529 C4542 0.930 . S
H4530 C4546 0.959 . S
H4531 C4546 0.959 . S
H4532 C4546 0.961 . S
H4533 C4547 0.960 . S
H4534 C4547 0.961 . S
H4535 C4547 0.959 . S
H4536 C4550 0.929 . S
H4537 C4551 0.931 . S
H4538 C4553 0.930 . S
C4539 H4527 0.930 . S
C4539 C4540 1.399 . S
C4539 C4544 1.399 . S
C4540 C4539 1.399 . S
C4540 C4541 1.376 . S
C4541 H4528 0.930 . S
C4541 C4540 1.376 . S
C4541 C4542 1.388 . S
C4542 H4529 0.930 . S
C4542 C4541 1.388 . S
C4542 C4543 1.390 . S
C4543 C4542 1.390 . S
C4543 C4544 1.394 . S
C4543 C4549 1.465 . S
C4544 C4539 1.399 . S
C4544 C4543 1.394 . S
C4544 C4545 1.516 . S
C4545 C4544 1.516 . S
C4545 C4546 1.502 . S
C4545 C4547 1.561 . S
C4545 C4548 1.526 . S
C4546 H4530 0.959 . S
C4546 H4531 0.959 . S
C4546 H4532 0.961 . S
C4546 C4545 1.502 . S
C4547 H4533 0.960 . S
C4547 H4534 0.961 . S
C4547 H4535 0.959 . S
C4547 C4545 1.561 . S
C4548 C4545 1.526 . S
C4548 C4549 1.396 . S
C4548 C4553 1.390 . S
C4549 C4543 1.465 . S
C4549 C4548 1.396 . S
C4549 C4550 1.399 . S
C4550 H4536 0.929 . S
C4550 C4549 1.399 . S
C4550 C4551 1.385 . S
C4551 H4537 0.931 . S
C4551 C4550 1.385 . S
C4551 C4552 1.389 . S
C4552 C4551 1.389 . S
C4552 C4553 1.387 . S
C4553 H4538 0.930 . S
C4553 C4548 1.390 . S
C4553 C4552 1.387 . S
H4554 C4566 0.930 . S
H4555 C4568 0.930 . S
H4556 C4569 0.930 . S
H4557 C4573 0.959 . S
H4558 C4573 0.959 . S
H4559 C4573 0.961 . S
H4560 C4574 0.960 . S
H4561 C4574 0.961 . S
H4562 C4574 0.959 . S
H4563 C4577 0.929 . S
H4564 C4578 0.931 . S
H4565 C4580 0.930 . S
C4566 H4554 0.930 . S
C4566 C4567 1.399 . S
C4566 C4571 1.399 . S
C4567 C4566 1.399 . S
C4567 C4568 1.376 . S
C4568 H4555 0.930 . S
C4568 C4567 1.376 . S
C4568 C4569 1.388 . S
C4569 H4556 0.930 . S
C4569 C4568 1.388 . S
C4569 C4570 1.390 . S
C4570 C4569 1.390 . S
C4570 C4571 1.394 . S
C4570 C4576 1.465 . S
C4571 C4566 1.399 . S
C4571 C4570 1.394 . S
C4571 C4572 1.516 . S
C4572 C4571 1.516 . S
C4572 C4573 1.502 . S
C4572 C4574 1.561 . S
C4572 C4575 1.526 . S
C4573 H4557 0.959 . S
C4573 H4558 0.959 . S
C4573 H4559 0.961 . S
C4573 C4572 1.502 . S
C4574 H4560 0.960 . S
C4574 H4561 0.961 . S
C4574 H4562 0.959 . S
C4574 C4572 1.561 . S
C4575 C4572 1.526 . S
C4575 C4576 1.396 . S
C4575 C4580 1.390 . S
C4576 C4570 1.465 . S
C4576 C4575 1.396 . S
C4576 C4577 1.399 . S
C4577 H4563 0.929 . S
C4577 C4576 1.399 . S
C4577 C4578 1.385 . S
C4578 H4564 0.931 . S
C4578 C4577 1.385 . S
C4578 C4579 1.389 . S
C4579 C4578 1.389 . S
C4579 C4580 1.387 . S
C4580 H4565 0.930 . S
C4580 C4575 1.390 . S
C4580 C4579 1.387 . S
H4581 C4593 0.930 . S
H4582 C4595 0.930 . S
H4583 C4596 0.930 . S
H4584 C4600 0.959 . S
H4585 C4600 0.959 . S
H4586 C4600 0.961 . S
H4587 C4601 0.960 . S
H4588 C4601 0.961 . S
H4589 C4601 0.959 . S
H4590 C4604 0.929 . S
H4591 C4605 0.931 . S
H4592 C4607 0.930 . S
C4593 H4581 0.930 . S
C4593 C4594 1.399 . S
C4593 C4598 1.399 . S
C4594 C4593 1.399 . S
C4594 C4595 1.376 . S
C4595 H4582 0.930 . S
C4595 C4594 1.376 . S
C4595 C4596 1.388 . S
C4596 H4583 0.930 . S
C4596 C4595 1.388 . S
C4596 C4597 1.390 . S
C4597 C4596 1.390 . S
C4597 C4598 1.394 . S
C4597 C4603 1.465 . S
C4598 C4593 1.399 . S
C4598 C4597 1.394 . S
C4598 C4599 1.516 . S
C4599 C4598 1.516 . S
C4599 C4600 1.502 . S
C4599 C4601 1.561 . S
C4599 C4602 1.526 . S
C4600 H4584 0.959 . S
C4600 H4585 0.959 . S
C4600 H4586 0.961 . S
C4600 C4599 1.502 . S
C4601 H4587 0.960 . S
C4601 H4588 0.961 . S
C4601 H4589 0.959 . S
C4601 C4599 1.561 . S
C4602 C4599 1.526 . S
C4602 C4603 1.396 . S
C4602 C4607 1.390 . S
C4603 C4597 1.465 . S
C4603 C4602 1.396 . S
C4603 C4604 1.399 . S
C4604 H4590 0.929 . S
C4604 C4603 1.399 . S
C4604 C4605 1.385 . S
C4605 H4591 0.931 . S
C4605 C4604 1.385 . S
C4605 C4606 1.389 . S
C4606 C4605 1.389 . S
C4606 C4607 1.387 . S
C4607 H4592 0.930 . S
C4607 C4602 1.390 . S
C4607 C4606 1.387 . S
H4608 C4620 0.930 . S
H4609 C4622 0.930 . S
H4610 C4623 0.930 . S
H4611 C4627 0.959 . S
H4612 C4627 0.959 . S
H4613 C4627 0.961 . S
H4614 C4628 0.960 . S
H4615 C4628 0.961 . S
H4616 C4628 0.959 . S
H4617 C4631 0.929 . S
H4618 C4632 0.931 . S
H4619 C4634 0.930 . S
C4620 H4608 0.930 . S
C4620 C4621 1.399 . S
C4620 C4625 1.399 . S
C4621 C4620 1.399 . S
C4621 C4622 1.376 . S
C4622 H4609 0.930 . S
C4622 C4621 1.376 . S
C4622 C4623 1.388 . S
C4623 H4610 0.930 . S
C4623 C4622 1.388 . S
C4623 C4624 1.390 . S
C4624 C4623 1.390 . S
C4624 C4625 1.394 . S
C4624 C4630 1.465 . S
C4625 C4620 1.399 . S
C4625 C4624 1.394 . S
C4625 C4626 1.516 . S
C4626 C4625 1.516 . S
C4626 C4627 1.502 . S
C4626 C4628 1.561 . S
C4626 C4629 1.526 . S
C4627 H4611 0.959 . S
C4627 H4612 0.959 . S
C4627 H4613 0.961 . S
C4627 C4626 1.502 . S
C4628 H4614 0.960 . S
C4628 H4615 0.961 . S
C4628 H4616 0.959 . S
C4628 C4626 1.561 . S
C4629 C4626 1.526 . S
C4629 C4630 1.396 . S
C4629 C4634 1.390 . S
C4630 C4624 1.465 . S
C4630 C4629 1.396 . S
C4630 C4631 1.399 . S
C4631 H4617 0.929 . S
C4631 C4630 1.399 . S
C4631 C4632 1.385 . S
C4632 H4618 0.931 . S
C4632 C4631 1.385 . S
C4632 C4633 1.389 . S
C4633 C4632 1.389 . S
C4633 C4634 1.387 . S
C4634 H4619 0.930 . S
C4634 C4629 1.390 . S
C4634 C4633 1.387 . S
H4635 C4647 0.930 . S
H4636 C4649 0.930 . S
H4637 C4650 0.930 . S
H4638 C4654 0.959 . S
H4639 C4654 0.959 . S
H4640 C4654 0.961 . S
H4641 C4655 0.960 . S
H4642 C4655 0.961 . S
H4643 C4655 0.959 . S
H4644 C4658 0.929 . S
H4645 C4659 0.931 . S
H4646 C4661 0.930 . S
C4647 H4635 0.930 . S
C4647 C4648 1.399 . S
C4647 C4652 1.399 . S
C4648 C4647 1.399 . S
C4648 C4649 1.376 . S
C4649 H4636 0.930 . S
C4649 C4648 1.376 . S
C4649 C4650 1.388 . S
C4650 H4637 0.930 . S
C4650 C4649 1.388 . S
C4650 C4651 1.390 . S
C4651 C4650 1.390 . S
C4651 C4652 1.394 . S
C4651 C4657 1.465 . S
C4652 C4647 1.399 . S
C4652 C4651 1.394 . S
C4652 C4653 1.516 . S
C4653 C4652 1.516 . S
C4653 C4654 1.502 . S
C4653 C4655 1.561 . S
C4653 C4656 1.526 . S
C4654 H4638 0.959 . S
C4654 H4639 0.959 . S
C4654 H4640 0.961 . S
C4654 C4653 1.502 . S
C4655 H4641 0.960 . S
C4655 H4642 0.961 . S
C4655 H4643 0.959 . S
C4655 C4653 1.561 . S
C4656 C4653 1.526 . S
C4656 C4657 1.396 . S
C4656 C4661 1.390 . S
C4657 C4651 1.465 . S
C4657 C4656 1.396 . S
C4657 C4658 1.399 . S
C4658 H4644 0.929 . S
C4658 C4657 1.399 . S
C4658 C4659 1.385 . S
C4659 H4645 0.931 . S
C4659 C4658 1.385 . S
C4659 C4660 1.389 . S
C4660 C4659 1.389 . S
C4660 C4661 1.387 . S
C4661 H4646 0.930 . S
C4661 C4656 1.390 . S
C4661 C4660 1.387 . S
H4662 C4674 0.930 . S
H4663 C4676 0.930 . S
H4664 C4677 0.930 . S
H4665 C4681 0.959 . S
H4666 C4681 0.959 . S
H4667 C4681 0.961 . S
H4668 C4682 0.960 . S
H4669 C4682 0.961 . S
H4670 C4682 0.959 . S
H4671 C4685 0.929 . S
H4672 C4686 0.931 . S
H4673 C4688 0.930 . S
C4674 H4662 0.930 . S
C4674 C4675 1.399 . S
C4674 C4679 1.399 . S
C4675 C4674 1.399 . S
C4675 C4676 1.376 . S
C4676 H4663 0.930 . S
C4676 C4675 1.376 . S
C4676 C4677 1.388 . S
C4677 H4664 0.930 . S
C4677 C4676 1.388 . S
C4677 C4678 1.390 . S
C4678 C4677 1.390 . S
C4678 C4679 1.394 . S
C4678 C4684 1.465 . S
C4679 C4674 1.399 . S
C4679 C4678 1.394 . S
C4679 C4680 1.516 . S
C4680 C4679 1.516 . S
C4680 C4681 1.502 . S
C4680 C4682 1.561 . S
C4680 C4683 1.526 . S
C4681 H4665 0.959 . S
C4681 H4666 0.959 . S
C4681 H4667 0.961 . S
C4681 C4680 1.502 . S
C4682 H4668 0.960 . S
C4682 H4669 0.961 . S
C4682 H4670 0.959 . S
C4682 C4680 1.561 . S
C4683 C4680 1.526 . S
C4683 C4684 1.396 . S
C4683 C4688 1.390 . S
C4684 C4678 1.465 . S
C4684 C4683 1.396 . S
C4684 C4685 1.399 . S
C4685 H4671 0.929 . S
C4685 C4684 1.399 . S
C4685 C4686 1.385 . S
C4686 H4672 0.931 . S
C4686 C4685 1.385 . S
C4686 C4687 1.389 . S
C4687 C4686 1.389 . S
C4687 C4688 1.387 . S
C4688 H4673 0.930 . S
C4688 C4683 1.390 . S
C4688 C4687 1.387 . S
H4689 C4701 0.930 . S
H4690 C4703 0.930 . S
H4691 C4704 0.930 . S
H4692 C4708 0.959 . S
H4693 C4708 0.959 . S
H4694 C4708 0.961 . S
H4695 C4709 0.960 . S
H4696 C4709 0.961 . S
H4697 C4709 0.959 . S
H4698 C4712 0.929 . S
H4699 C4713 0.931 . S
H4700 C4715 0.930 . S
C4701 H4689 0.930 . S
C4701 C4702 1.399 . S
C4701 C4706 1.399 . S
C4702 C4701 1.399 . S
C4702 C4703 1.376 . S
C4703 H4690 0.930 . S
C4703 C4702 1.376 . S
C4703 C4704 1.388 . S
C4704 H4691 0.930 . S
C4704 C4703 1.388 . S
C4704 C4705 1.390 . S
C4705 C4704 1.390 . S
C4705 C4706 1.394 . S
C4705 C4711 1.465 . S
C4706 C4701 1.399 . S
C4706 C4705 1.394 . S
C4706 C4707 1.516 . S
C4707 C4706 1.516 . S
C4707 C4708 1.502 . S
C4707 C4709 1.561 . S
C4707 C4710 1.526 . S
C4708 H4692 0.959 . S
C4708 H4693 0.959 . S
C4708 H4694 0.961 . S
C4708 C4707 1.502 . S
C4709 H4695 0.960 . S
C4709 H4696 0.961 . S
C4709 H4697 0.959 . S
C4709 C4707 1.561 . S
C4710 C4707 1.526 . S
C4710 C4711 1.396 . S
C4710 C4715 1.390 . S
C4711 C4705 1.465 . S
C4711 C4710 1.396 . S
C4711 C4712 1.399 . S
C4712 H4698 0.929 . S
C4712 C4711 1.399 . S
C4712 C4713 1.385 . S
C4713 H4699 0.931 . S
C4713 C4712 1.385 . S
C4713 C4714 1.389 . S
C4714 C4713 1.389 . S
C4714 C4715 1.387 . S
C4715 H4700 0.930 . S
C4715 C4710 1.390 . S
C4715 C4714 1.387 . S
H4716 C4728 0.930 . S
H4717 C4730 0.930 . S
H4718 C4731 0.930 . S
H4719 C4735 0.959 . S
H4720 C4735 0.959 . S
H4721 C4735 0.961 . S
H4722 C4736 0.960 . S
H4723 C4736 0.961 . S
H4724 C4736 0.959 . S
H4725 C4739 0.929 . S
H4726 C4740 0.931 . S
H4727 C4742 0.930 . S
C4728 H4716 0.930 . S
C4728 C4729 1.399 . S
C4728 C4733 1.399 . S
C4729 C4728 1.399 . S
C4729 C4730 1.376 . S
C4730 H4717 0.930 . S
C4730 C4729 1.376 . S
C4730 C4731 1.388 . S
C4731 H4718 0.930 . S
C4731 C4730 1.388 . S
C4731 C4732 1.390 . S
C4732 C4731 1.390 . S
C4732 C4733 1.394 . S
C4732 C4738 1.465 . S
C4733 C4728 1.399 . S
C4733 C4732 1.394 . S
C4733 C4734 1.516 . S
C4734 C4733 1.516 . S
C4734 C4735 1.502 . S
C4734 C4736 1.561 . S
C4734 C4737 1.526 . S
C4735 H4719 0.959 . S
C4735 H4720 0.959 . S
C4735 H4721 0.961 . S
C4735 C4734 1.502 . S
C4736 H4722 0.960 . S
C4736 H4723 0.961 . S
C4736 H4724 0.959 . S
C4736 C4734 1.561 . S
C4737 C4734 1.526 . S
C4737 C4738 1.396 . S
C4737 C4742 1.390 . S
C4738 C4732 1.465 . S
C4738 C4737 1.396 . S
C4738 C4739 1.399 . S
C4739 H4725 0.929 . S
C4739 C4738 1.399 . S
C4739 C4740 1.385 . S
C4740 H4726 0.931 . S
C4740 C4739 1.385 . S
C4740 C4741 1.389 . S
C4741 C4740 1.389 . S
C4741 C4742 1.387 . S
C4742 H4727 0.930 . S
C4742 C4737 1.390 . S
C4742 C4741 1.387 . S
H4743 C4755 0.930 . S
H4744 C4757 0.930 . S
H4745 C4758 0.930 . S
H4746 C4762 0.959 . S
H4747 C4762 0.959 . S
H4748 C4762 0.961 . S
H4749 C4763 0.960 . S
H4750 C4763 0.961 . S
H4751 C4763 0.959 . S
H4752 C4766 0.929 . S
H4753 C4767 0.931 . S
H4754 C4769 0.930 . S
C4755 H4743 0.930 . S
C4755 C4756 1.399 . S
C4755 C4760 1.399 . S
C4756 C4755 1.399 . S
C4756 C4757 1.376 . S
C4757 H4744 0.930 . S
C4757 C4756 1.376 . S
C4757 C4758 1.388 . S
C4758 H4745 0.930 . S
C4758 C4757 1.388 . S
C4758 C4759 1.390 . S
C4759 C4758 1.390 . S
C4759 C4760 1.394 . S
C4759 C4765 1.465 . S
C4760 C4755 1.399 . S
C4760 C4759 1.394 . S
C4760 C4761 1.516 . S
C4761 C4760 1.516 . S
C4761 C4762 1.502 . S
C4761 C4763 1.561 . S
C4761 C4764 1.526 . S
C4762 H4746 0.959 . S
C4762 H4747 0.959 . S
C4762 H4748 0.961 . S
C4762 C4761 1.502 . S
C4763 H4749 0.960 . S
C4763 H4750 0.961 . S
C4763 H4751 0.959 . S
C4763 C4761 1.561 . S
C4764 C4761 1.526 . S
C4764 C4765 1.396 . S
C4764 C4769 1.390 . S
C4765 C4759 1.465 . S
C4765 C4764 1.396 . S
C4765 C4766 1.399 . S
C4766 H4752 0.929 . S
C4766 C4765 1.399 . S
C4766 C4767 1.385 . S
C4767 H4753 0.931 . S
C4767 C4766 1.385 . S
C4767 C4768 1.389 . S
C4768 C4767 1.389 . S
C4768 C4769 1.387 . S
C4769 H4754 0.930 . S
C4769 C4764 1.390 . S
C4769 C4768 1.387 . S
H4770 C4782 0.930 . S
H4771 C4784 0.930 . S
H4772 C4785 0.930 . S
H4773 C4789 0.959 . S
H4774 C4789 0.959 . S
H4775 C4789 0.961 . S
H4776 C4790 0.960 . S
H4777 C4790 0.961 . S
H4778 C4790 0.959 . S
H4779 C4793 0.929 . S
H4780 C4794 0.931 . S
H4781 C4796 0.930 . S
C4782 H4770 0.930 . S
C4782 C4783 1.399 . S
C4782 C4787 1.399 . S
C4783 C4782 1.399 . S
C4783 C4784 1.376 . S
C4784 H4771 0.930 . S
C4784 C4783 1.376 . S
C4784 C4785 1.388 . S
C4785 H4772 0.930 . S
C4785 C4784 1.388 . S
C4785 C4786 1.390 . S
C4786 C4785 1.390 . S
C4786 C4787 1.394 . S
C4786 C4792 1.465 . S
C4787 C4782 1.399 . S
C4787 C4786 1.394 . S
C4787 C4788 1.516 . S
C4788 C4787 1.516 . S
C4788 C4789 1.502 . S
C4788 C4790 1.561 . S
C4788 C4791 1.526 . S
C4789 H4773 0.959 . S
C4789 H4774 0.959 . S
C4789 H4775 0.961 . S
C4789 C4788 1.502 . S
C4790 H4776 0.960 . S
C4790 H4777 0.961 . S
C4790 H4778 0.959 . S
C4790 C4788 1.561 . S
C4791 C4788 1.526 . S
C4791 C4792 1.396 . S
C4791 C4796 1.390 . S
C4792 C4786 1.465 . S
C4792 C4791 1.396 . S
C4792 C4793 1.399 . S
C4793 H4779 0.929 . S
C4793 C4792 1.399 . S
C4793 C4794 1.385 . S
C4794 H4780 0.931 . S
C4794 C4793 1.385 . S
C4794 C4795 1.389 . S
C4795 C4794 1.389 . S
C4795 C4796 1.387 . S
C4796 H4781 0.930 . S
C4796 C4791 1.390 . S
C4796 C4795 1.387 . S
H4797 C4809 0.930 . S
H4798 C4811 0.930 . S
H4799 C4812 0.930 . S
H4800 C4816 0.959 . S
H4801 C4816 0.959 . S
H4802 C4816 0.961 . S
H4803 C4817 0.960 . S
H4804 C4817 0.961 . S
H4805 C4817 0.959 . S
H4806 C4820 0.929 . S
H4807 C4821 0.931 . S
H4808 C4823 0.930 . S
C4809 H4797 0.930 . S
C4809 C4810 1.399 . S
C4809 C4814 1.399 . S
C4810 C4809 1.399 . S
C4810 C4811 1.376 . S
C4811 H4798 0.930 . S
C4811 C4810 1.376 . S
C4811 C4812 1.388 . S
C4812 H4799 0.930 . S
C4812 C4811 1.388 . S
C4812 C4813 1.390 . S
C4813 C4812 1.390 . S
C4813 C4814 1.394 . S
C4813 C4819 1.465 . S
C4814 C4809 1.399 . S
C4814 C4813 1.394 . S
C4814 C4815 1.516 . S
C4815 C4814 1.516 . S
C4815 C4816 1.502 . S
C4815 C4817 1.561 . S
C4815 C4818 1.526 . S
C4816 H4800 0.959 . S
C4816 H4801 0.959 . S
C4816 H4802 0.961 . S
C4816 C4815 1.502 . S
C4817 H4803 0.960 . S
C4817 H4804 0.961 . S
C4817 H4805 0.959 . S
C4817 C4815 1.561 . S
C4818 C4815 1.526 . S
C4818 C4819 1.396 . S
C4818 C4823 1.390 . S
C4819 C4813 1.465 . S
C4819 C4818 1.396 . S
C4819 C4820 1.399 . S
C4820 H4806 0.929 . S
C4820 C4819 1.399 . S
C4820 C4821 1.385 . S
C4821 H4807 0.931 . S
C4821 C4820 1.385 . S
C4821 C4822 1.389 . S
C4822 C4821 1.389 . S
C4822 C4823 1.387 . S
C4823 H4808 0.930 . S
C4823 C4818 1.390 . S
C4823 C4822 1.387 . S
C1597 N530 1.168 . S
C1609 C21 1.110 . S
C1624 N1553 1.202 . S
C1636 C54 1.188 . S
C1651 C87 1.075 . S
C1663 N1487 1.182 . S
C1678 C120 1.076 . S
C1690 N1520 1.173 . S
C1705 C153 1.081 . S
C1717 N563 1.185 . S
C1732 N596 1.210 . S
C1744 C186 1.181 . S
C1759 N629 1.193 . S
C1771 C219 1.188 . S
C1786 N1454 1.173 1_655 S
C1798 C252 1.099 . S
C1813 C285 1.182 . S
C1825 N2 1.200 . S
C1840 N35 1.216 . S
C1852 C318 1.188 . S
C1867 C351 1.071 . S
C1879 N68 1.172 . S
C1894 N101 1.185 . S
C1906 C384 1.102 . S
C1921 C417 1.072 . S
C1933 N134 1.172 . S
C1948 C450 1.079 . S
C1960 N167 1.176 1_556 S
C1975 N200 1.181 . S
C1987 C483 1.169 . S
C2002 N233 1.190 1_556 S
C2014 C516 1.123 . S
C2029 N266 1.173 . S
C2041 C549 1.072 . S
C2056 N398 1.168 . S
C2068 C582 1.091 . S
C2083 N431 1.175 . S
C2095 C615 1.082 . S
C2110 N464 1.168 . S
C2122 C648 1.107 . S
C2137 N1289 1.168 . S
C2149 C681 1.071 . S
C2164 C714 1.079 . S
C2176 N1124 1.170 . S
C2191 N1157 1.171 . S
C2203 C747 1.073 . S
C2218 C780 1.135 . S
C2230 N1091 1.194 . S
C2245 C813 1.189 . S
C2257 N1322 1.195 . S
C2272 C846 1.072 . S
C2284 N761 1.173 1_655 S
C2299 N695 1.202 . S
C2311 C879 1.172 . S
C2326 N728 1.182 . S
C2338 C912 1.078 . S
C2353 N1355 1.201 . S
C2365 C945 1.149 . S
C2380 C978 1.167 . S
C2392 N1388 1.199 . S
C2407 N1421 1.168 . S
C2419 C1011 1.106 . S
C2434 C1044 1.077 . S
C2446 N662 1.174 . S
C2461 N794 1.197 . S
C2473 C1077 1.122 . S
C2488 N827 1.173 . S
C2500 C1110 1.077 . S
C2515 C1143 1.078 . S
C2527 N860 1.183 . S
C2542 C1176 1.090 . S
C2554 N893 1.171 . S
C2569 C1209 1.121 . S
C2581 N926 1.197 . S
C2596 N959 1.180 . S
C2608 C1242 1.134 . S
C2623 C1275 1.127 . S
C2635 N992 1.198 . S
C2650 N1025 1.182 . S
C2662 C1308 1.101 . S
C2677 N1058 1.201 . S
C2689 C1341 1.176 . S
C2704 C1374 1.072 . S
C2716 N1190 1.172 . S
C2731 N1223 1.184 . S
C2743 C1407 1.071 . S
C2758 N1256 1.183 . S
C2770 C1440 1.173 . S
C2785 C1473 1.162 . S
C2797 N497 1.200 1_565 S
C2812 C1506 1.163 . S
C2824 N332 1.179 . S
C2839 C1539 1.075 . S
C2851 N365 1.175 1_565 S
C2866 N299 1.173 . S
C2878 C1572 1.078 . S
C2893 C7 0.686 . S
C2905 C139 0.612 . S
C2920 C40 0.670 . S
C2932 C172 0.751 . S
C2947 C205 0.597 . S
C2959 C73 0.643 . S
C2974 C238 0.668 . S
C2986 C106 0.601 . S
C3001 C1261 0.597 . S
C3013 C271 0.648 . S
C3028 C1294 0.596 . S
C3040 C304 0.688 . S
C3055 C1195 0.752 . S
C3067 C337 0.719 . S
C3082 C370 0.746 . S
C3094 C1228 0.637 . S
C3109 C403 0.597 . S
C3121 C1129 0.651 . S
C3136 C436 0.752 . S
C3148 C1162 0.667 . S
C3163 C469 0.750 . S
C3175 C1063 0.727 . S
C3190 C502 0.598 . S
C3202 C1096 0.674 . S
C3217 C1492 0.598 . S
C3229 C535 0.656 . S
C3244 C634 0.743 . S
C3256 C568 0.740 . S
C3271 C1459 0.683 . S
C3283 C601 0.750 . S
C3298 C1393 0.644 . S
C3310 C667 0.612 . S
C3325 C700 0.738 . S
C3337 C1327 0.667 . S
C3352 C733 0.750 . S
C3364 C766 0.687 . S
C3379 C931 0.676 . S
C3391 C799 0.742 . S
C3406 C964 0.691 . S
C3418 C832 0.748 . S
C3433 C865 0.711 . S
C3445 C997 0.751 . S
C3460 C1030 0.684 . S
C3472 C898 0.598 . S
C3487 C1360 0.750 . S
C3499 C1426 0.696 . S
C3514 C1558 0.649 . S
C3526 C1525 0.749 . S
C3541 C18 1.343 . S
C3553 N904 1.327 . S
C3568 C51 1.335 . S
C3580 N805 1.341 . S
C3595 C84 1.361 . S
C3607 N838 1.323 . S
C3622 N871 1.335 . S
C3634 C117 1.361 . S
C3649 C150 1.347 . S
C3661 N178 1.323 . S
C3676 N211 1.324 . S
C3688 C183 1.356 . S
C3703 N244 1.328 . S
C3715 C216 1.362 . S
C3730 C249 1.339 . S
C3742 N145 1.355 . S
C3757 N1399 1.326 . S
C3769 C282 1.344 . S
C3784 C315 1.335 . S
C3796 N1432 1.343 . S
C3811 N673 1.339 . S
C3823 C348 1.338 . S
C3838 C381 1.336 . S
C3850 N1366 1.329 . S
C3865 C414 1.350 . S
C3877 N1531 1.321 . S
C3892 C447 1.356 . S
C3904 N541 1.324 . S
C3919 N1564 1.358 . S
C3931 C480 1.350 . S
C3946 N1498 1.362 . S
C3958 C513 1.354 . S
C3973 N310 1.362 . S
C3985 C546 1.341 . S
C4000 C579 1.336 . S
C4012 N1300 1.358 . S
C4027 C612 1.351 . S
C4039 N1201 1.320 . S
C4054 C645 1.361 . S
C4066 N1234 1.325 . S
C4081 N475 1.335 . S
C4093 C678 1.361 . S
C4108 C711 1.342 . S
C4120 N1168 1.329 . S
C4135 C744 1.339 . S
C4147 N1069 1.355 . S
C4162 N1135 1.345 . S
C4174 C777 1.362 . S
C4189 C810 1.354 . S
C4201 N112 1.319 . S
C4216 C843 1.350 . S
C4228 N13 1.363 . S
C4243 C876 1.350 . S
C4255 N46 1.358 . S
C4270 C909 1.352 . S
C4282 N79 1.320 . S
C4297 C942 1.344 . S
C4309 N970 1.327 . S
C4324 C975 1.349 . S
C4336 N1003 1.362 . S
C4351 C1008 1.352 . S
C4363 N1036 1.356 . S
C4378 N937 1.333 . S
C4390 C1041 1.361 . S
C4405 C1074 1.335 . S
C4417 N607 1.356 . S
C4432 C1107 1.359 . S
C4444 N640 1.357 . S
C4459 C1140 1.344 . S
C4471 N1465 1.326 . S
C4486 N574 1.357 . S
C4498 C1173 1.358 . S
C4513 N739 1.356 . S
C4525 C1206 1.353 . S
C4540 C1239 1.340 . S
C4552 N1333 1.322 . S
C4567 C1272 1.361 . S
C4579 N772 1.335 . S
C4594 C1305 1.360 . S
C4606 N706 1.333 . S
C4621 N1102 1.333 . S
C4633 C1338 1.340 . S
C4648 C1371 1.335 . S
C4660 N508 1.356 . S
C4675 C1404 1.359 . S
C4687 N409 1.330 . S
C4702 C1437 1.360 . S
C4714 N442 1.322 . S
C4729 N1267 1.347 . S
C4741 C1470 1.336 . S
C4756 N376 1.319 . S
C4768 C1503 1.353 . S
C4783 N277 1.349 . S
C4795 C1536 1.337 . S
C4810 N343 1.339 . S
C4822 C1569 1.336 . S
