# Generated by pormake.
# Topology zfj, (5)-cn, num edge types: 1
# Building blocks:
#     Node 0, Type 0, BuildingBlock: XOMCOT_clean_sbu_0, # of connection points: 5
#     Node 1, Type 0, BuildingBlock: XOMCOT_clean_sbu_0, # of connection points: 5
#     Node 2, Type 0, BuildingBlock: XOMCOT_clean_sbu_0, # of connection points: 5
#     Node 3, Type 0, BuildingBlock: XOMCOT_clean_sbu_0, # of connection points: 5
#     Node 4, Type 0, BuildingBlock: XOMCOT_clean_sbu_0, # of connection points: 5
#     Node 5, Type 0, BuildingBlock: XOMCOT_clean_sbu_0, # of connection points: 5
#     Node 6, Type 0, BuildingBlock: XOMCOT_clean_sbu_0, # of connection points: 5
#     Node 7, Type 0, BuildingBlock: XOMCOT_clean_sbu_0, # of connection points: 5
#     Node 8, Type 0, BuildingBlock: XOMCOT_clean_sbu_0, # of connection points: 5
#     Node 9, Type 0, BuildingBlock: XOMCOT_clean_sbu_0, # of connection points: 5
#     Node 10, Type 0, BuildingBlock: XOMCOT_clean_sbu_0, # of connection points: 5
#     Node 11, Type 0, BuildingBlock: XOMCOT_clean_sbu_0, # of connection points: 5
#     Node 12, Type 0, BuildingBlock: XOMCOT_clean_sbu_0, # of connection points: 5
#     Node 13, Type 0, BuildingBlock: XOMCOT_clean_sbu_0, # of connection points: 5
#     Node 14, Type 0, BuildingBlock: XOMCOT_clean_sbu_0, # of connection points: 5
#     Node 15, Type 0, BuildingBlock: XOMCOT_clean_sbu_0, # of connection points: 5
#     Edge 16, Type (0, 0), BuildingBlock: XIVTED_clean_linker_0, # of connection points: 2
#     Edge 17, Type (0, 0), BuildingBlock: XIVTED_clean_linker_0, # of connection points: 2
#     Edge 18, Type (0, 0), BuildingBlock: XIVTED_clean_linker_0, # of connection points: 2
#     Edge 19, Type (0, 0), BuildingBlock: XIVTED_clean_linker_0, # of connection points: 2
#     Edge 20, Type (0, 0), BuildingBlock: XIVTED_clean_linker_0, # of connection points: 2
#     Edge 21, Type (0, 0), BuildingBlock: XIVTED_clean_linker_0, # of connection points: 2
#     Edge 22, Type (0, 0), BuildingBlock: XIVTED_clean_linker_0, # of connection points: 2
#     Edge 23, Type (0, 0), BuildingBlock: XIVTED_clean_linker_0, # of connection points: 2
#     Edge 24, Type (0, 0), BuildingBlock: XIVTED_clean_linker_0, # of connection points: 2
#     Edge 25, Type (0, 0), BuildingBlock: XIVTED_clean_linker_0, # of connection points: 2
#     Edge 26, Type (0, 0), BuildingBlock: XIVTED_clean_linker_0, # of connection points: 2
#     Edge 27, Type (0, 0), BuildingBlock: XIVTED_clean_linker_0, # of connection points: 2
#     Edge 28, Type (0, 0), BuildingBlock: XIVTED_clean_linker_0, # of connection points: 2
#     Edge 29, Type (0, 0), BuildingBlock: XIVTED_clean_linker_0, # of connection points: 2
#     Edge 30, Type (0, 0), BuildingBlock: XIVTED_clean_linker_0, # of connection points: 2
#     Edge 31, Type (0, 0), BuildingBlock: XIVTED_clean_linker_0, # of connection points: 2
#     Edge 32, Type (0, 0), BuildingBlock: XIVTED_clean_linker_0, # of connection points: 2
#     Edge 33, Type (0, 0), BuildingBlock: XIVTED_clean_linker_0, # of connection points: 2
#     Edge 34, Type (0, 0), BuildingBlock: XIVTED_clean_linker_0, # of connection points: 2
#     Edge 35, Type (0, 0), BuildingBlock: XIVTED_clean_linker_0, # of connection points: 2
#     Edge 36, Type (0, 0), BuildingBlock: XIVTED_clean_linker_0, # of connection points: 2
#     Edge 37, Type (0, 0), BuildingBlock: XIVTED_clean_linker_0, # of connection points: 2
#     Edge 38, Type (0, 0), BuildingBlock: XIVTED_clean_linker_0, # of connection points: 2
#     Edge 39, Type (0, 0), BuildingBlock: XIVTED_clean_linker_0, # of connection points: 2
#     Edge 40, Type (0, 0), BuildingBlock: XIVTED_clean_linker_0, # of connection points: 2
#     Edge 41, Type (0, 0), BuildingBlock: XIVTED_clean_linker_0, # of connection points: 2
#     Edge 42, Type (0, 0), BuildingBlock: XIVTED_clean_linker_0, # of connection points: 2
#     Edge 43, Type (0, 0), BuildingBlock: XIVTED_clean_linker_0, # of connection points: 2
#     Edge 44, Type (0, 0), BuildingBlock: XIVTED_clean_linker_0, # of connection points: 2
#     Edge 45, Type (0, 0), BuildingBlock: XIVTED_clean_linker_0, # of connection points: 2
#     Edge 46, Type (0, 0), BuildingBlock: XIVTED_clean_linker_0, # of connection points: 2
#     Edge 47, Type (0, 0), BuildingBlock: XIVTED_clean_linker_0, # of connection points: 2
#     Edge 48, Type (0, 0), BuildingBlock: XIVTED_clean_linker_0, # of connection points: 2
#     Edge 49, Type (0, 0), BuildingBlock: XIVTED_clean_linker_0, # of connection points: 2
#     Edge 50, Type (0, 0), BuildingBlock: XIVTED_clean_linker_0, # of connection points: 2
#     Edge 51, Type (0, 0), BuildingBlock: XIVTED_clean_linker_0, # of connection points: 2
#     Edge 52, Type (0, 0), BuildingBlock: XIVTED_clean_linker_0, # of connection points: 2
#     Edge 53, Type (0, 0), BuildingBlock: XIVTED_clean_linker_0, # of connection points: 2
#     Edge 54, Type (0, 0), BuildingBlock: XIVTED_clean_linker_0, # of connection points: 2
#     Edge 55, Type (0, 0), BuildingBlock: XIVTED_clean_linker_0, # of connection points: 2
# Relax obj value: 0.189
# Max RMSD: 0.167
# Mean RMSD: 0.167
data_MOF--net-zfj--node1-XOMCOT_clean_sbu_0--edge1-XIVTED_clean_linker_0
_symmetry_space_group_name_H-M    P1
_symmetry_Int_Tables_number       1
_symmetry_cell_setting            triclinic
loop_
_symmetry_equiv_pos_as_xyz
'x, y, z'
_cell_length_a     35.320813
_cell_length_b     35.298587
_cell_length_c     49.543077
_cell_angle_alpha  90.109202
_cell_angle_beta   90.00271
_cell_angle_gamma 89.962384
loop_
_atom_site_label
_atom_site_type_symbol
_atom_site_fract_x
_atom_site_fract_y
_atom_site_fract_z
_atom_type_partial_charge
Co0 Co 0.51058 0.23005 0.13649 0.0
C1 C 0.49752 0.31422 0.14058 0.0
C2 C 0.45052 0.28161 0.15471 0.0
C3 C 0.44063 0.31916 0.15542 0.0
N4 N 0.48669 0.27819 0.14623 0.0
N5 N 0.4701 0.33977 0.14643 0.0
H6 H 0.52338 0.32163 0.13029 0.0
H7 H 0.43149 0.25832 0.15864 0.0
C8 C 0.47308 0.21064 0.18862 0.0
O9 O 0.48962 0.24024 0.19959 0.0
N10 N 0.5329 0.18184 0.12611 0.0
C11 C 0.56452 0.17639 0.11132 0.0
C12 C 0.57081 0.13799 0.1087 0.0
C13 C 0.5206 0.1467 0.13245 0.0
N14 N 0.54331 0.11953 0.12215 0.0
C15 C 0.5755 0.26676 0.15924 0.0
C16 C 0.59481 0.20943 0.1946 0.0
C17 C 0.61963 0.24005 0.19139 0.0
C18 C 0.60916 0.26928 0.17378 0.0
C19 C 0.56122 0.20811 0.17969 0.0
N20 N 0.55169 0.23671 0.16233 0.0
H21 H 0.57027 0.28768 0.14401 0.0
H22 H 0.54386 0.18304 0.18118 0.0
H23 H 0.58215 0.19871 0.10328 0.0
H24 H 0.49568 0.14086 0.14441 0.0
O25 O 0.53396 0.25369 0.10587 0.0
O26 O 0.47703 0.22708 0.10563 0.0
O27 O 0.4782 0.20295 0.1637 0.0
C28 C 0.50374 0.24452 0.09241 0.0
H29 H 0.41326 0.33023 0.1613 0.0
H30 H 0.59438 0.12465 0.09842 0.0
H31 H 0.60189 0.18599 0.20774 0.0
H32 H 0.62806 0.29274 0.16973 0.0
Co33 Co 0.27311 0.50491 0.63982 0.0
C34 C 0.1891 0.49138 0.64303 0.0
C35 C 0.22152 0.44181 0.65221 0.0
C36 C 0.18374 0.43219 0.65203 0.0
N37 N 0.22511 0.4792 0.64717 0.0
N38 N 0.16335 0.46341 0.64628 0.0
H39 H 0.18163 0.51905 0.63566 0.0
H40 H 0.24487 0.42229 0.65461 0.0
C41 C 0.29035 0.46271 0.69075 0.0
O42 O 0.25914 0.47626 0.70151 0.0
N43 N 0.32076 0.53003 0.63188 0.0
C44 C 0.32406 0.56558 0.62237 0.0
C45 C 0.36177 0.57502 0.62131 0.0
C46 C 0.35669 0.5182 0.63642 0.0
N47 N 0.3824 0.54538 0.63027 0.0
C48 C 0.23469 0.56977 0.66137 0.0
C49 C 0.287 0.58594 0.70119 0.0
C50 C 0.25834 0.61232 0.69576 0.0
C51 C 0.23131 0.60325 0.67612 0.0
C52 C 0.2891 0.55244 0.68613 0.0
N53 N 0.26308 0.54452 0.66643 0.0
H54 H 0.21661 0.56634 0.64414 0.0
H55 H 0.31354 0.53452 0.68893 0.0
H56 H 0.30054 0.58379 0.61718 0.0
H57 H 0.36381 0.49089 0.6449 0.0
O58 O 0.25088 0.52857 0.60861 0.0
O59 O 0.27975 0.47271 0.60857 0.0
O60 O 0.29984 0.47183 0.66678 0.0
C61 C 0.26231 0.49908 0.59508 0.0
H62 H 0.17228 0.40412 0.65521 0.0
H63 H 0.37305 0.60187 0.61456 0.0
H64 H 0.30899 0.59217 0.71578 0.0
H65 H 0.20973 0.62349 0.67032 0.0
Co66 Co 0.99954 0.28147 0.13916 0.0
C67 C 0.00774 0.19811 0.14631 0.0
C68 C 0.05682 0.22901 0.15937 0.0
C69 C 0.06397 0.19097 0.16206 0.0
N70 N 0.02157 0.23353 0.14966 0.0
N71 N 0.03317 0.17136 0.15386 0.0
H72 H 0.97997 0.19222 0.13811 0.0
H73 H 0.07657 0.25176 0.16327 0.0
C74 C 0.01713 0.32551 0.18969 0.0
O75 O 0.98081 0.33165 0.19331 0.0
N76 N 0.97887 0.33069 0.12767 0.0
C77 C 0.95552 0.33716 0.10648 0.0
C78 C 0.95113 0.37553 0.10288 0.0
C79 C 0.98941 0.36586 0.13579 0.0
N80 N 0.97232 0.39348 0.12144 0.0
C81 C 0.92102 0.27639 0.15089 0.0
C82 C 0.92652 0.24855 0.20287 0.0
C83 C 0.8908 0.25624 0.1919 0.0
C84 C 0.88829 0.26973 0.16553 0.0
C85 C 0.959 0.25611 0.18742 0.0
N86 N 0.9559 0.27146 0.16211 0.0
H87 H 0.91804 0.28469 0.13019 0.0
H88 H 0.98659 0.25029 0.19592 0.0
H89 H 0.94298 0.31562 0.09379 0.0
H90 H 0.01082 0.37177 0.15069 0.0
O91 O 0.98015 0.25811 0.10721 0.0
O92 O 0.03659 0.2854 0.11029 0.0
O93 O 0.02889 0.3071 0.16908 0.0
C94 C 0.01152 0.26787 0.09547 0.0
H95 H 0.09062 0.17884 0.16846 0.0
H96 H 0.9338 0.38915 0.08771 0.0
H97 H 0.92924 0.23723 0.22308 0.0
H98 H 0.861 0.27458 0.15612 0.0
Co99 Co 0.23714 1.0053 0.63935 0.0
C100 C 0.32004 0.02262 0.64001 0.0
C101 C 0.2911 0.0547 0.6703 0.0
C102 C 0.32927 0.06229 0.67215 0.0
N103 N 0.28518 0.02855 0.65078 0.0
N104 N 0.34741 0.04192 0.65316 0.0
H105 H 0.32573 1.00336 0.6235 0.0
H106 H 0.2696 0.06832 0.68228 0.0
C107 C 0.20904 0.03152 0.69412 0.0
O108 O 0.23355 0.0099 0.70677 0.0
N109 N 0.18949 0.98342 0.62723 0.0
C110 C 0.18501 0.95277 0.61125 0.0
C111 C 0.14683 0.94633 0.60765 0.0
C112 C 0.15398 0.99518 0.63311 0.0
N113 N 0.12746 0.97287 0.62157 0.0
C114 C 0.28044 0.94375 0.66194 0.0
C115 C 0.22072 0.908 0.68716 0.0
C116 C 0.25615 0.88978 0.68671 0.0
C117 C 0.28653 0.90937 0.67495 0.0
C118 C 0.21631 0.94357 0.67509 0.0
N119 N 0.24579 0.9608 0.66207 0.0
H120 H 0.30354 0.95532 0.65069 0.0
H121 H 0.18862 0.95655 0.67538 0.0
H122 H 0.20788 0.93582 0.60317 0.0
H123 H 0.14743 0.01937 0.6457 0.0
O124 O 0.26116 0.98747 0.60676 0.0
O125 O 0.23226 0.04311 0.6116 0.0
O126 O 0.2086 0.03301 0.6684 0.0
C127 C 0.25028 0.01936 0.5961 0.0
H128 H 0.34262 0.08163 0.68621 0.0
H129 H 0.13426 0.92319 0.59643 0.0
H130 H 0.19595 0.89449 0.69559 0.0
H131 H 0.31487 0.89779 0.67463 0.0
Co132 Co 0.5093 0.28137 0.84679 0.0
C133 C 0.49316 0.19753 0.84641 0.0
C134 C 0.44588 0.23062 0.83331 0.0
C135 C 0.43528 0.19316 0.83367 0.0
N136 N 0.48262 0.23356 0.84048 0.0
N137 N 0.46503 0.17223 0.84193 0.0
H138 H 0.51965 0.1899 0.85568 0.0
H139 H 0.42732 0.25422 0.82908 0.0
C140 C 0.46918 0.29723 0.79465 0.0
O141 O 0.48327 0.26585 0.78444 0.0
N142 N 0.53489 0.32904 0.8536 0.0
C143 C 0.57123 0.333 0.86131 0.0
C144 C 0.58 0.37098 0.86188 0.0
C145 C 0.52185 0.36469 0.84984 0.0
N146 N 0.54902 0.39092 0.85459 0.0
C147 C 0.57268 0.23934 0.82705 0.0
C148 C 0.59266 0.2887 0.7863 0.0
C149 C 0.61723 0.25877 0.7927 0.0
C150 C 0.60625 0.23344 0.81295 0.0
C151 C 0.55899 0.29344 0.80088 0.0
N152 N 0.54916 0.26876 0.82098 0.0
H153 H 0.56777 0.22215 0.84451 0.0
H154 H 0.54228 0.31853 0.79721 0.0
H155 H 0.59031 0.30979 0.86556 0.0
H156 H 0.49355 0.37125 0.84291 0.0
O157 O 0.53226 0.26061 0.87869 0.0
O158 O 0.47687 0.2903 0.87763 0.0
O159 O 0.4773 0.30723 0.81873 0.0
C160 C 0.50285 0.27313 0.89171 0.0
H161 H 0.40749 0.18238 0.82864 0.0
H162 H 0.60722 0.38296 0.86713 0.0
H163 H 0.60022 0.30938 0.77111 0.0
H164 H 0.62492 0.21096 0.81958 0.0
Co165 Co 0.22559 0.51326 0.35076 0.0
C166 C 0.30903 0.5033 0.34481 0.0
C167 C 0.27755 0.45867 0.32569 0.0
C168 C 0.31545 0.45061 0.32346 0.0
N169 N 0.27342 0.49174 0.33898 0.0
N170 N 0.33533 0.47843 0.33567 0.0
H171 H 0.31545 0.52839 0.35651 0.0
H172 H 0.25466 0.44079 0.31882 0.0
C173 C 0.18197 0.49462 0.29994 0.0
O174 O 0.17744 0.53079 0.29478 0.0
N175 N 0.17661 0.53329 0.36352 0.0
C176 C 0.17059 0.5535 0.38642 0.0
C177 C 0.13239 0.55851 0.39027 0.0
C178 C 0.14125 0.52571 0.35426 0.0
N179 N 0.11405 0.54113 0.36998 0.0
C180 C 0.22608 0.59203 0.33877 0.0
C181 C 0.25846 0.58801 0.28802 0.0
C182 C 0.24799 0.62332 0.29857 0.0
C183 C 0.23199 0.62507 0.32429 0.0
C184 C 0.25125 0.55515 0.30314 0.0
N185 N 0.23403 0.55741 0.3279 0.0
H186 H 0.21602 0.59467 0.35912 0.0
H187 H 0.2589 0.52793 0.29473 0.0
H188 H 0.19235 0.56394 0.39983 0.0
H189 H 0.13476 0.50771 0.33735 0.0
O190 O 0.25007 0.53261 0.38236 0.0
O191 O 0.2234 0.47583 0.37939 0.0
O192 O 0.19887 0.48375 0.32139 0.0
C193 C 0.24125 0.50088 0.39403 0.0
H194 H 0.32735 0.42567 0.31397 0.0
H195 H 0.1191 0.57376 0.40671 0.0
H196 H 0.2717 0.58585 0.26837 0.0
H197 H 0.22501 0.65208 0.3335 0.0
Co198 Co 1.00504 0.2311 0.85085 0.0
C199 C 0.01727 0.315 0.84682 0.0
C200 C 0.06369 0.2834 0.83059 0.0
C201 C 0.07264 0.32128 0.82965 0.0
N202 N 0.02841 0.27923 0.84062 0.0
N203 N 0.04343 0.34122 0.8399 0.0
H204 H 0.99212 0.32182 0.85817 0.0
H205 H 0.08275 0.2605 0.82559 0.0
C206 C 0.0415 0.20932 0.7981 0.0
O207 O 0.02546 0.23838 0.7861 0.0
N208 N 0.98271 0.1831 0.8616 0.0
C209 C 0.95129 0.17825 0.87668 0.0
C210 C 0.94447 0.13999 0.87938 0.0
C211 C 0.99434 0.14771 0.85514 0.0
N212 N 0.97142 0.12094 0.86569 0.0
C213 C 0.93882 0.26808 0.83075 0.0
C214 C 0.91827 0.21291 0.79397 0.0
C215 C 0.89349 0.24333 0.79864 0.0
C216 C 0.90459 0.27138 0.81704 0.0
C217 C 0.95248 0.21074 0.80817 0.0
N218 N 0.9627 0.2384 0.82614 0.0
H219 H 0.94445 0.28803 0.84659 0.0
H220 H 0.96973 0.18572 0.80568 0.0
H221 H 0.93411 0.20092 0.88482 0.0
H222 H 0.01894 0.14141 0.84295 0.0
O223 O 0.98363 0.25482 0.88227 0.0
O224 O 0.04026 0.22764 0.88068 0.0
O225 O 0.03611 0.20335 0.82318 0.0
C226 C 0.01454 0.24525 0.89478 0.0
H227 H 0.09915 0.33304 0.82264 0.0
H228 H 0.92088 0.12717 0.8899 0.0
H229 H 0.91074 0.19027 0.78021 0.0
H230 H 0.88583 0.29451 0.82234 0.0
Co231 Co 0.29105 0.00701 0.35369 0.0
C232 C 0.20736 0.01776 0.35093 0.0
C233 C 0.2369 0.06267 0.33112 0.0
C234 C 0.1987 0.07015 0.32987 0.0
N235 N 0.24243 0.02898 0.34342 0.0
N236 N 0.18025 0.04188 0.3424 0.0
H237 H 0.20156 0.99354 0.3635 0.0
H238 H 0.259 0.08172 0.32464 0.0
C239 C 0.30934 0.03849 0.29891 0.0
O240 O 0.28015 0.02048 0.2886 0.0
N241 N 0.33942 0.98631 0.36444 0.0
C242 C 0.3456 0.95482 0.37914 0.0
C243 C 0.38412 0.94987 0.38201 0.0
C244 C 0.37404 1.00003 0.3585 0.0
N245 N 0.40179 0.97821 0.36886 0.0
C246 C 0.25393 0.93897 0.33606 0.0
C247 C 0.30805 0.91739 0.29877 0.0
C248 C 0.27716 0.8934 0.30345 0.0
C249 C 0.24984 0.90474 0.32233 0.0
C250 C 0.31094 0.95159 0.31291 0.0
N251 N 0.28352 0.96261 0.33082 0.0
H252 H 0.23443 0.94509 0.35208 0.0
H253 H 0.33606 0.96855 0.3101 0.0
H254 H 0.32367 0.93643 0.38689 0.0
H255 H 0.37903 0.0254 0.34683 0.0
O256 O 0.26869 0.98833 0.38658 0.0
O257 O 0.29576 0.04476 0.38168 0.0
O258 O 0.317 0.03578 0.32401 0.0
C259 C 0.2788 0.02046 0.39727 0.0
H260 H 0.18564 0.09536 0.32164 0.0
H261 H 0.39808 0.92665 0.39221 0.0
H262 H 0.33025 0.90946 0.28477 0.0
H263 H 0.2265 0.88633 0.32766 0.0
Co264 Co 0.50257 0.78177 0.85222 0.0
C265 C 0.51839 0.69837 0.84475 0.0
C266 C 0.56794 0.73297 0.84158 0.0
C267 C 0.57863 0.6956 0.83953 0.0
N268 N 0.53006 0.73497 0.84443 0.0
N269 N 0.54746 0.67369 0.84153 0.0
H270 H 0.48966 0.68956 0.84799 0.0
H271 H 0.58676 0.75713 0.84186 0.0
C272 C 0.54246 0.79763 0.80026 0.0
O273 O 0.53096 0.76472 0.79093 0.0
N274 N 0.47614 0.82852 0.86043 0.0
C275 C 0.44122 0.83143 0.87107 0.0
C276 C 0.4317 0.86917 0.87279 0.0
C277 C 0.48752 0.86453 0.85589 0.0
N278 N 0.46072 0.8901 0.86314 0.0
C279 C 0.43668 0.74136 0.83518 0.0
C280 C 0.41887 0.78708 0.79181 0.0
C281 C 0.39341 0.75855 0.79939 0.0
C282 C 0.4031 0.7352 0.82114 0.0
C283 C 0.45246 0.79213 0.80636 0.0
N284 N 0.46151 0.76891 0.82751 0.0
H285 H 0.44107 0.72567 0.85352 0.0
H286 H 0.46972 0.81642 0.80164 0.0
H287 H 0.42369 0.80769 0.87687 0.0
H288 H 0.51445 0.8718 0.84691 0.0
O289 O 0.48287 0.75905 0.88469 0.0
O290 O 0.53664 0.7914 0.88194 0.0
O291 O 0.53235 0.80886 0.82366 0.0
C292 C 0.51276 0.77245 0.89664 0.0
H293 H 0.60744 0.68548 0.83782 0.0
H294 H 0.40532 0.8802 0.88065 0.0
H295 H 0.41215 0.80643 0.77556 0.0
H296 H 0.38357 0.71407 0.82868 0.0
Co297 Co 0.72515 0.50723 0.35201 0.0
C298 C 0.80883 0.52134 0.34992 0.0
C299 C 0.77692 0.56938 0.33674 0.0
C300 C 0.8148 0.57842 0.33562 0.0
N301 N 0.77304 0.53294 0.3446 0.0
N302 N 0.83473 0.54816 0.34399 0.0
H303 H 0.81618 0.4947 0.35907 0.0
H304 H 0.75378 0.58865 0.33283 0.0
C305 C 0.70969 0.54578 0.29956 0.0
O306 O 0.74242 0.53367 0.29034 0.0
N307 N 0.67757 0.48255 0.36008 0.0
C308 C 0.67353 0.4474 0.37013 0.0
C309 C 0.63556 0.43904 0.37149 0.0
C310 C 0.64203 0.49527 0.35559 0.0
N311 N 0.61571 0.46904 0.36221 0.0
C312 C 0.76511 0.44212 0.33275 0.0
C313 C 0.71426 0.42252 0.29273 0.0
C314 C 0.74409 0.39776 0.29875 0.0
C315 C 0.7701 0.40839 0.31866 0.0
C316 C 0.71069 0.45655 0.30706 0.0
N317 N 0.73616 0.46624 0.32675 0.0
H318 H 0.78268 0.44681 0.35008 0.0
H319 H 0.68582 0.47365 0.30357 0.0
H320 H 0.69666 0.42882 0.37558 0.0
H321 H 0.63563 0.52261 0.34688 0.0
O322 O 0.74671 0.48524 0.38389 0.0
O323 O 0.71761 0.54097 0.38242 0.0
O324 O 0.69888 0.53785 0.32345 0.0
C325 C 0.73481 0.51514 0.39665 0.0
H326 H 0.82671 0.60562 0.33022 0.0
H327 H 0.62361 0.4127 0.37866 0.0
H328 H 0.69297 0.4149 0.27795 0.0
H329 H 0.79248 0.38933 0.32494 0.0
Co330 Co 1.00446 0.73103 0.85252 0.0
C331 C 0.99191 0.81445 0.84887 0.0
C332 C 0.9488 0.78407 0.82762 0.0
C333 C 0.94121 0.82228 0.82567 0.0
N334 N 0.98153 0.77902 0.8413 0.0
N335 N 0.96832 0.84123 0.83914 0.0
H336 H 0.01534 0.8208 0.86212 0.0
H337 H 0.93045 0.76173 0.82053 0.0
C338 C 0.97221 0.70786 0.79856 0.0
O339 O 0.9892 0.73647 0.7867 0.0
N340 N 0.02698 0.68368 0.86428 0.0
C341 C 0.05998 0.68038 0.87766 0.0
C342 C 0.06882 0.6426 0.88003 0.0
C343 C 0.01604 0.64774 0.85877 0.0
N344 N 0.04136 0.622 0.868 0.0
C345 C 0.07151 0.76878 0.83385 0.0
C346 C 0.0939 0.71316 0.7979 0.0
C347 C 0.11809 0.74397 0.80255 0.0
C348 C 0.10616 0.77224 0.82058 0.0
C349 C 0.05955 0.7107 0.81177 0.0
N350 N 0.04828 0.73863 0.82919 0.0
H351 H 0.06484 0.78914 0.84926 0.0
H352 H 0.04289 0.68529 0.80936 0.0
H353 H 0.07713 0.70391 0.88445 0.0
H354 H 0.99105 0.6406 0.84724 0.0
O355 O 0.02285 0.75547 0.88487 0.0
O356 O 0.96712 0.72685 0.88069 0.0
O357 O 0.97579 0.70258 0.8239 0.0
C358 C 0.99092 0.74535 0.8958 0.0
H359 H 0.91671 0.83507 0.81622 0.0
H360 H 0.09394 0.63128 0.88958 0.0
H361 H 0.10194 0.69039 0.78439 0.0
H362 H 0.12443 0.79575 0.82581 0.0
Co363 Co 0.78984 0.01072 0.35403 0.0
C364 C 0.70653 1.00598 0.34794 0.0
C365 C 0.73474 0.96342 0.32432 0.0
C366 C 0.69626 0.95924 0.32101 0.0
N367 N 0.74117 0.99299 0.341 0.0
N368 N 0.67871 0.98584 0.336 0.0
H369 H 0.70167 0.02945 0.3616 0.0
H370 H 0.75629 0.94552 0.31552 0.0
C371 C 0.83196 0.99265 0.30244 0.0
O372 O 0.83651 0.02883 0.29741 0.0
N373 N 0.83939 0.02703 0.36804 0.0
C374 C 0.8463 0.04341 0.39231 0.0
C375 C 0.88463 0.04797 0.39569 0.0
C376 C 0.87426 0.02141 0.35738 0.0
N377 N 0.9021 0.0342 0.37366 0.0
C378 C 0.79595 0.09011 0.3441 0.0
C379 C 0.76048 0.09161 0.29436 0.0
C380 C 0.77423 0.12536 0.3055 0.0
C381 C 0.79193 0.12436 0.33067 0.0
C382 C 0.76593 0.05749 0.3083 0.0
N383 N 0.78452 0.05686 0.33261 0.0
H384 H 0.80739 0.0908 0.36418 0.0
H385 H 0.75595 0.03157 0.29915 0.0
H386 H 0.82509 0.052 0.40679 0.0
H387 H 0.87998 0.007 0.33871 0.0
O388 O 0.76561 0.02944 0.38586 0.0
O389 O 0.78901 0.97137 0.38138 0.0
O390 O 0.81584 0.98152 0.32413 0.0
C391 C 0.77188 0.9964 0.3965 0.0
H392 H 0.68221 0.93739 0.30937 0.0
H393 H 0.89854 0.06076 0.41291 0.0
H394 H 0.74605 0.09159 0.27508 0.0
H395 H 0.80155 0.15018 0.34035 0.0
Co396 Co 0.50298 0.73076 0.13963 0.0
C397 C 0.51567 0.81432 0.14314 0.0
C398 C 0.56354 0.78309 0.15745 0.0
C399 C 0.57205 0.82113 0.15867 0.0
N400 N 0.52752 0.7787 0.14878 0.0
N401 N 0.54194 0.84058 0.14953 0.0
H402 H 0.48937 0.82121 0.13327 0.0
H403 H 0.58305 0.76022 0.16157 0.0
C404 C 0.54005 0.71356 0.1925 0.0
O405 O 0.52758 0.7459 0.20223 0.0
N406 N 0.47925 0.6833 0.12977 0.0
C407 C 0.44496 0.67948 0.11827 0.0
C408 C 0.43702 0.64151 0.1157 0.0
C409 C 0.49186 0.64764 0.13398 0.0
N410 N 0.46639 0.6214 0.12572 0.0
C411 C 0.43563 0.76826 0.15831 0.0
C412 C 0.41723 0.71526 0.19714 0.0
C413 C 0.3909 0.7436 0.19091 0.0
C414 C 0.40094 0.7709 0.17168 0.0
C415 C 0.4516 0.71362 0.18327 0.0
N416 N 0.46073 0.74005 0.16416 0.0
H417 H 0.44053 0.78702 0.14164 0.0
H418 H 0.46943 0.68926 0.1866 0.0
H419 H 0.42669 0.70273 0.11258 0.0
H420 H 0.51856 0.64106 0.14356 0.0
O421 O 0.48287 0.7539 0.10745 0.0
O422 O 0.53837 0.72442 0.11031 0.0
O423 O 0.53263 0.70355 0.16832 0.0
C424 C 0.5138 0.74264 0.09567 0.0
H425 H 0.59894 0.83346 0.1644 0.0
H426 H 0.4114 0.62977 0.10715 0.0
H427 H 0.41055 0.69326 0.21158 0.0
H428 H 0.38099 0.79243 0.16536 0.0
Co429 Co 0.77279 0.50407 0.64136 0.0
C430 C 0.69019 0.5238 0.64174 0.0
C431 C 0.72219 0.56317 0.66528 0.0
C432 C 0.68469 0.57396 0.66579 0.0
N433 N 0.72573 0.53072 0.65101 0.0
N434 N 0.66446 0.54892 0.65116 0.0
H435 H 0.6832 0.50111 0.62791 0.0
H436 H 0.74513 0.5791 0.67409 0.0
C437 C 0.79929 0.53671 0.69395 0.0
O438 O 0.77187 0.51888 0.70653 0.0
N439 N 0.81959 0.47895 0.6307 0.0
C440 C 0.82251 0.44384 0.62027 0.0
C441 C 0.86022 0.43517 0.6171 0.0
C442 C 0.85566 0.49138 0.63339 0.0
N443 N 0.88131 0.46499 0.62538 0.0
C444 C 0.72806 0.44734 0.66859 0.0
C445 C 0.78821 0.41063 0.69255 0.0
C446 C 0.75267 0.39263 0.6922 0.0
C447 C 0.72195 0.41326 0.6819 0.0
C448 C 0.79258 0.44631 0.68059 0.0
N449 N 0.76316 0.46328 0.66728 0.0
H450 H 0.70458 0.45899 0.65791 0.0
H451 H 0.82046 0.45888 0.68031 0.0
H452 H 0.79883 0.42529 0.61616 0.0
H453 H 0.86288 0.51896 0.64137 0.0
O454 O 0.7481 0.48197 0.61066 0.0
O455 O 0.77788 0.53745 0.61074 0.0
O456 O 0.80242 0.53444 0.66835 0.0
C457 C 0.75915 0.51173 0.59736 0.0
H458 H 0.67332 0.59842 0.67621 0.0
H459 H 0.87102 0.40825 0.61005 0.0
H460 H 0.81316 0.3967 0.70036 0.0
H461 H 0.69338 0.40234 0.68237 0.0
Co462 Co 0.00629 0.78194 0.13705 0.0
C463 C 0.99327 0.69958 0.13923 0.0
C464 C 0.95087 0.72979 0.16171 0.0
C465 C 0.94408 0.69148 0.16411 0.0
N466 N 0.98183 0.73475 0.14623 0.0
N467 N 0.97069 0.67263 0.14989 0.0
H468 H 0.01802 0.69381 0.12701 0.0
H469 H 0.93437 0.75232 0.17071 0.0
C470 C 0.99533 0.83079 0.18612 0.0
O471 O 0.03147 0.83963 0.18575 0.0
N472 N 0.0304 0.82981 0.12755 0.0
C473 C 0.06532 0.83581 0.11736 0.0
C474 C 0.0714 0.87419 0.11535 0.0
C475 C 0.0151 0.86482 0.13018 0.0
N476 N 0.03992 0.89239 0.12362 0.0
C477 C 0.08172 0.75424 0.1435 0.0
C478 C 0.08329 0.75257 0.19923 0.0
C479 C 0.11656 0.74551 0.18476 0.0
C480 C 0.11518 0.74478 0.15662 0.0
C481 C 0.0499 0.76082 0.1851 0.0
N482 N 0.0504 0.76521 0.15765 0.0
H483 H 0.08148 0.75334 0.12177 0.0
H484 H 0.02401 0.76427 0.19638 0.0
H485 H 0.08542 0.81432 0.11167 0.0
H486 H 0.98696 0.87011 0.13798 0.0
O487 O 0.02 0.76105 0.10251 0.0
O488 O 0.96706 0.79295 0.11084 0.0
O489 O 0.98167 0.80732 0.16905 0.0
C490 C 0.9883 0.77482 0.09367 0.0
H491 H 0.92103 0.67849 0.17512 0.0
H492 H 0.09721 0.88772 0.10861 0.0
H493 H 0.08319 0.75192 0.22108 0.0
H494 H 0.14022 0.73835 0.14482 0.0
Co495 Co 0.73735 0.99934 0.64071 0.0
C496 C 0.82131 0.98831 0.64252 0.0
C497 C 0.79256 0.94501 0.66462 0.0
C498 C 0.83091 0.93823 0.66604 0.0
N499 N 0.78636 0.97742 0.65081 0.0
N500 N 0.84887 0.96547 0.65209 0.0
H501 H 0.82675 0.01177 0.62911 0.0
H502 H 0.77095 0.92628 0.67222 0.0
C503 C 0.71613 0.96552 0.69426 0.0
O504 O 0.74386 0.9842 0.70592 0.0
N505 N 0.68883 0.02061 0.62992 0.0
C506 C 0.68389 0.05252 0.61541 0.0
C507 C 0.64572 0.05895 0.61224 0.0
C508 C 0.65345 0.00824 0.63563 0.0
N509 N 0.62665 0.03125 0.62505 0.0
C510 C 0.77436 0.06549 0.66165 0.0
C511 C 0.71648 0.08773 0.69567 0.0
C512 C 0.7472 0.11224 0.69173 0.0
C513 C 0.77683 0.10021 0.67498 0.0
C514 C 0.71514 0.05316 0.68192 0.0
N515 N 0.74393 0.04224 0.66513 0.0
H516 H 0.79567 0.05896 0.64693 0.0
H517 H 0.68993 0.03608 0.68377 0.0
H518 H 0.70647 0.07038 0.60802 0.0
H519 H 0.6473 0.98316 0.64734 0.0
O520 O 0.75996 0.02091 0.60902 0.0
O521 O 0.7343 0.96358 0.61114 0.0
O522 O 0.71066 0.96823 0.66887 0.0
C523 C 0.75071 0.98968 0.59673 0.0
H524 H 0.84447 0.91422 0.67559 0.0
H525 H 0.63294 0.08287 0.60206 0.0
H526 H 0.69278 0.09592 0.70827 0.0
H527 H 0.80045 0.11869 0.67046 0.0
H528 H 0.56081 0.26685 0.05948 0.0
H529 H 0.4403 0.28121 0.92429 0.0
H530 H 0.44207 0.23793 0.05868 0.0
H531 H 0.55997 0.25658 0.92631 0.0
H532 H 0.43844 0.27557 0.97383 0.0
H533 H 0.55892 0.27481 0.01072 0.0
C534 C 0.5342 0.26244 0.04906 0.0
C535 C 0.50156 0.25153 0.06312 0.0
C536 C 0.46497 0.27133 0.96328 0.0
C537 C 0.49927 0.26066 0.0072 0.0
C538 C 0.46609 0.27463 0.93514 0.0
C539 C 0.50033 0.26928 0.92127 0.0
C540 C 0.49848 0.26345 0.97745 0.0
C541 C 0.53294 0.26075 0.93619 0.0
C542 C 0.53323 0.2668 0.02119 0.0
C543 C 0.4679 0.24617 0.04852 0.0
N544 N 0.53125 0.25838 0.96346 0.0
N545 N 0.46756 0.25086 0.02123 0.0
H546 H 0.22986 0.43766 0.42584 0.0
H547 H 0.24462 0.55674 0.5612 0.0
H548 H 0.26591 0.55446 0.42901 0.0
H549 H 0.26976 0.43706 0.56183 0.0
H550 H 0.24063 0.55461 0.51211 0.0
H551 H 0.23494 0.43477 0.47547 0.0
C552 C 0.23912 0.46248 0.43689 0.0
C553 C 0.24738 0.49636 0.42332 0.0
C554 C 0.24697 0.52878 0.52299 0.0
C555 C 0.25233 0.49346 0.47955 0.0
C556 C 0.24901 0.52991 0.55101 0.0
C557 C 0.25769 0.49705 0.56555 0.0
C558 C 0.25309 0.49444 0.50936 0.0
C559 C 0.26321 0.46306 0.55127 0.0
C560 C 0.24198 0.4608 0.46509 0.0
C561 C 0.25921 0.52773 0.43857 0.0
N562 N 0.26068 0.46254 0.52383 0.0
N563 N 0.26091 0.52563 0.46582 0.0
H564 H 0.07783 0.23655 0.92676 0.0
H565 H 0.95748 0.24427 0.06071 0.0
H566 H 0.95969 0.26782 0.92947 0.0
H567 H 0.07446 0.27966 0.06325 0.0
H568 H 0.9612 0.24024 0.01193 0.0
H569 H 0.0805 0.24236 0.97636 0.0
C570 C 0.05263 0.24489 0.93773 0.0
C571 C 0.01842 0.25154 0.92406 0.0
C572 C 0.98612 0.24882 0.02312 0.0
C573 C 0.02121 0.25746 0.98021 0.0
C574 C 0.98416 0.2509 0.05103 0.0
C575 C 0.01571 0.26253 0.06609 0.0
C576 C 0.01999 0.25794 0.00997 0.0
C577 C 0.04948 0.27073 0.05231 0.0
C578 C 0.05424 0.24824 0.96589 0.0
C579 C 0.98663 0.26235 0.93914 0.0
N580 N 0.05083 0.26821 0.02485 0.0
N581 N 0.9887 0.26452 0.96638 0.0
H582 H 0.32861 0.05362 0.43178 0.0
H583 H 0.20012 0.05201 0.56172 0.0
H584 H 0.21786 1.00253 0.42827 0.0
H585 H 0.31165 1.00247 0.56503 0.0
H586 H 0.20635 0.05754 0.51238 0.0
H587 H 0.32246 0.05853 0.4812 0.0
C588 C 0.30275 0.04419 0.44141 0.0
C589 C 0.27367 0.0276 0.42621 0.0
C590 C 0.22955 0.04602 0.52409 0.0
C591 C 0.2663 0.03387 0.48196 0.0
C592 C 0.22616 0.04305 0.55207 0.0
C593 C 0.25545 0.02673 0.5672 0.0
C594 C 0.2629 0.03371 0.51151 0.0
C595 C 0.28847 0.01506 0.55389 0.0
C596 C 0.29941 0.0468 0.46943 0.0
C597 C 0.24088 0.01533 0.43948 0.0
N598 N 0.29146 0.01899 0.52668 0.0
N599 N 0.23792 0.01892 0.46671 0.0
H600 H 0.4966 0.70989 0.92628 0.0
H601 H 0.49513 0.80509 0.06655 0.0
H602 H 0.54137 0.82317 0.93273 0.0
H603 H 0.54508 0.69404 0.05932 0.0
H604 H 0.5007 0.81293 0.01737 0.0
H605 H 0.50285 0.70284 0.97545 0.0
C606 C 0.50789 0.73315 0.93811 0.0
C607 C 0.51858 0.76711 0.9257 0.0
C608 C 0.51077 0.78709 0.0267 0.0
C609 C 0.52479 0.75961 0.98142 0.0
C610 C 0.50747 0.78254 0.05456 0.0
C611 C 0.51974 0.74892 0.06673 0.0
C612 C 0.52516 0.75725 0.01104 0.0
C613 C 0.53557 0.72044 0.05053 0.0
C614 C 0.5116 0.72905 0.96596 0.0
C615 C 0.53309 0.79649 0.94171 0.0
N616 N 0.53717 0.72492 0.02331 0.0
N617 N 0.53514 0.79236 0.96895 0.0
H618 H 0.72698 0.57792 0.42928 0.0
H619 H 0.7348 0.45609 0.56378 0.0
H620 H 0.75093 0.45801 0.43113 0.0
H621 H 0.76883 0.57354 0.56433 0.0
H622 H 0.72806 0.45898 0.51492 0.0
H623 H 0.73154 0.57941 0.47894 0.0
C624 C 0.73324 0.55203 0.44011 0.0
C625 C 0.73865 0.5178 0.42617 0.0
C626 C 0.7369 0.48417 0.52574 0.0
C627 C 0.74313 0.51922 0.48239 0.0
C628 C 0.74056 0.48262 0.55364 0.0
C629 C 0.7526 0.51458 0.56807 0.0
C630 C 0.74488 0.51803 0.51213 0.0
C631 C 0.7597 0.54821 0.55385 0.0
C632 C 0.7359 0.55293 0.4683 0.0
C633 C 0.74674 0.48504 0.44105 0.0
N634 N 0.75568 0.54914 0.52652 0.0
N635 N 0.74842 0.48651 0.46833 0.0
H636 H 0.9872 0.71017 0.06439 0.0
H637 H 0.01477 0.80534 0.92604 0.0
H638 H 0.96872 0.83055 0.05843 0.0
H639 H 0.94937 0.70239 0.93038 0.0
H640 H 1.00533 0.81459 0.97477 0.0
H641 H 0.97991 0.70475 0.01524 0.0
C642 C 0.98095 0.7353 0.05266 0.0
C643 C 0.9782 0.77078 0.06516 0.0
C644 C 0.99265 0.79031 0.96489 0.0
C645 C 0.97131 0.76506 0.00938 0.0
C646 C 0.99822 0.7849 0.93726 0.0
C647 C 0.98291 0.75301 0.9244 0.0
C648 C 0.97272 0.76299 0.9797 0.0
C649 C 0.96152 0.72738 0.93966 0.0
C650 C 0.97677 0.73221 0.02478 0.0
C651 C 0.97052 0.80269 0.04932 0.0
N652 N 0.95767 0.7325 0.96671 0.0
N653 N 0.96813 0.79924 0.02202 0.0
H654 H 0.7374 0.04537 0.43063 0.0
H655 H 0.746 0.92549 0.56508 0.0
H656 H 0.78782 0.93392 0.42816 0.0
H657 H 0.76501 0.04617 0.56135 0.0
H658 H 0.74894 0.92293 0.51531 0.0
H659 H 0.73178 0.04028 0.47932 0.0
C660 C 0.74694 0.01956 0.44029 0.0
C661 C 0.76362 0.9902 0.42534 0.0
C662 C 0.75269 0.94976 0.52559 0.0
C663 C 0.75719 0.98435 0.48126 0.0
C664 C 0.75101 0.95129 0.55384 0.0
C665 C 0.75529 0.98611 0.56727 0.0
C666 C 0.75766 0.98342 0.51101 0.0
C667 C 0.7617 0.01872 0.55187 0.0
C668 C 0.74387 0.01682 0.46812 0.0
C669 C 0.77504 0.95729 0.43902 0.0
N670 N 0.76226 0.01662 0.52459 0.0
N671 N 0.77179 0.95524 0.46641 0.0
H672 H 0.51658 0.87702 0.10505 0.0
H673 H 0.52663 0.08331 0.16867 0.0
H674 H 0.5625 0.8955 0.18451 0.0
H675 H 0.55369 0.06433 0.08495 0.0
H676 H 0.52468 0.01432 0.17567 0.0
H677 H 0.51517 0.94609 0.09795 0.0
C678 C 0.52601 0.89573 0.12104 0.0
C679 C 0.53973 0.88084 0.14537 0.0
C680 C 0.53088 0.02535 0.15577 0.0
C681 C 0.53762 0.95925 0.13764 0.0
C682 C 0.53176 0.06452 0.15175 0.0
C683 C 0.54041 0.07928 0.12622 0.0
C684 C 0.53769 1.00087 0.13393 0.0
C685 C 0.54718 0.05389 0.10494 0.0
C686 C 0.5254 0.93492 0.11695 0.0
C687 C 0.55196 0.90608 0.16545 0.0
N688 N 0.54538 0.01584 0.1092 0.0
N689 N 0.55032 0.94413 0.16126 0.0
H690 H 0.61608 0.60887 0.65313 0.0
H691 H 0.42897 0.48353 0.63025 0.0
H692 H 0.61945 0.48798 0.64038 0.0
H693 H 0.42941 0.60523 0.63841 0.0
H694 H 0.49821 0.4836 0.63499 0.0
H695 H 0.54737 0.60728 0.64847 0.0
C696 C 0.60244 0.58193 0.64939 0.0
C697 C 0.62383 0.54852 0.64719 0.0
C698 C 0.48308 0.51027 0.63568 0.0
C699 C 0.54457 0.54645 0.6417 0.0
C700 C 0.4435 0.51022 0.63313 0.0
C701 C 0.42313 0.54444 0.63369 0.0
C702 C 0.50248 0.54478 0.63901 0.0
C703 C 0.4437 0.57819 0.63731 0.0
C704 C 0.56307 0.58105 0.64662 0.0
C705 C 0.60431 0.51453 0.64193 0.0
N706 N 0.48201 0.57746 0.63982 0.0
N707 N 0.56586 0.51435 0.63947 0.0
H708 H 0.97143 0.44776 0.08281 0.0
H709 H 0.95496 0.6185 0.18687 0.0
H710 H 0.98077 0.4312 0.16873 0.0
H711 H 0.99345 0.63464 0.10516 0.0
H712 H 0.95842 0.5497 0.18021 0.0
H713 H 0.97383 0.51647 0.08996 0.0
C714 C 0.97401 0.45864 0.10316 0.0
C715 C 0.97579 0.43383 0.12522 0.0
C716 C 0.96631 0.56831 0.16379 0.0
C717 C 0.97822 0.51226 0.13358 0.0
C718 C 0.9641 0.60749 0.16753 0.0
C719 C 0.97387 0.6322 0.14651 0.0
C720 C 0.97763 0.55372 0.13866 0.0
C721 C 0.98595 0.61652 0.12192 0.0
C722 C 0.9756 0.49778 0.10722 0.0
C723 C 0.97955 0.44938 0.15118 0.0
N724 N 0.98711 0.57826 0.11856 0.0
N725 N 0.98022 0.48762 0.15469 0.0
H726 H 0.90416 0.95342 0.68869 0.0
H727 H 0.07344 0.95943 0.58397 0.0
H728 H 0.88511 0.98458 0.60577 0.0
H729 H 0.08936 0.9902 0.66739 0.0
H730 H 1.00451 0.95995 0.59109 0.0
H731 H 0.97273 0.95791 0.6811 0.0
C732 C 0.91453 0.96113 0.66888 0.0
C733 C 0.88909 0.96866 0.64782 0.0
C734 C 0.02314 0.96682 0.60776 0.0
C735 C 0.96724 0.97336 0.63888 0.0
C736 C 0.06234 0.96635 0.60374 0.0
C737 C 0.087 0.97485 0.62512 0.0
C738 C 0.00857 0.97487 0.63351 0.0
C739 C 0.07126 0.98383 0.65035 0.0
C740 C 0.95353 0.9639 0.6646 0.0
C741 C 0.90386 0.97883 0.62255 0.0
N742 N 0.03306 0.98314 0.65395 0.0
N743 N 0.94201 0.98046 0.61867 0.0
H744 H 0.60067 0.62486 0.82208 0.0
H745 H 0.48715 0.43619 0.86129 0.0
H746 H 0.49132 0.62759 0.86106 0.0
H747 H 0.60553 0.43869 0.84013 0.0
H748 H 0.48495 0.50555 0.85682 0.0
H749 H 0.59978 0.55604 0.82424 0.0
C750 C 0.57648 0.61119 0.83123 0.0
C751 C 0.54622 0.63259 0.84166 0.0
C752 C 0.51137 0.49084 0.85316 0.0
C753 C 0.54481 0.55293 0.84379 0.0
C754 C 0.51258 0.45126 0.85557 0.0
C755 C 0.54665 0.43156 0.8513 0.0
C756 C 0.54436 0.51081 0.84609 0.0
C757 C 0.57882 0.45263 0.84407 0.0
C758 C 0.57594 0.57168 0.83233 0.0
C759 C 0.51527 0.61266 0.85261 0.0
N760 N 0.57685 0.49093 0.84167 0.0
N761 N 0.51542 0.57404 0.85343 0.0
H762 H 0.88799 0.5771 0.31074 0.0
H763 H 0.06041 0.53365 0.40859 0.0
H764 H 0.87361 0.51363 0.38423 0.0
H765 H 0.07578 0.54461 0.32268 0.0
H766 H 0.99159 0.53346 0.40186 0.0
H767 H 0.95697 0.57307 0.31641 0.0
C768 C 0.89944 0.56242 0.32809 0.0
C769 C 0.87521 0.54567 0.34705 0.0
C770 C 0.01004 0.5357 0.38448 0.0
C771 C 0.95375 0.54123 0.35379 0.0
C772 C 0.04921 0.53601 0.38832 0.0
C773 C 0.07368 0.53922 0.36614 0.0
C774 C 0.99522 0.53948 0.35833 0.0
C775 C 0.0578 0.54185 0.34025 0.0
C776 C 0.93868 0.5599 0.33121 0.0
C777 C 0.89138 0.52664 0.36907 0.0
N778 N 0.01953 0.54237 0.33705 0.0
N779 N 0.92966 0.52526 0.372 0.0
H780 H 0.99014 0.0835 0.81983 0.0
H781 H 0.98673 0.87786 0.88543 0.0
H782 H 0.95752 0.06641 0.90271 0.0
H783 H 0.95486 0.89632 0.80256 0.0
H784 H 0.98925 0.94688 0.89228 0.0
H785 H 0.99072 0.01443 0.81315 0.0
C786 C 0.98349 0.06514 0.83666 0.0
C787 C 0.97368 0.08053 0.86184 0.0
C788 C 0.98178 0.93575 0.87261 0.0
C789 C 0.97467 1.00186 0.85447 0.0
C790 C 0.98054 0.89651 0.86867 0.0
C791 C 0.97047 0.88155 0.84341 0.0
C792 C 0.97384 0.96012 0.85095 0.0
C793 C 0.96241 0.90686 0.82236 0.0
C794 C 0.98357 0.02587 0.83281 0.0
C795 C 0.96493 0.05557 0.88296 0.0
N796 N 0.96457 0.94492 0.82652 0.0
N797 N 0.96588 0.01743 0.87887 0.0
H798 H 0.45737 0.96443 0.40511 0.0
H799 H 0.62352 0.97861 0.29866 0.0
H800 H 0.43733 1.00177 0.32358 0.0
H801 H 0.64282 1.0 0.38319 0.0
H802 H 0.55498 0.98004 0.30692 0.0
H803 H 0.52586 0.97007 0.39733 0.0
C804 C 0.46749 0.97384 0.38561 0.0
C805 C 0.44187 0.98268 0.36495 0.0
C806 C 0.57424 0.98474 0.3236 0.0
C807 C 0.51967 0.98874 0.35582 0.0
C808 C 0.61319 0.98378 0.31892 0.0
C809 C 0.63861 0.98926 0.34029 0.0
C810 C 0.56072 0.99028 0.34996 0.0
C811 C 0.624 0.996 0.36619 0.0
C812 C 0.5064 0.97727 0.38124 0.0
C813 C 0.45624 0.99501 0.34007 0.0
N814 N 0.58595 0.99584 0.3704 0.0
N815 N 0.49424 0.99726 0.33607 0.0
H816 H 0.52673 0.12556 0.84234 0.0
H817 H 0.4008 0.93857 0.86108 0.0
H818 H 0.40514 0.12536 0.85096 0.0
H819 H 0.52295 0.9358 0.85835 0.0
H820 H 0.40269 0.00707 0.85692 0.0
H821 H 0.52678 0.05656 0.84798 0.0
C822 C 0.50007 0.11118 0.84559 0.0
C823 C 0.46585 0.13159 0.84604 0.0
C824 C 0.42916 0.99159 0.85728 0.0
C825 C 0.46571 0.05235 0.85222 0.0
C826 C 0.42813 0.95224 0.85983 0.0
C827 C 0.46179 0.93096 0.86029 0.0
C828 C 0.4641 0.01029 0.85506 0.0
C829 C 0.49623 0.95074 0.85791 0.0
C830 C 0.50012 0.0717 0.84866 0.0
C831 C 0.43219 0.11111 0.84999 0.0
N832 N 0.49649 0.98923 0.85542 0.0
N833 N 0.43301 0.07282 0.85287 0.0
H834 H 0.38104 0.53989 0.34349 0.0
H835 H 0.56687 0.4104 0.35579 0.0
H836 H 0.38242 0.41786 0.33832 0.0
H837 H 0.57137 0.53246 0.35985 0.0
H838 H 0.49877 0.41381 0.35007 0.0
H839 H 0.45003 0.53906 0.35033 0.0
C840 C 0.39573 0.51298 0.34385 0.0
C841 C 0.3758 0.47893 0.34006 0.0
C842 C 0.51449 0.43996 0.35225 0.0
C843 C 0.45458 0.47776 0.34777 0.0
C844 C 0.55358 0.438 0.35572 0.0
C845 C 0.57513 0.47117 0.35855 0.0
C846 C 0.49636 0.47537 0.35154 0.0
C847 C 0.55602 0.50615 0.35759 0.0
C848 C 0.43511 0.51253 0.34763 0.0
C849 C 0.39643 0.4449 0.34057 0.0
N850 N 0.51771 0.50734 0.35423 0.0
N851 N 0.43446 0.44524 0.34433 0.0
H852 H 0.9806 0.38583 0.84366 0.0
H853 H 0.10219 0.57491 0.86654 0.0
H854 H 0.10264 0.38965 0.84641 0.0
H855 H 0.98038 0.57579 0.85986 0.0
H856 H 0.10192 0.50665 0.86022 0.0
H857 H 0.97897 0.45464 0.85069 0.0
C858 C 0.00703 0.40102 0.84586 0.0
C859 C 0.04182 0.38173 0.84434 0.0
C860 C 0.07516 0.52164 0.86016 0.0
C861 C 0.04015 0.46061 0.85222 0.0
C862 C 0.07526 0.56079 0.86398 0.0
C863 C 0.04121 0.58137 0.86399 0.0
C864 C 0.04075 0.50248 0.85631 0.0
C865 C 0.00733 0.56123 0.85988 0.0
C866 C 0.00607 0.44036 0.84972 0.0
C867 C 0.07516 0.40311 0.84702 0.0
N868 N 0.00794 0.52291 0.85629 0.0
N869 N 0.07345 0.44121 0.85084 0.0
H870 H 0.93723 0.04057 0.32526 0.0
H871 H 0.14481 0.01283 0.38632 0.0
H872 H 0.95846 0.02604 0.41033 0.0
H873 H 0.12418 0.06481 0.30902 0.0
H874 H 0.07635 0.00903 0.39373 0.0
H875 H 1.00566 0.04093 0.31713 0.0
C876 C 0.95631 0.03718 0.34218 0.0
C877 C 0.94222 0.0334 0.36852 0.0
C878 C 0.08683 0.02125 0.37515 0.0
C879 C 0.02036 0.0338 0.35941 0.0
C880 C 0.12584 0.0232 0.37084 0.0
C881 C 0.14011 0.0392 0.34702 0.0
C882 C 0.06191 0.03493 0.35533 0.0
C883 C 0.11428 0.05265 0.32776 0.0
C884 C 0.99531 0.03765 0.33757 0.0
C885 C 0.96818 0.02949 0.38978 0.0
N886 N 0.07641 0.05007 0.33227 0.0
N887 N 0.00601 0.02965 0.38475 0.0
H888 H 0.40975 0.3853 0.13647 0.0
H889 H 0.5299 0.57766 0.13122 0.0
H890 H 0.53116 0.38711 0.14599 0.0
H891 H 0.40801 0.57126 0.1265 0.0
H892 H 0.53226 0.50849 0.13561 0.0
H893 H 0.40995 0.45363 0.13128 0.0
C894 C 0.43653 0.40005 0.13764 0.0
C895 C 0.47047 0.38025 0.142 0.0
C896 C 0.50506 0.52234 0.13353 0.0
C897 C 0.47095 0.45927 0.1357 0.0
C898 C 0.50364 0.5619 0.13115 0.0
C899 C 0.46868 0.58061 0.1283 0.0
C900 C 0.47128 0.50131 0.13311 0.0
C901 C 0.43568 0.5584 0.12812 0.0
C902 C 0.43665 0.43926 0.13451 0.0
C903 C 0.50436 0.40114 0.14257 0.0
N904 N 0.43784 0.52016 0.13048 0.0
N905 N 0.50375 0.43955 0.13958 0.0
H906 H 0.11719 0.52364 0.65614 0.0
H907 H 0.93238 0.41755 0.60128 0.0
H908 H 0.11666 0.40828 0.62743 0.0
H909 H 0.92556 0.51662 0.65245 0.0
H910 H 1.00076 0.41834 0.60592 0.0
H911 H 0.04808 0.52604 0.65017 0.0
C912 C 0.10259 0.49892 0.64845 0.0
C913 C 0.12279 0.46564 0.6424 0.0
C914 C 0.9843 0.43992 0.61616 0.0
C915 C 0.04382 0.46824 0.63541 0.0
C916 C 0.94493 0.43946 0.61362 0.0
C917 C 0.9224 0.46676 0.62677 0.0
C918 C 1.00188 0.46811 0.63172 0.0
C919 C 0.94126 0.49494 0.64184 0.0
C920 C 0.06316 0.50023 0.6452 0.0
C921 C 0.10232 0.43434 0.6327 0.0
N922 N 0.9798 0.49485 0.6439 0.0
N923 N 0.06413 0.43647 0.62942 0.0
H924 H 0.97685 0.93585 0.11724 0.0
H925 H 0.07572 0.11874 0.18006 0.0
H926 H 0.09407 0.94032 0.14118 0.0
H927 H 0.98347 0.12965 0.12335 0.0
H928 H 0.07512 0.05064 0.17317 0.0
H929 H 0.9717 1.00457 0.12591 0.0
C930 C 1.0014 0.9513 0.12433 0.0
C931 C 0.03604 0.93254 0.12825 0.0
C932 C 0.05497 0.06794 0.16224 0.0
C933 C 0.03022 0.0104 0.13862 0.0
C934 C 0.05535 0.10704 0.16606 0.0
C935 C 0.03018 0.13051 0.15182 0.0
C936 C 0.02889 0.05169 0.14432 0.0
C937 C 1.00354 0.11296 0.13472 0.0
C938 C 0.99849 0.99037 0.12917 0.0
C939 C 0.06704 0.95376 0.13746 0.0
N940 N 1.00367 0.07458 0.13136 0.0
N941 N 0.06333 0.99139 0.14247 0.0
H942 H 0.40208 0.04384 0.69147 0.0
H943 H 0.57358 0.04847 0.58769 0.0
H944 H 0.38481 0.03314 0.60568 0.0
H945 H 0.58733 0.00946 0.66946 0.0
H946 H 0.50473 0.04925 0.59418 0.0
H947 H 0.47058 0.03816 0.68436 0.0
C948 C 0.41277 0.04054 0.67112 0.0
C949 C 0.38778 0.03912 0.6491 0.0
C950 C 0.52278 0.04025 0.61064 0.0
C951 C 0.46605 0.03266 0.64082 0.0
C952 C 0.56201 0.03992 0.60698 0.0
C953 C 0.58611 0.02888 0.62808 0.0
C954 C 0.5075 0.03026 0.6358 0.0
C955 C 0.56969 0.01784 0.65263 0.0
C956 C 0.45179 0.03697 0.6671 0.0
C957 C 0.4031 0.03422 0.62318 0.0
N958 N 0.53142 0.01924 0.65594 0.0
N959 N 0.44127 0.03152 0.61972 0.0
H960 H 0.85511 0.18924 0.20159 0.0
H961 H 0.65937 0.29963 0.21288 0.0
H962 H 0.84471 0.30976 0.21294 0.0
H963 H 0.66834 0.17979 0.19653 0.0
H964 H 0.72694 0.30128 0.22274 0.0
H965 H 0.78711 0.18241 0.21073 0.0
C966 C 0.8387 0.21401 0.2071 0.0
C967 C 0.85521 0.25006 0.20666 0.0
C968 C 0.71403 0.27444 0.21751 0.0
C969 C 0.77766 0.24289 0.21583 0.0
C970 C 0.67543 0.27352 0.21179 0.0
C971 C 0.65825 0.2397 0.2033 0.0
C972 C 0.73571 0.24125 0.21495 0.0
C973 C 0.68032 0.20655 0.20294 0.0
C974 C 0.79986 0.21025 0.21187 0.0
C975 C 0.83283 0.28148 0.21328 0.0
N976 N 0.71803 0.20826 0.20827 0.0
N977 N 0.79505 0.27726 0.21713 0.0
H978 H 0.20045 0.65799 0.71398 0.0
H979 H 0.30843 0.8368 0.66922 0.0
H980 H 0.32104 0.657 0.69997 0.0
H981 H 0.21408 0.84893 0.72444 0.0
H982 H 0.31273 0.77088 0.68093 0.0
H983 H 0.20298 0.72712 0.71904 0.0
C984 C 0.22756 0.67219 0.71263 0.0
C985 C 0.26049 0.65175 0.70614 0.0
C986 C 0.29141 0.78811 0.69079 0.0
C987 C 0.26342 0.73047 0.71154 0.0
C988 C 0.28901 0.82632 0.68431 0.0
C989 C 0.26079 0.84952 0.69579 0.0
C990 C 0.26465 0.77207 0.70815 0.0
C991 C 0.23577 0.83255 0.71439 0.0
C992 C 0.22896 0.71155 0.71554 0.0
C993 C 0.29493 0.67149 0.70495 0.0
N994 N 0.23779 0.79471 0.71953 0.0
N995 N 0.29536 0.70982 0.70702 0.0
H996 H 0.84496 0.18341 0.79086 0.0
H997 H 0.66591 0.31766 0.78257 0.0
H998 H 0.85239 0.30473 0.78117 0.0
H999 H 0.65876 0.19566 0.77889 0.0
H1000 H 0.73403 0.3133 0.77558 0.0
H1001 H 0.77753 0.1867 0.78054 0.0
C1002 C 0.83269 0.21067 0.786 0.0
C1003 C 0.85443 0.24394 0.78734 0.0
C1004 C 0.71752 0.28747 0.77592 0.0
C1005 C 0.77678 0.24799 0.7763 0.0
C1006 C 0.67842 0.28995 0.7796 0.0
C1007 C 0.65653 0.25691 0.7819 0.0
C1008 C 0.73496 0.25171 0.77482 0.0
C1009 C 0.67464 0.22184 0.77803 0.0
C1010 C 0.79399 0.21257 0.78038 0.0
C1011 C 0.83663 0.27844 0.78107 0.0
N1012 N 0.71287 0.22012 0.77519 0.0
N1013 N 0.79879 0.27964 0.7763 0.0
H1014 H 0.21436 0.85703 0.28402 0.0
H1015 H 0.31589 0.65621 0.28675 0.0
H1016 H 0.33468 0.84216 0.29499 0.0
H1017 H 0.19544 0.67285 0.28026 0.0
H1018 H 0.32543 0.72405 0.27817 0.0
H1019 H 0.20892 0.79019 0.27236 0.0
C1020 C 0.23975 0.83981 0.28358 0.0
C1021 C 0.27489 0.85508 0.29107 0.0
C1022 C 0.29695 0.7127 0.27799 0.0
C1023 C 0.26897 0.77841 0.27733 0.0
C1024 C 0.2916 0.67397 0.28248 0.0
C1025 C 0.25486 0.65929 0.28434 0.0
C1026 C 0.26525 0.73661 0.27561 0.0
C1027 C 0.2242 0.68334 0.27905 0.0
C1028 C 0.23667 0.80163 0.27679 0.0
C1029 C 0.30698 0.83162 0.28945 0.0
N1030 N 0.23003 0.72095 0.27542 0.0
N1031 N 0.30317 0.79429 0.28315 0.0
H1032 H 0.16658 0.68398 0.79489 0.0
H1033 H 0.34597 0.81711 0.78576 0.0
H1034 H 0.1596 0.80539 0.78535 0.0
H1035 H 0.35201 0.69499 0.78715 0.0
H1036 H 0.27814 0.81289 0.77714 0.0
H1037 H 0.23369 0.68678 0.78414 0.0
C1038 C 0.17885 0.7112 0.78999 0.0
C1039 C 0.1573 0.74461 0.7915 0.0
C1040 C 0.29437 0.78698 0.77891 0.0
C1041 C 0.23481 0.74807 0.77995 0.0
C1042 C 0.33328 0.78935 0.78357 0.0
C1043 C 0.35465 0.75632 0.7878 0.0
C1044 C 0.27666 0.75136 0.77879 0.0
C1045 C 0.33645 0.7212 0.78479 0.0
C1046 C 0.21742 0.71279 0.78409 0.0
C1047 C 0.17522 0.779 0.78517 0.0
N1048 N 0.29841 0.71965 0.78098 0.0
N1049 N 0.21302 0.77991 0.78012 0.0
H1050 H 0.82874 0.17475 0.29003 0.0
H1051 H 0.68571 0.3473 0.29322 0.0
H1052 H 0.70769 0.16036 0.29258 0.0
H1053 H 0.80594 0.35888 0.28034 0.0
H1054 H 0.6915 0.27901 0.2859 0.0
H1055 H 0.81988 0.24166 0.27936 0.0
C1056 C 0.80026 0.18568 0.28767 0.0
C1057 C 0.76888 0.16237 0.29231 0.0
C1058 C 0.71651 0.29657 0.28422 0.0
C1059 C 0.75835 0.23899 0.28104 0.0
C1060 C 0.71315 0.33563 0.28809 0.0
C1061 C 0.74552 0.35869 0.28777 0.0
C1062 C 0.75249 0.28057 0.2801 0.0
C1063 C 0.78039 0.34199 0.28127 0.0
C1064 C 0.79515 0.22388 0.28181 0.0
C1065 C 0.73254 0.17762 0.28907 0.0
N1066 N 0.78305 0.30389 0.27813 0.0
N1067 N 0.7282 0.21526 0.2841 0.0
H1068 H 0.34694 0.6804 0.19782 0.0
H1069 H 0.15684 0.801 0.20917 0.0
H1070 H 0.34411 0.80212 0.20641 0.0
H1071 H 0.16102 0.68262 0.18821 0.0
H1072 H 0.22483 0.79943 0.21882 0.0
H1073 H 0.27894 0.6784 0.20587 0.0
C1074 C 0.33225 0.70669 0.20201 0.0
C1075 C 0.3513 0.7416 0.201 0.0
C1076 C 0.2107 0.77347 0.21298 0.0
C1077 C 0.27303 0.73947 0.20942 0.0
C1078 C 0.17191 0.77433 0.20769 0.0
C1079 C 0.15362 0.74183 0.19807 0.0
C1080 C 0.23107 0.73974 0.20887 0.0
C1081 C 0.17432 0.70814 0.19579 0.0
C1082 C 0.29325 0.70552 0.20629 0.0
C1083 C 0.33046 0.77467 0.20637 0.0
N1084 N 0.21209 0.708 0.20096 0.0
N1085 N 0.29237 0.77285 0.20996 0.0
H1086 H 0.80539 0.15638 0.71152 0.0
H1087 H 0.69846 0.34239 0.67366 0.0
H1088 H 0.68609 0.15973 0.69263 0.0
H1089 H 0.79714 0.3468 0.72555 0.0
H1090 H 0.69426 0.27551 0.68124 0.0
H1091 H 0.8046 0.2254 0.71726 0.0
C1092 C 0.77892 0.17148 0.70906 0.0
C1093 C 0.74587 0.15221 0.7012 0.0
C1094 C 0.7166 0.29116 0.69125 0.0
C1095 C 0.74486 0.23088 0.70776 0.0
C1096 C 0.71891 0.33 0.68724 0.0
C1097 C 0.74817 0.3515 0.6991 0.0
C1098 C 0.74443 0.27276 0.70642 0.0
C1099 C 0.77447 0.332 0.71538 0.0
C1100 C 0.7785 0.21079 0.71243 0.0
C1101 C 0.71225 0.17316 0.69876 0.0
N1102 N 0.77239 0.29366 0.71811 0.0
N1103 N 0.71277 0.21137 0.70161 0.0
H1104 H 0.30796 0.04655 0.24378 0.0
H1105 H 0.46259 0.21203 0.24334 0.0
H1106 H 0.36437 0.08749 0.31546 0.0
H1107 H 0.42743 0.15298 0.17116 0.0
H1108 H 0.42223 0.17019 0.27 0.0
H1109 H 0.34741 0.08891 0.21655 0.0
C1110 C 0.32859 0.06441 0.25378 0.0
C1111 C 0.33289 0.06345 0.28192 0.0
C1112 C 0.42338 0.16639 0.24832 0.0
C1113 C 0.37782 0.11198 0.25101 0.0
C1114 C 0.44632 0.19034 0.23309 0.0
C1115 C 0.44842 0.18597 0.205 0.0
C1116 C 0.40215 0.13805 0.23536 0.0
C1117 C 0.42676 0.1573 0.19279 0.0
C1118 C 0.35112 0.0885 0.23825 0.0
C1119 C 0.36011 0.08717 0.29383 0.0
N1120 N 0.40445 0.13447 0.20805 0.0
N1121 N 0.38142 0.11052 0.27833 0.0
H1122 H 0.45462 0.2941 0.74027 0.0
H1123 H 0.28971 0.44916 0.74525 0.0
H1124 H 0.42306 0.35379 0.81303 0.0
H1125 H 0.34816 0.41861 0.67183 0.0
H1126 H 0.33284 0.40805 0.77058 0.0
H1127 H 0.41013 0.33362 0.71482 0.0
C1128 C 0.43832 0.31543 0.75089 0.0
C1129 C 0.44263 0.32071 0.77879 0.0
C1130 C 0.33615 0.41039 0.74891 0.0
C1131 C 0.39156 0.36567 0.7499 0.0
C1132 C 0.31147 0.4337 0.73445 0.0
C1133 C 0.3154 0.43739 0.70641 0.0
C1134 C 0.36459 0.39025 0.73518 0.0
C1135 C 0.3442 0.41676 0.69345 0.0
C1136 C 0.41304 0.33802 0.73636 0.0
C1137 C 0.4208 0.34884 0.79151 0.0
N1138 N 0.36761 0.39398 0.70792 0.0
N1139 N 0.39611 0.37014 0.777 0.0
H1140 H 0.16899 0.49717 0.24574 0.0
H1141 H 0.01055 0.34265 0.24317 0.0
H1142 H 0.14863 0.42887 0.31636 0.0
H1143 H 0.08541 0.35509 0.17497 0.0
H1144 H 0.05437 0.38086 0.27047 0.0
H1145 H 0.13183 0.45201 0.21879 0.0
C1146 C 0.15684 0.47257 0.25548 0.0
C1147 C 0.16187 0.46656 0.28321 0.0
C1148 C 0.06127 0.37483 0.2496 0.0
C1149 C 0.11891 0.41568 0.25285 0.0
C1150 C 0.03634 0.35323 0.23405 0.0
C1151 C 0.04455 0.34571 0.20689 0.0
C1152 C 0.09391 0.38991 0.2376 0.0
C1153 C 0.07826 0.36005 0.19594 0.0
C1154 C 0.13587 0.44685 0.24014 0.0
C1155 C 0.1456 0.43429 0.29496 0.0
N1156 N 0.10149 0.38204 0.21123 0.0
N1157 N 0.12429 0.41029 0.27979 0.0
H1158 H 0.08389 0.151 0.81809 0.0
H1159 H 0.15957 0.08377 0.6738 0.0
H1160 H 0.05545 0.20743 0.74352 0.0
H1161 H 0.20041 0.03783 0.74913 0.0
H1162 H 0.11869 0.12682 0.69887 0.0
H1163 H 0.12408 0.10726 0.79302 0.0
C1164 C 0.08604 0.15423 0.79641 0.0
C1165 C 0.06619 0.18302 0.78288 0.0
C1166 C 0.1366 0.10737 0.70994 0.0
C1167 C 0.11235 0.13278 0.75403 0.0
C1168 C 0.15996 0.08265 0.69565 0.0
C1169 C 0.18364 0.05713 0.70939 0.0
C1170 C 0.13666 0.10659 0.73824 0.0
C1171 C 0.18275 0.05706 0.73769 0.0
C1172 C 0.10911 0.12921 0.78212 0.0
C1173 C 0.07027 0.18576 0.75479 0.0
N1174 N 0.15962 0.08142 0.75119 0.0
N1175 N 0.09284 0.1609 0.74128 0.0
H1176 H 0.71019 0.96081 0.74933 0.0
H1177 H 0.56159 0.79011 0.74681 0.0
H1178 H 0.66534 0.91331 0.67559 0.0
H1179 H 0.58102 0.86049 0.81684 0.0
H1180 H 0.60441 0.83072 0.72087 0.0
H1181 H 0.66788 0.91961 0.77513 0.0
C1182 C 0.69157 0.94165 0.73857 0.0
C1183 C 0.69129 0.94052 0.71028 0.0
C1184 C 0.59918 0.83725 0.74191 0.0
C1185 C 0.64299 0.89329 0.73961 0.0
C1186 C 0.57483 0.81406 0.75672 0.0
C1187 C 0.56767 0.82195 0.784 0.0
C1188 C 0.61681 0.86822 0.75458 0.0
C1189 C 0.58558 0.85341 0.79582 0.0
C1190 C 0.66734 0.91827 0.75329 0.0
C1191 C 0.66644 0.91522 0.69738 0.0
N1192 N 0.60943 0.87527 0.78107 0.0
N1193 N 0.64339 0.89252 0.71215 0.0
H1194 H 0.53529 0.63709 0.19666 0.0
H1195 H 0.73093 0.60388 0.26676 0.0
H1196 H 0.59849 0.73355 0.22542 0.0
H1197 H 0.63328 0.54193 0.2946 0.0
H1198 H 0.68862 0.64604 0.24105 0.0
H1199 H 0.57698 0.59526 0.22293 0.0
C1200 C 0.55794 0.64935 0.20856 0.0
C1201 C 0.56355 0.68863 0.20918 0.0
C1202 C 0.67669 0.62307 0.25276 0.0
C1203 C 0.61152 0.64131 0.2382 0.0
C1204 C 0.70065 0.59898 0.26715 0.0
C1205 C 0.68533 0.56963 0.28268 0.0
C1206 C 0.63751 0.61678 0.25336 0.0
C1207 C 0.64598 0.56446 0.28288 0.0
C1208 C 0.58151 0.62561 0.22346 0.0
C1209 C 0.59319 0.70335 0.22478 0.0
N1210 N 0.62331 0.58762 0.26815 0.0
N1211 N 0.61657 0.67956 0.23847 0.0
H1212 H 0.85401 0.5834 0.6735 0.0
H1213 H 0.92738 0.65127 0.81814 0.0
H1214 H 0.80463 0.54652 0.74874 0.0
H1215 H 0.96063 0.70533 0.74369 0.0
H1216 H 0.886 0.6092 0.79273 0.0
H1217 H 0.89679 0.6247 0.69863 0.0
C1218 C 0.85213 0.58394 0.69532 0.0
C1219 C 0.82554 0.56151 0.70905 0.0
C1220 C 0.90229 0.63026 0.78192 0.0
C1221 C 0.87463 0.60873 0.7379 0.0
C1222 C 0.92607 0.6543 0.79641 0.0
C1223 C 0.94751 0.682 0.78302 0.0
C1224 C 0.9 0.63368 0.75378 0.0
C1225 C 0.94454 0.68449 0.75484 0.0
C1226 C 0.87656 0.60762 0.70963 0.0
C1227 C 0.82455 0.56339 0.73732 0.0
N1228 N 0.92123 0.66058 0.74113 0.0
N1229 N 0.84878 0.58656 0.75081 0.0
H1230 H 0.01043 0.85664 0.23705 0.0
H1231 H 0.83693 0.99206 0.24773 0.0
H1232 H 0.92201 0.85038 0.17712 0.0
H1233 H 0.8733 0.93161 0.31871 0.0
H1234 H 0.87479 0.94865 0.21978 0.0
H1235 H 0.96739 0.8928 0.26651 0.0
C1236 C 0.98195 0.86276 0.2302 0.0
C1237 C 0.96957 0.85054 0.20476 0.0
C1238 C 0.87411 0.94479 0.24146 0.0
C1239 C 0.92106 0.89224 0.23777 0.0
C1240 C 0.8527 0.96946 0.25733 0.0
C1241 C 0.85197 0.96505 0.28541 0.0
C1242 C 0.89583 0.91653 0.25393 0.0
C1243 C 0.87293 0.93553 0.29704 0.0
C1244 C 0.9575 0.88312 0.24698 0.0
C1245 C 0.93245 0.8591 0.19672 0.0
N1246 N 0.89463 0.91265 0.28125 0.0
N1247 N 0.90961 0.88001 0.21302 0.0
loop_
_geom_bond_atom_site_label_1
_geom_bond_atom_site_label_2
_geom_bond_distance
_geom_bond_site_symmetry_2
_ccdc_geom_bond_type
Co0 N4 2.148 . S
Co0 N10 2.128 . S
Co0 N20 2.194 . S
Co0 O25 2.351 . S
Co0 O26 2.155 . S
Co0 O27 2.096 . S
C1 N4 1.301 . S
C1 N5 1.328 . S
C1 H6 0.930 . S
C2 C3 1.333 . S
C2 N4 1.317 . S
C2 H7 0.930 . S
C3 C2 1.333 . S
C3 N5 1.350 . S
C3 H29 0.931 . S
N4 Co0 2.148 . S
N4 C1 1.301 . S
N4 C2 1.317 . S
N5 C1 1.328 . S
N5 C3 1.350 . S
H6 C1 0.930 . S
H7 C2 0.930 . S
C8 O9 1.224 . S
C8 O27 1.247 . S
O9 C8 1.224 . S
N10 Co0 2.128 . S
N10 C11 1.355 . S
N10 C13 1.311 . S
C11 N10 1.355 . S
C11 C12 1.363 . S
C11 H23 0.929 . S
C12 C11 1.363 . S
C12 N14 1.375 . S
C12 H30 0.931 . S
C13 N10 1.311 . S
C13 N14 1.347 . S
C13 H24 0.929 . S
N14 C12 1.375 . S
N14 C13 1.347 . S
C15 C18 1.365 . S
C15 N20 1.328 . S
C15 H21 0.929 . S
C16 C17 1.362 . S
C16 C19 1.378 . S
C16 H31 0.929 . S
C17 C16 1.362 . S
C17 C18 1.366 . S
C18 C15 1.365 . S
C18 C17 1.366 . S
C18 H32 0.930 . S
C19 C16 1.378 . S
C19 N20 1.315 . S
C19 H22 0.930 . S
N20 Co0 2.194 . S
N20 C15 1.328 . S
N20 C19 1.315 . S
H21 C15 0.929 . S
H22 C19 0.930 . S
H23 C11 0.929 . S
H24 C13 0.929 . S
O25 Co0 2.351 . S
O25 C28 1.244 . S
O26 Co0 2.155 . S
O26 C28 1.240 . S
O27 Co0 2.096 . S
O27 C8 1.247 . S
C28 O25 1.244 . S
C28 O26 1.240 . S
H29 C3 0.931 . S
H30 C12 0.931 . S
H31 C16 0.929 . S
H32 C18 0.930 . S
Co33 N37 2.148 . S
Co33 N43 2.128 . S
Co33 N53 2.194 . S
Co33 O58 2.351 . S
Co33 O59 2.155 . S
Co33 O60 2.096 . S
C34 N37 1.301 . S
C34 N38 1.328 . S
C34 H39 0.930 . S
C35 C36 1.333 . S
C35 N37 1.317 . S
C35 H40 0.930 . S
C36 C35 1.333 . S
C36 N38 1.350 . S
C36 H62 0.931 . S
N37 Co33 2.148 . S
N37 C34 1.301 . S
N37 C35 1.317 . S
N38 C34 1.328 . S
N38 C36 1.350 . S
H39 C34 0.930 . S
H40 C35 0.930 . S
C41 O42 1.224 . S
C41 O60 1.247 . S
O42 C41 1.224 . S
N43 Co33 2.128 . S
N43 C44 1.355 . S
N43 C46 1.311 . S
C44 N43 1.355 . S
C44 C45 1.363 . S
C44 H56 0.929 . S
C45 C44 1.363 . S
C45 N47 1.375 . S
C45 H63 0.931 . S
C46 N43 1.311 . S
C46 N47 1.347 . S
C46 H57 0.929 . S
N47 C45 1.375 . S
N47 C46 1.347 . S
C48 C51 1.365 . S
C48 N53 1.328 . S
C48 H54 0.929 . S
C49 C50 1.362 . S
C49 C52 1.378 . S
C49 H64 0.929 . S
C50 C49 1.362 . S
C50 C51 1.366 . S
C51 C48 1.365 . S
C51 C50 1.366 . S
C51 H65 0.930 . S
C52 C49 1.378 . S
C52 N53 1.315 . S
C52 H55 0.930 . S
N53 Co33 2.194 . S
N53 C48 1.328 . S
N53 C52 1.315 . S
H54 C48 0.929 . S
H55 C52 0.930 . S
H56 C44 0.929 . S
H57 C46 0.929 . S
O58 Co33 2.351 . S
O58 C61 1.244 . S
O59 Co33 2.155 . S
O59 C61 1.240 . S
O60 Co33 2.096 . S
O60 C41 1.247 . S
C61 O58 1.244 . S
C61 O59 1.240 . S
H62 C36 0.931 . S
H63 C45 0.931 . S
H64 C49 0.929 . S
H65 C51 0.930 . S
Co66 N70 2.148 . S
Co66 N76 2.128 . S
Co66 N86 2.194 1_455 S
Co66 O91 2.351 1_455 S
Co66 O92 2.155 . S
Co66 O93 2.096 . S
C67 N70 1.301 . S
C67 N71 1.328 . S
C67 H72 0.930 1_455 S
C68 C69 1.333 . S
C68 N70 1.317 . S
C68 H73 0.930 . S
C69 C68 1.333 . S
C69 N71 1.350 . S
C69 H95 0.931 . S
N70 Co66 2.148 . S
N70 C67 1.301 . S
N70 C68 1.317 . S
N71 C67 1.328 . S
N71 C69 1.350 . S
H72 C67 0.930 1_655 S
H73 C68 0.930 . S
C74 O75 1.224 . S
C74 O93 1.247 . S
O75 C74 1.224 . S
N76 Co66 2.128 . S
N76 C77 1.355 1_455 S
N76 C79 1.311 . S
C77 N76 1.355 1_655 S
C77 C78 1.363 . S
C77 H89 0.929 . S
C78 C77 1.363 . S
C78 N80 1.366 1_655 S
C78 H96 0.931 . S
C79 N76 1.311 . S
C79 N80 1.353 . S
C79 H90 0.929 . S
N80 C78 1.366 1_455 S
N80 C79 1.353 . S
C81 C84 1.365 . S
C81 N86 1.328 . S
C81 H87 0.929 . S
C82 C83 1.362 . S
C82 C85 1.378 . S
C82 H97 0.929 . S
C83 C82 1.362 . S
C83 C84 1.366 . S
C84 C81 1.365 . S
C84 C83 1.366 . S
C84 H98 0.930 . S
C85 C82 1.378 . S
C85 N86 1.315 . S
C85 H88 0.930 . S
N86 Co66 2.194 1_655 S
N86 C81 1.328 . S
N86 C85 1.315 . S
H87 C81 0.929 . S
H88 C85 0.930 . S
H89 C77 0.929 . S
H90 C79 0.929 . S
O91 Co66 2.351 1_655 S
O91 C94 1.244 1_655 S
O92 Co66 2.155 . S
O92 C94 1.240 . S
O93 Co66 2.096 . S
O93 C74 1.247 . S
C94 O91 1.244 1_455 S
C94 O92 1.240 . S
H95 C69 0.931 . S
H96 C78 0.931 . S
H97 C82 0.929 . S
H98 C84 0.930 . S
Co99 N103 2.148 . S
Co99 N109 2.128 . S
Co99 N119 2.194 1_545 S
Co99 O124 2.351 1_545 S
Co99 O125 2.155 . S
Co99 O126 2.096 . S
C100 N103 1.301 . S
C100 N104 1.328 . S
C100 H105 0.930 1_545 S
C101 C102 1.333 . S
C101 N103 1.317 . S
C101 H106 0.930 . S
C102 C101 1.333 . S
C102 N104 1.350 . S
C102 H128 0.931 . S
N103 Co99 2.148 . S
N103 C100 1.301 . S
N103 C101 1.317 . S
N104 C100 1.328 . S
N104 C102 1.350 . S
H105 C100 0.930 1_565 S
H106 C101 0.930 . S
C107 O108 1.224 . S
C107 O126 1.247 . S
O108 C107 1.224 . S
N109 Co99 2.128 . S
N109 C110 1.355 1_545 S
N109 C112 1.311 . S
C110 N109 1.355 1_565 S
C110 C111 1.363 . S
C110 H122 0.929 . S
C111 C110 1.363 . S
C111 N113 1.366 1_565 S
C111 H129 0.931 . S
C112 N109 1.311 . S
C112 N113 1.353 . S
C112 H123 0.929 . S
N113 C111 1.366 1_545 S
N113 C112 1.353 . S
C114 C117 1.365 . S
C114 N119 1.328 . S
C114 H120 0.929 . S
C115 C116 1.362 . S
C115 C118 1.378 . S
C115 H130 0.929 . S
C116 C115 1.362 . S
C116 C117 1.366 . S
C117 C114 1.365 . S
C117 C116 1.366 . S
C117 H131 0.930 . S
C118 C115 1.378 . S
C118 N119 1.315 . S
C118 H121 0.930 . S
N119 Co99 2.194 1_565 S
N119 C114 1.328 . S
N119 C118 1.315 . S
H120 C114 0.929 . S
H121 C118 0.930 . S
H122 C110 0.929 . S
H123 C112 0.929 . S
O124 Co99 2.351 1_565 S
O124 C127 1.244 1_565 S
O125 Co99 2.155 . S
O125 C127 1.240 . S
O126 Co99 2.096 . S
O126 C107 1.247 . S
C127 O124 1.244 1_545 S
C127 O125 1.240 . S
H128 C102 0.931 . S
H129 C111 0.931 . S
H130 C115 0.929 . S
H131 C117 0.930 . S
Co132 N136 2.148 . S
Co132 N142 2.128 . S
Co132 N152 2.194 . S
Co132 O157 2.351 . S
Co132 O158 2.155 . S
Co132 O159 2.096 . S
C133 N136 1.301 . S
C133 N137 1.328 . S
C133 H138 0.930 . S
C134 C135 1.333 . S
C134 N136 1.317 . S
C134 H139 0.930 . S
C135 C134 1.333 . S
C135 N137 1.350 . S
C135 H161 0.931 . S
N136 Co132 2.148 . S
N136 C133 1.301 . S
N136 C134 1.317 . S
N137 C133 1.328 . S
N137 C135 1.350 . S
H138 C133 0.930 . S
H139 C134 0.930 . S
C140 O141 1.224 . S
C140 O159 1.247 . S
O141 C140 1.224 . S
N142 Co132 2.128 . S
N142 C143 1.355 . S
N142 C145 1.311 . S
C143 N142 1.355 . S
C143 C144 1.363 . S
C143 H155 0.929 . S
C144 C143 1.363 . S
C144 N146 1.375 . S
C144 H162 0.931 . S
C145 N142 1.311 . S
C145 N146 1.347 . S
C145 H156 0.929 . S
N146 C144 1.375 . S
N146 C145 1.347 . S
C147 C150 1.365 . S
C147 N152 1.328 . S
C147 H153 0.929 . S
C148 C149 1.362 . S
C148 C151 1.378 . S
C148 H163 0.929 . S
C149 C148 1.362 . S
C149 C150 1.366 . S
C150 C147 1.365 . S
C150 C149 1.366 . S
C150 H164 0.930 . S
C151 C148 1.378 . S
C151 N152 1.315 . S
C151 H154 0.930 . S
N152 Co132 2.194 . S
N152 C147 1.328 . S
N152 C151 1.315 . S
H153 C147 0.929 . S
H154 C151 0.930 . S
H155 C143 0.929 . S
H156 C145 0.929 . S
O157 Co132 2.351 . S
O157 C160 1.244 . S
O158 Co132 2.155 . S
O158 C160 1.240 . S
O159 Co132 2.096 . S
O159 C140 1.247 . S
C160 O157 1.244 . S
C160 O158 1.240 . S
H161 C135 0.931 . S
H162 C144 0.931 . S
H163 C148 0.929 . S
H164 C150 0.930 . S
Co165 N169 2.148 . S
Co165 N175 2.128 . S
Co165 N185 2.194 . S
Co165 O190 2.351 . S
Co165 O191 2.155 . S
Co165 O192 2.096 . S
C166 N169 1.301 . S
C166 N170 1.328 . S
C166 H171 0.930 . S
C167 C168 1.333 . S
C167 N169 1.317 . S
C167 H172 0.930 . S
C168 C167 1.333 . S
C168 N170 1.350 . S
C168 H194 0.931 . S
N169 Co165 2.148 . S
N169 C166 1.301 . S
N169 C167 1.317 . S
N170 C166 1.328 . S
N170 C168 1.350 . S
H171 C166 0.930 . S
H172 C167 0.930 . S
C173 O174 1.224 . S
C173 O192 1.247 . S
O174 C173 1.224 . S
N175 Co165 2.128 . S
N175 C176 1.355 . S
N175 C178 1.311 . S
C176 N175 1.355 . S
C176 C177 1.363 . S
C176 H188 0.929 . S
C177 C176 1.363 . S
C177 N179 1.375 . S
C177 H195 0.931 . S
C178 N175 1.311 . S
C178 N179 1.347 . S
C178 H189 0.929 . S
N179 C177 1.375 . S
N179 C178 1.347 . S
C180 C183 1.365 . S
C180 N185 1.328 . S
C180 H186 0.929 . S
C181 C182 1.362 . S
C181 C184 1.378 . S
C181 H196 0.929 . S
C182 C181 1.362 . S
C182 C183 1.366 . S
C183 C180 1.365 . S
C183 C182 1.366 . S
C183 H197 0.930 . S
C184 C181 1.378 . S
C184 N185 1.315 . S
C184 H187 0.930 . S
N185 Co165 2.194 . S
N185 C180 1.328 . S
N185 C184 1.315 . S
H186 C180 0.929 . S
H187 C184 0.930 . S
H188 C176 0.929 . S
H189 C178 0.929 . S
O190 Co165 2.351 . S
O190 C193 1.244 . S
O191 Co165 2.155 . S
O191 C193 1.240 . S
O192 Co165 2.096 . S
O192 C173 1.247 . S
C193 O190 1.244 . S
C193 O191 1.240 . S
H194 C168 0.931 . S
H195 C177 0.931 . S
H196 C181 0.929 . S
H197 C183 0.930 . S
Co198 N202 2.148 . S
Co198 N208 2.128 . S
Co198 N218 2.194 1_455 S
Co198 O223 2.351 1_455 S
Co198 O224 2.155 . S
Co198 O225 2.096 . S
C199 N202 1.301 . S
C199 N203 1.328 . S
C199 H204 0.930 1_455 S
C200 C201 1.333 . S
C200 N202 1.317 . S
C200 H205 0.930 . S
C201 C200 1.333 . S
C201 N203 1.350 . S
C201 H227 0.931 . S
N202 Co198 2.148 . S
N202 C199 1.301 . S
N202 C200 1.317 . S
N203 C199 1.328 . S
N203 C201 1.350 . S
H204 C199 0.930 1_655 S
H205 C200 0.930 . S
C206 O207 1.224 . S
C206 O225 1.247 . S
O207 C206 1.224 . S
N208 Co198 2.128 . S
N208 C209 1.355 1_455 S
N208 C211 1.311 . S
C209 N208 1.355 1_655 S
C209 C210 1.363 . S
C209 H221 0.929 . S
C210 C209 1.363 . S
C210 N212 1.366 1_655 S
C210 H228 0.931 . S
C211 N208 1.311 . S
C211 N212 1.353 . S
C211 H222 0.929 . S
N212 C210 1.366 1_455 S
N212 C211 1.353 . S
C213 C216 1.365 . S
C213 N218 1.328 . S
C213 H219 0.929 . S
C214 C215 1.362 . S
C214 C217 1.378 . S
C214 H229 0.929 . S
C215 C214 1.362 . S
C215 C216 1.366 . S
C216 C213 1.365 . S
C216 C215 1.366 . S
C216 H230 0.930 . S
C217 C214 1.378 . S
C217 N218 1.315 . S
C217 H220 0.930 . S
N218 Co198 2.194 1_655 S
N218 C213 1.328 . S
N218 C217 1.315 . S
H219 C213 0.929 . S
H220 C217 0.930 . S
H221 C209 0.929 . S
H222 C211 0.929 . S
O223 Co198 2.351 1_655 S
O223 C226 1.244 1_655 S
O224 Co198 2.155 . S
O224 C226 1.240 . S
O225 Co198 2.096 . S
O225 C206 1.247 . S
C226 O223 1.244 1_455 S
C226 O224 1.240 . S
H227 C201 0.931 . S
H228 C210 0.931 . S
H229 C214 0.929 . S
H230 C216 0.930 . S
Co231 N235 2.148 . S
Co231 N241 2.128 . S
Co231 N251 2.194 1_545 S
Co231 O256 2.351 1_545 S
Co231 O257 2.155 . S
Co231 O258 2.096 . S
C232 N235 1.301 . S
C232 N236 1.328 . S
C232 H237 0.930 1_545 S
C233 C234 1.333 . S
C233 N235 1.317 . S
C233 H238 0.930 . S
C234 C233 1.333 . S
C234 N236 1.350 . S
C234 H260 0.931 . S
N235 Co231 2.148 . S
N235 C232 1.301 . S
N235 C233 1.317 . S
N236 C232 1.328 . S
N236 C234 1.350 . S
H237 C232 0.930 1_565 S
H238 C233 0.930 . S
C239 O240 1.224 . S
C239 O258 1.247 . S
O240 C239 1.224 . S
N241 Co231 2.128 . S
N241 C242 1.355 1_545 S
N241 C244 1.311 . S
C242 N241 1.355 1_565 S
C242 C243 1.363 . S
C242 H254 0.929 . S
C243 C242 1.363 . S
C243 N245 1.366 1_565 S
C243 H261 0.931 . S
C244 N241 1.311 . S
C244 N245 1.353 . S
C244 H255 0.929 . S
N245 C243 1.366 1_545 S
N245 C244 1.353 . S
C246 C249 1.365 . S
C246 N251 1.328 . S
C246 H252 0.929 . S
C247 C248 1.362 . S
C247 C250 1.378 . S
C247 H262 0.929 . S
C248 C247 1.362 . S
C248 C249 1.366 . S
C249 C246 1.365 . S
C249 C248 1.366 . S
C249 H263 0.930 . S
C250 C247 1.378 . S
C250 N251 1.315 . S
C250 H253 0.930 . S
N251 Co231 2.194 1_565 S
N251 C246 1.328 . S
N251 C250 1.315 . S
H252 C246 0.929 . S
H253 C250 0.930 . S
H254 C242 0.929 . S
H255 C244 0.929 . S
O256 Co231 2.351 1_565 S
O256 C259 1.244 1_565 S
O257 Co231 2.155 . S
O257 C259 1.240 . S
O258 Co231 2.096 . S
O258 C239 1.247 . S
C259 O256 1.244 1_545 S
C259 O257 1.240 . S
H260 C234 0.931 . S
H261 C243 0.931 . S
H262 C247 0.929 . S
H263 C249 0.930 . S
Co264 N268 2.148 . S
Co264 N274 2.128 . S
Co264 N284 2.194 . S
Co264 O289 2.351 . S
Co264 O290 2.155 . S
Co264 O291 2.096 . S
C265 N268 1.301 . S
C265 N269 1.328 . S
C265 H270 0.930 . S
C266 C267 1.333 . S
C266 N268 1.317 . S
C266 H271 0.930 . S
C267 C266 1.333 . S
C267 N269 1.350 . S
C267 H293 0.931 . S
N268 Co264 2.148 . S
N268 C265 1.301 . S
N268 C266 1.317 . S
N269 C265 1.328 . S
N269 C267 1.350 . S
H270 C265 0.930 . S
H271 C266 0.930 . S
C272 O273 1.224 . S
C272 O291 1.247 . S
O273 C272 1.224 . S
N274 Co264 2.128 . S
N274 C275 1.355 . S
N274 C277 1.311 . S
C275 N274 1.355 . S
C275 C276 1.363 . S
C275 H287 0.929 . S
C276 C275 1.363 . S
C276 N278 1.375 . S
C276 H294 0.931 . S
C277 N274 1.311 . S
C277 N278 1.347 . S
C277 H288 0.929 . S
N278 C276 1.375 . S
N278 C277 1.347 . S
C279 C282 1.365 . S
C279 N284 1.328 . S
C279 H285 0.929 . S
C280 C281 1.362 . S
C280 C283 1.378 . S
C280 H295 0.929 . S
C281 C280 1.362 . S
C281 C282 1.366 . S
C282 C279 1.365 . S
C282 C281 1.366 . S
C282 H296 0.930 . S
C283 C280 1.378 . S
C283 N284 1.315 . S
C283 H286 0.930 . S
N284 Co264 2.194 . S
N284 C279 1.328 . S
N284 C283 1.315 . S
H285 C279 0.929 . S
H286 C283 0.930 . S
H287 C275 0.929 . S
H288 C277 0.929 . S
O289 Co264 2.351 . S
O289 C292 1.244 . S
O290 Co264 2.155 . S
O290 C292 1.240 . S
O291 Co264 2.096 . S
O291 C272 1.247 . S
C292 O289 1.244 . S
C292 O290 1.240 . S
H293 C267 0.931 . S
H294 C276 0.931 . S
H295 C280 0.929 . S
H296 C282 0.930 . S
Co297 N301 2.148 . S
Co297 N307 2.128 . S
Co297 N317 2.194 . S
Co297 O322 2.351 . S
Co297 O323 2.155 . S
Co297 O324 2.096 . S
C298 N301 1.301 . S
C298 N302 1.328 . S
C298 H303 0.930 . S
C299 C300 1.333 . S
C299 N301 1.317 . S
C299 H304 0.930 . S
C300 C299 1.333 . S
C300 N302 1.350 . S
C300 H326 0.931 . S
N301 Co297 2.148 . S
N301 C298 1.301 . S
N301 C299 1.317 . S
N302 C298 1.328 . S
N302 C300 1.350 . S
H303 C298 0.930 . S
H304 C299 0.930 . S
C305 O306 1.224 . S
C305 O324 1.247 . S
O306 C305 1.224 . S
N307 Co297 2.128 . S
N307 C308 1.355 . S
N307 C310 1.311 . S
C308 N307 1.355 . S
C308 C309 1.363 . S
C308 H320 0.929 . S
C309 C308 1.363 . S
C309 N311 1.375 . S
C309 H327 0.931 . S
C310 N307 1.311 . S
C310 N311 1.347 . S
C310 H321 0.929 . S
N311 C309 1.375 . S
N311 C310 1.347 . S
C312 C315 1.365 . S
C312 N317 1.328 . S
C312 H318 0.929 . S
C313 C314 1.362 . S
C313 C316 1.378 . S
C313 H328 0.929 . S
C314 C313 1.362 . S
C314 C315 1.366 . S
C315 C312 1.365 . S
C315 C314 1.366 . S
C315 H329 0.930 . S
C316 C313 1.378 . S
C316 N317 1.315 . S
C316 H319 0.930 . S
N317 Co297 2.194 . S
N317 C312 1.328 . S
N317 C316 1.315 . S
H318 C312 0.929 . S
H319 C316 0.930 . S
H320 C308 0.929 . S
H321 C310 0.929 . S
O322 Co297 2.351 . S
O322 C325 1.244 . S
O323 Co297 2.155 . S
O323 C325 1.240 . S
O324 Co297 2.096 . S
O324 C305 1.247 . S
C325 O322 1.244 . S
C325 O323 1.240 . S
H326 C300 0.931 . S
H327 C309 0.931 . S
H328 C313 0.929 . S
H329 C315 0.930 . S
Co330 N334 2.148 . S
Co330 N340 2.128 . S
Co330 N350 2.194 1_655 S
Co330 O355 2.351 1_655 S
Co330 O356 2.155 . S
Co330 O357 2.096 . S
C331 N334 1.301 . S
C331 N335 1.328 . S
C331 H336 0.930 1_655 S
C332 C333 1.333 . S
C332 N334 1.317 . S
C332 H337 0.930 . S
C333 C332 1.333 . S
C333 N335 1.350 . S
C333 H359 0.931 . S
N334 Co330 2.148 . S
N334 C331 1.301 . S
N334 C332 1.317 . S
N335 C331 1.328 . S
N335 C333 1.350 . S
H336 C331 0.930 1_455 S
H337 C332 0.930 . S
C338 O339 1.224 . S
C338 O357 1.247 . S
O339 C338 1.224 . S
N340 Co330 2.128 . S
N340 C341 1.355 1_655 S
N340 C343 1.311 . S
C341 N340 1.355 1_455 S
C341 C342 1.363 . S
C341 H353 0.929 . S
C342 C341 1.363 . S
C342 N344 1.366 1_455 S
C342 H360 0.931 . S
C343 N340 1.311 . S
C343 N344 1.353 . S
C343 H354 0.929 . S
N344 C342 1.366 1_655 S
N344 C343 1.353 . S
C345 C348 1.365 . S
C345 N350 1.328 . S
C345 H351 0.929 . S
C346 C347 1.362 . S
C346 C349 1.378 . S
C346 H361 0.929 . S
C347 C346 1.362 . S
C347 C348 1.366 . S
C348 C345 1.365 . S
C348 C347 1.366 . S
C348 H362 0.930 . S
C349 C346 1.378 . S
C349 N350 1.315 . S
C349 H352 0.930 . S
N350 Co330 2.194 1_455 S
N350 C345 1.328 . S
N350 C349 1.315 . S
H351 C345 0.929 . S
H352 C349 0.930 . S
H353 C341 0.929 . S
H354 C343 0.929 . S
O355 Co330 2.351 1_455 S
O355 C358 1.244 1_455 S
O356 Co330 2.155 . S
O356 C358 1.240 . S
O357 Co330 2.096 . S
O357 C338 1.247 . S
C358 O355 1.244 1_655 S
C358 O356 1.240 . S
H359 C333 0.931 . S
H360 C342 0.931 . S
H361 C346 0.929 . S
H362 C348 0.930 . S
Co363 N367 2.148 . S
Co363 N373 2.128 . S
Co363 N383 2.194 1_565 S
Co363 O388 2.351 1_565 S
Co363 O389 2.155 . S
Co363 O390 2.096 . S
C364 N367 1.301 . S
C364 N368 1.328 . S
C364 H369 0.930 1_565 S
C365 C366 1.333 . S
C365 N367 1.317 . S
C365 H370 0.930 . S
C366 C365 1.333 . S
C366 N368 1.350 . S
C366 H392 0.931 . S
N367 Co363 2.148 . S
N367 C364 1.301 . S
N367 C365 1.317 . S
N368 C364 1.328 . S
N368 C366 1.350 . S
H369 C364 0.930 1_545 S
H370 C365 0.930 . S
C371 O372 1.224 . S
C371 O390 1.247 . S
O372 C371 1.224 . S
N373 Co363 2.128 . S
N373 C374 1.355 1_565 S
N373 C376 1.311 . S
C374 N373 1.355 1_545 S
C374 C375 1.363 . S
C374 H386 0.929 . S
C375 C374 1.363 . S
C375 N377 1.366 1_545 S
C375 H393 0.931 . S
C376 N373 1.311 . S
C376 N377 1.353 . S
C376 H387 0.929 . S
N377 C375 1.366 1_565 S
N377 C376 1.353 . S
C378 C381 1.365 . S
C378 N383 1.328 . S
C378 H384 0.929 . S
C379 C380 1.362 . S
C379 C382 1.378 . S
C379 H394 0.929 . S
C380 C379 1.362 . S
C380 C381 1.366 . S
C381 C378 1.365 . S
C381 C380 1.366 . S
C381 H395 0.930 . S
C382 C379 1.378 . S
C382 N383 1.315 . S
C382 H385 0.930 . S
N383 Co363 2.194 1_545 S
N383 C378 1.328 . S
N383 C382 1.315 . S
H384 C378 0.929 . S
H385 C382 0.930 . S
H386 C374 0.929 . S
H387 C376 0.929 . S
O388 Co363 2.351 1_545 S
O388 C391 1.244 1_545 S
O389 Co363 2.155 . S
O389 C391 1.240 . S
O390 Co363 2.096 . S
O390 C371 1.247 . S
C391 O388 1.244 1_565 S
C391 O389 1.240 . S
H392 C366 0.931 . S
H393 C375 0.931 . S
H394 C379 0.929 . S
H395 C381 0.930 . S
Co396 N400 2.148 . S
Co396 N406 2.128 . S
Co396 N416 2.194 . S
Co396 O421 2.351 . S
Co396 O422 2.155 . S
Co396 O423 2.096 . S
C397 N400 1.301 . S
C397 N401 1.328 . S
C397 H402 0.930 . S
C398 C399 1.333 . S
C398 N400 1.317 . S
C398 H403 0.930 . S
C399 C398 1.333 . S
C399 N401 1.350 . S
C399 H425 0.931 . S
N400 Co396 2.148 . S
N400 C397 1.301 . S
N400 C398 1.317 . S
N401 C397 1.328 . S
N401 C399 1.350 . S
H402 C397 0.930 . S
H403 C398 0.930 . S
C404 O405 1.224 . S
C404 O423 1.247 . S
O405 C404 1.224 . S
N406 Co396 2.128 . S
N406 C407 1.355 . S
N406 C409 1.311 . S
C407 N406 1.355 . S
C407 C408 1.363 . S
C407 H419 0.929 . S
C408 C407 1.363 . S
C408 N410 1.375 . S
C408 H426 0.931 . S
C409 N406 1.311 . S
C409 N410 1.347 . S
C409 H420 0.929 . S
N410 C408 1.375 . S
N410 C409 1.347 . S
C411 C414 1.365 . S
C411 N416 1.328 . S
C411 H417 0.929 . S
C412 C413 1.362 . S
C412 C415 1.378 . S
C412 H427 0.929 . S
C413 C412 1.362 . S
C413 C414 1.366 . S
C414 C411 1.365 . S
C414 C413 1.366 . S
C414 H428 0.930 . S
C415 C412 1.378 . S
C415 N416 1.315 . S
C415 H418 0.930 . S
N416 Co396 2.194 . S
N416 C411 1.328 . S
N416 C415 1.315 . S
H417 C411 0.929 . S
H418 C415 0.930 . S
H419 C407 0.929 . S
H420 C409 0.929 . S
O421 Co396 2.351 . S
O421 C424 1.244 . S
O422 Co396 2.155 . S
O422 C424 1.240 . S
O423 Co396 2.096 . S
O423 C404 1.247 . S
C424 O421 1.244 . S
C424 O422 1.240 . S
H425 C399 0.931 . S
H426 C408 0.931 . S
H427 C412 0.929 . S
H428 C414 0.930 . S
Co429 N433 2.148 . S
Co429 N439 2.128 . S
Co429 N449 2.194 . S
Co429 O454 2.351 . S
Co429 O455 2.155 . S
Co429 O456 2.096 . S
C430 N433 1.301 . S
C430 N434 1.328 . S
C430 H435 0.930 . S
C431 C432 1.333 . S
C431 N433 1.317 . S
C431 H436 0.930 . S
C432 C431 1.333 . S
C432 N434 1.350 . S
C432 H458 0.931 . S
N433 Co429 2.148 . S
N433 C430 1.301 . S
N433 C431 1.317 . S
N434 C430 1.328 . S
N434 C432 1.350 . S
H435 C430 0.930 . S
H436 C431 0.930 . S
C437 O438 1.224 . S
C437 O456 1.247 . S
O438 C437 1.224 . S
N439 Co429 2.128 . S
N439 C440 1.355 . S
N439 C442 1.311 . S
C440 N439 1.355 . S
C440 C441 1.363 . S
C440 H452 0.929 . S
C441 C440 1.363 . S
C441 N443 1.375 . S
C441 H459 0.931 . S
C442 N439 1.311 . S
C442 N443 1.347 . S
C442 H453 0.929 . S
N443 C441 1.375 . S
N443 C442 1.347 . S
C444 C447 1.365 . S
C444 N449 1.328 . S
C444 H450 0.929 . S
C445 C446 1.362 . S
C445 C448 1.378 . S
C445 H460 0.929 . S
C446 C445 1.362 . S
C446 C447 1.366 . S
C447 C444 1.365 . S
C447 C446 1.366 . S
C447 H461 0.930 . S
C448 C445 1.378 . S
C448 N449 1.315 . S
C448 H451 0.930 . S
N449 Co429 2.194 . S
N449 C444 1.328 . S
N449 C448 1.315 . S
H450 C444 0.929 . S
H451 C448 0.930 . S
H452 C440 0.929 . S
H453 C442 0.929 . S
O454 Co429 2.351 . S
O454 C457 1.244 . S
O455 Co429 2.155 . S
O455 C457 1.240 . S
O456 Co429 2.096 . S
O456 C437 1.247 . S
C457 O454 1.244 . S
C457 O455 1.240 . S
H458 C432 0.931 . S
H459 C441 0.931 . S
H460 C445 0.929 . S
H461 C447 0.930 . S
Co462 N466 2.148 . S
Co462 N472 2.128 . S
Co462 N482 2.194 1_655 S
Co462 O487 2.351 1_655 S
Co462 O488 2.155 . S
Co462 O489 2.096 . S
C463 N466 1.301 . S
C463 N467 1.328 . S
C463 H468 0.930 1_655 S
C464 C465 1.333 . S
C464 N466 1.317 . S
C464 H469 0.930 . S
C465 C464 1.333 . S
C465 N467 1.350 . S
C465 H491 0.931 . S
N466 Co462 2.148 . S
N466 C463 1.301 . S
N466 C464 1.317 . S
N467 C463 1.328 . S
N467 C465 1.350 . S
H468 C463 0.930 1_455 S
H469 C464 0.930 . S
C470 O471 1.224 . S
C470 O489 1.247 . S
O471 C470 1.224 . S
N472 Co462 2.128 . S
N472 C473 1.355 1_655 S
N472 C475 1.311 . S
C473 N472 1.355 1_455 S
C473 C474 1.363 . S
C473 H485 0.929 . S
C474 C473 1.363 . S
C474 N476 1.366 1_455 S
C474 H492 0.931 . S
C475 N472 1.311 . S
C475 N476 1.353 . S
C475 H486 0.929 . S
N476 C474 1.366 1_655 S
N476 C475 1.353 . S
C477 C480 1.365 . S
C477 N482 1.328 . S
C477 H483 0.929 . S
C478 C479 1.362 . S
C478 C481 1.378 . S
C478 H493 0.929 . S
C479 C478 1.362 . S
C479 C480 1.366 . S
C480 C477 1.365 . S
C480 C479 1.366 . S
C480 H494 0.930 . S
C481 C478 1.378 . S
C481 N482 1.315 . S
C481 H484 0.930 . S
N482 Co462 2.194 1_455 S
N482 C477 1.328 . S
N482 C481 1.315 . S
H483 C477 0.929 . S
H484 C481 0.930 . S
H485 C473 0.929 . S
H486 C475 0.929 . S
O487 Co462 2.351 1_455 S
O487 C490 1.244 1_455 S
O488 Co462 2.155 . S
O488 C490 1.240 . S
O489 Co462 2.096 . S
O489 C470 1.247 . S
C490 O487 1.244 1_655 S
C490 O488 1.240 . S
H491 C465 0.931 . S
H492 C474 0.931 . S
H493 C478 0.929 . S
H494 C480 0.930 . S
Co495 N499 2.148 . S
Co495 N505 2.128 . S
Co495 N515 2.194 1_565 S
Co495 O520 2.351 1_565 S
Co495 O521 2.155 . S
Co495 O522 2.096 . S
C496 N499 1.301 . S
C496 N500 1.328 . S
C496 H501 0.930 1_565 S
C497 C498 1.333 . S
C497 N499 1.317 . S
C497 H502 0.930 . S
C498 C497 1.333 . S
C498 N500 1.350 . S
C498 H524 0.931 . S
N499 Co495 2.148 . S
N499 C496 1.301 . S
N499 C497 1.317 . S
N500 C496 1.328 . S
N500 C498 1.350 . S
H501 C496 0.930 1_545 S
H502 C497 0.930 . S
C503 O504 1.224 . S
C503 O522 1.247 . S
O504 C503 1.224 . S
N505 Co495 2.128 . S
N505 C506 1.355 1_565 S
N505 C508 1.311 . S
C506 N505 1.355 1_545 S
C506 C507 1.363 . S
C506 H518 0.929 . S
C507 C506 1.363 . S
C507 N509 1.366 1_545 S
C507 H525 0.931 . S
C508 N505 1.311 . S
C508 N509 1.353 . S
C508 H519 0.929 . S
N509 C507 1.366 1_565 S
N509 C508 1.353 . S
C510 C513 1.365 . S
C510 N515 1.328 . S
C510 H516 0.929 . S
C511 C512 1.362 . S
C511 C514 1.378 . S
C511 H526 0.929 . S
C512 C511 1.362 . S
C512 C513 1.366 . S
C513 C510 1.365 . S
C513 C512 1.366 . S
C513 H527 0.930 . S
C514 C511 1.378 . S
C514 N515 1.315 . S
C514 H517 0.930 . S
N515 Co495 2.194 1_545 S
N515 C510 1.328 . S
N515 C514 1.315 . S
H516 C510 0.929 . S
H517 C514 0.930 . S
H518 C506 0.929 . S
H519 C508 0.929 . S
O520 Co495 2.351 1_545 S
O520 C523 1.244 1_545 S
O521 Co495 2.155 . S
O521 C523 1.240 . S
O522 Co495 2.096 . S
O522 C503 1.247 . S
C523 O520 1.244 1_565 S
C523 O521 1.240 . S
H524 C498 0.931 . S
H525 C507 0.931 . S
H526 C511 0.929 . S
H527 C513 0.930 . S
H528 C534 0.930 . S
H529 C538 0.930 . S
H530 C543 0.929 . S
H531 C541 0.929 . S
H532 C536 0.929 . S
H533 C542 0.929 . S
C534 H528 0.930 . S
C534 C535 1.367 . S
C534 C542 1.378 . S
C535 C534 1.367 . S
C535 C543 1.433 . S
C536 H532 0.929 . S
C536 C538 1.378 . S
C536 C540 1.350 . S
C537 C540 1.463 1_554 S
C537 C542 1.350 . S
C537 N545 1.427 . S
C538 H529 0.930 . S
C538 C536 1.378 . S
C538 C539 1.367 . S
C539 C538 1.367 . S
C539 C541 1.433 . S
C540 C536 1.350 . S
C540 C537 1.463 1_556 S
C540 N544 1.427 . S
C541 H531 0.929 . S
C541 C539 1.433 . S
C541 N544 1.384 . S
C542 H533 0.929 . S
C542 C534 1.378 . S
C542 C537 1.350 . S
C543 H530 0.929 . S
C543 C535 1.433 . S
C543 N545 1.384 . S
N544 C540 1.427 . S
N544 C541 1.384 . S
N545 C537 1.427 . S
N545 C543 1.384 . S
H546 C552 0.930 . S
H547 C556 0.930 . S
H548 C561 0.929 . S
H549 C559 0.929 . S
H550 C554 0.929 . S
H551 C560 0.929 . S
C552 H546 0.930 . S
C552 C553 1.367 . S
C552 C560 1.378 . S
C553 C552 1.367 . S
C553 C561 1.433 . S
C554 H550 0.929 . S
C554 C556 1.378 . S
C554 C558 1.350 . S
C555 C558 1.463 . S
C555 C560 1.350 . S
C555 N563 1.427 . S
C556 H547 0.930 . S
C556 C554 1.378 . S
C556 C557 1.367 . S
C557 C556 1.367 . S
C557 C559 1.433 . S
C558 C554 1.350 . S
C558 C555 1.463 . S
C558 N562 1.427 . S
C559 H549 0.929 . S
C559 C557 1.433 . S
C559 N562 1.384 . S
C560 H551 0.929 . S
C560 C552 1.378 . S
C560 C555 1.350 . S
C561 H548 0.929 . S
C561 C553 1.433 . S
C561 N563 1.384 . S
N562 C558 1.427 . S
N562 C559 1.384 . S
N563 C555 1.427 . S
N563 C561 1.384 . S
H564 C570 0.930 . S
H565 C574 0.930 1_655 S
H566 C579 0.929 1_655 S
H567 C577 0.929 . S
H568 C572 0.929 1_655 S
H569 C578 0.929 . S
C570 H564 0.930 . S
C570 C571 1.367 . S
C570 C578 1.378 . S
C571 C570 1.367 . S
C571 C579 1.433 . S
C572 H568 0.929 1_455 S
C572 C574 1.378 . S
C572 C576 1.350 . S
C573 C576 1.463 1_556 S
C573 C578 1.350 . S
C573 N581 1.427 . S
C574 H565 0.930 1_455 S
C574 C572 1.378 . S
C574 C575 1.367 . S
C575 C574 1.367 . S
C575 C577 1.433 . S
C576 C572 1.350 . S
C576 C573 1.463 1_554 S
C576 N580 1.427 . S
C577 H567 0.929 . S
C577 C575 1.433 . S
C577 N580 1.384 . S
C578 H569 0.929 . S
C578 C570 1.378 . S
C578 C573 1.350 . S
C579 H566 0.929 1_455 S
C579 C571 1.433 . S
C579 N581 1.384 . S
N580 C576 1.427 . S
N580 C577 1.384 . S
N581 C573 1.427 . S
N581 C579 1.384 . S
H582 C588 0.930 . S
H583 C592 0.930 . S
H584 C597 0.929 . S
H585 C595 0.929 . S
H586 C590 0.929 . S
H587 C596 0.929 . S
C588 H582 0.930 . S
C588 C589 1.367 . S
C588 C596 1.378 . S
C589 C588 1.367 . S
C589 C597 1.433 . S
C590 H586 0.929 . S
C590 C592 1.378 . S
C590 C594 1.350 . S
C591 C594 1.463 . S
C591 C596 1.350 . S
C591 N599 1.427 . S
C592 H583 0.930 . S
C592 C590 1.378 . S
C592 C593 1.367 . S
C593 C592 1.367 . S
C593 C595 1.433 . S
C594 C590 1.350 . S
C594 C591 1.463 . S
C594 N598 1.427 . S
C595 H585 0.929 . S
C595 C593 1.433 . S
C595 N598 1.384 . S
C596 H587 0.929 . S
C596 C588 1.378 . S
C596 C591 1.350 . S
C597 H584 0.929 . S
C597 C589 1.433 . S
C597 N599 1.384 . S
N598 C594 1.427 . S
N598 C595 1.384 . S
N599 C591 1.427 . S
N599 C597 1.384 . S
H600 C606 0.930 . S
H601 C610 0.930 . S
H602 C615 0.929 . S
H603 C613 0.929 . S
H604 C608 0.929 . S
H605 C614 0.929 . S
C606 H600 0.930 . S
C606 C607 1.367 . S
C606 C614 1.378 . S
C607 C606 1.367 . S
C607 C615 1.433 . S
C608 H604 0.929 . S
C608 C610 1.378 . S
C608 C612 1.350 . S
C609 C612 1.463 1_556 S
C609 C614 1.350 . S
C609 N617 1.427 . S
C610 H601 0.930 . S
C610 C608 1.378 . S
C610 C611 1.367 . S
C611 C610 1.367 . S
C611 C613 1.433 . S
C612 C608 1.350 . S
C612 C609 1.463 1_554 S
C612 N616 1.427 . S
C613 H603 0.929 . S
C613 C611 1.433 . S
C613 N616 1.384 . S
C614 H605 0.929 . S
C614 C606 1.378 . S
C614 C609 1.350 . S
C615 H602 0.929 . S
C615 C607 1.433 . S
C615 N617 1.384 . S
N616 C612 1.427 . S
N616 C613 1.384 . S
N617 C609 1.427 . S
N617 C615 1.384 . S
H618 C624 0.930 . S
H619 C628 0.930 . S
H620 C633 0.929 . S
H621 C631 0.929 . S
H622 C626 0.929 . S
H623 C632 0.929 . S
C624 H618 0.930 . S
C624 C625 1.367 . S
C624 C632 1.378 . S
C625 C624 1.367 . S
C625 C633 1.433 . S
C626 H622 0.929 . S
C626 C628 1.378 . S
C626 C630 1.350 . S
C627 C630 1.463 . S
C627 C632 1.350 . S
C627 N635 1.427 . S
C628 H619 0.930 . S
C628 C626 1.378 . S
C628 C629 1.367 . S
C629 C628 1.367 . S
C629 C631 1.433 . S
C630 C626 1.350 . S
C630 C627 1.463 . S
C630 N634 1.427 . S
C631 H621 0.929 . S
C631 C629 1.433 . S
C631 N634 1.384 . S
C632 H623 0.929 . S
C632 C624 1.378 . S
C632 C627 1.350 . S
C633 H620 0.929 . S
C633 C625 1.433 . S
C633 N635 1.384 . S
N634 C630 1.427 . S
N634 C631 1.384 . S
N635 C627 1.427 . S
N635 C633 1.384 . S
H636 C642 0.930 . S
H637 C646 0.930 . S
H638 C651 0.929 . S
H639 C649 0.929 . S
H640 C644 0.929 . S
H641 C650 0.929 . S
C642 H636 0.930 . S
C642 C643 1.367 . S
C642 C650 1.378 . S
C643 C642 1.367 . S
C643 C651 1.433 . S
C644 H640 0.929 . S
C644 C646 1.378 . S
C644 C648 1.350 . S
C645 C648 1.463 1_554 S
C645 C650 1.350 . S
C645 N653 1.427 . S
C646 H637 0.930 . S
C646 C644 1.378 . S
C646 C647 1.367 . S
C647 C646 1.367 . S
C647 C649 1.433 . S
C648 C644 1.350 . S
C648 C645 1.463 1_556 S
C648 N652 1.427 . S
C649 H639 0.929 . S
C649 C647 1.433 . S
C649 N652 1.384 . S
C650 H641 0.929 . S
C650 C642 1.378 . S
C650 C645 1.350 . S
C651 H638 0.929 . S
C651 C643 1.433 . S
C651 N653 1.384 . S
N652 C648 1.427 . S
N652 C649 1.384 . S
N653 C645 1.427 . S
N653 C651 1.384 . S
H654 C660 0.930 1_545 S
H655 C664 0.930 . S
H656 C669 0.929 . S
H657 C667 0.929 1_545 S
H658 C662 0.929 . S
H659 C668 0.929 1_545 S
C660 H654 0.930 1_565 S
C660 C661 1.367 . S
C660 C668 1.378 . S
C661 C660 1.367 . S
C661 C669 1.433 . S
C662 H658 0.929 . S
C662 C664 1.378 . S
C662 C666 1.350 . S
C663 C666 1.463 . S
C663 C668 1.350 . S
C663 N671 1.427 . S
C664 H655 0.930 . S
C664 C662 1.378 . S
C664 C665 1.367 . S
C665 C664 1.367 . S
C665 C667 1.433 . S
C666 C662 1.350 . S
C666 C663 1.463 . S
C666 N670 1.427 . S
C667 H657 0.929 1_565 S
C667 C665 1.433 . S
C667 N670 1.384 . S
C668 H659 0.929 1_565 S
C668 C660 1.378 . S
C668 C663 1.350 . S
C669 H656 0.929 . S
C669 C661 1.433 . S
C669 N671 1.384 . S
N670 C666 1.427 . S
N670 C667 1.384 . S
N671 C663 1.427 . S
N671 C669 1.384 . S
H672 C678 0.930 . S
H673 C682 0.930 . S
H674 C687 0.929 . S
H675 C685 0.929 . S
H676 C680 0.929 . S
H677 C686 0.929 . S
C678 H672 0.930 . S
C678 C679 1.367 . S
C678 C686 1.378 . S
C679 C678 1.367 . S
C679 C687 1.433 . S
C680 H676 0.929 . S
C680 C682 1.378 . S
C680 C684 1.350 1_545 S
C681 C684 1.463 . S
C681 C686 1.350 . S
C681 N689 1.427 . S
C682 H673 0.930 . S
C682 C680 1.378 . S
C682 C683 1.367 . S
C683 C682 1.367 . S
C683 C685 1.433 . S
C684 C680 1.350 1_565 S
C684 C681 1.463 . S
C684 N688 1.427 1_565 S
C685 H675 0.929 . S
C685 C683 1.433 . S
C685 N688 1.384 . S
C686 H677 0.929 . S
C686 C678 1.378 . S
C686 C681 1.350 . S
C687 H674 0.929 . S
C687 C679 1.433 . S
C687 N689 1.384 . S
N688 C684 1.427 1_545 S
N688 C685 1.384 . S
N689 C681 1.427 . S
N689 C687 1.384 . S
H690 C696 0.930 . S
H691 C700 0.930 . S
H692 C705 0.929 . S
H693 C703 0.929 . S
H694 C698 0.929 . S
H695 C704 0.929 . S
C696 H690 0.930 . S
C696 C697 1.367 . S
C696 C704 1.378 . S
C697 C696 1.367 . S
C697 C705 1.433 . S
C698 H694 0.929 . S
C698 C700 1.378 . S
C698 C702 1.350 . S
C699 C702 1.463 . S
C699 C704 1.350 . S
C699 N707 1.427 . S
C700 H691 0.930 . S
C700 C698 1.378 . S
C700 C701 1.367 . S
C701 C700 1.367 . S
C701 C703 1.433 . S
C702 C698 1.350 . S
C702 C699 1.463 . S
C702 N706 1.427 . S
C703 H693 0.929 . S
C703 C701 1.433 . S
C703 N706 1.384 . S
C704 H695 0.929 . S
C704 C696 1.378 . S
C704 C699 1.350 . S
C705 H692 0.929 . S
C705 C697 1.433 . S
C705 N707 1.384 . S
N706 C702 1.427 . S
N706 C703 1.384 . S
N707 C699 1.427 . S
N707 C705 1.384 . S
H708 C714 0.930 . S
H709 C718 0.930 1_455 S
H710 C723 0.929 . S
H711 C721 0.929 . S
H712 C716 0.937 . S
H713 C722 0.929 . S
C714 H708 0.930 . S
C714 C715 1.367 1_655 S
C714 C722 1.378 . S
C715 C714 1.367 1_455 S
C715 C723 1.433 . S
C716 H712 0.937 . S
C716 C718 1.376 1_455 S
C716 C720 1.344 1_455 S
C717 C720 1.463 . S
C717 C722 1.350 . S
C717 N725 1.427 1_655 S
C718 H709 0.930 1_655 S
C718 C716 1.376 1_655 S
C718 C719 1.367 . S
C719 C718 1.367 . S
C719 C721 1.433 . S
C720 C716 1.344 1_655 S
C720 C717 1.463 . S
C720 N724 1.427 . S
C721 H711 0.929 . S
C721 C719 1.433 . S
C721 N724 1.384 . S
C722 H713 0.929 . S
C722 C714 1.378 . S
C722 C717 1.350 . S
C723 H710 0.929 . S
C723 C715 1.433 . S
C723 N725 1.384 . S
N724 C720 1.427 . S
N724 C721 1.384 . S
N725 C717 1.427 1_455 S
N725 C723 1.384 . S
H726 C732 0.930 . S
H727 C736 0.930 . S
H728 C741 0.929 . S
H729 C739 0.929 . S
H730 C734 0.919 1_655 S
H731 C740 0.929 . S
C732 H726 0.930 . S
C732 C733 1.367 . S
C732 C740 1.378 . S
C733 C732 1.367 . S
C733 C741 1.433 . S
C734 H730 0.919 1_455 S
C734 C736 1.378 . S
C734 C738 1.350 1_455 S
C735 C738 1.463 . S
C735 C740 1.350 . S
C735 N743 1.427 . S
C736 H727 0.930 . S
C736 C734 1.378 . S
C736 C737 1.367 1_565 S
C737 C736 1.367 1_545 S
C737 C739 1.433 . S
C738 C734 1.350 1_655 S
C738 C735 1.463 . S
C738 N742 1.427 1_655 S
C739 H729 0.929 . S
C739 C737 1.433 . S
C739 N742 1.384 1_545 S
C740 H731 0.929 . S
C740 C732 1.378 . S
C740 C735 1.350 . S
C741 H728 0.929 . S
C741 C733 1.433 . S
C741 N743 1.384 . S
N742 C738 1.427 1_455 S
N742 C739 1.384 1_565 S
N743 C735 1.427 . S
N743 C741 1.384 . S
H744 C750 0.930 . S
H745 C754 0.930 . S
H746 C759 0.929 . S
H747 C757 0.929 . S
H748 C752 0.929 . S
H749 C758 0.929 . S
C750 H744 0.930 . S
C750 C751 1.367 . S
C750 C758 1.378 . S
C751 C750 1.367 . S
C751 C759 1.433 . S
C752 H748 0.929 . S
C752 C754 1.378 . S
C752 C756 1.350 . S
C753 C756 1.463 . S
C753 C758 1.350 . S
C753 N761 1.427 . S
C754 H745 0.930 . S
C754 C752 1.378 . S
C754 C755 1.367 . S
C755 C754 1.367 . S
C755 C757 1.433 . S
C756 C752 1.350 . S
C756 C753 1.463 . S
C756 N760 1.427 . S
C757 H747 0.929 . S
C757 C755 1.433 . S
C757 N760 1.384 . S
C758 H749 0.929 . S
C758 C750 1.378 . S
C758 C753 1.350 . S
C759 H746 0.929 . S
C759 C751 1.433 . S
C759 N761 1.384 . S
N760 C756 1.427 . S
N760 C757 1.384 . S
N761 C753 1.427 . S
N761 C759 1.384 . S
H762 C768 0.930 . S
H763 C772 0.930 . S
H764 C777 0.929 . S
H765 C775 0.929 . S
H766 C770 0.929 . S
H767 C776 0.929 . S
C768 H762 0.930 . S
C768 C769 1.367 . S
C768 C776 1.378 . S
C769 C768 1.367 . S
C769 C777 1.433 . S
C770 H766 0.929 . S
C770 C772 1.378 . S
C770 C774 1.350 1_455 S
C771 C774 1.463 . S
C771 C776 1.350 . S
C771 N779 1.427 . S
C772 H763 0.930 . S
C772 C770 1.378 . S
C772 C773 1.367 . S
C773 C772 1.367 . S
C773 C775 1.433 . S
C774 C770 1.350 1_655 S
C774 C771 1.463 . S
C774 N778 1.427 1_655 S
C775 H765 0.929 . S
C775 C773 1.433 . S
C775 N778 1.384 . S
C776 H767 0.929 . S
C776 C768 1.378 . S
C776 C771 1.350 . S
C777 H764 0.929 . S
C777 C769 1.433 . S
C777 N779 1.384 . S
N778 C774 1.427 1_455 S
N778 C775 1.384 . S
N779 C771 1.427 . S
N779 C777 1.384 . S
H780 C786 0.930 . S
H781 C790 0.930 . S
H782 C795 0.929 . S
H783 C793 0.929 . S
H784 C788 0.929 . S
H785 C794 0.929 . S
C786 H780 0.930 . S
C786 C787 1.367 . S
C786 C794 1.378 1_455 S
C787 C786 1.367 . S
C787 C795 1.433 1_455 S
C788 H784 0.929 . S
C788 C790 1.378 . S
C788 C792 1.350 . S
C789 C792 1.463 . S
C789 C794 1.350 1_565 S
C789 N797 1.427 1_565 S
C790 H781 0.930 . S
C790 C788 1.378 . S
C790 C791 1.367 . S
C791 C790 1.367 . S
C791 C793 1.433 . S
C792 C788 1.350 . S
C792 C789 1.463 . S
C792 N796 1.427 . S
C793 H783 0.929 . S
C793 C791 1.433 . S
C793 N796 1.384 . S
C794 H785 0.929 . S
C794 C786 1.378 1_655 S
C794 C789 1.350 1_545 S
C795 H782 0.929 . S
C795 C787 1.433 1_655 S
C795 N797 1.384 . S
N796 C792 1.427 . S
N796 C793 1.384 . S
N797 C789 1.427 1_545 S
N797 C795 1.384 . S
H798 C804 0.930 . S
H799 C808 0.930 . S
H800 C813 0.929 . S
H801 C811 0.929 . S
H802 C806 0.929 . S
H803 C812 0.929 . S
C804 H798 0.930 . S
C804 C805 1.367 . S
C804 C812 1.378 1_545 S
C805 C804 1.367 . S
C805 C813 1.433 1_545 S
C806 H802 0.929 . S
C806 C808 1.378 . S
C806 C810 1.350 . S
C807 C810 1.463 . S
C807 C812 1.350 . S
C807 N815 1.427 . S
C808 H799 0.930 . S
C808 C806 1.378 . S
C808 C809 1.367 . S
C809 C808 1.367 . S
C809 C811 1.433 . S
C810 C806 1.350 . S
C810 C807 1.463 . S
C810 N814 1.427 . S
C811 H801 0.929 . S
C811 C809 1.433 . S
C811 N814 1.384 . S
C812 H803 0.929 . S
C812 C804 1.378 1_565 S
C812 C807 1.350 . S
C813 H800 0.929 . S
C813 C805 1.433 1_565 S
C813 N815 1.384 . S
N814 C810 1.427 . S
N814 C811 1.384 . S
N815 C807 1.427 . S
N815 C813 1.384 . S
H816 C822 0.930 . S
H817 C826 0.930 . S
H818 C831 0.929 . S
H819 C829 0.929 . S
H820 C824 0.929 . S
H821 C830 0.929 . S
C822 H816 0.930 . S
C822 C823 1.367 . S
C822 C830 1.378 . S
C823 C822 1.367 . S
C823 C831 1.433 . S
C824 H820 0.929 . S
C824 C826 1.378 . S
C824 C828 1.350 1_565 S
C825 C828 1.463 . S
C825 C830 1.350 . S
C825 N833 1.427 . S
C826 H817 0.930 . S
C826 C824 1.378 . S
C826 C827 1.367 . S
C827 C826 1.367 . S
C827 C829 1.433 . S
C828 C824 1.350 1_545 S
C828 C825 1.463 . S
C828 N832 1.427 1_545 S
C829 H819 0.929 . S
C829 C827 1.433 . S
C829 N832 1.384 . S
C830 H821 0.929 . S
C830 C822 1.378 . S
C830 C825 1.350 . S
C831 H818 0.929 . S
C831 C823 1.433 . S
C831 N833 1.384 . S
N832 C828 1.427 1_565 S
N832 C829 1.384 . S
N833 C825 1.427 . S
N833 C831 1.384 . S
H834 C840 0.930 . S
H835 C844 0.930 . S
H836 C849 0.929 . S
H837 C847 0.929 . S
H838 C842 0.929 . S
H839 C848 0.929 . S
C840 H834 0.930 . S
C840 C841 1.367 . S
C840 C848 1.378 . S
C841 C840 1.367 . S
C841 C849 1.433 . S
C842 H838 0.929 . S
C842 C844 1.378 . S
C842 C846 1.350 . S
C843 C846 1.463 . S
C843 C848 1.350 . S
C843 N851 1.427 . S
C844 H835 0.930 . S
C844 C842 1.378 . S
C844 C845 1.367 . S
C845 C844 1.367 . S
C845 C847 1.433 . S
C846 C842 1.350 . S
C846 C843 1.463 . S
C846 N850 1.427 . S
C847 H837 0.929 . S
C847 C845 1.433 . S
C847 N850 1.384 . S
C848 H839 0.929 . S
C848 C840 1.378 . S
C848 C843 1.350 . S
C849 H836 0.929 . S
C849 C841 1.433 . S
C849 N851 1.384 . S
N850 C846 1.427 . S
N850 C847 1.384 . S
N851 C843 1.427 . S
N851 C849 1.384 . S
H852 C858 0.930 . S
H853 C862 0.930 . S
H854 C867 0.929 . S
H855 C865 0.929 . S
H856 C860 0.929 . S
H857 C866 0.929 . S
C858 H852 0.930 . S
C858 C859 1.367 1_655 S
C858 C866 1.378 . S
C859 C858 1.367 1_455 S
C859 C867 1.433 . S
C860 H856 0.929 . S
C860 C862 1.378 . S
C860 C864 1.350 . S
C861 C864 1.463 . S
C861 C866 1.350 1_455 S
C861 N869 1.427 . S
C862 H853 0.930 . S
C862 C860 1.378 . S
C862 C863 1.367 1_455 S
C863 C862 1.367 1_655 S
C863 C865 1.433 . S
C864 C860 1.350 . S
C864 C861 1.463 . S
C864 N868 1.427 1_455 S
C865 H855 0.929 . S
C865 C863 1.433 . S
C865 N868 1.384 . S
C866 H857 0.929 . S
C866 C858 1.378 . S
C866 C861 1.350 1_655 S
C867 H854 0.929 . S
C867 C859 1.433 . S
C867 N869 1.384 . S
N868 C864 1.427 1_655 S
N868 C865 1.384 . S
N869 C861 1.427 . S
N869 C867 1.384 . S
H870 C876 0.930 . S
H871 C880 0.930 . S
H872 C885 0.929 . S
H873 C883 0.929 . S
H874 C878 0.929 . S
H875 C884 0.928 . S
C876 H870 0.930 . S
C876 C877 1.367 . S
C876 C884 1.374 1_565 S
C877 C876 1.367 . S
C877 C885 1.433 1_565 S
C878 H874 0.929 . S
C878 C880 1.378 . S
C878 C882 1.350 . S
C879 C882 1.463 . S
C879 C884 1.355 1_455 S
C879 N887 1.427 1_455 S
C880 H871 0.930 . S
C880 C878 1.378 . S
C880 C881 1.367 . S
C881 C880 1.367 . S
C881 C883 1.433 . S
C882 C878 1.350 . S
C882 C879 1.463 . S
C882 N886 1.427 . S
C883 H873 0.929 . S
C883 C881 1.433 . S
C883 N886 1.384 . S
C884 H875 0.928 . S
C884 C876 1.374 1_545 S
C884 C879 1.355 1_655 S
C885 H872 0.929 . S
C885 C877 1.433 1_545 S
C885 N887 1.384 . S
N886 C882 1.427 . S
N886 C883 1.384 . S
N887 C879 1.427 1_655 S
N887 C885 1.384 . S
H888 C894 0.930 . S
H889 C898 0.930 . S
H890 C903 0.929 . S
H891 C901 0.929 . S
H892 C896 0.929 . S
H893 C902 0.929 . S
C894 H888 0.930 . S
C894 C895 1.367 . S
C894 C902 1.378 . S
C895 C894 1.367 . S
C895 C903 1.433 . S
C896 H892 0.929 . S
C896 C898 1.378 . S
C896 C900 1.350 . S
C897 C900 1.463 . S
C897 C902 1.350 . S
C897 N905 1.427 . S
C898 H889 0.930 . S
C898 C896 1.378 . S
C898 C899 1.367 . S
C899 C898 1.367 . S
C899 C901 1.433 . S
C900 C896 1.350 . S
C900 C897 1.463 . S
C900 N904 1.427 . S
C901 H891 0.929 . S
C901 C899 1.433 . S
C901 N904 1.384 . S
C902 H893 0.929 . S
C902 C894 1.378 . S
C902 C897 1.350 . S
C903 H890 0.929 . S
C903 C895 1.433 . S
C903 N905 1.384 . S
N904 C900 1.427 . S
N904 C901 1.384 . S
N905 C897 1.427 . S
N905 C903 1.384 . S
H906 C912 0.930 . S
H907 C916 0.930 . S
H908 C921 0.929 . S
H909 C919 0.929 . S
H910 C914 0.929 . S
H911 C920 0.929 . S
C912 H906 0.930 . S
C912 C913 1.367 . S
C912 C920 1.378 . S
C913 C912 1.367 . S
C913 C921 1.433 . S
C914 H910 0.929 . S
C914 C916 1.378 . S
C914 C918 1.350 1_655 S
C915 C918 1.463 . S
C915 C920 1.350 . S
C915 N923 1.427 . S
C916 H907 0.930 . S
C916 C914 1.378 . S
C916 C917 1.367 . S
C917 C916 1.367 . S
C917 C919 1.433 . S
C918 C914 1.350 1_455 S
C918 C915 1.463 . S
C918 N922 1.427 1_455 S
C919 H909 0.929 . S
C919 C917 1.433 . S
C919 N922 1.384 . S
C920 H911 0.929 . S
C920 C912 1.378 . S
C920 C915 1.350 . S
C921 H908 0.929 . S
C921 C913 1.433 . S
C921 N923 1.384 . S
N922 C918 1.427 1_655 S
N922 C919 1.384 . S
N923 C915 1.427 . S
N923 C921 1.384 . S
H924 C930 0.930 . S
H925 C934 0.930 . S
H926 C939 0.929 . S
H927 C937 0.929 . S
H928 C932 0.929 . S
H929 C938 0.929 1_545 S
C930 H924 0.930 . S
C930 C931 1.367 . S
C930 C938 1.378 . S
C931 C930 1.367 . S
C931 C939 1.433 1_655 S
C932 H928 0.929 . S
C932 C934 1.378 . S
C932 C936 1.350 . S
C933 C936 1.463 . S
C933 C938 1.350 1_445 S
C933 N941 1.427 1_545 S
C934 H925 0.930 . S
C934 C932 1.378 . S
C934 C935 1.367 . S
C935 C934 1.367 . S
C935 C937 1.433 1_455 S
C936 C932 1.350 . S
C936 C933 1.463 . S
C936 N940 1.427 1_455 S
C937 H927 0.929 . S
C937 C935 1.433 1_655 S
C937 N940 1.384 . S
C938 H929 0.929 1_565 S
C938 C930 1.378 . S
C938 C933 1.350 1_665 S
C939 H926 0.929 . S
C939 C931 1.433 1_455 S
C939 N941 1.384 . S
N940 C936 1.427 1_655 S
N940 C937 1.384 . S
N941 C933 1.427 1_565 S
N941 C939 1.384 . S
H942 C948 0.930 . S
H943 C952 0.930 . S
H944 C957 0.929 . S
H945 C955 0.929 . S
H946 C950 0.931 . S
H947 C956 0.929 . S
C948 H942 0.930 . S
C948 C949 1.367 . S
C948 C956 1.378 . S
C949 C948 1.367 . S
C949 C957 1.433 . S
C950 H946 0.931 . S
C950 C952 1.381 . S
C950 C954 1.345 1_565 S
C951 C954 1.463 . S
C951 C956 1.350 . S
C951 N959 1.427 . S
C952 H943 0.930 . S
C952 C950 1.381 . S
C952 C953 1.367 . S
C953 C952 1.367 . S
C953 C955 1.433 1_565 S
C954 C950 1.345 1_545 S
C954 C951 1.463 . S
C954 N958 1.427 . S
C955 H945 0.929 . S
C955 C953 1.433 1_545 S
C955 N958 1.384 . S
C956 H947 0.929 . S
C956 C948 1.378 . S
C956 C951 1.350 . S
C957 H944 0.929 . S
C957 C949 1.433 . S
C957 N959 1.384 . S
N958 C954 1.427 . S
N958 C955 1.384 . S
N959 C951 1.427 . S
N959 C957 1.384 . S
H960 C966 0.930 . S
H961 C970 0.930 . S
H962 C975 0.929 . S
H963 C973 0.929 . S
H964 C968 0.929 . S
H965 C974 0.929 . S
C966 H960 0.930 . S
C966 C967 1.367 . S
C966 C974 1.378 . S
C967 C966 1.367 . S
C967 C975 1.433 . S
C968 H964 0.929 . S
C968 C970 1.378 . S
C968 C972 1.350 . S
C969 C972 1.463 . S
C969 C974 1.350 . S
C969 N977 1.427 . S
C970 H961 0.930 . S
C970 C968 1.378 . S
C970 C971 1.367 . S
C971 C970 1.367 . S
C971 C973 1.433 . S
C972 C968 1.350 . S
C972 C969 1.463 . S
C972 N976 1.427 . S
C973 H963 0.929 . S
C973 C971 1.433 . S
C973 N976 1.384 . S
C974 H965 0.929 . S
C974 C966 1.378 . S
C974 C969 1.350 . S
C975 H962 0.929 . S
C975 C967 1.433 . S
C975 N977 1.384 . S
N976 C972 1.427 . S
N976 C973 1.384 . S
N977 C969 1.427 . S
N977 C975 1.384 . S
H978 C984 0.930 . S
H979 C988 0.930 . S
H980 C993 0.929 . S
H981 C991 0.929 . S
H982 C986 0.929 . S
H983 C992 0.929 . S
C984 H978 0.930 . S
C984 C985 1.367 . S
C984 C992 1.378 . S
C985 C984 1.367 . S
C985 C993 1.433 . S
C986 H982 0.929 . S
C986 C988 1.378 . S
C986 C990 1.350 . S
C987 C990 1.463 . S
C987 C992 1.350 . S
C987 N995 1.427 . S
C988 H979 0.930 . S
C988 C986 1.378 . S
C988 C989 1.367 . S
C989 C988 1.367 . S
C989 C991 1.433 . S
C990 C986 1.350 . S
C990 C987 1.463 . S
C990 N994 1.427 . S
C991 H981 0.929 . S
C991 C989 1.433 . S
C991 N994 1.384 . S
C992 H983 0.929 . S
C992 C984 1.378 . S
C992 C987 1.350 . S
C993 H980 0.929 . S
C993 C985 1.433 . S
C993 N995 1.384 . S
N994 C990 1.427 . S
N994 C991 1.384 . S
N995 C987 1.427 . S
N995 C993 1.384 . S
H996 C1002 0.930 . S
H997 C1006 0.930 . S
H998 C1011 0.929 . S
H999 C1009 0.929 . S
H1000 C1004 0.929 . S
H1001 C1010 0.929 . S
C1002 H996 0.930 . S
C1002 C1003 1.367 . S
C1002 C1010 1.378 . S
C1003 C1002 1.367 . S
C1003 C1011 1.433 . S
C1004 H1000 0.929 . S
C1004 C1006 1.378 . S
C1004 C1008 1.350 . S
C1005 C1008 1.463 . S
C1005 C1010 1.350 . S
C1005 N1013 1.427 . S
C1006 H997 0.930 . S
C1006 C1004 1.378 . S
C1006 C1007 1.367 . S
C1007 C1006 1.367 . S
C1007 C1009 1.433 . S
C1008 C1004 1.350 . S
C1008 C1005 1.463 . S
C1008 N1012 1.427 . S
C1009 H999 0.929 . S
C1009 C1007 1.433 . S
C1009 N1012 1.384 . S
C1010 H1001 0.929 . S
C1010 C1002 1.378 . S
C1010 C1005 1.350 . S
C1011 H998 0.929 . S
C1011 C1003 1.433 . S
C1011 N1013 1.384 . S
N1012 C1008 1.427 . S
N1012 C1009 1.384 . S
N1013 C1005 1.427 . S
N1013 C1011 1.384 . S
H1014 C1020 0.930 . S
H1015 C1024 0.930 . S
H1016 C1029 0.929 . S
H1017 C1027 0.929 . S
H1018 C1022 0.929 . S
H1019 C1028 0.929 . S
C1020 H1014 0.930 . S
C1020 C1021 1.367 . S
C1020 C1028 1.378 . S
C1021 C1020 1.367 . S
C1021 C1029 1.433 . S
C1022 H1018 0.929 . S
C1022 C1024 1.378 . S
C1022 C1026 1.350 . S
C1023 C1026 1.463 . S
C1023 C1028 1.350 . S
C1023 N1031 1.427 . S
C1024 H1015 0.930 . S
C1024 C1022 1.378 . S
C1024 C1025 1.367 . S
C1025 C1024 1.367 . S
C1025 C1027 1.433 . S
C1026 C1022 1.350 . S
C1026 C1023 1.463 . S
C1026 N1030 1.427 . S
C1027 H1017 0.929 . S
C1027 C1025 1.433 . S
C1027 N1030 1.384 . S
C1028 H1019 0.929 . S
C1028 C1020 1.378 . S
C1028 C1023 1.350 . S
C1029 H1016 0.929 . S
C1029 C1021 1.433 . S
C1029 N1031 1.384 . S
N1030 C1026 1.427 . S
N1030 C1027 1.384 . S
N1031 C1023 1.427 . S
N1031 C1029 1.384 . S
H1032 C1038 0.930 . S
H1033 C1042 0.930 . S
H1034 C1047 0.929 . S
H1035 C1045 0.929 . S
H1036 C1040 0.929 . S
H1037 C1046 0.929 . S
C1038 H1032 0.930 . S
C1038 C1039 1.367 . S
C1038 C1046 1.378 . S
C1039 C1038 1.367 . S
C1039 C1047 1.433 . S
C1040 H1036 0.929 . S
C1040 C1042 1.378 . S
C1040 C1044 1.350 . S
C1041 C1044 1.463 . S
C1041 C1046 1.350 . S
C1041 N1049 1.427 . S
C1042 H1033 0.930 . S
C1042 C1040 1.378 . S
C1042 C1043 1.367 . S
C1043 C1042 1.367 . S
C1043 C1045 1.433 . S
C1044 C1040 1.350 . S
C1044 C1041 1.463 . S
C1044 N1048 1.427 . S
C1045 H1035 0.929 . S
C1045 C1043 1.433 . S
C1045 N1048 1.384 . S
C1046 H1037 0.929 . S
C1046 C1038 1.378 . S
C1046 C1041 1.350 . S
C1047 H1034 0.929 . S
C1047 C1039 1.433 . S
C1047 N1049 1.384 . S
N1048 C1044 1.427 . S
N1048 C1045 1.384 . S
N1049 C1041 1.427 . S
N1049 C1047 1.384 . S
H1050 C1056 0.930 . S
H1051 C1060 0.930 . S
H1052 C1065 0.929 . S
H1053 C1063 0.929 . S
H1054 C1058 0.929 . S
H1055 C1064 0.929 . S
C1056 H1050 0.930 . S
C1056 C1057 1.367 . S
C1056 C1064 1.378 . S
C1057 C1056 1.367 . S
C1057 C1065 1.433 . S
C1058 H1054 0.929 . S
C1058 C1060 1.378 . S
C1058 C1062 1.350 . S
C1059 C1062 1.463 . S
C1059 C1064 1.350 . S
C1059 N1067 1.427 . S
C1060 H1051 0.930 . S
C1060 C1058 1.378 . S
C1060 C1061 1.367 . S
C1061 C1060 1.367 . S
C1061 C1063 1.433 . S
C1062 C1058 1.350 . S
C1062 C1059 1.463 . S
C1062 N1066 1.427 . S
C1063 H1053 0.929 . S
C1063 C1061 1.433 . S
C1063 N1066 1.384 . S
C1064 H1055 0.929 . S
C1064 C1056 1.378 . S
C1064 C1059 1.350 . S
C1065 H1052 0.929 . S
C1065 C1057 1.433 . S
C1065 N1067 1.384 . S
N1066 C1062 1.427 . S
N1066 C1063 1.384 . S
N1067 C1059 1.427 . S
N1067 C1065 1.384 . S
H1068 C1074 0.930 . S
H1069 C1078 0.930 . S
H1070 C1083 0.929 . S
H1071 C1081 0.929 . S
H1072 C1076 0.929 . S
H1073 C1082 0.929 . S
C1074 H1068 0.930 . S
C1074 C1075 1.367 . S
C1074 C1082 1.378 . S
C1075 C1074 1.367 . S
C1075 C1083 1.433 . S
C1076 H1072 0.929 . S
C1076 C1078 1.378 . S
C1076 C1080 1.350 . S
C1077 C1080 1.463 . S
C1077 C1082 1.350 . S
C1077 N1085 1.427 . S
C1078 H1069 0.930 . S
C1078 C1076 1.378 . S
C1078 C1079 1.367 . S
C1079 C1078 1.367 . S
C1079 C1081 1.433 . S
C1080 C1076 1.350 . S
C1080 C1077 1.463 . S
C1080 N1084 1.427 . S
C1081 H1071 0.929 . S
C1081 C1079 1.433 . S
C1081 N1084 1.384 . S
C1082 H1073 0.929 . S
C1082 C1074 1.378 . S
C1082 C1077 1.350 . S
C1083 H1070 0.929 . S
C1083 C1075 1.433 . S
C1083 N1085 1.384 . S
N1084 C1080 1.427 . S
N1084 C1081 1.384 . S
N1085 C1077 1.427 . S
N1085 C1083 1.384 . S
H1086 C1092 0.930 . S
H1087 C1096 0.930 . S
H1088 C1101 0.929 . S
H1089 C1099 0.929 . S
H1090 C1094 0.929 . S
H1091 C1100 0.929 . S
C1092 H1086 0.930 . S
C1092 C1093 1.367 . S
C1092 C1100 1.378 . S
C1093 C1092 1.367 . S
C1093 C1101 1.433 . S
C1094 H1090 0.929 . S
C1094 C1096 1.378 . S
C1094 C1098 1.350 . S
C1095 C1098 1.463 . S
C1095 C1100 1.350 . S
C1095 N1103 1.427 . S
C1096 H1087 0.930 . S
C1096 C1094 1.378 . S
C1096 C1097 1.367 . S
C1097 C1096 1.367 . S
C1097 C1099 1.433 . S
C1098 C1094 1.350 . S
C1098 C1095 1.463 . S
C1098 N1102 1.427 . S
C1099 H1089 0.929 . S
C1099 C1097 1.433 . S
C1099 N1102 1.384 . S
C1100 H1091 0.929 . S
C1100 C1092 1.378 . S
C1100 C1095 1.350 . S
C1101 H1088 0.929 . S
C1101 C1093 1.433 . S
C1101 N1103 1.384 . S
N1102 C1098 1.427 . S
N1102 C1099 1.384 . S
N1103 C1095 1.427 . S
N1103 C1101 1.384 . S
H1104 C1110 0.930 . S
H1105 C1114 0.930 . S
H1106 C1119 0.929 . S
H1107 C1117 0.929 . S
H1108 C1112 0.929 . S
H1109 C1118 0.929 . S
C1110 H1104 0.930 . S
C1110 C1111 1.367 . S
C1110 C1118 1.378 . S
C1111 C1110 1.367 . S
C1111 C1119 1.433 . S
C1112 H1108 0.929 . S
C1112 C1114 1.378 . S
C1112 C1116 1.350 . S
C1113 C1116 1.463 . S
C1113 C1118 1.350 . S
C1113 N1121 1.427 . S
C1114 H1105 0.930 . S
C1114 C1112 1.378 . S
C1114 C1115 1.367 . S
C1115 C1114 1.367 . S
C1115 C1117 1.433 . S
C1116 C1112 1.350 . S
C1116 C1113 1.463 . S
C1116 N1120 1.427 . S
C1117 H1107 0.929 . S
C1117 C1115 1.433 . S
C1117 N1120 1.384 . S
C1118 H1109 0.929 . S
C1118 C1110 1.378 . S
C1118 C1113 1.350 . S
C1119 H1106 0.929 . S
C1119 C1111 1.433 . S
C1119 N1121 1.384 . S
N1120 C1116 1.427 . S
N1120 C1117 1.384 . S
N1121 C1113 1.427 . S
N1121 C1119 1.384 . S
H1122 C1128 0.930 . S
H1123 C1132 0.930 . S
H1124 C1137 0.929 . S
H1125 C1135 0.929 . S
H1126 C1130 0.929 . S
H1127 C1136 0.929 . S
C1128 H1122 0.930 . S
C1128 C1129 1.367 . S
C1128 C1136 1.378 . S
C1129 C1128 1.367 . S
C1129 C1137 1.433 . S
C1130 H1126 0.929 . S
C1130 C1132 1.378 . S
C1130 C1134 1.350 . S
C1131 C1134 1.463 . S
C1131 C1136 1.350 . S
C1131 N1139 1.427 . S
C1132 H1123 0.930 . S
C1132 C1130 1.378 . S
C1132 C1133 1.367 . S
C1133 C1132 1.367 . S
C1133 C1135 1.433 . S
C1134 C1130 1.350 . S
C1134 C1131 1.463 . S
C1134 N1138 1.427 . S
C1135 H1125 0.929 . S
C1135 C1133 1.433 . S
C1135 N1138 1.384 . S
C1136 H1127 0.929 . S
C1136 C1128 1.378 . S
C1136 C1131 1.350 . S
C1137 H1124 0.929 . S
C1137 C1129 1.433 . S
C1137 N1139 1.384 . S
N1138 C1134 1.427 . S
N1138 C1135 1.384 . S
N1139 C1131 1.427 . S
N1139 C1137 1.384 . S
H1140 C1146 0.930 . S
H1141 C1150 0.930 . S
H1142 C1155 0.929 . S
H1143 C1153 0.929 . S
H1144 C1148 0.929 . S
H1145 C1154 0.929 . S
C1146 H1140 0.930 . S
C1146 C1147 1.367 . S
C1146 C1154 1.378 . S
C1147 C1146 1.367 . S
C1147 C1155 1.433 . S
C1148 H1144 0.929 . S
C1148 C1150 1.378 . S
C1148 C1152 1.350 . S
C1149 C1152 1.463 . S
C1149 C1154 1.350 . S
C1149 N1157 1.427 . S
C1150 H1141 0.930 . S
C1150 C1148 1.378 . S
C1150 C1151 1.367 . S
C1151 C1150 1.367 . S
C1151 C1153 1.433 . S
C1152 C1148 1.350 . S
C1152 C1149 1.463 . S
C1152 N1156 1.427 . S
C1153 H1143 0.929 . S
C1153 C1151 1.433 . S
C1153 N1156 1.384 . S
C1154 H1145 0.929 . S
C1154 C1146 1.378 . S
C1154 C1149 1.350 . S
C1155 H1142 0.929 . S
C1155 C1147 1.433 . S
C1155 N1157 1.384 . S
N1156 C1152 1.427 . S
N1156 C1153 1.384 . S
N1157 C1149 1.427 . S
N1157 C1155 1.384 . S
H1158 C1164 0.930 . S
H1159 C1168 0.930 . S
H1160 C1173 0.929 . S
H1161 C1171 0.929 . S
H1162 C1166 0.929 . S
H1163 C1172 0.929 . S
C1164 H1158 0.930 . S
C1164 C1165 1.367 . S
C1164 C1172 1.378 . S
C1165 C1164 1.367 . S
C1165 C1173 1.433 . S
C1166 H1162 0.929 . S
C1166 C1168 1.378 . S
C1166 C1170 1.350 . S
C1167 C1170 1.463 . S
C1167 C1172 1.350 . S
C1167 N1175 1.427 . S
C1168 H1159 0.930 . S
C1168 C1166 1.378 . S
C1168 C1169 1.367 . S
C1169 C1168 1.367 . S
C1169 C1171 1.433 . S
C1170 C1166 1.350 . S
C1170 C1167 1.463 . S
C1170 N1174 1.427 . S
C1171 H1161 0.929 . S
C1171 C1169 1.433 . S
C1171 N1174 1.384 . S
C1172 H1163 0.929 . S
C1172 C1164 1.378 . S
C1172 C1167 1.350 . S
C1173 H1160 0.929 . S
C1173 C1165 1.433 . S
C1173 N1175 1.384 . S
N1174 C1170 1.427 . S
N1174 C1171 1.384 . S
N1175 C1167 1.427 . S
N1175 C1173 1.384 . S
H1176 C1182 0.930 . S
H1177 C1186 0.930 . S
H1178 C1191 0.929 . S
H1179 C1189 0.929 . S
H1180 C1184 0.929 . S
H1181 C1190 0.929 . S
C1182 H1176 0.930 . S
C1182 C1183 1.367 . S
C1182 C1190 1.378 . S
C1183 C1182 1.367 . S
C1183 C1191 1.433 . S
C1184 H1180 0.929 . S
C1184 C1186 1.378 . S
C1184 C1188 1.350 . S
C1185 C1188 1.463 . S
C1185 C1190 1.350 . S
C1185 N1193 1.427 . S
C1186 H1177 0.930 . S
C1186 C1184 1.378 . S
C1186 C1187 1.367 . S
C1187 C1186 1.367 . S
C1187 C1189 1.433 . S
C1188 C1184 1.350 . S
C1188 C1185 1.463 . S
C1188 N1192 1.427 . S
C1189 H1179 0.929 . S
C1189 C1187 1.433 . S
C1189 N1192 1.384 . S
C1190 H1181 0.929 . S
C1190 C1182 1.378 . S
C1190 C1185 1.350 . S
C1191 H1178 0.929 . S
C1191 C1183 1.433 . S
C1191 N1193 1.384 . S
N1192 C1188 1.427 . S
N1192 C1189 1.384 . S
N1193 C1185 1.427 . S
N1193 C1191 1.384 . S
H1194 C1200 0.930 . S
H1195 C1204 0.930 . S
H1196 C1209 0.929 . S
H1197 C1207 0.929 . S
H1198 C1202 0.929 . S
H1199 C1208 0.929 . S
C1200 H1194 0.930 . S
C1200 C1201 1.367 . S
C1200 C1208 1.378 . S
C1201 C1200 1.367 . S
C1201 C1209 1.433 . S
C1202 H1198 0.929 . S
C1202 C1204 1.378 . S
C1202 C1206 1.350 . S
C1203 C1206 1.463 . S
C1203 C1208 1.350 . S
C1203 N1211 1.427 . S
C1204 H1195 0.930 . S
C1204 C1202 1.378 . S
C1204 C1205 1.367 . S
C1205 C1204 1.367 . S
C1205 C1207 1.433 . S
C1206 C1202 1.350 . S
C1206 C1203 1.463 . S
C1206 N1210 1.427 . S
C1207 H1197 0.929 . S
C1207 C1205 1.433 . S
C1207 N1210 1.384 . S
C1208 H1199 0.929 . S
C1208 C1200 1.378 . S
C1208 C1203 1.350 . S
C1209 H1196 0.929 . S
C1209 C1201 1.433 . S
C1209 N1211 1.384 . S
N1210 C1206 1.427 . S
N1210 C1207 1.384 . S
N1211 C1203 1.427 . S
N1211 C1209 1.384 . S
H1212 C1218 0.930 . S
H1213 C1222 0.930 . S
H1214 C1227 0.929 . S
H1215 C1225 0.929 . S
H1216 C1220 0.929 . S
H1217 C1226 0.929 . S
C1218 H1212 0.930 . S
C1218 C1219 1.367 . S
C1218 C1226 1.378 . S
C1219 C1218 1.367 . S
C1219 C1227 1.433 . S
C1220 H1216 0.929 . S
C1220 C1222 1.378 . S
C1220 C1224 1.350 . S
C1221 C1224 1.463 . S
C1221 C1226 1.350 . S
C1221 N1229 1.427 . S
C1222 H1213 0.930 . S
C1222 C1220 1.378 . S
C1222 C1223 1.367 . S
C1223 C1222 1.367 . S
C1223 C1225 1.433 . S
C1224 C1220 1.350 . S
C1224 C1221 1.463 . S
C1224 N1228 1.427 . S
C1225 H1215 0.929 . S
C1225 C1223 1.433 . S
C1225 N1228 1.384 . S
C1226 H1217 0.929 . S
C1226 C1218 1.378 . S
C1226 C1221 1.350 . S
C1227 H1214 0.929 . S
C1227 C1219 1.433 . S
C1227 N1229 1.384 . S
N1228 C1224 1.427 . S
N1228 C1225 1.384 . S
N1229 C1221 1.427 . S
N1229 C1227 1.384 . S
H1230 C1236 0.930 . S
H1231 C1240 0.930 . S
H1232 C1245 0.929 . S
H1233 C1243 0.929 . S
H1234 C1238 0.929 . S
H1235 C1244 0.929 . S
C1236 H1230 0.930 . S
C1236 C1237 1.367 . S
C1236 C1244 1.378 . S
C1237 C1236 1.367 . S
C1237 C1245 1.433 . S
C1238 H1234 0.929 . S
C1238 C1240 1.378 . S
C1238 C1242 1.350 . S
C1239 C1242 1.463 . S
C1239 C1244 1.350 . S
C1239 N1247 1.427 . S
C1240 H1231 0.930 . S
C1240 C1238 1.378 . S
C1240 C1241 1.367 . S
C1241 C1240 1.367 . S
C1241 C1243 1.433 . S
C1242 C1238 1.350 . S
C1242 C1239 1.463 . S
C1242 N1246 1.427 . S
C1243 H1233 0.929 . S
C1243 C1241 1.433 . S
C1243 N1246 1.384 . S
C1244 H1235 0.929 . S
C1244 C1236 1.378 . S
C1244 C1239 1.350 . S
C1245 H1232 0.929 . S
C1245 C1237 1.433 . S
C1245 N1247 1.384 . S
N1246 C1242 1.427 . S
N1246 C1243 1.384 . S
N1247 C1239 1.427 . S
N1247 C1245 1.384 . S
C535 C28 1.521 . S
C539 C160 1.525 . S
C553 C193 1.525 . S
C557 C61 1.518 . S
C571 C226 1.523 . S
C575 C94 1.517 . S
C589 C259 1.517 . S
C593 C127 1.519 . S
C607 C292 1.525 . S
C611 C424 1.521 . S
C625 C325 1.523 . S
C629 C457 1.517 . S
C643 C490 1.523 . S
C647 C358 1.524 . S
C661 C391 1.521 . S
C665 C523 1.525 . S
C679 N401 1.328 . S
C683 N14 1.307 . S
C697 N434 1.321 . S
C701 N47 1.304 . S
C715 N80 1.298 . S
C719 N467 1.321 . S
C733 N500 1.321 . S
C737 N113 1.300 . S
C751 N269 1.321 . S
C755 N146 1.304 . S
C769 N302 1.321 . S
C773 N179 1.298 . S
C787 N212 1.308 . S
C791 N335 1.327 . S
C805 N245 1.301 . S
C809 N368 1.320 . S
C823 N137 1.324 . S
C827 N278 1.297 . S
C841 N170 1.324 . S
C845 N311 1.297 . S
C859 N203 1.323 . S
C863 N344 1.297 . S
C877 N377 1.308 . S
C881 N236 1.327 . S
C895 N5 1.325 . S
C899 N410 1.310 . S
C913 N38 1.323 . S
C917 N443 1.296 . S
C931 N476 1.305 . S
C935 N71 1.321 . S
C949 N104 1.321 . S
C953 N509 1.302 . S
C967 C83 1.368 . S
C971 C17 1.372 . S
C985 C50 1.376 . S
C989 C116 1.368 . S
C1003 C215 1.371 . S
C1007 C149 1.375 . S
C1021 C248 1.368 . S
C1025 C182 1.372 . S
C1039 C347 1.370 . S
C1043 C281 1.375 . S
C1057 C380 1.372 . S
C1061 C314 1.374 . S
C1075 C413 1.375 . S
C1079 C479 1.372 . S
C1093 C512 1.375 . S
C1097 C446 1.367 . S
C1111 C239 1.078 . S
C1115 C8 1.072 . S
C1129 C140 1.069 . S
C1133 C41 1.079 . S
C1147 C173 1.075 . S
C1151 C74 1.077 . S
C1165 C206 1.076 . S
C1169 C107 1.066 . S
C1183 C503 1.068 . S
C1187 C272 1.079 . S
C1201 C404 1.066 . S
C1205 C305 1.078 . S
C1219 C437 1.075 . S
C1223 C338 1.065 . S
C1237 C470 1.076 . S
C1241 C371 1.077 . S
