# Generated by pormake.
# Topology wjf, (4)-cn, num edge types: 1
# Building blocks:
#     Node 0, Type 0, BuildingBlock: GALJAG_clean_sbu_0, # of connection points: 4
#     Node 1, Type 0, BuildingBlock: GALJAG_clean_sbu_0, # of connection points: 4
#     Node 2, Type 0, BuildingBlock: GALJAG_clean_sbu_0, # of connection points: 4
#     Node 3, Type 0, BuildingBlock: GALJAG_clean_sbu_0, # of connection points: 4
#     Node 4, Type 0, BuildingBlock: GALJAG_clean_sbu_0, # of connection points: 4
#     Node 5, Type 0, BuildingBlock: GALJAG_clean_sbu_0, # of connection points: 4
#     Node 6, Type 0, BuildingBlock: GALJAG_clean_sbu_0, # of connection points: 4
#     Node 7, Type 0, BuildingBlock: GALJAG_clean_sbu_0, # of connection points: 4
#     Node 8, Type 0, BuildingBlock: GALJAG_clean_sbu_0, # of connection points: 4
#     Node 9, Type 0, BuildingBlock: GALJAG_clean_sbu_0, # of connection points: 4
#     Node 10, Type 0, BuildingBlock: GALJAG_clean_sbu_0, # of connection points: 4
#     Node 11, Type 0, BuildingBlock: GALJAG_clean_sbu_0, # of connection points: 4
#     Edge 12, Type (0, 0), BuildingBlock: EYOCIG_clean_linker_4, # of connection points: 2
#     Edge 13, Type (0, 0), BuildingBlock: EYOCIG_clean_linker_4, # of connection points: 2
#     Edge 14, Type (0, 0), BuildingBlock: EYOCIG_clean_linker_4, # of connection points: 2
#     Edge 15, Type (0, 0), BuildingBlock: EYOCIG_clean_linker_4, # of connection points: 2
#     Edge 16, Type (0, 0), BuildingBlock: EYOCIG_clean_linker_4, # of connection points: 2
#     Edge 17, Type (0, 0), BuildingBlock: EYOCIG_clean_linker_4, # of connection points: 2
#     Edge 18, Type (0, 0), BuildingBlock: EYOCIG_clean_linker_4, # of connection points: 2
#     Edge 19, Type (0, 0), BuildingBlock: EYOCIG_clean_linker_4, # of connection points: 2
#     Edge 20, Type (0, 0), BuildingBlock: EYOCIG_clean_linker_4, # of connection points: 2
#     Edge 21, Type (0, 0), BuildingBlock: EYOCIG_clean_linker_4, # of connection points: 2
#     Edge 22, Type (0, 0), BuildingBlock: EYOCIG_clean_linker_4, # of connection points: 2
#     Edge 23, Type (0, 0), BuildingBlock: EYOCIG_clean_linker_4, # of connection points: 2
#     Edge 24, Type (0, 0), BuildingBlock: EYOCIG_clean_linker_4, # of connection points: 2
#     Edge 25, Type (0, 0), BuildingBlock: EYOCIG_clean_linker_4, # of connection points: 2
#     Edge 26, Type (0, 0), BuildingBlock: EYOCIG_clean_linker_4, # of connection points: 2
#     Edge 27, Type (0, 0), BuildingBlock: EYOCIG_clean_linker_4, # of connection points: 2
#     Edge 28, Type (0, 0), BuildingBlock: EYOCIG_clean_linker_4, # of connection points: 2
#     Edge 29, Type (0, 0), BuildingBlock: EYOCIG_clean_linker_4, # of connection points: 2
#     Edge 30, Type (0, 0), BuildingBlock: EYOCIG_clean_linker_4, # of connection points: 2
#     Edge 31, Type (0, 0), BuildingBlock: EYOCIG_clean_linker_4, # of connection points: 2
#     Edge 32, Type (0, 0), BuildingBlock: EYOCIG_clean_linker_4, # of connection points: 2
#     Edge 33, Type (0, 0), BuildingBlock: EYOCIG_clean_linker_4, # of connection points: 2
#     Edge 34, Type (0, 0), BuildingBlock: EYOCIG_clean_linker_4, # of connection points: 2
#     Edge 35, Type (0, 0), BuildingBlock: EYOCIG_clean_linker_4, # of connection points: 2
# Relax obj value: 0.086
# Max RMSD: 0.104
# Mean RMSD: 0.104
data_MOF--net-wjf--node1-GALJAG_clean_sbu_0--edge1-EYOCIG_clean_linker_4
_symmetry_space_group_name_H-M    P1
_symmetry_Int_Tables_number       1
_symmetry_cell_setting            triclinic
loop_
_symmetry_equiv_pos_as_xyz
'x, y, z'
_cell_length_a     38.726925
_cell_length_b     38.715048
_cell_length_c     23.051734
_cell_angle_alpha  90.005288
_cell_angle_beta   89.998699
_cell_angle_gamma 120.0052
loop_
_atom_site_label
_atom_site_type_symbol
_atom_site_fract_x
_atom_site_fract_y
_atom_site_fract_z
_atom_type_partial_charge
In0 In 0.34096 0.37249 0.06716 0.0
O1 O 0.30344 0.40146 0.04773 0.0
O2 O 0.27327 0.33796 0.05535 0.0
C3 C 0.41597 0.43278 0.0763 0.0
C4 C 0.34094 0.34525 0.96122 0.0
C5 C 0.33792 0.35023 0.17782 0.0
O6 O 0.38654 0.43842 0.07533 0.0
O7 O 0.40792 0.39709 0.07048 0.0
O8 O 0.34053 0.32985 0.13682 0.0
O9 O 0.33435 0.37957 0.16279 0.0
C10 C 0.27114 0.36867 0.04322 0.0
O11 O 0.33506 0.32336 0.00528 0.0
O12 O 0.34933 0.38057 0.97128 0.0
In13 In 0.97519 0.33754 0.40092 0.0
O14 O 0.01872 0.33289 0.33831 0.0
O15 O 0.97458 0.3459 0.30543 0.0
C16 C 0.99311 0.33346 0.51169 0.0
C17 C 0.90957 0.26702 0.37823 0.0
C18 C 0.99149 0.41308 0.41012 0.0
O19 O 0.01631 0.33582 0.47113 0.0
O20 O 0.9608 0.33108 0.4961 0.0
O21 O 0.9561 0.38412 0.40887 0.0
O22 O 0.0186 0.40426 0.40474 0.0
C23 C 1.00222 0.33868 0.29475 0.0
O24 O 0.90866 0.29916 0.38193 0.0
O25 O 0.94276 0.26982 0.38983 0.0
In26 In 0.64461 0.97205 0.73425 0.0
O27 O 0.61597 0.90555 0.71497 0.0
O28 O 0.67948 0.93929 0.72148 0.0
C29 C 0.58425 0.98671 0.74152 0.0
C30 C 0.67051 0.99946 0.62821 0.0
C31 C 0.66768 0.99195 0.84455 0.0
O32 O 0.57862 0.95161 0.74217 0.0
O33 O 0.61996 0.01428 0.73594 0.0
O34 O 0.68787 0.01455 0.80312 0.0
O35 O 0.6379 0.95915 0.83014 0.0
C36 C 0.64884 0.9063 0.70976 0.0
O37 O 0.69282 0.0158 0.67179 0.0
O38 O 0.63568 0.97178 0.63884 0.0
In39 In 0.67941 0.64149 0.06738 0.0
O40 O 0.68434 0.69044 0.00612 0.0
O41 O 0.67144 0.63383 0.97131 0.0
C42 C 0.68372 0.66436 0.17801 0.0
C43 C 0.74973 0.64576 0.04486 0.0
C44 C 0.60382 0.58208 0.07631 0.0
O45 O 0.68131 0.68484 0.13699 0.0
O46 O 0.68588 0.6342 0.16302 0.0
O47 O 0.63279 0.57568 0.07517 0.0
O48 O 0.61266 0.61802 0.07094 0.0
C49 C 0.67867 0.66885 0.96179 0.0
O50 O 0.71744 0.61284 0.04833 0.0
O51 O 0.74715 0.67627 0.0565 0.0
In52 In 0.04489 0.676 0.40044 0.0
O53 O 0.11137 0.71329 0.38092 0.0
O54 O 0.07833 0.74372 0.38895 0.0
C55 C 0.02983 0.60084 0.40982 0.0
C56 C 0.01717 0.67597 0.29474 0.0
C57 C 0.02701 0.68004 0.51149 0.0
O58 O 0.06496 0.63019 0.40825 0.0
O59 O 1.00228 0.60903 0.40443 0.0
O60 O 1.00362 0.67731 0.47101 0.0
O61 O 0.0595 0.68296 0.4957 0.0
C62 C 0.11114 0.74575 0.37698 0.0
O63 O 1.00128 0.68172 0.33906 0.0
O64 O 0.04434 0.66788 0.3044 0.0
In65 In 0.37547 0.04171 0.73429 0.0
O66 O 0.3275 0.99774 0.67175 0.0
O67 O 0.38447 0.04225 0.63886 0.0
C68 C 0.35281 0.0231 0.84495 0.0
C69 C 0.37012 0.10683 0.71 0.0
C70 C 0.43585 0.02704 0.7416 0.0
O71 O 0.3324 1.00003 0.80402 0.0
O72 O 0.38278 0.05554 0.82984 0.0
O73 O 0.44149 0.06216 0.7419 0.0
O74 O 0.4001 0.99944 0.73643 0.0
C75 C 0.34975 0.01435 0.62819 0.0
O76 O 0.40327 0.10808 0.71464 0.0
O77 O 0.33982 0.07364 0.72196 0.0
In78 In 0.64466 0.67622 0.57405 0.0
O79 O 0.61573 0.71397 0.59224 0.0
O80 O 0.67923 0.74393 0.58538 0.0
C81 C 0.58467 0.60094 0.56672 0.0
C82 C 0.67106 0.67604 0.68045 0.0
C83 C 0.66791 0.68008 0.46359 0.0
O84 O 0.57877 0.63023 0.56643 0.0
O85 O 0.62048 0.60935 0.57208 0.0
O86 O 0.68811 0.67754 0.50492 0.0
O87 O 0.63786 0.68252 0.47819 0.0
C88 C 0.64853 0.74629 0.59646 0.0
O89 O 0.69324 0.68178 0.63678 0.0
O90 O 0.636 0.66818 0.6698 0.0
In91 In 0.97548 0.64152 0.90789 0.0
O92 O 0.90901 0.61308 0.9276 0.0
O93 O 0.94282 0.67653 0.9197 0.0
C94 C 0.99087 0.5816 0.9 0.0
C95 C 1.00292 0.66878 0.01369 0.0
C96 C 0.99499 0.66392 0.79726 0.0
O97 O 0.95562 0.57556 0.90001 0.0
O98 O 0.01817 0.61742 0.90579 0.0
O99 O 0.01775 0.6843 0.83845 0.0
O100 O 0.96215 0.63435 0.81205 0.0
C101 C 0.90987 0.64606 0.93209 0.0
O102 O 0.01897 0.69055 0.96953 0.0
O103 O 0.97569 0.63356 0.00382 0.0
In104 In 0.341 0.97217 0.24065 0.0
O105 O 0.30361 0.90553 0.25988 0.0
O106 O 0.27332 0.93875 0.25299 0.0
C107 C 0.41637 0.98792 0.2311 0.0
C108 C 0.34251 1.00008 0.34647 0.0
C109 C 0.33674 0.99139 0.13041 0.0
O110 O 0.38724 0.95264 0.23199 0.0
O111 O 0.40781 0.01518 0.237 0.0
O112 O 0.33915 0.01405 0.17177 0.0
O113 O 0.33429 0.95886 0.14489 0.0
C114 C 0.27124 0.90586 0.26453 0.0
O115 O 0.33647 0.01612 0.3026 0.0
O116 O 0.3496 0.9723 0.33631 0.0
In117 In 0.37547 0.33734 0.57469 0.0
O118 O 0.40335 0.29882 0.59409 0.0
O119 O 0.33999 0.26959 0.58508 0.0
C120 C 0.43618 0.41226 0.56734 0.0
C121 C 0.34774 0.33771 0.68019 0.0
C122 C 0.35419 0.33453 0.46359 0.0
O123 O 0.44163 0.38267 0.5677 0.0
O124 O 0.4005 0.40432 0.5724 0.0
O125 O 0.33349 0.33715 0.50409 0.0
O126 O 0.38353 0.33118 0.47931 0.0
C127 C 0.37026 0.26672 0.59726 0.0
O128 O 0.32629 0.33227 0.63574 0.0
O129 O 0.38282 0.34516 0.67077 0.0
In130 In 0.04495 0.37236 0.90748 0.0
O131 O 1.00064 0.32372 0.96907 0.0
O132 O 0.04457 0.38043 0.00323 0.0
C133 C 0.02488 0.34932 0.79718 0.0
C134 C 0.11113 0.3685 0.93033 0.0
C135 C 0.03122 0.43335 0.89951 0.0
O136 O 1.00229 0.32917 0.83862 0.0
O137 O 0.05771 0.37902 0.81157 0.0
O138 O 0.06612 0.43853 0.89952 0.0
O139 O 1.00333 0.39779 0.9051 0.0
C140 C 0.01662 0.34561 0.01312 0.0
O141 O 0.11153 0.40125 0.92628 0.0
O142 O 0.07815 0.33778 0.91891 0.0
In143 In 0.67933 0.04169 0.24085 0.0
O144 O 0.71764 0.10801 0.26125 0.0
O145 O 0.74695 0.07389 0.25323 0.0
C146 C 0.60415 0.02645 0.23119 0.0
C147 C 0.67744 0.01355 0.34652 0.0
C148 C 0.68368 0.02386 0.13005 0.0
O149 O 0.63343 0.06165 0.23254 0.0
O150 O 0.61245 0.99898 0.23674 0.0
O151 O 0.68103 1.00054 0.1706 0.0
O152 O 0.68628 0.05627 0.14565 0.0
C153 C 0.74965 0.10694 0.26565 0.0
O154 O 0.68324 0.99733 0.30263 0.0
O155 O 0.67063 0.04154 0.33639 0.0
C156 C 0.34257 0.33983 0.28997 0.0
C157 C 0.3407 0.34244 0.23805 0.0
C158 C 0.34415 0.33838 0.35114 0.0
C159 C 0.34665 0.33686 0.40314 0.0
C160 C 1.00658 0.33614 0.62411 0.0
C161 C 1.00276 0.33509 0.57211 0.0
C162 C 1.00952 0.33765 0.68527 0.0
C163 C 0.01408 0.34075 0.73715 0.0
C164 C 0.67949 0.00734 0.95646 0.0
C165 C 0.67631 1.00275 0.90458 0.0
C166 C 0.68103 0.01034 0.01762 0.0
C167 C 0.68205 0.01419 0.06963 0.0
C168 C 0.68181 0.67653 0.29025 0.0
C169 C 0.68252 0.67316 0.23828 0.0
C170 C 0.68032 0.67801 0.35146 0.0
C171 C 0.67689 0.67877 0.40342 0.0
C172 C 0.01034 0.67514 0.6852 0.0
C173 C 1.00568 0.67214 0.7371 0.0
C174 C 0.01344 0.67678 0.62402 0.0
C175 C 0.01732 0.67806 0.57199 0.0
C176 C 0.3394 1.0063 0.01842 0.0
C177 C 0.33836 1.0019 0.07033 0.0
C178 C 0.34094 0.00928 0.95724 0.0
C179 C 0.34418 0.01323 0.90526 0.0
C180 C 0.17307 0.36522 0.97282 0.0
C181 C 0.14452 0.36614 0.95337 0.0
C182 C 0.20645 0.36523 -0.00174 0.0
C183 C 0.23567 0.36622 0.01884 0.0
C184 C 0.84815 0.20109 0.33619 0.0
C185 C 0.87649 0.23086 0.35545 0.0
C186 C 0.81479 0.16763 0.31078 0.0
C187 C 0.78542 0.13958 0.2901 0.0
C188 C 0.65232 0.8452 0.66419 0.0
C189 C 0.65136 0.87339 0.68504 0.0
C190 C 0.65215 0.81176 0.63867 0.0
C191 C 0.65101 0.78214 0.61936 0.0
C192 C 0.81563 0.65005 0.00311 0.0
C193 C 0.78584 0.64864 0.02223 0.0
C194 C 0.84912 0.65022 0.97766 0.0
C195 C 0.87717 0.64899 0.95679 0.0
C196 C 0.17293 0.81075 0.33368 0.0
C197 C 0.14446 0.78137 0.35351 0.0
C198 C 0.20636 0.84415 0.30834 0.0
C199 C 0.23571 0.87255 0.2883 0.0
C200 C 0.36549 0.16745 0.66516 0.0
C201 C 0.3669 0.13943 0.6857 0.0
C202 C 0.36554 0.20084 0.63969 0.0
C203 C 0.36698 0.23055 0.62023 0.0
C204 C 0.32895 0.32839 0.79016 0.0
C205 C 0.33311 0.33181 0.73838 0.0
C206 C 0.33048 0.32692 0.85108 0.0
C207 C 0.33431 0.33092 0.90284 0.0
C208 C 0.01032 0.33029 0.1842 0.0
C209 C 0.0103 0.33331 0.23607 0.0
C210 C 1.00681 0.32851 0.12342 0.0
C211 C 1.00752 0.33177 0.07154 0.0
C212 C 0.68676 0.00781 0.51765 0.0
C213 C 0.68388 0.00772 0.56954 0.0
C214 C 0.68491 1.0042 0.45689 0.0
C215 C 0.68226 1.0047 0.40502 0.0
C216 C 0.68834 0.68573 0.79088 0.0
C217 C 0.68482 0.68219 0.73906 0.0
C218 C 0.68682 0.68723 0.85176 0.0
C219 C 0.6839 0.68322 0.90356 0.0
C220 C 1.00848 0.68586 0.18469 0.0
C221 C 1.00894 0.68226 0.23646 0.0
C222 C 0.01148 0.6873 0.12377 0.0
C223 C 0.01104 0.6832 0.07201 0.0
C224 C 0.3352 0.00961 0.45685 0.0
C225 C 0.33773 0.00898 0.40497 0.0
C226 C 0.33345 1.00607 0.51762 0.0
C227 C 0.33639 1.00612 0.5695 0.0
C228 C 0.48979 0.49203 0.08811 0.0
C229 C 0.4561 0.46495 0.08271 0.0
C230 C 0.52947 0.52386 0.08805 0.0
C231 C 0.56338 0.55053 0.08268 0.0
C232 C 0.01519 0.52701 0.42211 0.0
C233 C 0.02177 0.56069 0.41649 0.0
C234 C 1.00745 0.48737 0.42212 0.0
C235 C 1.00035 0.45351 0.41663 0.0
C236 C 0.52559 1.0024 0.74962 0.0
C237 C 0.55214 0.99487 0.74596 0.0
C238 C 0.49455 0.01138 0.74963 0.0
C239 C 0.46798 0.01889 0.746 0.0
C240 C 0.52622 0.52647 0.55821 0.0
C241 C 0.55274 0.56056 0.56207 0.0
C242 C 0.4951 0.48646 0.55829 0.0
C243 C 0.46845 0.45245 0.56239 0.0
C244 C 1.00739 0.52357 0.89002 0.0
C245 C 0.99953 0.54985 0.89455 0.0
C246 C 0.01641 0.49254 0.88994 0.0
C247 C 0.02361 0.4658 0.89427 0.0
C248 C 0.53018 0.01136 0.21891 0.0
C249 C 0.56392 0.01817 0.22452 0.0
C250 C 0.49051 1.00353 0.2189 0.0
C251 C 0.45669 0.99652 0.22448 0.0
loop_
_geom_bond_atom_site_label_1
_geom_bond_atom_site_label_2
_geom_bond_distance
_geom_bond_site_symmetry_2
_ccdc_geom_bond_type
In0 O1 2.294 . S
In0 O2 2.326 . S
In0 O6 2.266 . S
In0 O7 2.326 . S
In0 O8 2.266 . S
In0 O9 2.326 . S
In0 O11 2.294 . S
In0 O12 2.326 1_554 S
O1 In0 2.294 . S
O1 C10 1.240 . S
O2 In0 2.326 . S
O2 C10 1.252 . S
C3 O6 1.252 . S
C3 O7 1.260 . S
C4 O11 1.240 1_556 S
C4 O12 1.252 . S
C5 O8 1.252 . S
C5 O9 1.260 . S
O6 In0 2.266 . S
O6 C3 1.252 . S
O7 In0 2.326 . S
O7 C3 1.260 . S
O8 In0 2.266 . S
O8 C5 1.252 . S
O9 In0 2.326 . S
O9 C5 1.260 . S
C10 O1 1.240 . S
C10 O2 1.252 . S
O11 In0 2.294 . S
O11 C4 1.240 1_554 S
O12 In0 2.326 1_556 S
O12 C4 1.252 . S
In13 O14 2.294 1_655 S
In13 O15 2.326 . S
In13 O19 2.266 1_655 S
In13 O20 2.326 . S
In13 O21 2.266 . S
In13 O22 2.326 1_655 S
In13 O24 2.294 . S
In13 O25 2.326 . S
O14 In13 2.294 1_455 S
O14 C23 1.240 1_455 S
O15 In13 2.326 . S
O15 C23 1.252 . S
C16 O19 1.252 1_655 S
C16 O20 1.260 . S
C17 O24 1.240 . S
C17 O25 1.252 . S
C18 O21 1.252 . S
C18 O22 1.260 1_655 S
O19 In13 2.266 1_455 S
O19 C16 1.252 1_455 S
O20 In13 2.326 . S
O20 C16 1.260 . S
O21 In13 2.266 . S
O21 C18 1.252 . S
O22 In13 2.326 1_455 S
O22 C18 1.260 1_455 S
C23 O14 1.240 1_655 S
C23 O15 1.252 . S
O24 In13 2.294 . S
O24 C17 1.240 . S
O25 In13 2.326 . S
O25 C17 1.252 . S
In26 O27 2.294 . S
In26 O28 2.326 . S
In26 O32 2.266 . S
In26 O33 2.326 1_565 S
In26 O34 2.266 1_565 S
In26 O35 2.326 . S
In26 O37 2.294 1_565 S
In26 O38 2.326 . S
O27 In26 2.294 . S
O27 C36 1.240 . S
O28 In26 2.326 . S
O28 C36 1.252 . S
C29 O32 1.252 . S
C29 O33 1.260 1_565 S
C30 O37 1.240 1_565 S
C30 O38 1.252 . S
C31 O34 1.252 1_565 S
C31 O35 1.260 . S
O32 In26 2.266 . S
O32 C29 1.252 . S
O33 In26 2.326 1_545 S
O33 C29 1.260 1_545 S
O34 In26 2.266 1_545 S
O34 C31 1.252 1_545 S
O35 In26 2.326 . S
O35 C31 1.260 . S
C36 O27 1.240 . S
C36 O28 1.252 . S
O37 In26 2.294 1_545 S
O37 C30 1.240 1_545 S
O38 In26 2.326 . S
O38 C30 1.252 . S
In39 O40 2.294 . S
In39 O41 2.326 1_554 S
In39 O45 2.266 . S
In39 O46 2.326 . S
In39 O47 2.266 . S
In39 O48 2.326 . S
In39 O50 2.294 . S
In39 O51 2.326 . S
O40 In39 2.294 . S
O40 C49 1.240 1_554 S
O41 In39 2.326 1_556 S
O41 C49 1.252 . S
C42 O45 1.252 . S
C42 O46 1.260 . S
C43 O50 1.240 . S
C43 O51 1.252 . S
C44 O47 1.252 . S
C44 O48 1.260 . S
O45 In39 2.266 . S
O45 C42 1.252 . S
O46 In39 2.326 . S
O46 C42 1.260 . S
O47 In39 2.266 . S
O47 C44 1.252 . S
O48 In39 2.326 . S
O48 C44 1.260 . S
C49 O40 1.240 1_556 S
C49 O41 1.252 . S
O50 In39 2.294 . S
O50 C43 1.240 . S
O51 In39 2.326 . S
O51 C43 1.252 . S
In52 O53 2.294 . S
In52 O54 2.326 . S
In52 O58 2.266 . S
In52 O59 2.326 1_455 S
In52 O60 2.266 1_455 S
In52 O61 2.326 . S
In52 O63 2.294 1_455 S
In52 O64 2.326 . S
O53 In52 2.294 . S
O53 C62 1.240 . S
O54 In52 2.326 . S
O54 C62 1.252 . S
C55 O58 1.252 . S
C55 O59 1.260 1_455 S
C56 O63 1.240 1_455 S
C56 O64 1.252 . S
C57 O60 1.252 1_455 S
C57 O61 1.260 . S
O58 In52 2.266 . S
O58 C55 1.252 . S
O59 In52 2.326 1_655 S
O59 C55 1.260 1_655 S
O60 In52 2.266 1_655 S
O60 C57 1.252 1_655 S
O61 In52 2.326 . S
O61 C57 1.260 . S
C62 O53 1.240 . S
C62 O54 1.252 . S
O63 In52 2.294 1_655 S
O63 C56 1.240 1_655 S
O64 In52 2.326 . S
O64 C56 1.252 . S
In65 O66 2.294 1_545 S
In65 O67 2.326 . S
In65 O71 2.266 1_545 S
In65 O72 2.326 . S
In65 O73 2.266 . S
In65 O74 2.326 1_545 S
In65 O76 2.294 . S
In65 O77 2.326 . S
O66 In65 2.294 1_565 S
O66 C75 1.240 1_565 S
O67 In65 2.326 . S
O67 C75 1.252 . S
C68 O71 1.252 1_545 S
C68 O72 1.260 . S
C69 O76 1.240 . S
C69 O77 1.252 . S
C70 O73 1.252 . S
C70 O74 1.260 1_545 S
O71 In65 2.266 1_565 S
O71 C68 1.252 1_565 S
O72 In65 2.326 . S
O72 C68 1.260 . S
O73 In65 2.266 . S
O73 C70 1.252 . S
O74 In65 2.326 1_565 S
O74 C70 1.260 1_565 S
C75 O66 1.240 1_545 S
C75 O67 1.252 . S
O76 In65 2.294 . S
O76 C69 1.240 . S
O77 In65 2.326 . S
O77 C69 1.252 . S
In78 O79 2.294 . S
In78 O80 2.326 . S
In78 O84 2.266 . S
In78 O85 2.326 . S
In78 O86 2.266 . S
In78 O87 2.326 . S
In78 O89 2.294 . S
In78 O90 2.326 . S
O79 In78 2.294 . S
O79 C88 1.240 . S
O80 In78 2.326 . S
O80 C88 1.252 . S
C81 O84 1.252 . S
C81 O85 1.260 . S
C82 O89 1.240 . S
C82 O90 1.252 . S
C83 O86 1.252 . S
C83 O87 1.260 . S
O84 In78 2.266 . S
O84 C81 1.252 . S
O85 In78 2.326 . S
O85 C81 1.260 . S
O86 In78 2.266 . S
O86 C83 1.252 . S
O87 In78 2.326 . S
O87 C83 1.260 . S
C88 O79 1.240 . S
C88 O80 1.252 . S
O89 In78 2.294 . S
O89 C82 1.240 . S
O90 In78 2.326 . S
O90 C82 1.252 . S
In91 O92 2.294 . S
In91 O93 2.326 . S
In91 O97 2.266 . S
In91 O98 2.326 1_655 S
In91 O99 2.266 1_655 S
In91 O100 2.326 . S
In91 O102 2.294 1_655 S
In91 O103 2.326 1_556 S
O92 In91 2.294 . S
O92 C101 1.240 . S
O93 In91 2.326 . S
O93 C101 1.252 . S
C94 O97 1.252 . S
C94 O98 1.260 1_655 S
C95 O102 1.240 1_654 S
C95 O103 1.252 . S
C96 O99 1.252 1_655 S
C96 O100 1.260 . S
O97 In91 2.266 . S
O97 C94 1.252 . S
O98 In91 2.326 1_455 S
O98 C94 1.260 1_455 S
O99 In91 2.266 1_455 S
O99 C96 1.252 1_455 S
O100 In91 2.326 . S
O100 C96 1.260 . S
C101 O92 1.240 . S
C101 O93 1.252 . S
O102 In91 2.294 1_455 S
O102 C95 1.240 1_456 S
O103 In91 2.326 1_554 S
O103 C95 1.252 . S
In104 O105 2.294 . S
In104 O106 2.326 . S
In104 O110 2.266 . S
In104 O111 2.326 1_565 S
In104 O112 2.266 1_565 S
In104 O113 2.326 . S
In104 O115 2.294 1_565 S
In104 O116 2.326 . S
O105 In104 2.294 . S
O105 C114 1.240 . S
O106 In104 2.326 . S
O106 C114 1.252 . S
C107 O110 1.252 . S
C107 O111 1.260 1_565 S
C108 O115 1.240 1_565 S
C108 O116 1.252 . S
C109 O112 1.252 1_565 S
C109 O113 1.260 . S
O110 In104 2.266 . S
O110 C107 1.252 . S
O111 In104 2.326 1_545 S
O111 C107 1.260 1_545 S
O112 In104 2.266 1_545 S
O112 C109 1.252 1_545 S
O113 In104 2.326 . S
O113 C109 1.260 . S
C114 O105 1.240 . S
C114 O106 1.252 . S
O115 In104 2.294 1_545 S
O115 C108 1.240 1_545 S
O116 In104 2.326 . S
O116 C108 1.252 . S
In117 O118 2.294 . S
In117 O119 2.326 . S
In117 O123 2.266 . S
In117 O124 2.326 . S
In117 O125 2.266 . S
In117 O126 2.326 . S
In117 O128 2.294 . S
In117 O129 2.326 . S
O118 In117 2.294 . S
O118 C127 1.240 . S
O119 In117 2.326 . S
O119 C127 1.252 . S
C120 O123 1.252 . S
C120 O124 1.260 . S
C121 O128 1.240 . S
C121 O129 1.252 . S
C122 O125 1.252 . S
C122 O126 1.260 . S
O123 In117 2.266 . S
O123 C120 1.252 . S
O124 In117 2.326 . S
O124 C120 1.260 . S
O125 In117 2.266 . S
O125 C122 1.252 . S
O126 In117 2.326 . S
O126 C122 1.260 . S
C127 O118 1.240 . S
C127 O119 1.252 . S
O128 In117 2.294 . S
O128 C121 1.240 . S
O129 In117 2.326 . S
O129 C121 1.252 . S
In130 O131 2.294 1_455 S
In130 O132 2.326 1_556 S
In130 O136 2.266 1_455 S
In130 O137 2.326 . S
In130 O138 2.266 . S
In130 O139 2.326 1_455 S
In130 O141 2.294 . S
In130 O142 2.326 . S
O131 In130 2.294 1_655 S
O131 C140 1.240 1_656 S
O132 In130 2.326 1_554 S
O132 C140 1.252 . S
C133 O136 1.252 1_455 S
C133 O137 1.260 . S
C134 O141 1.240 . S
C134 O142 1.252 . S
C135 O138 1.252 . S
C135 O139 1.260 1_455 S
O136 In130 2.266 1_655 S
O136 C133 1.252 1_655 S
O137 In130 2.326 . S
O137 C133 1.260 . S
O138 In130 2.266 . S
O138 C135 1.252 . S
O139 In130 2.326 1_655 S
O139 C135 1.260 1_655 S
C140 O131 1.240 1_454 S
C140 O132 1.252 . S
O141 In130 2.294 . S
O141 C134 1.240 . S
O142 In130 2.326 . S
O142 C134 1.252 . S
In143 O144 2.294 . S
In143 O145 2.326 . S
In143 O149 2.266 . S
In143 O150 2.326 1_545 S
In143 O151 2.266 1_545 S
In143 O152 2.326 . S
In143 O154 2.294 1_545 S
In143 O155 2.326 . S
O144 In143 2.294 . S
O144 C153 1.240 . S
O145 In143 2.326 . S
O145 C153 1.252 . S
C146 O149 1.252 . S
C146 O150 1.260 1_545 S
C147 O154 1.240 1_545 S
C147 O155 1.252 . S
C148 O151 1.252 1_545 S
C148 O152 1.260 . S
O149 In143 2.266 . S
O149 C146 1.252 . S
O150 In143 2.326 1_565 S
O150 C146 1.260 1_565 S
O151 In143 2.266 1_565 S
O151 C148 1.252 1_565 S
O152 In143 2.326 . S
O152 C148 1.260 . S
C153 O144 1.240 . S
C153 O145 1.252 . S
O154 In143 2.294 1_565 S
O154 C147 1.240 1_565 S
O155 In143 2.326 . S
O155 C147 1.252 . S
C156 C157 1.170 . S
C156 C158 1.380 . S
C157 C156 1.170 . S
C158 C156 1.380 . S
C158 C159 1.170 . S
C159 C158 1.170 . S
C160 C161 1.170 . S
C160 C162 1.380 . S
C161 C160 1.170 . S
C162 C160 1.380 . S
C162 C163 1.170 1_655 S
C163 C162 1.170 1_455 S
C164 C165 1.170 1_545 S
C164 C166 1.380 1_556 S
C165 C164 1.170 1_565 S
C166 C164 1.380 1_554 S
C166 C167 1.170 . S
C167 C166 1.170 . S
C168 C169 1.170 . S
C168 C170 1.380 . S
C169 C168 1.170 . S
C170 C168 1.380 . S
C170 C171 1.170 . S
C171 C170 1.170 . S
C172 C173 1.170 1_455 S
C172 C174 1.380 . S
C173 C172 1.170 1_655 S
C174 C172 1.380 . S
C174 C175 1.170 . S
C175 C174 1.170 . S
C176 C177 1.168 1_545 S
C176 C178 1.382 1_554 S
C177 C176 1.168 1_565 S
C178 C176 1.382 1_556 S
C178 C179 1.170 . S
C179 C178 1.170 . S
C180 C181 1.170 . S
C180 C182 1.380 1_556 S
C181 C180 1.170 . S
C182 C180 1.380 1_554 S
C182 C183 1.170 . S
C183 C182 1.170 . S
C184 C185 1.170 . S
C184 C186 1.380 . S
C185 C184 1.170 . S
C186 C184 1.380 . S
C186 C187 1.170 . S
C187 C186 1.170 . S
C188 C189 1.170 . S
C188 C190 1.380 . S
C189 C188 1.170 . S
C190 C188 1.380 . S
C190 C191 1.170 . S
C191 C190 1.170 . S
C192 C193 1.170 . S
C192 C194 1.380 1_554 S
C193 C192 1.170 . S
C194 C192 1.380 1_556 S
C194 C195 1.170 . S
C195 C194 1.170 . S
C196 C197 1.170 . S
C196 C198 1.380 . S
C197 C196 1.170 . S
C198 C196 1.380 . S
C198 C199 1.170 . S
C199 C198 1.170 . S
C200 C201 1.170 . S
C200 C202 1.380 . S
C201 C200 1.170 . S
C202 C200 1.380 . S
C202 C203 1.170 . S
C203 C202 1.170 . S
C204 C205 1.170 . S
C204 C206 1.380 . S
C205 C204 1.170 . S
C206 C204 1.380 . S
C206 C207 1.170 . S
C207 C206 1.170 . S
C208 C209 1.172 . S
C208 C210 1.380 . S
C209 C208 1.172 . S
C210 C208 1.380 . S
C210 C211 1.170 . S
C211 C210 1.170 . S
C212 C213 1.170 1_565 S
C212 C214 1.380 . S
C213 C212 1.170 1_545 S
C214 C212 1.380 . S
C214 C215 1.170 . S
C215 C214 1.170 . S
C216 C217 1.170 . S
C216 C218 1.380 . S
C217 C216 1.170 . S
C218 C216 1.380 . S
C218 C219 1.170 . S
C219 C218 1.170 . S
C220 C221 1.169 . S
C220 C222 1.380 . S
C221 C220 1.169 . S
C222 C220 1.380 . S
C222 C223 1.170 . S
C223 C222 1.170 . S
C224 C225 1.170 . S
C224 C226 1.380 . S
C225 C224 1.170 . S
C226 C224 1.380 . S
C226 C227 1.170 . S
C227 C226 1.170 . S
C228 C229 1.170 . S
C228 C230 1.380 . S
C229 C228 1.170 . S
C230 C228 1.380 . S
C230 C231 1.170 . S
C231 C230 1.170 . S
C232 C233 1.170 . S
C232 C234 1.380 1_455 S
C233 C232 1.170 . S
C234 C232 1.380 1_655 S
C234 C235 1.170 . S
C235 C234 1.170 . S
C236 C237 1.170 . S
C236 C238 1.380 1_565 S
C237 C236 1.170 . S
C238 C236 1.380 1_545 S
C238 C239 1.170 . S
C239 C238 1.170 . S
C240 C241 1.170 . S
C240 C242 1.380 . S
C241 C240 1.170 . S
C242 C240 1.380 . S
C242 C243 1.170 . S
C243 C242 1.170 . S
C244 C245 1.182 . S
C244 C246 1.369 1_655 S
C245 C244 1.182 . S
C246 C244 1.369 1_455 S
C246 C247 1.170 . S
C247 C246 1.170 . S
C248 C249 1.170 . S
C248 C250 1.380 1_545 S
C249 C248 1.170 . S
C250 C248 1.380 1_565 S
C250 C251 1.170 . S
C251 C250 1.170 . S
C157 C5 1.438 . S
C159 C122 1.430 . S
C161 C16 1.436 . S
C163 C133 1.450 . S
C165 C31 1.451 . S
C167 C148 1.437 . S
C169 C42 1.451 . S
C171 C83 1.454 . S
C173 C96 1.445 . S
C175 C57 1.432 . S
C177 C109 1.455 . S
C179 C68 1.447 . S
C181 C134 1.602 . S
C183 C10 1.590 . S
C185 C17 1.610 . S
C187 C153 1.594 . S
C189 C36 1.589 . S
C191 C88 1.605 . S
C193 C43 1.609 . S
C195 C101 1.592 . S
C197 C62 1.595 . S
C199 C114 1.594 . S
C201 C69 1.598 . S
C203 C127 1.609 . S
C205 C121 1.237 . S
C207 C4 1.216 . S
C209 C23 1.212 . S
C211 C140 1.234 1_655 S
C213 C30 1.212 1_545 S
C215 C147 1.227 1_565 S
C217 C82 1.205 . S
C219 C49 1.243 . S
C221 C56 1.232 1_655 S
C223 C95 1.226 . S
C225 C108 1.229 1_545 S
C227 C75 1.210 . S
C229 C3 1.597 . S
C231 C44 1.593 . S
C233 C55 1.597 . S
C235 C18 1.594 . S
C237 C29 1.588 . S
C239 C70 1.588 . S
C241 C81 1.588 . S
C243 C120 1.590 . S
C245 C94 1.589 . S
C247 C135 1.593 . S
C249 C146 1.597 . S
C251 C107 1.596 . S
