# Generated by pormake.
# Topology som, (6)-cn, num edge types: 1
# Building blocks:
#     Node 0, Type 0, BuildingBlock: BETFEN_clean_sbu_0, # of connection points: 6
#     Node 1, Type 0, BuildingBlock: BETFEN_clean_sbu_0, # of connection points: 6
#     Node 2, Type 0, BuildingBlock: BETFEN_clean_sbu_0, # of connection points: 6
#     Node 3, Type 0, BuildingBlock: BETFEN_clean_sbu_0, # of connection points: 6
#     Node 4, Type 0, BuildingBlock: BETFEN_clean_sbu_0, # of connection points: 6
#     Node 5, Type 0, BuildingBlock: BETFEN_clean_sbu_0, # of connection points: 6
#     Node 6, Type 0, BuildingBlock: BETFEN_clean_sbu_0, # of connection points: 6
#     Node 7, Type 0, BuildingBlock: BETFEN_clean_sbu_0, # of connection points: 6
#     Node 8, Type 0, BuildingBlock: BETFEN_clean_sbu_0, # of connection points: 6
#     Node 9, Type 0, BuildingBlock: BETFEN_clean_sbu_0, # of connection points: 6
#     Node 10, Type 0, BuildingBlock: BETFEN_clean_sbu_0, # of connection points: 6
#     Node 11, Type 0, BuildingBlock: BETFEN_clean_sbu_0, # of connection points: 6
#     Node 12, Type 0, BuildingBlock: BETFEN_clean_sbu_0, # of connection points: 6
#     Node 13, Type 0, BuildingBlock: BETFEN_clean_sbu_0, # of connection points: 6
#     Node 14, Type 0, BuildingBlock: BETFEN_clean_sbu_0, # of connection points: 6
#     Node 15, Type 0, BuildingBlock: BETFEN_clean_sbu_0, # of connection points: 6
#     Node 16, Type 0, BuildingBlock: BETFEN_clean_sbu_0, # of connection points: 6
#     Node 17, Type 0, BuildingBlock: BETFEN_clean_sbu_0, # of connection points: 6
#     Node 18, Type 0, BuildingBlock: BETFEN_clean_sbu_0, # of connection points: 6
#     Node 19, Type 0, BuildingBlock: BETFEN_clean_sbu_0, # of connection points: 6
#     Node 20, Type 0, BuildingBlock: BETFEN_clean_sbu_0, # of connection points: 6
#     Node 21, Type 0, BuildingBlock: BETFEN_clean_sbu_0, # of connection points: 6
#     Node 22, Type 0, BuildingBlock: BETFEN_clean_sbu_0, # of connection points: 6
#     Node 23, Type 0, BuildingBlock: BETFEN_clean_sbu_0, # of connection points: 6
#     Node 24, Type 0, BuildingBlock: BETFEN_clean_sbu_0, # of connection points: 6
#     Node 25, Type 0, BuildingBlock: BETFEN_clean_sbu_0, # of connection points: 6
#     Node 26, Type 0, BuildingBlock: BETFEN_clean_sbu_0, # of connection points: 6
#     Node 27, Type 0, BuildingBlock: BETFEN_clean_sbu_0, # of connection points: 6
#     Node 28, Type 0, BuildingBlock: BETFEN_clean_sbu_0, # of connection points: 6
#     Node 29, Type 0, BuildingBlock: BETFEN_clean_sbu_0, # of connection points: 6
#     Node 30, Type 0, BuildingBlock: BETFEN_clean_sbu_0, # of connection points: 6
#     Node 31, Type 0, BuildingBlock: BETFEN_clean_sbu_0, # of connection points: 6
#     Edge 32, Type (0, 0), BuildingBlock: XUDNAN_clean_linker_2, # of connection points: 2
#     Edge 33, Type (0, 0), BuildingBlock: XUDNAN_clean_linker_2, # of connection points: 2
#     Edge 34, Type (0, 0), BuildingBlock: XUDNAN_clean_linker_2, # of connection points: 2
#     Edge 35, Type (0, 0), BuildingBlock: XUDNAN_clean_linker_2, # of connection points: 2
#     Edge 36, Type (0, 0), BuildingBlock: XUDNAN_clean_linker_2, # of connection points: 2
#     Edge 37, Type (0, 0), BuildingBlock: XUDNAN_clean_linker_2, # of connection points: 2
#     Edge 38, Type (0, 0), BuildingBlock: XUDNAN_clean_linker_2, # of connection points: 2
#     Edge 39, Type (0, 0), BuildingBlock: XUDNAN_clean_linker_2, # of connection points: 2
#     Edge 40, Type (0, 0), BuildingBlock: XUDNAN_clean_linker_2, # of connection points: 2
#     Edge 41, Type (0, 0), BuildingBlock: XUDNAN_clean_linker_2, # of connection points: 2
#     Edge 42, Type (0, 0), BuildingBlock: XUDNAN_clean_linker_2, # of connection points: 2
#     Edge 43, Type (0, 0), BuildingBlock: XUDNAN_clean_linker_2, # of connection points: 2
#     Edge 44, Type (0, 0), BuildingBlock: XUDNAN_clean_linker_2, # of connection points: 2
#     Edge 45, Type (0, 0), BuildingBlock: XUDNAN_clean_linker_2, # of connection points: 2
#     Edge 46, Type (0, 0), BuildingBlock: XUDNAN_clean_linker_2, # of connection points: 2
#     Edge 47, Type (0, 0), BuildingBlock: XUDNAN_clean_linker_2, # of connection points: 2
#     Edge 48, Type (0, 0), BuildingBlock: XUDNAN_clean_linker_2, # of connection points: 2
#     Edge 49, Type (0, 0), BuildingBlock: XUDNAN_clean_linker_2, # of connection points: 2
#     Edge 50, Type (0, 0), BuildingBlock: XUDNAN_clean_linker_2, # of connection points: 2
#     Edge 51, Type (0, 0), BuildingBlock: XUDNAN_clean_linker_2, # of connection points: 2
#     Edge 52, Type (0, 0), BuildingBlock: XUDNAN_clean_linker_2, # of connection points: 2
#     Edge 53, Type (0, 0), BuildingBlock: XUDNAN_clean_linker_2, # of connection points: 2
#     Edge 54, Type (0, 0), BuildingBlock: XUDNAN_clean_linker_2, # of connection points: 2
#     Edge 55, Type (0, 0), BuildingBlock: XUDNAN_clean_linker_2, # of connection points: 2
#     Edge 56, Type (0, 0), BuildingBlock: XUDNAN_clean_linker_2, # of connection points: 2
#     Edge 57, Type (0, 0), BuildingBlock: XUDNAN_clean_linker_2, # of connection points: 2
#     Edge 58, Type (0, 0), BuildingBlock: XUDNAN_clean_linker_2, # of connection points: 2
#     Edge 59, Type (0, 0), BuildingBlock: XUDNAN_clean_linker_2, # of connection points: 2
#     Edge 60, Type (0, 0), BuildingBlock: XUDNAN_clean_linker_2, # of connection points: 2
#     Edge 61, Type (0, 0), BuildingBlock: XUDNAN_clean_linker_2, # of connection points: 2
#     Edge 62, Type (0, 0), BuildingBlock: XUDNAN_clean_linker_2, # of connection points: 2
#     Edge 63, Type (0, 0), BuildingBlock: XUDNAN_clean_linker_2, # of connection points: 2
#     Edge 64, Type (0, 0), BuildingBlock: XUDNAN_clean_linker_2, # of connection points: 2
#     Edge 65, Type (0, 0), BuildingBlock: XUDNAN_clean_linker_2, # of connection points: 2
#     Edge 66, Type (0, 0), BuildingBlock: XUDNAN_clean_linker_2, # of connection points: 2
#     Edge 67, Type (0, 0), BuildingBlock: XUDNAN_clean_linker_2, # of connection points: 2
#     Edge 68, Type (0, 0), BuildingBlock: XUDNAN_clean_linker_2, # of connection points: 2
#     Edge 69, Type (0, 0), BuildingBlock: XUDNAN_clean_linker_2, # of connection points: 2
#     Edge 70, Type (0, 0), BuildingBlock: XUDNAN_clean_linker_2, # of connection points: 2
#     Edge 71, Type (0, 0), BuildingBlock: XUDNAN_clean_linker_2, # of connection points: 2
#     Edge 72, Type (0, 0), BuildingBlock: XUDNAN_clean_linker_2, # of connection points: 2
#     Edge 73, Type (0, 0), BuildingBlock: XUDNAN_clean_linker_2, # of connection points: 2
#     Edge 74, Type (0, 0), BuildingBlock: XUDNAN_clean_linker_2, # of connection points: 2
#     Edge 75, Type (0, 0), BuildingBlock: XUDNAN_clean_linker_2, # of connection points: 2
#     Edge 76, Type (0, 0), BuildingBlock: XUDNAN_clean_linker_2, # of connection points: 2
#     Edge 77, Type (0, 0), BuildingBlock: XUDNAN_clean_linker_2, # of connection points: 2
#     Edge 78, Type (0, 0), BuildingBlock: XUDNAN_clean_linker_2, # of connection points: 2
#     Edge 79, Type (0, 0), BuildingBlock: XUDNAN_clean_linker_2, # of connection points: 2
#     Edge 80, Type (0, 0), BuildingBlock: XUDNAN_clean_linker_2, # of connection points: 2
#     Edge 81, Type (0, 0), BuildingBlock: XUDNAN_clean_linker_2, # of connection points: 2
#     Edge 82, Type (0, 0), BuildingBlock: XUDNAN_clean_linker_2, # of connection points: 2
#     Edge 83, Type (0, 0), BuildingBlock: XUDNAN_clean_linker_2, # of connection points: 2
#     Edge 84, Type (0, 0), BuildingBlock: XUDNAN_clean_linker_2, # of connection points: 2
#     Edge 85, Type (0, 0), BuildingBlock: XUDNAN_clean_linker_2, # of connection points: 2
#     Edge 86, Type (0, 0), BuildingBlock: XUDNAN_clean_linker_2, # of connection points: 2
#     Edge 87, Type (0, 0), BuildingBlock: XUDNAN_clean_linker_2, # of connection points: 2
#     Edge 88, Type (0, 0), BuildingBlock: XUDNAN_clean_linker_2, # of connection points: 2
#     Edge 89, Type (0, 0), BuildingBlock: XUDNAN_clean_linker_2, # of connection points: 2
#     Edge 90, Type (0, 0), BuildingBlock: XUDNAN_clean_linker_2, # of connection points: 2
#     Edge 91, Type (0, 0), BuildingBlock: XUDNAN_clean_linker_2, # of connection points: 2
#     Edge 92, Type (0, 0), BuildingBlock: XUDNAN_clean_linker_2, # of connection points: 2
#     Edge 93, Type (0, 0), BuildingBlock: XUDNAN_clean_linker_2, # of connection points: 2
#     Edge 94, Type (0, 0), BuildingBlock: XUDNAN_clean_linker_2, # of connection points: 2
#     Edge 95, Type (0, 0), BuildingBlock: XUDNAN_clean_linker_2, # of connection points: 2
#     Edge 96, Type (0, 0), BuildingBlock: XUDNAN_clean_linker_2, # of connection points: 2
#     Edge 97, Type (0, 0), BuildingBlock: XUDNAN_clean_linker_2, # of connection points: 2
#     Edge 98, Type (0, 0), BuildingBlock: XUDNAN_clean_linker_2, # of connection points: 2
#     Edge 99, Type (0, 0), BuildingBlock: XUDNAN_clean_linker_2, # of connection points: 2
#     Edge 100, Type (0, 0), BuildingBlock: XUDNAN_clean_linker_2, # of connection points: 2
#     Edge 101, Type (0, 0), BuildingBlock: XUDNAN_clean_linker_2, # of connection points: 2
#     Edge 102, Type (0, 0), BuildingBlock: XUDNAN_clean_linker_2, # of connection points: 2
#     Edge 103, Type (0, 0), BuildingBlock: XUDNAN_clean_linker_2, # of connection points: 2
#     Edge 104, Type (0, 0), BuildingBlock: XUDNAN_clean_linker_2, # of connection points: 2
#     Edge 105, Type (0, 0), BuildingBlock: XUDNAN_clean_linker_2, # of connection points: 2
#     Edge 106, Type (0, 0), BuildingBlock: XUDNAN_clean_linker_2, # of connection points: 2
#     Edge 107, Type (0, 0), BuildingBlock: XUDNAN_clean_linker_2, # of connection points: 2
#     Edge 108, Type (0, 0), BuildingBlock: XUDNAN_clean_linker_2, # of connection points: 2
#     Edge 109, Type (0, 0), BuildingBlock: XUDNAN_clean_linker_2, # of connection points: 2
#     Edge 110, Type (0, 0), BuildingBlock: XUDNAN_clean_linker_2, # of connection points: 2
#     Edge 111, Type (0, 0), BuildingBlock: XUDNAN_clean_linker_2, # of connection points: 2
#     Edge 112, Type (0, 0), BuildingBlock: XUDNAN_clean_linker_2, # of connection points: 2
#     Edge 113, Type (0, 0), BuildingBlock: XUDNAN_clean_linker_2, # of connection points: 2
#     Edge 114, Type (0, 0), BuildingBlock: XUDNAN_clean_linker_2, # of connection points: 2
#     Edge 115, Type (0, 0), BuildingBlock: XUDNAN_clean_linker_2, # of connection points: 2
#     Edge 116, Type (0, 0), BuildingBlock: XUDNAN_clean_linker_2, # of connection points: 2
#     Edge 117, Type (0, 0), BuildingBlock: XUDNAN_clean_linker_2, # of connection points: 2
#     Edge 118, Type (0, 0), BuildingBlock: XUDNAN_clean_linker_2, # of connection points: 2
#     Edge 119, Type (0, 0), BuildingBlock: XUDNAN_clean_linker_2, # of connection points: 2
#     Edge 120, Type (0, 0), BuildingBlock: XUDNAN_clean_linker_2, # of connection points: 2
#     Edge 121, Type (0, 0), BuildingBlock: XUDNAN_clean_linker_2, # of connection points: 2
#     Edge 122, Type (0, 0), BuildingBlock: XUDNAN_clean_linker_2, # of connection points: 2
#     Edge 123, Type (0, 0), BuildingBlock: XUDNAN_clean_linker_2, # of connection points: 2
#     Edge 124, Type (0, 0), BuildingBlock: XUDNAN_clean_linker_2, # of connection points: 2
#     Edge 125, Type (0, 0), BuildingBlock: XUDNAN_clean_linker_2, # of connection points: 2
#     Edge 126, Type (0, 0), BuildingBlock: XUDNAN_clean_linker_2, # of connection points: 2
#     Edge 127, Type (0, 0), BuildingBlock: XUDNAN_clean_linker_2, # of connection points: 2
# Relax obj value: 0.064
# Max RMSD: 0.128
# Mean RMSD: 0.128
data_MOF--net-som--node1-BETFEN_clean_sbu_0--edge1-XUDNAN_clean_linker_2
_symmetry_space_group_name_H-M    P1
_symmetry_Int_Tables_number       1
_symmetry_cell_setting            triclinic
loop_
_symmetry_equiv_pos_as_xyz
'x, y, z'
_cell_length_a     26.165932
_cell_length_b     55.626886
_cell_length_c     113.49993
_cell_angle_alpha  90.046889
_cell_angle_beta   90.046827
_cell_angle_gamma 89.979992
loop_
_atom_site_label
_atom_site_type_symbol
_atom_site_fract_x
_atom_site_fract_y
_atom_site_fract_z
_atom_type_partial_charge
Pr0 Pr 0.99251 0.49935 0.07763 0.0
Pr1 Pr 0.0951 0.47864 0.07264 0.0
C2 C 0.89275 0.51016 0.08146 0.0
C3 C 0.83867 0.50484 0.07862 0.0
C4 C 0.8007 0.51134 0.08674 0.0
C5 C 0.74888 0.50771 0.08418 0.0
C6 C 0.73362 0.49742 0.0734 0.0
C7 C 0.77206 0.49041 0.06536 0.0
C8 C 0.82403 0.49408 0.06794 0.0
C9 C 0.05512 0.49306 0.09761 0.0
C10 C 0.99827 0.44278 0.07108 0.0
C11 C 0.19506 0.46599 0.07448 0.0
C12 C 0.24956 0.47261 0.07231 0.0
C13 C 0.2744 0.46546 0.0619 0.0
C14 C 0.32692 0.46942 0.06037 0.0
C15 C 0.35637 0.48055 0.06923 0.0
C16 C 0.33139 0.48787 0.07962 0.0
C17 C 0.2788 0.48391 0.08115 0.0
C18 C 0.04205 0.48656 0.05157 0.0
C19 C 0.07765 0.53923 0.07223 0.0
O20 O 0.92079 0.52072 0.07346 0.0
O21 O 0.91805 0.49431 0.08763 0.0
O22 O 0.04792 0.47769 0.08958 0.0
O23 O 0.03069 0.51278 0.09532 0.0
O24 O 0.04567 0.44318 0.07515 0.0
O25 O 0.97456 0.46298 0.06877 0.0
O26 O 0.16999 0.47742 0.08273 0.0
O27 O 0.16612 0.46003 0.06553 0.0
O28 O 0.04129 0.50058 0.06042 0.0
O29 O 0.07196 0.46826 0.0534 0.0
O30 O 0.02824 0.53537 0.07275 0.0
O31 O 0.11103 0.52126 0.07305 0.0
H32 H 0.81113 0.51968 0.09503 0.0
H33 H 0.72075 0.51364 0.09054 0.0
H34 H 0.76201 0.48207 0.05706 0.0
H35 H 0.85269 0.48873 0.06157 0.0
H36 H 0.25349 0.45626 0.05499 0.0
H37 H 0.3447 0.46312 0.05233 0.0
H38 H 0.35245 0.49672 0.0866 0.0
H39 H 0.26124 0.48936 0.08937 0.0
Pr40 Pr 0.30115 0.73987 0.07631 0.0
Pr41 Pr 0.19078 0.76563 0.07241 0.0
C42 C 0.39999 0.72576 0.07544 0.0
C43 C 0.45379 0.73331 0.07748 0.0
C44 C 0.48181 0.72247 0.0866 0.0
C45 C 0.53351 0.72787 0.08826 0.0
C46 C 0.55886 0.74423 0.08083 0.0
C47 C 0.53083 0.75513 0.07168 0.0
C48 C 0.47885 0.74975 0.07003 0.0
C49 C 0.24117 0.74748 0.09635 0.0
C50 C 0.29391 0.80013 0.07412 0.0
C51 C 0.09595 0.7812 0.07791 0.0
C52 C 0.04086 0.77445 0.07764 0.0
C53 C 1.00622 0.78709 0.07045 0.0
C54 C 0.95335 0.78302 0.07134 0.0
C55 C 0.934 0.76644 0.07955 0.0
C56 C 0.96884 0.75309 0.08636 0.0
C57 C 1.02148 0.75702 0.08543 0.0
C58 C 0.23164 0.75254 0.05045 0.0
C59 C 0.20321 0.70527 0.07135 0.0
O60 O 0.37545 0.7347 0.06638 0.0
O61 O 0.37077 0.72255 0.08467 0.0
O62 O 0.24691 0.76212 0.08793 0.0
O63 O 0.26857 0.7282 0.09479 0.0
O64 O 0.24363 0.79968 0.07267 0.0
O65 O 0.32209 0.78071 0.0758 0.0
O66 O 0.12561 0.76943 0.08522 0.0
O67 O 0.11873 0.78693 0.068 0.0
O68 O 0.2513 0.74915 0.0605 0.0
O69 O 0.18802 0.76358 0.05158 0.0
O70 O 0.25338 0.70687 0.07049 0.0
O71 O 0.17333 0.72409 0.07345 0.0
H72 H 0.4639 0.70944 0.09235 0.0
H73 H 0.55392 0.71877 0.09526 0.0
H74 H 0.54895 0.76795 0.06585 0.0
H75 H 0.45851 0.75832 0.06286 0.0
H76 H 1.01987 0.80075 0.06443 0.0
H77 H 0.92755 0.79367 0.066 0.0
H78 H 0.95527 0.73992 0.09265 0.0
H79 H 0.04679 0.74687 0.09111 0.0
Pr80 Pr 1.00348 0.74323 0.19331 0.0
Pr81 Pr 0.10846 0.76405 0.19753 0.0
C82 C 0.90391 0.73001 0.19399 0.0
C83 C 0.85003 0.73722 0.19165 0.0
C84 C 0.82459 0.72847 0.18162 0.0
C85 C 0.77245 0.73296 0.1799 0.0
C86 C 0.74409 0.74622 0.18821 0.0
C87 C 0.76966 0.75523 0.19819 0.0
C88 C 0.82195 0.75078 0.1999 0.0
C89 C 0.06036 0.7503 0.17267 0.0
C90 C 1.01405 0.80255 0.19607 0.0
C91 C 0.20794 0.77757 0.19778 0.0
C92 C 0.26203 0.77085 0.19576 0.0
C93 C 0.29925 0.77864 0.20381 0.0
C94 C 0.35128 0.77467 0.20166 0.0
C95 C 0.36743 0.7628 0.19136 0.0
C96 C 0.3298 0.75431 0.18347 0.0
C97 C 0.27768 0.75832 0.18563 0.0
C98 C 0.05367 0.75604 0.21836 0.0
C99 C 0.09318 0.70484 0.19483 0.0
O100 O 0.92786 0.73994 0.20288 0.0
O101 O 0.93387 0.72563 0.18501 0.0
O102 O 0.05724 0.7651 0.1811 0.0
O103 O 0.03236 0.73141 0.17456 0.0
O104 O 0.06431 0.80059 0.1963 0.0
O105 O 0.98384 0.78371 0.19553 0.0
O106 O 0.17793 0.78021 0.18864 0.0
O107 O 0.18469 0.7685 0.20693 0.0
O108 O 0.05601 0.74164 0.20973 0.0
O109 O 0.07948 0.7755 0.21624 0.0
O110 O 0.04541 0.70828 0.19788 0.0
O111 O 0.12407 0.72312 0.19261 0.0
H112 H 0.84473 0.7176 0.17521 0.0
H113 H 0.75405 0.72539 0.1722 0.0
H114 H 0.74927 0.76573 0.20471 0.0
H115 H 0.84007 0.7576 0.20781 0.0
H116 H 0.28812 0.78845 0.21166 0.0
H117 H 0.37888 0.78173 0.20788 0.0
H118 H 0.34061 0.74472 0.17555 0.0
H119 H 0.24977 0.75201 0.17929 0.0
Pr120 Pr 0.29195 0.5006 0.19541 0.0
Pr121 Pr 0.18175 0.4758 0.19597 0.0
C122 C 0.39031 0.51443 0.19835 0.0
C123 C 0.44486 0.50826 0.19613 0.0
C124 C 0.46766 0.51312 0.18517 0.0
C125 C 0.52051 0.5107 0.18365 0.0
C126 C 0.55212 0.50346 0.19304 0.0
C127 C 0.52905 0.49746 0.20384 0.0
C128 C 0.47608 0.49995 0.20537 0.0
C129 C 0.2416 0.49425 0.17367 0.0
C130 C 0.28383 0.44051 0.194 0.0
C131 C 0.08757 0.46232 0.18878 0.0
C132 C 0.0326 0.46901 0.18958 0.0
C133 C 1.00339 0.46529 0.19984 0.0
C134 C 0.95132 0.47162 0.20013 0.0
C135 C 0.92753 0.48187 0.19019 0.0
C136 C 0.9568 0.48516 0.17993 0.0
C137 C 1.00843 0.47879 0.17963 0.0
C138 C 0.21139 0.4852 0.21944 0.0
C139 C 0.19524 0.53575 0.19708 0.0
O140 O 0.36507 0.50202 0.20623 0.0
O141 O 0.36197 0.52105 0.18941 0.0
O142 O 0.24397 0.47935 0.182 0.0
O143 O 0.26751 0.51352 0.17622 0.0
O144 O 0.23336 0.44175 0.19307 0.0
O145 O 0.31284 0.45968 0.19562 0.0
O146 O 0.11702 0.47702 0.18286 0.0
O147 O 0.11033 0.45278 0.19797 0.0
O148 O 0.23704 0.49027 0.21032 0.0
O149 O 0.16905 0.47473 0.21641 0.0
O150 O 0.24248 0.53329 0.20091 0.0
O151 O 0.16803 0.51719 0.19336 0.0
H152 H 0.445 0.5196 0.17784 0.0
H153 H 0.53682 0.51507 0.17515 0.0
H154 H 0.55219 0.49197 0.21128 0.0
H155 H 0.45985 0.49625 0.21396 0.0
H156 H 1.02069 0.4576 0.20765 0.0
H157 H 0.92998 0.4689 0.20819 0.0
H158 H 0.93966 0.49253 0.17203 0.0
H159 H 0.02955 0.48151 0.17153 0.0
Pr160 Pr 0.93823 0.51569 0.94347 0.0
Pr161 Pr 0.0486 0.49038 0.94396 0.0
C162 C 0.84464 0.52785 0.93534 0.0
C163 C 0.78843 0.52504 0.93632 0.0
C164 C 0.76294 0.52306 0.94719 0.0
C165 C 0.70915 0.52187 0.94759 0.0
C166 C 0.68008 0.52291 0.93714 0.0
C167 C 0.70613 0.52413 0.92631 0.0
C168 C 0.75948 0.52515 0.92592 0.0
C169 C 0.96958 0.51287 0.96708 0.0
C170 C 0.9518 0.45662 0.94987 0.0
C171 C 0.14789 0.47822 0.94716 0.0
C172 C 0.20106 0.48701 0.94547 0.0
C173 C 0.21866 0.49494 0.93444 0.0
C174 C 0.26978 0.50185 0.93292 0.0
C175 C 0.30471 0.50115 0.94239 0.0
C176 C 0.28675 0.49337 0.95345 0.0
C177 C 0.23564 0.48637 0.95495 0.0
C178 C 0.99466 0.48901 0.92258 0.0
C179 C 0.04053 0.54958 0.9388 0.0
O180 O 0.87081 0.50956 0.93128 0.0
O181 O 0.86906 0.54035 0.94338 0.0
O182 O 0.995 0.50526 0.95831 0.0
O183 O 0.92729 0.52286 0.9636 0.0
O184 O 1.00131 0.4591 0.95154 0.0
O185 O 0.92218 0.47418 0.94587 0.0
O186 O 0.12019 0.48851 0.95534 0.0
O187 O 0.12148 0.47246 0.93777 0.0
O188 O 0.99815 0.50681 0.92943 0.0
O189 O 1.01968 0.47067 0.92676 0.0
O190 O 0.9899 0.54922 0.93905 0.0
O191 O 0.06904 0.5304 0.94063 0.0
H192 H 0.78445 0.52281 0.95535 0.0
H193 H 0.69029 0.52096 0.95607 0.0
H194 H 0.68512 0.52455 0.91809 0.0
H195 H 0.77822 0.52649 0.91743 0.0
H196 H 0.19311 0.49557 0.92693 0.0
H197 H 0.28205 0.50735 0.92422 0.0
H198 H 0.31204 0.49288 0.961 0.0
H199 H 0.22316 0.48026 0.96354 0.0
Pr200 Pr 0.84837 0.23019 0.94716 0.0
Pr201 Pr 0.73565 0.25235 0.9448 0.0
C202 C 0.94653 0.21723 0.94346 0.0
C203 C 1.00049 0.22346 0.94604 0.0
C204 C 0.02671 0.21142 0.95508 0.0
C205 C 0.07851 0.21583 0.9571 0.0
C206 C 0.1056 0.23234 0.95011 0.0
C207 C 0.07944 0.24437 0.94103 0.0
C208 C 0.02746 0.23995 0.939 0.0
C209 C 0.79854 0.23744 0.96866 0.0
C210 C 0.83088 0.29059 0.94821 0.0
C211 C 0.64047 0.26773 0.94975 0.0
C212 C 0.58607 0.26059 0.9489 0.0
C213 C 0.55161 0.27469 0.94238 0.0
C214 C 0.49898 0.27015 0.94289 0.0
C215 C 0.47995 0.25164 0.95006 0.0
C216 C 0.51461 0.2368 0.9561 0.0
C217 C 0.56708 0.24115 0.9555 0.0
C218 C 0.77408 0.24009 0.92214 0.0
C219 C 0.74928 0.19386 0.94767 0.0
O220 O 0.92082 0.23108 0.93626 0.0
O221 O 0.91872 0.20883 0.95211 0.0
O222 O 0.79633 0.25134 0.95981 0.0
O223 O 0.82974 0.21966 0.9667 0.0
O224 O 0.78133 0.28736 0.9469 0.0
O225 O 0.86419 0.27248 0.94835 0.0
O226 O 0.66908 0.25571 0.95717 0.0
O227 O 0.6645 0.27391 0.94009 0.0
O228 O 0.79543 0.23743 0.93197 0.0
O229 O 0.72869 0.24883 0.9239 0.0
O230 O 0.79748 0.19537 0.94412 0.0
O231 O 0.72136 0.21294 0.94989 0.0
H232 H 1.0074 0.19823 0.9605 0.0
H233 H 0.09761 0.20585 0.96402 0.0
H234 H 0.09906 0.25731 0.93552 0.0
H235 H 1.00861 0.24928 0.93183 0.0
H236 H 0.5652 0.28981 0.93725 0.0
H237 H 0.47305 0.2819 0.93817 0.0
H238 H 0.50097 0.22221 0.96158 0.0
H239 H 0.5925 0.22979 0.96058 0.0
Pr240 Pr 0.92119 0.22337 0.82151 0.0
Pr241 Pr 0.03792 0.24683 0.82808 0.0
C242 C 0.82524 0.20562 0.82271 0.0
C243 C 0.77237 0.21105 0.82636 0.0
C244 C 0.73272 0.19636 0.82221 0.0
C245 C 0.6817 0.20193 0.82467 0.0
C246 C 0.66911 0.22239 0.83137 0.0
C247 C 0.70915 0.237 0.83563 0.0
C248 C 0.76033 0.23145 0.83309 0.0
C249 C 0.97589 0.23449 0.80097 0.0
C250 C 0.9394 0.28288 0.82322 0.0
C251 C 0.13555 0.26191 0.826 0.0
C252 C 0.18952 0.25648 0.82915 0.0
C253 C 0.2175 0.27304 0.8359 0.0
C254 C 0.26966 0.2695 0.83806 0.0
C255 C 0.2954 0.24934 0.83346 0.0
C256 C 0.26721 0.23256 0.82682 0.0
C257 C 0.21489 0.23605 0.8247 0.0
C258 C 0.97598 0.23814 0.84822 0.0
C259 C 0.02455 0.18743 0.82442 0.0
O260 O 0.85974 0.20163 0.83089 0.0
O261 O 0.84266 0.21794 0.81377 0.0
O262 O 0.99091 0.2373 0.81152 0.0
O263 O 0.93026 0.22532 0.80093 0.0
O264 O 0.98978 0.2805 0.82296 0.0
O265 O 0.90704 0.26461 0.82438 0.0
O266 O 0.11296 0.24782 0.81834 0.0
O267 O 0.10479 0.26977 0.83429 0.0
O268 O 0.96701 0.23413 0.83752 0.0
O269 O 0.02226 0.2467 0.84903 0.0
O270 O 0.97481 0.18911 0.82202 0.0
O271 O 0.05395 0.20588 0.82724 0.0
H272 H 0.74122 0.18065 0.8169 0.0
H273 H 0.65209 0.19009 0.82138 0.0
H274 H 0.70091 0.25303 0.8407 0.0
H275 H 0.79032 0.24327 0.8362 0.0
H276 H 0.19923 0.28908 0.83931 0.0
H277 H 0.29015 0.28297 0.84308 0.0
H278 H 0.28557 0.21668 0.82327 0.0
H279 H 0.1946 0.22291 0.81943 0.0
Pr280 Pr 0.85539 0.51053 0.82381 0.0
Pr281 Pr 0.74209 0.49163 0.82695 0.0
C282 C 0.9551 0.52243 0.82452 0.0
C283 C 1.00823 0.51527 0.82695 0.0
C284 C 0.04609 0.52194 0.81887 0.0
C285 C 0.09748 0.51726 0.82119 0.0
C286 C 0.11222 0.50573 0.83168 0.0
C287 C 0.07401 0.49859 0.83969 0.0
C288 C 0.02238 0.50332 0.83735 0.0
C289 C 0.79778 0.50807 0.80294 0.0
C290 C 0.83219 0.4516 0.82231 0.0
C291 C 0.64487 0.47922 0.82226 0.0
C292 C 0.59124 0.48347 0.8258 0.0
C293 C 0.57177 0.47498 0.83656 0.0
C294 C 0.52002 0.47795 0.83932 0.0
C295 C 0.48668 0.48943 0.83137 0.0
C296 C 0.50655 0.49825 0.82071 0.0
C297 C 0.55813 0.4952 0.81794 0.0
C298 C 0.7875 0.49468 0.84951 0.0
C299 C 0.76314 0.5505 0.82727 0.0
O300 O 0.92395 0.52566 0.83343 0.0
O301 O 0.93307 0.51341 0.81516 0.0
O302 O 0.79786 0.49291 0.81122 0.0
O303 O 0.8284 0.52576 0.80541 0.0
O304 O 0.78326 0.45684 0.82143 0.0
O305 O 0.86722 0.46818 0.82466 0.0
O306 O 0.66844 0.49696 0.81694 0.0
O307 O 0.67447 0.46681 0.82935 0.0
O308 O 0.80816 0.50016 0.83984 0.0
O309 O 0.74093 0.48756 0.84763 0.0
O310 O 0.81308 0.54698 0.82741 0.0
O311 O 0.72984 0.53291 0.82638 0.0
H312 H 0.03596 0.53134 0.81084 0.0
H313 H 0.12576 0.52338 0.81492 0.0
H314 H 0.084 0.48943 0.84779 0.0
H315 H 0.99374 0.49793 0.8437 0.0
H316 H 0.59624 0.46573 0.84278 0.0
H317 H 0.50589 0.47072 0.84755 0.0
H318 H 0.48223 0.50753 0.81447 0.0
H319 H 0.57205 0.50183 0.80956 0.0
Pr320 Pr 0.9943 -0.00236 0.57299 0.0
Pr321 Pr 0.11473 0.97581 0.57378 0.0
C322 C 0.90065 0.012 0.56613 0.0
C323 C 0.84622 0.00469 0.56677 0.0
C324 C 0.81145 0.01823 0.57349 0.0
C325 C 0.75914 0.01289 0.57326 0.0
C326 C 0.74051 0.99405 0.5662 0.0
C327 C 0.77553 0.98002 0.5598 0.0
C328 C 0.82774 0.98525 0.56008 0.0
C329 C 0.02993 0.98815 0.59626 0.0
C330 C 1.01334 0.93878 0.57221 0.0
C331 C 0.20832 0.96207 0.58106 0.0
C332 C 0.26293 0.96506 0.57788 0.0
C333 C 0.28551 0.95097 0.56901 0.0
C334 C 0.3372 0.95377 0.5662 0.0
C335 C 0.36765 0.97071 0.57217 0.0
C336 C 0.34512 0.98462 0.58113 0.0
C337 C 0.29348 0.98175 0.58398 0.0
C338 C 0.08332 0.98541 0.55043 0.0
C339 C 0.09132 0.03538 0.57397 0.0
O340 O 0.93112 -0.00097 0.55951 0.0
O341 O 0.92245 0.01978 0.57582 0.0
O342 O 0.05191 0.98465 0.58658 0.0
O343 O 0.98411 -0.00397 0.59399 0.0
O344 O 0.0621 0.94095 0.57544 0.0
O345 O 0.98306 0.95714 0.56997 0.0
O346 O 0.18469 0.9811 0.58514 0.0
O347 O 0.17952 0.94881 0.57416 0.0
O348 O 0.05874 0.98938 0.55983 0.0
O349 O 0.12766 0.9764 0.55318 0.0
O350 O 0.04278 0.03206 0.57124 0.0
O351 O 0.12446 0.01777 0.57598 0.0
H352 H 0.82453 0.03338 0.57868 0.0
H353 H 0.73309 0.02411 0.57824 0.0
H354 H 0.76243 0.96515 0.55442 0.0
H355 H 0.85338 0.97435 0.55482 0.0
H356 H 0.26336 0.93769 0.56425 0.0
H357 H 0.35342 0.9424 0.55941 0.0
H358 H 0.36718 -0.002 0.58584 0.0
H359 H 0.27739 0.99269 0.59095 0.0
Pr360 Pr 0.29238 0.24123 0.57446 0.0
Pr361 Pr 0.18702 0.26358 0.57387 0.0
C362 C 0.39184 0.22836 0.57223 0.0
C363 C 0.44518 0.23744 0.57113 0.0
C364 C 0.47814 0.23694 0.58093 0.0
C365 C 0.52968 0.24345 0.57984 0.0
C366 C 0.54987 0.25049 0.56888 0.0
C367 C 0.51666 0.25121 0.5591 0.0
C368 C 0.46509 0.24475 0.5602 0.0
C369 C 0.24348 0.24182 0.59645 0.0
C370 C 0.28279 0.29976 0.57575 0.0
C371 C 0.08824 0.27658 0.57728 0.0
C372 C 0.03359 0.27187 0.57452 0.0
C373 C 1.01395 0.27425 0.56305 0.0
C374 C 0.96123 0.27239 0.56096 0.0
C375 C 0.92678 0.26821 0.57029 0.0
C376 C 0.94684 0.26503 0.58169 0.0
C377 C 0.9995 0.2669 0.58377 0.0
C378 C 0.23043 0.25662 0.55134 0.0
C379 C 0.19975 0.20354 0.5737 0.0
O380 O 0.36072 0.23066 0.56325 0.0
O381 O 0.36893 0.23105 0.58237 0.0
O382 O 0.24327 0.25946 0.58933 0.0
O383 O 0.27092 0.22422 0.59243 0.0
O384 O 0.23598 0.29662 0.57974 0.0
O385 O 0.30809 0.28186 0.57096 0.0
O386 O 0.11232 0.26125 0.58401 0.0
O387 O 0.11747 0.28599 0.56915 0.0
O388 O 0.23174 0.24196 0.55979 0.0
O389 O 0.20472 0.27568 0.55425 0.0
O390 O 0.24793 0.20603 0.57058 0.0
O391 O 0.1709 0.2223 0.57635 0.0
H392 H 0.46427 0.23116 0.58946 0.0
H393 H 0.55368 0.24297 0.58761 0.0
H394 H 0.53076 0.25617 0.55047 0.0
H395 H 0.44111 0.24504 0.55242 0.0
H396 H 0.03912 0.27805 0.55571 0.0
H397 H 0.9474 0.27452 0.55203 0.0
H398 H 0.92169 0.26205 0.58912 0.0
H399 H 1.01348 0.26519 0.59272 0.0
Pr400 Pr 1.00022 0.24321 0.69387 0.0
Pr401 Pr 0.10622 0.26009 0.69511 0.0
C402 C 0.89934 0.23323 0.69229 0.0
C403 C 0.84526 0.23898 0.69495 0.0
C404 C 0.81053 0.24083 0.68555 0.0
C405 C 0.75818 0.24367 0.68764 0.0
C406 C 0.73909 0.24474 0.69921 0.0
C407 C 0.77426 0.24368 0.70863 0.0
C408 C 0.82677 0.24076 0.70653 0.0
C409 C 0.05313 0.24134 0.67216 0.0
C410 C 1.01452 0.30062 0.69859 0.0
C411 C 0.20244 0.27661 0.69183 0.0
C412 C 0.25692 0.27083 0.69424 0.0
C413 C 0.27597 0.2689 0.70579 0.0
C414 C 0.32798 0.26437 0.7078 0.0
C415 C 0.3623 0.26159 0.69832 0.0
C416 C 0.34297 0.26345 0.68678 0.0
C417 C 0.29102 0.26806 0.68478 0.0
C418 C 0.07415 0.24435 0.71735 0.0
C419 C 0.08224 0.20161 0.69606 0.0
O420 O 0.92887 0.22441 0.70057 0.0
O421 O 0.92351 0.24696 0.6848 0.0
O422 O 0.05329 0.25908 0.67911 0.0
O423 O 0.027 0.22383 0.67659 0.0
O424 O 0.06345 0.2979 0.69599 0.0
O425 O 0.98373 0.28218 0.69929 0.0
O426 O 0.17846 0.26318 0.68414 0.0
O427 O 0.17346 0.28314 0.70067 0.0
O428 O 0.0462 0.25665 0.7104 0.0
O429 O 0.11809 0.2396 0.71262 0.0
O430 O 0.0375 0.20814 0.70019 0.0
O431 O 0.11427 0.21787 0.69176 0.0
H432 H 0.82375 0.2393 0.67654 0.0
H433 H 0.73253 0.24408 0.68015 0.0
H434 H 0.76118 0.24484 0.71766 0.0
H435 H 0.85264 0.23945 0.71395 0.0
H436 H 0.25085 0.27106 0.71329 0.0
H437 H 0.34138 0.26343 0.71681 0.0
H438 H 0.36785 0.26109 0.67925 0.0
H439 H 0.27745 0.26955 0.67579 0.0
Pr440 Pr 0.28283 -0.00328 0.6922 0.0
Pr441 Pr 0.18014 0.97135 0.69522 0.0
C442 C 0.38192 0.01069 0.69421 0.0
C443 C 0.43683 0.00445 0.69224 0.0
C444 C 0.45894 0.00539 0.68096 0.0
C445 C 0.51189 0.00256 0.67948 0.0
C446 C 0.54443 -0.00115 0.68923 0.0
C447 C 0.52195 -0.00298 0.70046 0.0
C448 C 0.46898 -0.00013 0.70194 0.0
C449 C 0.22529 0.99318 0.6712 0.0
C450 C 0.27878 0.93692 0.68954 0.0
C451 C 0.08071 0.95725 0.69602 0.0
C452 C 0.02666 0.96493 0.69408 0.0
C453 C 0.99261 0.96577 0.70366 0.0
C454 C 0.94089 0.97166 0.70202 0.0
C455 C 0.92162 0.97689 0.69072 0.0
C456 C 0.95586 0.97604 0.68113 0.0
C457 C 1.00755 0.97007 0.68278 0.0
C458 C 0.23801 0.97237 0.71593 0.0
C459 C 0.18763 0.03169 0.69535 0.0
O460 O 0.3571 -0.00059 0.70254 0.0
O461 O 0.35305 0.01595 0.68514 0.0
O462 O 0.22961 0.97705 0.67896 0.0
O463 O 0.25394 0.01159 0.67373 0.0
O464 O 0.22819 0.93715 0.68982 0.0
O465 O 0.30615 0.9565 0.69109 0.0
O466 O 0.11036 0.95369 0.68689 0.0
O467 O 0.10508 0.96652 0.70499 0.0
O468 O 0.23301 0.99028 0.70902 0.0
O469 O 0.2144 0.95362 0.71186 0.0
O470 O 0.23637 0.02995 0.69799 0.0
O471 O 0.16067 0.01251 0.69232 0.0
H472 H 0.43558 0.00893 0.67327 0.0
H473 H 0.52743 0.00363 0.67065 0.0
H474 H 0.54549 0.99441 0.7082 0.0
H475 H 0.45336 -0.00071 0.71077 0.0
H476 H 1.00596 0.96166 0.71247 0.0
H477 H 0.91614 0.97236 0.70965 0.0
H478 H 0.94256 0.97955 0.67226 0.0
H479 H 0.03232 0.96921 0.67517 0.0
Pr480 Pr 0.94659 0.0129 0.44478 0.0
Pr481 Pr 0.05144 0.99025 0.44117 0.0
C482 C 0.84677 0.02542 0.44278 0.0
C483 C 0.79275 0.01852 0.4452 0.0
C484 C 0.76978 0.02367 0.45611 0.0
C485 C 0.71761 0.01931 0.45794 0.0
C486 C 0.6868 0.00975 0.44889 0.0
C487 C 0.70996 0.00438 0.438 0.0
C488 C 0.76215 0.00877 0.43618 0.0
C489 C 1.00061 0.00725 0.46608 0.0
C490 C 0.9595 0.95269 0.44646 0.0
C491 C 0.15066 0.97645 0.44074 0.0
C492 C 0.20454 0.98381 0.44269 0.0
C493 C 0.24111 0.97876 0.43398 0.0
C494 C 0.29316 0.98298 0.43603 0.0
C495 C 0.31 0.99227 0.4469 0.0
C496 C 0.27302 -0.00184 0.45546 0.0
C497 C 0.22091 0.99397 0.45339 0.0
C498 C 0.9905 0.99088 0.42088 0.0
C499 C 0.04213 0.04962 0.44246 0.0
O500 O 0.87174 0.01358 0.43465 0.0
O501 O 0.87584 0.032 0.4516 0.0
O502 O 0.99966 0.99233 0.45765 0.0
O503 O 0.97169 0.02567 0.46374 0.0
O504 O 1.00956 0.95482 0.44594 0.0
O505 O 0.92861 0.97145 0.44561 0.0
O506 O 0.12098 0.97394 0.44994 0.0
O507 O 0.12681 0.98499 0.43152 0.0
O508 O 0.99494 0.00849 0.42795 0.0
O509 O 1.01862 0.97285 0.42413 0.0
O510 O 0.99251 0.04778 0.44068 0.0
O511 O 0.07101 0.03067 0.44441 0.0
H512 H 0.79182 0.03158 0.46321 0.0
H513 H 0.70118 0.02406 0.46637 0.0
H514 H 0.68779 -0.00325 0.43086 0.0
H515 H 0.77837 0.00488 0.42761 0.0
H516 H 0.22954 0.97081 0.42568 0.0
H517 H 0.32035 0.97801 0.42927 0.0
H518 H 0.28438 0.00574 0.46385 0.0
H519 H 0.19364 -0.00182 0.46026 0.0
Pr520 Pr 0.85383 0.72756 0.44817 0.0
Pr521 Pr 0.73878 0.74991 0.44568 0.0
C522 C 0.95326 0.71525 0.44628 0.0
C523 C 1.00574 0.72448 0.44425 0.0
C524 C 0.0383 0.72897 0.45386 0.0
C525 C 0.08939 0.73535 0.45207 0.0
C526 C 0.10943 0.73719 0.44061 0.0
C527 C 0.07656 0.73314 0.43098 0.0
C528 C 0.02537 0.72682 0.43278 0.0
C529 C 0.79682 0.73076 0.46906 0.0
C530 C 0.83503 0.78719 0.44982 0.0
C531 C 0.64339 0.76445 0.45084 0.0
C532 C 0.58914 0.76112 0.44772 0.0
C533 C 0.57298 0.7585 0.43599 0.0
C534 C 0.52084 0.75628 0.43336 0.0
C535 C 0.48401 0.75656 0.44241 0.0
C536 C 0.50068 0.75874 0.45415 0.0
C537 C 0.55265 0.76101 0.45676 0.0
C538 C 0.78502 0.74413 0.42337 0.0
C539 C 0.75596 0.69121 0.443 0.0
O540 O 0.92135 0.71474 0.43737 0.0
O541 O 0.93123 0.72045 0.45632 0.0
O542 O 0.79755 0.74592 0.46077 0.0
O543 O 0.82713 0.71281 0.46668 0.0
O544 O 0.78542 0.78348 0.45078 0.0
O545 O 0.86814 0.76971 0.44746 0.0
O546 O 0.66597 0.74653 0.45627 0.0
O547 O 0.67287 0.77569 0.44328 0.0
O548 O 0.80304 0.73952 0.43334 0.0
O549 O 0.73836 0.7518 0.4246 0.0
O550 O 0.80611 0.69387 0.44195 0.0
O551 O 0.72487 0.70876 0.44607 0.0
H552 H 0.02459 0.72711 0.46282 0.0
H553 H 0.11327 0.73871 0.45969 0.0
H554 H 0.09072 0.7341 0.42203 0.0
H555 H 1.00157 0.72321 0.42517 0.0
H556 H 0.60053 0.75832 0.42887 0.0
H557 H 0.50938 0.7543 0.42424 0.0
H558 H 0.47347 0.75934 0.46133 0.0
H559 H 0.56436 0.76301 0.46587 0.0
Pr560 Pr 0.93411 0.72959 0.32458 0.0
Pr561 Pr 0.04491 0.74792 0.32911 0.0
C562 C 0.83619 0.71791 0.32915 0.0
C563 C 0.78158 0.72004 0.32582 0.0
C564 C 0.76067 0.70653 0.31651 0.0
C565 C 0.70783 0.70646 0.3145 0.0
C566 C 0.67469 0.7198 0.32177 0.0
C567 C 0.69593 0.73387 0.33084 0.0
C568 C 0.74866 0.73393 0.33285 0.0
C569 C 0.9781 0.73428 0.30235 0.0
C570 C 0.96259 0.78811 0.32125 0.0
C571 C 0.14525 0.75667 0.3326 0.0
C572 C 0.19786 0.75 0.32947 0.0
C573 C 0.23811 0.76065 0.33569 0.0
C574 C 0.28864 0.75419 0.33336 0.0
C575 C 0.30015 0.73698 0.32466 0.0
C576 C 0.25942 0.72634 0.31838 0.0
C577 C 0.20862 0.73276 0.32079 0.0
C578 C 0.97979 0.74515 0.34887 0.0
C579 C 0.02839 0.69065 0.32564 0.0
O580 O 0.85874 0.73693 0.3336 0.0
O581 O 0.86652 0.70445 0.32271 0.0
O582 O 1.0011 0.73904 0.31193 0.0
O583 O 0.93214 0.72637 0.30417 0.0
O584 O 1.01129 0.78234 0.32118 0.0
O585 O 0.92661 0.77226 0.32401 0.0
O586 O 0.11782 0.76809 0.32474 0.0
O587 O 0.1191 0.74107 0.33874 0.0
O588 O 0.98474 0.72987 0.34081 0.0
O589 O 1.0095 0.76339 0.34695 0.0
O590 O 0.98006 0.694 0.3287 0.0
O591 O 0.05779 0.70883 0.32271 0.0
H592 H 0.78489 0.69552 0.31097 0.0
H593 H 0.69286 0.69566 0.30735 0.0
H594 H 0.67165 0.7441 0.33672 0.0
H595 H 0.76351 0.74423 0.3402 0.0
H596 H 0.23041 0.77381 0.34251 0.0
H597 H 0.31859 0.76237 0.33858 0.0
H598 H 0.26672 0.71316 0.31156 0.0
H599 H 0.17786 0.72423 0.31595 0.0
Pr600 Pr 0.86287 0.01369 0.32517 0.0
Pr601 Pr 0.75143 0.99066 0.32317 0.0
C602 C 0.9561 0.02447 0.33385 0.0
C603 C 1.01127 0.01881 0.33256 0.0
C604 C 0.03888 0.02397 0.32222 0.0
C605 C 0.09113 0.01827 0.32142 0.0
C606 C 0.11659 0.00718 0.33091 0.0
C607 C 0.08889 0.00248 0.34127 0.0
C608 C 0.03706 0.00826 0.34208 0.0
C609 C 0.83674 0.01068 0.30108 0.0
C610 C 0.84742 0.95541 0.31831 0.0
C611 C 0.65287 0.9791 0.31863 0.0
C612 C 0.59857 0.98464 0.32139 0.0
C613 C 0.57704 0.97831 0.3323 0.0
C614 C 0.52432 0.98024 0.33416 0.0
C615 C 0.49168 0.98849 0.32515 0.0
C616 C 0.51353 -0.00398 0.31446 0.0
C617 C 0.56635 0.994 0.31258 0.0
C618 C 0.79854 0.98813 0.34545 0.0
C619 C 0.76284 0.04988 0.32766 0.0
O620 O 0.92707 0.00735 0.33811 0.0
O621 O 0.93349 0.03738 0.3257 0.0
O622 O 0.80942 0.0039 0.30964 0.0
O623 O 0.87885 0.02012 0.305 0.0
O624 O 0.79926 0.95927 0.31548 0.0
O625 O 0.87648 0.972 0.32334 0.0
O626 O 0.67881 0.99442 0.31226 0.0
O627 O 0.68056 0.96863 0.32674 0.0
O628 O 0.79953 0.00614 0.33866 0.0
O629 O 0.77017 0.97126 0.341 0.0
O630 O 0.81282 0.04783 0.32922 0.0
O631 O 0.73321 0.03151 0.32494 0.0
H632 H 1.02015 0.03221 0.31473 0.0
H633 H 0.1113 0.02205 0.3133 0.0
H634 H 0.1074 0.99437 0.34883 0.0
H635 H 1.01697 0.00439 0.35021 0.0
H636 H 0.60059 0.97109 0.33931 0.0
H637 H 0.50889 0.97469 0.34258 0.0
H638 H 0.48954 0.00234 0.30732 0.0
H639 H 0.58175 -0.00112 0.30406 0.0
Pr640 Pr 0.49933 0.5015 0.57611 0.0
Pr641 Pr 0.60312 0.47555 0.57207 0.0
C642 C 0.40073 0.51626 0.57484 0.0
C643 C 0.34567 0.51009 0.57655 0.0
C644 C 0.31997 0.51749 0.5868 0.0
C645 C 0.26679 0.51515 0.58776 0.0
C646 C 0.23752 0.50553 0.57845 0.0
C647 C 0.26346 0.49709 0.56841 0.0
C648 C 0.3168 0.49945 0.56744 0.0
C649 C 0.55845 0.49497 0.59646 0.0
C650 C 0.50339 0.44132 0.5766 0.0
C651 C 0.7022 0.46126 0.57339 0.0
C652 C 0.75595 0.47012 0.57401 0.0
C653 C 0.79139 0.4634 0.56529 0.0
C654 C 0.84299 0.47021 0.56614 0.0
C655 C 0.86066 0.48387 0.57577 0.0
C656 C 0.82494 0.49057 0.58449 0.0
C657 C 0.77342 0.48385 0.58361 0.0
C658 C 0.54724 0.48348 0.55137 0.0
C659 C 0.59583 0.53619 0.57219 0.0
O660 O 0.42534 0.50654 0.56599 0.0
O661 O 0.42965 0.51963 0.58413 0.0
O662 O 0.552 0.47958 0.58839 0.0
O663 O 0.53175 0.51429 0.59447 0.0
O664 O 0.55388 0.44129 0.57625 0.0
O665 O 0.47617 0.46114 0.57567 0.0
O666 O 0.67287 0.46456 0.58259 0.0
O667 O 0.67751 0.46343 0.56342 0.0
O668 O 0.5517 0.49815 0.55984 0.0
O669 O 0.57376 0.46404 0.55329 0.0
O670 O 0.54584 0.53509 0.57116 0.0
O671 O 0.62438 0.51679 0.57383 0.0
H672 H 0.34072 0.52589 0.59396 0.0
H673 H 0.24841 0.52145 0.59573 0.0
H674 H 0.24233 0.48972 0.56103 0.0
H675 H 0.3351 0.49374 0.55935 0.0
H676 H 0.77923 0.45265 0.55784 0.0
H677 H 0.86891 0.46491 0.55917 0.0
H678 H 0.83689 0.50069 0.59216 0.0
H679 H 0.74746 0.48917 0.59057 0.0
Pr680 Pr 0.80258 0.74072 0.57865 0.0
Pr681 Pr 0.69133 0.76141 0.57654 0.0
C682 C 0.90248 0.72868 0.57733 0.0
C683 C 0.95527 0.73769 0.57906 0.0
C684 C 0.97505 0.74239 0.59034 0.0
C685 C 0.02613 0.74932 0.59176 0.0
C686 C 0.05864 0.75173 0.58194 0.0
C687 C 0.0385 0.74729 0.57066 0.0
C688 C 0.98752 0.74029 0.56925 0.0
C689 C 0.74481 0.74373 0.59945 0.0
C690 C 0.78872 0.79995 0.57767 0.0
C691 C 0.59775 0.7746 0.58403 0.0
C692 C 0.54174 0.77117 0.58367 0.0
C693 C 0.51346 0.77193 0.57313 0.0
C694 C 0.4598 0.77102 0.57341 0.0
C695 C 0.43374 0.76959 0.58424 0.0
C696 C 0.46242 0.76794 0.59468 0.0
C697 C 0.5157 0.76873 0.59439 0.0
C698 C 0.72496 0.7544 0.55352 0.0
C699 C 0.71352 0.70309 0.57183 0.0
O700 O 0.87658 0.73744 0.56846 0.0
O701 O 0.87421 0.72453 0.58662 0.0
O702 O 0.74882 0.75957 0.59157 0.0
O703 O 0.77126 0.72471 0.59671 0.0
O704 O 0.73844 0.79755 0.57689 0.0
O705 O 0.82009 0.78155 0.57859 0.0
O706 O 0.62519 0.75802 0.58925 0.0
O707 O 0.62071 0.78482 0.57507 0.0
O708 O 0.75135 0.74969 0.56266 0.0
O709 O 0.68016 0.76282 0.55625 0.0
O710 O 0.7619 0.70849 0.57034 0.0
O711 O 0.68012 0.719 0.57591 0.0
H712 H 0.95138 0.74037 0.5981 0.0
H713 H 0.04041 0.75225 0.6006 0.0
H714 H 0.06208 0.74929 0.56288 0.0
H715 H 0.9734 0.73664 0.56045 0.0
H716 H 0.53265 0.77379 0.56473 0.0
H717 H 0.4387 0.77236 0.56523 0.0
H718 H 0.44357 0.76642 0.60314 0.0
H719 H 0.53665 0.76807 0.60263 0.0
Pr720 Pr 0.4985 0.73956 0.69622 0.0
Pr721 Pr 0.60917 0.76251 0.69586 0.0
C722 C 0.39924 0.72711 0.69893 0.0
C723 C 0.34585 0.73303 0.69549 0.0
C724 C 0.31915 0.71759 0.68787 0.0
C725 C 0.26758 0.72161 0.68527 0.0
C726 C 0.24108 0.74112 0.69029 0.0
C727 C 0.26782 0.75669 0.69788 0.0
C728 C 0.31962 0.75272 0.70044 0.0
C729 C 0.549 0.7426 0.67429 0.0
C730 C 0.50875 0.79905 0.69398 0.0
C731 C 0.70296 0.77382 0.6877 0.0
C732 C 0.75834 0.76798 0.68868 0.0
C733 C 0.7922 0.78371 0.69448 0.0
C734 C 0.84522 0.77981 0.69409 0.0
C735 C 0.86553 0.76025 0.68777 0.0
C736 C 0.83149 0.74404 0.68239 0.0
C737 C 0.7787 0.74784 0.68282 0.0
C738 C 0.58075 0.75813 0.71956 0.0
C739 C 0.59178 0.70437 0.70208 0.0
O740 O 0.42329 0.74189 0.70598 0.0
O741 O 0.42918 0.71736 0.69102 0.0
O742 O 0.54648 0.75849 0.68212 0.0
O743 O 0.52424 0.72348 0.67756 0.0
O744 O 0.55887 0.79711 0.69241 0.0
O745 O 0.47935 0.78037 0.69621 0.0
O746 O 0.67318 0.75767 0.68282 0.0
O747 O 0.68085 0.78572 0.69629 0.0
O748 O 0.55355 0.75178 0.71084 0.0
O749 O 0.62346 0.76753 0.71601 0.0
O750 O 0.5447 0.70958 0.70519 0.0
O751 O 0.62094 0.7201 0.69645 0.0
H752 H 0.33793 0.70205 0.68406 0.0
H753 H 0.24811 0.70902 0.67954 0.0
H754 H 0.24876 0.77202 0.7018 0.0
H755 H 0.33884 0.76491 0.70643 0.0
H756 H 0.77784 0.7995 0.69898 0.0
H757 H 0.87038 0.79271 0.69827 0.0
H758 H 0.84577 0.72857 0.67761 0.0
H759 H 0.75402 0.73533 0.67823 0.0
Pr760 Pr 0.80096 0.50123 0.69314 0.0
Pr761 Pr 0.69114 0.47687 0.69562 0.0
C762 C 0.89991 0.51503 0.69456 0.0
C763 C 0.9542 0.50805 0.69266 0.0
C764 C 0.97692 0.5104 0.6815 0.0
C765 C 0.0297 0.50752 0.68009 0.0
C766 C 0.06131 0.50233 0.68981 0.0
C767 C 0.0383 0.49875 0.70086 0.0
C768 C 0.9854 0.5017 0.70228 0.0
C769 C 0.74448 0.49496 0.67238 0.0
C770 C 0.79307 0.44121 0.69497 0.0
C771 C 0.59732 0.46235 0.68868 0.0
C772 C 0.54225 0.46898 0.68896 0.0
C773 C 0.51241 0.46722 0.69924 0.0
C774 C 0.46021 0.47328 0.69904 0.0
C775 C 0.4369 0.48129 0.68856 0.0
C776 C 0.46681 0.48262 0.67829 0.0
C777 C 0.5186 0.47652 0.67848 0.0
C778 C 0.7259 0.48688 0.71838 0.0
C779 C 0.7049 0.53676 0.69831 0.0
O780 O 0.87507 0.50541 0.70338 0.0
O781 O 0.87105 0.51889 0.68532 0.0
O782 O 0.74913 0.47989 0.68062 0.0
O783 O 0.77056 0.51435 0.67459 0.0
O784 O 0.74254 0.44216 0.69578 0.0
O785 O 0.82198 0.46046 0.69366 0.0
O786 O 0.62722 0.47597 0.68227 0.0
O787 O 0.61932 0.45451 0.69834 0.0
O788 O 0.74999 0.49162 0.70895 0.0
O789 O 0.68247 0.47653 0.71606 0.0
O790 O 0.75483 0.53446 0.69919 0.0
O791 O 0.67404 0.51855 0.69585 0.0
H792 H 0.95427 0.51534 0.67388 0.0
H793 H 0.046 0.51 0.67141 0.0
H794 H 0.06146 0.49489 0.70854 0.0
H795 H 0.96924 0.49997 0.71102 0.0
H796 H 0.52931 0.46126 0.70745 0.0
H797 H 0.43837 0.47212 0.70712 0.0
H798 H 0.45006 0.48822 0.67 0.0
H799 H 0.54024 0.47767 0.67037 0.0
Pr800 Pr 0.43516 0.51351 0.44361 0.0
Pr801 Pr 0.5477 0.49262 0.44558 0.0
C802 C 0.34261 0.52379 0.43445 0.0
C803 C 0.28653 0.5212 0.43533 0.0
C804 C 0.2606 0.52106 0.44618 0.0
C805 C 0.20687 0.52036 0.44648 0.0
C806 C 0.17839 0.51999 0.43594 0.0
C807 C 0.20485 0.51931 0.42516 0.0
C808 C 0.25819 0.51991 0.42487 0.0
C809 C 0.46068 0.51165 0.46766 0.0
C810 C 0.45576 0.45652 0.4518 0.0
C811 C 0.64713 0.48162 0.44939 0.0
C812 C 0.7001 0.4897 0.447 0.0
C813 C 0.71704 0.49477 0.43552 0.0
C814 C 0.76808 0.5011 0.43346 0.0
C815 C 0.80342 0.50262 0.44282 0.0
C816 C 0.78607 0.49778 0.45431 0.0
C817 C 0.73506 0.49137 0.45636 0.0
C818 C 0.49886 0.48883 0.4235 0.0
C819 C 0.53326 0.55127 0.44151 0.0
O820 O 0.36917 0.50482 0.43137 0.0
O821 O 0.36602 0.53775 0.44205 0.0
O822 O 0.48915 0.50521 0.45922 0.0
O823 O 0.41784 0.52018 0.46365 0.0
O824 O 0.50242 0.46274 0.45487 0.0
O825 O 0.42563 0.47124 0.44575 0.0
O826 O 0.61985 0.49443 0.45673 0.0
O827 O 0.62041 0.47306 0.4406 0.0
O828 O 0.49851 0.50708 0.4301 0.0
O829 O 0.52587 0.47174 0.42822 0.0
O830 O 0.48373 0.54834 0.4395 0.0
O831 O 0.56369 0.53347 0.4445 0.0
H832 H 0.28173 0.52197 0.45438 0.0
H833 H 0.18764 0.52093 0.45492 0.0
H834 H 0.18422 0.51859 0.41689 0.0
H835 H 0.27739 0.51986 0.41642 0.0
H836 H 0.69104 0.49358 0.42811 0.0
H837 H 0.78003 0.50437 0.42447 0.0
H838 H 0.81179 0.4991 0.46176 0.0
H839 H 0.72297 0.48752 0.46529 0.0
Pr840 Pr 0.34809 0.23128 0.44384 0.0
Pr841 Pr 0.24164 0.2556 0.44199 0.0
C842 C 0.44433 0.21867 0.43758 0.0
C843 C 0.49974 0.22147 0.44044 0.0
C844 C 0.52208 0.21006 0.45023 0.0
C845 C 0.57514 0.21104 0.45208 0.0
C846 C 0.60744 0.22335 0.44419 0.0
C847 C 0.58477 0.23529 0.43457 0.0
C848 C 0.53176 0.23427 0.43271 0.0
C849 C 0.31331 0.23603 0.46704 0.0
C850 C 0.33329 0.2907 0.44957 0.0
C851 C 0.1415 0.26719 0.43974 0.0
C852 C 0.08775 0.25997 0.44185 0.0
C853 C 0.04976 0.26855 0.4342 0.0
C854 C 0.99856 0.26184 0.43566 0.0
C855 C 0.9838 0.24635 0.44485 0.0
C856 C 1.0222 0.23781 0.45256 0.0
C857 C 0.07363 0.2445 0.45105 0.0
C858 C 0.30209 0.257 0.42155 0.0
C859 C 0.24859 0.19649 0.44541 0.0
O860 O 0.4203 0.23729 0.43319 0.0
O861 O 0.41553 0.20557 0.44452 0.0
O862 O 0.28836 0.24291 0.45804 0.0
O863 O 0.35646 0.22621 0.46409 0.0
O864 O 0.2832 0.28854 0.44968 0.0
O865 O 0.36422 0.27275 0.44668 0.0
O866 O 0.16963 0.274 0.44871 0.0
O867 O 0.16702 0.25494 0.43186 0.0
O868 O 0.29591 0.23856 0.42794 0.0
O869 O 0.27744 0.2752 0.42585 0.0
O870 O 0.29664 0.1966 0.44179 0.0
O871 O 0.22362 0.21655 0.44747 0.0
H872 H 0.49877 0.19999 0.45637 0.0
H873 H 0.59089 0.20193 0.45969 0.0
H874 H 0.60815 0.24471 0.42821 0.0
H875 H 0.51593 0.24304 0.42501 0.0
H876 H 0.05981 0.28035 0.42697 0.0
H877 H 0.97073 0.26846 0.42938 0.0
H878 H 1.01255 0.22607 0.45982 0.0
H879 H 0.1023 0.23755 0.45704 0.0
Pr880 Pr 0.44478 0.22665 0.32356 0.0
Pr881 Pr 0.54981 0.25131 0.32524 0.0
C882 C 0.34558 0.21337 0.32625 0.0
C883 C 0.2912 0.21918 0.32341 0.0
C884 C 0.26678 0.20843 0.3137 0.0
C885 C 0.2145 0.21208 0.31162 0.0
C886 C 0.18487 0.22651 0.31922 0.0
C887 C 0.20937 0.23733 0.32891 0.0
C888 C 0.26174 0.23369 0.33099 0.0
C889 C 0.49229 0.23416 0.30155 0.0
C890 C 0.45319 0.2872 0.32344 0.0
C891 C 0.64825 0.26581 0.32315 0.0
C892 C 0.70234 0.2578 0.32219 0.0
C893 C 0.73896 0.26716 0.33001 0.0
C894 C 0.79107 0.26194 0.3286 0.0
C895 C 0.80799 0.24728 0.31927 0.0
C896 C 0.77096 0.23722 0.31169 0.0
C897 C 0.71883 0.24242 0.31312 0.0
C898 C 0.49617 0.25007 0.34657 0.0
C899 C 0.54349 0.19208 0.32725 0.0
O900 O 0.36993 0.22734 0.33363 0.0
O901 O 0.37516 0.20498 0.31791 0.0
O902 O 0.49169 0.24871 0.31008 0.0
O903 O 0.466 0.21503 0.30407 0.0
O904 O 0.50273 0.28593 0.32139 0.0
O905 O 0.42536 0.26773 0.32533 0.0
O906 O 0.61778 0.26241 0.31414 0.0
O907 O 0.62531 0.26319 0.3333 0.0
O908 O 0.49859 0.23252 0.3394 0.0
O909 O 0.52413 0.26795 0.34303 0.0
O910 O 0.49427 0.19376 0.32961 0.0
O911 O 0.57017 0.21061 0.32354 0.0
H912 H 0.28784 0.19676 0.3078 0.0
H913 H 0.19705 0.20307 0.30418 0.0
H914 H 0.18815 0.24875 0.3349 0.0
H915 H 0.27897 0.24201 0.33865 0.0
H916 H 0.72739 0.27915 0.33705 0.0
H917 H 0.81824 0.2702 0.33456 0.0
H918 H 0.7823 0.22549 0.30454 0.0
H919 H 0.69162 0.23478 0.30697 0.0
Pr920 Pr 0.34783 0.51343 0.32561 0.0
Pr921 Pr 0.24144 0.49443 0.32814 0.0
C922 C 0.44776 0.52517 0.32794 0.0
C923 C 0.50155 0.52011 0.32454 0.0
C924 C 0.52532 0.53355 0.31561 0.0
C925 C 0.57761 0.5309 0.31333 0.0
C926 C 0.60761 0.51485 0.31997 0.0
C927 C 0.58361 0.5011 0.32878 0.0
C928 C 0.5313 0.50374 0.33105 0.0
C929 C 0.29781 0.50824 0.30368 0.0
C930 C 0.32739 0.45375 0.32497 0.0
C931 C 0.14146 0.48227 0.3287 0.0
C932 C 0.08793 0.48943 0.32667 0.0
C933 C 0.04957 0.47833 0.33333 0.0
C934 C 0.99806 0.48332 0.33118 0.0
C935 C 0.98367 0.49963 0.32231 0.0
C936 C 0.02246 0.5112 0.31581 0.0
C937 C 0.07417 0.50614 0.31797 0.0
C938 C 0.29874 0.4931 0.3491 0.0
C939 C 0.25542 0.55179 0.32798 0.0
O940 O 0.42431 0.50981 0.33477 0.0
O941 O 0.41734 0.53527 0.32024 0.0
O942 O 0.29594 0.49363 0.31218 0.0
O943 O 0.32748 0.52621 0.30625 0.0
O944 O 0.27887 0.45859 0.3232 0.0
O945 O 0.36128 0.47106 0.32686 0.0
O946 O 0.17078 0.47885 0.31951 0.0
O947 O 0.16539 0.4918 0.33766 0.0
O948 O 0.29743 0.51094 0.34213 0.0
O949 O 0.26959 0.47589 0.34535 0.0
O950 O 0.30212 0.54771 0.33188 0.0
O951 O 0.22864 0.53439 0.32327 0.0
H952 H 0.50383 0.54665 0.31058 0.0
H953 H 0.59483 0.54205 0.3066 0.0
H954 H 0.60532 0.48836 0.33397 0.0
H955 H 0.51446 0.4933 0.3381 0.0
H956 H 0.05945 0.46532 0.34006 0.0
H957 H 0.96949 0.47379 0.33625 0.0
H958 H 1.01288 0.52412 0.30903 0.0
H959 H 0.10326 0.51501 0.31276 0.0
Pr960 Pr 0.50556 -0.00175 0.07296 0.0
Pr961 Pr 0.61667 0.97748 0.07504 0.0
C962 C 0.40678 0.00915 0.06824 0.0
C963 C 0.35245 0.00547 0.07163 0.0
C964 C 0.3317 0.01629 0.08175 0.0
C965 C 0.27905 0.01527 0.08395 0.0
C966 C 0.24572 0.00353 0.07607 0.0
C967 C 0.26685 0.99185 0.06621 0.0
C968 C 0.31952 0.99289 0.064 0.0
C969 C 0.54797 -0.0013 0.09582 0.0
C970 C 0.52074 0.93885 0.07365 0.0
C971 C 0.70966 0.96712 0.08409 0.0
C972 C 0.7647 0.97345 0.08302 0.0
C973 C 0.79499 0.96537 0.07355 0.0
C974 C 0.84715 0.97127 0.07295 0.0
C975 C 0.8701 0.98541 0.08178 0.0
C976 C 0.83978 0.99315 0.0913 0.0
C977 C 0.78795 0.98719 0.09192 0.0
C978 C 0.59615 0.98348 0.05081 0.0
C979 C 0.59772 0.03485 0.06854 0.0
O980 O 0.43104 0.99124 0.0633 0.0
O981 O 0.43607 0.02224 0.07505 0.0
O982 O 0.55182 0.98151 0.08855 0.0
O983 O 0.51974 0.01571 0.09147 0.0
O984 O 0.57045 0.94101 0.07559 0.0
O985 O 0.4901 0.9574 0.0724 0.0
O986 O 0.6793 0.98363 0.08844 0.0
O987 O 0.68826 0.95441 0.07569 0.0
O988 O 0.56566 0.98843 0.05913 0.0
O989 O 0.63889 0.97532 0.05503 0.0
O990 O 0.5527 0.02872 0.06436 0.0
O991 O 0.6253 0.01984 0.07497 0.0
H992 H 0.35585 0.02613 0.08782 0.0
H993 H 0.26431 0.0241 0.09175 0.0
H994 H 0.24247 0.98281 0.05989 0.0
H995 H 0.33426 0.98455 0.05607 0.0
H996 H 0.77847 0.95456 0.06658 0.0
H997 H 0.86927 0.9651 0.06548 0.0
H998 H 0.85627 0.00367 0.09838 0.0
H999 H 0.76598 0.99331 0.09944 0.0
Pr1000 Pr 0.79567 0.23952 0.07796 0.0
Pr1001 Pr 0.68658 0.2611 0.07655 0.0
C1002 C 0.89551 0.22679 0.07847 0.0
C1003 C 0.94875 0.23539 0.07717 0.0
C1004 C 0.98574 0.22744 0.08523 0.0
C1005 C 0.03686 0.23445 0.08411 0.0
C1006 C 0.05242 0.24958 0.07485 0.0
C1007 C 1.01501 0.25776 0.06683 0.0
C1008 C 0.96371 0.25077 0.06799 0.0
C1009 C 0.73548 0.23503 0.09834 0.0
C1010 C 0.78383 0.2989 0.07806 0.0
C1011 C 0.59031 0.2728 0.08302 0.0
C1012 C 0.53532 0.27042 0.07992 0.0
C1013 C 0.51447 0.28145 0.06986 0.0
C1014 C 0.46163 0.28085 0.06777 0.0
C1015 C 0.4283 0.26928 0.07569 0.0
C1016 C 0.44952 0.25767 0.08557 0.0
C1017 C 0.50228 0.25831 0.08766 0.0
C1018 C 0.72084 0.25859 0.05323 0.0
C1019 C 0.70596 0.20303 0.07029 0.0
O1020 O 0.86693 0.22512 0.06902 0.0
O1021 O 0.87031 0.23393 0.08777 0.0
O1022 O 0.73967 0.25395 0.09223 0.0
O1023 O 0.76196 0.21763 0.09379 0.0
O1024 O 0.73373 0.29666 0.07918 0.0
O1025 O 0.81431 0.28028 0.07681 0.0
O1026 O 0.61403 0.25357 0.08683 0.0
O1027 O 0.61929 0.28678 0.07657 0.0
O1028 O 0.74713 0.25185 0.06206 0.0
O1029 O 0.67649 0.26674 0.05639 0.0
O1030 O 0.75519 0.20717 0.06921 0.0
O1031 O 0.67362 0.21933 0.07433 0.0
H1032 H 0.97508 0.21563 0.09241 0.0
H1033 H 0.06409 0.22815 0.0906 0.0
H1034 H 0.02545 0.26925 0.05953 0.0
H1035 H 0.93592 0.25721 0.06166 0.0
H1036 H 0.53877 0.29092 0.0637 0.0
H1037 H 0.44683 0.28968 0.05998 0.0
H1038 H 0.42519 0.24882 0.09194 0.0
H1039 H 0.51716 0.24983 0.09554 0.0
Pr1040 Pr 0.48673 0.23998 0.19471 0.0
Pr1041 Pr 0.59844 0.26212 0.19305 0.0
C1042 C 0.38866 0.22872 0.19963 0.0
C1043 C 0.3342 0.23264 0.19649 0.0
C1044 C 0.31267 0.22214 0.18636 0.0
C1045 C 0.25991 0.22325 0.18438 0.0
C1046 C 0.22732 0.23477 0.19248 0.0
C1047 C 0.24919 0.24617 0.20233 0.0
C1048 C 0.30197 0.24502 0.20433 0.0
C1049 C 0.536 0.23513 0.17284 0.0
C1050 C 0.49857 0.29815 0.18836 0.0
C1051 C 0.69247 0.27207 0.18458 0.0
C1052 C 0.74732 0.26572 0.18587 0.0
C1053 C 0.77705 0.2737 0.19546 0.0
C1054 C 0.82908 0.26764 0.19623 0.0
C1055 C 0.8523 0.25344 0.18747 0.0
C1056 C 0.82254 0.24584 0.17784 0.0
C1057 C 0.7709 0.25196 0.17704 0.0
C1058 C 0.5715 0.25956 0.21709 0.0
C1059 C 0.57902 0.2046 0.19993 0.0
O1060 O 0.41325 0.24628 0.20484 0.0
O1061 O 0.41736 0.21614 0.19246 0.0
O1062 O 0.5367 0.25375 0.17926 0.0
O1063 O 0.50711 0.21862 0.17748 0.0
O1064 O 0.54919 0.29683 0.18872 0.0
O1065 O 0.46863 0.2796 0.19038 0.0
O1066 O 0.66258 0.25543 0.1802 0.0
O1067 O 0.67038 0.28504 0.19278 0.0
O1068 O 0.54407 0.25295 0.2085 0.0
O1069 O 0.61426 0.2684 0.21325 0.0
O1070 O 0.53456 0.21128 0.20418 0.0
O1071 O 0.60845 0.21977 0.19403 0.0
H1072 H 0.33629 0.21245 0.18013 0.0
H1073 H 0.24448 0.21462 0.17659 0.0
H1074 H 0.22529 0.25502 0.2088 0.0
H1075 H 0.31735 0.2531 0.21226 0.0
H1076 H 0.76018 0.28453 0.20237 0.0
H1077 H 0.85089 0.27372 0.20378 0.0
H1078 H 0.83933 0.23529 0.17081 0.0
H1079 H 0.74933 0.24593 0.16943 0.0
Pr1080 Pr 0.79246 0.002 0.19237 0.0
Pr1081 Pr 0.68974 0.9769 0.19635 0.0
C1082 C 0.89099 0.01734 0.19165 0.0
C1083 C 0.94622 0.01069 0.19079 0.0
C1084 C 0.97211 0.01385 0.18006 0.0
C1085 C 0.02525 0.01117 0.17936 0.0
C1086 C 0.05444 0.0054 0.1894 0.0
C1087 C 0.02841 0.0011 0.20005 0.0
C1088 C 0.97497 0.00386 0.20076 0.0
C1089 C 0.73414 -0.00426 0.17177 0.0
C1090 C 0.78992 0.94278 0.19694 0.0
C1091 C 0.59056 0.96241 0.19568 0.0
C1092 C 0.53659 0.97069 0.19435 0.0
C1093 C 0.50153 0.96693 0.20356 0.0
C1094 C 0.44986 0.97331 0.20232 0.0
C1095 C 0.43161 0.98358 0.19178 0.0
C1096 C 0.46692 0.98731 0.18256 0.0
C1097 C 0.51861 0.981 0.18382 0.0
C1098 C 0.74312 0.98638 0.21733 0.0
C1099 C 0.69661 0.03725 0.19515 0.0
O1100 O 0.86624 0.01342 0.20147 0.0
O1101 O 0.86231 0.01465 0.1823 0.0
O1102 O 0.73968 0.97988 0.17972 0.0
O1103 O 0.75937 0.0151 0.17437 0.0
O1104 O 0.74027 0.94208 0.19484 0.0
O1105 O 0.81537 0.96311 0.19741 0.0
O1106 O 0.62052 0.96268 0.18645 0.0
O1107 O 0.61455 0.96795 0.20541 0.0
O1108 O 0.7396 0.00066 0.20866 0.0
O1109 O 0.71746 0.96675 0.21541 0.0
O1110 O 0.74615 0.03605 0.19712 0.0
O1111 O 0.66917 0.01769 0.19309 0.0
H1112 H 0.95146 0.01924 0.17222 0.0
H1113 H 0.0437 0.01421 0.17095 0.0
H1114 H 0.04955 -0.00327 0.20797 0.0
H1115 H 0.95648 0.00143 0.20921 0.0
H1116 H 0.51408 0.95885 0.21175 0.0
H1117 H 0.42436 0.97041 0.20969 0.0
H1118 H 0.45454 0.99478 0.17423 0.0
H1119 H 0.54431 0.98398 0.17649 0.0
Pr1120 Pr 0.43174 0.01297 0.94643 0.0
Pr1121 Pr 0.55374 0.99316 0.94324 0.0
C1122 C 0.33763 0.02863 0.94076 0.0
C1123 C 0.28405 0.02052 0.93973 0.0
C1124 C 0.25468 0.01469 0.94969 0.0
C1125 C 0.20336 0.00809 0.94846 0.0
C1126 C 0.18047 0.00717 0.93725 0.0
C1127 C 0.21009 0.01286 0.92731 0.0
C1128 C 0.26123 0.01951 0.92854 0.0
C1129 C 0.47816 0.00252 0.96827 0.0
C1130 C 0.45686 0.95413 0.94539 0.0
C1131 C 0.64856 0.9779 0.94828 0.0
C1132 C 0.7027 0.98108 0.94526 0.0
C1133 C 0.71879 0.98468 0.9336 0.0
C1134 C 0.77088 0.98689 0.93104 0.0
C1135 C 0.80756 0.98566 0.94011 0.0
C1136 C 0.79098 0.98253 0.95178 0.0
C1137 C 0.73905 0.98026 0.95432 0.0
C1138 C 0.50497 0.00302 0.92154 0.0
C1139 C 0.53182 0.05178 0.94496 0.0
O1140 O 0.36999 0.02021 0.93298 0.0
O1141 O 0.35722 0.03093 0.95134 0.0
O1142 O 0.49697 0.00056 0.95806 0.0
O1143 O 0.43119 0.01016 0.96736 0.0
O1144 O 0.50618 0.95871 0.9467 0.0
O1145 O 0.42112 0.971 0.94436 0.0
O1146 O 0.62654 -0.00422 0.95385 0.0
O1147 O 0.61898 0.9672 0.94053 0.0
O1148 O 0.48765 0.00454 0.93183 0.0
O1149 O 0.55272 -0.00362 0.92217 0.0
O1150 O 0.48136 0.04866 0.94545 0.0
O1151 O 0.56549 0.03415 0.94448 0.0
H1152 H 0.27113 0.01534 0.95845 0.0
H1153 H 0.18169 0.00357 0.95628 0.0
H1154 H 0.19347 0.0127 0.91857 0.0
H1155 H 0.28286 0.02417 0.92073 0.0
H1156 H 0.69123 0.98562 0.92649 0.0
H1157 H 0.78245 0.98961 0.92198 0.0
H1158 H 0.81822 0.98123 0.95895 0.0
H1159 H 0.72724 0.97754 0.96337 0.0
Pr1160 Pr 0.36418 0.72486 0.94358 0.0
Pr1161 Pr 0.25399 0.74855 0.94523 0.0
C1162 C 0.4586 0.71281 0.9359 0.0
C1163 C 0.51337 0.71517 0.93909 0.0
C1164 C 0.5295 0.71655 0.95087 0.0
C1165 C 0.58173 0.71827 0.95363 0.0
C1166 C 0.61908 0.71871 0.94466 0.0
C1167 C 0.60244 0.71776 0.93286 0.0
C1168 C 0.55027 0.71601 0.93013 0.0
C1169 C 0.33886 0.72836 0.96767 0.0
C1170 C 0.34945 0.78466 0.94747 0.0
C1171 C 0.15401 0.76048 0.94761 0.0
C1172 C 0.10055 0.75135 0.94873 0.0
C1173 C 0.07065 0.74712 0.9386 0.0
C1174 C 1.01882 0.74099 0.93953 0.0
C1175 C 0.99515 0.739 0.95062 0.0
C1176 C 0.02528 0.7429 0.96075 0.0
C1177 C 0.07716 0.74907 0.95982 0.0
C1178 C 0.30296 0.75082 0.92321 0.0
C1179 C 0.26393 0.68948 0.94183 0.0
O1180 O 0.43492 0.73247 0.93266 0.0
O1181 O 0.43015 0.69855 0.94235 0.0
O1182 O 0.31069 0.73518 0.95923 0.0
O1183 O 0.38081 0.71913 0.96363 0.0
O1184 O 0.30167 0.78189 0.95094 0.0
O1185 O 0.37686 0.76656 0.94331 0.0
O1186 O 0.18538 0.75885 0.9566 0.0
O1187 O 0.17687 0.75754 0.93748 0.0
O1188 O 0.3022 0.73255 0.92984 0.0
O1189 O 0.27703 0.76834 0.92784 0.0
O1190 O 0.31239 0.6919 0.93873 0.0
O1191 O 0.23691 0.7075 0.94607 0.0
H1192 H 0.50177 0.7162 0.95795 0.0
H1193 H 0.59279 0.71937 0.96281 0.0
H1194 H 0.6298 0.71778 0.92571 0.0
H1195 H 0.53873 0.71505 0.92097 0.0
H1196 H 0.08703 0.74897 0.92989 0.0
H1197 H 0.99728 0.73782 0.93153 0.0
H1198 H 1.00844 0.74187 0.96945 0.0
H1199 H 0.09864 0.75258 0.9678 0.0
Pr1200 Pr 0.44957 0.7281 0.82561 0.0
Pr1201 Pr 0.55423 0.75201 0.82766 0.0
C1202 C 0.35063 0.71427 0.82828 0.0
C1203 C 0.29619 0.72028 0.82557 0.0
C1204 C 0.27221 0.71089 0.81547 0.0
C1205 C 0.21997 0.71471 0.81341 0.0
C1206 C 0.1899 0.72797 0.82141 0.0
C1207 C 0.21395 0.73745 0.8315 0.0
C1208 C 0.2663 0.73362 0.83356 0.0
C1209 C 0.49507 0.7371 0.80363 0.0
C1210 C 0.45992 0.7888 0.82652 0.0
C1211 C 0.6537 0.76567 0.82781 0.0
C1212 C 0.70773 0.75866 0.82578 0.0
C1213 C 0.7451 0.76641 0.83381 0.0
C1214 C 0.79696 0.76151 0.8319 0.0
C1215 C 0.81297 0.74868 0.82186 0.0
C1216 C 0.77516 0.74037 0.81396 0.0
C1217 C 0.72313 0.74532 0.81589 0.0
C1218 C 0.50089 0.74781 0.84902 0.0
C1219 C 0.5477 0.69355 0.82437 0.0
O1220 O 0.37516 0.72751 0.83595 0.0
O1221 O 0.38 0.70679 0.81971 0.0
O1222 O 0.49592 0.75125 0.81237 0.0
O1223 O 0.4681 0.7181 0.80593 0.0
O1224 O 0.50927 0.78724 0.82435 0.0
O1225 O 0.43132 0.76942 0.82816 0.0
O1226 O 0.62344 0.76864 0.81873 0.0
O1227 O 0.63055 0.7564 0.83693 0.0
O1228 O 0.50404 0.73122 0.84136 0.0
O1229 O 0.52673 0.76654 0.84578 0.0
O1230 O 0.50141 0.69417 0.82899 0.0
O1231 O 0.57083 0.71335 0.82105 0.0
H1232 H 0.29359 0.70013 0.80923 0.0
H1233 H 0.20291 0.70673 0.80564 0.0
H1234 H 0.19239 0.74795 0.83782 0.0
H1235 H 0.28319 0.74088 0.84152 0.0
H1236 H 0.73421 0.77677 0.8415 0.0
H1237 H 0.82462 0.76849 0.83812 0.0
H1238 H 0.78574 0.73009 0.80623 0.0
H1239 H 0.6951 0.73894 0.80959 0.0
Pr1240 Pr 0.35447 0.01435 0.82109 0.0
Pr1241 Pr 0.25056 0.99405 0.82668 0.0
C1242 C 0.45412 0.02737 0.81955 0.0
C1243 C 0.50829 0.02168 0.82236 0.0
C1244 C 0.54328 0.01821 0.81312 0.0
C1245 C 0.59573 0.01596 0.81538 0.0
C1246 C 0.61464 0.01726 0.82697 0.0
C1247 C 0.57928 0.0198 0.83627 0.0
C1248 C 0.52679 0.02203 0.83399 0.0
C1249 C 0.29783 0.0039 0.80075 0.0
C1250 C 0.33977 0.95546 0.82621 0.0
C1251 C 0.15102 0.98075 0.82833 0.0
C1252 C 0.09717 0.98942 0.82887 0.0
C1253 C 0.07429 0.99475 0.83978 0.0
C1254 C 0.0224 0.00075 0.84046 0.0
C1255 C 0.99168 0.00154 0.83027 0.0
C1256 C 1.01464 -0.00367 0.81934 0.0
C1257 C 0.06666 0.9903 0.81866 0.0
C1258 C 0.31077 0.00366 0.84676 0.0
C1259 C 0.25843 0.05165 0.81975 0.0
O1260 O 0.42375 0.03438 0.82803 0.0
O1261 O 0.4309 0.01442 0.81157 0.0
O1262 O 0.30039 0.99048 0.8098 0.0
O1263 O 0.32415 0.02344 0.80224 0.0
O1264 O 0.29139 0.9583 0.82355 0.0
O1265 O 0.37083 0.97413 0.82738 0.0
O1266 O 0.17556 0.98228 0.81833 0.0
O1267 O 0.18051 0.98454 0.83744 0.0
O1268 O 0.30652 0.0174 0.83791 0.0
O1269 O 0.28225 0.98474 0.84558 0.0
O1270 O 0.30844 0.05089 0.82136 0.0
O1271 O 0.23012 0.03222 0.82018 0.0
H1272 H 0.53023 0.0181 0.80405 0.0
H1273 H 0.62162 0.01427 0.80799 0.0
H1274 H 0.59226 0.02046 0.84532 0.0
H1275 H 0.50094 0.02466 0.84133 0.0
H1276 H 0.09621 0.9938 0.84786 0.0
H1277 H 1.0061 0.00418 0.84906 0.0
H1278 H 0.99245 -0.00303 0.81129 0.0
H1279 H 0.08278 0.98598 0.81013 0.0
H1280 H 1.00611 0.39816 0.08237 0.0
H1281 H 0.92033 0.43741 0.05582 0.0
H1282 H 0.85539 0.40576 0.05552 0.0
H1283 H 0.97569 0.33726 0.06967 0.0
H1284 H 0.97162 0.32347 0.084 0.0
H1285 H 1.0139 0.34859 0.08167 0.0
H1286 H 0.96983 0.37115 0.09886 0.0
H1287 H 0.92648 0.3464 0.10103 0.0
H1288 H 0.90178 0.37616 0.09837 0.0
H1289 H 0.79335 0.37353 0.05992 0.0
H1290 H 0.7471 0.33637 0.0653 0.0
H1291 H 0.87437 0.31487 0.08742 0.0
C1292 C 0.97451 0.39965 0.07624 0.0
C1293 C 0.9681 0.4205 0.06925 0.0
C1294 C 0.92585 0.42184 0.06141 0.0
C1295 C 0.88848 0.40397 0.06118 0.0
C1296 C 0.89412 0.3844 0.06863 0.0
C1297 C 0.9368 0.38154 0.07571 0.0
C1298 C 0.93289 0.3583 0.0827 0.0
C1299 C 0.97609 0.34087 0.0793 0.0
C1300 C 0.93274 0.36331 0.09603 0.0
C1301 C 0.88115 0.34906 0.07857 0.0
C1302 C 0.85917 0.3647 0.07062 0.0
C1303 C 0.81043 0.36087 0.06599 0.0
C1304 C 0.78414 0.33992 0.06921 0.0
C1305 C 0.80712 0.3229 0.07677 0.0
C1306 C 0.856 0.32768 0.08162 0.0
H1307 H 0.50676 0.89952 0.08833 0.0
H1308 H 0.47724 0.92707 0.05326 0.0
H1309 H 0.41452 0.89486 0.04982 0.0
H1310 H 0.49138 0.83391 0.07998 0.0
H1311 H 0.4616 0.82682 0.09386 0.0
H1312 H 0.50858 0.85044 0.09307 0.0
H1313 H 0.44311 0.87979 0.10236 0.0
H1314 H 0.39535 0.85651 0.10279 0.0
H1315 H 0.38221 0.88435 0.09526 0.0
H1316 H 0.34536 0.86472 0.05129 0.0
H1317 H 0.28715 0.83089 0.05575 0.0
H1318 H 0.36481 0.8197 0.08905 0.0
C1319 C 0.48875 0.89799 0.07977 0.0
C1320 C 0.49714 0.91549 0.07097 0.0
C1321 C 0.47165 0.91355 0.06001 0.0
C1322 C 0.43564 0.89549 0.05802 0.0
C1323 C 0.42598 0.87924 0.06703 0.0
C1324 C 0.4529 0.87966 0.07754 0.0
C1325 C 0.43388 0.86007 0.08576 0.0
C1326 C 0.4764 0.84172 0.08831 0.0
C1327 C 0.41237 0.87084 0.09722 0.0
C1328 C 0.39166 0.84911 0.07829 0.0
C1329 C 0.38723 0.8608 0.06762 0.0
C1330 C 0.34903 0.85505 0.05952 0.0
C1331 C 0.31574 0.83609 0.06217 0.0
C1332 C 0.32166 0.8229 0.07271 0.0
C1333 C 0.3597 0.82963 0.08093 0.0
H1334 H 0.79139 0.89856 0.18559 0.0
H1335 H 0.85783 0.93898 0.21449 0.0
H1336 H 0.92369 0.90789 0.21708 0.0
H1337 H 0.81767 0.83769 0.19845 0.0
H1338 H 0.83201 0.82489 0.18424 0.0
H1339 H 0.78685 0.84923 0.18541 0.0
H1340 H 0.83994 0.87343 0.17024 0.0
H1341 H 0.88611 0.84949 0.1693 0.0
H1342 H 0.90645 0.87942 0.17318 0.0
H1343 H 0.98898 0.87581 0.21493 0.0
H1344 H 0.04036 0.83937 0.21072 0.0
H1345 H 0.93046 0.81816 0.18405 0.0
C1346 C 0.81873 0.90032 0.19271 0.0
C1347 C 0.81969 0.9211 0.19985 0.0
C1348 C 0.8567 0.92316 0.20891 0.0
C1349 C 0.8944 0.90568 0.21043 0.0
C1350 C 0.89439 0.88605 0.20287 0.0
C1351 C 0.85685 0.88282 0.1944 0.0
C1352 C 0.86684 0.86014 0.18734 0.0
C1353 C 0.82325 0.84191 0.18897 0.0
C1354 C 0.87533 0.86598 0.17424 0.0
C1355 C 0.91586 0.85149 0.1931 0.0
C1356 C 0.93148 0.86692 0.20192 0.0
C1357 C 0.97685 0.86334 0.20816 0.0
C1358 C 1.0061 0.84283 0.20563 0.0
C1359 C 0.98922 0.82615 0.19709 0.0
C1360 C 0.94399 0.83073 0.19065 0.0
H1361 H 0.37798 0.42627 0.20202 0.0
H1362 H 0.24955 0.40305 0.18062 0.0
H1363 H 0.29769 0.36673 0.17481 0.0
H1364 H 0.47912 0.40446 0.18305 0.0
H1365 H 0.5191 0.39445 0.19502 0.0
H1366 H 0.47598 0.41936 0.19714 0.0
H1367 H 0.43383 0.39759 0.21482 0.0
H1368 H 0.47764 0.37295 0.21292 0.0
H1369 H 0.40973 0.36748 0.2129 0.0
H1370 H 0.35907 0.33383 0.17103 0.0
H1371 H 0.42263 0.30143 0.17262 0.0
H1372 H 0.51077 0.34412 0.19733 0.0
C1373 C 0.35999 0.41348 0.19613 0.0
C1374 C 0.3101 0.41748 0.19171 0.0
C1375 C 0.28756 0.40026 0.18415 0.0
C1376 C 0.31486 0.37976 0.18069 0.0
C1377 C 0.36442 0.37667 0.18496 0.0
C1378 C 0.3864 0.3927 0.19274 0.0
C1379 C 0.43876 0.38409 0.19671 0.0
C1380 C 0.48072 0.40164 0.19274 0.0
C1381 C 0.44004 0.38029 0.21013 0.0
C1382 C 0.44239 0.36042 0.1901 0.0
C1383 C 0.39953 0.35696 0.18314 0.0
C1384 C 0.39275 0.33631 0.17643 0.0
C1385 C 0.42923 0.31808 0.17735 0.0
C1386 C 0.47163 0.3204 0.18504 0.0
C1387 C 0.47936 0.34218 0.19119 0.0
H1388 H 0.03878 0.5938 0.94966 0.0
H1389 H 0.10883 0.55335 0.92131 0.0
H1390 H 0.17299 0.58534 0.91864 0.0
H1391 H 0.06435 0.65538 0.93713 0.0
H1392 H 0.07772 0.66771 0.9515 0.0
H1393 H 0.03273 0.64338 0.94995 0.0
H1394 H 0.0848 0.61868 0.96513 0.0
H1395 H 0.13075 0.64259 0.96647 0.0
H1396 H 0.15154 0.61282 0.96242 0.0
H1397 H 0.23642 0.61841 0.92086 0.0
H1398 H 0.2883 0.65412 0.92597 0.0
H1399 H 0.17728 0.67356 0.95274 0.0
C1400 C 0.06629 0.59231 0.94257 0.0
C1401 C 0.0686 0.57144 0.93554 0.0
C1402 C 0.10628 0.56947 0.92665 0.0
C1403 C 0.14299 0.58744 0.92511 0.0
C1404 C 0.14146 0.60731 0.93254 0.0
C1405 C 0.10354 0.61018 0.94094 0.0
C1406 C 0.11288 0.63258 0.94825 0.0
C1407 C 0.06933 0.65084 0.94661 0.0
C1408 C 0.12044 0.62628 0.96134 0.0
C1409 C 0.16218 0.64148 0.94277 0.0
C1410 C 0.17815 0.62658 0.93377 0.0
C1411 C 0.22394 0.63048 0.92777 0.0
C1412 C 0.25343 0.65062 0.9308 0.0
C1413 C 0.23671 0.66664 0.93969 0.0
C1414 C 0.19081 0.66175 0.94582 0.0
H1415 H 0.7439 0.15262 0.93379 0.0
H1416 H 0.69376 0.18404 0.96682 0.0
H1417 H 0.62925 0.15229 0.96901 0.0
H1418 H 0.62454 0.13568 0.92325 0.0
H1419 H 0.64273 0.10696 0.91719 0.0
H1420 H 0.6893 0.13067 0.91841 0.0
H1421 H 0.74889 0.10328 0.93074 0.0
H1422 H 0.70336 0.07919 0.92918 0.0
H1423 H 0.72402 0.08845 0.94364 0.0
H1424 H 0.56203 0.12131 0.96633 0.0
H1425 H 0.50979 0.08549 0.96153 0.0
H1426 H 0.60602 0.07152 0.93121 0.0
C1427 C 0.72073 0.15215 0.94169 0.0
C1428 C 0.72369 0.17077 0.95013 0.0
C1429 C 0.69196 0.16992 0.96024 0.0
C1430 C 0.65489 0.15208 0.96154 0.0
C1431 C 0.6505 0.13486 0.95274 0.0
C1432 C 0.68364 0.13407 0.94324 0.0
C1433 C 0.67021 0.11325 0.93516 0.0
C1434 C 0.65585 0.12219 0.92277 0.0
C1435 C 0.71424 0.09495 0.93466 0.0
C1436 C 0.624 0.10299 0.94151 0.0
C1437 C 0.61279 0.11604 0.95151 0.0
C1438 C 0.57077 0.11067 0.95861 0.0
C1439 C 0.54084 0.09057 0.95573 0.0
C1440 C 0.55379 0.07601 0.94599 0.0
C1441 C 0.59524 0.08258 0.93867 0.0
H1442 H 0.10865 0.17113 0.83627 0.0
H1443 H 1.00302 0.15242 0.80824 0.0
H1444 H 0.05873 0.11829 0.80266 0.0
H1445 H 0.22398 0.15745 0.82118 0.0
H1446 H 0.25591 0.14468 0.83378 0.0
H1447 H 0.20768 0.16744 0.83581 0.0
H1448 H 0.15628 0.1392 0.84957 0.0
H1449 H 0.20522 0.11671 0.84789 0.0
H1450 H 0.13967 0.10947 0.84453 0.0
H1451 H 0.12774 0.08804 0.79944 0.0
H1452 H 0.19549 0.05755 0.80138 0.0
H1453 H 0.25551 0.09455 0.83203 0.0
C1454 C 0.09684 0.15959 0.82907 0.0
C1455 C 0.05148 0.16435 0.82267 0.0
C1456 C 0.03722 0.14889 0.81334 0.0
C1457 C 0.06902 0.12972 0.81001 0.0
C1458 C 0.11452 0.12616 0.8162 0.0
C1459 C 0.12772 0.14021 0.82575 0.0
C1460 C 0.17758 0.13185 0.83125 0.0
C1461 C 0.21871 0.15153 0.83045 0.0
C1462 C 0.16917 0.12382 0.84407 0.0
C1463 C 0.19036 0.11073 0.82332 0.0
C1464 C 0.1539 0.10819 0.81455 0.0
C1465 C 0.15637 0.08981 0.80627 0.0
C1466 C 0.19526 0.07272 0.80738 0.0
C1467 C 0.23094 0.07393 0.81676 0.0
C1468 C 0.22959 0.09362 0.8246 0.0
H1469 H 0.55851 0.65428 0.83919 0.0
H1470 H 0.60287 0.68285 0.80515 0.0
H1471 H 0.66667 0.65066 0.80295 0.0
H1472 H 0.68329 0.63837 0.84841 0.0
H1473 H 0.66573 0.6108 0.85568 0.0
H1474 H 0.62016 0.63498 0.85453 0.0
H1475 H 0.55512 0.6068 0.84423 0.0
H1476 H 0.59981 0.58236 0.84572 0.0
H1477 H 0.57467 0.58998 0.83141 0.0
H1478 H 0.73171 0.61862 0.80521 0.0
H1479 H 0.78244 0.58233 0.80993 0.0
H1480 H 0.69423 0.57234 0.84185 0.0
C1481 C 0.58053 0.6532 0.83114 0.0
C1482 C 0.5758 0.67096 0.82232 0.0
C1483 C 0.60607 0.66937 0.812 0.0
C1484 C 0.64265 0.65128 0.8107 0.0
C1485 C 0.64847 0.63478 0.81978 0.0
C1486 C 0.6175 0.63506 0.82967 0.0
C1487 C 0.63246 0.61508 0.83809 0.0
C1488 C 0.65152 0.62543 0.84988 0.0
C1489 C 0.58786 0.59751 0.83996 0.0
C1490 C 0.67593 0.60347 0.83129 0.0
C1491 C 0.68532 0.61558 0.82091 0.0
C1492 C 0.72457 0.60883 0.81328 0.0
C1493 C 0.75363 0.58846 0.81609 0.0
C1494 C 0.74252 0.57494 0.82629 0.0
C1495 C 0.70374 0.5827 0.83407 0.0
H1496 H 1.00377 0.90016 0.58756 0.0
H1497 H 0.96461 0.92558 0.55259 0.0
H1498 H 0.89959 0.89388 0.55076 0.0
H1499 H 0.98342 0.83418 0.58032 0.0
H1500 H 0.95834 0.82808 0.59479 0.0
H1501 H 1.0057 0.85123 0.59282 0.0
H1502 H 0.94463 0.88156 0.60293 0.0
H1503 H 0.89628 0.85875 0.60449 0.0
H1504 H 0.88169 0.88635 0.59688 0.0
H1505 H 0.82958 0.86457 0.55389 0.0
H1506 H 0.7734 0.83072 0.55956 0.0
H1507 H 0.86117 0.82102 0.59161 0.0
C1508 C 0.98315 0.89825 0.57933 0.0
C1509 C 0.98931 0.91518 0.57017 0.0
C1510 C 0.96059 0.91262 0.55966 0.0
C1511 C 0.9232 0.89486 0.55858 0.0
C1512 C 0.91554 0.8794 0.56801 0.0
C1513 C 0.94593 0.88015 0.578 0.0
C1514 C 0.92904 0.86115 0.58678 0.0
C1515 C 0.97166 0.84256 0.58879 0.0
C1516 C 0.9119 0.87265 0.59846 0.0
C1517 C 0.88399 0.85019 0.58025 0.0
C1518 C 0.87633 0.86138 0.56955 0.0
C1519 C 0.83564 0.85533 0.56216 0.0
C1520 C 0.80343 0.83639 0.56552 0.0
C1521 C 0.81284 0.82356 0.57603 0.0
C1522 C 0.85306 0.8308 0.58357 0.0
H1523 H 0.36799 0.31564 0.56417 0.0
H1524 H 0.25927 0.33558 0.59137 0.0
H1525 H 0.31005 0.37201 0.59565 0.0
H1526 H 0.48177 0.33585 0.57882 0.0
H1527 H 0.51134 0.34733 0.56563 0.0
H1528 H 0.46714 0.32256 0.56472 0.0
H1529 H 0.41151 0.34616 0.54978 0.0
H1530 H 0.4561 0.37076 0.55046 0.0
H1531 H 0.3894 0.37589 0.55353 0.0
H1532 H 0.37195 0.40554 0.59714 0.0
H1533 H 0.43508 0.43772 0.59401 0.0
H1534 H 0.50403 0.39688 0.56561 0.0
C1535 C 0.35477 0.32772 0.57101 0.0
C1536 C 0.3098 0.32277 0.5775 0.0
C1537 C 0.29344 0.3391 0.58627 0.0
C1538 C 0.3223 0.35968 0.58884 0.0
C1539 C 0.36707 0.3637 0.58248 0.0
C1540 C 0.38281 0.34845 0.5736 0.0
C1541 C 0.43108 0.35761 0.56771 0.0
C1542 C 0.47545 0.33977 0.56932 0.0
C1543 C 0.42142 0.36293 0.55459 0.0
C1544 C 0.44 0.38052 0.57465 0.0
C1545 C 0.40282 0.38341 0.58322 0.0
C1546 C 0.40128 0.40348 0.5905 0.0
C1547 C 0.43736 0.42158 0.58868 0.0
C1548 C 0.47444 0.41957 0.57966 0.0
C1549 C 0.47674 0.39852 0.57274 0.0
H1550 H 1.01335 0.34282 0.68555 0.0
H1551 H 0.95897 0.30994 0.7178 0.0
H1552 H 0.8957 0.34228 0.7202 0.0
H1553 H 0.99305 0.40731 0.69601 0.0
H1554 H 0.97395 0.41693 0.6815 0.0
H1555 H 1.01968 0.39293 0.68316 0.0
H1556 H 0.96211 0.36571 0.67025 0.0
H1557 H 0.91533 0.38928 0.6689 0.0
H1558 H 0.89687 0.36035 0.67463 0.0
H1559 H 0.82838 0.37317 0.71725 0.0
H1560 H 0.77381 0.40779 0.71181 0.0
H1561 H 0.87442 0.42352 0.68248 0.0
C1562 C 0.98985 0.34319 0.69339 0.0
C1563 C 0.9913 0.32403 0.70157 0.0
C1564 C 0.9587 0.32461 0.71152 0.0
C1565 C 0.9223 0.34278 0.71291 0.0
C1566 C 0.91943 0.36058 0.70436 0.0
C1567 C 0.95343 0.36158 0.69503 0.0
C1568 C 0.94068 0.3826 0.687 0.0
C1569 C 0.98444 0.40104 0.68692 0.0
C1570 C 0.928 0.37395 0.67445 0.0
C1571 C 0.89356 0.39262 0.6931 0.0
C1572 C 0.88161 0.37937 0.70299 0.0
C1573 C 0.83791 0.38405 0.70966 0.0
C1574 C 0.80674 0.40349 0.70642 0.0
C1575 C 0.81995 0.41819 0.69675 0.0
C1576 C 0.86362 0.41251 0.68994 0.0
H1577 H 0.42165 0.81452 0.70473 0.0
H1578 H 0.53489 0.83525 0.67876 0.0
H1579 H 0.48219 0.87068 0.67349 0.0
H1580 H 0.3105 0.8314 0.68873 0.0
H1581 H 0.27662 0.84303 0.70133 0.0
H1582 H 0.3232 0.81947 0.7032 0.0
H1583 H 0.37281 0.84539 0.71836 0.0
H1584 H 0.32561 0.86872 0.71678 0.0
H1585 H 0.39221 0.87541 0.71441 0.0
H1586 H 0.41599 0.90251 0.67054 0.0
H1587 H 0.34869 0.93326 0.67243 0.0
H1588 H 0.27881 0.89282 0.70078 0.0
C1589 C 0.43561 0.82669 0.69802 0.0
C1590 C 0.4823 0.8222 0.69211 0.0
C1591 C 0.49953 0.83852 0.68345 0.0
C1592 C 0.46953 0.85849 0.68032 0.0
C1593 C 0.42286 0.86192 0.68604 0.0
C1594 C 0.40657 0.84683 0.69492 0.0
C1595 C 0.35601 0.85515 0.70006 0.0
C1596 C 0.31411 0.83613 0.69822 0.0
C1597 C 0.36204 0.86155 0.71318 0.0
C1598 C 0.34612 0.87735 0.69265 0.0
C1599 C 0.38493 0.88062 0.68451 0.0
C1600 C 0.38547 0.90013 0.67687 0.0
C1601 C 0.34686 0.91738 0.67794 0.0
C1602 C 0.30825 0.91516 0.68661 0.0
C1603 C 0.30701 0.89455 0.69386 0.0
H1604 H 0.13223 0.06517 0.43283 0.0
H1605 H 1.0058 0.08729 0.45503 0.0
H1606 H 0.0504 0.12544 0.4594 0.0
H1607 H 0.23448 0.09113 0.44942 0.0
H1608 H 0.27001 0.1016 0.43683 0.0
H1609 H 0.2293 0.0756 0.43553 0.0
H1610 H 0.18012 0.09557 0.4183 0.0
H1611 H 0.22139 0.12139 0.41938 0.0
H1612 H 0.15307 0.1251 0.42031 0.0
H1613 H 0.1098 0.15901 0.46251 0.0
H1614 H 0.1718 0.19171 0.46096 0.0
H1615 H 0.25821 0.15096 0.43505 0.0
C1616 C 0.11394 0.07824 0.43851 0.0
C1617 C 0.06574 0.07347 0.44365 0.0
C1618 C 0.04249 0.09084 0.45097 0.0
C1619 C 0.06778 0.11236 0.45359 0.0
C1620 C 0.11572 0.11636 0.4486 0.0
C1621 C 0.13801 0.10021 0.44094 0.0
C1622 C 0.18829 0.10992 0.43619 0.0
C1623 C 0.23318 0.09359 0.4397 0.0
C1624 C 0.18554 0.11319 0.42275 0.0
C1625 C 0.19094 0.13399 0.4425 0.0
C1626 C 0.149 0.13687 0.44979 0.0
C1627 C 0.14233 0.15719 0.4567 0.0
C1628 C 0.17798 0.17567 0.45573 0.0
C1629 C 0.21949 0.17413 0.44771 0.0
C1630 C 0.22702 0.15264 0.44126 0.0
H1631 H 0.74374 0.65022 0.45597 0.0
H1632 H 0.70663 0.68358 0.4226 0.0
H1633 H 0.64296 0.65174 0.41859 0.0
H1634 H 0.72688 0.58657 0.44592 0.0
H1635 H 0.69989 0.57776 0.45986 0.0
H1636 H 0.74635 0.60161 0.45926 0.0
H1637 H 0.6823 0.62958 0.47002 0.0
H1638 H 0.63497 0.60611 0.47027 0.0
H1639 H 0.62007 0.63473 0.46368 0.0
H1640 H 0.57561 0.61911 0.41943 0.0
H1641 H 0.52065 0.58364 0.42349 0.0
H1642 H 0.60357 0.57118 0.45599 0.0
C1643 C 0.72378 0.65009 0.44761 0.0
C1644 C 0.73079 0.66881 0.43942 0.0
C1645 C 0.70249 0.66889 0.4288 0.0
C1646 C 0.66591 0.65107 0.42651 0.0
C1647 C 0.65821 0.63331 0.43497 0.0
C1648 C 0.68724 0.63231 0.44517 0.0
C1649 C 0.67018 0.6118 0.45299 0.0
C1650 C 0.71339 0.59334 0.4546 0.0
C1651 C 0.65073 0.62113 0.46494 0.0
C1652 C 0.62685 0.60165 0.44567 0.0
C1653 C 0.62 0.61444 0.43537 0.0
C1654 C 0.58101 0.60876 0.42741 0.0
C1655 C 0.54957 0.58885 0.42983 0.0
C1656 C 0.55797 0.57486 0.44004 0.0
C1657 C 0.59646 0.58165 0.44811 0.0
H1658 H 0.25339 0.59536 0.31658 0.0
H1659 H 0.18892 0.55552 0.34576 0.0
H1660 H 0.12188 0.58642 0.34815 0.0
H1661 H 0.22496 0.65687 0.32893 0.0
H1662 H 0.21073 0.66878 0.31454 0.0
H1663 H 0.2569 0.64497 0.31612 0.0
H1664 H 0.2056 0.6195 0.30108 0.0
H1665 H 0.15837 0.64289 0.29974 0.0
H1666 H 0.13925 0.61295 0.30391 0.0
H1667 H 0.05549 0.61862 0.34568 0.0
H1668 H 1.00312 0.65442 0.3409 0.0
H1669 H 0.11203 0.67419 0.31379 0.0
C1670 C 0.22648 0.59383 0.32378 0.0
C1671 C 0.2268 0.57351 0.33121 0.0
C1672 C 0.1898 0.57138 0.34022 0.0
C1673 C 0.15134 0.58868 0.34155 0.0
C1674 C 0.15061 0.60808 0.33382 0.0
C1675 C 0.18799 0.61117 0.32532 0.0
C1676 C 0.1773 0.63334 0.31795 0.0
C1677 C 0.22 0.65209 0.31948 0.0
C1678 C 0.16968 0.62676 0.3049 0.0
C1679 C 0.12772 0.64182 0.32348 0.0
C1680 C 0.1127 0.62689 0.33254 0.0
C1681 C 0.0672 0.63066 0.3387 0.0
C1682 C 0.03734 0.65083 0.33584 0.0
C1683 C 0.0535 0.66703 0.327 0.0
C1684 C 0.09877 0.66212 0.32062 0.0
H1685 H 0.6858 0.06836 0.31444 0.0
H1686 H 0.78174 0.08371 0.34468 0.0
H1687 H 0.73092 0.12051 0.34868 0.0
H1688 H 0.67335 0.13106 0.30522 0.0
H1689 H 0.60887 0.12688 0.30002 0.0
H1690 H 0.65326 0.10214 0.29974 0.0
H1691 H 0.58944 0.07671 0.31194 0.0
H1692 H 0.54541 0.10158 0.31252 0.0
H1693 H 0.5674 0.08782 0.32598 0.0
H1694 H 0.66767 0.15463 0.34968 0.0
H1695 H 0.60439 0.18689 0.34611 0.0
H1696 H 0.55131 0.14992 0.31482 0.0
C1697 C 0.69627 0.0796 0.32186 0.0
C1698 C 0.7374 0.07328 0.32931 0.0
C1699 C 0.75053 0.08843 0.33884 0.0
C1700 C 0.72162 0.10918 0.34122 0.0
C1701 C 0.68044 0.1146 0.33385 0.0
C1702 C 0.66855 0.10055 0.3242 0.0
C1703 C 0.624 0.11089 0.31732 0.0
C1704 C 0.64088 0.11818 0.30484 0.0
C1705 C 0.57889 0.09319 0.31692 0.0
C1706 C 0.61167 0.13273 0.32477 0.0
C1707 C 0.64458 0.13445 0.33429 0.0
C1708 C 0.6417 0.15343 0.34227 0.0
C1709 C 0.60548 0.17152 0.34024 0.0
C1710 C 0.57256 0.17044 0.33037 0.0
C1711 C 0.57516 0.15069 0.32262 0.0
H1712 H 0.0942 0.52632 0.11325 0.0
H1713 H 0.08197 0.44962 0.10703 0.0
H1714 H 0.12706 0.44176 0.12581 0.0
H1715 H 0.22238 0.52403 0.12564 0.0
H1716 H 0.21068 0.54763 0.1362 0.0
H1717 H 0.17628 0.54723 0.12244 0.0
H1718 H 0.09054 0.54805 0.13381 0.0
H1719 H 0.12465 0.54835 0.1476 0.0
H1720 H 0.07782 0.52532 0.14474 0.0
H1721 H 0.16928 0.44224 0.1459 0.0
H1722 H 0.21391 0.45083 0.16464 0.0
H1723 H 0.20586 0.52723 0.1573 0.0
C1724 C 0.10103 0.50787 0.11586 0.0
C1725 C 0.08409 0.48854 0.10871 0.0
C1726 C 0.09441 0.46469 0.11236 0.0
C1727 C 0.1199 0.46007 0.12304 0.0
C1728 C 0.13575 0.47948 0.12994 0.0
C1729 C 0.12744 0.50294 0.12641 0.0
C1730 C 0.15014 0.52052 0.13527 0.0
C1731 C 0.19238 0.53575 0.12954 0.0
C1732 C 0.10829 0.5365 0.14067 0.0
C1733 C 0.17214 0.50333 0.14437 0.0
C1734 C 0.16275 0.47974 0.14118 0.0
C1735 C 0.17738 0.46063 0.14839 0.0
C1736 C 0.20267 0.4657 0.15904 0.0
C1737 C 0.21405 0.48966 0.16238 0.0
C1738 C 0.19845 0.5087 0.15491 0.0
H1739 H 0.20203 0.7154 0.11237 0.0
H1740 H 0.21484 0.79163 0.10505 0.0
H1741 H 0.17137 0.80079 0.12391 0.0
H1742 H 0.07453 0.71916 0.12521 0.0
H1743 H 0.08675 0.69595 0.13592 0.0
H1744 H 0.11961 0.69555 0.12198 0.0
H1745 H 0.20655 0.69464 0.13291 0.0
H1746 H 0.17397 0.69522 0.14688 0.0
H1747 H 0.22114 0.71779 0.14352 0.0
H1748 H 0.13174 0.80152 0.1444 0.0
H1749 H 0.08886 0.79377 0.16348 0.0
H1750 H 0.09464 0.71714 0.15662 0.0
C1751 C 0.19556 0.73401 0.11474 0.0
C1752 C 0.21227 0.75283 0.10731 0.0
C1753 C 0.20247 0.77694 0.11063 0.0
C1754 C 0.17797 0.78231 0.12134 0.0
C1755 C 0.16251 0.76335 0.12856 0.0
C1756 C 0.17004 0.73967 0.12528 0.0
C1757 C 0.14793 0.72263 0.1344 0.0
C1758 C 0.10463 0.70743 0.12906 0.0
C1759 C 0.18991 0.70663 0.13975 0.0
C1760 C 0.12748 0.74039 0.1434 0.0
C1761 C 0.13688 0.7638 0.13995 0.0
C1762 C 0.12356 0.78326 0.14709 0.0
C1763 C 0.09938 0.7787 0.15794 0.0
C1764 C 0.08786 0.75491 0.16146 0.0
C1765 C 0.1023 0.73555 0.15407 0.0
H1766 H 0.87653 0.51666 0.85814 0.0
H1767 H 0.75693 0.46593 0.86724 0.0
H1768 H 0.79716 0.45912 0.88652 0.0
H1769 H 0.9808 0.48618 0.87295 0.0
H1770 H 1.01049 0.5132 0.87844 0.0
H1771 H 0.97372 0.51405 0.86502 0.0
H1772 H 0.91683 0.5477 0.87363 0.0
H1773 H 0.95346 0.54715 0.88708 0.0
H1774 H 0.88515 0.54307 0.88755 0.0
H1775 H 0.85163 0.4557 0.90439 0.0
H1776 H 0.9136 0.4591 0.92078 0.0
H1777 H 0.99443 0.51493 0.9018 0.0
C1778 C 0.85902 0.50413 0.86422 0.0
C1779 C 0.81355 0.49172 0.86112 0.0
C1780 C 0.79158 0.47567 0.86937 0.0
C1781 C 0.81425 0.47159 0.88037 0.0
C1782 C 0.85874 0.484 0.8832 0.0
C1783 C 0.8807 0.50022 0.87548 0.0
C1784 C 0.92765 0.51176 0.88109 0.0
C1785 C 0.97603 0.50594 0.87395 0.0
C1786 C 0.92031 0.53904 0.88242 0.0
C1787 C 0.92853 0.49933 0.89308 0.0
C1788 C 0.88872 0.48314 0.89397 0.0
C1789 C 0.88259 0.46854 0.90386 0.0
C1790 C 0.91796 0.47053 0.91312 0.0
C1791 C 0.95817 0.48743 0.91261 0.0
C1792 C 0.96341 0.50212 0.90247 0.0
H1793 H 0.99457 0.23892 0.87229 0.0
H1794 H 0.87263 0.23381 0.84659 0.0
H1795 H 0.80918 0.23138 0.86263 0.0
H1796 H 0.93829 0.19821 0.89417 0.0
H1797 H 0.95941 0.21576 0.90661 0.0
H1798 H 0.99574 0.21596 0.89313 0.0
H1799 H 0.98901 0.26235 0.89231 0.0
H1800 H 0.9528 0.26222 0.90579 0.0
H1801 H 0.92692 0.27637 0.89281 0.0
H1802 H 0.75835 0.23172 0.88138 0.0
H1803 H 0.72329 0.2344 0.90152 0.0
H1804 H 0.87692 0.23879 0.91567 0.0
C1805 C 0.95453 0.23703 0.87007 0.0
C1806 C 0.93861 0.23597 0.85811 0.0
C1807 C 0.88583 0.23386 0.85561 0.0
C1808 C 0.84947 0.2327 0.8647 0.0
C1809 C 0.86628 0.23365 0.87636 0.0
C1810 C 0.91756 0.23573 0.87911 0.0
C1811 C 0.92499 0.23696 0.89243 0.0
C1812 C 0.95648 0.21544 0.89684 0.0
C1813 C 0.9499 0.2609 0.89605 0.0
C1814 C 0.86989 0.23549 0.89671 0.0
C1815 C 0.83678 0.2336 0.88725 0.0
C1816 C 0.78398 0.23296 0.88885 0.0
C1817 C 0.76437 0.23449 0.90035 0.0
C1818 C 0.79719 0.23645 0.91023 0.0
C1819 C 0.85081 0.23675 0.90835 0.0
H1820 H 0.13201 0.9905 0.60324 0.0
H1821 H 0.97805 0.98298 0.61673 0.0
H1822 H 1.0116 0.98295 0.63706 0.0
H1823 H 0.19563 0.95305 0.6256 0.0
H1824 H 0.25117 0.97211 0.62655 0.0
H1825 H 0.21573 0.97021 0.61295 0.0
H1826 H 0.20438 0.01633 0.61296 0.0
H1827 H 0.23948 0.01845 0.62658 0.0
H1828 H 0.17601 0.03089 0.62556 0.0
H1829 H 0.0607 0.98471 0.65594 0.0
H1830 H 0.12265 0.9882 0.67232 0.0
H1831 H 0.24615 -0.00427 0.64723 0.0
C1832 C 0.10564 0.98828 0.61046 0.0
C1833 C 0.05234 0.98628 0.60834 0.0
C1834 C 1.01893 0.98431 0.61809 0.0
C1835 C 0.03768 0.98429 0.6297 0.0
C1836 C 0.09018 0.9865 0.63151 0.0
C1837 C 0.12386 0.98848 0.62219 0.0
C1838 C 0.17841 0.99156 0.62671 0.0
C1839 C 0.21223 0.97047 0.62271 0.0
C1840 C 0.20088 0.01575 0.62271 0.0
C1841 C 0.16994 0.99111 0.64001 0.0
C1842 C 0.11868 0.98799 0.64252 0.0
C1843 C 0.10097 0.9869 0.65409 0.0
C1844 C 0.13643 0.98874 0.66335 0.0
C1845 C 0.1891 0.99187 0.66108 0.0
C1846 C 0.20602 0.99335 0.64923 0.0
H1847 H 0.19846 0.27708 0.61119 0.0
H1848 H 0.21986 0.2001 0.60687 0.0
H1849 H 0.17538 0.19282 0.62546 0.0
H1850 H 0.2175 0.27793 0.64286 0.0
H1851 H 0.16867 0.29994 0.64591 0.0
H1852 H 0.20092 0.30003 0.63188 0.0
H1853 H 0.11399 0.29692 0.62112 0.0
H1854 H 0.08146 0.29698 0.63511 0.0
H1855 H 0.07079 0.27283 0.6248 0.0
H1856 H 0.13062 0.19263 0.6442 0.0
H1857 H 0.08442 0.19965 0.66268 0.0
H1858 H 0.09043 0.27668 0.65662 0.0
C1859 C 0.19334 0.25875 0.61416 0.0
C1860 C 0.21315 0.23916 0.60752 0.0
C1861 C 0.20572 0.21546 0.61176 0.0
C1862 C 0.1803 0.21106 0.62235 0.0
C1863 C 0.16219 0.23051 0.62879 0.0
C1864 C 0.16796 0.25393 0.62495 0.0
C1865 C 0.14456 0.27123 0.63393 0.0
C1866 C 0.18536 0.28829 0.63894 0.0
C1867 C 0.10005 0.28533 0.62841 0.0
C1868 C 0.12541 0.25377 0.64335 0.0
C1869 C 0.13606 0.23041 0.64004 0.0
C1870 C 0.12196 0.21083 0.64692 0.0
C1871 C 0.0956 0.21504 0.65742 0.0
C1872 C 0.08366 0.23867 0.66115 0.0
C1873 C 0.09933 0.25841 0.65406 0.0
H1874 H 0.96353 0.02487 0.40362 0.0
H1875 H 0.93733 0.95152 0.41508 0.0
H1876 H 0.88491 0.94401 0.39749 0.0
H1877 H 0.83607 0.03435 0.38993 0.0
H1878 H 0.86089 0.05117 0.37763 0.0
H1879 H 0.8935 0.05191 0.39163 0.0
H1880 H 0.97676 0.03792 0.38143 0.0
H1881 H 0.94434 0.03684 0.36743 0.0
H1882 H 0.97663 0.01052 0.37294 0.0
H1883 H 0.83962 0.94294 0.3786 0.0
H1884 H 0.80047 0.94859 0.35915 0.0
H1885 H 0.85459 0.02238 0.35843 0.0
C1886 C 0.9457 0.00746 0.4025 0.0
C1887 C 0.95413 0.98879 0.41082 0.0
C1888 C 0.9313 0.96607 0.40889 0.0
C1889 C 0.90142 0.96161 0.3989 0.0
C1890 C 0.89474 0.97998 0.39073 0.0
C1891 C 0.91591 0.00251 0.39234 0.0
C1892 C 0.90396 0.01848 0.38172 0.0
C1893 C 0.87168 0.04027 0.38545 0.0
C1894 C 0.95337 0.02641 0.37551 0.0
C1895 C 0.8731 0.00129 0.37397 0.0
C1896 C 0.86845 0.97925 0.37947 0.0
C1897 C 0.84266 0.96016 0.37423 0.0
C1898 C 0.8205 0.96358 0.36313 0.0
C1899 C 0.82401 0.98593 0.3572 0.0
C1900 C 0.85101 0.00509 0.36272 0.0
H1901 H 0.98325 0.76819 0.37057 0.0
H1902 H 0.90229 0.71303 0.35103 0.0
H1903 H 0.84442 0.70685 0.36787 0.0
H1904 H 0.97756 0.7354 0.39859 0.0
H1905 H 0.97109 0.76218 0.40741 0.0
H1906 H 1.00508 0.76331 0.39361 0.0
H1907 H 0.94559 0.79752 0.38642 0.0
H1908 H 0.91159 0.79654 0.4002 0.0
H1909 H 0.87735 0.79304 0.38652 0.0
H1910 H 0.79149 0.70846 0.38626 0.0
H1911 H 0.75258 0.7147 0.40592 0.0
H1912 H 0.87351 0.76463 0.41493 0.0
C1913 C 0.95312 0.75494 0.36985 0.0
C1914 C 0.94625 0.74162 0.35931 0.0
C1915 C 0.90738 0.72393 0.35884 0.0
C1916 C 0.87448 0.72017 0.36841 0.0
C1917 C 0.88188 0.73364 0.37863 0.0
C1918 C 0.92086 0.75031 0.37953 0.0
C1919 C 0.9218 0.7614 0.3918 0.0
C1920 C 0.97186 0.7552 0.39823 0.0
C1921 C 0.91358 0.78875 0.39119 0.0
C1922 C 0.87642 0.74885 0.39749 0.0
C1923 C 0.85376 0.73305 0.38966 0.0
C1924 C 0.80941 0.72045 0.39254 0.0
C1925 C 0.78753 0.72409 0.4037 0.0
C1926 C 0.81056 0.73976 0.41194 0.0
C1927 C 0.85585 0.75214 0.40884 0.0
H1928 H 0.59749 0.52791 0.6122 0.0
H1929 H 0.58386 0.45133 0.6058 0.0
H1930 H 0.62804 0.44308 0.62466 0.0
H1931 H 0.72521 0.52475 0.62471 0.0
H1932 H 0.71396 0.54839 0.63526 0.0
H1933 H 0.67984 0.54824 0.62147 0.0
H1934 H 0.59388 0.54956 0.63275 0.0
H1935 H 0.62773 0.5496 0.64658 0.0
H1936 H 0.58029 0.52687 0.64365 0.0
H1937 H 0.6697 0.4432 0.64482 0.0
H1938 H 0.71486 0.45152 0.66354 0.0
H1939 H 0.70851 0.52796 0.65621 0.0
C1940 C 0.60378 0.50942 0.6148 0.0
C1941 C 0.58673 0.49023 0.60759 0.0
C1942 C 0.59641 0.46629 0.61119 0.0
C1943 C 0.62134 0.46144 0.62192 0.0
C1944 C 0.63731 0.48073 0.62888 0.0
C1945 C 0.6297 0.50425 0.62538 0.0
C1946 C 0.65267 0.52166 0.63425 0.0
C1947 C 0.69546 0.53664 0.62858 0.0
C1948 C 0.61116 0.53788 0.63963 0.0
C1949 C 0.67395 0.50428 0.64335 0.0
C1950 C 0.66403 0.48076 0.64014 0.0
C1951 C 0.67821 0.46154 0.64733 0.0
C1952 C 0.70375 0.46644 0.65797 0.0
C1953 C 0.71575 0.49034 0.66128 0.0
C1954 C 0.70045 0.50948 0.65385 0.0
H1955 H 0.70802 0.70946 0.61524 0.0
H1956 H 0.71235 0.78618 0.60844 0.0
H1957 H 0.6632 0.79361 0.62658 0.0
H1958 H 0.5772 0.70928 0.62653 0.0
H1959 H 0.58931 0.68661 0.63752 0.0
H1960 H 0.62609 0.68698 0.6241 0.0
H1961 H 0.70974 0.68881 0.63628 0.0
H1962 H 0.6732 0.68848 0.64973 0.0
H1963 H 0.71811 0.7124 0.64701 0.0
H1964 H 0.61793 0.79336 0.64582 0.0
H1965 H 0.57189 0.78533 0.66431 0.0
H1966 H 0.589 0.70859 0.65865 0.0
C1967 C 0.69871 0.72779 0.61763 0.0
C1968 C 0.71461 0.74729 0.61045 0.0
C1969 C 0.70092 0.77098 0.61378 0.0
C1970 C 0.67299 0.7754 0.6241 0.0
C1971 C 0.65806 0.75592 0.631 0.0
C1972 C 0.66974 0.73254 0.62787 0.0
C1973 C 0.64719 0.71498 0.63678 0.0
C1974 C 0.6076 0.69849 0.63088 0.0
C1975 C 0.6896 0.7003 0.6428 0.0
C1976 C 0.62176 0.7322 0.64544 0.0
C1977 C 0.62911 0.75572 0.64192 0.0
C1978 C 0.61138 0.77501 0.64859 0.0
C1979 C 0.58527 0.77024 0.65911 0.0
C1980 C 0.57615 0.74635 0.66289 0.0
C1981 C 0.5946 0.72703 0.65591 0.0
H1982 H 0.33791 0.52719 0.36512 0.0
H1983 H 0.33642 0.45104 0.35673 0.0
H1984 H 0.38723 0.44252 0.37443 0.0
H1985 H 0.46802 0.52868 0.37774 0.0
H1986 H 0.45154 0.54933 0.38938 0.0
H1987 H 0.41728 0.55017 0.3756 0.0
H1988 H 0.33219 0.54486 0.38684 0.0
H1989 H 0.36595 0.54354 0.40068 0.0
H1990 H 0.32396 0.51935 0.39643 0.0
H1991 H 0.43608 0.44125 0.39295 0.0
H1992 H 0.48146 0.44738 0.4117 0.0
H1993 H 0.45122 0.52401 0.40964 0.0
C1994 C 0.34904 0.50882 0.36696 0.0
C1995 C 0.33321 0.48976 0.35945 0.0
C1996 C 0.34784 0.46594 0.3623 0.0
C1997 C 0.37684 0.46087 0.37236 0.0
C1998 C 0.39101 0.47978 0.37969 0.0
C1999 C 0.3778 0.50331 0.3772 0.0
C2000 C 0.39697 0.5199 0.387 0.0
C2001 C 0.43576 0.5381 0.38214 0.0
C2002 C 0.35209 0.53267 0.3931 0.0
C2003 C 0.42271 0.50194 0.39528 0.0
C2004 C 0.41881 0.47895 0.39076 0.0
C2005 C 0.43951 0.45917 0.39658 0.0
C2006 C 0.46531 0.46285 0.40725 0.0
C2007 C 0.47015 0.48612 0.41219 0.0
C2008 C 0.44814 0.50597 0.40612 0.0
H2009 H 0.35091 0.22063 0.40825 0.0
H2010 H 0.31622 0.29703 0.40876 0.0
H2011 H 0.35737 0.30186 0.38958 0.0
H2012 H 0.47596 0.22682 0.39432 0.0
H2013 H 0.47006 0.20031 0.38528 0.0
H2014 H 0.437 0.20202 0.39918 0.0
H2015 H 0.35144 0.19327 0.38857 0.0
H2016 H 0.3842 0.19173 0.37462 0.0
H2017 H 0.33151 0.21224 0.37654 0.0
H2018 H 0.40066 0.29972 0.37073 0.0
H2019 H 0.45105 0.29109 0.35305 0.0
H2020 H 0.46169 0.21599 0.3632 0.0
C2021 C 0.35212 0.23831 0.40428 0.0
C2022 C 0.32976 0.25845 0.41007 0.0
C2023 C 0.33249 0.28128 0.40458 0.0
C2024 C 0.35582 0.28426 0.39361 0.0
C2025 C 0.3767 0.26426 0.38808 0.0
C2026 C 0.37569 0.2417 0.39316 0.0
C2027 C 0.40259 0.2236 0.38511 0.0
C2028 C 0.44918 0.21254 0.39134 0.0
C2029 C 0.3652 0.20405 0.38097 0.0
C2030 C 0.41889 0.23969 0.37485 0.0
C2031 C 0.4029 0.26301 0.37687 0.0
C2032 C 0.41346 0.28155 0.36903 0.0
C2033 C 0.44222 0.27642 0.35898 0.0
C2034 C 0.46043 0.25291 0.35668 0.0
C2035 C 0.44778 0.23409 0.36464 0.0
H2036 H 0.72311 0.96441 0.15263 0.0
H2037 H 0.65993 0.02848 0.1688 0.0
H2038 H 0.60343 0.0343 0.15169 0.0
H2039 H 0.72694 0.98783 0.12357 0.0
H2040 H 0.70923 0.96048 0.1161 0.0
H2041 H 0.74119 0.9591 0.13015 0.0
H2042 H 0.66756 0.93338 0.13863 0.0
H2043 H 0.63563 0.93441 0.12456 0.0
H2044 H 0.60278 0.94425 0.13766 0.0
H2045 H 0.55983 0.03594 0.13248 0.0
H2046 H 0.52725 0.03236 0.11228 0.0
H2047 H 0.61607 0.96719 0.10731 0.0
C2048 C 0.69612 0.97916 0.15268 0.0
C2049 C 0.69504 -0.00427 0.16222 0.0
C2050 C 0.66073 0.01536 0.16174 0.0
C2051 C 0.62859 0.01887 0.15201 0.0
C2052 C 0.63125 0.00272 0.14264 0.0
C2053 C 0.66375 0.98313 0.14284 0.0
C2054 C 0.66049 0.9695 0.13116 0.0
C2055 C 0.71256 0.96921 0.12487 0.0
C2056 C 0.64042 0.94386 0.13312 0.0
C2057 C 0.62171 0.98471 0.12439 0.0
C2058 C 0.60558 0.00373 0.13129 0.0
C2059 C 0.57167 0.02095 0.12704 0.0
C2060 C 0.5534 0.01876 0.11549 0.0
C2061 C 0.56859 -0.00056 0.10813 0.0
C2062 C 0.60327 0.98207 0.11271 0.0
H2063 H 0.69948 0.26942 0.1144 0.0
H2064 H 0.69761 0.1931 0.10646 0.0
H2065 H 0.64685 0.18556 0.12432 0.0
H2066 H 0.71366 0.26202 0.14602 0.0
H2067 H 0.67337 0.28709 0.14988 0.0
H2068 H 0.7078 0.28723 0.13614 0.0
H2069 H 0.62315 0.29373 0.12475 0.0
H2070 H 0.58848 0.29373 0.13847 0.0
H2071 H 0.57093 0.27306 0.12691 0.0
H2072 H 0.59718 0.18556 0.14288 0.0
H2073 H 0.55148 0.19303 0.16146 0.0
H2074 H 0.58629 0.26911 0.15879 0.0
C2075 C 0.68787 0.2512 0.1164 0.0
C2076 C 0.70246 0.23182 0.10895 0.0
C2077 C 0.68709 0.20821 0.11198 0.0
C2078 C 0.65814 0.20373 0.12213 0.0
C2079 C 0.645 0.223 0.12936 0.0
C2080 C 0.65936 0.24628 0.12672 0.0
C2081 C 0.64111 0.26343 0.13636 0.0
C2082 C 0.68671 0.27567 0.14246 0.0
C2083 C 0.60369 0.28209 0.13132 0.0
C2084 C 0.61407 0.24611 0.14472 0.0
C2085 C 0.61687 0.22291 0.14041 0.0
C2086 C 0.59473 0.20365 0.14634 0.0
C2087 C 0.56872 0.2081 0.15692 0.0
C2088 C 0.56504 0.23162 0.16164 0.0
C2089 C 0.58845 0.25091 0.15545 0.0
H2090 H 0.30601 0.9818 0.86857 0.0
H2091 H 0.3866 0.03728 0.84928 0.0
H2092 H 0.44279 0.0441 0.8665 0.0
H2093 H 0.30955 0.01347 0.89709 0.0
H2094 H 0.31703 0.98622 0.90549 0.0
H2095 H 0.28308 0.98566 0.89166 0.0
H2096 H 0.34377 0.9524 0.88397 0.0
H2097 H 0.37779 0.9528 0.89777 0.0
H2098 H 0.41183 0.95743 0.88416 0.0
H2099 H 0.49529 0.04225 0.88527 0.0
H2100 H 0.5351 0.03451 0.90471 0.0
H2101 H 0.41524 0.98356 0.91293 0.0
C2102 C 0.3353 0.9955 0.868 0.0
C2103 C 0.34234 0.0088 0.85745 0.0
C2104 C 0.3808 0.02669 0.85715 0.0
C2105 C 0.41282 0.03072 0.86693 0.0
C2106 C 0.40521 0.01718 0.87714 0.0
C2107 C 0.36677 0.00021 0.87782 0.0
C2108 C 0.36626 0.98837 0.88992 0.0
C2109 C 0.31599 0.99375 0.89642 0.0
C2110 C 0.37547 0.96114 0.88889 0.0
C2111 C 0.41119 0.00089 0.89584 0.0
C2112 C 0.43331 0.01732 0.88825 0.0
C2113 C 0.47761 0.0298 0.89135 0.0
C2114 C 0.49999 0.02531 0.90241 0.0
C2115 C 0.47764 0.00892 0.91041 0.0
C2116 C 0.43229 -0.00327 0.90711 0.0
H2117 H 0.47251 0.71369 0.86605 0.0
H2118 H 0.4449 0.78669 0.85415 0.0
H2119 H 0.38993 0.79399 0.87127 0.0
H2120 H 0.34276 0.7038 0.87895 0.0
H2121 H 0.36672 0.68718 0.89141 0.0
H2122 H 0.40051 0.68634 0.87758 0.0
H2123 H 0.48278 0.70064 0.88814 0.0
H2124 H 0.44914 0.70179 0.90197 0.0
H2125 H 0.48158 0.72813 0.89657 0.0
H2126 H 0.34411 0.79532 0.88994 0.0
H2127 H 0.30456 0.79005 0.90933 0.0
H2128 H 0.35945 0.71638 0.91059 0.0
C2129 C 0.45375 0.73094 0.86695 0.0
C2130 C 0.46264 0.74959 0.85867 0.0
C2131 C 0.43852 0.77213 0.86031 0.0
C2132 C 0.40719 0.77648 0.87004 0.0
C2133 C 0.40025 0.75818 0.87822 0.0
C2134 C 0.42235 0.73577 0.87684 0.0
C2135 C 0.40978 0.71991 0.88744 0.0
C2136 C 0.37805 0.69801 0.88362 0.0
C2137 C 0.45874 0.71216 0.89391 0.0
C2138 C 0.37806 0.73712 0.89496 0.0
C2139 C 0.37319 0.75901 0.88933 0.0
C2140 C 0.34711 0.77819 0.8944 0.0
C2141 C 0.32479 0.77499 0.90547 0.0
C2142 C 0.32841 0.75279 0.91151 0.0
C2143 C 0.35568 0.73354 0.90617 0.0
H2144 H 0.24172 0.66083 0.07722 0.0
H2145 H 0.11002 0.69644 0.06183 0.0
H2146 H 0.06828 0.65714 0.05896 0.0
H2147 H 0.23898 0.60637 0.05899 0.0
H2148 H 0.25551 0.58664 0.071 0.0
H2149 H 0.27768 0.61732 0.071 0.0
H2150 H 0.23636 0.6241 0.09146 0.0
H2151 H 0.21417 0.59346 0.09154 0.0
H2152 H 0.16935 0.61777 0.09345 0.0
H2153 H 0.03985 0.61532 0.05817 0.0
H2154 H 1.02135 0.57259 0.06093 0.0
H2155 H 0.16907 0.56248 0.07775 0.0
C2156 C 0.20436 0.66022 0.07312 0.0
C2157 C 0.17907 0.68159 0.06965 0.0
C2158 C 0.12986 0.68027 0.06455 0.0
C2159 C 0.10606 0.65804 0.06282 0.0
C2160 C 0.13177 0.63734 0.06636 0.0
C2161 C 0.17953 0.63812 0.07152 0.0
C2162 C 0.19661 0.61315 0.07532 0.0
C2163 C 0.24508 0.60542 0.06868 0.0
C2164 C 0.20458 0.61207 0.08874 0.0
C2165 C 0.15073 0.59831 0.07154 0.0
C2166 C 0.1143 0.61278 0.06627 0.0
C2167 C 0.06798 0.60378 0.06228 0.0
C2168 C 0.05784 0.57943 0.06396 0.0
C2169 C 0.09361 0.56419 0.06966 0.0
C2170 C 0.14123 0.57366 0.0733 0.0
H2171 H 0.17654 0.67941 0.20317 0.0
H2172 H 0.04129 0.67424 0.1812 0.0
H2173 H 0.05511 0.63073 0.17891 0.0
H2174 H 0.25229 0.63218 0.18756 0.0
H2175 H 0.27932 0.62071 0.20105 0.0
H2176 H 0.26255 0.65206 0.1999 0.0
H2177 H 0.20563 0.64802 0.21845 0.0
H2178 H 0.22161 0.61661 0.21956 0.0
H2179 H 0.15561 0.62574 0.21869 0.0
H2180 H 0.07681 0.58817 0.18055 0.0
H2181 H 0.11006 0.54779 0.18466 0.0
H2182 H 0.23253 0.57895 0.20561 0.0
C2183 C 0.15098 0.6691 0.19761 0.0
C2184 C 0.10814 0.67999 0.19226 0.0
C2185 C 0.07441 0.66606 0.18531 0.0
C2186 C 0.0819 0.64139 0.18396 0.0
C2187 C 0.1233 0.63091 0.18966 0.0
C2188 C 0.15772 0.64419 0.19624 0.0
C2189 C 0.19715 0.62788 0.20195 0.0
C2190 C 0.25103 0.63354 0.19733 0.0
C2191 C 0.19483 0.62968 0.21546 0.0
C2192 C 0.17876 0.60349 0.19767 0.0
C2193 C 0.1361 0.60581 0.1906 0.0
C2194 C 0.11057 0.58603 0.18596 0.0
C2195 C 0.1296 0.56313 0.18844 0.0
C2196 C 0.17392 0.56014 0.19546 0.0
C2197 C 0.19869 0.58065 0.20017 0.0
H2198 H 0.92271 0.31415 0.94355 0.0
H2199 H 0.77331 0.32323 0.95964 0.0
H2200 H 0.79109 0.36584 0.96303 0.0
H2201 H 0.99027 0.35777 0.9632 0.0
H2202 H 0.02993 0.36898 0.95145 0.0
H2203 H 1.0081 0.33825 0.9512 0.0
H2204 H 0.96871 0.34512 0.93052 0.0
H2205 H 0.99017 0.37586 0.93074 0.0
H2206 H 0.9235 0.36921 0.92842 0.0
H2207 H 0.81836 0.40789 0.96246 0.0
H2208 H 0.85874 0.44756 0.95943 0.0
H2209 H 0.99276 0.41258 0.94486 0.0
C2210 C 0.8944 0.32506 0.948 0.0
C2211 C 0.84646 0.3154 0.95119 0.0
C2212 C 0.81004 0.33028 0.95691 0.0
C2213 C 0.81979 0.35454 0.95897 0.0
C2214 C 0.86643 0.36378 0.95538 0.0
C2215 C 0.90357 0.34961 0.95016 0.0
C2216 C 0.94938 0.36474 0.94668 0.0
C2217 C 0.99726 0.35697 0.95355 0.0
C2218 C 0.95845 0.36366 0.9333 0.0
C2219 C 0.9313 0.38951 0.95051 0.0
C2220 C 0.88327 0.38844 0.95549 0.0
C2221 C 0.85647 0.40902 0.95881 0.0
C2222 C 0.87945 0.43143 0.95701 0.0
C2223 C 0.92888 0.43296 0.95209 0.0
C2224 C 0.95533 0.41175 0.9489 0.0
H2225 H 0.91854 0.42619 0.82943 0.0
H2226 H 0.77663 0.41971 0.80974 0.0
H2227 H 0.79115 0.37657 0.80735 0.0
H2228 H 0.98961 0.38038 0.8119 0.0
H2229 H 0.02297 0.36887 0.82461 0.0
H2230 H 1.00407 0.40002 0.8241 0.0
H2231 H 0.95556 0.39479 0.84382 0.0
H2232 H 0.97389 0.3636 0.84433 0.0
H2233 H 0.90731 0.37179 0.84504 0.0
H2234 H 0.81394 0.33414 0.80884 0.0
H2235 H 0.85011 0.2939 0.8124 0.0
H2236 H 0.98012 0.32629 0.83014 0.0
C2237 C 0.89122 0.41572 0.82442 0.0
C2238 C 0.84621 0.42633 0.8199 0.0
C2239 C 0.81106 0.412 0.81346 0.0
C2240 C 0.81896 0.38742 0.81199 0.0
C2241 C 0.86254 0.37731 0.81687 0.0
C2242 C 0.89863 0.39089 0.8228 0.0
C2243 C 0.94124 0.37495 0.82745 0.0
C2244 C 0.99251 0.38144 0.82167 0.0
C2245 C 0.94467 0.37637 0.84096 0.0
C2246 C 0.92249 0.35043 0.82341 0.0
C2247 C 0.87689 0.35235 0.81737 0.0
C2248 C 0.85007 0.33231 0.81339 0.0
C2249 C 0.87066 0.30956 0.81554 0.0
C2250 C 0.91784 0.30706 0.82149 0.0
C2251 C 0.94422 0.32777 0.82543 0.0
H2252 H 0.17196 0.06113 0.56467 0.0
H2253 H 0.04211 0.06565 0.5883 0.0
H2254 H 0.0584 0.10882 0.5913 0.0
H2255 H 0.2538 0.10531 0.57992 0.0
H2256 H 0.2776 0.11811 0.56641 0.0
H2257 H 0.25894 0.08695 0.56688 0.0
H2258 H 0.19674 0.09411 0.54945 0.0
H2259 H 0.21492 0.12532 0.54899 0.0
H2260 H 0.14864 0.11719 0.55065 0.0
H2261 H 0.08335 0.15112 0.59074 0.0
H2262 H 0.11859 0.19144 0.58727 0.0
H2263 H 0.23288 0.16097 0.56385 0.0
C2264 C 0.14793 0.07124 0.57066 0.0
C2265 C 0.1061 0.06029 0.57635 0.0
C2266 C 0.07438 0.07393 0.58391 0.0
C2267 C 0.08333 0.09837 0.58567 0.0
C2268 C 0.12397 0.10891 0.57974 0.0
C2269 C 0.15597 0.09592 0.57241 0.0
C2270 C 0.19489 0.11228 0.5666 0.0
C2271 C 0.24956 0.10524 0.57017 0.0
C2272 C 0.18839 0.11221 0.55313 0.0
C2273 C 0.17957 0.13633 0.57184 0.0
C2274 C 0.13846 0.13383 0.57936 0.0
C2275 C 0.11578 0.15338 0.58493 0.0
C2276 C 0.13583 0.17622 0.58283 0.0
C2277 C 0.1783 0.17931 0.57526 0.0
C2278 C 0.20054 0.15908 0.56972 0.0
H2279 H 0.17342 0.17612 0.69795 0.0
H2280 H 1.01084 0.16819 0.69135 0.0
H2281 H 1.02085 0.12438 0.69017 0.0
H2282 H 0.21573 0.12673 0.67891 0.0
H2283 H 0.26512 0.11692 0.68889 0.0
H2284 H 0.24628 0.14807 0.68858 0.0
H2285 H 0.22768 0.14653 0.71098 0.0
H2286 H 0.24619 0.11534 0.71134 0.0
H2287 H 0.18404 0.12426 0.71662 0.0
H2288 H 0.04636 0.08177 0.69016 0.0
H2289 H 0.08703 0.04192 0.69132 0.0
H2290 H 0.23324 0.07601 0.6985 0.0
C2291 C 0.14026 0.16509 0.69612 0.0
C2292 C 0.09136 0.17553 0.69477 0.0
C2293 C 0.04861 0.16056 0.69252 0.0
C2294 C 0.05385 0.13563 0.69179 0.0
C2295 C 0.10211 0.12578 0.6934 0.0
C2296 C 0.14468 0.13989 0.69552 0.0
C2297 C 0.19163 0.12428 0.69737 0.0
C2298 C 0.23208 0.1293 0.68787 0.0
C2299 C 0.21367 0.12782 0.70982 0.0
C2300 C 0.16852 0.09937 0.69594 0.0
C2301 C 0.11685 0.10077 0.69361 0.0
C2302 C 0.08687 0.08036 0.69197 0.0
C2303 C 0.11033 0.05778 0.69267 0.0
C2304 C 0.16329 0.05575 0.69503 0.0
C2305 C 0.19263 0.07691 0.69672 0.0
H2306 H 0.92213 0.81017 0.4416 0.0
H2307 H 0.78648 0.82037 0.4631 0.0
H2308 H 0.80707 0.86306 0.46536 0.0
H2309 H 1.00351 0.85401 0.45798 0.0
H2310 H 0.03438 0.86459 0.44477 0.0
H2311 H 1.0121 0.83398 0.44564 0.0
H2312 H 0.95859 0.84036 0.42669 0.0
H2313 H 0.98036 0.871 0.42581 0.0
H2314 H 0.91286 0.86459 0.42613 0.0
H2315 H 0.83475 0.90478 0.46354 0.0
H2316 H 0.87371 0.94402 0.45906 0.0
H2317 H 0.99439 0.90824 0.43952 0.0
C2318 C 0.89758 0.82134 0.44699 0.0
C2319 C 0.85255 0.81197 0.45209 0.0
C2320 C 0.82088 0.82717 0.45897 0.0
C2321 C 0.8323 0.85147 0.46037 0.0
C2322 C 0.87583 0.86037 0.45494 0.0
C2323 C 0.90849 0.84587 0.44851 0.0
C2324 C 0.95144 0.86063 0.44318 0.0
C2325 C 1.00345 0.85284 0.4482 0.0
C2326 C 0.95074 0.85905 0.42965 0.0
C2327 C 0.9368 0.88561 0.44741 0.0
C2328 C 0.89298 0.8849 0.45418 0.0
C2329 C 0.8696 0.90563 0.45843 0.0
C2330 C 0.89174 0.92781 0.45576 0.0
C2331 C 0.93704 0.92904 0.44901 0.0
C2332 C 0.96011 0.90767 0.44486 0.0
H2333 H 0.87135 0.81278 0.3248 0.0
H2334 H 0.02539 0.82083 0.31104 0.0
H2335 H 1.00967 0.8636 0.30751 0.0
H2336 H 0.81069 0.85626 0.30426 0.0
H2337 H 0.76789 0.86781 0.31534 0.0
H2338 H 0.78917 0.83701 0.31603 0.0
H2339 H 0.82272 0.84407 0.33722 0.0
H2340 H 0.80165 0.87485 0.3366 0.0
H2341 H 0.86745 0.86809 0.33995 0.0
H2342 H 0.98262 0.90592 0.30752 0.0
H2343 H 0.94208 0.94575 0.30991 0.0
H2344 H 0.80358 0.91148 0.32244 0.0
C2345 C 0.90135 0.82348 0.32085 0.0
C2346 C 0.94969 0.81335 0.31828 0.0
C2347 C 0.98814 0.82807 0.31321 0.0
C2348 C 0.97961 0.85246 0.3111 0.0
C2349 C 0.93221 0.86202 0.31398 0.0
C2350 C 0.89341 0.84807 0.31862 0.0
C2351 C 0.84684 0.8634 0.32134 0.0
C2352 C 0.80093 0.85566 0.31379 0.0
C2353 C 0.83393 0.86255 0.33456 0.0
C2354 C 0.86622 0.88807 0.31774 0.0
C2355 C 0.91565 0.88675 0.31353 0.0
C2356 C 0.94354 0.90721 0.31057 0.0
C2357 C 0.92038 0.92971 0.31198 0.0
C2358 C 0.86968 0.93152 0.31615 0.0
C2359 C 0.84201 0.91044 0.31893 0.0
H2360 H 0.55847 0.58002 0.57886 0.0
H2361 H 0.68879 0.5452 0.56248 0.0
H2362 H 0.72862 0.58489 0.55916 0.0
H2363 H 0.55475 0.6334 0.56059 0.0
H2364 H 0.53962 0.65339 0.5726 0.0
H2365 H 0.51937 0.62244 0.57311 0.0
H2366 H 0.56556 0.6169 0.59313 0.0
H2367 H 0.58555 0.64785 0.59274 0.0
H2368 H 0.63243 0.62433 0.59433 0.0
H2369 H 0.75333 0.62741 0.55733 0.0
H2370 H 0.76911 0.67054 0.55949 0.0
H2371 H 0.62559 0.67863 0.57837 0.0
C2372 C 0.5953 0.58085 0.57453 0.0
C2373 C 0.62062 0.5597 0.57083 0.0
C2374 C 0.66905 0.56127 0.56539 0.0
C2375 C 0.69166 0.58368 0.56339 0.0
C2376 C 0.66555 0.60421 0.56704 0.0
C2377 C 0.61893 0.60306 0.57269 0.0
C2378 C 0.601 0.62784 0.57648 0.0
C2379 C 0.5507 0.63466 0.57033 0.0
C2380 C 0.59585 0.62931 0.58997 0.0
C2381 C 0.645 0.64309 0.57209 0.0
C2382 C 0.6812 0.62901 0.5665 0.0
C2383 C 0.7255 0.63863 0.56174 0.0
C2384 C 0.73403 0.66322 0.56306 0.0
C2385 C 0.69881 0.678 0.56924 0.0
C2386 C 0.65308 0.66785 0.57358 0.0
H2387 H 0.72737 0.57899 0.68726 0.0
H2388 H 0.63322 0.54773 0.71465 0.0
H2389 H 0.5995 0.58813 0.71959 0.0
H2390 H 0.75816 0.63498 0.70138 0.0
H2391 H 0.75149 0.65284 0.68823 0.0
H2392 H 0.77009 0.62173 0.68714 0.0
H2393 H 0.6941 0.61343 0.67307 0.0
H2394 H 0.67561 0.64456 0.67401 0.0
H2395 H 0.63028 0.62132 0.67762 0.0
H2396 H 0.57675 0.63135 0.72159 0.0
H2397 H 0.55809 0.67445 0.71924 0.0
H2398 H 0.66375 0.67807 0.68982 0.0
C2399 C 0.69966 0.5808 0.69429 0.0
C2400 C 0.68274 0.56051 0.70065 0.0
C2401 C 0.64613 0.56321 0.70969 0.0
C2402 C 0.62718 0.58603 0.71258 0.0
C2403 C 0.64472 0.60579 0.7062 0.0
C2404 C 0.67938 0.6034 0.6971 0.0
C2405 C 0.68906 0.62735 0.6911 0.0
C2406 C 0.74557 0.63465 0.69203 0.0
C2407 C 0.6712 0.62662 0.67819 0.0
C2408 C 0.65531 0.64368 0.69845 0.0
C2409 C 0.63033 0.6308 0.70713 0.0
C2410 C 0.596 0.64162 0.71482 0.0
C2411 C 0.58571 0.66612 0.71342 0.0
C2412 C 0.60956 0.6796 0.70436 0.0
C2413 C 0.64561 0.6683 0.69693 0.0
H2414 H 0.36869 0.4326 0.44443 0.0
H2415 H 0.50689 0.42387 0.46527 0.0
H2416 H 0.48726 0.38113 0.46797 0.0
H2417 H 0.2901 0.38948 0.46177 0.0
H2418 H 0.25748 0.3785 0.44885 0.0
H2419 H 0.27975 0.40914 0.44937 0.0
H2420 H 0.33065 0.40224 0.43009 0.0
H2421 H 0.3089 0.37157 0.42955 0.0
H2422 H 0.37639 0.37803 0.42937 0.0
H2423 H 0.45992 0.33862 0.46627 0.0
H2424 H 0.42059 0.29918 0.46188 0.0
H2425 H 0.29711 0.33501 0.44339 0.0
C2426 C 0.39419 0.42182 0.44977 0.0
C2427 C 0.43946 0.43166 0.45456 0.0
C2428 C 0.47208 0.41683 0.46142 0.0
C2429 C 0.46128 0.39246 0.46305 0.0
C2430 C 0.4173 0.38315 0.45793 0.0
C2431 C 0.38373 0.39736 0.45159 0.0
C2432 C 0.34016 0.38246 0.44666 0.0
C2433 C 0.28883 0.39037 0.45198 0.0
C2434 C 0.33899 0.38365 0.43312 0.0
C2435 C 0.35543 0.35765 0.45094 0.0
C2436 C 0.40017 0.35849 0.4574 0.0
C2437 C 0.42427 0.33772 0.46145 0.0
C2438 C 0.40193 0.31545 0.45887 0.0
C2439 C 0.3557 0.31422 0.45246 0.0
C2440 C 0.33195 0.33558 0.44854 0.0
H2441 H 0.49268 0.33242 0.31853 0.0
H2442 H 0.35568 0.29551 0.33051 0.0
H2443 H 0.31205 0.33417 0.3327 0.0
H2444 H 0.48092 0.38408 0.33795 0.0
H2445 H 0.50244 0.40554 0.32714 0.0
H2446 H 0.52474 0.3749 0.32655 0.0
H2447 H 0.49252 0.37127 0.30504 0.0
H2448 H 0.47026 0.40191 0.30555 0.0
H2449 H 0.42669 0.37806 0.30172 0.0
H2450 H 0.28202 0.37531 0.33344 0.0
H2451 H 0.26505 0.41849 0.33232 0.0
H2452 H 0.42 0.43105 0.32 0.0
C2453 C 0.45351 0.33253 0.3216 0.0
C2454 C 0.42763 0.31084 0.3243 0.0
C2455 C 0.37637 0.31175 0.32829 0.0
C2456 C 0.35118 0.33367 0.32963 0.0
C2457 C 0.37759 0.35461 0.32693 0.0
C2458 C 0.42744 0.35442 0.32297 0.0
C2459 C 0.44592 0.37987 0.32051 0.0
C2460 C 0.49119 0.38648 0.32852 0.0
C2461 C 0.45965 0.38295 0.30743 0.0
C2462 C 0.39846 0.3942 0.32371 0.0
C2463 C 0.35981 0.37904 0.32739 0.0
C2464 C 0.31185 0.38743 0.33057 0.0
C2465 C 0.30261 0.41203 0.32984 0.0
C2466 C 0.34109 0.42811 0.32597 0.0
C2467 C 0.39003 0.41915 0.32303 0.0
H2468 H 0.63596 0.06679 0.08452 0.0
H2469 H 0.59795 0.05824 0.04759 0.0
H2470 H 0.62298 0.10049 0.04385 0.0
H2471 H 0.58352 0.12621 0.08682 0.0
H2472 H 0.63092 0.1367 0.09714 0.0
H2473 H 0.61396 0.10533 0.09673 0.0
H2474 H 0.70894 0.09394 0.09346 0.0
H2475 H 0.7262 0.12526 0.09392 0.0
H2476 H 0.74355 0.10716 0.08136 0.0
H2477 H 0.65247 0.14361 0.04418 0.0
H2478 H 0.68015 0.18526 0.04882 0.0
H2479 H 0.69227 0.16651 0.08574 0.0
C2480 C 0.63392 0.07378 0.07563 0.0
C2481 C 0.61614 0.05935 0.06627 0.0
C2482 C 0.61211 0.06913 0.05481 0.0
C2483 C 0.62617 0.09303 0.05262 0.0
C2484 C 0.64304 0.10698 0.06206 0.0
C2485 C 0.64646 0.09781 0.07336 0.0
C2486 C 0.66244 0.11703 0.08207 0.0
C2487 C 0.62019 0.12158 0.09123 0.0
C2488 C 0.71332 0.11045 0.08805 0.0
C2489 C 0.66841 0.13831 0.07388 0.0
C2490 C 0.65725 0.13213 0.06236 0.0
C2491 C 0.66087 0.14872 0.05318 0.0
C2492 C 0.67639 0.17225 0.05587 0.0
C2493 C 0.68733 0.17884 0.06761 0.0
C2494 C 0.68329 0.16176 0.07672 0.0
H2495 H 0.67186 0.18062 0.20095 0.0
H2496 H 0.50808 0.16994 0.19754 0.0
H2497 H 0.52117 0.12645 0.19556 0.0
H2498 H 0.71194 0.13473 0.18074 0.0
H2499 H 0.76508 0.1246 0.18955 0.0
H2500 H 0.74372 0.15531 0.1906 0.0
H2501 H 0.73184 0.15052 0.21314 0.0
H2502 H 0.75347 0.11983 0.21217 0.0
H2503 H 0.69233 0.12654 0.21869 0.0
H2504 H 0.55042 0.08482 0.19327 0.0
H2505 H 0.5947 0.04588 0.19242 0.0
H2506 H 0.73987 0.08199 0.19833 0.0
C2507 C 0.63897 0.16902 0.19984 0.0
C2508 C 0.58901 0.17858 0.19947 0.0
C2509 C 0.54669 0.16295 0.19803 0.0
C2510 C 0.55366 0.13822 0.19681 0.0
C2511 C 0.60315 0.12929 0.19722 0.0
C2512 C 0.64514 0.14402 0.19887 0.0
C2513 C 0.6939 0.1293 0.19942 0.0
C2514 C 0.73083 0.13641 0.18948 0.0
C2515 C 0.71938 0.13169 0.21158 0.0
C2516 C 0.67255 0.1042 0.19756 0.0
C2517 C 0.62013 0.10474 0.19627 0.0
C2518 C 0.59148 0.08404 0.19436 0.0
C2519 C 0.61704 0.062 0.19388 0.0
C2520 C 0.67071 0.06082 0.19538 0.0
C2521 C 0.69878 0.08227 0.19719 0.0
H2522 H 0.30961 0.82844 0.9552 0.0
H2523 H 0.44109 0.79613 0.93784 0.0
H2524 H 0.4781 0.83592 0.93487 0.0
H2525 H 0.30177 0.88142 0.93689 0.0
H2526 H 0.28636 0.90174 0.94875 0.0
H2527 H 0.26817 0.87056 0.94969 0.0
H2528 H 0.31637 0.86661 0.96952 0.0
H2529 H 0.33437 0.89783 0.96869 0.0
H2530 H 0.38281 0.87502 0.97033 0.0
H2531 H 0.50149 0.87769 0.93326 0.0
H2532 H 0.51462 0.92116 0.9345 0.0
H2533 H 0.37061 0.92909 0.95316 0.0
C2534 C 0.34631 0.82979 0.95085 0.0
C2535 C 0.37226 0.809 0.94676 0.0
C2536 C 0.42025 0.81158 0.94111 0.0
C2537 C 0.44168 0.83419 0.9393 0.0
C2538 C 0.41505 0.85421 0.94326 0.0
C2539 C 0.36882 0.85245 0.94903 0.0
C2540 C 0.34968 0.87727 0.95262 0.0
C2541 C 0.29845 0.88308 0.94663 0.0
C2542 C 0.34557 0.8793 0.96609 0.0
C2543 C 0.39244 0.89304 0.94786 0.0
C2544 C 0.42936 0.87909 0.94246 0.0
C2545 C 0.47308 0.88887 0.9375 0.0
C2546 C 0.48017 0.91361 0.93829 0.0
C2547 C 0.44386 0.92847 0.94401 0.0
C2548 C 0.39878 0.91814 0.94868 0.0
H2549 H 0.49678 0.83285 0.8192 0.0
H2550 H 0.36975 0.79883 0.83733 0.0
H2551 H 0.3307 0.83844 0.84066 0.0
H2552 H 0.50304 0.88693 0.83742 0.0
H2553 H 0.51641 0.90665 0.82522 0.0
H2554 H 0.53685 0.87572 0.82472 0.0
H2555 H 0.48815 0.86966 0.80506 0.0
H2556 H 0.46791 0.90059 0.80545 0.0
H2557 H 0.42109 0.87694 0.8043 0.0
H2558 H 0.30357 0.88049 0.84154 0.0
H2559 H 0.28578 0.92347 0.8387 0.0
H2560 H 0.42895 0.9318 0.81987 0.0
C2561 C 0.46087 0.8338 0.82391 0.0
C2562 C 0.43629 0.81273 0.82801 0.0
C2563 C 0.38911 0.81466 0.83404 0.0
C2564 C 0.36681 0.83711 0.83606 0.0
C2565 C 0.39197 0.85748 0.83197 0.0
C2566 C 0.43765 0.85616 0.82593 0.0
C2567 C 0.45479 0.88093 0.82189 0.0
C2568 C 0.50581 0.88796 0.82766 0.0
C2569 C 0.45816 0.88209 0.80837 0.0
C2570 C 0.41121 0.89627 0.82653 0.0
C2571 C 0.37583 0.88223 0.8324 0.0
C2572 C 0.33105 0.89173 0.83703 0.0
C2573 C 0.32131 0.91614 0.83536 0.0
C2574 C 0.35611 0.93085 0.82912 0.0
C2575 C 0.40226 0.92097 0.82486 0.0
H2576 H 0.65293 0.48527 0.08812 0.0
H2577 H 0.68743 0.50452 0.05192 0.0
H2578 H 0.5958 0.50203 0.04699 0.0
H2579 H 0.55118 0.44336 0.08166 0.0
H2580 H 0.51286 0.45222 0.09412 0.0
H2581 H 0.5814 0.45492 0.09477 0.0
H2582 H 0.57257 0.50009 0.0999 0.0
H2583 H 0.504 0.49756 0.09923 0.0
H2584 H 0.53648 0.51948 0.09027 0.0
H2585 H 0.4998 0.49856 0.04603 0.0
H2586 H 0.40713 0.49342 0.049 0.0
H2587 H 0.43401 0.47636 0.08581 0.0
C2588 C 0.64134 0.48906 0.07915 0.0
C2589 C 0.67797 0.49499 0.0704 0.0
C2590 C 0.6607 0.49951 0.05876 0.0
C2591 C 0.6085 0.49834 0.05588 0.0
C2592 C 0.5736 0.49262 0.06472 0.0
C2593 C 0.58927 0.48799 0.07612 0.0
C2594 C 0.54378 0.48235 0.08397 0.0
C2595 C 0.54754 0.45669 0.08892 0.0
C2596 C 0.53893 0.50098 0.09393 0.0
C2597 C 0.50009 0.48461 0.07521 0.0
C2598 C 0.51821 0.49056 0.06416 0.0
C2599 C 0.48526 0.49374 0.05464 0.0
C2600 C 0.43253 0.49063 0.0564 0.0
C2601 C 0.41275 0.48432 0.06762 0.0
C2602 C 0.44742 0.4814 0.07714 0.0
H2603 H 0.63542 0.74993 0.06415 0.0
H2604 H 0.60795 0.7509 0.10187 0.0
H2605 H 0.69982 0.7572 0.1054 0.0
H2606 H 0.75415 0.7186 0.06508 0.0
H2607 H 0.78377 0.73567 0.05345 0.0
H2608 H 0.71539 0.73202 0.05371 0.0
H2609 H 0.70374 0.77822 0.05327 0.0
H2610 H 0.77212 0.78204 0.05296 0.0
H2611 H 0.73479 0.79646 0.06428 0.0
H2612 H 0.79439 0.76166 0.10507 0.0
H2613 H 0.88636 0.76551 0.10087 0.0
H2614 H 0.85472 0.76277 0.06334 0.0
C2615 C 0.64862 0.75183 0.07314 0.0
C2616 C 0.6142 0.7497 0.08274 0.0
C2617 C 0.63339 0.75201 0.09437 0.0
C2618 C 0.68558 0.75576 0.09648 0.0
C2619 C 0.71844 0.75734 0.08687 0.0
C2620 C 0.70086 0.75564 0.07542 0.0
C2621 C 0.74486 0.75765 0.06672 0.0
C2622 C 0.74982 0.73461 0.0593 0.0
C2623 C 0.73849 0.77992 0.05884 0.0
C2624 C 0.78984 0.76051 0.07509 0.0
C2625 C 0.7735 0.76025 0.08667 0.0
C2626 C 0.80765 0.76196 0.09604 0.0
C2627 C 0.85992 0.76397 0.09356 0.0
C2628 C 0.87795 0.7643 0.08179 0.0
C2629 C 0.84216 0.76273 0.07243 0.0
H2630 H 0.66688 0.7449 0.20487 0.0
H2631 H 0.69397 0.75662 0.16758 0.0
H2632 H 0.60132 0.76149 0.16438 0.0
H2633 H 0.55095 0.71131 0.20178 0.0
H2634 H 0.52037 0.72452 0.21446 0.0
H2635 H 0.58898 0.72216 0.21392 0.0
H2636 H 0.59694 0.76801 0.21744 0.0
H2637 H 0.52834 0.7705 0.21803 0.0
H2638 H 0.56413 0.78854 0.20775 0.0
H2639 H 0.50565 0.76483 0.16512 0.0
H2640 H 0.41387 0.7674 0.1698 0.0
H2641 H 0.44787 0.75339 0.20662 0.0
C2642 C 0.65346 0.74878 0.19605 0.0
C2643 C 0.68805 0.75025 0.18647 0.0
C2644 C 0.66847 0.75502 0.17505 0.0
C2645 C 0.61582 0.75795 0.17314 0.0
C2646 C 0.58288 0.75613 0.18274 0.0
C2647 C 0.60087 0.75176 0.19399 0.0
C2648 C 0.5571 0.75058 0.20275 0.0
C2649 C 0.55419 0.72566 0.20857 0.0
C2650 C 0.56192 0.7706 0.21204 0.0
C2651 C 0.51175 0.7549 0.19467 0.0
C2652 C 0.52756 0.75805 0.18316 0.0
C2653 C 0.49281 0.7623 0.17409 0.0
C2654 C 0.44057 0.76352 0.17684 0.0
C2655 C 0.42315 0.76044 0.18857 0.0
C2656 C 0.45962 0.75602 0.19757 0.0
H2657 H 0.84363 0.45837 0.19981 0.0
H2658 H 0.88737 0.52316 0.18105 0.0
H2659 H 0.7971 0.53542 0.17998 0.0
H2660 H 0.7285 0.44707 0.18386 0.0
H2661 H 0.6924 0.43695 0.19644 0.0
H2662 H 0.7608 0.43333 0.19618 0.0
H2663 H 0.76823 0.45666 0.21586 0.0
H2664 H 0.6998 0.46026 0.2162 0.0
H2665 H 0.7407 0.48627 0.21704 0.0
H2666 H 0.70268 0.54027 0.18019 0.0
H2667 H 0.60918 0.53818 0.18232 0.0
H2668 H 0.62412 0.4706 0.20114 0.0
C2669 C 0.83425 0.47529 0.19562 0.0
C2670 C 0.87284 0.48968 0.19041 0.0
C2671 C 0.85868 0.51159 0.18492 0.0
C2672 C 0.80743 0.5188 0.18432 0.0
C2673 C 0.77039 0.50404 0.18932 0.0
C2674 C 0.78296 0.48283 0.19494 0.0
C2675 C 0.73515 0.47025 0.19943 0.0
C2676 C 0.72886 0.44543 0.19363 0.0
C2677 C 0.73604 0.46825 0.21293 0.0
C2678 C 0.69393 0.48761 0.19532 0.0
C2679 C 0.71533 0.50696 0.18951 0.0
C2680 C 0.68543 0.52521 0.18472 0.0
C2681 C 0.63222 0.52374 0.18589 0.0
C2682 C 0.60898 0.50413 0.1918 0.0
C2683 C 0.64057 0.48589 0.19663 0.0
H2684 H 0.61138 0.49498 0.94989 0.0
H2685 H 0.61931 0.55354 0.92472 0.0
H2686 H 0.5253 0.55489 0.92382 0.0
H2687 H 0.50511 0.46488 0.93665 0.0
H2688 H 0.4758 0.45612 0.95035 0.0
H2689 H 0.54395 0.46033 0.94959 0.0
H2690 H 0.53932 0.49107 0.96669 0.0
H2691 H 0.4711 0.48693 0.96752 0.0
H2692 H 0.4972 0.51661 0.96548 0.0
H2693 H 0.43077 0.54965 0.92518 0.0
H2694 H 0.34136 0.53786 0.92859 0.0
H2695 H 0.39249 0.48173 0.95246 0.0
C2696 C 0.59324 0.50826 0.94431 0.0
C2697 C 0.62295 0.52409 0.93732 0.0
C2698 C 0.59759 0.54102 0.93003 0.0
C2699 C 0.5441 0.54203 0.92951 0.0
C2700 C 0.51599 0.526 0.93633 0.0
C2701 C 0.53949 0.50942 0.94361 0.0
C2702 C 0.49981 0.49381 0.94972 0.0
C2703 C 0.50659 0.46721 0.94637 0.0
C2704 C 0.502 0.49732 0.96315 0.0
C2705 C 0.45062 0.50406 0.94462 0.0
C2706 C 0.461 0.52272 0.93698 0.0
C2707 C 0.42216 0.535 0.93112 0.0
C2708 C 0.37133 0.52799 0.93305 0.0
C2709 C 0.35931 0.50868 0.94072 0.0
C2710 C 0.39991 0.49671 0.94662 0.0
H2711 H 0.4019 0.24958 0.93369 0.0
H2712 H 0.43255 0.24826 0.97126 0.0
H2713 H 0.34028 0.2445 0.97526 0.0
H2714 H 0.28387 0.2836 0.93506 0.0
H2715 H 0.25281 0.26658 0.92359 0.0
H2716 H 0.32133 0.26978 0.92357 0.0
H2717 H 0.33146 0.22347 0.92317 0.0
H2718 H 0.263 0.22013 0.92315 0.0
H2719 H 0.30077 0.20559 0.93436 0.0
H2720 H 0.24567 0.24116 0.97532 0.0
H2721 H 0.15362 0.23635 0.97144 0.0
H2722 H 0.18299 0.2382 0.93379 0.0
C2723 C 0.38899 0.2486 0.94274 0.0
C2724 C 0.42428 0.24912 0.95218 0.0
C2725 C 0.40616 0.2476 0.96391 0.0
C2726 C 0.35384 0.24562 0.96627 0.0
C2727 C 0.32004 0.24506 0.9568 0.0
C2728 C 0.33671 0.24634 0.94526 0.0
C2729 C 0.29212 0.24452 0.93675 0.0
C2730 C 0.28726 0.26749 0.92931 0.0
C2731 C 0.29715 0.22209 0.9289 0.0
C2732 C 0.24794 0.24211 0.94532 0.0
C2733 C 0.26504 0.2426 0.95684 0.0
C2734 C 0.23175 0.24061 0.96634 0.0
C2735 C 0.17953 0.23774 0.96404 0.0
C2736 C 0.16093 0.2367 0.95232 0.0
C2737 C 0.1958 0.23915 0.94285 0.0
H2738 H 0.58616 0.2191 0.81638 0.0
H2739 H 0.628 0.23891 0.85211 0.0
H2740 H 0.5375 0.24782 0.85649 0.0
H2741 H 0.48839 0.26423 0.81251 0.0
H2742 H 0.44699 0.24483 0.80409 0.0
H2743 H 0.51515 0.24034 0.80372 0.0
H2744 H 0.50285 0.19615 0.81028 0.0
H2745 H 0.43466 0.20051 0.81071 0.0
H2746 H 0.46786 0.18979 0.8236 0.0
H2747 H 0.44205 0.2539 0.85712 0.0
H2748 H 0.34914 0.25764 0.85384 0.0
H2749 H 0.36893 0.23388 0.81769 0.0
C2750 C 0.57633 0.22517 0.82516 0.0
C2751 C 0.61447 0.22828 0.83391 0.0
C2752 C 0.5998 0.23665 0.84521 0.0
C2753 C 0.54837 0.24162 0.84781 0.0
C2754 C 0.51185 0.23821 0.83901 0.0
C2755 C 0.52516 0.23026 0.8279 0.0
C2756 C 0.47846 0.2282 0.82001 0.0
C2757 C 0.4825 0.24543 0.80946 0.0
C2758 C 0.4705 0.20211 0.81591 0.0
C2759 C 0.43671 0.23603 0.82846 0.0
C2760 C 0.45685 0.24176 0.83936 0.0
C2761 C 0.42592 0.24956 0.8486 0.0
C2762 C 0.37313 0.25173 0.84663 0.0
C2763 C 0.35146 0.24613 0.8355 0.0
C2764 C 0.384 0.23805 0.82634 0.0
H2765 H 0.18871 0.49253 0.81638 0.0
H2766 H 0.16095 0.5113 0.85296 0.0
H2767 H 0.25338 0.50791 0.85707 0.0
H2768 H 0.29106 0.45003 0.82145 0.0
H2769 H 0.32659 0.45939 0.80865 0.0
H2770 H 0.25797 0.46195 0.80879 0.0
H2771 H 0.26534 0.50734 0.80395 0.0
H2772 H 0.33395 0.50494 0.80383 0.0
H2773 H 0.30321 0.52649 0.81334 0.0
H2774 H 0.34966 0.50439 0.85693 0.0
H2775 H 0.44182 0.50031 0.85262 0.0
H2776 H 0.40589 0.48402 0.81612 0.0
C2777 C 0.20195 0.49592 0.82527 0.0
C2778 C 0.16739 0.50212 0.83436 0.0
C2779 C 0.18645 0.50614 0.84589 0.0
C2780 C 0.23896 0.50443 0.84829 0.0
C2781 C 0.27194 0.49866 0.83908 0.0
C2782 C 0.25414 0.49439 0.82781 0.0
C2783 C 0.29758 0.48912 0.81939 0.0
C2784 C 0.29302 0.4636 0.81427 0.0
C2785 C 0.30016 0.50811 0.80955 0.0
C2786 C 0.34269 0.49121 0.82768 0.0
C2787 C 0.32718 0.49669 0.83899 0.0
C2788 C 0.36222 0.49991 0.84811 0.0
C2789 C 0.41448 0.49744 0.84559 0.0
C2790 C 0.43124 0.49183 0.83404 0.0
C2791 C 0.39455 0.48861 0.82502 0.0
H2792 H 0.44955 0.97911 0.58701 0.0
H2793 H 0.41015 0.96992 0.55009 0.0
H2794 H 0.50085 0.97448 0.54473 0.0
H2795 H 0.54595 0.02485 0.58231 0.0
H2796 H 0.58716 0.01392 0.59386 0.0
H2797 H 0.51907 0.00962 0.59487 0.0
H2798 H 0.53272 0.96375 0.59723 0.0
H2799 H 0.60083 0.96789 0.59619 0.0
H2800 H 0.56879 0.94759 0.58625 0.0
H2801 H 0.59539 0.97959 0.54329 0.0
H2802 H 0.68798 0.98605 0.54581 0.0
H2803 H 0.66667 0.99308 0.58358 0.0
C2804 C 0.45983 0.97829 0.57778 0.0
C2805 C 0.42249 0.97396 0.56899 0.0
C2806 C 0.43794 0.97273 0.55703 0.0
C2807 C 0.48939 0.97547 0.55387 0.0
C2808 C 0.52507 0.97957 0.56276 0.0
C2809 C 0.51106 0.9811 0.57446 0.0
C2810 C 0.55715 0.98577 0.58226 0.0
C2811 C 0.55201 0.00998 0.5887 0.0
C2812 C 0.56534 0.96501 0.591 0.0
C2813 C 0.59925 0.98656 0.57309 0.0
C2814 C 0.57981 0.98286 0.56191 0.0
C2815 C 0.6111 0.98249 0.552 0.0
C2816 C 0.66369 0.98602 0.55353 0.0
C2817 C 0.68464 0.98993 0.56489 0.0
C2818 C 0.65177 0.99028 0.57478 0.0
H2819 H 0.63358 0.22945 0.57976 0.0
H2820 H 0.59224 0.28602 0.55517 0.0
H2821 H 0.68339 0.2959 0.55259 0.0
H2822 H 0.73672 0.26219 0.59382 0.0
H2823 H 0.77632 0.23594 0.59568 0.0
H2824 H 0.70776 0.23299 0.59548 0.0
H2825 H 0.71452 0.20207 0.57848 0.0
H2826 H 0.78308 0.20496 0.5786 0.0
H2827 H 0.74794 0.21014 0.56518 0.0
H2828 H 0.77923 0.29978 0.55264 0.0
H2829 H 0.87242 0.29812 0.5557 0.0
H2830 H 0.85233 0.23937 0.58043 0.0
C2831 C 0.6435 0.24409 0.57392 0.0
C2832 C 0.60526 0.25682 0.56761 0.0
C2833 C 0.62047 0.27564 0.55995 0.0
C2834 C 0.67227 0.28152 0.55847 0.0
C2835 C 0.70879 0.26853 0.56476 0.0
C2836 C 0.69512 0.25028 0.57237 0.0
C2837 C 0.74203 0.23926 0.57814 0.0
C2838 C 0.74061 0.24282 0.59158 0.0
C2839 C 0.74718 0.21252 0.5749 0.0
C2840 C 0.78418 0.25413 0.57255 0.0
C2841 C 0.76411 0.27087 0.56484 0.0
C2842 C 0.79536 0.28667 0.55862 0.0
C2843 C 0.84844 0.28544 0.56035 0.0
C2844 C 0.8702 0.26851 0.56825 0.0
C2845 C 0.83722 0.25265 0.5744 0.0
H2846 H 0.66474 0.26941 0.68667 0.0
H2847 H 0.68496 0.2215 0.71651 0.0
H2848 H 0.59181 0.22125 0.71969 0.0
H2849 H 0.5602 0.30408 0.69867 0.0
H2850 H 0.52718 0.30656 0.68478 0.0
H2851 H 0.59574 0.3037 0.68507 0.0
H2852 H 0.58993 0.26651 0.6714 0.0
H2853 H 0.52134 0.26922 0.67108 0.0
H2854 H 0.55057 0.2414 0.67566 0.0
H2855 H 0.49597 0.22499 0.71927 0.0
H2856 H 0.40476 0.23305 0.71552 0.0
H2857 H 0.44613 0.27859 0.68596 0.0
C2858 C 0.64971 0.25881 0.69387 0.0
C2859 C 0.68269 0.2456 0.70139 0.0
C2860 C 0.661 0.23219 0.71076 0.0
C2861 C 0.60794 0.23176 0.71259 0.0
C2862 C 0.57669 0.2448 0.70497 0.0
C2863 C 0.59673 0.25813 0.69581 0.0
C2864 C 0.55456 0.27028 0.6888 0.0
C2865 C 0.55974 0.29779 0.68937 0.0
C2866 C 0.55409 0.26131 0.67598 0.0
C2867 C 0.5077 0.26168 0.69545 0.0
C2868 C 0.52138 0.24698 0.70474 0.0
C2869 C 0.48484 0.23663 0.71208 0.0
C2870 C 0.433 0.24146 0.70991 0.0
C2871 C 0.41779 0.25661 0.70048 0.0
C2872 C 0.45606 0.26677 0.69317 0.0
H2873 H 0.8356 0.9581 0.70179 0.0
H2874 H 0.88183 0.01076 0.67567 0.0
H2875 H 0.79151 0.02145 0.6724 0.0
H2876 H 0.72105 0.93842 0.68706 0.0
H2877 H 0.68443 0.93519 0.70041 0.0
H2878 H 0.75281 0.93146 0.70074 0.0
H2879 H 0.7597 0.96415 0.71691 0.0
H2880 H 0.69133 0.96796 0.71664 0.0
H2881 H 0.73257 0.99346 0.71431 0.0
H2882 H 0.69604 0.02675 0.67193 0.0
H2883 H 0.60256 0.02656 0.6744 0.0
H2884 H 0.61655 0.97057 0.70085 0.0
C2885 C 0.82688 0.97202 0.69545 0.0
C2886 C 0.8664 0.98344 0.68894 0.0
C2887 C 0.8527 0.00137 0.68063 0.0
C2888 C 0.80134 0.00772 0.67876 0.0
C2889 C 0.76356 -0.00395 0.68525 0.0
C2890 C 0.7756 0.97861 0.69345 0.0
C2891 C 0.72743 0.96888 0.69924 0.0
C2892 C 0.72107 0.94188 0.69671 0.0
C2893 C 0.72779 0.97392 0.71257 0.0
C2894 C 0.68649 0.98359 0.69302 0.0
C2895 C 0.70831 -0.00088 0.68498 0.0
C2896 C 0.67856 0.01455 0.67816 0.0
C2897 C 0.62523 0.01415 0.67957 0.0
C2898 C 0.60153 -0.00161 0.68774 0.0
C2899 C 0.63306 0.98295 0.69456 0.0
H2900 H 0.6069 0.01682 0.43321 0.0
H2901 H 0.63933 0.99316 0.46889 0.0
H2902 H 0.54717 0.98723 0.47233 0.0
H2903 H 0.49042 0.04847 0.43967 0.0
H2904 H 0.45863 0.03931 0.4263 0.0
H2905 H 0.52722 0.04203 0.42662 0.0
H2906 H 0.53605 -0.00202 0.41949 0.0
H2907 H 0.46749 0.99515 0.41913 0.0
H2908 H 0.50512 0.97429 0.42764 0.0
H2909 H 0.45132 0.98365 0.47195 0.0
H2910 H 0.35909 0.98167 0.46762 0.0
H2911 H 0.38807 0.00726 0.43211 0.0
C2912 C 0.5948 0.01017 0.44172 0.0
C2913 C 0.63082 0.00561 0.4508 0.0
C2914 C 0.61281 -0.00278 0.46184 0.0
C2915 C 0.56042 0.99364 0.46387 0.0
C2916 C 0.52613 -0.00155 0.45477 0.0
C2917 C 0.54254 0.00644 0.44389 0.0
C2918 C 0.49762 0.01008 0.43559 0.0
C2919 C 0.49323 0.03655 0.43182 0.0
C2920 C 0.50184 0.99337 0.42483 0.0
C2921 C 0.45345 0.00282 0.44349 0.0
C2922 C 0.47079 -0.00374 0.45453 0.0
C2923 C 0.43731 0.98885 0.46335 0.0
C2924 C 0.38481 0.98797 0.46082 0.0
C2925 C 0.36589 0.99445 0.44954 0.0
C2926 C 0.40105 0.00203 0.4408 0.0
H2927 H 0.40921 0.73162 0.4543 0.0
H2928 H 0.43257 0.77907 0.42444 0.0
H2929 H 0.33976 0.77871 0.42048 0.0
H2930 H 0.30773 0.69604 0.44144 0.0
H2931 H 0.27311 0.69336 0.4551 0.0
H2932 H 0.34158 0.69666 0.45527 0.0
H2933 H 0.33294 0.73382 0.4689 0.0
H2934 H 0.26445 0.73071 0.46873 0.0
H2935 H 0.29341 0.7587 0.46435 0.0
H2936 H 0.24368 0.7745 0.42027 0.0
H2937 H 0.15219 0.76591 0.42353 0.0
H2938 H 0.19194 0.72095 0.45343 0.0
C2939 C 0.39488 0.74197 0.44693 0.0
C2940 C 0.42836 0.75535 0.43967 0.0
C2941 C 0.40792 0.7684 0.43003 0.0
C2942 C 0.35517 0.76844 0.42776 0.0
C2943 C 0.32327 0.75529 0.43517 0.0
C2944 C 0.34238 0.74221 0.44453 0.0
C2945 C 0.29989 0.72982 0.45126 0.0
C2946 C 0.30595 0.70234 0.45073 0.0
C2947 C 0.29755 0.73881 0.46407 0.0
C2948 C 0.25382 0.73813 0.44426 0.0
C2949 C 0.26809 0.7528 0.43502 0.0
C2950 C 0.2321 0.76289 0.42744 0.0
C2951 C 0.18019 0.7578 0.42932 0.0
C2952 C 0.1646 0.74271 0.43872 0.0
C2953 C 0.20227 0.7328 0.44625 0.0
H2954 H 0.38578 0.76587 0.32511 0.0
H2955 H 0.33796 0.69198 0.31941 0.0
H2956 H 0.42813 0.68007 0.31682 0.0
H2957 H 0.49261 0.76634 0.30483 0.0
H2958 H 0.53207 0.78443 0.31437 0.0
H2959 H 0.46355 0.78745 0.31485 0.0
H2960 H 0.46465 0.77868 0.33727 0.0
H2961 H 0.53312 0.77562 0.33686 0.0
H2962 H 0.49437 0.75152 0.34257 0.0
H2963 H 0.52415 0.67583 0.3159 0.0
H2964 H 0.61803 0.67944 0.317 0.0
H2965 H 0.60299 0.75595 0.32375 0.0
C2966 C 0.39403 0.74715 0.32333 0.0
C2967 C 0.35437 0.72991 0.32243 0.0
C2968 C 0.36729 0.70567 0.31993 0.0
C2969 C 0.41852 0.69868 0.31852 0.0
C2970 C 0.45653 0.71609 0.31965 0.0
C2971 C 0.44488 0.73983 0.322 0.0
C2972 C 0.49287 0.75485 0.32331 0.0
C2973 C 0.49541 0.77442 0.31377 0.0
C2974 C 0.49645 0.76581 0.33574 0.0
C2975 C 0.53344 0.73582 0.32141 0.0
C2976 C 0.51172 0.71362 0.31924 0.0
C2977 C 0.54156 0.69318 0.31749 0.0
C2978 C 0.59494 0.69545 0.31805 0.0
C2979 C 0.61813 0.718 0.32039 0.0
C2980 C 0.58663 0.73843 0.322 0.0
H2981 H 0.1986 0.03267 0.32171 0.0
H2982 H 0.15859 0.96487 0.33822 0.0
H2983 H 0.24921 0.95296 0.33821 0.0
H2984 H 0.30029 0.00835 0.30285 0.0
H2985 H 0.34066 0.03439 0.30449 0.0
H2986 H 0.27221 0.03751 0.30536 0.0
H2987 H 0.28121 0.05756 0.32585 0.0
H2988 H 0.34963 0.05441 0.32507 0.0
H2989 H 0.31515 0.04204 0.33739 0.0
H2990 H 0.34352 0.94873 0.33725 0.0
H2991 H 0.43673 0.95179 0.33476 0.0
H2992 H 0.4182 0.02208 0.31869 0.0
C2993 C 0.2089 0.0152 0.32517 0.0
C2994 C 0.17133 -0.00021 0.33006 0.0
C2995 C 0.18658 0.97716 0.33461 0.0
C2996 C 0.238 0.97016 0.33459 0.0
C2997 C 0.27407 0.98589 0.32994 0.0
C2998 C 0.26039 0.00787 0.32524 0.0
C2999 C 0.30737 0.02145 0.321 0.0
C3000 C 0.30498 0.02567 0.30763 0.0
C3001 C 0.3137 0.04528 0.32773 0.0
C3002 C 0.34942 0.00373 0.32418 0.0
C3003 C 0.32911 0.98336 0.32932 0.0
C3004 C 0.35992 0.96458 0.33323 0.0
C3005 C 0.41294 0.9666 0.33187 0.0
C3006 C 0.43504 0.98725 0.32663 0.0
C3007 C 0.40256 0.00601 0.32268 0.0
H3008 H 0.16763 0.47093 0.57092 0.0
H3009 H 0.17707 0.54179 0.58685 0.0
H3010 H 0.08321 0.54378 0.5877 0.0
H3011 H 0.05589 0.48317 0.55289 0.0
H3012 H 0.02837 0.45376 0.5549 0.0
H3013 H 0.0967 0.4576 0.5555 0.0
H3014 H 0.09864 0.43806 0.57618 0.0
H3015 H 0.03034 0.43413 0.57564 0.0
H3016 H 0.05907 0.45023 0.58774 0.0
H3017 H 0.98843 0.53876 0.58664 0.0
H3018 H 0.89867 0.52655 0.58426 0.0
H3019 H 0.94824 0.45843 0.5694 0.0
C3020 C 0.14995 0.4869 0.57455 0.0
C3021 C 0.18022 0.50611 0.57894 0.0
C3022 C 0.1552 0.5266 0.58366 0.0
C3023 C 0.1017 0.52801 0.58409 0.0
C3024 C 0.07315 0.50881 0.57977 0.0
C3025 C 0.09623 0.48859 0.57511 0.0
C3026 C 0.05616 0.47043 0.57117 0.0
C3027 C 0.05949 0.46599 0.55782 0.0
C3028 C 0.06137 0.44681 0.5781 0.0
C3029 C 1.00713 0.48363 0.57439 0.0
C3030 C 1.01802 0.50578 0.57928 0.0
C3031 C 0.97943 0.52137 0.5829 0.0
C3032 C 0.92835 0.51415 0.58158 0.0
C3033 C 0.91571 0.49136 0.57676 0.0
C3034 C 0.9561 0.47602 0.57304 0.0
H3035 H 0.36164 0.74548 0.57084 0.0
H3036 H 0.37765 0.79742 0.59915 0.0
H3037 H 0.28397 0.79932 0.60117 0.0
H3038 H 0.24592 0.77165 0.55788 0.0
H3039 H 0.21813 0.74287 0.5544 0.0
H3040 H 0.2866 0.74629 0.55473 0.0
H3041 H 0.2933 0.71157 0.56984 0.0
H3042 H 0.2249 0.70807 0.56957 0.0
H3043 H 0.2573 0.71323 0.58336 0.0
H3044 H 0.18915 0.79508 0.60057 0.0
H3045 H 0.09862 0.78459 0.59747 0.0
H3046 H 0.14291 0.73454 0.56991 0.0
C3047 C 0.34531 0.75745 0.57735 0.0
C3048 C 0.37702 0.77122 0.58488 0.0
C3049 C 0.35419 0.78648 0.59339 0.0
C3050 C 0.30099 0.78779 0.59457 0.0
C3051 C 0.27085 0.77377 0.58716 0.0
C3052 C 0.29201 0.75889 0.5787 0.0
C3053 C 0.25066 0.74517 0.57214 0.0
C3054 C 0.25032 0.7519 0.55901 0.0
C3055 C 0.25693 0.7179 0.57384 0.0
C3056 C 0.20322 0.75448 0.57834 0.0
C3057 C 0.21581 0.77109 0.58691 0.0
C3058 C 0.17876 0.78207 0.5939 0.0
C3059 C 0.1274 0.77584 0.59213 0.0
C3060 C 0.11335 0.75864 0.58349 0.0
C3061 C 0.15208 0.74796 0.57649 0.0
H3062 H 0.94366 0.76494 0.70417 0.0
H3063 H 0.91474 0.74972 0.66725 0.0
H3064 H 1.00707 0.74456 0.6639 0.0
H3065 H 0.06221 0.79825 0.69979 0.0
H3066 H 0.09276 0.78608 0.71272 0.0
H3067 H 0.02424 0.78927 0.71228 0.0
H3068 H 1.01396 0.74401 0.71705 0.0
H3069 H 0.0824 0.74069 0.71751 0.0
H3070 H 0.04493 0.72201 0.70782 0.0
H3071 H 0.10179 0.74043 0.66442 0.0
H3072 H 0.19361 0.73668 0.66891 0.0
H3073 H 0.16311 0.754 0.70555 0.0
C3074 C 0.95687 0.7607 0.69537 0.0
C3075 C 0.92175 0.75756 0.68598 0.0
C3076 C 0.94065 0.75183 0.67462 0.0
C3077 C 0.99314 0.74903 0.6726 0.0
C3078 C 0.02661 0.75202 0.68203 0.0
C3079 C 1.00942 0.7577 0.6932 0.0
C3080 C 0.05383 0.75925 0.70181 0.0
C3081 C 0.05853 0.78473 0.70695 0.0
C3082 C 0.04844 0.74036 0.71163 0.0
C3083 C 0.09845 0.75346 0.69372 0.0
C3084 C 0.08173 0.74947 0.68235 0.0
C3085 C 0.11538 0.74349 0.67331 0.0
C3086 C 0.1675 0.74126 0.67596 0.0
C3087 C 0.18579 0.74491 0.68759 0.0
C3088 C 0.15058 0.75134 0.69655 0.0
H3089 H 0.13328 0.47134 0.69949 0.0
H3090 H 0.11819 0.53469 0.67743 0.0
H3091 H 0.21169 0.53648 0.67526 0.0
H3092 H 0.24892 0.49031 0.71463 0.0
H3093 H 0.27659 0.46064 0.71496 0.0
H3094 H 0.20813 0.4642 0.71495 0.0
H3095 H 0.20145 0.43711 0.69646 0.0
H3096 H 0.26984 0.43341 0.69642 0.0
H3097 H 0.23778 0.44463 0.68349 0.0
H3098 H 0.30608 0.53186 0.67541 0.0
H3099 H 0.39649 0.52025 0.67727 0.0
H3100 H 0.35293 0.45948 0.69905 0.0
C3101 C 0.14972 0.48563 0.69425 0.0
C3102 C 0.11811 0.50276 0.68854 0.0
C3103 C 0.14127 0.52109 0.6817 0.0
C3104 C 0.19448 0.52239 0.6805 0.0
C3105 C 0.22441 0.50525 0.68618 0.0
C3106 C 0.20307 0.48715 0.69289 0.0
C3107 C 0.24438 0.4708 0.69787 0.0
C3108 C 0.2445 0.47154 0.71141 0.0
C3109 C 0.23797 0.44496 0.69328 0.0
C3110 C 0.29212 0.48254 0.69285 0.0
C3111 C 0.27947 0.50245 0.68619 0.0
C3112 C 0.31648 0.51625 0.68056 0.0
C3113 C 0.36781 0.5094 0.68162 0.0
C3114 C 0.38206 0.4888 0.68821 0.0
C3115 C 0.34348 0.47539 0.69402 0.0
H3116 H 0.89059 0.48454 0.4535 0.0
H3117 H 0.84026 0.53584 0.42709 0.0
H3118 H 0.92999 0.54611 0.42288 0.0
H3119 H 0.99676 0.52077 0.46452 0.0
H3120 H 0.03772 0.49516 0.46691 0.0
H3121 H 0.96937 0.4919 0.46799 0.0
H3122 H 0.9719 0.45785 0.45243 0.0
H3123 H 0.04021 0.46103 0.45129 0.0
H3124 H 1.0009 0.46345 0.43829 0.0
H3125 H 0.02466 0.55031 0.42115 0.0
H3126 H 0.11865 0.54842 0.42204 0.0
H3127 H 0.10919 0.49516 0.44988 0.0
C3128 C 0.8983 0.49817 0.44694 0.0
C3129 C 0.85796 0.50925 0.44058 0.0
C3130 C 0.87017 0.52673 0.43194 0.0
C3131 C 0.92112 0.53285 0.42955 0.0
C3132 C 0.95975 0.52149 0.43591 0.0
C3133 C 0.94908 0.50459 0.44446 0.0
C3134 C 0.99801 0.49493 0.44992 0.0
C3135 C 1.00061 0.50106 0.46312 0.0
C3136 C 1.00304 0.4677 0.44785 0.0
C3137 C 0.03784 0.50885 0.44299 0.0
C3138 C 1.01474 0.52409 0.43498 0.0
C3139 C 0.04317 0.53847 0.42739 0.0
C3140 C 0.09661 0.53716 0.42793 0.0
C3141 C 0.12145 0.52154 0.43597 0.0
C3142 C 0.09142 0.5074 0.4437 0.0
H3143 H 0.89592 0.27308 0.44072 0.0
H3144 H 0.94649 0.20218 0.45173 0.0
H3145 H 0.85666 0.18925 0.45335 0.0
H3146 H 0.78372 0.27642 0.45921 0.0
H3147 H 0.74543 0.29139 0.44823 0.0
H3148 H 0.81373 0.29545 0.44839 0.0
H3149 H 0.81863 0.28131 0.42668 0.0
H3150 H 0.75036 0.27719 0.42645 0.0
H3151 H 0.79201 0.25257 0.42264 0.0
H3152 H 0.76075 0.18352 0.45326 0.0
H3153 H 0.66698 0.18533 0.45132 0.0
H3154 H 0.67802 0.25975 0.4401 0.0
C3155 C 0.88835 0.25478 0.44343 0.0
C3156 C 0.92895 0.23875 0.44615 0.0
C3157 C 0.91661 0.21505 0.4498 0.0
C3158 C 0.86549 0.20744 0.45067 0.0
C3159 C 0.82668 0.22365 0.44785 0.0
C3160 C 0.83748 0.24683 0.4443 0.0
C3161 C 0.78865 0.26055 0.44155 0.0
C3162 C 0.78253 0.28224 0.44984 0.0
C3163 C 0.78735 0.26836 0.42856 0.0
C3164 C 0.74867 0.24143 0.44406 0.0
C3165 C 0.77146 0.22031 0.44773 0.0
C3166 C 0.74254 0.20003 0.45047 0.0
C3167 C 0.68907 0.20131 0.44942 0.0
C3168 C 0.66452 0.22272 0.44563 0.0
C3169 C 0.6952 0.24303 0.44294 0.0
H3170 H 0.10551 0.22902 0.33544 0.0
H3171 H 0.13665 0.2324 0.2979 0.0
H3172 H 0.0446 0.23722 0.29397 0.0
H3173 H 0.98752 0.19606 0.33339 0.0
H3174 H 0.95659 0.21226 0.34515 0.0
H3175 H 0.02508 0.20893 0.34513 0.0
H3176 H 0.03552 0.25515 0.34637 0.0
H3177 H 0.96706 0.25861 0.34642 0.0
H3178 H 1.00495 0.27392 0.3355 0.0
H3179 H 0.94905 0.24168 0.29397 0.0
H3180 H 0.85705 0.24643 0.29793 0.0
H3181 H 0.88644 0.24051 0.33548 0.0
C3182 C 0.09314 0.231 0.32639 0.0
C3183 C 0.12883 0.23014 0.31698 0.0
C3184 C 0.11043 0.23253 0.30527 0.0
C3185 C 0.05807 0.23544 0.30294 0.0
C3186 C 0.0241 0.23601 0.31238 0.0
C3187 C 0.04081 0.23395 0.32389 0.0
C3188 C 0.99605 0.23522 0.33241 0.0
C3189 C 0.99103 0.21172 0.33944 0.0
C3190 C 1.00121 0.25703 0.34066 0.0
C3191 C 0.95167 0.23837 0.32389 0.0
C3192 C 0.96881 0.2387 0.31239 0.0
C3193 C 0.9352 0.24136 0.30295 0.0
C3194 C 0.88279 0.24385 0.3053 0.0
C3195 C 0.86396 0.24368 0.31702 0.0
C3196 C 0.89929 0.24088 0.32642 0.0
H3197 H 0.90281 0.50279 0.33786 0.0
H3198 H 0.93901 0.50512 0.30055 0.0
H3199 H 0.84739 0.50979 0.29593 0.0
H3200 H 0.78873 0.46769 0.33494 0.0
H3201 H 0.75505 0.48324 0.34651 0.0
H3202 H 0.82372 0.48116 0.34694 0.0
H3203 H 0.83024 0.52755 0.34829 0.0
H3204 H 0.76158 0.52977 0.34791 0.0
H3205 H 0.7995 0.54583 0.33725 0.0
H3206 H 0.75125 0.51287 0.29531 0.0
H3207 H 0.65822 0.51501 0.29877 0.0
H3208 H 0.68455 0.51035 0.33647 0.0
C3209 C 0.89159 0.50422 0.32871 0.0
C3210 C 0.92847 0.50367 0.31958 0.0
C3211 C 0.91186 0.50591 0.30773 0.0
C3212 C 0.85976 0.50837 0.30501 0.0
C3213 C 0.82453 0.50856 0.31421 0.0
C3214 C 0.83975 0.50661 0.32583 0.0
C3215 C 0.79413 0.50701 0.33406 0.0
C3216 C 0.79019 0.48337 0.34102 0.0
C3217 C 0.79651 0.52884 0.34236 0.0
C3218 C 0.75083 0.50939 0.32525 0.0
C3219 C 0.76919 0.51027 0.31385 0.0
C3220 C 0.73647 0.51233 0.30421 0.0
C3221 C 0.68363 0.51364 0.30627 0.0
C3222 C 0.6638 0.5129 0.31789 0.0
C3223 C 0.6982 0.51068 0.32747 0.0
H3224 H 0.95364 0.95774 0.07523 0.0
H3225 H 0.91118 0.02945 0.08676 0.0
H3226 H 1.0018 0.04143 0.0866 0.0
H3227 H 0.06913 0.95334 0.09214 0.0
H3228 H 0.10457 0.93759 0.08091 0.0
H3229 H 0.03613 0.93449 0.08168 0.0
H3230 H 0.02831 0.94828 0.05997 0.0
H3231 H 0.09676 0.95136 0.05913 0.0
H3232 H 0.05617 0.97651 0.05555 0.0
H3233 H 0.09657 0.04576 0.08555 0.0
H3234 H 0.18984 0.04248 0.0832 0.0
H3235 H 0.17281 0.96802 0.07235 0.0
C3236 C 0.96337 0.97603 0.0776 0.0
C3237 C 0.92506 0.99259 0.0811 0.0
C3238 C 0.93967 0.01629 0.08424 0.0
C3239 C 0.99111 0.02333 0.08412 0.0
C3240 C 0.02785 0.00653 0.0808 0.0
C3241 C 1.0148 0.9834 0.07755 0.0
C3242 C 0.06219 0.96889 0.07446 0.0
C3243 C 0.06835 0.9473 0.0828 0.0
C3244 C 0.06076 0.96079 0.0615 0.0
C3245 C 0.10377 0.9875 0.07652 0.0
C3246 C 0.08295 0.00906 0.08018 0.0
C3247 C 0.11336 0.02894 0.08272 0.0
C3248 C 0.16647 0.02682 0.08145 0.0
C3249 C 0.18907 0.00494 0.07769 0.0
C3250 C 0.15694 0.98504 0.07518 0.0
H3251 H 0.13879 0.22223 0.07912 0.0
H3252 H 0.09094 0.29345 0.06798 0.0
H3253 H 0.18132 0.30556 0.06622 0.0
H3254 H 0.24362 0.24196 0.09706 0.0
H3255 H 0.28411 0.21689 0.09329 0.0
H3256 H 0.21569 0.21343 0.09313 0.0
H3257 H 0.21967 0.19897 0.07145 0.0
H3258 H 0.28813 0.2024 0.07154 0.0
H3259 H 0.2503 0.21759 0.06055 0.0
H3260 H 0.27729 0.31033 0.06617 0.0
H3261 H 0.37098 0.30767 0.06819 0.0
H3262 H 0.35668 0.23354 0.07966 0.0
C3263 C 0.14712 0.24044 0.07637 0.0
C3264 C 0.10729 0.25682 0.07364 0.0
C3265 C 0.1204 0.28037 0.06992 0.0
C3266 C 0.17176 0.28749 0.06897 0.0
C3267 C 0.20986 0.27092 0.07178 0.0
C3268 C 0.19818 0.24789 0.07542 0.0
C3269 C 0.24633 0.23372 0.07817 0.0
C3270 C 0.24749 0.22605 0.09118 0.0
C3271 C 0.25139 0.21188 0.06993 0.0
C3272 C 0.28695 0.25243 0.07557 0.0
C3273 C 0.26509 0.27372 0.07184 0.0
C3274 C 0.29479 0.29369 0.06902 0.0
C3275 C 0.34814 0.29193 0.07012 0.0
C3276 C 0.3716 0.27036 0.07402 0.0
C3277 C 0.3402 0.25036 0.07673 0.0
H3278 H 0.93593 0.28096 0.19399 0.0
H3279 H 0.89252 0.20914 0.18283 0.0
H3280 H 0.98302 0.19693 0.18295 0.0
H3281 H 0.05036 0.28492 0.17693 0.0
H3282 H 0.08655 0.30073 0.18802 0.0
H3283 H 1.0181 0.30395 0.18743 0.0
H3284 H 1.01143 0.2904 0.2092 0.0
H3285 H 0.07991 0.28723 0.20986 0.0
H3286 H 0.03941 0.26219 0.21362 0.0
H3287 H 0.07761 0.19251 0.1837 0.0
H3288 H 0.17108 0.19577 0.18567 0.0
H3289 H 0.15505 0.27035 0.1964 0.0
C3290 C 0.94545 0.26259 0.19172 0.0
C3291 C 0.90699 0.24606 0.18831 0.0
C3292 C 0.92122 0.22225 0.18528 0.0
C3293 C 0.97255 0.21508 0.18538 0.0
C3294 C 1.00949 0.23187 0.18858 0.0
C3295 C 0.99676 0.2551 0.19176 0.0
C3296 C 0.04436 0.26959 0.19468 0.0
C3297 C 0.05017 0.29106 0.18626 0.0
C3298 C 0.04373 0.27783 0.20761 0.0
C3299 C 0.08567 0.25088 0.19256 0.0
C3300 C 0.06454 0.22928 0.18904 0.0
C3301 C 0.09466 0.20934 0.18643 0.0
C3302 C 0.14783 0.21145 0.18748 0.0
C3303 C 0.17069 0.23336 0.19109 0.0
C3304 C 0.13888 0.25331 0.19368 0.0
H3305 H 0.34448 0.96079 0.20048 0.0
H3306 H 0.3928 0.02288 0.18014 0.0
H3307 H 0.30289 0.03457 0.17743 0.0
H3308 H 0.2315 0.94727 0.1837 0.0
H3309 H 0.19344 0.93906 0.19631 0.0
H3310 H 0.26178 0.9352 0.19669 0.0
H3311 H 0.2667 0.96117 0.21559 0.0
H3312 H 0.19835 0.96509 0.21527 0.0
H3313 H 0.2397 0.99099 0.21556 0.0
H3314 H 0.20808 0.03972 0.17667 0.0
H3315 H 0.11431 0.03837 0.17817 0.0
H3316 H 0.12485 0.97367 0.1994 0.0
C3317 C 0.33633 0.97698 0.19555 0.0
C3318 C 0.37642 0.99073 0.19044 0.0
C3319 C 0.36336 0.01165 0.18395 0.0
C3320 C 0.31219 0.0186 0.18242 0.0
C3321 C 0.2739 0.00461 0.18749 0.0
C3322 C 0.28518 0.98429 0.19397 0.0
C3323 C 0.23637 0.97256 0.19849 0.0
C3324 C 0.23044 0.94701 0.1935 0.0
C3325 C 0.23523 0.97245 0.21203 0.0
C3326 C 0.196 0.98943 0.19349 0.0
C3327 C 0.21874 0.00775 0.18716 0.0
C3328 C 0.18987 0.02543 0.18158 0.0
C3329 C 0.13643 0.02439 0.18242 0.0
C3330 C 0.11174 0.0058 0.1888 0.0
C3331 C 0.14231 0.98818 0.19449 0.0
H3332 H 0.88223 0.00997 0.95229 0.0
H3333 H 0.85834 0.9637 0.92197 0.0
H3334 H 0.95107 0.96415 0.91797 0.0
H3335 H 0.98255 0.0461 0.93969 0.0
H3336 H 1.01781 0.04841 0.9533 0.0
H3337 H 0.94941 0.04485 0.9536 0.0
H3338 H 0.95936 0.00721 0.96684 0.0
H3339 H 0.02781 0.01059 0.96654 0.0
H3340 H 0.99906 0.98266 0.96196 0.0
H3341 H 0.04633 0.9687 0.91758 0.0
H3342 H 0.13766 0.97817 0.92041 0.0
H3343 H 0.09943 0.02158 0.95097 0.0
C3344 C 0.8965 -0.00012 0.94483 0.0
C3345 C 0.86301 0.98683 0.93742 0.0
C3346 C 0.88316 0.9741 0.92766 0.0
C3347 C 0.9358 0.9741 0.92537 0.0
C3348 C 0.96773 0.98695 0.93291 0.0
C3349 C 0.94889 -0.00031 0.94241 0.0
C3350 C 0.99146 0.01199 0.94916 0.0
C3351 C 0.98491 0.03947 0.94892 0.0
C3352 C 0.99459 0.00254 0.96188 0.0
C3353 C 0.03723 0.0041 0.94198 0.0
C3354 C 0.0227 0.98964 0.93266 0.0
C3355 C 0.05818 0.98011 0.9248 0.0
C3356 C 0.10993 0.98568 0.92646 0.0
C3357 C 0.12573 0.00068 0.93588 0.0
C3358 C 0.0887 0.00985 0.94376 0.0
H3359 H 0.91504 0.75464 0.93655 0.0
H3360 H 0.94827 0.70985 0.96692 0.0
H3361 H 0.8565 0.70051 0.96886 0.0
H3362 H 0.79597 0.77874 0.94713 0.0
H3363 H 0.76531 0.77823 0.93291 0.0
H3364 H 0.83363 0.78163 0.93391 0.0
H3365 H 0.84596 0.74464 0.92035 0.0
H3366 H 0.77767 0.74115 0.91928 0.0
H3367 H 0.81665 0.71643 0.92426 0.0
H3368 H 0.76069 0.69572 0.96746 0.0
H3369 H 0.66873 0.69542 0.96271 0.0
H3370 H 0.69694 0.74324 0.9332 0.0
C3371 C 0.90321 0.74268 0.94355 0.0
C3372 C 0.93936 0.73308 0.95161 0.0
C3373 C 0.92165 0.71778 0.96073 0.0
C3374 C 0.86947 0.71224 0.96187 0.0
C3375 C 0.83504 0.72207 0.95382 0.0
C3376 C 0.85116 0.73694 0.94482 0.0
C3377 C 0.80619 0.74508 0.93733 0.0
C3378 C 0.79992 0.77255 0.93786 0.0
C3379 C 0.81198 0.73629 0.92455 0.0
C3380 C 0.76231 0.73241 0.9435 0.0
C3381 C 0.77983 0.71928 0.95301 0.0
C3382 C 0.74658 0.70603 0.96006 0.0
C3383 C 0.69417 0.70613 0.95733 0.0
C3384 C 0.67502 0.71938 0.9476 0.0
C3385 C 0.71 0.73271 0.94063 0.0
H3386 H 0.11006 0.7281 0.83754 0.0
H3387 H 0.14209 0.7365 0.80023 0.0
H3388 H 0.05004 0.74156 0.79633 0.0
H3389 H 0.99252 0.69516 0.83432 0.0
H3390 H 0.96124 0.70975 0.84653 0.0
H3391 H 0.02975 0.70656 0.84647 0.0
H3392 H 0.03976 0.75256 0.84916 0.0
H3393 H 0.97127 0.75587 0.84926 0.0
H3394 H 1.00919 0.77263 0.83887 0.0
H3395 H 0.95409 0.74596 0.79638 0.0
H3396 H 0.86205 0.75036 0.80047 0.0
H3397 H 0.8913 0.73914 0.83773 0.0
C3398 C 0.0979 0.73123 0.82855 0.0
C3399 C 0.13385 0.73172 0.81919 0.0
C3400 C 0.11569 0.73559 0.80756 0.0
C3401 C 0.06332 0.73863 0.80524 0.0
C3402 C 0.02908 0.73785 0.81464 0.0
C3403 C 0.0456 0.73433 0.82607 0.0
C3404 C 1.00071 0.73439 0.83457 0.0
C3405 C 0.99578 0.71001 0.84084 0.0
C3406 C 1.00553 0.7551 0.84349 0.0
C3407 C 0.95648 0.73856 0.82613 0.0
C3408 C 0.97373 0.74044 0.81467 0.0
C3409 C 0.94016 0.74441 0.80532 0.0
C3410 C 0.8877 0.74668 0.80774 0.0
C3411 C 0.86882 0.745 0.81942 0.0
C3412 C 0.90412 0.74076 0.8287 0.0
H3413 H 0.691 0.99046 0.81619 0.0
H3414 H 0.66647 0.04529 0.84285 0.0
H3415 H 0.75925 0.04722 0.84642 0.0
H3416 H 0.7946 0.95989 0.83096 0.0
H3417 H 0.82957 0.95386 0.81761 0.0
H3418 H 0.76098 0.95648 0.81719 0.0
H3419 H 0.76835 0.98972 0.80132 0.0
H3420 H 0.83698 0.98725 0.80172 0.0
H3421 H 0.80683 0.01593 0.80426 0.0
H3422 H 0.85478 0.04408 0.84687 0.0
H3423 H 0.94645 0.03506 0.84464 0.0
H3424 H 0.91033 0.9819 0.81785 0.0
C3425 C 0.70509 0.00292 0.82276 0.0
C3426 C 0.67098 0.0176 0.8293 0.0
C3427 C 0.69134 0.0335 0.83787 0.0
C3428 C 0.74417 0.03489 0.83991 0.0
C3429 C 0.77656 0.02028 0.8333 0.0
C3430 C 0.7579 0.00453 0.82492 0.0
C3431 C 0.80125 0.99079 0.81908 0.0
C3432 C 0.7963 0.96365 0.82135 0.0
C3433 C 0.80347 -0.00374 0.80581 0.0
C3434 C 0.84711 0.00131 0.82548 0.0
C3435 C 0.83189 0.01834 0.83362 0.0
C3436 C 0.86712 0.03065 0.84058 0.0
C3437 C 0.91922 0.02527 0.83929 0.0
C3438 C 0.93603 0.00761 0.83114 0.0
C3439 C 0.89912 -0.00436 0.8241 0.0
H3440 H 0.05303 0.46155 0.03065 0.0
H3441 H 0.9992 0.52932 0.04501 0.0
H3442 H 0.98061 0.54367 0.02487 0.0
H3443 H 0.11349 0.48585 1.00464 0.0
H3444 H 0.09436 0.46153 0.99511 0.0
H3445 H 0.10359 0.4562 0.01063 0.0
H3446 H 1.01166 0.43939 0.01228 0.0
H3447 H 1.00235 0.44441 0.99675 0.0
H3448 H 0.95866 0.45738 1.00725 0.0
H3449 H 0.96719 0.55078 1.00345 0.0
H3450 H 0.95453 0.54963 0.98197 0.0
H3451 H 1.01787 0.47762 0.9807 0.0
C3452 C 0.03712 0.47938 0.02955 0.0
C3453 C 0.02761 0.49435 0.03945 0.0
C3454 C 1.00672 0.51751 0.03761 0.0
C3455 C 0.99626 0.52587 0.02618 0.0
C3456 C 1.00677 0.51086 0.01662 0.0
C3457 C 0.02633 0.48802 0.01815 0.0
C3458 C 0.03301 0.47546 1.0063 0.0
C3459 C 0.08948 0.46941 1.00404 0.0
C3460 C 0.99941 0.45282 1.0056 0.0
C3461 C 1.01414 0.49483 0.99788 0.0
C3462 C 0.99937 0.51508 1.00411 0.0
C3463 C 0.97887 0.5351 0.99849 0.0
C3464 C 0.97196 0.53428 0.98626 0.0
C3465 C 0.98584 0.51372 0.97962 0.0
C3466 C 1.00809 0.49381 0.9855 0.0
H3467 H 0.25899 0.7515 0.97968 0.0
H3468 H 0.39351 0.707 0.98486 0.0
H3469 H 0.38034 0.70813 1.00625 0.0
H3470 H 0.27985 0.78922 1.00525 0.0
H3471 H 0.21318 0.79162 1.00906 0.0
H3472 H 0.23168 0.78706 0.99393 0.0
H3473 H 0.17451 0.74916 0.99285 0.0
H3474 H 0.1557 0.75366 1.00796 0.0
H3475 H 0.18334 0.72542 1.00346 0.0
H3476 H 0.35508 0.71444 0.02719 0.0
H3477 H 0.31689 0.7252 0.04642 0.0
H3478 H 0.19846 0.7655 0.02838 0.0
C3479 C 0.28534 0.7419 0.98534 0.0
C3480 C 0.32732 0.72914 0.98052 0.0
C3481 C 0.36113 0.71695 0.98826 0.0
C3482 C 0.35403 0.71745 1.00048 0.0
C3483 C 0.31287 0.73028 1.00498 0.0
C3484 C 0.27892 0.74228 0.9977 0.0
C3485 C 0.23834 0.75498 1.00502 0.0
C3486 C 0.24093 0.78235 1.0032 0.0
C3487 C 0.1848 0.74521 1.00215 0.0
C3488 C 0.25485 0.74807 0.01744 0.0
C3489 C 0.29809 0.73388 0.01719 0.0
C3490 C 0.3211 0.72551 0.02751 0.0
C3491 C 0.2993 0.73175 0.03841 0.0
C3492 C 0.25485 0.74615 0.03892 0.0
C3493 C 0.23242 0.75437 0.02827 0.0
H3494 H 1.00486 0.772 0.28788 0.0
H3495 H 0.99814 0.69433 0.2899 0.0
H3496 H 1.01778 0.69144 0.26865 0.0
H3497 H 0.94332 0.77696 0.26049 0.0
H3498 H 0.98125 0.80152 0.25496 0.0
H3499 H 0.97263 0.79784 0.27059 0.0
H3500 H 0.07063 0.79672 0.27367 0.0
H3501 H 0.0796 0.80088 0.25806 0.0
H3502 H 0.10864 0.77559 0.26539 0.0
H3503 H 0.02825 0.69687 0.24692 0.0
H3504 H 0.03959 0.7102 0.22633 0.0
H3505 H 0.04155 0.78448 0.23801 0.0
C3506 C 1.00957 0.75444 0.28389 0.0
C3507 C 1.00143 0.7333 0.29053 0.0
C3508 C 1.00548 0.71063 0.28497 0.0
C3509 C 1.01622 0.70885 0.2729 0.0
C3510 C 0.02251 0.72995 0.26647 0.0
C3511 C 1.02017 0.75235 0.27176 0.0
C3512 C 0.02602 0.77215 0.26263 0.0
C3513 C 0.97794 0.78805 0.26214 0.0
C3514 C 0.0741 0.78722 0.26508 0.0
C3515 C 0.03171 0.75737 0.25144 0.0
C3516 C 0.0291 0.73308 0.25386 0.0
C3517 C 0.03106 0.71585 0.24493 0.0
C3518 C 0.03711 0.72359 0.23324 0.0
C3519 C 0.04168 0.74834 0.23056 0.0
C3520 C 0.03848 0.76542 0.2398 0.0
H3521 H 0.25996 0.52098 0.23293 0.0
H3522 H 0.20207 0.44796 0.23414 0.0
H3523 H 0.21946 0.44616 0.2554 0.0
H3524 H 0.3615 0.51289 0.25563 0.0
H3525 H 0.35146 0.54212 0.26209 0.0
H3526 H 0.33874 0.53738 0.24665 0.0
H3527 H 0.24664 0.55321 0.24957 0.0
H3528 H 0.25887 0.55772 0.26504 0.0
H3529 H 0.20596 0.53925 0.2604 0.0
H3530 H 0.23566 0.45252 0.27652 0.0
H3531 H 0.25651 0.46587 0.29662 0.0
H3532 H 0.3055 0.53499 0.28294 0.0
C3533 C 0.25227 0.50448 0.23767 0.0
C3534 C 0.23005 0.48446 0.23183 0.0
C3535 C 0.21921 0.46343 0.23839 0.0
C3536 C 0.22889 0.46224 0.2505 0.0
C3537 C 0.24927 0.48231 0.25609 0.0
C3538 C 0.26138 0.50303 0.24996 0.0
C3539 C 0.28105 0.52221 0.25846 0.0
C3540 C 0.33649 0.52905 0.25553 0.0
C3541 C 0.24604 0.54441 0.25836 0.0
C3542 C 0.27775 0.50896 0.27022 0.0
C3543 C 0.25908 0.486 0.26855 0.0
C3544 C 0.25084 0.47038 0.27795 0.0
C3545 C 0.26265 0.47819 0.28937 0.0
C3546 C 0.28294 0.50142 0.29142 0.0
C3547 C 0.2903 0.51708 0.28167 0.0
H3548 H 0.80365 0.21053 0.98905 0.0
H3549 H 0.75899 0.28061 0.97579 0.0
H3550 H 0.73985 0.29381 0.99611 0.0
H3551 H 0.70546 0.2073 0.01185 0.0
H3552 H 0.7462 0.19209 0.02226 0.0
H3553 H 0.75621 0.18809 1.00667 0.0
H3554 H 0.85018 0.20173 1.00913 0.0
H3555 H 0.84028 0.20607 0.02469 0.0
H3556 H 0.86377 0.23048 0.01577 0.0
H3557 H 0.7258 0.29964 0.01771 0.0
H3558 H 0.71147 0.29702 0.03914 0.0
H3559 H 0.76555 0.22337 0.03906 0.0
C3560 C 0.78958 0.22862 0.99043 0.0
C3561 C 0.78295 0.24459 0.9808 0.0
C3562 C 0.76426 0.26805 0.98299 0.0
C3563 C 0.75355 0.27574 0.99452 0.0
C3564 C 0.76134 0.25975 1.00383 0.0
C3565 C 0.77833 0.23657 1.00193 0.0
C3566 C 0.78215 0.22285 0.01353 0.0
C3567 C 0.74531 0.20131 0.01358 0.0
C3568 C 0.83739 0.21481 0.01592 0.0
C3569 C 0.76524 0.24205 0.02226 0.0
C3570 C 0.75345 0.26316 0.0164 0.0
C3571 C 0.73514 0.28326 0.02237 0.0
C3572 C 0.72732 0.28163 0.03456 0.0
C3573 C 0.73824 0.26019 0.0408 0.0
C3574 C 0.75824 0.2402 0.03458 0.0
H3575 H 0.93363 0.24903 0.78037 0.0
H3576 H 0.07902 0.23064 0.79628 0.0
H3577 H 0.11994 0.23232 0.77655 0.0
H3578 H 0.94499 0.21519 0.75475 0.0
H3579 H 0.91577 0.2368 0.74502 0.0
H3580 H 0.89895 0.23639 0.7604 0.0
H3581 H 0.92402 0.28121 0.76239 0.0
H3582 H 0.94019 0.2819 0.74696 0.0
H3583 H 0.98672 0.29084 0.75783 0.0
H3584 H 0.14173 0.23099 0.75485 0.0
H3585 H 0.14708 0.23196 0.73326 0.0
H3586 H 0.98797 0.25371 0.73118 0.0
C3587 C 0.97441 0.24595 0.77973 0.0
C3588 C 1.00343 0.23992 0.78986 0.0
C3589 C 0.05643 0.23575 0.78869 0.0
C3590 C 0.07974 0.23646 0.77749 0.0
C3591 C 0.04962 0.2418 0.76763 0.0
C3592 C 0.9983 0.24704 0.76868 0.0
C3593 C 0.97424 0.25192 0.7567 0.0
C3594 C 0.93093 0.234 0.75407 0.0
C3595 C 0.95517 0.27802 0.75593 0.0
C3596 C 1.01965 0.24783 0.74862 0.0
C3597 C 0.06264 0.24193 0.75515 0.0
C3598 C 0.10857 0.23604 0.74971 0.0
C3599 C 0.11104 0.23654 0.73737 0.0
C3600 C 0.06806 0.24315 0.73043 0.0
C3601 C 1.02163 0.24883 0.73619 0.0
H3602 H 0.79143 0.53722 0.78315 0.0
H3603 H 0.77676 0.46319 0.79475 0.0
H3604 H 0.76513 0.45022 0.77418 0.0
H3605 H 0.69326 0.53249 0.76028 0.0
H3606 H 0.72581 0.55227 0.7502 0.0
H3607 H 0.7344 0.55588 0.76586 0.0
H3608 H 0.83229 0.55213 0.76313 0.0
H3609 H 0.82391 0.54811 0.74748 0.0
H3610 H 0.85824 0.52592 0.75593 0.0
H3611 H 0.75701 0.44466 0.75264 0.0
H3612 H 0.74001 0.44734 0.73132 0.0
H3613 H 0.75566 0.52485 0.73286 0.0
C3614 C 0.78545 0.51832 0.78133 0.0
C3615 C 0.7853 0.5012 0.79059 0.0
C3616 C 0.77696 0.47666 0.78786 0.0
C3617 C 0.7707 0.46907 0.77617 0.0
C3618 C 0.77207 0.48622 0.76724 0.0
C3619 C 0.77811 0.5104 0.76964 0.0
C3620 C 0.77514 0.52508 0.75832 0.0
C3621 C 0.72943 0.54246 0.75869 0.0
C3622 C 0.8254 0.53861 0.75609 0.0
C3623 C 0.76697 0.50531 0.74921 0.0
C3624 C 0.76597 0.48305 0.75463 0.0
C3625 C 0.7578 0.46196 0.7483 0.0
C3626 C 0.74852 0.46365 0.73618 0.0
C3627 C 0.74752 0.48619 0.73043 0.0
C3628 C 0.75772 0.50733 0.73699 0.0
H3629 H 0.03519 0.02079 0.53676 0.0
H3630 H 0.08962 0.94717 0.53622 0.0
H3631 H 0.07298 0.94484 0.51491 0.0
H3632 H 0.93401 0.01265 0.51369 0.0
H3633 H 0.94545 0.04174 0.50723 0.0
H3634 H 0.9566 0.03711 0.52273 0.0
H3635 H 0.04936 0.05237 0.52021 0.0
H3636 H 0.03876 0.05668 0.50467 0.0
H3637 H 0.0907 0.03796 0.50964 0.0
H3638 H 0.05895 0.95105 0.49353 0.0
H3639 H 0.04026 0.96444 0.47329 0.0
H3640 H 0.99348 0.03416 0.48671 0.0
C3641 C 0.04196 0.00401 0.53218 0.0
C3642 C 0.06306 0.98398 0.5382 0.0
C3643 C 0.07304 0.96261 0.53182 0.0
C3644 C 0.06389 0.96113 0.51969 0.0
C3645 C 0.04479 0.98125 0.5139 0.0
C3646 C 0.03321 0.00224 0.51989 0.0
C3647 C 1.01498 0.02142 0.51125 0.0
C3648 C 0.95945 0.02866 0.51388 0.0
C3649 C 0.05058 0.04341 0.51146 0.0
C3650 C 1.01894 0.00798 0.49955 0.0
C3651 C 0.03632 0.98484 0.50136 0.0
C3652 C 0.04474 0.96906 0.49201 0.0
C3653 C 0.03424 0.97688 0.4805 0.0
C3654 C 1.01521 0.00031 0.47834 0.0
C3655 C 1.00785 0.01611 0.48805 0.0
H3656 H 0.2695 0.27196 0.48097 0.0
H3657 H 0.317 0.19728 0.48098 0.0
H3658 H 0.29858 0.19451 0.50221 0.0
H3659 H 0.32584 0.28647 0.5086 0.0
H3660 H 0.27594 0.30645 0.51349 0.0
H3661 H 0.28752 0.30246 0.49797 0.0
H3662 H 0.19319 0.29007 0.4948 0.0
H3663 H 0.18114 0.2943 0.5103 0.0
H3664 H 0.16661 0.2659 0.50342 0.0
H3665 H 0.28256 0.20008 0.52347 0.0
H3666 H 0.26407 0.21309 0.54376 0.0
H3667 H 0.22626 0.28446 0.53098 0.0
C3668 C 0.27453 0.25492 0.48543 0.0
C3669 C 0.29401 0.23467 0.47931 0.0
C3670 C 0.30176 0.21289 0.48549 0.0
C3671 C 0.2915 0.21116 0.49756 0.0
C3672 C 0.2738 0.23146 0.50345 0.0
C3673 C 0.26493 0.25292 0.49765 0.0
C3674 C 0.24829 0.27222 0.5064 0.0
C3675 C 0.28669 0.29314 0.50662 0.0
C3676 C 0.19407 0.28114 0.50356 0.0
C3677 C 0.24945 0.25819 0.51794 0.0
C3678 C 0.26445 0.23473 0.51595 0.0
C3679 C 0.27024 0.21834 0.52513 0.0
C3680 C 0.2598 0.22595 0.53666 0.0
C3681 C 0.2434 0.24974 0.539 0.0
C3682 C 0.2384 0.26611 0.52947 0.0
H3683 H 0.28985 0.03022 0.78025 0.0
H3684 H 0.27672 0.95771 0.79398 0.0
H3685 H 0.26386 0.94238 0.77375 0.0
H3686 H 0.19221 0.02338 0.75736 0.0
H3687 H 0.22575 0.04182 0.74685 0.0
H3688 H 0.23354 0.04719 0.76241 0.0
H3689 H 0.33148 0.0427 0.76014 0.0
H3690 H 0.32396 0.03703 0.7446 0.0
H3691 H 0.35729 0.01564 0.75372 0.0
H3692 H 0.25755 0.93451 0.75216 0.0
H3693 H 0.24666 0.93458 0.73068 0.0
H3694 H 0.25924 0.01241 0.73026 0.0
C3695 C 0.28378 0.01113 0.77899 0.0
C3696 C 0.28443 0.99511 0.78873 0.0
C3697 C 0.27622 0.97031 0.78671 0.0
C3698 C 0.2692 0.96144 0.77523 0.0
C3699 C 0.26988 0.97759 0.76582 0.0
C3700 C 0.27606 0.00197 0.76755 0.0
C3701 C 0.27402 0.01541 0.75585 0.0
C3702 C 0.22868 0.03299 0.7556 0.0
C3703 C 0.32471 0.02847 0.75344 0.0
C3704 C 0.26606 0.99472 0.74725 0.0
C3705 C 0.26439 0.9731 0.75326 0.0
C3706 C 0.25827 0.95134 0.74739 0.0
C3707 C 0.25223 0.95161 0.73513 0.0
C3708 C 0.25171 0.97349 0.7287 0.0
C3709 C 0.25957 0.99538 0.73487 0.0
H3710 H 0.80028 0.70313 0.48945 0.0
H3711 H 0.76157 0.77421 0.4764 0.0
H3712 H 0.74643 0.78796 0.4967 0.0
H3713 H 0.70326 0.70276 0.5127 0.0
H3714 H 0.74277 0.6866 0.52302 0.0
H3715 H 0.75126 0.68215 0.50742 0.0
H3716 H 0.84688 0.69327 0.50954 0.0
H3717 H 0.83847 0.69811 0.52512 0.0
H3718 H 0.86432 0.72171 0.51603 0.0
H3719 H 0.73672 0.79471 0.51806 0.0
H3720 H 0.72266 0.79292 0.5395 0.0
H3721 H 0.76529 0.7176 0.53964 0.0
C3722 C 0.7882 0.72151 0.49089 0.0
C3723 C 0.78235 0.73762 0.48129 0.0
C3724 C 0.76632 0.76151 0.48355 0.0
C3725 C 0.75792 0.76956 0.49508 0.0
C3726 C 0.76508 0.7535 0.50434 0.0
C3727 C 0.77893 0.72986 0.50243 0.0
C3728 C 0.78179 0.71624 0.51407 0.0
C3729 C 0.74243 0.69572 0.51432 0.0
C3730 C 0.83611 0.70678 0.51632 0.0
C3731 C 0.76779 0.73602 0.52278 0.0
C3732 C 0.75874 0.75736 0.51689 0.0
C3733 C 0.7438 0.77814 0.52278 0.0
C3734 C 0.73617 0.77699 0.53497 0.0
C3735 C 0.74371 0.7553 0.54123 0.0
C3736 C 0.76063 0.73458 0.5351 0.0
H3737 H 0.72738 0.96348 0.23866 0.0
H3738 H 0.79927 0.02607 0.22303 0.0
H3739 H 0.82764 0.03929 0.24277 0.0
H3740 H 0.6817 0.99376 0.265 0.0
H3741 H 0.69324 0.96853 0.2746 0.0
H3742 H 0.67891 0.96356 0.25925 0.0
H3743 H 0.76247 0.93913 0.2569 0.0
H3744 H 0.7769 0.94389 0.27224 0.0
H3745 H 0.82248 0.95253 0.26113 0.0
H3746 H 0.85057 0.0452 0.26392 0.0
H3747 H 0.86628 0.04399 0.2853 0.0
H3748 H 0.77615 0.97881 0.28806 0.0
C3749 C 0.74927 0.97993 0.2394 0.0
C3750 C 0.76132 0.99373 0.22925 0.0
C3751 C 0.78968 0.0152 0.23063 0.0
C3752 C 0.80587 0.02287 0.24182 0.0
C3753 C 0.79306 0.00901 0.25164 0.0
C3754 C 0.76528 0.98802 0.25058 0.0
C3755 C 0.7565 0.97665 0.26263 0.0
C3756 C 0.69917 0.97557 0.26554 0.0
C3757 C 0.78106 0.95157 0.26326 0.0
C3758 C 0.78414 0.99441 0.27062 0.0
C3759 C 0.80498 0.01287 0.26401 0.0
C3760 C 0.83409 0.03096 0.26918 0.0
C3761 C 0.84282 0.03009 0.28136 0.0
C3762 C 0.8221 0.01147 0.2884 0.0
C3763 C 0.79172 0.99351 0.28295 0.0
H3764 H 0.56493 0.46136 0.52986 0.0
H3765 H 0.489 0.52246 0.54597 0.0
H3766 H 0.46166 0.53645 0.52631 0.0
H3767 H 0.61182 0.49338 0.50434 0.0
H3768 H 0.60223 0.46876 0.49425 0.0
H3769 H 0.61492 0.46282 0.50958 0.0
H3770 H 0.53189 0.43772 0.51099 0.0
H3771 H 0.51914 0.44343 0.49564 0.0
H3772 H 0.47198 0.45101 0.5066 0.0
H3773 H 0.44098 0.54358 0.50522 0.0
H3774 H 0.42805 0.54376 0.48372 0.0
H3775 H 0.5208 0.47946 0.48046 0.0
C3776 C 0.54218 0.47757 0.52924 0.0
C3777 C 0.52876 0.49077 0.53949 0.0
C3778 C 0.49951 0.51202 0.53828 0.0
C3779 C 0.48392 0.52014 0.52714 0.0
C3780 C 0.49821 0.50695 0.51722 0.0
C3781 C 0.52672 0.48613 0.51811 0.0
C3782 C 0.53733 0.47564 0.50594 0.0
C3783 C 0.59501 0.47513 0.50338 0.0
C3784 C 0.51367 0.45046 0.50473 0.0
C3785 C 0.51005 0.49376 0.49809 0.0
C3786 C 0.48767 0.51157 0.50486 0.0
C3787 C 0.45863 0.52984 0.49982 0.0
C3788 C 0.45152 0.52979 0.48759 0.0
C3789 C 0.47383 0.51183 0.4804 0.0
C3790 C 0.50412 0.4937 0.48572 0.0
H3791 H 0.48344 0.7115 0.7829 0.0
H3792 H 0.54188 0.77867 0.79697 0.0
H3793 H 0.56522 0.79157 0.77688 0.0
H3794 H 0.58064 0.70391 0.76047 0.0
H3795 H 0.53744 0.69157 0.74967 0.0
H3796 H 0.52482 0.6875 0.76514 0.0
H3797 H 0.4353 0.70654 0.76242 0.0
H3798 H 0.44783 0.71085 0.74696 0.0
H3799 H 0.42984 0.73609 0.75603 0.0
H3800 H 0.58387 0.7971 0.75566 0.0
H3801 H 0.59973 0.79469 0.73433 0.0
H3802 H 0.52774 0.72451 0.73314 0.0
C3803 C 0.5012 0.72891 0.78173 0.0
C3804 C 0.51073 0.74415 0.79153 0.0
C3805 C 0.53415 0.76673 0.78963 0.0
C3806 C 0.54742 0.77424 0.77824 0.0
C3807 C 0.53704 0.75898 0.76878 0.0
C3808 C 0.5147 0.73674 0.77035 0.0
C3809 C 0.50867 0.72378 0.75859 0.0
C3810 C 0.53975 0.7003 0.75846 0.0
C3811 C 0.45203 0.71904 0.75584 0.0
C3812 C 0.53118 0.74224 0.75018 0.0
C3813 C 0.54724 0.76236 0.75633 0.0
C3814 C 0.57119 0.78153 0.75075 0.0
C3815 C 0.57998 0.77998 0.73861 0.0
C3816 C 0.56449 0.75957 0.73206 0.0
C3817 C 0.53899 0.74054 0.73789 0.0
H3818 H 0.47902 0.20925 0.28044 0.0
H3819 H 0.53975 0.27549 0.29505 0.0
H3820 H 0.56209 0.28926 0.27508 0.0
H3821 H 0.57492 0.20268 0.25737 0.0
H3822 H 0.53068 0.19109 0.2466 0.0
H3823 H 0.51932 0.18612 0.26206 0.0
H3824 H 0.42983 0.2055 0.26002 0.0
H3825 H 0.44111 0.21071 0.24457 0.0
H3826 H 0.42418 0.23543 0.25408 0.0
H3827 H 0.57969 0.29591 0.25388 0.0
H3828 H 0.59343 0.29487 0.23242 0.0
H3829 H 0.51936 0.22524 0.23052 0.0
C3830 C 0.49721 0.2266 0.27941 0.0
C3831 C 0.50763 0.24131 0.28938 0.0
C3832 C 0.53139 0.26389 0.28762 0.0
C3833 C 0.54413 0.27191 0.27628 0.0
C3834 C 0.53293 0.25721 0.26667 0.0
C3835 C 0.5102 0.23499 0.26806 0.0
C3836 C 0.50305 0.2228 0.25611 0.0
C3837 C 0.53382 0.19928 0.2555 0.0
C3838 C 0.44615 0.21835 0.25354 0.0
C3839 C 0.52514 0.24172 0.24784 0.0
C3840 C 0.54224 0.26134 0.25421 0.0
C3841 C 0.56615 0.28074 0.24879 0.0
C3842 C 0.57373 0.27999 0.23657 0.0
C3843 C 0.55693 0.26019 0.22976 0.0
C3844 C 0.53159 0.24087 0.23546 0.0
H3845 H 0.50933 0.00055 0.03901 0.0
H3846 H 0.65994 0.97002 0.03327 0.0
H3847 H 0.64619 0.97137 0.01185 0.0
H3848 H 0.44615 0.96932 0.01505 0.0
H3849 H 0.40651 0.99444 0.01092 0.0
H3850 H 0.42766 0.99126 0.02595 0.0
H3851 H 0.4671 0.03389 0.02525 0.0
H3852 H 0.44605 0.03722 0.01022 0.0
H3853 H 0.51257 0.04117 0.01387 0.0
H3854 H 0.61661 0.97531 0.99089 0.0
H3855 H 0.57284 0.98255 0.97188 0.0
H3856 H 0.44202 0.01125 0.99061 0.0
C3857 C 0.53933 0.9942 0.03322 0.0
C3858 C 0.5858 0.98515 0.03789 0.0
C3859 C 0.62405 0.97705 0.02998 0.0
C3860 C 0.61663 0.97771 0.01775 0.0
C3861 C 0.57065 0.98662 0.0134 0.0
C3862 C 0.5326 0.99482 0.02086 0.0
C3863 C 0.48695 0.00364 0.01375 0.0
C3864 C 0.43898 0.98877 0.01659 0.0
C3865 C 0.47763 0.03058 0.0159 0.0
C3866 C 0.50535 -0.001 1.00122 0.0
C3867 C 0.55377 0.98915 1.00124 0.0
C3868 C 0.57877 0.98315 0.99076 0.0
C3869 C 0.55378 0.98742 0.97998 0.0
C3870 C 0.50437 -0.00231 0.9797 0.0
C3871 C 0.47991 0.00342 0.99051 0.0
loop_
_geom_bond_atom_site_label_1
_geom_bond_atom_site_label_2
_geom_bond_distance
_geom_bond_site_symmetry_2
_ccdc_geom_bond_type
Pr0 C2 2.880 . S
Pr0 O20 2.562 . S
Pr0 O21 2.490 . S
Pr0 O22 2.695 1_655 S
Pr0 O23 2.512 . S
Pr0 O25 2.437 . S
Pr0 O28 2.436 1_655 S
Pr0 O30 2.438 1_655 S
Pr1 C11 2.880 . S
Pr1 O22 2.436 . S
Pr1 O24 2.438 . S
Pr1 O26 2.562 . S
Pr1 O27 2.490 . S
Pr1 O28 2.695 . S
Pr1 O29 2.512 . S
Pr1 O31 2.437 . S
C2 Pr0 2.880 . S
C2 C3 1.491 . S
C2 O20 1.254 . S
C2 O21 1.225 . S
C3 C2 1.491 . S
C3 C4 1.392 . S
C3 C8 1.356 . S
C4 C3 1.392 . S
C4 C5 1.368 . S
C4 H32 0.929 . S
C5 C4 1.368 . S
C5 C6 1.386 . S
C5 H33 0.929 . S
C6 C5 1.386 . S
C6 C7 1.373 . S
C7 C6 1.373 . S
C7 C8 1.409 . S
C7 H34 0.931 . S
C8 C3 1.356 . S
C8 C7 1.409 . S
C8 H35 0.930 . S
C9 O22 1.270 . S
C9 O23 1.248 1_455 S
C10 O24 1.267 1_655 S
C10 O25 1.278 . S
C11 Pr1 2.880 . S
C11 C12 1.491 . S
C11 O26 1.254 . S
C11 O27 1.225 . S
C12 C11 1.491 . S
C12 C13 1.392 . S
C12 C17 1.356 . S
C13 C12 1.392 . S
C13 C14 1.368 . S
C13 H36 0.929 . S
C14 C13 1.368 . S
C14 C15 1.386 . S
C14 H37 0.929 . S
C15 C14 1.386 . S
C15 C16 1.373 . S
C16 C15 1.373 . S
C16 C17 1.409 . S
C16 H38 0.931 . S
C17 C12 1.356 . S
C17 C16 1.409 . S
C17 H39 0.930 . S
C18 O28 1.270 . S
C18 O29 1.248 . S
C19 O30 1.267 . S
C19 O31 1.278 . S
O20 Pr0 2.562 . S
O20 C2 1.254 . S
O21 Pr0 2.490 . S
O21 C2 1.225 . S
O22 Pr0 2.695 1_455 S
O22 Pr1 2.436 . S
O22 C9 1.270 . S
O23 Pr0 2.512 . S
O23 C9 1.248 1_655 S
O24 Pr1 2.438 . S
O24 C10 1.267 1_455 S
O25 Pr0 2.437 . S
O25 C10 1.278 . S
O26 Pr1 2.562 . S
O26 C11 1.254 . S
O27 Pr1 2.490 . S
O27 C11 1.225 . S
O28 Pr0 2.436 1_455 S
O28 Pr1 2.695 . S
O28 C18 1.270 . S
O29 Pr1 2.512 . S
O29 C18 1.248 . S
O30 Pr0 2.438 1_455 S
O30 C19 1.267 . S
O31 Pr1 2.437 . S
O31 C19 1.278 . S
H32 C4 0.929 . S
H33 C5 0.929 . S
H34 C7 0.931 . S
H35 C8 0.930 . S
H36 C13 0.929 . S
H37 C14 0.929 . S
H38 C16 0.931 . S
H39 C17 0.930 . S
Pr40 C42 2.880 . S
Pr40 O60 2.562 . S
Pr40 O61 2.490 . S
Pr40 O62 2.695 . S
Pr40 O63 2.512 . S
Pr40 O65 2.437 . S
Pr40 O68 2.436 . S
Pr40 O70 2.438 . S
Pr41 C51 2.880 . S
Pr41 O62 2.436 . S
Pr41 O64 2.438 . S
Pr41 O66 2.562 . S
Pr41 O67 2.490 . S
Pr41 O68 2.695 . S
Pr41 O69 2.512 . S
Pr41 O71 2.437 . S
C42 Pr40 2.880 . S
C42 C43 1.491 . S
C42 O60 1.254 . S
C42 O61 1.225 . S
C43 C42 1.491 . S
C43 C44 1.392 . S
C43 C48 1.356 . S
C44 C43 1.392 . S
C44 C45 1.368 . S
C44 H72 0.929 . S
C45 C44 1.368 . S
C45 C46 1.386 . S
C45 H73 0.929 . S
C46 C45 1.386 . S
C46 C47 1.373 . S
C47 C46 1.373 . S
C47 C48 1.409 . S
C47 H74 0.931 . S
C48 C43 1.356 . S
C48 C47 1.409 . S
C48 H75 0.930 . S
C49 O62 1.270 . S
C49 O63 1.248 . S
C50 O64 1.267 . S
C50 O65 1.278 . S
C51 Pr41 2.880 . S
C51 C52 1.499 . S
C51 O66 1.254 . S
C51 O67 1.225 . S
C52 C51 1.499 . S
C52 C53 1.388 1_455 S
C52 C57 1.352 1_455 S
C53 C52 1.388 1_655 S
C53 C54 1.368 . S
C53 H76 0.929 . S
C54 C53 1.368 . S
C54 C55 1.386 . S
C54 H77 0.929 . S
C55 C54 1.386 . S
C55 C56 1.373 . S
C56 C55 1.373 . S
C56 C57 1.409 . S
C56 H78 0.931 . S
C57 C52 1.352 1_655 S
C57 C56 1.409 . S
C57 H79 0.930 . S
C58 O68 1.270 . S
C58 O69 1.248 . S
C59 O70 1.267 . S
C59 O71 1.278 . S
O60 Pr40 2.562 . S
O60 C42 1.254 . S
O61 Pr40 2.490 . S
O61 C42 1.225 . S
O62 Pr40 2.695 . S
O62 Pr41 2.436 . S
O62 C49 1.270 . S
O63 Pr40 2.512 . S
O63 C49 1.248 . S
O64 Pr41 2.438 . S
O64 C50 1.267 . S
O65 Pr40 2.437 . S
O65 C50 1.278 . S
O66 Pr41 2.562 . S
O66 C51 1.254 . S
O67 Pr41 2.490 . S
O67 C51 1.225 . S
O68 Pr40 2.436 . S
O68 Pr41 2.695 . S
O68 C58 1.270 . S
O69 Pr41 2.512 . S
O69 C58 1.248 . S
O70 Pr40 2.438 . S
O70 C59 1.267 . S
O71 Pr41 2.437 . S
O71 C59 1.278 . S
H72 C44 0.929 . S
H73 C45 0.929 . S
H74 C47 0.931 . S
H75 C48 0.930 . S
H76 C53 0.929 . S
H77 C54 0.929 . S
H78 C56 0.931 . S
H79 C57 0.930 . S
Pr80 C82 2.880 . S
Pr80 O100 2.562 . S
Pr80 O101 2.490 . S
Pr80 O102 2.695 1_655 S
Pr80 O103 2.512 . S
Pr80 O105 2.437 . S
Pr80 O108 2.436 1_655 S
Pr80 O110 2.438 1_655 S
Pr81 C91 2.880 . S
Pr81 O102 2.436 . S
Pr81 O104 2.438 . S
Pr81 O106 2.562 . S
Pr81 O107 2.490 . S
Pr81 O108 2.695 . S
Pr81 O109 2.512 . S
Pr81 O111 2.437 . S
C82 Pr80 2.880 . S
C82 C83 1.491 . S
C82 O100 1.254 . S
C82 O101 1.225 . S
C83 C82 1.491 . S
C83 C84 1.392 . S
C83 C88 1.356 . S
C84 C83 1.392 . S
C84 C85 1.368 . S
C84 H112 0.929 . S
C85 C84 1.368 . S
C85 C86 1.386 . S
C85 H113 0.929 . S
C86 C85 1.386 . S
C86 C87 1.373 . S
C87 C86 1.373 . S
C87 C88 1.409 . S
C87 H114 0.931 . S
C88 C83 1.356 . S
C88 C87 1.409 . S
C88 H115 0.930 . S
C89 O102 1.270 . S
C89 O103 1.248 1_455 S
C90 O104 1.267 1_655 S
C90 O105 1.278 . S
C91 Pr81 2.880 . S
C91 C92 1.491 . S
C91 O106 1.254 . S
C91 O107 1.225 . S
C92 C91 1.491 . S
C92 C93 1.392 . S
C92 C97 1.356 . S
C93 C92 1.392 . S
C93 C94 1.368 . S
C93 H116 0.929 . S
C94 C93 1.368 . S
C94 C95 1.386 . S
C94 H117 0.929 . S
C95 C94 1.386 . S
C95 C96 1.373 . S
C96 C95 1.373 . S
C96 C97 1.409 . S
C96 H118 0.931 . S
C97 C92 1.356 . S
C97 C96 1.409 . S
C97 H119 0.930 . S
C98 O108 1.270 . S
C98 O109 1.248 . S
C99 O110 1.267 . S
C99 O111 1.278 . S
O100 Pr80 2.562 . S
O100 C82 1.254 . S
O101 Pr80 2.490 . S
O101 C82 1.225 . S
O102 Pr80 2.695 1_455 S
O102 Pr81 2.436 . S
O102 C89 1.270 . S
O103 Pr80 2.512 . S
O103 C89 1.248 1_655 S
O104 Pr81 2.438 . S
O104 C90 1.267 1_455 S
O105 Pr80 2.437 . S
O105 C90 1.278 . S
O106 Pr81 2.562 . S
O106 C91 1.254 . S
O107 Pr81 2.490 . S
O107 C91 1.225 . S
O108 Pr80 2.436 1_455 S
O108 Pr81 2.695 . S
O108 C98 1.270 . S
O109 Pr81 2.512 . S
O109 C98 1.248 . S
O110 Pr80 2.438 1_455 S
O110 C99 1.267 . S
O111 Pr81 2.437 . S
O111 C99 1.278 . S
H112 C84 0.929 . S
H113 C85 0.929 . S
H114 C87 0.931 . S
H115 C88 0.930 . S
H116 C93 0.929 . S
H117 C94 0.929 . S
H118 C96 0.931 . S
H119 C97 0.930 . S
Pr120 C122 2.880 . S
Pr120 O140 2.562 . S
Pr120 O141 2.490 . S
Pr120 O142 2.695 . S
Pr120 O143 2.512 . S
Pr120 O145 2.437 . S
Pr120 O148 2.436 . S
Pr120 O150 2.438 . S
Pr121 C131 2.880 . S
Pr121 O142 2.436 . S
Pr121 O144 2.438 . S
Pr121 O146 2.562 . S
Pr121 O147 2.490 . S
Pr121 O148 2.695 . S
Pr121 O149 2.512 . S
Pr121 O151 2.437 . S
C122 Pr120 2.880 . S
C122 C123 1.491 . S
C122 O140 1.254 . S
C122 O141 1.225 . S
C123 C122 1.491 . S
C123 C124 1.392 . S
C123 C128 1.356 . S
C124 C123 1.392 . S
C124 C125 1.368 . S
C124 H152 0.929 . S
C125 C124 1.368 . S
C125 C126 1.386 . S
C125 H153 0.929 . S
C126 C125 1.386 . S
C126 C127 1.373 . S
C127 C126 1.373 . S
C127 C128 1.409 . S
C127 H154 0.931 . S
C128 C123 1.356 . S
C128 C127 1.409 . S
C128 H155 0.930 . S
C129 O142 1.270 . S
C129 O143 1.248 . S
C130 O144 1.267 . S
C130 O145 1.278 . S
C131 Pr121 2.880 . S
C131 C132 1.499 . S
C131 O146 1.254 . S
C131 O147 1.225 . S
C132 C131 1.499 . S
C132 C133 1.388 1_455 S
C132 C137 1.352 1_455 S
C133 C132 1.388 1_655 S
C133 C134 1.368 . S
C133 H156 0.929 . S
C134 C133 1.368 . S
C134 C135 1.386 . S
C134 H157 0.929 . S
C135 C134 1.386 . S
C135 C136 1.373 . S
C136 C135 1.373 . S
C136 C137 1.409 . S
C136 H158 0.931 . S
C137 C132 1.352 1_655 S
C137 C136 1.409 . S
C137 H159 0.930 . S
C138 O148 1.270 . S
C138 O149 1.248 . S
C139 O150 1.267 . S
C139 O151 1.278 . S
O140 Pr120 2.562 . S
O140 C122 1.254 . S
O141 Pr120 2.490 . S
O141 C122 1.225 . S
O142 Pr120 2.695 . S
O142 Pr121 2.436 . S
O142 C129 1.270 . S
O143 Pr120 2.512 . S
O143 C129 1.248 . S
O144 Pr121 2.438 . S
O144 C130 1.267 . S
O145 Pr120 2.437 . S
O145 C130 1.278 . S
O146 Pr121 2.562 . S
O146 C131 1.254 . S
O147 Pr121 2.490 . S
O147 C131 1.225 . S
O148 Pr120 2.436 . S
O148 Pr121 2.695 . S
O148 C138 1.270 . S
O149 Pr121 2.512 . S
O149 C138 1.248 . S
O150 Pr120 2.438 . S
O150 C139 1.267 . S
O151 Pr121 2.437 . S
O151 C139 1.278 . S
H152 C124 0.929 . S
H153 C125 0.929 . S
H154 C127 0.931 . S
H155 C128 0.930 . S
H156 C133 0.929 . S
H157 C134 0.929 . S
H158 C136 0.931 . S
H159 C137 0.930 . S
Pr160 C162 2.880 . S
Pr160 O180 2.562 . S
Pr160 O181 2.490 . S
Pr160 O182 2.695 . S
Pr160 O183 2.512 . S
Pr160 O185 2.437 . S
Pr160 O188 2.436 . S
Pr160 O190 2.438 . S
Pr161 C171 2.880 . S
Pr161 O182 2.436 1_455 S
Pr161 O184 2.438 1_455 S
Pr161 O186 2.562 . S
Pr161 O187 2.490 . S
Pr161 O188 2.695 1_455 S
Pr161 O189 2.512 . S
Pr161 O191 2.437 . S
C162 Pr160 2.880 . S
C162 C163 1.491 . S
C162 O180 1.254 . S
C162 O181 1.225 . S
C163 C162 1.491 . S
C163 C164 1.392 . S
C163 C168 1.356 . S
C164 C163 1.392 . S
C164 C165 1.368 . S
C164 H192 0.929 . S
C165 C164 1.368 . S
C165 C166 1.386 . S
C165 H193 0.929 . S
C166 C165 1.386 . S
C166 C167 1.373 . S
C167 C166 1.373 . S
C167 C168 1.409 . S
C167 H194 0.931 . S
C168 C163 1.356 . S
C168 C167 1.409 . S
C168 H195 0.930 . S
C169 O182 1.270 . S
C169 O183 1.248 . S
C170 O184 1.267 . S
C170 O185 1.278 . S
C171 Pr161 2.880 . S
C171 C172 1.491 . S
C171 O186 1.254 . S
C171 O187 1.225 . S
C172 C171 1.491 . S
C172 C173 1.392 . S
C172 C177 1.356 . S
C173 C172 1.392 . S
C173 C174 1.368 . S
C173 H196 0.929 . S
C174 C173 1.368 . S
C174 C175 1.386 . S
C174 H197 0.929 . S
C175 C174 1.386 . S
C175 C176 1.373 . S
C176 C175 1.373 . S
C176 C177 1.409 . S
C176 H198 0.931 . S
C177 C172 1.356 . S
C177 C176 1.409 . S
C177 H199 0.930 . S
C178 O188 1.270 . S
C178 O189 1.248 1_655 S
C179 O190 1.267 1_455 S
C179 O191 1.278 . S
O180 Pr160 2.562 . S
O180 C162 1.254 . S
O181 Pr160 2.490 . S
O181 C162 1.225 . S
O182 Pr160 2.695 . S
O182 Pr161 2.436 1_655 S
O182 C169 1.270 . S
O183 Pr160 2.512 . S
O183 C169 1.248 . S
O184 Pr161 2.438 1_655 S
O184 C170 1.267 . S
O185 Pr160 2.437 . S
O185 C170 1.278 . S
O186 Pr161 2.562 . S
O186 C171 1.254 . S
O187 Pr161 2.490 . S
O187 C171 1.225 . S
O188 Pr160 2.436 . S
O188 Pr161 2.695 1_655 S
O188 C178 1.270 . S
O189 Pr161 2.512 . S
O189 C178 1.248 1_455 S
O190 Pr160 2.438 . S
O190 C179 1.267 1_655 S
O191 Pr161 2.437 . S
O191 C179 1.278 . S
H192 C164 0.929 . S
H193 C165 0.929 . S
H194 C167 0.931 . S
H195 C168 0.930 . S
H196 C173 0.929 . S
H197 C174 0.929 . S
H198 C176 0.931 . S
H199 C177 0.930 . S
Pr200 C202 2.880 . S
Pr200 O220 2.562 . S
Pr200 O221 2.490 . S
Pr200 O222 2.695 . S
Pr200 O223 2.512 . S
Pr200 O225 2.437 . S
Pr200 O228 2.436 . S
Pr200 O230 2.438 . S
Pr201 C211 2.880 . S
Pr201 O222 2.436 . S
Pr201 O224 2.438 . S
Pr201 O226 2.562 . S
Pr201 O227 2.490 . S
Pr201 O228 2.695 . S
Pr201 O229 2.512 . S
Pr201 O231 2.437 . S
C202 Pr200 2.880 . S
C202 C203 1.499 . S
C202 O220 1.254 . S
C202 O221 1.225 . S
C203 C202 1.499 . S
C203 C204 1.388 1_655 S
C203 C208 1.352 1_655 S
C204 C203 1.388 1_455 S
C204 C205 1.368 . S
C204 H232 0.929 . S
C205 C204 1.368 . S
C205 C206 1.386 . S
C205 H233 0.929 . S
C206 C205 1.386 . S
C206 C207 1.373 . S
C207 C206 1.373 . S
C207 C208 1.409 . S
C207 H234 0.931 . S
C208 C203 1.352 1_455 S
C208 C207 1.409 . S
C208 H235 0.930 . S
C209 O222 1.270 . S
C209 O223 1.248 . S
C210 O224 1.267 . S
C210 O225 1.278 . S
C211 Pr201 2.880 . S
C211 C212 1.491 . S
C211 O226 1.254 . S
C211 O227 1.225 . S
C212 C211 1.491 . S
C212 C213 1.392 . S
C212 C217 1.356 . S
C213 C212 1.392 . S
C213 C214 1.368 . S
C213 H236 0.929 . S
C214 C213 1.368 . S
C214 C215 1.386 . S
C214 H237 0.929 . S
C215 C214 1.386 . S
C215 C216 1.373 . S
C216 C215 1.373 . S
C216 C217 1.409 . S
C216 H238 0.931 . S
C217 C212 1.356 . S
C217 C216 1.409 . S
C217 H239 0.930 . S
C218 O228 1.270 . S
C218 O229 1.248 . S
C219 O230 1.267 . S
C219 O231 1.278 . S
O220 Pr200 2.562 . S
O220 C202 1.254 . S
O221 Pr200 2.490 . S
O221 C202 1.225 . S
O222 Pr200 2.695 . S
O222 Pr201 2.436 . S
O222 C209 1.270 . S
O223 Pr200 2.512 . S
O223 C209 1.248 . S
O224 Pr201 2.438 . S
O224 C210 1.267 . S
O225 Pr200 2.437 . S
O225 C210 1.278 . S
O226 Pr201 2.562 . S
O226 C211 1.254 . S
O227 Pr201 2.490 . S
O227 C211 1.225 . S
O228 Pr200 2.436 . S
O228 Pr201 2.695 . S
O228 C218 1.270 . S
O229 Pr201 2.512 . S
O229 C218 1.248 . S
O230 Pr200 2.438 . S
O230 C219 1.267 . S
O231 Pr201 2.437 . S
O231 C219 1.278 . S
H232 C204 0.929 . S
H233 C205 0.929 . S
H234 C207 0.931 . S
H235 C208 0.930 . S
H236 C213 0.929 . S
H237 C214 0.929 . S
H238 C216 0.931 . S
H239 C217 0.930 . S
Pr240 C242 2.880 . S
Pr240 O260 2.562 . S
Pr240 O261 2.490 . S
Pr240 O262 2.695 . S
Pr240 O263 2.512 . S
Pr240 O265 2.437 . S
Pr240 O268 2.436 . S
Pr240 O270 2.438 . S
Pr241 C251 2.880 . S
Pr241 O262 2.436 1_455 S
Pr241 O264 2.438 1_455 S
Pr241 O266 2.562 . S
Pr241 O267 2.490 . S
Pr241 O268 2.695 1_455 S
Pr241 O269 2.512 . S
Pr241 O271 2.437 . S
C242 Pr240 2.880 . S
C242 C243 1.491 . S
C242 O260 1.254 . S
C242 O261 1.225 . S
C243 C242 1.491 . S
C243 C244 1.392 . S
C243 C248 1.356 . S
C244 C243 1.392 . S
C244 C245 1.368 . S
C244 H272 0.929 . S
C245 C244 1.368 . S
C245 C246 1.386 . S
C245 H273 0.929 . S
C246 C245 1.386 . S
C246 C247 1.373 . S
C247 C246 1.373 . S
C247 C248 1.409 . S
C247 H274 0.931 . S
C248 C243 1.356 . S
C248 C247 1.409 . S
C248 H275 0.930 . S
C249 O262 1.270 . S
C249 O263 1.248 . S
C250 O264 1.267 . S
C250 O265 1.278 . S
C251 Pr241 2.880 . S
C251 C252 1.491 . S
C251 O266 1.254 . S
C251 O267 1.225 . S
C252 C251 1.491 . S
C252 C253 1.392 . S
C252 C257 1.356 . S
C253 C252 1.392 . S
C253 C254 1.368 . S
C253 H276 0.929 . S
C254 C253 1.368 . S
C254 C255 1.386 . S
C254 H277 0.929 . S
C255 C254 1.386 . S
C255 C256 1.373 . S
C256 C255 1.373 . S
C256 C257 1.409 . S
C256 H278 0.931 . S
C257 C252 1.356 . S
C257 C256 1.409 . S
C257 H279 0.930 . S
C258 O268 1.270 . S
C258 O269 1.248 1_655 S
C259 O270 1.267 1_455 S
C259 O271 1.278 . S
O260 Pr240 2.562 . S
O260 C242 1.254 . S
O261 Pr240 2.490 . S
O261 C242 1.225 . S
O262 Pr240 2.695 . S
O262 Pr241 2.436 1_655 S
O262 C249 1.270 . S
O263 Pr240 2.512 . S
O263 C249 1.248 . S
O264 Pr241 2.438 1_655 S
O264 C250 1.267 . S
O265 Pr240 2.437 . S
O265 C250 1.278 . S
O266 Pr241 2.562 . S
O266 C251 1.254 . S
O267 Pr241 2.490 . S
O267 C251 1.225 . S
O268 Pr240 2.436 . S
O268 Pr241 2.695 1_655 S
O268 C258 1.270 . S
O269 Pr241 2.512 . S
O269 C258 1.248 1_455 S
O270 Pr240 2.438 . S
O270 C259 1.267 1_655 S
O271 Pr241 2.437 . S
O271 C259 1.278 . S
H272 C244 0.929 . S
H273 C245 0.929 . S
H274 C247 0.931 . S
H275 C248 0.930 . S
H276 C253 0.929 . S
H277 C254 0.929 . S
H278 C256 0.931 . S
H279 C257 0.930 . S
Pr280 C282 2.880 . S
Pr280 O300 2.562 . S
Pr280 O301 2.490 . S
Pr280 O302 2.695 . S
Pr280 O303 2.512 . S
Pr280 O305 2.437 . S
Pr280 O308 2.436 . S
Pr280 O310 2.438 . S
Pr281 C291 2.880 . S
Pr281 O302 2.436 . S
Pr281 O304 2.438 . S
Pr281 O306 2.562 . S
Pr281 O307 2.490 . S
Pr281 O308 2.695 . S
Pr281 O309 2.512 . S
Pr281 O311 2.437 . S
C282 Pr280 2.880 . S
C282 C283 1.499 . S
C282 O300 1.254 . S
C282 O301 1.225 . S
C283 C282 1.499 . S
C283 C284 1.388 1_655 S
C283 C288 1.352 1_655 S
C284 C283 1.388 1_455 S
C284 C285 1.368 . S
C284 H312 0.929 . S
C285 C284 1.368 . S
C285 C286 1.386 . S
C285 H313 0.929 . S
C286 C285 1.386 . S
C286 C287 1.373 . S
C287 C286 1.373 . S
C287 C288 1.409 . S
C287 H314 0.931 . S
C288 C283 1.352 1_455 S
C288 C287 1.409 . S
C288 H315 0.930 . S
C289 O302 1.270 . S
C289 O303 1.248 . S
C290 O304 1.267 . S
C290 O305 1.278 . S
C291 Pr281 2.880 . S
C291 C292 1.491 . S
C291 O306 1.254 . S
C291 O307 1.225 . S
C292 C291 1.491 . S
C292 C293 1.392 . S
C292 C297 1.356 . S
C293 C292 1.392 . S
C293 C294 1.368 . S
C293 H316 0.929 . S
C294 C293 1.368 . S
C294 C295 1.386 . S
C294 H317 0.929 . S
C295 C294 1.386 . S
C295 C296 1.373 . S
C296 C295 1.373 . S
C296 C297 1.409 . S
C296 H318 0.931 . S
C297 C292 1.356 . S
C297 C296 1.409 . S
C297 H319 0.930 . S
C298 O308 1.270 . S
C298 O309 1.248 . S
C299 O310 1.267 . S
C299 O311 1.278 . S
O300 Pr280 2.562 . S
O300 C282 1.254 . S
O301 Pr280 2.490 . S
O301 C282 1.225 . S
O302 Pr280 2.695 . S
O302 Pr281 2.436 . S
O302 C289 1.270 . S
O303 Pr280 2.512 . S
O303 C289 1.248 . S
O304 Pr281 2.438 . S
O304 C290 1.267 . S
O305 Pr280 2.437 . S
O305 C290 1.278 . S
O306 Pr281 2.562 . S
O306 C291 1.254 . S
O307 Pr281 2.490 . S
O307 C291 1.225 . S
O308 Pr280 2.436 . S
O308 Pr281 2.695 . S
O308 C298 1.270 . S
O309 Pr281 2.512 . S
O309 C298 1.248 . S
O310 Pr280 2.438 . S
O310 C299 1.267 . S
O311 Pr281 2.437 . S
O311 C299 1.278 . S
H312 C284 0.929 . S
H313 C285 0.929 . S
H314 C287 0.931 . S
H315 C288 0.930 . S
H316 C293 0.929 . S
H317 C294 0.929 . S
H318 C296 0.931 . S
H319 C297 0.930 . S
Pr320 C322 2.872 1_545 S
Pr320 O340 2.562 1_545 S
Pr320 O341 2.490 . S
Pr320 O342 2.695 1_645 S
Pr320 O343 2.512 . S
Pr320 O345 2.437 1_545 S
Pr320 O348 2.436 1_645 S
Pr320 O350 2.438 1_655 S
Pr321 C331 2.880 . S
Pr321 O342 2.436 . S
Pr321 O344 2.438 . S
Pr321 O346 2.562 . S
Pr321 O347 2.490 . S
Pr321 O348 2.695 . S
Pr321 O349 2.512 . S
Pr321 O351 2.437 1_565 S
C322 Pr320 2.872 1_565 S
C322 C323 1.499 . S
C322 O340 1.258 . S
C322 O341 1.213 1_565 S
C323 C322 1.499 . S
C323 C324 1.392 . S
C323 C328 1.356 . S
C324 C323 1.392 . S
C324 C325 1.368 . S
C324 H352 0.929 1_565 S
C325 C324 1.368 . S
C325 C326 1.386 . S
C325 H353 0.929 . S
C326 C325 1.386 . S
C326 C327 1.373 . S
C327 C326 1.373 . S
C327 C328 1.409 . S
C327 H354 0.931 . S
C328 C323 1.356 . S
C328 C327 1.409 . S
C328 H355 0.930 . S
C329 O342 1.270 . S
C329 O343 1.248 1_465 S
C330 O344 1.267 1_655 S
C330 O345 1.278 . S
C331 Pr321 2.880 . S
C331 C332 1.491 . S
C331 O346 1.254 . S
C331 O347 1.225 . S
C332 C331 1.491 . S
C332 C333 1.392 . S
C332 C337 1.356 1_565 S
C333 C332 1.392 . S
C333 C334 1.368 . S
C333 H356 0.929 . S
C334 C333 1.368 . S
C334 C335 1.386 1_565 S
C334 H357 0.929 . S
C335 C334 1.386 1_545 S
C335 C336 1.373 . S
C336 C335 1.373 . S
C336 C337 1.409 . S
C336 H358 0.931 . S
C337 C332 1.356 1_545 S
C337 C336 1.409 . S
C337 H359 0.930 . S
C338 O348 1.270 . S
C338 O349 1.248 . S
C339 O350 1.267 . S
C339 O351 1.278 . S
O340 Pr320 2.562 1_565 S
O340 C322 1.258 . S
O341 Pr320 2.490 . S
O341 C322 1.213 1_545 S
O342 Pr320 2.695 1_465 S
O342 Pr321 2.436 . S
O342 C329 1.270 . S
O343 Pr320 2.512 . S
O343 C329 1.248 1_645 S
O344 Pr321 2.438 . S
O344 C330 1.267 1_455 S
O345 Pr320 2.437 1_565 S
O345 C330 1.278 . S
O346 Pr321 2.562 . S
O346 C331 1.254 . S
O347 Pr321 2.490 . S
O347 C331 1.225 . S
O348 Pr320 2.436 1_465 S
O348 Pr321 2.695 . S
O348 C338 1.270 . S
O349 Pr321 2.512 . S
O349 C338 1.248 . S
O350 Pr320 2.438 1_455 S
O350 C339 1.267 . S
O351 Pr321 2.437 1_545 S
O351 C339 1.278 . S
H352 C324 0.929 1_545 S
H353 C325 0.929 . S
H354 C327 0.931 . S
H355 C328 0.930 . S
H356 C333 0.929 . S
H357 C334 0.929 . S
H358 C336 0.931 . S
H359 C337 0.930 . S
Pr360 C362 2.880 . S
Pr360 O380 2.562 . S
Pr360 O381 2.490 . S
Pr360 O382 2.695 . S
Pr360 O383 2.512 . S
Pr360 O385 2.437 . S
Pr360 O388 2.436 . S
Pr360 O390 2.438 . S
Pr361 C371 2.880 . S
Pr361 O382 2.436 . S
Pr361 O384 2.438 . S
Pr361 O386 2.562 . S
Pr361 O387 2.490 . S
Pr361 O388 2.695 . S
Pr361 O389 2.512 . S
Pr361 O391 2.437 . S
C362 Pr360 2.880 . S
C362 C363 1.491 . S
C362 O380 1.254 . S
C362 O381 1.225 . S
C363 C362 1.491 . S
C363 C364 1.392 . S
C363 C368 1.356 . S
C364 C363 1.392 . S
C364 C365 1.368 . S
C364 H392 0.929 . S
C365 C364 1.368 . S
C365 C366 1.386 . S
C365 H393 0.929 . S
C366 C365 1.386 . S
C366 C367 1.373 . S
C367 C366 1.373 . S
C367 C368 1.409 . S
C367 H394 0.931 . S
C368 C363 1.356 . S
C368 C367 1.409 . S
C368 H395 0.930 . S
C369 O382 1.270 . S
C369 O383 1.248 . S
C370 O384 1.267 . S
C370 O385 1.278 . S
C371 Pr361 2.880 . S
C371 C372 1.499 . S
C371 O386 1.254 . S
C371 O387 1.225 . S
C372 C371 1.499 . S
C372 C373 1.388 1_455 S
C372 C377 1.352 1_455 S
C373 C372 1.388 1_655 S
C373 C374 1.368 . S
C373 H396 0.929 . S
C374 C373 1.368 . S
C374 C375 1.386 . S
C374 H397 0.929 . S
C375 C374 1.386 . S
C375 C376 1.373 . S
C376 C375 1.373 . S
C376 C377 1.409 . S
C376 H398 0.931 . S
C377 C372 1.352 1_655 S
C377 C376 1.409 . S
C377 H399 0.930 . S
C378 O388 1.270 . S
C378 O389 1.248 . S
C379 O390 1.267 . S
C379 O391 1.278 . S
O380 Pr360 2.562 . S
O380 C362 1.254 . S
O381 Pr360 2.490 . S
O381 C362 1.225 . S
O382 Pr360 2.695 . S
O382 Pr361 2.436 . S
O382 C369 1.270 . S
O383 Pr360 2.512 . S
O383 C369 1.248 . S
O384 Pr361 2.438 . S
O384 C370 1.267 . S
O385 Pr360 2.437 . S
O385 C370 1.278 . S
O386 Pr361 2.562 . S
O386 C371 1.254 . S
O387 Pr361 2.490 . S
O387 C371 1.225 . S
O388 Pr360 2.436 . S
O388 Pr361 2.695 . S
O388 C378 1.270 . S
O389 Pr361 2.512 . S
O389 C378 1.248 . S
O390 Pr360 2.438 . S
O390 C379 1.267 . S
O391 Pr361 2.437 . S
O391 C379 1.278 . S
H392 C364 0.929 . S
H393 C365 0.929 . S
H394 C367 0.931 . S
H395 C368 0.930 . S
H396 C373 0.929 . S
H397 C374 0.929 . S
H398 C376 0.931 . S
H399 C377 0.930 . S
Pr400 C402 2.880 . S
Pr400 O420 2.562 . S
Pr400 O421 2.490 . S
Pr400 O422 2.695 1_655 S
Pr400 O423 2.512 . S
Pr400 O425 2.437 . S
Pr400 O428 2.436 1_655 S
Pr400 O430 2.438 1_655 S
Pr401 C411 2.880 . S
Pr401 O422 2.436 . S
Pr401 O424 2.438 . S
Pr401 O426 2.562 . S
Pr401 O427 2.490 . S
Pr401 O428 2.695 . S
Pr401 O429 2.512 . S
Pr401 O431 2.437 . S
C402 Pr400 2.880 . S
C402 C403 1.491 . S
C402 O420 1.254 . S
C402 O421 1.225 . S
C403 C402 1.491 . S
C403 C404 1.392 . S
C403 C408 1.356 . S
C404 C403 1.392 . S
C404 C405 1.368 . S
C404 H432 0.929 . S
C405 C404 1.368 . S
C405 C406 1.386 . S
C405 H433 0.929 . S
C406 C405 1.386 . S
C406 C407 1.373 . S
C407 C406 1.373 . S
C407 C408 1.409 . S
C407 H434 0.931 . S
C408 C403 1.356 . S
C408 C407 1.409 . S
C408 H435 0.930 . S
C409 O422 1.270 . S
C409 O423 1.248 1_455 S
C410 O424 1.267 1_655 S
C410 O425 1.278 . S
C411 Pr401 2.880 . S
C411 C412 1.491 . S
C411 O426 1.254 . S
C411 O427 1.225 . S
C412 C411 1.491 . S
C412 C413 1.392 . S
C412 C417 1.356 . S
C413 C412 1.392 . S
C413 C414 1.368 . S
C413 H436 0.929 . S
C414 C413 1.368 . S
C414 C415 1.386 . S
C414 H437 0.929 . S
C415 C414 1.386 . S
C415 C416 1.373 . S
C416 C415 1.373 . S
C416 C417 1.409 . S
C416 H438 0.931 . S
C417 C412 1.356 . S
C417 C416 1.409 . S
C417 H439 0.930 . S
C418 O428 1.270 . S
C418 O429 1.248 . S
C419 O430 1.267 . S
C419 O431 1.278 . S
O420 Pr400 2.562 . S
O420 C402 1.254 . S
O421 Pr400 2.490 . S
O421 C402 1.225 . S
O422 Pr400 2.695 1_455 S
O422 Pr401 2.436 . S
O422 C409 1.270 . S
O423 Pr400 2.512 . S
O423 C409 1.248 1_655 S
O424 Pr401 2.438 . S
O424 C410 1.267 1_455 S
O425 Pr400 2.437 . S
O425 C410 1.278 . S
O426 Pr401 2.562 . S
O426 C411 1.254 . S
O427 Pr401 2.490 . S
O427 C411 1.225 . S
O428 Pr400 2.436 1_455 S
O428 Pr401 2.695 . S
O428 C418 1.270 . S
O429 Pr401 2.512 . S
O429 C418 1.248 . S
O430 Pr400 2.438 1_455 S
O430 C419 1.267 . S
O431 Pr401 2.437 . S
O431 C419 1.278 . S
H432 C404 0.929 . S
H433 C405 0.929 . S
H434 C407 0.931 . S
H435 C408 0.930 . S
H436 C413 0.929 . S
H437 C414 0.929 . S
H438 C416 0.931 . S
H439 C417 0.930 . S
Pr440 C442 2.872 1_545 S
Pr440 O460 2.562 1_545 S
Pr440 O461 2.490 . S
Pr440 O462 2.695 1_545 S
Pr440 O463 2.512 . S
Pr440 O465 2.437 1_545 S
Pr440 O468 2.436 1_545 S
Pr440 O470 2.438 . S
Pr441 C451 2.880 . S
Pr441 O462 2.436 . S
Pr441 O464 2.438 . S
Pr441 O466 2.562 . S
Pr441 O467 2.490 . S
Pr441 O468 2.695 . S
Pr441 O469 2.512 . S
Pr441 O471 2.437 1_565 S
C442 Pr440 2.872 1_565 S
C442 C443 1.499 . S
C442 O460 1.258 . S
C442 O461 1.213 1_565 S
C443 C442 1.499 . S
C443 C444 1.392 . S
C443 C448 1.356 . S
C444 C443 1.392 . S
C444 C445 1.368 . S
C444 H472 0.929 1_565 S
C445 C444 1.368 . S
C445 C446 1.386 . S
C445 H473 0.929 . S
C446 C445 1.386 . S
C446 C447 1.373 . S
C447 C446 1.373 . S
C447 C448 1.409 . S
C447 H474 0.931 . S
C448 C443 1.356 . S
C448 C447 1.409 . S
C448 H475 0.930 . S
C449 O462 1.270 . S
C449 O463 1.248 1_565 S
C450 O464 1.267 . S
C450 O465 1.278 . S
C451 Pr441 2.880 . S
C451 C452 1.499 . S
C451 O466 1.254 . S
C451 O467 1.225 . S
C452 C451 1.499 . S
C452 C453 1.388 1_455 S
C452 C457 1.352 1_465 S
C453 C452 1.388 1_655 S
C453 C454 1.368 . S
C453 H476 0.929 . S
C454 C453 1.368 . S
C454 C455 1.386 1_565 S
C454 H477 0.929 . S
C455 C454 1.386 1_545 S
C455 C456 1.373 . S
C456 C455 1.373 . S
C456 C457 1.409 . S
C456 H478 0.931 . S
C457 C452 1.352 1_645 S
C457 C456 1.409 . S
C457 H479 0.930 . S
C458 O468 1.270 . S
C458 O469 1.248 . S
C459 O470 1.267 . S
C459 O471 1.278 . S
O460 Pr440 2.562 1_565 S
O460 C442 1.258 . S
O461 Pr440 2.490 . S
O461 C442 1.213 1_545 S
O462 Pr440 2.695 1_565 S
O462 Pr441 2.436 . S
O462 C449 1.270 . S
O463 Pr440 2.512 . S
O463 C449 1.248 1_545 S
O464 Pr441 2.438 . S
O464 C450 1.267 . S
O465 Pr440 2.437 1_565 S
O465 C450 1.278 . S
O466 Pr441 2.562 . S
O466 C451 1.254 . S
O467 Pr441 2.490 . S
O467 C451 1.225 . S
O468 Pr440 2.436 1_565 S
O468 Pr441 2.695 . S
O468 C458 1.270 . S
O469 Pr441 2.512 . S
O469 C458 1.248 . S
O470 Pr440 2.438 . S
O470 C459 1.267 . S
O471 Pr441 2.437 1_545 S
O471 C459 1.278 . S
H472 C444 0.929 1_545 S
H473 C445 0.929 . S
H474 C447 0.931 . S
H475 C448 0.930 . S
H476 C453 0.929 . S
H477 C454 0.929 . S
H478 C456 0.931 . S
H479 C457 0.930 . S
Pr480 C482 2.880 . S
Pr480 O500 2.562 . S
Pr480 O501 2.490 . S
Pr480 O502 2.695 . S
Pr480 O503 2.512 . S
Pr480 O505 2.437 1_545 S
Pr480 O508 2.436 . S
Pr480 O510 2.438 . S
Pr481 C491 2.872 1_565 S
Pr481 O502 2.436 1_465 S
Pr481 O504 2.438 1_455 S
Pr481 O506 2.562 1_565 S
Pr481 O507 2.490 . S
Pr481 O508 2.695 1_465 S
Pr481 O509 2.512 . S
Pr481 O511 2.437 1_565 S
C482 Pr480 2.880 . S
C482 C483 1.491 . S
C482 O500 1.254 . S
C482 O501 1.225 . S
C483 C482 1.491 . S
C483 C484 1.392 . S
C483 C488 1.356 1_545 S
C484 C483 1.392 . S
C484 C485 1.368 . S
C484 H512 0.929 . S
C485 C484 1.368 . S
C485 C486 1.386 1_545 S
C485 H513 0.929 . S
C486 C485 1.386 1_565 S
C486 C487 1.373 . S
C487 C486 1.373 . S
C487 C488 1.409 . S
C487 H514 0.931 . S
C488 C483 1.356 1_565 S
C488 C487 1.409 . S
C488 H515 0.930 . S
C489 O502 1.270 . S
C489 O503 1.248 . S
C490 O504 1.267 . S
C490 O505 1.278 . S
C491 Pr481 2.872 1_545 S
C491 C492 1.499 . S
C491 O506 1.258 . S
C491 O507 1.213 1_545 S
C492 C491 1.499 . S
C492 C493 1.392 . S
C492 C497 1.356 . S
C493 C492 1.392 . S
C493 C494 1.368 . S
C493 H516 0.929 1_545 S
C494 C493 1.368 . S
C494 C495 1.386 . S
C494 H517 0.929 . S
C495 C494 1.386 . S
C495 C496 1.373 . S
C496 C495 1.373 . S
C496 C497 1.409 . S
C496 H518 0.931 . S
C497 C492 1.356 . S
C497 C496 1.409 . S
C497 H519 0.930 . S
C498 O508 1.270 . S
C498 O509 1.248 1_645 S
C499 O510 1.267 1_455 S
C499 O511 1.278 . S
O500 Pr480 2.562 . S
O500 C482 1.254 . S
O501 Pr480 2.490 . S
O501 C482 1.225 . S
O502 Pr480 2.695 . S
O502 Pr481 2.436 1_645 S
O502 C489 1.270 . S
O503 Pr480 2.512 . S
O503 C489 1.248 . S
O504 Pr481 2.438 1_655 S
O504 C490 1.267 . S
O505 Pr480 2.437 1_565 S
O505 C490 1.278 . S
O506 Pr481 2.562 1_545 S
O506 C491 1.258 . S
O507 Pr481 2.490 . S
O507 C491 1.213 1_565 S
O508 Pr480 2.436 . S
O508 Pr481 2.695 1_645 S
O508 C498 1.270 . S
O509 Pr481 2.512 . S
O509 C498 1.248 1_465 S
O510 Pr480 2.438 . S
O510 C499 1.267 1_655 S
O511 Pr481 2.437 1_545 S
O511 C499 1.278 . S
H512 C484 0.929 . S
H513 C485 0.929 . S
H514 C487 0.931 . S
H515 C488 0.930 . S
H516 C493 0.929 1_565 S
H517 C494 0.929 . S
H518 C496 0.931 . S
H519 C497 0.930 . S
Pr520 C522 2.880 . S
Pr520 O540 2.562 . S
Pr520 O541 2.490 . S
Pr520 O542 2.695 . S
Pr520 O543 2.512 . S
Pr520 O545 2.437 . S
Pr520 O548 2.436 . S
Pr520 O550 2.438 . S
Pr521 C531 2.880 . S
Pr521 O542 2.436 . S
Pr521 O544 2.438 . S
Pr521 O546 2.562 . S
Pr521 O547 2.490 . S
Pr521 O548 2.695 . S
Pr521 O549 2.512 . S
Pr521 O551 2.437 . S
C522 Pr520 2.880 . S
C522 C523 1.499 . S
C522 O540 1.254 . S
C522 O541 1.225 . S
C523 C522 1.499 . S
C523 C524 1.388 1_655 S
C523 C528 1.352 1_655 S
C524 C523 1.388 1_455 S
C524 C525 1.368 . S
C524 H552 0.929 . S
C525 C524 1.368 . S
C525 C526 1.386 . S
C525 H553 0.929 . S
C526 C525 1.386 . S
C526 C527 1.373 . S
C527 C526 1.373 . S
C527 C528 1.409 . S
C527 H554 0.931 . S
C528 C523 1.352 1_455 S
C528 C527 1.409 . S
C528 H555 0.930 . S
C529 O542 1.270 . S
C529 O543 1.248 . S
C530 O544 1.267 . S
C530 O545 1.278 . S
C531 Pr521 2.880 . S
C531 C532 1.491 . S
C531 O546 1.254 . S
C531 O547 1.225 . S
C532 C531 1.491 . S
C532 C533 1.392 . S
C532 C537 1.356 . S
C533 C532 1.392 . S
C533 C534 1.368 . S
C533 H556 0.929 . S
C534 C533 1.368 . S
C534 C535 1.386 . S
C534 H557 0.929 . S
C535 C534 1.386 . S
C535 C536 1.373 . S
C536 C535 1.373 . S
C536 C537 1.409 . S
C536 H558 0.931 . S
C537 C532 1.356 . S
C537 C536 1.409 . S
C537 H559 0.930 . S
C538 O548 1.270 . S
C538 O549 1.248 . S
C539 O550 1.267 . S
C539 O551 1.278 . S
O540 Pr520 2.562 . S
O540 C522 1.254 . S
O541 Pr520 2.490 . S
O541 C522 1.225 . S
O542 Pr520 2.695 . S
O542 Pr521 2.436 . S
O542 C529 1.270 . S
O543 Pr520 2.512 . S
O543 C529 1.248 . S
O544 Pr521 2.438 . S
O544 C530 1.267 . S
O545 Pr520 2.437 . S
O545 C530 1.278 . S
O546 Pr521 2.562 . S
O546 C531 1.254 . S
O547 Pr521 2.490 . S
O547 C531 1.225 . S
O548 Pr520 2.436 . S
O548 Pr521 2.695 . S
O548 C538 1.270 . S
O549 Pr521 2.512 . S
O549 C538 1.248 . S
O550 Pr520 2.438 . S
O550 C539 1.267 . S
O551 Pr521 2.437 . S
O551 C539 1.278 . S
H552 C524 0.929 . S
H553 C525 0.929 . S
H554 C527 0.931 . S
H555 C528 0.930 . S
H556 C533 0.929 . S
H557 C534 0.929 . S
H558 C536 0.931 . S
H559 C537 0.930 . S
Pr560 C562 2.880 . S
Pr560 O580 2.562 . S
Pr560 O581 2.490 . S
Pr560 O582 2.695 . S
Pr560 O583 2.512 . S
Pr560 O585 2.437 . S
Pr560 O588 2.436 . S
Pr560 O590 2.438 . S
Pr561 C571 2.880 . S
Pr561 O582 2.436 1_455 S
Pr561 O584 2.438 1_455 S
Pr561 O586 2.562 . S
Pr561 O587 2.490 . S
Pr561 O588 2.695 1_455 S
Pr561 O589 2.512 . S
Pr561 O591 2.437 . S
C562 Pr560 2.880 . S
C562 C563 1.491 . S
C562 O580 1.254 . S
C562 O581 1.225 . S
C563 C562 1.491 . S
C563 C564 1.392 . S
C563 C568 1.356 . S
C564 C563 1.392 . S
C564 C565 1.368 . S
C564 H592 0.929 . S
C565 C564 1.368 . S
C565 C566 1.386 . S
C565 H593 0.929 . S
C566 C565 1.386 . S
C566 C567 1.373 . S
C567 C566 1.373 . S
C567 C568 1.409 . S
C567 H594 0.931 . S
C568 C563 1.356 . S
C568 C567 1.409 . S
C568 H595 0.930 . S
C569 O582 1.270 . S
C569 O583 1.248 . S
C570 O584 1.267 . S
C570 O585 1.278 . S
C571 Pr561 2.880 . S
C571 C572 1.491 . S
C571 O586 1.254 . S
C571 O587 1.225 . S
C572 C571 1.491 . S
C572 C573 1.392 . S
C572 C577 1.356 . S
C573 C572 1.392 . S
C573 C574 1.368 . S
C573 H596 0.929 . S
C574 C573 1.368 . S
C574 C575 1.386 . S
C574 H597 0.929 . S
C575 C574 1.386 . S
C575 C576 1.373 . S
C576 C575 1.373 . S
C576 C577 1.409 . S
C576 H598 0.931 . S
C577 C572 1.356 . S
C577 C576 1.409 . S
C577 H599 0.930 . S
C578 O588 1.270 . S
C578 O589 1.248 1_655 S
C579 O590 1.267 1_455 S
C579 O591 1.278 . S
O580 Pr560 2.562 . S
O580 C562 1.254 . S
O581 Pr560 2.490 . S
O581 C562 1.225 . S
O582 Pr560 2.695 . S
O582 Pr561 2.436 1_655 S
O582 C569 1.270 . S
O583 Pr560 2.512 . S
O583 C569 1.248 . S
O584 Pr561 2.438 1_655 S
O584 C570 1.267 . S
O585 Pr560 2.437 . S
O585 C570 1.278 . S
O586 Pr561 2.562 . S
O586 C571 1.254 . S
O587 Pr561 2.490 . S
O587 C571 1.225 . S
O588 Pr560 2.436 . S
O588 Pr561 2.695 1_655 S
O588 C578 1.270 . S
O589 Pr561 2.512 . S
O589 C578 1.248 1_455 S
O590 Pr560 2.438 . S
O590 C579 1.267 1_655 S
O591 Pr561 2.437 . S
O591 C579 1.278 . S
H592 C564 0.929 . S
H593 C565 0.929 . S
H594 C567 0.931 . S
H595 C568 0.930 . S
H596 C573 0.929 . S
H597 C574 0.929 . S
H598 C576 0.931 . S
H599 C577 0.930 . S
Pr600 C602 2.880 . S
Pr600 O620 2.562 . S
Pr600 O621 2.490 . S
Pr600 O622 2.695 . S
Pr600 O623 2.512 . S
Pr600 O625 2.437 1_545 S
Pr600 O628 2.436 . S
Pr600 O630 2.438 . S
Pr601 C611 2.872 1_565 S
Pr601 O622 2.436 1_565 S
Pr601 O624 2.438 . S
Pr601 O626 2.562 1_565 S
Pr601 O627 2.490 . S
Pr601 O628 2.695 1_565 S
Pr601 O629 2.512 . S
Pr601 O631 2.437 1_565 S
C602 Pr600 2.880 . S
C602 C603 1.499 . S
C602 O620 1.254 . S
C602 O621 1.225 . S
C603 C602 1.499 . S
C603 C604 1.388 1_655 S
C603 C608 1.352 1_645 S
C604 C603 1.388 1_455 S
C604 C605 1.368 . S
C604 H632 0.929 . S
C605 C604 1.368 . S
C605 C606 1.386 1_545 S
C605 H633 0.929 . S
C606 C605 1.386 1_565 S
C606 C607 1.373 . S
C607 C606 1.373 . S
C607 C608 1.409 . S
C607 H634 0.931 . S
C608 C603 1.352 1_465 S
C608 C607 1.409 . S
C608 H635 0.930 . S
C609 O622 1.270 . S
C609 O623 1.248 . S
C610 O624 1.267 . S
C610 O625 1.278 . S
C611 Pr601 2.872 1_545 S
C611 C612 1.499 . S
C611 O626 1.258 . S
C611 O627 1.213 1_545 S
C612 C611 1.499 . S
C612 C613 1.392 . S
C612 C617 1.356 . S
C613 C612 1.392 . S
C613 C614 1.368 . S
C613 H636 0.929 1_545 S
C614 C613 1.368 . S
C614 C615 1.386 . S
C614 H637 0.929 . S
C615 C614 1.386 . S
C615 C616 1.373 . S
C616 C615 1.373 . S
C616 C617 1.409 . S
C616 H638 0.931 . S
C617 C612 1.356 . S
C617 C616 1.409 . S
C617 H639 0.930 . S
C618 O628 1.270 . S
C618 O629 1.248 1_545 S
C619 O630 1.267 . S
C619 O631 1.278 . S
O620 Pr600 2.562 . S
O620 C602 1.254 . S
O621 Pr600 2.490 . S
O621 C602 1.225 . S
O622 Pr600 2.695 . S
O622 Pr601 2.436 1_545 S
O622 C609 1.270 . S
O623 Pr600 2.512 . S
O623 C609 1.248 . S
O624 Pr601 2.438 . S
O624 C610 1.267 . S
O625 Pr600 2.437 1_565 S
O625 C610 1.278 . S
O626 Pr601 2.562 1_545 S
O626 C611 1.258 . S
O627 Pr601 2.490 . S
O627 C611 1.213 1_565 S
O628 Pr600 2.436 . S
O628 Pr601 2.695 1_545 S
O628 C618 1.270 . S
O629 Pr601 2.512 . S
O629 C618 1.248 1_565 S
O630 Pr600 2.438 . S
O630 C619 1.267 . S
O631 Pr601 2.437 1_545 S
O631 C619 1.278 . S
H632 C604 0.929 . S
H633 C605 0.929 . S
H634 C607 0.931 . S
H635 C608 0.930 . S
H636 C613 0.929 1_565 S
H637 C614 0.929 . S
H638 C616 0.931 . S
H639 C617 0.930 . S
Pr640 C642 2.880 . S
Pr640 O660 2.562 . S
Pr640 O661 2.490 . S
Pr640 O662 2.695 . S
Pr640 O663 2.512 . S
Pr640 O665 2.437 . S
Pr640 O668 2.436 . S
Pr640 O670 2.438 . S
Pr641 C651 2.880 . S
Pr641 O662 2.436 . S
Pr641 O664 2.438 . S
Pr641 O666 2.562 . S
Pr641 O667 2.490 . S
Pr641 O668 2.695 . S
Pr641 O669 2.512 . S
Pr641 O671 2.437 . S
C642 Pr640 2.880 . S
C642 C643 1.491 . S
C642 O660 1.254 . S
C642 O661 1.225 . S
C643 C642 1.491 . S
C643 C644 1.392 . S
C643 C648 1.356 . S
C644 C643 1.392 . S
C644 C645 1.368 . S
C644 H672 0.929 . S
C645 C644 1.368 . S
C645 C646 1.386 . S
C645 H673 0.929 . S
C646 C645 1.386 . S
C646 C647 1.373 . S
C647 C646 1.373 . S
C647 C648 1.409 . S
C647 H674 0.931 . S
C648 C643 1.356 . S
C648 C647 1.409 . S
C648 H675 0.930 . S
C649 O662 1.270 . S
C649 O663 1.248 . S
C650 O664 1.267 . S
C650 O665 1.278 . S
C651 Pr641 2.880 . S
C651 C652 1.491 . S
C651 O666 1.254 . S
C651 O667 1.225 . S
C652 C651 1.491 . S
C652 C653 1.392 . S
C652 C657 1.356 . S
C653 C652 1.392 . S
C653 C654 1.368 . S
C653 H676 0.929 . S
C654 C653 1.368 . S
C654 C655 1.386 . S
C654 H677 0.929 . S
C655 C654 1.386 . S
C655 C656 1.373 . S
C656 C655 1.373 . S
C656 C657 1.409 . S
C656 H678 0.931 . S
C657 C652 1.356 . S
C657 C656 1.409 . S
C657 H679 0.930 . S
C658 O668 1.270 . S
C658 O669 1.248 . S
C659 O670 1.267 . S
C659 O671 1.278 . S
O660 Pr640 2.562 . S
O660 C642 1.254 . S
O661 Pr640 2.490 . S
O661 C642 1.225 . S
O662 Pr640 2.695 . S
O662 Pr641 2.436 . S
O662 C649 1.270 . S
O663 Pr640 2.512 . S
O663 C649 1.248 . S
O664 Pr641 2.438 . S
O664 C650 1.267 . S
O665 Pr640 2.437 . S
O665 C650 1.278 . S
O666 Pr641 2.562 . S
O666 C651 1.254 . S
O667 Pr641 2.490 . S
O667 C651 1.225 . S
O668 Pr640 2.436 . S
O668 Pr641 2.695 . S
O668 C658 1.270 . S
O669 Pr641 2.512 . S
O669 C658 1.248 . S
O670 Pr640 2.438 . S
O670 C659 1.267 . S
O671 Pr641 2.437 . S
O671 C659 1.278 . S
H672 C644 0.929 . S
H673 C645 0.929 . S
H674 C647 0.931 . S
H675 C648 0.930 . S
H676 C653 0.929 . S
H677 C654 0.929 . S
H678 C656 0.931 . S
H679 C657 0.930 . S
Pr680 C682 2.880 . S
Pr680 O700 2.562 . S
Pr680 O701 2.490 . S
Pr680 O702 2.695 . S
Pr680 O703 2.512 . S
Pr680 O705 2.437 . S
Pr680 O708 2.436 . S
Pr680 O710 2.438 . S
Pr681 C691 2.880 . S
Pr681 O702 2.436 . S
Pr681 O704 2.438 . S
Pr681 O706 2.562 . S
Pr681 O707 2.490 . S
Pr681 O708 2.695 . S
Pr681 O709 2.512 . S
Pr681 O711 2.437 . S
C682 Pr680 2.880 . S
C682 C683 1.491 . S
C682 O700 1.254 . S
C682 O701 1.225 . S
C683 C682 1.491 . S
C683 C684 1.392 . S
C683 C688 1.356 . S
C684 C683 1.392 . S
C684 C685 1.368 1_655 S
C684 H712 0.929 . S
C685 C684 1.368 1_455 S
C685 C686 1.386 . S
C685 H713 0.929 . S
C686 C685 1.386 . S
C686 C687 1.373 . S
C687 C686 1.373 . S
C687 C688 1.409 1_455 S
C687 H714 0.931 . S
C688 C683 1.356 . S
C688 C687 1.409 1_655 S
C688 H715 0.930 . S
C689 O702 1.270 . S
C689 O703 1.248 . S
C690 O704 1.267 . S
C690 O705 1.278 . S
C691 Pr681 2.880 . S
C691 C692 1.491 . S
C691 O706 1.254 . S
C691 O707 1.225 . S
C692 C691 1.491 . S
C692 C693 1.392 . S
C692 C697 1.356 . S
C693 C692 1.392 . S
C693 C694 1.368 . S
C693 H716 0.929 . S
C694 C693 1.368 . S
C694 C695 1.386 . S
C694 H717 0.929 . S
C695 C694 1.386 . S
C695 C696 1.373 . S
C696 C695 1.373 . S
C696 C697 1.409 . S
C696 H718 0.931 . S
C697 C692 1.356 . S
C697 C696 1.409 . S
C697 H719 0.930 . S
C698 O708 1.270 . S
C698 O709 1.248 . S
C699 O710 1.267 . S
C699 O711 1.278 . S
O700 Pr680 2.562 . S
O700 C682 1.254 . S
O701 Pr680 2.490 . S
O701 C682 1.225 . S
O702 Pr680 2.695 . S
O702 Pr681 2.436 . S
O702 C689 1.270 . S
O703 Pr680 2.512 . S
O703 C689 1.248 . S
O704 Pr681 2.438 . S
O704 C690 1.267 . S
O705 Pr680 2.437 . S
O705 C690 1.278 . S
O706 Pr681 2.562 . S
O706 C691 1.254 . S
O707 Pr681 2.490 . S
O707 C691 1.225 . S
O708 Pr680 2.436 . S
O708 Pr681 2.695 . S
O708 C698 1.270 . S
O709 Pr681 2.512 . S
O709 C698 1.248 . S
O710 Pr680 2.438 . S
O710 C699 1.267 . S
O711 Pr681 2.437 . S
O711 C699 1.278 . S
H712 C684 0.929 . S
H713 C685 0.929 . S
H714 C687 0.931 . S
H715 C688 0.930 . S
H716 C693 0.929 . S
H717 C694 0.929 . S
H718 C696 0.931 . S
H719 C697 0.930 . S
Pr720 C722 2.880 . S
Pr720 O740 2.562 . S
Pr720 O741 2.490 . S
Pr720 O742 2.695 . S
Pr720 O743 2.512 . S
Pr720 O745 2.437 . S
Pr720 O748 2.436 . S
Pr720 O750 2.438 . S
Pr721 C731 2.880 . S
Pr721 O742 2.436 . S
Pr721 O744 2.438 . S
Pr721 O746 2.562 . S
Pr721 O747 2.490 . S
Pr721 O748 2.695 . S
Pr721 O749 2.512 . S
Pr721 O751 2.437 . S
C722 Pr720 2.880 . S
C722 C723 1.491 . S
C722 O740 1.254 . S
C722 O741 1.225 . S
C723 C722 1.491 . S
C723 C724 1.392 . S
C723 C728 1.356 . S
C724 C723 1.392 . S
C724 C725 1.368 . S
C724 H752 0.929 . S
C725 C724 1.368 . S
C725 C726 1.386 . S
C725 H753 0.929 . S
C726 C725 1.386 . S
C726 C727 1.373 . S
C727 C726 1.373 . S
C727 C728 1.409 . S
C727 H754 0.931 . S
C728 C723 1.356 . S
C728 C727 1.409 . S
C728 H755 0.930 . S
C729 O742 1.270 . S
C729 O743 1.248 . S
C730 O744 1.267 . S
C730 O745 1.278 . S
C731 Pr721 2.880 . S
C731 C732 1.491 . S
C731 O746 1.254 . S
C731 O747 1.225 . S
C732 C731 1.491 . S
C732 C733 1.392 . S
C732 C737 1.356 . S
C733 C732 1.392 . S
C733 C734 1.368 . S
C733 H756 0.929 . S
C734 C733 1.368 . S
C734 C735 1.386 . S
C734 H757 0.929 . S
C735 C734 1.386 . S
C735 C736 1.373 . S
C736 C735 1.373 . S
C736 C737 1.409 . S
C736 H758 0.931 . S
C737 C732 1.356 . S
C737 C736 1.409 . S
C737 H759 0.930 . S
C738 O748 1.270 . S
C738 O749 1.248 . S
C739 O750 1.267 . S
C739 O751 1.278 . S
O740 Pr720 2.562 . S
O740 C722 1.254 . S
O741 Pr720 2.490 . S
O741 C722 1.225 . S
O742 Pr720 2.695 . S
O742 Pr721 2.436 . S
O742 C729 1.270 . S
O743 Pr720 2.512 . S
O743 C729 1.248 . S
O744 Pr721 2.438 . S
O744 C730 1.267 . S
O745 Pr720 2.437 . S
O745 C730 1.278 . S
O746 Pr721 2.562 . S
O746 C731 1.254 . S
O747 Pr721 2.490 . S
O747 C731 1.225 . S
O748 Pr720 2.436 . S
O748 Pr721 2.695 . S
O748 C738 1.270 . S
O749 Pr721 2.512 . S
O749 C738 1.248 . S
O750 Pr720 2.438 . S
O750 C739 1.267 . S
O751 Pr721 2.437 . S
O751 C739 1.278 . S
H752 C724 0.929 . S
H753 C725 0.929 . S
H754 C727 0.931 . S
H755 C728 0.930 . S
H756 C733 0.929 . S
H757 C734 0.929 . S
H758 C736 0.931 . S
H759 C737 0.930 . S
Pr760 C762 2.880 . S
Pr760 O780 2.562 . S
Pr760 O781 2.490 . S
Pr760 O782 2.695 . S
Pr760 O783 2.512 . S
Pr760 O785 2.437 . S
Pr760 O788 2.436 . S
Pr760 O790 2.438 . S
Pr761 C771 2.880 . S
Pr761 O782 2.436 . S
Pr761 O784 2.438 . S
Pr761 O786 2.562 . S
Pr761 O787 2.490 . S
Pr761 O788 2.695 . S
Pr761 O789 2.512 . S
Pr761 O791 2.437 . S
C762 Pr760 2.880 . S
C762 C763 1.491 . S
C762 O780 1.254 . S
C762 O781 1.225 . S
C763 C762 1.491 . S
C763 C764 1.392 . S
C763 C768 1.356 . S
C764 C763 1.392 . S
C764 C765 1.368 1_655 S
C764 H792 0.929 . S
C765 C764 1.368 1_455 S
C765 C766 1.386 . S
C765 H793 0.929 . S
C766 C765 1.386 . S
C766 C767 1.373 . S
C767 C766 1.373 . S
C767 C768 1.409 1_455 S
C767 H794 0.931 . S
C768 C763 1.356 . S
C768 C767 1.409 1_655 S
C768 H795 0.930 . S
C769 O782 1.270 . S
C769 O783 1.248 . S
C770 O784 1.267 . S
C770 O785 1.278 . S
C771 Pr761 2.880 . S
C771 C772 1.491 . S
C771 O786 1.254 . S
C771 O787 1.225 . S
C772 C771 1.491 . S
C772 C773 1.392 . S
C772 C777 1.356 . S
C773 C772 1.392 . S
C773 C774 1.368 . S
C773 H796 0.929 . S
C774 C773 1.368 . S
C774 C775 1.386 . S
C774 H797 0.929 . S
C775 C774 1.386 . S
C775 C776 1.373 . S
C776 C775 1.373 . S
C776 C777 1.409 . S
C776 H798 0.931 . S
C777 C772 1.356 . S
C777 C776 1.409 . S
C777 H799 0.930 . S
C778 O788 1.270 . S
C778 O789 1.248 . S
C779 O790 1.267 . S
C779 O791 1.278 . S
O780 Pr760 2.562 . S
O780 C762 1.254 . S
O781 Pr760 2.490 . S
O781 C762 1.225 . S
O782 Pr760 2.695 . S
O782 Pr761 2.436 . S
O782 C769 1.270 . S
O783 Pr760 2.512 . S
O783 C769 1.248 . S
O784 Pr761 2.438 . S
O784 C770 1.267 . S
O785 Pr760 2.437 . S
O785 C770 1.278 . S
O786 Pr761 2.562 . S
O786 C771 1.254 . S
O787 Pr761 2.490 . S
O787 C771 1.225 . S
O788 Pr760 2.436 . S
O788 Pr761 2.695 . S
O788 C778 1.270 . S
O789 Pr761 2.512 . S
O789 C778 1.248 . S
O790 Pr760 2.438 . S
O790 C779 1.267 . S
O791 Pr761 2.437 . S
O791 C779 1.278 . S
H792 C764 0.929 . S
H793 C765 0.929 . S
H794 C767 0.931 . S
H795 C768 0.930 . S
H796 C773 0.929 . S
H797 C774 0.929 . S
H798 C776 0.931 . S
H799 C777 0.930 . S
Pr800 C802 2.880 . S
Pr800 O820 2.562 . S
Pr800 O821 2.490 . S
Pr800 O822 2.695 . S
Pr800 O823 2.512 . S
Pr800 O825 2.437 . S
Pr800 O828 2.436 . S
Pr800 O830 2.438 . S
Pr801 C811 2.880 . S
Pr801 O822 2.436 . S
Pr801 O824 2.438 . S
Pr801 O826 2.562 . S
Pr801 O827 2.490 . S
Pr801 O828 2.695 . S
Pr801 O829 2.512 . S
Pr801 O831 2.437 . S
C802 Pr800 2.880 . S
C802 C803 1.491 . S
C802 O820 1.254 . S
C802 O821 1.225 . S
C803 C802 1.491 . S
C803 C804 1.392 . S
C803 C808 1.356 . S
C804 C803 1.392 . S
C804 C805 1.368 . S
C804 H832 0.929 . S
C805 C804 1.368 . S
C805 C806 1.386 . S
C805 H833 0.929 . S
C806 C805 1.386 . S
C806 C807 1.373 . S
C807 C806 1.373 . S
C807 C808 1.409 . S
C807 H834 0.931 . S
C808 C803 1.356 . S
C808 C807 1.409 . S
C808 H835 0.930 . S
C809 O822 1.270 . S
C809 O823 1.248 . S
C810 O824 1.267 . S
C810 O825 1.278 . S
C811 Pr801 2.880 . S
C811 C812 1.491 . S
C811 O826 1.254 . S
C811 O827 1.225 . S
C812 C811 1.491 . S
C812 C813 1.392 . S
C812 C817 1.356 . S
C813 C812 1.392 . S
C813 C814 1.368 . S
C813 H836 0.929 . S
C814 C813 1.368 . S
C814 C815 1.386 . S
C814 H837 0.929 . S
C815 C814 1.386 . S
C815 C816 1.373 . S
C816 C815 1.373 . S
C816 C817 1.409 . S
C816 H838 0.931 . S
C817 C812 1.356 . S
C817 C816 1.409 . S
C817 H839 0.930 . S
C818 O828 1.270 . S
C818 O829 1.248 . S
C819 O830 1.267 . S
C819 O831 1.278 . S
O820 Pr800 2.562 . S
O820 C802 1.254 . S
O821 Pr800 2.490 . S
O821 C802 1.225 . S
O822 Pr800 2.695 . S
O822 Pr801 2.436 . S
O822 C809 1.270 . S
O823 Pr800 2.512 . S
O823 C809 1.248 . S
O824 Pr801 2.438 . S
O824 C810 1.267 . S
O825 Pr800 2.437 . S
O825 C810 1.278 . S
O826 Pr801 2.562 . S
O826 C811 1.254 . S
O827 Pr801 2.490 . S
O827 C811 1.225 . S
O828 Pr800 2.436 . S
O828 Pr801 2.695 . S
O828 C818 1.270 . S
O829 Pr801 2.512 . S
O829 C818 1.248 . S
O830 Pr800 2.438 . S
O830 C819 1.267 . S
O831 Pr801 2.437 . S
O831 C819 1.278 . S
H832 C804 0.929 . S
H833 C805 0.929 . S
H834 C807 0.931 . S
H835 C808 0.930 . S
H836 C813 0.929 . S
H837 C814 0.929 . S
H838 C816 0.931 . S
H839 C817 0.930 . S
Pr840 C842 2.880 . S
Pr840 O860 2.562 . S
Pr840 O861 2.490 . S
Pr840 O862 2.695 . S
Pr840 O863 2.512 . S
Pr840 O865 2.437 . S
Pr840 O868 2.436 . S
Pr840 O870 2.438 . S
Pr841 C851 2.880 . S
Pr841 O862 2.436 . S
Pr841 O864 2.438 . S
Pr841 O866 2.562 . S
Pr841 O867 2.490 . S
Pr841 O868 2.695 . S
Pr841 O869 2.512 . S
Pr841 O871 2.437 . S
C842 Pr840 2.880 . S
C842 C843 1.491 . S
C842 O860 1.254 . S
C842 O861 1.225 . S
C843 C842 1.491 . S
C843 C844 1.392 . S
C843 C848 1.356 . S
C844 C843 1.392 . S
C844 C845 1.368 . S
C844 H872 0.929 . S
C845 C844 1.368 . S
C845 C846 1.386 . S
C845 H873 0.929 . S
C846 C845 1.386 . S
C846 C847 1.373 . S
C847 C846 1.373 . S
C847 C848 1.409 . S
C847 H874 0.931 . S
C848 C843 1.356 . S
C848 C847 1.409 . S
C848 H875 0.930 . S
C849 O862 1.270 . S
C849 O863 1.248 . S
C850 O864 1.267 . S
C850 O865 1.278 . S
C851 Pr841 2.880 . S
C851 C852 1.491 . S
C851 O866 1.254 . S
C851 O867 1.225 . S
C852 C851 1.491 . S
C852 C853 1.392 . S
C852 C857 1.356 . S
C853 C852 1.392 . S
C853 C854 1.368 1_455 S
C853 H876 0.929 . S
C854 C853 1.368 1_655 S
C854 C855 1.386 . S
C854 H877 0.929 . S
C855 C854 1.386 . S
C855 C856 1.373 . S
C856 C855 1.373 . S
C856 C857 1.409 1_655 S
C856 H878 0.931 . S
C857 C852 1.356 . S
C857 C856 1.409 1_455 S
C857 H879 0.930 . S
C858 O868 1.270 . S
C858 O869 1.248 . S
C859 O870 1.267 . S
C859 O871 1.278 . S
O860 Pr840 2.562 . S
O860 C842 1.254 . S
O861 Pr840 2.490 . S
O861 C842 1.225 . S
O862 Pr840 2.695 . S
O862 Pr841 2.436 . S
O862 C849 1.270 . S
O863 Pr840 2.512 . S
O863 C849 1.248 . S
O864 Pr841 2.438 . S
O864 C850 1.267 . S
O865 Pr840 2.437 . S
O865 C850 1.278 . S
O866 Pr841 2.562 . S
O866 C851 1.254 . S
O867 Pr841 2.490 . S
O867 C851 1.225 . S
O868 Pr840 2.436 . S
O868 Pr841 2.695 . S
O868 C858 1.270 . S
O869 Pr841 2.512 . S
O869 C858 1.248 . S
O870 Pr840 2.438 . S
O870 C859 1.267 . S
O871 Pr841 2.437 . S
O871 C859 1.278 . S
H872 C844 0.929 . S
H873 C845 0.929 . S
H874 C847 0.931 . S
H875 C848 0.930 . S
H876 C853 0.929 . S
H877 C854 0.929 . S
H878 C856 0.931 . S
H879 C857 0.930 . S
Pr880 C882 2.880 . S
Pr880 O900 2.562 . S
Pr880 O901 2.490 . S
Pr880 O902 2.695 . S
Pr880 O903 2.512 . S
Pr880 O905 2.437 . S
Pr880 O908 2.436 . S
Pr880 O910 2.438 . S
Pr881 C891 2.880 . S
Pr881 O902 2.436 . S
Pr881 O904 2.438 . S
Pr881 O906 2.562 . S
Pr881 O907 2.490 . S
Pr881 O908 2.695 . S
Pr881 O909 2.512 . S
Pr881 O911 2.437 . S
C882 Pr880 2.880 . S
C882 C883 1.491 . S
C882 O900 1.254 . S
C882 O901 1.225 . S
C883 C882 1.491 . S
C883 C884 1.392 . S
C883 C888 1.356 . S
C884 C883 1.392 . S
C884 C885 1.368 . S
C884 H912 0.929 . S
C885 C884 1.368 . S
C885 C886 1.386 . S
C885 H913 0.929 . S
C886 C885 1.386 . S
C886 C887 1.373 . S
C887 C886 1.373 . S
C887 C888 1.409 . S
C887 H914 0.931 . S
C888 C883 1.356 . S
C888 C887 1.409 . S
C888 H915 0.930 . S
C889 O902 1.270 . S
C889 O903 1.248 . S
C890 O904 1.267 . S
C890 O905 1.278 . S
C891 Pr881 2.880 . S
C891 C892 1.491 . S
C891 O906 1.254 . S
C891 O907 1.225 . S
C892 C891 1.491 . S
C892 C893 1.392 . S
C892 C897 1.356 . S
C893 C892 1.392 . S
C893 C894 1.368 . S
C893 H916 0.929 . S
C894 C893 1.368 . S
C894 C895 1.386 . S
C894 H917 0.929 . S
C895 C894 1.386 . S
C895 C896 1.373 . S
C896 C895 1.373 . S
C896 C897 1.409 . S
C896 H918 0.931 . S
C897 C892 1.356 . S
C897 C896 1.409 . S
C897 H919 0.930 . S
C898 O908 1.270 . S
C898 O909 1.248 . S
C899 O910 1.267 . S
C899 O911 1.278 . S
O900 Pr880 2.562 . S
O900 C882 1.254 . S
O901 Pr880 2.490 . S
O901 C882 1.225 . S
O902 Pr880 2.695 . S
O902 Pr881 2.436 . S
O902 C889 1.270 . S
O903 Pr880 2.512 . S
O903 C889 1.248 . S
O904 Pr881 2.438 . S
O904 C890 1.267 . S
O905 Pr880 2.437 . S
O905 C890 1.278 . S
O906 Pr881 2.562 . S
O906 C891 1.254 . S
O907 Pr881 2.490 . S
O907 C891 1.225 . S
O908 Pr880 2.436 . S
O908 Pr881 2.695 . S
O908 C898 1.270 . S
O909 Pr881 2.512 . S
O909 C898 1.248 . S
O910 Pr880 2.438 . S
O910 C899 1.267 . S
O911 Pr881 2.437 . S
O911 C899 1.278 . S
H912 C884 0.929 . S
H913 C885 0.929 . S
H914 C887 0.931 . S
H915 C888 0.930 . S
H916 C893 0.929 . S
H917 C894 0.929 . S
H918 C896 0.931 . S
H919 C897 0.930 . S
Pr920 C922 2.880 . S
Pr920 O940 2.562 . S
Pr920 O941 2.490 . S
Pr920 O942 2.695 . S
Pr920 O943 2.512 . S
Pr920 O945 2.437 . S
Pr920 O948 2.436 . S
Pr920 O950 2.438 . S
Pr921 C931 2.880 . S
Pr921 O942 2.436 . S
Pr921 O944 2.438 . S
Pr921 O946 2.562 . S
Pr921 O947 2.490 . S
Pr921 O948 2.695 . S
Pr921 O949 2.512 . S
Pr921 O951 2.437 . S
C922 Pr920 2.880 . S
C922 C923 1.491 . S
C922 O940 1.254 . S
C922 O941 1.225 . S
C923 C922 1.491 . S
C923 C924 1.392 . S
C923 C928 1.356 . S
C924 C923 1.392 . S
C924 C925 1.368 . S
C924 H952 0.929 . S
C925 C924 1.368 . S
C925 C926 1.386 . S
C925 H953 0.929 . S
C926 C925 1.386 . S
C926 C927 1.373 . S
C927 C926 1.373 . S
C927 C928 1.409 . S
C927 H954 0.931 . S
C928 C923 1.356 . S
C928 C927 1.409 . S
C928 H955 0.930 . S
C929 O942 1.270 . S
C929 O943 1.248 . S
C930 O944 1.267 . S
C930 O945 1.278 . S
C931 Pr921 2.880 . S
C931 C932 1.491 . S
C931 O946 1.254 . S
C931 O947 1.225 . S
C932 C931 1.491 . S
C932 C933 1.392 . S
C932 C937 1.356 . S
C933 C932 1.392 . S
C933 C934 1.368 1_455 S
C933 H956 0.929 . S
C934 C933 1.368 1_655 S
C934 C935 1.386 . S
C934 H957 0.929 . S
C935 C934 1.386 . S
C935 C936 1.373 . S
C936 C935 1.373 . S
C936 C937 1.409 1_655 S
C936 H958 0.931 . S
C937 C932 1.356 . S
C937 C936 1.409 1_455 S
C937 H959 0.930 . S
C938 O948 1.270 . S
C938 O949 1.248 . S
C939 O950 1.267 . S
C939 O951 1.278 . S
O940 Pr920 2.562 . S
O940 C922 1.254 . S
O941 Pr920 2.490 . S
O941 C922 1.225 . S
O942 Pr920 2.695 . S
O942 Pr921 2.436 . S
O942 C929 1.270 . S
O943 Pr920 2.512 . S
O943 C929 1.248 . S
O944 Pr921 2.438 . S
O944 C930 1.267 . S
O945 Pr920 2.437 . S
O945 C930 1.278 . S
O946 Pr921 2.562 . S
O946 C931 1.254 . S
O947 Pr921 2.490 . S
O947 C931 1.225 . S
O948 Pr920 2.436 . S
O948 Pr921 2.695 . S
O948 C938 1.270 . S
O949 Pr921 2.512 . S
O949 C938 1.248 . S
O950 Pr920 2.438 . S
O950 C939 1.267 . S
O951 Pr921 2.437 . S
O951 C939 1.278 . S
H952 C924 0.929 . S
H953 C925 0.929 . S
H954 C927 0.931 . S
H955 C928 0.930 . S
H956 C933 0.929 . S
H957 C934 0.929 . S
H958 C936 0.931 . S
H959 C937 0.930 . S
Pr960 C962 2.872 1_545 S
Pr960 O980 2.562 1_545 S
Pr960 O981 2.490 . S
Pr960 O982 2.695 1_545 S
Pr960 O983 2.512 . S
Pr960 O985 2.437 1_545 S
Pr960 O988 2.436 1_545 S
Pr960 O990 2.438 . S
Pr961 C971 2.880 . S
Pr961 O982 2.436 . S
Pr961 O984 2.438 . S
Pr961 O986 2.562 . S
Pr961 O987 2.490 . S
Pr961 O988 2.695 . S
Pr961 O989 2.512 . S
Pr961 O991 2.437 1_565 S
C962 Pr960 2.872 1_565 S
C962 C963 1.499 . S
C962 O980 1.258 . S
C962 O981 1.213 1_565 S
C963 C962 1.499 . S
C963 C964 1.392 . S
C963 C968 1.356 . S
C964 C963 1.392 . S
C964 C965 1.368 . S
C964 H992 0.929 1_565 S
C965 C964 1.368 . S
C965 C966 1.386 . S
C965 H993 0.929 . S
C966 C965 1.386 . S
C966 C967 1.373 . S
C967 C966 1.373 . S
C967 C968 1.409 . S
C967 H994 0.931 . S
C968 C963 1.356 . S
C968 C967 1.409 . S
C968 H995 0.930 . S
C969 O982 1.270 . S
C969 O983 1.248 1_565 S
C970 O984 1.267 . S
C970 O985 1.278 . S
C971 Pr961 2.880 . S
C971 C972 1.491 . S
C971 O986 1.254 . S
C971 O987 1.225 . S
C972 C971 1.491 . S
C972 C973 1.392 . S
C972 C977 1.356 1_565 S
C973 C972 1.392 . S
C973 C974 1.368 . S
C973 H996 0.929 . S
C974 C973 1.368 . S
C974 C975 1.386 1_565 S
C974 H997 0.929 . S
C975 C974 1.386 1_545 S
C975 C976 1.373 . S
C976 C975 1.373 . S
C976 C977 1.409 . S
C976 H998 0.931 . S
C977 C972 1.356 1_545 S
C977 C976 1.409 . S
C977 H999 0.930 . S
C978 O988 1.270 . S
C978 O989 1.248 . S
C979 O990 1.267 . S
C979 O991 1.278 . S
O980 Pr960 2.562 1_565 S
O980 C962 1.258 . S
O981 Pr960 2.490 . S
O981 C962 1.213 1_545 S
O982 Pr960 2.695 1_565 S
O982 Pr961 2.436 . S
O982 C969 1.270 . S
O983 Pr960 2.512 . S
O983 C969 1.248 1_545 S
O984 Pr961 2.438 . S
O984 C970 1.267 . S
O985 Pr960 2.437 1_565 S
O985 C970 1.278 . S
O986 Pr961 2.562 . S
O986 C971 1.254 . S
O987 Pr961 2.490 . S
O987 C971 1.225 . S
O988 Pr960 2.436 1_565 S
O988 Pr961 2.695 . S
O988 C978 1.270 . S
O989 Pr961 2.512 . S
O989 C978 1.248 . S
O990 Pr960 2.438 . S
O990 C979 1.267 . S
O991 Pr961 2.437 1_545 S
O991 C979 1.278 . S
H992 C964 0.929 1_545 S
H993 C965 0.929 . S
H994 C967 0.931 . S
H995 C968 0.930 . S
H996 C973 0.929 . S
H997 C974 0.929 . S
H998 C976 0.931 . S
H999 C977 0.930 . S
Pr1000 C1002 2.880 . S
Pr1000 O1020 2.562 . S
Pr1000 O1021 2.490 . S
Pr1000 O1022 2.695 . S
Pr1000 O1023 2.512 . S
Pr1000 O1025 2.437 . S
Pr1000 O1028 2.436 . S
Pr1000 O1030 2.438 . S
Pr1001 C1011 2.880 . S
Pr1001 O1022 2.436 . S
Pr1001 O1024 2.438 . S
Pr1001 O1026 2.562 . S
Pr1001 O1027 2.490 . S
Pr1001 O1028 2.695 . S
Pr1001 O1029 2.512 . S
Pr1001 O1031 2.437 . S
C1002 Pr1000 2.880 . S
C1002 C1003 1.491 . S
C1002 O1020 1.254 . S
C1002 O1021 1.225 . S
C1003 C1002 1.491 . S
C1003 C1004 1.392 . S
C1003 C1008 1.356 . S
C1004 C1003 1.392 . S
C1004 C1005 1.368 1_655 S
C1004 H1032 0.929 . S
C1005 C1004 1.368 1_455 S
C1005 C1006 1.386 . S
C1005 H1033 0.929 . S
C1006 C1005 1.386 . S
C1006 C1007 1.373 . S
C1007 C1006 1.373 . S
C1007 C1008 1.409 1_455 S
C1007 H1034 0.931 . S
C1008 C1003 1.356 . S
C1008 C1007 1.409 1_655 S
C1008 H1035 0.930 . S
C1009 O1022 1.270 . S
C1009 O1023 1.248 . S
C1010 O1024 1.267 . S
C1010 O1025 1.278 . S
C1011 Pr1001 2.880 . S
C1011 C1012 1.491 . S
C1011 O1026 1.254 . S
C1011 O1027 1.225 . S
C1012 C1011 1.491 . S
C1012 C1013 1.392 . S
C1012 C1017 1.356 . S
C1013 C1012 1.392 . S
C1013 C1014 1.368 . S
C1013 H1036 0.929 . S
C1014 C1013 1.368 . S
C1014 C1015 1.386 . S
C1014 H1037 0.929 . S
C1015 C1014 1.386 . S
C1015 C1016 1.373 . S
C1016 C1015 1.373 . S
C1016 C1017 1.409 . S
C1016 H1038 0.931 . S
C1017 C1012 1.356 . S
C1017 C1016 1.409 . S
C1017 H1039 0.930 . S
C1018 O1028 1.270 . S
C1018 O1029 1.248 . S
C1019 O1030 1.267 . S
C1019 O1031 1.278 . S
O1020 Pr1000 2.562 . S
O1020 C1002 1.254 . S
O1021 Pr1000 2.490 . S
O1021 C1002 1.225 . S
O1022 Pr1000 2.695 . S
O1022 Pr1001 2.436 . S
O1022 C1009 1.270 . S
O1023 Pr1000 2.512 . S
O1023 C1009 1.248 . S
O1024 Pr1001 2.438 . S
O1024 C1010 1.267 . S
O1025 Pr1000 2.437 . S
O1025 C1010 1.278 . S
O1026 Pr1001 2.562 . S
O1026 C1011 1.254 . S
O1027 Pr1001 2.490 . S
O1027 C1011 1.225 . S
O1028 Pr1000 2.436 . S
O1028 Pr1001 2.695 . S
O1028 C1018 1.270 . S
O1029 Pr1001 2.512 . S
O1029 C1018 1.248 . S
O1030 Pr1000 2.438 . S
O1030 C1019 1.267 . S
O1031 Pr1001 2.437 . S
O1031 C1019 1.278 . S
H1032 C1004 0.929 . S
H1033 C1005 0.929 . S
H1034 C1007 0.931 . S
H1035 C1008 0.930 . S
H1036 C1013 0.929 . S
H1037 C1014 0.929 . S
H1038 C1016 0.931 . S
H1039 C1017 0.930 . S
Pr1040 C1042 2.880 . S
Pr1040 O1060 2.562 . S
Pr1040 O1061 2.490 . S
Pr1040 O1062 2.695 . S
Pr1040 O1063 2.512 . S
Pr1040 O1065 2.437 . S
Pr1040 O1068 2.436 . S
Pr1040 O1070 2.438 . S
Pr1041 C1051 2.880 . S
Pr1041 O1062 2.436 . S
Pr1041 O1064 2.438 . S
Pr1041 O1066 2.562 . S
Pr1041 O1067 2.490 . S
Pr1041 O1068 2.695 . S
Pr1041 O1069 2.512 . S
Pr1041 O1071 2.437 . S
C1042 Pr1040 2.880 . S
C1042 C1043 1.491 . S
C1042 O1060 1.254 . S
C1042 O1061 1.225 . S
C1043 C1042 1.491 . S
C1043 C1044 1.392 . S
C1043 C1048 1.356 . S
C1044 C1043 1.392 . S
C1044 C1045 1.368 . S
C1044 H1072 0.929 . S
C1045 C1044 1.368 . S
C1045 C1046 1.386 . S
C1045 H1073 0.929 . S
C1046 C1045 1.386 . S
C1046 C1047 1.373 . S
C1047 C1046 1.373 . S
C1047 C1048 1.409 . S
C1047 H1074 0.931 . S
C1048 C1043 1.356 . S
C1048 C1047 1.409 . S
C1048 H1075 0.930 . S
C1049 O1062 1.270 . S
C1049 O1063 1.248 . S
C1050 O1064 1.267 . S
C1050 O1065 1.278 . S
C1051 Pr1041 2.880 . S
C1051 C1052 1.491 . S
C1051 O1066 1.254 . S
C1051 O1067 1.225 . S
C1052 C1051 1.491 . S
C1052 C1053 1.392 . S
C1052 C1057 1.356 . S
C1053 C1052 1.392 . S
C1053 C1054 1.368 . S
C1053 H1076 0.929 . S
C1054 C1053 1.368 . S
C1054 C1055 1.386 . S
C1054 H1077 0.929 . S
C1055 C1054 1.386 . S
C1055 C1056 1.373 . S
C1056 C1055 1.373 . S
C1056 C1057 1.409 . S
C1056 H1078 0.931 . S
C1057 C1052 1.356 . S
C1057 C1056 1.409 . S
C1057 H1079 0.930 . S
C1058 O1068 1.270 . S
C1058 O1069 1.248 . S
C1059 O1070 1.267 . S
C1059 O1071 1.278 . S
O1060 Pr1040 2.562 . S
O1060 C1042 1.254 . S
O1061 Pr1040 2.490 . S
O1061 C1042 1.225 . S
O1062 Pr1040 2.695 . S
O1062 Pr1041 2.436 . S
O1062 C1049 1.270 . S
O1063 Pr1040 2.512 . S
O1063 C1049 1.248 . S
O1064 Pr1041 2.438 . S
O1064 C1050 1.267 . S
O1065 Pr1040 2.437 . S
O1065 C1050 1.278 . S
O1066 Pr1041 2.562 . S
O1066 C1051 1.254 . S
O1067 Pr1041 2.490 . S
O1067 C1051 1.225 . S
O1068 Pr1040 2.436 . S
O1068 Pr1041 2.695 . S
O1068 C1058 1.270 . S
O1069 Pr1041 2.512 . S
O1069 C1058 1.248 . S
O1070 Pr1040 2.438 . S
O1070 C1059 1.267 . S
O1071 Pr1041 2.437 . S
O1071 C1059 1.278 . S
H1072 C1044 0.929 . S
H1073 C1045 0.929 . S
H1074 C1047 0.931 . S
H1075 C1048 0.930 . S
H1076 C1053 0.929 . S
H1077 C1054 0.929 . S
H1078 C1056 0.931 . S
H1079 C1057 0.930 . S
Pr1080 C1082 2.872 1_545 S
Pr1080 O1100 2.562 1_545 S
Pr1080 O1101 2.490 . S
Pr1080 O1102 2.695 1_545 S
Pr1080 O1103 2.512 . S
Pr1080 O1105 2.437 1_545 S
Pr1080 O1108 2.436 1_545 S
Pr1080 O1110 2.438 . S
Pr1081 C1091 2.880 . S
Pr1081 O1102 2.436 . S
Pr1081 O1104 2.438 . S
Pr1081 O1106 2.562 . S
Pr1081 O1107 2.490 . S
Pr1081 O1108 2.695 . S
Pr1081 O1109 2.512 . S
Pr1081 O1111 2.437 1_565 S
C1082 Pr1080 2.872 1_565 S
C1082 C1083 1.499 . S
C1082 O1100 1.258 . S
C1082 O1101 1.213 1_565 S
C1083 C1082 1.499 . S
C1083 C1084 1.392 . S
C1083 C1088 1.356 . S
C1084 C1083 1.392 . S
C1084 C1085 1.368 1_655 S
C1084 H1112 0.929 1_565 S
C1085 C1084 1.368 1_455 S
C1085 C1086 1.386 . S
C1085 H1113 0.929 . S
C1086 C1085 1.386 . S
C1086 C1087 1.373 . S
C1087 C1086 1.373 . S
C1087 C1088 1.409 1_455 S
C1087 H1114 0.931 . S
C1088 C1083 1.356 . S
C1088 C1087 1.409 1_655 S
C1088 H1115 0.930 . S
C1089 O1102 1.270 . S
C1089 O1103 1.248 1_565 S
C1090 O1104 1.267 . S
C1090 O1105 1.278 . S
C1091 Pr1081 2.880 . S
C1091 C1092 1.491 . S
C1091 O1106 1.254 . S
C1091 O1107 1.225 . S
C1092 C1091 1.491 . S
C1092 C1093 1.392 . S
C1092 C1097 1.356 1_565 S
C1093 C1092 1.392 . S
C1093 C1094 1.368 . S
C1093 H1116 0.929 . S
C1094 C1093 1.368 . S
C1094 C1095 1.386 1_565 S
C1094 H1117 0.929 . S
C1095 C1094 1.386 1_545 S
C1095 C1096 1.373 . S
C1096 C1095 1.373 . S
C1096 C1097 1.409 . S
C1096 H1118 0.931 . S
C1097 C1092 1.356 1_545 S
C1097 C1096 1.409 . S
C1097 H1119 0.930 . S
C1098 O1108 1.270 . S
C1098 O1109 1.248 . S
C1099 O1110 1.267 . S
C1099 O1111 1.278 . S
O1100 Pr1080 2.562 1_565 S
O1100 C1082 1.258 . S
O1101 Pr1080 2.490 . S
O1101 C1082 1.213 1_545 S
O1102 Pr1080 2.695 1_565 S
O1102 Pr1081 2.436 . S
O1102 C1089 1.270 . S
O1103 Pr1080 2.512 . S
O1103 C1089 1.248 1_545 S
O1104 Pr1081 2.438 . S
O1104 C1090 1.267 . S
O1105 Pr1080 2.437 1_565 S
O1105 C1090 1.278 . S
O1106 Pr1081 2.562 . S
O1106 C1091 1.254 . S
O1107 Pr1081 2.490 . S
O1107 C1091 1.225 . S
O1108 Pr1080 2.436 1_565 S
O1108 Pr1081 2.695 . S
O1108 C1098 1.270 . S
O1109 Pr1081 2.512 . S
O1109 C1098 1.248 . S
O1110 Pr1080 2.438 . S
O1110 C1099 1.267 . S
O1111 Pr1081 2.437 1_545 S
O1111 C1099 1.278 . S
H1112 C1084 0.929 1_545 S
H1113 C1085 0.929 . S
H1114 C1087 0.931 . S
H1115 C1088 0.930 . S
H1116 C1093 0.929 . S
H1117 C1094 0.929 . S
H1118 C1096 0.931 . S
H1119 C1097 0.930 . S
Pr1120 C1122 2.880 . S
Pr1120 O1140 2.562 . S
Pr1120 O1141 2.490 . S
Pr1120 O1142 2.695 . S
Pr1120 O1143 2.512 . S
Pr1120 O1145 2.437 1_545 S
Pr1120 O1148 2.436 . S
Pr1120 O1150 2.438 . S
Pr1121 C1131 2.872 1_565 S
Pr1121 O1142 2.436 1_565 S
Pr1121 O1144 2.438 . S
Pr1121 O1146 2.562 1_565 S
Pr1121 O1147 2.490 . S
Pr1121 O1148 2.695 1_565 S
Pr1121 O1149 2.512 . S
Pr1121 O1151 2.437 1_565 S
C1122 Pr1120 2.880 . S
C1122 C1123 1.491 . S
C1122 O1140 1.254 . S
C1122 O1141 1.225 . S
C1123 C1122 1.491 . S
C1123 C1124 1.392 . S
C1123 C1128 1.356 1_545 S
C1124 C1123 1.392 . S
C1124 C1125 1.368 . S
C1124 H1152 0.929 . S
C1125 C1124 1.368 . S
C1125 C1126 1.386 1_545 S
C1125 H1153 0.929 . S
C1126 C1125 1.386 1_565 S
C1126 C1127 1.373 . S
C1127 C1126 1.373 . S
C1127 C1128 1.409 . S
C1127 H1154 0.931 . S
C1128 C1123 1.356 1_565 S
C1128 C1127 1.409 . S
C1128 H1155 0.930 . S
C1129 O1142 1.270 . S
C1129 O1143 1.248 . S
C1130 O1144 1.267 . S
C1130 O1145 1.278 . S
C1131 Pr1121 2.872 1_545 S
C1131 C1132 1.499 . S
C1131 O1146 1.258 . S
C1131 O1147 1.213 1_545 S
C1132 C1131 1.499 . S
C1132 C1133 1.392 . S
C1132 C1137 1.356 . S
C1133 C1132 1.392 . S
C1133 C1134 1.368 . S
C1133 H1156 0.929 1_545 S
C1134 C1133 1.368 . S
C1134 C1135 1.386 . S
C1134 H1157 0.929 . S
C1135 C1134 1.386 . S
C1135 C1136 1.373 . S
C1136 C1135 1.373 . S
C1136 C1137 1.409 . S
C1136 H1158 0.931 . S
C1137 C1132 1.356 . S
C1137 C1136 1.409 . S
C1137 H1159 0.930 . S
C1138 O1148 1.270 . S
C1138 O1149 1.248 1_545 S
C1139 O1150 1.267 . S
C1139 O1151 1.278 . S
O1140 Pr1120 2.562 . S
O1140 C1122 1.254 . S
O1141 Pr1120 2.490 . S
O1141 C1122 1.225 . S
O1142 Pr1120 2.695 . S
O1142 Pr1121 2.436 1_545 S
O1142 C1129 1.270 . S
O1143 Pr1120 2.512 . S
O1143 C1129 1.248 . S
O1144 Pr1121 2.438 . S
O1144 C1130 1.267 . S
O1145 Pr1120 2.437 1_565 S
O1145 C1130 1.278 . S
O1146 Pr1121 2.562 1_545 S
O1146 C1131 1.258 . S
O1147 Pr1121 2.490 . S
O1147 C1131 1.213 1_565 S
O1148 Pr1120 2.436 . S
O1148 Pr1121 2.695 1_545 S
O1148 C1138 1.270 . S
O1149 Pr1121 2.512 . S
O1149 C1138 1.248 1_565 S
O1150 Pr1120 2.438 . S
O1150 C1139 1.267 . S
O1151 Pr1121 2.437 1_545 S
O1151 C1139 1.278 . S
H1152 C1124 0.929 . S
H1153 C1125 0.929 . S
H1154 C1127 0.931 . S
H1155 C1128 0.930 . S
H1156 C1133 0.929 1_565 S
H1157 C1134 0.929 . S
H1158 C1136 0.931 . S
H1159 C1137 0.930 . S
Pr1160 C1162 2.880 . S
Pr1160 O1180 2.562 . S
Pr1160 O1181 2.490 . S
Pr1160 O1182 2.695 . S
Pr1160 O1183 2.512 . S
Pr1160 O1185 2.437 . S
Pr1160 O1188 2.436 . S
Pr1160 O1190 2.438 . S
Pr1161 C1171 2.880 . S
Pr1161 O1182 2.436 . S
Pr1161 O1184 2.438 . S
Pr1161 O1186 2.562 . S
Pr1161 O1187 2.490 . S
Pr1161 O1188 2.695 . S
Pr1161 O1189 2.512 . S
Pr1161 O1191 2.437 . S
C1162 Pr1160 2.880 . S
C1162 C1163 1.491 . S
C1162 O1180 1.254 . S
C1162 O1181 1.225 . S
C1163 C1162 1.491 . S
C1163 C1164 1.392 . S
C1163 C1168 1.356 . S
C1164 C1163 1.392 . S
C1164 C1165 1.368 . S
C1164 H1192 0.929 . S
C1165 C1164 1.368 . S
C1165 C1166 1.386 . S
C1165 H1193 0.929 . S
C1166 C1165 1.386 . S
C1166 C1167 1.373 . S
C1167 C1166 1.373 . S
C1167 C1168 1.409 . S
C1167 H1194 0.931 . S
C1168 C1163 1.356 . S
C1168 C1167 1.409 . S
C1168 H1195 0.930 . S
C1169 O1182 1.270 . S
C1169 O1183 1.248 . S
C1170 O1184 1.267 . S
C1170 O1185 1.278 . S
C1171 Pr1161 2.880 . S
C1171 C1172 1.491 . S
C1171 O1186 1.254 . S
C1171 O1187 1.225 . S
C1172 C1171 1.491 . S
C1172 C1173 1.392 . S
C1172 C1177 1.356 . S
C1173 C1172 1.392 . S
C1173 C1174 1.368 1_455 S
C1173 H1196 0.929 . S
C1174 C1173 1.368 1_655 S
C1174 C1175 1.386 . S
C1174 H1197 0.929 . S
C1175 C1174 1.386 . S
C1175 C1176 1.373 . S
C1176 C1175 1.373 . S
C1176 C1177 1.409 1_655 S
C1176 H1198 0.931 . S
C1177 C1172 1.356 . S
C1177 C1176 1.409 1_455 S
C1177 H1199 0.930 . S
C1178 O1188 1.270 . S
C1178 O1189 1.248 . S
C1179 O1190 1.267 . S
C1179 O1191 1.278 . S
O1180 Pr1160 2.562 . S
O1180 C1162 1.254 . S
O1181 Pr1160 2.490 . S
O1181 C1162 1.225 . S
O1182 Pr1160 2.695 . S
O1182 Pr1161 2.436 . S
O1182 C1169 1.270 . S
O1183 Pr1160 2.512 . S
O1183 C1169 1.248 . S
O1184 Pr1161 2.438 . S
O1184 C1170 1.267 . S
O1185 Pr1160 2.437 . S
O1185 C1170 1.278 . S
O1186 Pr1161 2.562 . S
O1186 C1171 1.254 . S
O1187 Pr1161 2.490 . S
O1187 C1171 1.225 . S
O1188 Pr1160 2.436 . S
O1188 Pr1161 2.695 . S
O1188 C1178 1.270 . S
O1189 Pr1161 2.512 . S
O1189 C1178 1.248 . S
O1190 Pr1160 2.438 . S
O1190 C1179 1.267 . S
O1191 Pr1161 2.437 . S
O1191 C1179 1.278 . S
H1192 C1164 0.929 . S
H1193 C1165 0.929 . S
H1194 C1167 0.931 . S
H1195 C1168 0.930 . S
H1196 C1173 0.929 . S
H1197 C1174 0.929 . S
H1198 C1176 0.931 . S
H1199 C1177 0.930 . S
Pr1200 C1202 2.880 . S
Pr1200 O1220 2.562 . S
Pr1200 O1221 2.490 . S
Pr1200 O1222 2.695 . S
Pr1200 O1223 2.512 . S
Pr1200 O1225 2.437 . S
Pr1200 O1228 2.436 . S
Pr1200 O1230 2.438 . S
Pr1201 C1211 2.880 . S
Pr1201 O1222 2.436 . S
Pr1201 O1224 2.438 . S
Pr1201 O1226 2.562 . S
Pr1201 O1227 2.490 . S
Pr1201 O1228 2.695 . S
Pr1201 O1229 2.512 . S
Pr1201 O1231 2.437 . S
C1202 Pr1200 2.880 . S
C1202 C1203 1.491 . S
C1202 O1220 1.254 . S
C1202 O1221 1.225 . S
C1203 C1202 1.491 . S
C1203 C1204 1.392 . S
C1203 C1208 1.356 . S
C1204 C1203 1.392 . S
C1204 C1205 1.368 . S
C1204 H1232 0.929 . S
C1205 C1204 1.368 . S
C1205 C1206 1.386 . S
C1205 H1233 0.929 . S
C1206 C1205 1.386 . S
C1206 C1207 1.373 . S
C1207 C1206 1.373 . S
C1207 C1208 1.409 . S
C1207 H1234 0.931 . S
C1208 C1203 1.356 . S
C1208 C1207 1.409 . S
C1208 H1235 0.930 . S
C1209 O1222 1.270 . S
C1209 O1223 1.248 . S
C1210 O1224 1.267 . S
C1210 O1225 1.278 . S
C1211 Pr1201 2.880 . S
C1211 C1212 1.491 . S
C1211 O1226 1.254 . S
C1211 O1227 1.225 . S
C1212 C1211 1.491 . S
C1212 C1213 1.392 . S
C1212 C1217 1.356 . S
C1213 C1212 1.392 . S
C1213 C1214 1.368 . S
C1213 H1236 0.929 . S
C1214 C1213 1.368 . S
C1214 C1215 1.386 . S
C1214 H1237 0.929 . S
C1215 C1214 1.386 . S
C1215 C1216 1.373 . S
C1216 C1215 1.373 . S
C1216 C1217 1.409 . S
C1216 H1238 0.931 . S
C1217 C1212 1.356 . S
C1217 C1216 1.409 . S
C1217 H1239 0.930 . S
C1218 O1228 1.270 . S
C1218 O1229 1.248 . S
C1219 O1230 1.267 . S
C1219 O1231 1.278 . S
O1220 Pr1200 2.562 . S
O1220 C1202 1.254 . S
O1221 Pr1200 2.490 . S
O1221 C1202 1.225 . S
O1222 Pr1200 2.695 . S
O1222 Pr1201 2.436 . S
O1222 C1209 1.270 . S
O1223 Pr1200 2.512 . S
O1223 C1209 1.248 . S
O1224 Pr1201 2.438 . S
O1224 C1210 1.267 . S
O1225 Pr1200 2.437 . S
O1225 C1210 1.278 . S
O1226 Pr1201 2.562 . S
O1226 C1211 1.254 . S
O1227 Pr1201 2.490 . S
O1227 C1211 1.225 . S
O1228 Pr1200 2.436 . S
O1228 Pr1201 2.695 . S
O1228 C1218 1.270 . S
O1229 Pr1201 2.512 . S
O1229 C1218 1.248 . S
O1230 Pr1200 2.438 . S
O1230 C1219 1.267 . S
O1231 Pr1201 2.437 . S
O1231 C1219 1.278 . S
H1232 C1204 0.929 . S
H1233 C1205 0.929 . S
H1234 C1207 0.931 . S
H1235 C1208 0.930 . S
H1236 C1213 0.929 . S
H1237 C1214 0.929 . S
H1238 C1216 0.931 . S
H1239 C1217 0.930 . S
Pr1240 C1242 2.880 . S
Pr1240 O1260 2.562 . S
Pr1240 O1261 2.490 . S
Pr1240 O1262 2.695 . S
Pr1240 O1263 2.512 . S
Pr1240 O1265 2.437 1_545 S
Pr1240 O1268 2.436 . S
Pr1240 O1270 2.438 . S
Pr1241 C1251 2.872 1_565 S
Pr1241 O1262 2.436 1_565 S
Pr1241 O1264 2.438 . S
Pr1241 O1266 2.562 1_565 S
Pr1241 O1267 2.490 . S
Pr1241 O1268 2.695 1_565 S
Pr1241 O1269 2.512 . S
Pr1241 O1271 2.437 1_565 S
C1242 Pr1240 2.880 . S
C1242 C1243 1.491 . S
C1242 O1260 1.254 . S
C1242 O1261 1.225 . S
C1243 C1242 1.491 . S
C1243 C1244 1.392 . S
C1243 C1248 1.356 1_545 S
C1244 C1243 1.392 . S
C1244 C1245 1.368 . S
C1244 H1272 0.929 . S
C1245 C1244 1.368 . S
C1245 C1246 1.386 1_545 S
C1245 H1273 0.929 . S
C1246 C1245 1.386 1_565 S
C1246 C1247 1.373 . S
C1247 C1246 1.373 . S
C1247 C1248 1.409 . S
C1247 H1274 0.931 . S
C1248 C1243 1.356 1_565 S
C1248 C1247 1.409 . S
C1248 H1275 0.930 . S
C1249 O1262 1.270 . S
C1249 O1263 1.248 . S
C1250 O1264 1.267 . S
C1250 O1265 1.278 . S
C1251 Pr1241 2.872 1_545 S
C1251 C1252 1.499 . S
C1251 O1266 1.258 . S
C1251 O1267 1.213 1_545 S
C1252 C1251 1.499 . S
C1252 C1253 1.392 . S
C1252 C1257 1.356 . S
C1253 C1252 1.392 . S
C1253 C1254 1.368 1_455 S
C1253 H1276 0.929 1_545 S
C1254 C1253 1.368 1_655 S
C1254 C1255 1.386 . S
C1254 H1277 0.929 . S
C1255 C1254 1.386 . S
C1255 C1256 1.373 . S
C1256 C1255 1.373 . S
C1256 C1257 1.409 1_655 S
C1256 H1278 0.931 . S
C1257 C1252 1.356 . S
C1257 C1256 1.409 1_455 S
C1257 H1279 0.930 . S
C1258 O1268 1.270 . S
C1258 O1269 1.248 1_545 S
C1259 O1270 1.267 . S
C1259 O1271 1.278 . S
O1260 Pr1240 2.562 . S
O1260 C1242 1.254 . S
O1261 Pr1240 2.490 . S
O1261 C1242 1.225 . S
O1262 Pr1240 2.695 . S
O1262 Pr1241 2.436 1_545 S
O1262 C1249 1.270 . S
O1263 Pr1240 2.512 . S
O1263 C1249 1.248 . S
O1264 Pr1241 2.438 . S
O1264 C1250 1.267 . S
O1265 Pr1240 2.437 1_565 S
O1265 C1250 1.278 . S
O1266 Pr1241 2.562 1_545 S
O1266 C1251 1.258 . S
O1267 Pr1241 2.490 . S
O1267 C1251 1.213 1_565 S
O1268 Pr1240 2.436 . S
O1268 Pr1241 2.695 1_545 S
O1268 C1258 1.270 . S
O1269 Pr1241 2.512 . S
O1269 C1258 1.248 1_565 S
O1270 Pr1240 2.438 . S
O1270 C1259 1.267 . S
O1271 Pr1241 2.437 1_545 S
O1271 C1259 1.278 . S
H1272 C1244 0.929 . S
H1273 C1245 0.929 . S
H1274 C1247 0.931 . S
H1275 C1248 0.930 . S
H1276 C1253 0.929 1_565 S
H1277 C1254 0.929 . S
H1278 C1256 0.931 . S
H1279 C1257 0.930 . S
H1280 C1292 0.930 . S
H1281 C1294 0.930 . S
H1282 C1295 0.930 . S
H1283 C1299 0.959 . S
H1284 C1299 0.959 . S
H1285 C1299 0.961 . S
H1286 C1300 0.960 . S
H1287 C1300 0.961 . S
H1288 C1300 0.959 . S
H1289 C1303 0.929 . S
H1290 C1304 0.931 . S
H1291 C1306 0.930 . S
C1292 H1280 0.930 . S
C1292 C1293 1.399 . S
C1292 C1297 1.399 . S
C1293 C1292 1.399 . S
C1293 C1294 1.376 . S
C1294 H1281 0.930 . S
C1294 C1293 1.376 . S
C1294 C1295 1.388 . S
C1295 H1282 0.930 . S
C1295 C1294 1.388 . S
C1295 C1296 1.390 . S
C1296 C1295 1.390 . S
C1296 C1297 1.394 . S
C1296 C1302 1.465 . S
C1297 C1292 1.399 . S
C1297 C1296 1.394 . S
C1297 C1298 1.516 . S
C1298 C1297 1.516 . S
C1298 C1299 1.502 . S
C1298 C1300 1.561 . S
C1298 C1301 1.526 . S
C1299 H1283 0.959 . S
C1299 H1284 0.959 . S
C1299 H1285 0.961 . S
C1299 C1298 1.502 . S
C1300 H1286 0.960 . S
C1300 H1287 0.961 . S
C1300 H1288 0.959 . S
C1300 C1298 1.561 . S
C1301 C1298 1.526 . S
C1301 C1302 1.396 . S
C1301 C1306 1.390 . S
C1302 C1296 1.465 . S
C1302 C1301 1.396 . S
C1302 C1303 1.399 . S
C1303 H1289 0.929 . S
C1303 C1302 1.399 . S
C1303 C1304 1.385 . S
C1304 H1290 0.931 . S
C1304 C1303 1.385 . S
C1304 C1305 1.389 . S
C1305 C1304 1.389 . S
C1305 C1306 1.387 . S
C1306 H1291 0.930 . S
C1306 C1301 1.390 . S
C1306 C1305 1.387 . S
H1307 C1319 0.930 . S
H1308 C1321 0.930 . S
H1309 C1322 0.930 . S
H1310 C1326 0.959 . S
H1311 C1326 0.959 . S
H1312 C1326 0.961 . S
H1313 C1327 0.960 . S
H1314 C1327 0.961 . S
H1315 C1327 0.959 . S
H1316 C1330 0.929 . S
H1317 C1331 0.931 . S
H1318 C1333 0.930 . S
C1319 H1307 0.930 . S
C1319 C1320 1.399 . S
C1319 C1324 1.399 . S
C1320 C1319 1.399 . S
C1320 C1321 1.376 . S
C1321 H1308 0.930 . S
C1321 C1320 1.376 . S
C1321 C1322 1.388 . S
C1322 H1309 0.930 . S
C1322 C1321 1.388 . S
C1322 C1323 1.390 . S
C1323 C1322 1.390 . S
C1323 C1324 1.394 . S
C1323 C1329 1.465 . S
C1324 C1319 1.399 . S
C1324 C1323 1.394 . S
C1324 C1325 1.516 . S
C1325 C1324 1.516 . S
C1325 C1326 1.502 . S
C1325 C1327 1.561 . S
C1325 C1328 1.526 . S
C1326 H1310 0.959 . S
C1326 H1311 0.959 . S
C1326 H1312 0.961 . S
C1326 C1325 1.502 . S
C1327 H1313 0.960 . S
C1327 H1314 0.961 . S
C1327 H1315 0.959 . S
C1327 C1325 1.561 . S
C1328 C1325 1.526 . S
C1328 C1329 1.396 . S
C1328 C1333 1.390 . S
C1329 C1323 1.465 . S
C1329 C1328 1.396 . S
C1329 C1330 1.399 . S
C1330 H1316 0.929 . S
C1330 C1329 1.399 . S
C1330 C1331 1.385 . S
C1331 H1317 0.931 . S
C1331 C1330 1.385 . S
C1331 C1332 1.389 . S
C1332 C1331 1.389 . S
C1332 C1333 1.387 . S
C1333 H1318 0.930 . S
C1333 C1328 1.390 . S
C1333 C1332 1.387 . S
H1334 C1346 0.930 . S
H1335 C1348 0.930 . S
H1336 C1349 0.930 . S
H1337 C1353 0.959 . S
H1338 C1353 0.959 . S
H1339 C1353 0.961 . S
H1340 C1354 0.960 . S
H1341 C1354 0.961 . S
H1342 C1354 0.959 . S
H1343 C1357 0.929 . S
H1344 C1358 0.931 . S
H1345 C1360 0.930 . S
C1346 H1334 0.930 . S
C1346 C1347 1.399 . S
C1346 C1351 1.399 . S
C1347 C1346 1.399 . S
C1347 C1348 1.376 . S
C1348 H1335 0.930 . S
C1348 C1347 1.376 . S
C1348 C1349 1.388 . S
C1349 H1336 0.930 . S
C1349 C1348 1.388 . S
C1349 C1350 1.390 . S
C1350 C1349 1.390 . S
C1350 C1351 1.394 . S
C1350 C1356 1.465 . S
C1351 C1346 1.399 . S
C1351 C1350 1.394 . S
C1351 C1352 1.516 . S
C1352 C1351 1.516 . S
C1352 C1353 1.502 . S
C1352 C1354 1.561 . S
C1352 C1355 1.526 . S
C1353 H1337 0.959 . S
C1353 H1338 0.959 . S
C1353 H1339 0.961 . S
C1353 C1352 1.502 . S
C1354 H1340 0.960 . S
C1354 H1341 0.961 . S
C1354 H1342 0.959 . S
C1354 C1352 1.561 . S
C1355 C1352 1.526 . S
C1355 C1356 1.396 . S
C1355 C1360 1.390 . S
C1356 C1350 1.465 . S
C1356 C1355 1.396 . S
C1356 C1357 1.399 . S
C1357 H1343 0.929 . S
C1357 C1356 1.399 . S
C1357 C1358 1.385 . S
C1358 H1344 0.931 . S
C1358 C1357 1.385 . S
C1358 C1359 1.389 . S
C1359 C1358 1.389 . S
C1359 C1360 1.387 . S
C1360 H1345 0.930 . S
C1360 C1355 1.390 . S
C1360 C1359 1.387 . S
H1361 C1373 0.930 . S
H1362 C1375 0.930 . S
H1363 C1376 0.930 . S
H1364 C1380 0.959 . S
H1365 C1380 0.959 . S
H1366 C1380 0.961 . S
H1367 C1381 0.960 . S
H1368 C1381 0.961 . S
H1369 C1381 0.959 . S
H1370 C1384 0.929 . S
H1371 C1385 0.931 . S
H1372 C1387 0.930 . S
C1373 H1361 0.930 . S
C1373 C1374 1.399 . S
C1373 C1378 1.399 . S
C1374 C1373 1.399 . S
C1374 C1375 1.376 . S
C1375 H1362 0.930 . S
C1375 C1374 1.376 . S
C1375 C1376 1.388 . S
C1376 H1363 0.930 . S
C1376 C1375 1.388 . S
C1376 C1377 1.390 . S
C1377 C1376 1.390 . S
C1377 C1378 1.394 . S
C1377 C1383 1.465 . S
C1378 C1373 1.399 . S
C1378 C1377 1.394 . S
C1378 C1379 1.516 . S
C1379 C1378 1.516 . S
C1379 C1380 1.502 . S
C1379 C1381 1.561 . S
C1379 C1382 1.526 . S
C1380 H1364 0.959 . S
C1380 H1365 0.959 . S
C1380 H1366 0.961 . S
C1380 C1379 1.502 . S
C1381 H1367 0.960 . S
C1381 H1368 0.961 . S
C1381 H1369 0.959 . S
C1381 C1379 1.561 . S
C1382 C1379 1.526 . S
C1382 C1383 1.396 . S
C1382 C1387 1.390 . S
C1383 C1377 1.465 . S
C1383 C1382 1.396 . S
C1383 C1384 1.399 . S
C1384 H1370 0.929 . S
C1384 C1383 1.399 . S
C1384 C1385 1.385 . S
C1385 H1371 0.931 . S
C1385 C1384 1.385 . S
C1385 C1386 1.389 . S
C1386 C1385 1.389 . S
C1386 C1387 1.387 . S
C1387 H1372 0.930 . S
C1387 C1382 1.390 . S
C1387 C1386 1.387 . S
H1388 C1400 0.930 . S
H1389 C1402 0.930 . S
H1390 C1403 0.930 . S
H1391 C1407 0.959 . S
H1392 C1407 0.959 . S
H1393 C1407 0.961 . S
H1394 C1408 0.960 . S
H1395 C1408 0.961 . S
H1396 C1408 0.959 . S
H1397 C1411 0.929 . S
H1398 C1412 0.931 . S
H1399 C1414 0.930 . S
C1400 H1388 0.930 . S
C1400 C1401 1.399 . S
C1400 C1405 1.399 . S
C1401 C1400 1.399 . S
C1401 C1402 1.376 . S
C1402 H1389 0.930 . S
C1402 C1401 1.376 . S
C1402 C1403 1.388 . S
C1403 H1390 0.930 . S
C1403 C1402 1.388 . S
C1403 C1404 1.390 . S
C1404 C1403 1.390 . S
C1404 C1405 1.394 . S
C1404 C1410 1.465 . S
C1405 C1400 1.399 . S
C1405 C1404 1.394 . S
C1405 C1406 1.516 . S
C1406 C1405 1.516 . S
C1406 C1407 1.502 . S
C1406 C1408 1.561 . S
C1406 C1409 1.526 . S
C1407 H1391 0.959 . S
C1407 H1392 0.959 . S
C1407 H1393 0.961 . S
C1407 C1406 1.502 . S
C1408 H1394 0.960 . S
C1408 H1395 0.961 . S
C1408 H1396 0.959 . S
C1408 C1406 1.561 . S
C1409 C1406 1.526 . S
C1409 C1410 1.396 . S
C1409 C1414 1.390 . S
C1410 C1404 1.465 . S
C1410 C1409 1.396 . S
C1410 C1411 1.399 . S
C1411 H1397 0.929 . S
C1411 C1410 1.399 . S
C1411 C1412 1.385 . S
C1412 H1398 0.931 . S
C1412 C1411 1.385 . S
C1412 C1413 1.389 . S
C1413 C1412 1.389 . S
C1413 C1414 1.387 . S
C1414 H1399 0.930 . S
C1414 C1409 1.390 . S
C1414 C1413 1.387 . S
H1415 C1427 0.930 . S
H1416 C1429 0.930 . S
H1417 C1430 0.930 . S
H1418 C1434 0.959 . S
H1419 C1434 0.959 . S
H1420 C1434 0.961 . S
H1421 C1435 0.960 . S
H1422 C1435 0.961 . S
H1423 C1435 0.959 . S
H1424 C1438 0.929 . S
H1425 C1439 0.931 . S
H1426 C1441 0.930 . S
C1427 H1415 0.930 . S
C1427 C1428 1.399 . S
C1427 C1432 1.399 . S
C1428 C1427 1.399 . S
C1428 C1429 1.376 . S
C1429 H1416 0.930 . S
C1429 C1428 1.376 . S
C1429 C1430 1.388 . S
C1430 H1417 0.930 . S
C1430 C1429 1.388 . S
C1430 C1431 1.390 . S
C1431 C1430 1.390 . S
C1431 C1432 1.394 . S
C1431 C1437 1.465 . S
C1432 C1427 1.399 . S
C1432 C1431 1.394 . S
C1432 C1433 1.516 . S
C1433 C1432 1.516 . S
C1433 C1434 1.502 . S
C1433 C1435 1.561 . S
C1433 C1436 1.526 . S
C1434 H1418 0.959 . S
C1434 H1419 0.959 . S
C1434 H1420 0.961 . S
C1434 C1433 1.502 . S
C1435 H1421 0.960 . S
C1435 H1422 0.961 . S
C1435 H1423 0.959 . S
C1435 C1433 1.561 . S
C1436 C1433 1.526 . S
C1436 C1437 1.396 . S
C1436 C1441 1.390 . S
C1437 C1431 1.465 . S
C1437 C1436 1.396 . S
C1437 C1438 1.399 . S
C1438 H1424 0.929 . S
C1438 C1437 1.399 . S
C1438 C1439 1.385 . S
C1439 H1425 0.931 . S
C1439 C1438 1.385 . S
C1439 C1440 1.389 . S
C1440 C1439 1.389 . S
C1440 C1441 1.387 . S
C1441 H1426 0.930 . S
C1441 C1436 1.390 . S
C1441 C1440 1.387 . S
H1442 C1454 0.930 . S
H1443 C1456 0.930 . S
H1444 C1457 0.930 . S
H1445 C1461 0.959 . S
H1446 C1461 0.959 . S
H1447 C1461 0.961 . S
H1448 C1462 0.960 . S
H1449 C1462 0.961 . S
H1450 C1462 0.959 . S
H1451 C1465 0.929 . S
H1452 C1466 0.931 . S
H1453 C1468 0.930 . S
C1454 H1442 0.930 . S
C1454 C1455 1.399 . S
C1454 C1459 1.399 . S
C1455 C1454 1.399 . S
C1455 C1456 1.376 . S
C1456 H1443 0.930 . S
C1456 C1455 1.376 . S
C1456 C1457 1.388 . S
C1457 H1444 0.930 . S
C1457 C1456 1.388 . S
C1457 C1458 1.390 . S
C1458 C1457 1.390 . S
C1458 C1459 1.394 . S
C1458 C1464 1.465 . S
C1459 C1454 1.399 . S
C1459 C1458 1.394 . S
C1459 C1460 1.516 . S
C1460 C1459 1.516 . S
C1460 C1461 1.502 . S
C1460 C1462 1.561 . S
C1460 C1463 1.526 . S
C1461 H1445 0.959 . S
C1461 H1446 0.959 . S
C1461 H1447 0.961 . S
C1461 C1460 1.502 . S
C1462 H1448 0.960 . S
C1462 H1449 0.961 . S
C1462 H1450 0.959 . S
C1462 C1460 1.561 . S
C1463 C1460 1.526 . S
C1463 C1464 1.396 . S
C1463 C1468 1.390 . S
C1464 C1458 1.465 . S
C1464 C1463 1.396 . S
C1464 C1465 1.399 . S
C1465 H1451 0.929 . S
C1465 C1464 1.399 . S
C1465 C1466 1.385 . S
C1466 H1452 0.931 . S
C1466 C1465 1.385 . S
C1466 C1467 1.389 . S
C1467 C1466 1.389 . S
C1467 C1468 1.387 . S
C1468 H1453 0.930 . S
C1468 C1463 1.390 . S
C1468 C1467 1.387 . S
H1469 C1481 0.930 . S
H1470 C1483 0.930 . S
H1471 C1484 0.930 . S
H1472 C1488 0.959 . S
H1473 C1488 0.959 . S
H1474 C1488 0.961 . S
H1475 C1489 0.960 . S
H1476 C1489 0.961 . S
H1477 C1489 0.959 . S
H1478 C1492 0.929 . S
H1479 C1493 0.931 . S
H1480 C1495 0.930 . S
C1481 H1469 0.930 . S
C1481 C1482 1.399 . S
C1481 C1486 1.399 . S
C1482 C1481 1.399 . S
C1482 C1483 1.376 . S
C1483 H1470 0.930 . S
C1483 C1482 1.376 . S
C1483 C1484 1.388 . S
C1484 H1471 0.930 . S
C1484 C1483 1.388 . S
C1484 C1485 1.390 . S
C1485 C1484 1.390 . S
C1485 C1486 1.394 . S
C1485 C1491 1.465 . S
C1486 C1481 1.399 . S
C1486 C1485 1.394 . S
C1486 C1487 1.516 . S
C1487 C1486 1.516 . S
C1487 C1488 1.502 . S
C1487 C1489 1.561 . S
C1487 C1490 1.526 . S
C1488 H1472 0.959 . S
C1488 H1473 0.959 . S
C1488 H1474 0.961 . S
C1488 C1487 1.502 . S
C1489 H1475 0.960 . S
C1489 H1476 0.961 . S
C1489 H1477 0.959 . S
C1489 C1487 1.561 . S
C1490 C1487 1.526 . S
C1490 C1491 1.396 . S
C1490 C1495 1.390 . S
C1491 C1485 1.465 . S
C1491 C1490 1.396 . S
C1491 C1492 1.399 . S
C1492 H1478 0.929 . S
C1492 C1491 1.399 . S
C1492 C1493 1.385 . S
C1493 H1479 0.931 . S
C1493 C1492 1.385 . S
C1493 C1494 1.389 . S
C1494 C1493 1.389 . S
C1494 C1495 1.387 . S
C1495 H1480 0.930 . S
C1495 C1490 1.390 . S
C1495 C1494 1.387 . S
H1496 C1508 0.930 . S
H1497 C1510 0.930 . S
H1498 C1511 0.930 . S
H1499 C1515 0.959 . S
H1500 C1515 0.959 . S
H1501 C1515 0.961 . S
H1502 C1516 0.960 . S
H1503 C1516 0.961 . S
H1504 C1516 0.959 . S
H1505 C1519 0.929 . S
H1506 C1520 0.931 . S
H1507 C1522 0.930 . S
C1508 H1496 0.930 . S
C1508 C1509 1.399 . S
C1508 C1513 1.399 . S
C1509 C1508 1.399 . S
C1509 C1510 1.376 . S
C1510 H1497 0.930 . S
C1510 C1509 1.376 . S
C1510 C1511 1.388 . S
C1511 H1498 0.930 . S
C1511 C1510 1.388 . S
C1511 C1512 1.390 . S
C1512 C1511 1.390 . S
C1512 C1513 1.394 . S
C1512 C1518 1.465 . S
C1513 C1508 1.399 . S
C1513 C1512 1.394 . S
C1513 C1514 1.516 . S
C1514 C1513 1.516 . S
C1514 C1515 1.502 . S
C1514 C1516 1.561 . S
C1514 C1517 1.526 . S
C1515 H1499 0.959 . S
C1515 H1500 0.959 . S
C1515 H1501 0.961 . S
C1515 C1514 1.502 . S
C1516 H1502 0.960 . S
C1516 H1503 0.961 . S
C1516 H1504 0.959 . S
C1516 C1514 1.561 . S
C1517 C1514 1.526 . S
C1517 C1518 1.396 . S
C1517 C1522 1.390 . S
C1518 C1512 1.465 . S
C1518 C1517 1.396 . S
C1518 C1519 1.399 . S
C1519 H1505 0.929 . S
C1519 C1518 1.399 . S
C1519 C1520 1.385 . S
C1520 H1506 0.931 . S
C1520 C1519 1.385 . S
C1520 C1521 1.389 . S
C1521 C1520 1.389 . S
C1521 C1522 1.387 . S
C1522 H1507 0.930 . S
C1522 C1517 1.390 . S
C1522 C1521 1.387 . S
H1523 C1535 0.930 . S
H1524 C1537 0.930 . S
H1525 C1538 0.930 . S
H1526 C1542 0.959 . S
H1527 C1542 0.959 . S
H1528 C1542 0.961 . S
H1529 C1543 0.960 . S
H1530 C1543 0.961 . S
H1531 C1543 0.959 . S
H1532 C1546 0.929 . S
H1533 C1547 0.931 . S
H1534 C1549 0.930 . S
C1535 H1523 0.930 . S
C1535 C1536 1.399 . S
C1535 C1540 1.399 . S
C1536 C1535 1.399 . S
C1536 C1537 1.376 . S
C1537 H1524 0.930 . S
C1537 C1536 1.376 . S
C1537 C1538 1.388 . S
C1538 H1525 0.930 . S
C1538 C1537 1.388 . S
C1538 C1539 1.390 . S
C1539 C1538 1.390 . S
C1539 C1540 1.394 . S
C1539 C1545 1.465 . S
C1540 C1535 1.399 . S
C1540 C1539 1.394 . S
C1540 C1541 1.516 . S
C1541 C1540 1.516 . S
C1541 C1542 1.502 . S
C1541 C1543 1.561 . S
C1541 C1544 1.526 . S
C1542 H1526 0.959 . S
C1542 H1527 0.959 . S
C1542 H1528 0.961 . S
C1542 C1541 1.502 . S
C1543 H1529 0.960 . S
C1543 H1530 0.961 . S
C1543 H1531 0.959 . S
C1543 C1541 1.561 . S
C1544 C1541 1.526 . S
C1544 C1545 1.396 . S
C1544 C1549 1.390 . S
C1545 C1539 1.465 . S
C1545 C1544 1.396 . S
C1545 C1546 1.399 . S
C1546 H1532 0.929 . S
C1546 C1545 1.399 . S
C1546 C1547 1.385 . S
C1547 H1533 0.931 . S
C1547 C1546 1.385 . S
C1547 C1548 1.389 . S
C1548 C1547 1.389 . S
C1548 C1549 1.387 . S
C1549 H1534 0.930 . S
C1549 C1544 1.390 . S
C1549 C1548 1.387 . S
H1550 C1562 0.930 . S
H1551 C1564 0.930 . S
H1552 C1565 0.930 . S
H1553 C1569 0.959 . S
H1554 C1569 0.959 . S
H1555 C1569 0.961 . S
H1556 C1570 0.960 . S
H1557 C1570 0.961 . S
H1558 C1570 0.959 . S
H1559 C1573 0.929 . S
H1560 C1574 0.931 . S
H1561 C1576 0.930 . S
C1562 H1550 0.930 . S
C1562 C1563 1.399 . S
C1562 C1567 1.399 . S
C1563 C1562 1.399 . S
C1563 C1564 1.376 . S
C1564 H1551 0.930 . S
C1564 C1563 1.376 . S
C1564 C1565 1.388 . S
C1565 H1552 0.930 . S
C1565 C1564 1.388 . S
C1565 C1566 1.390 . S
C1566 C1565 1.390 . S
C1566 C1567 1.394 . S
C1566 C1572 1.465 . S
C1567 C1562 1.399 . S
C1567 C1566 1.394 . S
C1567 C1568 1.516 . S
C1568 C1567 1.516 . S
C1568 C1569 1.502 . S
C1568 C1570 1.561 . S
C1568 C1571 1.526 . S
C1569 H1553 0.959 . S
C1569 H1554 0.959 . S
C1569 H1555 0.961 . S
C1569 C1568 1.502 . S
C1570 H1556 0.960 . S
C1570 H1557 0.961 . S
C1570 H1558 0.959 . S
C1570 C1568 1.561 . S
C1571 C1568 1.526 . S
C1571 C1572 1.396 . S
C1571 C1576 1.390 . S
C1572 C1566 1.465 . S
C1572 C1571 1.396 . S
C1572 C1573 1.399 . S
C1573 H1559 0.929 . S
C1573 C1572 1.399 . S
C1573 C1574 1.385 . S
C1574 H1560 0.931 . S
C1574 C1573 1.385 . S
C1574 C1575 1.389 . S
C1575 C1574 1.389 . S
C1575 C1576 1.387 . S
C1576 H1561 0.930 . S
C1576 C1571 1.390 . S
C1576 C1575 1.387 . S
H1577 C1589 0.930 . S
H1578 C1591 0.930 . S
H1579 C1592 0.930 . S
H1580 C1596 0.959 . S
H1581 C1596 0.959 . S
H1582 C1596 0.961 . S
H1583 C1597 0.960 . S
H1584 C1597 0.961 . S
H1585 C1597 0.959 . S
H1586 C1600 0.929 . S
H1587 C1601 0.931 . S
H1588 C1603 0.930 . S
C1589 H1577 0.930 . S
C1589 C1590 1.399 . S
C1589 C1594 1.399 . S
C1590 C1589 1.399 . S
C1590 C1591 1.376 . S
C1591 H1578 0.930 . S
C1591 C1590 1.376 . S
C1591 C1592 1.388 . S
C1592 H1579 0.930 . S
C1592 C1591 1.388 . S
C1592 C1593 1.390 . S
C1593 C1592 1.390 . S
C1593 C1594 1.394 . S
C1593 C1599 1.465 . S
C1594 C1589 1.399 . S
C1594 C1593 1.394 . S
C1594 C1595 1.516 . S
C1595 C1594 1.516 . S
C1595 C1596 1.502 . S
C1595 C1597 1.561 . S
C1595 C1598 1.526 . S
C1596 H1580 0.959 . S
C1596 H1581 0.959 . S
C1596 H1582 0.961 . S
C1596 C1595 1.502 . S
C1597 H1583 0.960 . S
C1597 H1584 0.961 . S
C1597 H1585 0.959 . S
C1597 C1595 1.561 . S
C1598 C1595 1.526 . S
C1598 C1599 1.396 . S
C1598 C1603 1.390 . S
C1599 C1593 1.465 . S
C1599 C1598 1.396 . S
C1599 C1600 1.399 . S
C1600 H1586 0.929 . S
C1600 C1599 1.399 . S
C1600 C1601 1.385 . S
C1601 H1587 0.931 . S
C1601 C1600 1.385 . S
C1601 C1602 1.389 . S
C1602 C1601 1.389 . S
C1602 C1603 1.387 . S
C1603 H1588 0.930 . S
C1603 C1598 1.390 . S
C1603 C1602 1.387 . S
H1604 C1616 0.930 . S
H1605 C1618 0.930 . S
H1606 C1619 0.930 . S
H1607 C1623 0.959 . S
H1608 C1623 0.959 . S
H1609 C1623 0.961 . S
H1610 C1624 0.960 . S
H1611 C1624 0.961 . S
H1612 C1624 0.959 . S
H1613 C1627 0.929 . S
H1614 C1628 0.931 . S
H1615 C1630 0.930 . S
C1616 H1604 0.930 . S
C1616 C1617 1.399 . S
C1616 C1621 1.399 . S
C1617 C1616 1.399 . S
C1617 C1618 1.376 . S
C1618 H1605 0.930 . S
C1618 C1617 1.376 . S
C1618 C1619 1.388 . S
C1619 H1606 0.930 . S
C1619 C1618 1.388 . S
C1619 C1620 1.390 . S
C1620 C1619 1.390 . S
C1620 C1621 1.394 . S
C1620 C1626 1.465 . S
C1621 C1616 1.399 . S
C1621 C1620 1.394 . S
C1621 C1622 1.516 . S
C1622 C1621 1.516 . S
C1622 C1623 1.502 . S
C1622 C1624 1.561 . S
C1622 C1625 1.526 . S
C1623 H1607 0.959 . S
C1623 H1608 0.959 . S
C1623 H1609 0.961 . S
C1623 C1622 1.502 . S
C1624 H1610 0.960 . S
C1624 H1611 0.961 . S
C1624 H1612 0.959 . S
C1624 C1622 1.561 . S
C1625 C1622 1.526 . S
C1625 C1626 1.396 . S
C1625 C1630 1.390 . S
C1626 C1620 1.465 . S
C1626 C1625 1.396 . S
C1626 C1627 1.399 . S
C1627 H1613 0.929 . S
C1627 C1626 1.399 . S
C1627 C1628 1.385 . S
C1628 H1614 0.931 . S
C1628 C1627 1.385 . S
C1628 C1629 1.389 . S
C1629 C1628 1.389 . S
C1629 C1630 1.387 . S
C1630 H1615 0.930 . S
C1630 C1625 1.390 . S
C1630 C1629 1.387 . S
H1631 C1643 0.930 . S
H1632 C1645 0.930 . S
H1633 C1646 0.930 . S
H1634 C1650 0.959 . S
H1635 C1650 0.959 . S
H1636 C1650 0.961 . S
H1637 C1651 0.960 . S
H1638 C1651 0.961 . S
H1639 C1651 0.959 . S
H1640 C1654 0.929 . S
H1641 C1655 0.931 . S
H1642 C1657 0.930 . S
C1643 H1631 0.930 . S
C1643 C1644 1.399 . S
C1643 C1648 1.399 . S
C1644 C1643 1.399 . S
C1644 C1645 1.376 . S
C1645 H1632 0.930 . S
C1645 C1644 1.376 . S
C1645 C1646 1.388 . S
C1646 H1633 0.930 . S
C1646 C1645 1.388 . S
C1646 C1647 1.390 . S
C1647 C1646 1.390 . S
C1647 C1648 1.394 . S
C1647 C1653 1.465 . S
C1648 C1643 1.399 . S
C1648 C1647 1.394 . S
C1648 C1649 1.516 . S
C1649 C1648 1.516 . S
C1649 C1650 1.502 . S
C1649 C1651 1.561 . S
C1649 C1652 1.526 . S
C1650 H1634 0.959 . S
C1650 H1635 0.959 . S
C1650 H1636 0.961 . S
C1650 C1649 1.502 . S
C1651 H1637 0.960 . S
C1651 H1638 0.961 . S
C1651 H1639 0.959 . S
C1651 C1649 1.561 . S
C1652 C1649 1.526 . S
C1652 C1653 1.396 . S
C1652 C1657 1.390 . S
C1653 C1647 1.465 . S
C1653 C1652 1.396 . S
C1653 C1654 1.399 . S
C1654 H1640 0.929 . S
C1654 C1653 1.399 . S
C1654 C1655 1.385 . S
C1655 H1641 0.931 . S
C1655 C1654 1.385 . S
C1655 C1656 1.389 . S
C1656 C1655 1.389 . S
C1656 C1657 1.387 . S
C1657 H1642 0.930 . S
C1657 C1652 1.390 . S
C1657 C1656 1.387 . S
H1658 C1670 0.930 . S
H1659 C1672 0.930 . S
H1660 C1673 0.930 . S
H1661 C1677 0.959 . S
H1662 C1677 0.959 . S
H1663 C1677 0.961 . S
H1664 C1678 0.960 . S
H1665 C1678 0.961 . S
H1666 C1678 0.959 . S
H1667 C1681 0.929 . S
H1668 C1682 0.931 . S
H1669 C1684 0.930 . S
C1670 H1658 0.930 . S
C1670 C1671 1.399 . S
C1670 C1675 1.399 . S
C1671 C1670 1.399 . S
C1671 C1672 1.376 . S
C1672 H1659 0.930 . S
C1672 C1671 1.376 . S
C1672 C1673 1.388 . S
C1673 H1660 0.930 . S
C1673 C1672 1.388 . S
C1673 C1674 1.390 . S
C1674 C1673 1.390 . S
C1674 C1675 1.394 . S
C1674 C1680 1.465 . S
C1675 C1670 1.399 . S
C1675 C1674 1.394 . S
C1675 C1676 1.516 . S
C1676 C1675 1.516 . S
C1676 C1677 1.502 . S
C1676 C1678 1.561 . S
C1676 C1679 1.526 . S
C1677 H1661 0.959 . S
C1677 H1662 0.959 . S
C1677 H1663 0.961 . S
C1677 C1676 1.502 . S
C1678 H1664 0.960 . S
C1678 H1665 0.961 . S
C1678 H1666 0.959 . S
C1678 C1676 1.561 . S
C1679 C1676 1.526 . S
C1679 C1680 1.396 . S
C1679 C1684 1.390 . S
C1680 C1674 1.465 . S
C1680 C1679 1.396 . S
C1680 C1681 1.399 . S
C1681 H1667 0.929 . S
C1681 C1680 1.399 . S
C1681 C1682 1.385 . S
C1682 H1668 0.931 . S
C1682 C1681 1.385 . S
C1682 C1683 1.389 . S
C1683 C1682 1.389 . S
C1683 C1684 1.387 . S
C1684 H1669 0.930 . S
C1684 C1679 1.390 . S
C1684 C1683 1.387 . S
H1685 C1697 0.930 . S
H1686 C1699 0.930 . S
H1687 C1700 0.930 . S
H1688 C1704 0.959 . S
H1689 C1704 0.959 . S
H1690 C1704 0.961 . S
H1691 C1705 0.960 . S
H1692 C1705 0.961 . S
H1693 C1705 0.959 . S
H1694 C1708 0.929 . S
H1695 C1709 0.931 . S
H1696 C1711 0.930 . S
C1697 H1685 0.930 . S
C1697 C1698 1.399 . S
C1697 C1702 1.399 . S
C1698 C1697 1.399 . S
C1698 C1699 1.376 . S
C1699 H1686 0.930 . S
C1699 C1698 1.376 . S
C1699 C1700 1.388 . S
C1700 H1687 0.930 . S
C1700 C1699 1.388 . S
C1700 C1701 1.390 . S
C1701 C1700 1.390 . S
C1701 C1702 1.394 . S
C1701 C1707 1.465 . S
C1702 C1697 1.399 . S
C1702 C1701 1.394 . S
C1702 C1703 1.516 . S
C1703 C1702 1.516 . S
C1703 C1704 1.502 . S
C1703 C1705 1.561 . S
C1703 C1706 1.526 . S
C1704 H1688 0.959 . S
C1704 H1689 0.959 . S
C1704 H1690 0.961 . S
C1704 C1703 1.502 . S
C1705 H1691 0.960 . S
C1705 H1692 0.961 . S
C1705 H1693 0.959 . S
C1705 C1703 1.561 . S
C1706 C1703 1.526 . S
C1706 C1707 1.396 . S
C1706 C1711 1.390 . S
C1707 C1701 1.465 . S
C1707 C1706 1.396 . S
C1707 C1708 1.399 . S
C1708 H1694 0.929 . S
C1708 C1707 1.399 . S
C1708 C1709 1.385 . S
C1709 H1695 0.931 . S
C1709 C1708 1.385 . S
C1709 C1710 1.389 . S
C1710 C1709 1.389 . S
C1710 C1711 1.387 . S
C1711 H1696 0.930 . S
C1711 C1706 1.390 . S
C1711 C1710 1.387 . S
H1712 C1724 0.930 . S
H1713 C1726 0.930 . S
H1714 C1727 0.930 . S
H1715 C1731 0.959 . S
H1716 C1731 0.959 . S
H1717 C1731 0.961 . S
H1718 C1732 0.960 . S
H1719 C1732 0.961 . S
H1720 C1732 0.959 . S
H1721 C1735 0.929 . S
H1722 C1736 0.931 . S
H1723 C1738 0.930 . S
C1724 H1712 0.930 . S
C1724 C1725 1.399 . S
C1724 C1729 1.399 . S
C1725 C1724 1.399 . S
C1725 C1726 1.376 . S
C1726 H1713 0.930 . S
C1726 C1725 1.376 . S
C1726 C1727 1.388 . S
C1727 H1714 0.930 . S
C1727 C1726 1.388 . S
C1727 C1728 1.390 . S
C1728 C1727 1.390 . S
C1728 C1729 1.394 . S
C1728 C1734 1.465 . S
C1729 C1724 1.399 . S
C1729 C1728 1.394 . S
C1729 C1730 1.516 . S
C1730 C1729 1.516 . S
C1730 C1731 1.502 . S
C1730 C1732 1.561 . S
C1730 C1733 1.526 . S
C1731 H1715 0.959 . S
C1731 H1716 0.959 . S
C1731 H1717 0.961 . S
C1731 C1730 1.502 . S
C1732 H1718 0.960 . S
C1732 H1719 0.961 . S
C1732 H1720 0.959 . S
C1732 C1730 1.561 . S
C1733 C1730 1.526 . S
C1733 C1734 1.396 . S
C1733 C1738 1.390 . S
C1734 C1728 1.465 . S
C1734 C1733 1.396 . S
C1734 C1735 1.399 . S
C1735 H1721 0.929 . S
C1735 C1734 1.399 . S
C1735 C1736 1.385 . S
C1736 H1722 0.931 . S
C1736 C1735 1.385 . S
C1736 C1737 1.389 . S
C1737 C1736 1.389 . S
C1737 C1738 1.387 . S
C1738 H1723 0.930 . S
C1738 C1733 1.390 . S
C1738 C1737 1.387 . S
H1739 C1751 0.930 . S
H1740 C1753 0.930 . S
H1741 C1754 0.930 . S
H1742 C1758 0.959 . S
H1743 C1758 0.959 . S
H1744 C1758 0.961 . S
H1745 C1759 0.960 . S
H1746 C1759 0.961 . S
H1747 C1759 0.959 . S
H1748 C1762 0.929 . S
H1749 C1763 0.931 . S
H1750 C1765 0.930 . S
C1751 H1739 0.930 . S
C1751 C1752 1.399 . S
C1751 C1756 1.399 . S
C1752 C1751 1.399 . S
C1752 C1753 1.376 . S
C1753 H1740 0.930 . S
C1753 C1752 1.376 . S
C1753 C1754 1.388 . S
C1754 H1741 0.930 . S
C1754 C1753 1.388 . S
C1754 C1755 1.390 . S
C1755 C1754 1.390 . S
C1755 C1756 1.394 . S
C1755 C1761 1.465 . S
C1756 C1751 1.399 . S
C1756 C1755 1.394 . S
C1756 C1757 1.516 . S
C1757 C1756 1.516 . S
C1757 C1758 1.502 . S
C1757 C1759 1.561 . S
C1757 C1760 1.526 . S
C1758 H1742 0.959 . S
C1758 H1743 0.959 . S
C1758 H1744 0.961 . S
C1758 C1757 1.502 . S
C1759 H1745 0.960 . S
C1759 H1746 0.961 . S
C1759 H1747 0.959 . S
C1759 C1757 1.561 . S
C1760 C1757 1.526 . S
C1760 C1761 1.396 . S
C1760 C1765 1.390 . S
C1761 C1755 1.465 . S
C1761 C1760 1.396 . S
C1761 C1762 1.399 . S
C1762 H1748 0.929 . S
C1762 C1761 1.399 . S
C1762 C1763 1.385 . S
C1763 H1749 0.931 . S
C1763 C1762 1.385 . S
C1763 C1764 1.389 . S
C1764 C1763 1.389 . S
C1764 C1765 1.387 . S
C1765 H1750 0.930 . S
C1765 C1760 1.390 . S
C1765 C1764 1.387 . S
H1766 C1778 0.930 . S
H1767 C1780 0.930 . S
H1768 C1781 0.930 . S
H1769 C1785 0.959 . S
H1770 C1785 0.959 . S
H1771 C1785 0.961 . S
H1772 C1786 0.960 . S
H1773 C1786 0.961 . S
H1774 C1786 0.959 . S
H1775 C1789 0.929 . S
H1776 C1790 0.931 . S
H1777 C1792 0.930 . S
C1778 H1766 0.930 . S
C1778 C1779 1.399 . S
C1778 C1783 1.399 . S
C1779 C1778 1.399 . S
C1779 C1780 1.376 . S
C1780 H1767 0.930 . S
C1780 C1779 1.376 . S
C1780 C1781 1.388 . S
C1781 H1768 0.930 . S
C1781 C1780 1.388 . S
C1781 C1782 1.390 . S
C1782 C1781 1.390 . S
C1782 C1783 1.394 . S
C1782 C1788 1.465 . S
C1783 C1778 1.399 . S
C1783 C1782 1.394 . S
C1783 C1784 1.516 . S
C1784 C1783 1.516 . S
C1784 C1785 1.502 . S
C1784 C1786 1.561 . S
C1784 C1787 1.526 . S
C1785 H1769 0.959 . S
C1785 H1770 0.959 . S
C1785 H1771 0.961 . S
C1785 C1784 1.502 . S
C1786 H1772 0.960 . S
C1786 H1773 0.961 . S
C1786 H1774 0.959 . S
C1786 C1784 1.561 . S
C1787 C1784 1.526 . S
C1787 C1788 1.396 . S
C1787 C1792 1.390 . S
C1788 C1782 1.465 . S
C1788 C1787 1.396 . S
C1788 C1789 1.399 . S
C1789 H1775 0.929 . S
C1789 C1788 1.399 . S
C1789 C1790 1.385 . S
C1790 H1776 0.931 . S
C1790 C1789 1.385 . S
C1790 C1791 1.389 . S
C1791 C1790 1.389 . S
C1791 C1792 1.387 . S
C1792 H1777 0.930 . S
C1792 C1787 1.390 . S
C1792 C1791 1.387 . S
H1793 C1805 0.930 . S
H1794 C1807 0.930 . S
H1795 C1808 0.930 . S
H1796 C1812 0.959 . S
H1797 C1812 0.959 . S
H1798 C1812 0.961 . S
H1799 C1813 0.960 . S
H1800 C1813 0.961 . S
H1801 C1813 0.959 . S
H1802 C1816 0.929 . S
H1803 C1817 0.931 . S
H1804 C1819 0.930 . S
C1805 H1793 0.930 . S
C1805 C1806 1.399 . S
C1805 C1810 1.399 . S
C1806 C1805 1.399 . S
C1806 C1807 1.376 . S
C1807 H1794 0.930 . S
C1807 C1806 1.376 . S
C1807 C1808 1.388 . S
C1808 H1795 0.930 . S
C1808 C1807 1.388 . S
C1808 C1809 1.390 . S
C1809 C1808 1.390 . S
C1809 C1810 1.394 . S
C1809 C1815 1.465 . S
C1810 C1805 1.399 . S
C1810 C1809 1.394 . S
C1810 C1811 1.516 . S
C1811 C1810 1.516 . S
C1811 C1812 1.502 . S
C1811 C1813 1.561 . S
C1811 C1814 1.526 . S
C1812 H1796 0.959 . S
C1812 H1797 0.959 . S
C1812 H1798 0.961 . S
C1812 C1811 1.502 . S
C1813 H1799 0.960 . S
C1813 H1800 0.961 . S
C1813 H1801 0.959 . S
C1813 C1811 1.561 . S
C1814 C1811 1.526 . S
C1814 C1815 1.396 . S
C1814 C1819 1.390 . S
C1815 C1809 1.465 . S
C1815 C1814 1.396 . S
C1815 C1816 1.399 . S
C1816 H1802 0.929 . S
C1816 C1815 1.399 . S
C1816 C1817 1.385 . S
C1817 H1803 0.931 . S
C1817 C1816 1.385 . S
C1817 C1818 1.389 . S
C1818 C1817 1.389 . S
C1818 C1819 1.387 . S
C1819 H1804 0.930 . S
C1819 C1814 1.390 . S
C1819 C1818 1.387 . S
H1820 C1832 0.930 . S
H1821 C1834 0.930 . S
H1822 C1835 0.930 . S
H1823 C1839 0.959 . S
H1824 C1839 0.959 . S
H1825 C1839 0.961 . S
H1826 C1840 0.960 . S
H1827 C1840 0.961 . S
H1828 C1840 0.959 1_545 S
H1829 C1843 0.929 . S
H1830 C1844 0.931 . S
H1831 C1846 0.930 . S
C1832 H1820 0.930 . S
C1832 C1833 1.399 . S
C1832 C1837 1.399 . S
C1833 C1832 1.399 . S
C1833 C1834 1.376 1_565 S
C1834 H1821 0.930 . S
C1834 C1833 1.376 1_545 S
C1834 C1835 1.388 . S
C1835 H1822 0.930 . S
C1835 C1834 1.388 . S
C1835 C1836 1.409 . S
C1836 C1835 1.409 . S
C1836 C1837 1.371 1_545 S
C1836 C1842 1.465 . S
C1837 C1832 1.399 . S
C1837 C1836 1.371 1_565 S
C1837 C1838 1.516 . S
C1838 C1837 1.516 . S
C1838 C1839 1.502 . S
C1838 C1840 1.561 . S
C1838 C1841 1.526 . S
C1839 H1823 0.959 . S
C1839 H1824 0.959 . S
C1839 H1825 0.961 . S
C1839 C1838 1.502 . S
C1840 H1826 0.960 . S
C1840 H1827 0.961 . S
C1840 H1828 0.959 1_565 S
C1840 C1838 1.561 . S
C1841 C1838 1.526 . S
C1841 C1842 1.382 1_565 S
C1841 C1846 1.390 . S
C1842 C1836 1.465 . S
C1842 C1841 1.382 1_545 S
C1842 C1843 1.410 . S
C1843 H1829 0.929 . S
C1843 C1842 1.410 . S
C1843 C1844 1.385 . S
C1844 H1830 0.931 . S
C1844 C1843 1.385 . S
C1844 C1845 1.389 1_545 S
C1845 C1844 1.389 1_565 S
C1845 C1846 1.387 . S
C1846 H1831 0.930 . S
C1846 C1841 1.390 . S
C1846 C1845 1.387 . S
H1847 C1859 0.930 . S
H1848 C1861 0.930 . S
H1849 C1862 0.930 . S
H1850 C1866 0.959 . S
H1851 C1866 0.959 . S
H1852 C1866 0.961 . S
H1853 C1867 0.960 . S
H1854 C1867 0.961 . S
H1855 C1867 0.959 . S
H1856 C1870 0.929 . S
H1857 C1871 0.931 . S
H1858 C1873 0.930 . S
C1859 H1847 0.930 . S
C1859 C1860 1.399 . S
C1859 C1864 1.399 . S
C1860 C1859 1.399 . S
C1860 C1861 1.376 . S
C1861 H1848 0.930 . S
C1861 C1860 1.376 . S
C1861 C1862 1.388 . S
C1862 H1849 0.930 . S
C1862 C1861 1.388 . S
C1862 C1863 1.390 . S
C1863 C1862 1.390 . S
C1863 C1864 1.394 . S
C1863 C1869 1.465 . S
C1864 C1859 1.399 . S
C1864 C1863 1.394 . S
C1864 C1865 1.516 . S
C1865 C1864 1.516 . S
C1865 C1866 1.502 . S
C1865 C1867 1.561 . S
C1865 C1868 1.526 . S
C1866 H1850 0.959 . S
C1866 H1851 0.959 . S
C1866 H1852 0.961 . S
C1866 C1865 1.502 . S
C1867 H1853 0.960 . S
C1867 H1854 0.961 . S
C1867 H1855 0.959 . S
C1867 C1865 1.561 . S
C1868 C1865 1.526 . S
C1868 C1869 1.396 . S
C1868 C1873 1.390 . S
C1869 C1863 1.465 . S
C1869 C1868 1.396 . S
C1869 C1870 1.399 . S
C1870 H1856 0.929 . S
C1870 C1869 1.399 . S
C1870 C1871 1.385 . S
C1871 H1857 0.931 . S
C1871 C1870 1.385 . S
C1871 C1872 1.389 . S
C1872 C1871 1.389 . S
C1872 C1873 1.387 . S
C1873 H1858 0.930 . S
C1873 C1868 1.390 . S
C1873 C1872 1.387 . S
H1874 C1886 0.930 . S
H1875 C1888 0.930 . S
H1876 C1889 0.930 . S
H1877 C1893 0.959 . S
H1878 C1893 0.959 . S
H1879 C1893 0.961 . S
H1880 C1894 0.960 . S
H1881 C1894 0.961 . S
H1882 C1894 0.959 . S
H1883 C1897 0.929 . S
H1884 C1898 0.931 . S
H1885 C1900 0.930 . S
C1886 H1874 0.930 . S
C1886 C1887 1.399 . S
C1886 C1891 1.399 . S
C1887 C1886 1.399 . S
C1887 C1888 1.376 1_545 S
C1888 H1875 0.930 . S
C1888 C1887 1.376 1_565 S
C1888 C1889 1.388 . S
C1889 H1876 0.930 . S
C1889 C1888 1.388 . S
C1889 C1890 1.390 . S
C1890 C1889 1.390 . S
C1890 C1891 1.394 1_565 S
C1890 C1896 1.465 . S
C1891 C1886 1.399 . S
C1891 C1890 1.394 1_545 S
C1891 C1892 1.516 . S
C1892 C1891 1.516 . S
C1892 C1893 1.502 . S
C1892 C1894 1.561 . S
C1892 C1895 1.526 . S
C1893 H1877 0.959 . S
C1893 H1878 0.959 . S
C1893 H1879 0.961 . S
C1893 C1892 1.502 . S
C1894 H1880 0.960 . S
C1894 H1881 0.961 . S
C1894 H1882 0.959 . S
C1894 C1892 1.561 . S
C1895 C1892 1.526 . S
C1895 C1896 1.396 1_545 S
C1895 C1900 1.390 . S
C1896 C1890 1.465 . S
C1896 C1895 1.396 1_565 S
C1896 C1897 1.399 . S
C1897 H1883 0.929 . S
C1897 C1896 1.399 . S
C1897 C1898 1.385 . S
C1898 H1884 0.931 . S
C1898 C1897 1.385 . S
C1898 C1899 1.389 1_565 S
C1899 C1898 1.389 1_545 S
C1899 C1900 1.387 . S
C1900 H1885 0.930 . S
C1900 C1895 1.390 . S
C1900 C1899 1.387 . S
H1901 C1913 0.930 . S
H1902 C1915 0.930 . S
H1903 C1916 0.930 . S
H1904 C1920 0.959 . S
H1905 C1920 0.959 . S
H1906 C1920 0.961 . S
H1907 C1921 0.960 . S
H1908 C1921 0.961 . S
H1909 C1921 0.959 . S
H1910 C1924 0.929 . S
H1911 C1925 0.931 . S
H1912 C1927 0.930 . S
C1913 H1901 0.930 . S
C1913 C1914 1.399 . S
C1913 C1918 1.399 . S
C1914 C1913 1.399 . S
C1914 C1915 1.376 . S
C1915 H1902 0.930 . S
C1915 C1914 1.376 . S
C1915 C1916 1.388 . S
C1916 H1903 0.930 . S
C1916 C1915 1.388 . S
C1916 C1917 1.390 . S
C1917 C1916 1.390 . S
C1917 C1918 1.394 . S
C1917 C1923 1.465 . S
C1918 C1913 1.399 . S
C1918 C1917 1.394 . S
C1918 C1919 1.516 . S
C1919 C1918 1.516 . S
C1919 C1920 1.502 . S
C1919 C1921 1.561 . S
C1919 C1922 1.526 . S
C1920 H1904 0.959 . S
C1920 H1905 0.959 . S
C1920 H1906 0.961 . S
C1920 C1919 1.502 . S
C1921 H1907 0.960 . S
C1921 H1908 0.961 . S
C1921 H1909 0.959 . S
C1921 C1919 1.561 . S
C1922 C1919 1.526 . S
C1922 C1923 1.396 . S
C1922 C1927 1.390 . S
C1923 C1917 1.465 . S
C1923 C1922 1.396 . S
C1923 C1924 1.399 . S
C1924 H1910 0.929 . S
C1924 C1923 1.399 . S
C1924 C1925 1.385 . S
C1925 H1911 0.931 . S
C1925 C1924 1.385 . S
C1925 C1926 1.389 . S
C1926 C1925 1.389 . S
C1926 C1927 1.387 . S
C1927 H1912 0.930 . S
C1927 C1922 1.390 . S
C1927 C1926 1.387 . S
H1928 C1940 0.930 . S
H1929 C1942 0.930 . S
H1930 C1943 0.930 . S
H1931 C1947 0.959 . S
H1932 C1947 0.959 . S
H1933 C1947 0.961 . S
H1934 C1948 0.960 . S
H1935 C1948 0.961 . S
H1936 C1948 0.959 . S
H1937 C1951 0.929 . S
H1938 C1952 0.931 . S
H1939 C1954 0.930 . S
C1940 H1928 0.930 . S
C1940 C1941 1.399 . S
C1940 C1945 1.399 . S
C1941 C1940 1.399 . S
C1941 C1942 1.376 . S
C1942 H1929 0.930 . S
C1942 C1941 1.376 . S
C1942 C1943 1.388 . S
C1943 H1930 0.930 . S
C1943 C1942 1.388 . S
C1943 C1944 1.390 . S
C1944 C1943 1.390 . S
C1944 C1945 1.394 . S
C1944 C1950 1.465 . S
C1945 C1940 1.399 . S
C1945 C1944 1.394 . S
C1945 C1946 1.516 . S
C1946 C1945 1.516 . S
C1946 C1947 1.502 . S
C1946 C1948 1.561 . S
C1946 C1949 1.526 . S
C1947 H1931 0.959 . S
C1947 H1932 0.959 . S
C1947 H1933 0.961 . S
C1947 C1946 1.502 . S
C1948 H1934 0.960 . S
C1948 H1935 0.961 . S
C1948 H1936 0.959 . S
C1948 C1946 1.561 . S
C1949 C1946 1.526 . S
C1949 C1950 1.396 . S
C1949 C1954 1.390 . S
C1950 C1944 1.465 . S
C1950 C1949 1.396 . S
C1950 C1951 1.399 . S
C1951 H1937 0.929 . S
C1951 C1950 1.399 . S
C1951 C1952 1.385 . S
C1952 H1938 0.931 . S
C1952 C1951 1.385 . S
C1952 C1953 1.389 . S
C1953 C1952 1.389 . S
C1953 C1954 1.387 . S
C1954 H1939 0.930 . S
C1954 C1949 1.390 . S
C1954 C1953 1.387 . S
H1955 C1967 0.930 . S
H1956 C1969 0.930 . S
H1957 C1970 0.930 . S
H1958 C1974 0.959 . S
H1959 C1974 0.959 . S
H1960 C1974 0.961 . S
H1961 C1975 0.960 . S
H1962 C1975 0.961 . S
H1963 C1975 0.959 . S
H1964 C1978 0.929 . S
H1965 C1979 0.931 . S
H1966 C1981 0.930 . S
C1967 H1955 0.930 . S
C1967 C1968 1.399 . S
C1967 C1972 1.399 . S
C1968 C1967 1.399 . S
C1968 C1969 1.376 . S
C1969 H1956 0.930 . S
C1969 C1968 1.376 . S
C1969 C1970 1.388 . S
C1970 H1957 0.930 . S
C1970 C1969 1.388 . S
C1970 C1971 1.390 . S
C1971 C1970 1.390 . S
C1971 C1972 1.394 . S
C1971 C1977 1.465 . S
C1972 C1967 1.399 . S
C1972 C1971 1.394 . S
C1972 C1973 1.516 . S
C1973 C1972 1.516 . S
C1973 C1974 1.502 . S
C1973 C1975 1.561 . S
C1973 C1976 1.526 . S
C1974 H1958 0.959 . S
C1974 H1959 0.959 . S
C1974 H1960 0.961 . S
C1974 C1973 1.502 . S
C1975 H1961 0.960 . S
C1975 H1962 0.961 . S
C1975 H1963 0.959 . S
C1975 C1973 1.561 . S
C1976 C1973 1.526 . S
C1976 C1977 1.396 . S
C1976 C1981 1.390 . S
C1977 C1971 1.465 . S
C1977 C1976 1.396 . S
C1977 C1978 1.399 . S
C1978 H1964 0.929 . S
C1978 C1977 1.399 . S
C1978 C1979 1.385 . S
C1979 H1965 0.931 . S
C1979 C1978 1.385 . S
C1979 C1980 1.389 . S
C1980 C1979 1.389 . S
C1980 C1981 1.387 . S
C1981 H1966 0.930 . S
C1981 C1976 1.390 . S
C1981 C1980 1.387 . S
H1982 C1994 0.930 . S
H1983 C1996 0.930 . S
H1984 C1997 0.930 . S
H1985 C2001 0.959 . S
H1986 C2001 0.959 . S
H1987 C2001 0.961 . S
H1988 C2002 0.960 . S
H1989 C2002 0.961 . S
H1990 C2002 0.959 . S
H1991 C2005 0.929 . S
H1992 C2006 0.931 . S
H1993 C2008 0.930 . S
C1994 H1982 0.930 . S
C1994 C1995 1.399 . S
C1994 C1999 1.399 . S
C1995 C1994 1.399 . S
C1995 C1996 1.376 . S
C1996 H1983 0.930 . S
C1996 C1995 1.376 . S
C1996 C1997 1.388 . S
C1997 H1984 0.930 . S
C1997 C1996 1.388 . S
C1997 C1998 1.390 . S
C1998 C1997 1.390 . S
C1998 C1999 1.394 . S
C1998 C2004 1.465 . S
C1999 C1994 1.399 . S
C1999 C1998 1.394 . S
C1999 C2000 1.516 . S
C2000 C1999 1.516 . S
C2000 C2001 1.502 . S
C2000 C2002 1.561 . S
C2000 C2003 1.526 . S
C2001 H1985 0.959 . S
C2001 H1986 0.959 . S
C2001 H1987 0.961 . S
C2001 C2000 1.502 . S
C2002 H1988 0.960 . S
C2002 H1989 0.961 . S
C2002 H1990 0.959 . S
C2002 C2000 1.561 . S
C2003 C2000 1.526 . S
C2003 C2004 1.396 . S
C2003 C2008 1.390 . S
C2004 C1998 1.465 . S
C2004 C2003 1.396 . S
C2004 C2005 1.399 . S
C2005 H1991 0.929 . S
C2005 C2004 1.399 . S
C2005 C2006 1.385 . S
C2006 H1992 0.931 . S
C2006 C2005 1.385 . S
C2006 C2007 1.389 . S
C2007 C2006 1.389 . S
C2007 C2008 1.387 . S
C2008 H1993 0.930 . S
C2008 C2003 1.390 . S
C2008 C2007 1.387 . S
H2009 C2021 0.930 . S
H2010 C2023 0.930 . S
H2011 C2024 0.930 . S
H2012 C2028 0.959 . S
H2013 C2028 0.959 . S
H2014 C2028 0.961 . S
H2015 C2029 0.960 . S
H2016 C2029 0.961 . S
H2017 C2029 0.959 . S
H2018 C2032 0.929 . S
H2019 C2033 0.931 . S
H2020 C2035 0.930 . S
C2021 H2009 0.930 . S
C2021 C2022 1.399 . S
C2021 C2026 1.399 . S
C2022 C2021 1.399 . S
C2022 C2023 1.376 . S
C2023 H2010 0.930 . S
C2023 C2022 1.376 . S
C2023 C2024 1.388 . S
C2024 H2011 0.930 . S
C2024 C2023 1.388 . S
C2024 C2025 1.390 . S
C2025 C2024 1.390 . S
C2025 C2026 1.394 . S
C2025 C2031 1.465 . S
C2026 C2021 1.399 . S
C2026 C2025 1.394 . S
C2026 C2027 1.516 . S
C2027 C2026 1.516 . S
C2027 C2028 1.502 . S
C2027 C2029 1.561 . S
C2027 C2030 1.526 . S
C2028 H2012 0.959 . S
C2028 H2013 0.959 . S
C2028 H2014 0.961 . S
C2028 C2027 1.502 . S
C2029 H2015 0.960 . S
C2029 H2016 0.961 . S
C2029 H2017 0.959 . S
C2029 C2027 1.561 . S
C2030 C2027 1.526 . S
C2030 C2031 1.396 . S
C2030 C2035 1.390 . S
C2031 C2025 1.465 . S
C2031 C2030 1.396 . S
C2031 C2032 1.399 . S
C2032 H2018 0.929 . S
C2032 C2031 1.399 . S
C2032 C2033 1.385 . S
C2033 H2019 0.931 . S
C2033 C2032 1.385 . S
C2033 C2034 1.389 . S
C2034 C2033 1.389 . S
C2034 C2035 1.387 . S
C2035 H2020 0.930 . S
C2035 C2030 1.390 . S
C2035 C2034 1.387 . S
H2036 C2048 0.930 . S
H2037 C2050 0.930 . S
H2038 C2051 0.930 . S
H2039 C2055 0.959 . S
H2040 C2055 0.959 . S
H2041 C2055 0.961 . S
H2042 C2056 0.960 . S
H2043 C2056 0.961 . S
H2044 C2056 0.959 . S
H2045 C2059 0.929 . S
H2046 C2060 0.931 . S
H2047 C2062 0.930 . S
C2048 H2036 0.930 . S
C2048 C2049 1.399 . S
C2048 C2053 1.399 . S
C2049 C2048 1.399 . S
C2049 C2050 1.376 1_565 S
C2050 H2037 0.930 . S
C2050 C2049 1.376 1_545 S
C2050 C2051 1.388 . S
C2051 H2038 0.930 . S
C2051 C2050 1.388 . S
C2051 C2052 1.390 . S
C2052 C2051 1.390 . S
C2052 C2053 1.394 1_545 S
C2052 C2058 1.465 . S
C2053 C2048 1.399 . S
C2053 C2052 1.394 1_565 S
C2053 C2054 1.516 . S
C2054 C2053 1.516 . S
C2054 C2055 1.502 . S
C2054 C2056 1.561 . S
C2054 C2057 1.526 . S
C2055 H2039 0.959 . S
C2055 H2040 0.959 . S
C2055 H2041 0.961 . S
C2055 C2054 1.502 . S
C2056 H2042 0.960 . S
C2056 H2043 0.961 . S
C2056 H2044 0.959 . S
C2056 C2054 1.561 . S
C2057 C2054 1.526 . S
C2057 C2058 1.396 1_565 S
C2057 C2062 1.390 . S
C2058 C2052 1.465 . S
C2058 C2057 1.396 1_545 S
C2058 C2059 1.399 . S
C2059 H2045 0.929 . S
C2059 C2058 1.399 . S
C2059 C2060 1.385 . S
C2060 H2046 0.931 . S
C2060 C2059 1.385 . S
C2060 C2061 1.389 1_545 S
C2061 C2060 1.389 1_565 S
C2061 C2062 1.387 . S
C2062 H2047 0.930 . S
C2062 C2057 1.390 . S
C2062 C2061 1.387 . S
H2063 C2075 0.930 . S
H2064 C2077 0.930 . S
H2065 C2078 0.930 . S
H2066 C2082 0.959 . S
H2067 C2082 0.959 . S
H2068 C2082 0.961 . S
H2069 C2083 0.960 . S
H2070 C2083 0.961 . S
H2071 C2083 0.959 . S
H2072 C2086 0.929 . S
H2073 C2087 0.931 . S
H2074 C2089 0.930 . S
C2075 H2063 0.930 . S
C2075 C2076 1.399 . S
C2075 C2080 1.399 . S
C2076 C2075 1.399 . S
C2076 C2077 1.376 . S
C2077 H2064 0.930 . S
C2077 C2076 1.376 . S
C2077 C2078 1.388 . S
C2078 H2065 0.930 . S
C2078 C2077 1.388 . S
C2078 C2079 1.390 . S
C2079 C2078 1.390 . S
C2079 C2080 1.394 . S
C2079 C2085 1.465 . S
C2080 C2075 1.399 . S
C2080 C2079 1.394 . S
C2080 C2081 1.516 . S
C2081 C2080 1.516 . S
C2081 C2082 1.502 . S
C2081 C2083 1.561 . S
C2081 C2084 1.526 . S
C2082 H2066 0.959 . S
C2082 H2067 0.959 . S
C2082 H2068 0.961 . S
C2082 C2081 1.502 . S
C2083 H2069 0.960 . S
C2083 H2070 0.961 . S
C2083 H2071 0.959 . S
C2083 C2081 1.561 . S
C2084 C2081 1.526 . S
C2084 C2085 1.396 . S
C2084 C2089 1.390 . S
C2085 C2079 1.465 . S
C2085 C2084 1.396 . S
C2085 C2086 1.399 . S
C2086 H2072 0.929 . S
C2086 C2085 1.399 . S
C2086 C2087 1.385 . S
C2087 H2073 0.931 . S
C2087 C2086 1.385 . S
C2087 C2088 1.389 . S
C2088 C2087 1.389 . S
C2088 C2089 1.387 . S
C2089 H2074 0.930 . S
C2089 C2084 1.390 . S
C2089 C2088 1.387 . S
H2090 C2102 0.930 . S
H2091 C2104 0.930 . S
H2092 C2105 0.930 . S
H2093 C2109 0.989 . S
H2094 C2109 0.959 . S
H2095 C2109 0.961 . S
H2096 C2110 0.960 . S
H2097 C2110 0.961 . S
H2098 C2110 0.959 . S
H2099 C2113 0.929 . S
H2100 C2114 0.931 . S
H2101 C2116 0.930 . S
C2102 H2090 0.930 . S
C2102 C2103 1.399 1_565 S
C2102 C2107 1.399 . S
C2103 C2102 1.399 1_545 S
C2103 C2104 1.376 . S
C2104 H2091 0.930 . S
C2104 C2103 1.376 . S
C2104 C2105 1.388 . S
C2105 H2092 0.930 . S
C2105 C2104 1.388 . S
C2105 C2106 1.390 . S
C2106 C2105 1.390 . S
C2106 C2107 1.394 1_545 S
C2106 C2112 1.465 . S
C2107 C2102 1.399 . S
C2107 C2106 1.394 1_565 S
C2107 C2108 1.516 . S
C2108 C2107 1.516 . S
C2108 C2109 1.502 . S
C2108 C2110 1.561 . S
C2108 C2111 1.526 . S
C2109 H2093 0.989 . S
C2109 H2094 0.959 . S
C2109 H2095 0.961 . S
C2109 C2108 1.502 . S
C2110 H2096 0.960 . S
C2110 H2097 0.961 . S
C2110 H2098 0.959 . S
C2110 C2108 1.561 . S
C2111 C2108 1.526 . S
C2111 C2112 1.396 1_565 S
C2111 C2116 1.390 . S
C2112 C2106 1.465 . S
C2112 C2111 1.396 1_545 S
C2112 C2113 1.399 . S
C2113 H2099 0.929 . S
C2113 C2112 1.399 . S
C2113 C2114 1.385 . S
C2114 H2100 0.931 . S
C2114 C2113 1.385 . S
C2114 C2115 1.389 . S
C2115 C2114 1.389 . S
C2115 C2116 1.387 1_545 S
C2116 H2101 0.930 . S
C2116 C2111 1.390 . S
C2116 C2115 1.387 1_565 S
H2117 C2129 0.930 . S
H2118 C2131 0.930 . S
H2119 C2132 0.930 . S
H2120 C2136 0.959 . S
H2121 C2136 0.959 . S
H2122 C2136 0.961 . S
H2123 C2137 0.960 . S
H2124 C2137 0.961 . S
H2125 C2137 0.959 . S
H2126 C2140 0.929 . S
H2127 C2141 0.931 . S
H2128 C2143 0.930 . S
C2129 H2117 0.930 . S
C2129 C2130 1.399 . S
C2129 C2134 1.399 . S
C2130 C2129 1.399 . S
C2130 C2131 1.376 . S
C2131 H2118 0.930 . S
C2131 C2130 1.376 . S
C2131 C2132 1.388 . S
C2132 H2119 0.930 . S
C2132 C2131 1.388 . S
C2132 C2133 1.390 . S
C2133 C2132 1.390 . S
C2133 C2134 1.394 . S
C2133 C2139 1.465 . S
C2134 C2129 1.399 . S
C2134 C2133 1.394 . S
C2134 C2135 1.516 . S
C2135 C2134 1.516 . S
C2135 C2136 1.502 . S
C2135 C2137 1.561 . S
C2135 C2138 1.526 . S
C2136 H2120 0.959 . S
C2136 H2121 0.959 . S
C2136 H2122 0.961 . S
C2136 C2135 1.502 . S
C2137 H2123 0.960 . S
C2137 H2124 0.961 . S
C2137 H2125 0.959 . S
C2137 C2135 1.561 . S
C2138 C2135 1.526 . S
C2138 C2139 1.396 . S
C2138 C2143 1.390 . S
C2139 C2133 1.465 . S
C2139 C2138 1.396 . S
C2139 C2140 1.399 . S
C2140 H2126 0.929 . S
C2140 C2139 1.399 . S
C2140 C2141 1.385 . S
C2141 H2127 0.931 . S
C2141 C2140 1.385 . S
C2141 C2142 1.389 . S
C2142 C2141 1.389 . S
C2142 C2143 1.387 . S
C2143 H2128 0.930 . S
C2143 C2138 1.390 . S
C2143 C2142 1.387 . S
H2144 C2156 0.930 . S
H2145 C2158 0.930 . S
H2146 C2159 0.930 . S
H2147 C2163 0.959 . S
H2148 C2163 0.959 . S
H2149 C2163 0.961 . S
H2150 C2164 0.960 . S
H2151 C2164 0.961 . S
H2152 C2164 0.959 . S
H2153 C2167 0.929 . S
H2154 C2168 0.931 . S
H2155 C2170 0.930 . S
C2156 H2144 0.930 . S
C2156 C2157 1.399 . S
C2156 C2161 1.399 . S
C2157 C2156 1.399 . S
C2157 C2158 1.376 . S
C2158 H2145 0.930 . S
C2158 C2157 1.376 . S
C2158 C2159 1.388 . S
C2159 H2146 0.930 . S
C2159 C2158 1.388 . S
C2159 C2160 1.390 . S
C2160 C2159 1.390 . S
C2160 C2161 1.394 . S
C2160 C2166 1.465 . S
C2161 C2156 1.399 . S
C2161 C2160 1.394 . S
C2161 C2162 1.516 . S
C2162 C2161 1.516 . S
C2162 C2163 1.502 . S
C2162 C2164 1.561 . S
C2162 C2165 1.526 . S
C2163 H2147 0.959 . S
C2163 H2148 0.959 . S
C2163 H2149 0.961 . S
C2163 C2162 1.502 . S
C2164 H2150 0.960 . S
C2164 H2151 0.961 . S
C2164 H2152 0.959 . S
C2164 C2162 1.561 . S
C2165 C2162 1.526 . S
C2165 C2166 1.396 . S
C2165 C2170 1.390 . S
C2166 C2160 1.465 . S
C2166 C2165 1.396 . S
C2166 C2167 1.399 . S
C2167 H2153 0.929 . S
C2167 C2166 1.399 . S
C2167 C2168 1.385 . S
C2168 H2154 0.931 . S
C2168 C2167 1.385 . S
C2168 C2169 1.389 . S
C2169 C2168 1.389 . S
C2169 C2170 1.387 . S
C2170 H2155 0.930 . S
C2170 C2165 1.390 . S
C2170 C2169 1.387 . S
H2171 C2183 0.930 . S
H2172 C2185 0.930 . S
H2173 C2186 0.930 . S
H2174 C2190 0.959 . S
H2175 C2190 0.959 . S
H2176 C2190 0.961 . S
H2177 C2191 0.960 . S
H2178 C2191 0.961 . S
H2179 C2191 0.959 . S
H2180 C2194 0.929 . S
H2181 C2195 0.931 . S
H2182 C2197 0.930 . S
C2183 H2171 0.930 . S
C2183 C2184 1.399 . S
C2183 C2188 1.399 . S
C2184 C2183 1.399 . S
C2184 C2185 1.376 . S
C2185 H2172 0.930 . S
C2185 C2184 1.376 . S
C2185 C2186 1.388 . S
C2186 H2173 0.930 . S
C2186 C2185 1.388 . S
C2186 C2187 1.390 . S
C2187 C2186 1.390 . S
C2187 C2188 1.394 . S
C2187 C2193 1.465 . S
C2188 C2183 1.399 . S
C2188 C2187 1.394 . S
C2188 C2189 1.516 . S
C2189 C2188 1.516 . S
C2189 C2190 1.502 . S
C2189 C2191 1.561 . S
C2189 C2192 1.526 . S
C2190 H2174 0.959 . S
C2190 H2175 0.959 . S
C2190 H2176 0.961 . S
C2190 C2189 1.502 . S
C2191 H2177 0.960 . S
C2191 H2178 0.961 . S
C2191 H2179 0.959 . S
C2191 C2189 1.561 . S
C2192 C2189 1.526 . S
C2192 C2193 1.396 . S
C2192 C2197 1.390 . S
C2193 C2187 1.465 . S
C2193 C2192 1.396 . S
C2193 C2194 1.399 . S
C2194 H2180 0.929 . S
C2194 C2193 1.399 . S
C2194 C2195 1.385 . S
C2195 H2181 0.931 . S
C2195 C2194 1.385 . S
C2195 C2196 1.389 . S
C2196 C2195 1.389 . S
C2196 C2197 1.387 . S
C2197 H2182 0.930 . S
C2197 C2192 1.390 . S
C2197 C2196 1.387 . S
H2198 C2210 0.930 . S
H2199 C2212 0.930 . S
H2200 C2213 0.930 . S
H2201 C2217 0.959 . S
H2202 C2217 0.959 . S
H2203 C2217 0.961 . S
H2204 C2218 0.960 . S
H2205 C2218 0.961 . S
H2206 C2218 0.959 . S
H2207 C2221 0.929 . S
H2208 C2222 0.931 . S
H2209 C2224 0.930 . S
C2210 H2198 0.930 . S
C2210 C2211 1.399 . S
C2210 C2215 1.399 . S
C2211 C2210 1.399 . S
C2211 C2212 1.376 . S
C2212 H2199 0.930 . S
C2212 C2211 1.376 . S
C2212 C2213 1.388 . S
C2213 H2200 0.930 . S
C2213 C2212 1.388 . S
C2213 C2214 1.390 . S
C2214 C2213 1.390 . S
C2214 C2215 1.394 . S
C2214 C2220 1.465 . S
C2215 C2210 1.399 . S
C2215 C2214 1.394 . S
C2215 C2216 1.516 . S
C2216 C2215 1.516 . S
C2216 C2217 1.502 . S
C2216 C2218 1.561 . S
C2216 C2219 1.526 . S
C2217 H2201 0.959 . S
C2217 H2202 0.959 . S
C2217 H2203 0.961 . S
C2217 C2216 1.502 . S
C2218 H2204 0.960 . S
C2218 H2205 0.961 . S
C2218 H2206 0.959 . S
C2218 C2216 1.561 . S
C2219 C2216 1.526 . S
C2219 C2220 1.396 . S
C2219 C2224 1.390 . S
C2220 C2214 1.465 . S
C2220 C2219 1.396 . S
C2220 C2221 1.399 . S
C2221 H2207 0.929 . S
C2221 C2220 1.399 . S
C2221 C2222 1.385 . S
C2222 H2208 0.931 . S
C2222 C2221 1.385 . S
C2222 C2223 1.389 . S
C2223 C2222 1.389 . S
C2223 C2224 1.387 . S
C2224 H2209 0.930 . S
C2224 C2219 1.390 . S
C2224 C2223 1.387 . S
H2225 C2237 0.930 . S
H2226 C2239 0.930 . S
H2227 C2240 0.930 . S
H2228 C2244 0.959 . S
H2229 C2244 0.959 . S
H2230 C2244 0.961 . S
H2231 C2245 0.960 . S
H2232 C2245 0.961 . S
H2233 C2245 0.959 . S
H2234 C2248 0.929 . S
H2235 C2249 0.931 . S
H2236 C2251 0.930 . S
C2237 H2225 0.930 . S
C2237 C2238 1.399 . S
C2237 C2242 1.399 . S
C2238 C2237 1.399 . S
C2238 C2239 1.376 . S
C2239 H2226 0.930 . S
C2239 C2238 1.376 . S
C2239 C2240 1.388 . S
C2240 H2227 0.930 . S
C2240 C2239 1.388 . S
C2240 C2241 1.390 . S
C2241 C2240 1.390 . S
C2241 C2242 1.394 . S
C2241 C2247 1.465 . S
C2242 C2237 1.399 . S
C2242 C2241 1.394 . S
C2242 C2243 1.516 . S
C2243 C2242 1.516 . S
C2243 C2244 1.502 . S
C2243 C2245 1.561 . S
C2243 C2246 1.526 . S
C2244 H2228 0.959 . S
C2244 H2229 0.959 . S
C2244 H2230 0.961 . S
C2244 C2243 1.502 . S
C2245 H2231 0.960 . S
C2245 H2232 0.961 . S
C2245 H2233 0.959 . S
C2245 C2243 1.561 . S
C2246 C2243 1.526 . S
C2246 C2247 1.396 . S
C2246 C2251 1.390 . S
C2247 C2241 1.465 . S
C2247 C2246 1.396 . S
C2247 C2248 1.399 . S
C2248 H2234 0.929 . S
C2248 C2247 1.399 . S
C2248 C2249 1.385 . S
C2249 H2235 0.931 . S
C2249 C2248 1.385 . S
C2249 C2250 1.389 . S
C2250 C2249 1.389 . S
C2250 C2251 1.387 . S
C2251 H2236 0.930 . S
C2251 C2246 1.390 . S
C2251 C2250 1.387 . S
H2252 C2264 0.930 . S
H2253 C2266 0.930 . S
H2254 C2267 0.930 . S
H2255 C2271 0.959 . S
H2256 C2271 0.959 . S
H2257 C2271 0.961 . S
H2258 C2272 0.960 . S
H2259 C2272 0.961 . S
H2260 C2272 0.959 . S
H2261 C2275 0.929 . S
H2262 C2276 0.931 . S
H2263 C2278 0.930 . S
C2264 H2252 0.930 . S
C2264 C2265 1.399 . S
C2264 C2269 1.399 . S
C2265 C2264 1.399 . S
C2265 C2266 1.376 . S
C2266 H2253 0.930 . S
C2266 C2265 1.376 . S
C2266 C2267 1.388 . S
C2267 H2254 0.930 . S
C2267 C2266 1.388 . S
C2267 C2268 1.390 . S
C2268 C2267 1.390 . S
C2268 C2269 1.394 . S
C2268 C2274 1.465 . S
C2269 C2264 1.399 . S
C2269 C2268 1.394 . S
C2269 C2270 1.516 . S
C2270 C2269 1.516 . S
C2270 C2271 1.502 . S
C2270 C2272 1.561 . S
C2270 C2273 1.526 . S
C2271 H2255 0.959 . S
C2271 H2256 0.959 . S
C2271 H2257 0.961 . S
C2271 C2270 1.502 . S
C2272 H2258 0.960 . S
C2272 H2259 0.961 . S
C2272 H2260 0.959 . S
C2272 C2270 1.561 . S
C2273 C2270 1.526 . S
C2273 C2274 1.396 . S
C2273 C2278 1.390 . S
C2274 C2268 1.465 . S
C2274 C2273 1.396 . S
C2274 C2275 1.399 . S
C2275 H2261 0.929 . S
C2275 C2274 1.399 . S
C2275 C2276 1.385 . S
C2276 H2262 0.931 . S
C2276 C2275 1.385 . S
C2276 C2277 1.389 . S
C2277 C2276 1.389 . S
C2277 C2278 1.387 . S
C2278 H2263 0.930 . S
C2278 C2273 1.390 . S
C2278 C2277 1.387 . S
H2279 C2291 0.930 . S
H2280 C2293 0.930 . S
H2281 C2294 0.930 . S
H2282 C2298 0.959 . S
H2283 C2298 0.959 . S
H2284 C2298 0.961 . S
H2285 C2299 0.960 . S
H2286 C2299 0.961 . S
H2287 C2299 0.959 . S
H2288 C2302 0.929 . S
H2289 C2303 0.931 . S
H2290 C2305 0.930 . S
C2291 H2279 0.930 . S
C2291 C2292 1.399 . S
C2291 C2296 1.399 . S
C2292 C2291 1.399 . S
C2292 C2293 1.376 . S
C2293 H2280 0.930 . S
C2293 C2292 1.376 . S
C2293 C2294 1.388 . S
C2294 H2281 0.930 . S
C2294 C2293 1.388 . S
C2294 C2295 1.390 . S
C2295 C2294 1.390 . S
C2295 C2296 1.394 . S
C2295 C2301 1.465 . S
C2296 C2291 1.399 . S
C2296 C2295 1.394 . S
C2296 C2297 1.516 . S
C2297 C2296 1.516 . S
C2297 C2298 1.502 . S
C2297 C2299 1.561 . S
C2297 C2300 1.526 . S
C2298 H2282 0.959 . S
C2298 H2283 0.959 . S
C2298 H2284 0.961 . S
C2298 C2297 1.502 . S
C2299 H2285 0.960 . S
C2299 H2286 0.961 . S
C2299 H2287 0.959 . S
C2299 C2297 1.561 . S
C2300 C2297 1.526 . S
C2300 C2301 1.396 . S
C2300 C2305 1.390 . S
C2301 C2295 1.465 . S
C2301 C2300 1.396 . S
C2301 C2302 1.399 . S
C2302 H2288 0.929 . S
C2302 C2301 1.399 . S
C2302 C2303 1.385 . S
C2303 H2289 0.931 . S
C2303 C2302 1.385 . S
C2303 C2304 1.389 . S
C2304 C2303 1.389 . S
C2304 C2305 1.387 . S
C2305 H2290 0.930 . S
C2305 C2300 1.390 . S
C2305 C2304 1.387 . S
H2306 C2318 0.930 . S
H2307 C2320 0.930 . S
H2308 C2321 0.930 . S
H2309 C2325 0.959 . S
H2310 C2325 0.959 . S
H2311 C2325 0.961 . S
H2312 C2326 0.960 . S
H2313 C2326 0.961 . S
H2314 C2326 0.959 . S
H2315 C2329 0.929 . S
H2316 C2330 0.931 . S
H2317 C2332 0.930 . S
C2318 H2306 0.930 . S
C2318 C2319 1.399 . S
C2318 C2323 1.399 . S
C2319 C2318 1.399 . S
C2319 C2320 1.376 . S
C2320 H2307 0.930 . S
C2320 C2319 1.376 . S
C2320 C2321 1.388 . S
C2321 H2308 0.930 . S
C2321 C2320 1.388 . S
C2321 C2322 1.390 . S
C2322 C2321 1.390 . S
C2322 C2323 1.394 . S
C2322 C2328 1.465 . S
C2323 C2318 1.399 . S
C2323 C2322 1.394 . S
C2323 C2324 1.516 . S
C2324 C2323 1.516 . S
C2324 C2325 1.502 . S
C2324 C2326 1.561 . S
C2324 C2327 1.526 . S
C2325 H2309 0.959 . S
C2325 H2310 0.959 . S
C2325 H2311 0.961 . S
C2325 C2324 1.502 . S
C2326 H2312 0.960 . S
C2326 H2313 0.961 . S
C2326 H2314 0.959 . S
C2326 C2324 1.561 . S
C2327 C2324 1.526 . S
C2327 C2328 1.396 . S
C2327 C2332 1.390 . S
C2328 C2322 1.465 . S
C2328 C2327 1.396 . S
C2328 C2329 1.399 . S
C2329 H2315 0.929 . S
C2329 C2328 1.399 . S
C2329 C2330 1.385 . S
C2330 H2316 0.931 . S
C2330 C2329 1.385 . S
C2330 C2331 1.389 . S
C2331 C2330 1.389 . S
C2331 C2332 1.387 . S
C2332 H2317 0.930 . S
C2332 C2327 1.390 . S
C2332 C2331 1.387 . S
H2333 C2345 0.930 . S
H2334 C2347 0.930 . S
H2335 C2348 0.930 . S
H2336 C2352 0.959 . S
H2337 C2352 0.959 . S
H2338 C2352 0.961 . S
H2339 C2353 0.960 . S
H2340 C2353 0.961 . S
H2341 C2353 0.959 . S
H2342 C2356 0.929 . S
H2343 C2357 0.931 . S
H2344 C2359 0.930 . S
C2345 H2333 0.930 . S
C2345 C2346 1.399 . S
C2345 C2350 1.399 . S
C2346 C2345 1.399 . S
C2346 C2347 1.376 . S
C2347 H2334 0.930 . S
C2347 C2346 1.376 . S
C2347 C2348 1.388 . S
C2348 H2335 0.930 . S
C2348 C2347 1.388 . S
C2348 C2349 1.390 . S
C2349 C2348 1.390 . S
C2349 C2350 1.394 . S
C2349 C2355 1.465 . S
C2350 C2345 1.399 . S
C2350 C2349 1.394 . S
C2350 C2351 1.516 . S
C2351 C2350 1.516 . S
C2351 C2352 1.502 . S
C2351 C2353 1.561 . S
C2351 C2354 1.526 . S
C2352 H2336 0.959 . S
C2352 H2337 0.959 . S
C2352 H2338 0.961 . S
C2352 C2351 1.502 . S
C2353 H2339 0.960 . S
C2353 H2340 0.961 . S
C2353 H2341 0.959 . S
C2353 C2351 1.561 . S
C2354 C2351 1.526 . S
C2354 C2355 1.396 . S
C2354 C2359 1.390 . S
C2355 C2349 1.465 . S
C2355 C2354 1.396 . S
C2355 C2356 1.399 . S
C2356 H2342 0.929 . S
C2356 C2355 1.399 . S
C2356 C2357 1.385 . S
C2357 H2343 0.931 . S
C2357 C2356 1.385 . S
C2357 C2358 1.389 . S
C2358 C2357 1.389 . S
C2358 C2359 1.387 . S
C2359 H2344 0.930 . S
C2359 C2354 1.390 . S
C2359 C2358 1.387 . S
H2360 C2372 0.930 . S
H2361 C2374 0.930 . S
H2362 C2375 0.930 . S
H2363 C2379 0.959 . S
H2364 C2379 0.959 . S
H2365 C2379 0.961 . S
H2366 C2380 0.960 . S
H2367 C2380 0.961 . S
H2368 C2380 0.959 . S
H2369 C2383 0.929 . S
H2370 C2384 0.931 . S
H2371 C2386 0.930 . S
C2372 H2360 0.930 . S
C2372 C2373 1.399 . S
C2372 C2377 1.399 . S
C2373 C2372 1.399 . S
C2373 C2374 1.376 . S
C2374 H2361 0.930 . S
C2374 C2373 1.376 . S
C2374 C2375 1.388 . S
C2375 H2362 0.930 . S
C2375 C2374 1.388 . S
C2375 C2376 1.390 . S
C2376 C2375 1.390 . S
C2376 C2377 1.394 . S
C2376 C2382 1.465 . S
C2377 C2372 1.399 . S
C2377 C2376 1.394 . S
C2377 C2378 1.516 . S
C2378 C2377 1.516 . S
C2378 C2379 1.502 . S
C2378 C2380 1.561 . S
C2378 C2381 1.526 . S
C2379 H2363 0.959 . S
C2379 H2364 0.959 . S
C2379 H2365 0.961 . S
C2379 C2378 1.502 . S
C2380 H2366 0.960 . S
C2380 H2367 0.961 . S
C2380 H2368 0.959 . S
C2380 C2378 1.561 . S
C2381 C2378 1.526 . S
C2381 C2382 1.396 . S
C2381 C2386 1.390 . S
C2382 C2376 1.465 . S
C2382 C2381 1.396 . S
C2382 C2383 1.399 . S
C2383 H2369 0.929 . S
C2383 C2382 1.399 . S
C2383 C2384 1.385 . S
C2384 H2370 0.931 . S
C2384 C2383 1.385 . S
C2384 C2385 1.389 . S
C2385 C2384 1.389 . S
C2385 C2386 1.387 . S
C2386 H2371 0.930 . S
C2386 C2381 1.390 . S
C2386 C2385 1.387 . S
H2387 C2399 0.930 . S
H2388 C2401 0.930 . S
H2389 C2402 0.930 . S
H2390 C2406 0.959 . S
H2391 C2406 0.959 . S
H2392 C2406 0.961 . S
H2393 C2407 0.960 . S
H2394 C2407 0.961 . S
H2395 C2407 0.959 . S
H2396 C2410 0.929 . S
H2397 C2411 0.931 . S
H2398 C2413 0.930 . S
C2399 H2387 0.930 . S
C2399 C2400 1.399 . S
C2399 C2404 1.399 . S
C2400 C2399 1.399 . S
C2400 C2401 1.376 . S
C2401 H2388 0.930 . S
C2401 C2400 1.376 . S
C2401 C2402 1.388 . S
C2402 H2389 0.930 . S
C2402 C2401 1.388 . S
C2402 C2403 1.390 . S
C2403 C2402 1.390 . S
C2403 C2404 1.394 . S
C2403 C2409 1.465 . S
C2404 C2399 1.399 . S
C2404 C2403 1.394 . S
C2404 C2405 1.516 . S
C2405 C2404 1.516 . S
C2405 C2406 1.502 . S
C2405 C2407 1.561 . S
C2405 C2408 1.526 . S
C2406 H2390 0.959 . S
C2406 H2391 0.959 . S
C2406 H2392 0.961 . S
C2406 C2405 1.502 . S
C2407 H2393 0.960 . S
C2407 H2394 0.961 . S
C2407 H2395 0.959 . S
C2407 C2405 1.561 . S
C2408 C2405 1.526 . S
C2408 C2409 1.396 . S
C2408 C2413 1.390 . S
C2409 C2403 1.465 . S
C2409 C2408 1.396 . S
C2409 C2410 1.399 . S
C2410 H2396 0.929 . S
C2410 C2409 1.399 . S
C2410 C2411 1.385 . S
C2411 H2397 0.931 . S
C2411 C2410 1.385 . S
C2411 C2412 1.389 . S
C2412 C2411 1.389 . S
C2412 C2413 1.387 . S
C2413 H2398 0.930 . S
C2413 C2408 1.390 . S
C2413 C2412 1.387 . S
H2414 C2426 0.930 . S
H2415 C2428 0.930 . S
H2416 C2429 0.930 . S
H2417 C2433 0.959 . S
H2418 C2433 0.959 . S
H2419 C2433 0.961 . S
H2420 C2434 0.960 . S
H2421 C2434 0.961 . S
H2422 C2434 0.959 . S
H2423 C2437 0.929 . S
H2424 C2438 0.931 . S
H2425 C2440 0.930 . S
C2426 H2414 0.930 . S
C2426 C2427 1.399 . S
C2426 C2431 1.399 . S
C2427 C2426 1.399 . S
C2427 C2428 1.376 . S
C2428 H2415 0.930 . S
C2428 C2427 1.376 . S
C2428 C2429 1.388 . S
C2429 H2416 0.930 . S
C2429 C2428 1.388 . S
C2429 C2430 1.390 . S
C2430 C2429 1.390 . S
C2430 C2431 1.394 . S
C2430 C2436 1.465 . S
C2431 C2426 1.399 . S
C2431 C2430 1.394 . S
C2431 C2432 1.516 . S
C2432 C2431 1.516 . S
C2432 C2433 1.502 . S
C2432 C2434 1.561 . S
C2432 C2435 1.526 . S
C2433 H2417 0.959 . S
C2433 H2418 0.959 . S
C2433 H2419 0.961 . S
C2433 C2432 1.502 . S
C2434 H2420 0.960 . S
C2434 H2421 0.961 . S
C2434 H2422 0.959 . S
C2434 C2432 1.561 . S
C2435 C2432 1.526 . S
C2435 C2436 1.396 . S
C2435 C2440 1.390 . S
C2436 C2430 1.465 . S
C2436 C2435 1.396 . S
C2436 C2437 1.399 . S
C2437 H2423 0.929 . S
C2437 C2436 1.399 . S
C2437 C2438 1.385 . S
C2438 H2424 0.931 . S
C2438 C2437 1.385 . S
C2438 C2439 1.389 . S
C2439 C2438 1.389 . S
C2439 C2440 1.387 . S
C2440 H2425 0.930 . S
C2440 C2435 1.390 . S
C2440 C2439 1.387 . S
H2441 C2453 0.930 . S
H2442 C2455 0.930 . S
H2443 C2456 0.930 . S
H2444 C2460 0.959 . S
H2445 C2460 0.959 . S
H2446 C2460 0.961 . S
H2447 C2461 0.960 . S
H2448 C2461 0.961 . S
H2449 C2461 0.959 . S
H2450 C2464 0.929 . S
H2451 C2465 0.931 . S
H2452 C2467 0.930 . S
C2453 H2441 0.930 . S
C2453 C2454 1.399 . S
C2453 C2458 1.399 . S
C2454 C2453 1.399 . S
C2454 C2455 1.376 . S
C2455 H2442 0.930 . S
C2455 C2454 1.376 . S
C2455 C2456 1.388 . S
C2456 H2443 0.930 . S
C2456 C2455 1.388 . S
C2456 C2457 1.390 . S
C2457 C2456 1.390 . S
C2457 C2458 1.394 . S
C2457 C2463 1.465 . S
C2458 C2453 1.399 . S
C2458 C2457 1.394 . S
C2458 C2459 1.516 . S
C2459 C2458 1.516 . S
C2459 C2460 1.502 . S
C2459 C2461 1.561 . S
C2459 C2462 1.526 . S
C2460 H2444 0.959 . S
C2460 H2445 0.959 . S
C2460 H2446 0.961 . S
C2460 C2459 1.502 . S
C2461 H2447 0.960 . S
C2461 H2448 0.961 . S
C2461 H2449 0.959 . S
C2461 C2459 1.561 . S
C2462 C2459 1.526 . S
C2462 C2463 1.396 . S
C2462 C2467 1.390 . S
C2463 C2457 1.465 . S
C2463 C2462 1.396 . S
C2463 C2464 1.399 . S
C2464 H2450 0.929 . S
C2464 C2463 1.399 . S
C2464 C2465 1.385 . S
C2465 H2451 0.931 . S
C2465 C2464 1.385 . S
C2465 C2466 1.389 . S
C2466 C2465 1.389 . S
C2466 C2467 1.387 . S
C2467 H2452 0.930 . S
C2467 C2462 1.390 . S
C2467 C2466 1.387 . S
H2468 C2480 0.930 . S
H2469 C2482 0.930 . S
H2470 C2483 0.930 . S
H2471 C2487 0.959 . S
H2472 C2487 0.959 . S
H2473 C2487 0.961 . S
H2474 C2488 0.960 . S
H2475 C2488 0.961 . S
H2476 C2488 0.959 . S
H2477 C2491 0.929 . S
H2478 C2492 0.931 . S
H2479 C2494 0.930 . S
C2480 H2468 0.930 . S
C2480 C2481 1.399 . S
C2480 C2485 1.399 . S
C2481 C2480 1.399 . S
C2481 C2482 1.376 . S
C2482 H2469 0.930 . S
C2482 C2481 1.376 . S
C2482 C2483 1.388 . S
C2483 H2470 0.930 . S
C2483 C2482 1.388 . S
C2483 C2484 1.390 . S
C2484 C2483 1.390 . S
C2484 C2485 1.394 . S
C2484 C2490 1.465 . S
C2485 C2480 1.399 . S
C2485 C2484 1.394 . S
C2485 C2486 1.516 . S
C2486 C2485 1.516 . S
C2486 C2487 1.502 . S
C2486 C2488 1.561 . S
C2486 C2489 1.526 . S
C2487 H2471 0.959 . S
C2487 H2472 0.959 . S
C2487 H2473 0.961 . S
C2487 C2486 1.502 . S
C2488 H2474 0.960 . S
C2488 H2475 0.961 . S
C2488 H2476 0.959 . S
C2488 C2486 1.561 . S
C2489 C2486 1.526 . S
C2489 C2490 1.396 . S
C2489 C2494 1.390 . S
C2490 C2484 1.465 . S
C2490 C2489 1.396 . S
C2490 C2491 1.399 . S
C2491 H2477 0.929 . S
C2491 C2490 1.399 . S
C2491 C2492 1.385 . S
C2492 H2478 0.931 . S
C2492 C2491 1.385 . S
C2492 C2493 1.389 . S
C2493 C2492 1.389 . S
C2493 C2494 1.387 . S
C2494 H2479 0.930 . S
C2494 C2489 1.390 . S
C2494 C2493 1.387 . S
H2495 C2507 0.930 . S
H2496 C2509 0.930 . S
H2497 C2510 0.930 . S
H2498 C2514 0.959 . S
H2499 C2514 0.959 . S
H2500 C2514 0.961 . S
H2501 C2515 0.960 . S
H2502 C2515 0.961 . S
H2503 C2515 0.959 . S
H2504 C2518 0.929 . S
H2505 C2519 0.931 . S
H2506 C2521 0.930 . S
C2507 H2495 0.930 . S
C2507 C2508 1.399 . S
C2507 C2512 1.399 . S
C2508 C2507 1.399 . S
C2508 C2509 1.376 . S
C2509 H2496 0.930 . S
C2509 C2508 1.376 . S
C2509 C2510 1.388 . S
C2510 H2497 0.930 . S
C2510 C2509 1.388 . S
C2510 C2511 1.390 . S
C2511 C2510 1.390 . S
C2511 C2512 1.394 . S
C2511 C2517 1.465 . S
C2512 C2507 1.399 . S
C2512 C2511 1.394 . S
C2512 C2513 1.516 . S
C2513 C2512 1.516 . S
C2513 C2514 1.502 . S
C2513 C2515 1.561 . S
C2513 C2516 1.526 . S
C2514 H2498 0.959 . S
C2514 H2499 0.959 . S
C2514 H2500 0.961 . S
C2514 C2513 1.502 . S
C2515 H2501 0.960 . S
C2515 H2502 0.961 . S
C2515 H2503 0.959 . S
C2515 C2513 1.561 . S
C2516 C2513 1.526 . S
C2516 C2517 1.396 . S
C2516 C2521 1.390 . S
C2517 C2511 1.465 . S
C2517 C2516 1.396 . S
C2517 C2518 1.399 . S
C2518 H2504 0.929 . S
C2518 C2517 1.399 . S
C2518 C2519 1.385 . S
C2519 H2505 0.931 . S
C2519 C2518 1.385 . S
C2519 C2520 1.389 . S
C2520 C2519 1.389 . S
C2520 C2521 1.387 . S
C2521 H2506 0.930 . S
C2521 C2516 1.390 . S
C2521 C2520 1.387 . S
H2522 C2534 0.930 . S
H2523 C2536 0.930 . S
H2524 C2537 0.930 . S
H2525 C2541 0.959 . S
H2526 C2541 0.959 . S
H2527 C2541 0.961 . S
H2528 C2542 0.960 . S
H2529 C2542 0.961 . S
H2530 C2542 0.959 . S
H2531 C2545 0.929 . S
H2532 C2546 0.931 . S
H2533 C2548 0.930 . S
C2534 H2522 0.930 . S
C2534 C2535 1.399 . S
C2534 C2539 1.399 . S
C2535 C2534 1.399 . S
C2535 C2536 1.376 . S
C2536 H2523 0.930 . S
C2536 C2535 1.376 . S
C2536 C2537 1.388 . S
C2537 H2524 0.930 . S
C2537 C2536 1.388 . S
C2537 C2538 1.390 . S
C2538 C2537 1.390 . S
C2538 C2539 1.394 . S
C2538 C2544 1.465 . S
C2539 C2534 1.399 . S
C2539 C2538 1.394 . S
C2539 C2540 1.516 . S
C2540 C2539 1.516 . S
C2540 C2541 1.502 . S
C2540 C2542 1.561 . S
C2540 C2543 1.526 . S
C2541 H2525 0.959 . S
C2541 H2526 0.959 . S
C2541 H2527 0.961 . S
C2541 C2540 1.502 . S
C2542 H2528 0.960 . S
C2542 H2529 0.961 . S
C2542 H2530 0.959 . S
C2542 C2540 1.561 . S
C2543 C2540 1.526 . S
C2543 C2544 1.396 . S
C2543 C2548 1.390 . S
C2544 C2538 1.465 . S
C2544 C2543 1.396 . S
C2544 C2545 1.399 . S
C2545 H2531 0.929 . S
C2545 C2544 1.399 . S
C2545 C2546 1.385 . S
C2546 H2532 0.931 . S
C2546 C2545 1.385 . S
C2546 C2547 1.389 . S
C2547 C2546 1.389 . S
C2547 C2548 1.387 . S
C2548 H2533 0.930 . S
C2548 C2543 1.390 . S
C2548 C2547 1.387 . S
H2549 C2561 0.930 . S
H2550 C2563 0.930 . S
H2551 C2564 0.930 . S
H2552 C2568 0.959 . S
H2553 C2568 0.959 . S
H2554 C2568 0.961 . S
H2555 C2569 0.960 . S
H2556 C2569 0.961 . S
H2557 C2569 0.959 . S
H2558 C2572 0.929 . S
H2559 C2573 0.931 . S
H2560 C2575 0.930 . S
C2561 H2549 0.930 . S
C2561 C2562 1.399 . S
C2561 C2566 1.399 . S
C2562 C2561 1.399 . S
C2562 C2563 1.376 . S
C2563 H2550 0.930 . S
C2563 C2562 1.376 . S
C2563 C2564 1.388 . S
C2564 H2551 0.930 . S
C2564 C2563 1.388 . S
C2564 C2565 1.390 . S
C2565 C2564 1.390 . S
C2565 C2566 1.394 . S
C2565 C2571 1.465 . S
C2566 C2561 1.399 . S
C2566 C2565 1.394 . S
C2566 C2567 1.516 . S
C2567 C2566 1.516 . S
C2567 C2568 1.502 . S
C2567 C2569 1.561 . S
C2567 C2570 1.526 . S
C2568 H2552 0.959 . S
C2568 H2553 0.959 . S
C2568 H2554 0.961 . S
C2568 C2567 1.502 . S
C2569 H2555 0.960 . S
C2569 H2556 0.961 . S
C2569 H2557 0.959 . S
C2569 C2567 1.561 . S
C2570 C2567 1.526 . S
C2570 C2571 1.396 . S
C2570 C2575 1.390 . S
C2571 C2565 1.465 . S
C2571 C2570 1.396 . S
C2571 C2572 1.399 . S
C2572 H2558 0.929 . S
C2572 C2571 1.399 . S
C2572 C2573 1.385 . S
C2573 H2559 0.931 . S
C2573 C2572 1.385 . S
C2573 C2574 1.389 . S
C2574 C2573 1.389 . S
C2574 C2575 1.387 . S
C2575 H2560 0.930 . S
C2575 C2570 1.390 . S
C2575 C2574 1.387 . S
H2576 C2588 0.930 . S
H2577 C2590 0.930 . S
H2578 C2591 0.930 . S
H2579 C2595 0.959 . S
H2580 C2595 0.959 . S
H2581 C2595 0.961 . S
H2582 C2596 0.960 . S
H2583 C2596 0.961 . S
H2584 C2596 0.959 . S
H2585 C2599 0.929 . S
H2586 C2600 0.931 . S
H2587 C2602 0.930 . S
C2588 H2576 0.930 . S
C2588 C2589 1.399 . S
C2588 C2593 1.399 . S
C2589 C2588 1.399 . S
C2589 C2590 1.376 . S
C2590 H2577 0.930 . S
C2590 C2589 1.376 . S
C2590 C2591 1.388 . S
C2591 H2578 0.930 . S
C2591 C2590 1.388 . S
C2591 C2592 1.390 . S
C2592 C2591 1.390 . S
C2592 C2593 1.394 . S
C2592 C2598 1.465 . S
C2593 C2588 1.399 . S
C2593 C2592 1.394 . S
C2593 C2594 1.516 . S
C2594 C2593 1.516 . S
C2594 C2595 1.502 . S
C2594 C2596 1.561 . S
C2594 C2597 1.526 . S
C2595 H2579 0.959 . S
C2595 H2580 0.959 . S
C2595 H2581 0.961 . S
C2595 C2594 1.502 . S
C2596 H2582 0.960 . S
C2596 H2583 0.961 . S
C2596 H2584 0.959 . S
C2596 C2594 1.561 . S
C2597 C2594 1.526 . S
C2597 C2598 1.396 . S
C2597 C2602 1.390 . S
C2598 C2592 1.465 . S
C2598 C2597 1.396 . S
C2598 C2599 1.399 . S
C2599 H2585 0.929 . S
C2599 C2598 1.399 . S
C2599 C2600 1.385 . S
C2600 H2586 0.931 . S
C2600 C2599 1.385 . S
C2600 C2601 1.389 . S
C2601 C2600 1.389 . S
C2601 C2602 1.387 . S
C2602 H2587 0.930 . S
C2602 C2597 1.390 . S
C2602 C2601 1.387 . S
H2603 C2615 0.930 . S
H2604 C2617 0.930 . S
H2605 C2618 0.930 . S
H2606 C2622 0.959 . S
H2607 C2622 0.959 . S
H2608 C2622 0.961 . S
H2609 C2623 0.960 . S
H2610 C2623 0.961 . S
H2611 C2623 0.959 . S
H2612 C2626 0.929 . S
H2613 C2627 0.931 . S
H2614 C2629 0.930 . S
C2615 H2603 0.930 . S
C2615 C2616 1.399 . S
C2615 C2620 1.399 . S
C2616 C2615 1.399 . S
C2616 C2617 1.376 . S
C2617 H2604 0.930 . S
C2617 C2616 1.376 . S
C2617 C2618 1.388 . S
C2618 H2605 0.930 . S
C2618 C2617 1.388 . S
C2618 C2619 1.390 . S
C2619 C2618 1.390 . S
C2619 C2620 1.394 . S
C2619 C2625 1.465 . S
C2620 C2615 1.399 . S
C2620 C2619 1.394 . S
C2620 C2621 1.516 . S
C2621 C2620 1.516 . S
C2621 C2622 1.502 . S
C2621 C2623 1.561 . S
C2621 C2624 1.526 . S
C2622 H2606 0.959 . S
C2622 H2607 0.959 . S
C2622 H2608 0.961 . S
C2622 C2621 1.502 . S
C2623 H2609 0.960 . S
C2623 H2610 0.961 . S
C2623 H2611 0.959 . S
C2623 C2621 1.561 . S
C2624 C2621 1.526 . S
C2624 C2625 1.396 . S
C2624 C2629 1.390 . S
C2625 C2619 1.465 . S
C2625 C2624 1.396 . S
C2625 C2626 1.399 . S
C2626 H2612 0.929 . S
C2626 C2625 1.399 . S
C2626 C2627 1.385 . S
C2627 H2613 0.931 . S
C2627 C2626 1.385 . S
C2627 C2628 1.389 . S
C2628 C2627 1.389 . S
C2628 C2629 1.387 . S
C2629 H2614 0.930 . S
C2629 C2624 1.390 . S
C2629 C2628 1.387 . S
H2630 C2642 0.930 . S
H2631 C2644 0.930 . S
H2632 C2645 0.930 . S
H2633 C2649 0.959 . S
H2634 C2649 0.959 . S
H2635 C2649 0.961 . S
H2636 C2650 0.960 . S
H2637 C2650 0.961 . S
H2638 C2650 0.959 . S
H2639 C2653 0.929 . S
H2640 C2654 0.931 . S
H2641 C2656 0.930 . S
C2642 H2630 0.930 . S
C2642 C2643 1.399 . S
C2642 C2647 1.399 . S
C2643 C2642 1.399 . S
C2643 C2644 1.376 . S
C2644 H2631 0.930 . S
C2644 C2643 1.376 . S
C2644 C2645 1.388 . S
C2645 H2632 0.930 . S
C2645 C2644 1.388 . S
C2645 C2646 1.390 . S
C2646 C2645 1.390 . S
C2646 C2647 1.394 . S
C2646 C2652 1.465 . S
C2647 C2642 1.399 . S
C2647 C2646 1.394 . S
C2647 C2648 1.516 . S
C2648 C2647 1.516 . S
C2648 C2649 1.502 . S
C2648 C2650 1.561 . S
C2648 C2651 1.526 . S
C2649 H2633 0.959 . S
C2649 H2634 0.959 . S
C2649 H2635 0.961 . S
C2649 C2648 1.502 . S
C2650 H2636 0.960 . S
C2650 H2637 0.961 . S
C2650 H2638 0.959 . S
C2650 C2648 1.561 . S
C2651 C2648 1.526 . S
C2651 C2652 1.396 . S
C2651 C2656 1.390 . S
C2652 C2646 1.465 . S
C2652 C2651 1.396 . S
C2652 C2653 1.399 . S
C2653 H2639 0.929 . S
C2653 C2652 1.399 . S
C2653 C2654 1.385 . S
C2654 H2640 0.931 . S
C2654 C2653 1.385 . S
C2654 C2655 1.389 . S
C2655 C2654 1.389 . S
C2655 C2656 1.387 . S
C2656 H2641 0.930 . S
C2656 C2651 1.390 . S
C2656 C2655 1.387 . S
H2657 C2669 0.930 . S
H2658 C2671 0.930 . S
H2659 C2672 0.930 . S
H2660 C2676 0.959 . S
H2661 C2676 0.959 . S
H2662 C2676 0.961 . S
H2663 C2677 0.960 . S
H2664 C2677 0.961 . S
H2665 C2677 0.959 . S
H2666 C2680 0.929 . S
H2667 C2681 0.931 . S
H2668 C2683 0.930 . S
C2669 H2657 0.930 . S
C2669 C2670 1.399 . S
C2669 C2674 1.399 . S
C2670 C2669 1.399 . S
C2670 C2671 1.376 . S
C2671 H2658 0.930 . S
C2671 C2670 1.376 . S
C2671 C2672 1.388 . S
C2672 H2659 0.930 . S
C2672 C2671 1.388 . S
C2672 C2673 1.390 . S
C2673 C2672 1.390 . S
C2673 C2674 1.394 . S
C2673 C2679 1.465 . S
C2674 C2669 1.399 . S
C2674 C2673 1.394 . S
C2674 C2675 1.516 . S
C2675 C2674 1.516 . S
C2675 C2676 1.502 . S
C2675 C2677 1.561 . S
C2675 C2678 1.526 . S
C2676 H2660 0.959 . S
C2676 H2661 0.959 . S
C2676 H2662 0.961 . S
C2676 C2675 1.502 . S
C2677 H2663 0.960 . S
C2677 H2664 0.961 . S
C2677 H2665 0.959 . S
C2677 C2675 1.561 . S
C2678 C2675 1.526 . S
C2678 C2679 1.396 . S
C2678 C2683 1.390 . S
C2679 C2673 1.465 . S
C2679 C2678 1.396 . S
C2679 C2680 1.399 . S
C2680 H2666 0.929 . S
C2680 C2679 1.399 . S
C2680 C2681 1.385 . S
C2681 H2667 0.931 . S
C2681 C2680 1.385 . S
C2681 C2682 1.389 . S
C2682 C2681 1.389 . S
C2682 C2683 1.387 . S
C2683 H2668 0.930 . S
C2683 C2678 1.390 . S
C2683 C2682 1.387 . S
H2684 C2696 0.930 . S
H2685 C2698 0.930 . S
H2686 C2699 0.930 . S
H2687 C2703 0.959 . S
H2688 C2703 0.959 . S
H2689 C2703 0.961 . S
H2690 C2704 0.960 . S
H2691 C2704 0.961 . S
H2692 C2704 0.959 . S
H2693 C2707 0.929 . S
H2694 C2708 0.931 . S
H2695 C2710 0.930 . S
C2696 H2684 0.930 . S
C2696 C2697 1.399 . S
C2696 C2701 1.399 . S
C2697 C2696 1.399 . S
C2697 C2698 1.376 . S
C2698 H2685 0.930 . S
C2698 C2697 1.376 . S
C2698 C2699 1.388 . S
C2699 H2686 0.930 . S
C2699 C2698 1.388 . S
C2699 C2700 1.390 . S
C2700 C2699 1.390 . S
C2700 C2701 1.394 . S
C2700 C2706 1.465 . S
C2701 C2696 1.399 . S
C2701 C2700 1.394 . S
C2701 C2702 1.516 . S
C2702 C2701 1.516 . S
C2702 C2703 1.502 . S
C2702 C2704 1.561 . S
C2702 C2705 1.526 . S
C2703 H2687 0.959 . S
C2703 H2688 0.959 . S
C2703 H2689 0.961 . S
C2703 C2702 1.502 . S
C2704 H2690 0.960 . S
C2704 H2691 0.961 . S
C2704 H2692 0.959 . S
C2704 C2702 1.561 . S
C2705 C2702 1.526 . S
C2705 C2706 1.396 . S
C2705 C2710 1.390 . S
C2706 C2700 1.465 . S
C2706 C2705 1.396 . S
C2706 C2707 1.399 . S
C2707 H2693 0.929 . S
C2707 C2706 1.399 . S
C2707 C2708 1.385 . S
C2708 H2694 0.931 . S
C2708 C2707 1.385 . S
C2708 C2709 1.389 . S
C2709 C2708 1.389 . S
C2709 C2710 1.387 . S
C2710 H2695 0.930 . S
C2710 C2705 1.390 . S
C2710 C2709 1.387 . S
H2711 C2723 0.930 . S
H2712 C2725 0.930 . S
H2713 C2726 0.930 . S
H2714 C2730 0.959 . S
H2715 C2730 0.959 . S
H2716 C2730 0.961 . S
H2717 C2731 0.960 . S
H2718 C2731 0.961 . S
H2719 C2731 0.959 . S
H2720 C2734 0.929 . S
H2721 C2735 0.931 . S
H2722 C2737 0.930 . S
C2723 H2711 0.930 . S
C2723 C2724 1.399 . S
C2723 C2728 1.399 . S
C2724 C2723 1.399 . S
C2724 C2725 1.376 . S
C2725 H2712 0.930 . S
C2725 C2724 1.376 . S
C2725 C2726 1.388 . S
C2726 H2713 0.930 . S
C2726 C2725 1.388 . S
C2726 C2727 1.390 . S
C2727 C2726 1.390 . S
C2727 C2728 1.394 . S
C2727 C2733 1.465 . S
C2728 C2723 1.399 . S
C2728 C2727 1.394 . S
C2728 C2729 1.516 . S
C2729 C2728 1.516 . S
C2729 C2730 1.502 . S
C2729 C2731 1.561 . S
C2729 C2732 1.526 . S
C2730 H2714 0.959 . S
C2730 H2715 0.959 . S
C2730 H2716 0.961 . S
C2730 C2729 1.502 . S
C2731 H2717 0.960 . S
C2731 H2718 0.961 . S
C2731 H2719 0.959 . S
C2731 C2729 1.561 . S
C2732 C2729 1.526 . S
C2732 C2733 1.396 . S
C2732 C2737 1.390 . S
C2733 C2727 1.465 . S
C2733 C2732 1.396 . S
C2733 C2734 1.399 . S
C2734 H2720 0.929 . S
C2734 C2733 1.399 . S
C2734 C2735 1.385 . S
C2735 H2721 0.931 . S
C2735 C2734 1.385 . S
C2735 C2736 1.389 . S
C2736 C2735 1.389 . S
C2736 C2737 1.387 . S
C2737 H2722 0.930 . S
C2737 C2732 1.390 . S
C2737 C2736 1.387 . S
H2738 C2750 0.930 . S
H2739 C2752 0.930 . S
H2740 C2753 0.930 . S
H2741 C2757 0.959 . S
H2742 C2757 0.959 . S
H2743 C2757 0.961 . S
H2744 C2758 0.960 . S
H2745 C2758 0.961 . S
H2746 C2758 0.959 . S
H2747 C2761 0.929 . S
H2748 C2762 0.931 . S
H2749 C2764 0.930 . S
C2750 H2738 0.930 . S
C2750 C2751 1.399 . S
C2750 C2755 1.399 . S
C2751 C2750 1.399 . S
C2751 C2752 1.376 . S
C2752 H2739 0.930 . S
C2752 C2751 1.376 . S
C2752 C2753 1.388 . S
C2753 H2740 0.930 . S
C2753 C2752 1.388 . S
C2753 C2754 1.390 . S
C2754 C2753 1.390 . S
C2754 C2755 1.394 . S
C2754 C2760 1.465 . S
C2755 C2750 1.399 . S
C2755 C2754 1.394 . S
C2755 C2756 1.516 . S
C2756 C2755 1.516 . S
C2756 C2757 1.502 . S
C2756 C2758 1.561 . S
C2756 C2759 1.526 . S
C2757 H2741 0.959 . S
C2757 H2742 0.959 . S
C2757 H2743 0.961 . S
C2757 C2756 1.502 . S
C2758 H2744 0.960 . S
C2758 H2745 0.961 . S
C2758 H2746 0.959 . S
C2758 C2756 1.561 . S
C2759 C2756 1.526 . S
C2759 C2760 1.396 . S
C2759 C2764 1.390 . S
C2760 C2754 1.465 . S
C2760 C2759 1.396 . S
C2760 C2761 1.399 . S
C2761 H2747 0.929 . S
C2761 C2760 1.399 . S
C2761 C2762 1.385 . S
C2762 H2748 0.931 . S
C2762 C2761 1.385 . S
C2762 C2763 1.389 . S
C2763 C2762 1.389 . S
C2763 C2764 1.387 . S
C2764 H2749 0.930 . S
C2764 C2759 1.390 . S
C2764 C2763 1.387 . S
H2765 C2777 0.930 . S
H2766 C2779 0.930 . S
H2767 C2780 0.930 . S
H2768 C2784 0.959 . S
H2769 C2784 0.959 . S
H2770 C2784 0.961 . S
H2771 C2785 0.960 . S
H2772 C2785 0.961 . S
H2773 C2785 0.959 . S
H2774 C2788 0.929 . S
H2775 C2789 0.931 . S
H2776 C2791 0.930 . S
C2777 H2765 0.930 . S
C2777 C2778 1.399 . S
C2777 C2782 1.399 . S
C2778 C2777 1.399 . S
C2778 C2779 1.376 . S
C2779 H2766 0.930 . S
C2779 C2778 1.376 . S
C2779 C2780 1.388 . S
C2780 H2767 0.930 . S
C2780 C2779 1.388 . S
C2780 C2781 1.390 . S
C2781 C2780 1.390 . S
C2781 C2782 1.394 . S
C2781 C2787 1.465 . S
C2782 C2777 1.399 . S
C2782 C2781 1.394 . S
C2782 C2783 1.516 . S
C2783 C2782 1.516 . S
C2783 C2784 1.502 . S
C2783 C2785 1.561 . S
C2783 C2786 1.526 . S
C2784 H2768 0.959 . S
C2784 H2769 0.959 . S
C2784 H2770 0.961 . S
C2784 C2783 1.502 . S
C2785 H2771 0.960 . S
C2785 H2772 0.961 . S
C2785 H2773 0.959 . S
C2785 C2783 1.561 . S
C2786 C2783 1.526 . S
C2786 C2787 1.396 . S
C2786 C2791 1.390 . S
C2787 C2781 1.465 . S
C2787 C2786 1.396 . S
C2787 C2788 1.399 . S
C2788 H2774 0.929 . S
C2788 C2787 1.399 . S
C2788 C2789 1.385 . S
C2789 H2775 0.931 . S
C2789 C2788 1.385 . S
C2789 C2790 1.389 . S
C2790 C2789 1.389 . S
C2790 C2791 1.387 . S
C2791 H2776 0.930 . S
C2791 C2786 1.390 . S
C2791 C2790 1.387 . S
H2792 C2804 0.930 . S
H2793 C2806 0.930 . S
H2794 C2807 0.930 . S
H2795 C2811 0.959 . S
H2796 C2811 0.959 . S
H2797 C2811 0.961 . S
H2798 C2812 0.960 . S
H2799 C2812 0.961 . S
H2800 C2812 0.959 . S
H2801 C2815 0.929 . S
H2802 C2816 0.931 . S
H2803 C2818 0.930 . S
C2804 H2792 0.930 . S
C2804 C2805 1.399 . S
C2804 C2809 1.399 1_545 S
C2805 C2804 1.399 . S
C2805 C2806 1.376 1_545 S
C2806 H2793 0.930 . S
C2806 C2805 1.376 1_565 S
C2806 C2807 1.388 . S
C2807 H2794 0.930 . S
C2807 C2806 1.388 . S
C2807 C2808 1.390 . S
C2808 C2807 1.390 . S
C2808 C2809 1.394 . S
C2808 C2814 1.465 . S
C2809 C2804 1.399 1_565 S
C2809 C2808 1.394 . S
C2809 C2810 1.516 . S
C2810 C2809 1.516 . S
C2810 C2811 1.502 1_565 S
C2810 C2812 1.561 . S
C2810 C2813 1.526 . S
C2811 H2795 0.959 . S
C2811 H2796 0.959 . S
C2811 H2797 0.961 . S
C2811 C2810 1.502 1_545 S
C2812 H2798 0.960 . S
C2812 H2799 0.961 . S
C2812 H2800 0.959 . S
C2812 C2810 1.561 . S
C2813 C2810 1.526 . S
C2813 C2814 1.396 . S
C2813 C2818 1.390 . S
C2814 C2808 1.465 . S
C2814 C2813 1.396 . S
C2814 C2815 1.399 . S
C2815 H2801 0.929 . S
C2815 C2814 1.399 . S
C2815 C2816 1.385 . S
C2816 H2802 0.931 . S
C2816 C2815 1.385 . S
C2816 C2817 1.389 . S
C2817 C2816 1.389 . S
C2817 C2818 1.387 . S
C2818 H2803 0.930 . S
C2818 C2813 1.390 . S
C2818 C2817 1.387 . S
H2819 C2831 0.930 . S
H2820 C2833 0.930 . S
H2821 C2834 0.930 . S
H2822 C2838 0.959 . S
H2823 C2838 0.959 . S
H2824 C2838 0.961 . S
H2825 C2839 0.960 . S
H2826 C2839 0.961 . S
H2827 C2839 0.959 . S
H2828 C2842 0.929 . S
H2829 C2843 0.931 . S
H2830 C2845 0.930 . S
C2831 H2819 0.930 . S
C2831 C2832 1.399 . S
C2831 C2836 1.399 . S
C2832 C2831 1.399 . S
C2832 C2833 1.376 . S
C2833 H2820 0.930 . S
C2833 C2832 1.376 . S
C2833 C2834 1.388 . S
C2834 H2821 0.930 . S
C2834 C2833 1.388 . S
C2834 C2835 1.390 . S
C2835 C2834 1.390 . S
C2835 C2836 1.394 . S
C2835 C2841 1.465 . S
C2836 C2831 1.399 . S
C2836 C2835 1.394 . S
C2836 C2837 1.516 . S
C2837 C2836 1.516 . S
C2837 C2838 1.502 . S
C2837 C2839 1.561 . S
C2837 C2840 1.526 . S
C2838 H2822 0.959 . S
C2838 H2823 0.959 . S
C2838 H2824 0.961 . S
C2838 C2837 1.502 . S
C2839 H2825 0.960 . S
C2839 H2826 0.961 . S
C2839 H2827 0.959 . S
C2839 C2837 1.561 . S
C2840 C2837 1.526 . S
C2840 C2841 1.396 . S
C2840 C2845 1.390 . S
C2841 C2835 1.465 . S
C2841 C2840 1.396 . S
C2841 C2842 1.399 . S
C2842 H2828 0.929 . S
C2842 C2841 1.399 . S
C2842 C2843 1.385 . S
C2843 H2829 0.931 . S
C2843 C2842 1.385 . S
C2843 C2844 1.389 . S
C2844 C2843 1.389 . S
C2844 C2845 1.387 . S
C2845 H2830 0.930 . S
C2845 C2840 1.390 . S
C2845 C2844 1.387 . S
H2846 C2858 0.930 . S
H2847 C2860 0.930 . S
H2848 C2861 0.930 . S
H2849 C2865 0.959 . S
H2850 C2865 0.959 . S
H2851 C2865 0.961 . S
H2852 C2866 0.960 . S
H2853 C2866 0.961 . S
H2854 C2866 0.959 . S
H2855 C2869 0.929 . S
H2856 C2870 0.931 . S
H2857 C2872 0.930 . S
C2858 H2846 0.930 . S
C2858 C2859 1.399 . S
C2858 C2863 1.399 . S
C2859 C2858 1.399 . S
C2859 C2860 1.376 . S
C2860 H2847 0.930 . S
C2860 C2859 1.376 . S
C2860 C2861 1.388 . S
C2861 H2848 0.930 . S
C2861 C2860 1.388 . S
C2861 C2862 1.390 . S
C2862 C2861 1.390 . S
C2862 C2863 1.394 . S
C2862 C2868 1.465 . S
C2863 C2858 1.399 . S
C2863 C2862 1.394 . S
C2863 C2864 1.516 . S
C2864 C2863 1.516 . S
C2864 C2865 1.502 . S
C2864 C2866 1.561 . S
C2864 C2867 1.526 . S
C2865 H2849 0.959 . S
C2865 H2850 0.959 . S
C2865 H2851 0.961 . S
C2865 C2864 1.502 . S
C2866 H2852 0.960 . S
C2866 H2853 0.961 . S
C2866 H2854 0.959 . S
C2866 C2864 1.561 . S
C2867 C2864 1.526 . S
C2867 C2868 1.396 . S
C2867 C2872 1.390 . S
C2868 C2862 1.465 . S
C2868 C2867 1.396 . S
C2868 C2869 1.399 . S
C2869 H2855 0.929 . S
C2869 C2868 1.399 . S
C2869 C2870 1.385 . S
C2870 H2856 0.931 . S
C2870 C2869 1.385 . S
C2870 C2871 1.389 . S
C2871 C2870 1.389 . S
C2871 C2872 1.387 . S
C2872 H2857 0.930 . S
C2872 C2867 1.390 . S
C2872 C2871 1.387 . S
H2873 C2885 0.930 . S
H2874 C2887 0.930 . S
H2875 C2888 0.930 . S
H2876 C2892 0.959 . S
H2877 C2892 0.959 . S
H2878 C2892 0.961 . S
H2879 C2893 0.960 . S
H2880 C2893 0.961 . S
H2881 C2893 0.959 . S
H2882 C2896 0.929 . S
H2883 C2897 0.931 . S
H2884 C2899 0.930 . S
C2885 H2873 0.930 . S
C2885 C2886 1.399 1_565 S
C2885 C2890 1.399 . S
C2886 C2885 1.399 1_545 S
C2886 C2887 1.376 . S
C2887 H2874 0.930 . S
C2887 C2886 1.376 . S
C2887 C2888 1.388 . S
C2888 H2875 0.930 . S
C2888 C2887 1.388 . S
C2888 C2889 1.390 . S
C2889 C2888 1.390 . S
C2889 C2890 1.394 1_545 S
C2889 C2895 1.465 . S
C2890 C2885 1.399 . S
C2890 C2889 1.394 1_565 S
C2890 C2891 1.516 . S
C2891 C2890 1.516 . S
C2891 C2892 1.502 . S
C2891 C2893 1.561 . S
C2891 C2894 1.526 . S
C2892 H2876 0.959 . S
C2892 H2877 0.959 . S
C2892 H2878 0.961 . S
C2892 C2891 1.502 . S
C2893 H2879 0.960 . S
C2893 H2880 0.961 . S
C2893 H2881 0.959 . S
C2893 C2891 1.561 . S
C2894 C2891 1.526 . S
C2894 C2895 1.396 1_565 S
C2894 C2899 1.390 . S
C2895 C2889 1.465 . S
C2895 C2894 1.396 1_545 S
C2895 C2896 1.399 . S
C2896 H2882 0.929 . S
C2896 C2895 1.399 . S
C2896 C2897 1.385 . S
C2897 H2883 0.931 . S
C2897 C2896 1.385 . S
C2897 C2898 1.389 1_545 S
C2898 C2897 1.389 1_565 S
C2898 C2899 1.387 . S
C2899 H2884 0.930 . S
C2899 C2894 1.390 . S
C2899 C2898 1.387 . S
H2900 C2912 0.930 . S
H2901 C2914 0.930 . S
H2902 C2915 0.930 . S
H2903 C2919 0.959 . S
H2904 C2919 0.959 . S
H2905 C2919 0.961 . S
H2906 C2920 0.960 . S
H2907 C2920 0.961 1_545 S
H2908 C2920 0.959 . S
H2909 C2923 0.929 . S
H2910 C2924 0.931 . S
H2911 C2926 0.930 . S
C2912 H2900 0.930 . S
C2912 C2913 1.399 1_545 S
C2912 C2917 1.399 . S
C2913 C2912 1.399 1_565 S
C2913 C2914 1.376 . S
C2914 H2901 0.930 . S
C2914 C2913 1.376 . S
C2914 C2915 1.388 . S
C2915 H2902 0.930 . S
C2915 C2914 1.388 . S
C2915 C2916 1.390 . S
C2916 C2915 1.390 . S
C2916 C2917 1.394 1_565 S
C2916 C2922 1.465 1_565 S
C2917 C2912 1.399 . S
C2917 C2916 1.394 1_545 S
C2917 C2918 1.516 . S
C2918 C2917 1.516 . S
C2918 C2919 1.502 . S
C2918 C2920 1.561 1_545 S
C2918 C2921 1.526 . S
C2919 H2903 0.959 . S
C2919 H2904 0.959 . S
C2919 H2905 0.961 . S
C2919 C2918 1.502 . S
C2920 H2906 0.960 . S
C2920 H2907 0.961 1_565 S
C2920 H2908 0.959 . S
C2920 C2918 1.561 1_565 S
C2921 C2918 1.526 . S
C2921 C2922 1.396 . S
C2921 C2926 1.390 . S
C2922 C2916 1.465 1_545 S
C2922 C2921 1.396 . S
C2922 C2923 1.399 1_545 S
C2923 H2909 0.929 . S
C2923 C2922 1.399 1_565 S
C2923 C2924 1.385 1_565 S
C2924 H2910 0.931 . S
C2924 C2923 1.385 1_545 S
C2924 C2925 1.389 . S
C2925 C2924 1.389 . S
C2925 C2926 1.387 . S
C2926 H2911 0.930 . S
C2926 C2921 1.390 . S
C2926 C2925 1.387 . S
H2927 C2939 0.930 . S
H2928 C2941 0.930 . S
H2929 C2942 0.930 . S
H2930 C2946 0.959 . S
H2931 C2946 0.959 . S
H2932 C2946 0.961 . S
H2933 C2947 0.960 . S
H2934 C2947 0.961 . S
H2935 C2947 0.959 . S
H2936 C2950 0.929 . S
H2937 C2951 0.931 . S
H2938 C2953 0.930 . S
C2939 H2927 0.930 . S
C2939 C2940 1.399 . S
C2939 C2944 1.399 . S
C2940 C2939 1.399 . S
C2940 C2941 1.376 . S
C2941 H2928 0.930 . S
C2941 C2940 1.376 . S
C2941 C2942 1.388 . S
C2942 H2929 0.930 . S
C2942 C2941 1.388 . S
C2942 C2943 1.390 . S
C2943 C2942 1.390 . S
C2943 C2944 1.394 . S
C2943 C2949 1.465 . S
C2944 C2939 1.399 . S
C2944 C2943 1.394 . S
C2944 C2945 1.516 . S
C2945 C2944 1.516 . S
C2945 C2946 1.502 . S
C2945 C2947 1.561 . S
C2945 C2948 1.526 . S
C2946 H2930 0.959 . S
C2946 H2931 0.959 . S
C2946 H2932 0.961 . S
C2946 C2945 1.502 . S
C2947 H2933 0.960 . S
C2947 H2934 0.961 . S
C2947 H2935 0.959 . S
C2947 C2945 1.561 . S
C2948 C2945 1.526 . S
C2948 C2949 1.396 . S
C2948 C2953 1.390 . S
C2949 C2943 1.465 . S
C2949 C2948 1.396 . S
C2949 C2950 1.399 . S
C2950 H2936 0.929 . S
C2950 C2949 1.399 . S
C2950 C2951 1.385 . S
C2951 H2937 0.931 . S
C2951 C2950 1.385 . S
C2951 C2952 1.389 . S
C2952 C2951 1.389 . S
C2952 C2953 1.387 . S
C2953 H2938 0.930 . S
C2953 C2948 1.390 . S
C2953 C2952 1.387 . S
H2954 C2966 0.930 . S
H2955 C2968 0.930 . S
H2956 C2969 0.930 . S
H2957 C2973 0.959 . S
H2958 C2973 0.959 . S
H2959 C2973 0.961 . S
H2960 C2974 0.960 . S
H2961 C2974 0.961 . S
H2962 C2974 0.959 . S
H2963 C2977 0.929 . S
H2964 C2978 0.931 . S
H2965 C2980 0.930 . S
C2966 H2954 0.930 . S
C2966 C2967 1.399 . S
C2966 C2971 1.399 . S
C2967 C2966 1.399 . S
C2967 C2968 1.376 . S
C2968 H2955 0.930 . S
C2968 C2967 1.376 . S
C2968 C2969 1.388 . S
C2969 H2956 0.930 . S
C2969 C2968 1.388 . S
C2969 C2970 1.390 . S
C2970 C2969 1.390 . S
C2970 C2971 1.394 . S
C2970 C2976 1.465 . S
C2971 C2966 1.399 . S
C2971 C2970 1.394 . S
C2971 C2972 1.516 . S
C2972 C2971 1.516 . S
C2972 C2973 1.502 . S
C2972 C2974 1.561 . S
C2972 C2975 1.526 . S
C2973 H2957 0.959 . S
C2973 H2958 0.959 . S
C2973 H2959 0.961 . S
C2973 C2972 1.502 . S
C2974 H2960 0.960 . S
C2974 H2961 0.961 . S
C2974 H2962 0.959 . S
C2974 C2972 1.561 . S
C2975 C2972 1.526 . S
C2975 C2976 1.396 . S
C2975 C2980 1.390 . S
C2976 C2970 1.465 . S
C2976 C2975 1.396 . S
C2976 C2977 1.399 . S
C2977 H2963 0.929 . S
C2977 C2976 1.399 . S
C2977 C2978 1.385 . S
C2978 H2964 0.931 . S
C2978 C2977 1.385 . S
C2978 C2979 1.389 . S
C2979 C2978 1.389 . S
C2979 C2980 1.387 . S
C2980 H2965 0.930 . S
C2980 C2975 1.390 . S
C2980 C2979 1.387 . S
H2981 C2993 0.930 . S
H2982 C2995 0.930 . S
H2983 C2996 0.930 . S
H2984 C3000 0.959 . S
H2985 C3000 0.959 . S
H2986 C3000 0.961 . S
H2987 C3001 0.960 . S
H2988 C3001 0.961 . S
H2989 C3001 0.959 . S
H2990 C3004 0.929 . S
H2991 C3005 0.931 . S
H2992 C3007 0.930 . S
C2993 H2981 0.930 . S
C2993 C2994 1.399 1_545 S
C2993 C2998 1.399 . S
C2994 C2993 1.399 1_565 S
C2994 C2995 1.376 . S
C2995 H2982 0.930 . S
C2995 C2994 1.376 . S
C2995 C2996 1.388 . S
C2996 H2983 0.930 . S
C2996 C2995 1.388 . S
C2996 C2997 1.390 . S
C2997 C2996 1.390 . S
C2997 C2998 1.394 1_565 S
C2997 C3003 1.465 . S
C2998 C2993 1.399 . S
C2998 C2997 1.394 1_545 S
C2998 C2999 1.516 . S
C2999 C2998 1.516 . S
C2999 C3000 1.502 . S
C2999 C3001 1.561 . S
C2999 C3002 1.526 . S
C3000 H2984 0.959 . S
C3000 H2985 0.959 . S
C3000 H2986 0.961 . S
C3000 C2999 1.502 . S
C3001 H2987 0.960 . S
C3001 H2988 0.961 . S
C3001 H2989 0.959 . S
C3001 C2999 1.561 . S
C3002 C2999 1.526 . S
C3002 C3003 1.396 1_545 S
C3002 C3007 1.390 . S
C3003 C2997 1.465 . S
C3003 C3002 1.396 1_565 S
C3003 C3004 1.399 . S
C3004 H2990 0.929 . S
C3004 C3003 1.399 . S
C3004 C3005 1.385 . S
C3005 H2991 0.931 . S
C3005 C3004 1.385 . S
C3005 C3006 1.389 1_565 S
C3006 C3005 1.389 1_545 S
C3006 C3007 1.387 . S
C3007 H2992 0.930 . S
C3007 C3002 1.390 . S
C3007 C3006 1.387 . S
H3008 C3020 0.930 . S
H3009 C3022 0.930 . S
H3010 C3023 0.930 . S
H3011 C3027 0.959 . S
H3012 C3027 0.959 1_655 S
H3013 C3027 0.961 . S
H3014 C3028 0.960 . S
H3015 C3028 0.961 1_655 S
H3016 C3028 0.959 . S
H3017 C3031 0.929 . S
H3018 C3032 0.931 . S
H3019 C3034 0.930 . S
C3020 H3008 0.930 . S
C3020 C3021 1.399 . S
C3020 C3025 1.399 . S
C3021 C3020 1.399 . S
C3021 C3022 1.376 . S
C3022 H3009 0.930 . S
C3022 C3021 1.376 . S
C3022 C3023 1.388 . S
C3023 H3010 0.930 . S
C3023 C3022 1.388 . S
C3023 C3024 1.390 . S
C3024 C3023 1.390 . S
C3024 C3025 1.394 . S
C3024 C3030 1.465 . S
C3025 C3020 1.399 . S
C3025 C3024 1.394 . S
C3025 C3026 1.516 . S
C3026 C3025 1.516 . S
C3026 C3027 1.502 . S
C3026 C3028 1.561 . S
C3026 C3029 1.526 1_455 S
C3027 H3011 0.959 . S
C3027 H3012 0.959 1_455 S
C3027 H3013 0.961 . S
C3027 C3026 1.502 . S
C3028 H3014 0.960 . S
C3028 H3015 0.961 1_455 S
C3028 H3016 0.959 . S
C3028 C3026 1.561 . S
C3029 C3026 1.526 1_655 S
C3029 C3030 1.396 1_655 S
C3029 C3034 1.390 . S
C3030 C3024 1.465 . S
C3030 C3029 1.396 1_455 S
C3030 C3031 1.399 1_455 S
C3031 H3017 0.929 . S
C3031 C3030 1.399 1_655 S
C3031 C3032 1.385 . S
C3032 H3018 0.931 . S
C3032 C3031 1.385 . S
C3032 C3033 1.389 . S
C3033 C3032 1.389 . S
C3033 C3034 1.387 . S
C3034 H3019 0.930 . S
C3034 C3029 1.390 . S
C3034 C3033 1.387 . S
H3035 C3047 0.930 . S
H3036 C3049 0.930 . S
H3037 C3050 0.930 . S
H3038 C3054 0.959 . S
H3039 C3054 0.959 . S
H3040 C3054 0.961 . S
H3041 C3055 0.960 . S
H3042 C3055 0.961 . S
H3043 C3055 0.959 . S
H3044 C3058 0.929 . S
H3045 C3059 0.931 . S
H3046 C3061 0.930 . S
C3047 H3035 0.930 . S
C3047 C3048 1.399 . S
C3047 C3052 1.399 . S
C3048 C3047 1.399 . S
C3048 C3049 1.376 . S
C3049 H3036 0.930 . S
C3049 C3048 1.376 . S
C3049 C3050 1.388 . S
C3050 H3037 0.930 . S
C3050 C3049 1.388 . S
C3050 C3051 1.390 . S
C3051 C3050 1.390 . S
C3051 C3052 1.394 . S
C3051 C3057 1.465 . S
C3052 C3047 1.399 . S
C3052 C3051 1.394 . S
C3052 C3053 1.516 . S
C3053 C3052 1.516 . S
C3053 C3054 1.502 . S
C3053 C3055 1.561 . S
C3053 C3056 1.526 . S
C3054 H3038 0.959 . S
C3054 H3039 0.959 . S
C3054 H3040 0.961 . S
C3054 C3053 1.502 . S
C3055 H3041 0.960 . S
C3055 H3042 0.961 . S
C3055 H3043 0.959 . S
C3055 C3053 1.561 . S
C3056 C3053 1.526 . S
C3056 C3057 1.396 . S
C3056 C3061 1.390 . S
C3057 C3051 1.465 . S
C3057 C3056 1.396 . S
C3057 C3058 1.399 . S
C3058 H3044 0.929 . S
C3058 C3057 1.399 . S
C3058 C3059 1.385 . S
C3059 H3045 0.931 . S
C3059 C3058 1.385 . S
C3059 C3060 1.389 . S
C3060 C3059 1.389 . S
C3060 C3061 1.387 . S
C3061 H3046 0.930 . S
C3061 C3056 1.390 . S
C3061 C3060 1.387 . S
H3062 C3074 0.930 . S
H3063 C3076 0.930 . S
H3064 C3077 0.930 . S
H3065 C3081 0.959 . S
H3066 C3081 0.959 . S
H3067 C3081 0.961 . S
H3068 C3082 0.960 . S
H3069 C3082 0.961 . S
H3070 C3082 0.959 . S
H3071 C3085 0.929 . S
H3072 C3086 0.931 . S
H3073 C3088 0.930 . S
C3074 H3062 0.930 . S
C3074 C3075 1.399 . S
C3074 C3079 1.399 . S
C3075 C3074 1.399 . S
C3075 C3076 1.376 . S
C3076 H3063 0.930 . S
C3076 C3075 1.376 . S
C3076 C3077 1.388 . S
C3077 H3064 0.930 . S
C3077 C3076 1.388 . S
C3077 C3078 1.390 1_655 S
C3078 C3077 1.390 1_455 S
C3078 C3079 1.394 1_455 S
C3078 C3084 1.465 . S
C3079 C3074 1.399 . S
C3079 C3078 1.394 1_655 S
C3079 C3080 1.516 1_655 S
C3080 C3079 1.516 1_455 S
C3080 C3081 1.502 . S
C3080 C3082 1.561 . S
C3080 C3083 1.526 . S
C3081 H3065 0.959 . S
C3081 H3066 0.959 . S
C3081 H3067 0.961 . S
C3081 C3080 1.502 . S
C3082 H3068 0.960 . S
C3082 H3069 0.961 . S
C3082 H3070 0.959 . S
C3082 C3080 1.561 . S
C3083 C3080 1.526 . S
C3083 C3084 1.396 . S
C3083 C3088 1.390 . S
C3084 C3078 1.465 . S
C3084 C3083 1.396 . S
C3084 C3085 1.399 . S
C3085 H3071 0.929 . S
C3085 C3084 1.399 . S
C3085 C3086 1.385 . S
C3086 H3072 0.931 . S
C3086 C3085 1.385 . S
C3086 C3087 1.389 . S
C3087 C3086 1.389 . S
C3087 C3088 1.387 . S
C3088 H3073 0.930 . S
C3088 C3083 1.390 . S
C3088 C3087 1.387 . S
H3089 C3101 0.930 . S
H3090 C3103 0.930 . S
H3091 C3104 0.930 . S
H3092 C3108 0.959 . S
H3093 C3108 0.959 . S
H3094 C3108 0.961 . S
H3095 C3109 0.960 . S
H3096 C3109 0.961 . S
H3097 C3109 0.959 . S
H3098 C3112 0.929 . S
H3099 C3113 0.931 . S
H3100 C3115 0.930 . S
C3101 H3089 0.930 . S
C3101 C3102 1.399 . S
C3101 C3106 1.399 . S
C3102 C3101 1.399 . S
C3102 C3103 1.376 . S
C3103 H3090 0.930 . S
C3103 C3102 1.376 . S
C3103 C3104 1.388 . S
C3104 H3091 0.930 . S
C3104 C3103 1.388 . S
C3104 C3105 1.390 . S
C3105 C3104 1.390 . S
C3105 C3106 1.394 . S
C3105 C3111 1.465 . S
C3106 C3101 1.399 . S
C3106 C3105 1.394 . S
C3106 C3107 1.516 . S
C3107 C3106 1.516 . S
C3107 C3108 1.502 . S
C3107 C3109 1.561 . S
C3107 C3110 1.526 . S
C3108 H3092 0.959 . S
C3108 H3093 0.959 . S
C3108 H3094 0.961 . S
C3108 C3107 1.502 . S
C3109 H3095 0.960 . S
C3109 H3096 0.961 . S
C3109 H3097 0.959 . S
C3109 C3107 1.561 . S
C3110 C3107 1.526 . S
C3110 C3111 1.396 . S
C3110 C3115 1.390 . S
C3111 C3105 1.465 . S
C3111 C3110 1.396 . S
C3111 C3112 1.399 . S
C3112 H3098 0.929 . S
C3112 C3111 1.399 . S
C3112 C3113 1.385 . S
C3113 H3099 0.931 . S
C3113 C3112 1.385 . S
C3113 C3114 1.389 . S
C3114 C3113 1.389 . S
C3114 C3115 1.387 . S
C3115 H3100 0.930 . S
C3115 C3110 1.390 . S
C3115 C3114 1.387 . S
H3116 C3128 0.930 . S
H3117 C3130 0.930 . S
H3118 C3131 0.930 . S
H3119 C3135 0.959 . S
H3120 C3135 0.959 . S
H3121 C3135 0.961 . S
H3122 C3136 0.960 . S
H3123 C3136 0.961 . S
H3124 C3136 0.959 . S
H3125 C3139 0.929 . S
H3126 C3140 0.931 . S
H3127 C3142 0.930 . S
C3128 H3116 0.930 . S
C3128 C3129 1.399 . S
C3128 C3133 1.399 . S
C3129 C3128 1.399 . S
C3129 C3130 1.376 . S
C3130 H3117 0.930 . S
C3130 C3129 1.376 . S
C3130 C3131 1.388 . S
C3131 H3118 0.930 . S
C3131 C3130 1.388 . S
C3131 C3132 1.390 . S
C3132 C3131 1.390 . S
C3132 C3133 1.394 . S
C3132 C3138 1.474 . S
C3133 C3128 1.399 . S
C3133 C3132 1.394 . S
C3133 C3134 1.516 . S
C3134 C3133 1.516 . S
C3134 C3135 1.502 . S
C3134 C3136 1.561 . S
C3134 C3137 1.526 1_655 S
C3135 H3119 0.959 . S
C3135 H3120 0.959 . S
C3135 H3121 0.961 . S
C3135 C3134 1.502 . S
C3136 H3122 0.960 . S
C3136 H3123 0.961 . S
C3136 H3124 0.959 . S
C3136 C3134 1.561 . S
C3137 C3134 1.526 1_455 S
C3137 C3138 1.395 1_455 S
C3137 C3142 1.390 . S
C3138 C3132 1.474 . S
C3138 C3137 1.395 1_655 S
C3138 C3139 1.391 1_655 S
C3139 H3125 0.929 . S
C3139 C3138 1.391 1_455 S
C3139 C3140 1.385 . S
C3140 H3126 0.931 . S
C3140 C3139 1.385 . S
C3140 C3141 1.389 . S
C3141 C3140 1.389 . S
C3141 C3142 1.387 . S
C3142 H3127 0.930 . S
C3142 C3137 1.390 . S
C3142 C3141 1.387 . S
H3143 C3155 0.930 . S
H3144 C3157 0.930 . S
H3145 C3158 0.930 . S
H3146 C3162 0.959 . S
H3147 C3162 0.959 . S
H3148 C3162 0.961 . S
H3149 C3163 0.960 . S
H3150 C3163 0.961 . S
H3151 C3163 0.959 . S
H3152 C3166 0.929 . S
H3153 C3167 0.931 . S
H3154 C3169 0.930 . S
C3155 H3143 0.930 . S
C3155 C3156 1.399 . S
C3155 C3160 1.399 . S
C3156 C3155 1.399 . S
C3156 C3157 1.376 . S
C3157 H3144 0.930 . S
C3157 C3156 1.376 . S
C3157 C3158 1.388 . S
C3158 H3145 0.930 . S
C3158 C3157 1.388 . S
C3158 C3159 1.390 . S
C3159 C3158 1.390 . S
C3159 C3160 1.394 . S
C3159 C3165 1.465 . S
C3160 C3155 1.399 . S
C3160 C3159 1.394 . S
C3160 C3161 1.516 . S
C3161 C3160 1.516 . S
C3161 C3162 1.502 . S
C3161 C3163 1.561 . S
C3161 C3164 1.526 . S
C3162 H3146 0.959 . S
C3162 H3147 0.959 . S
C3162 H3148 0.961 . S
C3162 C3161 1.502 . S
C3163 H3149 0.960 . S
C3163 H3150 0.961 . S
C3163 H3151 0.959 . S
C3163 C3161 1.561 . S
C3164 C3161 1.526 . S
C3164 C3165 1.396 . S
C3164 C3169 1.390 . S
C3165 C3159 1.465 . S
C3165 C3164 1.396 . S
C3165 C3166 1.399 . S
C3166 H3152 0.929 . S
C3166 C3165 1.399 . S
C3166 C3167 1.385 . S
C3167 H3153 0.931 . S
C3167 C3166 1.385 . S
C3167 C3168 1.389 . S
C3168 C3167 1.389 . S
C3168 C3169 1.387 . S
C3169 H3154 0.930 . S
C3169 C3164 1.390 . S
C3169 C3168 1.387 . S
H3170 C3182 0.930 . S
H3171 C3184 0.930 . S
H3172 C3185 0.929 . S
H3173 C3189 0.959 . S
H3174 C3189 0.959 . S
H3175 C3189 0.961 1_455 S
H3176 C3190 0.960 1_455 S
H3177 C3190 0.961 . S
H3178 C3190 0.959 . S
H3179 C3193 0.929 . S
H3180 C3194 0.931 . S
H3181 C3196 0.930 . S
C3182 H3170 0.930 . S
C3182 C3183 1.399 . S
C3182 C3187 1.399 . S
C3183 C3182 1.399 . S
C3183 C3184 1.376 . S
C3184 H3171 0.930 . S
C3184 C3183 1.376 . S
C3184 C3185 1.388 . S
C3185 H3172 0.929 . S
C3185 C3184 1.388 . S
C3185 C3186 1.390 1_455 S
C3186 C3185 1.390 1_655 S
C3186 C3187 1.394 1_655 S
C3186 C3192 1.465 . S
C3187 C3182 1.399 . S
C3187 C3186 1.394 1_455 S
C3187 C3188 1.516 1_455 S
C3188 C3187 1.516 1_655 S
C3188 C3189 1.502 . S
C3188 C3190 1.561 . S
C3188 C3191 1.526 . S
C3189 H3173 0.959 . S
C3189 H3174 0.959 . S
C3189 H3175 0.961 1_655 S
C3189 C3188 1.502 . S
C3190 H3176 0.960 1_655 S
C3190 H3177 0.961 . S
C3190 H3178 0.959 . S
C3190 C3188 1.561 . S
C3191 C3188 1.526 . S
C3191 C3192 1.396 . S
C3191 C3196 1.390 . S
C3192 C3186 1.465 . S
C3192 C3191 1.396 . S
C3192 C3193 1.399 . S
C3193 H3179 0.929 . S
C3193 C3192 1.399 . S
C3193 C3194 1.385 . S
C3194 H3180 0.931 . S
C3194 C3193 1.385 . S
C3194 C3195 1.389 . S
C3195 C3194 1.389 . S
C3195 C3196 1.387 . S
C3196 H3181 0.930 . S
C3196 C3191 1.390 . S
C3196 C3195 1.387 . S
H3197 C3209 0.930 . S
H3198 C3211 0.930 . S
H3199 C3212 0.930 . S
H3200 C3216 0.959 . S
H3201 C3216 0.959 . S
H3202 C3216 0.961 . S
H3203 C3217 0.960 . S
H3204 C3217 0.961 . S
H3205 C3217 0.959 . S
H3206 C3220 0.929 . S
H3207 C3221 0.931 . S
H3208 C3223 0.930 . S
C3209 H3197 0.930 . S
C3209 C3210 1.399 . S
C3209 C3214 1.399 . S
C3210 C3209 1.399 . S
C3210 C3211 1.376 . S
C3211 H3198 0.930 . S
C3211 C3210 1.376 . S
C3211 C3212 1.388 . S
C3212 H3199 0.930 . S
C3212 C3211 1.388 . S
C3212 C3213 1.390 . S
C3213 C3212 1.390 . S
C3213 C3214 1.394 . S
C3213 C3219 1.465 . S
C3214 C3209 1.399 . S
C3214 C3213 1.394 . S
C3214 C3215 1.516 . S
C3215 C3214 1.516 . S
C3215 C3216 1.502 . S
C3215 C3217 1.561 . S
C3215 C3218 1.526 . S
C3216 H3200 0.959 . S
C3216 H3201 0.959 . S
C3216 H3202 0.961 . S
C3216 C3215 1.502 . S
C3217 H3203 0.960 . S
C3217 H3204 0.961 . S
C3217 H3205 0.959 . S
C3217 C3215 1.561 . S
C3218 C3215 1.526 . S
C3218 C3219 1.396 . S
C3218 C3223 1.390 . S
C3219 C3213 1.465 . S
C3219 C3218 1.396 . S
C3219 C3220 1.399 . S
C3220 H3206 0.929 . S
C3220 C3219 1.399 . S
C3220 C3221 1.385 . S
C3221 H3207 0.931 . S
C3221 C3220 1.385 . S
C3221 C3222 1.389 . S
C3222 C3221 1.389 . S
C3222 C3223 1.387 . S
C3223 H3208 0.930 . S
C3223 C3218 1.390 . S
C3223 C3222 1.387 . S
H3224 C3236 0.930 . S
H3225 C3238 0.930 . S
H3226 C3239 0.926 1_455 S
H3227 C3243 0.959 . S
H3228 C3243 0.959 . S
H3229 C3243 0.961 1_655 S
H3230 C3244 0.960 1_655 S
H3231 C3244 0.961 . S
H3232 C3244 0.959 . S
H3233 C3247 0.929 . S
H3234 C3248 0.931 . S
H3235 C3250 0.930 . S
C3236 H3224 0.930 . S
C3236 C3237 1.399 1_565 S
C3236 C3241 1.399 . S
C3237 C3236 1.399 1_545 S
C3237 C3238 1.376 . S
C3238 H3225 0.930 . S
C3238 C3237 1.376 . S
C3238 C3239 1.388 . S
C3239 H3226 0.926 1_655 S
C3239 C3238 1.388 . S
C3239 C3240 1.390 1_655 S
C3240 C3239 1.390 1_455 S
C3240 C3241 1.394 1_445 S
C3240 C3246 1.465 . S
C3241 C3236 1.399 . S
C3241 C3240 1.394 1_665 S
C3241 C3242 1.516 1_655 S
C3242 C3241 1.516 1_455 S
C3242 C3243 1.502 . S
C3242 C3244 1.561 . S
C3242 C3245 1.526 . S
C3243 H3227 0.959 . S
C3243 H3228 0.959 . S
C3243 H3229 0.961 1_455 S
C3243 C3242 1.502 . S
C3244 H3230 0.960 1_455 S
C3244 H3231 0.961 . S
C3244 H3232 0.959 . S
C3244 C3242 1.561 . S
C3245 C3242 1.526 . S
C3245 C3246 1.396 1_565 S
C3245 C3250 1.390 . S
C3246 C3240 1.465 . S
C3246 C3245 1.396 1_545 S
C3246 C3247 1.399 . S
C3247 H3233 0.929 . S
C3247 C3246 1.399 . S
C3247 C3248 1.385 . S
C3248 H3234 0.931 . S
C3248 C3247 1.385 . S
C3248 C3249 1.389 1_545 S
C3249 C3248 1.389 1_565 S
C3249 C3250 1.387 . S
C3250 H3235 0.930 . S
C3250 C3245 1.390 . S
C3250 C3249 1.387 . S
H3251 C3263 0.930 . S
H3252 C3265 0.930 . S
H3253 C3266 0.930 . S
H3254 C3270 0.959 . S
H3255 C3270 0.959 . S
H3256 C3270 0.961 . S
H3257 C3271 0.960 . S
H3258 C3271 0.961 . S
H3259 C3271 0.959 . S
H3260 C3274 0.929 . S
H3261 C3275 0.931 . S
H3262 C3277 0.930 . S
C3263 H3251 0.930 . S
C3263 C3264 1.399 . S
C3263 C3268 1.399 . S
C3264 C3263 1.399 . S
C3264 C3265 1.376 . S
C3265 H3252 0.930 . S
C3265 C3264 1.376 . S
C3265 C3266 1.388 . S
C3266 H3253 0.930 . S
C3266 C3265 1.388 . S
C3266 C3267 1.390 . S
C3267 C3266 1.390 . S
C3267 C3268 1.394 . S
C3267 C3273 1.465 . S
C3268 C3263 1.399 . S
C3268 C3267 1.394 . S
C3268 C3269 1.516 . S
C3269 C3268 1.516 . S
C3269 C3270 1.502 . S
C3269 C3271 1.561 . S
C3269 C3272 1.526 . S
C3270 H3254 0.959 . S
C3270 H3255 0.959 . S
C3270 H3256 0.961 . S
C3270 C3269 1.502 . S
C3271 H3257 0.960 . S
C3271 H3258 0.961 . S
C3271 H3259 0.959 . S
C3271 C3269 1.561 . S
C3272 C3269 1.526 . S
C3272 C3273 1.396 . S
C3272 C3277 1.390 . S
C3273 C3267 1.465 . S
C3273 C3272 1.396 . S
C3273 C3274 1.399 . S
C3274 H3260 0.929 . S
C3274 C3273 1.399 . S
C3274 C3275 1.385 . S
C3275 H3261 0.931 . S
C3275 C3274 1.385 . S
C3275 C3276 1.389 . S
C3276 C3275 1.389 . S
C3276 C3277 1.387 . S
C3277 H3262 0.930 . S
C3277 C3272 1.390 . S
C3277 C3276 1.387 . S
H3278 C3290 0.930 . S
H3279 C3292 0.930 . S
H3280 C3293 0.930 . S
H3281 C3297 0.959 . S
H3282 C3297 0.959 . S
H3283 C3297 0.961 1_655 S
H3284 C3298 0.941 1_655 S
H3285 C3298 0.961 . S
H3286 C3298 0.959 . S
H3287 C3301 0.929 . S
H3288 C3302 0.931 . S
H3289 C3304 0.930 . S
C3290 H3278 0.930 . S
C3290 C3291 1.399 . S
C3290 C3295 1.399 . S
C3291 C3290 1.399 . S
C3291 C3292 1.376 . S
C3292 H3279 0.930 . S
C3292 C3291 1.376 . S
C3292 C3293 1.388 . S
C3293 H3280 0.930 . S
C3293 C3292 1.388 . S
C3293 C3294 1.390 1_655 S
C3294 C3293 1.390 1_455 S
C3294 C3295 1.394 1_455 S
C3294 C3300 1.465 . S
C3295 C3290 1.399 . S
C3295 C3294 1.394 1_655 S
C3295 C3296 1.516 1_655 S
C3296 C3295 1.516 1_455 S
C3296 C3297 1.502 . S
C3296 C3298 1.561 . S
C3296 C3299 1.526 . S
C3297 H3281 0.959 . S
C3297 H3282 0.959 . S
C3297 H3283 0.961 1_455 S
C3297 C3296 1.502 . S
C3298 H3284 0.941 1_455 S
C3298 H3285 0.961 . S
C3298 H3286 0.959 . S
C3298 C3296 1.561 . S
C3299 C3296 1.526 . S
C3299 C3300 1.396 . S
C3299 C3304 1.390 . S
C3300 C3294 1.465 . S
C3300 C3299 1.396 . S
C3300 C3301 1.399 . S
C3301 H3287 0.929 . S
C3301 C3300 1.399 . S
C3301 C3302 1.385 . S
C3302 H3288 0.931 . S
C3302 C3301 1.385 . S
C3302 C3303 1.389 . S
C3303 C3302 1.389 . S
C3303 C3304 1.387 . S
C3304 H3289 0.930 . S
C3304 C3299 1.390 . S
C3304 C3303 1.387 . S
H3305 C3317 0.930 . S
H3306 C3319 0.930 . S
H3307 C3320 0.930 . S
H3308 C3324 0.959 . S
H3309 C3324 0.959 . S
H3310 C3324 0.961 . S
H3311 C3325 0.960 . S
H3312 C3325 0.961 . S
H3313 C3325 0.959 . S
H3314 C3328 0.929 . S
H3315 C3329 0.931 . S
H3316 C3331 0.930 . S
C3317 H3305 0.930 . S
C3317 C3318 1.399 1_565 S
C3317 C3322 1.399 . S
C3318 C3317 1.399 1_545 S
C3318 C3319 1.376 . S
C3319 H3306 0.930 . S
C3319 C3318 1.376 . S
C3319 C3320 1.388 . S
C3320 H3307 0.930 . S
C3320 C3319 1.388 . S
C3320 C3321 1.390 . S
C3321 C3320 1.390 . S
C3321 C3322 1.394 1_545 S
C3321 C3327 1.465 . S
C3322 C3317 1.399 . S
C3322 C3321 1.394 1_565 S
C3322 C3323 1.516 . S
C3323 C3322 1.516 . S
C3323 C3324 1.502 . S
C3323 C3325 1.561 . S
C3323 C3326 1.526 . S
C3324 H3308 0.959 . S
C3324 H3309 0.959 . S
C3324 H3310 0.961 . S
C3324 C3323 1.502 . S
C3325 H3311 0.960 . S
C3325 H3312 0.961 . S
C3325 H3313 0.959 . S
C3325 C3323 1.561 . S
C3326 C3323 1.526 . S
C3326 C3327 1.396 1_565 S
C3326 C3331 1.390 . S
C3327 C3321 1.465 . S
C3327 C3326 1.396 1_545 S
C3327 C3328 1.399 . S
C3328 H3314 0.929 . S
C3328 C3327 1.399 . S
C3328 C3329 1.385 . S
C3329 H3315 0.931 . S
C3329 C3328 1.385 . S
C3329 C3330 1.389 1_545 S
C3330 C3329 1.389 1_565 S
C3330 C3331 1.387 . S
C3331 H3316 0.930 . S
C3331 C3326 1.390 . S
C3331 C3330 1.387 . S
H3332 C3344 0.930 . S
H3333 C3346 0.927 1_565 S
H3334 C3347 0.930 . S
H3335 C3351 0.959 . S
H3336 C3351 0.959 . S
H3337 C3351 0.961 . S
H3338 C3352 0.960 1_545 S
H3339 C3352 0.965 . S
H3340 C3352 0.959 . S
H3341 C3355 0.929 . S
H3342 C3356 0.931 . S
H3343 C3358 0.930 . S
C3344 H3332 0.930 . S
C3344 C3345 1.399 . S
C3344 C3349 1.399 . S
C3345 C3344 1.399 . S
C3345 C3346 1.376 . S
C3346 H3333 0.927 1_545 S
C3346 C3345 1.376 . S
C3346 C3347 1.388 1_545 S
C3347 H3334 0.930 . S
C3347 C3346 1.388 1_565 S
C3347 C3348 1.382 1_565 S
C3348 C3347 1.382 1_545 S
C3348 C3349 1.413 . S
C3348 C3354 1.459 1_545 S
C3349 C3344 1.399 . S
C3349 C3348 1.413 . S
C3349 C3350 1.516 . S
C3350 C3349 1.516 . S
C3350 C3351 1.502 . S
C3350 C3352 1.561 1_545 S
C3350 C3353 1.526 1_655 S
C3351 H3335 0.959 . S
C3351 H3336 0.959 . S
C3351 H3337 0.961 . S
C3351 C3350 1.502 . S
C3352 H3338 0.960 1_565 S
C3352 H3339 0.965 . S
C3352 H3340 0.959 . S
C3352 C3350 1.561 1_565 S
C3353 C3350 1.526 1_455 S
C3353 C3354 1.396 1_445 S
C3353 C3358 1.390 . S
C3354 C3348 1.459 1_565 S
C3354 C3353 1.396 1_665 S
C3354 C3355 1.399 1_655 S
C3355 H3341 0.929 . S
C3355 C3354 1.399 1_455 S
C3355 C3356 1.385 . S
C3356 H3342 0.931 . S
C3356 C3355 1.385 . S
C3356 C3357 1.389 . S
C3357 C3356 1.389 . S
C3357 C3358 1.387 1_565 S
C3358 H3343 0.930 . S
C3358 C3353 1.390 . S
C3358 C3357 1.387 1_545 S
H3359 C3371 0.930 . S
H3360 C3373 0.930 . S
H3361 C3374 0.930 . S
H3362 C3378 0.959 . S
H3363 C3378 0.959 . S
H3364 C3378 0.961 . S
H3365 C3379 0.960 . S
H3366 C3379 0.961 . S
H3367 C3379 0.959 . S
H3368 C3382 0.929 . S
H3369 C3383 0.931 . S
H3370 C3385 0.930 . S
C3371 H3359 0.930 . S
C3371 C3372 1.399 . S
C3371 C3376 1.399 . S
C3372 C3371 1.399 . S
C3372 C3373 1.376 . S
C3373 H3360 0.930 . S
C3373 C3372 1.376 . S
C3373 C3374 1.388 . S
C3374 H3361 0.930 . S
C3374 C3373 1.388 . S
C3374 C3375 1.390 . S
C3375 C3374 1.390 . S
C3375 C3376 1.394 . S
C3375 C3381 1.465 . S
C3376 C3371 1.399 . S
C3376 C3375 1.394 . S
C3376 C3377 1.516 . S
C3377 C3376 1.516 . S
C3377 C3378 1.502 . S
C3377 C3379 1.561 . S
C3377 C3380 1.526 . S
C3378 H3362 0.959 . S
C3378 H3363 0.959 . S
C3378 H3364 0.961 . S
C3378 C3377 1.502 . S
C3379 H3365 0.960 . S
C3379 H3366 0.961 . S
C3379 H3367 0.959 . S
C3379 C3377 1.561 . S
C3380 C3377 1.526 . S
C3380 C3381 1.396 . S
C3380 C3385 1.390 . S
C3381 C3375 1.465 . S
C3381 C3380 1.396 . S
C3381 C3382 1.399 . S
C3382 H3368 0.929 . S
C3382 C3381 1.399 . S
C3382 C3383 1.385 . S
C3383 H3369 0.931 . S
C3383 C3382 1.385 . S
C3383 C3384 1.389 . S
C3384 C3383 1.389 . S
C3384 C3385 1.387 . S
C3385 H3370 0.930 . S
C3385 C3380 1.390 . S
C3385 C3384 1.387 . S
H3386 C3398 0.930 . S
H3387 C3400 0.930 . S
H3388 C3401 0.931 . S
H3389 C3405 0.959 . S
H3390 C3405 0.959 . S
H3391 C3405 0.961 1_455 S
H3392 C3406 0.960 1_455 S
H3393 C3406 0.961 . S
H3394 C3406 0.959 . S
H3395 C3409 0.929 . S
H3396 C3410 0.931 . S
H3397 C3412 0.930 . S
C3398 H3386 0.930 . S
C3398 C3399 1.399 . S
C3398 C3403 1.399 . S
C3399 C3398 1.399 . S
C3399 C3400 1.376 . S
C3400 H3387 0.930 . S
C3400 C3399 1.376 . S
C3400 C3401 1.388 . S
C3401 H3388 0.931 . S
C3401 C3400 1.388 . S
C3401 C3402 1.390 1_455 S
C3402 C3401 1.390 1_655 S
C3402 C3403 1.394 1_655 S
C3402 C3408 1.465 . S
C3403 C3398 1.399 . S
C3403 C3402 1.394 1_455 S
C3403 C3404 1.516 1_455 S
C3404 C3403 1.516 1_655 S
C3404 C3405 1.502 . S
C3404 C3406 1.561 . S
C3404 C3407 1.526 . S
C3405 H3389 0.959 . S
C3405 H3390 0.959 . S
C3405 H3391 0.961 1_655 S
C3405 C3404 1.502 . S
C3406 H3392 0.960 1_655 S
C3406 H3393 0.961 . S
C3406 H3394 0.959 . S
C3406 C3404 1.561 . S
C3407 C3404 1.526 . S
C3407 C3408 1.396 . S
C3407 C3412 1.390 . S
C3408 C3402 1.465 . S
C3408 C3407 1.396 . S
C3408 C3409 1.399 . S
C3409 H3395 0.929 . S
C3409 C3408 1.399 . S
C3409 C3410 1.385 . S
C3410 H3396 0.931 . S
C3410 C3409 1.385 . S
C3410 C3411 1.389 . S
C3411 C3410 1.389 . S
C3411 C3412 1.387 . S
C3412 H3397 0.930 . S
C3412 C3407 1.390 . S
C3412 C3411 1.387 . S
H3413 C3425 0.930 . S
H3414 C3427 0.930 . S
H3415 C3428 0.930 . S
H3416 C3432 0.959 . S
H3417 C3432 0.959 . S
H3418 C3432 0.961 . S
H3419 C3433 0.960 . S
H3420 C3433 0.961 . S
H3421 C3433 0.959 1_545 S
H3422 C3436 0.929 . S
H3423 C3437 0.931 . S
H3424 C3439 0.930 1_565 S
C3425 H3413 0.930 . S
C3425 C3426 1.399 . S
C3425 C3430 1.399 . S
C3426 C3425 1.399 . S
C3426 C3427 1.376 1_565 S
C3427 H3414 0.930 . S
C3427 C3426 1.376 1_545 S
C3427 C3428 1.388 . S
C3428 H3415 0.930 . S
C3428 C3427 1.388 . S
C3428 C3429 1.390 . S
C3429 C3428 1.390 . S
C3429 C3430 1.394 1_545 S
C3429 C3435 1.465 . S
C3430 C3425 1.399 . S
C3430 C3429 1.394 1_565 S
C3430 C3431 1.516 . S
C3431 C3430 1.516 . S
C3431 C3432 1.502 . S
C3431 C3433 1.561 . S
C3431 C3434 1.526 1_565 S
C3432 H3416 0.959 . S
C3432 H3417 0.959 . S
C3432 H3418 0.961 . S
C3432 C3431 1.502 . S
C3433 H3419 0.960 . S
C3433 H3420 0.961 . S
C3433 H3421 0.959 1_565 S
C3433 C3431 1.561 . S
C3434 C3431 1.526 1_545 S
C3434 C3435 1.396 . S
C3434 C3439 1.390 . S
C3435 C3429 1.465 . S
C3435 C3434 1.396 . S
C3435 C3436 1.399 . S
C3436 H3422 0.929 . S
C3436 C3435 1.399 . S
C3436 C3437 1.385 . S
C3437 H3423 0.931 . S
C3437 C3436 1.385 . S
C3437 C3438 1.389 . S
C3438 C3437 1.389 . S
C3438 C3439 1.387 . S
C3439 H3424 0.930 1_545 S
C3439 C3434 1.390 . S
C3439 C3438 1.387 . S
H3440 C3452 0.930 . S
H3441 C3454 0.930 1_655 S
H3442 C3455 0.930 . S
H3443 C3459 0.959 . S
H3444 C3459 0.959 . S
H3445 C3459 0.961 1_554 S
H3446 C3460 0.939 1_554 S
H3447 C3460 0.981 . S
H3448 C3460 0.959 . S
H3449 C3463 0.929 . S
H3450 C3464 0.931 . S
H3451 C3466 0.930 . S
C3452 H3440 0.930 . S
C3452 C3453 1.399 . S
C3452 C3457 1.399 . S
C3453 C3452 1.399 . S
C3453 C3454 1.377 . S
C3454 H3441 0.930 1_455 S
C3454 C3453 1.377 . S
C3454 C3455 1.388 1_455 S
C3455 H3442 0.930 . S
C3455 C3454 1.388 1_655 S
C3455 C3456 1.390 . S
C3456 C3455 1.390 . S
C3456 C3457 1.394 1_655 S
C3456 C3462 1.465 1_554 S
C3457 C3452 1.399 . S
C3457 C3456 1.394 1_455 S
C3457 C3458 1.451 1_454 S
C3458 C3457 1.451 1_656 S
C3458 C3459 1.514 1_655 S
C3458 C3460 1.560 . S
C3458 C3461 1.587 . S
C3459 H3443 0.959 . S
C3459 H3444 0.959 . S
C3459 H3445 0.961 1_556 S
C3459 C3458 1.514 1_455 S
C3460 H3446 0.939 1_556 S
C3460 H3447 0.981 . S
C3460 H3448 0.959 . S
C3460 C3458 1.560 . S
C3461 C3458 1.587 . S
C3461 C3462 1.396 . S
C3461 C3466 1.390 . S
C3462 C3456 1.465 1_556 S
C3462 C3461 1.396 . S
C3462 C3463 1.399 . S
C3463 H3449 0.929 . S
C3463 C3462 1.399 . S
C3463 C3464 1.385 . S
C3464 H3450 0.931 . S
C3464 C3463 1.385 . S
C3464 C3465 1.389 . S
C3465 C3464 1.389 . S
C3465 C3466 1.387 . S
C3466 H3451 0.930 . S
C3466 C3461 1.390 . S
C3466 C3465 1.387 . S
H3467 C3479 0.930 . S
H3468 C3481 0.930 . S
H3469 C3482 0.930 . S
H3470 C3486 0.964 . S
H3471 C3486 0.976 . S
H3472 C3486 0.941 1_556 S
H3473 C3487 0.960 . S
H3474 C3487 0.961 1_554 S
H3475 C3487 0.959 . S
H3476 C3490 0.929 . S
H3477 C3491 0.931 . S
H3478 C3493 0.930 . S
C3479 H3467 0.930 . S
C3479 C3480 1.399 . S
C3479 C3484 1.399 . S
C3480 C3479 1.399 . S
C3480 C3481 1.376 . S
C3481 H3468 0.930 . S
C3481 C3480 1.376 . S
C3481 C3482 1.388 . S
C3482 H3469 0.930 . S
C3482 C3481 1.388 . S
C3482 C3483 1.390 . S
C3483 C3482 1.390 . S
C3483 C3484 1.394 . S
C3483 C3489 1.465 1_556 S
C3484 C3479 1.399 . S
C3484 C3483 1.394 . S
C3484 C3485 1.554 . S
C3485 C3484 1.554 . S
C3485 C3486 1.499 1_556 S
C3485 C3487 1.567 . S
C3485 C3488 1.486 1_556 S
C3486 H3470 0.964 . S
C3486 H3471 0.976 . S
C3486 H3472 0.941 1_554 S
C3486 C3485 1.499 1_554 S
C3487 H3473 0.960 . S
C3487 H3474 0.961 1_556 S
C3487 H3475 0.959 . S
C3487 C3485 1.567 . S
C3488 C3485 1.486 1_554 S
C3488 C3489 1.396 . S
C3488 C3493 1.390 . S
C3489 C3483 1.465 1_554 S
C3489 C3488 1.396 . S
C3489 C3490 1.399 . S
C3490 H3476 0.929 . S
C3490 C3489 1.399 . S
C3490 C3491 1.385 . S
C3491 H3477 0.931 . S
C3491 C3490 1.385 . S
C3491 C3492 1.389 . S
C3492 C3491 1.389 . S
C3492 C3493 1.387 . S
C3493 H3478 0.930 . S
C3493 C3488 1.390 . S
C3493 C3492 1.387 . S
H3494 C3506 0.930 . S
H3495 C3508 0.930 . S
H3496 C3509 0.930 . S
H3497 C3513 0.959 . S
H3498 C3513 0.959 . S
H3499 C3513 0.961 . S
H3500 C3514 0.960 . S
H3501 C3514 0.961 . S
H3502 C3514 0.959 . S
H3503 C3517 0.929 . S
H3504 C3518 0.931 . S
H3505 C3520 0.930 . S
C3506 H3494 0.930 . S
C3506 C3507 1.399 . S
C3506 C3511 1.399 . S
C3507 C3506 1.399 . S
C3507 C3508 1.376 1_655 S
C3508 H3495 0.930 . S
C3508 C3507 1.376 1_455 S
C3508 C3509 1.388 . S
C3509 H3496 0.930 . S
C3509 C3508 1.388 . S
C3509 C3510 1.390 . S
C3510 C3509 1.390 . S
C3510 C3511 1.394 1_455 S
C3510 C3516 1.465 . S
C3511 C3506 1.399 . S
C3511 C3510 1.394 1_655 S
C3511 C3512 1.516 . S
C3512 C3511 1.516 . S
C3512 C3513 1.502 . S
C3512 C3514 1.561 1_655 S
C3512 C3515 1.526 . S
C3513 H3497 0.959 . S
C3513 H3498 0.959 . S
C3513 H3499 0.961 . S
C3513 C3512 1.502 . S
C3514 H3500 0.960 . S
C3514 H3501 0.961 . S
C3514 H3502 0.959 . S
C3514 C3512 1.561 1_455 S
C3515 C3512 1.526 . S
C3515 C3516 1.396 1_655 S
C3515 C3520 1.390 . S
C3516 C3510 1.465 . S
C3516 C3515 1.396 1_455 S
C3516 C3517 1.399 . S
C3517 H3503 0.929 . S
C3517 C3516 1.399 . S
C3517 C3518 1.385 . S
C3518 H3504 0.931 . S
C3518 C3517 1.385 . S
C3518 C3519 1.389 . S
C3519 C3518 1.389 . S
C3519 C3520 1.387 1_455 S
C3520 H3505 0.930 . S
C3520 C3515 1.390 . S
C3520 C3519 1.387 1_655 S
H3521 C3533 0.930 . S
H3522 C3535 0.930 . S
H3523 C3536 0.930 . S
H3524 C3540 0.959 . S
H3525 C3540 0.959 . S
H3526 C3540 0.961 . S
H3527 C3541 0.960 . S
H3528 C3541 0.961 . S
H3529 C3541 0.959 . S
H3530 C3544 0.929 . S
H3531 C3545 0.931 . S
H3532 C3547 0.930 . S
C3533 H3521 0.930 . S
C3533 C3534 1.399 . S
C3533 C3538 1.399 . S
C3534 C3533 1.399 . S
C3534 C3535 1.376 . S
C3535 H3522 0.930 . S
C3535 C3534 1.376 . S
C3535 C3536 1.388 . S
C3536 H3523 0.930 . S
C3536 C3535 1.388 . S
C3536 C3537 1.390 . S
C3537 C3536 1.390 . S
C3537 C3538 1.394 . S
C3537 C3543 1.465 . S
C3538 C3533 1.399 . S
C3538 C3537 1.394 . S
C3538 C3539 1.516 . S
C3539 C3538 1.516 . S
C3539 C3540 1.502 . S
C3539 C3541 1.561 . S
C3539 C3542 1.526 . S
C3540 H3524 0.959 . S
C3540 H3525 0.959 . S
C3540 H3526 0.961 . S
C3540 C3539 1.502 . S
C3541 H3527 0.960 . S
C3541 H3528 0.961 . S
C3541 H3529 0.959 . S
C3541 C3539 1.561 . S
C3542 C3539 1.526 . S
C3542 C3543 1.396 . S
C3542 C3547 1.390 . S
C3543 C3537 1.465 . S
C3543 C3542 1.396 . S
C3543 C3544 1.399 . S
C3544 H3530 0.929 . S
C3544 C3543 1.399 . S
C3544 C3545 1.385 . S
C3545 H3531 0.931 . S
C3545 C3544 1.385 . S
C3545 C3546 1.389 . S
C3546 C3545 1.389 . S
C3546 C3547 1.387 . S
C3547 H3532 0.930 . S
C3547 C3542 1.390 . S
C3547 C3546 1.387 . S
H3548 C3560 0.930 . S
H3549 C3562 0.930 . S
H3550 C3563 0.930 . S
H3551 C3567 0.959 . S
H3552 C3567 0.953 1_554 S
H3553 C3567 0.967 . S
H3554 C3568 0.960 1_556 S
H3555 C3568 0.961 . S
H3556 C3568 0.959 . S
H3557 C3571 0.929 . S
H3558 C3572 0.931 . S
H3559 C3574 0.930 . S
C3560 H3548 0.930 . S
C3560 C3561 1.399 . S
C3560 C3565 1.399 . S
C3561 C3560 1.399 . S
C3561 C3562 1.376 . S
C3562 H3549 0.930 . S
C3562 C3561 1.376 . S
C3562 C3563 1.388 . S
C3563 H3550 0.930 . S
C3563 C3562 1.388 . S
C3563 C3564 1.390 . S
C3564 C3563 1.390 . S
C3564 C3565 1.394 . S
C3564 C3570 1.465 1_556 S
C3565 C3560 1.399 . S
C3565 C3564 1.394 . S
C3565 C3566 1.489 1_556 S
C3566 C3565 1.489 1_554 S
C3566 C3567 1.501 1_554 S
C3566 C3568 1.565 . S
C3566 C3569 1.552 . S
C3567 H3551 0.959 . S
C3567 H3552 0.953 1_556 S
C3567 H3553 0.967 . S
C3567 C3566 1.501 1_556 S
C3568 H3554 0.960 1_554 S
C3568 H3555 0.961 . S
C3568 H3556 0.959 . S
C3568 C3566 1.565 . S
C3569 C3566 1.552 . S
C3569 C3570 1.396 . S
C3569 C3574 1.390 . S
C3570 C3564 1.465 1_554 S
C3570 C3569 1.396 . S
C3570 C3571 1.399 . S
C3571 H3557 0.929 . S
C3571 C3570 1.399 . S
C3571 C3572 1.385 . S
C3572 H3558 0.931 . S
C3572 C3571 1.385 . S
C3572 C3573 1.389 . S
C3573 C3572 1.389 . S
C3573 C3574 1.387 . S
C3574 H3559 0.930 . S
C3574 C3569 1.390 . S
C3574 C3573 1.387 . S
H3575 C3587 0.930 . S
H3576 C3589 0.930 . S
H3577 C3590 0.930 . S
H3578 C3594 0.959 . S
H3579 C3594 0.959 . S
H3580 C3594 0.961 . S
H3581 C3595 0.957 1_655 S
H3582 C3595 0.960 1_655 S
H3583 C3595 0.959 . S
H3584 C3598 0.929 . S
H3585 C3599 0.931 . S
H3586 C3601 0.930 . S
C3587 H3575 0.930 . S
C3587 C3588 1.399 . S
C3587 C3592 1.399 . S
C3588 C3587 1.399 . S
C3588 C3589 1.376 1_655 S
C3589 H3576 0.930 . S
C3589 C3588 1.376 1_455 S
C3589 C3590 1.388 . S
C3590 H3577 0.930 . S
C3590 C3589 1.388 . S
C3590 C3591 1.390 . S
C3591 C3590 1.390 . S
C3591 C3592 1.394 1_455 S
C3591 C3597 1.465 . S
C3592 C3587 1.399 . S
C3592 C3591 1.394 1_655 S
C3592 C3593 1.516 . S
C3593 C3592 1.516 . S
C3593 C3594 1.502 . S
C3593 C3595 1.561 1_655 S
C3593 C3596 1.526 . S
C3594 H3578 0.959 . S
C3594 H3579 0.959 . S
C3594 H3580 0.961 . S
C3594 C3593 1.502 . S
C3595 H3581 0.957 1_455 S
C3595 H3582 0.960 1_455 S
C3595 H3583 0.959 . S
C3595 C3593 1.561 1_455 S
C3596 C3593 1.526 . S
C3596 C3597 1.396 1_655 S
C3596 C3601 1.390 . S
C3597 C3591 1.465 . S
C3597 C3596 1.396 1_455 S
C3597 C3598 1.399 . S
C3598 H3584 0.929 . S
C3598 C3597 1.399 . S
C3598 C3599 1.385 . S
C3599 H3585 0.931 . S
C3599 C3598 1.385 . S
C3599 C3600 1.389 . S
C3600 C3599 1.389 . S
C3600 C3601 1.387 1_455 S
C3601 H3586 0.930 . S
C3601 C3596 1.390 . S
C3601 C3600 1.387 1_655 S
H3602 C3614 0.930 . S
H3603 C3616 0.930 . S
H3604 C3617 0.930 . S
H3605 C3621 0.959 . S
H3606 C3621 0.959 . S
H3607 C3621 0.961 . S
H3608 C3622 0.960 . S
H3609 C3622 0.961 . S
H3610 C3622 0.959 . S
H3611 C3625 0.929 . S
H3612 C3626 0.931 . S
H3613 C3628 0.930 . S
C3614 H3602 0.930 . S
C3614 C3615 1.399 . S
C3614 C3619 1.399 . S
C3615 C3614 1.399 . S
C3615 C3616 1.376 . S
C3616 H3603 0.930 . S
C3616 C3615 1.376 . S
C3616 C3617 1.388 . S
C3617 H3604 0.930 . S
C3617 C3616 1.388 . S
C3617 C3618 1.390 . S
C3618 C3617 1.390 . S
C3618 C3619 1.394 . S
C3618 C3624 1.465 . S
C3619 C3614 1.399 . S
C3619 C3618 1.394 . S
C3619 C3620 1.516 . S
C3620 C3619 1.516 . S
C3620 C3621 1.502 . S
C3620 C3622 1.561 . S
C3620 C3623 1.526 . S
C3621 H3605 0.959 . S
C3621 H3606 0.959 . S
C3621 H3607 0.961 . S
C3621 C3620 1.502 . S
C3622 H3608 0.960 . S
C3622 H3609 0.961 . S
C3622 H3610 0.959 . S
C3622 C3620 1.561 . S
C3623 C3620 1.526 . S
C3623 C3624 1.396 . S
C3623 C3628 1.390 . S
C3624 C3618 1.465 . S
C3624 C3623 1.396 . S
C3624 C3625 1.399 . S
C3625 H3611 0.929 . S
C3625 C3624 1.399 . S
C3625 C3626 1.385 . S
C3626 H3612 0.931 . S
C3626 C3625 1.385 . S
C3626 C3627 1.389 . S
C3627 C3626 1.389 . S
C3627 C3628 1.387 . S
C3628 H3613 0.930 . S
C3628 C3623 1.390 . S
C3628 C3627 1.387 . S
H3629 C3641 0.930 . S
H3630 C3643 0.930 . S
H3631 C3644 0.930 . S
H3632 C3648 0.959 . S
H3633 C3648 0.959 . S
H3634 C3648 0.961 . S
H3635 C3649 0.960 . S
H3636 C3649 0.961 . S
H3637 C3649 0.959 . S
H3638 C3652 0.929 . S
H3639 C3653 0.931 . S
H3640 C3655 0.930 . S
C3641 H3629 0.930 . S
C3641 C3642 1.399 1_645 S
C3641 C3646 1.399 . S
C3642 C3641 1.399 1_465 S
C3642 C3643 1.376 . S
C3643 H3630 0.930 . S
C3643 C3642 1.376 . S
C3643 C3644 1.388 . S
C3644 H3631 0.930 . S
C3644 C3643 1.388 . S
C3644 C3645 1.390 . S
C3645 C3644 1.390 . S
C3645 C3646 1.394 1_465 S
C3645 C3651 1.465 . S
C3646 C3641 1.399 . S
C3646 C3645 1.394 1_645 S
C3646 C3647 1.516 . S
C3647 C3646 1.516 . S
C3647 C3648 1.502 . S
C3647 C3649 1.561 1_655 S
C3647 C3650 1.526 . S
C3648 H3632 0.959 . S
C3648 H3633 0.959 . S
C3648 H3634 0.961 . S
C3648 C3647 1.502 . S
C3649 H3635 0.960 . S
C3649 H3636 0.961 . S
C3649 H3637 0.959 . S
C3649 C3647 1.561 1_455 S
C3650 C3647 1.526 . S
C3650 C3651 1.396 1_645 S
C3650 C3655 1.390 . S
C3651 C3645 1.465 . S
C3651 C3650 1.396 1_465 S
C3651 C3652 1.399 . S
C3652 H3638 0.929 . S
C3652 C3651 1.399 . S
C3652 C3653 1.385 . S
C3653 H3639 0.931 . S
C3653 C3652 1.385 . S
C3653 C3654 1.389 1_465 S
C3654 C3653 1.389 1_645 S
C3654 C3655 1.387 . S
C3655 H3640 0.930 . S
C3655 C3650 1.390 . S
C3655 C3654 1.387 . S
H3656 C3668 0.930 . S
H3657 C3670 0.930 . S
H3658 C3671 0.930 . S
H3659 C3675 0.959 . S
H3660 C3675 0.959 . S
H3661 C3675 0.961 . S
H3662 C3676 0.960 . S
H3663 C3676 0.961 . S
H3664 C3676 0.959 . S
H3665 C3679 0.929 . S
H3666 C3680 0.931 . S
H3667 C3682 0.930 . S
C3668 H3656 0.930 . S
C3668 C3669 1.399 . S
C3668 C3673 1.399 . S
C3669 C3668 1.399 . S
C3669 C3670 1.376 . S
C3670 H3657 0.930 . S
C3670 C3669 1.376 . S
C3670 C3671 1.388 . S
C3671 H3658 0.930 . S
C3671 C3670 1.388 . S
C3671 C3672 1.390 . S
C3672 C3671 1.390 . S
C3672 C3673 1.394 . S
C3672 C3678 1.465 . S
C3673 C3668 1.399 . S
C3673 C3672 1.394 . S
C3673 C3674 1.516 . S
C3674 C3673 1.516 . S
C3674 C3675 1.502 . S
C3674 C3676 1.561 . S
C3674 C3677 1.526 . S
C3675 H3659 0.959 . S
C3675 H3660 0.959 . S
C3675 H3661 0.961 . S
C3675 C3674 1.502 . S
C3676 H3662 0.960 . S
C3676 H3663 0.961 . S
C3676 H3664 0.959 . S
C3676 C3674 1.561 . S
C3677 C3674 1.526 . S
C3677 C3678 1.396 . S
C3677 C3682 1.390 . S
C3678 C3672 1.465 . S
C3678 C3677 1.396 . S
C3678 C3679 1.399 . S
C3679 H3665 0.929 . S
C3679 C3678 1.399 . S
C3679 C3680 1.385 . S
C3680 H3666 0.931 . S
C3680 C3679 1.385 . S
C3680 C3681 1.389 . S
C3681 C3680 1.389 . S
C3681 C3682 1.387 . S
C3682 H3667 0.930 . S
C3682 C3677 1.390 . S
C3682 C3681 1.387 . S
H3683 C3695 0.930 . S
H3684 C3697 0.930 . S
H3685 C3698 0.930 . S
H3686 C3702 0.959 . S
H3687 C3702 0.959 . S
H3688 C3702 0.961 . S
H3689 C3703 0.960 . S
H3690 C3703 0.961 . S
H3691 C3703 0.959 . S
H3692 C3706 0.929 . S
H3693 C3707 0.931 . S
H3694 C3709 0.930 . S
C3695 H3683 0.930 . S
C3695 C3696 1.399 . S
C3695 C3700 1.399 . S
C3696 C3695 1.399 . S
C3696 C3697 1.376 1_545 S
C3697 H3684 0.930 . S
C3697 C3696 1.376 1_565 S
C3697 C3698 1.388 . S
C3698 H3685 0.930 . S
C3698 C3697 1.388 . S
C3698 C3699 1.390 . S
C3699 C3698 1.390 . S
C3699 C3700 1.394 1_565 S
C3699 C3705 1.465 . S
C3700 C3695 1.399 . S
C3700 C3699 1.394 1_545 S
C3700 C3701 1.516 . S
C3701 C3700 1.516 . S
C3701 C3702 1.502 . S
C3701 C3703 1.561 . S
C3701 C3704 1.526 . S
C3702 H3686 0.959 . S
C3702 H3687 0.959 . S
C3702 H3688 0.961 . S
C3702 C3701 1.502 . S
C3703 H3689 0.960 . S
C3703 H3690 0.961 . S
C3703 H3691 0.959 . S
C3703 C3701 1.561 . S
C3704 C3701 1.526 . S
C3704 C3705 1.396 1_545 S
C3704 C3709 1.390 . S
C3705 C3699 1.465 . S
C3705 C3704 1.396 1_565 S
C3705 C3706 1.399 . S
C3706 H3692 0.929 . S
C3706 C3705 1.399 . S
C3706 C3707 1.385 . S
C3707 H3693 0.931 . S
C3707 C3706 1.385 . S
C3707 C3708 1.389 . S
C3708 C3707 1.389 . S
C3708 C3709 1.387 1_565 S
C3709 H3694 0.930 . S
C3709 C3704 1.390 . S
C3709 C3708 1.387 1_545 S
H3710 C3722 0.930 . S
H3711 C3724 0.930 . S
H3712 C3725 0.930 . S
H3713 C3729 0.959 . S
H3714 C3729 0.959 . S
H3715 C3729 0.961 . S
H3716 C3730 0.960 . S
H3717 C3730 0.961 . S
H3718 C3730 0.959 . S
H3719 C3733 0.929 . S
H3720 C3734 0.931 . S
H3721 C3736 0.930 . S
C3722 H3710 0.930 . S
C3722 C3723 1.399 . S
C3722 C3727 1.399 . S
C3723 C3722 1.399 . S
C3723 C3724 1.376 . S
C3724 H3711 0.930 . S
C3724 C3723 1.376 . S
C3724 C3725 1.388 . S
C3725 H3712 0.930 . S
C3725 C3724 1.388 . S
C3725 C3726 1.390 . S
C3726 C3725 1.390 . S
C3726 C3727 1.394 . S
C3726 C3732 1.465 . S
C3727 C3722 1.399 . S
C3727 C3726 1.394 . S
C3727 C3728 1.516 . S
C3728 C3727 1.516 . S
C3728 C3729 1.502 . S
C3728 C3730 1.561 . S
C3728 C3731 1.526 . S
C3729 H3713 0.959 . S
C3729 H3714 0.959 . S
C3729 H3715 0.961 . S
C3729 C3728 1.502 . S
C3730 H3716 0.960 . S
C3730 H3717 0.961 . S
C3730 H3718 0.959 . S
C3730 C3728 1.561 . S
C3731 C3728 1.526 . S
C3731 C3732 1.396 . S
C3731 C3736 1.390 . S
C3732 C3726 1.465 . S
C3732 C3731 1.396 . S
C3732 C3733 1.399 . S
C3733 H3719 0.929 . S
C3733 C3732 1.399 . S
C3733 C3734 1.385 . S
C3734 H3720 0.931 . S
C3734 C3733 1.385 . S
C3734 C3735 1.389 . S
C3735 C3734 1.389 . S
C3735 C3736 1.387 . S
C3736 H3721 0.930 . S
C3736 C3731 1.390 . S
C3736 C3735 1.387 . S
H3737 C3749 0.930 . S
H3738 C3751 0.930 . S
H3739 C3752 0.930 . S
H3740 C3756 0.959 . S
H3741 C3756 0.959 . S
H3742 C3756 0.961 . S
H3743 C3757 0.960 . S
H3744 C3757 0.961 . S
H3745 C3757 0.959 . S
H3746 C3760 0.929 . S
H3747 C3761 0.931 . S
H3748 C3763 0.930 . S
C3749 H3737 0.930 . S
C3749 C3750 1.399 . S
C3749 C3754 1.399 . S
C3750 C3749 1.399 . S
C3750 C3751 1.376 1_565 S
C3751 H3738 0.930 . S
C3751 C3750 1.376 1_545 S
C3751 C3752 1.388 . S
C3752 H3739 0.930 . S
C3752 C3751 1.388 . S
C3752 C3753 1.390 . S
C3753 C3752 1.390 . S
C3753 C3754 1.394 1_545 S
C3753 C3759 1.465 . S
C3754 C3749 1.399 . S
C3754 C3753 1.394 1_565 S
C3754 C3755 1.516 . S
C3755 C3754 1.516 . S
C3755 C3756 1.502 . S
C3755 C3757 1.561 . S
C3755 C3758 1.526 . S
C3756 H3740 0.959 . S
C3756 H3741 0.959 . S
C3756 H3742 0.961 . S
C3756 C3755 1.502 . S
C3757 H3743 0.960 . S
C3757 H3744 0.961 . S
C3757 H3745 0.959 . S
C3757 C3755 1.561 . S
C3758 C3755 1.526 . S
C3758 C3759 1.396 1_565 S
C3758 C3763 1.390 . S
C3759 C3753 1.465 . S
C3759 C3758 1.396 1_545 S
C3759 C3760 1.399 . S
C3760 H3746 0.929 . S
C3760 C3759 1.399 . S
C3760 C3761 1.385 . S
C3761 H3747 0.931 . S
C3761 C3760 1.385 . S
C3761 C3762 1.389 . S
C3762 C3761 1.389 . S
C3762 C3763 1.387 1_545 S
C3763 H3748 0.930 . S
C3763 C3758 1.390 . S
C3763 C3762 1.387 1_565 S
H3764 C3776 0.930 . S
H3765 C3778 0.930 . S
H3766 C3779 0.930 . S
H3767 C3783 0.959 . S
H3768 C3783 0.959 . S
H3769 C3783 0.961 . S
H3770 C3784 0.960 . S
H3771 C3784 0.961 . S
H3772 C3784 0.959 . S
H3773 C3787 0.929 . S
H3774 C3788 0.931 . S
H3775 C3790 0.930 . S
C3776 H3764 0.930 . S
C3776 C3777 1.399 . S
C3776 C3781 1.399 . S
C3777 C3776 1.399 . S
C3777 C3778 1.376 . S
C3778 H3765 0.930 . S
C3778 C3777 1.376 . S
C3778 C3779 1.388 . S
C3779 H3766 0.930 . S
C3779 C3778 1.388 . S
C3779 C3780 1.390 . S
C3780 C3779 1.390 . S
C3780 C3781 1.394 . S
C3780 C3786 1.465 . S
C3781 C3776 1.399 . S
C3781 C3780 1.394 . S
C3781 C3782 1.516 . S
C3782 C3781 1.516 . S
C3782 C3783 1.502 . S
C3782 C3784 1.561 . S
C3782 C3785 1.526 . S
C3783 H3767 0.959 . S
C3783 H3768 0.959 . S
C3783 H3769 0.961 . S
C3783 C3782 1.502 . S
C3784 H3770 0.960 . S
C3784 H3771 0.961 . S
C3784 H3772 0.959 . S
C3784 C3782 1.561 . S
C3785 C3782 1.526 . S
C3785 C3786 1.396 . S
C3785 C3790 1.390 . S
C3786 C3780 1.465 . S
C3786 C3785 1.396 . S
C3786 C3787 1.399 . S
C3787 H3773 0.929 . S
C3787 C3786 1.399 . S
C3787 C3788 1.385 . S
C3788 H3774 0.931 . S
C3788 C3787 1.385 . S
C3788 C3789 1.389 . S
C3789 C3788 1.389 . S
C3789 C3790 1.387 . S
C3790 H3775 0.930 . S
C3790 C3785 1.390 . S
C3790 C3789 1.387 . S
H3791 C3803 0.930 . S
H3792 C3805 0.930 . S
H3793 C3806 0.930 . S
H3794 C3810 0.959 . S
H3795 C3810 0.959 . S
H3796 C3810 0.961 . S
H3797 C3811 0.960 . S
H3798 C3811 0.961 . S
H3799 C3811 0.959 . S
H3800 C3814 0.929 . S
H3801 C3815 0.931 . S
H3802 C3817 0.930 . S
C3803 H3791 0.930 . S
C3803 C3804 1.399 . S
C3803 C3808 1.399 . S
C3804 C3803 1.399 . S
C3804 C3805 1.376 . S
C3805 H3792 0.930 . S
C3805 C3804 1.376 . S
C3805 C3806 1.388 . S
C3806 H3793 0.930 . S
C3806 C3805 1.388 . S
C3806 C3807 1.390 . S
C3807 C3806 1.390 . S
C3807 C3808 1.394 . S
C3807 C3813 1.465 . S
C3808 C3803 1.399 . S
C3808 C3807 1.394 . S
C3808 C3809 1.516 . S
C3809 C3808 1.516 . S
C3809 C3810 1.502 . S
C3809 C3811 1.561 . S
C3809 C3812 1.526 . S
C3810 H3794 0.959 . S
C3810 H3795 0.959 . S
C3810 H3796 0.961 . S
C3810 C3809 1.502 . S
C3811 H3797 0.960 . S
C3811 H3798 0.961 . S
C3811 H3799 0.959 . S
C3811 C3809 1.561 . S
C3812 C3809 1.526 . S
C3812 C3813 1.396 . S
C3812 C3817 1.390 . S
C3813 C3807 1.465 . S
C3813 C3812 1.396 . S
C3813 C3814 1.399 . S
C3814 H3800 0.929 . S
C3814 C3813 1.399 . S
C3814 C3815 1.385 . S
C3815 H3801 0.931 . S
C3815 C3814 1.385 . S
C3815 C3816 1.389 . S
C3816 C3815 1.389 . S
C3816 C3817 1.387 . S
C3817 H3802 0.930 . S
C3817 C3812 1.390 . S
C3817 C3816 1.387 . S
H3818 C3830 0.930 . S
H3819 C3832 0.930 . S
H3820 C3833 0.930 . S
H3821 C3837 0.959 . S
H3822 C3837 0.959 . S
H3823 C3837 0.961 . S
H3824 C3838 0.960 . S
H3825 C3838 0.961 . S
H3826 C3838 0.959 . S
H3827 C3841 0.929 . S
H3828 C3842 0.931 . S
H3829 C3844 0.930 . S
C3830 H3818 0.930 . S
C3830 C3831 1.399 . S
C3830 C3835 1.399 . S
C3831 C3830 1.399 . S
C3831 C3832 1.376 . S
C3832 H3819 0.930 . S
C3832 C3831 1.376 . S
C3832 C3833 1.388 . S
C3833 H3820 0.930 . S
C3833 C3832 1.388 . S
C3833 C3834 1.390 . S
C3834 C3833 1.390 . S
C3834 C3835 1.394 . S
C3834 C3840 1.465 . S
C3835 C3830 1.399 . S
C3835 C3834 1.394 . S
C3835 C3836 1.516 . S
C3836 C3835 1.516 . S
C3836 C3837 1.502 . S
C3836 C3838 1.561 . S
C3836 C3839 1.526 . S
C3837 H3821 0.959 . S
C3837 H3822 0.959 . S
C3837 H3823 0.961 . S
C3837 C3836 1.502 . S
C3838 H3824 0.960 . S
C3838 H3825 0.961 . S
C3838 H3826 0.959 . S
C3838 C3836 1.561 . S
C3839 C3836 1.526 . S
C3839 C3840 1.396 . S
C3839 C3844 1.390 . S
C3840 C3834 1.465 . S
C3840 C3839 1.396 . S
C3840 C3841 1.399 . S
C3841 H3827 0.929 . S
C3841 C3840 1.399 . S
C3841 C3842 1.385 . S
C3842 H3828 0.931 . S
C3842 C3841 1.385 . S
C3842 C3843 1.389 . S
C3843 C3842 1.389 . S
C3843 C3844 1.387 . S
C3844 H3829 0.930 . S
C3844 C3839 1.390 . S
C3844 C3843 1.387 . S
H3845 C3857 0.930 . S
H3846 C3859 0.930 . S
H3847 C3860 0.930 . S
H3848 C3864 0.959 . S
H3849 C3864 0.959 1_556 S
H3850 C3864 0.961 . S
H3851 C3865 0.960 . S
H3852 C3865 0.961 1_556 S
H3853 C3865 0.957 1_556 S
H3854 C3868 0.929 . S
H3855 C3869 0.931 . S
H3856 C3871 0.930 . S
C3857 H3845 0.930 . S
C3857 C3858 1.399 1_545 S
C3857 C3862 1.399 . S
C3858 C3857 1.399 1_565 S
C3858 C3859 1.376 . S
C3859 H3846 0.930 . S
C3859 C3858 1.376 . S
C3859 C3860 1.388 . S
C3860 H3847 0.930 . S
C3860 C3859 1.388 . S
C3860 C3861 1.390 . S
C3861 C3860 1.390 . S
C3861 C3862 1.394 1_565 S
C3861 C3867 1.465 1_554 S
C3862 C3857 1.399 . S
C3862 C3861 1.394 1_545 S
C3862 C3863 1.516 . S
C3863 C3862 1.516 . S
C3863 C3864 1.502 . S
C3863 C3865 1.561 . S
C3863 C3866 1.526 1_554 S
C3864 H3848 0.959 . S
C3864 H3849 0.959 1_554 S
C3864 H3850 0.961 . S
C3864 C3863 1.502 . S
C3865 H3851 0.960 . S
C3865 H3852 0.961 1_554 S
C3865 H3853 0.957 1_554 S
C3865 C3863 1.561 . S
C3866 C3863 1.526 1_556 S
C3866 C3867 1.396 1_545 S
C3866 C3871 1.390 . S
C3867 C3861 1.465 1_556 S
C3867 C3866 1.396 1_565 S
C3867 C3868 1.399 . S
C3868 H3854 0.929 . S
C3868 C3867 1.399 . S
C3868 C3869 1.385 . S
C3869 H3855 0.931 . S
C3869 C3868 1.385 . S
C3869 C3870 1.389 1_565 S
C3870 C3869 1.389 1_545 S
C3870 C3871 1.387 . S
C3871 H3856 0.930 . S
C3871 C3866 1.390 . S
C3871 C3870 1.387 . S
C1293 C10 1.632 . S
C1305 C1010 1.630 . S
C1320 C970 1.632 . S
C1332 C50 1.630 . S
C1347 C1090 1.632 . S
C1359 C90 1.630 . S
C1374 C130 1.618 . S
C1386 C1050 1.623 . S
C1401 C179 1.613 . S
C1413 C1179 1.607 . S
C1428 C219 1.633 . S
C1440 C1139 1.628 . S
C1455 C259 1.622 . S
C1467 C1259 1.632 . S
C1482 C1219 1.626 . S
C1494 C299 1.632 . S
C1509 C330 1.632 . S
C1521 C690 1.630 . S
C1536 C370 1.608 . S
C1548 C650 1.612 . S
C1563 C410 1.630 . S
C1575 C770 1.627 . S
C1590 C730 1.608 . S
C1602 C450 1.611 . S
C1617 C499 1.624 . S
C1629 C859 1.632 . S
C1644 C539 1.613 . S
C1656 C819 1.607 . S
C1671 C939 1.616 . S
C1683 C579 1.608 . S
C1698 C619 1.609 . S
C1710 C899 1.608 . S
C1725 C9 1.616 . S
C1737 C129 1.629 . S
C1752 C49 1.614 . S
C1764 C89 1.629 . S
C1779 C298 1.595 . S
C1791 C178 1.605 . S
C1806 C258 1.608 . S
C1818 C218 1.598 . S
C1833 C329 1.589 . S
C1845 C449 1.606 . S
C1860 C369 1.598 . S
C1872 C409 1.590 . S
C1887 C498 1.589 . S
C1899 C618 1.593 . S
C1914 C578 1.618 . S
C1926 C538 1.607 . S
C1941 C649 1.616 . S
C1953 C769 1.629 . S
C1968 C689 1.613 . S
C1980 C729 1.628 . S
C1995 C938 1.590 . S
C2007 C818 1.598 . S
C2022 C858 1.589 . S
C2034 C898 1.595 . S
C2049 C1089 1.599 . S
C2061 C969 1.590 . S
C2076 C1009 1.601 . S
C2088 C1049 1.589 . S
C2103 C1258 1.624 . S
C2115 C1138 1.614 . S
C2130 C1218 1.590 . S
C2142 C1178 1.598 . S
C2157 C59 1.526 . S
C2169 C19 1.486 . S
C2184 C99 1.498 . S
C2196 C139 1.539 . S
C2211 C210 1.475 . S
C2223 C170 1.529 . S
C2238 C290 1.476 . S
C2250 C250 1.523 . S
C2265 C339 1.507 . S
C2277 C379 1.532 . S
C2292 C419 1.486 . S
C2304 C459 1.546 . S
C2319 C530 1.478 . S
C2331 C490 1.518 . S
C2346 C570 1.476 . S
C2358 C610 1.525 . S
C2373 C659 1.530 . S
C2385 C699 1.483 . S
C2400 C779 1.516 . S
C2412 C739 1.494 . S
C2427 C810 1.475 . S
C2439 C850 1.532 . S
C2454 C890 1.547 . S
C2466 C930 1.505 . S
C2481 C979 1.519 . S
C2493 C1019 1.491 . S
C2508 C1059 1.489 . S
C2520 C1099 1.544 . S
C2535 C1170 1.544 . S
C2547 C1130 1.512 . S
C2562 C1210 1.548 . S
C2574 C1250 1.500 . S
C2589 C6 1.637 . S
C2601 C15 1.678 . S
C2616 C46 1.679 . S
C2628 C55 1.646 . S
C2643 C86 1.681 . S
C2655 C95 1.644 . S
C2670 C135 1.679 . S
C2682 C126 1.646 . S
C2697 C166 1.636 . S
C2709 C175 1.684 . S
C2724 C215 1.659 . S
C2736 C206 1.667 . S
C2751 C246 1.645 . S
C2763 C255 1.668 . S
C2778 C286 1.636 . S
C2790 C295 1.679 . S
C2805 C335 1.658 . S
C2817 C326 1.654 . S
C2832 C366 1.653 . S
C2844 C375 1.659 . S
C2859 C406 1.636 . S
C2871 C415 1.684 . S
C2886 C455 1.677 . S
C2898 C446 1.648 . S
C2913 C486 1.684 . S
C2925 C495 1.639 . S
C2940 C535 1.650 . S
C2952 C526 1.662 . S
C2967 C575 1.684 . S
C2979 C566 1.637 . S
C2994 C606 1.662 . S
C3006 C615 1.651 . S
C3021 C646 1.657 . S
C3033 C655 1.669 . S
C3048 C695 1.642 . S
C3060 C686 1.681 . S
C3075 C735 1.665 . S
C3087 C726 1.662 . S
C3102 C766 1.664 . S
C3114 C775 1.663 . S
C3129 C815 1.676 . S
C3141 C806 1.639 . S
C3156 C855 1.684 . S
C3168 C846 1.637 . S
C3183 C886 1.680 . S
C3195 C895 1.644 . S
C3210 C935 1.666 . S
C3222 C926 1.662 . S
C3237 C975 1.683 . S
C3249 C966 1.639 . S
C3264 C1006 1.671 . S
C3276 C1015 1.642 . S
C3291 C1055 1.683 . S
C3303 C1046 1.640 . S
C3318 C1095 1.681 . S
C3330 C1086 1.644 . S
C3345 C1135 1.652 . S
C3357 C1126 1.661 . S
C3372 C1175 1.672 . S
C3384 C1166 1.655 . S
C3399 C1206 1.680 . S
C3411 C1215 1.644 . S
C3426 C1246 1.636 . S
C3438 C1255 1.684 . S
C3453 C18 1.503 . S
C3465 C169 1.448 . S
C3480 C1169 1.483 . S
C3492 C58 1.470 . S
C3507 C569 1.489 . S
C3519 C98 1.464 . S
C3534 C138 1.436 . S
C3546 C929 1.497 . S
C3561 C209 1.452 . S
C3573 C1018 1.478 . S
C3588 C249 1.491 . S
C3600 C418 1.462 . S
C3615 C289 1.454 . S
C3627 C778 1.476 . S
C3642 C338 1.431 . S
C3654 C489 1.504 . S
C3669 C849 1.485 . S
C3681 C378 1.468 . S
C3696 C1249 1.464 . S
C3708 C458 1.465 . S
C3723 C529 1.457 . S
C3735 C698 1.472 . S
C3750 C1098 1.510 . S
C3762 C609 1.435 . S
C3777 C658 1.508 . S
C3789 C809 1.440 . S
C3804 C1209 1.466 . S
C3816 C738 1.463 . S
C3831 C889 1.458 . S
C3843 C1058 1.471 . S
C3858 C978 1.430 . S
C3870 C1129 1.505 . S
