# Generated by pormake.
# Topology uoi, (4)-cn, num edge types: 1
# Building blocks:
#     Node 0, Type 0, BuildingBlock: AZAVOO_clean_sbu_0, # of connection points: 4
#     Node 1, Type 0, BuildingBlock: AZAVOO_clean_sbu_0, # of connection points: 4
#     Node 2, Type 0, BuildingBlock: AZAVOO_clean_sbu_0, # of connection points: 4
#     Node 3, Type 0, BuildingBlock: AZAVOO_clean_sbu_0, # of connection points: 4
#     Node 4, Type 0, BuildingBlock: AZAVOO_clean_sbu_0, # of connection points: 4
#     Node 5, Type 0, BuildingBlock: AZAVOO_clean_sbu_0, # of connection points: 4
#     Node 6, Type 0, BuildingBlock: AZAVOO_clean_sbu_0, # of connection points: 4
#     Node 7, Type 0, BuildingBlock: AZAVOO_clean_sbu_0, # of connection points: 4
#     Node 8, Type 0, BuildingBlock: AZAVOO_clean_sbu_0, # of connection points: 4
#     Node 9, Type 0, BuildingBlock: AZAVOO_clean_sbu_0, # of connection points: 4
#     Node 10, Type 0, BuildingBlock: AZAVOO_clean_sbu_0, # of connection points: 4
#     Node 11, Type 0, BuildingBlock: AZAVOO_clean_sbu_0, # of connection points: 4
#     Node 12, Type 0, BuildingBlock: AZAVOO_clean_sbu_0, # of connection points: 4
#     Node 13, Type 0, BuildingBlock: AZAVOO_clean_sbu_0, # of connection points: 4
#     Node 14, Type 0, BuildingBlock: AZAVOO_clean_sbu_0, # of connection points: 4
#     Node 15, Type 0, BuildingBlock: AZAVOO_clean_sbu_0, # of connection points: 4
#     Node 16, Type 0, BuildingBlock: AZAVOO_clean_sbu_0, # of connection points: 4
#     Node 17, Type 0, BuildingBlock: AZAVOO_clean_sbu_0, # of connection points: 4
#     Node 18, Type 0, BuildingBlock: AZAVOO_clean_sbu_0, # of connection points: 4
#     Node 19, Type 0, BuildingBlock: AZAVOO_clean_sbu_0, # of connection points: 4
#     Node 20, Type 0, BuildingBlock: AZAVOO_clean_sbu_0, # of connection points: 4
#     Node 21, Type 0, BuildingBlock: AZAVOO_clean_sbu_0, # of connection points: 4
#     Node 22, Type 0, BuildingBlock: AZAVOO_clean_sbu_0, # of connection points: 4
#     Node 23, Type 0, BuildingBlock: AZAVOO_clean_sbu_0, # of connection points: 4
#     Node 24, Type 0, BuildingBlock: AZAVOO_clean_sbu_0, # of connection points: 4
#     Node 25, Type 0, BuildingBlock: AZAVOO_clean_sbu_0, # of connection points: 4
#     Node 26, Type 0, BuildingBlock: AZAVOO_clean_sbu_0, # of connection points: 4
#     Node 27, Type 0, BuildingBlock: AZAVOO_clean_sbu_0, # of connection points: 4
#     Node 28, Type 0, BuildingBlock: AZAVOO_clean_sbu_0, # of connection points: 4
#     Node 29, Type 0, BuildingBlock: AZAVOO_clean_sbu_0, # of connection points: 4
#     Node 30, Type 0, BuildingBlock: AZAVOO_clean_sbu_0, # of connection points: 4
#     Node 31, Type 0, BuildingBlock: AZAVOO_clean_sbu_0, # of connection points: 4
#     Edge 32, Type (0, 0), None
#     Edge 33, Type (0, 0), None
#     Edge 34, Type (0, 0), None
#     Edge 35, Type (0, 0), None
#     Edge 36, Type (0, 0), None
#     Edge 37, Type (0, 0), None
#     Edge 38, Type (0, 0), None
#     Edge 39, Type (0, 0), None
#     Edge 40, Type (0, 0), None
#     Edge 41, Type (0, 0), None
#     Edge 42, Type (0, 0), None
#     Edge 43, Type (0, 0), None
#     Edge 44, Type (0, 0), None
#     Edge 45, Type (0, 0), None
#     Edge 46, Type (0, 0), None
#     Edge 47, Type (0, 0), None
#     Edge 48, Type (0, 0), None
#     Edge 49, Type (0, 0), None
#     Edge 50, Type (0, 0), None
#     Edge 51, Type (0, 0), None
#     Edge 52, Type (0, 0), None
#     Edge 53, Type (0, 0), None
#     Edge 54, Type (0, 0), None
#     Edge 55, Type (0, 0), None
#     Edge 56, Type (0, 0), None
#     Edge 57, Type (0, 0), None
#     Edge 58, Type (0, 0), None
#     Edge 59, Type (0, 0), None
#     Edge 60, Type (0, 0), None
#     Edge 61, Type (0, 0), None
#     Edge 62, Type (0, 0), None
#     Edge 63, Type (0, 0), None
#     Edge 64, Type (0, 0), None
#     Edge 65, Type (0, 0), None
#     Edge 66, Type (0, 0), None
#     Edge 67, Type (0, 0), None
#     Edge 68, Type (0, 0), None
#     Edge 69, Type (0, 0), None
#     Edge 70, Type (0, 0), None
#     Edge 71, Type (0, 0), None
#     Edge 72, Type (0, 0), None
#     Edge 73, Type (0, 0), None
#     Edge 74, Type (0, 0), None
#     Edge 75, Type (0, 0), None
#     Edge 76, Type (0, 0), None
#     Edge 77, Type (0, 0), None
#     Edge 78, Type (0, 0), None
#     Edge 79, Type (0, 0), None
#     Edge 80, Type (0, 0), None
#     Edge 81, Type (0, 0), None
#     Edge 82, Type (0, 0), None
#     Edge 83, Type (0, 0), None
#     Edge 84, Type (0, 0), None
#     Edge 85, Type (0, 0), None
#     Edge 86, Type (0, 0), None
#     Edge 87, Type (0, 0), None
#     Edge 88, Type (0, 0), None
#     Edge 89, Type (0, 0), None
#     Edge 90, Type (0, 0), None
#     Edge 91, Type (0, 0), None
#     Edge 92, Type (0, 0), None
#     Edge 93, Type (0, 0), None
#     Edge 94, Type (0, 0), None
#     Edge 95, Type (0, 0), None
# Relax obj value: 0.328
# Max RMSD: 0.232
# Mean RMSD: 0.219
data_MOF--net-uoi--node1-AZAVOO_clean_sbu_0--edge1-none
_symmetry_space_group_name_H-M    P1
_symmetry_Int_Tables_number       1
_symmetry_cell_setting            triclinic
loop_
_symmetry_equiv_pos_as_xyz
'x, y, z'
_cell_length_a     36.590579
_cell_length_b     36.324733
_cell_length_c     7.7645499
_cell_angle_alpha  90.000403
_cell_angle_beta   90.000217
_cell_angle_gamma 89.997681
loop_
_atom_site_label
_atom_site_type_symbol
_atom_site_fract_x
_atom_site_fract_y
_atom_site_fract_z
_atom_type_partial_charge
Mg0 Mg 0.23175 0.20215 0.11063 0.0
O1 O 0.21917 0.24746 0.30712 0.0
O2 O 0.1686 0.27794 0.22364 0.0
Mg3 Mg 0.13618 0.23611 0.06261 0.0
C4 C 0.19857 0.27591 0.30816 0.0
C5 C 0.2949 0.18661 0.42263 0.0
O6 O 0.32963 0.18217 0.45891 0.0
O7 O 0.19908 0.15434 0.23074 0.0
O8 O 0.15504 0.19313 0.24892 0.0
O9 O 0.24585 0.24968 0.9453 0.0
O10 O 0.19024 0.2257 0.94216 0.0
C11 C 0.16585 0.1617 0.19915 0.0
C12 C 0.21209 0.25172 0.8976 0.0
O13 O 0.28545 0.18959 0.26431 0.0
Mg14 Mg 0.10883 0.9805 0.3606 0.0
O15 O 0.06471 0.96719 0.56046 0.0
O16 O 0.03443 0.91633 0.47651 0.0
Mg17 Mg 0.07605 0.88396 0.3144 0.0
C18 C 0.03646 0.94646 0.56148 0.0
C19 C 0.12431 0.04385 0.67297 0.0
O20 O 0.12884 0.07876 0.71025 0.0
O21 O 0.15719 0.94831 0.47688 0.0
O22 O 0.11907 0.90367 0.49736 0.0
O23 O 0.06095 0.9942 0.19883 0.0
O24 O 0.08538 0.93848 0.19284 0.0
C25 C 0.15013 0.91475 0.44634 0.0
C26 C 0.05917 0.96023 0.15038 0.0
O27 O 0.12126 0.03456 0.51439 0.0
Mg28 Mg 0.3313 0.85823 0.61089 0.0
O29 O 0.34389 0.81292 0.8074 0.0
O30 O 0.39446 0.78245 0.72397 0.0
Mg31 Mg 0.42688 0.82428 0.56295 0.0
C32 C 0.36449 0.78448 0.80847 0.0
C33 C 0.26816 0.87376 0.92288 0.0
O34 O 0.23343 0.8782 0.95918 0.0
O35 O 0.36395 0.90604 0.73102 0.0
O36 O 0.40801 0.86727 0.74922 0.0
O37 O 0.31721 0.81069 0.44557 0.0
O38 O 0.37282 0.83468 0.44245 0.0
C39 C 0.39719 0.89869 0.69935 0.0
C40 C 0.35098 0.80865 0.39789 0.0
O41 O 0.2776 0.87079 0.76456 0.0
Mg42 Mg 0.45417 0.07983 0.86063 0.0
O43 O 0.49831 0.09311 0.06042 0.0
O44 O 0.52862 0.14394 0.97645 0.0
Mg45 Mg 0.48703 0.17634 0.8143 0.0
C46 C 0.52657 0.11382 0.06142 0.0
C47 C 0.43867 1.01649 0.17304 0.0
O48 O 0.43413 0.98158 0.21032 0.0
O49 O 0.40584 0.11207 0.97692 0.0
O50 O 0.44398 0.15669 -0.00269 0.0
O51 O 0.50203 0.06608 0.69883 0.0
O52 O 0.47764 0.12182 0.69283 0.0
C53 C 0.41292 0.14563 0.94629 0.0
C54 C 0.50384 0.10005 0.65036 0.0
O55 O 0.44171 1.02578 0.01445 0.0
Mg56 Mg 0.23189 0.85824 0.37608 0.0
O57 O 0.21928 0.81296 0.1795 0.0
O58 O 0.16871 0.78249 0.26301 0.0
Mg59 Mg 0.1363 0.82434 0.42401 0.0
C60 C 0.19868 0.78451 0.17847 0.0
C61 C 0.29505 0.87375 0.06409 0.0
O62 O 0.32978 0.87817 0.0278 0.0
O63 O 0.19927 0.90609 0.25607 0.0
O64 O 0.15519 0.8673 0.23767 0.0
O65 O 0.24596 0.81069 0.54134 0.0
O66 O 0.19037 0.83471 0.54452 0.0
C67 C 0.16602 0.89872 0.28742 0.0
C68 C 0.21219 0.80866 0.58905 0.0
O69 O 0.2856 0.87077 0.22241 0.0
Mg70 Mg 0.45421 0.98044 0.62584 0.0
O71 O 0.49836 0.96718 0.42606 0.0
O72 O 0.52867 0.91633 0.50994 0.0
Mg73 Mg 0.48709 0.88393 0.67209 0.0
C74 C 0.52662 0.94647 0.425 0.0
C75 C 0.43868 0.04378 0.31347 0.0
O76 O 0.43412 0.0787 0.2762 0.0
O77 O 0.4059 0.9482 0.50944 0.0
O78 O 0.44404 0.90353 0.48899 0.0
O79 O 0.50206 0.99419 0.78771 0.0
O80 O 0.47769 0.93844 0.79358 0.0
C81 C 0.41301 0.91465 0.54012 0.0
C82 C 0.50388 0.96022 0.83611 0.0
O83 O 0.44174 0.03449 0.47204 0.0
Mg84 Mg 0.33117 0.20214 0.87582 0.0
O85 O 0.3438 0.24741 0.67918 0.0
O86 O 0.39436 0.27788 0.7627 0.0
Mg87 Mg 0.42677 0.23604 0.92377 0.0
C88 C 0.3644 0.27585 0.67814 0.0
C89 C 0.26802 0.18663 0.56384 0.0
O90 O 0.23328 0.18221 0.52756 0.0
O91 O 0.3638 0.15428 0.75591 0.0
O92 O 0.40789 0.19306 0.7375 0.0
O93 O 0.31711 0.2497 0.041 0.0
O94 O 0.3727 0.22568 0.04424 0.0
C95 C 0.39704 0.16164 0.78731 0.0
C96 C 0.35087 0.25173 0.08873 0.0
O97 O 0.27746 0.18961 0.72216 0.0
Mg98 Mg 0.10879 0.07988 0.12578 0.0
O99 O 0.06466 0.09313 0.92593 0.0
O100 O 0.03431 0.14395 0.00988 0.0
Mg101 Mg 0.07587 0.17638 0.17208 0.0
C102 C 0.03638 0.11383 0.9249 0.0
C103 C 0.12434 1.01656 0.81338 0.0
O104 O 0.12892 0.98165 0.77609 0.0
O105 O 0.1571 0.11214 0.00952 0.0
O106 O 0.11894 0.15679 0.98904 0.0
O107 O 0.06094 0.0661 0.28753 0.0
O108 O 0.08529 0.12186 0.29354 0.0
C109 C 0.14999 0.14569 0.0401 0.0
C110 C 0.0591 0.10007 0.33599 0.0
O111 O 0.12129 1.02584 0.97197 0.0
Mg112 Mg 0.83125 0.85811 0.87579 0.0
O113 O 0.84383 0.8128 0.67931 0.0
O114 O 0.8944 0.78232 0.76279 0.0
Mg115 Mg 0.92682 0.82415 0.92381 0.0
C116 C 0.86443 0.78435 0.67827 0.0
C117 C 0.7681 0.87365 0.5638 0.0
O118 O 0.73338 0.8781 0.52751 0.0
O119 O 0.86392 0.90592 0.75569 0.0
O120 O 0.90796 0.86713 0.7375 0.0
O121 O 0.81715 0.81059 0.04113 0.0
O122 O 0.87276 0.83457 0.04427 0.0
C123 C 0.89716 0.89856 0.78726 0.0
C124 C 0.85091 0.80854 0.08883 0.0
O125 O 0.77755 0.87068 0.72212 0.0
Mg126 Mg 0.95417 0.07977 0.62578 0.0
O127 O 0.99829 0.09308 0.42592 0.0
O128 O 1.02857 0.14394 0.50986 0.0
Mg129 Mg 0.98695 0.17631 0.67199 0.0
C130 C 1.02653 0.11382 0.42486 0.0
C131 C 0.93869 1.01643 0.31341 0.0
O132 O 0.93416 0.98151 0.27613 0.0
O133 O 0.90581 0.11196 0.50951 0.0
O134 O 0.94393 0.1566 0.48903 0.0
O135 O 1.00205 0.06607 0.78754 0.0
O136 O 0.97762 0.12179 0.79354 0.0
C137 C 0.91287 0.14553 0.54005 0.0
C138 C 1.00384 0.10004 0.83598 0.0
O139 O 0.94174 1.02571 0.47199 0.0
Mg140 Mg 0.7317 0.20205 0.37551 0.0
O141 O 0.71911 0.24735 0.179 0.0
O142 O 0.66854 0.27782 0.26243 0.0
Mg143 Mg 0.63612 0.23599 0.42344 0.0
C144 C 0.69851 0.27579 0.17793 0.0
C145 C 0.79485 0.18651 0.06351 0.0
O146 O 0.82957 0.18207 0.02721 0.0
O147 O 0.69905 0.15423 0.25538 0.0
O148 O 0.65499 0.19301 0.23717 0.0
O149 O 0.74579 0.24958 0.54083 0.0
O150 O 0.69019 0.22559 0.54395 0.0
C151 C 0.66582 0.16159 0.28705 0.0
C152 C 0.71202 0.25162 0.58851 0.0
O153 O 0.7854 0.18949 0.22184 0.0
Mg154 Mg 0.60884 0.98044 0.1258 0.0
O155 O 0.5647 0.96717 0.92602 0.0
O156 O 0.53439 0.91633 0.00998 0.0
Mg157 Mg 0.57598 0.88393 0.17214 0.0
C158 C 0.53644 0.94645 0.92497 0.0
C159 C 0.62434 0.04378 0.81339 0.0
O160 O 0.62888 0.07869 0.77612 0.0
O161 O 0.65717 0.9482 0.0095 0.0
O162 O 0.61902 0.90358 0.98913 0.0
O163 O 0.56098 0.9942 0.2876 0.0
O164 O 0.58537 0.93845 0.29361 0.0
C165 C 0.65008 0.91464 0.04013 0.0
C166 C 0.55917 0.96023 0.33606 0.0
O167 O 0.6213 0.03449 0.97197 0.0
Mg168 Mg 0.83111 0.20203 0.61032 0.0
O169 O 0.84373 0.24732 0.80689 0.0
O170 O 0.8943 0.27778 0.72338 0.0
Mg171 Mg 0.9267 0.23593 0.56239 0.0
C172 C 0.86433 0.27576 0.80792 0.0
C173 C 0.76796 0.18652 0.92231 0.0
O174 O 0.73323 0.1821 0.9586 0.0
O175 O 0.86373 0.15418 0.73033 0.0
O176 O 0.90781 0.19298 0.74873 0.0
O177 O 0.81704 0.24958 0.44505 0.0
O178 O 0.87264 0.22556 0.44187 0.0
C179 C 0.89698 0.16155 0.69897 0.0
C180 C 0.85081 0.2516 0.39734 0.0
O181 O 0.7774 0.1895 0.76399 0.0
Mg182 Mg 0.6088 0.07983 0.36059 0.0
O183 O 0.56465 0.09309 0.56036 0.0
O184 O 0.53434 0.14394 0.4765 0.0
Mg185 Mg 0.57591 0.17635 0.31433 0.0
C186 C 0.5364 0.11381 0.56147 0.0
C187 C 0.62433 1.01649 0.67296 0.0
O188 O 0.62889 0.98158 0.71023 0.0
O189 O 0.6571 0.11208 0.47699 0.0
O190 O 0.61897 0.15674 0.49743 0.0
O191 O 0.56095 0.06608 0.19873 0.0
O192 O 0.58532 0.12183 0.19285 0.0
C193 C 0.65 0.14563 0.44629 0.0
C194 C 0.55913 0.10006 0.15033 0.0
O195 O 0.62127 1.02578 0.51438 0.0
Mg196 Mg 0.73183 0.85812 0.11061 0.0
O197 O 0.7192 0.81286 0.30726 0.0
O198 O 0.66864 0.78239 0.22374 0.0
Mg199 Mg 0.63623 0.82423 0.06267 0.0
C200 C 0.6986 0.78441 0.30829 0.0
C201 C 0.79499 0.87364 0.42259 0.0
O202 O 0.82972 0.87805 0.45887 0.0
O203 O 0.69921 0.90599 0.23051 0.0
O204 O 0.65512 0.86721 0.24893 0.0
O205 O 0.7459 0.81056 0.94544 0.0
O206 O 0.69031 0.83459 0.94219 0.0
C207 C 0.66596 0.89863 0.19912 0.0
C208 C 0.71213 0.80854 0.89771 0.0
O209 O 0.78554 0.87066 0.26427 0.0
Mg210 Mg 0.95421 0.98039 0.8606 0.0
O211 O 0.99835 0.96714 0.06044 0.0
O212 O 1.0287 0.91632 0.9765 0.0
Mg213 Mg 0.98713 0.88389 0.81429 0.0
C214 C 1.02662 0.94644 0.06151 0.0
C215 C 0.93866 0.04372 0.173 0.0
O216 O 0.93408 0.07863 0.21029 0.0
O217 O 0.9059 0.94813 0.97687 0.0
O218 O 0.94407 0.90348 -0.00266 0.0
O219 O 1.00206 0.99417 0.69885 0.0
O220 O 0.97771 0.93841 0.69284 0.0
C221 C 0.91302 0.91458 0.9463 0.0
C222 C 1.0039 0.9602 0.6504 0.0
O223 O 0.94171 0.03443 0.01441 0.0
Mg224 Mg 0.73181 0.70205 0.61062 0.0
O225 O 0.7192 0.74732 0.80725 0.0
O226 O 0.66864 0.7778 0.72377 0.0
Mg227 Mg 0.63622 0.73597 0.56272 0.0
C228 C 0.6986 0.77577 0.80834 0.0
C229 C 0.79495 0.68651 0.92261 0.0
O230 O 0.82968 0.68208 0.95891 0.0
O231 O 0.69918 0.6542 0.73059 0.0
O232 O 0.65513 0.69299 0.7489 0.0
O233 O 0.74589 0.74961 0.44543 0.0
O234 O 0.69029 0.7256 0.44219 0.0
C235 C 0.66593 0.66156 0.69907 0.0
C236 C 0.71212 0.75164 0.39772 0.0
O237 O 0.78551 0.6895 0.76429 0.0
Mg238 Mg 0.60881 0.4804 0.86058 0.0
O239 O 0.56465 0.46716 0.06036 0.0
O240 O 0.53432 0.41633 0.97645 0.0
Mg241 Mg 0.57589 0.3839 0.8143 0.0
C242 C 0.53638 0.44646 0.0614 0.0
C243 C 0.62434 0.54373 0.17298 0.0
O244 O 0.62891 0.57864 0.21026 0.0
O245 O 0.65711 0.44812 0.97695 0.0
O246 O 0.61895 0.40351 -0.0027 0.0
O247 O 0.56096 0.49417 0.69875 0.0
O248 O 0.58531 0.43841 0.69281 0.0
C249 C 0.65 0.41458 0.9462 0.0
C250 C 0.55913 0.4602 0.65031 0.0
O251 O 0.6213 0.53444 0.01439 0.0
Mg252 Mg 0.83114 0.35811 0.11034 0.0
O253 O 0.84375 0.31282 0.3069 0.0
O254 O 0.8943 0.28234 0.22337 0.0
Mg255 Mg 0.92672 0.32417 0.06233 0.0
C256 C 0.86434 0.28437 0.30796 0.0
C257 C 0.76799 0.37365 0.42233 0.0
O258 O 0.73326 0.37808 0.4586 0.0
O259 O 0.8638 0.40595 0.23032 0.0
O260 O 0.90783 0.36714 0.24859 0.0
O261 O 0.81705 0.31057 0.94509 0.0
O262 O 0.87265 0.33457 0.94186 0.0
C263 C 0.89704 0.39859 0.19888 0.0
C264 C 0.85081 0.30853 0.89736 0.0
O265 O 0.77744 0.37067 0.26401 0.0
Mg266 Mg 0.95421 0.57981 0.36058 0.0
O267 O 0.99833 0.59309 0.56045 0.0
O268 O 1.02863 0.64394 0.47657 0.0
Mg269 Mg 0.98704 0.67633 0.31444 0.0
C270 C 1.02659 0.6138 0.56151 0.0
C271 C 0.93869 0.51646 0.67293 0.0
O272 O 0.93413 0.48155 0.71021 0.0
O273 O 0.90586 0.61202 0.4769 0.0
O274 O 0.94399 0.65665 0.49738 0.0
O275 O 1.00207 0.56608 0.1988 0.0
O276 O 0.97767 0.62182 0.19286 0.0
C277 C 0.91294 0.64558 0.44626 0.0
C278 C 1.00388 0.60006 0.15038 0.0
O279 O 0.94175 0.52575 0.51435 0.0
Mg280 Mg 0.73172 0.35813 0.87552 0.0
O281 O 0.71912 0.31283 0.679 0.0
O282 O 0.66854 0.28238 0.76245 0.0
Mg283 Mg 0.63613 0.32421 0.92352 0.0
C284 C 0.69851 0.2844 0.6779 0.0
C285 C 0.79488 0.37365 0.56355 0.0
O286 O 0.82961 0.37807 0.52727 0.0
O287 O 0.69907 0.40596 0.75547 0.0
O288 O 0.65498 0.36719 0.73718 0.0
O289 O 0.7458 0.31059 0.04082 0.0
O290 O 0.6902 0.3346 0.04396 0.0
C291 C 0.66584 0.3986 0.78702 0.0
C292 C 0.71204 0.30856 0.0885 0.0
O293 O 0.78543 0.37067 0.72186 0.0
Mg294 Mg 0.95418 0.48043 0.12576 0.0
O295 O 0.99831 0.46714 0.92589 0.0
O296 O 1.02864 0.41631 0.00991 0.0
Mg297 Mg 0.98705 0.38391 0.17209 0.0
C298 C 1.02657 0.44644 0.92491 0.0
C299 C 0.93867 0.54376 0.81335 0.0
O300 O 0.93412 0.57867 0.77605 0.0
O301 O 0.90584 0.44819 0.00955 0.0
O302 O 0.944 0.40354 0.98904 0.0
O303 O 1.00205 0.49418 0.28747 0.0
O304 O 0.97766 0.43844 0.29354 0.0
C305 C 0.91295 0.41463 0.04002 0.0
C306 C 1.00386 0.46021 0.33596 0.0
O307 O 0.94171 0.53447 0.97193 0.0
Mg308 Mg 0.83121 0.70203 0.3758 0.0
O309 O 0.84381 0.74733 0.17933 0.0
O310 O 0.89439 0.77778 0.26278 0.0
Mg311 Mg 0.92681 0.73594 0.42379 0.0
C312 C 0.86443 0.77577 0.17823 0.0
C313 C 0.76806 0.68651 0.06381 0.0
O314 O 0.73334 0.68208 0.02751 0.0
O315 O 0.86385 0.6542 0.25567 0.0
O316 O 0.90794 0.69298 0.23738 0.0
O317 O 0.81714 0.74956 0.54116 0.0
O318 O 0.87274 0.72555 0.54425 0.0
C319 C 0.89709 0.66157 0.28717 0.0
C320 C 0.8509 0.75159 0.58883 0.0
O321 O 0.77751 0.68949 0.22213 0.0
Mg322 Mg 0.60882 0.57978 0.6258 0.0
O323 O 0.56469 0.59308 0.42602 0.0
O324 O 0.5344 0.64394 0.50997 0.0
Mg325 Mg 0.576 0.67632 0.67211 0.0
C326 C 0.53644 0.61381 0.42501 0.0
C327 C 0.62432 0.51644 0.31341 0.0
O328 O 0.62885 0.48152 0.27614 0.0
O329 O 0.65716 0.612 0.50946 0.0
O330 O 0.61903 0.65667 0.48899 0.0
O331 O 0.56097 0.56606 0.78765 0.0
O332 O 0.58537 0.62179 0.79358 0.0
C333 C 0.65007 0.64556 0.54003 0.0
C334 C 0.55917 0.60004 0.83608 0.0
O335 O 0.62126 0.52573 0.47198 0.0
Mg336 Mg 0.33119 0.35821 0.37581 0.0
O337 O 0.3438 0.31294 0.17918 0.0
O338 O 0.39436 0.28246 0.26267 0.0
Mg339 Mg 0.42678 0.3243 0.42371 0.0
C340 C 0.3644 0.2845 0.1781 0.0
C341 C 0.26805 0.37375 0.06382 0.0
O342 O 0.23332 0.37818 0.02752 0.0
O343 O 0.36382 0.40606 0.25584 0.0
O344 O 0.40787 0.36728 0.23752 0.0
O345 O 0.31711 0.31066 0.541 0.0
O346 O 0.37271 0.33467 0.54425 0.0
C347 C 0.39706 0.39871 0.28735 0.0
C348 C 0.35088 0.30862 0.58872 0.0
O349 O 0.27749 0.37077 0.22214 0.0
Mg350 Mg 0.4542 0.57988 0.12581 0.0
O351 O 0.49835 0.59311 0.92605 0.0
O352 O 0.52869 0.64394 0.00994 0.0
Mg353 Mg 0.48712 0.67637 0.17211 0.0
C354 C 0.52662 0.61382 0.92496 0.0
C355 C 0.43866 0.51655 0.81342 0.0
O356 O 0.43409 0.48163 0.77614 0.0
O357 O 0.4059 0.61215 0.00944 0.0
O358 O 0.44405 0.65676 0.9891 0.0
O359 O 0.50204 0.56609 0.28765 0.0
O360 O 0.47769 0.62186 0.29359 0.0
C361 C 0.413 0.6457 0.0402 0.0
C362 C 0.50387 0.60007 0.33608 0.0
O363 O 0.4417 0.52583 0.972 0.0
Mg364 Mg 0.23186 0.70216 0.87606 0.0
O365 O 0.21926 0.74745 0.67948 0.0
O366 O 0.1687 0.77793 0.76302 0.0
Mg367 Mg 0.13628 0.7361 0.92406 0.0
C368 C 0.19866 0.7759 0.67843 0.0
C369 C 0.29501 0.68662 0.56407 0.0
O370 O 0.32974 0.68219 0.52779 0.0
O371 O 0.19921 0.65432 0.75608 0.0
O372 O 0.15517 0.69312 0.73781 0.0
O373 O 0.24595 0.7497 0.0413 0.0
O374 O 0.19035 0.72571 0.04453 0.0
C375 C 0.16597 0.66168 0.78752 0.0
C376 C 0.21219 0.75174 0.08903 0.0
O377 O 0.28556 0.6896 0.72238 0.0
Mg378 Mg 0.1088 0.48046 0.62581 0.0
O379 O 0.06467 0.46718 0.42596 0.0
O380 O 0.03438 0.41632 0.50982 0.0
Mg381 Mg 0.07597 0.38393 0.67197 0.0
C382 C 0.03642 0.44645 0.42485 0.0
C383 C 0.12432 0.5438 0.31346 0.0
O384 O 0.12888 0.57871 0.27619 0.0
O385 O 0.15714 0.44824 0.50948 0.0
O386 O 0.11901 0.4036 0.48902 0.0
O387 O 0.06093 0.49418 0.78759 0.0
O388 O 0.08533 0.43845 0.79354 0.0
C389 C 0.15006 0.41468 0.54014 0.0
C390 C 0.05913 0.46021 0.836 0.0
O391 O 0.12126 0.53451 0.47204 0.0
Mg392 Mg 0.33128 0.70214 0.11087 0.0
O393 O 0.34389 0.74744 0.30739 0.0
O394 O 0.39446 0.77789 0.22395 0.0
Mg395 Mg 0.42688 0.73606 0.06288 0.0
C396 C 0.3645 0.77587 0.3085 0.0
C397 C 0.26813 0.68662 0.42285 0.0
O398 O 0.2334 0.6822 0.45913 0.0
O399 O 0.36393 0.65432 0.23093 0.0
O400 O 0.40803 0.69308 0.24922 0.0
O401 O 0.3172 0.74968 0.94558 0.0
O402 O 0.3728 0.72567 0.94244 0.0
C403 C 0.39717 0.66168 0.19937 0.0
C404 C 0.35097 0.75171 0.8979 0.0
O405 O 0.27758 0.6896 0.26453 0.0
Mg406 Mg 0.10882 0.57984 0.86064 0.0
O407 O 0.0647 0.59312 0.0605 0.0
O408 O 0.03437 0.64395 0.97649 0.0
Mg409 Mg 0.07595 0.67635 0.81429 0.0
C410 C 0.03644 0.61383 0.06153 0.0
C411 C 0.12434 0.51651 0.17305 0.0
O412 O 0.12889 0.48159 0.21034 0.0
O413 O 0.15716 0.61208 0.97684 0.0
O414 O 0.119 0.65672 -0.00266 0.0
O415 O 0.06096 0.56608 0.69892 0.0
O416 O 0.08534 0.62182 0.69285 0.0
C417 C 0.15006 0.64564 0.94638 0.0
C418 C 0.05914 0.60005 0.65044 0.0
O419 O 0.1213 0.52579 0.01446 0.0
Mg420 Mg 0.23179 0.35824 0.61062 0.0
O421 O 0.21919 0.31293 0.8071 0.0
O422 O 0.16861 0.28248 0.72365 0.0
Mg423 Mg 0.13619 0.32432 0.56264 0.0
C424 C 0.19857 0.2845 0.80819 0.0
C425 C 0.29494 0.37375 0.92262 0.0
O426 O 0.32966 0.37818 0.95892 0.0
O427 O 0.19915 0.40606 0.73076 0.0
O428 O 0.15506 0.36728 0.74905 0.0
O429 O 0.24587 0.31071 0.44527 0.0
O430 O 0.19026 0.33471 0.44217 0.0
C431 C 0.16591 0.39869 0.69925 0.0
C432 C 0.2121 0.30868 0.3976 0.0
O433 O 0.28549 0.37078 0.7643 0.0
Mg434 Mg 0.45418 0.48049 0.3606 0.0
O435 O 0.49832 0.46719 0.56037 0.0
O436 O 0.5286 0.41633 0.47643 0.0
Mg437 Mg 0.487 0.38395 0.31428 0.0
C438 C 0.52656 0.44646 0.56143 0.0
C439 C 0.43868 0.54383 0.67299 0.0
O440 O 0.43415 0.57875 0.71026 0.0
O441 O 0.40584 0.44827 0.47694 0.0
O442 O 0.44398 0.4036 0.49741 0.0
O443 O 0.50203 0.49421 0.19876 0.0
O444 O 0.47763 0.43848 0.19282 0.0
C445 C 0.41293 0.41471 0.44638 0.0
C446 C 0.50383 0.46024 0.15033 0.0
O447 O 0.44174 0.53454 0.51441 0.0
loop_
_geom_bond_atom_site_label_1
_geom_bond_atom_site_label_2
_geom_bond_distance
_geom_bond_site_symmetry_2
_ccdc_geom_bond_type
Mg0 O1 2.028 . S
Mg0 O7 1.986 . S
Mg0 O9 2.114 1_554 S
Mg0 O10 2.251 1_554 S
Mg0 O13 2.010 . S
O1 Mg0 2.028 . S
O1 C4 1.250 . S
O2 Mg3 2.028 . S
O2 C4 1.248 . S
Mg3 O2 2.028 . S
Mg3 O8 2.032 . S
Mg3 O10 2.079 1_554 S
C4 O1 1.250 . S
C4 O2 1.248 . S
C5 O6 1.264 . S
C5 O13 1.249 . S
O6 C5 1.264 . S
O7 Mg0 1.986 . S
O7 C11 1.246 . S
O8 Mg3 2.032 . S
O8 C11 1.259 . S
O9 Mg0 2.114 1_556 S
O9 C12 1.252 . S
O10 Mg0 2.251 1_556 S
O10 Mg3 2.079 1_556 S
O10 C12 1.273 . S
C11 O7 1.246 . S
C11 O8 1.259 . S
C12 O9 1.252 . S
C12 O10 1.273 . S
O13 Mg0 2.010 . S
O13 C5 1.249 . S
Mg14 O15 2.028 . S
Mg14 O21 1.986 . S
Mg14 O23 2.114 . S
Mg14 O24 2.251 . S
Mg14 O27 2.010 . S
O15 Mg14 2.028 . S
O15 C18 1.250 . S
O16 Mg17 2.028 . S
O16 C18 1.248 . S
Mg17 O16 2.028 . S
Mg17 O22 2.032 . S
Mg17 O24 2.079 . S
C18 O15 1.250 . S
C18 O16 1.248 . S
C19 O20 1.264 . S
C19 O27 1.249 1_545 S
O20 C19 1.264 . S
O21 Mg14 1.986 . S
O21 C25 1.246 . S
O22 Mg17 2.032 . S
O22 C25 1.259 . S
O23 Mg14 2.114 . S
O23 C26 1.252 . S
O24 Mg14 2.251 . S
O24 Mg17 2.079 . S
O24 C26 1.273 . S
C25 O21 1.246 . S
C25 O22 1.259 . S
C26 O23 1.252 . S
C26 O24 1.273 . S
O27 Mg14 2.010 . S
O27 C19 1.249 1_565 S
Mg28 O29 2.028 . S
Mg28 O35 1.986 . S
Mg28 O37 2.114 . S
Mg28 O38 2.251 . S
Mg28 O41 2.010 . S
O29 Mg28 2.028 . S
O29 C32 1.250 . S
O30 Mg31 2.028 . S
O30 C32 1.248 . S
Mg31 O30 2.028 . S
Mg31 O36 2.032 . S
Mg31 O38 2.079 . S
C32 O29 1.250 . S
C32 O30 1.248 . S
C33 O34 1.264 . S
C33 O41 1.249 . S
O34 C33 1.264 . S
O35 Mg28 1.986 . S
O35 C39 1.246 . S
O36 Mg31 2.032 . S
O36 C39 1.259 . S
O37 Mg28 2.114 . S
O37 C40 1.252 . S
O38 Mg28 2.251 . S
O38 Mg31 2.079 . S
O38 C40 1.273 . S
C39 O35 1.246 . S
C39 O36 1.259 . S
C40 O37 1.252 . S
C40 O38 1.273 . S
O41 Mg28 2.010 . S
O41 C33 1.249 . S
Mg42 O43 2.028 1_556 S
Mg42 O49 1.986 . S
Mg42 O51 2.114 . S
Mg42 O52 2.251 . S
Mg42 O55 2.010 1_556 S
O43 Mg42 2.028 1_554 S
O43 C46 1.250 . S
O44 Mg45 2.028 1_554 S
O44 C46 1.248 . S
Mg45 O44 2.028 1_556 S
Mg45 O50 2.032 . S
Mg45 O52 2.079 . S
C46 O43 1.250 . S
C46 O44 1.248 . S
C47 O48 1.264 1_554 S
C47 O55 1.249 1_565 S
O48 C47 1.264 1_556 S
O49 Mg42 1.986 . S
O49 C53 1.246 . S
O50 Mg45 2.032 . S
O50 C53 1.259 . S
O51 Mg42 2.114 . S
O51 C54 1.252 . S
O52 Mg42 2.251 . S
O52 Mg45 2.079 . S
O52 C54 1.273 . S
C53 O49 1.246 . S
C53 O50 1.259 . S
C54 O51 1.252 . S
C54 O52 1.273 . S
O55 Mg42 2.010 1_554 S
O55 C47 1.249 1_545 S
Mg56 O57 2.028 . S
Mg56 O63 1.986 . S
Mg56 O65 2.114 . S
Mg56 O66 2.251 . S
Mg56 O69 2.010 . S
O57 Mg56 2.028 . S
O57 C60 1.250 . S
O58 Mg59 2.028 . S
O58 C60 1.248 . S
Mg59 O58 2.028 . S
Mg59 O64 2.032 . S
Mg59 O66 2.079 . S
C60 O57 1.250 . S
C60 O58 1.248 . S
C61 O62 1.264 . S
C61 O69 1.249 . S
O62 C61 1.264 . S
O63 Mg56 1.986 . S
O63 C67 1.246 . S
O64 Mg59 2.032 . S
O64 C67 1.259 . S
O65 Mg56 2.114 . S
O65 C68 1.252 . S
O66 Mg56 2.251 . S
O66 Mg59 2.079 . S
O66 C68 1.273 . S
C67 O63 1.246 . S
C67 O64 1.259 . S
C68 O65 1.252 . S
C68 O66 1.273 . S
O69 Mg56 2.010 . S
O69 C61 1.249 . S
Mg70 O71 2.028 . S
Mg70 O77 1.986 . S
Mg70 O79 2.114 . S
Mg70 O80 2.251 . S
Mg70 O83 2.010 . S
O71 Mg70 2.028 . S
O71 C74 1.250 . S
O72 Mg73 2.028 . S
O72 C74 1.248 . S
Mg73 O72 2.028 . S
Mg73 O78 2.032 . S
Mg73 O80 2.079 . S
C74 O71 1.250 . S
C74 O72 1.248 . S
C75 O76 1.264 . S
C75 O83 1.249 1_545 S
O76 C75 1.264 . S
O77 Mg70 1.986 . S
O77 C81 1.246 . S
O78 Mg73 2.032 . S
O78 C81 1.259 . S
O79 Mg70 2.114 . S
O79 C82 1.252 . S
O80 Mg70 2.251 . S
O80 Mg73 2.079 . S
O80 C82 1.273 . S
C81 O77 1.246 . S
C81 O78 1.259 . S
C82 O79 1.252 . S
C82 O80 1.273 . S
O83 Mg70 2.010 . S
O83 C75 1.249 1_565 S
Mg84 O85 2.028 . S
Mg84 O91 1.986 . S
Mg84 O93 2.114 1_556 S
Mg84 O94 2.251 1_556 S
Mg84 O97 2.010 . S
O85 Mg84 2.028 . S
O85 C88 1.250 . S
O86 Mg87 2.028 . S
O86 C88 1.248 . S
Mg87 O86 2.028 . S
Mg87 O92 2.032 . S
Mg87 O94 2.079 1_556 S
C88 O85 1.250 . S
C88 O86 1.248 . S
C89 O90 1.264 . S
C89 O97 1.249 . S
O90 C89 1.264 . S
O91 Mg84 1.986 . S
O91 C95 1.246 . S
O92 Mg87 2.032 . S
O92 C95 1.259 . S
O93 Mg84 2.114 1_554 S
O93 C96 1.252 . S
O94 Mg84 2.251 1_554 S
O94 Mg87 2.079 1_554 S
O94 C96 1.273 . S
C95 O91 1.246 . S
C95 O92 1.259 . S
C96 O93 1.252 . S
C96 O94 1.273 . S
O97 Mg84 2.010 . S
O97 C89 1.249 . S
Mg98 O99 2.028 1_554 S
Mg98 O105 1.986 . S
Mg98 O107 2.114 . S
Mg98 O108 2.251 . S
Mg98 O111 2.010 1_554 S
O99 Mg98 2.028 1_556 S
O99 C102 1.250 . S
O100 Mg101 2.028 1_556 S
O100 C102 1.248 . S
Mg101 O100 2.028 1_554 S
Mg101 O106 2.032 . S
Mg101 O108 2.079 . S
C102 O99 1.250 . S
C102 O100 1.248 . S
C103 O104 1.264 1_556 S
C103 O111 1.249 1_565 S
O104 C103 1.264 1_554 S
O105 Mg98 1.986 . S
O105 C109 1.246 . S
O106 Mg101 2.032 . S
O106 C109 1.259 . S
O107 Mg98 2.114 . S
O107 C110 1.252 . S
O108 Mg98 2.251 . S
O108 Mg101 2.079 . S
O108 C110 1.273 . S
C109 O105 1.246 . S
C109 O106 1.259 . S
C110 O107 1.252 . S
C110 O108 1.273 . S
O111 Mg98 2.010 1_556 S
O111 C103 1.249 1_545 S
Mg112 O113 2.028 . S
Mg112 O119 1.986 . S
Mg112 O121 2.114 1_556 S
Mg112 O122 2.251 1_556 S
Mg112 O125 2.010 . S
O113 Mg112 2.028 . S
O113 C116 1.250 . S
O114 Mg115 2.028 . S
O114 C116 1.248 . S
Mg115 O114 2.028 . S
Mg115 O120 2.032 . S
Mg115 O122 2.079 1_556 S
C116 O113 1.250 . S
C116 O114 1.248 . S
C117 O118 1.264 . S
C117 O125 1.249 . S
O118 C117 1.264 . S
O119 Mg112 1.986 . S
O119 C123 1.246 . S
O120 Mg115 2.032 . S
O120 C123 1.259 . S
O121 Mg112 2.114 1_554 S
O121 C124 1.252 . S
O122 Mg112 2.251 1_554 S
O122 Mg115 2.079 1_554 S
O122 C124 1.273 . S
C123 O119 1.246 . S
C123 O120 1.259 . S
C124 O121 1.252 . S
C124 O122 1.273 . S
O125 Mg112 2.010 . S
O125 C117 1.249 . S
Mg126 O127 2.028 . S
Mg126 O133 1.986 . S
Mg126 O135 2.114 . S
Mg126 O136 2.251 . S
Mg126 O139 2.010 . S
O127 Mg126 2.028 . S
O127 C130 1.250 . S
O128 Mg129 2.028 . S
O128 C130 1.248 . S
Mg129 O128 2.028 . S
Mg129 O134 2.032 . S
Mg129 O136 2.079 . S
C130 O127 1.250 . S
C130 O128 1.248 . S
C131 O132 1.264 . S
C131 O139 1.249 1_565 S
O132 C131 1.264 . S
O133 Mg126 1.986 . S
O133 C137 1.246 . S
O134 Mg129 2.032 . S
O134 C137 1.259 . S
O135 Mg126 2.114 . S
O135 C138 1.252 . S
O136 Mg126 2.251 . S
O136 Mg129 2.079 . S
O136 C138 1.273 . S
C137 O133 1.246 . S
C137 O134 1.259 . S
C138 O135 1.252 . S
C138 O136 1.273 . S
O139 Mg126 2.010 . S
O139 C131 1.249 1_545 S
Mg140 O141 2.028 . S
Mg140 O147 1.986 . S
Mg140 O149 2.114 . S
Mg140 O150 2.251 . S
Mg140 O153 2.010 . S
O141 Mg140 2.028 . S
O141 C144 1.250 . S
O142 Mg143 2.028 . S
O142 C144 1.248 . S
Mg143 O142 2.028 . S
Mg143 O148 2.032 . S
Mg143 O150 2.079 . S
C144 O141 1.250 . S
C144 O142 1.248 . S
C145 O146 1.264 . S
C145 O153 1.249 . S
O146 C145 1.264 . S
O147 Mg140 1.986 . S
O147 C151 1.246 . S
O148 Mg143 2.032 . S
O148 C151 1.259 . S
O149 Mg140 2.114 . S
O149 C152 1.252 . S
O150 Mg140 2.251 . S
O150 Mg143 2.079 . S
O150 C152 1.273 . S
C151 O147 1.246 . S
C151 O148 1.259 . S
C152 O149 1.252 . S
C152 O150 1.273 . S
O153 Mg140 2.010 . S
O153 C145 1.249 . S
Mg154 O155 2.028 1_554 S
Mg154 O161 1.986 . S
Mg154 O163 2.114 . S
Mg154 O164 2.251 . S
Mg154 O167 2.010 1_554 S
O155 Mg154 2.028 1_556 S
O155 C158 1.250 . S
O156 Mg157 2.028 1_556 S
O156 C158 1.248 . S
Mg157 O156 2.028 1_554 S
Mg157 O162 2.032 . S
Mg157 O164 2.079 . S
C158 O155 1.250 . S
C158 O156 1.248 . S
C159 O160 1.264 1_556 S
C159 O167 1.249 1_545 S
O160 C159 1.264 1_554 S
O161 Mg154 1.986 . S
O161 C165 1.246 . S
O162 Mg157 2.032 . S
O162 C165 1.259 . S
O163 Mg154 2.114 . S
O163 C166 1.252 . S
O164 Mg154 2.251 . S
O164 Mg157 2.079 . S
O164 C166 1.273 . S
C165 O161 1.246 . S
C165 O162 1.259 . S
C166 O163 1.252 . S
C166 O164 1.273 . S
O167 Mg154 2.010 1_556 S
O167 C159 1.249 1_565 S
Mg168 O169 2.028 . S
Mg168 O175 1.986 . S
Mg168 O177 2.114 . S
Mg168 O178 2.251 . S
Mg168 O181 2.010 . S
O169 Mg168 2.028 . S
O169 C172 1.250 . S
O170 Mg171 2.028 . S
O170 C172 1.248 . S
Mg171 O170 2.028 . S
Mg171 O176 2.032 . S
Mg171 O178 2.079 . S
C172 O169 1.250 . S
C172 O170 1.248 . S
C173 O174 1.264 . S
C173 O181 1.249 . S
O174 C173 1.264 . S
O175 Mg168 1.986 . S
O175 C179 1.246 . S
O176 Mg171 2.032 . S
O176 C179 1.259 . S
O177 Mg168 2.114 . S
O177 C180 1.252 . S
O178 Mg168 2.251 . S
O178 Mg171 2.079 . S
O178 C180 1.273 . S
C179 O175 1.246 . S
C179 O176 1.259 . S
C180 O177 1.252 . S
C180 O178 1.273 . S
O181 Mg168 2.010 . S
O181 C173 1.249 . S
Mg182 O183 2.028 . S
Mg182 O189 1.986 . S
Mg182 O191 2.114 . S
Mg182 O192 2.251 . S
Mg182 O195 2.010 . S
O183 Mg182 2.028 . S
O183 C186 1.250 . S
O184 Mg185 2.028 . S
O184 C186 1.248 . S
Mg185 O184 2.028 . S
Mg185 O190 2.032 . S
Mg185 O192 2.079 . S
C186 O183 1.250 . S
C186 O184 1.248 . S
C187 O188 1.264 . S
C187 O195 1.249 1_565 S
O188 C187 1.264 . S
O189 Mg182 1.986 . S
O189 C193 1.246 . S
O190 Mg185 2.032 . S
O190 C193 1.259 . S
O191 Mg182 2.114 . S
O191 C194 1.252 . S
O192 Mg182 2.251 . S
O192 Mg185 2.079 . S
O192 C194 1.273 . S
C193 O189 1.246 . S
C193 O190 1.259 . S
C194 O191 1.252 . S
C194 O192 1.273 . S
O195 Mg182 2.010 . S
O195 C187 1.249 1_545 S
Mg196 O197 2.028 . S
Mg196 O203 1.986 . S
Mg196 O205 2.114 1_554 S
Mg196 O206 2.251 1_554 S
Mg196 O209 2.010 . S
O197 Mg196 2.028 . S
O197 C200 1.250 . S
O198 Mg199 2.028 . S
O198 C200 1.248 . S
Mg199 O198 2.028 . S
Mg199 O204 2.032 . S
Mg199 O206 2.079 1_554 S
C200 O197 1.250 . S
C200 O198 1.248 . S
C201 O202 1.264 . S
C201 O209 1.249 . S
O202 C201 1.264 . S
O203 Mg196 1.986 . S
O203 C207 1.246 . S
O204 Mg199 2.032 . S
O204 C207 1.259 . S
O205 Mg196 2.114 1_556 S
O205 C208 1.252 . S
O206 Mg196 2.251 1_556 S
O206 Mg199 2.079 1_556 S
O206 C208 1.273 . S
C207 O203 1.246 . S
C207 O204 1.259 . S
C208 O205 1.252 . S
C208 O206 1.273 . S
O209 Mg196 2.010 . S
O209 C201 1.249 . S
Mg210 O211 2.028 1_556 S
Mg210 O217 1.986 . S
Mg210 O219 2.114 . S
Mg210 O220 2.251 . S
Mg210 O223 2.010 1_556 S
O211 Mg210 2.028 1_554 S
O211 C214 1.250 . S
O212 Mg213 2.028 1_554 S
O212 C214 1.248 . S
Mg213 O212 2.028 1_556 S
Mg213 O218 2.032 . S
Mg213 O220 2.079 . S
C214 O211 1.250 . S
C214 O212 1.248 . S
C215 O216 1.264 1_554 S
C215 O223 1.249 1_545 S
O216 C215 1.264 1_556 S
O217 Mg210 1.986 . S
O217 C221 1.246 . S
O218 Mg213 2.032 . S
O218 C221 1.259 . S
O219 Mg210 2.114 . S
O219 C222 1.252 . S
O220 Mg210 2.251 . S
O220 Mg213 2.079 . S
O220 C222 1.273 . S
C221 O217 1.246 . S
C221 O218 1.259 . S
C222 O219 1.252 . S
C222 O220 1.273 . S
O223 Mg210 2.010 1_554 S
O223 C215 1.249 1_565 S
Mg224 O225 2.028 . S
Mg224 O231 1.986 . S
Mg224 O233 2.114 . S
Mg224 O234 2.251 . S
Mg224 O237 2.010 . S
O225 Mg224 2.028 . S
O225 C228 1.250 . S
O226 Mg227 2.028 . S
O226 C228 1.248 . S
Mg227 O226 2.028 . S
Mg227 O232 2.032 . S
Mg227 O234 2.079 . S
C228 O225 1.250 . S
C228 O226 1.248 . S
C229 O230 1.264 . S
C229 O237 1.249 . S
O230 C229 1.264 . S
O231 Mg224 1.986 . S
O231 C235 1.246 . S
O232 Mg227 2.032 . S
O232 C235 1.259 . S
O233 Mg224 2.114 . S
O233 C236 1.252 . S
O234 Mg224 2.251 . S
O234 Mg227 2.079 . S
O234 C236 1.273 . S
C235 O231 1.246 . S
C235 O232 1.259 . S
C236 O233 1.252 . S
C236 O234 1.273 . S
O237 Mg224 2.010 . S
O237 C229 1.249 . S
Mg238 O239 2.028 1_556 S
Mg238 O245 1.986 . S
Mg238 O247 2.114 . S
Mg238 O248 2.251 . S
Mg238 O251 2.010 1_556 S
O239 Mg238 2.028 1_554 S
O239 C242 1.250 . S
O240 Mg241 2.028 1_554 S
O240 C242 1.248 . S
Mg241 O240 2.028 1_556 S
Mg241 O246 2.032 . S
Mg241 O248 2.079 . S
C242 O239 1.250 . S
C242 O240 1.248 . S
C243 O244 1.264 1_554 S
C243 O251 1.249 . S
O244 C243 1.264 1_556 S
O245 Mg238 1.986 . S
O245 C249 1.246 . S
O246 Mg241 2.032 . S
O246 C249 1.259 . S
O247 Mg238 2.114 . S
O247 C250 1.252 . S
O248 Mg238 2.251 . S
O248 Mg241 2.079 . S
O248 C250 1.273 . S
C249 O245 1.246 . S
C249 O246 1.259 . S
C250 O247 1.252 . S
C250 O248 1.273 . S
O251 Mg238 2.010 1_554 S
O251 C243 1.249 . S
Mg252 O253 2.028 . S
Mg252 O259 1.986 . S
Mg252 O261 2.114 1_554 S
Mg252 O262 2.251 1_554 S
Mg252 O265 2.010 . S
O253 Mg252 2.028 . S
O253 C256 1.250 . S
O254 Mg255 2.028 . S
O254 C256 1.248 . S
Mg255 O254 2.028 . S
Mg255 O260 2.032 . S
Mg255 O262 2.079 1_554 S
C256 O253 1.250 . S
C256 O254 1.248 . S
C257 O258 1.264 . S
C257 O265 1.249 . S
O258 C257 1.264 . S
O259 Mg252 1.986 . S
O259 C263 1.246 . S
O260 Mg255 2.032 . S
O260 C263 1.259 . S
O261 Mg252 2.114 1_556 S
O261 C264 1.252 . S
O262 Mg252 2.251 1_556 S
O262 Mg255 2.079 1_556 S
O262 C264 1.273 . S
C263 O259 1.246 . S
C263 O260 1.259 . S
C264 O261 1.252 . S
C264 O262 1.273 . S
O265 Mg252 2.010 . S
O265 C257 1.249 . S
Mg266 O267 2.028 . S
Mg266 O273 1.986 . S
Mg266 O275 2.114 . S
Mg266 O276 2.251 . S
Mg266 O279 2.010 . S
O267 Mg266 2.028 . S
O267 C270 1.250 . S
O268 Mg269 2.028 . S
O268 C270 1.248 . S
Mg269 O268 2.028 . S
Mg269 O274 2.032 . S
Mg269 O276 2.079 . S
C270 O267 1.250 . S
C270 O268 1.248 . S
C271 O272 1.264 . S
C271 O279 1.249 . S
O272 C271 1.264 . S
O273 Mg266 1.986 . S
O273 C277 1.246 . S
O274 Mg269 2.032 . S
O274 C277 1.259 . S
O275 Mg266 2.114 . S
O275 C278 1.252 . S
O276 Mg266 2.251 . S
O276 Mg269 2.079 . S
O276 C278 1.273 . S
C277 O273 1.246 . S
C277 O274 1.259 . S
C278 O275 1.252 . S
C278 O276 1.273 . S
O279 Mg266 2.010 . S
O279 C271 1.249 . S
Mg280 O281 2.028 . S
Mg280 O287 1.986 . S
Mg280 O289 2.114 1_556 S
Mg280 O290 2.251 1_556 S
Mg280 O293 2.010 . S
O281 Mg280 2.028 . S
O281 C284 1.250 . S
O282 Mg283 2.028 . S
O282 C284 1.248 . S
Mg283 O282 2.028 . S
Mg283 O288 2.032 . S
Mg283 O290 2.079 1_556 S
C284 O281 1.250 . S
C284 O282 1.248 . S
C285 O286 1.264 . S
C285 O293 1.249 . S
O286 C285 1.264 . S
O287 Mg280 1.986 . S
O287 C291 1.246 . S
O288 Mg283 2.032 . S
O288 C291 1.259 . S
O289 Mg280 2.114 1_554 S
O289 C292 1.252 . S
O290 Mg280 2.251 1_554 S
O290 Mg283 2.079 1_554 S
O290 C292 1.273 . S
C291 O287 1.246 . S
C291 O288 1.259 . S
C292 O289 1.252 . S
C292 O290 1.273 . S
O293 Mg280 2.010 . S
O293 C285 1.249 . S
Mg294 O295 2.028 1_554 S
Mg294 O301 1.986 . S
Mg294 O303 2.114 . S
Mg294 O304 2.251 . S
Mg294 O307 2.010 1_554 S
O295 Mg294 2.028 1_556 S
O295 C298 1.250 . S
O296 Mg297 2.028 1_556 S
O296 C298 1.248 . S
Mg297 O296 2.028 1_554 S
Mg297 O302 2.032 . S
Mg297 O304 2.079 . S
C298 O295 1.250 . S
C298 O296 1.248 . S
C299 O300 1.264 1_556 S
C299 O307 1.249 . S
O300 C299 1.264 1_554 S
O301 Mg294 1.986 . S
O301 C305 1.246 . S
O302 Mg297 2.032 . S
O302 C305 1.259 . S
O303 Mg294 2.114 . S
O303 C306 1.252 . S
O304 Mg294 2.251 . S
O304 Mg297 2.079 . S
O304 C306 1.273 . S
C305 O301 1.246 . S
C305 O302 1.259 . S
C306 O303 1.252 . S
C306 O304 1.273 . S
O307 Mg294 2.010 1_556 S
O307 C299 1.249 . S
Mg308 O309 2.028 . S
Mg308 O315 1.986 . S
Mg308 O317 2.114 . S
Mg308 O318 2.251 . S
Mg308 O321 2.010 . S
O309 Mg308 2.028 . S
O309 C312 1.250 . S
O310 Mg311 2.028 . S
O310 C312 1.248 . S
Mg311 O310 2.028 . S
Mg311 O316 2.032 . S
Mg311 O318 2.079 . S
C312 O309 1.250 . S
C312 O310 1.248 . S
C313 O314 1.264 . S
C313 O321 1.249 . S
O314 C313 1.264 . S
O315 Mg308 1.986 . S
O315 C319 1.246 . S
O316 Mg311 2.032 . S
O316 C319 1.259 . S
O317 Mg308 2.114 . S
O317 C320 1.252 . S
O318 Mg308 2.251 . S
O318 Mg311 2.079 . S
O318 C320 1.273 . S
C319 O315 1.246 . S
C319 O316 1.259 . S
C320 O317 1.252 . S
C320 O318 1.273 . S
O321 Mg308 2.010 . S
O321 C313 1.249 . S
Mg322 O323 2.028 . S
Mg322 O329 1.986 . S
Mg322 O331 2.114 . S
Mg322 O332 2.251 . S
Mg322 O335 2.010 . S
O323 Mg322 2.028 . S
O323 C326 1.250 . S
O324 Mg325 2.028 . S
O324 C326 1.248 . S
Mg325 O324 2.028 . S
Mg325 O330 2.032 . S
Mg325 O332 2.079 . S
C326 O323 1.250 . S
C326 O324 1.248 . S
C327 O328 1.264 . S
C327 O335 1.249 . S
O328 C327 1.264 . S
O329 Mg322 1.986 . S
O329 C333 1.246 . S
O330 Mg325 2.032 . S
O330 C333 1.259 . S
O331 Mg322 2.114 . S
O331 C334 1.252 . S
O332 Mg322 2.251 . S
O332 Mg325 2.079 . S
O332 C334 1.273 . S
C333 O329 1.246 . S
C333 O330 1.259 . S
C334 O331 1.252 . S
C334 O332 1.273 . S
O335 Mg322 2.010 . S
O335 C327 1.249 . S
Mg336 O337 2.028 . S
Mg336 O343 1.986 . S
Mg336 O345 2.114 . S
Mg336 O346 2.251 . S
Mg336 O349 2.010 . S
O337 Mg336 2.028 . S
O337 C340 1.250 . S
O338 Mg339 2.028 . S
O338 C340 1.248 . S
Mg339 O338 2.028 . S
Mg339 O344 2.032 . S
Mg339 O346 2.079 . S
C340 O337 1.250 . S
C340 O338 1.248 . S
C341 O342 1.264 . S
C341 O349 1.249 . S
O342 C341 1.264 . S
O343 Mg336 1.986 . S
O343 C347 1.246 . S
O344 Mg339 2.032 . S
O344 C347 1.259 . S
O345 Mg336 2.114 . S
O345 C348 1.252 . S
O346 Mg336 2.251 . S
O346 Mg339 2.079 . S
O346 C348 1.273 . S
C347 O343 1.246 . S
C347 O344 1.259 . S
C348 O345 1.252 . S
C348 O346 1.273 . S
O349 Mg336 2.010 . S
O349 C341 1.249 . S
Mg350 O351 2.028 1_554 S
Mg350 O357 1.986 . S
Mg350 O359 2.114 . S
Mg350 O360 2.251 . S
Mg350 O363 2.010 1_554 S
O351 Mg350 2.028 1_556 S
O351 C354 1.250 . S
O352 Mg353 2.028 1_556 S
O352 C354 1.248 . S
Mg353 O352 2.028 1_554 S
Mg353 O358 2.032 . S
Mg353 O360 2.079 . S
C354 O351 1.250 . S
C354 O352 1.248 . S
C355 O356 1.264 1_556 S
C355 O363 1.249 . S
O356 C355 1.264 1_554 S
O357 Mg350 1.986 . S
O357 C361 1.246 . S
O358 Mg353 2.032 . S
O358 C361 1.259 . S
O359 Mg350 2.114 . S
O359 C362 1.252 . S
O360 Mg350 2.251 . S
O360 Mg353 2.079 . S
O360 C362 1.273 . S
C361 O357 1.246 . S
C361 O358 1.259 . S
C362 O359 1.252 . S
C362 O360 1.273 . S
O363 Mg350 2.010 1_556 S
O363 C355 1.249 . S
Mg364 O365 2.028 . S
Mg364 O371 1.986 . S
Mg364 O373 2.114 1_556 S
Mg364 O374 2.251 1_556 S
Mg364 O377 2.010 . S
O365 Mg364 2.028 . S
O365 C368 1.250 . S
O366 Mg367 2.028 . S
O366 C368 1.248 . S
Mg367 O366 2.028 . S
Mg367 O372 2.032 . S
Mg367 O374 2.079 1_556 S
C368 O365 1.250 . S
C368 O366 1.248 . S
C369 O370 1.264 . S
C369 O377 1.249 . S
O370 C369 1.264 . S
O371 Mg364 1.986 . S
O371 C375 1.246 . S
O372 Mg367 2.032 . S
O372 C375 1.259 . S
O373 Mg364 2.114 1_554 S
O373 C376 1.252 . S
O374 Mg364 2.251 1_554 S
O374 Mg367 2.079 1_554 S
O374 C376 1.273 . S
C375 O371 1.246 . S
C375 O372 1.259 . S
C376 O373 1.252 . S
C376 O374 1.273 . S
O377 Mg364 2.010 . S
O377 C369 1.249 . S
Mg378 O379 2.028 . S
Mg378 O385 1.986 . S
Mg378 O387 2.114 . S
Mg378 O388 2.251 . S
Mg378 O391 2.010 . S
O379 Mg378 2.028 . S
O379 C382 1.250 . S
O380 Mg381 2.028 . S
O380 C382 1.248 . S
Mg381 O380 2.028 . S
Mg381 O386 2.032 . S
Mg381 O388 2.079 . S
C382 O379 1.250 . S
C382 O380 1.248 . S
C383 O384 1.264 . S
C383 O391 1.249 . S
O384 C383 1.264 . S
O385 Mg378 1.986 . S
O385 C389 1.246 . S
O386 Mg381 2.032 . S
O386 C389 1.259 . S
O387 Mg378 2.114 . S
O387 C390 1.252 . S
O388 Mg378 2.251 . S
O388 Mg381 2.079 . S
O388 C390 1.273 . S
C389 O385 1.246 . S
C389 O386 1.259 . S
C390 O387 1.252 . S
C390 O388 1.273 . S
O391 Mg378 2.010 . S
O391 C383 1.249 . S
Mg392 O393 2.028 . S
Mg392 O399 1.986 . S
Mg392 O401 2.114 1_554 S
Mg392 O402 2.251 1_554 S
Mg392 O405 2.010 . S
O393 Mg392 2.028 . S
O393 C396 1.250 . S
O394 Mg395 2.028 . S
O394 C396 1.248 . S
Mg395 O394 2.028 . S
Mg395 O400 2.032 . S
Mg395 O402 2.079 1_554 S
C396 O393 1.250 . S
C396 O394 1.248 . S
C397 O398 1.264 . S
C397 O405 1.249 . S
O398 C397 1.264 . S
O399 Mg392 1.986 . S
O399 C403 1.246 . S
O400 Mg395 2.032 . S
O400 C403 1.259 . S
O401 Mg392 2.114 1_556 S
O401 C404 1.252 . S
O402 Mg392 2.251 1_556 S
O402 Mg395 2.079 1_556 S
O402 C404 1.273 . S
C403 O399 1.246 . S
C403 O400 1.259 . S
C404 O401 1.252 . S
C404 O402 1.273 . S
O405 Mg392 2.010 . S
O405 C397 1.249 . S
Mg406 O407 2.028 1_556 S
Mg406 O413 1.986 . S
Mg406 O415 2.114 . S
Mg406 O416 2.251 . S
Mg406 O419 2.010 1_556 S
O407 Mg406 2.028 1_554 S
O407 C410 1.250 . S
O408 Mg409 2.028 1_554 S
O408 C410 1.248 . S
Mg409 O408 2.028 1_556 S
Mg409 O414 2.032 . S
Mg409 O416 2.079 . S
C410 O407 1.250 . S
C410 O408 1.248 . S
C411 O412 1.264 1_554 S
C411 O419 1.249 . S
O412 C411 1.264 1_556 S
O413 Mg406 1.986 . S
O413 C417 1.246 . S
O414 Mg409 2.032 . S
O414 C417 1.259 . S
O415 Mg406 2.114 . S
O415 C418 1.252 . S
O416 Mg406 2.251 . S
O416 Mg409 2.079 . S
O416 C418 1.273 . S
C417 O413 1.246 . S
C417 O414 1.259 . S
C418 O415 1.252 . S
C418 O416 1.273 . S
O419 Mg406 2.010 1_554 S
O419 C411 1.249 . S
Mg420 O421 2.028 . S
Mg420 O427 1.986 . S
Mg420 O429 2.114 . S
Mg420 O430 2.251 . S
Mg420 O433 2.010 . S
O421 Mg420 2.028 . S
O421 C424 1.250 . S
O422 Mg423 2.028 . S
O422 C424 1.248 . S
Mg423 O422 2.028 . S
Mg423 O428 2.032 . S
Mg423 O430 2.079 . S
C424 O421 1.250 . S
C424 O422 1.248 . S
C425 O426 1.264 . S
C425 O433 1.249 . S
O426 C425 1.264 . S
O427 Mg420 1.986 . S
O427 C431 1.246 . S
O428 Mg423 2.032 . S
O428 C431 1.259 . S
O429 Mg420 2.114 . S
O429 C432 1.252 . S
O430 Mg420 2.251 . S
O430 Mg423 2.079 . S
O430 C432 1.273 . S
C431 O427 1.246 . S
C431 O428 1.259 . S
C432 O429 1.252 . S
C432 O430 1.273 . S
O433 Mg420 2.010 . S
O433 C425 1.249 . S
Mg434 O435 2.028 . S
Mg434 O441 1.986 . S
Mg434 O443 2.114 . S
Mg434 O444 2.251 . S
Mg434 O447 2.010 . S
O435 Mg434 2.028 . S
O435 C438 1.250 . S
O436 Mg437 2.028 . S
O436 C438 1.248 . S
Mg437 O436 2.028 . S
Mg437 O442 2.032 . S
Mg437 O444 2.079 . S
C438 O435 1.250 . S
C438 O436 1.248 . S
C439 O440 1.264 . S
C439 O447 1.249 . S
O440 C439 1.264 . S
O441 Mg434 1.986 . S
O441 C445 1.246 . S
O442 Mg437 2.032 . S
O442 C445 1.259 . S
O443 Mg434 2.114 . S
O443 C446 1.252 . S
O444 Mg434 2.251 . S
O444 Mg437 2.079 . S
O444 C446 1.273 . S
C445 O441 1.246 . S
C445 O442 1.259 . S
C446 O443 1.252 . S
C446 O444 1.273 . S
O447 Mg434 2.010 . S
O447 C439 1.249 . S
C89 C5 3.107 . S
C19 C103 2.759 1_545 S
C61 C33 3.111 1_554 S
C47 C75 2.759 1_565 S
C201 C117 3.107 . S
C131 C215 2.759 1_565 S
C173 C145 3.111 1_556 S
C159 C187 2.759 1_545 S
C229 C313 3.111 1_556 S
C327 C243 2.759 . S
C257 C285 3.107 . S
C299 C271 2.759 . S
C425 C341 3.111 1_556 S
C439 C355 2.759 . S
C397 C369 3.107 . S
C383 C411 2.759 . S
C109 C11 1.118 . S
C67 C25 1.101 . S
C81 C39 1.101 . S
C95 C53 1.118 . S
C221 C123 1.118 . S
C179 C137 1.101 . S
C193 C151 1.101 . S
C165 C207 1.118 . S
C333 C235 1.101 . S
C249 C291 1.118 . S
C263 C305 1.118 . S
C319 C277 1.101 . S
C445 C347 1.101 . S
C361 C403 1.118 . S
C375 C417 1.118 . S
C431 C389 1.101 . S
C12 C424 1.766 . S
C214 C26 1.637 1_655 S
C396 C40 1.771 . S
C186 C54 1.635 . S
C368 C68 1.771 . S
C82 C158 1.637 . S
C96 C340 1.767 . S
C110 C130 1.635 1_455 S
C124 C312 1.766 . S
C102 C138 1.637 1_455 S
C284 C152 1.771 . S
C74 C166 1.635 . S
C256 C180 1.771 . S
C46 C194 1.637 . S
C208 C228 1.767 . S
C18 C222 1.635 1_455 S
C200 C236 1.771 . S
C438 C250 1.635 . S
C264 C172 1.767 . S
C278 C410 1.637 1_655 S
C292 C144 1.767 . S
C306 C382 1.635 1_655 S
C320 C116 1.771 . S
C334 C354 1.638 . S
C88 C348 1.771 . S
C326 C362 1.635 . S
C60 C376 1.767 . S
C390 C298 1.637 1_455 S
C404 C32 1.767 . S
C270 C418 1.635 1_655 S
C432 C4 1.771 . S
C446 C242 1.638 . S
