# Generated by pormake.
# Topology wmn, (6)-cn, num edge types: 1
# Building blocks:
#     Node 0, Type 0, BuildingBlock: KUMBOL_clean_sbu_1, # of connection points: 6
#     Node 1, Type 0, BuildingBlock: KUMBOL_clean_sbu_1, # of connection points: 6
#     Node 2, Type 0, BuildingBlock: KUMBOL_clean_sbu_1, # of connection points: 6
#     Node 3, Type 0, BuildingBlock: KUMBOL_clean_sbu_1, # of connection points: 6
#     Node 4, Type 0, BuildingBlock: KUMBOL_clean_sbu_1, # of connection points: 6
#     Node 5, Type 0, BuildingBlock: KUMBOL_clean_sbu_1, # of connection points: 6
#     Node 6, Type 0, BuildingBlock: KUMBOL_clean_sbu_1, # of connection points: 6
#     Node 7, Type 0, BuildingBlock: KUMBOL_clean_sbu_1, # of connection points: 6
#     Node 8, Type 0, BuildingBlock: KUMBOL_clean_sbu_1, # of connection points: 6
#     Node 9, Type 0, BuildingBlock: KUMBOL_clean_sbu_1, # of connection points: 6
#     Node 10, Type 0, BuildingBlock: KUMBOL_clean_sbu_1, # of connection points: 6
#     Node 11, Type 0, BuildingBlock: KUMBOL_clean_sbu_1, # of connection points: 6
#     Edge 12, Type (0, 0), BuildingBlock: XIVTED_clean_linker_0, # of connection points: 2
#     Edge 13, Type (0, 0), BuildingBlock: XIVTED_clean_linker_0, # of connection points: 2
#     Edge 14, Type (0, 0), BuildingBlock: XIVTED_clean_linker_0, # of connection points: 2
#     Edge 15, Type (0, 0), BuildingBlock: XIVTED_clean_linker_0, # of connection points: 2
#     Edge 16, Type (0, 0), BuildingBlock: XIVTED_clean_linker_0, # of connection points: 2
#     Edge 17, Type (0, 0), BuildingBlock: XIVTED_clean_linker_0, # of connection points: 2
#     Edge 18, Type (0, 0), BuildingBlock: XIVTED_clean_linker_0, # of connection points: 2
#     Edge 19, Type (0, 0), BuildingBlock: XIVTED_clean_linker_0, # of connection points: 2
#     Edge 20, Type (0, 0), BuildingBlock: XIVTED_clean_linker_0, # of connection points: 2
#     Edge 21, Type (0, 0), BuildingBlock: XIVTED_clean_linker_0, # of connection points: 2
#     Edge 22, Type (0, 0), BuildingBlock: XIVTED_clean_linker_0, # of connection points: 2
#     Edge 23, Type (0, 0), BuildingBlock: XIVTED_clean_linker_0, # of connection points: 2
#     Edge 24, Type (0, 0), BuildingBlock: XIVTED_clean_linker_0, # of connection points: 2
#     Edge 25, Type (0, 0), BuildingBlock: XIVTED_clean_linker_0, # of connection points: 2
#     Edge 26, Type (0, 0), BuildingBlock: XIVTED_clean_linker_0, # of connection points: 2
#     Edge 27, Type (0, 0), BuildingBlock: XIVTED_clean_linker_0, # of connection points: 2
#     Edge 28, Type (0, 0), BuildingBlock: XIVTED_clean_linker_0, # of connection points: 2
#     Edge 29, Type (0, 0), BuildingBlock: XIVTED_clean_linker_0, # of connection points: 2
#     Edge 30, Type (0, 0), BuildingBlock: XIVTED_clean_linker_0, # of connection points: 2
#     Edge 31, Type (0, 0), BuildingBlock: XIVTED_clean_linker_0, # of connection points: 2
#     Edge 32, Type (0, 0), BuildingBlock: XIVTED_clean_linker_0, # of connection points: 2
#     Edge 33, Type (0, 0), BuildingBlock: XIVTED_clean_linker_0, # of connection points: 2
#     Edge 34, Type (0, 0), BuildingBlock: XIVTED_clean_linker_0, # of connection points: 2
#     Edge 35, Type (0, 0), BuildingBlock: XIVTED_clean_linker_0, # of connection points: 2
#     Edge 36, Type (0, 0), BuildingBlock: XIVTED_clean_linker_0, # of connection points: 2
#     Edge 37, Type (0, 0), BuildingBlock: XIVTED_clean_linker_0, # of connection points: 2
#     Edge 38, Type (0, 0), BuildingBlock: XIVTED_clean_linker_0, # of connection points: 2
#     Edge 39, Type (0, 0), BuildingBlock: XIVTED_clean_linker_0, # of connection points: 2
#     Edge 40, Type (0, 0), BuildingBlock: XIVTED_clean_linker_0, # of connection points: 2
#     Edge 41, Type (0, 0), BuildingBlock: XIVTED_clean_linker_0, # of connection points: 2
#     Edge 42, Type (0, 0), BuildingBlock: XIVTED_clean_linker_0, # of connection points: 2
#     Edge 43, Type (0, 0), BuildingBlock: XIVTED_clean_linker_0, # of connection points: 2
#     Edge 44, Type (0, 0), BuildingBlock: XIVTED_clean_linker_0, # of connection points: 2
#     Edge 45, Type (0, 0), BuildingBlock: XIVTED_clean_linker_0, # of connection points: 2
#     Edge 46, Type (0, 0), BuildingBlock: XIVTED_clean_linker_0, # of connection points: 2
#     Edge 47, Type (0, 0), BuildingBlock: XIVTED_clean_linker_0, # of connection points: 2
# Relax obj value: 0.142
# Max RMSD: 0.301
# Mean RMSD: 0.301
data_MOF--net-wmn--node1-KUMBOL_clean_sbu_1--edge1-XIVTED_clean_linker_0
_symmetry_space_group_name_H-M    P1
_symmetry_Int_Tables_number       1
_symmetry_cell_setting            triclinic
loop_
_symmetry_equiv_pos_as_xyz
'x, y, z'
_cell_length_a     59.359691
_cell_length_b     59.352729
_cell_length_c     23.91761
_cell_angle_alpha  90.105394
_cell_angle_beta   89.94517
_cell_angle_gamma 120.13773
loop_
_atom_site_label
_atom_site_type_symbol
_atom_site_fract_x
_atom_site_fract_y
_atom_site_fract_z
_atom_type_partial_charge
C0 C 0.07339 0.28252 0.98936 0.0
C1 C 0.07763 0.27846 0.8895 0.0
C2 C 0.08725 0.29214 0.94021 0.0
C3 C 0.0532 0.25552 0.88865 0.0
C4 C 0.04929 0.259 0.9891 0.0
C5 C 0.03899 0.2459 0.93831 0.0
N6 N 0.08417 0.2954 0.03781 0.0
C7 C 0.07304 0.28449 0.08791 0.0
C8 C 0.03671 0.24892 0.04013 0.0
C9 C 0.04889 0.26149 0.08985 0.0
Gd10 Gd 0.12268 0.40344 0.04014 0.0
Gd11 Gd 0.1237 0.33513 0.0296 0.0
N12 N 0.11053 0.3146 0.94228 0.0
C13 C 0.09299 0.28816 0.84135 0.0
C14 C 0.12627 0.32332 0.89637 0.0
C15 C 0.11759 0.31051 0.84502 0.0
H16 H 0.14543 0.34022 0.89949 0.0
H17 H 0.12994 0.31777 0.80847 0.0
H18 H 0.08895 0.39195 0.16205 0.0
H19 H 0.08295 0.29321 0.12655 0.0
H20 H 0.09806 0.40637 0.25977 0.0
H21 H 0.0863 0.27828 0.80152 0.0
H22 H 0.04528 0.24493 0.84997 0.0
H23 H 0.17734 0.44234 0.96941 0.0
H24 H 0.01814 0.23094 0.04175 0.0
H25 H 0.03989 0.25325 0.12971 0.0
H26 H 0.18766 0.47408 0.25938 0.0
H27 H 0.02036 0.22797 0.9372 0.0
H28 H 0.23376 0.49606 0.08518 0.0
H29 H 0.22154 0.47887 0.98891 0.0
N30 N 0.16505 0.43822 0.05415 0.0
C31 C 0.1709 0.44819 0.10689 0.0
C32 C 0.18259 0.44935 0.01173 0.0
C33 C 0.21435 0.47997 0.07692 0.0
C34 C 0.20756 0.47024 0.02255 0.0
C35 C 0.19592 0.46902 0.11988 0.0
H36 H 0.22096 0.49409 0.18595 0.0
N37 N 0.12799 0.41662 0.13457 0.0
C38 C 0.15198 0.43682 0.14837 0.0
C39 C 0.1383 0.43466 0.24437 0.0
C40 C 0.15782 0.44617 0.2038 0.0
C41 C 0.10854 0.40631 0.17349 0.0
C42 C 0.11349 0.41486 0.22899 0.0
O43 O 0.10485 0.34684 0.96225 0.0
O44 O 0.08647 0.36757 0.00734 0.0
O45 O 0.10593 0.42795 0.05869 0.0
O46 O 0.11976 0.42769 0.9756 0.0
O47 O 0.15647 0.37297 0.99525 0.0
O48 O 0.13954 0.39734 0.95964 0.0
O49 O 0.15535 0.39858 0.07898 0.0
O50 O 0.13426 0.35669 0.11126 0.0
O51 O 0.16203 0.33928 0.02091 0.0
O52 O 0.13062 0.30419 0.05677 0.0
O53 O 0.08826 0.36834 0.08033 0.0
O54 O 0.10185 0.33888 0.10435 0.0
C55 C 0.08476 0.34979 0.97187 0.0
C56 C 0.15522 0.38763 0.95559 0.0
C57 C 0.08293 0.43331 0.98447 0.0
C58 C 0.0521 0.44949 0.97627 0.0
C59 C 0.04314 0.40896 0.9308 0.0
C60 C 0.06627 0.41165 0.95164 0.0
C61 C 0.03612 0.42765 0.94274 0.0
C62 C 0.07577 0.45223 0.99677 0.0
C63 C 0.10722 0.43562 0.00738 0.0
C64 C 0.18283 0.46675 0.21697 0.0
C65 C 0.2018 0.47817 0.17513 0.0
H66 H 0.14203 0.44126 0.28741 0.0
C67 C 0.15206 0.38126 0.11721 0.0
C68 C 0.08587 0.34828 0.10933 0.0
C69 C 0.17311 0.31892 0.09101 0.0
C70 C 0.21121 0.31639 0.12048 0.0
C71 C 0.18775 0.328 0.18738 0.0
C72 C 0.17028 0.32574 0.14569 0.0
C73 C 0.20807 0.32336 0.17498 0.0
C74 C 0.19356 0.31428 0.07858 0.0
C75 C 0.15546 0.31744 0.04614 0.0
H76 H 0.03053 0.39227 0.90516 0.0
H77 H 0.07114 0.39676 0.94207 0.0
H78 H 0.0182 0.42506 0.92501 0.0
H79 H 0.08836 0.46871 0.02302 0.0
H80 H 0.1856 0.33349 0.22939 0.0
H81 H 0.15464 0.32938 0.15607 0.0
H82 H 0.22161 0.32563 0.2078 0.0
H83 H 0.19556 0.30886 0.03635 0.0
C84 C 0.73813 0.79701 0.00648 0.0
C85 C 0.74394 0.80445 0.90645 0.0
C86 C 0.72908 0.80016 0.95545 0.0
C87 C 0.76736 0.80404 0.90916 0.0
C88 C 0.76221 0.79774 0.0098 0.0
C89 C 0.77642 0.80058 0.96071 0.0
N90 N 0.72415 0.79482 0.05321 0.0
C91 C 0.7343 0.79559 0.10492 0.0
C92 C 0.77171 0.7965 0.06254 0.0
C93 C 0.7579 0.79588 0.11034 0.0
Gd94 Gd 0.61538 0.72131 0.04573 0.0
Gd95 Gd 0.68368 0.79231 0.03884 0.0
N96 N 0.7061 0.79987 0.95398 0.0
C97 C 0.7349 0.80932 0.85638 0.0
C98 C 0.69797 0.80613 0.90617 0.0
C99 C 0.71199 0.81053 0.85646 0.0
H100 H 0.68063 0.8076 0.90653 0.0
H101 H 0.70519 0.81498 0.8184 0.0
H102 H 0.62217 0.69693 0.16807 0.0
H103 H 0.7243 0.79605 0.14231 0.0
H104 H 0.60432 0.68993 0.26351 0.0
H105 H 0.74573 0.8127 0.81781 0.0
H106 H 0.77885 0.80686 0.87185 0.0
H107 H 0.57835 0.7372 0.96751 0.0
H108 H 0.79011 0.79697 0.06688 0.0
H109 H 0.76554 0.79588 0.15141 0.0
H110 H 0.53736 0.71247 0.25209 0.0
H111 H 0.79481 0.80088 0.96238 0.0
H112 H 0.52144 0.73896 0.07432 0.0
H113 H 0.54152 0.74476 0.98089 0.0
N114 N 0.58007 0.7285 0.05312 0.0
C115 C 0.56843 0.72383 0.10422 0.0
C116 C 0.57023 0.73519 0.00876 0.0
C117 C 0.53774 0.73575 0.06882 0.0
C118 C 0.5491 0.73918 0.01605 0.0
C119 C 0.54725 0.72783 0.11366 0.0
H120 H 0.52006 0.72692 0.17539 0.0
N121 N 0.59874 0.71195 0.13724 0.0
C122 C 0.57825 0.71564 0.1476 0.0
C123 C 0.57693 0.70245 0.24364 0.0
C124 C 0.56701 0.71127 0.20132 0.0
C125 C 0.60751 0.702 0.17754 0.0
C126 C 0.59704 0.69749 0.23149 0.0
O127 O 0.6742 0.76145 0.9725 0.0
O128 O 0.65216 0.72208 0.01737 0.0
O129 O 0.59137 0.67979 0.06278 0.0
O130 O 0.59339 0.6939 0.97909 0.0
O131 O 0.64509 0.78482 0.00512 0.0
O132 O 0.6229 0.74442 0.9652 0.0
O133 O 0.61938 0.75807 0.08694 0.0
O134 O 0.66142 0.78085 0.11961 0.0
O135 O 0.67861 0.82562 0.02436 0.0
O136 O 0.71257 0.8309 0.06843 0.0
O137 O 0.64971 0.72314 0.09243 0.0
O138 O 0.68034 0.76681 0.11272 0.0
C139 C 0.67066 0.73821 0.9833 0.0
C140 C 0.63259 0.76984 0.96248 0.0
C141 C 0.5894 0.65215 0.98984 0.0
C142 C 0.57541 0.60552 0.98218 0.0
C143 C 0.61732 0.63862 0.94459 0.0
C144 C 0.61268 0.65831 0.9623 0.0
C145 C 0.59894 0.61252 0.95433 0.0
C146 C 0.57072 0.62566 0.99962 0.0
C147 C 0.58529 0.67337 0.01076 0.0
C148 C 0.54614 0.71561 0.21101 0.0
C149 C 0.53627 0.72382 0.16731 0.0
H150 H 0.56884 0.69889 0.28547 0.0
C151 C 0.63641 0.77215 0.12576 0.0
C152 C 0.67044 0.74144 0.11903 0.0
C153 C 0.69588 0.8583 0.09335 0.0
C154 C 0.69919 0.89999 0.11726 0.0
C155 C 0.68095 0.86413 0.18383 0.0
C156 C 0.68495 0.84852 0.14601 0.0
C157 C 0.68796 0.88967 0.16966 0.0
C158 C 0.70299 0.88401 0.07919 0.0
C159 C 0.69932 0.84174 0.05226 0.0
H160 H 0.63532 0.64362 0.9232 0.0
H161 H 0.62737 0.67839 0.95459 0.0
H162 H 0.60309 0.59776 0.93932 0.0
H163 H 0.55291 0.62082 0.0217 0.0
H164 H 0.67248 0.85645 0.22439 0.0
H165 H 0.67954 0.82888 0.15786 0.0
H166 H 0.68503 0.90149 0.20011 0.0
H167 H 0.71118 0.89142 0.03822 0.0
C168 C 0.22145 0.94649 0.00855 0.0
C169 C 0.21487 0.94543 0.90831 0.0
C170 C 0.21857 0.9345 0.95726 0.0
C171 C 0.21542 0.96934 0.91144 0.0
C172 C 0.22086 0.9699 0.01229 0.0
C173 C 0.21844 0.98157 0.96333 0.0
N174 N 0.22387 0.93475 0.05501 0.0
C175 C 0.2235 0.9442 0.1069 0.0
C176 C 0.2223 0.98064 0.06522 0.0
C177 C 0.2232 0.9675 0.11278 0.0
Gd178 Gd 0.29828 0.90182 0.04146 0.0
Gd179 Gd 0.22695 0.89719 0.04018 0.0
N180 N 0.21856 0.91165 0.95554 0.0
C181 C 0.2101 0.93166 0.85797 0.0
C182 C 0.21197 0.89719 0.90758 0.0
C183 C 0.20817 0.90719 0.85783 0.0
H184 H 0.21026 0.87823 0.90769 0.0
H185 H 0.20369 0.89601 0.81951 0.0
H186 H 0.32108 0.93529 0.16319 0.0
H187 H 0.22333 0.93374 0.14396 0.0
H188 H 0.33097 0.9271 0.25805 0.0
H189 H 0.20714 0.93937 0.81941 0.0
H190 H 0.21297 0.97825 0.87418 0.0
H191 H 0.28165 0.8473 0.96855 0.0
H192 H 0.22198 0.99864 0.06989 0.0
H193 H 0.22348 0.9752 0.15399 0.0
H194 H 0.31648 0.8401 0.25036 0.0
H195 H 0.21832 0.99975 0.96528 0.0
H196 H 0.28779 0.7935 0.07717 0.0
H197 H 0.27749 0.80438 0.98441 0.0
N198 N 0.29297 0.86022 0.05224 0.0
C199 C 0.2997 0.85505 0.10301 0.0
C200 C 0.28551 0.84259 0.00963 0.0
C201 C 0.28946 0.81234 0.07061 0.0
C202 C 0.28349 0.81835 0.01826 0.0
C203 C 0.29771 0.83077 0.11377 0.0
H204 H 0.30241 0.80702 0.17616 0.0
N205 N 0.30928 0.89707 0.13343 0.0
C206 C 0.30775 0.87386 0.14491 0.0
C207 C 0.32194 0.88791 0.23976 0.0
C208 C 0.31388 0.86863 0.19854 0.0
C209 C 0.3181 0.91628 0.17294 0.0
C210 C 0.32421 0.91188 0.22676 0.0
O211 O 0.25594 0.91728 0.97027 0.0
O212 O 0.29609 0.93685 0.01098 0.0
O213 O 0.34035 0.9235 0.05394 0.0
O214 O 0.32467 0.90562 0.97406 0.0
O215 O 0.23398 0.86578 0.00565 0.0
O216 O 0.27382 0.8843 0.96301 0.0
O217 O 0.26294 0.86873 0.0869 0.0
O218 O 0.24043 0.88809 0.12019 0.0
O219 O 0.19409 0.85809 0.02914 0.0
O220 O 0.1885 0.88714 0.07083 0.0
O221 O 0.29658 0.93533 0.08373 0.0
O222 O 0.25373 0.92014 0.11282 0.0
C223 C 0.27894 0.93779 0.97784 0.0
C224 C 0.24846 0.86791 0.96223 0.0
C225 C 0.36615 0.91149 0.99994 0.0
C226 C 0.41256 0.9242 0.99736 0.0
C227 C 0.37859 0.87854 0.98933 0.0
C228 C 0.35934 0.88532 0.99403 0.0
C229 C 0.40488 0.8977 0.99072 0.0
C230 C 0.39283 0.93092 1.00164 0.0
C231 C 0.34569 0.91876 0.00412 0.0
C232 C 0.31186 0.84442 0.20939 0.0
C233 C 0.30386 0.82558 0.16711 0.0
H234 H 0.32677 0.88462 0.28148 0.0
C235 C 0.24841 0.87122 0.1254 0.0
C236 C 0.27903 0.93716 0.11459 0.0
C237 C 0.16181 0.84329 0.09879 0.0
C238 C 0.12049 0.80454 0.12372 0.0
C239 C 0.15571 0.8249 0.19179 0.0
C240 C 0.17132 0.84383 0.1527 0.0
C241 C 0.13045 0.80545 0.17764 0.0
C242 C 0.1366 0.82357 0.0844 0.0
C243 C 0.17797 0.86277 0.05655 0.0
H244 H 0.3731 0.85829 0.9843 0.0
H245 H 0.33914 0.8701 0.99261 0.0
H246 H 0.41922 0.89167 0.98588 0.0
H247 H 0.39813 0.95112 0.00699 0.0
H248 H 0.16316 0.82542 0.23337 0.0
H249 H 0.19073 0.85888 0.16451 0.0
H250 H 0.11862 0.79141 0.20923 0.0
H251 H 0.1297 0.823 0.04219 0.0
C252 C 0.28773 0.09146 0.50901 0.0
C253 C 0.2884 0.10856 0.60129 0.0
C254 C 0.30055 0.11026 0.54955 0.0
C255 C 0.26382 0.08681 0.61258 0.0
C256 C 0.26247 0.07039 0.51868 0.0
C257 C 0.25085 0.06778 0.57127 0.0
N258 N 0.29959 0.09452 0.45888 0.0
C259 C 0.28652 0.07872 0.41477 0.0
C260 C 0.2494 0.05311 0.47459 0.0
C261 C 0.2613 0.0576 0.42208 0.0
Gd262 Gd 0.40252 0.11415 0.46924 0.0
Gd263 Gd 0.34208 0.12966 0.44991 0.0
N264 N 0.32395 0.13129 0.53652 0.0
C265 C 0.30079 0.12934 0.63898 0.0
C266 C 0.33464 0.15264 0.57053 0.0
C267 C 0.32373 0.15174 0.62297 0.0
H268 H 0.35149 0.1705 0.55706 0.0
H269 H 0.33281 0.16845 0.65057 0.0
H270 H 0.41506 0.10044 0.34216 0.0
H271 H 0.29584 0.08214 0.37434 0.0
H272 H 0.44644 0.12275 0.26495 0.0
H273 H 0.29218 0.12879 0.6793 0.0
H274 H 0.25429 0.085 0.65233 0.0
H275 H 0.43166 0.15074 0.5846 0.0
H276 H 0.22992 0.0367 0.48023 0.0
H277 H 0.25115 0.04471 0.38742 0.0
H278 H 0.50431 0.20837 0.33773 0.0
H279 H 0.23156 0.05155 0.57985 0.0
H280 H 0.49544 0.22361 0.53108 0.0
H281 H 0.4669 0.19509 0.60653 0.0
N282 N 0.43738 0.15529 0.49644 0.0
C283 C 0.4543 0.16974 0.45524 0.0
C284 C 0.44281 0.16348 0.55073 0.0
C285 C 0.47936 0.20444 0.5209 0.0
C286 C 0.46326 0.18843 0.56357 0.0
C287 C 0.47556 0.19483 0.4662 0.0
H288 H 0.50929 0.22837 0.43049 0.0
N289 N 0.43186 0.13377 0.3949 0.0
C290 C 0.45172 0.15851 0.40307 0.0
C291 C 0.46764 0.15906 0.3098 0.0
C292 C 0.46994 0.17199 0.36039 0.0
C293 C 0.4304 0.12048 0.34703 0.0
C294 C 0.44802 0.13307 0.30343 0.0
O295 O 0.33172 0.08913 0.47601 0.0
O296 O 0.36673 0.09155 0.52476 0.0
O297 O 0.40702 0.08034 0.4522 0.0
O298 O 0.42801 0.10606 0.51983 0.0
O299 O 0.37685 0.15396 0.50563 0.0
O300 O 0.38837 0.12617 0.54621 0.0
O301 O 0.39902 0.13574 0.39373 0.0
O302 O 0.3844 0.15824 0.44093 0.0
O303 O 0.32619 0.15584 0.444 0.0
O304 O 0.33416 0.14016 0.3683 0.0
O305 O 0.36976 0.08614 0.41312 0.0
O306 O 0.34723 0.10659 0.37889 0.0
C307 C 0.34183 0.0794 0.51072 0.0
C308 C 0.38352 0.14548 0.54986 0.0
C309 C 0.4491 0.08691 0.4726 0.0
C310 C 0.47592 0.06618 0.46447 0.0
C311 C 0.49298 0.11116 0.43509 0.0
C312 C 0.46979 0.10993 0.45064 0.0
C313 C 0.49609 0.08958 0.44197 0.0
C314 C 0.45227 0.06501 0.47978 0.0
C315 C 0.42485 0.08637 0.49007 0.0
C316 C 0.49023 0.19755 0.37017 0.0
C317 C 0.49302 0.20896 0.42297 0.0
H318 H 0.48129 0.16875 0.27598 0.0
C319 C 0.39563 0.15588 0.39653 0.0
C320 C 0.35354 0.08801 0.378 0.0
C321 C 0.31569 0.16816 0.35449 0.0
C322 C 0.30453 0.2024 0.34167 0.0
C323 C 0.29195 0.16809 0.27203 0.0
C324 C 0.30393 0.15719 0.30308 0.0
C325 C 0.29191 0.19024 0.29145 0.0
C326 C 0.3162 0.19093 0.37346 0.0
C327 C 0.32539 0.15448 0.38974 0.0
H328 H 0.50881 0.12911 0.41842 0.0
H329 H 0.46828 0.1272 0.44648 0.0
H330 H 0.51468 0.09152 0.43089 0.0
H331 H 0.43644 0.04724 0.49717 0.0
H332 H 0.28232 0.15912 0.23308 0.0
H333 H 0.30318 0.13963 0.2878 0.0
H334 H 0.28164 0.19763 0.26734 0.0
H335 H 0.32574 0.19965 0.41268 0.0
C336 C 0.95132 0.21635 0.51223 0.0
C337 C 0.9475 0.20924 0.61264 0.0
C338 C 0.93813 0.21367 0.56205 0.0
C339 C 0.971 0.20895 0.6129 0.0
C340 C 0.9743 0.21486 0.51207 0.0
C341 C 0.98443 0.21186 0.56278 0.0
N342 N 0.94081 0.21876 0.46366 0.0
C343 C 0.9509 0.21717 0.41336 0.0
C344 C 0.98592 0.21544 0.46074 0.0
C345 C 0.97387 0.21608 0.41115 0.0
Gd346 Gd 0.907 0.29395 0.46499 0.0
Gd347 Gd 0.90312 0.22207 0.47334 0.0
N348 N 0.91568 0.21451 0.56083 0.0
C349 C 0.93271 0.20484 0.6613 0.0
C350 C 0.90036 0.20852 0.6072 0.0
C351 C 0.90884 0.20409 0.65839 0.0
H352 H 0.88154 0.20695 0.60447 0.0
H353 H 0.89685 0.19982 0.69539 0.0
H354 H 0.9322 0.31921 0.33927 0.0
H355 H 0.94125 0.21667 0.37468 0.0
H356 H 0.91774 0.32889 0.25055 0.0
H357 H 0.93917 0.20124 0.70089 0.0
H358 H 0.9787 0.20597 0.65149 0.0
H359 H 0.85995 0.28246 0.55953 0.0
H360 H 1.00359 0.21436 0.45886 0.0
H361 H 0.98213 0.21548 0.37119 0.0
H362 H 0.83041 0.30949 0.28816 0.0
H363 H 1.00222 0.21099 0.56347 0.0
H364 H 0.7973 0.28312 0.4737 0.0
H365 H 0.81613 0.27697 0.5605 0.0
N366 N 0.8652 0.28902 0.47171 0.0
C367 C 0.85585 0.29404 0.42427 0.0
C368 C 0.85164 0.28391 0.52066 0.0
C369 C 0.8164 0.28496 0.47266 0.0
C370 C 0.82691 0.28134 0.52168 0.0
C371 C 0.83104 0.29182 0.42334 0.0
H372 H 0.80282 0.29529 0.37219 0.0
N373 N 0.89558 0.30484 0.37944 0.0
C374 C 0.87148 0.30218 0.37684 0.0
C375 C 0.8793 0.31732 0.28118 0.0
C376 C 0.8626 0.30813 0.32739 0.0
C377 C 0.91238 0.31502 0.33548 0.0
C378 C 0.90441 0.32106 0.28549 0.0
O379 O 0.92495 0.25325 0.53813 0.0
O380 O 0.94243 0.29155 0.48969 0.0
O381 O 0.93228 0.33532 0.44883 0.0
O382 O 0.91383 0.32285 0.52929 0.0
O383 O 0.87207 0.22976 0.50708 0.0
O384 O 0.89284 0.27065 0.54535 0.0
O385 O 0.87435 0.2588 0.41906 0.0
O386 O 0.89159 0.23283 0.39302 0.0
O387 O 0.86366 0.18861 0.47656 0.0
O388 O 0.89583 0.18341 0.45304 0.0
O389 O 0.9352 0.29027 0.40668 0.0
O390 O 0.92821 0.24751 0.40176 0.0
C391 C 0.94492 0.27586 0.5245 0.0
C392 C 0.87525 0.24568 0.54829 0.0
C393 C 0.9239 0.36499 0.49722 0.0
C394 C 0.94122 0.41236 0.49661 0.0
C395 C 0.89439 0.38201 0.49258 0.0
C396 C 0.89853 0.36087 0.49415 0.0
C397 C 0.91546 0.40749 0.49384 0.0
C398 C 0.94521 0.39077 0.49849 0.0
C399 C 0.92851 0.3427 0.49733 0.0
C400 C 0.8376 0.30515 0.32588 0.0
C401 C 0.82188 0.29705 0.37373 0.0
H402 H 0.87321 0.32212 0.24247 0.0
C403 C 0.87461 0.24068 0.38731 0.0
C404 C 0.93977 0.27223 0.38597 0.0
C405 C 0.8554 0.15524 0.41126 0.0
C406 C 0.81915 0.11333 0.37961 0.0
C407 C 0.84984 0.14467 0.31246 0.0
C408 C 0.86361 0.16193 0.35571 0.0
C409 C 0.82801 0.12047 0.32418 0.0
C410 C 0.83299 0.13126 0.42289 0.0
C411 C 0.87071 0.1725 0.45765 0.0
H412 H 0.87472 0.37864 0.49047 0.0
H413 H 0.88191 0.34135 0.49295 0.0
H414 H 0.91148 0.42341 0.49341 0.0
H415 H 0.96484 0.39394 0.49997 0.0
H416 H 0.85635 0.14987 0.26968 0.0
H417 H 0.88075 0.18042 0.34586 0.0
H418 H 0.81852 0.10726 0.28963 0.0
H419 H 0.82658 0.12673 0.46588 0.0
C420 C 0.79622 0.73759 0.48083 0.0
C421 C 0.80204 0.74804 0.57962 0.0
C422 C 0.79982 0.73163 0.53474 0.0
C423 C 0.79884 0.7696 0.56985 0.0
C424 C 0.79451 0.76005 0.47028 0.0
C425 C 0.79504 0.77557 0.51525 0.0
N426 N 0.79638 0.7225 0.43834 0.0
C427 C 0.79781 0.73036 0.38423 0.0
C428 C 0.79342 0.76681 0.41472 0.0
C429 C 0.79563 0.75218 0.37148 0.0
Gd430 Gd 0.72842 0.61515 0.46312 0.0
Gd431 Gd 0.79703 0.68458 0.46409 0.0
N432 N 0.80257 0.71052 0.54282 0.0
C433 C 0.80835 0.7428 0.63252 0.0
C434 C 0.81034 0.70621 0.59342 0.0
C435 C 0.81318 0.72221 0.63906 0.0
H436 H 0.81391 0.69016 0.59845 0.0
H437 H 0.81936 0.71892 0.67906 0.0
H438 H 0.70331 0.62182 0.34053 0.0
H439 H 0.80075 0.71985 0.35082 0.0
H440 H 0.69625 0.60415 0.24525 0.0
H441 H 0.81049 0.75507 0.66806 0.0
H442 H 0.80004 0.7822 0.60396 0.0
H443 H 0.7463 0.57954 0.53893 0.0
H444 H 0.79204 0.78388 0.40481 0.0
H445 H 0.79602 0.7579 0.32838 0.0
H446 H 0.72096 0.53876 0.25414 0.0
H447 H 0.79342 0.79273 0.50806 0.0
H448 H 0.74897 0.52339 0.43068 0.0
H449 H 0.75478 0.54323 0.52449 0.0
N450 N 0.73678 0.58079 0.45379 0.0
C451 C 0.73232 0.56944 0.40243 0.0
C452 C 0.74409 0.57127 0.4977 0.0
C453 C 0.7453 0.53937 0.43673 0.0
C454 C 0.7487 0.55058 0.48973 0.0
C455 C 0.73688 0.54866 0.39233 0.0
H456 H 0.73642 0.52194 0.32987 0.0
N457 N 0.71953 0.59925 0.37068 0.0
C458 C 0.72374 0.57913 0.35959 0.0
C459 C 0.70979 0.57747 0.26401 0.0
C460 C 0.71926 0.56792 0.30575 0.0
C461 C 0.70895 0.60762 0.33083 0.0
C462 C 0.70433 0.59719 0.27682 0.0
O463 O 0.76704 0.67435 0.53231 0.0
O464 O 0.72776 0.65165 0.48849 0.0
O465 O 0.68695 0.58921 0.44791 0.0
O466 O 0.70208 0.59331 0.53128 0.0
O467 O 0.79392 0.6502 0.51218 0.0
O468 O 0.75155 0.62444 0.54397 0.0
O469 O 0.76673 0.6195 0.42972 0.0
O470 O 0.78622 0.65946 0.38774 0.0
O471 O 0.83094 0.67998 0.47316 0.0
O472 O 0.8355 0.7159 0.44087 0.0
O473 O 0.72841 0.64852 0.41739 0.0
O474 O 0.77092 0.67611 0.38756 0.0
C475 C 0.74357 0.67018 0.52281 0.0
C476 C 0.77703 0.63506 0.55028 0.0
C477 C 0.65973 0.58797 0.52119 0.0
C478 C 0.61311 0.57422 0.52742 0.0
C479 C 0.64607 0.61552 0.5678 0.0
C480 C 0.66579 0.61095 0.55006 0.0
C481 C 0.62004 0.59742 0.5567 0.0
C482 C 0.63326 0.56953 0.51006 0.0
C483 C 0.68115 0.58408 0.50045 0.0
C484 C 0.72413 0.54745 0.29535 0.0
C485 C 0.7329 0.53784 0.3385 0.0
H486 H 0.70613 0.5694 0.22213 0.0
C487 C 0.78101 0.63531 0.38934 0.0
C488 C 0.74556 0.66707 0.38451 0.0
C489 C 0.86338 0.70182 0.40524 0.0
C490 C 0.90532 0.70738 0.37464 0.0
C491 C 0.86998 0.69548 0.30788 0.0
C492 C 0.85403 0.69577 0.35032 0.0
C493 C 0.89551 0.7016 0.31954 0.0
C494 C 0.88873 0.70715 0.4174 0.0
C495 C 0.84675 0.7023 0.45028 0.0
H496 H 0.65101 0.63327 0.59023 0.0
H497 H 0.68583 0.62549 0.5588 0.0
H498 H 0.60526 0.60153 0.57168 0.0
H499 H 0.62846 0.55194 0.487 0.0
H500 H 0.86251 0.69054 0.26572 0.0
H501 H 0.83441 0.69126 0.3403 0.0
H502 H 0.90749 0.702 0.28502 0.0
H503 H 0.89522 0.71077 0.46046 0.0
C504 C 0.84856 0.55868 0.96668 0.0
C505 C 0.84159 0.54027 0.8733 0.0
C506 C 0.85725 0.55953 0.91262 0.0
C507 C 0.81636 0.52082 0.88847 0.0
C508 C 0.82394 0.53811 0.98316 0.0
C509 C 0.80754 0.51974 0.94333 0.0
N510 N 0.86517 0.57645 0.00433 0.0
C511 C 0.85979 0.57232 0.0602 0.0
C512 C 0.81713 0.53581 0.03972 0.0
C513 C 0.83542 0.55259 0.07859 0.0
Gd514 Gd 0.88586 0.66984 0.95041 0.0
Gd515 Gd 0.90463 0.61059 0.96741 0.0
N516 N 0.88171 0.57853 0.89933 0.0
C517 C 0.85212 0.54068 0.82059 0.0
C518 C 0.89281 0.57796 0.84961 0.0
C519 C 0.878 0.55935 0.80906 0.0
H520 H 0.91275 0.59263 0.84071 0.0
H521 H 0.88652 0.55943 0.76898 0.0
H522 H 0.84169 0.65706 0.05143 0.0
H523 H 0.87422 0.58415 0.09104 0.0
H524 H 0.84014 0.67363 0.14577 0.0
H525 H 0.8407 0.52623 0.78919 0.0
H526 H 0.80388 0.50601 0.85868 0.0
H527 H 0.93053 0.72079 0.8799 0.0
H528 H 0.7984 0.52031 0.05413 0.0
H529 H 0.83094 0.55008 0.12281 0.0
H530 H 0.92281 0.75253 0.16267 0.0
H531 H 0.78843 0.50402 0.95508 0.0
H532 H 0.97405 0.78324 0.99522 0.0
H533 H 0.96711 0.76538 0.89901 0.0
N534 N 0.91838 0.71334 0.9643 0.0
C535 C 0.92071 0.72336 0.01619 0.0
C536 C 0.93389 0.72843 0.9218 0.0
C537 C 0.95828 0.76365 0.98695 0.0
C538 C 0.95439 0.75367 0.93257 0.0
C539 C 0.94087 0.74871 0.02932 0.0
H540 H 0.95768 0.77795 0.09461 0.0
N541 N 0.88112 0.68585 0.0373 0.0
C542 C 0.90137 0.70901 0.05429 0.0
C543 C 0.87932 0.70622 0.14095 0.0
C544 C 0.90127 0.7197 0.10686 0.0
C545 C 0.85873 0.67399 0.06789 0.0
C546 C 0.85769 0.68355 0.12084 0.0
O547 O 0.8827 0.61335 0.89255 0.0
O548 O 0.85991 0.62692 0.94154 0.0
O549 O 0.85784 0.68332 0.94164 0.0
O550 O 0.87263 0.67327 0.86769 0.0
O551 O 0.92751 0.64025 0.90063 0.0
O552 O 0.91283 0.66987 0.88145 0.0
O553 O 0.92759 0.68164 0.97004 0.0
O554 O 0.92724 0.64758 0.01929 0.0
O555 O 0.94107 0.61161 0.94901 0.0
O556 O 0.91375 0.5826 0.00506 0.0
O557 O 0.86487 0.63472 0.00704 0.0
O558 O 0.8947 0.62583 0.04616 0.0
C559 C 0.86256 0.6166 0.89582 0.0
C560 C 0.92767 0.65929 0.87133 0.0
C561 C 0.84033 0.68648 0.85129 0.0
C562 C 0.80535 0.69672 0.83955 0.0
C563 C 0.82224 0.68459 0.75925 0.0
C564 C 0.83996 0.68228 0.79343 0.0
C565 C 0.80497 0.69158 0.78203 0.0
C566 C 0.82304 0.69388 0.87418 0.0
C567 C 0.85681 0.68048 0.88764 0.0
C568 C 0.9223 0.74416 0.12206 0.0
C569 C 0.94214 0.75865 0.0833 0.0
H570 H 0.87836 0.71397 0.18131 0.0
C571 C 0.93883 0.67209 0.00231 0.0
C572 C 0.87528 0.63051 0.05145 0.0
C573 C 0.95799 0.59354 0.0133 0.0
C574 C 0.98801 0.57734 0.03329 0.0
C575 C 0.99207 0.61528 0.08246 0.0
C576 C 0.97089 0.61335 0.0529 0.0
C577 C 1.00061 0.59752 0.07278 0.0
C578 C 0.9665 0.57549 0.00377 0.0
C579 C 0.93614 0.59184 0.98038 0.0
H580 H 0.82164 0.68055 0.71495 0.0
H581 H 0.85283 0.67639 0.7747 0.0
H582 H 0.79097 0.69256 0.75465 0.0
H583 H 0.8232 0.69721 0.91877 0.0
H584 H 1.00194 0.63063 0.11307 0.0
H585 H 0.96463 0.62735 0.06071 0.0
H586 H 0.0169 0.5994 0.09689 0.0
H587 H 0.95665 0.56035 0.97263 0.0
C588 C 0.4584 0.29175 0.91614 0.0
C589 C 0.46441 0.30542 0.81903 0.0
C590 C 0.45105 0.30096 0.87027 0.0
C591 C 0.48468 0.29982 0.81414 0.0
C592 C 0.47916 0.28673 0.91173 0.0
C593 C 0.49206 0.29053 0.86036 0.0
N594 N 0.44518 0.28769 0.96508 0.0
C595 C 0.45311 0.28073 0.01221 0.0
C596 C 0.48652 0.27827 0.95929 0.0
C597 C 0.47365 0.27558 0.00988 0.0
Gd598 Gd 0.3414 0.22662 0.96473 0.0
Gd599 Gd 0.41079 0.29648 0.96397 0.0
N600 N 0.43122 0.30605 0.87609 0.0
C601 C 0.45729 0.31579 0.77446 0.0
C602 C 0.42527 0.31758 0.83384 0.0
C603 C 0.43789 0.32225 0.78219 0.0
H604 H 0.41127 0.32385 0.84022 0.0
H605 H 0.43284 0.33107 0.74856 0.0
H606 H 0.34171 0.21248 0.09948 0.0
H607 H 0.444 0.27948 0.05196 0.0
H608 H 0.31612 0.20764 0.18463 0.0
H609 H 0.46708 0.31949 0.73443 0.0
H610 H 0.49504 0.30296 0.77498 0.0
H611 H 0.30292 0.22117 0.85544 0.0
H612 H 0.50243 0.27428 0.95767 0.0
H613 H 0.47967 0.26975 0.04723 0.0
H614 H 0.24379 0.21521 0.1182 0.0
H615 H 0.50795 0.28662 0.85611 0.0
H616 H 0.23578 0.22139 0.92027 0.0
H617 H 0.26169 0.22091 0.83967 0.0
N618 N 0.30135 0.22381 0.94404 0.0
C619 C 0.28662 0.2224 0.98883 0.0
C620 C 0.29212 0.2221 0.89095 0.0
C621 C 0.25406 0.22192 0.92745 0.0
C622 C 0.26863 0.22164 0.88184 0.0
C623 C 0.26267 0.22168 0.98179 0.0
H624 H 0.22941 0.21956 0.0244 0.0
N625 N 0.31743 0.21989 0.04688 0.0
C626 C 0.29469 0.21996 0.04171 0.0
C627 C 0.28716 0.21271 0.14099 0.0
C628 C 0.27906 0.21668 0.08883 0.0
C629 C 0.32451 0.2142 0.09678 0.0
C630 C 0.30985 0.21114 0.14483 0.0
O631 O 0.4059 0.25889 0.92594 0.0
O632 O 0.36518 0.23789 0.88651 0.0
O633 O 0.34783 0.19365 0.97049 0.0
O634 O 0.31066 0.18764 0.94288 0.0
O635 O 0.37936 0.29601 0.90844 0.0
O636 O 0.34566 0.25295 0.89171 0.0
O637 O 0.35055 0.25768 0.03007 0.0
O638 O 0.37389 0.29677 0.98516 0.0
O639 O 0.43614 0.33805 0.94906 0.0
O640 O 0.43076 0.3232 0.03294 0.0
O641 O 0.37761 0.23185 0.00756 0.0
O642 O 0.40003 0.27312 0.04477 0.0
C643 C 0.39007 0.24572 0.88461 0.0
C644 C 0.35812 0.27834 0.88204 0.0
C645 C 0.3247 0.16021 0.90441 0.0
C646 C 0.31738 0.11765 0.87319 0.0
C647 C 0.32779 0.15242 0.80593 0.0
C648 C 0.32915 0.16898 0.84894 0.0
C649 C 0.32176 0.12693 0.81772 0.0
C650 C 0.31918 0.13476 0.91642 0.0
C651 C 0.32511 0.17716 0.94997 0.0
C652 C 0.25584 0.21726 0.08234 0.0
C653 C 0.24769 0.21981 0.02893 0.0
H654 H 0.27578 0.21038 0.17814 0.0
C655 C 0.35457 0.28093 0.01774 0.0
C656 C 0.3903 0.24771 0.049 0.0
C657 C 0.43573 0.36527 0.02047 0.0
C658 C 0.44949 0.4119 0.02656 0.0
C659 C 0.40704 0.37882 0.06188 0.0
C660 C 0.41201 0.35913 0.04593 0.0
C661 C 0.42553 0.4049 0.05244 0.0
C662 C 0.4545 0.39176 0.0109 0.0
C663 C 0.44027 0.34401 1.00174 0.0
H664 H 0.33116 0.15927 0.76315 0.0
H665 H 0.33351 0.18855 0.83889 0.0
H666 H 0.32011 0.11444 0.78307 0.0
H667 H 0.31638 0.12847 0.95962 0.0
H668 H 0.38872 0.37382 0.08171 0.0
H669 H 0.39722 0.33906 0.05344 0.0
H670 H 0.42111 0.41965 0.06616 0.0
H671 H 0.47266 0.39657 0.99041 0.0
C672 C 0.7262 0.17283 0.9378 0.0
C673 C 0.70427 0.16662 0.84833 0.0
C674 C 0.71245 0.15689 0.89281 0.0
C675 C 0.71006 0.19263 0.8495 0.0
C676 C 0.73125 0.19873 0.93977 0.0
C677 C 0.72348 0.20862 0.89509 0.0
N678 N 0.73371 0.16277 0.98042 0.0
C679 C 0.74287 0.17648 0.02906 0.0
C680 C 0.74325 0.2137 0.98737 0.0
C681 C 0.74855 0.20233 0.03268 0.0
Gd682 Gd 0.80055 0.13602 0.94117 0.0
Gd683 Gd 0.72317 0.11906 0.96796 0.0
N684 N 0.7077 0.13196 0.89185 0.0
C685 C 0.69054 0.14988 0.80391 0.0
C686 C 0.69376 0.1153 0.84956 0.0
C687 C 0.68513 0.12407 0.80472 0.0
H688 H 0.68983 0.09542 0.85015 0.0
H689 H 0.6744 0.11099 0.77074 0.0
H690 H 0.83332 0.1777 0.04524 0.0
H691 H 0.74482 0.16743 0.06617 0.0
H692 H 0.8578 0.17914 0.13003 0.0
H693 H 0.68393 0.15664 0.76896 0.0
H694 H 0.70403 0.20051 0.8156 0.0
H695 H 0.79657 0.08828 0.86103 0.0
H696 H 0.74742 0.23365 0.99055 0.0
H697 H 0.75641 0.21325 0.07097 0.0
H698 H 0.86671 0.10336 0.11284 0.0
H699 H 0.72739 0.22853 0.89582 0.0
H700 H 0.83348 0.05202 0.94599 0.0
H701 H 0.80935 0.05462 0.86418 0.0
N702 N 0.81226 0.10377 0.94094 0.0
C703 C 0.82633 0.10334 0.98515 0.0
C704 C 0.80663 0.08698 0.89725 0.0
C705 C 0.82775 0.06671 0.9449 0.0
C706 C 0.81408 0.06806 0.89873 0.0
C707 C 0.83424 0.08461 0.98872 0.0
H708 H 0.85447 0.07009 0.03935 0.0
N709 N 0.82632 0.14051 0.01971 0.0
C710 C 0.83316 0.12202 0.02637 0.0
C711 C 0.8563 0.14288 0.11132 0.0
C712 C 0.8482 0.12257 0.07253 0.0
C713 C 0.83617 0.16154 0.05452 0.0
C714 C 0.85064 0.16272 0.10171 0.0
O715 O 0.74485 0.13801 0.88767 0.0
O716 O 0.78147 0.15986 0.93493 0.0
O717 O 0.83881 0.16997 0.93059 0.0
O718 O 0.81865 0.14631 0.85859 0.0
O719 O 0.72734 0.09035 0.91378 0.0
O720 O 0.77 0.10945 0.87651 0.0
O721 O 0.77516 0.09739 0.98443 0.0
O722 O 0.73319 0.0901 0.00619 0.0
O723 O 0.68164 0.0872 0.96409 0.0
O724 O 0.69548 0.1176 0.02763 0.0
O725 O 0.78874 0.15777 1.00079 0.0
O726 O 0.75006 0.13056 0.04359 0.0
C727 C 0.76873 0.15734 0.88921 0.0
C728 C 0.74502 0.09077 0.8791 0.0
C729 C 0.86554 0.16915 0.85871 0.0
C730 C 0.91325 0.19633 0.85487 0.0
C731 C 0.89105 0.15378 0.80951 0.0
C732 C 0.86692 0.1499 0.82724 0.0
C733 C 0.91402 0.17673 0.82314 0.0
C734 C 0.88876 0.19233 0.87214 0.0
C735 C 0.8403 0.16584 0.87774 0.0
C736 C 0.85533 0.10338 0.07747 0.0
C737 C 0.84843 0.08448 0.03555 0.0
H738 H 0.86777 0.14396 0.14751 0.0
C739 C 0.7517 0.08375 0.00717 0.0
C740 C 0.77514 0.14761 0.04655 0.0
C741 C 0.64971 0.08554 0.03421 0.0
C742 C 0.60206 0.05755 0.03612 0.0
C743 C 0.62463 0.08615 0.11437 0.0
C744 C 0.6484 0.09503 0.08743 0.0
C745 C 0.60165 0.06765 0.08892 0.0
C746 C 0.62625 0.06642 0.00856 0.0
C747 C 0.67577 0.09679 0.007 0.0
H748 H 0.89198 0.13883 0.78536 0.0
H749 H 0.84944 0.13189 0.81638 0.0
H750 H 0.93242 0.17888 0.80967 0.0
H751 H 0.88768 0.20736 0.89575 0.0
H752 H 0.62403 0.0937 0.15523 0.0
H753 H 0.66586 0.10952 0.10856 0.0
H754 H 0.58338 0.06104 0.11074 0.0
H755 H 0.62674 0.0588 0.96767 0.0
C756 C 0.56439 0.84349 0.56964 0.0
C757 C 0.55787 0.83996 0.67033 0.0
C758 C 0.5719 0.85415 0.62288 0.0
C759 C 0.53614 0.81494 0.6636 0.0
C760 C 0.54202 0.8187 0.56276 0.0
C761 C 0.52819 0.80438 0.60998 0.0
N762 N 0.5781 0.85783 0.52457 0.0
C763 C 0.56898 0.84948 0.47166 0.0
C764 C 0.53376 0.80932 0.50853 0.0
C765 C 0.54708 0.82495 0.46284 0.0
Gd766 Gd 0.68419 0.89894 0.53282 0.0
Gd767 Gd 0.61466 0.89874 0.54517 0.0
N768 N 0.59313 0.87836 0.62828 0.0
C769 C 0.56606 0.85137 0.72317 0.0
C770 C 0.60084 0.88983 0.6795 0.0
C771 C 0.58757 0.87646 0.72773 0.0
H772 H 0.61749 0.90905 0.68325 0.0
H773 H 0.59399 0.88549 0.76838 0.0
H774 H 0.67744 0.87907 0.39933 0.0
H775 H 0.57823 0.86177 0.43588 0.0
H776 H 0.69972 0.89609 0.30874 0.0
H777 H 0.55584 0.84106 0.76064 0.0
H778 H 0.52515 0.80372 0.69958 0.0
H779 H 0.72827 0.93297 0.63204 0.0
H780 H 0.51665 0.79041 0.50152 0.0
H781 H 0.54026 0.81827 0.42077 0.0
H782 H 0.77613 0.97698 0.35724 0.0
H783 H 0.51108 0.78525 0.60542 0.0
H784 H 0.79441 0.99627 0.55215 0.0
H785 H 0.77177 0.97271 0.63832 0.0
N786 N 0.72611 0.93494 0.54363 0.0
C787 C 0.73887 0.94657 0.49567 0.0
C788 C 0.73802 0.94333 0.59432 0.0
C789 C 0.77532 0.97898 0.54923 0.0
C790 C 0.76264 0.9657 0.59796 0.0
C791 C 0.76374 0.96913 0.49715 0.0
H792 H 0.79559 0.99803 0.44707 0.0
N793 N 0.70448 0.91231 0.4453 0.0
C794 C 0.72787 0.93475 0.44501 0.0
C795 C 0.73081 0.93135 0.34487 0.0
C796 C 0.7415 0.94513 0.39459 0.0
C797 C 0.69498 0.89778 0.39777 0.0
C798 C 0.70769 0.90732 0.34664 0.0
O799 O 0.62207 0.86953 0.59319 0.0
O800 O 0.66564 0.89145 0.61713 0.0
O801 O 0.67542 0.85865 0.53199 0.0
O802 O 0.71441 0.88952 0.55029 0.0
O803 O 0.64656 0.92968 0.59992 0.0
O804 O 0.68549 0.9281 0.59751 0.0
O805 O 0.67224 0.91756 0.4662 0.0
O806 O 0.65058 0.93466 0.51239 0.0
O807 O 0.59675 0.92038 0.57707 0.0
O808 O 0.59121 0.90838 0.49072 0.0
O809 O 0.64483 0.86658 0.50408 0.0
O810 O 0.62285 0.8845 0.46367 0.0
C811 C 0.64134 0.87385 0.62735 0.0
C812 C 0.67102 0.93806 0.61509 0.0
C813 C 0.70057 0.84896 0.59322 0.0
C814 C 0.70824 0.81392 0.62339 0.0
C815 C 0.70204 0.84084 0.69201 0.0
C816 C 0.69907 0.85509 0.64919 0.0
C817 C 0.70687 0.82063 0.67939 0.0
C818 C 0.70467 0.82819 0.58053 0.0
C819 C 0.69873 0.86451 0.54748 0.0
C820 C 0.76557 0.96846 0.39563 0.0
C821 C 0.77664 0.98047 0.4468 0.0
H822 H 0.74066 0.93866 0.30524 0.0
C823 C 0.66885 0.9372 0.47759 0.0
C824 C 0.63149 0.86798 0.46199 0.0
C825 C 0.55826 0.91414 0.53377 0.0
C826 C 0.52652 0.92919 0.53082 0.0
C827 C 0.51267 0.88405 0.55345 0.0
C828 C 0.5382 0.88914 0.54799 0.0
C829 C 0.50683 0.90384 0.54508 0.0
C830 C 0.55233 0.93412 0.52495 0.0
C831 C 0.5855 0.91989 0.53011 0.0
H832 H 0.70104 0.84575 0.7352 0.0
H833 H 0.69596 0.87107 0.6597 0.0
H834 H 0.71002 0.81067 0.71368 0.0
H835 H 0.70506 0.8233 0.53703 0.0
H836 H 0.4973 0.86464 0.56432 0.0
H837 H 0.54225 0.87359 0.55519 0.0
H838 H 0.48677 0.89918 0.54907 0.0
H839 H 0.56787 0.95356 0.51462 0.0
C840 C 0.16908 0.71935 0.58727 0.0
C841 C 0.16267 0.71009 0.68681 0.0
C842 C 0.15367 0.71377 0.63498 0.0
C843 C 0.18706 0.71172 0.68998 0.0
C844 C 0.19346 0.7207 0.59033 0.0
C845 C 0.20236 0.71692 0.64188 0.0
N846 N 0.16025 0.72348 0.53799 0.0
C847 C 0.17402 0.72728 0.48975 0.0
C848 C 0.20813 0.72565 0.54137 0.0
C849 C 0.19826 0.72872 0.49082 0.0
Gd850 Gd 0.12215 0.79037 0.53583 0.0
Gd851 Gd 0.11891 0.71946 0.5411 0.0
N852 N 0.13022 0.7126 0.63091 0.0
C853 C 0.1469 0.70495 0.73405 0.0
C854 C 0.11452 0.70701 0.67662 0.0
C855 C 0.1227 0.70333 0.72886 0.0
H856 H 0.09557 0.70515 0.67322 0.0
H857 H 0.11028 0.6991 0.76509 0.0
H858 H 0.14407 0.80714 0.40487 0.0
H859 H 0.16623 0.72858 0.44998 0.0
H860 H 0.12789 0.81248 0.31337 0.0
H861 H 0.15316 0.70208 0.77463 0.0
H862 H 0.19426 0.70893 0.72946 0.0
H863 H 0.08564 0.79818 0.6325 0.0
H864 H 0.22691 0.72674 0.54198 0.0
H865 H 0.20918 0.73192 0.45252 0.0
H866 H 0.04401 0.80207 0.3562 0.0
H867 H 0.22107 0.71796 0.645 0.0
H868 H 0.02046 0.79575 0.54982 0.0
H869 H 0.04355 0.79733 0.63723 0.0
N870 N 0.08467 0.79409 0.54433 0.0
C871 C 0.07339 0.79527 0.49597 0.0
C872 C 0.075 0.79624 0.59454 0.0
C873 C 0.03855 0.79548 0.54776 0.0
C874 C 0.05149 0.79631 0.59718 0.0
C875 C 0.04988 0.79573 0.49623 0.0
H876 H 0.02073 0.79736 0.44458 0.0
N877 N 0.10947 0.79828 0.44825 0.0
C878 C 0.08639 0.79783 0.44634 0.0
C879 C 0.09124 0.80562 0.34681 0.0
C880 C 0.07639 0.80102 0.39543 0.0
C881 C 0.12493 0.80479 0.40193 0.0
C882 C 0.11586 0.80803 0.3503 0.0
O883 O 0.1505 0.75491 0.58907 0.0
O884 O 0.13008 0.77724 0.61749 0.0
O885 O 0.16164 0.82306 0.52863 0.0
O886 O 0.13165 0.82897 0.56436 0.0
O887 O 0.08629 0.72071 0.58798 0.0
O888 O 0.09612 0.76363 0.60607 0.0
O889 O 0.10298 0.76072 0.46704 0.0
O890 O 0.08375 0.72119 0.51001 0.0
O891 O 0.09562 0.67833 0.56164 0.0
O892 O 0.11249 0.6897 0.47935 0.0
O893 O 0.154 0.78309 0.50456 0.0
O894 O 0.13548 0.74333 0.4618 0.0
C895 C 0.14734 0.76995 0.62515 0.0
C896 C 0.08195 0.73799 0.61361 0.0
C897 C 0.17453 0.85523 0.5984 0.0
C898 C 0.21213 0.89654 0.62788 0.0
C899 C 0.19002 0.86087 0.6941 0.0
C900 C 0.17234 0.84546 0.65269 0.0
C901 C 0.20977 0.88626 0.68194 0.0
C902 C 0.1945 0.88059 0.58614 0.0
C903 C 0.15637 0.8393 0.55381 0.0
C904 C 0.05226 0.80009 0.395 0.0
C905 C 0.03899 0.79737 0.44533 0.0
H906 H 0.08425 0.80816 0.3068 0.0
C907 C 0.08253 0.73792 0.47621 0.0
C908 C 0.15226 0.76858 0.46141 0.0
C909 C 0.10356 0.64819 0.51356 0.0
C910 C 0.08645 0.60085 0.51377 0.0
C911 C 0.13323 0.63137 0.51818 0.0
C912 C 0.12897 0.65244 0.51674 0.0
C913 C 0.11226 0.60585 0.51667 0.0
C914 C 0.08234 0.62236 0.51204 0.0
C915 C 0.09871 0.67033 0.51318 0.0
H916 H 0.18822 0.85323 0.73595 0.0
H917 H 0.15692 0.82603 0.66303 0.0
H918 H 0.22279 0.898 0.71517 0.0
H919 H 0.19627 0.88782 0.54384 0.0
H920 H 0.15294 0.63484 0.52037 0.0
H921 H 0.14551 0.67198 0.51809 0.0
H922 H 0.11634 0.59 0.517 0.0
H923 H 0.06267 0.61909 0.51041 0.0
C924 C 0.30088 0.45429 0.59958 0.0
C925 C 0.31135 0.45369 0.69752 0.0
C926 C 0.30797 0.44343 0.64293 0.0
C927 C 0.30744 0.47478 0.70793 0.0
C928 C 0.29722 0.47563 0.60984 0.0
C929 C 0.30047 0.48576 0.66422 0.0
N930 N 0.29693 0.44351 0.54764 0.0
C931 C 0.29113 0.45422 0.5035 0.0
C932 C 0.29037 0.48616 0.56509 0.0
C933 C 0.28754 0.47554 0.51163 0.0
Gd934 Gd 0.23449 0.33878 0.52969 0.0
Gd935 Gd 0.30371 0.40809 0.53848 0.0
N936 N 0.3113 0.42276 0.63182 0.0
C937 C 0.31866 0.44252 0.74008 0.0
C938 C 0.31963 0.41263 0.67274 0.0
C939 C 0.32305 0.42208 0.7275 0.0
H940 H 0.32425 0.39766 0.66353 0.0
H941 H 0.32936 0.41375 0.75988 0.0
H942 H 0.21714 0.34312 0.39984 0.0
H943 H 0.28954 0.44661 0.4618 0.0
H944 H 0.21132 0.32128 0.3085 0.0
H945 H 0.32139 0.44981 0.78256 0.0
H946 H 0.30989 0.48285 0.74964 0.0
H947 H 0.23456 0.29736 0.62629 0.0
H948 H 0.28747 0.50262 0.57124 0.0
H949 H 0.28271 0.48386 0.47661 0.0
H950 H 0.22663 0.25073 0.34883 0.0
H951 H 0.29765 0.5021 0.67292 0.0
H952 H 0.23947 0.23667 0.54063 0.0
H953 H 0.23904 0.25829 0.62888 0.0
N954 N 0.23555 0.29975 0.53753 0.0
C955 C 0.23398 0.28718 0.48891 0.0
C956 C 0.23607 0.28893 0.58749 0.0
C957 C 0.23819 0.25423 0.53926 0.0
C958 C 0.23804 0.26642 0.58913 0.0
C959 C 0.23543 0.26418 0.48835 0.0
H960 H 0.23479 0.23399 0.436 0.0
N961 N 0.22779 0.31853 0.44217 0.0
C962 C 0.22955 0.29663 0.43981 0.0
C963 C 0.22023 0.29274 0.34081 0.0
C964 C 0.22625 0.28334 0.38885 0.0
C965 C 0.22028 0.32681 0.39642 0.0
C966 C 0.2168 0.31433 0.34487 0.0
O967 O 0.26655 0.40297 0.5803 0.0
O968 O 0.24542 0.36062 0.61098 0.0
O969 O 0.19946 0.34135 0.52022 0.0
O970 O 0.19705 0.30724 0.55797 0.0
O971 O 0.30335 0.3736 0.58053 0.0
O972 O 0.26036 0.34309 0.60423 0.0
O973 O 0.26507 0.35132 0.46207 0.0
O974 O 0.30398 0.37209 0.50758 0.0
O975 O 0.34508 0.43243 0.5571 0.0
O976 O 0.33136 0.43117 0.47324 0.0
O977 O 0.23911 0.3767 0.49753 0.0
O978 O 0.27981 0.40124 0.45901 0.0
C979 C 0.25225 0.38517 0.61765 0.0
C980 C 0.28588 0.35334 0.60958 0.0
C981 C 0.1681 0.32071 0.59068 0.0
C982 C 0.12644 0.31617 0.61922 0.0
C983 C 0.16198 0.33053 0.68612 0.0
C984 C 0.17774 0.32875 0.64501 0.0
C985 C 0.1365 0.3243 0.67344 0.0
C986 C 0.1425 0.31442 0.57802 0.0
C987 C 0.18471 0.3196 0.54633 0.0
C988 C 0.2287 0.261 0.3877 0.0
C989 C 0.23337 0.25149 0.43734 0.0
H990 H 0.21754 0.28311 0.30081 0.0
C991 C 0.28815 0.35446 0.47174 0.0
C992 C 0.25427 0.39108 0.45657 0.0
C993 C 0.3731 0.43514 0.48416 0.0
C994 C 0.41968 0.4487 0.47775 0.0
C995 C 0.38662 0.40776 0.43626 0.0
C996 C 0.36698 0.41236 0.45438 0.0
C997 C 0.41267 0.42567 0.44775 0.0
C998 C 0.39959 0.4534 0.49563 0.0
C999 C 0.35175 0.43903 0.50534 0.0
H1000 H 0.16959 0.33695 0.72785 0.0
H1001 H 0.19742 0.3337 0.65557 0.0
H1002 H 0.12486 0.32632 0.70579 0.0
H1003 H 0.13512 0.30805 0.53606 0.0
H1004 H 0.38162 0.39015 0.41317 0.0
H1005 H 0.34693 0.39802 0.44516 0.0
H1006 H 0.42741 0.42156 0.4324 0.0
H1007 H 0.40445 0.47085 0.51928 0.0
H1008 H 0.0821 0.50327 0.98367 0.0
H1009 H 0.95895 0.52418 0.01737 0.0
H1010 H 1.00263 0.44036 0.99782 0.0
H1011 H 0.03854 0.58711 0.02745 0.0
H1012 H 0.97477 0.49349 0.00548 0.0
H1013 H 0.06689 0.53445 0.99764 0.0
C1014 C 0.06151 0.49593 0.99017 0.0
C1015 C 0.04368 0.46899 0.98891 0.0
C1016 C 0.9888 0.51401 0.01031 0.0
C1017 C 0.02601 0.50477 0.00409 0.0
C1018 C 0.97975 0.53162 0.01667 0.0
C1019 C 0.99736 0.55838 0.02364 0.0
C1020 C 0.01574 0.52311 0.01046 0.0
C1021 C 0.02416 0.56667 0.02303 0.0
C1022 C 0.0528 0.5138 0.99775 0.0
C1023 C 0.01716 0.46086 0.9971 0.0
N1024 N 0.03248 0.54918 0.01652 0.0
N1025 N 1.00919 0.47857 0.004 0.0
H1026 H 0.50309 0.43801 0.03838 0.0
H1027 H 0.52174 0.57951 0.97289 0.0
H1028 H 0.44004 0.45072 0.99271 0.0
H1029 H 0.58517 0.56666 0.01387 0.0
H1030 H 0.49138 0.53258 0.98237 0.0
H1031 H 0.53349 0.48494 0.02906 0.0
C1032 C 0.49562 0.45055 0.0259 0.0
C1033 C 0.46881 0.4402 0.01682 0.0
C1034 C 0.51195 0.54003 0.98936 0.0
C1035 C 0.50362 0.49428 0.00678 0.0
C1036 C 0.5293 0.56692 0.9844 0.0
C1037 C 0.55619 0.57723 0.99213 0.0
C1038 C 0.52143 0.52316 0.00242 0.0
C1039 C 0.56473 0.5597 0.00646 0.0
C1040 C 0.51299 0.47745 0.02102 0.0
C1041 C 0.4604 0.45769 1.00126 0.0
N1042 N 0.54751 0.53369 0.01099 0.0
N1043 N 0.47763 0.48371 0.99694 0.0
H1044 H 0.56607 0.06514 0.98155 0.0
H1045 H 0.45212 0.9201 0.04701 0.0
H1046 H 0.57929 1.00482 0.04406 0.0
H1047 H 0.43851 0.97435 0.95379 0.0
H1048 H 0.49862 0.95133 0.04602 0.0
H1049 H 0.5198 0.03265 0.96789 0.0
C1050 C 0.55935 0.04485 0.99048 0.0
C1051 C 0.57662 0.0375 0.01264 0.0
C1052 C 0.48555 0.95644 0.02548 0.0
C1053 C 0.52349 1.0004 0.9998 0.0
C1054 C 0.45883 0.93851 0.02587 0.0
C1055 C 0.44107 0.94427 0.99982 0.0
C1056 C 0.49497 0.9807 0.99937 0.0
C1057 C 0.45126 0.96895 0.97474 0.0
C1058 C 0.53289 0.02637 0.9834 0.0
C1059 C 0.56676 0.01116 0.02559 0.0
N1060 N 0.47746 0.98621 0.97515 0.0
N1061 N 0.54088 0.99366 0.01951 0.0
H1062 H 0.46126 0.03202 0.55353 0.0
H1063 H 0.54399 0.96662 0.44851 0.0
H1064 H 0.50148 0.04934 0.39524 0.0
H1065 H 0.49342 0.9393 0.59247 0.0
H1066 H 0.53056 0.99887 0.4317 0.0
H1067 H 0.47342 0.99872 0.57036 0.0
C1068 C 0.47235 0.02865 0.52198 0.0
C1069 C 0.48051 0.04379 0.47308 0.0
C1070 C 0.52237 0.98581 0.46698 0.0
C1071 C 0.49499 1.00598 0.49264 0.0
C1072 C 0.53024 0.96752 0.47688 0.0
C1073 C 0.51977 0.95005 0.52183 0.0
C1074 C 0.50402 0.9869 0.50249 0.0
C1075 C 0.50176 0.95207 0.55681 0.0
C1076 C 0.47949 0.00977 0.53185 0.0
C1077 C 0.49515 0.03862 0.43409 0.0
N1078 N 0.4945 0.9701 0.54646 0.0
N1079 N 0.50202 0.02037 0.44486 0.0
H1080 H 0.04098 0.58009 0.45213 0.0
H1081 H 0.98675 0.43309 0.55803 0.0
H1082 H 0.08103 0.55834 0.57184 0.0
H1083 H 0.94676 0.45482 0.43816 0.0
H1084 H 0.02172 0.47867 0.56264 0.0
H1085 H 1.00607 0.53448 0.44732 0.0
C1086 C 0.0424 0.56583 0.47777 0.0
C1087 C 0.06421 0.57327 0.51223 0.0
C1088 C 1.00529 0.47347 0.53529 0.0
C1089 C 0.02424 0.52065 0.50635 0.0
C1090 C 0.98536 0.44733 0.53231 0.0
C1091 C 0.96354 0.4399 0.49789 0.0
C1092 C 1.00358 0.4925 0.50354 0.0
C1093 C 0.96286 0.45952 0.4661 0.0
C1094 C 0.0225 0.53969 0.47467 0.0
C1095 C 0.06493 0.55364 0.54389 0.0
N1096 N 0.98246 0.48477 0.46977 0.0
N1097 N 0.04536 0.52838 0.54012 0.0
H1098 H 0.45741 0.43746 0.51003 0.0
H1099 H 0.57537 0.58524 0.49409 0.0
H1100 H 0.44688 0.50254 0.47144 0.0
H1101 H 0.58595 0.52038 0.53469 0.0
H1102 H 0.52862 0.55528 0.48452 0.0
H1103 H 0.5042 0.46737 0.51961 0.0
C1104 C 0.4649 0.45808 0.50355 0.0
C1105 C 0.44798 0.46736 0.48934 0.0
C1106 C 0.5411 0.54752 0.49544 0.0
C1107 C 0.50204 0.50199 0.50051 0.0
C1108 C 0.5679 0.56466 0.50104 0.0
C1109 C 0.58482 0.55547 0.51585 0.0
C1110 C 0.53078 0.52075 0.50462 0.0
C1111 C 0.57383 0.52845 0.52302 0.0
C1112 C 0.49172 0.47518 0.50916 0.0
C1113 C 0.45899 0.49441 0.48268 0.0
N1114 N 0.54758 0.51212 0.51766 0.0
N1115 N 0.48525 0.51068 0.48799 0.0
H1116 H 0.9395 0.29162 0.28307 0.0
H1117 H 0.0819 0.31884 0.20131 0.0
H1118 H 0.98504 0.27124 0.38938 0.0
H1119 H 0.04116 0.35078 0.11204 0.0
H1120 H 0.04522 0.29776 0.26629 0.0
H1121 H 0.97501 0.30964 0.21487 0.0
C1122 C 0.95712 0.29118 0.29214 0.0
C1123 C 0.95972 0.28054 0.34218 0.0
C1124 C 0.04426 0.30924 0.23222 0.0
C1125 C 1.00016 0.30051 0.26423 0.0
C1126 C 0.0651 0.32111 0.19484 0.0
C1127 C 0.06431 0.33602 0.15022 0.0
C1128 C 0.02253 0.31241 0.22505 0.0
C1129 C 0.04247 0.33913 0.14526 0.0
C1130 C 0.97729 0.30124 0.2531 0.0
C1131 C 0.98238 0.27929 0.35107 0.0
N1132 N 0.02242 0.32733 0.18201 0.0
N1133 N 1.00187 0.28933 0.31257 0.0
H1134 H 0.65771 0.72924 0.22815 0.0
H1135 H 0.76815 0.69258 0.28624 0.0
H1136 H 0.71253 0.73581 0.10215 0.0
H1137 H 0.69952 0.66659 0.3884 0.0
H1138 H 0.75154 0.71321 0.2225 0.0
H1139 H 0.67677 0.71154 0.29306 0.0
C1140 C 0.67362 0.72666 0.21418 0.0
C1141 C 0.68305 0.73294 0.15955 0.0
C1142 C 0.74023 0.70306 0.25906 0.0
C1143 C 0.70534 0.71345 0.23326 0.0
C1144 C 0.74978 0.69149 0.29562 0.0
C1145 C 0.73555 0.67848 0.3435 0.0
C1146 C 0.7163 0.70155 0.2706 0.0
C1147 C 0.71135 0.67672 0.35242 0.0
C1148 C 0.68457 0.71671 0.25111 0.0
C1149 C 0.70438 0.73041 0.14373 0.0
N1150 N 0.7026 0.6883 0.31661 0.0
N1151 N 0.71483 0.72072 0.18044 0.0
H1152 H 0.33121 0.03676 0.40188 0.0
H1153 H 0.32103 0.98569 0.09998 0.0
H1154 H 0.34483 0.08958 0.26565 0.0
H1155 H 0.25864 0.94009 0.21549 0.0
H1156 H 0.33622 0.02341 0.16232 0.0
H1157 H 0.30998 0.99998 0.33688 0.0
C1158 C 0.32955 0.04055 0.35824 0.0
C1159 C 0.33966 0.06612 0.33886 0.0
C1160 C 0.31909 1.00517 0.17362 0.0
C1161 C 0.31626 0.02435 0.26445 0.0
C1162 C 0.31054 0.98362 0.13849 0.0
C1163 C 0.28842 0.9598 0.1525 0.0
C1164 C 0.30606 1.00259 0.22411 0.0
C1165 C 0.2756 0.95818 0.20291 0.0
C1166 C 0.3174 0.0196 0.32139 0.0
C1167 C 0.33715 0.07007 0.282 0.0
N1168 N 0.28485 0.97923 0.23745 0.0
N1169 N 0.3261 0.04935 0.24633 0.0
H1170 H 0.06899 0.76424 0.69125 0.0
H1171 H 0.94481 0.70527 0.81268 0.0
H1172 H 0.04316 0.68724 0.62586 0.0
H1173 H 0.95666 0.63946 0.8269 0.0
H1174 H 0.98248 0.72628 0.75028 0.0
H1175 H 0.02954 0.7464 0.74826 0.0
C1176 C 0.05486 0.74376 0.68777 0.0
C1177 C 0.05915 0.7275 0.65197 0.0
C1178 C 0.97687 0.70733 0.76755 0.0
C1179 C 0.01431 0.70673 0.71878 0.0
C1180 C 0.95527 0.69524 0.80312 0.0
C1181 C 0.94789 0.67088 0.82689 0.0
C1182 C 0.99082 0.69465 0.75461 0.0
C1183 C 0.96181 0.65847 0.81076 0.0
C1184 C 0.03236 0.73355 0.72062 0.0
C1185 C 0.04072 0.70069 0.65226 0.0
N1186 N 0.98253 0.67047 0.77563 0.0
N1187 N 0.01925 0.69115 0.68534 0.0
H1188 H 0.26096 0.32391 0.70206 0.0
H1189 H 0.37712 0.29779 0.7786 0.0
H1190 H 0.33349 0.35684 0.61112 0.0
H1191 H 0.31283 0.27886 0.88942 0.0
H1192 H 0.35924 0.31594 0.71197 0.0
H1193 H 0.27751 0.3038 0.76707 0.0
C1194 C 0.28023 0.32667 0.69539 0.0
C1195 C 0.29566 0.34163 0.65044 0.0
C1196 C 0.34908 0.30795 0.75099 0.0
C1197 C 0.31484 0.31906 0.725 0.0
C1198 C 0.35945 0.29786 0.78914 0.0
C1199 C 0.34681 0.28768 0.84 0.0
C1200 C 0.32576 0.30755 0.76374 0.0
C1201 C 0.32321 0.28688 0.85067 0.0
C1202 C 0.28973 0.31535 0.73273 0.0
C1203 C 0.32082 0.34528 0.64491 0.0
N1204 N 0.31345 0.29682 0.81291 0.0
N1205 N 0.32955 0.33396 0.68153 0.0
H1206 H 0.69916 0.04482 0.88563 0.0
H1207 H 0.72209 0.97719 0.62044 0.0
H1208 H 0.7682 0.08512 0.78323 0.0
H1209 H 0.64724 0.95141 0.69638 0.0
H1210 H 0.74153 0.01434 0.68486 0.0
H1211 H 0.68221 1.00807 0.82215 0.0
C1212 C 0.71083 0.04609 0.84963 0.0
C1213 C 0.73521 0.06836 0.83983 0.0
C1214 C 0.7209 1.00035 0.68774 0.0
C1215 C 0.71568 0.0257 0.76662 0.0
C1216 C 0.70988 0.97885 0.65168 0.0
C1217 C 0.68315 0.96046 0.65433 0.0
C1218 C 0.70505 1.0034 0.72699 0.0
C1219 C 0.66796 0.96461 0.69338 0.0
C1220 C 0.70105 0.02493 0.81334 0.0
C1221 C 0.74941 0.06837 0.79273 0.0
N1222 N 0.67914 0.98547 0.72833 0.0
N1223 N 0.73943 0.04733 0.7578 0.0
H1224 H 0.25205 0.36787 0.72175 0.0
H1225 H 0.15275 0.40638 0.85099 0.0
H1226 H 0.23099 0.41698 0.63005 0.0
H1227 H 0.1984 0.38284 0.94905 0.0
H1228 H 0.17983 0.41065 0.76888 0.0
H1229 H 0.23131 0.37301 0.80486 0.0
C1230 C 0.24329 0.38005 0.71946 0.0
C1231 C 0.24319 0.39201 0.66912 0.0
C1232 C 0.18405 0.40492 0.80868 0.0
C1233 C 0.21874 0.39759 0.76412 0.0
C1234 C 0.16865 0.40252 0.85553 0.0
C1235 C 0.17306 0.39393 0.90694 0.0
C1236 C 0.20384 0.39856 0.81343 0.0
C1237 C 0.19392 0.38914 0.91029 0.0
C1238 C 0.23141 0.383 0.76694 0.0
C1239 C 0.23156 0.40758 0.66833 0.0
N1240 N 0.20824 0.39124 0.86428 0.0
N1241 N 0.21938 0.40961 0.71501 0.0
H1242 H 0.6163 0.74987 0.85587 0.0
H1243 H 0.66632 0.88885 0.72675 0.0
H1244 H 0.63818 0.81814 0.95694 0.0
H1245 H 0.60489 0.82197 0.64215 0.0
H1246 H 0.66029 0.86175 0.80835 0.0
H1247 H 0.61477 0.77406 0.7734 0.0
C1248 C 0.62042 0.76972 0.86092 0.0
C1249 C 0.62782 0.78211 0.91327 0.0
C1250 C 0.64797 0.85299 0.77213 0.0
C1251 C 0.62649 0.80976 0.81965 0.0
C1252 C 0.65146 0.86842 0.72553 0.0
C1253 C 0.63611 0.8576 0.67775 0.0
C1254 C 0.62933 0.82634 0.77079 0.0
C1255 C 0.61706 0.83102 0.67842 0.0
C1256 C 0.61957 0.78347 0.81396 0.0
C1257 C 0.63292 0.80788 0.9174 0.0
N1258 N 0.6144 0.81612 0.72408 0.0
N1259 N 0.63256 0.8209 0.87123 0.0
H1260 H 0.19987 0.82508 0.9587 0.0
H1261 H 0.20032 0.79012 0.63538 0.0
H1262 H 0.26772 0.86977 0.85548 0.0
H1263 H 0.13159 0.77294 0.7295 0.0
H1264 H 0.22716 0.81233 0.7185 0.0
H1265 H 0.17676 0.7986 0.87815 0.0
C1266 C 0.21005 0.82933 0.91912 0.0
C1267 C 0.23575 0.85009 0.91391 0.0
C1268 C 0.20619 0.80342 0.72091 0.0
C1269 C 0.20912 0.81931 0.82078 0.0
C1270 C 0.1909 0.79059 0.67383 0.0
C1271 C 0.16376 0.7798 0.6758 0.0
C1272 C 0.19407 0.80481 0.77034 0.0
C1273 C 0.15247 0.78112 0.72626 0.0
C1274 C 0.19675 0.8141 0.87299 0.0
C1275 C 0.24789 0.8541 0.86142 0.0
N1276 N 0.16762 0.79335 0.77136 0.0
N1277 N 0.23442 0.83895 0.81667 0.0
H1278 H 0.40527 0.19801 0.55644 0.0
H1279 H 0.39255 0.20125 0.88928 0.0
H1280 H 0.37894 0.1298 0.65949 0.0
H1281 H 0.40321 0.26297 0.77868 0.0
H1282 H 0.3958 0.17719 0.80868 0.0
H1283 H 0.41306 0.22435 0.64024 0.0
C1284 C 0.40127 0.18861 0.59693 0.0
C1285 C 0.39101 0.16163 0.60113 0.0
C1286 C 0.39811 0.19629 0.80224 0.0
C1287 C 0.39991 0.19173 0.69754 0.0
C1288 C 0.39655 0.21009 0.84818 0.0
C1289 C 0.39827 0.23429 0.8403 0.0
C1290 C 0.40138 0.20689 0.74832 0.0
C1291 C 0.40244 0.24462 0.78634 0.0
C1292 C 0.40574 0.20366 0.64479 0.0
C1293 C 0.3867 0.15054 0.6546 0.0
N1294 N 0.40378 0.23084 0.74235 0.0
N1295 N 0.39088 0.1656 0.70087 0.0
H1296 H 0.88324 0.26615 0.65447 0.0
H1297 H 0.75402 0.14387 0.77968 0.0
H1298 H 0.82838 0.20061 0.55539 0.0
H1299 H 0.81525 0.2025 0.88204 0.0
H1300 H 0.77878 0.16677 0.69596 0.0
H1301 H 0.85628 0.24563 0.73741 0.0
C1302 C 0.86538 0.24763 0.65004 0.0
C1303 C 0.85812 0.23504 0.59799 0.0
C1304 C 0.7868 0.17465 0.73675 0.0
C1305 C 0.82721 0.2114 0.69258 0.0
C1306 C 0.77264 0.16159 0.7845 0.0
C1307 C 0.78279 0.17112 0.83783 0.0
C1308 C 0.81113 0.19757 0.74237 0.0
C1309 C 0.8069 0.1943 0.84166 0.0
C1310 C 0.85007 0.23583 0.69741 0.0
C1311 C 0.83484 0.21095 0.59474 0.0
N1312 N 0.82028 0.20668 0.79466 0.0
N1313 N 0.82029 0.19992 0.6413 0.0
H1314 H 0.87703 0.61691 0.78692 0.0
H1315 H 0.75361 0.61801 0.65319 0.0
H1316 H 0.81599 0.61554 0.88747 0.0
H1317 H 0.82476 0.63953 0.56375 0.0
H1318 H 0.77307 0.61128 0.73771 0.0
H1319 H 0.85485 0.61907 0.70282 0.0
C1320 C 0.85883 0.61685 0.79132 0.0
C1321 C 0.84847 0.61629 0.84437 0.0
C1322 C 0.7843 0.61732 0.69941 0.0
C1323 C 0.82281 0.61859 0.74797 0.0
C1324 C 0.77318 0.62105 0.65114 0.0
C1325 C 0.78755 0.62935 0.60125 0.0
C1326 C 0.80982 0.62154 0.69751 0.0
C1327 C 0.81294 0.63325 0.60122 0.0
C1328 C 0.84621 0.61817 0.74324 0.0
C1329 C 0.82476 0.61617 0.84737 0.0
N1330 N 0.82319 0.62927 0.64841 0.0
N1331 N 0.81273 0.61734 0.79988 0.0
H1332 H 0.82279 0.60537 0.06505 0.0
H1333 H 0.82461 0.63086 0.39476 0.0
H1334 H 0.89434 0.64202 0.15931 0.0
H1335 H 0.76481 0.62369 0.28232 0.0
H1336 H 0.84784 0.62548 0.31474 0.0
H1337 H 0.7986 0.60154 0.15047 0.0
C1338 C 0.83339 0.61237 0.10402 0.0
C1339 C 0.86067 0.62451 0.10496 0.0
C1340 C 0.82931 0.62444 0.3079 0.0
C1341 C 0.83298 0.62009 0.20329 0.0
C1342 C 0.81596 0.62719 0.35349 0.0
C1343 C 0.79239 0.62683 0.34504 0.0
C1344 C 0.81879 0.62107 0.25382 0.0
C1345 C 0.78248 0.62321 0.29065 0.0
C1346 C 0.81957 0.61023 0.15275 0.0
C1347 C 0.87333 0.63272 0.15681 0.0
N1348 N 0.79564 0.62038 0.24722 0.0
N1349 N 0.85941 0.63065 0.20397 0.0
H1350 H 0.39075 0.19919 0.38975 0.0
H1351 H 0.39117 0.20238 0.05672 0.0
H1352 H 0.40427 0.14711 0.28772 0.0
H1353 H 0.39943 0.26662 0.15689 0.0
H1354 H 0.39445 0.18122 0.14108 0.0
H1355 H 0.39197 0.22319 0.30566 0.0
C1356 C 0.39412 0.19286 0.34968 0.0
C1357 C 0.39738 0.17104 0.34583 0.0
C1358 C 0.39579 0.20004 0.14473 0.0
C1359 C 0.39882 0.19851 0.24928 0.0
C1360 C 0.39388 0.21216 0.09653 0.0
C1361 C 0.39501 0.23634 0.09976 0.0
C1362 C 0.39848 0.21192 0.19698 0.0
C1363 C 0.39863 0.24808 0.15249 0.0
C1364 C 0.3949 0.20666 0.30171 0.0
C1365 C 0.40171 0.1638 0.29277 0.0
N1366 N 0.39996 0.23562 0.19916 0.0
N1367 N 0.40213 0.1774 0.24661 0.0
H1368 H 0.80405 0.2001 0.06186 0.0
H1369 H 0.83612 0.19016 0.38264 0.0
H1370 H 0.76981 0.12755 0.15213 0.0
H1371 H 0.86919 0.26211 0.29107 0.0
H1372 H 0.80851 0.16722 0.30202 0.0
H1373 H 0.82469 0.22348 0.14805 0.0
C1374 C 0.80079 0.18912 0.10011 0.0
C1375 C 0.78555 0.16183 0.09986 0.0
C1376 C 0.82149 0.18809 0.29969 0.0
C1377 C 0.80913 0.1885 0.19895 0.0
C1378 C 0.83725 0.20113 0.34562 0.0
C1379 C 0.85487 0.22797 0.34319 0.0
C1380 C 0.8235 0.20206 0.25078 0.0
C1381 C 0.85555 0.24147 0.29474 0.0
C1382 C 0.81255 0.20247 0.14934 0.0
C1383 C 0.78156 0.14859 0.15062 0.0
N1384 N 0.84026 0.22834 0.25022 0.0
N1385 N 0.79354 0.16202 0.19808 0.0
H1386 H 0.60309 0.79168 0.13446 0.0
H1387 H 0.63567 0.82444 0.45941 0.0
H1388 H 0.65267 0.77294 0.23123 0.0
H1389 H 0.61407 0.86996 0.35554 0.0
H1390 H 0.6316 0.79753 0.37917 0.0
H1391 H 0.59709 0.81275 0.21796 0.0
C1392 C 0.61219 0.79151 0.17357 0.0
C1393 C 0.62846 0.78071 0.17625 0.0
C1394 C 0.62756 0.81327 0.37382 0.0
C1395 C 0.62166 0.80443 0.27106 0.0
C1396 C 0.62987 0.82872 0.41974 0.0
C1397 C 0.6256 0.84983 0.41416 0.0
C1398 C 0.62081 0.81872 0.32145 0.0
C1399 C 0.61766 0.85397 0.36167 0.0
C1400 C 0.60897 0.80369 0.22087 0.0
C1401 C 0.64007 0.78118 0.2275 0.0
N1402 N 0.61573 0.83868 0.31705 0.0
N1403 N 0.63647 0.79284 0.27272 0.0
H1404 H 0.19602 0.81652 0.45907 0.0
H1405 H 0.22733 0.81794 0.13243 0.0
H1406 H 0.14964 0.74983 0.35381 0.0
H1407 H 0.24806 0.88626 0.23173 0.0
H1408 H 0.20581 0.79057 0.21529 0.0
H1409 H 0.22245 0.83985 0.37856 0.0
C1410 C 0.19145 0.80663 0.41905 0.0
C1411 C 0.17022 0.78122 0.41326 0.0
C1412 C 0.2154 0.81156 0.21891 0.0
C1413 C 0.20084 0.8081 0.32014 0.0
C1414 C 0.22786 0.82714 0.17194 0.0
C1415 C 0.23945 0.85434 0.17549 0.0
C1416 C 0.21513 0.82343 0.26974 0.0
C1417 C 0.2393 0.86535 0.22729 0.0
C1418 C 0.20661 0.82006 0.37294 0.0
C1419 C 0.16571 0.76942 0.36021 0.0
N1420 N 0.22738 0.84992 0.27217 0.0
N1421 N 0.18076 0.78303 0.31551 0.0
H1422 H 0.20464 0.41684 0.12785 0.0
H1423 H 0.2054 0.38419 0.45219 0.0
H1424 H 0.13717 0.36189 0.22139 0.0
H1425 H 0.27399 0.40931 0.35042 0.0
H1426 H 0.18203 0.38616 0.37077 0.0
H1427 H 0.23185 0.42374 0.21156 0.0
C1428 C 0.19555 0.40657 0.16616 0.0
C1429 C 0.16869 0.38862 0.16776 0.0
C1430 C 0.20225 0.39144 0.36614 0.0
C1431 C 0.19939 0.39656 0.26303 0.0
C1432 C 0.21571 0.39038 0.41277 0.0
C1433 C 0.24168 0.39619 0.40818 0.0
C1434 C 0.21472 0.39858 0.31402 0.0
C1435 C 0.25397 0.40452 0.35587 0.0
C1436 C 0.21106 0.41036 0.21361 0.0
C1437 C 0.15784 0.37572 0.21823 0.0
N1438 N 0.24031 0.40527 0.31057 0.0
N1439 N 0.17316 0.37996 0.26365 0.0
H1440 H 0.22947 0.29016 0.18319 0.0
H1441 H 0.34063 0.31227 0.96303 0.0
H1442 H 0.24276 0.33193 0.02788 0.0
H1443 H 0.32614 0.26795 0.11458 0.0
H1444 H 0.30614 0.32138 0.9886 0.0
H1445 H 0.2656 0.28296 0.16081 0.0
C1446 C 0.24006 0.29794 0.1445 0.0
C1447 C 0.23301 0.31166 0.10731 0.0
C1448 C 0.3104 0.30959 0.01632 0.0
C1449 C 0.2744 0.30342 0.08139 0.0
C1450 C 0.33013 0.30443 0.00177 0.0
C1451 C 0.33556 0.28857 0.03589 0.0
C1452 C 0.29625 0.29917 0.06592 0.0
C1453 C 0.32184 0.27947 0.08622 0.0
C1454 C 0.26063 0.29373 0.13167 0.0
C1455 C 0.24725 0.32096 0.05747 0.0
N1456 N 0.30267 0.28474 0.09962 0.0
N1457 N 0.26724 0.3167 0.04604 0.0
H1458 H 0.70624 0.04838 0.06064 0.0
H1459 H 0.74373 0.9361 0.06412 0.0
H1460 H 0.77991 0.05864 0.00479 0.0
H1461 H 0.67302 0.92653 0.13753 0.0
H1462 H 0.75676 0.98106 0.04097 0.0
H1463 H 0.69339 1.00395 0.08941 0.0
C1464 C 0.71991 0.04153 0.05486 0.0
C1465 C 0.7444 0.0576 0.03017 0.0
C1466 C 0.73839 0.96918 0.06223 0.0
C1467 C 0.72959 1.00649 0.06263 0.0
C1468 C 0.73085 0.9434 0.07509 0.0
C1469 C 0.7072 0.92742 0.1027 0.0
C1470 C 0.72215 0.97919 0.07674 0.0
C1471 C 0.69153 0.93818 0.11669 0.0
C1472 C 0.71249 0.01607 0.07125 0.0
C1473 C 0.76105 0.04736 0.02379 0.0
N1474 N 0.69923 0.96333 0.10339 0.0
N1475 N 0.75333 0.02255 0.03955 0.0
H1476 H 0.97343 0.71797 0.95359 0.0
H1477 H 0.09289 0.7529 0.15661 0.0
H1478 H 0.96622 0.66823 0.0919 0.0
H1479 H 0.08582 0.80949 0.05627 0.0
H1480 H 0.04855 0.71996 0.12915 0.0
H1481 H 0.01682 0.74977 0.98519 0.0
C1482 C 0.98082 0.71383 0.99113 0.0
C1483 C 0.96581 0.6906 0.02083 0.0
C1484 C 0.05679 0.73962 0.11333 0.0
C1485 C 0.01626 0.72683 0.05646 0.0
C1486 C 0.08207 0.75852 0.12914 0.0
C1487 C 0.09338 0.78413 0.10846 0.0
C1488 C 0.04279 0.74628 0.07616 0.0
C1489 C 0.07837 0.78998 0.07235 0.0
C1490 C 1.00578 0.73198 0.00893 0.0
C1491 C 0.97706 0.6859 0.06777 0.0
N1492 N 0.05401 0.77123 0.05723 0.0
N1493 N 1.00167 0.70389 0.08422 0.0
H1494 H 0.30836 0.24255 0.27712 0.0
H1495 H 0.30549 0.32766 0.53295 0.0
H1496 H 0.30156 0.21792 0.44923 0.0
H1497 H 0.28353 0.3354 0.3657 0.0
H1498 H 0.31141 0.29168 0.5017 0.0
H1499 H 0.30602 0.28054 0.30772 0.0
C1500 C 0.30628 0.24498 0.32136 0.0
C1501 C 0.30488 0.22662 0.36052 0.0
C1502 C 0.30556 0.3014 0.47167 0.0
C1503 C 0.30291 0.27077 0.39583 0.0
C1504 C 0.30241 0.32207 0.48941 0.0
C1505 C 0.29408 0.33447 0.4518 0.0
C1506 C 0.30085 0.29341 0.41554 0.0
C1507 C 0.28996 0.32625 0.39591 0.0
C1508 C 0.30509 0.26683 0.33874 0.0
C1509 C 0.30299 0.2315 0.4174 0.0
N1510 N 0.29344 0.30624 0.37937 0.0
N1511 N 0.30205 0.25306 0.43329 0.0
H1512 H 0.69059 0.98119 0.54108 0.0
H1513 H 0.77611 0.08258 0.31315 0.0
H1514 H 0.69322 0.95326 0.37618 0.0
H1515 H 0.80896 0.08345 0.47517 0.0
H1516 H 0.73947 0.03936 0.3343 0.0
H1517 H 0.72766 0.02382 0.51684 0.0
C1518 C 0.6989 0.98408 0.49971 0.0
C1519 C 0.68923 0.9636 0.46091 0.0
C1520 C 0.75481 0.04921 0.36494 0.0
C1521 C 0.73082 0.01246 0.43229 0.0
C1522 C 0.77592 0.07387 0.35296 0.0
C1523 C 0.79607 0.08712 0.39227 0.0
C1524 C 0.75332 0.03797 0.41719 0.0
C1525 C 0.79387 0.07468 0.44379 0.0
C1526 C 0.72002 1.00835 0.48599 0.0
C1527 C 0.70038 0.96855 0.40738 0.0
N1528 N 0.77279 0.05099 0.45492 0.0
N1529 N 0.72056 0.99262 0.39436 0.0
H1530 H 0.93842 0.73869 0.4587 0.0
H1531 H 0.06658 0.74028 0.37025 0.0
H1532 H 0.93518 0.69016 0.32005 0.0
H1533 H 0.04041 0.72561 0.54132 0.0
H1534 H 0.02358 0.73364 0.34244 0.0
H1535 H 0.98163 0.74604 0.4818 0.0
C1536 C 0.94648 0.72941 0.4331 0.0
C1537 C 0.93252 0.71337 0.38755 0.0
C1538 C 0.02739 0.73181 0.38597 0.0
C1539 C 0.98277 0.72302 0.41269 0.0
C1540 C 0.05174 0.73554 0.40176 0.0
C1541 C 0.0568 0.73317 0.45803 0.0
C1542 C 1.00852 0.72659 0.42714 0.0
C1543 C 0.03717 0.72732 0.49755 0.0
C1544 C 0.97133 0.73391 0.44618 0.0
C1545 C 0.94497 0.70294 0.35501 0.0
N1546 N 0.01397 0.72456 0.4815 0.0
N1547 N 0.9694 0.70805 0.36806 0.0
H1548 H 0.68452 0.70483 0.02942 0.0
H1549 H 0.79133 0.73042 0.79468 0.0
H1550 H 0.69818 0.75332 0.88507 0.0
H1551 H 0.77655 0.68014 0.93673 0.0
H1552 H 0.75825 0.74002 0.82873 0.0
H1553 H 0.7182 0.69569 0.99677 0.0
C1554 C 0.69471 0.71366 0.99088 0.0
C1555 C 0.68926 0.73068 0.96093 0.0
C1556 C 0.76223 0.72691 0.85257 0.0
C1557 C 0.72765 0.72001 0.92276 0.0
C1558 C 0.78112 0.72136 0.83308 0.0
C1559 C 0.78667 0.70426 0.86262 0.0
C1560 C 0.74858 0.71524 0.90201 0.0
C1561 C 0.7731 0.69355 0.91271 0.0
C1562 C 0.71398 0.70846 0.9723 0.0
C1563 C 0.70254 0.74095 0.91054 0.0
N1564 N 0.75461 0.6991 0.93062 0.0
N1565 N 0.72122 0.73561 0.89319 0.0
H1566 H 0.33349 0.08705 0.81823 0.0
H1567 H 0.27995 0.97526 0.04408 0.0
H1568 H 0.28576 0.08507 0.95692 0.0
H1569 H 0.28716 0.95835 0.8722 0.0
H1570 H 0.28819 0.01836 0.01692 0.0
H1571 H 0.32221 0.04237 0.8401 0.0
C1572 C 0.3205 0.07733 0.85295 0.0
C1573 C 0.31071 0.09025 0.88579 0.0
C1574 C 0.28809 1.00532 0.98507 0.0
C1575 C 0.29842 0.03916 0.9118 0.0
C1576 C 0.28375 0.98086 1.00071 0.0
C1577 C 0.28339 0.96353 0.96052 0.0
C1578 C 0.29271 0.01277 0.92874 0.0
C1579 C 0.28743 0.97133 0.9044 0.0
C1580 C 0.31418 0.0518 0.86544 0.0
C1581 C 0.29441 0.07647 0.93103 0.0
N1582 N 0.29224 0.99559 0.89008 0.0
N1583 N 0.28901 0.05185 0.94294 0.0
H1584 H 0.07231 0.3274 0.86792 0.0
H1585 H 0.92541 0.22315 0.95455 0.0
H1586 H 0.03842 0.32687 0.02742 0.0
H1587 H 0.95769 0.22485 0.79179 0.0
H1588 H 0.96619 0.26207 0.98053 0.0
H1589 H 0.03007 0.29113 0.8373 0.0
C1590 C 0.05588 0.31976 0.89629 0.0
C1591 C 0.05886 0.32996 0.95043 0.0
C1592 C 0.96434 0.25401 0.93901 0.0
C1593 C 1.01056 0.28841 0.91611 0.0
C1594 C 0.94094 0.23181 0.92398 0.0
C1595 C 0.93792 0.22056 0.87075 0.0
C1596 C 0.98508 0.26522 0.90067 0.0
C1597 C 0.9591 0.23253 0.83349 0.0
C1598 C 0.03179 0.29907 0.87889 0.0
C1599 C 0.03695 0.31957 0.98541 0.0
N1600 N 0.98171 0.25411 0.84916 0.0
N1601 N 0.01384 0.29923 0.96792 0.0
H1602 H 0.73424 0.80955 0.53178 0.0
H1603 H 0.74348 0.68752 0.62879 0.0
H1604 H 0.69551 0.76919 0.68376 0.0
H1605 H 0.73058 0.69882 0.45665 0.0
H1606 H 0.73465 0.72256 0.65569 0.0
H1607 H 0.74172 0.77388 0.50866 0.0
C1608 C 0.72706 0.79324 0.56027 0.0
C1609 C 0.7138 0.79252 0.60966 0.0
C1610 C 0.73347 0.71706 0.61212 0.0
C1611 C 0.72364 0.75207 0.58415 0.0
C1612 C 0.73847 0.69719 0.59687 0.0
C1613 C 0.73712 0.69003 0.54057 0.0
C1614 C 0.72796 0.73024 0.57043 0.0
C1615 C 0.73104 0.70331 0.50049 0.0
C1616 C 0.73165 0.77298 0.54711 0.0
C1617 C 0.70608 0.77104 0.64559 0.0
N1618 N 0.72698 0.723 0.51606 0.0
N1619 N 0.71123 0.75176 0.63227 0.0
H1620 H 0.26303 0.9249 0.6658 0.0
H1621 H 0.29715 0.04316 0.46147 0.0
H1622 H 0.20716 0.93117 0.56123 0.0
H1623 H 0.34656 0.05329 0.6025 0.0
H1624 H 0.26628 0.99993 0.49333 0.0
H1625 H 0.29571 0.96986 0.64078 0.0
C1626 C 0.25754 0.93568 0.6379 0.0
C1627 C 0.23229 0.92398 0.61499 0.0
C1628 C 0.28369 0.01155 0.5179 0.0
C1629 C 0.26968 0.97516 0.58585 0.0
C1630 C 0.30131 0.03652 0.49996 0.0
C1631 C 0.32412 0.0524 0.5303 0.0
C1632 C 0.28887 1.00179 0.56645 0.0
C1633 C 0.32906 0.04184 0.57814 0.0
C1634 C 0.27625 0.96129 0.62359 0.0
C1635 C 0.22646 0.93893 0.5788 0.0
N1636 N 0.3115 0.01709 0.59492 0.0
N1637 N 0.24498 0.96355 0.56522 0.0
H1638 H 0.96045 0.26355 0.62219 0.0
H1639 H 0.10942 0.32855 0.52386 0.0
H1640 H 0.98984 0.30373 0.46578 0.0
H1641 H 0.08197 0.2901 0.68301 0.0
H1642 H 0.06532 0.31869 0.50174 0.0
H1643 H 1.00446 0.2725 0.64577 0.0
C1644 C 0.97615 0.27406 0.59269 0.0
C1645 C 0.97143 0.28234 0.54143 0.0
C1646 C 0.06889 0.31238 0.54154 0.0
C1647 C 0.0218 0.29318 0.56835 0.0
C1648 C 0.09409 0.31785 0.55405 0.0
C1649 C 0.09949 0.31009 0.60534 0.0
C1650 C 0.04877 0.29904 0.58053 0.0
C1651 C 0.07881 0.29672 0.6432 0.0
C1652 C 1.00127 0.27932 0.60624 0.0
C1653 C 0.99256 0.2967 0.50547 0.0
N1654 N 0.05438 0.29159 0.63002 0.0
N1655 N 0.01675 0.30152 0.51944 0.0
loop_
_geom_bond_atom_site_label_1
_geom_bond_atom_site_label_2
_geom_bond_distance
_geom_bond_site_symmetry_2
_ccdc_geom_bond_type
C0 C2 1.422 . S
C0 C4 1.415 . S
C0 N6 1.369 . S
C1 C2 1.421 1_556 S
C1 C3 1.417 . S
C1 C13 1.422 . S
C2 C0 1.422 . S
C2 C1 1.421 1_554 S
C2 N12 1.359 . S
C3 C1 1.417 . S
C3 C5 1.329 1_556 S
C3 H22 0.930 . S
C4 C0 1.415 . S
C4 C5 1.437 . S
C4 C8 1.413 . S
C5 C3 1.329 1_554 S
C5 C4 1.437 . S
C5 H27 0.929 . S
N6 C0 1.369 . S
N6 C7 1.338 . S
N6 Gd11 2.622 . S
C7 N6 1.338 . S
C7 C9 1.378 . S
C7 H19 0.929 . S
C8 C4 1.413 . S
C8 C9 1.348 . S
C8 H24 0.931 . S
C9 C7 1.378 . S
C9 C8 1.348 . S
C9 H25 0.930 . S
Gd10 N30 2.622 . S
Gd10 N37 2.570 . S
Gd10 O44 2.353 . S
Gd10 O45 2.468 . S
Gd10 O46 2.427 . S
Gd10 O48 2.388 1_554 S
Gd10 O49 2.386 . S
Gd10 O53 2.307 . S
Gd10 C63 2.805 . S
Gd11 N6 2.622 . S
Gd11 N12 2.570 . S
Gd11 O43 2.386 . S
Gd11 O47 2.307 . S
Gd11 O50 2.353 . S
Gd11 O51 2.468 . S
Gd11 O52 2.427 . S
Gd11 O54 2.388 . S
Gd11 C75 2.805 . S
N12 C2 1.359 . S
N12 Gd11 2.570 . S
N12 C14 1.343 1_554 S
C13 C1 1.422 . S
C13 C15 1.321 . S
C13 H21 0.931 . S
C14 N12 1.343 1_556 S
C14 C15 1.390 . S
C14 H16 0.931 . S
C15 C13 1.321 . S
C15 C14 1.390 . S
C15 H17 0.930 . S
H16 C14 0.931 . S
H17 C15 0.930 . S
H18 C41 0.931 . S
H19 C7 0.929 . S
H20 C42 0.930 . S
H21 C13 0.931 . S
H22 C3 0.930 . S
H23 C32 0.929 1_556 S
H24 C8 0.931 . S
H25 C9 0.930 . S
H26 C64 0.930 . S
H27 C5 0.929 . S
H28 C33 0.931 . S
H29 C34 0.930 . S
N30 Gd10 2.622 . S
N30 C31 1.369 . S
N30 C32 1.338 . S
C31 N30 1.369 . S
C31 C35 1.415 . S
C31 C38 1.422 . S
C32 H23 0.929 1_554 S
C32 N30 1.338 . S
C32 C34 1.378 1_554 S
C33 H28 0.931 . S
C33 C34 1.348 1_554 S
C33 C35 1.413 . S
C34 H29 0.930 . S
C34 C32 1.378 1_556 S
C34 C33 1.348 1_556 S
C35 C31 1.415 . S
C35 C33 1.413 . S
C35 C65 1.437 . S
H36 C65 0.929 . S
N37 Gd10 2.570 . S
N37 C38 1.359 . S
N37 C41 1.343 . S
C38 C31 1.422 . S
C38 N37 1.359 . S
C38 C40 1.421 . S
C39 C40 1.422 . S
C39 C42 1.321 . S
C39 H66 0.931 . S
C40 C38 1.421 . S
C40 C39 1.422 . S
C40 C64 1.417 . S
C41 H18 0.931 . S
C41 N37 1.343 . S
C41 C42 1.390 . S
C42 H20 0.930 . S
C42 C39 1.321 . S
C42 C41 1.390 . S
O43 Gd11 2.386 . S
O43 C55 1.265 . S
O44 Gd10 2.353 . S
O44 C55 1.242 . S
O45 Gd10 2.468 . S
O45 C63 1.263 . S
O46 Gd10 2.427 . S
O46 C63 1.252 . S
O47 Gd11 2.307 . S
O47 C56 1.261 1_554 S
O48 Gd10 2.388 1_556 S
O48 C56 1.252 . S
O49 Gd10 2.386 . S
O49 C67 1.265 . S
O50 Gd11 2.353 . S
O50 C67 1.242 . S
O51 Gd11 2.468 . S
O51 C75 1.263 . S
O52 Gd11 2.427 . S
O52 C75 1.252 . S
O53 Gd10 2.307 . S
O53 C68 1.261 . S
O54 Gd11 2.388 . S
O54 C68 1.252 . S
C55 O43 1.265 . S
C55 O44 1.242 . S
C56 O47 1.261 1_556 S
C56 O48 1.252 . S
C57 C60 1.394 1_554 S
C57 C62 1.370 . S
C57 C63 1.500 . S
C58 C61 1.383 . S
C58 C62 1.395 . S
C59 C60 1.396 . S
C59 C61 1.365 1_556 S
C59 H76 0.929 . S
C60 C57 1.394 1_556 S
C60 C59 1.396 . S
C60 H77 0.930 . S
C61 C58 1.383 . S
C61 C59 1.365 1_554 S
C61 H78 0.931 . S
C62 C57 1.370 . S
C62 C58 1.395 . S
C62 H79 0.930 . S
C63 Gd10 2.805 . S
C63 O45 1.263 . S
C63 O46 1.252 . S
C63 C57 1.500 . S
C64 H26 0.930 . S
C64 C40 1.417 . S
C64 C65 1.329 . S
C65 C35 1.437 . S
C65 H36 0.929 . S
C65 C64 1.329 . S
H66 C39 0.931 . S
C67 O49 1.265 . S
C67 O50 1.242 . S
C68 O53 1.261 . S
C68 O54 1.252 . S
C69 C72 1.394 . S
C69 C74 1.370 . S
C69 C75 1.500 . S
C70 C73 1.383 . S
C70 C74 1.395 . S
C71 C72 1.396 . S
C71 C73 1.365 . S
C71 H80 0.929 . S
C72 C69 1.394 . S
C72 C71 1.396 . S
C72 H81 0.930 . S
C73 C70 1.383 . S
C73 C71 1.365 . S
C73 H82 0.931 . S
C74 C69 1.370 . S
C74 C70 1.395 . S
C74 H83 0.930 . S
C75 Gd11 2.805 . S
C75 O51 1.263 . S
C75 O52 1.252 . S
C75 C69 1.500 . S
H76 C59 0.929 . S
H77 C60 0.930 . S
H78 C61 0.931 . S
H79 C62 0.930 . S
H80 C71 0.929 . S
H81 C72 0.930 . S
H82 C73 0.931 . S
H83 C74 0.930 . S
C84 C86 1.422 . S
C84 C88 1.415 . S
C84 N90 1.369 . S
C85 C86 1.421 1_556 S
C85 C87 1.417 . S
C85 C97 1.422 . S
C86 C84 1.422 . S
C86 C85 1.421 1_554 S
C86 N96 1.359 . S
C87 C85 1.417 . S
C87 C89 1.329 1_556 S
C87 H106 0.930 . S
C88 C84 1.415 . S
C88 C89 1.437 . S
C88 C92 1.413 . S
C89 C87 1.329 1_554 S
C89 C88 1.437 . S
C89 H111 0.929 . S
N90 C84 1.369 . S
N90 C91 1.338 . S
N90 Gd95 2.622 . S
C91 N90 1.338 . S
C91 C93 1.378 . S
C91 H103 0.929 . S
C92 C88 1.413 . S
C92 C93 1.348 . S
C92 H108 0.931 . S
C93 C91 1.378 . S
C93 C92 1.348 . S
C93 H109 0.930 . S
Gd94 N114 2.622 . S
Gd94 N121 2.570 . S
Gd94 O128 2.353 . S
Gd94 O129 2.468 . S
Gd94 O130 2.427 . S
Gd94 O132 2.388 1_554 S
Gd94 O133 2.386 . S
Gd94 O137 2.307 . S
Gd94 C147 2.805 . S
Gd95 N90 2.622 . S
Gd95 N96 2.570 . S
Gd95 O127 2.386 . S
Gd95 O131 2.307 . S
Gd95 O134 2.353 . S
Gd95 O135 2.468 . S
Gd95 O136 2.427 . S
Gd95 O138 2.388 . S
Gd95 C159 2.805 . S
N96 C86 1.359 . S
N96 Gd95 2.570 . S
N96 C98 1.343 1_554 S
C97 C85 1.422 . S
C97 C99 1.321 . S
C97 H105 0.931 . S
C98 N96 1.343 1_556 S
C98 C99 1.390 . S
C98 H100 0.931 . S
C99 C97 1.321 . S
C99 C98 1.390 . S
C99 H101 0.930 . S
H100 C98 0.931 . S
H101 C99 0.930 . S
H102 C125 0.931 . S
H103 C91 0.929 . S
H104 C126 0.930 . S
H105 C97 0.931 . S
H106 C87 0.930 . S
H107 C116 0.929 1_556 S
H108 C92 0.931 . S
H109 C93 0.930 . S
H110 C148 0.930 . S
H111 C89 0.929 . S
H112 C117 0.931 . S
H113 C118 0.930 . S
N114 Gd94 2.622 . S
N114 C115 1.369 . S
N114 C116 1.338 . S
C115 N114 1.369 . S
C115 C119 1.415 . S
C115 C122 1.422 . S
C116 H107 0.929 1_554 S
C116 N114 1.338 . S
C116 C118 1.378 1_554 S
C117 H112 0.931 . S
C117 C118 1.348 1_554 S
C117 C119 1.413 . S
C118 H113 0.930 . S
C118 C116 1.378 1_556 S
C118 C117 1.348 1_556 S
C119 C115 1.415 . S
C119 C117 1.413 . S
C119 C149 1.437 . S
H120 C149 0.929 . S
N121 Gd94 2.570 . S
N121 C122 1.359 . S
N121 C125 1.343 . S
C122 C115 1.422 . S
C122 N121 1.359 . S
C122 C124 1.421 . S
C123 C124 1.422 . S
C123 C126 1.321 . S
C123 H150 0.931 . S
C124 C122 1.421 . S
C124 C123 1.422 . S
C124 C148 1.417 . S
C125 H102 0.931 . S
C125 N121 1.343 . S
C125 C126 1.390 . S
C126 H104 0.930 . S
C126 C123 1.321 . S
C126 C125 1.390 . S
O127 Gd95 2.386 . S
O127 C139 1.265 . S
O128 Gd94 2.353 . S
O128 C139 1.242 . S
O129 Gd94 2.468 . S
O129 C147 1.263 . S
O130 Gd94 2.427 . S
O130 C147 1.252 . S
O131 Gd95 2.307 . S
O131 C140 1.261 1_554 S
O132 Gd94 2.388 1_556 S
O132 C140 1.252 . S
O133 Gd94 2.386 . S
O133 C151 1.265 . S
O134 Gd95 2.353 . S
O134 C151 1.242 . S
O135 Gd95 2.468 . S
O135 C159 1.263 . S
O136 Gd95 2.427 . S
O136 C159 1.252 . S
O137 Gd94 2.307 . S
O137 C152 1.261 . S
O138 Gd95 2.388 . S
O138 C152 1.252 . S
C139 O127 1.265 . S
C139 O128 1.242 . S
C140 O131 1.261 1_556 S
C140 O132 1.252 . S
C141 C144 1.394 1_554 S
C141 C146 1.370 . S
C141 C147 1.500 . S
C142 C145 1.383 . S
C142 C146 1.395 . S
C143 C144 1.396 . S
C143 C145 1.365 1_556 S
C143 H160 0.929 . S
C144 C141 1.394 1_556 S
C144 C143 1.396 . S
C144 H161 0.930 . S
C145 C142 1.383 . S
C145 C143 1.365 1_554 S
C145 H162 0.931 . S
C146 C141 1.370 . S
C146 C142 1.395 . S
C146 H163 0.930 . S
C147 Gd94 2.805 . S
C147 O129 1.263 . S
C147 O130 1.252 . S
C147 C141 1.500 . S
C148 H110 0.930 . S
C148 C124 1.417 . S
C148 C149 1.329 . S
C149 C119 1.437 . S
C149 H120 0.929 . S
C149 C148 1.329 . S
H150 C123 0.931 . S
C151 O133 1.265 . S
C151 O134 1.242 . S
C152 O137 1.261 . S
C152 O138 1.252 . S
C153 C156 1.394 . S
C153 C158 1.370 . S
C153 C159 1.500 . S
C154 C157 1.383 . S
C154 C158 1.395 . S
C155 C156 1.396 . S
C155 C157 1.365 . S
C155 H164 0.929 . S
C156 C153 1.394 . S
C156 C155 1.396 . S
C156 H165 0.930 . S
C157 C154 1.383 . S
C157 C155 1.365 . S
C157 H166 0.931 . S
C158 C153 1.370 . S
C158 C154 1.395 . S
C158 H167 0.930 . S
C159 Gd95 2.805 . S
C159 O135 1.263 . S
C159 O136 1.252 . S
C159 C153 1.500 . S
H160 C143 0.929 . S
H161 C144 0.930 . S
H162 C145 0.931 . S
H163 C146 0.930 . S
H164 C155 0.929 . S
H165 C156 0.930 . S
H166 C157 0.931 . S
H167 C158 0.930 . S
C168 C170 1.422 . S
C168 C172 1.415 . S
C168 N174 1.369 . S
C169 C170 1.421 1_556 S
C169 C171 1.417 . S
C169 C181 1.422 . S
C170 C168 1.422 . S
C170 C169 1.421 1_554 S
C170 N180 1.359 . S
C171 C169 1.417 . S
C171 C173 1.329 1_556 S
C171 H190 0.930 . S
C172 C168 1.415 . S
C172 C173 1.437 . S
C172 C176 1.413 . S
C173 C171 1.329 1_554 S
C173 C172 1.437 . S
C173 H195 0.929 . S
N174 C168 1.369 . S
N174 C175 1.338 . S
N174 Gd179 2.622 . S
C175 N174 1.338 . S
C175 C177 1.378 . S
C175 H187 0.929 . S
C176 C172 1.413 . S
C176 C177 1.348 . S
C176 H192 0.931 . S
C177 C175 1.378 . S
C177 C176 1.348 . S
C177 H193 0.930 . S
Gd178 N198 2.622 . S
Gd178 N205 2.570 . S
Gd178 O212 2.353 . S
Gd178 O213 2.468 . S
Gd178 O214 2.427 . S
Gd178 O216 2.388 1_554 S
Gd178 O217 2.386 . S
Gd178 O221 2.307 . S
Gd178 C231 2.805 . S
Gd179 N174 2.622 . S
Gd179 N180 2.570 . S
Gd179 O211 2.386 . S
Gd179 O215 2.307 . S
Gd179 O218 2.353 . S
Gd179 O219 2.468 . S
Gd179 O220 2.427 . S
Gd179 O222 2.388 . S
Gd179 C243 2.805 . S
N180 C170 1.359 . S
N180 Gd179 2.570 . S
N180 C182 1.343 1_554 S
C181 C169 1.422 . S
C181 C183 1.321 . S
C181 H189 0.931 . S
C182 N180 1.343 1_556 S
C182 C183 1.390 . S
C182 H184 0.931 . S
C183 C181 1.321 . S
C183 C182 1.390 . S
C183 H185 0.930 . S
H184 C182 0.931 . S
H185 C183 0.930 . S
H186 C209 0.931 . S
H187 C175 0.929 . S
H188 C210 0.930 . S
H189 C181 0.931 . S
H190 C171 0.930 . S
H191 C200 0.929 1_556 S
H192 C176 0.931 . S
H193 C177 0.930 . S
H194 C232 0.930 . S
H195 C173 0.929 . S
H196 C201 0.931 . S
H197 C202 0.930 . S
N198 Gd178 2.622 . S
N198 C199 1.369 . S
N198 C200 1.338 . S
C199 N198 1.369 . S
C199 C203 1.415 . S
C199 C206 1.422 . S
C200 H191 0.929 1_554 S
C200 N198 1.338 . S
C200 C202 1.378 1_554 S
C201 H196 0.931 . S
C201 C202 1.348 1_554 S
C201 C203 1.413 . S
C202 H197 0.930 . S
C202 C200 1.378 1_556 S
C202 C201 1.348 1_556 S
C203 C199 1.415 . S
C203 C201 1.413 . S
C203 C233 1.437 . S
H204 C233 0.929 . S
N205 Gd178 2.570 . S
N205 C206 1.359 . S
N205 C209 1.343 . S
C206 C199 1.422 . S
C206 N205 1.359 . S
C206 C208 1.421 . S
C207 C208 1.422 . S
C207 C210 1.321 . S
C207 H234 0.931 . S
C208 C206 1.421 . S
C208 C207 1.422 . S
C208 C232 1.417 . S
C209 H186 0.931 . S
C209 N205 1.343 . S
C209 C210 1.390 . S
C210 H188 0.930 . S
C210 C207 1.321 . S
C210 C209 1.390 . S
O211 Gd179 2.386 . S
O211 C223 1.265 . S
O212 Gd178 2.353 . S
O212 C223 1.242 . S
O213 Gd178 2.468 . S
O213 C231 1.263 . S
O214 Gd178 2.427 . S
O214 C231 1.252 . S
O215 Gd179 2.307 . S
O215 C224 1.261 1_554 S
O216 Gd178 2.388 1_556 S
O216 C224 1.252 . S
O217 Gd178 2.386 . S
O217 C235 1.265 . S
O218 Gd179 2.353 . S
O218 C235 1.242 . S
O219 Gd179 2.468 . S
O219 C243 1.263 . S
O220 Gd179 2.427 . S
O220 C243 1.252 . S
O221 Gd178 2.307 . S
O221 C236 1.261 . S
O222 Gd179 2.388 . S
O222 C236 1.252 . S
C223 O211 1.265 . S
C223 O212 1.242 . S
C224 O215 1.261 1_556 S
C224 O216 1.252 . S
C225 C228 1.394 1_554 S
C225 C230 1.370 . S
C225 C231 1.500 . S
C226 C229 1.383 . S
C226 C230 1.395 . S
C227 C228 1.396 . S
C227 C229 1.365 1_556 S
C227 H244 0.929 . S
C228 C225 1.394 1_556 S
C228 C227 1.396 . S
C228 H245 0.930 . S
C229 C226 1.383 . S
C229 C227 1.365 1_554 S
C229 H246 0.931 . S
C230 C225 1.370 . S
C230 C226 1.395 . S
C230 H247 0.930 . S
C231 Gd178 2.805 . S
C231 O213 1.263 . S
C231 O214 1.252 . S
C231 C225 1.500 . S
C232 H194 0.930 . S
C232 C208 1.417 . S
C232 C233 1.329 . S
C233 C203 1.437 . S
C233 H204 0.929 . S
C233 C232 1.329 . S
H234 C207 0.931 . S
C235 O217 1.265 . S
C235 O218 1.242 . S
C236 O221 1.261 . S
C236 O222 1.252 . S
C237 C240 1.394 . S
C237 C242 1.370 . S
C237 C243 1.500 . S
C238 C241 1.383 . S
C238 C242 1.395 . S
C239 C240 1.396 . S
C239 C241 1.365 . S
C239 H248 0.929 . S
C240 C237 1.394 . S
C240 C239 1.396 . S
C240 H249 0.930 . S
C241 C238 1.383 . S
C241 C239 1.365 . S
C241 H250 0.931 . S
C242 C237 1.370 . S
C242 C238 1.395 . S
C242 H251 0.930 . S
C243 Gd179 2.805 . S
C243 O219 1.263 . S
C243 O220 1.252 . S
C243 C237 1.500 . S
H244 C227 0.929 . S
H245 C228 0.930 . S
H246 C229 0.931 . S
H247 C230 0.930 . S
H248 C239 0.929 . S
H249 C240 0.930 . S
H250 C241 0.931 . S
H251 C242 0.930 . S
C252 C254 1.422 . S
C252 C256 1.415 . S
C252 N258 1.369 . S
C253 C254 1.421 . S
C253 C255 1.417 . S
C253 C265 1.422 . S
C254 C252 1.422 . S
C254 C253 1.421 . S
C254 N264 1.359 . S
C255 C253 1.417 . S
C255 C257 1.329 . S
C255 H274 0.930 . S
C256 C252 1.415 . S
C256 C257 1.437 . S
C256 C260 1.413 . S
C257 C255 1.329 . S
C257 C256 1.437 . S
C257 H279 0.929 . S
N258 C252 1.369 . S
N258 C259 1.338 . S
N258 Gd263 2.622 . S
C259 N258 1.338 . S
C259 C261 1.378 . S
C259 H271 0.929 . S
C260 C256 1.413 . S
C260 C261 1.348 . S
C260 H276 0.931 . S
C261 C259 1.378 . S
C261 C260 1.348 . S
C261 H277 0.930 . S
Gd262 N282 2.622 . S
Gd262 N289 2.570 . S
Gd262 O296 2.353 . S
Gd262 O297 2.468 . S
Gd262 O298 2.427 . S
Gd262 O300 2.388 . S
Gd262 O301 2.386 . S
Gd262 O305 2.307 . S
Gd262 C315 2.805 . S
Gd263 N258 2.622 . S
Gd263 N264 2.570 . S
Gd263 O295 2.386 . S
Gd263 O299 2.307 . S
Gd263 O302 2.353 . S
Gd263 O303 2.468 . S
Gd263 O304 2.427 . S
Gd263 O306 2.388 . S
Gd263 C327 2.805 . S
N264 C254 1.359 . S
N264 Gd263 2.570 . S
N264 C266 1.343 . S
C265 C253 1.422 . S
C265 C267 1.321 . S
C265 H273 0.931 . S
C266 N264 1.343 . S
C266 C267 1.390 . S
C266 H268 0.931 . S
C267 C265 1.321 . S
C267 C266 1.390 . S
C267 H269 0.930 . S
H268 C266 0.931 . S
H269 C267 0.930 . S
H270 C293 0.931 . S
H271 C259 0.929 . S
H272 C294 0.930 . S
H273 C265 0.931 . S
H274 C255 0.930 . S
H275 C284 0.929 . S
H276 C260 0.931 . S
H277 C261 0.930 . S
H278 C316 0.930 . S
H279 C257 0.929 . S
H280 C285 0.931 . S
H281 C286 0.930 . S
N282 Gd262 2.622 . S
N282 C283 1.369 . S
N282 C284 1.338 . S
C283 N282 1.369 . S
C283 C287 1.415 . S
C283 C290 1.422 . S
C284 H275 0.929 . S
C284 N282 1.338 . S
C284 C286 1.378 . S
C285 H280 0.931 . S
C285 C286 1.348 . S
C285 C287 1.413 . S
C286 H281 0.930 . S
C286 C284 1.378 . S
C286 C285 1.348 . S
C287 C283 1.415 . S
C287 C285 1.413 . S
C287 C317 1.437 . S
H288 C317 0.929 . S
N289 Gd262 2.570 . S
N289 C290 1.359 . S
N289 C293 1.343 . S
C290 C283 1.422 . S
C290 N289 1.359 . S
C290 C292 1.421 . S
C291 C292 1.422 . S
C291 C294 1.321 . S
C291 H318 0.931 . S
C292 C290 1.421 . S
C292 C291 1.422 . S
C292 C316 1.417 . S
C293 H270 0.931 . S
C293 N289 1.343 . S
C293 C294 1.390 . S
C294 H272 0.930 . S
C294 C291 1.321 . S
C294 C293 1.390 . S
O295 Gd263 2.386 . S
O295 C307 1.265 . S
O296 Gd262 2.353 . S
O296 C307 1.242 . S
O297 Gd262 2.468 . S
O297 C315 1.263 . S
O298 Gd262 2.427 . S
O298 C315 1.252 . S
O299 Gd263 2.307 . S
O299 C308 1.261 . S
O300 Gd262 2.388 . S
O300 C308 1.252 . S
O301 Gd262 2.386 . S
O301 C319 1.265 . S
O302 Gd263 2.353 . S
O302 C319 1.242 . S
O303 Gd263 2.468 . S
O303 C327 1.263 . S
O304 Gd263 2.427 . S
O304 C327 1.252 . S
O305 Gd262 2.307 . S
O305 C320 1.261 . S
O306 Gd263 2.388 . S
O306 C320 1.252 . S
C307 O295 1.265 . S
C307 O296 1.242 . S
C308 O299 1.261 . S
C308 O300 1.252 . S
C309 C312 1.394 . S
C309 C314 1.370 . S
C309 C315 1.500 . S
C310 C313 1.383 . S
C310 C314 1.395 . S
C311 C312 1.396 . S
C311 C313 1.365 . S
C311 H328 0.929 . S
C312 C309 1.394 . S
C312 C311 1.396 . S
C312 H329 0.930 . S
C313 C310 1.383 . S
C313 C311 1.365 . S
C313 H330 0.931 . S
C314 C309 1.370 . S
C314 C310 1.395 . S
C314 H331 0.930 . S
C315 Gd262 2.805 . S
C315 O297 1.263 . S
C315 O298 1.252 . S
C315 C309 1.500 . S
C316 H278 0.930 . S
C316 C292 1.417 . S
C316 C317 1.329 . S
C317 C287 1.437 . S
C317 H288 0.929 . S
C317 C316 1.329 . S
H318 C291 0.931 . S
C319 O301 1.265 . S
C319 O302 1.242 . S
C320 O305 1.261 . S
C320 O306 1.252 . S
C321 C324 1.394 . S
C321 C326 1.370 . S
C321 C327 1.500 . S
C322 C325 1.383 . S
C322 C326 1.395 . S
C323 C324 1.396 . S
C323 C325 1.365 . S
C323 H332 0.929 . S
C324 C321 1.394 . S
C324 C323 1.396 . S
C324 H333 0.930 . S
C325 C322 1.383 . S
C325 C323 1.365 . S
C325 H334 0.931 . S
C326 C321 1.370 . S
C326 C322 1.395 . S
C326 H335 0.930 . S
C327 Gd263 2.805 . S
C327 O303 1.263 . S
C327 O304 1.252 . S
C327 C321 1.500 . S
H328 C311 0.929 . S
H329 C312 0.930 . S
H330 C313 0.931 . S
H331 C314 0.930 . S
H332 C323 0.929 . S
H333 C324 0.930 . S
H334 C325 0.931 . S
H335 C326 0.930 . S
C336 C338 1.422 . S
C336 C340 1.415 . S
C336 N342 1.369 . S
C337 C338 1.421 . S
C337 C339 1.417 . S
C337 C349 1.422 . S
C338 C336 1.422 . S
C338 C337 1.421 . S
C338 N348 1.359 . S
C339 C337 1.417 . S
C339 C341 1.329 . S
C339 H358 0.930 . S
C340 C336 1.415 . S
C340 C341 1.437 . S
C340 C344 1.413 . S
C341 C339 1.329 . S
C341 C340 1.437 . S
C341 H363 0.929 . S
N342 C336 1.369 . S
N342 C343 1.338 . S
N342 Gd347 2.622 . S
C343 N342 1.338 . S
C343 C345 1.378 . S
C343 H355 0.929 . S
C344 C340 1.413 . S
C344 C345 1.348 . S
C344 H360 0.931 . S
C345 C343 1.378 . S
C345 C344 1.348 . S
C345 H361 0.930 . S
Gd346 N366 2.622 . S
Gd346 N373 2.570 . S
Gd346 O380 2.353 . S
Gd346 O381 2.468 . S
Gd346 O382 2.427 . S
Gd346 O384 2.388 . S
Gd346 O385 2.386 . S
Gd346 O389 2.307 . S
Gd346 C399 2.805 . S
Gd347 N342 2.622 . S
Gd347 N348 2.570 . S
Gd347 O379 2.386 . S
Gd347 O383 2.307 . S
Gd347 O386 2.353 . S
Gd347 O387 2.468 . S
Gd347 O388 2.427 . S
Gd347 O390 2.388 . S
Gd347 C411 2.805 . S
N348 C338 1.359 . S
N348 Gd347 2.570 . S
N348 C350 1.343 . S
C349 C337 1.422 . S
C349 C351 1.321 . S
C349 H357 0.931 . S
C350 N348 1.343 . S
C350 C351 1.390 . S
C350 H352 0.931 . S
C351 C349 1.321 . S
C351 C350 1.390 . S
C351 H353 0.930 . S
H352 C350 0.931 . S
H353 C351 0.930 . S
H354 C377 0.931 . S
H355 C343 0.929 . S
H356 C378 0.930 . S
H357 C349 0.931 . S
H358 C339 0.930 . S
H359 C368 0.929 . S
H360 C344 0.931 . S
H361 C345 0.930 . S
H362 C400 0.930 . S
H363 C341 0.929 . S
H364 C369 0.931 . S
H365 C370 0.930 . S
N366 Gd346 2.622 . S
N366 C367 1.369 . S
N366 C368 1.338 . S
C367 N366 1.369 . S
C367 C371 1.415 . S
C367 C374 1.422 . S
C368 H359 0.929 . S
C368 N366 1.338 . S
C368 C370 1.378 . S
C369 H364 0.931 . S
C369 C370 1.348 . S
C369 C371 1.413 . S
C370 H365 0.930 . S
C370 C368 1.378 . S
C370 C369 1.348 . S
C371 C367 1.415 . S
C371 C369 1.413 . S
C371 C401 1.437 . S
H372 C401 0.929 . S
N373 Gd346 2.570 . S
N373 C374 1.359 . S
N373 C377 1.343 . S
C374 C367 1.422 . S
C374 N373 1.359 . S
C374 C376 1.421 . S
C375 C376 1.422 . S
C375 C378 1.321 . S
C375 H402 0.931 . S
C376 C374 1.421 . S
C376 C375 1.422 . S
C376 C400 1.417 . S
C377 H354 0.931 . S
C377 N373 1.343 . S
C377 C378 1.390 . S
C378 H356 0.930 . S
C378 C375 1.321 . S
C378 C377 1.390 . S
O379 Gd347 2.386 . S
O379 C391 1.265 . S
O380 Gd346 2.353 . S
O380 C391 1.242 . S
O381 Gd346 2.468 . S
O381 C399 1.263 . S
O382 Gd346 2.427 . S
O382 C399 1.252 . S
O383 Gd347 2.307 . S
O383 C392 1.261 . S
O384 Gd346 2.388 . S
O384 C392 1.252 . S
O385 Gd346 2.386 . S
O385 C403 1.265 . S
O386 Gd347 2.353 . S
O386 C403 1.242 . S
O387 Gd347 2.468 . S
O387 C411 1.263 . S
O388 Gd347 2.427 . S
O388 C411 1.252 . S
O389 Gd346 2.307 . S
O389 C404 1.261 . S
O390 Gd347 2.388 . S
O390 C404 1.252 . S
C391 O379 1.265 . S
C391 O380 1.242 . S
C392 O383 1.261 . S
C392 O384 1.252 . S
C393 C396 1.394 . S
C393 C398 1.370 . S
C393 C399 1.500 . S
C394 C397 1.383 . S
C394 C398 1.395 . S
C395 C396 1.396 . S
C395 C397 1.365 . S
C395 H412 0.929 . S
C396 C393 1.394 . S
C396 C395 1.396 . S
C396 H413 0.930 . S
C397 C394 1.383 . S
C397 C395 1.365 . S
C397 H414 0.931 . S
C398 C393 1.370 . S
C398 C394 1.395 . S
C398 H415 0.930 . S
C399 Gd346 2.805 . S
C399 O381 1.263 . S
C399 O382 1.252 . S
C399 C393 1.500 . S
C400 H362 0.930 . S
C400 C376 1.417 . S
C400 C401 1.329 . S
C401 C371 1.437 . S
C401 H372 0.929 . S
C401 C400 1.329 . S
H402 C375 0.931 . S
C403 O385 1.265 . S
C403 O386 1.242 . S
C404 O389 1.261 . S
C404 O390 1.252 . S
C405 C408 1.394 . S
C405 C410 1.370 . S
C405 C411 1.500 . S
C406 C409 1.383 . S
C406 C410 1.395 . S
C407 C408 1.396 . S
C407 C409 1.365 . S
C407 H416 0.929 . S
C408 C405 1.394 . S
C408 C407 1.396 . S
C408 H417 0.930 . S
C409 C406 1.383 . S
C409 C407 1.365 . S
C409 H418 0.931 . S
C410 C405 1.370 . S
C410 C406 1.395 . S
C410 H419 0.930 . S
C411 Gd347 2.805 . S
C411 O387 1.263 . S
C411 O388 1.252 . S
C411 C405 1.500 . S
H412 C395 0.929 . S
H413 C396 0.930 . S
H414 C397 0.931 . S
H415 C398 0.930 . S
H416 C407 0.929 . S
H417 C408 0.930 . S
H418 C409 0.931 . S
H419 C410 0.930 . S
C420 C422 1.422 . S
C420 C424 1.415 . S
C420 N426 1.369 . S
C421 C422 1.421 . S
C421 C423 1.417 . S
C421 C433 1.422 . S
C422 C420 1.422 . S
C422 C421 1.421 . S
C422 N432 1.359 . S
C423 C421 1.417 . S
C423 C425 1.329 . S
C423 H442 0.930 . S
C424 C420 1.415 . S
C424 C425 1.437 . S
C424 C428 1.413 . S
C425 C423 1.329 . S
C425 C424 1.437 . S
C425 H447 0.929 . S
N426 C420 1.369 . S
N426 C427 1.338 . S
N426 Gd431 2.622 . S
C427 N426 1.338 . S
C427 C429 1.378 . S
C427 H439 0.929 . S
C428 C424 1.413 . S
C428 C429 1.348 . S
C428 H444 0.931 . S
C429 C427 1.378 . S
C429 C428 1.348 . S
C429 H445 0.930 . S
Gd430 N450 2.622 . S
Gd430 N457 2.570 . S
Gd430 O464 2.353 . S
Gd430 O465 2.468 . S
Gd430 O466 2.427 . S
Gd430 O468 2.388 . S
Gd430 O469 2.386 . S
Gd430 O473 2.307 . S
Gd430 C483 2.805 . S
Gd431 N426 2.622 . S
Gd431 N432 2.570 . S
Gd431 O463 2.386 . S
Gd431 O467 2.307 . S
Gd431 O470 2.353 . S
Gd431 O471 2.468 . S
Gd431 O472 2.427 . S
Gd431 O474 2.388 . S
Gd431 C495 2.805 . S
N432 C422 1.359 . S
N432 Gd431 2.570 . S
N432 C434 1.343 . S
C433 C421 1.422 . S
C433 C435 1.321 . S
C433 H441 0.931 . S
C434 N432 1.343 . S
C434 C435 1.390 . S
C434 H436 0.931 . S
C435 C433 1.321 . S
C435 C434 1.390 . S
C435 H437 0.930 . S
H436 C434 0.931 . S
H437 C435 0.930 . S
H438 C461 0.931 . S
H439 C427 0.929 . S
H440 C462 0.930 . S
H441 C433 0.931 . S
H442 C423 0.930 . S
H443 C452 0.929 . S
H444 C428 0.931 . S
H445 C429 0.930 . S
H446 C484 0.930 . S
H447 C425 0.929 . S
H448 C453 0.931 . S
H449 C454 0.930 . S
N450 Gd430 2.622 . S
N450 C451 1.369 . S
N450 C452 1.338 . S
C451 N450 1.369 . S
C451 C455 1.415 . S
C451 C458 1.422 . S
C452 H443 0.929 . S
C452 N450 1.338 . S
C452 C454 1.378 . S
C453 H448 0.931 . S
C453 C454 1.348 . S
C453 C455 1.413 . S
C454 H449 0.930 . S
C454 C452 1.378 . S
C454 C453 1.348 . S
C455 C451 1.415 . S
C455 C453 1.413 . S
C455 C485 1.437 . S
H456 C485 0.929 . S
N457 Gd430 2.570 . S
N457 C458 1.359 . S
N457 C461 1.343 . S
C458 C451 1.422 . S
C458 N457 1.359 . S
C458 C460 1.421 . S
C459 C460 1.422 . S
C459 C462 1.321 . S
C459 H486 0.931 . S
C460 C458 1.421 . S
C460 C459 1.422 . S
C460 C484 1.417 . S
C461 H438 0.931 . S
C461 N457 1.343 . S
C461 C462 1.390 . S
C462 H440 0.930 . S
C462 C459 1.321 . S
C462 C461 1.390 . S
O463 Gd431 2.386 . S
O463 C475 1.265 . S
O464 Gd430 2.353 . S
O464 C475 1.242 . S
O465 Gd430 2.468 . S
O465 C483 1.263 . S
O466 Gd430 2.427 . S
O466 C483 1.252 . S
O467 Gd431 2.307 . S
O467 C476 1.261 . S
O468 Gd430 2.388 . S
O468 C476 1.252 . S
O469 Gd430 2.386 . S
O469 C487 1.265 . S
O470 Gd431 2.353 . S
O470 C487 1.242 . S
O471 Gd431 2.468 . S
O471 C495 1.263 . S
O472 Gd431 2.427 . S
O472 C495 1.252 . S
O473 Gd430 2.307 . S
O473 C488 1.261 . S
O474 Gd431 2.388 . S
O474 C488 1.252 . S
C475 O463 1.265 . S
C475 O464 1.242 . S
C476 O467 1.261 . S
C476 O468 1.252 . S
C477 C480 1.394 . S
C477 C482 1.370 . S
C477 C483 1.500 . S
C478 C481 1.383 . S
C478 C482 1.395 . S
C479 C480 1.396 . S
C479 C481 1.365 . S
C479 H496 0.929 . S
C480 C477 1.394 . S
C480 C479 1.396 . S
C480 H497 0.930 . S
C481 C478 1.383 . S
C481 C479 1.365 . S
C481 H498 0.931 . S
C482 C477 1.370 . S
C482 C478 1.395 . S
C482 H499 0.930 . S
C483 Gd430 2.805 . S
C483 O465 1.263 . S
C483 O466 1.252 . S
C483 C477 1.500 . S
C484 H446 0.930 . S
C484 C460 1.417 . S
C484 C485 1.329 . S
C485 C455 1.437 . S
C485 H456 0.929 . S
C485 C484 1.329 . S
H486 C459 0.931 . S
C487 O469 1.265 . S
C487 O470 1.242 . S
C488 O473 1.261 . S
C488 O474 1.252 . S
C489 C492 1.394 . S
C489 C494 1.370 . S
C489 C495 1.500 . S
C490 C493 1.383 . S
C490 C494 1.395 . S
C491 C492 1.396 . S
C491 C493 1.365 . S
C491 H500 0.929 . S
C492 C489 1.394 . S
C492 C491 1.396 . S
C492 H501 0.930 . S
C493 C490 1.383 . S
C493 C491 1.365 . S
C493 H502 0.931 . S
C494 C489 1.370 . S
C494 C490 1.395 . S
C494 H503 0.930 . S
C495 Gd431 2.805 . S
C495 O471 1.263 . S
C495 O472 1.252 . S
C495 C489 1.500 . S
H496 C479 0.929 . S
H497 C480 0.930 . S
H498 C481 0.931 . S
H499 C482 0.930 . S
H500 C491 0.929 . S
H501 C492 0.930 . S
H502 C493 0.931 . S
H503 C494 0.930 . S
C504 C506 1.422 . S
C504 C508 1.415 . S
C504 N510 1.369 . S
C505 C506 1.421 . S
C505 C507 1.417 . S
C505 C517 1.422 . S
C506 C504 1.422 . S
C506 C505 1.421 . S
C506 N516 1.359 . S
C507 C505 1.417 . S
C507 C509 1.329 . S
C507 H526 0.930 . S
C508 C504 1.415 . S
C508 C509 1.437 . S
C508 C512 1.413 . S
C509 C507 1.329 . S
C509 C508 1.437 . S
C509 H531 0.929 . S
N510 C504 1.369 . S
N510 C511 1.338 . S
N510 Gd515 2.622 . S
C511 N510 1.338 . S
C511 C513 1.378 1_556 S
C511 H523 0.929 1_556 S
C512 C508 1.413 . S
C512 C513 1.348 1_556 S
C512 H528 0.931 . S
C513 C511 1.378 1_554 S
C513 C512 1.348 1_554 S
C513 H529 0.930 . S
Gd514 N534 2.622 . S
Gd514 N541 2.570 . S
Gd514 O548 2.353 . S
Gd514 O549 2.468 . S
Gd514 O550 2.427 . S
Gd514 O552 2.388 . S
Gd514 O553 2.386 . S
Gd514 O557 2.307 . S
Gd514 C567 2.805 . S
Gd515 N510 2.622 . S
Gd515 N516 2.570 . S
Gd515 O547 2.386 . S
Gd515 O551 2.307 . S
Gd515 O554 2.353 . S
Gd515 O555 2.468 . S
Gd515 O556 2.427 . S
Gd515 O558 2.388 1_556 S
Gd515 C579 2.805 . S
N516 C506 1.359 . S
N516 Gd515 2.570 . S
N516 C518 1.343 . S
C517 C505 1.422 . S
C517 C519 1.321 . S
C517 H525 0.931 . S
C518 N516 1.343 . S
C518 C519 1.390 . S
C518 H520 0.931 . S
C519 C517 1.321 . S
C519 C518 1.390 . S
C519 H521 0.930 . S
H520 C518 0.931 . S
H521 C519 0.930 . S
H522 C545 0.931 . S
H523 C511 0.929 1_554 S
H524 C546 0.930 . S
H525 C517 0.931 . S
H526 C507 0.930 . S
H527 C536 0.929 . S
H528 C512 0.931 . S
H529 C513 0.930 . S
H530 C568 0.930 . S
H531 C509 0.929 . S
H532 C537 0.931 . S
H533 C538 0.930 . S
N534 Gd514 2.622 . S
N534 C535 1.369 . S
N534 C536 1.338 . S
C535 N534 1.369 . S
C535 C539 1.415 . S
C535 C542 1.422 . S
C536 H527 0.929 . S
C536 N534 1.338 . S
C536 C538 1.378 . S
C537 H532 0.931 . S
C537 C538 1.348 . S
C537 C539 1.413 . S
C538 H533 0.930 . S
C538 C536 1.378 . S
C538 C537 1.348 . S
C539 C535 1.415 . S
C539 C537 1.413 . S
C539 C569 1.437 . S
H540 C569 0.929 . S
N541 Gd514 2.570 . S
N541 C542 1.359 . S
N541 C545 1.343 1_556 S
C542 C535 1.422 . S
C542 N541 1.359 . S
C542 C544 1.421 1_556 S
C543 C544 1.422 . S
C543 C546 1.321 . S
C543 H570 0.931 . S
C544 C542 1.421 1_554 S
C544 C543 1.422 . S
C544 C568 1.417 . S
C545 H522 0.931 . S
C545 N541 1.343 1_554 S
C545 C546 1.390 . S
C546 H524 0.930 . S
C546 C543 1.321 . S
C546 C545 1.390 . S
O547 Gd515 2.386 . S
O547 C559 1.265 . S
O548 Gd514 2.353 . S
O548 C559 1.242 . S
O549 Gd514 2.468 . S
O549 C567 1.263 . S
O550 Gd514 2.427 . S
O550 C567 1.252 . S
O551 Gd515 2.307 . S
O551 C560 1.261 . S
O552 Gd514 2.388 . S
O552 C560 1.252 . S
O553 Gd514 2.386 . S
O553 C571 1.265 . S
O554 Gd515 2.353 . S
O554 C571 1.242 . S
O555 Gd515 2.468 . S
O555 C579 1.263 . S
O556 Gd515 2.427 . S
O556 C579 1.252 . S
O557 Gd514 2.307 . S
O557 C572 1.261 1_556 S
O558 Gd515 2.388 1_554 S
O558 C572 1.252 . S
C559 O547 1.265 . S
C559 O548 1.242 . S
C560 O551 1.261 . S
C560 O552 1.252 . S
C561 C564 1.394 . S
C561 C566 1.370 . S
C561 C567 1.500 . S
C562 C565 1.383 . S
C562 C566 1.395 . S
C563 C564 1.396 . S
C563 C565 1.365 . S
C563 H580 0.929 . S
C564 C561 1.394 . S
C564 C563 1.396 . S
C564 H581 0.930 . S
C565 C562 1.383 . S
C565 C563 1.365 . S
C565 H582 0.931 . S
C566 C561 1.370 . S
C566 C562 1.395 . S
C566 H583 0.930 . S
C567 Gd514 2.805 . S
C567 O549 1.263 . S
C567 O550 1.252 . S
C567 C561 1.500 . S
C568 H530 0.930 . S
C568 C544 1.417 . S
C568 C569 1.329 1_554 S
C569 C539 1.437 . S
C569 H540 0.929 . S
C569 C568 1.329 1_556 S
H570 C543 0.931 . S
C571 O553 1.265 . S
C571 O554 1.242 . S
C572 O557 1.261 1_554 S
C572 O558 1.252 . S
C573 C576 1.394 1_556 S
C573 C578 1.370 . S
C573 C579 1.500 . S
C574 C577 1.383 . S
C574 C578 1.395 . S
C575 C576 1.396 . S
C575 C577 1.365 1_554 S
C575 H584 0.929 . S
C576 C573 1.394 1_554 S
C576 C575 1.396 . S
C576 H585 0.930 . S
C577 C574 1.383 . S
C577 C575 1.365 1_556 S
C577 H586 0.931 . S
C578 C573 1.370 . S
C578 C574 1.395 . S
C578 H587 0.930 . S
C579 Gd515 2.805 . S
C579 O555 1.263 . S
C579 O556 1.252 . S
C579 C573 1.500 . S
H580 C563 0.929 . S
H581 C564 0.930 . S
H582 C565 0.931 . S
H583 C566 0.930 . S
H584 C575 0.929 . S
H585 C576 0.930 . S
H586 C577 0.931 . S
H587 C578 0.930 . S
C588 C590 1.422 . S
C588 C592 1.415 . S
C588 N594 1.369 . S
C589 C590 1.421 . S
C589 C591 1.417 . S
C589 C601 1.422 . S
C590 C588 1.422 . S
C590 C589 1.421 . S
C590 N600 1.359 . S
C591 C589 1.417 . S
C591 C593 1.329 . S
C591 H610 0.930 . S
C592 C588 1.415 . S
C592 C593 1.437 . S
C592 C596 1.413 . S
C593 C591 1.329 . S
C593 C592 1.437 . S
C593 H615 0.929 . S
N594 C588 1.369 . S
N594 C595 1.338 . S
N594 Gd599 2.622 . S
C595 N594 1.338 . S
C595 C597 1.378 1_556 S
C595 H607 0.929 1_556 S
C596 C592 1.413 . S
C596 C597 1.348 1_556 S
C596 H612 0.931 . S
C597 C595 1.378 1_554 S
C597 C596 1.348 1_554 S
C597 H613 0.930 . S
Gd598 N618 2.622 . S
Gd598 N625 2.570 . S
Gd598 O632 2.353 . S
Gd598 O633 2.468 . S
Gd598 O634 2.427 . S
Gd598 O636 2.388 . S
Gd598 O637 2.386 . S
Gd598 O641 2.307 . S
Gd598 C651 2.805 . S
Gd599 N594 2.622 . S
Gd599 N600 2.570 . S
Gd599 O631 2.386 . S
Gd599 O635 2.307 . S
Gd599 O638 2.353 . S
Gd599 O639 2.468 . S
Gd599 O640 2.427 . S
Gd599 O642 2.388 1_556 S
Gd599 C663 2.805 . S
N600 C590 1.359 . S
N600 Gd599 2.570 . S
N600 C602 1.343 . S
C601 C589 1.422 . S
C601 C603 1.321 . S
C601 H609 0.931 . S
C602 N600 1.343 . S
C602 C603 1.390 . S
C602 H604 0.931 . S
C603 C601 1.321 . S
C603 C602 1.390 . S
C603 H605 0.930 . S
H604 C602 0.931 . S
H605 C603 0.930 . S
H606 C629 0.931 . S
H607 C595 0.929 1_554 S
H608 C630 0.930 . S
H609 C601 0.931 . S
H610 C591 0.930 . S
H611 C620 0.929 . S
H612 C596 0.931 . S
H613 C597 0.930 . S
H614 C652 0.930 . S
H615 C593 0.929 . S
H616 C621 0.931 . S
H617 C622 0.930 . S
N618 Gd598 2.622 . S
N618 C619 1.369 . S
N618 C620 1.338 . S
C619 N618 1.369 . S
C619 C623 1.415 . S
C619 C626 1.422 . S
C620 H611 0.929 . S
C620 N618 1.338 . S
C620 C622 1.378 . S
C621 H616 0.931 . S
C621 C622 1.348 . S
C621 C623 1.413 . S
C622 H617 0.930 . S
C622 C620 1.378 . S
C622 C621 1.348 . S
C623 C619 1.415 . S
C623 C621 1.413 . S
C623 C653 1.437 . S
H624 C653 0.929 . S
N625 Gd598 2.570 . S
N625 C626 1.359 . S
N625 C629 1.343 1_556 S
C626 C619 1.422 . S
C626 N625 1.359 . S
C626 C628 1.421 1_556 S
C627 C628 1.422 . S
C627 C630 1.321 . S
C627 H654 0.931 . S
C628 C626 1.421 1_554 S
C628 C627 1.422 . S
C628 C652 1.417 . S
C629 H606 0.931 . S
C629 N625 1.343 1_554 S
C629 C630 1.390 . S
C630 H608 0.930 . S
C630 C627 1.321 . S
C630 C629 1.390 . S
O631 Gd599 2.386 . S
O631 C643 1.265 . S
O632 Gd598 2.353 . S
O632 C643 1.242 . S
O633 Gd598 2.468 . S
O633 C651 1.263 . S
O634 Gd598 2.427 . S
O634 C651 1.252 . S
O635 Gd599 2.307 . S
O635 C644 1.261 . S
O636 Gd598 2.388 . S
O636 C644 1.252 . S
O637 Gd598 2.386 . S
O637 C655 1.265 . S
O638 Gd599 2.353 . S
O638 C655 1.242 . S
O639 Gd599 2.468 . S
O639 C663 1.263 . S
O640 Gd599 2.427 . S
O640 C663 1.252 . S
O641 Gd598 2.307 . S
O641 C656 1.261 1_556 S
O642 Gd599 2.388 1_554 S
O642 C656 1.252 . S
C643 O631 1.265 . S
C643 O632 1.242 . S
C644 O635 1.261 . S
C644 O636 1.252 . S
C645 C648 1.394 . S
C645 C650 1.370 . S
C645 C651 1.500 . S
C646 C649 1.383 . S
C646 C650 1.395 . S
C647 C648 1.396 . S
C647 C649 1.365 . S
C647 H664 0.929 . S
C648 C645 1.394 . S
C648 C647 1.396 . S
C648 H665 0.930 . S
C649 C646 1.383 . S
C649 C647 1.365 . S
C649 H666 0.931 . S
C650 C645 1.370 . S
C650 C646 1.395 . S
C650 H667 0.930 . S
C651 Gd598 2.805 . S
C651 O633 1.263 . S
C651 O634 1.252 . S
C651 C645 1.500 . S
C652 H614 0.930 . S
C652 C628 1.417 . S
C652 C653 1.329 1_554 S
C653 C623 1.437 . S
C653 H624 0.929 . S
C653 C652 1.329 1_556 S
H654 C627 0.931 . S
C655 O637 1.265 . S
C655 O638 1.242 . S
C656 O641 1.261 1_554 S
C656 O642 1.252 . S
C657 C660 1.394 1_556 S
C657 C662 1.370 . S
C657 C663 1.500 . S
C658 C661 1.383 . S
C658 C662 1.395 . S
C659 C660 1.396 . S
C659 C661 1.365 1_554 S
C659 H668 0.929 . S
C660 C657 1.394 1_554 S
C660 C659 1.396 . S
C660 H669 0.930 . S
C661 C658 1.383 . S
C661 C659 1.365 1_556 S
C661 H670 0.931 . S
C662 C657 1.370 . S
C662 C658 1.395 . S
C662 H671 0.930 . S
C663 Gd599 2.805 . S
C663 O639 1.263 . S
C663 O640 1.252 . S
C663 C657 1.500 . S
H664 C647 0.929 . S
H665 C648 0.930 . S
H666 C649 0.931 . S
H667 C650 0.930 . S
H668 C659 0.929 . S
H669 C660 0.930 . S
H670 C661 0.931 . S
H671 C662 0.930 . S
C672 C674 1.422 . S
C672 C676 1.415 . S
C672 N678 1.369 . S
C673 C674 1.421 . S
C673 C675 1.417 . S
C673 C685 1.422 . S
C674 C672 1.422 . S
C674 C673 1.421 . S
C674 N684 1.359 . S
C675 C673 1.417 . S
C675 C677 1.329 . S
C675 H694 0.930 . S
C676 C672 1.415 . S
C676 C677 1.437 . S
C676 C680 1.413 . S
C677 C675 1.329 . S
C677 C676 1.437 . S
C677 H699 0.929 . S
N678 C672 1.369 . S
N678 C679 1.338 . S
N678 Gd683 2.622 . S
C679 N678 1.338 . S
C679 C681 1.378 1_556 S
C679 H691 0.929 1_556 S
C680 C676 1.413 . S
C680 C681 1.348 1_556 S
C680 H696 0.931 . S
C681 C679 1.378 1_554 S
C681 C680 1.348 1_554 S
C681 H697 0.930 . S
Gd682 N702 2.622 . S
Gd682 N709 2.570 . S
Gd682 O716 2.353 . S
Gd682 O717 2.468 . S
Gd682 O718 2.427 . S
Gd682 O720 2.388 . S
Gd682 O721 2.386 . S
Gd682 O725 2.307 . S
Gd682 C735 2.805 . S
Gd683 N678 2.622 . S
Gd683 N684 2.570 . S
Gd683 O715 2.386 . S
Gd683 O719 2.307 . S
Gd683 O722 2.353 . S
Gd683 O723 2.468 . S
Gd683 O724 2.427 . S
Gd683 O726 2.388 1_556 S
Gd683 C747 2.805 . S
N684 C674 1.359 . S
N684 Gd683 2.570 . S
N684 C686 1.343 . S
C685 C673 1.422 . S
C685 C687 1.321 . S
C685 H693 0.931 . S
C686 N684 1.343 . S
C686 C687 1.390 . S
C686 H688 0.931 . S
C687 C685 1.321 . S
C687 C686 1.390 . S
C687 H689 0.930 . S
H688 C686 0.931 . S
H689 C687 0.930 . S
H690 C713 0.931 . S
H691 C679 0.929 1_554 S
H692 C714 0.930 . S
H693 C685 0.931 . S
H694 C675 0.930 . S
H695 C704 0.929 . S
H696 C680 0.931 . S
H697 C681 0.930 . S
H698 C736 0.930 . S
H699 C677 0.929 . S
H700 C705 0.931 . S
H701 C706 0.930 . S
N702 Gd682 2.622 . S
N702 C703 1.369 . S
N702 C704 1.338 . S
C703 N702 1.369 . S
C703 C707 1.415 . S
C703 C710 1.422 . S
C704 H695 0.929 . S
C704 N702 1.338 . S
C704 C706 1.378 . S
C705 H700 0.931 . S
C705 C706 1.348 . S
C705 C707 1.413 . S
C706 H701 0.930 . S
C706 C704 1.378 . S
C706 C705 1.348 . S
C707 C703 1.415 . S
C707 C705 1.413 . S
C707 C737 1.437 . S
H708 C737 0.929 . S
N709 Gd682 2.570 . S
N709 C710 1.359 . S
N709 C713 1.343 1_556 S
C710 C703 1.422 . S
C710 N709 1.359 . S
C710 C712 1.421 1_556 S
C711 C712 1.422 . S
C711 C714 1.321 . S
C711 H738 0.931 . S
C712 C710 1.421 1_554 S
C712 C711 1.422 . S
C712 C736 1.417 . S
C713 H690 0.931 . S
C713 N709 1.343 1_554 S
C713 C714 1.390 . S
C714 H692 0.930 . S
C714 C711 1.321 . S
C714 C713 1.390 . S
O715 Gd683 2.386 . S
O715 C727 1.265 . S
O716 Gd682 2.353 . S
O716 C727 1.242 . S
O717 Gd682 2.468 . S
O717 C735 1.263 . S
O718 Gd682 2.427 . S
O718 C735 1.252 . S
O719 Gd683 2.307 . S
O719 C728 1.261 . S
O720 Gd682 2.388 . S
O720 C728 1.252 . S
O721 Gd682 2.386 . S
O721 C739 1.265 . S
O722 Gd683 2.353 . S
O722 C739 1.242 . S
O723 Gd683 2.468 . S
O723 C747 1.263 . S
O724 Gd683 2.427 . S
O724 C747 1.252 . S
O725 Gd682 2.307 . S
O725 C740 1.261 1_556 S
O726 Gd683 2.388 1_554 S
O726 C740 1.252 . S
C727 O715 1.265 . S
C727 O716 1.242 . S
C728 O719 1.261 . S
C728 O720 1.252 . S
C729 C732 1.394 . S
C729 C734 1.370 . S
C729 C735 1.500 . S
C730 C733 1.383 . S
C730 C734 1.395 . S
C731 C732 1.396 . S
C731 C733 1.365 . S
C731 H748 0.929 . S
C732 C729 1.394 . S
C732 C731 1.396 . S
C732 H749 0.930 . S
C733 C730 1.383 . S
C733 C731 1.365 . S
C733 H750 0.931 . S
C734 C729 1.370 . S
C734 C730 1.395 . S
C734 H751 0.930 . S
C735 Gd682 2.805 . S
C735 O717 1.263 . S
C735 O718 1.252 . S
C735 C729 1.500 . S
C736 H698 0.930 . S
C736 C712 1.417 . S
C736 C737 1.329 1_554 S
C737 C707 1.437 . S
C737 H708 0.929 . S
C737 C736 1.329 1_556 S
H738 C711 0.931 . S
C739 O721 1.265 . S
C739 O722 1.242 . S
C740 O725 1.261 1_554 S
C740 O726 1.252 . S
C741 C744 1.394 1_556 S
C741 C746 1.370 . S
C741 C747 1.500 . S
C742 C745 1.383 . S
C742 C746 1.395 . S
C743 C744 1.396 . S
C743 C745 1.365 1_554 S
C743 H752 0.929 . S
C744 C741 1.394 1_554 S
C744 C743 1.396 . S
C744 H753 0.930 . S
C745 C742 1.383 . S
C745 C743 1.365 1_556 S
C745 H754 0.931 . S
C746 C741 1.370 . S
C746 C742 1.395 . S
C746 H755 0.930 . S
C747 Gd683 2.805 . S
C747 O723 1.263 . S
C747 O724 1.252 . S
C747 C741 1.500 . S
H748 C731 0.929 . S
H749 C732 0.930 . S
H750 C733 0.931 . S
H751 C734 0.930 . S
H752 C743 0.929 . S
H753 C744 0.930 . S
H754 C745 0.931 . S
H755 C746 0.930 . S
C756 C758 1.422 . S
C756 C760 1.415 . S
C756 N762 1.369 . S
C757 C758 1.421 . S
C757 C759 1.417 . S
C757 C769 1.422 . S
C758 C756 1.422 . S
C758 C757 1.421 . S
C758 N768 1.359 . S
C759 C757 1.417 . S
C759 C761 1.329 . S
C759 H778 0.930 . S
C760 C756 1.415 . S
C760 C761 1.437 . S
C760 C764 1.413 . S
C761 C759 1.329 . S
C761 C760 1.437 . S
C761 H783 0.929 . S
N762 C756 1.369 . S
N762 C763 1.338 . S
N762 Gd767 2.622 . S
C763 N762 1.338 . S
C763 C765 1.378 . S
C763 H775 0.929 . S
C764 C760 1.413 . S
C764 C765 1.348 . S
C764 H780 0.931 . S
C765 C763 1.378 . S
C765 C764 1.348 . S
C765 H781 0.930 . S
Gd766 N786 2.622 . S
Gd766 N793 2.570 . S
Gd766 O800 2.353 . S
Gd766 O801 2.468 . S
Gd766 O802 2.427 . S
Gd766 O804 2.388 . S
Gd766 O805 2.386 . S
Gd766 O809 2.307 . S
Gd766 C819 2.805 . S
Gd767 N762 2.622 . S
Gd767 N768 2.570 . S
Gd767 O799 2.386 . S
Gd767 O803 2.307 . S
Gd767 O806 2.353 . S
Gd767 O807 2.468 . S
Gd767 O808 2.427 . S
Gd767 O810 2.388 . S
Gd767 C831 2.805 . S
N768 C758 1.359 . S
N768 Gd767 2.570 . S
N768 C770 1.343 . S
C769 C757 1.422 . S
C769 C771 1.321 . S
C769 H777 0.931 . S
C770 N768 1.343 . S
C770 C771 1.390 . S
C770 H772 0.931 . S
C771 C769 1.321 . S
C771 C770 1.390 . S
C771 H773 0.930 . S
H772 C770 0.931 . S
H773 C771 0.930 . S
H774 C797 0.931 . S
H775 C763 0.929 . S
H776 C798 0.930 . S
H777 C769 0.931 . S
H778 C759 0.930 . S
H779 C788 0.929 . S
H780 C764 0.931 . S
H781 C765 0.930 . S
H782 C820 0.930 . S
H783 C761 0.929 . S
H784 C789 0.931 . S
H785 C790 0.930 . S
N786 Gd766 2.622 . S
N786 C787 1.369 . S
N786 C788 1.338 . S
C787 N786 1.369 . S
C787 C791 1.415 . S
C787 C794 1.422 . S
C788 H779 0.929 . S
C788 N786 1.338 . S
C788 C790 1.378 . S
C789 H784 0.931 . S
C789 C790 1.348 . S
C789 C791 1.413 . S
C790 H785 0.930 . S
C790 C788 1.378 . S
C790 C789 1.348 . S
C791 C787 1.415 . S
C791 C789 1.413 . S
C791 C821 1.437 . S
H792 C821 0.929 . S
N793 Gd766 2.570 . S
N793 C794 1.359 . S
N793 C797 1.343 . S
C794 C787 1.422 . S
C794 N793 1.359 . S
C794 C796 1.421 . S
C795 C796 1.422 . S
C795 C798 1.321 . S
C795 H822 0.931 . S
C796 C794 1.421 . S
C796 C795 1.422 . S
C796 C820 1.417 . S
C797 H774 0.931 . S
C797 N793 1.343 . S
C797 C798 1.390 . S
C798 H776 0.930 . S
C798 C795 1.321 . S
C798 C797 1.390 . S
O799 Gd767 2.386 . S
O799 C811 1.265 . S
O800 Gd766 2.353 . S
O800 C811 1.242 . S
O801 Gd766 2.468 . S
O801 C819 1.263 . S
O802 Gd766 2.427 . S
O802 C819 1.252 . S
O803 Gd767 2.307 . S
O803 C812 1.261 . S
O804 Gd766 2.388 . S
O804 C812 1.252 . S
O805 Gd766 2.386 . S
O805 C823 1.265 . S
O806 Gd767 2.353 . S
O806 C823 1.242 . S
O807 Gd767 2.468 . S
O807 C831 1.263 . S
O808 Gd767 2.427 . S
O808 C831 1.252 . S
O809 Gd766 2.307 . S
O809 C824 1.261 . S
O810 Gd767 2.388 . S
O810 C824 1.252 . S
C811 O799 1.265 . S
C811 O800 1.242 . S
C812 O803 1.261 . S
C812 O804 1.252 . S
C813 C816 1.394 . S
C813 C818 1.370 . S
C813 C819 1.500 . S
C814 C817 1.383 . S
C814 C818 1.395 . S
C815 C816 1.396 . S
C815 C817 1.365 . S
C815 H832 0.929 . S
C816 C813 1.394 . S
C816 C815 1.396 . S
C816 H833 0.930 . S
C817 C814 1.383 . S
C817 C815 1.365 . S
C817 H834 0.931 . S
C818 C813 1.370 . S
C818 C814 1.395 . S
C818 H835 0.930 . S
C819 Gd766 2.805 . S
C819 O801 1.263 . S
C819 O802 1.252 . S
C819 C813 1.500 . S
C820 H782 0.930 . S
C820 C796 1.417 . S
C820 C821 1.329 . S
C821 C791 1.437 . S
C821 H792 0.929 . S
C821 C820 1.329 . S
H822 C795 0.931 . S
C823 O805 1.265 . S
C823 O806 1.242 . S
C824 O809 1.261 . S
C824 O810 1.252 . S
C825 C828 1.394 . S
C825 C830 1.370 . S
C825 C831 1.500 . S
C826 C829 1.383 . S
C826 C830 1.395 . S
C827 C828 1.396 . S
C827 C829 1.365 . S
C827 H836 0.929 . S
C828 C825 1.394 . S
C828 C827 1.396 . S
C828 H837 0.930 . S
C829 C826 1.383 . S
C829 C827 1.365 . S
C829 H838 0.931 . S
C830 C825 1.370 . S
C830 C826 1.395 . S
C830 H839 0.930 . S
C831 Gd767 2.805 . S
C831 O807 1.263 . S
C831 O808 1.252 . S
C831 C825 1.500 . S
H832 C815 0.929 . S
H833 C816 0.930 . S
H834 C817 0.931 . S
H835 C818 0.930 . S
H836 C827 0.929 . S
H837 C828 0.930 . S
H838 C829 0.931 . S
H839 C830 0.930 . S
C840 C842 1.422 . S
C840 C844 1.415 . S
C840 N846 1.369 . S
C841 C842 1.421 . S
C841 C843 1.417 . S
C841 C853 1.422 . S
C842 C840 1.422 . S
C842 C841 1.421 . S
C842 N852 1.359 . S
C843 C841 1.417 . S
C843 C845 1.329 . S
C843 H862 0.930 . S
C844 C840 1.415 . S
C844 C845 1.437 . S
C844 C848 1.413 . S
C845 C843 1.329 . S
C845 C844 1.437 . S
C845 H867 0.929 . S
N846 C840 1.369 . S
N846 C847 1.338 . S
N846 Gd851 2.622 . S
C847 N846 1.338 . S
C847 C849 1.378 . S
C847 H859 0.929 . S
C848 C844 1.413 . S
C848 C849 1.348 . S
C848 H864 0.931 . S
C849 C847 1.378 . S
C849 C848 1.348 . S
C849 H865 0.930 . S
Gd850 N870 2.622 . S
Gd850 N877 2.570 . S
Gd850 O884 2.353 . S
Gd850 O885 2.468 . S
Gd850 O886 2.427 . S
Gd850 O888 2.388 . S
Gd850 O889 2.386 . S
Gd850 O893 2.307 . S
Gd850 C903 2.805 . S
Gd851 N846 2.622 . S
Gd851 N852 2.570 . S
Gd851 O883 2.386 . S
Gd851 O887 2.307 . S
Gd851 O890 2.353 . S
Gd851 O891 2.468 . S
Gd851 O892 2.427 . S
Gd851 O894 2.388 . S
Gd851 C915 2.805 . S
N852 C842 1.359 . S
N852 Gd851 2.570 . S
N852 C854 1.343 . S
C853 C841 1.422 . S
C853 C855 1.321 . S
C853 H861 0.931 . S
C854 N852 1.343 . S
C854 C855 1.390 . S
C854 H856 0.931 . S
C855 C853 1.321 . S
C855 C854 1.390 . S
C855 H857 0.930 . S
H856 C854 0.931 . S
H857 C855 0.930 . S
H858 C881 0.931 . S
H859 C847 0.929 . S
H860 C882 0.930 . S
H861 C853 0.931 . S
H862 C843 0.930 . S
H863 C872 0.929 . S
H864 C848 0.931 . S
H865 C849 0.930 . S
H866 C904 0.930 . S
H867 C845 0.929 . S
H868 C873 0.931 . S
H869 C874 0.930 . S
N870 Gd850 2.622 . S
N870 C871 1.369 . S
N870 C872 1.338 . S
C871 N870 1.369 . S
C871 C875 1.415 . S
C871 C878 1.422 . S
C872 H863 0.929 . S
C872 N870 1.338 . S
C872 C874 1.378 . S
C873 H868 0.931 . S
C873 C874 1.348 . S
C873 C875 1.413 . S
C874 H869 0.930 . S
C874 C872 1.378 . S
C874 C873 1.348 . S
C875 C871 1.415 . S
C875 C873 1.413 . S
C875 C905 1.437 . S
H876 C905 0.929 . S
N877 Gd850 2.570 . S
N877 C878 1.359 . S
N877 C881 1.343 . S
C878 C871 1.422 . S
C878 N877 1.359 . S
C878 C880 1.421 . S
C879 C880 1.422 . S
C879 C882 1.321 . S
C879 H906 0.931 . S
C880 C878 1.421 . S
C880 C879 1.422 . S
C880 C904 1.417 . S
C881 H858 0.931 . S
C881 N877 1.343 . S
C881 C882 1.390 . S
C882 H860 0.930 . S
C882 C879 1.321 . S
C882 C881 1.390 . S
O883 Gd851 2.386 . S
O883 C895 1.265 . S
O884 Gd850 2.353 . S
O884 C895 1.242 . S
O885 Gd850 2.468 . S
O885 C903 1.263 . S
O886 Gd850 2.427 . S
O886 C903 1.252 . S
O887 Gd851 2.307 . S
O887 C896 1.261 . S
O888 Gd850 2.388 . S
O888 C896 1.252 . S
O889 Gd850 2.386 . S
O889 C907 1.265 . S
O890 Gd851 2.353 . S
O890 C907 1.242 . S
O891 Gd851 2.468 . S
O891 C915 1.263 . S
O892 Gd851 2.427 . S
O892 C915 1.252 . S
O893 Gd850 2.307 . S
O893 C908 1.261 . S
O894 Gd851 2.388 . S
O894 C908 1.252 . S
C895 O883 1.265 . S
C895 O884 1.242 . S
C896 O887 1.261 . S
C896 O888 1.252 . S
C897 C900 1.394 . S
C897 C902 1.370 . S
C897 C903 1.500 . S
C898 C901 1.383 . S
C898 C902 1.395 . S
C899 C900 1.396 . S
C899 C901 1.365 . S
C899 H916 0.929 . S
C900 C897 1.394 . S
C900 C899 1.396 . S
C900 H917 0.930 . S
C901 C898 1.383 . S
C901 C899 1.365 . S
C901 H918 0.931 . S
C902 C897 1.370 . S
C902 C898 1.395 . S
C902 H919 0.930 . S
C903 Gd850 2.805 . S
C903 O885 1.263 . S
C903 O886 1.252 . S
C903 C897 1.500 . S
C904 H866 0.930 . S
C904 C880 1.417 . S
C904 C905 1.329 . S
C905 C875 1.437 . S
C905 H876 0.929 . S
C905 C904 1.329 . S
H906 C879 0.931 . S
C907 O889 1.265 . S
C907 O890 1.242 . S
C908 O893 1.261 . S
C908 O894 1.252 . S
C909 C912 1.394 . S
C909 C914 1.370 . S
C909 C915 1.500 . S
C910 C913 1.383 . S
C910 C914 1.395 . S
C911 C912 1.396 . S
C911 C913 1.365 . S
C911 H920 0.929 . S
C912 C909 1.394 . S
C912 C911 1.396 . S
C912 H921 0.930 . S
C913 C910 1.383 . S
C913 C911 1.365 . S
C913 H922 0.931 . S
C914 C909 1.370 . S
C914 C910 1.395 . S
C914 H923 0.930 . S
C915 Gd851 2.805 . S
C915 O891 1.263 . S
C915 O892 1.252 . S
C915 C909 1.500 . S
H916 C899 0.929 . S
H917 C900 0.930 . S
H918 C901 0.931 . S
H919 C902 0.930 . S
H920 C911 0.929 . S
H921 C912 0.930 . S
H922 C913 0.931 . S
H923 C914 0.930 . S
C924 C926 1.422 . S
C924 C928 1.415 . S
C924 N930 1.369 . S
C925 C926 1.421 . S
C925 C927 1.417 . S
C925 C937 1.422 . S
C926 C924 1.422 . S
C926 C925 1.421 . S
C926 N936 1.359 . S
C927 C925 1.417 . S
C927 C929 1.329 . S
C927 H946 0.930 . S
C928 C924 1.415 . S
C928 C929 1.437 . S
C928 C932 1.413 . S
C929 C927 1.329 . S
C929 C928 1.437 . S
C929 H951 0.929 . S
N930 C924 1.369 . S
N930 C931 1.338 . S
N930 Gd935 2.622 . S
C931 N930 1.338 . S
C931 C933 1.378 . S
C931 H943 0.929 . S
C932 C928 1.413 . S
C932 C933 1.348 . S
C932 H948 0.931 . S
C933 C931 1.378 . S
C933 C932 1.348 . S
C933 H949 0.930 . S
Gd934 N954 2.622 . S
Gd934 N961 2.570 . S
Gd934 O968 2.353 . S
Gd934 O969 2.468 . S
Gd934 O970 2.427 . S
Gd934 O972 2.388 . S
Gd934 O973 2.386 . S
Gd934 O977 2.307 . S
Gd934 C987 2.805 . S
Gd935 N930 2.622 . S
Gd935 N936 2.570 . S
Gd935 O967 2.386 . S
Gd935 O971 2.307 . S
Gd935 O974 2.353 . S
Gd935 O975 2.468 . S
Gd935 O976 2.427 . S
Gd935 O978 2.388 . S
Gd935 C999 2.805 . S
N936 C926 1.359 . S
N936 Gd935 2.570 . S
N936 C938 1.343 . S
C937 C925 1.422 . S
C937 C939 1.321 . S
C937 H945 0.931 . S
C938 N936 1.343 . S
C938 C939 1.390 . S
C938 H940 0.931 . S
C939 C937 1.321 . S
C939 C938 1.390 . S
C939 H941 0.930 . S
H940 C938 0.931 . S
H941 C939 0.930 . S
H942 C965 0.931 . S
H943 C931 0.929 . S
H944 C966 0.930 . S
H945 C937 0.931 . S
H946 C927 0.930 . S
H947 C956 0.929 . S
H948 C932 0.931 . S
H949 C933 0.930 . S
H950 C988 0.930 . S
H951 C929 0.929 . S
H952 C957 0.931 . S
H953 C958 0.930 . S
N954 Gd934 2.622 . S
N954 C955 1.369 . S
N954 C956 1.338 . S
C955 N954 1.369 . S
C955 C959 1.415 . S
C955 C962 1.422 . S
C956 H947 0.929 . S
C956 N954 1.338 . S
C956 C958 1.378 . S
C957 H952 0.931 . S
C957 C958 1.348 . S
C957 C959 1.413 . S
C958 H953 0.930 . S
C958 C956 1.378 . S
C958 C957 1.348 . S
C959 C955 1.415 . S
C959 C957 1.413 . S
C959 C989 1.437 . S
H960 C989 0.929 . S
N961 Gd934 2.570 . S
N961 C962 1.359 . S
N961 C965 1.343 . S
C962 C955 1.422 . S
C962 N961 1.359 . S
C962 C964 1.421 . S
C963 C964 1.422 . S
C963 C966 1.321 . S
C963 H990 0.931 . S
C964 C962 1.421 . S
C964 C963 1.422 . S
C964 C988 1.417 . S
C965 H942 0.931 . S
C965 N961 1.343 . S
C965 C966 1.390 . S
C966 H944 0.930 . S
C966 C963 1.321 . S
C966 C965 1.390 . S
O967 Gd935 2.386 . S
O967 C979 1.265 . S
O968 Gd934 2.353 . S
O968 C979 1.242 . S
O969 Gd934 2.468 . S
O969 C987 1.263 . S
O970 Gd934 2.427 . S
O970 C987 1.252 . S
O971 Gd935 2.307 . S
O971 C980 1.261 . S
O972 Gd934 2.388 . S
O972 C980 1.252 . S
O973 Gd934 2.386 . S
O973 C991 1.265 . S
O974 Gd935 2.353 . S
O974 C991 1.242 . S
O975 Gd935 2.468 . S
O975 C999 1.263 . S
O976 Gd935 2.427 . S
O976 C999 1.252 . S
O977 Gd934 2.307 . S
O977 C992 1.261 . S
O978 Gd935 2.388 . S
O978 C992 1.252 . S
C979 O967 1.265 . S
C979 O968 1.242 . S
C980 O971 1.261 . S
C980 O972 1.252 . S
C981 C984 1.394 . S
C981 C986 1.370 . S
C981 C987 1.500 . S
C982 C985 1.383 . S
C982 C986 1.395 . S
C983 C984 1.396 . S
C983 C985 1.365 . S
C983 H1000 0.929 . S
C984 C981 1.394 . S
C984 C983 1.396 . S
C984 H1001 0.930 . S
C985 C982 1.383 . S
C985 C983 1.365 . S
C985 H1002 0.931 . S
C986 C981 1.370 . S
C986 C982 1.395 . S
C986 H1003 0.930 . S
C987 Gd934 2.805 . S
C987 O969 1.263 . S
C987 O970 1.252 . S
C987 C981 1.500 . S
C988 H950 0.930 . S
C988 C964 1.417 . S
C988 C989 1.329 . S
C989 C959 1.437 . S
C989 H960 0.929 . S
C989 C988 1.329 . S
H990 C963 0.931 . S
C991 O973 1.265 . S
C991 O974 1.242 . S
C992 O977 1.261 . S
C992 O978 1.252 . S
C993 C996 1.394 . S
C993 C998 1.370 . S
C993 C999 1.500 . S
C994 C997 1.383 . S
C994 C998 1.395 . S
C995 C996 1.396 . S
C995 C997 1.365 . S
C995 H1004 0.929 . S
C996 C993 1.394 . S
C996 C995 1.396 . S
C996 H1005 0.930 . S
C997 C994 1.383 . S
C997 C995 1.365 . S
C997 H1006 0.931 . S
C998 C993 1.370 . S
C998 C994 1.395 . S
C998 H1007 0.930 . S
C999 Gd935 2.805 . S
C999 O975 1.263 . S
C999 O976 1.252 . S
C999 C993 1.500 . S
H1000 C983 0.929 . S
H1001 C984 0.930 . S
H1002 C985 0.931 . S
H1003 C986 0.930 . S
H1004 C995 0.929 . S
H1005 C996 0.930 . S
H1006 C997 0.931 . S
H1007 C998 0.930 . S
H1008 C1014 0.930 . S
H1009 C1018 0.930 . S
H1010 C1023 0.929 . S
H1011 C1021 0.929 . S
H1012 C1016 0.929 . S
H1013 C1022 0.929 . S
C1014 H1008 0.930 . S
C1014 C1015 1.367 . S
C1014 C1022 1.377 1_554 S
C1015 C1014 1.367 . S
C1015 C1023 1.433 1_455 S
C1016 H1012 0.929 . S
C1016 C1018 1.377 1_554 S
C1016 C1020 1.350 1_554 S
C1017 C1020 1.463 1_454 S
C1017 C1022 1.350 1_554 S
C1017 N1025 1.427 1_455 S
C1018 H1009 0.930 . S
C1018 C1016 1.377 1_556 S
C1018 C1019 1.367 . S
C1019 C1018 1.367 . S
C1019 C1021 1.433 1_655 S
C1020 C1016 1.350 1_556 S
C1020 C1017 1.463 1_656 S
C1020 N1024 1.427 1_655 S
C1021 H1011 0.929 . S
C1021 C1019 1.433 1_455 S
C1021 N1024 1.384 . S
C1022 H1013 0.929 . S
C1022 C1014 1.377 1_556 S
C1022 C1017 1.350 1_556 S
C1023 H1010 0.929 . S
C1023 C1015 1.433 1_655 S
C1023 N1025 1.384 . S
N1024 C1020 1.427 1_455 S
N1024 C1021 1.384 . S
N1025 C1017 1.427 1_655 S
N1025 C1023 1.384 . S
H1026 C1032 0.930 . S
H1027 C1036 0.930 . S
H1028 C1041 0.929 . S
H1029 C1039 0.929 . S
H1030 C1034 0.929 . S
H1031 C1040 0.929 . S
C1032 H1026 0.930 . S
C1032 C1033 1.367 . S
C1032 C1040 1.378 1_556 S
C1033 C1032 1.367 . S
C1033 C1041 1.433 . S
C1034 H1030 0.929 . S
C1034 C1036 1.378 1_556 S
C1034 C1038 1.350 1_556 S
C1035 C1038 1.463 1_556 S
C1035 C1040 1.350 1_556 S
C1035 N1043 1.427 . S
C1036 H1027 0.930 . S
C1036 C1034 1.378 1_554 S
C1036 C1037 1.367 . S
C1037 C1036 1.367 . S
C1037 C1039 1.433 . S
C1038 C1034 1.350 1_554 S
C1038 C1035 1.463 1_554 S
C1038 N1042 1.427 . S
C1039 H1029 0.929 . S
C1039 C1037 1.433 . S
C1039 N1042 1.384 . S
C1040 H1031 0.929 . S
C1040 C1032 1.378 1_554 S
C1040 C1035 1.350 1_554 S
C1041 H1028 0.929 . S
C1041 C1033 1.433 . S
C1041 N1043 1.384 . S
N1042 C1038 1.427 . S
N1042 C1039 1.384 . S
N1043 C1035 1.427 . S
N1043 C1041 1.384 . S
H1044 C1050 0.930 . S
H1045 C1054 0.930 . S
H1046 C1059 0.929 . S
H1047 C1057 0.929 . S
H1048 C1052 0.929 . S
H1049 C1058 0.929 . S
C1050 H1044 0.930 . S
C1050 C1051 1.367 . S
C1050 C1058 1.378 . S
C1051 C1050 1.367 . S
C1051 C1059 1.433 1_545 S
C1052 H1048 0.929 . S
C1052 C1054 1.378 . S
C1052 C1056 1.350 . S
C1053 C1056 1.463 1_546 S
C1053 C1058 1.350 . S
C1053 N1061 1.427 1_546 S
C1054 H1045 0.930 . S
C1054 C1052 1.378 . S
C1054 C1055 1.367 . S
C1055 C1054 1.367 . S
C1055 C1057 1.433 1_565 S
C1056 C1052 1.350 . S
C1056 C1053 1.463 1_564 S
C1056 N1060 1.427 1_564 S
C1057 H1047 0.929 . S
C1057 C1055 1.433 1_545 S
C1057 N1060 1.384 1_554 S
C1058 H1049 0.929 . S
C1058 C1050 1.378 . S
C1058 C1053 1.350 . S
C1059 H1046 0.929 . S
C1059 C1051 1.433 1_565 S
C1059 N1061 1.384 1_556 S
N1060 C1056 1.427 1_546 S
N1060 C1057 1.384 1_556 S
N1061 C1053 1.427 1_564 S
N1061 C1059 1.384 1_554 S
H1062 C1068 0.930 . S
H1063 C1072 0.930 . S
H1064 C1077 0.929 . S
H1065 C1075 0.929 . S
H1066 C1070 0.939 . S
H1067 C1076 0.939 . S
C1068 H1062 0.930 . S
C1068 C1069 1.367 . S
C1068 C1076 1.378 . S
C1069 C1068 1.367 . S
C1069 C1077 1.433 . S
C1070 H1066 0.939 . S
C1070 C1072 1.378 . S
C1070 C1074 1.350 . S
C1071 C1074 1.463 1_545 S
C1071 C1076 1.350 . S
C1071 N1079 1.427 . S
C1072 H1063 0.930 . S
C1072 C1070 1.378 . S
C1072 C1073 1.367 . S
C1073 C1072 1.367 . S
C1073 C1075 1.433 . S
C1074 C1070 1.350 . S
C1074 C1071 1.463 1_565 S
C1074 N1078 1.427 . S
C1075 H1065 0.929 . S
C1075 C1073 1.433 . S
C1075 N1078 1.384 . S
C1076 H1067 0.939 . S
C1076 C1068 1.378 . S
C1076 C1071 1.350 . S
C1077 H1064 0.929 . S
C1077 C1069 1.433 . S
C1077 N1079 1.384 . S
N1078 C1074 1.427 . S
N1078 C1075 1.384 . S
N1079 C1071 1.427 . S
N1079 C1077 1.384 . S
H1080 C1086 0.930 . S
H1081 C1090 0.930 . S
H1082 C1095 0.912 1_655 S
H1083 C1093 0.912 1_455 S
H1084 C1088 0.929 . S
H1085 C1094 0.929 . S
C1086 H1080 0.930 . S
C1086 C1087 1.367 . S
C1086 C1094 1.378 . S
C1087 C1086 1.367 . S
C1087 C1095 1.442 . S
C1088 H1084 0.929 . S
C1088 C1090 1.378 . S
C1088 C1092 1.350 . S
C1089 C1092 1.463 1_455 S
C1089 C1094 1.350 . S
C1089 N1097 1.427 1_455 S
C1090 H1081 0.930 . S
C1090 C1088 1.378 . S
C1090 C1091 1.367 . S
C1091 C1090 1.367 . S
C1091 C1093 1.442 . S
C1092 C1088 1.350 . S
C1092 C1089 1.463 1_655 S
C1092 N1096 1.427 1_655 S
C1093 H1083 0.912 1_655 S
C1093 C1091 1.442 . S
C1093 N1096 1.394 1_655 S
C1094 H1085 0.929 . S
C1094 C1086 1.378 . S
C1094 C1089 1.350 . S
C1095 H1082 0.912 1_455 S
C1095 C1087 1.442 . S
C1095 N1097 1.394 1_455 S
N1096 C1092 1.427 1_455 S
N1096 C1093 1.394 1_455 S
N1097 C1089 1.427 1_655 S
N1097 C1095 1.394 1_655 S
H1098 C1104 0.930 . S
H1099 C1108 0.930 . S
H1100 C1113 0.929 . S
H1101 C1111 0.929 . S
H1102 C1106 0.929 . S
H1103 C1112 0.929 . S
C1104 H1098 0.930 . S
C1104 C1105 1.367 . S
C1104 C1112 1.378 . S
C1105 C1104 1.367 . S
C1105 C1113 1.433 . S
C1106 H1102 0.929 . S
C1106 C1108 1.378 . S
C1106 C1110 1.350 . S
C1107 C1110 1.463 . S
C1107 C1112 1.350 . S
C1107 N1115 1.427 . S
C1108 H1099 0.930 . S
C1108 C1106 1.378 . S
C1108 C1109 1.367 . S
C1109 C1108 1.367 . S
C1109 C1111 1.433 . S
C1110 C1106 1.350 . S
C1110 C1107 1.463 . S
C1110 N1114 1.427 . S
C1111 H1101 0.929 . S
C1111 C1109 1.433 . S
C1111 N1114 1.384 . S
C1112 H1103 0.929 . S
C1112 C1104 1.378 . S
C1112 C1107 1.350 . S
C1113 H1100 0.929 . S
C1113 C1105 1.433 . S
C1113 N1115 1.384 . S
N1114 C1110 1.427 . S
N1114 C1111 1.384 . S
N1115 C1107 1.427 . S
N1115 C1113 1.384 . S
H1116 C1122 0.930 . S
H1117 C1126 0.930 . S
H1118 C1131 0.929 . S
H1119 C1129 0.929 . S
H1120 C1124 0.929 . S
H1121 C1130 0.929 . S
C1122 H1116 0.930 . S
C1122 C1123 1.367 . S
C1122 C1130 1.378 . S
C1123 C1122 1.367 . S
C1123 C1131 1.433 . S
C1124 H1120 0.929 . S
C1124 C1126 1.378 . S
C1124 C1128 1.350 . S
C1125 C1128 1.463 1_655 S
C1125 C1130 1.350 . S
C1125 N1133 1.427 . S
C1126 H1117 0.930 . S
C1126 C1124 1.378 . S
C1126 C1127 1.367 . S
C1127 C1126 1.367 . S
C1127 C1129 1.433 . S
C1128 C1124 1.350 . S
C1128 C1125 1.463 1_455 S
C1128 N1132 1.427 . S
C1129 H1119 0.929 . S
C1129 C1127 1.433 . S
C1129 N1132 1.384 . S
C1130 H1121 0.929 . S
C1130 C1122 1.378 . S
C1130 C1125 1.350 . S
C1131 H1118 0.929 . S
C1131 C1123 1.433 . S
C1131 N1133 1.384 . S
N1132 C1128 1.427 . S
N1132 C1129 1.384 . S
N1133 C1125 1.427 . S
N1133 C1131 1.384 . S
H1134 C1140 0.930 . S
H1135 C1144 0.930 . S
H1136 C1149 0.929 . S
H1137 C1147 0.929 . S
H1138 C1142 0.929 . S
H1139 C1148 0.929 . S
C1140 H1134 0.930 . S
C1140 C1141 1.367 . S
C1140 C1148 1.378 . S
C1141 C1140 1.367 . S
C1141 C1149 1.433 . S
C1142 H1138 0.929 . S
C1142 C1144 1.378 . S
C1142 C1146 1.350 . S
C1143 C1146 1.463 . S
C1143 C1148 1.350 . S
C1143 N1151 1.427 . S
C1144 H1135 0.930 . S
C1144 C1142 1.378 . S
C1144 C1145 1.367 . S
C1145 C1144 1.367 . S
C1145 C1147 1.433 . S
C1146 C1142 1.350 . S
C1146 C1143 1.463 . S
C1146 N1150 1.427 . S
C1147 H1137 0.929 . S
C1147 C1145 1.433 . S
C1147 N1150 1.384 . S
C1148 H1139 0.929 . S
C1148 C1140 1.378 . S
C1148 C1143 1.350 . S
C1149 H1136 0.929 . S
C1149 C1141 1.433 . S
C1149 N1151 1.384 . S
N1150 C1146 1.427 . S
N1150 C1147 1.384 . S
N1151 C1143 1.427 . S
N1151 C1149 1.384 . S
H1152 C1158 0.930 . S
H1153 C1162 0.930 . S
H1154 C1167 0.929 . S
H1155 C1165 0.929 . S
H1156 C1160 0.929 . S
H1157 C1166 0.929 . S
C1158 H1152 0.930 . S
C1158 C1159 1.367 . S
C1158 C1166 1.378 . S
C1159 C1158 1.367 . S
C1159 C1167 1.433 . S
C1160 H1156 0.929 . S
C1160 C1162 1.378 . S
C1160 C1164 1.350 . S
C1161 C1164 1.463 1_545 S
C1161 C1166 1.350 . S
C1161 N1169 1.427 . S
C1162 H1153 0.930 . S
C1162 C1160 1.378 . S
C1162 C1163 1.367 . S
C1163 C1162 1.367 . S
C1163 C1165 1.433 . S
C1164 C1160 1.350 . S
C1164 C1161 1.463 1_565 S
C1164 N1168 1.427 . S
C1165 H1155 0.929 . S
C1165 C1163 1.433 . S
C1165 N1168 1.384 . S
C1166 H1157 0.929 . S
C1166 C1158 1.378 . S
C1166 C1161 1.350 . S
C1167 H1154 0.929 . S
C1167 C1159 1.433 . S
C1167 N1169 1.384 . S
N1168 C1164 1.427 . S
N1168 C1165 1.384 . S
N1169 C1161 1.427 . S
N1169 C1167 1.384 . S
H1170 C1176 0.930 . S
H1171 C1180 0.930 . S
H1172 C1185 0.929 . S
H1173 C1183 0.929 . S
H1174 C1178 0.929 . S
H1175 C1184 0.929 . S
C1176 H1170 0.930 . S
C1176 C1177 1.367 . S
C1176 C1184 1.378 . S
C1177 C1176 1.367 . S
C1177 C1185 1.433 . S
C1178 H1174 0.929 . S
C1178 C1180 1.378 . S
C1178 C1182 1.350 . S
C1179 C1182 1.463 1_455 S
C1179 C1184 1.350 . S
C1179 N1187 1.427 . S
C1180 H1171 0.930 . S
C1180 C1178 1.378 . S
C1180 C1181 1.367 . S
C1181 C1180 1.367 . S
C1181 C1183 1.433 . S
C1182 C1178 1.350 . S
C1182 C1179 1.463 1_655 S
C1182 N1186 1.427 . S
C1183 H1173 0.929 . S
C1183 C1181 1.433 . S
C1183 N1186 1.384 . S
C1184 H1175 0.929 . S
C1184 C1176 1.378 . S
C1184 C1179 1.350 . S
C1185 H1172 0.929 . S
C1185 C1177 1.433 . S
C1185 N1187 1.384 . S
N1186 C1182 1.427 . S
N1186 C1183 1.384 . S
N1187 C1179 1.427 . S
N1187 C1185 1.384 . S
H1188 C1194 0.930 . S
H1189 C1198 0.930 . S
H1190 C1203 0.929 . S
H1191 C1201 0.929 . S
H1192 C1196 0.929 . S
H1193 C1202 0.929 . S
C1194 H1188 0.930 . S
C1194 C1195 1.367 . S
C1194 C1202 1.378 . S
C1195 C1194 1.367 . S
C1195 C1203 1.433 . S
C1196 H1192 0.929 . S
C1196 C1198 1.378 . S
C1196 C1200 1.350 . S
C1197 C1200 1.463 . S
C1197 C1202 1.350 . S
C1197 N1205 1.427 . S
C1198 H1189 0.930 . S
C1198 C1196 1.378 . S
C1198 C1199 1.367 . S
C1199 C1198 1.367 . S
C1199 C1201 1.433 . S
C1200 C1196 1.350 . S
C1200 C1197 1.463 . S
C1200 N1204 1.427 . S
C1201 H1191 0.929 . S
C1201 C1199 1.433 . S
C1201 N1204 1.384 . S
C1202 H1193 0.929 . S
C1202 C1194 1.378 . S
C1202 C1197 1.350 . S
C1203 H1190 0.929 . S
C1203 C1195 1.433 . S
C1203 N1205 1.384 . S
N1204 C1200 1.427 . S
N1204 C1201 1.384 . S
N1205 C1197 1.427 . S
N1205 C1203 1.384 . S
H1206 C1212 0.930 . S
H1207 C1216 0.930 . S
H1208 C1221 0.929 . S
H1209 C1219 0.929 . S
H1210 C1214 0.929 . S
H1211 C1220 0.929 . S
C1212 H1206 0.930 . S
C1212 C1213 1.367 . S
C1212 C1220 1.378 . S
C1213 C1212 1.367 . S
C1213 C1221 1.433 . S
C1214 H1210 0.929 . S
C1214 C1216 1.378 . S
C1214 C1218 1.350 . S
C1215 C1218 1.463 1_545 S
C1215 C1220 1.350 . S
C1215 N1223 1.427 . S
C1216 H1207 0.930 . S
C1216 C1214 1.378 . S
C1216 C1217 1.367 . S
C1217 C1216 1.367 . S
C1217 C1219 1.433 . S
C1218 C1214 1.350 . S
C1218 C1215 1.463 1_565 S
C1218 N1222 1.427 . S
C1219 H1209 0.929 . S
C1219 C1217 1.433 . S
C1219 N1222 1.384 . S
C1220 H1211 0.929 . S
C1220 C1212 1.378 . S
C1220 C1215 1.350 . S
C1221 H1208 0.929 . S
C1221 C1213 1.433 . S
C1221 N1223 1.384 . S
N1222 C1218 1.427 . S
N1222 C1219 1.384 . S
N1223 C1215 1.427 . S
N1223 C1221 1.384 . S
H1224 C1230 0.930 . S
H1225 C1234 0.930 . S
H1226 C1239 0.929 . S
H1227 C1237 0.929 . S
H1228 C1232 0.929 . S
H1229 C1238 0.929 . S
C1230 H1224 0.930 . S
C1230 C1231 1.367 . S
C1230 C1238 1.378 . S
C1231 C1230 1.367 . S
C1231 C1239 1.433 . S
C1232 H1228 0.929 . S
C1232 C1234 1.378 . S
C1232 C1236 1.350 . S
C1233 C1236 1.463 . S
C1233 C1238 1.350 . S
C1233 N1241 1.427 . S
C1234 H1225 0.930 . S
C1234 C1232 1.378 . S
C1234 C1235 1.367 . S
C1235 C1234 1.367 . S
C1235 C1237 1.433 . S
C1236 C1232 1.350 . S
C1236 C1233 1.463 . S
C1236 N1240 1.427 . S
C1237 H1227 0.929 . S
C1237 C1235 1.433 . S
C1237 N1240 1.384 . S
C1238 H1229 0.929 . S
C1238 C1230 1.378 . S
C1238 C1233 1.350 . S
C1239 H1226 0.929 . S
C1239 C1231 1.433 . S
C1239 N1241 1.384 . S
N1240 C1236 1.427 . S
N1240 C1237 1.384 . S
N1241 C1233 1.427 . S
N1241 C1239 1.384 . S
H1242 C1248 0.930 . S
H1243 C1252 0.930 . S
H1244 C1257 0.929 . S
H1245 C1255 0.929 . S
H1246 C1250 0.929 . S
H1247 C1256 0.929 . S
C1248 H1242 0.930 . S
C1248 C1249 1.367 . S
C1248 C1256 1.378 . S
C1249 C1248 1.367 . S
C1249 C1257 1.433 . S
C1250 H1246 0.929 . S
C1250 C1252 1.378 . S
C1250 C1254 1.350 . S
C1251 C1254 1.463 . S
C1251 C1256 1.350 . S
C1251 N1259 1.427 . S
C1252 H1243 0.930 . S
C1252 C1250 1.378 . S
C1252 C1253 1.367 . S
C1253 C1252 1.367 . S
C1253 C1255 1.433 . S
C1254 C1250 1.350 . S
C1254 C1251 1.463 . S
C1254 N1258 1.427 . S
C1255 H1245 0.929 . S
C1255 C1253 1.433 . S
C1255 N1258 1.384 . S
C1256 H1247 0.929 . S
C1256 C1248 1.378 . S
C1256 C1251 1.350 . S
C1257 H1244 0.929 . S
C1257 C1249 1.433 . S
C1257 N1259 1.384 . S
N1258 C1254 1.427 . S
N1258 C1255 1.384 . S
N1259 C1251 1.427 . S
N1259 C1257 1.384 . S
H1260 C1266 0.930 . S
H1261 C1270 0.930 . S
H1262 C1275 0.929 . S
H1263 C1273 0.929 . S
H1264 C1268 0.929 . S
H1265 C1274 0.929 . S
C1266 H1260 0.930 . S
C1266 C1267 1.367 . S
C1266 C1274 1.378 . S
C1267 C1266 1.367 . S
C1267 C1275 1.433 . S
C1268 H1264 0.929 . S
C1268 C1270 1.378 . S
C1268 C1272 1.350 . S
C1269 C1272 1.463 . S
C1269 C1274 1.350 . S
C1269 N1277 1.427 . S
C1270 H1261 0.930 . S
C1270 C1268 1.378 . S
C1270 C1271 1.367 . S
C1271 C1270 1.367 . S
C1271 C1273 1.433 . S
C1272 C1268 1.350 . S
C1272 C1269 1.463 . S
C1272 N1276 1.427 . S
C1273 H1263 0.929 . S
C1273 C1271 1.433 . S
C1273 N1276 1.384 . S
C1274 H1265 0.929 . S
C1274 C1266 1.378 . S
C1274 C1269 1.350 . S
C1275 H1262 0.929 . S
C1275 C1267 1.433 . S
C1275 N1277 1.384 . S
N1276 C1272 1.427 . S
N1276 C1273 1.384 . S
N1277 C1269 1.427 . S
N1277 C1275 1.384 . S
H1278 C1284 0.930 . S
H1279 C1288 0.930 . S
H1280 C1293 0.929 . S
H1281 C1291 0.929 . S
H1282 C1286 0.929 . S
H1283 C1292 0.929 . S
C1284 H1278 0.930 . S
C1284 C1285 1.367 . S
C1284 C1292 1.378 . S
C1285 C1284 1.367 . S
C1285 C1293 1.433 . S
C1286 H1282 0.929 . S
C1286 C1288 1.378 . S
C1286 C1290 1.350 . S
C1287 C1290 1.463 . S
C1287 C1292 1.350 . S
C1287 N1295 1.427 . S
C1288 H1279 0.930 . S
C1288 C1286 1.378 . S
C1288 C1289 1.367 . S
C1289 C1288 1.367 . S
C1289 C1291 1.433 . S
C1290 C1286 1.350 . S
C1290 C1287 1.463 . S
C1290 N1294 1.427 . S
C1291 H1281 0.929 . S
C1291 C1289 1.433 . S
C1291 N1294 1.384 . S
C1292 H1283 0.929 . S
C1292 C1284 1.378 . S
C1292 C1287 1.350 . S
C1293 H1280 0.929 . S
C1293 C1285 1.433 . S
C1293 N1295 1.384 . S
N1294 C1290 1.427 . S
N1294 C1291 1.384 . S
N1295 C1287 1.427 . S
N1295 C1293 1.384 . S
H1296 C1302 0.930 . S
H1297 C1306 0.930 . S
H1298 C1311 0.929 . S
H1299 C1309 0.929 . S
H1300 C1304 0.929 . S
H1301 C1310 0.929 . S
C1302 H1296 0.930 . S
C1302 C1303 1.367 . S
C1302 C1310 1.378 . S
C1303 C1302 1.367 . S
C1303 C1311 1.433 . S
C1304 H1300 0.929 . S
C1304 C1306 1.378 . S
C1304 C1308 1.350 . S
C1305 C1308 1.463 . S
C1305 C1310 1.350 . S
C1305 N1313 1.427 . S
C1306 H1297 0.930 . S
C1306 C1304 1.378 . S
C1306 C1307 1.367 . S
C1307 C1306 1.367 . S
C1307 C1309 1.433 . S
C1308 C1304 1.350 . S
C1308 C1305 1.463 . S
C1308 N1312 1.427 . S
C1309 H1299 0.929 . S
C1309 C1307 1.433 . S
C1309 N1312 1.384 . S
C1310 H1301 0.929 . S
C1310 C1302 1.378 . S
C1310 C1305 1.350 . S
C1311 H1298 0.929 . S
C1311 C1303 1.433 . S
C1311 N1313 1.384 . S
N1312 C1308 1.427 . S
N1312 C1309 1.384 . S
N1313 C1305 1.427 . S
N1313 C1311 1.384 . S
H1314 C1320 0.930 . S
H1315 C1324 0.930 . S
H1316 C1329 0.929 . S
H1317 C1327 0.929 . S
H1318 C1322 0.929 . S
H1319 C1328 0.929 . S
C1320 H1314 0.930 . S
C1320 C1321 1.367 . S
C1320 C1328 1.378 . S
C1321 C1320 1.367 . S
C1321 C1329 1.433 . S
C1322 H1318 0.929 . S
C1322 C1324 1.378 . S
C1322 C1326 1.350 . S
C1323 C1326 1.463 . S
C1323 C1328 1.350 . S
C1323 N1331 1.427 . S
C1324 H1315 0.930 . S
C1324 C1322 1.378 . S
C1324 C1325 1.367 . S
C1325 C1324 1.367 . S
C1325 C1327 1.433 . S
C1326 C1322 1.350 . S
C1326 C1323 1.463 . S
C1326 N1330 1.427 . S
C1327 H1317 0.929 . S
C1327 C1325 1.433 . S
C1327 N1330 1.384 . S
C1328 H1319 0.929 . S
C1328 C1320 1.378 . S
C1328 C1323 1.350 . S
C1329 H1316 0.929 . S
C1329 C1321 1.433 . S
C1329 N1331 1.384 . S
N1330 C1326 1.427 . S
N1330 C1327 1.384 . S
N1331 C1323 1.427 . S
N1331 C1329 1.384 . S
H1332 C1338 0.930 . S
H1333 C1342 0.930 . S
H1334 C1347 0.929 . S
H1335 C1345 0.929 . S
H1336 C1340 0.929 . S
H1337 C1346 0.929 . S
C1338 H1332 0.930 . S
C1338 C1339 1.367 . S
C1338 C1346 1.378 . S
C1339 C1338 1.367 . S
C1339 C1347 1.433 . S
C1340 H1336 0.929 . S
C1340 C1342 1.378 . S
C1340 C1344 1.350 . S
C1341 C1344 1.463 . S
C1341 C1346 1.350 . S
C1341 N1349 1.427 . S
C1342 H1333 0.930 . S
C1342 C1340 1.378 . S
C1342 C1343 1.367 . S
C1343 C1342 1.367 . S
C1343 C1345 1.433 . S
C1344 C1340 1.350 . S
C1344 C1341 1.463 . S
C1344 N1348 1.427 . S
C1345 H1335 0.929 . S
C1345 C1343 1.433 . S
C1345 N1348 1.384 . S
C1346 H1337 0.929 . S
C1346 C1338 1.378 . S
C1346 C1341 1.350 . S
C1347 H1334 0.929 . S
C1347 C1339 1.433 . S
C1347 N1349 1.384 . S
N1348 C1344 1.427 . S
N1348 C1345 1.384 . S
N1349 C1341 1.427 . S
N1349 C1347 1.384 . S
H1350 C1356 0.930 . S
H1351 C1360 0.930 . S
H1352 C1365 0.929 . S
H1353 C1363 0.929 . S
H1354 C1358 0.929 . S
H1355 C1364 0.929 . S
C1356 H1350 0.930 . S
C1356 C1357 1.367 . S
C1356 C1364 1.378 . S
C1357 C1356 1.367 . S
C1357 C1365 1.433 . S
C1358 H1354 0.929 . S
C1358 C1360 1.378 . S
C1358 C1362 1.350 . S
C1359 C1362 1.463 . S
C1359 C1364 1.350 . S
C1359 N1367 1.427 . S
C1360 H1351 0.930 . S
C1360 C1358 1.378 . S
C1360 C1361 1.367 . S
C1361 C1360 1.367 . S
C1361 C1363 1.433 . S
C1362 C1358 1.350 . S
C1362 C1359 1.463 . S
C1362 N1366 1.427 . S
C1363 H1353 0.929 . S
C1363 C1361 1.433 . S
C1363 N1366 1.384 . S
C1364 H1355 0.929 . S
C1364 C1356 1.378 . S
C1364 C1359 1.350 . S
C1365 H1352 0.929 . S
C1365 C1357 1.433 . S
C1365 N1367 1.384 . S
N1366 C1362 1.427 . S
N1366 C1363 1.384 . S
N1367 C1359 1.427 . S
N1367 C1365 1.384 . S
H1368 C1374 0.930 . S
H1369 C1378 0.930 . S
H1370 C1383 0.929 . S
H1371 C1381 0.929 . S
H1372 C1376 0.929 . S
H1373 C1382 0.929 . S
C1374 H1368 0.930 . S
C1374 C1375 1.367 . S
C1374 C1382 1.378 . S
C1375 C1374 1.367 . S
C1375 C1383 1.433 . S
C1376 H1372 0.929 . S
C1376 C1378 1.378 . S
C1376 C1380 1.350 . S
C1377 C1380 1.463 . S
C1377 C1382 1.350 . S
C1377 N1385 1.427 . S
C1378 H1369 0.930 . S
C1378 C1376 1.378 . S
C1378 C1379 1.367 . S
C1379 C1378 1.367 . S
C1379 C1381 1.433 . S
C1380 C1376 1.350 . S
C1380 C1377 1.463 . S
C1380 N1384 1.427 . S
C1381 H1371 0.929 . S
C1381 C1379 1.433 . S
C1381 N1384 1.384 . S
C1382 H1373 0.929 . S
C1382 C1374 1.378 . S
C1382 C1377 1.350 . S
C1383 H1370 0.929 . S
C1383 C1375 1.433 . S
C1383 N1385 1.384 . S
N1384 C1380 1.427 . S
N1384 C1381 1.384 . S
N1385 C1377 1.427 . S
N1385 C1383 1.384 . S
H1386 C1392 0.930 . S
H1387 C1396 0.930 . S
H1388 C1401 0.929 . S
H1389 C1399 0.929 . S
H1390 C1394 0.929 . S
H1391 C1400 0.929 . S
C1392 H1386 0.930 . S
C1392 C1393 1.367 . S
C1392 C1400 1.378 . S
C1393 C1392 1.367 . S
C1393 C1401 1.433 . S
C1394 H1390 0.929 . S
C1394 C1396 1.378 . S
C1394 C1398 1.350 . S
C1395 C1398 1.463 . S
C1395 C1400 1.350 . S
C1395 N1403 1.427 . S
C1396 H1387 0.930 . S
C1396 C1394 1.378 . S
C1396 C1397 1.367 . S
C1397 C1396 1.367 . S
C1397 C1399 1.433 . S
C1398 C1394 1.350 . S
C1398 C1395 1.463 . S
C1398 N1402 1.427 . S
C1399 H1389 0.929 . S
C1399 C1397 1.433 . S
C1399 N1402 1.384 . S
C1400 H1391 0.929 . S
C1400 C1392 1.378 . S
C1400 C1395 1.350 . S
C1401 H1388 0.929 . S
C1401 C1393 1.433 . S
C1401 N1403 1.384 . S
N1402 C1398 1.427 . S
N1402 C1399 1.384 . S
N1403 C1395 1.427 . S
N1403 C1401 1.384 . S
H1404 C1410 0.930 . S
H1405 C1414 0.930 . S
H1406 C1419 0.929 . S
H1407 C1417 0.929 . S
H1408 C1412 0.929 . S
H1409 C1418 0.929 . S
C1410 H1404 0.930 . S
C1410 C1411 1.367 . S
C1410 C1418 1.378 . S
C1411 C1410 1.367 . S
C1411 C1419 1.433 . S
C1412 H1408 0.929 . S
C1412 C1414 1.378 . S
C1412 C1416 1.350 . S
C1413 C1416 1.463 . S
C1413 C1418 1.350 . S
C1413 N1421 1.427 . S
C1414 H1405 0.930 . S
C1414 C1412 1.378 . S
C1414 C1415 1.367 . S
C1415 C1414 1.367 . S
C1415 C1417 1.433 . S
C1416 C1412 1.350 . S
C1416 C1413 1.463 . S
C1416 N1420 1.427 . S
C1417 H1407 0.929 . S
C1417 C1415 1.433 . S
C1417 N1420 1.384 . S
C1418 H1409 0.929 . S
C1418 C1410 1.378 . S
C1418 C1413 1.350 . S
C1419 H1406 0.929 . S
C1419 C1411 1.433 . S
C1419 N1421 1.384 . S
N1420 C1416 1.427 . S
N1420 C1417 1.384 . S
N1421 C1413 1.427 . S
N1421 C1419 1.384 . S
H1422 C1428 0.930 . S
H1423 C1432 0.930 . S
H1424 C1437 0.929 . S
H1425 C1435 0.929 . S
H1426 C1430 0.929 . S
H1427 C1436 0.929 . S
C1428 H1422 0.930 . S
C1428 C1429 1.367 . S
C1428 C1436 1.378 . S
C1429 C1428 1.367 . S
C1429 C1437 1.433 . S
C1430 H1426 0.929 . S
C1430 C1432 1.378 . S
C1430 C1434 1.350 . S
C1431 C1434 1.463 . S
C1431 C1436 1.350 . S
C1431 N1439 1.427 . S
C1432 H1423 0.930 . S
C1432 C1430 1.378 . S
C1432 C1433 1.367 . S
C1433 C1432 1.367 . S
C1433 C1435 1.433 . S
C1434 C1430 1.350 . S
C1434 C1431 1.463 . S
C1434 N1438 1.427 . S
C1435 H1425 0.929 . S
C1435 C1433 1.433 . S
C1435 N1438 1.384 . S
C1436 H1427 0.929 . S
C1436 C1428 1.378 . S
C1436 C1431 1.350 . S
C1437 H1424 0.929 . S
C1437 C1429 1.433 . S
C1437 N1439 1.384 . S
N1438 C1434 1.427 . S
N1438 C1435 1.384 . S
N1439 C1431 1.427 . S
N1439 C1437 1.384 . S
H1440 C1446 0.930 . S
H1441 C1450 0.930 . S
H1442 C1455 0.929 . S
H1443 C1453 0.929 . S
H1444 C1448 0.929 . S
H1445 C1454 0.929 . S
C1446 H1440 0.930 . S
C1446 C1447 1.367 . S
C1446 C1454 1.378 . S
C1447 C1446 1.367 . S
C1447 C1455 1.433 . S
C1448 H1444 0.929 . S
C1448 C1450 1.378 . S
C1448 C1452 1.350 . S
C1449 C1452 1.463 . S
C1449 C1454 1.350 . S
C1449 N1457 1.427 . S
C1450 H1441 0.930 . S
C1450 C1448 1.378 . S
C1450 C1451 1.367 . S
C1451 C1450 1.367 . S
C1451 C1453 1.433 . S
C1452 C1448 1.350 . S
C1452 C1449 1.463 . S
C1452 N1456 1.427 . S
C1453 H1443 0.929 . S
C1453 C1451 1.433 . S
C1453 N1456 1.384 . S
C1454 H1445 0.929 . S
C1454 C1446 1.378 . S
C1454 C1449 1.350 . S
C1455 H1442 0.929 . S
C1455 C1447 1.433 . S
C1455 N1457 1.384 . S
N1456 C1452 1.427 . S
N1456 C1453 1.384 . S
N1457 C1449 1.427 . S
N1457 C1455 1.384 . S
H1458 C1464 0.930 . S
H1459 C1468 0.930 . S
H1460 C1473 0.929 1_556 S
H1461 C1471 0.929 . S
H1462 C1466 0.929 . S
H1463 C1472 0.933 . S
C1464 H1458 0.930 . S
C1464 C1465 1.367 . S
C1464 C1472 1.367 1_545 S
C1465 C1464 1.367 . S
C1465 C1473 1.433 . S
C1466 H1462 0.929 . S
C1466 C1468 1.378 . S
C1466 C1470 1.350 . S
C1467 C1470 1.463 . S
C1467 C1472 1.357 . S
C1467 N1475 1.427 1_565 S
C1468 H1459 0.930 . S
C1468 C1466 1.378 . S
C1468 C1469 1.367 . S
C1469 C1468 1.367 . S
C1469 C1471 1.433 . S
C1470 C1466 1.350 . S
C1470 C1467 1.463 . S
C1470 N1474 1.427 . S
C1471 H1461 0.929 . S
C1471 C1469 1.433 . S
C1471 N1474 1.384 . S
C1472 H1463 0.933 . S
C1472 C1464 1.367 1_565 S
C1472 C1467 1.357 . S
C1473 H1460 0.929 1_554 S
C1473 C1465 1.433 . S
C1473 N1475 1.384 . S
N1474 C1470 1.427 . S
N1474 C1471 1.384 . S
N1475 C1467 1.427 1_545 S
N1475 C1473 1.384 . S
H1476 C1482 0.930 . S
H1477 C1486 0.930 . S
H1478 C1491 0.929 . S
H1479 C1489 0.929 . S
H1480 C1484 0.929 . S
H1481 C1490 0.929 1_455 S
C1482 H1476 0.930 . S
C1482 C1483 1.367 1_556 S
C1482 C1490 1.378 . S
C1483 C1482 1.367 1_554 S
C1483 C1491 1.433 . S
C1484 H1480 0.929 . S
C1484 C1486 1.378 . S
C1484 C1488 1.350 . S
C1485 C1488 1.463 . S
C1485 C1490 1.350 1_454 S
C1485 N1493 1.427 1_455 S
C1486 H1477 0.930 . S
C1486 C1484 1.378 . S
C1486 C1487 1.367 . S
C1487 C1486 1.367 . S
C1487 C1489 1.433 . S
C1488 C1484 1.350 . S
C1488 C1485 1.463 . S
C1488 N1492 1.427 . S
C1489 H1479 0.929 . S
C1489 C1487 1.433 . S
C1489 N1492 1.384 . S
C1490 H1481 0.929 1_655 S
C1490 C1482 1.378 . S
C1490 C1485 1.350 1_656 S
C1491 H1478 0.929 . S
C1491 C1483 1.433 . S
C1491 N1493 1.384 . S
N1492 C1488 1.427 . S
N1492 C1489 1.384 . S
N1493 C1485 1.427 1_655 S
N1493 C1491 1.384 . S
H1494 C1500 0.930 . S
H1495 C1504 0.930 . S
H1496 C1509 0.929 . S
H1497 C1507 0.929 . S
H1498 C1502 0.929 . S
H1499 C1508 0.929 . S
C1500 H1494 0.930 . S
C1500 C1501 1.367 . S
C1500 C1508 1.378 . S
C1501 C1500 1.367 . S
C1501 C1509 1.433 . S
C1502 H1498 0.929 . S
C1502 C1504 1.378 . S
C1502 C1506 1.350 . S
C1503 C1506 1.463 . S
C1503 C1508 1.350 . S
C1503 N1511 1.427 . S
C1504 H1495 0.930 . S
C1504 C1502 1.378 . S
C1504 C1505 1.367 . S
C1505 C1504 1.367 . S
C1505 C1507 1.433 . S
C1506 C1502 1.350 . S
C1506 C1503 1.463 . S
C1506 N1510 1.427 . S
C1507 H1497 0.929 . S
C1507 C1505 1.433 . S
C1507 N1510 1.384 . S
C1508 H1499 0.929 . S
C1508 C1500 1.378 . S
C1508 C1503 1.350 . S
C1509 H1496 0.929 . S
C1509 C1501 1.433 . S
C1509 N1511 1.384 . S
N1510 C1506 1.427 . S
N1510 C1507 1.384 . S
N1511 C1503 1.427 . S
N1511 C1509 1.384 . S
H1512 C1518 0.930 . S
H1513 C1522 0.930 . S
H1514 C1527 0.929 . S
H1515 C1525 0.929 . S
H1516 C1520 0.929 . S
H1517 C1526 0.929 . S
C1518 H1512 0.930 . S
C1518 C1519 1.367 . S
C1518 C1526 1.378 1_565 S
C1519 C1518 1.367 . S
C1519 C1527 1.433 . S
C1520 H1516 0.929 . S
C1520 C1522 1.378 . S
C1520 C1524 1.350 . S
C1521 C1524 1.463 . S
C1521 C1526 1.350 . S
C1521 N1529 1.427 1_545 S
C1522 H1513 0.930 . S
C1522 C1520 1.378 . S
C1522 C1523 1.367 . S
C1523 C1522 1.367 . S
C1523 C1525 1.433 . S
C1524 C1520 1.350 . S
C1524 C1521 1.463 . S
C1524 N1528 1.427 . S
C1525 H1515 0.929 . S
C1525 C1523 1.433 . S
C1525 N1528 1.384 . S
C1526 H1517 0.929 . S
C1526 C1518 1.378 1_545 S
C1526 C1521 1.350 . S
C1527 H1514 0.929 . S
C1527 C1519 1.433 . S
C1527 N1529 1.384 . S
N1528 C1524 1.427 . S
N1528 C1525 1.384 . S
N1529 C1521 1.427 1_565 S
N1529 C1527 1.384 . S
H1530 C1536 0.930 . S
H1531 C1540 0.930 . S
H1532 C1545 0.929 . S
H1533 C1543 0.929 . S
H1534 C1538 0.929 . S
H1535 C1544 0.929 . S
C1536 H1530 0.930 . S
C1536 C1537 1.367 . S
C1536 C1544 1.378 . S
C1537 C1536 1.367 . S
C1537 C1545 1.433 . S
C1538 H1534 0.929 . S
C1538 C1540 1.378 . S
C1538 C1542 1.350 1_455 S
C1539 C1542 1.463 . S
C1539 C1544 1.350 . S
C1539 N1547 1.427 . S
C1540 H1531 0.930 . S
C1540 C1538 1.378 . S
C1540 C1541 1.367 . S
C1541 C1540 1.367 . S
C1541 C1543 1.433 . S
C1542 C1538 1.350 1_655 S
C1542 C1539 1.463 . S
C1542 N1546 1.429 1_655 S
C1543 H1533 0.929 . S
C1543 C1541 1.433 . S
C1543 N1546 1.379 . S
C1544 H1535 0.929 . S
C1544 C1536 1.378 . S
C1544 C1539 1.350 . S
C1545 H1532 0.929 . S
C1545 C1537 1.433 . S
C1545 N1547 1.384 . S
N1546 C1542 1.429 1_455 S
N1546 C1543 1.379 . S
N1547 C1539 1.427 . S
N1547 C1545 1.384 . S
H1548 C1554 0.930 1_554 S
H1549 C1558 0.930 . S
H1550 C1563 0.929 . S
H1551 C1561 0.929 . S
H1552 C1556 0.929 . S
H1553 C1562 0.929 . S
C1554 H1548 0.930 1_556 S
C1554 C1555 1.367 . S
C1554 C1562 1.378 . S
C1555 C1554 1.367 . S
C1555 C1563 1.433 . S
C1556 H1552 0.929 . S
C1556 C1558 1.378 . S
C1556 C1560 1.350 . S
C1557 C1560 1.463 . S
C1557 C1562 1.350 . S
C1557 N1565 1.427 . S
C1558 H1549 0.930 . S
C1558 C1556 1.378 . S
C1558 C1559 1.367 . S
C1559 C1558 1.367 . S
C1559 C1561 1.433 . S
C1560 C1556 1.350 . S
C1560 C1557 1.463 . S
C1560 N1564 1.427 . S
C1561 H1551 0.929 . S
C1561 C1559 1.433 . S
C1561 N1564 1.384 . S
C1562 H1553 0.929 . S
C1562 C1554 1.378 . S
C1562 C1557 1.350 . S
C1563 H1550 0.929 . S
C1563 C1555 1.433 . S
C1563 N1565 1.384 . S
N1564 C1560 1.427 . S
N1564 C1561 1.384 . S
N1565 C1557 1.427 . S
N1565 C1563 1.384 . S
H1566 C1572 0.930 . S
H1567 C1576 0.930 . S
H1568 C1581 0.929 1_554 S
H1569 C1579 0.929 . S
H1570 C1574 0.929 1_545 S
H1571 C1580 0.929 . S
C1572 H1566 0.930 . S
C1572 C1573 1.367 . S
C1572 C1580 1.378 . S
C1573 C1572 1.367 . S
C1573 C1581 1.433 . S
C1574 H1570 0.929 1_565 S
C1574 C1576 1.378 . S
C1574 C1578 1.350 1_564 S
C1575 C1578 1.463 . S
C1575 C1580 1.350 . S
C1575 N1583 1.427 . S
C1576 H1567 0.930 . S
C1576 C1574 1.378 . S
C1576 C1577 1.367 1_554 S
C1577 C1576 1.367 1_556 S
C1577 C1579 1.433 . S
C1578 C1574 1.350 1_546 S
C1578 C1575 1.463 . S
C1578 N1582 1.427 1_545 S
C1579 H1569 0.929 . S
C1579 C1577 1.433 . S
C1579 N1582 1.384 . S
C1580 H1571 0.929 . S
C1580 C1572 1.378 . S
C1580 C1575 1.350 . S
C1581 H1568 0.929 1_556 S
C1581 C1573 1.433 . S
C1581 N1583 1.384 . S
N1582 C1578 1.427 1_565 S
N1582 C1579 1.384 . S
N1583 C1575 1.427 . S
N1583 C1581 1.384 . S
H1584 C1590 0.930 . S
H1585 C1594 0.945 . S
H1586 C1599 0.929 . S
H1587 C1597 0.929 . S
H1588 C1592 0.929 1_554 S
H1589 C1598 0.929 . S
C1590 H1584 0.930 . S
C1590 C1591 1.367 . S
C1590 C1598 1.378 . S
C1591 C1590 1.367 . S
C1591 C1599 1.433 1_556 S
C1592 H1588 0.929 1_556 S
C1592 C1594 1.378 . S
C1592 C1596 1.350 . S
C1593 C1596 1.463 . S
C1593 C1598 1.350 1_655 S
C1593 N1601 1.426 1_556 S
C1594 H1585 0.945 . S
C1594 C1592 1.378 . S
C1594 C1595 1.367 . S
C1595 C1594 1.367 . S
C1595 C1597 1.433 . S
C1596 C1592 1.350 . S
C1596 C1593 1.463 . S
C1596 N1600 1.427 . S
C1597 H1587 0.929 . S
C1597 C1595 1.433 . S
C1597 N1600 1.384 . S
C1598 H1589 0.929 . S
C1598 C1590 1.378 . S
C1598 C1593 1.350 1_455 S
C1599 H1586 0.929 . S
C1599 C1591 1.433 1_554 S
C1599 N1601 1.376 1_455 S
N1600 C1596 1.427 . S
N1600 C1597 1.384 . S
N1601 C1593 1.426 1_554 S
N1601 C1599 1.376 1_655 S
H1602 C1608 0.930 . S
H1603 C1612 0.930 . S
H1604 C1617 0.929 . S
H1605 C1615 0.929 . S
H1606 C1610 0.929 . S
H1607 C1616 0.929 . S
C1608 H1602 0.930 . S
C1608 C1609 1.367 . S
C1608 C1616 1.378 . S
C1609 C1608 1.367 . S
C1609 C1617 1.433 . S
C1610 H1606 0.929 . S
C1610 C1612 1.378 . S
C1610 C1614 1.350 . S
C1611 C1614 1.463 . S
C1611 C1616 1.350 . S
C1611 N1619 1.427 . S
C1612 H1603 0.930 . S
C1612 C1610 1.378 . S
C1612 C1613 1.367 . S
C1613 C1612 1.367 . S
C1613 C1615 1.433 . S
C1614 C1610 1.350 . S
C1614 C1611 1.463 . S
C1614 N1618 1.427 . S
C1615 H1605 0.929 . S
C1615 C1613 1.433 . S
C1615 N1618 1.384 . S
C1616 H1607 0.929 . S
C1616 C1608 1.378 . S
C1616 C1611 1.350 . S
C1617 H1604 0.929 . S
C1617 C1609 1.433 . S
C1617 N1619 1.384 . S
N1618 C1614 1.427 . S
N1618 C1615 1.384 . S
N1619 C1611 1.427 . S
N1619 C1617 1.384 . S
H1620 C1626 0.930 . S
H1621 C1630 0.930 . S
H1622 C1635 0.929 . S
H1623 C1633 0.929 . S
H1624 C1628 0.929 1_565 S
H1625 C1634 0.929 . S
C1626 H1620 0.930 . S
C1626 C1627 1.367 . S
C1626 C1634 1.378 . S
C1627 C1626 1.367 . S
C1627 C1635 1.433 . S
C1628 H1624 0.929 1_545 S
C1628 C1630 1.378 . S
C1628 C1632 1.350 1_545 S
C1629 C1632 1.463 . S
C1629 C1634 1.350 . S
C1629 N1637 1.427 . S
C1630 H1621 0.930 . S
C1630 C1628 1.378 . S
C1630 C1631 1.367 . S
C1631 C1630 1.367 . S
C1631 C1633 1.433 . S
C1632 C1628 1.350 1_565 S
C1632 C1629 1.463 . S
C1632 N1636 1.427 1_565 S
C1633 H1623 0.929 . S
C1633 C1631 1.433 . S
C1633 N1636 1.384 . S
C1634 H1625 0.929 . S
C1634 C1626 1.378 . S
C1634 C1629 1.350 . S
C1635 H1622 0.929 . S
C1635 C1627 1.433 . S
C1635 N1637 1.384 . S
N1636 C1632 1.427 1_545 S
N1636 C1633 1.384 . S
N1637 C1629 1.427 . S
N1637 C1635 1.384 . S
H1638 C1644 0.930 . S
H1639 C1648 0.930 . S
H1640 C1653 0.929 . S
H1641 C1651 0.929 . S
H1642 C1646 0.929 . S
H1643 C1652 0.929 . S
C1644 H1638 0.930 . S
C1644 C1645 1.367 . S
C1644 C1652 1.378 . S
C1645 C1644 1.367 . S
C1645 C1653 1.433 . S
C1646 H1642 0.929 . S
C1646 C1648 1.378 . S
C1646 C1650 1.350 . S
C1647 C1650 1.463 . S
C1647 C1652 1.350 1_455 S
C1647 N1655 1.427 . S
C1648 H1639 0.930 . S
C1648 C1646 1.378 . S
C1648 C1649 1.367 . S
C1649 C1648 1.367 . S
C1649 C1651 1.433 . S
C1650 C1646 1.350 . S
C1650 C1647 1.463 . S
C1650 N1654 1.427 . S
C1651 H1641 0.929 . S
C1651 C1649 1.433 . S
C1651 N1654 1.384 . S
C1652 H1643 0.929 . S
C1652 C1644 1.378 . S
C1652 C1647 1.350 1_655 S
C1653 H1640 0.929 . S
C1653 C1645 1.433 . S
C1653 N1655 1.384 1_655 S
N1654 C1650 1.427 . S
N1654 C1651 1.384 . S
N1655 C1647 1.427 . S
N1655 C1653 1.384 1_455 S
C1015 C58 1.488 . S
C1019 C574 1.488 . S
C1033 C658 1.488 . S
C1037 C142 1.488 . S
C1051 C742 1.501 . S
C1055 C226 1.501 . S
C1069 C310 1.494 . S
C1073 C826 1.494 . S
C1087 C910 1.488 . S
C1091 C394 1.488 . S
C1105 C994 1.515 . S
C1109 C478 1.515 . S
C1123 C404 1.392 . S
C1127 C68 1.392 . S
C1141 C152 1.392 . S
C1145 C488 1.392 . S
C1159 C320 1.382 . S
C1163 C236 1.385 . S
C1177 C896 1.391 . S
C1181 C560 1.393 . S
C1195 C980 1.390 . S
C1199 C644 1.393 . S
C1213 C728 1.383 . S
C1217 C812 1.383 . S
C1231 C979 1.543 . S
C1235 C56 1.558 . S
C1249 C140 1.558 . S
C1253 C811 1.543 . S
C1267 C224 1.567 . S
C1271 C895 1.550 . S
C1285 C308 1.567 . S
C1289 C643 1.553 . S
C1303 C392 1.560 . S
C1307 C727 1.542 . S
C1321 C559 1.542 . S
C1325 C476 1.559 . S
C1339 C572 1.566 . S
C1343 C487 1.554 . S
C1357 C319 1.543 . S
C1361 C656 1.564 . S
C1375 C740 1.566 . S
C1379 C403 1.546 . S
C1393 C151 1.546 . S
C1397 C824 1.566 . S
C1411 C908 1.567 . S
C1415 C235 1.551 . S
C1429 C67 1.548 . S
C1433 C992 1.567 . S
C1447 C70 1.817 . S
C1451 C655 1.778 1_554 S
C1465 C739 1.780 1_554 S
C1469 C154 1.818 . S
C1483 C571 1.768 1_554 S
C1487 C238 1.816 . S
C1501 C322 1.815 . S
C1505 C991 1.768 . S
C1519 C823 1.771 . S
C1523 C406 1.814 . S
C1537 C490 1.824 . S
C1541 C907 1.780 . S
C1555 C139 1.775 1_556 S
C1559 C562 1.815 . S
C1573 C646 1.815 . S
C1577 C223 1.768 1_556 S
C1591 C55 1.780 1_556 S
C1595 C730 1.824 . S
C1609 C814 1.820 . S
C1613 C475 1.782 . S
C1627 C898 1.814 . S
C1631 C307 1.768 . S
C1645 C391 1.777 . S
C1649 C982 1.824 . S
