# Generated by pormake.
# Topology wkc, (5)-cn, num edge types: 1
# Building blocks:
#     Node 0, Type 0, BuildingBlock: BEQFEK_clean_sbu_0, # of connection points: 5
#     Node 1, Type 0, BuildingBlock: BEQFEK_clean_sbu_0, # of connection points: 5
#     Node 2, Type 0, BuildingBlock: BEQFEK_clean_sbu_0, # of connection points: 5
#     Node 3, Type 0, BuildingBlock: BEQFEK_clean_sbu_0, # of connection points: 5
#     Node 4, Type 0, BuildingBlock: BEQFEK_clean_sbu_0, # of connection points: 5
#     Node 5, Type 0, BuildingBlock: BEQFEK_clean_sbu_0, # of connection points: 5
#     Node 6, Type 0, BuildingBlock: BEQFEK_clean_sbu_0, # of connection points: 5
#     Node 7, Type 0, BuildingBlock: BEQFEK_clean_sbu_0, # of connection points: 5
#     Node 8, Type 0, BuildingBlock: BEQFEK_clean_sbu_0, # of connection points: 5
#     Node 9, Type 0, BuildingBlock: BEQFEK_clean_sbu_0, # of connection points: 5
#     Node 10, Type 0, BuildingBlock: BEQFEK_clean_sbu_0, # of connection points: 5
#     Node 11, Type 0, BuildingBlock: BEQFEK_clean_sbu_0, # of connection points: 5
#     Edge 12, Type (0, 0), BuildingBlock: UVAHIK_clean_linker_0, # of connection points: 2
#     Edge 13, Type (0, 0), BuildingBlock: UVAHIK_clean_linker_0, # of connection points: 2
#     Edge 14, Type (0, 0), BuildingBlock: UVAHIK_clean_linker_0, # of connection points: 2
#     Edge 15, Type (0, 0), BuildingBlock: UVAHIK_clean_linker_0, # of connection points: 2
#     Edge 16, Type (0, 0), BuildingBlock: UVAHIK_clean_linker_0, # of connection points: 2
#     Edge 17, Type (0, 0), BuildingBlock: UVAHIK_clean_linker_0, # of connection points: 2
#     Edge 18, Type (0, 0), BuildingBlock: UVAHIK_clean_linker_0, # of connection points: 2
#     Edge 19, Type (0, 0), BuildingBlock: UVAHIK_clean_linker_0, # of connection points: 2
#     Edge 20, Type (0, 0), BuildingBlock: UVAHIK_clean_linker_0, # of connection points: 2
#     Edge 21, Type (0, 0), BuildingBlock: UVAHIK_clean_linker_0, # of connection points: 2
#     Edge 22, Type (0, 0), BuildingBlock: UVAHIK_clean_linker_0, # of connection points: 2
#     Edge 23, Type (0, 0), BuildingBlock: UVAHIK_clean_linker_0, # of connection points: 2
#     Edge 24, Type (0, 0), BuildingBlock: UVAHIK_clean_linker_0, # of connection points: 2
#     Edge 25, Type (0, 0), BuildingBlock: UVAHIK_clean_linker_0, # of connection points: 2
#     Edge 26, Type (0, 0), BuildingBlock: UVAHIK_clean_linker_0, # of connection points: 2
#     Edge 27, Type (0, 0), BuildingBlock: UVAHIK_clean_linker_0, # of connection points: 2
#     Edge 28, Type (0, 0), BuildingBlock: UVAHIK_clean_linker_0, # of connection points: 2
#     Edge 29, Type (0, 0), BuildingBlock: UVAHIK_clean_linker_0, # of connection points: 2
#     Edge 30, Type (0, 0), BuildingBlock: UVAHIK_clean_linker_0, # of connection points: 2
#     Edge 31, Type (0, 0), BuildingBlock: UVAHIK_clean_linker_0, # of connection points: 2
#     Edge 32, Type (0, 0), BuildingBlock: UVAHIK_clean_linker_0, # of connection points: 2
#     Edge 33, Type (0, 0), BuildingBlock: UVAHIK_clean_linker_0, # of connection points: 2
#     Edge 34, Type (0, 0), BuildingBlock: UVAHIK_clean_linker_0, # of connection points: 2
#     Edge 35, Type (0, 0), BuildingBlock: UVAHIK_clean_linker_0, # of connection points: 2
#     Edge 36, Type (0, 0), BuildingBlock: UVAHIK_clean_linker_0, # of connection points: 2
#     Edge 37, Type (0, 0), BuildingBlock: UVAHIK_clean_linker_0, # of connection points: 2
#     Edge 38, Type (0, 0), BuildingBlock: UVAHIK_clean_linker_0, # of connection points: 2
#     Edge 39, Type (0, 0), BuildingBlock: UVAHIK_clean_linker_0, # of connection points: 2
#     Edge 40, Type (0, 0), BuildingBlock: UVAHIK_clean_linker_0, # of connection points: 2
#     Edge 41, Type (0, 0), BuildingBlock: UVAHIK_clean_linker_0, # of connection points: 2
# Relax obj value: 0.258
# Max RMSD: 0.189
# Mean RMSD: 0.189
data_MOF--net-wkc--node1-BEQFEK_clean_sbu_0--edge1-UVAHIK_clean_linker_0
_symmetry_space_group_name_H-M    P1
_symmetry_Int_Tables_number       1
_symmetry_cell_setting            triclinic
loop_
_symmetry_equiv_pos_as_xyz
'x, y, z'
_cell_length_a     50.682409
_cell_length_b     50.640545
_cell_length_c     55.340029
_cell_angle_alpha  90.006439
_cell_angle_beta   90.005982
_cell_angle_gamma 120.03283
loop_
_atom_site_label
_atom_site_type_symbol
_atom_site_fract_x
_atom_site_fract_y
_atom_site_fract_z
_atom_type_partial_charge
Co0 Co 0.2542 0.36138 0.00832 0.0
Co1 Co 0.25647 0.41498 0.03835 0.0
C2 C 0.19833 0.36632 0.01768 0.0
O3 O 0.21116 0.35217 0.00926 0.0
O4 O 0.21338 0.39144 0.02893 0.0
C5 C 0.24597 0.33077 0.96351 0.0
O6 O 0.23543 0.34862 0.95673 0.0
C7 C 0.24938 0.46709 0.05286 0.0
C8 C 0.28759 0.49097 0.07854 0.0
C9 C 0.26393 0.49269 0.06756 0.0
N10 N 0.26415 0.45131 0.05478 0.0
N11 N 0.28678 0.46557 0.07032 0.0
C12 C 0.22088 0.45646 0.03837 0.0
H13 H 0.22558 0.45431 0.0191 0.0
H14 H 0.21132 0.47182 0.04014 0.0
H15 H 0.20347 0.43354 0.04482 0.0
C16 C 0.30368 0.41419 0.98163 0.0
N17 N 0.28183 0.40225 0.99875 0.0
N18 N 0.28187 0.42465 0.01084 0.0
C19 C 0.30301 0.45149 0.00132 0.0
C20 C 0.3177 0.44577 0.98261 0.0
C21 C 0.31312 0.39596 0.96633 0.0
H22 H 0.30986 0.37558 0.97633 0.0
H23 H 0.29896 0.38843 0.94973 0.0
H24 H 0.33739 0.40979 0.96087 0.0
O25 O 0.26563 0.3537 0.0406 0.0
O26 O 0.26546 0.39084 0.06185 0.0
H27 H 0.32048 0.48797 0.02693 0.0
H28 H 0.32158 0.50004 0.99603 0.0
C29 C 0.30816 0.48192 0.00943 0.0
H30 H 0.28594 0.48076 0.01203 0.0
H31 H 0.30192 0.45813 0.07507 0.0
O32 O 0.2554 0.33247 0.98506 0.0
C33 C 0.26874 0.36752 0.06055 0.0
Co34 Co 0.88166 0.24938 0.17056 0.0
Co35 Co 0.83225 0.24676 0.20584 0.0
C36 C 0.82694 0.19035 0.18263 0.0
O37 O 0.8521 0.20496 0.17134 0.0
O38 O 0.81721 0.20402 0.19609 0.0
C39 C 0.91831 0.23895 0.13535 0.0
O40 O 0.90385 0.21033 0.14239 0.0
C41 C 0.77196 0.23776 0.21644 0.0
C42 C 0.77861 0.25917 0.25241 0.0
C43 C 0.75725 0.2449 0.23424 0.0
N44 N 0.80078 0.24789 0.22359 0.0
N45 N 0.80457 0.26043 0.24518 0.0
C46 C 0.75873 0.22058 0.19341 0.0
H47 H 0.76088 0.23668 0.17896 0.0
H48 H 0.73422 0.20352 0.19579 0.0
H49 H 0.77118 0.20898 0.18742 0.0
C50 C 0.8672 0.29221 0.14523 0.0
N51 N 0.86239 0.27235 0.1632 0.0
N52 N 0.84307 0.2729 0.17876 0.0
C53 C 0.83575 0.29391 0.1716 0.0
C54 C 0.85059 0.30662 0.14999 0.0
C55 C 0.88723 0.29711 0.12387 0.0
H56 H 0.88364 0.27487 0.11727 0.0
H57 H 0.88245 0.3087 0.10892 0.0
H58 H 0.91139 0.31133 0.12945 0.0
O59 O 0.90337 0.2626 0.20227 0.0
O60 O 0.86767 0.25987 0.22717 0.0
H61 H 0.82238 0.30297 0.2061 0.0
H62 H 0.82524 0.32864 0.18235 0.0
C63 C 0.81835 0.30463 0.18664 0.0
H64 H 0.79367 0.2903 0.18282 0.0
H65 H 0.82504 0.27029 0.25482 0.0
O66 O 0.91245 0.25801 0.14535 0.0
C67 C 0.89472 0.26537 0.22331 0.0
Co68 Co 0.63745 0.88571 0.33621 0.0
Co69 Co 0.58598 0.83477 0.36802 0.0
C70 C 0.63403 0.82565 0.34542 0.0
O71 O 0.6476 0.85248 0.33665 0.0
O72 O 0.60959 0.81571 0.35756 0.0
C73 C 0.66668 0.90851 0.29076 0.0
O74 O 0.64933 0.88003 0.28392 0.0
C75 C 0.53437 0.77518 0.38217 0.0
C76 C 0.51301 0.7883 0.41103 0.0
C77 C 0.50985 0.76351 0.39802 0.0
N78 N 0.55086 0.80555 0.38537 0.0
N79 N 0.53817 0.81319 0.40283 0.0
C80 C 0.5432 0.75797 0.3651 0.0
H81 H 0.54422 0.76638 0.34641 0.0
H82 H 0.52741 0.73302 0.36594 0.0
H83 H 0.5663 0.76243 0.36988 0.0
C84 C 0.58292 0.88106 0.31143 0.0
N85 N 0.59599 0.87153 0.3279 0.0
N86 N 0.57444 0.84969 0.34102 0.0
C87 C 0.54704 0.84418 0.333 0.0
C88 C 0.5515 0.86396 0.31409 0.0
C89 C 0.60011 0.90818 0.29535 0.0
H90 H 0.62072 0.92593 0.30472 0.0
H91 H 0.60723 0.90105 0.2788 0.0
H92 H 0.58576 0.91803 0.28989 0.0
O93 O 0.64606 0.90561 0.36828 0.0
O94 O 0.61051 0.86864 0.39086 0.0
H95 H 0.51425 0.82677 0.36155 0.0
H96 H 0.49771 0.81667 0.33166 0.0
C97 C 0.51717 0.82013 0.34308 0.0
H98 H 0.51702 0.79824 0.3442 0.0
H99 H 0.5464 0.83549 0.40886 0.0
O100 O 0.66506 0.91598 0.3124 0.0
C101 C 0.63328 0.89547 0.38867 0.0
Co102 Co 0.74622 0.63465 0.50753 0.0
Co103 Co 0.74707 0.58455 0.54005 0.0
C104 C 0.80445 0.63564 0.51932 0.0
O105 O 0.79005 0.64714 0.50902 0.0
O106 O 0.79058 0.61124 0.53174 0.0
C107 C 0.75342 0.66669 0.46276 0.0
O108 O 0.77079 0.65548 0.45627 0.0
C109 C 0.75691 0.53466 0.5561 0.0
C110 C 0.71999 0.51156 0.58294 0.0
C111 C 0.74351 0.50988 0.57169 0.0
N112 N 0.74162 0.54992 0.55779 0.0
N113 N 0.7198 0.53619 0.57405 0.0
C114 C 0.78468 0.54489 0.54077 0.0
H115 H 0.80185 0.56842 0.54605 0.0
H116 H 0.77883 0.54543 0.52152 0.0
H117 H 0.79497 0.53021 0.54302 0.0
C118 C 0.70074 0.5792 0.48083 0.0
N119 N 0.72139 0.59296 0.49862 0.0
N120 N 0.72254 0.57197 0.51184 0.0
C121 C 0.70316 0.54424 0.5026 0.0
C122 C 0.6886 0.54787 0.48269 0.0
C123 C 0.69081 0.5955 0.46378 0.0
H124 H 0.69003 0.61436 0.47329 0.0
H125 H 0.70744 0.60524 0.44874 0.0
H126 H 0.66796 0.57984 0.4561 0.0
O127 O 0.73336 0.6425 0.53923 0.0
O128 O 0.73374 0.60661 0.56197 0.0
H129 H 0.68781 0.50992 0.53 0.0
H130 H 0.68618 0.49557 0.49977 0.0
C131 C 0.69945 0.51494 0.51223 0.0
H132 H 0.72216 0.51726 0.51481 0.0
H133 H 0.70442 0.54333 0.57875 0.0
O134 O 0.74144 0.66079 0.48367 0.0
C135 C 0.72933 0.6291 0.55949 0.0
Co136 Co 0.10626 0.75013 0.6748 0.0
Co137 Co 0.15694 0.74709 0.70499 0.0
C138 C 0.16674 0.80596 0.68501 0.0
O139 O 0.14019 0.79286 0.67576 0.0
O140 O 0.17646 0.79089 0.69671 0.0
C141 C 0.0843 0.75929 0.63018 0.0
O142 O 0.11282 0.77023 0.6236 0.0
C143 C 0.21586 0.75261 0.71736 0.0
C144 C 0.20269 0.71783 0.74602 0.0
C145 C 0.22736 0.73917 0.73276 0.0
N146 N 0.18569 0.73945 0.72113 0.0
N147 N 0.17799 0.71884 0.73839 0.0
C148 C 0.23309 0.77878 0.70041 0.0
H149 H 0.222 0.77309 0.68238 0.0
H150 H 0.25738 0.78531 0.69877 0.0
H151 H 0.23205 0.79875 0.70736 0.0
C152 C 0.1093 0.70084 0.64773 0.0
N153 N 0.11939 0.72258 0.66496 0.0
N154 N 0.14154 0.72218 0.67708 0.0
C155 C 0.14669 0.70064 0.66762 0.0
C156 C 0.12637 0.68634 0.64876 0.0
C157 C 0.08179 0.69184 0.63234 0.0
H158 H 0.06465 0.69493 0.64244 0.0
H159 H 0.08866 0.70645 0.61598 0.0
H160 H 0.0713 0.6677 0.62648 0.0
O161 O 0.08704 0.73855 0.70711 0.0
O162 O 0.12325 0.73649 0.72823 0.0
H163 H 0.16506 0.68403 0.69451 0.0
H164 H 0.17401 0.6788 0.66386 0.0
C165 C 0.171 0.69432 0.67622 0.0
H166 H 0.19295 0.716 0.67736 0.0
H167 H 0.1558 0.70525 0.7448 0.0
O168 O 0.07632 0.74928 0.65156 0.0
C169 C 0.09697 0.73392 0.72689 0.0
Co170 Co 0.35696 0.10553 0.84082 0.0
Co171 Co 0.41028 0.1561 0.8713 0.0
C172 C 0.36063 0.1654 0.85221 0.0
O173 O 0.34741 0.13898 0.84267 0.0
O174 O 0.38558 0.17529 0.8637 0.0
C175 C 0.32703 0.08481 0.79579 0.0
O176 O 0.34516 0.11344 0.78971 0.0
C177 C 0.46254 0.21505 0.88509 0.0
C178 C 0.48589 0.20133 0.91179 0.0
C179 C 0.48796 0.22639 0.89995 0.0
N180 N 0.44648 0.18461 0.88774 0.0
N181 N 0.46039 0.17657 0.90387 0.0
C182 C 0.45227 0.23256 0.86976 0.0
H183 H 0.44721 0.22296 0.85121 0.0
H184 H 0.46908 0.25727 0.8692 0.0
H185 H 0.43084 0.22974 0.87747 0.0
C186 C 0.40985 0.11012 0.81332 0.0
N187 N 0.39782 0.1195 0.83079 0.0
N188 N 0.42015 0.14182 0.84298 0.0
C189 C 0.447 0.14791 0.83326 0.0
C190 C 0.44139 0.12792 0.81422 0.0
C191 C 0.39179 0.08256 0.79783 0.0
H192 H 0.37145 0.06522 0.80772 0.0
H193 H 0.38427 0.08933 0.7813 0.0
H194 H 0.40576 0.07234 0.79224 0.0
O195 O 0.34941 0.0854 0.87279 0.0
O196 O 0.38751 0.12172 0.894 0.0
H197 H 0.48277 0.16651 0.85949 0.0
H198 H 0.49579 0.17729 0.82873 0.0
C199 C 0.47739 0.17286 0.84175 0.0
H200 H 0.47658 0.19416 0.84401 0.0
H201 H 0.45267 0.15411 0.90923 0.0
O202 O 0.32824 0.07618 0.81713 0.0
C203 C 0.36405 0.09524 0.89255 0.0
Co204 Co 0.63921 0.74963 0.81783 0.0
Co205 Co 0.58607 0.74605 0.78628 0.0
C206 C 0.63566 0.80536 0.80581 0.0
O207 O 0.64871 0.79256 0.8162 0.0
O208 O 0.61133 0.78995 0.79366 0.0
C209 C 0.67001 0.75887 0.86282 0.0
O210 O 0.65255 0.76993 0.8694 0.0
C211 C 0.53202 0.75099 0.77286 0.0
C212 C 0.51421 0.71903 0.74202 0.0
C213 C 0.5087 0.73851 0.75589 0.0
N214 N 0.5502 0.73901 0.76935 0.0
N215 N 0.53944 0.72005 0.75082 0.0
C216 C 0.5375 0.77466 0.79151 0.0
H217 H 0.56164 0.78713 0.79714 0.0
H218 H 0.52352 0.76345 0.80775 0.0
H219 H 0.53083 0.79099 0.78443 0.0
C220 C 0.58608 0.70084 0.84468 0.0
N221 N 0.59818 0.72256 0.82744 0.0
N222 N 0.57593 0.72176 0.81458 0.0
C223 C 0.54902 0.69983 0.82341 0.0
C224 C 0.55457 0.68584 0.84275 0.0
C225 C 0.60423 0.69209 0.86075 0.0
H226 H 0.62456 0.6948 0.85103 0.0
H227 H 0.61183 0.70713 0.87686 0.0
H228 H 0.59041 0.66811 0.86696 0.0
O229 O 0.64702 0.73705 0.78591 0.0
O230 O 0.60882 0.73396 0.76401 0.0
H231 H 0.51631 0.68314 0.79474 0.0
H232 H 0.49952 0.67551 0.82462 0.0
C233 C 0.51863 0.69228 0.81331 0.0
H234 H 0.51714 0.7133 0.81237 0.0
H235 H 0.54931 0.70769 0.74419 0.0
O236 O 0.6679 0.74874 0.84147 0.0
C237 C 0.63251 0.73145 0.76601 0.0
Co238 Co 0.88531 0.6355 0.98705 0.0
Co239 Co 0.83691 0.58665 0.95215 0.0
C240 C 0.83031 0.63822 0.97282 0.0
O241 O 0.85519 0.64939 0.9846 0.0
O242 O 0.82108 0.61435 0.95993 0.0
C243 C 0.91358 0.67637 0.02786 0.0
O244 O 0.88991 0.68038 0.02761 0.0
C245 C 0.7772 0.53478 0.93913 0.0
C246 C 0.78763 0.52016 0.90452 0.0
C247 C 0.76432 0.51318 0.92086 0.0
N248 N 0.80681 0.55332 0.93392 0.0
N249 N 0.81285 0.54457 0.91316 0.0
C250 C 0.76148 0.53882 0.96053 0.0
H251 H 0.77414 0.5626 0.96724 0.0
H252 H 0.76048 0.52368 0.9754 0.0
H253 H 0.73781 0.53272 0.95579 0.0
C254 C 0.87094 0.57944 0.01441 0.0
N255 N 0.86642 0.59352 0.99553 0.0
N256 N 0.84707 0.57279 0.98043 0.0
C257 C 0.83932 0.54485 0.98889 0.0
C258 C 0.85397 0.54814 0.0108 0.0
C259 C 0.89072 0.59577 0.03564 0.0
H260 H 0.88547 0.61335 0.04211 0.0
H261 H 0.88722 0.57995 0.05075 0.0
H262 H 0.91497 0.60739 0.02998 0.0
O263 O 0.90771 0.6435 0.95577 0.0
O264 O 0.87314 0.60827 0.93149 0.0
H265 H 0.82687 0.49824 0.98086 0.0
H266 H 0.79664 0.50683 0.97813 0.0
C267 C 0.82127 0.51581 0.97499 0.0
H268 H 0.82602 0.52001 0.95541 0.0
H269 H 0.83428 0.55514 0.90497 0.0
O270 O 0.91574 0.65926 0.01213 0.0
C271 C 0.89982 0.63062 0.93515 0.0
Co272 Co 0.24821 0.89079 0.15498 0.0
Co273 Co 0.25369 0.8425 0.12335 0.0
C274 C 0.19348 0.83118 0.14193 0.0
O275 O 0.20548 0.85695 0.15249 0.0
O276 O 0.20965 0.82283 0.13019 0.0
C277 C 0.23518 0.91256 0.19866 0.0
O278 O 0.22054 0.88358 0.2047 0.0
C279 C 0.24952 0.78416 0.11165 0.0
C280 C 0.27867 0.79592 0.07915 0.0
C281 C 0.26042 0.77201 0.09446 0.0
N282 N 0.26104 0.81392 0.10674 0.0
N283 N 0.27843 0.82082 0.08732 0.0
C284 C 0.22639 0.76766 0.13102 0.0
H285 H 0.22909 0.78364 0.14581 0.0
H286 H 0.22806 0.74826 0.13842 0.0
H287 H 0.20329 0.75847 0.12316 0.0
C288 C 0.29505 0.88503 0.18374 0.0
N289 N 0.27507 0.87681 0.16527 0.0
N290 N 0.27699 0.8562 0.15205 0.0
C291 C 0.29804 0.85053 0.16174 0.0
C292 C 0.31005 0.86847 0.18218 0.0
C293 C 0.29945 0.90811 0.20258 0.0
H294 H 0.30152 0.92876 0.19382 0.0
H295 H 0.27926 0.8983 0.2146 0.0
H296 H 0.31983 0.91458 0.2139 0.0
O297 O 0.26151 0.91169 0.12315 0.0
O298 O 0.26569 0.87723 0.10125 0.0
H299 H 0.31278 0.83569 0.13094 0.0
H300 H 0.3295 0.83334 0.15899 0.0
C301 C 0.30839 0.83038 0.15045 0.0
H302 H 0.29017 0.80623 0.15237 0.0
H303 H 0.28999 0.8425 0.07956 0.0
O304 O 0.24864 0.92051 0.17834 0.0
C305 C 0.26774 0.90322 0.10331 0.0
Co306 Co 0.36157 0.25213 0.32191 0.0
Co307 Co 0.40734 0.2485 0.28596 0.0
C308 C 0.35771 0.19254 0.30927 0.0
O309 O 0.34743 0.20771 0.32013 0.0
O310 O 0.38125 0.20559 0.29586 0.0
C311 C 0.31488 0.23964 0.35814 0.0
O312 O 0.29995 0.21177 0.34948 0.0
C313 C 0.45462 0.23704 0.26667 0.0
C314 C 0.47626 0.27334 0.23914 0.0
C315 C 0.47838 0.24991 0.25015 0.0
N316 N 0.43963 0.25263 0.26584 0.0
N317 N 0.45238 0.274 0.2491 0.0
C318 C 0.44527 0.20971 0.28238 0.0
H319 H 0.42103 0.19293 0.27881 0.0
H320 H 0.44731 0.21648 0.30167 0.0
H321 H 0.45886 0.19849 0.2788 0.0
C322 C 0.41961 0.29666 0.34536 0.0
N323 N 0.40403 0.27587 0.32807 0.0
N324 N 0.42343 0.27418 0.31329 0.0
C325 C 0.45206 0.29355 0.32091 0.0
C326 C 0.45059 0.3085 0.34148 0.0
C327 C 0.40501 0.30688 0.36379 0.0
H328 H 0.38828 0.31161 0.35475 0.0
H329 H 0.39261 0.28829 0.37709 0.0
H330 H 0.42192 0.32777 0.3734 0.0
O331 O 0.35131 0.26539 0.2913 0.0
O332 O 0.38294 0.26092 0.26608 0.0
H333 H 0.48296 0.30767 0.29108 0.0
H334 H 0.50088 0.31114 0.32008 0.0
C335 C 0.48019 0.29702 0.3091 0.0
H336 H 0.47782 0.27425 0.30658 0.0
H337 H 0.44528 0.28959 0.24496 0.0
O338 O 0.34007 0.25903 0.34869 0.0
C339 C 0.36189 0.26712 0.27011 0.0
Co340 Co 0.10055 0.3609 0.48386 0.0
Co341 Co 0.15091 0.41374 0.4528 0.0
C342 C 0.16132 0.36597 0.4739 0.0
O343 O 0.13453 0.35193 0.48271 0.0
O344 O 0.17103 0.39077 0.46226 0.0
C345 C 0.07888 0.33106 0.52918 0.0
O346 O 0.10725 0.34923 0.53588 0.0
C347 C 0.20951 0.46639 0.43831 0.0
C348 C 0.19497 0.48688 0.40975 0.0
C349 C 0.22039 0.4906 0.42213 0.0
N350 N 0.17914 0.44932 0.43555 0.0
N351 N 0.17064 0.46154 0.41831 0.0
C352 C 0.22692 0.46091 0.45761 0.0
H353 H 0.2116 0.44785 0.47278 0.0
H354 H 0.24586 0.48282 0.4645 0.0
H355 H 0.23661 0.44734 0.44995 0.0
C356 C 0.10406 0.41427 0.50986 0.0
N357 N 0.1138 0.40198 0.49289 0.0
N358 N 0.13559 0.42413 0.48018 0.0
C359 C 0.1409 0.45116 0.48898 0.0
C360 C 0.121 0.44581 0.508 0.0
C361 C 0.07699 0.3963 0.52582 0.0
H362 H 0.05965 0.37557 0.5163 0.0
H363 H 0.08435 0.38934 0.54233 0.0
H364 H 0.06658 0.41011 0.53137 0.0
O365 O 0.08056 0.35232 0.45183 0.0
O366 O 0.11737 0.38893 0.42988 0.0
H367 H 0.15856 0.48529 0.46139 0.0
H368 H 0.16857 0.50045 0.49171 0.0
C369 C 0.16505 0.48148 0.47965 0.0
H370 H 0.18687 0.48159 0.47819 0.0
H371 H 0.14814 0.45281 0.41267 0.0
O372 O 0.07098 0.33236 0.50761 0.0
C373 C 0.09082 0.36565 0.43165 0.0
Co374 Co 0.7416 0.10411 0.64921 0.0
Co375 Co 0.73937 0.15325 0.61655 0.0
C376 C 0.79787 0.16374 0.63736 0.0
O377 O 0.78472 0.13763 0.64743 0.0
O378 O 0.78287 0.17296 0.62504 0.0
C379 C 0.75016 0.0842 0.69511 0.0
O380 O 0.76058 0.11285 0.70108 0.0
C381 C 0.74611 0.21185 0.60189 0.0
C382 C 0.71099 0.19788 0.57345 0.0
C383 C 0.73283 0.22304 0.58603 0.0
N384 N 0.73266 0.18152 0.59882 0.0
N385 N 0.71198 0.17335 0.58159 0.0
C386 C 0.76875 0.2289 0.62145 0.0
H387 H 0.79209 0.23934 0.61384 0.0
H388 H 0.76669 0.2132 0.63625 0.0
H389 H 0.76532 0.24734 0.62885 0.0
C390 C 0.69275 0.1095 0.67498 0.0
N391 N 0.71446 0.11829 0.65782 0.0
N392 N 0.71421 0.13968 0.64447 0.0
C393 C 0.69281 0.14563 0.65302 0.0
C394 C 0.67844 0.12664 0.6726 0.0
C395 C 0.68351 0.08295 0.69159 0.0
H396 H 0.68653 0.06511 0.68256 0.0
H397 H 0.69799 0.09079 0.70801 0.0
H398 H 0.65936 0.07295 0.69724 0.0
O399 O 0.72921 0.08264 0.61773 0.0
O400 O 0.72908 0.11843 0.59461 0.0
H401 H 0.67681 0.1625 0.62449 0.0
H402 H 0.67086 0.17306 0.65438 0.0
C403 C 0.68665 0.16942 0.64286 0.0
H404 H 0.70831 0.19133 0.64146 0.0
H405 H 0.69796 0.1509 0.57584 0.0
O406 O 0.74061 0.07543 0.67373 0.0
C407 C 0.72554 0.09186 0.59725 0.0
C408 C 0.31376 0.16966 0.84727 0.0
C409 C 0.34514 0.18359 0.85224 0.0
C410 C 0.29799 0.18528 0.85157 0.0
C411 C 0.30724 0.26103 0.86648 0.0
H412 H 0.23971 0.21473 0.91024 0.0
C413 C 0.25433 0.2874 0.95393 0.0
C414 C 0.24956 0.31096 0.94585 0.0
C415 C 0.25995 0.26997 0.93745 0.0
C416 C 0.25828 0.22784 0.89782 0.0
H417 H 0.385 0.22575 0.86334 0.0
H418 H 0.35758 0.25286 0.87092 0.0
H419 H 0.262 0.18897 0.8882 0.0
H420 H 0.24628 0.33438 0.91417 0.0
H421 H 0.25675 0.3041 0.88528 0.0
H422 H 0.3045 0.30023 0.87722 0.0
C423 C 0.3451 0.22988 0.86379 0.0
C424 C 0.27087 0.21307 0.88502 0.0
C425 C 0.3608 0.21421 0.85968 0.0
C426 C 0.2498 0.31629 0.9209 0.0
C427 C 0.25588 0.29909 0.90439 0.0
C428 C 0.29447 0.27578 0.87917 0.0
C429 C 0.31336 0.21521 0.86064 0.0
C430 C 0.29621 0.22972 0.86991 0.0
C431 C 0.26127 0.27595 0.91256 0.0
C432 C 0.27064 0.25949 0.89565 0.0
H433 H 0.30102 0.14613 0.84137 0.0
H434 H 0.27357 0.17353 0.84873 0.0
H435 H 0.32659 0.27436 0.85479 0.0
H436 H 0.2542 0.28272 0.97304 0.0
H437 H 0.26444 0.25255 0.94429 0.0
C438 C 0.14677 0.31981 0.01921 0.0
C439 C 0.16485 0.35166 0.01734 0.0
C440 C 0.11583 0.3064 0.02493 0.0
C441 C 0.06779 0.32836 0.05861 0.0
H442 H 0.0032 0.24629 0.04384 0.0
C443 C 0.95324 0.27878 0.1063 0.0
C444 C 0.94167 0.24947 0.11616 0.0
C445 C 0.97668 0.28989 0.08936 0.0
C446 C 0.02109 0.26923 0.04812 0.0
H447 H 0.16426 0.39413 0.01684 0.0
H448 H 0.11011 0.37072 0.02594 0.0
H449 H 0.05088 0.26875 0.0208 0.0
H450 H 0.94471 0.20826 0.11515 0.0
H451 H 0.98648 0.2281 0.08587 0.0
H452 H 0.03874 0.32877 0.08625 0.0
C453 C 0.11995 0.35615 0.02403 0.0
C454 C 0.04832 0.2821 0.03493 0.0
C455 C 0.15092 0.36957 0.01873 0.0
C456 C 0.95326 0.231 0.10795 0.0
C457 C 0.977 0.24227 0.09106 0.0
C458 C 0.04072 0.31561 0.07165 0.0
C459 C 0.10245 0.32463 0.02854 0.0
C460 C 0.0721 0.31174 0.04023 0.0
C461 C 0.9894 0.27211 0.08203 0.0
C462 C 0.01716 0.28582 0.06676 0.0
H463 H 0.15697 0.30547 0.0182 0.0
H464 H 0.10308 0.28208 0.0283 0.0
H465 H 0.08585 0.35088 0.06371 0.0
H466 H 0.94457 0.29346 0.11193 0.0
H467 H 0.98532 0.31274 0.08237 0.0
C468 C 0.7793 0.14083 0.18986 0.0
C469 C 0.80976 0.15667 0.18207 0.0
C470 C 0.7644 0.10935 0.19336 0.0
C471 C 0.7829 0.0527 0.21291 0.0
H472 H 0.69606 0.9979 0.20481 0.0
C473 C 0.68094 0.9272 0.24819 0.0
C474 C 0.68617 0.93221 0.27316 0.0
C475 C 0.69795 0.95068 0.23175 0.0
C476 C 0.72044 0.01267 0.20683 0.0
H477 H 0.84785 0.15169 0.17023 0.0
H478 H 0.82178 0.0965 0.17671 0.0
H479 H 0.72119 0.04627 0.18286 0.0
H480 H 0.71406 0.96517 0.30046 0.0
H481 H 0.74386 0.0059 0.27185 0.0
H482 H 0.78185 0.01984 0.23782 0.0
C483 C 0.80954 0.10857 0.1801 0.0
C484 C 0.73476 0.04041 0.1944 0.0
C485 C 0.82438 0.1401 0.17631 0.0
C486 C 0.70944 0.96067 0.28133 0.0
C487 C 0.72668 0.98391 0.26493 0.0
C488 C 0.76854 0.02511 0.22547 0.0
C489 C 0.77971 0.09306 0.18935 0.0
C490 C 0.76591 0.06116 0.19799 0.0
C491 C 0.72081 0.97933 0.24002 0.0
C492 C 0.73698 0.00535 0.22321 0.0
H493 H 0.76734 0.15293 0.19425 0.0
H494 H 0.74152 0.09813 0.20071 0.0
H495 H 0.80688 0.0683 0.2162 0.0
H496 H 0.66309 0.90549 0.24139 0.0
H497 H 0.69301 0.9466 0.21263 0.0
C498 C 0.75329 0.68561 0.42077 0.0
C499 C 0.74488 0.68316 0.44526 0.0
C500 C 0.7427 0.69896 0.40407 0.0
C501 C 0.67951 0.71412 0.39625 0.0
H502 H 0.73106 0.77522 0.34941 0.0
C503 C 0.63032 0.77482 0.34358 0.0
C504 C 0.64847 0.80669 0.34417 0.0
C505 C 0.64315 0.75655 0.34809 0.0
C506 C 0.71635 0.75808 0.36232 0.0
H507 H 0.71996 0.69402 0.47157 0.0
H508 H 0.70192 0.7174 0.44268 0.0
H509 H 0.75217 0.75036 0.37447 0.0
H510 H 0.69454 0.84458 0.34778 0.0
H511 H 0.71685 0.81283 0.35679 0.0
H512 H 0.64426 0.72275 0.38556 0.0
C513 C 0.7161 0.70847 0.43623 0.0
C514 C 0.72838 0.74371 0.37652 0.0
C515 C 0.72662 0.69523 0.45282 0.0
C516 C 0.68008 0.82 0.34723 0.0
C517 C 0.69286 0.80173 0.3523 0.0
C518 C 0.66757 0.72845 0.38223 0.0
C519 C 0.72346 0.70992 0.41162 0.0
C520 C 0.71027 0.72231 0.39416 0.0
C521 C 0.67425 0.76983 0.35397 0.0
C522 C 0.68599 0.75121 0.36552 0.0
H523 H 0.76737 0.67653 0.4144 0.0
H524 H 0.74875 0.69986 0.3852 0.0
H525 H 0.66484 0.69727 0.40937 0.0
H526 H 0.60594 0.76405 0.34078 0.0
H527 H 0.62832 0.73203 0.34843 0.0
C528 C 0.0324 0.75013 0.62027 0.0
C529 C 0.06104 0.75564 0.61238 0.0
C530 C 0.0094 0.74414 0.60363 0.0
C531 C 0.96838 0.74423 0.56384 0.0
H532 H 0.94922 0.67646 0.52084 0.0
C533 C 0.85432 0.68394 0.51384 0.0
C534 C 0.83815 0.65254 0.51904 0.0
C535 C 0.88574 0.70103 0.51788 0.0
C536 C 0.95451 0.69567 0.53251 0.0
H537 H 0.08839 0.76001 0.58086 0.0
H538 H 0.04776 0.7489 0.55169 0.0
H539 H -0.00278 0.70031 0.54327 0.0
H540 H 0.84271 0.61401 0.53028 0.0
H541 H 0.89726 0.6437 0.53742 0.0
H542 H 0.92499 0.73852 0.55424 0.0
C543 C 0.04332 0.74946 0.57078 0.0
C544 C 0.98204 0.70945 0.5452 0.0
C545 C 0.06653 0.7559 0.58745 0.0
C546 C 0.85439 0.6382 0.52646 0.0
C547 C 0.88577 0.6552 0.5303 0.0
C548 C 0.94098 0.73061 0.55104 0.0
C549 C 0.01444 0.74319 0.57876 0.0
C550 C 0.98865 0.73306 0.5617 0.0
C551 C 0.90158 0.68696 0.52692 0.0
C552 C 0.93324 0.70542 0.53597 0.0
H553 H 0.02753 0.74987 0.63936 0.0
H554 H 0.98724 0.73898 0.61033 0.0
H555 H 0.97309 0.76261 0.57627 0.0
H556 H 0.8425 0.69567 0.50797 0.0
H557 H 0.89743 0.72544 0.5149 0.0
C558 C 0.21528 0.85461 0.6933 0.0
C559 C 0.18527 0.83965 0.68444 0.0
C560 C 0.23093 0.88613 0.69677 0.0
C561 C 0.21326 0.94421 0.71393 0.0
H562 H 0.30088 0.99715 0.70992 0.0
C563 C 0.31465 0.0677 0.75277 0.0
C564 C 0.30782 0.0621 0.77751 0.0
C565 C 0.29824 0.04483 0.73574 0.0
C566 C 0.27632 0.98291 0.71075 0.0
H567 H 0.14909 0.84644 0.67038 0.0
H568 H 0.17643 0.90152 0.6767 0.0
H569 H 0.27637 0.94899 0.68761 0.0
H570 H 0.27769 0.0289 0.80376 0.0
H571 H 0.24884 0.98922 0.77408 0.0
H572 H 0.21341 0.97731 0.73808 0.0
C573 C 0.18769 0.88874 0.6811 0.0
C574 C 0.26234 0.95529 0.69814 0.0
C575 C 0.1721 0.8572 0.67744 0.0
C576 C 0.28351 0.0338 0.78482 0.0
C577 C 0.26684 0.01118 0.76781 0.0
C578 C 0.22725 0.97166 0.72668 0.0
C579 C 0.21685 0.90333 0.69157 0.0
C580 C 0.23082 0.93519 0.70031 0.0
C581 C 0.2744 0.01626 0.74317 0.0
C582 C 0.25902 0.9907 0.7259 0.0
H583 H 0.22622 0.84187 0.69865 0.0
H584 H 0.2533 0.89668 0.70504 0.0
H585 H 0.18896 0.92911 0.71612 0.0
H586 H 0.33337 0.08931 0.74666 0.0
H587 H 0.30447 0.04926 0.71684 0.0
C588 C 0.78292 0.63976 0.96341 0.0
C589 C 0.81288 0.65445 0.97236 0.0
C590 C 0.76787 0.65611 0.95952 0.0
C591 C 0.78601 0.73168 0.94145 0.0
H592 H 0.69882 0.69844 0.94797 0.0
C593 C 0.7135 0.75084 0.87254 0.0
C594 C 0.68978 0.75537 0.88055 0.0
C595 C 0.73072 0.74498 0.88904 0.0
C596 C 0.72328 0.70838 0.94641 0.0
H597 H 0.84988 0.69741 0.9857 0.0
H598 H 0.82362 0.72612 0.9785 0.0
H599 H 0.72362 0.67475 0.96971 0.0
H600 H 0.66593 0.75811 0.91214 0.0
H601 H 0.69579 0.74712 0.94108 0.0
H602 H 0.7854 0.76428 0.91714 0.0
C603 C 0.81187 0.70193 0.97452 0.0
C604 C 0.73741 0.6947 0.95871 0.0
C605 C 0.82683 0.68547 0.9787 0.0
C606 C 0.68415 0.75478 0.90547 0.0
C607 C 0.70112 0.74842 0.92201 0.0
C608 C 0.77184 0.74517 0.92899 0.0
C609 C 0.78256 0.68756 0.9643 0.0
C610 C 0.76873 0.70559 0.95568 0.0
C611 C 0.72433 0.74313 0.91389 0.0
C612 C 0.74019 0.73297 0.9307 0.0
H613 H 0.77145 0.61583 0.95854 0.0
H614 H 0.74541 0.64445 0.95141 0.0
H615 H 0.81014 0.74046 0.93863 0.0
H616 H 0.71841 0.75127 0.85345 0.0
H617 H 0.74821 0.7406 0.88225 0.0
C618 C 0.14101 0.82301 0.14902 0.0
C619 C 0.15992 0.81167 0.14134 0.0
C620 C 0.10958 0.80632 0.14489 0.0
C621 C 0.04645 0.73047 0.12532 0.0
H622 H 0.01781 0.77804 0.09088 0.0
C623 C 0.95893 0.68122 0.04954 0.0
C624 C 0.93702 0.69028 0.04693 0.0
C625 C 0.98141 0.69431 0.06723 0.0
C626 C 0.0251 0.76447 0.10093 0.0
H627 H 0.16036 0.77294 0.125 0.0
H628 H 0.10588 0.74408 0.11768 0.0
H629 H 0.0662 0.80397 0.11238 0.0
H630 H 0.92119 0.71983 0.06115 0.0
H631 H 0.96106 0.7432 0.09201 0.0
H632 H 0.00607 0.69094 0.11273 0.0
C633 C 0.11516 0.76576 0.12697 0.0
C634 C 0.05284 0.77932 0.1133 0.0
C635 C 0.14651 0.78245 0.13098 0.0
C636 C 0.93783 0.71247 0.06267 0.0
C637 C 0.96061 0.72583 0.08031 0.0
C638 C 0.01878 0.71564 0.11292 0.0
C639 C 0.09648 0.77789 0.13319 0.0
C640 C 0.06437 0.76244 0.12481 0.0
C641 C 0.98267 0.71692 0.08268 0.0
C642 C 0.00845 0.73248 0.09981 0.0
H643 H 0.1506 0.84538 0.15721 0.0
H644 H 0.09569 0.81608 0.15012 0.0
H645 H 0.05448 0.71688 0.13442 0.0
H646 H 0.95892 0.66411 0.03779 0.0
H647 H -0.0016 0.68736 0.06831 0.0
C648 C 0.30863 0.14328 0.31399 0.0
C649 C 0.34026 0.15885 0.30992 0.0
C650 C 0.29121 0.11188 0.30977 0.0
C651 C 0.29531 0.04199 0.29689 0.0
H652 H 0.23273 0.02586 0.24937 0.0
C653 C 0.24669 0.96546 0.20782 0.0
C654 C 0.23861 0.93616 0.21606 0.0
C655 C 0.25228 0.98861 0.2242 0.0
C656 C 0.24983 0.02988 0.26287 0.0
H657 H 0.37878 0.15334 0.30071 0.0
H658 H 0.34853 0.09875 0.29338 0.0
H659 H 0.25615 0.07373 0.27181 0.0
H660 H 0.22945 0.90786 0.24787 0.0
H661 H 0.24003 0.94881 0.27667 0.0
H662 H 0.29005 -0.00127 0.28689 0.0
C663 C 0.33709 0.11069 0.29967 0.0
C664 C 0.26306 0.05714 0.27588 0.0
C665 C 0.35442 0.14205 0.30361 0.0
C666 C 0.23553 0.93023 0.24102 0.0
C667 C 0.24166 0.95362 0.25748 0.0
C668 C 0.28184 0.01454 0.28402 0.0
C669 C 0.30519 0.09549 0.30177 0.0
C670 C 0.28676 0.06399 0.29234 0.0
C671 C 0.25034 0.98308 0.24919 0.0
C672 C 0.25984 0.00882 0.26622 0.0
H673 H 0.29707 0.1556 0.31893 0.0
H674 H 0.26668 0.10066 0.31174 0.0
H675 H 0.31338 0.04661 0.3096 0.0
H676 H 0.24915 0.97066 0.18868 0.0
H677 H 0.25933 0.01122 0.21731 0.0
C678 C 0.16682 0.31972 0.47315 0.0
C679 C 0.18037 0.35158 0.47445 0.0
C680 C 0.18453 0.30637 0.46791 0.0
C681 C 0.25559 0.32818 0.43537 0.0
H682 H 0.23637 0.24558 0.45021 0.0
C683 C 0.32044 0.27765 0.38929 0.0
C684 C 0.30221 0.24927 0.37809 0.0
C685 C 0.30812 0.28847 0.40648 0.0
C686 C 0.24195 0.26869 0.44597 0.0
H687 H 0.2232 0.39429 0.47424 0.0
H688 H 0.25433 0.37101 0.46635 0.0
H689 H 0.21106 0.26848 0.47254 0.0
H690 H 0.25714 0.20913 0.37721 0.0
H691 H 0.23531 0.22845 0.40706 0.0
H692 H 0.28589 0.32835 0.40859 0.0
C693 C 0.22993 0.35632 0.4682 0.0
C694 C 0.2275 0.28181 0.45871 0.0
C695 C 0.21217 0.36967 0.47289 0.0
C696 C 0.27171 0.23117 0.38543 0.0
C697 C 0.25928 0.24213 0.40263 0.0
C698 C 0.27011 0.31522 0.42286 0.0
C699 C 0.21615 0.32468 0.4643 0.0
C700 C 0.23386 0.3116 0.45329 0.0
C701 C 0.2772 0.27128 0.41278 0.0
C702 C 0.26321 0.28525 0.42777 0.0
H703 H 0.1423 0.30525 0.47426 0.0
H704 H 0.17307 0.28197 0.46497 0.0
H705 H 0.26051 0.35079 0.43011 0.0
H706 H 0.34413 0.29198 0.38438 0.0
H707 H 0.32261 0.31078 0.41434 0.0
C708 C 0.84606 0.21271 0.62942 0.0
C709 C 0.8315 0.18248 0.63781 0.0
C710 C 0.87754 0.22885 0.62591 0.0
C711 C 0.93673 0.21316 0.60789 0.0
H712 H 0.98841 0.30082 0.61407 0.0
C713 C 0.06041 0.31733 0.57183 0.0
C714 C 0.05564 0.31126 0.54693 0.0
C715 C 0.03712 0.30013 0.58834 0.0
C716 C 0.97451 0.27625 0.61261 0.0
H717 H 0.83887 0.14624 0.65084 0.0
H718 H 0.89395 0.17445 0.64443 0.0
H719 H 0.93992 0.27475 0.63581 0.0
H720 H 0.02342 0.28169 0.51988 0.0
H721 H 0.98305 0.25151 0.54865 0.0
H722 H 0.97055 0.21488 0.58372 0.0
C723 C 0.88088 0.18553 0.64048 0.0
C724 C 0.94671 0.26138 0.6249 0.0
C725 C 0.84937 0.16945 0.64421 0.0
C726 C 0.0277 0.28695 0.53895 0.0
C727 C 0.00468 0.26952 0.55544 0.0
C728 C 0.96437 0.22805 0.59546 0.0
C729 C 0.89512 0.21503 0.63057 0.0
C730 C 0.92708 0.22985 0.62198 0.0
C731 C 0.00895 0.27626 0.58024 0.0
C732 C 0.98299 0.25986 0.59703 0.0
H733 H 0.83298 0.2235 0.62452 0.0
H734 H 0.88778 0.25145 0.61806 0.0
H735 H 0.92202 0.18888 0.60513 0.0
H736 H 0.08171 0.33601 0.57847 0.0
H737 H 0.04095 0.30574 0.60739 0.0
C738 C 0.635 0.85336 0.79659 0.0
C739 C 0.65042 0.83901 0.80591 0.0
C740 C 0.65033 0.88486 0.79308 0.0
C741 C 0.72581 0.9445 0.77692 0.0
H742 H 0.68892 0.99552 0.78055 0.0
C743 C 0.74511 0.06702 0.73815 0.0
C744 C 0.74686 0.06163 0.71344 0.0
C745 C 0.73899 0.04423 0.75517 0.0
C746 C 0.69985 0.98183 0.77983 0.0
H747 H 0.69348 0.84677 0.82054 0.0
H748 H 0.72034 0.90188 0.81412 0.0
H749 H 0.66596 0.94715 0.80253 0.0
H750 H 0.74506 0.02892 0.68725 0.0
H751 H 0.73484 0.98942 0.71691 0.0
H752 H 0.7587 0.97835 0.75317 0.0
C753 C 0.69641 0.88863 0.80945 0.0
C754 C 0.6866 0.95409 0.79226 0.0
C755 C 0.68098 0.8571 0.81316 0.0
C756 C 0.74372 0.03365 0.70617 0.0
C757 C 0.73812 0.01114 0.72317 0.0
C758 C 0.73887 0.97207 0.76435 0.0
C759 C 0.68146 0.90267 0.79869 0.0
C760 C 0.69884 0.93467 0.79019 0.0
C761 C 0.73514 0.01598 0.74777 0.0
C762 C 0.72536 0.99042 0.76498 0.0
H763 H 0.61139 0.84014 0.791 0.0
H764 H 0.63825 0.89497 0.78455 0.0
H765 H 0.73565 0.92995 0.77483 0.0
H766 H 0.74735 0.08838 0.74422 0.0
H767 H 0.73677 0.04846 0.77405 0.0
C768 C 0.25865 0.72561 0.11197 0.0
C769 C 0.2548 0.74061 0.09214 0.0
C770 C 0.25565 0.69681 0.10913 0.0
C771 C 0.26274 0.64879 0.06297 0.0
H772 H 0.22291 0.58459 0.11064 0.0
C773 C 0.25218 0.53113 0.04987 0.0
C774 C 0.25798 0.51825 0.0702 0.0
C775 C 0.24856 0.55658 0.0523 0.0
C776 C 0.23431 0.60238 0.09727 0.0
H777 H 0.24524 0.73774 0.05381 0.0
H778 H 0.23983 0.68729 0.04878 0.0
H779 H 0.22219 0.63218 0.11543 0.0
H780 H 0.26531 0.52218 0.10889 0.0
H781 H 0.2595 0.56702 0.11318 0.0
H782 H 0.27545 0.61944 0.04506 0.0
C783 C 0.24508 0.69769 0.06654 0.0
C784 C 0.23386 0.6296 0.1 0.0
C785 C 0.24803 0.72645 0.06941 0.0
C786 C 0.2604 0.53145 0.09298 0.0
C787 C 0.25686 0.55696 0.09543 0.0
C788 C 0.26327 0.62166 0.06028 0.0
C789 C 0.24914 0.68268 0.08633 0.0
C790 C 0.24824 0.65317 0.08295 0.0
C791 C 0.25112 0.56997 0.07508 0.0
C792 C 0.24923 0.5982 0.07747 0.0
H793 H 0.26529 0.73664 0.12945 0.0
H794 H 0.25959 0.68613 0.1246 0.0
H795 H 0.27448 0.66671 0.04974 0.0
H796 H 0.25132 0.5221 0.03196 0.0
H797 H 0.24404 0.56595 0.03627 0.0
C798 C 0.70973 0.23448 0.25568 0.0
C799 C 0.72619 0.24056 0.23403 0.0
C800 C 0.68101 0.23198 0.25592 0.0
C801 C 0.63434 0.25596 0.22165 0.0
H802 H 0.56904 0.19686 0.26222 0.0
C803 C 0.51558 0.24516 0.22366 0.0
C804 C 0.50366 0.24377 0.24681 0.0
C805 C 0.54103 0.24167 0.22062 0.0
C806 C 0.58713 0.21353 0.25086 0.0
H807 H 0.72602 0.25016 0.19583 0.0
H808 H 0.67555 0.24459 0.19604 0.0
H809 H 0.61686 0.19632 0.25961 0.0
H810 H 0.50989 0.2393 0.28506 0.0
H811 H 0.55385 0.23255 0.27976 0.0
H812 H 0.60473 0.27335 0.2131 0.0
C813 C 0.68475 0.24167 0.21285 0.0
C814 C 0.6145 0.21328 0.24941 0.0
C815 C 0.71348 0.24427 0.21264 0.0
C816 C 0.51773 0.23907 0.2669 0.0
C817 C 0.54304 0.23542 0.26388 0.0
C818 C 0.60694 0.25612 0.22303 0.0
C819 C 0.66828 0.23572 0.23452 0.0
C820 C 0.63854 0.23473 0.23501 0.0
C821 C 0.55508 0.23691 0.24074 0.0
C822 C 0.5832 0.23515 0.23787 0.0
H823 H 0.71916 0.23186 0.27248 0.0
H824 H 0.66916 0.22791 0.273 0.0
H825 H 0.65258 0.27312 0.21069 0.0
H826 H 0.50532 0.24916 0.20793 0.0
H827 H 0.54981 0.24284 0.20257 0.0
C828 C 0.47098 0.71976 0.42224 0.0
C829 C 0.48353 0.73225 0.39963 0.0
C830 C 0.44441 0.69134 0.42384 0.0
C831 C 0.37626 0.64065 0.38836 0.0
H832 H 0.36221 0.58264 0.43945 0.0
C833 C 0.25602 0.5455 0.41342 0.0
C834 C 0.2517 0.51659 0.41915 0.0
C835 C 0.28529 0.57032 0.41029 0.0
C836 C 0.36589 0.59845 0.42492 0.0
H837 H 0.47759 0.7254 0.3609 0.0
H838 H 0.43186 0.67535 0.36365 0.0
H839 H 0.41246 0.62802 0.43507 0.0
H840 H 0.27468 0.49072 0.4249 0.0
H841 H 0.32597 0.53425 0.41966 0.0
H842 H 0.32987 0.61113 0.3781 0.0
C843 C 0.44256 0.6874 0.38019 0.0
C844 C 0.39457 0.62459 0.42257 0.0
C845 C 0.46908 0.71583 0.37861 0.0
C846 C 0.27729 0.5129 0.42131 0.0
C847 C 0.30667 0.5378 0.41816 0.0
C848 C 0.34766 0.61458 0.39071 0.0
C849 C 0.42967 0.675 0.40281 0.0
C850 C 0.39997 0.64616 0.40442 0.0
C851 C 0.31096 0.56678 0.41259 0.0
C852 C 0.342 0.5934 0.40922 0.0
H853 H 0.48149 0.73222 0.4387 0.0
H854 H 0.43482 0.68271 0.44153 0.0
H855 H 0.3795 0.65693 0.37435 0.0
H856 H 0.23672 0.54904 0.41166 0.0
H857 H 0.2878 0.59242 0.40637 0.0
C858 C 0.74771 0.47171 0.5973 0.0
C859 C 0.74959 0.48444 0.57441 0.0
C860 C 0.75016 0.44558 0.59977 0.0
C861 C 0.774 0.39641 0.56839 0.0
H862 H 0.71163 0.33252 0.60806 0.0
C863 C 0.76682 0.27993 0.58632 0.0
C864 C 0.73755 0.25422 0.58452 0.0
C865 C 0.77071 0.30928 0.58567 0.0
C866 C 0.72916 0.35014 0.5969 0.0
H867 H 0.75452 0.47936 0.53605 0.0
H868 H 0.75928 0.434 0.54036 0.0
H869 H 0.71521 0.38228 0.60624 0.0
H870 H 0.68955 0.23887 0.57986 0.0
H871 H 0.69631 0.29004 0.57867 0.0
H872 H 0.78739 0.36383 0.55861 0.0
C873 C 0.75677 0.44467 0.55648 0.0
C874 C 0.73144 0.37874 0.59608 0.0
C875 C 0.75423 0.47076 0.55402 0.0
C876 C 0.71236 0.25832 0.58142 0.0
C877 C 0.71619 0.28757 0.58095 0.0
C878 C 0.77182 0.3678 0.56933 0.0
C879 C 0.75427 0.43154 0.57934 0.0
C880 C 0.75363 0.40206 0.58159 0.0
C881 C 0.74536 0.31334 0.58328 0.0
C882 C 0.74907 0.34426 0.58332 0.0
H883 H 0.74387 0.48173 0.61326 0.0
H884 H 0.74836 0.43608 0.61763 0.0
H885 H 0.79145 0.41405 0.55719 0.0
H886 H 0.78672 0.27742 0.58811 0.0
H887 H 0.79345 0.32876 0.58744 0.0
C888 C 0.27429 0.74466 0.71317 0.0
C889 C 0.25854 0.74405 0.73421 0.0
C890 C 0.30301 0.74729 0.71471 0.0
C891 C 0.36819 0.76923 0.75598 0.0
H892 H 0.38346 0.71598 0.71525 0.0
C893 C 0.46707 0.74596 0.77306 0.0
C894 C 0.48248 0.74342 0.75291 0.0
C895 C 0.44123 0.74878 0.77002 0.0
C896 C 0.37979 0.73136 0.72649 0.0
H897 H 0.25987 0.74493 0.77331 0.0
H898 H 0.31005 0.7493 0.77611 0.0
H899 H 0.33567 0.71606 0.7113 0.0
H900 H 0.48294 0.74168 0.71381 0.0
H901 H 0.43793 0.74688 0.70844 0.0
H902 H 0.41222 0.78424 0.77137 0.0
C903 C 0.30059 0.74851 0.7584 0.0
C904 C 0.35237 0.73139 0.72423 0.0
C905 C 0.27183 0.74582 0.75683 0.0
C906 C 0.47153 0.74371 0.72966 0.0
C907 C 0.44572 0.74656 0.7266 0.0
C908 C 0.39565 0.76922 0.75823 0.0
C909 C 0.3164 0.74905 0.73735 0.0
C910 C 0.34616 0.75015 0.73906 0.0
C911 C 0.43013 0.74889 0.74677 0.0
C912 C 0.40165 0.7501 0.74363 0.0
H913 H 0.26405 0.74225 0.69554 0.0
H914 H 0.31464 0.74771 0.69817 0.0
H915 H 0.36423 0.78425 0.76744 0.0
H916 H 0.47417 0.7446 0.79122 0.0
H917 H 0.42936 0.74984 0.78594 0.0
C918 C 0.71966 0.47725 0.89598 0.0
C919 C 0.73307 0.48691 0.91886 0.0
C920 C 0.69123 0.45093 0.89356 0.0
C921 C 0.62252 0.39612 0.92743 0.0
H922 H 0.61575 0.34 0.8769 0.0
C923 C 0.52603 0.27023 0.92452 0.0
C924 C 0.51368 0.25786 0.90184 0.0
C925 C 0.55139 0.2995 0.92632 0.0
C926 C 0.61706 0.35559 0.89087 0.0
H927 H 0.72753 0.476 0.95709 0.0
H928 H 0.67779 0.43037 0.95294 0.0
H929 H 0.66218 0.38922 0.88042 0.0
H930 H 0.51891 0.26552 0.86318 0.0
H931 H 0.56256 0.31698 0.86626 0.0
H932 H 0.57743 0.36224 0.93803 0.0
C933 C 0.6889 0.44358 0.93692 0.0
C934 C 0.64368 0.38381 0.89288 0.0
C935 C 0.71737 0.46989 0.93932 0.0
C936 C 0.52733 0.27499 0.88094 0.0
C937 C 0.55263 0.30424 0.8827 0.0
C938 C 0.59582 0.36787 0.9254 0.0
C939 C 0.67573 0.4336 0.91398 0.0
C940 C 0.64678 0.40431 0.91126 0.0
C941 C 0.56505 0.31677 0.9054 0.0
C942 C 0.59288 0.34723 0.90717 0.0
H943 H 0.73132 0.4899 0.87989 0.0
H944 H 0.6815 0.44398 0.87567 0.0
H945 H 0.62414 0.41161 0.94162 0.0
H946 H 0.51612 0.25719 0.94086 0.0
H947 H 0.56075 0.30828 0.94403 0.0
C948 C 0.35516 0.27068 0.22573 0.0
C949 C 0.34951 0.27619 0.24955 0.0
C950 C 0.34379 0.27927 0.20616 0.0
C951 C 0.32092 0.33371 0.18771 0.0
H952 H 0.2809 0.27751 0.1347 0.0
C953 C 0.2729 0.3664 0.1056 0.0
C954 C 0.27612 0.35622 0.08274 0.0
C955 C 0.27973 0.35567 0.12659 0.0
C956 C 0.29236 0.29364 0.14918 0.0
H957 H 0.32749 0.29511 0.27148 0.0
H958 H 0.30804 0.31069 0.23706 0.0
H959 H 0.29664 0.26051 0.17028 0.0
H960 H 0.28929 0.32698 0.064 0.0
H961 H 0.30214 0.30904 0.10048 0.0
H962 H 0.31774 0.36721 0.16641 0.0
C963 C 0.32117 0.29953 0.2337 0.0
C964 C 0.3012 0.28381 0.16961 0.0
C965 C 0.33219 0.29051 0.25335 0.0
C966 C 0.28638 0.33513 0.08134 0.0
C967 C 0.29354 0.32467 0.10231 0.0
C968 C 0.31241 0.34368 0.16715 0.0
C969 C 0.32684 0.29392 0.20993 0.0
C970 C 0.31578 0.30382 0.18898 0.0
C971 C 0.29027 0.33476 0.12522 0.0
C972 C 0.29825 0.32384 0.14752 0.0
H973 H 0.36832 0.25961 0.22215 0.0
H974 H 0.34874 0.27495 0.18802 0.0
H975 H 0.33242 0.34968 0.2023 0.0
H976 H 0.26481 0.38246 0.10734 0.0
H977 H 0.27643 0.36357 0.1439 0.0
C978 C 0.04016 0.33357 0.41159 0.0
C979 C 0.07162 0.35402 0.40973 0.0
C980 C 0.02203 0.32314 0.39086 0.0
C981 C 0.02164 0.34155 0.32587 0.0
H982 H 0.9524 0.25935 0.32365 0.0
C983 C 0.94775 0.28817 0.24011 0.0
C984 C 0.91618 0.27468 0.2439 0.0
C985 C 0.96779 0.29721 0.25978 0.0
C986 C 0.97164 0.28238 0.32407 0.0
H987 H 0.10886 0.37903 0.3846 0.0
H988 H 0.0775 0.36013 0.34849 0.0
H989 H 0.98556 0.27602 0.359 0.0
H990 H 0.88087 0.25967 0.27129 0.0
H991 H 0.91579 0.27505 0.30544 0.0
H992 H 0.00775 0.34758 0.29068 0.0
C993 C 0.06658 0.35276 0.36594 0.0
C994 C 0.99056 0.29203 0.34437 0.0
C995 C 0.08463 0.36348 0.38668 0.0
C996 C 0.90507 0.27009 0.26772 0.0
C997 C 0.92502 0.2787 0.28731 0.0
C998 C 0.00291 0.33175 0.30544 0.0
C999 C 0.035 0.33261 0.36775 0.0
C1000 C 0.01561 0.32188 0.34568 0.0
C1001 C 0.95655 0.29245 0.28354 0.0
C1002 C 0.97754 0.3022 0.30449 0.0
H1003 H 0.0294 0.32599 0.42909 0.0
H1004 H -0.00226 0.30808 0.39302 0.0
H1005 H 0.04038 0.36484 0.32634 0.0
H1006 H 0.95701 0.29204 0.22198 0.0
H1007 H 0.99203 0.30767 0.25642 0.0
C1008 C 0.63607 0.90306 0.43355 0.0
C1009 C 0.64459 0.91545 0.4102 0.0
C1010 C 0.64603 0.92201 0.45385 0.0
C1011 C 0.66982 -0.00054 0.47304 0.0
H1012 H 0.70546 0.98165 0.52823 0.0
C1013 C 0.72066 0.08341 0.55255 0.0
C1014 C 0.71708 0.07146 0.576 0.0
C1015 C 0.71262 0.06432 0.53241 0.0
C1016 C 0.69513 0.98674 0.51315 0.0
H1017 H 0.67034 0.95743 0.38989 0.0
H1018 H 0.68726 0.99052 0.42542 0.0
H1019 H 0.68979 0.94819 0.49298 0.0
H1020 H 0.70206 0.03 0.59671 0.0
H1021 H 0.68701 0.99648 0.56162 0.0
H1022 H 0.67414 0.03736 0.49323 0.0
C1023 C 0.67299 0.96613 0.42792 0.0
C1024 C 0.68632 0.96763 0.49292 0.0
C1025 C 0.66342 0.94717 0.40762 0.0
C1026 C 0.70526 0.03994 0.57887 0.0
C1027 C 0.69681 0.02075 0.55871 0.0
C1028 C 0.67821 0.01831 0.49335 0.0
C1029 C 0.6643 0.95373 0.45121 0.0
C1030 C 0.67372 0.97392 0.47265 0.0
C1031 C 0.70036 0.03269 0.53519 0.0
C1032 C 0.69113 0.01231 0.51366 0.0
H1033 H 0.62165 0.87871 0.43615 0.0
H1034 H 0.63886 0.91191 0.47162 0.0
H1035 H 0.65974 0.00455 0.45776 0.0
H1036 H 0.72999 0.10765 0.5497 0.0
H1037 H 0.71633 0.07449 0.51463 0.0
C1038 C 0.72172 0.6687 0.58049 0.0
C1039 C 0.7195 0.63988 0.58066 0.0
C1040 C 0.71285 0.67897 0.60067 0.0
C1041 C 0.66311 0.65201 0.65353 0.0
H1042 H 0.71606 0.73305 0.67932 0.0
C1043 C 0.62368 0.70811 0.72481 0.0
C1044 C 0.64305 0.72146 0.74479 0.0
C1045 C 0.63332 0.69826 0.70487 0.0
C1046 C 0.70113 0.71035 0.67233 0.0
H1047 H 0.70594 0.59916 0.60207 0.0
H1048 H 0.69002 0.61698 0.63712 0.0
H1049 H 0.73232 0.71555 0.64408 0.0
H1050 H 0.68788 0.73529 0.75933 0.0
H1051 H 0.70485 0.71842 0.72421 0.0
H1052 H 0.63182 0.64686 0.68163 0.0
C1053 C 0.69874 0.6316 0.62139 0.0
C1054 C 0.7103 0.70044 0.65211 0.0
C1055 C 0.70799 0.62149 0.60137 0.0
C1056 C 0.6724 0.72502 0.74426 0.0
C1057 C 0.68218 0.71553 0.72413 0.0
C1058 C 0.65376 0.66207 0.67353 0.0
C1059 C 0.70118 0.66047 0.62127 0.0
C1060 C 0.69141 0.67114 0.64257 0.0
C1061 C 0.66265 0.7019 0.70432 0.0
C1062 C 0.6727 0.6913 0.68315 0.0
H1063 H 0.73057 0.68345 0.56485 0.0
H1064 H 0.71474 0.70124 0.60006 0.0
H1065 H 0.64804 0.62939 0.64643 0.0
H1066 H 0.60091 0.70497 0.72465 0.0
H1067 H 0.61791 0.68804 0.68974 0.0
C1068 C 0.05086 0.72709 0.74919 0.0
C1069 C 0.07759 0.7252 0.74878 0.0
C1070 C 0.03251 0.7186 0.76982 0.0
C1071 C 0.98833 0.68167 0.8095 0.0
H1072 H 0.024 0.69694 0.87357 0.0
C1073 C 0.91506 0.6248 0.8934 0.0
C1074 C 0.92163 0.64203 0.91474 0.0
C1075 C 0.93477 0.63583 0.87366 0.0
C1076 C 0.01365 0.69277 0.85583 0.0
H1077 H 0.10596 0.71283 0.76978 0.0
H1078 H 0.07359 0.69728 0.80544 0.0
H1079 H 0.05706 0.71584 0.83828 0.0
H1080 H 0.95428 0.68433 0.93212 0.0
H1081 H 0.98846 0.70394 0.8974 0.0
H1082 H 0.94495 0.6594 0.827 0.0
C1083 C 0.06712 0.70599 0.79005 0.0
C1084 C 0.03262 0.70326 0.83556 0.0
C1085 C 0.0856 0.71473 0.76951 0.0
C1086 C 0.94862 0.67044 0.91598 0.0
C1087 C 0.96827 0.68162 0.8961 0.0
C1088 C 0.96939 0.67138 0.82975 0.0
C1089 C 0.0403 0.70775 0.79046 0.0
C1090 C 0.0202 0.69763 0.81212 0.0
C1091 C 0.96144 0.66453 0.87462 0.0
C1092 C 0.98178 0.67651 0.85317 0.0
H1093 H 0.04415 0.73529 0.7336 0.0
H1094 H 0.01229 0.72074 0.76961 0.0
H1095 H 0.97792 0.67659 0.79176 0.0
H1096 H 0.89461 0.60268 0.89189 0.0
H1097 H 0.92911 0.62172 0.85765 0.0
C1098 C 0.27369 0.94937 0.08144 0.0
C1099 C 0.27759 0.92377 0.0821 0.0
C1100 C 0.28266 0.96833 0.06111 0.0
C1101 C 0.33483 0.9924 0.00957 0.0
H1102 H 0.28014 0.01598 0.98027 0.0
C1103 C 0.37291 0.08338 0.93466 0.0
C1104 C 0.35374 0.07572 0.91436 0.0
C1105 C 0.36338 0.06511 0.9553 0.0
C1106 C 0.29558 0.00948 0.98825 0.0
H1107 H 0.29423 0.8982 0.06201 0.0
H1108 H 0.31016 0.93149 0.0268 0.0
H1109 H 0.26401 0.98368 0.01639 0.0
H1110 H 0.30936 0.04298 0.89997 0.0
H1111 H 0.29262 0.01117 0.93626 0.0
H1112 H 0.36639 0.01814 0.9815 0.0
C1113 C 0.30013 0.93683 0.04197 0.0
C1114 C 0.28647 0.99126 0.00899 0.0
C1115 C 0.29085 0.9177 0.0621 0.0
C1116 C 0.32471 0.04946 0.91526 0.0
C1117 C 0.31503 0.03136 0.93607 0.0
C1118 C 0.34406 0.0109 0.98904 0.0
C1119 C 0.29608 0.96228 0.04123 0.0
C1120 C 0.30596 0.9824 0.01974 0.0
C1121 C 0.33435 0.03896 0.95623 0.0
C1122 C 0.32449 0.0195 0.97811 0.0
H1123 H 0.26347 0.95462 0.09653 0.0
H1124 H 0.27946 0.98794 0.06104 0.0
H1125 H 0.35037 0.98606 0.01759 0.0
H1126 H 0.39543 0.10344 0.93457 0.0
H1127 H 0.37862 0.07161 0.97067 0.0
C1128 C 0.34286 0.46553 0.94264 0.0
C1129 C 0.3435 0.46827 0.96787 0.0
C1130 C 0.36686 0.48735 0.92867 0.0
C1131 C 0.44734 0.54984 0.93232 0.0
H1132 H 0.42697 0.57798 0.87386 0.0
C1133 C 0.53249 0.66025 0.88214 0.0
C1134 C 0.53213 0.65926 0.85682 0.0
C1135 C 0.51055 0.63551 0.89544 0.0
C1136 C 0.43307 0.5701 0.88997 0.0
H1137 H 0.36996 0.4951 0.99848 0.0
H1138 H 0.41151 0.53374 0.97415 0.0
H1139 H 0.38658 0.53723 0.89746 0.0
H1140 H 0.50987 0.63138 0.82544 0.0
H1141 H 0.47128 0.58817 0.84861 0.0
H1142 H 0.49384 0.58323 0.92497 0.0
C1143 C 0.39272 0.51465 0.96506 0.0
C1144 C 0.40993 0.5467 0.90349 0.0
C1145 C 0.36878 0.49277 0.97899 0.0
C1146 C 0.51012 0.63287 0.84497 0.0
C1147 C 0.48811 0.6082 0.85822 0.0
C1148 C 0.47049 0.57336 0.91884 0.0
C1149 C 0.39194 0.51234 0.93972 0.0
C1150 C 0.41676 0.53639 0.92489 0.0
C1151 C 0.4879 0.60938 0.88359 0.0
C1152 C 0.46357 0.58381 0.89758 0.0
H1153 H 0.32357 0.44679 0.93368 0.0
H1154 H 0.36575 0.48465 0.90922 0.0
H1155 H 0.45344 0.54212 0.94852 0.0
H1156 H 0.54934 0.68041 0.89162 0.0
H1157 H 0.51083 0.63717 0.91496 0.0
C1158 C 0.88034 0.52529 0.03344 0.0
C1159 C 0.85317 0.52375 0.02595 0.0
C1160 C 0.87956 0.50196 0.04742 0.0
C1161 C 0.82968 0.42096 0.06353 0.0
H1162 H 0.887 0.44063 0.11624 0.0
C1163 C 0.82281 0.32998 0.13028 0.0
C1164 C 0.85047 0.33154 0.13622 0.0
C1165 C 0.82265 0.35353 0.11726 0.0
C1166 C 0.87103 0.43477 0.10144 0.0
H1167 H 0.80394 0.49695 0.02708 0.0
H1168 H 0.80242 0.45612 0.05172 0.0
H1169 H 0.88754 0.48164 0.09276 0.0
H1170 H 0.8996 0.359 0.13382 0.0
H1171 H 0.89943 0.40002 0.11072 0.0
H1172 H 0.8132 0.37407 0.07223 0.0
C1173 C 0.82436 0.47514 0.0466 0.0
C1174 C 0.87135 0.45825 0.08798 0.0
C1175 C 0.82518 0.49849 0.03259 0.0
C1176 C 0.87798 0.35713 0.12916 0.0
C1177 C 0.87785 0.38072 0.11619 0.0
C1178 C 0.82933 0.39747 0.07703 0.0
C1179 C 0.85155 0.47659 0.05415 0.0
C1180 C 0.85077 0.45162 0.0688 0.0
C1181 C 0.85018 0.37916 0.11005 0.0
C1182 C 0.8501 0.40411 0.09606 0.0
H1183 H 0.9022 0.54434 0.02816 0.0
H1184 H 0.90092 0.50352 0.05257 0.0
H1185 H 0.81383 0.41505 0.04864 0.0
H1186 H 0.80131 0.31041 0.13557 0.0
H1187 H 0.80098 0.35182 0.11303 0.0
C1188 C 0.50637 0.87133 0.31414 0.0
C1189 C 0.52815 0.86776 0.30115 0.0
C1190 C 0.4835 0.87371 0.30201 0.0
C1191 C 0.46227 0.89046 0.24237 0.0
H1192 H 0.38007 0.84438 0.26776 0.0
C1193 C 0.36184 0.89809 0.20064 0.0
C1194 C 0.33453 0.87037 0.19779 0.0
C1195 C 0.38568 0.89935 0.21423 0.0
C1196 C 0.40288 0.85727 0.26039 0.0
H1197 H 0.54388 0.86469 0.26549 0.0
H1198 H 0.5037 0.86862 0.24411 0.0
H1199 H 0.42177 0.84369 0.28908 0.0
H1200 H 0.31037 0.82234 0.20667 0.0
H1201 H 0.35209 0.82431 0.23027 0.0
H1202 H 0.44318 0.9033 0.21329 0.0
C1203 C 0.50436 0.86982 0.26365 0.0
C1204 C 0.42684 0.85717 0.27275 0.0
C1205 C 0.52727 0.86746 0.27583 0.0
C1206 C 0.33124 0.84398 0.20882 0.0
C1207 C 0.35504 0.8452 0.2224 0.0
C1208 C 0.43829 0.89057 0.23001 0.0
C1209 C 0.48202 0.87264 0.27663 0.0
C1210 C 0.45679 0.87361 0.26382 0.0
C1211 C 0.38262 0.87286 0.22513 0.0
C1212 C 0.40829 0.87381 0.23879 0.0
H1213 H 0.50701 0.87221 0.3337 0.0
H1214 H 0.46701 0.87646 0.31252 0.0
H1215 H 0.48513 0.9036 0.23515 0.0
H1216 H 0.36494 0.91863 0.19196 0.0
H1217 H 0.40653 0.92105 0.21617 0.0
C1218 C 0.49933 0.35841 0.34368 0.0
C1219 C 0.4761 0.33273 0.35543 0.0
C1220 C 0.52302 0.38166 0.35696 0.0
C1221 C 0.56099 0.39814 0.41686 0.0
H1222 H 0.59075 0.48239 0.39871 0.0
C1223 C 0.6392 0.49897 0.47863 0.0
C1224 C 0.6644 0.52374 0.46768 0.0
C1225 C 0.61664 0.47579 0.46453 0.0
C1226 C 0.58287 0.45896 0.40385 0.0
H1227 H 0.45926 0.31092 0.39007 0.0
H1228 H 0.5001 0.35186 0.41346 0.0
H1229 H 0.55063 0.44146 0.37487 0.0
H1230 H 0.68571 0.54417 0.43355 0.0
H1231 H 0.64598 0.50375 0.40875 0.0
H1232 H 0.59291 0.41576 0.44608 0.0
C1233 C 0.50049 0.3539 0.39397 0.0
C1234 C 0.55993 0.43549 0.39017 0.0
C1235 C 0.47694 0.3306 0.38064 0.0
C1236 C 0.66638 0.52531 0.44238 0.0
C1237 C 0.64368 0.50224 0.42824 0.0
C1238 C 0.58375 0.42161 0.43062 0.0
C1239 C 0.52382 0.37977 0.3823 0.0
C1240 C 0.54864 0.40477 0.39655 0.0
C1241 C 0.6187 0.47712 0.43919 0.0
C1242 C 0.59486 0.45226 0.4243 0.0
H1243 H 0.49899 0.36065 0.32423 0.0
H1244 H 0.54079 0.40104 0.34735 0.0
H1245 H 0.55327 0.37477 0.42204 0.0
H1246 H 0.63689 0.49758 0.49811 0.0
H1247 H 0.5974 0.45698 0.47346 0.0
C1248 C 0.11723 0.46755 0.54752 0.0
C1249 C 0.1175 0.46856 0.52219 0.0
C1250 C 0.11533 0.48993 0.56093 0.0
C1251 C 0.13189 0.56905 0.55618 0.0
H1252 H 0.08204 0.54976 0.61379 0.0
C1253 C 0.12126 0.66148 0.60873 0.0
C1254 C 0.12247 0.66034 0.634 0.0
C1255 C 0.11833 0.63721 0.59471 0.0
C1256 C 0.09629 0.55554 0.59786 0.0
H1257 H 0.11446 0.49256 0.4909 0.0
H1258 H 0.11137 0.53187 0.51428 0.0
H1259 H 0.08104 0.50862 0.59006 0.0
H1260 H 0.12041 0.63273 0.66459 0.0
H1261 H 0.11617 0.59062 0.64018 0.0
H1262 H 0.1476 0.61591 0.56412 0.0
C1263 C 0.11316 0.51415 0.52381 0.0
C1264 C 0.09568 0.53197 0.58427 0.0
C1265 C 0.11493 0.49172 0.51045 0.0
C1266 C 0.12002 0.63429 0.64508 0.0
C1267 C 0.1172 0.61006 0.6311 0.0
C1268 C 0.1326 0.59259 0.5698 0.0
C1269 C 0.11369 0.5137 0.5492 0.0
C1270 C 0.11356 0.5385 0.56333 0.0
C1271 C 0.11656 0.61133 0.60574 0.0
C1272 C 0.11491 0.58614 0.59085 0.0
H1273 H 0.11924 0.44988 0.55694 0.0
H1274 H 0.11604 0.48912 0.58047 0.0
H1275 H 0.14629 0.57483 0.54033 0.0
H1276 H 0.12303 0.68135 0.59981 0.0
H1277 H 0.11744 0.63872 0.57524 0.0
C1278 C 0.62655 0.12085 0.67516 0.0
C1279 C 0.65252 0.12393 0.68683 0.0
C1280 C 0.60243 0.11919 0.68858 0.0
C1281 C 0.56787 0.10202 0.74933 0.0
H1282 H 0.53322 0.15145 0.72879 0.0
C1283 C 0.4882 0.12357 0.81026 0.0
C1284 C 0.46392 0.12488 0.7993 0.0
C1285 C 0.51001 0.12159 0.79618 0.0
C1286 C 0.54229 0.13714 0.73459 0.0
H1287 H 0.67353 0.12691 0.72153 0.0
H1288 H 0.63128 0.12388 0.74514 0.0
H1289 H 0.57347 0.15121 0.70489 0.0
H1290 H 0.44278 0.12437 0.7652 0.0
H1291 H 0.48053 0.12025 0.74046 0.0
H1292 H 0.53672 0.08795 0.77904 0.0
C1293 C 0.62949 0.12269 0.72562 0.0
C1294 C 0.5654 0.13705 0.7209 0.0
C1295 C 0.65367 0.12449 0.71216 0.0
C1296 C 0.46136 0.12344 0.77404 0.0
C1297 C 0.48312 0.12137 0.75992 0.0
C1298 C 0.54466 0.102 0.76297 0.0
C1299 C 0.60372 0.12031 0.71396 0.0
C1300 C 0.57857 0.11963 0.72819 0.0
C1301 C 0.50786 0.12067 0.77082 0.0
C1302 C 0.53173 0.11972 0.75585 0.0
H1303 H 0.62489 0.11971 0.65563 0.0
H1304 H 0.58267 0.11685 0.6791 0.0
H1305 H 0.57728 0.08803 0.75522 0.0
H1306 H 0.49037 0.12417 0.82976 0.0
H1307 H 0.52888 0.1214 0.80518 0.0
loop_
_geom_bond_atom_site_label_1
_geom_bond_atom_site_label_2
_geom_bond_distance
_geom_bond_site_symmetry_2
_ccdc_geom_bond_type
Co0 O3 1.970 . S
Co0 N17 1.989 1_554 S
Co0 O25 1.967 . S
Co0 O32 1.920 1_554 S
Co1 O4 1.966 . S
Co1 N10 2.022 . S
Co1 N18 1.993 . S
Co1 O26 1.941 . S
C2 O3 1.258 . S
C2 O4 1.263 . S
O3 Co0 1.970 . S
O3 C2 1.258 . S
O4 Co1 1.966 . S
O4 C2 1.263 . S
C5 O6 1.235 . S
C5 O32 1.289 . S
O6 C5 1.235 . S
C7 C9 1.400 . S
C7 N10 1.351 . S
C7 C12 1.501 . S
C8 C9 1.387 . S
C8 N11 1.341 . S
C9 C7 1.400 . S
C9 C8 1.387 . S
N10 Co1 2.022 . S
N10 C7 1.351 . S
N10 N11 1.365 . S
N11 C8 1.341 . S
N11 N10 1.365 . S
N11 H31 0.862 . S
C12 C7 1.501 . S
C12 H13 0.961 . S
C12 H14 0.961 . S
C12 H15 0.960 . S
H13 C12 0.961 . S
H14 C12 0.961 . S
H15 C12 0.960 . S
C16 N17 1.342 . S
C16 C20 1.401 . S
C16 C21 1.499 . S
N17 Co0 1.989 1_556 S
N17 C16 1.342 . S
N17 N18 1.388 1_556 S
N18 Co1 1.993 . S
N18 N17 1.388 1_554 S
N18 C19 1.346 1_554 S
C19 N18 1.346 1_556 S
C19 C20 1.396 . S
C19 C29 1.510 1_556 S
C20 C16 1.401 . S
C20 C19 1.396 . S
C21 C16 1.499 . S
C21 H22 0.959 . S
C21 H23 0.960 . S
C21 H24 0.961 . S
H22 C21 0.959 . S
H23 C21 0.960 . S
H24 C21 0.961 . S
O25 Co0 1.967 . S
O25 C33 1.258 . S
O26 Co1 1.941 . S
O26 C33 1.266 . S
H27 C29 0.960 . S
H28 C29 0.960 1_556 S
C29 C19 1.510 1_554 S
C29 H27 0.960 . S
C29 H28 0.960 1_554 S
C29 H30 0.961 . S
H30 C29 0.961 . S
H31 N11 0.862 . S
O32 Co0 1.920 1_556 S
O32 C5 1.289 . S
C33 O25 1.258 . S
C33 O26 1.266 . S
Co34 O37 1.970 . S
Co34 N51 1.989 . S
Co34 O59 1.967 . S
Co34 O66 1.920 . S
Co35 O38 1.966 . S
Co35 N44 2.022 . S
Co35 N52 1.993 . S
Co35 O60 1.941 . S
C36 O37 1.258 . S
C36 O38 1.263 . S
O37 Co34 1.970 . S
O37 C36 1.258 . S
O38 Co35 1.966 . S
O38 C36 1.263 . S
C39 O40 1.235 . S
C39 O66 1.289 . S
O40 C39 1.235 . S
C41 C43 1.400 . S
C41 N44 1.351 . S
C41 C46 1.501 . S
C42 C43 1.387 . S
C42 N45 1.341 . S
C43 C41 1.400 . S
C43 C42 1.387 . S
N44 Co35 2.022 . S
N44 C41 1.351 . S
N44 N45 1.365 . S
N45 C42 1.341 . S
N45 N44 1.365 . S
N45 H65 0.862 . S
C46 C41 1.501 . S
C46 H47 0.961 . S
C46 H48 0.961 . S
C46 H49 0.960 . S
H47 C46 0.961 . S
H48 C46 0.961 . S
H49 C46 0.960 . S
C50 N51 1.342 . S
C50 C54 1.401 . S
C50 C55 1.499 . S
N51 Co34 1.989 . S
N51 C50 1.342 . S
N51 N52 1.388 . S
N52 Co35 1.993 . S
N52 N51 1.388 . S
N52 C53 1.346 . S
C53 N52 1.346 . S
C53 C54 1.396 . S
C53 C63 1.510 . S
C54 C50 1.401 . S
C54 C53 1.396 . S
C55 C50 1.499 . S
C55 H56 0.959 . S
C55 H57 0.960 . S
C55 H58 0.961 . S
H56 C55 0.959 . S
H57 C55 0.960 . S
H58 C55 0.961 . S
O59 Co34 1.967 . S
O59 C67 1.258 . S
O60 Co35 1.941 . S
O60 C67 1.266 . S
H61 C63 0.959 . S
H62 C63 0.961 . S
C63 C53 1.510 . S
C63 H61 0.959 . S
C63 H62 0.961 . S
C63 H64 0.960 . S
H64 C63 0.960 . S
H65 N45 0.862 . S
O66 Co34 1.920 . S
O66 C39 1.289 . S
C67 O59 1.258 . S
C67 O60 1.266 . S
Co68 O71 1.970 . S
Co68 N85 1.989 . S
Co68 O93 1.967 . S
Co68 O100 1.920 . S
Co69 O72 1.966 . S
Co69 N78 2.022 . S
Co69 N86 1.993 . S
Co69 O94 1.941 . S
C70 O71 1.258 . S
C70 O72 1.263 . S
O71 Co68 1.970 . S
O71 C70 1.258 . S
O72 Co69 1.966 . S
O72 C70 1.263 . S
C73 O74 1.235 . S
C73 O100 1.289 . S
O74 C73 1.235 . S
C75 C77 1.400 . S
C75 N78 1.351 . S
C75 C80 1.501 . S
C76 C77 1.387 . S
C76 N79 1.341 . S
C77 C75 1.400 . S
C77 C76 1.387 . S
N78 Co69 2.022 . S
N78 C75 1.351 . S
N78 N79 1.365 . S
N79 C76 1.341 . S
N79 N78 1.365 . S
N79 H99 0.862 . S
C80 C75 1.501 . S
C80 H81 0.961 . S
C80 H82 0.961 . S
C80 H83 0.960 . S
H81 C80 0.961 . S
H82 C80 0.961 . S
H83 C80 0.960 . S
C84 N85 1.342 . S
C84 C88 1.401 . S
C84 C89 1.499 . S
N85 Co68 1.989 . S
N85 C84 1.342 . S
N85 N86 1.388 . S
N86 Co69 1.993 . S
N86 N85 1.388 . S
N86 C87 1.346 . S
C87 N86 1.346 . S
C87 C88 1.396 . S
C87 C97 1.510 . S
C88 C84 1.401 . S
C88 C87 1.396 . S
C89 C84 1.499 . S
C89 H90 0.959 . S
C89 H91 0.960 . S
C89 H92 0.961 . S
H90 C89 0.959 . S
H91 C89 0.960 . S
H92 C89 0.961 . S
O93 Co68 1.967 . S
O93 C101 1.258 . S
O94 Co69 1.941 . S
O94 C101 1.266 . S
H95 C97 0.959 . S
H96 C97 0.961 . S
C97 C87 1.510 . S
C97 H95 0.959 . S
C97 H96 0.961 . S
C97 H98 0.960 . S
H98 C97 0.960 . S
H99 N79 0.862 . S
O100 Co68 1.920 . S
O100 C73 1.289 . S
C101 O93 1.258 . S
C101 O94 1.266 . S
Co102 O105 1.970 . S
Co102 N119 1.989 . S
Co102 O127 1.967 . S
Co102 O134 1.920 . S
Co103 O106 1.966 . S
Co103 N112 2.022 . S
Co103 N120 1.993 . S
Co103 O128 1.941 . S
C104 O105 1.258 . S
C104 O106 1.263 . S
O105 Co102 1.970 . S
O105 C104 1.258 . S
O106 Co103 1.966 . S
O106 C104 1.263 . S
C107 O108 1.235 . S
C107 O134 1.289 . S
O108 C107 1.235 . S
C109 C111 1.400 . S
C109 N112 1.351 . S
C109 C114 1.501 . S
C110 C111 1.387 . S
C110 N113 1.341 . S
C111 C109 1.400 . S
C111 C110 1.387 . S
N112 Co103 2.022 . S
N112 C109 1.351 . S
N112 N113 1.365 . S
N113 C110 1.341 . S
N113 N112 1.365 . S
N113 H133 0.862 . S
C114 C109 1.501 . S
C114 H115 0.961 . S
C114 H116 0.961 . S
C114 H117 0.960 . S
H115 C114 0.961 . S
H116 C114 0.961 . S
H117 C114 0.960 . S
C118 N119 1.342 . S
C118 C122 1.401 . S
C118 C123 1.499 . S
N119 Co102 1.989 . S
N119 C118 1.342 . S
N119 N120 1.388 . S
N120 Co103 1.993 . S
N120 N119 1.388 . S
N120 C121 1.346 . S
C121 N120 1.346 . S
C121 C122 1.396 . S
C121 C131 1.510 . S
C122 C118 1.401 . S
C122 C121 1.396 . S
C123 C118 1.499 . S
C123 H124 0.959 . S
C123 H125 0.960 . S
C123 H126 0.961 . S
H124 C123 0.959 . S
H125 C123 0.960 . S
H126 C123 0.961 . S
O127 Co102 1.967 . S
O127 C135 1.258 . S
O128 Co103 1.941 . S
O128 C135 1.266 . S
H129 C131 0.959 . S
H130 C131 0.961 . S
C131 C121 1.510 . S
C131 H129 0.959 . S
C131 H130 0.961 . S
C131 H132 0.960 . S
H132 C131 0.960 . S
H133 N113 0.862 . S
O134 Co102 1.920 . S
O134 C107 1.289 . S
C135 O127 1.258 . S
C135 O128 1.266 . S
Co136 O139 1.970 . S
Co136 N153 1.989 . S
Co136 O161 1.967 . S
Co136 O168 1.920 . S
Co137 O140 1.966 . S
Co137 N146 2.022 . S
Co137 N154 1.993 . S
Co137 O162 1.941 . S
C138 O139 1.258 . S
C138 O140 1.263 . S
O139 Co136 1.970 . S
O139 C138 1.258 . S
O140 Co137 1.966 . S
O140 C138 1.263 . S
C141 O142 1.235 . S
C141 O168 1.289 . S
O142 C141 1.235 . S
C143 C145 1.400 . S
C143 N146 1.351 . S
C143 C148 1.501 . S
C144 C145 1.387 . S
C144 N147 1.341 . S
C145 C143 1.400 . S
C145 C144 1.387 . S
N146 Co137 2.022 . S
N146 C143 1.351 . S
N146 N147 1.365 . S
N147 C144 1.341 . S
N147 N146 1.365 . S
N147 H167 0.862 . S
C148 C143 1.501 . S
C148 H149 0.961 . S
C148 H150 0.961 . S
C148 H151 0.960 . S
H149 C148 0.961 . S
H150 C148 0.961 . S
H151 C148 0.960 . S
C152 N153 1.342 . S
C152 C156 1.401 . S
C152 C157 1.499 . S
N153 Co136 1.989 . S
N153 C152 1.342 . S
N153 N154 1.388 . S
N154 Co137 1.993 . S
N154 N153 1.388 . S
N154 C155 1.346 . S
C155 N154 1.346 . S
C155 C156 1.396 . S
C155 C165 1.510 . S
C156 C152 1.401 . S
C156 C155 1.396 . S
C157 C152 1.499 . S
C157 H158 0.959 . S
C157 H159 0.960 . S
C157 H160 0.961 . S
H158 C157 0.959 . S
H159 C157 0.960 . S
H160 C157 0.961 . S
O161 Co136 1.967 . S
O161 C169 1.258 . S
O162 Co137 1.941 . S
O162 C169 1.266 . S
H163 C165 0.959 . S
H164 C165 0.961 . S
C165 C155 1.510 . S
C165 H163 0.959 . S
C165 H164 0.961 . S
C165 H166 0.960 . S
H166 C165 0.960 . S
H167 N147 0.862 . S
O168 Co136 1.920 . S
O168 C141 1.289 . S
C169 O161 1.258 . S
C169 O162 1.266 . S
Co170 O173 1.970 . S
Co170 N187 1.989 . S
Co170 O195 1.967 . S
Co170 O202 1.920 . S
Co171 O174 1.966 . S
Co171 N180 2.022 . S
Co171 N188 1.993 . S
Co171 O196 1.941 . S
C172 O173 1.258 . S
C172 O174 1.263 . S
O173 Co170 1.970 . S
O173 C172 1.258 . S
O174 Co171 1.966 . S
O174 C172 1.263 . S
C175 O176 1.235 . S
C175 O202 1.289 . S
O176 C175 1.235 . S
C177 C179 1.400 . S
C177 N180 1.351 . S
C177 C182 1.501 . S
C178 C179 1.387 . S
C178 N181 1.341 . S
C179 C177 1.400 . S
C179 C178 1.387 . S
N180 Co171 2.022 . S
N180 C177 1.351 . S
N180 N181 1.365 . S
N181 C178 1.341 . S
N181 N180 1.365 . S
N181 H201 0.862 . S
C182 C177 1.501 . S
C182 H183 0.961 . S
C182 H184 0.961 . S
C182 H185 0.960 . S
H183 C182 0.961 . S
H184 C182 0.961 . S
H185 C182 0.960 . S
C186 N187 1.342 . S
C186 C190 1.401 . S
C186 C191 1.499 . S
N187 Co170 1.989 . S
N187 C186 1.342 . S
N187 N188 1.388 . S
N188 Co171 1.993 . S
N188 N187 1.388 . S
N188 C189 1.346 . S
C189 N188 1.346 . S
C189 C190 1.396 . S
C189 C199 1.510 . S
C190 C186 1.401 . S
C190 C189 1.396 . S
C191 C186 1.499 . S
C191 H192 0.959 . S
C191 H193 0.960 . S
C191 H194 0.961 . S
H192 C191 0.959 . S
H193 C191 0.960 . S
H194 C191 0.961 . S
O195 Co170 1.967 . S
O195 C203 1.258 . S
O196 Co171 1.941 . S
O196 C203 1.266 . S
H197 C199 0.959 . S
H198 C199 0.961 . S
C199 C189 1.510 . S
C199 H197 0.959 . S
C199 H198 0.961 . S
C199 H200 0.960 . S
H200 C199 0.960 . S
H201 N181 0.862 . S
O202 Co170 1.920 . S
O202 C175 1.289 . S
C203 O195 1.258 . S
C203 O196 1.266 . S
Co204 O207 1.970 . S
Co204 N221 1.989 . S
Co204 O229 1.967 . S
Co204 O236 1.920 . S
Co205 O208 1.966 . S
Co205 N214 2.022 . S
Co205 N222 1.993 . S
Co205 O230 1.941 . S
C206 O207 1.258 . S
C206 O208 1.263 . S
O207 Co204 1.970 . S
O207 C206 1.258 . S
O208 Co205 1.966 . S
O208 C206 1.263 . S
C209 O210 1.235 . S
C209 O236 1.289 . S
O210 C209 1.235 . S
C211 C213 1.400 . S
C211 N214 1.351 . S
C211 C216 1.501 . S
C212 C213 1.387 . S
C212 N215 1.341 . S
C213 C211 1.400 . S
C213 C212 1.387 . S
N214 Co205 2.022 . S
N214 C211 1.351 . S
N214 N215 1.365 . S
N215 C212 1.341 . S
N215 N214 1.365 . S
N215 H235 0.862 . S
C216 C211 1.501 . S
C216 H217 0.961 . S
C216 H218 0.961 . S
C216 H219 0.960 . S
H217 C216 0.961 . S
H218 C216 0.961 . S
H219 C216 0.960 . S
C220 N221 1.342 . S
C220 C224 1.401 . S
C220 C225 1.499 . S
N221 Co204 1.989 . S
N221 C220 1.342 . S
N221 N222 1.388 . S
N222 Co205 1.993 . S
N222 N221 1.388 . S
N222 C223 1.346 . S
C223 N222 1.346 . S
C223 C224 1.396 . S
C223 C233 1.510 . S
C224 C220 1.401 . S
C224 C223 1.396 . S
C225 C220 1.499 . S
C225 H226 0.959 . S
C225 H227 0.960 . S
C225 H228 0.961 . S
H226 C225 0.959 . S
H227 C225 0.960 . S
H228 C225 0.961 . S
O229 Co204 1.967 . S
O229 C237 1.258 . S
O230 Co205 1.941 . S
O230 C237 1.266 . S
H231 C233 0.959 . S
H232 C233 0.961 . S
C233 C223 1.510 . S
C233 H231 0.959 . S
C233 H232 0.961 . S
C233 H234 0.960 . S
H234 C233 0.960 . S
H235 N215 0.862 . S
O236 Co204 1.920 . S
O236 C209 1.289 . S
C237 O229 1.258 . S
C237 O230 1.266 . S
Co238 O241 1.970 . S
Co238 N255 1.989 . S
Co238 O263 1.967 . S
Co238 O270 1.920 . S
Co239 O242 1.966 . S
Co239 N248 2.022 . S
Co239 N256 1.993 . S
Co239 O264 1.941 . S
C240 O241 1.258 . S
C240 O242 1.263 . S
O241 Co238 1.970 . S
O241 C240 1.258 . S
O242 Co239 1.966 . S
O242 C240 1.263 . S
C243 O244 1.235 . S
C243 O270 1.289 1_554 S
O244 C243 1.235 . S
C245 C247 1.400 . S
C245 N248 1.351 . S
C245 C250 1.501 . S
C246 C247 1.387 . S
C246 N249 1.341 . S
C247 C245 1.400 . S
C247 C246 1.387 . S
N248 Co239 2.022 . S
N248 C245 1.351 . S
N248 N249 1.365 . S
N249 C246 1.341 . S
N249 N248 1.365 . S
N249 H269 0.862 . S
C250 C245 1.501 . S
C250 H251 0.961 . S
C250 H252 0.961 . S
C250 H253 0.960 . S
H251 C250 0.961 . S
H252 C250 0.961 . S
H253 C250 0.960 . S
C254 N255 1.342 1_554 S
C254 C258 1.401 . S
C254 C259 1.499 . S
N255 Co238 1.989 . S
N255 C254 1.342 1_556 S
N255 N256 1.388 . S
N256 Co239 1.993 . S
N256 N255 1.388 . S
N256 C257 1.346 . S
C257 N256 1.346 . S
C257 C258 1.396 1_556 S
C257 C267 1.510 . S
C258 C254 1.401 . S
C258 C257 1.396 1_554 S
C259 C254 1.499 . S
C259 H260 0.959 . S
C259 H261 0.960 . S
C259 H262 0.961 . S
H260 C259 0.959 . S
H261 C259 0.960 . S
H262 C259 0.961 . S
O263 Co238 1.967 . S
O263 C271 1.258 . S
O264 Co239 1.941 . S
O264 C271 1.266 . S
H265 C267 0.959 . S
H266 C267 0.961 1_554 S
C267 C257 1.510 . S
C267 H265 0.959 . S
C267 H266 0.961 1_556 S
C267 H268 0.960 . S
H268 C267 0.960 . S
H269 N249 0.862 . S
O270 Co238 1.920 . S
O270 C243 1.289 1_556 S
C271 O263 1.258 . S
C271 O264 1.266 . S
Co272 O275 1.970 . S
Co272 N289 1.989 . S
Co272 O297 1.967 . S
Co272 O304 1.920 . S
Co273 O276 1.966 . S
Co273 N282 2.022 . S
Co273 N290 1.993 . S
Co273 O298 1.941 . S
C274 O275 1.258 . S
C274 O276 1.263 . S
O275 Co272 1.970 . S
O275 C274 1.258 . S
O276 Co273 1.966 . S
O276 C274 1.263 . S
C277 O278 1.235 . S
C277 O304 1.289 . S
O278 C277 1.235 . S
C279 C281 1.400 . S
C279 N282 1.351 . S
C279 C284 1.501 . S
C280 C281 1.387 . S
C280 N283 1.341 . S
C281 C279 1.400 . S
C281 C280 1.387 . S
N282 Co273 2.022 . S
N282 C279 1.351 . S
N282 N283 1.365 . S
N283 C280 1.341 . S
N283 N282 1.365 . S
N283 H303 0.862 . S
C284 C279 1.501 . S
C284 H285 0.961 . S
C284 H286 0.961 . S
C284 H287 0.960 . S
H285 C284 0.961 . S
H286 C284 0.961 . S
H287 C284 0.960 . S
C288 N289 1.342 . S
C288 C292 1.401 . S
C288 C293 1.499 . S
N289 Co272 1.989 . S
N289 C288 1.342 . S
N289 N290 1.388 . S
N290 Co273 1.993 . S
N290 N289 1.388 . S
N290 C291 1.346 . S
C291 N290 1.346 . S
C291 C292 1.396 . S
C291 C301 1.510 . S
C292 C288 1.401 . S
C292 C291 1.396 . S
C293 C288 1.499 . S
C293 H294 0.959 . S
C293 H295 0.960 . S
C293 H296 0.961 . S
H294 C293 0.959 . S
H295 C293 0.960 . S
H296 C293 0.961 . S
O297 Co272 1.967 . S
O297 C305 1.258 . S
O298 Co273 1.941 . S
O298 C305 1.266 . S
H299 C301 0.959 . S
H300 C301 0.961 . S
C301 C291 1.510 . S
C301 H299 0.959 . S
C301 H300 0.961 . S
C301 H302 0.960 . S
H302 C301 0.960 . S
H303 N283 0.862 . S
O304 Co272 1.920 . S
O304 C277 1.289 . S
C305 O297 1.258 . S
C305 O298 1.266 . S
Co306 O309 1.970 . S
Co306 N323 1.989 . S
Co306 O331 1.967 . S
Co306 O338 1.920 . S
Co307 O310 1.966 . S
Co307 N316 2.022 . S
Co307 N324 1.993 . S
Co307 O332 1.941 . S
C308 O309 1.258 . S
C308 O310 1.263 . S
O309 Co306 1.970 . S
O309 C308 1.258 . S
O310 Co307 1.966 . S
O310 C308 1.263 . S
C311 O312 1.235 . S
C311 O338 1.289 . S
O312 C311 1.235 . S
C313 C315 1.400 . S
C313 N316 1.351 . S
C313 C318 1.501 . S
C314 C315 1.387 . S
C314 N317 1.341 . S
C315 C313 1.400 . S
C315 C314 1.387 . S
N316 Co307 2.022 . S
N316 C313 1.351 . S
N316 N317 1.365 . S
N317 C314 1.341 . S
N317 N316 1.365 . S
N317 H337 0.862 . S
C318 C313 1.501 . S
C318 H319 0.961 . S
C318 H320 0.961 . S
C318 H321 0.960 . S
H319 C318 0.961 . S
H320 C318 0.961 . S
H321 C318 0.960 . S
C322 N323 1.342 . S
C322 C326 1.401 . S
C322 C327 1.499 . S
N323 Co306 1.989 . S
N323 C322 1.342 . S
N323 N324 1.388 . S
N324 Co307 1.993 . S
N324 N323 1.388 . S
N324 C325 1.346 . S
C325 N324 1.346 . S
C325 C326 1.396 . S
C325 C335 1.510 . S
C326 C322 1.401 . S
C326 C325 1.396 . S
C327 C322 1.499 . S
C327 H328 0.959 . S
C327 H329 0.960 . S
C327 H330 0.961 . S
H328 C327 0.959 . S
H329 C327 0.960 . S
H330 C327 0.961 . S
O331 Co306 1.967 . S
O331 C339 1.258 . S
O332 Co307 1.941 . S
O332 C339 1.266 . S
H333 C335 0.959 . S
H334 C335 0.961 . S
C335 C325 1.510 . S
C335 H333 0.959 . S
C335 H334 0.961 . S
C335 H336 0.960 . S
H336 C335 0.960 . S
H337 N317 0.862 . S
O338 Co306 1.920 . S
O338 C311 1.289 . S
C339 O331 1.258 . S
C339 O332 1.266 . S
Co340 O343 1.970 . S
Co340 N357 1.989 . S
Co340 O365 1.967 . S
Co340 O372 1.920 . S
Co341 O344 1.966 . S
Co341 N350 2.022 . S
Co341 N358 1.993 . S
Co341 O366 1.941 . S
C342 O343 1.258 . S
C342 O344 1.263 . S
O343 Co340 1.970 . S
O343 C342 1.258 . S
O344 Co341 1.966 . S
O344 C342 1.263 . S
C345 O346 1.235 . S
C345 O372 1.289 . S
O346 C345 1.235 . S
C347 C349 1.400 . S
C347 N350 1.351 . S
C347 C352 1.501 . S
C348 C349 1.387 . S
C348 N351 1.341 . S
C349 C347 1.400 . S
C349 C348 1.387 . S
N350 Co341 2.022 . S
N350 C347 1.351 . S
N350 N351 1.365 . S
N351 C348 1.341 . S
N351 N350 1.365 . S
N351 H371 0.862 . S
C352 C347 1.501 . S
C352 H353 0.961 . S
C352 H354 0.961 . S
C352 H355 0.960 . S
H353 C352 0.961 . S
H354 C352 0.961 . S
H355 C352 0.960 . S
C356 N357 1.342 . S
C356 C360 1.401 . S
C356 C361 1.499 . S
N357 Co340 1.989 . S
N357 C356 1.342 . S
N357 N358 1.388 . S
N358 Co341 1.993 . S
N358 N357 1.388 . S
N358 C359 1.346 . S
C359 N358 1.346 . S
C359 C360 1.396 . S
C359 C369 1.510 . S
C360 C356 1.401 . S
C360 C359 1.396 . S
C361 C356 1.499 . S
C361 H362 0.959 . S
C361 H363 0.960 . S
C361 H364 0.961 . S
H362 C361 0.959 . S
H363 C361 0.960 . S
H364 C361 0.961 . S
O365 Co340 1.967 . S
O365 C373 1.258 . S
O366 Co341 1.941 . S
O366 C373 1.266 . S
H367 C369 0.959 . S
H368 C369 0.961 . S
C369 C359 1.510 . S
C369 H367 0.959 . S
C369 H368 0.961 . S
C369 H370 0.960 . S
H370 C369 0.960 . S
H371 N351 0.862 . S
O372 Co340 1.920 . S
O372 C345 1.289 . S
C373 O365 1.258 . S
C373 O366 1.266 . S
Co374 O377 1.970 . S
Co374 N391 1.989 . S
Co374 O399 1.967 . S
Co374 O406 1.920 . S
Co375 O378 1.966 . S
Co375 N384 2.022 . S
Co375 N392 1.993 . S
Co375 O400 1.941 . S
C376 O377 1.258 . S
C376 O378 1.263 . S
O377 Co374 1.970 . S
O377 C376 1.258 . S
O378 Co375 1.966 . S
O378 C376 1.263 . S
C379 O380 1.235 . S
C379 O406 1.289 . S
O380 C379 1.235 . S
C381 C383 1.400 . S
C381 N384 1.351 . S
C381 C386 1.501 . S
C382 C383 1.387 . S
C382 N385 1.341 . S
C383 C381 1.400 . S
C383 C382 1.387 . S
N384 Co375 2.022 . S
N384 C381 1.351 . S
N384 N385 1.365 . S
N385 C382 1.341 . S
N385 N384 1.365 . S
N385 H405 0.862 . S
C386 C381 1.501 . S
C386 H387 0.961 . S
C386 H388 0.961 . S
C386 H389 0.960 . S
H387 C386 0.961 . S
H388 C386 0.961 . S
H389 C386 0.960 . S
C390 N391 1.342 . S
C390 C394 1.401 . S
C390 C395 1.499 . S
N391 Co374 1.989 . S
N391 C390 1.342 . S
N391 N392 1.388 . S
N392 Co375 1.993 . S
N392 N391 1.388 . S
N392 C393 1.346 . S
C393 N392 1.346 . S
C393 C394 1.396 . S
C393 C403 1.510 . S
C394 C390 1.401 . S
C394 C393 1.396 . S
C395 C390 1.499 . S
C395 H396 0.959 . S
C395 H397 0.960 . S
C395 H398 0.961 . S
H396 C395 0.959 . S
H397 C395 0.960 . S
H398 C395 0.961 . S
O399 Co374 1.967 . S
O399 C407 1.258 . S
O400 Co375 1.941 . S
O400 C407 1.266 . S
H401 C403 0.959 . S
H402 C403 0.961 . S
C403 C393 1.510 . S
C403 H401 0.959 . S
C403 H402 0.961 . S
C403 H404 0.960 . S
H404 C403 0.960 . S
H405 N385 0.862 . S
O406 Co374 1.920 . S
O406 C379 1.289 . S
C407 O399 1.258 . S
C407 O400 1.266 . S
C408 C409 1.349 . S
C408 C410 1.327 . S
C408 H433 0.950 . S
C409 C408 1.349 . S
C409 C425 1.349 . S
C410 C408 1.327 . S
C410 C429 1.429 . S
C410 H434 0.950 . S
C411 C428 1.574 . S
C411 C430 1.368 . S
C411 H435 0.949 . S
H412 C416 0.949 . S
C413 C414 1.349 . S
C413 C415 1.327 . S
C413 H436 0.950 . S
C414 C413 1.349 . S
C414 C426 1.349 . S
C415 C413 1.327 . S
C415 C431 1.429 . S
C415 H437 0.950 . S
C416 H412 0.949 . S
C416 C424 1.574 . S
C416 C432 1.368 . S
H417 C425 0.950 . S
H418 C423 0.950 . S
H419 C424 0.949 . S
H420 C426 0.950 . S
H421 C427 0.950 . S
H422 C428 0.949 . S
C423 H418 0.950 . S
C423 C425 1.327 . S
C423 C429 1.429 . S
C424 C416 1.574 . S
C424 H419 0.949 . S
C424 C430 1.368 . S
C425 C409 1.349 . S
C425 H417 0.950 . S
C425 C423 1.327 . S
C426 C414 1.349 . S
C426 H420 0.950 . S
C426 C427 1.327 . S
C427 H421 0.950 . S
C427 C426 1.327 . S
C427 C431 1.429 . S
C428 C411 1.574 . S
C428 H422 0.949 . S
C428 C432 1.368 . S
C429 C410 1.429 . S
C429 C423 1.429 . S
C429 C430 1.523 . S
C430 C411 1.368 . S
C430 C424 1.368 . S
C430 C429 1.523 . S
C431 C415 1.429 . S
C431 C427 1.429 . S
C431 C432 1.523 . S
C432 C416 1.368 . S
C432 C428 1.368 . S
C432 C431 1.523 . S
H433 C408 0.950 . S
H434 C410 0.950 . S
H435 C411 0.949 . S
H436 C413 0.950 . S
H437 C415 0.950 . S
C438 C439 1.349 . S
C438 C440 1.327 . S
C438 H463 0.950 . S
C439 C438 1.349 . S
C439 C455 1.349 . S
C440 C438 1.327 . S
C440 C459 1.429 . S
C440 H464 0.950 . S
C441 C458 1.574 . S
C441 C460 1.368 . S
C441 H465 0.949 . S
H442 C446 0.949 . S
C443 C444 1.349 . S
C443 C445 1.327 . S
C443 H466 0.950 . S
C444 C443 1.349 . S
C444 C456 1.349 . S
C445 C443 1.327 . S
C445 C461 1.429 1_655 S
C445 H467 0.950 1_655 S
C446 H442 0.949 . S
C446 C454 1.574 . S
C446 C462 1.368 . S
H447 C455 0.950 . S
H448 C453 0.950 . S
H449 C454 0.949 . S
H450 C456 0.950 . S
H451 C457 0.950 . S
H452 C458 0.949 . S
C453 H448 0.950 . S
C453 C455 1.327 . S
C453 C459 1.429 . S
C454 C446 1.574 . S
C454 H449 0.949 . S
C454 C460 1.368 . S
C455 C439 1.349 . S
C455 H447 0.950 . S
C455 C453 1.327 . S
C456 C444 1.349 . S
C456 H450 0.950 . S
C456 C457 1.327 . S
C457 H451 0.950 . S
C457 C456 1.327 . S
C457 C461 1.429 1_655 S
C458 C441 1.574 . S
C458 H452 0.949 . S
C458 C462 1.368 . S
C459 C440 1.429 . S
C459 C453 1.429 . S
C459 C460 1.523 . S
C460 C441 1.368 . S
C460 C454 1.368 . S
C460 C459 1.523 . S
C461 C445 1.429 1_455 S
C461 C457 1.429 1_455 S
C461 C462 1.523 . S
C462 C446 1.368 . S
C462 C458 1.368 . S
C462 C461 1.523 . S
H463 C438 0.950 . S
H464 C440 0.950 . S
H465 C441 0.949 . S
H466 C443 0.950 . S
H467 C445 0.950 1_455 S
C468 C469 1.349 . S
C468 C470 1.327 . S
C468 H493 0.950 . S
C469 C468 1.349 . S
C469 C485 1.349 . S
C470 C468 1.327 . S
C470 C489 1.429 . S
C470 H494 0.950 . S
C471 C488 1.574 . S
C471 C490 1.368 . S
C471 H495 0.949 . S
H472 C476 0.949 . S
C473 C474 1.349 . S
C473 C475 1.327 . S
C473 H496 0.950 . S
C474 C473 1.349 . S
C474 C486 1.349 . S
C475 C473 1.327 . S
C475 C491 1.429 1_565 S
C475 H497 0.950 . S
C476 H472 0.949 . S
C476 C484 1.574 . S
C476 C492 1.368 . S
H477 C485 0.950 . S
H478 C483 0.950 . S
H479 C484 0.949 . S
H480 C486 0.950 . S
H481 C487 0.950 . S
H482 C488 0.949 . S
C483 H478 0.950 . S
C483 C485 1.327 . S
C483 C489 1.429 . S
C484 C476 1.574 . S
C484 H479 0.949 . S
C484 C490 1.368 . S
C485 C469 1.349 . S
C485 H477 0.950 . S
C485 C483 1.327 . S
C486 C474 1.349 . S
C486 H480 0.950 . S
C486 C487 1.327 1_565 S
C487 H481 0.950 . S
C487 C486 1.327 1_545 S
C487 C491 1.429 . S
C488 C471 1.574 . S
C488 H482 0.949 . S
C488 C492 1.368 . S
C489 C470 1.429 . S
C489 C483 1.429 . S
C489 C490 1.523 . S
C490 C471 1.368 . S
C490 C484 1.368 . S
C490 C489 1.523 . S
C491 C475 1.429 1_545 S
C491 C487 1.429 . S
C491 C492 1.523 . S
C492 C476 1.368 . S
C492 C488 1.368 . S
C492 C491 1.523 . S
H493 C468 0.950 . S
H494 C470 0.950 . S
H495 C471 0.949 . S
H496 C473 0.950 . S
H497 C475 0.950 . S
C498 C499 1.349 . S
C498 C500 1.327 . S
C498 H523 0.950 . S
C499 C498 1.349 . S
C499 C515 1.349 . S
C500 C498 1.327 . S
C500 C519 1.429 . S
C500 H524 0.950 . S
C501 C518 1.574 . S
C501 C520 1.368 . S
C501 H525 0.949 . S
H502 C506 0.949 . S
C503 C504 1.349 . S
C503 C505 1.327 . S
C503 H526 0.950 . S
C504 C503 1.349 . S
C504 C516 1.349 . S
C505 C503 1.327 . S
C505 C521 1.429 . S
C505 H527 0.950 . S
C506 H502 0.949 . S
C506 C514 1.574 . S
C506 C522 1.368 . S
H507 C515 0.950 . S
H508 C513 0.950 . S
H509 C514 0.949 . S
H510 C516 0.950 . S
H511 C517 0.950 . S
H512 C518 0.949 . S
C513 H508 0.950 . S
C513 C515 1.327 . S
C513 C519 1.429 . S
C514 C506 1.574 . S
C514 H509 0.949 . S
C514 C520 1.368 . S
C515 C499 1.349 . S
C515 H507 0.950 . S
C515 C513 1.327 . S
C516 C504 1.349 . S
C516 H510 0.950 . S
C516 C517 1.327 . S
C517 H511 0.950 . S
C517 C516 1.327 . S
C517 C521 1.429 . S
C518 C501 1.574 . S
C518 H512 0.949 . S
C518 C522 1.368 . S
C519 C500 1.429 . S
C519 C513 1.429 . S
C519 C520 1.523 . S
C520 C501 1.368 . S
C520 C514 1.368 . S
C520 C519 1.523 . S
C521 C505 1.429 . S
C521 C517 1.429 . S
C521 C522 1.523 . S
C522 C506 1.368 . S
C522 C518 1.368 . S
C522 C521 1.523 . S
H523 C498 0.950 . S
H524 C500 0.950 . S
H525 C501 0.949 . S
H526 C503 0.950 . S
H527 C505 0.950 . S
C528 C529 1.349 . S
C528 C530 1.327 1_455 S
C528 H553 0.950 . S
C529 C528 1.349 . S
C529 C545 1.349 . S
C530 C528 1.327 1_655 S
C530 C549 1.429 . S
C530 H554 0.950 . S
C531 C548 1.574 . S
C531 C550 1.368 . S
C531 H555 0.949 . S
H532 C536 0.949 . S
C533 C534 1.349 . S
C533 C535 1.327 . S
C533 H556 0.950 . S
C534 C533 1.349 . S
C534 C546 1.349 . S
C535 C533 1.327 . S
C535 C551 1.429 . S
C535 H557 0.950 . S
C536 H532 0.949 . S
C536 C544 1.574 . S
C536 C552 1.368 . S
H537 C545 0.950 . S
H538 C543 0.950 . S
H539 C544 0.949 . S
H540 C546 0.950 . S
H541 C547 0.950 . S
H542 C548 0.949 . S
C543 H538 0.950 . S
C543 C545 1.327 . S
C543 C549 1.429 1_455 S
C544 C536 1.574 . S
C544 H539 0.949 . S
C544 C550 1.368 . S
C545 C529 1.349 . S
C545 H537 0.950 . S
C545 C543 1.327 . S
C546 C534 1.349 . S
C546 H540 0.950 . S
C546 C547 1.327 . S
C547 H541 0.950 . S
C547 C546 1.327 . S
C547 C551 1.429 . S
C548 C531 1.574 . S
C548 H542 0.949 . S
C548 C552 1.368 . S
C549 C530 1.429 . S
C549 C543 1.429 1_655 S
C549 C550 1.523 . S
C550 C531 1.368 . S
C550 C544 1.368 . S
C550 C549 1.523 . S
C551 C535 1.429 . S
C551 C547 1.429 . S
C551 C552 1.523 . S
C552 C536 1.368 . S
C552 C548 1.368 . S
C552 C551 1.523 . S
H553 C528 0.950 . S
H554 C530 0.950 . S
H555 C531 0.949 . S
H556 C533 0.950 . S
H557 C535 0.950 . S
C558 C559 1.349 . S
C558 C560 1.327 . S
C558 H583 0.950 . S
C559 C558 1.349 . S
C559 C575 1.349 . S
C560 C558 1.327 . S
C560 C579 1.429 . S
C560 H584 0.950 . S
C561 C578 1.574 . S
C561 C580 1.368 . S
C561 H585 0.949 . S
H562 C566 0.949 . S
C563 C564 1.349 . S
C563 C565 1.327 . S
C563 H586 0.950 . S
C564 C563 1.349 . S
C564 C576 1.349 . S
C565 C563 1.327 . S
C565 C581 1.429 1_545 S
C565 H587 0.950 . S
C566 H562 0.949 . S
C566 C574 1.574 . S
C566 C582 1.368 . S
H567 C575 0.950 . S
H568 C573 0.950 . S
H569 C574 0.949 . S
H570 C576 0.950 . S
H571 C577 0.950 . S
H572 C578 0.949 . S
C573 H568 0.950 . S
C573 C575 1.327 . S
C573 C579 1.429 . S
C574 C566 1.574 . S
C574 H569 0.949 . S
C574 C580 1.368 . S
C575 C559 1.349 . S
C575 H567 0.950 . S
C575 C573 1.327 . S
C576 C564 1.349 . S
C576 H570 0.950 . S
C576 C577 1.327 1_545 S
C577 H571 0.950 . S
C577 C576 1.327 1_565 S
C577 C581 1.429 . S
C578 C561 1.574 . S
C578 H572 0.949 . S
C578 C582 1.368 . S
C579 C560 1.429 . S
C579 C573 1.429 . S
C579 C580 1.523 . S
C580 C561 1.368 . S
C580 C574 1.368 . S
C580 C579 1.523 . S
C581 C565 1.429 1_565 S
C581 C577 1.429 . S
C581 C582 1.523 . S
C582 C566 1.368 . S
C582 C578 1.368 . S
C582 C581 1.523 . S
H583 C558 0.950 . S
H584 C560 0.950 . S
H585 C561 0.949 . S
H586 C563 0.950 . S
H587 C565 0.950 . S
C588 C589 1.349 . S
C588 C590 1.327 . S
C588 H613 0.950 . S
C589 C588 1.349 . S
C589 C605 1.349 . S
C590 C588 1.327 . S
C590 C609 1.429 . S
C590 H614 0.950 . S
C591 C608 1.574 . S
C591 C610 1.368 . S
C591 H615 0.949 . S
H592 C596 0.949 . S
C593 C594 1.349 . S
C593 C595 1.327 . S
C593 H616 0.950 . S
C594 C593 1.349 . S
C594 C606 1.349 . S
C595 C593 1.327 . S
C595 C611 1.429 . S
C595 H617 0.950 . S
C596 H592 0.949 . S
C596 C604 1.574 . S
C596 C612 1.368 . S
H597 C605 0.950 . S
H598 C603 0.950 . S
H599 C604 0.949 . S
H600 C606 0.950 . S
H601 C607 0.950 . S
H602 C608 0.949 . S
C603 H598 0.950 . S
C603 C605 1.327 . S
C603 C609 1.429 . S
C604 C596 1.574 . S
C604 H599 0.949 . S
C604 C610 1.368 . S
C605 C589 1.349 . S
C605 H597 0.950 . S
C605 C603 1.327 . S
C606 C594 1.349 . S
C606 H600 0.950 . S
C606 C607 1.327 . S
C607 H601 0.950 . S
C607 C606 1.327 . S
C607 C611 1.429 . S
C608 C591 1.574 . S
C608 H602 0.949 . S
C608 C612 1.368 . S
C609 C590 1.429 . S
C609 C603 1.429 . S
C609 C610 1.523 . S
C610 C591 1.368 . S
C610 C604 1.368 . S
C610 C609 1.523 . S
C611 C595 1.429 . S
C611 C607 1.429 . S
C611 C612 1.523 . S
C612 C596 1.368 . S
C612 C608 1.368 . S
C612 C611 1.523 . S
H613 C588 0.950 . S
H614 C590 0.950 . S
H615 C591 0.949 . S
H616 C593 0.950 . S
H617 C595 0.950 . S
C618 C619 1.349 . S
C618 C620 1.327 . S
C618 H643 0.950 . S
C619 C618 1.349 . S
C619 C635 1.349 . S
C620 C618 1.327 . S
C620 C639 1.429 . S
C620 H644 0.950 . S
C621 C638 1.574 . S
C621 C640 1.368 . S
C621 H645 0.949 . S
H622 C626 0.949 . S
C623 C624 1.349 . S
C623 C625 1.327 1_655 S
C623 H646 0.950 . S
C624 C623 1.349 . S
C624 C636 1.349 . S
C625 C623 1.327 1_455 S
C625 C641 1.429 . S
C625 H647 0.950 . S
C626 H622 0.949 . S
C626 C634 1.574 . S
C626 C642 1.368 . S
H627 C635 0.950 . S
H628 C633 0.950 . S
H629 C634 0.949 . S
H630 C636 0.950 . S
H631 C637 0.950 . S
H632 C638 0.949 . S
C633 H628 0.950 . S
C633 C635 1.327 . S
C633 C639 1.429 . S
C634 C626 1.574 . S
C634 H629 0.949 . S
C634 C640 1.368 . S
C635 C619 1.349 . S
C635 H627 0.950 . S
C635 C633 1.327 . S
C636 C624 1.349 . S
C636 H630 0.950 . S
C636 C637 1.327 . S
C637 H631 0.950 . S
C637 C636 1.327 . S
C637 C641 1.429 1_655 S
C638 C621 1.574 . S
C638 H632 0.949 . S
C638 C642 1.368 . S
C639 C620 1.429 . S
C639 C633 1.429 . S
C639 C640 1.523 . S
C640 C621 1.368 . S
C640 C634 1.368 . S
C640 C639 1.523 . S
C641 C625 1.429 . S
C641 C637 1.429 1_455 S
C641 C642 1.523 . S
C642 C626 1.368 . S
C642 C638 1.368 . S
C642 C641 1.523 . S
H643 C618 0.950 . S
H644 C620 0.950 . S
H645 C621 0.949 . S
H646 C623 0.950 . S
H647 C625 0.950 . S
C648 C649 1.349 . S
C648 C650 1.327 . S
C648 H673 0.950 . S
C649 C648 1.349 . S
C649 C665 1.349 . S
C650 C648 1.327 . S
C650 C669 1.429 . S
C650 H674 0.950 . S
C651 C668 1.574 . S
C651 C670 1.368 . S
C651 H675 0.949 . S
H652 C656 0.949 . S
C653 C654 1.349 . S
C653 C655 1.327 1_565 S
C653 H676 0.950 . S
C654 C653 1.349 . S
C654 C666 1.349 . S
C655 C653 1.327 1_545 S
C655 C671 1.429 . S
C655 H677 0.950 . S
C656 H652 0.949 . S
C656 C664 1.574 . S
C656 C672 1.368 . S
H657 C665 0.950 . S
H658 C663 0.950 . S
H659 C664 0.949 . S
H660 C666 0.950 . S
H661 C667 0.950 . S
H662 C668 0.949 . S
C663 H658 0.950 . S
C663 C665 1.327 . S
C663 C669 1.429 . S
C664 C656 1.574 . S
C664 H659 0.949 . S
C664 C670 1.368 . S
C665 C649 1.349 . S
C665 H657 0.950 . S
C665 C663 1.327 . S
C666 C654 1.349 . S
C666 H660 0.950 . S
C666 C667 1.327 . S
C667 H661 0.950 . S
C667 C666 1.327 . S
C667 C671 1.429 1_565 S
C668 C651 1.574 . S
C668 H662 0.949 . S
C668 C672 1.368 . S
C669 C650 1.429 . S
C669 C663 1.429 . S
C669 C670 1.523 . S
C670 C651 1.368 . S
C670 C664 1.368 . S
C670 C669 1.523 . S
C671 C655 1.429 . S
C671 C667 1.429 1_545 S
C671 C672 1.523 . S
C672 C656 1.368 . S
C672 C668 1.368 . S
C672 C671 1.523 . S
H673 C648 0.950 . S
H674 C650 0.950 . S
H675 C651 0.949 . S
H676 C653 0.950 . S
H677 C655 0.950 . S
C678 C679 1.349 . S
C678 C680 1.327 . S
C678 H703 0.950 . S
C679 C678 1.349 . S
C679 C695 1.349 . S
C680 C678 1.327 . S
C680 C699 1.429 . S
C680 H704 0.950 . S
C681 C698 1.574 . S
C681 C700 1.368 . S
C681 H705 0.949 . S
H682 C686 0.949 . S
C683 C684 1.349 . S
C683 C685 1.327 . S
C683 H706 0.950 . S
C684 C683 1.349 . S
C684 C696 1.349 . S
C685 C683 1.327 . S
C685 C701 1.429 . S
C685 H707 0.950 . S
C686 H682 0.949 . S
C686 C694 1.574 . S
C686 C702 1.368 . S
H687 C695 0.950 . S
H688 C693 0.950 . S
H689 C694 0.949 . S
H690 C696 0.950 . S
H691 C697 0.950 . S
H692 C698 0.949 . S
C693 H688 0.950 . S
C693 C695 1.327 . S
C693 C699 1.429 . S
C694 C686 1.574 . S
C694 H689 0.949 . S
C694 C700 1.368 . S
C695 C679 1.349 . S
C695 H687 0.950 . S
C695 C693 1.327 . S
C696 C684 1.349 . S
C696 H690 0.950 . S
C696 C697 1.327 . S
C697 H691 0.950 . S
C697 C696 1.327 . S
C697 C701 1.429 . S
C698 C681 1.574 . S
C698 H692 0.949 . S
C698 C702 1.368 . S
C699 C680 1.429 . S
C699 C693 1.429 . S
C699 C700 1.523 . S
C700 C681 1.368 . S
C700 C694 1.368 . S
C700 C699 1.523 . S
C701 C685 1.429 . S
C701 C697 1.429 . S
C701 C702 1.523 . S
C702 C686 1.368 . S
C702 C698 1.368 . S
C702 C701 1.523 . S
H703 C678 0.950 . S
H704 C680 0.950 . S
H705 C681 0.949 . S
H706 C683 0.950 . S
H707 C685 0.950 . S
C708 C709 1.349 . S
C708 C710 1.327 . S
C708 H733 0.950 . S
C709 C708 1.349 . S
C709 C725 1.349 . S
C710 C708 1.327 . S
C710 C729 1.429 . S
C710 H734 0.950 . S
C711 C728 1.574 . S
C711 C730 1.368 . S
C711 H735 0.949 . S
H712 C716 0.949 . S
C713 C714 1.349 . S
C713 C715 1.327 . S
C713 H736 0.950 . S
C714 C713 1.349 . S
C714 C726 1.349 . S
C715 C713 1.327 . S
C715 C731 1.429 1_455 S
C715 H737 0.950 . S
C716 H712 0.949 . S
C716 C724 1.574 . S
C716 C732 1.368 . S
H717 C725 0.950 . S
H718 C723 0.950 . S
H719 C724 0.949 . S
H720 C726 0.950 . S
H721 C727 0.950 . S
H722 C728 0.949 . S
C723 H718 0.950 . S
C723 C725 1.327 . S
C723 C729 1.429 . S
C724 C716 1.574 . S
C724 H719 0.949 . S
C724 C730 1.368 . S
C725 C709 1.349 . S
C725 H717 0.950 . S
C725 C723 1.327 . S
C726 C714 1.349 . S
C726 H720 0.950 . S
C726 C727 1.327 1_455 S
C727 H721 0.950 . S
C727 C726 1.327 1_655 S
C727 C731 1.429 . S
C728 C711 1.574 . S
C728 H722 0.949 . S
C728 C732 1.368 . S
C729 C710 1.429 . S
C729 C723 1.429 . S
C729 C730 1.523 . S
C730 C711 1.368 . S
C730 C724 1.368 . S
C730 C729 1.523 . S
C731 C715 1.429 1_655 S
C731 C727 1.429 . S
C731 C732 1.523 . S
C732 C716 1.368 . S
C732 C728 1.368 . S
C732 C731 1.523 . S
H733 C708 0.950 . S
H734 C710 0.950 . S
H735 C711 0.949 . S
H736 C713 0.950 . S
H737 C715 0.950 . S
C738 C739 1.349 . S
C738 C740 1.327 . S
C738 H763 0.950 . S
C739 C738 1.349 . S
C739 C755 1.349 . S
C740 C738 1.327 . S
C740 C759 1.429 . S
C740 H764 0.950 . S
C741 C758 1.574 . S
C741 C760 1.368 . S
C741 H765 0.949 . S
H742 C746 0.949 . S
C743 C744 1.349 . S
C743 C745 1.327 . S
C743 H766 0.950 . S
C744 C743 1.349 . S
C744 C756 1.349 . S
C745 C743 1.327 . S
C745 C761 1.429 1_545 S
C745 H767 0.950 . S
C746 H742 0.949 . S
C746 C754 1.574 . S
C746 C762 1.368 . S
H747 C755 0.950 . S
H748 C753 0.950 . S
H749 C754 0.949 . S
H750 C756 0.950 . S
H751 C757 0.950 . S
H752 C758 0.949 . S
C753 H748 0.950 . S
C753 C755 1.327 . S
C753 C759 1.429 . S
C754 C746 1.574 . S
C754 H749 0.949 . S
C754 C760 1.368 . S
C755 C739 1.349 . S
C755 H747 0.950 . S
C755 C753 1.327 . S
C756 C744 1.349 . S
C756 H750 0.950 . S
C756 C757 1.327 1_545 S
C757 H751 0.950 . S
C757 C756 1.327 1_565 S
C757 C761 1.429 . S
C758 C741 1.574 . S
C758 H752 0.949 . S
C758 C762 1.368 . S
C759 C740 1.429 . S
C759 C753 1.429 . S
C759 C760 1.523 . S
C760 C741 1.368 . S
C760 C754 1.368 . S
C760 C759 1.523 . S
C761 C745 1.429 1_565 S
C761 C757 1.429 . S
C761 C762 1.523 . S
C762 C746 1.368 . S
C762 C758 1.368 . S
C762 C761 1.523 . S
H763 C738 0.950 . S
H764 C740 0.950 . S
H765 C741 0.949 . S
H766 C743 0.950 . S
H767 C745 0.950 . S
C768 C769 1.349 . S
C768 C770 1.327 . S
C768 H793 0.950 . S
C769 C768 1.349 . S
C769 C785 1.349 . S
C770 C768 1.327 . S
C770 C789 1.429 . S
C770 H794 0.950 . S
C771 C788 1.574 . S
C771 C790 1.368 . S
C771 H795 0.949 . S
H772 C776 0.949 . S
C773 C774 1.349 . S
C773 C775 1.327 . S
C773 H796 0.950 . S
C774 C773 1.349 . S
C774 C786 1.349 . S
C775 C773 1.327 . S
C775 C791 1.429 . S
C775 H797 0.950 . S
C776 H772 0.949 . S
C776 C784 1.574 . S
C776 C792 1.368 . S
H777 C785 0.950 . S
H778 C783 0.950 . S
H779 C784 0.949 . S
H780 C786 0.950 . S
H781 C787 0.950 . S
H782 C788 0.949 . S
C783 H778 0.950 . S
C783 C785 1.327 . S
C783 C789 1.429 . S
C784 C776 1.574 . S
C784 H779 0.949 . S
C784 C790 1.368 . S
C785 C769 1.349 . S
C785 H777 0.950 . S
C785 C783 1.327 . S
C786 C774 1.349 . S
C786 H780 0.950 . S
C786 C787 1.327 . S
C787 H781 0.950 . S
C787 C786 1.327 . S
C787 C791 1.429 . S
C788 C771 1.574 . S
C788 H782 0.949 . S
C788 C792 1.368 . S
C789 C770 1.429 . S
C789 C783 1.429 . S
C789 C790 1.523 . S
C790 C771 1.368 . S
C790 C784 1.368 . S
C790 C789 1.523 . S
C791 C775 1.429 . S
C791 C787 1.429 . S
C791 C792 1.523 . S
C792 C776 1.368 . S
C792 C788 1.368 . S
C792 C791 1.523 . S
H793 C768 0.950 . S
H794 C770 0.950 . S
H795 C771 0.949 . S
H796 C773 0.950 . S
H797 C775 0.950 . S
C798 C799 1.349 . S
C798 C800 1.327 . S
C798 H823 0.950 . S
C799 C798 1.349 . S
C799 C815 1.349 . S
C800 C798 1.327 . S
C800 C819 1.429 . S
C800 H824 0.950 . S
C801 C818 1.574 . S
C801 C820 1.368 . S
C801 H825 0.949 . S
H802 C806 0.949 . S
C803 C804 1.349 . S
C803 C805 1.327 . S
C803 H826 0.950 . S
C804 C803 1.349 . S
C804 C816 1.349 . S
C805 C803 1.327 . S
C805 C821 1.429 . S
C805 H827 0.950 . S
C806 H802 0.949 . S
C806 C814 1.574 . S
C806 C822 1.368 . S
H807 C815 0.950 . S
H808 C813 0.950 . S
H809 C814 0.949 . S
H810 C816 0.950 . S
H811 C817 0.950 . S
H812 C818 0.949 . S
C813 H808 0.950 . S
C813 C815 1.327 . S
C813 C819 1.429 . S
C814 C806 1.574 . S
C814 H809 0.949 . S
C814 C820 1.368 . S
C815 C799 1.349 . S
C815 H807 0.950 . S
C815 C813 1.327 . S
C816 C804 1.349 . S
C816 H810 0.950 . S
C816 C817 1.327 . S
C817 H811 0.950 . S
C817 C816 1.327 . S
C817 C821 1.429 . S
C818 C801 1.574 . S
C818 H812 0.949 . S
C818 C822 1.368 . S
C819 C800 1.429 . S
C819 C813 1.429 . S
C819 C820 1.523 . S
C820 C801 1.368 . S
C820 C814 1.368 . S
C820 C819 1.523 . S
C821 C805 1.429 . S
C821 C817 1.429 . S
C821 C822 1.523 . S
C822 C806 1.368 . S
C822 C818 1.368 . S
C822 C821 1.523 . S
H823 C798 0.950 . S
H824 C800 0.950 . S
H825 C801 0.949 . S
H826 C803 0.950 . S
H827 C805 0.950 . S
C828 C829 1.349 . S
C828 C830 1.327 . S
C828 H853 0.950 . S
C829 C828 1.349 . S
C829 C845 1.349 . S
C830 C828 1.327 . S
C830 C849 1.429 . S
C830 H854 0.950 . S
C831 C848 1.574 . S
C831 C850 1.368 . S
C831 H855 0.949 . S
H832 C836 0.949 . S
C833 C834 1.349 . S
C833 C835 1.327 . S
C833 H856 0.950 . S
C834 C833 1.349 . S
C834 C846 1.349 . S
C835 C833 1.327 . S
C835 C851 1.429 . S
C835 H857 0.950 . S
C836 H832 0.949 . S
C836 C844 1.574 . S
C836 C852 1.368 . S
H837 C845 0.950 . S
H838 C843 0.950 . S
H839 C844 0.949 . S
H840 C846 0.950 . S
H841 C847 0.950 . S
H842 C848 0.949 . S
C843 H838 0.950 . S
C843 C845 1.327 . S
C843 C849 1.429 . S
C844 C836 1.574 . S
C844 H839 0.949 . S
C844 C850 1.368 . S
C845 C829 1.349 . S
C845 H837 0.950 . S
C845 C843 1.327 . S
C846 C834 1.349 . S
C846 H840 0.950 . S
C846 C847 1.327 . S
C847 H841 0.950 . S
C847 C846 1.327 . S
C847 C851 1.429 . S
C848 C831 1.574 . S
C848 H842 0.949 . S
C848 C852 1.368 . S
C849 C830 1.429 . S
C849 C843 1.429 . S
C849 C850 1.523 . S
C850 C831 1.368 . S
C850 C844 1.368 . S
C850 C849 1.523 . S
C851 C835 1.429 . S
C851 C847 1.429 . S
C851 C852 1.523 . S
C852 C836 1.368 . S
C852 C848 1.368 . S
C852 C851 1.523 . S
H853 C828 0.950 . S
H854 C830 0.950 . S
H855 C831 0.949 . S
H856 C833 0.950 . S
H857 C835 0.950 . S
C858 C859 1.349 . S
C858 C860 1.327 . S
C858 H883 0.950 . S
C859 C858 1.349 . S
C859 C875 1.349 . S
C860 C858 1.327 . S
C860 C879 1.429 . S
C860 H884 0.950 . S
C861 C878 1.574 . S
C861 C880 1.368 . S
C861 H885 0.949 . S
H862 C866 0.949 . S
C863 C864 1.349 . S
C863 C865 1.327 . S
C863 H886 0.950 . S
C864 C863 1.349 . S
C864 C876 1.349 . S
C865 C863 1.327 . S
C865 C881 1.429 . S
C865 H887 0.950 . S
C866 H862 0.949 . S
C866 C874 1.574 . S
C866 C882 1.368 . S
H867 C875 0.950 . S
H868 C873 0.950 . S
H869 C874 0.949 . S
H870 C876 0.950 . S
H871 C877 0.950 . S
H872 C878 0.949 . S
C873 H868 0.950 . S
C873 C875 1.327 . S
C873 C879 1.429 . S
C874 C866 1.574 . S
C874 H869 0.949 . S
C874 C880 1.368 . S
C875 C859 1.349 . S
C875 H867 0.950 . S
C875 C873 1.327 . S
C876 C864 1.349 . S
C876 H870 0.950 . S
C876 C877 1.327 . S
C877 H871 0.950 . S
C877 C876 1.327 . S
C877 C881 1.429 . S
C878 C861 1.574 . S
C878 H872 0.949 . S
C878 C882 1.368 . S
C879 C860 1.429 . S
C879 C873 1.429 . S
C879 C880 1.523 . S
C880 C861 1.368 . S
C880 C874 1.368 . S
C880 C879 1.523 . S
C881 C865 1.429 . S
C881 C877 1.429 . S
C881 C882 1.523 . S
C882 C866 1.368 . S
C882 C878 1.368 . S
C882 C881 1.523 . S
H883 C858 0.950 . S
H884 C860 0.950 . S
H885 C861 0.949 . S
H886 C863 0.950 . S
H887 C865 0.950 . S
C888 C889 1.349 . S
C888 C890 1.327 . S
C888 H913 0.950 . S
C889 C888 1.349 . S
C889 C905 1.349 . S
C890 C888 1.327 . S
C890 C909 1.429 . S
C890 H914 0.950 . S
C891 C908 1.574 . S
C891 C910 1.368 . S
C891 H915 0.949 . S
H892 C896 0.949 . S
C893 C894 1.349 . S
C893 C895 1.327 . S
C893 H916 0.950 . S
C894 C893 1.349 . S
C894 C906 1.349 . S
C895 C893 1.327 . S
C895 C911 1.429 . S
C895 H917 0.950 . S
C896 H892 0.949 . S
C896 C904 1.574 . S
C896 C912 1.368 . S
H897 C905 0.950 . S
H898 C903 0.950 . S
H899 C904 0.949 . S
H900 C906 0.950 . S
H901 C907 0.950 . S
H902 C908 0.949 . S
C903 H898 0.950 . S
C903 C905 1.327 . S
C903 C909 1.429 . S
C904 C896 1.574 . S
C904 H899 0.949 . S
C904 C910 1.368 . S
C905 C889 1.349 . S
C905 H897 0.950 . S
C905 C903 1.327 . S
C906 C894 1.349 . S
C906 H900 0.950 . S
C906 C907 1.327 . S
C907 H901 0.950 . S
C907 C906 1.327 . S
C907 C911 1.429 . S
C908 C891 1.574 . S
C908 H902 0.949 . S
C908 C912 1.368 . S
C909 C890 1.429 . S
C909 C903 1.429 . S
C909 C910 1.523 . S
C910 C891 1.368 . S
C910 C904 1.368 . S
C910 C909 1.523 . S
C911 C895 1.429 . S
C911 C907 1.429 . S
C911 C912 1.523 . S
C912 C896 1.368 . S
C912 C908 1.368 . S
C912 C911 1.523 . S
H913 C888 0.950 . S
H914 C890 0.950 . S
H915 C891 0.949 . S
H916 C893 0.950 . S
H917 C895 0.950 . S
C918 C919 1.349 . S
C918 C920 1.327 . S
C918 H943 0.950 . S
C919 C918 1.349 . S
C919 C935 1.349 . S
C920 C918 1.327 . S
C920 C939 1.429 . S
C920 H944 0.950 . S
C921 C938 1.574 . S
C921 C940 1.368 . S
C921 H945 0.949 . S
H922 C926 0.949 . S
C923 C924 1.349 . S
C923 C925 1.327 . S
C923 H946 0.950 . S
C924 C923 1.349 . S
C924 C936 1.349 . S
C925 C923 1.327 . S
C925 C941 1.429 . S
C925 H947 0.950 . S
C926 H922 0.949 . S
C926 C934 1.574 . S
C926 C942 1.368 . S
H927 C935 0.950 . S
H928 C933 0.950 . S
H929 C934 0.949 . S
H930 C936 0.950 . S
H931 C937 0.950 . S
H932 C938 0.949 . S
C933 H928 0.950 . S
C933 C935 1.327 . S
C933 C939 1.429 . S
C934 C926 1.574 . S
C934 H929 0.949 . S
C934 C940 1.368 . S
C935 C919 1.349 . S
C935 H927 0.950 . S
C935 C933 1.327 . S
C936 C924 1.349 . S
C936 H930 0.950 . S
C936 C937 1.327 . S
C937 H931 0.950 . S
C937 C936 1.327 . S
C937 C941 1.429 . S
C938 C921 1.574 . S
C938 H932 0.949 . S
C938 C942 1.368 . S
C939 C920 1.429 . S
C939 C933 1.429 . S
C939 C940 1.523 . S
C940 C921 1.368 . S
C940 C934 1.368 . S
C940 C939 1.523 . S
C941 C925 1.429 . S
C941 C937 1.429 . S
C941 C942 1.523 . S
C942 C926 1.368 . S
C942 C938 1.368 . S
C942 C941 1.523 . S
H943 C918 0.950 . S
H944 C920 0.950 . S
H945 C921 0.949 . S
H946 C923 0.950 . S
H947 C925 0.950 . S
C948 C949 1.349 . S
C948 C950 1.327 . S
C948 H973 0.950 . S
C949 C948 1.349 . S
C949 C965 1.349 . S
C950 C948 1.327 . S
C950 C969 1.429 . S
C950 H974 0.950 . S
C951 C968 1.574 . S
C951 C970 1.368 . S
C951 H975 0.949 . S
H952 C956 0.949 . S
C953 C954 1.349 . S
C953 C955 1.327 . S
C953 H976 0.950 . S
C954 C953 1.349 . S
C954 C966 1.349 . S
C955 C953 1.327 . S
C955 C971 1.429 . S
C955 H977 0.950 . S
C956 H952 0.949 . S
C956 C964 1.574 . S
C956 C972 1.368 . S
H957 C965 0.950 . S
H958 C963 0.950 . S
H959 C964 0.949 . S
H960 C966 0.950 . S
H961 C967 0.950 . S
H962 C968 0.949 . S
C963 H958 0.950 . S
C963 C965 1.327 . S
C963 C969 1.429 . S
C964 C956 1.574 . S
C964 H959 0.949 . S
C964 C970 1.368 . S
C965 C949 1.349 . S
C965 H957 0.950 . S
C965 C963 1.327 . S
C966 C954 1.349 . S
C966 H960 0.950 . S
C966 C967 1.327 . S
C967 H961 0.950 . S
C967 C966 1.327 . S
C967 C971 1.429 . S
C968 C951 1.574 . S
C968 H962 0.949 . S
C968 C972 1.368 . S
C969 C950 1.429 . S
C969 C963 1.429 . S
C969 C970 1.523 . S
C970 C951 1.368 . S
C970 C964 1.368 . S
C970 C969 1.523 . S
C971 C955 1.429 . S
C971 C967 1.429 . S
C971 C972 1.523 . S
C972 C956 1.368 . S
C972 C968 1.368 . S
C972 C971 1.523 . S
H973 C948 0.950 . S
H974 C950 0.950 . S
H975 C951 0.949 . S
H976 C953 0.950 . S
H977 C955 0.950 . S
C978 C979 1.349 . S
C978 C980 1.327 . S
C978 H1003 0.950 . S
C979 C978 1.349 . S
C979 C995 1.349 . S
C980 C978 1.327 . S
C980 C999 1.429 . S
C980 H1004 0.950 . S
C981 C998 1.574 . S
C981 C1000 1.368 . S
C981 H1005 0.949 . S
H982 C986 0.949 . S
C983 C984 1.349 . S
C983 C985 1.327 . S
C983 H1006 0.950 . S
C984 C983 1.349 . S
C984 C996 1.349 . S
C985 C983 1.327 . S
C985 C1001 1.429 . S
C985 H1007 0.950 . S
C986 H982 0.949 . S
C986 C994 1.574 . S
C986 C1002 1.368 . S
H987 C995 0.950 . S
H988 C993 0.950 . S
H989 C994 0.949 . S
H990 C996 0.950 . S
H991 C997 0.950 . S
H992 C998 0.949 . S
C993 H988 0.950 . S
C993 C995 1.327 . S
C993 C999 1.429 . S
C994 C986 1.574 . S
C994 H989 0.949 . S
C994 C1000 1.368 1_655 S
C995 C979 1.349 . S
C995 H987 0.950 . S
C995 C993 1.327 . S
C996 C984 1.349 . S
C996 H990 0.950 . S
C996 C997 1.327 . S
C997 H991 0.950 . S
C997 C996 1.327 . S
C997 C1001 1.429 . S
C998 C981 1.574 . S
C998 H992 0.949 . S
C998 C1002 1.368 1_455 S
C999 C980 1.429 . S
C999 C993 1.429 . S
C999 C1000 1.523 . S
C1000 C981 1.368 . S
C1000 C994 1.368 1_455 S
C1000 C999 1.523 . S
C1001 C985 1.429 . S
C1001 C997 1.429 . S
C1001 C1002 1.523 . S
C1002 C986 1.368 . S
C1002 C998 1.368 1_655 S
C1002 C1001 1.523 . S
H1003 C978 0.950 . S
H1004 C980 0.950 . S
H1005 C981 0.949 . S
H1006 C983 0.950 . S
H1007 C985 0.950 . S
C1008 C1009 1.349 . S
C1008 C1010 1.327 . S
C1008 H1033 0.950 . S
C1009 C1008 1.349 . S
C1009 C1025 1.349 . S
C1010 C1008 1.327 . S
C1010 C1029 1.429 . S
C1010 H1034 0.950 . S
C1011 C1028 1.574 . S
C1011 C1030 1.368 1_545 S
C1011 H1035 0.949 . S
H1012 C1016 0.949 . S
C1013 C1014 1.349 . S
C1013 C1015 1.327 . S
C1013 H1036 0.950 . S
C1014 C1013 1.349 . S
C1014 C1026 1.349 . S
C1015 C1013 1.327 . S
C1015 C1031 1.429 . S
C1015 H1037 0.950 . S
C1016 H1012 0.949 . S
C1016 C1024 1.574 . S
C1016 C1032 1.368 1_565 S
H1017 C1025 0.950 . S
H1018 C1023 0.950 . S
H1019 C1024 0.949 . S
H1020 C1026 0.950 . S
H1021 C1027 0.950 . S
H1022 C1028 0.949 . S
C1023 H1018 0.950 . S
C1023 C1025 1.327 . S
C1023 C1029 1.429 . S
C1024 C1016 1.574 . S
C1024 H1019 0.949 . S
C1024 C1030 1.368 . S
C1025 C1009 1.349 . S
C1025 H1017 0.950 . S
C1025 C1023 1.327 . S
C1026 C1014 1.349 . S
C1026 H1020 0.950 . S
C1026 C1027 1.327 . S
C1027 H1021 0.950 . S
C1027 C1026 1.327 . S
C1027 C1031 1.429 . S
C1028 C1011 1.574 . S
C1028 H1022 0.949 . S
C1028 C1032 1.368 . S
C1029 C1010 1.429 . S
C1029 C1023 1.429 . S
C1029 C1030 1.523 . S
C1030 C1011 1.368 1_565 S
C1030 C1024 1.368 . S
C1030 C1029 1.523 . S
C1031 C1015 1.429 . S
C1031 C1027 1.429 . S
C1031 C1032 1.523 . S
C1032 C1016 1.368 1_545 S
C1032 C1028 1.368 . S
C1032 C1031 1.523 . S
H1033 C1008 0.950 . S
H1034 C1010 0.950 . S
H1035 C1011 0.949 . S
H1036 C1013 0.950 . S
H1037 C1015 0.950 . S
C1038 C1039 1.349 . S
C1038 C1040 1.327 . S
C1038 H1063 0.950 . S
C1039 C1038 1.349 . S
C1039 C1055 1.349 . S
C1040 C1038 1.327 . S
C1040 C1059 1.429 . S
C1040 H1064 0.950 . S
C1041 C1058 1.574 . S
C1041 C1060 1.368 . S
C1041 H1065 0.949 . S
H1042 C1046 0.949 . S
C1043 C1044 1.349 . S
C1043 C1045 1.327 . S
C1043 H1066 0.950 . S
C1044 C1043 1.349 . S
C1044 C1056 1.349 . S
C1045 C1043 1.327 . S
C1045 C1061 1.429 . S
C1045 H1067 0.950 . S
C1046 H1042 0.949 . S
C1046 C1054 1.574 . S
C1046 C1062 1.368 . S
H1047 C1055 0.950 . S
H1048 C1053 0.950 . S
H1049 C1054 0.949 . S
H1050 C1056 0.950 . S
H1051 C1057 0.950 . S
H1052 C1058 0.949 . S
C1053 H1048 0.950 . S
C1053 C1055 1.327 . S
C1053 C1059 1.429 . S
C1054 C1046 1.574 . S
C1054 H1049 0.949 . S
C1054 C1060 1.368 . S
C1055 C1039 1.349 . S
C1055 H1047 0.950 . S
C1055 C1053 1.327 . S
C1056 C1044 1.349 . S
C1056 H1050 0.950 . S
C1056 C1057 1.327 . S
C1057 H1051 0.950 . S
C1057 C1056 1.327 . S
C1057 C1061 1.429 . S
C1058 C1041 1.574 . S
C1058 H1052 0.949 . S
C1058 C1062 1.368 . S
C1059 C1040 1.429 . S
C1059 C1053 1.429 . S
C1059 C1060 1.523 . S
C1060 C1041 1.368 . S
C1060 C1054 1.368 . S
C1060 C1059 1.523 . S
C1061 C1045 1.429 . S
C1061 C1057 1.429 . S
C1061 C1062 1.523 . S
C1062 C1046 1.368 . S
C1062 C1058 1.368 . S
C1062 C1061 1.523 . S
H1063 C1038 0.950 . S
H1064 C1040 0.950 . S
H1065 C1041 0.949 . S
H1066 C1043 0.950 . S
H1067 C1045 0.950 . S
C1068 C1069 1.349 . S
C1068 C1070 1.327 . S
C1068 H1093 0.950 . S
C1069 C1068 1.349 . S
C1069 C1085 1.349 . S
C1070 C1068 1.327 . S
C1070 C1089 1.429 . S
C1070 H1094 0.950 . S
C1071 C1088 1.570 1_455 S
C1071 C1090 1.369 . S
C1071 H1095 0.938 . S
H1072 C1076 0.938 . S
C1073 C1074 1.349 . S
C1073 C1075 1.327 . S
C1073 H1096 0.950 . S
C1074 C1073 1.349 . S
C1074 C1086 1.349 . S
C1075 C1073 1.327 . S
C1075 C1091 1.429 . S
C1075 H1097 0.950 . S
C1076 H1072 0.938 . S
C1076 C1084 1.570 1_655 S
C1076 C1092 1.369 . S
H1077 C1085 0.950 . S
H1078 C1083 0.950 . S
H1079 C1084 0.949 . S
H1080 C1086 0.950 . S
H1081 C1087 0.950 . S
H1082 C1088 0.949 . S
C1083 H1078 0.950 . S
C1083 C1085 1.327 . S
C1083 C1089 1.429 . S
C1084 C1076 1.570 1_455 S
C1084 H1079 0.949 . S
C1084 C1090 1.368 . S
C1085 C1069 1.349 . S
C1085 H1077 0.950 . S
C1085 C1083 1.327 . S
C1086 C1074 1.349 . S
C1086 H1080 0.950 . S
C1086 C1087 1.327 . S
C1087 H1081 0.950 . S
C1087 C1086 1.327 . S
C1087 C1091 1.429 . S
C1088 C1071 1.570 1_655 S
C1088 H1082 0.949 . S
C1088 C1092 1.368 . S
C1089 C1070 1.429 . S
C1089 C1083 1.429 . S
C1089 C1090 1.523 . S
C1090 C1071 1.369 . S
C1090 C1084 1.368 . S
C1090 C1089 1.523 . S
C1091 C1075 1.429 . S
C1091 C1087 1.429 . S
C1091 C1092 1.523 . S
C1092 C1076 1.369 . S
C1092 C1088 1.368 . S
C1092 C1091 1.523 . S
H1093 C1068 0.950 . S
H1094 C1070 0.950 . S
H1095 C1071 0.938 . S
H1096 C1073 0.950 . S
H1097 C1075 0.950 . S
C1098 C1099 1.349 . S
C1098 C1100 1.327 . S
C1098 H1123 0.950 . S
C1099 C1098 1.349 . S
C1099 C1115 1.349 . S
C1100 C1098 1.327 . S
C1100 C1119 1.429 . S
C1100 H1124 0.950 . S
C1101 C1118 1.574 1_564 S
C1101 C1120 1.368 . S
C1101 H1125 0.949 . S
H1102 C1106 0.949 . S
C1103 C1104 1.349 . S
C1103 C1105 1.327 . S
C1103 H1126 0.950 . S
C1104 C1103 1.349 . S
C1104 C1116 1.349 . S
C1105 C1103 1.327 . S
C1105 C1121 1.429 . S
C1105 H1127 0.950 . S
C1106 H1102 0.949 . S
C1106 C1114 1.574 1_546 S
C1106 C1122 1.368 . S
H1107 C1115 0.950 . S
H1108 C1113 0.950 . S
H1109 C1114 0.949 . S
H1110 C1116 0.950 . S
H1111 C1117 0.950 . S
H1112 C1118 0.949 . S
C1113 H1108 0.950 . S
C1113 C1115 1.327 . S
C1113 C1119 1.429 . S
C1114 C1106 1.574 1_564 S
C1114 H1109 0.949 . S
C1114 C1120 1.368 . S
C1115 C1099 1.349 . S
C1115 H1107 0.950 . S
C1115 C1113 1.327 . S
C1116 C1104 1.349 . S
C1116 H1110 0.950 . S
C1116 C1117 1.327 . S
C1117 H1111 0.950 . S
C1117 C1116 1.327 . S
C1117 C1121 1.429 . S
C1118 C1101 1.574 1_546 S
C1118 H1112 0.949 . S
C1118 C1122 1.368 . S
C1119 C1100 1.429 . S
C1119 C1113 1.429 . S
C1119 C1120 1.523 . S
C1120 C1101 1.368 . S
C1120 C1114 1.368 . S
C1120 C1119 1.523 . S
C1121 C1105 1.429 . S
C1121 C1117 1.429 . S
C1121 C1122 1.523 . S
C1122 C1106 1.368 . S
C1122 C1118 1.368 . S
C1122 C1121 1.523 . S
H1123 C1098 0.950 . S
H1124 C1100 0.950 . S
H1125 C1101 0.949 . S
H1126 C1103 0.950 . S
H1127 C1105 0.950 . S
C1128 C1129 1.349 . S
C1128 C1130 1.327 . S
C1128 H1153 0.950 . S
C1129 C1128 1.349 . S
C1129 C1145 1.349 . S
C1130 C1128 1.327 . S
C1130 C1149 1.429 . S
C1130 H1154 0.950 . S
C1131 C1148 1.574 . S
C1131 C1150 1.368 . S
C1131 H1155 0.949 . S
H1132 C1136 0.949 . S
C1133 C1134 1.349 . S
C1133 C1135 1.327 . S
C1133 H1156 0.950 . S
C1134 C1133 1.349 . S
C1134 C1146 1.349 . S
C1135 C1133 1.327 . S
C1135 C1151 1.429 . S
C1135 H1157 0.950 . S
C1136 H1132 0.949 . S
C1136 C1144 1.574 . S
C1136 C1152 1.368 . S
H1137 C1145 0.950 . S
H1138 C1143 0.950 . S
H1139 C1144 0.949 . S
H1140 C1146 0.950 . S
H1141 C1147 0.950 . S
H1142 C1148 0.949 . S
C1143 H1138 0.950 . S
C1143 C1145 1.327 . S
C1143 C1149 1.429 . S
C1144 C1136 1.574 . S
C1144 H1139 0.949 . S
C1144 C1150 1.368 . S
C1145 C1129 1.349 . S
C1145 H1137 0.950 . S
C1145 C1143 1.327 . S
C1146 C1134 1.349 . S
C1146 H1140 0.950 . S
C1146 C1147 1.327 . S
C1147 H1141 0.950 . S
C1147 C1146 1.327 . S
C1147 C1151 1.429 . S
C1148 C1131 1.574 . S
C1148 H1142 0.949 . S
C1148 C1152 1.368 . S
C1149 C1130 1.429 . S
C1149 C1143 1.429 . S
C1149 C1150 1.523 . S
C1150 C1131 1.368 . S
C1150 C1144 1.368 . S
C1150 C1149 1.523 . S
C1151 C1135 1.429 . S
C1151 C1147 1.429 . S
C1151 C1152 1.523 . S
C1152 C1136 1.368 . S
C1152 C1148 1.368 . S
C1152 C1151 1.523 . S
H1153 C1128 0.950 . S
H1154 C1130 0.950 . S
H1155 C1131 0.949 . S
H1156 C1133 0.950 . S
H1157 C1135 0.950 . S
C1158 C1159 1.349 . S
C1158 C1160 1.327 . S
C1158 H1183 0.950 . S
C1159 C1158 1.349 . S
C1159 C1175 1.349 . S
C1160 C1158 1.327 . S
C1160 C1179 1.429 . S
C1160 H1184 0.950 . S
C1161 C1178 1.574 . S
C1161 C1180 1.368 . S
C1161 H1185 0.949 . S
H1162 C1166 0.949 . S
C1163 C1164 1.349 . S
C1163 C1165 1.327 . S
C1163 H1186 0.950 . S
C1164 C1163 1.349 . S
C1164 C1176 1.349 . S
C1165 C1163 1.327 . S
C1165 C1181 1.429 . S
C1165 H1187 0.950 . S
C1166 H1162 0.949 . S
C1166 C1174 1.574 . S
C1166 C1182 1.368 . S
H1167 C1175 0.950 . S
H1168 C1173 0.950 . S
H1169 C1174 0.949 . S
H1170 C1176 0.950 . S
H1171 C1177 0.950 . S
H1172 C1178 0.949 . S
C1173 H1168 0.950 . S
C1173 C1175 1.327 . S
C1173 C1179 1.429 . S
C1174 C1166 1.574 . S
C1174 H1169 0.949 . S
C1174 C1180 1.368 . S
C1175 C1159 1.349 . S
C1175 H1167 0.950 . S
C1175 C1173 1.327 . S
C1176 C1164 1.349 . S
C1176 H1170 0.950 . S
C1176 C1177 1.327 . S
C1177 H1171 0.950 . S
C1177 C1176 1.327 . S
C1177 C1181 1.429 . S
C1178 C1161 1.574 . S
C1178 H1172 0.949 . S
C1178 C1182 1.368 . S
C1179 C1160 1.429 . S
C1179 C1173 1.429 . S
C1179 C1180 1.523 . S
C1180 C1161 1.368 . S
C1180 C1174 1.368 . S
C1180 C1179 1.523 . S
C1181 C1165 1.429 . S
C1181 C1177 1.429 . S
C1181 C1182 1.523 . S
C1182 C1166 1.368 . S
C1182 C1178 1.368 . S
C1182 C1181 1.523 . S
H1183 C1158 0.950 . S
H1184 C1160 0.950 . S
H1185 C1161 0.949 . S
H1186 C1163 0.950 . S
H1187 C1165 0.950 . S
C1188 C1189 1.349 . S
C1188 C1190 1.327 . S
C1188 H1213 0.950 . S
C1189 C1188 1.349 . S
C1189 C1205 1.349 . S
C1190 C1188 1.327 . S
C1190 C1209 1.429 . S
C1190 H1214 0.950 . S
C1191 C1208 1.574 . S
C1191 C1210 1.368 . S
C1191 H1215 0.949 . S
H1192 C1196 0.949 . S
C1193 C1194 1.349 . S
C1193 C1195 1.327 . S
C1193 H1216 0.950 . S
C1194 C1193 1.349 . S
C1194 C1206 1.349 . S
C1195 C1193 1.327 . S
C1195 C1211 1.429 . S
C1195 H1217 0.950 . S
C1196 H1192 0.949 . S
C1196 C1204 1.574 . S
C1196 C1212 1.368 . S
H1197 C1205 0.950 . S
H1198 C1203 0.950 . S
H1199 C1204 0.949 . S
H1200 C1206 0.950 . S
H1201 C1207 0.950 . S
H1202 C1208 0.949 . S
C1203 H1198 0.950 . S
C1203 C1205 1.327 . S
C1203 C1209 1.429 . S
C1204 C1196 1.574 . S
C1204 H1199 0.949 . S
C1204 C1210 1.368 . S
C1205 C1189 1.349 . S
C1205 H1197 0.950 . S
C1205 C1203 1.327 . S
C1206 C1194 1.349 . S
C1206 H1200 0.950 . S
C1206 C1207 1.327 . S
C1207 H1201 0.950 . S
C1207 C1206 1.327 . S
C1207 C1211 1.429 . S
C1208 C1191 1.574 . S
C1208 H1202 0.949 . S
C1208 C1212 1.368 . S
C1209 C1190 1.429 . S
C1209 C1203 1.429 . S
C1209 C1210 1.523 . S
C1210 C1191 1.368 . S
C1210 C1204 1.368 . S
C1210 C1209 1.523 . S
C1211 C1195 1.429 . S
C1211 C1207 1.429 . S
C1211 C1212 1.523 . S
C1212 C1196 1.368 . S
C1212 C1208 1.368 . S
C1212 C1211 1.523 . S
H1213 C1188 0.950 . S
H1214 C1190 0.950 . S
H1215 C1191 0.949 . S
H1216 C1193 0.950 . S
H1217 C1195 0.950 . S
C1218 C1219 1.349 . S
C1218 C1220 1.327 . S
C1218 H1243 0.950 . S
C1219 C1218 1.349 . S
C1219 C1235 1.349 . S
C1220 C1218 1.327 . S
C1220 C1239 1.429 . S
C1220 H1244 0.950 . S
C1221 C1238 1.574 . S
C1221 C1240 1.368 . S
C1221 H1245 0.949 . S
H1222 C1226 0.949 . S
C1223 C1224 1.349 . S
C1223 C1225 1.327 . S
C1223 H1246 0.950 . S
C1224 C1223 1.349 . S
C1224 C1236 1.349 . S
C1225 C1223 1.327 . S
C1225 C1241 1.429 . S
C1225 H1247 0.950 . S
C1226 H1222 0.949 . S
C1226 C1234 1.574 . S
C1226 C1242 1.368 . S
H1227 C1235 0.950 . S
H1228 C1233 0.950 . S
H1229 C1234 0.949 . S
H1230 C1236 0.950 . S
H1231 C1237 0.950 . S
H1232 C1238 0.949 . S
C1233 H1228 0.950 . S
C1233 C1235 1.327 . S
C1233 C1239 1.429 . S
C1234 C1226 1.574 . S
C1234 H1229 0.949 . S
C1234 C1240 1.368 . S
C1235 C1219 1.349 . S
C1235 H1227 0.950 . S
C1235 C1233 1.327 . S
C1236 C1224 1.349 . S
C1236 H1230 0.950 . S
C1236 C1237 1.327 . S
C1237 H1231 0.950 . S
C1237 C1236 1.327 . S
C1237 C1241 1.429 . S
C1238 C1221 1.574 . S
C1238 H1232 0.949 . S
C1238 C1242 1.368 . S
C1239 C1220 1.429 . S
C1239 C1233 1.429 . S
C1239 C1240 1.523 . S
C1240 C1221 1.368 . S
C1240 C1234 1.368 . S
C1240 C1239 1.523 . S
C1241 C1225 1.429 . S
C1241 C1237 1.429 . S
C1241 C1242 1.523 . S
C1242 C1226 1.368 . S
C1242 C1238 1.368 . S
C1242 C1241 1.523 . S
H1243 C1218 0.950 . S
H1244 C1220 0.950 . S
H1245 C1221 0.949 . S
H1246 C1223 0.950 . S
H1247 C1225 0.950 . S
C1248 C1249 1.349 . S
C1248 C1250 1.327 . S
C1248 H1273 0.950 . S
C1249 C1248 1.349 . S
C1249 C1265 1.349 . S
C1250 C1248 1.327 . S
C1250 C1269 1.429 . S
C1250 H1274 0.950 . S
C1251 C1268 1.574 . S
C1251 C1270 1.368 . S
C1251 H1275 0.949 . S
H1252 C1256 0.949 . S
C1253 C1254 1.349 . S
C1253 C1255 1.327 . S
C1253 H1276 0.950 . S
C1254 C1253 1.349 . S
C1254 C1266 1.349 . S
C1255 C1253 1.327 . S
C1255 C1271 1.429 . S
C1255 H1277 0.950 . S
C1256 H1252 0.949 . S
C1256 C1264 1.574 . S
C1256 C1272 1.368 . S
H1257 C1265 0.950 . S
H1258 C1263 0.950 . S
H1259 C1264 0.949 . S
H1260 C1266 0.950 . S
H1261 C1267 0.950 . S
H1262 C1268 0.949 . S
C1263 H1258 0.950 . S
C1263 C1265 1.327 . S
C1263 C1269 1.429 . S
C1264 C1256 1.574 . S
C1264 H1259 0.949 . S
C1264 C1270 1.368 . S
C1265 C1249 1.349 . S
C1265 H1257 0.950 . S
C1265 C1263 1.327 . S
C1266 C1254 1.349 . S
C1266 H1260 0.950 . S
C1266 C1267 1.327 . S
C1267 H1261 0.950 . S
C1267 C1266 1.327 . S
C1267 C1271 1.429 . S
C1268 C1251 1.574 . S
C1268 H1262 0.949 . S
C1268 C1272 1.368 . S
C1269 C1250 1.429 . S
C1269 C1263 1.429 . S
C1269 C1270 1.523 . S
C1270 C1251 1.368 . S
C1270 C1264 1.368 . S
C1270 C1269 1.523 . S
C1271 C1255 1.429 . S
C1271 C1267 1.429 . S
C1271 C1272 1.523 . S
C1272 C1256 1.368 . S
C1272 C1268 1.368 . S
C1272 C1271 1.523 . S
H1273 C1248 0.950 . S
H1274 C1250 0.950 . S
H1275 C1251 0.949 . S
H1276 C1253 0.950 . S
H1277 C1255 0.950 . S
C1278 C1279 1.349 . S
C1278 C1280 1.327 . S
C1278 H1303 0.950 . S
C1279 C1278 1.349 . S
C1279 C1295 1.349 . S
C1280 C1278 1.327 . S
C1280 C1299 1.429 . S
C1280 H1304 0.950 . S
C1281 C1298 1.574 . S
C1281 C1300 1.368 . S
C1281 H1305 0.949 . S
H1282 C1286 0.949 . S
C1283 C1284 1.349 . S
C1283 C1285 1.327 . S
C1283 H1306 0.950 . S
C1284 C1283 1.349 . S
C1284 C1296 1.349 . S
C1285 C1283 1.327 . S
C1285 C1301 1.429 . S
C1285 H1307 0.950 . S
C1286 H1282 0.949 . S
C1286 C1294 1.574 . S
C1286 C1302 1.368 . S
H1287 C1295 0.950 . S
H1288 C1293 0.950 . S
H1289 C1294 0.949 . S
H1290 C1296 0.950 . S
H1291 C1297 0.950 . S
H1292 C1298 0.949 . S
C1293 H1288 0.950 . S
C1293 C1295 1.327 . S
C1293 C1299 1.429 . S
C1294 C1286 1.574 . S
C1294 H1289 0.949 . S
C1294 C1300 1.368 . S
C1295 C1279 1.349 . S
C1295 H1287 0.950 . S
C1295 C1293 1.327 . S
C1296 C1284 1.349 . S
C1296 H1290 0.950 . S
C1296 C1297 1.327 . S
C1297 H1291 0.950 . S
C1297 C1296 1.327 . S
C1297 C1301 1.429 . S
C1298 C1281 1.574 . S
C1298 H1292 0.949 . S
C1298 C1302 1.368 . S
C1299 C1280 1.429 . S
C1299 C1293 1.429 . S
C1299 C1300 1.523 . S
C1300 C1281 1.368 . S
C1300 C1294 1.368 . S
C1300 C1299 1.523 . S
C1301 C1285 1.429 . S
C1301 C1297 1.429 . S
C1301 C1302 1.523 . S
C1302 C1286 1.368 . S
C1302 C1298 1.368 . S
C1302 C1301 1.523 . S
H1303 C1278 0.950 . S
H1304 C1280 0.950 . S
H1305 C1281 0.949 . S
H1306 C1283 0.950 . S
H1307 C1285 0.950 . S
C409 C172 1.086 . S
C414 C5 1.086 . S
C439 C2 1.086 . S
C444 C39 1.086 . S
C469 C36 1.086 . S
C474 C73 1.086 . S
C499 C107 1.086 . S
C504 C70 1.086 . S
C529 C141 1.086 . S
C534 C104 1.086 . S
C559 C138 1.086 . S
C564 C175 1.086 . S
C589 C240 1.086 . S
C594 C209 1.086 . S
C619 C274 1.086 . S
C624 C243 1.086 . S
C649 C308 1.086 . S
C654 C277 1.086 . S
C679 C342 1.086 . S
C684 C311 1.086 . S
C709 C376 1.086 . S
C714 C345 1.086 . S
C739 C206 1.086 . S
C744 C379 1.086 . S
C769 C281 1.287 . S
C774 C9 1.287 . S
C799 C43 1.287 . S
C804 C315 1.287 . S
C829 C77 1.287 . S
C834 C349 1.287 . S
C859 C111 1.287 . S
C864 C383 1.287 . S
C889 C145 1.287 . S
C894 C213 1.287 . S
C919 C247 1.287 . S
C924 C179 1.287 . S
C949 C339 1.525 . S
C954 C33 1.525 . S
C979 C373 1.525 . S
C984 C67 1.525 . S
C1009 C101 1.525 . S
C1014 C407 1.525 . S
C1039 C135 1.525 . S
C1044 C237 1.525 . S
C1069 C169 1.525 . S
C1074 C271 1.525 . S
C1099 C305 1.525 . S
C1104 C203 1.525 . S
C1129 C20 1.482 . S
C1134 C224 1.482 . S
C1159 C258 1.482 . S
C1164 C54 1.482 . S
C1189 C88 1.482 . S
C1194 C292 1.482 . S
C1219 C326 1.482 . S
C1224 C122 1.482 . S
C1249 C360 1.482 . S
C1254 C156 1.482 . S
C1279 C394 1.482 . S
C1284 C190 1.482 . S
