# Generated by pormake.
# Topology bor-e, (5)-cn, num edge types: 1
# Building blocks:
#     Node 0, Type 0, BuildingBlock: BEQFEK_clean_sbu_0, # of connection points: 5
#     Node 1, Type 0, BuildingBlock: BEQFEK_clean_sbu_0, # of connection points: 5
#     Node 2, Type 0, BuildingBlock: BEQFEK_clean_sbu_0, # of connection points: 5
#     Node 3, Type 0, BuildingBlock: BEQFEK_clean_sbu_0, # of connection points: 5
#     Node 4, Type 0, BuildingBlock: BEQFEK_clean_sbu_0, # of connection points: 5
#     Node 5, Type 0, BuildingBlock: BEQFEK_clean_sbu_0, # of connection points: 5
#     Node 6, Type 0, BuildingBlock: BEQFEK_clean_sbu_0, # of connection points: 5
#     Node 7, Type 0, BuildingBlock: BEQFEK_clean_sbu_0, # of connection points: 5
#     Node 8, Type 0, BuildingBlock: BEQFEK_clean_sbu_0, # of connection points: 5
#     Node 9, Type 0, BuildingBlock: BEQFEK_clean_sbu_0, # of connection points: 5
#     Node 10, Type 0, BuildingBlock: BEQFEK_clean_sbu_0, # of connection points: 5
#     Node 11, Type 0, BuildingBlock: BEQFEK_clean_sbu_0, # of connection points: 5
#     Edge 12, Type (0, 0), BuildingBlock: TEMPAE_clean_linker_10, # of connection points: 2
#     Edge 13, Type (0, 0), BuildingBlock: TEMPAE_clean_linker_10, # of connection points: 2
#     Edge 14, Type (0, 0), BuildingBlock: TEMPAE_clean_linker_10, # of connection points: 2
#     Edge 15, Type (0, 0), BuildingBlock: TEMPAE_clean_linker_10, # of connection points: 2
#     Edge 16, Type (0, 0), BuildingBlock: TEMPAE_clean_linker_10, # of connection points: 2
#     Edge 17, Type (0, 0), BuildingBlock: TEMPAE_clean_linker_10, # of connection points: 2
#     Edge 18, Type (0, 0), BuildingBlock: TEMPAE_clean_linker_10, # of connection points: 2
#     Edge 19, Type (0, 0), BuildingBlock: TEMPAE_clean_linker_10, # of connection points: 2
#     Edge 20, Type (0, 0), BuildingBlock: TEMPAE_clean_linker_10, # of connection points: 2
#     Edge 21, Type (0, 0), BuildingBlock: TEMPAE_clean_linker_10, # of connection points: 2
#     Edge 22, Type (0, 0), BuildingBlock: TEMPAE_clean_linker_10, # of connection points: 2
#     Edge 23, Type (0, 0), BuildingBlock: TEMPAE_clean_linker_10, # of connection points: 2
#     Edge 24, Type (0, 0), BuildingBlock: TEMPAE_clean_linker_10, # of connection points: 2
#     Edge 25, Type (0, 0), BuildingBlock: TEMPAE_clean_linker_10, # of connection points: 2
#     Edge 26, Type (0, 0), BuildingBlock: TEMPAE_clean_linker_10, # of connection points: 2
#     Edge 27, Type (0, 0), BuildingBlock: TEMPAE_clean_linker_10, # of connection points: 2
#     Edge 28, Type (0, 0), BuildingBlock: TEMPAE_clean_linker_10, # of connection points: 2
#     Edge 29, Type (0, 0), BuildingBlock: TEMPAE_clean_linker_10, # of connection points: 2
#     Edge 30, Type (0, 0), BuildingBlock: TEMPAE_clean_linker_10, # of connection points: 2
#     Edge 31, Type (0, 0), BuildingBlock: TEMPAE_clean_linker_10, # of connection points: 2
#     Edge 32, Type (0, 0), BuildingBlock: TEMPAE_clean_linker_10, # of connection points: 2
#     Edge 33, Type (0, 0), BuildingBlock: TEMPAE_clean_linker_10, # of connection points: 2
#     Edge 34, Type (0, 0), BuildingBlock: TEMPAE_clean_linker_10, # of connection points: 2
#     Edge 35, Type (0, 0), BuildingBlock: TEMPAE_clean_linker_10, # of connection points: 2
#     Edge 36, Type (0, 0), BuildingBlock: TEMPAE_clean_linker_10, # of connection points: 2
#     Edge 37, Type (0, 0), BuildingBlock: TEMPAE_clean_linker_10, # of connection points: 2
#     Edge 38, Type (0, 0), BuildingBlock: TEMPAE_clean_linker_10, # of connection points: 2
#     Edge 39, Type (0, 0), BuildingBlock: TEMPAE_clean_linker_10, # of connection points: 2
#     Edge 40, Type (0, 0), BuildingBlock: TEMPAE_clean_linker_10, # of connection points: 2
#     Edge 41, Type (0, 0), BuildingBlock: TEMPAE_clean_linker_10, # of connection points: 2
# Relax obj value: 0.545
# Max RMSD: 0.275
# Mean RMSD: 0.275
data_MOF--net-bor-e--node1-BEQFEK_clean_sbu_0--edge1-TEMPAE_clean_linker_10
_symmetry_space_group_name_H-M    P1
_symmetry_Int_Tables_number       1
_symmetry_cell_setting            triclinic
loop_
_symmetry_equiv_pos_as_xyz
'x, y, z'
_cell_length_a     45.858771
_cell_length_b     45.887897
_cell_length_c     45.955102
_cell_angle_alpha  90.012681
_cell_angle_beta   89.950822
_cell_angle_gamma 90.294843
loop_
_atom_site_label
_atom_site_type_symbol
_atom_site_fract_x
_atom_site_fract_y
_atom_site_fract_z
_atom_type_partial_charge
Co0 Co 0.1026 0.12615 0.57537 0.0
Co1 Co 0.06921 0.15462 0.62688 0.0
C2 C 0.05887 0.17173 0.56425 0.0
O3 O 0.07837 0.15452 0.55486 0.0
O4 O 0.05348 0.17383 0.59135 0.0
C5 C 0.11594 0.09584 0.52457 0.0
O6 O 0.08955 0.10469 0.51796 0.0
C7 C 0.06163 0.20398 0.66515 0.0
C8 C 0.03524 0.18574 0.7011 0.0
C9 C 0.04939 0.21093 0.69189 0.0
N10 N 0.05513 0.17612 0.65906 0.0
N11 N 0.03895 0.1654 0.68034 0.0
C12 C 0.08171 0.2222 0.64688 0.0
H13 H 0.09315 0.20863 0.63055 0.0
H14 H 0.0979 0.23364 0.66079 0.0
H15 H 0.0688 0.23877 0.63503 0.0
C16 C 0.15255 0.13765 0.61231 0.0
N17 N 0.12465 0.14284 0.60527 0.0
N18 N 0.11075 0.15293 0.62813 0.0
C19 C 0.12937 0.15377 0.65083 0.0
C20 C 0.15648 0.14396 0.64154 0.0
C21 C 0.17349 0.12191 0.59294 0.0
H22 H 0.1727 0.13133 0.57072 0.0
H23 H 0.1961 0.12346 0.60143 0.0
H24 H 0.16705 0.09861 0.59156 0.0
O25 O 0.07742 0.09512 0.59203 0.0
O26 O 0.05331 0.11452 0.62909 0.0
H27 H 0.09897 0.14578 0.68549 0.0
H28 H 0.13639 0.14966 0.6974 0.0
C29 C 0.1198 0.1576 0.68178 0.0
H30 H 0.11608 0.18108 0.686 0.0
H31 H 0.03134 0.14395 0.68117 0.0
O32 O 0.12757 0.10507 0.54785 0.0
C33 C 0.05932 0.09281 0.61295 0.0
Co34 Co 0.10117 0.86726 0.40767 0.0
Co35 Co 0.06323 0.83832 0.35954 0.0
C36 C 0.06548 0.81588 0.42175 0.0
O37 O 0.08472 0.83445 0.4293 0.0
O38 O 0.05564 0.81527 0.39581 0.0
C39 C 0.12058 0.89623 0.45768 0.0
O40 O 0.09712 0.88376 0.46857 0.0
C41 C 0.05772 0.79214 0.31727 0.0
C42 C 0.02188 0.80698 0.2889 0.0
C43 C 0.04253 0.78529 0.29218 0.0
N44 N 0.04702 0.81701 0.32809 0.0
N45 N 0.02528 0.82562 0.31135 0.0
C46 C 0.0819 0.77525 0.33108 0.0
H47 H 0.08296 0.77995 0.35474 0.0
H48 H 0.10305 0.78167 0.32127 0.0
H49 H 0.0787 0.75153 0.32741 0.0
C50 C 0.14651 0.86216 0.36349 0.0
N51 N 0.1197 0.85562 0.37343 0.0
N52 N 0.10361 0.84548 0.35201 0.0
C53 C 0.11958 0.84632 0.3273 0.0
C54 C 0.14737 0.85636 0.33399 0.0
C55 C 0.16959 0.87709 0.3811 0.0
H56 H 0.1635 0.90026 0.38425 0.0
H57 H 0.17118 0.86667 0.40281 0.0
H58 H 0.19111 0.87617 0.37006 0.0
O59 O 0.06947 0.89521 0.3986 0.0
O60 O 0.04274 0.87594 0.36321 0.0
H61 H 0.08344 0.84806 0.29735 0.0
H62 H 0.118 0.85933 0.2822 0.0
C63 C 0.10717 0.84375 0.29726 0.0
H64 H 0.11119 0.82154 0.28881 0.0
H65 H 0.01349 0.84473 0.31463 0.0
O66 O 0.12817 0.88988 0.43194 0.0
C67 C 0.04815 0.89664 0.3809 0.0
Co68 Co 0.88842 0.88336 0.58004 0.0
Co69 Co 0.92063 0.84941 0.62893 0.0
C70 C 0.92213 0.83054 0.56603 0.0
O71 O 0.90462 0.85046 0.5584 0.0
O72 O 0.93028 0.82812 0.59236 0.0
C73 C 0.84221 0.89993 0.539 0.0
O74 O 0.82932 0.87462 0.54298 0.0
C75 C 0.92711 0.79767 0.66449 0.0
C76 C 0.94243 0.81591 0.70624 0.0
C77 C 0.93177 0.79056 0.69353 0.0
N78 N 0.93311 0.82611 0.66082 0.0
N79 N 0.94328 0.83668 0.68557 0.0
C80 C 0.91718 0.77812 0.6403 0.0
H81 H 0.92983 0.78289 0.62038 0.0
H82 H 0.89383 0.78223 0.63561 0.0
H83 H 0.92056 0.75482 0.64567 0.0
C84 C 0.84124 0.8831 0.62354 0.0
N85 N 0.86662 0.8727 0.61308 0.0
N86 N 0.87974 0.85754 0.63353 0.0
C87 C 0.86248 0.85715 0.65739 0.0
C88 C 0.83768 0.87335 0.65182 0.0
C89 C 0.82303 0.90561 0.60859 0.0
H90 H 0.83725 0.9224 0.59848 0.0
H91 H 0.80991 0.89492 0.5914 0.0
H92 H 0.80761 0.91633 0.62374 0.0
O93 O 0.92031 0.90926 0.59261 0.0
O94 O 0.94278 0.887 0.62909 0.0
H95 H 0.89099 0.85862 0.69407 0.0
H96 H 0.85408 0.84862 0.70308 0.0
C97 C 0.87162 0.84619 0.68663 0.0
H98 H 0.87721 0.82282 0.685 0.0
H99 H 0.94872 0.85853 0.68891 0.0
O100 O 0.86549 0.9063 0.55255 0.0
C101 C 0.93988 0.90888 0.61223 0.0
Co102 Co 0.86762 0.10465 0.41374 0.0
Co103 Co 0.90742 0.13545 0.3683 0.0
C104 C 0.90266 0.15554 0.43101 0.0
O105 O 0.88406 0.13605 0.4379 0.0
O106 O 0.91276 0.15729 0.40526 0.0
C107 C 0.82648 0.08696 0.45978 0.0
O108 O 0.83386 0.11028 0.4747 0.0
C109 C 0.91366 0.18373 0.32926 0.0
C110 C 0.95096 0.17179 0.30134 0.0
C111 C 0.92963 0.19269 0.30536 0.0
N112 N 0.92458 0.15845 0.33871 0.0
N113 N 0.94719 0.15153 0.32229 0.0
C114 C 0.88829 0.19886 0.34306 0.0
H115 H 0.88672 0.19307 0.36644 0.0
H116 H 0.86778 0.19183 0.33235 0.0
H117 H 0.89043 0.22284 0.34056 0.0
C118 C 0.82457 0.11123 0.36748 0.0
N119 N 0.85053 0.11821 0.37922 0.0
N120 N 0.86776 0.12859 0.35882 0.0
C121 C 0.85364 0.12736 0.33309 0.0
C122 C 0.8257 0.11667 0.3379 0.0
C123 C 0.80069 0.09554 0.38332 0.0
H124 H 0.80708 0.07247 0.38648 0.0
H125 H 0.79726 0.10568 0.40495 0.0
H126 H 0.77997 0.09614 0.37086 0.0
O127 O 0.89905 0.07627 0.40399 0.0
O128 O 0.92758 0.09776 0.37122 0.0
H129 H 0.89173 0.12436 0.30582 0.0
H130 H 0.85785 0.1156 0.28769 0.0
C131 C 0.86833 0.13001 0.30407 0.0
H132 H 0.86643 0.15273 0.29622 0.0
H133 H 0.95936 0.13253 0.32474 0.0
O134 O 0.83841 0.08198 0.43537 0.0
C135 C 0.92113 0.07587 0.38707 0.0
Co136 Co 0.57228 0.08755 0.09909 0.0
Co137 Co 0.62067 0.05573 0.13397 0.0
C138 C 0.55987 0.0598 0.15681 0.0
O139 O 0.55228 0.07485 0.13487 0.0
O140 O 0.58603 0.05113 0.15961 0.0
C141 C 0.5336 0.13548 0.0807 0.0
O142 O 0.54096 0.15062 0.10383 0.0
C143 C 0.66176 0.04889 0.1814 0.0
C144 C 0.69652 0.0226 0.16109 0.0
C145 C 0.68935 0.03752 0.18635 0.0
N146 N 0.65348 0.04147 0.15439 0.0
N147 N 0.67398 0.02516 0.14259 0.0
C148 C 0.64488 0.06954 0.20016 0.0
H149 H 0.6334 0.05701 0.21739 0.0
H150 H 0.62838 0.08131 0.18707 0.0
H151 H 0.65966 0.08556 0.21075 0.0
C152 C 0.61829 0.13299 0.09466 0.0
N153 N 0.60752 0.10794 0.10573 0.0
N154 N 0.62776 0.09519 0.12147 0.0
C155 C 0.65184 0.11234 0.12159 0.0
C156 C 0.6465 0.13689 0.1047 0.0
C157 C 0.60401 0.15031 0.07104 0.0
H158 H 0.5902 0.13602 0.0573 0.0
H159 H 0.59041 0.16757 0.08095 0.0
H160 H 0.62052 0.16107 0.05695 0.0
O161 O 0.5804 0.05301 0.07519 0.0
O162 O 0.61494 0.02979 0.0996 0.0
H163 H 0.68819 0.08416 0.12897 0.0
H164 H 0.69641 0.12235 0.13461 0.0
C165 C 0.67958 0.10516 0.13713 0.0
H166 H 0.67507 0.10302 0.16064 0.0
H167 H 0.67323 0.01709 0.12137 0.0
O168 O 0.5445 0.11049 0.07625 0.0
C169 C 0.59778 0.03167 0.07789 0.0
Co170 Co 0.11059 0.4268 0.88989 0.0
Co171 Co 0.13966 0.37044 0.91407 0.0
C172 C 0.164 0.43104 0.92502 0.0
O173 O 0.14467 0.44333 0.90947 0.0
O174 O 0.16421 0.40348 0.92846 0.0
C175 C 0.08705 0.48068 0.85859 0.0
O176 O 0.11229 0.4913 0.85003 0.0
C177 C 0.18618 0.32797 0.90952 0.0
C178 C 0.16859 0.29055 0.93429 0.0
C179 C 0.19193 0.29921 0.91704 0.0
N180 N 0.16059 0.33558 0.92144 0.0
N181 N 0.15039 0.31334 0.93665 0.0
C182 C 0.20282 0.34713 0.88893 0.0
H183 H 0.18924 0.36565 0.88161 0.0
H184 H 0.21036 0.33444 0.86981 0.0
H185 H 0.22219 0.35621 0.90026 0.0
C186 C 0.11222 0.39363 0.83531 0.0
N187 N 0.12027 0.39756 0.86318 0.0
N188 N 0.13109 0.37314 0.87347 0.0
C189 C 0.12976 0.35266 0.85247 0.0
C190 C 0.11807 0.36509 0.82754 0.0
C191 C 0.09628 0.41581 0.81766 0.0
H192 H 0.10793 0.43699 0.81898 0.0
H193 H 0.09454 0.40909 0.79452 0.0
H194 H 0.07407 0.41875 0.82677 0.0
O195 O 0.08395 0.41011 0.91909 0.0
O196 O 0.1025 0.36921 0.93647 0.0
H197 H 0.12145 0.30722 0.84211 0.0
H198 H 0.15747 0.31542 0.85513 0.0
C199 C 0.13406 0.32072 0.85774 0.0
H200 H 0.1271 0.31493 0.88009 0.0
H201 H 0.13043 0.3133 0.94757 0.0
O202 O 0.08578 0.45691 0.87266 0.0
C203 C 0.08211 0.38793 0.93557 0.0
Co204 Co 0.41022 0.88553 0.09327 0.0
Co205 Co 0.35878 0.9128 0.12807 0.0
C206 C 0.42076 0.91544 0.14965 0.0
O207 O 0.4298 0.90047 0.12817 0.0
O208 O 0.39385 0.92167 0.15239 0.0
C209 C 0.4597 0.84972 0.07056 0.0
O210 O 0.46454 0.8379 0.09612 0.0
C211 C 0.31738 0.91507 0.17624 0.0
C212 C 0.28104 0.93976 0.15674 0.0
C213 C 0.28916 0.92468 0.18158 0.0
N214 N 0.32511 0.92363 0.14938 0.0
N215 N 0.3036 0.93891 0.13807 0.0
C216 C 0.3356 0.89523 0.19453 0.0
H217 H 0.34613 0.9081 0.21209 0.0
H218 H 0.35296 0.88501 0.1812 0.0
H219 H 0.32187 0.87803 0.2047 0.0
C220 C 0.37016 0.83508 0.0911 0.0
N221 N 0.37797 0.86139 0.10159 0.0
N222 N 0.35605 0.8727 0.11618 0.0
C223 C 0.33348 0.8537 0.11551 0.0
C224 C 0.34162 0.8293 0.09951 0.0
C225 C 0.3882 0.81814 0.06992 0.0
H226 H 0.39527 0.83266 0.05192 0.0
H227 H 0.40805 0.81016 0.08109 0.0
H228 H 0.3761 0.79934 0.06066 0.0
O229 O 0.39711 0.91867 0.06998 0.0
O230 O 0.35973 0.93833 0.09309 0.0
H231 H 0.29515 0.87988 0.11983 0.0
H232 H 0.28859 0.84128 0.12505 0.0
C233 C 0.3042 0.85939 0.12876 0.0
H234 H 0.30668 0.86187 0.15255 0.0
H235 H 0.30379 0.94762 0.11709 0.0
O236 O 0.43881 0.86742 0.06718 0.0
C237 C 0.37718 0.93771 0.07156 0.0
Co238 Co 0.864 0.55705 0.86867 0.0
Co239 Co 0.84822 0.60951 0.91006 0.0
C240 C 0.81879 0.55177 0.91569 0.0
O241 O 0.83419 0.5412 0.89531 0.0
O242 O 0.82127 0.57834 0.923 0.0
C243 C 0.88111 0.51455 0.81828 0.0
O244 O 0.86877 0.49571 0.80055 0.0
C245 C 0.80814 0.65554 0.92193 0.0
C246 C 0.83394 0.68815 0.94624 0.0
C247 C 0.80706 0.68354 0.9331 0.0
N248 N 0.83437 0.64423 0.9279 0.0
N249 N 0.84953 0.66348 0.94312 0.0
C250 C 0.7865 0.64141 0.90192 0.0
H251 H 0.79561 0.62148 0.89186 0.0
H252 H 0.77987 0.65691 0.88464 0.0
H253 H 0.76675 0.63519 0.91446 0.0
C254 C 0.85532 0.60285 0.8245 0.0
N255 N 0.85279 0.59307 0.85205 0.0
N256 N 0.8493 0.61543 0.86951 0.0
C257 C 0.85156 0.64024 0.85401 0.0
C258 C 0.85507 0.63314 0.82482 0.0
C259 C 0.85889 0.58356 0.7985 0.0
H260 H 0.84414 0.56444 0.80039 0.0
H261 H 0.8537 0.59537 0.7781 0.0
H262 H 0.88169 0.57574 0.7974 0.0
O263 O 0.90088 0.56292 0.89283 0.0
O264 O 0.88794 0.59948 0.92227 0.0
H265 H 0.87083 0.68358 0.85356 0.0
H266 H 0.8359 0.68061 0.87125 0.0
C267 C 0.85701 0.66951 0.86757 0.0
H268 H 0.86842 0.66692 0.88861 0.0
H269 H 0.87113 0.66057 0.94959 0.0
O270 O 0.86489 0.5276 0.83654 0.0
C271 C 0.90662 0.58082 0.91358 0.0
Co272 Co 0.58084 0.85678 0.86106 0.0
Co273 Co 0.62951 0.90272 0.84506 0.0
C274 C 0.56978 0.90798 0.82108 0.0
O275 O 0.56148 0.88563 0.83529 0.0
O276 O 0.59622 0.91627 0.82161 0.0
C277 C 0.53762 0.80515 0.87373 0.0
O278 O 0.5246 0.78377 0.85975 0.0
C279 C 0.6729 0.92569 0.80622 0.0
C280 C 0.70437 0.94757 0.83538 0.0
C281 C 0.69995 0.93933 0.80664 0.0
N282 N 0.66214 0.92552 0.83335 0.0
N283 N 0.68058 0.93938 0.85062 0.0
C284 C 0.65967 0.90864 0.7817 0.0
H285 H 0.64147 0.89471 0.78958 0.0
H286 H 0.6764 0.89482 0.7711 0.0
H287 H 0.65105 0.92395 0.76517 0.0
C288 C 0.62991 0.81736 0.85129 0.0
N289 N 0.61777 0.84379 0.84756 0.0
N290 N 0.63839 0.86276 0.84122 0.0
C291 C 0.66436 0.84901 0.84134 0.0
C292 C 0.65982 0.81978 0.84763 0.0
C293 C 0.61413 0.79162 0.86382 0.0
H294 H 0.59628 0.78506 0.84889 0.0
H295 H 0.62886 0.77275 0.86693 0.0
H296 H 0.60438 0.79766 0.88503 0.0
O297 O 0.58635 0.8771 0.89958 0.0
O298 O 0.6204 0.90959 0.88637 0.0
H299 H 0.71139 0.84913 0.8472 0.0
H300 H 0.69784 0.87398 0.82047 0.0
C301 C 0.69333 0.86427 0.84206 0.0
H302 H 0.69292 0.88184 0.85859 0.0
H303 H 0.67789 0.94142 0.87308 0.0
O304 O 0.55475 0.82171 0.85947 0.0
C305 C 0.60353 0.89841 0.90553 0.0
Co306 Co 0.87398 0.41584 0.11142 0.0
Co307 Co 0.84202 0.36528 0.07823 0.0
C308 C 0.82029 0.42656 0.07614 0.0
O309 O 0.84044 0.4352 0.09313 0.0
O310 O 0.81817 0.39991 0.06877 0.0
C311 C 0.89 0.456 0.16016 0.0
O312 O 0.86728 0.44758 0.17545 0.0
C313 C 0.79468 0.32324 0.06978 0.0
C314 C 0.81525 0.28984 0.04205 0.0
C315 C 0.78978 0.29643 0.05678 0.0
N316 N 0.82194 0.33197 0.06338 0.0
N317 N 0.83395 0.31218 0.04631 0.0
C318 C 0.77394 0.34029 0.08822 0.0
H319 H 0.75702 0.34999 0.074 0.0
H320 H 0.78557 0.35806 0.09988 0.0
H321 H 0.76267 0.32591 0.10407 0.0
C322 C 0.87521 0.3712 0.15747 0.0
N323 N 0.86436 0.38173 0.13235 0.0
N324 N 0.84959 0.36095 0.11901 0.0
C325 C 0.84966 0.3369 0.13593 0.0
C326 C 0.8659 0.34268 0.16074 0.0
C327 C 0.89939 0.38533 0.17435 0.0
H328 H 0.91266 0.39957 0.16006 0.0
H329 H 0.88988 0.39831 0.19231 0.0
H330 H 0.914 0.36884 0.18418 0.0
O331 O 0.90183 0.40459 0.08108 0.0
O332 O 0.88028 0.36825 0.05734 0.0
H333 H 0.84642 0.30036 0.10702 0.0
H334 H 0.83908 0.29149 0.14472 0.0
C335 C 0.83645 0.30821 0.12754 0.0
H336 H 0.81282 0.31111 0.12414 0.0
H337 H 0.85528 0.31339 0.03847 0.0
O338 O 0.8949 0.4451 0.13523 0.0
C339 C 0.90206 0.38522 0.06127 0.0
Co340 Co 0.41322 0.11329 0.86492 0.0
Co341 Co 0.36648 0.07504 0.83378 0.0
C342 C 0.43111 0.06905 0.82163 0.0
O343 O 0.43795 0.08935 0.83929 0.0
O344 O 0.40453 0.06215 0.81714 0.0
C345 C 0.4636 0.14578 0.88701 0.0
O346 O 0.47979 0.13092 0.86872 0.0
C347 C 0.32801 0.06667 0.78461 0.0
C348 C 0.29392 0.0379 0.80299 0.0
C349 C 0.3008 0.05464 0.77877 0.0
N350 N 0.33628 0.05805 0.81124 0.0
N351 N 0.31628 0.04013 0.82179 0.0
C352 C 0.3442 0.08913 0.76721 0.0
H353 H 0.36288 0.0981 0.77968 0.0
H354 H 0.32936 0.107 0.76068 0.0
H355 H 0.35283 0.0789 0.74713 0.0
C356 C 0.37322 0.15977 0.84936 0.0
N357 N 0.38264 0.13232 0.84563 0.0
N358 N 0.36136 0.11626 0.83501 0.0
C359 C 0.33725 0.13289 0.83271 0.0
C360 C 0.34408 0.16107 0.84154 0.0
C361 C 0.39023 0.18306 0.86471 0.0
H362 H 0.39051 0.17835 0.88839 0.0
H363 H 0.41304 0.1833 0.85664 0.0
H364 H 0.38036 0.20481 0.86121 0.0
O365 O 0.39659 0.08752 0.89542 0.0
O366 O 0.36331 0.05979 0.87376 0.0
H367 H 0.30555 0.09858 0.83823 0.0
H368 H 0.2905 0.13476 0.8397 0.0
C369 C 0.30702 0.12082 0.82896 0.0
H370 H 0.3017 0.11985 0.80547 0.0
H371 H 0.31687 0.03119 0.84266 0.0
O372 O 0.43623 0.14177 0.88723 0.0
C373 C 0.37724 0.06753 0.89645 0.0
Co374 Co 0.10516 0.56083 0.09949 0.0
Co375 Co 0.13901 0.60922 0.06518 0.0
C376 C 0.16499 0.55042 0.07706 0.0
O377 O 0.14297 0.54211 0.09178 0.0
O378 O 0.16585 0.57563 0.06561 0.0
C379 C 0.08489 0.52615 0.14983 0.0
O380 O 0.10692 0.53628 0.16509 0.0
C381 C 0.18744 0.64972 0.05988 0.0
C382 C 0.17252 0.68105 0.02668 0.0
C383 C 0.19536 0.67502 0.04543 0.0
N384 N 0.16102 0.64131 0.05042 0.0
N385 N 0.15234 0.65986 0.03024 0.0
C386 C 0.20469 0.63331 0.0821 0.0
H387 H 0.21718 0.61597 0.07087 0.0
H388 H 0.18985 0.62261 0.09796 0.0
H389 H 0.22043 0.64764 0.09361 0.0
C390 C 0.09514 0.61036 0.13964 0.0
N391 N 0.10851 0.59818 0.11655 0.0
N392 N 0.12399 0.61826 0.10296 0.0
C393 C 0.12183 0.64361 0.11774 0.0
C394 C 0.10355 0.6393 0.14149 0.0
C395 C 0.07086 0.59638 0.1565 0.0
H396 H 0.0589 0.58053 0.14274 0.0
H397 H 0.08003 0.58517 0.17575 0.0
H398 H 0.05517 0.61293 0.16442 0.0
O399 O 0.08364 0.56488 0.06274 0.0
O400 O 0.10573 0.6003 0.03806 0.0
H401 H 0.12992 0.67761 0.08678 0.0
H402 H 0.13209 0.68952 0.12429 0.0
C403 C 0.13672 0.67141 0.10907 0.0
H404 H 0.16057 0.66802 0.1091 0.0
H405 H 0.13234 0.6585 0.01949 0.0
O406 O 0.08151 0.534 0.12354 0.0
C407 C 0.08542 0.58127 0.04045 0.0
C408 C 0.07656 0.34774 0.79736 0.0
C409 C 0.10665 0.34895 0.80232 0.0
C410 C 0.06483 0.32821 0.777 0.0
C411 C 0.08379 0.30961 0.76141 0.0
C412 C 0.11436 0.31211 0.76514 0.0
C413 C 0.12543 0.33171 0.78578 0.0
C414 C 0.03214 0.32603 0.77376 0.0
C415 C 0.13526 0.29282 0.74871 0.0
C416 C 0.05878 0.23402 0.7399 0.0
C417 C 0.05481 0.23711 0.70985 0.0
C418 C 0.06719 0.25779 0.7571 0.0
C419 C 0.07175 0.28529 0.74386 0.0
C420 C 0.06633 0.28892 0.71379 0.0
C421 C 0.05761 0.26477 0.69716 0.0
C422 C 0.07236 0.25318 0.78924 0.0
C423 C 0.07078 0.31799 0.69904 0.0
H424 H 0.06208 0.36084 0.8106 0.0
H425 H 0.1487 0.33271 0.7899 0.0
H426 H 0.0259 0.32505 0.75047 0.0
H427 H 0.02428 0.30563 0.78417 0.0
H428 H 0.02081 0.34471 0.78411 0.0
H429 H 0.15832 0.29974 0.75169 0.0
H430 H 0.13293 0.27003 0.75646 0.0
H431 H 0.13011 0.29296 0.72512 0.0
H432 H 0.05642 0.21272 0.74986 0.0
H433 H 0.05334 0.26755 0.67419 0.0
H434 H 0.05986 0.2693 0.80213 0.0
H435 H 0.0958 0.25658 0.79426 0.0
H436 H 0.06599 0.23093 0.79645 0.0
H437 H 0.05857 0.33524 0.71069 0.0
H438 H 0.06369 0.31765 0.67593 0.0
H439 H 0.09422 0.32409 0.69982 0.0
C440 C 0.18479 0.84659 0.29616 0.0
C441 C 0.16956 0.86658 0.31324 0.0
C442 C 0.20558 0.85621 0.27588 0.0
C443 C 0.21049 0.88651 0.27228 0.0
C444 C 0.19499 0.90674 0.28958 0.0
C445 C 0.17481 0.89646 0.31008 0.0
C446 C 0.22203 0.83403 0.25809 0.0
C447 C 0.19913 0.9392 0.28588 0.0
C448 C 0.27926 0.91235 0.23394 0.0
C449 C 0.26917 0.91621 0.20543 0.0
C450 C 0.26043 0.90257 0.256 0.0
C451 C 0.23075 0.89711 0.24941 0.0
C452 C 0.22026 0.90183 0.22088 0.0
C453 C 0.23961 0.91129 0.19924 0.0
C454 C 0.2723 0.8978 0.28624 0.0
C455 C 0.18866 0.89657 0.21311 0.0
H456 H 0.18046 0.82348 0.29878 0.0
H457 H 0.1626 0.91177 0.32324 0.0
H458 H 0.21654 0.83656 0.23473 0.0
H459 H 0.24586 0.83771 0.2603 0.0
H460 H 0.21689 0.81131 0.26478 0.0
H461 H 0.18599 0.95193 0.30167 0.0
H462 H 0.22244 0.94513 0.28865 0.0
H463 H 0.19275 0.94569 0.26353 0.0
H464 H 0.30181 0.91707 0.2391 0.0
H465 H 0.23166 0.91426 0.17724 0.0
H466 H 0.2687 0.87481 0.29288 0.0
H467 H 0.26051 0.9117 0.30206 0.0
H468 H 0.29599 0.90281 0.28771 0.0
H469 H 0.18292 0.87334 0.21678 0.0
H470 H 0.18386 0.90209 0.19008 0.0
H471 H 0.17434 0.90977 0.22738 0.0
C472 C 0.89736 0.74827 0.70048 0.0
C473 C 0.92158 0.76458 0.70993 0.0
C474 C 0.88676 0.72465 0.71665 0.0
C475 C 0.89904 0.71866 0.74414 0.0
C476 C 0.92284 0.73553 0.75439 0.0
C477 C 0.93419 0.75792 0.73688 0.0
C478 C 0.86195 0.70657 0.70451 0.0
C479 C 0.93562 0.73064 0.78427 0.0
C480 C 0.85045 0.68066 0.7991 0.0
C481 C 0.86386 0.65341 0.80132 0.0
C482 C 0.86181 0.70224 0.78071 0.0
C483 C 0.88605 0.6957 0.76281 0.0
C484 C 0.89832 0.6675 0.76337 0.0
C485 C 0.88761 0.64693 0.78326 0.0
C486 C 0.84878 0.73241 0.78153 0.0
C487 C 0.92324 0.65928 0.74354 0.0
H488 H 0.88572 0.75435 0.68103 0.0
H489 H 0.95245 0.77081 0.7447 0.0
H490 H 0.86648 0.68299 0.70721 0.0
H491 H 0.84158 0.71139 0.71654 0.0
H492 H 0.85816 0.71106 0.68107 0.0
H493 H 0.95358 0.74619 0.78927 0.0
H494 H 0.91835 0.73303 0.80103 0.0
H495 H 0.94416 0.70815 0.78604 0.0
H496 H 0.83191 0.68557 0.81288 0.0
H497 H 0.89858 0.62621 0.7853 0.0
H498 H 0.84049 0.7385 0.75974 0.0
H499 H 0.86584 0.74858 0.78751 0.0
H500 H 0.83057 0.73408 0.79741 0.0
H501 H 0.91829 0.66568 0.72079 0.0
H502 H 0.92776 0.63552 0.7441 0.0
H503 H 0.9433 0.67112 0.75016 0.0
C504 C 0.70022 0.04982 0.23838 0.0
C505 C 0.70996 0.0453 0.20984 0.0
C506 C 0.71912 0.06077 0.25975 0.0
C507 C 0.74859 0.06654 0.2525 0.0
C508 C 0.75894 0.06044 0.22417 0.0
C509 C 0.73945 0.04995 0.20313 0.0
C510 C 0.70737 0.06695 0.28982 0.0
C511 C 0.79038 0.06579 0.21583 0.0
C512 C 0.79084 0.12216 0.2969 0.0
C513 C 0.8061 0.10408 0.31591 0.0
C514 C 0.77174 0.11019 0.27623 0.0
C515 C 0.76849 0.07951 0.2744 0.0
C516 C 0.7844 0.06122 0.29333 0.0
C517 C 0.80296 0.0738 0.31402 0.0
C518 C 0.7549 0.13033 0.25651 0.0
C519 C 0.78194 0.02843 0.29161 0.0
H520 H 0.67773 0.04519 0.24395 0.0
H521 H 0.74715 0.04635 0.18112 0.0
H522 H 0.72011 0.05489 0.30637 0.0
H523 H 0.70976 0.09052 0.29477 0.0
H524 H 0.68402 0.0608 0.29205 0.0
H525 H 0.79533 0.05817 0.19342 0.0
H526 H 0.79539 0.08943 0.21716 0.0
H527 H 0.80511 0.05453 0.23126 0.0
H528 H 0.79359 0.14559 0.2985 0.0
H529 H 0.81526 0.05998 0.32863 0.0
H530 H 0.73115 0.12639 0.25915 0.0
H531 H 0.7604 0.12578 0.23345 0.0
H532 H 0.75957 0.15366 0.26109 0.0
H533 H 0.75903 0.02152 0.29534 0.0
H534 H 0.79604 0.01737 0.30781 0.0
H535 H 0.78816 0.02089 0.26953 0.0
C536 C 0.08186 0.68748 0.15442 0.0
C537 C 0.09333 0.66068 0.16316 0.0
C538 C 0.0722 0.70777 0.17506 0.0
C539 C 0.07328 0.70055 0.205 0.0
C540 C 0.08389 0.67304 0.21382 0.0
C541 C 0.09407 0.65353 0.19276 0.0
C542 C 0.06141 0.73708 0.16491 0.0
C543 C 0.08492 0.66441 0.24551 0.0
C544 C 0.07895 0.76104 0.26058 0.0
C545 C 0.05011 0.76321 0.27028 0.0
C546 C 0.08666 0.74097 0.23903 0.0
C547 C 0.065 0.72239 0.22724 0.0
C548 C 0.03576 0.72448 0.23696 0.0
C549 C 0.02856 0.74527 0.25817 0.0
C550 C 0.11795 0.73983 0.22877 0.0
C551 C 0.01224 0.70461 0.22518 0.0
H552 H 0.08044 0.69258 0.13144 0.0
H553 H 0.1028 0.63266 0.19944 0.0
H554 H 0.0389 0.74079 0.17287 0.0
H555 H 0.07535 0.75462 0.17414 0.0
H556 H 0.06154 0.73906 0.14081 0.0
H557 H 0.0917 0.6414 0.24852 0.0
H558 H 0.10051 0.67869 0.25732 0.0
H559 H 0.06319 0.66739 0.2557 0.0
H560 H 0.09544 0.77552 0.26934 0.0
H561 H 0.00622 0.74722 0.26564 0.0
H562 H 0.11895 0.74337 0.2049 0.0
H563 H 0.12717 0.71798 0.23317 0.0
H564 H 0.13191 0.75645 0.23959 0.0
H565 H 0.01036 0.70736 0.20128 0.0
H566 H 0.99064 0.70891 0.23521 0.0
H567 H 0.01813 0.68154 0.22926 0.0
C568 C 0.82131 0.91473 0.68255 0.0
C569 C 0.81796 0.88566 0.67387 0.0
C570 C 0.80325 0.92671 0.70401 0.0
C571 C 0.78152 0.90904 0.71708 0.0
C572 C 0.7782 0.87956 0.70838 0.0
C573 C 0.7966 0.86817 0.68684 0.0
C574 C 0.80752 0.95814 0.71282 0.0
C575 C 0.75529 0.86005 0.7219 0.0
C576 C 0.75028 0.92644 0.79137 0.0
C577 C 0.72263 0.93691 0.78397 0.0
C578 C 0.77027 0.91844 0.76973 0.0
C579 C 0.76235 0.92115 0.74009 0.0
C580 C 0.73519 0.93357 0.73256 0.0
C581 C 0.71565 0.94141 0.75467 0.0
C582 C 0.79913 0.90549 0.7786 0.0
C583 C 0.72611 0.93708 0.70119 0.0
H584 H 0.83823 0.92799 0.67259 0.0
H585 H 0.79439 0.84561 0.68013 0.0
H586 H 0.78698 0.9704 0.70962 0.0
H587 H 0.813 0.95943 0.73629 0.0
H588 H 0.82514 0.96901 0.70018 0.0
H589 H 0.75539 0.83776 0.71248 0.0
H590 H 0.75899 0.85838 0.7457 0.0
H591 H 0.73335 0.8696 0.71871 0.0
H592 H 0.75567 0.92287 0.81405 0.0
H593 H 0.69448 0.9501 0.74901 0.0
H594 H 0.81731 0.91627 0.76676 0.0
H595 H 0.79951 0.88204 0.77273 0.0
H596 H 0.80313 0.90752 0.80236 0.0
H597 H 0.74342 0.94849 0.68866 0.0
H598 H 0.70546 0.94944 0.699 0.0
H599 H 0.72303 0.91528 0.69117 0.0
C600 C 0.89345 0.2178 0.2744 0.0
C601 C 0.92203 0.21599 0.28485 0.0
C602 C 0.88558 0.23926 0.25439 0.0
C603 C 0.90682 0.25955 0.24485 0.0
C604 C 0.93579 0.2579 0.25539 0.0
C605 C 0.94318 0.23577 0.2751 0.0
C606 C 0.85462 0.23993 0.24316 0.0
C607 C 0.95884 0.27949 0.24588 0.0
C608 C 0.89047 0.29598 0.17299 0.0
C609 C 0.87697 0.32165 0.18223 0.0
C610 C 0.90095 0.27579 0.1932 0.0
C611 C 0.89856 0.28196 0.22327 0.0
C612 C 0.88614 0.30852 0.23267 0.0
C613 C 0.87529 0.32805 0.21195 0.0
C614 C 0.91378 0.24753 0.18239 0.0
C615 C 0.88367 0.31597 0.26457 0.0
H616 H 0.87731 0.20198 0.28135 0.0
H617 H 0.96531 0.23413 0.28319 0.0
H618 H 0.84455 0.26128 0.24816 0.0
H619 H 0.85456 0.23739 0.21914 0.0
H620 H 0.84081 0.22244 0.25278 0.0
H621 H 0.98008 0.27574 0.25684 0.0
H622 H 0.96214 0.27802 0.22202 0.0
H623 H 0.95157 0.30201 0.25071 0.0
H624 H 0.89269 0.29163 0.14991 0.0
H625 H 0.86527 0.34823 0.21892 0.0
H626 H 0.90024 0.22895 0.19007 0.0
H627 H 0.936 0.24453 0.19139 0.0
H628 H 0.91505 0.24664 0.15827 0.0
H629 H 0.86824 0.30068 0.27532 0.0
H630 H 0.87586 0.33857 0.26812 0.0
H631 H 0.90513 0.31346 0.27541 0.0
C632 C 0.19664 0.14792 0.67792 0.0
C633 C 0.17882 0.13066 0.66022 0.0
C634 C 0.21734 0.135 0.69628 0.0
C635 C 0.21982 0.10422 0.69694 0.0
C636 C 0.20179 0.08681 0.67896 0.0
C637 C 0.18143 0.10028 0.66084 0.0
C638 C 0.23627 0.15419 0.7152 0.0
C639 C 0.20355 0.05394 0.67932 0.0
C640 C 0.28846 0.07075 0.72819 0.0
C641 C 0.27967 0.06464 0.75674 0.0
C642 C 0.26918 0.08364 0.70838 0.0
C643 C 0.24039 0.0901 0.71733 0.0
C644 C 0.23107 0.0829 0.74579 0.0
C645 C 0.25085 0.07023 0.76516 0.0
C646 C 0.27973 0.09082 0.67807 0.0
C647 C 0.20041 0.08916 0.756 0.0
H648 H 0.19429 0.17141 0.67742 0.0
H649 H 0.16712 0.08703 0.64744 0.0
H650 H 0.23194 0.14943 0.73848 0.0
H651 H 0.25963 0.14949 0.71111 0.0
H652 H 0.23239 0.17774 0.71128 0.0
H653 H 0.18874 0.04368 0.66312 0.0
H654 H 0.22618 0.04687 0.67471 0.0
H655 H 0.19772 0.04566 0.70126 0.0
H656 H 0.31045 0.06568 0.72138 0.0
H657 H 0.24397 0.06562 0.78727 0.0
H658 H 0.27797 0.11461 0.67419 0.0
H659 H 0.26578 0.07976 0.6617 0.0
H660 H 0.30272 0.08418 0.67448 0.0
H661 H 0.19631 0.11295 0.75516 0.0
H662 H 0.19642 0.08144 0.77857 0.0
H663 H 0.18437 0.07851 0.74134 0.0
C664 C 0.29608 0.81173 0.07548 0.0
C665 C 0.32252 0.80534 0.08922 0.0
C666 C 0.27676 0.78947 0.06724 0.0
C667 C 0.28452 0.76004 0.07206 0.0
C668 C 0.3119 0.75342 0.08463 0.0
C669 C 0.33052 0.77623 0.09331 0.0
C670 C 0.24763 0.79751 0.05427 0.0
C671 C 0.32119 0.7223 0.08951 0.0
C672 C 0.22171 0.70668 0.08053 0.0
C673 C 0.21954 0.69504 0.05247 0.0
C674 C 0.24321 0.72739 0.08734 0.0
C675 C 0.26313 0.73646 0.06555 0.0
C676 C 0.26137 0.72426 0.03727 0.0
C677 C 0.23923 0.70394 0.03093 0.0
C678 C 0.24393 0.7403 0.11758 0.0
C679 C 0.28251 0.73306 0.01362 0.0
H680 H 0.29028 0.83429 0.07165 0.0
H681 H 0.35113 0.77135 0.10373 0.0
H682 H 0.2448 0.78682 0.03281 0.0
H683 H 0.22979 0.78957 0.06859 0.0
H684 H 0.24523 0.82142 0.05141 0.0
H685 H 0.34414 0.7208 0.09707 0.0
H686 H 0.30687 0.71197 0.10606 0.0
H687 H 0.31882 0.70956 0.06912 0.0
H688 H 0.20598 0.70021 0.09696 0.0
H689 H 0.23728 0.69498 0.00918 0.0
H690 H 0.23985 0.76409 0.1164 0.0
H691 H 0.2658 0.73735 0.12739 0.0
H692 H 0.22739 0.73028 0.1322 0.0
H693 H 0.27937 0.75635 0.00803 0.0
H694 H 0.27967 0.71984 -0.00644 0.0
H695 H 0.30527 0.73068 0.02141 0.0
C696 C 0.24318 0.29035 0.89988 0.0
C697 C 0.21508 0.27978 0.90586 0.0
C698 C 0.26466 0.27206 0.88823 0.0
C699 C 0.25806 0.24234 0.88314 0.0
C700 C 0.22992 0.23138 0.8897 0.0
C701 C 0.20876 0.25025 0.90093 0.0
C702 C 0.29448 0.28448 0.88156 0.0
C703 C 0.2222 0.19968 0.885 0.0
C704 C 0.30489 0.19733 0.83198 0.0
C705 C 0.32302 0.183 0.85171 0.0
C706 C 0.28393 0.21725 0.84184 0.0
C707 C 0.28091 0.22237 0.87211 0.0
C708 C 0.29923 0.20776 0.89205 0.0
C709 C 0.32013 0.18827 0.88157 0.0
C710 C 0.26488 0.23261 0.81997 0.0
C711 C 0.29635 0.21223 0.9245 0.0
H712 H 0.24864 0.31279 0.90469 0.0
H713 H 0.1871 0.2419 0.90556 0.0
H714 H 0.3111 0.27373 0.89533 0.0
H715 H 0.3003 0.28006 0.85854 0.0
H716 H 0.29566 0.30837 0.88538 0.0
H717 H 0.19926 0.19467 0.89107 0.0
H718 H 0.22549 0.19374 0.86184 0.0
H719 H 0.23683 0.18569 0.89812 0.0
H720 H 0.3071 0.19286 0.80891 0.0
H721 H 0.33384 0.17658 0.89678 0.0
H722 H 0.26679 0.25656 0.82281 0.0
H723 H 0.2417 0.22665 0.82367 0.0
H724 H 0.27074 0.22701 0.79719 0.0
H725 H 0.29899 0.23564 0.92993 0.0
H726 H 0.31271 0.19958 0.93699 0.0
H727 H 0.27423 0.20551 0.93175 0.0
C728 C 0.79447 0.73278 0.91429 0.0
C729 C 0.78531 0.70593 0.92563 0.0
C730 C 0.77425 0.75244 0.90262 0.0
C731 C 0.74424 0.74499 0.90248 0.0
C732 C 0.7348 0.7185 0.91525 0.0
C733 C 0.75549 0.69932 0.92679 0.0
C734 C 0.7851 0.78057 0.88936 0.0
C735 C 0.70297 0.70993 0.91578 0.0
C736 C 0.68808 0.80422 0.89078 0.0
C737 C 0.68143 0.80053 0.8613 0.0
C738 C 0.70867 0.78641 0.90447 0.0
C739 C 0.72277 0.76443 0.88818 0.0
C740 C 0.71606 0.76072 0.85827 0.0
C741 C 0.69536 0.77892 0.84513 0.0
C742 C 0.71526 0.79108 0.93632 0.0
C743 C 0.73067 0.73748 0.84023 0.0
H744 H 0.81757 0.73782 0.91326 0.0
H745 H 0.74839 0.67881 0.93613 0.0
H746 H 0.78092 0.78042 0.86558 0.0
H747 H 0.77312 0.79935 0.89865 0.0
H748 H 0.80882 0.784 0.89298 0.0
H749 H 0.69912 0.68921 0.92772 0.0
H750 H 0.68986 0.72734 0.92613 0.0
H751 H 0.69487 0.70731 0.89317 0.0
H752 H 0.67713 0.82112 0.90308 0.0
H753 H 0.69003 0.77631 0.82229 0.0
H754 H 0.73883 0.79573 0.93929 0.0
H755 H 0.71019 0.77097 0.94876 0.0
H756 H 0.70258 0.80937 0.94576 0.0
H757 H 0.75466 0.74072 0.84054 0.0
H758 H 0.72314 0.73757 0.81726 0.0
H759 H 0.72613 0.71568 0.84971 0.0
C760 C 0.65738 0.18987 0.09906 0.0
C761 C 0.66669 0.16092 0.09687 0.0
C762 C 0.67593 0.21303 0.09135 0.0
C763 C 0.70459 0.20703 0.0817 0.0
C764 C 0.71397 0.17777 0.07916 0.0
C765 C 0.69471 0.15504 0.08636 0.0
C766 C 0.66495 0.2439 0.09381 0.0
C767 C 0.74449 0.17049 0.06928 0.0
C768 C 0.74919 0.26387 0.04081 0.0
C769 C 0.7663 0.27544 0.06322 0.0
C770 C 0.72827 0.24215 0.04662 0.0
C771 C 0.72519 0.23132 0.07535 0.0
C772 C 0.74254 0.24305 0.09801 0.0
C773 C 0.7628 0.26511 0.09166 0.0
C774 C 0.70978 0.23052 0.02202 0.0
C775 C 0.74035 0.2317 0.12879 0.0
H776 H 0.6356 0.19438 0.10699 0.0
H777 H 0.70156 0.13262 0.08376 0.0
H778 H 0.67778 0.2559 0.11044 0.0
H779 H 0.66798 0.25548 0.07282 0.0
H780 H 0.64153 0.24476 0.09994 0.0
H781 H 0.74836 0.14662 0.06856 0.0
H782 H 0.74854 0.17965 0.0473 0.0
H783 H 0.76063 0.18056 0.08424 0.0
H784 H 0.75225 0.27178 0.01878 0.0
H785 H 0.77666 0.2736 0.1088 0.0
H786 H 0.68633 0.23198 0.02778 0.0
H787 H 0.7147 0.20717 0.01834 0.0
H788 H 0.71356 0.24257 0.00138 0.0
H789 H 0.71766 0.23375 0.13687 0.0
H790 H 0.75512 0.24351 0.14395 0.0
H791 H 0.74593 0.2082 0.12924 0.0
C792 C 0.15331 0.93993 0.4565 0.0
C793 C 0.13256 0.92287 0.47132 0.0
C794 C 0.15876 0.96885 0.46483 0.0
C795 C 0.14301 0.98079 0.4884 0.0
C796 C 0.12461 0.96265 0.50539 0.0
C797 C 0.11971 0.93381 0.49669 0.0
C798 C 0.17923 0.98724 0.44673 0.0
C799 C 0.10772 0.97444 0.531 0.0
C800 C 0.15219 0.0554 0.52201 0.0
C801 C 0.12808 0.06986 0.51005 0.0
C802 C 0.15913 0.02694 0.51337 0.0
C803 C 0.14148 0.01281 0.49243 0.0
C804 C 0.11909 0.02843 0.47817 0.0
C805 C 0.11275 0.05686 0.48708 0.0
C806 C 0.18368 0.01127 0.52849 0.0
C807 C 0.10003 0.01422 0.45535 0.0
H808 H 0.16379 0.93145 0.43713 0.0
H809 H 0.10406 0.9206 0.50857 0.0
H810 H 0.16639 0.00025 0.43099 0.0
H811 H 0.19177 0.00268 0.46053 0.0
H812 H 0.19476 0.97356 0.43424 0.0
H813 H 0.09729 0.95678 0.54394 0.0
H814 H 0.12218 0.98729 0.54552 0.0
H815 H 0.09037 0.98922 0.52305 0.0
H816 H 0.16447 0.06546 0.53952 0.0
H817 H 0.09443 0.0681 0.47739 0.0
H818 H 0.19567 -0.00297 0.51314 0.0
H819 H 0.17455 -0.00277 0.54594 0.0
H820 H 0.19932 0.02682 0.53861 0.0
H821 H 0.11365 0.00412 0.43818 0.0
H822 H 0.08493 0.02994 0.44495 0.0
H823 H 0.08688 -0.0034 0.46553 0.0
C824 C 0.95346 0.78882 0.54971 0.0
C825 C 0.93765 0.81408 0.54313 0.0
C826 C 0.97367 0.77739 0.52976 0.0
C827 C 0.97905 0.79245 0.50338 0.0
C828 C 0.96125 0.81642 0.49568 0.0
C829 C 0.94034 0.82647 0.5154 0.0
C830 C 0.99042 0.75045 0.53804 0.0
C831 C 0.96623 0.83354 0.46796 0.0
C832 C 0.05333 0.80868 0.47396 0.0
C833 C 0.04958 0.79993 0.44494 0.0
C834 C 0.03166 0.80325 0.49474 0.0
C835 C 0.00627 0.78762 0.48651 0.0
C836 C 0.00512 0.77401 0.4589 0.0
C837 C 0.02655 0.78085 0.43807 0.0
C838 C 0.03429 0.81762 0.52422 0.0
C839 C 0.97985 0.7547 0.45037 0.0
H840 H 0.95103 0.77869 0.57088 0.0
H841 H 0.92802 0.84583 0.51001 0.0
H842 H 0.00055 0.73973 0.51892 0.0
H843 H 0.0078 0.75637 0.55377 0.0
H844 H 0.97577 0.73456 0.54906 0.0
H845 H 0.95041 0.8516 0.46532 0.0
H846 H 0.98857 0.84299 0.46793 0.0
H847 H 0.96436 0.81903 0.44878 0.0
H848 H 0.07155 0.82263 0.47979 0.0
H849 H 0.02399 0.77305 0.41594 0.0
H850 H 0.03066 0.80139 0.5417 0.0
H851 H 0.01737 0.83469 0.52649 0.0
H852 H 0.056 0.82791 0.52759 0.0
H853 H 0.97089 0.74293 0.46953 0.0
H854 H 0.98656 0.73858 0.43365 0.0
H855 H 0.96221 0.76816 0.44094 0.0
C856 C 0.81315 0.05727 0.50305 0.0
C857 C 0.80998 0.06294 0.47332 0.0
C858 C 0.80771 0.02922 0.51396 0.0
C859 C 0.79893 0.00683 0.49454 0.0
C860 C 0.79064 0.01401 0.46585 0.0
C861 C 0.7965 0.04209 0.45543 0.0
C862 C 0.81569 0.02261 0.54509 0.0
C863 C 0.77977 0.9911 0.44491 0.0
C864 C 0.84642 0.94119 0.50533 0.0
C865 C 0.82848 0.92312 0.52207 0.0
C866 C 0.83623 0.96769 0.49464 0.0
C867 C 0.80734 0.97642 0.50119 0.0
C868 C 0.78834 0.95715 0.51618 0.0
C869 C 0.79921 0.93049 0.5265 0.0
C870 C 0.85718 0.98716 0.47809 0.0
C871 C 0.75732 0.96536 0.52322 0.0
H872 H 0.82304 0.07355 0.51706 0.0
H873 H 0.79315 0.0468 0.43257 0.0
H874 H 0.79985 0.00712 0.55488 0.0
H875 H 0.83753 0.01228 0.54566 0.0
H876 H 0.81651 0.04269 0.55858 0.0
H877 H 0.76736 0.001 0.4267 0.0
H878 H 0.79868 0.97933 0.43557 0.0
H879 H 0.76567 0.9749 0.45614 0.0
H880 H 0.86903 0.93522 0.50189 0.0
H881 H 0.78546 0.9165 0.53975 0.0
H882 H 0.86152 0.00731 0.49076 0.0
H883 H 0.84756 -0.00631 0.45696 0.0
H884 H 0.87837 0.97635 0.47372 0.0
H885 H 0.75691 0.97714 0.5443 0.0
H886 H 0.74331 0.94566 0.52544 0.0
H887 H 0.74788 0.97982 0.50638 0.0
C888 C 0.91991 0.1598 0.48197 0.0
C889 C 0.91748 0.1722 0.45424 0.0
C890 C 0.94163 0.16917 0.50126 0.0
C891 C 0.96061 0.19218 0.49291 0.0
C892 C 0.95511 0.20775 0.46695 0.0
C893 C 0.93395 0.19717 0.44751 0.0
C894 C 0.94651 0.152 0.52887 0.0
C895 C 0.97333 0.23381 0.45836 0.0
C896 C 0.01642 0.2039 0.55224 0.0
C897 C 0.03823 0.18456 0.54313 0.0
C898 C -0.00782 0.20962 0.53447 0.0
C899 C 0.98935 0.19478 0.50761 0.0
C900 C 0.01276 0.17767 0.49712 0.0
C901 C 0.03715 0.17329 0.51479 0.0
C902 C 0.96874 0.22968 0.5456 0.0
C903 C 0.01081 0.16132 0.4686 0.0
H904 H 0.907 0.14071 0.48746 0.0
H905 H 0.93164 0.20731 0.42632 0.0
H906 H 0.96729 0.1398 0.52717 0.0
H907 H 0.94832 0.16685 0.54779 0.0
H908 H 0.92862 0.13615 0.53315 0.0
H909 H 0.96102 0.2485 0.44365 0.0
H910 H 0.98051 0.24632 0.47778 0.0
H911 H -0.00694 0.22641 0.44656 0.0
H912 H 0.01739 0.21329 0.57388 0.0
H913 H 0.05411 0.15871 0.50731 0.0
H914 H 0.95329 0.21714 0.55941 0.0
H915 H 0.95629 0.23975 0.52754 0.0
H916 H 0.97832 0.24723 0.55929 0.0
H917 H -0.00713 0.14502 0.46971 0.0
H918 H 0.03134 0.14973 0.46323 0.0
H919 H 0.0058 0.17649 0.45056 0.0
C920 C 0.5052 0.15381 0.92098 0.0
C921 C 0.47677 0.16062 0.91235 0.0
C922 C 0.5144 0.15925 0.94956 0.0
C923 C 0.49468 0.17186 0.96966 0.0
C924 C 0.46776 0.18287 0.95971 0.0
C925 C 0.45904 0.17703 0.93107 0.0
C926 C 0.54371 0.14794 0.95916 0.0
C927 C 0.44664 0.19751 0.98013 0.0
C928 C 0.49873 0.13091 0.04034 0.0
C929 C 0.5174 0.14869 0.05662 0.0
C930 C 0.48926 0.13945 0.01279 0.0
C931 C 0.49901 0.16641 0.00117 0.0
C932 C 0.51567 0.18569 0.01866 0.0
C933 C 0.52472 0.17655 0.04641 0.0
C934 C 0.47087 0.11841 -0.00479 0.0
C935 C 0.52602 0.2148 0.00736 0.0
H936 H 0.51924 0.14165 0.90645 0.0
H937 H 0.4373 0.18316 0.92421 0.0
H938 H 0.55473 0.16384 0.97368 0.0
H939 H 0.54056 0.12743 0.97161 0.0
H940 H 0.55821 0.14332 0.94035 0.0
H941 H 0.43071 0.2111 0.96809 0.0
H942 H 0.43433 0.18062 -0.00762 0.0
H943 H 0.4583 0.21138 -0.00383 0.0
H944 H 0.49301 0.10943 0.04847 0.0
H945 H 0.53937 0.19021 0.05901 0.0
H946 H 0.48365 0.11029 0.97639 0.0
H947 H 0.45132 0.12954 0.9865 0.0
H948 H 0.46355 0.09935 0.00826 0.0
H949 H 0.5467 0.21178 -0.00481 0.0
H950 H 0.53035 0.23025 0.02549 0.0
H951 H 0.50992 0.22464 -0.00768 0.0
C952 C 0.17685 0.49893 0.06624 0.0
C953 C 0.1857 0.52822 0.06639 0.0
C954 C 0.18674 0.48004 0.04449 0.0
C955 C 0.20668 0.49065 0.02339 0.0
C956 C 0.22106 0.51752 0.02832 0.0
C957 C 0.20984 0.53655 0.04943 0.0
C958 C 0.17221 0.4506 0.04138 0.0
C959 C 0.24538 0.52779 0.00873 0.0
C960 C 0.20498 0.43749 0.96074 0.0
C961 C 0.18225 0.44946 0.94423 0.0
C962 C 0.21645 0.45256 0.98484 0.0
C963 C 0.20389 0.47942 -0.00682 0.0
C964 C 0.18321 0.49289 0.97459 0.0
C965 C 0.1733 0.47802 0.94996 0.0
C966 C 0.24047 0.4385 0.00216 0.0
C967 C 0.16884 0.52154 0.98224 0.0
H968 H 0.15916 0.49185 0.08026 0.0
H969 H 0.21794 0.55877 0.05044 0.0
H970 H 0.15817 0.45038 0.02171 0.0
H971 H 0.18888 0.43343 0.03873 0.0
H972 H 0.15847 0.44502 0.06053 0.0
H973 H 0.26094 0.54179 0.02096 0.0
H974 H 0.25731 0.50909 -0.00085 0.0
H975 H 0.2363 0.54103 -0.00927 0.0
H976 H 0.21271 0.41573 0.95589 0.0
H977 H 0.15621 0.48771 0.93693 0.0
H978 H 0.25014 0.4534 0.0186 0.0
H979 H 0.25799 0.43113 0.98722 0.0
H980 H 0.23187 0.41877 0.01325 0.0
H981 H 0.15755 0.51973 0.00354 0.0
H982 H 0.15256 0.5284 0.96574 0.0
H983 H 0.18546 0.53904 0.98404 0.0
C984 C 0.47833 0.86228 0.02147 0.0
C985 C 0.47797 0.84286 0.04502 0.0
C986 C 0.49246 0.85528 -0.00452 0.0
C987 C 0.50654 0.82806 -0.00716 0.0
C988 C 0.50767 0.80895 0.01704 0.0
C989 C 0.49345 0.81668 0.04305 0.0
C990 C 0.49042 0.87628 0.97021 0.0
C991 C 0.52226 0.77965 0.01486 0.0
C992 C 0.50333 0.80175 0.91521 0.0
C993 C 0.53089 0.80982 0.90472 0.0
C994 C 0.49581 0.80599 0.94438 0.0
C995 C 0.51643 0.81855 0.96361 0.0
C996 C 0.54488 0.82533 0.9535 0.0
C997 C 0.55175 0.82091 0.92403 0.0
C998 C 0.46537 0.79803 0.95433 0.0
C999 C 0.56805 0.83712 0.97368 0.0
H1000 H 0.46677 0.88278 0.023 0.0
H1001 H 0.49326 0.80167 0.06125 0.0
H1002 H 0.51131 0.87752 0.95812 0.0
H1003 H 0.47344 0.86848 0.95484 0.0
H1004 H 0.48443 0.89857 0.97746 0.0
H1005 H 0.52381 0.76864 0.03634 0.0
H1006 H 0.50964 0.76541 -0.00011 0.0
H1007 H 0.54448 0.78203 0.00563 0.0
H1008 H 0.48728 0.79272 0.90037 0.0
H1009 H 0.57349 0.82576 0.91621 0.0
H1010 H 0.45302 0.81815 0.95929 0.0
H1011 H 0.46623 0.7849 0.97457 0.0
H1012 H 0.45316 0.78549 0.93758 0.0
H1013 H 0.55914 0.85431 0.98805 0.0
H1014 H 0.58706 0.84607 0.96158 0.0
H1015 H 0.57594 0.81928 0.98786 0.0
C1016 C 0.81311 0.5031 0.93833 0.0
C1017 C 0.80294 0.53166 0.93529 0.0
C1018 C 0.80567 0.48636 0.96269 0.0
C1019 C 0.78645 0.49802 0.98385 0.0
C1020 C 0.77269 0.52505 0.97855 0.0
C1021 C 0.78167 0.54197 0.95464 0.0
C1022 C 0.82112 0.45769 0.9673 0.0
C1023 C 0.75021 0.53729 -0.00091 0.0
C1024 C 0.78035 0.44039 0.04158 0.0
C1025 C 0.80378 0.44861 0.05949 0.0
C1026 C 0.771 0.45869 0.01895 0.0
C1027 C 0.78643 0.4849 0.01343 0.0
C1028 C 0.80741 0.49489 0.03379 0.0
C1029 C 0.81535 0.47684 0.05697 0.0
C1030 C 0.74648 0.44865 -0.00051 0.0
C1031 C 0.8242 0.52295 0.02918 0.0
H1032 H 0.82932 0.49485 0.92328 0.0
H1033 H 0.77317 0.56383 0.95201 0.0
H1034 H 0.83499 0.459 0.98706 0.0
H1035 H 0.80504 0.43993 0.97072 0.0
H1036 H 0.83519 0.45169 0.94856 0.0
H1037 H 0.73294 0.54875 0.98669 0.0
H1038 H 0.7399 0.5201 0.01268 0.0
H1039 H 0.76065 0.5536 0.01359 0.0
H1040 H 0.7706 0.41894 0.04396 0.0
H1041 H 0.83299 0.48369 0.07113 0.0
H1042 H 0.75525 0.43434 0.98215 0.0
H1043 H 0.73533 0.46734 0.98905 0.0
H1044 H 0.73022 0.43574 0.01204 0.0
H1045 H 0.8372 0.52151 0.00884 0.0
H1046 H 0.83927 0.52788 0.04746 0.0
H1047 H 0.80895 0.54144 0.02681 0.0
C1048 C 0.92478 0.49697 0.15924 0.0
C1049 C 0.91399 0.47235 0.17358 0.0
C1050 C 0.95323 0.5069 0.16434 0.0
C1051 C 0.97148 0.49105 0.18346 0.0
C1052 C 0.95957 0.46808 0.20033 0.0
C1053 C 0.93067 0.45912 0.19534 0.0
C1054 C 0.96475 0.53214 0.14658 0.0
C1055 C 0.97819 0.45069 0.22097 0.0
C1056 C 0.04586 0.48899 0.14916 0.0
C1057 C 0.06017 0.51145 0.16402 0.0
C1058 C 0.01786 0.48002 0.15741 0.0
C1059 C 0.00357 0.49456 0.18056 0.0
C1060 C 0.01895 0.51553 0.19725 0.0
C1061 C 0.04737 0.52356 0.1889 0.0
C1062 C 0.0026 0.45693 0.13947 0.0
C1063 C 0.00454 0.5316 0.22197 0.0
H1064 H 0.91178 0.50704 0.14232 0.0
H1065 H 0.9223 0.43989 0.20627 0.0
H1066 H 0.97851 0.54672 0.16015 0.0
H1067 H 0.97853 0.52371 0.12861 0.0
H1068 H 0.94683 0.54514 0.1369 0.0
H1069 H 0.96467 0.43883 0.23722 0.0
H1070 H 0.99081 0.43441 0.20838 0.0
H1071 H -0.00599 0.46488 0.23258 0.0
H1072 H 0.05592 0.47965 0.12995 0.0
H1073 H 0.05844 0.5411 0.20028 0.0
H1074 H 0.98588 0.4673 0.1255 0.0
H1075 H 0.99129 0.441 0.15377 0.0
H1076 H 0.01801 0.44495 0.12519 0.0
H1077 H 0.99119 0.54957 0.21296 0.0
H1078 H 0.02092 0.54125 0.237 0.0
H1079 H 0.98979 0.51706 0.23452 0.0
C1080 C 0.93025 0.49778 0.80323 0.0
C1081 C 0.91308 0.51864 0.81738 0.0
C1082 C 0.96065 0.49855 0.80527 0.0
C1083 C 0.97419 0.52045 0.82227 0.0
C1084 C 0.95724 0.54355 0.83363 0.0
C1085 C 0.92672 0.5424 0.83093 0.0
C1086 C 0.97803 0.47433 0.79144 0.0
C1087 C 0.97116 0.56889 0.84935 0.0
C1088 C 0.03403 0.48645 0.86644 0.0
C1089 C 0.05918 0.4949 0.85121 0.0
C1090 C 0.0065 0.49595 0.85797 0.0
C1091 C 0.00386 0.51475 0.83372 0.0
C1092 C 0.02924 0.52471 0.81909 0.0
C1093 C 0.0568 0.51476 0.82816 0.0
C1094 C 0.98012 0.48413 0.87396 0.0
C1095 C 0.02718 0.54478 0.7932 0.0
H1096 H 0.91994 0.47983 0.79177 0.0
H1097 H 0.91355 0.5597 0.8399 0.0
H1098 H -0.00161 0.48299 0.78155 0.0
H1099 H 0.98429 0.45829 0.80836 0.0
H1100 H 0.96533 0.4627 0.77441 0.0
H1101 H 0.95482 0.58231 0.86107 0.0
H1102 H 0.98783 0.56136 0.86506 0.0
H1103 H 0.98234 0.58307 0.83327 0.0
H1104 H 0.03569 0.47146 0.8846 0.0
H1105 H 0.07622 0.52146 0.81644 0.0
H1106 H 0.96929 0.46727 0.8604 0.0
H1107 H 0.96402 0.50157 0.87807 0.0
H1108 H 0.98603 0.47398 0.89508 0.0
H1109 H 0.01151 0.53597 0.77701 0.0
H1110 H 0.04863 0.54811 0.78241 0.0
H1111 H 0.01891 0.56628 0.80037 0.0
C1112 C 0.43422 0.94855 0.19124 0.0
C1113 C 0.44266 0.93113 0.16759 0.0
C1114 C 0.45317 0.96999 0.20247 0.0
C1115 C 0.48046 0.97483 0.1888 0.0
C1116 C 0.49024 0.95501 0.16724 0.0
C1117 C 0.47146 0.93299 0.15749 0.0
C1118 C 0.44281 0.98863 0.22739 0.0
C1119 C 0.51921 0.95896 0.15191 0.0
C1120 C 0.50764 0.04785 0.16526 0.0
C1121 C 0.53665 0.04611 0.17476 0.0
C1122 C 0.48729 0.02633 0.17288 0.0
C1123 C 0.49591 0.00331 0.19149 0.0
C1124 C 0.52316 0.00505 0.20583 0.0
C1125 C 0.54362 0.02612 0.19681 0.0
C1126 C 0.45802 0.02615 0.15779 0.0
C1127 C 0.53191 0.98295 0.22841 0.0
H1128 H 0.41228 0.94669 0.19988 0.0
H1129 H 0.47851 0.91916 0.13972 0.0
H1130 H 0.46085 0.00109 0.23772 0.0
H1131 H 0.4261 0.00411 0.21948 0.0
H1132 H 0.43218 0.97476 0.24417 0.0
H1133 H 0.52326 0.94179 0.13536 0.0
H1134 H 0.51995 0.98046 0.14085 0.0
H1135 H 0.53727 0.95842 0.16788 0.0
H1136 H 0.50165 0.06393 0.14909 0.0
H1137 H 0.56566 0.0253 0.20528 0.0
H1138 H 0.44025 0.02443 0.17405 0.0
H1139 H 0.45639 0.00696 0.14315 0.0
H1140 H 0.45445 0.04612 0.14464 0.0
H1141 H 0.51259 0.97293 0.2391 0.0
H1142 H 0.5459 -0.00672 0.24527 0.0
H1143 H 0.54485 0.96545 0.21801 0.0
C1144 C 0.44877 0.02987 0.78784 0.0
C1145 C 0.45427 0.04943 0.81071 0.0
C1146 C 0.4681 0.00694 0.78179 0.0
C1147 C 0.49286 0.00293 0.7997 0.0
C1148 C 0.4995 0.0238 0.82147 0.0
C1149 C 0.48039 0.04703 0.82636 0.0
C1150 C 0.46097 0.98602 0.75746 0.0
C1151 C 0.52545 0.02025 0.8414 0.0
C1152 C 0.51941 0.92801 0.82086 0.0
C1153 C 0.54762 0.92807 0.80906 0.0
C1154 C 0.5005 0.95149 0.81633 0.0
C1155 C 0.50967 0.97522 0.79878 0.0
C1156 C 0.53681 0.97384 0.78415 0.0
C1157 C 0.55572 0.95049 0.78984 0.0
C1158 C 0.47189 0.95212 0.83264 0.0
C1159 C 0.54681 -0.00202 0.76416 0.0
H1160 H 0.42876 0.03176 0.77543 0.0
H1161 H 0.48484 0.06199 0.84409 0.0
H1162 H 0.48105 0.97916 0.74588 0.0
H1163 H 0.4505 0.96619 0.76659 0.0
H1164 H 0.4457 -0.00419 0.7415 0.0
H1165 H 0.52841 0.03917 0.8562 0.0
H1166 H 0.52252 0.00034 0.85484 0.0
H1167 H 0.54569 0.01747 0.82852 0.0
H1168 H 0.51293 0.91081 0.83573 0.0
H1169 H 0.57737 0.95053 0.78035 0.0
H1170 H 0.45368 0.95713 0.81763 0.0
H1171 H 0.47261 0.9696 0.84932 0.0
H1172 H 0.46706 0.93111 0.8437 0.0
H1173 H 0.52844 0.0061 0.75076 0.0
H1174 H 0.5646 0.99065 0.74949 0.0
H1175 H 0.55514 0.0165 0.7773 0.0
C1176 C 0.05468 0.03937 0.60353 0.0
C1177 C 0.04456 0.06442 0.61777 0.0
C1178 C 0.0397 0.01277 0.60578 0.0
C1179 C 0.01369 0.01125 0.6223 0.0
C1180 C 0.00409 0.03608 0.63784 0.0
C1181 C 0.01973 0.06237 0.6355 0.0
C1182 C 0.05099 0.98685 0.58904 0.0
C1183 C 0.97644 0.03529 0.65569 0.0
C1184 C 0.95635 0.95803 0.59559 0.0
C1185 C 0.95912 0.93479 0.61526 0.0
C1186 C 0.97388 0.98297 0.59784 0.0
C1187 C -0.00522 0.98491 0.62038 0.0
C1188 C -0.00218 0.96162 0.64035 0.0
C1189 C 0.97994 0.93677 0.63755 0.0
C1190 C 0.97012 0.00722 0.57592 0.0
C1191 C 0.02016 0.96287 0.66441 0.0
H1192 H 0.07406 0.0406 0.59005 0.0
H1193 H 0.01184 0.08158 0.64669 0.0
H1194 H 0.04752 0.96623 0.60117 0.0
H1195 H 0.0391 0.98511 0.56808 0.0
H1196 H 0.07461 0.98918 0.5842 0.0
H1197 H 0.97366 0.05535 0.66894 0.0
H1198 H 0.95737 0.03303 0.641 0.0
H1199 H 0.97637 0.01614 0.67042 0.0
H1200 H 0.94043 0.9568 0.57821 0.0
H1201 H 0.98225 0.91895 0.65284 0.0
H1202 H 0.99074 0.01058 0.5637 0.0
H1203 H 0.96508 0.02794 0.58727 0.0
H1204 H 0.95241 0.00256 0.56008 0.0
H1205 H 0.04234 0.96489 0.65494 0.0
H1206 H 0.01942 0.94322 0.67852 0.0
H1207 H 0.01653 0.98243 0.67811 0.0
C1208 C 0.00623 0.92576 0.36152 0.0
C1209 C 0.02928 0.92281 0.38135 0.0
C1210 C 0.98822 0.95043 0.36198 0.0
C1211 C -0.00669 0.97261 0.38282 0.0
C1212 C 0.01641 0.96971 0.40298 0.0
C1213 C 0.03418 0.94495 0.40191 0.0
C1214 C 0.96374 0.95277 0.34016 0.0
C1215 C 0.02258 -0.00714 0.42556 0.0
C1216 C 0.96464 0.04877 0.36835 0.0
C1217 C 0.9395 0.04938 0.38579 0.0
C1218 C 0.98225 0.02387 0.36706 0.0
C1219 C 0.97453 -0.00106 0.38352 0.0
C1220 C 0.94915 -0.00068 0.40108 0.0
C1221 C 0.93197 0.02453 0.40203 0.0
C1222 C 0.00923 0.02431 0.34819 0.0
C1223 C 0.94031 0.9732 0.41909 0.0
H1224 H 0.00225 0.90881 0.34556 0.0
H1225 H 0.05192 0.94295 0.41735 0.0
H1226 H 0.94257 0.95477 0.35168 0.0
H1227 H 0.96664 0.97272 0.3268 0.0
H1228 H 0.96264 0.93362 0.3254 0.0
H1229 H 0.03885 0.9856 0.44186 0.0
H1230 H 0.03107 0.01276 0.41469 0.0
H1231 H 0.00229 -0.00104 0.43718 0.0
H1232 H 0.97068 0.06783 0.35574 0.0
H1233 H 0.91261 0.02471 0.41557 0.0
H1234 H 0.00827 0.00629 0.33212 0.0
H1235 H 0.02885 0.02079 0.36183 0.0
H1236 H 0.0119 0.04522 0.33628 0.0
H1237 H 0.9377 0.95379 0.40492 0.0
H1238 H 0.91957 0.97677 0.43106 0.0
H1239 H 0.95768 0.96817 0.43509 0.0
C1240 C 0.60992 0.98134 0.06041 0.0
C1241 C 0.59795 0.0089 0.05507 0.0
C1242 C 0.61011 0.95982 0.03864 0.0
C1243 C 0.59867 0.96631 0.01079 0.0
C1244 C 0.58615 -0.00609 0.00548 0.0
C1245 C 0.58577 0.01478 0.02771 0.0
C1246 C 0.62255 0.93019 0.04533 0.0
C1247 C 0.5737 0.00166 0.97607 0.0
C1248 C 0.62727 0.92953 0.94307 0.0
C1249 C 0.60353 0.91199 0.93478 0.0
C1250 C 0.62646 0.94622 0.96853 0.0
C1251 C 0.60141 0.94514 0.98646 0.0
C1252 C 0.57807 0.92611 0.97926 0.0
C1253 C 0.57929 0.9099 0.9533 0.0
C1254 C 0.65173 0.96638 0.97526 0.0
C1255 C 0.55097 0.92414 -0.00217 0.0
H1256 H 0.61895 0.97651 0.08165 0.0
H1257 H 0.57642 0.03599 0.02342 0.0
H1258 H 0.60624 0.91301 0.04012 0.0
H1259 H 0.64196 0.92618 0.0315 0.0
H1260 H 0.62901 0.92803 0.06852 0.0
H1261 H 0.56457 0.02403 0.97556 0.0
H1262 H 0.59094 4e-05 0.95918 0.0
H1263 H 0.55618 0.98599 0.97016 0.0
H1264 H 0.64624 0.93107 0.92904 0.0
H1265 H 0.56077 0.89662 0.94693 0.0
H1266 H 0.65944 0.96294 -0.00214 0.0
H1267 H 0.64447 0.98936 0.97357 0.0
H1268 H 0.67039 0.96319 0.96017 0.0
H1269 H 0.54135 0.90198 -0.00311 0.0
H1270 H 0.53448 0.93959 0.98939 0.0
H1271 H 0.55533 0.92954 0.02096 0.0
C1272 C 0.03181 0.40324 0.94926 0.0
C1273 C 0.05541 0.38429 0.95346 0.0
C1274 C 0.00656 0.40111 0.96628 0.0
C1275 C 0.00476 0.37956 0.9882 0.0
C1276 C 0.02818 0.35995 -0.00775 0.0
C1277 C 0.05326 0.3625 0.97476 0.0
C1278 C 0.98208 0.42246 0.96121 0.0
C1279 C 0.02704 0.3368 0.01556 0.0
C1280 C 0.95384 0.39826 0.05028 0.0
C1281 C 0.92858 0.38244 0.043 0.0
C1282 C 0.97906 0.3967 0.03315 0.0
C1283 C 0.97908 0.37898 0.00796 0.0
C1284 C 0.95392 0.36247 0.00074 0.0
C1285 C 0.92895 0.36432 0.01842 0.0
C1286 C 0.00544 0.41463 0.04166 0.0
C1287 C 0.95312 0.34349 0.97392 0.0
H1288 H 0.03306 0.42003 0.93271 0.0
H1289 H 0.07133 0.34774 0.9781 0.0
H1290 H 0.96125 0.4106 0.95764 0.0
H1291 H 0.97922 0.43637 0.98075 0.0
H1292 H 0.98623 0.43684 0.94218 0.0
H1293 H 0.04625 0.32217 0.0148 0.0
H1294 H 0.02618 0.34726 0.03731 0.0
H1295 H 0.00695 0.32344 0.0132 0.0
H1296 H 0.95395 0.41213 0.06938 0.0
H1297 H 0.90958 0.35196 0.01268 0.0
H1298 H 0.00974 0.43145 0.02483 0.0
H1299 H 0.02503 0.40061 0.04289 0.0
H1300 H 0.00254 0.42573 0.06296 0.0
H1301 H 0.95513 0.3573 0.95419 0.0
H1302 H 0.93262 0.33059 0.97235 0.0
H1303 H 0.97187 0.32831 0.9739 0.0
C1304 C 0.38663 0.06105 0.94966 0.0
C1305 C 0.37213 0.05206 0.92428 0.0
C1306 C 0.38457 0.04483 0.97543 0.0
C1307 C 0.36772 0.01891 0.97577 0.0
C1308 C 0.35171 0.0106 0.95076 0.0
C1309 C 0.35406 0.02732 0.9253 0.0
C1310 C 0.40187 0.05452 0.00168 0.0
C1311 C 0.33351 0.98309 0.95031 0.0
C1312 C 0.39418 0.95791 0.02413 0.0
C1313 C 0.37452 0.95905 0.04754 0.0
C1314 C 0.39216 0.97735 0.00081 0.0
C1315 C 0.36993 -0.0014 0.00079 0.0
C1316 C 0.35009 0.00012 0.02437 0.0
C1317 C 0.3526 0.98027 0.04752 0.0
C1318 C 0.4138 0.97502 0.97609 0.0
C1319 C 0.32623 0.02265 0.02504 0.0
H1320 H 0.4004 0.08033 0.94922 0.0
H1321 H 0.34259 0.02031 0.90589 0.0
H1322 H 0.38854 0.05277 0.02177 0.0
H1323 H 0.42104 0.04012 0.00439 0.0
H1324 H 0.40982 0.07733 -0.0005 0.0
H1325 H 0.31975 0.98151 0.93047 0.0
H1326 H 0.34805 0.96385 0.95102 0.0
H1327 H 0.31918 0.98202 0.96974 0.0
H1328 H 0.41125 0.94166 0.02388 0.0
H1329 H 0.33735 0.98132 0.06552 0.0
H1330 H 0.42594 -0.00415 0.97364 0.0
H1331 H 0.40213 0.97092 0.95535 0.0
H1332 H 0.4298 0.95724 0.9795 0.0
H1333 H 0.33586 0.04484 0.02367 0.0
H1334 H 0.31278 0.02118 0.04511 0.0
H1335 H 0.31178 0.01987 0.00589 0.0
C1336 C 0.94167 0.60121 0.95003 0.0
C1337 C 0.93535 0.58024 0.92862 0.0
C1338 C 0.96786 0.60065 0.96568 0.0
C1339 C 0.98871 0.57885 0.95961 0.0
C1340 C 0.9829 0.55799 0.93756 0.0
C1341 C 0.95618 0.55881 0.92252 0.0
C1342 C 0.97272 0.62283 0.98953 0.0
C1343 C 0.00421 0.53424 0.92991 0.0
C1344 C 0.06349 0.59485 -0.00798 0.0
C1345 C 0.06223 0.57879 0.01799 0.0
C1346 C 0.04036 0.59384 0.9719 0.0
C1347 C 0.01523 0.57689 0.9782 0.0
C1348 C 0.01446 0.55964 0.00367 0.0
C1349 C 0.03793 0.56071 0.02314 0.0
C1350 C 0.04254 0.61118 0.94409 0.0
C1351 C 0.98842 0.54063 0.01077 0.0
H1352 H 0.92586 0.61795 0.95505 0.0
H1353 H 0.95151 0.54244 0.90621 0.0
H1354 H 0.97486 0.61153 0.01077 0.0
H1355 H -0.00668 0.635 0.98564 0.0
H1356 H 0.9546 0.63874 -0.00887 0.0
H1357 H 0.00941 0.53547 0.90638 0.0
H1358 H 0.02497 0.5354 0.94219 0.0
H1359 H -0.0061 0.51268 0.93395 0.0
H1360 H 0.08234 0.60848 0.98756 0.0
H1361 H 0.03676 0.54788 0.04291 0.0
H1362 H 0.02596 0.62871 0.94412 0.0
H1363 H 0.03785 0.59685 0.92517 0.0
H1364 H 0.06443 0.62124 0.94118 0.0
H1365 H 0.96862 0.55428 0.01286 0.0
H1366 H 0.99137 0.52819 0.03128 0.0
H1367 H 0.98452 0.52494 -0.00722 0.0
loop_
_geom_bond_atom_site_label_1
_geom_bond_atom_site_label_2
_geom_bond_distance
_geom_bond_site_symmetry_2
_ccdc_geom_bond_type
Co0 O3 1.970 . S
Co0 N17 1.989 . S
Co0 O25 1.967 . S
Co0 O32 1.920 . S
Co1 O4 1.966 . S
Co1 N10 2.022 . S
Co1 N18 1.993 . S
Co1 O26 1.941 . S
C2 O3 1.258 . S
C2 O4 1.263 . S
O3 Co0 1.970 . S
O3 C2 1.258 . S
O4 Co1 1.966 . S
O4 C2 1.263 . S
C5 O6 1.235 . S
C5 O32 1.289 . S
O6 C5 1.235 . S
C7 C9 1.400 . S
C7 N10 1.351 . S
C7 C12 1.501 . S
C8 C9 1.387 . S
C8 N11 1.341 . S
C9 C7 1.400 . S
C9 C8 1.387 . S
N10 Co1 2.022 . S
N10 C7 1.351 . S
N10 N11 1.365 . S
N11 C8 1.341 . S
N11 N10 1.365 . S
N11 H31 0.862 . S
C12 C7 1.501 . S
C12 H13 0.961 . S
C12 H14 0.961 . S
C12 H15 0.960 . S
H13 C12 0.961 . S
H14 C12 0.961 . S
H15 C12 0.960 . S
C16 N17 1.342 . S
C16 C20 1.401 . S
C16 C21 1.499 . S
N17 Co0 1.989 . S
N17 C16 1.342 . S
N17 N18 1.388 . S
N18 Co1 1.993 . S
N18 N17 1.388 . S
N18 C19 1.346 . S
C19 N18 1.346 . S
C19 C20 1.396 . S
C19 C29 1.510 . S
C20 C16 1.401 . S
C20 C19 1.396 . S
C21 C16 1.499 . S
C21 H22 0.959 . S
C21 H23 0.960 . S
C21 H24 0.961 . S
H22 C21 0.959 . S
H23 C21 0.960 . S
H24 C21 0.961 . S
O25 Co0 1.967 . S
O25 C33 1.258 . S
O26 Co1 1.941 . S
O26 C33 1.266 . S
H27 C29 0.959 . S
H28 C29 0.961 . S
C29 C19 1.510 . S
C29 H27 0.959 . S
C29 H28 0.961 . S
C29 H30 0.960 . S
H30 C29 0.960 . S
H31 N11 0.862 . S
O32 Co0 1.920 . S
O32 C5 1.289 . S
C33 O25 1.258 . S
C33 O26 1.266 . S
Co34 O37 1.970 . S
Co34 N51 1.989 . S
Co34 O59 1.967 . S
Co34 O66 1.920 . S
Co35 O38 1.966 . S
Co35 N44 2.022 . S
Co35 N52 1.993 . S
Co35 O60 1.941 . S
C36 O37 1.258 . S
C36 O38 1.263 . S
O37 Co34 1.970 . S
O37 C36 1.258 . S
O38 Co35 1.966 . S
O38 C36 1.263 . S
C39 O40 1.235 . S
C39 O66 1.289 . S
O40 C39 1.235 . S
C41 C43 1.400 . S
C41 N44 1.351 . S
C41 C46 1.501 . S
C42 C43 1.387 . S
C42 N45 1.341 . S
C43 C41 1.400 . S
C43 C42 1.387 . S
N44 Co35 2.022 . S
N44 C41 1.351 . S
N44 N45 1.365 . S
N45 C42 1.341 . S
N45 N44 1.365 . S
N45 H65 0.862 . S
C46 C41 1.501 . S
C46 H47 0.961 . S
C46 H48 0.961 . S
C46 H49 0.960 . S
H47 C46 0.961 . S
H48 C46 0.961 . S
H49 C46 0.960 . S
C50 N51 1.342 . S
C50 C54 1.401 . S
C50 C55 1.499 . S
N51 Co34 1.989 . S
N51 C50 1.342 . S
N51 N52 1.388 . S
N52 Co35 1.993 . S
N52 N51 1.388 . S
N52 C53 1.346 . S
C53 N52 1.346 . S
C53 C54 1.396 . S
C53 C63 1.510 . S
C54 C50 1.401 . S
C54 C53 1.396 . S
C55 C50 1.499 . S
C55 H56 0.959 . S
C55 H57 0.960 . S
C55 H58 0.961 . S
H56 C55 0.959 . S
H57 C55 0.960 . S
H58 C55 0.961 . S
O59 Co34 1.967 . S
O59 C67 1.258 . S
O60 Co35 1.941 . S
O60 C67 1.266 . S
H61 C63 0.959 . S
H62 C63 0.961 . S
C63 C53 1.510 . S
C63 H61 0.959 . S
C63 H62 0.961 . S
C63 H64 0.960 . S
H64 C63 0.960 . S
H65 N45 0.862 . S
O66 Co34 1.920 . S
O66 C39 1.289 . S
C67 O59 1.258 . S
C67 O60 1.266 . S
Co68 O71 1.970 . S
Co68 N85 1.989 . S
Co68 O93 1.967 . S
Co68 O100 1.920 . S
Co69 O72 1.966 . S
Co69 N78 2.022 . S
Co69 N86 1.993 . S
Co69 O94 1.941 . S
C70 O71 1.258 . S
C70 O72 1.263 . S
O71 Co68 1.970 . S
O71 C70 1.258 . S
O72 Co69 1.966 . S
O72 C70 1.263 . S
C73 O74 1.235 . S
C73 O100 1.289 . S
O74 C73 1.235 . S
C75 C77 1.400 . S
C75 N78 1.351 . S
C75 C80 1.501 . S
C76 C77 1.387 . S
C76 N79 1.341 . S
C77 C75 1.400 . S
C77 C76 1.387 . S
N78 Co69 2.022 . S
N78 C75 1.351 . S
N78 N79 1.365 . S
N79 C76 1.341 . S
N79 N78 1.365 . S
N79 H99 0.862 . S
C80 C75 1.501 . S
C80 H81 0.961 . S
C80 H82 0.961 . S
C80 H83 0.960 . S
H81 C80 0.961 . S
H82 C80 0.961 . S
H83 C80 0.960 . S
C84 N85 1.342 . S
C84 C88 1.401 . S
C84 C89 1.499 . S
N85 Co68 1.989 . S
N85 C84 1.342 . S
N85 N86 1.388 . S
N86 Co69 1.993 . S
N86 N85 1.388 . S
N86 C87 1.346 . S
C87 N86 1.346 . S
C87 C88 1.396 . S
C87 C97 1.510 . S
C88 C84 1.401 . S
C88 C87 1.396 . S
C89 C84 1.499 . S
C89 H90 0.959 . S
C89 H91 0.960 . S
C89 H92 0.961 . S
H90 C89 0.959 . S
H91 C89 0.960 . S
H92 C89 0.961 . S
O93 Co68 1.967 . S
O93 C101 1.258 . S
O94 Co69 1.941 . S
O94 C101 1.266 . S
H95 C97 0.959 . S
H96 C97 0.961 . S
C97 C87 1.510 . S
C97 H95 0.959 . S
C97 H96 0.961 . S
C97 H98 0.960 . S
H98 C97 0.960 . S
H99 N79 0.862 . S
O100 Co68 1.920 . S
O100 C73 1.289 . S
C101 O93 1.258 . S
C101 O94 1.266 . S
Co102 O105 1.970 . S
Co102 N119 1.989 . S
Co102 O127 1.967 . S
Co102 O134 1.920 . S
Co103 O106 1.966 . S
Co103 N112 2.022 . S
Co103 N120 1.993 . S
Co103 O128 1.941 . S
C104 O105 1.258 . S
C104 O106 1.263 . S
O105 Co102 1.970 . S
O105 C104 1.258 . S
O106 Co103 1.966 . S
O106 C104 1.263 . S
C107 O108 1.235 . S
C107 O134 1.289 . S
O108 C107 1.235 . S
C109 C111 1.400 . S
C109 N112 1.351 . S
C109 C114 1.501 . S
C110 C111 1.387 . S
C110 N113 1.341 . S
C111 C109 1.400 . S
C111 C110 1.387 . S
N112 Co103 2.022 . S
N112 C109 1.351 . S
N112 N113 1.365 . S
N113 C110 1.341 . S
N113 N112 1.365 . S
N113 H133 0.862 . S
C114 C109 1.501 . S
C114 H115 0.961 . S
C114 H116 0.961 . S
C114 H117 0.960 . S
H115 C114 0.961 . S
H116 C114 0.961 . S
H117 C114 0.960 . S
C118 N119 1.342 . S
C118 C122 1.401 . S
C118 C123 1.499 . S
N119 Co102 1.989 . S
N119 C118 1.342 . S
N119 N120 1.388 . S
N120 Co103 1.993 . S
N120 N119 1.388 . S
N120 C121 1.346 . S
C121 N120 1.346 . S
C121 C122 1.396 . S
C121 C131 1.510 . S
C122 C118 1.401 . S
C122 C121 1.396 . S
C123 C118 1.499 . S
C123 H124 0.959 . S
C123 H125 0.960 . S
C123 H126 0.961 . S
H124 C123 0.959 . S
H125 C123 0.960 . S
H126 C123 0.961 . S
O127 Co102 1.967 . S
O127 C135 1.258 . S
O128 Co103 1.941 . S
O128 C135 1.266 . S
H129 C131 0.959 . S
H130 C131 0.961 . S
C131 C121 1.510 . S
C131 H129 0.959 . S
C131 H130 0.961 . S
C131 H132 0.960 . S
H132 C131 0.960 . S
H133 N113 0.862 . S
O134 Co102 1.920 . S
O134 C107 1.289 . S
C135 O127 1.258 . S
C135 O128 1.266 . S
Co136 O139 1.970 . S
Co136 N153 1.989 . S
Co136 O161 1.967 . S
Co136 O168 1.920 . S
Co137 O140 1.966 . S
Co137 N146 2.022 . S
Co137 N154 1.993 . S
Co137 O162 1.941 . S
C138 O139 1.258 . S
C138 O140 1.263 . S
O139 Co136 1.970 . S
O139 C138 1.258 . S
O140 Co137 1.966 . S
O140 C138 1.263 . S
C141 O142 1.235 . S
C141 O168 1.289 . S
O142 C141 1.235 . S
C143 C145 1.400 . S
C143 N146 1.351 . S
C143 C148 1.501 . S
C144 C145 1.387 . S
C144 N147 1.341 . S
C145 C143 1.400 . S
C145 C144 1.387 . S
N146 Co137 2.022 . S
N146 C143 1.351 . S
N146 N147 1.365 . S
N147 C144 1.341 . S
N147 N146 1.365 . S
N147 H167 0.862 . S
C148 C143 1.501 . S
C148 H149 0.961 . S
C148 H150 0.961 . S
C148 H151 0.960 . S
H149 C148 0.961 . S
H150 C148 0.961 . S
H151 C148 0.960 . S
C152 N153 1.342 . S
C152 C156 1.401 . S
C152 C157 1.499 . S
N153 Co136 1.989 . S
N153 C152 1.342 . S
N153 N154 1.388 . S
N154 Co137 1.993 . S
N154 N153 1.388 . S
N154 C155 1.346 . S
C155 N154 1.346 . S
C155 C156 1.396 . S
C155 C165 1.510 . S
C156 C152 1.401 . S
C156 C155 1.396 . S
C157 C152 1.499 . S
C157 H158 0.959 . S
C157 H159 0.960 . S
C157 H160 0.961 . S
H158 C157 0.959 . S
H159 C157 0.960 . S
H160 C157 0.961 . S
O161 Co136 1.967 . S
O161 C169 1.258 . S
O162 Co137 1.941 . S
O162 C169 1.266 . S
H163 C165 0.959 . S
H164 C165 0.961 . S
C165 C155 1.510 . S
C165 H163 0.959 . S
C165 H164 0.961 . S
C165 H166 0.960 . S
H166 C165 0.960 . S
H167 N147 0.862 . S
O168 Co136 1.920 . S
O168 C141 1.289 . S
C169 O161 1.258 . S
C169 O162 1.266 . S
Co170 O173 1.970 . S
Co170 N187 1.989 . S
Co170 O195 1.967 . S
Co170 O202 1.920 . S
Co171 O174 1.966 . S
Co171 N180 2.022 . S
Co171 N188 1.993 . S
Co171 O196 1.941 . S
C172 O173 1.258 . S
C172 O174 1.263 . S
O173 Co170 1.970 . S
O173 C172 1.258 . S
O174 Co171 1.966 . S
O174 C172 1.263 . S
C175 O176 1.235 . S
C175 O202 1.289 . S
O176 C175 1.235 . S
C177 C179 1.400 . S
C177 N180 1.351 . S
C177 C182 1.501 . S
C178 C179 1.387 . S
C178 N181 1.341 . S
C179 C177 1.400 . S
C179 C178 1.387 . S
N180 Co171 2.022 . S
N180 C177 1.351 . S
N180 N181 1.365 . S
N181 C178 1.341 . S
N181 N180 1.365 . S
N181 H201 0.862 . S
C182 C177 1.501 . S
C182 H183 0.961 . S
C182 H184 0.961 . S
C182 H185 0.960 . S
H183 C182 0.961 . S
H184 C182 0.961 . S
H185 C182 0.960 . S
C186 N187 1.342 . S
C186 C190 1.401 . S
C186 C191 1.499 . S
N187 Co170 1.989 . S
N187 C186 1.342 . S
N187 N188 1.388 . S
N188 Co171 1.993 . S
N188 N187 1.388 . S
N188 C189 1.346 . S
C189 N188 1.346 . S
C189 C190 1.396 . S
C189 C199 1.510 . S
C190 C186 1.401 . S
C190 C189 1.396 . S
C191 C186 1.499 . S
C191 H192 0.959 . S
C191 H193 0.960 . S
C191 H194 0.961 . S
H192 C191 0.959 . S
H193 C191 0.960 . S
H194 C191 0.961 . S
O195 Co170 1.967 . S
O195 C203 1.258 . S
O196 Co171 1.941 . S
O196 C203 1.266 . S
H197 C199 0.959 . S
H198 C199 0.961 . S
C199 C189 1.510 . S
C199 H197 0.959 . S
C199 H198 0.961 . S
C199 H200 0.960 . S
H200 C199 0.960 . S
H201 N181 0.862 . S
O202 Co170 1.920 . S
O202 C175 1.289 . S
C203 O195 1.258 . S
C203 O196 1.266 . S
Co204 O207 1.970 . S
Co204 N221 1.989 . S
Co204 O229 1.967 . S
Co204 O236 1.920 . S
Co205 O208 1.966 . S
Co205 N214 2.022 . S
Co205 N222 1.993 . S
Co205 O230 1.941 . S
C206 O207 1.258 . S
C206 O208 1.263 . S
O207 Co204 1.970 . S
O207 C206 1.258 . S
O208 Co205 1.966 . S
O208 C206 1.263 . S
C209 O210 1.235 . S
C209 O236 1.289 . S
O210 C209 1.235 . S
C211 C213 1.400 . S
C211 N214 1.351 . S
C211 C216 1.501 . S
C212 C213 1.387 . S
C212 N215 1.341 . S
C213 C211 1.400 . S
C213 C212 1.387 . S
N214 Co205 2.022 . S
N214 C211 1.351 . S
N214 N215 1.365 . S
N215 C212 1.341 . S
N215 N214 1.365 . S
N215 H235 0.862 . S
C216 C211 1.501 . S
C216 H217 0.961 . S
C216 H218 0.961 . S
C216 H219 0.960 . S
H217 C216 0.961 . S
H218 C216 0.961 . S
H219 C216 0.960 . S
C220 N221 1.342 . S
C220 C224 1.401 . S
C220 C225 1.499 . S
N221 Co204 1.989 . S
N221 C220 1.342 . S
N221 N222 1.388 . S
N222 Co205 1.993 . S
N222 N221 1.388 . S
N222 C223 1.346 . S
C223 N222 1.346 . S
C223 C224 1.396 . S
C223 C233 1.510 . S
C224 C220 1.401 . S
C224 C223 1.396 . S
C225 C220 1.499 . S
C225 H226 0.959 . S
C225 H227 0.960 . S
C225 H228 0.961 . S
H226 C225 0.959 . S
H227 C225 0.960 . S
H228 C225 0.961 . S
O229 Co204 1.967 . S
O229 C237 1.258 . S
O230 Co205 1.941 . S
O230 C237 1.266 . S
H231 C233 0.959 . S
H232 C233 0.961 . S
C233 C223 1.510 . S
C233 H231 0.959 . S
C233 H232 0.961 . S
C233 H234 0.960 . S
H234 C233 0.960 . S
H235 N215 0.862 . S
O236 Co204 1.920 . S
O236 C209 1.289 . S
C237 O229 1.258 . S
C237 O230 1.266 . S
Co238 O241 1.970 . S
Co238 N255 1.989 . S
Co238 O263 1.967 . S
Co238 O270 1.920 . S
Co239 O242 1.966 . S
Co239 N248 2.022 . S
Co239 N256 1.993 . S
Co239 O264 1.941 . S
C240 O241 1.258 . S
C240 O242 1.263 . S
O241 Co238 1.970 . S
O241 C240 1.258 . S
O242 Co239 1.966 . S
O242 C240 1.263 . S
C243 O244 1.235 . S
C243 O270 1.289 . S
O244 C243 1.235 . S
C245 C247 1.400 . S
C245 N248 1.351 . S
C245 C250 1.501 . S
C246 C247 1.387 . S
C246 N249 1.341 . S
C247 C245 1.400 . S
C247 C246 1.387 . S
N248 Co239 2.022 . S
N248 C245 1.351 . S
N248 N249 1.365 . S
N249 C246 1.341 . S
N249 N248 1.365 . S
N249 H269 0.862 . S
C250 C245 1.501 . S
C250 H251 0.961 . S
C250 H252 0.961 . S
C250 H253 0.960 . S
H251 C250 0.961 . S
H252 C250 0.961 . S
H253 C250 0.960 . S
C254 N255 1.342 . S
C254 C258 1.401 . S
C254 C259 1.499 . S
N255 Co238 1.989 . S
N255 C254 1.342 . S
N255 N256 1.388 . S
N256 Co239 1.993 . S
N256 N255 1.388 . S
N256 C257 1.346 . S
C257 N256 1.346 . S
C257 C258 1.396 . S
C257 C267 1.510 . S
C258 C254 1.401 . S
C258 C257 1.396 . S
C259 C254 1.499 . S
C259 H260 0.959 . S
C259 H261 0.960 . S
C259 H262 0.961 . S
H260 C259 0.959 . S
H261 C259 0.960 . S
H262 C259 0.961 . S
O263 Co238 1.967 . S
O263 C271 1.258 . S
O264 Co239 1.941 . S
O264 C271 1.266 . S
H265 C267 0.959 . S
H266 C267 0.961 . S
C267 C257 1.510 . S
C267 H265 0.959 . S
C267 H266 0.961 . S
C267 H268 0.960 . S
H268 C267 0.960 . S
H269 N249 0.862 . S
O270 Co238 1.920 . S
O270 C243 1.289 . S
C271 O263 1.258 . S
C271 O264 1.266 . S
Co272 O275 1.970 . S
Co272 N289 1.989 . S
Co272 O297 1.967 . S
Co272 O304 1.920 . S
Co273 O276 1.966 . S
Co273 N282 2.022 . S
Co273 N290 1.993 . S
Co273 O298 1.941 . S
C274 O275 1.258 . S
C274 O276 1.263 . S
O275 Co272 1.970 . S
O275 C274 1.258 . S
O276 Co273 1.966 . S
O276 C274 1.263 . S
C277 O278 1.235 . S
C277 O304 1.289 . S
O278 C277 1.235 . S
C279 C281 1.400 . S
C279 N282 1.351 . S
C279 C284 1.501 . S
C280 C281 1.387 . S
C280 N283 1.341 . S
C281 C279 1.400 . S
C281 C280 1.387 . S
N282 Co273 2.022 . S
N282 C279 1.351 . S
N282 N283 1.365 . S
N283 C280 1.341 . S
N283 N282 1.365 . S
N283 H303 0.862 . S
C284 C279 1.501 . S
C284 H285 0.961 . S
C284 H286 0.961 . S
C284 H287 0.960 . S
H285 C284 0.961 . S
H286 C284 0.961 . S
H287 C284 0.960 . S
C288 N289 1.342 . S
C288 C292 1.401 . S
C288 C293 1.499 . S
N289 Co272 1.989 . S
N289 C288 1.342 . S
N289 N290 1.388 . S
N290 Co273 1.993 . S
N290 N289 1.388 . S
N290 C291 1.346 . S
C291 N290 1.346 . S
C291 C292 1.396 . S
C291 C301 1.510 . S
C292 C288 1.401 . S
C292 C291 1.396 . S
C293 C288 1.499 . S
C293 H294 0.959 . S
C293 H295 0.960 . S
C293 H296 0.961 . S
H294 C293 0.959 . S
H295 C293 0.960 . S
H296 C293 0.961 . S
O297 Co272 1.967 . S
O297 C305 1.258 . S
O298 Co273 1.941 . S
O298 C305 1.266 . S
H299 C301 0.959 . S
H300 C301 0.961 . S
C301 C291 1.510 . S
C301 H299 0.959 . S
C301 H300 0.961 . S
C301 H302 0.960 . S
H302 C301 0.960 . S
H303 N283 0.862 . S
O304 Co272 1.920 . S
O304 C277 1.289 . S
C305 O297 1.258 . S
C305 O298 1.266 . S
Co306 O309 1.970 . S
Co306 N323 1.989 . S
Co306 O331 1.967 . S
Co306 O338 1.920 . S
Co307 O310 1.966 . S
Co307 N316 2.022 . S
Co307 N324 1.993 . S
Co307 O332 1.941 . S
C308 O309 1.258 . S
C308 O310 1.263 . S
O309 Co306 1.970 . S
O309 C308 1.258 . S
O310 Co307 1.966 . S
O310 C308 1.263 . S
C311 O312 1.235 . S
C311 O338 1.289 . S
O312 C311 1.235 . S
C313 C315 1.400 . S
C313 N316 1.351 . S
C313 C318 1.501 . S
C314 C315 1.387 . S
C314 N317 1.341 . S
C315 C313 1.400 . S
C315 C314 1.387 . S
N316 Co307 2.022 . S
N316 C313 1.351 . S
N316 N317 1.365 . S
N317 C314 1.341 . S
N317 N316 1.365 . S
N317 H337 0.862 . S
C318 C313 1.501 . S
C318 H319 0.961 . S
C318 H320 0.961 . S
C318 H321 0.960 . S
H319 C318 0.961 . S
H320 C318 0.961 . S
H321 C318 0.960 . S
C322 N323 1.342 . S
C322 C326 1.401 . S
C322 C327 1.499 . S
N323 Co306 1.989 . S
N323 C322 1.342 . S
N323 N324 1.388 . S
N324 Co307 1.993 . S
N324 N323 1.388 . S
N324 C325 1.346 . S
C325 N324 1.346 . S
C325 C326 1.396 . S
C325 C335 1.510 . S
C326 C322 1.401 . S
C326 C325 1.396 . S
C327 C322 1.499 . S
C327 H328 0.959 . S
C327 H329 0.960 . S
C327 H330 0.961 . S
H328 C327 0.959 . S
H329 C327 0.960 . S
H330 C327 0.961 . S
O331 Co306 1.967 . S
O331 C339 1.258 . S
O332 Co307 1.941 . S
O332 C339 1.266 . S
H333 C335 0.959 . S
H334 C335 0.961 . S
C335 C325 1.510 . S
C335 H333 0.959 . S
C335 H334 0.961 . S
C335 H336 0.960 . S
H336 C335 0.960 . S
H337 N317 0.862 . S
O338 Co306 1.920 . S
O338 C311 1.289 . S
C339 O331 1.258 . S
C339 O332 1.266 . S
Co340 O343 1.970 . S
Co340 N357 1.989 . S
Co340 O365 1.967 . S
Co340 O372 1.920 . S
Co341 O344 1.966 . S
Co341 N350 2.022 . S
Co341 N358 1.993 . S
Co341 O366 1.941 . S
C342 O343 1.258 . S
C342 O344 1.263 . S
O343 Co340 1.970 . S
O343 C342 1.258 . S
O344 Co341 1.966 . S
O344 C342 1.263 . S
C345 O346 1.235 . S
C345 O372 1.289 . S
O346 C345 1.235 . S
C347 C349 1.400 . S
C347 N350 1.351 . S
C347 C352 1.501 . S
C348 C349 1.387 . S
C348 N351 1.341 . S
C349 C347 1.400 . S
C349 C348 1.387 . S
N350 Co341 2.022 . S
N350 C347 1.351 . S
N350 N351 1.365 . S
N351 C348 1.341 . S
N351 N350 1.365 . S
N351 H371 0.862 . S
C352 C347 1.501 . S
C352 H353 0.961 . S
C352 H354 0.961 . S
C352 H355 0.960 . S
H353 C352 0.961 . S
H354 C352 0.961 . S
H355 C352 0.960 . S
C356 N357 1.342 . S
C356 C360 1.401 . S
C356 C361 1.499 . S
N357 Co340 1.989 . S
N357 C356 1.342 . S
N357 N358 1.388 . S
N358 Co341 1.993 . S
N358 N357 1.388 . S
N358 C359 1.346 . S
C359 N358 1.346 . S
C359 C360 1.396 . S
C359 C369 1.510 . S
C360 C356 1.401 . S
C360 C359 1.396 . S
C361 C356 1.499 . S
C361 H362 0.959 . S
C361 H363 0.960 . S
C361 H364 0.961 . S
H362 C361 0.959 . S
H363 C361 0.960 . S
H364 C361 0.961 . S
O365 Co340 1.967 . S
O365 C373 1.258 . S
O366 Co341 1.941 . S
O366 C373 1.266 . S
H367 C369 0.959 . S
H368 C369 0.961 . S
C369 C359 1.510 . S
C369 H367 0.959 . S
C369 H368 0.961 . S
C369 H370 0.960 . S
H370 C369 0.960 . S
H371 N351 0.862 . S
O372 Co340 1.920 . S
O372 C345 1.289 . S
C373 O365 1.258 . S
C373 O366 1.266 . S
Co374 O377 1.970 . S
Co374 N391 1.989 . S
Co374 O399 1.967 . S
Co374 O406 1.920 . S
Co375 O378 1.966 . S
Co375 N384 2.022 . S
Co375 N392 1.993 . S
Co375 O400 1.941 . S
C376 O377 1.258 . S
C376 O378 1.263 . S
O377 Co374 1.970 . S
O377 C376 1.258 . S
O378 Co375 1.966 . S
O378 C376 1.263 . S
C379 O380 1.235 . S
C379 O406 1.289 . S
O380 C379 1.235 . S
C381 C383 1.400 . S
C381 N384 1.351 . S
C381 C386 1.501 . S
C382 C383 1.387 . S
C382 N385 1.341 . S
C383 C381 1.400 . S
C383 C382 1.387 . S
N384 Co375 2.022 . S
N384 C381 1.351 . S
N384 N385 1.365 . S
N385 C382 1.341 . S
N385 N384 1.365 . S
N385 H405 0.862 . S
C386 C381 1.501 . S
C386 H387 0.961 . S
C386 H388 0.961 . S
C386 H389 0.960 . S
H387 C386 0.961 . S
H388 C386 0.961 . S
H389 C386 0.960 . S
C390 N391 1.342 . S
C390 C394 1.401 . S
C390 C395 1.499 . S
N391 Co374 1.989 . S
N391 C390 1.342 . S
N391 N392 1.388 . S
N392 Co375 1.993 . S
N392 N391 1.388 . S
N392 C393 1.346 . S
C393 N392 1.346 . S
C393 C394 1.396 . S
C393 C403 1.510 . S
C394 C390 1.401 . S
C394 C393 1.396 . S
C395 C390 1.499 . S
C395 H396 0.959 . S
C395 H397 0.960 . S
C395 H398 0.961 . S
H396 C395 0.959 . S
H397 C395 0.960 . S
H398 C395 0.961 . S
O399 Co374 1.967 . S
O399 C407 1.258 . S
O400 Co375 1.941 . S
O400 C407 1.266 . S
H401 C403 0.959 . S
H402 C403 0.961 . S
C403 C393 1.510 . S
C403 H401 0.959 . S
C403 H402 0.961 . S
C403 H404 0.960 . S
H404 C403 0.960 . S
H405 N385 0.862 . S
O406 Co374 1.920 . S
O406 C379 1.289 . S
C407 O399 1.258 . S
C407 O400 1.266 . S
C408 C409 1.391 . S
C408 C410 1.394 . S
C408 H424 0.931 . S
C409 C408 1.391 . S
C409 C413 1.376 . S
C410 C408 1.394 . S
C410 C411 1.369 . S
C410 C414 1.531 . S
C411 C410 1.369 . S
C411 C412 1.410 . S
C411 C419 1.503 . S
C412 C411 1.410 . S
C412 C413 1.392 . S
C412 C415 1.511 . S
C413 C409 1.376 . S
C413 C412 1.392 . S
C413 H425 0.929 . S
C414 C410 1.531 . S
C414 H426 0.960 . S
C414 H427 0.962 . S
C414 H428 0.960 . S
C415 C412 1.511 . S
C415 H429 0.961 . S
C415 H430 0.961 . S
C415 H431 0.961 . S
C416 C417 1.370 . S
C416 C418 1.363 . S
C416 H432 0.931 . S
C417 C416 1.370 . S
C417 C421 1.408 . S
C418 C416 1.363 . S
C418 C419 1.370 . S
C418 C422 1.524 . S
C419 C411 1.503 . S
C419 C418 1.370 . S
C419 C420 1.403 . S
C420 C419 1.403 . S
C420 C421 1.404 . S
C420 C423 1.539 . S
C421 C417 1.408 . S
C421 C420 1.404 . S
C421 H433 0.930 . S
C422 C418 1.524 . S
C422 H434 0.956 . S
C422 H435 0.961 . S
C422 H436 0.961 . S
C423 C420 1.539 . S
C423 H437 0.958 . S
C423 H438 0.961 . S
C423 H439 0.960 . S
H424 C408 0.931 . S
H425 C413 0.929 . S
H426 C414 0.960 . S
H427 C414 0.962 . S
H428 C414 0.960 . S
H429 C415 0.961 . S
H430 C415 0.961 . S
H431 C415 0.961 . S
H432 C416 0.931 . S
H433 C421 0.930 . S
H434 C422 0.956 . S
H435 C422 0.961 . S
H436 C422 0.961 . S
H437 C423 0.958 . S
H438 C423 0.961 . S
H439 C423 0.960 . S
C440 C441 1.391 . S
C440 C442 1.394 . S
C440 H456 0.931 . S
C441 C440 1.391 . S
C441 C445 1.376 . S
C442 C440 1.394 . S
C442 C443 1.369 . S
C442 C446 1.531 . S
C443 C442 1.369 . S
C443 C444 1.410 . S
C443 C451 1.503 . S
C444 C443 1.410 . S
C444 C445 1.392 . S
C444 C447 1.511 . S
C445 C441 1.376 . S
C445 C444 1.392 . S
C445 H457 0.929 . S
C446 C442 1.531 . S
C446 H458 0.960 . S
C446 H459 0.962 . S
C446 H460 0.960 . S
C447 C444 1.511 . S
C447 H461 0.961 . S
C447 H462 0.961 . S
C447 H463 0.961 . S
C448 C449 1.370 . S
C448 C450 1.363 . S
C448 H464 0.931 . S
C449 C448 1.370 . S
C449 C453 1.408 . S
C450 C448 1.363 . S
C450 C451 1.370 . S
C450 C454 1.524 . S
C451 C443 1.503 . S
C451 C450 1.370 . S
C451 C452 1.403 . S
C452 C451 1.403 . S
C452 C453 1.404 . S
C452 C455 1.539 . S
C453 C449 1.408 . S
C453 C452 1.404 . S
C453 H465 0.930 . S
C454 C450 1.524 . S
C454 H466 0.956 . S
C454 H467 0.961 . S
C454 H468 0.961 . S
C455 C452 1.539 . S
C455 H469 0.958 . S
C455 H470 0.961 . S
C455 H471 0.960 . S
H456 C440 0.931 . S
H457 C445 0.929 . S
H458 C446 0.960 . S
H459 C446 0.962 . S
H460 C446 0.960 . S
H461 C447 0.961 . S
H462 C447 0.961 . S
H463 C447 0.961 . S
H464 C448 0.931 . S
H465 C453 0.930 . S
H466 C454 0.956 . S
H467 C454 0.961 . S
H468 C454 0.961 . S
H469 C455 0.958 . S
H470 C455 0.961 . S
H471 C455 0.960 . S
C472 C473 1.391 . S
C472 C474 1.394 . S
C472 H488 0.931 . S
C473 C472 1.391 . S
C473 C477 1.376 . S
C474 C472 1.394 . S
C474 C475 1.369 . S
C474 C478 1.531 . S
C475 C474 1.369 . S
C475 C476 1.410 . S
C475 C483 1.503 . S
C476 C475 1.410 . S
C476 C477 1.392 . S
C476 C479 1.511 . S
C477 C473 1.376 . S
C477 C476 1.392 . S
C477 H489 0.929 . S
C478 C474 1.531 . S
C478 H490 0.960 . S
C478 H491 0.962 . S
C478 H492 0.960 . S
C479 C476 1.511 . S
C479 H493 0.961 . S
C479 H494 0.961 . S
C479 H495 0.961 . S
C480 C481 1.370 . S
C480 C482 1.363 . S
C480 H496 0.931 . S
C481 C480 1.370 . S
C481 C485 1.408 . S
C482 C480 1.363 . S
C482 C483 1.370 . S
C482 C486 1.524 . S
C483 C475 1.503 . S
C483 C482 1.370 . S
C483 C484 1.403 . S
C484 C483 1.403 . S
C484 C485 1.404 . S
C484 C487 1.539 . S
C485 C481 1.408 . S
C485 C484 1.404 . S
C485 H497 0.930 . S
C486 C482 1.524 . S
C486 H498 0.956 . S
C486 H499 0.961 . S
C486 H500 0.961 . S
C487 C484 1.539 . S
C487 H501 0.958 . S
C487 H502 0.961 . S
C487 H503 0.960 . S
H488 C472 0.931 . S
H489 C477 0.929 . S
H490 C478 0.960 . S
H491 C478 0.962 . S
H492 C478 0.960 . S
H493 C479 0.961 . S
H494 C479 0.961 . S
H495 C479 0.961 . S
H496 C480 0.931 . S
H497 C485 0.930 . S
H498 C486 0.956 . S
H499 C486 0.961 . S
H500 C486 0.961 . S
H501 C487 0.958 . S
H502 C487 0.961 . S
H503 C487 0.960 . S
C504 C505 1.391 . S
C504 C506 1.394 . S
C504 H520 0.931 . S
C505 C504 1.391 . S
C505 C509 1.376 . S
C506 C504 1.394 . S
C506 C507 1.369 . S
C506 C510 1.531 . S
C507 C506 1.369 . S
C507 C508 1.410 . S
C507 C515 1.503 . S
C508 C507 1.410 . S
C508 C509 1.392 . S
C508 C511 1.511 . S
C509 C505 1.376 . S
C509 C508 1.392 . S
C509 H521 0.929 . S
C510 C506 1.531 . S
C510 H522 0.960 . S
C510 H523 0.962 . S
C510 H524 0.960 . S
C511 C508 1.511 . S
C511 H525 0.961 . S
C511 H526 0.961 . S
C511 H527 0.961 . S
C512 C513 1.370 . S
C512 C514 1.363 . S
C512 H528 0.931 . S
C513 C512 1.370 . S
C513 C517 1.408 . S
C514 C512 1.363 . S
C514 C515 1.370 . S
C514 C518 1.524 . S
C515 C507 1.503 . S
C515 C514 1.370 . S
C515 C516 1.403 . S
C516 C515 1.403 . S
C516 C517 1.404 . S
C516 C519 1.539 . S
C517 C513 1.408 . S
C517 C516 1.404 . S
C517 H529 0.930 . S
C518 C514 1.524 . S
C518 H530 0.956 . S
C518 H531 0.961 . S
C518 H532 0.961 . S
C519 C516 1.539 . S
C519 H533 0.958 . S
C519 H534 0.961 . S
C519 H535 0.960 . S
H520 C504 0.931 . S
H521 C509 0.929 . S
H522 C510 0.960 . S
H523 C510 0.962 . S
H524 C510 0.960 . S
H525 C511 0.961 . S
H526 C511 0.961 . S
H527 C511 0.961 . S
H528 C512 0.931 . S
H529 C517 0.930 . S
H530 C518 0.956 . S
H531 C518 0.961 . S
H532 C518 0.961 . S
H533 C519 0.958 . S
H534 C519 0.961 . S
H535 C519 0.960 . S
C536 C537 1.391 . S
C536 C538 1.394 . S
C536 H552 0.931 . S
C537 C536 1.391 . S
C537 C541 1.376 . S
C538 C536 1.394 . S
C538 C539 1.369 . S
C538 C542 1.531 . S
C539 C538 1.369 . S
C539 C540 1.410 . S
C539 C547 1.503 . S
C540 C539 1.410 . S
C540 C541 1.392 . S
C540 C543 1.511 . S
C541 C537 1.376 . S
C541 C540 1.392 . S
C541 H553 0.929 . S
C542 C538 1.531 . S
C542 H554 0.960 . S
C542 H555 0.962 . S
C542 H556 0.960 . S
C543 C540 1.511 . S
C543 H557 0.961 . S
C543 H558 0.961 . S
C543 H559 0.961 . S
C544 C545 1.370 . S
C544 C546 1.363 . S
C544 H560 0.931 . S
C545 C544 1.370 . S
C545 C549 1.408 . S
C546 C544 1.363 . S
C546 C547 1.370 . S
C546 C550 1.524 . S
C547 C539 1.503 . S
C547 C546 1.370 . S
C547 C548 1.403 . S
C548 C547 1.403 . S
C548 C549 1.404 . S
C548 C551 1.539 . S
C549 C545 1.408 . S
C549 C548 1.404 . S
C549 H561 0.930 . S
C550 C546 1.524 . S
C550 H562 0.956 . S
C550 H563 0.961 . S
C550 H564 0.961 . S
C551 C548 1.539 . S
C551 H565 0.958 . S
C551 H566 0.961 . S
C551 H567 0.960 . S
H552 C536 0.931 . S
H553 C541 0.929 . S
H554 C542 0.960 . S
H555 C542 0.962 . S
H556 C542 0.960 . S
H557 C543 0.961 . S
H558 C543 0.961 . S
H559 C543 0.961 . S
H560 C544 0.931 . S
H561 C549 0.930 . S
H562 C550 0.956 . S
H563 C550 0.961 . S
H564 C550 0.961 . S
H565 C551 0.958 . S
H566 C551 0.961 . S
H567 C551 0.960 . S
C568 C569 1.391 . S
C568 C570 1.394 . S
C568 H584 0.931 . S
C569 C568 1.391 . S
C569 C573 1.376 . S
C570 C568 1.394 . S
C570 C571 1.369 . S
C570 C574 1.531 . S
C571 C570 1.369 . S
C571 C572 1.410 . S
C571 C579 1.503 . S
C572 C571 1.410 . S
C572 C573 1.392 . S
C572 C575 1.511 . S
C573 C569 1.376 . S
C573 C572 1.392 . S
C573 H585 0.929 . S
C574 C570 1.531 . S
C574 H586 0.960 . S
C574 H587 0.962 . S
C574 H588 0.960 . S
C575 C572 1.511 . S
C575 H589 0.961 . S
C575 H590 0.961 . S
C575 H591 0.961 . S
C576 C577 1.370 . S
C576 C578 1.363 . S
C576 H592 0.931 . S
C577 C576 1.370 . S
C577 C581 1.408 . S
C578 C576 1.363 . S
C578 C579 1.370 . S
C578 C582 1.524 . S
C579 C571 1.503 . S
C579 C578 1.370 . S
C579 C580 1.403 . S
C580 C579 1.403 . S
C580 C581 1.404 . S
C580 C583 1.539 . S
C581 C577 1.408 . S
C581 C580 1.404 . S
C581 H593 0.930 . S
C582 C578 1.524 . S
C582 H594 0.956 . S
C582 H595 0.961 . S
C582 H596 0.961 . S
C583 C580 1.539 . S
C583 H597 0.958 . S
C583 H598 0.961 . S
C583 H599 0.960 . S
H584 C568 0.931 . S
H585 C573 0.929 . S
H586 C574 0.960 . S
H587 C574 0.962 . S
H588 C574 0.960 . S
H589 C575 0.961 . S
H590 C575 0.961 . S
H591 C575 0.961 . S
H592 C576 0.931 . S
H593 C581 0.930 . S
H594 C582 0.956 . S
H595 C582 0.961 . S
H596 C582 0.961 . S
H597 C583 0.958 . S
H598 C583 0.961 . S
H599 C583 0.960 . S
C600 C601 1.391 . S
C600 C602 1.394 . S
C600 H616 0.931 . S
C601 C600 1.391 . S
C601 C605 1.376 . S
C602 C600 1.394 . S
C602 C603 1.369 . S
C602 C606 1.531 . S
C603 C602 1.369 . S
C603 C604 1.410 . S
C603 C611 1.503 . S
C604 C603 1.410 . S
C604 C605 1.392 . S
C604 C607 1.511 . S
C605 C601 1.376 . S
C605 C604 1.392 . S
C605 H617 0.929 . S
C606 C602 1.531 . S
C606 H618 0.960 . S
C606 H619 0.962 . S
C606 H620 0.960 . S
C607 C604 1.511 . S
C607 H621 0.961 . S
C607 H622 0.961 . S
C607 H623 0.961 . S
C608 C609 1.370 . S
C608 C610 1.363 . S
C608 H624 0.931 . S
C609 C608 1.370 . S
C609 C613 1.408 . S
C610 C608 1.363 . S
C610 C611 1.370 . S
C610 C614 1.524 . S
C611 C603 1.503 . S
C611 C610 1.370 . S
C611 C612 1.403 . S
C612 C611 1.403 . S
C612 C613 1.404 . S
C612 C615 1.539 . S
C613 C609 1.408 . S
C613 C612 1.404 . S
C613 H625 0.930 . S
C614 C610 1.524 . S
C614 H626 0.956 . S
C614 H627 0.961 . S
C614 H628 0.961 . S
C615 C612 1.539 . S
C615 H629 0.958 . S
C615 H630 0.961 . S
C615 H631 0.960 . S
H616 C600 0.931 . S
H617 C605 0.929 . S
H618 C606 0.960 . S
H619 C606 0.962 . S
H620 C606 0.960 . S
H621 C607 0.961 . S
H622 C607 0.961 . S
H623 C607 0.961 . S
H624 C608 0.931 . S
H625 C613 0.930 . S
H626 C614 0.956 . S
H627 C614 0.961 . S
H628 C614 0.961 . S
H629 C615 0.958 . S
H630 C615 0.961 . S
H631 C615 0.960 . S
C632 C633 1.391 . S
C632 C634 1.394 . S
C632 H648 0.931 . S
C633 C632 1.391 . S
C633 C637 1.376 . S
C634 C632 1.394 . S
C634 C635 1.369 . S
C634 C638 1.531 . S
C635 C634 1.369 . S
C635 C636 1.410 . S
C635 C643 1.503 . S
C636 C635 1.410 . S
C636 C637 1.392 . S
C636 C639 1.511 . S
C637 C633 1.376 . S
C637 C636 1.392 . S
C637 H649 0.929 . S
C638 C634 1.531 . S
C638 H650 0.960 . S
C638 H651 0.962 . S
C638 H652 0.960 . S
C639 C636 1.511 . S
C639 H653 0.961 . S
C639 H654 0.961 . S
C639 H655 0.961 . S
C640 C641 1.370 . S
C640 C642 1.363 . S
C640 H656 0.931 . S
C641 C640 1.370 . S
C641 C645 1.408 . S
C642 C640 1.363 . S
C642 C643 1.370 . S
C642 C646 1.524 . S
C643 C635 1.503 . S
C643 C642 1.370 . S
C643 C644 1.403 . S
C644 C643 1.403 . S
C644 C645 1.404 . S
C644 C647 1.539 . S
C645 C641 1.408 . S
C645 C644 1.404 . S
C645 H657 0.930 . S
C646 C642 1.524 . S
C646 H658 0.956 . S
C646 H659 0.961 . S
C646 H660 0.961 . S
C647 C644 1.539 . S
C647 H661 0.958 . S
C647 H662 0.961 . S
C647 H663 0.960 . S
H648 C632 0.931 . S
H649 C637 0.929 . S
H650 C638 0.960 . S
H651 C638 0.962 . S
H652 C638 0.960 . S
H653 C639 0.961 . S
H654 C639 0.961 . S
H655 C639 0.961 . S
H656 C640 0.931 . S
H657 C645 0.930 . S
H658 C646 0.956 . S
H659 C646 0.961 . S
H660 C646 0.961 . S
H661 C647 0.958 . S
H662 C647 0.961 . S
H663 C647 0.960 . S
C664 C665 1.391 . S
C664 C666 1.394 . S
C664 H680 0.931 . S
C665 C664 1.391 . S
C665 C669 1.376 . S
C666 C664 1.394 . S
C666 C667 1.369 . S
C666 C670 1.531 . S
C667 C666 1.369 . S
C667 C668 1.410 . S
C667 C675 1.503 . S
C668 C667 1.410 . S
C668 C669 1.392 . S
C668 C671 1.511 . S
C669 C665 1.376 . S
C669 C668 1.392 . S
C669 H681 0.929 . S
C670 C666 1.531 . S
C670 H682 0.960 . S
C670 H683 0.962 . S
C670 H684 0.960 . S
C671 C668 1.511 . S
C671 H685 0.961 . S
C671 H686 0.961 . S
C671 H687 0.961 . S
C672 C673 1.370 . S
C672 C674 1.363 . S
C672 H688 0.931 . S
C673 C672 1.370 . S
C673 C677 1.408 . S
C674 C672 1.363 . S
C674 C675 1.370 . S
C674 C678 1.524 . S
C675 C667 1.503 . S
C675 C674 1.370 . S
C675 C676 1.403 . S
C676 C675 1.403 . S
C676 C677 1.404 . S
C676 C679 1.539 . S
C677 C673 1.408 . S
C677 C676 1.404 . S
C677 H689 0.930 . S
C678 C674 1.524 . S
C678 H690 0.956 . S
C678 H691 0.961 . S
C678 H692 0.961 . S
C679 C676 1.539 . S
C679 H693 0.958 . S
C679 H694 0.961 . S
C679 H695 0.960 . S
H680 C664 0.931 . S
H681 C669 0.929 . S
H682 C670 0.960 . S
H683 C670 0.962 . S
H684 C670 0.960 . S
H685 C671 0.961 . S
H686 C671 0.961 . S
H687 C671 0.961 . S
H688 C672 0.931 . S
H689 C677 0.930 . S
H690 C678 0.956 . S
H691 C678 0.961 . S
H692 C678 0.961 . S
H693 C679 0.958 . S
H694 C679 0.961 . S
H695 C679 0.960 . S
C696 C697 1.391 . S
C696 C698 1.394 . S
C696 H712 0.931 . S
C697 C696 1.391 . S
C697 C701 1.376 . S
C698 C696 1.394 . S
C698 C699 1.369 . S
C698 C702 1.531 . S
C699 C698 1.369 . S
C699 C700 1.410 . S
C699 C707 1.503 . S
C700 C699 1.410 . S
C700 C701 1.392 . S
C700 C703 1.511 . S
C701 C697 1.376 . S
C701 C700 1.392 . S
C701 H713 0.929 . S
C702 C698 1.531 . S
C702 H714 0.960 . S
C702 H715 0.962 . S
C702 H716 0.960 . S
C703 C700 1.511 . S
C703 H717 0.961 . S
C703 H718 0.961 . S
C703 H719 0.961 . S
C704 C705 1.370 . S
C704 C706 1.363 . S
C704 H720 0.931 . S
C705 C704 1.370 . S
C705 C709 1.408 . S
C706 C704 1.363 . S
C706 C707 1.370 . S
C706 C710 1.524 . S
C707 C699 1.503 . S
C707 C706 1.370 . S
C707 C708 1.403 . S
C708 C707 1.403 . S
C708 C709 1.404 . S
C708 C711 1.539 . S
C709 C705 1.408 . S
C709 C708 1.404 . S
C709 H721 0.930 . S
C710 C706 1.524 . S
C710 H722 0.956 . S
C710 H723 0.961 . S
C710 H724 0.961 . S
C711 C708 1.539 . S
C711 H725 0.958 . S
C711 H726 0.961 . S
C711 H727 0.960 . S
H712 C696 0.931 . S
H713 C701 0.929 . S
H714 C702 0.960 . S
H715 C702 0.962 . S
H716 C702 0.960 . S
H717 C703 0.961 . S
H718 C703 0.961 . S
H719 C703 0.961 . S
H720 C704 0.931 . S
H721 C709 0.930 . S
H722 C710 0.956 . S
H723 C710 0.961 . S
H724 C710 0.961 . S
H725 C711 0.958 . S
H726 C711 0.961 . S
H727 C711 0.960 . S
C728 C729 1.391 . S
C728 C730 1.394 . S
C728 H744 0.931 . S
C729 C728 1.391 . S
C729 C733 1.376 . S
C730 C728 1.394 . S
C730 C731 1.369 . S
C730 C734 1.531 . S
C731 C730 1.369 . S
C731 C732 1.410 . S
C731 C739 1.503 . S
C732 C731 1.410 . S
C732 C733 1.392 . S
C732 C735 1.511 . S
C733 C729 1.376 . S
C733 C732 1.392 . S
C733 H745 0.929 . S
C734 C730 1.531 . S
C734 H746 0.960 . S
C734 H747 0.962 . S
C734 H748 0.960 . S
C735 C732 1.511 . S
C735 H749 0.961 . S
C735 H750 0.961 . S
C735 H751 0.961 . S
C736 C737 1.370 . S
C736 C738 1.363 . S
C736 H752 0.931 . S
C737 C736 1.370 . S
C737 C741 1.408 . S
C738 C736 1.363 . S
C738 C739 1.370 . S
C738 C742 1.524 . S
C739 C731 1.503 . S
C739 C738 1.370 . S
C739 C740 1.403 . S
C740 C739 1.403 . S
C740 C741 1.404 . S
C740 C743 1.539 . S
C741 C737 1.408 . S
C741 C740 1.404 . S
C741 H753 0.930 . S
C742 C738 1.524 . S
C742 H754 0.956 . S
C742 H755 0.961 . S
C742 H756 0.961 . S
C743 C740 1.539 . S
C743 H757 0.958 . S
C743 H758 0.961 . S
C743 H759 0.960 . S
H744 C728 0.931 . S
H745 C733 0.929 . S
H746 C734 0.960 . S
H747 C734 0.962 . S
H748 C734 0.960 . S
H749 C735 0.961 . S
H750 C735 0.961 . S
H751 C735 0.961 . S
H752 C736 0.931 . S
H753 C741 0.930 . S
H754 C742 0.956 . S
H755 C742 0.961 . S
H756 C742 0.961 . S
H757 C743 0.958 . S
H758 C743 0.961 . S
H759 C743 0.960 . S
C760 C761 1.391 . S
C760 C762 1.394 . S
C760 H776 0.931 . S
C761 C760 1.391 . S
C761 C765 1.376 . S
C762 C760 1.394 . S
C762 C763 1.369 . S
C762 C766 1.531 . S
C763 C762 1.369 . S
C763 C764 1.410 . S
C763 C771 1.503 . S
C764 C763 1.410 . S
C764 C765 1.392 . S
C764 C767 1.511 . S
C765 C761 1.376 . S
C765 C764 1.392 . S
C765 H777 0.929 . S
C766 C762 1.531 . S
C766 H778 0.960 . S
C766 H779 0.962 . S
C766 H780 0.960 . S
C767 C764 1.511 . S
C767 H781 0.961 . S
C767 H782 0.961 . S
C767 H783 0.961 . S
C768 C769 1.370 . S
C768 C770 1.363 . S
C768 H784 0.931 . S
C769 C768 1.370 . S
C769 C773 1.408 . S
C770 C768 1.363 . S
C770 C771 1.370 . S
C770 C774 1.524 . S
C771 C763 1.503 . S
C771 C770 1.370 . S
C771 C772 1.403 . S
C772 C771 1.403 . S
C772 C773 1.404 . S
C772 C775 1.539 . S
C773 C769 1.408 . S
C773 C772 1.404 . S
C773 H785 0.930 . S
C774 C770 1.524 . S
C774 H786 0.956 . S
C774 H787 0.961 . S
C774 H788 0.961 . S
C775 C772 1.539 . S
C775 H789 0.958 . S
C775 H790 0.961 . S
C775 H791 0.960 . S
H776 C760 0.931 . S
H777 C765 0.929 . S
H778 C766 0.960 . S
H779 C766 0.962 . S
H780 C766 0.960 . S
H781 C767 0.961 . S
H782 C767 0.961 . S
H783 C767 0.961 . S
H784 C768 0.931 . S
H785 C773 0.930 . S
H786 C774 0.956 . S
H787 C774 0.961 . S
H788 C774 0.961 . S
H789 C775 0.958 . S
H790 C775 0.961 . S
H791 C775 0.960 . S
C792 C793 1.391 . S
C792 C794 1.394 . S
C792 H808 0.931 . S
C793 C792 1.391 . S
C793 C797 1.376 . S
C794 C792 1.394 . S
C794 C795 1.369 . S
C794 C798 1.531 . S
C795 C794 1.369 . S
C795 C796 1.410 . S
C795 C803 1.503 1_565 S
C796 C795 1.410 . S
C796 C797 1.392 . S
C796 C799 1.511 . S
C797 C793 1.376 . S
C797 C796 1.392 . S
C797 H809 0.929 . S
C798 C794 1.531 . S
C798 H810 0.960 1_565 S
C798 H811 0.962 . S
C798 H812 0.960 . S
C799 C796 1.511 . S
C799 H813 0.961 . S
C799 H814 0.960 1_565 S
C799 H815 0.961 . S
C800 C801 1.370 . S
C800 C802 1.363 . S
C800 H816 0.931 . S
C801 C800 1.370 . S
C801 C805 1.408 . S
C802 C800 1.363 . S
C802 C803 1.370 . S
C802 C806 1.524 1_545 S
C803 C795 1.503 1_545 S
C803 C802 1.370 . S
C803 C804 1.403 . S
C804 C803 1.403 . S
C804 C805 1.404 . S
C804 C807 1.539 . S
C805 C801 1.408 . S
C805 C804 1.404 . S
C805 H817 0.930 . S
C806 C802 1.524 1_565 S
C806 H818 0.956 . S
C806 H819 0.961 . S
C806 H820 0.961 . S
C807 C804 1.539 . S
C807 H821 0.958 . S
C807 H822 0.961 . S
C807 H823 0.960 . S
H808 C792 0.931 . S
H809 C797 0.929 . S
H810 C798 0.960 1_545 S
H811 C798 0.962 . S
H812 C798 0.960 . S
H813 C799 0.961 . S
H814 C799 0.960 1_545 S
H815 C799 0.961 . S
H816 C800 0.931 . S
H817 C805 0.930 . S
H818 C806 0.956 . S
H819 C806 0.961 . S
H820 C806 0.961 . S
H821 C807 0.958 . S
H822 C807 0.961 . S
H823 C807 0.960 . S
C824 C825 1.391 . S
C824 C826 1.394 . S
C824 H840 0.931 . S
C825 C824 1.391 . S
C825 C829 1.376 . S
C826 C824 1.394 . S
C826 C827 1.369 . S
C826 C830 1.531 1_655 S
C827 C826 1.369 . S
C827 C828 1.410 . S
C827 C835 1.503 1_655 S
C828 C827 1.410 . S
C828 C829 1.392 . S
C828 C831 1.511 . S
C829 C825 1.376 . S
C829 C828 1.392 . S
C829 H841 0.929 . S
C830 C826 1.531 1_455 S
C830 H842 0.960 . S
C830 H843 0.962 . S
C830 H844 0.960 . S
C831 C828 1.511 . S
C831 H845 0.961 . S
C831 H846 0.961 . S
C831 H847 0.961 . S
C832 C833 1.370 . S
C832 C834 1.363 . S
C832 H848 0.931 . S
C833 C832 1.370 . S
C833 C837 1.408 . S
C834 C832 1.363 . S
C834 C835 1.370 . S
C834 C838 1.524 . S
C835 C827 1.503 1_455 S
C835 C834 1.370 . S
C835 C836 1.403 . S
C836 C835 1.403 . S
C836 C837 1.404 . S
C836 C839 1.539 . S
C837 C833 1.408 . S
C837 C836 1.404 . S
C837 H849 0.930 . S
C838 C834 1.524 . S
C838 H850 0.956 . S
C838 H851 0.961 1_455 S
C838 H852 0.961 . S
C839 C836 1.539 . S
C839 H853 0.958 . S
C839 H854 0.961 . S
C839 H855 0.960 1_455 S
H840 C824 0.931 . S
H841 C829 0.929 . S
H842 C830 0.960 . S
H843 C830 0.962 . S
H844 C830 0.960 . S
H845 C831 0.961 . S
H846 C831 0.961 . S
H847 C831 0.961 . S
H848 C832 0.931 . S
H849 C837 0.930 . S
H850 C838 0.956 . S
H851 C838 0.961 1_655 S
H852 C838 0.961 . S
H853 C839 0.958 . S
H854 C839 0.961 . S
H855 C839 0.960 1_655 S
C856 C857 1.391 . S
C856 C858 1.394 . S
C856 H872 0.931 . S
C857 C856 1.391 . S
C857 C861 1.376 . S
C858 C856 1.394 . S
C858 C859 1.369 . S
C858 C862 1.531 . S
C859 C858 1.369 . S
C859 C860 1.410 . S
C859 C867 1.503 1_545 S
C860 C859 1.410 . S
C860 C861 1.392 . S
C860 C863 1.511 . S
C861 C857 1.376 . S
C861 C860 1.392 . S
C861 H873 0.929 . S
C862 C858 1.531 . S
C862 H874 0.960 . S
C862 H875 0.962 . S
C862 H876 0.960 . S
C863 C860 1.511 . S
C863 H877 0.961 . S
C863 H878 0.961 1_545 S
C863 H879 0.961 . S
C864 C865 1.370 . S
C864 C866 1.363 . S
C864 H880 0.931 . S
C865 C864 1.370 . S
C865 C869 1.408 . S
C866 C864 1.363 . S
C866 C867 1.370 . S
C866 C870 1.524 . S
C867 C859 1.503 1_565 S
C867 C866 1.370 . S
C867 C868 1.403 . S
C868 C867 1.403 . S
C868 C869 1.404 . S
C868 C871 1.539 1_565 S
C869 C865 1.408 . S
C869 C868 1.404 . S
C869 H881 0.930 . S
C870 C866 1.524 . S
C870 H882 0.956 . S
C870 H883 0.961 . S
C870 H884 0.961 . S
C871 C868 1.539 1_545 S
C871 H885 0.958 . S
C871 H886 0.961 1_545 S
C871 H887 0.960 . S
H872 C856 0.931 . S
H873 C861 0.929 . S
H874 C862 0.960 . S
H875 C862 0.962 . S
H876 C862 0.960 . S
H877 C863 0.961 . S
H878 C863 0.961 1_565 S
H879 C863 0.961 . S
H880 C864 0.931 . S
H881 C869 0.930 . S
H882 C870 0.956 . S
H883 C870 0.961 . S
H884 C870 0.961 . S
H885 C871 0.958 . S
H886 C871 0.961 1_565 S
H887 C871 0.960 . S
C888 C889 1.391 . S
C888 C890 1.394 . S
C888 H904 0.931 . S
C889 C888 1.391 . S
C889 C893 1.376 . S
C890 C888 1.394 . S
C890 C891 1.369 . S
C890 C894 1.531 . S
C891 C890 1.369 . S
C891 C892 1.410 . S
C891 C899 1.503 1_655 S
C892 C891 1.410 . S
C892 C893 1.392 . S
C892 C895 1.511 1_655 S
C893 C889 1.376 . S
C893 C892 1.392 . S
C893 H905 0.929 . S
C894 C890 1.531 . S
C894 H906 0.960 . S
C894 H907 0.962 . S
C894 H908 0.960 . S
C895 C892 1.511 1_455 S
C895 H909 0.961 . S
C895 H910 0.961 . S
C895 H911 0.961 . S
C896 C897 1.370 . S
C896 C898 1.363 . S
C896 H912 0.931 . S
C897 C896 1.370 . S
C897 C901 1.408 . S
C898 C896 1.363 . S
C898 C899 1.370 . S
C898 C902 1.524 . S
C899 C891 1.503 1_455 S
C899 C898 1.370 . S
C899 C900 1.403 . S
C900 C899 1.403 . S
C900 C901 1.404 . S
C900 C903 1.539 . S
C901 C897 1.408 . S
C901 C900 1.404 . S
C901 H913 0.930 . S
C902 C898 1.524 . S
C902 H914 0.956 1_455 S
C902 H915 0.961 . S
C902 H916 0.961 . S
C903 C900 1.539 . S
C903 H917 0.958 1_455 S
C903 H918 0.961 . S
C903 H919 0.960 . S
H904 C888 0.931 . S
H905 C893 0.929 . S
H906 C894 0.960 . S
H907 C894 0.962 . S
H908 C894 0.960 . S
H909 C895 0.961 . S
H910 C895 0.961 . S
H911 C895 0.961 . S
H912 C896 0.931 . S
H913 C901 0.930 . S
H914 C902 0.956 1_655 S
H915 C902 0.961 . S
H916 C902 0.961 . S
H917 C903 0.958 1_655 S
H918 C903 0.961 . S
H919 C903 0.960 . S
C920 C921 1.391 . S
C920 C922 1.394 . S
C920 H936 0.931 . S
C921 C920 1.391 . S
C921 C925 1.376 . S
C922 C920 1.394 . S
C922 C923 1.369 . S
C922 C926 1.531 . S
C923 C922 1.369 . S
C923 C924 1.410 . S
C923 C931 1.503 1_556 S
C924 C923 1.410 . S
C924 C925 1.392 . S
C924 C927 1.511 1_556 S
C925 C921 1.376 . S
C925 C924 1.392 . S
C925 H937 0.929 . S
C926 C922 1.531 . S
C926 H938 0.960 . S
C926 H939 0.962 . S
C926 H940 0.960 . S
C927 C924 1.511 1_554 S
C927 H941 0.962 1_554 S
C927 H942 0.961 . S
C927 H943 0.961 . S
C928 C929 1.370 . S
C928 C930 1.363 . S
C928 H944 0.931 . S
C929 C928 1.370 . S
C929 C933 1.408 . S
C930 C928 1.363 . S
C930 C931 1.370 . S
C930 C934 1.524 . S
C931 C923 1.503 1_554 S
C931 C930 1.370 . S
C931 C932 1.403 . S
C932 C931 1.403 . S
C932 C933 1.404 . S
C932 C935 1.539 . S
C933 C929 1.408 . S
C933 C932 1.404 . S
C933 H945 0.930 . S
C934 C930 1.524 . S
C934 H946 0.956 1_554 S
C934 H947 0.961 1_554 S
C934 H948 0.961 . S
C935 C932 1.539 . S
C935 H949 0.958 . S
C935 H950 0.961 . S
C935 H951 0.960 . S
H936 C920 0.931 . S
H937 C925 0.929 . S
H938 C926 0.960 . S
H939 C926 0.962 . S
H940 C926 0.960 . S
H941 C927 0.962 1_556 S
H942 C927 0.961 . S
H943 C927 0.961 . S
H944 C928 0.931 . S
H945 C933 0.930 . S
H946 C934 0.956 1_556 S
H947 C934 0.961 1_556 S
H948 C934 0.961 . S
H949 C935 0.958 . S
H950 C935 0.961 . S
H951 C935 0.960 . S
C952 C953 1.391 . S
C952 C954 1.394 . S
C952 H968 0.931 . S
C953 C952 1.391 . S
C953 C957 1.376 . S
C954 C952 1.394 . S
C954 C955 1.369 . S
C954 C958 1.531 . S
C955 C954 1.369 . S
C955 C956 1.410 . S
C955 C963 1.503 1_554 S
C956 C955 1.410 . S
C956 C957 1.392 . S
C956 C959 1.511 1_554 S
C957 C953 1.376 . S
C957 C956 1.392 . S
C957 H969 0.929 . S
C958 C954 1.531 . S
C958 H970 0.960 . S
C958 H971 0.962 . S
C958 H972 0.960 . S
C959 C956 1.511 1_556 S
C959 H973 0.961 . S
C959 H974 0.961 . S
C959 H975 0.961 . S
C960 C961 1.370 . S
C960 C962 1.363 . S
C960 H976 0.931 . S
C961 C960 1.370 . S
C961 C965 1.408 . S
C962 C960 1.363 . S
C962 C963 1.370 . S
C962 C966 1.524 . S
C963 C955 1.503 1_556 S
C963 C962 1.370 . S
C963 C964 1.403 . S
C964 C963 1.403 . S
C964 C965 1.404 . S
C964 C967 1.539 1_556 S
C965 C961 1.408 . S
C965 C964 1.404 . S
C965 H977 0.930 . S
C966 C962 1.524 . S
C966 H978 0.956 . S
C966 H979 0.961 . S
C966 H980 0.961 . S
C967 C964 1.539 1_554 S
C967 H981 0.958 . S
C967 H982 0.961 1_554 S
C967 H983 0.960 . S
H968 C952 0.931 . S
H969 C957 0.929 . S
H970 C958 0.960 . S
H971 C958 0.962 . S
H972 C958 0.960 . S
H973 C959 0.961 . S
H974 C959 0.961 . S
H975 C959 0.961 . S
H976 C960 0.931 . S
H977 C965 0.930 . S
H978 C966 0.956 . S
H979 C966 0.961 . S
H980 C966 0.961 . S
H981 C967 0.958 . S
H982 C967 0.961 1_556 S
H983 C967 0.960 . S
C984 C985 1.391 . S
C984 C986 1.394 . S
C984 H1000 0.931 . S
C985 C984 1.391 . S
C985 C989 1.376 . S
C986 C984 1.394 . S
C986 C987 1.369 . S
C986 C990 1.550 . S
C987 C986 1.369 . S
C987 C988 1.410 . S
C987 C995 1.503 1_554 S
C988 C987 1.410 . S
C988 C989 1.392 . S
C988 C991 1.511 . S
C989 C985 1.376 . S
C989 C988 1.392 . S
C989 H1001 0.929 . S
C990 C986 1.550 . S
C990 H1002 0.943 1_554 S
C990 H1003 0.947 1_554 S
C990 H1004 0.974 . S
C991 C988 1.511 . S
C991 H1005 0.961 . S
C991 H1006 0.961 . S
C991 H1007 0.961 . S
C992 C993 1.370 . S
C992 C994 1.363 . S
C992 H1008 0.931 . S
C993 C992 1.370 . S
C993 C997 1.408 . S
C994 C992 1.363 . S
C994 C995 1.370 . S
C994 C998 1.524 . S
C995 C987 1.503 1_556 S
C995 C994 1.370 . S
C995 C996 1.403 . S
C996 C995 1.403 . S
C996 C997 1.404 . S
C996 C999 1.552 . S
C997 C993 1.408 . S
C997 C996 1.404 . S
C997 H1009 0.930 . S
C998 C994 1.524 . S
C998 H1010 0.956 . S
C998 H1011 0.961 . S
C998 H1012 0.961 . S
C999 C996 1.552 . S
C999 H1013 0.959 . S
C999 H1014 0.966 . S
C999 H1015 0.941 1_556 S
H1000 C984 0.931 . S
H1001 C989 0.929 . S
H1002 C990 0.943 1_556 S
H1003 C990 0.947 1_556 S
H1004 C990 0.974 . S
H1005 C991 0.961 . S
H1006 C991 0.961 . S
H1007 C991 0.961 . S
H1008 C992 0.931 . S
H1009 C997 0.930 . S
H1010 C998 0.956 . S
H1011 C998 0.961 . S
H1012 C998 0.961 . S
H1013 C999 0.959 . S
H1014 C999 0.966 . S
H1015 C999 0.941 1_554 S
C1016 C1017 1.391 . S
C1016 C1018 1.394 . S
C1016 H1032 0.931 . S
C1017 C1016 1.391 . S
C1017 C1021 1.376 . S
C1018 C1016 1.394 . S
C1018 C1019 1.369 . S
C1018 C1022 1.531 . S
C1019 C1018 1.369 . S
C1019 C1020 1.410 . S
C1019 C1027 1.503 1_556 S
C1020 C1019 1.410 . S
C1020 C1021 1.392 . S
C1020 C1023 1.511 1_556 S
C1021 C1017 1.376 . S
C1021 C1020 1.392 . S
C1021 H1033 0.929 . S
C1022 C1018 1.531 . S
C1022 H1034 0.960 . S
C1022 H1035 0.962 . S
C1022 H1036 0.960 . S
C1023 C1020 1.511 1_554 S
C1023 H1037 0.961 . S
C1023 H1038 0.961 . S
C1023 H1039 0.961 . S
C1024 C1025 1.370 . S
C1024 C1026 1.363 . S
C1024 H1040 0.931 . S
C1025 C1024 1.370 . S
C1025 C1029 1.408 . S
C1026 C1024 1.363 . S
C1026 C1027 1.370 . S
C1026 C1030 1.524 . S
C1027 C1019 1.503 1_554 S
C1027 C1026 1.370 . S
C1027 C1028 1.403 . S
C1028 C1027 1.403 . S
C1028 C1029 1.404 . S
C1028 C1031 1.539 1_554 S
C1029 C1025 1.408 . S
C1029 C1028 1.404 . S
C1029 H1041 0.930 . S
C1030 C1026 1.524 . S
C1030 H1042 0.956 . S
C1030 H1043 0.961 . S
C1030 H1044 0.961 . S
C1031 C1028 1.539 1_556 S
C1031 H1045 0.958 . S
C1031 H1046 0.961 . S
C1031 H1047 0.960 . S
H1032 C1016 0.931 . S
H1033 C1021 0.929 . S
H1034 C1022 0.960 . S
H1035 C1022 0.962 . S
H1036 C1022 0.960 . S
H1037 C1023 0.961 . S
H1038 C1023 0.961 . S
H1039 C1023 0.961 . S
H1040 C1024 0.931 . S
H1041 C1029 0.930 . S
H1042 C1030 0.956 . S
H1043 C1030 0.961 . S
H1044 C1030 0.961 . S
H1045 C1031 0.958 . S
H1046 C1031 0.961 . S
H1047 C1031 0.960 . S
C1048 C1049 1.391 . S
C1048 C1050 1.394 . S
C1048 H1064 0.931 . S
C1049 C1048 1.391 . S
C1049 C1053 1.376 . S
C1050 C1048 1.394 . S
C1050 C1051 1.369 . S
C1050 C1054 1.531 . S
C1051 C1050 1.369 . S
C1051 C1052 1.410 . S
C1051 C1059 1.503 1_655 S
C1052 C1051 1.410 . S
C1052 C1053 1.392 . S
C1052 C1055 1.511 . S
C1053 C1049 1.376 . S
C1053 C1052 1.392 . S
C1053 H1065 0.929 . S
C1054 C1050 1.531 . S
C1054 H1066 0.960 . S
C1054 H1067 0.962 . S
C1054 H1068 0.960 . S
C1055 C1052 1.511 . S
C1055 H1069 0.961 . S
C1055 H1070 0.961 1_655 S
C1055 H1071 0.961 . S
C1056 C1057 1.370 . S
C1056 C1058 1.363 . S
C1056 H1072 0.931 . S
C1057 C1056 1.370 . S
C1057 C1061 1.408 . S
C1058 C1056 1.363 . S
C1058 C1059 1.370 . S
C1058 C1062 1.524 . S
C1059 C1051 1.503 1_455 S
C1059 C1058 1.370 . S
C1059 C1060 1.403 . S
C1060 C1059 1.403 . S
C1060 C1061 1.404 . S
C1060 C1063 1.539 1_455 S
C1061 C1057 1.408 . S
C1061 C1060 1.404 . S
C1061 H1073 0.930 . S
C1062 C1058 1.524 . S
C1062 H1074 0.956 . S
C1062 H1075 0.961 . S
C1062 H1076 0.961 . S
C1063 C1060 1.539 1_655 S
C1063 H1077 0.958 . S
C1063 H1078 0.961 1_655 S
C1063 H1079 0.960 . S
H1064 C1048 0.931 . S
H1065 C1053 0.929 . S
H1066 C1054 0.960 . S
H1067 C1054 0.962 . S
H1068 C1054 0.960 . S
H1069 C1055 0.961 . S
H1070 C1055 0.961 1_455 S
H1071 C1055 0.961 . S
H1072 C1056 0.931 . S
H1073 C1061 0.930 . S
H1074 C1062 0.956 . S
H1075 C1062 0.961 . S
H1076 C1062 0.961 . S
H1077 C1063 0.958 . S
H1078 C1063 0.961 1_455 S
H1079 C1063 0.960 . S
C1080 C1081 1.391 . S
C1080 C1082 1.394 . S
C1080 H1096 0.931 . S
C1081 C1080 1.391 . S
C1081 C1085 1.376 . S
C1082 C1080 1.394 . S
C1082 C1083 1.369 . S
C1082 C1086 1.531 . S
C1083 C1082 1.369 . S
C1083 C1084 1.410 . S
C1083 C1091 1.503 1_655 S
C1084 C1083 1.410 . S
C1084 C1085 1.392 . S
C1084 C1087 1.511 1_655 S
C1085 C1081 1.376 . S
C1085 C1084 1.392 . S
C1085 H1097 0.929 . S
C1086 C1082 1.531 . S
C1086 H1098 0.960 . S
C1086 H1099 0.962 . S
C1086 H1100 0.960 . S
C1087 C1084 1.511 1_455 S
C1087 H1101 0.970 . S
C1087 H1102 0.961 . S
C1087 H1103 0.961 . S
C1088 C1089 1.370 . S
C1088 C1090 1.363 . S
C1088 H1104 0.931 . S
C1089 C1088 1.370 . S
C1089 C1093 1.408 . S
C1090 C1088 1.363 . S
C1090 C1091 1.370 . S
C1090 C1094 1.524 . S
C1091 C1083 1.503 1_455 S
C1091 C1090 1.370 . S
C1091 C1092 1.403 . S
C1092 C1091 1.403 . S
C1092 C1093 1.404 . S
C1092 C1095 1.539 . S
C1093 C1089 1.408 . S
C1093 C1092 1.404 . S
C1093 H1105 0.930 . S
C1094 C1090 1.524 . S
C1094 H1106 0.956 1_455 S
C1094 H1107 0.961 1_455 S
C1094 H1108 0.961 . S
C1095 C1092 1.539 . S
C1095 H1109 0.958 . S
C1095 H1110 0.961 . S
C1095 H1111 0.960 . S
H1096 C1080 0.931 . S
H1097 C1085 0.929 . S
H1098 C1086 0.960 . S
H1099 C1086 0.962 . S
H1100 C1086 0.960 . S
H1101 C1087 0.970 . S
H1102 C1087 0.961 . S
H1103 C1087 0.961 . S
H1104 C1088 0.931 . S
H1105 C1093 0.930 . S
H1106 C1094 0.956 1_655 S
H1107 C1094 0.961 1_655 S
H1108 C1094 0.961 . S
H1109 C1095 0.958 . S
H1110 C1095 0.961 . S
H1111 C1095 0.960 . S
C1112 C1113 1.391 . S
C1112 C1114 1.394 . S
C1112 H1128 0.931 . S
C1113 C1112 1.391 . S
C1113 C1117 1.376 . S
C1114 C1112 1.394 . S
C1114 C1115 1.369 . S
C1114 C1118 1.531 . S
C1115 C1114 1.369 . S
C1115 C1116 1.410 . S
C1115 C1123 1.503 1_565 S
C1116 C1115 1.410 . S
C1116 C1117 1.392 . S
C1116 C1119 1.511 . S
C1117 C1113 1.376 . S
C1117 C1116 1.392 . S
C1117 H1129 0.929 . S
C1118 C1114 1.531 . S
C1118 H1130 0.960 . S
C1118 H1131 0.962 . S
C1118 H1132 0.960 . S
C1119 C1116 1.511 . S
C1119 H1133 0.961 . S
C1119 H1134 0.961 1_565 S
C1119 H1135 0.961 . S
C1120 C1121 1.370 . S
C1120 C1122 1.363 . S
C1120 H1136 0.931 . S
C1121 C1120 1.370 . S
C1121 C1125 1.408 . S
C1122 C1120 1.363 . S
C1122 C1123 1.370 . S
C1122 C1126 1.524 . S
C1123 C1115 1.503 1_545 S
C1123 C1122 1.370 . S
C1123 C1124 1.403 . S
C1124 C1123 1.403 . S
C1124 C1125 1.404 . S
C1124 C1127 1.539 1_545 S
C1125 C1121 1.408 . S
C1125 C1124 1.404 . S
C1125 H1137 0.930 . S
C1126 C1122 1.524 . S
C1126 H1138 0.956 . S
C1126 H1139 0.961 . S
C1126 H1140 0.961 . S
C1127 C1124 1.539 1_565 S
C1127 H1141 0.958 . S
C1127 H1142 0.961 . S
C1127 H1143 0.960 . S
H1128 C1112 0.931 . S
H1129 C1117 0.929 . S
H1130 C1118 0.960 . S
H1131 C1118 0.962 . S
H1132 C1118 0.960 . S
H1133 C1119 0.961 . S
H1134 C1119 0.961 1_545 S
H1135 C1119 0.961 . S
H1136 C1120 0.931 . S
H1137 C1125 0.930 . S
H1138 C1126 0.956 . S
H1139 C1126 0.961 . S
H1140 C1126 0.961 . S
H1141 C1127 0.958 . S
H1142 C1127 0.961 . S
H1143 C1127 0.960 . S
C1144 C1145 1.391 . S
C1144 C1146 1.394 . S
C1144 H1160 0.931 . S
C1145 C1144 1.391 . S
C1145 C1149 1.376 . S
C1146 C1144 1.394 . S
C1146 C1147 1.369 . S
C1146 C1150 1.531 . S
C1147 C1146 1.369 . S
C1147 C1148 1.410 . S
C1147 C1155 1.503 1_545 S
C1148 C1147 1.410 . S
C1148 C1149 1.392 . S
C1148 C1151 1.511 1_545 S
C1149 C1145 1.376 . S
C1149 C1148 1.392 . S
C1149 H1161 0.929 . S
C1150 C1146 1.531 . S
C1150 H1162 0.960 . S
C1150 H1163 0.962 . S
C1150 H1164 0.960 . S
C1151 C1148 1.511 1_565 S
C1151 H1165 0.961 . S
C1151 H1166 0.961 . S
C1151 H1167 0.961 . S
C1152 C1153 1.370 . S
C1152 C1154 1.363 . S
C1152 H1168 0.931 . S
C1153 C1152 1.370 . S
C1153 C1157 1.408 . S
C1154 C1152 1.363 . S
C1154 C1155 1.370 . S
C1154 C1158 1.524 . S
C1155 C1147 1.503 1_565 S
C1155 C1154 1.370 . S
C1155 C1156 1.403 . S
C1156 C1155 1.403 . S
C1156 C1157 1.404 . S
C1156 C1159 1.539 1_565 S
C1157 C1153 1.408 . S
C1157 C1156 1.404 . S
C1157 H1169 0.930 . S
C1158 C1154 1.524 . S
C1158 H1170 0.956 . S
C1158 H1171 0.961 . S
C1158 H1172 0.961 . S
C1159 C1156 1.539 1_545 S
C1159 H1173 0.958 . S
C1159 H1174 0.961 1_545 S
C1159 H1175 0.960 . S
H1160 C1144 0.931 . S
H1161 C1149 0.929 . S
H1162 C1150 0.960 . S
H1163 C1150 0.962 . S
H1164 C1150 0.960 . S
H1165 C1151 0.961 . S
H1166 C1151 0.961 . S
H1167 C1151 0.961 . S
H1168 C1152 0.931 . S
H1169 C1157 0.930 . S
H1170 C1158 0.956 . S
H1171 C1158 0.961 . S
H1172 C1158 0.961 . S
H1173 C1159 0.958 . S
H1174 C1159 0.961 1_565 S
H1175 C1159 0.960 . S
C1176 C1177 1.391 . S
C1176 C1178 1.394 . S
C1176 H1192 0.931 . S
C1177 C1176 1.391 . S
C1177 C1181 1.376 . S
C1178 C1176 1.394 . S
C1178 C1179 1.369 . S
C1178 C1182 1.531 1_545 S
C1179 C1178 1.369 . S
C1179 C1180 1.410 1_455 S
C1179 C1187 1.503 1_445 S
C1180 C1179 1.410 1_655 S
C1180 C1181 1.392 1_655 S
C1180 C1183 1.511 . S
C1181 C1177 1.376 . S
C1181 C1180 1.392 1_455 S
C1181 H1193 0.929 1_455 S
C1182 C1178 1.531 1_565 S
C1182 H1194 0.960 . S
C1182 H1195 0.962 . S
C1182 H1196 0.960 . S
C1183 C1180 1.511 . S
C1183 H1197 0.961 . S
C1183 H1198 0.961 . S
C1183 H1199 0.961 . S
C1184 C1185 1.370 . S
C1184 C1186 1.363 . S
C1184 H1200 0.931 . S
C1185 C1184 1.370 . S
C1185 C1189 1.408 . S
C1186 C1184 1.363 . S
C1186 C1187 1.370 . S
C1186 C1190 1.524 1_655 S
C1187 C1179 1.503 1_665 S
C1187 C1186 1.370 . S
C1187 C1188 1.403 . S
C1188 C1187 1.403 . S
C1188 C1189 1.404 . S
C1188 C1191 1.539 . S
C1189 C1185 1.408 . S
C1189 C1188 1.404 . S
C1189 H1201 0.930 . S
C1190 C1186 1.524 1_455 S
C1190 H1202 0.956 . S
C1190 H1203 0.951 1_565 S
C1190 H1204 0.961 . S
C1191 C1188 1.539 . S
C1191 H1205 0.958 . S
C1191 H1206 0.961 . S
C1191 H1207 0.960 1_565 S
H1192 C1176 0.931 . S
H1193 C1181 0.929 1_655 S
H1194 C1182 0.960 . S
H1195 C1182 0.962 . S
H1196 C1182 0.960 . S
H1197 C1183 0.961 . S
H1198 C1183 0.961 . S
H1199 C1183 0.961 . S
H1200 C1184 0.931 . S
H1201 C1189 0.930 . S
H1202 C1190 0.956 . S
H1203 C1190 0.951 1_545 S
H1204 C1190 0.961 . S
H1205 C1191 0.958 . S
H1206 C1191 0.961 . S
H1207 C1191 0.960 1_545 S
C1208 C1209 1.391 . S
C1208 C1210 1.394 1_455 S
C1208 H1224 0.931 . S
C1209 C1208 1.391 . S
C1209 C1213 1.376 . S
C1210 C1208 1.394 1_655 S
C1210 C1211 1.369 1_655 S
C1210 C1214 1.531 . S
C1211 C1210 1.369 1_455 S
C1211 C1212 1.410 . S
C1211 C1219 1.503 1_465 S
C1212 C1211 1.410 . S
C1212 C1213 1.392 . S
C1212 C1215 1.511 1_565 S
C1213 C1209 1.376 . S
C1213 C1212 1.392 . S
C1213 H1225 0.929 . S
C1214 C1210 1.531 . S
C1214 H1226 0.960 . S
C1214 H1227 0.962 . S
C1214 H1228 0.960 . S
C1215 C1212 1.511 1_545 S
C1215 H1229 0.961 . S
C1215 H1230 0.961 . S
C1215 H1231 0.961 . S
C1216 C1217 1.370 . S
C1216 C1218 1.363 . S
C1216 H1232 0.931 . S
C1217 C1216 1.370 . S
C1217 C1221 1.408 . S
C1218 C1216 1.363 . S
C1218 C1219 1.370 . S
C1218 C1222 1.524 1_545 S
C1219 C1211 1.503 1_645 S
C1219 C1218 1.370 . S
C1219 C1220 1.403 . S
C1220 C1219 1.403 . S
C1220 C1221 1.404 . S
C1220 C1223 1.539 1_655 S
C1221 C1217 1.408 . S
C1221 C1220 1.404 . S
C1221 H1233 0.930 . S
C1222 C1218 1.524 1_565 S
C1222 H1234 0.956 . S
C1222 H1235 0.961 . S
C1222 H1236 0.961 1_565 S
C1223 C1220 1.539 1_455 S
C1223 H1237 0.958 . S
C1223 H1238 0.961 . S
C1223 H1239 0.960 . S
H1224 C1208 0.931 . S
H1225 C1213 0.929 . S
H1226 C1214 0.960 . S
H1227 C1214 0.962 . S
H1228 C1214 0.960 . S
H1229 C1215 0.961 . S
H1230 C1215 0.961 . S
H1231 C1215 0.961 . S
H1232 C1216 0.931 . S
H1233 C1221 0.930 . S
H1234 C1222 0.956 . S
H1235 C1222 0.961 . S
H1236 C1222 0.961 1_545 S
H1237 C1223 0.958 . S
H1238 C1223 0.961 . S
H1239 C1223 0.960 . S
C1240 C1241 1.391 . S
C1240 C1242 1.394 1_545 S
C1240 H1256 0.931 . S
C1241 C1240 1.391 . S
C1241 C1245 1.376 . S
C1242 C1240 1.394 1_565 S
C1242 C1243 1.369 1_565 S
C1242 C1246 1.531 . S
C1243 C1242 1.369 1_545 S
C1243 C1244 1.410 . S
C1243 C1251 1.503 1_544 S
C1244 C1243 1.410 . S
C1244 C1245 1.392 . S
C1244 C1247 1.511 . S
C1245 C1241 1.376 . S
C1245 C1244 1.392 . S
C1245 H1257 0.929 . S
C1246 C1242 1.531 . S
C1246 H1258 0.960 . S
C1246 H1259 0.962 . S
C1246 H1260 0.960 . S
C1247 C1244 1.511 . S
C1247 H1261 0.961 . S
C1247 H1262 0.961 1_554 S
C1247 H1263 0.961 . S
C1248 C1249 1.370 . S
C1248 C1250 1.363 1_565 S
C1248 H1264 0.931 . S
C1249 C1248 1.370 . S
C1249 C1253 1.408 . S
C1250 C1248 1.363 1_545 S
C1250 C1251 1.370 1_545 S
C1250 C1254 1.524 . S
C1251 C1243 1.503 1_566 S
C1251 C1250 1.370 1_565 S
C1251 C1252 1.403 . S
C1252 C1251 1.403 . S
C1252 C1253 1.404 . S
C1252 C1255 1.539 1_556 S
C1253 C1249 1.408 . S
C1253 C1252 1.404 . S
C1253 H1265 0.930 . S
C1254 C1250 1.524 . S
C1254 H1266 0.956 . S
C1254 H1267 0.961 . S
C1254 H1268 0.961 . S
C1255 C1252 1.539 1_554 S
C1255 H1269 0.958 . S
C1255 H1270 0.947 1_554 S
C1255 H1271 0.960 . S
H1256 C1240 0.931 . S
H1257 C1245 0.929 . S
H1258 C1246 0.960 . S
H1259 C1246 0.962 . S
H1260 C1246 0.960 . S
H1261 C1247 0.961 . S
H1262 C1247 0.961 1_556 S
H1263 C1247 0.961 . S
H1264 C1248 0.931 . S
H1265 C1253 0.930 . S
H1266 C1254 0.956 . S
H1267 C1254 0.961 . S
H1268 C1254 0.961 . S
H1269 C1255 0.958 . S
H1270 C1255 0.947 1_556 S
H1271 C1255 0.960 . S
C1272 C1273 1.391 . S
C1272 C1274 1.394 . S
C1272 H1288 0.931 . S
C1273 C1272 1.391 . S
C1273 C1277 1.376 . S
C1274 C1272 1.394 . S
C1274 C1275 1.369 . S
C1274 C1278 1.531 1_455 S
C1275 C1274 1.369 . S
C1275 C1276 1.410 1_556 S
C1275 C1283 1.503 1_456 S
C1276 C1275 1.410 1_554 S
C1276 C1277 1.392 1_554 S
C1276 C1279 1.511 . S
C1277 C1273 1.376 . S
C1277 C1276 1.392 1_556 S
C1277 H1289 0.914 1_556 S
C1278 C1274 1.531 1_655 S
C1278 H1290 0.960 . S
C1278 H1291 0.962 . S
C1278 H1292 0.960 . S
C1279 C1276 1.511 . S
C1279 H1293 0.961 . S
C1279 H1294 0.961 . S
C1279 H1295 0.961 . S
C1280 C1281 1.370 . S
C1280 C1282 1.363 . S
C1280 H1296 0.931 . S
C1281 C1280 1.370 . S
C1281 C1285 1.408 . S
C1282 C1280 1.363 . S
C1282 C1283 1.370 . S
C1282 C1286 1.524 1_554 S
C1283 C1275 1.503 1_654 S
C1283 C1282 1.370 . S
C1283 C1284 1.403 . S
C1284 C1283 1.403 . S
C1284 C1285 1.404 . S
C1284 C1287 1.539 . S
C1285 C1281 1.408 . S
C1285 C1284 1.404 . S
C1285 H1297 0.930 . S
C1286 C1282 1.524 1_556 S
C1286 H1298 0.956 . S
C1286 H1299 0.996 . S
C1286 H1300 0.961 . S
C1287 C1284 1.539 . S
C1287 H1301 0.958 . S
C1287 H1302 0.961 . S
C1287 H1303 0.960 1_655 S
H1288 C1272 0.931 . S
H1289 C1277 0.914 1_554 S
H1290 C1278 0.960 . S
H1291 C1278 0.962 . S
H1292 C1278 0.960 . S
H1293 C1279 0.961 . S
H1294 C1279 0.961 . S
H1295 C1279 0.961 . S
H1296 C1280 0.931 . S
H1297 C1285 0.930 . S
H1298 C1286 0.956 . S
H1299 C1286 0.996 . S
H1300 C1286 0.961 . S
H1301 C1287 0.958 . S
H1302 C1287 0.961 . S
H1303 C1287 0.960 1_455 S
C1304 C1305 1.391 . S
C1304 C1306 1.394 . S
C1304 H1320 0.931 . S
C1305 C1304 1.391 . S
C1305 C1309 1.376 . S
C1306 C1304 1.394 . S
C1306 C1307 1.369 . S
C1306 C1310 1.531 1_556 S
C1307 C1306 1.369 . S
C1307 C1308 1.410 . S
C1307 C1315 1.503 1_546 S
C1308 C1307 1.410 . S
C1308 C1309 1.392 . S
C1308 C1311 1.511 1_545 S
C1309 C1305 1.376 . S
C1309 C1308 1.392 . S
C1309 H1321 0.929 . S
C1310 C1306 1.531 1_554 S
C1310 H1322 0.960 . S
C1310 H1323 0.962 1_554 S
C1310 H1324 0.960 1_554 S
C1311 C1308 1.511 1_565 S
C1311 H1325 0.961 . S
C1311 H1326 0.961 . S
C1311 H1327 0.961 1_565 S
C1312 C1313 1.370 . S
C1312 C1314 1.363 . S
C1312 H1328 0.931 . S
C1313 C1312 1.370 . S
C1313 C1317 1.408 . S
C1314 C1312 1.363 . S
C1314 C1315 1.370 . S
C1314 C1318 1.524 1_554 S
C1315 C1307 1.503 1_564 S
C1315 C1314 1.370 . S
C1315 C1316 1.403 1_565 S
C1316 C1315 1.403 1_545 S
C1316 C1317 1.404 1_545 S
C1316 C1319 1.539 . S
C1317 C1313 1.408 . S
C1317 C1316 1.404 1_565 S
C1317 H1329 0.933 . S
C1318 C1314 1.524 1_556 S
C1318 H1330 0.956 . S
C1318 H1331 0.961 . S
C1318 H1332 0.961 . S
C1319 C1316 1.539 . S
C1319 H1333 0.958 . S
C1319 H1334 0.961 . S
C1319 H1335 0.960 . S
H1320 C1304 0.931 . S
H1321 C1309 0.929 . S
H1322 C1310 0.960 . S
H1323 C1310 0.962 1_556 S
H1324 C1310 0.960 1_556 S
H1325 C1311 0.961 . S
H1326 C1311 0.961 . S
H1327 C1311 0.961 1_545 S
H1328 C1312 0.931 . S
H1329 C1317 0.933 . S
H1330 C1318 0.956 . S
H1331 C1318 0.961 . S
H1332 C1318 0.961 . S
H1333 C1319 0.958 . S
H1334 C1319 0.961 . S
H1335 C1319 0.960 . S
C1336 C1337 1.391 . S
C1336 C1338 1.394 1_556 S
C1336 H1352 0.932 1_556 S
C1337 C1336 1.391 . S
C1337 C1341 1.376 . S
C1338 C1336 1.394 1_554 S
C1338 C1339 1.369 1_554 S
C1338 C1342 1.531 . S
C1339 C1338 1.369 1_556 S
C1339 C1340 1.410 . S
C1339 C1347 1.503 1_656 S
C1340 C1339 1.410 . S
C1340 C1341 1.392 . S
C1340 C1343 1.511 1_655 S
C1341 C1337 1.376 . S
C1341 C1340 1.392 . S
C1341 H1353 0.929 . S
C1342 C1338 1.531 . S
C1342 H1354 0.960 . S
C1342 H1355 0.962 . S
C1342 H1356 0.960 . S
C1343 C1340 1.511 1_455 S
C1343 H1357 0.961 . S
C1343 H1358 0.961 . S
C1343 H1359 0.961 . S
C1344 C1345 1.370 . S
C1344 C1346 1.363 . S
C1344 H1360 0.931 . S
C1345 C1344 1.370 . S
C1345 C1349 1.408 . S
C1346 C1344 1.363 . S
C1346 C1347 1.370 . S
C1346 C1350 1.524 . S
C1347 C1339 1.503 1_454 S
C1347 C1346 1.370 . S
C1347 C1348 1.403 . S
C1348 C1347 1.403 . S
C1348 C1349 1.404 . S
C1348 C1351 1.539 1_554 S
C1349 C1345 1.408 . S
C1349 C1348 1.404 . S
C1349 H1361 0.930 . S
C1350 C1346 1.524 . S
C1350 H1362 0.956 1_455 S
C1350 H1363 0.951 1_454 S
C1350 H1364 0.961 . S
C1351 C1348 1.539 1_556 S
C1351 H1365 0.958 1_556 S
C1351 H1366 0.961 . S
C1351 H1367 0.960 . S
H1352 C1336 0.932 1_554 S
H1353 C1341 0.929 . S
H1354 C1342 0.960 . S
H1355 C1342 0.962 . S
H1356 C1342 0.960 . S
H1357 C1343 0.961 . S
H1358 C1343 0.961 . S
H1359 C1343 0.961 . S
H1360 C1344 0.931 . S
H1361 C1349 0.930 . S
H1362 C1350 0.956 1_655 S
H1363 C1350 0.951 1_656 S
H1364 C1350 0.961 . S
H1365 C1351 0.958 1_554 S
H1366 C1351 0.961 . S
H1367 C1351 0.960 . S
C409 C190 1.139 . S
C417 C9 1.087 . S
C441 C54 1.135 . S
C449 C213 1.064 . S
C473 C77 1.096 . S
C481 C258 1.120 . S
C505 C145 1.024 . S
C513 C122 1.125 . S
C537 C394 1.102 . S
C545 C43 1.061 . S
C569 C88 1.128 . S
C577 C281 1.091 . S
C601 C111 1.117 . S
C609 C326 1.125 . S
C633 C20 1.112 . S
C641 C349 1.046 . S
C665 C224 1.107 . S
C673 C383 1.074 . S
C697 C179 1.015 . S
C705 C360 1.117 . S
C729 C247 1.050 . S
C737 C292 1.129 . S
C761 C156 1.140 . S
C769 C315 1.079 . S
C793 C39 0.218 . S
C801 C5 0.297 . S
C825 C70 1.036 . S
C833 C36 1.011 . S
C857 C107 0.370 . S
C865 C73 0.280 . S
C889 C104 0.946 . S
C897 C2 0.973 . S
C921 C345 0.324 . S
C929 C141 0.314 . S
C953 C376 0.962 . S
C961 C172 0.972 . S
C985 C209 0.295 . S
C993 C277 0.239 . S
C1017 C240 0.973 . S
C1025 C308 0.973 . S
C1049 C311 0.369 . S
C1057 C379 0.279 . S
C1081 C243 0.330 . S
C1089 C175 0.313 . S
C1113 C206 0.997 . S
C1121 C138 0.979 . S
C1145 C342 0.957 . S
C1153 C274 0.972 . S
C1177 C33 1.354 . S
C1185 C101 1.338 . S
C1209 C67 1.310 . S
C1217 C135 1.335 . S
C1241 C169 1.337 . S
C1249 C305 1.326 . S
C1273 C203 1.354 . S
C1281 C339 1.338 . S
C1305 C373 1.325 . S
C1313 C237 1.345 . S
C1337 C271 1.312 . S
C1345 C407 1.333 . S
