# Generated by pormake.
# Topology wlm, (5)-cn, num edge types: 1
# Building blocks:
#     Node 0, Type 0, BuildingBlock: BEQFEK_clean_sbu_0, # of connection points: 5
#     Node 1, Type 0, BuildingBlock: BEQFEK_clean_sbu_0, # of connection points: 5
#     Node 2, Type 0, BuildingBlock: BEQFEK_clean_sbu_0, # of connection points: 5
#     Node 3, Type 0, BuildingBlock: BEQFEK_clean_sbu_0, # of connection points: 5
#     Node 4, Type 0, BuildingBlock: BEQFEK_clean_sbu_0, # of connection points: 5
#     Node 5, Type 0, BuildingBlock: BEQFEK_clean_sbu_0, # of connection points: 5
#     Node 6, Type 0, BuildingBlock: BEQFEK_clean_sbu_0, # of connection points: 5
#     Node 7, Type 0, BuildingBlock: BEQFEK_clean_sbu_0, # of connection points: 5
#     Node 8, Type 0, BuildingBlock: BEQFEK_clean_sbu_0, # of connection points: 5
#     Node 9, Type 0, BuildingBlock: BEQFEK_clean_sbu_0, # of connection points: 5
#     Node 10, Type 0, BuildingBlock: BEQFEK_clean_sbu_0, # of connection points: 5
#     Node 11, Type 0, BuildingBlock: BEQFEK_clean_sbu_0, # of connection points: 5
#     Node 12, Type 0, BuildingBlock: BEQFEK_clean_sbu_0, # of connection points: 5
#     Node 13, Type 0, BuildingBlock: BEQFEK_clean_sbu_0, # of connection points: 5
#     Node 14, Type 0, BuildingBlock: BEQFEK_clean_sbu_0, # of connection points: 5
#     Node 15, Type 0, BuildingBlock: BEQFEK_clean_sbu_0, # of connection points: 5
#     Node 16, Type 0, BuildingBlock: BEQFEK_clean_sbu_0, # of connection points: 5
#     Node 17, Type 0, BuildingBlock: BEQFEK_clean_sbu_0, # of connection points: 5
#     Node 18, Type 0, BuildingBlock: BEQFEK_clean_sbu_0, # of connection points: 5
#     Node 19, Type 0, BuildingBlock: BEQFEK_clean_sbu_0, # of connection points: 5
#     Node 20, Type 0, BuildingBlock: BEQFEK_clean_sbu_0, # of connection points: 5
#     Node 21, Type 0, BuildingBlock: BEQFEK_clean_sbu_0, # of connection points: 5
#     Node 22, Type 0, BuildingBlock: BEQFEK_clean_sbu_0, # of connection points: 5
#     Node 23, Type 0, BuildingBlock: BEQFEK_clean_sbu_0, # of connection points: 5
#     Node 24, Type 0, BuildingBlock: BEQFEK_clean_sbu_0, # of connection points: 5
#     Node 25, Type 0, BuildingBlock: BEQFEK_clean_sbu_0, # of connection points: 5
#     Node 26, Type 0, BuildingBlock: BEQFEK_clean_sbu_0, # of connection points: 5
#     Node 27, Type 0, BuildingBlock: BEQFEK_clean_sbu_0, # of connection points: 5
#     Node 28, Type 0, BuildingBlock: BEQFEK_clean_sbu_0, # of connection points: 5
#     Node 29, Type 0, BuildingBlock: BEQFEK_clean_sbu_0, # of connection points: 5
#     Node 30, Type 0, BuildingBlock: BEQFEK_clean_sbu_0, # of connection points: 5
#     Node 31, Type 0, BuildingBlock: BEQFEK_clean_sbu_0, # of connection points: 5
#     Node 32, Type 0, BuildingBlock: BEQFEK_clean_sbu_0, # of connection points: 5
#     Node 33, Type 0, BuildingBlock: BEQFEK_clean_sbu_0, # of connection points: 5
#     Node 34, Type 0, BuildingBlock: BEQFEK_clean_sbu_0, # of connection points: 5
#     Node 35, Type 0, BuildingBlock: BEQFEK_clean_sbu_0, # of connection points: 5
#     Edge 36, Type (0, 0), BuildingBlock: TEMPAE_clean_linker_10, # of connection points: 2
#     Edge 37, Type (0, 0), BuildingBlock: TEMPAE_clean_linker_10, # of connection points: 2
#     Edge 38, Type (0, 0), BuildingBlock: TEMPAE_clean_linker_10, # of connection points: 2
#     Edge 39, Type (0, 0), BuildingBlock: TEMPAE_clean_linker_10, # of connection points: 2
#     Edge 40, Type (0, 0), BuildingBlock: TEMPAE_clean_linker_10, # of connection points: 2
#     Edge 41, Type (0, 0), BuildingBlock: TEMPAE_clean_linker_10, # of connection points: 2
#     Edge 42, Type (0, 0), BuildingBlock: TEMPAE_clean_linker_10, # of connection points: 2
#     Edge 43, Type (0, 0), BuildingBlock: TEMPAE_clean_linker_10, # of connection points: 2
#     Edge 44, Type (0, 0), BuildingBlock: TEMPAE_clean_linker_10, # of connection points: 2
#     Edge 45, Type (0, 0), BuildingBlock: TEMPAE_clean_linker_10, # of connection points: 2
#     Edge 46, Type (0, 0), BuildingBlock: TEMPAE_clean_linker_10, # of connection points: 2
#     Edge 47, Type (0, 0), BuildingBlock: TEMPAE_clean_linker_10, # of connection points: 2
#     Edge 48, Type (0, 0), BuildingBlock: TEMPAE_clean_linker_10, # of connection points: 2
#     Edge 49, Type (0, 0), BuildingBlock: TEMPAE_clean_linker_10, # of connection points: 2
#     Edge 50, Type (0, 0), BuildingBlock: TEMPAE_clean_linker_10, # of connection points: 2
#     Edge 51, Type (0, 0), BuildingBlock: TEMPAE_clean_linker_10, # of connection points: 2
#     Edge 52, Type (0, 0), BuildingBlock: TEMPAE_clean_linker_10, # of connection points: 2
#     Edge 53, Type (0, 0), BuildingBlock: TEMPAE_clean_linker_10, # of connection points: 2
#     Edge 54, Type (0, 0), BuildingBlock: TEMPAE_clean_linker_10, # of connection points: 2
#     Edge 55, Type (0, 0), BuildingBlock: TEMPAE_clean_linker_10, # of connection points: 2
#     Edge 56, Type (0, 0), BuildingBlock: TEMPAE_clean_linker_10, # of connection points: 2
#     Edge 57, Type (0, 0), BuildingBlock: TEMPAE_clean_linker_10, # of connection points: 2
#     Edge 58, Type (0, 0), BuildingBlock: TEMPAE_clean_linker_10, # of connection points: 2
#     Edge 59, Type (0, 0), BuildingBlock: TEMPAE_clean_linker_10, # of connection points: 2
#     Edge 60, Type (0, 0), BuildingBlock: TEMPAE_clean_linker_10, # of connection points: 2
#     Edge 61, Type (0, 0), BuildingBlock: TEMPAE_clean_linker_10, # of connection points: 2
#     Edge 62, Type (0, 0), BuildingBlock: TEMPAE_clean_linker_10, # of connection points: 2
#     Edge 63, Type (0, 0), BuildingBlock: TEMPAE_clean_linker_10, # of connection points: 2
#     Edge 64, Type (0, 0), BuildingBlock: TEMPAE_clean_linker_10, # of connection points: 2
#     Edge 65, Type (0, 0), BuildingBlock: TEMPAE_clean_linker_10, # of connection points: 2
#     Edge 66, Type (0, 0), BuildingBlock: TEMPAE_clean_linker_10, # of connection points: 2
#     Edge 67, Type (0, 0), BuildingBlock: TEMPAE_clean_linker_10, # of connection points: 2
#     Edge 68, Type (0, 0), BuildingBlock: TEMPAE_clean_linker_10, # of connection points: 2
#     Edge 69, Type (0, 0), BuildingBlock: TEMPAE_clean_linker_10, # of connection points: 2
#     Edge 70, Type (0, 0), BuildingBlock: TEMPAE_clean_linker_10, # of connection points: 2
#     Edge 71, Type (0, 0), BuildingBlock: TEMPAE_clean_linker_10, # of connection points: 2
#     Edge 72, Type (0, 0), BuildingBlock: TEMPAE_clean_linker_10, # of connection points: 2
#     Edge 73, Type (0, 0), BuildingBlock: TEMPAE_clean_linker_10, # of connection points: 2
#     Edge 74, Type (0, 0), BuildingBlock: TEMPAE_clean_linker_10, # of connection points: 2
#     Edge 75, Type (0, 0), BuildingBlock: TEMPAE_clean_linker_10, # of connection points: 2
#     Edge 76, Type (0, 0), BuildingBlock: TEMPAE_clean_linker_10, # of connection points: 2
#     Edge 77, Type (0, 0), BuildingBlock: TEMPAE_clean_linker_10, # of connection points: 2
#     Edge 78, Type (0, 0), BuildingBlock: TEMPAE_clean_linker_10, # of connection points: 2
#     Edge 79, Type (0, 0), BuildingBlock: TEMPAE_clean_linker_10, # of connection points: 2
#     Edge 80, Type (0, 0), BuildingBlock: TEMPAE_clean_linker_10, # of connection points: 2
#     Edge 81, Type (0, 0), BuildingBlock: TEMPAE_clean_linker_10, # of connection points: 2
#     Edge 82, Type (0, 0), BuildingBlock: TEMPAE_clean_linker_10, # of connection points: 2
#     Edge 83, Type (0, 0), BuildingBlock: TEMPAE_clean_linker_10, # of connection points: 2
#     Edge 84, Type (0, 0), BuildingBlock: TEMPAE_clean_linker_10, # of connection points: 2
#     Edge 85, Type (0, 0), BuildingBlock: TEMPAE_clean_linker_10, # of connection points: 2
#     Edge 86, Type (0, 0), BuildingBlock: TEMPAE_clean_linker_10, # of connection points: 2
#     Edge 87, Type (0, 0), BuildingBlock: TEMPAE_clean_linker_10, # of connection points: 2
#     Edge 88, Type (0, 0), BuildingBlock: TEMPAE_clean_linker_10, # of connection points: 2
#     Edge 89, Type (0, 0), BuildingBlock: TEMPAE_clean_linker_10, # of connection points: 2
#     Edge 90, Type (0, 0), BuildingBlock: TEMPAE_clean_linker_10, # of connection points: 2
#     Edge 91, Type (0, 0), BuildingBlock: TEMPAE_clean_linker_10, # of connection points: 2
#     Edge 92, Type (0, 0), BuildingBlock: TEMPAE_clean_linker_10, # of connection points: 2
#     Edge 93, Type (0, 0), BuildingBlock: TEMPAE_clean_linker_10, # of connection points: 2
#     Edge 94, Type (0, 0), BuildingBlock: TEMPAE_clean_linker_10, # of connection points: 2
#     Edge 95, Type (0, 0), BuildingBlock: TEMPAE_clean_linker_10, # of connection points: 2
#     Edge 96, Type (0, 0), BuildingBlock: TEMPAE_clean_linker_10, # of connection points: 2
#     Edge 97, Type (0, 0), BuildingBlock: TEMPAE_clean_linker_10, # of connection points: 2
#     Edge 98, Type (0, 0), BuildingBlock: TEMPAE_clean_linker_10, # of connection points: 2
#     Edge 99, Type (0, 0), BuildingBlock: TEMPAE_clean_linker_10, # of connection points: 2
#     Edge 100, Type (0, 0), BuildingBlock: TEMPAE_clean_linker_10, # of connection points: 2
#     Edge 101, Type (0, 0), BuildingBlock: TEMPAE_clean_linker_10, # of connection points: 2
#     Edge 102, Type (0, 0), BuildingBlock: TEMPAE_clean_linker_10, # of connection points: 2
#     Edge 103, Type (0, 0), BuildingBlock: TEMPAE_clean_linker_10, # of connection points: 2
#     Edge 104, Type (0, 0), BuildingBlock: TEMPAE_clean_linker_10, # of connection points: 2
#     Edge 105, Type (0, 0), BuildingBlock: TEMPAE_clean_linker_10, # of connection points: 2
#     Edge 106, Type (0, 0), BuildingBlock: TEMPAE_clean_linker_10, # of connection points: 2
#     Edge 107, Type (0, 0), BuildingBlock: TEMPAE_clean_linker_10, # of connection points: 2
#     Edge 108, Type (0, 0), BuildingBlock: TEMPAE_clean_linker_10, # of connection points: 2
#     Edge 109, Type (0, 0), BuildingBlock: TEMPAE_clean_linker_10, # of connection points: 2
#     Edge 110, Type (0, 0), BuildingBlock: TEMPAE_clean_linker_10, # of connection points: 2
#     Edge 111, Type (0, 0), BuildingBlock: TEMPAE_clean_linker_10, # of connection points: 2
#     Edge 112, Type (0, 0), BuildingBlock: TEMPAE_clean_linker_10, # of connection points: 2
#     Edge 113, Type (0, 0), BuildingBlock: TEMPAE_clean_linker_10, # of connection points: 2
#     Edge 114, Type (0, 0), BuildingBlock: TEMPAE_clean_linker_10, # of connection points: 2
#     Edge 115, Type (0, 0), BuildingBlock: TEMPAE_clean_linker_10, # of connection points: 2
#     Edge 116, Type (0, 0), BuildingBlock: TEMPAE_clean_linker_10, # of connection points: 2
#     Edge 117, Type (0, 0), BuildingBlock: TEMPAE_clean_linker_10, # of connection points: 2
#     Edge 118, Type (0, 0), BuildingBlock: TEMPAE_clean_linker_10, # of connection points: 2
#     Edge 119, Type (0, 0), BuildingBlock: TEMPAE_clean_linker_10, # of connection points: 2
#     Edge 120, Type (0, 0), BuildingBlock: TEMPAE_clean_linker_10, # of connection points: 2
#     Edge 121, Type (0, 0), BuildingBlock: TEMPAE_clean_linker_10, # of connection points: 2
#     Edge 122, Type (0, 0), BuildingBlock: TEMPAE_clean_linker_10, # of connection points: 2
#     Edge 123, Type (0, 0), BuildingBlock: TEMPAE_clean_linker_10, # of connection points: 2
#     Edge 124, Type (0, 0), BuildingBlock: TEMPAE_clean_linker_10, # of connection points: 2
#     Edge 125, Type (0, 0), BuildingBlock: TEMPAE_clean_linker_10, # of connection points: 2
# Relax obj value: 0.054
# Max RMSD: 0.100
# Mean RMSD: 0.100
data_MOF--net-wlm--node1-BEQFEK_clean_sbu_0--edge1-TEMPAE_clean_linker_10
_symmetry_space_group_name_H-M    P1
_symmetry_Int_Tables_number       1
_symmetry_cell_setting            triclinic
loop_
_symmetry_equiv_pos_as_xyz
'x, y, z'
_cell_length_a     130.01687
_cell_length_b     130.00118
_cell_length_c     19.504946
_cell_angle_alpha  90.008035
_cell_angle_beta   89.99572
_cell_angle_gamma 119.9945
loop_
_atom_site_label
_atom_site_type_symbol
_atom_site_fract_x
_atom_site_fract_y
_atom_site_fract_z
_atom_type_partial_charge
Co0 Co 0.14523 0.40327 0.32036 0.0
Co1 Co 0.13895 0.39432 0.16842 0.0
C2 C 0.16359 0.40395 0.22942 0.0
O3 O 0.16101 0.40702 0.28592 0.0
O4 O 0.15583 0.39871 0.18273 0.0
C5 C 0.1538 0.40836 0.45726 0.0
O6 O 0.16165 0.40577 0.4327 0.0
C7 C 0.14171 0.39821 0.01918 0.0
C8 C 0.12593 0.38211 0.98001 0.0
C9 C 0.13583 0.39258 0.95906 0.0
N10 N 0.13549 0.39142 0.07278 0.0
N11 N 0.12607 0.38182 0.04895 0.0
C12 C 0.15333 0.40954 0.02589 0.0
H13 H 0.15736 0.41018 0.07677 0.0
H14 H 0.15185 0.4172 0.02068 0.0
H15 H 0.15955 0.41017 0.98495 0.0
C16 C 0.13518 0.41819 0.27555 0.0
N17 N 0.1385 0.41008 0.26319 0.0
N18 N 0.1359 0.4064 0.19931 0.0
C19 C 0.13075 0.41201 0.16915 0.0
C20 C 0.13023 0.41973 0.21623 0.0
C21 C 0.13667 0.42423 0.34308 0.0
H22 H 0.13042 0.41769 0.38069 0.0
H23 H 0.14582 0.42753 0.36241 0.0
H24 H 0.13493 0.43174 0.3389 0.0
O25 O 0.13487 0.38576 0.32508 0.0
O26 O 0.12881 0.37939 0.21901 0.0
H27 H 0.12057 0.39947 0.09054 0.0
H28 H 0.11897 0.41249 0.09218 0.0
C29 C 0.12531 0.4092 0.09909 0.0
H30 H 0.13242 0.41349 0.06014 0.0
H31 H 0.11975 0.37505 0.07978 0.0
O32 O 0.14626 0.40857 0.41666 0.0
C33 C 0.1287 0.37743 0.28302 0.0
Co34 Co 0.5997 0.74195 0.30583 0.0
Co35 Co 0.60602 0.74447 0.14946 0.0
C36 C 0.59709 0.75922 0.21798 0.0
O37 O 0.59577 0.75414 0.27575 0.0
O38 O 0.6011 0.75645 0.16588 0.0
C39 C 0.58782 0.73829 0.44018 0.0
O40 O 0.57918 0.73908 0.41033 0.0
C41 C 0.60083 0.74336 0.00265 0.0
C42 C 0.61427 0.73961 0.9584 0.0
C43 C 0.60466 0.74096 0.94158 0.0
N44 N 0.60779 0.74331 0.05343 0.0
N45 N 0.61591 0.74123 0.02653 0.0
C46 C 0.59012 0.74459 0.01378 0.0
H47 H 0.5864 0.74138 0.06572 0.0
H48 H 0.58325 0.73959 0.97432 0.0
H49 H 0.59276 0.75412 0.01 0.0
C50 C 0.58376 0.71688 0.26473 0.0
N51 N 0.59188 0.72825 0.25068 0.0
N52 N 0.59462 0.72925 0.18509 0.0
C53 C 0.58833 0.71849 0.15536 0.0
C54 C 0.58119 0.71033 0.20463 0.0
C55 C 0.57842 0.71256 0.33407 0.0
H56 H 0.57425 0.71773 0.35163 0.0
H57 H 0.57161 0.70299 0.3336 0.0
H58 H 0.58554 0.71413 0.37108 0.0
O59 O 0.61709 0.74842 0.30198 0.0
O60 O 0.62184 0.75043 0.19162 0.0
H61 H 0.59937 0.71994 0.07025 0.0
H62 H 0.58553 0.70617 0.07265 0.0
C63 C 0.5898 0.71585 0.08244 0.0
H64 H 0.58579 0.71966 0.04801 0.0
H65 H 0.62233 0.74053 0.05504 0.0
O66 O 0.59619 0.73872 0.40445 0.0
C67 C 0.62476 0.75141 0.25451 0.0
Co68 Co 0.25745 0.85645 0.30585 0.0
Co69 Co 0.25391 0.85978 0.15061 0.0
C70 C 0.24003 0.83623 0.21745 0.0
O71 O 0.24517 0.84045 0.27447 0.0
O72 O 0.24254 0.84267 0.16409 0.0
C73 C 0.25295 0.84834 0.4404 0.0
O74 O 0.24227 0.84211 0.41393 0.0
C75 C 0.25235 0.85684 0.00092 0.0
C76 C 0.25918 0.87536 0.96673 0.0
C77 C 0.25528 0.86396 0.94302 0.0
N78 N 0.25471 0.86381 0.05637 0.0
N79 N 0.25865 0.87483 0.03559 0.0
C80 C 0.24696 0.84362 0.00427 0.0
H81 H 0.23873 0.83982 0.03542 0.0
H82 H 0.25321 0.84142 0.03012 0.0
H83 H 0.24462 0.83945 0.95286 0.0
C84 C 0.28263 0.86759 0.25974 0.0
N85 N 0.27095 0.8631 0.24785 0.0
N86 N 0.26926 0.86364 0.18179 0.0
C87 C 0.27973 0.86796 0.14903 0.0
C88 C 0.28864 0.87084 0.19729 0.0
C89 C 0.28791 0.86953 0.33001 0.0
H90 H 0.28259 0.87147 0.36674 0.0
H91 H 0.28778 0.86132 0.34703 0.0
H92 H 0.29721 0.877 0.33046 0.0
O93 O 0.25024 0.86657 0.30927 0.0
O94 O 0.24817 0.8695 0.19928 0.0
H95 H 0.28078 0.87631 0.05274 0.0
H96 H 0.28946 0.86897 0.0566 0.0
C97 C 0.28102 0.86845 0.07261 0.0
H98 H 0.27359 0.86035 0.04965 0.0
H99 H 0.26124 0.88204 0.06858 0.0
O100 O 0.26153 0.85512 0.40149 0.0
C101 C 0.24706 0.8712 0.26252 0.0
Co102 Co 0.39948 0.14274 0.70644 0.0
Co103 Co 0.39346 0.13969 0.86422 0.0
C104 C 0.4021 0.16292 0.79552 0.0
O105 O 0.40329 0.15885 0.73846 0.0
O106 O 0.39816 0.15641 0.84862 0.0
C107 C 0.41305 0.14882 0.57416 0.0
O108 O 0.42327 0.15369 0.60647 0.0
C109 C 0.39573 0.14277 0.01577 0.0
C110 C 0.38636 0.124 0.04878 0.0
C111 C 0.39305 0.1355 0.07334 0.0
N112 N 0.3912 0.1358 0.96001 0.0
N113 N 0.38542 0.12462 0.98046 0.0
C114 C 0.4021 0.15605 0.01335 0.0
H115 H 0.39792 0.15905 0.97475 0.0
H116 H 0.41148 0.15944 0.99816 0.0
H117 H 0.4018 0.15986 0.06369 0.0
C118 C 0.41395 0.13175 0.74935 0.0
N119 N 0.40697 0.13647 0.76223 0.0
N120 N 0.40525 0.13634 0.82886 0.0
C121 C 0.41172 0.13227 0.8606 0.0
C122 C 0.41724 0.12896 0.81146 0.0
C123 C 0.41622 0.12865 0.67922 0.0
H124 H 0.40924 0.12773 0.64303 0.0
H125 H 0.42498 0.13578 0.6608 0.0
H126 H 0.41644 0.12023 0.68043 0.0
O127 O 0.38228 0.13181 0.70876 0.0
O128 O 0.37768 0.1296 0.81943 0.0
H129 H 0.40584 0.12442 0.95962 0.0
H130 H 0.42175 0.13257 0.94981 0.0
C131 C 0.41338 0.13245 0.93664 0.0
H132 H 0.41375 0.14046 0.95887 0.0
H133 H 0.38121 0.11737 0.94732 0.0
O134 O 0.40335 0.14408 0.60734 0.0
C135 C 0.37469 0.12731 0.75666 0.0
Co136 Co 0.85606 0.25758 0.67601 0.0
Co137 Co 0.85933 0.2554 0.83316 0.0
C138 C 0.83592 0.24047 0.7646 0.0
O139 O 0.84014 0.24487 0.70594 0.0
O140 O 0.84229 0.24388 0.81849 0.0
C141 C 0.84766 0.26124 0.54254 0.0
O142 O 0.8385 0.26087 0.57334 0.0
C143 C 0.85539 0.2567 0.97993 0.0
C144 C 0.87265 0.2606 0.02374 0.0
C145 C 0.86167 0.25917 0.04082 0.0
N146 N 0.86239 0.25678 0.92899 0.0
N147 N 0.87264 0.25896 0.9556 0.0
C148 C 0.84339 0.25536 0.9691 0.0
H149 H 0.84287 0.25869 0.91757 0.0
H150 H 0.84142 0.2602 0.00912 0.0
H151 H 0.83659 0.24579 0.97199 0.0
C152 C 0.86508 0.28278 0.71521 0.0
N153 N 0.86167 0.2714 0.73037 0.0
N154 N 0.86325 0.27053 0.79634 0.0
C155 C 0.86768 0.28134 0.82529 0.0
C156 C 0.8689 0.28943 0.77505 0.0
C157 C 0.86454 0.28708 0.6449 0.0
H158 H 0.86967 0.28476 0.60885 0.0
H159 H 0.85518 0.28248 0.62732 0.0
H160 H 0.86803 0.2968 0.64382 0.0
O161 O 0.86735 0.25172 0.6805 0.0
O162 O 0.86907 0.24908 0.79138 0.0
H163 H 0.87718 0.28023 0.91185 0.0
H164 H 0.87672 0.29379 0.90832 0.0
C165 C 0.87155 0.2841 0.89855 0.0
H166 H 0.86362 0.28012 0.9322 0.0
H167 H 0.87975 0.25968 0.92692 0.0
O168 O 0.85555 0.26057 0.57743 0.0
C169 C 0.8716 0.24847 0.729 0.0
Co170 Co 0.74261 0.59861 0.68441 0.0
Co171 Co 0.7452 0.60449 0.8411 0.0
C172 C 0.75917 0.59483 0.77469 0.0
O173 O 0.75449 0.5944 0.71667 0.0
O174 O 0.75637 0.5985 0.82804 0.0
C175 C 0.74541 0.59164 0.54995 0.0
O176 O 0.75493 0.59216 0.57664 0.0
C177 C 0.74569 0.60162 0.98981 0.0
C178 C 0.74079 0.61464 0.02779 0.0
C179 C 0.74353 0.60613 0.04904 0.0
N180 N 0.74409 0.6071 0.93588 0.0
N181 N 0.74124 0.61491 0.95887 0.0
C182 C 0.74984 0.59279 0.98376 0.0
H183 H 0.74393 0.58556 0.94826 0.0
H184 H 0.75022 0.58902 0.034 0.0
H185 H 0.75889 0.59726 0.96125 0.0
C186 C 0.71714 0.58488 0.72462 0.0
N187 N 0.72877 0.59169 0.73968 0.0
N188 N 0.72998 0.59353 0.80621 0.0
C189 C 0.71922 0.58754 0.83611 0.0
C190 C 0.71066 0.58198 0.7854 0.0
C191 C 0.7124 0.58216 0.65295 0.0
H192 H 0.71783 0.58985 0.61909 0.0
H193 H 0.71298 0.57444 0.63351 0.0
H194 H 0.70303 0.58006 0.65071 0.0
O195 O 0.75015 0.61601 0.68461 0.0
O196 O 0.75149 0.62027 0.79567 0.0
H197 H 0.71811 0.59495 0.93189 0.0
H198 H 0.70849 0.57902 0.92609 0.0
C199 C 0.71732 0.58658 0.91211 0.0
H200 H 0.72418 0.5852 0.93703 0.0
H201 H 0.73949 0.62035 0.92739 0.0
O202 O 0.73865 0.59363 0.5879 0.0
C203 C 0.75308 0.6235 0.73308 0.0
Co204 Co 0.85627 0.5983 0.71762 0.0
Co205 Co 0.8599 0.60599 0.87213 0.0
C206 C 0.8362 0.59589 0.80601 0.0
O207 O 0.84012 0.59423 0.7497 0.0
O208 O 0.84295 0.60057 0.85756 0.0
C209 C 0.84783 0.59393 0.58268 0.0
O210 O 0.84093 0.59761 0.60902 0.0
C211 C 0.85673 0.6043 0.02178 0.0
C212 C 0.87495 0.61684 0.05736 0.0
C213 C 0.86365 0.60876 0.08028 0.0
N214 N 0.86372 0.60931 0.9668 0.0
N215 N 0.87456 0.61689 0.98844 0.0
C216 C 0.84365 0.59578 0.01741 0.0
H217 H 0.84207 0.58762 0.99011 0.0
H218 H 0.83939 0.59344 0.06859 0.0
H219 H 0.83941 0.59986 0.98708 0.0
C220 C 0.86725 0.58435 0.76519 0.0
N221 N 0.86292 0.59169 0.77643 0.0
N222 N 0.8638 0.59435 0.84204 0.0
C223 C 0.86832 0.58839 0.87521 0.0
C224 C 0.8708 0.58195 0.8276 0.0
C225 C 0.8688 0.58057 0.69524 0.0
H226 H 0.87103 0.58781 0.65784 0.0
H227 H 0.86033 0.57271 0.67905 0.0
H228 H 0.87593 0.57826 0.69467 0.0
O229 O 0.86679 0.61568 0.71325 0.0
O230 O 0.86932 0.62127 0.82239 0.0
H231 H 0.87721 0.59677 0.96851 0.0
H232 H 0.87068 0.5808 0.96887 0.0
C233 C 0.8695 0.58826 0.95153 0.0
H234 H 0.86138 0.58727 0.97606 0.0
H235 H 0.88175 0.62191 0.95602 0.0
O236 O 0.85503 0.59282 0.62177 0.0
C237 C 0.87126 0.62373 0.75885 0.0
Co238 Co 0.39954 0.25714 0.68846 0.0
Co239 Co 0.3935 0.25401 0.84525 0.0
C240 C 0.40301 0.2401 0.77648 0.0
O241 O 0.40351 0.24502 0.71923 0.0
O242 O 0.39938 0.24276 0.83056 0.0
C243 C 0.40731 0.25503 0.55448 0.0
O244 O 0.40767 0.24598 0.58183 0.0
C245 C 0.39637 0.25325 0.99395 0.0
C246 C 0.38317 0.25782 0.03274 0.0
C247 C 0.39181 0.25524 0.05351 0.0
N248 N 0.39081 0.25481 0.94031 0.0
N249 N 0.38288 0.25745 0.9638 0.0
C250 C 0.4054 0.24936 0.98731 0.0
H251 H 0.41254 0.25537 0.95158 0.0
H252 H 0.40927 0.24908 0.03738 0.0
H253 H 0.40107 0.24032 0.96471 0.0
C254 C 0.41345 0.28245 0.73186 0.0
N255 N 0.40652 0.27078 0.74549 0.0
N256 N 0.40457 0.26934 0.81188 0.0
C257 C 0.41055 0.27998 0.84305 0.0
C258 C 0.41626 0.28871 0.79339 0.0
C259 C 0.41641 0.28744 0.66081 0.0
H260 H 0.40878 0.28222 0.62615 0.0
H261 H 0.4241 0.2868 0.64154 0.0
H262 H 0.41865 0.29687 0.65969 0.0
O263 O 0.38215 0.24974 0.68849 0.0
O264 O 0.37777 0.24796 0.7995 0.0
H265 H 0.40289 0.28064 0.9389 0.0
H266 H 0.4188 0.29046 0.93432 0.0
C267 C 0.41135 0.28164 0.91925 0.0
H268 H 0.41283 0.27479 0.94338 0.0
H269 H 0.37735 0.25914 0.93266 0.0
O270 O 0.40457 0.26131 0.59187 0.0
C271 C 0.37462 0.24664 0.7368 0.0
Co272 Co 0.74202 0.14463 0.70615 0.0
Co273 Co 0.7451 0.13985 0.85995 0.0
C274 C 0.75915 0.16407 0.79651 0.0
O275 O 0.75353 0.16069 0.74004 0.0
O276 O 0.75704 0.15684 0.84571 0.0
C277 C 0.74617 0.15314 0.57061 0.0
O278 O 0.75669 0.16035 0.59676 0.0
C279 C 0.74625 0.14313 0.00941 0.0
C280 C 0.74095 0.12506 0.04617 0.0
C281 C 0.74398 0.13635 0.06838 0.0
N282 N 0.74439 0.13608 0.95489 0.0
N283 N 0.74133 0.12533 0.97722 0.0
C284 C 0.75063 0.15617 0.00409 0.0
H285 H 0.74415 0.15758 0.97453 0.0
H286 H 0.75219 0.16049 0.05495 0.0
H287 H 0.75914 0.1605 0.97549 0.0
C288 C 0.71677 0.1331 0.74949 0.0
N289 N 0.72839 0.13746 0.76267 0.0
N290 N 0.7298 0.13622 0.82834 0.0
C291 C 0.71914 0.13137 0.85961 0.0
C292 C 0.71048 0.12909 0.81064 0.0
C293 C 0.71182 0.13195 0.6788 0.0
H294 H 0.71683 0.1296 0.64205 0.0
H295 H 0.71285 0.14061 0.66303 0.0
H296 H 0.70229 0.12505 0.6765 0.0
O297 O 0.74978 0.13488 0.70261 0.0
O298 O 0.75046 0.12997 0.81088 0.0
H299 H 0.71835 0.12183 0.95067 0.0
H300 H 0.70856 0.12798 0.95176 0.0
C301 C 0.7174 0.12954 0.93545 0.0
H302 H 0.72425 0.13752 0.96247 0.0
H303 H 0.73931 0.11812 0.94528 0.0
O304 O 0.73798 0.14581 0.6099 0.0
C305 C 0.75228 0.12935 0.7473 0.0
Co306 Co 0.60038 0.85718 0.30376 0.0
Co307 Co 0.60411 0.858 0.14578 0.0
C308 C 0.59639 0.83572 0.22164 0.0
O309 O 0.59694 0.84093 0.27802 0.0
O310 O 0.59866 0.84115 0.16452 0.0
C311 C 0.58823 0.84917 0.43512 0.0
O312 O 0.57955 0.84019 0.4024 0.0
C313 C 0.59974 0.85355 0.99776 0.0
C314 C 0.61044 0.87181 0.9573 0.0
C315 C 0.60255 0.86022 0.9382 0.0
N316 N 0.60559 0.86093 0.04999 0.0
N317 N 0.61212 0.87178 0.02527 0.0
C318 C 0.59067 0.8407 0.00643 0.0
H319 H 0.58576 0.83935 0.05522 0.0
H320 H 0.5843 0.8374 0.963 0.0
H321 H 0.59526 0.83545 0.00892 0.0
C322 C 0.585 0.86709 0.2641 0.0
N323 N 0.59199 0.86248 0.24913 0.0
N324 N 0.59315 0.86231 0.18223 0.0
C325 C 0.58649 0.86633 0.1523 0.0
C326 C 0.58127 0.86972 0.20304 0.0
C327 C 0.5829 0.8699 0.33538 0.0
H328 H 0.59088 0.87254 0.36745 0.0
H329 H 0.57536 0.86184 0.35827 0.0
H330 H 0.58077 0.87716 0.33559 0.0
O331 O 0.61741 0.86829 0.2958 0.0
O332 O 0.6205 0.86802 0.18417 0.0
H333 H 0.59243 0.87379 0.05251 0.0
H334 H 0.57659 0.86697 0.06458 0.0
C335 C 0.58454 0.86625 0.07659 0.0
H336 H 0.58321 0.85784 0.05436 0.0
H337 H 0.61734 0.87926 0.05535 0.0
O338 O 0.59703 0.85707 0.40184 0.0
C339 C 0.62435 0.87157 0.24462 0.0
Co340 Co 0.14276 0.74311 0.29612 0.0
Co341 Co 0.1395 0.74484 0.13759 0.0
C342 C 0.16283 0.75993 0.20383 0.0
O343 O 0.15882 0.75515 0.26207 0.0
O344 O 0.15626 0.75694 0.15083 0.0
C345 C 0.14946 0.73641 0.42736 0.0
O346 O 0.15445 0.7313 0.39372 0.0
C347 C 0.14235 0.74521 0.98625 0.0
C348 C 0.12357 0.73456 0.95437 0.0
C349 C 0.13508 0.74005 0.92926 0.0
N350 N 0.1354 0.74246 0.04228 0.0
N351 N 0.1242 0.7363 0.02253 0.0
C352 C 0.15556 0.75309 0.98773 0.0
H353 H 0.15802 0.76038 0.02502 0.0
H354 H 0.15972 0.74785 0.00422 0.0
H355 H 0.15907 0.75711 0.93682 0.0
C356 C 0.13173 0.71737 0.26038 0.0
N357 N 0.1364 0.72895 0.24415 0.0
N358 N 0.13621 0.72999 0.17708 0.0
C359 C 0.13218 0.71922 0.14839 0.0
C360 C 0.12894 0.7108 0.20006 0.0
C361 C 0.12864 0.71258 0.33179 0.0
H362 H 0.12766 0.7189 0.36556 0.0
H363 H 0.13578 0.71114 0.35218 0.0
H364 H 0.12024 0.70391 0.33214 0.0
O365 O 0.13182 0.74937 0.29128 0.0
O366 O 0.12954 0.75091 0.17963 0.0
H367 H 0.12406 0.71598 0.04935 0.0
H368 H 0.13286 0.70901 0.06292 0.0
C369 C 0.13232 0.71713 0.07299 0.0
H370 H 0.14008 0.72479 0.04882 0.0
H371 H 0.11698 0.73292 0.05606 0.0
O372 O 0.14433 0.74109 0.39539 0.0
C373 C 0.12731 0.75211 0.24176 0.0
Co374 Co 0.2569 0.39782 0.29586 0.0
Co375 Co 0.25422 0.39458 0.13764 0.0
C376 C 0.23958 0.40211 0.21398 0.0
O377 O 0.24418 0.40136 0.27011 0.0
O378 O 0.2428 0.40002 0.15651 0.0
C379 C 0.26141 0.41012 0.42678 0.0
O380 O 0.26196 0.41915 0.39324 0.0
C381 C 0.2546 0.39934 0.98979 0.0
C382 C 0.26167 0.38822 0.94921 0.0
C383 C 0.25836 0.39641 0.9302 0.0
N384 N 0.25583 0.39327 0.04187 0.0
N385 N 0.25986 0.3865 0.01708 0.0
C386 C 0.25121 0.4087 -0.00134 0.0
H387 H 0.25423 0.41307 0.04935 0.0
H388 H 0.25509 0.41548 0.95748 0.0
H389 H 0.24139 0.40446 0.99658 0.0
C390 C 0.28226 0.41326 0.25791 0.0
N391 N 0.27068 0.40635 0.24216 0.0
N392 N 0.26946 0.40538 0.17515 0.0
C393 C 0.28021 0.41208 0.14596 0.0
C394 C 0.28872 0.41714 0.1973 0.0
C395 C 0.28704 0.41511 0.32941 0.0
H396 H 0.28156 0.40709 0.36086 0.0
H397 H 0.28666 0.42269 0.3528 0.0
H398 H 0.29639 0.41708 0.32985 0.0
O399 O 0.25101 0.38082 0.28656 0.0
O400 O 0.24773 0.37807 0.17468 0.0
H401 H 0.2817 0.40623 0.04583 0.0
H402 H 0.29099 0.42203 0.05903 0.0
C403 C 0.28222 0.41416 0.07043 0.0
H404 H 0.2753 0.41573 0.04819 0.0
H405 H 0.26183 0.38105 0.04706 0.0
O406 O 0.25992 0.40103 0.39418 0.0
C407 C 0.24737 0.37404 0.23466 0.0
Co408 Co 0.81168 0.73549 0.64836 0.0
Co409 Co 0.80674 0.72804 0.49431 0.0
C410 C 0.83095 0.73773 0.55655 0.0
O411 O 0.8277 0.73993 0.61361 0.0
O412 O 0.82365 0.73281 0.50744 0.0
C413 C 0.82003 0.73917 0.78379 0.0
O414 O 0.82671 0.73522 0.75746 0.0
C415 C 0.80984 0.72994 0.34477 0.0
C416 C 0.79146 0.71812 0.30893 0.0
C417 C 0.80289 0.72577 0.28617 0.0
N418 N 0.80276 0.72515 0.39963 0.0
N419 N 0.79181 0.71802 0.37786 0.0
C420 C 0.82303 0.73784 0.34939 0.0
H421 H 0.82509 0.746 0.37841 0.0
H422 H 0.82732 0.74024 0.29832 0.0
H423 H 0.82685 0.73318 0.37815 0.0
C424 C 0.80018 0.74941 0.60777 0.0
N425 N 0.80453 0.74218 0.5934 0.0
N426 N 0.80341 0.73983 0.52739 0.0
C427 C 0.79878 0.74591 0.49698 0.0
C428 C 0.79639 0.75207 0.54696 0.0
C429 C 0.79879 0.75279 0.67913 0.0
H430 H 0.79672 0.74537 0.7149 0.0
H431 H 0.80727 0.76061 0.69558 0.0
H432 H 0.79159 0.755 0.68213 0.0
O433 O 0.80178 0.71799 0.65118 0.0
O434 O 0.79677 0.71275 0.54261 0.0
H435 H 0.78937 0.73811 0.40397 0.0
H436 H 0.79656 0.75414 0.40582 0.0
C437 C 0.79739 0.74636 0.42101 0.0
H438 H 0.80523 0.74702 0.39469 0.0
H439 H 0.78455 0.71323 0.41018 0.0
O440 O 0.81307 0.74065 0.74464 0.0
C441 C 0.79614 0.71011 0.60588 0.0
Co442 Co 0.26508 0.07474 0.65292 0.0
Co443 Co 0.27066 0.07749 0.49587 0.0
C444 C 0.26232 0.09232 0.5669 0.0
O445 O 0.26204 0.08765 0.62478 0.0
O446 O 0.26525 0.08907 0.51224 0.0
C447 C 0.25301 0.07097 0.78628 0.0
O448 O 0.24438 0.07167 0.75565 0.0
C449 C 0.2656 0.07653 0.34886 0.0
C450 C 0.27897 0.07262 0.30514 0.0
C451 C 0.26944 0.07408 0.28799 0.0
N452 N 0.27248 0.0764 0.39988 0.0
N453 N 0.28057 0.07424 0.37329 0.0
C454 C 0.25494 0.07787 0.35957 0.0
H455 H 0.2511 0.07458 0.41119 0.0
H456 H 0.24812 0.07298 0.31964 0.0
H457 H 0.25767 0.08742 0.35633 0.0
C458 C 0.24881 0.04973 0.61087 0.0
N459 N 0.25685 0.06114 0.59698 0.0
N460 N 0.25935 0.06224 0.53103 0.0
C461 C 0.25293 0.05154 0.50084 0.0
C462 C 0.24599 0.0433 0.55023 0.0
C463 C 0.2439 0.04521 0.68078 0.0
H464 H 0.23932 0.04993 0.69961 0.0
H465 H 0.23751 0.03553 0.68062 0.0
H466 H 0.2513 0.04722 0.7166 0.0
O467 O 0.28221 0.08054 0.64869 0.0
O468 O 0.28666 0.08361 0.53806 0.0
H469 H 0.24953 0.03935 0.41637 0.0
H470 H 0.25013 0.0531 0.39427 0.0
C471 C 0.25407 0.04901 0.42717 0.0
H472 H 0.26357 0.0529 0.41386 0.0
H473 H 0.28691 0.07345 0.40203 0.0
O474 O 0.26148 0.07147 0.75126 0.0
C475 C 0.28975 0.08397 0.60035 0.0
Co476 Co 0.9234 0.19034 0.62752 0.0
Co477 Co 0.9208 0.1935 0.47091 0.0
C478 C 0.90617 0.17011 0.5397 0.0
O479 O 0.91133 0.17409 0.59708 0.0
O480 O 0.90878 0.17671 0.48696 0.0
C481 C 0.92804 0.18265 0.76137 0.0
O482 O 0.9288 0.17403 0.73105 0.0
C483 C 0.92095 0.1895 0.32277 0.0
C484 C 0.92766 0.20767 0.28262 0.0
C485 C 0.92445 0.1962 0.26312 0.0
N486 N 0.9222 0.19675 0.37526 0.0
N487 N 0.92602 0.20754 0.35076 0.0
C488 C 0.91787 0.17684 0.3313 0.0
H489 H 0.92095 0.17556 0.38196 0.0
H490 H 0.92191 0.17412 0.29007 0.0
H491 H 0.90808 0.17106 0.32898 0.0
C492 C 0.94879 0.20104 0.58855 0.0
N493 N 0.93722 0.19657 0.57334 0.0
N494 N 0.93603 0.19726 0.50679 0.0
C495 C 0.9468 0.20174 0.47711 0.0
C496 C 0.95529 0.20448 0.5279 0.0
C497 C 0.95352 0.20297 0.66022 0.0
H498 H 0.94809 0.20519 0.69437 0.0
H499 H 0.95298 0.19466 0.67914 0.0
H500 H 0.9629 0.21025 0.66254 0.0
O501 O 0.9169 0.2011 0.62374 0.0
O502 O 0.91489 0.20356 0.51302 0.0
H503 H 0.94809 0.21032 0.38127 0.0
H504 H 0.95768 0.204 0.38777 0.0
C505 C 0.94883 0.20273 0.40125 0.0
H506 H 0.94205 0.19449 0.37611 0.0
H507 H 0.92797 0.21491 0.38102 0.0
O508 O 0.92641 0.1899 0.72593 0.0
C509 C 0.91393 0.20567 0.5757 0.0
Co510 Co 0.06864 0.47708 0.01742 0.0
Co511 Co 0.06013 0.47142 0.17013 0.0
C512 C 0.06992 0.49589 0.10719 0.0
O513 O 0.0727 0.49298 0.05085 0.0
O514 O 0.06469 0.48836 0.15495 0.0
C515 C 0.07413 0.48582 0.88106 0.0
O516 O 0.07202 0.49397 0.90603 0.0
C517 C 0.06405 0.47432 0.3193 0.0
C518 C 0.04804 0.45845 0.35846 0.0
C519 C 0.05846 0.4684 0.37934 0.0
N520 N 0.0573 0.46806 0.26572 0.0
N521 N 0.04774 0.4586 0.28954 0.0
C522 C 0.07532 0.486 0.3127 0.0
H523 H 0.0759 0.49006 0.26201 0.0
H524 H 0.08304 0.48461 0.31758 0.0
H525 H 0.07591 0.49216 0.35391 0.0
C526 C 0.08358 0.46707 0.06229 0.0
N527 N 0.07549 0.47041 0.07465 0.0
N528 N 0.07203 0.46811 0.13902 0.0
C529 C 0.07777 0.46311 0.16952 0.0
C530 C 0.08533 0.4624 0.12212 0.0
C531 C 0.08949 0.4684 0.9945 0.0
H532 H 0.09285 0.47754 0.97481 0.0
H533 H 0.09695 0.46657 0.9984 0.0
H534 H 0.08285 0.46214 0.95729 0.0
O535 O 0.05108 0.46683 0.01377 0.0
O536 O 0.04509 0.46128 0.1209 0.0
H537 H 0.07869 0.45186 0.24832 0.0
H538 H 0.07967 0.46541 0.27811 0.0
C539 C 0.07528 0.45808 0.24057 0.0
H540 H 0.06559 0.4533 0.25039 0.0
H541 H 0.041 0.45223 0.25871 0.0
O542 O 0.07385 0.47798 0.92115 0.0
C543 C 0.04289 0.4609 0.05708 0.0
Co544 Co 0.5241 0.59083 0.016 0.0
Co545 Co 0.52615 0.58872 0.17409 0.0
C546 C 0.50334 0.5737 0.10169 0.0
O547 O 0.50811 0.578 0.0439 0.0
O548 O 0.50916 0.57723 0.15748 0.0
C549 C 0.51559 0.59427 0.884 0.0
O550 O 0.50653 0.59382 0.91657 0.0
C551 C 0.52193 0.59008 0.32053 0.0
C552 C 0.53926 0.59429 0.36488 0.0
C553 C 0.52821 0.59272 0.3815 0.0
N554 N 0.52902 0.59022 0.26996 0.0
N555 N 0.53929 0.59257 0.2969 0.0
C556 C 0.50984 0.58849 0.30926 0.0
H557 H 0.50932 0.59183 0.25774 0.0
H558 H 0.50768 0.59319 0.34927 0.0
H559 H 0.50318 0.57889 0.31168 0.0
C560 C 0.53291 0.61606 0.05329 0.0
N561 N 0.52929 0.60468 0.0695 0.0
N562 N 0.53035 0.60384 0.13609 0.0
C563 C 0.53462 0.61468 0.16445 0.0
C564 C 0.53631 0.62275 0.11306 0.0
C565 C 0.53297 0.62033 0.98198 0.0
H566 H 0.52373 0.61597 0.96251 0.0
H567 H 0.53675 0.63009 0.97993 0.0
H568 H 0.53812 0.61771 0.94801 0.0
O569 O 0.53547 0.58511 0.02371 0.0
O570 O 0.53596 0.58224 0.13549 0.0
H571 H 0.54285 0.62714 0.24853 0.0
H572 H 0.52978 0.61328 0.27021 0.0
C573 C 0.53794 0.61746 0.23843 0.0
H574 H 0.54365 0.61378 0.25389 0.0
H575 H 0.54646 0.59337 0.2685 0.0
O576 O 0.5237 0.59373 0.91738 0.0
C577 C 0.53913 0.5817 0.07446 0.0
Co578 Co 0.40939 0.93138 0.01981 0.0
Co579 Co 0.41153 0.93785 0.17516 0.0
C580 C 0.42592 0.92817 0.10976 0.0
O581 O 0.42061 0.92633 0.05235 0.0
O582 O 0.42357 0.93295 0.15984 0.0
C583 C 0.40477 0.91932 0.88459 0.0
O584 O 0.40393 0.90982 0.91373 0.0
C585 C 0.41148 0.93389 0.32346 0.0
C586 C 0.40484 0.94541 0.36351 0.0
C587 C 0.40807 0.93718 0.38315 0.0
N588 N 0.41017 0.93982 0.27083 0.0
N589 N 0.40639 0.94683 0.29526 0.0
C590 C 0.41453 0.92428 0.31509 0.0
H591 H 0.41123 0.91975 0.26504 0.0
H592 H 0.41069 0.91767 0.35712 0.0
H593 H 0.42433 0.92832 0.31594 0.0
C594 C 0.38374 0.91744 0.05727 0.0
N595 N 0.39532 0.92445 0.07284 0.0
N596 N 0.3964 0.92648 0.13926 0.0
C597 C 0.38559 0.92043 0.16852 0.0
C598 C 0.37714 0.91467 0.11756 0.0
C599 C 0.37911 0.91431 0.98554 0.0
H600 H 0.38461 0.92179 0.95051 0.0
H601 H 0.37968 0.90646 0.96858 0.0
H602 H 0.36974 0.91221 0.98216 0.0
O603 O 0.4173 0.94883 0.02305 0.0
O604 O 0.41721 0.95366 0.13193 0.0
H605 H 0.38421 0.92792 0.26342 0.0
H606 H 0.37461 0.91201 0.25787 0.0
C607 C 0.38348 0.91955 0.24433 0.0
H608 H 0.39021 0.91811 0.27028 0.0
H609 H 0.40442 0.95224 0.26491 0.0
O610 O 0.40645 0.92811 0.92111 0.0
C611 C 0.41953 0.95656 0.06914 0.0
Co612 Co 0.52289 0.93058 0.0101 0.0
Co613 Co 0.52551 0.93737 0.16534 0.0
C614 C 0.50224 0.92749 0.09763 0.0
O615 O 0.50683 0.92711 0.04069 0.0
O616 O 0.50837 0.93104 0.15223 0.0
C617 C 0.51478 0.92681 0.87562 0.0
O618 O 0.50855 0.93126 0.90196 0.0
C619 C 0.52271 0.93615 0.31516 0.0
C620 C 0.54118 0.94827 0.34862 0.0
C621 C 0.52987 0.94053 0.3728 0.0
N622 N 0.52957 0.94085 0.25942 0.0
N623 N 0.54056 0.9482 0.27978 0.0
C624 C 0.50954 0.92799 0.31235 0.0
H625 H 0.50549 0.93211 0.28067 0.0
H626 H 0.50757 0.91953 0.2874 0.0
H627 H 0.50541 0.92619 0.36389 0.0
C628 C 0.53374 0.91646 0.0582 0.0
N629 N 0.52927 0.92369 0.0692 0.0
N630 N 0.52985 0.92612 0.13502 0.0
C631 C 0.53426 0.9201 0.1685 0.0
C632 C 0.53707 0.91391 0.12096 0.0
C633 C 0.53561 0.9129 0.98838 0.0
H634 H 0.53779 0.92016 0.95122 0.0
H635 H 0.52729 0.90494 0.9714 0.0
H636 H 0.54289 0.91078 0.98859 0.0
O637 O 0.53358 0.9478 0.00623 0.0
O638 O 0.53451 0.95286 0.11568 0.0
H639 H 0.5427 0.92794 0.26375 0.0
H640 H 0.53586 0.91195 0.26184 0.0
C641 C 0.53496 0.91961 0.24496 0.0
H642 H 0.52679 0.91872 0.26815 0.0
H643 H 0.54769 0.95294 0.24652 0.0
O644 O 0.52158 0.92504 0.91463 0.0
C645 C 0.53721 0.95564 0.05298 0.0
Co646 Co 0.06849 0.59129 0.01812 0.0
Co647 Co 0.06174 0.58716 0.1741 0.0
C648 C 0.07097 0.57327 0.10469 0.0
O649 O 0.07148 0.57836 0.04799 0.0
O650 O 0.06762 0.576 0.15959 0.0
C651 C 0.07547 0.58861 0.88375 0.0
O652 O 0.07448 0.57887 0.91033 0.0
C653 C 0.06395 0.58598 0.3233 0.0
C654 C 0.0507 0.59059 0.36056 0.0
C655 C 0.05929 0.588 0.38238 0.0
N656 N 0.05854 0.58757 0.26899 0.0
N657 N 0.05055 0.59021 0.29161 0.0
C658 C 0.07302 0.58212 0.31773 0.0
H659 H 0.08046 0.58842 0.28467 0.0
H660 H 0.07643 0.58138 0.36844 0.0
H661 H 0.06889 0.57329 0.29256 0.0
C662 C 0.08287 0.61616 0.06654 0.0
N663 N 0.07564 0.60448 0.07788 0.0
N664 N 0.07315 0.6027 0.1437 0.0
C665 C 0.07908 0.61318 0.17678 0.0
C666 C 0.08534 0.62211 0.12899 0.0
C667 C 0.08638 0.62152 0.9965 0.0
H668 H 0.07891 0.61666 0.96023 0.0
H669 H 0.09401 0.62069 0.97826 0.0
H670 H 0.08892 0.63103 0.99667 0.0
O671 O 0.05133 0.58512 0.0154 0.0
O672 O 0.04624 0.58108 0.12496 0.0
H673 H 0.07053 0.61324 0.27036 0.0
H674 H 0.0864 0.62335 0.2702 0.0
C675 C 0.07922 0.61452 0.25309 0.0
H676 H 0.08069 0.6077 0.2776 0.0
H677 H 0.04515 0.59196 0.25985 0.0
O678 O 0.07396 0.59566 0.92208 0.0
C679 C 0.04349 0.5811 0.06224 0.0
Co680 Co 0.40959 0.47647 0.03565 0.0
Co681 Co 0.41214 0.47364 0.19265 0.0
C682 C 0.42659 0.49698 0.12291 0.0
O683 O 0.42156 0.49278 0.06545 0.0
O684 O 0.4239 0.49051 0.1763 0.0
C685 C 0.40479 0.48405 0.90236 0.0
O686 O 0.40381 0.49248 0.93338 0.0
C687 C 0.41176 0.47769 0.34055 0.0
C688 C 0.40553 0.45965 0.38128 0.0
C689 C 0.40841 0.47104 0.40037 0.0
N690 N 0.41075 0.47048 0.28835 0.0
N691 N 0.40721 0.45977 0.31319 0.0
C692 C 0.41449 0.49024 0.33153 0.0
H693 H 0.41139 0.49137 0.2806 0.0
H694 H 0.41026 0.49281 0.37236 0.0
H695 H 0.42425 0.49624 0.33419 0.0
C696 C 0.38414 0.46562 0.07405 0.0
N697 N 0.39572 0.4702 0.08955 0.0
N698 N 0.39687 0.46953 0.15618 0.0
C699 C 0.38606 0.46489 0.18553 0.0
C700 C 0.3776 0.46209 0.13451 0.0
C701 C 0.37944 0.46373 0.00233 0.0
H702 H 0.38481 0.46139 0.96839 0.0
H703 H 0.38014 0.47209 0.98321 0.0
H704 H 0.37002 0.45655 -6e-05 0.0
O705 O 0.41629 0.46588 0.04045 0.0
O706 O 0.4184 0.46383 0.15157 0.0
H707 H 0.38498 0.45632 0.28109 0.0
H708 H 0.37495 0.46212 0.27453 0.0
C709 C 0.38393 0.46374 0.2613 0.0
H710 H 0.39048 0.47206 0.28683 0.0
H711 H 0.4055 0.45243 0.2832 0.0
O712 O 0.40659 0.47685 0.93719 0.0
C713 C 0.41941 0.46157 0.08924 0.0
Co714 Co 0.26277 0.18776 0.63988 0.0
Co715 Co 0.27129 0.19324 0.487 0.0
C716 C 0.26167 0.16888 0.55122 0.0
O717 O 0.25886 0.17185 0.60726 0.0
O718 O 0.26682 0.17634 0.50305 0.0
C719 C 0.25671 0.17883 0.77613 0.0
O720 O 0.25824 0.17031 0.75106 0.0
C721 C 0.26727 0.19019 0.338 0.0
C722 C 0.28341 0.20584 0.29807 0.0
C723 C 0.27288 0.19597 0.27768 0.0
N724 N 0.27412 0.19645 0.39127 0.0
N725 N 0.28376 0.20579 0.367 0.0
C726 C 0.2559 0.17862 0.34515 0.0
H727 H 0.25531 0.17461 0.39606 0.0
H728 H 0.24828 0.18015 0.34022 0.0
H729 H 0.25518 0.17236 0.30419 0.0
C730 C 0.24779 0.19767 0.59378 0.0
N731 N 0.25587 0.19429 0.58189 0.0
N732 N 0.25937 0.19656 0.51757 0.0
C733 C 0.25369 0.20158 0.48668 0.0
C734 C 0.2461 0.20233 0.53371 0.0
C735 C 0.24186 0.19641 0.66143 0.0
H736 H 0.24845 0.20282 0.69829 0.0
H737 H 0.23862 0.18734 0.68191 0.0
H738 H 0.23432 0.1981 0.65697 0.0
O739 O 0.28033 0.19807 0.64341 0.0
O740 O 0.28631 0.20349 0.5361 0.0
H741 H 0.26603 0.2113 0.40624 0.0
H742 H 0.25314 0.2131 0.40827 0.0
C743 C 0.25633 0.2067 0.41582 0.0
H744 H 0.25184 0.19943 0.37798 0.0
H745 H 0.29057 0.21212 0.39753 0.0
O746 O 0.25755 0.18694 0.73622 0.0
C747 C 0.28851 0.20396 0.59997 0.0
Co748 Co 0.8098 0.07581 0.64954 0.0
Co749 Co 0.80632 0.07906 0.49418 0.0
C750 C 0.83 0.09288 0.56022 0.0
O751 O 0.82583 0.08787 0.6176 0.0
O752 O 0.82348 0.09033 0.50716 0.0
C753 C 0.81804 0.08027 0.78421 0.0
O754 O 0.82454 0.09091 0.75783 0.0
C755 C 0.80924 0.08043 0.34459 0.0
C756 C 0.79077 0.0738 0.31021 0.0
C757 C 0.80215 0.07757 0.28663 0.0
N758 N 0.80228 0.07815 0.39996 0.0
N759 N 0.79129 0.07433 0.37908 0.0
C760 C 0.82244 0.08571 0.34809 0.0
H761 H 0.82631 0.09404 0.3783 0.0
H762 H 0.82456 0.07948 0.37503 0.0
H763 H 0.82663 0.08784 0.29668 0.0
C764 C 0.79838 0.05051 0.60531 0.0
N765 N 0.80294 0.06218 0.59251 0.0
N766 N 0.8023 0.06372 0.52638 0.0
C767 C 0.7978 0.05316 0.49445 0.0
C768 C 0.79495 0.04435 0.54338 0.0
C769 C 0.79656 0.04539 0.67595 0.0
H770 H 0.79453 0.05071 0.71217 0.0
H771 H 0.80486 0.04572 0.69316 0.0
H772 H 0.78921 0.03604 0.67708 0.0
O773 O 0.79987 0.08324 0.65236 0.0
O774 O 0.79678 0.08505 0.54224 0.0
H775 H 0.78924 0.05199 0.39876 0.0
H776 H 0.79639 0.04314 0.40262 0.0
C777 C 0.79709 0.05167 0.41814 0.0
H778 H 0.80517 0.05897 0.39427 0.0
H779 H 0.78409 0.07185 0.412 0.0
O780 O 0.81108 0.07179 0.74527 0.0
C781 C 0.79523 0.08636 0.60539 0.0
Co782 Co 0.92495 0.73377 0.65188 0.0
Co783 Co 0.92113 0.72755 0.4951 0.0
C784 C 0.90722 0.73673 0.56842 0.0
O785 O 0.91209 0.73699 0.62549 0.0
O786 O 0.91007 0.73354 0.51335 0.0
C787 C 0.92539 0.74385 0.78435 0.0
O788 O 0.91835 0.74712 0.75552 0.0
C789 C 0.92245 0.73234 0.34668 0.0
C790 C 0.9204 0.71565 0.30426 0.0
C791 C 0.92201 0.72664 0.28564 0.0
N792 N 0.92128 0.72506 0.39892 0.0
N793 N 0.92006 0.71511 0.37314 0.0
C794 C 0.92325 0.74417 0.35522 0.0
H795 H 0.92064 0.7452 0.40765 0.0
H796 H 0.93252 0.75136 0.34662 0.0
H797 H 0.91753 0.74521 0.31686 0.0
C798 C 0.94968 0.74904 0.60485 0.0
N799 N 0.93813 0.74136 0.59245 0.0
N800 N 0.93671 0.73847 0.52703 0.0
C801 C 0.94739 0.74416 0.49585 0.0
C802 C 0.95592 0.75111 0.54396 0.0
C803 C 0.95456 0.75419 0.67385 0.0
H804 H 0.94903 0.75756 0.69725 0.0
H805 H 0.9639 0.76153 0.67051 0.0
H806 H 0.95408 0.7471 0.70767 0.0
O807 O 0.91867 0.71647 0.65051 0.0
O808 O 0.91482 0.71179 0.54031 0.0
H809 H 0.95911 0.74469 0.41533 0.0
H810 H 0.9475 0.74747 0.38853 0.0
C811 C 0.94966 0.74208 0.42329 0.0
H812 H 0.94402 0.73258 0.40981 0.0
H813 H 0.91896 0.70793 0.40262 0.0
O814 O 0.92956 0.73861 0.7484 0.0
C815 C 0.91471 0.70881 0.60262 0.0
Co816 Co 0.47663 0.06752 0.98747 0.0
Co817 Co 0.47362 0.06239 0.83024 0.0
C818 C 0.49714 0.07162 0.89949 0.0
O819 O 0.49286 0.07198 0.95758 0.0
O820 O 0.49073 0.0681 0.84573 0.0
C821 C 0.48396 0.07984 0.12062 0.0
O822 O 0.49222 0.08935 0.08944 0.0
C823 C 0.47757 0.06689 0.68241 0.0
C824 C 0.45956 0.05492 0.64177 0.0
C825 C 0.47091 0.06352 0.62263 0.0
N826 N 0.47041 0.06066 0.73464 0.0
N827 N 0.45971 0.05339 0.70987 0.0
C828 C 0.49009 0.0768 0.69131 0.0
H829 H 0.49115 0.08114 0.74184 0.0
H830 H 0.49264 0.08351 0.64999 0.0
H831 H 0.49614 0.0731 0.68957 0.0
C832 C 0.46518 0.08174 0.95037 0.0
N833 N 0.46992 0.0749 0.93425 0.0
N834 N 0.46926 0.07321 0.86752 0.0
C835 C 0.46447 0.07927 0.83875 0.0
C836 C 0.46153 0.08473 0.89022 0.0
C837 C 0.46334 0.08451 0.02227 0.0
H838 H 0.4611 0.07681 0.05608 0.0
H839 H 0.47169 0.09221 0.04116 0.0
H840 H 0.45612 0.0867 0.02507 0.0
O841 O 0.4669 0.05022 0.98209 0.0
O842 O 0.46383 0.04619 0.87106 0.0
H843 H 0.45601 0.07197 0.74266 0.0
H844 H 0.46171 0.08776 0.75039 0.0
C845 C 0.46338 0.08041 0.76305 0.0
H846 H 0.47174 0.08229 0.73757 0.0
H847 H 0.45241 0.04771 0.7399 0.0
O848 O 0.47691 0.07075 0.08592 0.0
C849 C 0.46231 0.04283 0.93339 0.0
Co850 Co 0.93192 0.4091 0.96424 0.0
Co851 Co 0.93834 0.41069 0.80864 0.0
C852 C 0.92921 0.42575 0.87386 0.0
O853 O 0.92741 0.42064 0.93184 0.0
O854 O 0.93371 0.42304 0.82379 0.0
C855 C 0.92017 0.40547 0.09928 0.0
O856 O 0.9112 0.40565 0.06954 0.0
C857 C 0.93302 0.40938 0.66191 0.0
C858 C 0.94626 0.40535 0.61765 0.0
C859 C 0.93677 0.40689 0.60079 0.0
N860 N 0.93993 0.40922 0.71267 0.0
N861 N 0.94792 0.40695 0.68579 0.0
C862 C 0.92246 0.41086 0.67315 0.0
H863 H 0.91874 0.40773 0.72518 0.0
H864 H 0.91553 0.40592 0.63387 0.0
H865 H 0.92527 0.42043 0.66923 0.0
C866 C 0.9162 0.3837 0.92704 0.0
N867 N 0.92428 0.39502 0.91148 0.0
N868 N 0.92689 0.39573 0.84578 0.0
C869 C 0.92055 0.38486 0.81748 0.0
C870 C 0.91351 0.37692 0.86779 0.0
C871 C 0.91094 0.37964 0.99679 0.0
H872 H 0.9062 0.38439 0.01176 0.0
H873 H 0.90462 0.36994 0.9983 0.0
H874 H 0.91816 0.38196 0.03455 0.0
O875 O 0.94943 0.41649 0.95944 0.0
O876 O 0.95411 0.41616 0.85045 0.0
H877 H 0.91733 0.37223 0.73589 0.0
H878 H 0.91795 0.38585 0.71 0.0
C879 C 0.92183 0.38195 0.74483 0.0
H880 H 0.93136 0.3858 0.73236 0.0
H881 H 0.95429 0.40616 0.71426 0.0
O882 O 0.92868 0.40626 0.06336 0.0
C883 C 0.95709 0.41849 0.91307 0.0
Co884 Co 0.5913 0.52274 0.9745 0.0
Co885 Co 0.58705 0.52609 0.81975 0.0
C886 C 0.57356 0.50252 0.88699 0.0
O887 O 0.57918 0.50654 0.94303 0.0
O888 O 0.57558 0.50917 0.83503 0.0
C889 C 0.58767 0.51398 0.10941 0.0
O890 O 0.57725 0.5065 0.08318 0.0
C891 C 0.58557 0.52274 0.67028 0.0
C892 C 0.59068 0.54078 0.63382 0.0
C893 C 0.58777 0.52954 0.61145 0.0
N894 N 0.58738 0.52975 0.72493 0.0
N895 N 0.59029 0.54048 0.70277 0.0
C896 C 0.58142 0.50975 0.67528 0.0
H897 H 0.58802 0.50845 0.70432 0.0
H898 H 0.57988 0.50548 0.62424 0.0
H899 H 0.57296 0.50528 0.7043 0.0
C900 C 0.61623 0.53401 0.92606 0.0
N901 N 0.60451 0.52941 0.91511 0.0
N902 N 0.60264 0.53013 0.84946 0.0
C903 C 0.61309 0.53478 0.81597 0.0
C904 C 0.62211 0.53757 0.86341 0.0
C905 C 0.62165 0.53588 0.99593 0.0
H906 H 0.61647 0.53792 0.0332 0.0
H907 H 0.62141 0.5276 0.01259 0.0
H908 H 0.63099 0.54326 0.99605 0.0
O909 O 0.5844 0.53322 0.97868 0.0
O910 O 0.5812 0.53554 0.8694 0.0
H911 H 0.61329 0.54339 0.72211 0.0
H912 H 0.62298 0.53713 0.72203 0.0
C913 C 0.61429 0.53582 0.73957 0.0
H914 H 0.60724 0.52759 0.71562 0.0
H915 H 0.59228 0.54767 0.73483 0.0
O916 O 0.59568 0.52163 0.07038 0.0
C917 C 0.58074 0.53758 0.93285 0.0
Co918 Co 0.735 0.81043 0.36873 0.0
Co919 Co 0.72764 0.80695 0.52346 0.0
C920 C 0.7373 0.83052 0.457 0.0
O921 O 0.73888 0.82654 0.4007 0.0
O922 O 0.73282 0.82385 0.50906 0.0
C923 C 0.73879 0.81867 0.23413 0.0
O924 O 0.73453 0.82506 0.26074 0.0
C925 C 0.7291 0.80999 0.67323 0.0
C926 C 0.71722 0.79154 0.70792 0.0
C927 C 0.72486 0.80293 0.73138 0.0
N928 N 0.72439 0.803 0.61793 0.0
N929 N 0.7172 0.79203 0.63903 0.0
C930 C 0.73712 0.82317 0.66953 0.0
H931 H 0.73285 0.82708 0.63797 0.0
H932 H 0.74555 0.82519 0.64398 0.0
H933 H 0.739 0.82739 0.72084 0.0
C934 C 0.74914 0.79961 0.4153 0.0
N935 N 0.74183 0.80395 0.42701 0.0
N936 N 0.7394 0.80325 0.49286 0.0
C937 C 0.74555 0.79893 0.52577 0.0
C938 C 0.75182 0.79629 0.4777 0.0
C939 C 0.75256 0.79775 0.34502 0.0
H940 H 0.74526 0.79567 0.30832 0.0
H941 H 0.76054 0.80603 0.32794 0.0
H942 H 0.75455 0.79039 0.34446 0.0
O943 O 0.71767 0.79969 0.36484 0.0
O944 O 0.71231 0.79736 0.47435 0.0
H945 H 0.73782 0.79022 0.6206 0.0
H946 H 0.75385 0.79746 0.61881 0.0
C947 C 0.74604 0.79812 0.60216 0.0
H948 H 0.74668 0.80615 0.6259 0.0
H949 H 0.71248 0.78481 0.60625 0.0
O950 O 0.74046 0.8118 0.27299 0.0
C951 C 0.70974 0.79525 0.41104 0.0
Co952 Co 0.18838 0.92397 0.35085 0.0
Co953 Co 0.19344 0.92222 0.50595 0.0
C954 C 0.16915 0.90726 0.44137 0.0
O955 O 0.17234 0.91246 0.38355 0.0
O956 O 0.17646 0.9099 0.49085 0.0
C957 C 0.18042 0.92782 0.21533 0.0
O958 O 0.17128 0.92777 0.24449 0.0
C959 C 0.18951 0.92345 0.6529 0.0
C960 C 0.20672 0.92725 0.6969 0.0
C961 C 0.19574 0.92583 0.71399 0.0
N962 N 0.19653 0.92356 0.60196 0.0
N963 N 0.20674 0.92568 0.6287 0.0
C964 C 0.17753 0.92214 0.64188 0.0
H965 H 0.17696 0.92527 0.58981 0.0
H966 H 0.17567 0.92719 0.68111 0.0
H967 H 0.17068 0.91261 0.64612 0.0
C968 C 0.19823 0.94937 0.38924 0.0
N969 N 0.19496 0.93802 0.40415 0.0
N970 N 0.19694 0.93722 0.46962 0.0
C971 C 0.20156 0.94807 0.49839 0.0
C972 C 0.20243 0.95609 0.44868 0.0
C973 C 0.19698 0.95354 0.3199 0.0
H974 H 0.20185 0.95126 0.28164 0.0
H975 H 0.18747 0.94881 0.30518 0.0
H976 H 0.20036 0.96324 0.31898 0.0
O977 O 0.19842 0.91648 0.35462 0.0
O978 O 0.2037 0.9168 0.46304 0.0
H979 H 0.21148 0.94692 0.5826 0.0
H980 H 0.21122 0.9606 0.57995 0.0
C981 C 0.20588 0.9509 0.57085 0.0
H982 H 0.19816 0.94707 0.60611 0.0
H983 H 0.21386 0.92641 0.60009 0.0
O984 O 0.18801 0.9269 0.25174 0.0
C985 C 0.20417 0.91445 0.40022 0.0
Co986 Co 0.07685 0.26703 0.37816 0.0
Co987 Co 0.07856 0.27255 0.53443 0.0
C988 C 0.09301 0.26312 0.46767 0.0
O989 O 0.08788 0.26174 0.41004 0.0
O990 O 0.09062 0.26764 0.51894 0.0
C991 C 0.0725 0.25508 0.24409 0.0
O992 O 0.07174 0.24572 0.27468 0.0
C993 C 0.07817 0.26812 0.68223 0.0
C994 C 0.0711 0.27924 0.72276 0.0
C995 C 0.07452 0.27114 0.74193 0.0
N996 N 0.07683 0.27409 0.62998 0.0
N997 N 0.07277 0.28085 0.65468 0.0
C998 C 0.08154 0.25874 0.6734 0.0
H999 H 0.07822 0.25417 0.62348 0.0
H1000 H 0.07792 0.25213 0.71554 0.0
H1001 H 0.09136 0.26302 0.6735 0.0
C1002 C 0.05113 0.25286 0.41248 0.0
N1003 N 0.06264 0.25982 0.42961 0.0
N1004 N 0.06351 0.26141 0.4964 0.0
C1005 C 0.0526 0.25512 0.52431 0.0
C1006 C 0.04434 0.24963 0.47209 0.0
C1007 C 0.04676 0.25019 0.34009 0.0
H1008 H 0.05234 0.25791 0.30674 0.0
H1009 H 0.04742 0.24248 0.32141 0.0
H1010 H 0.03739 0.24808 0.33622 0.0
O1011 O 0.08477 0.28446 0.38413 0.0
O1012 O 0.08446 0.2886 0.49409 0.0
H1013 H 0.05069 0.2619 0.62049 0.0
H1014 H 0.0414 0.246 0.61169 0.0
C1015 C 0.05023 0.25374 0.59985 0.0
H1016 H 0.05702 0.25235 0.62572 0.0
H1017 H 0.07074 0.28624 0.6246 0.0
O1018 O 0.0741 0.26396 0.27938 0.0
C1019 C 0.08693 0.2919 0.43196 0.0
Co1020 Co 0.18771 0.26305 0.33473 0.0
Co1021 Co 0.19244 0.2705 0.48827 0.0
C1022 C 0.16842 0.26112 0.42736 0.0
O1023 O 0.17214 0.26029 0.36841 0.0
O1024 O 0.17525 0.26467 0.47924 0.0
C1025 C 0.18205 0.26313 0.20136 0.0
O1026 O 0.17952 0.27073 0.23035 0.0
C1027 C 0.19016 0.26683 0.63578 0.0
C1028 C 0.20602 0.28293 0.67437 0.0
C1029 C 0.19612 0.27247 0.69567 0.0
N1030 N 0.19628 0.27365 0.58232 0.0
N1031 N 0.20572 0.28328 0.60556 0.0
C1032 C 0.17932 0.25485 0.62783 0.0
H1033 H 0.17907 0.25122 0.57596 0.0
H1034 H 0.17914 0.24861 0.66727 0.0
H1035 H 0.17129 0.25571 0.63369 0.0
C1036 C 0.1974 0.24769 0.3776 0.0
N1037 N 0.19394 0.25567 0.39098 0.0
N1038 N 0.19624 0.259 0.45554 0.0
C1039 C 0.20126 0.25323 0.48532 0.0
C1040 C 0.20206 0.24581 0.43712 0.0
C1041 C 0.19632 0.24212 0.30893 0.0
H1042 H 0.18725 0.23883 0.28839 0.0
H1043 H 0.19819 0.23469 0.31184 0.0
H1044 H 0.20268 0.24896 0.27295 0.0
O1045 O 0.19905 0.28027 0.32988 0.0
O1046 O 0.20151 0.28588 0.43886 0.0
H1047 H 0.21252 0.25222 0.56377 0.0
H1048 H 0.19876 0.25075 0.5936 0.0
C1049 C 0.20615 0.25546 0.55671 0.0
H1050 H 0.21073 0.26509 0.56814 0.0
H1051 H 0.21198 0.29005 0.57444 0.0
O1052 O 0.18565 0.25759 0.23898 0.0
C1053 C 0.20355 0.28832 0.37537 0.0
Co1054 Co 0.73533 0.92521 0.34226 0.0
Co1055 Co 0.7284 0.92105 0.49739 0.0
C1056 C 0.73839 0.90769 0.43025 0.0
O1057 O 0.73885 0.91265 0.37315 0.0
O1058 O 0.73473 0.91026 0.48448 0.0
C1059 C 0.73921 0.92094 0.2077 0.0
O1060 O 0.73489 0.91026 0.23397 0.0
C1061 C 0.72962 0.91946 0.64722 0.0
C1062 C 0.71741 0.92568 0.68088 0.0
C1063 C 0.7252 0.92218 0.70495 0.0
N1064 N 0.72488 0.92159 0.59154 0.0
N1065 N 0.71748 0.92515 0.61202 0.0
C1066 C 0.73785 0.91454 0.64427 0.0
H1067 H 0.73372 0.9063 0.61314 0.0
H1068 H 0.74624 0.92102 0.61861 0.0
H1069 H 0.73979 0.91234 0.69582 0.0
C1070 C 0.74915 0.95024 0.39042 0.0
N1071 N 0.74209 0.93851 0.4014 0.0
N1072 N 0.73966 0.93664 0.4672 0.0
C1073 C 0.74557 0.94707 0.50074 0.0
C1074 C 0.75163 0.95611 0.45322 0.0
C1075 C 0.75256 0.95569 0.32057 0.0
H1076 H 0.74539 0.95039 0.28334 0.0
H1077 H 0.76072 0.95569 0.30373 0.0
H1078 H 0.7543 0.96496 0.32071 0.0
O1079 O 0.71811 0.91859 0.33795 0.0
O1080 O 0.71294 0.91461 0.44732 0.0
H1081 H 0.73778 0.94762 0.59632 0.0
H1082 H 0.75377 0.95677 0.59414 0.0
C1083 C 0.7461 0.94822 0.57723 0.0
H1084 H 0.74701 0.94094 0.60013 0.0
H1085 H 0.7127 0.92751 0.57883 0.0
O1086 O 0.74089 0.92946 0.24679 0.0
C1087 C 0.71022 0.91446 0.3844 0.0
Co1088 Co 0.07462 0.80999 0.34213 0.0
Co1089 Co 0.07841 0.80706 0.49838 0.0
C1090 C 0.09252 0.83034 0.42674 0.0
O1091 O 0.08758 0.82597 0.36942 0.0
O1092 O 0.08964 0.8241 0.48106 0.0
C1093 C 0.07466 0.81968 0.20897 0.0
O1094 O 0.08226 0.8299 0.23691 0.0
C1095 C 0.07706 0.81037 0.64686 0.0
C1096 C 0.07915 0.79574 0.68896 0.0
C1097 C 0.0775 0.80509 0.70783 0.0
N1098 N 0.07826 0.80431 0.59449 0.0
N1099 N 0.07951 0.79559 0.62006 0.0
C1100 C 0.07621 0.82138 0.63848 0.0
H1101 H 0.07895 0.82512 0.58634 0.0
H1102 H 0.0669 0.81922 0.64622 0.0
H1103 H 0.08179 0.8281 0.6774 0.0
C1104 C 0.0499 0.80045 0.38962 0.0
N1105 N 0.06146 0.80433 0.40181 0.0
N1106 N 0.06287 0.80264 0.46691 0.0
C1107 C 0.05218 0.79748 0.49804 0.0
C1108 C 0.04365 0.79604 0.45029 0.0
C1109 C 0.04501 0.80083 0.32088 0.0
H1110 H 0.04537 0.7942 0.28674 0.0
H1111 H 0.05058 0.80973 0.29762 0.0
H1112 H 0.03569 0.79891 0.32463 0.0
O1113 O 0.08077 0.79886 0.34202 0.0
O1114 O 0.08451 0.79753 0.45182 0.0
H1115 H 0.0556 0.78892 0.58199 0.0
H1116 H 0.04047 0.78585 0.57718 0.0
C1117 C 0.0499 0.79278 0.56985 0.0
H1118 H 0.05199 0.80013 0.60603 0.0
H1119 H 0.08064 0.78954 0.59044 0.0
O1120 O 0.07 0.81036 0.24577 0.0
C1121 C 0.08461 0.79488 0.38903 0.0
Co1122 Co 0.9339 0.52364 0.98137 0.0
Co1123 Co 0.93737 0.52563 0.82313 0.0
C1124 C 0.92989 0.50283 0.89324 0.0
O1125 O 0.93041 0.50756 0.95136 0.0
O1126 O 0.93214 0.50874 0.83787 0.0
C1127 C 0.92158 0.51564 0.11297 0.0
O1128 O 0.91223 0.50754 0.0798 0.0
C1129 C 0.93239 0.52158 0.67577 0.0
C1130 C 0.94344 0.53978 0.63516 0.0
C1131 C 0.93528 0.52826 0.61616 0.0
N1132 N 0.93849 0.52888 0.72778 0.0
N1133 N 0.94519 0.53971 0.70305 0.0
C1134 C 0.92306 0.50882 0.68482 0.0
H1135 H 0.91864 0.50751 0.73527 0.0
H1136 H 0.91631 0.50585 0.64346 0.0
H1137 H 0.92734 0.50328 0.68345 0.0
C1138 C 0.91856 0.53395 0.94881 0.0
N1139 N 0.92541 0.52932 0.93059 0.0
N1140 N 0.92643 0.52961 0.86345 0.0
C1141 C 0.9198 0.53391 0.83653 0.0
C1142 C 0.91475 0.53703 0.88963 0.0
C1143 C 0.9168 0.5365 0.02137 0.0
H1144 H 0.92481 0.53874 0.05224 0.0
H1145 H 0.90916 0.52846 0.04369 0.0
H1146 H 0.91499 0.54397 0.02423 0.0
O1147 O 0.95088 0.53485 0.97302 0.0
O1148 O 0.95385 0.53562 0.86068 0.0
H1149 H 0.92576 0.54204 0.73818 0.0
H1150 H 0.90994 0.53541 0.75117 0.0
C1151 C 0.9178 0.53443 0.7613 0.0
H1152 H 0.91628 0.52614 0.73648 0.0
H1153 H 0.95067 0.54711 0.73297 0.0
O1154 O 0.93077 0.52296 0.08 0.0
C1155 C 0.95775 0.53867 0.92155 0.0
Co1156 Co 0.47635 0.40784 0.99222 0.0
Co1157 Co 0.47453 0.41221 0.83562 0.0
C1158 C 0.49744 0.4254 0.90718 0.0
O1159 O 0.49254 0.42049 0.96367 0.0
O1160 O 0.4916 0.42281 0.85147 0.0
C1161 C 0.48625 0.40917 0.1256 0.0
O1162 O 0.49596 0.41772 0.09755 0.0
C1163 C 0.47827 0.41338 0.68663 0.0
C1164 C 0.46071 0.40953 0.64802 0.0
C1165 C 0.4718 0.41172 0.62706 0.0
N1166 N 0.47123 0.41199 0.74041 0.0
N1167 N 0.46079 0.40981 0.71698 0.0
C1168 C 0.49106 0.41673 0.69311 0.0
H1169 H 0.49185 0.41037 0.72754 0.0
H1170 H 0.49516 0.41707 0.64276 0.0
H1171 H 0.49604 0.42563 0.71719 0.0
C1172 C 0.46512 0.38288 0.94352 0.0
N1173 N 0.47008 0.39464 0.93229 0.0
N1174 N 0.46977 0.39653 0.86626 0.0
C1175 C 0.46503 0.38606 0.83295 0.0
C1176 C 0.46174 0.37701 0.88078 0.0
C1177 C 0.46269 0.37744 0.01352 0.0
H1178 H 0.4605 0.38269 0.04935 0.0
H1179 H 0.47079 0.37757 0.03271 0.0
H1180 H 0.45523 0.36814 0.01277 0.0
O1181 O 0.46573 0.41446 0.99319 0.0
O1182 O 0.4654 0.41878 0.88331 0.0
H1183 H 0.4571 0.38631 0.73727 0.0
H1184 H 0.46263 0.376 0.73957 0.0
C1185 C 0.4643 0.38485 0.75649 0.0
H1186 H 0.47279 0.39162 0.73358 0.0
H1187 H 0.45364 0.4083 0.74819 0.0
O1188 O 0.47706 0.40333 0.08865 0.0
C1189 C 0.46238 0.41878 0.9455 0.0
Co1190 Co 0.58914 0.06577 0.96526 0.0
Co1191 Co 0.58743 0.06107 0.80653 0.0
C1192 C 0.5727 0.06967 0.8733 0.0
O1193 O 0.57739 0.07018 0.93147 0.0
O1194 O 0.57558 0.06609 0.81988 0.0
C1195 C 0.59587 0.07913 0.09614 0.0
O1196 O 0.60095 0.08919 0.06215 0.0
C1197 C 0.58716 0.06362 0.6552 0.0
C1198 C 0.5978 0.05548 0.62354 0.0
C1199 C 0.59232 0.0615 0.59831 0.0
N1200 N 0.58987 0.05941 0.71128 0.0
N1201 N 0.59604 0.05437 0.69167 0.0
C1202 C 0.57927 0.06895 0.65652 0.0
H1203 H 0.57201 0.06416 0.69401 0.0
H1204 H 0.58452 0.07838 0.67263 0.0
H1205 H 0.57522 0.06838 0.60562 0.0
C1206 C 0.6149 0.08022 0.93047 0.0
N1207 N 0.60334 0.07345 0.91375 0.0
N1208 N 0.60234 0.07237 0.84662 0.0
C1209 C 0.61316 0.07909 0.81837 0.0
C1210 C 0.62154 0.0841 0.87042 0.0
C1211 C 0.6196 0.08172 0.00203 0.0
H1212 H 0.61321 0.07435 0.03514 0.0
H1213 H 0.62105 0.09026 0.0232 0.0
H1214 H 0.62824 0.08193 0.00242 0.0
O1215 O 0.58261 0.04855 0.95961 0.0
O1216 O 0.58104 0.04492 0.84773 0.0
H1217 H 0.61649 0.07446 0.71888 0.0
H1218 H 0.62345 0.0902 0.73376 0.0
C1219 C 0.61532 0.08151 0.74315 0.0
H1220 H 0.60768 0.08166 0.71905 0.0
H1221 H 0.5994 0.05052 0.72528 0.0
O1222 O 0.59118 0.06928 0.0645 0.0
C1223 C 0.57977 0.04137 0.90964 0.0
C1224 C 0.11474 0.42493 0.24447 0.0
C1225 C 0.12471 0.42711 0.20608 0.0
C1226 C 0.1087 0.43113 0.23073 0.0
C1227 C 0.11293 0.43983 0.17827 0.0
C1228 C 0.12326 0.44231 0.14093 0.0
C1229 C 0.12895 0.43579 0.15479 0.0
C1230 C 0.0976 0.42809 0.27076 0.0
C1231 C 0.12817 0.4517 0.0857 0.0
C1232 C 0.09087 0.44708 0.09584 0.0
C1233 C 0.09294 0.45714 0.13285 0.0
C1234 C 0.09739 0.44138 0.10982 0.0
C1235 C 0.10631 0.44606 0.16106 0.0
C1236 C 0.10865 0.45646 0.19707 0.0
C1237 C 0.10181 0.46181 0.18304 0.0
C1238 C 0.09449 0.43018 0.07125 0.0
C1239 C 0.11825 0.46185 0.25094 0.0
H1240 H 0.11144 0.4181 0.28362 0.0
H1241 H 0.13669 0.4374 0.12525 0.0
H1242 H 0.09852 0.43615 0.29611 0.0
H1243 H 0.08991 0.42477 0.23532 0.0
H1244 H 0.0956 0.42122 0.31052 0.0
H1245 H 0.1367 0.45306 0.06457 0.0
H1246 H 0.12169 0.44912 0.04314 0.0
H1247 H 0.12961 0.46028 0.10639 0.0
H1248 H 0.0839 0.44346 0.05752 0.0
H1249 H 0.10334 0.46963 0.21146 0.0
H1250 H 0.09156 0.42269 0.1078 0.0
H1251 H 0.10252 0.43125 0.04486 0.0
H1252 H 0.08738 0.42779 0.03252 0.0
H1253 H 0.11605 0.45556 0.29424 0.0
H1254 H 0.11941 0.47035 0.27126 0.0
H1255 H 0.12684 0.46349 0.22924 0.0
C1256 C 0.53649 0.6402 0.16687 0.0
C1257 C 0.54153 0.6357 0.1209 0.0
C1258 C 0.54208 0.65241 0.18091 0.0
C1259 C 0.55295 0.66022 0.14806 0.0
C1260 C 0.55785 0.65572 0.0998 0.0
C1261 C 0.55207 0.64347 0.08687 0.0
C1262 C 0.53657 0.65688 0.23248 0.0
C1263 C 0.56941 0.66379 0.06366 0.0
C1264 C 0.56452 0.6934 0.1434 0.0
C1265 C 0.5732 0.69747 0.19479 0.0
C1266 C 0.55763 0.68125 0.12865 0.0
C1267 C 0.5595 0.67303 0.16635 0.0
C1268 C 0.56801 0.67709 0.21983 0.0
C1269 C 0.57479 0.6893 0.23336 0.0
C1270 C 0.54861 0.67725 0.0715 0.0
C1271 C 0.57024 0.66858 0.26122 0.0
H1272 H 0.52832 0.63411 0.19306 0.0
H1273 H 0.556 0.63991 0.05192 0.0
H1274 H 0.54249 0.66059 0.27765 0.0
H1275 H 0.53555 0.66415 0.20993 0.0
H1276 H 0.52774 0.64975 0.25028 0.0
H1277 H 0.57168 0.65897 0.02487 0.0
H1278 H 0.56894 0.67114 0.03783 0.0
H1279 H 0.57672 0.66784 0.10172 0.0
H1280 H 0.56332 0.69979 0.11383 0.0
H1281 H 0.5816 0.69251 0.27263 0.0
H1282 H 0.53977 0.67033 0.09038 0.0
H1283 H 0.55121 0.67321 0.02976 0.0
H1284 H 0.54778 0.6847 0.04976 0.0
H1285 H 0.56181 0.66153 0.28374 0.0
H1286 H 0.57672 0.67311 0.30329 0.0
H1287 H 0.5737 0.66416 0.22726 0.0
C1288 C 0.35703 0.89726 0.09141 0.0
C1289 C 0.36406 0.90798 0.12614 0.0
C1290 C 0.34466 0.89085 0.10075 0.0
C1291 C 0.33931 0.89506 0.14783 0.0
C1292 C 0.3464 0.90583 0.18336 0.0
C1293 C 0.35863 0.91231 0.17062 0.0
C1294 C 0.33731 0.87963 0.05995 0.0
C1295 C 0.34111 0.91049 0.23525 0.0
C1296 C 0.30682 0.88612 0.1366 0.0
C1297 C 0.30162 0.87687 0.18461 0.0
C1298 C 0.31898 0.89172 0.12191 0.0
C1299 C 0.32626 0.88844 0.15882 0.0
C1300 C 0.32113 0.87929 0.20853 0.0
C1301 C 0.30882 0.87345 0.21987 0.0
C1302 C 0.32403 0.90121 0.06719 0.0
C1303 C 0.32868 0.87585 0.25069 0.0
H1304 H 0.3612 0.89385 0.05729 0.0
H1305 H 0.36398 0.92076 0.19611 0.0
H1306 H 0.33272 0.87193 0.09501 0.0
H1307 H 0.33035 0.88033 0.03081 0.0
H1308 H 0.34277 0.87784 0.02333 0.0
H1309 H 0.348 0.91851 0.26235 0.0
H1310 H 0.33492 0.91279 0.20946 0.0
H1311 H 0.33589 0.90354 0.27387 0.0
H1312 H 0.30137 0.88903 0.11049 0.0
H1313 H 0.30483 0.86622 0.25642 0.0
H1314 H 0.32942 0.89938 0.03037 0.0
H1315 H 0.32999 0.90997 0.09088 0.0
H1316 H 0.31698 0.90181 0.03835 0.0
H1317 H 0.33347 0.87281 0.21669 0.0
H1318 H 0.32335 0.86869 0.28806 0.0
H1319 H 0.3355 0.88371 0.27918 0.0
C1320 C 0.44521 0.0869 0.83821 0.0
C1321 C 0.45505 0.09133 0.88205 0.0
C1322 C 0.4394 0.09332 0.82558 0.0
C1323 C 0.44322 0.10422 0.85993 0.0
C1324 C 0.4529 0.10856 0.90621 0.0
C1325 C 0.45881 0.10212 0.91607 0.0
C1326 C 0.42924 0.08848 0.775 0.0
C1327 C 0.45698 0.11998 0.94531 0.0
C1328 C 0.43429 0.12567 0.78571 0.0
C1329 C 0.424 0.12271 0.82335 0.0
C1330 C 0.44067 0.11973 0.79704 0.0
C1331 C 0.43682 0.11088 0.84851 0.0
C1332 C 0.42653 0.10798 0.88721 0.0
C1333 C 0.42012 0.11375 0.87312 0.0
C1334 C 0.45142 0.12281 0.75342 0.0
C1335 C 0.42224 0.09874 0.9433 0.0
H1336 H 0.4421 0.07841 0.81311 0.0
H1337 H 0.46645 0.10557 0.94978 0.0
H1338 H 0.42092 0.08657 0.80144 0.0
H1339 H 0.43098 0.09519 0.73479 0.0
H1340 H 0.42782 0.0802 0.7498 0.0
H1341 H 0.4644 0.12193 0.981 0.0
H1342 H 0.45994 0.1275 0.90902 0.0
H1343 H 0.44947 0.11946 0.97526 0.0
H1344 H 0.43738 0.13265 0.74763 0.0
H1345 H 0.41198 0.11118 0.90103 0.0
H1346 H 0.45015 0.11477 0.72604 0.0
H1347 H 0.45939 0.12594 0.78634 0.0
H1348 H 0.45316 0.12981 0.71501 0.0
H1349 H 0.41943 0.08988 0.92091 0.0
H1350 H 0.41464 0.09822 0.97224 0.0
H1351 H 0.42956 0.10077 0.97982 0.0
C1352 C 0.88429 0.31027 0.74827 0.0
C1353 C 0.874 0.30234 0.78385 0.0
C1354 C 0.89001 0.32249 0.76207 0.0
C1355 C 0.88528 0.3268 0.81259 0.0
C1356 C 0.87464 0.31882 0.84701 0.0
C1357 C 0.86914 0.30665 0.83226 0.0
C1358 C 0.90134 0.33073 0.72436 0.0
C1359 C 0.8693 0.3231 0.9008 0.0
C1360 C 0.9073 0.35594 0.89666 0.0
C1361 C 0.90543 0.36404 0.85931 0.0
C1362 C 0.90055 0.34372 0.88323 0.0
C1363 C 0.89176 0.33959 0.83129 0.0
C1364 C 0.88957 0.34775 0.79519 0.0
C1365 C 0.89647 0.35991 0.8096 0.0
C1366 C 0.90315 0.33529 0.92277 0.0
C1367 C 0.88021 0.34367 0.73987 0.0
H1368 H 0.88808 0.30686 0.71142 0.0
H1369 H 0.86116 0.30044 0.85966 0.0
H1370 H 0.90058 0.33801 0.69971 0.0
H1371 H 0.90883 0.33487 0.76124 0.0
H1372 H 0.90352 0.32604 0.68435 0.0
H1373 H 0.86061 0.31585 0.91969 0.0
H1374 H 0.87545 0.32683 0.94501 0.0
H1375 H 0.86803 0.33032 0.87981 0.0
H1376 H 0.91433 0.35922 0.9346 0.0
H1377 H 0.89507 0.36625 0.78091 0.0
H1378 H 0.90654 0.331 0.8873 0.0
H1379 H 0.89488 0.32813 0.94624 0.0
H1380 H 0.90982 0.33986 0.96392 0.0
H1381 H 0.88271 0.33981 0.69661 0.0
H1382 H 0.87908 0.35104 0.7199 0.0
H1383 H 0.87155 0.33659 0.75984 0.0
C1384 C 0.64027 0.55333 0.80471 0.0
C1385 C 0.63508 0.54374 0.85041 0.0
C1386 C 0.65246 0.55914 0.79052 0.0
C1387 C 0.65975 0.55566 0.82568 0.0
C1388 C 0.65462 0.54614 0.87305 0.0
C1389 C 0.64229 0.54013 0.88378 0.0
C1390 C 0.65753 0.56902 0.73814 0.0
C1391 C 0.66217 0.54247 0.91339 0.0
C1392 C 0.69054 0.56478 0.75766 0.0
C1393 C 0.69759 0.57526 0.79442 0.0
C1394 C 0.67816 0.55839 0.76633 0.0
C1395 C 0.67281 0.56235 0.81496 0.0
C1396 C 0.67992 0.57285 0.85278 0.0
C1397 C 0.69217 0.57934 0.84068 0.0
C1398 C 0.6708 0.54748 0.72315 0.0
C1399 C 0.67461 0.5772 0.90645 0.0
H1400 H 0.63479 0.55637 0.78009 0.0
H1401 H 0.63831 0.53263 0.91856 0.0
H1402 H 0.66347 0.5776 0.76371 0.0
H1403 H 0.66295 0.56746 0.70006 0.0
H1404 H 0.65049 0.56982 0.71048 0.0
H1405 H 0.65683 0.53508 0.94949 0.0
H1406 H 0.66697 0.53964 0.87805 0.0
H1407 H 0.66897 0.55015 0.9431 0.0
H1408 H 0.6947 0.56154 0.72229 0.0
H1409 H 0.69753 0.58761 0.86784 0.0
H1410 H 0.66386 0.54839 0.69525 0.0
H1411 H 0.66619 0.53953 0.75645 0.0
H1412 H 0.67627 0.54594 0.68524 0.0
H1413 H 0.66847 0.57969 0.88198 0.0
H1414 H 0.68149 0.58503 0.93494 0.0
H1415 H 0.66934 0.57001 0.94372 0.0
C1416 C 0.89793 0.54014 0.9245 0.0
C1417 C 0.90798 0.54338 0.88387 0.0
C1418 C 0.8915 0.54615 0.91876 0.0
C1419 C 0.89501 0.55533 0.86965 0.0
C1420 C 0.90511 0.55856 0.82819 0.0
C1421 C 0.91162 0.55274 0.837 0.0
C1422 C 0.88102 0.54274 0.96547 0.0
C1423 C 0.909 0.56813 0.77417 0.0
C1424 C 0.87265 0.56391 0.80739 0.0
C1425 C 0.87668 0.57486 0.84012 0.0
C1426 C 0.87848 0.55739 0.81682 0.0
C1427 C 0.88831 0.56175 0.86198 0.0
C1428 C 0.89217 0.57262 0.89685 0.0
C1429 C 0.88648 0.57917 0.88426 0.0
C1430 C 0.87434 0.54602 0.77707 0.0
C1431 C 0.90243 0.57742 0.94671 0.0
H1432 H 0.89506 0.53287 0.96055 0.0
H1433 H 0.91958 0.55552 0.80688 0.0
H1434 H 0.88228 0.55066 0.99419 0.0
H1435 H 0.8728 0.53946 0.93471 0.0
H1436 H 0.87975 0.53575 0.00281 0.0
H1437 H 0.91658 0.56902 0.7432 0.0
H1438 H 0.9015 0.56613 0.73914 0.0
H1439 H 0.91169 0.5768 0.79873 0.0
H1440 H 0.86499 0.56049 0.77391 0.0
H1441 H 0.8898 0.58775 0.90854 0.0
H1442 H 0.87194 0.53852 0.81274 0.0
H1443 H 0.88166 0.54682 0.74409 0.0
H1444 H 0.86654 0.54385 0.7441 0.0
H1445 H 0.90112 0.57048 0.98446 0.0
H1446 H 0.9035 0.58532 0.97493 0.0
H1447 H 0.9108 0.57997 0.91878 0.0
C1448 C 0.43373 0.30884 0.76905 0.0
C1449 C 0.42306 0.30174 0.80406 0.0
C1450 C 0.44023 0.32117 0.77971 0.0
C1451 C 0.43617 0.32641 0.82841 0.0
C1452 C 0.42546 0.31926 0.86433 0.0
C1453 C 0.41889 0.30707 0.85039 0.0
C1454 C 0.45139 0.32859 0.73859 0.0
C1455 C 0.42096 0.32445 0.91792 0.0
C1456 C 0.45844 0.35655 0.90174 0.0
C1457 C 0.45525 0.36403 0.86774 0.0
C1458 C 0.45225 0.34425 0.8899 0.0
C1459 C 0.44295 0.33942 0.841 0.0
C1460 C 0.43984 0.34698 0.80568 0.0
C1461 C 0.44582 0.35914 0.82082 0.0
C1462 C 0.45553 0.33641 0.93035 0.0
C1463 C 0.43019 0.34223 0.75187 0.0
H1464 H 0.43703 0.30474 0.73358 0.0
H1465 H 0.41048 0.30167 0.87622 0.0
H1466 H 0.45074 0.33571 0.71107 0.0
H1467 H 0.45917 0.33298 0.77332 0.0
H1468 H 0.45304 0.32322 0.70052 0.0
H1469 H 0.41293 0.31752 0.94467 0.0
H1470 H 0.42799 0.32943 0.95664 0.0
H1471 H 0.41877 0.33083 0.89375 0.0
H1472 H 0.46579 0.36032 0.93763 0.0
H1473 H 0.4431 0.36483 0.79575 0.0
H1474 H 0.45848 0.33169 0.89516 0.0
H1475 H 0.44764 0.32955 0.95834 0.0
H1476 H 0.46273 0.34152 0.96797 0.0
H1477 H 0.43187 0.33696 0.7133 0.0
H1478 H 0.42957 0.34943 0.72499 0.0
H1479 H 0.42148 0.3362 0.77593 0.0
C1480 C 0.64149 0.10086 0.90542 0.0
C1481 C 0.63463 0.09109 0.86293 0.0
C1482 C 0.6539 0.1074 0.89893 0.0
C1483 C 0.65951 0.10429 0.84728 0.0
C1484 C 0.65261 0.09454 0.80358 0.0
C1485 C 0.64029 0.08792 0.81294 0.0
C1486 C 0.66102 0.11753 0.94774 0.0
C1487 C 0.65822 0.09108 0.74701 0.0
C1488 C 0.69059 0.12717 0.78949 0.0
C1489 C 0.69745 0.12293 0.82083 0.0
C1490 C 0.67821 0.1212 0.79763 0.0
C1491 C 0.67264 0.11098 0.83987 0.0
C1492 C 0.67957 0.10684 0.87287 0.0
C1493 C 0.69186 0.11272 0.86177 0.0
C1494 C 0.67107 0.12568 0.76004 0.0
C1495 C 0.674 0.09612 0.91947 0.0
H1496 H 0.63715 0.10344 0.94359 0.0
H1497 H 0.63509 0.08017 0.78123 0.0
H1498 H 0.66761 0.116 0.97523 0.0
H1499 H 0.66606 0.12596 0.91881 0.0
H1500 H 0.65533 0.11862 0.98617 0.0
H1501 H 0.65151 0.08381 0.71441 0.0
H1502 H 0.66378 0.09886 0.71395 0.0
H1503 H 0.66415 0.0881 0.76935 0.0
H1504 H 0.69492 0.13513 0.75836 0.0
H1505 H 0.69709 0.10927 0.8849 0.0
H1506 H 0.66596 0.12785 0.79706 0.0
H1507 H 0.66454 0.11862 0.72568 0.0
H1508 H 0.67675 0.1337 0.72881 0.0
H1509 H 0.66846 0.09719 0.95896 0.0
H1510 H 0.68075 0.09466 0.94567 0.0
H1511 H 0.66807 0.08806 0.88939 0.0
C1512 C 0.53932 0.89608 0.10162 0.0
C1513 C 0.54308 0.90698 0.1343 0.0
C1514 C 0.54515 0.8896 0.11339 0.0
C1515 C 0.55472 0.894 0.16043 0.0
C1516 C 0.55837 0.90489 0.19463 0.0
C1517 C 0.55267 0.91136 0.18007 0.0
C1518 C 0.54122 0.87819 0.07453 0.0
C1519 C 0.5684 0.90978 0.2461 0.0
C1520 C 0.56415 0.87274 0.23158 0.0
C1521 C 0.57442 0.87591 0.19326 0.0
C1522 C 0.55765 0.87859 0.22185 0.0
C1523 C 0.56136 0.88758 0.1713 0.0
C1524 C 0.57167 0.89073 0.13211 0.0
C1525 C 0.5782 0.88503 0.14461 0.0
C1526 C 0.54689 0.87525 0.26596 0.0
C1527 C 0.57582 0.90012 0.0769 0.0
H1528 H 0.53184 0.89262 0.06676 0.0
H1529 H 0.55578 0.91991 0.2043 0.0
H1530 H 0.54872 0.87893 0.04353 0.0
H1531 H 0.5386 0.87073 0.11089 0.0
H1532 H 0.53362 0.87599 0.0398 0.0
H1533 H 0.56944 0.91782 0.27257 0.0
H1534 H 0.56682 0.90295 0.28523 0.0
H1535 H 0.57687 0.91213 0.21995 0.0
H1536 H 0.56118 0.86565 0.26895 0.0
H1537 H 0.58631 0.88773 0.11611 0.0
H1538 H 0.53887 0.87201 0.23334 0.0
H1539 H 0.54801 0.88319 0.2938 0.0
H1540 H 0.54533 0.86826 0.30398 0.0
H1541 H 0.5685 0.89799 0.04019 0.0
H1542 H 0.58356 0.90095 0.048 0.0
H1543 H 0.57835 0.90886 0.10008 0.0
C1544 C 0.08757 0.6404 0.18479 0.0
C1545 C 0.09217 0.63508 0.14143 0.0
C1546 C 0.09393 0.65263 0.19797 0.0
C1547 C 0.10493 0.65979 0.16472 0.0
C1548 C 0.10956 0.6545 0.12016 0.0
C1549 C 0.10319 0.64216 0.10982 0.0
C1550 C 0.08879 0.6579 0.24689 0.0
C1551 C 0.12111 0.66189 0.08233 0.0
C1552 C 0.11386 0.69214 0.14253 0.0
C1553 C 0.12281 0.69772 0.19194 0.0
C1554 C 0.10822 0.67986 0.13198 0.0
C1555 C 0.11124 0.67288 0.17386 0.0
C1556 C 0.12005 0.6784 0.22514 0.0
C1557 C 0.12586 0.69079 0.23293 0.0
C1558 C 0.09901 0.67435 0.07596 0.0
C1559 C 0.12327 0.6712 0.27204 0.0
H1560 H 0.07893 0.635 0.20815 0.0
H1561 H 0.1068 0.63804 0.07671 0.0
H1562 H 0.09547 0.66334 0.28636 0.0
H1563 H 0.08649 0.66388 0.21866 0.0
H1564 H 0.08068 0.65098 0.27309 0.0
H1565 H 0.1235 0.6564 0.04966 0.0
H1566 H 0.12043 0.66848 0.04936 0.0
H1567 H 0.12842 0.66693 0.11931 0.0
H1568 H 0.11121 0.69739 0.11209 0.0
H1569 H 0.13285 0.69507 0.27076 0.0
H1570 H 0.0902 0.66823 0.09866 0.0
H1571 H 0.10128 0.66902 0.04117 0.0
H1572 H 0.09826 0.68112 0.04504 0.0
H1573 H 0.11523 0.66444 0.29942 0.0
H1574 H 0.13007 0.67681 0.31056 0.0
H1575 H 0.12671 0.66636 0.24157 0.0
C1576 C 0.3576 0.45955 0.1081 0.0
C1577 C 0.36453 0.45574 0.14283 0.0
C1578 C 0.34521 0.45356 0.11614 0.0
C1579 C 0.33971 0.44374 0.16138 0.0
C1580 C 0.3467 0.43994 0.19703 0.0
C1581 C 0.35899 0.44585 0.18622 0.0
C1582 C 0.33799 0.45764 0.07578 0.0
C1583 C 0.3412 0.42964 0.24658 0.0
C1584 C 0.30874 0.43419 0.22816 0.0
C1585 C 0.30179 0.42404 0.18856 0.0
C1586 C 0.32113 0.44071 0.22004 0.0
C1587 C 0.3266 0.43714 0.16987 0.0
C1588 C 0.31958 0.42698 0.12923 0.0
C1589 C 0.30729 0.42043 0.14006 0.0
C1590 C 0.32838 0.45131 0.26561 0.0
C1591 C 0.32503 0.42299 0.07441 0.0
H1592 H 0.36188 0.46724 0.0748 0.0
H1593 H 0.36429 0.44271 0.21189 0.0
H1594 H 0.33135 0.45023 0.0438 0.0
H1595 H 0.33303 0.46025 0.11121 0.0
H1596 H 0.34361 0.46528 0.04183 0.0
H1597 H 0.34798 0.42833 0.27359 0.0
H1598 H 0.33583 0.43111 0.28539 0.0
H1599 H 0.33512 0.42134 0.21877 0.0
H1600 H 0.30449 0.43704 0.26538 0.0
H1601 H 0.30197 0.41242 0.11052 0.0
H1602 H 0.33338 0.45942 0.23399 0.0
H1603 H 0.33501 0.45002 0.29451 0.0
H1604 H 0.32279 0.4528 0.30279 0.0
H1605 H 0.33045 0.43045 0.03894 0.0
H1606 H 0.31822 0.4154 0.04405 0.0
H1607 H 0.33106 0.42029 0.0982 0.0
C1608 C 0.76957 0.79406 0.45415 0.0
C1609 C 0.75894 0.79042 0.48986 0.0
C1610 C 0.77606 0.78819 0.46308 0.0
C1611 C 0.77209 0.7788 0.51113 0.0
C1612 C 0.76159 0.77536 0.54905 0.0
C1613 C 0.75498 0.78101 0.5366 0.0
C1614 C 0.78698 0.79182 0.41984 0.0
C1615 C 0.75724 0.76564 0.60228 0.0
C1616 C 0.78056 0.75495 0.49331 0.0
C1617 C 0.7903 0.75905 0.53772 0.0
C1618 C 0.77485 0.76153 0.48234 0.0
C1619 C 0.77856 0.77216 0.51951 0.0
C1620 C 0.78821 0.77622 0.5658 0.0
C1621 C 0.79413 0.76974 0.57323 0.0
C1622 C 0.76482 0.75707 0.43099 0.0
C1623 C 0.79214 0.78727 0.60828 0.0
H1624 H 0.77277 0.80145 0.41871 0.0
H1625 H 0.74663 0.77794 0.56314 0.0
H1626 H 0.79486 0.79466 0.45312 0.0
H1627 H 0.78586 0.7841 0.38948 0.0
H1628 H 0.78878 0.79918 0.38405 0.0
H1629 H 0.74967 0.76495 0.63247 0.0
H1630 H 0.75434 0.75697 0.577 0.0
H1631 H 0.76454 0.76728 0.63808 0.0
H1632 H 0.77734 0.74655 0.4671 0.0
H1633 H 0.80175 0.77302 0.60701 0.0
H1634 H 0.76642 0.76422 0.39407 0.0
H1635 H 0.75635 0.75452 0.45772 0.0
H1636 H 0.76376 0.74925 0.40186 0.0
H1637 H 0.79507 0.79509 0.57438 0.0
H1638 H 0.79953 0.789 0.64364 0.0
H1639 H 0.78455 0.7864 0.639 0.0
C1640 C 0.20253 0.97304 0.50839 0.0
C1641 C 0.20728 0.96896 0.45792 0.0
C1642 C 0.2079 0.98518 0.52389 0.0
C1643 C 0.21828 0.99335 0.48817 0.0
C1644 C 0.22286 0.98928 0.43541 0.0
C1645 C 0.21727 0.97709 0.42084 0.0
C1646 C 0.2027 0.98919 0.58002 0.0
C1647 C 0.23392 0.99773 0.39627 0.0
C1648 C 0.22896 0.02638 0.49129 0.0
C1649 C 0.23809 0.03043 0.53989 0.0
C1650 C 0.2222 0.01427 0.4751 0.0
C1651 C 0.22472 0.00609 0.50821 0.0
C1652 C 0.23373 0.01014 0.55888 0.0
C1653 C 0.24031 0.0223 0.57418 0.0
C1654 C 0.21262 0.01027 0.42124 0.0
C1655 C 0.23668 0.00168 0.59521 0.0
H1656 H 0.19478 0.96668 0.53689 0.0
H1657 H 0.22097 0.97385 0.38231 0.0
H1658 H 0.20904 0.99283 0.62348 0.0
H1659 H 0.20126 0.99642 0.56112 0.0
H1660 H 0.19414 0.98183 0.59943 0.0
H1661 H 0.23594 0.99323 0.35433 0.0
H1662 H 0.23294 0.00503 0.3739 0.0
H1663 H 0.24162 0.00183 0.43178 0.0
H1664 H 0.2273 0.03275 0.46489 0.0
H1665 H 0.24748 0.02551 0.6112 0.0
H1666 H 0.20408 0.00306 0.44173 0.0
H1667 H 0.21499 0.00662 0.37644 0.0
H1668 H 0.2113 0.01765 0.40337 0.0
H1669 H 0.2286 0.99439 0.61945 0.0
H1670 H 0.24358 0.00618 0.63534 0.0
H1671 H 0.23994 0.99757 0.55752 0.0
C1672 C 0.97529 0.2071 0.55585 0.0
C1673 C 0.96837 0.21072 0.51931 0.0
C1674 C 0.9877 0.21313 0.54861 0.0
C1675 C 0.99323 0.22272 0.50189 0.0
C1676 C 0.98624 0.22625 0.46387 0.0
C1677 C 0.97395 0.22039 0.47434 0.0
C1678 C 0.9949 0.20939 0.59179 0.0
C1679 C 0.99176 0.23624 0.41231 0.0
C1680 C 0.02545 0.24653 0.52393 0.0
C1681 C 0.03123 0.24268 0.47888 0.0
C1682 C 0.01314 0.23989 0.5336 0.0
C1683 C 0.00636 0.22944 0.4947 0.0
C1684 C 0.0121 0.22567 0.44763 0.0
C1685 C 0.02452 0.23223 0.44118 0.0
C1686 C 0.0074 0.24407 0.58553 0.0
C1687 C 0.00512 0.21479 0.40354 0.0
H1688 H 0.971 0.19957 0.59025 0.0
H1689 H 0.96868 0.22344 0.44731 0.0
H1690 H 4e-05 0.20668 0.55837 0.0
H1691 H 0.0014 0.217 0.62314 0.0
H1692 H 0.98926 0.20189 0.62661 0.0
H1693 H 0.98497 0.23716 0.38258 0.0
H1694 H 0.99754 0.24476 0.43897 0.0
H1695 H 0.99743 0.23473 0.37595 0.0
H1696 H 0.03056 0.25476 0.55189 0.0
H1697 H 0.02897 0.22917 0.40676 0.0
H1698 H 0.00188 0.23677 0.62169 0.0
H1699 H 0.00143 0.24659 0.5592 0.0
H1700 H 0.01405 0.25183 0.61547 0.0
H1701 H 0.00017 0.20682 0.43632 0.0
H1702 H 0.01089 0.21325 0.36803 0.0
H1703 H 0.99846 0.21576 0.37287 0.0
C1704 C 0.22994 0.20324 0.47086 0.0
C1705 C 0.23857 0.20768 0.52246 0.0
C1706 C 0.22324 0.20871 0.45614 0.0
C1707 C 0.22546 0.219 0.49302 0.0
C1708 C 0.23413 0.22344 0.54574 0.0
C1709 C 0.24052 0.21763 0.56027 0.0
C1710 C 0.21392 0.20359 0.40062 0.0
C1711 C 0.23688 0.2345 0.58538 0.0
C1712 C 0.21759 0.24059 0.41013 0.0
C1713 C 0.20744 0.23829 0.44703 0.0
C1714 C 0.2235 0.23428 0.42412 0.0
C1715 C 0.21897 0.22534 0.47533 0.0
C1716 C 0.20847 0.22275 0.51106 0.0
C1717 C 0.20289 0.22938 0.49696 0.0
C1718 C 0.23479 0.23743 0.38577 0.0
C1719 C 0.20324 0.21314 0.56495 0.0
H1720 H 0.2285 0.19552 0.4418 0.0
H1721 H 0.24731 0.22108 0.59967 0.0
H1722 H 0.20524 0.20189 0.42102 0.0
H1723 H 0.21637 0.21006 0.35807 0.0
H1724 H 0.21283 0.19516 0.37955 0.0
H1725 H 0.24378 0.2367 0.62525 0.0
H1726 H 0.24003 0.24214 0.54971 0.0
H1727 H 0.22873 0.23337 0.61053 0.0
H1728 H 0.22112 0.2476 0.37204 0.0
H1729 H 0.19503 0.22768 0.52535 0.0
H1730 H 0.23396 0.22945 0.35991 0.0
H1731 H 0.2423 0.2406 0.42242 0.0
H1732 H 0.23699 0.24444 0.34666 0.0
H1733 H 0.20188 0.20464 0.5435 0.0
H1734 H 0.19462 0.21173 0.5848 0.0
H1735 H 0.20951 0.21553 0.60855 0.0
C1736 C 0.76908 0.97644 0.43281 0.0
C1737 C 0.75836 0.96908 0.46668 0.0
C1738 C 0.77537 0.98874 0.44492 0.0
C1739 C 0.77103 0.99368 0.49391 0.0
C1740 C 0.76033 0.98623 0.52925 0.0
C1741 C 0.75399 0.97408 0.51392 0.0
C1742 C 0.78653 0.99646 0.4045 0.0
C1743 C 0.75555 0.99109 0.5831 0.0
C1744 C 0.79241 0.02422 0.56646 0.0
C1745 C 0.78884 0.03134 0.5317 0.0
C1746 C 0.78663 0.0119 0.55524 0.0
C1747 C 0.77736 0.0067 0.50628 0.0
C1748 C 0.77385 0.01389 0.47037 0.0
C1749 C 0.77943 0.02606 0.4848 0.0
C1750 C 0.79032 0.00444 0.59628 0.0
C1751 C 0.7642 0.00875 0.41656 0.0
H1752 H 0.77256 0.9726 0.39679 0.0
H1753 H 0.74555 0.96849 0.53895 0.0
H1754 H 0.78557 0.00333 0.37606 0.0
H1755 H 0.79419 0.00118 0.43973 0.0
H1756 H 0.78858 0.99127 0.36727 0.0
H1757 H 0.74771 0.98395 0.61024 0.0
H1758 H 0.76254 0.99635 0.62146 0.0
H1759 H 0.75291 0.99715 0.55898 0.0
H1760 H 0.79976 0.02828 0.60226 0.0
H1761 H 0.77642 0.03147 0.45912 0.0
H1762 H 0.79357 -6e-05 0.56149 0.0
H1763 H 0.78255 0.99741 0.62428 0.0
H1764 H 0.79743 0.0098 0.63395 0.0
H1765 H 0.76619 0.00368 0.37818 0.0
H1766 H 0.76321 0.01572 0.38943 0.0
H1767 H 0.75558 0.00247 0.44069 0.0
C1768 C 0.97317 0.76736 0.48275 0.0
C1769 C 0.96882 0.75845 0.53272 0.0
C1770 C 0.98537 0.77405 0.4689 0.0
C1771 C 0.99332 0.77157 0.50513 0.0
C1772 C 0.98893 0.76259 0.556 0.0
C1773 C 0.97669 0.75617 0.56955 0.0
C1774 C 0.98974 0.78369 0.41516 0.0
C1775 C 0.99711 0.75957 0.59495 0.0
C1776 C 0.02302 0.78014 0.42323 0.0
C1777 C 0.03072 0.7902 0.46131 0.0
C1778 C 0.01079 0.77401 0.43673 0.0
C1779 C 0.0062 0.77819 0.48886 0.0
C1780 C 0.01396 0.78853 0.52635 0.0
C1781 C 0.02618 0.79436 0.51249 0.0
C1782 C 0.00281 0.76291 0.3964 0.0
C1783 C 0.00938 0.79336 0.58149 0.0
H1784 H 0.96699 0.76907 0.45448 0.0
H1785 H 0.97324 0.74916 0.60765 0.0
H1786 H 0.99658 0.79226 0.43744 0.0
H1787 H 0.994 0.78154 0.37253 0.0
H1788 H 0.98246 0.78483 0.39378 0.0
H1789 H 0.99228 0.75242 0.6333 0.0
H1790 H 0.00171 0.75665 0.55861 0.0
H1791 H 0.00404 0.76755 0.62186 0.0
H1792 H 0.02663 0.77689 0.38422 0.0
H1793 H 0.03222 0.80218 0.54176 0.0
H1794 H 0.99573 0.76384 0.37045 0.0
H1795 H 0.99837 0.75521 0.4317 0.0
H1796 H 0.00777 0.76093 0.35711 0.0
H1797 H 0.00238 0.79495 0.56024 0.0
H1798 H 0.01653 0.80179 0.60373 0.0
H1799 H 0.00527 0.78675 0.62333 0.0
C1800 C 0.08988 0.3123 0.44901 0.0
C1801 C 0.09272 0.30462 0.41416 0.0
C1802 C 0.09506 0.3243 0.42973 0.0
C1803 C 0.10354 0.32873 0.37605 0.0
C1804 C 0.1066 0.32103 0.34186 0.0
C1805 C 0.101 0.30903 0.3606 0.0
C1806 C 0.09134 0.33217 0.46598 0.0
C1807 C 0.11586 0.32547 0.28584 0.0
C1808 C 0.11131 0.3568 0.27636 0.0
C1809 C 0.12178 0.36515 0.30914 0.0
C1810 C 0.10494 0.34501 0.29981 0.0
C1811 C 0.10939 0.34145 0.35576 0.0
C1812 C 0.11991 0.3499 0.38931 0.0
C1813 C 0.12588 0.36169 0.36623 0.0
C1814 C 0.09357 0.33633 0.26399 0.0
C1815 C 0.12515 0.34638 0.44771 0.0
H1816 H 0.0834 0.30885 0.49006 0.0
H1817 H 0.10327 0.3031 0.33401 0.0
H1818 H 0.09911 0.33966 0.49132 0.0
H1819 H 0.08788 0.33607 0.42813 0.0
H1820 H 0.08438 0.32728 0.50526 0.0
H1821 H 0.11755 0.31842 0.26632 0.0
H1822 H 0.11298 0.32892 0.24233 0.0
H1823 H 0.12435 0.33294 0.30529 0.0
H1824 H 0.10808 0.35949 0.23259 0.0
H1825 H 0.13402 0.36813 0.39135 0.0
H1826 H 0.08636 0.33161 0.30204 0.0
H1827 H 0.09481 0.32953 0.23686 0.0
H1828 H 0.0907 0.34077 0.22607 0.0
H1829 H 0.11851 0.34207 0.48913 0.0
H1830 H 0.13319 0.35411 0.46968 0.0
H1831 H 0.1276 0.33981 0.42931 0.0
C1832 C 0.64599 0.76684 0.2391 0.0
C1833 C 0.63737 0.75675 0.27356 0.0
C1834 C 0.65783 0.7728 0.26147 0.0
C1835 C 0.66117 0.76825 0.31795 0.0
C1836 C 0.65257 0.75773 0.35088 0.0
C1837 C 0.6407 0.75224 0.32915 0.0
C1838 C 0.66666 0.7842 0.22644 0.0
C1839 C 0.65586 0.75236 0.40954 0.0
C1840 C 0.69422 0.77963 0.33668 0.0
C1841 C 0.69725 0.78785 0.39012 0.0
C1842 C 0.68242 0.77287 0.31424 0.0
C1843 C 0.67357 0.77476 0.34411 0.0
C1844 C 0.67663 0.7831 0.39804 0.0
C1845 C 0.68841 0.78938 0.42133 0.0
C1846 C 0.67943 0.76374 0.2585 0.0
C1847 C 0.66753 0.78565 0.42968 0.0
H1848 H 0.64335 0.77039 0.19659 0.0
H1849 H 0.634 0.74438 0.35551 0.0
H1850 H 0.67031 0.79159 0.26409 0.0
H1851 H 0.67423 0.78344 0.20632 0.0
H1852 H 0.66263 0.78654 0.18336 0.0
H1853 H 0.64836 0.74358 0.42531 0.0
H1854 H 0.6635 0.75124 0.39487 0.0
H1855 H 0.65866 0.75839 0.45444 0.0
H1856 H 0.70108 0.77842 0.3129 0.0
H1857 H 0.69082 0.79584 0.46219 0.0
H1858 H 0.67635 0.76632 0.21202 0.0
H1859 H 0.67206 0.75498 0.27544 0.0
H1860 H 0.68716 0.76273 0.24436 0.0
H1861 H 0.6636 0.78866 0.38943 0.0
H1862 H 0.67141 0.79257 0.47016 0.0
H1863 H 0.66019 0.77744 0.4525 0.0
C1864 C 0.20676 0.9002 0.32761 0.0
C1865 C 0.21109 0.9088 0.37949 0.0
C1866 C 0.21293 0.89438 0.30833 0.0
C1867 C 0.22392 0.89756 0.34003 0.0
C1868 C 0.22851 0.9065 0.39117 0.0
C1869 C 0.22191 0.91187 0.41128 0.0
C1870 C 0.20753 0.8846 0.25536 0.0
C1871 C 0.24037 0.91039 0.42454 0.0
C1872 C 0.23411 0.87485 0.34056 0.0
C1873 C 0.24148 0.8782 0.2827 0.0
C1874 C 0.22834 0.88107 0.35973 0.0
C1875 C 0.23033 0.89116 0.32146 0.0
C1876 C 0.23804 0.89479 0.26406 0.0
C1877 C 0.24336 0.88812 0.24453 0.0
C1878 C 0.21987 0.87666 0.41979 0.0
C1879 C 0.24066 0.90572 0.22335 0.0
H1880 H 0.19833 0.89776 0.30343 0.0
H1881 H 0.2253 0.9186 0.45102 0.0
H1882 H 0.21362 0.8868 0.21107 0.0
H1883 H 0.20622 0.87618 0.27771 0.0
H1884 H 0.19883 0.88311 0.23629 0.0
H1885 H 0.24307 0.91804 0.45974 0.0
H1886 H 0.24 0.90293 0.45412 0.0
H1887 H 0.24733 0.91292 0.3847 0.0
H1888 H 0.23258 0.86711 0.36976 0.0
H1889 H 0.24914 0.89076 0.20011 0.0
H1890 H 0.21088 0.87455 0.40269 0.0
H1891 H 0.22278 0.88368 0.45946 0.0
H1892 H 0.21923 0.8686 0.44367 0.0
H1893 H 0.23245 0.90439 0.19811 0.0
H1894 H 0.24752 0.90783 0.18332 0.0
H1895 H 0.24377 0.91347 0.25809 0.0
C1896 C 0.30566 0.08416 0.67215 0.0
C1897 C 0.30238 0.08908 0.61839 0.0
C1898 C 0.31748 0.08954 0.69463 0.0
C1899 C 0.32611 0.10033 0.66431 0.0
C1900 C 0.32284 0.10526 0.60937 0.0
C1901 C 0.31103 0.09944 0.58623 0.0
C1902 C 0.32069 0.08377 0.75151 0.0
C1903 C 0.33171 0.11692 0.57692 0.0
C1904 C 0.35325 0.1209 0.77048 0.0
C1905 C 0.36213 0.11964 0.73774 0.0
C1906 C 0.34145 0.11466 0.74709 0.0
C1907 C 0.33846 0.10667 0.6913 0.0
C1908 C 0.34734 0.10497 0.66023 0.0
C1909 C 0.35912 0.11165 0.683 0.0
C1910 C 0.3323 0.11695 0.78034 0.0
C1911 C 0.34443 0.09622 0.60237 0.0
H1912 H 0.29895 0.0761 0.69681 0.0
H1913 H 0.30844 0.10331 0.54522 0.0
H1914 H 0.32838 0.0828 0.736 0.0
H1915 H 0.32339 0.08948 0.79782 0.0
H1916 H 0.31318 0.07488 0.7654 0.0
H1917 H 0.32775 0.11954 0.53474 0.0
H1918 H 0.33525 0.12404 0.61632 0.0
H1919 H 0.33935 0.11635 0.5562 0.0
H1920 H 0.35563 0.12719 0.81229 0.0
H1921 H 0.36601 0.11065 0.65794 0.0
H1922 H 0.32486 0.10855 0.80071 0.0
H1923 H 0.32852 0.12038 0.74153 0.0
H1924 H 0.33608 0.12347 0.82295 0.0
H1925 H 0.33697 0.08738 0.61732 0.0
H1926 H 0.35216 0.09524 0.5877 0.0
H1927 H 0.34152 0.09917 0.5567 0.0
C1928 C 0.89879 0.21191 0.56073 0.0
C1929 C 0.90889 0.21323 0.59427 0.0
C1930 C 0.8931 0.21805 0.58365 0.0
C1931 C 0.89792 0.226 0.63977 0.0
C1932 C 0.90845 0.22775 0.67169 0.0
C1933 C 0.91368 0.22116 0.64939 0.0
C1934 C 0.8817 0.2157 0.54952 0.0
C1935 C 0.91411 0.23646 0.72992 0.0
C1936 C 0.88741 0.24835 0.65783 0.0
C1937 C 0.87914 0.24338 0.7112 0.0
C1938 C 0.89393 0.24303 0.63582 0.0
C1939 C 0.89177 0.23224 0.66615 0.0
C1940 C 0.88348 0.22724 0.72058 0.0
C1941 C 0.87741 0.23301 0.74333 0.0
C1942 C 0.90301 0.24888 0.57951 0.0
C1943 C 0.88069 0.21558 0.75295 0.0
H1944 H 0.89503 0.20567 0.51863 0.0
H1945 H 0.92154 0.2222 0.67507 0.0
H1946 H 0.87441 0.21221 0.58782 0.0
H1947 H 0.88264 0.22408 0.52906 0.0
H1948 H 0.8791 0.20921 0.50684 0.0
H1949 H 0.92281 0.23749 0.7453 0.0
H1950 H 0.91547 0.24529 0.71496 0.0
H1951 H 0.90815 0.23343 0.77514 0.0
H1952 H 0.88876 0.25641 0.63321 0.0
H1953 H 0.87089 0.2291 0.78403 0.0
H1954 H 0.90013 0.24318 0.53311 0.0
H1955 H 0.91167 0.24991 0.59571 0.0
H1956 H 0.90435 0.25775 0.56549 0.0
H1957 H 0.87726 0.2085 0.71334 0.0
H1958 H 0.87399 0.21287 0.79455 0.0
H1959 H 0.88887 0.21619 0.77445 0.0
C1960 C 0.79326 0.69337 0.68069 0.0
C1961 C 0.78916 0.69757 0.62717 0.0
C1962 C 0.78714 0.68135 0.69939 0.0
C1963 C 0.77644 0.67343 0.6653 0.0
C1964 C 0.77204 0.67773 0.61281 0.0
C1965 C 0.77859 0.68973 0.59343 0.0
C1966 C 0.79234 0.67704 0.75397 0.0
C1967 C 0.76047 0.66964 0.57682 0.0
C1968 C 0.76681 0.64067 0.66068 0.0
C1969 C 0.75888 0.63623 0.71592 0.0
C1970 C 0.77267 0.65278 0.64415 0.0
C1971 C 0.7702 0.66056 0.68229 0.0
C1972 C 0.76198 0.65607 0.73725 0.0
C1973 C 0.75657 0.64397 0.75428 0.0
C1974 C 0.78167 0.65728 0.5867 0.0
C1975 C 0.75884 0.66403 0.77761 0.0
H1976 H 0.80151 0.69943 0.7064 0.0
H1977 H 0.77538 0.69301 0.55241 0.0
H1978 H 0.78589 0.67274 0.79631 0.0
H1979 H 0.79419 0.67025 0.73199 0.0
H1980 H 0.80072 0.68436 0.77568 0.0
H1981 H 0.75779 0.67458 0.5414 0.0
H1982 H 0.7613 0.66284 0.54691 0.0
H1983 H 0.7533 0.66487 0.61504 0.0
H1984 H 0.76867 0.63469 0.63142 0.0
H1985 H 0.75036 0.6405 0.79669 0.0
H1986 H 0.7904 0.66431 0.60622 0.0
H1987 H 0.77889 0.66132 0.54591 0.0
H1988 H 0.78282 0.65011 0.56351 0.0
H1989 H 0.76682 0.67101 0.80424 0.0
H1990 H 0.75182 0.65903 0.81643 0.0
H1991 H 0.7557 0.66859 0.74237 0.0
C1992 C 0.88609 0.63912 0.6803 0.0
C1993 C 0.87851 0.6362 0.73697 0.0
C1994 C 0.89272 0.6509 0.65727 0.0
C1995 C 0.89136 0.65986 0.69014 0.0
C1996 C 0.88366 0.65692 0.74728 0.0
C1997 C 0.87749 0.64515 0.77082 0.0
C1998 C 0.90116 0.65375 0.5978 0.0
C1999 C 0.88168 0.66615 0.78239 0.0
C2000 C 0.91425 0.69259 0.67295 0.0
C2001 C 0.9093 0.69615 0.6208 0.0
C2002 C 0.90876 0.68069 0.69409 0.0
C2003 C 0.89781 0.67228 0.66418 0.0
C2004 C 0.89282 0.67584 0.61111 0.0
C2005 C 0.89875 0.68771 0.58916 0.0
C2006 C 0.91458 0.67715 0.74899 0.0
C2007 C 0.88099 0.66722 0.5794 0.0
H2008 H 0.88692 0.63219 0.65441 0.0
H2009 H 0.87152 0.64285 0.81421 0.0
H2010 H 0.89821 0.65702 0.55374 0.0
H2011 H 0.91017 0.66095 0.61234 0.0
H2012 H 0.90176 0.64591 0.58085 0.0
H2013 H 0.87518 0.66235 0.82508 0.0
H2014 H 0.89019 0.67337 0.80312 0.0
H2015 H 0.87839 0.67023 0.74471 0.0
H2016 H 0.92245 0.69913 0.69711 0.0
H2017 H 0.89487 0.69052 0.54932 0.0
H2018 H 0.91534 0.66943 0.73161 0.0
H2019 H 0.90903 0.67439 0.79593 0.0
H2020 H 0.92357 0.68452 0.76254 0.0
H2021 H 0.8813 0.65954 0.55708 0.0
H2022 H 0.87834 0.6714 0.53858 0.0
H2023 H 0.87401 0.6637 0.61959 0.0
C2024 C 0.30892 0.22159 0.59097 0.0
C2025 C 0.30089 0.21102 0.62408 0.0
C2026 C 0.32082 0.22811 0.61221 0.0
C2027 C 0.32483 0.22368 0.66603 0.0
C2028 C 0.31672 0.21302 0.69981 0.0
C2029 C 0.30479 0.20693 0.67916 0.0
C2030 C 0.32912 0.23963 0.57645 0.0
C2031 C 0.32072 0.2078 0.75584 0.0
C2032 C 0.3575 0.23289 0.66436 0.0
C2033 C 0.36191 0.24091 0.71919 0.0
C2034 C 0.34542 0.22711 0.64719 0.0
C2035 C 0.33766 0.22977 0.68418 0.0
C2036 C 0.34213 0.23806 0.73879 0.0
C2037 C 0.3542 0.24337 0.75657 0.0
C2038 C 0.34093 0.21803 0.59019 0.0
C2039 C 0.33421 0.24141 0.77785 0.0
H2040 H 0.30587 0.2248 0.54872 0.0
H2041 H 0.29859 0.19869 0.70441 0.0
H2042 H 0.33391 0.24679 0.61472 0.0
H2043 H 0.33589 0.23865 0.54716 0.0
H2044 H 0.32435 0.24243 0.54044 0.0
H2045 H 0.31325 0.19956 0.77779 0.0
H2046 H 0.32741 0.20569 0.73509 0.0
H2047 H 0.32506 0.21433 0.79778 0.0
H2048 H 0.36347 0.23091 0.63589 0.0
H2049 H 0.35767 0.24965 0.79867 0.0
H2050 H 0.33712 0.22087 0.5484 0.0
H2051 H 0.33372 0.20939 0.60965 0.0
H2052 H 0.34805 0.21667 0.56831 0.0
H2053 H 0.32987 0.24466 0.74174 0.0
H2054 H 0.33918 0.2484 0.81682 0.0
H2055 H 0.32705 0.2335 0.80408 0.0
C2056 C 0.76602 0.12663 0.6706 0.0
C2057 C 0.75784 0.12244 0.7247 0.0
C2058 C 0.77184 0.12051 0.65011 0.0
C2059 C 0.76906 0.10971 0.68291 0.0
C2060 C 0.7605 0.10523 0.73614 0.0
C2061 C 0.75515 0.11179 0.75735 0.0
C2062 C 0.78121 0.12579 0.59483 0.0
C2063 C 0.75704 0.09356 0.7708 0.0
C2064 C 0.77823 0.08997 0.5883 0.0
C2065 C 0.78836 0.09212 0.62512 0.0
C2066 C 0.77163 0.09536 0.60778 0.0
C2067 C 0.77555 0.10342 0.66362 0.0
C2068 C 0.78588 0.10572 0.70025 0.0
C2069 C 0.79204 0.09987 0.6813 0.0
C2070 C 0.76043 0.0924 0.56897 0.0
C2071 C 0.79059 0.11454 0.75856 0.0
H2072 H 0.76817 0.13493 0.64574 0.0
H2073 H 0.74874 0.1085 0.79881 0.0
H2074 H 0.78986 0.12745 0.61553 0.0
H2075 H 0.77887 0.11947 0.55161 0.0
H2076 H 0.78233 0.13429 0.57464 0.0
H2077 H 0.74955 0.09086 0.80727 0.0
H2078 H 0.75444 0.08646 0.73182 0.0
H2079 H 0.76473 0.09424 0.79929 0.0
H2080 H 0.77535 0.0839 0.54517 0.0
H2081 H 0.79995 0.1016 0.70938 0.0
H2082 H 0.76144 0.10047 0.54339 0.0
H2083 H 0.75286 0.08926 0.6051 0.0
H2084 H 0.75823 0.08545 0.52945 0.0
H2085 H 0.79234 0.12336 0.74033 0.0
H2086 H 0.79893 0.11554 0.78053 0.0
H2087 H 0.78388 0.11171 0.79999 0.0
C2088 C 0.68886 0.89915 0.399 0.0
C2089 C 0.69764 0.90905 0.36392 0.0
C2090 C 0.67701 0.89338 0.37651 0.0
C2091 C 0.67386 0.89787 0.31898 0.0
C2092 C 0.68266 0.90809 0.28468 0.0
C2093 C 0.69449 0.91344 0.30689 0.0
C2094 C 0.66793 0.88232 0.4134 0.0
C2095 C 0.67958 0.91338 0.22465 0.0
C2096 C 0.64538 0.87687 0.22443 0.0
C2097 C 0.63718 0.87918 0.25728 0.0
C2098 C 0.65741 0.88298 0.2435 0.0
C2099 C 0.66133 0.89186 0.29494 0.0
C2100 C 0.65314 0.89464 0.32553 0.0
C2101 C 0.64112 0.88811 0.30721 0.0
C2102 C 0.66581 0.87955 0.21096 0.0
C2103 C 0.65703 0.90431 0.37879 0.0
H2104 H 0.69132 0.89567 0.44265 0.0
H2105 H 0.70129 0.92115 0.27996 0.0
H2106 H 0.66082 0.88372 0.43482 0.0
H2107 H 0.66367 0.87481 0.37673 0.0
H2108 H 0.67191 0.87977 0.45587 0.0
H2109 H 0.68737 0.92167 0.20561 0.0
H2110 H 0.67601 0.9069 0.18193 0.0
H2111 H 0.67253 0.91539 0.23965 0.0
H2112 H 0.64228 0.86986 0.1864 0.0
H2113 H 0.63475 0.88992 0.33235 0.0
H2114 H 0.66935 0.87607 0.25084 0.0
H2115 H 0.6735 0.88745 0.18793 0.0
H2116 H 0.66143 0.87268 0.17056 0.0
H2117 H 0.65993 0.9017 0.42591 0.0
H2118 H 0.6498 0.90613 0.39265 0.0
H2119 H 0.66474 0.91265 0.35972 0.0
C2120 C 0.11154 0.75251 0.31189 0.0
C2121 C 0.1197 0.75719 0.25781 0.0
C2122 C 0.10494 0.75784 0.33203 0.0
C2123 C 0.10691 0.76837 0.29901 0.0
C2124 C 0.11506 0.77306 0.24375 0.0
C2125 C 0.12121 0.76727 0.22295 0.0
C2126 C 0.09602 0.75233 0.38942 0.0
C2127 C 0.11766 0.78446 0.20859 0.0
C2128 C 0.08489 0.77936 0.31536 0.0
C2129 C 0.08983 0.78752 0.36929 0.0
C2130 C 0.09015 0.77278 0.2933 0.0
C2131 C 0.10084 0.77477 0.32422 0.0
C2132 C 0.10586 0.78302 0.37878 0.0
C2133 C 0.10015 0.78915 0.40152 0.0
C2134 C 0.08429 0.76374 0.23681 0.0
C2135 C 0.11743 0.78564 0.41177 0.0
H2136 H 0.11036 0.74467 0.33856 0.0
H2137 H 0.12763 0.77094 0.18164 0.0
H2138 H 0.09905 0.75828 0.43473 0.0
H2139 H 0.08732 0.75121 0.37351 0.0
H2140 H 0.09472 0.74354 0.40509 0.0
H2141 H 0.12413 0.78684 0.16599 0.0
H2142 H 0.10936 0.78368 0.18783 0.0
H2143 H 0.1213 0.79183 0.24637 0.0
H2144 H 0.07685 0.77807 0.29071 0.0
H2145 H 0.10403 0.79557 0.44272 0.0
H2146 H 0.0829 0.75498 0.25367 0.0
H2147 H 0.09015 0.76644 0.19113 0.0
H2148 H 0.07559 0.76269 0.22141 0.0
H2149 H 0.11657 0.77744 0.43458 0.0
H2150 H 0.12027 0.7925 0.45254 0.0
H2151 H 0.12452 0.78877 0.37233 0.0
C2152 C 0.24715 0.35702 0.2942 0.0
C2153 C 0.2421 0.36117 0.2459 0.0
C2154 C 0.24156 0.34496 0.31169 0.0
C2155 C 0.23044 0.33695 0.28204 0.0
C2156 C 0.22543 0.34106 0.23199 0.0
C2157 C 0.23145 0.35313 0.21364 0.0
C2158 C 0.24738 0.34086 0.36341 0.0
C2159 C 0.21344 0.33286 0.20061 0.0
C2160 C 0.21802 0.30363 0.29485 0.0
C2161 C 0.21083 0.30079 0.35332 0.0
C2162 C 0.22466 0.3154 0.27176 0.0
C2163 C 0.22372 0.32446 0.30658 0.0
C2164 C 0.21639 0.3216 0.36538 0.0
C2165 C 0.21019 0.30982 0.38876 0.0
C2166 C 0.2327 0.31817 0.2104 0.0
C2167 C 0.2149 0.33095 0.40284 0.0
H2168 H 0.25543 0.36327 0.31887 0.0
H2169 H 0.2275 0.35639 0.17686 0.0
H2170 H 0.24214 0.33818 0.41154 0.0
H2171 H 0.24761 0.33296 0.3438 0.0
H2172 H 0.2566 0.3479 0.37572 0.0
H2173 H 0.21102 0.33734 0.16044 0.0
H2174 H 0.21332 0.325 0.17764 0.0
H2175 H 0.20654 0.32957 0.24121 0.0
H2176 H 0.21855 0.29664 0.26762 0.0
H2177 H 0.20452 0.3076 0.43351 0.0
H2178 H 0.24191 0.325 0.22418 0.0
H2179 H 0.2298 0.32189 0.16843 0.0
H2180 H 0.23279 0.31018 0.19083 0.0
H2181 H 0.22358 0.33788 0.4235 0.0
H2182 H 0.20849 0.32717 0.44595 0.0
H2183 H 0.21176 0.33539 0.36675 0.0
C2184 C 0.97405 0.43231 0.98655 0.0
C2185 C 0.96971 0.42408 0.93268 0.0
C2186 C 0.98606 0.438 0.00519 0.0
C2187 C 0.99385 0.43509 0.97061 0.0
C2188 C 0.98945 0.42657 0.91711 0.0
C2189 C 0.97745 0.42131 0.8979 0.0
C2190 C 0.99047 0.44729 0.06104 0.0
C2191 C 0.99741 0.42298 0.88054 0.0
C2192 C 0.02675 0.45779 0.97633 0.0
C2193 C 0.03052 0.45386 0.03278 0.0
C2194 C 0.01485 0.45169 0.95507 0.0
C2195 C 0.00662 0.44119 0.98976 0.0
C2196 C 0.0105 0.43693 0.04516 0.0
C2197 C 0.02237 0.44345 0.06683 0.0
C2198 C 0.011 0.45673 0.89718 0.0
C2199 C 0.00207 0.42559 0.08207 0.0
H2200 H 0.96808 0.43453 0.01306 0.0
H2201 H 0.97407 0.41488 0.85657 0.0
H2202 H 0.99421 0.44461 0.10397 0.0
H2203 H 0.99771 0.45586 0.04092 0.0
H2204 H 0.98332 0.44874 0.08154 0.0
H2205 H 0.99248 0.4158 0.8425 0.0
H2206 H 0.00463 0.43075 0.85359 0.0
H2207 H 0.00165 0.41989 0.9183 0.0
H2208 H 0.03302 0.46591 0.95029 0.0
H2209 H 0.02531 0.44035 0.11015 0.0
H2210 H 0.00429 0.45894 0.91619 0.0
H2211 H 0.00675 0.45004 0.8559 0.0
H2212 H 0.01855 0.46487 0.87484 0.0
H2213 H 0.99524 0.42672 0.10959 0.0
H2214 H 0.00671 0.42292 0.11979 0.0
H2215 H 0.99735 0.41826 0.04462 0.0
C2216 C 0.5802 0.55253 0.01063 0.0
C2217 C 0.57553 0.54487 0.95428 0.0
C2218 C 0.57513 0.55928 0.03277 0.0
C2219 C 0.56488 0.55796 -0.00071 0.0
C2220 C 0.56008 0.55015 0.94264 0.0
C2221 C 0.56561 0.54385 0.92002 0.0
C2222 C 0.58075 0.56784 0.09169 0.0
C2223 C 0.54895 0.54824 0.90686 0.0
C2224 C 0.54439 0.56598 0.09496 0.0
C2225 C 0.54662 0.57638 0.06097 0.0
C2226 C 0.55039 0.55994 0.07598 0.0
C2227 C 0.55908 0.56468 0.02351 0.0
C2228 C 0.56179 0.57554 0.99171 0.0
C2229 C 0.55535 0.58114 0.0099 0.0
C2230 C 0.547 0.54821 0.10967 0.0
C2231 C 0.5713 0.5811 0.93737 0.0
H2232 H 0.58794 0.55336 0.03683 0.0
H2233 H 0.56193 0.53783 0.87687 0.0
H2234 H 0.58283 0.57688 0.07589 0.0
H2235 H 0.57445 0.56516 0.13525 0.0
H2236 H 0.58905 0.56825 0.10985 0.0
H2237 H 0.54613 0.54153 0.86522 0.0
H2238 H 0.54159 0.54525 0.94443 0.0
H2239 H 0.55043 0.55671 0.88451 0.0
H2240 H 0.53753 0.56225 0.13392 0.0
H2241 H 0.55709 0.58923 0.9839 0.0
H2242 H 0.55494 0.54843 0.13205 0.0
H2243 H 0.54332 0.54104 0.07059 0.0
H2244 H 0.54028 0.54591 0.15078 0.0
H2245 H 0.57965 0.58165 0.95562 0.0
H2246 H 0.57318 0.59015 0.92307 0.0
H2247 H 0.56846 0.57548 0.89068 0.0
C2248 C 0.43348 0.97324 0.99457 0.0
C2249 C 0.42526 0.96915 0.04854 0.0
C2250 C 0.4392 0.98517 0.97417 0.0
C2251 C 0.43633 0.99312 0.00706 0.0
C2252 C 0.42779 0.98896 0.06047 0.0
C2253 C 0.4225 0.97704 0.08148 0.0
C2254 C 0.44855 0.98933 0.91874 0.0
C2255 C 0.42428 0.9971 0.09542 0.0
C2256 C 0.45931 0.0259 0.00624 0.0
C2257 C 0.4556 0.03008 0.95071 0.0
C2258 C 0.45316 0.01388 0.0247 0.0
C2259 C 0.4428 0.00591 0.98812 0.0
C2260 C 0.43889 0.01011 0.93253 0.0
C2261 C 0.44548 0.02215 0.91364 0.0
C2262 C 0.45786 0.0097 0.08271 0.0
C2263 C 0.4277 0.00193 0.89358 0.0
H2264 H 0.43567 0.96715 0.96937 0.0
H2265 H 0.41605 0.97384 0.12275 0.0
H2266 H 0.44616 0.99331 0.87573 0.0
H2267 H 0.4572 0.99634 0.93939 0.0
H2268 H 0.44971 0.982 0.89825 0.0
H2269 H 0.41685 0.99228 0.13217 0.0
H2270 H 0.43198 0.00417 0.12364 0.0
H2271 H 0.42158 0.00154 0.05662 0.0
H2272 H 0.46721 0.03202 0.03457 0.0
H2273 H 0.44256 0.02543 0.87106 0.0
H2274 H 0.45957 0.00262 0.06419 0.0
H2275 H 0.45116 0.00581 0.1242 0.0
H2276 H 0.46621 0.017 0.10474 0.0
H2277 H 0.42866 0.99482 0.86822 0.0
H2278 H 0.42556 0.0067 0.8539 0.0
H2279 H 0.4201 0.99754 0.92963 0.0
C2280 C 0.55245 0.97159 0.9788 0.0
C2281 C 0.54433 0.96824 0.03309 0.0
C2282 C 0.55889 0.98345 0.95699 0.0
C2283 C 0.55683 0.99205 0.98861 0.0
C2284 C 0.54859 0.98869 0.04335 0.0
C2285 C 0.5426 0.97684 0.06576 0.0
C2286 C 0.56791 0.98677 0.9002 0.0
C2287 C 0.54591 0.99754 0.07711 0.0
C2288 C 0.57918 0.02501 0.97856 0.0
C2289 C 0.57455 0.02864 0.92491 0.0
C2290 C 0.57378 0.01303 0.99788 0.0
C2291 C 0.56324 0.00458 0.96447 0.0
C2292 C 0.55861 0.0082 0.90968 0.0
C2293 C 0.56446 0.02019 0.88971 0.0
C2294 C 0.57924 0.00946 0.05479 0.0
C2295 C 0.5472 0.99952 0.87411 0.0
H2296 H 0.55383 0.96492 0.95378 0.0
H2297 H 0.53621 0.97421 0.10723 0.0
H2298 H 0.56522 0.9901 0.85522 0.0
H2299 H 0.57668 0.99406 0.91745 0.0
H2300 H 0.56891 0.97914 0.88359 0.0
H2301 H 0.539 0.99341 0.11756 0.0
H2302 H 0.55408 0.00483 0.10053 0.0
H2303 H 0.54281 0.00159 0.03805 0.0
H2304 H 0.58703 0.03157 0.00549 0.0
H2305 H 0.56083 0.02305 0.84872 0.0
H2306 H 0.58039 0.00194 0.03799 0.0
H2307 H 0.57324 0.0064 0.09987 0.0
H2308 H 0.588 0.01691 0.07113 0.0
H2309 H 0.54795 0.99202 0.85261 0.0
H2310 H 0.54486 0.00373 0.83199 0.0
H2311 H 0.53982 0.99572 0.9118 0.0
C2312 C 0.97886 0.5444 0.89987 0.0
C2313 C 0.97055 0.54638 0.93424 0.0
C2314 C 0.99088 0.55052 0.91916 0.0
C2315 C 0.99467 0.55906 0.97246 0.0
C2316 C 0.98639 0.56154 0.00457 0.0
C2317 C 0.97438 0.555 0.98591 0.0
C2318 C 0.99939 0.54742 0.88492 0.0
C2319 C 0.99014 0.57087 0.05987 0.0
C2320 C 0.02212 0.5658 0.07575 0.0
C2321 C 0.03092 0.57591 0.04227 0.0
C2322 C 0.01029 0.56016 0.05302 0.0
C2323 C 0.00717 0.56499 0.99701 0.0
C2324 C 0.01598 0.57545 0.96459 0.0
C2325 C 0.0278 0.58066 0.98687 0.0
C2326 C 0.0012 0.54886 0.08786 0.0
C2327 C 0.01293 0.58111 0.90637 0.0
H2328 H 0.97584 0.53762 0.86047 0.0
H2329 H 0.96793 0.55655 0.01225 0.0
H2330 H 0.00707 0.5555 0.86339 0.0
H2331 H 0.00293 0.54371 0.92348 0.0
H2332 H 0.99511 0.54082 0.84307 0.0
H2333 H 0.98286 0.57256 0.07458 0.0
H2334 H 0.99297 0.56798 0.10616 0.0
H2335 H 0.99786 0.57934 0.04237 0.0
H2336 H 0.02456 0.56206 0.1181 0.0
H2337 H 0.03462 0.58853 0.9612 0.0
H2338 H 0.99703 0.54157 0.04968 0.0
H2339 H 0.99403 0.55006 0.11011 0.0
H2340 H 0.00514 0.54608 0.12939 0.0
H2341 H 0.0095 0.57494 0.86211 0.0
H2342 H 0.02071 0.58957 0.88912 0.0
H2343 H 0.00578 0.5829 0.92243 0.0
C2344 C 0.4466 0.41919 0.01568 0.0
C2345 C 0.45516 0.42422 0.96377 0.0
C2346 C 0.44009 0.42459 0.03653 0.0
C2347 C 0.44253 0.43549 0.00649 0.0
C2348 C 0.45118 0.4406 0.95395 0.0
C2349 C 0.45725 0.43477 0.93234 0.0
C2350 C 0.43064 0.41865 0.09087 0.0
C2351 C 0.45427 0.45238 0.922 0.0
C2352 C 0.4204 0.4464 0.01615 0.0
C2353 C 0.42473 0.4542 0.07209 0.0
C2354 C 0.42586 0.43993 0.99574 0.0
C2355 C 0.43616 0.44165 0.03057 0.0
C2356 C 0.44052 0.44948 0.08745 0.0
C2357 C 0.43461 0.45551 0.10831 0.0
C2358 C 0.4207 0.43136 0.93646 0.0
C2359 C 0.45166 0.4518 0.12469 0.0
H2360 H 0.44494 0.41098 0.03969 0.0
H2361 H 0.46397 0.43871 0.89271 0.0
H2362 H 0.43311 0.42434 0.13724 0.0
H2363 H 0.42207 0.41751 0.07207 0.0
H2364 H 0.42931 0.40982 0.10582 0.0
H2365 H 0.46136 0.45524 0.88266 0.0
H2366 H 0.4463 0.45182 0.89768 0.0
H2367 H 0.4573 0.45932 0.96233 0.0
H2368 H 0.41271 0.44536 0.98838 0.0
H2369 H 0.43802 0.46165 0.15109 0.0
H2370 H 0.41921 0.4225 0.95169 0.0
H2371 H 0.42704 0.43449 0.89297 0.0
H2372 H 0.41215 0.43038 0.91838 0.0
H2373 H 0.45061 0.44338 0.14533 0.0
H2374 H 0.4539 0.45817 0.16772 0.0
H2375 H 0.45924 0.45542 0.08833 0.0
C2376 C 0.18546 0.41501 0.25158 0.0
C2377 C 0.17557 0.40556 0.22005 0.0
C2378 C 0.19671 0.41601 0.24722 0.0
C2379 C 0.19793 0.40708 0.21281 0.0
C2380 C 0.18799 0.39765 0.17974 0.0
C2381 C 0.17697 0.39713 0.1828 0.0
C2382 C 0.2072 0.42641 0.28097 0.0
C2383 C 0.18883 0.38777 0.14419 0.0
C2384 C 0.22753 0.41019 0.16143 0.0
C2385 C 0.22962 0.40449 0.21617 0.0
C2386 C 0.21756 0.4117 0.1613 0.0
C2387 C 0.2093 0.40699 0.21593 0.0
C2388 C 0.2115 0.4014 0.2718 0.0
C2389 C 0.22174 0.4004 0.27175 0.0
C2390 C 0.21573 0.41808 0.10207 0.0
C2391 C 0.20275 0.39596 0.33011 0.0
H2392 H 0.1844 0.42159 0.27992 0.0
H2393 H 0.1693 0.38976 0.15882 0.0
H2394 H 0.21 0.42332 0.32649 0.0
H2395 H 0.21486 0.4305 0.24519 0.0
H2396 H 0.2051 0.43333 0.29773 0.0
H2397 H 0.18034 0.38126 0.11945 0.0
H2398 H 0.19588 0.39147 0.10453 0.0
H2399 H 0.19131 0.383 0.18198 0.0
H2400 H 0.23368 0.41344 0.11866 0.0
H2401 H 0.2233 0.3959 0.31385 0.0
H2402 H 0.21374 0.42493 0.12137 0.0
H2403 H 0.20799 0.4117 0.07112 0.0
H2404 H 0.22362 0.42242 0.06802 0.0
H2405 H 0.20113 0.40273 0.35436 0.0
H2406 H 0.20589 0.39209 0.37017 0.0
H2407 H 0.19411 0.38883 0.31005 0.0
C2408 C 0.60293 0.7794 0.17561 0.0
C2409 C 0.59499 0.76932 0.21293 0.0
C2410 C 0.60199 0.78968 0.17637 0.0
C2411 C 0.59261 0.78969 0.2132 0.0
C2412 C 0.58417 0.77928 0.24785 0.0
C2413 C 0.58562 0.76928 0.24858 0.0
C2414 C 0.6114 0.8007 0.14064 0.0
C2415 C 0.57378 0.77881 0.2853 0.0
C2416 C 0.59864 0.81973 0.27687 0.0
C2417 C 0.59411 0.82342 0.22303 0.0
C2418 C 0.59795 0.80863 0.27506 0.0
C2419 C 0.59221 0.80088 0.21923 0.0
C2420 C 0.58699 0.80429 0.16676 0.0
C2421 C 0.58822 0.81565 0.16856 0.0
C2422 C 0.60395 0.80549 0.33094 0.0
C2423 C 0.58041 0.79608 0.10782 0.0
H2424 H 0.61024 0.77945 0.14858 0.0
H2425 H 0.57944 0.76143 0.27705 0.0
H2426 H 0.60725 0.80386 0.10264 0.0
H2427 H 0.6161 0.80793 0.17867 0.0
H2428 H 0.61805 0.79917 0.11382 0.0
H2429 H 0.56725 0.76966 0.3021 0.0
H2430 H 0.57699 0.78461 0.33121 0.0
H2431 H 0.5692 0.78219 0.25195 0.0
H2432 H 0.60329 0.8258 0.3187 0.0
H2433 H 0.58464 0.81849 0.12716 0.0
H2434 H 0.6112 0.80441 0.30846 0.0
H2435 H 0.59756 0.79691 0.35496 0.0
H2436 H 0.60778 0.81238 0.37161 0.0
H2437 H 0.58678 0.79519 0.07403 0.0
H2438 H 0.57553 0.7994 0.07655 0.0
H2439 H 0.574 0.78708 0.1272 0.0
C2440 C 0.22173 0.81988 0.26899 0.0
C2441 C 0.22999 0.82397 0.21536 0.0
C2442 C 0.21131 0.80882 0.26496 0.0
C2443 C 0.20937 0.80148 0.20712 0.0
C2444 C 0.21804 0.80531 0.15457 0.0
C2445 C 0.22815 0.81667 0.15852 0.0
C2446 C 0.20211 0.80529 0.32088 0.0
C2447 C 0.21652 0.79752 0.09361 0.0
C2448 C 0.18438 0.76979 0.23336 0.0
C2449 C 0.17504 0.77 0.19902 0.0
C2450 C 0.19587 0.77976 0.23259 0.0
C2451 C 0.19783 0.79029 0.19957 0.0
C2452 C 0.1884 0.79044 0.16401 0.0
C2453 C 0.17717 0.78019 0.16297 0.0
C2454 C 0.20581 0.7791 0.26844 0.0
C2455 C 0.18999 0.80161 0.13036 0.0
H2456 H 0.22312 0.82562 0.31256 0.0
H2457 H 0.2346 0.81985 0.11727 0.0
H2458 H 0.19373 0.80416 0.29882 0.0
H2459 H 0.20006 0.79666 0.34352 0.0
H2460 H 0.20505 0.812 0.36259 0.0
H2461 H 0.22476 0.80107 0.0625 0.0
H2462 H 0.21394 0.7884 0.11079 0.0
H2463 H 0.20929 0.79682 0.06028 0.0
H2464 H 0.1827 0.76184 0.26076 0.0
H2465 H 0.16988 0.78034 0.13691 0.0
H2466 H 0.20833 0.78455 0.3158 0.0
H2467 H 0.2138 0.78278 0.23511 0.0
H2468 H 0.20325 0.76985 0.2827 0.0
H2469 H 0.19247 0.80864 0.16964 0.0
H2470 H 0.18179 0.80017 0.104 0.0
H2471 H 0.1973 0.80497 0.09236 0.0
C2472 C 0.41386 0.1844 0.76415 0.0
C2473 C 0.40423 0.17514 0.79858 0.0
C2474 C 0.41542 0.1959 0.76356 0.0
C2475 C 0.40683 0.19797 0.79535 0.0
C2476 C 0.39716 0.18864 0.83086 0.0
C2477 C 0.39613 0.17739 0.83323 0.0
C2478 C 0.4261 0.20575 0.72775 0.0
C2479 C 0.38757 0.19035 0.86331 0.0
C2480 C 0.41082 0.22834 0.83535 0.0
C2481 C 0.40537 0.23015 0.77837 0.0
C2482 C 0.4121 0.21824 0.83956 0.0
C2483 C 0.4073 0.20957 0.78705 0.0
C2484 C 0.40199 0.21151 0.72883 0.0
C2485 C 0.40131 0.22191 0.72462 0.0
C2486 C 0.41827 0.21671 0.90097 0.0
C2487 C 0.39639 0.2023 0.67285 0.0
H2488 H 0.42017 0.18264 0.73784 0.0
H2489 H 0.38863 0.17018 0.85936 0.0
H2490 H 0.42327 0.20828 0.68007 0.0
H2491 H 0.43043 0.21376 0.76087 0.0
H2492 H 0.43274 0.20309 0.71405 0.0
H2493 H 0.38069 0.18219 0.88936 0.0
H2494 H 0.39148 0.19766 0.90135 0.0
H2495 H 0.38318 0.19291 0.8234 0.0
H2496 H 0.41404 0.23479 0.87665 0.0
H2497 H 0.39698 0.22328 0.68086 0.0
H2498 H 0.42476 0.21404 0.88436 0.0
H2499 H 0.41167 0.20955 0.93437 0.0
H2500 H 0.42298 0.22498 0.93184 0.0
H2501 H 0.40296 0.20012 0.65133 0.0
H2502 H 0.39283 0.20531 0.63038 0.0
H2503 H 0.389 0.19399 0.69457 0.0
C2504 C 0.76903 0.18563 0.76704 0.0
C2505 C 0.76921 0.1763 0.80191 0.0
C2506 C 0.77915 0.19699 0.76514 0.0
C2507 C 0.78978 0.19888 0.79638 0.0
C2508 C 0.78988 0.18955 0.83341 0.0
C2509 C 0.77951 0.17842 0.83676 0.0
C2510 C 0.77857 0.20684 0.72758 0.0
C2511 C 0.80112 0.19109 0.86575 0.0
C2512 C 0.81912 0.22178 0.71868 0.0
C2513 C 0.82364 0.23052 0.76971 0.0
C2514 C 0.80801 0.21151 0.72631 0.0
C2515 C 0.80108 0.21019 0.78525 0.0
C2516 C 0.80534 0.21932 0.83516 0.0
C2517 C 0.8167 0.22929 0.82748 0.0
C2518 C 0.80395 0.20183 0.67291 0.0
C2519 C 0.79801 0.21843 0.89725 0.0
H2520 H 0.76103 0.18399 0.74049 0.0
H2521 H 0.77969 0.17118 0.86324 0.0
H2522 H 0.78271 0.2151 0.75871 0.0
H2523 H 0.78363 0.20882 0.67893 0.0
H2524 H 0.76929 0.20445 0.71529 0.0
H2525 H 0.79958 0.1831 0.89488 0.0
H2526 H 0.80781 0.19289 0.82521 0.0
H2527 H 0.80499 0.19882 0.90097 0.0
H2528 H 0.82455 0.2227 0.67433 0.0
H2529 H 0.82019 0.23612 0.86669 0.0
H2530 H 0.79523 0.1998 0.65162 0.0
H2531 H 0.80277 0.19357 0.69694 0.0
H2532 H 0.81037 0.2043 0.62995 0.0
H2533 H 0.78887 0.21604 0.88153 0.0
H2534 H 0.80197 0.22687 0.9267 0.0
H2535 H 0.79725 0.2113 0.9317 0.0
C2536 C 0.81476 0.58381 0.77434 0.0
C2537 C 0.82389 0.5935 0.80919 0.0
C2538 C 0.80324 0.58217 0.7722 0.0
C2539 C 0.801 0.59074 0.8029 0.0
C2540 C 0.81017 0.6004 0.83933 0.0
C2541 C 0.82144 0.60152 0.84318 0.0
C2542 C 0.79356 0.57149 0.73545 0.0
C2543 C 0.80828 0.60995 0.87081 0.0
C2544 C 0.77752 0.59638 0.72631 0.0
C2545 C 0.76901 0.59232 0.77858 0.0
C2546 C 0.78786 0.59564 0.73288 0.0
C2547 C 0.78947 0.59028 0.79201 0.0
C2548 C 0.78051 0.58547 0.84293 0.0
C2549 C 0.77048 0.58679 0.83636 0.0
C2550 C 0.79736 0.60125 0.67847 0.0
C2551 C 0.78169 0.57923 0.9052 0.0
H2552 H 0.81666 0.57756 0.74848 0.0
H2553 H 0.82854 0.60908 0.86963 0.0
H2554 H 0.78535 0.56722 0.7669 0.0
H2555 H 0.79138 0.57431 0.68654 0.0
H2556 H 0.79625 0.5648 0.72374 0.0
H2557 H 0.81627 0.61677 0.89844 0.0
H2558 H 0.806 0.61444 0.83002 0.0
H2559 H 0.80073 0.60599 0.90725 0.0
H2560 H 0.77641 0.60076 0.68194 0.0
H2561 H 0.76382 0.58358 0.87652 0.0
H2562 H 0.79962 0.59466 0.65802 0.0
H2563 H 0.80558 0.6086 0.70135 0.0
H2564 H 0.7946 0.60486 0.63504 0.0
H2565 H 0.78446 0.57276 0.88982 0.0
H2566 H 0.77324 0.57449 0.93446 0.0
H2567 H 0.78864 0.58581 0.93973 0.0
C2568 C 0.88908 0.73521 0.62054 0.0
C2569 C 0.89734 0.73922 0.56693 0.0
C2570 C 0.87882 0.73615 0.61651 0.0
C2571 C 0.87704 0.74166 0.55861 0.0
C2572 C 0.88573 0.74636 0.50617 0.0
C2573 C 0.89568 0.74484 0.51024 0.0
C2574 C 0.8696 0.73069 0.67249 0.0
C2575 C 0.88437 0.75271 0.44507 0.0
C2576 C 0.84498 0.73144 0.51442 0.0
C2577 C 0.8431 0.73972 0.54996 0.0
C2578 C 0.85608 0.73213 0.51553 0.0
C2579 C 0.86564 0.74161 0.55085 0.0
C2580 C 0.86398 0.75043 0.58311 0.0
C2581 C 0.85263 0.74924 0.58358 0.0
C2582 C 0.85738 0.72234 0.48232 0.0
C2583 C 0.87408 0.76092 0.61882 0.0
H2584 H 0.89033 0.73077 0.6641 0.0
H2585 H 0.90214 0.74802 0.46902 0.0
H2586 H 0.86772 0.73743 0.69467 0.0
H2587 H 0.86116 0.72352 0.65062 0.0
H2588 H 0.87243 0.72688 0.71449 0.0
H2589 H 0.89261 0.75719 0.41375 0.0
H2590 H 0.87703 0.74627 0.41198 0.0
H2591 H 0.88204 0.75943 0.46213 0.0
H2592 H 0.83757 0.72402 0.48894 0.0
H2593 H 0.85118 0.75568 0.61067 0.0
H2594 H 0.85961 0.71764 0.52194 0.0
H2595 H 0.86475 0.72611 0.4447 0.0
H2596 H 0.84914 0.71575 0.45563 0.0
H2597 H 0.87643 0.75791 0.66648 0.0
H2598 H 0.87176 0.7678 0.63257 0.0
H2599 H 0.88209 0.765 0.58567 0.0
C2600 C 0.25022 0.14714 0.57639 0.0
C2601 C 0.25989 0.1568 0.54463 0.0
C2602 C 0.24912 0.13584 0.57596 0.0
C2603 C 0.25816 0.13432 0.54549 0.0
C2604 C 0.2678 0.14401 0.51199 0.0
C2605 C 0.26843 0.1551 0.51093 0.0
C2606 C 0.23849 0.12561 0.60989 0.0
C2607 C 0.27781 0.14286 0.48066 0.0
C2608 C 0.26404 0.11066 0.61746 0.0
C2609 C 0.26014 0.1024 0.56385 0.0
C2610 C 0.26329 0.12102 0.61245 0.0
C2611 C 0.25812 0.12293 0.5534 0.0
C2612 C 0.25361 0.1143 0.50061 0.0
C2613 C 0.25489 0.10422 0.50585 0.0
C2614 C 0.26852 0.13017 0.66896 0.0
C2615 C 0.24764 0.11582 0.43813 0.0
H2616 H 0.24357 0.14846 0.60205 0.0
H2617 H 0.27597 0.1626 0.48689 0.0
H2618 H 0.23457 0.11771 0.57587 0.0
H2619 H 0.24129 0.12311 0.65781 0.0
H2620 H 0.23153 0.12787 0.62284 0.0
H2621 H 0.28447 0.15116 0.45476 0.0
H2622 H 0.28237 0.14065 0.52127 0.0
H2623 H 0.27428 0.13552 0.44279 0.0
H2624 H 0.2682 0.1093 0.66202 0.0
H2625 H 0.2518 0.09777 0.46459 0.0
H2626 H 0.26169 0.13201 0.69005 0.0
H2627 H 0.27578 0.13865 0.64795 0.0
H2628 H 0.27216 0.12728 0.71161 0.0
H2629 H 0.24073 0.11798 0.45374 0.0
H2630 H 0.24346 0.10771 0.40561 0.0
H2631 H 0.25426 0.12333 0.40673 0.0
C2632 C 0.89654 0.14855 0.56911 0.0
C2633 C 0.89611 0.15788 0.53588 0.0
C2634 C 0.8866 0.13705 0.56935 0.0
C2635 C 0.87589 0.13504 0.53852 0.0
C2636 C 0.87551 0.14444 0.5041 0.0
C2637 C 0.88572 0.15569 0.50199 0.0
C2638 C 0.88748 0.12713 0.60393 0.0
C2639 C 0.86416 0.1428 0.47276 0.0
C2640 C 0.84938 0.10471 0.49936 0.0
C2641 C 0.84229 0.10285 0.55729 0.0
C2642 C 0.86073 0.11481 0.4944 0.0
C2643 C 0.86477 0.12346 0.54716 0.0
C2644 C 0.85768 0.12148 0.60622 0.0
C2645 C 0.84662 0.11108 0.61112 0.0
C2646 C 0.86825 0.11638 0.43206 0.0
C2647 C 0.86145 0.13066 0.6625 0.0
H2648 H 0.90464 0.15027 0.59484 0.0
H2649 H 0.88539 0.16296 0.47682 0.0
H2650 H 0.88226 0.12458 0.65213 0.0
H2651 H 0.88369 0.11916 0.57049 0.0
H2652 H 0.89681 0.12975 0.61653 0.0
H2653 H 0.86542 0.15098 0.44716 0.0
H2654 H 0.86065 0.1355 0.43459 0.0
H2655 H 0.8573 0.14025 0.51326 0.0
H2656 H 0.84602 0.09829 0.45795 0.0
H2657 H 0.84107 0.10968 0.65558 0.0
H2658 H 0.87746 0.11902 0.44762 0.0
H2659 H 0.86874 0.12357 0.39928 0.0
H2660 H 0.8646 0.10813 0.4009 0.0
H2661 H 0.87022 0.13277 0.68327 0.0
H2662 H 0.85496 0.12766 0.70542 0.0
H2663 H 0.86239 0.13902 0.64132 0.0
C2664 C 0.0694 0.55531 0.04988 0.0
C2665 C 0.07313 0.56318 0.10544 0.0
C2666 C 0.06994 0.54482 0.05276 0.0
C2667 C 0.07472 0.54238 0.11169 0.0
C2668 C 0.07913 0.55065 0.16638 0.0
C2669 C 0.07806 0.56086 0.1632 0.0
C2670 C 0.06482 0.53607 0.99421 0.0
C2671 C 0.0847 0.54856 0.22884 0.0
C2672 C 0.06341 0.50983 0.14827 0.0
C2673 C 0.07193 0.50803 0.11498 0.0
C2674 C 0.06436 0.52105 0.14888 0.0
C2675 C 0.0743 0.53078 0.11761 0.0
C2676 C 0.08328 0.52914 0.08749 0.0
C2677 C 0.08187 0.5177 0.08525 0.0
C2678 C 0.0544 0.52234 0.17968 0.0
C2679 C 0.09422 0.53938 0.056 0.0
H2680 H 0.06548 0.55705 0.0055 0.0
H2681 H 0.08102 0.56702 0.20596 0.0
H2682 H 0.07159 0.53409 0.97355 0.0
H2683 H 0.05729 0.52758 0.01306 0.0
H2684 H 0.06159 0.53941 0.9517 0.0
H2685 H 0.08898 0.55649 0.2627 0.0
H2686 H 0.07782 0.54101 0.25885 0.0
H2687 H 0.09145 0.54618 0.21323 0.0
H2688 H 0.05567 0.50231 0.17074 0.0
H2689 H 0.0885 0.51631 0.05996 0.0
H2690 H 0.05022 0.52504 0.13925 0.0
H2691 H 0.05792 0.5294 0.21929 0.0
H2692 H 0.04744 0.51396 0.2034 0.0
H2693 H 0.09176 0.54231 0.00843 0.0
H2694 H 0.10105 0.53694 0.04301 0.0
H2695 H 0.09817 0.54706 0.09165 0.0
C2696 C 0.43709 0.51802 0.0819 0.0
C2697 C 0.43659 0.50929 0.12616 0.0
C2698 C 0.44715 0.52944 0.08028 0.0
C2699 C 0.45706 0.53197 0.12192 0.0
C2700 C 0.45644 0.52326 0.16803 0.0
C2701 C 0.44612 0.51209 0.17042 0.0
C2702 C 0.44732 0.53864 0.03245 0.0
C2703 C 0.46694 0.52547 0.21182 0.0
C2704 C 0.48773 0.55426 0.05703 0.0
C2705 C 0.49112 0.56362 0.10345 0.0
C2706 C 0.47659 0.54396 0.06203 0.0
C2707 C 0.46848 0.54324 0.11292 0.0
C2708 C 0.47165 0.55296 0.15766 0.0
C2709 C 0.48309 0.56295 0.15347 0.0
C2710 C 0.47373 0.53364 0.01495 0.0
C2711 C 0.46307 0.55271 0.21061 0.0
H2712 H 0.42967 0.51589 0.04809 0.0
H2713 H 0.44578 0.50532 0.20436 0.0
H2714 H 0.45067 0.54725 0.05949 0.0
H2715 H 0.45342 0.54015 0.98904 0.0
H2716 H 0.43837 0.53588 0.01132 0.0
H2717 H 0.46485 0.51792 0.24673 0.0
H2718 H 0.47446 0.52694 0.17834 0.0
H2719 H 0.46997 0.5336 0.24312 0.0
H2720 H 0.49404 0.55477 0.01885 0.0
H2721 H 0.48575 0.57026 0.18908 0.0
H2722 H 0.46554 0.53119 0.98537 0.0
H2723 H 0.47204 0.52576 0.04577 0.0
H2724 H 0.48104 0.53565 0.97826 0.0
H2725 H 0.45432 0.54995 0.18663 0.0
H2726 H 0.46636 0.5615 0.23547 0.0
H2727 H 0.46162 0.5461 0.2509 0.0
C2728 C 0.48561 0.92884 0.0447 0.0
C2729 C 0.48987 0.92497 0.09895 0.0
C2730 C 0.47449 0.92808 0.0487 0.0
C2731 C 0.46729 0.92289 0.1073 0.0
C2732 C 0.47125 0.91827 0.16034 0.0
C2733 C 0.48265 0.91962 0.15625 0.0
C2734 C 0.47077 0.93346 0.99205 0.0
C2735 C 0.46363 0.91224 0.22223 0.0
C2736 C 0.4462 0.93408 0.15057 0.0
C2737 C 0.43588 0.92588 0.11603 0.0
C2738 C 0.45642 0.93305 0.14948 0.0
C2739 C 0.45613 0.92329 0.11529 0.0
C2740 C 0.44548 0.91456 0.08408 0.0
C2741 C 0.43553 0.9161 0.08345 0.0
C2742 C 0.4677 0.94276 0.18144 0.0
C2743 C 0.44469 0.90379 0.04971 0.0
H2744 H 0.49126 0.9331 0.00071 0.0
H2745 H 0.48594 0.91655 0.198 0.0
H2746 H 0.46202 0.92678 0.97103 0.0
H2747 H 0.46979 0.94086 0.01295 0.0
H2748 H 0.4773 0.93694 0.94937 0.0
H2749 H 0.46724 0.90763 0.25355 0.0
H2750 H 0.46308 0.91892 0.25503 0.0
H2751 H 0.45445 0.90568 0.20616 0.0
H2752 H 0.44649 0.9417 0.17524 0.0
H2753 H 0.4275 0.90972 0.05718 0.0
H2754 H 0.4746 0.94715 0.14127 0.0
H2755 H 0.47119 0.93897 0.21965 0.0
H2756 H 0.46635 0.94962 0.20716 0.0
H2757 H 0.44994 0.90648 0.00161 0.0
H2758 H 0.43539 0.89703 0.03697 0.0
H2759 H 0.44851 0.89965 0.08333 0.0
C2760 C 0.56334 0.08172 0.90513 0.0
C2761 C 0.56286 0.07217 0.8692 0.0
C2762 C 0.55352 0.08348 0.90606 0.0
C2763 C 0.54286 0.07515 0.87312 0.0
C2764 C 0.54247 0.06562 0.8356 0.0
C2765 C 0.55258 0.06441 0.83292 0.0
C2766 C 0.55445 0.09404 0.94395 0.0
C2767 C 0.53116 0.05629 0.80182 0.0
C2768 C 0.51361 0.0695 0.9477 0.0
C2769 C 0.50942 0.07392 0.89597 0.0
C2770 C 0.52461 0.07006 0.94142 0.0
C2771 C 0.53178 0.07562 0.88327 0.0
C2772 C 0.52789 0.08076 0.83285 0.0
C2773 C 0.51659 0.07959 0.83899 0.0
C2774 C 0.52822 0.06409 0.99514 0.0
C2775 C 0.53552 0.08721 0.77171 0.0
H2776 H 0.57136 0.08778 0.9327 0.0
H2777 H 0.55222 0.05697 0.80561 0.0
H2778 H 0.55071 0.0985 0.9125 0.0
H2779 H 0.54921 0.09103 0.99201 0.0
H2780 H 0.56378 0.10061 0.95734 0.0
H2781 H 0.53244 0.04962 0.7733 0.0
H2782 H 0.52422 0.05161 0.84141 0.0
H2783 H 0.52777 0.06049 0.76573 0.0
H2784 H 0.50797 0.06499 0.99136 0.0
H2785 H 0.51334 0.08306 0.79917 0.0
H2786 H 0.53695 0.07054 0.01742 0.0
H2787 H 0.52919 0.05689 0.97111 0.0
H2788 H 0.52164 0.06022 0.03741 0.0
H2789 H 0.54474 0.09354 0.7883 0.0
H2790 H 0.532 0.09216 0.74288 0.0
H2791 H 0.53595 0.08075 0.73638 0.0
C2792 C 0.91784 0.43597 0.9026 0.0
C2793 C 0.92715 0.43586 0.86701 0.0
C2794 C 0.91667 0.44613 0.9029 0.0
C2795 C 0.9253 0.45654 0.86917 0.0
C2796 C 0.93452 0.45634 0.83147 0.0
C2797 C 0.9352 0.44592 0.82984 0.0
C2798 C 0.90647 0.44587 0.94135 0.0
C2799 C 0.94409 0.46734 0.79644 0.0
C2800 C 0.92161 0.48324 0.8341 0.0
C2801 C 0.92758 0.49053 0.89023 0.0
C2802 C 0.92024 0.47186 0.82823 0.0
C2803 C 0.92539 0.46793 0.87829 0.0
C2804 C 0.93128 0.47522 0.93557 0.0
C2805 C 0.93211 0.48636 0.94144 0.0
C2806 C 0.91351 0.46415 0.76787 0.0
C2807 C 0.93718 0.4715 0.98907 0.0
H2808 H 0.91157 0.42815 0.93094 0.0
H2809 H 0.94246 0.44586 0.80281 0.0
H2810 H 0.90982 0.45128 0.98864 0.0
H2811 H 0.9022 0.44978 0.90969 0.0
H2812 H 0.89964 0.43669 0.95614 0.0
H2813 H 0.95036 0.46557 0.767 0.0
H2814 H 0.94009 0.47103 0.76097 0.0
H2815 H 0.94921 0.47427 0.83542 0.0
H2816 H 0.91803 0.48646 0.79471 0.0
H2817 H 0.93683 0.49205 0.9845 0.0
H2818 H 0.90681 0.45514 0.78566 0.0
H2819 H 0.91971 0.46313 0.73328 0.0
H2820 H 0.90893 0.46795 0.73791 0.0
H2821 H 0.9306 0.46293 0.01247 0.0
H2822 H 0.94137 0.4782 0.03053 0.0
H2823 H 0.94412 0.47015 0.96459 0.0
C2824 C 0.51385 0.44353 0.96042 0.0
C2825 C 0.50984 0.43518 0.90728 0.0
C2826 C 0.52498 0.4539 0.95664 0.0
C2827 C 0.53243 0.45568 0.89958 0.0
C2828 C 0.52874 0.44684 0.84814 0.0
C2829 C 0.51735 0.43679 0.85181 0.0
C2830 C 0.52839 0.46327 0.01143 0.0
C2831 C 0.53664 0.44819 0.78806 0.0
C2832 C 0.55324 0.48767 0.84903 0.0
C2833 C 0.5636 0.4902 0.88452 0.0
C2834 C 0.54309 0.4764 0.8527 0.0
C2835 C 0.54348 0.46731 0.89058 0.0
C2836 C 0.55415 0.46963 0.92329 0.0
C2837 C 0.56404 0.48116 0.92118 0.0
C2838 C 0.53178 0.47441 0.81891 0.0
C2839 C 0.55505 0.46003 0.9617 0.0
H2840 H 0.50798 0.44231 0.003 0.0
H2841 H 0.51425 0.43026 0.81097 0.0
H2842 H 0.53718 0.4657 0.03346 0.0
H2843 H 0.52916 0.47143 0.98837 0.0
H2844 H 0.52179 0.4603 0.0537 0.0
H2845 H 0.53327 0.43979 0.75874 0.0
H2846 H 0.53715 0.45513 0.75283 0.0
H2847 H 0.5458 0.45109 0.80585 0.0
H2848 H 0.55287 0.49471 0.82122 0.0
H2849 H 0.5721 0.48312 0.94827 0.0
H2850 H 0.52475 0.47193 0.85825 0.0
H2851 H 0.52853 0.46696 0.78188 0.0
H2852 H 0.53299 0.48242 0.79134 0.0
H2853 H 0.54963 0.45771 0.00911 0.0
H2854 H 0.56435 0.46284 0.9762 0.0
H2855 H 0.55147 0.45186 0.93004 0.0
C2856 C 0.7464 0.89618 0.48958 0.0
C2857 C 0.7409 0.89784 0.43233 0.0
C2858 C 0.74766 0.88609 0.49497 0.0
C2859 C 0.74278 0.87725 0.44337 0.0
C2860 C 0.73745 0.87905 0.38471 0.0
C2861 C 0.73679 0.88946 0.37931 0.0
C2862 C 0.75384 0.88471 0.55681 0.0
C2863 C 0.73179 0.86968 0.32964 0.0
C2864 C 0.74923 0.85194 0.42458 0.0
C2865 C 0.73958 0.84281 0.45968 0.0
C2866 C 0.75082 0.86345 0.42234 0.0
C2867 C 0.74225 0.86566 0.4532 0.0
C2868 C 0.7326 0.85647 0.48961 0.0
C2869 C 0.73153 0.84521 0.49356 0.0
C2870 C 0.76149 0.87314 0.38564 0.0
C2871 C 0.72305 0.85834 0.5213 0.0
H2872 H 0.74964 0.90272 0.53038 0.0
H2873 H 0.73241 0.8907 0.3354 0.0
H2874 H 0.74723 0.87771 0.59101 0.0
H2875 H 0.76025 0.88188 0.54087 0.0
H2876 H 0.75866 0.89309 0.58664 0.0
H2877 H 0.72829 0.87261 0.2865 0.0
H2878 H 0.7383 0.86735 0.30894 0.0
H2879 H 0.72435 0.86148 0.35201 0.0
H2880 H 0.7555 0.85006 0.39877 0.0
H2881 H 0.724 0.8381 0.52015 0.0
H2882 H 0.76586 0.88128 0.41776 0.0
H2883 H 0.75864 0.87549 0.33741 0.0
H2884 H 0.7681 0.87041 0.37277 0.0
H2885 H 0.72701 0.86578 0.55844 0.0
H2886 H 0.71618 0.85029 0.54823 0.0
H2887 H 0.71865 0.86076 0.4808 0.0
C2888 C 0.10428 0.84975 0.48705 0.0
C2889 C 0.10252 0.84263 0.42937 0.0
C2890 C 0.11434 0.86113 0.49216 0.0
C2891 C 0.12303 0.86519 0.43969 0.0
C2892 C 0.12116 0.85806 0.38089 0.0
C2893 C 0.1108 0.84696 0.37589 0.0
C2894 C 0.11579 0.86867 0.55423 0.0
C2895 C 0.13037 0.8619 0.3248 0.0
C2896 C 0.14744 0.89719 0.41611 0.0
C2897 C 0.15701 0.89712 0.44865 0.0
C2898 C 0.13608 0.88706 0.41663 0.0
C2899 C 0.13444 0.8765 0.44785 0.0
C2900 C 0.14404 0.87651 0.48224 0.0
C2901 C 0.15517 0.8869 0.48332 0.0
C2902 C 0.12595 0.88753 0.38194 0.0
C2903 C 0.14276 0.86535 0.51432 0.0
H2904 H 0.09781 0.84641 0.52821 0.0
H2905 H 0.10947 0.84138 0.33159 0.0
H2906 H 0.12317 0.86947 0.58658 0.0
H2907 H 0.11811 0.87777 0.53823 0.0
H2908 H 0.1076 0.86485 0.58596 0.0
H2909 H 0.12752 0.85534 0.28235 0.0
H2910 H 0.13227 0.87057 0.3033 0.0
H2911 H 0.13881 0.86311 0.34634 0.0
H2912 H 0.14888 0.90514 0.38969 0.0
H2913 H 0.16261 0.88683 0.50792 0.0
H2914 H 0.11798 0.88357 0.41543 0.0
H2915 H 0.12353 0.88226 0.33394 0.0
H2916 H 0.12828 0.89677 0.36895 0.0
H2917 H 0.13537 0.86163 0.55188 0.0
H2918 H 0.151 0.86694 0.54077 0.0
H2919 H 0.14055 0.85852 0.47404 0.0
C2920 C 0.14969 0.25394 0.49431 0.0
C2921 C 0.15625 0.25903 0.4345 0.0
C2922 C 0.13848 0.25287 0.50361 0.0
C2923 C 0.13405 0.25749 0.45323 0.0
C2924 C 0.14061 0.26249 0.39231 0.0
C2925 C 0.15153 0.26298 0.38314 0.0
C2926 C 0.13151 0.24703 0.56784 0.0
C2927 C 0.13639 0.26786 0.33829 0.0
C2928 C 0.10219 0.25076 0.43952 0.0
C2929 C 0.10286 0.26065 0.47257 0.0
C2930 C 0.11208 0.24914 0.43715 0.0
C2931 C 0.12299 0.25791 0.46569 0.0
C2932 C 0.12359 0.26774 0.50077 0.0
C2933 C 0.11343 0.26886 0.50495 0.0
C2934 C 0.11096 0.23829 0.40198 0.0
C2935 C 0.13514 0.27749 0.52991 0.0
H2936 H 0.15334 0.25082 0.53383 0.0
H2937 H 0.15668 0.26703 0.3372 0.0
H2938 H 0.13125 0.2538 0.60127 0.0
H2939 H 0.1222 0.24039 0.55471 0.0
H2940 H 0.13547 0.24256 0.59743 0.0
H2941 H 0.14254 0.27139 0.29389 0.0
H2942 H 0.12749 0.26114 0.31927 0.0
H2943 H 0.13553 0.27523 0.36101 0.0
H2944 H 0.09396 0.24438 0.41486 0.0
H2945 H 0.11395 0.27656 0.52991 0.0
H2946 H 0.11514 0.23426 0.43345 0.0
H2947 H 0.11568 0.24086 0.35209 0.0
H2948 H 0.10154 0.23148 0.39233 0.0
H2949 H 0.13905 0.27374 0.56558 0.0
H2950 H 0.134 0.28432 0.55771 0.0
H2951 H 0.14161 0.28192 0.48772 0.0
C2952 C 0.13642 0.3876 0.83635 0.0
C2953 C 0.13919 0.39628 0.88677 0.0
C2954 C 0.1393 0.39072 0.76732 0.0
C2955 C 0.1451 0.40284 0.74809 0.0
C2956 C 0.14785 0.41166 0.79858 0.0
C2957 C 0.14476 0.40826 0.86727 0.0
C2958 C 0.13612 0.38102 0.71492 0.0
C2959 C 0.154 0.42467 0.77996 0.0
C2960 C 0.16098 0.40907 0.57705 0.0
C2961 C 0.15245 0.40892 0.53235 0.0
C2962 C 0.15898 0.40777 0.64805 0.0
C2963 C 0.14816 0.40616 0.67486 0.0
C2964 C 0.1398 0.40665 0.63042 0.0
C2965 C 0.14208 0.4081 0.5597 0.0
C2966 C 0.1682 0.40749 0.69394 0.0
C2967 C 0.12813 0.40493 0.65696 0.0
H2968 H 0.13206 0.37831 0.85098 0.0
H2969 H 0.14647 0.415 0.90516 0.0
H2970 H 0.13026 0.38145 0.675 0.0
H2971 H 0.14427 0.38232 0.68886 0.0
H2972 H 0.13151 0.37202 0.73822 0.0
H2973 H 0.15589 0.43046 0.82562 0.0
H2974 H 0.16249 0.42726 0.75326 0.0
H2975 H 0.14838 0.42634 0.74399 0.0
H2976 H 0.16906 0.40981 0.55639 0.0
H2977 H 0.13545 0.40799 0.52557 0.0
H2978 H 0.16473 0.39838 0.71433 0.0
H2979 H 0.1701 0.41349 0.73848 0.0
H2980 H 0.17664 0.41016 0.66635 0.0
H2981 H 0.12253 0.39563 0.6748 0.0
H2982 H 0.12315 0.40675 0.61707 0.0
H2983 H 0.12961 0.4108 0.70154 0.0
C2984 C 0.59991 0.74301 0.54614 0.0
C2985 C 0.58868 0.73818 0.51564 0.0
C2986 C 0.60119 0.74324 0.61741 0.0
C2987 C 0.59095 0.73824 0.65944 0.0
C2988 C 0.57955 0.73331 0.6291 0.0
C2989 C 0.57855 0.73349 0.5573 0.0
C2990 C 0.61353 0.74882 0.64765 0.0
C2991 C 0.56844 0.72767 0.67235 0.0
C2992 C 0.59753 0.72975 0.83244 0.0
C2993 C 0.59953 0.73951 0.87251 0.0
C2994 C 0.59377 0.72875 0.76419 0.0
C2995 C 0.59237 0.73794 0.7349 0.0
C2996 C 0.59395 0.7476 0.77612 0.0
C2997 C 0.59741 0.74821 0.84489 0.0
C2998 C 0.59192 0.71817 0.72248 0.0
C2999 C 0.5928 0.75771 0.74645 0.0
H3000 H 0.60779 0.7468 0.51417 0.0
H3001 H 0.56986 0.72973 0.53372 0.0
H3002 H 0.61484 0.75575 0.68548 0.0
H3003 H 0.61467 0.74199 0.67526 0.0
H3004 H 0.62058 0.75293 0.60796 0.0
H3005 H 0.56026 0.72446 0.64102 0.0
H3006 H 0.56788 0.72004 0.70108 0.0
H3007 H 0.56875 0.73411 0.71076 0.0
H3008 H 0.59909 0.72298 0.85428 0.0
H3009 H 0.59907 0.75581 0.87594 0.0
H3010 H 0.59928 0.72099 0.68508 0.0
H3011 H 0.58352 0.71446 0.6929 0.0
H3012 H 0.59165 0.71104 0.75513 0.0
H3013 H 0.60029 0.76289 0.71072 0.0
H3014 H 0.59292 0.7638 0.7868 0.0
H3015 H 0.58447 0.75427 0.71654 0.0
C3016 C 0.25144 0.86567 0.82011 0.0
C3017 C 0.25525 0.86069 0.87067 0.0
C3018 C 0.25165 0.863 0.75075 0.0
C3019 C 0.25585 0.85523 0.73175 0.0
C3020 C 0.25987 0.85031 0.78261 0.0
C3021 C 0.25961 0.85319 0.85163 0.0
C3022 C 0.24734 0.86846 0.69782 0.0
C3023 C 0.26446 0.84206 0.7641 0.0
C3024 C 0.24501 0.84117 0.55769 0.0
C3025 C 0.2545 0.84887 0.51553 0.0
C3026 C 0.24559 0.84274 0.62892 0.0
C3027 C 0.2559 0.85225 0.65845 0.0
C3028 C 0.26579 0.8596 0.61666 0.0
C3029 C 0.26499 0.85779 0.54553 0.0
C3030 C 0.23493 0.83463 0.67205 0.0
C3031 C 0.27695 0.86983 0.64646 0.0
H3032 H 0.24821 0.87159 0.83495 0.0
H3033 H 0.26302 0.84974 0.89059 0.0
H3034 H 0.2545 0.87365 0.66024 0.0
H3035 H 0.23975 0.86137 0.66899 0.0
H3036 H 0.24448 0.87443 0.72114 0.0
H3037 H 0.2671 0.83886 0.80998 0.0
H3038 H 0.25755 0.83425 0.73573 0.0
H3039 H 0.27226 0.84666 0.72966 0.0
H3040 H 0.23692 0.83418 0.53486 0.0
H3041 H 0.27238 0.86374 0.51325 0.0
H3042 H 0.23077 0.83967 0.69224 0.0
H3043 H 0.23765 0.83128 0.71677 0.0
H3044 H 0.22814 0.82691 0.64238 0.0
H3045 H 0.27505 0.87682 0.66422 0.0
H3046 H 0.28429 0.87382 0.60846 0.0
H3047 H 0.27997 0.86687 0.69165 0.0
C3048 C 0.4175 0.14365 0.45905 0.0
C3049 C 0.41251 0.14898 0.49895 0.0
C3050 C 0.41531 0.14209 0.38811 0.0
C3051 C 0.40826 0.14629 0.35671 0.0
C3052 C 0.40384 0.15233 0.39662 0.0
C3053 C 0.40583 0.15339 0.46753 0.0
C3054 C 0.41991 0.13533 0.34769 0.0
C3055 C 0.3966 0.15725 0.36491 0.0
C3056 C 0.40802 0.14854 0.16224 0.0
C3057 C 0.39701 0.13861 0.14564 0.0
C3058 C 0.41178 0.15123 0.23073 0.0
C3059 C 0.40462 0.14352 0.28361 0.0
C3060 C 0.39372 0.13326 0.26699 0.0
C3061 C 0.39001 0.131 0.1984 0.0
C3062 C 0.42338 0.16236 0.24652 0.0
C3063 C 0.38594 0.12465 0.3217 0.0
H3064 H 0.42253 0.14011 0.4839 0.0
H3065 H 0.402 0.15753 0.49881 0.0
H3066 H 0.41232 0.12673 0.33064 0.0
H3067 H 0.42461 0.14033 0.30098 0.0
H3068 H 0.42603 0.13352 0.37831 0.0
H3069 H 0.39499 0.16286 0.40142 0.0
H3070 H 0.40117 0.16264 0.31894 0.0
H3071 H 0.38788 0.14984 0.34793 0.0
H3072 H 0.41385 0.15412 0.12194 0.0
H3073 H 0.38158 0.1232 0.18603 0.0
H3074 H 0.42957 0.16001 0.27184 0.0
H3075 H 0.42183 0.16802 0.28277 0.0
H3076 H 0.42773 0.16762 0.19973 0.0
H3077 H 0.39113 0.12166 0.35253 0.0
H3078 H 0.3781 0.11672 0.29981 0.0
H3079 H 0.38275 0.12913 0.35719 0.0
C3080 C 0.85462 0.25628 0.4358 0.0
C3081 C 0.84846 0.26132 0.46705 0.0
C3082 C 0.85562 0.25614 0.36449 0.0
C3083 C 0.85057 0.26142 0.3232 0.0
C3084 C 0.8443 0.2665 0.35427 0.0
C3085 C 0.84318 0.26626 0.42611 0.0
C3086 C 0.86218 0.2504 0.33343 0.0
C3087 C 0.83902 0.27242 0.31178 0.0
C3088 C 0.86581 0.27014 0.15084 0.0
C3089 C 0.85799 0.26053 0.11006 0.0
C3090 C 0.86303 0.27103 0.21919 0.0
C3091 C 0.85234 0.26189 0.24779 0.0
C3092 C 0.84419 0.25239 0.20588 0.0
C3093 C 0.84708 0.25187 0.13709 0.0
C3094 C 0.87184 0.28143 0.26176 0.0
C3095 C 0.83282 0.24234 0.23479 0.0
H3096 H 0.85858 0.2523 0.46724 0.0
H3097 H 0.83844 0.27017 0.45027 0.0
H3098 H 0.85648 0.24362 0.29514 0.0
H3099 H 0.87022 0.25719 0.3062 0.0
H3100 H 0.86496 0.24608 0.3726 0.0
H3101 H 0.83408 0.27561 0.34355 0.0
H3102 H 0.84619 0.2801 0.28391 0.0
H3103 H 0.8329 0.26616 0.27265 0.0
H3104 H 0.8742 0.27688 0.12949 0.0
H3105 H 0.84111 0.24438 0.10555 0.0
H3106 H 0.87622 0.27838 0.29886 0.0
H3107 H 0.86725 0.28521 0.29172 0.0
H3108 H 0.87882 0.28857 0.22969 0.0
H3109 H 0.83495 0.23693 0.26975 0.0
H3110 H 0.8268 0.23645 0.19394 0.0
H3111 H 0.82804 0.24584 0.26533 0.0
C3112 C 0.73417 0.5915 0.44582 0.0
C3113 C 0.74361 0.59069 0.47491 0.0
C3114 C 0.73344 0.59258 0.37476 0.0
C3115 C 0.74234 0.59282 0.33196 0.0
C3116 C 0.75143 0.59119 0.36053 0.0
C3117 C 0.75195 0.59014 0.4318 0.0
C3118 C 0.72356 0.59421 0.34604 0.0
C3119 C 0.76101 0.59128 0.3163 0.0
C3120 C 0.73738 0.59059 0.13955 0.0
C3121 C 0.74358 0.60259 0.1206 0.0
C3122 C 0.73699 0.58721 0.20822 0.0
C3123 C 0.74288 0.59608 0.25869 0.0
C3124 C 0.74913 0.60822 0.23958 0.0
C3125 C 0.74933 0.61132 0.17067 0.0
C3126 C 0.73015 0.57421 0.2269 0.0
C3127 C 0.75553 0.61793 0.29201 0.0
H3128 H 0.72761 0.59181 0.47874 0.0
H3129 H 0.75921 0.5894 0.45383 0.0
H3130 H 0.72728 0.60347 0.32753 0.0
H3131 H 0.71933 0.58824 0.30155 0.0
H3132 H 0.71661 0.59243 0.3849 0.0
H3133 H 0.76659 0.58852 0.34519 0.0
H3134 H 0.75704 0.5853 0.27159 0.0
H3135 H 0.76683 0.60038 0.2961 0.0
H3136 H 0.73261 0.58387 0.10086 0.0
H3137 H 0.75402 0.6206 0.15575 0.0
H3138 H 0.72268 0.5725 0.26145 0.0
H3139 H 0.73595 0.57168 0.2552 0.0
H3140 H 0.72651 0.5684 0.1811 0.0
H3141 H 0.74911 0.61768 0.3304 0.0
H3142 H 0.76018 0.62691 0.26839 0.0
H3143 H 0.76215 0.61651 0.31995 0.0
C3144 C 0.8581 0.59257 0.4775 0.0
C3145 C 0.84857 0.59312 0.50741 0.0
C3146 C 0.85998 0.59383 0.40641 0.0
C3147 C 0.85211 0.59559 0.36448 0.0
C3148 C 0.84204 0.59534 0.39388 0.0
C3149 C 0.8404 0.59413 0.46506 0.0
C3150 C 0.8708 0.59401 0.37683 0.0
C3151 C 0.83336 0.59704 0.35067 0.0
C3152 C 0.86464 0.61403 0.20346 0.0
C3153 C 0.86037 0.6053 0.15246 0.0
C3154 C 0.862 0.61096 0.27268 0.0
C3155 C 0.855 0.59885 0.2912 0.0
C3156 C 0.85079 0.58997 0.23989 0.0
C3157 C 0.8536 0.5933 0.171 0.0
C3158 C 0.86668 0.6207 0.326 0.0
C3159 C 0.84338 0.57696 0.25781 0.0
H3160 H 0.86442 0.59175 0.50987 0.0
H3161 H 0.83295 0.59444 0.48775 0.0
H3162 H 0.86835 0.5881 0.33143 0.0
H3163 H 0.87725 0.60314 0.35945 0.0
H3164 H 0.87527 0.59119 0.41484 0.0
H3165 H 0.82536 0.59537 0.38015 0.0
H3166 H 0.83776 0.60628 0.33089 0.0
H3167 H 0.8305 0.59101 0.30567 0.0
H3168 H 0.87 0.6233 0.18905 0.0
H3169 H 0.85069 0.58651 0.13174 0.0
H3170 H 0.87228 0.6193 0.36358 0.0
H3171 H 0.85919 0.62042 0.35474 0.0
H3172 H 0.87205 0.62967 0.30305 0.0
H3173 H 0.84848 0.57433 0.29211 0.0
H3174 H 0.84063 0.57118 0.21166 0.0
H3175 H 0.8353 0.57533 0.28612 0.0
C3176 C 0.40902 0.24846 0.43676 0.0
C3177 C 0.40812 0.25668 0.47929 0.0
C3178 C 0.4078 0.24874 0.36547 0.0
C3179 C 0.40569 0.25747 0.33621 0.0
C3180 C 0.4056 0.26628 0.37837 0.0
C3181 C 0.40681 0.26578 0.4495 0.0
C3182 C 0.40803 0.23924 0.32202 0.0
C3183 C 0.40349 0.27582 0.34887 0.0
C3184 C 0.40753 0.26191 0.14329 0.0
C3185 C 0.39552 0.25536 0.1249 0.0
C3186 C 0.41104 0.26259 0.21194 0.0
C3187 C 0.4023 0.25662 0.26294 0.0
C3188 C 0.39015 0.24998 0.24435 0.0
C3189 C 0.38691 0.24952 0.17548 0.0
C3190 C 0.42405 0.26987 0.23003 0.0
C3191 C 0.38057 0.24345 0.29731 0.0
H3192 H 0.41012 0.24145 0.4593 0.0
H3193 H 0.40624 0.27225 0.48196 0.0
H3194 H 0.39897 0.23312 0.30232 0.0
H3195 H 0.41392 0.24325 0.27698 0.0
H3196 H 0.41111 0.23396 0.35134 0.0
H3197 H 0.40507 0.28278 0.38718 0.0
H3198 H 0.40935 0.28009 0.30404 0.0
H3199 H 0.39418 0.27175 0.33066 0.0
H3200 H 0.41414 0.26674 0.1042 0.0
H3201 H 0.37762 0.24456 0.161 0.0
H3202 H 0.42689 0.26437 0.25902 0.0
H3203 H 0.42553 0.27736 0.26375 0.0
H3204 H 0.42976 0.27352 0.18391 0.0
H3205 H 0.38235 0.23714 0.326 0.0
H3206 H 0.37158 0.23844 0.27404 0.0
H3207 H 0.38059 0.24986 0.33498 0.0
C3208 C 0.7489 0.13586 0.19096 0.0
C3209 C 0.74404 0.13981 0.14049 0.0
C3210 C 0.74873 0.13868 0.26016 0.0
C3211 C 0.74347 0.14552 0.27921 0.0
C3212 C 0.73843 0.14944 0.22844 0.0
C3213 C 0.73869 0.14644 0.15957 0.0
C3214 C 0.75416 0.1343 0.31289 0.0
C3215 C 0.73269 0.15669 0.24693 0.0
C3216 C 0.73452 0.14254 0.46622 0.0
C3217 C 0.74454 0.15223 0.49537 0.0
C3218 C 0.73378 0.14054 0.39525 0.0
C3219 C 0.74325 0.14848 0.35255 0.0
C3220 C 0.75302 0.1587 0.38117 0.0
C3221 C 0.75357 0.16043 0.45233 0.0
C3222 C 0.72321 0.12954 0.36658 0.0
C3223 C 0.7632 0.16745 0.33711 0.0
H3224 H 0.7529 0.13061 0.17617 0.0
H3225 H 0.73451 0.1491 0.1208 0.0
H3226 H 0.76137 0.14194 0.34079 0.0
H3227 H 0.74736 0.12866 0.35128 0.0
H3228 H 0.75788 0.12906 0.28954 0.0
H3229 H 0.72947 0.15931 0.20107 0.0
H3230 H 0.72507 0.15152 0.28181 0.0
H3231 H 0.73911 0.16484 0.2748 0.0
H3232 H 0.72749 0.13618 0.4991 0.0
H3233 H 0.76129 0.16801 0.47443 0.0
H3234 H 0.72606 0.12325 0.34858 0.0
H3235 H 0.7195 0.13183 0.32172 0.0
H3236 H 0.71607 0.12496 0.40528 0.0
H3237 H 0.76815 0.1632 0.31695 0.0
H3238 H 0.76949 0.17555 0.36606 0.0
H3239 H 0.75982 0.17014 0.29237 0.0
C3240 C 0.59759 0.84681 0.83716 0.0
C3241 C 0.59756 0.85644 0.86908 0.0
C3242 C 0.59433 0.84421 0.76802 0.0
C3243 C 0.59082 0.85132 0.73087 0.0
C3244 C 0.59 0.86052 0.76461 0.0
C3245 C 0.59354 0.86307 0.8332 0.0
C3246 C 0.5955 0.83445 0.73354 0.0
C3247 C 0.58611 0.86816 0.72716 0.0
C3248 C 0.5993 0.85728 0.54392 0.0
C3249 C 0.58855 0.84966 0.51081 0.0
C3250 C 0.60014 0.8577 0.61538 0.0
C3251 C 0.58991 0.85047 0.65506 0.0
C3252 C 0.57898 0.84281 0.62225 0.0
C3253 C 0.57845 0.84242 0.5502 0.0
C3254 C 0.61201 0.8659 0.64835 0.0
C3255 C 0.56788 0.83515 0.66321 0.0
H3256 H 0.60078 0.84175 0.86512 0.0
H3257 H 0.59342 0.87044 0.85847 0.0
H3258 H 0.58755 0.82879 0.7019 0.0
H3259 H 0.60328 0.83845 0.69866 0.0
H3260 H 0.59673 0.82875 0.77121 0.0
H3261 H 0.58418 0.87364 0.76293 0.0
H3262 H 0.59324 0.87422 0.69157 0.0
H3263 H 0.57806 0.86259 0.69597 0.0
H3264 H 0.60719 0.86283 0.51392 0.0
H3265 H 0.57012 0.83654 0.52481 0.0
H3266 H 0.61456 0.86079 0.68311 0.0
H3267 H 0.61137 0.87266 0.67986 0.0
H3268 H 0.61919 0.87057 0.60999 0.0
H3269 H 0.56933 0.82922 0.69785 0.0
H3270 H 0.5601 0.8296 0.62993 0.0
H3271 H 0.56577 0.84082 0.696 0.0
C3272 C 0.14502 0.72632 0.54098 0.0
C3273 C 0.14958 0.73679 0.5026 0.0
C3274 C 0.14334 0.72648 0.61211 0.0
C3275 C 0.14665 0.73742 0.6452 0.0
C3276 C 0.15195 0.74809 0.60682 0.0
C3277 C 0.15315 0.7476 0.5357 0.0
C3278 C 0.13735 0.71489 0.6509 0.0
C3279 C 0.15593 0.75996 0.64039 0.0
C3280 C 0.13038 0.7383 0.80446 0.0
C3281 C 0.13829 0.7395 0.85684 0.0
C3282 C 0.13285 0.73727 0.73566 0.0
C3283 C 0.14363 0.73767 0.71849 0.0
C3284 C 0.15161 0.73875 0.77101 0.0
C3285 C 0.14872 0.73938 0.8397 0.0
C3286 C 0.12396 0.73584 0.68128 0.0
C3287 C 0.16326 0.73937 0.75461 0.0
H3288 H 0.14214 0.71796 0.51483 0.0
H3289 H 0.1567 0.75569 0.50559 0.0
H3290 H 0.14247 0.71546 0.69763 0.0
H3291 H 0.12842 0.71299 0.66781 0.0
H3292 H 0.13632 0.70733 0.61913 0.0
H3293 H 0.16112 0.7675 0.60486 0.0
H3294 H 0.14806 0.76043 0.65799 0.0
H3295 H 0.16144 0.76104 0.6862 0.0
H3296 H 0.1222 0.73818 0.81727 0.0
H3297 H 0.15456 0.73957 0.87975 0.0
H3298 H 0.12168 0.72793 0.64919 0.0
H3299 H 0.12788 0.74369 0.64691 0.0
H3300 H 0.11565 0.73485 0.70357 0.0
H3301 H 0.16162 0.7312 0.72745 0.0
H3302 H 0.16859 0.74044 0.80132 0.0
H3303 H 0.16857 0.74697 0.71975 0.0
C3304 C 0.26999 0.40444 0.82336 0.0
C3305 C 0.25969 0.40141 0.86094 0.0
C3306 C 0.27097 0.4079 0.75463 0.0
C3307 C 0.26129 0.40806 0.72253 0.0
C3308 C 0.2511 0.40561 0.76137 0.0
C3309 C 0.25044 0.40235 0.83051 0.0
C3310 C 0.28205 0.41061 0.71526 0.0
C3311 C 0.24055 0.40554 0.72872 0.0
C3312 C 0.26538 0.42028 0.54117 0.0
C3313 C 0.26147 0.40989 0.50246 0.0
C3314 C 0.26532 0.41988 0.61324 0.0
C3315 C 0.26108 0.40882 0.64674 0.0
C3316 C 0.25695 0.39832 0.60773 0.0
C3317 C 0.25729 0.399 0.53623 0.0
C3318 C 0.26994 0.43127 0.65346 0.0
C3319 C 0.25223 0.38631 0.64148 0.0
H3320 H 0.27719 0.40383 0.84737 0.0
H3321 H 0.24244 0.39989 0.85959 0.0
H3322 H 0.28005 0.40317 0.67978 0.0
H3323 H 0.28513 0.41874 0.68377 0.0
H3324 H 0.28938 0.41185 0.74976 0.0
H3325 H 0.23413 0.4052 0.76757 0.0
H3326 H 0.24344 0.41353 0.69628 0.0
H3327 H 0.23589 0.39765 0.69492 0.0
H3328 H 0.26862 0.42872 0.51521 0.0
H3329 H 0.25412 0.3909 0.50671 0.0
H3330 H 0.27775 0.43279 0.68431 0.0
H3331 H 0.26307 0.43058 0.68989 0.0
H3332 H 0.27258 0.43908 0.61975 0.0
H3333 H 0.25936 0.38617 0.67204 0.0
H3334 H 0.24887 0.37895 0.60362 0.0
H3335 H 0.24492 0.38462 0.67724 0.0
C3336 C 0.82691 0.73833 0.90208 0.0
C3337 C 0.81921 0.73997 0.859 0.0
C3338 C 0.82514 0.73727 0.97322 0.0
C3339 C 0.81541 0.7378 0.00175 0.0
C3340 C 0.80802 0.74014 0.95899 0.0
C3341 C 0.81004 0.74125 0.88806 0.0
C3342 C 0.83331 0.73495 0.01739 0.0
C3343 C 0.79756 0.74078 0.98759 0.0
C3344 C 0.80177 0.72007 0.16372 0.0
C3345 C 0.80638 0.72894 0.21392 0.0
C3346 C 0.80468 0.72286 0.09445 0.0
C3347 C 0.81232 0.73483 0.0751 0.0
C3348 C 0.8169 0.74386 0.12558 0.0
C3349 C 0.81378 0.7408 0.1945 0.0
C3350 C 0.79956 0.71299 0.04197 0.0
C3351 C 0.82502 0.75671 0.10674 0.0
H3352 H 0.83408 0.73745 0.88005 0.0
H3353 H 0.80409 0.74257 0.85513 0.0
H3354 H 0.83646 0.74107 0.06197 0.0
H3355 H 0.82838 0.72576 0.0378 0.0
H3356 H 0.84115 0.73602 0.98846 0.0
H3357 H 0.79343 0.74385 0.94877 0.0
H3358 H 0.79073 0.73185 0.00583 0.0
H3359 H 0.80031 0.74686 0.03227 0.0
H3360 H 0.79593 0.71091 0.17878 0.0
H3361 H 0.81696 0.74773 0.23307 0.0
H3362 H 0.80685 0.71267 0.01419 0.0
H3363 H 0.79434 0.71473 0.00344 0.0
H3364 H 0.79372 0.70416 0.06554 0.0
H3365 H 0.83292 0.75771 0.07905 0.0
H3366 H 0.82806 0.76261 0.15241 0.0
H3367 H 0.82036 0.75974 0.07159 0.0
C3368 C 0.26496 0.07576 0.89281 0.0
C3369 C 0.25376 0.07092 0.86177 0.0
C3370 C 0.26614 0.07606 0.96413 0.0
C3371 C 0.25584 0.07112 0.00569 0.0
C3372 C 0.24448 0.06618 0.97483 0.0
C3373 C 0.24358 0.06628 0.90295 0.0
C3374 C 0.27844 0.08163 0.99494 0.0
C3375 C 0.23332 0.0606 0.01761 0.0
C3376 C 0.26226 0.06274 0.17934 0.0
C3377 C 0.26431 0.07257 0.2189 0.0
C3378 C 0.25852 0.06168 0.11105 0.0
C3379 C 0.25717 0.07086 0.08122 0.0
C3380 C 0.25877 0.08058 0.12195 0.0
C3381 C 0.26223 0.08126 0.19077 0.0
C3382 C 0.25665 0.05104 0.06983 0.0
C3383 C 0.25768 0.09068 0.09168 0.0
H3384 H 0.27288 0.07951 0.86121 0.0
H3385 H 0.23492 0.06252 0.87895 0.0
H3386 H 0.27972 0.0886 0.03242 0.0
H3387 H 0.27952 0.07481 0.02305 0.0
H3388 H 0.28554 0.08569 0.95551 0.0
H3389 H 0.22519 0.05742 0.9859 0.0
H3390 H 0.23268 0.05297 0.04669 0.0
H3391 H 0.23362 0.06708 0.05571 0.0
H3392 H 0.26378 0.05597 0.2016 0.0
H3393 H 0.26392 0.08891 0.22145 0.0
H3394 H 0.26403 0.0538 0.03272 0.0
H3395 H 0.24828 0.04734 0.03996 0.0
H3396 H 0.25631 0.04392 0.10288 0.0
H3397 H 0.26522 0.09584 0.05623 0.0
H3398 H 0.25775 0.09679 0.13174 0.0
H3399 H 0.24939 0.08724 0.06136 0.0
C3400 C 0.93211 0.17762 0.87907 0.0
C3401 C 0.92799 0.18354 0.83694 0.0
C3402 C 0.93199 0.17858 0.9509 0.0
C3403 C 0.92746 0.18545 0.98076 0.0
C3404 C 0.92313 0.19127 0.93833 0.0
C3405 C 0.92354 0.19031 0.86715 0.0
C3406 C 0.93683 0.17241 0.99477 0.0
C3407 C 0.9181 0.19857 0.96807 0.0
C3408 C 0.91664 0.18214 0.16413 0.0
C3409 C 0.92574 0.19255 0.1936 0.0
C3410 C 0.91738 0.17929 0.09555 0.0
C3411 C 0.92751 0.187 0.0562 0.0
C3412 C 0.937 0.19716 0.08715 0.0
C3413 C 0.93593 0.19989 0.15533 0.0
C3414 C 0.907 0.16848 0.06408 0.0
C3415 C 0.94801 0.20552 0.04722 0.0
H3416 H 0.93557 0.17238 0.85595 0.0
H3417 H 0.92021 0.19482 0.83505 0.0
H3418 H 0.94447 0.17908 0.02526 0.0
H3419 H 0.92997 0.16636 0.03165 0.0
H3420 H 0.93979 0.1672 0.96374 0.0
H3421 H 0.91463 0.2021 0.92792 0.0
H3422 H 0.91078 0.1931 0.00421 0.0
H3423 H 0.92507 0.20617 0.99747 0.0
H3424 H 0.90871 0.17654 0.19364 0.0
H3425 H 0.94302 0.20788 0.17852 0.0
H3426 H 0.9101 0.16323 0.03469 0.0
H3427 H 0.90236 0.17133 0.02756 0.0
H3428 H 0.90051 0.16264 0.10334 0.0
H3429 H 0.95141 0.20047 0.01844 0.0
H3430 H 0.95519 0.21206 0.081 0.0
H3431 H 0.94579 0.21046 0.0092 0.0
C3432 C 0.07387 0.47422 0.77813 0.0
C3433 C 0.07477 0.48459 0.80596 0.0
C3434 C 0.07248 0.47205 0.70731 0.0
C3435 C 0.07211 0.48052 0.66333 0.0
C3436 C 0.07381 0.49135 0.69061 0.0
C3437 C 0.07507 0.49324 0.76169 0.0
C3438 C 0.07068 0.46039 0.68018 0.0
C3439 C 0.07365 0.50068 0.64518 0.0
C3440 C 0.07416 0.47726 0.47086 0.0
C3441 C 0.06218 0.47176 0.45152 0.0
C3442 C 0.07758 0.4803 0.53954 0.0
C3443 C 0.06878 0.47756 0.5901 0.0
C3444 C 0.05666 0.47185 0.571 0.0
C3445 C 0.05351 0.46901 0.50199 0.0
C3446 C 0.09059 0.48635 0.55808 0.0
C3447 C 0.04699 0.4687 0.6235 0.0
H3448 H 0.07367 0.4675 0.81192 0.0
H3449 H 0.07588 0.50133 0.78272 0.0
H3450 H 0.06139 0.45485 0.66228 0.0
H3451 H 0.07655 0.46188 0.63554 0.0
H3452 H 0.07246 0.45533 0.71976 0.0
H3453 H 0.0764 0.50911 0.67312 0.0
H3454 H 0.07963 0.50257 0.60057 0.0
H3455 H 0.06455 0.49732 0.62488 0.0
H3456 H 0.08088 0.47895 0.43284 0.0
H3457 H 0.04423 0.4647 0.4874 0.0
H3458 H 0.09222 0.48066 0.59364 0.0
H3459 H 0.09324 0.49482 0.58521 0.0
H3460 H 0.09636 0.48827 0.51233 0.0
H3461 H 0.04735 0.46276 0.66307 0.0
H3462 H 0.03798 0.4642 0.60022 0.0
H3463 H 0.04837 0.47685 0.64998 0.0
C3464 C 0.51041 0.59917 0.76935 0.0
C3465 C 0.51608 0.59442 0.80846 0.0
C3466 C 0.51119 0.59948 0.69737 0.0
C3467 C 0.51754 0.59466 0.66434 0.0
C3468 C 0.52299 0.58957 0.7038 0.0
C3469 C 0.52231 0.58964 0.77528 0.0
C3470 C 0.50549 0.60519 0.65682 0.0
C3471 C 0.52966 0.58413 0.67058 0.0
C3472 C 0.51371 0.58526 0.47807 0.0
C3473 C 0.52448 0.59408 0.45052 0.0
C3474 C 0.51091 0.58569 0.54715 0.0
C3475 C 0.51903 0.59527 0.58874 0.0
C3476 C 0.52952 0.60461 0.55951 0.0
C3477 C 0.5322 0.6038 0.49088 0.0
C3478 C 0.49975 0.57546 0.57671 0.0
C3479 C 0.53828 0.61509 0.60176 0.0
H3480 H 0.50561 0.60289 0.79504 0.0
H3481 H 0.52657 0.5858 0.80534 0.0
H3482 H 0.51243 0.61303 0.62887 0.0
H3483 H 0.49935 0.5989 0.61785 0.0
H3484 H 0.50047 0.6081 0.69001 0.0
H3485 H 0.53276 0.5799 0.70853 0.0
H3486 H 0.52392 0.57733 0.63249 0.0
H3487 H 0.53751 0.59107 0.64271 0.0
H3488 H 0.5078 0.57769 0.44678 0.0
H3489 H 0.54049 0.61066 0.46908 0.0
H3490 H 0.49497 0.57875 0.60892 0.0
H3491 H 0.50216 0.57008 0.61017 0.0
H3492 H 0.49364 0.56959 0.53611 0.0
H3493 H 0.5336 0.6186 0.63313 0.0
H3494 H 0.54499 0.62237 0.56928 0.0
H3495 H 0.54299 0.61221 0.63753 0.0
C3496 C 0.39674 0.92943 0.4915 0.0
C3497 C 0.40691 0.93234 0.45288 0.0
C3498 C 0.39575 0.92564 0.55964 0.0
C3499 C 0.4053 0.92503 0.59024 0.0
C3500 C 0.41544 0.92758 0.55064 0.0
C3501 C 0.4161 0.93115 0.48209 0.0
C3502 C 0.38472 0.92284 0.59982 0.0
C3503 C 0.4259 0.92723 0.58175 0.0
C3504 C 0.40917 0.93178 0.78005 0.0
C3505 C 0.40481 0.92047 0.80911 0.0
C3506 C 0.40957 0.93334 0.709 0.0
C3507 C 0.40533 0.92333 0.66553 0.0
C3508 C 0.4009 0.91186 0.69424 0.0
C3509 C 0.40078 0.91057 0.76593 0.0
C3510 C 0.4145 0.94574 0.68052 0.0
C3511 C 0.39616 0.90098 0.64927 0.0
H3512 H 0.38959 0.93026 0.46853 0.0
H3513 H 0.42402 0.93353 0.45231 0.0
H3514 H 0.38135 0.91432 0.62781 0.0
H3515 H 0.3869 0.92989 0.63856 0.0
H3516 H 0.37753 0.92225 0.56636 0.0
H3517 H 0.43247 0.92812 0.54241 0.0
H3518 H 0.4304 0.93461 0.61909 0.0
H3519 H 0.42288 0.91881 0.61018 0.0
H3520 H 0.41243 0.93951 0.81293 0.0
H3521 H 0.39739 0.90182 0.78813 0.0
H3522 H 0.4075 0.94638 0.65153 0.0
H3523 H 0.42185 0.94777 0.64424 0.0
H3524 H 0.4179 0.95263 0.72133 0.0
H3525 H 0.38852 0.90005 0.61885 0.0
H3526 H 0.39322 0.89273 0.67947 0.0
H3527 H 0.40307 0.90195 0.61234 0.0
C3528 C 0.5244 0.9245 0.77031 0.0
C3529 C 0.51533 0.92581 0.80048 0.0
C3530 C 0.52619 0.92558 0.69917 0.0
C3531 C 0.51869 0.92792 0.65755 0.0
C3532 C 0.50903 0.92844 0.68725 0.0
C3533 C 0.50748 0.9274 0.75847 0.0
C3534 C 0.53657 0.92494 0.66918 0.0
C3535 C 0.50074 0.93078 0.64433 0.0
C3536 C 0.53164 0.94598 0.49594 0.0
C3537 C 0.52677 0.93722 0.44524 0.0
C3538 C 0.52911 0.94304 0.56534 0.0
C3539 C 0.5216 0.93102 0.58424 0.0
C3540 C 0.5168 0.92209 0.53325 0.0
C3541 C 0.51954 0.9253 0.46419 0.0
C3542 C 0.53445 0.9528 0.61841 0.0
C3543 C 0.50881 0.90919 0.55165 0.0
H3544 H 0.53047 0.92323 0.8025 0.0
H3545 H 0.50036 0.92828 0.78143 0.0
H3546 H 0.53374 0.91902 0.62377 0.0
H3547 H 0.54343 0.93391 0.65172 0.0
H3548 H 0.54069 0.92169 0.70698 0.0
H3549 H 0.49297 0.92967 0.67413 0.0
H3550 H 0.50562 0.93999 0.62422 0.0
H3551 H 0.49749 0.9247 0.59956 0.0
H3552 H 0.53737 0.95518 0.48117 0.0
H3553 H 0.51617 0.91846 0.42512 0.0
H3554 H 0.53975 0.95095 0.65577 0.0
H3555 H 0.52727 0.95312 0.64745 0.0
H3556 H 0.54026 0.96167 0.59517 0.0
H3557 H 0.51358 0.90617 0.58605 0.0
H3558 H 0.50574 0.90336 0.50571 0.0
H3559 H 0.50092 0.90808 0.58002 0.0
C3560 C 0.07504 0.59477 0.47214 0.0
C3561 C 0.06301 0.58837 0.45411 0.0
C3562 C 0.0786 0.59563 0.54084 0.0
C3563 C 0.06987 0.59 0.59236 0.0
C3564 C 0.05769 0.58358 0.57423 0.0
C3565 C 0.05441 0.58292 0.50524 0.0
C3566 C 0.09164 0.60266 0.55837 0.0
C3567 C 0.04812 0.57743 0.62774 0.0
C3568 C 0.07657 0.58171 0.76592 0.0
C3569 C 0.07616 0.5902 0.80846 0.0
C3570 C 0.07518 0.58192 0.69475 0.0
C3571 C 0.07334 0.59083 0.66553 0.0
C3572 C 0.07372 0.59988 0.7076 0.0
C3573 C 0.07513 0.59947 0.77867 0.0
C3574 C 0.07494 0.57217 0.65143 0.0
C3575 C 0.0719 0.6096 0.67816 0.0
H3576 H 0.08167 0.59934 0.43267 0.0
H3577 H 0.04509 0.57808 0.49112 0.0
H3578 H 0.09335 0.61019 0.59239 0.0
H3579 H 0.09433 0.597 0.58685 0.0
H3580 H 0.09732 0.60623 0.51203 0.0
H3581 H 0.03908 0.57268 0.60496 0.0
H3582 H 0.04962 0.57094 0.65657 0.0
H3583 H 0.04849 0.58403 0.66521 0.0
H3584 H 0.07747 0.57458 0.78842 0.0
H3585 H 0.07489 0.60612 0.8111 0.0
H3586 H 0.08082 0.57597 0.60617 0.0
H3587 H 0.06579 0.5663 0.63207 0.0
H3588 H 0.07775 0.56666 0.68071 0.0
H3589 H 0.07767 0.61366 0.63274 0.0
H3590 H 0.07381 0.6167 0.71622 0.0
H3591 H 0.06256 0.60577 0.66086 0.0
C3592 C 0.39696 0.46708 0.50851 0.0
C3593 C 0.40701 0.47465 0.46979 0.0
C3594 C 0.39587 0.46974 0.57677 0.0
C3595 C 0.40518 0.48009 0.60732 0.0
C3596 C 0.41513 0.48803 0.56747 0.0
C3597 C 0.4159 0.48523 0.49885 0.0
C3598 C 0.38505 0.46111 0.61724 0.0
C3599 C 0.42531 0.49907 0.59848 0.0
C3600 C 0.40036 0.48897 0.78534 0.0
C3601 C 0.40485 0.48331 0.82675 0.0
C3602 C 0.40044 0.4881 0.71344 0.0
C3603 C 0.40531 0.48159 0.68281 0.0
C3604 C 0.41005 0.47607 0.72453 0.0
C3605 C 0.40967 0.47691 0.7958 0.0
C3606 C 0.39517 0.49395 0.67034 0.0
C3607 C 0.41546 0.46917 0.69395 0.0
H3608 H 0.39003 0.45894 0.48565 0.0
H3609 H 0.42373 0.49102 0.46902 0.0
H3610 H 0.38758 0.45636 0.65483 0.0
H3611 H 0.38144 0.46592 0.64655 0.0
H3612 H 0.37793 0.45443 0.58377 0.0
H3613 H 0.43158 0.50507 0.55886 0.0
H3614 H 0.42198 0.50404 0.62855 0.0
H3615 H 0.43027 0.49649 0.63428 0.0
H3616 H 0.39662 0.49391 0.80907 0.0
H3617 H 0.41329 0.47262 0.82738 0.0
H3618 H 0.38756 0.48711 0.64041 0.0
H3619 H 0.40183 0.50013 0.63297 0.0
H3620 H 0.39205 0.49897 0.7019 0.0
H3621 H 0.40862 0.46144 0.66475 0.0
H3622 H 0.41923 0.46586 0.7336 0.0
H3623 H 0.42262 0.47484 0.65747 0.0
C3624 C 0.27761 0.19501 0.15506 0.0
C3625 C 0.26905 0.19259 0.20569 0.0
C3626 C 0.27437 0.1922 0.08613 0.0
C3627 C 0.26226 0.18688 0.06725 0.0
C3628 C 0.25356 0.18445 0.11803 0.0
C3629 C 0.25707 0.18742 0.18666 0.0
C3630 C 0.28393 0.19499 0.03345 0.0
C3631 C 0.24057 0.17883 0.09974 0.0
C3632 C 0.25745 0.19061 0.87932 0.0
C3633 C 0.2561 0.18007 0.85128 0.0
C3634 C 0.25887 0.19271 0.9502 0.0
C3635 C 0.25884 0.18402 0.99402 0.0
C3636 C 0.25669 0.17304 0.96652 0.0
C3637 C 0.25538 0.17121 0.89541 0.0
C3638 C 0.26113 0.20454 0.97756 0.0
C3639 C 0.25643 0.16349 0.01175 0.0
H3640 H 0.28688 0.19906 0.16945 0.0
H3641 H 0.25045 0.18596 0.22488 0.0
H3642 H 0.28218 0.18673 0.00672 0.0
H3643 H 0.28385 0.20111 0.9941 0.0
H3644 H 0.29294 0.19915 0.05661 0.0
H3645 H 0.23487 0.17708 0.14563 0.0
H3646 H 0.2392 0.18474 0.06451 0.0
H3647 H 0.23761 0.17032 0.07232 0.0
H3648 H 0.25796 0.19749 0.84566 0.0
H3649 H 0.25423 0.16299 0.87424 0.0
H3650 H 0.27047 0.20978 0.99541 0.0
H3651 H 0.25534 0.20324 0.02228 0.0
H3652 H 0.2596 0.20979 0.93813 0.0
H3653 H 0.26547 0.16649 0.03189 0.0
H3654 H 0.25334 0.15501 0.9837 0.0
H3655 H 0.25052 0.16182 0.05648 0.0
C3656 C 0.82522 0.08807 0.90176 0.0
C3657 C 0.81744 0.07867 0.8593 0.0
C3658 C 0.82362 0.08743 0.97297 0.0
C3659 C 0.81398 0.07718 0.00215 0.0
C3660 C 0.80654 0.06738 0.96004 0.0
C3661 C 0.80839 0.06822 0.88897 0.0
C3662 C 0.83184 0.098 0.01648 0.0
C3663 C 0.79618 0.05629 0.98945 0.0
C3664 C 0.8128 0.07314 0.19509 0.0
C3665 C 0.80544 0.07765 0.21431 0.0
C3666 C 0.81574 0.07296 0.12609 0.0
C3667 C 0.811 0.07721 0.07544 0.0
C3668 C 0.80337 0.08156 0.09461 0.0
C3669 C 0.80065 0.08169 0.16395 0.0
C3670 C 0.82385 0.0682 0.10738 0.0
C3671 C 0.79809 0.0861 0.04189 0.0
H3672 H 0.83232 0.09612 0.8792 0.0
H3673 H 0.80237 0.0609 0.85646 0.0
H3674 H 0.82691 0.10228 0.03679 0.0
H3675 H 0.83507 0.09513 0.06112 0.0
H3676 H 0.83962 0.10473 0.98705 0.0
H3677 H 0.79209 0.049 0.95116 0.0
H3678 H 0.79902 0.05311 0.03444 0.0
H3679 H 0.7893 0.05833 0.0074 0.0
H3680 H 0.81612 0.06957 0.23389 0.0
H3681 H 0.79483 0.08503 0.17895 0.0
H3682 H 0.83172 0.07507 0.07928 0.0
H3683 H 0.81916 0.06046 0.07263 0.0
H3684 H 0.82694 0.06543 0.15314 0.0
H3685 H 0.80529 0.09367 0.01343 0.0
H3686 H 0.79223 0.08908 0.06535 0.0
H3687 H 0.79284 0.07903 0.00397 0.0
C3688 C 0.91999 0.74738 0.90162 0.0
C3689 C 0.9269 0.74442 0.85971 0.0
C3690 C 0.91986 0.74603 0.97306 0.0
C3691 C 0.92685 0.74168 0.0031 0.0
C3692 C 0.93446 0.73947 0.96151 0.0
C3693 C 0.93438 0.74086 0.89027 0.0
C3694 C 0.91168 0.74854 0.01583 0.0
C3695 C 0.94215 0.73494 0.99172 0.0
C3696 C 0.93122 0.74256 0.19614 0.0
C3697 C 0.92287 0.73088 0.21447 0.0
C3698 C 0.93248 0.74633 0.12763 0.0
C3699 C 0.92525 0.73818 0.07653 0.0
C3700 C 0.91672 0.72641 0.09503 0.0
C3701 C 0.91568 0.72289 0.16374 0.0
C3702 C 0.94175 0.75891 0.10967 0.0
C3703 C 0.90881 0.71746 0.04207 0.0
H3704 H 0.91422 0.7502 0.87848 0.0
H3705 H 0.93986 0.73869 0.8583 0.0
H3706 H 0.90423 0.74005 0.03524 0.0
H3707 H 0.91645 0.75403 0.06106 0.0
H3708 H 0.90793 0.75318 0.98607 0.0
H3709 H 0.94852 0.73497 0.95374 0.0
H3710 H 0.94719 0.74043 0.0364 0.0
H3711 H 0.93643 0.72572 0.01032 0.0
H3712 H 0.93708 0.74865 0.23473 0.0
H3713 H 0.90924 0.71385 0.17786 0.0
H3714 H 0.93771 0.76322 0.07943 0.0
H3715 H 0.94872 0.75883 0.07723 0.0
H3716 H 0.94604 0.76438 0.15593 0.0
H3717 H 0.90384 0.72094 0.01322 0.0
H3718 H 0.90232 0.70881 0.06533 0.0
H3719 H 0.91431 0.71591 0.00453 0.0
C3720 C 0.46685 0.0708 0.51407 0.0
C3721 C 0.4745 0.06848 0.55313 0.0
C3722 C 0.46951 0.07451 0.44575 0.0
C3723 C 0.47993 0.07566 0.41555 0.0
C3724 C 0.48793 0.0738 0.45572 0.0
C3725 C 0.48513 0.07026 0.52435 0.0
C3726 C 0.46081 0.07654 0.40488 0.0
C3727 C 0.49905 0.07477 0.42506 0.0
C3728 C 0.47695 0.06788 0.22734 0.0
C3729 C 0.48323 0.07908 0.1962 0.0
C3730 C 0.47608 0.0667 0.29861 0.0
C3731 C 0.48146 0.077 0.3401 0.0
C3732 C 0.48786 0.08836 0.30928 0.0
C3733 C 0.48875 0.08927 0.23739 0.0
C3734 C 0.46929 0.0544 0.32942 0.0
C3735 C 0.49357 0.09952 0.35216 0.0
H3736 H 0.45867 0.06952 0.53671 0.0
H3737 H 0.49096 0.06832 0.55444 0.0
H3738 H 0.46554 0.08495 0.37544 0.0
H3739 H 0.45616 0.06922 0.36737 0.0
H3740 H 0.45405 0.07689 0.43807 0.0
H3741 H 0.50507 0.07461 0.4649 0.0
H3742 H 0.49657 0.06723 0.38947 0.0
H3743 H 0.50395 0.08307 0.39484 0.0
H3744 H 0.47277 0.05994 0.19592 0.0
H3745 H 0.4936 0.09794 0.2135 0.0
H3746 H 0.46151 0.05343 0.35838 0.0
H3747 H 0.475 0.05302 0.36616 0.0
H3748 H 0.46608 0.0473 0.28994 0.0
H3749 H 0.48665 0.10021 0.38179 0.0
H3750 H 0.49852 0.10765 0.32047 0.0
H3751 H 0.49977 0.09914 0.38979 0.0
C3752 C 0.93004 0.39616 0.48987 0.0
C3753 C 0.93176 0.40567 0.53148 0.0
C3754 C 0.92639 0.3954 0.42152 0.0
C3755 C 0.92479 0.40456 0.39373 0.0
C3756 C 0.9261 0.41396 0.4364 0.0
C3757 C 0.92949 0.41435 0.50514 0.0
C3758 C 0.92486 0.3851 0.37816 0.0
C3759 C 0.92471 0.42402 0.40839 0.0
C3760 C 0.93231 0.41039 0.20523 0.0
C3761 C 0.92106 0.40534 0.17473 0.0
C3762 C 0.93359 0.41047 0.27646 0.0
C3763 C 0.92335 0.40509 0.31843 0.0
C3764 C 0.91193 0.39998 0.28812 0.0
C3765 C 0.91092 0.40029 0.2164 0.0
C3766 C 0.94595 0.41623 0.3067 0.0
C3767 C 0.90082 0.39397 0.33129 0.0
H3768 H 0.93172 0.3894 0.5106 0.0
H3769 H 0.93097 0.42178 0.53722 0.0
H3770 H 0.91645 0.38129 0.34866 0.0
H3771 H 0.93224 0.38826 0.34061 0.0
H3772 H 0.92482 0.37795 0.40956 0.0
H3773 H 0.92465 0.42988 0.44967 0.0
H3774 H 0.93218 0.42946 0.37306 0.0
H3775 H 0.91638 0.42054 0.37842 0.0
H3776 H 0.94019 0.41445 0.17327 0.0
H3777 H 0.90221 0.39636 0.19286 0.0
H3778 H 0.9473 0.40946 0.33323 0.0
H3779 H 0.94706 0.42297 0.34544 0.0
H3780 H 0.95297 0.42063 0.26715 0.0
H3781 H 0.90044 0.3863 0.35869 0.0
H3782 H 0.89263 0.39074 0.3001 0.0
H3783 H 0.90099 0.40018 0.37081 0.0
C3784 C 0.58038 0.50621 0.22702 0.0
C3785 C 0.58926 0.51477 0.18468 0.0
C3786 C 0.5807 0.5078 0.29823 0.0
C3787 C 0.5901 0.51821 0.32768 0.0
C3788 C 0.59949 0.5265 0.28575 0.0
C3789 C 0.59897 0.52466 0.21464 0.0
C3790 C 0.5706 0.49868 0.34139 0.0
C3791 C 0.6097 0.53768 0.31539 0.0
C3792 C 0.58313 0.52997 0.48835 0.0
C3793 C 0.58806 0.52622 0.53948 0.0
C3794 C 0.58371 0.52736 0.41922 0.0
C3795 C 0.58949 0.52098 0.40092 0.0
C3796 C 0.59461 0.51727 0.4524 0.0
C3797 C 0.59388 0.52 0.52122 0.0
C3798 C 0.57814 0.53146 0.36576 0.0
C3799 C 0.60093 0.51055 0.43472 0.0
H3800 H 0.57291 0.49847 0.20432 0.0
H3801 H 0.6059 0.53129 0.1823 0.0
H3802 H 0.57409 0.4962 0.38651 0.0
H3803 H 0.56524 0.50253 0.36096 0.0
H3804 H 0.56467 0.49051 0.31193 0.0
H3805 H 0.61692 0.54251 0.27744 0.0
H3806 H 0.60645 0.54369 0.33268 0.0
H3807 H 0.61343 0.53558 0.36085 0.0
H3808 H 0.57876 0.53491 0.50258 0.0
H3809 H 0.59808 0.51748 0.56063 0.0
H3810 H 0.57126 0.52371 0.3369 0.0
H3811 H 0.58496 0.53738 0.3283 0.0
H3812 H 0.57396 0.53632 0.38859 0.0
H3813 H 0.59487 0.50232 0.40621 0.0
H3814 H 0.60421 0.50809 0.48099 0.0
H3815 H 0.60859 0.51602 0.40067 0.0
C3816 C 0.73803 0.82586 0.1168 0.0
C3817 C 0.73969 0.81807 0.15889 0.0
C3818 C 0.73693 0.82426 0.04559 0.0
C3819 C 0.73745 0.8146 0.01595 0.0
C3820 C 0.73985 0.80714 0.05764 0.0
C3821 C 0.74098 0.80898 0.12875 0.0
C3822 C 0.73453 0.8325 0.00262 0.0
C3823 C 0.7405 0.79676 0.02775 0.0
C3824 C 0.7194 0.80139 0.85446 0.0
C3825 C 0.72816 0.80622 0.8037 0.0
C3826 C 0.72234 0.80406 0.9238 0.0
C3827 C 0.73435 0.81165 0.94262 0.0
C3828 C 0.74326 0.81643 0.89156 0.0
C3829 C 0.74006 0.81356 0.82256 0.0
C3830 C 0.71258 0.79875 0.97689 0.0
C3831 C 0.75615 0.82449 0.90984 0.0
H3832 H 0.73714 0.83298 0.1397 0.0
H3833 H 0.74231 0.80295 0.16095 0.0
H3834 H 0.74058 0.83575 0.95776 0.0
H3835 H 0.72531 0.82759 0.98264 0.0
H3836 H 0.73562 0.84028 0.03234 0.0
H3837 H 0.74373 0.79264 0.06564 0.0
H3838 H 0.73154 0.7899 0.01014 0.0
H3839 H 0.74645 0.7996 0.98245 0.0
H3840 H 0.71022 0.79559 0.8398 0.0
H3841 H 0.7469 0.81691 0.78348 0.0
H3842 H 0.71227 0.80594 0.00583 0.0
H3843 H 0.71444 0.79346 0.01436 0.0
H3844 H 0.70371 0.79293 0.95371 0.0
H3845 H 0.75722 0.83236 0.9383 0.0
H3846 H 0.76197 0.8276 0.86385 0.0
H3847 H 0.75923 0.81977 0.94413 0.0
C3848 C 0.1999 0.93657 0.825 0.0
C3849 C 0.19203 0.92711 0.78341 0.0
C3850 C 0.19704 0.93742 0.89329 0.0
C3851 C 0.1862 0.92839 0.92107 0.0
C3852 C 0.17803 0.91902 0.87846 0.0
C3853 C 0.18101 0.91855 0.80976 0.0
C3854 C 0.2059 0.94767 0.93658 0.0
C3855 C 0.16649 0.9091 0.90647 0.0
C3856 C 0.1876 0.92265 0.11008 0.0
C3857 C 0.18152 0.92789 0.13991 0.0
C3858 C 0.18886 0.92249 0.03892 0.0
C3859 C 0.18417 0.92796 0.99632 0.0
C3860 C 0.17799 0.93326 0.02595 0.0
C3861 C 0.1766 0.93303 0.09762 0.0
C3862 C 0.1953 0.91651 0.00942 0.0
C3863 C 0.1731 0.93939 0.98212 0.0
H3864 H 0.20839 0.94323 0.80428 0.0
H3865 H 0.17499 0.91116 0.77771 0.0
H3866 H 0.20139 0.95164 0.96561 0.0
H3867 H 0.20996 0.94442 0.97455 0.0
H3868 H 0.21311 0.95471 0.9052 0.0
H3869 H 0.16056 0.90324 0.86524 0.0
H3870 H 0.16839 0.90363 0.94232 0.0
H3871 H 0.16172 0.91272 0.93588 0.0
H3872 H 0.19128 0.91851 0.1425 0.0
H3873 H 0.17192 0.93711 0.12063 0.0
H3874 H 0.2035 0.92317 0.98294 0.0
H3875 H 0.18964 0.90979 0.97077 0.0
H3876 H 0.1978 0.91207 0.0494 0.0
H3877 H 0.18047 0.94695 0.95458 0.0
H3878 H 0.16823 0.94279 0.01284 0.0
H3879 H 0.167 0.93318 0.94272 0.0
C3880 C 0.07632 0.26699 0.13778 0.0
C3881 C 0.07237 0.25588 0.16852 0.0
C3882 C 0.07652 0.2682 0.06655 0.0
C3883 C 0.07249 0.25803 0.02466 0.0
C3884 C 0.06847 0.24675 0.05505 0.0
C3885 C 0.06854 0.24582 0.1269 0.0
C3886 C 0.081 0.28042 0.03617 0.0
C3887 C 0.06398 0.23571 0.01176 0.0
C3888 C 0.06326 0.26312 0.85016 0.0
C3889 C 0.07349 0.26631 0.81149 0.0
C3890 C 0.06246 0.25949 0.91852 0.0
C3891 C 0.07226 0.25935 0.94919 0.0
C3892 C 0.08244 0.26213 0.90944 0.0
C3893 C 0.08291 0.26553 0.8407 0.0
C3894 C 0.05138 0.25643 0.95889 0.0
C3895 C 0.09314 0.26228 0.94063 0.0
H3896 H 0.07941 0.27484 0.16948 0.0
H3897 H 0.06546 0.23721 0.15042 0.0
H3898 H 0.08834 0.28253 -0.00033 0.0
H3899 H 0.07378 0.28063 0.00703 0.0
H3900 H 0.08426 0.28748 0.07593 0.0
H3901 H 0.06138 0.22765 0.04319 0.0
H3902 H 0.05617 0.23435 0.98148 0.0
H3903 H 0.07091 0.23676 0.97469 0.0
H3904 H 0.05594 0.26363 0.82715 0.0
H3905 H 0.09087 0.26813 0.81083 0.0
H3906 H 0.05335 0.26359 0.9965 0.0
H3907 H 0.04836 0.24809 0.98818 0.0
H3908 H 0.04401 0.25539 0.92536 0.0
H3909 H 0.09756 0.26987 0.97671 0.0
H3910 H 0.0997 0.26318 0.90116 0.0
H3911 H 0.09042 0.25405 0.97044 0.0
C3912 C 0.20224 0.27279 0.81681 0.0
C3913 C 0.19311 0.26873 0.76808 0.0
C3914 C 0.19973 0.27044 0.88672 0.0
C3915 C 0.18777 0.26372 0.90842 0.0
C3916 C 0.17851 0.25915 0.85941 0.0
C3917 C 0.18128 0.26189 0.78988 0.0
C3918 C 0.20984 0.27566 0.93759 0.0
C3919 C 0.16566 0.25183 0.88065 0.0
C3920 C 0.18356 0.25347 0.09365 0.0
C3921 C 0.18223 0.26237 0.12594 0.0
C3922 C 0.18481 0.25343 0.02214 0.0
C3923 C 0.18498 0.26266 0.98268 0.0
C3924 C 0.18329 0.27145 0.01492 0.0
C3925 C 0.18181 0.27112 0.08605 0.0
C3926 C 0.18629 0.24376 0.98908 0.0
C3927 C 0.1836 0.28154 0.97474 0.0
H3928 H 0.21141 0.27808 0.80042 0.0
H3929 H 0.17411 0.25909 0.7535 0.0
H3930 H 0.20916 0.28229 0.97021 0.0
H3931 H 0.20934 0.26863 0.972 0.0
H3932 H 0.21866 0.28009 0.91208 0.0
H3933 H 0.15972 0.24745 0.83613 0.0
H3934 H 0.1645 0.24491 0.91816 0.0
H3935 H 0.16281 0.25763 0.90608 0.0
H3936 H 0.1838 0.24663 0.12431 0.0
H3937 H 0.18081 0.27805 0.11067 0.0
H3938 H 0.19543 0.24758 0.96838 0.0
H3939 H 0.18007 0.23981 0.94532 0.0
H3940 H 0.18472 0.23658 0.02583 0.0
H3941 H 0.19248 0.28697 0.95099 0.0
H3942 H 0.18173 0.28742 0.00733 0.0
H3943 H 0.17699 0.27802 0.93259 0.0
C3944 C 0.74047 0.92724 0.79628 0.0
C3945 C 0.72854 0.92239 0.77736 0.0
C3946 C 0.74371 0.92773 0.86531 0.0
C3947 C 0.73478 0.92346 0.91634 0.0
C3948 C 0.72273 0.91878 0.89747 0.0
C3949 C 0.71977 0.91835 0.82809 0.0
C3950 C 0.75664 0.93284 0.88366 0.0
C3951 C 0.71297 0.91418 0.95055 0.0
C3952 C 0.73871 0.91312 0.09041 0.0
C3953 C 0.74016 0.92249 0.13253 0.0
C3954 C 0.73761 0.9136 0.01921 0.0
C3955 C 0.73791 0.92368 0.98964 0.0
C3956 C 0.7401 0.93348 0.03137 0.0
C3957 C 0.74125 0.93279 0.10248 0.0
C3958 C 0.73545 0.90304 0.97618 0.0
C3959 C 0.7405 0.94439 0.00154 0.0
H3960 H 0.74731 0.93082 0.75719 0.0
H3961 H 0.71055 0.91476 0.81335 0.0
H3962 H 0.75953 0.9406 0.91813 0.0
H3963 H 0.75789 0.92615 0.91194 0.0
H3964 H 0.76247 0.9357 0.83771 0.0
H3965 H 0.70407 0.91098 0.92734 0.0
H3966 H 0.71281 0.90675 0.97951 0.0
H3967 H 0.71469 0.92129 0.98799 0.0
H3968 H 0.738 0.90518 0.11327 0.0
H3969 H 0.7424 0.94008 0.13475 0.0
H3970 H 0.74151 0.90596 0.93137 0.0
H3971 H 0.72623 0.89857 0.95613 0.0
H3972 H 0.73671 0.89646 0.00587 0.0
H3973 H 0.74642 0.94759 0.95614 0.0
H3974 H 0.74363 0.95174 0.03943 0.0
H3975 H 0.73148 0.94212 0.98411 0.0
C3976 C 0.06842 0.81195 0.79747 0.0
C3977 C 0.07665 0.80846 0.77911 0.0
C3978 C 0.06724 0.81455 0.86594 0.0
C3979 C 0.07442 0.81354 0.91703 0.0
C3980 C 0.08281 0.81011 0.89856 0.0
C3981 C 0.08377 0.80756 0.82988 0.0
C3982 C 0.05812 0.81807 0.88385 0.0
C3983 C 0.09066 0.80897 0.95153 0.0
C3984 C 0.08011 0.82836 0.09111 0.0
C3985 C 0.07308 0.81863 0.13364 0.0
C3986 C 0.08014 0.82699 0.01975 0.0
C3987 C 0.07296 0.81563 0.99038 0.0
C3988 C 0.06525 0.80595 0.03258 0.0
C3989 C 0.0654 0.80757 0.10372 0.0
C3990 C 0.08841 0.83754 0.97631 0.0
C3991 C 0.05737 0.79371 0.00313 0.0
H3992 H 0.06259 0.81225 0.7589 0.0
H3993 H 0.09013 0.80483 0.81579 0.0
H3994 H 0.05116 0.81116 0.91696 0.0
H3995 H 0.06232 0.82649 0.91338 0.0
H3996 H 0.05381 0.81921 0.8376 0.0
H3997 H 0.09698 0.80657 0.92835 0.0
H3998 H 0.0958 0.81745 0.97982 0.0
H3999 H 0.0851 0.80205 0.98954 0.0
H4000 H 0.08601 0.83696 0.11371 0.0
H4001 H 0.05985 0.80002 0.13612 0.0
H4002 H 0.08365 0.83829 0.93112 0.0
H4003 H 0.09573 0.83629 0.95685 0.0
H4004 H 0.09234 0.846 0.00558 0.0
H4005 H 0.05235 0.79416 0.95841 0.0
H4006 H 0.05097 0.78749 0.04149 0.0
H4007 H 0.06295 0.79002 0.98478 0.0
C4008 C 0.93286 0.52267 0.22194 0.0
C4009 C 0.92189 0.51609 0.18863 0.0
C4010 C 0.93359 0.52339 0.29337 0.0
C4011 C 0.92307 0.51751 0.33277 0.0
C4012 C 0.91195 0.51077 0.29977 0.0
C4013 C 0.91149 0.51008 0.22778 0.0
C4014 C 0.94565 0.53058 0.3266 0.0
C4015 C 0.90057 0.50449 0.34043 0.0
C4016 C 0.92935 0.51407 0.51808 0.0
C4017 C 0.93046 0.52446 0.54658 0.0
C4018 C 0.9261 0.51119 0.44915 0.0
C4019 C 0.92391 0.51891 0.40834 0.0
C4020 C 0.92434 0.52903 0.43822 0.0
C4021 C 0.92774 0.53176 0.50693 0.0
C4022 C 0.92586 0.50039 0.41889 0.0
C4023 C 0.92195 0.53741 0.39658 0.0
H4024 H 0.94096 0.52725 0.19211 0.0
H4025 H 0.903 0.50499 0.2022 0.0
H4026 H 0.94604 0.53812 0.35553 0.0
H4027 H 0.94716 0.52501 0.36377 0.0
H4028 H 0.95299 0.53419 0.28857 0.0
H4029 H 0.8927 0.49924 0.30721 0.0
H4030 H 0.90111 0.49846 0.37865 0.0
H4031 H 0.89925 0.5111 0.36927 0.0
H4032 H 0.93162 0.50852 0.54857 0.0
H4033 H 0.92851 0.53975 0.52933 0.0
H4034 H 0.9337 0.50326 0.38514 0.0
H4035 H 0.91782 0.49527 0.38687 0.0
H4036 H 0.92606 0.49444 0.45912 0.0
H4037 H 0.92941 0.54245 0.36043 0.0
H4038 H 0.921 0.54387 0.42941 0.0
H4039 H 0.91376 0.53239 0.36561 0.0
C4040 C 0.48011 0.40417 0.53775 0.0
C4041 C 0.4752 0.41124 0.5556 0.0
C4042 C 0.48262 0.40304 0.46908 0.0
C4043 C 0.4801 0.40911 0.41744 0.0
C4044 C 0.47518 0.4163 0.43549 0.0
C4045 C 0.47268 0.41719 0.50442 0.0
C4046 C 0.48772 0.39516 0.45164 0.0
C4047 C 0.47244 0.42298 0.38191 0.0
C4048 C 0.49476 0.4159 0.24274 0.0
C4049 C 0.48539 0.40782 0.20106 0.0
C4050 C 0.49337 0.41604 0.31397 0.0
C4051 C 0.48238 0.40784 0.34417 0.0
C4052 C 0.47317 0.39914 0.30297 0.0
C4053 C 0.47478 0.39925 0.23181 0.0
C4054 C 0.5034 0.42542 0.35628 0.0
C4055 C 0.46138 0.39015 0.3335 0.0
H4056 H 0.48169 0.39926 0.57732 0.0
H4057 H 0.46876 0.42255 0.51845 0.0
H4058 H 0.48139 0.38771 0.41871 0.0
H4059 H 0.49607 0.40024 0.42205 0.0
H4060 H 0.48959 0.39143 0.49809 0.0
H4061 H 0.46894 0.42845 0.40474 0.0
H4062 H 0.48057 0.42889 0.35222 0.0
H4063 H 0.46577 0.41662 0.3452 0.0
H4064 H 0.50302 0.42251 0.2195 0.0
H4065 H 0.46753 0.39289 0.20004 0.0
H4066 H 0.50512 0.42137 0.40173 0.0
H4067 H 0.50088 0.4319 0.37537 0.0
H4068 H 0.51176 0.43031 0.32634 0.0
H4069 H 0.46273 0.38582 0.37885 0.0
H4070 H 0.45567 0.38318 0.29599 0.0
H4071 H 0.45657 0.39472 0.35118 0.0
C4072 C 0.60599 0.08489 0.20962 0.0
C4073 C 0.59552 0.07895 0.17136 0.0
C4074 C 0.60584 0.08313 0.2808 0.0
C4075 C 0.59491 0.07553 0.31403 0.0
C4076 C 0.58424 0.07013 0.27574 0.0
C4077 C 0.58471 0.07174 0.20458 0.0
C4078 C 0.61745 0.08877 0.31952 0.0
C4079 C 0.57237 0.06226 0.30946 0.0
C4080 C 0.59407 0.05848 0.47362 0.0
C4081 C 0.59287 0.06523 0.52583 0.0
C4082 C 0.59509 0.06194 0.40476 0.0
C4083 C 0.59468 0.0723 0.38737 0.0
C4084 C 0.5936 0.07924 0.43973 0.0
C4085 C 0.59298 0.07576 0.50848 0.0
C4086 C 0.59652 0.05445 0.35054 0.0
C4087 C 0.59297 0.09025 0.42307 0.0
H4088 H 0.61434 0.09035 0.18335 0.0
H4089 H 0.57662 0.06718 0.17455 0.0
H4090 H 0.61687 0.09333 0.36616 0.0
H4091 H 0.61936 0.08175 0.33657 0.0
H4092 H 0.62499 0.09527 0.28764 0.0
H4093 H 0.56483 0.05991 0.27396 0.0
H4094 H 0.57191 0.05393 0.32724 0.0
H4095 H 0.57131 0.06673 0.35516 0.0
H4096 H 0.5942 0.05044 0.4866 0.0
H4097 H 0.59278 0.08143 0.54841 0.0
H4098 H 0.60442 0.06006 0.31838 0.0
H4099 H 0.58866 0.0505 0.31622 0.0
H4100 H 0.59751 0.04714 0.373 0.0
H4101 H 0.60113 0.09677 0.39572 0.0
H4102 H 0.59193 0.09456 0.46968 0.0
H4103 H 0.58536 0.08794 0.38829 0.0
loop_
_geom_bond_atom_site_label_1
_geom_bond_atom_site_label_2
_geom_bond_distance
_geom_bond_site_symmetry_2
_ccdc_geom_bond_type
Co0 O3 1.970 . S
Co0 N17 1.989 . S
Co0 O25 1.967 . S
Co0 O32 1.920 . S
Co1 O4 1.966 . S
Co1 N10 2.022 . S
Co1 N18 1.993 . S
Co1 O26 1.941 . S
C2 O3 1.258 . S
C2 O4 1.263 . S
O3 Co0 1.970 . S
O3 C2 1.258 . S
O4 Co1 1.966 . S
O4 C2 1.263 . S
C5 O6 1.235 . S
C5 O32 1.289 . S
O6 C5 1.235 . S
C7 C9 1.400 1_554 S
C7 N10 1.351 . S
C7 C12 1.501 . S
C8 C9 1.387 . S
C8 N11 1.341 1_556 S
C9 C7 1.400 1_556 S
C9 C8 1.387 . S
N10 Co1 2.022 . S
N10 C7 1.351 . S
N10 N11 1.365 . S
N11 C8 1.341 1_554 S
N11 N10 1.365 . S
N11 H31 0.862 . S
C12 C7 1.501 . S
C12 H13 0.961 . S
C12 H14 0.961 . S
C12 H15 0.960 1_554 S
H13 C12 0.961 . S
H14 C12 0.961 . S
H15 C12 0.960 1_556 S
C16 N17 1.342 . S
C16 C20 1.401 . S
C16 C21 1.499 . S
N17 Co0 1.989 . S
N17 C16 1.342 . S
N17 N18 1.388 . S
N18 Co1 1.993 . S
N18 N17 1.388 . S
N18 C19 1.346 . S
C19 N18 1.346 . S
C19 C20 1.396 . S
C19 C29 1.510 . S
C20 C16 1.401 . S
C20 C19 1.396 . S
C21 C16 1.499 . S
C21 H22 0.959 . S
C21 H23 0.960 . S
C21 H24 0.961 . S
H22 C21 0.959 . S
H23 C21 0.960 . S
H24 C21 0.961 . S
O25 Co0 1.967 . S
O25 C33 1.258 . S
O26 Co1 1.941 . S
O26 C33 1.266 . S
H27 C29 0.959 . S
H28 C29 0.961 . S
C29 C19 1.510 . S
C29 H27 0.959 . S
C29 H28 0.961 . S
C29 H30 0.960 . S
H30 C29 0.960 . S
H31 N11 0.862 . S
O32 Co0 1.920 . S
O32 C5 1.289 . S
C33 O25 1.258 . S
C33 O26 1.266 . S
Co34 O37 1.970 . S
Co34 N51 1.989 . S
Co34 O59 1.967 . S
Co34 O66 1.920 . S
Co35 O38 1.966 . S
Co35 N44 2.022 . S
Co35 N52 1.993 . S
Co35 O60 1.941 . S
C36 O37 1.258 . S
C36 O38 1.263 . S
O37 Co34 1.970 . S
O37 C36 1.258 . S
O38 Co35 1.966 . S
O38 C36 1.263 . S
C39 O40 1.235 . S
C39 O66 1.289 . S
O40 C39 1.235 . S
C41 C43 1.400 1_554 S
C41 N44 1.351 . S
C41 C46 1.501 . S
C42 C43 1.387 . S
C42 N45 1.341 1_556 S
C43 C41 1.400 1_556 S
C43 C42 1.387 . S
N44 Co35 2.022 . S
N44 C41 1.351 . S
N44 N45 1.365 . S
N45 C42 1.341 1_554 S
N45 N44 1.365 . S
N45 H65 0.862 . S
C46 C41 1.501 . S
C46 H47 0.961 . S
C46 H48 0.961 . S
C46 H49 0.960 1_554 S
H47 C46 0.961 . S
H48 C46 0.961 . S
H49 C46 0.960 1_556 S
C50 N51 1.342 . S
C50 C54 1.401 . S
C50 C55 1.499 . S
N51 Co34 1.989 . S
N51 C50 1.342 . S
N51 N52 1.388 . S
N52 Co35 1.993 . S
N52 N51 1.388 . S
N52 C53 1.346 . S
C53 N52 1.346 . S
C53 C54 1.396 . S
C53 C63 1.510 . S
C54 C50 1.401 . S
C54 C53 1.396 . S
C55 C50 1.499 . S
C55 H56 0.959 . S
C55 H57 0.960 . S
C55 H58 0.961 . S
H56 C55 0.959 . S
H57 C55 0.960 . S
H58 C55 0.961 . S
O59 Co34 1.967 . S
O59 C67 1.258 . S
O60 Co35 1.941 . S
O60 C67 1.266 . S
H61 C63 0.959 . S
H62 C63 0.961 . S
C63 C53 1.510 . S
C63 H61 0.959 . S
C63 H62 0.961 . S
C63 H64 0.960 . S
H64 C63 0.960 . S
H65 N45 0.862 . S
O66 Co34 1.920 . S
O66 C39 1.289 . S
C67 O59 1.258 . S
C67 O60 1.266 . S
Co68 O71 1.970 . S
Co68 N85 1.989 . S
Co68 O93 1.967 . S
Co68 O100 1.920 . S
Co69 O72 1.966 . S
Co69 N78 2.022 . S
Co69 N86 1.993 . S
Co69 O94 1.941 . S
C70 O71 1.258 . S
C70 O72 1.263 . S
O71 Co68 1.970 . S
O71 C70 1.258 . S
O72 Co69 1.966 . S
O72 C70 1.263 . S
C73 O74 1.235 . S
C73 O100 1.289 . S
O74 C73 1.235 . S
C75 C77 1.400 1_554 S
C75 N78 1.351 . S
C75 C80 1.501 . S
C76 C77 1.387 . S
C76 N79 1.341 1_556 S
C77 C75 1.400 1_556 S
C77 C76 1.387 . S
N78 Co69 2.022 . S
N78 C75 1.351 . S
N78 N79 1.365 . S
N79 C76 1.341 1_554 S
N79 N78 1.365 . S
N79 H99 0.862 . S
C80 C75 1.501 . S
C80 H81 0.961 . S
C80 H82 0.961 . S
C80 H83 0.960 1_554 S
H81 C80 0.961 . S
H82 C80 0.961 . S
H83 C80 0.960 1_556 S
C84 N85 1.342 . S
C84 C88 1.401 . S
C84 C89 1.499 . S
N85 Co68 1.989 . S
N85 C84 1.342 . S
N85 N86 1.388 . S
N86 Co69 1.993 . S
N86 N85 1.388 . S
N86 C87 1.346 . S
C87 N86 1.346 . S
C87 C88 1.396 . S
C87 C97 1.510 . S
C88 C84 1.401 . S
C88 C87 1.396 . S
C89 C84 1.499 . S
C89 H90 0.959 . S
C89 H91 0.960 . S
C89 H92 0.961 . S
H90 C89 0.959 . S
H91 C89 0.960 . S
H92 C89 0.961 . S
O93 Co68 1.967 . S
O93 C101 1.258 . S
O94 Co69 1.941 . S
O94 C101 1.266 . S
H95 C97 0.959 . S
H96 C97 0.961 . S
C97 C87 1.510 . S
C97 H95 0.959 . S
C97 H96 0.961 . S
C97 H98 0.960 . S
H98 C97 0.960 . S
H99 N79 0.862 . S
O100 Co68 1.920 . S
O100 C73 1.289 . S
C101 O93 1.258 . S
C101 O94 1.266 . S
Co102 O105 1.970 . S
Co102 N119 1.989 . S
Co102 O127 1.967 . S
Co102 O134 1.920 . S
Co103 O106 1.966 . S
Co103 N112 2.022 . S
Co103 N120 1.993 . S
Co103 O128 1.941 . S
C104 O105 1.258 . S
C104 O106 1.263 . S
O105 Co102 1.970 . S
O105 C104 1.258 . S
O106 Co103 1.966 . S
O106 C104 1.263 . S
C107 O108 1.235 . S
C107 O134 1.289 . S
O108 C107 1.235 . S
C109 C111 1.400 1_556 S
C109 N112 1.351 . S
C109 C114 1.501 . S
C110 C111 1.387 . S
C110 N113 1.341 1_554 S
C111 C109 1.400 1_554 S
C111 C110 1.387 . S
N112 Co103 2.022 . S
N112 C109 1.351 . S
N112 N113 1.365 . S
N113 C110 1.341 1_556 S
N113 N112 1.365 . S
N113 H133 0.862 . S
C114 C109 1.501 . S
C114 H115 0.961 . S
C114 H116 0.961 . S
C114 H117 0.960 1_556 S
H115 C114 0.961 . S
H116 C114 0.961 . S
H117 C114 0.960 1_554 S
C118 N119 1.342 . S
C118 C122 1.401 . S
C118 C123 1.499 . S
N119 Co102 1.989 . S
N119 C118 1.342 . S
N119 N120 1.388 . S
N120 Co103 1.993 . S
N120 N119 1.388 . S
N120 C121 1.346 . S
C121 N120 1.346 . S
C121 C122 1.396 . S
C121 C131 1.510 . S
C122 C118 1.401 . S
C122 C121 1.396 . S
C123 C118 1.499 . S
C123 H124 0.959 . S
C123 H125 0.960 . S
C123 H126 0.961 . S
H124 C123 0.959 . S
H125 C123 0.960 . S
H126 C123 0.961 . S
O127 Co102 1.967 . S
O127 C135 1.258 . S
O128 Co103 1.941 . S
O128 C135 1.266 . S
H129 C131 0.959 . S
H130 C131 0.961 . S
C131 C121 1.510 . S
C131 H129 0.959 . S
C131 H130 0.961 . S
C131 H132 0.960 . S
H132 C131 0.960 . S
H133 N113 0.862 . S
O134 Co102 1.920 . S
O134 C107 1.289 . S
C135 O127 1.258 . S
C135 O128 1.266 . S
Co136 O139 1.970 . S
Co136 N153 1.989 . S
Co136 O161 1.967 . S
Co136 O168 1.920 . S
Co137 O140 1.966 . S
Co137 N146 2.022 . S
Co137 N154 1.993 . S
Co137 O162 1.941 . S
C138 O139 1.258 . S
C138 O140 1.263 . S
O139 Co136 1.970 . S
O139 C138 1.258 . S
O140 Co137 1.966 . S
O140 C138 1.263 . S
C141 O142 1.235 . S
C141 O168 1.289 . S
O142 C141 1.235 . S
C143 C145 1.400 1_556 S
C143 N146 1.351 . S
C143 C148 1.501 . S
C144 C145 1.387 . S
C144 N147 1.341 1_554 S
C145 C143 1.400 1_554 S
C145 C144 1.387 . S
N146 Co137 2.022 . S
N146 C143 1.351 . S
N146 N147 1.365 . S
N147 C144 1.341 1_556 S
N147 N146 1.365 . S
N147 H167 0.862 . S
C148 C143 1.501 . S
C148 H149 0.961 . S
C148 H150 0.961 . S
C148 H151 0.960 1_556 S
H149 C148 0.961 . S
H150 C148 0.961 . S
H151 C148 0.960 1_554 S
C152 N153 1.342 . S
C152 C156 1.401 . S
C152 C157 1.499 . S
N153 Co136 1.989 . S
N153 C152 1.342 . S
N153 N154 1.388 . S
N154 Co137 1.993 . S
N154 N153 1.388 . S
N154 C155 1.346 . S
C155 N154 1.346 . S
C155 C156 1.396 . S
C155 C165 1.510 . S
C156 C152 1.401 . S
C156 C155 1.396 . S
C157 C152 1.499 . S
C157 H158 0.959 . S
C157 H159 0.960 . S
C157 H160 0.961 . S
H158 C157 0.959 . S
H159 C157 0.960 . S
H160 C157 0.961 . S
O161 Co136 1.967 . S
O161 C169 1.258 . S
O162 Co137 1.941 . S
O162 C169 1.266 . S
H163 C165 0.959 . S
H164 C165 0.961 . S
C165 C155 1.510 . S
C165 H163 0.959 . S
C165 H164 0.961 . S
C165 H166 0.960 . S
H166 C165 0.960 . S
H167 N147 0.862 . S
O168 Co136 1.920 . S
O168 C141 1.289 . S
C169 O161 1.258 . S
C169 O162 1.266 . S
Co170 O173 1.970 . S
Co170 N187 1.989 . S
Co170 O195 1.967 . S
Co170 O202 1.920 . S
Co171 O174 1.966 . S
Co171 N180 2.022 . S
Co171 N188 1.993 . S
Co171 O196 1.941 . S
C172 O173 1.258 . S
C172 O174 1.263 . S
O173 Co170 1.970 . S
O173 C172 1.258 . S
O174 Co171 1.966 . S
O174 C172 1.263 . S
C175 O176 1.235 . S
C175 O202 1.289 . S
O176 C175 1.235 . S
C177 C179 1.400 1_556 S
C177 N180 1.351 . S
C177 C182 1.501 . S
C178 C179 1.387 . S
C178 N181 1.341 1_554 S
C179 C177 1.400 1_554 S
C179 C178 1.387 . S
N180 Co171 2.022 . S
N180 C177 1.351 . S
N180 N181 1.365 . S
N181 C178 1.341 1_556 S
N181 N180 1.365 . S
N181 H201 0.862 . S
C182 C177 1.501 . S
C182 H183 0.961 . S
C182 H184 0.961 . S
C182 H185 0.960 1_556 S
H183 C182 0.961 . S
H184 C182 0.961 . S
H185 C182 0.960 1_554 S
C186 N187 1.342 . S
C186 C190 1.401 . S
C186 C191 1.499 . S
N187 Co170 1.989 . S
N187 C186 1.342 . S
N187 N188 1.388 . S
N188 Co171 1.993 . S
N188 N187 1.388 . S
N188 C189 1.346 . S
C189 N188 1.346 . S
C189 C190 1.396 . S
C189 C199 1.510 . S
C190 C186 1.401 . S
C190 C189 1.396 . S
C191 C186 1.499 . S
C191 H192 0.959 . S
C191 H193 0.960 . S
C191 H194 0.961 . S
H192 C191 0.959 . S
H193 C191 0.960 . S
H194 C191 0.961 . S
O195 Co170 1.967 . S
O195 C203 1.258 . S
O196 Co171 1.941 . S
O196 C203 1.266 . S
H197 C199 0.959 . S
H198 C199 0.961 . S
C199 C189 1.510 . S
C199 H197 0.959 . S
C199 H198 0.961 . S
C199 H200 0.960 . S
H200 C199 0.960 . S
H201 N181 0.862 . S
O202 Co170 1.920 . S
O202 C175 1.289 . S
C203 O195 1.258 . S
C203 O196 1.266 . S
Co204 O207 1.970 . S
Co204 N221 1.989 . S
Co204 O229 1.967 . S
Co204 O236 1.920 . S
Co205 O208 1.966 . S
Co205 N214 2.022 . S
Co205 N222 1.993 . S
Co205 O230 1.941 . S
C206 O207 1.258 . S
C206 O208 1.263 . S
O207 Co204 1.970 . S
O207 C206 1.258 . S
O208 Co205 1.966 . S
O208 C206 1.263 . S
C209 O210 1.235 . S
C209 O236 1.289 . S
O210 C209 1.235 . S
C211 C213 1.400 1_556 S
C211 N214 1.351 . S
C211 C216 1.501 . S
C212 C213 1.387 . S
C212 N215 1.341 1_554 S
C213 C211 1.400 1_554 S
C213 C212 1.387 . S
N214 Co205 2.022 . S
N214 C211 1.351 . S
N214 N215 1.365 . S
N215 C212 1.341 1_556 S
N215 N214 1.365 . S
N215 H235 0.862 . S
C216 C211 1.501 . S
C216 H217 0.961 . S
C216 H218 0.961 . S
C216 H219 0.960 1_556 S
H217 C216 0.961 . S
H218 C216 0.961 . S
H219 C216 0.960 1_554 S
C220 N221 1.342 . S
C220 C224 1.401 . S
C220 C225 1.499 . S
N221 Co204 1.989 . S
N221 C220 1.342 . S
N221 N222 1.388 . S
N222 Co205 1.993 . S
N222 N221 1.388 . S
N222 C223 1.346 . S
C223 N222 1.346 . S
C223 C224 1.396 . S
C223 C233 1.510 . S
C224 C220 1.401 . S
C224 C223 1.396 . S
C225 C220 1.499 . S
C225 H226 0.959 . S
C225 H227 0.960 . S
C225 H228 0.961 . S
H226 C225 0.959 . S
H227 C225 0.960 . S
H228 C225 0.961 . S
O229 Co204 1.967 . S
O229 C237 1.258 . S
O230 Co205 1.941 . S
O230 C237 1.266 . S
H231 C233 0.959 . S
H232 C233 0.961 . S
C233 C223 1.510 . S
C233 H231 0.959 . S
C233 H232 0.961 . S
C233 H234 0.960 . S
H234 C233 0.960 . S
H235 N215 0.862 . S
O236 Co204 1.920 . S
O236 C209 1.289 . S
C237 O229 1.258 . S
C237 O230 1.266 . S
Co238 O241 1.970 . S
Co238 N255 1.989 . S
Co238 O263 1.967 . S
Co238 O270 1.920 . S
Co239 O242 1.966 . S
Co239 N248 2.022 . S
Co239 N256 1.993 . S
Co239 O264 1.941 . S
C240 O241 1.258 . S
C240 O242 1.263 . S
O241 Co238 1.970 . S
O241 C240 1.258 . S
O242 Co239 1.966 . S
O242 C240 1.263 . S
C243 O244 1.235 . S
C243 O270 1.289 . S
O244 C243 1.235 . S
C245 C247 1.400 1_556 S
C245 N248 1.351 . S
C245 C250 1.501 . S
C246 C247 1.387 . S
C246 N249 1.341 1_554 S
C247 C245 1.400 1_554 S
C247 C246 1.387 . S
N248 Co239 2.022 . S
N248 C245 1.351 . S
N248 N249 1.365 . S
N249 C246 1.341 1_556 S
N249 N248 1.365 . S
N249 H269 0.862 . S
C250 C245 1.501 . S
C250 H251 0.961 . S
C250 H252 0.961 . S
C250 H253 0.960 1_556 S
H251 C250 0.961 . S
H252 C250 0.961 . S
H253 C250 0.960 1_554 S
C254 N255 1.342 . S
C254 C258 1.401 . S
C254 C259 1.499 . S
N255 Co238 1.989 . S
N255 C254 1.342 . S
N255 N256 1.388 . S
N256 Co239 1.993 . S
N256 N255 1.388 . S
N256 C257 1.346 . S
C257 N256 1.346 . S
C257 C258 1.396 . S
C257 C267 1.510 . S
C258 C254 1.401 . S
C258 C257 1.396 . S
C259 C254 1.499 . S
C259 H260 0.959 . S
C259 H261 0.960 . S
C259 H262 0.961 . S
H260 C259 0.959 . S
H261 C259 0.960 . S
H262 C259 0.961 . S
O263 Co238 1.967 . S
O263 C271 1.258 . S
O264 Co239 1.941 . S
O264 C271 1.266 . S
H265 C267 0.959 . S
H266 C267 0.961 . S
C267 C257 1.510 . S
C267 H265 0.959 . S
C267 H266 0.961 . S
C267 H268 0.960 . S
H268 C267 0.960 . S
H269 N249 0.862 . S
O270 Co238 1.920 . S
O270 C243 1.289 . S
C271 O263 1.258 . S
C271 O264 1.266 . S
Co272 O275 1.970 . S
Co272 N289 1.989 . S
Co272 O297 1.967 . S
Co272 O304 1.920 . S
Co273 O276 1.966 . S
Co273 N282 2.022 . S
Co273 N290 1.993 . S
Co273 O298 1.941 . S
C274 O275 1.258 . S
C274 O276 1.263 . S
O275 Co272 1.970 . S
O275 C274 1.258 . S
O276 Co273 1.966 . S
O276 C274 1.263 . S
C277 O278 1.235 . S
C277 O304 1.289 . S
O278 C277 1.235 . S
C279 C281 1.400 1_556 S
C279 N282 1.351 . S
C279 C284 1.501 . S
C280 C281 1.387 . S
C280 N283 1.341 1_554 S
C281 C279 1.400 1_554 S
C281 C280 1.387 . S
N282 Co273 2.022 . S
N282 C279 1.351 . S
N282 N283 1.365 . S
N283 C280 1.341 1_556 S
N283 N282 1.365 . S
N283 H303 0.862 . S
C284 C279 1.501 . S
C284 H285 0.961 . S
C284 H286 0.961 . S
C284 H287 0.960 1_556 S
H285 C284 0.961 . S
H286 C284 0.961 . S
H287 C284 0.960 1_554 S
C288 N289 1.342 . S
C288 C292 1.401 . S
C288 C293 1.499 . S
N289 Co272 1.989 . S
N289 C288 1.342 . S
N289 N290 1.388 . S
N290 Co273 1.993 . S
N290 N289 1.388 . S
N290 C291 1.346 . S
C291 N290 1.346 . S
C291 C292 1.396 . S
C291 C301 1.510 . S
C292 C288 1.401 . S
C292 C291 1.396 . S
C293 C288 1.499 . S
C293 H294 0.959 . S
C293 H295 0.960 . S
C293 H296 0.961 . S
H294 C293 0.959 . S
H295 C293 0.960 . S
H296 C293 0.961 . S
O297 Co272 1.967 . S
O297 C305 1.258 . S
O298 Co273 1.941 . S
O298 C305 1.266 . S
H299 C301 0.959 . S
H300 C301 0.961 . S
C301 C291 1.510 . S
C301 H299 0.959 . S
C301 H300 0.961 . S
C301 H302 0.960 . S
H302 C301 0.960 . S
H303 N283 0.862 . S
O304 Co272 1.920 . S
O304 C277 1.289 . S
C305 O297 1.258 . S
C305 O298 1.266 . S
Co306 O309 1.970 . S
Co306 N323 1.989 . S
Co306 O331 1.967 . S
Co306 O338 1.920 . S
Co307 O310 1.966 . S
Co307 N316 2.022 . S
Co307 N324 1.993 . S
Co307 O332 1.941 . S
C308 O309 1.258 . S
C308 O310 1.263 . S
O309 Co306 1.970 . S
O309 C308 1.258 . S
O310 Co307 1.966 . S
O310 C308 1.263 . S
C311 O312 1.235 . S
C311 O338 1.289 . S
O312 C311 1.235 . S
C313 C315 1.400 1_554 S
C313 N316 1.351 . S
C313 C318 1.501 . S
C314 C315 1.387 . S
C314 N317 1.341 1_556 S
C315 C313 1.400 1_556 S
C315 C314 1.387 . S
N316 Co307 2.022 . S
N316 C313 1.351 . S
N316 N317 1.365 . S
N317 C314 1.341 1_554 S
N317 N316 1.365 . S
N317 H337 0.862 . S
C318 C313 1.501 . S
C318 H319 0.961 . S
C318 H320 0.961 . S
C318 H321 0.960 1_554 S
H319 C318 0.961 . S
H320 C318 0.961 . S
H321 C318 0.960 1_556 S
C322 N323 1.342 . S
C322 C326 1.401 . S
C322 C327 1.499 . S
N323 Co306 1.989 . S
N323 C322 1.342 . S
N323 N324 1.388 . S
N324 Co307 1.993 . S
N324 N323 1.388 . S
N324 C325 1.346 . S
C325 N324 1.346 . S
C325 C326 1.396 . S
C325 C335 1.510 . S
C326 C322 1.401 . S
C326 C325 1.396 . S
C327 C322 1.499 . S
C327 H328 0.959 . S
C327 H329 0.960 . S
C327 H330 0.961 . S
H328 C327 0.959 . S
H329 C327 0.960 . S
H330 C327 0.961 . S
O331 Co306 1.967 . S
O331 C339 1.258 . S
O332 Co307 1.941 . S
O332 C339 1.266 . S
H333 C335 0.959 . S
H334 C335 0.961 . S
C335 C325 1.510 . S
C335 H333 0.959 . S
C335 H334 0.961 . S
C335 H336 0.960 . S
H336 C335 0.960 . S
H337 N317 0.862 . S
O338 Co306 1.920 . S
O338 C311 1.289 . S
C339 O331 1.258 . S
C339 O332 1.266 . S
Co340 O343 1.970 . S
Co340 N357 1.989 . S
Co340 O365 1.967 . S
Co340 O372 1.920 . S
Co341 O344 1.966 . S
Co341 N350 2.022 . S
Co341 N358 1.993 . S
Co341 O366 1.941 . S
C342 O343 1.258 . S
C342 O344 1.263 . S
O343 Co340 1.970 . S
O343 C342 1.258 . S
O344 Co341 1.966 . S
O344 C342 1.263 . S
C345 O346 1.235 . S
C345 O372 1.289 . S
O346 C345 1.235 . S
C347 C349 1.400 1_554 S
C347 N350 1.351 . S
C347 C352 1.501 . S
C348 C349 1.387 . S
C348 N351 1.341 1_556 S
C349 C347 1.400 1_556 S
C349 C348 1.387 . S
N350 Co341 2.022 . S
N350 C347 1.351 . S
N350 N351 1.365 . S
N351 C348 1.341 1_554 S
N351 N350 1.365 . S
N351 H371 0.862 . S
C352 C347 1.501 . S
C352 H353 0.961 . S
C352 H354 0.961 . S
C352 H355 0.960 1_554 S
H353 C352 0.961 . S
H354 C352 0.961 . S
H355 C352 0.960 1_556 S
C356 N357 1.342 . S
C356 C360 1.401 . S
C356 C361 1.499 . S
N357 Co340 1.989 . S
N357 C356 1.342 . S
N357 N358 1.388 . S
N358 Co341 1.993 . S
N358 N357 1.388 . S
N358 C359 1.346 . S
C359 N358 1.346 . S
C359 C360 1.396 . S
C359 C369 1.510 . S
C360 C356 1.401 . S
C360 C359 1.396 . S
C361 C356 1.499 . S
C361 H362 0.959 . S
C361 H363 0.960 . S
C361 H364 0.961 . S
H362 C361 0.959 . S
H363 C361 0.960 . S
H364 C361 0.961 . S
O365 Co340 1.967 . S
O365 C373 1.258 . S
O366 Co341 1.941 . S
O366 C373 1.266 . S
H367 C369 0.959 . S
H368 C369 0.961 . S
C369 C359 1.510 . S
C369 H367 0.959 . S
C369 H368 0.961 . S
C369 H370 0.960 . S
H370 C369 0.960 . S
H371 N351 0.862 . S
O372 Co340 1.920 . S
O372 C345 1.289 . S
C373 O365 1.258 . S
C373 O366 1.266 . S
Co374 O377 1.970 . S
Co374 N391 1.989 . S
Co374 O399 1.967 . S
Co374 O406 1.920 . S
Co375 O378 1.966 . S
Co375 N384 2.022 . S
Co375 N392 1.993 . S
Co375 O400 1.941 . S
C376 O377 1.258 . S
C376 O378 1.263 . S
O377 Co374 1.970 . S
O377 C376 1.258 . S
O378 Co375 1.966 . S
O378 C376 1.263 . S
C379 O380 1.235 . S
C379 O406 1.289 . S
O380 C379 1.235 . S
C381 C383 1.400 1_554 S
C381 N384 1.351 . S
C381 C386 1.501 . S
C382 C383 1.387 . S
C382 N385 1.341 1_556 S
C383 C381 1.400 1_556 S
C383 C382 1.387 . S
N384 Co375 2.022 . S
N384 C381 1.351 . S
N384 N385 1.365 . S
N385 C382 1.341 1_554 S
N385 N384 1.365 . S
N385 H405 0.862 . S
C386 C381 1.501 . S
C386 H387 0.961 . S
C386 H388 0.961 . S
C386 H389 0.960 1_554 S
H387 C386 0.961 . S
H388 C386 0.961 . S
H389 C386 0.960 1_556 S
C390 N391 1.342 . S
C390 C394 1.401 . S
C390 C395 1.499 . S
N391 Co374 1.989 . S
N391 C390 1.342 . S
N391 N392 1.388 . S
N392 Co375 1.993 . S
N392 N391 1.388 . S
N392 C393 1.346 . S
C393 N392 1.346 . S
C393 C394 1.396 . S
C393 C403 1.510 . S
C394 C390 1.401 . S
C394 C393 1.396 . S
C395 C390 1.499 . S
C395 H396 0.959 . S
C395 H397 0.960 . S
C395 H398 0.961 . S
H396 C395 0.959 . S
H397 C395 0.960 . S
H398 C395 0.961 . S
O399 Co374 1.967 . S
O399 C407 1.258 . S
O400 Co375 1.941 . S
O400 C407 1.266 . S
H401 C403 0.959 . S
H402 C403 0.961 . S
C403 C393 1.510 . S
C403 H401 0.959 . S
C403 H402 0.961 . S
C403 H404 0.960 . S
H404 C403 0.960 . S
H405 N385 0.862 . S
O406 Co374 1.920 . S
O406 C379 1.289 . S
C407 O399 1.258 . S
C407 O400 1.266 . S
Co408 O411 1.970 . S
Co408 N425 1.989 . S
Co408 O433 1.967 . S
Co408 O440 1.920 . S
Co409 O412 1.966 . S
Co409 N418 2.022 . S
Co409 N426 1.993 . S
Co409 O434 1.941 . S
C410 O411 1.258 . S
C410 O412 1.263 . S
O411 Co408 1.970 . S
O411 C410 1.258 . S
O412 Co409 1.966 . S
O412 C410 1.263 . S
C413 O414 1.235 . S
C413 O440 1.289 . S
O414 C413 1.235 . S
C415 C417 1.400 . S
C415 N418 1.351 . S
C415 C420 1.501 . S
C416 C417 1.387 . S
C416 N419 1.341 . S
C417 C415 1.400 . S
C417 C416 1.387 . S
N418 Co409 2.022 . S
N418 C415 1.351 . S
N418 N419 1.365 . S
N419 C416 1.341 . S
N419 N418 1.365 . S
N419 H439 0.862 . S
C420 C415 1.501 . S
C420 H421 0.961 . S
C420 H422 0.961 . S
C420 H423 0.960 . S
H421 C420 0.961 . S
H422 C420 0.961 . S
H423 C420 0.960 . S
C424 N425 1.342 . S
C424 C428 1.401 . S
C424 C429 1.499 . S
N425 Co408 1.989 . S
N425 C424 1.342 . S
N425 N426 1.388 . S
N426 Co409 1.993 . S
N426 N425 1.388 . S
N426 C427 1.346 . S
C427 N426 1.346 . S
C427 C428 1.396 . S
C427 C437 1.510 . S
C428 C424 1.401 . S
C428 C427 1.396 . S
C429 C424 1.499 . S
C429 H430 0.959 . S
C429 H431 0.960 . S
C429 H432 0.961 . S
H430 C429 0.959 . S
H431 C429 0.960 . S
H432 C429 0.961 . S
O433 Co408 1.967 . S
O433 C441 1.258 . S
O434 Co409 1.941 . S
O434 C441 1.266 . S
H435 C437 0.959 . S
H436 C437 0.961 . S
C437 C427 1.510 . S
C437 H435 0.959 . S
C437 H436 0.961 . S
C437 H438 0.960 . S
H438 C437 0.960 . S
H439 N419 0.862 . S
O440 Co408 1.920 . S
O440 C413 1.289 . S
C441 O433 1.258 . S
C441 O434 1.266 . S
Co442 O445 1.970 . S
Co442 N459 1.989 . S
Co442 O467 1.967 . S
Co442 O474 1.920 . S
Co443 O446 1.966 . S
Co443 N452 2.022 . S
Co443 N460 1.993 . S
Co443 O468 1.941 . S
C444 O445 1.258 . S
C444 O446 1.263 . S
O445 Co442 1.970 . S
O445 C444 1.258 . S
O446 Co443 1.966 . S
O446 C444 1.263 . S
C447 O448 1.235 . S
C447 O474 1.289 . S
O448 C447 1.235 . S
C449 C451 1.400 . S
C449 N452 1.351 . S
C449 C454 1.501 . S
C450 C451 1.387 . S
C450 N453 1.341 . S
C451 C449 1.400 . S
C451 C450 1.387 . S
N452 Co443 2.022 . S
N452 C449 1.351 . S
N452 N453 1.365 . S
N453 C450 1.341 . S
N453 N452 1.365 . S
N453 H473 0.862 . S
C454 C449 1.501 . S
C454 H455 0.961 . S
C454 H456 0.961 . S
C454 H457 0.960 . S
H455 C454 0.961 . S
H456 C454 0.961 . S
H457 C454 0.960 . S
C458 N459 1.342 . S
C458 C462 1.401 . S
C458 C463 1.499 . S
N459 Co442 1.989 . S
N459 C458 1.342 . S
N459 N460 1.388 . S
N460 Co443 1.993 . S
N460 N459 1.388 . S
N460 C461 1.346 . S
C461 N460 1.346 . S
C461 C462 1.396 . S
C461 C471 1.510 . S
C462 C458 1.401 . S
C462 C461 1.396 . S
C463 C458 1.499 . S
C463 H464 0.959 . S
C463 H465 0.960 . S
C463 H466 0.961 . S
H464 C463 0.959 . S
H465 C463 0.960 . S
H466 C463 0.961 . S
O467 Co442 1.967 . S
O467 C475 1.258 . S
O468 Co443 1.941 . S
O468 C475 1.266 . S
H469 C471 0.959 . S
H470 C471 0.961 . S
C471 C461 1.510 . S
C471 H469 0.959 . S
C471 H470 0.961 . S
C471 H472 0.960 . S
H472 C471 0.960 . S
H473 N453 0.862 . S
O474 Co442 1.920 . S
O474 C447 1.289 . S
C475 O467 1.258 . S
C475 O468 1.266 . S
Co476 O479 1.970 . S
Co476 N493 1.989 . S
Co476 O501 1.967 . S
Co476 O508 1.920 . S
Co477 O480 1.966 . S
Co477 N486 2.022 . S
Co477 N494 1.993 . S
Co477 O502 1.941 . S
C478 O479 1.258 . S
C478 O480 1.263 . S
O479 Co476 1.970 . S
O479 C478 1.258 . S
O480 Co477 1.966 . S
O480 C478 1.263 . S
C481 O482 1.235 . S
C481 O508 1.289 . S
O482 C481 1.235 . S
C483 C485 1.400 . S
C483 N486 1.351 . S
C483 C488 1.501 . S
C484 C485 1.387 . S
C484 N487 1.341 . S
C485 C483 1.400 . S
C485 C484 1.387 . S
N486 Co477 2.022 . S
N486 C483 1.351 . S
N486 N487 1.365 . S
N487 C484 1.341 . S
N487 N486 1.365 . S
N487 H507 0.862 . S
C488 C483 1.501 . S
C488 H489 0.961 . S
C488 H490 0.961 . S
C488 H491 0.960 . S
H489 C488 0.961 . S
H490 C488 0.961 . S
H491 C488 0.960 . S
C492 N493 1.342 . S
C492 C496 1.401 . S
C492 C497 1.499 . S
N493 Co476 1.989 . S
N493 C492 1.342 . S
N493 N494 1.388 . S
N494 Co477 1.993 . S
N494 N493 1.388 . S
N494 C495 1.346 . S
C495 N494 1.346 . S
C495 C496 1.396 . S
C495 C505 1.510 . S
C496 C492 1.401 . S
C496 C495 1.396 . S
C497 C492 1.499 . S
C497 H498 0.959 . S
C497 H499 0.960 . S
C497 H500 0.961 . S
H498 C497 0.959 . S
H499 C497 0.960 . S
H500 C497 0.961 . S
O501 Co476 1.967 . S
O501 C509 1.258 . S
O502 Co477 1.941 . S
O502 C509 1.266 . S
H503 C505 0.959 . S
H504 C505 0.961 . S
C505 C495 1.510 . S
C505 H503 0.959 . S
C505 H504 0.961 . S
C505 H506 0.960 . S
H506 C505 0.960 . S
H507 N487 0.862 . S
O508 Co476 1.920 . S
O508 C481 1.289 . S
C509 O501 1.258 . S
C509 O502 1.266 . S
Co510 O513 1.970 . S
Co510 N527 1.989 . S
Co510 O535 1.967 . S
Co510 O542 1.920 1_554 S
Co511 O514 1.966 . S
Co511 N520 2.022 . S
Co511 N528 1.993 . S
Co511 O536 1.941 . S
C512 O513 1.258 . S
C512 O514 1.263 . S
O513 Co510 1.970 . S
O513 C512 1.258 . S
O514 Co511 1.966 . S
O514 C512 1.263 . S
C515 O516 1.235 . S
C515 O542 1.289 . S
O516 C515 1.235 . S
C517 C519 1.400 . S
C517 N520 1.351 . S
C517 C522 1.501 . S
C518 C519 1.387 . S
C518 N521 1.341 . S
C519 C517 1.400 . S
C519 C518 1.387 . S
N520 Co511 2.022 . S
N520 C517 1.351 . S
N520 N521 1.365 . S
N521 C518 1.341 . S
N521 N520 1.365 . S
N521 H541 0.862 . S
C522 C517 1.501 . S
C522 H523 0.961 . S
C522 H524 0.961 . S
C522 H525 0.960 . S
H523 C522 0.961 . S
H524 C522 0.961 . S
H525 C522 0.960 . S
C526 N527 1.342 . S
C526 C530 1.401 . S
C526 C531 1.499 1_554 S
N527 Co510 1.989 . S
N527 C526 1.342 . S
N527 N528 1.388 . S
N528 Co511 1.993 . S
N528 N527 1.388 . S
N528 C529 1.346 . S
C529 N528 1.346 . S
C529 C530 1.396 . S
C529 C539 1.510 . S
C530 C526 1.401 . S
C530 C529 1.396 . S
C531 C526 1.499 1_556 S
C531 H532 0.959 . S
C531 H533 0.960 . S
C531 H534 0.961 . S
H532 C531 0.959 . S
H533 C531 0.960 . S
H534 C531 0.961 . S
O535 Co510 1.967 . S
O535 C543 1.258 . S
O536 Co511 1.941 . S
O536 C543 1.266 . S
H537 C539 0.959 . S
H538 C539 0.961 . S
C539 C529 1.510 . S
C539 H537 0.959 . S
C539 H538 0.961 . S
C539 H540 0.960 . S
H540 C539 0.960 . S
H541 N521 0.862 . S
O542 Co510 1.920 1_556 S
O542 C515 1.289 . S
C543 O535 1.258 . S
C543 O536 1.266 . S
Co544 O547 1.970 . S
Co544 N561 1.989 . S
Co544 O569 1.967 . S
Co544 O576 1.920 1_554 S
Co545 O548 1.966 . S
Co545 N554 2.022 . S
Co545 N562 1.993 . S
Co545 O570 1.941 . S
C546 O547 1.258 . S
C546 O548 1.263 . S
O547 Co544 1.970 . S
O547 C546 1.258 . S
O548 Co545 1.966 . S
O548 C546 1.263 . S
C549 O550 1.235 . S
C549 O576 1.289 . S
O550 C549 1.235 . S
C551 C553 1.400 . S
C551 N554 1.351 . S
C551 C556 1.501 . S
C552 C553 1.387 . S
C552 N555 1.341 . S
C553 C551 1.400 . S
C553 C552 1.387 . S
N554 Co545 2.022 . S
N554 C551 1.351 . S
N554 N555 1.365 . S
N555 C552 1.341 . S
N555 N554 1.365 . S
N555 H575 0.862 . S
C556 C551 1.501 . S
C556 H557 0.961 . S
C556 H558 0.961 . S
C556 H559 0.960 . S
H557 C556 0.961 . S
H558 C556 0.961 . S
H559 C556 0.960 . S
C560 N561 1.342 . S
C560 C564 1.401 . S
C560 C565 1.499 1_554 S
N561 Co544 1.989 . S
N561 C560 1.342 . S
N561 N562 1.388 . S
N562 Co545 1.993 . S
N562 N561 1.388 . S
N562 C563 1.346 . S
C563 N562 1.346 . S
C563 C564 1.396 . S
C563 C573 1.510 . S
C564 C560 1.401 . S
C564 C563 1.396 . S
C565 C560 1.499 1_556 S
C565 H566 0.959 . S
C565 H567 0.960 . S
C565 H568 0.961 . S
H566 C565 0.959 . S
H567 C565 0.960 . S
H568 C565 0.961 . S
O569 Co544 1.967 . S
O569 C577 1.258 . S
O570 Co545 1.941 . S
O570 C577 1.266 . S
H571 C573 0.959 . S
H572 C573 0.961 . S
C573 C563 1.510 . S
C573 H571 0.959 . S
C573 H572 0.961 . S
C573 H574 0.960 . S
H574 C573 0.960 . S
H575 N555 0.862 . S
O576 Co544 1.920 1_556 S
O576 C549 1.289 . S
C577 O569 1.258 . S
C577 O570 1.266 . S
Co578 O581 1.970 . S
Co578 N595 1.989 . S
Co578 O603 1.967 . S
Co578 O610 1.920 1_554 S
Co579 O582 1.966 . S
Co579 N588 2.022 . S
Co579 N596 1.993 . S
Co579 O604 1.941 . S
C580 O581 1.258 . S
C580 O582 1.263 . S
O581 Co578 1.970 . S
O581 C580 1.258 . S
O582 Co579 1.966 . S
O582 C580 1.263 . S
C583 O584 1.235 . S
C583 O610 1.289 . S
O584 C583 1.235 . S
C585 C587 1.400 . S
C585 N588 1.351 . S
C585 C590 1.501 . S
C586 C587 1.387 . S
C586 N589 1.341 . S
C587 C585 1.400 . S
C587 C586 1.387 . S
N588 Co579 2.022 . S
N588 C585 1.351 . S
N588 N589 1.365 . S
N589 C586 1.341 . S
N589 N588 1.365 . S
N589 H609 0.862 . S
C590 C585 1.501 . S
C590 H591 0.961 . S
C590 H592 0.961 . S
C590 H593 0.960 . S
H591 C590 0.961 . S
H592 C590 0.961 . S
H593 C590 0.960 . S
C594 N595 1.342 . S
C594 C598 1.401 . S
C594 C599 1.499 1_554 S
N595 Co578 1.989 . S
N595 C594 1.342 . S
N595 N596 1.388 . S
N596 Co579 1.993 . S
N596 N595 1.388 . S
N596 C597 1.346 . S
C597 N596 1.346 . S
C597 C598 1.396 . S
C597 C607 1.510 . S
C598 C594 1.401 . S
C598 C597 1.396 . S
C599 C594 1.499 1_556 S
C599 H600 0.959 . S
C599 H601 0.960 . S
C599 H602 0.961 . S
H600 C599 0.959 . S
H601 C599 0.960 . S
H602 C599 0.961 . S
O603 Co578 1.967 . S
O603 C611 1.258 . S
O604 Co579 1.941 . S
O604 C611 1.266 . S
H605 C607 0.959 . S
H606 C607 0.961 . S
C607 C597 1.510 . S
C607 H605 0.959 . S
C607 H606 0.961 . S
C607 H608 0.960 . S
H608 C607 0.960 . S
H609 N589 0.862 . S
O610 Co578 1.920 1_556 S
O610 C583 1.289 . S
C611 O603 1.258 . S
C611 O604 1.266 . S
Co612 O615 1.970 . S
Co612 N629 1.989 . S
Co612 O637 1.967 . S
Co612 O644 1.920 1_554 S
Co613 O616 1.966 . S
Co613 N622 2.022 . S
Co613 N630 1.993 . S
Co613 O638 1.941 . S
C614 O615 1.258 . S
C614 O616 1.263 . S
O615 Co612 1.970 . S
O615 C614 1.258 . S
O616 Co613 1.966 . S
O616 C614 1.263 . S
C617 O618 1.235 . S
C617 O644 1.289 . S
O618 C617 1.235 . S
C619 C621 1.400 . S
C619 N622 1.351 . S
C619 C624 1.501 . S
C620 C621 1.387 . S
C620 N623 1.341 . S
C621 C619 1.400 . S
C621 C620 1.387 . S
N622 Co613 2.022 . S
N622 C619 1.351 . S
N622 N623 1.365 . S
N623 C620 1.341 . S
N623 N622 1.365 . S
N623 H643 0.862 . S
C624 C619 1.501 . S
C624 H625 0.961 . S
C624 H626 0.961 . S
C624 H627 0.960 . S
H625 C624 0.961 . S
H626 C624 0.961 . S
H627 C624 0.960 . S
C628 N629 1.342 . S
C628 C632 1.401 . S
C628 C633 1.499 1_554 S
N629 Co612 1.989 . S
N629 C628 1.342 . S
N629 N630 1.388 . S
N630 Co613 1.993 . S
N630 N629 1.388 . S
N630 C631 1.346 . S
C631 N630 1.346 . S
C631 C632 1.396 . S
C631 C641 1.510 . S
C632 C628 1.401 . S
C632 C631 1.396 . S
C633 C628 1.499 1_556 S
C633 H634 0.959 . S
C633 H635 0.960 . S
C633 H636 0.961 . S
H634 C633 0.959 . S
H635 C633 0.960 . S
H636 C633 0.961 . S
O637 Co612 1.967 . S
O637 C645 1.258 . S
O638 Co613 1.941 . S
O638 C645 1.266 . S
H639 C641 0.959 . S
H640 C641 0.961 . S
C641 C631 1.510 . S
C641 H639 0.959 . S
C641 H640 0.961 . S
C641 H642 0.960 . S
H642 C641 0.960 . S
H643 N623 0.862 . S
O644 Co612 1.920 1_556 S
O644 C617 1.289 . S
C645 O637 1.258 . S
C645 O638 1.266 . S
Co646 O649 1.970 . S
Co646 N663 1.989 . S
Co646 O671 1.967 . S
Co646 O678 1.920 1_554 S
Co647 O650 1.966 . S
Co647 N656 2.022 . S
Co647 N664 1.993 . S
Co647 O672 1.941 . S
C648 O649 1.258 . S
C648 O650 1.263 . S
O649 Co646 1.970 . S
O649 C648 1.258 . S
O650 Co647 1.966 . S
O650 C648 1.263 . S
C651 O652 1.235 . S
C651 O678 1.289 . S
O652 C651 1.235 . S
C653 C655 1.400 . S
C653 N656 1.351 . S
C653 C658 1.501 . S
C654 C655 1.387 . S
C654 N657 1.341 . S
C655 C653 1.400 . S
C655 C654 1.387 . S
N656 Co647 2.022 . S
N656 C653 1.351 . S
N656 N657 1.365 . S
N657 C654 1.341 . S
N657 N656 1.365 . S
N657 H677 0.862 . S
C658 C653 1.501 . S
C658 H659 0.961 . S
C658 H660 0.961 . S
C658 H661 0.960 . S
H659 C658 0.961 . S
H660 C658 0.961 . S
H661 C658 0.960 . S
C662 N663 1.342 . S
C662 C666 1.401 . S
C662 C667 1.499 1_554 S
N663 Co646 1.989 . S
N663 C662 1.342 . S
N663 N664 1.388 . S
N664 Co647 1.993 . S
N664 N663 1.388 . S
N664 C665 1.346 . S
C665 N664 1.346 . S
C665 C666 1.396 . S
C665 C675 1.510 . S
C666 C662 1.401 . S
C666 C665 1.396 . S
C667 C662 1.499 1_556 S
C667 H668 0.959 . S
C667 H669 0.960 . S
C667 H670 0.961 . S
H668 C667 0.959 . S
H669 C667 0.960 . S
H670 C667 0.961 . S
O671 Co646 1.967 . S
O671 C679 1.258 . S
O672 Co647 1.941 . S
O672 C679 1.266 . S
H673 C675 0.959 . S
H674 C675 0.961 . S
C675 C665 1.510 . S
C675 H673 0.959 . S
C675 H674 0.961 . S
C675 H676 0.960 . S
H676 C675 0.960 . S
H677 N657 0.862 . S
O678 Co646 1.920 1_556 S
O678 C651 1.289 . S
C679 O671 1.258 . S
C679 O672 1.266 . S
Co680 O683 1.970 . S
Co680 N697 1.989 . S
Co680 O705 1.967 . S
Co680 O712 1.920 1_554 S
Co681 O684 1.966 . S
Co681 N690 2.022 . S
Co681 N698 1.993 . S
Co681 O706 1.941 . S
C682 O683 1.258 . S
C682 O684 1.263 . S
O683 Co680 1.970 . S
O683 C682 1.258 . S
O684 Co681 1.966 . S
O684 C682 1.263 . S
C685 O686 1.235 . S
C685 O712 1.289 . S
O686 C685 1.235 . S
C687 C689 1.400 . S
C687 N690 1.351 . S
C687 C692 1.501 . S
C688 C689 1.387 . S
C688 N691 1.341 . S
C689 C687 1.400 . S
C689 C688 1.387 . S
N690 Co681 2.022 . S
N690 C687 1.351 . S
N690 N691 1.365 . S
N691 C688 1.341 . S
N691 N690 1.365 . S
N691 H711 0.862 . S
C692 C687 1.501 . S
C692 H693 0.961 . S
C692 H694 0.961 . S
C692 H695 0.960 . S
H693 C692 0.961 . S
H694 C692 0.961 . S
H695 C692 0.960 . S
C696 N697 1.342 . S
C696 C700 1.401 . S
C696 C701 1.499 1_554 S
N697 Co680 1.989 . S
N697 C696 1.342 . S
N697 N698 1.388 . S
N698 Co681 1.993 . S
N698 N697 1.388 . S
N698 C699 1.346 . S
C699 N698 1.346 . S
C699 C700 1.396 . S
C699 C709 1.510 . S
C700 C696 1.401 . S
C700 C699 1.396 . S
C701 C696 1.499 1_556 S
C701 H702 0.959 . S
C701 H703 0.960 . S
C701 H704 0.961 . S
H702 C701 0.959 . S
H703 C701 0.960 . S
H704 C701 0.961 . S
O705 Co680 1.967 . S
O705 C713 1.258 . S
O706 Co681 1.941 . S
O706 C713 1.266 . S
H707 C709 0.959 . S
H708 C709 0.961 . S
C709 C699 1.510 . S
C709 H707 0.959 . S
C709 H708 0.961 . S
C709 H710 0.960 . S
H710 C709 0.960 . S
H711 N691 0.862 . S
O712 Co680 1.920 1_556 S
O712 C685 1.289 . S
C713 O705 1.258 . S
C713 O706 1.266 . S
Co714 O717 1.970 . S
Co714 N731 1.989 . S
Co714 O739 1.967 . S
Co714 O746 1.920 . S
Co715 O718 1.966 . S
Co715 N724 2.022 . S
Co715 N732 1.993 . S
Co715 O740 1.941 . S
C716 O717 1.258 . S
C716 O718 1.263 . S
O717 Co714 1.970 . S
O717 C716 1.258 . S
O718 Co715 1.966 . S
O718 C716 1.263 . S
C719 O720 1.235 . S
C719 O746 1.289 . S
O720 C719 1.235 . S
C721 C723 1.400 . S
C721 N724 1.351 . S
C721 C726 1.501 . S
C722 C723 1.387 . S
C722 N725 1.341 . S
C723 C721 1.400 . S
C723 C722 1.387 . S
N724 Co715 2.022 . S
N724 C721 1.351 . S
N724 N725 1.365 . S
N725 C722 1.341 . S
N725 N724 1.365 . S
N725 H745 0.862 . S
C726 C721 1.501 . S
C726 H727 0.961 . S
C726 H728 0.961 . S
C726 H729 0.960 . S
H727 C726 0.961 . S
H728 C726 0.961 . S
H729 C726 0.960 . S
C730 N731 1.342 . S
C730 C734 1.401 . S
C730 C735 1.499 . S
N731 Co714 1.989 . S
N731 C730 1.342 . S
N731 N732 1.388 . S
N732 Co715 1.993 . S
N732 N731 1.388 . S
N732 C733 1.346 . S
C733 N732 1.346 . S
C733 C734 1.396 . S
C733 C743 1.510 . S
C734 C730 1.401 . S
C734 C733 1.396 . S
C735 C730 1.499 . S
C735 H736 0.959 . S
C735 H737 0.960 . S
C735 H738 0.961 . S
H736 C735 0.959 . S
H737 C735 0.960 . S
H738 C735 0.961 . S
O739 Co714 1.967 . S
O739 C747 1.258 . S
O740 Co715 1.941 . S
O740 C747 1.266 . S
H741 C743 0.959 . S
H742 C743 0.961 . S
C743 C733 1.510 . S
C743 H741 0.959 . S
C743 H742 0.961 . S
C743 H744 0.960 . S
H744 C743 0.960 . S
H745 N725 0.862 . S
O746 Co714 1.920 . S
O746 C719 1.289 . S
C747 O739 1.258 . S
C747 O740 1.266 . S
Co748 O751 1.970 . S
Co748 N765 1.989 . S
Co748 O773 1.967 . S
Co748 O780 1.920 . S
Co749 O752 1.966 . S
Co749 N758 2.022 . S
Co749 N766 1.993 . S
Co749 O774 1.941 . S
C750 O751 1.258 . S
C750 O752 1.263 . S
O751 Co748 1.970 . S
O751 C750 1.258 . S
O752 Co749 1.966 . S
O752 C750 1.263 . S
C753 O754 1.235 . S
C753 O780 1.289 . S
O754 C753 1.235 . S
C755 C757 1.400 . S
C755 N758 1.351 . S
C755 C760 1.501 . S
C756 C757 1.387 . S
C756 N759 1.341 . S
C757 C755 1.400 . S
C757 C756 1.387 . S
N758 Co749 2.022 . S
N758 C755 1.351 . S
N758 N759 1.365 . S
N759 C756 1.341 . S
N759 N758 1.365 . S
N759 H779 0.862 . S
C760 C755 1.501 . S
C760 H761 0.961 . S
C760 H762 0.961 . S
C760 H763 0.960 . S
H761 C760 0.961 . S
H762 C760 0.961 . S
H763 C760 0.960 . S
C764 N765 1.342 . S
C764 C768 1.401 . S
C764 C769 1.499 . S
N765 Co748 1.989 . S
N765 C764 1.342 . S
N765 N766 1.388 . S
N766 Co749 1.993 . S
N766 N765 1.388 . S
N766 C767 1.346 . S
C767 N766 1.346 . S
C767 C768 1.396 . S
C767 C777 1.510 . S
C768 C764 1.401 . S
C768 C767 1.396 . S
C769 C764 1.499 . S
C769 H770 0.959 . S
C769 H771 0.960 . S
C769 H772 0.961 . S
H770 C769 0.959 . S
H771 C769 0.960 . S
H772 C769 0.961 . S
O773 Co748 1.967 . S
O773 C781 1.258 . S
O774 Co749 1.941 . S
O774 C781 1.266 . S
H775 C777 0.959 . S
H776 C777 0.961 . S
C777 C767 1.510 . S
C777 H775 0.959 . S
C777 H776 0.961 . S
C777 H778 0.960 . S
H778 C777 0.960 . S
H779 N759 0.862 . S
O780 Co748 1.920 . S
O780 C753 1.289 . S
C781 O773 1.258 . S
C781 O774 1.266 . S
Co782 O785 1.970 . S
Co782 N799 1.989 . S
Co782 O807 1.967 . S
Co782 O814 1.920 . S
Co783 O786 1.966 . S
Co783 N792 2.022 . S
Co783 N800 1.993 . S
Co783 O808 1.941 . S
C784 O785 1.258 . S
C784 O786 1.263 . S
O785 Co782 1.970 . S
O785 C784 1.258 . S
O786 Co783 1.966 . S
O786 C784 1.263 . S
C787 O788 1.235 . S
C787 O814 1.289 . S
O788 C787 1.235 . S
C789 C791 1.400 . S
C789 N792 1.351 . S
C789 C794 1.501 . S
C790 C791 1.387 . S
C790 N793 1.341 . S
C791 C789 1.400 . S
C791 C790 1.387 . S
N792 Co783 2.022 . S
N792 C789 1.351 . S
N792 N793 1.365 . S
N793 C790 1.341 . S
N793 N792 1.365 . S
N793 H813 0.862 . S
C794 C789 1.501 . S
C794 H795 0.961 . S
C794 H796 0.961 . S
C794 H797 0.960 . S
H795 C794 0.961 . S
H796 C794 0.961 . S
H797 C794 0.960 . S
C798 N799 1.342 . S
C798 C802 1.401 . S
C798 C803 1.499 . S
N799 Co782 1.989 . S
N799 C798 1.342 . S
N799 N800 1.388 . S
N800 Co783 1.993 . S
N800 N799 1.388 . S
N800 C801 1.346 . S
C801 N800 1.346 . S
C801 C802 1.396 . S
C801 C811 1.510 . S
C802 C798 1.401 . S
C802 C801 1.396 . S
C803 C798 1.499 . S
C803 H804 0.959 . S
C803 H805 0.960 . S
C803 H806 0.961 . S
H804 C803 0.959 . S
H805 C803 0.960 . S
H806 C803 0.961 . S
O807 Co782 1.967 . S
O807 C815 1.258 . S
O808 Co783 1.941 . S
O808 C815 1.266 . S
H809 C811 0.959 . S
H810 C811 0.961 . S
C811 C801 1.510 . S
C811 H809 0.959 . S
C811 H810 0.961 . S
C811 H812 0.960 . S
H812 C811 0.960 . S
H813 N793 0.862 . S
O814 Co782 1.920 . S
O814 C787 1.289 . S
C815 O807 1.258 . S
C815 O808 1.266 . S
Co816 O819 1.970 . S
Co816 N833 1.989 . S
Co816 O841 1.967 . S
Co816 O848 1.920 1_556 S
Co817 O820 1.966 . S
Co817 N826 2.022 . S
Co817 N834 1.993 . S
Co817 O842 1.941 . S
C818 O819 1.258 . S
C818 O820 1.263 . S
O819 Co816 1.970 . S
O819 C818 1.258 . S
O820 Co817 1.966 . S
O820 C818 1.263 . S
C821 O822 1.235 . S
C821 O848 1.289 . S
O822 C821 1.235 . S
C823 C825 1.400 . S
C823 N826 1.351 . S
C823 C828 1.501 . S
C824 C825 1.387 . S
C824 N827 1.341 . S
C825 C823 1.400 . S
C825 C824 1.387 . S
N826 Co817 2.022 . S
N826 C823 1.351 . S
N826 N827 1.365 . S
N827 C824 1.341 . S
N827 N826 1.365 . S
N827 H847 0.862 . S
C828 C823 1.501 . S
C828 H829 0.961 . S
C828 H830 0.961 . S
C828 H831 0.960 . S
H829 C828 0.961 . S
H830 C828 0.961 . S
H831 C828 0.960 . S
C832 N833 1.342 . S
C832 C836 1.401 . S
C832 C837 1.499 1_556 S
N833 Co816 1.989 . S
N833 C832 1.342 . S
N833 N834 1.388 . S
N834 Co817 1.993 . S
N834 N833 1.388 . S
N834 C835 1.346 . S
C835 N834 1.346 . S
C835 C836 1.396 . S
C835 C845 1.510 . S
C836 C832 1.401 . S
C836 C835 1.396 . S
C837 C832 1.499 1_554 S
C837 H838 0.959 . S
C837 H839 0.960 . S
C837 H840 0.961 . S
H838 C837 0.959 . S
H839 C837 0.960 . S
H840 C837 0.961 . S
O841 Co816 1.967 . S
O841 C849 1.258 . S
O842 Co817 1.941 . S
O842 C849 1.266 . S
H843 C845 0.959 . S
H844 C845 0.961 . S
C845 C835 1.510 . S
C845 H843 0.959 . S
C845 H844 0.961 . S
C845 H846 0.960 . S
H846 C845 0.960 . S
H847 N827 0.862 . S
O848 Co816 1.920 1_554 S
O848 C821 1.289 . S
C849 O841 1.258 . S
C849 O842 1.266 . S
Co850 O853 1.970 . S
Co850 N867 1.989 . S
Co850 O875 1.967 . S
Co850 O882 1.920 1_556 S
Co851 O854 1.966 . S
Co851 N860 2.022 . S
Co851 N868 1.993 . S
Co851 O876 1.941 . S
C852 O853 1.258 . S
C852 O854 1.263 . S
O853 Co850 1.970 . S
O853 C852 1.258 . S
O854 Co851 1.966 . S
O854 C852 1.263 . S
C855 O856 1.235 . S
C855 O882 1.289 . S
O856 C855 1.235 . S
C857 C859 1.400 . S
C857 N860 1.351 . S
C857 C862 1.501 . S
C858 C859 1.387 . S
C858 N861 1.341 . S
C859 C857 1.400 . S
C859 C858 1.387 . S
N860 Co851 2.022 . S
N860 C857 1.351 . S
N860 N861 1.365 . S
N861 C858 1.341 . S
N861 N860 1.365 . S
N861 H881 0.862 . S
C862 C857 1.501 . S
C862 H863 0.961 . S
C862 H864 0.961 . S
C862 H865 0.960 . S
H863 C862 0.961 . S
H864 C862 0.961 . S
H865 C862 0.960 . S
C866 N867 1.342 . S
C866 C870 1.401 . S
C866 C871 1.499 1_556 S
N867 Co850 1.989 . S
N867 C866 1.342 . S
N867 N868 1.388 . S
N868 Co851 1.993 . S
N868 N867 1.388 . S
N868 C869 1.346 . S
C869 N868 1.346 . S
C869 C870 1.396 . S
C869 C879 1.510 . S
C870 C866 1.401 . S
C870 C869 1.396 . S
C871 C866 1.499 1_554 S
C871 H872 0.959 . S
C871 H873 0.960 . S
C871 H874 0.961 . S
H872 C871 0.959 . S
H873 C871 0.960 . S
H874 C871 0.961 . S
O875 Co850 1.967 . S
O875 C883 1.258 . S
O876 Co851 1.941 . S
O876 C883 1.266 . S
H877 C879 0.959 . S
H878 C879 0.961 . S
C879 C869 1.510 . S
C879 H877 0.959 . S
C879 H878 0.961 . S
C879 H880 0.960 . S
H880 C879 0.960 . S
H881 N861 0.862 . S
O882 Co850 1.920 1_554 S
O882 C855 1.289 . S
C883 O875 1.258 . S
C883 O876 1.266 . S
Co884 O887 1.970 . S
Co884 N901 1.989 . S
Co884 O909 1.967 . S
Co884 O916 1.920 1_556 S
Co885 O888 1.966 . S
Co885 N894 2.022 . S
Co885 N902 1.993 . S
Co885 O910 1.941 . S
C886 O887 1.258 . S
C886 O888 1.263 . S
O887 Co884 1.970 . S
O887 C886 1.258 . S
O888 Co885 1.966 . S
O888 C886 1.263 . S
C889 O890 1.235 . S
C889 O916 1.289 . S
O890 C889 1.235 . S
C891 C893 1.400 . S
C891 N894 1.351 . S
C891 C896 1.501 . S
C892 C893 1.387 . S
C892 N895 1.341 . S
C893 C891 1.400 . S
C893 C892 1.387 . S
N894 Co885 2.022 . S
N894 C891 1.351 . S
N894 N895 1.365 . S
N895 C892 1.341 . S
N895 N894 1.365 . S
N895 H915 0.862 . S
C896 C891 1.501 . S
C896 H897 0.961 . S
C896 H898 0.961 . S
C896 H899 0.960 . S
H897 C896 0.961 . S
H898 C896 0.961 . S
H899 C896 0.960 . S
C900 N901 1.342 . S
C900 C904 1.401 . S
C900 C905 1.499 1_556 S
N901 Co884 1.989 . S
N901 C900 1.342 . S
N901 N902 1.388 . S
N902 Co885 1.993 . S
N902 N901 1.388 . S
N902 C903 1.346 . S
C903 N902 1.346 . S
C903 C904 1.396 . S
C903 C913 1.510 . S
C904 C900 1.401 . S
C904 C903 1.396 . S
C905 C900 1.499 1_554 S
C905 H906 0.959 . S
C905 H907 0.960 . S
C905 H908 0.961 . S
H906 C905 0.959 . S
H907 C905 0.960 . S
H908 C905 0.961 . S
O909 Co884 1.967 . S
O909 C917 1.258 . S
O910 Co885 1.941 . S
O910 C917 1.266 . S
H911 C913 0.959 . S
H912 C913 0.961 . S
C913 C903 1.510 . S
C913 H911 0.959 . S
C913 H912 0.961 . S
C913 H914 0.960 . S
H914 C913 0.960 . S
H915 N895 0.862 . S
O916 Co884 1.920 1_554 S
O916 C889 1.289 . S
C917 O909 1.258 . S
C917 O910 1.266 . S
Co918 O921 1.970 . S
Co918 N935 1.989 . S
Co918 O943 1.967 . S
Co918 O950 1.920 . S
Co919 O922 1.966 . S
Co919 N928 2.022 . S
Co919 N936 1.993 . S
Co919 O944 1.941 . S
C920 O921 1.258 . S
C920 O922 1.263 . S
O921 Co918 1.970 . S
O921 C920 1.258 . S
O922 Co919 1.966 . S
O922 C920 1.263 . S
C923 O924 1.235 . S
C923 O950 1.289 . S
O924 C923 1.235 . S
C925 C927 1.400 . S
C925 N928 1.351 . S
C925 C930 1.501 . S
C926 C927 1.387 . S
C926 N929 1.341 . S
C927 C925 1.400 . S
C927 C926 1.387 . S
N928 Co919 2.022 . S
N928 C925 1.351 . S
N928 N929 1.365 . S
N929 C926 1.341 . S
N929 N928 1.365 . S
N929 H949 0.862 . S
C930 C925 1.501 . S
C930 H931 0.961 . S
C930 H932 0.961 . S
C930 H933 0.960 . S
H931 C930 0.961 . S
H932 C930 0.961 . S
H933 C930 0.960 . S
C934 N935 1.342 . S
C934 C938 1.401 . S
C934 C939 1.499 . S
N935 Co918 1.989 . S
N935 C934 1.342 . S
N935 N936 1.388 . S
N936 Co919 1.993 . S
N936 N935 1.388 . S
N936 C937 1.346 . S
C937 N936 1.346 . S
C937 C938 1.396 . S
C937 C947 1.510 . S
C938 C934 1.401 . S
C938 C937 1.396 . S
C939 C934 1.499 . S
C939 H940 0.959 . S
C939 H941 0.960 . S
C939 H942 0.961 . S
H940 C939 0.959 . S
H941 C939 0.960 . S
H942 C939 0.961 . S
O943 Co918 1.967 . S
O943 C951 1.258 . S
O944 Co919 1.941 . S
O944 C951 1.266 . S
H945 C947 0.959 . S
H946 C947 0.961 . S
C947 C937 1.510 . S
C947 H945 0.959 . S
C947 H946 0.961 . S
C947 H948 0.960 . S
H948 C947 0.960 . S
H949 N929 0.862 . S
O950 Co918 1.920 . S
O950 C923 1.289 . S
C951 O943 1.258 . S
C951 O944 1.266 . S
Co952 O955 1.970 . S
Co952 N969 1.989 . S
Co952 O977 1.967 . S
Co952 O984 1.920 . S
Co953 O956 1.966 . S
Co953 N962 2.022 . S
Co953 N970 1.993 . S
Co953 O978 1.941 . S
C954 O955 1.258 . S
C954 O956 1.263 . S
O955 Co952 1.970 . S
O955 C954 1.258 . S
O956 Co953 1.966 . S
O956 C954 1.263 . S
C957 O958 1.235 . S
C957 O984 1.289 . S
O958 C957 1.235 . S
C959 C961 1.400 . S
C959 N962 1.351 . S
C959 C964 1.501 . S
C960 C961 1.387 . S
C960 N963 1.341 . S
C961 C959 1.400 . S
C961 C960 1.387 . S
N962 Co953 2.022 . S
N962 C959 1.351 . S
N962 N963 1.365 . S
N963 C960 1.341 . S
N963 N962 1.365 . S
N963 H983 0.862 . S
C964 C959 1.501 . S
C964 H965 0.961 . S
C964 H966 0.961 . S
C964 H967 0.960 . S
H965 C964 0.961 . S
H966 C964 0.961 . S
H967 C964 0.960 . S
C968 N969 1.342 . S
C968 C972 1.401 . S
C968 C973 1.499 . S
N969 Co952 1.989 . S
N969 C968 1.342 . S
N969 N970 1.388 . S
N970 Co953 1.993 . S
N970 N969 1.388 . S
N970 C971 1.346 . S
C971 N970 1.346 . S
C971 C972 1.396 . S
C971 C981 1.510 . S
C972 C968 1.401 . S
C972 C971 1.396 . S
C973 C968 1.499 . S
C973 H974 0.959 . S
C973 H975 0.960 . S
C973 H976 0.961 . S
H974 C973 0.959 . S
H975 C973 0.960 . S
H976 C973 0.961 . S
O977 Co952 1.967 . S
O977 C985 1.258 . S
O978 Co953 1.941 . S
O978 C985 1.266 . S
H979 C981 0.959 . S
H980 C981 0.961 . S
C981 C971 1.510 . S
C981 H979 0.959 . S
C981 H980 0.961 . S
C981 H982 0.960 . S
H982 C981 0.960 . S
H983 N963 0.862 . S
O984 Co952 1.920 . S
O984 C957 1.289 . S
C985 O977 1.258 . S
C985 O978 1.266 . S
Co986 O989 1.970 . S
Co986 N1003 1.989 . S
Co986 O1011 1.967 . S
Co986 O1018 1.920 . S
Co987 O990 1.966 . S
Co987 N996 2.022 . S
Co987 N1004 1.993 . S
Co987 O1012 1.941 . S
C988 O989 1.258 . S
C988 O990 1.263 . S
O989 Co986 1.970 . S
O989 C988 1.258 . S
O990 Co987 1.966 . S
O990 C988 1.263 . S
C991 O992 1.235 . S
C991 O1018 1.289 . S
O992 C991 1.235 . S
C993 C995 1.400 . S
C993 N996 1.351 . S
C993 C998 1.501 . S
C994 C995 1.387 . S
C994 N997 1.341 . S
C995 C993 1.400 . S
C995 C994 1.387 . S
N996 Co987 2.022 . S
N996 C993 1.351 . S
N996 N997 1.365 . S
N997 C994 1.341 . S
N997 N996 1.365 . S
N997 H1017 0.862 . S
C998 C993 1.501 . S
C998 H999 0.961 . S
C998 H1000 0.961 . S
C998 H1001 0.960 . S
H999 C998 0.961 . S
H1000 C998 0.961 . S
H1001 C998 0.960 . S
C1002 N1003 1.342 . S
C1002 C1006 1.401 . S
C1002 C1007 1.499 . S
N1003 Co986 1.989 . S
N1003 C1002 1.342 . S
N1003 N1004 1.388 . S
N1004 Co987 1.993 . S
N1004 N1003 1.388 . S
N1004 C1005 1.346 . S
C1005 N1004 1.346 . S
C1005 C1006 1.396 . S
C1005 C1015 1.510 . S
C1006 C1002 1.401 . S
C1006 C1005 1.396 . S
C1007 C1002 1.499 . S
C1007 H1008 0.959 . S
C1007 H1009 0.960 . S
C1007 H1010 0.961 . S
H1008 C1007 0.959 . S
H1009 C1007 0.960 . S
H1010 C1007 0.961 . S
O1011 Co986 1.967 . S
O1011 C1019 1.258 . S
O1012 Co987 1.941 . S
O1012 C1019 1.266 . S
H1013 C1015 0.959 . S
H1014 C1015 0.961 . S
C1015 C1005 1.510 . S
C1015 H1013 0.959 . S
C1015 H1014 0.961 . S
C1015 H1016 0.960 . S
H1016 C1015 0.960 . S
H1017 N997 0.862 . S
O1018 Co986 1.920 . S
O1018 C991 1.289 . S
C1019 O1011 1.258 . S
C1019 O1012 1.266 . S
Co1020 O1023 1.970 . S
Co1020 N1037 1.989 . S
Co1020 O1045 1.967 . S
Co1020 O1052 1.920 . S
Co1021 O1024 1.966 . S
Co1021 N1030 2.022 . S
Co1021 N1038 1.993 . S
Co1021 O1046 1.941 . S
C1022 O1023 1.258 . S
C1022 O1024 1.263 . S
O1023 Co1020 1.970 . S
O1023 C1022 1.258 . S
O1024 Co1021 1.966 . S
O1024 C1022 1.263 . S
C1025 O1026 1.235 . S
C1025 O1052 1.289 . S
O1026 C1025 1.235 . S
C1027 C1029 1.400 . S
C1027 N1030 1.351 . S
C1027 C1032 1.501 . S
C1028 C1029 1.387 . S
C1028 N1031 1.341 . S
C1029 C1027 1.400 . S
C1029 C1028 1.387 . S
N1030 Co1021 2.022 . S
N1030 C1027 1.351 . S
N1030 N1031 1.365 . S
N1031 C1028 1.341 . S
N1031 N1030 1.365 . S
N1031 H1051 0.862 . S
C1032 C1027 1.501 . S
C1032 H1033 0.961 . S
C1032 H1034 0.961 . S
C1032 H1035 0.960 . S
H1033 C1032 0.961 . S
H1034 C1032 0.961 . S
H1035 C1032 0.960 . S
C1036 N1037 1.342 . S
C1036 C1040 1.401 . S
C1036 C1041 1.499 . S
N1037 Co1020 1.989 . S
N1037 C1036 1.342 . S
N1037 N1038 1.388 . S
N1038 Co1021 1.993 . S
N1038 N1037 1.388 . S
N1038 C1039 1.346 . S
C1039 N1038 1.346 . S
C1039 C1040 1.396 . S
C1039 C1049 1.510 . S
C1040 C1036 1.401 . S
C1040 C1039 1.396 . S
C1041 C1036 1.499 . S
C1041 H1042 0.959 . S
C1041 H1043 0.960 . S
C1041 H1044 0.961 . S
H1042 C1041 0.959 . S
H1043 C1041 0.960 . S
H1044 C1041 0.961 . S
O1045 Co1020 1.967 . S
O1045 C1053 1.258 . S
O1046 Co1021 1.941 . S
O1046 C1053 1.266 . S
H1047 C1049 0.959 . S
H1048 C1049 0.961 . S
C1049 C1039 1.510 . S
C1049 H1047 0.959 . S
C1049 H1048 0.961 . S
C1049 H1050 0.960 . S
H1050 C1049 0.960 . S
H1051 N1031 0.862 . S
O1052 Co1020 1.920 . S
O1052 C1025 1.289 . S
C1053 O1045 1.258 . S
C1053 O1046 1.266 . S
Co1054 O1057 1.970 . S
Co1054 N1071 1.989 . S
Co1054 O1079 1.967 . S
Co1054 O1086 1.920 . S
Co1055 O1058 1.966 . S
Co1055 N1064 2.022 . S
Co1055 N1072 1.993 . S
Co1055 O1080 1.941 . S
C1056 O1057 1.258 . S
C1056 O1058 1.263 . S
O1057 Co1054 1.970 . S
O1057 C1056 1.258 . S
O1058 Co1055 1.966 . S
O1058 C1056 1.263 . S
C1059 O1060 1.235 . S
C1059 O1086 1.289 . S
O1060 C1059 1.235 . S
C1061 C1063 1.400 . S
C1061 N1064 1.351 . S
C1061 C1066 1.501 . S
C1062 C1063 1.387 . S
C1062 N1065 1.341 . S
C1063 C1061 1.400 . S
C1063 C1062 1.387 . S
N1064 Co1055 2.022 . S
N1064 C1061 1.351 . S
N1064 N1065 1.365 . S
N1065 C1062 1.341 . S
N1065 N1064 1.365 . S
N1065 H1085 0.862 . S
C1066 C1061 1.501 . S
C1066 H1067 0.961 . S
C1066 H1068 0.961 . S
C1066 H1069 0.960 . S
H1067 C1066 0.961 . S
H1068 C1066 0.961 . S
H1069 C1066 0.960 . S
C1070 N1071 1.342 . S
C1070 C1074 1.401 . S
C1070 C1075 1.499 . S
N1071 Co1054 1.989 . S
N1071 C1070 1.342 . S
N1071 N1072 1.388 . S
N1072 Co1055 1.993 . S
N1072 N1071 1.388 . S
N1072 C1073 1.346 . S
C1073 N1072 1.346 . S
C1073 C1074 1.396 . S
C1073 C1083 1.510 . S
C1074 C1070 1.401 . S
C1074 C1073 1.396 . S
C1075 C1070 1.499 . S
C1075 H1076 0.959 . S
C1075 H1077 0.960 . S
C1075 H1078 0.961 . S
H1076 C1075 0.959 . S
H1077 C1075 0.960 . S
H1078 C1075 0.961 . S
O1079 Co1054 1.967 . S
O1079 C1087 1.258 . S
O1080 Co1055 1.941 . S
O1080 C1087 1.266 . S
H1081 C1083 0.959 . S
H1082 C1083 0.961 . S
C1083 C1073 1.510 . S
C1083 H1081 0.959 . S
C1083 H1082 0.961 . S
C1083 H1084 0.960 . S
H1084 C1083 0.960 . S
H1085 N1065 0.862 . S
O1086 Co1054 1.920 . S
O1086 C1059 1.289 . S
C1087 O1079 1.258 . S
C1087 O1080 1.266 . S
Co1088 O1091 1.970 . S
Co1088 N1105 1.989 . S
Co1088 O1113 1.967 . S
Co1088 O1120 1.920 . S
Co1089 O1092 1.966 . S
Co1089 N1098 2.022 . S
Co1089 N1106 1.993 . S
Co1089 O1114 1.941 . S
C1090 O1091 1.258 . S
C1090 O1092 1.263 . S
O1091 Co1088 1.970 . S
O1091 C1090 1.258 . S
O1092 Co1089 1.966 . S
O1092 C1090 1.263 . S
C1093 O1094 1.235 . S
C1093 O1120 1.289 . S
O1094 C1093 1.235 . S
C1095 C1097 1.400 . S
C1095 N1098 1.351 . S
C1095 C1100 1.501 . S
C1096 C1097 1.387 . S
C1096 N1099 1.341 . S
C1097 C1095 1.400 . S
C1097 C1096 1.387 . S
N1098 Co1089 2.022 . S
N1098 C1095 1.351 . S
N1098 N1099 1.365 . S
N1099 C1096 1.341 . S
N1099 N1098 1.365 . S
N1099 H1119 0.862 . S
C1100 C1095 1.501 . S
C1100 H1101 0.961 . S
C1100 H1102 0.961 . S
C1100 H1103 0.960 . S
H1101 C1100 0.961 . S
H1102 C1100 0.961 . S
H1103 C1100 0.960 . S
C1104 N1105 1.342 . S
C1104 C1108 1.401 . S
C1104 C1109 1.499 . S
N1105 Co1088 1.989 . S
N1105 C1104 1.342 . S
N1105 N1106 1.388 . S
N1106 Co1089 1.993 . S
N1106 N1105 1.388 . S
N1106 C1107 1.346 . S
C1107 N1106 1.346 . S
C1107 C1108 1.396 . S
C1107 C1117 1.510 . S
C1108 C1104 1.401 . S
C1108 C1107 1.396 . S
C1109 C1104 1.499 . S
C1109 H1110 0.959 . S
C1109 H1111 0.960 . S
C1109 H1112 0.961 . S
H1110 C1109 0.959 . S
H1111 C1109 0.960 . S
H1112 C1109 0.961 . S
O1113 Co1088 1.967 . S
O1113 C1121 1.258 . S
O1114 Co1089 1.941 . S
O1114 C1121 1.266 . S
H1115 C1117 0.959 . S
H1116 C1117 0.961 . S
C1117 C1107 1.510 . S
C1117 H1115 0.959 . S
C1117 H1116 0.961 . S
C1117 H1118 0.960 . S
H1118 C1117 0.960 . S
H1119 N1099 0.862 . S
O1120 Co1088 1.920 . S
O1120 C1093 1.289 . S
C1121 O1113 1.258 . S
C1121 O1114 1.266 . S
Co1122 O1125 1.970 . S
Co1122 N1139 1.989 . S
Co1122 O1147 1.967 . S
Co1122 O1154 1.920 1_556 S
Co1123 O1126 1.966 . S
Co1123 N1132 2.022 . S
Co1123 N1140 1.993 . S
Co1123 O1148 1.941 . S
C1124 O1125 1.258 . S
C1124 O1126 1.263 . S
O1125 Co1122 1.970 . S
O1125 C1124 1.258 . S
O1126 Co1123 1.966 . S
O1126 C1124 1.263 . S
C1127 O1128 1.235 . S
C1127 O1154 1.289 . S
O1128 C1127 1.235 . S
C1129 C1131 1.400 . S
C1129 N1132 1.351 . S
C1129 C1134 1.501 . S
C1130 C1131 1.387 . S
C1130 N1133 1.341 . S
C1131 C1129 1.400 . S
C1131 C1130 1.387 . S
N1132 Co1123 2.022 . S
N1132 C1129 1.351 . S
N1132 N1133 1.365 . S
N1133 C1130 1.341 . S
N1133 N1132 1.365 . S
N1133 H1153 0.862 . S
C1134 C1129 1.501 . S
C1134 H1135 0.961 . S
C1134 H1136 0.961 . S
C1134 H1137 0.960 . S
H1135 C1134 0.961 . S
H1136 C1134 0.961 . S
H1137 C1134 0.960 . S
C1138 N1139 1.342 . S
C1138 C1142 1.401 . S
C1138 C1143 1.499 1_556 S
N1139 Co1122 1.989 . S
N1139 C1138 1.342 . S
N1139 N1140 1.388 . S
N1140 Co1123 1.993 . S
N1140 N1139 1.388 . S
N1140 C1141 1.346 . S
C1141 N1140 1.346 . S
C1141 C1142 1.396 . S
C1141 C1151 1.510 . S
C1142 C1138 1.401 . S
C1142 C1141 1.396 . S
C1143 C1138 1.499 1_554 S
C1143 H1144 0.959 . S
C1143 H1145 0.960 . S
C1143 H1146 0.961 . S
H1144 C1143 0.959 . S
H1145 C1143 0.960 . S
H1146 C1143 0.961 . S
O1147 Co1122 1.967 . S
O1147 C1155 1.258 . S
O1148 Co1123 1.941 . S
O1148 C1155 1.266 . S
H1149 C1151 0.959 . S
H1150 C1151 0.961 . S
C1151 C1141 1.510 . S
C1151 H1149 0.959 . S
C1151 H1150 0.961 . S
C1151 H1152 0.960 . S
H1152 C1151 0.960 . S
H1153 N1133 0.862 . S
O1154 Co1122 1.920 1_554 S
O1154 C1127 1.289 . S
C1155 O1147 1.258 . S
C1155 O1148 1.266 . S
Co1156 O1159 1.970 . S
Co1156 N1173 1.989 . S
Co1156 O1181 1.967 . S
Co1156 O1188 1.920 1_556 S
Co1157 O1160 1.966 . S
Co1157 N1166 2.022 . S
Co1157 N1174 1.993 . S
Co1157 O1182 1.941 . S
C1158 O1159 1.258 . S
C1158 O1160 1.263 . S
O1159 Co1156 1.970 . S
O1159 C1158 1.258 . S
O1160 Co1157 1.966 . S
O1160 C1158 1.263 . S
C1161 O1162 1.235 . S
C1161 O1188 1.289 . S
O1162 C1161 1.235 . S
C1163 C1165 1.400 . S
C1163 N1166 1.351 . S
C1163 C1168 1.501 . S
C1164 C1165 1.387 . S
C1164 N1167 1.341 . S
C1165 C1163 1.400 . S
C1165 C1164 1.387 . S
N1166 Co1157 2.022 . S
N1166 C1163 1.351 . S
N1166 N1167 1.365 . S
N1167 C1164 1.341 . S
N1167 N1166 1.365 . S
N1167 H1187 0.862 . S
C1168 C1163 1.501 . S
C1168 H1169 0.961 . S
C1168 H1170 0.961 . S
C1168 H1171 0.960 . S
H1169 C1168 0.961 . S
H1170 C1168 0.961 . S
H1171 C1168 0.960 . S
C1172 N1173 1.342 . S
C1172 C1176 1.401 . S
C1172 C1177 1.499 1_556 S
N1173 Co1156 1.989 . S
N1173 C1172 1.342 . S
N1173 N1174 1.388 . S
N1174 Co1157 1.993 . S
N1174 N1173 1.388 . S
N1174 C1175 1.346 . S
C1175 N1174 1.346 . S
C1175 C1176 1.396 . S
C1175 C1185 1.510 . S
C1176 C1172 1.401 . S
C1176 C1175 1.396 . S
C1177 C1172 1.499 1_554 S
C1177 H1178 0.959 . S
C1177 H1179 0.960 . S
C1177 H1180 0.961 . S
H1178 C1177 0.959 . S
H1179 C1177 0.960 . S
H1180 C1177 0.961 . S
O1181 Co1156 1.967 . S
O1181 C1189 1.258 . S
O1182 Co1157 1.941 . S
O1182 C1189 1.266 . S
H1183 C1185 0.959 . S
H1184 C1185 0.961 . S
C1185 C1175 1.510 . S
C1185 H1183 0.959 . S
C1185 H1184 0.961 . S
C1185 H1186 0.960 . S
H1186 C1185 0.960 . S
H1187 N1167 0.862 . S
O1188 Co1156 1.920 1_554 S
O1188 C1161 1.289 . S
C1189 O1181 1.258 . S
C1189 O1182 1.266 . S
Co1190 O1193 1.970 . S
Co1190 N1207 1.989 . S
Co1190 O1215 1.967 . S
Co1190 O1222 1.920 1_556 S
Co1191 O1194 1.966 . S
Co1191 N1200 2.022 . S
Co1191 N1208 1.993 . S
Co1191 O1216 1.941 . S
C1192 O1193 1.258 . S
C1192 O1194 1.263 . S
O1193 Co1190 1.970 . S
O1193 C1192 1.258 . S
O1194 Co1191 1.966 . S
O1194 C1192 1.263 . S
C1195 O1196 1.235 . S
C1195 O1222 1.289 . S
O1196 C1195 1.235 . S
C1197 C1199 1.400 . S
C1197 N1200 1.351 . S
C1197 C1202 1.501 . S
C1198 C1199 1.387 . S
C1198 N1201 1.341 . S
C1199 C1197 1.400 . S
C1199 C1198 1.387 . S
N1200 Co1191 2.022 . S
N1200 C1197 1.351 . S
N1200 N1201 1.365 . S
N1201 C1198 1.341 . S
N1201 N1200 1.365 . S
N1201 H1221 0.862 . S
C1202 C1197 1.501 . S
C1202 H1203 0.961 . S
C1202 H1204 0.961 . S
C1202 H1205 0.960 . S
H1203 C1202 0.961 . S
H1204 C1202 0.961 . S
H1205 C1202 0.960 . S
C1206 N1207 1.342 . S
C1206 C1210 1.401 . S
C1206 C1211 1.499 1_556 S
N1207 Co1190 1.989 . S
N1207 C1206 1.342 . S
N1207 N1208 1.388 . S
N1208 Co1191 1.993 . S
N1208 N1207 1.388 . S
N1208 C1209 1.346 . S
C1209 N1208 1.346 . S
C1209 C1210 1.396 . S
C1209 C1219 1.510 . S
C1210 C1206 1.401 . S
C1210 C1209 1.396 . S
C1211 C1206 1.499 1_554 S
C1211 H1212 0.959 . S
C1211 H1213 0.960 . S
C1211 H1214 0.961 . S
H1212 C1211 0.959 . S
H1213 C1211 0.960 . S
H1214 C1211 0.961 . S
O1215 Co1190 1.967 . S
O1215 C1223 1.258 . S
O1216 Co1191 1.941 . S
O1216 C1223 1.266 . S
H1217 C1219 0.959 . S
H1218 C1219 0.961 . S
C1219 C1209 1.510 . S
C1219 H1217 0.959 . S
C1219 H1218 0.961 . S
C1219 H1220 0.960 . S
H1220 C1219 0.960 . S
H1221 N1201 0.862 . S
O1222 Co1190 1.920 1_554 S
O1222 C1195 1.289 . S
C1223 O1215 1.258 . S
C1223 O1216 1.266 . S
C1224 C1225 1.391 . S
C1224 C1226 1.394 . S
C1224 H1240 0.931 . S
C1225 C1224 1.391 . S
C1225 C1229 1.376 . S
C1226 C1224 1.394 . S
C1226 C1227 1.369 . S
C1226 C1230 1.531 . S
C1227 C1226 1.369 . S
C1227 C1228 1.410 . S
C1227 C1235 1.503 . S
C1228 C1227 1.410 . S
C1228 C1229 1.392 . S
C1228 C1231 1.511 . S
C1229 C1225 1.376 . S
C1229 C1228 1.392 . S
C1229 H1241 0.929 . S
C1230 C1226 1.531 . S
C1230 H1242 0.960 . S
C1230 H1243 0.962 . S
C1230 H1244 0.960 . S
C1231 C1228 1.511 . S
C1231 H1245 0.961 . S
C1231 H1246 0.961 . S
C1231 H1247 0.961 . S
C1232 C1233 1.370 . S
C1232 C1234 1.363 . S
C1232 H1248 0.931 . S
C1233 C1232 1.370 . S
C1233 C1237 1.408 . S
C1234 C1232 1.363 . S
C1234 C1235 1.370 . S
C1234 C1238 1.524 . S
C1235 C1227 1.503 . S
C1235 C1234 1.370 . S
C1235 C1236 1.403 . S
C1236 C1235 1.403 . S
C1236 C1237 1.404 . S
C1236 C1239 1.539 . S
C1237 C1233 1.408 . S
C1237 C1236 1.404 . S
C1237 H1249 0.930 . S
C1238 C1234 1.524 . S
C1238 H1250 0.956 . S
C1238 H1251 0.961 . S
C1238 H1252 0.961 . S
C1239 C1236 1.539 . S
C1239 H1253 0.958 . S
C1239 H1254 0.961 . S
C1239 H1255 0.960 . S
H1240 C1224 0.931 . S
H1241 C1229 0.929 . S
H1242 C1230 0.960 . S
H1243 C1230 0.962 . S
H1244 C1230 0.960 . S
H1245 C1231 0.961 . S
H1246 C1231 0.961 . S
H1247 C1231 0.961 . S
H1248 C1232 0.931 . S
H1249 C1237 0.930 . S
H1250 C1238 0.956 . S
H1251 C1238 0.961 . S
H1252 C1238 0.961 . S
H1253 C1239 0.958 . S
H1254 C1239 0.961 . S
H1255 C1239 0.960 . S
C1256 C1257 1.391 . S
C1256 C1258 1.394 . S
C1256 H1272 0.931 . S
C1257 C1256 1.391 . S
C1257 C1261 1.376 . S
C1258 C1256 1.394 . S
C1258 C1259 1.369 . S
C1258 C1262 1.531 . S
C1259 C1258 1.369 . S
C1259 C1260 1.410 . S
C1259 C1267 1.503 . S
C1260 C1259 1.410 . S
C1260 C1261 1.392 . S
C1260 C1263 1.511 . S
C1261 C1257 1.376 . S
C1261 C1260 1.392 . S
C1261 H1273 0.929 . S
C1262 C1258 1.531 . S
C1262 H1274 0.960 . S
C1262 H1275 0.962 . S
C1262 H1276 0.960 . S
C1263 C1260 1.511 . S
C1263 H1277 0.961 . S
C1263 H1278 0.961 . S
C1263 H1279 0.961 . S
C1264 C1265 1.370 . S
C1264 C1266 1.363 . S
C1264 H1280 0.931 . S
C1265 C1264 1.370 . S
C1265 C1269 1.408 . S
C1266 C1264 1.363 . S
C1266 C1267 1.370 . S
C1266 C1270 1.524 . S
C1267 C1259 1.503 . S
C1267 C1266 1.370 . S
C1267 C1268 1.403 . S
C1268 C1267 1.403 . S
C1268 C1269 1.404 . S
C1268 C1271 1.539 . S
C1269 C1265 1.408 . S
C1269 C1268 1.404 . S
C1269 H1281 0.930 . S
C1270 C1266 1.524 . S
C1270 H1282 0.956 . S
C1270 H1283 0.961 . S
C1270 H1284 0.961 . S
C1271 C1268 1.539 . S
C1271 H1285 0.958 . S
C1271 H1286 0.961 . S
C1271 H1287 0.960 . S
H1272 C1256 0.931 . S
H1273 C1261 0.929 . S
H1274 C1262 0.960 . S
H1275 C1262 0.962 . S
H1276 C1262 0.960 . S
H1277 C1263 0.961 . S
H1278 C1263 0.961 . S
H1279 C1263 0.961 . S
H1280 C1264 0.931 . S
H1281 C1269 0.930 . S
H1282 C1270 0.956 . S
H1283 C1270 0.961 . S
H1284 C1270 0.961 . S
H1285 C1271 0.958 . S
H1286 C1271 0.961 . S
H1287 C1271 0.960 . S
C1288 C1289 1.391 . S
C1288 C1290 1.394 . S
C1288 H1304 0.931 . S
C1289 C1288 1.391 . S
C1289 C1293 1.376 . S
C1290 C1288 1.394 . S
C1290 C1291 1.369 . S
C1290 C1294 1.531 . S
C1291 C1290 1.369 . S
C1291 C1292 1.410 . S
C1291 C1299 1.503 . S
C1292 C1291 1.410 . S
C1292 C1293 1.392 . S
C1292 C1295 1.511 . S
C1293 C1289 1.376 . S
C1293 C1292 1.392 . S
C1293 H1305 0.929 . S
C1294 C1290 1.531 . S
C1294 H1306 0.960 . S
C1294 H1307 0.962 . S
C1294 H1308 0.960 . S
C1295 C1292 1.511 . S
C1295 H1309 0.961 . S
C1295 H1310 0.961 . S
C1295 H1311 0.961 . S
C1296 C1297 1.370 . S
C1296 C1298 1.363 . S
C1296 H1312 0.931 . S
C1297 C1296 1.370 . S
C1297 C1301 1.408 . S
C1298 C1296 1.363 . S
C1298 C1299 1.370 . S
C1298 C1302 1.524 . S
C1299 C1291 1.503 . S
C1299 C1298 1.370 . S
C1299 C1300 1.403 . S
C1300 C1299 1.403 . S
C1300 C1301 1.404 . S
C1300 C1303 1.539 . S
C1301 C1297 1.408 . S
C1301 C1300 1.404 . S
C1301 H1313 0.930 . S
C1302 C1298 1.524 . S
C1302 H1314 0.956 . S
C1302 H1315 0.961 . S
C1302 H1316 0.961 . S
C1303 C1300 1.539 . S
C1303 H1317 0.958 . S
C1303 H1318 0.961 . S
C1303 H1319 0.960 . S
H1304 C1288 0.931 . S
H1305 C1293 0.929 . S
H1306 C1294 0.960 . S
H1307 C1294 0.962 . S
H1308 C1294 0.960 . S
H1309 C1295 0.961 . S
H1310 C1295 0.961 . S
H1311 C1295 0.961 . S
H1312 C1296 0.931 . S
H1313 C1301 0.930 . S
H1314 C1302 0.956 . S
H1315 C1302 0.961 . S
H1316 C1302 0.961 . S
H1317 C1303 0.958 . S
H1318 C1303 0.961 . S
H1319 C1303 0.960 . S
C1320 C1321 1.391 . S
C1320 C1322 1.394 . S
C1320 H1336 0.931 . S
C1321 C1320 1.391 . S
C1321 C1325 1.376 . S
C1322 C1320 1.394 . S
C1322 C1323 1.369 . S
C1322 C1326 1.531 . S
C1323 C1322 1.369 . S
C1323 C1324 1.410 . S
C1323 C1331 1.503 . S
C1324 C1323 1.410 . S
C1324 C1325 1.392 . S
C1324 C1327 1.511 . S
C1325 C1321 1.376 . S
C1325 C1324 1.392 . S
C1325 H1337 0.929 . S
C1326 C1322 1.531 . S
C1326 H1338 0.960 . S
C1326 H1339 0.962 . S
C1326 H1340 0.960 . S
C1327 C1324 1.511 . S
C1327 H1341 0.961 . S
C1327 H1342 0.961 . S
C1327 H1343 0.961 . S
C1328 C1329 1.370 . S
C1328 C1330 1.363 . S
C1328 H1344 0.931 . S
C1329 C1328 1.370 . S
C1329 C1333 1.408 . S
C1330 C1328 1.363 . S
C1330 C1331 1.370 . S
C1330 C1334 1.524 . S
C1331 C1323 1.503 . S
C1331 C1330 1.370 . S
C1331 C1332 1.403 . S
C1332 C1331 1.403 . S
C1332 C1333 1.404 . S
C1332 C1335 1.539 . S
C1333 C1329 1.408 . S
C1333 C1332 1.404 . S
C1333 H1345 0.930 . S
C1334 C1330 1.524 . S
C1334 H1346 0.956 . S
C1334 H1347 0.961 . S
C1334 H1348 0.961 . S
C1335 C1332 1.539 . S
C1335 H1349 0.958 . S
C1335 H1350 0.961 . S
C1335 H1351 0.960 . S
H1336 C1320 0.931 . S
H1337 C1325 0.929 . S
H1338 C1326 0.960 . S
H1339 C1326 0.962 . S
H1340 C1326 0.960 . S
H1341 C1327 0.961 . S
H1342 C1327 0.961 . S
H1343 C1327 0.961 . S
H1344 C1328 0.931 . S
H1345 C1333 0.930 . S
H1346 C1334 0.956 . S
H1347 C1334 0.961 . S
H1348 C1334 0.961 . S
H1349 C1335 0.958 . S
H1350 C1335 0.961 . S
H1351 C1335 0.960 . S
C1352 C1353 1.391 . S
C1352 C1354 1.394 . S
C1352 H1368 0.931 . S
C1353 C1352 1.391 . S
C1353 C1357 1.376 . S
C1354 C1352 1.394 . S
C1354 C1355 1.369 . S
C1354 C1358 1.531 . S
C1355 C1354 1.369 . S
C1355 C1356 1.410 . S
C1355 C1363 1.503 . S
C1356 C1355 1.410 . S
C1356 C1357 1.392 . S
C1356 C1359 1.511 . S
C1357 C1353 1.376 . S
C1357 C1356 1.392 . S
C1357 H1369 0.929 . S
C1358 C1354 1.531 . S
C1358 H1370 0.960 . S
C1358 H1371 0.962 . S
C1358 H1372 0.960 . S
C1359 C1356 1.511 . S
C1359 H1373 0.961 . S
C1359 H1374 0.961 . S
C1359 H1375 0.961 . S
C1360 C1361 1.370 . S
C1360 C1362 1.363 . S
C1360 H1376 0.931 . S
C1361 C1360 1.370 . S
C1361 C1365 1.408 . S
C1362 C1360 1.363 . S
C1362 C1363 1.370 . S
C1362 C1366 1.524 . S
C1363 C1355 1.503 . S
C1363 C1362 1.370 . S
C1363 C1364 1.403 . S
C1364 C1363 1.403 . S
C1364 C1365 1.404 . S
C1364 C1367 1.539 . S
C1365 C1361 1.408 . S
C1365 C1364 1.404 . S
C1365 H1377 0.930 . S
C1366 C1362 1.524 . S
C1366 H1378 0.956 . S
C1366 H1379 0.961 . S
C1366 H1380 0.961 . S
C1367 C1364 1.539 . S
C1367 H1381 0.958 . S
C1367 H1382 0.961 . S
C1367 H1383 0.960 . S
H1368 C1352 0.931 . S
H1369 C1357 0.929 . S
H1370 C1358 0.960 . S
H1371 C1358 0.962 . S
H1372 C1358 0.960 . S
H1373 C1359 0.961 . S
H1374 C1359 0.961 . S
H1375 C1359 0.961 . S
H1376 C1360 0.931 . S
H1377 C1365 0.930 . S
H1378 C1366 0.956 . S
H1379 C1366 0.961 . S
H1380 C1366 0.961 . S
H1381 C1367 0.958 . S
H1382 C1367 0.961 . S
H1383 C1367 0.960 . S
C1384 C1385 1.391 . S
C1384 C1386 1.394 . S
C1384 H1400 0.931 . S
C1385 C1384 1.391 . S
C1385 C1389 1.376 . S
C1386 C1384 1.394 . S
C1386 C1387 1.369 . S
C1386 C1390 1.531 . S
C1387 C1386 1.369 . S
C1387 C1388 1.410 . S
C1387 C1395 1.503 . S
C1388 C1387 1.410 . S
C1388 C1389 1.392 . S
C1388 C1391 1.511 . S
C1389 C1385 1.376 . S
C1389 C1388 1.392 . S
C1389 H1401 0.929 . S
C1390 C1386 1.531 . S
C1390 H1402 0.960 . S
C1390 H1403 0.962 . S
C1390 H1404 0.960 . S
C1391 C1388 1.511 . S
C1391 H1405 0.961 . S
C1391 H1406 0.961 . S
C1391 H1407 0.961 . S
C1392 C1393 1.370 . S
C1392 C1394 1.363 . S
C1392 H1408 0.931 . S
C1393 C1392 1.370 . S
C1393 C1397 1.408 . S
C1394 C1392 1.363 . S
C1394 C1395 1.370 . S
C1394 C1398 1.524 . S
C1395 C1387 1.503 . S
C1395 C1394 1.370 . S
C1395 C1396 1.403 . S
C1396 C1395 1.403 . S
C1396 C1397 1.404 . S
C1396 C1399 1.539 . S
C1397 C1393 1.408 . S
C1397 C1396 1.404 . S
C1397 H1409 0.930 . S
C1398 C1394 1.524 . S
C1398 H1410 0.956 . S
C1398 H1411 0.961 . S
C1398 H1412 0.961 . S
C1399 C1396 1.539 . S
C1399 H1413 0.958 . S
C1399 H1414 0.961 . S
C1399 H1415 0.960 . S
H1400 C1384 0.931 . S
H1401 C1389 0.929 . S
H1402 C1390 0.960 . S
H1403 C1390 0.962 . S
H1404 C1390 0.960 . S
H1405 C1391 0.961 . S
H1406 C1391 0.961 . S
H1407 C1391 0.961 . S
H1408 C1392 0.931 . S
H1409 C1397 0.930 . S
H1410 C1398 0.956 . S
H1411 C1398 0.961 . S
H1412 C1398 0.961 . S
H1413 C1399 0.958 . S
H1414 C1399 0.961 . S
H1415 C1399 0.960 . S
C1416 C1417 1.391 . S
C1416 C1418 1.394 . S
C1416 H1432 0.931 . S
C1417 C1416 1.391 . S
C1417 C1421 1.376 . S
C1418 C1416 1.394 . S
C1418 C1419 1.369 . S
C1418 C1422 1.531 . S
C1419 C1418 1.369 . S
C1419 C1420 1.410 . S
C1419 C1427 1.503 . S
C1420 C1419 1.410 . S
C1420 C1421 1.392 . S
C1420 C1423 1.511 . S
C1421 C1417 1.376 . S
C1421 C1420 1.392 . S
C1421 H1433 0.929 . S
C1422 C1418 1.531 . S
C1422 H1434 0.960 . S
C1422 H1435 0.962 . S
C1422 H1436 0.960 . S
C1423 C1420 1.511 . S
C1423 H1437 0.961 . S
C1423 H1438 0.961 . S
C1423 H1439 0.961 . S
C1424 C1425 1.370 . S
C1424 C1426 1.363 . S
C1424 H1440 0.931 . S
C1425 C1424 1.370 . S
C1425 C1429 1.408 . S
C1426 C1424 1.363 . S
C1426 C1427 1.370 . S
C1426 C1430 1.524 . S
C1427 C1419 1.503 . S
C1427 C1426 1.370 . S
C1427 C1428 1.403 . S
C1428 C1427 1.403 . S
C1428 C1429 1.404 . S
C1428 C1431 1.539 . S
C1429 C1425 1.408 . S
C1429 C1428 1.404 . S
C1429 H1441 0.930 . S
C1430 C1426 1.524 . S
C1430 H1442 0.956 . S
C1430 H1443 0.961 . S
C1430 H1444 0.961 . S
C1431 C1428 1.539 . S
C1431 H1445 0.958 . S
C1431 H1446 0.961 . S
C1431 H1447 0.960 . S
H1432 C1416 0.931 . S
H1433 C1421 0.929 . S
H1434 C1422 0.960 . S
H1435 C1422 0.962 . S
H1436 C1422 0.960 . S
H1437 C1423 0.961 . S
H1438 C1423 0.961 . S
H1439 C1423 0.961 . S
H1440 C1424 0.931 . S
H1441 C1429 0.930 . S
H1442 C1430 0.956 . S
H1443 C1430 0.961 . S
H1444 C1430 0.961 . S
H1445 C1431 0.958 . S
H1446 C1431 0.961 . S
H1447 C1431 0.960 . S
C1448 C1449 1.391 . S
C1448 C1450 1.394 . S
C1448 H1464 0.931 . S
C1449 C1448 1.391 . S
C1449 C1453 1.376 . S
C1450 C1448 1.394 . S
C1450 C1451 1.369 . S
C1450 C1454 1.531 . S
C1451 C1450 1.369 . S
C1451 C1452 1.410 . S
C1451 C1459 1.503 . S
C1452 C1451 1.410 . S
C1452 C1453 1.392 . S
C1452 C1455 1.511 . S
C1453 C1449 1.376 . S
C1453 C1452 1.392 . S
C1453 H1465 0.929 . S
C1454 C1450 1.531 . S
C1454 H1466 0.960 . S
C1454 H1467 0.962 . S
C1454 H1468 0.960 . S
C1455 C1452 1.511 . S
C1455 H1469 0.961 . S
C1455 H1470 0.961 . S
C1455 H1471 0.961 . S
C1456 C1457 1.370 . S
C1456 C1458 1.363 . S
C1456 H1472 0.931 . S
C1457 C1456 1.370 . S
C1457 C1461 1.408 . S
C1458 C1456 1.363 . S
C1458 C1459 1.370 . S
C1458 C1462 1.524 . S
C1459 C1451 1.503 . S
C1459 C1458 1.370 . S
C1459 C1460 1.403 . S
C1460 C1459 1.403 . S
C1460 C1461 1.404 . S
C1460 C1463 1.539 . S
C1461 C1457 1.408 . S
C1461 C1460 1.404 . S
C1461 H1473 0.930 . S
C1462 C1458 1.524 . S
C1462 H1474 0.956 . S
C1462 H1475 0.961 . S
C1462 H1476 0.961 . S
C1463 C1460 1.539 . S
C1463 H1477 0.958 . S
C1463 H1478 0.961 . S
C1463 H1479 0.960 . S
H1464 C1448 0.931 . S
H1465 C1453 0.929 . S
H1466 C1454 0.960 . S
H1467 C1454 0.962 . S
H1468 C1454 0.960 . S
H1469 C1455 0.961 . S
H1470 C1455 0.961 . S
H1471 C1455 0.961 . S
H1472 C1456 0.931 . S
H1473 C1461 0.930 . S
H1474 C1462 0.956 . S
H1475 C1462 0.961 . S
H1476 C1462 0.961 . S
H1477 C1463 0.958 . S
H1478 C1463 0.961 . S
H1479 C1463 0.960 . S
C1480 C1481 1.391 . S
C1480 C1482 1.394 . S
C1480 H1496 0.931 . S
C1481 C1480 1.391 . S
C1481 C1485 1.376 . S
C1482 C1480 1.394 . S
C1482 C1483 1.369 . S
C1482 C1486 1.531 . S
C1483 C1482 1.369 . S
C1483 C1484 1.410 . S
C1483 C1491 1.503 . S
C1484 C1483 1.410 . S
C1484 C1485 1.392 . S
C1484 C1487 1.511 . S
C1485 C1481 1.376 . S
C1485 C1484 1.392 . S
C1485 H1497 0.929 . S
C1486 C1482 1.531 . S
C1486 H1498 0.960 . S
C1486 H1499 0.962 . S
C1486 H1500 0.960 1_556 S
C1487 C1484 1.511 . S
C1487 H1501 0.961 . S
C1487 H1502 0.961 . S
C1487 H1503 0.961 . S
C1488 C1489 1.370 . S
C1488 C1490 1.363 . S
C1488 H1504 0.931 . S
C1489 C1488 1.370 . S
C1489 C1493 1.408 . S
C1490 C1488 1.363 . S
C1490 C1491 1.370 . S
C1490 C1494 1.524 . S
C1491 C1483 1.503 . S
C1491 C1490 1.370 . S
C1491 C1492 1.403 . S
C1492 C1491 1.403 . S
C1492 C1493 1.404 . S
C1492 C1495 1.539 . S
C1493 C1489 1.408 . S
C1493 C1492 1.404 . S
C1493 H1505 0.930 . S
C1494 C1490 1.524 . S
C1494 H1506 0.956 . S
C1494 H1507 0.961 . S
C1494 H1508 0.961 . S
C1495 C1492 1.539 . S
C1495 H1509 0.958 . S
C1495 H1510 0.961 . S
C1495 H1511 0.960 . S
H1496 C1480 0.931 . S
H1497 C1485 0.929 . S
H1498 C1486 0.960 . S
H1499 C1486 0.962 . S
H1500 C1486 0.960 1_554 S
H1501 C1487 0.961 . S
H1502 C1487 0.961 . S
H1503 C1487 0.961 . S
H1504 C1488 0.931 . S
H1505 C1493 0.930 . S
H1506 C1494 0.956 . S
H1507 C1494 0.961 . S
H1508 C1494 0.961 . S
H1509 C1495 0.958 . S
H1510 C1495 0.961 . S
H1511 C1495 0.960 . S
C1512 C1513 1.391 . S
C1512 C1514 1.394 . S
C1512 H1528 0.931 . S
C1513 C1512 1.391 . S
C1513 C1517 1.376 . S
C1514 C1512 1.394 . S
C1514 C1515 1.369 . S
C1514 C1518 1.531 . S
C1515 C1514 1.369 . S
C1515 C1516 1.410 . S
C1515 C1523 1.503 . S
C1516 C1515 1.410 . S
C1516 C1517 1.392 . S
C1516 C1519 1.511 . S
C1517 C1513 1.376 . S
C1517 C1516 1.392 . S
C1517 H1529 0.929 . S
C1518 C1514 1.531 . S
C1518 H1530 0.960 . S
C1518 H1531 0.962 . S
C1518 H1532 0.960 . S
C1519 C1516 1.511 . S
C1519 H1533 0.961 . S
C1519 H1534 0.961 . S
C1519 H1535 0.961 . S
C1520 C1521 1.370 . S
C1520 C1522 1.363 . S
C1520 H1536 0.931 . S
C1521 C1520 1.370 . S
C1521 C1525 1.408 . S
C1522 C1520 1.363 . S
C1522 C1523 1.370 . S
C1522 C1526 1.524 . S
C1523 C1515 1.503 . S
C1523 C1522 1.370 . S
C1523 C1524 1.403 . S
C1524 C1523 1.403 . S
C1524 C1525 1.404 . S
C1524 C1527 1.539 . S
C1525 C1521 1.408 . S
C1525 C1524 1.404 . S
C1525 H1537 0.930 . S
C1526 C1522 1.524 . S
C1526 H1538 0.956 . S
C1526 H1539 0.961 . S
C1526 H1540 0.961 . S
C1527 C1524 1.539 . S
C1527 H1541 0.958 . S
C1527 H1542 0.961 . S
C1527 H1543 0.960 . S
H1528 C1512 0.931 . S
H1529 C1517 0.929 . S
H1530 C1518 0.960 . S
H1531 C1518 0.962 . S
H1532 C1518 0.960 . S
H1533 C1519 0.961 . S
H1534 C1519 0.961 . S
H1535 C1519 0.961 . S
H1536 C1520 0.931 . S
H1537 C1525 0.930 . S
H1538 C1526 0.956 . S
H1539 C1526 0.961 . S
H1540 C1526 0.961 . S
H1541 C1527 0.958 . S
H1542 C1527 0.961 . S
H1543 C1527 0.960 . S
C1544 C1545 1.391 . S
C1544 C1546 1.394 . S
C1544 H1560 0.931 . S
C1545 C1544 1.391 . S
C1545 C1549 1.376 . S
C1546 C1544 1.394 . S
C1546 C1547 1.369 . S
C1546 C1550 1.531 . S
C1547 C1546 1.369 . S
C1547 C1548 1.410 . S
C1547 C1555 1.503 . S
C1548 C1547 1.410 . S
C1548 C1549 1.392 . S
C1548 C1551 1.511 . S
C1549 C1545 1.376 . S
C1549 C1548 1.392 . S
C1549 H1561 0.929 . S
C1550 C1546 1.531 . S
C1550 H1562 0.960 . S
C1550 H1563 0.962 . S
C1550 H1564 0.960 . S
C1551 C1548 1.511 . S
C1551 H1565 0.961 . S
C1551 H1566 0.961 . S
C1551 H1567 0.961 . S
C1552 C1553 1.370 . S
C1552 C1554 1.363 . S
C1552 H1568 0.931 . S
C1553 C1552 1.370 . S
C1553 C1557 1.408 . S
C1554 C1552 1.363 . S
C1554 C1555 1.370 . S
C1554 C1558 1.524 . S
C1555 C1547 1.503 . S
C1555 C1554 1.370 . S
C1555 C1556 1.403 . S
C1556 C1555 1.403 . S
C1556 C1557 1.404 . S
C1556 C1559 1.539 . S
C1557 C1553 1.408 . S
C1557 C1556 1.404 . S
C1557 H1569 0.930 . S
C1558 C1554 1.524 . S
C1558 H1570 0.956 . S
C1558 H1571 0.961 . S
C1558 H1572 0.961 . S
C1559 C1556 1.539 . S
C1559 H1573 0.958 . S
C1559 H1574 0.961 . S
C1559 H1575 0.960 . S
H1560 C1544 0.931 . S
H1561 C1549 0.929 . S
H1562 C1550 0.960 . S
H1563 C1550 0.962 . S
H1564 C1550 0.960 . S
H1565 C1551 0.961 . S
H1566 C1551 0.961 . S
H1567 C1551 0.961 . S
H1568 C1552 0.931 . S
H1569 C1557 0.930 . S
H1570 C1558 0.956 . S
H1571 C1558 0.961 . S
H1572 C1558 0.961 . S
H1573 C1559 0.958 . S
H1574 C1559 0.961 . S
H1575 C1559 0.960 . S
C1576 C1577 1.391 . S
C1576 C1578 1.394 . S
C1576 H1592 0.931 . S
C1577 C1576 1.391 . S
C1577 C1581 1.376 . S
C1578 C1576 1.394 . S
C1578 C1579 1.369 . S
C1578 C1582 1.531 . S
C1579 C1578 1.369 . S
C1579 C1580 1.410 . S
C1579 C1587 1.503 . S
C1580 C1579 1.410 . S
C1580 C1581 1.392 . S
C1580 C1583 1.511 . S
C1581 C1577 1.376 . S
C1581 C1580 1.392 . S
C1581 H1593 0.929 . S
C1582 C1578 1.531 . S
C1582 H1594 0.960 . S
C1582 H1595 0.962 . S
C1582 H1596 0.960 1_554 S
C1583 C1580 1.511 . S
C1583 H1597 0.961 . S
C1583 H1598 0.961 . S
C1583 H1599 0.961 . S
C1584 C1585 1.370 . S
C1584 C1586 1.363 . S
C1584 H1600 0.931 . S
C1585 C1584 1.370 . S
C1585 C1589 1.408 . S
C1586 C1584 1.363 . S
C1586 C1587 1.370 . S
C1586 C1590 1.524 . S
C1587 C1579 1.503 . S
C1587 C1586 1.370 . S
C1587 C1588 1.403 . S
C1588 C1587 1.403 . S
C1588 C1589 1.404 . S
C1588 C1591 1.539 . S
C1589 C1585 1.408 . S
C1589 C1588 1.404 . S
C1589 H1601 0.930 . S
C1590 C1586 1.524 . S
C1590 H1602 0.956 . S
C1590 H1603 0.961 . S
C1590 H1604 0.961 . S
C1591 C1588 1.539 . S
C1591 H1605 0.958 . S
C1591 H1606 0.961 . S
C1591 H1607 0.960 . S
H1592 C1576 0.931 . S
H1593 C1581 0.929 . S
H1594 C1582 0.960 . S
H1595 C1582 0.962 . S
H1596 C1582 0.960 1_556 S
H1597 C1583 0.961 . S
H1598 C1583 0.961 . S
H1599 C1583 0.961 . S
H1600 C1584 0.931 . S
H1601 C1589 0.930 . S
H1602 C1590 0.956 . S
H1603 C1590 0.961 . S
H1604 C1590 0.961 . S
H1605 C1591 0.958 . S
H1606 C1591 0.961 . S
H1607 C1591 0.960 . S
C1608 C1609 1.391 . S
C1608 C1610 1.394 . S
C1608 H1624 0.931 . S
C1609 C1608 1.391 . S
C1609 C1613 1.376 . S
C1610 C1608 1.394 . S
C1610 C1611 1.369 . S
C1610 C1614 1.531 . S
C1611 C1610 1.369 . S
C1611 C1612 1.410 . S
C1611 C1619 1.503 . S
C1612 C1611 1.410 . S
C1612 C1613 1.392 . S
C1612 C1615 1.511 . S
C1613 C1609 1.376 . S
C1613 C1612 1.392 . S
C1613 H1625 0.929 . S
C1614 C1610 1.531 . S
C1614 H1626 0.960 . S
C1614 H1627 0.962 . S
C1614 H1628 0.960 . S
C1615 C1612 1.511 . S
C1615 H1629 0.961 . S
C1615 H1630 0.961 . S
C1615 H1631 0.961 . S
C1616 C1617 1.370 . S
C1616 C1618 1.363 . S
C1616 H1632 0.931 . S
C1617 C1616 1.370 . S
C1617 C1621 1.408 . S
C1618 C1616 1.363 . S
C1618 C1619 1.370 . S
C1618 C1622 1.524 . S
C1619 C1611 1.503 . S
C1619 C1618 1.370 . S
C1619 C1620 1.403 . S
C1620 C1619 1.403 . S
C1620 C1621 1.404 . S
C1620 C1623 1.539 . S
C1621 C1617 1.408 . S
C1621 C1620 1.404 . S
C1621 H1633 0.930 . S
C1622 C1618 1.524 . S
C1622 H1634 0.956 . S
C1622 H1635 0.961 . S
C1622 H1636 0.961 . S
C1623 C1620 1.539 . S
C1623 H1637 0.958 . S
C1623 H1638 0.961 . S
C1623 H1639 0.960 . S
H1624 C1608 0.931 . S
H1625 C1613 0.929 . S
H1626 C1614 0.960 . S
H1627 C1614 0.962 . S
H1628 C1614 0.960 . S
H1629 C1615 0.961 . S
H1630 C1615 0.961 . S
H1631 C1615 0.961 . S
H1632 C1616 0.931 . S
H1633 C1621 0.930 . S
H1634 C1622 0.956 . S
H1635 C1622 0.961 . S
H1636 C1622 0.961 . S
H1637 C1623 0.958 . S
H1638 C1623 0.961 . S
H1639 C1623 0.960 . S
C1640 C1641 1.391 . S
C1640 C1642 1.394 . S
C1640 H1656 0.931 . S
C1641 C1640 1.391 . S
C1641 C1645 1.376 . S
C1642 C1640 1.394 . S
C1642 C1643 1.369 . S
C1642 C1646 1.531 . S
C1643 C1642 1.369 . S
C1643 C1644 1.410 . S
C1643 C1651 1.503 1_565 S
C1644 C1643 1.410 . S
C1644 C1645 1.392 . S
C1644 C1647 1.511 . S
C1645 C1641 1.376 . S
C1645 C1644 1.392 . S
C1645 H1657 0.929 . S
C1646 C1642 1.531 . S
C1646 H1658 0.960 . S
C1646 H1659 0.962 . S
C1646 H1660 0.960 . S
C1647 C1644 1.511 . S
C1647 H1661 0.961 . S
C1647 H1662 0.961 1_565 S
C1647 H1663 0.961 . S
C1648 C1649 1.370 . S
C1648 C1650 1.363 . S
C1648 H1664 0.931 . S
C1649 C1648 1.370 . S
C1649 C1653 1.408 . S
C1650 C1648 1.363 . S
C1650 C1651 1.370 . S
C1650 C1654 1.524 . S
C1651 C1643 1.503 1_545 S
C1651 C1650 1.370 . S
C1651 C1652 1.403 . S
C1652 C1651 1.403 . S
C1652 C1653 1.404 . S
C1652 C1655 1.539 . S
C1653 C1649 1.408 . S
C1653 C1652 1.404 . S
C1653 H1665 0.930 . S
C1654 C1650 1.524 . S
C1654 H1666 0.956 . S
C1654 H1667 0.961 . S
C1654 H1668 0.961 . S
C1655 C1652 1.539 . S
C1655 H1669 0.952 . S
C1655 H1670 0.961 . S
C1655 H1671 0.960 1_545 S
H1656 C1640 0.931 . S
H1657 C1645 0.929 . S
H1658 C1646 0.960 . S
H1659 C1646 0.962 . S
H1660 C1646 0.960 . S
H1661 C1647 0.961 . S
H1662 C1647 0.961 1_545 S
H1663 C1647 0.961 . S
H1664 C1648 0.931 . S
H1665 C1653 0.930 . S
H1666 C1654 0.956 . S
H1667 C1654 0.961 . S
H1668 C1654 0.961 . S
H1669 C1655 0.952 . S
H1670 C1655 0.961 . S
H1671 C1655 0.960 1_565 S
C1672 C1673 1.391 . S
C1672 C1674 1.394 . S
C1672 H1688 0.931 . S
C1673 C1672 1.391 . S
C1673 C1677 1.376 . S
C1674 C1672 1.394 . S
C1674 C1675 1.369 . S
C1674 C1678 1.531 . S
C1675 C1674 1.369 . S
C1675 C1676 1.410 . S
C1675 C1683 1.503 1_655 S
C1676 C1675 1.410 . S
C1676 C1677 1.392 . S
C1676 C1679 1.511 . S
C1677 C1673 1.376 . S
C1677 C1676 1.392 . S
C1677 H1689 0.929 . S
C1678 C1674 1.531 . S
C1678 H1690 0.960 1_655 S
C1678 H1691 0.960 1_655 S
C1678 H1692 0.960 . S
C1679 C1676 1.511 . S
C1679 H1693 0.961 . S
C1679 H1694 0.961 . S
C1679 H1695 0.961 . S
C1680 C1681 1.370 . S
C1680 C1682 1.363 . S
C1680 H1696 0.931 . S
C1681 C1680 1.370 . S
C1681 C1685 1.408 . S
C1682 C1680 1.363 . S
C1682 C1683 1.370 . S
C1682 C1686 1.524 . S
C1683 C1675 1.503 1_455 S
C1683 C1682 1.370 . S
C1683 C1684 1.403 . S
C1684 C1683 1.403 . S
C1684 C1685 1.404 . S
C1684 C1687 1.539 . S
C1685 C1681 1.408 . S
C1685 C1684 1.404 . S
C1685 H1697 0.930 . S
C1686 C1682 1.524 . S
C1686 H1698 0.956 . S
C1686 H1699 1.044 . S
C1686 H1700 0.961 . S
C1687 C1684 1.539 . S
C1687 H1701 0.958 . S
C1687 H1702 0.961 . S
C1687 H1703 0.960 1_455 S
H1688 C1672 0.931 . S
H1689 C1677 0.929 . S
H1690 C1678 0.960 1_455 S
H1691 C1678 0.960 1_455 S
H1692 C1678 0.960 . S
H1693 C1679 0.961 . S
H1694 C1679 0.961 . S
H1695 C1679 0.961 . S
H1696 C1680 0.931 . S
H1697 C1685 0.930 . S
H1698 C1686 0.956 . S
H1699 C1686 1.044 . S
H1700 C1686 0.961 . S
H1701 C1687 0.958 . S
H1702 C1687 0.961 . S
H1703 C1687 0.960 1_655 S
C1704 C1705 1.391 . S
C1704 C1706 1.394 . S
C1704 H1720 0.931 . S
C1705 C1704 1.391 . S
C1705 C1709 1.376 . S
C1706 C1704 1.394 . S
C1706 C1707 1.369 . S
C1706 C1710 1.531 . S
C1707 C1706 1.369 . S
C1707 C1708 1.410 . S
C1707 C1715 1.503 . S
C1708 C1707 1.410 . S
C1708 C1709 1.392 . S
C1708 C1711 1.511 . S
C1709 C1705 1.376 . S
C1709 C1708 1.392 . S
C1709 H1721 0.929 . S
C1710 C1706 1.531 . S
C1710 H1722 0.960 . S
C1710 H1723 0.962 . S
C1710 H1724 0.960 . S
C1711 C1708 1.511 . S
C1711 H1725 0.961 . S
C1711 H1726 0.961 . S
C1711 H1727 0.961 . S
C1712 C1713 1.370 . S
C1712 C1714 1.363 . S
C1712 H1728 0.931 . S
C1713 C1712 1.370 . S
C1713 C1717 1.408 . S
C1714 C1712 1.363 . S
C1714 C1715 1.370 . S
C1714 C1718 1.524 . S
C1715 C1707 1.503 . S
C1715 C1714 1.370 . S
C1715 C1716 1.403 . S
C1716 C1715 1.403 . S
C1716 C1717 1.404 . S
C1716 C1719 1.539 . S
C1717 C1713 1.408 . S
C1717 C1716 1.404 . S
C1717 H1729 0.930 . S
C1718 C1714 1.524 . S
C1718 H1730 0.956 . S
C1718 H1731 0.961 . S
C1718 H1732 0.961 . S
C1719 C1716 1.539 . S
C1719 H1733 0.958 . S
C1719 H1734 0.961 . S
C1719 H1735 0.960 . S
H1720 C1704 0.931 . S
H1721 C1709 0.929 . S
H1722 C1710 0.960 . S
H1723 C1710 0.962 . S
H1724 C1710 0.960 . S
H1725 C1711 0.961 . S
H1726 C1711 0.961 . S
H1727 C1711 0.961 . S
H1728 C1712 0.931 . S
H1729 C1717 0.930 . S
H1730 C1718 0.956 . S
H1731 C1718 0.961 . S
H1732 C1718 0.961 . S
H1733 C1719 0.958 . S
H1734 C1719 0.961 . S
H1735 C1719 0.960 . S
C1736 C1737 1.391 . S
C1736 C1738 1.394 . S
C1736 H1752 0.931 . S
C1737 C1736 1.391 . S
C1737 C1741 1.376 . S
C1738 C1736 1.394 . S
C1738 C1739 1.369 . S
C1738 C1742 1.531 . S
C1739 C1738 1.369 . S
C1739 C1740 1.410 . S
C1739 C1747 1.503 1_565 S
C1740 C1739 1.410 . S
C1740 C1741 1.392 . S
C1740 C1743 1.511 . S
C1741 C1737 1.376 . S
C1741 C1740 1.392 . S
C1741 H1753 0.929 . S
C1742 C1738 1.531 . S
C1742 H1754 0.960 1_565 S
C1742 H1755 0.962 . S
C1742 H1756 0.960 . S
C1743 C1740 1.511 . S
C1743 H1757 0.961 . S
C1743 H1758 0.961 . S
C1743 H1759 0.961 . S
C1744 C1745 1.370 . S
C1744 C1746 1.363 . S
C1744 H1760 0.931 . S
C1745 C1744 1.370 . S
C1745 C1749 1.408 . S
C1746 C1744 1.363 . S
C1746 C1747 1.370 . S
C1746 C1750 1.524 . S
C1747 C1739 1.503 1_545 S
C1747 C1746 1.370 . S
C1747 C1748 1.403 . S
C1748 C1747 1.403 . S
C1748 C1749 1.404 . S
C1748 C1751 1.539 . S
C1749 C1745 1.408 . S
C1749 C1748 1.404 . S
C1749 H1761 0.930 . S
C1750 C1746 1.524 . S
C1750 H1762 0.956 1_545 S
C1750 H1763 0.961 1_545 S
C1750 H1764 0.961 . S
C1751 C1748 1.539 . S
C1751 H1765 0.958 . S
C1751 H1766 0.961 . S
C1751 H1767 0.960 . S
H1752 C1736 0.931 . S
H1753 C1741 0.929 . S
H1754 C1742 0.960 1_545 S
H1755 C1742 0.962 . S
H1756 C1742 0.960 . S
H1757 C1743 0.961 . S
H1758 C1743 0.961 . S
H1759 C1743 0.961 . S
H1760 C1744 0.931 . S
H1761 C1749 0.930 . S
H1762 C1750 0.956 1_565 S
H1763 C1750 0.961 1_565 S
H1764 C1750 0.961 . S
H1765 C1751 0.958 . S
H1766 C1751 0.961 . S
H1767 C1751 0.960 . S
C1768 C1769 1.391 . S
C1768 C1770 1.394 . S
C1768 H1784 0.931 . S
C1769 C1768 1.391 . S
C1769 C1773 1.376 . S
C1770 C1768 1.394 . S
C1770 C1771 1.369 . S
C1770 C1774 1.531 . S
C1771 C1770 1.369 . S
C1771 C1772 1.410 . S
C1771 C1779 1.503 1_655 S
C1772 C1771 1.410 . S
C1772 C1773 1.392 . S
C1772 C1775 1.511 . S
C1773 C1769 1.376 . S
C1773 C1772 1.392 . S
C1773 H1785 0.929 . S
C1774 C1770 1.531 . S
C1774 H1786 0.960 . S
C1774 H1787 0.962 . S
C1774 H1788 0.960 . S
C1775 C1772 1.511 . S
C1775 H1789 0.961 . S
C1775 H1790 0.961 1_655 S
C1775 H1791 0.971 1_655 S
C1776 C1777 1.370 . S
C1776 C1778 1.363 . S
C1776 H1792 0.931 . S
C1777 C1776 1.370 . S
C1777 C1781 1.408 . S
C1778 C1776 1.363 . S
C1778 C1779 1.370 . S
C1778 C1782 1.524 . S
C1779 C1771 1.503 1_455 S
C1779 C1778 1.370 . S
C1779 C1780 1.403 . S
C1780 C1779 1.403 . S
C1780 C1781 1.404 . S
C1780 C1783 1.539 . S
C1781 C1777 1.408 . S
C1781 C1780 1.404 . S
C1781 H1793 0.930 . S
C1782 C1778 1.524 . S
C1782 H1794 0.956 1_455 S
C1782 H1795 0.957 . S
C1782 H1796 0.961 . S
C1783 C1780 1.539 . S
C1783 H1797 0.958 . S
C1783 H1798 0.961 . S
C1783 H1799 0.960 . S
H1784 C1768 0.931 . S
H1785 C1773 0.929 . S
H1786 C1774 0.960 . S
H1787 C1774 0.962 . S
H1788 C1774 0.960 . S
H1789 C1775 0.961 . S
H1790 C1775 0.961 1_455 S
H1791 C1775 0.971 1_455 S
H1792 C1776 0.931 . S
H1793 C1781 0.930 . S
H1794 C1782 0.956 1_655 S
H1795 C1782 0.957 . S
H1796 C1782 0.961 . S
H1797 C1783 0.958 . S
H1798 C1783 0.961 . S
H1799 C1783 0.960 . S
C1800 C1801 1.391 . S
C1800 C1802 1.394 . S
C1800 H1816 0.931 . S
C1801 C1800 1.391 . S
C1801 C1805 1.376 . S
C1802 C1800 1.394 . S
C1802 C1803 1.369 . S
C1802 C1806 1.531 . S
C1803 C1802 1.369 . S
C1803 C1804 1.410 . S
C1803 C1811 1.503 . S
C1804 C1803 1.410 . S
C1804 C1805 1.392 . S
C1804 C1807 1.511 . S
C1805 C1801 1.376 . S
C1805 C1804 1.392 . S
C1805 H1817 0.929 . S
C1806 C1802 1.531 . S
C1806 H1818 0.960 . S
C1806 H1819 0.962 . S
C1806 H1820 0.960 . S
C1807 C1804 1.511 . S
C1807 H1821 0.961 . S
C1807 H1822 0.961 . S
C1807 H1823 0.961 . S
C1808 C1809 1.370 . S
C1808 C1810 1.363 . S
C1808 H1824 0.931 . S
C1809 C1808 1.370 . S
C1809 C1813 1.408 . S
C1810 C1808 1.363 . S
C1810 C1811 1.370 . S
C1810 C1814 1.524 . S
C1811 C1803 1.503 . S
C1811 C1810 1.370 . S
C1811 C1812 1.403 . S
C1812 C1811 1.403 . S
C1812 C1813 1.404 . S
C1812 C1815 1.539 . S
C1813 C1809 1.408 . S
C1813 C1812 1.404 . S
C1813 H1825 0.930 . S
C1814 C1810 1.524 . S
C1814 H1826 0.956 . S
C1814 H1827 0.961 . S
C1814 H1828 0.961 . S
C1815 C1812 1.539 . S
C1815 H1829 0.958 . S
C1815 H1830 0.961 . S
C1815 H1831 0.960 . S
H1816 C1800 0.931 . S
H1817 C1805 0.929 . S
H1818 C1806 0.960 . S
H1819 C1806 0.962 . S
H1820 C1806 0.960 . S
H1821 C1807 0.961 . S
H1822 C1807 0.961 . S
H1823 C1807 0.961 . S
H1824 C1808 0.931 . S
H1825 C1813 0.930 . S
H1826 C1814 0.956 . S
H1827 C1814 0.961 . S
H1828 C1814 0.961 . S
H1829 C1815 0.958 . S
H1830 C1815 0.961 . S
H1831 C1815 0.960 . S
C1832 C1833 1.391 . S
C1832 C1834 1.394 . S
C1832 H1848 0.931 . S
C1833 C1832 1.391 . S
C1833 C1837 1.376 . S
C1834 C1832 1.394 . S
C1834 C1835 1.369 . S
C1834 C1838 1.531 . S
C1835 C1834 1.369 . S
C1835 C1836 1.410 . S
C1835 C1843 1.503 . S
C1836 C1835 1.410 . S
C1836 C1837 1.392 . S
C1836 C1839 1.511 . S
C1837 C1833 1.376 . S
C1837 C1836 1.392 . S
C1837 H1849 0.929 . S
C1838 C1834 1.531 . S
C1838 H1850 0.960 . S
C1838 H1851 0.962 . S
C1838 H1852 0.960 . S
C1839 C1836 1.511 . S
C1839 H1853 0.961 . S
C1839 H1854 0.961 . S
C1839 H1855 0.961 . S
C1840 C1841 1.370 . S
C1840 C1842 1.363 . S
C1840 H1856 0.931 . S
C1841 C1840 1.370 . S
C1841 C1845 1.408 . S
C1842 C1840 1.363 . S
C1842 C1843 1.370 . S
C1842 C1846 1.524 . S
C1843 C1835 1.503 . S
C1843 C1842 1.370 . S
C1843 C1844 1.403 . S
C1844 C1843 1.403 . S
C1844 C1845 1.404 . S
C1844 C1847 1.539 . S
C1845 C1841 1.408 . S
C1845 C1844 1.404 . S
C1845 H1857 0.930 . S
C1846 C1842 1.524 . S
C1846 H1858 0.956 . S
C1846 H1859 0.961 . S
C1846 H1860 0.961 . S
C1847 C1844 1.539 . S
C1847 H1861 0.958 . S
C1847 H1862 0.961 . S
C1847 H1863 0.960 . S
H1848 C1832 0.931 . S
H1849 C1837 0.929 . S
H1850 C1838 0.960 . S
H1851 C1838 0.962 . S
H1852 C1838 0.960 . S
H1853 C1839 0.961 . S
H1854 C1839 0.961 . S
H1855 C1839 0.961 . S
H1856 C1840 0.931 . S
H1857 C1845 0.930 . S
H1858 C1846 0.956 . S
H1859 C1846 0.961 . S
H1860 C1846 0.961 . S
H1861 C1847 0.958 . S
H1862 C1847 0.961 . S
H1863 C1847 0.960 . S
C1864 C1865 1.391 . S
C1864 C1866 1.394 . S
C1864 H1880 0.931 . S
C1865 C1864 1.391 . S
C1865 C1869 1.376 . S
C1866 C1864 1.394 . S
C1866 C1867 1.369 . S
C1866 C1870 1.531 . S
C1867 C1866 1.369 . S
C1867 C1868 1.410 . S
C1867 C1875 1.503 . S
C1868 C1867 1.410 . S
C1868 C1869 1.392 . S
C1868 C1871 1.511 . S
C1869 C1865 1.376 . S
C1869 C1868 1.392 . S
C1869 H1881 0.929 . S
C1870 C1866 1.531 . S
C1870 H1882 0.960 . S
C1870 H1883 0.962 . S
C1870 H1884 0.960 . S
C1871 C1868 1.511 . S
C1871 H1885 0.961 . S
C1871 H1886 0.961 . S
C1871 H1887 0.961 . S
C1872 C1873 1.370 . S
C1872 C1874 1.363 . S
C1872 H1888 0.931 . S
C1873 C1872 1.370 . S
C1873 C1877 1.408 . S
C1874 C1872 1.363 . S
C1874 C1875 1.370 . S
C1874 C1878 1.524 . S
C1875 C1867 1.503 . S
C1875 C1874 1.370 . S
C1875 C1876 1.403 . S
C1876 C1875 1.403 . S
C1876 C1877 1.404 . S
C1876 C1879 1.539 . S
C1877 C1873 1.408 . S
C1877 C1876 1.404 . S
C1877 H1889 0.930 . S
C1878 C1874 1.524 . S
C1878 H1890 0.956 . S
C1878 H1891 0.961 . S
C1878 H1892 0.961 . S
C1879 C1876 1.539 . S
C1879 H1893 0.958 . S
C1879 H1894 0.961 . S
C1879 H1895 0.960 . S
H1880 C1864 0.931 . S
H1881 C1869 0.929 . S
H1882 C1870 0.960 . S
H1883 C1870 0.962 . S
H1884 C1870 0.960 . S
H1885 C1871 0.961 . S
H1886 C1871 0.961 . S
H1887 C1871 0.961 . S
H1888 C1872 0.931 . S
H1889 C1877 0.930 . S
H1890 C1878 0.956 . S
H1891 C1878 0.961 . S
H1892 C1878 0.961 . S
H1893 C1879 0.958 . S
H1894 C1879 0.961 . S
H1895 C1879 0.960 . S
C1896 C1897 1.391 . S
C1896 C1898 1.394 . S
C1896 H1912 0.931 . S
C1897 C1896 1.391 . S
C1897 C1901 1.376 . S
C1898 C1896 1.394 . S
C1898 C1899 1.369 . S
C1898 C1902 1.531 . S
C1899 C1898 1.369 . S
C1899 C1900 1.410 . S
C1899 C1907 1.503 . S
C1900 C1899 1.410 . S
C1900 C1901 1.392 . S
C1900 C1903 1.511 . S
C1901 C1897 1.376 . S
C1901 C1900 1.392 . S
C1901 H1913 0.929 . S
C1902 C1898 1.531 . S
C1902 H1914 0.960 . S
C1902 H1915 0.962 . S
C1902 H1916 0.960 . S
C1903 C1900 1.511 . S
C1903 H1917 0.961 . S
C1903 H1918 0.961 . S
C1903 H1919 0.961 . S
C1904 C1905 1.370 . S
C1904 C1906 1.363 . S
C1904 H1920 0.931 . S
C1905 C1904 1.370 . S
C1905 C1909 1.408 . S
C1906 C1904 1.363 . S
C1906 C1907 1.370 . S
C1906 C1910 1.524 . S
C1907 C1899 1.503 . S
C1907 C1906 1.370 . S
C1907 C1908 1.403 . S
C1908 C1907 1.403 . S
C1908 C1909 1.404 . S
C1908 C1911 1.539 . S
C1909 C1905 1.408 . S
C1909 C1908 1.404 . S
C1909 H1921 0.930 . S
C1910 C1906 1.524 . S
C1910 H1922 0.956 . S
C1910 H1923 0.961 . S
C1910 H1924 0.961 . S
C1911 C1908 1.539 . S
C1911 H1925 0.958 . S
C1911 H1926 0.961 . S
C1911 H1927 0.960 . S
H1912 C1896 0.931 . S
H1913 C1901 0.929 . S
H1914 C1902 0.960 . S
H1915 C1902 0.962 . S
H1916 C1902 0.960 . S
H1917 C1903 0.961 . S
H1918 C1903 0.961 . S
H1919 C1903 0.961 . S
H1920 C1904 0.931 . S
H1921 C1909 0.930 . S
H1922 C1910 0.956 . S
H1923 C1910 0.961 . S
H1924 C1910 0.961 . S
H1925 C1911 0.958 . S
H1926 C1911 0.961 . S
H1927 C1911 0.960 . S
C1928 C1929 1.391 . S
C1928 C1930 1.394 . S
C1928 H1944 0.931 . S
C1929 C1928 1.391 . S
C1929 C1933 1.376 . S
C1930 C1928 1.394 . S
C1930 C1931 1.369 . S
C1930 C1934 1.531 . S
C1931 C1930 1.369 . S
C1931 C1932 1.410 . S
C1931 C1939 1.503 . S
C1932 C1931 1.410 . S
C1932 C1933 1.392 . S
C1932 C1935 1.511 . S
C1933 C1929 1.376 . S
C1933 C1932 1.392 . S
C1933 H1945 0.929 . S
C1934 C1930 1.531 . S
C1934 H1946 0.960 . S
C1934 H1947 0.962 . S
C1934 H1948 0.960 . S
C1935 C1932 1.511 . S
C1935 H1949 0.961 . S
C1935 H1950 0.961 . S
C1935 H1951 0.961 . S
C1936 C1937 1.370 . S
C1936 C1938 1.363 . S
C1936 H1952 0.931 . S
C1937 C1936 1.370 . S
C1937 C1941 1.408 . S
C1938 C1936 1.363 . S
C1938 C1939 1.370 . S
C1938 C1942 1.524 . S
C1939 C1931 1.503 . S
C1939 C1938 1.370 . S
C1939 C1940 1.403 . S
C1940 C1939 1.403 . S
C1940 C1941 1.404 . S
C1940 C1943 1.539 . S
C1941 C1937 1.408 . S
C1941 C1940 1.404 . S
C1941 H1953 0.930 . S
C1942 C1938 1.524 . S
C1942 H1954 0.956 . S
C1942 H1955 0.961 . S
C1942 H1956 0.961 . S
C1943 C1940 1.539 . S
C1943 H1957 0.958 . S
C1943 H1958 0.961 . S
C1943 H1959 0.960 . S
H1944 C1928 0.931 . S
H1945 C1933 0.929 . S
H1946 C1934 0.960 . S
H1947 C1934 0.962 . S
H1948 C1934 0.960 . S
H1949 C1935 0.961 . S
H1950 C1935 0.961 . S
H1951 C1935 0.961 . S
H1952 C1936 0.931 . S
H1953 C1941 0.930 . S
H1954 C1942 0.956 . S
H1955 C1942 0.961 . S
H1956 C1942 0.961 . S
H1957 C1943 0.958 . S
H1958 C1943 0.961 . S
H1959 C1943 0.960 . S
C1960 C1961 1.391 . S
C1960 C1962 1.394 . S
C1960 H1976 0.931 . S
C1961 C1960 1.391 . S
C1961 C1965 1.376 . S
C1962 C1960 1.394 . S
C1962 C1963 1.369 . S
C1962 C1966 1.531 . S
C1963 C1962 1.369 . S
C1963 C1964 1.410 . S
C1963 C1971 1.503 . S
C1964 C1963 1.410 . S
C1964 C1965 1.392 . S
C1964 C1967 1.511 . S
C1965 C1961 1.376 . S
C1965 C1964 1.392 . S
C1965 H1977 0.929 . S
C1966 C1962 1.531 . S
C1966 H1978 0.960 . S
C1966 H1979 0.962 . S
C1966 H1980 0.960 . S
C1967 C1964 1.511 . S
C1967 H1981 0.961 . S
C1967 H1982 0.961 . S
C1967 H1983 0.961 . S
C1968 C1969 1.370 . S
C1968 C1970 1.363 . S
C1968 H1984 0.931 . S
C1969 C1968 1.370 . S
C1969 C1973 1.408 . S
C1970 C1968 1.363 . S
C1970 C1971 1.370 . S
C1970 C1974 1.524 . S
C1971 C1963 1.503 . S
C1971 C1970 1.370 . S
C1971 C1972 1.403 . S
C1972 C1971 1.403 . S
C1972 C1973 1.404 . S
C1972 C1975 1.539 . S
C1973 C1969 1.408 . S
C1973 C1972 1.404 . S
C1973 H1985 0.930 . S
C1974 C1970 1.524 . S
C1974 H1986 0.956 . S
C1974 H1987 0.961 . S
C1974 H1988 0.961 . S
C1975 C1972 1.539 . S
C1975 H1989 0.958 . S
C1975 H1990 0.961 . S
C1975 H1991 0.960 . S
H1976 C1960 0.931 . S
H1977 C1965 0.929 . S
H1978 C1966 0.960 . S
H1979 C1966 0.962 . S
H1980 C1966 0.960 . S
H1981 C1967 0.961 . S
H1982 C1967 0.961 . S
H1983 C1967 0.961 . S
H1984 C1968 0.931 . S
H1985 C1973 0.930 . S
H1986 C1974 0.956 . S
H1987 C1974 0.961 . S
H1988 C1974 0.961 . S
H1989 C1975 0.958 . S
H1990 C1975 0.961 . S
H1991 C1975 0.960 . S
C1992 C1993 1.391 . S
C1992 C1994 1.394 . S
C1992 H2008 0.931 . S
C1993 C1992 1.391 . S
C1993 C1997 1.376 . S
C1994 C1992 1.394 . S
C1994 C1995 1.369 . S
C1994 C1998 1.531 . S
C1995 C1994 1.369 . S
C1995 C1996 1.410 . S
C1995 C2003 1.503 . S
C1996 C1995 1.410 . S
C1996 C1997 1.392 . S
C1996 C1999 1.511 . S
C1997 C1993 1.376 . S
C1997 C1996 1.392 . S
C1997 H2009 0.929 . S
C1998 C1994 1.531 . S
C1998 H2010 0.960 . S
C1998 H2011 0.962 . S
C1998 H2012 0.960 . S
C1999 C1996 1.511 . S
C1999 H2013 0.961 . S
C1999 H2014 0.961 . S
C1999 H2015 0.961 . S
C2000 C2001 1.370 . S
C2000 C2002 1.363 . S
C2000 H2016 0.931 . S
C2001 C2000 1.370 . S
C2001 C2005 1.408 . S
C2002 C2000 1.363 . S
C2002 C2003 1.370 . S
C2002 C2006 1.524 . S
C2003 C1995 1.503 . S
C2003 C2002 1.370 . S
C2003 C2004 1.403 . S
C2004 C2003 1.403 . S
C2004 C2005 1.404 . S
C2004 C2007 1.539 . S
C2005 C2001 1.408 . S
C2005 C2004 1.404 . S
C2005 H2017 0.930 . S
C2006 C2002 1.524 . S
C2006 H2018 0.956 . S
C2006 H2019 0.961 . S
C2006 H2020 0.961 . S
C2007 C2004 1.539 . S
C2007 H2021 0.958 . S
C2007 H2022 0.961 . S
C2007 H2023 0.960 . S
H2008 C1992 0.931 . S
H2009 C1997 0.929 . S
H2010 C1998 0.960 . S
H2011 C1998 0.962 . S
H2012 C1998 0.960 . S
H2013 C1999 0.961 . S
H2014 C1999 0.961 . S
H2015 C1999 0.961 . S
H2016 C2000 0.931 . S
H2017 C2005 0.930 . S
H2018 C2006 0.956 . S
H2019 C2006 0.961 . S
H2020 C2006 0.961 . S
H2021 C2007 0.958 . S
H2022 C2007 0.961 . S
H2023 C2007 0.960 . S
C2024 C2025 1.391 . S
C2024 C2026 1.394 . S
C2024 H2040 0.931 . S
C2025 C2024 1.391 . S
C2025 C2029 1.376 . S
C2026 C2024 1.394 . S
C2026 C2027 1.369 . S
C2026 C2030 1.531 . S
C2027 C2026 1.369 . S
C2027 C2028 1.410 . S
C2027 C2035 1.503 . S
C2028 C2027 1.410 . S
C2028 C2029 1.392 . S
C2028 C2031 1.511 . S
C2029 C2025 1.376 . S
C2029 C2028 1.392 . S
C2029 H2041 0.929 . S
C2030 C2026 1.531 . S
C2030 H2042 0.960 . S
C2030 H2043 0.962 . S
C2030 H2044 0.960 . S
C2031 C2028 1.511 . S
C2031 H2045 0.961 . S
C2031 H2046 0.961 . S
C2031 H2047 0.961 . S
C2032 C2033 1.370 . S
C2032 C2034 1.363 . S
C2032 H2048 0.931 . S
C2033 C2032 1.370 . S
C2033 C2037 1.408 . S
C2034 C2032 1.363 . S
C2034 C2035 1.370 . S
C2034 C2038 1.524 . S
C2035 C2027 1.503 . S
C2035 C2034 1.370 . S
C2035 C2036 1.403 . S
C2036 C2035 1.403 . S
C2036 C2037 1.404 . S
C2036 C2039 1.539 . S
C2037 C2033 1.408 . S
C2037 C2036 1.404 . S
C2037 H2049 0.930 . S
C2038 C2034 1.524 . S
C2038 H2050 0.956 . S
C2038 H2051 0.961 . S
C2038 H2052 0.961 . S
C2039 C2036 1.539 . S
C2039 H2053 0.958 . S
C2039 H2054 0.961 . S
C2039 H2055 0.960 . S
H2040 C2024 0.931 . S
H2041 C2029 0.929 . S
H2042 C2030 0.960 . S
H2043 C2030 0.962 . S
H2044 C2030 0.960 . S
H2045 C2031 0.961 . S
H2046 C2031 0.961 . S
H2047 C2031 0.961 . S
H2048 C2032 0.931 . S
H2049 C2037 0.930 . S
H2050 C2038 0.956 . S
H2051 C2038 0.961 . S
H2052 C2038 0.961 . S
H2053 C2039 0.958 . S
H2054 C2039 0.961 . S
H2055 C2039 0.960 . S
C2056 C2057 1.391 . S
C2056 C2058 1.394 . S
C2056 H2072 0.931 . S
C2057 C2056 1.391 . S
C2057 C2061 1.376 . S
C2058 C2056 1.394 . S
C2058 C2059 1.369 . S
C2058 C2062 1.531 . S
C2059 C2058 1.369 . S
C2059 C2060 1.410 . S
C2059 C2067 1.503 . S
C2060 C2059 1.410 . S
C2060 C2061 1.392 . S
C2060 C2063 1.511 . S
C2061 C2057 1.376 . S
C2061 C2060 1.392 . S
C2061 H2073 0.929 . S
C2062 C2058 1.531 . S
C2062 H2074 0.960 . S
C2062 H2075 0.962 . S
C2062 H2076 0.960 . S
C2063 C2060 1.511 . S
C2063 H2077 0.961 . S
C2063 H2078 0.961 . S
C2063 H2079 0.961 . S
C2064 C2065 1.370 . S
C2064 C2066 1.363 . S
C2064 H2080 0.931 . S
C2065 C2064 1.370 . S
C2065 C2069 1.408 . S
C2066 C2064 1.363 . S
C2066 C2067 1.370 . S
C2066 C2070 1.524 . S
C2067 C2059 1.503 . S
C2067 C2066 1.370 . S
C2067 C2068 1.403 . S
C2068 C2067 1.403 . S
C2068 C2069 1.404 . S
C2068 C2071 1.539 . S
C2069 C2065 1.408 . S
C2069 C2068 1.404 . S
C2069 H2081 0.930 . S
C2070 C2066 1.524 . S
C2070 H2082 0.956 . S
C2070 H2083 0.961 . S
C2070 H2084 0.961 . S
C2071 C2068 1.539 . S
C2071 H2085 0.958 . S
C2071 H2086 0.961 . S
C2071 H2087 0.960 . S
H2072 C2056 0.931 . S
H2073 C2061 0.929 . S
H2074 C2062 0.960 . S
H2075 C2062 0.962 . S
H2076 C2062 0.960 . S
H2077 C2063 0.961 . S
H2078 C2063 0.961 . S
H2079 C2063 0.961 . S
H2080 C2064 0.931 . S
H2081 C2069 0.930 . S
H2082 C2070 0.956 . S
H2083 C2070 0.961 . S
H2084 C2070 0.961 . S
H2085 C2071 0.958 . S
H2086 C2071 0.961 . S
H2087 C2071 0.960 . S
C2088 C2089 1.391 . S
C2088 C2090 1.394 . S
C2088 H2104 0.931 . S
C2089 C2088 1.391 . S
C2089 C2093 1.376 . S
C2090 C2088 1.394 . S
C2090 C2091 1.369 . S
C2090 C2094 1.531 . S
C2091 C2090 1.369 . S
C2091 C2092 1.410 . S
C2091 C2099 1.503 . S
C2092 C2091 1.410 . S
C2092 C2093 1.392 . S
C2092 C2095 1.511 . S
C2093 C2089 1.376 . S
C2093 C2092 1.392 . S
C2093 H2105 0.929 . S
C2094 C2090 1.531 . S
C2094 H2106 0.960 . S
C2094 H2107 0.962 . S
C2094 H2108 0.960 . S
C2095 C2092 1.511 . S
C2095 H2109 0.961 . S
C2095 H2110 0.961 . S
C2095 H2111 0.961 . S
C2096 C2097 1.370 . S
C2096 C2098 1.363 . S
C2096 H2112 0.931 . S
C2097 C2096 1.370 . S
C2097 C2101 1.408 . S
C2098 C2096 1.363 . S
C2098 C2099 1.370 . S
C2098 C2102 1.524 . S
C2099 C2091 1.503 . S
C2099 C2098 1.370 . S
C2099 C2100 1.403 . S
C2100 C2099 1.403 . S
C2100 C2101 1.404 . S
C2100 C2103 1.539 . S
C2101 C2097 1.408 . S
C2101 C2100 1.404 . S
C2101 H2113 0.930 . S
C2102 C2098 1.524 . S
C2102 H2114 0.956 . S
C2102 H2115 0.961 . S
C2102 H2116 0.961 . S
C2103 C2100 1.539 . S
C2103 H2117 0.958 . S
C2103 H2118 0.961 . S
C2103 H2119 0.960 . S
H2104 C2088 0.931 . S
H2105 C2093 0.929 . S
H2106 C2094 0.960 . S
H2107 C2094 0.962 . S
H2108 C2094 0.960 . S
H2109 C2095 0.961 . S
H2110 C2095 0.961 . S
H2111 C2095 0.961 . S
H2112 C2096 0.931 . S
H2113 C2101 0.930 . S
H2114 C2102 0.956 . S
H2115 C2102 0.961 . S
H2116 C2102 0.961 . S
H2117 C2103 0.958 . S
H2118 C2103 0.961 . S
H2119 C2103 0.960 . S
C2120 C2121 1.391 . S
C2120 C2122 1.394 . S
C2120 H2136 0.931 . S
C2121 C2120 1.391 . S
C2121 C2125 1.376 . S
C2122 C2120 1.394 . S
C2122 C2123 1.369 . S
C2122 C2126 1.531 . S
C2123 C2122 1.369 . S
C2123 C2124 1.410 . S
C2123 C2131 1.503 . S
C2124 C2123 1.410 . S
C2124 C2125 1.392 . S
C2124 C2127 1.511 . S
C2125 C2121 1.376 . S
C2125 C2124 1.392 . S
C2125 H2137 0.929 . S
C2126 C2122 1.531 . S
C2126 H2138 0.960 . S
C2126 H2139 0.962 . S
C2126 H2140 0.960 . S
C2127 C2124 1.511 . S
C2127 H2141 0.961 . S
C2127 H2142 0.961 . S
C2127 H2143 0.961 . S
C2128 C2129 1.370 . S
C2128 C2130 1.363 . S
C2128 H2144 0.931 . S
C2129 C2128 1.370 . S
C2129 C2133 1.408 . S
C2130 C2128 1.363 . S
C2130 C2131 1.370 . S
C2130 C2134 1.524 . S
C2131 C2123 1.503 . S
C2131 C2130 1.370 . S
C2131 C2132 1.403 . S
C2132 C2131 1.403 . S
C2132 C2133 1.404 . S
C2132 C2135 1.539 . S
C2133 C2129 1.408 . S
C2133 C2132 1.404 . S
C2133 H2145 0.930 . S
C2134 C2130 1.524 . S
C2134 H2146 0.956 . S
C2134 H2147 0.961 . S
C2134 H2148 0.961 . S
C2135 C2132 1.539 . S
C2135 H2149 0.958 . S
C2135 H2150 0.961 . S
C2135 H2151 0.960 . S
H2136 C2120 0.931 . S
H2137 C2125 0.929 . S
H2138 C2126 0.960 . S
H2139 C2126 0.962 . S
H2140 C2126 0.960 . S
H2141 C2127 0.961 . S
H2142 C2127 0.961 . S
H2143 C2127 0.961 . S
H2144 C2128 0.931 . S
H2145 C2133 0.930 . S
H2146 C2134 0.956 . S
H2147 C2134 0.961 . S
H2148 C2134 0.961 . S
H2149 C2135 0.958 . S
H2150 C2135 0.961 . S
H2151 C2135 0.960 . S
C2152 C2153 1.391 . S
C2152 C2154 1.394 . S
C2152 H2168 0.931 . S
C2153 C2152 1.391 . S
C2153 C2157 1.376 . S
C2154 C2152 1.394 . S
C2154 C2155 1.369 . S
C2154 C2158 1.531 . S
C2155 C2154 1.369 . S
C2155 C2156 1.410 . S
C2155 C2163 1.503 . S
C2156 C2155 1.410 . S
C2156 C2157 1.392 . S
C2156 C2159 1.511 . S
C2157 C2153 1.376 . S
C2157 C2156 1.392 . S
C2157 H2169 0.929 . S
C2158 C2154 1.531 . S
C2158 H2170 0.960 . S
C2158 H2171 0.962 . S
C2158 H2172 0.960 . S
C2159 C2156 1.511 . S
C2159 H2173 0.961 . S
C2159 H2174 0.961 . S
C2159 H2175 0.961 . S
C2160 C2161 1.370 . S
C2160 C2162 1.363 . S
C2160 H2176 0.931 . S
C2161 C2160 1.370 . S
C2161 C2165 1.408 . S
C2162 C2160 1.363 . S
C2162 C2163 1.370 . S
C2162 C2166 1.524 . S
C2163 C2155 1.503 . S
C2163 C2162 1.370 . S
C2163 C2164 1.403 . S
C2164 C2163 1.403 . S
C2164 C2165 1.404 . S
C2164 C2167 1.539 . S
C2165 C2161 1.408 . S
C2165 C2164 1.404 . S
C2165 H2177 0.930 . S
C2166 C2162 1.524 . S
C2166 H2178 0.956 . S
C2166 H2179 0.961 . S
C2166 H2180 0.961 . S
C2167 C2164 1.539 . S
C2167 H2181 0.958 . S
C2167 H2182 0.961 . S
C2167 H2183 0.960 . S
H2168 C2152 0.931 . S
H2169 C2157 0.929 . S
H2170 C2158 0.960 . S
H2171 C2158 0.962 . S
H2172 C2158 0.960 . S
H2173 C2159 0.961 . S
H2174 C2159 0.961 . S
H2175 C2159 0.961 . S
H2176 C2160 0.931 . S
H2177 C2165 0.930 . S
H2178 C2166 0.956 . S
H2179 C2166 0.961 . S
H2180 C2166 0.961 . S
H2181 C2167 0.958 . S
H2182 C2167 0.961 . S
H2183 C2167 0.960 . S
C2184 C2185 1.391 . S
C2184 C2186 1.394 1_556 S
C2184 H2200 0.931 . S
C2185 C2184 1.391 . S
C2185 C2189 1.376 . S
C2186 C2184 1.394 1_554 S
C2186 C2187 1.370 . S
C2186 C2190 1.531 . S
C2187 C2186 1.370 . S
C2187 C2188 1.407 1_554 S
C2187 C2195 1.504 1_655 S
C2188 C2187 1.407 1_556 S
C2188 C2189 1.392 . S
C2188 C2191 1.511 . S
C2189 C2185 1.376 . S
C2189 C2188 1.392 . S
C2189 H2201 0.929 . S
C2190 C2186 1.531 . S
C2190 H2202 0.960 . S
C2190 H2203 0.962 . S
C2190 H2204 0.960 . S
C2191 C2188 1.511 . S
C2191 H2205 0.961 . S
C2191 H2206 0.961 1_655 S
C2191 H2207 0.961 . S
C2192 C2193 1.370 . S
C2192 C2194 1.363 1_554 S
C2192 H2208 0.931 1_554 S
C2193 C2192 1.370 . S
C2193 C2197 1.408 . S
C2194 C2192 1.363 1_556 S
C2194 C2195 1.370 1_556 S
C2194 C2198 1.524 . S
C2195 C2187 1.504 1_455 S
C2195 C2194 1.370 1_554 S
C2195 C2196 1.403 . S
C2196 C2195 1.403 . S
C2196 C2197 1.404 . S
C2196 C2199 1.540 1_455 S
C2197 C2193 1.408 . S
C2197 C2196 1.404 . S
C2197 H2209 0.930 . S
C2198 C2194 1.524 . S
C2198 H2210 0.956 . S
C2198 H2211 0.961 . S
C2198 H2212 0.961 . S
C2199 C2196 1.540 1_655 S
C2199 H2213 0.957 . S
C2199 H2214 0.963 1_655 S
C2199 H2215 0.959 . S
H2200 C2184 0.931 . S
H2201 C2189 0.929 . S
H2202 C2190 0.960 . S
H2203 C2190 0.962 . S
H2204 C2190 0.960 . S
H2205 C2191 0.961 . S
H2206 C2191 0.961 1_455 S
H2207 C2191 0.961 . S
H2208 C2192 0.931 1_556 S
H2209 C2197 0.930 . S
H2210 C2198 0.956 . S
H2211 C2198 0.961 . S
H2212 C2198 0.961 . S
H2213 C2199 0.957 . S
H2214 C2199 0.963 1_455 S
H2215 C2199 0.959 . S
C2216 C2217 1.391 . S
C2216 C2218 1.394 1_556 S
C2216 H2232 0.931 1_556 S
C2217 C2216 1.391 . S
C2217 C2221 1.376 . S
C2218 C2216 1.394 1_554 S
C2218 C2219 1.369 1_554 S
C2218 C2222 1.531 . S
C2219 C2218 1.369 1_556 S
C2219 C2220 1.410 . S
C2219 C2227 1.503 1_556 S
C2220 C2219 1.410 . S
C2220 C2221 1.392 . S
C2220 C2223 1.511 . S
C2221 C2217 1.376 . S
C2221 C2220 1.392 . S
C2221 H2233 0.929 . S
C2222 C2218 1.531 . S
C2222 H2234 0.960 . S
C2222 H2235 0.962 . S
C2222 H2236 0.960 . S
C2223 C2220 1.511 . S
C2223 H2237 0.961 . S
C2223 H2238 0.961 . S
C2223 H2239 0.961 . S
C2224 C2225 1.370 . S
C2224 C2226 1.363 . S
C2224 H2240 0.931 . S
C2225 C2224 1.370 . S
C2225 C2229 1.408 . S
C2226 C2224 1.363 . S
C2226 C2227 1.370 . S
C2226 C2230 1.524 . S
C2227 C2219 1.503 1_554 S
C2227 C2226 1.370 . S
C2227 C2228 1.403 1_554 S
C2228 C2227 1.403 1_556 S
C2228 C2229 1.404 1_556 S
C2228 C2231 1.539 . S
C2229 C2225 1.408 . S
C2229 C2228 1.404 1_554 S
C2229 H2241 0.930 . S
C2230 C2226 1.524 . S
C2230 H2242 0.956 . S
C2230 H2243 0.961 . S
C2230 H2244 0.961 . S
C2231 C2228 1.539 . S
C2231 H2245 0.958 . S
C2231 H2246 0.961 . S
C2231 H2247 0.960 . S
H2232 C2216 0.931 1_554 S
H2233 C2221 0.929 . S
H2234 C2222 0.960 . S
H2235 C2222 0.962 . S
H2236 C2222 0.960 . S
H2237 C2223 0.961 . S
H2238 C2223 0.961 . S
H2239 C2223 0.961 . S
H2240 C2224 0.931 . S
H2241 C2229 0.930 . S
H2242 C2230 0.956 . S
H2243 C2230 0.961 . S
H2244 C2230 0.961 . S
H2245 C2231 0.958 . S
H2246 C2231 0.961 . S
H2247 C2231 0.960 . S
C2248 C2249 1.391 . S
C2248 C2250 1.394 . S
C2248 H2264 0.931 . S
C2249 C2248 1.391 . S
C2249 C2253 1.376 . S
C2250 C2248 1.394 . S
C2250 C2251 1.369 1_554 S
C2250 C2254 1.531 1_554 S
C2251 C2250 1.369 1_556 S
C2251 C2252 1.410 1_556 S
C2251 C2259 1.503 1_565 S
C2252 C2251 1.410 1_554 S
C2252 C2253 1.392 . S
C2252 C2255 1.511 . S
C2253 C2249 1.376 . S
C2253 C2252 1.392 . S
C2253 H2265 0.929 . S
C2254 C2250 1.531 1_556 S
C2254 H2266 0.960 . S
C2254 H2267 0.962 1_556 S
C2254 H2268 0.960 . S
C2255 C2252 1.511 . S
C2255 H2269 0.961 . S
C2255 H2270 0.961 1_565 S
C2255 H2271 0.961 1_554 S
C2256 C2257 1.370 1_554 S
C2256 C2258 1.363 . S
C2256 H2272 0.931 . S
C2257 C2256 1.370 1_556 S
C2257 C2261 1.408 . S
C2258 C2256 1.363 . S
C2258 C2259 1.370 1_554 S
C2258 C2262 1.524 . S
C2259 C2251 1.503 1_545 S
C2259 C2258 1.370 1_556 S
C2259 C2260 1.403 . S
C2260 C2259 1.403 . S
C2260 C2261 1.404 . S
C2260 C2263 1.539 1_545 S
C2261 C2257 1.408 . S
C2261 C2260 1.404 . S
C2261 H2273 0.930 . S
C2262 C2258 1.524 . S
C2262 H2274 0.956 . S
C2262 H2275 0.961 . S
C2262 H2276 0.961 . S
C2263 C2260 1.539 1_565 S
C2263 H2277 0.958 . S
C2263 H2278 0.961 1_565 S
C2263 H2279 0.960 . S
H2264 C2248 0.931 . S
H2265 C2253 0.929 . S
H2266 C2254 0.960 . S
H2267 C2254 0.962 1_554 S
H2268 C2254 0.960 . S
H2269 C2255 0.961 . S
H2270 C2255 0.961 1_545 S
H2271 C2255 0.961 1_556 S
H2272 C2256 0.931 . S
H2273 C2261 0.930 . S
H2274 C2262 0.956 . S
H2275 C2262 0.961 . S
H2276 C2262 0.961 . S
H2277 C2263 0.958 . S
H2278 C2263 0.961 1_545 S
H2279 C2263 0.960 . S
C2280 C2281 1.391 1_556 S
C2280 C2282 1.394 . S
C2280 H2296 0.931 . S
C2281 C2280 1.391 1_554 S
C2281 C2285 1.376 . S
C2282 C2280 1.394 . S
C2282 C2283 1.369 1_556 S
C2282 C2286 1.531 . S
C2283 C2282 1.369 1_554 S
C2283 C2284 1.410 . S
C2283 C2291 1.503 1_564 S
C2284 C2283 1.410 . S
C2284 C2285 1.392 . S
C2284 C2287 1.492 1_565 S
C2285 C2281 1.376 . S
C2285 C2284 1.392 . S
C2285 H2297 0.929 . S
C2286 C2282 1.531 . S
C2286 H2298 0.960 . S
C2286 H2299 0.962 . S
C2286 H2300 0.960 . S
C2287 C2284 1.492 1_545 S
C2287 H2301 0.956 1_545 S
C2287 H2302 0.974 . S
C2287 H2303 0.938 . S
C2288 C2289 1.370 . S
C2288 C2290 1.369 . S
C2288 H2304 0.931 . S
C2289 C2288 1.370 . S
C2289 C2293 1.408 . S
C2290 C2288 1.369 . S
C2290 C2291 1.375 . S
C2290 C2294 1.515 1_556 S
C2291 C2283 1.503 1_546 S
C2291 C2290 1.375 . S
C2291 C2292 1.403 . S
C2292 C2291 1.403 . S
C2292 C2293 1.404 . S
C2292 C2295 1.539 . S
C2293 C2289 1.408 . S
C2293 C2292 1.404 . S
C2293 H2305 0.930 . S
C2294 C2290 1.515 1_554 S
C2294 H2306 0.956 . S
C2294 H2307 0.961 . S
C2294 H2308 0.961 . S
C2295 C2292 1.539 . S
C2295 H2309 0.924 1_545 S
C2295 H2310 0.961 . S
C2295 H2311 0.960 1_545 S
H2296 C2280 0.931 . S
H2297 C2285 0.929 . S
H2298 C2286 0.960 . S
H2299 C2286 0.962 . S
H2300 C2286 0.960 . S
H2301 C2287 0.956 1_565 S
H2302 C2287 0.974 . S
H2303 C2287 0.938 . S
H2304 C2288 0.931 . S
H2305 C2293 0.930 . S
H2306 C2294 0.956 . S
H2307 C2294 0.961 . S
H2308 C2294 0.961 . S
H2309 C2295 0.924 1_565 S
H2310 C2295 0.961 . S
H2311 C2295 0.960 1_565 S
C2312 C2313 1.391 . S
C2312 C2314 1.394 . S
C2312 H2328 0.931 . S
C2313 C2312 1.391 . S
C2313 C2317 1.376 . S
C2314 C2312 1.394 . S
C2314 C2315 1.369 . S
C2314 C2318 1.531 1_655 S
C2315 C2314 1.369 . S
C2315 C2316 1.410 1_556 S
C2315 C2323 1.503 1_656 S
C2316 C2315 1.410 1_554 S
C2316 C2317 1.392 1_554 S
C2316 C2319 1.511 . S
C2317 C2313 1.376 . S
C2317 C2316 1.392 1_556 S
C2317 H2329 0.929 1_556 S
C2318 C2314 1.531 1_455 S
C2318 H2330 0.960 . S
C2318 H2331 0.962 . S
C2318 H2332 0.948 1_455 S
C2319 C2316 1.511 . S
C2319 H2333 0.961 . S
C2319 H2334 0.961 . S
C2319 H2335 0.961 . S
C2320 C2321 1.370 . S
C2320 C2322 1.363 . S
C2320 H2336 0.931 . S
C2321 C2320 1.370 . S
C2321 C2325 1.408 . S
C2322 C2320 1.363 . S
C2322 C2323 1.370 . S
C2322 C2326 1.524 . S
C2323 C2315 1.503 1_454 S
C2323 C2322 1.370 . S
C2323 C2324 1.401 1_554 S
C2324 C2323 1.401 1_556 S
C2324 C2325 1.398 1_556 S
C2324 C2327 1.546 . S
C2325 C2321 1.408 . S
C2325 C2324 1.398 1_554 S
C2325 H2337 0.930 . S
C2326 C2322 1.524 . S
C2326 H2338 0.956 1_455 S
C2326 H2339 0.961 1_455 S
C2326 H2340 0.961 . S
C2327 C2324 1.546 . S
C2327 H2341 0.958 . S
C2327 H2342 0.961 . S
C2327 H2343 0.960 . S
H2328 C2312 0.931 . S
H2329 C2317 0.929 1_554 S
H2330 C2318 0.960 . S
H2331 C2318 0.962 . S
H2332 C2318 0.948 1_655 S
H2333 C2319 0.961 . S
H2334 C2319 0.961 . S
H2335 C2319 0.961 . S
H2336 C2320 0.931 . S
H2337 C2325 0.930 . S
H2338 C2326 0.956 1_655 S
H2339 C2326 0.961 1_655 S
H2340 C2326 0.961 . S
H2341 C2327 0.958 . S
H2342 C2327 0.961 . S
H2343 C2327 0.960 . S
C2344 C2345 1.391 . S
C2344 C2346 1.394 1_556 S
C2344 H2360 0.931 . S
C2345 C2344 1.391 . S
C2345 C2349 1.376 . S
C2346 C2344 1.394 1_554 S
C2346 C2347 1.369 . S
C2346 C2350 1.531 . S
C2347 C2346 1.369 . S
C2347 C2348 1.410 1_554 S
C2347 C2355 1.503 . S
C2348 C2347 1.410 1_556 S
C2348 C2349 1.392 . S
C2348 C2351 1.511 . S
C2349 C2345 1.376 . S
C2349 C2348 1.392 . S
C2349 H2361 0.929 . S
C2350 C2346 1.531 . S
C2350 H2362 0.960 . S
C2350 H2363 0.962 . S
C2350 H2364 0.960 . S
C2351 C2348 1.511 . S
C2351 H2365 0.961 . S
C2351 H2366 0.961 . S
C2351 H2367 0.961 1_556 S
C2352 C2353 1.369 1_556 S
C2352 C2354 1.364 . S
C2352 H2368 0.932 . S
C2353 C2352 1.369 1_554 S
C2353 C2357 1.408 . S
C2354 C2352 1.364 . S
C2354 C2355 1.370 1_556 S
C2354 C2358 1.524 . S
C2355 C2347 1.503 . S
C2355 C2354 1.370 1_554 S
C2355 C2356 1.403 . S
C2356 C2355 1.403 . S
C2356 C2357 1.404 . S
C2356 C2359 1.539 . S
C2357 C2353 1.408 . S
C2357 C2356 1.404 . S
C2357 H2369 0.930 . S
C2358 C2354 1.524 . S
C2358 H2370 0.956 . S
C2358 H2371 0.961 . S
C2358 H2372 0.961 . S
C2359 C2356 1.539 . S
C2359 H2373 0.958 . S
C2359 H2374 0.961 . S
C2359 H2375 0.960 . S
H2360 C2344 0.931 . S
H2361 C2349 0.929 . S
H2362 C2350 0.960 . S
H2363 C2350 0.962 . S
H2364 C2350 0.960 . S
H2365 C2351 0.961 . S
H2366 C2351 0.961 . S
H2367 C2351 0.961 1_554 S
H2368 C2352 0.932 . S
H2369 C2357 0.930 . S
H2370 C2358 0.956 . S
H2371 C2358 0.961 . S
H2372 C2358 0.961 . S
H2373 C2359 0.958 . S
H2374 C2359 0.961 . S
H2375 C2359 0.960 . S
C2376 C2377 1.391 . S
C2376 C2378 1.394 . S
C2376 H2392 0.931 . S
C2377 C2376 1.391 . S
C2377 C2381 1.376 . S
C2378 C2376 1.394 . S
C2378 C2379 1.369 . S
C2378 C2382 1.531 . S
C2379 C2378 1.369 . S
C2379 C2380 1.410 . S
C2379 C2387 1.503 . S
C2380 C2379 1.410 . S
C2380 C2381 1.392 . S
C2380 C2383 1.511 . S
C2381 C2377 1.376 . S
C2381 C2380 1.392 . S
C2381 H2393 0.929 . S
C2382 C2378 1.531 . S
C2382 H2394 0.960 . S
C2382 H2395 0.962 . S
C2382 H2396 0.960 . S
C2383 C2380 1.511 . S
C2383 H2397 0.961 . S
C2383 H2398 0.961 . S
C2383 H2399 0.961 . S
C2384 C2385 1.370 . S
C2384 C2386 1.363 . S
C2384 H2400 0.931 . S
C2385 C2384 1.370 . S
C2385 C2389 1.408 . S
C2386 C2384 1.363 . S
C2386 C2387 1.370 . S
C2386 C2390 1.524 . S
C2387 C2379 1.503 . S
C2387 C2386 1.370 . S
C2387 C2388 1.403 . S
C2388 C2387 1.403 . S
C2388 C2389 1.404 . S
C2388 C2391 1.539 . S
C2389 C2385 1.408 . S
C2389 C2388 1.404 . S
C2389 H2401 0.930 . S
C2390 C2386 1.524 . S
C2390 H2402 0.956 . S
C2390 H2403 0.961 . S
C2390 H2404 0.961 . S
C2391 C2388 1.539 . S
C2391 H2405 0.958 . S
C2391 H2406 0.961 . S
C2391 H2407 0.960 . S
H2392 C2376 0.931 . S
H2393 C2381 0.929 . S
H2394 C2382 0.960 . S
H2395 C2382 0.962 . S
H2396 C2382 0.960 . S
H2397 C2383 0.961 . S
H2398 C2383 0.961 . S
H2399 C2383 0.961 . S
H2400 C2384 0.931 . S
H2401 C2389 0.930 . S
H2402 C2390 0.956 . S
H2403 C2390 0.961 . S
H2404 C2390 0.961 . S
H2405 C2391 0.958 . S
H2406 C2391 0.961 . S
H2407 C2391 0.960 . S
C2408 C2409 1.391 . S
C2408 C2410 1.394 . S
C2408 H2424 0.931 . S
C2409 C2408 1.391 . S
C2409 C2413 1.376 . S
C2410 C2408 1.394 . S
C2410 C2411 1.369 . S
C2410 C2414 1.531 . S
C2411 C2410 1.369 . S
C2411 C2412 1.410 . S
C2411 C2419 1.503 . S
C2412 C2411 1.410 . S
C2412 C2413 1.392 . S
C2412 C2415 1.511 . S
C2413 C2409 1.376 . S
C2413 C2412 1.392 . S
C2413 H2425 0.929 . S
C2414 C2410 1.531 . S
C2414 H2426 0.960 . S
C2414 H2427 0.962 . S
C2414 H2428 0.960 . S
C2415 C2412 1.511 . S
C2415 H2429 0.961 . S
C2415 H2430 0.961 . S
C2415 H2431 0.961 . S
C2416 C2417 1.370 . S
C2416 C2418 1.363 . S
C2416 H2432 0.931 . S
C2417 C2416 1.370 . S
C2417 C2421 1.408 . S
C2418 C2416 1.363 . S
C2418 C2419 1.370 . S
C2418 C2422 1.524 . S
C2419 C2411 1.503 . S
C2419 C2418 1.370 . S
C2419 C2420 1.403 . S
C2420 C2419 1.403 . S
C2420 C2421 1.404 . S
C2420 C2423 1.539 . S
C2421 C2417 1.408 . S
C2421 C2420 1.404 . S
C2421 H2433 0.930 . S
C2422 C2418 1.524 . S
C2422 H2434 0.956 . S
C2422 H2435 0.961 . S
C2422 H2436 0.961 . S
C2423 C2420 1.539 . S
C2423 H2437 0.958 . S
C2423 H2438 0.961 . S
C2423 H2439 0.960 . S
H2424 C2408 0.931 . S
H2425 C2413 0.929 . S
H2426 C2414 0.960 . S
H2427 C2414 0.962 . S
H2428 C2414 0.960 . S
H2429 C2415 0.961 . S
H2430 C2415 0.961 . S
H2431 C2415 0.961 . S
H2432 C2416 0.931 . S
H2433 C2421 0.930 . S
H2434 C2422 0.956 . S
H2435 C2422 0.961 . S
H2436 C2422 0.961 . S
H2437 C2423 0.958 . S
H2438 C2423 0.961 . S
H2439 C2423 0.960 . S
C2440 C2441 1.391 . S
C2440 C2442 1.394 . S
C2440 H2456 0.931 . S
C2441 C2440 1.391 . S
C2441 C2445 1.376 . S
C2442 C2440 1.394 . S
C2442 C2443 1.369 . S
C2442 C2446 1.531 . S
C2443 C2442 1.369 . S
C2443 C2444 1.410 . S
C2443 C2451 1.503 . S
C2444 C2443 1.410 . S
C2444 C2445 1.392 . S
C2444 C2447 1.511 . S
C2445 C2441 1.376 . S
C2445 C2444 1.392 . S
C2445 H2457 0.929 . S
C2446 C2442 1.531 . S
C2446 H2458 0.960 . S
C2446 H2459 0.962 . S
C2446 H2460 0.960 . S
C2447 C2444 1.511 . S
C2447 H2461 0.961 . S
C2447 H2462 0.961 . S
C2447 H2463 0.961 . S
C2448 C2449 1.370 . S
C2448 C2450 1.363 . S
C2448 H2464 0.931 . S
C2449 C2448 1.370 . S
C2449 C2453 1.408 . S
C2450 C2448 1.363 . S
C2450 C2451 1.370 . S
C2450 C2454 1.524 . S
C2451 C2443 1.503 . S
C2451 C2450 1.370 . S
C2451 C2452 1.403 . S
C2452 C2451 1.403 . S
C2452 C2453 1.404 . S
C2452 C2455 1.539 . S
C2453 C2449 1.408 . S
C2453 C2452 1.404 . S
C2453 H2465 0.930 . S
C2454 C2450 1.524 . S
C2454 H2466 0.956 . S
C2454 H2467 0.961 . S
C2454 H2468 0.961 . S
C2455 C2452 1.539 . S
C2455 H2469 0.958 . S
C2455 H2470 0.961 . S
C2455 H2471 0.960 . S
H2456 C2440 0.931 . S
H2457 C2445 0.929 . S
H2458 C2446 0.960 . S
H2459 C2446 0.962 . S
H2460 C2446 0.960 . S
H2461 C2447 0.961 . S
H2462 C2447 0.961 . S
H2463 C2447 0.961 . S
H2464 C2448 0.931 . S
H2465 C2453 0.930 . S
H2466 C2454 0.956 . S
H2467 C2454 0.961 . S
H2468 C2454 0.961 . S
H2469 C2455 0.958 . S
H2470 C2455 0.961 . S
H2471 C2455 0.960 . S
C2472 C2473 1.391 . S
C2472 C2474 1.394 . S
C2472 H2488 0.931 . S
C2473 C2472 1.391 . S
C2473 C2477 1.376 . S
C2474 C2472 1.394 . S
C2474 C2475 1.369 . S
C2474 C2478 1.531 . S
C2475 C2474 1.369 . S
C2475 C2476 1.410 . S
C2475 C2483 1.503 . S
C2476 C2475 1.410 . S
C2476 C2477 1.392 . S
C2476 C2479 1.511 . S
C2477 C2473 1.376 . S
C2477 C2476 1.392 . S
C2477 H2489 0.929 . S
C2478 C2474 1.531 . S
C2478 H2490 0.960 . S
C2478 H2491 0.962 . S
C2478 H2492 0.960 . S
C2479 C2476 1.511 . S
C2479 H2493 0.961 . S
C2479 H2494 0.961 . S
C2479 H2495 0.961 . S
C2480 C2481 1.370 . S
C2480 C2482 1.363 . S
C2480 H2496 0.931 . S
C2481 C2480 1.370 . S
C2481 C2485 1.408 . S
C2482 C2480 1.363 . S
C2482 C2483 1.370 . S
C2482 C2486 1.524 . S
C2483 C2475 1.503 . S
C2483 C2482 1.370 . S
C2483 C2484 1.403 . S
C2484 C2483 1.403 . S
C2484 C2485 1.404 . S
C2484 C2487 1.539 . S
C2485 C2481 1.408 . S
C2485 C2484 1.404 . S
C2485 H2497 0.930 . S
C2486 C2482 1.524 . S
C2486 H2498 0.956 . S
C2486 H2499 0.961 . S
C2486 H2500 0.961 . S
C2487 C2484 1.539 . S
C2487 H2501 0.958 . S
C2487 H2502 0.961 . S
C2487 H2503 0.960 . S
H2488 C2472 0.931 . S
H2489 C2477 0.929 . S
H2490 C2478 0.960 . S
H2491 C2478 0.962 . S
H2492 C2478 0.960 . S
H2493 C2479 0.961 . S
H2494 C2479 0.961 . S
H2495 C2479 0.961 . S
H2496 C2480 0.931 . S
H2497 C2485 0.930 . S
H2498 C2486 0.956 . S
H2499 C2486 0.961 . S
H2500 C2486 0.961 . S
H2501 C2487 0.958 . S
H2502 C2487 0.961 . S
H2503 C2487 0.960 . S
C2504 C2505 1.391 . S
C2504 C2506 1.394 . S
C2504 H2520 0.931 . S
C2505 C2504 1.391 . S
C2505 C2509 1.376 . S
C2506 C2504 1.394 . S
C2506 C2507 1.369 . S
C2506 C2510 1.531 . S
C2507 C2506 1.369 . S
C2507 C2508 1.410 . S
C2507 C2515 1.503 . S
C2508 C2507 1.410 . S
C2508 C2509 1.392 . S
C2508 C2511 1.511 . S
C2509 C2505 1.376 . S
C2509 C2508 1.392 . S
C2509 H2521 0.929 . S
C2510 C2506 1.531 . S
C2510 H2522 0.960 . S
C2510 H2523 0.962 . S
C2510 H2524 0.960 . S
C2511 C2508 1.511 . S
C2511 H2525 0.961 . S
C2511 H2526 0.961 . S
C2511 H2527 0.961 . S
C2512 C2513 1.370 . S
C2512 C2514 1.363 . S
C2512 H2528 0.931 . S
C2513 C2512 1.370 . S
C2513 C2517 1.408 . S
C2514 C2512 1.363 . S
C2514 C2515 1.370 . S
C2514 C2518 1.524 . S
C2515 C2507 1.503 . S
C2515 C2514 1.370 . S
C2515 C2516 1.403 . S
C2516 C2515 1.403 . S
C2516 C2517 1.404 . S
C2516 C2519 1.539 . S
C2517 C2513 1.408 . S
C2517 C2516 1.404 . S
C2517 H2529 0.930 . S
C2518 C2514 1.524 . S
C2518 H2530 0.956 . S
C2518 H2531 0.961 . S
C2518 H2532 0.961 . S
C2519 C2516 1.539 . S
C2519 H2533 0.958 . S
C2519 H2534 0.961 . S
C2519 H2535 0.960 . S
H2520 C2504 0.931 . S
H2521 C2509 0.929 . S
H2522 C2510 0.960 . S
H2523 C2510 0.962 . S
H2524 C2510 0.960 . S
H2525 C2511 0.961 . S
H2526 C2511 0.961 . S
H2527 C2511 0.961 . S
H2528 C2512 0.931 . S
H2529 C2517 0.930 . S
H2530 C2518 0.956 . S
H2531 C2518 0.961 . S
H2532 C2518 0.961 . S
H2533 C2519 0.958 . S
H2534 C2519 0.961 . S
H2535 C2519 0.960 . S
C2536 C2537 1.391 . S
C2536 C2538 1.394 . S
C2536 H2552 0.931 . S
C2537 C2536 1.391 . S
C2537 C2541 1.376 . S
C2538 C2536 1.394 . S
C2538 C2539 1.369 . S
C2538 C2542 1.531 . S
C2539 C2538 1.369 . S
C2539 C2540 1.410 . S
C2539 C2547 1.503 . S
C2540 C2539 1.410 . S
C2540 C2541 1.392 . S
C2540 C2543 1.511 . S
C2541 C2537 1.376 . S
C2541 C2540 1.392 . S
C2541 H2553 0.929 . S
C2542 C2538 1.531 . S
C2542 H2554 0.960 . S
C2542 H2555 0.962 . S
C2542 H2556 0.960 . S
C2543 C2540 1.511 . S
C2543 H2557 0.961 . S
C2543 H2558 0.961 . S
C2543 H2559 0.961 . S
C2544 C2545 1.370 . S
C2544 C2546 1.363 . S
C2544 H2560 0.931 . S
C2545 C2544 1.370 . S
C2545 C2549 1.408 . S
C2546 C2544 1.363 . S
C2546 C2547 1.370 . S
C2546 C2550 1.524 . S
C2547 C2539 1.503 . S
C2547 C2546 1.370 . S
C2547 C2548 1.403 . S
C2548 C2547 1.403 . S
C2548 C2549 1.404 . S
C2548 C2551 1.539 . S
C2549 C2545 1.408 . S
C2549 C2548 1.404 . S
C2549 H2561 0.930 . S
C2550 C2546 1.524 . S
C2550 H2562 0.956 . S
C2550 H2563 0.961 . S
C2550 H2564 0.961 . S
C2551 C2548 1.539 . S
C2551 H2565 0.958 . S
C2551 H2566 0.961 . S
C2551 H2567 0.960 . S
H2552 C2536 0.931 . S
H2553 C2541 0.929 . S
H2554 C2542 0.960 . S
H2555 C2542 0.962 . S
H2556 C2542 0.960 . S
H2557 C2543 0.961 . S
H2558 C2543 0.961 . S
H2559 C2543 0.961 . S
H2560 C2544 0.931 . S
H2561 C2549 0.930 . S
H2562 C2550 0.956 . S
H2563 C2550 0.961 . S
H2564 C2550 0.961 . S
H2565 C2551 0.958 . S
H2566 C2551 0.961 . S
H2567 C2551 0.960 . S
C2568 C2569 1.391 . S
C2568 C2570 1.394 . S
C2568 H2584 0.931 . S
C2569 C2568 1.391 . S
C2569 C2573 1.376 . S
C2570 C2568 1.394 . S
C2570 C2571 1.369 . S
C2570 C2574 1.531 . S
C2571 C2570 1.369 . S
C2571 C2572 1.410 . S
C2571 C2579 1.503 . S
C2572 C2571 1.410 . S
C2572 C2573 1.392 . S
C2572 C2575 1.511 . S
C2573 C2569 1.376 . S
C2573 C2572 1.392 . S
C2573 H2585 0.929 . S
C2574 C2570 1.531 . S
C2574 H2586 0.960 . S
C2574 H2587 0.962 . S
C2574 H2588 0.960 . S
C2575 C2572 1.511 . S
C2575 H2589 0.961 . S
C2575 H2590 0.961 . S
C2575 H2591 0.961 . S
C2576 C2577 1.370 . S
C2576 C2578 1.363 . S
C2576 H2592 0.931 . S
C2577 C2576 1.370 . S
C2577 C2581 1.408 . S
C2578 C2576 1.363 . S
C2578 C2579 1.370 . S
C2578 C2582 1.524 . S
C2579 C2571 1.503 . S
C2579 C2578 1.370 . S
C2579 C2580 1.403 . S
C2580 C2579 1.403 . S
C2580 C2581 1.404 . S
C2580 C2583 1.539 . S
C2581 C2577 1.408 . S
C2581 C2580 1.404 . S
C2581 H2593 0.930 . S
C2582 C2578 1.524 . S
C2582 H2594 0.956 . S
C2582 H2595 0.961 . S
C2582 H2596 0.961 . S
C2583 C2580 1.539 . S
C2583 H2597 0.958 . S
C2583 H2598 0.961 . S
C2583 H2599 0.960 . S
H2584 C2568 0.931 . S
H2585 C2573 0.929 . S
H2586 C2574 0.960 . S
H2587 C2574 0.962 . S
H2588 C2574 0.960 . S
H2589 C2575 0.961 . S
H2590 C2575 0.961 . S
H2591 C2575 0.961 . S
H2592 C2576 0.931 . S
H2593 C2581 0.930 . S
H2594 C2582 0.956 . S
H2595 C2582 0.961 . S
H2596 C2582 0.961 . S
H2597 C2583 0.958 . S
H2598 C2583 0.961 . S
H2599 C2583 0.960 . S
C2600 C2601 1.391 . S
C2600 C2602 1.394 . S
C2600 H2616 0.931 . S
C2601 C2600 1.391 . S
C2601 C2605 1.376 . S
C2602 C2600 1.394 . S
C2602 C2603 1.369 . S
C2602 C2606 1.531 . S
C2603 C2602 1.369 . S
C2603 C2604 1.410 . S
C2603 C2611 1.503 . S
C2604 C2603 1.410 . S
C2604 C2605 1.392 . S
C2604 C2607 1.511 . S
C2605 C2601 1.376 . S
C2605 C2604 1.392 . S
C2605 H2617 0.929 . S
C2606 C2602 1.531 . S
C2606 H2618 0.960 . S
C2606 H2619 0.962 . S
C2606 H2620 0.960 . S
C2607 C2604 1.511 . S
C2607 H2621 0.961 . S
C2607 H2622 0.961 . S
C2607 H2623 0.961 . S
C2608 C2609 1.370 . S
C2608 C2610 1.363 . S
C2608 H2624 0.931 . S
C2609 C2608 1.370 . S
C2609 C2613 1.408 . S
C2610 C2608 1.363 . S
C2610 C2611 1.370 . S
C2610 C2614 1.524 . S
C2611 C2603 1.503 . S
C2611 C2610 1.370 . S
C2611 C2612 1.403 . S
C2612 C2611 1.403 . S
C2612 C2613 1.404 . S
C2612 C2615 1.539 . S
C2613 C2609 1.408 . S
C2613 C2612 1.404 . S
C2613 H2625 0.930 . S
C2614 C2610 1.524 . S
C2614 H2626 0.956 . S
C2614 H2627 0.961 . S
C2614 H2628 0.961 . S
C2615 C2612 1.539 . S
C2615 H2629 0.958 . S
C2615 H2630 0.961 . S
C2615 H2631 0.960 . S
H2616 C2600 0.931 . S
H2617 C2605 0.929 . S
H2618 C2606 0.960 . S
H2619 C2606 0.962 . S
H2620 C2606 0.960 . S
H2621 C2607 0.961 . S
H2622 C2607 0.961 . S
H2623 C2607 0.961 . S
H2624 C2608 0.931 . S
H2625 C2613 0.930 . S
H2626 C2614 0.956 . S
H2627 C2614 0.961 . S
H2628 C2614 0.961 . S
H2629 C2615 0.958 . S
H2630 C2615 0.961 . S
H2631 C2615 0.960 . S
C2632 C2633 1.391 . S
C2632 C2634 1.394 . S
C2632 H2648 0.931 . S
C2633 C2632 1.391 . S
C2633 C2637 1.376 . S
C2634 C2632 1.394 . S
C2634 C2635 1.369 . S
C2634 C2638 1.531 . S
C2635 C2634 1.369 . S
C2635 C2636 1.410 . S
C2635 C2643 1.503 . S
C2636 C2635 1.410 . S
C2636 C2637 1.392 . S
C2636 C2639 1.511 . S
C2637 C2633 1.376 . S
C2637 C2636 1.392 . S
C2637 H2649 0.929 . S
C2638 C2634 1.531 . S
C2638 H2650 0.960 . S
C2638 H2651 0.962 . S
C2638 H2652 0.960 . S
C2639 C2636 1.511 . S
C2639 H2653 0.961 . S
C2639 H2654 0.961 . S
C2639 H2655 0.961 . S
C2640 C2641 1.370 . S
C2640 C2642 1.363 . S
C2640 H2656 0.931 . S
C2641 C2640 1.370 . S
C2641 C2645 1.408 . S
C2642 C2640 1.363 . S
C2642 C2643 1.370 . S
C2642 C2646 1.524 . S
C2643 C2635 1.503 . S
C2643 C2642 1.370 . S
C2643 C2644 1.403 . S
C2644 C2643 1.403 . S
C2644 C2645 1.404 . S
C2644 C2647 1.539 . S
C2645 C2641 1.408 . S
C2645 C2644 1.404 . S
C2645 H2657 0.930 . S
C2646 C2642 1.524 . S
C2646 H2658 0.956 . S
C2646 H2659 0.961 . S
C2646 H2660 0.961 . S
C2647 C2644 1.539 . S
C2647 H2661 0.958 . S
C2647 H2662 0.961 . S
C2647 H2663 0.960 . S
H2648 C2632 0.931 . S
H2649 C2637 0.929 . S
H2650 C2638 0.960 . S
H2651 C2638 0.962 . S
H2652 C2638 0.960 . S
H2653 C2639 0.961 . S
H2654 C2639 0.961 . S
H2655 C2639 0.961 . S
H2656 C2640 0.931 . S
H2657 C2645 0.930 . S
H2658 C2646 0.956 . S
H2659 C2646 0.961 . S
H2660 C2646 0.961 . S
H2661 C2647 0.958 . S
H2662 C2647 0.961 . S
H2663 C2647 0.960 . S
C2664 C2665 1.391 . S
C2664 C2666 1.394 . S
C2664 H2680 0.931 . S
C2665 C2664 1.391 . S
C2665 C2669 1.376 . S
C2666 C2664 1.394 . S
C2666 C2667 1.369 . S
C2666 C2670 1.531 . S
C2667 C2666 1.369 . S
C2667 C2668 1.410 . S
C2667 C2675 1.503 . S
C2668 C2667 1.410 . S
C2668 C2669 1.392 . S
C2668 C2671 1.511 . S
C2669 C2665 1.376 . S
C2669 C2668 1.392 . S
C2669 H2681 0.929 . S
C2670 C2666 1.531 . S
C2670 H2682 0.960 . S
C2670 H2683 0.962 . S
C2670 H2684 0.960 1_554 S
C2671 C2668 1.511 . S
C2671 H2685 0.961 . S
C2671 H2686 0.961 . S
C2671 H2687 0.961 . S
C2672 C2673 1.370 . S
C2672 C2674 1.363 . S
C2672 H2688 0.931 . S
C2673 C2672 1.370 . S
C2673 C2677 1.408 . S
C2674 C2672 1.363 . S
C2674 C2675 1.370 . S
C2674 C2678 1.524 . S
C2675 C2667 1.503 . S
C2675 C2674 1.370 . S
C2675 C2676 1.403 . S
C2676 C2675 1.403 . S
C2676 C2677 1.404 . S
C2676 C2679 1.539 1_554 S
C2677 C2673 1.408 . S
C2677 C2676 1.404 . S
C2677 H2689 0.930 . S
C2678 C2674 1.524 . S
C2678 H2690 0.956 . S
C2678 H2691 0.961 . S
C2678 H2692 0.961 . S
C2679 C2676 1.539 1_556 S
C2679 H2693 0.958 . S
C2679 H2694 0.961 . S
C2679 H2695 0.962 . S
H2680 C2664 0.931 . S
H2681 C2669 0.929 . S
H2682 C2670 0.960 . S
H2683 C2670 0.962 . S
H2684 C2670 0.960 1_556 S
H2685 C2671 0.961 . S
H2686 C2671 0.961 . S
H2687 C2671 0.961 . S
H2688 C2672 0.931 . S
H2689 C2677 0.930 . S
H2690 C2678 0.956 . S
H2691 C2678 0.961 . S
H2692 C2678 0.961 . S
H2693 C2679 0.958 . S
H2694 C2679 0.961 . S
H2695 C2679 0.962 . S
C2696 C2697 1.391 . S
C2696 C2698 1.394 . S
C2696 H2712 0.931 . S
C2697 C2696 1.391 . S
C2697 C2701 1.376 . S
C2698 C2696 1.394 . S
C2698 C2699 1.369 . S
C2698 C2702 1.531 1_554 S
C2699 C2698 1.369 . S
C2699 C2700 1.410 . S
C2699 C2707 1.503 . S
C2700 C2699 1.410 . S
C2700 C2701 1.392 . S
C2700 C2703 1.511 . S
C2701 C2697 1.376 . S
C2701 C2700 1.392 . S
C2701 H2713 0.929 . S
C2702 C2698 1.531 1_556 S
C2702 H2714 0.960 . S
C2702 H2715 0.962 . S
C2702 H2716 0.960 . S
C2703 C2700 1.511 . S
C2703 H2717 0.961 . S
C2703 H2718 0.961 . S
C2703 H2719 0.961 . S
C2704 C2705 1.370 . S
C2704 C2706 1.363 . S
C2704 H2720 0.931 . S
C2705 C2704 1.370 . S
C2705 C2709 1.408 . S
C2706 C2704 1.363 . S
C2706 C2707 1.370 . S
C2706 C2710 1.524 . S
C2707 C2699 1.503 . S
C2707 C2706 1.370 . S
C2707 C2708 1.403 . S
C2708 C2707 1.403 . S
C2708 C2709 1.404 . S
C2708 C2711 1.539 . S
C2709 C2705 1.408 . S
C2709 C2708 1.404 . S
C2709 H2721 0.930 . S
C2710 C2706 1.524 . S
C2710 H2722 0.956 . S
C2710 H2723 0.961 . S
C2710 H2724 0.961 . S
C2711 C2708 1.539 . S
C2711 H2725 0.958 . S
C2711 H2726 0.961 . S
C2711 H2727 0.960 . S
H2712 C2696 0.931 . S
H2713 C2701 0.929 . S
H2714 C2702 0.960 . S
H2715 C2702 0.962 . S
H2716 C2702 0.960 . S
H2717 C2703 0.961 . S
H2718 C2703 0.961 . S
H2719 C2703 0.961 . S
H2720 C2704 0.931 . S
H2721 C2709 0.930 . S
H2722 C2710 0.956 . S
H2723 C2710 0.961 . S
H2724 C2710 0.961 . S
H2725 C2711 0.958 . S
H2726 C2711 0.961 . S
H2727 C2711 0.960 . S
C2728 C2729 1.391 . S
C2728 C2730 1.394 . S
C2728 H2744 0.931 . S
C2729 C2728 1.391 . S
C2729 C2733 1.376 . S
C2730 C2728 1.394 . S
C2730 C2731 1.369 . S
C2730 C2734 1.531 1_554 S
C2731 C2730 1.369 . S
C2731 C2732 1.410 . S
C2731 C2739 1.503 . S
C2732 C2731 1.410 . S
C2732 C2733 1.392 . S
C2732 C2735 1.511 . S
C2733 C2729 1.376 . S
C2733 C2732 1.392 . S
C2733 H2745 0.929 . S
C2734 C2730 1.531 1_556 S
C2734 H2746 0.960 . S
C2734 H2747 0.957 1_556 S
C2734 H2748 0.960 . S
C2735 C2732 1.511 . S
C2735 H2749 0.961 . S
C2735 H2750 0.961 . S
C2735 H2751 0.961 . S
C2736 C2737 1.370 . S
C2736 C2738 1.363 . S
C2736 H2752 0.931 . S
C2737 C2736 1.370 . S
C2737 C2741 1.408 . S
C2738 C2736 1.363 . S
C2738 C2739 1.370 . S
C2738 C2742 1.524 . S
C2739 C2731 1.503 . S
C2739 C2738 1.370 . S
C2739 C2740 1.403 . S
C2740 C2739 1.403 . S
C2740 C2741 1.404 . S
C2740 C2743 1.539 . S
C2741 C2737 1.408 . S
C2741 C2740 1.404 . S
C2741 H2753 0.930 . S
C2742 C2738 1.524 . S
C2742 H2754 0.956 . S
C2742 H2755 0.961 . S
C2742 H2756 0.961 . S
C2743 C2740 1.539 . S
C2743 H2757 0.958 1_554 S
C2743 H2758 0.961 . S
C2743 H2759 0.960 . S
H2744 C2728 0.931 . S
H2745 C2733 0.929 . S
H2746 C2734 0.960 . S
H2747 C2734 0.957 1_554 S
H2748 C2734 0.960 . S
H2749 C2735 0.961 . S
H2750 C2735 0.961 . S
H2751 C2735 0.961 . S
H2752 C2736 0.931 . S
H2753 C2741 0.930 . S
H2754 C2742 0.956 . S
H2755 C2742 0.961 . S
H2756 C2742 0.961 . S
H2757 C2743 0.958 1_556 S
H2758 C2743 0.961 . S
H2759 C2743 0.960 . S
C2760 C2761 1.391 . S
C2760 C2762 1.394 . S
C2760 H2776 0.931 . S
C2761 C2760 1.391 . S
C2761 C2765 1.376 . S
C2762 C2760 1.394 . S
C2762 C2763 1.369 . S
C2762 C2766 1.531 . S
C2763 C2762 1.369 . S
C2763 C2764 1.410 . S
C2763 C2771 1.503 . S
C2764 C2763 1.410 . S
C2764 C2765 1.392 . S
C2764 C2767 1.511 . S
C2765 C2761 1.376 . S
C2765 C2764 1.392 . S
C2765 H2777 0.929 . S
C2766 C2762 1.531 . S
C2766 H2778 0.960 . S
C2766 H2779 0.962 . S
C2766 H2780 0.960 . S
C2767 C2764 1.511 . S
C2767 H2781 0.961 . S
C2767 H2782 0.961 . S
C2767 H2783 0.961 . S
C2768 C2769 1.370 . S
C2768 C2770 1.363 . S
C2768 H2784 0.931 . S
C2769 C2768 1.370 . S
C2769 C2773 1.408 . S
C2770 C2768 1.363 . S
C2770 C2771 1.370 . S
C2770 C2774 1.524 1_556 S
C2771 C2763 1.503 . S
C2771 C2770 1.370 . S
C2771 C2772 1.403 . S
C2772 C2771 1.403 . S
C2772 C2773 1.404 . S
C2772 C2775 1.539 . S
C2773 C2769 1.408 . S
C2773 C2772 1.404 . S
C2773 H2785 0.930 . S
C2774 C2770 1.524 1_554 S
C2774 H2786 0.956 . S
C2774 H2787 0.961 1_554 S
C2774 H2788 0.961 . S
C2775 C2772 1.539 . S
C2775 H2789 0.958 . S
C2775 H2790 0.961 . S
C2775 H2791 0.960 . S
H2776 C2760 0.931 . S
H2777 C2765 0.929 . S
H2778 C2766 0.960 . S
H2779 C2766 0.962 . S
H2780 C2766 0.960 . S
H2781 C2767 0.961 . S
H2782 C2767 0.961 . S
H2783 C2767 0.961 . S
H2784 C2768 0.931 . S
H2785 C2773 0.930 . S
H2786 C2774 0.956 . S
H2787 C2774 0.961 1_556 S
H2788 C2774 0.961 . S
H2789 C2775 0.958 . S
H2790 C2775 0.961 . S
H2791 C2775 0.960 . S
C2792 C2793 1.391 . S
C2792 C2794 1.394 . S
C2792 H2808 0.931 . S
C2793 C2792 1.391 . S
C2793 C2797 1.376 . S
C2794 C2792 1.394 . S
C2794 C2795 1.369 . S
C2794 C2798 1.531 . S
C2795 C2794 1.369 . S
C2795 C2796 1.410 . S
C2795 C2803 1.503 . S
C2796 C2795 1.410 . S
C2796 C2797 1.392 . S
C2796 C2799 1.511 . S
C2797 C2793 1.376 . S
C2797 C2796 1.392 . S
C2797 H2809 0.929 . S
C2798 C2794 1.531 . S
C2798 H2810 0.960 1_556 S
C2798 H2811 0.962 . S
C2798 H2812 0.960 1_556 S
C2799 C2796 1.511 . S
C2799 H2813 0.961 . S
C2799 H2814 0.961 . S
C2799 H2815 0.961 . S
C2800 C2801 1.370 . S
C2800 C2802 1.363 . S
C2800 H2816 0.931 . S
C2801 C2800 1.370 . S
C2801 C2805 1.408 . S
C2802 C2800 1.363 . S
C2802 C2803 1.370 . S
C2802 C2806 1.524 . S
C2803 C2795 1.503 . S
C2803 C2802 1.370 . S
C2803 C2804 1.403 . S
C2804 C2803 1.403 . S
C2804 C2805 1.404 . S
C2804 C2807 1.539 1_556 S
C2805 C2801 1.408 . S
C2805 C2804 1.404 . S
C2805 H2817 0.930 . S
C2806 C2802 1.524 . S
C2806 H2818 0.956 . S
C2806 H2819 0.961 . S
C2806 H2820 0.961 . S
C2807 C2804 1.539 1_554 S
C2807 H2821 0.958 . S
C2807 H2822 0.961 . S
C2807 H2823 0.960 1_554 S
H2808 C2792 0.931 . S
H2809 C2797 0.929 . S
H2810 C2798 0.960 1_554 S
H2811 C2798 0.962 . S
H2812 C2798 0.960 1_554 S
H2813 C2799 0.961 . S
H2814 C2799 0.961 . S
H2815 C2799 0.961 . S
H2816 C2800 0.931 . S
H2817 C2805 0.930 . S
H2818 C2806 0.956 . S
H2819 C2806 0.961 . S
H2820 C2806 0.961 . S
H2821 C2807 0.958 . S
H2822 C2807 0.961 . S
H2823 C2807 0.960 1_556 S
C2824 C2825 1.391 . S
C2824 C2826 1.394 . S
C2824 H2840 0.931 . S
C2825 C2824 1.391 . S
C2825 C2829 1.376 . S
C2826 C2824 1.394 . S
C2826 C2827 1.369 . S
C2826 C2830 1.531 . S
C2827 C2826 1.369 . S
C2827 C2828 1.410 . S
C2827 C2835 1.503 . S
C2828 C2827 1.410 . S
C2828 C2829 1.392 . S
C2828 C2831 1.511 . S
C2829 C2825 1.376 . S
C2829 C2828 1.392 . S
C2829 H2841 0.929 . S
C2830 C2826 1.531 . S
C2830 H2842 0.960 1_556 S
C2830 H2843 0.962 . S
C2830 H2844 0.960 1_556 S
C2831 C2828 1.511 . S
C2831 H2845 0.961 . S
C2831 H2846 0.961 . S
C2831 H2847 0.961 . S
C2832 C2833 1.370 . S
C2832 C2834 1.363 . S
C2832 H2848 0.931 . S
C2833 C2832 1.370 . S
C2833 C2837 1.408 . S
C2834 C2832 1.363 . S
C2834 C2835 1.370 . S
C2834 C2838 1.524 . S
C2835 C2827 1.503 . S
C2835 C2834 1.370 . S
C2835 C2836 1.403 . S
C2836 C2835 1.403 . S
C2836 C2837 1.404 . S
C2836 C2839 1.539 1_556 S
C2837 C2833 1.408 . S
C2837 C2836 1.404 . S
C2837 H2849 0.930 . S
C2838 C2834 1.524 . S
C2838 H2850 0.956 . S
C2838 H2851 0.961 . S
C2838 H2852 0.961 . S
C2839 C2836 1.539 1_554 S
C2839 H2853 0.958 . S
C2839 H2854 0.961 . S
C2839 H2855 0.960 1_554 S
H2840 C2824 0.931 . S
H2841 C2829 0.929 . S
H2842 C2830 0.960 1_554 S
H2843 C2830 0.962 . S
H2844 C2830 0.960 1_554 S
H2845 C2831 0.961 . S
H2846 C2831 0.961 . S
H2847 C2831 0.961 . S
H2848 C2832 0.931 . S
H2849 C2837 0.930 . S
H2850 C2838 0.956 . S
H2851 C2838 0.961 . S
H2852 C2838 0.961 . S
H2853 C2839 0.958 . S
H2854 C2839 0.961 . S
H2855 C2839 0.960 1_556 S
C2856 C2857 1.391 . S
C2856 C2858 1.394 . S
C2856 H2872 0.931 . S
C2857 C2856 1.391 . S
C2857 C2861 1.376 . S
C2858 C2856 1.394 . S
C2858 C2859 1.369 . S
C2858 C2862 1.531 . S
C2859 C2858 1.369 . S
C2859 C2860 1.410 . S
C2859 C2867 1.503 . S
C2860 C2859 1.410 . S
C2860 C2861 1.392 . S
C2860 C2863 1.511 . S
C2861 C2857 1.376 . S
C2861 C2860 1.392 . S
C2861 H2873 0.929 . S
C2862 C2858 1.531 . S
C2862 H2874 0.960 . S
C2862 H2875 0.962 . S
C2862 H2876 0.960 . S
C2863 C2860 1.511 . S
C2863 H2877 0.961 . S
C2863 H2878 0.961 . S
C2863 H2879 0.961 . S
C2864 C2865 1.370 . S
C2864 C2866 1.363 . S
C2864 H2880 0.931 . S
C2865 C2864 1.370 . S
C2865 C2869 1.408 . S
C2866 C2864 1.363 . S
C2866 C2867 1.370 . S
C2866 C2870 1.524 . S
C2867 C2859 1.503 . S
C2867 C2866 1.370 . S
C2867 C2868 1.403 . S
C2868 C2867 1.403 . S
C2868 C2869 1.404 . S
C2868 C2871 1.539 . S
C2869 C2865 1.408 . S
C2869 C2868 1.404 . S
C2869 H2881 0.930 . S
C2870 C2866 1.524 . S
C2870 H2882 0.956 . S
C2870 H2883 0.961 . S
C2870 H2884 0.961 . S
C2871 C2868 1.539 . S
C2871 H2885 0.958 . S
C2871 H2886 0.961 . S
C2871 H2887 0.960 . S
H2872 C2856 0.931 . S
H2873 C2861 0.929 . S
H2874 C2862 0.960 . S
H2875 C2862 0.962 . S
H2876 C2862 0.960 . S
H2877 C2863 0.961 . S
H2878 C2863 0.961 . S
H2879 C2863 0.961 . S
H2880 C2864 0.931 . S
H2881 C2869 0.930 . S
H2882 C2870 0.956 . S
H2883 C2870 0.961 . S
H2884 C2870 0.961 . S
H2885 C2871 0.958 . S
H2886 C2871 0.961 . S
H2887 C2871 0.960 . S
C2888 C2889 1.391 . S
C2888 C2890 1.394 . S
C2888 H2904 0.931 . S
C2889 C2888 1.391 . S
C2889 C2893 1.376 . S
C2890 C2888 1.394 . S
C2890 C2891 1.369 . S
C2890 C2894 1.531 . S
C2891 C2890 1.369 . S
C2891 C2892 1.410 . S
C2891 C2899 1.503 . S
C2892 C2891 1.410 . S
C2892 C2893 1.392 . S
C2892 C2895 1.511 . S
C2893 C2889 1.376 . S
C2893 C2892 1.392 . S
C2893 H2905 0.929 . S
C2894 C2890 1.531 . S
C2894 H2906 0.960 . S
C2894 H2907 0.962 . S
C2894 H2908 0.960 . S
C2895 C2892 1.511 . S
C2895 H2909 0.961 . S
C2895 H2910 0.961 . S
C2895 H2911 0.961 . S
C2896 C2897 1.370 . S
C2896 C2898 1.363 . S
C2896 H2912 0.931 . S
C2897 C2896 1.370 . S
C2897 C2901 1.408 . S
C2898 C2896 1.363 . S
C2898 C2899 1.370 . S
C2898 C2902 1.524 . S
C2899 C2891 1.503 . S
C2899 C2898 1.370 . S
C2899 C2900 1.403 . S
C2900 C2899 1.403 . S
C2900 C2901 1.404 . S
C2900 C2903 1.539 . S
C2901 C2897 1.408 . S
C2901 C2900 1.404 . S
C2901 H2913 0.930 . S
C2902 C2898 1.524 . S
C2902 H2914 0.956 . S
C2902 H2915 0.961 . S
C2902 H2916 0.961 . S
C2903 C2900 1.539 . S
C2903 H2917 0.958 . S
C2903 H2918 0.961 . S
C2903 H2919 0.960 . S
H2904 C2888 0.931 . S
H2905 C2893 0.929 . S
H2906 C2894 0.960 . S
H2907 C2894 0.962 . S
H2908 C2894 0.960 . S
H2909 C2895 0.961 . S
H2910 C2895 0.961 . S
H2911 C2895 0.961 . S
H2912 C2896 0.931 . S
H2913 C2901 0.930 . S
H2914 C2902 0.956 . S
H2915 C2902 0.961 . S
H2916 C2902 0.961 . S
H2917 C2903 0.958 . S
H2918 C2903 0.961 . S
H2919 C2903 0.960 . S
C2920 C2921 1.391 . S
C2920 C2922 1.394 . S
C2920 H2936 0.931 . S
C2921 C2920 1.391 . S
C2921 C2925 1.376 . S
C2922 C2920 1.394 . S
C2922 C2923 1.369 . S
C2922 C2926 1.531 . S
C2923 C2922 1.369 . S
C2923 C2924 1.410 . S
C2923 C2931 1.503 . S
C2924 C2923 1.410 . S
C2924 C2925 1.392 . S
C2924 C2927 1.511 . S
C2925 C2921 1.376 . S
C2925 C2924 1.392 . S
C2925 H2937 0.929 . S
C2926 C2922 1.531 . S
C2926 H2938 0.960 . S
C2926 H2939 0.962 . S
C2926 H2940 0.960 . S
C2927 C2924 1.511 . S
C2927 H2941 0.961 . S
C2927 H2942 0.961 . S
C2927 H2943 0.961 . S
C2928 C2929 1.370 . S
C2928 C2930 1.363 . S
C2928 H2944 0.931 . S
C2929 C2928 1.370 . S
C2929 C2933 1.408 . S
C2930 C2928 1.363 . S
C2930 C2931 1.370 . S
C2930 C2934 1.524 . S
C2931 C2923 1.503 . S
C2931 C2930 1.370 . S
C2931 C2932 1.403 . S
C2932 C2931 1.403 . S
C2932 C2933 1.404 . S
C2932 C2935 1.539 . S
C2933 C2929 1.408 . S
C2933 C2932 1.404 . S
C2933 H2945 0.930 . S
C2934 C2930 1.524 . S
C2934 H2946 0.956 . S
C2934 H2947 0.961 . S
C2934 H2948 0.961 . S
C2935 C2932 1.539 . S
C2935 H2949 0.958 . S
C2935 H2950 0.961 . S
C2935 H2951 0.960 . S
H2936 C2920 0.931 . S
H2937 C2925 0.929 . S
H2938 C2926 0.960 . S
H2939 C2926 0.962 . S
H2940 C2926 0.960 . S
H2941 C2927 0.961 . S
H2942 C2927 0.961 . S
H2943 C2927 0.961 . S
H2944 C2928 0.931 . S
H2945 C2933 0.930 . S
H2946 C2934 0.956 . S
H2947 C2934 0.961 . S
H2948 C2934 0.961 . S
H2949 C2935 0.958 . S
H2950 C2935 0.961 . S
H2951 C2935 0.960 . S
C2952 C2953 1.391 . S
C2952 C2954 1.394 . S
C2952 H2968 0.931 . S
C2953 C2952 1.391 . S
C2953 C2957 1.376 . S
C2954 C2952 1.394 . S
C2954 C2955 1.369 . S
C2954 C2958 1.531 . S
C2955 C2954 1.369 . S
C2955 C2956 1.410 . S
C2955 C2963 1.503 . S
C2956 C2955 1.410 . S
C2956 C2957 1.392 . S
C2956 C2959 1.511 . S
C2957 C2953 1.376 . S
C2957 C2956 1.392 . S
C2957 H2969 0.929 . S
C2958 C2954 1.531 . S
C2958 H2970 0.960 . S
C2958 H2971 0.962 . S
C2958 H2972 0.960 . S
C2959 C2956 1.511 . S
C2959 H2973 0.961 . S
C2959 H2974 0.961 . S
C2959 H2975 0.961 . S
C2960 C2961 1.370 . S
C2960 C2962 1.363 . S
C2960 H2976 0.931 . S
C2961 C2960 1.370 . S
C2961 C2965 1.408 . S
C2962 C2960 1.363 . S
C2962 C2963 1.370 . S
C2962 C2966 1.524 . S
C2963 C2955 1.503 . S
C2963 C2962 1.370 . S
C2963 C2964 1.403 . S
C2964 C2963 1.403 . S
C2964 C2965 1.404 . S
C2964 C2967 1.539 . S
C2965 C2961 1.408 . S
C2965 C2964 1.404 . S
C2965 H2977 0.930 . S
C2966 C2962 1.524 . S
C2966 H2978 0.956 . S
C2966 H2979 0.961 . S
C2966 H2980 0.961 . S
C2967 C2964 1.539 . S
C2967 H2981 0.958 . S
C2967 H2982 0.961 . S
C2967 H2983 0.960 . S
H2968 C2952 0.931 . S
H2969 C2957 0.929 . S
H2970 C2958 0.960 . S
H2971 C2958 0.962 . S
H2972 C2958 0.960 . S
H2973 C2959 0.961 . S
H2974 C2959 0.961 . S
H2975 C2959 0.961 . S
H2976 C2960 0.931 . S
H2977 C2965 0.930 . S
H2978 C2966 0.956 . S
H2979 C2966 0.961 . S
H2980 C2966 0.961 . S
H2981 C2967 0.958 . S
H2982 C2967 0.961 . S
H2983 C2967 0.960 . S
C2984 C2985 1.391 . S
C2984 C2986 1.394 . S
C2984 H3000 0.931 . S
C2985 C2984 1.391 . S
C2985 C2989 1.376 . S
C2986 C2984 1.394 . S
C2986 C2987 1.369 . S
C2986 C2990 1.531 . S
C2987 C2986 1.369 . S
C2987 C2988 1.410 . S
C2987 C2995 1.503 . S
C2988 C2987 1.410 . S
C2988 C2989 1.392 . S
C2988 C2991 1.511 . S
C2989 C2985 1.376 . S
C2989 C2988 1.392 . S
C2989 H3001 0.929 . S
C2990 C2986 1.531 . S
C2990 H3002 0.960 . S
C2990 H3003 0.962 . S
C2990 H3004 0.960 . S
C2991 C2988 1.511 . S
C2991 H3005 0.961 . S
C2991 H3006 0.961 . S
C2991 H3007 0.961 . S
C2992 C2993 1.370 . S
C2992 C2994 1.363 . S
C2992 H3008 0.931 . S
C2993 C2992 1.370 . S
C2993 C2997 1.408 . S
C2994 C2992 1.363 . S
C2994 C2995 1.370 . S
C2994 C2998 1.524 . S
C2995 C2987 1.503 . S
C2995 C2994 1.370 . S
C2995 C2996 1.403 . S
C2996 C2995 1.403 . S
C2996 C2997 1.404 . S
C2996 C2999 1.539 . S
C2997 C2993 1.408 . S
C2997 C2996 1.404 . S
C2997 H3009 0.930 . S
C2998 C2994 1.524 . S
C2998 H3010 0.956 . S
C2998 H3011 0.961 . S
C2998 H3012 0.961 . S
C2999 C2996 1.539 . S
C2999 H3013 0.958 . S
C2999 H3014 0.961 . S
C2999 H3015 0.960 . S
H3000 C2984 0.931 . S
H3001 C2989 0.929 . S
H3002 C2990 0.960 . S
H3003 C2990 0.962 . S
H3004 C2990 0.960 . S
H3005 C2991 0.961 . S
H3006 C2991 0.961 . S
H3007 C2991 0.961 . S
H3008 C2992 0.931 . S
H3009 C2997 0.930 . S
H3010 C2998 0.956 . S
H3011 C2998 0.961 . S
H3012 C2998 0.961 . S
H3013 C2999 0.958 . S
H3014 C2999 0.961 . S
H3015 C2999 0.960 . S
C3016 C3017 1.391 . S
C3016 C3018 1.394 . S
C3016 H3032 0.931 . S
C3017 C3016 1.391 . S
C3017 C3021 1.376 . S
C3018 C3016 1.394 . S
C3018 C3019 1.369 . S
C3018 C3022 1.531 . S
C3019 C3018 1.369 . S
C3019 C3020 1.410 . S
C3019 C3027 1.503 . S
C3020 C3019 1.410 . S
C3020 C3021 1.392 . S
C3020 C3023 1.511 . S
C3021 C3017 1.376 . S
C3021 C3020 1.392 . S
C3021 H3033 0.929 . S
C3022 C3018 1.531 . S
C3022 H3034 0.960 . S
C3022 H3035 0.962 . S
C3022 H3036 0.960 . S
C3023 C3020 1.511 . S
C3023 H3037 0.961 . S
C3023 H3038 0.961 . S
C3023 H3039 0.961 . S
C3024 C3025 1.370 . S
C3024 C3026 1.363 . S
C3024 H3040 0.931 . S
C3025 C3024 1.370 . S
C3025 C3029 1.408 . S
C3026 C3024 1.363 . S
C3026 C3027 1.370 . S
C3026 C3030 1.524 . S
C3027 C3019 1.503 . S
C3027 C3026 1.370 . S
C3027 C3028 1.403 . S
C3028 C3027 1.403 . S
C3028 C3029 1.404 . S
C3028 C3031 1.539 . S
C3029 C3025 1.408 . S
C3029 C3028 1.404 . S
C3029 H3041 0.930 . S
C3030 C3026 1.524 . S
C3030 H3042 0.956 . S
C3030 H3043 0.961 . S
C3030 H3044 0.961 . S
C3031 C3028 1.539 . S
C3031 H3045 0.958 . S
C3031 H3046 0.961 . S
C3031 H3047 0.960 . S
H3032 C3016 0.931 . S
H3033 C3021 0.929 . S
H3034 C3022 0.960 . S
H3035 C3022 0.962 . S
H3036 C3022 0.960 . S
H3037 C3023 0.961 . S
H3038 C3023 0.961 . S
H3039 C3023 0.961 . S
H3040 C3024 0.931 . S
H3041 C3029 0.930 . S
H3042 C3030 0.956 . S
H3043 C3030 0.961 . S
H3044 C3030 0.961 . S
H3045 C3031 0.958 . S
H3046 C3031 0.961 . S
H3047 C3031 0.960 . S
C3048 C3049 1.391 . S
C3048 C3050 1.394 . S
C3048 H3064 0.931 . S
C3049 C3048 1.391 . S
C3049 C3053 1.376 . S
C3050 C3048 1.394 . S
C3050 C3051 1.369 . S
C3050 C3054 1.531 . S
C3051 C3050 1.369 . S
C3051 C3052 1.410 . S
C3051 C3059 1.503 . S
C3052 C3051 1.410 . S
C3052 C3053 1.392 . S
C3052 C3055 1.511 . S
C3053 C3049 1.376 . S
C3053 C3052 1.392 . S
C3053 H3065 0.929 . S
C3054 C3050 1.531 . S
C3054 H3066 0.960 . S
C3054 H3067 0.962 . S
C3054 H3068 0.960 . S
C3055 C3052 1.511 . S
C3055 H3069 0.961 . S
C3055 H3070 0.961 . S
C3055 H3071 0.961 . S
C3056 C3057 1.370 . S
C3056 C3058 1.363 . S
C3056 H3072 0.931 . S
C3057 C3056 1.370 . S
C3057 C3061 1.408 . S
C3058 C3056 1.363 . S
C3058 C3059 1.370 . S
C3058 C3062 1.524 . S
C3059 C3051 1.503 . S
C3059 C3058 1.370 . S
C3059 C3060 1.403 . S
C3060 C3059 1.403 . S
C3060 C3061 1.404 . S
C3060 C3063 1.539 . S
C3061 C3057 1.408 . S
C3061 C3060 1.404 . S
C3061 H3073 0.930 . S
C3062 C3058 1.524 . S
C3062 H3074 0.956 . S
C3062 H3075 0.961 . S
C3062 H3076 0.961 . S
C3063 C3060 1.539 . S
C3063 H3077 0.958 . S
C3063 H3078 0.961 . S
C3063 H3079 0.960 . S
H3064 C3048 0.931 . S
H3065 C3053 0.929 . S
H3066 C3054 0.960 . S
H3067 C3054 0.962 . S
H3068 C3054 0.960 . S
H3069 C3055 0.961 . S
H3070 C3055 0.961 . S
H3071 C3055 0.961 . S
H3072 C3056 0.931 . S
H3073 C3061 0.930 . S
H3074 C3062 0.956 . S
H3075 C3062 0.961 . S
H3076 C3062 0.961 . S
H3077 C3063 0.958 . S
H3078 C3063 0.961 . S
H3079 C3063 0.960 . S
C3080 C3081 1.391 . S
C3080 C3082 1.394 . S
C3080 H3096 0.931 . S
C3081 C3080 1.391 . S
C3081 C3085 1.376 . S
C3082 C3080 1.394 . S
C3082 C3083 1.369 . S
C3082 C3086 1.531 . S
C3083 C3082 1.369 . S
C3083 C3084 1.410 . S
C3083 C3091 1.503 . S
C3084 C3083 1.410 . S
C3084 C3085 1.392 . S
C3084 C3087 1.511 . S
C3085 C3081 1.376 . S
C3085 C3084 1.392 . S
C3085 H3097 0.929 . S
C3086 C3082 1.531 . S
C3086 H3098 0.960 . S
C3086 H3099 0.962 . S
C3086 H3100 0.960 . S
C3087 C3084 1.511 . S
C3087 H3101 0.961 . S
C3087 H3102 0.961 . S
C3087 H3103 0.961 . S
C3088 C3089 1.370 . S
C3088 C3090 1.363 . S
C3088 H3104 0.931 . S
C3089 C3088 1.370 . S
C3089 C3093 1.408 . S
C3090 C3088 1.363 . S
C3090 C3091 1.370 . S
C3090 C3094 1.524 . S
C3091 C3083 1.503 . S
C3091 C3090 1.370 . S
C3091 C3092 1.403 . S
C3092 C3091 1.403 . S
C3092 C3093 1.404 . S
C3092 C3095 1.539 . S
C3093 C3089 1.408 . S
C3093 C3092 1.404 . S
C3093 H3105 0.930 . S
C3094 C3090 1.524 . S
C3094 H3106 0.956 . S
C3094 H3107 0.961 . S
C3094 H3108 0.961 . S
C3095 C3092 1.539 . S
C3095 H3109 0.958 . S
C3095 H3110 0.961 . S
C3095 H3111 0.960 . S
H3096 C3080 0.931 . S
H3097 C3085 0.929 . S
H3098 C3086 0.960 . S
H3099 C3086 0.962 . S
H3100 C3086 0.960 . S
H3101 C3087 0.961 . S
H3102 C3087 0.961 . S
H3103 C3087 0.961 . S
H3104 C3088 0.931 . S
H3105 C3093 0.930 . S
H3106 C3094 0.956 . S
H3107 C3094 0.961 . S
H3108 C3094 0.961 . S
H3109 C3095 0.958 . S
H3110 C3095 0.961 . S
H3111 C3095 0.960 . S
C3112 C3113 1.391 . S
C3112 C3114 1.394 . S
C3112 H3128 0.931 . S
C3113 C3112 1.391 . S
C3113 C3117 1.376 . S
C3114 C3112 1.394 . S
C3114 C3115 1.369 . S
C3114 C3118 1.531 . S
C3115 C3114 1.369 . S
C3115 C3116 1.410 . S
C3115 C3123 1.503 . S
C3116 C3115 1.410 . S
C3116 C3117 1.392 . S
C3116 C3119 1.511 . S
C3117 C3113 1.376 . S
C3117 C3116 1.392 . S
C3117 H3129 0.929 . S
C3118 C3114 1.531 . S
C3118 H3130 0.960 . S
C3118 H3131 0.962 . S
C3118 H3132 0.960 . S
C3119 C3116 1.511 . S
C3119 H3133 0.961 . S
C3119 H3134 0.961 . S
C3119 H3135 0.961 . S
C3120 C3121 1.370 . S
C3120 C3122 1.363 . S
C3120 H3136 0.931 . S
C3121 C3120 1.370 . S
C3121 C3125 1.408 . S
C3122 C3120 1.363 . S
C3122 C3123 1.370 . S
C3122 C3126 1.524 . S
C3123 C3115 1.503 . S
C3123 C3122 1.370 . S
C3123 C3124 1.403 . S
C3124 C3123 1.403 . S
C3124 C3125 1.404 . S
C3124 C3127 1.539 . S
C3125 C3121 1.408 . S
C3125 C3124 1.404 . S
C3125 H3137 0.930 . S
C3126 C3122 1.524 . S
C3126 H3138 0.956 . S
C3126 H3139 0.961 . S
C3126 H3140 0.961 . S
C3127 C3124 1.539 . S
C3127 H3141 0.958 . S
C3127 H3142 0.961 . S
C3127 H3143 0.960 . S
H3128 C3112 0.931 . S
H3129 C3117 0.929 . S
H3130 C3118 0.960 . S
H3131 C3118 0.962 . S
H3132 C3118 0.960 . S
H3133 C3119 0.961 . S
H3134 C3119 0.961 . S
H3135 C3119 0.961 . S
H3136 C3120 0.931 . S
H3137 C3125 0.930 . S
H3138 C3126 0.956 . S
H3139 C3126 0.961 . S
H3140 C3126 0.961 . S
H3141 C3127 0.958 . S
H3142 C3127 0.961 . S
H3143 C3127 0.960 . S
C3144 C3145 1.391 . S
C3144 C3146 1.394 . S
C3144 H3160 0.931 . S
C3145 C3144 1.391 . S
C3145 C3149 1.376 . S
C3146 C3144 1.394 . S
C3146 C3147 1.369 . S
C3146 C3150 1.531 . S
C3147 C3146 1.369 . S
C3147 C3148 1.410 . S
C3147 C3155 1.503 . S
C3148 C3147 1.410 . S
C3148 C3149 1.392 . S
C3148 C3151 1.511 . S
C3149 C3145 1.376 . S
C3149 C3148 1.392 . S
C3149 H3161 0.929 . S
C3150 C3146 1.531 . S
C3150 H3162 0.960 . S
C3150 H3163 0.962 . S
C3150 H3164 0.960 . S
C3151 C3148 1.511 . S
C3151 H3165 0.961 . S
C3151 H3166 0.961 . S
C3151 H3167 0.961 . S
C3152 C3153 1.370 . S
C3152 C3154 1.363 . S
C3152 H3168 0.931 . S
C3153 C3152 1.370 . S
C3153 C3157 1.408 . S
C3154 C3152 1.363 . S
C3154 C3155 1.370 . S
C3154 C3158 1.524 . S
C3155 C3147 1.503 . S
C3155 C3154 1.370 . S
C3155 C3156 1.403 . S
C3156 C3155 1.403 . S
C3156 C3157 1.404 . S
C3156 C3159 1.539 . S
C3157 C3153 1.408 . S
C3157 C3156 1.404 . S
C3157 H3169 0.930 . S
C3158 C3154 1.524 . S
C3158 H3170 0.956 . S
C3158 H3171 0.961 . S
C3158 H3172 0.961 . S
C3159 C3156 1.539 . S
C3159 H3173 0.958 . S
C3159 H3174 0.961 . S
C3159 H3175 0.960 . S
H3160 C3144 0.931 . S
H3161 C3149 0.929 . S
H3162 C3150 0.960 . S
H3163 C3150 0.962 . S
H3164 C3150 0.960 . S
H3165 C3151 0.961 . S
H3166 C3151 0.961 . S
H3167 C3151 0.961 . S
H3168 C3152 0.931 . S
H3169 C3157 0.930 . S
H3170 C3158 0.956 . S
H3171 C3158 0.961 . S
H3172 C3158 0.961 . S
H3173 C3159 0.958 . S
H3174 C3159 0.961 . S
H3175 C3159 0.960 . S
C3176 C3177 1.391 . S
C3176 C3178 1.394 . S
C3176 H3192 0.931 . S
C3177 C3176 1.391 . S
C3177 C3181 1.376 . S
C3178 C3176 1.394 . S
C3178 C3179 1.369 . S
C3178 C3182 1.531 . S
C3179 C3178 1.369 . S
C3179 C3180 1.410 . S
C3179 C3187 1.503 . S
C3180 C3179 1.410 . S
C3180 C3181 1.392 . S
C3180 C3183 1.511 . S
C3181 C3177 1.376 . S
C3181 C3180 1.392 . S
C3181 H3193 0.929 . S
C3182 C3178 1.531 . S
C3182 H3194 0.960 . S
C3182 H3195 0.962 . S
C3182 H3196 0.960 . S
C3183 C3180 1.511 . S
C3183 H3197 0.961 . S
C3183 H3198 0.961 . S
C3183 H3199 0.961 . S
C3184 C3185 1.370 . S
C3184 C3186 1.363 . S
C3184 H3200 0.931 . S
C3185 C3184 1.370 . S
C3185 C3189 1.408 . S
C3186 C3184 1.363 . S
C3186 C3187 1.370 . S
C3186 C3190 1.524 . S
C3187 C3179 1.503 . S
C3187 C3186 1.370 . S
C3187 C3188 1.403 . S
C3188 C3187 1.403 . S
C3188 C3189 1.404 . S
C3188 C3191 1.539 . S
C3189 C3185 1.408 . S
C3189 C3188 1.404 . S
C3189 H3201 0.930 . S
C3190 C3186 1.524 . S
C3190 H3202 0.956 . S
C3190 H3203 0.961 . S
C3190 H3204 0.961 . S
C3191 C3188 1.539 . S
C3191 H3205 0.958 . S
C3191 H3206 0.961 . S
C3191 H3207 0.960 . S
H3192 C3176 0.931 . S
H3193 C3181 0.929 . S
H3194 C3182 0.960 . S
H3195 C3182 0.962 . S
H3196 C3182 0.960 . S
H3197 C3183 0.961 . S
H3198 C3183 0.961 . S
H3199 C3183 0.961 . S
H3200 C3184 0.931 . S
H3201 C3189 0.930 . S
H3202 C3190 0.956 . S
H3203 C3190 0.961 . S
H3204 C3190 0.961 . S
H3205 C3191 0.958 . S
H3206 C3191 0.961 . S
H3207 C3191 0.960 . S
C3208 C3209 1.391 . S
C3208 C3210 1.394 . S
C3208 H3224 0.931 . S
C3209 C3208 1.391 . S
C3209 C3213 1.376 . S
C3210 C3208 1.394 . S
C3210 C3211 1.369 . S
C3210 C3214 1.531 . S
C3211 C3210 1.369 . S
C3211 C3212 1.410 . S
C3211 C3219 1.503 . S
C3212 C3211 1.410 . S
C3212 C3213 1.392 . S
C3212 C3215 1.511 . S
C3213 C3209 1.376 . S
C3213 C3212 1.392 . S
C3213 H3225 0.929 . S
C3214 C3210 1.531 . S
C3214 H3226 0.960 . S
C3214 H3227 0.962 . S
C3214 H3228 0.960 . S
C3215 C3212 1.511 . S
C3215 H3229 0.961 . S
C3215 H3230 0.961 . S
C3215 H3231 0.961 . S
C3216 C3217 1.370 . S
C3216 C3218 1.363 . S
C3216 H3232 0.931 . S
C3217 C3216 1.370 . S
C3217 C3221 1.408 . S
C3218 C3216 1.363 . S
C3218 C3219 1.370 . S
C3218 C3222 1.524 . S
C3219 C3211 1.503 . S
C3219 C3218 1.370 . S
C3219 C3220 1.403 . S
C3220 C3219 1.403 . S
C3220 C3221 1.404 . S
C3220 C3223 1.539 . S
C3221 C3217 1.408 . S
C3221 C3220 1.404 . S
C3221 H3233 0.930 . S
C3222 C3218 1.524 . S
C3222 H3234 0.956 . S
C3222 H3235 0.961 . S
C3222 H3236 0.961 . S
C3223 C3220 1.539 . S
C3223 H3237 0.958 . S
C3223 H3238 0.961 . S
C3223 H3239 0.960 . S
H3224 C3208 0.931 . S
H3225 C3213 0.929 . S
H3226 C3214 0.960 . S
H3227 C3214 0.962 . S
H3228 C3214 0.960 . S
H3229 C3215 0.961 . S
H3230 C3215 0.961 . S
H3231 C3215 0.961 . S
H3232 C3216 0.931 . S
H3233 C3221 0.930 . S
H3234 C3222 0.956 . S
H3235 C3222 0.961 . S
H3236 C3222 0.961 . S
H3237 C3223 0.958 . S
H3238 C3223 0.961 . S
H3239 C3223 0.960 . S
C3240 C3241 1.391 . S
C3240 C3242 1.394 . S
C3240 H3256 0.931 . S
C3241 C3240 1.391 . S
C3241 C3245 1.376 . S
C3242 C3240 1.394 . S
C3242 C3243 1.369 . S
C3242 C3246 1.531 . S
C3243 C3242 1.369 . S
C3243 C3244 1.410 . S
C3243 C3251 1.503 . S
C3244 C3243 1.410 . S
C3244 C3245 1.392 . S
C3244 C3247 1.511 . S
C3245 C3241 1.376 . S
C3245 C3244 1.392 . S
C3245 H3257 0.929 . S
C3246 C3242 1.531 . S
C3246 H3258 0.960 . S
C3246 H3259 0.962 . S
C3246 H3260 0.960 . S
C3247 C3244 1.511 . S
C3247 H3261 0.961 . S
C3247 H3262 0.961 . S
C3247 H3263 0.961 . S
C3248 C3249 1.370 . S
C3248 C3250 1.363 . S
C3248 H3264 0.931 . S
C3249 C3248 1.370 . S
C3249 C3253 1.408 . S
C3250 C3248 1.363 . S
C3250 C3251 1.370 . S
C3250 C3254 1.524 . S
C3251 C3243 1.503 . S
C3251 C3250 1.370 . S
C3251 C3252 1.403 . S
C3252 C3251 1.403 . S
C3252 C3253 1.404 . S
C3252 C3255 1.539 . S
C3253 C3249 1.408 . S
C3253 C3252 1.404 . S
C3253 H3265 0.930 . S
C3254 C3250 1.524 . S
C3254 H3266 0.956 . S
C3254 H3267 0.961 . S
C3254 H3268 0.961 . S
C3255 C3252 1.539 . S
C3255 H3269 0.958 . S
C3255 H3270 0.961 . S
C3255 H3271 0.960 . S
H3256 C3240 0.931 . S
H3257 C3245 0.929 . S
H3258 C3246 0.960 . S
H3259 C3246 0.962 . S
H3260 C3246 0.960 . S
H3261 C3247 0.961 . S
H3262 C3247 0.961 . S
H3263 C3247 0.961 . S
H3264 C3248 0.931 . S
H3265 C3253 0.930 . S
H3266 C3254 0.956 . S
H3267 C3254 0.961 . S
H3268 C3254 0.961 . S
H3269 C3255 0.958 . S
H3270 C3255 0.961 . S
H3271 C3255 0.960 . S
C3272 C3273 1.391 . S
C3272 C3274 1.394 . S
C3272 H3288 0.931 . S
C3273 C3272 1.391 . S
C3273 C3277 1.376 . S
C3274 C3272 1.394 . S
C3274 C3275 1.369 . S
C3274 C3278 1.531 . S
C3275 C3274 1.369 . S
C3275 C3276 1.410 . S
C3275 C3283 1.503 . S
C3276 C3275 1.410 . S
C3276 C3277 1.392 . S
C3276 C3279 1.511 . S
C3277 C3273 1.376 . S
C3277 C3276 1.392 . S
C3277 H3289 0.929 . S
C3278 C3274 1.531 . S
C3278 H3290 0.960 . S
C3278 H3291 0.962 . S
C3278 H3292 0.960 . S
C3279 C3276 1.511 . S
C3279 H3293 0.961 . S
C3279 H3294 0.961 . S
C3279 H3295 0.961 . S
C3280 C3281 1.370 . S
C3280 C3282 1.363 . S
C3280 H3296 0.931 . S
C3281 C3280 1.370 . S
C3281 C3285 1.408 . S
C3282 C3280 1.363 . S
C3282 C3283 1.370 . S
C3282 C3286 1.524 . S
C3283 C3275 1.503 . S
C3283 C3282 1.370 . S
C3283 C3284 1.403 . S
C3284 C3283 1.403 . S
C3284 C3285 1.404 . S
C3284 C3287 1.539 . S
C3285 C3281 1.408 . S
C3285 C3284 1.404 . S
C3285 H3297 0.930 . S
C3286 C3282 1.524 . S
C3286 H3298 0.956 . S
C3286 H3299 0.961 . S
C3286 H3300 0.961 . S
C3287 C3284 1.539 . S
C3287 H3301 0.958 . S
C3287 H3302 0.961 . S
C3287 H3303 0.960 . S
H3288 C3272 0.931 . S
H3289 C3277 0.929 . S
H3290 C3278 0.960 . S
H3291 C3278 0.962 . S
H3292 C3278 0.960 . S
H3293 C3279 0.961 . S
H3294 C3279 0.961 . S
H3295 C3279 0.961 . S
H3296 C3280 0.931 . S
H3297 C3285 0.930 . S
H3298 C3286 0.956 . S
H3299 C3286 0.961 . S
H3300 C3286 0.961 . S
H3301 C3287 0.958 . S
H3302 C3287 0.961 . S
H3303 C3287 0.960 . S
C3304 C3305 1.391 . S
C3304 C3306 1.394 . S
C3304 H3320 0.931 . S
C3305 C3304 1.391 . S
C3305 C3309 1.376 . S
C3306 C3304 1.394 . S
C3306 C3307 1.369 . S
C3306 C3310 1.531 . S
C3307 C3306 1.369 . S
C3307 C3308 1.410 . S
C3307 C3315 1.503 . S
C3308 C3307 1.410 . S
C3308 C3309 1.392 . S
C3308 C3311 1.511 . S
C3309 C3305 1.376 . S
C3309 C3308 1.392 . S
C3309 H3321 0.929 . S
C3310 C3306 1.531 . S
C3310 H3322 0.960 . S
C3310 H3323 0.962 . S
C3310 H3324 0.960 . S
C3311 C3308 1.511 . S
C3311 H3325 0.961 . S
C3311 H3326 0.961 . S
C3311 H3327 0.961 . S
C3312 C3313 1.370 . S
C3312 C3314 1.363 . S
C3312 H3328 0.931 . S
C3313 C3312 1.370 . S
C3313 C3317 1.408 . S
C3314 C3312 1.363 . S
C3314 C3315 1.370 . S
C3314 C3318 1.524 . S
C3315 C3307 1.503 . S
C3315 C3314 1.370 . S
C3315 C3316 1.403 . S
C3316 C3315 1.403 . S
C3316 C3317 1.404 . S
C3316 C3319 1.539 . S
C3317 C3313 1.408 . S
C3317 C3316 1.404 . S
C3317 H3329 0.930 . S
C3318 C3314 1.524 . S
C3318 H3330 0.956 . S
C3318 H3331 0.961 . S
C3318 H3332 0.961 . S
C3319 C3316 1.539 . S
C3319 H3333 0.958 . S
C3319 H3334 0.961 . S
C3319 H3335 0.960 . S
H3320 C3304 0.931 . S
H3321 C3309 0.929 . S
H3322 C3310 0.960 . S
H3323 C3310 0.962 . S
H3324 C3310 0.960 . S
H3325 C3311 0.961 . S
H3326 C3311 0.961 . S
H3327 C3311 0.961 . S
H3328 C3312 0.931 . S
H3329 C3317 0.930 . S
H3330 C3318 0.956 . S
H3331 C3318 0.961 . S
H3332 C3318 0.961 . S
H3333 C3319 0.958 . S
H3334 C3319 0.961 . S
H3335 C3319 0.960 . S
C3336 C3337 1.391 . S
C3336 C3338 1.394 . S
C3336 H3352 0.931 . S
C3337 C3336 1.391 . S
C3337 C3341 1.376 . S
C3338 C3336 1.394 . S
C3338 C3339 1.369 . S
C3338 C3342 1.532 1_556 S
C3339 C3338 1.369 . S
C3339 C3340 1.410 . S
C3339 C3347 1.503 1_556 S
C3340 C3339 1.410 . S
C3340 C3341 1.392 . S
C3340 C3343 1.511 . S
C3341 C3337 1.376 . S
C3341 C3340 1.392 . S
C3341 H3353 0.929 . S
C3342 C3338 1.532 1_554 S
C3342 H3354 0.959 . S
C3342 H3355 0.961 . S
C3342 H3356 0.961 1_554 S
C3343 C3340 1.511 . S
C3343 H3357 0.961 . S
C3343 H3358 0.961 1_556 S
C3343 H3359 0.961 . S
C3344 C3345 1.370 . S
C3344 C3346 1.363 . S
C3344 H3360 0.931 . S
C3345 C3344 1.370 . S
C3345 C3349 1.408 . S
C3346 C3344 1.363 . S
C3346 C3347 1.370 . S
C3346 C3350 1.524 . S
C3347 C3339 1.503 1_554 S
C3347 C3346 1.370 . S
C3347 C3348 1.403 . S
C3348 C3347 1.403 . S
C3348 C3349 1.404 . S
C3348 C3351 1.539 . S
C3349 C3345 1.408 . S
C3349 C3348 1.404 . S
C3349 H3361 0.930 . S
C3350 C3346 1.524 . S
C3350 H3362 0.956 . S
C3350 H3363 0.961 . S
C3350 H3364 0.961 . S
C3351 C3348 1.539 . S
C3351 H3365 0.958 . S
C3351 H3366 0.961 . S
C3351 H3367 0.960 . S
H3352 C3336 0.931 . S
H3353 C3341 0.929 . S
H3354 C3342 0.959 . S
H3355 C3342 0.961 . S
H3356 C3342 0.961 1_556 S
H3357 C3343 0.961 . S
H3358 C3343 0.961 1_554 S
H3359 C3343 0.961 . S
H3360 C3344 0.931 . S
H3361 C3349 0.930 . S
H3362 C3350 0.956 . S
H3363 C3350 0.961 . S
H3364 C3350 0.961 . S
H3365 C3351 0.958 . S
H3366 C3351 0.961 . S
H3367 C3351 0.960 . S
C3368 C3369 1.391 . S
C3368 C3370 1.394 . S
C3368 H3384 0.931 . S
C3369 C3368 1.391 . S
C3369 C3373 1.376 . S
C3370 C3368 1.394 . S
C3370 C3371 1.369 . S
C3370 C3374 1.531 . S
C3371 C3370 1.369 . S
C3371 C3372 1.410 . S
C3371 C3379 1.503 1_556 S
C3372 C3371 1.410 . S
C3372 C3373 1.392 . S
C3372 C3375 1.511 1_556 S
C3373 C3369 1.376 . S
C3373 C3372 1.392 . S
C3373 H3385 0.929 . S
C3374 C3370 1.531 . S
C3374 H3386 0.960 1_556 S
C3374 H3387 0.962 . S
C3374 H3388 0.960 . S
C3375 C3372 1.511 1_554 S
C3375 H3389 0.961 1_554 S
C3375 H3390 0.961 . S
C3375 H3391 0.961 . S
C3376 C3377 1.370 . S
C3376 C3378 1.363 . S
C3376 H3392 0.931 . S
C3377 C3376 1.370 . S
C3377 C3381 1.408 . S
C3378 C3376 1.363 . S
C3378 C3379 1.370 . S
C3378 C3382 1.524 . S
C3379 C3371 1.503 1_554 S
C3379 C3378 1.370 . S
C3379 C3380 1.403 . S
C3380 C3379 1.403 . S
C3380 C3381 1.404 . S
C3380 C3383 1.539 . S
C3381 C3377 1.408 . S
C3381 C3380 1.404 . S
C3381 H3393 0.930 . S
C3382 C3378 1.524 . S
C3382 H3394 0.956 . S
C3382 H3395 0.961 . S
C3382 H3396 0.961 . S
C3383 C3380 1.539 . S
C3383 H3397 0.958 . S
C3383 H3398 0.961 . S
C3383 H3399 0.960 . S
H3384 C3368 0.931 . S
H3385 C3373 0.929 . S
H3386 C3374 0.960 1_554 S
H3387 C3374 0.962 . S
H3388 C3374 0.960 . S
H3389 C3375 0.961 1_556 S
H3390 C3375 0.961 . S
H3391 C3375 0.961 . S
H3392 C3376 0.931 . S
H3393 C3381 0.930 . S
H3394 C3382 0.956 . S
H3395 C3382 0.961 . S
H3396 C3382 0.961 . S
H3397 C3383 0.958 . S
H3398 C3383 0.961 . S
H3399 C3383 0.960 . S
C3400 C3401 1.391 . S
C3400 C3402 1.394 . S
C3400 H3416 0.931 . S
C3401 C3400 1.391 . S
C3401 C3405 1.376 . S
C3402 C3400 1.394 . S
C3402 C3403 1.369 . S
C3402 C3406 1.531 1_556 S
C3403 C3402 1.369 . S
C3403 C3404 1.410 . S
C3403 C3411 1.503 1_556 S
C3404 C3403 1.410 . S
C3404 C3405 1.392 . S
C3404 C3407 1.511 . S
C3405 C3401 1.376 . S
C3405 C3404 1.392 . S
C3405 H3417 0.929 . S
C3406 C3402 1.531 1_554 S
C3406 H3418 0.960 . S
C3406 H3419 0.962 . S
C3406 H3420 0.960 1_554 S
C3407 C3404 1.511 . S
C3407 H3421 0.961 . S
C3407 H3422 0.961 1_556 S
C3407 H3423 0.961 . S
C3408 C3409 1.370 . S
C3408 C3410 1.363 . S
C3408 H3424 0.931 . S
C3409 C3408 1.370 . S
C3409 C3413 1.408 . S
C3410 C3408 1.363 . S
C3410 C3411 1.370 . S
C3410 C3414 1.524 . S
C3411 C3403 1.503 1_554 S
C3411 C3410 1.370 . S
C3411 C3412 1.403 . S
C3412 C3411 1.403 . S
C3412 C3413 1.404 . S
C3412 C3415 1.539 . S
C3413 C3409 1.408 . S
C3413 C3412 1.404 . S
C3413 H3425 0.930 . S
C3414 C3410 1.524 . S
C3414 H3426 0.956 . S
C3414 H3427 0.961 . S
C3414 H3428 0.961 . S
C3415 C3412 1.539 . S
C3415 H3429 0.958 . S
C3415 H3430 0.961 . S
C3415 H3431 0.960 . S
H3416 C3400 0.931 . S
H3417 C3405 0.929 . S
H3418 C3406 0.960 . S
H3419 C3406 0.962 . S
H3420 C3406 0.960 1_556 S
H3421 C3407 0.961 . S
H3422 C3407 0.961 1_554 S
H3423 C3407 0.961 . S
H3424 C3408 0.931 . S
H3425 C3413 0.930 . S
H3426 C3414 0.956 . S
H3427 C3414 0.961 . S
H3428 C3414 0.961 . S
H3429 C3415 0.958 . S
H3430 C3415 0.961 . S
H3431 C3415 0.960 . S
C3432 C3433 1.391 . S
C3432 C3434 1.394 . S
C3432 H3448 0.931 . S
C3433 C3432 1.391 . S
C3433 C3437 1.376 . S
C3434 C3432 1.394 . S
C3434 C3435 1.369 . S
C3434 C3438 1.531 . S
C3435 C3434 1.369 . S
C3435 C3436 1.410 . S
C3435 C3443 1.503 . S
C3436 C3435 1.410 . S
C3436 C3437 1.392 . S
C3436 C3439 1.511 . S
C3437 C3433 1.376 . S
C3437 C3436 1.392 . S
C3437 H3449 0.929 . S
C3438 C3434 1.531 . S
C3438 H3450 0.960 . S
C3438 H3451 0.962 . S
C3438 H3452 0.960 . S
C3439 C3436 1.511 . S
C3439 H3453 0.961 . S
C3439 H3454 0.961 . S
C3439 H3455 0.961 . S
C3440 C3441 1.370 . S
C3440 C3442 1.363 . S
C3440 H3456 0.931 . S
C3441 C3440 1.370 . S
C3441 C3445 1.408 . S
C3442 C3440 1.363 . S
C3442 C3443 1.370 . S
C3442 C3446 1.524 . S
C3443 C3435 1.503 . S
C3443 C3442 1.370 . S
C3443 C3444 1.403 . S
C3444 C3443 1.403 . S
C3444 C3445 1.404 . S
C3444 C3447 1.539 . S
C3445 C3441 1.408 . S
C3445 C3444 1.404 . S
C3445 H3457 0.930 . S
C3446 C3442 1.524 . S
C3446 H3458 0.956 . S
C3446 H3459 0.961 . S
C3446 H3460 0.961 . S
C3447 C3444 1.539 . S
C3447 H3461 0.958 . S
C3447 H3462 0.961 . S
C3447 H3463 0.960 . S
H3448 C3432 0.931 . S
H3449 C3437 0.929 . S
H3450 C3438 0.960 . S
H3451 C3438 0.962 . S
H3452 C3438 0.960 . S
H3453 C3439 0.961 . S
H3454 C3439 0.961 . S
H3455 C3439 0.961 . S
H3456 C3440 0.931 . S
H3457 C3445 0.930 . S
H3458 C3446 0.956 . S
H3459 C3446 0.961 . S
H3460 C3446 0.961 . S
H3461 C3447 0.958 . S
H3462 C3447 0.961 . S
H3463 C3447 0.960 . S
C3464 C3465 1.391 . S
C3464 C3466 1.394 . S
C3464 H3480 0.931 . S
C3465 C3464 1.391 . S
C3465 C3469 1.376 . S
C3466 C3464 1.394 . S
C3466 C3467 1.369 . S
C3466 C3470 1.531 . S
C3467 C3466 1.369 . S
C3467 C3468 1.410 . S
C3467 C3475 1.503 . S
C3468 C3467 1.410 . S
C3468 C3469 1.392 . S
C3468 C3471 1.511 . S
C3469 C3465 1.376 . S
C3469 C3468 1.392 . S
C3469 H3481 0.929 . S
C3470 C3466 1.531 . S
C3470 H3482 0.960 . S
C3470 H3483 0.962 . S
C3470 H3484 0.960 . S
C3471 C3468 1.511 . S
C3471 H3485 0.961 . S
C3471 H3486 0.961 . S
C3471 H3487 0.961 . S
C3472 C3473 1.370 . S
C3472 C3474 1.363 . S
C3472 H3488 0.931 . S
C3473 C3472 1.370 . S
C3473 C3477 1.408 . S
C3474 C3472 1.363 . S
C3474 C3475 1.370 . S
C3474 C3478 1.524 . S
C3475 C3467 1.503 . S
C3475 C3474 1.370 . S
C3475 C3476 1.403 . S
C3476 C3475 1.403 . S
C3476 C3477 1.404 . S
C3476 C3479 1.539 . S
C3477 C3473 1.408 . S
C3477 C3476 1.404 . S
C3477 H3489 0.930 . S
C3478 C3474 1.524 . S
C3478 H3490 0.956 . S
C3478 H3491 0.961 . S
C3478 H3492 0.961 . S
C3479 C3476 1.539 . S
C3479 H3493 0.958 . S
C3479 H3494 0.961 . S
C3479 H3495 0.960 . S
H3480 C3464 0.931 . S
H3481 C3469 0.929 . S
H3482 C3470 0.960 . S
H3483 C3470 0.962 . S
H3484 C3470 0.960 . S
H3485 C3471 0.961 . S
H3486 C3471 0.961 . S
H3487 C3471 0.961 . S
H3488 C3472 0.931 . S
H3489 C3477 0.930 . S
H3490 C3478 0.956 . S
H3491 C3478 0.961 . S
H3492 C3478 0.961 . S
H3493 C3479 0.958 . S
H3494 C3479 0.961 . S
H3495 C3479 0.960 . S
C3496 C3497 1.391 . S
C3496 C3498 1.394 . S
C3496 H3512 0.931 . S
C3497 C3496 1.391 . S
C3497 C3501 1.376 . S
C3498 C3496 1.394 . S
C3498 C3499 1.369 . S
C3498 C3502 1.531 . S
C3499 C3498 1.369 . S
C3499 C3500 1.410 . S
C3499 C3507 1.503 . S
C3500 C3499 1.410 . S
C3500 C3501 1.392 . S
C3500 C3503 1.511 . S
C3501 C3497 1.376 . S
C3501 C3500 1.392 . S
C3501 H3513 0.929 . S
C3502 C3498 1.531 . S
C3502 H3514 0.960 . S
C3502 H3515 0.962 . S
C3502 H3516 0.960 . S
C3503 C3500 1.511 . S
C3503 H3517 0.961 . S
C3503 H3518 0.961 . S
C3503 H3519 0.961 . S
C3504 C3505 1.370 . S
C3504 C3506 1.363 . S
C3504 H3520 0.931 . S
C3505 C3504 1.370 . S
C3505 C3509 1.408 . S
C3506 C3504 1.363 . S
C3506 C3507 1.370 . S
C3506 C3510 1.524 . S
C3507 C3499 1.503 . S
C3507 C3506 1.370 . S
C3507 C3508 1.403 . S
C3508 C3507 1.403 . S
C3508 C3509 1.404 . S
C3508 C3511 1.539 . S
C3509 C3505 1.408 . S
C3509 C3508 1.404 . S
C3509 H3521 0.930 . S
C3510 C3506 1.524 . S
C3510 H3522 0.956 . S
C3510 H3523 0.961 . S
C3510 H3524 0.961 . S
C3511 C3508 1.539 . S
C3511 H3525 0.958 . S
C3511 H3526 0.961 . S
C3511 H3527 0.960 . S
H3512 C3496 0.931 . S
H3513 C3501 0.929 . S
H3514 C3502 0.960 . S
H3515 C3502 0.962 . S
H3516 C3502 0.960 . S
H3517 C3503 0.961 . S
H3518 C3503 0.961 . S
H3519 C3503 0.961 . S
H3520 C3504 0.931 . S
H3521 C3509 0.930 . S
H3522 C3510 0.956 . S
H3523 C3510 0.961 . S
H3524 C3510 0.961 . S
H3525 C3511 0.958 . S
H3526 C3511 0.961 . S
H3527 C3511 0.960 . S
C3528 C3529 1.391 . S
C3528 C3530 1.394 . S
C3528 H3544 0.931 . S
C3529 C3528 1.391 . S
C3529 C3533 1.376 . S
C3530 C3528 1.394 . S
C3530 C3531 1.369 . S
C3530 C3534 1.531 . S
C3531 C3530 1.369 . S
C3531 C3532 1.410 . S
C3531 C3539 1.503 . S
C3532 C3531 1.410 . S
C3532 C3533 1.392 . S
C3532 C3535 1.511 . S
C3533 C3529 1.376 . S
C3533 C3532 1.392 . S
C3533 H3545 0.929 . S
C3534 C3530 1.531 . S
C3534 H3546 0.960 . S
C3534 H3547 0.962 . S
C3534 H3548 0.960 . S
C3535 C3532 1.511 . S
C3535 H3549 0.961 . S
C3535 H3550 0.961 . S
C3535 H3551 0.961 . S
C3536 C3537 1.370 . S
C3536 C3538 1.363 . S
C3536 H3552 0.931 . S
C3537 C3536 1.370 . S
C3537 C3541 1.408 . S
C3538 C3536 1.363 . S
C3538 C3539 1.370 . S
C3538 C3542 1.524 . S
C3539 C3531 1.503 . S
C3539 C3538 1.370 . S
C3539 C3540 1.403 . S
C3540 C3539 1.403 . S
C3540 C3541 1.404 . S
C3540 C3543 1.539 . S
C3541 C3537 1.408 . S
C3541 C3540 1.404 . S
C3541 H3553 0.930 . S
C3542 C3538 1.524 . S
C3542 H3554 0.956 . S
C3542 H3555 0.961 . S
C3542 H3556 0.961 . S
C3543 C3540 1.539 . S
C3543 H3557 0.958 . S
C3543 H3558 0.961 . S
C3543 H3559 0.960 . S
H3544 C3528 0.931 . S
H3545 C3533 0.929 . S
H3546 C3534 0.960 . S
H3547 C3534 0.962 . S
H3548 C3534 0.960 . S
H3549 C3535 0.961 . S
H3550 C3535 0.961 . S
H3551 C3535 0.961 . S
H3552 C3536 0.931 . S
H3553 C3541 0.930 . S
H3554 C3542 0.956 . S
H3555 C3542 0.961 . S
H3556 C3542 0.961 . S
H3557 C3543 0.958 . S
H3558 C3543 0.961 . S
H3559 C3543 0.960 . S
C3560 C3561 1.391 . S
C3560 C3562 1.394 . S
C3560 H3576 0.931 . S
C3561 C3560 1.391 . S
C3561 C3565 1.376 . S
C3562 C3560 1.394 . S
C3562 C3563 1.369 . S
C3562 C3566 1.531 . S
C3563 C3562 1.369 . S
C3563 C3564 1.410 . S
C3563 C3571 1.503 . S
C3564 C3563 1.410 . S
C3564 C3565 1.392 . S
C3564 C3567 1.511 . S
C3565 C3561 1.376 . S
C3565 C3564 1.392 . S
C3565 H3577 0.929 . S
C3566 C3562 1.531 . S
C3566 H3578 0.960 . S
C3566 H3579 0.962 . S
C3566 H3580 0.960 . S
C3567 C3564 1.511 . S
C3567 H3581 0.961 . S
C3567 H3582 0.961 . S
C3567 H3583 0.961 . S
C3568 C3569 1.370 . S
C3568 C3570 1.363 . S
C3568 H3584 0.931 . S
C3569 C3568 1.370 . S
C3569 C3573 1.408 . S
C3570 C3568 1.363 . S
C3570 C3571 1.370 . S
C3570 C3574 1.524 . S
C3571 C3563 1.503 . S
C3571 C3570 1.370 . S
C3571 C3572 1.403 . S
C3572 C3571 1.403 . S
C3572 C3573 1.404 . S
C3572 C3575 1.539 . S
C3573 C3569 1.408 . S
C3573 C3572 1.404 . S
C3573 H3585 0.930 . S
C3574 C3570 1.524 . S
C3574 H3586 0.956 . S
C3574 H3587 0.961 . S
C3574 H3588 0.961 . S
C3575 C3572 1.539 . S
C3575 H3589 0.958 . S
C3575 H3590 0.961 . S
C3575 H3591 0.960 . S
H3576 C3560 0.931 . S
H3577 C3565 0.929 . S
H3578 C3566 0.960 . S
H3579 C3566 0.962 . S
H3580 C3566 0.960 . S
H3581 C3567 0.961 . S
H3582 C3567 0.961 . S
H3583 C3567 0.961 . S
H3584 C3568 0.931 . S
H3585 C3573 0.930 . S
H3586 C3574 0.956 . S
H3587 C3574 0.961 . S
H3588 C3574 0.961 . S
H3589 C3575 0.958 . S
H3590 C3575 0.961 . S
H3591 C3575 0.960 . S
C3592 C3593 1.391 . S
C3592 C3594 1.394 . S
C3592 H3608 0.931 . S
C3593 C3592 1.391 . S
C3593 C3597 1.376 . S
C3594 C3592 1.394 . S
C3594 C3595 1.369 . S
C3594 C3598 1.531 . S
C3595 C3594 1.369 . S
C3595 C3596 1.410 . S
C3595 C3603 1.503 . S
C3596 C3595 1.410 . S
C3596 C3597 1.392 . S
C3596 C3599 1.511 . S
C3597 C3593 1.376 . S
C3597 C3596 1.392 . S
C3597 H3609 0.929 . S
C3598 C3594 1.531 . S
C3598 H3610 0.960 . S
C3598 H3611 0.962 . S
C3598 H3612 0.960 . S
C3599 C3596 1.511 . S
C3599 H3613 0.961 . S
C3599 H3614 0.961 . S
C3599 H3615 0.961 . S
C3600 C3601 1.370 . S
C3600 C3602 1.363 . S
C3600 H3616 0.931 . S
C3601 C3600 1.370 . S
C3601 C3605 1.408 . S
C3602 C3600 1.363 . S
C3602 C3603 1.370 . S
C3602 C3606 1.524 . S
C3603 C3595 1.503 . S
C3603 C3602 1.370 . S
C3603 C3604 1.403 . S
C3604 C3603 1.403 . S
C3604 C3605 1.404 . S
C3604 C3607 1.539 . S
C3605 C3601 1.408 . S
C3605 C3604 1.404 . S
C3605 H3617 0.930 . S
C3606 C3602 1.524 . S
C3606 H3618 0.956 . S
C3606 H3619 0.961 . S
C3606 H3620 0.961 . S
C3607 C3604 1.539 . S
C3607 H3621 0.958 . S
C3607 H3622 0.961 . S
C3607 H3623 0.960 . S
H3608 C3592 0.931 . S
H3609 C3597 0.929 . S
H3610 C3598 0.960 . S
H3611 C3598 0.962 . S
H3612 C3598 0.960 . S
H3613 C3599 0.961 . S
H3614 C3599 0.961 . S
H3615 C3599 0.961 . S
H3616 C3600 0.931 . S
H3617 C3605 0.930 . S
H3618 C3606 0.956 . S
H3619 C3606 0.961 . S
H3620 C3606 0.961 . S
H3621 C3607 0.958 . S
H3622 C3607 0.961 . S
H3623 C3607 0.960 . S
C3624 C3625 1.391 . S
C3624 C3626 1.394 . S
C3624 H3640 0.931 . S
C3625 C3624 1.391 . S
C3625 C3629 1.376 . S
C3626 C3624 1.394 . S
C3626 C3627 1.369 . S
C3626 C3630 1.531 . S
C3627 C3626 1.369 . S
C3627 C3628 1.410 . S
C3627 C3635 1.503 1_554 S
C3628 C3627 1.410 . S
C3628 C3629 1.392 . S
C3628 C3631 1.511 . S
C3629 C3625 1.376 . S
C3629 C3628 1.392 . S
C3629 H3641 0.929 . S
C3630 C3626 1.531 . S
C3630 H3642 0.960 . S
C3630 H3643 0.962 . S
C3630 H3644 0.960 . S
C3631 C3628 1.511 . S
C3631 H3645 0.961 . S
C3631 H3646 0.961 . S
C3631 H3647 0.961 . S
C3632 C3633 1.370 . S
C3632 C3634 1.363 . S
C3632 H3648 0.931 . S
C3633 C3632 1.370 . S
C3633 C3637 1.408 . S
C3634 C3632 1.363 . S
C3634 C3635 1.370 . S
C3634 C3638 1.524 . S
C3635 C3627 1.503 1_556 S
C3635 C3634 1.370 . S
C3635 C3636 1.403 . S
C3636 C3635 1.403 . S
C3636 C3637 1.404 . S
C3636 C3639 1.539 . S
C3637 C3633 1.408 . S
C3637 C3636 1.404 . S
C3637 H3649 0.930 . S
C3638 C3634 1.524 . S
C3638 H3650 0.956 1_556 S
C3638 H3651 0.961 1_556 S
C3638 H3652 0.961 . S
C3639 C3636 1.539 . S
C3639 H3653 0.958 . S
C3639 H3654 0.961 . S
C3639 H3655 0.960 1_556 S
H3640 C3624 0.931 . S
H3641 C3629 0.929 . S
H3642 C3630 0.960 . S
H3643 C3630 0.962 . S
H3644 C3630 0.960 . S
H3645 C3631 0.961 . S
H3646 C3631 0.961 . S
H3647 C3631 0.961 . S
H3648 C3632 0.931 . S
H3649 C3637 0.930 . S
H3650 C3638 0.956 1_554 S
H3651 C3638 0.961 1_554 S
H3652 C3638 0.961 . S
H3653 C3639 0.958 . S
H3654 C3639 0.961 . S
H3655 C3639 0.960 1_554 S
C3656 C3657 1.391 . S
C3656 C3658 1.394 . S
C3656 H3672 0.931 . S
C3657 C3656 1.391 . S
C3657 C3661 1.376 . S
C3658 C3656 1.394 . S
C3658 C3659 1.369 . S
C3658 C3662 1.531 . S
C3659 C3658 1.369 . S
C3659 C3660 1.410 . S
C3659 C3667 1.503 1_556 S
C3660 C3659 1.410 . S
C3660 C3661 1.392 . S
C3660 C3663 1.511 . S
C3661 C3657 1.376 . S
C3661 C3660 1.392 . S
C3661 H3673 0.929 . S
C3662 C3658 1.531 . S
C3662 H3674 0.960 1_556 S
C3662 H3675 0.962 1_556 S
C3662 H3676 0.960 . S
C3663 C3660 1.511 . S
C3663 H3677 0.961 . S
C3663 H3678 0.961 1_556 S
C3663 H3679 0.961 . S
C3664 C3665 1.370 . S
C3664 C3666 1.363 . S
C3664 H3680 0.931 . S
C3665 C3664 1.370 . S
C3665 C3669 1.408 . S
C3666 C3664 1.363 . S
C3666 C3667 1.370 . S
C3666 C3670 1.524 . S
C3667 C3659 1.503 1_554 S
C3667 C3666 1.370 . S
C3667 C3668 1.403 . S
C3668 C3667 1.403 . S
C3668 C3669 1.404 . S
C3668 C3671 1.539 . S
C3669 C3665 1.408 . S
C3669 C3668 1.404 . S
C3669 H3681 0.930 . S
C3670 C3666 1.524 . S
C3670 H3682 0.956 . S
C3670 H3683 0.961 . S
C3670 H3684 0.961 . S
C3671 C3668 1.539 . S
C3671 H3685 0.958 . S
C3671 H3686 0.961 . S
C3671 H3687 0.960 . S
H3672 C3656 0.931 . S
H3673 C3661 0.929 . S
H3674 C3662 0.960 1_554 S
H3675 C3662 0.962 1_554 S
H3676 C3662 0.960 . S
H3677 C3663 0.961 . S
H3678 C3663 0.961 1_554 S
H3679 C3663 0.961 . S
H3680 C3664 0.931 . S
H3681 C3669 0.930 . S
H3682 C3670 0.956 . S
H3683 C3670 0.961 . S
H3684 C3670 0.961 . S
H3685 C3671 0.958 . S
H3686 C3671 0.961 . S
H3687 C3671 0.960 . S
C3688 C3689 1.391 . S
C3688 C3690 1.394 . S
C3688 H3704 0.931 . S
C3689 C3688 1.391 . S
C3689 C3693 1.376 . S
C3690 C3688 1.394 . S
C3690 C3691 1.369 . S
C3690 C3694 1.531 . S
C3691 C3690 1.369 . S
C3691 C3692 1.410 . S
C3691 C3699 1.503 1_556 S
C3692 C3691 1.410 . S
C3692 C3693 1.392 . S
C3692 C3695 1.511 . S
C3693 C3689 1.376 . S
C3693 C3692 1.392 . S
C3693 H3705 0.929 . S
C3694 C3690 1.531 . S
C3694 H3706 0.960 1_556 S
C3694 H3707 0.962 1_556 S
C3694 H3708 0.960 . S
C3695 C3692 1.511 . S
C3695 H3709 0.961 . S
C3695 H3710 0.961 1_556 S
C3695 H3711 0.961 . S
C3696 C3697 1.370 . S
C3696 C3698 1.363 . S
C3696 H3712 0.931 . S
C3697 C3696 1.370 . S
C3697 C3701 1.408 . S
C3698 C3696 1.363 . S
C3698 C3699 1.370 . S
C3698 C3702 1.524 . S
C3699 C3691 1.503 1_554 S
C3699 C3698 1.370 . S
C3699 C3700 1.403 . S
C3700 C3699 1.403 . S
C3700 C3701 1.404 . S
C3700 C3703 1.539 . S
C3701 C3697 1.408 . S
C3701 C3700 1.404 . S
C3701 H3713 0.930 . S
C3702 C3698 1.524 . S
C3702 H3714 0.956 . S
C3702 H3715 0.961 . S
C3702 H3716 0.961 . S
C3703 C3700 1.539 . S
C3703 H3717 0.958 . S
C3703 H3718 0.961 . S
C3703 H3719 0.960 . S
H3704 C3688 0.931 . S
H3705 C3693 0.929 . S
H3706 C3694 0.960 1_554 S
H3707 C3694 0.962 1_554 S
H3708 C3694 0.960 . S
H3709 C3695 0.961 . S
H3710 C3695 0.961 1_554 S
H3711 C3695 0.961 . S
H3712 C3696 0.931 . S
H3713 C3701 0.930 . S
H3714 C3702 0.956 . S
H3715 C3702 0.961 . S
H3716 C3702 0.961 . S
H3717 C3703 0.958 . S
H3718 C3703 0.961 . S
H3719 C3703 0.960 . S
C3720 C3721 1.391 . S
C3720 C3722 1.394 . S
C3720 H3736 0.931 . S
C3721 C3720 1.391 . S
C3721 C3725 1.376 . S
C3722 C3720 1.394 . S
C3722 C3723 1.369 . S
C3722 C3726 1.531 . S
C3723 C3722 1.369 . S
C3723 C3724 1.410 . S
C3723 C3731 1.503 . S
C3724 C3723 1.410 . S
C3724 C3725 1.392 . S
C3724 C3727 1.511 . S
C3725 C3721 1.376 . S
C3725 C3724 1.392 . S
C3725 H3737 0.929 . S
C3726 C3722 1.531 . S
C3726 H3738 0.960 . S
C3726 H3739 0.962 . S
C3726 H3740 0.960 . S
C3727 C3724 1.511 . S
C3727 H3741 0.961 . S
C3727 H3742 0.961 . S
C3727 H3743 0.961 . S
C3728 C3729 1.370 . S
C3728 C3730 1.363 . S
C3728 H3744 0.931 . S
C3729 C3728 1.370 . S
C3729 C3733 1.408 . S
C3730 C3728 1.363 . S
C3730 C3731 1.370 . S
C3730 C3734 1.524 . S
C3731 C3723 1.503 . S
C3731 C3730 1.370 . S
C3731 C3732 1.403 . S
C3732 C3731 1.403 . S
C3732 C3733 1.404 . S
C3732 C3735 1.539 . S
C3733 C3729 1.408 . S
C3733 C3732 1.404 . S
C3733 H3745 0.930 . S
C3734 C3730 1.524 . S
C3734 H3746 0.956 . S
C3734 H3747 0.961 . S
C3734 H3748 0.961 . S
C3735 C3732 1.539 . S
C3735 H3749 0.958 . S
C3735 H3750 0.961 . S
C3735 H3751 0.960 . S
H3736 C3720 0.931 . S
H3737 C3725 0.929 . S
H3738 C3726 0.960 . S
H3739 C3726 0.962 . S
H3740 C3726 0.960 . S
H3741 C3727 0.961 . S
H3742 C3727 0.961 . S
H3743 C3727 0.961 . S
H3744 C3728 0.931 . S
H3745 C3733 0.930 . S
H3746 C3734 0.956 . S
H3747 C3734 0.961 . S
H3748 C3734 0.961 . S
H3749 C3735 0.958 . S
H3750 C3735 0.961 . S
H3751 C3735 0.960 . S
C3752 C3753 1.391 . S
C3752 C3754 1.394 . S
C3752 H3768 0.931 . S
C3753 C3752 1.391 . S
C3753 C3757 1.376 . S
C3754 C3752 1.394 . S
C3754 C3755 1.369 . S
C3754 C3758 1.531 . S
C3755 C3754 1.369 . S
C3755 C3756 1.410 . S
C3755 C3763 1.503 . S
C3756 C3755 1.410 . S
C3756 C3757 1.392 . S
C3756 C3759 1.511 . S
C3757 C3753 1.376 . S
C3757 C3756 1.392 . S
C3757 H3769 0.929 . S
C3758 C3754 1.531 . S
C3758 H3770 0.960 . S
C3758 H3771 0.962 . S
C3758 H3772 0.960 . S
C3759 C3756 1.511 . S
C3759 H3773 0.961 . S
C3759 H3774 0.961 . S
C3759 H3775 0.961 . S
C3760 C3761 1.370 . S
C3760 C3762 1.363 . S
C3760 H3776 0.931 . S
C3761 C3760 1.370 . S
C3761 C3765 1.408 . S
C3762 C3760 1.363 . S
C3762 C3763 1.370 . S
C3762 C3766 1.524 . S
C3763 C3755 1.503 . S
C3763 C3762 1.370 . S
C3763 C3764 1.403 . S
C3764 C3763 1.403 . S
C3764 C3765 1.404 . S
C3764 C3767 1.539 . S
C3765 C3761 1.408 . S
C3765 C3764 1.404 . S
C3765 H3777 0.930 . S
C3766 C3762 1.524 . S
C3766 H3778 0.956 . S
C3766 H3779 0.961 . S
C3766 H3780 0.961 . S
C3767 C3764 1.539 . S
C3767 H3781 0.958 . S
C3767 H3782 0.961 . S
C3767 H3783 0.960 . S
H3768 C3752 0.931 . S
H3769 C3757 0.929 . S
H3770 C3758 0.960 . S
H3771 C3758 0.962 . S
H3772 C3758 0.960 . S
H3773 C3759 0.961 . S
H3774 C3759 0.961 . S
H3775 C3759 0.961 . S
H3776 C3760 0.931 . S
H3777 C3765 0.930 . S
H3778 C3766 0.956 . S
H3779 C3766 0.961 . S
H3780 C3766 0.961 . S
H3781 C3767 0.958 . S
H3782 C3767 0.961 . S
H3783 C3767 0.960 . S
C3784 C3785 1.391 . S
C3784 C3786 1.394 . S
C3784 H3800 0.931 . S
C3785 C3784 1.391 . S
C3785 C3789 1.376 . S
C3786 C3784 1.394 . S
C3786 C3787 1.369 . S
C3786 C3790 1.531 . S
C3787 C3786 1.369 . S
C3787 C3788 1.410 . S
C3787 C3795 1.503 . S
C3788 C3787 1.410 . S
C3788 C3789 1.392 . S
C3788 C3791 1.511 . S
C3789 C3785 1.376 . S
C3789 C3788 1.392 . S
C3789 H3801 0.929 . S
C3790 C3786 1.531 . S
C3790 H3802 0.960 . S
C3790 H3803 0.962 . S
C3790 H3804 0.960 . S
C3791 C3788 1.511 . S
C3791 H3805 0.961 . S
C3791 H3806 0.961 . S
C3791 H3807 0.961 . S
C3792 C3793 1.370 . S
C3792 C3794 1.363 . S
C3792 H3808 0.931 . S
C3793 C3792 1.370 . S
C3793 C3797 1.408 . S
C3794 C3792 1.363 . S
C3794 C3795 1.370 . S
C3794 C3798 1.524 . S
C3795 C3787 1.503 . S
C3795 C3794 1.370 . S
C3795 C3796 1.403 . S
C3796 C3795 1.403 . S
C3796 C3797 1.404 . S
C3796 C3799 1.539 . S
C3797 C3793 1.408 . S
C3797 C3796 1.404 . S
C3797 H3809 0.930 . S
C3798 C3794 1.524 . S
C3798 H3810 0.956 . S
C3798 H3811 0.961 . S
C3798 H3812 0.961 . S
C3799 C3796 1.539 . S
C3799 H3813 0.958 . S
C3799 H3814 0.961 . S
C3799 H3815 0.960 . S
H3800 C3784 0.931 . S
H3801 C3789 0.929 . S
H3802 C3790 0.960 . S
H3803 C3790 0.962 . S
H3804 C3790 0.960 . S
H3805 C3791 0.961 . S
H3806 C3791 0.961 . S
H3807 C3791 0.961 . S
H3808 C3792 0.931 . S
H3809 C3797 0.930 . S
H3810 C3798 0.956 . S
H3811 C3798 0.961 . S
H3812 C3798 0.961 . S
H3813 C3799 0.958 . S
H3814 C3799 0.961 . S
H3815 C3799 0.960 . S
C3816 C3817 1.391 . S
C3816 C3818 1.394 . S
C3816 H3832 0.931 . S
C3817 C3816 1.391 . S
C3817 C3821 1.376 . S
C3818 C3816 1.394 . S
C3818 C3819 1.369 . S
C3818 C3822 1.531 . S
C3819 C3818 1.369 . S
C3819 C3820 1.410 . S
C3819 C3827 1.503 1_554 S
C3820 C3819 1.410 . S
C3820 C3821 1.392 . S
C3820 C3823 1.511 . S
C3821 C3817 1.376 . S
C3821 C3820 1.392 . S
C3821 H3833 0.929 . S
C3822 C3818 1.531 . S
C3822 H3834 0.960 1_554 S
C3822 H3835 0.961 1_554 S
C3822 H3836 0.960 . S
C3823 C3820 1.511 . S
C3823 H3837 0.961 . S
C3823 H3838 0.961 1_554 S
C3823 H3839 0.961 1_554 S
C3824 C3825 1.370 . S
C3824 C3826 1.363 . S
C3824 H3840 0.931 . S
C3825 C3824 1.370 . S
C3825 C3829 1.408 . S
C3826 C3824 1.363 . S
C3826 C3827 1.370 . S
C3826 C3830 1.524 . S
C3827 C3819 1.503 1_556 S
C3827 C3826 1.370 . S
C3827 C3828 1.403 . S
C3828 C3827 1.403 . S
C3828 C3829 1.404 . S
C3828 C3831 1.539 . S
C3829 C3825 1.408 . S
C3829 C3828 1.404 . S
C3829 H3841 0.930 . S
C3830 C3826 1.524 . S
C3830 H3842 0.956 . S
C3830 H3843 0.961 . S
C3830 H3844 0.961 . S
C3831 C3828 1.539 . S
C3831 H3845 0.958 . S
C3831 H3846 0.961 . S
C3831 H3847 0.960 . S
H3832 C3816 0.931 . S
H3833 C3821 0.929 . S
H3834 C3822 0.960 1_556 S
H3835 C3822 0.961 1_556 S
H3836 C3822 0.960 . S
H3837 C3823 0.961 . S
H3838 C3823 0.961 1_556 S
H3839 C3823 0.961 1_556 S
H3840 C3824 0.931 . S
H3841 C3829 0.930 . S
H3842 C3830 0.956 . S
H3843 C3830 0.961 . S
H3844 C3830 0.961 . S
H3845 C3831 0.958 . S
H3846 C3831 0.961 . S
H3847 C3831 0.960 . S
C3848 C3849 1.391 . S
C3848 C3850 1.394 . S
C3848 H3864 0.931 . S
C3849 C3848 1.391 . S
C3849 C3853 1.376 . S
C3850 C3848 1.394 . S
C3850 C3851 1.369 . S
C3850 C3854 1.531 . S
C3851 C3850 1.369 . S
C3851 C3852 1.410 . S
C3851 C3859 1.503 1_556 S
C3852 C3851 1.410 . S
C3852 C3853 1.392 . S
C3852 C3855 1.511 . S
C3853 C3849 1.376 . S
C3853 C3852 1.392 . S
C3853 H3865 0.929 . S
C3854 C3850 1.531 . S
C3854 H3866 0.960 . S
C3854 H3867 0.962 . S
C3854 H3868 0.960 . S
C3855 C3852 1.511 . S
C3855 H3869 0.961 . S
C3855 H3870 0.961 . S
C3855 H3871 0.961 . S
C3856 C3857 1.370 . S
C3856 C3858 1.363 . S
C3856 H3872 0.931 . S
C3857 C3856 1.370 . S
C3857 C3861 1.408 . S
C3858 C3856 1.363 . S
C3858 C3859 1.370 . S
C3858 C3862 1.524 . S
C3859 C3851 1.503 1_554 S
C3859 C3858 1.370 . S
C3859 C3860 1.403 . S
C3860 C3859 1.403 . S
C3860 C3861 1.404 . S
C3860 C3863 1.539 . S
C3861 C3857 1.408 . S
C3861 C3860 1.404 . S
C3861 H3873 0.930 . S
C3862 C3858 1.524 . S
C3862 H3874 0.956 1_554 S
C3862 H3875 0.961 1_554 S
C3862 H3876 0.961 . S
C3863 C3860 1.539 . S
C3863 H3877 0.957 1_554 S
C3863 H3878 0.961 . S
C3863 H3879 0.960 1_554 S
H3864 C3848 0.931 . S
H3865 C3853 0.929 . S
H3866 C3854 0.960 . S
H3867 C3854 0.962 . S
H3868 C3854 0.960 . S
H3869 C3855 0.961 . S
H3870 C3855 0.961 . S
H3871 C3855 0.961 . S
H3872 C3856 0.931 . S
H3873 C3861 0.930 . S
H3874 C3862 0.956 1_556 S
H3875 C3862 0.961 1_556 S
H3876 C3862 0.961 . S
H3877 C3863 0.957 1_556 S
H3878 C3863 0.961 . S
H3879 C3863 0.960 1_556 S
C3880 C3881 1.391 . S
C3880 C3882 1.394 . S
C3880 H3896 0.931 . S
C3881 C3880 1.391 . S
C3881 C3885 1.376 . S
C3882 C3880 1.394 . S
C3882 C3883 1.369 . S
C3882 C3886 1.531 . S
C3883 C3882 1.369 . S
C3883 C3884 1.410 . S
C3883 C3891 1.503 1_554 S
C3884 C3883 1.410 . S
C3884 C3885 1.392 . S
C3884 C3887 1.512 . S
C3885 C3881 1.376 . S
C3885 C3884 1.392 . S
C3885 H3897 0.929 . S
C3886 C3882 1.531 . S
C3886 H3898 0.960 1_554 S
C3886 H3899 0.962 . S
C3886 H3900 0.960 . S
C3887 C3884 1.512 . S
C3887 H3901 0.961 . S
C3887 H3902 0.960 1_554 S
C3887 H3903 0.960 1_554 S
C3888 C3889 1.370 . S
C3888 C3890 1.363 . S
C3888 H3904 0.931 . S
C3889 C3888 1.370 . S
C3889 C3893 1.408 . S
C3890 C3888 1.363 . S
C3890 C3891 1.370 . S
C3890 C3894 1.524 . S
C3891 C3883 1.503 1_556 S
C3891 C3890 1.370 . S
C3891 C3892 1.403 . S
C3892 C3891 1.403 . S
C3892 C3893 1.404 . S
C3892 C3895 1.539 . S
C3893 C3889 1.408 . S
C3893 C3892 1.404 . S
C3893 H3905 0.930 . S
C3894 C3890 1.524 . S
C3894 H3906 0.956 . S
C3894 H3907 0.961 . S
C3894 H3908 0.961 . S
C3895 C3892 1.539 . S
C3895 H3909 0.958 . S
C3895 H3910 0.961 . S
C3895 H3911 0.960 . S
H3896 C3880 0.931 . S
H3897 C3885 0.929 . S
H3898 C3886 0.960 1_556 S
H3899 C3886 0.962 . S
H3900 C3886 0.960 . S
H3901 C3887 0.961 . S
H3902 C3887 0.960 1_556 S
H3903 C3887 0.960 1_556 S
H3904 C3888 0.931 . S
H3905 C3893 0.930 . S
H3906 C3894 0.956 . S
H3907 C3894 0.961 . S
H3908 C3894 0.961 . S
H3909 C3895 0.958 . S
H3910 C3895 0.961 . S
H3911 C3895 0.960 . S
C3912 C3913 1.391 . S
C3912 C3914 1.394 . S
C3912 H3928 0.931 . S
C3913 C3912 1.391 . S
C3913 C3917 1.376 . S
C3914 C3912 1.394 . S
C3914 C3915 1.369 . S
C3914 C3918 1.531 . S
C3915 C3914 1.369 . S
C3915 C3916 1.410 . S
C3915 C3923 1.503 1_556 S
C3916 C3915 1.410 . S
C3916 C3917 1.392 . S
C3916 C3919 1.511 . S
C3917 C3913 1.376 . S
C3917 C3916 1.392 . S
C3917 H3929 0.929 . S
C3918 C3914 1.531 . S
C3918 H3930 0.960 . S
C3918 H3931 0.962 . S
C3918 H3932 0.960 . S
C3919 C3916 1.511 . S
C3919 H3933 0.961 . S
C3919 H3934 0.961 . S
C3919 H3935 0.961 . S
C3920 C3921 1.370 . S
C3920 C3922 1.363 . S
C3920 H3936 0.931 . S
C3921 C3920 1.370 . S
C3921 C3925 1.408 . S
C3922 C3920 1.363 . S
C3922 C3923 1.370 . S
C3922 C3926 1.524 1_554 S
C3923 C3915 1.503 1_554 S
C3923 C3922 1.370 . S
C3923 C3924 1.403 . S
C3924 C3923 1.403 . S
C3924 C3925 1.404 . S
C3924 C3927 1.539 . S
C3925 C3921 1.408 . S
C3925 C3924 1.404 . S
C3925 H3937 0.930 . S
C3926 C3922 1.524 1_556 S
C3926 H3938 0.956 . S
C3926 H3939 0.961 . S
C3926 H3940 0.961 1_556 S
C3927 C3924 1.539 . S
C3927 H3941 0.958 . S
C3927 H3942 0.961 . S
C3927 H3943 0.960 1_554 S
H3928 C3912 0.931 . S
H3929 C3917 0.929 . S
H3930 C3918 0.960 . S
H3931 C3918 0.962 . S
H3932 C3918 0.960 . S
H3933 C3919 0.961 . S
H3934 C3919 0.961 . S
H3935 C3919 0.961 . S
H3936 C3920 0.931 . S
H3937 C3925 0.930 . S
H3938 C3926 0.956 . S
H3939 C3926 0.961 . S
H3940 C3926 0.961 1_554 S
H3941 C3927 0.958 . S
H3942 C3927 0.961 . S
H3943 C3927 0.960 1_556 S
C3944 C3945 1.391 . S
C3944 C3946 1.394 . S
C3944 H3960 0.931 . S
C3945 C3944 1.391 . S
C3945 C3949 1.376 . S
C3946 C3944 1.394 . S
C3946 C3947 1.369 . S
C3946 C3950 1.531 . S
C3947 C3946 1.369 . S
C3947 C3948 1.410 . S
C3947 C3955 1.503 1_556 S
C3948 C3947 1.410 . S
C3948 C3949 1.392 . S
C3948 C3951 1.511 . S
C3949 C3945 1.376 . S
C3949 C3948 1.392 . S
C3949 H3961 0.929 . S
C3950 C3946 1.531 . S
C3950 H3962 0.960 . S
C3950 H3963 0.962 . S
C3950 H3964 0.960 . S
C3951 C3948 1.511 . S
C3951 H3965 0.961 . S
C3951 H3966 0.961 . S
C3951 H3967 0.961 . S
C3952 C3953 1.370 . S
C3952 C3954 1.363 . S
C3952 H3968 0.931 . S
C3953 C3952 1.370 . S
C3953 C3957 1.408 . S
C3954 C3952 1.363 . S
C3954 C3955 1.370 . S
C3954 C3958 1.520 1_554 S
C3955 C3947 1.503 1_554 S
C3955 C3954 1.370 . S
C3955 C3956 1.403 . S
C3956 C3955 1.403 . S
C3956 C3957 1.404 . S
C3956 C3959 1.539 . S
C3957 C3953 1.408 . S
C3957 C3956 1.404 . S
C3957 H3969 0.930 . S
C3958 C3954 1.520 1_556 S
C3958 H3970 0.960 . S
C3958 H3971 0.965 . S
C3958 H3972 0.956 1_556 S
C3959 C3956 1.539 . S
C3959 H3973 0.958 . S
C3959 H3974 0.961 . S
C3959 H3975 0.960 1_554 S
H3960 C3944 0.931 . S
H3961 C3949 0.929 . S
H3962 C3950 0.960 . S
H3963 C3950 0.962 . S
H3964 C3950 0.960 . S
H3965 C3951 0.961 . S
H3966 C3951 0.961 . S
H3967 C3951 0.961 . S
H3968 C3952 0.931 . S
H3969 C3957 0.930 . S
H3970 C3958 0.960 . S
H3971 C3958 0.965 . S
H3972 C3958 0.956 1_554 S
H3973 C3959 0.958 . S
H3974 C3959 0.961 . S
H3975 C3959 0.960 1_556 S
C3976 C3977 1.391 . S
C3976 C3978 1.394 . S
C3976 H3992 0.931 . S
C3977 C3976 1.391 . S
C3977 C3981 1.376 . S
C3978 C3976 1.394 . S
C3978 C3979 1.369 . S
C3978 C3982 1.531 . S
C3979 C3978 1.369 . S
C3979 C3980 1.410 . S
C3979 C3987 1.503 1_556 S
C3980 C3979 1.410 . S
C3980 C3981 1.392 . S
C3980 C3983 1.511 . S
C3981 C3977 1.376 . S
C3981 C3980 1.392 . S
C3981 H3993 0.929 . S
C3982 C3978 1.531 . S
C3982 H3994 0.960 . S
C3982 H3995 0.962 . S
C3982 H3996 0.960 . S
C3983 C3980 1.511 . S
C3983 H3997 0.961 . S
C3983 H3998 0.961 . S
C3983 H3999 0.961 . S
C3984 C3985 1.370 . S
C3984 C3986 1.363 . S
C3984 H4000 0.931 . S
C3985 C3984 1.370 . S
C3985 C3989 1.408 . S
C3986 C3984 1.363 . S
C3986 C3987 1.370 . S
C3986 C3990 1.524 1_554 S
C3987 C3979 1.503 1_554 S
C3987 C3986 1.370 . S
C3987 C3988 1.403 . S
C3988 C3987 1.403 . S
C3988 C3989 1.404 . S
C3988 C3991 1.539 . S
C3989 C3985 1.408 . S
C3989 C3988 1.404 . S
C3989 H4001 0.930 . S
C3990 C3986 1.524 1_556 S
C3990 H4002 0.956 . S
C3990 H4003 0.961 . S
C3990 H4004 0.961 1_556 S
C3991 C3988 1.539 . S
C3991 H4005 0.958 . S
C3991 H4006 0.961 . S
C3991 H4007 0.960 1_554 S
H3992 C3976 0.931 . S
H3993 C3981 0.929 . S
H3994 C3982 0.960 . S
H3995 C3982 0.962 . S
H3996 C3982 0.960 . S
H3997 C3983 0.961 . S
H3998 C3983 0.961 . S
H3999 C3983 0.961 . S
H4000 C3984 0.931 . S
H4001 C3989 0.930 . S
H4002 C3990 0.956 . S
H4003 C3990 0.961 . S
H4004 C3990 0.961 1_554 S
H4005 C3991 0.958 . S
H4006 C3991 0.961 . S
H4007 C3991 0.960 1_556 S
C4008 C4009 1.391 . S
C4008 C4010 1.394 . S
C4008 H4024 0.931 . S
C4009 C4008 1.391 . S
C4009 C4013 1.376 . S
C4010 C4008 1.394 . S
C4010 C4011 1.369 . S
C4010 C4014 1.531 . S
C4011 C4010 1.369 . S
C4011 C4012 1.410 . S
C4011 C4019 1.503 . S
C4012 C4011 1.410 . S
C4012 C4013 1.392 . S
C4012 C4015 1.511 . S
C4013 C4009 1.376 . S
C4013 C4012 1.392 . S
C4013 H4025 0.929 . S
C4014 C4010 1.531 . S
C4014 H4026 0.960 . S
C4014 H4027 0.962 . S
C4014 H4028 0.960 . S
C4015 C4012 1.511 . S
C4015 H4029 0.961 . S
C4015 H4030 0.961 . S
C4015 H4031 0.961 . S
C4016 C4017 1.370 . S
C4016 C4018 1.363 . S
C4016 H4032 0.931 . S
C4017 C4016 1.370 . S
C4017 C4021 1.408 . S
C4018 C4016 1.363 . S
C4018 C4019 1.370 . S
C4018 C4022 1.524 . S
C4019 C4011 1.503 . S
C4019 C4018 1.370 . S
C4019 C4020 1.403 . S
C4020 C4019 1.403 . S
C4020 C4021 1.404 . S
C4020 C4023 1.539 . S
C4021 C4017 1.408 . S
C4021 C4020 1.404 . S
C4021 H4033 0.930 . S
C4022 C4018 1.524 . S
C4022 H4034 0.956 . S
C4022 H4035 0.961 . S
C4022 H4036 0.961 . S
C4023 C4020 1.539 . S
C4023 H4037 0.958 . S
C4023 H4038 0.961 . S
C4023 H4039 0.960 . S
H4024 C4008 0.931 . S
H4025 C4013 0.929 . S
H4026 C4014 0.960 . S
H4027 C4014 0.962 . S
H4028 C4014 0.960 . S
H4029 C4015 0.961 . S
H4030 C4015 0.961 . S
H4031 C4015 0.961 . S
H4032 C4016 0.931 . S
H4033 C4021 0.930 . S
H4034 C4022 0.956 . S
H4035 C4022 0.961 . S
H4036 C4022 0.961 . S
H4037 C4023 0.958 . S
H4038 C4023 0.961 . S
H4039 C4023 0.960 . S
C4040 C4041 1.391 . S
C4040 C4042 1.394 . S
C4040 H4056 0.931 . S
C4041 C4040 1.391 . S
C4041 C4045 1.376 . S
C4042 C4040 1.394 . S
C4042 C4043 1.369 . S
C4042 C4046 1.531 . S
C4043 C4042 1.369 . S
C4043 C4044 1.410 . S
C4043 C4051 1.503 . S
C4044 C4043 1.410 . S
C4044 C4045 1.392 . S
C4044 C4047 1.511 . S
C4045 C4041 1.376 . S
C4045 C4044 1.392 . S
C4045 H4057 0.929 . S
C4046 C4042 1.531 . S
C4046 H4058 0.960 . S
C4046 H4059 0.962 . S
C4046 H4060 0.960 . S
C4047 C4044 1.511 . S
C4047 H4061 0.961 . S
C4047 H4062 0.961 . S
C4047 H4063 0.961 . S
C4048 C4049 1.370 . S
C4048 C4050 1.363 . S
C4048 H4064 0.931 . S
C4049 C4048 1.370 . S
C4049 C4053 1.408 . S
C4050 C4048 1.363 . S
C4050 C4051 1.370 . S
C4050 C4054 1.524 . S
C4051 C4043 1.503 . S
C4051 C4050 1.370 . S
C4051 C4052 1.403 . S
C4052 C4051 1.403 . S
C4052 C4053 1.404 . S
C4052 C4055 1.539 . S
C4053 C4049 1.408 . S
C4053 C4052 1.404 . S
C4053 H4065 0.930 . S
C4054 C4050 1.524 . S
C4054 H4066 0.956 . S
C4054 H4067 0.961 . S
C4054 H4068 0.961 . S
C4055 C4052 1.539 . S
C4055 H4069 0.958 . S
C4055 H4070 0.961 . S
C4055 H4071 0.960 . S
H4056 C4040 0.931 . S
H4057 C4045 0.929 . S
H4058 C4046 0.960 . S
H4059 C4046 0.962 . S
H4060 C4046 0.960 . S
H4061 C4047 0.961 . S
H4062 C4047 0.961 . S
H4063 C4047 0.961 . S
H4064 C4048 0.931 . S
H4065 C4053 0.930 . S
H4066 C4054 0.956 . S
H4067 C4054 0.961 . S
H4068 C4054 0.961 . S
H4069 C4055 0.958 . S
H4070 C4055 0.961 . S
H4071 C4055 0.960 . S
C4072 C4073 1.391 . S
C4072 C4074 1.394 . S
C4072 H4088 0.931 . S
C4073 C4072 1.391 . S
C4073 C4077 1.376 . S
C4074 C4072 1.394 . S
C4074 C4075 1.369 . S
C4074 C4078 1.531 . S
C4075 C4074 1.369 . S
C4075 C4076 1.410 . S
C4075 C4083 1.503 . S
C4076 C4075 1.410 . S
C4076 C4077 1.392 . S
C4076 C4079 1.511 . S
C4077 C4073 1.376 . S
C4077 C4076 1.392 . S
C4077 H4089 0.929 . S
C4078 C4074 1.531 . S
C4078 H4090 0.960 . S
C4078 H4091 0.962 . S
C4078 H4092 0.960 . S
C4079 C4076 1.511 . S
C4079 H4093 0.961 . S
C4079 H4094 0.961 . S
C4079 H4095 0.961 . S
C4080 C4081 1.370 . S
C4080 C4082 1.363 . S
C4080 H4096 0.931 . S
C4081 C4080 1.370 . S
C4081 C4085 1.408 . S
C4082 C4080 1.363 . S
C4082 C4083 1.370 . S
C4082 C4086 1.524 . S
C4083 C4075 1.503 . S
C4083 C4082 1.370 . S
C4083 C4084 1.403 . S
C4084 C4083 1.403 . S
C4084 C4085 1.404 . S
C4084 C4087 1.539 . S
C4085 C4081 1.408 . S
C4085 C4084 1.404 . S
C4085 H4097 0.930 . S
C4086 C4082 1.524 . S
C4086 H4098 0.956 . S
C4086 H4099 0.961 . S
C4086 H4100 0.961 . S
C4087 C4084 1.539 . S
C4087 H4101 0.958 . S
C4087 H4102 0.961 . S
C4087 H4103 0.960 . S
H4088 C4072 0.931 . S
H4089 C4077 0.929 . S
H4090 C4078 0.960 . S
H4091 C4078 0.962 . S
H4092 C4078 0.960 . S
H4093 C4079 0.961 . S
H4094 C4079 0.961 . S
H4095 C4079 0.961 . S
H4096 C4080 0.931 . S
H4097 C4085 0.930 . S
H4098 C4086 0.956 . S
H4099 C4086 0.961 . S
H4100 C4086 0.961 . S
H4101 C4087 0.958 . S
H4102 C4087 0.961 . S
H4103 C4087 0.960 . S
C1225 C20 1.499 . S
C1233 C530 1.494 . S
C1257 C564 1.491 . S
C1265 C54 1.499 . S
C1289 C598 1.488 . S
C1297 C88 1.496 . S
C1321 C836 1.500 . S
C1329 C122 1.495 . S
C1353 C156 1.497 . S
C1361 C870 1.493 . S
C1385 C904 1.500 . S
C1393 C190 1.495 . S
C1417 C1142 1.499 . S
C1425 C224 1.494 . S
C1449 C258 1.500 . S
C1457 C1176 1.496 . S
C1481 C1210 1.498 . S
C1489 C292 1.497 . S
C1513 C632 1.500 . S
C1521 C326 1.494 . S
C1545 C666 1.485 . S
C1553 C360 1.498 . S
C1577 C700 1.499 . S
C1585 C394 1.497 . S
C1609 C938 1.486 . S
C1617 C428 1.499 . S
C1641 C972 1.488 . S
C1649 C462 1.500 . S
C1673 C496 1.486 . S
C1681 C1006 1.498 . S
C1705 C734 1.499 . S
C1713 C1040 1.494 . S
C1737 C1074 1.500 . S
C1745 C768 1.496 . S
C1769 C802 1.490 . S
C1777 C1108 1.494 . S
C1801 C1019 1.483 . S
C1809 C33 1.488 . S
C1833 C67 1.479 . S
C1841 C951 1.490 . S
C1865 C985 1.482 . S
C1873 C101 1.494 . S
C1897 C475 1.494 . S
C1905 C135 1.489 . S
C1929 C509 1.478 . S
C1937 C169 1.492 . S
C1961 C441 1.485 . S
C1969 C203 1.493 . S
C1993 C237 1.480 . S
C2001 C815 1.488 . S
C2025 C747 1.490 . S
C2033 C271 1.493 . S
C2057 C305 1.488 . S
C2065 C781 1.487 . S
C2089 C1087 1.491 . S
C2097 C339 1.492 . S
C2121 C373 1.478 . S
C2129 C1121 1.490 . S
C2153 C407 1.481 . S
C2161 C1053 1.488 . S
C2185 C883 1.483 . S
C2193 C543 1.493 . S
C2217 C917 1.494 . S
C2225 C577 1.490 . S
C2249 C611 1.480 . S
C2257 C849 1.493 . S
C2281 C645 1.479 . S
C2289 C1223 1.489 . S
C2313 C1155 1.493 . S
C2321 C679 1.491 . S
C2345 C1189 1.478 . S
C2353 C713 1.492 . S
C2377 C2 1.475 . S
C2385 C376 1.482 . S
C2409 C36 1.483 . S
C2417 C308 1.486 . S
C2441 C70 1.479 . S
C2449 C342 1.484 . S
C2473 C104 1.477 . S
C2481 C240 1.483 . S
C2505 C274 1.485 . S
C2513 C138 1.486 . S
C2537 C206 1.486 . S
C2545 C172 1.486 . S
C2569 C784 1.485 . S
C2577 C410 1.487 . S
C2601 C716 1.485 . S
C2609 C444 1.486 . S
C2633 C478 1.475 . S
C2641 C750 1.482 . S
C2665 C648 1.480 . S
C2673 C512 1.485 . S
C2697 C682 1.486 . S
C2705 C546 1.487 . S
C2729 C614 1.483 . S
C2737 C580 1.486 . S
C2761 C1192 1.486 . S
C2769 C818 1.486 . S
C2793 C852 1.475 . S
C2801 C1124 1.482 . S
C2825 C1158 1.481 . S
C2833 C886 1.485 . S
C2857 C1056 1.480 . S
C2865 C920 1.484 . S
C2889 C1090 1.481 . S
C2897 C954 1.484 . S
C2921 C1022 1.475 . S
C2929 C988 1.482 . S
C2953 C9 1.303 . S
C2961 C5 1.394 . S
C2985 C39 1.383 . S
C2993 C43 1.351 . S
C3017 C77 1.329 . S
C3025 C73 1.395 . S
C3049 C107 1.391 . S
C3057 C111 1.327 . S
C3081 C141 1.383 . S
C3089 C145 1.353 . S
C3113 C175 1.383 . S
C3121 C179 1.341 . S
C3145 C209 1.392 . S
C3153 C213 1.351 . S
C3177 C243 1.384 . S
C3185 C247 1.335 . S
C3209 C281 1.372 . S
C3217 C277 1.392 . S
C3241 C315 1.373 . S
C3249 C311 1.392 . S
C3273 C345 1.387 . S
C3281 C349 1.356 . S
C3305 C383 1.321 . S
C3313 C379 1.390 . S
C3337 C413 1.393 . S
C3345 C417 1.344 . S
C3369 C447 1.383 . S
C3377 C451 1.351 . S
C3401 C481 1.394 . S
C3409 C485 1.329 . S
C3433 C515 1.388 . S
C3441 C519 1.329 . S
C3465 C549 1.394 . S
C3473 C553 1.331 . S
C3497 C587 1.372 . S
C3505 C583 1.391 . S
C3529 C617 1.387 . S
C3537 C621 1.355 . S
C3561 C655 1.305 . S
C3569 C651 1.393 . S
C3593 C689 1.329 . S
C3601 C685 1.390 . S
C3625 C723 1.372 . S
C3633 C719 1.391 . S
C3657 C753 1.387 . S
C3665 C757 1.328 . S
C3689 C787 1.386 . S
C3697 C791 1.329 . S
C3721 C825 1.355 . S
C3729 C821 1.394 . S
C3753 C859 1.359 . S
C3761 C855 1.393 . S
C3785 C889 1.394 . S
C3793 C893 1.343 . S
C3817 C923 1.390 . S
C3825 C927 1.352 . S
C3849 C961 1.351 . S
C3857 C957 1.394 . S
C3881 C991 1.383 . S
C3889 C995 1.344 . S
C3913 C1029 1.332 . S
C3921 C1025 1.390 . S
C3945 C1063 1.318 . S
C3953 C1059 1.395 . S
C3977 C1097 1.303 . S
C3985 C1093 1.393 . S
C4009 C1127 1.394 . S
C4017 C1131 1.333 . S
C4041 C1165 1.309 . S
C4049 C1161 1.394 . S
C4073 C1195 1.386 . S
C4081 C1199 1.355 . S
