# Generated by pormake.
# Topology gan, (5)-cn, num edge types: 1
# Building blocks:
#     Node 0, Type 0, BuildingBlock: XOMCOT_clean_sbu_0, # of connection points: 5
#     Node 1, Type 0, BuildingBlock: XOMCOT_clean_sbu_0, # of connection points: 5
#     Node 2, Type 0, BuildingBlock: XOMCOT_clean_sbu_0, # of connection points: 5
#     Node 3, Type 0, BuildingBlock: XOMCOT_clean_sbu_0, # of connection points: 5
#     Node 4, Type 0, BuildingBlock: XOMCOT_clean_sbu_0, # of connection points: 5
#     Node 5, Type 0, BuildingBlock: XOMCOT_clean_sbu_0, # of connection points: 5
#     Node 6, Type 0, BuildingBlock: XOMCOT_clean_sbu_0, # of connection points: 5
#     Node 7, Type 0, BuildingBlock: XOMCOT_clean_sbu_0, # of connection points: 5
#     Node 8, Type 0, BuildingBlock: XOMCOT_clean_sbu_0, # of connection points: 5
#     Node 9, Type 0, BuildingBlock: XOMCOT_clean_sbu_0, # of connection points: 5
#     Node 10, Type 0, BuildingBlock: XOMCOT_clean_sbu_0, # of connection points: 5
#     Node 11, Type 0, BuildingBlock: XOMCOT_clean_sbu_0, # of connection points: 5
#     Node 12, Type 0, BuildingBlock: XOMCOT_clean_sbu_0, # of connection points: 5
#     Node 13, Type 0, BuildingBlock: XOMCOT_clean_sbu_0, # of connection points: 5
#     Node 14, Type 0, BuildingBlock: XOMCOT_clean_sbu_0, # of connection points: 5
#     Node 15, Type 0, BuildingBlock: XOMCOT_clean_sbu_0, # of connection points: 5
#     Edge 16, Type (0, 0), BuildingBlock: KIFKEQ_clean_linker_1, # of connection points: 2
#     Edge 17, Type (0, 0), BuildingBlock: KIFKEQ_clean_linker_1, # of connection points: 2
#     Edge 18, Type (0, 0), BuildingBlock: KIFKEQ_clean_linker_1, # of connection points: 2
#     Edge 19, Type (0, 0), BuildingBlock: KIFKEQ_clean_linker_1, # of connection points: 2
#     Edge 20, Type (0, 0), BuildingBlock: KIFKEQ_clean_linker_1, # of connection points: 2
#     Edge 21, Type (0, 0), BuildingBlock: KIFKEQ_clean_linker_1, # of connection points: 2
#     Edge 22, Type (0, 0), BuildingBlock: KIFKEQ_clean_linker_1, # of connection points: 2
#     Edge 23, Type (0, 0), BuildingBlock: KIFKEQ_clean_linker_1, # of connection points: 2
#     Edge 24, Type (0, 0), BuildingBlock: KIFKEQ_clean_linker_1, # of connection points: 2
#     Edge 25, Type (0, 0), BuildingBlock: KIFKEQ_clean_linker_1, # of connection points: 2
#     Edge 26, Type (0, 0), BuildingBlock: KIFKEQ_clean_linker_1, # of connection points: 2
#     Edge 27, Type (0, 0), BuildingBlock: KIFKEQ_clean_linker_1, # of connection points: 2
#     Edge 28, Type (0, 0), BuildingBlock: KIFKEQ_clean_linker_1, # of connection points: 2
#     Edge 29, Type (0, 0), BuildingBlock: KIFKEQ_clean_linker_1, # of connection points: 2
#     Edge 30, Type (0, 0), BuildingBlock: KIFKEQ_clean_linker_1, # of connection points: 2
#     Edge 31, Type (0, 0), BuildingBlock: KIFKEQ_clean_linker_1, # of connection points: 2
#     Edge 32, Type (0, 0), BuildingBlock: KIFKEQ_clean_linker_1, # of connection points: 2
#     Edge 33, Type (0, 0), BuildingBlock: KIFKEQ_clean_linker_1, # of connection points: 2
#     Edge 34, Type (0, 0), BuildingBlock: KIFKEQ_clean_linker_1, # of connection points: 2
#     Edge 35, Type (0, 0), BuildingBlock: KIFKEQ_clean_linker_1, # of connection points: 2
#     Edge 36, Type (0, 0), BuildingBlock: KIFKEQ_clean_linker_1, # of connection points: 2
#     Edge 37, Type (0, 0), BuildingBlock: KIFKEQ_clean_linker_1, # of connection points: 2
#     Edge 38, Type (0, 0), BuildingBlock: KIFKEQ_clean_linker_1, # of connection points: 2
#     Edge 39, Type (0, 0), BuildingBlock: KIFKEQ_clean_linker_1, # of connection points: 2
#     Edge 40, Type (0, 0), BuildingBlock: KIFKEQ_clean_linker_1, # of connection points: 2
#     Edge 41, Type (0, 0), BuildingBlock: KIFKEQ_clean_linker_1, # of connection points: 2
#     Edge 42, Type (0, 0), BuildingBlock: KIFKEQ_clean_linker_1, # of connection points: 2
#     Edge 43, Type (0, 0), BuildingBlock: KIFKEQ_clean_linker_1, # of connection points: 2
#     Edge 44, Type (0, 0), BuildingBlock: KIFKEQ_clean_linker_1, # of connection points: 2
#     Edge 45, Type (0, 0), BuildingBlock: KIFKEQ_clean_linker_1, # of connection points: 2
#     Edge 46, Type (0, 0), BuildingBlock: KIFKEQ_clean_linker_1, # of connection points: 2
#     Edge 47, Type (0, 0), BuildingBlock: KIFKEQ_clean_linker_1, # of connection points: 2
#     Edge 48, Type (0, 0), BuildingBlock: KIFKEQ_clean_linker_1, # of connection points: 2
#     Edge 49, Type (0, 0), BuildingBlock: KIFKEQ_clean_linker_1, # of connection points: 2
#     Edge 50, Type (0, 0), BuildingBlock: KIFKEQ_clean_linker_1, # of connection points: 2
#     Edge 51, Type (0, 0), BuildingBlock: KIFKEQ_clean_linker_1, # of connection points: 2
#     Edge 52, Type (0, 0), BuildingBlock: KIFKEQ_clean_linker_1, # of connection points: 2
#     Edge 53, Type (0, 0), BuildingBlock: KIFKEQ_clean_linker_1, # of connection points: 2
#     Edge 54, Type (0, 0), BuildingBlock: KIFKEQ_clean_linker_1, # of connection points: 2
#     Edge 55, Type (0, 0), BuildingBlock: KIFKEQ_clean_linker_1, # of connection points: 2
# Relax obj value: 0.093
# Max RMSD: 0.110
# Mean RMSD: 0.099
data_MOF--net-gan--node1-XOMCOT_clean_sbu_0--edge1-KIFKEQ_clean_linker_1
_symmetry_space_group_name_H-M    P1
_symmetry_Int_Tables_number       1
_symmetry_cell_setting            triclinic
loop_
_symmetry_equiv_pos_as_xyz
'x, y, z'
_cell_length_a     42.335552
_cell_length_b     43.048058
_cell_length_c     42.186283
_cell_angle_alpha  90.845951
_cell_angle_beta   90.781861
_cell_angle_gamma 90.963521
loop_
_atom_site_label
_atom_site_type_symbol
_atom_site_fract_x
_atom_site_fract_y
_atom_site_fract_z
_atom_type_partial_charge
Co0 Co 0.09395 0.14421 0.08863 0.0
C1 C 0.13552 0.184 0.13177 0.0
C2 C 0.15611 0.17632 0.08618 0.0
C3 C 0.17665 0.19443 0.10449 0.0
N4 N 0.13036 0.16956 0.10324 0.0
N5 N 0.16387 0.1994 0.1333 0.0
H6 H 0.11885 0.18312 0.15096 0.0
H7 H 0.15987 0.16842 0.06209 0.0
C8 C 0.1293 0.08802 0.06634 0.0
O9 O 0.11301 0.06997 0.08517 0.0
N10 N 0.0567 0.11942 0.07342 0.0
C11 C 0.02651 0.125 0.08147 0.0
C12 C 1.00654 0.10395 0.06643 0.0
C13 C 0.05404 0.09535 0.05207 0.0
N14 N 1.02367 0.08496 0.04803 0.0
C15 C 0.07213 0.11495 0.14508 0.0
C16 C 0.13085 0.09589 0.16577 0.0
C17 C 0.10444 0.09033 0.18451 0.0
C18 C 0.07476 0.09978 0.17389 0.0
C19 C 0.1271 0.1107 0.13691 0.0
N20 N 0.09791 0.1196 0.12657 0.0
H21 H 0.04954 0.124 0.13843 0.0
H22 H 0.14784 0.11545 0.12302 0.0
H23 H 1.019 0.14336 0.09725 0.0
H24 H 0.07356 0.08576 0.03928 0.0
O25 O 0.06707 0.17579 0.10507 0.0
O26 O 0.08583 0.17417 0.0561 0.0
O27 O 0.12338 0.1169 0.06426 0.0
C28 C 0.06954 0.18873 0.07749 0.0
H29 H 0.19964 0.20268 0.09713 0.0
H30 H 0.98108 0.10327 0.06843 0.0
H31 H 0.15421 0.08904 0.17344 0.0
H32 H 0.05401 0.09658 0.18831 0.0
Co33 Co 0.15046 0.95373 0.43331 0.0
C34 C 0.10621 0.99645 0.46982 0.0
C35 C 0.15509 1.00922 0.47587 0.0
C36 C 0.13706 0.02978 0.49302 0.0
N37 N 0.13604 0.98808 0.4612 0.0
N38 N 0.10603 1.02218 0.48941 0.0
H39 H 0.0851 0.98413 0.46163 0.0
H40 H 0.18056 1.0098 0.47423 0.0
C41 C 0.20737 0.92728 0.46631 0.0
O42 O 0.1978 0.89891 0.4587 0.0
N43 N 0.16423 0.91923 0.40434 0.0
C44 C 0.14416 0.89852 0.39003 0.0
C45 C 0.16013 0.88018 0.36882 0.0
C46 C 0.19275 0.91298 0.39049 0.0
N47 N 0.1908 0.88882 0.36891 0.0
C48 C 0.09726 0.91555 0.44852 0.0
C49 C 0.1196 0.89426 0.50595 0.0
C50 C 0.09109 0.88232 0.49346 0.0
C51 C 0.07936 0.89402 0.46503 0.0
C52 C 0.13637 0.91663 0.48898 0.0
N53 N 0.12643 0.92506 0.45936 0.0
H54 H 0.08767 0.92409 0.4266 0.0
H55 H 0.15714 0.92699 0.49997 0.0
H56 H 0.11901 0.89743 0.39323 0.0
H57 H 0.21414 0.92646 0.39525 0.0
O58 O 0.11815 0.96417 0.40282 0.0
O59 O 0.16728 0.9831 0.40406 0.0
O60 O 0.19031 0.95052 0.4596 0.0
C61 C 0.13957 0.98209 0.39045 0.0
H62 H 0.14658 0.04881 0.50738 0.0
H63 H 0.14966 0.86215 0.35368 0.0
H64 H 0.12877 0.88635 0.52847 0.0
H65 H 0.05708 0.88561 0.45494 0.0
Co66 Co 0.47228 0.9268 0.60548 0.0
C67 C 0.4327 0.88115 0.64634 0.0
C68 C 0.43113 0.87111 0.59655 0.0
C69 C 0.41274 0.84937 0.61169 0.0
N70 N 0.4444 0.89115 0.61794 0.0
N71 N 0.41354 0.85531 0.64317 0.0
H72 H 0.43771 0.89234 0.66892 0.0
H73 H 0.43407 0.87237 0.57119 0.0
C74 C 0.42582 0.9484 0.55926 0.0
O75 O 0.4465 0.9411 0.53765 0.0
N76 N 0.50006 0.9623 0.59247 0.0
C77 C 0.51665 0.98085 0.61297 0.0
C78 C 0.53433 1.00222 0.59664 0.0
C79 C 0.50932 0.97259 0.56326 0.0
N80 N 0.52995 0.99745 0.56523 0.0
C81 C 0.48333 0.93316 0.67197 0.0
C82 C 0.4488 0.98617 0.68231 0.0
C83 C 0.46472 0.97274 0.70801 0.0
C84 C 0.48219 0.94598 0.70239 0.0
C85 C 0.45031 0.97236 0.65202 0.0
N86 N 0.46723 0.94596 0.64725 0.0
H87 H 0.49684 0.91241 0.66852 0.0
H88 H 0.43848 0.98339 0.63248 0.0
H89 H 0.51676 0.97888 0.63844 0.0
H90 H 0.50149 0.96215 0.54103 0.0
O91 O 0.50938 0.90303 0.6144 0.0
O92 O 0.48449 0.90332 0.56805 0.0
O93 O 0.43324 0.94684 0.58857 0.0
C94 C 0.50694 0.89221 0.58561 0.0
H95 H 0.39903 0.83098 0.60003 0.0
H96 H 0.54998 1.01968 0.60732 0.0
H97 H 0.43513 1.00698 0.68563 0.0
H98 H 0.49527 0.9351 0.72136 0.0
Co99 Co 0.39583 0.0892 0.96897 0.0
C100 C 0.36026 0.13794 0.92922 0.0
C101 C 0.36695 0.09429 0.90536 0.0
C102 C 0.34962 0.11308 0.88583 0.0
N103 N 0.37398 0.10948 0.93276 0.0
N104 N 0.34503 0.14069 0.90048 0.0
H105 H 0.36066 0.15583 0.94752 0.0
H106 H 0.37336 0.07059 0.90004 0.0
C107 C 0.4501 0.066 0.92793 0.0
O108 O 0.47189 0.08348 0.94214 0.0
N109 N 0.41698 0.06771 1.00555 0.0
C110 C 0.40556 0.06784 0.03538 0.0
C111 C 0.42537 0.05227 0.05539 0.0
C112 C 0.44417 0.05077 1.00846 0.0
N113 N 0.44995 0.04139 0.03896 0.0
C114 C 0.43175 0.13587 1.00235 0.0
C115 C 0.45609 0.16511 0.94997 0.0
C116 C 0.46315 0.17729 0.98033 0.0
C117 C 0.45088 0.16222 1.0067 0.0
C118 C 0.43702 0.13842 0.94669 0.0
N119 N 0.42555 0.12384 0.97277 0.0
H120 H 0.42097 0.12584 1.02287 0.0
H121 H 0.43135 0.12954 0.92315 0.0
H122 H 0.38433 0.07914 0.04294 0.0
H123 H 0.45967 0.04567 0.98904 0.0
O124 O 0.3637 0.10492 0.99652 0.0
O125 O 0.36127 0.05969 0.97027 0.0
O126 O 0.42166 0.06559 0.93748 0.0
C127 C 0.34785 0.07955 0.98909 0.0
H128 H 0.34093 0.10666 0.86234 0.0
H129 H 0.42169 0.049 0.08048 0.0
H130 H 0.46498 0.17626 0.92896 0.0
H131 H 0.45491 0.17147 0.03046 0.0
Co132 Co 0.63171 0.45284 0.91491 0.0
C133 C 0.58903 0.49254 0.95686 0.0
C134 C 0.63719 0.50876 0.95632 0.0
C135 C 0.61995 0.52878 0.97488 0.0
N136 N 0.6181 0.48585 0.9448 0.0
N137 N 0.58946 0.51897 0.97539 0.0
H138 H 0.56794 0.47877 0.95158 0.0
H139 H 0.66208 0.51106 0.95123 0.0
C140 C 0.68939 0.42739 0.94783 0.0
O141 O 0.67892 0.39877 0.94302 0.0
N142 N 0.64514 0.41975 0.8839 0.0
C143 C 0.62476 0.40368 0.86468 0.0
C144 C 0.64076 0.38344 0.84551 0.0
C145 C 0.67418 0.40934 0.87435 0.0
N146 N 0.67202 0.38637 0.85141 0.0
C147 C 0.58363 0.40859 0.92906 0.0
C148 C 0.60456 0.39321 0.98904 0.0
C149 C 0.57838 0.37741 0.97559 0.0
C150 C 0.56745 0.38596 0.94566 0.0
C151 C 0.61968 0.41656 0.97172 0.0
N152 N 0.61054 0.4223 0.94114 0.0
H153 H 0.57402 0.41519 0.90651 0.0
H154 H 0.63867 0.42983 0.98296 0.0
H155 H 0.59964 0.40707 0.86326 0.0
H156 H 0.69643 0.41831 0.88381 0.0
O157 O 0.59675 0.46273 0.88749 0.0
O158 O 0.64473 0.48402 0.8852 0.0
O159 O 0.67309 0.4504 0.93881 0.0
C160 C 0.61596 0.48209 0.87396 0.0
H161 H 0.62948 0.54912 0.98726 0.0
H162 H 0.62994 0.36828 0.82762 0.0
H163 H 0.61302 0.38774 1.01262 0.0
H164 H 0.5469 0.37465 0.93472 0.0
Co165 Co 0.95017 0.43606 0.09448 0.0
C166 C 0.91651 0.3913 0.14096 0.0
C167 C 0.90639 0.38288 0.09166 0.0
C168 C 0.88833 0.36275 0.10904 0.0
N169 N 0.92431 0.4011 0.1112 0.0
N170 N 0.89409 0.36788 0.14025 0.0
H171 H 0.92608 0.4017 0.16261 0.0
H172 H 0.90573 0.38469 0.06612 0.0
C173 C 0.90475 0.45788 0.04818 0.0
O174 O 0.92808 0.45589 0.02808 0.0
N175 N 0.97478 0.4715 0.07679 0.0
C176 C 0.96749 0.50143 0.08243 0.0
C177 C 0.98779 0.52068 0.06635 0.0
C178 C 0.99963 0.47331 0.0563 0.0
N179 N 1.00825 0.50334 0.04975 0.0
C180 C 0.97459 0.46586 0.14975 0.0
C181 C 0.9178 0.48144 0.17686 0.0
C182 C 0.94619 0.48908 0.19306 0.0
C183 C 0.97477 0.48106 0.17904 0.0
C184 C 0.91868 0.46621 0.14729 0.0
N185 N 0.94691 0.45855 0.13431 0.0
H186 H 0.99689 0.45998 0.13926 0.0
H187 H 0.89675 0.46005 0.13517 0.0
H188 H 0.94817 0.50895 0.09702 0.0
H189 H 1.01118 0.45324 0.04638 0.0
O190 O 0.98819 0.41416 0.10381 0.0
O191 O 0.96099 0.40997 0.0586 0.0
O192 O 0.91002 0.45363 0.07758 0.0
C193 C 0.9846 0.40097 0.07608 0.0
H194 H 0.87188 0.3456 0.09913 0.0
H195 H 0.98691 0.54579 0.06628 0.0
H196 H 0.8952 0.48734 0.18682 0.0
H197 H 0.99722 0.48604 0.19082 0.0
Co198 Co 0.90807 0.59678 0.46718 0.0
C199 C 0.86728 0.64272 0.42713 0.0
C200 C 0.86408 0.595 0.4125 0.0
C201 C 0.84542 0.61212 0.39253 0.0
N202 N 0.87823 0.61372 0.43453 0.0
N203 N 0.84722 0.64236 0.40132 0.0
H204 H 0.87418 0.66389 0.43944 0.0
H205 H 0.86741 0.57019 0.4107 0.0
C206 C 0.94113 0.59625 0.40652 0.0
O207 O 0.93477 0.62599 0.4053 0.0
N208 N 0.93691 0.57955 0.49996 0.0
C209 C 0.94364 0.59494 0.52737 0.0
C210 C 0.96383 0.57789 0.5457 0.0
C211 C 0.95304 0.55229 0.50269 0.0
N212 N 0.97005 0.55093 0.53058 0.0
C213 C 0.91627 0.66058 0.48467 0.0
C214 C 0.98081 0.66362 0.4758 0.0
C215 C 0.96548 0.6895 0.48842 0.0
C216 C 0.93281 0.68784 0.49272 0.0
C217 C 0.96326 0.63689 0.46767 0.0
N218 N 0.93124 0.63589 0.47138 0.0
H219 H 0.89146 0.65897 0.49012 0.0
H220 H 0.9756 0.61655 0.4596 0.0
H221 H 0.93429 0.61734 0.53383 0.0
H222 H 0.95259 0.5341 0.4847 0.0
O223 O 0.87748 0.60374 0.49948 0.0
O224 O 0.88089 0.56053 0.47038 0.0
O225 O 0.93517 0.58114 0.43169 0.0
C226 C 0.86665 0.57599 0.49258 0.0
H227 H 0.8313 0.60264 0.37301 0.0
H228 H 0.9729 0.58469 0.56895 0.0
H229 H 1.00615 0.66395 0.47249 0.0
H230 H 0.92029 0.70707 0.50325 0.0
Co231 Co 0.84001 0.87254 0.86522 0.0
C232 C 0.89224 0.91031 0.89906 0.0
C233 C 0.87143 0.93416 0.85999 0.0
C234 C 0.89357 0.95349 0.8742 0.0
N235 N 0.87059 0.90665 0.87498 0.0
N236 N 0.90677 0.93879 0.89886 0.0
H237 H 0.89688 0.89286 0.91665 0.0
H238 H 0.85627 0.94076 0.84064 0.0
C239 C 0.8345 0.89314 0.79634 0.0
O240 O 0.84992 0.86944 0.78475 0.0
N241 N 0.80796 0.8395 0.8555 0.0
C242 C 0.79324 0.82134 0.87684 0.0
C243 C 0.77213 0.80156 0.86144 0.0
C244 C 0.79516 0.82999 0.82708 0.0
N245 N 0.77309 0.8069 0.83007 0.0
C246 C 0.87292 0.81717 0.8516 0.0
C247 C 0.9229 0.84333 0.81945 0.0
C248 C 0.92317 0.81145 0.82597 0.0
C249 C 0.89741 0.79841 0.84173 0.0
C250 C 0.89762 0.86139 0.82962 0.0
N251 N 0.87278 0.84816 0.84521 0.0
H252 H 0.85469 0.80676 0.86573 0.0
H253 H 0.89823 0.88601 0.82512 0.0
H254 H 0.79763 0.82171 0.9021 0.0
H255 H 0.80148 0.83977 0.80464 0.0
O256 O 0.84609 0.85744 0.90745 0.0
O257 O 0.8106 0.89235 0.89312 0.0
O258 O 0.82732 0.89463 0.82558 0.0
C259 C 0.82386 0.8764 0.91555 0.0
H260 H 0.89845 0.97732 0.86773 0.0
H261 H 0.75765 0.78405 0.87265 0.0
H262 H 0.94259 0.85448 0.80777 0.0
H263 H 0.89655 0.77393 0.8473 0.0
Co264 Co 0.8741 0.19867 0.65714 0.0
C265 C 0.83092 0.23631 0.7023 0.0
C266 C 0.87436 0.259 0.68985 0.0
C267 C 0.85829 0.27824 0.71006 0.0
N268 N 0.85777 0.23237 0.68486 0.0
N269 N 0.83085 0.26438 0.7183 0.0
H270 H 0.81216 0.21901 0.70359 0.0
H271 H 0.89691 0.26427 0.67927 0.0
C272 C 0.94041 0.19018 0.68445 0.0
O273 O 0.93968 0.15994 0.67978 0.0
N274 N 0.89142 0.16553 0.62859 0.0
C275 C 0.87437 0.14145 0.61611 0.0
C276 C 0.89318 0.12323 0.59732 0.0
C277 C 0.92079 0.16171 0.61564 0.0
N278 N 0.92269 0.13552 0.59689 0.0
C279 C 0.83616 0.14926 0.68059 0.0
C280 C 0.87487 0.13261 0.73035 0.0
C281 C 0.85183 0.11138 0.71876 0.0
C282 C 0.83103 0.12094 0.69508 0.0
C283 C 0.87914 0.16109 0.71498 0.0
N284 N 0.86202 0.16742 0.68818 0.0
H285 H 0.82031 0.15512 0.66155 0.0
H286 H 0.89691 0.1772 0.72404 0.0
H287 H 0.8495 0.13732 0.6197 0.0
H288 H 0.94035 0.17785 0.61957 0.0
O289 O 0.83542 0.19826 0.63309 0.0
O290 O 0.87699 0.22771 0.62204 0.0
O291 O 0.91691 0.2069 0.67709 0.0
C292 C 0.84819 0.21866 0.61485 0.0
H293 H 0.86619 0.30123 0.71772 0.0
H294 H 0.8855 0.10207 0.58515 0.0
H295 H 0.89045 0.12663 0.74981 0.0
H296 H 0.81181 0.10591 0.68665 0.0
Co297 Co 0.7121 0.1821 0.35161 0.0
C298 C 0.75437 0.22226 0.30889 0.0
C299 C 0.77868 0.1849 0.33087 0.0
C300 C 0.79992 0.20177 0.31325 0.0
N301 N 0.74977 0.1973 0.32827 0.0
N302 N 0.78501 0.2256 0.29929 0.0
H303 H 0.73601 0.23819 0.30244 0.0
H304 H 0.78434 0.16501 0.34508 0.0
C305 C 0.7192 0.20883 0.41801 0.0
O306 O 0.68853 0.20685 0.42198 0.0
N307 N 0.67439 0.16633 0.37487 0.0
C308 C 0.64439 0.17564 0.37031 0.0
C309 C 0.62435 0.15906 0.3894 0.0
C310 C 0.67154 0.14309 0.3967 0.0
N311 N 0.64105 0.13846 0.40627 0.0
C312 C 0.6747 0.21815 0.3098 0.0
C313 C 0.66434 0.26799 0.34999 0.0
C314 C 0.64629 0.2649 0.32197 0.0
C315 C 0.65308 0.24054 0.30098 0.0
C316 C 0.68623 0.24518 0.35776 0.0
N317 N 0.68948 0.21937 0.33884 0.0
H318 H 0.67844 0.19915 0.29349 0.0
H319 H 0.69957 0.24836 0.37934 0.0
H320 H 0.63695 0.19322 0.35402 0.0
H321 H 0.69135 0.13019 0.40574 0.0
O322 O 0.69979 0.1551 0.31651 0.0
O323 O 0.73061 0.14146 0.35648 0.0
O324 O 0.73126 0.20194 0.39126 0.0
C325 C 0.71565 0.13352 0.33038 0.0
H326 H 0.82467 0.19649 0.31099 0.0
H327 H 0.599 0.16175 0.39037 0.0
H328 H 0.66047 0.28691 0.36662 0.0
H329 H 0.64072 0.23796 0.27842 0.0
Co330 Co 0.66763 0.8585 0.21988 0.0
C331 C 0.70384 0.81568 0.26552 0.0
C332 C 0.72433 0.86124 0.2616 0.0
C333 C 0.7432 0.84407 0.28133 0.0
N334 N 0.69915 0.84397 0.25171 0.0
N335 N 0.73063 0.8152 0.28417 0.0
H336 H 0.6883 0.79574 0.26176 0.0
H337 H 0.72942 0.88469 0.25411 0.0
C338 C 0.66789 0.91136 0.26474 0.0
O339 O 0.65814 0.89147 0.28596 0.0
N340 N 0.63724 0.87243 0.1867 0.0
C341 C 0.6329 0.85617 0.15941 0.0
C342 C 0.61243 0.87137 0.13976 0.0
C343 C 0.61907 0.89828 0.18264 0.0
N344 N 0.60321 0.89796 0.15394 0.0
C345 C 0.7159 0.8399 0.1775 0.0
C346 C 0.72684 0.89819 0.15279 0.0
C347 C 0.73999 0.87232 0.13764 0.0
C348 C 0.73514 0.84293 0.15103 0.0
C349 C 0.70697 0.89401 0.1784 0.0
N350 N 0.70121 0.86508 0.19002 0.0
H351 H 0.71128 0.81705 0.18681 0.0
H352 H 0.69488 0.91403 0.18744 0.0
H353 H 0.64466 0.83477 0.15361 0.0
H354 H 0.61756 0.91685 0.20009 0.0
O355 O 0.65637 0.81597 0.20944 0.0
O356 O 0.63299 0.84499 0.2458 0.0
O357 O 0.67261 0.90214 0.23641 0.0
C358 C 0.63417 0.81871 0.23025 0.0
H359 H 0.76535 0.85216 0.29183 0.0
H360 H 0.60562 0.86361 0.11609 0.0
H361 H 0.73057 0.92148 0.1441 0.0
H362 H 0.7445 0.82214 0.14023 0.0
Co363 Co 0.37467 0.69686 0.16239 0.0
C364 C 0.33548 0.73901 0.20714 0.0
C365 C 0.36788 0.76342 0.17749 0.0
C366 C 0.35215 0.78477 0.1958 0.0
N367 N 0.35751 0.73446 0.18391 0.0
N368 N 0.33158 0.76982 0.21466 0.0
H369 H 0.3223 0.72044 0.21812 0.0
H370 H 0.38607 0.76885 0.16059 0.0
C371 C 0.44137 0.69079 0.18843 0.0
O372 O 0.44142 0.66088 0.18192 0.0
N373 N 0.39209 0.65969 0.14012 0.0
C374 C 0.37918 0.63084 0.14023 0.0
C375 C 0.39628 0.61131 0.12107 0.0
C376 C 0.41701 0.657 0.11976 0.0
N377 N 0.42033 0.62739 0.10802 0.0
C378 C 0.32826 0.66095 0.19407 0.0
C379 C 0.36828 0.63252 0.23635 0.0
C380 C 0.33852 0.61908 0.22973 0.0
C381 C 0.31767 0.63476 0.20996 0.0
C382 C 0.37799 0.65885 0.2198 0.0
N383 N 0.35905 0.67092 0.19671 0.0
H384 H 0.31205 0.67166 0.17784 0.0
H385 H 0.40107 0.66827 0.225 0.0
H386 H 0.35836 0.62408 0.15303 0.0
H387 H 0.43237 0.67631 0.11371 0.0
O388 O 0.33799 0.69376 0.13516 0.0
O389 O 0.38153 0.72013 0.12371 0.0
O390 O 0.41653 0.70673 0.18394 0.0
C391 C 0.3533 0.71055 0.11512 0.0
H392 H 0.35598 0.80969 0.19552 0.0
H393 H 0.39139 0.58675 0.11737 0.0
H394 H 0.38472 0.62162 0.25246 0.0
H395 H 0.29397 0.62577 0.20529 0.0
Co396 Co 0.22654 0.66988 0.85541 0.0
C397 C 0.17896 0.6315 0.89446 0.0
C398 C 0.21876 0.60611 0.87787 0.0
C399 C 0.19981 0.58645 0.89496 0.0
N400 N 0.20595 0.63447 0.87707 0.0
N401 N 0.1744 0.60195 0.90549 0.0
H402 H 0.16298 0.65042 0.8987 0.0
H403 H 0.24089 0.60014 0.86706 0.0
C404 C 0.22667 0.63939 0.79015 0.0
O405 O 0.21297 0.6634 0.7773 0.0
N406 N 0.24871 0.70564 0.83423 0.0
C407 C 0.25224 0.73408 0.84808 0.0
C408 C 0.26924 0.75354 0.82917 0.0
C409 C 0.26545 0.70863 0.80663 0.0
N410 N 0.27769 0.73809 0.80277 0.0
C411 C 0.17721 0.71184 0.84143 0.0
C412 C 0.13523 0.66955 0.81349 0.0
C413 C 0.12669 0.70084 0.81616 0.0
C414 C 0.14812 0.72196 0.8305 0.0
C415 C 0.16496 0.66039 0.8246 0.0
N416 N 0.18592 0.68171 0.83757 0.0
H417 H 0.19219 0.72823 0.85414 0.0
H418 H 0.17102 0.63613 0.82305 0.0
H419 H 0.24321 0.74087 0.87091 0.0
H420 H 0.26887 0.68987 0.7898 0.0
O421 O 0.22487 0.69344 0.89444 0.0
O422 O 0.26451 0.66337 0.88031 0.0
O423 O 0.23554 0.64045 0.81918 0.0
C424 C 0.25249 0.68226 0.90116 0.0
H425 H 0.20507 0.56247 0.89976 0.0
H426 H 0.27554 0.77745 0.83497 0.0
H427 H 0.11905 0.65233 0.8032 0.0
H428 H 0.14196 0.746 0.83456 0.0
Co429 Co 0.1685 0.35435 0.71535 0.0
C430 C 0.2097 0.31425 0.75808 0.0
C431 C 0.19716 0.35757 0.77976 0.0
C432 C 0.21471 0.34085 0.80118 0.0
N433 N 0.19391 0.34122 0.7525 0.0
N434 N 0.22294 0.31334 0.78793 0.0
H435 H 0.21116 0.29562 0.74071 0.0
H436 H 0.18683 0.38 0.78416 0.0
C437 C 0.18584 0.42144 0.70507 0.0
O438 O 0.18656 0.41511 0.67452 0.0
N439 N 0.14193 0.36698 0.67811 0.0
C440 C 0.13684 0.34967 0.65158 0.0
C441 C 0.11663 0.36459 0.63133 0.0
C442 C 0.12297 0.39223 0.67357 0.0
N443 N 0.10757 0.39163 0.6447 0.0
C444 C 0.20527 0.32311 0.66876 0.0
C445 C 0.25381 0.36647 0.66609 0.0
C446 C 0.25076 0.34374 0.64201 0.0
C447 C 0.22734 0.32069 0.6448 0.0
C448 C 0.23134 0.36758 0.69011 0.0
N449 N 0.20539 0.34826 0.68883 0.0
H450 H 0.18715 0.30533 0.66997 0.0
H451 H 0.23422 0.38485 0.70875 0.0
H452 H 0.14623 0.327 0.64704 0.0
H453 H 0.12039 0.41059 0.69108 0.0
O454 O 0.151 0.313 0.7121 0.0
O455 O 0.13016 0.35155 0.73986 0.0
O456 O 0.17996 0.39971 0.72474 0.0
C457 C 0.12851 0.3227 0.73007 0.0
H458 H 0.22017 0.34852 0.82517 0.0
H459 H 0.10941 0.35581 0.60817 0.0
H460 H 0.27262 0.38382 0.66569 0.0
H461 H 0.22457 0.3021 0.62734 0.0
Co462 Co 0.58007 0.62784 0.61847 0.0
C463 C 0.53673 0.58653 0.57744 0.0
C464 C 0.51285 0.60937 0.61547 0.0
C465 C 0.4914 0.59046 0.59923 0.0
N466 N 0.54151 0.60678 0.60219 0.0
N467 N 0.50637 0.576 0.57531 0.0
H468 H 0.55491 0.57878 0.56171 0.0
H469 H 0.508 0.62357 0.63614 0.0
C470 C 0.56385 0.58038 0.66682 0.0
O471 O 0.5544 0.56141 0.64379 0.0
N472 N 0.61826 0.64942 0.63439 0.0
C473 C 0.64409 0.65481 0.61689 0.0
C474 C 0.66589 0.67166 0.6347 0.0
C475 C 0.62464 0.66369 0.66279 0.0
N476 N 0.65392 0.67735 0.66366 0.0
C477 C 0.61354 0.59479 0.57048 0.0
C478 C 0.64687 0.55722 0.61102 0.0
C479 C 0.65585 0.55845 0.5792 0.0
C480 C 0.63797 0.57683 0.55861 0.0
C481 C 0.62341 0.57663 0.62215 0.0
N482 N 0.60676 0.59504 0.60202 0.0
H483 H 0.6014 0.61012 0.55456 0.0
H484 H 0.62084 0.57831 0.64742 0.0
H485 H 0.64671 0.6476 0.59244 0.0
H486 H 0.60826 0.66413 0.68225 0.0
O487 O 0.57953 0.65539 0.5825 0.0
O488 O 0.55613 0.66396 0.62845 0.0
O489 O 0.57529 0.60719 0.66055 0.0
C490 C 0.56316 0.67383 0.60042 0.0
H491 H 0.4666 0.58767 0.60459 0.0
H492 H 0.68858 0.67993 0.62646 0.0
H493 H 0.6594 0.54315 0.62794 0.0
H494 H 0.64413 0.57936 0.53397 0.0
Co495 Co 0.33495 0.37266 0.36841 0.0
C496 C 0.37755 0.41452 0.4093 0.0
C497 C 0.33834 0.43821 0.38848 0.0
C498 C 0.35621 0.45938 0.4059 0.0
N499 N 0.35182 0.41012 0.38999 0.0
N500 N 0.38087 0.44467 0.41904 0.0
H501 H 0.39365 0.3963 0.41567 0.0
H502 H 0.31666 0.44305 0.37585 0.0
C503 C 0.32392 0.40143 0.30476 0.0
O504 O 0.34043 0.37974 0.29072 0.0
N505 N 0.31624 0.33519 0.34708 0.0
C506 C 0.31846 0.30576 0.35749 0.0
C507 C 0.30071 0.28603 0.33822 0.0
C508 C 0.29565 0.33262 0.32194 0.0
N509 N 0.28619 0.30274 0.3157 0.0
C510 C 0.38923 0.33941 0.34785 0.0
C511 C 0.42241 0.39016 0.32513 0.0
C512 C 0.43665 0.36111 0.32544 0.0
C513 C 0.41966 0.33551 0.33653 0.0
C514 C 0.39147 0.39293 0.33599 0.0
N515 N 0.37517 0.36768 0.34714 0.0
H516 H 0.37779 0.3199 0.35864 0.0
H517 H 0.38098 0.41564 0.33631 0.0
H518 H 0.33185 0.29875 0.37809 0.0
H519 H 0.28657 0.35215 0.30918 0.0
O520 O 0.3444 0.34943 0.40582 0.0
O521 O 0.29943 0.37378 0.39645 0.0
O522 O 0.31808 0.39996 0.33426 0.0
C523 C 0.31681 0.35774 0.41579 0.0
H524 H 0.3511 0.48377 0.40923 0.0
H525 H 0.29886 0.2611 0.34076 0.0
H526 H 0.43523 0.41051 0.31717 0.0
H527 H 0.43043 0.3129 0.3379 0.0
H528 H 0.14963 0.19605 0.19634 0.0
H529 H 0.21168 0.24269 0.13132 0.0
H530 H 0.17591 0.2234 0.24064 0.0
H531 H 0.23886 0.26865 0.17542 0.0
H532 H 0.27111 0.32936 0.25903 0.0
H533 H 0.23878 0.30683 0.21581 0.0
H534 H 0.22255 0.22463 0.27116 0.0
H535 H 0.25324 0.24767 0.31456 0.0
C536 C 0.16876 0.21214 0.19132 0.0
C537 C 0.17845 0.21668 0.15988 0.0
C538 C 0.18421 0.22769 0.21692 0.0
C539 C 0.20995 0.24833 0.21203 0.0
C540 C 0.21909 0.25334 0.18051 0.0
C541 C 0.20362 0.23792 0.15499 0.0
C542 C 0.26027 0.3067 0.2622 0.0
C543 C 0.26532 0.29043 0.29051 0.0
C544 C 0.24192 0.29349 0.23713 0.0
C545 C 0.22796 0.26356 0.2395 0.0
C546 C 0.23241 0.24775 0.26817 0.0
C547 C 0.25061 0.26094 0.29315 0.0
H548 H 0.98629 0.14072 0.6114 0.0
H549 H 0.921 0.09804 0.54398 0.0
H550 H 0.02991 0.11345 0.58598 0.0
H551 H 0.96408 0.07118 0.51861 0.0
H552 H 0.04365 1.00315 0.49455 0.0
H553 H 1.00048 0.0307 0.52004 0.0
H554 H 0.06395 0.10746 0.54285 0.0
H555 H 0.10664 0.08024 0.51773 0.0
C556 C 0.98113 0.12589 0.59097 0.0
C557 C 0.94959 0.12174 0.58024 0.0
C558 C 1.00633 0.11001 0.5762 0.0
C559 C 1.00113 0.08936 0.55 0.0
C560 C 0.96961 0.08593 0.539 0.0
C561 C 0.94457 0.10168 0.55369 0.0
C562 C 0.04853 0.02593 0.50482 0.0
C563 C 0.07942 0.0388 0.50385 0.0
C564 C 1.02348 0.04201 0.51959 0.0
C565 C 0.0281 0.07174 0.5341 0.0
C566 C 0.05893 0.08458 0.53285 0.0
C567 C 0.08383 0.06864 0.51809 0.0
H568 H 0.32252 0.71192 0.76405 0.0
H569 H 0.27502 0.79774 0.78326 0.0
H570 H 0.35707 0.73921 0.72657 0.0
H571 H 0.30898 0.82474 0.74651 0.0
H572 H 0.39237 0.87496 0.70135 0.0
H573 H 0.36049 0.84548 0.73895 0.0
H574 H 0.36277 0.76506 0.67684 0.0
H575 H 0.39512 0.79416 0.63994 0.0
C576 C 0.31908 0.73642 0.76008 0.0
C577 C 0.29593 0.75242 0.77728 0.0
C578 C 0.33907 0.7523 0.73858 0.0
C579 C 0.33664 0.78474 0.73356 0.0
C580 C 0.31269 0.80021 0.75005 0.0
C581 C 0.29286 0.78447 0.77123 0.0
C582 C 0.38641 0.85092 0.69581 0.0
C583 C 0.39637 0.83741 0.66708 0.0
C584 C 0.36767 0.83389 0.71735 0.0
C585 C 0.35832 0.80255 0.7112 0.0
C586 C 0.36923 0.78886 0.68292 0.0
C587 C 0.38771 0.80589 0.66137 0.0
H588 H 0.47639 0.0499 0.09759 0.0
H589 H 0.48239 0.99206 1.01383 0.0
H590 H 0.51343 1.01691 0.1254 0.0
H591 H 0.52035 0.95896 0.04154 0.0
H592 H 0.55666 0.88513 0.11016 0.0
H593 H 0.52353 0.9207 0.08142 0.0
H594 H 0.56526 0.99771 0.1345 0.0
H595 H 0.59913 0.9615 0.1635 0.0
C596 C 0.48588 0.03023 0.08484 0.0
C597 C 0.47587 1.02381 0.05323 0.0
C598 C 0.50754 1.01123 0.10093 0.0
C599 C 0.52019 0.98462 0.0863 0.0
C600 C 0.51101 0.97875 0.05421 0.0
C601 C 0.48941 0.99804 0.03795 0.0
C602 C 0.55929 0.90964 0.11574 0.0
C603 C 0.58137 0.92004 0.13926 0.0
C604 C 0.54005 0.93033 0.0989 0.0
C605 C 0.54155 0.96263 0.10476 0.0
C606 C 0.563 0.97314 0.12897 0.0
C607 C 0.58254 0.95227 0.14588 0.0
H608 H 0.31334 0.75173 0.27438 0.0
H609 H 0.30174 0.82445 0.20643 0.0
H610 H 0.28154 0.78145 0.31265 0.0
H611 H 0.27049 0.85383 0.24403 0.0
H612 H 0.18669 0.88419 0.3051 0.0
H613 H 0.21982 0.85458 0.26905 0.0
H614 H 0.28006 0.82989 0.34766 0.0
H615 H 0.24646 0.86013 0.38387 0.0
C616 C 0.30379 0.77381 0.26738 0.0
C617 C 0.31031 0.78538 0.23695 0.0
C618 C 0.28578 0.79117 0.28955 0.0
C619 C 0.2731 0.82047 0.2819 0.0
C620 C 0.27928 0.83151 0.25121 0.0
C621 C 0.29752 0.81453 0.22945 0.0
C622 C 0.20742 0.87307 0.31467 0.0
C623 C 0.21411 0.8754 0.34747 0.0
C624 C 0.22654 0.85582 0.29389 0.0
C625 C 0.25305 0.83942 0.30495 0.0
C626 C 0.25992 0.84182 0.3379 0.0
C627 C 0.24091 0.85966 0.35874 0.0
H628 H 0.54338 0.05915 0.56834 0.0
H629 H 0.55117 0.97948 0.50613 0.0
H630 H 0.57183 0.09105 0.53096 0.0
H631 H 0.57976 1.01202 0.46771 0.0
H632 H 0.65753 0.07833 0.42041 0.0
H633 H 0.63049 0.04267 0.45707 0.0
H634 H 0.56548 0.11513 0.48109 0.0
H635 H 0.59239 0.15015 0.44546 0.0
C636 C 0.55108 0.04831 0.54652 0.0
C637 C 0.54471 1.01643 0.54064 0.0
C638 C 0.5674 0.06686 0.52472 0.0
C639 C 0.57841 0.05456 0.49581 0.0
C640 C 0.57204 1.02258 0.48966 0.0
C641 C 0.55524 1.00388 0.51158 0.0
C642 C 0.63772 0.08668 0.43385 0.0
C643 C 0.62739 0.11741 0.42974 0.0
C644 C 0.62185 0.06606 0.45468 0.0
C645 C 0.59548 0.07565 0.47248 0.0
C646 C 0.5857 0.10653 0.46844 0.0
C647 C 0.60117 0.12679 0.44761 0.0
H648 H 0.29389 0.13576 0.86077 0.0
H649 H 0.35389 0.20393 0.90839 0.0
H650 H 0.26568 0.17656 0.83392 0.0
H651 H 0.32602 0.24539 0.88077 0.0
H652 H 0.25501 0.31657 0.84527 0.0
H653 H 0.28278 0.27632 0.8727 0.0
H654 H 0.26319 0.21289 0.79446 0.0
H655 H 0.23374 0.25319 0.76737 0.0
C656 C 0.30132 0.15958 0.86547 0.0
C657 C 0.32662 0.16611 0.88692 0.0
C658 C 0.28506 0.18332 0.84967 0.0
C659 C 0.29329 0.215 0.85427 0.0
C660 C 0.31827 0.22163 0.87635 0.0
C661 C 0.33449 0.19771 0.89243 0.0
C662 C 0.25606 0.29413 0.83362 0.0
C663 C 0.24118 0.28879 0.80366 0.0
C664 C 0.27272 0.2707 0.84957 0.0
C665 C 0.27573 0.24057 0.83645 0.0
C666 C 0.2613 0.23527 0.8062 0.0
C667 C 0.24442 0.25878 0.79023 0.0
H668 H 0.04921 0.05913 0.99468 0.0
H669 H 0.96927 0.05192 0.0567 0.0
H670 H 1.02554 1.01864 0.96019 0.0
H671 H 0.94509 1.01286 1.02182 0.0
H672 H 0.91148 0.93054 0.96284 0.0
H673 H 0.94384 0.96169 1.00057 0.0
H674 H 0.98399 1.01233 0.92271 0.0
H675 H 0.95279 0.98058 0.88552 0.0
C676 C 0.02672 0.04889 1.00112 0.0
C677 C 1.01108 0.05941 0.02838 0.0
C678 C 1.0129 0.02576 0.98113 0.0
C679 C 0.98305 1.01236 0.98783 0.0
C680 C 0.96811 1.02215 1.01575 0.0
C681 C 0.98188 0.04513 0.03564 0.0
C682 C 0.92783 0.94779 0.95386 0.0
C683 C 0.92924 0.9532 0.92112 0.0
C684 C 0.94615 0.96603 0.9755 0.0
C685 C 0.96646 0.99007 0.96495 0.0
C686 C 0.96901 0.9941 0.93204 0.0
C687 C 0.95078 0.97599 0.91058 0.0
H688 H 0.76582 0.25922 0.71694 0.0
H689 H 0.84319 0.30287 0.76887 0.0
H690 H 0.72839 0.28835 0.7494 0.0
H691 H 0.80638 0.33137 0.80148 0.0
H692 H 0.73392 0.4023 0.8382 0.0
H693 H 0.77161 0.37226 0.80696 0.0
H694 H 0.70284 0.29747 0.79687 0.0
H695 H 0.66563 0.32746 0.82736 0.0
C696 C 0.77494 0.27458 0.73557 0.0
C697 C 0.80785 0.27853 0.73979 0.0
C698 C 0.75337 0.29155 0.75442 0.0
C699 C 0.76379 0.31303 0.77844 0.0
C700 C 0.79678 0.31607 0.78305 0.0
C701 C 0.81818 0.29933 0.76423 0.0
C702 C 0.72695 0.37937 0.82956 0.0
C703 C 0.69621 0.36786 0.83535 0.0
C704 C 0.7487 0.36185 0.81144 0.0
C705 C 0.74073 0.33199 0.79851 0.0
C706 C 0.71022 0.32039 0.8052 0.0
C707 C 0.68861 0.33782 0.82308 0.0
H708 H 0.15867 0.54037 0.91183 0.0
H709 H 0.13099 0.63168 0.94306 0.0
H710 H 0.12041 0.51682 0.94626 0.0
H711 H 0.0908 0.60788 0.97664 0.0
H712 H 0.04108 0.55788 0.05761 0.0
H713 H 0.07924 0.58164 1.02256 0.0
H714 H 0.06983 0.50245 0.95885 0.0
H715 H 0.03202 0.47832 0.99486 0.0
C716 C 0.14448 0.55573 0.92601 0.0
C717 C 0.14895 0.58836 0.92462 0.0
C718 C 0.12176 0.54193 0.94573 0.0
C719 C 0.10191 0.55994 0.96496 0.0
C720 C 0.10571 0.59271 0.96298 0.0
C721 C 0.12873 0.60661 0.94324 0.0
C722 C 0.04705 0.5454 0.03611 0.0
C723 C 0.03303 0.51597 0.02933 0.0
C724 C 0.06904 0.5593 1.01562 0.0
C725 C 0.07805 0.54459 0.9871 0.0
C726 C 0.06429 0.51482 0.98052 0.0
C727 C 0.04237 0.50074 1.00129 0.0
H728 H 0.83082 0.69962 0.42558 0.0
H729 H 0.82587 0.64394 0.33983 0.0
H730 H 0.80096 0.74029 0.39906 0.0
H731 H 0.79662 0.68423 0.31341 0.0
H732 H 0.72255 0.75176 0.27645 0.0
H733 H 0.74944 0.71065 0.30542 0.0
H734 H 0.79932 0.78013 0.36242 0.0
H735 H 0.7717 0.82062 0.33465 0.0
C736 C 0.82369 0.69599 0.40105 0.0
C737 C 0.83088 0.66787 0.38534 0.0
C738 C 0.80638 0.71952 0.38559 0.0
C739 C 0.79563 0.71605 0.35368 0.0
C740 C 0.80335 0.68806 0.33801 0.0
C741 C 0.8205 0.66464 0.3534 0.0
C742 C 0.73895 0.75831 0.29539 0.0
C743 C 0.74484 0.79002 0.30256 0.0
C744 C 0.75487 0.73456 0.31198 0.0
C745 C 0.77726 0.74145 0.33657 0.0
C746 C 0.78238 0.77319 0.34412 0.0
C747 C 0.76658 0.79679 0.32762 0.0
H748 H 0.96163 0.48745 0.52968 0.0
H749 H 1.02536 0.56015 0.56271 0.0
H750 H 0.99282 0.44926 0.55851 0.0
H751 H 0.05727 0.52247 0.59041 0.0
H752 H 0.09907 0.45349 0.6601 0.0
H753 H 0.06589 0.49084 0.63261 0.0
H754 H 0.03565 0.41894 0.56592 0.0
H755 H 0.0667 0.38182 0.59429 0.0
C756 C 0.98271 0.49523 0.54248 0.0
C757 C 0.99075 0.52711 0.5436 0.0
C758 C 1.00086 0.47324 0.5593 0.0
C759 C 0.02805 0.48216 0.57765 0.0
C760 C 0.03639 0.51407 0.57771 0.0
C761 C 1.01811 0.53593 0.56131 0.0
C762 C 0.08506 0.44551 0.63984 0.0
C763 C 0.08641 0.41418 0.6297 0.0
C764 C 0.06609 0.46723 0.62352 0.0
C765 C 0.04771 0.45865 0.59622 0.0
C766 C 0.04875 0.42715 0.58666 0.0
C767 C 0.06736 0.40554 0.60302 0.0
H768 H 0.58557 0.58071 0.99061 0.0
H769 H 0.53445 0.49392 0.99902 0.0
H770 H 0.54553 0.60717 1.0209 0.0
H771 H 0.49422 0.52033 0.03022 0.0
H772 H 0.41251 0.57852 0.06656 0.0
H773 H 0.45179 0.55303 0.03433 0.0
H774 H 0.52259 0.61903 0.0688 0.0
H775 H 0.48258 0.64502 0.1007 0.0
C776 C 0.56589 0.567 0.99915 0.0
C777 C 0.56386 0.53476 0.9922 0.0
C778 C 0.54264 0.58239 1.01691 0.0
C779 C 0.51606 0.56639 0.02885 0.0
C780 C 0.51376 0.5341 1.02147 0.0
C781 C 0.53705 0.51867 1.00343 0.0
C782 C 0.43645 0.58775 0.06743 0.0
C783 C 0.44399 0.61406 0.08673 0.0
C784 C 0.45935 0.5728 0.04882 0.0
C785 C 0.49115 0.58324 0.0486 0.0
C786 C 0.49859 0.61002 0.06753 0.0
C787 C 0.47549 0.62517 0.08607 0.0
H788 H 0.71707 0.68352 0.67421 0.0
H789 H 0.62728 0.71207 0.7108 0.0
H790 H 0.7445 0.71618 0.71343 0.0
H791 H 0.6549 0.74524 0.75038 0.0
H792 H 0.71635 0.77708 0.8367 0.0
H793 H 0.68714 0.74593 0.79736 0.0
H794 H 0.75705 0.76877 0.72748 0.0
H795 H 0.78706 0.79907 0.76742 0.0
C796 C 0.70306 0.69698 0.6905 0.0
C797 C 0.66979 0.69524 0.68893 0.0
C798 C 0.71892 0.71595 0.71307 0.0
C799 C 0.70216 0.73394 0.73505 0.0
C800 C 0.6688 0.73169 0.73406 0.0
C801 C 0.65285 0.71257 0.71135 0.0
C802 C 0.72575 0.77539 0.81304 0.0
C803 C 0.75452 0.79046 0.80559 0.0
C804 C 0.70863 0.75771 0.79022 0.0
C805 C 0.71961 0.75441 0.75904 0.0
C806 C 0.74796 0.77018 0.75131 0.0
C807 C 0.7651 0.78795 0.77419 0.0
H808 H 0.8482 0.23959 0.29306 0.0
H809 H 0.75632 0.26634 0.25857 0.0
H810 H 0.87325 0.27533 0.25712 0.0
H811 H 0.78158 0.30357 0.22339 0.0
H812 H 0.83487 0.34199 0.13815 0.0
H813 H 0.80905 0.31003 0.17702 0.0
H814 H 0.88816 0.32515 0.24138 0.0
H815 H 0.91494 0.35638 0.20115 0.0
C816 C 0.83303 0.25302 0.27791 0.0
C817 C 0.79977 0.24911 0.2789 0.0
C818 C 0.8477 0.27422 0.2573 0.0
C819 C 0.82994 0.29282 0.23663 0.0
C820 C 0.79659 0.28955 0.23818 0.0
C821 C 0.78184 0.26819 0.25883 0.0
C822 C 0.84714 0.3385 0.16043 0.0
C823 C 0.87761 0.35169 0.16584 0.0
C824 C 0.83186 0.32025 0.18326 0.0
C825 C 0.84609 0.31432 0.21292 0.0
C826 C 0.87624 0.32836 0.21885 0.0
C827 C 0.89166 0.34676 0.1958 0.0
H828 H 0.40519 0.42312 0.47441 0.0
H829 H 0.40953 0.50015 0.41052 0.0
H830 H 0.43929 0.45229 0.51256 0.0
H831 H 0.44348 0.52917 0.44811 0.0
H832 H 0.52239 0.56648 0.5137 0.0
H833 H 0.49627 0.53128 0.47493 0.0
H834 H 0.43241 0.49979 0.54703 0.0
H835 H 0.45854 0.53478 0.58562 0.0
C836 C 0.41401 0.44597 0.46826 0.0
C837 C 0.40467 0.45935 0.43949 0.0
C838 C 0.43327 0.46284 0.49017 0.0
C839 C 0.44412 0.49322 0.48353 0.0
C840 C 0.4359 0.50583 0.45404 0.0
C841 C 0.4163 0.48925 0.4325 0.0
C842 C 0.50304 0.55177 0.52134 0.0
C843 C 0.49245 0.55373 0.55277 0.0
C844 C 0.48792 0.53169 0.49908 0.0
C845 C 0.46212 0.51264 0.50776 0.0
C846 C 0.4523 0.51385 0.53948 0.0
C847 C 0.4671 0.53421 0.56157 0.0
H848 H 0.14529 0.10764 0.23179 0.0
H849 H 0.07147 0.04088 0.20715 0.0
H850 H 0.15208 0.08345 0.28325 0.0
H851 H 0.07895 1.01571 0.25814 0.0
H852 H 0.18265 1.01006 0.35292 0.0
H853 H 0.17293 0.03702 0.3037 0.0
H854 H 0.07239 1.02155 0.31405 0.0
H855 H 0.08237 0.99331 0.36284 0.0
C856 C 0.13074 0.08758 0.23742 0.0
C857 C 0.10806 0.07586 0.21566 0.0
C858 C 0.13463 0.07367 0.26677 0.0
C859 C 0.11622 0.0475 0.27468 0.0
C860 C 0.0932 0.03609 0.25295 0.0
C861 C 0.08902 0.05031 0.22374 0.0
C862 C 0.15846 1.01256 0.34475 0.0
C863 C 0.13324 0.99963 0.36158 0.0
C864 C 0.15286 0.02818 0.31664 0.0
C865 C 0.12186 0.03154 0.30501 0.0
C866 C 0.09656 1.01896 0.32216 0.0
C867 C 0.10223 1.00297 0.35015 0.0
H868 H 0.24253 0.88548 0.49943 0.0
H869 H 0.24139 0.98148 0.47095 0.0
H870 H 0.29409 0.89462 0.5253 0.0
H871 H 0.29304 0.99031 0.49631 0.0
H872 H 0.37321 0.93276 0.59255 0.0
H873 H 0.3187 0.92943 0.57234 0.0
H874 H 0.34877 0.96748 0.4834 0.0
H875 H 0.40332 0.97022 0.50326 0.0
C876 C 0.25319 0.9085 0.4988 0.0
C877 C 0.23792 0.93272 0.48311 0.0
C878 C 0.28256 0.91377 0.51376 0.0
C879 C 0.29743 0.94318 0.5128 0.0
C880 C 0.28207 0.96743 0.49734 0.0
C881 C 0.25249 0.96234 0.48292 0.0
C882 C 0.36804 0.94108 0.56895 0.0
C883 C 0.39245 0.95185 0.54946 0.0
C884 C 0.33695 0.93887 0.55733 0.0
C885 C 0.32966 0.94804 0.5263 0.0
C886 C 0.35378 0.96038 0.50746 0.0
C887 C 0.38494 0.96196 0.51881 0.0
H888 H 0.47077 0.03395 0.72678 0.0
H889 H 0.456 0.94164 0.76308 0.0
H890 H 0.4704 0.05516 0.78102 0.0
H891 H 0.45635 0.96263 0.81701 0.0
H892 H 0.41675 1.01744 0.90184 0.0
H893 H 0.42154 0.995 0.84899 0.0
H894 H 0.50222 0.0549 0.83205 0.0
H895 H 0.49723 0.07777 0.88533 0.0
C896 C 0.46734 1.01824 0.74631 0.0
C897 C 0.46339 0.98613 0.74065 0.0
C898 C 0.46756 0.03031 0.77736 0.0
C899 C 0.46351 1.01055 0.80332 0.0
C900 C 0.45939 0.9785 0.79755 0.0
C901 C 0.45936 0.96645 0.76665 0.0
C902 C 0.43584 1.02556 0.88708 0.0
C903 C 0.45665 0.04938 0.89781 0.0
C904 C 0.43862 1.01262 0.85676 0.0
C905 C 0.46215 1.02327 0.83624 0.0
C906 C 0.48362 0.04647 0.84723 0.0
C907 C 0.48102 0.05927 0.87784 0.0
H908 H 0.32234 0.10278 0.04308 0.0
H909 H 0.30109 0.04405 0.96138 0.0
H910 H 0.26773 0.09644 0.06071 0.0
H911 H 0.24614 0.03864 0.97863 0.0
H912 H 0.15209 0.10336 1.00884 0.0
H913 H 0.20544 0.09408 0.98942 0.0
H914 H 0.22624 0.04087 0.07276 0.0
H915 H 0.17242 0.04918 0.09176 0.0
C916 C 0.30605 0.08835 0.02909 0.0
C917 C 0.31577 0.07393 1.0009 0.0
C918 C 0.27501 0.08457 0.03926 0.0
C919 C 0.25313 0.0669 1.02103 0.0
C920 C 0.26286 0.05211 0.99309 0.0
C921 C 0.29415 0.05524 0.98331 0.0
C922 C 0.16773 0.08878 1.02241 0.0
C923 C 0.15828 0.07681 0.05163 0.0
C924 C 0.1981 0.0835 1.01134 0.0
C925 C 0.21961 0.06682 0.02972 0.0
C926 C 0.20978 0.05362 0.05822 0.0
C927 C 0.17908 0.05822 0.06892 0.0
H928 H 0.04338 0.22677 0.12112 0.0
H929 H 0.06785 0.22132 1.02204 0.0
H930 H 0.02749 0.28025 0.11453 0.0
H931 H 0.05136 0.27537 1.01546 0.0
H932 H 0.03797 0.38154 0.10536 0.0
H933 H 0.06092 0.33024 0.10061 0.0
H934 H 0.99673 0.30724 1.02313 0.0
H935 H 0.97347 0.35884 0.02782 0.0
C936 C 0.04509 0.23689 0.09783 0.0
C937 C 0.05698 0.21992 0.07211 0.0
C938 C 0.03624 0.26758 0.09416 0.0
C939 C 0.03879 0.28192 0.06464 0.0
C940 C 0.04944 0.26473 0.03848 0.0
C941 C 0.05877 0.23393 0.04226 0.0
C942 C 0.02927 0.36591 0.08674 0.0
C943 C 1.00356 0.3739 0.06735 0.0
C944 C 0.04238 0.33658 0.08409 0.0
C945 C 0.03008 0.31479 0.06194 0.0
C946 C 1.0065 0.32374 0.04041 0.0
C947 C 0.99325 0.35321 0.04311 0.0
H948 H 0.51652 0.37099 0.99019 0.0
H949 H 0.60534 0.32339 0.99317 0.0
H950 H 0.48828 0.32181 0.9977 0.0
H951 H 0.57711 0.27393 1.00034 0.0
H952 H 0.45578 0.23071 0.94772 0.0
H953 H 0.4839 0.28002 0.95592 0.0
H954 H 0.53899 0.2402 0.03159 0.0
H955 H 0.51097 0.1904 1.02303 0.0
C956 C 0.52998 0.35008 0.99365 0.0
C957 C 0.56297 0.35073 0.99088 0.0
C958 C 0.51387 0.32196 0.99762 0.0
C959 C 0.53051 0.29404 0.99876 0.0
C960 C 0.56372 0.29513 0.99946 0.0
C961 C 0.57989 0.32339 0.99554 0.0
C962 C 0.47407 0.23238 0.96591 0.0
C963 C 0.48132 0.20674 0.98462 0.0
C964 C 0.48982 0.26073 0.97097 0.0
C965 C 0.51328 0.26403 0.99475 0.0
C966 C 0.5209 0.23829 1.01323 0.0
C967 C 0.50487 0.20991 1.00835 0.0
H968 H 1.02018 0.6946 0.52339 0.0
H969 H 0.95093 0.74869 0.47364 0.0
H970 H 0.05052 0.74202 0.53641 0.0
H971 H 0.98141 0.79576 0.48552 0.0
H972 H 0.03093 0.87979 0.51501 0.0
H973 H 0.99964 0.83257 0.52364 0.0
H974 H 0.08289 0.77755 0.50876 0.0
H975 H 0.11413 0.8249 0.50194 0.0
C976 C 1.01154 0.71668 0.51524 0.0
C977 C 0.98339 0.71809 0.49736 0.0
C978 C 0.02882 0.74381 0.52272 0.0
C979 C 1.01841 0.77278 0.51213 0.0
C980 C 0.98982 0.77405 0.49481 0.0
C981 C 0.97244 0.74704 0.48768 0.0
C982 C 0.04258 0.85757 0.5149 0.0
C983 C 0.07472 0.85571 0.5077 0.0
C984 C 1.02471 0.83054 0.51943 0.0
C985 C 0.03855 0.8012 0.51598 0.0
C986 C 0.07141 0.79966 0.51172 0.0
C987 C 0.08938 0.82677 0.50779 0.0
H988 H 0.5733 0.70223 0.54327 0.0
H989 H 0.53708 0.71807 0.63739 0.0
H990 H 0.56568 0.75751 0.53138 0.0
H991 H 0.53023 0.77257 0.62566 0.0
H992 H 0.55942 0.86959 0.61396 0.0
H993 H 0.57686 0.81601 0.61075 0.0
H994 H 0.51053 0.79724 0.53408 0.0
H995 H 0.49278 0.85109 0.53721 0.0
C996 C 0.56352 0.71736 0.56123 0.0
C997 C 0.55587 0.70588 0.59129 0.0
C998 C 0.5593 0.74884 0.55444 0.0
C999 C 0.54798 0.76911 0.57787 0.0
C1000 C 0.53953 0.75738 0.60745 0.0
C1001 C 0.54326 0.72612 0.61404 0.0
C1002 C 0.54936 0.85443 0.5956 0.0
C1003 C 0.52435 0.86428 0.57625 0.0
C1004 C 0.55937 0.82381 0.59378 0.0
C1005 C 0.54462 0.80264 0.5725 0.0
C1006 C 0.52223 0.81331 0.55059 0.0
C1007 C 0.51214 0.84408 0.55242 0.0
H1008 H 0.85094 0.06008 0.68094 0.0
H1009 H 0.84938 0.08904 0.7793 0.0
H1010 H 0.84429 1.00594 0.69625 0.0
H1011 H 0.84288 0.03457 0.79477 0.0
H1012 H 0.79479 0.94085 0.80776 0.0
H1013 H 0.79966 0.99359 0.78809 0.0
H1014 H 0.87364 0.96456 0.72534 0.0
H1015 H 0.86898 0.91161 0.74522 0.0
C1016 C 0.84925 0.05475 0.7059 0.0
C1017 C 0.85034 0.07868 0.729 0.0
C1018 C 0.84562 1.02379 0.71461 0.0
C1019 C 0.84273 1.01609 0.74662 0.0
C1020 C 0.84457 0.03995 0.76985 0.0
C1021 C 0.84857 0.07101 0.76111 0.0
C1022 C 0.81164 0.94553 0.78925 0.0
C1023 C 0.8317 0.92211 0.77822 0.0
C1024 C 0.81467 0.97582 0.7783 0.0
C1025 C 0.83754 0.98331 0.75579 0.0
C1026 C 0.8559 0.95944 0.74285 0.0
C1027 C 0.85303 0.92906 0.75401 0.0
H1028 H 0.78506 0.21737 0.60657 0.0
H1029 H 0.87145 0.24148 0.55891 0.0
H1030 H 0.75547 0.2227 0.55769 0.0
H1031 H 0.84136 0.24786 0.50927 0.0
H1032 H 0.78286 0.20116 0.42495 0.0
H1033 H 0.81542 0.21261 0.47191 0.0
H1034 H 0.7352 0.25406 0.51744 0.0
H1035 H 0.7024 0.24127 0.47106 0.0
C1036 C 0.79764 0.22462 0.58566 0.0
C1037 C 0.8306 0.22871 0.58646 0.0
C1038 C 0.78056 0.22797 0.55754 0.0
C1039 C 0.79594 0.23559 0.52932 0.0
C1040 C 0.82881 0.24159 0.53049 0.0
C1041 C 0.84602 0.23828 0.55892 0.0
C1042 C 0.77232 0.21308 0.44486 0.0
C1043 C 0.73991 0.21973 0.44458 0.0
C1044 C 0.79107 0.21992 0.47172 0.0
C1045 C 0.77789 0.23389 0.49873 0.0
C1046 C 0.74599 0.24258 0.49741 0.0
C1047 C 0.72716 0.23531 0.47079 0.0
H1048 H 0.73651 0.08143 0.36009 0.0
H1049 H 0.68836 0.11191 0.27544 0.0
H1050 H 0.72653 0.02731 0.34393 0.0
H1051 H 0.67795 0.05811 0.25963 0.0
H1052 H 0.6662 0.9383 0.32398 0.0
H1053 H 0.68062 0.9917 0.33908 0.0
H1054 H 0.70328 1.01106 0.24173 0.0
H1055 H 0.6883 0.95808 0.22654 0.0
C1056 C 0.72418 0.07658 0.33785 0.0
C1057 C 0.71327 0.10091 0.319 0.0
C1058 C 0.71816 0.0456 0.32877 0.0
C1059 C 0.70126 0.03838 0.30059 0.0
C1060 C 0.69129 0.0628 0.2813 0.0
C1061 C 0.6972 0.09368 0.29042 0.0
C1062 C 0.67416 0.95398 0.30579 0.0
C1063 C 0.67598 0.9439 0.27404 0.0
C1064 C 0.68272 0.9845 0.3145 0.0
C1065 C 0.6932 1.00563 0.29162 0.0
C1066 C 0.69501 0.9955 0.25989 0.0
C1067 C 0.6865 0.96503 0.25121 0.0
H1068 H 0.72645 0.91384 0.09089 0.0
H1069 H 0.78878 0.83824 0.11298 0.0
H1070 H 0.74959 0.91803 0.03925 0.0
H1071 H 0.80961 0.84031 0.05969 0.0
H1072 H 0.85831 0.86478 0.96866 0.0
H1073 H 0.84073 0.86669 1.02342 0.0
H1074 H 0.74751 0.89251 0.99083 0.0
H1075 H 0.76592 0.89244 0.93648 0.0
C1076 C 0.74533 0.89822 0.08501 0.0
C1077 C 0.75574 0.87573 0.10649 0.0
C1078 C 0.75816 0.9002 0.05488 0.0
C1079 C 0.78116 0.87921 0.04491 0.0
C1080 C 0.79212 0.85709 0.06653 0.0
C1081 C 0.77976 0.85556 0.09704 0.0
C1082 C 0.83414 0.87109 0.97341 0.0
C1083 C 0.81341 0.8785 0.94853 0.0
C1084 C 0.82397 0.87198 1.00474 0.0
C1085 C 0.79263 0.87967 1.01174 0.0
C1086 C 0.772 0.88717 0.98659 0.0
C1087 C 0.78241 0.88695 0.95536 0.0
H1088 H 0.11158 0.75393 0.78522 0.0
H1089 H 0.06967 0.67246 0.82722 0.0
H1090 H 0.05993 0.77776 0.78218 0.0
H1091 H 1.01766 0.69573 0.82291 0.0
H1092 H 0.95034 0.76872 0.86408 0.0
H1093 H 0.99647 0.73778 0.85406 0.0
H1094 H 1.00601 0.77953 0.76207 0.0
H1095 H 0.95932 0.81086 0.77225 0.0
C1096 C 0.09115 0.7408 0.79306 0.0
C1097 C 0.09475 0.7116 0.80708 0.0
C1098 C 0.06148 0.75434 0.79103 0.0
C1099 C 0.03474 0.7389 0.80287 0.0
C1100 C 0.03795 0.7085 0.81421 0.0
C1101 C 0.06768 0.69498 0.81634 0.0
C1102 C 0.96182 0.77092 0.84141 0.0
C1103 C 0.95101 0.79214 0.81887 0.0
C1104 C 0.98827 0.75303 0.8356 0.0
C1105 C 1.00477 0.75586 0.8071 0.0
C1106 C 0.99387 0.77688 0.78432 0.0
C1107 C 0.96724 0.79489 0.79017 0.0
H1108 H 0.49904 0.66516 0.2003 0.0
H1109 H 0.44853 0.75141 0.20729 0.0
H1110 H 0.54738 0.692 0.2184 0.0
H1111 H 0.49677 0.77818 0.22461 0.0
H1112 H 0.58293 0.81951 0.26888 0.0
H1113 H 0.53691 0.78464 0.26593 0.0
H1114 H 0.58264 0.72954 0.19402 0.0
H1115 H 0.62878 0.76387 0.19752 0.0
C1116 C 0.49815 0.68974 0.20598 0.0
C1117 C 0.47 0.7062 0.20208 0.0
C1118 C 0.52587 0.70512 0.21626 0.0
C1119 C 0.52594 0.73722 0.22287 0.0
C1120 C 0.49746 0.75335 0.22019 0.0
C1121 C 0.46982 0.73803 0.20994 0.0
C1122 C 0.58342 0.79952 0.25301 0.0
C1123 C 0.60924 0.79464 0.23311 0.0
C1124 C 0.557 0.77966 0.25118 0.0
C1125 C 0.55593 0.75462 0.22939 0.0
C1126 C 0.58275 0.74849 0.2112 0.0
C1127 C 0.60916 0.76829 0.21308 0.0
H1128 H 1.00249 0.17671 0.67668 0.0
H1129 H 0.94031 0.23864 0.7261 0.0
H1130 H 0.04796 0.20752 0.69546 0.0
H1131 H 0.98561 0.2684 0.7468 0.0
H1132 H 0.06701 0.33933 0.73313 0.0
H1133 H 1.02121 0.30465 0.72831 0.0
H1134 H 0.08235 0.22531 0.7349 0.0
H1135 H 0.12814 0.26035 0.73753 0.0
C1136 C 0.99872 0.19644 0.69234 0.0
C1137 C 0.96806 0.2056 0.69964 0.0
C1138 C 1.02476 0.21408 0.70335 0.0
C1139 C 1.02062 0.24084 0.72251 0.0
C1140 C 0.98982 0.24859 0.73142 0.0
C1141 C 0.96383 0.23141 0.71976 0.0
C1142 C 0.07045 0.31449 0.73437 0.0
C1143 C 0.10093 0.30242 0.73548 0.0
C1144 C 0.04419 0.29446 0.73165 0.0
C1145 C 0.04794 0.26195 0.73066 0.0
C1146 C 0.07849 0.2501 0.73456 0.0
C1147 C 0.10473 0.27014 0.73649 0.0
H1148 H 0.48816 0.38065 0.35938 0.0
H1149 H 0.45954 0.33134 0.27383 0.0
H1150 H 0.54208 0.3623 0.35328 0.0
H1151 H 0.5137 0.31412 0.26653 0.0
H1152 H 0.58876 0.2458 0.29949 0.0
H1153 H 0.54118 0.27548 0.29422 0.0
H1154 H 0.59182 0.35827 0.32669 0.0
H1155 H 0.64003 0.32799 0.33233 0.0
C1156 C 0.49387 0.36691 0.33857 0.0
C1157 C 0.47 0.35723 0.31708 0.0
C1158 C 0.52472 0.35642 0.33498 0.0
C1159 C 0.53215 0.33623 0.30971 0.0
C1160 C 0.50864 0.32899 0.2867 0.0
C1161 C 0.47774 0.33906 0.2906 0.0
C1162 C 0.59011 0.2705 0.30475 0.0
C1163 C 0.61832 0.28454 0.31614 0.0
C1164 C 0.5627 0.28764 0.30163 0.0
C1165 C 0.5626 0.31942 0.30974 0.0
C1166 C 0.59101 0.33378 0.32043 0.0
C1167 C 0.6186 0.31647 0.32368 0.0
H1168 H 0.65088 0.52341 0.83996 0.0
H1169 H 0.55794 0.48085 0.84538 0.0
H1170 H 0.63486 0.54969 0.79163 0.0
H1171 H 0.54183 0.50748 0.79737 0.0
H1172 H 0.5452 0.52367 0.68873 0.0
H1173 H 0.55551 0.50252 0.74101 0.0
H1174 H 0.59911 0.5897 0.77109 0.0
H1175 H 0.58926 0.61081 0.71868 0.0
C1176 C 0.62694 0.51998 0.83104 0.0
C1177 C 0.60574 0.49993 0.84626 0.0
C1178 C 0.6177 0.53516 0.8035 0.0
C1179 C 0.58712 0.53053 0.7907 0.0
C1180 C 0.56566 0.51117 0.80649 0.0
C1181 C 0.57487 0.49605 0.83403 0.0
C1182 C 0.55667 0.53846 0.70658 0.0
C1183 C 0.56668 0.56879 0.69946 0.0
C1184 C 0.56242 0.52639 0.73658 0.0
C1185 C 0.57831 0.54442 0.76003 0.0
C1186 C 0.58722 0.57516 0.75331 0.0
C1187 C 0.5814 0.58726 0.72334 0.0
H1188 H 0.72436 0.38726 0.98326 0.0
H1189 H 0.72398 0.48141 0.94909 0.0
H1190 H 0.77541 0.39776 1.00959 0.0
H1191 H 0.77501 0.49166 0.97512 0.0
H1192 H 0.88432 0.47729 0.99024 0.0
H1193 H 0.83117 0.47142 0.9673 0.0
H1194 H 0.79802 0.43302 0.05499 0.0
H1195 H 0.85104 0.43917 0.07813 0.0
C1196 C 0.73514 0.41015 0.98137 0.0
C1197 C 0.72015 0.43347 0.96406 0.0
C1198 C 0.76422 0.41621 0.99661 0.0
C1199 C 0.77909 0.44554 0.99441 0.0
C1200 C 0.76413 0.46882 0.97708 0.0
C1201 C 0.73487 0.46293 0.96228 0.0
C1202 C 0.86556 0.46812 1.0048 0.0
C1203 C 0.87186 0.45875 0.03598 0.0
C1204 C 0.83516 0.46477 0.99168 0.0
C1205 C 0.81058 0.45152 1.00931 0.0
C1206 C 0.81663 0.44302 0.0408 0.0
C1207 C 0.84691 0.44684 0.05411 0.0
H1208 H 0.90769 0.47794 0.24354 0.0
H1209 H 0.98571 0.53606 0.21387 0.0
H1210 H 0.91 0.50292 0.29595 0.0
H1211 H 0.98887 0.56002 0.26642 0.0
H1212 H 0.94066 0.53331 0.39531 0.0
H1213 H 0.9435 0.50678 0.34385 0.0
H1214 H 0.95891 0.59509 0.29872 0.0
H1215 H 0.95681 0.62142 0.34993 0.0
C1216 C 0.92523 0.4961 0.24817 0.0
C1217 C 0.9465 0.505 0.22455 0.0
C1218 C 0.9269 0.51007 0.27832 0.0
C1219 C 0.94979 0.53331 0.28544 0.0
C1220 C 0.97085 0.54234 0.2617 0.0
C1221 C 0.96919 0.52841 0.23164 0.0
C1222 C 0.94536 0.54696 0.37448 0.0
C1223 C 0.94842 0.57949 0.37672 0.0
C1224 C 0.94658 0.5318 0.34496 0.0
C1225 C 0.95104 0.54886 0.31713 0.0
C1226 C 0.95565 0.58121 0.31966 0.0
C1227 C 0.95437 0.59633 0.34908 0.0
H1228 H 0.70967 0.55143 0.61547 0.0
H1229 H 0.67312 0.53691 0.51986 0.0
H1230 H 0.76244 0.54367 0.59702 0.0
H1231 H 0.72697 0.53211 0.50108 0.0
H1232 H 0.8301 0.52518 0.47532 0.0
H1233 H 0.77997 0.50883 0.49894 0.0
H1234 H 0.79008 0.58334 0.56839 0.0
H1235 H 0.83971 0.59908 0.5454 0.0
C1236 C 0.71245 0.54569 0.59063 0.0
C1237 C 0.68674 0.54573 0.56906 0.0
C1238 C 0.74308 0.54167 0.58001 0.0
C1239 C 0.74895 0.53845 0.54751 0.0
C1240 C 0.72322 0.53489 0.5263 0.0
C1241 C 0.69234 0.53821 0.53704 0.0
C1242 C 0.82175 0.53756 0.49603 0.0
C1243 C 0.83857 0.56353 0.50844 0.0
C1244 C 0.7931 0.52829 0.50943 0.0
C1245 C 0.78114 0.54466 0.5356 0.0
C1246 C 0.79885 0.56976 0.54867 0.0
C1247 C 0.82719 0.57906 0.53525 0.0
H1248 H 0.344 0.59505 0.28925 0.0
H1249 H 0.31636 0.57124 0.1929 0.0
H1250 H 0.33454 0.54099 0.30454 0.0
H1251 H 0.30714 0.51731 0.20812 0.0
H1252 H 0.34654 0.42146 0.24785 0.0
H1253 H 0.34539 0.47461 0.22822 0.0
H1254 H 0.28688 0.50168 0.30656 0.0
H1255 H 0.28721 0.44864 0.32578 0.0
C1256 C 0.33562 0.57831 0.27151 0.0
C1257 C 0.33065 0.58726 0.24003 0.0
C1258 C 0.33007 0.54753 0.28021 0.0
C1259 C 0.32004 0.52514 0.25744 0.0
C1260 C 0.31486 0.53416 0.22604 0.0
C1261 C 0.3199 0.565 0.21746 0.0
C1262 C 0.33269 0.43851 0.26037 0.0
C1263 C 0.31749 0.43097 0.2887 0.0
C1264 C 0.33212 0.46892 0.24919 0.0
C1265 C 0.31655 0.49222 0.26631 0.0
C1266 C 0.29953 0.4842 0.29332 0.0
C1267 C 0.29973 0.45381 0.30423 0.0
H1268 H 0.23322 0.72281 0.94675 0.0
H1269 H 0.31008 0.6625 0.92254 0.0
H1270 H 0.25953 0.73631 0.99688 0.0
H1271 H 0.33628 0.67575 0.97312 0.0
H1272 H 0.38487 0.72082 0.05981 0.0
H1273 H 0.36214 0.7185 1.00592 0.0
H1274 H 0.26899 0.70663 0.04503 0.0
H1275 H 0.29153 0.70909 0.09828 0.0
C1276 C 0.2558 0.71248 0.95209 0.0
C1277 C 0.2694 0.69128 0.93087 0.0
C1278 C 0.27087 0.72025 0.98082 0.0
C1279 C 0.29991 0.707 0.98903 0.0
C1280 C 0.31408 0.6866 0.96732 0.0
C1281 C 0.29894 0.67878 0.93851 0.0
C1282 C 0.35949 0.71854 0.05674 0.0
C1283 C 0.33992 0.71514 0.08312 0.0
C1284 C 0.34652 0.71687 0.02598 0.0
C1285 C 0.31379 0.71223 1.02124 0.0
C1286 C 0.29423 0.71053 0.0478 0.0
C1287 C 0.30716 0.71183 0.07835 0.0
H1288 H 0.25518 0.58603 0.80877 0.0
H1289 H 0.1952 0.62249 0.73497 0.0
H1290 H 0.24669 0.53374 0.78733 0.0
H1291 H 0.18642 0.56994 0.71368 0.0
H1292 H 0.1976 0.47282 0.66945 0.0
H1293 H 0.2104 0.52553 0.68776 0.0
H1294 H 0.20343 0.49598 0.78486 0.0
H1295 H 0.19115 0.44304 0.76654 0.0
C1296 C 0.24044 0.58298 0.78773 0.0
C1297 C 0.22575 0.60857 0.77372 0.0
C1298 C 0.23535 0.55288 0.7756 0.0
C1299 C 0.21547 0.54748 0.74907 0.0
C1300 C 0.20199 0.57322 0.73408 0.0
C1301 C 0.20707 0.60341 0.74627 0.0
C1302 C 0.19886 0.47749 0.69473 0.0
C1303 C 0.19338 0.45359 0.71652 0.0
C1304 C 0.20605 0.50782 0.70522 0.0
C1305 C 0.20807 0.51508 0.73779 0.0
C1306 C 0.20257 0.49116 0.75959 0.0
C1307 C 0.19529 0.46081 0.74909 0.0
H1308 H 0.26582 0.38091 0.44643 0.0
H1309 H 0.34771 0.32381 0.46025 0.0
H1310 H 0.2544 0.37773 0.50282 0.0
H1311 H 0.33638 0.32087 0.51675 0.0
H1312 H 0.27854 0.29697 0.60811 0.0
H1313 H 0.29582 0.29922 0.55315 0.0
H1314 H 0.27944 0.39798 0.55301 0.0
H1315 H 0.26153 0.39563 0.60761 0.0
C1316 C 0.28117 0.3674 0.46143 0.0
C1317 C 0.30763 0.35261 0.44893 0.0
C1318 C 0.27487 0.3659 0.49378 0.0
C1319 C 0.29481 0.34945 0.51423 0.0
C1320 C 0.32064 0.33372 0.50154 0.0
C1321 C 0.32706 0.33539 0.4692 0.0
C1322 C 0.27921 0.31924 0.59649 0.0
C1323 C 0.26848 0.34608 0.61207 0.0
C1324 C 0.28914 0.32053 0.56507 0.0
C1325 C 0.28836 0.34867 0.54865 0.0
C1326 C 0.27967 0.37586 0.56493 0.0
C1327 C 0.26991 0.3746 0.59636 0.0
loop_
_geom_bond_atom_site_label_1
_geom_bond_atom_site_label_2
_geom_bond_distance
_geom_bond_site_symmetry_2
_ccdc_geom_bond_type
Co0 N4 2.148 . S
Co0 N10 2.128 . S
Co0 N20 2.194 . S
Co0 O25 2.351 . S
Co0 O26 2.155 . S
Co0 O27 2.096 . S
C1 N4 1.301 . S
C1 N5 1.328 . S
C1 H6 0.930 . S
C2 C3 1.333 . S
C2 N4 1.317 . S
C2 H7 0.930 . S
C3 C2 1.333 . S
C3 N5 1.350 . S
C3 H29 0.931 . S
N4 Co0 2.148 . S
N4 C1 1.301 . S
N4 C2 1.317 . S
N5 C1 1.328 . S
N5 C3 1.350 . S
H6 C1 0.930 . S
H7 C2 0.930 . S
C8 O9 1.224 . S
C8 O27 1.247 . S
O9 C8 1.224 . S
N10 Co0 2.128 . S
N10 C11 1.355 . S
N10 C13 1.311 . S
C11 N10 1.355 . S
C11 C12 1.363 . S
C11 H23 0.929 . S
C12 C11 1.363 . S
C12 N14 1.375 . S
C12 H30 0.931 . S
C13 N10 1.311 . S
C13 N14 1.347 . S
C13 H24 0.929 . S
N14 C12 1.375 . S
N14 C13 1.347 . S
C15 C18 1.365 . S
C15 N20 1.328 . S
C15 H21 0.929 . S
C16 C17 1.362 . S
C16 C19 1.378 . S
C16 H31 0.929 . S
C17 C16 1.362 . S
C17 C18 1.366 . S
C18 C15 1.365 . S
C18 C17 1.366 . S
C18 H32 0.930 . S
C19 C16 1.378 . S
C19 N20 1.315 . S
C19 H22 0.930 . S
N20 Co0 2.194 . S
N20 C15 1.328 . S
N20 C19 1.315 . S
H21 C15 0.929 . S
H22 C19 0.930 . S
H23 C11 0.929 . S
H24 C13 0.929 . S
O25 Co0 2.351 . S
O25 C28 1.244 . S
O26 Co0 2.155 . S
O26 C28 1.240 . S
O27 Co0 2.096 . S
O27 C8 1.247 . S
C28 O25 1.244 . S
C28 O26 1.240 . S
H29 C3 0.931 . S
H30 C12 0.931 . S
H31 C16 0.929 . S
H32 C18 0.930 . S
Co33 N37 2.148 . S
Co33 N43 2.128 . S
Co33 N53 2.194 . S
Co33 O58 2.351 . S
Co33 O59 2.155 . S
Co33 O60 2.096 . S
C34 N37 1.301 . S
C34 N38 1.328 . S
C34 H39 0.930 . S
C35 C36 1.333 . S
C35 N37 1.317 . S
C35 H40 0.930 . S
C36 C35 1.333 . S
C36 N38 1.350 . S
C36 H62 0.931 . S
N37 Co33 2.148 . S
N37 C34 1.301 . S
N37 C35 1.317 . S
N38 C34 1.328 . S
N38 C36 1.350 . S
H39 C34 0.930 . S
H40 C35 0.930 . S
C41 O42 1.224 . S
C41 O60 1.247 . S
O42 C41 1.224 . S
N43 Co33 2.128 . S
N43 C44 1.355 . S
N43 C46 1.311 . S
C44 N43 1.355 . S
C44 C45 1.363 . S
C44 H56 0.929 . S
C45 C44 1.363 . S
C45 N47 1.375 . S
C45 H63 0.931 . S
C46 N43 1.311 . S
C46 N47 1.347 . S
C46 H57 0.929 . S
N47 C45 1.375 . S
N47 C46 1.347 . S
C48 C51 1.365 . S
C48 N53 1.328 . S
C48 H54 0.929 . S
C49 C50 1.362 . S
C49 C52 1.378 . S
C49 H64 0.929 . S
C50 C49 1.362 . S
C50 C51 1.366 . S
C51 C48 1.365 . S
C51 C50 1.366 . S
C51 H65 0.930 . S
C52 C49 1.378 . S
C52 N53 1.315 . S
C52 H55 0.930 . S
N53 Co33 2.194 . S
N53 C48 1.328 . S
N53 C52 1.315 . S
H54 C48 0.929 . S
H55 C52 0.930 . S
H56 C44 0.929 . S
H57 C46 0.929 . S
O58 Co33 2.351 . S
O58 C61 1.244 . S
O59 Co33 2.155 . S
O59 C61 1.240 . S
O60 Co33 2.096 . S
O60 C41 1.247 . S
C61 O58 1.244 . S
C61 O59 1.240 . S
H62 C36 0.931 . S
H63 C45 0.931 . S
H64 C49 0.929 . S
H65 C51 0.930 . S
Co66 N70 2.148 . S
Co66 N76 2.128 . S
Co66 N86 2.194 . S
Co66 O91 2.351 . S
Co66 O92 2.155 . S
Co66 O93 2.096 . S
C67 N70 1.301 . S
C67 N71 1.328 . S
C67 H72 0.930 . S
C68 C69 1.333 . S
C68 N70 1.317 . S
C68 H73 0.930 . S
C69 C68 1.333 . S
C69 N71 1.350 . S
C69 H95 0.931 . S
N70 Co66 2.148 . S
N70 C67 1.301 . S
N70 C68 1.317 . S
N71 C67 1.328 . S
N71 C69 1.350 . S
H72 C67 0.930 . S
H73 C68 0.930 . S
C74 O75 1.224 . S
C74 O93 1.247 . S
O75 C74 1.224 . S
N76 Co66 2.128 . S
N76 C77 1.355 . S
N76 C79 1.311 . S
C77 N76 1.355 . S
C77 C78 1.363 . S
C77 H89 0.929 . S
C78 C77 1.363 . S
C78 N80 1.375 . S
C78 H96 0.931 . S
C79 N76 1.311 . S
C79 N80 1.347 . S
C79 H90 0.929 . S
N80 C78 1.375 . S
N80 C79 1.347 . S
C81 C84 1.365 . S
C81 N86 1.328 . S
C81 H87 0.929 . S
C82 C83 1.362 . S
C82 C85 1.378 . S
C82 H97 0.929 . S
C83 C82 1.362 . S
C83 C84 1.366 . S
C84 C81 1.365 . S
C84 C83 1.366 . S
C84 H98 0.930 . S
C85 C82 1.378 . S
C85 N86 1.315 . S
C85 H88 0.930 . S
N86 Co66 2.194 . S
N86 C81 1.328 . S
N86 C85 1.315 . S
H87 C81 0.929 . S
H88 C85 0.930 . S
H89 C77 0.929 . S
H90 C79 0.929 . S
O91 Co66 2.351 . S
O91 C94 1.244 . S
O92 Co66 2.155 . S
O92 C94 1.240 . S
O93 Co66 2.096 . S
O93 C74 1.247 . S
C94 O91 1.244 . S
C94 O92 1.240 . S
H95 C69 0.931 . S
H96 C78 0.931 . S
H97 C82 0.929 . S
H98 C84 0.930 . S
Co99 N103 2.148 . S
Co99 N109 2.128 . S
Co99 N119 2.194 . S
Co99 O124 2.351 . S
Co99 O125 2.155 . S
Co99 O126 2.096 . S
C100 N103 1.301 . S
C100 N104 1.328 . S
C100 H105 0.930 . S
C101 C102 1.333 . S
C101 N103 1.317 . S
C101 H106 0.930 . S
C102 C101 1.333 . S
C102 N104 1.350 . S
C102 H128 0.931 . S
N103 Co99 2.148 . S
N103 C100 1.301 . S
N103 C101 1.317 . S
N104 C100 1.328 . S
N104 C102 1.350 . S
H105 C100 0.930 . S
H106 C101 0.930 . S
C107 O108 1.224 . S
C107 O126 1.247 . S
O108 C107 1.224 . S
N109 Co99 2.128 . S
N109 C110 1.355 . S
N109 C112 1.311 . S
C110 N109 1.355 . S
C110 C111 1.363 . S
C110 H122 0.929 . S
C111 C110 1.363 . S
C111 N113 1.375 . S
C111 H129 0.931 . S
C112 N109 1.311 . S
C112 N113 1.347 . S
C112 H123 0.929 . S
N113 C111 1.375 . S
N113 C112 1.347 . S
C114 C117 1.365 . S
C114 N119 1.328 . S
C114 H120 0.929 . S
C115 C116 1.362 . S
C115 C118 1.378 . S
C115 H130 0.929 . S
C116 C115 1.362 . S
C116 C117 1.366 . S
C117 C114 1.365 . S
C117 C116 1.366 . S
C117 H131 0.930 . S
C118 C115 1.378 . S
C118 N119 1.315 . S
C118 H121 0.930 . S
N119 Co99 2.194 . S
N119 C114 1.328 . S
N119 C118 1.315 . S
H120 C114 0.929 . S
H121 C118 0.930 . S
H122 C110 0.929 . S
H123 C112 0.929 . S
O124 Co99 2.351 . S
O124 C127 1.244 . S
O125 Co99 2.155 . S
O125 C127 1.240 . S
O126 Co99 2.096 . S
O126 C107 1.247 . S
C127 O124 1.244 . S
C127 O125 1.240 . S
H128 C102 0.931 . S
H129 C111 0.931 . S
H130 C115 0.929 . S
H131 C117 0.930 . S
Co132 N136 2.148 . S
Co132 N142 2.128 . S
Co132 N152 2.194 . S
Co132 O157 2.351 . S
Co132 O158 2.155 . S
Co132 O159 2.096 . S
C133 N136 1.301 . S
C133 N137 1.328 . S
C133 H138 0.930 . S
C134 C135 1.333 . S
C134 N136 1.317 . S
C134 H139 0.930 . S
C135 C134 1.333 . S
C135 N137 1.350 . S
C135 H161 0.931 . S
N136 Co132 2.148 . S
N136 C133 1.301 . S
N136 C134 1.317 . S
N137 C133 1.328 . S
N137 C135 1.350 . S
H138 C133 0.930 . S
H139 C134 0.930 . S
C140 O141 1.224 . S
C140 O159 1.247 . S
O141 C140 1.224 . S
N142 Co132 2.128 . S
N142 C143 1.355 . S
N142 C145 1.311 . S
C143 N142 1.355 . S
C143 C144 1.363 . S
C143 H155 0.929 . S
C144 C143 1.363 . S
C144 N146 1.375 . S
C144 H162 0.931 . S
C145 N142 1.311 . S
C145 N146 1.347 . S
C145 H156 0.929 . S
N146 C144 1.375 . S
N146 C145 1.347 . S
C147 C150 1.365 . S
C147 N152 1.328 . S
C147 H153 0.929 . S
C148 C149 1.362 . S
C148 C151 1.378 . S
C148 H163 0.929 . S
C149 C148 1.362 . S
C149 C150 1.366 . S
C150 C147 1.365 . S
C150 C149 1.366 . S
C150 H164 0.930 . S
C151 C148 1.378 . S
C151 N152 1.315 . S
C151 H154 0.930 . S
N152 Co132 2.194 . S
N152 C147 1.328 . S
N152 C151 1.315 . S
H153 C147 0.929 . S
H154 C151 0.930 . S
H155 C143 0.929 . S
H156 C145 0.929 . S
O157 Co132 2.351 . S
O157 C160 1.244 . S
O158 Co132 2.155 . S
O158 C160 1.240 . S
O159 Co132 2.096 . S
O159 C140 1.247 . S
C160 O157 1.244 . S
C160 O158 1.240 . S
H161 C135 0.931 . S
H162 C144 0.931 . S
H163 C148 0.929 . S
H164 C150 0.930 . S
Co165 N169 2.148 . S
Co165 N175 2.128 . S
Co165 N185 2.194 . S
Co165 O190 2.351 . S
Co165 O191 2.155 . S
Co165 O192 2.096 . S
C166 N169 1.301 . S
C166 N170 1.328 . S
C166 H171 0.930 . S
C167 C168 1.333 . S
C167 N169 1.317 . S
C167 H172 0.930 . S
C168 C167 1.333 . S
C168 N170 1.350 . S
C168 H194 0.931 . S
N169 Co165 2.148 . S
N169 C166 1.301 . S
N169 C167 1.317 . S
N170 C166 1.328 . S
N170 C168 1.350 . S
H171 C166 0.930 . S
H172 C167 0.930 . S
C173 O174 1.224 . S
C173 O192 1.247 . S
O174 C173 1.224 . S
N175 Co165 2.128 . S
N175 C176 1.355 . S
N175 C178 1.311 . S
C176 N175 1.355 . S
C176 C177 1.363 . S
C176 H188 0.929 . S
C177 C176 1.363 . S
C177 N179 1.375 . S
C177 H195 0.931 . S
C178 N175 1.311 . S
C178 N179 1.347 . S
C178 H189 0.929 . S
N179 C177 1.375 . S
N179 C178 1.347 . S
C180 C183 1.365 . S
C180 N185 1.328 . S
C180 H186 0.929 . S
C181 C182 1.362 . S
C181 C184 1.378 . S
C181 H196 0.929 . S
C182 C181 1.362 . S
C182 C183 1.366 . S
C183 C180 1.365 . S
C183 C182 1.366 . S
C183 H197 0.930 . S
C184 C181 1.378 . S
C184 N185 1.315 . S
C184 H187 0.930 . S
N185 Co165 2.194 . S
N185 C180 1.328 . S
N185 C184 1.315 . S
H186 C180 0.929 . S
H187 C184 0.930 . S
H188 C176 0.929 . S
H189 C178 0.929 . S
O190 Co165 2.351 . S
O190 C193 1.244 . S
O191 Co165 2.155 . S
O191 C193 1.240 . S
O192 Co165 2.096 . S
O192 C173 1.247 . S
C193 O190 1.244 . S
C193 O191 1.240 . S
H194 C168 0.931 . S
H195 C177 0.931 . S
H196 C181 0.929 . S
H197 C183 0.930 . S
Co198 N202 2.148 . S
Co198 N208 2.128 . S
Co198 N218 2.194 . S
Co198 O223 2.351 . S
Co198 O224 2.155 . S
Co198 O225 2.096 . S
C199 N202 1.301 . S
C199 N203 1.328 . S
C199 H204 0.930 . S
C200 C201 1.333 . S
C200 N202 1.317 . S
C200 H205 0.930 . S
C201 C200 1.333 . S
C201 N203 1.350 . S
C201 H227 0.931 . S
N202 Co198 2.148 . S
N202 C199 1.301 . S
N202 C200 1.317 . S
N203 C199 1.328 . S
N203 C201 1.350 . S
H204 C199 0.930 . S
H205 C200 0.930 . S
C206 O207 1.224 . S
C206 O225 1.247 . S
O207 C206 1.224 . S
N208 Co198 2.128 . S
N208 C209 1.355 . S
N208 C211 1.311 . S
C209 N208 1.355 . S
C209 C210 1.363 . S
C209 H221 0.929 . S
C210 C209 1.363 . S
C210 N212 1.375 . S
C210 H228 0.931 . S
C211 N208 1.311 . S
C211 N212 1.347 . S
C211 H222 0.929 . S
N212 C210 1.375 . S
N212 C211 1.347 . S
C213 C216 1.365 . S
C213 N218 1.328 . S
C213 H219 0.929 . S
C214 C215 1.362 . S
C214 C217 1.378 . S
C214 H229 0.929 . S
C215 C214 1.362 . S
C215 C216 1.366 . S
C216 C213 1.365 . S
C216 C215 1.366 . S
C216 H230 0.930 . S
C217 C214 1.378 . S
C217 N218 1.315 . S
C217 H220 0.930 . S
N218 Co198 2.194 . S
N218 C213 1.328 . S
N218 C217 1.315 . S
H219 C213 0.929 . S
H220 C217 0.930 . S
H221 C209 0.929 . S
H222 C211 0.929 . S
O223 Co198 2.351 . S
O223 C226 1.244 . S
O224 Co198 2.155 . S
O224 C226 1.240 . S
O225 Co198 2.096 . S
O225 C206 1.247 . S
C226 O223 1.244 . S
C226 O224 1.240 . S
H227 C201 0.931 . S
H228 C210 0.931 . S
H229 C214 0.929 . S
H230 C216 0.930 . S
Co231 N235 2.148 . S
Co231 N241 2.128 . S
Co231 N251 2.194 . S
Co231 O256 2.351 . S
Co231 O257 2.155 . S
Co231 O258 2.096 . S
C232 N235 1.301 . S
C232 N236 1.328 . S
C232 H237 0.930 . S
C233 C234 1.333 . S
C233 N235 1.317 . S
C233 H238 0.930 . S
C234 C233 1.333 . S
C234 N236 1.350 . S
C234 H260 0.931 . S
N235 Co231 2.148 . S
N235 C232 1.301 . S
N235 C233 1.317 . S
N236 C232 1.328 . S
N236 C234 1.350 . S
H237 C232 0.930 . S
H238 C233 0.930 . S
C239 O240 1.224 . S
C239 O258 1.247 . S
O240 C239 1.224 . S
N241 Co231 2.128 . S
N241 C242 1.355 . S
N241 C244 1.311 . S
C242 N241 1.355 . S
C242 C243 1.363 . S
C242 H254 0.929 . S
C243 C242 1.363 . S
C243 N245 1.375 . S
C243 H261 0.931 . S
C244 N241 1.311 . S
C244 N245 1.347 . S
C244 H255 0.929 . S
N245 C243 1.375 . S
N245 C244 1.347 . S
C246 C249 1.365 . S
C246 N251 1.328 . S
C246 H252 0.929 . S
C247 C248 1.362 . S
C247 C250 1.378 . S
C247 H262 0.929 . S
C248 C247 1.362 . S
C248 C249 1.366 . S
C249 C246 1.365 . S
C249 C248 1.366 . S
C249 H263 0.930 . S
C250 C247 1.378 . S
C250 N251 1.315 . S
C250 H253 0.930 . S
N251 Co231 2.194 . S
N251 C246 1.328 . S
N251 C250 1.315 . S
H252 C246 0.929 . S
H253 C250 0.930 . S
H254 C242 0.929 . S
H255 C244 0.929 . S
O256 Co231 2.351 . S
O256 C259 1.244 . S
O257 Co231 2.155 . S
O257 C259 1.240 . S
O258 Co231 2.096 . S
O258 C239 1.247 . S
C259 O256 1.244 . S
C259 O257 1.240 . S
H260 C234 0.931 . S
H261 C243 0.931 . S
H262 C247 0.929 . S
H263 C249 0.930 . S
Co264 N268 2.148 . S
Co264 N274 2.128 . S
Co264 N284 2.194 . S
Co264 O289 2.351 . S
Co264 O290 2.155 . S
Co264 O291 2.096 . S
C265 N268 1.301 . S
C265 N269 1.328 . S
C265 H270 0.930 . S
C266 C267 1.333 . S
C266 N268 1.317 . S
C266 H271 0.930 . S
C267 C266 1.333 . S
C267 N269 1.350 . S
C267 H293 0.931 . S
N268 Co264 2.148 . S
N268 C265 1.301 . S
N268 C266 1.317 . S
N269 C265 1.328 . S
N269 C267 1.350 . S
H270 C265 0.930 . S
H271 C266 0.930 . S
C272 O273 1.224 . S
C272 O291 1.247 . S
O273 C272 1.224 . S
N274 Co264 2.128 . S
N274 C275 1.355 . S
N274 C277 1.311 . S
C275 N274 1.355 . S
C275 C276 1.363 . S
C275 H287 0.929 . S
C276 C275 1.363 . S
C276 N278 1.375 . S
C276 H294 0.931 . S
C277 N274 1.311 . S
C277 N278 1.347 . S
C277 H288 0.929 . S
N278 C276 1.375 . S
N278 C277 1.347 . S
C279 C282 1.365 . S
C279 N284 1.328 . S
C279 H285 0.929 . S
C280 C281 1.362 . S
C280 C283 1.378 . S
C280 H295 0.929 . S
C281 C280 1.362 . S
C281 C282 1.366 . S
C282 C279 1.365 . S
C282 C281 1.366 . S
C282 H296 0.930 . S
C283 C280 1.378 . S
C283 N284 1.315 . S
C283 H286 0.930 . S
N284 Co264 2.194 . S
N284 C279 1.328 . S
N284 C283 1.315 . S
H285 C279 0.929 . S
H286 C283 0.930 . S
H287 C275 0.929 . S
H288 C277 0.929 . S
O289 Co264 2.351 . S
O289 C292 1.244 . S
O290 Co264 2.155 . S
O290 C292 1.240 . S
O291 Co264 2.096 . S
O291 C272 1.247 . S
C292 O289 1.244 . S
C292 O290 1.240 . S
H293 C267 0.931 . S
H294 C276 0.931 . S
H295 C280 0.929 . S
H296 C282 0.930 . S
Co297 N301 2.148 . S
Co297 N307 2.128 . S
Co297 N317 2.194 . S
Co297 O322 2.351 . S
Co297 O323 2.155 . S
Co297 O324 2.096 . S
C298 N301 1.301 . S
C298 N302 1.328 . S
C298 H303 0.930 . S
C299 C300 1.333 . S
C299 N301 1.317 . S
C299 H304 0.930 . S
C300 C299 1.333 . S
C300 N302 1.350 . S
C300 H326 0.931 . S
N301 Co297 2.148 . S
N301 C298 1.301 . S
N301 C299 1.317 . S
N302 C298 1.328 . S
N302 C300 1.350 . S
H303 C298 0.930 . S
H304 C299 0.930 . S
C305 O306 1.224 . S
C305 O324 1.247 . S
O306 C305 1.224 . S
N307 Co297 2.128 . S
N307 C308 1.355 . S
N307 C310 1.311 . S
C308 N307 1.355 . S
C308 C309 1.363 . S
C308 H320 0.929 . S
C309 C308 1.363 . S
C309 N311 1.375 . S
C309 H327 0.931 . S
C310 N307 1.311 . S
C310 N311 1.347 . S
C310 H321 0.929 . S
N311 C309 1.375 . S
N311 C310 1.347 . S
C312 C315 1.365 . S
C312 N317 1.328 . S
C312 H318 0.929 . S
C313 C314 1.362 . S
C313 C316 1.378 . S
C313 H328 0.929 . S
C314 C313 1.362 . S
C314 C315 1.366 . S
C315 C312 1.365 . S
C315 C314 1.366 . S
C315 H329 0.930 . S
C316 C313 1.378 . S
C316 N317 1.315 . S
C316 H319 0.930 . S
N317 Co297 2.194 . S
N317 C312 1.328 . S
N317 C316 1.315 . S
H318 C312 0.929 . S
H319 C316 0.930 . S
H320 C308 0.929 . S
H321 C310 0.929 . S
O322 Co297 2.351 . S
O322 C325 1.244 . S
O323 Co297 2.155 . S
O323 C325 1.240 . S
O324 Co297 2.096 . S
O324 C305 1.247 . S
C325 O322 1.244 . S
C325 O323 1.240 . S
H326 C300 0.931 . S
H327 C309 0.931 . S
H328 C313 0.929 . S
H329 C315 0.930 . S
Co330 N334 2.148 . S
Co330 N340 2.128 . S
Co330 N350 2.194 . S
Co330 O355 2.351 . S
Co330 O356 2.155 . S
Co330 O357 2.096 . S
C331 N334 1.301 . S
C331 N335 1.328 . S
C331 H336 0.930 . S
C332 C333 1.333 . S
C332 N334 1.317 . S
C332 H337 0.930 . S
C333 C332 1.333 . S
C333 N335 1.350 . S
C333 H359 0.931 . S
N334 Co330 2.148 . S
N334 C331 1.301 . S
N334 C332 1.317 . S
N335 C331 1.328 . S
N335 C333 1.350 . S
H336 C331 0.930 . S
H337 C332 0.930 . S
C338 O339 1.224 . S
C338 O357 1.247 . S
O339 C338 1.224 . S
N340 Co330 2.128 . S
N340 C341 1.355 . S
N340 C343 1.311 . S
C341 N340 1.355 . S
C341 C342 1.363 . S
C341 H353 0.929 . S
C342 C341 1.363 . S
C342 N344 1.375 . S
C342 H360 0.931 . S
C343 N340 1.311 . S
C343 N344 1.347 . S
C343 H354 0.929 . S
N344 C342 1.375 . S
N344 C343 1.347 . S
C345 C348 1.365 . S
C345 N350 1.328 . S
C345 H351 0.929 . S
C346 C347 1.362 . S
C346 C349 1.378 . S
C346 H361 0.929 . S
C347 C346 1.362 . S
C347 C348 1.366 . S
C348 C345 1.365 . S
C348 C347 1.366 . S
C348 H362 0.930 . S
C349 C346 1.378 . S
C349 N350 1.315 . S
C349 H352 0.930 . S
N350 Co330 2.194 . S
N350 C345 1.328 . S
N350 C349 1.315 . S
H351 C345 0.929 . S
H352 C349 0.930 . S
H353 C341 0.929 . S
H354 C343 0.929 . S
O355 Co330 2.351 . S
O355 C358 1.244 . S
O356 Co330 2.155 . S
O356 C358 1.240 . S
O357 Co330 2.096 . S
O357 C338 1.247 . S
C358 O355 1.244 . S
C358 O356 1.240 . S
H359 C333 0.931 . S
H360 C342 0.931 . S
H361 C346 0.929 . S
H362 C348 0.930 . S
Co363 N367 2.148 . S
Co363 N373 2.128 . S
Co363 N383 2.194 . S
Co363 O388 2.351 . S
Co363 O389 2.155 . S
Co363 O390 2.096 . S
C364 N367 1.301 . S
C364 N368 1.328 . S
C364 H369 0.930 . S
C365 C366 1.333 . S
C365 N367 1.317 . S
C365 H370 0.930 . S
C366 C365 1.333 . S
C366 N368 1.350 . S
C366 H392 0.931 . S
N367 Co363 2.148 . S
N367 C364 1.301 . S
N367 C365 1.317 . S
N368 C364 1.328 . S
N368 C366 1.350 . S
H369 C364 0.930 . S
H370 C365 0.930 . S
C371 O372 1.224 . S
C371 O390 1.247 . S
O372 C371 1.224 . S
N373 Co363 2.128 . S
N373 C374 1.355 . S
N373 C376 1.311 . S
C374 N373 1.355 . S
C374 C375 1.363 . S
C374 H386 0.929 . S
C375 C374 1.363 . S
C375 N377 1.375 . S
C375 H393 0.931 . S
C376 N373 1.311 . S
C376 N377 1.347 . S
C376 H387 0.929 . S
N377 C375 1.375 . S
N377 C376 1.347 . S
C378 C381 1.365 . S
C378 N383 1.328 . S
C378 H384 0.929 . S
C379 C380 1.362 . S
C379 C382 1.378 . S
C379 H394 0.929 . S
C380 C379 1.362 . S
C380 C381 1.366 . S
C381 C378 1.365 . S
C381 C380 1.366 . S
C381 H395 0.930 . S
C382 C379 1.378 . S
C382 N383 1.315 . S
C382 H385 0.930 . S
N383 Co363 2.194 . S
N383 C378 1.328 . S
N383 C382 1.315 . S
H384 C378 0.929 . S
H385 C382 0.930 . S
H386 C374 0.929 . S
H387 C376 0.929 . S
O388 Co363 2.351 . S
O388 C391 1.244 . S
O389 Co363 2.155 . S
O389 C391 1.240 . S
O390 Co363 2.096 . S
O390 C371 1.247 . S
C391 O388 1.244 . S
C391 O389 1.240 . S
H392 C366 0.931 . S
H393 C375 0.931 . S
H394 C379 0.929 . S
H395 C381 0.930 . S
Co396 N400 2.148 . S
Co396 N406 2.128 . S
Co396 N416 2.194 . S
Co396 O421 2.351 . S
Co396 O422 2.155 . S
Co396 O423 2.096 . S
C397 N400 1.301 . S
C397 N401 1.328 . S
C397 H402 0.930 . S
C398 C399 1.333 . S
C398 N400 1.317 . S
C398 H403 0.930 . S
C399 C398 1.333 . S
C399 N401 1.350 . S
C399 H425 0.931 . S
N400 Co396 2.148 . S
N400 C397 1.301 . S
N400 C398 1.317 . S
N401 C397 1.328 . S
N401 C399 1.350 . S
H402 C397 0.930 . S
H403 C398 0.930 . S
C404 O405 1.224 . S
C404 O423 1.247 . S
O405 C404 1.224 . S
N406 Co396 2.128 . S
N406 C407 1.355 . S
N406 C409 1.311 . S
C407 N406 1.355 . S
C407 C408 1.363 . S
C407 H419 0.929 . S
C408 C407 1.363 . S
C408 N410 1.375 . S
C408 H426 0.931 . S
C409 N406 1.311 . S
C409 N410 1.347 . S
C409 H420 0.929 . S
N410 C408 1.375 . S
N410 C409 1.347 . S
C411 C414 1.365 . S
C411 N416 1.328 . S
C411 H417 0.929 . S
C412 C413 1.362 . S
C412 C415 1.378 . S
C412 H427 0.929 . S
C413 C412 1.362 . S
C413 C414 1.366 . S
C414 C411 1.365 . S
C414 C413 1.366 . S
C414 H428 0.930 . S
C415 C412 1.378 . S
C415 N416 1.315 . S
C415 H418 0.930 . S
N416 Co396 2.194 . S
N416 C411 1.328 . S
N416 C415 1.315 . S
H417 C411 0.929 . S
H418 C415 0.930 . S
H419 C407 0.929 . S
H420 C409 0.929 . S
O421 Co396 2.351 . S
O421 C424 1.244 . S
O422 Co396 2.155 . S
O422 C424 1.240 . S
O423 Co396 2.096 . S
O423 C404 1.247 . S
C424 O421 1.244 . S
C424 O422 1.240 . S
H425 C399 0.931 . S
H426 C408 0.931 . S
H427 C412 0.929 . S
H428 C414 0.930 . S
Co429 N433 2.148 . S
Co429 N439 2.128 . S
Co429 N449 2.194 . S
Co429 O454 2.351 . S
Co429 O455 2.155 . S
Co429 O456 2.096 . S
C430 N433 1.301 . S
C430 N434 1.328 . S
C430 H435 0.930 . S
C431 C432 1.333 . S
C431 N433 1.317 . S
C431 H436 0.930 . S
C432 C431 1.333 . S
C432 N434 1.350 . S
C432 H458 0.931 . S
N433 Co429 2.148 . S
N433 C430 1.301 . S
N433 C431 1.317 . S
N434 C430 1.328 . S
N434 C432 1.350 . S
H435 C430 0.930 . S
H436 C431 0.930 . S
C437 O438 1.224 . S
C437 O456 1.247 . S
O438 C437 1.224 . S
N439 Co429 2.128 . S
N439 C440 1.355 . S
N439 C442 1.311 . S
C440 N439 1.355 . S
C440 C441 1.363 . S
C440 H452 0.929 . S
C441 C440 1.363 . S
C441 N443 1.375 . S
C441 H459 0.931 . S
C442 N439 1.311 . S
C442 N443 1.347 . S
C442 H453 0.929 . S
N443 C441 1.375 . S
N443 C442 1.347 . S
C444 C447 1.365 . S
C444 N449 1.328 . S
C444 H450 0.929 . S
C445 C446 1.362 . S
C445 C448 1.378 . S
C445 H460 0.929 . S
C446 C445 1.362 . S
C446 C447 1.366 . S
C447 C444 1.365 . S
C447 C446 1.366 . S
C447 H461 0.930 . S
C448 C445 1.378 . S
C448 N449 1.315 . S
C448 H451 0.930 . S
N449 Co429 2.194 . S
N449 C444 1.328 . S
N449 C448 1.315 . S
H450 C444 0.929 . S
H451 C448 0.930 . S
H452 C440 0.929 . S
H453 C442 0.929 . S
O454 Co429 2.351 . S
O454 C457 1.244 . S
O455 Co429 2.155 . S
O455 C457 1.240 . S
O456 Co429 2.096 . S
O456 C437 1.247 . S
C457 O454 1.244 . S
C457 O455 1.240 . S
H458 C432 0.931 . S
H459 C441 0.931 . S
H460 C445 0.929 . S
H461 C447 0.930 . S
Co462 N466 2.148 . S
Co462 N472 2.128 . S
Co462 N482 2.194 . S
Co462 O487 2.351 . S
Co462 O488 2.155 . S
Co462 O489 2.096 . S
C463 N466 1.301 . S
C463 N467 1.328 . S
C463 H468 0.930 . S
C464 C465 1.333 . S
C464 N466 1.317 . S
C464 H469 0.930 . S
C465 C464 1.333 . S
C465 N467 1.350 . S
C465 H491 0.931 . S
N466 Co462 2.148 . S
N466 C463 1.301 . S
N466 C464 1.317 . S
N467 C463 1.328 . S
N467 C465 1.350 . S
H468 C463 0.930 . S
H469 C464 0.930 . S
C470 O471 1.224 . S
C470 O489 1.247 . S
O471 C470 1.224 . S
N472 Co462 2.128 . S
N472 C473 1.355 . S
N472 C475 1.311 . S
C473 N472 1.355 . S
C473 C474 1.363 . S
C473 H485 0.929 . S
C474 C473 1.363 . S
C474 N476 1.375 . S
C474 H492 0.931 . S
C475 N472 1.311 . S
C475 N476 1.347 . S
C475 H486 0.929 . S
N476 C474 1.375 . S
N476 C475 1.347 . S
C477 C480 1.365 . S
C477 N482 1.328 . S
C477 H483 0.929 . S
C478 C479 1.362 . S
C478 C481 1.378 . S
C478 H493 0.929 . S
C479 C478 1.362 . S
C479 C480 1.366 . S
C480 C477 1.365 . S
C480 C479 1.366 . S
C480 H494 0.930 . S
C481 C478 1.378 . S
C481 N482 1.315 . S
C481 H484 0.930 . S
N482 Co462 2.194 . S
N482 C477 1.328 . S
N482 C481 1.315 . S
H483 C477 0.929 . S
H484 C481 0.930 . S
H485 C473 0.929 . S
H486 C475 0.929 . S
O487 Co462 2.351 . S
O487 C490 1.244 . S
O488 Co462 2.155 . S
O488 C490 1.240 . S
O489 Co462 2.096 . S
O489 C470 1.247 . S
C490 O487 1.244 . S
C490 O488 1.240 . S
H491 C465 0.931 . S
H492 C474 0.931 . S
H493 C478 0.929 . S
H494 C480 0.930 . S
Co495 N499 2.148 . S
Co495 N505 2.128 . S
Co495 N515 2.194 . S
Co495 O520 2.351 . S
Co495 O521 2.155 . S
Co495 O522 2.096 . S
C496 N499 1.301 . S
C496 N500 1.328 . S
C496 H501 0.930 . S
C497 C498 1.333 . S
C497 N499 1.317 . S
C497 H502 0.930 . S
C498 C497 1.333 . S
C498 N500 1.350 . S
C498 H524 0.931 . S
N499 Co495 2.148 . S
N499 C496 1.301 . S
N499 C497 1.317 . S
N500 C496 1.328 . S
N500 C498 1.350 . S
H501 C496 0.930 . S
H502 C497 0.930 . S
C503 O504 1.224 . S
C503 O522 1.247 . S
O504 C503 1.224 . S
N505 Co495 2.128 . S
N505 C506 1.355 . S
N505 C508 1.311 . S
C506 N505 1.355 . S
C506 C507 1.363 . S
C506 H518 0.929 . S
C507 C506 1.363 . S
C507 N509 1.375 . S
C507 H525 0.931 . S
C508 N505 1.311 . S
C508 N509 1.347 . S
C508 H519 0.929 . S
N509 C507 1.375 . S
N509 C508 1.347 . S
C510 C513 1.365 . S
C510 N515 1.328 . S
C510 H516 0.929 . S
C511 C512 1.362 . S
C511 C514 1.378 . S
C511 H526 0.929 . S
C512 C511 1.362 . S
C512 C513 1.366 . S
C513 C510 1.365 . S
C513 C512 1.366 . S
C513 H527 0.930 . S
C514 C511 1.378 . S
C514 N515 1.315 . S
C514 H517 0.930 . S
N515 Co495 2.194 . S
N515 C510 1.328 . S
N515 C514 1.315 . S
H516 C510 0.929 . S
H517 C514 0.930 . S
H518 C506 0.929 . S
H519 C508 0.929 . S
O520 Co495 2.351 . S
O520 C523 1.244 . S
O521 Co495 2.155 . S
O521 C523 1.240 . S
O522 Co495 2.096 . S
O522 C503 1.247 . S
C523 O520 1.244 . S
C523 O521 1.240 . S
H524 C498 0.931 . S
H525 C507 0.931 . S
H526 C511 0.929 . S
H527 C513 0.930 . S
H528 C536 0.950 . S
H529 C541 0.950 . S
H530 C538 0.950 . S
H531 C540 0.950 . S
H532 C542 0.950 . S
H533 C544 0.950 . S
H534 C546 0.950 . S
H535 C547 0.950 . S
C536 H528 0.950 . S
C536 C537 1.386 . S
C536 C538 1.391 . S
C537 C536 1.386 . S
C537 C541 1.393 . S
C538 H530 0.950 . S
C538 C536 1.391 . S
C538 C539 1.400 . S
C539 C538 1.400 . S
C539 C540 1.398 . S
C539 C545 1.491 . S
C540 H531 0.950 . S
C540 C539 1.398 . S
C540 C541 1.391 . S
C541 H529 0.950 . S
C541 C537 1.393 . S
C541 C540 1.391 . S
C542 H532 0.950 . S
C542 C543 1.386 . S
C542 C544 1.391 . S
C543 C542 1.386 . S
C543 C547 1.393 . S
C544 H533 0.950 . S
C544 C542 1.391 . S
C544 C545 1.400 . S
C545 C539 1.491 . S
C545 C544 1.400 . S
C545 C546 1.398 . S
C546 H534 0.950 . S
C546 C545 1.398 . S
C546 C547 1.391 . S
C547 H535 0.950 . S
C547 C543 1.393 . S
C547 C546 1.391 . S
H548 C556 0.950 . S
H549 C561 0.950 . S
H550 C558 0.951 . S
H551 C560 0.950 . S
H552 C562 0.951 . S
H553 C564 0.950 . S
H554 C566 0.950 . S
H555 C567 0.950 . S
C556 H548 0.950 . S
C556 C557 1.386 . S
C556 C558 1.390 1_655 S
C557 C556 1.386 . S
C557 C561 1.393 . S
C558 H550 0.951 . S
C558 C556 1.390 1_455 S
C558 C559 1.401 . S
C559 C558 1.401 . S
C559 C560 1.398 1_455 S
C559 C565 1.491 . S
C560 H551 0.950 . S
C560 C559 1.398 1_655 S
C560 C561 1.391 . S
C561 H549 0.950 . S
C561 C557 1.393 . S
C561 C560 1.391 . S
C562 H552 0.951 . S
C562 C563 1.380 1_545 S
C562 C564 1.395 . S
C563 C562 1.380 1_565 S
C563 C567 1.393 . S
C564 H553 0.950 . S
C564 C562 1.395 . S
C564 C565 1.400 . S
C565 C559 1.491 . S
C565 C564 1.400 . S
C565 C566 1.398 1_545 S
C566 H554 0.950 . S
C566 C565 1.398 1_565 S
C566 C567 1.391 . S
C567 H555 0.950 . S
C567 C563 1.393 . S
C567 C566 1.391 . S
H568 C576 0.950 . S
H569 C581 0.950 . S
H570 C578 0.950 . S
H571 C580 0.950 . S
H572 C582 0.950 . S
H573 C584 0.950 . S
H574 C586 0.950 . S
H575 C587 0.950 . S
C576 H568 0.950 . S
C576 C577 1.386 . S
C576 C578 1.391 . S
C577 C576 1.386 . S
C577 C581 1.393 . S
C578 H570 0.950 . S
C578 C576 1.391 . S
C578 C579 1.400 . S
C579 C578 1.400 . S
C579 C580 1.398 . S
C579 C585 1.491 . S
C580 H571 0.950 . S
C580 C579 1.398 . S
C580 C581 1.391 . S
C581 H569 0.950 . S
C581 C577 1.393 . S
C581 C580 1.391 . S
C582 H572 0.950 . S
C582 C583 1.386 . S
C582 C584 1.391 . S
C583 C582 1.386 . S
C583 C587 1.393 . S
C584 H573 0.950 . S
C584 C582 1.391 . S
C584 C585 1.400 . S
C585 C579 1.491 . S
C585 C584 1.400 . S
C585 C586 1.398 . S
C586 H574 0.950 . S
C586 C585 1.398 . S
C586 C587 1.391 . S
C587 H575 0.950 . S
C587 C583 1.393 . S
C587 C586 1.391 . S
H588 C596 0.950 . S
H589 C601 0.950 1_565 S
H590 C598 0.950 . S
H591 C600 0.950 . S
H592 C602 0.950 . S
H593 C604 0.950 1_556 S
H594 C606 0.929 1_545 S
H595 C607 0.950 . S
C596 H588 0.950 . S
C596 C597 1.386 . S
C596 C598 1.391 1_556 S
C597 C596 1.386 . S
C597 C601 1.393 . S
C598 H590 0.950 . S
C598 C596 1.391 1_554 S
C598 C599 1.430 1_554 S
C599 C598 1.430 1_556 S
C599 C600 1.386 1_545 S
C599 C605 1.474 1_546 S
C600 H591 0.950 . S
C600 C599 1.386 1_565 S
C600 C601 1.391 1_565 S
C601 H589 0.950 1_545 S
C601 C597 1.393 . S
C601 C600 1.391 1_545 S
C602 H592 0.950 . S
C602 C603 1.386 . S
C602 C604 1.391 . S
C603 C602 1.386 . S
C603 C607 1.393 . S
C604 H593 0.950 1_554 S
C604 C602 1.391 . S
C604 C605 1.400 . S
C605 C599 1.474 1_564 S
C605 C604 1.400 . S
C605 C606 1.407 . S
C606 H594 0.929 1_565 S
C606 C605 1.407 . S
C606 C607 1.403 . S
C607 H595 0.950 . S
C607 C603 1.393 . S
C607 C606 1.403 . S
H608 C616 0.950 . S
H609 C621 0.950 . S
H610 C618 0.950 . S
H611 C620 0.950 . S
H612 C622 0.950 . S
H613 C624 0.950 . S
H614 C626 0.950 . S
H615 C627 0.950 . S
C616 H608 0.950 . S
C616 C617 1.386 . S
C616 C618 1.391 . S
C617 C616 1.386 . S
C617 C621 1.393 . S
C618 H610 0.950 . S
C618 C616 1.391 . S
C618 C619 1.400 . S
C619 C618 1.400 . S
C619 C620 1.398 . S
C619 C625 1.491 . S
C620 H611 0.950 . S
C620 C619 1.398 . S
C620 C621 1.391 . S
C621 H609 0.950 . S
C621 C617 1.393 . S
C621 C620 1.391 . S
C622 H612 0.950 . S
C622 C623 1.386 . S
C622 C624 1.391 . S
C623 C622 1.386 . S
C623 C627 1.393 . S
C624 H613 0.950 . S
C624 C622 1.391 . S
C624 C625 1.400 . S
C625 C619 1.491 . S
C625 C624 1.400 . S
C625 C626 1.398 . S
C626 H614 0.950 . S
C626 C625 1.398 . S
C626 C627 1.391 . S
C627 H615 0.950 . S
C627 C623 1.393 . S
C627 C626 1.391 . S
H628 C636 0.950 . S
H629 C641 0.950 . S
H630 C638 0.950 1_545 S
H631 C640 0.950 . S
H632 C642 0.950 1_565 S
H633 C644 0.950 . S
H634 C646 0.950 . S
H635 C647 0.950 . S
C636 H628 0.950 . S
C636 C637 1.386 . S
C636 C638 1.391 . S
C637 C636 1.386 . S
C637 C641 1.393 . S
C638 H630 0.950 1_565 S
C638 C636 1.391 . S
C638 C639 1.400 . S
C639 C638 1.400 . S
C639 C640 1.398 . S
C639 C645 1.491 . S
C640 H631 0.950 . S
C640 C639 1.398 . S
C640 C641 1.391 . S
C641 H629 0.950 . S
C641 C637 1.393 . S
C641 C640 1.391 . S
C642 H632 0.950 1_545 S
C642 C643 1.386 . S
C642 C644 1.391 1_545 S
C643 C642 1.386 . S
C643 C647 1.393 . S
C644 H633 0.950 . S
C644 C642 1.391 1_565 S
C644 C645 1.400 . S
C645 C639 1.491 . S
C645 C644 1.400 . S
C645 C646 1.398 1_565 S
C646 H634 0.950 . S
C646 C645 1.398 1_545 S
C646 C647 1.391 . S
C647 H635 0.950 . S
C647 C643 1.393 . S
C647 C646 1.391 . S
H648 C656 0.950 . S
H649 C661 0.950 . S
H650 C658 0.950 . S
H651 C660 0.950 . S
H652 C662 0.950 . S
H653 C664 0.950 . S
H654 C666 0.950 . S
H655 C667 0.950 . S
C656 H648 0.950 . S
C656 C657 1.386 . S
C656 C658 1.391 . S
C657 C656 1.386 . S
C657 C661 1.393 . S
C658 H650 0.950 . S
C658 C656 1.391 . S
C658 C659 1.400 . S
C659 C658 1.400 . S
C659 C660 1.398 . S
C659 C665 1.491 . S
C660 H651 0.950 . S
C660 C659 1.398 . S
C660 C661 1.391 . S
C661 H649 0.950 . S
C661 C657 1.393 . S
C661 C660 1.391 . S
C662 H652 0.950 . S
C662 C663 1.386 . S
C662 C664 1.391 . S
C663 C662 1.386 . S
C663 C667 1.393 . S
C664 H653 0.950 . S
C664 C662 1.391 . S
C664 C665 1.400 . S
C665 C659 1.491 . S
C665 C664 1.400 . S
C665 C666 1.398 . S
C666 H654 0.950 . S
C666 C665 1.398 . S
C666 C667 1.391 . S
C667 H655 0.950 . S
C667 C663 1.393 . S
C667 C666 1.391 . S
H668 C676 0.950 . S
H669 C681 0.950 . S
H670 C678 0.950 . S
H671 C680 0.950 1_565 S
H672 C682 0.950 . S
H673 C684 0.950 1_455 S
H674 C686 0.931 1_545 S
H675 C687 0.950 . S
C676 H668 0.950 . S
C676 C677 1.386 . S
C676 C678 1.391 1_455 S
C677 C676 1.386 . S
C677 C681 1.393 . S
C678 H670 0.950 . S
C678 C676 1.391 1_655 S
C678 C679 1.400 1_655 S
C679 C678 1.400 1_455 S
C679 C680 1.398 . S
C679 C685 1.491 1_444 S
C680 H671 0.950 1_545 S
C680 C679 1.398 . S
C680 C681 1.391 . S
C681 H669 0.950 . S
C681 C677 1.393 . S
C681 C680 1.391 . S
C682 H672 0.950 . S
C682 C683 1.386 . S
C682 C684 1.391 . S
C683 C682 1.386 . S
C683 C687 1.393 . S
C684 H673 0.950 1_655 S
C684 C682 1.391 . S
C684 C685 1.400 . S
C685 C679 1.491 1_666 S
C685 C684 1.400 . S
C685 C686 1.403 . S
C686 H674 0.931 1_565 S
C686 C685 1.403 . S
C686 C687 1.405 . S
C687 H675 0.950 . S
C687 C683 1.393 . S
C687 C686 1.405 . S
H688 C696 0.950 . S
H689 C701 0.950 . S
H690 C698 0.950 . S
H691 C700 0.950 . S
H692 C702 0.950 . S
H693 C704 0.950 . S
H694 C706 0.950 . S
H695 C707 0.950 . S
C696 H688 0.950 . S
C696 C697 1.386 . S
C696 C698 1.391 . S
C697 C696 1.386 . S
C697 C701 1.393 . S
C698 H690 0.950 . S
C698 C696 1.391 . S
C698 C699 1.400 . S
C699 C698 1.400 . S
C699 C700 1.398 . S
C699 C705 1.491 . S
C700 H691 0.950 . S
C700 C699 1.398 . S
C700 C701 1.391 . S
C701 H689 0.950 . S
C701 C697 1.393 . S
C701 C700 1.391 . S
C702 H692 0.950 . S
C702 C703 1.386 . S
C702 C704 1.391 . S
C703 C702 1.386 . S
C703 C707 1.393 . S
C704 H693 0.950 . S
C704 C702 1.391 . S
C704 C705 1.400 . S
C705 C699 1.491 . S
C705 C704 1.400 . S
C705 C706 1.398 . S
C706 H694 0.950 . S
C706 C705 1.398 . S
C706 C707 1.391 . S
C707 H695 0.950 . S
C707 C703 1.393 . S
C707 C706 1.391 . S
H708 C716 0.950 . S
H709 C721 0.950 . S
H710 C718 0.950 1_655 S
H711 C720 0.950 1_554 S
H712 C722 0.950 1_455 S
H713 C724 0.950 . S
H714 C726 0.950 1_556 S
H715 C727 0.950 . S
C716 H708 0.950 . S
C716 C717 1.386 . S
C716 C718 1.391 . S
C717 C716 1.386 . S
C717 C721 1.393 . S
C718 H710 0.950 1_455 S
C718 C716 1.391 . S
C718 C719 1.400 . S
C719 C718 1.400 . S
C719 C720 1.398 . S
C719 C725 1.491 1_556 S
C720 H711 0.950 1_556 S
C720 C719 1.398 . S
C720 C721 1.391 . S
C721 H709 0.950 . S
C721 C717 1.393 . S
C721 C720 1.391 . S
C722 H712 0.950 1_655 S
C722 C723 1.386 . S
C722 C724 1.391 1_655 S
C723 C722 1.386 . S
C723 C727 1.393 . S
C724 H713 0.950 . S
C724 C722 1.391 1_455 S
C724 C725 1.400 . S
C725 C719 1.491 1_554 S
C725 C724 1.400 . S
C725 C726 1.398 1_455 S
C726 H714 0.950 1_554 S
C726 C725 1.398 1_655 S
C726 C727 1.391 . S
C727 H715 0.950 . S
C727 C723 1.393 . S
C727 C726 1.391 . S
H728 C736 0.950 . S
H729 C741 0.950 . S
H730 C738 0.950 . S
H731 C740 0.950 . S
H732 C742 0.950 . S
H733 C744 0.950 . S
H734 C746 0.950 . S
H735 C747 0.950 . S
C736 H728 0.950 . S
C736 C737 1.386 . S
C736 C738 1.391 . S
C737 C736 1.386 . S
C737 C741 1.393 . S
C738 H730 0.950 . S
C738 C736 1.391 . S
C738 C739 1.400 . S
C739 C738 1.400 . S
C739 C740 1.398 . S
C739 C745 1.491 . S
C740 H731 0.950 . S
C740 C739 1.398 . S
C740 C741 1.391 . S
C741 H729 0.950 . S
C741 C737 1.393 . S
C741 C740 1.391 . S
C742 H732 0.950 . S
C742 C743 1.386 . S
C742 C744 1.391 . S
C743 C742 1.386 . S
C743 C747 1.393 . S
C744 H733 0.950 . S
C744 C742 1.391 . S
C744 C745 1.400 . S
C745 C739 1.491 . S
C745 C744 1.400 . S
C745 C746 1.398 . S
C746 H734 0.950 . S
C746 C745 1.398 . S
C746 C747 1.391 . S
C747 H735 0.950 . S
C747 C743 1.393 . S
C747 C746 1.391 . S
H748 C756 0.950 . S
H749 C761 0.950 . S
H750 C758 0.950 . S
H751 C760 0.950 1_455 S
H752 C762 0.950 . S
H753 C764 0.950 . S
H754 C766 0.950 . S
H755 C767 0.950 . S
C756 H748 0.950 . S
C756 C757 1.386 . S
C756 C758 1.391 . S
C757 C756 1.386 . S
C757 C761 1.393 . S
C758 H750 0.950 . S
C758 C756 1.391 . S
C758 C759 1.400 . S
C759 C758 1.400 . S
C759 C760 1.398 . S
C759 C765 1.491 1_655 S
C760 H751 0.950 1_655 S
C760 C759 1.398 . S
C760 C761 1.391 . S
C761 H749 0.950 . S
C761 C757 1.393 . S
C761 C760 1.391 . S
C762 H752 0.950 . S
C762 C763 1.386 . S
C762 C764 1.391 . S
C763 C762 1.386 . S
C763 C767 1.393 . S
C764 H753 0.950 . S
C764 C762 1.391 . S
C764 C765 1.400 . S
C765 C759 1.491 1_455 S
C765 C764 1.400 . S
C765 C766 1.398 1_455 S
C766 H754 0.950 . S
C766 C765 1.398 1_655 S
C766 C767 1.391 1_655 S
C767 H755 0.950 . S
C767 C763 1.393 . S
C767 C766 1.391 1_455 S
H768 C776 0.950 . S
H769 C781 0.950 . S
H770 C778 0.950 . S
H771 C780 0.950 . S
H772 C782 0.950 . S
H773 C784 0.950 . S
H774 C786 0.950 1_556 S
H775 C787 0.950 . S
C776 H768 0.950 . S
C776 C777 1.386 . S
C776 C778 1.391 . S
C777 C776 1.386 . S
C777 C781 1.393 . S
C778 H770 0.950 . S
C778 C776 1.391 . S
C778 C779 1.400 . S
C779 C778 1.400 . S
C779 C780 1.398 . S
C779 C785 1.491 1_556 S
C780 H771 0.950 . S
C780 C779 1.398 . S
C780 C781 1.391 . S
C781 H769 0.950 . S
C781 C777 1.393 . S
C781 C780 1.391 . S
C782 H772 0.950 . S
C782 C783 1.386 . S
C782 C784 1.391 . S
C783 C782 1.386 . S
C783 C787 1.393 . S
C784 H773 0.950 . S
C784 C782 1.391 . S
C784 C785 1.400 . S
C785 C779 1.491 1_554 S
C785 C784 1.400 . S
C785 C786 1.398 . S
C786 H774 0.950 1_554 S
C786 C785 1.398 . S
C786 C787 1.391 . S
C787 H775 0.950 . S
C787 C783 1.393 . S
C787 C786 1.391 . S
H788 C796 0.950 . S
H789 C801 0.950 . S
H790 C798 0.950 . S
H791 C800 0.950 . S
H792 C802 0.950 . S
H793 C804 0.950 . S
H794 C806 0.950 . S
H795 C807 0.950 . S
C796 H788 0.950 . S
C796 C797 1.386 . S
C796 C798 1.391 . S
C797 C796 1.386 . S
C797 C801 1.393 . S
C798 H790 0.950 . S
C798 C796 1.391 . S
C798 C799 1.400 . S
C799 C798 1.400 . S
C799 C800 1.398 . S
C799 C805 1.491 . S
C800 H791 0.950 . S
C800 C799 1.398 . S
C800 C801 1.391 . S
C801 H789 0.950 . S
C801 C797 1.393 . S
C801 C800 1.391 . S
C802 H792 0.950 . S
C802 C803 1.386 . S
C802 C804 1.391 . S
C803 C802 1.386 . S
C803 C807 1.393 . S
C804 H793 0.950 . S
C804 C802 1.391 . S
C804 C805 1.400 . S
C805 C799 1.491 . S
C805 C804 1.400 . S
C805 C806 1.398 . S
C806 H794 0.950 . S
C806 C805 1.398 . S
C806 C807 1.391 . S
C807 H795 0.950 . S
C807 C803 1.393 . S
C807 C806 1.391 . S
H808 C816 0.950 . S
H809 C821 0.950 . S
H810 C818 0.950 . S
H811 C820 0.950 . S
H812 C822 0.950 . S
H813 C824 0.950 . S
H814 C826 0.950 . S
H815 C827 0.950 . S
C816 H808 0.950 . S
C816 C817 1.386 . S
C816 C818 1.391 . S
C817 C816 1.386 . S
C817 C821 1.393 . S
C818 H810 0.950 . S
C818 C816 1.391 . S
C818 C819 1.400 . S
C819 C818 1.400 . S
C819 C820 1.398 . S
C819 C825 1.491 . S
C820 H811 0.950 . S
C820 C819 1.398 . S
C820 C821 1.391 . S
C821 H809 0.950 . S
C821 C817 1.393 . S
C821 C820 1.391 . S
C822 H812 0.950 . S
C822 C823 1.386 . S
C822 C824 1.391 . S
C823 C822 1.386 . S
C823 C827 1.393 . S
C824 H813 0.950 . S
C824 C822 1.391 . S
C824 C825 1.400 . S
C825 C819 1.491 . S
C825 C824 1.400 . S
C825 C826 1.398 . S
C826 H814 0.950 . S
C826 C825 1.398 . S
C826 C827 1.391 . S
C827 H815 0.950 . S
C827 C823 1.393 . S
C827 C826 1.391 . S
H828 C836 0.950 . S
H829 C841 0.950 . S
H830 C838 0.950 . S
H831 C840 0.950 . S
H832 C842 0.950 . S
H833 C844 0.950 . S
H834 C846 0.950 . S
H835 C847 0.950 . S
C836 H828 0.950 . S
C836 C837 1.386 . S
C836 C838 1.391 . S
C837 C836 1.386 . S
C837 C841 1.393 . S
C838 H830 0.950 . S
C838 C836 1.391 . S
C838 C839 1.400 . S
C839 C838 1.400 . S
C839 C840 1.398 . S
C839 C845 1.491 . S
C840 H831 0.950 . S
C840 C839 1.398 . S
C840 C841 1.391 . S
C841 H829 0.950 . S
C841 C837 1.393 . S
C841 C840 1.391 . S
C842 H832 0.950 . S
C842 C843 1.386 . S
C842 C844 1.391 . S
C843 C842 1.386 . S
C843 C847 1.393 . S
C844 H833 0.950 . S
C844 C842 1.391 . S
C844 C845 1.400 . S
C845 C839 1.491 . S
C845 C844 1.400 . S
C845 C846 1.398 . S
C846 H834 0.950 . S
C846 C845 1.398 . S
C846 C847 1.391 . S
C847 H835 0.950 . S
C847 C843 1.393 . S
C847 C846 1.391 . S
H848 C856 0.950 . S
H849 C861 0.950 . S
H850 C858 0.950 . S
H851 C860 0.950 1_565 S
H852 C862 0.950 . S
H853 C864 0.950 . S
H854 C866 0.950 . S
H855 C867 0.950 . S
C856 H848 0.950 . S
C856 C857 1.386 . S
C856 C858 1.391 . S
C857 C856 1.386 . S
C857 C861 1.393 . S
C858 H850 0.950 . S
C858 C856 1.391 . S
C858 C859 1.400 . S
C859 C858 1.400 . S
C859 C860 1.398 . S
C859 C865 1.491 1_545 S
C860 H851 0.950 1_545 S
C860 C859 1.398 . S
C860 C861 1.391 . S
C861 H849 0.950 . S
C861 C857 1.393 . S
C861 C860 1.391 . S
C862 H852 0.950 . S
C862 C863 1.386 . S
C862 C864 1.391 . S
C863 C862 1.386 . S
C863 C867 1.393 . S
C864 H853 0.950 . S
C864 C862 1.391 . S
C864 C865 1.400 . S
C865 C859 1.491 1_565 S
C865 C864 1.400 . S
C865 C866 1.398 1_565 S
C866 H854 0.950 . S
C866 C865 1.398 1_545 S
C866 C867 1.391 1_545 S
C867 H855 0.950 . S
C867 C863 1.393 . S
C867 C866 1.391 1_565 S
H868 C876 0.950 . S
H869 C881 0.950 . S
H870 C878 0.950 . S
H871 C880 0.950 . S
H872 C882 0.950 . S
H873 C884 0.950 . S
H874 C886 0.950 . S
H875 C887 0.950 . S
C876 H868 0.950 . S
C876 C877 1.386 . S
C876 C878 1.391 . S
C877 C876 1.386 . S
C877 C881 1.393 . S
C878 H870 0.950 . S
C878 C876 1.391 . S
C878 C879 1.400 . S
C879 C878 1.400 . S
C879 C880 1.398 . S
C879 C885 1.491 . S
C880 H871 0.950 . S
C880 C879 1.398 . S
C880 C881 1.391 . S
C881 H869 0.950 . S
C881 C877 1.393 . S
C881 C880 1.391 . S
C882 H872 0.950 . S
C882 C883 1.386 . S
C882 C884 1.391 . S
C883 C882 1.386 . S
C883 C887 1.393 . S
C884 H873 0.950 . S
C884 C882 1.391 . S
C884 C885 1.400 . S
C885 C879 1.491 . S
C885 C884 1.400 . S
C885 C886 1.398 . S
C886 H874 0.950 . S
C886 C885 1.398 . S
C886 C887 1.391 . S
C887 H875 0.950 . S
C887 C883 1.393 . S
C887 C886 1.391 . S
H888 C896 0.950 . S
H889 C901 0.950 . S
H890 C898 0.950 1_545 S
H891 C900 0.950 . S
H892 C902 0.950 . S
H893 C904 0.950 . S
H894 C906 0.950 . S
H895 C907 0.950 . S
C896 H888 0.950 . S
C896 C897 1.386 . S
C896 C898 1.391 . S
C897 C896 1.386 . S
C897 C901 1.393 . S
C898 H890 0.950 1_565 S
C898 C896 1.391 . S
C898 C899 1.400 . S
C899 C898 1.400 . S
C899 C900 1.398 . S
C899 C905 1.491 1_565 S
C900 H891 0.950 . S
C900 C899 1.398 . S
C900 C901 1.391 . S
C901 H889 0.950 . S
C901 C897 1.393 . S
C901 C900 1.391 . S
C902 H892 0.950 . S
C902 C903 1.386 . S
C902 C904 1.391 1_545 S
C903 C902 1.386 . S
C903 C907 1.393 . S
C904 H893 0.950 . S
C904 C902 1.391 1_565 S
C904 C905 1.400 1_565 S
C905 C899 1.491 1_545 S
C905 C904 1.400 1_545 S
C905 C906 1.398 . S
C906 H894 0.950 . S
C906 C905 1.398 . S
C906 C907 1.391 . S
C907 H895 0.950 . S
C907 C903 1.393 . S
C907 C906 1.391 . S
H908 C916 0.950 . S
H909 C921 0.950 . S
H910 C918 0.937 1_554 S
H911 C920 0.950 . S
H912 C922 0.950 . S
H913 C924 0.950 1_556 S
H914 C926 0.950 . S
H915 C927 0.950 . S
C916 H908 0.950 . S
C916 C917 1.386 . S
C916 C918 1.391 . S
C917 C916 1.386 . S
C917 C921 1.393 . S
C918 H910 0.937 1_556 S
C918 C916 1.391 . S
C918 C919 1.400 . S
C919 C918 1.400 . S
C919 C920 1.398 . S
C919 C925 1.491 1_556 S
C920 H911 0.950 . S
C920 C919 1.398 . S
C920 C921 1.391 . S
C921 H909 0.950 . S
C921 C917 1.393 . S
C921 C920 1.391 . S
C922 H912 0.950 . S
C922 C923 1.386 . S
C922 C924 1.391 . S
C923 C922 1.386 . S
C923 C927 1.393 . S
C924 H913 0.950 1_554 S
C924 C922 1.391 . S
C924 C925 1.400 . S
C925 C919 1.491 1_554 S
C925 C924 1.400 . S
C925 C926 1.398 . S
C926 H914 0.950 . S
C926 C925 1.398 . S
C926 C927 1.391 . S
C927 H915 0.950 . S
C927 C923 1.393 . S
C927 C926 1.391 . S
H928 C936 0.950 . S
H929 C941 0.950 . S
H930 C938 0.950 1_655 S
H931 C940 0.950 . S
H932 C942 0.950 . S
H933 C944 0.950 1_455 S
H934 C946 0.950 . S
H935 C947 0.950 . S
C936 H928 0.950 . S
C936 C937 1.386 . S
C936 C938 1.391 . S
C937 C936 1.386 . S
C937 C941 1.393 . S
C938 H930 0.950 1_455 S
C938 C936 1.391 . S
C938 C939 1.400 . S
C939 C938 1.400 . S
C939 C940 1.398 . S
C939 C945 1.491 1_455 S
C940 H931 0.950 . S
C940 C939 1.398 . S
C940 C941 1.391 . S
C941 H929 0.950 . S
C941 C937 1.393 . S
C941 C940 1.391 . S
C942 H932 0.950 . S
C942 C943 1.386 . S
C942 C944 1.391 . S
C943 C942 1.386 . S
C943 C947 1.393 . S
C944 H933 0.950 1_655 S
C944 C942 1.391 . S
C944 C945 1.400 . S
C945 C939 1.491 1_655 S
C945 C944 1.400 . S
C945 C946 1.398 . S
C946 H934 0.950 . S
C946 C945 1.398 . S
C946 C947 1.391 . S
C947 H935 0.950 . S
C947 C943 1.393 . S
C947 C946 1.391 . S
H948 C956 0.950 . S
H949 C961 0.950 . S
H950 C958 0.950 . S
H951 C960 0.950 . S
H952 C962 0.950 . S
H953 C964 0.950 . S
H954 C966 0.950 . S
H955 C967 0.950 . S
C956 H948 0.950 . S
C956 C957 1.386 . S
C956 C958 1.391 . S
C957 C956 1.386 . S
C957 C961 1.393 . S
C958 H950 0.950 . S
C958 C956 1.391 . S
C958 C959 1.400 . S
C959 C958 1.400 . S
C959 C960 1.398 . S
C959 C965 1.491 . S
C960 H951 0.950 . S
C960 C959 1.398 . S
C960 C961 1.391 . S
C961 H949 0.950 . S
C961 C957 1.393 . S
C961 C960 1.391 . S
C962 H952 0.950 . S
C962 C963 1.386 . S
C962 C964 1.391 . S
C963 C962 1.386 . S
C963 C967 1.393 . S
C964 H953 0.950 . S
C964 C962 1.391 . S
C964 C965 1.400 . S
C965 C959 1.491 . S
C965 C964 1.400 . S
C965 C966 1.398 . S
C966 H954 0.950 . S
C966 C965 1.398 . S
C966 C967 1.391 . S
C967 H955 0.950 . S
C967 C963 1.393 . S
C967 C966 1.391 . S
H968 C976 0.950 . S
H969 C981 0.950 . S
H970 C978 0.950 1_455 S
H971 C980 0.950 . S
H972 C982 0.950 . S
H973 C984 0.950 1_655 S
H974 C986 0.950 . S
H975 C987 0.950 . S
C976 H968 0.950 . S
C976 C977 1.386 . S
C976 C978 1.391 . S
C977 C976 1.386 . S
C977 C981 1.393 . S
C978 H970 0.950 1_655 S
C978 C976 1.391 . S
C978 C979 1.400 . S
C979 C978 1.400 . S
C979 C980 1.398 . S
C979 C985 1.491 1_655 S
C980 H971 0.950 . S
C980 C979 1.398 . S
C980 C981 1.391 . S
C981 H969 0.950 . S
C981 C977 1.393 . S
C981 C980 1.391 . S
C982 H972 0.950 . S
C982 C983 1.386 . S
C982 C984 1.391 . S
C983 C982 1.386 . S
C983 C987 1.393 . S
C984 H973 0.950 1_455 S
C984 C982 1.391 . S
C984 C985 1.400 . S
C985 C979 1.491 1_455 S
C985 C984 1.400 . S
C985 C986 1.398 . S
C986 H974 0.950 . S
C986 C985 1.398 . S
C986 C987 1.391 . S
C987 H975 0.950 . S
C987 C983 1.393 . S
C987 C986 1.391 . S
H988 C996 0.950 . S
H989 C1001 0.950 . S
H990 C998 0.950 . S
H991 C1000 0.950 . S
H992 C1002 0.950 . S
H993 C1004 0.950 . S
H994 C1006 0.950 . S
H995 C1007 0.950 . S
C996 H988 0.950 . S
C996 C997 1.386 . S
C996 C998 1.391 . S
C997 C996 1.386 . S
C997 C1001 1.393 . S
C998 H990 0.950 . S
C998 C996 1.391 . S
C998 C999 1.400 . S
C999 C998 1.400 . S
C999 C1000 1.398 . S
C999 C1005 1.491 . S
C1000 H991 0.950 . S
C1000 C999 1.398 . S
C1000 C1001 1.391 . S
C1001 H989 0.950 . S
C1001 C997 1.393 . S
C1001 C1000 1.391 . S
C1002 H992 0.950 . S
C1002 C1003 1.386 . S
C1002 C1004 1.391 . S
C1003 C1002 1.386 . S
C1003 C1007 1.393 . S
C1004 H993 0.950 . S
C1004 C1002 1.391 . S
C1004 C1005 1.400 . S
C1005 C999 1.491 . S
C1005 C1004 1.400 . S
C1005 C1006 1.398 . S
C1006 H994 0.950 . S
C1006 C1005 1.398 . S
C1006 C1007 1.391 . S
C1007 H995 0.950 . S
C1007 C1003 1.393 . S
C1007 C1006 1.391 . S
H1008 C1016 0.950 . S
H1009 C1021 0.950 . S
H1010 C1018 0.950 . S
H1011 C1020 0.950 . S
H1012 C1022 0.950 . S
H1013 C1024 0.950 . S
H1014 C1026 0.950 . S
H1015 C1027 0.950 . S
C1016 H1008 0.950 . S
C1016 C1017 1.386 . S
C1016 C1018 1.391 1_545 S
C1017 C1016 1.386 . S
C1017 C1021 1.393 . S
C1018 H1010 0.950 . S
C1018 C1016 1.391 1_565 S
C1018 C1019 1.400 . S
C1019 C1018 1.400 . S
C1019 C1020 1.398 1_565 S
C1019 C1025 1.491 . S
C1020 H1011 0.950 . S
C1020 C1019 1.398 1_545 S
C1020 C1021 1.391 . S
C1021 H1009 0.950 . S
C1021 C1017 1.393 . S
C1021 C1020 1.391 . S
C1022 H1012 0.950 . S
C1022 C1023 1.386 . S
C1022 C1024 1.391 . S
C1023 C1022 1.386 . S
C1023 C1027 1.393 . S
C1024 H1013 0.950 . S
C1024 C1022 1.391 . S
C1024 C1025 1.400 . S
C1025 C1019 1.491 . S
C1025 C1024 1.400 . S
C1025 C1026 1.398 . S
C1026 H1014 0.950 . S
C1026 C1025 1.398 . S
C1026 C1027 1.391 . S
C1027 H1015 0.950 . S
C1027 C1023 1.393 . S
C1027 C1026 1.391 . S
H1028 C1036 0.950 . S
H1029 C1041 0.950 . S
H1030 C1038 0.950 . S
H1031 C1040 0.950 . S
H1032 C1042 0.950 . S
H1033 C1044 0.950 . S
H1034 C1046 0.950 . S
H1035 C1047 0.950 . S
C1036 H1028 0.950 . S
C1036 C1037 1.386 . S
C1036 C1038 1.391 . S
C1037 C1036 1.386 . S
C1037 C1041 1.393 . S
C1038 H1030 0.950 . S
C1038 C1036 1.391 . S
C1038 C1039 1.400 . S
C1039 C1038 1.400 . S
C1039 C1040 1.398 . S
C1039 C1045 1.491 . S
C1040 H1031 0.950 . S
C1040 C1039 1.398 . S
C1040 C1041 1.391 . S
C1041 H1029 0.950 . S
C1041 C1037 1.393 . S
C1041 C1040 1.391 . S
C1042 H1032 0.950 . S
C1042 C1043 1.386 . S
C1042 C1044 1.391 . S
C1043 C1042 1.386 . S
C1043 C1047 1.393 . S
C1044 H1033 0.950 . S
C1044 C1042 1.391 . S
C1044 C1045 1.400 . S
C1045 C1039 1.491 . S
C1045 C1044 1.400 . S
C1045 C1046 1.398 . S
C1046 H1034 0.950 . S
C1046 C1045 1.398 . S
C1046 C1047 1.391 . S
C1047 H1035 0.950 . S
C1047 C1043 1.393 . S
C1047 C1046 1.391 . S
H1048 C1056 0.950 . S
H1049 C1061 0.950 . S
H1050 C1058 0.950 1_565 S
H1051 C1060 0.950 . S
H1052 C1062 0.950 . S
H1053 C1064 0.950 1_545 S
H1054 C1066 0.950 . S
H1055 C1067 0.950 . S
C1056 H1048 0.950 . S
C1056 C1057 1.386 . S
C1056 C1058 1.391 . S
C1057 C1056 1.386 . S
C1057 C1061 1.393 . S
C1058 H1050 0.950 1_545 S
C1058 C1056 1.391 . S
C1058 C1059 1.400 . S
C1059 C1058 1.400 . S
C1059 C1060 1.398 . S
C1059 C1065 1.491 1_545 S
C1060 H1051 0.950 . S
C1060 C1059 1.398 . S
C1060 C1061 1.391 . S
C1061 H1049 0.950 . S
C1061 C1057 1.393 . S
C1061 C1060 1.391 . S
C1062 H1052 0.950 . S
C1062 C1063 1.386 . S
C1062 C1064 1.391 . S
C1063 C1062 1.386 . S
C1063 C1067 1.393 . S
C1064 H1053 0.950 1_565 S
C1064 C1062 1.391 . S
C1064 C1065 1.400 . S
C1065 C1059 1.491 1_565 S
C1065 C1064 1.400 . S
C1065 C1066 1.398 . S
C1066 H1054 0.950 . S
C1066 C1065 1.398 . S
C1066 C1067 1.391 . S
C1067 H1055 0.950 . S
C1067 C1063 1.393 . S
C1067 C1066 1.391 . S
H1068 C1076 0.950 . S
H1069 C1081 0.950 . S
H1070 C1078 0.950 . S
H1071 C1080 0.950 . S
H1072 C1082 0.950 . S
H1073 C1084 0.950 1_554 S
H1074 C1086 0.950 . S
H1075 C1087 0.950 . S
C1076 H1068 0.950 . S
C1076 C1077 1.386 . S
C1076 C1078 1.391 1_554 S
C1077 C1076 1.386 . S
C1077 C1081 1.393 . S
C1078 H1070 0.950 . S
C1078 C1076 1.391 1_556 S
C1078 C1079 1.400 1_556 S
C1079 C1078 1.400 1_554 S
C1079 C1080 1.398 . S
C1079 C1085 1.491 1_554 S
C1080 H1071 0.950 . S
C1080 C1079 1.398 . S
C1080 C1081 1.391 . S
C1081 H1069 0.950 . S
C1081 C1077 1.393 . S
C1081 C1080 1.391 . S
C1082 H1072 0.950 . S
C1082 C1083 1.386 . S
C1082 C1084 1.391 . S
C1083 C1082 1.386 . S
C1083 C1087 1.393 . S
C1084 H1073 0.950 1_556 S
C1084 C1082 1.391 . S
C1084 C1085 1.400 . S
C1085 C1079 1.491 1_556 S
C1085 C1084 1.400 . S
C1085 C1086 1.398 . S
C1086 H1074 0.950 . S
C1086 C1085 1.398 . S
C1086 C1087 1.391 . S
C1087 H1075 0.950 . S
C1087 C1083 1.393 . S
C1087 C1086 1.391 . S
H1088 C1096 0.950 . S
H1089 C1101 0.950 . S
H1090 C1098 0.950 . S
H1091 C1100 0.950 . S
H1092 C1102 0.950 . S
H1093 C1104 0.950 . S
H1094 C1106 0.950 . S
H1095 C1107 0.950 . S
C1096 H1088 0.950 . S
C1096 C1097 1.386 . S
C1096 C1098 1.391 . S
C1097 C1096 1.386 . S
C1097 C1101 1.393 . S
C1098 H1090 0.950 . S
C1098 C1096 1.391 . S
C1098 C1099 1.400 . S
C1099 C1098 1.400 . S
C1099 C1100 1.398 . S
C1099 C1105 1.491 1_455 S
C1100 H1091 0.950 . S
C1100 C1099 1.398 . S
C1100 C1101 1.391 . S
C1101 H1089 0.950 . S
C1101 C1097 1.393 . S
C1101 C1100 1.391 . S
C1102 H1092 0.950 . S
C1102 C1103 1.386 . S
C1102 C1104 1.391 . S
C1103 C1102 1.386 . S
C1103 C1107 1.393 . S
C1104 H1093 0.950 . S
C1104 C1102 1.391 . S
C1104 C1105 1.400 . S
C1105 C1099 1.491 1_655 S
C1105 C1104 1.400 . S
C1105 C1106 1.398 . S
C1106 H1094 0.950 . S
C1106 C1105 1.398 . S
C1106 C1107 1.391 . S
C1107 H1095 0.950 . S
C1107 C1103 1.393 . S
C1107 C1106 1.391 . S
H1108 C1116 0.950 . S
H1109 C1121 0.950 . S
H1110 C1118 0.950 . S
H1111 C1120 0.950 . S
H1112 C1122 0.950 . S
H1113 C1124 0.950 . S
H1114 C1126 0.950 . S
H1115 C1127 0.950 . S
C1116 H1108 0.950 . S
C1116 C1117 1.386 . S
C1116 C1118 1.391 . S
C1117 C1116 1.386 . S
C1117 C1121 1.393 . S
C1118 H1110 0.950 . S
C1118 C1116 1.391 . S
C1118 C1119 1.400 . S
C1119 C1118 1.400 . S
C1119 C1120 1.398 . S
C1119 C1125 1.491 . S
C1120 H1111 0.950 . S
C1120 C1119 1.398 . S
C1120 C1121 1.391 . S
C1121 H1109 0.950 . S
C1121 C1117 1.393 . S
C1121 C1120 1.391 . S
C1122 H1112 0.950 . S
C1122 C1123 1.386 . S
C1122 C1124 1.391 . S
C1123 C1122 1.386 . S
C1123 C1127 1.393 . S
C1124 H1113 0.950 . S
C1124 C1122 1.391 . S
C1124 C1125 1.400 . S
C1125 C1119 1.491 . S
C1125 C1124 1.400 . S
C1125 C1126 1.398 . S
C1126 H1114 0.950 . S
C1126 C1125 1.398 . S
C1126 C1127 1.391 . S
C1127 H1115 0.950 . S
C1127 C1123 1.393 . S
C1127 C1126 1.391 . S
H1128 C1136 0.950 . S
H1129 C1141 0.950 . S
H1130 C1138 0.950 1_455 S
H1131 C1140 0.950 . S
H1132 C1142 0.950 . S
H1133 C1144 0.950 1_655 S
H1134 C1146 0.950 . S
H1135 C1147 0.950 . S
C1136 H1128 0.950 . S
C1136 C1137 1.386 . S
C1136 C1138 1.391 . S
C1137 C1136 1.386 . S
C1137 C1141 1.393 . S
C1138 H1130 0.950 1_655 S
C1138 C1136 1.391 . S
C1138 C1139 1.400 . S
C1139 C1138 1.400 . S
C1139 C1140 1.398 . S
C1139 C1145 1.491 1_655 S
C1140 H1131 0.950 . S
C1140 C1139 1.398 . S
C1140 C1141 1.391 . S
C1141 H1129 0.950 . S
C1141 C1137 1.393 . S
C1141 C1140 1.391 . S
C1142 H1132 0.950 . S
C1142 C1143 1.386 . S
C1142 C1144 1.391 . S
C1143 C1142 1.386 . S
C1143 C1147 1.393 . S
C1144 H1133 0.950 1_455 S
C1144 C1142 1.391 . S
C1144 C1145 1.400 . S
C1145 C1139 1.491 1_455 S
C1145 C1144 1.400 . S
C1145 C1146 1.398 . S
C1146 H1134 0.950 . S
C1146 C1145 1.398 . S
C1146 C1147 1.391 . S
C1147 H1135 0.950 . S
C1147 C1143 1.393 . S
C1147 C1146 1.391 . S
H1148 C1156 0.950 . S
H1149 C1161 0.950 . S
H1150 C1158 0.950 . S
H1151 C1160 0.950 . S
H1152 C1162 0.950 . S
H1153 C1164 0.950 . S
H1154 C1166 0.950 . S
H1155 C1167 0.950 . S
C1156 H1148 0.950 . S
C1156 C1157 1.386 . S
C1156 C1158 1.391 . S
C1157 C1156 1.386 . S
C1157 C1161 1.393 . S
C1158 H1150 0.950 . S
C1158 C1156 1.391 . S
C1158 C1159 1.400 . S
C1159 C1158 1.400 . S
C1159 C1160 1.398 . S
C1159 C1165 1.491 . S
C1160 H1151 0.950 . S
C1160 C1159 1.398 . S
C1160 C1161 1.391 . S
C1161 H1149 0.950 . S
C1161 C1157 1.393 . S
C1161 C1160 1.391 . S
C1162 H1152 0.950 . S
C1162 C1163 1.386 . S
C1162 C1164 1.391 . S
C1163 C1162 1.386 . S
C1163 C1167 1.393 . S
C1164 H1153 0.950 . S
C1164 C1162 1.391 . S
C1164 C1165 1.400 . S
C1165 C1159 1.491 . S
C1165 C1164 1.400 . S
C1165 C1166 1.398 . S
C1166 H1154 0.950 . S
C1166 C1165 1.398 . S
C1166 C1167 1.391 . S
C1167 H1155 0.950 . S
C1167 C1163 1.393 . S
C1167 C1166 1.391 . S
H1168 C1176 0.950 . S
H1169 C1181 0.950 . S
H1170 C1178 0.950 . S
H1171 C1180 0.950 . S
H1172 C1182 0.950 . S
H1173 C1184 0.950 . S
H1174 C1186 0.950 . S
H1175 C1187 0.950 . S
C1176 H1168 0.950 . S
C1176 C1177 1.386 . S
C1176 C1178 1.391 . S
C1177 C1176 1.386 . S
C1177 C1181 1.393 . S
C1178 H1170 0.950 . S
C1178 C1176 1.391 . S
C1178 C1179 1.400 . S
C1179 C1178 1.400 . S
C1179 C1180 1.398 . S
C1179 C1185 1.491 . S
C1180 H1171 0.950 . S
C1180 C1179 1.398 . S
C1180 C1181 1.391 . S
C1181 H1169 0.950 . S
C1181 C1177 1.393 . S
C1181 C1180 1.391 . S
C1182 H1172 0.950 . S
C1182 C1183 1.386 . S
C1182 C1184 1.391 . S
C1183 C1182 1.386 . S
C1183 C1187 1.393 . S
C1184 H1173 0.950 . S
C1184 C1182 1.391 . S
C1184 C1185 1.400 . S
C1185 C1179 1.491 . S
C1185 C1184 1.400 . S
C1185 C1186 1.398 . S
C1186 H1174 0.950 . S
C1186 C1185 1.398 . S
C1186 C1187 1.391 . S
C1187 H1175 0.950 . S
C1187 C1183 1.393 . S
C1187 C1186 1.391 . S
H1188 C1196 0.950 . S
H1189 C1201 0.950 . S
H1190 C1198 0.950 . S
H1191 C1200 0.950 1_554 S
H1192 C1202 0.950 . S
H1193 C1204 0.950 . S
H1194 C1206 0.950 1_556 S
H1195 C1207 0.950 . S
C1196 H1188 0.950 . S
C1196 C1197 1.386 . S
C1196 C1198 1.391 . S
C1197 C1196 1.386 . S
C1197 C1201 1.393 . S
C1198 H1190 0.950 . S
C1198 C1196 1.391 . S
C1198 C1199 1.400 . S
C1199 C1198 1.400 . S
C1199 C1200 1.398 . S
C1199 C1205 1.491 1_556 S
C1200 H1191 0.950 1_556 S
C1200 C1199 1.398 . S
C1200 C1201 1.391 . S
C1201 H1189 0.950 . S
C1201 C1197 1.393 . S
C1201 C1200 1.391 . S
C1202 H1192 0.950 . S
C1202 C1203 1.386 . S
C1202 C1204 1.391 . S
C1203 C1202 1.386 . S
C1203 C1207 1.393 . S
C1204 H1193 0.950 . S
C1204 C1202 1.391 . S
C1204 C1205 1.400 . S
C1205 C1199 1.491 1_554 S
C1205 C1204 1.400 . S
C1205 C1206 1.398 . S
C1206 H1194 0.950 1_554 S
C1206 C1205 1.398 . S
C1206 C1207 1.391 . S
C1207 H1195 0.950 . S
C1207 C1203 1.393 . S
C1207 C1206 1.391 . S
H1208 C1216 0.950 . S
H1209 C1221 0.950 . S
H1210 C1218 0.950 . S
H1211 C1220 0.950 . S
H1212 C1222 0.950 . S
H1213 C1224 0.950 . S
H1214 C1226 0.950 . S
H1215 C1227 0.950 . S
C1216 H1208 0.950 . S
C1216 C1217 1.386 . S
C1216 C1218 1.391 . S
C1217 C1216 1.386 . S
C1217 C1221 1.393 . S
C1218 H1210 0.950 . S
C1218 C1216 1.391 . S
C1218 C1219 1.400 . S
C1219 C1218 1.400 . S
C1219 C1220 1.398 . S
C1219 C1225 1.491 . S
C1220 H1211 0.950 . S
C1220 C1219 1.398 . S
C1220 C1221 1.391 . S
C1221 H1209 0.950 . S
C1221 C1217 1.393 . S
C1221 C1220 1.391 . S
C1222 H1212 0.950 . S
C1222 C1223 1.386 . S
C1222 C1224 1.391 . S
C1223 C1222 1.386 . S
C1223 C1227 1.393 . S
C1224 H1213 0.950 . S
C1224 C1222 1.391 . S
C1224 C1225 1.400 . S
C1225 C1219 1.491 . S
C1225 C1224 1.400 . S
C1225 C1226 1.398 . S
C1226 H1214 0.950 . S
C1226 C1225 1.398 . S
C1226 C1227 1.391 . S
C1227 H1215 0.950 . S
C1227 C1223 1.393 . S
C1227 C1226 1.391 . S
H1228 C1236 0.950 . S
H1229 C1241 0.950 . S
H1230 C1238 0.950 . S
H1231 C1240 0.950 . S
H1232 C1242 0.950 . S
H1233 C1244 0.950 . S
H1234 C1246 0.950 . S
H1235 C1247 0.950 . S
C1236 H1228 0.950 . S
C1236 C1237 1.386 . S
C1236 C1238 1.391 . S
C1237 C1236 1.386 . S
C1237 C1241 1.393 . S
C1238 H1230 0.950 . S
C1238 C1236 1.391 . S
C1238 C1239 1.400 . S
C1239 C1238 1.400 . S
C1239 C1240 1.398 . S
C1239 C1245 1.491 . S
C1240 H1231 0.950 . S
C1240 C1239 1.398 . S
C1240 C1241 1.391 . S
C1241 H1229 0.950 . S
C1241 C1237 1.393 . S
C1241 C1240 1.391 . S
C1242 H1232 0.950 . S
C1242 C1243 1.386 . S
C1242 C1244 1.391 . S
C1243 C1242 1.386 . S
C1243 C1247 1.393 . S
C1244 H1233 0.950 . S
C1244 C1242 1.391 . S
C1244 C1245 1.400 . S
C1245 C1239 1.491 . S
C1245 C1244 1.400 . S
C1245 C1246 1.398 . S
C1246 H1234 0.950 . S
C1246 C1245 1.398 . S
C1246 C1247 1.391 . S
C1247 H1235 0.950 . S
C1247 C1243 1.393 . S
C1247 C1246 1.391 . S
H1248 C1256 0.950 . S
H1249 C1261 0.950 . S
H1250 C1258 0.950 . S
H1251 C1260 0.950 . S
H1252 C1262 0.950 . S
H1253 C1264 0.950 . S
H1254 C1266 0.950 . S
H1255 C1267 0.950 . S
C1256 H1248 0.950 . S
C1256 C1257 1.386 . S
C1256 C1258 1.391 . S
C1257 C1256 1.386 . S
C1257 C1261 1.393 . S
C1258 H1250 0.950 . S
C1258 C1256 1.391 . S
C1258 C1259 1.400 . S
C1259 C1258 1.400 . S
C1259 C1260 1.398 . S
C1259 C1265 1.491 . S
C1260 H1251 0.950 . S
C1260 C1259 1.398 . S
C1260 C1261 1.391 . S
C1261 H1249 0.950 . S
C1261 C1257 1.393 . S
C1261 C1260 1.391 . S
C1262 H1252 0.950 . S
C1262 C1263 1.386 . S
C1262 C1264 1.391 . S
C1263 C1262 1.386 . S
C1263 C1267 1.393 . S
C1264 H1253 0.950 . S
C1264 C1262 1.391 . S
C1264 C1265 1.400 . S
C1265 C1259 1.491 . S
C1265 C1264 1.400 . S
C1265 C1266 1.398 . S
C1266 H1254 0.950 . S
C1266 C1265 1.398 . S
C1266 C1267 1.391 . S
C1267 H1255 0.950 . S
C1267 C1263 1.393 . S
C1267 C1266 1.391 . S
H1268 C1276 0.950 . S
H1269 C1281 0.950 . S
H1270 C1278 0.949 . S
H1271 C1280 0.950 . S
H1272 C1282 0.950 . S
H1273 C1284 0.950 1_556 S
H1274 C1286 0.950 . S
H1275 C1287 0.950 . S
C1276 H1268 0.950 . S
C1276 C1277 1.386 . S
C1276 C1278 1.391 . S
C1277 C1276 1.386 . S
C1277 C1281 1.393 . S
C1278 H1270 0.949 . S
C1278 C1276 1.391 . S
C1278 C1279 1.400 . S
C1279 C1278 1.400 . S
C1279 C1280 1.398 . S
C1279 C1285 1.491 1_556 S
C1280 H1271 0.950 . S
C1280 C1279 1.398 . S
C1280 C1281 1.391 . S
C1281 H1269 0.950 . S
C1281 C1277 1.393 . S
C1281 C1280 1.391 . S
C1282 H1272 0.950 . S
C1282 C1283 1.386 . S
C1282 C1284 1.391 . S
C1283 C1282 1.386 . S
C1283 C1287 1.393 . S
C1284 H1273 0.950 1_554 S
C1284 C1282 1.391 . S
C1284 C1285 1.400 . S
C1285 C1279 1.491 1_554 S
C1285 C1284 1.400 . S
C1285 C1286 1.398 . S
C1286 H1274 0.950 . S
C1286 C1285 1.398 . S
C1286 C1287 1.391 . S
C1287 H1275 0.950 . S
C1287 C1283 1.393 . S
C1287 C1286 1.391 . S
H1288 C1296 0.950 . S
H1289 C1301 0.950 . S
H1290 C1298 0.950 . S
H1291 C1300 0.950 . S
H1292 C1302 0.950 . S
H1293 C1304 0.950 . S
H1294 C1306 0.950 . S
H1295 C1307 0.950 . S
C1296 H1288 0.950 . S
C1296 C1297 1.386 . S
C1296 C1298 1.391 . S
C1297 C1296 1.386 . S
C1297 C1301 1.393 . S
C1298 H1290 0.950 . S
C1298 C1296 1.391 . S
C1298 C1299 1.400 . S
C1299 C1298 1.400 . S
C1299 C1300 1.398 . S
C1299 C1305 1.491 . S
C1300 H1291 0.950 . S
C1300 C1299 1.398 . S
C1300 C1301 1.391 . S
C1301 H1289 0.950 . S
C1301 C1297 1.393 . S
C1301 C1300 1.391 . S
C1302 H1292 0.950 . S
C1302 C1303 1.386 . S
C1302 C1304 1.391 . S
C1303 C1302 1.386 . S
C1303 C1307 1.393 . S
C1304 H1293 0.950 . S
C1304 C1302 1.391 . S
C1304 C1305 1.400 . S
C1305 C1299 1.491 . S
C1305 C1304 1.400 . S
C1305 C1306 1.398 . S
C1306 H1294 0.950 . S
C1306 C1305 1.398 . S
C1306 C1307 1.391 . S
C1307 H1295 0.950 . S
C1307 C1303 1.393 . S
C1307 C1306 1.391 . S
H1308 C1316 0.950 . S
H1309 C1321 0.950 . S
H1310 C1318 0.950 . S
H1311 C1320 0.950 . S
H1312 C1322 0.950 . S
H1313 C1324 0.950 . S
H1314 C1326 0.950 . S
H1315 C1327 0.950 . S
C1316 H1308 0.950 . S
C1316 C1317 1.386 . S
C1316 C1318 1.391 . S
C1317 C1316 1.386 . S
C1317 C1321 1.393 . S
C1318 H1310 0.950 . S
C1318 C1316 1.391 . S
C1318 C1319 1.400 . S
C1319 C1318 1.400 . S
C1319 C1320 1.398 . S
C1319 C1325 1.491 . S
C1320 H1311 0.950 . S
C1320 C1319 1.398 . S
C1320 C1321 1.391 . S
C1321 H1309 0.950 . S
C1321 C1317 1.393 . S
C1321 C1320 1.391 . S
C1322 H1312 0.950 . S
C1322 C1323 1.386 . S
C1322 C1324 1.391 . S
C1323 C1322 1.386 . S
C1323 C1327 1.393 . S
C1324 H1313 0.950 . S
C1324 C1322 1.391 . S
C1324 C1325 1.400 . S
C1325 C1319 1.491 . S
C1325 C1324 1.400 . S
C1325 C1326 1.398 . S
C1326 H1314 0.950 . S
C1326 C1325 1.398 . S
C1326 C1327 1.391 . S
C1327 H1315 0.950 . S
C1327 C1323 1.393 . S
C1327 C1326 1.391 . S
C537 N5 1.465 . S
C543 N509 1.457 . S
C557 N278 2.126 . S
C563 N38 2.128 . S
C577 N410 1.792 . S
C583 N71 1.797 . S
C597 N113 2.206 . S
C603 N344 2.202 . S
C617 N368 2.099 . S
C623 N47 2.110 . S
C637 N80 1.943 . S
C643 N311 1.939 . S
C657 N104 2.035 . S
C663 N434 2.034 . S
C677 N14 1.476 . S
C683 N236 1.471 . S
C697 N269 2.190 . S
C703 N146 2.199 . S
C717 N401 1.778 . S
C723 N179 1.784 . S
C737 N203 2.062 . S
C743 N335 2.063 . S
C757 N212 2.106 . S
C763 N443 2.098 . S
C777 N137 2.061 . S
C783 N377 2.064 . S
C797 N476 1.489 . S
C803 N245 1.485 . S
C817 N302 1.882 . S
C823 N170 1.882 . S
C837 N500 1.420 . S
C843 N467 1.423 . S
C857 C17 0.803 . S
C863 C61 0.797 . S
C877 C41 1.202 . S
C883 C74 1.204 . S
C897 C83 1.083 . S
C903 C107 1.086 . S
C917 C127 1.435 . S
C923 C8 1.426 . S
C937 C28 0.806 . S
C943 C193 0.794 . S
C957 C149 0.772 . S
C963 C116 0.779 . S
C977 C215 0.399 . S
C983 C50 0.410 . S
C997 C490 0.745 . S
C1003 C94 0.744 . S
C1017 C281 0.854 . S
C1023 C239 0.858 . S
C1037 C292 1.316 . S
C1043 C305 1.323 . S
C1057 C325 1.185 . S
C1063 C338 1.191 . S
C1077 C347 0.603 . S
C1083 C259 0.598 . S
C1097 C413 0.522 . S
C1103 C248 0.521 . S
C1117 C371 1.171 . S
C1123 C358 1.173 . S
C1137 C272 1.242 . S
C1143 C457 1.245 . S
C1157 C512 0.775 . S
C1163 C314 0.772 . S
C1177 C160 1.272 . S
C1183 C470 1.273 . S
C1197 C140 1.378 . S
C1203 C173 1.376 . S
C1217 C182 0.868 . S
C1223 C206 0.866 . S
C1237 C479 0.913 . S
C1243 C226 0.914 . S
C1257 C380 0.689 . S
C1263 C503 0.684 . S
C1277 C424 1.234 . S
C1283 C391 1.239 . S
C1297 C404 1.178 . S
C1303 C437 1.180 . S
C1317 C523 0.481 . S
C1323 C446 0.482 . S
